# Generated by pormake.
# Topology eea, (3,6)-cn, num edge types: 1
# Building blocks:
#     Node 0, Type 0, BuildingBlock: VETTIZ_charged_linker_0, # of connection points: 3
#     Node 1, Type 0, BuildingBlock: VETTIZ_charged_linker_0, # of connection points: 3
#     Node 2, Type 0, BuildingBlock: VETTIZ_charged_linker_0, # of connection points: 3
#     Node 3, Type 0, BuildingBlock: VETTIZ_charged_linker_0, # of connection points: 3
#     Node 4, Type 0, BuildingBlock: VETTIZ_charged_linker_0, # of connection points: 3
#     Node 5, Type 0, BuildingBlock: VETTIZ_charged_linker_0, # of connection points: 3
#     Node 6, Type 0, BuildingBlock: VETTIZ_charged_linker_0, # of connection points: 3
#     Node 7, Type 0, BuildingBlock: VETTIZ_charged_linker_0, # of connection points: 3
#     Node 8, Type 0, BuildingBlock: VETTIZ_charged_linker_0, # of connection points: 3
#     Node 9, Type 0, BuildingBlock: VETTIZ_charged_linker_0, # of connection points: 3
#     Node 10, Type 0, BuildingBlock: VETTIZ_charged_linker_0, # of connection points: 3
#     Node 11, Type 0, BuildingBlock: VETTIZ_charged_linker_0, # of connection points: 3
#     Node 12, Type 0, BuildingBlock: VETTIZ_charged_linker_0, # of connection points: 3
#     Node 13, Type 0, BuildingBlock: VETTIZ_charged_linker_0, # of connection points: 3
#     Node 14, Type 0, BuildingBlock: VETTIZ_charged_linker_0, # of connection points: 3
#     Node 15, Type 0, BuildingBlock: VETTIZ_charged_linker_0, # of connection points: 3
#     Node 16, Type 0, BuildingBlock: VETTIZ_charged_linker_0, # of connection points: 3
#     Node 17, Type 0, BuildingBlock: VETTIZ_charged_linker_0, # of connection points: 3
#     Node 18, Type 1, BuildingBlock: CIFDUS_clean_sbu_1, # of connection points: 6
#     Node 19, Type 1, BuildingBlock: CIFDUS_clean_sbu_1, # of connection points: 6
#     Node 20, Type 1, BuildingBlock: CIFDUS_clean_sbu_1, # of connection points: 6
#     Node 21, Type 1, BuildingBlock: CIFDUS_clean_sbu_1, # of connection points: 6
#     Node 22, Type 1, BuildingBlock: CIFDUS_clean_sbu_1, # of connection points: 6
#     Node 23, Type 1, BuildingBlock: CIFDUS_clean_sbu_1, # of connection points: 6
#     Node 24, Type 1, BuildingBlock: CIFDUS_clean_sbu_1, # of connection points: 6
#     Node 25, Type 1, BuildingBlock: CIFDUS_clean_sbu_1, # of connection points: 6
#     Node 26, Type 1, BuildingBlock: CIFDUS_clean_sbu_1, # of connection points: 6
#     Edge 27, Type (0, 1), BuildingBlock: MIFKUJ_clean_linker_0, # of connection points: 2
#     Edge 28, Type (0, 1), BuildingBlock: MIFKUJ_clean_linker_0, # of connection points: 2
#     Edge 29, Type (0, 1), BuildingBlock: MIFKUJ_clean_linker_0, # of connection points: 2
#     Edge 30, Type (0, 1), BuildingBlock: MIFKUJ_clean_linker_0, # of connection points: 2
#     Edge 31, Type (0, 1), BuildingBlock: MIFKUJ_clean_linker_0, # of connection points: 2
#     Edge 32, Type (0, 1), BuildingBlock: MIFKUJ_clean_linker_0, # of connection points: 2
#     Edge 33, Type (0, 1), BuildingBlock: MIFKUJ_clean_linker_0, # of connection points: 2
#     Edge 34, Type (0, 1), BuildingBlock: MIFKUJ_clean_linker_0, # of connection points: 2
#     Edge 35, Type (0, 1), BuildingBlock: MIFKUJ_clean_linker_0, # of connection points: 2
#     Edge 36, Type (0, 1), BuildingBlock: MIFKUJ_clean_linker_0, # of connection points: 2
#     Edge 37, Type (0, 1), BuildingBlock: MIFKUJ_clean_linker_0, # of connection points: 2
#     Edge 38, Type (0, 1), BuildingBlock: MIFKUJ_clean_linker_0, # of connection points: 2
#     Edge 39, Type (0, 1), BuildingBlock: MIFKUJ_clean_linker_0, # of connection points: 2
#     Edge 40, Type (0, 1), BuildingBlock: MIFKUJ_clean_linker_0, # of connection points: 2
#     Edge 41, Type (0, 1), BuildingBlock: MIFKUJ_clean_linker_0, # of connection points: 2
#     Edge 42, Type (0, 1), BuildingBlock: MIFKUJ_clean_linker_0, # of connection points: 2
#     Edge 43, Type (0, 1), BuildingBlock: MIFKUJ_clean_linker_0, # of connection points: 2
#     Edge 44, Type (0, 1), BuildingBlock: MIFKUJ_clean_linker_0, # of connection points: 2
#     Edge 45, Type (0, 1), BuildingBlock: MIFKUJ_clean_linker_0, # of connection points: 2
#     Edge 46, Type (0, 1), BuildingBlock: MIFKUJ_clean_linker_0, # of connection points: 2
#     Edge 47, Type (0, 1), BuildingBlock: MIFKUJ_clean_linker_0, # of connection points: 2
#     Edge 48, Type (0, 1), BuildingBlock: MIFKUJ_clean_linker_0, # of connection points: 2
#     Edge 49, Type (0, 1), BuildingBlock: MIFKUJ_clean_linker_0, # of connection points: 2
#     Edge 50, Type (0, 1), BuildingBlock: MIFKUJ_clean_linker_0, # of connection points: 2
#     Edge 51, Type (0, 1), BuildingBlock: MIFKUJ_clean_linker_0, # of connection points: 2
#     Edge 52, Type (0, 1), BuildingBlock: MIFKUJ_clean_linker_0, # of connection points: 2
#     Edge 53, Type (0, 1), BuildingBlock: MIFKUJ_clean_linker_0, # of connection points: 2
#     Edge 54, Type (0, 1), BuildingBlock: MIFKUJ_clean_linker_0, # of connection points: 2
#     Edge 55, Type (0, 1), BuildingBlock: MIFKUJ_clean_linker_0, # of connection points: 2
#     Edge 56, Type (0, 1), BuildingBlock: MIFKUJ_clean_linker_0, # of connection points: 2
#     Edge 57, Type (0, 1), BuildingBlock: MIFKUJ_clean_linker_0, # of connection points: 2
#     Edge 58, Type (0, 1), BuildingBlock: MIFKUJ_clean_linker_0, # of connection points: 2
#     Edge 59, Type (0, 1), BuildingBlock: MIFKUJ_clean_linker_0, # of connection points: 2
#     Edge 60, Type (0, 1), BuildingBlock: MIFKUJ_clean_linker_0, # of connection points: 2
#     Edge 61, Type (0, 1), BuildingBlock: MIFKUJ_clean_linker_0, # of connection points: 2
#     Edge 62, Type (0, 1), BuildingBlock: MIFKUJ_clean_linker_0, # of connection points: 2
#     Edge 63, Type (0, 1), BuildingBlock: MIFKUJ_clean_linker_0, # of connection points: 2
#     Edge 64, Type (0, 1), BuildingBlock: MIFKUJ_clean_linker_0, # of connection points: 2
#     Edge 65, Type (0, 1), BuildingBlock: MIFKUJ_clean_linker_0, # of connection points: 2
#     Edge 66, Type (0, 1), BuildingBlock: MIFKUJ_clean_linker_0, # of connection points: 2
#     Edge 67, Type (0, 1), BuildingBlock: MIFKUJ_clean_linker_0, # of connection points: 2
#     Edge 68, Type (0, 1), BuildingBlock: MIFKUJ_clean_linker_0, # of connection points: 2
#     Edge 69, Type (0, 1), BuildingBlock: MIFKUJ_clean_linker_0, # of connection points: 2
#     Edge 70, Type (0, 1), BuildingBlock: MIFKUJ_clean_linker_0, # of connection points: 2
#     Edge 71, Type (0, 1), BuildingBlock: MIFKUJ_clean_linker_0, # of connection points: 2
#     Edge 72, Type (0, 1), BuildingBlock: MIFKUJ_clean_linker_0, # of connection points: 2
#     Edge 73, Type (0, 1), BuildingBlock: MIFKUJ_clean_linker_0, # of connection points: 2
#     Edge 74, Type (0, 1), BuildingBlock: MIFKUJ_clean_linker_0, # of connection points: 2
#     Edge 75, Type (0, 1), BuildingBlock: MIFKUJ_clean_linker_0, # of connection points: 2
#     Edge 76, Type (0, 1), BuildingBlock: MIFKUJ_clean_linker_0, # of connection points: 2
#     Edge 77, Type (0, 1), BuildingBlock: MIFKUJ_clean_linker_0, # of connection points: 2
#     Edge 78, Type (0, 1), BuildingBlock: MIFKUJ_clean_linker_0, # of connection points: 2
#     Edge 79, Type (0, 1), BuildingBlock: MIFKUJ_clean_linker_0, # of connection points: 2
#     Edge 80, Type (0, 1), BuildingBlock: MIFKUJ_clean_linker_0, # of connection points: 2
# Relax obj value: 0.101
# Max RMSD: 0.187
# Mean RMSD: 0.096
data_MOF--net-eea--node1-CIFDUS_clean_sbu_1--node2-VETTIZ_charged_linker_0--edge1-MIFKUJ_clean_linker_0
_symmetry_space_group_name_H-M    P1
_symmetry_Int_Tables_number       1
_symmetry_cell_setting            triclinic
loop_
_symmetry_equiv_pos_as_xyz
'x, y, z'
_cell_length_a     82.120591
_cell_length_b     81.375488
_cell_length_c     84.257348
_cell_angle_alpha  90.233081
_cell_angle_beta   90.23875
_cell_angle_gamma 120.01442
loop_
_atom_site_label
_atom_site_type_symbol
_atom_site_fract_x
_atom_site_fract_y
_atom_site_fract_z
_atom_type_partial_charge
C0 C 0.24449 0.16804 0.37403 0.0
C1 C 0.24787 0.18548 0.38029 0.0
C2 C 0.25786 0.19224 0.39467 0.0
C3 C 0.25967 0.16357 0.39709 0.0
C4 C 0.25076 0.15745 0.38251 0.0
C5 C 0.24826 0.13848 0.37775 0.0
H6 H 0.25601 0.06187 0.3968 0.0
C7 C 0.26309 0.14867 0.40343 0.0
C8 C 0.25669 0.13403 0.39205 0.0
H9 H 0.23227 0.07072 0.35404 0.0
H10 H 0.24024 0.10211 0.36329 0.0
H11 H 0.29239 0.10368 0.39938 0.0
H12 H 0.23717 0.07801 0.41973 0.0
H13 H 0.25312 0.09184 0.43471 0.0
H14 H 0.25466 0.07236 0.42612 0.0
H15 H 0.28553 0.0873 0.41555 0.0
H16 H 0.29531 0.11245 0.41889 0.0
C17 C 0.25985 0.14123 0.36254 0.0
C18 C 0.22692 0.12426 0.37586 0.0
C19 C 0.28743 0.15399 0.46 0.0
C20 C 0.29184 0.14227 0.46911 0.0
C21 C 0.29015 0.12572 0.46214 0.0
C22 C 0.2838 0.12067 0.44646 0.0
C23 C 0.27913 0.13232 0.43757 0.0
C24 C 0.28127 0.14884 0.44426 0.0
C25 C 0.27631 0.1598 0.43276 0.0
C26 C 0.2703 0.14682 0.41826 0.0
C27 C 0.27181 0.13068 0.42124 0.0
C28 C 0.29424 0.17916 0.42961 0.0
C29 C 0.25976 0.16139 0.43981 0.0
C30 C 0.25288 0.07074 0.38929 0.0
C31 C 0.24365 0.06394 0.37464 0.0
C32 C 0.23937 0.0757 0.36539 0.0
C33 C 0.244 0.09388 0.3708 0.0
C34 C 0.25274 0.10025 0.38572 0.0
C35 C 0.25712 0.08875 0.39463 0.0
C36 C 0.26557 0.09736 0.41049 0.0
C37 C 0.26578 0.11607 0.40961 0.0
C38 C 0.25823 0.11771 0.3951 0.0
C39 C 0.28571 0.10029 0.41129 0.0
C40 C 0.25211 0.08427 0.42354 0.0
H41 H 0.27082 0.18698 0.41424 0.0
H42 H 0.23681 0.16263 0.36297 0.0
H43 H 0.21869 0.12721 0.38473 0.0
H44 H 0.22319 0.10942 0.37802 0.0
H45 H 0.22179 0.12523 0.36388 0.0
H46 H 0.27337 0.15494 0.36301 0.0
H47 H 0.25203 0.14137 0.3518 0.0
H48 H 0.26394 0.13029 0.36103 0.0
H49 H 0.28885 0.16693 0.465 0.0
H50 H 0.29333 0.11641 0.46897 0.0
H51 H 0.28259 0.10777 0.44194 0.0
H52 H 0.30725 0.17841 0.43164 0.0
H53 H 0.29496 0.19045 0.43754 0.0
H54 H 0.2952 0.18368 0.41711 0.0
H55 H 0.24893 0.14751 0.4447 0.0
H56 H 0.25234 0.16524 0.43095 0.0
H57 H 0.26469 0.17201 0.44961 0.0
H58 H 0.26041 0.20563 0.39966 0.0
C59 C 0.26374 0.18134 0.40313 0.0
C60 C 0.92375 0.16603 0.37287 0.0
C61 C 0.93827 0.18302 0.37937 0.0
C62 C 0.93549 0.18949 0.3941 0.0
C63 C 0.90453 0.16167 0.39603 0.0
C64 C 0.90701 0.1557 0.38132 0.0
C65 C 0.89029 0.13719 0.37623 0.0
H66 H 0.80583 0.06161 0.39414 0.0
C67 C 0.8859 0.14732 0.40198 0.0
C68 C 0.87735 0.13307 0.3903 0.0
H69 H 0.83914 0.07009 0.3522 0.0
H70 H 0.8619 0.10166 0.3613 0.0
H71 H 0.84079 0.07872 0.41807 0.0
H72 H 0.81004 0.10241 0.39586 0.0
H73 H 0.8174 0.11392 0.41436 0.0
H74 H 0.80171 0.08853 0.41355 0.0
H75 H 0.81676 0.07155 0.42244 0.0
H76 H 0.83589 0.09112 0.43265 0.0
C77 C 0.89675 0.12233 0.37444 0.0
C78 C 0.88199 0.14063 0.3609 0.0
C79 C 0.86674 0.15147 0.45865 0.0
C80 C 0.85026 0.13993 0.46734 0.0
C81 C 0.83472 0.12501 0.45934 0.0
C82 C 0.8359 0.12085 0.44342 0.0
C83 C 0.85276 0.13175 0.43523 0.0
C84 C 0.86759 0.14721 0.44261 0.0
C85 C 0.88387 0.15791 0.43151 0.0
C86 C 0.87664 0.14565 0.41659 0.0
C87 C 0.85852 0.13021 0.41899 0.0
C88 C 0.9013 0.15798 0.43865 0.0
C89 C 0.88649 0.17795 0.42893 0.0
C90 C 0.81782 0.07045 0.38676 0.0
C91 C 0.82072 0.06345 0.37244 0.0
C92 C 0.8367 0.07521 0.36332 0.0
C93 C 0.8499 0.09349 0.36866 0.0
C94 C 0.84727 0.09996 0.3834 0.0
C95 C 0.8313 0.08858 0.39207 0.0
C96 C 0.8312 0.09732 0.40779 0.0
C97 C 0.84981 0.11584 0.40718 0.0
C98 C 0.85917 0.11727 0.3929 0.0
C99 C 0.83105 0.08405 0.42102 0.0
C100 C 0.81418 0.10065 0.40805 0.0
H101 H 0.91756 0.18439 0.41374 0.0
H102 H 0.92541 0.16083 0.36148 0.0
H103 H 0.88271 0.15464 0.3614 0.0
H104 H 0.86694 0.13017 0.35914 0.0
H105 H 0.88992 0.14054 0.35028 0.0
H106 H 0.90803 0.12502 0.38319 0.0
H107 H 0.90243 0.12281 0.3624 0.0
H108 H 0.88547 0.1077 0.37689 0.0
H109 H 0.87889 0.16322 0.46427 0.0
H110 H 0.82156 0.11635 0.46542 0.0
H111 H 0.82369 0.10909 0.43818 0.0
H112 H 0.89742 0.14366 0.44317 0.0
H113 H 0.90729 0.16818 0.44872 0.0
H114 H 0.91253 0.1615 0.42993 0.0
H115 H 0.87305 0.17795 0.43052 0.0
H116 H 0.89088 0.18312 0.41669 0.0
H117 H 0.89687 0.18842 0.43747 0.0
H118 H 0.94654 0.20249 0.39939 0.0
C119 C 0.91871 0.17891 0.40246 0.0
C120 C 0.92225 0.75405 0.37538 0.0
C121 C 0.9364 0.75095 0.3815 0.0
C122 C 0.93345 0.74126 0.39596 0.0
C123 C 0.90312 0.73908 0.39854 0.0
C124 C 0.90569 0.74786 0.38401 0.0
C125 C 0.88924 0.7501 0.37932 0.0
H126 H 0.80625 0.74285 0.39901 0.0
C127 C 0.885 0.73557 0.40496 0.0
C128 C 0.87669 0.74181 0.39367 0.0
H129 H 0.83742 0.76467 0.35555 0.0
H130 H 0.86058 0.75676 0.36467 0.0
H131 H 0.8124 0.70582 0.40224 0.0
H132 H 0.83927 0.76259 0.42092 0.0
H133 H 0.84215 0.74918 0.43573 0.0
H134 H 0.81875 0.74376 0.43 0.0
H135 H 0.80194 0.71407 0.41657 0.0
H136 H 0.81671 0.70462 0.42256 0.0
C137 C 0.88019 0.73808 0.36413 0.0
C138 C 0.8963 0.77157 0.37746 0.0
C139 C 0.86611 0.71073 0.46115 0.0
C140 C 0.851 0.70803 0.47079 0.0
C141 C 0.83716 0.71156 0.46435 0.0
C142 C 0.83826 0.71756 0.44869 0.0
C143 C 0.85351 0.72044 0.43932 0.0
C144 C 0.86715 0.71708 0.44555 0.0
C145 C 0.88279 0.72182 0.43397 0.0
C146 C 0.87617 0.72851 0.41981 0.0
C147 C 0.859 0.72756 0.42305 0.0
C148 C 0.88327 0.70342 0.43017 0.0
C149 C 0.90124 0.738 0.44133 0.0
C150 C 0.81803 0.74587 0.39142 0.0
C151 C 0.8201 0.75451 0.3766 0.0
C152 C 0.83546 0.75791 0.36698 0.0
C153 C 0.84896 0.75344 0.37236 0.0
C154 C 0.84709 0.74556 0.38753 0.0
C155 C 0.83166 0.74167 0.39666 0.0
C156 C 0.83215 0.73381 0.41262 0.0
C157 C 0.85038 0.73346 0.41154 0.0
C158 C 0.85911 0.74041 0.39688 0.0
C159 C 0.81488 0.71355 0.41372 0.0
C160 C 0.833 0.74789 0.42556 0.0
H161 H 0.9156 0.72829 0.41558 0.0
H162 H 0.92411 0.76127 0.36419 0.0
H163 H 0.90704 0.78 0.38669 0.0
H164 H 0.88512 0.77517 0.37906 0.0
H165 H 0.90287 0.77673 0.36568 0.0
H166 H 0.88137 0.72504 0.36408 0.0
H167 H 0.88721 0.74622 0.35328 0.0
H168 H 0.86494 0.73282 0.36324 0.0
H169 H 0.87697 0.70811 0.46563 0.0
H170 H 0.82563 0.71016 0.47152 0.0
H171 H 0.82731 0.72005 0.44461 0.0
H172 H 0.86889 0.69079 0.43043 0.0
H173 H 0.89204 0.7011 0.43895 0.0
H174 H 0.88844 0.70337 0.41809 0.0
H175 H 0.89856 0.7484 0.44772 0.0
H176 H 0.91197 0.74644 0.43243 0.0
H177 H 0.90738 0.73232 0.45 0.0
H178 H 0.94426 0.73882 0.40091 0.0
C179 C 0.91689 0.7353 0.40452 0.0
C180 C 0.16879 0.24758 0.63399 0.0
C181 C 0.18585 0.25062 0.6277 0.0
C182 C 0.19288 0.2612 0.61375 0.0
C183 C 0.16504 0.26414 0.61163 0.0
C184 C 0.15868 0.25462 0.62582 0.0
C185 C 0.13995 0.25225 0.63046 0.0
H186 H 0.0626 0.25672 0.60992 0.0
C187 C 0.15042 0.26784 0.60531 0.0
C188 C 0.13572 0.26105 0.61629 0.0
H189 H 0.07407 0.23728 0.65403 0.0
H190 H 0.10515 0.24605 0.64496 0.0
H191 H 0.10498 0.29553 0.60754 0.0
H192 H 0.08018 0.23924 0.58739 0.0
H193 H 0.09415 0.25532 0.57269 0.0
H194 H 0.07423 0.25639 0.58038 0.0
H195 H 0.08681 0.28695 0.59264 0.0
H196 H 0.11126 0.29752 0.58741 0.0
C197 C 0.14272 0.2638 0.64591 0.0
C198 C 0.12571 0.23074 0.63184 0.0
C199 C 0.15816 0.29521 0.55024 0.0
C200 C 0.14632 0.29829 0.54013 0.0
C201 C 0.12856 0.29436 0.54577 0.0
C202 C 0.12268 0.2873 0.56112 0.0
C203 C 0.13459 0.28393 0.57091 0.0
C204 C 0.15197 0.28787 0.56536 0.0
C205 C 0.16245 0.28258 0.57695 0.0
C206 C 0.14874 0.27528 0.59061 0.0
C207 C 0.1324 0.27601 0.58703 0.0
C208 C 0.18109 0.30077 0.58152 0.0
C209 C 0.16495 0.26664 0.56921 0.0
C210 C 0.07192 0.25463 0.61771 0.0
C211 C 0.06581 0.24611 0.63265 0.0
C212 C 0.07833 0.24349 0.64237 0.0
C213 C 0.09639 0.24864 0.6371 0.0
C214 C 0.10202 0.25638 0.6219 0.0
C215 C 0.09003 0.25965 0.6126 0.0
C216 C 0.09856 0.26818 0.59683 0.0
C217 C 0.11758 0.26939 0.59822 0.0
C218 C 0.11939 0.26224 0.61286 0.0
C219 C 0.10045 0.28805 0.59589 0.0
C220 C 0.08617 0.25422 0.58354 0.0
H221 H 0.18844 0.27561 0.59489 0.0
H222 H 0.16326 0.23953 0.64479 0.0
H223 H 0.12785 0.22269 0.62215 0.0
H224 H 0.11094 0.22721 0.63064 0.0
H225 H 0.12745 0.2251 0.64332 0.0
H226 H 0.15716 0.27634 0.64667 0.0
H227 H 0.14062 0.25502 0.6566 0.0
H228 H 0.13331 0.26985 0.64651 0.0
H229 H 0.17197 0.29826 0.54645 0.0
H230 H 0.11896 0.29627 0.53818 0.0
H231 H 0.10896 0.2844 0.56465 0.0
H232 H 0.17953 0.31358 0.58095 0.0
H233 H 0.19262 0.30307 0.57336 0.0
H234 H 0.18553 0.30054 0.59389 0.0
H235 H 0.1523 0.25681 0.56209 0.0
H236 H 0.16654 0.25745 0.57792 0.0
H237 H 0.17722 0.27266 0.56112 0.0
H238 H 0.20607 0.26362 0.60883 0.0
C239 C 0.18257 0.26801 0.60567 0.0
C240 C 0.75266 0.82894 0.6348 0.0
C241 C 0.74931 0.81149 0.62847 0.0
C242 C 0.73851 0.8044 0.61449 0.0
C243 C 0.73603 0.83274 0.61245 0.0
C244 C 0.74559 0.83917 0.62673 0.0
C245 C 0.7476 0.85793 0.63166 0.0
H246 H 0.74008 0.93458 0.61206 0.0
C247 C 0.732 0.84731 0.60631 0.0
C248 C 0.73844 0.86201 0.61764 0.0
H249 H 0.76234 0.92531 0.65556 0.0
H250 H 0.7538 0.89367 0.64666 0.0
H251 H 0.75799 0.9178 0.58972 0.0
H252 H 0.70281 0.8927 0.61003 0.0
H253 H 0.69979 0.88376 0.59058 0.0
H254 H 0.70984 0.90897 0.59378 0.0
H255 H 0.74052 0.92331 0.58299 0.0
H256 H 0.74212 0.90367 0.57482 0.0
C257 C 0.76884 0.87263 0.63316 0.0
C258 C 0.73639 0.85492 0.64716 0.0
C259 C 0.70756 0.84176 0.54971 0.0
C260 C 0.70355 0.85366 0.54041 0.0
C261 C 0.70531 0.87027 0.54736 0.0
C262 C 0.7113 0.87518 0.56312 0.0
C263 C 0.71571 0.86342 0.57214 0.0
C264 C 0.71352 0.84687 0.56551 0.0
C265 C 0.71855 0.83599 0.57704 0.0
C266 C 0.72457 0.84901 0.59153 0.0
C267 C 0.72299 0.8651 0.5885 0.0
C268 C 0.73511 0.83444 0.56994 0.0
C269 C 0.70067 0.81662 0.58026 0.0
C270 C 0.74274 0.9256 0.61985 0.0
C271 C 0.75193 0.93248 0.63452 0.0
C272 C 0.75545 0.92042 0.64412 0.0
C273 C 0.7505 0.90206 0.63893 0.0
C274 C 0.74211 0.89575 0.62389 0.0
C275 C 0.73805 0.90736 0.61478 0.0
C276 C 0.72953 0.89861 0.59898 0.0
C277 C 0.72907 0.87978 0.60007 0.0
C278 C 0.7366 0.8782 0.61462 0.0
C279 C 0.74306 0.91146 0.58585 0.0
C280 C 0.70949 0.89593 0.59813 0.0
H281 H 0.72419 0.809 0.59564 0.0
H282 H 0.76075 0.83456 0.64564 0.0
H283 H 0.72356 0.84061 0.64729 0.0
H284 H 0.73111 0.86495 0.64844 0.0
H285 H 0.745 0.85606 0.65775 0.0
H286 H 0.77682 0.87077 0.62336 0.0
H287 H 0.77469 0.87096 0.64456 0.0
H288 H 0.77195 0.88744 0.63225 0.0
H289 H 0.70609 0.82876 0.5448 0.0
H290 H 0.70251 0.8798 0.54044 0.0
H291 H 0.71259 0.88814 0.56758 0.0
H292 H 0.74588 0.84832 0.56501 0.0
H293 H 0.73016 0.82379 0.56016 0.0
H294 H 0.74262 0.83066 0.57874 0.0
H295 H 0.68763 0.81731 0.57824 0.0
H296 H 0.69978 0.81216 0.59278 0.0
H297 H 0.69996 0.80531 0.57236 0.0
H298 H 0.73581 0.79099 0.60946 0.0
C299 C 0.7319 0.81494 0.60644 0.0
C300 C 0.08127 0.83017 0.63191 0.0
C301 C 0.06628 0.81364 0.62517 0.0
C302 C 0.06848 0.80777 0.60993 0.0
C303 C 0.0999 0.83483 0.60827 0.0
C304 C 0.0979 0.8405 0.62328 0.0
C305 C 0.11491 0.85882 0.62836 0.0
H306 H 0.19917 0.93385 0.60887 0.0
C307 C 0.1186 0.84888 0.60229 0.0
C308 C 0.12757 0.86291 0.61407 0.0
H309 H 0.16702 0.92668 0.65131 0.0
H310 H 0.14427 0.89459 0.64314 0.0
H311 H 0.19568 0.89407 0.60822 0.0
H312 H 0.16399 0.91617 0.58536 0.0
H313 H 0.16929 0.90376 0.57106 0.0
H314 H 0.18813 0.92352 0.58126 0.0
H315 H 0.20277 0.90579 0.58947 0.0
H316 H 0.18695 0.88047 0.59076 0.0
C317 C 0.12336 0.85505 0.64342 0.0
C318 C 0.10883 0.8739 0.63062 0.0
C319 C 0.13742 0.84435 0.54557 0.0
C320 C 0.15411 0.85553 0.53703 0.0
C321 C 0.16999 0.86973 0.54522 0.0
C322 C 0.1689 0.87376 0.56117 0.0
C323 C 0.15182 0.86345 0.56917 0.0
C324 C 0.13669 0.84844 0.56166 0.0
C325 C 0.12022 0.83818 0.57266 0.0
C326 C 0.12772 0.85027 0.58765 0.0
C327 C 0.14609 0.86522 0.58534 0.0
C328 C 0.11681 0.81784 0.57514 0.0
C329 C 0.10322 0.83896 0.56547 0.0
C330 C 0.18724 0.92533 0.61643 0.0
C331 C 0.18465 0.93284 0.63057 0.0
C332 C 0.16925 0.92118 0.64031 0.0
C333 C 0.15598 0.90266 0.63546 0.0
C334 C 0.15812 0.89586 0.62068 0.0
C335 C 0.17382 0.90703 0.61166 0.0
C336 C 0.17373 0.89792 0.59614 0.0
C337 C 0.15508 0.87956 0.59707 0.0
C338 C 0.14593 0.87841 0.61141 0.0
C339 C 0.19067 0.89444 0.596 0.0
C340 C 0.17388 0.91095 0.58266 0.0
H341 H 0.08583 0.81314 0.58989 0.0
H342 H 0.08007 0.83505 0.64359 0.0
H343 H 0.0974 0.87148 0.62214 0.0
H344 H 0.1202 0.88847 0.62815 0.0
H345 H 0.1035 0.87341 0.6428 0.0
H346 H 0.12306 0.84126 0.64237 0.0
H347 H 0.11525 0.85443 0.65414 0.0
H348 H 0.13829 0.86579 0.64536 0.0
H349 H 0.12501 0.83312 0.53978 0.0
H350 H 0.18328 0.87803 0.53923 0.0
H351 H 0.18133 0.8851 0.56653 0.0
H352 H 0.13018 0.81753 0.57432 0.0
H353 H 0.107 0.80786 0.56603 0.0
H354 H 0.1114 0.81226 0.58708 0.0
H355 H 0.10782 0.85317 0.5603 0.0
H356 H 0.0925 0.83682 0.57432 0.0
H357 H 0.09641 0.82823 0.55585 0.0
H358 H 0.05705 0.79533 0.60429 0.0
C359 C 0.08518 0.81822 0.6015 0.0
C360 C 0.91341 0.50481 0.7074 0.0
C361 C 0.91614 0.52184 0.71415 0.0
C362 C 0.92472 0.52747 0.72924 0.0
C363 C 0.92684 0.49896 0.73097 0.0
C364 C 0.91894 0.49367 0.71597 0.0
C365 C 0.91676 0.47498 0.71075 0.0
H366 H 0.91996 0.39596 0.72903 0.0
C367 C 0.93013 0.48389 0.73703 0.0
C368 C 0.92445 0.46989 0.72518 0.0
H369 H 0.90183 0.40896 0.68507 0.0
H370 H 0.91093 0.44044 0.69493 0.0
H371 H 0.95852 0.43831 0.73285 0.0
H372 H 0.90251 0.41247 0.75167 0.0
H373 H 0.91789 0.42598 0.7671 0.0
H374 H 0.91959 0.40652 0.75863 0.0
H375 H 0.95039 0.42053 0.74798 0.0
H376 H 0.96061 0.44541 0.75282 0.0
C377 C 0.92909 0.47838 0.69588 0.0
C378 C 0.89551 0.46087 0.70809 0.0
C379 C 0.95422 0.488 0.79349 0.0
C380 C 0.95809 0.47585 0.80255 0.0
C381 C 0.95537 0.45886 0.79557 0.0
C382 C 0.94888 0.45401 0.77991 0.0
C383 C 0.94497 0.46622 0.77105 0.0
C384 C 0.94773 0.48293 0.77782 0.0
C385 C 0.94287 0.49415 0.76655 0.0
C386 C 0.93679 0.48143 0.75192 0.0
C387 C 0.93792 0.46504 0.75468 0.0
C388 C 0.9609 0.51346 0.76355 0.0
C389 C 0.92637 0.49573 0.77378 0.0
C390 C 0.91827 0.40579 0.72152 0.0
C391 C 0.91022 0.40027 0.70636 0.0
C392 C 0.90809 0.41317 0.69679 0.0
C393 C 0.91325 0.43131 0.7026 0.0
C394 C 0.92052 0.43642 0.71812 0.0
C395 C 0.9234 0.42394 0.72714 0.0
C396 C 0.93135 0.43182 0.7433 0.0
C397 C 0.93226 0.45089 0.74268 0.0
C398 C 0.92579 0.45343 0.72795 0.0
C399 C 0.95121 0.43407 0.74447 0.0
C400 C 0.91728 0.41855 0.75593 0.0
H401 H 0.93623 0.52109 0.74919 0.0
H402 H 0.90694 0.50017 0.69579 0.0
H403 H 0.887 0.46269 0.71745 0.0
H404 H 0.89181 0.44587 0.70882 0.0
H405 H 0.8907 0.46324 0.69642 0.0
H406 H 0.94161 0.49291 0.696 0.0
H407 H 0.92107 0.47684 0.68479 0.0
H408 H 0.93497 0.46879 0.6953 0.0
H409 H 0.95629 0.50122 0.79843 0.0
H410 H 0.95792 0.44907 0.80234 0.0
H411 H 0.94695 0.44081 0.77539 0.0
H412 H 0.9737 0.51208 0.76425 0.0
H413 H 0.96251 0.52426 0.77247 0.0
H414 H 0.96127 0.51898 0.75151 0.0
H415 H 0.9162 0.48225 0.77967 0.0
H416 H 0.91798 0.49816 0.76483 0.0
H417 H 0.93154 0.50723 0.78285 0.0
H418 H 0.92672 0.54039 0.73481 0.0
C419 C 0.93008 0.51616 0.73766 0.0
C420 C 0.591 0.49948 0.70588 0.0
C421 C 0.60559 0.51641 0.71251 0.0
C422 C 0.60288 0.52257 0.72742 0.0
C423 C 0.57183 0.49501 0.72911 0.0
C424 C 0.57422 0.48907 0.71435 0.0
C425 C 0.55737 0.47051 0.70936 0.0
H426 H 0.47289 0.39543 0.72917 0.0
C427 C 0.55327 0.48075 0.73515 0.0
C428 C 0.54457 0.46638 0.72359 0.0
H429 H 0.50467 0.40224 0.68654 0.0
H430 H 0.52772 0.43424 0.6947 0.0
H431 H 0.50618 0.41034 0.75151 0.0
H432 H 0.47899 0.43827 0.7303 0.0
H433 H 0.48479 0.44712 0.74979 0.0
H434 H 0.46899 0.42206 0.7465 0.0
H435 H 0.48417 0.40707 0.75852 0.0
H436 H 0.50633 0.42576 0.76612 0.0
C437 C 0.56374 0.45564 0.70738 0.0
C438 C 0.54888 0.4739 0.69415 0.0
C439 C 0.53439 0.48721 0.79128 0.0
C440 C 0.51823 0.47578 0.80027 0.0
C441 C 0.5032 0.45953 0.79317 0.0
C442 C 0.50431 0.45453 0.77749 0.0
C443 C 0.52068 0.46581 0.76876 0.0
C444 C 0.53526 0.482 0.77557 0.0
C445 C 0.55142 0.49232 0.76433 0.0
C446 C 0.54425 0.47937 0.74982 0.0
C447 C 0.52632 0.46386 0.75258 0.0
C448 C 0.56898 0.49291 0.77183 0.0
C449 C 0.55369 0.51209 0.76098 0.0
C450 C 0.48475 0.40382 0.72153 0.0
C451 C 0.48712 0.39621 0.70734 0.0
C452 C 0.50255 0.40778 0.69757 0.0
C453 C 0.51601 0.42626 0.70241 0.0
C454 C 0.51406 0.43315 0.71722 0.0
C455 C 0.49837 0.42206 0.72629 0.0
C456 C 0.49877 0.43108 0.74194 0.0
C457 C 0.51742 0.44938 0.74093 0.0
C458 C 0.52639 0.45061 0.72646 0.0
C459 C 0.49873 0.41796 0.7553 0.0
C460 C 0.48198 0.43476 0.74232 0.0
H461 H 0.58507 0.51744 0.74703 0.0
H462 H 0.59261 0.49444 0.6944 0.0
H463 H 0.5491 0.48766 0.69492 0.0
H464 H 0.53398 0.46307 0.69227 0.0
H465 H 0.55703 0.47435 0.6835 0.0
H466 H 0.57442 0.45774 0.71655 0.0
H467 H 0.57016 0.45682 0.69556 0.0
H468 H 0.55223 0.44093 0.70901 0.0
H469 H 0.54609 0.49991 0.79636 0.0
H470 H 0.49069 0.45036 0.79989 0.0
H471 H 0.49248 0.44185 0.7729 0.0
H472 H 0.56503 0.47938 0.77803 0.0
H473 H 0.57582 0.5046 0.78069 0.0
H474 H 0.57953 0.49441 0.76301 0.0
H475 H 0.53994 0.51163 0.76165 0.0
H476 H 0.55877 0.51716 0.74886 0.0
H477 H 0.56332 0.52283 0.76975 0.0
H478 H 0.61396 0.53538 0.73293 0.0
C479 C 0.5861 0.51204 0.73569 0.0
C480 C 0.58941 0.08769 0.70978 0.0
C481 C 0.60346 0.08472 0.71623 0.0
C482 C 0.60025 0.07484 0.7306 0.0
C483 C 0.56965 0.07225 0.73253 0.0
C484 C 0.57255 0.08111 0.71801 0.0
C485 C 0.55604 0.08297 0.71279 0.0
H486 H 0.47187 0.07468 0.72927 0.0
C487 C 0.55111 0.06824 0.7384 0.0
C488 C 0.54294 0.07418 0.72675 0.0
H489 H 0.50563 0.09754 0.68726 0.0
H490 H 0.52816 0.08932 0.69729 0.0
H491 H 0.47694 0.03759 0.73293 0.0
H492 H 0.50621 0.09385 0.753 0.0
H493 H 0.50363 0.07811 0.76823 0.0
H494 H 0.48298 0.07633 0.759 0.0
H495 H 0.46718 0.0449 0.74861 0.0
H496 H 0.48233 0.03524 0.7527 0.0
C497 C 0.54784 0.0711 0.69737 0.0
C498 C 0.56276 0.1044 0.71109 0.0
C499 C 0.53172 0.04542 0.79495 0.0
C500 C 0.51589 0.04184 0.80395 0.0
C501 C 0.501 0.0428 0.79648 0.0
C502 C 0.50212 0.04797 0.78055 0.0
C503 C 0.51834 0.05233 0.77191 0.0
C504 C 0.53265 0.05064 0.779 0.0
C505 C 0.54868 0.05558 0.76781 0.0
C506 C 0.54182 0.06105 0.75305 0.0
C507 C 0.52409 0.05921 0.75559 0.0
C508 C 0.55028 0.0376 0.76502 0.0
C509 C 0.56661 0.07263 0.77498 0.0
C510 C 0.48394 0.07749 0.72215 0.0
C511 C 0.48705 0.08666 0.70746 0.0
C512 C 0.50305 0.09049 0.69861 0.0
C513 C 0.51611 0.08574 0.70449 0.0
C514 C 0.5133 0.07733 0.71951 0.0
C515 C 0.49732 0.07312 0.728 0.0
C516 C 0.49719 0.06499 0.74404 0.0
C517 C 0.51562 0.06485 0.74367 0.0
C518 C 0.52499 0.07219 0.72931 0.0
C519 C 0.47998 0.04466 0.74477 0.0
C520 C 0.49738 0.07886 0.75683 0.0
H521 H 0.58186 0.06151 0.74988 0.0
H522 H 0.59157 0.09507 0.69863 0.0
H523 H 0.57358 0.11293 0.72024 0.0
H524 H 0.55145 0.10776 0.71298 0.0
H525 H 0.56912 0.10973 0.69927 0.0
H526 H 0.54954 0.05836 0.69736 0.0
H527 H 0.55507 0.07955 0.68671 0.0
H528 H 0.53253 0.06535 0.69607 0.0
H529 H 0.54339 0.04477 0.80032 0.0
H530 H 0.48844 0.03964 0.80302 0.0
H531 H 0.49039 0.04864 0.77564 0.0
H532 H 0.53646 0.02442 0.7665 0.0
H533 H 0.56032 0.03698 0.77353 0.0
H534 H 0.55456 0.03667 0.75277 0.0
H535 H 0.56341 0.08349 0.7797 0.0
H536 H 0.57788 0.0801 0.76626 0.0
H537 H 0.57227 0.06802 0.78493 0.0
H538 H 0.61104 0.07243 0.73566 0.0
C539 C 0.5834 0.06861 0.73883 0.0
C540 C 0.83405 0.58037 0.96674 0.0
C541 C 0.85116 0.58336 0.96057 0.0
C542 C 0.85796 0.59339 0.94631 0.0
C543 C 0.83013 0.59629 0.94397 0.0
C544 C 0.82392 0.5872 0.95836 0.0
C545 C 0.80556 0.58555 0.96323 0.0
H546 H 0.72991 0.59336 0.94355 0.0
C547 C 0.8159 0.60071 0.93787 0.0
C548 C 0.80161 0.59474 0.94921 0.0
H549 H 0.73965 0.57136 0.98692 0.0
H550 H 0.77097 0.58007 0.97819 0.0
H551 H 0.76976 0.63052 0.94235 0.0
H552 H 0.74818 0.5758 0.9201 0.0
H553 H 0.76012 0.59336 0.9057 0.0
H554 H 0.74018 0.59214 0.91549 0.0
H555 H 0.75602 0.62445 0.92445 0.0
H556 H 0.78128 0.63476 0.92403 0.0
C557 C 0.80892 0.59713 0.97876 0.0
C558 C 0.79081 0.56418 0.96462 0.0
C559 C 0.82113 0.62509 0.88165 0.0
C560 C 0.80994 0.63021 0.87254 0.0
C561 C 0.79428 0.62983 0.87976 0.0
C562 C 0.78945 0.62379 0.89545 0.0
C563 C 0.80039 0.61809 0.90413 0.0
C564 C 0.81624 0.61932 0.89737 0.0
C565 C 0.82679 0.61371 0.90871 0.0
C566 C 0.81427 0.60831 0.92321 0.0
C567 C 0.79869 0.61061 0.92034 0.0
C568 C 0.84646 0.63129 0.9119 0.0
C569 C 0.82732 0.59645 0.9015 0.0
C570 C 0.73888 0.59052 0.95117 0.0
C571 C 0.73236 0.58151 0.96582 0.0
C572 C 0.74446 0.57834 0.97559 0.0
C573 C 0.76255 0.58328 0.97044 0.0
C574 C 0.76855 0.59147 0.95539 0.0
C575 C 0.75693 0.59538 0.94621 0.0
C576 C 0.76562 0.60426 0.93063 0.0
C577 C 0.78426 0.6047 0.9318 0.0
C578 C 0.78581 0.59699 0.94624 0.0
C579 C 0.76824 0.6245 0.93019 0.0
C580 C 0.75292 0.59085 0.91718 0.0
H581 H 0.8532 0.60703 0.92698 0.0
H582 H 0.82871 0.57286 0.9778 0.0
H583 H 0.79258 0.55589 0.95493 0.0
H584 H 0.77619 0.56116 0.96341 0.0
H585 H 0.79231 0.55838 0.97609 0.0
H586 H 0.82334 0.60972 0.97912 0.0
H587 H 0.80737 0.58841 0.98936 0.0
H588 H 0.79945 0.60306 0.97986 0.0
H589 H 0.83324 0.62512 0.8766 0.0
H590 H 0.78568 0.6342 0.87329 0.0
H591 H 0.77725 0.6236 0.90016 0.0
H592 H 0.84648 0.64478 0.90973 0.0
H593 H 0.85729 0.63121 0.9041 0.0
H594 H 0.85096 0.6323 0.92444 0.0
H595 H 0.81326 0.5859 0.89665 0.0
H596 H 0.8309 0.58869 0.91023 0.0
H597 H 0.83757 0.6009 0.89163 0.0
H598 H 0.87116 0.59578 0.94143 0.0
C599 C 0.8475 0.59983 0.93794 0.0
C600 C 0.41907 0.16324 0.96773 0.0
C601 C 0.41578 0.14593 0.96115 0.0
C602 C 0.40567 0.13942 0.94679 0.0
C603 C 0.40311 0.16769 0.94525 0.0
C604 C 0.41238 0.17375 0.95969 0.0
C605 C 0.41457 0.19251 0.96484 0.0
H606 H 0.40185 0.26667 0.94795 0.0
C607 C 0.39867 0.1821 0.93959 0.0
C608 C 0.40502 0.19656 0.95114 0.0
H609 H 0.43275 0.26151 0.98747 0.0
H610 H 0.42332 0.22943 0.97926 0.0
H611 H 0.41961 0.25102 0.92347 0.0
H612 H 0.36676 0.22576 0.94765 0.0
H613 H 0.36177 0.21408 0.92919 0.0
H614 H 0.37067 0.23937 0.92995 0.0
H615 H 0.40139 0.25646 0.91923 0.0
H616 H 0.40221 0.23725 0.90941 0.0
C617 C 0.43587 0.20722 0.96599 0.0
C618 C 0.40381 0.1895 0.98057 0.0
C619 C 0.37183 0.177 0.88396 0.0
C620 C 0.36578 0.18813 0.8758 0.0
C621 C 0.36551 0.20313 0.88401 0.0
C622 C 0.37204 0.20764 0.89963 0.0
C623 C 0.37886 0.19703 0.90732 0.0
C624 C 0.37811 0.1816 0.89974 0.0
C625 C 0.38455 0.1711 0.91042 0.0
C626 C 0.3902 0.1835 0.92531 0.0
C627 C 0.38712 0.19879 0.92323 0.0
C628 C 0.40166 0.17125 0.90263 0.0
C629 C 0.36763 0.15093 0.91335 0.0
C630 C 0.40663 0.25871 0.9549 0.0
C631 C 0.41833 0.26685 0.96824 0.0
C632 C 0.42371 0.25565 0.97715 0.0
C633 C 0.41842 0.23709 0.97224 0.0
C634 C 0.40789 0.22977 0.95816 0.0
C635 C 0.40204 0.24053 0.94989 0.0
C636 C 0.39237 0.23141 0.93454 0.0
C637 C 0.39321 0.21326 0.93495 0.0
C638 C 0.40224 0.21226 0.9488 0.0
C639 C 0.40432 0.24464 0.92086 0.0
C640 C 0.37186 0.22752 0.93522 0.0
H641 H 0.39217 0.14474 0.92772 0.0
H642 H 0.4268 0.16851 0.97879 0.0
H643 H 0.38993 0.17619 0.98001 0.0
H644 H 0.40066 0.20092 0.98315 0.0
H645 H 0.41184 0.18832 0.99072 0.0
H646 H 0.444 0.20408 0.95715 0.0
H647 H 0.44158 0.20713 0.97794 0.0
H648 H 0.43907 0.22179 0.96322 0.0
H649 H 0.37206 0.16523 0.87815 0.0
H650 H 0.36028 0.21152 0.87835 0.0
H651 H 0.37174 0.21943 0.90504 0.0
H652 H 0.41193 0.18576 0.89848 0.0
H653 H 0.39719 0.16152 0.8922 0.0
H654 H 0.40947 0.16714 0.91087 0.0
H655 H 0.35395 0.15013 0.91077 0.0
H656 H 0.36666 0.14666 0.92594 0.0
H657 H 0.36838 0.14016 0.90573 0.0
H658 H 0.40321 0.12622 0.94145 0.0
C659 C 0.39938 0.15023 0.93878 0.0
C660 C 0.74771 0.16208 0.96554 0.0
C661 C 0.73321 0.14567 0.9583 0.0
C662 C 0.7363 0.13944 0.94365 0.0
C663 C 0.76756 0.16683 0.94279 0.0
C664 C 0.76476 0.17254 0.95751 0.0
C665 C 0.78118 0.19132 0.96264 0.0
H666 H 0.86386 0.2691 0.94374 0.0
C667 C 0.78588 0.18168 0.93684 0.0
C668 C 0.79402 0.19609 0.94838 0.0
H669 H 0.83279 0.25823 0.98742 0.0
H670 H 0.80987 0.22694 0.97784 0.0
H671 H 0.85883 0.22619 0.9402 0.0
H672 H 0.8296 0.25346 0.92138 0.0
H673 H 0.82992 0.2388 0.90622 0.0
H674 H 0.85183 0.2581 0.91369 0.0
H675 H 0.86887 0.24476 0.92574 0.0
H676 H 0.8544 0.22023 0.91994 0.0
C677 C 0.78997 0.18806 0.97774 0.0
C678 C 0.77409 0.20561 0.96486 0.0
C679 C 0.80579 0.17509 0.8814 0.0
C680 C 0.82106 0.18722 0.87181 0.0
C681 C 0.8348 0.20498 0.87806 0.0
C682 C 0.83336 0.2105 0.89352 0.0
C683 C 0.81794 0.19824 0.90287 0.0
C684 C 0.80445 0.18093 0.89673 0.0
C685 C 0.7885 0.17018 0.90799 0.0
C686 C 0.79493 0.18367 0.92211 0.0
C687 C 0.81214 0.20007 0.91905 0.0
C688 C 0.78769 0.15121 0.91201 0.0
C689 C 0.77035 0.16799 0.90018 0.0
C690 C 0.85233 0.25983 0.95139 0.0
C691 C 0.85013 0.26609 0.96637 0.0
C692 C 0.8347 0.25374 0.97579 0.0
C693 C 0.82141 0.23561 0.9702 0.0
C694 C 0.82345 0.22985 0.95493 0.0
C695 C 0.83888 0.24181 0.94591 0.0
C696 C 0.83862 0.23355 0.92986 0.0
C697 C 0.82054 0.21462 0.93074 0.0
C698 C 0.81163 0.21256 0.94539 0.0
C699 C 0.85611 0.23111 0.92871 0.0
C700 C 0.83757 0.24662 0.91703 0.0
H701 H 0.75488 0.14451 0.92465 0.0
H702 H 0.74547 0.16713 0.97679 0.0
H703 H 0.76352 0.20344 0.95557 0.0
H704 H 0.78529 0.22053 0.96363 0.0
H705 H 0.76731 0.20381 0.9766 0.0
H706 H 0.78922 0.17403 0.97725 0.0
H707 H 0.78244 0.18835 0.98857 0.0
H708 H 0.80509 0.19851 0.9791 0.0
H709 H 0.79499 0.16133 0.87709 0.0
H710 H 0.84648 0.21487 0.87086 0.0
H711 H 0.84418 0.22423 0.89749 0.0
H712 H 0.80205 0.15304 0.91244 0.0
H713 H 0.77945 0.14014 0.90294 0.0
H714 H 0.78175 0.14579 0.92386 0.0
H715 H 0.77357 0.18024 0.89238 0.0
H716 H 0.76028 0.16789 0.90889 0.0
H717 H 0.76317 0.15493 0.89276 0.0
H718 H 0.72519 0.12673 0.93802 0.0
C719 C 0.75347 0.14984 0.93591 0.0
C720 C 0.57768 0.83406 0.04092 0.0
C721 C 0.58028 0.85106 0.04749 0.0
C722 C 0.59064 0.85821 0.06163 0.0
C723 C 0.59401 0.83045 0.06353 0.0
C724 C 0.58478 0.82402 0.04911 0.0
C725 C 0.58237 0.80504 0.04448 0.0
H726 H 0.5928 0.73026 0.06404 0.0
C727 C 0.59779 0.81586 0.06988 0.0
C728 C 0.59126 0.80102 0.05869 0.0
H729 H 0.56468 0.73599 0.02265 0.0
H730 H 0.5736 0.76792 0.03077 0.0
H731 H 0.62865 0.77409 0.06659 0.0
H732 H 0.57326 0.74274 0.08609 0.0
H733 H 0.58632 0.75987 0.10056 0.0
H734 H 0.59285 0.74244 0.0952 0.0
H735 H 0.6215 0.75535 0.08078 0.0
H736 H 0.63031 0.77959 0.08701 0.0
C737 C 0.59361 0.80762 0.02911 0.0
C738 C 0.56103 0.79058 0.04295 0.0
C739 C 0.62133 0.82146 0.12671 0.0
C740 C 0.62385 0.80884 0.13631 0.0
C741 C 0.62191 0.79208 0.12964 0.0
C742 C 0.61707 0.78765 0.11364 0.0
C743 C 0.61373 0.79991 0.10428 0.0
C744 C 0.61607 0.8166 0.11076 0.0
C745 C 0.61117 0.82746 0.09911 0.0
C746 C 0.60517 0.81431 0.08472 0.0
C747 C 0.60674 0.79827 0.08786 0.0
C748 C 0.62915 0.84672 0.09585 0.0
C749 C 0.59463 0.82917 0.10608 0.0
C750 C 0.5885 0.73828 0.05664 0.0
C751 C 0.57782 0.73036 0.04274 0.0
C752 C 0.57301 0.74168 0.03336 0.0
C753 C 0.57803 0.76018 0.0382 0.0
C754 C 0.58764 0.76732 0.05269 0.0
C755 C 0.59275 0.75638 0.06157 0.0
C756 C 0.6011 0.76517 0.07738 0.0
C757 C 0.60081 0.78358 0.07636 0.0
C758 C 0.59302 0.78486 0.06187 0.0
C759 C 0.62144 0.76868 0.07814 0.0
C760 C 0.58789 0.75194 0.09056 0.0
H761 H 0.60502 0.85395 0.0806 0.0
H762 H 0.56964 0.82835 0.03006 0.0
H763 H 0.55277 0.79402 0.05141 0.0
H764 H 0.55746 0.77597 0.04599 0.0
H765 H 0.55575 0.79061 0.0308 0.0
H766 H 0.60752 0.8209 0.02973 0.0
H767 H 0.58595 0.8086 0.01859 0.0
H768 H 0.5968 0.79612 0.0271 0.0
H769 H 0.62267 0.83439 0.13166 0.0
H770 H 0.62399 0.7823 0.1369 0.0
H771 H 0.61573 0.77463 0.10929 0.0
H772 H 0.64206 0.84565 0.09734 0.0
H773 H 0.63034 0.85794 0.10412 0.0
H774 H 0.62978 0.85151 0.08348 0.0
H775 H 0.58423 0.81565 0.11179 0.0
H776 H 0.58652 0.83189 0.09707 0.0
H777 H 0.59971 0.84056 0.11525 0.0
H778 H 0.59268 0.87135 0.06677 0.0
C779 C 0.59764 0.84804 0.06966 0.0
C780 C 0.25685 0.83255 0.03846 0.0
C781 C 0.27126 0.84966 0.04492 0.0
C782 C 0.26809 0.85661 0.05922 0.0
C783 C 0.23715 0.82881 0.06111 0.0
C784 C 0.23988 0.82246 0.04667 0.0
C785 C 0.22313 0.80386 0.04168 0.0
H786 H 0.1409 0.72672 0.06205 0.0
C787 C 0.21867 0.81439 0.06722 0.0
C788 C 0.21023 0.79981 0.05579 0.0
H789 H 0.17056 0.73647 0.01782 0.0
H790 H 0.19323 0.76855 0.02635 0.0
H791 H 0.17509 0.74375 0.08385 0.0
H792 H 0.14443 0.76874 0.06381 0.0
H793 H 0.1504 0.77762 0.08327 0.0
H794 H 0.13565 0.75239 0.08002 0.0
H795 H 0.15263 0.73879 0.09122 0.0
H796 H 0.17425 0.75842 0.09872 0.0
C797 C 0.22959 0.78904 0.03996 0.0
C798 C 0.21474 0.80712 0.02632 0.0
C799 C 0.19975 0.82063 0.1234 0.0
C800 C 0.18405 0.8087 0.13271 0.0
C801 C 0.16965 0.79167 0.12599 0.0
C802 C 0.17087 0.78652 0.11038 0.0
C803 C 0.18674 0.79841 0.10132 0.0
C804 C 0.20079 0.8152 0.1078 0.0
C805 C 0.21668 0.8259 0.09638 0.0
C806 C 0.20975 0.81273 0.08201 0.0
C807 C 0.1923 0.79663 0.08506 0.0
C808 C 0.23468 0.82739 0.10379 0.0
C809 C 0.21811 0.84528 0.0929 0.0
C810 C 0.15214 0.73593 0.05413 0.0
C811 C 0.15418 0.72924 0.03935 0.0
C812 C 0.16883 0.74149 0.02926 0.0
C813 C 0.182 0.75998 0.03431 0.0
C814 C 0.18039 0.76614 0.04957 0.0
C815 C 0.16528 0.75433 0.05896 0.0
C816 C 0.16563 0.76308 0.07476 0.0
C817 C 0.18365 0.78199 0.0735 0.0
C818 C 0.19239 0.78367 0.05883 0.0
C819 C 0.16683 0.75041 0.08791 0.0
C820 C 0.1481 0.76552 0.07569 0.0
H821 H 0.2497 0.85215 0.07832 0.0
H822 H 0.25884 0.82706 0.02735 0.0
H823 H 0.21657 0.82162 0.02616 0.0
H824 H 0.19939 0.79745 0.02526 0.0
H825 H 0.22172 0.80557 0.01561 0.0
H826 H 0.23915 0.79043 0.04991 0.0
H827 H 0.23735 0.79107 0.02869 0.0
H828 H 0.21791 0.77427 0.04037 0.0
H829 H 0.21099 0.83389 0.12814 0.0
H830 H 0.15756 0.78203 0.13294 0.0
H831 H 0.15952 0.77328 0.10609 0.0
H832 H 0.23144 0.81378 0.10949 0.0
H833 H 0.24074 0.83868 0.11305 0.0
H834 H 0.24565 0.83013 0.09501 0.0
H835 H 0.20417 0.84435 0.09391 0.0
H836 H 0.22264 0.85011 0.08062 0.0
H837 H 0.22786 0.8564 0.10136 0.0
H838 H 0.27902 0.86975 0.06442 0.0
C839 C 0.25112 0.8463 0.06734 0.0
C840 C 0.25548 0.41967 0.0421 0.0
C841 C 0.26979 0.41708 0.04851 0.0
C842 C 0.26699 0.40748 0.06294 0.0
C843 C 0.23633 0.40462 0.06519 0.0
C844 C 0.23879 0.41317 0.05056 0.0
C845 C 0.22209 0.41486 0.04561 0.0
H846 H 0.14285 0.41382 0.06682 0.0
C847 C 0.21815 0.401 0.07152 0.0
C848 C 0.20961 0.40672 0.06003 0.0
H849 H 0.16854 0.42529 0.0203 0.0
H850 H 0.19156 0.41771 0.02998 0.0
H851 H 0.14278 0.3752 0.06974 0.0
H852 H 0.17963 0.43103 0.08861 0.0
H853 H 0.17441 0.41449 0.10394 0.0
H854 H 0.15564 0.41627 0.09461 0.0
H855 H 0.13712 0.38351 0.08746 0.0
H856 H 0.1508 0.3717 0.08803 0.0
C857 C 0.21318 0.40248 0.03054 0.0
C858 C 0.22874 0.43617 0.04334 0.0
C859 C 0.20053 0.37823 0.12822 0.0
C860 C 0.18485 0.37429 0.13749 0.0
C861 C 0.17033 0.37661 0.13093 0.0
C862 C 0.17151 0.38303 0.11538 0.0
C863 C 0.18733 0.38706 0.10625 0.0
C864 C 0.20138 0.38441 0.11261 0.0
C865 C 0.21685 0.38892 0.10096 0.0
C866 C 0.20969 0.39466 0.08657 0.0
C867 C 0.19256 0.39382 0.08985 0.0
C868 C 0.21779 0.37062 0.0978 0.0
C869 C 0.23521 0.40571 0.10783 0.0
C870 C 0.15313 0.41447 0.0585 0.0
C871 C 0.1539 0.42067 0.04278 0.0
C872 C 0.16784 0.42128 0.03262 0.0
C873 C 0.18115 0.41667 0.0382 0.0
C874 C 0.18044 0.41112 0.05404 0.0
C875 C 0.16619 0.40943 0.06372 0.0
C876 C 0.16656 0.4016 0.07975 0.0
C877 C 0.18392 0.39964 0.0783 0.0
C878 C 0.19218 0.40562 0.06334 0.0
C879 C 0.14838 0.38205 0.08149 0.0
C880 C 0.16909 0.41648 0.0925 0.0
H881 H 0.24907 0.39434 0.08248 0.0
H882 H 0.25741 0.42688 0.03088 0.0
H883 H 0.23764 0.44466 0.05356 0.0
H884 H 0.21708 0.43917 0.04263 0.0
H885 H 0.23723 0.44165 0.03239 0.0
H886 H 0.21704 0.39123 0.02932 0.0
H887 H 0.21788 0.41117 0.0196 0.0
H888 H 0.19761 0.39466 0.0309 0.0
H889 H 0.21179 0.37638 0.13297 0.0
H890 H 0.15821 0.3738 0.13799 0.0
H891 H 0.16016 0.3848 0.11115 0.0
H892 H 0.20381 0.35768 0.09939 0.0
H893 H 0.22782 0.36959 0.10605 0.0
H894 H 0.22169 0.36961 0.08543 0.0
H895 H 0.2324 0.4165 0.11333 0.0
H896 H 0.24599 0.41347 0.09878 0.0
H897 H 0.24136 0.40078 0.11715 0.0
H898 H 0.27801 0.40541 0.06794 0.0
C899 C 0.25029 0.40122 0.07136 0.0
C900 C 0.50183 0.91527 0.29991 0.0
C901 C 0.51874 0.9181 0.29351 0.0
C902 C 0.52553 0.92824 0.27932 0.0
C903 C 0.49768 0.93115 0.27725 0.0
C904 C 0.49162 0.92209 0.29166 0.0
C905 C 0.47307 0.9199 0.29651 0.0
H906 H 0.39571 0.92446 0.27717 0.0
C907 C 0.48306 0.93495 0.27109 0.0
C908 C 0.46875 0.92868 0.28241 0.0
H909 H 0.40749 0.90411 0.32062 0.0
H910 H 0.43864 0.91345 0.31138 0.0
H911 H 0.43693 0.96309 0.275 0.0
H912 H 0.41404 0.90748 0.25384 0.0
H913 H 0.42615 0.92449 0.23912 0.0
H914 H 0.40618 0.92373 0.24851 0.0
H915 H 0.42032 0.95539 0.25887 0.0
H916 H 0.44528 0.96612 0.25545 0.0
C917 C 0.47617 0.93157 0.31196 0.0
C918 C 0.45876 0.89839 0.29799 0.0
C919 C 0.48751 0.95779 0.21459 0.0
C920 C 0.47575 0.96168 0.20517 0.0
C921 C 0.4596 0.96065 0.21192 0.0
C922 C 0.45485 0.95505 0.22774 0.0
C923 C 0.46641 0.95051 0.23687 0.0
C924 C 0.48268 0.9524 0.23037 0.0
C925 C 0.49363 0.9476 0.24191 0.0
C926 C 0.481 0.94201 0.25631 0.0
C927 C 0.46496 0.94349 0.25325 0.0
C928 C 0.5129 0.96573 0.24505 0.0
C929 C 0.49496 0.93065 0.23495 0.0
C930 C 0.40512 0.92228 0.28478 0.0
C931 C 0.39911 0.91336 0.29958 0.0
C932 C 0.41172 0.91065 0.30907 0.0
C933 C 0.42981 0.91615 0.3037 0.0
C934 C 0.43533 0.92427 0.2886 0.0
C935 C 0.42323 0.92758 0.27953 0.0
C936 C 0.43154 0.93627 0.26375 0.0
C937 C 0.45053 0.93736 0.26479 0.0
C938 C 0.45255 0.93018 0.27933 0.0
C939 C 0.43356 0.95622 0.26306 0.0
C940 C 0.41886 0.92244 0.25052 0.0
H941 H 0.52069 0.94204 0.26017 0.0
H942 H 0.49649 0.90757 0.31089 0.0
H943 H 0.46115 0.89015 0.28862 0.0
H944 H 0.44403 0.89482 0.2963 0.0
H945 H 0.46014 0.89291 0.30968 0.0
H946 H 0.49057 0.94418 0.31245 0.0
H947 H 0.47444 0.92291 0.32264 0.0
H948 H 0.46667 0.9375 0.3128 0.0
H949 H 0.5002 0.95885 0.20974 0.0
H950 H 0.4504 0.96368 0.20481 0.0
H951 H 0.4422 0.95416 0.23217 0.0
H952 H 0.51208 0.97883 0.24321 0.0
H953 H 0.52387 0.9664 0.23698 0.0
H954 H 0.51771 0.96679 0.25749 0.0
H955 H 0.48128 0.91995 0.22959 0.0
H956 H 0.49817 0.92285 0.24392 0.0
H957 H 0.50577 0.93543 0.22552 0.0
H958 H 0.53862 0.93048 0.27433 0.0
C959 C 0.51507 0.93482 0.27114 0.0
C960 C 0.08473 0.4956 0.30212 0.0
C961 C 0.08168 0.47827 0.29575 0.0
C962 C 0.07129 0.47135 0.28153 0.0
C963 C 0.06865 0.49955 0.27946 0.0
C964 C 0.07789 0.50589 0.29387 0.0
C965 C 0.0797 0.52454 0.29885 0.0
H966 H 0.07453 0.60196 0.2782 0.0
C967 C 0.06475 0.51415 0.27321 0.0
C968 C 0.07093 0.52875 0.28463 0.0
H969 H 0.09127 0.5905 0.32375 0.0
H970 H 0.08395 0.55942 0.31436 0.0
H971 H 0.09314 0.58525 0.25715 0.0
H972 H 0.03695 0.56087 0.27509 0.0
H973 H 0.0348 0.55227 0.2556 0.0
H974 H 0.04533 0.57748 0.25906 0.0
H975 H 0.07623 0.59079 0.24905 0.0
H976 H 0.07825 0.57101 0.24179 0.0
C977 C 0.10086 0.53928 0.30075 0.0
C978 C 0.0681 0.52135 0.31415 0.0
C979 C 0.04167 0.50913 0.21616 0.0
C980 C 0.03951 0.52195 0.20649 0.0
C981 C 0.04212 0.53901 0.21308 0.0
C982 C 0.04724 0.54353 0.22904 0.0
C983 C 0.05011 0.531 0.23848 0.0
C984 C 0.04715 0.51404 0.23209 0.0
C985 C 0.05168 0.50293 0.2438 0.0
C986 C 0.05782 0.51605 0.25824 0.0
C987 C 0.05689 0.53244 0.25498 0.0
C988 C 0.06803 0.50084 0.2369 0.0
C989 C 0.03347 0.48386 0.24699 0.0
C990 C 0.07626 0.59273 0.2864 0.0
C991 C 0.08366 0.59896 0.30176 0.0
C992 C 0.08597 0.58634 0.31175 0.0
C993 C 0.08162 0.56823 0.30632 0.0
C994 C 0.07481 0.56257 0.29075 0.0
C995 C 0.0718 0.57461 0.28126 0.0
C996 C 0.06404 0.5662 0.26521 0.0
C997 C 0.06288 0.54708 0.26656 0.0
C998 C 0.06953 0.54513 0.28142 0.0
C999 C 0.07849 0.57893 0.25254 0.0
C1000 C 0.0443 0.56416 0.26348 0.0
H1001 H 0.05729 0.476 0.26246 0.0
H1002 H 0.09242 0.50107 0.31317 0.0
H1003 H 0.05611 0.50654 0.31477 0.0
H1004 H 0.06151 0.53032 0.31463 0.0
H1005 H 0.0769 0.52397 0.32495 0.0
H1006 H 0.10891 0.53851 0.29046 0.0
H1007 H 0.10674 0.53657 0.31168 0.0
H1008 H 0.10376 0.55403 0.30122 0.0
H1009 H 0.03988 0.49599 0.21127 0.0
H1010 H 0.04044 0.54899 0.20576 0.0
H1011 H 0.0492 0.55685 0.23328 0.0
H1012 H 0.07865 0.51429 0.23124 0.0
H1013 H 0.06281 0.48947 0.22772 0.0
H1014 H 0.07593 0.49789 0.24595 0.0
H1015 H 0.02078 0.48535 0.24577 0.0
H1016 H 0.03285 0.4788 0.25926 0.0
H1017 H 0.03191 0.47267 0.23851 0.0
H1018 H 0.06884 0.45807 0.27639 0.0
C1019 C 0.06476 0.48187 0.27338 0.0
C1020 C 0.41434 0.497 0.29912 0.0
C1021 C 0.39952 0.48067 0.29206 0.0
C1022 C 0.40206 0.47451 0.27716 0.0
C1023 C 0.43355 0.50156 0.2759 0.0
C1024 C 0.43123 0.50729 0.29079 0.0
C1025 C 0.44803 0.52583 0.29585 0.0
H1026 H 0.53151 0.60228 0.27636 0.0
C1027 C 0.45208 0.51599 0.26989 0.0
C1028 C 0.46074 0.53024 0.28154 0.0
H1029 H 0.5005 0.593 0.31989 0.0
H1030 H 0.47732 0.56153 0.3108 0.0
H1031 H 0.52747 0.56134 0.27427 0.0
H1032 H 0.49583 0.58489 0.25338 0.0
H1033 H 0.49986 0.57213 0.23852 0.0
H1034 H 0.51958 0.59199 0.24799 0.0
H1035 H 0.53563 0.57614 0.25706 0.0
H1036 H 0.52032 0.55074 0.25544 0.0
C1037 C 0.45667 0.5223 0.3109 0.0
C1038 C 0.44151 0.54057 0.29811 0.0
C1039 C 0.47042 0.51031 0.2135 0.0
C1040 C 0.48655 0.52163 0.20454 0.0
C1041 C 0.50186 0.53762 0.21161 0.0
C1042 C 0.50088 0.54268 0.22734 0.0
C1043 C 0.48445 0.53153 0.23609 0.0
C1044 C 0.46978 0.51538 0.22929 0.0
C1045 C 0.45376 0.5049 0.24057 0.0
C1046 C 0.46103 0.5177 0.25513 0.0
C1047 C 0.47888 0.53337 0.25236 0.0
C1048 C 0.45167 0.48517 0.2437 0.0
C1049 C 0.43606 0.50426 0.23329 0.0
C1050 C 0.51992 0.59337 0.28408 0.0
C1051 C 0.51783 0.60015 0.29884 0.0
C1052 C 0.50232 0.58817 0.30838 0.0
C1053 C 0.48889 0.56992 0.30308 0.0
C1054 C 0.49082 0.56367 0.28798 0.0
C1055 C 0.50632 0.57525 0.27889 0.0
C1056 C 0.50603 0.56652 0.26308 0.0
C1057 C 0.48769 0.54784 0.26406 0.0
C1058 C 0.47874 0.54626 0.27862 0.0
C1059 C 0.52328 0.5636 0.26226 0.0
C1060 C 0.50541 0.57951 0.24996 0.0
H1061 H 0.42003 0.47948 0.25767 0.0
H1062 H 0.41255 0.50202 0.31055 0.0
H1063 H 0.43066 0.53842 0.2891 0.0
H1064 H 0.45288 0.55533 0.29645 0.0
H1065 H 0.43524 0.53928 0.31002 0.0
H1066 H 0.45607 0.50836 0.31013 0.0
H1067 H 0.4489 0.52219 0.3217 0.0
H1068 H 0.47172 0.53286 0.31251 0.0
H1069 H 0.45856 0.49784 0.2083 0.0
H1070 H 0.51437 0.54652 0.20479 0.0
H1071 H 0.51281 0.55525 0.23197 0.0
H1072 H 0.46554 0.48586 0.24323 0.0
H1073 H 0.44237 0.47458 0.23469 0.0
H1074 H 0.44629 0.47975 0.25568 0.0
H1075 H 0.43991 0.51759 0.22681 0.0
H1076 H 0.42585 0.5032 0.24227 0.0
H1077 H 0.42886 0.49229 0.22472 0.0
H1078 H 0.39069 0.4619 0.27163 0.0
C1079 C 0.41905 0.48477 0.26909 0.0
O1080 O 0.4748 0.98075 0.00944 0.0
Mn1081 Mn 0.50232 0.00276 0.00594 0.0
O1082 O 0.46266 0.99348 0.0263 0.0
Mn1083 Mn 0.48318 0.01782 0.02773 0.0
O1084 O 0.53035 0.02548 0.00336 0.0
O1085 O 0.51155 0.98387 0.00311 0.0
Mn1086 Mn 0.52715 0.99482 0.98674 0.0
O1087 O 0.49558 0.00242 0.98178 0.0
O1088 O 0.54741 0.0115 0.99854 0.0
O1089 O 0.50818 0.0022 0.03037 0.0
O1090 O 0.50121 0.02224 0.04256 0.0
O1091 O 0.51439 0.96945 0.98256 0.0
O1092 O 0.52217 0.00749 0.9713 0.0
C1093 C 0.48916 0.03486 0.00751 0.0
C1094 C 0.46123 0.97978 0.01776 0.0
C1095 C 0.5462 0.02568 0.00335 0.0
C1096 C 0.50792 0.96783 0.99672 0.0
C1097 C 0.50635 0.00618 0.96985 0.0
C1098 C 0.50856 0.01179 0.04269 0.0
O1099 O 0.49379 0.02189 0.00903 0.0
O1100 O 0.48126 0.03752 0.01975 0.0
O1101 O 0.01769 0.48875 0.00787 0.0
Mn1102 Mn -0.00198 0.49724 0.00495 0.0
O1103 O 0.00535 0.46705 0.02737 0.0
Mn1104 Mn 0.98131 0.46413 0.02793 0.0
O1105 O 0.97841 0.50605 0.00238 0.0
O1106 O 0.01922 0.52382 0.00055 0.0
Mn1107 Mn 0.01453 0.53103 0.9823 0.0
O1108 O 0.99434 0.48938 0.98063 0.0
O1109 O 0.99229 0.53129 0.986 0.0
O1110 O 0.00129 0.50501 0.02943 0.0
O1111 O 0.97836 0.4799 0.04156 0.0
O1112 O 0.03673 0.55108 0.98915 0.0
O1113 O 0.01405 0.515 0.96675 0.0
C1114 C 0.96356 0.453 0.00778 0.0
C1115 C 0.01881 0.47769 0.01807 0.0
C1116 C 0.97868 0.51985 0.99481 0.0
C1117 C 0.03348 0.54088 0.00177 0.0
C1118 C 0.0024 0.49741 0.96757 0.0
C1119 C 0.99113 0.49716 0.04177 0.0
O1120 O 0.9774 0.47029 0.00895 0.0
O1121 O 0.96071 0.44276 0.02029 0.0
O1122 O 0.52631 0.50438 0.00177 0.0
Mn1123 Mn 0.49899 0.49938 0.0018 0.0
O1124 O 0.53759 0.5211 0.97952 0.0
Mn1125 Mn 0.52101 0.5303 0.9779 0.0
O1126 O 0.47145 0.49439 0.00181 0.0
O1127 O 0.49033 0.47204 0.00795 0.0
Mn1128 Mn 0.47499 0.46678 0.02413 0.0
O1129 O 0.5028 0.50855 0.02567 0.0
O1130 O 0.45475 0.4685 0.01684 0.0
O1131 O 0.49532 0.49082 0.97756 0.0
O1132 O 0.50179 0.51688 0.96383 0.0
O1133 O 0.47557 0.44507 0.02097 0.0
O1134 O 0.4884 0.48238 0.04066 0.0
C1135 C 0.51868 0.54378 -0.00101 0.0
C1136 C 0.53883 0.51177 0.99103 0.0
C1137 C 0.45595 0.48148 0.00773 0.0
C1138 C 0.48665 0.45461 0.00945 0.0
C1139 C 0.49879 0.50016 0.03917 0.0
C1140 C 0.49451 0.49897 0.96467 0.0
O1141 O 0.50737 0.52624 0.99527 0.0
O1142 O 0.52992 0.5534 0.98763 0.0
O1143 O 0.13945 0.315 0.34049 0.0
Mn1144 Mn 0.16765 0.33483 0.33846 0.0
O1145 O 0.12965 0.32788 0.35935 0.0
Mn1146 Mn 0.15109 0.35203 0.36085 0.0
O1147 O 0.19602 0.35493 0.33668 0.0
O1148 O 0.17352 0.3139 0.33404 0.0
Mn1149 Mn 0.18563 0.31901 0.3159 0.0
O1150 O 0.164 0.33854 0.31421 0.0
O1151 O 0.20767 0.34207 0.31947 0.0
O1152 O 0.17095 0.33112 0.36313 0.0
O1153 O 0.17031 0.35558 0.37398 0.0
O1154 O 0.18415 0.29703 0.32262 0.0
O1155 O 0.16972 0.31852 0.3004 0.0
C1156 C 0.15745 0.36906 0.34049 0.0
C1157 C 0.12676 0.31442 0.34972 0.0
C1158 C 0.20954 0.35546 0.32867 0.0
C1159 C 0.17639 0.29966 0.33498 0.0
C1160 C 0.16364 0.33003 0.30123 0.0
C1161 C 0.17294 0.34165 0.37528 0.0
O1162 O 0.16118 0.35547 0.3421 0.0
O1163 O 0.15041 0.37252 0.35291 0.0
O1164 O 0.68703 0.82676 0.33966 0.0
Mn1165 Mn 0.66568 0.83307 0.33774 0.0
O1166 O 0.67731 0.80631 0.36023 0.0
Mn1167 Mn 0.65259 0.80147 0.36176 0.0
O1168 O 0.64378 0.83899 0.33646 0.0
O1169 O 0.68483 0.86021 0.33283 0.0
Mn1170 Mn 0.67726 0.86798 0.31649 0.0
O1171 O 0.66216 0.82536 0.31338 0.0
O1172 O 0.65499 0.86634 0.32289 0.0
O1173 O 0.67003 0.84154 0.36191 0.0
O1174 O 0.6488 0.81683 0.3754 0.0
O1175 O 0.69975 0.88845 0.32253 0.0
O1176 O 0.67588 0.85283 0.29986 0.0
C1177 C 0.63397 0.78784 0.34251 0.0
C1178 C 0.6896 0.81668 0.34996 0.0
C1179 C 0.64224 0.85282 0.33092 0.0
C1180 C 0.69905 0.87725 0.3337 0.0
C1181 C 0.66799 0.83485 0.30039 0.0
C1182 C 0.66081 0.83428 0.37471 0.0
O1183 O 0.64687 0.80562 0.34257 0.0
O1184 O 0.63273 0.77874 0.35543 0.0
O1185 O 0.19482 0.84398 0.33109 0.0
Mn1186 Mn 0.16635 0.83375 0.33371 0.0
O1187 O 0.2026 0.86587 0.31178 0.0
Mn1188 Mn 0.18016 0.86649 0.31058 0.0
O1189 O 0.13787 0.82406 0.33573 0.0
O1190 O 0.16184 0.80645 0.33687 0.0
Mn1191 Mn 0.15196 0.80233 0.35604 0.0
O1192 O 0.16975 0.84175 0.35807 0.0
O1193 O 0.12929 0.80224 0.35489 0.0
O1194 O 0.16283 0.82626 0.3095 0.0
O1195 O 0.162 0.84964 0.29686 0.0
O1196 O 0.15165 0.78069 0.35216 0.0
O1197 O 0.16991 0.81802 0.37017 0.0
C1198 C 0.17351 0.87735 0.33083 0.0
C1199 C 0.20666 0.85618 0.32133 0.0
C1200 C 0.12557 0.81186 0.3451 0.0
C1201 C 0.15897 0.78918 0.33891 0.0
C1202 C 0.17244 0.83455 0.37061 0.0
C1203 C 0.15923 0.83292 0.29705 0.0
O1204 O 0.17092 0.86029 0.32981 0.0
O1205 O 0.17937 0.8872 0.31797 0.0
O1206 O 0.80701 0.65005 0.67511 0.0
Mn1207 Mn 0.83531 0.66815 0.67151 0.0
O1208 O 0.80022 0.66339 0.69575 0.0
Mn1209 Mn 0.823 0.68653 0.69702 0.0
O1210 O 0.86386 0.68626 0.66811 0.0
O1211 O 0.83846 0.64585 0.6655 0.0
Mn1212 Mn 0.84784 0.64975 0.64634 0.0
O1213 O 0.8306 0.67323 0.64788 0.0
O1214 O 0.871 0.67212 0.64835 0.0
O1215 O 0.84023 0.66323 0.69512 0.0
O1216 O 0.84167 0.68693 0.70943 0.0
O1217 O 0.84555 0.62714 0.65235 0.0
O1218 O 0.83007 0.65008 0.63338 0.0
C1219 C 0.8289 0.70444 0.6769 0.0
C1220 C 0.79566 0.64992 0.68562 0.0
C1221 C 0.87557 0.6857 0.65834 0.0
C1222 C 0.83978 0.63065 0.66552 0.0
C1223 C 0.82726 0.66393 0.63478 0.0
C1224 C 0.84434 0.67297 0.70804 0.0
O1225 O 0.83163 0.69011 0.67756 0.0
O1226 O 0.82385 0.70839 0.69024 0.0
O1227 O 0.35774 0.16478 0.66862 0.0
Mn1228 Mn 0.33398 0.16757 0.67125 0.0
O1229 O 0.35588 0.15008 0.69086 0.0
Mn1230 Mn 0.32988 0.13634 0.69036 0.0
O1231 O 0.30987 0.171 0.67311 0.0
O1232 O 0.35048 0.19606 0.66793 0.0
Mn1233 Mn 0.33687 0.20116 0.65429 0.0
O1234 O 0.32961 0.1616 0.64699 0.0
O1235 O 0.32059 0.20189 0.66841 0.0
O1236 O 0.33782 0.17235 0.69671 0.0
O1237 O 0.31975 0.14321 0.70615 0.0
O1238 O 0.36127 0.21779 0.64982 0.0
O1239 O 0.32485 0.18432 0.63772 0.0
C1240 C 0.31405 0.12279 0.66947 0.0
C1241 C 0.36502 0.15882 0.67879 0.0
C1242 C 0.30801 0.18591 0.67364 0.0
C1243 C 0.36519 0.209 0.66059 0.0
C1244 C 0.32452 0.16875 0.63594 0.0
C1245 C 0.32912 0.16097 0.70845 0.0
O1246 O 0.31682 0.13912 0.67455 0.0
O1247 O 0.32159 0.11535 0.67821 0.0
O1248 O 0.86117 0.17353 0.66831 0.0
Mn1249 Mn 0.83311 0.16561 0.66902 0.0
O1250 O 0.86557 0.18644 0.64459 0.0
Mn1251 Mn 0.84621 0.19213 0.64648 0.0
O1252 O 0.80477 0.15761 0.66982 0.0
O1253 O 0.82686 0.13835 0.67276 0.0
Mn1254 Mn 0.81281 0.13072 0.68987 0.0
O1255 O 0.83562 0.17237 0.69355 0.0
O1256 O 0.7911 0.13126 0.68481 0.0
O1257 O 0.82966 0.15751 0.64442 0.0
O1258 O 0.8256 0.17938 0.63383 0.0
O1259 O 0.81482 0.11035 0.68406 0.0
O1260 O 0.82662 0.14538 0.70668 0.0
C1261 C 0.85217 0.21168 0.66307 0.0
C1262 C 0.87143 0.18087 0.65618 0.0
C1263 C 0.79033 0.14379 0.6763 0.0
C1264 C 0.82415 0.12116 0.67233 0.0
C1265 C 0.8335 0.16319 0.70649 0.0
C1266 C 0.82422 0.1634 0.63251 0.0
O1267 O 0.83932 0.19391 0.6662 0.0
O1268 O 0.85753 0.21675 0.64854 0.0
H1269 H 0.29213 0.88741 0.0384 0.0
H1270 H 0.32454 0.90464 0.02881 0.0
H1271 H 0.3252 0.85207 0.02541 0.0
H1272 H 0.2927 0.83473 0.03497 0.0
H1273 H 0.35562 0.88166 0.04322 0.0
H1274 H 0.32522 0.87264 0.99215 0.0
H1275 H 0.30278 0.87386 0.97332 0.0
H1276 H 0.32923 0.93418 0.98 0.0
H1277 H 0.35166 0.93331 -0.00097 0.0
H1278 H 0.45127 0.94198 0.01588 0.0
H1279 H 0.41893 0.91453 0.01611 0.0
H1280 H 0.39687 0.9528 0.01719 0.0
H1281 H 0.42859 0.97978 0.01711 0.0
H1282 H 0.37763 0.9241 0.99653 0.0
H1283 H 0.4013 0.93446 0.05002 0.0
H1284 H 0.42229 0.93683 0.072 0.0
H1285 H 0.40735 0.87871 0.06453 0.0
H1286 H 0.38653 0.8761 0.04226 0.0
C1287 C 0.29913 0.87953 0.0354 0.0
C1288 C 0.28997 0.85978 0.0374 0.0
C1289 C 0.31756 0.88934 0.02987 0.0
C1290 C 0.32717 0.87957 0.02634 0.0
C1291 C 0.31795 0.8598 0.028 0.0
C1292 C 0.2994 0.84994 0.03336 0.0
C1293 C 0.34727 0.89034 0.02202 0.0
C1294 C 0.3605 0.89055 0.03276 0.0
C1295 C 0.3535 0.90233 0.00866 0.0
C1296 C 0.3401 0.90288 0.99706 0.0
C1297 C 0.32619 0.88615 0.98967 0.0
C1298 C 0.31348 0.88678 0.97895 0.0
C1299 C 0.31457 0.90408 0.97547 0.0
C1300 C 0.32841 0.92079 0.98269 0.0
C1301 C 0.34115 0.92024 0.99342 0.0
C1302 C 0.43943 0.94438 0.01599 0.0
C1303 C 0.44234 0.96291 0.01663 0.0
C1304 C 0.42105 0.92878 0.01617 0.0
C1305 C 0.40555 0.93169 0.01668 0.0
C1306 C 0.4086 0.95022 0.01673 0.0
C1307 C 0.42675 0.96563 0.0168 0.0
C1308 C 0.38598 0.91581 0.01793 0.0
C1309 C 0.37281 0.91468 0.00665 0.0
C1310 C 0.37978 0.90352 0.03113 0.0
C1311 C 0.39267 0.9052 0.04424 0.0
C1312 C 0.40273 0.92227 0.05288 0.0
C1313 C 0.41454 0.92364 0.06543 0.0
C1314 C 0.41624 0.90797 0.0696 0.0
C1315 C 0.4061 0.89088 0.06123 0.0
C1316 C 0.39432 0.88945 0.04862 0.0
H1317 H 0.42534 0.90904 0.07936 0.0
H1318 H 0.30471 0.90454 0.96718 0.0
H1319 H 0.11766 0.40824 0.05276 0.0
H1320 H 0.09786 0.42141 0.04643 0.0
H1321 H 0.13841 0.45864 0.01222 0.0
H1322 H 0.15972 0.44758 0.02024 0.0
H1323 H 0.12709 0.47767 0.02652 0.0
H1324 H 0.09224 0.415 0.00296 0.0
H1325 H 0.07615 0.38 0.00215 0.0
H1326 H 0.03888 0.37698 0.03906 0.0
H1327 H 0.05485 0.41189 0.04024 0.0
H1328 H 0.04642 0.48753 0.99574 0.0
H1329 H 0.07377 0.48291 0.99761 0.0
H1330 H 0.05845 0.46283 0.04552 0.0
H1331 H 0.03131 0.4673 0.04381 0.0
H1332 H 0.05819 0.43673 0.01953 0.0
H1333 H 0.09435 0.4987 0.04461 0.0
H1334 H 0.11006 0.53361 0.04591 0.0
H1335 H 0.14422 0.53773 0.00601 0.0
H1336 H 0.12847 0.50281 0.00429 0.0
C1337 C 0.12269 0.41949 0.04411 0.0
C1338 C 0.14059 0.42693 0.03723 0.0
C1339 C 0.111 0.42668 0.04014 0.0
C1340 C 0.11633 0.44071 0.0285 0.0
C1341 C 0.13388 0.44774 0.02118 0.0
C1342 C 0.14597 0.44112 0.02563 0.0
C1343 C 0.10407 0.44877 0.02469 0.0
C1344 C 0.11207 0.46866 0.02464 0.0
C1345 C 0.08439 0.43712 0.02246 0.0
C1346 C 0.07482 0.41608 0.02172 0.0
C1347 C 0.08068 0.40686 0.01096 0.0
C1348 C 0.07157 0.38704 0.01043 0.0
C1349 C 0.05652 0.37628 0.02056 0.0
C1350 C 0.05053 0.38532 0.03122 0.0
C1351 C 0.05959 0.40512 0.0318 0.0
C1352 C 0.04914 0.48249 0.00676 0.0
C1353 C 0.03649 0.47726 0.01948 0.0
C1354 C 0.0648 0.48003 0.00784 0.0
C1355 C 0.06801 0.47257 0.02171 0.0
C1356 C 0.05614 0.46864 0.03475 0.0
C1357 C 0.04053 0.47098 0.03367 0.0
C1358 C 0.08119 0.46532 0.02182 0.0
C1359 C 0.0733 0.44561 0.02106 0.0
C1360 C 0.10084 0.47711 0.02331 0.0
C1361 C 0.10994 0.4981 0.02412 0.0
C1362 C 0.10496 0.50702 0.03593 0.0
C1363 C 0.11396 0.52683 0.0368 0.0
C1364 C 0.12805 0.53788 0.02599 0.0
C1365 C 0.13324 0.52915 0.01433 0.0
C1366 C 0.12428 0.50935 0.0134 0.0
H1367 H 0.13501 0.55321 0.02669 0.0
H1368 H 0.04949 0.36094 0.02013 0.0
H1369 H 0.57188 0.71284 0.01338 0.0
H1370 H 0.55843 0.67876 0.008 0.0
H1371 H 0.5542 0.66781 0.05823 0.0
H1372 H 0.56627 0.70121 0.06379 0.0
H1373 H 0.57242 0.65057 0.03592 0.0
H1374 H 0.51734 0.65933 0.04445 0.0
H1375 H 0.49912 0.67471 0.03682 0.0
H1376 H 0.49415 0.6539 0.9891 0.0
H1377 H 0.51259 0.63864 0.99642 0.0
H1378 H 0.52918 0.55294 0.03017 0.0
H1379 H 0.53449 0.58276 0.04215 0.0
H1380 H 0.50637 0.59091 0.00197 0.0
H1381 H 0.49873 0.56019 0.99167 0.0
H1382 H 0.50529 0.61113 0.02052 0.0
H1383 H 0.55942 0.60499 0.00676 0.0
H1384 H 0.58169 0.59303 0.00868 0.0
H1385 H 0.5936 0.61161 0.05726 0.0
H1386 H 0.57122 0.62344 0.05569 0.0
C1387 C 0.56796 0.70318 0.02328 0.0
C1388 C 0.57042 0.70992 0.03904 0.0
C1389 C 0.56044 0.68377 0.02017 0.0
C1390 C 0.55553 0.67095 0.03277 0.0
C1391 C 0.55817 0.6776 0.0484 0.0
C1392 C 0.56525 0.69679 0.05152 0.0
C1393 C 0.54691 0.65039 0.0299 0.0
C1394 C 0.55773 0.64178 0.03256 0.0
C1395 C 0.52797 0.63926 0.02512 0.0
C1396 C 0.51643 0.64797 0.02096 0.0
C1397 C 0.51245 0.65813 0.03232 0.0
C1398 C 0.50207 0.66682 0.02805 0.0
C1399 C 0.49551 0.66531 0.01248 0.0
C1400 C 0.49924 0.65506 0.00116 0.0
C1401 C 0.50963 0.64638 0.00536 0.0
C1402 C 0.52304 0.56057 0.02462 0.0
C1403 C 0.51368 0.55446 0.00998 0.0
C1404 C 0.52661 0.57796 0.03114 0.0
C1405 C 0.52205 0.58993 0.02246 0.0
C1406 C 0.51045 0.58241 0.00896 0.0
C1407 C 0.50591 0.56463 0.00304 0.0
C1408 C 0.53085 0.61069 0.02604 0.0
C1409 C 0.52004 0.61956 0.0237 0.0
C1410 C 0.55021 0.62222 0.03018 0.0
C1411 C 0.56344 0.61483 0.03118 0.0
C1412 C 0.56669 0.60639 0.01788 0.0
C1413 C 0.57934 0.59965 0.0189 0.0
C1414 C 0.58899 0.60149 0.0331 0.0
C1415 C 0.58606 0.61012 0.0463 0.0
C1416 C 0.57338 0.61682 0.04535 0.0
H1417 H 0.59879 0.59629 0.03386 0.0
H1418 H 0.4875 0.67206 0.0092 0.0
H1419 H 0.88854 0.28614 0.96461 0.0
H1420 H 0.90916 0.32026 0.96908 0.0
H1421 H 0.8614 0.32506 0.98364 0.0
H1422 H 0.84072 0.29105 0.97902 0.0
H1423 H 0.88135 0.35028 0.96077 0.0
H1424 H 0.8934 0.33084 0.01024 0.0
H1425 H 0.90178 0.3129 0.02882 0.0
H1426 H 0.95675 0.33736 0.0083 0.0
H1427 H 0.9486 0.35526 0.9894 0.0
H1428 H 0.92752 0.44031 -0.00047 0.0
H1429 H 0.90867 0.40908 0.9874 0.0
H1430 H 0.9593 0.40994 0.97257 0.0
H1431 H 0.97817 0.4414 0.98467 0.0
H1432 H 0.93905 0.38183 0.99408 0.0
H1433 H 0.92558 0.40224 0.94524 0.0
H1434 H 0.91625 0.42086 0.9282 0.0
H1435 H 0.86203 0.39454 0.95034 0.0
H1436 H 0.87127 0.37603 0.96751 0.0
C1437 C 0.88251 0.29446 0.96896 0.0
C1438 C 0.86302 0.28598 0.9714 0.0
C1439 C 0.8943 0.3139 0.97158 0.0
C1440 C 0.88678 0.32518 0.97663 0.0
C1441 C 0.86745 0.3166 0.97969 0.0
C1442 C 0.85569 0.29715 0.97719 0.0
C1443 C 0.89879 0.3461 0.97756 0.0
C1444 C 0.89386 0.35719 0.96819 0.0
C1445 C 0.91532 0.35506 0.98698 0.0
C1446 C 0.92028 0.3442 0.99823 0.0
C1447 C 0.9072 0.33224 0.00955 0.0
C1448 C 0.91193 0.32211 0.02017 0.0
C1449 C 0.92976 0.32393 0.0197 0.0
C1450 C 0.94292 0.33593 0.00862 0.0
C1451 C 0.93826 0.34608 0.99795 0.0
C1452 C 0.93458 0.43447 0.99264 0.0
C1453 C 0.95425 0.44321 0.99302 0.0
C1454 C 0.92379 0.41643 0.98589 0.0
C1455 C 0.93259 0.40698 0.97937 0.0
C1456 C 0.95223 0.41691 0.97768 0.0
C1457 C 0.963 0.43507 0.9843 0.0
C1458 C 0.92166 0.38604 0.97721 0.0
C1459 C 0.92671 0.3749 0.98647 0.0
C1460 C 0.90502 0.37703 0.96797 0.0
C1461 C 0.89924 0.38797 0.95768 0.0
C1462 C 0.91178 0.40063 0.94647 0.0
C1463 C 0.90648 0.4111 0.9368 0.0
C1464 C 0.88856 0.40892 0.93822 0.0
C1465 C 0.87591 0.39622 0.94926 0.0
C1466 C 0.88118 0.38572 0.95894 0.0
H1467 H 0.88446 0.41705 0.93074 0.0
H1468 H 0.93339 0.31609 0.02795 0.0
H1469 H 0.71853 0.58623 0.99393 0.0
H1470 H 0.68535 0.57356 0.00086 0.0
H1471 H 0.66867 0.54702 0.95462 0.0
H1472 H 0.70163 0.56004 0.94758 0.0
H1473 H 0.64914 0.56338 0.96187 0.0
H1474 H 0.66677 0.52204 0.98914 0.0
H1475 H 0.68597 0.51538 0.00779 0.0
H1476 H 0.67034 0.53961 0.04605 0.0
H1477 H 0.65121 0.5466 0.02758 0.0
H1478 H 0.55465 0.50034 0.96887 0.0
H1479 H 0.58802 0.51015 0.96743 0.0
H1480 H 0.59685 0.53512 0.01422 0.0
H1481 H 0.5632 0.52454 0.01591 0.0
H1482 H 0.62081 0.52203 0.00867 0.0
H1483 H 0.60127 0.56122 0.98165 0.0
H1484 H 0.58224 0.56806 0.96298 0.0
H1485 H 0.60189 0.5486 0.92405 0.0
H1486 H 0.6208 0.54134 0.94251 0.0
C1487 C 0.70771 0.57769 0.98531 0.0
C1488 C 0.71254 0.57413 0.97023 0.0
C1489 C 0.68882 0.57043 0.98927 0.0
C1490 C 0.67454 0.55919 0.9783 0.0
C1491 C 0.67944 0.55572 0.96324 0.0
C1492 C 0.69825 0.56316 0.95922 0.0
C1493 C 0.65441 0.55088 0.98232 0.0
C1494 C 0.64292 0.55419 0.97202 0.0
C1495 C 0.64642 0.53939 0.99585 0.0
C1496 C 0.65771 0.53498 0.00697 0.0
C1497 C 0.66752 0.52603 0.00152 0.0
C1498 C 0.67837 0.52219 0.01205 0.0
C1499 C 0.67941 0.52711 0.02809 0.0
C1500 C 0.66954 0.53582 0.03363 0.0
C1501 C 0.65868 0.53971 0.02314 0.0
C1502 C 0.56361 0.50717 0.9791 0.0
C1503 C 0.55655 0.51173 0.99249 0.0
C1504 C 0.58266 0.51296 0.97821 0.0
C1505 C 0.59495 0.52391 0.9905 0.0
C1506 C 0.58759 0.52682 0.00456 0.0
C1507 C 0.56839 0.52068 0.00557 0.0
C1508 C 0.6155 0.53402 0.9879 0.0
C1509 C 0.62706 0.53124 0.99855 0.0
C1510 C 0.6236 0.54605 0.97466 0.0
C1511 C 0.61234 0.55059 0.96351 0.0
C1512 C 0.60144 0.55828 0.96913 0.0
C1513 C 0.59068 0.56224 0.95857 0.0
C1514 C 0.59083 0.55873 0.94234 0.0
C1515 C 0.60177 0.55129 0.93662 0.0
C1516 C 0.61252 0.54726 0.94713 0.0
H1517 H 0.58249 0.56181 0.93419 0.0
H1518 H 0.68782 0.52413 0.03622 0.0
H1519 H 0.45242 0.1592 0.96898 0.0
H1520 H 0.46708 0.14018 0.97556 0.0
H1521 H 0.41247 0.08953 0.97563 0.0
H1522 H 0.39779 0.10848 0.96889 0.0
H1523 H 0.43729 0.0905 -0.00029 0.0
H1524 H 0.43524 0.09893 0.94366 0.0
H1525 H 0.44072 0.11703 0.91896 0.0
H1526 H 0.50031 0.14551 0.92748 0.0
H1527 H 0.49514 0.12785 0.95244 0.0
H1528 H 0.46066 0.02029 0.98672 0.0
H1529 H 0.44903 0.04065 0.97668 0.0
H1530 H 0.50315 0.08997 0.98596 0.0
H1531 H 0.51451 0.06961 0.99672 0.0
H1532 H 0.47904 0.09004 0.95741 0.0
H1533 H 0.48014 0.0811 0.01429 0.0
H1534 H 0.47354 0.0634 0.03933 0.0
H1535 H 0.41434 0.03513 0.02908 0.0
H1536 H 0.42062 0.05247 0.00383 0.0
C1537 C 0.44355 0.14408 0.97083 0.0
C1538 C 0.42404 0.13521 0.96832 0.0
C1539 C 0.45191 0.13325 0.97448 0.0
C1540 C 0.44084 0.11346 0.97581 0.0
C1541 C 0.42122 0.10479 0.97456 0.0
C1542 C 0.41288 0.11557 0.97069 0.0
C1543 C 0.44978 0.10164 0.97703 0.0
C1544 C 0.44629 0.09026 0.99042 0.0
C1545 C 0.46164 0.10152 0.96494 0.0
C1546 C 0.46479 0.11227 0.95002 0.0
C1547 C 0.4495 0.10923 0.94037 0.0
C1548 C 0.45255 0.11938 0.92631 0.0
C1549 C 0.47085 0.13246 0.92168 0.0
C1550 C 0.48614 0.13541 0.9311 0.0
C1551 C 0.48315 0.12535 0.94522 0.0
C1552 C 0.47048 0.03536 0.98556 0.0
C1553 C 0.4884 0.04347 0.99262 0.0
C1554 C 0.46368 0.047 0.98015 0.0
C1555 C 0.4751 0.06676 0.9811 0.0
C1556 C 0.49411 0.0747 0.98535 0.0
C1557 C 0.50073 0.06305 0.99117 0.0
C1558 C 0.46656 0.07893 0.98009 0.0
C1559 C 0.47009 0.09033 0.96672 0.0
C1560 C 0.45462 0.07895 0.99218 0.0
C1561 C 0.4509 0.06779 0.00697 0.0
C1562 C 0.46575 0.07083 0.01719 0.0
C1563 C 0.46205 0.06095 0.03149 0.0
C1564 C 0.44354 0.04804 0.03574 0.0
C1565 C 0.42869 0.04503 0.02572 0.0
C1566 C 0.43231 0.05488 0.01142 0.0
H1567 H 0.44071 0.04045 0.04683 0.0
H1568 H 0.47319 0.14027 0.91076 0.0
H1569 H 0.72184 0.12462 0.98526 0.0
H1570 H 0.68954 0.1068 0.99546 0.0
H1571 H 0.67017 0.12731 0.9567 0.0
H1572 H 0.70232 0.14483 0.94644 0.0
H1573 H 0.65494 0.12893 0.98536 0.0
H1574 H 0.6634 0.08531 0.95402 0.0
H1575 H 0.67826 0.06726 0.9446 0.0
H1576 H 0.66917 0.04033 0.98998 0.0
H1577 H 0.6546 0.05855 -0.00019 0.0
H1578 H 0.55685 0.05781 0.98674 0.0
H1579 H 0.58944 0.08223 0.98179 0.0
H1580 H 0.60834 0.05761 0.01761 0.0
H1581 H 0.57581 0.03265 0.02192 0.0
H1582 H 0.62402 0.05899 0.99035 0.0
H1583 H 0.61343 0.10386 0.02044 0.0
H1584 H 0.59651 0.121 0.02662 0.0
H1585 H 0.60724 0.1443 0.97967 0.0
H1586 H 0.62399 0.1271 0.97314 0.0
C1587 C 0.71063 0.12535 0.97907 0.0
C1588 C 0.7143 0.13592 0.96513 0.0
C1589 C 0.69228 0.11521 0.98483 0.0
C1590 C 0.67754 0.11574 0.97677 0.0
C1591 C 0.68139 0.12678 0.96308 0.0
C1592 C 0.69964 0.13668 0.95722 0.0
C1593 C 0.65798 0.10431 0.9823 0.0
C1594 C 0.6481 0.11362 0.98644 0.0
C1595 C 0.64915 0.08437 0.98354 0.0
C1596 C 0.65817 0.07356 0.97775 0.0
C1597 C 0.6648 0.07576 0.96208 0.0
C1598 C 0.67313 0.06545 0.95665 0.0
C1599 C 0.67473 0.05272 0.96671 0.0
C1600 C 0.66798 0.05025 0.98222 0.0
C1601 C 0.6597 0.06058 0.98773 0.0
C1602 C 0.56794 0.0582 0.99404 0.0
C1603 C 0.56399 0.04357 0.00477 0.0
C1604 C 0.58657 0.07209 0.99117 0.0
C1605 C 0.60136 0.07172 -0.00069 0.0
C1606 C 0.59716 0.0581 0.01114 0.0
C1607 C 0.57861 0.044 0.01374 0.0
C1608 C 0.62106 0.08362 0.99405 0.0
C1609 C 0.63093 0.07434 0.98965 0.0
C1610 C 0.62967 0.10351 0.99223 0.0
C1611 C 0.61987 0.1141 0.99628 0.0
C1612 C 0.61209 0.11256 0.01141 0.0
C1613 C 0.60254 0.12229 0.01497 0.0
C1614 C 0.60077 0.13371 0.00354 0.0
C1615 C 0.60861 0.13545 0.98852 0.0
C1616 C 0.61816 0.12574 0.98489 0.0
H1617 H 0.59336 0.14121 0.00632 0.0
H1618 H 0.68114 0.04472 0.96247 0.0
H1619 H 0.88647 0.60255 0.97291 0.0
H1620 H 0.90531 0.58904 0.98282 0.0
H1621 H 0.85849 0.53256 0.97468 0.0
H1622 H 0.83935 0.54616 0.96554 0.0
H1623 H 0.87702 0.53231 -3e-05 0.0
H1624 H 0.89388 0.55524 0.94715 0.0
H1625 H 0.90377 0.57822 0.92526 0.0
H1626 H 0.95557 0.61482 0.94978 0.0
H1627 H 0.94585 0.59222 0.97195 0.0
H1628 H 0.94098 0.49446 0.99209 0.0
H1629 H 0.9157 0.50232 0.99045 0.0
H1630 H 0.95606 0.56103 0.00061 0.0
H1631 H 0.98121 0.55335 0.00158 0.0
H1632 H 0.93843 0.55691 0.97315 0.0
H1633 H 0.91986 0.53198 0.02658 0.0
H1634 H 0.90881 0.50724 0.04711 0.0
H1635 H 0.85942 0.47178 0.01927 0.0
H1636 H 0.87028 0.49621 0.99848 0.0
C1637 C 0.88017 0.58727 0.97355 0.0
C1638 C 0.86162 0.57532 0.96843 0.0
C1639 C 0.89091 0.57955 0.97911 0.0
C1640 C 0.88346 0.55978 0.97908 0.0
C1641 C 0.86456 0.54783 0.97473 0.0
C1642 C 0.85367 0.55557 0.9695 0.0
C1643 C 0.89581 0.55176 0.98251 0.0
C1644 C 0.8904 0.53756 0.99403 0.0
C1645 C 0.91317 0.55847 0.97463 0.0
C1646 C 0.91904 0.5721 0.96129 0.0
C1647 C 0.90731 0.56825 0.94793 0.0
C1648 C 0.9129 0.58121 0.93547 0.0
C1649 C 0.93027 0.59799 0.93614 0.0
C1650 C 0.94211 0.60183 0.94928 0.0
C1651 C 0.93656 0.58895 0.9618 0.0
C1652 C 0.94425 0.50893 0.99429 0.0
C1653 C 0.96295 0.52341 0.99665 0.0
C1654 C 0.92985 0.51339 0.99344 0.0
C1655 C 0.93404 0.53229 0.99531 0.0
C1656 C 0.95254 0.54639 -0.00102 0.0
C1657 C 0.96689 0.54203 -0.00051 0.0
C1658 C 0.92015 0.53816 0.9912 0.0
C1659 C 0.92513 0.55175 0.97923 0.0
C1660 C 0.90235 0.53059 0.99846 0.0
C1661 C 0.896 0.51585 0.01089 0.0
C1662 C 0.90674 0.51883 0.02476 0.0
C1663 C 0.90048 0.50488 0.03646 0.0
C1664 C 0.88345 0.48792 0.03448 0.0
C1665 C 0.87262 0.4849 0.02079 0.0
C1666 C 0.87882 0.4988 0.00905 0.0
H1667 H 0.87862 0.47715 0.04356 0.0
H1668 H 0.93457 0.60799 0.92647 0.0
H1669 H 0.42587 0.28518 0.99729 0.0
H1670 H 0.44092 0.31943 0.00215 0.0
H1671 H 0.44333 0.32913 0.95168 0.0
H1672 H 0.42965 0.29542 0.94673 0.0
H1673 H 0.47519 0.35272 0.96386 0.0
H1674 H 0.411 0.33271 0.97681 0.0
H1675 H 0.38083 0.31395 0.99065 0.0
H1676 H 0.40831 0.33633 0.03547 0.0
H1677 H 0.4387 0.35506 0.02191 0.0
H1678 H 0.47536 0.44512 0.97887 0.0
H1679 H 0.46711 0.41363 0.96856 0.0
H1680 H 0.49892 0.40735 0.00646 0.0
H1681 H 0.50756 0.43884 0.01645 0.0
H1682 H 0.45013 0.38278 0.00013 0.0
H1683 H 0.51524 0.3993 0.98555 0.0
H1684 H 0.54427 0.41879 0.97041 0.0
H1685 H 0.51238 0.4031 0.92693 0.0
H1686 H 0.48311 0.38378 0.9419 0.0
C1687 C 0.42969 0.29463 0.98724 0.0
C1688 C 0.42636 0.28745 0.97162 0.0
C1689 C 0.4381 0.3142 0.99004 0.0
C1690 C 0.4431 0.32687 0.97727 0.0
C1691 C 0.43959 0.31968 0.96173 0.0
C1692 C 0.43148 0.30027 0.95894 0.0
C1693 C 0.4527 0.34771 0.97987 0.0
C1694 C 0.46956 0.35921 0.97173 0.0
C1695 C 0.44548 0.3563 0.99016 0.0
C1696 C 0.42718 0.34515 0.99835 0.0
C1697 C 0.41064 0.33353 0.98963 0.0
C1698 C 0.39349 0.32292 0.99742 0.0
C1699 C 0.39266 0.32391 0.01393 0.0
C1700 C 0.40898 0.33556 0.02268 0.0
C1701 C 0.42617 0.34619 0.01495 0.0
C1702 C 0.48179 0.43764 0.98422 0.0
C1703 C 0.49212 0.44435 0.99841 0.0
C1704 C 0.47675 0.41949 0.97853 0.0
C1705 C 0.48226 0.40817 0.9869 0.0
C1706 C 0.49467 0.41595 -0.00022 0.0
C1707 C 0.49985 0.43409 0.00533 0.0
C1708 C 0.47246 0.38746 0.98419 0.0
C1709 C 0.4556 0.37609 0.9923 0.0
C1710 C 0.47949 0.37896 0.9738 0.0
C1711 C 0.49702 0.3904 0.96484 0.0
C1712 C 0.51441 0.40023 0.97278 0.0
C1713 C 0.5309 0.41118 0.96424 0.0
C1714 C 0.53016 0.41226 0.94772 0.0
C1715 C 0.51293 0.40231 0.93972 0.0
C1716 C 0.49639 0.39136 0.94823 0.0
H1717 H 0.54295 0.42074 0.94112 0.0
H1718 H 0.37938 0.31568 0.01994 0.0
H1719 H 0.12819 0.71262 0.01535 0.0
H1720 H 0.10656 0.67828 0.01129 0.0
H1721 H 0.13222 0.66631 0.05102 0.0
H1722 H 0.15343 0.70031 0.0552 0.0
H1723 H 0.12557 0.64321 0.02191 0.0
H1724 H 0.09325 0.66743 0.05763 0.0
H1725 H 0.07936 0.68793 0.06162 0.0
H1726 H 0.04463 0.66368 0.02019 0.0
H1727 H 0.05838 0.64313 0.01594 0.0
H1728 H 0.06375 0.54632 0.02028 0.0
H1729 H 0.08408 0.57704 0.03306 0.0
H1730 H 0.0414 0.59237 0.02388 0.0
H1731 H 0.02012 0.56062 0.01571 0.0
H1732 H 0.0594 0.61653 0.03843 0.0
H1733 H 0.08945 0.5974 0.99646 0.0
H1734 H 0.10388 0.57966 0.98511 0.0
H1735 H 0.14138 0.59542 0.02516 0.0
H1736 H 0.12715 0.61319 0.03672 0.0
C1737 C 0.12925 0.70254 0.02303 0.0
C1738 C 0.14232 0.7089 0.03559 0.0
C1739 C 0.11693 0.68305 0.02076 0.0
C1740 C 0.11783 0.66986 0.03092 0.0
C1741 C 0.13136 0.67629 0.04307 0.0
C1742 C 0.1434 0.69564 0.04546 0.0
C1743 C 0.10429 0.64931 0.0296 0.0
C1744 C 0.11092 0.63713 0.02524 0.0
C1745 C 0.08524 0.64163 0.03358 0.0
C1746 C 0.07688 0.65382 0.03646 0.0
C1747 C 0.08269 0.66652 0.04937 0.0
C1748 C 0.07483 0.67814 0.05167 0.0
C1749 C 0.06113 0.67712 0.04116 0.0
C1750 C 0.05522 0.66445 0.02834 0.0
C1751 C 0.06301 0.6528 0.026 0.0
C1752 C 0.0584 0.55591 0.02232 0.0
C1753 C 0.04052 0.55132 0.01673 0.0
C1754 C 0.07043 0.574 0.02879 0.0
C1755 C 0.06548 0.58832 0.02802 0.0
C1756 C 0.04649 0.58245 0.02457 0.0
C1757 C 0.03395 0.56389 0.01988 0.0
C1758 C 0.07975 0.60927 0.02926 0.0
C1759 C 0.07357 0.62188 0.03417 0.0
C1760 C 0.09888 0.61738 0.02436 0.0
C1761 C 0.10703 0.60631 0.01756 0.0
C1762 C 0.10069 0.59695 0.00286 0.0
C1763 C 0.10886 0.58693 0.99639 0.0
C1764 C 0.12347 0.58634 0.00445 0.0
C1765 C 0.13002 0.59582 0.01896 0.0
C1766 C 0.12192 0.60586 0.02547 0.0
H1767 H 0.12976 0.57857 -0.00058 0.0
H1768 H 0.05508 0.68613 0.04296 0.0
H1769 H 0.28496 0.39902 0.03253 0.0
H1770 H 0.31682 0.41338 0.02168 0.0
H1771 H 0.32792 0.4686 0.0376 0.0
H1772 H 0.29573 0.45428 0.04767 0.0
H1773 H 0.3442 0.47242 0.01062 0.0
H1774 H 0.34199 0.44173 0.05912 0.0
H1775 H 0.33031 0.41566 0.07845 0.0
H1776 H 0.34337 0.38286 0.04632 0.0
H1777 H 0.35481 0.40859 0.02666 0.0
H1778 H 0.44567 0.50681 0.01748 0.0
H1779 H 0.4129 0.49939 0.02046 0.0
H1780 H 0.39393 0.44697 0.99462 0.0
H1781 H 0.42648 0.4543 0.99173 0.0
H1782 H 0.38261 0.44397 0.02741 0.0
H1783 H 0.38526 0.47744 0.97895 0.0
H1784 H 0.3989 0.50585 0.96203 0.0
H1785 H 0.38766 0.53644 0.99789 0.0
H1786 H 0.37419 0.50828 0.01512 0.0
C1787 C 0.29421 0.41424 0.03344 0.0
C1788 C 0.28819 0.42566 0.04087 0.0
C1789 C 0.31236 0.42242 0.02737 0.0
C1790 C 0.32486 0.44201 0.02914 0.0
C1791 C 0.31853 0.45347 0.03612 0.0
C1792 C 0.30025 0.44534 0.04189 0.0
C1793 C 0.34475 0.45038 0.02438 0.0
C1794 C 0.35264 0.46629 0.01441 0.0
C1795 C 0.35584 0.44251 0.02946 0.0
C1796 C 0.34908 0.42703 0.04133 0.0
C1797 C 0.34224 0.4289 0.05612 0.0
C1798 C 0.33567 0.41419 0.06714 0.0
C1799 C 0.33605 0.39759 0.0636 0.0
C1800 C 0.34305 0.3957 0.04904 0.0
C1801 C 0.34958 0.41035 0.03795 0.0
C1802 C 0.4345 0.49424 0.01175 0.0
C1803 C 0.43836 0.48112 0.0043 0.0
C1804 C 0.41586 0.48995 0.01354 0.0
C1805 C 0.40112 0.47257 0.00786 0.0
C1806 C 0.40518 0.46042 -0.00092 0.0
C1807 C 0.42371 0.46467 0.99733 0.0
C1808 C 0.38171 0.46548 0.01324 0.0
C1809 C 0.37405 0.44997 0.02357 0.0
C1810 C 0.3711 0.47402 0.00884 0.0
C1811 C 0.37888 0.49081 0.99837 0.0
C1812 C 0.38582 0.49027 0.98327 0.0
C1813 C 0.3935 0.50632 0.97362 0.0
C1814 C 0.39419 0.52296 0.9789 0.0
C1815 C 0.38713 0.52355 0.99382 0.0
C1816 C 0.37945 0.50754 0.00352 0.0
H1817 H 0.40016 0.53537 0.97141 0.0
H1818 H 0.33096 0.38622 0.07215 0.0
H1819 H 0.54636 0.84512 0.05617 0.0
H1820 H 0.53169 0.86381 0.04864 0.0
H1821 H 0.5778 0.89691 0.01699 0.0
H1822 H 0.59259 0.87824 0.02475 0.0
H1823 H 0.57144 0.91867 0.03775 0.0
H1824 H 0.53434 0.86684 0.00206 0.0
H1825 H 0.51361 0.83321 0.99476 0.0
H1826 H 0.47178 0.82963 0.02719 0.0
H1827 H 0.49236 0.8632 0.03482 0.0
H1828 H 0.54214 0.97225 0.99734 0.0
H1829 H 0.5519 0.95112 0.00753 0.0
H1830 H 0.49781 0.91759 0.02983 0.0
H1831 H 0.48685 0.93785 0.01731 0.0
H1832 H 0.50681 0.89527 0.01711 0.0
H1833 H 0.54459 0.94954 0.0511 0.0
H1834 H 0.56615 0.98351 0.05683 0.0
H1835 H 0.60783 0.983 0.02655 0.0
H1836 H 0.58653 0.94912 0.02058 0.0
C1837 C 0.55306 0.85612 0.04733 0.0
C1838 C 0.57042 0.86033 0.0409 0.0
C1839 C 0.5447 0.86673 0.04303 0.0
C1840 C 0.55362 0.88165 0.03222 0.0
C1841 C 0.57071 0.88541 0.02535 0.0
C1842 C 0.57909 0.87477 0.02968 0.0
C1843 C 0.54599 0.8944 0.02928 0.0
C1844 C 0.55737 0.91364 0.0331 0.0
C1845 C 0.52741 0.88761 0.0238 0.0
C1846 C 0.51496 0.86747 0.01912 0.0
C1847 C 0.52078 0.85884 0.00772 0.0
C1848 C 0.50904 0.8398 0.0035 0.0
C1849 C 0.49141 0.82928 0.01054 0.0
C1850 C 0.48545 0.8378 0.02176 0.0
C1851 C 0.49713 0.85683 0.02602 0.0
C1852 C 0.53223 0.96041 0.00449 0.0
C1853 C 0.51358 0.95642 0.00629 0.0
C1854 C 0.53804 0.94851 0.01067 0.0
C1855 C 0.52595 0.93307 0.02004 0.0
C1856 C 0.5075 0.92956 0.02274 0.0
C1857 C 0.50125 0.94113 0.01574 0.0
C1858 C 0.53233 0.91981 0.02539 0.0
C1859 C 0.52075 0.90037 0.02206 0.0
C1860 C 0.55085 0.92647 0.03132 0.0
C1861 C 0.56392 0.94674 0.03541 0.0
C1862 C 0.55835 0.95667 0.04568 0.0
C1863 C 0.57054 0.97592 0.04896 0.0
C1864 C 0.58834 0.9854 0.04205 0.0
C1865 C 0.59406 0.97564 0.03192 0.0
C1866 C 0.58197 0.95639 0.02865 0.0
H1867 H 0.5977 0.00032 0.04454 0.0
H1868 H 0.48235 0.81453 0.00727 0.0
H1869 H 0.95894 0.22115 0.37422 0.0
H1870 H 0.99054 0.23886 0.36308 0.0
H1871 H 0.99067 0.18651 0.35518 0.0
H1872 H 0.95905 0.1687 0.36645 0.0
H1873 H 0.02201 0.21318 0.37138 0.0
H1874 H 0.98929 0.21055 0.32369 0.0
H1875 H 0.96643 0.21355 0.30667 0.0
H1876 H 0.99334 0.27312 0.31745 0.0
H1877 H 0.01619 0.27045 0.33472 0.0
H1878 H 0.11587 0.27755 0.34164 0.0
H1879 H 0.08352 0.25038 0.34082 0.0
H1880 H 0.06239 0.28744 0.35429 0.0
H1881 H 0.09432 0.31428 0.35537 0.0
H1882 H 0.04188 0.26219 0.32962 0.0
H1883 H 0.07191 0.26444 0.37953 0.0
H1884 H 0.09616 0.263 0.39542 0.0
H1885 H 0.07298 0.20419 0.38315 0.0
H1886 H 0.0497 0.20583 0.36563 0.0
C1887 C 0.96565 0.21342 0.36997 0.0
C1888 C 0.9566 0.19358 0.37124 0.0
C1889 C 0.98361 0.22351 0.36349 0.0
C1890 C 0.99286 0.21396 0.35819 0.0
C1891 C 0.9837 0.19411 0.35912 0.0
C1892 C 0.96564 0.18398 0.36548 0.0
C1893 C 0.01267 0.22498 0.35302 0.0
C1894 C 0.02639 0.22357 0.36196 0.0
C1895 C 0.01829 0.23864 0.34086 0.0
C1896 C 0.00442 0.24026 0.33058 0.0
C1897 C 0.99025 0.22426 0.32254 0.0
C1898 C 0.9773 0.22591 0.31282 0.0
C1899 C 0.97842 0.24351 0.31099 0.0
C1900 C 0.99249 0.2595 0.31887 0.0
C1901 C 0.00546 0.25792 0.32861 0.0
C1902 C 0.10425 0.27983 0.34431 0.0
C1903 C 0.10756 0.29795 0.34872 0.0
C1904 C 0.08585 0.26436 0.3438 0.0
C1905 C 0.07062 0.26698 0.34744 0.0
C1906 C 0.07395 0.28517 0.35135 0.0
C1907 C 0.09222 0.30045 0.35213 0.0
C1908 C 0.05115 0.25089 0.34838 0.0
C1909 C 0.03749 0.25137 0.33867 0.0
C1910 C 0.04561 0.23654 0.35998 0.0
C1911 C 0.05934 0.23543 0.37084 0.0
C1912 C 0.0722 0.2513 0.37985 0.0
C1913 C 0.08579 0.25043 0.38922 0.0
C1914 C 0.08605 0.23346 0.39048 0.0
C1915 C 0.07283 0.21736 0.38213 0.0
C1916 C 0.05959 0.21834 0.37228 0.0
H1917 H 0.09649 0.23279 0.39789 0.0
H1918 H 0.9684 0.24476 0.30345 0.0
H1919 H 0.80688 0.77259 0.39514 0.0
H1920 H 0.78539 0.78371 0.38772 0.0
H1921 H 0.78258 0.76332 0.33987 0.0
H1922 H 0.80411 0.75184 0.34731 0.0
H1923 H 0.78811 0.80002 0.34138 0.0
H1924 H 0.74583 0.739 0.36338 0.0
H1925 H 0.73372 0.71335 0.38314 0.0
H1926 H 0.73043 0.75045 0.41774 0.0
H1927 H 0.74275 0.7764 0.39827 0.0
H1928 H 0.70696 0.81083 0.32487 0.0
H1929 H 0.73216 0.80296 0.32654 0.0
H1930 H 0.73719 0.81459 0.37693 0.0
H1931 H 0.7116 0.82162 0.37534 0.0
H1932 H 0.72916 0.77968 0.37114 0.0
H1933 H 0.77319 0.84124 0.35071 0.0
H1934 H 0.78608 0.86777 0.33179 0.0
H1935 H 0.78685 0.83114 0.29535 0.0
H1936 H 0.77373 0.80431 0.314 0.0
C1937 C 0.80149 0.77018 0.38309 0.0
C1938 C 0.807 0.76114 0.37184 0.0
C1939 C 0.78926 0.77661 0.37886 0.0
C1940 C 0.78223 0.77408 0.36332 0.0
C1941 C 0.78786 0.76531 0.35195 0.0
C1942 C 0.80014 0.75883 0.35619 0.0
C1943 C 0.76933 0.78108 0.35909 0.0
C1944 C 0.77502 0.79538 0.34765 0.0
C1945 C 0.75252 0.77524 0.36757 0.0
C1946 C 0.74536 0.7597 0.37938 0.0
C1947 C 0.7427 0.74175 0.37525 0.0
C1948 C 0.73575 0.72714 0.38639 0.0
C1949 C 0.73134 0.73028 0.4017 0.0
C1950 C 0.73386 0.74804 0.40589 0.0
C1951 C 0.7408 0.76269 0.3948 0.0
C1952 C 0.71389 0.8122 0.33617 0.0
C1953 C 0.70733 0.81651 0.35003 0.0
C1954 C 0.72828 0.80778 0.33712 0.0
C1955 C 0.7364 0.80802 0.35189 0.0
C1956 C 0.73096 0.81411 0.36545 0.0
C1957 C 0.71639 0.81812 0.36455 0.0
C1958 C 0.74824 0.79921 0.35386 0.0
C1959 C 0.7422 0.78434 0.36478 0.0
C1960 C 0.76476 0.8047 0.34502 0.0
C1961 C 0.77223 0.8207 0.3337 0.0
C1962 C 0.77588 0.83878 0.33861 0.0
C1963 C 0.78329 0.85389 0.32795 0.0
C1964 C 0.78721 0.85113 0.31236 0.0
C1965 C 0.78376 0.83325 0.30741 0.0
C1966 C 0.77634 0.81809 0.31803 0.0
H1967 H 0.79298 0.86285 0.30413 0.0
H1968 H 0.72595 0.71895 0.4103 0.0
H1969 H 0.264 0.04572 0.37434 0.0
H1970 H 0.2521 0.01176 0.36991 0.0
H1971 H 0.19682 0.00335 0.36021 0.0
H1972 H 0.20866 0.03728 0.36454 0.0
H1973 H 0.19738 0.97879 0.38341 0.0
H1974 H 0.21989 -1e-05 0.33089 0.0
H1975 H 0.24304 0.01942 0.31061 0.0
H1976 H 0.27881 0.99768 0.32506 0.0
H1977 H 0.25599 0.9783 0.34561 0.0
H1978 H 0.15128 0.89071 0.34122 0.0
H1979 H 0.16444 0.92174 0.35411 0.0
H1980 H 0.21555 0.92097 0.36423 0.0
H1981 H 0.20208 0.88957 0.35176 0.0
H1982 H 0.21955 0.95014 0.34297 0.0
H1983 H 0.19534 0.92699 0.39441 0.0
H1984 H 0.1713 0.90712 0.41396 0.0
H1985 H 0.13798 0.93212 0.40067 0.0
H1986 H 0.16174 0.95201 0.38091 0.0
C1987 C 0.24937 0.03664 0.37105 0.0
C1988 C 0.23723 0.04408 0.36981 0.0
C1989 C 0.24261 0.01729 0.3685 0.0
C1990 C 0.22356 0.00506 0.36484 0.0
C1991 C 0.21155 0.01257 0.3631 0.0
C1992 C 0.21836 0.03195 0.36543 0.0
C1993 C 0.21592 0.9843 0.36364 0.0
C1994 C 0.20211 0.97249 0.37449 0.0
C1995 C 0.22252 0.9762 0.35228 0.0
C1996 C 0.23633 0.98788 0.33996 0.0
C1997 C 0.23279 -0.0005 0.32988 0.0
C1998 C 0.24583 0.01047 0.3183 0.0
C1999 C 0.26242 0.00984 0.31659 0.0
C2000 C 0.26597 0.99819 0.32642 0.0
C2001 C 0.25298 0.9872 0.33804 0.0
C2002 C 0.16474 0.89651 0.34726 0.0
C2003 C 0.1756 0.88771 0.34564 0.0
C2004 C 0.17241 0.91442 0.35439 0.0
C2005 C 0.19111 0.9238 0.35985 0.0
C2006 C 0.20113 0.914 0.36001 0.0
C2007 C 0.19327 0.89588 0.35318 0.0
C2008 C 0.20088 0.94459 0.3627 0.0
C2009 C 0.21505 0.95645 0.35208 0.0
C2010 C 0.19455 0.95274 0.3742 0.0
C2011 C 0.18026 0.9409 0.38611 0.0
C2012 C 0.18282 0.92816 0.39558 0.0
C2013 C 0.16927 0.91691 0.40672 0.0
C2014 C 0.15311 0.91834 0.40854 0.0
C2015 C 0.15051 0.93104 0.39925 0.0
C2016 C 0.16403 0.94233 0.3881 0.0
H2017 H 0.14263 0.90962 0.41717 0.0
H2018 H 0.27249 0.01834 0.30761 0.0
H2019 H 0.55619 0.61989 0.29623 0.0
H2020 H 0.57728 0.65393 0.30043 0.0
H2021 H 0.53045 0.65967 0.31623 0.0
H2022 H 0.50922 0.62572 0.3117 0.0
H2023 H 0.55055 0.68559 0.29395 0.0
H2024 H 0.56336 0.66328 0.3422 0.0
H2025 H 0.57208 0.64406 0.35892 0.0
H2026 H 0.62606 0.66888 0.33654 0.0
H2027 H 0.61757 0.68808 0.3195 0.0
H2028 H 0.59708 0.77313 0.33634 0.0
H2029 H 0.57815 0.74217 0.32364 0.0
H2030 H 0.62864 0.74443 0.30648 0.0
H2031 H 0.64757 0.77563 0.31907 0.0
H2032 H 0.6085 0.71474 0.32705 0.0
H2033 H 0.59561 0.73926 0.28022 0.0
H2034 H 0.5863 0.75915 0.26508 0.0
H2035 H 0.53172 0.73059 0.28655 0.0
H2036 H 0.54079 0.7107 0.30199 0.0
C2037 C 0.55042 0.62839 0.30072 0.0
C2038 C 0.53103 0.62014 0.30356 0.0
C2039 C 0.5625 0.64782 0.3032 0.0
C2040 C 0.55543 0.65935 0.3086 0.0
C2041 C 0.53619 0.65103 0.31198 0.0
C2042 C 0.52411 0.6316 0.30955 0.0
C2043 C 0.56788 0.68022 0.30995 0.0
C2044 C 0.56314 0.69198 0.30131 0.0
C2045 C 0.58457 0.68852 0.3192 0.0
C2046 C 0.58972 0.67695 0.32941 0.0
C2047 C 0.57702 0.66451 0.34072 0.0
C2048 C 0.58194 0.65364 0.35029 0.0
C2049 C 0.59959 0.6552 0.34876 0.0
C2050 C 0.61238 0.66767 0.33769 0.0
C2051 C 0.60752 0.67855 0.32807 0.0
C2052 C 0.60402 0.76762 0.32891 0.0
C2053 C 0.62371 0.77681 0.32848 0.0
C2054 C 0.59322 0.74978 0.32182 0.0
C2055 C 0.60201 0.74087 0.3143 0.0
C2056 C 0.62159 0.75103 0.31228 0.0
C2057 C 0.63238 0.76902 0.31921 0.0
C2058 C 0.59111 0.72013 0.3111 0.0
C2059 C 0.59608 0.70835 0.31948 0.0
C2060 C 0.57454 0.71182 0.30176 0.0
C2061 C 0.56892 0.72356 0.29233 0.0
C2062 C 0.58165 0.7373 0.28178 0.0
C2063 C 0.57642 0.74856 0.27313 0.0
C2064 C 0.55844 0.74615 0.27487 0.0
C2065 C 0.54564 0.73244 0.28522 0.0
C2066 C 0.55081 0.72114 0.2939 0.0
H2067 H 0.55441 0.75491 0.26817 0.0
H2068 H 0.60337 0.64678 0.35618 0.0
H2069 H 0.37845 0.93118 0.29786 0.0
H2070 H 0.34546 0.91827 0.305 0.0
H2071 H 0.34251 0.86626 0.32011 0.0
H2072 H 0.37542 0.87893 0.31266 0.0
H2073 H 0.31299 0.85985 0.30096 0.0
H2074 H 0.34343 0.89678 0.34728 0.0
H2075 H 0.36571 0.92521 0.36256 0.0
H2076 H 0.33965 0.95568 0.34419 0.0
H2077 H 0.31744 0.92756 0.32856 0.0
H2078 H 0.21941 0.83247 0.3313 0.0
H2079 H 0.25192 0.8386 0.33032 0.0
H2080 H 0.26984 0.8935 0.30987 0.0
H2081 H 0.23772 0.88753 0.31065 0.0
H2082 H 0.29138 0.89407 0.3361 0.0
H2083 H 0.26401 0.85925 0.28735 0.0
H2084 H 0.24257 0.8318 0.27071 0.0
H2085 H 0.26337 0.79821 0.29243 0.0
H2086 H 0.28461 0.82532 0.30951 0.0
C2087 C 0.37077 0.91701 0.30273 0.0
C2088 C 0.3795 0.90608 0.30475 0.0
C2089 C 0.35199 0.90971 0.30692 0.0
C2090 C 0.34164 0.89139 0.31324 0.0
C2091 C 0.35032 0.88046 0.31534 0.0
C2092 C 0.36913 0.88778 0.31119 0.0
C2093 C 0.32153 0.88348 0.31702 0.0
C2094 C 0.30821 0.86706 0.30892 0.0
C2095 C 0.31542 0.89309 0.32726 0.0
C2096 C 0.32882 0.91006 0.33666 0.0
C2097 C 0.34254 0.90958 0.34639 0.0
C2098 C 0.35515 0.92565 0.35512 0.0
C2099 C 0.35412 0.94225 0.35432 0.0
C2100 C 0.34045 0.94281 0.34479 0.0
C2101 C 0.32783 0.92681 0.336 0.0
C2102 C 0.23033 0.84584 0.32663 0.0
C2103 C 0.22605 0.85954 0.32106 0.0
C2104 C 0.24881 0.84926 0.32601 0.0
C2105 C 0.26317 0.86648 0.32001 0.0
C2106 C 0.2589 0.88014 0.31455 0.0
C2107 C 0.24053 0.87666 0.31496 0.0
C2108 C 0.2829 0.87087 0.31962 0.0
C2109 C 0.29615 0.8866 0.32842 0.0
C2110 C 0.2889 0.86071 0.30992 0.0
C2111 C 0.27565 0.84424 0.29998 0.0
C2112 C 0.26377 0.84592 0.28882 0.0
C2113 C 0.2517 0.83043 0.27925 0.0
C2114 C 0.25154 0.81325 0.28057 0.0
C2115 C 0.26344 0.8115 0.29147 0.0
C2116 C 0.27547 0.82691 0.30113 0.0
H2117 H 0.24228 0.8013 0.27312 0.0
H2118 H 0.36388 0.95466 0.36111 0.0
H2119 H 0.06463 0.4407 0.30304 0.0
H2120 H 0.08004 0.42258 0.31 0.0
H2121 H 0.13382 0.47427 0.31109 0.0
H2122 H 0.11839 0.49248 0.30416 0.0
H2123 H 0.13374 0.44755 0.29137 0.0
H2124 H 0.11804 0.45129 0.34437 0.0
H2125 H 0.09847 0.44989 0.367 0.0
H2126 H 0.0622 0.39012 0.35914 0.0
H2127 H 0.08141 0.39119 0.3363 0.0
H2128 H 0.18166 0.40324 0.32813 0.0
H2129 H 0.16942 0.42268 0.31714 0.0
H2130 H 0.11515 0.37258 0.31042 0.0
H2131 H 0.12761 0.3531 0.32096 0.0
H2132 H 0.1167 0.3996 0.33369 0.0
H2133 H 0.13396 0.39837 0.27889 0.0
H2134 H 0.15609 0.40202 0.25764 0.0
H2135 H 0.19292 0.45984 0.27185 0.0
H2136 H 0.17096 0.4566 0.29314 0.0
C2137 C 0.07968 0.44821 0.30511 0.0
C2138 C 0.09036 0.46794 0.30298 0.0
C2139 C 0.08846 0.43788 0.30914 0.0
C2140 C 0.10808 0.44708 0.31097 0.0
C2141 C 0.11866 0.46691 0.30968 0.0
C2142 C 0.10984 0.4773 0.30584 0.0
C2143 C 0.11753 0.43571 0.3126 0.0
C2144 C 0.13021 0.43726 0.30077 0.0
C2145 C 0.11278 0.42217 0.32476 0.0
C2146 C 0.10107 0.42136 0.33848 0.0
C2147 C 0.10578 0.43787 0.34735 0.0
C2148 C 0.09478 0.43713 0.36025 0.0
C2149 C 0.07907 0.41994 0.36447 0.0
C2150 C 0.07436 0.40343 0.35583 0.0
C2151 C 0.08532 0.40409 0.34292 0.0
C2152 C 0.16758 0.39623 0.32312 0.0
C2153 C 0.15555 0.37675 0.32542 0.0
C2154 C 0.16045 0.4074 0.31714 0.0
C2155 C 0.14125 0.39909 0.3134 0.0
C2156 C 0.12997 0.37926 0.31341 0.0
C2157 C 0.13724 0.3681 0.31908 0.0
C2158 C 0.1325 0.41115 0.31223 0.0
C2159 C 0.12008 0.40982 0.32426 0.0
C2160 C 0.1378 0.42518 0.30049 0.0
C2161 C 0.15089 0.42721 0.28763 0.0
C2162 C 0.14682 0.41183 0.27752 0.0
C2163 C 0.15931 0.41382 0.26547 0.0
C2164 C 0.17593 0.43108 0.26346 0.0
C2165 C 0.18004 0.44646 0.27343 0.0
C2166 C 0.16755 0.44459 0.28544 0.0
H2167 H 0.1856 0.43256 0.25414 0.0
H2168 H 0.07057 0.41939 0.37446 0.0
H2169 H 0.36854 0.48157 0.28277 0.0
H2170 H 0.33665 0.46307 0.29341 0.0
H2171 H 0.35669 0.43842 0.32818 0.0
H2172 H 0.38875 0.45718 0.31758 0.0
H2173 H 0.32517 0.41191 0.31018 0.0
H2174 H 0.34431 0.46899 0.34075 0.0
H2175 H 0.35797 0.50358 0.34384 0.0
H2176 H 0.31488 0.50174 0.31357 0.0
H2177 H 0.30108 0.46715 0.31015 0.0
H2178 H 0.23841 0.35772 0.34574 0.0
H2179 H 0.27153 0.38254 0.3441 0.0
H2180 H 0.25634 0.41433 0.31241 0.0
H2181 H 0.22306 0.38969 0.31452 0.0
H2182 H 0.28618 0.43812 0.33075 0.0
H2183 H 0.26861 0.38408 0.2976 0.0
H2184 H 0.25483 0.35008 0.29118 0.0
H2185 H 0.29476 0.34678 0.32213 0.0
H2186 H 0.30858 0.38072 0.32896 0.0
C2187 C 0.3661 0.4724 0.29284 0.0
C2188 C 0.38089 0.47074 0.29948 0.0
C2189 C 0.34798 0.46192 0.29893 0.0
C2190 C 0.34439 0.44953 0.31166 0.0
C2191 C 0.35925 0.44801 0.31841 0.0
C2192 C 0.37747 0.4587 0.31243 0.0
C2193 C 0.32486 0.43723 0.31711 0.0
C2194 C 0.31676 0.41758 0.31504 0.0
C2195 C 0.31374 0.44478 0.32277 0.0
C2196 C 0.32171 0.46549 0.32514 0.0
C2197 C 0.33779 0.47597 0.3347 0.0
C2198 C 0.34555 0.49558 0.33652 0.0
C2199 C 0.33731 0.50485 0.32889 0.0
C2200 C 0.32124 0.49453 0.31948 0.0
C2201 C 0.31342 0.47492 0.31763 0.0
C2202 C 0.24217 0.37032 0.33885 0.0
C2203 C 0.22842 0.37198 0.33026 0.0
C2204 C 0.26103 0.38442 0.33785 0.0
C2205 C 0.26643 0.40008 0.32787 0.0
C2206 C 0.25248 0.40236 0.32015 0.0
C2207 C 0.23354 0.38833 0.32133 0.0
C2208 C 0.28656 0.41272 0.32405 0.0
C2209 C 0.29469 0.43241 0.32621 0.0
C2210 C 0.29767 0.40527 0.31809 0.0
C2211 C 0.28949 0.38488 0.31394 0.0
C2212 C 0.27436 0.37607 0.30314 0.0
C2213 C 0.26654 0.35681 0.29941 0.0
C2214 C 0.27387 0.34626 0.30628 0.0
C2215 C 0.28907 0.35496 0.31685 0.0
C2216 C 0.2969 0.37421 0.32066 0.0
H2217 H 0.26781 0.33136 0.30337 0.0
H2218 H 0.34337 0.52004 0.33028 0.0
H2219 H 0.55054 0.93518 0.31147 0.0
H2220 H 0.56827 0.92057 0.32182 0.0
H2221 H 0.52709 0.86673 0.30139 0.0
H2222 H 0.50898 0.88122 0.29173 0.0
H2223 H 0.53837 0.8606 0.32845 0.0
H2224 H 0.56852 0.89666 0.28252 0.0
H2225 H 0.58315 0.92461 0.26511 0.0
H2226 H 0.62655 0.95498 0.29988 0.0
H2227 H 0.61198 0.92733 0.31765 0.0
H2228 H 0.6066 0.82806 0.32083 0.0
H2229 H 0.58103 0.83542 0.31867 0.0
H2230 H 0.61467 0.8875 0.34487 0.0
H2231 H 0.64019 0.88038 0.34669 0.0
H2232 H 0.60589 0.89251 0.31426 0.0
H2233 H 0.57393 0.85335 0.35982 0.0
H2234 H 0.55893 0.82335 0.37471 0.0
H2235 H 0.51881 0.79618 0.33693 0.0
H2236 H 0.53374 0.82597 0.32172 0.0
C2237 C 0.54524 0.92018 0.30946 0.0
C2238 C 0.52859 0.90922 0.30085 0.0
C2239 C 0.55535 0.91187 0.31526 0.0
C2240 C 0.54918 0.89264 0.31209 0.0
C2241 C 0.53211 0.88156 0.30395 0.0
C2242 C 0.52185 0.88981 0.2984 0.0
C2243 C 0.56104 0.88439 0.31649 0.0
C2244 C 0.55311 0.8675 0.32526 0.0
C2245 C 0.58022 0.89329 0.31218 0.0
C2246 C 0.58902 0.90997 0.3015 0.0
C2247 C 0.58109 0.90935 0.28652 0.0
C2248 C 0.58938 0.92514 0.27658 0.0
C2249 C 0.60573 0.94158 0.28141 0.0
C2250 C 0.61385 0.94225 0.29618 0.0
C2251 C 0.60558 0.92652 0.30619 0.0
C2252 C 0.6081 0.84064 0.32667 0.0
C2253 C 0.6252 0.85374 0.33388 0.0
C2254 C 0.59357 0.84485 0.32542 0.0
C2255 C 0.59609 0.86207 0.33152 0.0
C2256 C 0.61253 0.87419 0.34005 0.0
C2257 C 0.62703 0.8701 0.34114 0.0
C2258 C 0.58343 0.86918 0.32674 0.0
C2259 C 0.59119 0.88574 0.31761 0.0
C2260 C 0.56408 0.85969 0.33037 0.0
C2261 C 0.55506 0.84184 0.33957 0.0
C2262 C 0.56201 0.84094 0.35463 0.0
C2263 C 0.5535 0.82398 0.36314 0.0
C2264 C 0.53796 0.80786 0.35675 0.0
C2265 C 0.53086 0.80868 0.34186 0.0
C2266 C 0.53933 0.8256 0.3333 0.0
H2267 H 0.53139 0.79474 0.36336 0.0
H2268 H 0.61214 0.95378 0.27368 0.0
H2269 H 0.11386 0.62251 0.32078 0.0
H2270 H 0.12664 0.65637 0.32573 0.0
H2271 H 0.08177 0.65509 0.2981 0.0
H2272 H 0.06801 0.62096 0.29397 0.0
H2273 H 0.12452 0.68208 0.2891 0.0
H2274 H 0.07732 0.66405 0.32939 0.0
H2275 H 0.05967 0.64607 0.35286 0.0
H2276 H 0.11055 0.6718 0.3806 0.0
H2277 H 0.12859 0.68972 0.3572 0.0
H2278 H 0.13949 0.77704 0.31113 0.0
H2279 H 0.12794 0.7445 0.30154 0.0
H2280 H 0.16843 0.74036 0.33141 0.0
H2281 H 0.18029 0.77289 0.34058 0.0
H2282 H 0.12637 0.7159 0.33878 0.0
H2283 H 0.17381 0.73114 0.29962 0.0
H2284 H 0.19344 0.74575 0.27609 0.0
H2285 H 0.14389 0.72437 0.24687 0.0
H2286 H 0.12395 0.70958 0.27029 0.0
C2287 C 0.10628 0.62918 0.31617 0.0
C2288 C 0.09 0.61891 0.30674 0.0
C2289 C 0.11373 0.64861 0.31892 0.0
C2290 C 0.10521 0.65815 0.31214 0.0
C2291 C 0.08859 0.64792 0.30332 0.0
C2292 C 0.08087 0.62843 0.30087 0.0
C2293 C 0.11462 0.67906 0.31311 0.0
C2294 C 0.12463 0.68954 0.29985 0.0
C2295 C 0.11516 0.68859 0.32731 0.0
C2296 C 0.10435 0.67805 0.34148 0.0
C2297 C 0.08479 0.66573 0.34045 0.0
C2298 C 0.0747 0.65558 0.35375 0.0
C2299 C 0.08399 0.65774 0.3682 0.0
C2300 C 0.10338 0.67012 0.36939 0.0
C2301 C 0.11354 0.68029 0.35611 0.0
C2302 C 0.14687 0.76971 0.31468 0.0
C2303 C 0.1608 0.77746 0.32657 0.0
C2304 C 0.14 0.75097 0.30946 0.0
C2305 C 0.14709 0.73996 0.31607 0.0
C2306 C 0.16272 0.74861 0.32624 0.0
C2307 C 0.16973 0.76734 0.33124 0.0
C2308 C 0.13631 0.719 0.3147 0.0
C2309 C 0.12605 0.70849 0.32794 0.0
C2310 C 0.13565 0.7094 0.30053 0.0
C2311 C 0.1474 0.71949 0.28671 0.0
C2312 C 0.16709 0.72982 0.28822 0.0
C2313 C 0.17828 0.73797 0.27489 0.0
C2314 C 0.16992 0.7359 0.25998 0.0
C2315 C 0.15035 0.72587 0.25842 0.0
C2316 C 0.13909 0.71758 0.27171 0.0
H2317 H 0.17861 0.74218 0.24965 0.0
H2318 H 0.07616 0.64987 0.37848 0.0
H2319 H 0.78224 0.04375 0.37154 0.0
H2320 H 0.76172 0.00951 0.36744 0.0
H2321 H 0.81048 0.00349 0.36016 0.0
H2322 H 0.83092 0.03769 0.36375 0.0
H2323 H 0.78305 0.98171 0.33998 0.0
H2324 H 0.78607 0.99486 0.39759 0.0
H2325 H 0.78091 0.01063 0.42055 0.0
H2326 H 0.72257 0.98575 0.40779 0.0
H2327 H 0.72743 0.96999 0.38471 0.0
H2328 H 0.73498 0.88474 0.33812 0.0
H2329 H 0.75841 0.91524 0.34956 0.0
H2330 H 0.71362 0.92231 0.36889 0.0
H2331 H 0.69073 0.89103 0.3592 0.0
H2332 H 0.74036 0.94428 0.3836 0.0
H2333 H 0.73363 0.93425 0.32686 0.0
H2334 H 0.73497 0.92124 0.3007 0.0
H2335 H 0.79405 0.94221 0.30722 0.0
H2336 H 0.793 0.95514 0.33349 0.0
C2337 C 0.78851 0.03509 0.36888 0.0
C2338 C 0.80814 0.04331 0.36801 0.0
C2339 C 0.77681 0.01555 0.36665 0.0
C2340 C 0.7846 0.00385 0.36393 0.0
C2341 C 0.80416 0.0122 0.36236 0.0
C2342 C 0.81582 0.03175 0.36434 0.0
C2343 C 0.77259 0.98289 0.36305 0.0
C2344 C 0.77385 0.97345 0.34958 0.0
C2345 C 0.76002 0.9722 0.37529 0.0
C2346 C 0.75713 0.9813 0.38943 0.0
C2347 C 0.77216 0.99278 0.3997 0.0
C2348 C 0.76929 0.00172 0.41272 0.0
C2349 C 0.75143 -0.0008 0.41562 0.0
C2350 C 0.73639 0.98768 0.40554 0.0
C2351 C 0.73919 0.97872 0.39251 0.0
C2352 C 0.73034 0.89219 0.34592 0.0
C2353 C 0.7111 0.88576 0.34761 0.0
C2354 C 0.74369 0.90997 0.35199 0.0
C2355 C 0.7378 0.92181 0.35908 0.0
C2356 C 0.71872 0.91385 0.36313 0.0
C2357 C 0.70553 0.89571 0.35777 0.0
C2358 C 0.75061 0.94279 0.36039 0.0
C2359 C 0.74956 0.95235 0.37395 0.0
C2360 C 0.76268 0.9537 0.34783 0.0
C2361 C 0.76317 0.9454 0.33224 0.0
C2362 C 0.74686 0.93592 0.32278 0.0
C2363 C 0.74758 0.92859 0.30792 0.0
C2364 C 0.76457 0.93083 0.30233 0.0
C2365 C 0.78088 0.94042 0.31158 0.0
C2366 C 0.78023 0.94773 0.32646 0.0
H2367 H 0.76511 0.9252 0.29081 0.0
H2368 H 0.74925 0.00616 0.42569 0.0
H2369 H 0.95502 0.73225 0.37391 0.0
H2370 H 0.9872 0.74612 0.36411 0.0
H2371 H 0.99133 0.80105 0.3617 0.0
H2372 H 0.95889 0.78708 0.37115 0.0
H2373 H 0.01029 0.79573 0.33731 0.0
H2374 H 0.00735 0.78985 0.39388 0.0
H2375 H 0.9961 0.77353 0.41948 0.0
H2376 H 0.01505 0.73469 0.40694 0.0
H2377 H 0.0261 0.75054 0.38114 0.0
H2378 H 0.11328 0.83738 0.34117 0.0
H2379 H 0.08064 0.83072 0.34376 0.0
H2380 H 0.06189 0.77117 0.34942 0.0
H2381 H 0.09418 0.77783 0.34746 0.0
H2382 H 0.05168 0.78499 0.37364 0.0
H2383 H 0.05268 0.78987 0.31596 0.0
H2384 H 0.06342 0.80627 0.29033 0.0
H2385 H 0.04872 0.8477 0.30518 0.0
H2386 H 0.03818 0.83173 0.331 0.0
C2387 C 0.96272 0.74722 0.37104 0.0
C2388 C 0.95466 0.75868 0.37344 0.0
C2389 C 0.98105 0.75512 0.36547 0.0
C2390 C 0.99174 0.77469 0.36255 0.0
C2391 C 0.98332 0.78595 0.36396 0.0
C2392 C 0.96484 0.77797 0.36935 0.0
C2393 C 0.01209 0.78345 0.35939 0.0
C2394 C 0.01946 0.79361 0.3453 0.0
C2395 C 0.02401 0.78082 0.36994 0.0
C2396 C 0.01743 0.77132 0.38552 0.0
C2397 C 0.00899 0.77774 0.39653 0.0
C2398 C 0.00266 0.76858 0.41108 0.0
C2399 C 0.00483 0.75307 0.41482 0.0
C2400 C 0.01336 0.7467 0.40402 0.0
C2401 C 0.01967 0.75577 0.38944 0.0
C2402 C 0.10206 0.82287 0.34272 0.0
C2403 C 0.10613 0.80812 0.3444 0.0
C2404 C 0.08349 0.81908 0.34412 0.0
C2405 C 0.06889 0.80046 0.34688 0.0
C2406 C 0.07297 0.78566 0.34747 0.0
C2407 C 0.0914 0.78947 0.34639 0.0
C2408 C 0.0497 0.7962 0.35104 0.0
C2409 C 0.0426 0.78721 0.3656 0.0
C2410 C 0.03819 0.79999 0.34093 0.0
C2411 C 0.04491 0.80976 0.32552 0.0
C2412 C 0.05198 0.80263 0.31385 0.0
C2413 C 0.05797 0.81181 0.29926 0.0
C2414 C 0.05682 0.82806 0.29616 0.0
C2415 C 0.04966 0.83515 0.30762 0.0
C2416 C 0.04368 0.82604 0.32223 0.0
H2417 H 0.06143 0.83512 0.28484 0.0
H2418 H -7e-05 0.746 0.4261 0.0
H2419 H 0.26536 0.2194 0.36492 0.0
H2420 H 0.25126 0.23867 0.35722 0.0
H2421 H 0.19716 0.19427 0.37327 0.0
H2422 H 0.21107 0.1747 0.38002 0.0
H2423 H 0.19307 0.21157 0.34813 0.0
H2424 H 0.23164 0.23424 0.39814 0.0
H2425 H 0.26262 0.24751 0.41141 0.0
H2426 H 0.2861 0.2938 0.37852 0.0
H2427 H 0.25533 0.28073 0.36503 0.0
H2428 H 0.15023 0.26603 0.34824 0.0
H2429 H 0.16015 0.24509 0.36026 0.0
H2430 H 0.21728 0.29222 0.36222 0.0
H2431 H 0.20652 0.31323 0.35346 0.0
H2432 H 0.21963 0.27186 0.37855 0.0
H2433 H 0.18842 0.25363 0.3264 0.0
H2434 H 0.162 0.2419 0.30727 0.0
H2435 H 0.13049 0.19166 0.33507 0.0
H2436 H 0.15666 0.20314 0.35438 0.0
C2437 C 0.25038 0.21367 0.36635 0.0
C2438 C 0.23922 0.19571 0.37306 0.0
C2439 C 0.24236 0.22468 0.36211 0.0
C2440 C 0.22325 0.21814 0.36515 0.0
C2441 C 0.21194 0.19967 0.37091 0.0
C2442 C 0.21985 0.18851 0.37478 0.0
C2443 C 0.21522 0.23086 0.36376 0.0
C2444 C 0.19883 0.22484 0.35471 0.0
C2445 C 0.22305 0.2484 0.37196 0.0
C2446 C 0.24123 0.25652 0.38061 0.0
C2447 C 0.24341 0.24728 0.3938 0.0
C2448 C 0.26094 0.25475 0.40133 0.0
C2449 C 0.27631 0.27149 0.39582 0.0
C2450 C 0.27418 0.28085 0.3828 0.0
C2451 C 0.25671 0.27345 0.37524 0.0
C2452 C 0.16456 0.27203 0.35253 0.0
C2453 C 0.17771 0.29114 0.34977 0.0
C2454 C 0.17049 0.2599 0.35871 0.0
C2455 C 0.18983 0.26649 0.36093 0.0
C2456 C 0.20231 0.28623 0.36042 0.0
C2457 C 0.19609 0.29849 0.35552 0.0
C2458 C 0.19755 0.25325 0.36222 0.0
C2459 C 0.21382 0.25893 0.37154 0.0
C2460 C 0.19024 0.23599 0.35337 0.0
C2461 C 0.17438 0.22937 0.34193 0.0
C2462 C 0.1758 0.24015 0.32847 0.0
C2463 C 0.16088 0.23353 0.31759 0.0
C2464 C 0.14455 0.21608 0.31999 0.0
C2465 C 0.14311 0.20519 0.33325 0.0
C2466 C 0.15797 0.21174 0.34416 0.0
H2467 H 0.13304 0.21097 0.31154 0.0
H2468 H 0.28987 0.2772 0.40163 0.0
H2469 H 0.62659 0.55484 0.70977 0.0
H2470 H 0.65863 0.57336 0.7002 0.0
H2471 H 0.65823 0.52189 0.68689 0.0
H2472 H 0.62621 0.5031 0.69725 0.0
H2473 H 0.68916 0.54481 0.70341 0.0
H2474 H 0.65876 0.55294 0.65831 0.0
H2475 H 0.63649 0.55965 0.64399 0.0
H2476 H 0.66369 0.61606 0.66359 0.0
H2477 H 0.68593 0.60962 0.67821 0.0
H2478 H 0.78299 0.6141 0.67371 0.0
H2479 H 0.75066 0.58715 0.67417 0.0
H2480 H 0.7326 0.6218 0.69871 0.0
H2481 H 0.7647 0.64858 0.69855 0.0
H2482 H 0.71151 0.60235 0.67036 0.0
H2483 H 0.73725 0.59236 0.7189 0.0
H2484 H 0.75847 0.58583 0.73501 0.0
H2485 H 0.73945 0.53319 0.71001 0.0
H2486 H 0.71837 0.5396 0.69349 0.0
C2487 C 0.63324 0.54743 0.70473 0.0
C2488 C 0.62393 0.5275 0.70441 0.0
C2489 C 0.65151 0.55805 0.69906 0.0
C2490 C 0.66078 0.54904 0.69263 0.0
C2491 C 0.6513 0.52914 0.69174 0.0
C2492 C 0.63297 0.51844 0.69753 0.0
C2493 C 0.68085 0.5606 0.68815 0.0
C2494 C 0.69405 0.5571 0.6958 0.0
C2495 C 0.68724 0.57676 0.67838 0.0
C2496 C 0.67402 0.58077 0.66939 0.0
C2497 C 0.65995 0.56675 0.65962 0.0
C2498 C 0.64733 0.57051 0.65144 0.0
C2499 C 0.64868 0.58827 0.65288 0.0
C2500 C 0.66267 0.60232 0.66246 0.0
C2501 C 0.67532 0.59863 0.67067 0.0
C2502 C 0.77211 0.61594 0.67922 0.0
C2503 C 0.77635 0.63349 0.68603 0.0
C2504 C 0.75372 0.60053 0.67953 0.0
C2505 C 0.73934 0.60258 0.68644 0.0
C2506 C 0.74357 0.62002 0.6933 0.0
C2507 C 0.76191 0.63528 0.69323 0.0
C2508 C 0.71962 0.58696 0.68617 0.0
C2509 C 0.70656 0.58971 0.67754 0.0
C2510 C 0.71341 0.57022 0.6951 0.0
C2511 C 0.7265 0.56665 0.70472 0.0
C2512 C 0.73783 0.57956 0.71662 0.0
C2513 C 0.74977 0.57584 0.72588 0.0
C2514 C 0.75039 0.55916 0.72347 0.0
C2515 C 0.73903 0.54615 0.71181 0.0
C2516 C 0.7271 0.54983 0.70248 0.0
H2517 H 0.75959 0.55627 0.7307 0.0
H2518 H 0.63888 0.59114 0.64655 0.0
H2519 H 0.4489 0.06694 0.70281 0.0
H2520 H 0.42885 0.07997 0.69444 0.0
H2521 H 0.47774 0.13593 0.69235 0.0
H2522 H 0.49772 0.12297 0.70036 0.0
H2523 H 0.44719 0.13354 0.70991 0.0
H2524 H 0.46084 0.11545 0.65935 0.0
H2525 H 0.46173 0.09349 0.6396 0.0
H2526 H 0.40164 0.0586 0.6417 0.0
H2527 H 0.40042 0.08024 0.66166 0.0
H2528 H 0.40337 0.18259 0.68066 0.0
H2529 H 0.42656 0.17185 0.68131 0.0
H2530 H 0.38237 0.11469 0.67055 0.0
H2531 H 0.35995 0.12577 0.66846 0.0
H2532 H 0.41151 0.11778 0.65917 0.0
H2533 H 0.39836 0.13739 0.71024 0.0
H2534 H 0.39873 0.16177 0.72798 0.0
H2535 H 0.45899 0.19413 0.72545 0.0
H2536 H 0.45893 0.17037 0.70719 0.0
C2537 C 0.45527 0.08198 0.70045 0.0
C2538 C 0.47479 0.09399 0.70209 0.0
C2539 C 0.44388 0.08937 0.69565 0.0
C2540 C 0.4519 0.10888 0.69274 0.0
C2541 C 0.47136 0.12084 0.69449 0.0
C2542 C 0.48273 0.11343 0.69899 0.0
C2543 C 0.44009 0.11715 0.68832 0.0
C2544 C 0.43943 0.13021 0.69878 0.0
C2545 C 0.42985 0.11254 0.67392 0.0
C2546 C 0.43057 0.09933 0.66215 0.0
C2547 C 0.44784 0.10297 0.65575 0.0
C2548 C 0.4484 0.09061 0.64448 0.0
C2549 C 0.43176 0.07463 0.63943 0.0
C2550 C 0.41452 0.07097 0.64564 0.0
C2551 C 0.41389 0.08328 0.65693 0.0
C2552 C 0.39897 0.16799 0.67764 0.0
C2553 C 0.38003 0.15499 0.67435 0.0
C2554 C 0.41208 0.16173 0.67833 0.0
C2555 C 0.40611 0.14226 0.6766 0.0
C2556 C 0.38743 0.12972 0.67206 0.0
C2557 C 0.37459 0.13607 0.6708 0.0
C2558 C 0.41848 0.13436 0.68078 0.0
C2559 C 0.41915 0.12115 0.67035 0.0
C2560 C 0.42868 0.13877 0.69531 0.0
C2561 C 0.42861 0.15229 0.70712 0.0
C2562 C 0.41167 0.14973 0.71344 0.0
C2563 C 0.41183 0.16349 0.72353 0.0
C2564 C 0.42889 0.17955 0.72773 0.0
C2565 C 0.4458 0.18175 0.72207 0.0
C2566 C 0.4457 0.1682 0.7118 0.0
H2567 H 0.42908 0.19037 0.7353 0.0
H2568 H 0.43222 0.0651 0.63068 0.0
H2569 H 0.92576 0.38559 0.68641 0.0
H2570 H 0.91344 0.3518 0.68019 0.0
H2571 H 0.86475 0.33707 0.70904 0.0
H2572 H 0.87723 0.37073 0.71541 0.0
H2573 H 0.88378 0.31794 0.71662 0.0
H2574 H 0.86148 0.33434 0.66882 0.0
H2575 H 0.86729 0.35397 0.64498 0.0
H2576 H 0.9051 0.33626 0.62732 0.0
H2577 H 0.89977 0.31678 0.65116 0.0
H2578 H 0.83025 0.2182 0.68421 0.0
H2579 H 0.83874 0.24985 0.69492 0.0
H2580 H 0.89458 0.27266 0.67598 0.0
H2581 H 0.88657 0.24141 0.66605 0.0
H2582 H 0.86961 0.28722 0.66358 0.0
H2583 H 0.89552 0.27324 0.7079 0.0
H2584 H 0.90044 0.26055 0.73266 0.0
H2585 H 0.86867 0.28088 0.75796 0.0
H2586 H 0.86133 0.29129 0.73307 0.0
C2587 C 0.91231 0.37506 0.69116 0.0
C2588 C 0.90232 0.38046 0.70131 0.0
C2589 C 0.90527 0.35587 0.6876 0.0
C2590 C 0.88811 0.34202 0.69406 0.0
C2591 C 0.87797 0.34758 0.70391 0.0
C2592 C 0.88504 0.36669 0.70752 0.0
C2593 C 0.88145 0.32163 0.69169 0.0
C2594 C 0.88009 0.31093 0.70511 0.0
C2595 C 0.87782 0.31311 0.6765 0.0
C2596 C 0.88027 0.32414 0.66182 0.0
C2597 C 0.87106 0.33466 0.65987 0.0
C2598 C 0.87428 0.34578 0.64636 0.0
C2599 C 0.88657 0.34638 0.63465 0.0
C2600 C 0.89558 0.33578 0.63639 0.0
C2601 C 0.89244 0.32467 0.64988 0.0
C2602 C 0.84456 0.2298 0.68313 0.0
C2603 C 0.85776 0.22749 0.67431 0.0
C2604 C 0.84935 0.24785 0.68906 0.0
C2605 C 0.86723 0.26352 0.68605 0.0
C2606 C 0.88074 0.26074 0.67839 0.0
C2607 C 0.87615 0.24286 0.67283 0.0
C2608 C 0.87139 0.28319 0.68869 0.0
C2609 C 0.87252 0.29388 0.67523 0.0
C2610 C 0.87562 0.29192 0.70383 0.0
C2611 C 0.87729 0.28253 0.71834 0.0
C2612 C 0.88854 0.27395 0.7185 0.0
C2613 C 0.89178 0.26712 0.73265 0.0
C2614 C 0.88451 0.26947 0.74688 0.0
C2615 C 0.87376 0.2784 0.74692 0.0
C2616 C 0.86977 0.28447 0.73273 0.0
H2617 H 0.88747 0.26464 0.7579 0.0
H2618 H 0.8891 0.35505 0.62423 0.0
H2619 H 0.19559 0.96224 0.61026 0.0
H2620 H 0.21571 0.99601 0.61577 0.0
H2621 H 0.22165 0.98353 0.66448 0.0
H2622 H 0.20133 0.94946 0.659 0.0
H2623 H 0.21309 0.01155 0.66188 0.0
H2624 H 0.25757 0.99681 0.63822 0.0
H2625 H 0.26961 0.98426 0.61749 0.0
H2626 H 0.26857 0.02316 0.58378 0.0
H2627 H 0.25628 0.03577 0.60425 0.0
H2628 H 0.2864 0.09877 0.68778 0.0
H2629 H 0.26248 0.06754 0.68016 0.0
H2630 H 0.2733 0.083 0.63064 0.0
H2631 H 0.30039 0.11367 0.63869 0.0
H2632 H 0.2713 0.05301 0.63211 0.0
H2633 H 0.22711 0.06865 0.65678 0.0
H2634 H 0.21557 0.08082 0.67827 0.0
H2635 H 0.21563 0.04003 0.71041 0.0
H2636 H 0.22727 0.02772 0.6892 0.0
C2637 C 0.20139 0.96665 0.6221 0.0
C2638 C 0.19706 0.95324 0.63419 0.0
C2639 C 0.21289 0.98595 0.62522 0.0
C2640 C 0.22038 0.99223 0.64045 0.0
C2641 C 0.21602 0.97891 0.65261 0.0
C2642 C 0.20441 0.95952 0.6495 0.0
C2643 C 0.23203 0.01279 0.64381 0.0
C2644 C 0.22591 0.02071 0.65548 0.0
C2645 C 0.24837 0.02469 0.63504 0.0
C2646 C 0.25581 0.0171 0.62274 0.0
C2647 C 0.25975 0.00258 0.62635 0.0
C2648 C 0.26666 0.99547 0.61465 0.0
C2649 C 0.2698 0.00287 0.59931 0.0
C2650 C 0.2661 0.01742 0.59565 0.0
C2651 C 0.25918 0.02456 0.60731 0.0
C2652 C 0.2833 0.09573 0.67522 0.0
C2653 C 0.29528 0.10852 0.66381 0.0
C2654 C 0.2692 0.07774 0.67081 0.0
C2655 C 0.26533 0.07261 0.65473 0.0
C2656 C 0.27594 0.08639 0.64317 0.0
C2657 C 0.29118 0.10409 0.64768 0.0
C2658 C 0.2524 0.05229 0.65025 0.0
C2659 C 0.25828 0.04422 0.63836 0.0
C2660 C 0.2357 0.04023 0.65879 0.0
C2661 C 0.22806 0.04728 0.67136 0.0
C2662 C 0.22463 0.06227 0.66842 0.0
C2663 C 0.21809 0.0692 0.68057 0.0
C2664 C 0.21487 0.0612 0.69569 0.0
C2665 C 0.21808 0.04619 0.69869 0.0
C2666 C 0.22458 0.03918 0.68659 0.0
H2667 H 0.20988 0.06664 0.70509 0.0
H2668 H 0.27514 0.99735 0.59027 0.0
H2669 H 0.04218 0.21224 0.64654 0.0
H2670 H 0.00932 0.19971 0.65382 0.0
H2671 H 0.01191 0.25102 0.63714 0.0
H2672 H 0.045 0.26383 0.63009 0.0
H2673 H 0.99277 0.2392 0.66496 0.0
H2674 H 0.99217 0.21318 0.61419 0.0
H2675 H 7e-05 0.19659 0.59375 0.0
H2676 H 0.97447 0.14582 0.62162 0.0
H2677 H 0.96663 0.16221 0.64236 0.0
H2678 H 0.90016 0.20992 0.64101 0.0
H2679 H 0.93321 0.21888 0.64121 0.0
H2680 H 0.92082 0.17119 0.6711 0.0
H2681 H 0.88732 0.16225 0.67132 0.0
H2682 H 0.94454 0.17869 0.64012 0.0
H2683 H 0.94179 0.20737 0.68969 0.0
H2684 H 0.9323 0.22609 0.70638 0.0
H2685 H 0.96296 0.27442 0.67636 0.0
H2686 H 0.97246 0.25593 0.65938 0.0
C2687 C 0.03585 0.22099 0.64465 0.0
C2688 C 0.04616 0.23902 0.63774 0.0
C2689 C 0.01704 0.21375 0.6487 0.0
C2690 C 0.00816 0.22438 0.6459 0.0
C2691 C 0.01853 0.24259 0.63939 0.0
C2692 C 0.03735 0.24983 0.63526 0.0
C2693 C 0.98789 0.21619 0.64924 0.0
C2694 C 0.98224 0.22596 0.65955 0.0
C2695 C 0.97416 0.19886 0.64224 0.0
C2696 C 0.97906 0.189 0.62993 0.0
C2697 C 0.98842 0.19854 0.61605 0.0
C2698 C 0.99284 0.18916 0.60439 0.0
C2699 C 0.98784 0.17018 0.60641 0.0
C2700 C 0.97838 0.16053 0.62009 0.0
C2701 C 0.97394 0.16986 0.6318 0.0
C2702 C 0.90437 0.20122 0.64757 0.0
C2703 C 0.89117 0.18531 0.65608 0.0
C2704 C 0.92328 0.20645 0.64775 0.0
C2705 C 0.92937 0.19576 0.65623 0.0
C2706 C 0.91628 0.17963 0.66456 0.0
C2707 C 0.89725 0.17457 0.66467 0.0
C2708 C 0.94951 0.20162 0.65588 0.0
C2709 C 0.95515 0.19157 0.64595 0.0
C2710 C 0.96317 0.21895 0.66286 0.0
C2711 C 0.95776 0.23022 0.67322 0.0
C2712 C 0.94642 0.22196 0.6866 0.0
C2713 C 0.94106 0.23254 0.69612 0.0
C2714 C 0.947 0.25142 0.69242 0.0
C2715 C 0.95838 0.2598 0.67922 0.0
C2716 C 0.96379 0.24928 0.66966 0.0
H2717 H 0.94281 0.25958 0.6998 0.0
H2718 H 0.99124 0.16293 0.59735 0.0
H2719 H 0.73195 0.7755 0.64011 0.0
H2720 H 0.74677 0.75663 0.64693 0.0
H2721 H 0.8014 0.80504 0.63787 0.0
H2722 H 0.78663 0.82408 0.63151 0.0
H2723 H 0.79194 0.77031 0.62013 0.0
H2724 H 0.79407 0.79284 0.67327 0.0
H2725 H 0.78134 0.79897 0.69761 0.0
H2726 H 0.74332 0.73921 0.70289 0.0
H2727 H 0.75567 0.73273 0.67844 0.0
H2728 H 0.8501 0.73891 0.66345 0.0
H2729 H 0.83606 0.75615 0.65106 0.0
H2730 H 0.78263 0.70434 0.64832 0.0
H2731 H 0.79687 0.68695 0.65997 0.0
H2732 H 0.79069 0.73981 0.6713 0.0
H2733 H 0.78779 0.71706 0.61819 0.0
H2734 H 0.8001 0.71061 0.59374 0.0
H2735 H 0.83881 0.77021 0.58839 0.0
H2736 H 0.82692 0.77698 0.61298 0.0
C2737 C 0.74715 0.78219 0.64 0.0
C2738 C 0.75821 0.8012 0.63537 0.0
C2739 C 0.75558 0.77143 0.64384 0.0
C2740 C 0.77516 0.77942 0.64277 0.0
C2741 C 0.78627 0.79862 0.63872 0.0
C2742 C 0.77786 0.8095 0.63522 0.0
C2743 C 0.78384 0.76736 0.64471 0.0
C2744 C 0.79188 0.76382 0.63137 0.0
C2745 C 0.78324 0.75848 0.65926 0.0
C2746 C 0.77564 0.76232 0.6739 0.0
C2747 C 0.78285 0.78102 0.67951 0.0
C2748 C 0.77574 0.78455 0.69336 0.0
C2749 C 0.76148 0.76949 0.70176 0.0
C2750 C 0.75434 0.75086 0.69635 0.0
C2751 C 0.7614 0.74725 0.68251 0.0
C2752 C 0.83575 0.73098 0.65909 0.0
C2753 C 0.82465 0.71157 0.66242 0.0
C2754 C 0.82764 0.74088 0.65226 0.0
C2755 C 0.80827 0.73153 0.64896 0.0
C2756 C 0.79762 0.71178 0.6507 0.0
C2757 C 0.80586 0.7018 0.65711 0.0
C2758 C 0.79879 0.7428 0.64673 0.0
C2759 C 0.79067 0.74625 0.66005 0.0
C2760 C 0.79921 0.75149 0.63216 0.0
C2761 C 0.80667 0.74749 0.61757 0.0
C2762 C 0.79913 0.72876 0.61194 0.0
C2763 C 0.80596 0.72505 0.59801 0.0
C2764 C 0.82027 0.73998 0.58954 0.0
C2765 C 0.82775 0.75865 0.59498 0.0
C2766 C 0.82097 0.76243 0.60891 0.0
H2767 H 0.82551 0.73708 0.57874 0.0
H2768 H 0.75601 0.77226 0.71248 0.0
H2769 H 0.04364 0.77518 0.6269 0.0
H2770 H 0.01144 0.75772 0.63664 0.0
H2771 H 0.01533 0.81007 0.6523 0.0
H2772 H 0.04752 0.82783 0.64214 0.0
H2773 H 0.99445 0.77539 0.67354 0.0
H2774 H 0.99668 0.79779 0.62031 0.0
H2775 H 0.00691 0.80315 0.59242 0.0
H2776 H 0.9815 0.74304 0.58486 0.0
H2777 H 0.97149 0.73733 0.61281 0.0
H2778 H 0.89081 0.72108 0.67247 0.0
H2779 H 0.92365 0.74705 0.67104 0.0
H2780 H 0.9377 0.71105 0.64358 0.0
H2781 H 0.90535 0.68545 0.64474 0.0
H2782 H 0.9488 0.74441 0.62937 0.0
H2783 H 0.94998 0.72156 0.68226 0.0
H2784 H 0.94133 0.71494 0.71045 0.0
H2785 H 0.96066 0.77396 0.71893 0.0
H2786 H 0.9691 0.78089 0.6907 0.0
C2787 C 0.03773 0.78301 0.63251 0.0
C2788 C 0.04801 0.80292 0.63346 0.0
C2789 C 0.0194 0.773 0.63819 0.0
C2790 C 0.01103 0.78268 0.64501 0.0
C2791 C 0.02163 0.80241 0.64707 0.0
C2792 C 0.04 0.81249 0.64128 0.0
C2793 C 0.99065 0.77222 0.64821 0.0
C2794 C 0.98433 0.76887 0.66394 0.0
C2795 C 0.97761 0.76374 0.6356 0.0
C2796 C 0.98348 0.76715 0.61872 0.0
C2797 C 0.99343 0.78572 0.61275 0.0
C2798 C -0.00083 0.78882 0.59692 0.0
C2799 C 0.99489 0.77345 0.58688 0.0
C2800 C 0.98483 0.75494 0.59265 0.0
C2801 C 0.97912 0.75177 0.60849 0.0
C2802 C 0.90097 0.71871 0.66623 0.0
C2803 C 0.8954 0.70127 0.65853 0.0
C2804 C 0.91971 0.73352 0.66548 0.0
C2805 C 0.93306 0.73097 0.65714 0.0
C2806 C 0.92758 0.71338 0.64996 0.0
C2807 C 0.90901 0.69874 0.65061 0.0
C2808 C 0.95255 0.74665 0.65476 0.0
C2809 C 0.95875 0.75118 0.63906 0.0
C2810 C 0.96538 0.75597 0.66742 0.0
C2811 C 0.95985 0.75168 0.68429 0.0
C2812 C 0.95211 0.73308 0.69007 0.0
C2813 C 0.94731 0.72929 0.70607 0.0
C2814 C 0.95035 0.744 0.71646 0.0
C2815 C 0.95823 0.76256 0.71086 0.0
C2816 C 0.963 0.76642 0.69486 0.0
H2817 H 0.94668 0.74104 0.72885 0.0
H2818 H -0.00067 0.77588 0.57463 0.0
H2819 H 0.21663 0.26674 0.64696 0.0
H2820 H 0.23445 0.25197 0.65678 0.0
H2821 H 0.19538 0.1996 0.633 0.0
H2822 H 0.17721 0.21423 0.62381 0.0
H2823 H 0.20434 0.19141 0.65993 0.0
H2824 H 0.23844 0.23094 0.61726 0.0
H2825 H 0.25389 0.26019 0.60143 0.0
H2826 H 0.29419 0.28849 0.63886 0.0
H2827 H 0.27875 0.25951 0.65508 0.0
H2828 H 0.27492 0.16105 0.65929 0.0
H2829 H 0.25023 0.16867 0.65295 0.0
H2830 H 0.27629 0.21683 0.68474 0.0
H2831 H 0.30074 0.20916 0.6912 0.0
H2832 H 0.27332 0.22517 0.6516 0.0
H2833 H 0.23569 0.18264 0.69401 0.0
H2834 H 0.21998 0.15137 0.70695 0.0
H2835 H 0.18631 0.12626 0.66514 0.0
H2836 H 0.20207 0.15735 0.65185 0.0
C2837 C 0.21181 0.25201 0.64409 0.0
C2838 C 0.19566 0.24149 0.63476 0.0
C2839 C 0.22201 0.24362 0.64955 0.0
C2840 C 0.21644 0.22476 0.64537 0.0
C2841 C 0.19995 0.21414 0.63636 0.0
C2842 C 0.18961 0.22246 0.63112 0.0
C2843 C 0.22806 0.21627 0.65011 0.0
C2844 C 0.21939 0.19873 0.65794 0.0
C2845 C 0.24768 0.22566 0.64733 0.0
C2846 C 0.2573 0.24306 0.63748 0.0
C2847 C 0.25052 0.24343 0.62218 0.0
C2848 C 0.25927 0.25997 0.61313 0.0
C2849 C 0.27498 0.27621 0.61916 0.0
C2850 C 0.282 0.27591 0.63422 0.0
C2851 C 0.27325 0.25942 0.64335 0.0
C2852 C 0.27469 0.17254 0.66565 0.0
C2853 C 0.28961 0.18445 0.67583 0.0
C2854 C 0.2608 0.1771 0.66179 0.0
C2855 C 0.26172 0.19352 0.66816 0.0
C2856 C 0.27549 0.20422 0.67959 0.0
C2857 C 0.28923 0.19962 0.68349 0.0
C2858 C 0.24966 0.20076 0.66188 0.0
C2859 C 0.25827 0.21796 0.65357 0.0
C2860 C 0.22996 0.1908 0.66375 0.0
C2861 C 0.22017 0.17226 0.6719 0.0
C2862 C 0.22502 0.17042 0.68754 0.0
C2863 C 0.2161 0.15274 0.69494 0.0
C2864 C 0.20219 0.13683 0.68686 0.0
C2865 C 0.19711 0.13859 0.67138 0.0
C2866 C 0.20602 0.15624 0.66391 0.0
H2867 H 0.19531 0.12314 0.6926 0.0
H2868 H 0.28173 0.289 0.61214 0.0
H2869 H 0.73424 0.9534 0.63189 0.0
H2870 H 0.74818 0.98771 0.63577 0.0
H2871 H 0.80036 0.99157 0.65052 0.0
H2872 H 0.7865 0.95737 0.64679 0.0
H2873 H 0.79209 0.01371 0.66856 0.0
H2874 H 0.7924 0.00153 0.61167 0.0
H2875 H 0.77673 0.98676 0.58627 0.0
H2876 H 0.74298 0.01333 0.58981 0.0
H2877 H 0.7583 0.02807 0.61532 0.0
H2878 H 0.84971 0.10982 0.66843 0.0
H2879 H 0.83912 0.07789 0.65825 0.0
H2880 H 0.79066 0.07683 0.63709 0.0
H2881 H 0.80198 0.10916 0.64642 0.0
H2882 H 0.79576 0.05282 0.62221 0.0
H2883 H 0.79201 0.06394 0.67744 0.0
H2884 H 0.80247 0.07654 0.70454 0.0
H2885 H 0.8369 0.05061 0.70633 0.0
H2886 H 0.82678 0.038 0.67918 0.0
C2887 C 0.74864 0.96157 0.63607 0.0
C2888 C 0.75932 0.9527 0.63892 0.0
C2889 C 0.7566 0.98117 0.63823 0.0
C2890 C 0.77546 0.99227 0.64307 0.0
C2891 C 0.78582 0.9833 0.64668 0.0
C2892 C 0.77784 0.96372 0.64463 0.0
C2893 C 0.78472 0.01329 0.644 0.0
C2894 C 0.79315 0.0223 0.65837 0.0
C2895 C 0.78538 0.02444 0.63088 0.0
C2896 C 0.77642 0.01581 0.61543 0.0
C2897 C 0.78159 0.00416 0.60705 0.0
C2898 C 0.77276 0.9958 0.59264 0.0
C2899 C 0.75885 0.99909 0.58644 0.0
C2900 C 0.75375 0.01079 0.59462 0.0
C2901 C 0.76252 0.01917 0.60904 0.0
C2902 C 0.83761 0.10333 0.66055 0.0
C2903 C 0.8265 0.1118 0.6584 0.0
C2904 C 0.83121 0.08481 0.65514 0.0
C2905 C 0.8135 0.07452 0.64773 0.0
C2906 C 0.80416 0.08425 0.6431 0.0
C2907 C 0.81085 0.10297 0.64818 0.0
C2908 C 0.80366 0.05339 0.64672 0.0
C2909 C 0.79492 0.04432 0.63239 0.0
C2910 C 0.8022 0.0421 0.66005 0.0
C2911 C 0.80884 0.05026 0.67617 0.0
C2912 C 0.80198 0.06111 0.68354 0.0
C2913 C 0.8078 0.06821 0.69893 0.0
C2914 C 0.8204 0.06445 0.70712 0.0
C2915 C 0.82719 0.05357 0.69995 0.0
C2916 C 0.82142 0.04645 0.68456 0.0
H2917 H 0.82485 0.06991 0.71904 0.0
H2918 H 0.75204 0.9926 0.57528 0.0
H2919 H 0.47108 0.37946 0.67869 0.0
H2920 H 0.45085 0.34542 0.67316 0.0
H2921 H 0.45446 0.33304 0.72236 0.0
H2922 H 0.47494 0.36674 0.72785 0.0
H2923 H 0.46033 0.31031 0.70382 0.0
H2924 H 0.41492 0.3299 0.70778 0.0
H2925 H 0.40022 0.3493 0.70225 0.0
H2926 H 0.39191 0.33117 0.65351 0.0
H2927 H 0.40687 0.3119 0.65866 0.0
H2928 H 0.37129 0.21546 0.69256 0.0
H2929 H 0.39433 0.24666 0.70338 0.0
H2930 H 0.42118 0.26273 0.65778 0.0
H2931 H 0.39878 0.23149 0.64709 0.0
H2932 H 0.39819 0.28254 0.67692 0.0
H2933 H 0.44984 0.26765 0.67406 0.0
H2934 H 0.46275 0.24707 0.68131 0.0
H2935 H 0.45658 0.25569 0.73074 0.0
H2936 H 0.44327 0.27604 0.72372 0.0
C2937 C 0.46755 0.36944 0.68829 0.0
C2938 C 0.47449 0.37578 0.70372 0.0
C2939 C 0.45588 0.35004 0.68516 0.0
C2940 C 0.45103 0.33672 0.6974 0.0
C2941 C 0.45797 0.34306 0.71277 0.0
C2942 C 0.46956 0.36236 0.71589 0.0
C2943 C 0.43933 0.31608 0.69413 0.0
C2944 C 0.44667 0.30428 0.69807 0.0
C2945 C 0.42143 0.30813 0.68674 0.0
C2946 C 0.41224 0.31959 0.68358 0.0
C2947 C 0.41012 0.33016 0.69584 0.0
C2948 C 0.40171 0.34113 0.69278 0.0
C2949 C 0.39519 0.34152 0.67753 0.0
C2950 C 0.397 0.33088 0.66532 0.0
C2951 C 0.40544 0.31992 0.66831 0.0
C2952 C 0.38283 0.22516 0.68514 0.0
C2953 C 0.38312 0.22116 0.66892 0.0
C2954 C 0.39575 0.24312 0.69125 0.0
C2955 C 0.40909 0.25703 0.68122 0.0
C2956 C 0.41089 0.25217 0.66564 0.0
C2957 C 0.39827 0.23419 0.65964 0.0
C2958 C 0.41954 0.27715 0.68622 0.0
C2959 C 0.41185 0.28874 0.6827 0.0
C2960 C 0.43697 0.28492 0.69416 0.0
C2961 C 0.44533 0.2731 0.69838 0.0
C2962 C 0.45105 0.26498 0.68646 0.0
C2963 C 0.45847 0.25339 0.69053 0.0
C2964 C 0.46041 0.25 0.70648 0.0
C2965 C 0.45502 0.25828 0.71839 0.0
C2966 C 0.44753 0.26983 0.71438 0.0
H2967 H 0.46614 0.24101 0.7096 0.0
H2968 H 0.38869 0.35002 0.67518 0.0
H2969 H 0.61924 0.06548 0.70319 0.0
H2970 H 0.65099 0.07898 0.69234 0.0
H2971 H 0.66095 0.13547 0.70193 0.0
H2972 H 0.62877 0.12189 0.71195 0.0
H2973 H 0.67828 0.13606 0.67582 0.0
H2974 H 0.67502 0.11213 0.728 0.0
H2975 H 0.66281 0.08859 0.74951 0.0
H2976 H 0.67666 0.05219 0.72288 0.0
H2977 H 0.68863 0.07534 0.70107 0.0
H2978 H 0.78025 0.17065 0.68156 0.0
H2979 H 0.74781 0.16448 0.68438 0.0
H2980 H 0.72663 0.10652 0.66924 0.0
H2981 H 0.75875 0.1125 0.66685 0.0
H2982 H 0.71631 0.11048 0.69963 0.0
H2983 H 0.71981 0.1364 0.64702 0.0
H2984 H 0.73276 0.16161 0.62689 0.0
H2985 H 0.72038 0.19691 0.6566 0.0
H2986 H 0.70764 0.17203 0.67705 0.0
C2987 C 0.62818 0.08076 0.70273 0.0
C2988 C 0.62184 0.09273 0.70847 0.0
C2989 C 0.64628 0.08847 0.69661 0.0
C2990 C 0.65851 0.10823 0.69672 0.0
C2991 C 0.65181 0.1202 0.7018 0.0
C2992 C 0.63352 0.11248 0.70756 0.0
C2993 C 0.67857 0.11622 0.69256 0.0
C2994 C 0.68668 0.13061 0.68113 0.0
C2995 C 0.6896 0.10929 0.69964 0.0
C2996 C 0.68257 0.09541 0.71284 0.0
C2997 C 0.67535 0.09905 0.72668 0.0
C2998 C 0.66847 0.08577 0.73893 0.0
C2999 C 0.66892 0.06889 0.73755 0.0
C3000 C 0.67629 0.06526 0.72393 0.0
C3001 C 0.68313 0.07846 0.71162 0.0
C3002 C 0.76859 0.15682 0.67834 0.0
C3003 C 0.77178 0.14195 0.67413 0.0
C3004 C 0.75015 0.15332 0.67994 0.0
C3005 C 0.73489 0.135 0.67711 0.0
C3006 C 0.73824 0.1207 0.67155 0.0
C3007 C 0.75653 0.12411 0.67019 0.0
C3008 C 0.71572 0.1296 0.68234 0.0
C3009 C 0.7079 0.1159 0.69428 0.0
C3010 C 0.70522 0.13747 0.67594 0.0
C3011 C 0.71299 0.15243 0.66366 0.0
C3012 C 0.72005 0.14962 0.64935 0.0
C3013 C 0.72731 0.16384 0.63786 0.0
C3014 C 0.72746 0.18088 0.64049 0.0
C3015 C 0.7203 0.18372 0.6546 0.0
C3016 C 0.71306 0.16957 0.66614 0.0
H3017 H 0.73306 0.19185 0.63157 0.0
H3018 H 0.66359 0.05863 0.74704 0.0
H3019 H 0.88177 0.50885 0.70016 0.0
H3020 H 0.8676 0.52779 0.69211 0.0
H3021 H 0.91972 0.57914 0.70266 0.0
H3022 H 0.93396 0.56027 0.7107 0.0
H3023 H 0.89084 0.57759 0.7187 0.0
H3024 H 0.90349 0.56859 0.66521 0.0
H3025 H 0.90345 0.55076 0.64148 0.0
H3026 H 0.84309 0.52087 0.64042 0.0
H3027 H 0.84273 0.53831 0.66431 0.0
H3028 H 0.86635 0.64404 0.68824 0.0
H3029 H 0.87833 0.62425 0.69865 0.0
H3030 H 0.82718 0.57405 0.68383 0.0
H3031 H 0.81575 0.59406 0.67259 0.0
H3032 H 0.85556 0.57469 0.66992 0.0
H3033 H 0.84376 0.58478 0.72409 0.0
H3034 H 0.84513 0.60415 0.7472 0.0
H3035 H 0.90548 0.63329 0.74634 0.0
H3036 H 0.90448 0.61433 0.72306 0.0
C3037 C 0.89037 0.52418 0.7003 0.0
C3038 C 0.90887 0.53312 0.70627 0.0
C3039 C 0.88225 0.53498 0.69572 0.0
C3040 C 0.89257 0.55486 0.69694 0.0
C3041 C 0.91147 0.56381 0.7018 0.0
C3042 C 0.91957 0.55303 0.7064 0.0
C3043 C 0.88309 0.56615 0.69499 0.0
C3044 C 0.88331 0.57716 0.70795 0.0
C3045 C 0.87292 0.56517 0.68112 0.0
C3046 C 0.87308 0.55463 0.6667 0.0
C3047 C 0.89019 0.55809 0.66003 0.0
C3048 C 0.89024 0.54808 0.64652 0.0
C3049 C 0.87328 0.53465 0.63948 0.0
C3050 C 0.85622 0.53125 0.6459 0.0
C3051 C 0.85608 0.54121 0.65943 0.0
C3052 C 0.85714 0.62877 0.6882 0.0
C3053 C 0.84015 0.62052 0.67965 0.0
C3054 C 0.86412 0.61739 0.69397 0.0
C3055 C 0.8538 0.59759 0.6918 0.0
C3056 C 0.83552 0.58929 0.68545 0.0
C3057 C 0.82876 0.60071 0.67937 0.0
C3058 C 0.86307 0.58601 0.69375 0.0
C3059 C 0.86292 0.575 0.68074 0.0
C3060 C 0.87343 0.58709 0.70754 0.0
C3061 C 0.87403 0.59821 0.72175 0.0
C3062 C 0.85732 0.59539 0.72878 0.0
C3063 C 0.85803 0.60629 0.74191 0.0
C3064 C 0.87538 0.61997 0.74821 0.0
C3065 C 0.89205 0.62271 0.74144 0.0
C3066 C 0.89142 0.61187 0.72829 0.0
H3067 H 0.8759 0.62842 0.75835 0.0
H3068 H 0.87335 0.52692 0.62902 0.0
H3069 H 0.47878 0.99212 0.18915 0.0
H3070 H 0.48661 -0.00021 0.16113 0.0
H3071 H 0.48972 0.94871 0.15502 0.0
H3072 H 0.48269 0.9415 0.18319 0.0
H3073 H 0.51719 0.9759 0.13975 0.0
H3074 H 0.45104 0.95236 0.1423 0.0
H3075 H 0.42219 0.95046 0.15284 0.0
H3076 H 0.44179 0.00802 0.13887 0.0
H3077 H 0.47093 0.01038 0.12847 0.0
H3078 H 0.50521 0.97836 0.05317 0.0
H3079 H 0.50138 0.96844 0.08107 0.0
H3080 H 0.51594 0.02494 0.09595 0.0
H3081 H 0.52037 0.03508 0.06836 0.0
H3082 H 0.47793 0.99217 0.10566 0.0
H3083 H 0.54528 0.01554 0.10545 0.0
H3084 H 0.57306 0.01629 0.09362 0.0
H3085 H 0.54888 0.95656 0.10192 0.0
H3086 H 0.52079 0.95542 0.1136 0.0
C3087 C 0.4811 0.98256 0.18176 0.0
C3088 C 0.48009 0.96622 0.18822 0.0
C3089 C 0.48552 0.98688 0.16577 0.0
C3090 C 0.48845 0.97465 0.15588 0.0
C3091 C 0.48753 0.95836 0.1624 0.0
C3092 C 0.48347 0.95423 0.17845 0.0
C3093 C 0.49246 0.97883 0.13874 0.0
C3094 C 0.50841 0.97917 0.13228 0.0
C3095 C 0.48107 0.98315 0.12893 0.0
C3096 C 0.46326 0.98159 0.13469 0.0
C3097 C 0.44924 0.96464 0.14152 0.0
C3098 C 0.43283 0.96349 0.14748 0.0
C3099 C 0.43018 0.97912 0.14655 0.0
C3100 C 0.44388 0.99592 0.13959 0.0
C3101 C 0.46034 0.99717 0.13364 0.0
C3102 C 0.50843 0.98885 0.06242 0.0
C3103 C 0.51295 0.00745 0.05859 0.0
C3104 C 0.50594 0.9831 0.07831 0.0
C3105 C 0.50793 0.9959 0.09043 0.0
C3106 C 0.51404 0.01483 0.0867 0.0
C3107 C 0.51678 0.02062 0.07094 0.0
C3108 C 0.50271 0.98952 0.10695 0.0
C3109 C 0.48652 0.98871 0.1132 0.0
C3110 C 0.51367 0.98454 0.1165 0.0
C3111 C 0.53091 0.98536 0.11028 0.0
C3112 C 0.54587 0.00255 0.10471 0.0
C3113 C 0.56166 0.00305 0.09803 0.0
C3114 C 0.56271 0.98647 0.09698 0.0
C3115 C 0.54803 0.96938 0.10273 0.0
C3116 C 0.53219 0.96881 0.1094 0.0
H3117 H 0.57491 0.98686 0.09174 0.0
H3118 H 0.41749 0.97822 0.15121 0.0
H3119 H 0.06275 0.54215 0.1827 0.0
H3120 H 0.05611 0.53844 0.15417 0.0
H3121 H 0.00091 0.49073 0.16317 0.0
H3122 H 0.00798 0.494 0.1918 0.0
H3123 H 0.01464 0.48415 0.13737 0.0
H3124 H 0.0081 0.53614 0.15592 0.0
H3125 H 0.01762 0.56655 0.16954 0.0
H3126 H 0.06454 0.59511 0.13809 0.0
H3127 H 0.05541 0.56482 0.12441 0.0
H3128 H 0.96904 0.48892 0.06764 0.0
H3129 H 0.97947 0.4933 0.09522 0.0
H3130 H 0.03698 0.52804 0.08041 0.0
H3131 H 0.02668 0.52311 0.05246 0.0
H3132 H 0.0235 0.54103 0.10841 0.0
H3133 H 0.0269 0.48732 0.08855 0.0
H3134 H 0.01598 0.45611 0.07593 0.0
H3135 H 0.97216 0.42975 0.11046 0.0
H3136 H 0.98261 0.46085 0.12315 0.0
C3137 C 0.0493 0.53076 0.17851 0.0
C3138 C 0.0358 0.51843 0.18931 0.0
C3139 C 0.04545 0.52871 0.16225 0.0
C3140 C 0.02783 0.51461 0.15651 0.0
C3141 C 0.01457 0.50178 0.1673 0.0
C3142 C 0.01857 0.50364 0.18361 0.0
C3143 C 0.02311 0.51375 0.13935 0.0
C3144 C 0.01636 0.49653 0.13108 0.0
C3145 C 0.02565 0.52998 0.13104 0.0
C3146 C 0.03118 0.5482 0.13925 0.0
C3147 C 0.02052 0.54889 0.15199 0.0
C3148 C 0.02583 0.5661 0.1597 0.0
C3149 C 0.0417 0.58274 0.1547 0.0
C3150 C 0.05226 0.58221 0.14196 0.0
C3151 C 0.04702 0.56503 0.13421 0.0
C3152 C 0.9839 0.49791 0.07021 0.0
C3153 C 0.99705 0.50558 0.05783 0.0
C3154 C 0.98982 0.50017 0.08599 0.0
C3155 C 0.00899 0.51051 0.08977 0.0
C3156 C 0.02211 0.51975 0.07763 0.0
C3157 C 0.01619 0.51721 0.0617 0.0
C3158 C 0.01506 0.51148 0.10648 0.0
C3159 C 0.02192 0.5287 0.11468 0.0
C3160 C 0.01225 0.49513 0.11475 0.0
C3161 C 0.0054 0.47651 0.10668 0.0
C3162 C 0.01474 0.47494 0.0933 0.0
C3163 C 0.00869 0.45723 0.08618 0.0
C3164 C 0.99335 0.44097 0.09236 0.0
C3165 C 0.98401 0.44237 0.10566 0.0
C3166 C 0.99 0.46003 0.11282 0.0
H3167 H 0.98875 0.42727 0.08687 0.0
H3168 H 0.04579 0.59606 0.16069 0.0
H3169 H 0.51146 0.51392 0.18991 0.0
H3170 H 0.51413 0.50994 0.16136 0.0
H3171 H 0.46633 0.51732 0.15258 0.0
H3172 H 0.46307 0.52021 0.18119 0.0
H3173 H 0.46525 0.49219 0.13283 0.0
H3174 H 0.51416 0.55491 0.14966 0.0
H3175 H 0.54158 0.57755 0.16567 0.0
H3176 H 0.57316 0.55212 0.14865 0.0
H3177 H 0.54585 0.5292 0.13267 0.0
H3178 H 0.48215 0.51815 0.05227 0.0
H3179 H 0.4805 0.52231 0.08096 0.0
H3180 H 0.5237 0.50773 0.08869 0.0
H3181 H 0.52513 0.50335 0.06007 0.0
H3182 H 0.52715 0.53577 0.10879 0.0
H3183 H 0.47939 0.47429 0.09097 0.0
H3184 H 0.45197 0.45035 0.07574 0.0
H3185 H 0.41807 0.47214 0.0948 0.0
H3186 H 0.44537 0.49643 0.10996 0.0
C3187 C 0.50142 0.51442 0.18183 0.0
C3188 C 0.48716 0.51749 0.18759 0.0
C3189 C 0.503 0.51227 0.16555 0.0
C3190 C 0.49075 0.51387 0.15477 0.0
C3191 C 0.476 0.51614 0.16064 0.0
C3192 C 0.47415 0.51782 0.17694 0.0
C3193 C 0.49382 0.51415 0.1374 0.0
C3194 C 0.4787 0.50191 0.12754 0.0
C3195 C 0.51153 0.52646 0.13052 0.0
C3196 C 0.52794 0.54028 0.14008 0.0
C3197 C 0.52693 0.5541 0.1494 0.0
C3198 C 0.54244 0.56698 0.15846 0.0
C3199 C 0.55909 0.56625 0.1582 0.0
C3200 C 0.56026 0.55266 0.14885 0.0
C3201 C 0.54478 0.53974 0.13978 0.0
C3202 C 0.49197 0.51686 0.06007 0.0
C3203 C 0.50406 0.51086 0.05406 0.0
C3204 C 0.49073 0.51881 0.07644 0.0
C3205 C 0.50167 0.51489 0.08691 0.0
C3206 C 0.51507 0.51071 0.08079 0.0
C3207 C 0.51613 0.50854 0.06445 0.0
C3208 C 0.49852 0.51408 0.10422 0.0
C3209 C 0.51365 0.52614 0.11407 0.0
C3210 C 0.48082 0.50156 0.11104 0.0
C3211 C 0.46455 0.48741 0.10143 0.0
C3212 C 0.46618 0.47419 0.09174 0.0
C3213 C 0.45063 0.46049 0.08316 0.0
C3214 C 0.43331 0.45977 0.08426 0.0
C3215 C 0.43151 0.47276 0.09393 0.0
C3216 C 0.44702 0.4865 0.1025 0.0
H3217 H 0.42127 0.44912 0.07766 0.0
H3218 H 0.57109 0.57624 0.16521 0.0
H3219 H 0.94514 0.49031 0.82554 0.0
H3220 H 0.95346 0.49472 0.85378 0.0
H3221 H 0.99343 0.47592 0.84579 0.0
H3222 H 0.98534 0.47167 0.81757 0.0
H3223 H 0.97019 0.45669 0.86932 0.0
H3224 H 0.00849 0.52123 0.85515 0.0
H3225 H 0.01642 0.55188 0.84313 0.0
H3226 H 0.97755 0.55664 0.87407 0.0
H3227 H 0.96916 0.52584 0.88614 0.0
H3228 H 0.01902 0.48687 0.94501 0.0
H3229 H 0.01078 0.48282 0.91662 0.0
H3230 H 0.96158 0.48706 0.92673 0.0
H3231 H 0.96936 0.49025 0.95514 0.0
H3232 H 0.98936 0.51414 0.90243 0.0
H3233 H 0.95339 0.44833 0.91725 0.0
H3234 H 0.95028 0.41967 0.92973 0.0
H3235 H 0.98886 0.41844 0.89629 0.0
H3236 H 0.99316 0.44785 0.88411 0.0
C3237 C 0.95598 0.48749 0.82974 0.0
C3238 C 0.96444 0.48043 0.81934 0.0
C3239 C 0.96071 0.49001 0.84589 0.0
C3240 C 0.97402 0.48558 0.8519 0.0
C3241 C 0.983 0.47926 0.84143 0.0
C3242 C 0.97831 0.47676 0.82532 0.0
C3243 C 0.97755 0.4861 0.86924 0.0
C3244 C 0.9746 0.46934 0.8765 0.0
C3245 C 0.98306 0.50253 0.87864 0.0
C3246 C 0.98801 0.52107 0.87143 0.0
C3247 C 0.00148 0.5287 0.85929 0.0
C3248 C 0.00609 0.54613 0.85249 0.0
C3249 C 0.99744 0.55617 0.85779 0.0
C3250 C 0.98421 0.54882 0.86995 0.0
C3251 C 0.97953 0.53138 0.87679 0.0
C3252 C 0.00597 0.48595 0.9412 0.0
C3253 C 0.99448 0.48821 0.95223 0.0
C3254 C 0.00146 0.48402 0.92501 0.0
C3255 C 0.98572 0.48491 0.91961 0.0
C3256 C 0.97382 0.48642 0.93068 0.0
C3257 C 0.97804 0.48781 0.9469 0.0
C3258 C 0.98199 0.48474 0.90238 0.0
C3259 C 0.98488 0.50153 0.89517 0.0
C3260 C 0.97684 0.46848 0.89292 0.0
C3261 C 0.9738 0.45047 0.89991 0.0
C3262 C 0.96141 0.44212 0.91267 0.0
C3263 C 0.9594 0.42571 0.91968 0.0
C3264 C 0.96925 0.41716 0.91379 0.0
C3265 C 0.98124 0.42508 0.90087 0.0
C3266 C 0.98355 0.4417 0.89395 0.0
H3267 H 0.9676 0.4044 0.91926 0.0
H3268 H 0.00104 0.56966 0.85251 0.0
H3269 H 0.5453 0.48671 0.82339 0.0
H3270 H 0.54202 0.49108 0.85177 0.0
H3271 H 0.48509 0.47874 0.84358 0.0
H3272 H 0.48842 0.47483 0.81524 0.0
H3273 H 0.50428 0.50842 0.86431 0.0
H3274 H 0.49443 0.44433 0.85661 0.0
H3275 H 0.50426 0.42147 0.84838 0.0
H3276 H 0.55204 0.44839 0.87974 0.0
H3277 H 0.54258 0.47152 0.88803 0.0
H3278 H 0.46854 0.4919 0.94154 0.0
H3279 H 0.47248 0.48735 0.91334 0.0
H3280 H 0.52274 0.4852 0.92477 0.0
H3281 H 0.51766 0.4879 0.95288 0.0
H3282 H 0.50906 0.46441 0.90206 0.0
H3283 H 0.52115 0.5279 0.91075 0.0
H3284 H 0.51532 0.55379 0.91844 0.0
H3285 H 0.4689 0.5327 0.88565 0.0
H3286 H 0.47435 0.5066 0.87787 0.0
C3287 C 0.53221 0.48527 0.82762 0.0
C3288 C 0.51704 0.48026 0.81714 0.0
C3289 C 0.53031 0.4876 0.84383 0.0
C3290 C 0.51321 0.48493 0.84978 0.0
C3291 C 0.49836 0.48075 0.83923 0.0
C3292 C 0.50024 0.4784 0.82307 0.0
C3293 C 0.51035 0.48576 0.86703 0.0
C3294 C 0.50517 0.49873 0.87262 0.0
C3295 C 0.51223 0.47361 0.87787 0.0
C3296 C 0.5179 0.45974 0.87281 0.0
C3297 C 0.50711 0.44545 0.86165 0.0
C3298 C 0.51259 0.43243 0.857 0.0
C3299 C 0.52879 0.4335 0.8635 0.0
C3300 C 0.53951 0.44758 0.87469 0.0
C3301 C 0.53409 0.46063 0.87938 0.0
C3302 C 0.4798 0.48942 0.93799 0.0
C3303 C 0.4925 0.48969 0.94931 0.0
C3304 C 0.48241 0.48739 0.92185 0.0
C3305 C 0.49832 0.48662 0.91677 0.0
C3306 C 0.51035 0.48578 0.92826 0.0
C3307 C 0.50733 0.48707 0.94438 0.0
C3308 C 0.50276 0.48705 0.89959 0.0
C3309 C 0.50826 0.47429 0.89394 0.0
C3310 C 0.50173 0.49985 0.88878 0.0
C3311 C 0.49802 0.51515 0.89388 0.0
C3312 C 0.50957 0.52866 0.90531 0.0
C3313 C 0.50637 0.54341 0.90965 0.0
C3314 C 0.49171 0.54485 0.90258 0.0
C3315 C 0.48023 0.53155 0.89115 0.0
C3316 C 0.48337 0.51679 0.88677 0.0
H3317 H 0.48929 0.55631 0.90592 0.0
H3318 H 0.533 0.4234 0.85989 0.0
H3319 H 0.50356 0.05581 0.82754 0.0
H3320 H 0.50062 0.04822 0.85568 0.0
H3321 H 0.52396 0.01174 0.84778 0.0
H3322 H 0.52635 0.0188 0.81932 0.0
H3323 H 0.49358 0.99474 0.86601 0.0
H3324 H 0.54986 0.05383 0.86644 0.0
H3325 H 0.57126 0.08747 0.86008 0.0
H3326 H 0.5355 0.10312 0.88502 0.0
H3327 H 0.51372 0.06952 0.89135 0.0
H3328 H 0.50897 0.98519 0.94686 0.0
H3329 H 0.50878 0.98994 0.91864 0.0
H3330 H 0.48913 0.02958 0.92665 0.0
H3331 H 0.49089 0.0259 0.95557 0.0
H3332 H 0.51791 0.04446 0.90798 0.0
H3333 H 0.46174 0.98153 0.90769 0.0
H3334 H 0.44403 0.94744 0.91416 0.0
H3335 H 0.48446 0.93858 0.88911 0.0
H3336 H 0.50251 0.97262 0.88264 0.0
C3337 C 0.50796 0.04606 0.83174 0.0
C3338 C 0.51501 0.03776 0.82117 0.0
C3339 C 0.50649 0.04192 0.84787 0.0
C3340 C 0.51222 0.02955 0.85386 0.0
C3341 C 0.51948 0.02136 0.8434 0.0
C3342 C 0.52095 0.02549 0.82718 0.0
C3343 C 0.50984 0.02469 0.87095 0.0
C3344 C 0.49905 0.00558 0.87522 0.0
C3345 C 0.51692 0.03886 0.88292 0.0
C3346 C 0.53004 0.05912 0.87924 0.0
C3347 C 0.54647 0.06442 0.87047 0.0
C3348 C 0.55869 0.08349 0.86688 0.0
C3349 C 0.55471 0.09741 0.8721 0.0
C3350 C 0.53854 0.09231 0.88097 0.0
C3351 C 0.52626 0.07326 0.88457 0.0
C3352 C 0.50409 0.99456 0.94262 0.0
C3353 C 0.49995 0.00521 0.95336 0.0
C3354 C 0.50382 0.99713 0.92639 0.0
C3355 C 0.49861 0.00986 0.92035 0.0
C3356 C 0.49311 0.01958 0.93103 0.0
C3357 C 0.49384 0.01732 0.94751 0.0
C3358 C 0.50106 0.01445 0.90313 0.0
C3359 C 0.51213 0.03358 0.8988 0.0
C3360 C 0.49466 0.00022 0.89113 0.0
C3361 C 0.4835 0.97965 0.89473 0.0
C3362 C 0.46687 0.97232 0.9036 0.0
C3363 C 0.45678 0.953 0.90726 0.0
C3364 C 0.46312 0.94086 0.90206 0.0
C3365 C 0.47954 0.94799 0.89312 0.0
C3366 C 0.48968 0.96728 0.88942 0.0
H3367 H 0.45531 0.92593 0.90495 0.0
H3368 H 0.56418 0.11217 0.86931 0.0
H3369 H 0.16603 0.28809 0.52015 0.0
H3370 H 0.17431 0.29717 0.49258 0.0
H3371 H 0.14736 0.33097 0.49452 0.0
H3372 H 0.13973 0.32271 0.52247 0.0
H3373 H 0.13387 0.30218 0.4708 0.0
H3374 H 0.19132 0.35358 0.49001 0.0
H3375 H 0.22068 0.36927 0.5057 0.0
H3376 H 0.24145 0.33772 0.48035 0.0
H3377 H 0.21205 0.32157 0.46467 0.0
H3378 H 0.15455 0.34722 0.39902 0.0
H3379 H 0.15205 0.33818 0.42629 0.0
H3380 H 0.18404 0.3103 0.41716 0.0
H3381 H 0.18714 0.31999 0.38893 0.0
H3382 H 0.19605 0.33441 0.44443 0.0
H3383 H 0.13328 0.27573 0.43379 0.0
H3384 H 0.10126 0.25703 0.42265 0.0
H3385 H 0.09083 0.30273 0.43268 0.0
H3386 H 0.12247 0.32122 0.44477 0.0
C3387 C 0.16233 0.29793 0.51493 0.0
C3388 C 0.15217 0.30466 0.52358 0.0
C3389 C 0.16709 0.30307 0.49915 0.0
C3390 C 0.16159 0.31484 0.49163 0.0
C3391 C 0.1518 0.32193 0.50022 0.0
C3392 C 0.14726 0.31701 0.51611 0.0
C3393 C 0.16385 0.31758 0.47432 0.0
C3394 C 0.14749 0.30943 0.46506 0.0
C3395 C 0.18163 0.32647 0.46689 0.0
C3396 C 0.19935 0.33617 0.47629 0.0
C3397 C 0.20205 0.34981 0.48789 0.0
C3398 C 0.21872 0.35883 0.49676 0.0
C3399 C 0.2329 0.35444 0.49406 0.0
C3400 C 0.23044 0.34107 0.48245 0.0
C3401 C 0.21378 0.33199 0.47356 0.0
C3402 C 0.16124 0.33923 0.40259 0.0
C3403 C 0.17141 0.33465 0.39173 0.0
C3404 C 0.15943 0.33374 0.41828 0.0
C3405 C 0.16743 0.32319 0.42374 0.0
C3406 C 0.17754 0.31829 0.41307 0.0
C3407 C 0.17933 0.3238 0.39702 0.0
C3408 C 0.16599 0.31885 0.44091 0.0
C3409 C 0.18248 0.32688 0.4502 0.0
C3410 C 0.14833 0.30988 0.44853 0.0
C3411 C 0.13033 0.3 0.43973 0.0
C3412 C 0.12424 0.28188 0.43335 0.0
C3413 C 0.10609 0.27124 0.42707 0.0
C3414 C 0.0941 0.2788 0.42669 0.0
C3415 C 0.10017 0.29695 0.43284 0.0
C3416 C 0.11814 0.30744 0.43955 0.0
H3417 H 0.08007 0.27054 0.42174 0.0
H3418 H 0.2458 0.36144 0.50094 0.0
H3419 H 0.67599 0.85632 0.52431 0.0
H3420 H 0.66947 0.8525 0.4958 0.0
H3421 H 0.71243 0.83737 0.48941 0.0
H3422 H 0.71929 0.84154 0.51796 0.0
H3423 H 0.71632 0.86424 0.46863 0.0
H3424 H 0.66688 0.80417 0.4851 0.0
H3425 H 0.63984 0.78182 0.50117 0.0
H3426 H 0.60781 0.80683 0.48428 0.0
H3427 H 0.63477 0.82955 0.46828 0.0
H3428 H 0.69349 0.84036 0.38689 0.0
H3429 H 0.70137 0.84289 0.415 0.0
H3430 H 0.65364 0.8496 0.42586 0.0
H3431 H 0.6448 0.84517 0.39766 0.0
H3432 H 0.65301 0.82521 0.44451 0.0
H3433 H 0.70457 0.88688 0.42884 0.0
H3434 H 0.73197 0.9079 0.41246 0.0
H3435 H 0.76043 0.87852 0.42779 0.0
H3436 H 0.7331 0.85715 0.44407 0.0
C3437 C 0.68399 0.85208 0.51685 0.0
C3438 C 0.69823 0.84933 0.52338 0.0
C3439 C 0.68015 0.84976 0.50057 0.0
C3440 C 0.69041 0.84458 0.49047 0.0
C3441 C 0.70433 0.84136 0.49699 0.0
C3442 C 0.70813 0.84361 0.51332 0.0
C3443 C 0.68731 0.84369 0.47302 0.0
C3444 C 0.70252 0.85553 0.4633 0.0
C3445 C 0.66928 0.83249 0.46611 0.0
C3446 C 0.65293 0.8187 0.47559 0.0
C3447 C 0.65413 0.80502 0.4849 0.0
C3448 C 0.6388 0.79226 0.49398 0.0
C3449 C 0.62214 0.79294 0.49378 0.0
C3450 C 0.62074 0.80634 0.48444 0.0
C3451 C 0.63604 0.81915 0.47534 0.0
C3452 C 0.68518 0.84321 0.39524 0.0
C3453 C 0.66887 0.84316 0.39012 0.0
C3454 C 0.68964 0.84458 0.41138 0.0
C3455 C 0.67832 0.84677 0.42272 0.0
C3456 C 0.66264 0.84793 0.41743 0.0
C3457 C 0.65778 0.84582 0.4013 0.0
C3458 C 0.68191 0.84633 0.44007 0.0
C3459 C 0.6668 0.83406 0.44978 0.0
C3460 C 0.70009 0.85707 0.44697 0.0
C3461 C 0.71674 0.87035 0.43759 0.0
C3462 C 0.71666 0.88489 0.42869 0.0
C3463 C 0.73217 0.89685 0.41941 0.0
C3464 C 0.74792 0.89453 0.41907 0.0
C3465 C 0.74823 0.8803 0.42806 0.0
C3466 C 0.73274 0.86827 0.43733 0.0
H3467 H 0.75989 0.90377 0.41184 0.0
H3468 H 0.61029 0.78306 0.50083 0.0
H3469 H 0.17287 0.88351 0.51531 0.0
H3470 H 0.17531 0.88034 0.48696 0.0
H3471 H 0.13848 0.81976 0.49017 0.0
H3472 H 0.13714 0.82264 0.51902 0.0
H3473 H 0.16521 0.82627 0.47099 0.0
H3474 H 0.12362 0.85007 0.47528 0.0
H3475 H 0.11148 0.87075 0.48427 0.0
H3476 H 0.15759 0.91849 0.46173 0.0
H3477 H 0.17021 0.89817 0.45284 0.0
H3478 H 0.1436 0.81369 0.3895 0.0
H3479 H 0.14067 0.81846 0.4176 0.0
H3480 H 0.19146 0.873 0.41591 0.0
H3481 H 0.19481 0.86798 0.38736 0.0
H3482 H 0.15721 0.86897 0.43386 0.0
H3483 H 0.19686 0.84044 0.42916 0.0
H3484 H 0.20459 0.81633 0.42004 0.0
H3485 H 0.15517 0.77266 0.44269 0.0
H3486 H 0.14695 0.79645 0.45171 0.0
C3487 C 0.16553 0.86942 0.51013 0.0
C3488 C 0.15495 0.8533 0.51957 0.0
C3489 C 0.16667 0.86768 0.49379 0.0
C3490 C 0.1568 0.84987 0.48634 0.0
C3491 C 0.14616 0.83369 0.49565 0.0
C3492 C 0.14525 0.83538 0.51213 0.0
C3493 C 0.15809 0.84832 0.46888 0.0
C3494 C 0.16322 0.83545 0.46288 0.0
C3495 C 0.15554 0.86032 0.45825 0.0
C3496 C 0.14798 0.87262 0.46354 0.0
C3497 C 0.13127 0.86501 0.47236 0.0
C3498 C 0.12429 0.87667 0.47743 0.0
C3499 C 0.13379 0.89593 0.47362 0.0
C3500 C 0.15027 0.90357 0.4647 0.0
C3501 C 0.15734 0.89199 0.45964 0.0
C3502 C 0.15406 0.82686 0.39505 0.0
C3503 C 0.16959 0.8404 0.38639 0.0
C3504 C 0.15238 0.82948 0.41109 0.0
C3505 C 0.16606 0.84583 0.41882 0.0
C3506 C 0.18091 0.86016 0.41005 0.0
C3507 C 0.18276 0.8574 0.39382 0.0
C3508 C 0.16476 0.84733 0.43617 0.0
C3509 C 0.15937 0.85998 0.44208 0.0
C3510 C 0.16635 0.83461 0.44663 0.0
C3511 C 0.17118 0.82025 0.44097 0.0
C3512 C 0.1875 0.82568 0.43203 0.0
C3513 C 0.192 0.81207 0.42692 0.0
C3514 C 0.18035 0.79298 0.43075 0.0
C3515 C 0.16417 0.78745 0.43971 0.0
C3516 C 0.15959 0.801 0.44482 0.0
H3517 H 0.18389 0.78247 0.42681 0.0
H3518 H 0.12837 0.90494 0.47755 0.0
H3519 H 0.60195 0.78712 0.16025 0.0
H3520 H 0.60921 0.79114 0.18873 0.0
H3521 H 0.66173 0.84219 0.17933 0.0
H3522 H 0.65424 0.83839 0.15075 0.0
H3523 H 0.66475 0.81452 0.19787 0.0
H3524 H 0.63158 0.84822 0.19702 0.0
H3525 H 0.60554 0.85384 0.19028 0.0
H3526 H 0.56768 0.80576 0.2181 0.0
H3527 H 0.59346 0.79965 0.22481 0.0
H3528 H 0.69214 0.84607 0.2762 0.0
H3529 H 0.68384 0.84001 0.24839 0.0
H3530 H 0.62753 0.7967 0.26074 0.0
H3531 H 0.63562 0.80392 0.28906 0.0
H3532 H 0.62606 0.8201 0.24032 0.0
H3533 H 0.66197 0.7876 0.2411 0.0
H3534 H 0.68987 0.78499 0.2478 0.0
H3535 H 0.72455 0.83423 0.21983 0.0
H3536 H 0.69691 0.83724 0.21309 0.0
C3537 C 0.61491 0.79933 0.16434 0.0
C3538 C 0.62761 0.81243 0.15345 0.0
C3539 C 0.61901 0.80164 0.18054 0.0
C3540 C 0.63599 0.81694 0.18608 0.0
C3541 C 0.64855 0.8303 0.17524 0.0
C3542 C 0.64427 0.82817 0.159 0.0
C3543 C 0.64107 0.81809 0.20306 0.0
C3544 C 0.65644 0.81594 0.20719 0.0
C3545 C 0.62997 0.81962 0.2151 0.0
C3546 C 0.61443 0.82334 0.21128 0.0
C3547 C 0.61767 0.83873 0.20159 0.0
C3548 C 0.60296 0.84203 0.1978 0.0
C3549 C 0.58496 0.83013 0.20372 0.0
C3550 C 0.58164 0.81495 0.2135 0.0
C3551 C 0.5963 0.81157 0.21732 0.0
C3552 C 0.67815 0.83475 0.27302 0.0
C3553 C 0.66452 0.82546 0.28477 0.0
C3554 C 0.67341 0.83125 0.25704 0.0
C3555 C 0.65509 0.81774 0.25233 0.0
C3556 C 0.64178 0.8072 0.26407 0.0
C3557 C 0.64647 0.81104 0.28025 0.0
C3558 C 0.64966 0.81619 0.23527 0.0
C3559 C 0.63425 0.81839 0.23107 0.0
C3560 C 0.66089 0.81495 0.2231 0.0
C3561 C 0.67736 0.81265 0.22662 0.0
C3562 C 0.67555 0.79786 0.23638 0.0
C3563 C 0.69132 0.79632 0.2402 0.0
C3564 C 0.70897 0.80944 0.23426 0.0
C3565 C 0.71087 0.82406 0.22441 0.0
C3566 C 0.69514 0.82565 0.22054 0.0
H3567 H 0.72117 0.80827 0.23728 0.0
H3568 H 0.57358 0.83269 0.20076 0.0
H3569 H 0.15297 0.80419 0.14829 0.0
H3570 H 0.15004 0.809 0.17646 0.0
H3571 H 0.20928 0.82956 0.18327 0.0
H3572 H 0.21214 0.8239 0.15514 0.0
H3573 H 0.18992 0.80483 0.20526 0.0
H3574 H 0.1914 0.85977 0.18486 0.0
H3575 H 0.18278 0.87842 0.1673 0.0
H3576 H 0.12615 0.84847 0.18459 0.0
H3577 H 0.13436 0.82943 0.2021 0.0
H3578 H 0.18985 0.83482 0.28463 0.0
H3579 H 0.19552 0.83236 0.25661 0.0
H3580 H 0.13707 0.81281 0.24612 0.0
H3581 H 0.1319 0.81707 0.27421 0.0
H3582 H 0.15813 0.83861 0.22599 0.0
H3583 H 0.15992 0.78463 0.2483 0.0
H3584 H 0.17264 0.77156 0.26787 0.0
H3585 H 0.22733 0.80299 0.24691 0.0
H3586 H 0.21527 0.81738 0.22796 0.0
C3587 C 0.16539 0.80971 0.15577 0.0
C3588 C 0.18276 0.81353 0.14949 0.0
C3589 C 0.16374 0.81267 0.17185 0.0
C3590 C 0.17947 0.81978 0.18196 0.0
C3591 C 0.19696 0.82407 0.17567 0.0
C3592 C 0.19861 0.821 0.15957 0.0
C3593 C 0.17735 0.82173 0.19922 0.0
C3594 C 0.18318 0.81241 0.20983 0.0
C3595 C 0.16846 0.83154 0.20515 0.0
C3596 C 0.16346 0.84304 0.1947 0.0
C3597 C 0.17707 0.85705 0.18483 0.0
C3598 C 0.17226 0.86771 0.1749 0.0
C3599 C 0.15392 0.8646 0.1748 0.0
C3600 C 0.14036 0.85085 0.18467 0.0
C3601 C 0.14508 0.84013 0.19462 0.0
C3602 C 0.17809 0.82935 0.27639 0.0
C3603 C 0.16029 0.82548 0.28152 0.0
C3604 C 0.18135 0.82807 0.26035 0.0
C3605 C 0.16664 0.822 0.24923 0.0
C3606 C 0.14861 0.81741 0.25449 0.0
C3607 C 0.14553 0.81945 0.27052 0.0
C3608 C 0.17025 0.82127 0.23205 0.0
C3609 C 0.16477 0.83092 0.22144 0.0
C3610 C 0.17984 0.81209 0.22617 0.0
C3611 C 0.18669 0.80224 0.23678 0.0
C3612 C 0.17468 0.78883 0.24789 0.0
C3613 C 0.18182 0.78129 0.25896 0.0
C3614 C 0.20078 0.78638 0.25862 0.0
C3615 C 0.21266 0.79908 0.24721 0.0
C3616 C 0.2057 0.80707 0.23638 0.0
H3617 H 0.20627 0.78049 0.26718 0.0
H3618 H 0.15022 0.87286 0.1671 0.0
H3619 H 0.21113 0.39153 0.16083 0.0
H3620 H 0.20751 0.38382 0.18911 0.0
H3621 H 0.15248 0.33561 0.1797 0.0
H3622 H 0.15585 0.34373 0.15153 0.0
H3623 H 0.15008 0.35506 0.20253 0.0
H3624 H 0.19086 0.33098 0.19113 0.0
H3625 H 0.21886 0.33114 0.1805 0.0
H3626 H 0.25431 0.37692 0.21207 0.0
H3627 H 0.22652 0.37722 0.22275 0.0
H3628 H 0.13926 0.30943 0.27776 0.0
H3629 H 0.14302 0.31817 0.24965 0.0
H3630 H 0.1883 0.37412 0.26181 0.0
H3631 H 0.18412 0.36559 0.29003 0.0
H3632 H 0.19636 0.35136 0.23816 0.0
H3633 H 0.15241 0.37234 0.25003 0.0
H3634 H 0.12275 0.3684 0.2607 0.0
H3635 H 0.09129 0.32306 0.22749 0.0
H3636 H 0.12078 0.32656 0.21681 0.0
C3637 C 0.19842 0.37912 0.16482 0.0
C3638 C 0.18369 0.36828 0.15412 0.0
C3639 C 0.19638 0.37467 0.18095 0.0
C3640 C 0.17973 0.35909 0.18653 0.0
C3641 C 0.16538 0.34777 0.17568 0.0
C3642 C 0.1673 0.35238 0.15962 0.0
C3643 C 0.17656 0.35552 0.20379 0.0
C3644 C 0.16012 0.35398 0.21025 0.0
C3645 C 0.1898 0.35445 0.21392 0.0
C3646 C 0.20659 0.35426 0.20763 0.0
C3647 C 0.20463 0.34119 0.19572 0.0
C3648 C 0.22047 0.34118 0.1897 0.0
C3649 C 0.23836 0.35407 0.19557 0.0
C3650 C 0.24044 0.36696 0.20752 0.0
C3651 C 0.22464 0.36704 0.21358 0.0
C3652 C 0.14937 0.32386 0.27445 0.0
C3653 C 0.16111 0.337 0.28597 0.0
C3654 C 0.15172 0.32873 0.25844 0.0
C3655 C 0.1661 0.34667 0.25373 0.0
C3656 C 0.1772 0.36018 0.26528 0.0
C3657 C 0.17455 0.35544 0.28135 0.0
C3658 C 0.16994 0.3509 0.2367 0.0
C3659 C 0.18646 0.35251 0.23034 0.0
C3660 C 0.15657 0.35153 0.22654 0.0
C3661 C 0.13881 0.34967 0.2327 0.0
C3662 C 0.13916 0.36149 0.24506 0.0
C3663 C 0.12238 0.35934 0.2511 0.0
C3664 C 0.10514 0.34548 0.24478 0.0
C3665 C 0.10466 0.33379 0.23237 0.0
C3666 C 0.12141 0.33587 0.22631 0.0
H3667 H 0.09216 0.34381 0.24949 0.0
H3668 H 0.2506 0.35405 0.19089 0.0
H3669 H 0.78505 0.62271 0.84792 0.0
H3670 H 0.79208 0.62983 0.81993 0.0
H3671 H 0.85136 0.6549 0.83013 0.0
H3672 H 0.84461 0.64938 0.85835 0.0
H3673 H 0.84578 0.67505 0.8088 0.0
H3674 H 0.82192 0.60663 0.81517 0.0
H3675 H 0.79753 0.57455 0.82334 0.0
H3676 H 0.7574 0.57771 0.79255 0.0
H3677 H 0.78151 0.60983 0.78429 0.0
H3678 H 0.87313 0.68149 0.72907 0.0
H3679 H 0.86908 0.67235 0.75716 0.0
H3680 H 0.80914 0.63772 0.74928 0.0
H3681 H 0.81358 0.64527 0.72122 0.0
H3682 H 0.81602 0.62192 0.77003 0.0
H3683 H 0.83447 0.68796 0.7645 0.0
H3684 H 0.8546 0.72154 0.75711 0.0
H3685 H 0.89947 0.72509 0.78599 0.0
H3686 H 0.87964 0.6915 0.79347 0.0
C3687 C 0.79963 0.63013 0.84433 0.0
C3688 C 0.81424 0.63529 0.8555 0.0
C3689 C 0.80361 0.63389 0.82823 0.0
C3690 C 0.82222 0.64238 0.82285 0.0
C3691 C 0.83686 0.6481 0.83397 0.0
C3692 C 0.83294 0.6447 0.85012 0.0
C3693 C 0.82652 0.64517 0.80565 0.0
C3694 C 0.83948 0.66341 0.80032 0.0
C3695 C 0.81776 0.63013 0.79449 0.0
C3696 C 0.80348 0.61062 0.79917 0.0
C3697 C 0.80789 0.60047 0.81017 0.0
C3698 C 0.79411 0.58229 0.81481 0.0
C3699 C 0.77592 0.57411 0.80848 0.0
C3700 C 0.77149 0.58405 0.79743 0.0
C3701 C 0.78521 0.60222 0.79274 0.0
C3702 C 0.85931 0.6712 0.73331 0.0
C3703 C 0.84372 0.66371 0.72305 0.0
C3704 C 0.85687 0.66634 0.74941 0.0
C3705 C 0.83869 0.65482 0.75557 0.0
C3706 C 0.82333 0.64657 0.74499 0.0
C3707 C 0.82587 0.65077 0.72889 0.0
C3708 C 0.83526 0.65196 0.77298 0.0
C3709 C 0.82247 0.63366 0.77842 0.0
C3710 C 0.84361 0.66712 0.78414 0.0
C3711 C 0.85567 0.68717 0.77937 0.0
C3712 C 0.84869 0.69587 0.76916 0.0
C3713 C 0.86002 0.71491 0.76498 0.0
C3714 C 0.87833 0.72542 0.77103 0.0
C3715 C 0.88532 0.71693 0.78128 0.0
C3716 C 0.87404 0.6979 0.7855 0.0
H3717 H 0.88707 0.74017 0.7678 0.0
H3718 H 0.76527 0.56005 0.81212 0.0
H3719 H 0.37225 0.2146 0.85308 0.0
H3720 H 0.36315 0.20936 0.82522 0.0
H3721 H 0.3392 0.14908 0.83124 0.0
H3722 H 0.3472 0.15398 0.85959 0.0
H3723 H 0.36776 0.16823 0.80616 0.0
H3724 H 0.30949 0.15933 0.82419 0.0
H3725 H 0.28882 0.16688 0.83989 0.0
H3726 H 0.30884 0.21909 0.81453 0.0
H3727 H 0.32992 0.21201 0.79884 0.0
H3728 H 0.33009 0.13859 0.73137 0.0
H3729 H 0.33613 0.14473 0.75918 0.0
H3730 H 0.34693 0.20189 0.75284 0.0
H3731 H 0.34012 0.19553 0.72404 0.0
H3732 H 0.32403 0.18428 0.77858 0.0
H3733 H 0.38793 0.19676 0.767 0.0
H3734 H 0.41342 0.19218 0.75689 0.0
H3735 H 0.38358 0.13385 0.77138 0.0
H3736 H 0.35825 0.13845 0.7823 0.0
C3737 C 0.36455 0.20013 0.8487 0.0
C3738 C 0.36026 0.1847 0.85873 0.0
C3739 C 0.35944 0.19721 0.83272 0.0
C3740 C 0.35026 0.17885 0.82631 0.0
C3741 C 0.34612 0.16335 0.8361 0.0
C3742 C 0.3509 0.16622 0.85224 0.0
C3743 C 0.34674 0.1763 0.80905 0.0
C3744 C 0.35794 0.17138 0.80013 0.0
C3745 C 0.33436 0.18105 0.80129 0.0
C3746 C 0.32145 0.18523 0.81044 0.0
C3747 C 0.30963 0.17251 0.82205 0.0
C3748 C 0.2978 0.17669 0.83093 0.0
C3749 C 0.29755 0.19349 0.82824 0.0
C3750 C 0.30907 0.20609 0.81661 0.0
C3751 C 0.32095 0.20199 0.8077 0.0
C3752 C 0.33368 0.15259 0.73565 0.0
C3753 C 0.33432 0.16653 0.72534 0.0
C3754 C 0.33745 0.15613 0.7517 0.0
C3755 C 0.34238 0.17385 0.75814 0.0
C3756 C 0.3433 0.1881 0.74804 0.0
C3757 C 0.33947 0.18452 0.73164 0.0
C3758 C 0.34538 0.17649 0.77557 0.0
C3759 C 0.33391 0.18122 0.78458 0.0
C3760 C 0.35752 0.17153 0.78356 0.0
C3761 C 0.37113 0.16787 0.77516 0.0
C3762 C 0.38666 0.18287 0.76773 0.0
C3763 C 0.40117 0.18031 0.76201 0.0
C3764 C 0.40008 0.16266 0.76332 0.0
C3765 C 0.3844 0.1475 0.77033 0.0
C3766 C 0.37003 0.15012 0.7764 0.0
H3767 H 0.41143 0.16076 0.75904 0.0
H3768 H 0.28841 0.19671 0.83515 0.0
H3769 H 0.79218 0.16785 0.85047 0.0
H3770 H 0.7946 0.16176 0.82241 0.0
H3771 H 0.85488 0.18914 0.82704 0.0
H3772 H 0.85265 0.19446 0.85532 0.0
H3773 H 0.8343 0.20398 0.80418 0.0
H3774 H 0.83832 0.14807 0.82025 0.0
H3775 H 0.825 0.11728 0.83387 0.0
H3776 H 0.77541 0.09507 0.80463 0.0
H3777 H 0.78832 0.12582 0.791 0.0
H3778 H 0.86317 0.18816 0.72551 0.0
H3779 H 0.86082 0.19303 0.75421 0.0
H3780 H 0.80041 0.15887 0.75098 0.0
H3781 H 0.80265 0.1549 0.72251 0.0
H3782 H 0.82001 0.1462 0.77341 0.0
H3783 H 0.80913 0.19442 0.75846 0.0
H3784 H 0.81038 0.22321 0.74817 0.0
H3785 H 0.85858 0.25758 0.77765 0.0
H3786 H 0.85874 0.22913 0.78692 0.0
C3787 C 0.80593 0.17205 0.84571 0.0
C3788 C 0.82227 0.18183 0.85517 0.0
C3789 C 0.80725 0.16857 0.82965 0.0
C3790 C 0.82489 0.17494 0.82279 0.0
C3791 C 0.84114 0.18405 0.83224 0.0
C3792 C 0.83984 0.18729 0.84833 0.0
C3793 C 0.8266 0.17466 0.80542 0.0
C3794 C 0.83178 0.19156 0.79739 0.0
C3795 C 0.8217 0.15793 0.79676 0.0
C3796 C 0.81424 0.13931 0.80468 0.0
C3797 C 0.82453 0.13667 0.8168 0.0
C3798 C 0.81705 0.11921 0.8245 0.0
C3799 C 0.79935 0.10424 0.82014 0.0
C3800 C 0.78912 0.10667 0.808 0.0
C3801 C 0.79652 0.1241 0.80027 0.0
C3802 C 0.84945 0.18255 0.73086 0.0
C3803 C 0.83308 0.17143 0.72189 0.0
C3804 C 0.84809 0.18509 0.74721 0.0
C3805 C 0.83042 0.17614 0.75463 0.0
C3806 C 0.81413 0.16585 0.74545 0.0
C3807 C 0.81544 0.16378 0.72921 0.0
C3808 C 0.82884 0.17599 0.77209 0.0
C3809 C 0.82327 0.15889 0.78014 0.0
C3810 C 0.83231 0.19231 0.78077 0.0
C3811 C 0.83428 0.20955 0.77307 0.0
C3812 C 0.82061 0.20812 0.76213 0.0
C3813 C 0.82101 0.22443 0.75649 0.0
C3814 C 0.83467 0.24226 0.76207 0.0
C3815 C 0.84821 0.24383 0.77303 0.0
C3816 C 0.84822 0.22762 0.77832 0.0
H3817 H 0.8346 0.25483 0.75803 0.0
H3818 H 0.79358 0.09075 0.82614 0.0
H3819 H 0.2746 0.1514 0.49226 0.0
H3820 H 0.28211 0.15569 0.52062 0.0
H3821 H 0.32957 0.14771 0.51239 0.0
H3822 H 0.32166 0.1428 0.48406 0.0
H3823 H 0.31109 0.12753 0.53636 0.0
H3824 H 0.33428 0.19217 0.52223 0.0
H3825 H 0.33369 0.2196 0.51052 0.0
H3826 H 0.28825 0.21034 0.54114 0.0
H3827 H 0.28836 0.18269 0.55288 0.0
H3828 H 0.34401 0.15697 0.6174 0.0
H3829 H 0.33994 0.15121 0.58862 0.0
H3830 H 0.28977 0.15572 0.59002 0.0
H3831 H 0.29424 0.16212 0.61851 0.0
H3832 H 0.31357 0.17943 0.56916 0.0
H3833 H 0.28947 0.1132 0.5819 0.0
H3834 H 0.29092 0.08623 0.59363 0.0
H3835 H 0.33954 0.09951 0.56567 0.0
H3836 H 0.33854 0.12673 0.55395 0.0
C3837 C 0.2868 0.15086 0.49649 0.0
C3838 C 0.29755 0.14676 0.486 0.0
C3839 C 0.29113 0.15336 0.5127 0.0
C3840 C 0.30655 0.15223 0.51868 0.0
C3841 C 0.31758 0.1486 0.5081 0.0
C3842 C 0.31308 0.14583 0.49193 0.0
C3843 C 0.31045 0.1537 0.53605 0.0
C3844 C 0.31195 0.13906 0.54349 0.0
C3845 C 0.31136 0.16861 0.54544 0.0
C3846 C 0.31123 0.18523 0.53834 0.0
C3847 C 0.32406 0.19588 0.52638 0.0
C3848 C 0.32383 0.21149 0.51975 0.0
C3849 C 0.31092 0.21668 0.52505 0.0
C3850 C 0.29823 0.2063 0.53703 0.0
C3851 C 0.29839 0.19066 0.54368 0.0
C3852 C 0.33179 0.15606 0.61159 0.0
C3853 C 0.31942 0.15996 0.62007 0.0
C3854 C 0.3295 0.15286 0.59515 0.0
C3855 C 0.31461 0.15319 0.58711 0.0
C3856 C 0.30147 0.15561 0.5959 0.0
C3857 C 0.30393 0.1591 0.61219 0.0
C3858 C 0.31354 0.15294 0.56949 0.0
C3859 C 0.31278 0.16794 0.56199 0.0
C3860 C 0.31343 0.13845 0.56008 0.0
C3861 C 0.31405 0.12213 0.56718 0.0
C3862 C 0.30057 0.11048 0.57837 0.0
C3863 C 0.30129 0.09512 0.58499 0.0
C3864 C 0.31534 0.09119 0.58043 0.0
C3865 C 0.32868 0.10259 0.56922 0.0
C3866 C 0.32804 0.11797 0.56257 0.0
H3867 H 0.31586 0.07929 0.58556 0.0
H3868 H 0.31077 0.22877 0.51991 0.0
H3869 H 0.86608 0.17362 0.48436 0.0
H3870 H 0.86341 0.1777 0.51293 0.0
H3871 H 0.82893 0.11713 0.51804 0.0
H3872 H 0.83231 0.11274 0.48991 0.0
H3873 H 0.81437 0.14217 0.53107 0.0
H3874 H 0.86897 0.13291 0.53045 0.0
H3875 H 0.90105 0.14141 0.52231 0.0
H3876 H 0.92261 0.19723 0.54217 0.0
H3877 H 0.8906 0.18913 0.55024 0.0
H3878 H 0.80436 0.13017 0.615 0.0
H3879 H 0.80978 0.12574 0.58685 0.0
H3880 H 0.85733 0.18272 0.58601 0.0
H3881 H 0.85215 0.18698 0.61367 0.0
H3882 H 0.86588 0.16065 0.57038 0.0
H3883 H 0.81595 0.17385 0.57075 0.0
H3884 H 0.78539 0.17062 0.57785 0.0
H3885 H 0.75669 0.1146 0.55747 0.0
H3886 H 0.78713 0.11742 0.55043 0.0
C3887 C 0.85817 0.16113 0.49158 0.0
C3888 C 0.8492 0.14284 0.4847 0.0
C3889 C 0.85658 0.16352 0.50787 0.0
C3890 C 0.84585 0.14769 0.51748 0.0
C3891 C 0.83709 0.1295 0.51074 0.0
C3892 C 0.83893 0.12707 0.4946 0.0
C3893 C 0.84331 0.14988 0.53456 0.0
C3894 C 0.82552 0.14596 0.53974 0.0
C3895 C 0.85814 0.15562 0.54566 0.0
C3896 C 0.87736 0.16048 0.54077 0.0
C3897 C 0.88052 0.14706 0.53293 0.0
C3898 C 0.8987 0.15179 0.52837 0.0
C3899 C 0.91385 0.16987 0.53168 0.0
C3900 C 0.91086 0.18324 0.53959 0.0
C3901 C 0.8927 0.17858 0.54417 0.0
C3902 C 0.81605 0.14153 0.60876 0.0
C3903 C 0.82772 0.15893 0.61637 0.0
C3904 C 0.8191 0.1391 0.59273 0.0
C3905 C 0.83387 0.15401 0.58428 0.0
C3906 C 0.84589 0.17102 0.59221 0.0
C3907 C 0.84285 0.17344 0.60802 0.0
C3908 C 0.8367 0.15243 0.56707 0.0
C3909 C 0.8546 0.15667 0.5618 0.0
C3910 C 0.82216 0.14766 0.55581 0.0
C3911 C 0.80382 0.14573 0.56028 0.0
C3912 C 0.80313 0.16075 0.56795 0.0
C3913 C 0.78583 0.15902 0.57192 0.0
C3914 C 0.76911 0.14238 0.56817 0.0
C3915 C 0.76966 0.12746 0.56041 0.0
C3916 C 0.78693 0.12911 0.55642 0.0
H3917 H 0.75573 0.14108 0.57123 0.0
H3918 H 0.92791 0.1735 0.52815 0.0
H3919 H 0.81939 0.68481 0.48779 0.0
H3920 H 0.81713 0.67918 0.5163 0.0
H3921 H 0.8775 0.71148 0.52063 0.0
H3922 H 0.88 0.71835 0.4922 0.0
H3923 H 0.85536 0.67295 0.5379 0.0
H3924 H 0.86243 0.7344 0.53155 0.0
H3925 H 0.85628 0.75889 0.52076 0.0
H3926 H 0.79929 0.72775 0.53709 0.0
H3927 H 0.80497 0.70282 0.54764 0.0
H3928 H 0.85896 0.69062 0.62197 0.0
H3929 H 0.86412 0.69771 0.59363 0.0
H3930 H 0.80436 0.66464 0.58507 0.0
H3931 H 0.79923 0.65655 0.61345 0.0
H3932 H 0.82826 0.70457 0.57011 0.0
H3933 H 0.82243 0.64297 0.57695 0.0
H3934 H 0.82964 0.61902 0.58724 0.0
H3935 H 0.88621 0.65155 0.57022 0.0
H3936 H 0.87949 0.67597 0.56017 0.0
C3937 C 0.83224 0.6909 0.49476 0.0
C3938 C 0.84987 0.70238 0.48769 0.0
C3939 C 0.83089 0.6875 0.51102 0.0
C3940 C 0.84713 0.69513 0.52047 0.0
C3941 C 0.86483 0.70555 0.51343 0.0
C3942 C 0.8662 0.70934 0.49716 0.0
C3943 C 0.84533 0.69281 0.53781 0.0
C3944 C 0.84973 0.68006 0.54505 0.0
C3945 C 0.83771 0.70194 0.54693 0.0
C3946 C 0.83403 0.71655 0.54011 0.0
C3947 C 0.84848 0.73257 0.53256 0.0
C3948 C 0.84511 0.74659 0.52655 0.0
C3949 C 0.82738 0.74483 0.52816 0.0
C3950 C 0.81299 0.72905 0.53579 0.0
C3951 C 0.81627 0.71496 0.54176 0.0
C3952 C 0.84687 0.6855 0.61411 0.0
C3953 C 0.82864 0.67349 0.61983 0.0
C3954 C 0.84988 0.68924 0.59795 0.0
C3955 C 0.83465 0.68137 0.58736 0.0
C3956 C 0.81626 0.67062 0.59317 0.0
C3957 C 0.81329 0.66633 0.60933 0.0
C3958 C 0.83802 0.68449 0.57021 0.0
C3959 C 0.83396 0.69749 0.56301 0.0
C3960 C 0.84618 0.67572 0.56122 0.0
C3961 C 0.85054 0.66156 0.56811 0.0
C3962 C 0.83653 0.64528 0.57573 0.0
C3963 C 0.84051 0.63154 0.58143 0.0
C3964 C 0.8584 0.63381 0.57947 0.0
C3965 C 0.87238 0.64985 0.57182 0.0
C3966 C 0.8685 0.66367 0.56614 0.0
H3967 H 0.86141 0.6231 0.5838 0.0
H3968 H 0.82481 0.75574 0.52357 0.0
loop_
_geom_bond_atom_site_label_1
_geom_bond_atom_site_label_2
_geom_bond_distance
_geom_bond_site_symmetry_2
_ccdc_geom_bond_type
C0 C1 1.391 . S
C0 C4 1.391 . S
C0 H42 0.948 . S
C1 C0 1.391 . S
C1 C2 1.391 . S
C2 C1 1.391 . S
C2 H58 0.947 . S
C2 C59 1.392 . S
C3 C4 1.391 . S
C3 C7 1.397 . S
C3 C59 1.419 . S
C4 C0 1.391 . S
C4 C3 1.391 . S
C4 C5 1.399 . S
C5 C4 1.399 . S
C5 C8 1.396 . S
C5 C17 1.453 . S
C5 C18 1.684 . S
H6 C30 0.948 . S
C7 C3 1.397 . S
C7 C8 1.394 . S
C7 C26 1.723 . S
C8 C5 1.396 . S
C8 C7 1.394 . S
C8 C38 1.723 . S
H9 C32 0.947 . S
H10 C33 0.948 . S
H11 C39 0.982 . S
H12 C40 0.979 . S
H13 C40 0.980 . S
H14 C40 0.983 . S
H15 C39 0.979 . S
H16 C39 0.977 . S
C17 C5 1.453 . S
C17 H46 0.982 . S
C17 H47 0.979 . S
C17 H48 0.977 . S
C18 C5 1.684 . S
C18 H43 0.979 . S
C18 H44 0.980 . S
C18 H45 0.983 . S
C19 C20 1.391 . S
C19 C24 1.391 . S
C19 H49 0.948 . S
C20 C19 1.391 . S
C20 C21 1.391 . S
C21 C20 1.391 . S
C21 C22 1.392 . S
C21 H50 0.947 . S
C22 C21 1.392 . S
C22 C23 1.419 . S
C22 H51 0.948 . S
C23 C22 1.419 . S
C23 C24 1.391 . S
C23 C27 1.397 . S
C24 C19 1.391 . S
C24 C23 1.391 . S
C24 C25 1.399 . S
C25 C24 1.399 . S
C25 C26 1.396 . S
C25 C28 1.453 . S
C25 C29 1.684 . S
C26 C7 1.723 . S
C26 C25 1.396 . S
C26 C27 1.394 . S
C27 C23 1.397 . S
C27 C26 1.394 . S
C27 C37 1.723 . S
C28 C25 1.453 . S
C28 H52 0.982 . S
C28 H53 0.979 . S
C28 H54 0.977 . S
C29 C25 1.684 . S
C29 H55 0.979 . S
C29 H56 0.980 . S
C29 H57 0.983 . S
C30 H6 0.948 . S
C30 C31 1.391 . S
C30 C35 1.391 . S
C31 C30 1.391 . S
C31 C32 1.391 . S
C32 H9 0.947 . S
C32 C31 1.391 . S
C32 C33 1.392 . S
C33 H10 0.948 . S
C33 C32 1.392 . S
C33 C34 1.419 . S
C34 C33 1.419 . S
C34 C35 1.391 . S
C34 C38 1.397 . S
C35 C30 1.391 . S
C35 C34 1.391 . S
C35 C36 1.399 . S
C36 C35 1.399 . S
C36 C37 1.396 . S
C36 C39 1.453 . S
C36 C40 1.684 . S
C37 C27 1.723 . S
C37 C36 1.396 . S
C37 C38 1.394 . S
C38 C8 1.723 . S
C38 C34 1.397 . S
C38 C37 1.394 . S
C39 H11 0.982 . S
C39 H15 0.979 . S
C39 H16 0.977 . S
C39 C36 1.453 . S
C40 H12 0.979 . S
C40 H13 0.980 . S
C40 H14 0.983 . S
C40 C36 1.684 . S
H41 C59 0.948 . S
H42 C0 0.948 . S
H43 C18 0.979 . S
H44 C18 0.980 . S
H45 C18 0.983 . S
H46 C17 0.982 . S
H47 C17 0.979 . S
H48 C17 0.977 . S
H49 C19 0.948 . S
H50 C21 0.947 . S
H51 C22 0.948 . S
H52 C28 0.982 . S
H53 C28 0.979 . S
H54 C28 0.977 . S
H55 C29 0.979 . S
H56 C29 0.980 . S
H57 C29 0.983 . S
H58 C2 0.947 . S
C59 C2 1.392 . S
C59 C3 1.419 . S
C59 H41 0.948 . S
C60 C61 1.391 . S
C60 C64 1.391 . S
C60 H102 0.948 . S
C61 C60 1.391 . S
C61 C62 1.391 . S
C62 C61 1.391 . S
C62 H118 0.947 . S
C62 C119 1.392 . S
C63 C64 1.391 . S
C63 C67 1.397 . S
C63 C119 1.419 . S
C64 C60 1.391 . S
C64 C63 1.391 . S
C64 C65 1.399 . S
C65 C64 1.399 . S
C65 C68 1.396 . S
C65 C77 1.453 . S
C65 C78 1.684 . S
H66 C90 0.948 . S
C67 C63 1.397 . S
C67 C68 1.394 . S
C67 C86 1.723 . S
C68 C65 1.396 . S
C68 C67 1.394 . S
C68 C98 1.723 . S
H69 C92 0.947 . S
H70 C93 0.948 . S
H71 C99 0.982 . S
H72 C100 0.979 . S
H73 C100 0.980 . S
H74 C100 0.983 . S
H75 C99 0.979 . S
H76 C99 0.977 . S
C77 C65 1.453 . S
C77 H106 0.982 . S
C77 H107 0.979 . S
C77 H108 0.977 . S
C78 C65 1.684 . S
C78 H103 0.979 . S
C78 H104 0.980 . S
C78 H105 0.983 . S
C79 C80 1.391 . S
C79 C84 1.391 . S
C79 H109 0.948 . S
C80 C79 1.391 . S
C80 C81 1.391 . S
C81 C80 1.391 . S
C81 C82 1.392 . S
C81 H110 0.947 . S
C82 C81 1.392 . S
C82 C83 1.419 . S
C82 H111 0.948 . S
C83 C82 1.419 . S
C83 C84 1.391 . S
C83 C87 1.397 . S
C84 C79 1.391 . S
C84 C83 1.391 . S
C84 C85 1.399 . S
C85 C84 1.399 . S
C85 C86 1.396 . S
C85 C88 1.453 . S
C85 C89 1.684 . S
C86 C67 1.723 . S
C86 C85 1.396 . S
C86 C87 1.394 . S
C87 C83 1.397 . S
C87 C86 1.394 . S
C87 C97 1.723 . S
C88 C85 1.453 . S
C88 H112 0.982 . S
C88 H113 0.979 . S
C88 H114 0.977 . S
C89 C85 1.684 . S
C89 H115 0.979 . S
C89 H116 0.980 . S
C89 H117 0.983 . S
C90 H66 0.948 . S
C90 C91 1.391 . S
C90 C95 1.391 . S
C91 C90 1.391 . S
C91 C92 1.391 . S
C92 H69 0.947 . S
C92 C91 1.391 . S
C92 C93 1.392 . S
C93 H70 0.948 . S
C93 C92 1.392 . S
C93 C94 1.419 . S
C94 C93 1.419 . S
C94 C95 1.391 . S
C94 C98 1.397 . S
C95 C90 1.391 . S
C95 C94 1.391 . S
C95 C96 1.399 . S
C96 C95 1.399 . S
C96 C97 1.396 . S
C96 C99 1.453 . S
C96 C100 1.684 . S
C97 C87 1.723 . S
C97 C96 1.396 . S
C97 C98 1.394 . S
C98 C68 1.723 . S
C98 C94 1.397 . S
C98 C97 1.394 . S
C99 H71 0.982 . S
C99 H75 0.979 . S
C99 H76 0.977 . S
C99 C96 1.453 . S
C100 H72 0.979 . S
C100 H73 0.980 . S
C100 H74 0.983 . S
C100 C96 1.684 . S
H101 C119 0.948 . S
H102 C60 0.948 . S
H103 C78 0.979 . S
H104 C78 0.980 . S
H105 C78 0.983 . S
H106 C77 0.982 . S
H107 C77 0.979 . S
H108 C77 0.977 . S
H109 C79 0.948 . S
H110 C81 0.947 . S
H111 C82 0.948 . S
H112 C88 0.982 . S
H113 C88 0.979 . S
H114 C88 0.977 . S
H115 C89 0.979 . S
H116 C89 0.980 . S
H117 C89 0.983 . S
H118 C62 0.947 . S
C119 C62 1.392 . S
C119 C63 1.419 . S
C119 H101 0.948 . S
C120 C121 1.391 . S
C120 C124 1.391 . S
C120 H162 0.948 . S
C121 C120 1.391 . S
C121 C122 1.391 . S
C122 C121 1.391 . S
C122 H178 0.947 . S
C122 C179 1.392 . S
C123 C124 1.391 . S
C123 C127 1.397 . S
C123 C179 1.419 . S
C124 C120 1.391 . S
C124 C123 1.391 . S
C124 C125 1.399 . S
C125 C124 1.399 . S
C125 C128 1.396 . S
C125 C137 1.453 . S
C125 C138 1.684 . S
H126 C150 0.948 . S
C127 C123 1.397 . S
C127 C128 1.394 . S
C127 C146 1.723 . S
C128 C125 1.396 . S
C128 C127 1.394 . S
C128 C158 1.723 . S
H129 C152 0.947 . S
H130 C153 0.948 . S
H131 C159 0.982 . S
H132 C160 0.979 . S
H133 C160 0.980 . S
H134 C160 0.983 . S
H135 C159 0.979 . S
H136 C159 0.977 . S
C137 C125 1.453 . S
C137 H166 0.982 . S
C137 H167 0.979 . S
C137 H168 0.977 . S
C138 C125 1.684 . S
C138 H163 0.979 . S
C138 H164 0.980 . S
C138 H165 0.983 . S
C139 C140 1.391 . S
C139 C144 1.391 . S
C139 H169 0.948 . S
C140 C139 1.391 . S
C140 C141 1.391 . S
C141 C140 1.391 . S
C141 C142 1.392 . S
C141 H170 0.947 . S
C142 C141 1.392 . S
C142 C143 1.419 . S
C142 H171 0.948 . S
C143 C142 1.419 . S
C143 C144 1.391 . S
C143 C147 1.397 . S
C144 C139 1.391 . S
C144 C143 1.391 . S
C144 C145 1.399 . S
C145 C144 1.399 . S
C145 C146 1.396 . S
C145 C148 1.453 . S
C145 C149 1.684 . S
C146 C127 1.723 . S
C146 C145 1.396 . S
C146 C147 1.394 . S
C147 C143 1.397 . S
C147 C146 1.394 . S
C147 C157 1.723 . S
C148 C145 1.453 . S
C148 H172 0.982 . S
C148 H173 0.979 . S
C148 H174 0.977 . S
C149 C145 1.684 . S
C149 H175 0.979 . S
C149 H176 0.980 . S
C149 H177 0.983 . S
C150 H126 0.948 . S
C150 C151 1.391 . S
C150 C155 1.391 . S
C151 C150 1.391 . S
C151 C152 1.391 . S
C152 H129 0.947 . S
C152 C151 1.391 . S
C152 C153 1.392 . S
C153 H130 0.948 . S
C153 C152 1.392 . S
C153 C154 1.419 . S
C154 C153 1.419 . S
C154 C155 1.391 . S
C154 C158 1.397 . S
C155 C150 1.391 . S
C155 C154 1.391 . S
C155 C156 1.399 . S
C156 C155 1.399 . S
C156 C157 1.396 . S
C156 C159 1.453 . S
C156 C160 1.684 . S
C157 C147 1.723 . S
C157 C156 1.396 . S
C157 C158 1.394 . S
C158 C128 1.723 . S
C158 C154 1.397 . S
C158 C157 1.394 . S
C159 H131 0.982 . S
C159 H135 0.979 . S
C159 H136 0.977 . S
C159 C156 1.453 . S
C160 H132 0.979 . S
C160 H133 0.980 . S
C160 H134 0.983 . S
C160 C156 1.684 . S
H161 C179 0.948 . S
H162 C120 0.948 . S
H163 C138 0.979 . S
H164 C138 0.980 . S
H165 C138 0.983 . S
H166 C137 0.982 . S
H167 C137 0.979 . S
H168 C137 0.977 . S
H169 C139 0.948 . S
H170 C141 0.947 . S
H171 C142 0.948 . S
H172 C148 0.982 . S
H173 C148 0.979 . S
H174 C148 0.977 . S
H175 C149 0.979 . S
H176 C149 0.980 . S
H177 C149 0.983 . S
H178 C122 0.947 . S
C179 C122 1.392 . S
C179 C123 1.419 . S
C179 H161 0.948 . S
C180 C181 1.391 . S
C180 C184 1.391 . S
C180 H222 0.948 . S
C181 C180 1.391 . S
C181 C182 1.391 . S
C182 C181 1.391 . S
C182 H238 0.947 . S
C182 C239 1.392 . S
C183 C184 1.391 . S
C183 C187 1.397 . S
C183 C239 1.419 . S
C184 C180 1.391 . S
C184 C183 1.391 . S
C184 C185 1.399 . S
C185 C184 1.399 . S
C185 C188 1.396 . S
C185 C197 1.453 . S
C185 C198 1.684 . S
H186 C210 0.948 . S
C187 C183 1.397 . S
C187 C188 1.394 . S
C187 C206 1.723 . S
C188 C185 1.396 . S
C188 C187 1.394 . S
C188 C218 1.723 . S
H189 C212 0.947 . S
H190 C213 0.948 . S
H191 C219 0.982 . S
H192 C220 0.979 . S
H193 C220 0.980 . S
H194 C220 0.983 . S
H195 C219 0.979 . S
H196 C219 0.977 . S
C197 C185 1.453 . S
C197 H226 0.982 . S
C197 H227 0.979 . S
C197 H228 0.977 . S
C198 C185 1.684 . S
C198 H223 0.979 . S
C198 H224 0.980 . S
C198 H225 0.983 . S
C199 C200 1.391 . S
C199 C204 1.391 . S
C199 H229 0.948 . S
C200 C199 1.391 . S
C200 C201 1.391 . S
C201 C200 1.391 . S
C201 C202 1.392 . S
C201 H230 0.947 . S
C202 C201 1.392 . S
C202 C203 1.419 . S
C202 H231 0.948 . S
C203 C202 1.419 . S
C203 C204 1.391 . S
C203 C207 1.397 . S
C204 C199 1.391 . S
C204 C203 1.391 . S
C204 C205 1.399 . S
C205 C204 1.399 . S
C205 C206 1.396 . S
C205 C208 1.453 . S
C205 C209 1.684 . S
C206 C187 1.723 . S
C206 C205 1.396 . S
C206 C207 1.394 . S
C207 C203 1.397 . S
C207 C206 1.394 . S
C207 C217 1.723 . S
C208 C205 1.453 . S
C208 H232 0.982 . S
C208 H233 0.979 . S
C208 H234 0.977 . S
C209 C205 1.684 . S
C209 H235 0.979 . S
C209 H236 0.980 . S
C209 H237 0.983 . S
C210 H186 0.948 . S
C210 C211 1.391 . S
C210 C215 1.391 . S
C211 C210 1.391 . S
C211 C212 1.391 . S
C212 H189 0.947 . S
C212 C211 1.391 . S
C212 C213 1.392 . S
C213 H190 0.948 . S
C213 C212 1.392 . S
C213 C214 1.419 . S
C214 C213 1.419 . S
C214 C215 1.391 . S
C214 C218 1.397 . S
C215 C210 1.391 . S
C215 C214 1.391 . S
C215 C216 1.399 . S
C216 C215 1.399 . S
C216 C217 1.396 . S
C216 C219 1.453 . S
C216 C220 1.684 . S
C217 C207 1.723 . S
C217 C216 1.396 . S
C217 C218 1.394 . S
C218 C188 1.723 . S
C218 C214 1.397 . S
C218 C217 1.394 . S
C219 H191 0.982 . S
C219 H195 0.979 . S
C219 H196 0.977 . S
C219 C216 1.453 . S
C220 H192 0.979 . S
C220 H193 0.980 . S
C220 H194 0.983 . S
C220 C216 1.684 . S
H221 C239 0.948 . S
H222 C180 0.948 . S
H223 C198 0.979 . S
H224 C198 0.980 . S
H225 C198 0.983 . S
H226 C197 0.982 . S
H227 C197 0.979 . S
H228 C197 0.977 . S
H229 C199 0.948 . S
H230 C201 0.947 . S
H231 C202 0.948 . S
H232 C208 0.982 . S
H233 C208 0.979 . S
H234 C208 0.977 . S
H235 C209 0.979 . S
H236 C209 0.980 . S
H237 C209 0.983 . S
H238 C182 0.947 . S
C239 C182 1.392 . S
C239 C183 1.419 . S
C239 H221 0.948 . S
C240 C241 1.391 . S
C240 C244 1.391 . S
C240 H282 0.948 . S
C241 C240 1.391 . S
C241 C242 1.391 . S
C242 C241 1.391 . S
C242 H298 0.947 . S
C242 C299 1.392 . S
C243 C244 1.391 . S
C243 C247 1.397 . S
C243 C299 1.419 . S
C244 C240 1.391 . S
C244 C243 1.391 . S
C244 C245 1.399 . S
C245 C244 1.399 . S
C245 C248 1.396 . S
C245 C257 1.453 . S
C245 C258 1.684 . S
H246 C270 0.948 . S
C247 C243 1.397 . S
C247 C248 1.394 . S
C247 C266 1.723 . S
C248 C245 1.396 . S
C248 C247 1.394 . S
C248 C278 1.723 . S
H249 C272 0.947 . S
H250 C273 0.948 . S
H251 C279 0.982 . S
H252 C280 0.979 . S
H253 C280 0.980 . S
H254 C280 0.983 . S
H255 C279 0.979 . S
H256 C279 0.977 . S
C257 C245 1.453 . S
C257 H286 0.982 . S
C257 H287 0.979 . S
C257 H288 0.977 . S
C258 C245 1.684 . S
C258 H283 0.979 . S
C258 H284 0.980 . S
C258 H285 0.983 . S
C259 C260 1.391 . S
C259 C264 1.391 . S
C259 H289 0.948 . S
C260 C259 1.391 . S
C260 C261 1.391 . S
C261 C260 1.391 . S
C261 C262 1.392 . S
C261 H290 0.947 . S
C262 C261 1.392 . S
C262 C263 1.419 . S
C262 H291 0.948 . S
C263 C262 1.419 . S
C263 C264 1.391 . S
C263 C267 1.397 . S
C264 C259 1.391 . S
C264 C263 1.391 . S
C264 C265 1.399 . S
C265 C264 1.399 . S
C265 C266 1.396 . S
C265 C268 1.453 . S
C265 C269 1.684 . S
C266 C247 1.723 . S
C266 C265 1.396 . S
C266 C267 1.394 . S
C267 C263 1.397 . S
C267 C266 1.394 . S
C267 C277 1.723 . S
C268 C265 1.453 . S
C268 H292 0.982 . S
C268 H293 0.979 . S
C268 H294 0.977 . S
C269 C265 1.684 . S
C269 H295 0.979 . S
C269 H296 0.980 . S
C269 H297 0.983 . S
C270 H246 0.948 . S
C270 C271 1.391 . S
C270 C275 1.391 . S
C271 C270 1.391 . S
C271 C272 1.391 . S
C272 H249 0.947 . S
C272 C271 1.391 . S
C272 C273 1.392 . S
C273 H250 0.948 . S
C273 C272 1.392 . S
C273 C274 1.419 . S
C274 C273 1.419 . S
C274 C275 1.391 . S
C274 C278 1.397 . S
C275 C270 1.391 . S
C275 C274 1.391 . S
C275 C276 1.399 . S
C276 C275 1.399 . S
C276 C277 1.396 . S
C276 C279 1.453 . S
C276 C280 1.684 . S
C277 C267 1.723 . S
C277 C276 1.396 . S
C277 C278 1.394 . S
C278 C248 1.723 . S
C278 C274 1.397 . S
C278 C277 1.394 . S
C279 H251 0.982 . S
C279 H255 0.979 . S
C279 H256 0.977 . S
C279 C276 1.453 . S
C280 H252 0.979 . S
C280 H253 0.980 . S
C280 H254 0.983 . S
C280 C276 1.684 . S
H281 C299 0.948 . S
H282 C240 0.948 . S
H283 C258 0.979 . S
H284 C258 0.980 . S
H285 C258 0.983 . S
H286 C257 0.982 . S
H287 C257 0.979 . S
H288 C257 0.977 . S
H289 C259 0.948 . S
H290 C261 0.947 . S
H291 C262 0.948 . S
H292 C268 0.982 . S
H293 C268 0.979 . S
H294 C268 0.977 . S
H295 C269 0.979 . S
H296 C269 0.980 . S
H297 C269 0.983 . S
H298 C242 0.947 . S
C299 C242 1.392 . S
C299 C243 1.419 . S
C299 H281 0.948 . S
C300 C301 1.391 . S
C300 C304 1.391 . S
C300 H342 0.948 . S
C301 C300 1.391 . S
C301 C302 1.391 . S
C302 C301 1.391 . S
C302 H358 0.947 . S
C302 C359 1.392 . S
C303 C304 1.391 . S
C303 C307 1.397 . S
C303 C359 1.419 . S
C304 C300 1.391 . S
C304 C303 1.391 . S
C304 C305 1.399 . S
C305 C304 1.399 . S
C305 C308 1.396 . S
C305 C317 1.453 . S
C305 C318 1.684 . S
H306 C330 0.948 . S
C307 C303 1.397 . S
C307 C308 1.394 . S
C307 C326 1.723 . S
C308 C305 1.396 . S
C308 C307 1.394 . S
C308 C338 1.723 . S
H309 C332 0.947 . S
H310 C333 0.948 . S
H311 C339 0.982 . S
H312 C340 0.979 . S
H313 C340 0.980 . S
H314 C340 0.983 . S
H315 C339 0.979 . S
H316 C339 0.977 . S
C317 C305 1.453 . S
C317 H346 0.982 . S
C317 H347 0.979 . S
C317 H348 0.977 . S
C318 C305 1.684 . S
C318 H343 0.979 . S
C318 H344 0.980 . S
C318 H345 0.983 . S
C319 C320 1.391 . S
C319 C324 1.391 . S
C319 H349 0.948 . S
C320 C319 1.391 . S
C320 C321 1.391 . S
C321 C320 1.391 . S
C321 C322 1.392 . S
C321 H350 0.947 . S
C322 C321 1.392 . S
C322 C323 1.419 . S
C322 H351 0.948 . S
C323 C322 1.419 . S
C323 C324 1.391 . S
C323 C327 1.397 . S
C324 C319 1.391 . S
C324 C323 1.391 . S
C324 C325 1.399 . S
C325 C324 1.399 . S
C325 C326 1.396 . S
C325 C328 1.453 . S
C325 C329 1.684 . S
C326 C307 1.723 . S
C326 C325 1.396 . S
C326 C327 1.394 . S
C327 C323 1.397 . S
C327 C326 1.394 . S
C327 C337 1.723 . S
C328 C325 1.453 . S
C328 H352 0.982 . S
C328 H353 0.979 . S
C328 H354 0.977 . S
C329 C325 1.684 . S
C329 H355 0.979 . S
C329 H356 0.980 . S
C329 H357 0.983 . S
C330 H306 0.948 . S
C330 C331 1.391 . S
C330 C335 1.391 . S
C331 C330 1.391 . S
C331 C332 1.391 . S
C332 H309 0.947 . S
C332 C331 1.391 . S
C332 C333 1.392 . S
C333 H310 0.948 . S
C333 C332 1.392 . S
C333 C334 1.419 . S
C334 C333 1.419 . S
C334 C335 1.391 . S
C334 C338 1.397 . S
C335 C330 1.391 . S
C335 C334 1.391 . S
C335 C336 1.399 . S
C336 C335 1.399 . S
C336 C337 1.396 . S
C336 C339 1.453 . S
C336 C340 1.684 . S
C337 C327 1.723 . S
C337 C336 1.396 . S
C337 C338 1.394 . S
C338 C308 1.723 . S
C338 C334 1.397 . S
C338 C337 1.394 . S
C339 H311 0.982 . S
C339 H315 0.979 . S
C339 H316 0.977 . S
C339 C336 1.453 . S
C340 H312 0.979 . S
C340 H313 0.980 . S
C340 H314 0.983 . S
C340 C336 1.684 . S
H341 C359 0.948 . S
H342 C300 0.948 . S
H343 C318 0.979 . S
H344 C318 0.980 . S
H345 C318 0.983 . S
H346 C317 0.982 . S
H347 C317 0.979 . S
H348 C317 0.977 . S
H349 C319 0.948 . S
H350 C321 0.947 . S
H351 C322 0.948 . S
H352 C328 0.982 . S
H353 C328 0.979 . S
H354 C328 0.977 . S
H355 C329 0.979 . S
H356 C329 0.980 . S
H357 C329 0.983 . S
H358 C302 0.947 . S
C359 C302 1.392 . S
C359 C303 1.419 . S
C359 H341 0.948 . S
C360 C361 1.391 . S
C360 C364 1.391 . S
C360 H402 0.948 . S
C361 C360 1.391 . S
C361 C362 1.391 . S
C362 C361 1.391 . S
C362 H418 0.947 . S
C362 C419 1.392 . S
C363 C364 1.391 . S
C363 C367 1.397 . S
C363 C419 1.419 . S
C364 C360 1.391 . S
C364 C363 1.391 . S
C364 C365 1.399 . S
C365 C364 1.399 . S
C365 C368 1.396 . S
C365 C377 1.453 . S
C365 C378 1.684 . S
H366 C390 0.948 . S
C367 C363 1.397 . S
C367 C368 1.394 . S
C367 C386 1.723 . S
C368 C365 1.396 . S
C368 C367 1.394 . S
C368 C398 1.723 . S
H369 C392 0.947 . S
H370 C393 0.948 . S
H371 C399 0.982 . S
H372 C400 0.979 . S
H373 C400 0.980 . S
H374 C400 0.983 . S
H375 C399 0.979 . S
H376 C399 0.977 . S
C377 C365 1.453 . S
C377 H406 0.982 . S
C377 H407 0.979 . S
C377 H408 0.977 . S
C378 C365 1.684 . S
C378 H403 0.979 . S
C378 H404 0.980 . S
C378 H405 0.983 . S
C379 C380 1.391 . S
C379 C384 1.391 . S
C379 H409 0.948 . S
C380 C379 1.391 . S
C380 C381 1.391 . S
C381 C380 1.391 . S
C381 C382 1.392 . S
C381 H410 0.947 . S
C382 C381 1.392 . S
C382 C383 1.419 . S
C382 H411 0.948 . S
C383 C382 1.419 . S
C383 C384 1.391 . S
C383 C387 1.397 . S
C384 C379 1.391 . S
C384 C383 1.391 . S
C384 C385 1.399 . S
C385 C384 1.399 . S
C385 C386 1.396 . S
C385 C388 1.453 . S
C385 C389 1.684 . S
C386 C367 1.723 . S
C386 C385 1.396 . S
C386 C387 1.394 . S
C387 C383 1.397 . S
C387 C386 1.394 . S
C387 C397 1.723 . S
C388 C385 1.453 . S
C388 H412 0.982 . S
C388 H413 0.979 . S
C388 H414 0.977 . S
C389 C385 1.684 . S
C389 H415 0.979 . S
C389 H416 0.980 . S
C389 H417 0.983 . S
C390 H366 0.948 . S
C390 C391 1.391 . S
C390 C395 1.391 . S
C391 C390 1.391 . S
C391 C392 1.391 . S
C392 H369 0.947 . S
C392 C391 1.391 . S
C392 C393 1.392 . S
C393 H370 0.948 . S
C393 C392 1.392 . S
C393 C394 1.419 . S
C394 C393 1.419 . S
C394 C395 1.391 . S
C394 C398 1.397 . S
C395 C390 1.391 . S
C395 C394 1.391 . S
C395 C396 1.399 . S
C396 C395 1.399 . S
C396 C397 1.396 . S
C396 C399 1.453 . S
C396 C400 1.684 . S
C397 C387 1.723 . S
C397 C396 1.396 . S
C397 C398 1.394 . S
C398 C368 1.723 . S
C398 C394 1.397 . S
C398 C397 1.394 . S
C399 H371 0.982 . S
C399 H375 0.979 . S
C399 H376 0.977 . S
C399 C396 1.453 . S
C400 H372 0.979 . S
C400 H373 0.980 . S
C400 H374 0.983 . S
C400 C396 1.684 . S
H401 C419 0.948 . S
H402 C360 0.948 . S
H403 C378 0.979 . S
H404 C378 0.980 . S
H405 C378 0.983 . S
H406 C377 0.982 . S
H407 C377 0.979 . S
H408 C377 0.977 . S
H409 C379 0.948 . S
H410 C381 0.947 . S
H411 C382 0.948 . S
H412 C388 0.982 . S
H413 C388 0.979 . S
H414 C388 0.977 . S
H415 C389 0.979 . S
H416 C389 0.980 . S
H417 C389 0.983 . S
H418 C362 0.947 . S
C419 C362 1.392 . S
C419 C363 1.419 . S
C419 H401 0.948 . S
C420 C421 1.391 . S
C420 C424 1.391 . S
C420 H462 0.948 . S
C421 C420 1.391 . S
C421 C422 1.391 . S
C422 C421 1.391 . S
C422 H478 0.947 . S
C422 C479 1.392 . S
C423 C424 1.391 . S
C423 C427 1.397 . S
C423 C479 1.419 . S
C424 C420 1.391 . S
C424 C423 1.391 . S
C424 C425 1.399 . S
C425 C424 1.399 . S
C425 C428 1.396 . S
C425 C437 1.453 . S
C425 C438 1.684 . S
H426 C450 0.948 . S
C427 C423 1.397 . S
C427 C428 1.394 . S
C427 C446 1.723 . S
C428 C425 1.396 . S
C428 C427 1.394 . S
C428 C458 1.723 . S
H429 C452 0.947 . S
H430 C453 0.948 . S
H431 C459 0.982 . S
H432 C460 0.979 . S
H433 C460 0.980 . S
H434 C460 0.983 . S
H435 C459 0.979 . S
H436 C459 0.977 . S
C437 C425 1.453 . S
C437 H466 0.982 . S
C437 H467 0.979 . S
C437 H468 0.977 . S
C438 C425 1.684 . S
C438 H463 0.979 . S
C438 H464 0.980 . S
C438 H465 0.983 . S
C439 C440 1.391 . S
C439 C444 1.391 . S
C439 H469 0.948 . S
C440 C439 1.391 . S
C440 C441 1.391 . S
C441 C440 1.391 . S
C441 C442 1.392 . S
C441 H470 0.947 . S
C442 C441 1.392 . S
C442 C443 1.419 . S
C442 H471 0.948 . S
C443 C442 1.419 . S
C443 C444 1.391 . S
C443 C447 1.397 . S
C444 C439 1.391 . S
C444 C443 1.391 . S
C444 C445 1.399 . S
C445 C444 1.399 . S
C445 C446 1.396 . S
C445 C448 1.453 . S
C445 C449 1.684 . S
C446 C427 1.723 . S
C446 C445 1.396 . S
C446 C447 1.394 . S
C447 C443 1.397 . S
C447 C446 1.394 . S
C447 C457 1.723 . S
C448 C445 1.453 . S
C448 H472 0.982 . S
C448 H473 0.979 . S
C448 H474 0.977 . S
C449 C445 1.684 . S
C449 H475 0.979 . S
C449 H476 0.980 . S
C449 H477 0.983 . S
C450 H426 0.948 . S
C450 C451 1.391 . S
C450 C455 1.391 . S
C451 C450 1.391 . S
C451 C452 1.391 . S
C452 H429 0.947 . S
C452 C451 1.391 . S
C452 C453 1.392 . S
C453 H430 0.948 . S
C453 C452 1.392 . S
C453 C454 1.419 . S
C454 C453 1.419 . S
C454 C455 1.391 . S
C454 C458 1.397 . S
C455 C450 1.391 . S
C455 C454 1.391 . S
C455 C456 1.399 . S
C456 C455 1.399 . S
C456 C457 1.396 . S
C456 C459 1.453 . S
C456 C460 1.684 . S
C457 C447 1.723 . S
C457 C456 1.396 . S
C457 C458 1.394 . S
C458 C428 1.723 . S
C458 C454 1.397 . S
C458 C457 1.394 . S
C459 H431 0.982 . S
C459 H435 0.979 . S
C459 H436 0.977 . S
C459 C456 1.453 . S
C460 H432 0.979 . S
C460 H433 0.980 . S
C460 H434 0.983 . S
C460 C456 1.684 . S
H461 C479 0.948 . S
H462 C420 0.948 . S
H463 C438 0.979 . S
H464 C438 0.980 . S
H465 C438 0.983 . S
H466 C437 0.982 . S
H467 C437 0.979 . S
H468 C437 0.977 . S
H469 C439 0.948 . S
H470 C441 0.947 . S
H471 C442 0.948 . S
H472 C448 0.982 . S
H473 C448 0.979 . S
H474 C448 0.977 . S
H475 C449 0.979 . S
H476 C449 0.980 . S
H477 C449 0.983 . S
H478 C422 0.947 . S
C479 C422 1.392 . S
C479 C423 1.419 . S
C479 H461 0.948 . S
C480 C481 1.391 . S
C480 C484 1.391 . S
C480 H522 0.948 . S
C481 C480 1.391 . S
C481 C482 1.391 . S
C482 C481 1.391 . S
C482 H538 0.947 . S
C482 C539 1.392 . S
C483 C484 1.391 . S
C483 C487 1.397 . S
C483 C539 1.419 . S
C484 C480 1.391 . S
C484 C483 1.391 . S
C484 C485 1.399 . S
C485 C484 1.399 . S
C485 C488 1.396 . S
C485 C497 1.453 . S
C485 C498 1.684 . S
H486 C510 0.948 . S
C487 C483 1.397 . S
C487 C488 1.394 . S
C487 C506 1.723 . S
C488 C485 1.396 . S
C488 C487 1.394 . S
C488 C518 1.723 . S
H489 C512 0.947 . S
H490 C513 0.948 . S
H491 C519 0.982 . S
H492 C520 0.979 . S
H493 C520 0.980 . S
H494 C520 0.983 . S
H495 C519 0.979 . S
H496 C519 0.977 . S
C497 C485 1.453 . S
C497 H526 0.982 . S
C497 H527 0.979 . S
C497 H528 0.977 . S
C498 C485 1.684 . S
C498 H523 0.979 . S
C498 H524 0.980 . S
C498 H525 0.983 . S
C499 C500 1.391 . S
C499 C504 1.391 . S
C499 H529 0.948 . S
C500 C499 1.391 . S
C500 C501 1.391 . S
C501 C500 1.391 . S
C501 C502 1.392 . S
C501 H530 0.947 . S
C502 C501 1.392 . S
C502 C503 1.419 . S
C502 H531 0.948 . S
C503 C502 1.419 . S
C503 C504 1.391 . S
C503 C507 1.397 . S
C504 C499 1.391 . S
C504 C503 1.391 . S
C504 C505 1.399 . S
C505 C504 1.399 . S
C505 C506 1.396 . S
C505 C508 1.453 . S
C505 C509 1.684 . S
C506 C487 1.723 . S
C506 C505 1.396 . S
C506 C507 1.394 . S
C507 C503 1.397 . S
C507 C506 1.394 . S
C507 C517 1.723 . S
C508 C505 1.453 . S
C508 H532 0.982 . S
C508 H533 0.979 . S
C508 H534 0.977 . S
C509 C505 1.684 . S
C509 H535 0.979 . S
C509 H536 0.980 . S
C509 H537 0.983 . S
C510 H486 0.948 . S
C510 C511 1.391 . S
C510 C515 1.391 . S
C511 C510 1.391 . S
C511 C512 1.391 . S
C512 H489 0.947 . S
C512 C511 1.391 . S
C512 C513 1.392 . S
C513 H490 0.948 . S
C513 C512 1.392 . S
C513 C514 1.419 . S
C514 C513 1.419 . S
C514 C515 1.391 . S
C514 C518 1.397 . S
C515 C510 1.391 . S
C515 C514 1.391 . S
C515 C516 1.399 . S
C516 C515 1.399 . S
C516 C517 1.396 . S
C516 C519 1.453 . S
C516 C520 1.684 . S
C517 C507 1.723 . S
C517 C516 1.396 . S
C517 C518 1.394 . S
C518 C488 1.723 . S
C518 C514 1.397 . S
C518 C517 1.394 . S
C519 H491 0.982 . S
C519 H495 0.979 . S
C519 H496 0.977 . S
C519 C516 1.453 . S
C520 H492 0.979 . S
C520 H493 0.980 . S
C520 H494 0.983 . S
C520 C516 1.684 . S
H521 C539 0.948 . S
H522 C480 0.948 . S
H523 C498 0.979 . S
H524 C498 0.980 . S
H525 C498 0.983 . S
H526 C497 0.982 . S
H527 C497 0.979 . S
H528 C497 0.977 . S
H529 C499 0.948 . S
H530 C501 0.947 . S
H531 C502 0.948 . S
H532 C508 0.982 . S
H533 C508 0.979 . S
H534 C508 0.977 . S
H535 C509 0.979 . S
H536 C509 0.980 . S
H537 C509 0.983 . S
H538 C482 0.947 . S
C539 C482 1.392 . S
C539 C483 1.419 . S
C539 H521 0.948 . S
C540 C541 1.391 . S
C540 C544 1.391 . S
C540 H582 0.948 . S
C541 C540 1.391 . S
C541 C542 1.391 . S
C542 C541 1.391 . S
C542 H598 0.947 . S
C542 C599 1.392 . S
C543 C544 1.391 . S
C543 C547 1.397 . S
C543 C599 1.419 . S
C544 C540 1.391 . S
C544 C543 1.391 . S
C544 C545 1.399 . S
C545 C544 1.399 . S
C545 C548 1.396 . S
C545 C557 1.453 . S
C545 C558 1.684 . S
H546 C570 0.948 . S
C547 C543 1.397 . S
C547 C548 1.394 . S
C547 C566 1.723 . S
C548 C545 1.396 . S
C548 C547 1.394 . S
C548 C578 1.723 . S
H549 C572 0.947 . S
H550 C573 0.948 . S
H551 C579 0.982 . S
H552 C580 0.979 . S
H553 C580 0.980 . S
H554 C580 0.983 . S
H555 C579 0.979 . S
H556 C579 0.977 . S
C557 C545 1.453 . S
C557 H586 0.982 . S
C557 H587 0.979 . S
C557 H588 0.977 . S
C558 C545 1.684 . S
C558 H583 0.979 . S
C558 H584 0.980 . S
C558 H585 0.983 . S
C559 C560 1.391 . S
C559 C564 1.391 . S
C559 H589 0.948 . S
C560 C559 1.391 . S
C560 C561 1.391 . S
C561 C560 1.391 . S
C561 C562 1.392 . S
C561 H590 0.947 . S
C562 C561 1.392 . S
C562 C563 1.419 . S
C562 H591 0.948 . S
C563 C562 1.419 . S
C563 C564 1.391 . S
C563 C567 1.397 . S
C564 C559 1.391 . S
C564 C563 1.391 . S
C564 C565 1.399 . S
C565 C564 1.399 . S
C565 C566 1.396 . S
C565 C568 1.453 . S
C565 C569 1.684 . S
C566 C547 1.723 . S
C566 C565 1.396 . S
C566 C567 1.394 . S
C567 C563 1.397 . S
C567 C566 1.394 . S
C567 C577 1.723 . S
C568 C565 1.453 . S
C568 H592 0.982 . S
C568 H593 0.979 . S
C568 H594 0.977 . S
C569 C565 1.684 . S
C569 H595 0.979 . S
C569 H596 0.980 . S
C569 H597 0.983 . S
C570 H546 0.948 . S
C570 C571 1.391 . S
C570 C575 1.391 . S
C571 C570 1.391 . S
C571 C572 1.391 . S
C572 H549 0.947 . S
C572 C571 1.391 . S
C572 C573 1.392 . S
C573 H550 0.948 . S
C573 C572 1.392 . S
C573 C574 1.419 . S
C574 C573 1.419 . S
C574 C575 1.391 . S
C574 C578 1.397 . S
C575 C570 1.391 . S
C575 C574 1.391 . S
C575 C576 1.399 . S
C576 C575 1.399 . S
C576 C577 1.396 . S
C576 C579 1.453 . S
C576 C580 1.684 . S
C577 C567 1.723 . S
C577 C576 1.396 . S
C577 C578 1.394 . S
C578 C548 1.723 . S
C578 C574 1.397 . S
C578 C577 1.394 . S
C579 H551 0.982 . S
C579 H555 0.979 . S
C579 H556 0.977 . S
C579 C576 1.453 . S
C580 H552 0.979 . S
C580 H553 0.980 . S
C580 H554 0.983 . S
C580 C576 1.684 . S
H581 C599 0.948 . S
H582 C540 0.948 . S
H583 C558 0.979 . S
H584 C558 0.980 . S
H585 C558 0.983 . S
H586 C557 0.982 . S
H587 C557 0.979 . S
H588 C557 0.977 . S
H589 C559 0.948 . S
H590 C561 0.947 . S
H591 C562 0.948 . S
H592 C568 0.982 . S
H593 C568 0.979 . S
H594 C568 0.977 . S
H595 C569 0.979 . S
H596 C569 0.980 . S
H597 C569 0.983 . S
H598 C542 0.947 . S
C599 C542 1.392 . S
C599 C543 1.419 . S
C599 H581 0.948 . S
C600 C601 1.391 . S
C600 C604 1.391 . S
C600 H642 0.948 . S
C601 C600 1.391 . S
C601 C602 1.391 . S
C602 C601 1.391 . S
C602 H658 0.947 . S
C602 C659 1.392 . S
C603 C604 1.391 . S
C603 C607 1.397 . S
C603 C659 1.419 . S
C604 C600 1.391 . S
C604 C603 1.391 . S
C604 C605 1.399 . S
C605 C604 1.399 . S
C605 C608 1.396 . S
C605 C617 1.453 . S
C605 C618 1.684 . S
H606 C630 0.948 . S
C607 C603 1.397 . S
C607 C608 1.394 . S
C607 C626 1.723 . S
C608 C605 1.396 . S
C608 C607 1.394 . S
C608 C638 1.723 . S
H609 C632 0.947 . S
H610 C633 0.948 . S
H611 C639 0.982 . S
H612 C640 0.979 . S
H613 C640 0.980 . S
H614 C640 0.983 . S
H615 C639 0.979 . S
H616 C639 0.977 . S
C617 C605 1.453 . S
C617 H646 0.982 . S
C617 H647 0.979 . S
C617 H648 0.977 . S
C618 C605 1.684 . S
C618 H643 0.979 . S
C618 H644 0.980 . S
C618 H645 0.983 . S
C619 C620 1.391 . S
C619 C624 1.391 . S
C619 H649 0.948 . S
C620 C619 1.391 . S
C620 C621 1.391 . S
C621 C620 1.391 . S
C621 C622 1.392 . S
C621 H650 0.947 . S
C622 C621 1.392 . S
C622 C623 1.419 . S
C622 H651 0.948 . S
C623 C622 1.419 . S
C623 C624 1.391 . S
C623 C627 1.397 . S
C624 C619 1.391 . S
C624 C623 1.391 . S
C624 C625 1.399 . S
C625 C624 1.399 . S
C625 C626 1.396 . S
C625 C628 1.453 . S
C625 C629 1.684 . S
C626 C607 1.723 . S
C626 C625 1.396 . S
C626 C627 1.394 . S
C627 C623 1.397 . S
C627 C626 1.394 . S
C627 C637 1.723 . S
C628 C625 1.453 . S
C628 H652 0.982 . S
C628 H653 0.979 . S
C628 H654 0.977 . S
C629 C625 1.684 . S
C629 H655 0.979 . S
C629 H656 0.980 . S
C629 H657 0.983 . S
C630 H606 0.948 . S
C630 C631 1.391 . S
C630 C635 1.391 . S
C631 C630 1.391 . S
C631 C632 1.391 . S
C632 H609 0.947 . S
C632 C631 1.391 . S
C632 C633 1.392 . S
C633 H610 0.948 . S
C633 C632 1.392 . S
C633 C634 1.419 . S
C634 C633 1.419 . S
C634 C635 1.391 . S
C634 C638 1.397 . S
C635 C630 1.391 . S
C635 C634 1.391 . S
C635 C636 1.399 . S
C636 C635 1.399 . S
C636 C637 1.396 . S
C636 C639 1.453 . S
C636 C640 1.684 . S
C637 C627 1.723 . S
C637 C636 1.396 . S
C637 C638 1.394 . S
C638 C608 1.723 . S
C638 C634 1.397 . S
C638 C637 1.394 . S
C639 H611 0.982 . S
C639 H615 0.979 . S
C639 H616 0.977 . S
C639 C636 1.453 . S
C640 H612 0.979 . S
C640 H613 0.980 . S
C640 H614 0.983 . S
C640 C636 1.684 . S
H641 C659 0.948 . S
H642 C600 0.948 . S
H643 C618 0.979 . S
H644 C618 0.980 . S
H645 C618 0.983 . S
H646 C617 0.982 . S
H647 C617 0.979 . S
H648 C617 0.977 . S
H649 C619 0.948 . S
H650 C621 0.947 . S
H651 C622 0.948 . S
H652 C628 0.982 . S
H653 C628 0.979 . S
H654 C628 0.977 . S
H655 C629 0.979 . S
H656 C629 0.980 . S
H657 C629 0.983 . S
H658 C602 0.947 . S
C659 C602 1.392 . S
C659 C603 1.419 . S
C659 H641 0.948 . S
C660 C661 1.391 . S
C660 C664 1.391 . S
C660 H702 0.948 . S
C661 C660 1.391 . S
C661 C662 1.391 . S
C662 C661 1.391 . S
C662 H718 0.947 . S
C662 C719 1.392 . S
C663 C664 1.391 . S
C663 C667 1.397 . S
C663 C719 1.419 . S
C664 C660 1.391 . S
C664 C663 1.391 . S
C664 C665 1.399 . S
C665 C664 1.399 . S
C665 C668 1.396 . S
C665 C677 1.453 . S
C665 C678 1.684 . S
H666 C690 0.948 . S
C667 C663 1.397 . S
C667 C668 1.394 . S
C667 C686 1.723 . S
C668 C665 1.396 . S
C668 C667 1.394 . S
C668 C698 1.723 . S
H669 C692 0.947 . S
H670 C693 0.948 . S
H671 C699 0.982 . S
H672 C700 0.979 . S
H673 C700 0.980 . S
H674 C700 0.983 . S
H675 C699 0.979 . S
H676 C699 0.977 . S
C677 C665 1.453 . S
C677 H706 0.982 . S
C677 H707 0.979 . S
C677 H708 0.977 . S
C678 C665 1.684 . S
C678 H703 0.979 . S
C678 H704 0.980 . S
C678 H705 0.983 . S
C679 C680 1.391 . S
C679 C684 1.391 . S
C679 H709 0.948 . S
C680 C679 1.391 . S
C680 C681 1.391 . S
C681 C680 1.391 . S
C681 C682 1.392 . S
C681 H710 0.947 . S
C682 C681 1.392 . S
C682 C683 1.419 . S
C682 H711 0.948 . S
C683 C682 1.419 . S
C683 C684 1.391 . S
C683 C687 1.397 . S
C684 C679 1.391 . S
C684 C683 1.391 . S
C684 C685 1.399 . S
C685 C684 1.399 . S
C685 C686 1.396 . S
C685 C688 1.453 . S
C685 C689 1.684 . S
C686 C667 1.723 . S
C686 C685 1.396 . S
C686 C687 1.394 . S
C687 C683 1.397 . S
C687 C686 1.394 . S
C687 C697 1.723 . S
C688 C685 1.453 . S
C688 H712 0.982 . S
C688 H713 0.979 . S
C688 H714 0.977 . S
C689 C685 1.684 . S
C689 H715 0.979 . S
C689 H716 0.980 . S
C689 H717 0.983 . S
C690 H666 0.948 . S
C690 C691 1.391 . S
C690 C695 1.391 . S
C691 C690 1.391 . S
C691 C692 1.391 . S
C692 H669 0.947 . S
C692 C691 1.391 . S
C692 C693 1.392 . S
C693 H670 0.948 . S
C693 C692 1.392 . S
C693 C694 1.419 . S
C694 C693 1.419 . S
C694 C695 1.391 . S
C694 C698 1.397 . S
C695 C690 1.391 . S
C695 C694 1.391 . S
C695 C696 1.399 . S
C696 C695 1.399 . S
C696 C697 1.396 . S
C696 C699 1.453 . S
C696 C700 1.684 . S
C697 C687 1.723 . S
C697 C696 1.396 . S
C697 C698 1.394 . S
C698 C668 1.723 . S
C698 C694 1.397 . S
C698 C697 1.394 . S
C699 H671 0.982 . S
C699 H675 0.979 . S
C699 H676 0.977 . S
C699 C696 1.453 . S
C700 H672 0.979 . S
C700 H673 0.980 . S
C700 H674 0.983 . S
C700 C696 1.684 . S
H701 C719 0.948 . S
H702 C660 0.948 . S
H703 C678 0.979 . S
H704 C678 0.980 . S
H705 C678 0.983 . S
H706 C677 0.982 . S
H707 C677 0.979 . S
H708 C677 0.977 . S
H709 C679 0.948 . S
H710 C681 0.947 . S
H711 C682 0.948 . S
H712 C688 0.982 . S
H713 C688 0.979 . S
H714 C688 0.977 . S
H715 C689 0.979 . S
H716 C689 0.980 . S
H717 C689 0.983 . S
H718 C662 0.947 . S
C719 C662 1.392 . S
C719 C663 1.419 . S
C719 H701 0.948 . S
C720 C721 1.391 . S
C720 C724 1.391 . S
C720 H762 0.948 . S
C721 C720 1.391 . S
C721 C722 1.391 . S
C722 C721 1.391 . S
C722 H778 0.947 . S
C722 C779 1.392 . S
C723 C724 1.391 . S
C723 C727 1.397 . S
C723 C779 1.419 . S
C724 C720 1.391 . S
C724 C723 1.391 . S
C724 C725 1.399 . S
C725 C724 1.399 . S
C725 C728 1.396 . S
C725 C737 1.453 . S
C725 C738 1.684 . S
H726 C750 0.948 . S
C727 C723 1.397 . S
C727 C728 1.394 . S
C727 C746 1.723 . S
C728 C725 1.396 . S
C728 C727 1.394 . S
C728 C758 1.723 . S
H729 C752 0.947 . S
H730 C753 0.948 . S
H731 C759 0.982 . S
H732 C760 0.979 . S
H733 C760 0.980 . S
H734 C760 0.983 . S
H735 C759 0.979 . S
H736 C759 0.977 . S
C737 C725 1.453 . S
C737 H766 0.982 . S
C737 H767 0.979 . S
C737 H768 0.977 . S
C738 C725 1.684 . S
C738 H763 0.979 . S
C738 H764 0.980 . S
C738 H765 0.983 . S
C739 C740 1.391 . S
C739 C744 1.391 . S
C739 H769 0.948 . S
C740 C739 1.391 . S
C740 C741 1.391 . S
C741 C740 1.391 . S
C741 C742 1.392 . S
C741 H770 0.947 . S
C742 C741 1.392 . S
C742 C743 1.419 . S
C742 H771 0.948 . S
C743 C742 1.419 . S
C743 C744 1.391 . S
C743 C747 1.397 . S
C744 C739 1.391 . S
C744 C743 1.391 . S
C744 C745 1.399 . S
C745 C744 1.399 . S
C745 C746 1.396 . S
C745 C748 1.453 . S
C745 C749 1.684 . S
C746 C727 1.723 . S
C746 C745 1.396 . S
C746 C747 1.394 . S
C747 C743 1.397 . S
C747 C746 1.394 . S
C747 C757 1.723 . S
C748 C745 1.453 . S
C748 H772 0.982 . S
C748 H773 0.979 . S
C748 H774 0.977 . S
C749 C745 1.684 . S
C749 H775 0.979 . S
C749 H776 0.980 . S
C749 H777 0.983 . S
C750 H726 0.948 . S
C750 C751 1.391 . S
C750 C755 1.391 . S
C751 C750 1.391 . S
C751 C752 1.391 . S
C752 H729 0.947 . S
C752 C751 1.391 . S
C752 C753 1.392 . S
C753 H730 0.948 . S
C753 C752 1.392 . S
C753 C754 1.419 . S
C754 C753 1.419 . S
C754 C755 1.391 . S
C754 C758 1.397 . S
C755 C750 1.391 . S
C755 C754 1.391 . S
C755 C756 1.399 . S
C756 C755 1.399 . S
C756 C757 1.396 . S
C756 C759 1.453 . S
C756 C760 1.684 . S
C757 C747 1.723 . S
C757 C756 1.396 . S
C757 C758 1.394 . S
C758 C728 1.723 . S
C758 C754 1.397 . S
C758 C757 1.394 . S
C759 H731 0.982 . S
C759 H735 0.979 . S
C759 H736 0.977 . S
C759 C756 1.453 . S
C760 H732 0.979 . S
C760 H733 0.980 . S
C760 H734 0.983 . S
C760 C756 1.684 . S
H761 C779 0.948 . S
H762 C720 0.948 . S
H763 C738 0.979 . S
H764 C738 0.980 . S
H765 C738 0.983 . S
H766 C737 0.982 . S
H767 C737 0.979 . S
H768 C737 0.977 . S
H769 C739 0.948 . S
H770 C741 0.947 . S
H771 C742 0.948 . S
H772 C748 0.982 . S
H773 C748 0.979 . S
H774 C748 0.977 . S
H775 C749 0.979 . S
H776 C749 0.980 . S
H777 C749 0.983 . S
H778 C722 0.947 . S
C779 C722 1.392 . S
C779 C723 1.419 . S
C779 H761 0.948 . S
C780 C781 1.391 . S
C780 C784 1.391 . S
C780 H822 0.948 . S
C781 C780 1.391 . S
C781 C782 1.391 . S
C782 C781 1.391 . S
C782 H838 0.947 . S
C782 C839 1.392 . S
C783 C784 1.391 . S
C783 C787 1.397 . S
C783 C839 1.419 . S
C784 C780 1.391 . S
C784 C783 1.391 . S
C784 C785 1.399 . S
C785 C784 1.399 . S
C785 C788 1.396 . S
C785 C797 1.453 . S
C785 C798 1.684 . S
H786 C810 0.948 . S
C787 C783 1.397 . S
C787 C788 1.394 . S
C787 C806 1.723 . S
C788 C785 1.396 . S
C788 C787 1.394 . S
C788 C818 1.723 . S
H789 C812 0.947 . S
H790 C813 0.948 . S
H791 C819 0.982 . S
H792 C820 0.979 . S
H793 C820 0.980 . S
H794 C820 0.983 . S
H795 C819 0.979 . S
H796 C819 0.977 . S
C797 C785 1.453 . S
C797 H826 0.982 . S
C797 H827 0.979 . S
C797 H828 0.977 . S
C798 C785 1.684 . S
C798 H823 0.979 . S
C798 H824 0.980 . S
C798 H825 0.983 . S
C799 C800 1.391 . S
C799 C804 1.391 . S
C799 H829 0.948 . S
C800 C799 1.391 . S
C800 C801 1.391 . S
C801 C800 1.391 . S
C801 C802 1.392 . S
C801 H830 0.947 . S
C802 C801 1.392 . S
C802 C803 1.419 . S
C802 H831 0.948 . S
C803 C802 1.419 . S
C803 C804 1.391 . S
C803 C807 1.397 . S
C804 C799 1.391 . S
C804 C803 1.391 . S
C804 C805 1.399 . S
C805 C804 1.399 . S
C805 C806 1.396 . S
C805 C808 1.453 . S
C805 C809 1.684 . S
C806 C787 1.723 . S
C806 C805 1.396 . S
C806 C807 1.394 . S
C807 C803 1.397 . S
C807 C806 1.394 . S
C807 C817 1.723 . S
C808 C805 1.453 . S
C808 H832 0.982 . S
C808 H833 0.979 . S
C808 H834 0.977 . S
C809 C805 1.684 . S
C809 H835 0.979 . S
C809 H836 0.980 . S
C809 H837 0.983 . S
C810 H786 0.948 . S
C810 C811 1.391 . S
C810 C815 1.391 . S
C811 C810 1.391 . S
C811 C812 1.391 . S
C812 H789 0.947 . S
C812 C811 1.391 . S
C812 C813 1.392 . S
C813 H790 0.948 . S
C813 C812 1.392 . S
C813 C814 1.419 . S
C814 C813 1.419 . S
C814 C815 1.391 . S
C814 C818 1.397 . S
C815 C810 1.391 . S
C815 C814 1.391 . S
C815 C816 1.399 . S
C816 C815 1.399 . S
C816 C817 1.396 . S
C816 C819 1.453 . S
C816 C820 1.684 . S
C817 C807 1.723 . S
C817 C816 1.396 . S
C817 C818 1.394 . S
C818 C788 1.723 . S
C818 C814 1.397 . S
C818 C817 1.394 . S
C819 H791 0.982 . S
C819 H795 0.979 . S
C819 H796 0.977 . S
C819 C816 1.453 . S
C820 H792 0.979 . S
C820 H793 0.980 . S
C820 H794 0.983 . S
C820 C816 1.684 . S
H821 C839 0.948 . S
H822 C780 0.948 . S
H823 C798 0.979 . S
H824 C798 0.980 . S
H825 C798 0.983 . S
H826 C797 0.982 . S
H827 C797 0.979 . S
H828 C797 0.977 . S
H829 C799 0.948 . S
H830 C801 0.947 . S
H831 C802 0.948 . S
H832 C808 0.982 . S
H833 C808 0.979 . S
H834 C808 0.977 . S
H835 C809 0.979 . S
H836 C809 0.980 . S
H837 C809 0.983 . S
H838 C782 0.947 . S
C839 C782 1.392 . S
C839 C783 1.419 . S
C839 H821 0.948 . S
C840 C841 1.391 . S
C840 C844 1.391 . S
C840 H882 0.948 . S
C841 C840 1.391 . S
C841 C842 1.391 . S
C842 C841 1.391 . S
C842 H898 0.947 . S
C842 C899 1.392 . S
C843 C844 1.391 . S
C843 C847 1.397 . S
C843 C899 1.419 . S
C844 C840 1.391 . S
C844 C843 1.391 . S
C844 C845 1.399 . S
C845 C844 1.399 . S
C845 C848 1.396 . S
C845 C857 1.453 . S
C845 C858 1.684 . S
H846 C870 0.948 . S
C847 C843 1.397 . S
C847 C848 1.394 . S
C847 C866 1.723 . S
C848 C845 1.396 . S
C848 C847 1.394 . S
C848 C878 1.723 . S
H849 C872 0.947 . S
H850 C873 0.948 . S
H851 C879 0.982 . S
H852 C880 0.979 . S
H853 C880 0.980 . S
H854 C880 0.983 . S
H855 C879 0.979 . S
H856 C879 0.977 . S
C857 C845 1.453 . S
C857 H886 0.982 . S
C857 H887 0.979 . S
C857 H888 0.977 . S
C858 C845 1.684 . S
C858 H883 0.979 . S
C858 H884 0.980 . S
C858 H885 0.983 . S
C859 C860 1.391 . S
C859 C864 1.391 . S
C859 H889 0.948 . S
C860 C859 1.391 . S
C860 C861 1.391 . S
C861 C860 1.391 . S
C861 C862 1.392 . S
C861 H890 0.947 . S
C862 C861 1.392 . S
C862 C863 1.419 . S
C862 H891 0.948 . S
C863 C862 1.419 . S
C863 C864 1.391 . S
C863 C867 1.397 . S
C864 C859 1.391 . S
C864 C863 1.391 . S
C864 C865 1.399 . S
C865 C864 1.399 . S
C865 C866 1.396 . S
C865 C868 1.453 . S
C865 C869 1.684 . S
C866 C847 1.723 . S
C866 C865 1.396 . S
C866 C867 1.394 . S
C867 C863 1.397 . S
C867 C866 1.394 . S
C867 C877 1.723 . S
C868 C865 1.453 . S
C868 H892 0.982 . S
C868 H893 0.979 . S
C868 H894 0.977 . S
C869 C865 1.684 . S
C869 H895 0.979 . S
C869 H896 0.980 . S
C869 H897 0.983 . S
C870 H846 0.948 . S
C870 C871 1.391 . S
C870 C875 1.391 . S
C871 C870 1.391 . S
C871 C872 1.391 . S
C872 H849 0.947 . S
C872 C871 1.391 . S
C872 C873 1.392 . S
C873 H850 0.948 . S
C873 C872 1.392 . S
C873 C874 1.419 . S
C874 C873 1.419 . S
C874 C875 1.391 . S
C874 C878 1.397 . S
C875 C870 1.391 . S
C875 C874 1.391 . S
C875 C876 1.399 . S
C876 C875 1.399 . S
C876 C877 1.396 . S
C876 C879 1.453 . S
C876 C880 1.684 . S
C877 C867 1.723 . S
C877 C876 1.396 . S
C877 C878 1.394 . S
C878 C848 1.723 . S
C878 C874 1.397 . S
C878 C877 1.394 . S
C879 H851 0.982 . S
C879 H855 0.979 . S
C879 H856 0.977 . S
C879 C876 1.453 . S
C880 H852 0.979 . S
C880 H853 0.980 . S
C880 H854 0.983 . S
C880 C876 1.684 . S
H881 C899 0.948 . S
H882 C840 0.948 . S
H883 C858 0.979 . S
H884 C858 0.980 . S
H885 C858 0.983 . S
H886 C857 0.982 . S
H887 C857 0.979 . S
H888 C857 0.977 . S
H889 C859 0.948 . S
H890 C861 0.947 . S
H891 C862 0.948 . S
H892 C868 0.982 . S
H893 C868 0.979 . S
H894 C868 0.977 . S
H895 C869 0.979 . S
H896 C869 0.980 . S
H897 C869 0.983 . S
H898 C842 0.947 . S
C899 C842 1.392 . S
C899 C843 1.419 . S
C899 H881 0.948 . S
C900 C901 1.391 . S
C900 C904 1.391 . S
C900 H942 0.948 . S
C901 C900 1.391 . S
C901 C902 1.391 . S
C902 C901 1.391 . S
C902 H958 0.947 . S
C902 C959 1.392 . S
C903 C904 1.391 . S
C903 C907 1.397 . S
C903 C959 1.419 . S
C904 C900 1.391 . S
C904 C903 1.391 . S
C904 C905 1.399 . S
C905 C904 1.399 . S
C905 C908 1.396 . S
C905 C917 1.453 . S
C905 C918 1.684 . S
H906 C930 0.948 . S
C907 C903 1.397 . S
C907 C908 1.394 . S
C907 C926 1.723 . S
C908 C905 1.396 . S
C908 C907 1.394 . S
C908 C938 1.723 . S
H909 C932 0.947 . S
H910 C933 0.948 . S
H911 C939 0.982 . S
H912 C940 0.979 . S
H913 C940 0.980 . S
H914 C940 0.983 . S
H915 C939 0.979 . S
H916 C939 0.977 . S
C917 C905 1.453 . S
C917 H946 0.982 . S
C917 H947 0.979 . S
C917 H948 0.977 . S
C918 C905 1.684 . S
C918 H943 0.979 . S
C918 H944 0.980 . S
C918 H945 0.983 . S
C919 C920 1.391 . S
C919 C924 1.391 . S
C919 H949 0.948 . S
C920 C919 1.391 . S
C920 C921 1.391 . S
C921 C920 1.391 . S
C921 C922 1.392 . S
C921 H950 0.947 . S
C922 C921 1.392 . S
C922 C923 1.419 . S
C922 H951 0.948 . S
C923 C922 1.419 . S
C923 C924 1.391 . S
C923 C927 1.397 . S
C924 C919 1.391 . S
C924 C923 1.391 . S
C924 C925 1.399 . S
C925 C924 1.399 . S
C925 C926 1.396 . S
C925 C928 1.453 . S
C925 C929 1.684 . S
C926 C907 1.723 . S
C926 C925 1.396 . S
C926 C927 1.394 . S
C927 C923 1.397 . S
C927 C926 1.394 . S
C927 C937 1.723 . S
C928 C925 1.453 . S
C928 H952 0.982 . S
C928 H953 0.979 . S
C928 H954 0.977 . S
C929 C925 1.684 . S
C929 H955 0.979 . S
C929 H956 0.980 . S
C929 H957 0.983 . S
C930 H906 0.948 . S
C930 C931 1.391 . S
C930 C935 1.391 . S
C931 C930 1.391 . S
C931 C932 1.391 . S
C932 H909 0.947 . S
C932 C931 1.391 . S
C932 C933 1.392 . S
C933 H910 0.948 . S
C933 C932 1.392 . S
C933 C934 1.419 . S
C934 C933 1.419 . S
C934 C935 1.391 . S
C934 C938 1.397 . S
C935 C930 1.391 . S
C935 C934 1.391 . S
C935 C936 1.399 . S
C936 C935 1.399 . S
C936 C937 1.396 . S
C936 C939 1.453 . S
C936 C940 1.684 . S
C937 C927 1.723 . S
C937 C936 1.396 . S
C937 C938 1.394 . S
C938 C908 1.723 . S
C938 C934 1.397 . S
C938 C937 1.394 . S
C939 H911 0.982 . S
C939 H915 0.979 . S
C939 H916 0.977 . S
C939 C936 1.453 . S
C940 H912 0.979 . S
C940 H913 0.980 . S
C940 H914 0.983 . S
C940 C936 1.684 . S
H941 C959 0.948 . S
H942 C900 0.948 . S
H943 C918 0.979 . S
H944 C918 0.980 . S
H945 C918 0.983 . S
H946 C917 0.982 . S
H947 C917 0.979 . S
H948 C917 0.977 . S
H949 C919 0.948 . S
H950 C921 0.947 . S
H951 C922 0.948 . S
H952 C928 0.982 . S
H953 C928 0.979 . S
H954 C928 0.977 . S
H955 C929 0.979 . S
H956 C929 0.980 . S
H957 C929 0.983 . S
H958 C902 0.947 . S
C959 C902 1.392 . S
C959 C903 1.419 . S
C959 H941 0.948 . S
C960 C961 1.391 . S
C960 C964 1.391 . S
C960 H1002 0.948 . S
C961 C960 1.391 . S
C961 C962 1.391 . S
C962 C961 1.391 . S
C962 H1018 0.947 . S
C962 C1019 1.392 . S
C963 C964 1.391 . S
C963 C967 1.397 . S
C963 C1019 1.419 . S
C964 C960 1.391 . S
C964 C963 1.391 . S
C964 C965 1.399 . S
C965 C964 1.399 . S
C965 C968 1.396 . S
C965 C977 1.453 . S
C965 C978 1.684 . S
H966 C990 0.948 . S
C967 C963 1.397 . S
C967 C968 1.394 . S
C967 C986 1.723 . S
C968 C965 1.396 . S
C968 C967 1.394 . S
C968 C998 1.723 . S
H969 C992 0.947 . S
H970 C993 0.948 . S
H971 C999 0.982 . S
H972 C1000 0.979 . S
H973 C1000 0.980 . S
H974 C1000 0.983 . S
H975 C999 0.979 . S
H976 C999 0.977 . S
C977 C965 1.453 . S
C977 H1006 0.982 . S
C977 H1007 0.979 . S
C977 H1008 0.977 . S
C978 C965 1.684 . S
C978 H1003 0.979 . S
C978 H1004 0.980 . S
C978 H1005 0.983 . S
C979 C980 1.391 . S
C979 C984 1.391 . S
C979 H1009 0.948 . S
C980 C979 1.391 . S
C980 C981 1.391 . S
C981 C980 1.391 . S
C981 C982 1.392 . S
C981 H1010 0.947 . S
C982 C981 1.392 . S
C982 C983 1.419 . S
C982 H1011 0.948 . S
C983 C982 1.419 . S
C983 C984 1.391 . S
C983 C987 1.397 . S
C984 C979 1.391 . S
C984 C983 1.391 . S
C984 C985 1.399 . S
C985 C984 1.399 . S
C985 C986 1.396 . S
C985 C988 1.453 . S
C985 C989 1.684 . S
C986 C967 1.723 . S
C986 C985 1.396 . S
C986 C987 1.394 . S
C987 C983 1.397 . S
C987 C986 1.394 . S
C987 C997 1.723 . S
C988 C985 1.453 . S
C988 H1012 0.982 . S
C988 H1013 0.979 . S
C988 H1014 0.977 . S
C989 C985 1.684 . S
C989 H1015 0.979 . S
C989 H1016 0.980 . S
C989 H1017 0.983 . S
C990 H966 0.948 . S
C990 C991 1.391 . S
C990 C995 1.391 . S
C991 C990 1.391 . S
C991 C992 1.391 . S
C992 H969 0.947 . S
C992 C991 1.391 . S
C992 C993 1.392 . S
C993 H970 0.948 . S
C993 C992 1.392 . S
C993 C994 1.419 . S
C994 C993 1.419 . S
C994 C995 1.391 . S
C994 C998 1.397 . S
C995 C990 1.391 . S
C995 C994 1.391 . S
C995 C996 1.399 . S
C996 C995 1.399 . S
C996 C997 1.396 . S
C996 C999 1.453 . S
C996 C1000 1.684 . S
C997 C987 1.723 . S
C997 C996 1.396 . S
C997 C998 1.394 . S
C998 C968 1.723 . S
C998 C994 1.397 . S
C998 C997 1.394 . S
C999 H971 0.982 . S
C999 H975 0.979 . S
C999 H976 0.977 . S
C999 C996 1.453 . S
C1000 H972 0.979 . S
C1000 H973 0.980 . S
C1000 H974 0.983 . S
C1000 C996 1.684 . S
H1001 C1019 0.948 . S
H1002 C960 0.948 . S
H1003 C978 0.979 . S
H1004 C978 0.980 . S
H1005 C978 0.983 . S
H1006 C977 0.982 . S
H1007 C977 0.979 . S
H1008 C977 0.977 . S
H1009 C979 0.948 . S
H1010 C981 0.947 . S
H1011 C982 0.948 . S
H1012 C988 0.982 . S
H1013 C988 0.979 . S
H1014 C988 0.977 . S
H1015 C989 0.979 . S
H1016 C989 0.980 . S
H1017 C989 0.983 . S
H1018 C962 0.947 . S
C1019 C962 1.392 . S
C1019 C963 1.419 . S
C1019 H1001 0.948 . S
C1020 C1021 1.391 . S
C1020 C1024 1.391 . S
C1020 H1062 0.948 . S
C1021 C1020 1.391 . S
C1021 C1022 1.391 . S
C1022 C1021 1.391 . S
C1022 H1078 0.947 . S
C1022 C1079 1.392 . S
C1023 C1024 1.391 . S
C1023 C1027 1.397 . S
C1023 C1079 1.419 . S
C1024 C1020 1.391 . S
C1024 C1023 1.391 . S
C1024 C1025 1.399 . S
C1025 C1024 1.399 . S
C1025 C1028 1.396 . S
C1025 C1037 1.453 . S
C1025 C1038 1.684 . S
H1026 C1050 0.948 . S
C1027 C1023 1.397 . S
C1027 C1028 1.394 . S
C1027 C1046 1.723 . S
C1028 C1025 1.396 . S
C1028 C1027 1.394 . S
C1028 C1058 1.723 . S
H1029 C1052 0.947 . S
H1030 C1053 0.948 . S
H1031 C1059 0.982 . S
H1032 C1060 0.979 . S
H1033 C1060 0.980 . S
H1034 C1060 0.983 . S
H1035 C1059 0.979 . S
H1036 C1059 0.977 . S
C1037 C1025 1.453 . S
C1037 H1066 0.982 . S
C1037 H1067 0.979 . S
C1037 H1068 0.977 . S
C1038 C1025 1.684 . S
C1038 H1063 0.979 . S
C1038 H1064 0.980 . S
C1038 H1065 0.983 . S
C1039 C1040 1.391 . S
C1039 C1044 1.391 . S
C1039 H1069 0.948 . S
C1040 C1039 1.391 . S
C1040 C1041 1.391 . S
C1041 C1040 1.391 . S
C1041 C1042 1.392 . S
C1041 H1070 0.947 . S
C1042 C1041 1.392 . S
C1042 C1043 1.419 . S
C1042 H1071 0.948 . S
C1043 C1042 1.419 . S
C1043 C1044 1.391 . S
C1043 C1047 1.397 . S
C1044 C1039 1.391 . S
C1044 C1043 1.391 . S
C1044 C1045 1.399 . S
C1045 C1044 1.399 . S
C1045 C1046 1.396 . S
C1045 C1048 1.453 . S
C1045 C1049 1.684 . S
C1046 C1027 1.723 . S
C1046 C1045 1.396 . S
C1046 C1047 1.394 . S
C1047 C1043 1.397 . S
C1047 C1046 1.394 . S
C1047 C1057 1.723 . S
C1048 C1045 1.453 . S
C1048 H1072 0.982 . S
C1048 H1073 0.979 . S
C1048 H1074 0.977 . S
C1049 C1045 1.684 . S
C1049 H1075 0.979 . S
C1049 H1076 0.980 . S
C1049 H1077 0.983 . S
C1050 H1026 0.948 . S
C1050 C1051 1.391 . S
C1050 C1055 1.391 . S
C1051 C1050 1.391 . S
C1051 C1052 1.391 . S
C1052 H1029 0.947 . S
C1052 C1051 1.391 . S
C1052 C1053 1.392 . S
C1053 H1030 0.948 . S
C1053 C1052 1.392 . S
C1053 C1054 1.419 . S
C1054 C1053 1.419 . S
C1054 C1055 1.391 . S
C1054 C1058 1.397 . S
C1055 C1050 1.391 . S
C1055 C1054 1.391 . S
C1055 C1056 1.399 . S
C1056 C1055 1.399 . S
C1056 C1057 1.396 . S
C1056 C1059 1.453 . S
C1056 C1060 1.684 . S
C1057 C1047 1.723 . S
C1057 C1056 1.396 . S
C1057 C1058 1.394 . S
C1058 C1028 1.723 . S
C1058 C1054 1.397 . S
C1058 C1057 1.394 . S
C1059 H1031 0.982 . S
C1059 H1035 0.979 . S
C1059 H1036 0.977 . S
C1059 C1056 1.453 . S
C1060 H1032 0.979 . S
C1060 H1033 0.980 . S
C1060 H1034 0.983 . S
C1060 C1056 1.684 . S
H1061 C1079 0.948 . S
H1062 C1020 0.948 . S
H1063 C1038 0.979 . S
H1064 C1038 0.980 . S
H1065 C1038 0.983 . S
H1066 C1037 0.982 . S
H1067 C1037 0.979 . S
H1068 C1037 0.977 . S
H1069 C1039 0.948 . S
H1070 C1041 0.947 . S
H1071 C1042 0.948 . S
H1072 C1048 0.982 . S
H1073 C1048 0.979 . S
H1074 C1048 0.977 . S
H1075 C1049 0.979 . S
H1076 C1049 0.980 . S
H1077 C1049 0.983 . S
H1078 C1022 0.947 . S
C1079 C1022 1.392 . S
C1079 C1023 1.419 . S
C1079 H1061 0.948 . S
O1080 Mn1081 2.163 1_565 S
O1080 C1094 1.244 . S
Mn1081 O1080 2.163 1_545 S
Mn1081 O1084 2.160 . S
Mn1081 O1085 2.221 1_545 S
Mn1081 O1087 2.163 1_554 S
Mn1081 O1089 2.160 . S
Mn1081 O1099 2.221 . S
O1082 Mn1083 2.087 1_565 S
O1082 C1094 1.256 . S
Mn1083 O1082 2.087 1_545 S
Mn1083 O1090 2.089 . S
Mn1083 O1099 2.290 . S
Mn1083 O1100 2.251 . S
O1084 Mn1081 2.160 . S
O1084 C1095 1.239 1_554 S
O1085 Mn1081 2.221 1_565 S
O1085 Mn1086 2.290 1_554 S
O1085 C1096 1.278 . S
Mn1086 O1085 2.290 1_556 S
Mn1086 O1088 2.089 1_565 S
Mn1086 O1091 2.251 . S
Mn1086 O1092 2.087 . S
O1087 Mn1081 2.163 1_556 S
O1087 C1097 1.244 . S
O1088 Mn1086 2.089 1_545 S
O1088 C1095 1.256 . S
O1089 Mn1081 2.160 . S
O1089 C1098 1.239 . S
O1090 Mn1083 2.089 . S
O1090 C1098 1.256 . S
O1091 Mn1086 2.251 . S
O1091 C1096 1.241 1_556 S
O1092 Mn1086 2.087 . S
O1092 C1097 1.256 1_565 S
C1093 O1099 1.278 . S
C1093 O1100 1.241 . S
C1094 O1080 1.244 . S
C1094 O1082 1.256 . S
C1095 O1084 1.239 1_556 S
C1095 O1088 1.256 . S
C1096 O1085 1.278 . S
C1096 O1091 1.241 1_554 S
C1097 O1087 1.244 . S
C1097 O1092 1.256 1_545 S
C1098 O1089 1.239 . S
C1098 O1090 1.256 . S
O1099 Mn1081 2.221 . S
O1099 Mn1083 2.290 . S
O1099 C1093 1.278 . S
O1100 Mn1083 2.251 . S
O1100 C1093 1.241 . S
O1101 Mn1102 2.160 1_455 S
O1101 C1115 1.244 . S
Mn1102 O1101 2.160 1_655 S
Mn1102 O1105 2.163 . S
Mn1102 O1106 2.221 1_655 S
Mn1102 O1108 2.163 1_554 S
Mn1102 O1110 2.160 . S
Mn1102 O1120 2.222 . S
O1103 Mn1104 2.087 1_455 S
O1103 C1115 1.256 . S
Mn1104 O1103 2.087 1_655 S
Mn1104 O1111 2.089 1_655 S
Mn1104 O1120 2.290 . S
Mn1104 O1121 2.251 . S
O1105 Mn1102 2.163 . S
O1105 C1116 1.239 1_554 S
O1106 Mn1102 2.221 1_455 S
O1106 Mn1107 2.290 1_554 S
O1106 C1117 1.278 . S
Mn1107 O1106 2.290 1_556 S
Mn1107 O1109 2.089 1_455 S
Mn1107 O1112 2.251 . S
Mn1107 O1113 2.087 . S
O1108 Mn1102 2.163 1_556 S
O1108 C1118 1.244 1_655 S
O1109 Mn1107 2.089 1_655 S
O1109 C1116 1.256 . S
O1110 Mn1102 2.160 . S
O1110 C1119 1.239 1_655 S
O1111 Mn1104 2.089 1_455 S
O1111 C1119 1.256 . S
O1112 Mn1107 2.251 . S
O1112 C1117 1.241 1_556 S
O1113 Mn1107 2.087 . S
O1113 C1118 1.256 . S
C1114 O1120 1.278 . S
C1114 O1121 1.241 . S
C1115 O1101 1.244 . S
C1115 O1103 1.256 . S
C1116 O1105 1.239 1_556 S
C1116 O1109 1.256 . S
C1117 O1106 1.278 . S
C1117 O1112 1.241 1_554 S
C1118 O1108 1.244 1_455 S
C1118 O1113 1.256 . S
C1119 O1110 1.239 1_455 S
C1119 O1111 1.256 . S
O1120 Mn1102 2.222 . S
O1120 Mn1104 2.290 . S
O1120 C1114 1.278 . S
O1121 Mn1104 2.251 . S
O1121 C1114 1.241 . S
O1122 Mn1123 2.163 1_556 S
O1122 C1136 1.245 . S
Mn1123 O1122 2.163 1_554 S
Mn1123 O1126 2.160 . S
Mn1123 O1127 2.221 . S
Mn1123 O1129 2.163 . S
Mn1123 O1131 2.160 1_554 S
Mn1123 O1141 2.221 1_554 S
O1124 Mn1125 2.087 . S
O1124 C1136 1.256 . S
Mn1125 O1124 2.087 . S
Mn1125 O1132 2.089 . S
Mn1125 O1141 2.290 . S
Mn1125 O1142 2.251 1_556 S
O1126 Mn1123 2.160 . S
O1126 C1137 1.239 . S
O1127 Mn1123 2.221 . S
O1127 Mn1128 2.290 . S
O1127 C1138 1.278 . S
Mn1128 O1127 2.290 . S
Mn1128 O1130 2.089 . S
Mn1128 O1133 2.251 . S
Mn1128 O1134 2.087 . S
O1129 Mn1123 2.163 . S
O1129 C1139 1.244 . S
O1130 Mn1128 2.089 . S
O1130 C1137 1.256 . S
O1131 Mn1123 2.160 1_556 S
O1131 C1140 1.239 . S
O1132 Mn1125 2.089 . S
O1132 C1140 1.256 . S
O1133 Mn1128 2.251 . S
O1133 C1138 1.241 . S
O1134 Mn1128 2.087 . S
O1134 C1139 1.256 . S
C1135 O1141 1.278 1_554 S
C1135 O1142 1.241 . S
C1136 O1122 1.245 . S
C1136 O1124 1.256 . S
C1137 O1126 1.239 . S
C1137 O1130 1.256 . S
C1138 O1127 1.278 . S
C1138 O1133 1.241 . S
C1139 O1129 1.244 . S
C1139 O1134 1.256 . S
C1140 O1131 1.239 . S
C1140 O1132 1.256 . S
O1141 Mn1123 2.221 1_556 S
O1141 Mn1125 2.290 . S
O1141 C1135 1.278 1_556 S
O1142 Mn1125 2.251 1_554 S
O1142 C1135 1.241 . S
O1143 Mn1144 2.163 . S
O1143 C1157 1.244 . S
Mn1144 O1143 2.163 . S
Mn1144 O1147 2.160 . S
Mn1144 O1148 2.221 . S
Mn1144 O1150 2.163 . S
Mn1144 O1152 2.160 . S
Mn1144 O1162 2.221 . S
O1145 Mn1146 2.087 . S
O1145 C1157 1.256 . S
Mn1146 O1145 2.087 . S
Mn1146 O1153 2.089 . S
Mn1146 O1162 2.290 . S
Mn1146 O1163 2.251 . S
O1147 Mn1144 2.160 . S
O1147 C1158 1.239 . S
O1148 Mn1144 2.221 . S
O1148 Mn1149 2.290 . S
O1148 C1159 1.278 . S
Mn1149 O1148 2.290 . S
Mn1149 O1151 2.089 . S
Mn1149 O1154 2.251 . S
Mn1149 O1155 2.087 . S
O1150 Mn1144 2.163 . S
O1150 C1160 1.244 . S
O1151 Mn1149 2.089 . S
O1151 C1158 1.256 . S
O1152 Mn1144 2.160 . S
O1152 C1161 1.239 . S
O1153 Mn1146 2.089 . S
O1153 C1161 1.256 . S
O1154 Mn1149 2.251 . S
O1154 C1159 1.241 . S
O1155 Mn1149 2.087 . S
O1155 C1160 1.256 . S
C1156 O1162 1.278 . S
C1156 O1163 1.241 . S
C1157 O1143 1.244 . S
C1157 O1145 1.256 . S
C1158 O1147 1.239 . S
C1158 O1151 1.256 . S
C1159 O1148 1.278 . S
C1159 O1154 1.241 . S
C1160 O1150 1.244 . S
C1160 O1155 1.256 . S
C1161 O1152 1.239 . S
C1161 O1153 1.256 . S
O1162 Mn1144 2.221 . S
O1162 Mn1146 2.290 . S
O1162 C1156 1.278 . S
O1163 Mn1146 2.251 . S
O1163 C1156 1.241 . S
O1164 Mn1165 2.163 . S
O1164 C1178 1.244 . S
Mn1165 O1164 2.163 . S
Mn1165 O1168 2.160 . S
Mn1165 O1169 2.221 . S
Mn1165 O1171 2.163 . S
Mn1165 O1173 2.160 . S
Mn1165 O1183 2.221 . S
O1166 Mn1167 2.087 . S
O1166 C1178 1.256 . S
Mn1167 O1166 2.087 . S
Mn1167 O1174 2.089 . S
Mn1167 O1183 2.290 . S
Mn1167 O1184 2.251 . S
O1168 Mn1165 2.160 . S
O1168 C1179 1.239 . S
O1169 Mn1165 2.221 . S
O1169 Mn1170 2.290 . S
O1169 C1180 1.278 . S
Mn1170 O1169 2.290 . S
Mn1170 O1172 2.089 . S
Mn1170 O1175 2.251 . S
Mn1170 O1176 2.087 . S
O1171 Mn1165 2.163 . S
O1171 C1181 1.244 . S
O1172 Mn1170 2.089 . S
O1172 C1179 1.256 . S
O1173 Mn1165 2.160 . S
O1173 C1182 1.239 . S
O1174 Mn1167 2.089 . S
O1174 C1182 1.256 . S
O1175 Mn1170 2.251 . S
O1175 C1180 1.241 . S
O1176 Mn1170 2.087 . S
O1176 C1181 1.256 . S
C1177 O1183 1.278 . S
C1177 O1184 1.241 . S
C1178 O1164 1.244 . S
C1178 O1166 1.256 . S
C1179 O1168 1.239 . S
C1179 O1172 1.256 . S
C1180 O1169 1.278 . S
C1180 O1175 1.241 . S
C1181 O1171 1.244 . S
C1181 O1176 1.256 . S
C1182 O1173 1.239 . S
C1182 O1174 1.256 . S
O1183 Mn1165 2.221 . S
O1183 Mn1167 2.290 . S
O1183 C1177 1.278 . S
O1184 Mn1167 2.251 . S
O1184 C1177 1.241 . S
O1185 Mn1186 2.163 . S
O1185 C1199 1.244 . S
Mn1186 O1185 2.163 . S
Mn1186 O1189 2.160 . S
Mn1186 O1190 2.221 . S
Mn1186 O1192 2.163 . S
Mn1186 O1194 2.160 . S
Mn1186 O1204 2.221 . S
O1187 Mn1188 2.087 . S
O1187 C1199 1.256 . S
Mn1188 O1187 2.087 . S
Mn1188 O1195 2.089 . S
Mn1188 O1204 2.290 . S
Mn1188 O1205 2.251 . S
O1189 Mn1186 2.160 . S
O1189 C1200 1.239 . S
O1190 Mn1186 2.221 . S
O1190 Mn1191 2.290 . S
O1190 C1201 1.278 . S
Mn1191 O1190 2.290 . S
Mn1191 O1193 2.089 . S
Mn1191 O1196 2.251 . S
Mn1191 O1197 2.087 . S
O1192 Mn1186 2.163 . S
O1192 C1202 1.244 . S
O1193 Mn1191 2.089 . S
O1193 C1200 1.256 . S
O1194 Mn1186 2.160 . S
O1194 C1203 1.239 . S
O1195 Mn1188 2.089 . S
O1195 C1203 1.256 . S
O1196 Mn1191 2.251 . S
O1196 C1201 1.241 . S
O1197 Mn1191 2.087 . S
O1197 C1202 1.256 . S
C1198 O1204 1.278 . S
C1198 O1205 1.241 . S
C1199 O1185 1.244 . S
C1199 O1187 1.256 . S
C1200 O1189 1.239 . S
C1200 O1193 1.256 . S
C1201 O1190 1.278 . S
C1201 O1196 1.241 . S
C1202 O1192 1.244 . S
C1202 O1197 1.256 . S
C1203 O1194 1.239 . S
C1203 O1195 1.256 . S
O1204 Mn1186 2.221 . S
O1204 Mn1188 2.290 . S
O1204 C1198 1.278 . S
O1205 Mn1188 2.251 . S
O1205 C1198 1.241 . S
O1206 Mn1207 2.163 . S
O1206 C1220 1.244 . S
Mn1207 O1206 2.163 . S
Mn1207 O1210 2.160 . S
Mn1207 O1211 2.221 . S
Mn1207 O1213 2.163 . S
Mn1207 O1215 2.160 . S
Mn1207 O1225 2.221 . S
O1208 Mn1209 2.087 . S
O1208 C1220 1.256 . S
Mn1209 O1208 2.087 . S
Mn1209 O1216 2.089 . S
Mn1209 O1225 2.290 . S
Mn1209 O1226 2.251 . S
O1210 Mn1207 2.160 . S
O1210 C1221 1.239 . S
O1211 Mn1207 2.221 . S
O1211 Mn1212 2.290 . S
O1211 C1222 1.278 . S
Mn1212 O1211 2.290 . S
Mn1212 O1214 2.089 . S
Mn1212 O1217 2.251 . S
Mn1212 O1218 2.087 . S
O1213 Mn1207 2.163 . S
O1213 C1223 1.244 . S
O1214 Mn1212 2.089 . S
O1214 C1221 1.256 . S
O1215 Mn1207 2.160 . S
O1215 C1224 1.239 . S
O1216 Mn1209 2.089 . S
O1216 C1224 1.256 . S
O1217 Mn1212 2.251 . S
O1217 C1222 1.241 . S
O1218 Mn1212 2.087 . S
O1218 C1223 1.256 . S
C1219 O1225 1.278 . S
C1219 O1226 1.241 . S
C1220 O1206 1.244 . S
C1220 O1208 1.256 . S
C1221 O1210 1.239 . S
C1221 O1214 1.256 . S
C1222 O1211 1.278 . S
C1222 O1217 1.241 . S
C1223 O1213 1.244 . S
C1223 O1218 1.256 . S
C1224 O1215 1.239 . S
C1224 O1216 1.256 . S
O1225 Mn1207 2.221 . S
O1225 Mn1209 2.290 . S
O1225 C1219 1.278 . S
O1226 Mn1209 2.251 . S
O1226 C1219 1.241 . S
O1227 Mn1228 2.163 . S
O1227 C1241 1.244 . S
Mn1228 O1227 2.163 . S
Mn1228 O1231 2.160 . S
Mn1228 O1232 2.221 . S
Mn1228 O1234 2.163 . S
Mn1228 O1236 2.160 . S
Mn1228 O1246 2.221 . S
O1229 Mn1230 2.087 . S
O1229 C1241 1.256 . S
Mn1230 O1229 2.087 . S
Mn1230 O1237 2.089 . S
Mn1230 O1246 2.290 . S
Mn1230 O1247 2.251 . S
O1231 Mn1228 2.160 . S
O1231 C1242 1.239 . S
O1232 Mn1228 2.221 . S
O1232 Mn1233 2.290 . S
O1232 C1243 1.278 . S
Mn1233 O1232 2.290 . S
Mn1233 O1235 2.089 . S
Mn1233 O1238 2.251 . S
Mn1233 O1239 2.087 . S
O1234 Mn1228 2.163 . S
O1234 C1244 1.244 . S
O1235 Mn1233 2.089 . S
O1235 C1242 1.256 . S
O1236 Mn1228 2.160 . S
O1236 C1245 1.239 . S
O1237 Mn1230 2.089 . S
O1237 C1245 1.256 . S
O1238 Mn1233 2.251 . S
O1238 C1243 1.241 . S
O1239 Mn1233 2.087 . S
O1239 C1244 1.256 . S
C1240 O1246 1.278 . S
C1240 O1247 1.241 . S
C1241 O1227 1.244 . S
C1241 O1229 1.256 . S
C1242 O1231 1.239 . S
C1242 O1235 1.256 . S
C1243 O1232 1.278 . S
C1243 O1238 1.241 . S
C1244 O1234 1.244 . S
C1244 O1239 1.256 . S
C1245 O1236 1.239 . S
C1245 O1237 1.256 . S
O1246 Mn1228 2.221 . S
O1246 Mn1230 2.290 . S
O1246 C1240 1.278 . S
O1247 Mn1230 2.251 . S
O1247 C1240 1.241 . S
O1248 Mn1249 2.163 . S
O1248 C1262 1.244 . S
Mn1249 O1248 2.163 . S
Mn1249 O1252 2.160 . S
Mn1249 O1253 2.221 . S
Mn1249 O1255 2.163 . S
Mn1249 O1257 2.160 . S
Mn1249 O1267 2.221 . S
O1250 Mn1251 2.087 . S
O1250 C1262 1.256 . S
Mn1251 O1250 2.087 . S
Mn1251 O1258 2.089 . S
Mn1251 O1267 2.290 . S
Mn1251 O1268 2.251 . S
O1252 Mn1249 2.160 . S
O1252 C1263 1.239 . S
O1253 Mn1249 2.221 . S
O1253 Mn1254 2.290 . S
O1253 C1264 1.278 . S
Mn1254 O1253 2.290 . S
Mn1254 O1256 2.089 . S
Mn1254 O1259 2.251 . S
Mn1254 O1260 2.087 . S
O1255 Mn1249 2.163 . S
O1255 C1265 1.244 . S
O1256 Mn1254 2.089 . S
O1256 C1263 1.256 . S
O1257 Mn1249 2.160 . S
O1257 C1266 1.239 . S
O1258 Mn1251 2.089 . S
O1258 C1266 1.256 . S
O1259 Mn1254 2.251 . S
O1259 C1264 1.241 . S
O1260 Mn1254 2.087 . S
O1260 C1265 1.256 . S
C1261 O1267 1.278 . S
C1261 O1268 1.241 . S
C1262 O1248 1.244 . S
C1262 O1250 1.256 . S
C1263 O1252 1.239 . S
C1263 O1256 1.256 . S
C1264 O1253 1.278 . S
C1264 O1259 1.241 . S
C1265 O1255 1.244 . S
C1265 O1260 1.256 . S
C1266 O1257 1.239 . S
C1266 O1258 1.256 . S
O1267 Mn1249 2.221 . S
O1267 Mn1251 2.290 . S
O1267 C1261 1.278 . S
O1268 Mn1251 2.251 . S
O1268 C1261 1.241 . S
H1269 C1287 0.951 . S
H1270 C1289 0.951 . S
H1271 C1291 0.950 . S
H1272 C1292 0.950 . S
H1273 C1294 0.950 . S
H1274 C1297 0.950 . S
H1275 C1298 0.950 . S
H1276 C1300 0.950 . S
H1277 C1301 0.950 1_554 S
H1278 C1302 0.951 . S
H1279 C1304 0.951 . S
H1280 C1306 0.950 . S
H1281 C1307 0.950 . S
H1282 C1309 0.950 . S
H1283 C1312 0.950 . S
H1284 C1313 0.950 . S
H1285 C1315 0.950 . S
H1286 C1316 0.950 . S
C1287 H1269 0.951 . S
C1287 C1288 1.366 . S
C1287 C1289 1.388 . S
C1288 C1287 1.366 . S
C1288 C1292 1.385 . S
C1289 H1270 0.951 . S
C1289 C1287 1.388 . S
C1289 C1290 1.366 . S
C1290 C1289 1.366 . S
C1290 C1291 1.414 . S
C1290 C1293 1.499 . S
C1291 H1271 0.950 . S
C1291 C1290 1.414 . S
C1291 C1292 1.374 . S
C1292 H1272 0.950 . S
C1292 C1288 1.385 . S
C1292 C1291 1.374 . S
C1293 C1290 1.499 . S
C1293 C1294 1.373 . S
C1293 C1295 1.389 . S
C1294 H1273 0.950 . S
C1294 C1293 1.373 . S
C1294 C1310 1.377 . S
C1295 C1293 1.389 . S
C1295 C1296 1.524 . S
C1295 C1309 1.377 . S
C1296 C1295 1.524 . S
C1296 C1297 1.397 1_554 S
C1296 C1301 1.363 1_554 S
C1297 H1274 0.950 . S
C1297 C1296 1.397 1_556 S
C1297 C1298 1.334 . S
C1298 H1275 0.950 . S
C1298 C1297 1.334 . S
C1298 C1299 1.287 . S
C1299 C1298 1.287 . S
C1299 C1300 1.524 . S
C1299 H1318 0.913 . S
C1300 H1276 0.950 . S
C1300 C1299 1.524 . S
C1300 C1301 1.415 . S
C1301 H1277 0.950 1_556 S
C1301 C1296 1.363 1_556 S
C1301 C1300 1.415 . S
C1302 H1278 0.951 . S
C1302 C1303 1.366 . S
C1302 C1304 1.388 . S
C1303 C1302 1.366 . S
C1303 C1307 1.385 . S
C1304 H1279 0.951 . S
C1304 C1302 1.388 . S
C1304 C1305 1.366 . S
C1305 C1304 1.366 . S
C1305 C1306 1.414 . S
C1305 C1308 1.499 . S
C1306 H1280 0.950 . S
C1306 C1305 1.414 . S
C1306 C1307 1.374 . S
C1307 H1281 0.950 . S
C1307 C1303 1.385 . S
C1307 C1306 1.374 . S
C1308 C1305 1.499 . S
C1308 C1309 1.373 . S
C1308 C1310 1.389 . S
C1309 H1282 0.950 . S
C1309 C1295 1.377 . S
C1309 C1308 1.373 . S
C1310 C1294 1.377 . S
C1310 C1308 1.389 . S
C1310 C1311 1.524 . S
C1311 C1310 1.524 . S
C1311 C1312 1.397 . S
C1311 C1316 1.363 . S
C1312 H1283 0.950 . S
C1312 C1311 1.397 . S
C1312 C1313 1.334 . S
C1313 H1284 0.950 . S
C1313 C1312 1.334 . S
C1313 C1314 1.287 . S
C1314 C1313 1.287 . S
C1314 C1315 1.524 . S
C1314 H1317 0.999 . S
C1315 H1285 0.950 . S
C1315 C1314 1.524 . S
C1315 C1316 1.415 . S
C1316 H1286 0.950 . S
C1316 C1311 1.363 . S
C1316 C1315 1.415 . S
H1317 C1314 0.999 . S
H1318 C1299 0.913 . S
H1319 C1337 0.951 . S
H1320 C1339 0.951 . S
H1321 C1341 0.950 . S
H1322 C1342 0.950 . S
H1323 C1344 0.950 . S
H1324 C1347 0.950 . S
H1325 C1348 0.950 . S
H1326 C1350 0.950 . S
H1327 C1351 0.950 . S
H1328 C1352 0.951 1_556 S
H1329 C1354 0.951 . S
H1330 C1356 0.950 . S
H1331 C1357 0.950 . S
H1332 C1359 0.950 . S
H1333 C1362 0.950 . S
H1334 C1363 0.950 . S
H1335 C1365 0.950 . S
H1336 C1366 0.950 . S
C1337 H1319 0.951 . S
C1337 C1338 1.366 . S
C1337 C1339 1.388 . S
C1338 C1337 1.366 . S
C1338 C1342 1.385 . S
C1339 H1320 0.951 . S
C1339 C1337 1.388 . S
C1339 C1340 1.366 . S
C1340 C1339 1.366 . S
C1340 C1341 1.414 . S
C1340 C1343 1.499 . S
C1341 H1321 0.950 . S
C1341 C1340 1.414 . S
C1341 C1342 1.374 . S
C1342 H1322 0.950 . S
C1342 C1338 1.385 . S
C1342 C1341 1.374 . S
C1343 C1340 1.499 . S
C1343 C1344 1.373 . S
C1343 C1345 1.389 . S
C1344 H1323 0.950 . S
C1344 C1343 1.373 . S
C1344 C1360 1.377 . S
C1345 C1343 1.389 . S
C1345 C1346 1.524 . S
C1345 C1359 1.377 . S
C1346 C1345 1.524 . S
C1346 C1347 1.397 . S
C1346 C1351 1.363 . S
C1347 H1324 0.950 . S
C1347 C1346 1.397 . S
C1347 C1348 1.334 . S
C1348 H1325 0.950 . S
C1348 C1347 1.334 . S
C1348 C1349 1.287 . S
C1349 C1348 1.287 . S
C1349 C1350 1.524 . S
C1349 H1368 0.913 . S
C1350 H1326 0.950 . S
C1350 C1349 1.524 . S
C1350 C1351 1.415 . S
C1351 H1327 0.950 . S
C1351 C1346 1.363 . S
C1351 C1350 1.415 . S
C1352 H1328 0.951 1_554 S
C1352 C1353 1.366 . S
C1352 C1354 1.388 . S
C1353 C1352 1.366 . S
C1353 C1357 1.385 . S
C1354 H1329 0.951 . S
C1354 C1352 1.388 . S
C1354 C1355 1.366 . S
C1355 C1354 1.366 . S
C1355 C1356 1.414 . S
C1355 C1358 1.499 . S
C1356 H1330 0.950 . S
C1356 C1355 1.414 . S
C1356 C1357 1.374 . S
C1357 H1331 0.950 . S
C1357 C1353 1.385 . S
C1357 C1356 1.374 . S
C1358 C1355 1.499 . S
C1358 C1359 1.373 . S
C1358 C1360 1.389 . S
C1359 H1332 0.950 . S
C1359 C1345 1.377 . S
C1359 C1358 1.373 . S
C1360 C1344 1.377 . S
C1360 C1358 1.389 . S
C1360 C1361 1.524 . S
C1361 C1360 1.524 . S
C1361 C1362 1.397 . S
C1361 C1366 1.363 . S
C1362 H1333 0.950 . S
C1362 C1361 1.397 . S
C1362 C1363 1.334 . S
C1363 H1334 0.950 . S
C1363 C1362 1.334 . S
C1363 C1364 1.287 . S
C1364 C1363 1.287 . S
C1364 C1365 1.524 . S
C1364 H1367 0.999 . S
C1365 H1335 0.950 . S
C1365 C1364 1.524 . S
C1365 C1366 1.415 . S
C1366 H1336 0.950 . S
C1366 C1361 1.363 . S
C1366 C1365 1.415 . S
H1367 C1364 0.999 . S
H1368 C1349 0.913 . S
H1369 C1387 0.951 . S
H1370 C1389 0.951 . S
H1371 C1391 0.950 . S
H1372 C1392 0.950 . S
H1373 C1394 0.950 . S
H1374 C1397 0.950 . S
H1375 C1398 0.950 . S
H1376 C1400 0.992 . S
H1377 C1401 0.950 1_556 S
H1378 C1402 0.951 . S
H1379 C1404 0.951 . S
H1380 C1406 0.950 1_556 S
H1381 C1407 0.950 1_556 S
H1382 C1409 0.950 . S
H1383 C1412 0.950 . S
H1384 C1413 0.950 . S
H1385 C1415 0.950 . S
H1386 C1416 0.950 . S
C1387 H1369 0.951 . S
C1387 C1388 1.366 . S
C1387 C1389 1.388 . S
C1388 C1387 1.366 . S
C1388 C1392 1.385 . S
C1389 H1370 0.951 . S
C1389 C1387 1.388 . S
C1389 C1390 1.366 . S
C1390 C1389 1.366 . S
C1390 C1391 1.414 . S
C1390 C1393 1.499 . S
C1391 H1371 0.950 . S
C1391 C1390 1.414 . S
C1391 C1392 1.374 . S
C1392 H1372 0.950 . S
C1392 C1388 1.385 . S
C1392 C1391 1.374 . S
C1393 C1390 1.499 . S
C1393 C1394 1.373 . S
C1393 C1395 1.389 . S
C1394 H1373 0.950 . S
C1394 C1393 1.373 . S
C1394 C1410 1.377 . S
C1395 C1393 1.389 . S
C1395 C1396 1.524 . S
C1395 C1409 1.377 . S
C1396 C1395 1.524 . S
C1396 C1397 1.397 . S
C1396 C1401 1.363 . S
C1397 H1374 0.950 . S
C1397 C1396 1.397 . S
C1397 C1398 1.334 . S
C1398 H1375 0.950 . S
C1398 C1397 1.334 . S
C1398 C1399 1.287 . S
C1399 C1398 1.287 . S
C1399 C1400 1.486 1_554 S
C1399 H1418 0.913 . S
C1400 H1376 0.992 . S
C1400 C1399 1.486 1_556 S
C1400 C1401 1.406 1_556 S
C1401 H1377 0.950 1_554 S
C1401 C1396 1.363 . S
C1401 C1400 1.406 1_554 S
C1402 H1378 0.951 . S
C1402 C1403 1.366 . S
C1402 C1404 1.388 . S
C1403 C1402 1.366 . S
C1403 C1407 1.385 . S
C1404 H1379 0.951 . S
C1404 C1402 1.388 . S
C1404 C1405 1.366 . S
C1405 C1404 1.366 . S
C1405 C1406 1.414 . S
C1405 C1408 1.499 . S
C1406 H1380 0.950 1_554 S
C1406 C1405 1.414 . S
C1406 C1407 1.374 . S
C1407 H1381 0.950 1_554 S
C1407 C1403 1.385 . S
C1407 C1406 1.374 . S
C1408 C1405 1.499 . S
C1408 C1409 1.373 . S
C1408 C1410 1.389 . S
C1409 H1382 0.950 . S
C1409 C1395 1.377 . S
C1409 C1408 1.373 . S
C1410 C1394 1.377 . S
C1410 C1408 1.389 . S
C1410 C1411 1.524 . S
C1411 C1410 1.524 . S
C1411 C1412 1.397 . S
C1411 C1416 1.363 . S
C1412 H1383 0.950 . S
C1412 C1411 1.397 . S
C1412 C1413 1.334 . S
C1413 H1384 0.950 . S
C1413 C1412 1.334 . S
C1413 C1414 1.287 . S
C1414 C1413 1.287 . S
C1414 C1415 1.524 . S
C1414 H1417 0.999 . S
C1415 H1385 0.950 . S
C1415 C1414 1.524 . S
C1415 C1416 1.415 . S
C1416 H1386 0.950 . S
C1416 C1411 1.363 . S
C1416 C1415 1.415 . S
H1417 C1414 0.999 . S
H1418 C1399 0.913 . S
H1419 C1437 0.951 . S
H1420 C1439 0.951 . S
H1421 C1441 0.950 . S
H1422 C1442 0.950 . S
H1423 C1444 0.950 . S
H1424 C1447 0.950 . S
H1425 C1448 0.950 . S
H1426 C1450 0.950 . S
H1427 C1451 0.950 1_556 S
H1428 C1452 0.951 . S
H1429 C1454 0.951 . S
H1430 C1456 0.950 . S
H1431 C1457 0.950 . S
H1432 C1459 0.929 1_554 S
H1433 C1462 0.950 . S
H1434 C1463 0.950 . S
H1435 C1465 0.950 . S
H1436 C1466 0.950 . S
C1437 H1419 0.951 . S
C1437 C1438 1.366 . S
C1437 C1439 1.388 . S
C1438 C1437 1.366 . S
C1438 C1442 1.385 . S
C1439 H1420 0.951 . S
C1439 C1437 1.388 . S
C1439 C1440 1.366 . S
C1440 C1439 1.366 . S
C1440 C1441 1.414 . S
C1440 C1443 1.499 . S
C1441 H1421 0.950 . S
C1441 C1440 1.414 . S
C1441 C1442 1.374 . S
C1442 H1422 0.950 . S
C1442 C1438 1.385 . S
C1442 C1441 1.374 . S
C1443 C1440 1.499 . S
C1443 C1444 1.373 . S
C1443 C1445 1.389 . S
C1444 H1423 0.950 . S
C1444 C1443 1.373 . S
C1444 C1460 1.377 . S
C1445 C1443 1.389 . S
C1445 C1446 1.524 1_556 S
C1445 C1459 1.377 . S
C1446 C1445 1.524 1_554 S
C1446 C1447 1.397 . S
C1446 C1451 1.363 . S
C1447 H1424 0.950 . S
C1447 C1446 1.397 . S
C1447 C1448 1.334 . S
C1448 H1425 0.950 . S
C1448 C1447 1.334 . S
C1448 C1449 1.287 . S
C1449 C1448 1.287 . S
C1449 C1450 1.524 . S
C1449 H1468 0.913 . S
C1450 H1426 0.950 . S
C1450 C1449 1.524 . S
C1450 C1451 1.415 . S
C1451 H1427 0.950 1_554 S
C1451 C1446 1.363 . S
C1451 C1450 1.415 . S
C1452 H1428 0.951 . S
C1452 C1453 1.366 . S
C1452 C1454 1.388 . S
C1453 C1452 1.366 . S
C1453 C1457 1.385 . S
C1454 H1429 0.951 . S
C1454 C1452 1.388 . S
C1454 C1455 1.366 . S
C1455 C1454 1.366 . S
C1455 C1456 1.414 . S
C1455 C1458 1.499 . S
C1456 H1430 0.950 . S
C1456 C1455 1.414 . S
C1456 C1457 1.374 . S
C1457 H1431 0.950 . S
C1457 C1453 1.385 . S
C1457 C1456 1.374 . S
C1458 C1455 1.499 . S
C1458 C1459 1.373 . S
C1458 C1460 1.389 . S
C1459 H1432 0.929 1_556 S
C1459 C1445 1.377 . S
C1459 C1458 1.373 . S
C1460 C1444 1.377 . S
C1460 C1458 1.389 . S
C1460 C1461 1.524 . S
C1461 C1460 1.524 . S
C1461 C1462 1.397 . S
C1461 C1466 1.363 . S
C1462 H1433 0.950 . S
C1462 C1461 1.397 . S
C1462 C1463 1.334 . S
C1463 H1434 0.950 . S
C1463 C1462 1.334 . S
C1463 C1464 1.287 . S
C1464 C1463 1.287 . S
C1464 C1465 1.524 . S
C1464 H1467 0.999 . S
C1465 H1435 0.950 . S
C1465 C1464 1.524 . S
C1465 C1466 1.415 . S
C1466 H1436 0.950 . S
C1466 C1461 1.363 . S
C1466 C1465 1.415 . S
H1467 C1464 0.999 . S
H1468 C1449 0.913 . S
H1469 C1487 0.951 . S
H1470 C1489 0.951 . S
H1471 C1491 0.950 . S
H1472 C1492 0.950 . S
H1473 C1494 0.950 . S
H1474 C1497 0.902 1_556 S
H1475 C1498 0.950 . S
H1476 C1500 0.950 . S
H1477 C1501 0.950 . S
H1478 C1502 0.951 . S
H1479 C1504 0.951 . S
H1480 C1506 0.950 . S
H1481 C1507 0.950 . S
H1482 C1509 0.950 1_554 S
H1483 C1512 0.950 . S
H1484 C1513 0.950 . S
H1485 C1515 0.950 . S
H1486 C1516 0.950 . S
C1487 H1469 0.951 . S
C1487 C1488 1.366 . S
C1487 C1489 1.388 . S
C1488 C1487 1.366 . S
C1488 C1492 1.385 . S
C1489 H1470 0.951 . S
C1489 C1487 1.388 . S
C1489 C1490 1.366 . S
C1490 C1489 1.366 . S
C1490 C1491 1.414 . S
C1490 C1493 1.499 . S
C1491 H1471 0.950 . S
C1491 C1490 1.414 . S
C1491 C1492 1.374 . S
C1492 H1472 0.950 . S
C1492 C1488 1.385 . S
C1492 C1491 1.374 . S
C1493 C1490 1.499 . S
C1493 C1494 1.373 . S
C1493 C1495 1.389 . S
C1494 H1473 0.950 . S
C1494 C1493 1.373 . S
C1494 C1510 1.377 . S
C1495 C1493 1.389 . S
C1495 C1496 1.524 1_556 S
C1495 C1509 1.377 . S
C1496 C1495 1.524 1_554 S
C1496 C1497 1.413 . S
C1496 C1501 1.363 . S
C1497 H1474 0.902 1_554 S
C1497 C1496 1.413 . S
C1497 C1498 1.365 . S
C1498 H1475 0.950 . S
C1498 C1497 1.365 . S
C1498 C1499 1.287 . S
C1499 C1498 1.287 . S
C1499 C1500 1.524 . S
C1499 H1518 0.913 . S
C1500 H1476 0.950 . S
C1500 C1499 1.524 . S
C1500 C1501 1.415 . S
C1501 H1477 0.950 . S
C1501 C1496 1.363 . S
C1501 C1500 1.415 . S
C1502 H1478 0.951 . S
C1502 C1503 1.366 . S
C1502 C1504 1.388 . S
C1503 C1502 1.366 . S
C1503 C1507 1.385 1_556 S
C1504 H1479 0.951 . S
C1504 C1502 1.388 . S
C1504 C1505 1.366 . S
C1505 C1504 1.366 . S
C1505 C1506 1.414 1_556 S
C1505 C1508 1.499 . S
C1506 H1480 0.950 . S
C1506 C1505 1.414 1_554 S
C1506 C1507 1.374 . S
C1507 H1481 0.950 . S
C1507 C1503 1.385 1_554 S
C1507 C1506 1.374 . S
C1508 C1505 1.499 . S
C1508 C1509 1.373 . S
C1508 C1510 1.389 . S
C1509 H1482 0.950 1_556 S
C1509 C1495 1.377 . S
C1509 C1508 1.373 . S
C1510 C1494 1.377 . S
C1510 C1508 1.389 . S
C1510 C1511 1.524 . S
C1511 C1510 1.524 . S
C1511 C1512 1.397 . S
C1511 C1516 1.363 . S
C1512 H1483 0.950 . S
C1512 C1511 1.397 . S
C1512 C1513 1.334 . S
C1513 H1484 0.950 . S
C1513 C1512 1.334 . S
C1513 C1514 1.287 . S
C1514 C1513 1.287 . S
C1514 C1515 1.524 . S
C1514 H1517 0.999 . S
C1515 H1485 0.950 . S
C1515 C1514 1.524 . S
C1515 C1516 1.415 . S
C1516 H1486 0.950 . S
C1516 C1511 1.363 . S
C1516 C1515 1.415 . S
H1517 C1514 0.999 . S
H1518 C1499 0.913 . S
H1519 C1537 0.951 . S
H1520 C1539 0.951 . S
H1521 C1541 0.950 . S
H1522 C1542 0.950 . S
H1523 C1544 0.950 1_554 S
H1524 C1547 0.950 . S
H1525 C1548 0.950 . S
H1526 C1550 0.950 . S
H1527 C1551 0.950 . S
H1528 C1552 0.951 . S
H1529 C1554 0.951 . S
H1530 C1556 0.950 . S
H1531 C1557 0.950 . S
H1532 C1559 0.950 . S
H1533 C1562 0.950 . S
H1534 C1563 0.950 . S
H1535 C1565 0.950 . S
H1536 C1566 0.950 . S
C1537 H1519 0.951 . S
C1537 C1538 1.366 . S
C1537 C1539 1.388 . S
C1538 C1537 1.366 . S
C1538 C1542 1.385 . S
C1539 H1520 0.951 . S
C1539 C1537 1.388 . S
C1539 C1540 1.366 . S
C1540 C1539 1.366 . S
C1540 C1541 1.414 . S
C1540 C1543 1.499 . S
C1541 H1521 0.950 . S
C1541 C1540 1.414 . S
C1541 C1542 1.374 . S
C1542 H1522 0.950 . S
C1542 C1538 1.385 . S
C1542 C1541 1.374 . S
C1543 C1540 1.499 . S
C1543 C1544 1.373 . S
C1543 C1545 1.389 . S
C1544 H1523 0.950 1_556 S
C1544 C1543 1.373 . S
C1544 C1560 1.377 . S
C1545 C1543 1.389 . S
C1545 C1546 1.524 . S
C1545 C1559 1.377 . S
C1546 C1545 1.524 . S
C1546 C1547 1.397 . S
C1546 C1551 1.363 . S
C1547 H1524 0.950 . S
C1547 C1546 1.397 . S
C1547 C1548 1.334 . S
C1548 H1525 0.950 . S
C1548 C1547 1.334 . S
C1548 C1549 1.287 . S
C1549 C1548 1.287 . S
C1549 C1550 1.524 . S
C1549 H1568 0.913 . S
C1550 H1526 0.950 . S
C1550 C1549 1.524 . S
C1550 C1551 1.415 . S
C1551 H1527 0.950 . S
C1551 C1546 1.363 . S
C1551 C1550 1.415 . S
C1552 H1528 0.951 . S
C1552 C1553 1.366 . S
C1552 C1554 1.388 . S
C1553 C1552 1.366 . S
C1553 C1557 1.385 . S
C1554 H1529 0.951 . S
C1554 C1552 1.388 . S
C1554 C1555 1.366 . S
C1555 C1554 1.366 . S
C1555 C1556 1.414 . S
C1555 C1558 1.499 . S
C1556 H1530 0.950 . S
C1556 C1555 1.414 . S
C1556 C1557 1.374 . S
C1557 H1531 0.950 . S
C1557 C1553 1.385 . S
C1557 C1556 1.374 . S
C1558 C1555 1.499 . S
C1558 C1559 1.373 . S
C1558 C1560 1.389 . S
C1559 H1532 0.950 . S
C1559 C1545 1.377 . S
C1559 C1558 1.373 . S
C1560 C1544 1.377 . S
C1560 C1558 1.389 . S
C1560 C1561 1.524 1_556 S
C1561 C1560 1.524 1_554 S
C1561 C1562 1.397 . S
C1561 C1566 1.363 . S
C1562 H1533 0.950 . S
C1562 C1561 1.397 . S
C1562 C1563 1.334 . S
C1563 H1534 0.950 . S
C1563 C1562 1.334 . S
C1563 C1564 1.287 . S
C1564 C1563 1.287 . S
C1564 C1565 1.524 . S
C1564 H1567 0.999 . S
C1565 H1535 0.950 . S
C1565 C1564 1.524 . S
C1565 C1566 1.415 . S
C1566 H1536 0.950 . S
C1566 C1561 1.363 . S
C1566 C1565 1.415 . S
H1567 C1564 0.999 . S
H1568 C1549 0.913 . S
H1569 C1587 0.951 . S
H1570 C1589 0.951 . S
H1571 C1591 0.950 . S
H1572 C1592 0.950 . S
H1573 C1594 0.950 . S
H1574 C1597 0.950 . S
H1575 C1598 0.950 . S
H1576 C1600 0.950 . S
H1577 C1601 0.950 . S
H1578 C1602 0.951 . S
H1579 C1604 0.951 . S
H1580 C1606 0.950 . S
H1581 C1607 0.950 . S
H1582 C1609 0.950 . S
H1583 C1612 0.950 . S
H1584 C1613 0.950 . S
H1585 C1615 0.950 . S
H1586 C1616 0.950 . S
C1587 H1569 0.951 . S
C1587 C1588 1.366 . S
C1587 C1589 1.388 . S
C1588 C1587 1.366 . S
C1588 C1592 1.385 . S
C1589 H1570 0.951 . S
C1589 C1587 1.388 . S
C1589 C1590 1.366 . S
C1590 C1589 1.366 . S
C1590 C1591 1.414 . S
C1590 C1593 1.499 . S
C1591 H1571 0.950 . S
C1591 C1590 1.414 . S
C1591 C1592 1.374 . S
C1592 H1572 0.950 . S
C1592 C1588 1.385 . S
C1592 C1591 1.374 . S
C1593 C1590 1.499 . S
C1593 C1594 1.373 . S
C1593 C1595 1.389 . S
C1594 H1573 0.950 . S
C1594 C1593 1.373 . S
C1594 C1610 1.377 . S
C1595 C1593 1.389 . S
C1595 C1596 1.524 . S
C1595 C1609 1.377 . S
C1596 C1595 1.524 . S
C1596 C1597 1.397 . S
C1596 C1601 1.363 . S
C1597 H1574 0.950 . S
C1597 C1596 1.397 . S
C1597 C1598 1.334 . S
C1598 H1575 0.950 . S
C1598 C1597 1.334 . S
C1598 C1599 1.287 . S
C1599 C1598 1.287 . S
C1599 C1600 1.524 . S
C1599 H1618 0.913 . S
C1600 H1576 0.950 . S
C1600 C1599 1.524 . S
C1600 C1601 1.415 . S
C1601 H1577 0.950 . S
C1601 C1596 1.363 . S
C1601 C1600 1.415 . S
C1602 H1578 0.951 . S
C1602 C1603 1.366 . S
C1602 C1604 1.388 . S
C1603 C1602 1.366 . S
C1603 C1607 1.385 1_556 S
C1604 H1579 0.951 . S
C1604 C1602 1.388 . S
C1604 C1605 1.366 . S
C1605 C1604 1.366 . S
C1605 C1606 1.414 1_556 S
C1605 C1608 1.499 . S
C1606 H1580 0.950 . S
C1606 C1605 1.414 1_554 S
C1606 C1607 1.374 . S
C1607 H1581 0.950 . S
C1607 C1603 1.385 1_554 S
C1607 C1606 1.374 . S
C1608 C1605 1.499 . S
C1608 C1609 1.373 . S
C1608 C1610 1.389 . S
C1609 H1582 0.950 . S
C1609 C1595 1.377 . S
C1609 C1608 1.373 . S
C1610 C1594 1.377 . S
C1610 C1608 1.389 . S
C1610 C1611 1.524 . S
C1611 C1610 1.524 . S
C1611 C1612 1.397 1_556 S
C1611 C1616 1.363 . S
C1612 H1583 0.950 . S
C1612 C1611 1.397 1_554 S
C1612 C1613 1.334 . S
C1613 H1584 0.950 . S
C1613 C1612 1.334 . S
C1613 C1614 1.287 . S
C1614 C1613 1.287 . S
C1614 C1615 1.524 1_554 S
C1614 H1617 0.999 . S
C1615 H1585 0.950 . S
C1615 C1614 1.524 1_556 S
C1615 C1616 1.415 . S
C1616 H1586 0.950 . S
C1616 C1611 1.363 . S
C1616 C1615 1.415 . S
H1617 C1614 0.999 . S
H1618 C1599 0.913 . S
H1619 C1637 0.951 . S
H1620 C1639 0.951 . S
H1621 C1641 0.950 . S
H1622 C1642 0.950 . S
H1623 C1644 0.950 . S
H1624 C1647 0.950 . S
H1625 C1648 0.950 . S
H1626 C1650 0.950 . S
H1627 C1651 0.950 . S
H1628 C1652 0.951 . S
H1629 C1654 0.951 . S
H1630 C1656 0.950 . S
H1631 C1657 0.950 1_554 S
H1632 C1659 0.950 . S
H1633 C1662 0.950 . S
H1634 C1663 0.950 . S
H1635 C1665 0.950 . S
H1636 C1666 0.950 1_556 S
C1637 H1619 0.951 . S
C1637 C1638 1.366 . S
C1637 C1639 1.388 . S
C1638 C1637 1.366 . S
C1638 C1642 1.385 . S
C1639 H1620 0.951 . S
C1639 C1637 1.388 . S
C1639 C1640 1.366 . S
C1640 C1639 1.366 . S
C1640 C1641 1.414 . S
C1640 C1643 1.499 . S
C1641 H1621 0.950 . S
C1641 C1640 1.414 . S
C1641 C1642 1.374 . S
C1642 H1622 0.950 . S
C1642 C1638 1.385 . S
C1642 C1641 1.374 . S
C1643 C1640 1.499 . S
C1643 C1644 1.373 . S
C1643 C1645 1.389 . S
C1644 H1623 0.950 . S
C1644 C1643 1.373 . S
C1644 C1660 1.377 . S
C1645 C1643 1.389 . S
C1645 C1646 1.524 . S
C1645 C1659 1.377 . S
C1646 C1645 1.524 . S
C1646 C1647 1.397 . S
C1646 C1651 1.363 . S
C1647 H1624 0.950 . S
C1647 C1646 1.397 . S
C1647 C1648 1.334 . S
C1648 H1625 0.950 . S
C1648 C1647 1.334 . S
C1648 C1649 1.287 . S
C1649 C1648 1.287 . S
C1649 C1650 1.524 . S
C1649 H1668 0.913 . S
C1650 H1626 0.950 . S
C1650 C1649 1.524 . S
C1650 C1651 1.415 . S
C1651 H1627 0.950 . S
C1651 C1646 1.363 . S
C1651 C1650 1.415 . S
C1652 H1628 0.951 . S
C1652 C1653 1.366 . S
C1652 C1654 1.388 . S
C1653 C1652 1.366 . S
C1653 C1657 1.385 . S
C1654 H1629 0.951 . S
C1654 C1652 1.388 . S
C1654 C1655 1.366 . S
C1655 C1654 1.366 . S
C1655 C1656 1.414 . S
C1655 C1658 1.499 . S
C1656 H1630 0.950 . S
C1656 C1655 1.414 . S
C1656 C1657 1.374 . S
C1657 H1631 0.950 1_556 S
C1657 C1653 1.385 . S
C1657 C1656 1.374 . S
C1658 C1655 1.499 . S
C1658 C1659 1.373 . S
C1658 C1660 1.389 . S
C1659 H1632 0.950 . S
C1659 C1645 1.377 . S
C1659 C1658 1.373 . S
C1660 C1644 1.377 . S
C1660 C1658 1.389 . S
C1660 C1661 1.524 1_556 S
C1661 C1660 1.524 1_554 S
C1661 C1662 1.397 . S
C1661 C1666 1.363 . S
C1662 H1633 0.950 . S
C1662 C1661 1.397 . S
C1662 C1663 1.334 . S
C1663 H1634 0.950 . S
C1663 C1662 1.334 . S
C1663 C1664 1.287 . S
C1664 C1663 1.287 . S
C1664 C1665 1.524 . S
C1664 H1667 0.999 . S
C1665 H1635 0.950 . S
C1665 C1664 1.524 . S
C1665 C1666 1.415 . S
C1666 H1636 0.950 1_554 S
C1666 C1661 1.363 . S
C1666 C1665 1.415 . S
H1667 C1664 0.999 . S
H1668 C1649 0.913 . S
H1669 C1687 0.951 . S
H1670 C1689 0.951 1_554 S
H1671 C1691 0.950 . S
H1672 C1692 0.950 . S
H1673 C1694 0.950 . S
H1674 C1697 0.950 . S
H1675 C1698 0.946 1_556 S
H1676 C1700 0.950 . S
H1677 C1701 0.950 . S
H1678 C1702 0.951 . S
H1679 C1704 0.951 . S
H1680 C1706 0.950 . S
H1681 C1707 0.950 . S
H1682 C1709 0.950 1_554 S
H1683 C1712 0.950 . S
H1684 C1713 0.950 . S
H1685 C1715 0.950 . S
H1686 C1716 0.950 . S
C1687 H1669 0.951 . S
C1687 C1688 1.366 . S
C1687 C1689 1.388 . S
C1688 C1687 1.366 . S
C1688 C1692 1.385 . S
C1689 H1670 0.951 1_556 S
C1689 C1687 1.388 . S
C1689 C1690 1.366 . S
C1690 C1689 1.366 . S
C1690 C1691 1.414 . S
C1690 C1693 1.499 . S
C1691 H1671 0.950 . S
C1691 C1690 1.414 . S
C1691 C1692 1.374 . S
C1692 H1672 0.950 . S
C1692 C1688 1.385 . S
C1692 C1691 1.374 . S
C1693 C1690 1.499 . S
C1693 C1694 1.373 . S
C1693 C1695 1.389 . S
C1694 H1673 0.950 . S
C1694 C1693 1.373 . S
C1694 C1710 1.377 . S
C1695 C1693 1.389 . S
C1695 C1696 1.524 1_556 S
C1695 C1709 1.377 . S
C1696 C1695 1.524 1_554 S
C1696 C1697 1.397 1_554 S
C1696 C1701 1.363 . S
C1697 H1674 0.950 . S
C1697 C1696 1.397 1_556 S
C1697 C1698 1.331 1_556 S
C1698 H1675 0.946 1_554 S
C1698 C1697 1.331 1_554 S
C1698 C1699 1.295 . S
C1699 C1698 1.295 . S
C1699 C1700 1.524 . S
C1699 H1718 0.913 . S
C1700 H1676 0.950 . S
C1700 C1699 1.524 . S
C1700 C1701 1.415 . S
C1701 H1677 0.950 . S
C1701 C1696 1.363 . S
C1701 C1700 1.415 . S
C1702 H1678 0.951 . S
C1702 C1703 1.366 . S
C1702 C1704 1.388 . S
C1703 C1702 1.366 . S
C1703 C1707 1.385 1_556 S
C1704 H1679 0.951 . S
C1704 C1702 1.388 . S
C1704 C1705 1.366 . S
C1705 C1704 1.366 . S
C1705 C1706 1.414 1_556 S
C1705 C1708 1.499 . S
C1706 H1680 0.950 . S
C1706 C1705 1.414 1_554 S
C1706 C1707 1.374 . S
C1707 H1681 0.950 . S
C1707 C1703 1.385 1_554 S
C1707 C1706 1.374 . S
C1708 C1705 1.499 . S
C1708 C1709 1.373 . S
C1708 C1710 1.389 . S
C1709 H1682 0.950 1_556 S
C1709 C1695 1.377 . S
C1709 C1708 1.373 . S
C1710 C1694 1.377 . S
C1710 C1708 1.389 . S
C1710 C1711 1.524 . S
C1711 C1710 1.524 . S
C1711 C1712 1.397 . S
C1711 C1716 1.363 . S
C1712 H1683 0.950 . S
C1712 C1711 1.397 . S
C1712 C1713 1.334 . S
C1713 H1684 0.950 . S
C1713 C1712 1.334 . S
C1713 C1714 1.287 . S
C1714 C1713 1.287 . S
C1714 C1715 1.524 . S
C1714 H1717 0.999 . S
C1715 H1685 0.950 . S
C1715 C1714 1.524 . S
C1715 C1716 1.415 . S
C1716 H1686 0.950 . S
C1716 C1711 1.363 . S
C1716 C1715 1.415 . S
H1717 C1714 0.999 . S
H1718 C1699 0.913 . S
H1719 C1737 0.951 . S
H1720 C1739 0.951 . S
H1721 C1741 0.950 . S
H1722 C1742 0.950 . S
H1723 C1744 0.950 . S
H1724 C1747 0.950 . S
H1725 C1748 0.950 . S
H1726 C1750 0.950 . S
H1727 C1751 0.950 . S
H1728 C1752 0.951 . S
H1729 C1754 0.951 . S
H1730 C1756 0.919 1_556 S
H1731 C1757 0.950 1_556 S
H1732 C1759 0.950 . S
H1733 C1762 0.950 1_556 S
H1734 C1763 0.950 . S
H1735 C1765 0.950 . S
H1736 C1766 0.950 . S
C1737 H1719 0.951 . S
C1737 C1738 1.366 . S
C1737 C1739 1.388 . S
C1738 C1737 1.366 . S
C1738 C1742 1.385 . S
C1739 H1720 0.951 . S
C1739 C1737 1.388 . S
C1739 C1740 1.366 . S
C1740 C1739 1.366 . S
C1740 C1741 1.414 . S
C1740 C1743 1.499 . S
C1741 H1721 0.950 . S
C1741 C1740 1.414 . S
C1741 C1742 1.374 . S
C1742 H1722 0.950 . S
C1742 C1738 1.385 . S
C1742 C1741 1.374 . S
C1743 C1740 1.499 . S
C1743 C1744 1.373 . S
C1743 C1745 1.389 . S
C1744 H1723 0.950 . S
C1744 C1743 1.373 . S
C1744 C1760 1.377 . S
C1745 C1743 1.389 . S
C1745 C1746 1.524 . S
C1745 C1759 1.377 . S
C1746 C1745 1.524 . S
C1746 C1747 1.397 . S
C1746 C1751 1.363 . S
C1747 H1724 0.950 . S
C1747 C1746 1.397 . S
C1747 C1748 1.334 . S
C1748 H1725 0.950 . S
C1748 C1747 1.334 . S
C1748 C1749 1.287 . S
C1749 C1748 1.287 . S
C1749 C1750 1.524 . S
C1749 H1768 0.913 . S
C1750 H1726 0.950 . S
C1750 C1749 1.524 . S
C1750 C1751 1.415 . S
C1751 H1727 0.950 . S
C1751 C1746 1.363 . S
C1751 C1750 1.415 . S
C1752 H1728 0.951 . S
C1752 C1753 1.366 . S
C1752 C1754 1.388 . S
C1753 C1752 1.366 . S
C1753 C1757 1.385 . S
C1754 H1729 0.951 . S
C1754 C1752 1.388 . S
C1754 C1755 1.366 . S
C1755 C1754 1.366 . S
C1755 C1756 1.414 . S
C1755 C1758 1.499 . S
C1756 H1730 0.919 1_554 S
C1756 C1755 1.414 . S
C1756 C1757 1.374 . S
C1757 H1731 0.950 1_554 S
C1757 C1753 1.385 . S
C1757 C1756 1.374 . S
C1758 C1755 1.499 . S
C1758 C1759 1.373 . S
C1758 C1760 1.389 . S
C1759 H1732 0.950 . S
C1759 C1745 1.377 . S
C1759 C1758 1.373 . S
C1760 C1744 1.377 . S
C1760 C1758 1.389 . S
C1760 C1761 1.524 . S
C1761 C1760 1.524 . S
C1761 C1762 1.397 . S
C1761 C1766 1.363 . S
C1762 H1733 0.950 1_554 S
C1762 C1761 1.397 . S
C1762 C1763 1.334 1_554 S
C1763 H1734 0.950 . S
C1763 C1762 1.334 1_556 S
C1763 C1764 1.287 1_556 S
C1764 C1763 1.287 1_554 S
C1764 C1765 1.524 . S
C1764 H1767 0.999 . S
C1765 H1735 0.950 . S
C1765 C1764 1.524 . S
C1765 C1766 1.415 . S
C1766 H1736 0.950 . S
C1766 C1761 1.363 . S
C1766 C1765 1.415 . S
H1767 C1764 0.999 . S
H1768 C1749 0.913 . S
H1769 C1787 0.951 . S
H1770 C1789 0.951 . S
H1771 C1791 0.950 . S
H1772 C1792 0.950 . S
H1773 C1794 0.950 . S
H1774 C1797 0.950 . S
H1775 C1798 0.950 . S
H1776 C1800 0.950 . S
H1777 C1801 0.950 . S
H1778 C1802 0.951 . S
H1779 C1804 0.951 . S
H1780 C1806 0.950 . S
H1781 C1807 0.950 . S
H1782 C1809 0.950 . S
H1783 C1812 0.950 . S
H1784 C1813 0.950 . S
H1785 C1815 0.950 1_554 S
H1786 C1816 0.950 . S
C1787 H1769 0.951 . S
C1787 C1788 1.366 . S
C1787 C1789 1.388 . S
C1788 C1787 1.366 . S
C1788 C1792 1.385 . S
C1789 H1770 0.951 . S
C1789 C1787 1.388 . S
C1789 C1790 1.366 . S
C1790 C1789 1.366 . S
C1790 C1791 1.414 . S
C1790 C1793 1.499 . S
C1791 H1771 0.950 . S
C1791 C1790 1.414 . S
C1791 C1792 1.374 . S
C1792 H1772 0.950 . S
C1792 C1788 1.385 . S
C1792 C1791 1.374 . S
C1793 C1790 1.499 . S
C1793 C1794 1.373 . S
C1793 C1795 1.389 . S
C1794 H1773 0.950 . S
C1794 C1793 1.373 . S
C1794 C1810 1.377 . S
C1795 C1793 1.389 . S
C1795 C1796 1.524 . S
C1795 C1809 1.377 . S
C1796 C1795 1.524 . S
C1796 C1797 1.397 . S
C1796 C1801 1.363 . S
C1797 H1774 0.950 . S
C1797 C1796 1.397 . S
C1797 C1798 1.334 . S
C1798 H1775 0.950 . S
C1798 C1797 1.334 . S
C1798 C1799 1.287 . S
C1799 C1798 1.287 . S
C1799 C1800 1.524 . S
C1799 H1818 0.913 . S
C1800 H1776 0.950 . S
C1800 C1799 1.524 . S
C1800 C1801 1.415 . S
C1801 H1777 0.950 . S
C1801 C1796 1.363 . S
C1801 C1800 1.415 . S
C1802 H1778 0.951 . S
C1802 C1803 1.366 . S
C1802 C1804 1.388 . S
C1803 C1802 1.366 . S
C1803 C1807 1.385 . S
C1804 H1779 0.951 . S
C1804 C1802 1.388 . S
C1804 C1805 1.366 . S
C1805 C1804 1.366 . S
C1805 C1806 1.414 . S
C1805 C1808 1.499 . S
C1806 H1780 0.950 . S
C1806 C1805 1.414 . S
C1806 C1807 1.374 . S
C1807 H1781 0.950 . S
C1807 C1803 1.385 . S
C1807 C1806 1.374 . S
C1808 C1805 1.499 . S
C1808 C1809 1.373 . S
C1808 C1810 1.389 . S
C1809 H1782 0.950 . S
C1809 C1795 1.377 . S
C1809 C1808 1.373 . S
C1810 C1794 1.377 . S
C1810 C1808 1.389 . S
C1810 C1811 1.524 . S
C1811 C1810 1.524 . S
C1811 C1812 1.397 1_554 S
C1811 C1816 1.363 . S
C1812 H1783 0.950 . S
C1812 C1811 1.397 1_556 S
C1812 C1813 1.334 . S
C1813 H1784 0.950 . S
C1813 C1812 1.334 . S
C1813 C1814 1.287 . S
C1814 C1813 1.287 . S
C1814 C1815 1.524 . S
C1814 H1817 0.999 . S
C1815 H1785 0.950 1_556 S
C1815 C1814 1.524 . S
C1815 C1816 1.415 1_556 S
C1816 H1786 0.950 . S
C1816 C1811 1.363 . S
C1816 C1815 1.415 1_554 S
H1817 C1814 0.999 . S
H1818 C1799 0.913 . S
H1819 C1837 0.951 . S
H1820 C1839 0.951 . S
H1821 C1841 0.950 . S
H1822 C1842 0.950 . S
H1823 C1844 0.950 . S
H1824 C1847 0.950 . S
H1825 C1848 0.912 1_556 S
H1826 C1850 0.950 . S
H1827 C1851 0.950 . S
H1828 C1852 0.951 1_556 S
H1829 C1854 0.951 . S
H1830 C1856 0.950 . S
H1831 C1857 0.950 . S
H1832 C1859 0.950 . S
H1833 C1862 0.950 . S
H1834 C1863 0.950 . S
H1835 C1865 0.950 . S
H1836 C1866 0.950 . S
C1837 H1819 0.951 . S
C1837 C1838 1.366 . S
C1837 C1839 1.388 . S
C1838 C1837 1.366 . S
C1838 C1842 1.385 . S
C1839 H1820 0.951 . S
C1839 C1837 1.388 . S
C1839 C1840 1.366 . S
C1840 C1839 1.366 . S
C1840 C1841 1.414 . S
C1840 C1843 1.499 . S
C1841 H1821 0.950 . S
C1841 C1840 1.414 . S
C1841 C1842 1.374 . S
C1842 H1822 0.950 . S
C1842 C1838 1.385 . S
C1842 C1841 1.374 . S
C1843 C1840 1.499 . S
C1843 C1844 1.373 . S
C1843 C1845 1.389 . S
C1844 H1823 0.950 . S
C1844 C1843 1.373 . S
C1844 C1860 1.377 . S
C1845 C1843 1.389 . S
C1845 C1846 1.524 . S
C1845 C1859 1.377 . S
C1846 C1845 1.524 . S
C1846 C1847 1.397 . S
C1846 C1851 1.363 . S
C1847 H1824 0.950 . S
C1847 C1846 1.397 . S
C1847 C1848 1.334 . S
C1848 H1825 0.912 1_554 S
C1848 C1847 1.334 . S
C1848 C1849 1.287 . S
C1849 C1848 1.287 . S
C1849 C1850 1.524 . S
C1849 H1868 0.913 . S
C1850 H1826 0.950 . S
C1850 C1849 1.524 . S
C1850 C1851 1.415 . S
C1851 H1827 0.950 . S
C1851 C1846 1.363 . S
C1851 C1850 1.415 . S
C1852 H1828 0.951 1_554 S
C1852 C1853 1.366 . S
C1852 C1854 1.388 . S
C1853 C1852 1.366 . S
C1853 C1857 1.385 . S
C1854 H1829 0.951 . S
C1854 C1852 1.388 . S
C1854 C1855 1.366 . S
C1855 C1854 1.366 . S
C1855 C1856 1.414 . S
C1855 C1858 1.499 . S
C1856 H1830 0.950 . S
C1856 C1855 1.414 . S
C1856 C1857 1.374 . S
C1857 H1831 0.950 . S
C1857 C1853 1.385 . S
C1857 C1856 1.374 . S
C1858 C1855 1.499 . S
C1858 C1859 1.373 . S
C1858 C1860 1.389 . S
C1859 H1832 0.950 . S
C1859 C1845 1.377 . S
C1859 C1858 1.373 . S
C1860 C1844 1.377 . S
C1860 C1858 1.389 . S
C1860 C1861 1.524 . S
C1861 C1860 1.524 . S
C1861 C1862 1.397 . S
C1861 C1866 1.363 . S
C1862 H1833 0.950 . S
C1862 C1861 1.397 . S
C1862 C1863 1.334 . S
C1863 H1834 0.950 . S
C1863 C1862 1.334 . S
C1863 C1864 1.287 . S
C1864 C1863 1.287 . S
C1864 C1865 1.524 . S
C1864 H1867 1.012 . S
C1865 H1835 0.950 . S
C1865 C1864 1.524 . S
C1865 C1866 1.415 . S
C1866 H1836 0.950 . S
C1866 C1861 1.363 . S
C1866 C1865 1.415 . S
H1867 C1864 1.012 . S
H1868 C1849 0.913 . S
H1869 C1887 0.951 . S
H1870 C1889 0.951 . S
H1871 C1891 0.950 . S
H1872 C1892 0.950 . S
H1873 C1894 0.950 . S
H1874 C1897 0.950 . S
H1875 C1898 0.950 . S
H1876 C1900 0.951 . S
H1877 C1901 0.950 . S
H1878 C1902 0.951 . S
H1879 C1904 0.951 . S
H1880 C1906 0.950 . S
H1881 C1907 0.950 . S
H1882 C1909 0.950 . S
H1883 C1912 0.950 . S
H1884 C1913 0.950 . S
H1885 C1915 0.950 . S
H1886 C1916 0.950 . S
C1887 H1869 0.951 . S
C1887 C1888 1.366 . S
C1887 C1889 1.388 . S
C1888 C1887 1.366 . S
C1888 C1892 1.385 . S
C1889 H1870 0.951 . S
C1889 C1887 1.388 . S
C1889 C1890 1.366 . S
C1890 C1889 1.366 . S
C1890 C1891 1.414 . S
C1890 C1893 1.499 1_655 S
C1891 H1871 0.950 . S
C1891 C1890 1.414 . S
C1891 C1892 1.374 . S
C1892 H1872 0.950 . S
C1892 C1888 1.385 . S
C1892 C1891 1.374 . S
C1893 C1890 1.499 1_455 S
C1893 C1894 1.373 . S
C1893 C1895 1.389 . S
C1894 H1873 0.950 . S
C1894 C1893 1.373 . S
C1894 C1910 1.377 . S
C1895 C1893 1.389 . S
C1895 C1896 1.524 . S
C1895 C1909 1.377 . S
C1896 C1895 1.524 . S
C1896 C1897 1.397 1_455 S
C1896 C1901 1.363 . S
C1897 H1874 0.950 . S
C1897 C1896 1.397 1_655 S
C1897 C1898 1.334 . S
C1898 H1875 0.950 . S
C1898 C1897 1.334 . S
C1898 C1899 1.287 . S
C1899 C1898 1.287 . S
C1899 C1900 1.519 1_655 S
C1899 H1918 0.913 . S
C1900 H1876 0.951 . S
C1900 C1899 1.519 1_455 S
C1900 C1901 1.437 . S
C1901 H1877 0.950 . S
C1901 C1896 1.363 . S
C1901 C1900 1.437 . S
C1902 H1878 0.951 . S
C1902 C1903 1.366 . S
C1902 C1904 1.388 . S
C1903 C1902 1.366 . S
C1903 C1907 1.385 . S
C1904 H1879 0.951 . S
C1904 C1902 1.388 . S
C1904 C1905 1.366 . S
C1905 C1904 1.366 . S
C1905 C1906 1.414 . S
C1905 C1908 1.499 . S
C1906 H1880 0.950 . S
C1906 C1905 1.414 . S
C1906 C1907 1.374 . S
C1907 H1881 0.950 . S
C1907 C1903 1.385 . S
C1907 C1906 1.374 . S
C1908 C1905 1.499 . S
C1908 C1909 1.373 . S
C1908 C1910 1.389 . S
C1909 H1882 0.950 . S
C1909 C1895 1.377 . S
C1909 C1908 1.373 . S
C1910 C1894 1.377 . S
C1910 C1908 1.389 . S
C1910 C1911 1.524 . S
C1911 C1910 1.524 . S
C1911 C1912 1.397 . S
C1911 C1916 1.363 . S
C1912 H1883 0.950 . S
C1912 C1911 1.397 . S
C1912 C1913 1.334 . S
C1913 H1884 0.950 . S
C1913 C1912 1.334 . S
C1913 C1914 1.287 . S
C1914 C1913 1.287 . S
C1914 C1915 1.524 . S
C1914 H1917 0.999 . S
C1915 H1885 0.950 . S
C1915 C1914 1.524 . S
C1915 C1916 1.415 . S
C1916 H1886 0.950 . S
C1916 C1911 1.363 . S
C1916 C1915 1.415 . S
H1917 C1914 0.999 . S
H1918 C1899 0.913 . S
H1919 C1937 0.951 . S
H1920 C1939 0.951 . S
H1921 C1941 0.950 . S
H1922 C1942 0.950 . S
H1923 C1944 0.950 . S
H1924 C1947 0.950 . S
H1925 C1948 0.950 . S
H1926 C1950 0.950 . S
H1927 C1951 0.950 . S
H1928 C1952 0.951 . S
H1929 C1954 0.951 . S
H1930 C1956 0.950 . S
H1931 C1957 0.950 . S
H1932 C1959 0.950 . S
H1933 C1962 0.950 . S
H1934 C1963 0.950 . S
H1935 C1965 0.950 . S
H1936 C1966 0.950 . S
C1937 H1919 0.951 . S
C1937 C1938 1.366 . S
C1937 C1939 1.388 . S
C1938 C1937 1.366 . S
C1938 C1942 1.385 . S
C1939 H1920 0.951 . S
C1939 C1937 1.388 . S
C1939 C1940 1.366 . S
C1940 C1939 1.366 . S
C1940 C1941 1.414 . S
C1940 C1943 1.499 . S
C1941 H1921 0.950 . S
C1941 C1940 1.414 . S
C1941 C1942 1.374 . S
C1942 H1922 0.950 . S
C1942 C1938 1.385 . S
C1942 C1941 1.374 . S
C1943 C1940 1.499 . S
C1943 C1944 1.373 . S
C1943 C1945 1.389 . S
C1944 H1923 0.950 . S
C1944 C1943 1.373 . S
C1944 C1960 1.377 . S
C1945 C1943 1.389 . S
C1945 C1946 1.524 . S
C1945 C1959 1.377 . S
C1946 C1945 1.524 . S
C1946 C1947 1.397 . S
C1946 C1951 1.363 . S
C1947 H1924 0.950 . S
C1947 C1946 1.397 . S
C1947 C1948 1.334 . S
C1948 H1925 0.950 . S
C1948 C1947 1.334 . S
C1948 C1949 1.287 . S
C1949 C1948 1.287 . S
C1949 C1950 1.524 . S
C1949 H1968 0.913 . S
C1950 H1926 0.950 . S
C1950 C1949 1.524 . S
C1950 C1951 1.415 . S
C1951 H1927 0.950 . S
C1951 C1946 1.363 . S
C1951 C1950 1.415 . S
C1952 H1928 0.951 . S
C1952 C1953 1.366 . S
C1952 C1954 1.388 . S
C1953 C1952 1.366 . S
C1953 C1957 1.385 . S
C1954 H1929 0.951 . S
C1954 C1952 1.388 . S
C1954 C1955 1.366 . S
C1955 C1954 1.366 . S
C1955 C1956 1.414 . S
C1955 C1958 1.499 . S
C1956 H1930 0.950 . S
C1956 C1955 1.414 . S
C1956 C1957 1.374 . S
C1957 H1931 0.950 . S
C1957 C1953 1.385 . S
C1957 C1956 1.374 . S
C1958 C1955 1.499 . S
C1958 C1959 1.373 . S
C1958 C1960 1.389 . S
C1959 H1932 0.950 . S
C1959 C1945 1.377 . S
C1959 C1958 1.373 . S
C1960 C1944 1.377 . S
C1960 C1958 1.389 . S
C1960 C1961 1.524 . S
C1961 C1960 1.524 . S
C1961 C1962 1.397 . S
C1961 C1966 1.363 . S
C1962 H1933 0.950 . S
C1962 C1961 1.397 . S
C1962 C1963 1.334 . S
C1963 H1934 0.950 . S
C1963 C1962 1.334 . S
C1963 C1964 1.287 . S
C1964 C1963 1.287 . S
C1964 C1965 1.524 . S
C1964 H1967 0.999 . S
C1965 H1935 0.950 . S
C1965 C1964 1.524 . S
C1965 C1966 1.415 . S
C1966 H1936 0.950 . S
C1966 C1961 1.363 . S
C1966 C1965 1.415 . S
H1967 C1964 0.999 . S
H1968 C1949 0.913 . S
H1969 C1987 0.951 . S
H1970 C1989 0.951 . S
H1971 C1991 0.950 . S
H1972 C1992 0.950 . S
H1973 C1994 0.950 . S
H1974 C1997 0.950 . S
H1975 C1998 0.950 . S
H1976 C2000 0.950 . S
H1977 C2001 0.950 . S
H1978 C2002 0.951 . S
H1979 C2004 0.951 . S
H1980 C2006 0.950 . S
H1981 C2007 0.950 . S
H1982 C2009 0.950 . S
H1983 C2012 0.950 . S
H1984 C2013 0.950 . S
H1985 C2015 0.950 . S
H1986 C2016 0.950 . S
C1987 H1969 0.951 . S
C1987 C1988 1.366 . S
C1987 C1989 1.388 . S
C1988 C1987 1.366 . S
C1988 C1992 1.385 . S
C1989 H1970 0.951 . S
C1989 C1987 1.388 . S
C1989 C1990 1.366 . S
C1990 C1989 1.366 . S
C1990 C1991 1.414 . S
C1990 C1993 1.499 1_545 S
C1991 H1971 0.950 . S
C1991 C1990 1.414 . S
C1991 C1992 1.374 . S
C1992 H1972 0.950 . S
C1992 C1988 1.385 . S
C1992 C1991 1.374 . S
C1993 C1990 1.499 1_565 S
C1993 C1994 1.373 . S
C1993 C1995 1.389 . S
C1994 H1973 0.950 . S
C1994 C1993 1.373 . S
C1994 C2010 1.377 . S
C1995 C1993 1.389 . S
C1995 C1996 1.524 . S
C1995 C2009 1.377 . S
C1996 C1995 1.524 . S
C1996 C1997 1.397 1_565 S
C1996 C2001 1.363 . S
C1997 H1974 0.950 . S
C1997 C1996 1.397 1_545 S
C1997 C1998 1.334 . S
C1998 H1975 0.950 . S
C1998 C1997 1.334 . S
C1998 C1999 1.287 . S
C1999 C1998 1.287 . S
C1999 C2000 1.524 . S
C1999 H2018 0.913 . S
C2000 H1976 0.950 . S
C2000 C1999 1.524 . S
C2000 C2001 1.415 1_545 S
C2001 H1977 0.950 . S
C2001 C1996 1.363 . S
C2001 C2000 1.415 1_565 S
C2002 H1978 0.951 . S
C2002 C2003 1.366 . S
C2002 C2004 1.388 . S
C2003 C2002 1.366 . S
C2003 C2007 1.385 . S
C2004 H1979 0.951 . S
C2004 C2002 1.388 . S
C2004 C2005 1.366 . S
C2005 C2004 1.366 . S
C2005 C2006 1.414 . S
C2005 C2008 1.499 . S
C2006 H1980 0.950 . S
C2006 C2005 1.414 . S
C2006 C2007 1.374 . S
C2007 H1981 0.950 . S
C2007 C2003 1.385 . S
C2007 C2006 1.374 . S
C2008 C2005 1.499 . S
C2008 C2009 1.373 . S
C2008 C2010 1.389 . S
C2009 H1982 0.950 . S
C2009 C1995 1.377 . S
C2009 C2008 1.373 . S
C2010 C1994 1.377 . S
C2010 C2008 1.389 . S
C2010 C2011 1.524 . S
C2011 C2010 1.524 . S
C2011 C2012 1.397 . S
C2011 C2016 1.363 . S
C2012 H1983 0.950 . S
C2012 C2011 1.397 . S
C2012 C2013 1.334 . S
C2013 H1984 0.950 . S
C2013 C2012 1.334 . S
C2013 C2014 1.287 . S
C2014 C2013 1.287 . S
C2014 C2015 1.524 . S
C2014 H2017 0.999 . S
C2015 H1985 0.950 . S
C2015 C2014 1.524 . S
C2015 C2016 1.415 . S
C2016 H1986 0.950 . S
C2016 C2011 1.363 . S
C2016 C2015 1.415 . S
H2017 C2014 0.999 . S
H2018 C1999 0.913 . S
H2019 C2037 0.951 . S
H2020 C2039 0.951 . S
H2021 C2041 0.950 . S
H2022 C2042 0.950 . S
H2023 C2044 0.950 . S
H2024 C2047 0.950 . S
H2025 C2048 0.950 . S
H2026 C2050 0.950 . S
H2027 C2051 0.950 . S
H2028 C2052 0.951 . S
H2029 C2054 0.951 . S
H2030 C2056 0.950 . S
H2031 C2057 0.950 . S
H2032 C2059 0.950 . S
H2033 C2062 0.950 . S
H2034 C2063 0.950 . S
H2035 C2065 0.950 . S
H2036 C2066 0.950 . S
C2037 H2019 0.951 . S
C2037 C2038 1.366 . S
C2037 C2039 1.388 . S
C2038 C2037 1.366 . S
C2038 C2042 1.385 . S
C2039 H2020 0.951 . S
C2039 C2037 1.388 . S
C2039 C2040 1.366 . S
C2040 C2039 1.366 . S
C2040 C2041 1.414 . S
C2040 C2043 1.499 . S
C2041 H2021 0.950 . S
C2041 C2040 1.414 . S
C2041 C2042 1.374 . S
C2042 H2022 0.950 . S
C2042 C2038 1.385 . S
C2042 C2041 1.374 . S
C2043 C2040 1.499 . S
C2043 C2044 1.373 . S
C2043 C2045 1.389 . S
C2044 H2023 0.950 . S
C2044 C2043 1.373 . S
C2044 C2060 1.377 . S
C2045 C2043 1.389 . S
C2045 C2046 1.524 . S
C2045 C2059 1.377 . S
C2046 C2045 1.524 . S
C2046 C2047 1.397 . S
C2046 C2051 1.363 . S
C2047 H2024 0.950 . S
C2047 C2046 1.397 . S
C2047 C2048 1.334 . S
C2048 H2025 0.950 . S
C2048 C2047 1.334 . S
C2048 C2049 1.287 . S
C2049 C2048 1.287 . S
C2049 C2050 1.524 . S
C2049 H2068 0.913 . S
C2050 H2026 0.950 . S
C2050 C2049 1.524 . S
C2050 C2051 1.415 . S
C2051 H2027 0.950 . S
C2051 C2046 1.363 . S
C2051 C2050 1.415 . S
C2052 H2028 0.951 . S
C2052 C2053 1.366 . S
C2052 C2054 1.388 . S
C2053 C2052 1.366 . S
C2053 C2057 1.385 . S
C2054 H2029 0.951 . S
C2054 C2052 1.388 . S
C2054 C2055 1.366 . S
C2055 C2054 1.366 . S
C2055 C2056 1.414 . S
C2055 C2058 1.499 . S
C2056 H2030 0.950 . S
C2056 C2055 1.414 . S
C2056 C2057 1.374 . S
C2057 H2031 0.950 . S
C2057 C2053 1.385 . S
C2057 C2056 1.374 . S
C2058 C2055 1.499 . S
C2058 C2059 1.373 . S
C2058 C2060 1.389 . S
C2059 H2032 0.950 . S
C2059 C2045 1.377 . S
C2059 C2058 1.373 . S
C2060 C2044 1.377 . S
C2060 C2058 1.389 . S
C2060 C2061 1.524 . S
C2061 C2060 1.524 . S
C2061 C2062 1.397 . S
C2061 C2066 1.363 . S
C2062 H2033 0.950 . S
C2062 C2061 1.397 . S
C2062 C2063 1.334 . S
C2063 H2034 0.950 . S
C2063 C2062 1.334 . S
C2063 C2064 1.287 . S
C2064 C2063 1.287 . S
C2064 C2065 1.524 . S
C2064 H2067 0.999 . S
C2065 H2035 0.950 . S
C2065 C2064 1.524 . S
C2065 C2066 1.415 . S
C2066 H2036 0.950 . S
C2066 C2061 1.363 . S
C2066 C2065 1.415 . S
H2067 C2064 0.999 . S
H2068 C2049 0.913 . S
H2069 C2087 0.951 . S
H2070 C2089 0.951 . S
H2071 C2091 0.950 . S
H2072 C2092 0.950 . S
H2073 C2094 0.950 . S
H2074 C2097 0.950 . S
H2075 C2098 0.950 . S
H2076 C2100 0.950 . S
H2077 C2101 0.950 . S
H2078 C2102 0.951 . S
H2079 C2104 0.951 . S
H2080 C2106 0.950 . S
H2081 C2107 0.950 . S
H2082 C2109 0.950 . S
H2083 C2112 0.950 . S
H2084 C2113 0.950 . S
H2085 C2115 0.950 . S
H2086 C2116 0.950 . S
C2087 H2069 0.951 . S
C2087 C2088 1.366 . S
C2087 C2089 1.388 . S
C2088 C2087 1.366 . S
C2088 C2092 1.385 . S
C2089 H2070 0.951 . S
C2089 C2087 1.388 . S
C2089 C2090 1.366 . S
C2090 C2089 1.366 . S
C2090 C2091 1.414 . S
C2090 C2093 1.499 . S
C2091 H2071 0.950 . S
C2091 C2090 1.414 . S
C2091 C2092 1.374 . S
C2092 H2072 0.950 . S
C2092 C2088 1.385 . S
C2092 C2091 1.374 . S
C2093 C2090 1.499 . S
C2093 C2094 1.373 . S
C2093 C2095 1.389 . S
C2094 H2073 0.950 . S
C2094 C2093 1.373 . S
C2094 C2110 1.377 . S
C2095 C2093 1.389 . S
C2095 C2096 1.524 . S
C2095 C2109 1.377 . S
C2096 C2095 1.524 . S
C2096 C2097 1.397 . S
C2096 C2101 1.363 . S
C2097 H2074 0.950 . S
C2097 C2096 1.397 . S
C2097 C2098 1.334 . S
C2098 H2075 0.950 . S
C2098 C2097 1.334 . S
C2098 C2099 1.287 . S
C2099 C2098 1.287 . S
C2099 C2100 1.524 . S
C2099 H2118 0.913 . S
C2100 H2076 0.950 . S
C2100 C2099 1.524 . S
C2100 C2101 1.415 . S
C2101 H2077 0.950 . S
C2101 C2096 1.363 . S
C2101 C2100 1.415 . S
C2102 H2078 0.951 . S
C2102 C2103 1.366 . S
C2102 C2104 1.388 . S
C2103 C2102 1.366 . S
C2103 C2107 1.385 . S
C2104 H2079 0.951 . S
C2104 C2102 1.388 . S
C2104 C2105 1.366 . S
C2105 C2104 1.366 . S
C2105 C2106 1.414 . S
C2105 C2108 1.499 . S
C2106 H2080 0.950 . S
C2106 C2105 1.414 . S
C2106 C2107 1.374 . S
C2107 H2081 0.950 . S
C2107 C2103 1.385 . S
C2107 C2106 1.374 . S
C2108 C2105 1.499 . S
C2108 C2109 1.373 . S
C2108 C2110 1.389 . S
C2109 H2082 0.950 . S
C2109 C2095 1.377 . S
C2109 C2108 1.373 . S
C2110 C2094 1.377 . S
C2110 C2108 1.389 . S
C2110 C2111 1.524 . S
C2111 C2110 1.524 . S
C2111 C2112 1.397 . S
C2111 C2116 1.363 . S
C2112 H2083 0.950 . S
C2112 C2111 1.397 . S
C2112 C2113 1.334 . S
C2113 H2084 0.950 . S
C2113 C2112 1.334 . S
C2113 C2114 1.287 . S
C2114 C2113 1.287 . S
C2114 C2115 1.524 . S
C2114 H2117 0.999 . S
C2115 H2085 0.950 . S
C2115 C2114 1.524 . S
C2115 C2116 1.415 . S
C2116 H2086 0.950 . S
C2116 C2111 1.363 . S
C2116 C2115 1.415 . S
H2117 C2114 0.999 . S
H2118 C2099 0.913 . S
H2119 C2137 0.951 . S
H2120 C2139 0.951 . S
H2121 C2141 0.950 . S
H2122 C2142 0.950 . S
H2123 C2144 0.950 . S
H2124 C2147 0.950 . S
H2125 C2148 0.950 . S
H2126 C2150 0.950 . S
H2127 C2151 0.950 . S
H2128 C2152 0.951 . S
H2129 C2154 0.951 . S
H2130 C2156 0.950 . S
H2131 C2157 0.950 . S
H2132 C2159 0.950 . S
H2133 C2162 0.950 . S
H2134 C2163 0.950 . S
H2135 C2165 0.950 . S
H2136 C2166 0.950 . S
C2137 H2119 0.951 . S
C2137 C2138 1.366 . S
C2137 C2139 1.388 . S
C2138 C2137 1.366 . S
C2138 C2142 1.385 . S
C2139 H2120 0.951 . S
C2139 C2137 1.388 . S
C2139 C2140 1.366 . S
C2140 C2139 1.366 . S
C2140 C2141 1.414 . S
C2140 C2143 1.499 . S
C2141 H2121 0.950 . S
C2141 C2140 1.414 . S
C2141 C2142 1.374 . S
C2142 H2122 0.950 . S
C2142 C2138 1.385 . S
C2142 C2141 1.374 . S
C2143 C2140 1.499 . S
C2143 C2144 1.373 . S
C2143 C2145 1.389 . S
C2144 H2123 0.950 . S
C2144 C2143 1.373 . S
C2144 C2160 1.377 . S
C2145 C2143 1.389 . S
C2145 C2146 1.524 . S
C2145 C2159 1.377 . S
C2146 C2145 1.524 . S
C2146 C2147 1.397 . S
C2146 C2151 1.363 . S
C2147 H2124 0.950 . S
C2147 C2146 1.397 . S
C2147 C2148 1.334 . S
C2148 H2125 0.950 . S
C2148 C2147 1.334 . S
C2148 C2149 1.287 . S
C2149 C2148 1.287 . S
C2149 C2150 1.524 . S
C2149 H2168 0.913 . S
C2150 H2126 0.950 . S
C2150 C2149 1.524 . S
C2150 C2151 1.415 . S
C2151 H2127 0.950 . S
C2151 C2146 1.363 . S
C2151 C2150 1.415 . S
C2152 H2128 0.951 . S
C2152 C2153 1.366 . S
C2152 C2154 1.388 . S
C2153 C2152 1.366 . S
C2153 C2157 1.385 . S
C2154 H2129 0.951 . S
C2154 C2152 1.388 . S
C2154 C2155 1.366 . S
C2155 C2154 1.366 . S
C2155 C2156 1.414 . S
C2155 C2158 1.499 . S
C2156 H2130 0.950 . S
C2156 C2155 1.414 . S
C2156 C2157 1.374 . S
C2157 H2131 0.950 . S
C2157 C2153 1.385 . S
C2157 C2156 1.374 . S
C2158 C2155 1.499 . S
C2158 C2159 1.373 . S
C2158 C2160 1.389 . S
C2159 H2132 0.950 . S
C2159 C2145 1.377 . S
C2159 C2158 1.373 . S
C2160 C2144 1.377 . S
C2160 C2158 1.389 . S
C2160 C2161 1.524 . S
C2161 C2160 1.524 . S
C2161 C2162 1.397 . S
C2161 C2166 1.363 . S
C2162 H2133 0.950 . S
C2162 C2161 1.397 . S
C2162 C2163 1.334 . S
C2163 H2134 0.950 . S
C2163 C2162 1.334 . S
C2163 C2164 1.287 . S
C2164 C2163 1.287 . S
C2164 C2165 1.524 . S
C2164 H2167 0.999 . S
C2165 H2135 0.950 . S
C2165 C2164 1.524 . S
C2165 C2166 1.415 . S
C2166 H2136 0.950 . S
C2166 C2161 1.363 . S
C2166 C2165 1.415 . S
H2167 C2164 0.999 . S
H2168 C2149 0.913 . S
H2169 C2187 0.951 . S
H2170 C2189 0.951 . S
H2171 C2191 0.950 . S
H2172 C2192 0.950 . S
H2173 C2194 0.950 . S
H2174 C2197 0.950 . S
H2175 C2198 0.950 . S
H2176 C2200 0.950 . S
H2177 C2201 0.950 . S
H2178 C2202 0.951 . S
H2179 C2204 0.951 . S
H2180 C2206 0.950 . S
H2181 C2207 0.950 . S
H2182 C2209 0.950 . S
H2183 C2212 0.950 . S
H2184 C2213 0.950 . S
H2185 C2215 0.950 . S
H2186 C2216 0.950 . S
C2187 H2169 0.951 . S
C2187 C2188 1.366 . S
C2187 C2189 1.388 . S
C2188 C2187 1.366 . S
C2188 C2192 1.385 . S
C2189 H2170 0.951 . S
C2189 C2187 1.388 . S
C2189 C2190 1.366 . S
C2190 C2189 1.366 . S
C2190 C2191 1.414 . S
C2190 C2193 1.499 . S
C2191 H2171 0.950 . S
C2191 C2190 1.414 . S
C2191 C2192 1.374 . S
C2192 H2172 0.950 . S
C2192 C2188 1.385 . S
C2192 C2191 1.374 . S
C2193 C2190 1.499 . S
C2193 C2194 1.373 . S
C2193 C2195 1.389 . S
C2194 H2173 0.950 . S
C2194 C2193 1.373 . S
C2194 C2210 1.377 . S
C2195 C2193 1.389 . S
C2195 C2196 1.524 . S
C2195 C2209 1.377 . S
C2196 C2195 1.524 . S
C2196 C2197 1.397 . S
C2196 C2201 1.363 . S
C2197 H2174 0.950 . S
C2197 C2196 1.397 . S
C2197 C2198 1.334 . S
C2198 H2175 0.950 . S
C2198 C2197 1.334 . S
C2198 C2199 1.287 . S
C2199 C2198 1.287 . S
C2199 C2200 1.524 . S
C2199 H2218 0.913 . S
C2200 H2176 0.950 . S
C2200 C2199 1.524 . S
C2200 C2201 1.415 . S
C2201 H2177 0.950 . S
C2201 C2196 1.363 . S
C2201 C2200 1.415 . S
C2202 H2178 0.951 . S
C2202 C2203 1.366 . S
C2202 C2204 1.388 . S
C2203 C2202 1.366 . S
C2203 C2207 1.385 . S
C2204 H2179 0.951 . S
C2204 C2202 1.388 . S
C2204 C2205 1.366 . S
C2205 C2204 1.366 . S
C2205 C2206 1.414 . S
C2205 C2208 1.499 . S
C2206 H2180 0.950 . S
C2206 C2205 1.414 . S
C2206 C2207 1.374 . S
C2207 H2181 0.950 . S
C2207 C2203 1.385 . S
C2207 C2206 1.374 . S
C2208 C2205 1.499 . S
C2208 C2209 1.373 . S
C2208 C2210 1.389 . S
C2209 H2182 0.950 . S
C2209 C2195 1.377 . S
C2209 C2208 1.373 . S
C2210 C2194 1.377 . S
C2210 C2208 1.389 . S
C2210 C2211 1.524 . S
C2211 C2210 1.524 . S
C2211 C2212 1.397 . S
C2211 C2216 1.363 . S
C2212 H2183 0.950 . S
C2212 C2211 1.397 . S
C2212 C2213 1.334 . S
C2213 H2184 0.950 . S
C2213 C2212 1.334 . S
C2213 C2214 1.287 . S
C2214 C2213 1.287 . S
C2214 C2215 1.524 . S
C2214 H2217 0.999 . S
C2215 H2185 0.950 . S
C2215 C2214 1.524 . S
C2215 C2216 1.415 . S
C2216 H2186 0.950 . S
C2216 C2211 1.363 . S
C2216 C2215 1.415 . S
H2217 C2214 0.999 . S
H2218 C2199 0.913 . S
H2219 C2237 0.951 . S
H2220 C2239 0.951 . S
H2221 C2241 0.950 . S
H2222 C2242 0.950 . S
H2223 C2244 0.950 . S
H2224 C2247 0.950 . S
H2225 C2248 0.950 . S
H2226 C2250 0.950 . S
H2227 C2251 0.950 . S
H2228 C2252 0.951 . S
H2229 C2254 0.951 . S
H2230 C2256 0.950 . S
H2231 C2257 0.950 . S
H2232 C2259 0.950 . S
H2233 C2262 0.950 . S
H2234 C2263 0.950 . S
H2235 C2265 0.950 . S
H2236 C2266 0.950 . S
C2237 H2219 0.951 . S
C2237 C2238 1.366 . S
C2237 C2239 1.388 . S
C2238 C2237 1.366 . S
C2238 C2242 1.385 . S
C2239 H2220 0.951 . S
C2239 C2237 1.388 . S
C2239 C2240 1.366 . S
C2240 C2239 1.366 . S
C2240 C2241 1.414 . S
C2240 C2243 1.499 . S
C2241 H2221 0.950 . S
C2241 C2240 1.414 . S
C2241 C2242 1.374 . S
C2242 H2222 0.950 . S
C2242 C2238 1.385 . S
C2242 C2241 1.374 . S
C2243 C2240 1.499 . S
C2243 C2244 1.373 . S
C2243 C2245 1.389 . S
C2244 H2223 0.950 . S
C2244 C2243 1.373 . S
C2244 C2260 1.377 . S
C2245 C2243 1.389 . S
C2245 C2246 1.524 . S
C2245 C2259 1.377 . S
C2246 C2245 1.524 . S
C2246 C2247 1.397 . S
C2246 C2251 1.363 . S
C2247 H2224 0.950 . S
C2247 C2246 1.397 . S
C2247 C2248 1.334 . S
C2248 H2225 0.950 . S
C2248 C2247 1.334 . S
C2248 C2249 1.287 . S
C2249 C2248 1.287 . S
C2249 C2250 1.524 . S
C2249 H2268 0.913 . S
C2250 H2226 0.950 . S
C2250 C2249 1.524 . S
C2250 C2251 1.415 . S
C2251 H2227 0.950 . S
C2251 C2246 1.363 . S
C2251 C2250 1.415 . S
C2252 H2228 0.951 . S
C2252 C2253 1.366 . S
C2252 C2254 1.388 . S
C2253 C2252 1.366 . S
C2253 C2257 1.385 . S
C2254 H2229 0.951 . S
C2254 C2252 1.388 . S
C2254 C2255 1.366 . S
C2255 C2254 1.366 . S
C2255 C2256 1.414 . S
C2255 C2258 1.499 . S
C2256 H2230 0.950 . S
C2256 C2255 1.414 . S
C2256 C2257 1.374 . S
C2257 H2231 0.950 . S
C2257 C2253 1.385 . S
C2257 C2256 1.374 . S
C2258 C2255 1.499 . S
C2258 C2259 1.373 . S
C2258 C2260 1.389 . S
C2259 H2232 0.950 . S
C2259 C2245 1.377 . S
C2259 C2258 1.373 . S
C2260 C2244 1.377 . S
C2260 C2258 1.389 . S
C2260 C2261 1.524 . S
C2261 C2260 1.524 . S
C2261 C2262 1.397 . S
C2261 C2266 1.363 . S
C2262 H2233 0.950 . S
C2262 C2261 1.397 . S
C2262 C2263 1.334 . S
C2263 H2234 0.950 . S
C2263 C2262 1.334 . S
C2263 C2264 1.287 . S
C2264 C2263 1.287 . S
C2264 C2265 1.524 . S
C2264 H2267 0.999 . S
C2265 H2235 0.950 . S
C2265 C2264 1.524 . S
C2265 C2266 1.415 . S
C2266 H2236 0.950 . S
C2266 C2261 1.363 . S
C2266 C2265 1.415 . S
H2267 C2264 0.999 . S
H2268 C2249 0.913 . S
H2269 C2287 0.951 . S
H2270 C2289 0.951 . S
H2271 C2291 0.950 . S
H2272 C2292 0.950 . S
H2273 C2294 0.950 . S
H2274 C2297 0.950 . S
H2275 C2298 0.950 . S
H2276 C2300 0.950 . S
H2277 C2301 0.950 . S
H2278 C2302 0.951 . S
H2279 C2304 0.951 . S
H2280 C2306 0.950 . S
H2281 C2307 0.950 . S
H2282 C2309 0.950 . S
H2283 C2312 0.950 . S
H2284 C2313 0.950 . S
H2285 C2315 0.950 . S
H2286 C2316 0.950 . S
C2287 H2269 0.951 . S
C2287 C2288 1.366 . S
C2287 C2289 1.388 . S
C2288 C2287 1.366 . S
C2288 C2292 1.385 . S
C2289 H2270 0.951 . S
C2289 C2287 1.388 . S
C2289 C2290 1.366 . S
C2290 C2289 1.366 . S
C2290 C2291 1.414 . S
C2290 C2293 1.499 . S
C2291 H2271 0.950 . S
C2291 C2290 1.414 . S
C2291 C2292 1.374 . S
C2292 H2272 0.950 . S
C2292 C2288 1.385 . S
C2292 C2291 1.374 . S
C2293 C2290 1.499 . S
C2293 C2294 1.373 . S
C2293 C2295 1.389 . S
C2294 H2273 0.950 . S
C2294 C2293 1.373 . S
C2294 C2310 1.377 . S
C2295 C2293 1.389 . S
C2295 C2296 1.524 . S
C2295 C2309 1.377 . S
C2296 C2295 1.524 . S
C2296 C2297 1.397 . S
C2296 C2301 1.363 . S
C2297 H2274 0.950 . S
C2297 C2296 1.397 . S
C2297 C2298 1.334 . S
C2298 H2275 0.950 . S
C2298 C2297 1.334 . S
C2298 C2299 1.287 . S
C2299 C2298 1.287 . S
C2299 C2300 1.524 . S
C2299 H2318 0.913 . S
C2300 H2276 0.950 . S
C2300 C2299 1.524 . S
C2300 C2301 1.415 . S
C2301 H2277 0.950 . S
C2301 C2296 1.363 . S
C2301 C2300 1.415 . S
C2302 H2278 0.951 . S
C2302 C2303 1.366 . S
C2302 C2304 1.388 . S
C2303 C2302 1.366 . S
C2303 C2307 1.385 . S
C2304 H2279 0.951 . S
C2304 C2302 1.388 . S
C2304 C2305 1.366 . S
C2305 C2304 1.366 . S
C2305 C2306 1.414 . S
C2305 C2308 1.499 . S
C2306 H2280 0.950 . S
C2306 C2305 1.414 . S
C2306 C2307 1.374 . S
C2307 H2281 0.950 . S
C2307 C2303 1.385 . S
C2307 C2306 1.374 . S
C2308 C2305 1.499 . S
C2308 C2309 1.373 . S
C2308 C2310 1.389 . S
C2309 H2282 0.950 . S
C2309 C2295 1.377 . S
C2309 C2308 1.373 . S
C2310 C2294 1.377 . S
C2310 C2308 1.389 . S
C2310 C2311 1.524 . S
C2311 C2310 1.524 . S
C2311 C2312 1.397 . S
C2311 C2316 1.363 . S
C2312 H2283 0.950 . S
C2312 C2311 1.397 . S
C2312 C2313 1.334 . S
C2313 H2284 0.950 . S
C2313 C2312 1.334 . S
C2313 C2314 1.287 . S
C2314 C2313 1.287 . S
C2314 C2315 1.524 . S
C2314 H2317 0.999 . S
C2315 H2285 0.950 . S
C2315 C2314 1.524 . S
C2315 C2316 1.415 . S
C2316 H2286 0.950 . S
C2316 C2311 1.363 . S
C2316 C2315 1.415 . S
H2317 C2314 0.999 . S
H2318 C2299 0.913 . S
H2319 C2337 0.951 . S
H2320 C2339 0.951 . S
H2321 C2341 0.950 . S
H2322 C2342 0.950 . S
H2323 C2344 0.950 . S
H2324 C2347 0.950 . S
H2325 C2348 0.950 1_545 S
H2326 C2350 0.950 . S
H2327 C2351 0.950 . S
H2328 C2352 0.951 . S
H2329 C2354 0.951 . S
H2330 C2356 0.950 . S
H2331 C2357 0.950 . S
H2332 C2359 0.950 . S
H2333 C2362 0.950 . S
H2334 C2363 0.950 . S
H2335 C2365 0.950 . S
H2336 C2366 0.950 . S
C2337 H2319 0.951 . S
C2337 C2338 1.366 . S
C2337 C2339 1.388 . S
C2338 C2337 1.366 . S
C2338 C2342 1.385 . S
C2339 H2320 0.951 . S
C2339 C2337 1.388 . S
C2339 C2340 1.366 . S
C2340 C2339 1.366 . S
C2340 C2341 1.414 . S
C2340 C2343 1.499 1_545 S
C2341 H2321 0.950 . S
C2341 C2340 1.414 . S
C2341 C2342 1.374 . S
C2342 H2322 0.950 . S
C2342 C2338 1.385 . S
C2342 C2341 1.374 . S
C2343 C2340 1.499 1_565 S
C2343 C2344 1.373 . S
C2343 C2345 1.389 . S
C2344 H2323 0.950 . S
C2344 C2343 1.373 . S
C2344 C2360 1.377 . S
C2345 C2343 1.389 . S
C2345 C2346 1.524 . S
C2345 C2359 1.377 . S
C2346 C2345 1.524 . S
C2346 C2347 1.397 . S
C2346 C2351 1.363 . S
C2347 H2324 0.950 . S
C2347 C2346 1.397 . S
C2347 C2348 1.334 . S
C2348 H2325 0.950 1_565 S
C2348 C2347 1.334 . S
C2348 C2349 1.287 . S
C2349 C2348 1.287 . S
C2349 C2350 1.524 . S
C2349 H2368 0.913 . S
C2350 H2326 0.950 . S
C2350 C2349 1.524 . S
C2350 C2351 1.415 . S
C2351 H2327 0.950 . S
C2351 C2346 1.363 . S
C2351 C2350 1.415 . S
C2352 H2328 0.951 . S
C2352 C2353 1.366 . S
C2352 C2354 1.388 . S
C2353 C2352 1.366 . S
C2353 C2357 1.385 . S
C2354 H2329 0.951 . S
C2354 C2352 1.388 . S
C2354 C2355 1.366 . S
C2355 C2354 1.366 . S
C2355 C2356 1.414 . S
C2355 C2358 1.499 . S
C2356 H2330 0.950 . S
C2356 C2355 1.414 . S
C2356 C2357 1.374 . S
C2357 H2331 0.950 . S
C2357 C2353 1.385 . S
C2357 C2356 1.374 . S
C2358 C2355 1.499 . S
C2358 C2359 1.373 . S
C2358 C2360 1.389 . S
C2359 H2332 0.950 . S
C2359 C2345 1.377 . S
C2359 C2358 1.373 . S
C2360 C2344 1.377 . S
C2360 C2358 1.389 . S
C2360 C2361 1.524 . S
C2361 C2360 1.524 . S
C2361 C2362 1.397 . S
C2361 C2366 1.363 . S
C2362 H2333 0.950 . S
C2362 C2361 1.397 . S
C2362 C2363 1.334 . S
C2363 H2334 0.950 . S
C2363 C2362 1.334 . S
C2363 C2364 1.287 . S
C2364 C2363 1.287 . S
C2364 C2365 1.524 . S
C2364 H2367 0.999 . S
C2365 H2335 0.950 . S
C2365 C2364 1.524 . S
C2365 C2366 1.415 . S
C2366 H2336 0.950 . S
C2366 C2361 1.363 . S
C2366 C2365 1.415 . S
H2367 C2364 0.999 . S
H2368 C2349 0.913 . S
H2369 C2387 0.951 . S
H2370 C2389 0.951 . S
H2371 C2391 0.950 . S
H2372 C2392 0.950 . S
H2373 C2394 0.950 . S
H2374 C2397 0.950 . S
H2375 C2398 0.984 . S
H2376 C2400 0.950 . S
H2377 C2401 0.950 . S
H2378 C2402 0.951 . S
H2379 C2404 0.951 . S
H2380 C2406 0.950 . S
H2381 C2407 0.950 . S
H2382 C2409 0.950 . S
H2383 C2412 0.950 . S
H2384 C2413 0.950 . S
H2385 C2415 0.950 . S
H2386 C2416 0.950 . S
C2387 H2369 0.951 . S
C2387 C2388 1.366 . S
C2387 C2389 1.388 . S
C2388 C2387 1.366 . S
C2388 C2392 1.385 . S
C2389 H2370 0.951 . S
C2389 C2387 1.388 . S
C2389 C2390 1.366 . S
C2390 C2389 1.366 . S
C2390 C2391 1.414 . S
C2390 C2393 1.499 1_655 S
C2391 H2371 0.950 . S
C2391 C2390 1.414 . S
C2391 C2392 1.374 . S
C2392 H2372 0.950 . S
C2392 C2388 1.385 . S
C2392 C2391 1.374 . S
C2393 C2390 1.499 1_455 S
C2393 C2394 1.373 . S
C2393 C2395 1.389 . S
C2394 H2373 0.950 . S
C2394 C2393 1.373 . S
C2394 C2410 1.377 . S
C2395 C2393 1.389 . S
C2395 C2396 1.524 . S
C2395 C2409 1.377 . S
C2396 C2395 1.524 . S
C2396 C2397 1.397 . S
C2396 C2401 1.363 . S
C2397 H2374 0.950 . S
C2397 C2396 1.397 . S
C2397 C2398 1.334 . S
C2398 H2375 0.984 . S
C2398 C2397 1.334 . S
C2398 C2399 1.287 . S
C2399 C2398 1.287 . S
C2399 C2400 1.524 . S
C2399 H2418 0.913 . S
C2400 H2376 0.950 . S
C2400 C2399 1.524 . S
C2400 C2401 1.415 . S
C2401 H2377 0.950 . S
C2401 C2396 1.363 . S
C2401 C2400 1.415 . S
C2402 H2378 0.951 . S
C2402 C2403 1.366 . S
C2402 C2404 1.388 . S
C2403 C2402 1.366 . S
C2403 C2407 1.385 . S
C2404 H2379 0.951 . S
C2404 C2402 1.388 . S
C2404 C2405 1.366 . S
C2405 C2404 1.366 . S
C2405 C2406 1.414 . S
C2405 C2408 1.499 . S
C2406 H2380 0.950 . S
C2406 C2405 1.414 . S
C2406 C2407 1.374 . S
C2407 H2381 0.950 . S
C2407 C2403 1.385 . S
C2407 C2406 1.374 . S
C2408 C2405 1.499 . S
C2408 C2409 1.373 . S
C2408 C2410 1.389 . S
C2409 H2382 0.950 . S
C2409 C2395 1.377 . S
C2409 C2408 1.373 . S
C2410 C2394 1.377 . S
C2410 C2408 1.389 . S
C2410 C2411 1.524 . S
C2411 C2410 1.524 . S
C2411 C2412 1.397 . S
C2411 C2416 1.363 . S
C2412 H2383 0.950 . S
C2412 C2411 1.397 . S
C2412 C2413 1.334 . S
C2413 H2384 0.950 . S
C2413 C2412 1.334 . S
C2413 C2414 1.287 . S
C2414 C2413 1.287 . S
C2414 C2415 1.524 . S
C2414 H2417 0.999 . S
C2415 H2385 0.950 . S
C2415 C2414 1.524 . S
C2415 C2416 1.415 . S
C2416 H2386 0.950 . S
C2416 C2411 1.363 . S
C2416 C2415 1.415 . S
H2417 C2414 0.999 . S
H2418 C2399 0.913 . S
H2419 C2437 0.951 . S
H2420 C2439 0.951 . S
H2421 C2441 0.950 . S
H2422 C2442 0.950 . S
H2423 C2444 0.950 . S
H2424 C2447 0.950 . S
H2425 C2448 0.950 . S
H2426 C2450 0.950 . S
H2427 C2451 0.950 . S
H2428 C2452 0.951 . S
H2429 C2454 0.951 . S
H2430 C2456 0.950 . S
H2431 C2457 0.950 . S
H2432 C2459 0.950 . S
H2433 C2462 0.950 . S
H2434 C2463 0.950 . S
H2435 C2465 0.950 . S
H2436 C2466 0.950 . S
C2437 H2419 0.951 . S
C2437 C2438 1.366 . S
C2437 C2439 1.388 . S
C2438 C2437 1.366 . S
C2438 C2442 1.385 . S
C2439 H2420 0.951 . S
C2439 C2437 1.388 . S
C2439 C2440 1.366 . S
C2440 C2439 1.366 . S
C2440 C2441 1.414 . S
C2440 C2443 1.499 . S
C2441 H2421 0.950 . S
C2441 C2440 1.414 . S
C2441 C2442 1.374 . S
C2442 H2422 0.950 . S
C2442 C2438 1.385 . S
C2442 C2441 1.374 . S
C2443 C2440 1.499 . S
C2443 C2444 1.373 . S
C2443 C2445 1.389 . S
C2444 H2423 0.950 . S
C2444 C2443 1.373 . S
C2444 C2460 1.377 . S
C2445 C2443 1.389 . S
C2445 C2446 1.524 . S
C2445 C2459 1.377 . S
C2446 C2445 1.524 . S
C2446 C2447 1.397 . S
C2446 C2451 1.363 . S
C2447 H2424 0.950 . S
C2447 C2446 1.397 . S
C2447 C2448 1.334 . S
C2448 H2425 0.950 . S
C2448 C2447 1.334 . S
C2448 C2449 1.287 . S
C2449 C2448 1.287 . S
C2449 C2450 1.524 . S
C2449 H2468 0.913 . S
C2450 H2426 0.950 . S
C2450 C2449 1.524 . S
C2450 C2451 1.415 . S
C2451 H2427 0.950 . S
C2451 C2446 1.363 . S
C2451 C2450 1.415 . S
C2452 H2428 0.951 . S
C2452 C2453 1.366 . S
C2452 C2454 1.388 . S
C2453 C2452 1.366 . S
C2453 C2457 1.385 . S
C2454 H2429 0.951 . S
C2454 C2452 1.388 . S
C2454 C2455 1.366 . S
C2455 C2454 1.366 . S
C2455 C2456 1.414 . S
C2455 C2458 1.499 . S
C2456 H2430 0.950 . S
C2456 C2455 1.414 . S
C2456 C2457 1.374 . S
C2457 H2431 0.950 . S
C2457 C2453 1.385 . S
C2457 C2456 1.374 . S
C2458 C2455 1.499 . S
C2458 C2459 1.373 . S
C2458 C2460 1.389 . S
C2459 H2432 0.950 . S
C2459 C2445 1.377 . S
C2459 C2458 1.373 . S
C2460 C2444 1.377 . S
C2460 C2458 1.389 . S
C2460 C2461 1.524 . S
C2461 C2460 1.524 . S
C2461 C2462 1.397 . S
C2461 C2466 1.363 . S
C2462 H2433 0.950 . S
C2462 C2461 1.397 . S
C2462 C2463 1.334 . S
C2463 H2434 0.950 . S
C2463 C2462 1.334 . S
C2463 C2464 1.287 . S
C2464 C2463 1.287 . S
C2464 C2465 1.524 . S
C2464 H2467 0.999 . S
C2465 H2435 0.950 . S
C2465 C2464 1.524 . S
C2465 C2466 1.415 . S
C2466 H2436 0.950 . S
C2466 C2461 1.363 . S
C2466 C2465 1.415 . S
H2467 C2464 0.999 . S
H2468 C2449 0.913 . S
H2469 C2487 0.951 . S
H2470 C2489 0.951 . S
H2471 C2491 0.950 . S
H2472 C2492 0.950 . S
H2473 C2494 0.950 . S
H2474 C2497 0.950 . S
H2475 C2498 0.950 . S
H2476 C2500 0.950 . S
H2477 C2501 0.950 . S
H2478 C2502 0.951 . S
H2479 C2504 0.951 . S
H2480 C2506 0.950 . S
H2481 C2507 0.950 . S
H2482 C2509 0.950 . S
H2483 C2512 0.950 . S
H2484 C2513 0.950 . S
H2485 C2515 0.950 . S
H2486 C2516 0.950 . S
C2487 H2469 0.951 . S
C2487 C2488 1.366 . S
C2487 C2489 1.388 . S
C2488 C2487 1.366 . S
C2488 C2492 1.385 . S
C2489 H2470 0.951 . S
C2489 C2487 1.388 . S
C2489 C2490 1.366 . S
C2490 C2489 1.366 . S
C2490 C2491 1.414 . S
C2490 C2493 1.499 . S
C2491 H2471 0.950 . S
C2491 C2490 1.414 . S
C2491 C2492 1.374 . S
C2492 H2472 0.950 . S
C2492 C2488 1.385 . S
C2492 C2491 1.374 . S
C2493 C2490 1.499 . S
C2493 C2494 1.373 . S
C2493 C2495 1.389 . S
C2494 H2473 0.950 . S
C2494 C2493 1.373 . S
C2494 C2510 1.377 . S
C2495 C2493 1.389 . S
C2495 C2496 1.524 . S
C2495 C2509 1.377 . S
C2496 C2495 1.524 . S
C2496 C2497 1.397 . S
C2496 C2501 1.363 . S
C2497 H2474 0.950 . S
C2497 C2496 1.397 . S
C2497 C2498 1.334 . S
C2498 H2475 0.950 . S
C2498 C2497 1.334 . S
C2498 C2499 1.287 . S
C2499 C2498 1.287 . S
C2499 C2500 1.524 . S
C2499 H2518 0.913 . S
C2500 H2476 0.950 . S
C2500 C2499 1.524 . S
C2500 C2501 1.415 . S
C2501 H2477 0.950 . S
C2501 C2496 1.363 . S
C2501 C2500 1.415 . S
C2502 H2478 0.951 . S
C2502 C2503 1.366 . S
C2502 C2504 1.388 . S
C2503 C2502 1.366 . S
C2503 C2507 1.385 . S
C2504 H2479 0.951 . S
C2504 C2502 1.388 . S
C2504 C2505 1.366 . S
C2505 C2504 1.366 . S
C2505 C2506 1.414 . S
C2505 C2508 1.499 . S
C2506 H2480 0.950 . S
C2506 C2505 1.414 . S
C2506 C2507 1.374 . S
C2507 H2481 0.950 . S
C2507 C2503 1.385 . S
C2507 C2506 1.374 . S
C2508 C2505 1.499 . S
C2508 C2509 1.373 . S
C2508 C2510 1.389 . S
C2509 H2482 0.950 . S
C2509 C2495 1.377 . S
C2509 C2508 1.373 . S
C2510 C2494 1.377 . S
C2510 C2508 1.389 . S
C2510 C2511 1.524 . S
C2511 C2510 1.524 . S
C2511 C2512 1.397 . S
C2511 C2516 1.363 . S
C2512 H2483 0.950 . S
C2512 C2511 1.397 . S
C2512 C2513 1.334 . S
C2513 H2484 0.950 . S
C2513 C2512 1.334 . S
C2513 C2514 1.287 . S
C2514 C2513 1.287 . S
C2514 C2515 1.524 . S
C2514 H2517 0.999 . S
C2515 H2485 0.950 . S
C2515 C2514 1.524 . S
C2515 C2516 1.415 . S
C2516 H2486 0.950 . S
C2516 C2511 1.363 . S
C2516 C2515 1.415 . S
H2517 C2514 0.999 . S
H2518 C2499 0.913 . S
H2519 C2537 0.951 . S
H2520 C2539 0.951 . S
H2521 C2541 0.950 . S
H2522 C2542 0.950 . S
H2523 C2544 0.950 . S
H2524 C2547 0.950 . S
H2525 C2548 0.950 . S
H2526 C2550 0.950 . S
H2527 C2551 0.950 . S
H2528 C2552 0.951 . S
H2529 C2554 0.951 . S
H2530 C2556 0.950 . S
H2531 C2557 0.950 . S
H2532 C2559 0.950 . S
H2533 C2562 0.950 . S
H2534 C2563 0.950 . S
H2535 C2565 0.950 . S
H2536 C2566 0.950 . S
C2537 H2519 0.951 . S
C2537 C2538 1.366 . S
C2537 C2539 1.388 . S
C2538 C2537 1.366 . S
C2538 C2542 1.385 . S
C2539 H2520 0.951 . S
C2539 C2537 1.388 . S
C2539 C2540 1.366 . S
C2540 C2539 1.366 . S
C2540 C2541 1.414 . S
C2540 C2543 1.499 . S
C2541 H2521 0.950 . S
C2541 C2540 1.414 . S
C2541 C2542 1.374 . S
C2542 H2522 0.950 . S
C2542 C2538 1.385 . S
C2542 C2541 1.374 . S
C2543 C2540 1.499 . S
C2543 C2544 1.373 . S
C2543 C2545 1.389 . S
C2544 H2523 0.950 . S
C2544 C2543 1.373 . S
C2544 C2560 1.377 . S
C2545 C2543 1.389 . S
C2545 C2546 1.524 . S
C2545 C2559 1.377 . S
C2546 C2545 1.524 . S
C2546 C2547 1.397 . S
C2546 C2551 1.363 . S
C2547 H2524 0.950 . S
C2547 C2546 1.397 . S
C2547 C2548 1.334 . S
C2548 H2525 0.950 . S
C2548 C2547 1.334 . S
C2548 C2549 1.287 . S
C2549 C2548 1.287 . S
C2549 C2550 1.524 . S
C2549 H2568 0.913 . S
C2550 H2526 0.950 . S
C2550 C2549 1.524 . S
C2550 C2551 1.415 . S
C2551 H2527 0.950 . S
C2551 C2546 1.363 . S
C2551 C2550 1.415 . S
C2552 H2528 0.951 . S
C2552 C2553 1.366 . S
C2552 C2554 1.388 . S
C2553 C2552 1.366 . S
C2553 C2557 1.385 . S
C2554 H2529 0.951 . S
C2554 C2552 1.388 . S
C2554 C2555 1.366 . S
C2555 C2554 1.366 . S
C2555 C2556 1.414 . S
C2555 C2558 1.499 . S
C2556 H2530 0.950 . S
C2556 C2555 1.414 . S
C2556 C2557 1.374 . S
C2557 H2531 0.950 . S
C2557 C2553 1.385 . S
C2557 C2556 1.374 . S
C2558 C2555 1.499 . S
C2558 C2559 1.373 . S
C2558 C2560 1.389 . S
C2559 H2532 0.950 . S
C2559 C2545 1.377 . S
C2559 C2558 1.373 . S
C2560 C2544 1.377 . S
C2560 C2558 1.389 . S
C2560 C2561 1.524 . S
C2561 C2560 1.524 . S
C2561 C2562 1.397 . S
C2561 C2566 1.363 . S
C2562 H2533 0.950 . S
C2562 C2561 1.397 . S
C2562 C2563 1.334 . S
C2563 H2534 0.950 . S
C2563 C2562 1.334 . S
C2563 C2564 1.287 . S
C2564 C2563 1.287 . S
C2564 C2565 1.524 . S
C2564 H2567 0.999 . S
C2565 H2535 0.950 . S
C2565 C2564 1.524 . S
C2565 C2566 1.415 . S
C2566 H2536 0.950 . S
C2566 C2561 1.363 . S
C2566 C2565 1.415 . S
H2567 C2564 0.999 . S
H2568 C2549 0.913 . S
H2569 C2587 0.951 . S
H2570 C2589 0.951 . S
H2571 C2591 0.950 . S
H2572 C2592 0.950 . S
H2573 C2594 0.950 . S
H2574 C2597 0.950 . S
H2575 C2598 0.950 . S
H2576 C2600 0.950 . S
H2577 C2601 0.950 . S
H2578 C2602 0.951 . S
H2579 C2604 0.951 . S
H2580 C2606 0.950 . S
H2581 C2607 0.950 . S
H2582 C2609 0.950 . S
H2583 C2612 0.950 . S
H2584 C2613 0.950 . S
H2585 C2615 0.950 . S
H2586 C2616 0.950 . S
C2587 H2569 0.951 . S
C2587 C2588 1.366 . S
C2587 C2589 1.388 . S
C2588 C2587 1.366 . S
C2588 C2592 1.385 . S
C2589 H2570 0.951 . S
C2589 C2587 1.388 . S
C2589 C2590 1.366 . S
C2590 C2589 1.366 . S
C2590 C2591 1.414 . S
C2590 C2593 1.499 . S
C2591 H2571 0.950 . S
C2591 C2590 1.414 . S
C2591 C2592 1.374 . S
C2592 H2572 0.950 . S
C2592 C2588 1.385 . S
C2592 C2591 1.374 . S
C2593 C2590 1.499 . S
C2593 C2594 1.373 . S
C2593 C2595 1.389 . S
C2594 H2573 0.950 . S
C2594 C2593 1.373 . S
C2594 C2610 1.377 . S
C2595 C2593 1.389 . S
C2595 C2596 1.524 . S
C2595 C2609 1.377 . S
C2596 C2595 1.524 . S
C2596 C2597 1.397 . S
C2596 C2601 1.363 . S
C2597 H2574 0.950 . S
C2597 C2596 1.397 . S
C2597 C2598 1.334 . S
C2598 H2575 0.950 . S
C2598 C2597 1.334 . S
C2598 C2599 1.287 . S
C2599 C2598 1.287 . S
C2599 C2600 1.524 . S
C2599 H2618 0.913 . S
C2600 H2576 0.950 . S
C2600 C2599 1.524 . S
C2600 C2601 1.415 . S
C2601 H2577 0.950 . S
C2601 C2596 1.363 . S
C2601 C2600 1.415 . S
C2602 H2578 0.951 . S
C2602 C2603 1.366 . S
C2602 C2604 1.388 . S
C2603 C2602 1.366 . S
C2603 C2607 1.385 . S
C2604 H2579 0.951 . S
C2604 C2602 1.388 . S
C2604 C2605 1.366 . S
C2605 C2604 1.366 . S
C2605 C2606 1.414 . S
C2605 C2608 1.499 . S
C2606 H2580 0.950 . S
C2606 C2605 1.414 . S
C2606 C2607 1.374 . S
C2607 H2581 0.950 . S
C2607 C2603 1.385 . S
C2607 C2606 1.374 . S
C2608 C2605 1.499 . S
C2608 C2609 1.373 . S
C2608 C2610 1.389 . S
C2609 H2582 0.950 . S
C2609 C2595 1.377 . S
C2609 C2608 1.373 . S
C2610 C2594 1.377 . S
C2610 C2608 1.389 . S
C2610 C2611 1.524 . S
C2611 C2610 1.524 . S
C2611 C2612 1.397 . S
C2611 C2616 1.363 . S
C2612 H2583 0.950 . S
C2612 C2611 1.397 . S
C2612 C2613 1.334 . S
C2613 H2584 0.950 . S
C2613 C2612 1.334 . S
C2613 C2614 1.287 . S
C2614 C2613 1.287 . S
C2614 C2615 1.524 . S
C2614 H2617 0.999 . S
C2615 H2585 0.950 . S
C2615 C2614 1.524 . S
C2615 C2616 1.415 . S
C2616 H2586 0.950 . S
C2616 C2611 1.363 . S
C2616 C2615 1.415 . S
H2617 C2614 0.999 . S
H2618 C2599 0.913 . S
H2619 C2637 0.951 . S
H2620 C2639 0.951 . S
H2621 C2641 0.950 . S
H2622 C2642 0.950 . S
H2623 C2644 0.950 . S
H2624 C2647 0.950 1_565 S
H2625 C2648 0.950 . S
H2626 C2650 0.950 . S
H2627 C2651 0.950 . S
H2628 C2652 0.951 . S
H2629 C2654 0.951 . S
H2630 C2656 0.950 . S
H2631 C2657 0.950 . S
H2632 C2659 0.950 . S
H2633 C2662 0.950 . S
H2634 C2663 0.950 . S
H2635 C2665 0.950 . S
H2636 C2666 0.950 . S
C2637 H2619 0.951 . S
C2637 C2638 1.366 . S
C2637 C2639 1.388 . S
C2638 C2637 1.366 . S
C2638 C2642 1.385 . S
C2639 H2620 0.951 . S
C2639 C2637 1.388 . S
C2639 C2640 1.366 . S
C2640 C2639 1.366 . S
C2640 C2641 1.414 . S
C2640 C2643 1.499 1_565 S
C2641 H2621 0.950 . S
C2641 C2640 1.414 . S
C2641 C2642 1.374 . S
C2642 H2622 0.950 . S
C2642 C2638 1.385 . S
C2642 C2641 1.374 . S
C2643 C2640 1.499 1_545 S
C2643 C2644 1.373 . S
C2643 C2645 1.389 . S
C2644 H2623 0.950 . S
C2644 C2643 1.373 . S
C2644 C2660 1.377 . S
C2645 C2643 1.389 . S
C2645 C2646 1.524 . S
C2645 C2659 1.377 . S
C2646 C2645 1.524 . S
C2646 C2647 1.397 . S
C2646 C2651 1.363 . S
C2647 H2624 0.950 1_545 S
C2647 C2646 1.397 . S
C2647 C2648 1.334 1_545 S
C2648 H2625 0.950 . S
C2648 C2647 1.334 1_565 S
C2648 C2649 1.287 1_565 S
C2649 C2648 1.287 1_545 S
C2649 C2650 1.524 . S
C2649 H2668 0.913 1_545 S
C2650 H2626 0.950 . S
C2650 C2649 1.524 . S
C2650 C2651 1.415 . S
C2651 H2627 0.950 . S
C2651 C2646 1.363 . S
C2651 C2650 1.415 . S
C2652 H2628 0.951 . S
C2652 C2653 1.366 . S
C2652 C2654 1.388 . S
C2653 C2652 1.366 . S
C2653 C2657 1.385 . S
C2654 H2629 0.951 . S
C2654 C2652 1.388 . S
C2654 C2655 1.366 . S
C2655 C2654 1.366 . S
C2655 C2656 1.414 . S
C2655 C2658 1.499 . S
C2656 H2630 0.950 . S
C2656 C2655 1.414 . S
C2656 C2657 1.374 . S
C2657 H2631 0.950 . S
C2657 C2653 1.385 . S
C2657 C2656 1.374 . S
C2658 C2655 1.499 . S
C2658 C2659 1.373 . S
C2658 C2660 1.389 . S
C2659 H2632 0.950 . S
C2659 C2645 1.377 . S
C2659 C2658 1.373 . S
C2660 C2644 1.377 . S
C2660 C2658 1.389 . S
C2660 C2661 1.524 . S
C2661 C2660 1.524 . S
C2661 C2662 1.397 . S
C2661 C2666 1.363 . S
C2662 H2633 0.950 . S
C2662 C2661 1.397 . S
C2662 C2663 1.334 . S
C2663 H2634 0.950 . S
C2663 C2662 1.334 . S
C2663 C2664 1.287 . S
C2664 C2663 1.287 . S
C2664 C2665 1.524 . S
C2664 H2667 0.999 . S
C2665 H2635 0.950 . S
C2665 C2664 1.524 . S
C2665 C2666 1.415 . S
C2666 H2636 0.950 . S
C2666 C2661 1.363 . S
C2666 C2665 1.415 . S
H2667 C2664 0.999 . S
H2668 C2649 0.913 1_565 S
H2669 C2687 0.951 . S
H2670 C2689 0.951 . S
H2671 C2691 0.950 . S
H2672 C2692 0.950 . S
H2673 C2694 0.950 . S
H2674 C2697 0.950 . S
H2675 C2698 0.950 1_455 S
H2676 C2700 0.950 . S
H2677 C2701 0.950 . S
H2678 C2702 0.951 . S
H2679 C2704 0.951 . S
H2680 C2706 0.950 . S
H2681 C2707 0.950 . S
H2682 C2709 0.950 . S
H2683 C2712 0.950 . S
H2684 C2713 0.950 . S
H2685 C2715 0.950 . S
H2686 C2716 0.950 . S
C2687 H2669 0.951 . S
C2687 C2688 1.366 . S
C2687 C2689 1.388 . S
C2688 C2687 1.366 . S
C2688 C2692 1.385 . S
C2689 H2670 0.951 . S
C2689 C2687 1.388 . S
C2689 C2690 1.366 . S
C2690 C2689 1.366 . S
C2690 C2691 1.414 . S
C2690 C2693 1.499 1_455 S
C2691 H2671 0.950 . S
C2691 C2690 1.414 . S
C2691 C2692 1.374 . S
C2692 H2672 0.950 . S
C2692 C2688 1.385 . S
C2692 C2691 1.374 . S
C2693 C2690 1.499 1_655 S
C2693 C2694 1.373 . S
C2693 C2695 1.389 . S
C2694 H2673 0.950 . S
C2694 C2693 1.373 . S
C2694 C2710 1.377 . S
C2695 C2693 1.389 . S
C2695 C2696 1.524 . S
C2695 C2709 1.377 . S
C2696 C2695 1.524 . S
C2696 C2697 1.397 . S
C2696 C2701 1.363 . S
C2697 H2674 0.950 . S
C2697 C2696 1.397 . S
C2697 C2698 1.334 . S
C2698 H2675 0.950 1_655 S
C2698 C2697 1.334 . S
C2698 C2699 1.287 . S
C2699 C2698 1.287 . S
C2699 C2700 1.524 . S
C2699 H2718 0.913 . S
C2700 H2676 0.950 . S
C2700 C2699 1.524 . S
C2700 C2701 1.415 . S
C2701 H2677 0.950 . S
C2701 C2696 1.363 . S
C2701 C2700 1.415 . S
C2702 H2678 0.951 . S
C2702 C2703 1.366 . S
C2702 C2704 1.388 . S
C2703 C2702 1.366 . S
C2703 C2707 1.385 . S
C2704 H2679 0.951 . S
C2704 C2702 1.388 . S
C2704 C2705 1.366 . S
C2705 C2704 1.366 . S
C2705 C2706 1.414 . S
C2705 C2708 1.499 . S
C2706 H2680 0.950 . S
C2706 C2705 1.414 . S
C2706 C2707 1.374 . S
C2707 H2681 0.950 . S
C2707 C2703 1.385 . S
C2707 C2706 1.374 . S
C2708 C2705 1.499 . S
C2708 C2709 1.373 . S
C2708 C2710 1.389 . S
C2709 H2682 0.950 . S
C2709 C2695 1.377 . S
C2709 C2708 1.373 . S
C2710 C2694 1.377 . S
C2710 C2708 1.389 . S
C2710 C2711 1.524 . S
C2711 C2710 1.524 . S
C2711 C2712 1.397 . S
C2711 C2716 1.363 . S
C2712 H2683 0.950 . S
C2712 C2711 1.397 . S
C2712 C2713 1.334 . S
C2713 H2684 0.950 . S
C2713 C2712 1.334 . S
C2713 C2714 1.287 . S
C2714 C2713 1.287 . S
C2714 C2715 1.524 . S
C2714 H2717 0.999 . S
C2715 H2685 0.950 . S
C2715 C2714 1.524 . S
C2715 C2716 1.415 . S
C2716 H2686 0.950 . S
C2716 C2711 1.363 . S
C2716 C2715 1.415 . S
H2717 C2714 0.999 . S
H2718 C2699 0.913 . S
H2719 C2737 0.951 . S
H2720 C2739 0.951 . S
H2721 C2741 0.950 . S
H2722 C2742 0.950 . S
H2723 C2744 0.950 . S
H2724 C2747 0.950 . S
H2725 C2748 0.950 . S
H2726 C2750 0.950 . S
H2727 C2751 0.950 . S
H2728 C2752 0.951 . S
H2729 C2754 0.951 . S
H2730 C2756 0.950 . S
H2731 C2757 0.950 . S
H2732 C2759 0.950 . S
H2733 C2762 0.950 . S
H2734 C2763 0.950 . S
H2735 C2765 0.950 . S
H2736 C2766 0.950 . S
C2737 H2719 0.951 . S
C2737 C2738 1.366 . S
C2737 C2739 1.388 . S
C2738 C2737 1.366 . S
C2738 C2742 1.385 . S
C2739 H2720 0.951 . S
C2739 C2737 1.388 . S
C2739 C2740 1.366 . S
C2740 C2739 1.366 . S
C2740 C2741 1.414 . S
C2740 C2743 1.499 . S
C2741 H2721 0.950 . S
C2741 C2740 1.414 . S
C2741 C2742 1.374 . S
C2742 H2722 0.950 . S
C2742 C2738 1.385 . S
C2742 C2741 1.374 . S
C2743 C2740 1.499 . S
C2743 C2744 1.373 . S
C2743 C2745 1.389 . S
C2744 H2723 0.950 . S
C2744 C2743 1.373 . S
C2744 C2760 1.377 . S
C2745 C2743 1.389 . S
C2745 C2746 1.524 . S
C2745 C2759 1.377 . S
C2746 C2745 1.524 . S
C2746 C2747 1.397 . S
C2746 C2751 1.363 . S
C2747 H2724 0.950 . S
C2747 C2746 1.397 . S
C2747 C2748 1.334 . S
C2748 H2725 0.950 . S
C2748 C2747 1.334 . S
C2748 C2749 1.287 . S
C2749 C2748 1.287 . S
C2749 C2750 1.524 . S
C2749 H2768 0.913 . S
C2750 H2726 0.950 . S
C2750 C2749 1.524 . S
C2750 C2751 1.415 . S
C2751 H2727 0.950 . S
C2751 C2746 1.363 . S
C2751 C2750 1.415 . S
C2752 H2728 0.951 . S
C2752 C2753 1.366 . S
C2752 C2754 1.388 . S
C2753 C2752 1.366 . S
C2753 C2757 1.385 . S
C2754 H2729 0.951 . S
C2754 C2752 1.388 . S
C2754 C2755 1.366 . S
C2755 C2754 1.366 . S
C2755 C2756 1.414 . S
C2755 C2758 1.499 . S
C2756 H2730 0.950 . S
C2756 C2755 1.414 . S
C2756 C2757 1.374 . S
C2757 H2731 0.950 . S
C2757 C2753 1.385 . S
C2757 C2756 1.374 . S
C2758 C2755 1.499 . S
C2758 C2759 1.373 . S
C2758 C2760 1.389 . S
C2759 H2732 0.950 . S
C2759 C2745 1.377 . S
C2759 C2758 1.373 . S
C2760 C2744 1.377 . S
C2760 C2758 1.389 . S
C2760 C2761 1.524 . S
C2761 C2760 1.524 . S
C2761 C2762 1.397 . S
C2761 C2766 1.363 . S
C2762 H2733 0.950 . S
C2762 C2761 1.397 . S
C2762 C2763 1.334 . S
C2763 H2734 0.950 . S
C2763 C2762 1.334 . S
C2763 C2764 1.287 . S
C2764 C2763 1.287 . S
C2764 C2765 1.524 . S
C2764 H2767 0.999 . S
C2765 H2735 0.950 . S
C2765 C2764 1.524 . S
C2765 C2766 1.415 . S
C2766 H2736 0.950 . S
C2766 C2761 1.363 . S
C2766 C2765 1.415 . S
H2767 C2764 0.999 . S
H2768 C2749 0.913 . S
H2769 C2787 0.951 . S
H2770 C2789 0.951 . S
H2771 C2791 0.950 . S
H2772 C2792 0.950 . S
H2773 C2794 0.950 . S
H2774 C2797 0.950 . S
H2775 C2798 0.950 1_455 S
H2776 C2800 0.950 . S
H2777 C2801 0.950 . S
H2778 C2802 0.951 . S
H2779 C2804 0.951 . S
H2780 C2806 0.950 . S
H2781 C2807 0.950 . S
H2782 C2809 0.950 . S
H2783 C2812 0.950 . S
H2784 C2813 0.950 . S
H2785 C2815 0.950 . S
H2786 C2816 0.950 . S
C2787 H2769 0.951 . S
C2787 C2788 1.366 . S
C2787 C2789 1.388 . S
C2788 C2787 1.366 . S
C2788 C2792 1.385 . S
C2789 H2770 0.951 . S
C2789 C2787 1.388 . S
C2789 C2790 1.366 . S
C2790 C2789 1.366 . S
C2790 C2791 1.414 . S
C2790 C2793 1.499 1_455 S
C2791 H2771 0.950 . S
C2791 C2790 1.414 . S
C2791 C2792 1.374 . S
C2792 H2772 0.950 . S
C2792 C2788 1.385 . S
C2792 C2791 1.374 . S
C2793 C2790 1.499 1_655 S
C2793 C2794 1.373 . S
C2793 C2795 1.389 . S
C2794 H2773 0.950 . S
C2794 C2793 1.373 . S
C2794 C2810 1.377 . S
C2795 C2793 1.389 . S
C2795 C2796 1.524 . S
C2795 C2809 1.377 . S
C2796 C2795 1.524 . S
C2796 C2797 1.397 . S
C2796 C2801 1.363 . S
C2797 H2774 0.950 . S
C2797 C2796 1.397 . S
C2797 C2798 1.334 . S
C2798 H2775 0.950 1_655 S
C2798 C2797 1.334 . S
C2798 C2799 1.287 . S
C2799 C2798 1.287 . S
C2799 C2800 1.524 . S
C2799 H2818 0.913 . S
C2800 H2776 0.950 . S
C2800 C2799 1.524 . S
C2800 C2801 1.415 . S
C2801 H2777 0.950 . S
C2801 C2796 1.363 . S
C2801 C2800 1.415 . S
C2802 H2778 0.951 . S
C2802 C2803 1.366 . S
C2802 C2804 1.388 . S
C2803 C2802 1.366 . S
C2803 C2807 1.385 . S
C2804 H2779 0.951 . S
C2804 C2802 1.388 . S
C2804 C2805 1.366 . S
C2805 C2804 1.366 . S
C2805 C2806 1.414 . S
C2805 C2808 1.499 . S
C2806 H2780 0.950 . S
C2806 C2805 1.414 . S
C2806 C2807 1.374 . S
C2807 H2781 0.950 . S
C2807 C2803 1.385 . S
C2807 C2806 1.374 . S
C2808 C2805 1.499 . S
C2808 C2809 1.373 . S
C2808 C2810 1.389 . S
C2809 H2782 0.950 . S
C2809 C2795 1.377 . S
C2809 C2808 1.373 . S
C2810 C2794 1.377 . S
C2810 C2808 1.389 . S
C2810 C2811 1.524 . S
C2811 C2810 1.524 . S
C2811 C2812 1.397 . S
C2811 C2816 1.363 . S
C2812 H2783 0.950 . S
C2812 C2811 1.397 . S
C2812 C2813 1.334 . S
C2813 H2784 0.950 . S
C2813 C2812 1.334 . S
C2813 C2814 1.287 . S
C2814 C2813 1.287 . S
C2814 C2815 1.524 . S
C2814 H2817 0.999 . S
C2815 H2785 0.950 . S
C2815 C2814 1.524 . S
C2815 C2816 1.415 . S
C2816 H2786 0.950 . S
C2816 C2811 1.363 . S
C2816 C2815 1.415 . S
H2817 C2814 0.999 . S
H2818 C2799 0.913 . S
H2819 C2837 0.951 . S
H2820 C2839 0.951 . S
H2821 C2841 0.950 . S
H2822 C2842 0.950 . S
H2823 C2844 0.950 . S
H2824 C2847 0.950 . S
H2825 C2848 0.950 . S
H2826 C2850 0.950 . S
H2827 C2851 0.950 . S
H2828 C2852 0.951 . S
H2829 C2854 0.951 . S
H2830 C2856 0.950 . S
H2831 C2857 0.950 . S
H2832 C2859 0.950 . S
H2833 C2862 0.950 . S
H2834 C2863 0.950 . S
H2835 C2865 0.950 . S
H2836 C2866 0.950 . S
C2837 H2819 0.951 . S
C2837 C2838 1.366 . S
C2837 C2839 1.388 . S
C2838 C2837 1.366 . S
C2838 C2842 1.385 . S
C2839 H2820 0.951 . S
C2839 C2837 1.388 . S
C2839 C2840 1.366 . S
C2840 C2839 1.366 . S
C2840 C2841 1.414 . S
C2840 C2843 1.499 . S
C2841 H2821 0.950 . S
C2841 C2840 1.414 . S
C2841 C2842 1.374 . S
C2842 H2822 0.950 . S
C2842 C2838 1.385 . S
C2842 C2841 1.374 . S
C2843 C2840 1.499 . S
C2843 C2844 1.373 . S
C2843 C2845 1.389 . S
C2844 H2823 0.950 . S
C2844 C2843 1.373 . S
C2844 C2860 1.377 . S
C2845 C2843 1.389 . S
C2845 C2846 1.524 . S
C2845 C2859 1.377 . S
C2846 C2845 1.524 . S
C2846 C2847 1.397 . S
C2846 C2851 1.363 . S
C2847 H2824 0.950 . S
C2847 C2846 1.397 . S
C2847 C2848 1.334 . S
C2848 H2825 0.950 . S
C2848 C2847 1.334 . S
C2848 C2849 1.287 . S
C2849 C2848 1.287 . S
C2849 C2850 1.524 . S
C2849 H2868 0.913 . S
C2850 H2826 0.950 . S
C2850 C2849 1.524 . S
C2850 C2851 1.415 . S
C2851 H2827 0.950 . S
C2851 C2846 1.363 . S
C2851 C2850 1.415 . S
C2852 H2828 0.951 . S
C2852 C2853 1.366 . S
C2852 C2854 1.388 . S
C2853 C2852 1.366 . S
C2853 C2857 1.385 . S
C2854 H2829 0.951 . S
C2854 C2852 1.388 . S
C2854 C2855 1.366 . S
C2855 C2854 1.366 . S
C2855 C2856 1.414 . S
C2855 C2858 1.499 . S
C2856 H2830 0.950 . S
C2856 C2855 1.414 . S
C2856 C2857 1.374 . S
C2857 H2831 0.950 . S
C2857 C2853 1.385 . S
C2857 C2856 1.374 . S
C2858 C2855 1.499 . S
C2858 C2859 1.373 . S
C2858 C2860 1.389 . S
C2859 H2832 0.950 . S
C2859 C2845 1.377 . S
C2859 C2858 1.373 . S
C2860 C2844 1.377 . S
C2860 C2858 1.389 . S
C2860 C2861 1.524 . S
C2861 C2860 1.524 . S
C2861 C2862 1.397 . S
C2861 C2866 1.363 . S
C2862 H2833 0.950 . S
C2862 C2861 1.397 . S
C2862 C2863 1.334 . S
C2863 H2834 0.950 . S
C2863 C2862 1.334 . S
C2863 C2864 1.287 . S
C2864 C2863 1.287 . S
C2864 C2865 1.524 . S
C2864 H2867 0.999 . S
C2865 H2835 0.950 . S
C2865 C2864 1.524 . S
C2865 C2866 1.415 . S
C2866 H2836 0.950 . S
C2866 C2861 1.363 . S
C2866 C2865 1.415 . S
H2867 C2864 0.999 . S
H2868 C2849 0.913 . S
H2869 C2887 0.951 . S
H2870 C2889 0.951 . S
H2871 C2891 0.950 . S
H2872 C2892 0.950 . S
H2873 C2894 0.950 . S
H2874 C2897 0.950 . S
H2875 C2898 0.950 1_565 S
H2876 C2900 0.950 . S
H2877 C2901 0.950 . S
H2878 C2902 0.951 . S
H2879 C2904 0.951 . S
H2880 C2906 0.950 . S
H2881 C2907 0.950 . S
H2882 C2909 0.950 . S
H2883 C2912 0.950 . S
H2884 C2913 0.950 . S
H2885 C2915 0.950 . S
H2886 C2916 0.950 . S
C2887 H2869 0.951 . S
C2887 C2888 1.366 . S
C2887 C2889 1.388 . S
C2888 C2887 1.366 . S
C2888 C2892 1.385 . S
C2889 H2870 0.951 . S
C2889 C2887 1.388 . S
C2889 C2890 1.366 . S
C2890 C2889 1.366 . S
C2890 C2891 1.414 . S
C2890 C2893 1.499 1_565 S
C2891 H2871 0.950 . S
C2891 C2890 1.414 . S
C2891 C2892 1.374 . S
C2892 H2872 0.950 . S
C2892 C2888 1.385 . S
C2892 C2891 1.374 . S
C2893 C2890 1.499 1_545 S
C2893 C2894 1.373 . S
C2893 C2895 1.389 . S
C2894 H2873 0.950 . S
C2894 C2893 1.373 . S
C2894 C2910 1.377 . S
C2895 C2893 1.389 . S
C2895 C2896 1.524 . S
C2895 C2909 1.377 . S
C2896 C2895 1.524 . S
C2896 C2897 1.397 . S
C2896 C2901 1.363 . S
C2897 H2874 0.950 . S
C2897 C2896 1.397 . S
C2897 C2898 1.334 . S
C2898 H2875 0.950 1_545 S
C2898 C2897 1.334 . S
C2898 C2899 1.287 . S
C2899 C2898 1.287 . S
C2899 C2900 1.524 . S
C2899 H2918 0.913 . S
C2900 H2876 0.950 . S
C2900 C2899 1.524 . S
C2900 C2901 1.415 . S
C2901 H2877 0.950 . S
C2901 C2896 1.363 . S
C2901 C2900 1.415 . S
C2902 H2878 0.951 . S
C2902 C2903 1.366 . S
C2902 C2904 1.388 . S
C2903 C2902 1.366 . S
C2903 C2907 1.385 . S
C2904 H2879 0.951 . S
C2904 C2902 1.388 . S
C2904 C2905 1.366 . S
C2905 C2904 1.366 . S
C2905 C2906 1.414 . S
C2905 C2908 1.499 . S
C2906 H2880 0.950 . S
C2906 C2905 1.414 . S
C2906 C2907 1.374 . S
C2907 H2881 0.950 . S
C2907 C2903 1.385 . S
C2907 C2906 1.374 . S
C2908 C2905 1.499 . S
C2908 C2909 1.373 . S
C2908 C2910 1.389 . S
C2909 H2882 0.950 . S
C2909 C2895 1.377 . S
C2909 C2908 1.373 . S
C2910 C2894 1.377 . S
C2910 C2908 1.389 . S
C2910 C2911 1.524 . S
C2911 C2910 1.524 . S
C2911 C2912 1.397 . S
C2911 C2916 1.363 . S
C2912 H2883 0.950 . S
C2912 C2911 1.397 . S
C2912 C2913 1.334 . S
C2913 H2884 0.950 . S
C2913 C2912 1.334 . S
C2913 C2914 1.287 . S
C2914 C2913 1.287 . S
C2914 C2915 1.524 . S
C2914 H2917 0.999 . S
C2915 H2885 0.950 . S
C2915 C2914 1.524 . S
C2915 C2916 1.415 . S
C2916 H2886 0.950 . S
C2916 C2911 1.363 . S
C2916 C2915 1.415 . S
H2917 C2914 0.999 . S
H2918 C2899 0.913 . S
H2919 C2937 0.951 . S
H2920 C2939 0.951 . S
H2921 C2941 0.950 . S
H2922 C2942 0.950 . S
H2923 C2944 0.950 . S
H2924 C2947 0.950 . S
H2925 C2948 0.950 . S
H2926 C2950 0.950 . S
H2927 C2951 0.950 . S
H2928 C2952 0.951 . S
H2929 C2954 0.951 . S
H2930 C2956 0.950 . S
H2931 C2957 0.950 . S
H2932 C2959 0.950 . S
H2933 C2962 0.950 . S
H2934 C2963 0.950 . S
H2935 C2965 0.950 . S
H2936 C2966 0.950 . S
C2937 H2919 0.951 . S
C2937 C2938 1.366 . S
C2937 C2939 1.388 . S
C2938 C2937 1.366 . S
C2938 C2942 1.385 . S
C2939 H2920 0.951 . S
C2939 C2937 1.388 . S
C2939 C2940 1.366 . S
C2940 C2939 1.366 . S
C2940 C2941 1.414 . S
C2940 C2943 1.499 . S
C2941 H2921 0.950 . S
C2941 C2940 1.414 . S
C2941 C2942 1.374 . S
C2942 H2922 0.950 . S
C2942 C2938 1.385 . S
C2942 C2941 1.374 . S
C2943 C2940 1.499 . S
C2943 C2944 1.373 . S
C2943 C2945 1.389 . S
C2944 H2923 0.950 . S
C2944 C2943 1.373 . S
C2944 C2960 1.377 . S
C2945 C2943 1.389 . S
C2945 C2946 1.524 . S
C2945 C2959 1.377 . S
C2946 C2945 1.524 . S
C2946 C2947 1.397 . S
C2946 C2951 1.363 . S
C2947 H2924 0.950 . S
C2947 C2946 1.397 . S
C2947 C2948 1.334 . S
C2948 H2925 0.950 . S
C2948 C2947 1.334 . S
C2948 C2949 1.287 . S
C2949 C2948 1.287 . S
C2949 C2950 1.524 . S
C2949 H2968 0.913 . S
C2950 H2926 0.950 . S
C2950 C2949 1.524 . S
C2950 C2951 1.415 . S
C2951 H2927 0.950 . S
C2951 C2946 1.363 . S
C2951 C2950 1.415 . S
C2952 H2928 0.951 . S
C2952 C2953 1.366 . S
C2952 C2954 1.388 . S
C2953 C2952 1.366 . S
C2953 C2957 1.385 . S
C2954 H2929 0.951 . S
C2954 C2952 1.388 . S
C2954 C2955 1.366 . S
C2955 C2954 1.366 . S
C2955 C2956 1.414 . S
C2955 C2958 1.499 . S
C2956 H2930 0.950 . S
C2956 C2955 1.414 . S
C2956 C2957 1.374 . S
C2957 H2931 0.950 . S
C2957 C2953 1.385 . S
C2957 C2956 1.374 . S
C2958 C2955 1.499 . S
C2958 C2959 1.373 . S
C2958 C2960 1.389 . S
C2959 H2932 0.950 . S
C2959 C2945 1.377 . S
C2959 C2958 1.373 . S
C2960 C2944 1.377 . S
C2960 C2958 1.389 . S
C2960 C2961 1.524 . S
C2961 C2960 1.524 . S
C2961 C2962 1.397 . S
C2961 C2966 1.363 . S
C2962 H2933 0.950 . S
C2962 C2961 1.397 . S
C2962 C2963 1.334 . S
C2963 H2934 0.950 . S
C2963 C2962 1.334 . S
C2963 C2964 1.287 . S
C2964 C2963 1.287 . S
C2964 C2965 1.524 . S
C2964 H2967 0.999 . S
C2965 H2935 0.950 . S
C2965 C2964 1.524 . S
C2965 C2966 1.415 . S
C2966 H2936 0.950 . S
C2966 C2961 1.363 . S
C2966 C2965 1.415 . S
H2967 C2964 0.999 . S
H2968 C2949 0.913 . S
H2969 C2987 0.951 . S
H2970 C2989 0.951 . S
H2971 C2991 0.950 . S
H2972 C2992 0.950 . S
H2973 C2994 0.950 . S
H2974 C2997 0.950 . S
H2975 C2998 0.950 . S
H2976 C3000 0.950 . S
H2977 C3001 0.950 . S
H2978 C3002 0.951 . S
H2979 C3004 0.951 . S
H2980 C3006 0.950 . S
H2981 C3007 0.950 . S
H2982 C3009 0.950 . S
H2983 C3012 0.950 . S
H2984 C3013 0.950 . S
H2985 C3015 0.950 . S
H2986 C3016 0.950 . S
C2987 H2969 0.951 . S
C2987 C2988 1.366 . S
C2987 C2989 1.388 . S
C2988 C2987 1.366 . S
C2988 C2992 1.385 . S
C2989 H2970 0.951 . S
C2989 C2987 1.388 . S
C2989 C2990 1.366 . S
C2990 C2989 1.366 . S
C2990 C2991 1.414 . S
C2990 C2993 1.499 . S
C2991 H2971 0.950 . S
C2991 C2990 1.414 . S
C2991 C2992 1.374 . S
C2992 H2972 0.950 . S
C2992 C2988 1.385 . S
C2992 C2991 1.374 . S
C2993 C2990 1.499 . S
C2993 C2994 1.373 . S
C2993 C2995 1.389 . S
C2994 H2973 0.950 . S
C2994 C2993 1.373 . S
C2994 C3010 1.377 . S
C2995 C2993 1.389 . S
C2995 C2996 1.524 . S
C2995 C3009 1.377 . S
C2996 C2995 1.524 . S
C2996 C2997 1.397 . S
C2996 C3001 1.363 . S
C2997 H2974 0.950 . S
C2997 C2996 1.397 . S
C2997 C2998 1.334 . S
C2998 H2975 0.950 . S
C2998 C2997 1.334 . S
C2998 C2999 1.287 . S
C2999 C2998 1.287 . S
C2999 C3000 1.524 . S
C2999 H3018 0.913 . S
C3000 H2976 0.950 . S
C3000 C2999 1.524 . S
C3000 C3001 1.415 . S
C3001 H2977 0.950 . S
C3001 C2996 1.363 . S
C3001 C3000 1.415 . S
C3002 H2978 0.951 . S
C3002 C3003 1.366 . S
C3002 C3004 1.388 . S
C3003 C3002 1.366 . S
C3003 C3007 1.385 . S
C3004 H2979 0.951 . S
C3004 C3002 1.388 . S
C3004 C3005 1.366 . S
C3005 C3004 1.366 . S
C3005 C3006 1.414 . S
C3005 C3008 1.499 . S
C3006 H2980 0.950 . S
C3006 C3005 1.414 . S
C3006 C3007 1.374 . S
C3007 H2981 0.950 . S
C3007 C3003 1.385 . S
C3007 C3006 1.374 . S
C3008 C3005 1.499 . S
C3008 C3009 1.373 . S
C3008 C3010 1.389 . S
C3009 H2982 0.950 . S
C3009 C2995 1.377 . S
C3009 C3008 1.373 . S
C3010 C2994 1.377 . S
C3010 C3008 1.389 . S
C3010 C3011 1.524 . S
C3011 C3010 1.524 . S
C3011 C3012 1.397 . S
C3011 C3016 1.363 . S
C3012 H2983 0.950 . S
C3012 C3011 1.397 . S
C3012 C3013 1.334 . S
C3013 H2984 0.950 . S
C3013 C3012 1.334 . S
C3013 C3014 1.287 . S
C3014 C3013 1.287 . S
C3014 C3015 1.524 . S
C3014 H3017 0.999 . S
C3015 H2985 0.950 . S
C3015 C3014 1.524 . S
C3015 C3016 1.415 . S
C3016 H2986 0.950 . S
C3016 C3011 1.363 . S
C3016 C3015 1.415 . S
H3017 C3014 0.999 . S
H3018 C2999 0.913 . S
H3019 C3037 0.951 . S
H3020 C3039 0.951 . S
H3021 C3041 0.950 . S
H3022 C3042 0.950 . S
H3023 C3044 0.950 . S
H3024 C3047 0.950 . S
H3025 C3048 0.950 . S
H3026 C3050 0.950 . S
H3027 C3051 0.950 . S
H3028 C3052 0.951 . S
H3029 C3054 0.951 . S
H3030 C3056 0.950 . S
H3031 C3057 0.950 . S
H3032 C3059 0.950 . S
H3033 C3062 0.950 . S
H3034 C3063 0.950 . S
H3035 C3065 0.950 . S
H3036 C3066 0.950 . S
C3037 H3019 0.951 . S
C3037 C3038 1.366 . S
C3037 C3039 1.388 . S
C3038 C3037 1.366 . S
C3038 C3042 1.385 . S
C3039 H3020 0.951 . S
C3039 C3037 1.388 . S
C3039 C3040 1.366 . S
C3040 C3039 1.366 . S
C3040 C3041 1.414 . S
C3040 C3043 1.499 . S
C3041 H3021 0.950 . S
C3041 C3040 1.414 . S
C3041 C3042 1.374 . S
C3042 H3022 0.950 . S
C3042 C3038 1.385 . S
C3042 C3041 1.374 . S
C3043 C3040 1.499 . S
C3043 C3044 1.373 . S
C3043 C3045 1.389 . S
C3044 H3023 0.950 . S
C3044 C3043 1.373 . S
C3044 C3060 1.377 . S
C3045 C3043 1.389 . S
C3045 C3046 1.524 . S
C3045 C3059 1.377 . S
C3046 C3045 1.524 . S
C3046 C3047 1.397 . S
C3046 C3051 1.363 . S
C3047 H3024 0.950 . S
C3047 C3046 1.397 . S
C3047 C3048 1.334 . S
C3048 H3025 0.950 . S
C3048 C3047 1.334 . S
C3048 C3049 1.287 . S
C3049 C3048 1.287 . S
C3049 C3050 1.524 . S
C3049 H3068 0.913 . S
C3050 H3026 0.950 . S
C3050 C3049 1.524 . S
C3050 C3051 1.415 . S
C3051 H3027 0.950 . S
C3051 C3046 1.363 . S
C3051 C3050 1.415 . S
C3052 H3028 0.951 . S
C3052 C3053 1.366 . S
C3052 C3054 1.388 . S
C3053 C3052 1.366 . S
C3053 C3057 1.385 . S
C3054 H3029 0.951 . S
C3054 C3052 1.388 . S
C3054 C3055 1.366 . S
C3055 C3054 1.366 . S
C3055 C3056 1.414 . S
C3055 C3058 1.499 . S
C3056 H3030 0.950 . S
C3056 C3055 1.414 . S
C3056 C3057 1.374 . S
C3057 H3031 0.950 . S
C3057 C3053 1.385 . S
C3057 C3056 1.374 . S
C3058 C3055 1.499 . S
C3058 C3059 1.373 . S
C3058 C3060 1.389 . S
C3059 H3032 0.950 . S
C3059 C3045 1.377 . S
C3059 C3058 1.373 . S
C3060 C3044 1.377 . S
C3060 C3058 1.389 . S
C3060 C3061 1.524 . S
C3061 C3060 1.524 . S
C3061 C3062 1.397 . S
C3061 C3066 1.363 . S
C3062 H3033 0.950 . S
C3062 C3061 1.397 . S
C3062 C3063 1.334 . S
C3063 H3034 0.950 . S
C3063 C3062 1.334 . S
C3063 C3064 1.287 . S
C3064 C3063 1.287 . S
C3064 C3065 1.524 . S
C3064 H3067 0.999 . S
C3065 H3035 0.950 . S
C3065 C3064 1.524 . S
C3065 C3066 1.415 . S
C3066 H3036 0.950 . S
C3066 C3061 1.363 . S
C3066 C3065 1.415 . S
H3067 C3064 0.999 . S
H3068 C3049 0.913 . S
H3069 C3087 0.951 . S
H3070 C3089 0.946 1_545 S
H3071 C3091 0.950 . S
H3072 C3092 0.950 . S
H3073 C3094 0.950 . S
H3074 C3097 0.950 . S
H3075 C3098 0.950 . S
H3076 C3100 0.950 1_545 S
H3077 C3101 0.923 1_545 S
H3078 C3102 0.951 . S
H3079 C3104 0.951 . S
H3080 C3106 0.950 . S
H3081 C3107 0.950 . S
H3082 C3109 0.950 . S
H3083 C3112 0.950 . S
H3084 C3113 0.950 . S
H3085 C3115 0.950 . S
H3086 C3116 0.950 . S
C3087 H3069 0.951 . S
C3087 C3088 1.366 . S
C3087 C3089 1.388 . S
C3088 C3087 1.366 . S
C3088 C3092 1.385 . S
C3089 H3070 0.946 1_565 S
C3089 C3087 1.388 . S
C3089 C3090 1.366 . S
C3090 C3089 1.366 . S
C3090 C3091 1.414 . S
C3090 C3093 1.499 . S
C3091 H3071 0.950 . S
C3091 C3090 1.414 . S
C3091 C3092 1.374 . S
C3092 H3072 0.950 . S
C3092 C3088 1.385 . S
C3092 C3091 1.374 . S
C3093 C3090 1.499 . S
C3093 C3094 1.373 . S
C3093 C3095 1.389 . S
C3094 H3073 0.950 . S
C3094 C3093 1.373 . S
C3094 C3110 1.377 . S
C3095 C3093 1.389 . S
C3095 C3096 1.524 . S
C3095 C3109 1.377 . S
C3096 C3095 1.524 . S
C3096 C3097 1.397 . S
C3096 C3101 1.411 . S
C3097 H3074 0.950 . S
C3097 C3096 1.397 . S
C3097 C3098 1.334 . S
C3098 H3075 0.950 . S
C3098 C3097 1.334 . S
C3098 C3099 1.287 . S
C3099 C3098 1.287 . S
C3099 C3100 1.524 . S
C3099 H3118 0.913 . S
C3100 H3076 0.950 1_565 S
C3100 C3099 1.524 . S
C3100 C3101 1.395 . S
C3101 H3077 0.923 1_565 S
C3101 C3096 1.411 . S
C3101 C3100 1.395 . S
C3102 H3078 0.951 . S
C3102 C3103 1.362 1_565 S
C3102 C3104 1.388 . S
C3103 C3102 1.362 1_545 S
C3103 C3107 1.388 . S
C3104 H3079 0.951 . S
C3104 C3102 1.388 . S
C3104 C3105 1.366 . S
C3105 C3104 1.366 . S
C3105 C3106 1.414 1_565 S
C3105 C3108 1.499 . S
C3106 H3080 0.950 . S
C3106 C3105 1.414 1_545 S
C3106 C3107 1.374 . S
C3107 H3081 0.950 . S
C3107 C3103 1.388 . S
C3107 C3106 1.374 . S
C3108 C3105 1.499 . S
C3108 C3109 1.373 . S
C3108 C3110 1.389 . S
C3109 H3082 0.950 . S
C3109 C3095 1.377 . S
C3109 C3108 1.373 . S
C3110 C3094 1.377 . S
C3110 C3108 1.389 . S
C3110 C3111 1.524 . S
C3111 C3110 1.524 . S
C3111 C3112 1.397 1_565 S
C3111 C3116 1.363 . S
C3112 H3083 0.950 . S
C3112 C3111 1.397 1_545 S
C3112 C3113 1.334 . S
C3113 H3084 0.950 . S
C3113 C3112 1.334 . S
C3113 C3114 1.287 1_545 S
C3114 C3113 1.287 1_565 S
C3114 C3115 1.524 . S
C3114 H3117 0.999 . S
C3115 H3085 0.950 . S
C3115 C3114 1.524 . S
C3115 C3116 1.415 . S
C3116 H3086 0.950 . S
C3116 C3111 1.363 . S
C3116 C3115 1.415 . S
H3117 C3114 0.999 . S
H3118 C3099 0.913 . S
H3119 C3137 0.951 . S
H3120 C3139 0.951 . S
H3121 C3141 0.950 . S
H3122 C3142 0.950 . S
H3123 C3144 0.950 . S
H3124 C3147 0.950 . S
H3125 C3148 0.950 . S
H3126 C3150 0.950 . S
H3127 C3151 0.950 . S
H3128 C3152 0.951 . S
H3129 C3154 0.951 . S
H3130 C3156 0.950 . S
H3131 C3157 0.950 . S
H3132 C3159 0.950 . S
H3133 C3162 0.950 . S
H3134 C3163 0.950 . S
H3135 C3165 0.950 . S
H3136 C3166 0.950 . S
C3137 H3119 0.951 . S
C3137 C3138 1.366 . S
C3137 C3139 1.388 . S
C3138 C3137 1.366 . S
C3138 C3142 1.385 . S
C3139 H3120 0.951 . S
C3139 C3137 1.388 . S
C3139 C3140 1.366 . S
C3140 C3139 1.366 . S
C3140 C3141 1.414 . S
C3140 C3143 1.499 . S
C3141 H3121 0.950 . S
C3141 C3140 1.414 . S
C3141 C3142 1.374 . S
C3142 H3122 0.950 . S
C3142 C3138 1.385 . S
C3142 C3141 1.374 . S
C3143 C3140 1.499 . S
C3143 C3144 1.373 . S
C3143 C3145 1.389 . S
C3144 H3123 0.950 . S
C3144 C3143 1.373 . S
C3144 C3160 1.377 . S
C3145 C3143 1.389 . S
C3145 C3146 1.524 . S
C3145 C3159 1.377 . S
C3146 C3145 1.524 . S
C3146 C3147 1.397 . S
C3146 C3151 1.363 . S
C3147 H3124 0.950 . S
C3147 C3146 1.397 . S
C3147 C3148 1.334 . S
C3148 H3125 0.950 . S
C3148 C3147 1.334 . S
C3148 C3149 1.287 . S
C3149 C3148 1.287 . S
C3149 C3150 1.524 . S
C3149 H3168 0.913 . S
C3150 H3126 0.950 . S
C3150 C3149 1.524 . S
C3150 C3151 1.415 . S
C3151 H3127 0.950 . S
C3151 C3146 1.363 . S
C3151 C3150 1.415 . S
C3152 H3128 0.951 . S
C3152 C3153 1.366 1_655 S
C3152 C3154 1.388 . S
C3153 C3152 1.366 1_455 S
C3153 C3157 1.385 . S
C3154 H3129 0.951 . S
C3154 C3152 1.388 . S
C3154 C3155 1.366 1_655 S
C3155 C3154 1.366 1_455 S
C3155 C3156 1.414 . S
C3155 C3158 1.499 . S
C3156 H3130 0.950 . S
C3156 C3155 1.414 . S
C3156 C3157 1.374 . S
C3157 H3131 0.950 . S
C3157 C3153 1.385 . S
C3157 C3156 1.374 . S
C3158 C3155 1.499 . S
C3158 C3159 1.373 . S
C3158 C3160 1.389 . S
C3159 H3132 0.950 . S
C3159 C3145 1.377 . S
C3159 C3158 1.373 . S
C3160 C3144 1.377 . S
C3160 C3158 1.389 . S
C3160 C3161 1.524 . S
C3161 C3160 1.524 . S
C3161 C3162 1.397 . S
C3161 C3166 1.363 1_455 S
C3162 H3133 0.950 . S
C3162 C3161 1.397 . S
C3162 C3163 1.334 . S
C3163 H3134 0.950 . S
C3163 C3162 1.334 . S
C3163 C3164 1.287 1_455 S
C3164 C3163 1.287 1_655 S
C3164 C3165 1.524 . S
C3164 H3167 0.999 . S
C3165 H3135 0.950 . S
C3165 C3164 1.524 . S
C3165 C3166 1.415 . S
C3166 H3136 0.950 . S
C3166 C3161 1.363 1_655 S
C3166 C3165 1.415 . S
H3167 C3164 0.999 . S
H3168 C3149 0.913 . S
H3169 C3187 0.951 . S
H3170 C3189 0.951 . S
H3171 C3191 0.950 . S
H3172 C3192 0.950 . S
H3173 C3194 0.950 . S
H3174 C3197 0.950 . S
H3175 C3198 0.950 . S
H3176 C3200 0.950 . S
H3177 C3201 0.950 . S
H3178 C3202 0.951 . S
H3179 C3204 0.951 . S
H3180 C3206 0.950 . S
H3181 C3207 0.950 . S
H3182 C3209 0.950 . S
H3183 C3212 0.950 . S
H3184 C3213 0.950 . S
H3185 C3215 0.950 . S
H3186 C3216 0.950 . S
C3187 H3169 0.951 . S
C3187 C3188 1.366 . S
C3187 C3189 1.388 . S
C3188 C3187 1.366 . S
C3188 C3192 1.385 . S
C3189 H3170 0.951 . S
C3189 C3187 1.388 . S
C3189 C3190 1.366 . S
C3190 C3189 1.366 . S
C3190 C3191 1.414 . S
C3190 C3193 1.499 . S
C3191 H3171 0.950 . S
C3191 C3190 1.414 . S
C3191 C3192 1.374 . S
C3192 H3172 0.950 . S
C3192 C3188 1.385 . S
C3192 C3191 1.374 . S
C3193 C3190 1.499 . S
C3193 C3194 1.373 . S
C3193 C3195 1.389 . S
C3194 H3173 0.950 . S
C3194 C3193 1.373 . S
C3194 C3210 1.377 . S
C3195 C3193 1.389 . S
C3195 C3196 1.524 . S
C3195 C3209 1.377 . S
C3196 C3195 1.524 . S
C3196 C3197 1.397 . S
C3196 C3201 1.363 . S
C3197 H3174 0.950 . S
C3197 C3196 1.397 . S
C3197 C3198 1.334 . S
C3198 H3175 0.950 . S
C3198 C3197 1.334 . S
C3198 C3199 1.287 . S
C3199 C3198 1.287 . S
C3199 C3200 1.524 . S
C3199 H3218 0.913 . S
C3200 H3176 0.950 . S
C3200 C3199 1.524 . S
C3200 C3201 1.415 . S
C3201 H3177 0.950 . S
C3201 C3196 1.363 . S
C3201 C3200 1.415 . S
C3202 H3178 0.951 . S
C3202 C3203 1.366 . S
C3202 C3204 1.388 . S
C3203 C3202 1.366 . S
C3203 C3207 1.385 . S
C3204 H3179 0.951 . S
C3204 C3202 1.388 . S
C3204 C3205 1.366 . S
C3205 C3204 1.366 . S
C3205 C3206 1.414 . S
C3205 C3208 1.499 . S
C3206 H3180 0.950 . S
C3206 C3205 1.414 . S
C3206 C3207 1.374 . S
C3207 H3181 0.950 . S
C3207 C3203 1.385 . S
C3207 C3206 1.374 . S
C3208 C3205 1.499 . S
C3208 C3209 1.373 . S
C3208 C3210 1.389 . S
C3209 H3182 0.950 . S
C3209 C3195 1.377 . S
C3209 C3208 1.373 . S
C3210 C3194 1.377 . S
C3210 C3208 1.389 . S
C3210 C3211 1.524 . S
C3211 C3210 1.524 . S
C3211 C3212 1.397 . S
C3211 C3216 1.363 . S
C3212 H3183 0.950 . S
C3212 C3211 1.397 . S
C3212 C3213 1.334 . S
C3213 H3184 0.950 . S
C3213 C3212 1.334 . S
C3213 C3214 1.287 . S
C3214 C3213 1.287 . S
C3214 C3215 1.524 . S
C3214 H3217 0.999 . S
C3215 H3185 0.950 . S
C3215 C3214 1.524 . S
C3215 C3216 1.415 . S
C3216 H3186 0.950 . S
C3216 C3211 1.363 . S
C3216 C3215 1.415 . S
H3217 C3214 0.999 . S
H3218 C3199 0.913 . S
H3219 C3237 0.951 . S
H3220 C3239 0.951 . S
H3221 C3241 0.950 . S
H3222 C3242 0.950 . S
H3223 C3244 0.950 . S
H3224 C3247 0.950 . S
H3225 C3248 0.950 . S
H3226 C3250 0.950 . S
H3227 C3251 0.950 . S
H3228 C3252 0.951 . S
H3229 C3254 0.950 . S
H3230 C3256 0.950 . S
H3231 C3257 0.950 . S
H3232 C3259 0.950 . S
H3233 C3262 0.950 . S
H3234 C3263 0.950 . S
H3235 C3265 0.950 . S
H3236 C3266 0.950 . S
C3237 H3219 0.951 . S
C3237 C3238 1.366 . S
C3237 C3239 1.388 . S
C3238 C3237 1.366 . S
C3238 C3242 1.385 . S
C3239 H3220 0.951 . S
C3239 C3237 1.388 . S
C3239 C3240 1.366 . S
C3240 C3239 1.366 . S
C3240 C3241 1.414 . S
C3240 C3243 1.499 . S
C3241 H3221 0.950 . S
C3241 C3240 1.414 . S
C3241 C3242 1.374 . S
C3242 H3222 0.950 . S
C3242 C3238 1.385 . S
C3242 C3241 1.374 . S
C3243 C3240 1.499 . S
C3243 C3244 1.373 . S
C3243 C3245 1.389 . S
C3244 H3223 0.950 . S
C3244 C3243 1.373 . S
C3244 C3260 1.377 . S
C3245 C3243 1.389 . S
C3245 C3246 1.524 . S
C3245 C3259 1.377 . S
C3246 C3245 1.524 . S
C3246 C3247 1.397 1_655 S
C3246 C3251 1.363 . S
C3247 H3224 0.950 . S
C3247 C3246 1.397 1_455 S
C3247 C3248 1.334 . S
C3248 H3225 0.950 . S
C3248 C3247 1.334 . S
C3248 C3249 1.287 . S
C3249 C3248 1.287 . S
C3249 C3250 1.524 1_455 S
C3249 H3268 0.913 . S
C3250 H3226 0.950 . S
C3250 C3249 1.524 1_655 S
C3250 C3251 1.415 . S
C3251 H3227 0.950 . S
C3251 C3246 1.363 . S
C3251 C3250 1.415 . S
C3252 H3228 0.951 . S
C3252 C3253 1.366 1_455 S
C3252 C3254 1.388 . S
C3253 C3252 1.366 1_655 S
C3253 C3257 1.385 . S
C3254 H3229 0.950 . S
C3254 C3252 1.388 . S
C3254 C3255 1.367 1_455 S
C3255 C3254 1.367 1_655 S
C3255 C3256 1.414 . S
C3255 C3258 1.499 . S
C3256 H3230 0.950 . S
C3256 C3255 1.414 . S
C3256 C3257 1.374 . S
C3257 H3231 0.950 . S
C3257 C3253 1.385 . S
C3257 C3256 1.374 . S
C3258 C3255 1.499 . S
C3258 C3259 1.373 . S
C3258 C3260 1.389 . S
C3259 H3232 0.950 . S
C3259 C3245 1.377 . S
C3259 C3258 1.373 . S
C3260 C3244 1.377 . S
C3260 C3258 1.389 . S
C3260 C3261 1.524 . S
C3261 C3260 1.524 . S
C3261 C3262 1.397 . S
C3261 C3266 1.363 . S
C3262 H3233 0.950 . S
C3262 C3261 1.397 . S
C3262 C3263 1.334 . S
C3263 H3234 0.950 . S
C3263 C3262 1.334 . S
C3263 C3264 1.287 . S
C3264 C3263 1.287 . S
C3264 C3265 1.524 . S
C3264 H3267 0.999 . S
C3265 H3235 0.950 . S
C3265 C3264 1.524 . S
C3265 C3266 1.415 . S
C3266 H3236 0.950 . S
C3266 C3261 1.363 . S
C3266 C3265 1.415 . S
H3267 C3264 0.999 . S
H3268 C3249 0.913 . S
H3269 C3287 0.951 . S
H3270 C3289 0.951 . S
H3271 C3291 0.950 . S
H3272 C3292 0.950 . S
H3273 C3294 0.950 . S
H3274 C3297 0.950 . S
H3275 C3298 0.950 . S
H3276 C3300 0.950 . S
H3277 C3301 0.950 . S
H3278 C3302 0.951 . S
H3279 C3304 0.951 . S
H3280 C3306 0.950 . S
H3281 C3307 0.950 . S
H3282 C3309 0.950 . S
H3283 C3312 0.950 . S
H3284 C3313 0.950 . S
H3285 C3315 0.950 . S
H3286 C3316 0.950 . S
C3287 H3269 0.951 . S
C3287 C3288 1.366 . S
C3287 C3289 1.388 . S
C3288 C3287 1.366 . S
C3288 C3292 1.385 . S
C3289 H3270 0.951 . S
C3289 C3287 1.388 . S
C3289 C3290 1.366 . S
C3290 C3289 1.366 . S
C3290 C3291 1.414 . S
C3290 C3293 1.499 . S
C3291 H3271 0.950 . S
C3291 C3290 1.414 . S
C3291 C3292 1.374 . S
C3292 H3272 0.950 . S
C3292 C3288 1.385 . S
C3292 C3291 1.374 . S
C3293 C3290 1.499 . S
C3293 C3294 1.373 . S
C3293 C3295 1.389 . S
C3294 H3273 0.950 . S
C3294 C3293 1.373 . S
C3294 C3310 1.377 . S
C3295 C3293 1.389 . S
C3295 C3296 1.524 . S
C3295 C3309 1.377 . S
C3296 C3295 1.524 . S
C3296 C3297 1.397 . S
C3296 C3301 1.363 . S
C3297 H3274 0.950 . S
C3297 C3296 1.397 . S
C3297 C3298 1.334 . S
C3298 H3275 0.950 . S
C3298 C3297 1.334 . S
C3298 C3299 1.287 . S
C3299 C3298 1.287 . S
C3299 C3300 1.524 . S
C3299 H3318 0.913 . S
C3300 H3276 0.950 . S
C3300 C3299 1.524 . S
C3300 C3301 1.415 . S
C3301 H3277 0.950 . S
C3301 C3296 1.363 . S
C3301 C3300 1.415 . S
C3302 H3278 0.951 . S
C3302 C3303 1.366 . S
C3302 C3304 1.388 . S
C3303 C3302 1.366 . S
C3303 C3307 1.385 . S
C3304 H3279 0.951 . S
C3304 C3302 1.388 . S
C3304 C3305 1.366 . S
C3305 C3304 1.366 . S
C3305 C3306 1.414 . S
C3305 C3308 1.499 . S
C3306 H3280 0.950 . S
C3306 C3305 1.414 . S
C3306 C3307 1.374 . S
C3307 H3281 0.950 . S
C3307 C3303 1.385 . S
C3307 C3306 1.374 . S
C3308 C3305 1.499 . S
C3308 C3309 1.373 . S
C3308 C3310 1.389 . S
C3309 H3282 0.950 . S
C3309 C3295 1.377 . S
C3309 C3308 1.373 . S
C3310 C3294 1.377 . S
C3310 C3308 1.389 . S
C3310 C3311 1.524 . S
C3311 C3310 1.524 . S
C3311 C3312 1.397 . S
C3311 C3316 1.363 . S
C3312 H3283 0.950 . S
C3312 C3311 1.397 . S
C3312 C3313 1.334 . S
C3313 H3284 0.950 . S
C3313 C3312 1.334 . S
C3313 C3314 1.287 . S
C3314 C3313 1.287 . S
C3314 C3315 1.524 . S
C3314 H3317 0.999 . S
C3315 H3285 0.950 . S
C3315 C3314 1.524 . S
C3315 C3316 1.415 . S
C3316 H3286 0.950 . S
C3316 C3311 1.363 . S
C3316 C3315 1.415 . S
H3317 C3314 0.999 . S
H3318 C3299 0.913 . S
H3319 C3337 0.951 . S
H3320 C3339 0.951 . S
H3321 C3341 0.950 . S
H3322 C3342 0.950 . S
H3323 C3344 0.950 1_565 S
H3324 C3347 0.950 . S
H3325 C3348 0.950 . S
H3326 C3350 0.950 . S
H3327 C3351 0.950 . S
H3328 C3352 0.951 . S
H3329 C3354 0.951 1_565 S
H3330 C3356 0.950 . S
H3331 C3357 0.950 . S
H3332 C3359 0.950 . S
H3333 C3362 0.950 . S
H3334 C3363 0.950 . S
H3335 C3365 0.950 . S
H3336 C3366 0.950 . S
C3337 H3319 0.951 . S
C3337 C3338 1.366 . S
C3337 C3339 1.388 . S
C3338 C3337 1.366 . S
C3338 C3342 1.385 . S
C3339 H3320 0.951 . S
C3339 C3337 1.388 . S
C3339 C3340 1.366 . S
C3340 C3339 1.366 . S
C3340 C3341 1.414 . S
C3340 C3343 1.499 . S
C3341 H3321 0.950 . S
C3341 C3340 1.414 . S
C3341 C3342 1.374 . S
C3342 H3322 0.950 . S
C3342 C3338 1.385 . S
C3342 C3341 1.374 . S
C3343 C3340 1.499 . S
C3343 C3344 1.373 . S
C3343 C3345 1.389 . S
C3344 H3323 0.950 1_545 S
C3344 C3343 1.373 . S
C3344 C3360 1.377 . S
C3345 C3343 1.389 . S
C3345 C3346 1.524 . S
C3345 C3359 1.377 . S
C3346 C3345 1.524 . S
C3346 C3347 1.397 . S
C3346 C3351 1.363 . S
C3347 H3324 0.950 . S
C3347 C3346 1.397 . S
C3347 C3348 1.334 . S
C3348 H3325 0.950 . S
C3348 C3347 1.334 . S
C3348 C3349 1.287 . S
C3349 C3348 1.287 . S
C3349 C3350 1.524 . S
C3349 H3368 0.913 . S
C3350 H3326 0.950 . S
C3350 C3349 1.524 . S
C3350 C3351 1.415 . S
C3351 H3327 0.950 . S
C3351 C3346 1.363 . S
C3351 C3350 1.415 . S
C3352 H3328 0.951 . S
C3352 C3353 1.366 1_565 S
C3352 C3354 1.388 1_565 S
C3353 C3352 1.366 1_545 S
C3353 C3357 1.385 . S
C3354 H3329 0.951 1_545 S
C3354 C3352 1.388 1_545 S
C3354 C3355 1.366 . S
C3355 C3354 1.366 . S
C3355 C3356 1.414 . S
C3355 C3358 1.499 . S
C3356 H3330 0.950 . S
C3356 C3355 1.414 . S
C3356 C3357 1.374 . S
C3357 H3331 0.950 . S
C3357 C3353 1.385 . S
C3357 C3356 1.374 . S
C3358 C3355 1.499 . S
C3358 C3359 1.373 . S
C3358 C3360 1.389 . S
C3359 H3332 0.950 . S
C3359 C3345 1.377 . S
C3359 C3358 1.373 . S
C3360 C3344 1.377 . S
C3360 C3358 1.389 . S
C3360 C3361 1.524 1_545 S
C3361 C3360 1.524 1_565 S
C3361 C3362 1.397 . S
C3361 C3366 1.363 . S
C3362 H3333 0.950 . S
C3362 C3361 1.397 . S
C3362 C3363 1.334 . S
C3363 H3334 0.950 . S
C3363 C3362 1.334 . S
C3363 C3364 1.287 . S
C3364 C3363 1.287 . S
C3364 C3365 1.524 . S
C3364 H3367 0.999 . S
C3365 H3335 0.950 . S
C3365 C3364 1.524 . S
C3365 C3366 1.415 . S
C3366 H3336 0.950 . S
C3366 C3361 1.363 . S
C3366 C3365 1.415 . S
H3367 C3364 0.999 . S
H3368 C3349 0.913 . S
H3369 C3387 0.951 . S
H3370 C3389 0.951 . S
H3371 C3391 0.950 . S
H3372 C3392 0.950 . S
H3373 C3394 0.950 . S
H3374 C3397 0.950 . S
H3375 C3398 0.950 . S
H3376 C3400 0.950 . S
H3377 C3401 0.950 . S
H3378 C3402 0.951 . S
H3379 C3404 0.951 . S
H3380 C3406 0.950 . S
H3381 C3407 0.950 . S
H3382 C3409 0.950 . S
H3383 C3412 0.950 . S
H3384 C3413 0.950 . S
H3385 C3415 0.950 . S
H3386 C3416 0.950 . S
C3387 H3369 0.951 . S
C3387 C3388 1.366 . S
C3387 C3389 1.388 . S
C3388 C3387 1.366 . S
C3388 C3392 1.385 . S
C3389 H3370 0.951 . S
C3389 C3387 1.388 . S
C3389 C3390 1.366 . S
C3390 C3389 1.366 . S
C3390 C3391 1.414 . S
C3390 C3393 1.499 . S
C3391 H3371 0.950 . S
C3391 C3390 1.414 . S
C3391 C3392 1.374 . S
C3392 H3372 0.950 . S
C3392 C3388 1.385 . S
C3392 C3391 1.374 . S
C3393 C3390 1.499 . S
C3393 C3394 1.373 . S
C3393 C3395 1.389 . S
C3394 H3373 0.950 . S
C3394 C3393 1.373 . S
C3394 C3410 1.377 . S
C3395 C3393 1.389 . S
C3395 C3396 1.524 . S
C3395 C3409 1.377 . S
C3396 C3395 1.524 . S
C3396 C3397 1.397 . S
C3396 C3401 1.363 . S
C3397 H3374 0.950 . S
C3397 C3396 1.397 . S
C3397 C3398 1.334 . S
C3398 H3375 0.950 . S
C3398 C3397 1.334 . S
C3398 C3399 1.287 . S
C3399 C3398 1.287 . S
C3399 C3400 1.524 . S
C3399 H3418 0.913 . S
C3400 H3376 0.950 . S
C3400 C3399 1.524 . S
C3400 C3401 1.415 . S
C3401 H3377 0.950 . S
C3401 C3396 1.363 . S
C3401 C3400 1.415 . S
C3402 H3378 0.951 . S
C3402 C3403 1.366 . S
C3402 C3404 1.388 . S
C3403 C3402 1.366 . S
C3403 C3407 1.385 . S
C3404 H3379 0.951 . S
C3404 C3402 1.388 . S
C3404 C3405 1.366 . S
C3405 C3404 1.366 . S
C3405 C3406 1.414 . S
C3405 C3408 1.499 . S
C3406 H3380 0.950 . S
C3406 C3405 1.414 . S
C3406 C3407 1.374 . S
C3407 H3381 0.950 . S
C3407 C3403 1.385 . S
C3407 C3406 1.374 . S
C3408 C3405 1.499 . S
C3408 C3409 1.373 . S
C3408 C3410 1.389 . S
C3409 H3382 0.950 . S
C3409 C3395 1.377 . S
C3409 C3408 1.373 . S
C3410 C3394 1.377 . S
C3410 C3408 1.389 . S
C3410 C3411 1.524 . S
C3411 C3410 1.524 . S
C3411 C3412 1.397 . S
C3411 C3416 1.363 . S
C3412 H3383 0.950 . S
C3412 C3411 1.397 . S
C3412 C3413 1.334 . S
C3413 H3384 0.950 . S
C3413 C3412 1.334 . S
C3413 C3414 1.287 . S
C3414 C3413 1.287 . S
C3414 C3415 1.524 . S
C3414 H3417 0.999 . S
C3415 H3385 0.950 . S
C3415 C3414 1.524 . S
C3415 C3416 1.415 . S
C3416 H3386 0.950 . S
C3416 C3411 1.363 . S
C3416 C3415 1.415 . S
H3417 C3414 0.999 . S
H3418 C3399 0.913 . S
H3419 C3437 0.951 . S
H3420 C3439 0.951 . S
H3421 C3441 0.950 . S
H3422 C3442 0.950 . S
H3423 C3444 0.950 . S
H3424 C3447 0.950 . S
H3425 C3448 0.950 . S
H3426 C3450 0.950 . S
H3427 C3451 0.950 . S
H3428 C3452 0.951 . S
H3429 C3454 0.951 . S
H3430 C3456 0.950 . S
H3431 C3457 0.950 . S
H3432 C3459 0.950 . S
H3433 C3462 0.950 . S
H3434 C3463 0.950 . S
H3435 C3465 0.950 . S
H3436 C3466 0.950 . S
C3437 H3419 0.951 . S
C3437 C3438 1.366 . S
C3437 C3439 1.388 . S
C3438 C3437 1.366 . S
C3438 C3442 1.385 . S
C3439 H3420 0.951 . S
C3439 C3437 1.388 . S
C3439 C3440 1.366 . S
C3440 C3439 1.366 . S
C3440 C3441 1.414 . S
C3440 C3443 1.499 . S
C3441 H3421 0.950 . S
C3441 C3440 1.414 . S
C3441 C3442 1.374 . S
C3442 H3422 0.950 . S
C3442 C3438 1.385 . S
C3442 C3441 1.374 . S
C3443 C3440 1.499 . S
C3443 C3444 1.373 . S
C3443 C3445 1.389 . S
C3444 H3423 0.950 . S
C3444 C3443 1.373 . S
C3444 C3460 1.377 . S
C3445 C3443 1.389 . S
C3445 C3446 1.524 . S
C3445 C3459 1.377 . S
C3446 C3445 1.524 . S
C3446 C3447 1.397 . S
C3446 C3451 1.363 . S
C3447 H3424 0.950 . S
C3447 C3446 1.397 . S
C3447 C3448 1.334 . S
C3448 H3425 0.950 . S
C3448 C3447 1.334 . S
C3448 C3449 1.287 . S
C3449 C3448 1.287 . S
C3449 C3450 1.524 . S
C3449 H3468 0.913 . S
C3450 H3426 0.950 . S
C3450 C3449 1.524 . S
C3450 C3451 1.415 . S
C3451 H3427 0.950 . S
C3451 C3446 1.363 . S
C3451 C3450 1.415 . S
C3452 H3428 0.951 . S
C3452 C3453 1.366 . S
C3452 C3454 1.388 . S
C3453 C3452 1.366 . S
C3453 C3457 1.385 . S
C3454 H3429 0.951 . S
C3454 C3452 1.388 . S
C3454 C3455 1.366 . S
C3455 C3454 1.366 . S
C3455 C3456 1.414 . S
C3455 C3458 1.499 . S
C3456 H3430 0.950 . S
C3456 C3455 1.414 . S
C3456 C3457 1.374 . S
C3457 H3431 0.950 . S
C3457 C3453 1.385 . S
C3457 C3456 1.374 . S
C3458 C3455 1.499 . S
C3458 C3459 1.373 . S
C3458 C3460 1.389 . S
C3459 H3432 0.950 . S
C3459 C3445 1.377 . S
C3459 C3458 1.373 . S
C3460 C3444 1.377 . S
C3460 C3458 1.389 . S
C3460 C3461 1.524 . S
C3461 C3460 1.524 . S
C3461 C3462 1.397 . S
C3461 C3466 1.363 . S
C3462 H3433 0.950 . S
C3462 C3461 1.397 . S
C3462 C3463 1.334 . S
C3463 H3434 0.950 . S
C3463 C3462 1.334 . S
C3463 C3464 1.287 . S
C3464 C3463 1.287 . S
C3464 C3465 1.524 . S
C3464 H3467 0.999 . S
C3465 H3435 0.950 . S
C3465 C3464 1.524 . S
C3465 C3466 1.415 . S
C3466 H3436 0.950 . S
C3466 C3461 1.363 . S
C3466 C3465 1.415 . S
H3467 C3464 0.999 . S
H3468 C3449 0.913 . S
H3469 C3487 0.951 . S
H3470 C3489 0.951 . S
H3471 C3491 0.950 . S
H3472 C3492 0.950 . S
H3473 C3494 0.950 . S
H3474 C3497 0.950 . S
H3475 C3498 0.950 . S
H3476 C3500 0.950 . S
H3477 C3501 0.950 . S
H3478 C3502 0.951 . S
H3479 C3504 0.951 . S
H3480 C3506 0.950 . S
H3481 C3507 0.950 . S
H3482 C3509 0.950 . S
H3483 C3512 0.950 . S
H3484 C3513 0.950 . S
H3485 C3515 0.950 . S
H3486 C3516 0.950 . S
C3487 H3469 0.951 . S
C3487 C3488 1.366 . S
C3487 C3489 1.388 . S
C3488 C3487 1.366 . S
C3488 C3492 1.385 . S
C3489 H3470 0.951 . S
C3489 C3487 1.388 . S
C3489 C3490 1.366 . S
C3490 C3489 1.366 . S
C3490 C3491 1.414 . S
C3490 C3493 1.499 . S
C3491 H3471 0.950 . S
C3491 C3490 1.414 . S
C3491 C3492 1.374 . S
C3492 H3472 0.950 . S
C3492 C3488 1.385 . S
C3492 C3491 1.374 . S
C3493 C3490 1.499 . S
C3493 C3494 1.373 . S
C3493 C3495 1.389 . S
C3494 H3473 0.950 . S
C3494 C3493 1.373 . S
C3494 C3510 1.377 . S
C3495 C3493 1.389 . S
C3495 C3496 1.524 . S
C3495 C3509 1.377 . S
C3496 C3495 1.524 . S
C3496 C3497 1.397 . S
C3496 C3501 1.363 . S
C3497 H3474 0.950 . S
C3497 C3496 1.397 . S
C3497 C3498 1.334 . S
C3498 H3475 0.950 . S
C3498 C3497 1.334 . S
C3498 C3499 1.287 . S
C3499 C3498 1.287 . S
C3499 C3500 1.524 . S
C3499 H3518 0.913 . S
C3500 H3476 0.950 . S
C3500 C3499 1.524 . S
C3500 C3501 1.415 . S
C3501 H3477 0.950 . S
C3501 C3496 1.363 . S
C3501 C3500 1.415 . S
C3502 H3478 0.951 . S
C3502 C3503 1.366 . S
C3502 C3504 1.388 . S
C3503 C3502 1.366 . S
C3503 C3507 1.385 . S
C3504 H3479 0.951 . S
C3504 C3502 1.388 . S
C3504 C3505 1.366 . S
C3505 C3504 1.366 . S
C3505 C3506 1.414 . S
C3505 C3508 1.499 . S
C3506 H3480 0.950 . S
C3506 C3505 1.414 . S
C3506 C3507 1.374 . S
C3507 H3481 0.950 . S
C3507 C3503 1.385 . S
C3507 C3506 1.374 . S
C3508 C3505 1.499 . S
C3508 C3509 1.373 . S
C3508 C3510 1.389 . S
C3509 H3482 0.950 . S
C3509 C3495 1.377 . S
C3509 C3508 1.373 . S
C3510 C3494 1.377 . S
C3510 C3508 1.389 . S
C3510 C3511 1.524 . S
C3511 C3510 1.524 . S
C3511 C3512 1.397 . S
C3511 C3516 1.363 . S
C3512 H3483 0.950 . S
C3512 C3511 1.397 . S
C3512 C3513 1.334 . S
C3513 H3484 0.950 . S
C3513 C3512 1.334 . S
C3513 C3514 1.287 . S
C3514 C3513 1.287 . S
C3514 C3515 1.524 . S
C3514 H3517 0.999 . S
C3515 H3485 0.950 . S
C3515 C3514 1.524 . S
C3515 C3516 1.415 . S
C3516 H3486 0.950 . S
C3516 C3511 1.363 . S
C3516 C3515 1.415 . S
H3517 C3514 0.999 . S
H3518 C3499 0.913 . S
H3519 C3537 0.951 . S
H3520 C3539 0.951 . S
H3521 C3541 0.950 . S
H3522 C3542 0.950 . S
H3523 C3544 0.950 . S
H3524 C3547 0.950 . S
H3525 C3548 0.950 . S
H3526 C3550 0.950 . S
H3527 C3551 0.950 . S
H3528 C3552 0.951 . S
H3529 C3554 0.951 . S
H3530 C3556 0.950 . S
H3531 C3557 0.950 . S
H3532 C3559 0.950 . S
H3533 C3562 0.950 . S
H3534 C3563 0.950 . S
H3535 C3565 0.950 . S
H3536 C3566 0.950 . S
C3537 H3519 0.951 . S
C3537 C3538 1.366 . S
C3537 C3539 1.388 . S
C3538 C3537 1.366 . S
C3538 C3542 1.385 . S
C3539 H3520 0.951 . S
C3539 C3537 1.388 . S
C3539 C3540 1.366 . S
C3540 C3539 1.366 . S
C3540 C3541 1.414 . S
C3540 C3543 1.499 . S
C3541 H3521 0.950 . S
C3541 C3540 1.414 . S
C3541 C3542 1.374 . S
C3542 H3522 0.950 . S
C3542 C3538 1.385 . S
C3542 C3541 1.374 . S
C3543 C3540 1.499 . S
C3543 C3544 1.373 . S
C3543 C3545 1.389 . S
C3544 H3523 0.950 . S
C3544 C3543 1.373 . S
C3544 C3560 1.377 . S
C3545 C3543 1.389 . S
C3545 C3546 1.524 . S
C3545 C3559 1.377 . S
C3546 C3545 1.524 . S
C3546 C3547 1.397 . S
C3546 C3551 1.363 . S
C3547 H3524 0.950 . S
C3547 C3546 1.397 . S
C3547 C3548 1.334 . S
C3548 H3525 0.950 . S
C3548 C3547 1.334 . S
C3548 C3549 1.287 . S
C3549 C3548 1.287 . S
C3549 C3550 1.524 . S
C3549 H3568 0.913 . S
C3550 H3526 0.950 . S
C3550 C3549 1.524 . S
C3550 C3551 1.415 . S
C3551 H3527 0.950 . S
C3551 C3546 1.363 . S
C3551 C3550 1.415 . S
C3552 H3528 0.951 . S
C3552 C3553 1.366 . S
C3552 C3554 1.388 . S
C3553 C3552 1.366 . S
C3553 C3557 1.385 . S
C3554 H3529 0.951 . S
C3554 C3552 1.388 . S
C3554 C3555 1.366 . S
C3555 C3554 1.366 . S
C3555 C3556 1.414 . S
C3555 C3558 1.499 . S
C3556 H3530 0.950 . S
C3556 C3555 1.414 . S
C3556 C3557 1.374 . S
C3557 H3531 0.950 . S
C3557 C3553 1.385 . S
C3557 C3556 1.374 . S
C3558 C3555 1.499 . S
C3558 C3559 1.373 . S
C3558 C3560 1.389 . S
C3559 H3532 0.950 . S
C3559 C3545 1.377 . S
C3559 C3558 1.373 . S
C3560 C3544 1.377 . S
C3560 C3558 1.389 . S
C3560 C3561 1.524 . S
C3561 C3560 1.524 . S
C3561 C3562 1.397 . S
C3561 C3566 1.363 . S
C3562 H3533 0.950 . S
C3562 C3561 1.397 . S
C3562 C3563 1.334 . S
C3563 H3534 0.950 . S
C3563 C3562 1.334 . S
C3563 C3564 1.287 . S
C3564 C3563 1.287 . S
C3564 C3565 1.524 . S
C3564 H3567 0.999 . S
C3565 H3535 0.950 . S
C3565 C3564 1.524 . S
C3565 C3566 1.415 . S
C3566 H3536 0.950 . S
C3566 C3561 1.363 . S
C3566 C3565 1.415 . S
H3567 C3564 0.999 . S
H3568 C3549 0.913 . S
H3569 C3587 0.951 . S
H3570 C3589 0.951 . S
H3571 C3591 0.950 . S
H3572 C3592 0.950 . S
H3573 C3594 0.950 . S
H3574 C3597 0.950 . S
H3575 C3598 0.950 . S
H3576 C3600 0.950 . S
H3577 C3601 0.950 . S
H3578 C3602 0.951 . S
H3579 C3604 0.951 . S
H3580 C3606 0.950 . S
H3581 C3607 0.950 . S
H3582 C3609 0.950 . S
H3583 C3612 0.950 . S
H3584 C3613 0.950 . S
H3585 C3615 0.950 . S
H3586 C3616 0.950 . S
C3587 H3569 0.951 . S
C3587 C3588 1.366 . S
C3587 C3589 1.388 . S
C3588 C3587 1.366 . S
C3588 C3592 1.385 . S
C3589 H3570 0.951 . S
C3589 C3587 1.388 . S
C3589 C3590 1.366 . S
C3590 C3589 1.366 . S
C3590 C3591 1.414 . S
C3590 C3593 1.499 . S
C3591 H3571 0.950 . S
C3591 C3590 1.414 . S
C3591 C3592 1.374 . S
C3592 H3572 0.950 . S
C3592 C3588 1.385 . S
C3592 C3591 1.374 . S
C3593 C3590 1.499 . S
C3593 C3594 1.373 . S
C3593 C3595 1.389 . S
C3594 H3573 0.950 . S
C3594 C3593 1.373 . S
C3594 C3610 1.377 . S
C3595 C3593 1.389 . S
C3595 C3596 1.524 . S
C3595 C3609 1.377 . S
C3596 C3595 1.524 . S
C3596 C3597 1.397 . S
C3596 C3601 1.363 . S
C3597 H3574 0.950 . S
C3597 C3596 1.397 . S
C3597 C3598 1.334 . S
C3598 H3575 0.950 . S
C3598 C3597 1.334 . S
C3598 C3599 1.287 . S
C3599 C3598 1.287 . S
C3599 C3600 1.524 . S
C3599 H3618 0.913 . S
C3600 H3576 0.950 . S
C3600 C3599 1.524 . S
C3600 C3601 1.415 . S
C3601 H3577 0.950 . S
C3601 C3596 1.363 . S
C3601 C3600 1.415 . S
C3602 H3578 0.951 . S
C3602 C3603 1.366 . S
C3602 C3604 1.388 . S
C3603 C3602 1.366 . S
C3603 C3607 1.385 . S
C3604 H3579 0.951 . S
C3604 C3602 1.388 . S
C3604 C3605 1.366 . S
C3605 C3604 1.366 . S
C3605 C3606 1.414 . S
C3605 C3608 1.499 . S
C3606 H3580 0.950 . S
C3606 C3605 1.414 . S
C3606 C3607 1.374 . S
C3607 H3581 0.950 . S
C3607 C3603 1.385 . S
C3607 C3606 1.374 . S
C3608 C3605 1.499 . S
C3608 C3609 1.373 . S
C3608 C3610 1.389 . S
C3609 H3582 0.950 . S
C3609 C3595 1.377 . S
C3609 C3608 1.373 . S
C3610 C3594 1.377 . S
C3610 C3608 1.389 . S
C3610 C3611 1.524 . S
C3611 C3610 1.524 . S
C3611 C3612 1.397 . S
C3611 C3616 1.363 . S
C3612 H3583 0.950 . S
C3612 C3611 1.397 . S
C3612 C3613 1.334 . S
C3613 H3584 0.950 . S
C3613 C3612 1.334 . S
C3613 C3614 1.287 . S
C3614 C3613 1.287 . S
C3614 C3615 1.524 . S
C3614 H3617 0.999 . S
C3615 H3585 0.950 . S
C3615 C3614 1.524 . S
C3615 C3616 1.415 . S
C3616 H3586 0.950 . S
C3616 C3611 1.363 . S
C3616 C3615 1.415 . S
H3617 C3614 0.999 . S
H3618 C3599 0.913 . S
H3619 C3637 0.951 . S
H3620 C3639 0.951 . S
H3621 C3641 0.950 . S
H3622 C3642 0.950 . S
H3623 C3644 0.950 . S
H3624 C3647 0.950 . S
H3625 C3648 0.950 . S
H3626 C3650 0.950 . S
H3627 C3651 0.950 . S
H3628 C3652 0.951 . S
H3629 C3654 0.951 . S
H3630 C3656 0.950 . S
H3631 C3657 0.950 . S
H3632 C3659 0.950 . S
H3633 C3662 0.950 . S
H3634 C3663 0.950 . S
H3635 C3665 0.950 . S
H3636 C3666 0.950 . S
C3637 H3619 0.951 . S
C3637 C3638 1.366 . S
C3637 C3639 1.388 . S
C3638 C3637 1.366 . S
C3638 C3642 1.385 . S
C3639 H3620 0.951 . S
C3639 C3637 1.388 . S
C3639 C3640 1.366 . S
C3640 C3639 1.366 . S
C3640 C3641 1.414 . S
C3640 C3643 1.499 . S
C3641 H3621 0.950 . S
C3641 C3640 1.414 . S
C3641 C3642 1.374 . S
C3642 H3622 0.950 . S
C3642 C3638 1.385 . S
C3642 C3641 1.374 . S
C3643 C3640 1.499 . S
C3643 C3644 1.373 . S
C3643 C3645 1.389 . S
C3644 H3623 0.950 . S
C3644 C3643 1.373 . S
C3644 C3660 1.377 . S
C3645 C3643 1.389 . S
C3645 C3646 1.524 . S
C3645 C3659 1.377 . S
C3646 C3645 1.524 . S
C3646 C3647 1.397 . S
C3646 C3651 1.363 . S
C3647 H3624 0.950 . S
C3647 C3646 1.397 . S
C3647 C3648 1.334 . S
C3648 H3625 0.950 . S
C3648 C3647 1.334 . S
C3648 C3649 1.287 . S
C3649 C3648 1.287 . S
C3649 C3650 1.524 . S
C3649 H3668 0.913 . S
C3650 H3626 0.950 . S
C3650 C3649 1.524 . S
C3650 C3651 1.415 . S
C3651 H3627 0.950 . S
C3651 C3646 1.363 . S
C3651 C3650 1.415 . S
C3652 H3628 0.951 . S
C3652 C3653 1.366 . S
C3652 C3654 1.388 . S
C3653 C3652 1.366 . S
C3653 C3657 1.385 . S
C3654 H3629 0.951 . S
C3654 C3652 1.388 . S
C3654 C3655 1.366 . S
C3655 C3654 1.366 . S
C3655 C3656 1.414 . S
C3655 C3658 1.499 . S
C3656 H3630 0.950 . S
C3656 C3655 1.414 . S
C3656 C3657 1.374 . S
C3657 H3631 0.950 . S
C3657 C3653 1.385 . S
C3657 C3656 1.374 . S
C3658 C3655 1.499 . S
C3658 C3659 1.373 . S
C3658 C3660 1.389 . S
C3659 H3632 0.950 . S
C3659 C3645 1.377 . S
C3659 C3658 1.373 . S
C3660 C3644 1.377 . S
C3660 C3658 1.389 . S
C3660 C3661 1.524 . S
C3661 C3660 1.524 . S
C3661 C3662 1.397 . S
C3661 C3666 1.363 . S
C3662 H3633 0.950 . S
C3662 C3661 1.397 . S
C3662 C3663 1.334 . S
C3663 H3634 0.950 . S
C3663 C3662 1.334 . S
C3663 C3664 1.287 . S
C3664 C3663 1.287 . S
C3664 C3665 1.524 . S
C3664 H3667 0.999 . S
C3665 H3635 0.950 . S
C3665 C3664 1.524 . S
C3665 C3666 1.415 . S
C3666 H3636 0.950 . S
C3666 C3661 1.363 . S
C3666 C3665 1.415 . S
H3667 C3664 0.999 . S
H3668 C3649 0.913 . S
H3669 C3687 0.951 . S
H3670 C3689 0.951 . S
H3671 C3691 0.950 . S
H3672 C3692 0.950 . S
H3673 C3694 0.950 . S
H3674 C3697 0.950 . S
H3675 C3698 0.950 . S
H3676 C3700 0.950 . S
H3677 C3701 0.950 . S
H3678 C3702 0.951 . S
H3679 C3704 0.951 . S
H3680 C3706 0.950 . S
H3681 C3707 0.950 . S
H3682 C3709 0.950 . S
H3683 C3712 0.950 . S
H3684 C3713 0.950 . S
H3685 C3715 0.950 . S
H3686 C3716 0.950 . S
C3687 H3669 0.951 . S
C3687 C3688 1.366 . S
C3687 C3689 1.388 . S
C3688 C3687 1.366 . S
C3688 C3692 1.385 . S
C3689 H3670 0.951 . S
C3689 C3687 1.388 . S
C3689 C3690 1.366 . S
C3690 C3689 1.366 . S
C3690 C3691 1.414 . S
C3690 C3693 1.499 . S
C3691 H3671 0.950 . S
C3691 C3690 1.414 . S
C3691 C3692 1.374 . S
C3692 H3672 0.950 . S
C3692 C3688 1.385 . S
C3692 C3691 1.374 . S
C3693 C3690 1.499 . S
C3693 C3694 1.373 . S
C3693 C3695 1.389 . S
C3694 H3673 0.950 . S
C3694 C3693 1.373 . S
C3694 C3710 1.377 . S
C3695 C3693 1.389 . S
C3695 C3696 1.524 . S
C3695 C3709 1.377 . S
C3696 C3695 1.524 . S
C3696 C3697 1.397 . S
C3696 C3701 1.363 . S
C3697 H3674 0.950 . S
C3697 C3696 1.397 . S
C3697 C3698 1.334 . S
C3698 H3675 0.950 . S
C3698 C3697 1.334 . S
C3698 C3699 1.287 . S
C3699 C3698 1.287 . S
C3699 C3700 1.524 . S
C3699 H3718 0.913 . S
C3700 H3676 0.950 . S
C3700 C3699 1.524 . S
C3700 C3701 1.415 . S
C3701 H3677 0.950 . S
C3701 C3696 1.363 . S
C3701 C3700 1.415 . S
C3702 H3678 0.951 . S
C3702 C3703 1.366 . S
C3702 C3704 1.388 . S
C3703 C3702 1.366 . S
C3703 C3707 1.385 . S
C3704 H3679 0.951 . S
C3704 C3702 1.388 . S
C3704 C3705 1.366 . S
C3705 C3704 1.366 . S
C3705 C3706 1.414 . S
C3705 C3708 1.499 . S
C3706 H3680 0.950 . S
C3706 C3705 1.414 . S
C3706 C3707 1.374 . S
C3707 H3681 0.950 . S
C3707 C3703 1.385 . S
C3707 C3706 1.374 . S
C3708 C3705 1.499 . S
C3708 C3709 1.373 . S
C3708 C3710 1.389 . S
C3709 H3682 0.950 . S
C3709 C3695 1.377 . S
C3709 C3708 1.373 . S
C3710 C3694 1.377 . S
C3710 C3708 1.389 . S
C3710 C3711 1.524 . S
C3711 C3710 1.524 . S
C3711 C3712 1.397 . S
C3711 C3716 1.363 . S
C3712 H3683 0.950 . S
C3712 C3711 1.397 . S
C3712 C3713 1.334 . S
C3713 H3684 0.950 . S
C3713 C3712 1.334 . S
C3713 C3714 1.287 . S
C3714 C3713 1.287 . S
C3714 C3715 1.524 . S
C3714 H3717 0.999 . S
C3715 H3685 0.950 . S
C3715 C3714 1.524 . S
C3715 C3716 1.415 . S
C3716 H3686 0.950 . S
C3716 C3711 1.363 . S
C3716 C3715 1.415 . S
H3717 C3714 0.999 . S
H3718 C3699 0.913 . S
H3719 C3737 0.951 . S
H3720 C3739 0.951 . S
H3721 C3741 0.950 . S
H3722 C3742 0.950 . S
H3723 C3744 0.950 . S
H3724 C3747 0.950 . S
H3725 C3748 0.950 . S
H3726 C3750 0.950 . S
H3727 C3751 0.950 . S
H3728 C3752 0.951 . S
H3729 C3754 0.951 . S
H3730 C3756 0.950 . S
H3731 C3757 0.950 . S
H3732 C3759 0.950 . S
H3733 C3762 0.950 . S
H3734 C3763 0.950 . S
H3735 C3765 0.950 . S
H3736 C3766 0.950 . S
C3737 H3719 0.951 . S
C3737 C3738 1.366 . S
C3737 C3739 1.388 . S
C3738 C3737 1.366 . S
C3738 C3742 1.385 . S
C3739 H3720 0.951 . S
C3739 C3737 1.388 . S
C3739 C3740 1.366 . S
C3740 C3739 1.366 . S
C3740 C3741 1.414 . S
C3740 C3743 1.499 . S
C3741 H3721 0.950 . S
C3741 C3740 1.414 . S
C3741 C3742 1.374 . S
C3742 H3722 0.950 . S
C3742 C3738 1.385 . S
C3742 C3741 1.374 . S
C3743 C3740 1.499 . S
C3743 C3744 1.373 . S
C3743 C3745 1.389 . S
C3744 H3723 0.950 . S
C3744 C3743 1.373 . S
C3744 C3760 1.377 . S
C3745 C3743 1.389 . S
C3745 C3746 1.524 . S
C3745 C3759 1.377 . S
C3746 C3745 1.524 . S
C3746 C3747 1.397 . S
C3746 C3751 1.363 . S
C3747 H3724 0.950 . S
C3747 C3746 1.397 . S
C3747 C3748 1.334 . S
C3748 H3725 0.950 . S
C3748 C3747 1.334 . S
C3748 C3749 1.287 . S
C3749 C3748 1.287 . S
C3749 C3750 1.524 . S
C3749 H3768 0.913 . S
C3750 H3726 0.950 . S
C3750 C3749 1.524 . S
C3750 C3751 1.415 . S
C3751 H3727 0.950 . S
C3751 C3746 1.363 . S
C3751 C3750 1.415 . S
C3752 H3728 0.951 . S
C3752 C3753 1.366 . S
C3752 C3754 1.388 . S
C3753 C3752 1.366 . S
C3753 C3757 1.385 . S
C3754 H3729 0.951 . S
C3754 C3752 1.388 . S
C3754 C3755 1.366 . S
C3755 C3754 1.366 . S
C3755 C3756 1.414 . S
C3755 C3758 1.499 . S
C3756 H3730 0.950 . S
C3756 C3755 1.414 . S
C3756 C3757 1.374 . S
C3757 H3731 0.950 . S
C3757 C3753 1.385 . S
C3757 C3756 1.374 . S
C3758 C3755 1.499 . S
C3758 C3759 1.373 . S
C3758 C3760 1.389 . S
C3759 H3732 0.950 . S
C3759 C3745 1.377 . S
C3759 C3758 1.373 . S
C3760 C3744 1.377 . S
C3760 C3758 1.389 . S
C3760 C3761 1.524 . S
C3761 C3760 1.524 . S
C3761 C3762 1.397 . S
C3761 C3766 1.363 . S
C3762 H3733 0.950 . S
C3762 C3761 1.397 . S
C3762 C3763 1.334 . S
C3763 H3734 0.950 . S
C3763 C3762 1.334 . S
C3763 C3764 1.287 . S
C3764 C3763 1.287 . S
C3764 C3765 1.524 . S
C3764 H3767 0.999 . S
C3765 H3735 0.950 . S
C3765 C3764 1.524 . S
C3765 C3766 1.415 . S
C3766 H3736 0.950 . S
C3766 C3761 1.363 . S
C3766 C3765 1.415 . S
H3767 C3764 0.999 . S
H3768 C3749 0.913 . S
H3769 C3787 0.951 . S
H3770 C3789 0.951 . S
H3771 C3791 0.950 . S
H3772 C3792 0.950 . S
H3773 C3794 0.950 . S
H3774 C3797 0.950 . S
H3775 C3798 0.950 . S
H3776 C3800 0.950 . S
H3777 C3801 0.950 . S
H3778 C3802 0.951 . S
H3779 C3804 0.951 . S
H3780 C3806 0.950 . S
H3781 C3807 0.950 . S
H3782 C3809 0.950 . S
H3783 C3812 0.950 . S
H3784 C3813 0.950 . S
H3785 C3815 0.950 . S
H3786 C3816 0.950 . S
C3787 H3769 0.951 . S
C3787 C3788 1.366 . S
C3787 C3789 1.388 . S
C3788 C3787 1.366 . S
C3788 C3792 1.385 . S
C3789 H3770 0.951 . S
C3789 C3787 1.388 . S
C3789 C3790 1.366 . S
C3790 C3789 1.366 . S
C3790 C3791 1.414 . S
C3790 C3793 1.499 . S
C3791 H3771 0.950 . S
C3791 C3790 1.414 . S
C3791 C3792 1.374 . S
C3792 H3772 0.950 . S
C3792 C3788 1.385 . S
C3792 C3791 1.374 . S
C3793 C3790 1.499 . S
C3793 C3794 1.373 . S
C3793 C3795 1.389 . S
C3794 H3773 0.950 . S
C3794 C3793 1.373 . S
C3794 C3810 1.377 . S
C3795 C3793 1.389 . S
C3795 C3796 1.524 . S
C3795 C3809 1.377 . S
C3796 C3795 1.524 . S
C3796 C3797 1.397 . S
C3796 C3801 1.363 . S
C3797 H3774 0.950 . S
C3797 C3796 1.397 . S
C3797 C3798 1.334 . S
C3798 H3775 0.950 . S
C3798 C3797 1.334 . S
C3798 C3799 1.287 . S
C3799 C3798 1.287 . S
C3799 C3800 1.524 . S
C3799 H3818 0.913 . S
C3800 H3776 0.950 . S
C3800 C3799 1.524 . S
C3800 C3801 1.415 . S
C3801 H3777 0.950 . S
C3801 C3796 1.363 . S
C3801 C3800 1.415 . S
C3802 H3778 0.951 . S
C3802 C3803 1.366 . S
C3802 C3804 1.388 . S
C3803 C3802 1.366 . S
C3803 C3807 1.385 . S
C3804 H3779 0.951 . S
C3804 C3802 1.388 . S
C3804 C3805 1.366 . S
C3805 C3804 1.366 . S
C3805 C3806 1.414 . S
C3805 C3808 1.499 . S
C3806 H3780 0.950 . S
C3806 C3805 1.414 . S
C3806 C3807 1.374 . S
C3807 H3781 0.950 . S
C3807 C3803 1.385 . S
C3807 C3806 1.374 . S
C3808 C3805 1.499 . S
C3808 C3809 1.373 . S
C3808 C3810 1.389 . S
C3809 H3782 0.950 . S
C3809 C3795 1.377 . S
C3809 C3808 1.373 . S
C3810 C3794 1.377 . S
C3810 C3808 1.389 . S
C3810 C3811 1.524 . S
C3811 C3810 1.524 . S
C3811 C3812 1.397 . S
C3811 C3816 1.363 . S
C3812 H3783 0.950 . S
C3812 C3811 1.397 . S
C3812 C3813 1.334 . S
C3813 H3784 0.950 . S
C3813 C3812 1.334 . S
C3813 C3814 1.287 . S
C3814 C3813 1.287 . S
C3814 C3815 1.524 . S
C3814 H3817 0.999 . S
C3815 H3785 0.950 . S
C3815 C3814 1.524 . S
C3815 C3816 1.415 . S
C3816 H3786 0.950 . S
C3816 C3811 1.363 . S
C3816 C3815 1.415 . S
H3817 C3814 0.999 . S
H3818 C3799 0.913 . S
H3819 C3837 0.951 . S
H3820 C3839 0.951 . S
H3821 C3841 0.950 . S
H3822 C3842 0.950 . S
H3823 C3844 0.950 . S
H3824 C3847 0.950 . S
H3825 C3848 0.950 . S
H3826 C3850 0.950 . S
H3827 C3851 0.950 . S
H3828 C3852 0.951 . S
H3829 C3854 0.951 . S
H3830 C3856 0.950 . S
H3831 C3857 0.950 . S
H3832 C3859 0.950 . S
H3833 C3862 0.950 . S
H3834 C3863 0.950 . S
H3835 C3865 0.950 . S
H3836 C3866 0.950 . S
C3837 H3819 0.951 . S
C3837 C3838 1.366 . S
C3837 C3839 1.388 . S
C3838 C3837 1.366 . S
C3838 C3842 1.385 . S
C3839 H3820 0.951 . S
C3839 C3837 1.388 . S
C3839 C3840 1.366 . S
C3840 C3839 1.366 . S
C3840 C3841 1.414 . S
C3840 C3843 1.499 . S
C3841 H3821 0.950 . S
C3841 C3840 1.414 . S
C3841 C3842 1.374 . S
C3842 H3822 0.950 . S
C3842 C3838 1.385 . S
C3842 C3841 1.374 . S
C3843 C3840 1.499 . S
C3843 C3844 1.373 . S
C3843 C3845 1.389 . S
C3844 H3823 0.950 . S
C3844 C3843 1.373 . S
C3844 C3860 1.377 . S
C3845 C3843 1.389 . S
C3845 C3846 1.524 . S
C3845 C3859 1.377 . S
C3846 C3845 1.524 . S
C3846 C3847 1.397 . S
C3846 C3851 1.363 . S
C3847 H3824 0.950 . S
C3847 C3846 1.397 . S
C3847 C3848 1.334 . S
C3848 H3825 0.950 . S
C3848 C3847 1.334 . S
C3848 C3849 1.287 . S
C3849 C3848 1.287 . S
C3849 C3850 1.524 . S
C3849 H3868 0.913 . S
C3850 H3826 0.950 . S
C3850 C3849 1.524 . S
C3850 C3851 1.415 . S
C3851 H3827 0.950 . S
C3851 C3846 1.363 . S
C3851 C3850 1.415 . S
C3852 H3828 0.951 . S
C3852 C3853 1.366 . S
C3852 C3854 1.388 . S
C3853 C3852 1.366 . S
C3853 C3857 1.385 . S
C3854 H3829 0.951 . S
C3854 C3852 1.388 . S
C3854 C3855 1.366 . S
C3855 C3854 1.366 . S
C3855 C3856 1.414 . S
C3855 C3858 1.499 . S
C3856 H3830 0.950 . S
C3856 C3855 1.414 . S
C3856 C3857 1.374 . S
C3857 H3831 0.950 . S
C3857 C3853 1.385 . S
C3857 C3856 1.374 . S
C3858 C3855 1.499 . S
C3858 C3859 1.373 . S
C3858 C3860 1.389 . S
C3859 H3832 0.950 . S
C3859 C3845 1.377 . S
C3859 C3858 1.373 . S
C3860 C3844 1.377 . S
C3860 C3858 1.389 . S
C3860 C3861 1.524 . S
C3861 C3860 1.524 . S
C3861 C3862 1.397 . S
C3861 C3866 1.363 . S
C3862 H3833 0.950 . S
C3862 C3861 1.397 . S
C3862 C3863 1.334 . S
C3863 H3834 0.950 . S
C3863 C3862 1.334 . S
C3863 C3864 1.287 . S
C3864 C3863 1.287 . S
C3864 C3865 1.524 . S
C3864 H3867 0.999 . S
C3865 H3835 0.950 . S
C3865 C3864 1.524 . S
C3865 C3866 1.415 . S
C3866 H3836 0.950 . S
C3866 C3861 1.363 . S
C3866 C3865 1.415 . S
H3867 C3864 0.999 . S
H3868 C3849 0.913 . S
H3869 C3887 0.951 . S
H3870 C3889 0.951 . S
H3871 C3891 0.950 . S
H3872 C3892 0.950 . S
H3873 C3894 0.950 . S
H3874 C3897 0.950 . S
H3875 C3898 0.950 . S
H3876 C3900 0.950 . S
H3877 C3901 0.950 . S
H3878 C3902 0.951 . S
H3879 C3904 0.951 . S
H3880 C3906 0.950 . S
H3881 C3907 0.950 . S
H3882 C3909 0.950 . S
H3883 C3912 0.950 . S
H3884 C3913 0.950 . S
H3885 C3915 0.950 . S
H3886 C3916 0.950 . S
C3887 H3869 0.951 . S
C3887 C3888 1.366 . S
C3887 C3889 1.388 . S
C3888 C3887 1.366 . S
C3888 C3892 1.385 . S
C3889 H3870 0.951 . S
C3889 C3887 1.388 . S
C3889 C3890 1.366 . S
C3890 C3889 1.366 . S
C3890 C3891 1.414 . S
C3890 C3893 1.499 . S
C3891 H3871 0.950 . S
C3891 C3890 1.414 . S
C3891 C3892 1.374 . S
C3892 H3872 0.950 . S
C3892 C3888 1.385 . S
C3892 C3891 1.374 . S
C3893 C3890 1.499 . S
C3893 C3894 1.373 . S
C3893 C3895 1.389 . S
C3894 H3873 0.950 . S
C3894 C3893 1.373 . S
C3894 C3910 1.377 . S
C3895 C3893 1.389 . S
C3895 C3896 1.524 . S
C3895 C3909 1.377 . S
C3896 C3895 1.524 . S
C3896 C3897 1.397 . S
C3896 C3901 1.363 . S
C3897 H3874 0.950 . S
C3897 C3896 1.397 . S
C3897 C3898 1.334 . S
C3898 H3875 0.950 . S
C3898 C3897 1.334 . S
C3898 C3899 1.287 . S
C3899 C3898 1.287 . S
C3899 C3900 1.524 . S
C3899 H3918 0.913 . S
C3900 H3876 0.950 . S
C3900 C3899 1.524 . S
C3900 C3901 1.415 . S
C3901 H3877 0.950 . S
C3901 C3896 1.363 . S
C3901 C3900 1.415 . S
C3902 H3878 0.951 . S
C3902 C3903 1.366 . S
C3902 C3904 1.388 . S
C3903 C3902 1.366 . S
C3903 C3907 1.385 . S
C3904 H3879 0.951 . S
C3904 C3902 1.388 . S
C3904 C3905 1.366 . S
C3905 C3904 1.366 . S
C3905 C3906 1.414 . S
C3905 C3908 1.499 . S
C3906 H3880 0.950 . S
C3906 C3905 1.414 . S
C3906 C3907 1.374 . S
C3907 H3881 0.950 . S
C3907 C3903 1.385 . S
C3907 C3906 1.374 . S
C3908 C3905 1.499 . S
C3908 C3909 1.373 . S
C3908 C3910 1.389 . S
C3909 H3882 0.950 . S
C3909 C3895 1.377 . S
C3909 C3908 1.373 . S
C3910 C3894 1.377 . S
C3910 C3908 1.389 . S
C3910 C3911 1.524 . S
C3911 C3910 1.524 . S
C3911 C3912 1.397 . S
C3911 C3916 1.363 . S
C3912 H3883 0.950 . S
C3912 C3911 1.397 . S
C3912 C3913 1.334 . S
C3913 H3884 0.950 . S
C3913 C3912 1.334 . S
C3913 C3914 1.287 . S
C3914 C3913 1.287 . S
C3914 C3915 1.524 . S
C3914 H3917 0.999 . S
C3915 H3885 0.950 . S
C3915 C3914 1.524 . S
C3915 C3916 1.415 . S
C3916 H3886 0.950 . S
C3916 C3911 1.363 . S
C3916 C3915 1.415 . S
H3917 C3914 0.999 . S
H3918 C3899 0.913 . S
H3919 C3937 0.951 . S
H3920 C3939 0.951 . S
H3921 C3941 0.950 . S
H3922 C3942 0.950 . S
H3923 C3944 0.950 . S
H3924 C3947 0.950 . S
H3925 C3948 0.950 . S
H3926 C3950 0.950 . S
H3927 C3951 0.950 . S
H3928 C3952 0.951 . S
H3929 C3954 0.951 . S
H3930 C3956 0.950 . S
H3931 C3957 0.950 . S
H3932 C3959 0.950 . S
H3933 C3962 0.950 . S
H3934 C3963 0.950 . S
H3935 C3965 0.950 . S
H3936 C3966 0.950 . S
C3937 H3919 0.951 . S
C3937 C3938 1.366 . S
C3937 C3939 1.388 . S
C3938 C3937 1.366 . S
C3938 C3942 1.385 . S
C3939 H3920 0.951 . S
C3939 C3937 1.388 . S
C3939 C3940 1.366 . S
C3940 C3939 1.366 . S
C3940 C3941 1.414 . S
C3940 C3943 1.499 . S
C3941 H3921 0.950 . S
C3941 C3940 1.414 . S
C3941 C3942 1.374 . S
C3942 H3922 0.950 . S
C3942 C3938 1.385 . S
C3942 C3941 1.374 . S
C3943 C3940 1.499 . S
C3943 C3944 1.373 . S
C3943 C3945 1.389 . S
C3944 H3923 0.950 . S
C3944 C3943 1.373 . S
C3944 C3960 1.377 . S
C3945 C3943 1.389 . S
C3945 C3946 1.524 . S
C3945 C3959 1.377 . S
C3946 C3945 1.524 . S
C3946 C3947 1.397 . S
C3946 C3951 1.363 . S
C3947 H3924 0.950 . S
C3947 C3946 1.397 . S
C3947 C3948 1.334 . S
C3948 H3925 0.950 . S
C3948 C3947 1.334 . S
C3948 C3949 1.287 . S
C3949 C3948 1.287 . S
C3949 C3950 1.524 . S
C3949 H3968 0.913 . S
C3950 H3926 0.950 . S
C3950 C3949 1.524 . S
C3950 C3951 1.415 . S
C3951 H3927 0.950 . S
C3951 C3946 1.363 . S
C3951 C3950 1.415 . S
C3952 H3928 0.951 . S
C3952 C3953 1.366 . S
C3952 C3954 1.388 . S
C3953 C3952 1.366 . S
C3953 C3957 1.385 . S
C3954 H3929 0.951 . S
C3954 C3952 1.388 . S
C3954 C3955 1.366 . S
C3955 C3954 1.366 . S
C3955 C3956 1.414 . S
C3955 C3958 1.499 . S
C3956 H3930 0.950 . S
C3956 C3955 1.414 . S
C3956 C3957 1.374 . S
C3957 H3931 0.950 . S
C3957 C3953 1.385 . S
C3957 C3956 1.374 . S
C3958 C3955 1.499 . S
C3958 C3959 1.373 . S
C3958 C3960 1.389 . S
C3959 H3932 0.950 . S
C3959 C3945 1.377 . S
C3959 C3958 1.373 . S
C3960 C3944 1.377 . S
C3960 C3958 1.389 . S
C3960 C3961 1.524 . S
C3961 C3960 1.524 . S
C3961 C3962 1.397 . S
C3961 C3966 1.363 . S
C3962 H3933 0.950 . S
C3962 C3961 1.397 . S
C3962 C3963 1.334 . S
C3963 H3934 0.950 . S
C3963 C3962 1.334 . S
C3963 C3964 1.287 . S
C3964 C3963 1.287 . S
C3964 C3965 1.524 . S
C3964 H3967 0.999 . S
C3965 H3935 0.950 . S
C3965 C3964 1.524 . S
C3965 C3966 1.415 . S
C3966 H3936 0.950 . S
C3966 C3961 1.363 . S
C3966 C3965 1.415 . S
H3967 C3964 0.999 . S
H3968 C3949 0.913 . S
C1288 C781 1.349 . S
C1303 C1094 1.309 . S
C1338 C871 1.353 . S
C1353 C1115 1.306 . S
C1388 C751 1.286 . S
C1403 C1135 1.119 . S
C1438 C691 1.312 . S
C1453 C1114 1.135 1_556 S
C1503 C1136 1.334 . S
C1488 C571 1.382 . S
C1538 C601 1.313 . S
C1553 C1093 1.139 1_556 S
C1603 C1095 1.252 . S
C1588 C661 1.271 . S
C1653 C1116 1.243 . S
C1638 C541 1.252 . S
C1688 C631 1.383 . S
C1703 C1138 1.159 1_556 S
C1738 C811 1.324 . S
C1753 C1117 1.121 . S
C1788 C841 1.217 . S
C1803 C1137 1.204 . S
C1853 C1096 1.138 . S
C1838 C721 1.276 . S
C1903 C1157 1.309 . S
C1888 C61 1.349 . S
C1938 C151 1.353 . S
C1953 C1178 1.306 . S
C1988 C31 1.285 . S
C2003 C1198 1.116 . S
C2038 C1051 1.312 . S
C2053 C1177 1.135 . S
C2088 C931 1.381 . S
C2103 C1199 1.333 . S
C2138 C961 1.312 . S
C2153 C1156 1.137 . S
C2188 C1021 1.270 . S
C2203 C1158 1.254 . S
C2238 C901 1.252 . S
C2253 C1179 1.243 . S
C2303 C1201 1.158 . S
C2288 C991 1.383 . S
C2338 C91 1.324 . S
C2353 C1180 1.122 . S
C2403 C1200 1.204 . S
C2388 C121 1.217 . S
C2438 C1 1.276 . S
C2453 C1159 1.137 . S
C2503 C1220 1.309 . S
C2488 C421 1.349 . S
C2538 C511 1.353 . S
C2553 C1241 1.307 . S
C2603 C1261 1.117 . S
C2588 C391 1.286 . S
C2653 C1240 1.136 . S
C2638 C331 1.312 . S
C2703 C1262 1.333 . S
C2688 C211 1.382 . S
C2738 C241 1.312 . S
C2753 C1219 1.138 . S
C2788 C301 1.271 . S
C2803 C1221 1.253 . S
C2838 C181 1.252 . S
C2853 C1242 1.242 . S
C2903 C1264 1.161 . S
C2888 C271 1.383 . S
C2938 C451 1.324 . S
C2953 C1243 1.121 . S
C2988 C481 1.218 . S
C3003 C1263 1.204 . S
C3038 C361 1.275 . S
C3053 C1222 1.137 . S
C3088 C920 1.343 . S
C3103 C1098 1.340 . S
C3153 C1119 1.381 . S
C3138 C980 1.406 . S
C3188 C1040 1.441 . S
C3203 C1139 1.456 . S
C3238 C380 1.490 . S
C3253 C1118 1.501 1_655 S
C3288 C440 1.418 . S
C3303 C1140 1.390 . S
C3353 C1097 1.462 . S
C3338 C500 1.451 . S
C3388 C200 1.342 . S
C3403 C1161 1.340 . S
C3438 C260 1.405 . S
C3453 C1182 1.380 . S
C3488 C320 1.441 . S
C3503 C1202 1.455 . S
C3538 C740 1.491 . S
C3553 C1181 1.501 . S
C3603 C1203 1.390 . S
C3588 C800 1.418 . S
C3638 C860 1.450 . S
C3653 C1160 1.462 . S
C3688 C560 1.343 . S
C3703 C1224 1.340 . S
C3738 C620 1.406 . S
C3753 C1245 1.380 . S
C3803 C1265 1.455 . S
C3788 C680 1.441 . S
C3838 C20 1.490 . S
C3853 C1244 1.501 . S
C3888 C80 1.418 . S
C3903 C1266 1.390 . S
C3938 C140 1.451 . S
C3953 C1223 1.462 . S
