# Generated by pormake.
# Topology anh, (6,3)-cn, num edge types: 1
# Building blocks:
#     Node 0, Type 0, BuildingBlock: MIFKUJ_clean_sbu_0, # of connection points: 6
#     Node 1, Type 0, BuildingBlock: MIFKUJ_clean_sbu_0, # of connection points: 6
#     Node 2, Type 0, BuildingBlock: MIFKUJ_clean_sbu_0, # of connection points: 6
#     Node 3, Type 1, BuildingBlock: ESEHIV_clean_linker_0, # of connection points: 3
#     Node 4, Type 1, BuildingBlock: ESEHIV_clean_linker_0, # of connection points: 3
#     Node 5, Type 1, BuildingBlock: ESEHIV_clean_linker_0, # of connection points: 3
#     Node 6, Type 1, BuildingBlock: ESEHIV_clean_linker_0, # of connection points: 3
#     Node 7, Type 1, BuildingBlock: ESEHIV_clean_linker_0, # of connection points: 3
#     Node 8, Type 1, BuildingBlock: ESEHIV_clean_linker_0, # of connection points: 3
#     Edge 9, Type (0, 1), BuildingBlock: MIFKUJ_clean_linker_0, # of connection points: 2
#     Edge 10, Type (0, 1), BuildingBlock: MIFKUJ_clean_linker_0, # of connection points: 2
#     Edge 11, Type (0, 1), BuildingBlock: MIFKUJ_clean_linker_0, # of connection points: 2
#     Edge 12, Type (0, 1), BuildingBlock: MIFKUJ_clean_linker_0, # of connection points: 2
#     Edge 13, Type (0, 1), BuildingBlock: MIFKUJ_clean_linker_0, # of connection points: 2
#     Edge 14, Type (0, 1), BuildingBlock: MIFKUJ_clean_linker_0, # of connection points: 2
#     Edge 15, Type (0, 1), BuildingBlock: MIFKUJ_clean_linker_0, # of connection points: 2
#     Edge 16, Type (0, 1), BuildingBlock: MIFKUJ_clean_linker_0, # of connection points: 2
#     Edge 17, Type (0, 1), BuildingBlock: MIFKUJ_clean_linker_0, # of connection points: 2
#     Edge 18, Type (0, 1), BuildingBlock: MIFKUJ_clean_linker_0, # of connection points: 2
#     Edge 19, Type (0, 1), BuildingBlock: MIFKUJ_clean_linker_0, # of connection points: 2
#     Edge 20, Type (0, 1), BuildingBlock: MIFKUJ_clean_linker_0, # of connection points: 2
#     Edge 21, Type (0, 1), BuildingBlock: MIFKUJ_clean_linker_0, # of connection points: 2
#     Edge 22, Type (0, 1), BuildingBlock: MIFKUJ_clean_linker_0, # of connection points: 2
#     Edge 23, Type (0, 1), BuildingBlock: MIFKUJ_clean_linker_0, # of connection points: 2
#     Edge 24, Type (0, 1), BuildingBlock: MIFKUJ_clean_linker_0, # of connection points: 2
#     Edge 25, Type (0, 1), BuildingBlock: MIFKUJ_clean_linker_0, # of connection points: 2
#     Edge 26, Type (0, 1), BuildingBlock: MIFKUJ_clean_linker_0, # of connection points: 2
# Relax obj value: 0.135
# Max RMSD: 0.184
# Mean RMSD: 0.144
data_MOF--net-anh--node1-MIFKUJ_clean_sbu_0--node2-ESEHIV_clean_linker_0--edge1-MIFKUJ_clean_linker_0
_symmetry_space_group_name_H-M    P1
_symmetry_Int_Tables_number       1
_symmetry_cell_setting            triclinic
loop_
_symmetry_equiv_pos_as_xyz
'x, y, z'
_cell_length_a     37.645066
_cell_length_b     37.589287
_cell_length_c     64.790976
_cell_angle_alpha  93.678497
_cell_angle_beta   90.807723
_cell_angle_gamma 120.08859
loop_
_atom_site_label
_atom_site_type_symbol
_atom_site_fract_x
_atom_site_fract_y
_atom_site_fract_z
_atom_type_partial_charge
Zn0 Zn 0.02453 0.57038 0.16936 0.0
Zn1 Zn 0.92325 0.47827 0.16802 0.0
C2 C 0.09229 0.55947 0.17149 0.0
O3 O 0.09683 0.58311 0.18833 0.0
C4 C 0.86228 0.49539 0.15175 0.0
O5 O 0.86474 0.47451 0.13532 0.0
O6 O 0.06196 0.6314 0.16901 0.0
O7 O 0.97659 0.55497 0.14971 0.0
O8 O 0.95573 0.48993 0.14238 0.0
C9 C 0.07825 0.64285 0.15182 0.0
O10 O 0.06742 0.61509 0.13604 0.0
O11 O 0.06034 0.54684 0.15956 0.0
C12 C 0.89251 0.39064 0.17148 0.0
O13 O 0.92902 0.40249 0.18 0.0
O14 O 0.88438 0.41747 0.16562 0.0
O15 O 0.9532 0.49394 0.19627 0.0
O16 O 0.01096 0.55501 0.19851 0.0
O17 O 0.88607 0.50286 0.16758 0.0
C18 C 0.97076 0.52598 0.13657 0.0
C19 C 0.98404 0.52328 0.20676 0.0
Zn20 Zn 0.54044 0.07109 0.49522 0.0
Zn21 Zn 0.5366 0.98169 0.49952 0.0
C22 C 0.61994 0.1391 0.50776 0.0
O23 O 0.59631 0.14676 0.51977 0.0
C24 C 0.45801 0.91372 0.48698 0.0
O25 O 0.48117 0.91142 0.47258 0.0
O26 O 0.52387 0.11298 0.49103 0.0
O27 O 0.51813 0.03365 0.46895 0.0
O28 O 0.55082 0.99892 0.47079 0.0
C29 C 0.53819 0.13338 0.47532 0.0
O30 O 0.56043 0.12434 0.46297 0.0
O31 O 0.60345 0.10551 0.49612 0.0
C32 C 0.54582 0.92201 0.51884 0.0
O33 O 0.52038 0.92566 0.5313 0.0
O34 O 0.55829 0.94413 0.50363 0.0
O35 O 0.56182 0.02375 0.52394 0.0
O36 O 0.52021 0.04859 0.52292 0.0
O37 O 0.47434 0.94404 0.50076 0.0
C38 C 0.53282 0.01305 0.46019 0.0
C39 C 0.54084 0.03695 0.5333 0.0
Zn40 Zn 0.57583 0.51892 0.83198 0.0
Zn41 Zn 0.48631 0.5179 0.82754 0.0
C42 C 0.56813 0.44206 0.84215 0.0
O43 O 0.59523 0.46775 0.85667 0.0
C44 C 0.50087 0.59409 0.8141 0.0
O45 O 0.47779 0.5673 0.79875 0.0
O46 O 0.63678 0.54311 0.83414 0.0
O47 O 0.56569 0.53846 0.8055 0.0
O48 O 0.49869 0.49713 0.80088 0.0
C49 C 0.65346 0.5313 0.82053 0.0
O50 O 0.63036 0.50453 0.80519 0.0
O51 O 0.55271 0.45614 0.82959 0.0
C52 C 0.41034 0.50171 0.84257 0.0
O53 O 0.43244 0.51153 0.86006 0.0
O54 O 0.42631 0.49981 0.8257 0.0
O55 O 0.49502 0.49666 0.85388 0.0
O56 O 0.56186 0.53748 0.85893 0.0
O57 O 0.51225 0.58105 0.82912 0.0
C58 C 0.53368 0.5182 0.79353 0.0
C59 C 0.52667 0.51658 0.86607 0.0
H60 H 0.45309 0.92736 0.23479 0.0
H61 H 0.57854 0.02518 0.23739 0.0
H62 H 0.50885 0.98185 0.1789 0.0
C63 C 0.47956 0.94902 0.22685 0.0
C64 C 0.47627 0.95151 0.20541 0.0
C65 C 0.5163 0.9756 0.23835 0.0
C66 C 0.55054 0.00391 0.22828 0.0
C67 C 0.54844 0.00591 0.20675 0.0
C68 C 0.5111 0.97961 0.19541 0.0
H69 H 0.60717 0.60853 0.57715 0.0
H70 H 0.57997 0.4828 0.56938 0.0
H71 H 0.59882 0.55205 0.51616 0.0
C72 C 0.60357 0.58239 0.56726 0.0
C73 C 0.60557 0.58485 0.54578 0.0
C74 C 0.5936 0.54545 0.57588 0.0
C75 C 0.58694 0.51124 0.56278 0.0
C76 C 0.58909 0.51342 0.54123 0.0
C77 C 0.5984 0.55039 0.53281 0.0
H78 H 0.01844 0.60379 0.92301 0.0
H79 H 0.1279 0.5951 0.92387 0.0
H80 H 0.07369 0.59954 0.86592 0.0
C81 C 0.04322 0.60345 0.91485 0.0
C82 C 0.04256 0.60253 0.89312 0.0
C83 C 0.07405 0.60105 0.92606 0.0
C84 C 0.10463 0.59799 0.91533 0.0
C85 C 0.10449 0.59712 0.89361 0.0
C86 C 0.07365 0.59986 0.88266 0.0
H87 H 0.97881 0.44952 0.42925 0.0
H88 H 0.08332 0.57138 0.42928 0.0
H89 H 0.04241 0.51662 0.48698 0.0
C90 C 0.00343 0.47696 0.43764 0.0
C91 C 0.00715 0.47881 0.45937 0.0
C92 C 0.03056 0.51018 0.42664 0.0
C93 C 0.06225 0.54558 0.43767 0.0
C94 C 0.06714 0.5484 0.45938 0.0
C95 C 0.03927 0.51476 0.47024 0.0
H96 H 0.5256 0.07189 0.75974 0.0
H97 H 0.52459 0.95736 0.75379 0.0
H98 H 0.51907 0.0094 0.81427 0.0
C99 C 0.52404 0.04582 0.76685 0.0
C100 C 0.52197 0.0445 0.78843 0.0
C101 C 0.52485 0.01457 0.75431 0.0
C102 C 0.52388 0.98146 0.76357 0.0
C103 C 0.52128 0.97862 0.78516 0.0
C104 C 0.52123 0.01099 0.79767 0.0
H105 H 0.42471 0.52132 0.08365 0.0
H106 H 0.53443 0.51536 0.0931 0.0
H107 H 0.46787 0.52001 0.14562 0.0
C108 C 0.44662 0.52002 0.09415 0.0
C109 C 0.44123 0.52 0.11563 0.0
C110 C 0.4798 0.5179 0.08595 0.0
C111 C 0.50842 0.51655 0.09936 0.0
C112 C 0.50465 0.51792 0.12082 0.0
C113 C 0.4711 0.51978 0.12903 0.0
H114 H 0.10038 0.52148 0.13545 0.0
H115 H 0.15823 0.51129 0.12686 0.0
H116 H 0.21741 0.56842 0.18688 0.0
H117 H 0.15987 0.57797 0.19572 0.0
H118 H 0.26925 0.60033 0.15366 0.0
H119 H 0.17513 0.46914 0.17931 0.0
H120 H 0.10858 0.40471 0.18014 0.0
H121 H 0.11841 0.36986 0.11698 0.0
H122 H 0.18479 0.43441 0.11569 0.0
H123 H 0.435 0.56175 0.15076 0.0
H124 H 0.3745 0.56488 0.16165 0.0
H125 H 0.30347 0.48258 0.10859 0.0
H126 H 0.36264 0.47719 0.09847 0.0
H127 H 0.25682 0.46339 0.13861 0.0
H128 H 0.34726 0.59159 0.11095 0.0
H129 H 0.41175 0.65685 0.10743 0.0
H130 H 0.40687 0.69889 0.16996 0.0
H131 H 0.34262 0.63359 0.17396 0.0
C132 C 0.12546 0.53135 0.1469 0.0
C133 C 0.12544 0.55051 0.16628 0.0
C134 C 0.15852 0.52562 0.14196 0.0
C135 C 0.19213 0.53916 0.15625 0.0
C136 C 0.19189 0.55787 0.17561 0.0
C137 C 0.15881 0.56316 0.18064 0.0
C138 C 0.22806 0.53465 0.15106 0.0
C139 C 0.26666 0.5704 0.15051 0.0
C140 C 0.22448 0.49566 0.14655 0.0
C141 C 0.1847 0.45679 0.14734 0.0
C142 C 0.16292 0.4479 0.16554 0.0
C143 C 0.12527 0.41133 0.16611 0.0
C144 C 0.10922 0.38326 0.1486 0.0
C145 C 0.13085 0.39166 0.13052 0.0
C146 C 0.1685 0.42821 0.12987 0.0
C147 C 0.4063 0.54375 0.14163 0.0
C148 C 0.40404 0.51981 0.12352 0.0
C149 C 0.3718 0.54598 0.14771 0.0
C150 C 0.33449 0.52479 0.13566 0.0
C151 C 0.33182 0.49956 0.11809 0.0
C152 C 0.36598 0.4969 0.11218 0.0
C153 C 0.29834 0.52922 0.14098 0.0
C154 C 0.2596 0.49343 0.14162 0.0
C155 C 0.30163 0.5683 0.14512 0.0
C156 C 0.34042 0.60747 0.14283 0.0
C157 C 0.36014 0.61459 0.12401 0.0
C158 C 0.39661 0.65162 0.12192 0.0
C159 C 0.41347 0.68194 0.13848 0.0
C160 C 0.39383 0.67533 0.15716 0.0
C161 C 0.35739 0.63832 0.15935 0.0
H162 H 0.44169 0.71061 0.13683 0.0
H163 H 0.08007 0.35496 0.14907 0.0
H164 H 0.67859 0.13666 0.48358 0.0
H165 H 0.74857 0.19327 0.47915 0.0
H166 H 0.72983 0.27206 0.52351 0.0
H167 H 0.66033 0.21602 0.52802 0.0
H168 H 0.76117 0.31013 0.48873 0.0
H169 H 0.79198 0.23478 0.53599 0.0
H170 H 0.79064 0.17348 0.5484 0.0
H171 H 0.85142 0.16352 0.49461 0.0
H172 H 0.85262 0.22446 0.48173 0.0
H173 H 0.96256 0.48056 0.49218 0.0
H174 H 0.90135 0.42184 0.50473 0.0
H175 H 0.9178 0.33843 0.46248 0.0
H176 H 0.97935 0.39676 0.45032 0.0
H177 H 0.88853 0.30305 0.49777 0.0
H178 H 0.85194 0.37177 0.44874 0.0
H179 H 0.85382 0.43233 0.43496 0.0
H180 H 0.80431 0.4535 0.49064 0.0
H181 H 0.80196 0.3929 0.50473 0.0
C182 C 0.68956 0.16587 0.49258 0.0
C183 C 0.6637 0.17165 0.50616 0.0
C184 C 0.72963 0.19824 0.49006 0.0
C185 C 0.74463 0.23703 0.50104 0.0
C186 C 0.71906 0.24255 0.51483 0.0
C187 C 0.67925 0.21027 0.51744 0.0
C188 C 0.78619 0.27249 0.4976 0.0
C189 C 0.78902 0.30871 0.49105 0.0
C190 C 0.82261 0.27053 0.50008 0.0
C191 C 0.82202 0.23394 0.5078 0.0
C192 C 0.80475 0.21931 0.52672 0.0
C193 C 0.80408 0.18467 0.53386 0.0
C194 C 0.82084 0.16455 0.52227 0.0
C195 C 0.8384 0.1791 0.50355 0.0
C196 C 0.83912 0.21372 0.49634 0.0
C197 C 0.9538 0.44961 0.48603 0.0
C198 C 0.97556 0.44337 0.47011 0.0
C199 C 0.91854 0.41605 0.49305 0.0
C200 C 0.90432 0.37565 0.48423 0.0
C201 C 0.92784 0.36919 0.46945 0.0
C202 C 0.96298 0.40263 0.46245 0.0
C203 C 0.86341 0.34063 0.48902 0.0
C204 C 0.86065 0.30449 0.49567 0.0
C205 C 0.8269 0.34239 0.48645 0.0
C206 C 0.82709 0.37807 0.47784 0.0
C207 C 0.84147 0.38938 0.45804 0.0
C208 C 0.84252 0.42363 0.45016 0.0
C209 C 0.82909 0.44669 0.46191 0.0
C210 C 0.81443 0.43544 0.48152 0.0
C211 C 0.81315 0.4011 0.48944 0.0
H212 H 0.83006 0.4733 0.45582 0.0
H213 H 0.82029 0.13774 0.52782 0.0
H214 H 0.48883 0.63095 0.78206 0.0
H215 H 0.49791 0.69971 0.78212 0.0
H216 H 0.54177 0.72525 0.84621 0.0
H217 H 0.53207 0.65544 0.84635 0.0
H218 H 0.48934 0.75274 0.84014 0.0
H219 H 0.60799 0.76997 0.80798 0.0
H220 H 0.65016 0.75522 0.78405 0.0
H221 H 0.58773 0.76962 0.73211 0.0
H222 H 0.54452 0.78362 0.7557 0.0
H223 H 0.55993 0.97262 0.82048 0.0
H224 H 0.56071 0.91095 0.83084 0.0
H225 H 0.47677 0.83834 0.77911 0.0
H226 H 0.47432 0.89856 0.76927 0.0
H227 H 0.56065 0.84201 0.7838 0.0
H228 H 0.43609 0.81567 0.81839 0.0
H229 H 0.39796 0.83334 0.84373 0.0
H230 H 0.47958 0.8412 0.89308 0.0
H231 H 0.51857 0.82415 0.86794 0.0
C232 C 0.50074 0.65115 0.7962 0.0
C233 C 0.50996 0.63757 0.81418 0.0
C234 C 0.50612 0.69074 0.79616 0.0
C235 C 0.52112 0.7182 0.81408 0.0
C236 C 0.53036 0.70483 0.83214 0.0
C237 C 0.52508 0.665 0.83217 0.0
C238 C 0.52596 0.76022 0.81371 0.0
C239 C 0.50568 0.77258 0.82805 0.0
C240 C 0.54724 0.78647 0.79799 0.0
C241 C 0.5728 0.77761 0.78365 0.0
C242 C 0.60296 0.76961 0.79145 0.0
C243 C 0.62709 0.76143 0.77795 0.0
C244 C 0.62164 0.76151 0.75659 0.0
C245 C 0.59197 0.76968 0.74868 0.0
C246 C 0.56762 0.7777 0.76211 0.0
C247 C 0.54088 0.9433 0.81163 0.0
C248 C 0.51771 0.9409 0.79378 0.0
C249 C 0.54154 0.90813 0.8175 0.0
C250 C 0.51915 0.87013 0.80558 0.0
C251 C 0.4946 0.86736 0.78842 0.0
C252 C 0.49345 0.90202 0.78276 0.0
C253 C 0.52306 0.83364 0.80976 0.0
C254 C 0.54499 0.82239 0.79608 0.0
C255 C 0.50392 0.80888 0.82623 0.0
C256 C 0.48061 0.8193 0.84126 0.0
C257 C 0.44623 0.8217 0.83461 0.0
C258 C 0.42437 0.83145 0.84894 0.0
C259 C 0.43645 0.83857 0.87 0.0
C260 C 0.47033 0.8358 0.87676 0.0
C261 C 0.4923 0.82608 0.86248 0.0
H262 H 0.41947 0.84608 0.88107 0.0
H263 H 0.64046 0.75531 0.74617 0.0
H264 H 0.81251 0.4915 0.11957 0.0
H265 H 0.75446 0.50341 0.12105 0.0
H266 H 0.77844 0.53449 0.18693 0.0
H267 H 0.83681 0.52266 0.1856 0.0
H268 H 0.69666 0.47918 0.17666 0.0
H269 H 0.79995 0.60953 0.15645 0.0
H270 H 0.85648 0.65691 0.13579 0.0
H271 H 0.77602 0.60996 0.08098 0.0
H272 H 0.71913 0.56185 0.10125 0.0
H273 H 0.56774 0.58305 0.1434 0.0
H274 H 0.63118 0.58678 0.15658 0.0
H275 H 0.57903 0.45684 0.139 0.0
H276 H 0.51595 0.4533 0.12587 0.0
H277 H 0.68014 0.57265 0.13184 0.0
H278 H 0.62345 0.41686 0.16851 0.0
H279 H 0.56804 0.37131 0.19026 0.0
H280 H 0.55733 0.47409 0.21496 0.0
H281 H 0.61307 0.52038 0.19359 0.0
C282 C 0.80576 0.50128 0.13436 0.0
C283 C 0.82936 0.50615 0.15246 0.0
C284 C 0.77258 0.50817 0.13518 0.0
C285 C 0.76219 0.52002 0.15409 0.0
C286 C 0.78593 0.52538 0.17217 0.0
C287 C 0.81941 0.51883 0.17135 0.0
C288 C 0.72559 0.52526 0.15492 0.0
C289 C 0.6931 0.49981 0.16699 0.0
C290 C 0.72128 0.55279 0.14262 0.0
C291 C 0.75533 0.5819 0.13037 0.0
C292 C 0.79437 0.60911 0.13997 0.0
C293 C 0.82648 0.63613 0.12833 0.0
C294 C 0.81986 0.63641 0.10708 0.0
C295 C 0.7811 0.60972 0.09744 0.0
C296 C 0.74889 0.5826 0.10901 0.0
C297 C 0.56937 0.55506 0.14319 0.0
C298 C 0.5369 0.51775 0.134 0.0
C299 C 0.60569 0.55725 0.1505 0.0
C300 C 0.6099 0.52207 0.14884 0.0
C301 C 0.57637 0.48425 0.14077 0.0
C302 C 0.54027 0.48216 0.13334 0.0
C303 C 0.65055 0.52555 0.15307 0.0
C304 C 0.68382 0.55249 0.14182 0.0
C305 C 0.65563 0.49963 0.16625 0.0
C306 C 0.62229 0.47205 0.17931 0.0
C307 C 0.60944 0.4298 0.17866 0.0
C308 C 0.57793 0.40384 0.19091 0.0
C309 C 0.55911 0.41978 0.20395 0.0
C310 C 0.57183 0.46175 0.2048 0.0
C311 C 0.60334 0.48786 0.19259 0.0
H312 H 0.53472 0.39962 0.21341 0.0
H313 H 0.84476 0.65734 0.09809 0.0
H314 H 0.40588 0.89661 0.51912 0.0
H315 H 0.33789 0.83499 0.52135 0.0
H316 H 0.3453 0.7914 0.45925 0.0
H317 H 0.41296 0.85197 0.45707 0.0
H318 H 0.26484 0.80147 0.50103 0.0
H319 H 0.30562 0.68938 0.45467 0.0
H320 H 0.36652 0.68212 0.44939 0.0
H321 H 0.42185 0.75166 0.50756 0.0
H322 H 0.361 0.75869 0.5134 0.0
H323 H 0.09091 0.62812 0.45284 0.0
H324 H 0.15507 0.69008 0.46457 0.0
H325 H 0.18732 0.61852 0.502 0.0
H326 H 0.12334 0.55561 0.48944 0.0
H327 H 0.24984 0.66455 0.48164 0.0
H328 H 0.16499 0.69361 0.52373 0.0
H329 H 0.10542 0.70067 0.53302 0.0
H330 H 0.13976 0.79543 0.49116 0.0
H331 H 0.19923 0.78855 0.48138 0.0
C332 C 0.39279 0.87404 0.50589 0.0
C333 C 0.41506 0.87913 0.48797 0.0
C334 C 0.35394 0.83878 0.50719 0.0
C335 C 0.33671 0.80798 0.49063 0.0
C336 C 0.35823 0.81407 0.47245 0.0
C337 C 0.39695 0.84897 0.47118 0.0
C338 C 0.29661 0.76912 0.49216 0.0
C339 C 0.26155 0.77151 0.49689 0.0
C340 C 0.29241 0.72974 0.48758 0.0
C341 C 0.32877 0.72478 0.4844 0.0
C342 C 0.33063 0.70286 0.46642 0.0
C343 C 0.36518 0.69883 0.46331 0.0
C344 C 0.39805 0.71646 0.47811 0.0
C345 C 0.3964 0.73807 0.49609 0.0
C346 C 0.36188 0.7421 0.4993 0.0
C347 C 0.11138 0.62556 0.46378 0.0
C348 C 0.10212 0.58677 0.47004 0.0
C349 C 0.14805 0.66124 0.47067 0.0
C350 C 0.17629 0.65939 0.48434 0.0
C351 C 0.16619 0.62094 0.49145 0.0
C352 C 0.12939 0.585 0.48444 0.0
C353 C 0.21754 0.69694 0.48953 0.0
C354 C 0.25299 0.69436 0.48606 0.0
C355 C 0.22218 0.73596 0.49589 0.0
C356 C 0.1865 0.74039 0.50174 0.0
C357 C 0.15971 0.71577 0.5164 0.0
C358 C 0.12597 0.71977 0.52177 0.0
C359 C 0.11878 0.74844 0.51267 0.0
C360 C 0.14537 0.77324 0.4982 0.0
C361 C 0.17915 0.76935 0.49277 0.0
H362 H 0.09263 0.75149 0.51684 0.0
H363 H 0.42475 0.71331 0.47567 0.0
H364 H 0.60288 0.40668 0.86423 0.0
H365 H 0.59195 0.33697 0.85903 0.0
H366 H 0.50226 0.30841 0.80923 0.0
H367 H 0.51312 0.3786 0.8143 0.0
H368 H 0.47783 0.24455 0.83594 0.0
H369 H 0.59701 0.3311 0.79834 0.0
H370 H 0.66579 0.39136 0.79496 0.0
H371 H 0.71647 0.35004 0.8412 0.0
H372 H 0.64781 0.28985 0.84511 0.0
H373 H 0.46876 0.07172 0.78134 0.0
H374 H 0.47406 0.13621 0.79487 0.0
H375 H 0.57643 0.16047 0.83588 0.0
H376 H 0.5719 0.09586 0.82165 0.0
H377 H 0.59552 0.22662 0.81709 0.0
H378 H 0.47971 0.13872 0.85391 0.0
H379 H 0.41148 0.07949 0.85945 0.0
H380 H 0.35511 0.12318 0.81765 0.0
H381 H 0.42308 0.18239 0.81163 0.0
C382 C 0.58058 0.38563 0.85222 0.0
C383 C 0.559 0.39849 0.83962 0.0
C384 C 0.57448 0.34569 0.84924 0.0
C385 C 0.54661 0.31745 0.83359 0.0
C386 C 0.52401 0.32965 0.82138 0.0
C387 C 0.5303 0.36984 0.82427 0.0
C388 C 0.54199 0.27567 0.82968 0.0
C389 C 0.50341 0.24056 0.83158 0.0
C390 C 0.57574 0.27041 0.82479 0.0
C391 C 0.61718 0.30617 0.82216 0.0
C392 C 0.62276 0.335 0.80789 0.0
C393 C 0.66173 0.36914 0.80587 0.0
C394 C 0.69546 0.37459 0.8179 0.0
C395 C 0.69031 0.34581 0.83192 0.0
C396 C 0.65137 0.31167 0.83403 0.0
C397 C 0.49186 0.09033 0.79358 0.0
C398 C 0.5199 0.07863 0.80043 0.0
C399 C 0.49479 0.12728 0.8014 0.0
C400 C 0.52549 0.15348 0.81658 0.0
C401 C 0.55243 0.14093 0.82419 0.0
C402 C 0.54955 0.10376 0.81626 0.0
C403 C 0.53104 0.19507 0.82307 0.0
C404 C 0.56987 0.23033 0.82163 0.0
C405 C 0.49759 0.20046 0.82865 0.0
C406 C 0.45659 0.16486 0.8322 0.0
C407 C 0.45281 0.13554 0.84577 0.0
C408 C 0.41417 0.10199 0.84902 0.0
C409 C 0.37899 0.09753 0.83887 0.0
C410 C 0.38239 0.12666 0.82549 0.0
C411 C 0.42097 0.16026 0.82217 0.0
H412 H 0.3491 0.07153 0.84141 0.0
H413 H 0.7256 0.40106 0.81634 0.0
H414 H 0.60584 0.91421 0.49971 0.0
H415 H 0.62212 0.85942 0.50245 0.0
H416 H 0.52753 0.80332 0.54608 0.0
H417 H 0.51179 0.85865 0.54383 0.0
H418 H 0.5923 0.80006 0.55801 0.0
H419 H 0.51027 0.76606 0.49544 0.0
H420 H 0.48972 0.77774 0.46138 0.0
H421 H 0.60274 0.79595 0.43716 0.0
H422 H 0.62431 0.78505 0.47121 0.0
H423 H 0.5528 0.58788 0.51815 0.0
H424 H 0.55005 0.64919 0.51032 0.0
H425 H 0.66476 0.72617 0.54582 0.0
H426 H 0.66656 0.66452 0.5544 0.0
H427 H 0.59042 0.71927 0.49387 0.0
H428 H 0.65696 0.79782 0.57621 0.0
H429 H 0.66555 0.77802 0.61072 0.0
H430 H 0.56175 0.65661 0.59626 0.0
H431 H 0.55207 0.67595 0.56185 0.0
C432 C 0.5887 0.89035 0.51 0.0
C433 C 0.5574 0.89051 0.52149 0.0
C434 C 0.59793 0.85902 0.51148 0.0
C435 C 0.57558 0.82703 0.52421 0.0
C436 C 0.54511 0.82776 0.53615 0.0
C437 C 0.53613 0.85933 0.53484 0.0
C438 C 0.58341 0.79233 0.52475 0.0
C439 C 0.59209 0.78254 0.54399 0.0
C440 C 0.58205 0.76883 0.50647 0.0
C441 C 0.56911 0.77518 0.48593 0.0
C442 C 0.5309 0.77288 0.4829 0.0
C443 C 0.51903 0.7793 0.46359 0.0
C444 C 0.54494 0.78766 0.44713 0.0
C445 C 0.58273 0.78952 0.44994 0.0
C446 C 0.59479 0.78321 0.46923 0.0
C447 C 0.57798 0.61801 0.52375 0.0
C448 C 0.60965 0.62178 0.53703 0.0
C449 C 0.57643 0.65298 0.51927 0.0
C450 C 0.60671 0.69208 0.5279 0.0
C451 C 0.64063 0.69614 0.5394 0.0
C452 C 0.64176 0.66109 0.54423 0.0
C453 C 0.5999 0.72743 0.5271 0.0
C454 C 0.59122 0.73722 0.50785 0.0
C455 C 0.59936 0.74974 0.54545 0.0
C456 C 0.60414 0.73822 0.56637 0.0
C457 C 0.63585 0.76699 0.58045 0.0
C458 C 0.6409 0.75584 0.59999 0.0
C459 C 0.61431 0.71604 0.60565 0.0
C460 C 0.5824 0.68739 0.59184 0.0
C461 C 0.5771 0.69844 0.57233 0.0
H462 H 0.61837 0.70743 0.62075 0.0
H463 H 0.5357 0.79262 0.43219 0.0
H464 H 0.71069 0.59109 0.84828 0.0
H465 H 0.78175 0.60824 0.85479 0.0
H466 H 0.76696 0.51864 0.80531 0.0
H467 H 0.69561 0.50109 0.79873 0.0
H468 H 0.7972 0.50833 0.84125 0.0
H469 H 0.82843 0.61966 0.79972 0.0
H470 H 0.82557 0.67961 0.78843 0.0
H471 H 0.8789 0.74593 0.84751 0.0
H472 H 0.88155 0.68615 0.85928 0.0
H473 H 0.00187 0.55487 0.85755 0.0
H474 H 0.94097 0.54825 0.83986 0.0
H475 H 0.94188 0.6384 0.88491 0.0
H476 H 0.00403 0.64664 0.90219 0.0
H477 H 0.92079 0.6483 0.84676 0.0
H478 H 0.88204 0.53562 0.88964 0.0
H479 H 0.88271 0.47538 0.90216 0.0
H480 H 0.84096 0.41133 0.84168 0.0
H481 H 0.84071 0.47151 0.8287 0.0
C482 C 0.72269 0.57541 0.83859 0.0
C483 C 0.69751 0.54461 0.82305 0.0
C484 C 0.76339 0.58545 0.84224 0.0
C485 C 0.77966 0.56493 0.83042 0.0
C486 C 0.75496 0.53493 0.81453 0.0
C487 C 0.71426 0.52501 0.81078 0.0
C488 C 0.82114 0.57221 0.83598 0.0
C489 C 0.82444 0.53877 0.842 0.0
C490 C 0.85631 0.61214 0.83748 0.0
C491 C 0.85491 0.64826 0.83044 0.0
C492 C 0.83926 0.6469 0.81037 0.0
C493 C 0.83773 0.68088 0.80387 0.0
C494 C 0.85198 0.71652 0.81726 0.0
C495 C 0.86787 0.71829 0.83716 0.0
C496 C 0.86944 0.68438 0.84374 0.0
C497 C 0.98976 0.57406 0.86343 0.0
C498 C 0.00769 0.60114 0.88137 0.0
C499 C 0.95469 0.56992 0.8534 0.0
C500 C 0.93655 0.59233 0.86128 0.0
C501 C 0.95532 0.62068 0.87863 0.0
C502 C 0.99058 0.62505 0.88861 0.0
C503 C 0.89669 0.58447 0.85223 0.0
C504 C 0.89367 0.61777 0.84565 0.0
C505 C 0.86158 0.54442 0.85036 0.0
C506 C 0.86192 0.5083 0.85813 0.0
C507 C 0.87341 0.50886 0.87895 0.0
C508 C 0.87365 0.47469 0.88614 0.0
C509 C 0.86204 0.43961 0.8727 0.0
C510 C 0.85008 0.43858 0.85206 0.0
C511 C 0.8499 0.47271 0.84477 0.0
H512 H 0.8622 0.41317 0.8783 0.0
H513 H 0.85077 0.7428 0.8122 0.0
H514 H 0.12458 0.67374 0.11849 0.0
H515 H 0.19159 0.73663 0.11864 0.0
H516 H 0.17962 0.76923 0.18216 0.0
H517 H 0.11279 0.70624 0.18225 0.0
H518 H 0.22101 0.83846 0.1572 0.0
H519 H 0.22185 0.71289 0.17401 0.0
H520 H 0.20335 0.64084 0.1649 0.0
H521 H 0.27003 0.67597 0.1096 0.0
H522 H 0.28842 0.7484 0.11824 0.0
H523 H 0.40146 0.93571 0.21826 0.0
H524 H 0.33456 0.89242 0.20045 0.0
H525 H 0.39201 0.8698 0.14799 0.0
H526 H 0.45944 0.91149 0.16639 0.0
H527 H 0.33003 0.80089 0.15695 0.0
H528 H 0.34527 0.92987 0.14509 0.0
H529 H 0.36193 0.00185 0.15269 0.0
H530 H 0.26583 0.96279 0.19554 0.0
H531 H 0.24895 0.89063 0.18846 0.0
C532 C 0.13578 0.69469 0.13237 0.0
C533 C 0.11389 0.68458 0.15054 0.0
C534 C 0.17397 0.73069 0.13236 0.0
C535 C 0.19062 0.75714 0.15048 0.0
C536 C 0.16717 0.74908 0.16803 0.0
C537 C 0.12911 0.71297 0.16809 0.0
C538 C 0.23447 0.78941 0.1524 0.0
C539 C 0.24504 0.83055 0.15709 0.0
C540 C 0.2657 0.77899 0.15142 0.0
C541 C 0.25613 0.73589 0.14665 0.0
C542 C 0.23246 0.70521 0.15987 0.0
C543 C 0.22197 0.6643 0.15479 0.0
C544 C 0.23537 0.65374 0.13665 0.0
C545 C 0.25959 0.68419 0.12362 0.0
C546 C 0.27006 0.72518 0.1286 0.0
C547 C 0.39998 0.92131 0.203 0.0
C548 C 0.4358 0.92665 0.19386 0.0
C549 C 0.36167 0.89716 0.19264 0.0
C550 C 0.35823 0.87847 0.17268 0.0
C551 C 0.39396 0.88422 0.16331 0.0
C552 C 0.43246 0.90818 0.1738 0.0
C553 C 0.31688 0.85024 0.16263 0.0
C554 C 0.30657 0.80957 0.15642 0.0
C555 C 0.28605 0.86135 0.16193 0.0
C556 C 0.29593 0.90476 0.16627 0.0
C557 C 0.32784 0.93662 0.15624 0.0
C558 C 0.3373 0.97748 0.16044 0.0
C559 C 0.31497 0.98689 0.1746 0.0
C560 C 0.28308 0.95545 0.18456 0.0
C561 C 0.2735 0.91454 0.18043 0.0
H562 H 0.32235 0.01854 0.17784 0.0
H563 H 0.22703 0.622 0.1327 0.0
H564 H 0.48809 0.15613 0.49487 0.0
H565 H 0.49217 0.22307 0.49521 0.0
H566 H 0.58684 0.26214 0.45108 0.0
H567 H 0.58277 0.1951 0.45051 0.0
H568 H 0.6103 0.31194 0.48765 0.0
H569 H 0.50055 0.25729 0.43666 0.0
H570 H 0.43287 0.20713 0.41984 0.0
H571 H 0.373 0.22511 0.47207 0.0
H572 H 0.44033 0.27492 0.48936 0.0
H573 H 0.63135 0.50917 0.5081 0.0
H574 H 0.61865 0.44708 0.48695 0.0
H575 H 0.51443 0.37284 0.52261 0.0
H576 H 0.52625 0.43472 0.54337 0.0
H577 H 0.49933 0.34595 0.48155 0.0
H578 H 0.60623 0.3843 0.53531 0.0
H579 H 0.67261 0.43127 0.55429 0.0
H580 H 0.73588 0.44054 0.4985 0.0
H581 H 0.66983 0.39384 0.47916 0.0
C582 C 0.50908 0.17861 0.48487 0.0
C583 C 0.53544 0.17061 0.47286 0.0
C584 C 0.51116 0.2167 0.48495 0.0
C585 C 0.53972 0.24738 0.47311 0.0
C586 C 0.56448 0.23869 0.46023 0.0
C587 C 0.5621 0.20041 0.45995 0.0
C588 C 0.54782 0.29 0.47675 0.0
C589 C 0.58643 0.3198 0.48572 0.0
C590 C 0.51628 0.29969 0.47468 0.0
C591 C 0.47559 0.26975 0.46436 0.0
C592 C 0.47298 0.25033 0.44464 0.0
C593 C 0.43466 0.22199 0.43501 0.0
C594 C 0.39866 0.2129 0.44489 0.0
C595 C 0.40091 0.23219 0.46443 0.0
C596 C 0.43916 0.26054 0.47414 0.0
C597 C 0.60533 0.47966 0.51116 0.0
C598 C 0.58012 0.47658 0.52754 0.0
C599 C 0.59819 0.44431 0.49912 0.0
C600 C 0.56583 0.40545 0.50337 0.0
C601 C 0.53953 0.40259 0.51909 0.0
C602 C 0.54664 0.43784 0.53111 0.0
C603 C 0.56139 0.36729 0.49289 0.0
C604 C 0.52352 0.3384 0.48279 0.0
C605 C 0.5934 0.35807 0.49415 0.0
C606 C 0.63311 0.38609 0.50575 0.0
C607 C 0.6343 0.39663 0.52707 0.0
C608 C 0.67187 0.42311 0.5379 0.0
C609 C 0.70847 0.43896 0.5276 0.0
C610 C 0.70756 0.42825 0.50646 0.0
C611 C 0.67007 0.40178 0.49556 0.0
H612 H 0.73754 0.45946 0.536 0.0
H613 H 0.36902 0.19096 0.4374 0.0
H614 H 0.37028 0.51254 0.81017 0.0
H615 H 0.31165 0.52385 0.81218 0.0
H616 H 0.30326 0.50067 0.87679 0.0
H617 H 0.36161 0.48942 0.87493 0.0
H618 H 0.22714 0.468 0.85652 0.0
H619 H 0.35898 0.59592 0.86363 0.0
H620 H 0.42642 0.64693 0.85163 0.0
H621 H 0.3669 0.66251 0.79882 0.0
H622 H 0.29913 0.611 0.8103 0.0
H623 H 0.1872 0.6337 0.9025 0.0
H624 H 0.23486 0.61487 0.88681 0.0
H625 H 0.13775 0.52616 0.8436 0.0
H626 H 0.08969 0.54408 0.85953 0.0
H627 H 0.26268 0.61224 0.84774 0.0
H628 H 0.14575 0.43874 0.8413 0.0
H629 H 0.0808 0.38936 0.85617 0.0
H630 H 0.11507 0.46833 0.91252 0.0
H631 H 0.18042 0.5178 0.8981 0.0
C632 C 0.35521 0.5088 0.82464 0.0
C633 C 0.37064 0.50049 0.84247 0.0
C634 C 0.32192 0.51546 0.82578 0.0
C635 C 0.3036 0.51356 0.84469 0.0
C636 C 0.31708 0.5023 0.86207 0.0
C637 C 0.35049 0.49604 0.861 0.0
C638 C 0.27312 0.52705 0.84718 0.0
C639 C 0.2346 0.49932 0.85426 0.0
C640 C 0.28326 0.56812 0.8445 0.0
C641 C 0.32402 0.59921 0.83768 0.0
C642 C 0.3603 0.60993 0.84936 0.0
C643 C 0.39858 0.63897 0.84267 0.0
C644 C 0.40092 0.65784 0.82445 0.0
C645 C 0.36502 0.64778 0.8129 0.0
C646 C 0.32668 0.61866 0.81948 0.0
C647 C 0.17615 0.61047 0.88953 0.0
C648 C 0.13468 0.59005 0.88238 0.0
C649 C 0.20345 0.60006 0.88045 0.0
C650 C 0.18965 0.56891 0.86419 0.0
C651 C 0.14886 0.55014 0.85622 0.0
C652 C 0.12154 0.56055 0.86528 0.0
C653 C 0.21682 0.55322 0.85719 0.0
C654 C 0.25473 0.58058 0.84936 0.0
C655 C 0.20648 0.51199 0.85952 0.0
C656 C 0.16766 0.48215 0.86851 0.0
C657 C 0.13943 0.44546 0.85688 0.0
C658 C 0.10257 0.41747 0.86523 0.0
C659 C 0.09374 0.42578 0.88524 0.0
C660 C 0.12186 0.462 0.89699 0.0
C661 C 0.1588 0.49003 0.88873 0.0
H662 H 0.06516 0.40411 0.89166 0.0
H663 H 0.43052 0.68036 0.81931 0.0
H664 H 0.89321 0.32589 0.18833 0.0
H665 H 0.83587 0.25495 0.18823 0.0
H666 H 0.7612 0.28547 0.15042 0.0
H667 H 0.81787 0.35628 0.1507 0.0
H668 H 0.72343 0.25072 0.18397 0.0
H669 H 0.79488 0.22138 0.13097 0.0
H670 H 0.85419 0.22113 0.11546 0.0
H671 H 0.85962 0.1504 0.16361 0.0
H672 H 0.80068 0.15071 0.17959 0.0
H673 H 0.54897 0.05502 0.17717 0.0
H674 H 0.6088 0.11435 0.16461 0.0
H675 H 0.68906 0.09014 0.20185 0.0
H676 H 0.62941 0.02949 0.2137 0.0
H677 H 0.72329 0.12033 0.166 0.0
H678 H 0.65817 0.1555 0.22076 0.0
H679 H 0.60021 0.15636 0.23758 0.0
H680 H 0.58517 0.21774 0.18738 0.0
H681 H 0.64269 0.21667 0.17011 0.0
C682 C 0.86476 0.3173 0.17976 0.0
C683 C 0.8599 0.34677 0.16972 0.0
C684 C 0.83211 0.27671 0.17962 0.0
C685 C 0.79433 0.26495 0.16926 0.0
C686 C 0.79007 0.29395 0.15854 0.0
C687 C 0.8225 0.33443 0.15876 0.0
C688 C 0.758 0.22378 0.17123 0.0
C689 C 0.72315 0.2222 0.17963 0.0
C690 C 0.75815 0.18667 0.16618 0.0
C691 C 0.79357 0.18639 0.15658 0.0
C692 C 0.80893 0.20606 0.13835 0.0
C693 C 0.84244 0.20585 0.12945 0.0
C694 C 0.86073 0.18584 0.13857 0.0
C695 C 0.84546 0.16592 0.15658 0.0
C696 C 0.81196 0.16606 0.16555 0.0
C697 C 0.57933 0.06149 0.18219 0.0
C698 C 0.58445 0.03791 0.19668 0.0
C699 C 0.6135 0.09563 0.17513 0.0
C700 C 0.65328 0.10711 0.18267 0.0
C701 C 0.65861 0.08196 0.19595 0.0
C702 C 0.62448 0.0476 0.20288 0.0
C703 C 0.68881 0.14748 0.17855 0.0
C704 C 0.7235 0.14892 0.16999 0.0
C705 C 0.68882 0.18468 0.18361 0.0
C706 C 0.65441 0.18559 0.19404 0.0
C707 C 0.6423 0.16891 0.21324 0.0
C708 C 0.60956 0.16946 0.22286 0.0
C709 C 0.58894 0.18699 0.21353 0.0
C710 C 0.60111 0.2041 0.19457 0.0
C711 C 0.63378 0.20353 0.18486 0.0
H712 H 0.56361 0.1874 0.221 0.0
H713 H 0.88667 0.18571 0.13165 0.0
H714 H 0.99249 0.48196 0.1096 0.0
H715 H 0.01657 0.49843 0.07459 0.0
H716 H 0.00471 0.60688 0.08106 0.0
H717 H 0.98095 0.59082 0.116 0.0
H718 H 0.96799 0.55673 0.04412 0.0
H719 H 0.09596 0.61951 0.0847 0.0
H720 H 0.14606 0.62014 0.10993 0.0
H721 H 0.15491 0.52881 0.07067 0.0
H722 H 0.10435 0.52705 0.04535 0.0
H723 H 0.06016 0.64895 0.95448 0.0
H724 H 0.04962 0.63994 0.99139 0.0
H725 H 0.07262 0.53835 0.98584 0.0
H726 H 0.08346 0.54737 0.94893 0.0
H727 H 0.10533 0.5852 0.02272 0.0
H728 H 0.97626 0.51923 0.98333 0.0
H729 H 0.92449 0.51537 0.95813 0.0
H730 H 0.91565 0.60896 0.99545 0.0
H731 H 0.96792 0.61386 0.02072 0.0
C732 C 0.99502 0.50926 0.10351 0.0
C733 C 0.98496 0.53518 0.11547 0.0
C734 C 0.00898 0.51875 0.08362 0.0
C735 C 0.01262 0.554 0.07538 0.0
C736 C 0.00218 0.57962 0.08721 0.0
C737 C 0.98869 0.57044 0.10714 0.0
C738 C 0.02603 0.56358 0.05412 0.0
C739 C 0.99822 0.56354 0.0395 0.0
C740 C 0.0651 0.57135 0.04809 0.0
C741 C 0.09603 0.57286 0.06319 0.0
C742 C 0.10833 0.59931 0.0815 0.0
C743 C 0.13685 0.59992 0.09581 0.0
C744 C 0.15358 0.5745 0.0919 0.0
C745 C 0.14189 0.54847 0.07367 0.0
C746 C 0.11333 0.54767 0.05933 0.0
C747 C 0.06333 0.62495 0.96119 0.0
C748 C 0.07225 0.59864 0.94881 0.0
C749 C 0.05742 0.6199 0.98226 0.0
C750 C 0.05975 0.58808 0.99127 0.0
C751 C 0.07073 0.56311 0.97919 0.0
C752 C 0.0769 0.56831 0.95812 0.0
C753 C 0.04737 0.57876 0.01276 0.0
C754 C 0.0752 0.57861 0.02738 0.0
C755 C 0.00813 0.57045 0.01884 0.0
C756 C 0.9763 0.56721 0.00381 0.0
C757 C 0.96349 0.5392 0.98609 0.0
C758 C 0.93404 0.5368 0.9718 0.0
C759 C 0.91687 0.56198 0.97516 0.0
C760 C 0.92903 0.58952 0.99286 0.0
C761 C 0.95855 0.59211 0.00717 0.0
H762 H 0.89408 0.56009 0.96408 0.0
H763 H 0.17567 0.57503 0.10297 0.0
H764 H 0.53796 0.95293 0.43673 0.0
H765 H 0.53236 0.94144 0.39897 0.0
H766 H 0.51545 0.04618 0.39451 0.0
H767 H 0.51901 0.05651 0.43221 0.0
H768 H 0.46618 0.98899 0.36776 0.0
H769 H 0.60981 0.04942 0.38598 0.0
H770 H 0.67126 0.05625 0.40409 0.0
H771 H 0.64331 0.93765 0.37629 0.0
H772 H 0.58136 0.92988 0.35821 0.0
H773 H 0.53624 0.04076 0.26607 0.0
H774 H 0.53624 0.04154 0.30395 0.0
H775 H 0.50044 0.91277 0.29976 0.0
H776 H 0.49934 0.91157 0.26171 0.0
H777 H 0.57384 0.97658 0.33008 0.0
H778 H 0.42992 0.92156 0.31015 0.0
H779 H 0.37295 0.92216 0.29124 0.0
H780 H 0.40778 0.04062 0.32193 0.0
H781 H 0.46543 0.04104 0.34077 0.0
C782 C 0.53301 0.97346 0.42767 0.0
C783 C 0.52919 0.00579 0.43741 0.0
C784 C 0.53 0.96699 0.40609 0.0
C785 C 0.52423 0.9934 0.39385 0.0
C786 C 0.51991 0.02538 0.4036 0.0
C787 C 0.5221 0.03136 0.42516 0.0
C788 C 0.52278 0.98793 0.37089 0.0
C789 C 0.48995 0.9866 0.35959 0.0
C790 C 0.55346 0.98426 0.36012 0.0
C791 C 0.59072 0.98887 0.37093 0.0
C792 C 0.61661 0.02466 0.38385 0.0
C793 C 0.65155 0.02873 0.39409 0.0
C794 C 0.66112 0.99735 0.39139 0.0
C795 C 0.63582 0.96189 0.37839 0.0
C796 C 0.60081 0.95765 0.36814 0.0
C797 C 0.52862 0.01273 0.27328 0.0
C798 C 0.51791 0.97612 0.26114 0.0
C799 C 0.5285 0.01318 0.29482 0.0
C800 C 0.51829 0.97721 0.30449 0.0
C801 C 0.5084 0.94077 0.29245 0.0
C802 C 0.50768 0.94009 0.27084 0.0
C803 C 0.51754 0.9779 0.32725 0.0
C804 C 0.54998 0.97851 0.33842 0.0
C805 C 0.48709 0.98186 0.3379 0.0
C806 C 0.45225 0.98151 0.3267 0.0
C807 C 0.42569 0.94793 0.31271 0.0
C808 C 0.39322 0.94804 0.30204 0.0
C809 C 0.38682 0.98146 0.30534 0.0
C810 C 0.41281 0.01478 0.31937 0.0
C811 C 0.44537 0.01484 0.33006 0.0
H812 H 0.36166 0.98149 0.29706 0.0
H813 H 0.68819 1.00056 0.39932 0.0
H814 H 0.59785 0.57534 0.7733 0.0
H815 H 0.60428 0.5789 0.73592 0.0
H816 H 0.48483 0.46959 0.72535 0.0
H817 H 0.47777 0.46604 0.76284 0.0
H818 H 0.54956 0.46957 0.70203 0.0
H819 H 0.48922 0.55276 0.7178 0.0
H820 H 0.48291 0.60782 0.73708 0.0
H821 H 0.59998 0.69877 0.71699 0.0
H822 H 0.60762 0.64412 0.69808 0.0
H823 H 0.53093 0.48237 0.59421 0.0
H824 H 0.51857 0.47727 0.63108 0.0
H825 H 0.62842 0.59548 0.64509 0.0
H826 H 0.64095 0.60084 0.60812 0.0
H827 H 0.56509 0.58953 0.66667 0.0
H828 H 0.62768 0.5067 0.65297 0.0
H829 H 0.63567 0.45181 0.63462 0.0
H830 H 0.51533 0.36078 0.65113 0.0
H831 H 0.50638 0.41524 0.66934 0.0
C832 C 0.57289 0.55206 0.76304 0.0
C833 C 0.53727 0.5204 0.77097 0.0
C834 C 0.57659 0.55424 0.74173 0.0
C835 C 0.54495 0.5246 0.728 0.0
C836 C 0.5095 0.49272 0.7358 0.0
C837 C 0.50548 0.49086 0.75716 0.0
C838 C 0.54939 0.52681 0.70548 0.0
C839 C 0.55229 0.49541 0.69417 0.0
C840 C 0.55387 0.56112 0.69552 0.0
C841 C 0.54922 0.59422 0.7067 0.0
C842 C 0.51388 0.58444 0.71768 0.0
C843 C 0.51004 0.61559 0.72855 0.0
C844 C 0.54111 0.65675 0.72836 0.0
C845 C 0.57603 0.66685 0.71723 0.0
C846 C 0.58014 0.63578 0.70643 0.0
C847 C 0.55278 0.50701 0.60516 0.0
C848 C 0.58715 0.54182 0.59832 0.0
C849 C 0.54557 0.50414 0.6262 0.0
C850 C 0.57282 0.5358 0.64081 0.0
C851 C 0.60702 0.57073 0.63404 0.0
C852 C 0.61416 0.57372 0.61296 0.0
C853 C 0.5656 0.53237 0.66317 0.0
C854 C 0.5622 0.56358 0.67447 0.0
C855 C 0.56079 0.49794 0.67317 0.0
C856 C 0.56621 0.4651 0.66234 0.0
C857 C 0.60279 0.47502 0.65255 0.0
C858 C 0.60752 0.44397 0.6422 0.0
C859 C 0.57599 0.40284 0.64166 0.0
C860 C 0.53971 0.39266 0.65153 0.0
C861 C 0.53481 0.4236 0.66189 0.0
H862 H 0.5797 0.37885 0.63363 0.0
H863 H 0.538 0.68077 0.73677 0.0
H864 H 0.58538 0.01839 0.55953 0.0
H865 H 0.58198 0.01568 0.59694 0.0
H866 H 0.49047 0.05267 0.59646 0.0
H867 H 0.49427 0.05632 0.55884 0.0
H868 H 0.54668 0.09205 0.62863 0.0
H869 H 0.46298 0.95224 0.59969 0.0
H870 H 0.44834 0.89043 0.57721 0.0
H871 H 0.54486 0.88385 0.60965 0.0
H872 H 0.56055 0.94606 0.63212 0.0
H873 H 0.47988 0.0348 0.72919 0.0
H874 H 0.48226 0.03908 0.69172 0.0
H875 H 0.5737 0.00198 0.69013 0.0
H876 H 0.57155 0.99774 0.72771 0.0
H877 H 0.51589 0.96217 0.65889 0.0
H878 H 0.60097 0.10225 0.68709 0.0
H879 H 0.6176 0.16516 0.70912 0.0
H880 H 0.51989 0.17172 0.67793 0.0
H881 H 0.50228 0.10846 0.6559 0.0
C882 C 0.56461 0.02617 0.56733 0.0
C883 C 0.53987 0.03734 0.55615 0.0
C884 C 0.5626 0.02441 0.58874 0.0
C885 C 0.53544 0.03324 0.59945 0.0
C886 C 0.5115 0.04553 0.58847 0.0
C887 C 0.51365 0.04753 0.56698 0.0
C888 C 0.53181 0.02905 0.62206 0.0
C889 C 0.5393 0.06347 0.63524 0.0
C890 C 0.52314 0.99201 0.63068 0.0
C891 C 0.51314 0.95402 0.61749 0.0
C892 C 0.48123 0.93775 0.60196 0.0
C893 C 0.47275 0.90264 0.58922 0.0
C894 C 0.4957 0.88327 0.59198 0.0
C895 C 0.52712 0.89891 0.60753 0.0
C896 C 0.5358 0.93407 0.62028 0.0
C897 C 0.50075 0.02787 0.72089 0.0
C898 C 0.52578 0.01625 0.73144 0.0
C899 C 0.50201 0.03025 0.69947 0.0
C900 C 0.52854 0.02137 0.68816 0.0
C901 C 0.553 0.00899 0.69856 0.0
C902 C 0.5517 0.0065 0.72001 0.0
C903 C 0.53087 0.02521 0.66549 0.0
C904 C 0.52311 0.9907 0.65229 0.0
C905 C 0.53937 0.06218 0.65684 0.0
C906 C 0.55005 0.10038 0.66999 0.0
C907 C 0.58282 0.11692 0.68504 0.0
C908 C 0.59246 0.15267 0.69751 0.0
C909 C 0.56974 0.17236 0.69497 0.0
C910 C 0.53742 0.1564 0.67991 0.0
C911 C 0.52762 0.12061 0.66741 0.0
H912 H 0.57725 0.20004 0.70464 0.0
H913 H 0.48908 0.85609 0.58211 0.0
H914 H 0.58325 0.56717 0.89694 0.0
H915 H 0.57484 0.56579 0.93426 0.0
H916 H 0.45222 0.46099 0.92361 0.0
H917 H 0.45988 0.46312 0.88631 0.0
H918 H 0.45074 0.51169 0.95159 0.0
H919 H 0.53536 0.45177 0.94086 0.0
H920 H 0.59474 0.44734 0.92841 0.0
H921 H 0.67686 0.55675 0.96701 0.0
H922 H 0.61798 0.56218 0.97947 0.0
H923 H 0.49378 0.46431 0.06206 0.0
H924 H 0.50095 0.46199 0.02459 0.0
H925 H 0.48515 0.56769 0.0216 0.0
H926 H 0.47682 0.5693 0.05899 0.0
H927 H 0.55375 0.51195 0.00031 0.0
H928 H 0.43769 0.56289 0.97632 0.0
H929 H 0.37367 0.55816 0.98835 0.0
H930 H 0.34567 0.44926 0.01849 0.0
H931 H 0.40918 0.453 0.00639 0.0
C932 C 0.55455 0.54376 0.90256 0.0
C933 C 0.52226 0.51522 0.88868 0.0
C934 C 0.54983 0.5429 0.9239 0.0
C935 C 0.51307 0.51296 0.93177 0.0
C936 C 0.48084 0.48442 0.91792 0.0
C937 C 0.48532 0.48561 0.89659 0.0
C938 C 0.50786 0.5117 0.95443 0.0
C939 C 0.47327 0.51172 0.96223 0.0
C940 C 0.53679 0.51087 0.96831 0.0
C941 C 0.57227 0.50758 0.96095 0.0
C942 C 0.5661 0.47505 0.94659 0.0
C943 C 0.59966 0.47234 0.93954 0.0
C944 C 0.63955 0.5018 0.94688 0.0
C945 C 0.64595 0.53398 0.96132 0.0
C946 C 0.61249 0.53687 0.96839 0.0
C947 C 0.49188 0.48702 0.05336 0.0
C948 C 0.4845 0.51682 0.06333 0.0
C949 C 0.49603 0.48573 0.03199 0.0
C950 C 0.49312 0.51435 0.02023 0.0
C951 C 0.48661 0.54471 0.03027 0.0
C952 C 0.48191 0.54566 0.0516 0.0
C953 C 0.49685 0.51238 0.99747 0.0
C954 C 0.53121 0.51188 0.98966 0.0
C955 C 0.46702 0.51136 0.98351 0.0
C956 C 0.42842 0.5085 0.99061 0.0
C957 C 0.41778 0.53784 0.98544 0.0
C958 C 0.38159 0.53535 0.99228 0.0
C959 C 0.35569 0.50351 0.00423 0.0
C960 C 0.36583 0.474 0.00929 0.0
C961 C 0.40194 0.47631 0.00246 0.0
H962 H 0.32773 0.50167 0.00954 0.0
H963 H 0.6655 0.49965 0.94141 0.0
H964 H 0.92513 0.47297 0.23208 0.0
H965 H 0.93286 0.46872 0.26927 0.0
H966 H 0.06103 0.56177 0.26935 0.0
H967 H 0.05356 0.56669 0.2322 0.0
H968 H 0.04309 0.48956 0.29095 0.0
H969 H 1.00129 0.59161 0.28708 0.0
H970 H 0.95597 0.61691 0.27529 0.0
H971 H 0.85419 0.51935 0.3035 0.0
H972 H 0.89881 0.49311 0.31521 0.0
H973 H 0.09065 0.54049 0.39843 0.0
H974 H 0.08198 0.54077 0.36113 0.0
H975 H 0.95016 0.47372 0.36512 0.0
H976 H 0.95858 0.47609 0.40265 0.0
H977 H 0.96856 0.53052 0.34079 0.0
H978 H 0.00688 0.42795 0.3455 0.0
H979 H 0.04874 0.39829 0.35663 0.0
H980 H 0.15204 0.48958 0.32638 0.0
H981 H 0.11095 0.52016 0.3153 0.0
C982 C 0.95499 0.49252 0.23999 0.0
C983 C 0.98869 0.52034 0.22921 0.0
C984 C 0.95931 0.49007 0.26123 0.0
C985 C 0.99746 0.51504 0.272 0.0
C986 C 0.03134 0.54227 0.26126 0.0
C987 C 0.02694 0.54518 0.24008 0.0
C988 C 0.00184 0.51323 0.29458 0.0
C989 C 0.02724 0.49893 0.30194 0.0
C990 C 0.98004 0.52422 0.30873 0.0
C991 C 0.95328 0.54016 0.30183 0.0
C992 C 0.96916 0.57534 0.29062 0.0
C993 C 0.94362 0.5899 0.28398 0.0
C994 C 0.9022 0.56968 0.28859 0.0
C995 C 0.88627 0.53494 0.29991 0.0
C996 C 0.91167 0.52024 0.30657 0.0
C997 C 0.05977 0.52617 0.39145 0.0
C998 C 0.02534 0.50831 0.40366 0.0
C999 C 0.05485 0.52578 0.37001 0.0
C1000 C 0.01538 0.50665 0.36019 0.0
C1001 C 0.98094 0.48853 0.37229 0.0
C1002 C 0.98584 0.48948 0.39378 0.0
C1003 C 0.01002 0.50683 0.33741 0.0
C1004 C 0.9844 0.5209 0.32993 0.0
C1005 C 0.03111 0.49492 0.32313 0.0
C1006 C 0.05593 0.47659 0.32974 0.0
C1007 C 0.03861 0.4419 0.34135 0.0
C1008 C 0.06219 0.42489 0.34763 0.0
C1009 C 0.10305 0.4421 0.34226 0.0
C1010 C 0.1204 0.47631 0.33055 0.0
C1011 C 0.09697 0.49347 0.32425 0.0
H1012 H 0.12125 0.42888 0.34713 0.0
H1013 H 0.88247 0.58099 0.28344 0.0
loop_
_geom_bond_atom_site_label_1
_geom_bond_atom_site_label_2
_geom_bond_distance
_geom_bond_site_symmetry_2
_ccdc_geom_bond_type
Zn0 O6 1.969 . S
Zn0 O7 1.965 . S
Zn0 O11 2.024 . S
Zn0 O16 1.969 . S
Zn1 O8 1.969 . S
Zn1 O14 1.969 . S
Zn1 O15 1.965 . S
Zn1 O17 2.024 . S
C2 O3 1.229 . S
C2 O11 1.058 . S
O3 C2 1.229 . S
C4 O5 1.229 . S
C4 O17 1.058 . S
O5 C4 1.229 . S
O6 Zn0 1.969 . S
O6 C9 1.267 . S
O7 Zn0 1.965 . S
O7 C18 1.260 1_455 S
O8 Zn1 1.969 . S
O8 C18 1.258 . S
C9 O6 1.267 . S
C9 O10 1.228 . S
O10 C9 1.228 . S
O11 Zn0 2.024 . S
O11 C2 1.058 . S
C12 O13 1.228 . S
C12 O14 1.267 . S
O13 C12 1.228 . S
O14 Zn1 1.969 . S
O14 C12 1.267 . S
O15 Zn1 1.965 . S
O15 C19 1.260 1_655 S
O16 Zn0 1.969 . S
O16 C19 1.258 . S
O17 Zn1 2.024 . S
O17 C4 1.058 . S
C18 O7 1.260 1_655 S
C18 O8 1.258 . S
C19 O15 1.260 1_455 S
C19 O16 1.258 . S
Zn20 O26 1.969 . S
Zn20 O27 1.965 . S
Zn20 O31 2.024 . S
Zn20 O36 1.969 . S
Zn21 O28 1.969 . S
Zn21 O34 1.969 . S
Zn21 O35 1.965 . S
Zn21 O37 2.024 . S
C22 O23 1.229 . S
C22 O31 1.058 . S
O23 C22 1.229 . S
C24 O25 1.229 . S
C24 O37 1.058 . S
O25 C24 1.229 . S
O26 Zn20 1.969 . S
O26 C29 1.267 . S
O27 Zn20 1.965 . S
O27 C38 1.260 . S
O28 Zn21 1.969 . S
O28 C38 1.258 1_565 S
C29 O26 1.267 . S
C29 O30 1.228 . S
O30 C29 1.228 . S
O31 Zn20 2.024 . S
O31 C22 1.058 . S
C32 O33 1.228 . S
C32 O34 1.267 . S
O33 C32 1.228 . S
O34 Zn21 1.969 . S
O34 C32 1.267 . S
O35 Zn21 1.965 . S
O35 C39 1.260 1_565 S
O36 Zn20 1.969 . S
O36 C39 1.258 . S
O37 Zn21 2.024 . S
O37 C24 1.058 . S
C38 O27 1.260 . S
C38 O28 1.258 1_545 S
C39 O35 1.260 1_545 S
C39 O36 1.258 . S
Zn40 O46 1.969 . S
Zn40 O47 1.965 . S
Zn40 O51 2.024 . S
Zn40 O56 1.969 . S
Zn41 O48 1.969 . S
Zn41 O54 1.969 . S
Zn41 O55 1.965 . S
Zn41 O57 2.024 . S
C42 O43 1.229 . S
C42 O51 1.058 . S
O43 C42 1.229 . S
C44 O45 1.229 . S
C44 O57 1.058 . S
O45 C44 1.229 . S
O46 Zn40 1.969 . S
O46 C49 1.267 . S
O47 Zn40 1.965 . S
O47 C58 1.260 . S
O48 Zn41 1.969 . S
O48 C58 1.258 . S
C49 O46 1.267 . S
C49 O50 1.228 . S
O50 C49 1.228 . S
O51 Zn40 2.024 . S
O51 C42 1.058 . S
C52 O53 1.228 . S
C52 O54 1.267 . S
O53 C52 1.228 . S
O54 Zn41 1.969 . S
O54 C52 1.267 . S
O55 Zn41 1.965 . S
O55 C59 1.260 . S
O56 Zn40 1.969 . S
O56 C59 1.258 . S
O57 Zn41 2.024 . S
O57 C44 1.058 . S
C58 O47 1.260 . S
C58 O48 1.258 . S
C59 O55 1.260 . S
C59 O56 1.258 . S
H60 C63 0.925 1_565 S
H61 C66 0.928 . S
H62 C68 0.930 . S
C63 H60 0.925 1_545 S
C63 C64 1.415 1_545 S
C63 C65 1.364 . S
C64 C63 1.415 1_565 S
C64 C68 1.426 1_565 S
C65 C63 1.364 . S
C65 C66 1.372 . S
C66 H61 0.928 . S
C66 C65 1.372 . S
C66 C67 1.404 . S
C67 C66 1.404 . S
C67 C68 1.391 . S
C68 H62 0.930 . S
C68 C64 1.426 1_545 S
C68 C67 1.391 . S
H69 C72 0.931 . S
H70 C75 0.928 . S
H71 C77 0.930 . S
C72 H69 0.931 . S
C72 C73 1.413 . S
C72 C74 1.360 . S
C73 C72 1.413 . S
C73 C77 1.429 . S
C74 C72 1.360 . S
C74 C75 1.372 . S
C75 H70 0.928 . S
C75 C74 1.372 . S
C75 C76 1.404 . S
C76 C75 1.404 . S
C76 C77 1.391 . S
C77 H71 0.930 . S
C77 C73 1.429 . S
C77 C76 1.391 . S
H78 C81 0.931 1_655 S
H79 C84 0.928 . S
H80 C86 0.930 . S
C81 H78 0.931 1_455 S
C81 C82 1.413 . S
C81 C83 1.360 . S
C82 C81 1.413 . S
C82 C86 1.429 . S
C83 C81 1.360 . S
C83 C84 1.372 . S
C84 H79 0.928 . S
C84 C83 1.372 . S
C84 C85 1.404 . S
C85 C84 1.404 . S
C85 C86 1.391 . S
C86 H80 0.930 . S
C86 C82 1.429 . S
C86 C85 1.391 . S
H87 C90 0.931 . S
H88 C93 0.928 . S
H89 C95 0.930 . S
C90 H87 0.931 . S
C90 C91 1.413 . S
C90 C92 1.360 1_655 S
C91 C90 1.413 . S
C91 C95 1.429 1_655 S
C92 C90 1.360 1_455 S
C92 C93 1.372 . S
C93 H88 0.928 . S
C93 C92 1.372 . S
C93 C94 1.404 . S
C94 C93 1.404 . S
C94 C95 1.391 . S
C95 H89 0.930 . S
C95 C91 1.429 1_455 S
C95 C94 1.391 . S
H96 C99 0.931 . S
H97 C102 0.928 . S
H98 C104 0.930 . S
C99 H96 0.931 . S
C99 C100 1.413 . S
C99 C101 1.360 . S
C100 C99 1.413 . S
C100 C104 1.429 . S
C101 C99 1.360 . S
C101 C102 1.372 1_545 S
C102 H97 0.928 . S
C102 C101 1.372 1_565 S
C102 C103 1.404 . S
C103 C102 1.404 . S
C103 C104 1.391 1_565 S
C104 H98 0.930 . S
C104 C100 1.429 . S
C104 C103 1.391 1_545 S
H105 C108 0.931 . S
H106 C111 0.928 . S
H107 C113 0.930 . S
C108 H105 0.931 . S
C108 C109 1.413 . S
C108 C110 1.360 . S
C109 C108 1.413 . S
C109 C113 1.429 . S
C110 C108 1.360 . S
C110 C111 1.372 . S
C111 H106 0.928 . S
C111 C110 1.372 . S
C111 C112 1.404 . S
C112 C111 1.404 . S
C112 C113 1.391 . S
C113 H107 0.930 . S
C113 C109 1.429 . S
C113 C112 1.391 . S
H114 C132 0.951 . S
H115 C134 0.951 . S
H116 C136 0.950 . S
H117 C137 0.950 . S
H118 C139 0.950 . S
H119 C142 0.950 . S
H120 C143 0.950 . S
H121 C145 0.950 . S
H122 C146 0.950 . S
H123 C147 0.951 . S
H124 C149 0.951 . S
H125 C151 0.950 . S
H126 C152 0.950 . S
H127 C154 0.950 . S
H128 C157 0.950 . S
H129 C158 0.950 . S
H130 C160 0.950 . S
H131 C161 0.950 . S
C132 H114 0.951 . S
C132 C133 1.366 . S
C132 C134 1.388 . S
C133 C132 1.366 . S
C133 C137 1.385 . S
C134 H115 0.951 . S
C134 C132 1.388 . S
C134 C135 1.366 . S
C135 C134 1.366 . S
C135 C136 1.414 . S
C135 C138 1.499 . S
C136 H116 0.950 . S
C136 C135 1.414 . S
C136 C137 1.374 . S
C137 H117 0.950 . S
C137 C133 1.385 . S
C137 C136 1.374 . S
C138 C135 1.499 . S
C138 C139 1.373 . S
C138 C140 1.389 . S
C139 H118 0.950 . S
C139 C138 1.373 . S
C139 C155 1.377 . S
C140 C138 1.389 . S
C140 C141 1.524 . S
C140 C154 1.377 . S
C141 C140 1.524 . S
C141 C142 1.397 . S
C141 C146 1.363 . S
C142 H119 0.950 . S
C142 C141 1.397 . S
C142 C143 1.334 . S
C143 H120 0.950 . S
C143 C142 1.334 . S
C143 C144 1.287 . S
C144 C143 1.287 . S
C144 C145 1.524 . S
C144 H163 0.913 . S
C145 H121 0.950 . S
C145 C144 1.524 . S
C145 C146 1.415 . S
C146 H122 0.950 . S
C146 C141 1.363 . S
C146 C145 1.415 . S
C147 H123 0.951 . S
C147 C148 1.366 . S
C147 C149 1.388 . S
C148 C147 1.366 . S
C148 C152 1.385 . S
C149 H124 0.951 . S
C149 C147 1.388 . S
C149 C150 1.366 . S
C150 C149 1.366 . S
C150 C151 1.414 . S
C150 C153 1.499 . S
C151 H125 0.950 . S
C151 C150 1.414 . S
C151 C152 1.374 . S
C152 H126 0.950 . S
C152 C148 1.385 . S
C152 C151 1.374 . S
C153 C150 1.499 . S
C153 C154 1.373 . S
C153 C155 1.389 . S
C154 H127 0.950 . S
C154 C140 1.377 . S
C154 C153 1.373 . S
C155 C139 1.377 . S
C155 C153 1.389 . S
C155 C156 1.524 . S
C156 C155 1.524 . S
C156 C157 1.397 . S
C156 C161 1.363 . S
C157 H128 0.950 . S
C157 C156 1.397 . S
C157 C158 1.334 . S
C158 H129 0.950 . S
C158 C157 1.334 . S
C158 C159 1.287 . S
C159 C158 1.287 . S
C159 C160 1.524 . S
C159 H162 0.999 . S
C160 H130 0.950 . S
C160 C159 1.524 . S
C160 C161 1.415 . S
C161 H131 0.950 . S
C161 C156 1.363 . S
C161 C160 1.415 . S
H162 C159 0.999 . S
H163 C144 0.913 . S
H164 C182 0.951 . S
H165 C184 0.951 . S
H166 C186 0.950 . S
H167 C187 0.950 . S
H168 C189 0.950 . S
H169 C192 0.950 . S
H170 C193 0.950 . S
H171 C195 0.950 . S
H172 C196 0.950 . S
H173 C197 0.951 . S
H174 C199 0.951 . S
H175 C201 0.950 . S
H176 C202 0.950 . S
H177 C204 0.950 . S
H178 C207 0.950 . S
H179 C208 0.950 . S
H180 C210 0.950 . S
H181 C211 0.950 . S
C182 H164 0.951 . S
C182 C183 1.366 . S
C182 C184 1.388 . S
C183 C182 1.366 . S
C183 C187 1.385 . S
C184 H165 0.951 . S
C184 C182 1.388 . S
C184 C185 1.366 . S
C185 C184 1.366 . S
C185 C186 1.414 . S
C185 C188 1.499 . S
C186 H166 0.950 . S
C186 C185 1.414 . S
C186 C187 1.374 . S
C187 H167 0.950 . S
C187 C183 1.385 . S
C187 C186 1.374 . S
C188 C185 1.499 . S
C188 C189 1.373 . S
C188 C190 1.389 . S
C189 H168 0.950 . S
C189 C188 1.373 . S
C189 C205 1.377 . S
C190 C188 1.389 . S
C190 C191 1.524 . S
C190 C204 1.377 . S
C191 C190 1.524 . S
C191 C192 1.397 . S
C191 C196 1.363 . S
C192 H169 0.950 . S
C192 C191 1.397 . S
C192 C193 1.334 . S
C193 H170 0.950 . S
C193 C192 1.334 . S
C193 C194 1.287 . S
C194 C193 1.287 . S
C194 C195 1.524 . S
C194 H213 0.913 . S
C195 H171 0.950 . S
C195 C194 1.524 . S
C195 C196 1.415 . S
C196 H172 0.950 . S
C196 C191 1.363 . S
C196 C195 1.415 . S
C197 H173 0.951 . S
C197 C198 1.366 . S
C197 C199 1.388 . S
C198 C197 1.366 . S
C198 C202 1.385 . S
C199 H174 0.951 . S
C199 C197 1.388 . S
C199 C200 1.366 . S
C200 C199 1.366 . S
C200 C201 1.414 . S
C200 C203 1.499 . S
C201 H175 0.950 . S
C201 C200 1.414 . S
C201 C202 1.374 . S
C202 H176 0.950 . S
C202 C198 1.385 . S
C202 C201 1.374 . S
C203 C200 1.499 . S
C203 C204 1.373 . S
C203 C205 1.389 . S
C204 H177 0.950 . S
C204 C190 1.377 . S
C204 C203 1.373 . S
C205 C189 1.377 . S
C205 C203 1.389 . S
C205 C206 1.524 . S
C206 C205 1.524 . S
C206 C207 1.397 . S
C206 C211 1.363 . S
C207 H178 0.950 . S
C207 C206 1.397 . S
C207 C208 1.334 . S
C208 H179 0.950 . S
C208 C207 1.334 . S
C208 C209 1.287 . S
C209 C208 1.287 . S
C209 C210 1.524 . S
C209 H212 0.999 . S
C210 H180 0.950 . S
C210 C209 1.524 . S
C210 C211 1.415 . S
C211 H181 0.950 . S
C211 C206 1.363 . S
C211 C210 1.415 . S
H212 C209 0.999 . S
H213 C194 0.913 . S
H214 C232 0.951 . S
H215 C234 0.951 . S
H216 C236 0.950 . S
H217 C237 0.950 . S
H218 C239 0.950 . S
H219 C242 0.950 . S
H220 C243 0.950 . S
H221 C245 0.950 . S
H222 C246 0.950 . S
H223 C247 0.951 . S
H224 C249 0.951 . S
H225 C251 0.950 . S
H226 C252 0.950 . S
H227 C254 0.950 . S
H228 C257 0.950 . S
H229 C258 0.950 . S
H230 C260 0.950 . S
H231 C261 0.950 . S
C232 H214 0.951 . S
C232 C233 1.366 . S
C232 C234 1.388 . S
C233 C232 1.366 . S
C233 C237 1.385 . S
C234 H215 0.951 . S
C234 C232 1.388 . S
C234 C235 1.366 . S
C235 C234 1.366 . S
C235 C236 1.414 . S
C235 C238 1.499 . S
C236 H216 0.950 . S
C236 C235 1.414 . S
C236 C237 1.374 . S
C237 H217 0.950 . S
C237 C233 1.385 . S
C237 C236 1.374 . S
C238 C235 1.499 . S
C238 C239 1.373 . S
C238 C240 1.389 . S
C239 H218 0.950 . S
C239 C238 1.373 . S
C239 C255 1.377 . S
C240 C238 1.389 . S
C240 C241 1.524 . S
C240 C254 1.377 . S
C241 C240 1.524 . S
C241 C242 1.397 . S
C241 C246 1.363 . S
C242 H219 0.950 . S
C242 C241 1.397 . S
C242 C243 1.334 . S
C243 H220 0.950 . S
C243 C242 1.334 . S
C243 C244 1.287 . S
C244 C243 1.287 . S
C244 C245 1.524 . S
C244 H263 0.913 . S
C245 H221 0.950 . S
C245 C244 1.524 . S
C245 C246 1.415 . S
C246 H222 0.950 . S
C246 C241 1.363 . S
C246 C245 1.415 . S
C247 H223 0.951 . S
C247 C248 1.366 . S
C247 C249 1.388 . S
C248 C247 1.366 . S
C248 C252 1.385 . S
C249 H224 0.951 . S
C249 C247 1.388 . S
C249 C250 1.366 . S
C250 C249 1.366 . S
C250 C251 1.414 . S
C250 C253 1.499 . S
C251 H225 0.950 . S
C251 C250 1.414 . S
C251 C252 1.374 . S
C252 H226 0.950 . S
C252 C248 1.385 . S
C252 C251 1.374 . S
C253 C250 1.499 . S
C253 C254 1.373 . S
C253 C255 1.389 . S
C254 H227 0.950 . S
C254 C240 1.377 . S
C254 C253 1.373 . S
C255 C239 1.377 . S
C255 C253 1.389 . S
C255 C256 1.524 . S
C256 C255 1.524 . S
C256 C257 1.397 . S
C256 C261 1.363 . S
C257 H228 0.950 . S
C257 C256 1.397 . S
C257 C258 1.334 . S
C258 H229 0.950 . S
C258 C257 1.334 . S
C258 C259 1.287 . S
C259 C258 1.287 . S
C259 C260 1.524 . S
C259 H262 0.999 . S
C260 H230 0.950 . S
C260 C259 1.524 . S
C260 C261 1.415 . S
C261 H231 0.950 . S
C261 C256 1.363 . S
C261 C260 1.415 . S
H262 C259 0.999 . S
H263 C244 0.913 . S
H264 C282 0.951 . S
H265 C284 0.951 . S
H266 C286 0.950 . S
H267 C287 0.950 . S
H268 C289 0.950 . S
H269 C292 0.950 . S
H270 C293 0.950 . S
H271 C295 0.950 . S
H272 C296 0.950 . S
H273 C297 0.951 . S
H274 C299 0.951 . S
H275 C301 0.950 . S
H276 C302 0.950 . S
H277 C304 0.950 . S
H278 C307 0.950 . S
H279 C308 0.950 . S
H280 C310 0.950 . S
H281 C311 0.950 . S
C282 H264 0.951 . S
C282 C283 1.366 . S
C282 C284 1.388 . S
C283 C282 1.366 . S
C283 C287 1.385 . S
C284 H265 0.951 . S
C284 C282 1.388 . S
C284 C285 1.366 . S
C285 C284 1.366 . S
C285 C286 1.414 . S
C285 C288 1.499 . S
C286 H266 0.950 . S
C286 C285 1.414 . S
C286 C287 1.374 . S
C287 H267 0.950 . S
C287 C283 1.385 . S
C287 C286 1.374 . S
C288 C285 1.499 . S
C288 C289 1.373 . S
C288 C290 1.389 . S
C289 H268 0.950 . S
C289 C288 1.373 . S
C289 C305 1.377 . S
C290 C288 1.389 . S
C290 C291 1.524 . S
C290 C304 1.377 . S
C291 C290 1.524 . S
C291 C292 1.397 . S
C291 C296 1.363 . S
C292 H269 0.950 . S
C292 C291 1.397 . S
C292 C293 1.334 . S
C293 H270 0.950 . S
C293 C292 1.334 . S
C293 C294 1.287 . S
C294 C293 1.287 . S
C294 C295 1.524 . S
C294 H313 0.913 . S
C295 H271 0.950 . S
C295 C294 1.524 . S
C295 C296 1.415 . S
C296 H272 0.950 . S
C296 C291 1.363 . S
C296 C295 1.415 . S
C297 H273 0.951 . S
C297 C298 1.366 . S
C297 C299 1.388 . S
C298 C297 1.366 . S
C298 C302 1.385 . S
C299 H274 0.951 . S
C299 C297 1.388 . S
C299 C300 1.366 . S
C300 C299 1.366 . S
C300 C301 1.414 . S
C300 C303 1.499 . S
C301 H275 0.950 . S
C301 C300 1.414 . S
C301 C302 1.374 . S
C302 H276 0.950 . S
C302 C298 1.385 . S
C302 C301 1.374 . S
C303 C300 1.499 . S
C303 C304 1.373 . S
C303 C305 1.389 . S
C304 H277 0.950 . S
C304 C290 1.377 . S
C304 C303 1.373 . S
C305 C289 1.377 . S
C305 C303 1.389 . S
C305 C306 1.524 . S
C306 C305 1.524 . S
C306 C307 1.397 . S
C306 C311 1.363 . S
C307 H278 0.950 . S
C307 C306 1.397 . S
C307 C308 1.334 . S
C308 H279 0.950 . S
C308 C307 1.334 . S
C308 C309 1.287 . S
C309 C308 1.287 . S
C309 C310 1.524 . S
C309 H312 0.999 . S
C310 H280 0.950 . S
C310 C309 1.524 . S
C310 C311 1.415 . S
C311 H281 0.950 . S
C311 C306 1.363 . S
C311 C310 1.415 . S
H312 C309 0.999 . S
H313 C294 0.913 . S
H314 C332 0.951 . S
H315 C334 0.951 . S
H316 C336 0.950 . S
H317 C337 0.950 . S
H318 C339 0.950 . S
H319 C342 0.950 . S
H320 C343 0.950 . S
H321 C345 0.950 . S
H322 C346 0.950 . S
H323 C347 0.951 . S
H324 C349 0.951 . S
H325 C351 0.950 . S
H326 C352 0.950 . S
H327 C354 0.950 . S
H328 C357 0.950 . S
H329 C358 0.950 . S
H330 C360 0.950 . S
H331 C361 0.950 . S
C332 H314 0.951 . S
C332 C333 1.366 . S
C332 C334 1.388 . S
C333 C332 1.366 . S
C333 C337 1.385 . S
C334 H315 0.951 . S
C334 C332 1.388 . S
C334 C335 1.366 . S
C335 C334 1.366 . S
C335 C336 1.414 . S
C335 C338 1.499 . S
C336 H316 0.950 . S
C336 C335 1.414 . S
C336 C337 1.374 . S
C337 H317 0.950 . S
C337 C333 1.385 . S
C337 C336 1.374 . S
C338 C335 1.499 . S
C338 C339 1.373 . S
C338 C340 1.389 . S
C339 H318 0.950 . S
C339 C338 1.373 . S
C339 C355 1.377 . S
C340 C338 1.389 . S
C340 C341 1.524 . S
C340 C354 1.377 . S
C341 C340 1.524 . S
C341 C342 1.397 . S
C341 C346 1.363 . S
C342 H319 0.950 . S
C342 C341 1.397 . S
C342 C343 1.334 . S
C343 H320 0.950 . S
C343 C342 1.334 . S
C343 C344 1.287 . S
C344 C343 1.287 . S
C344 C345 1.524 . S
C344 H363 0.913 . S
C345 H321 0.950 . S
C345 C344 1.524 . S
C345 C346 1.415 . S
C346 H322 0.950 . S
C346 C341 1.363 . S
C346 C345 1.415 . S
C347 H323 0.951 . S
C347 C348 1.366 . S
C347 C349 1.388 . S
C348 C347 1.366 . S
C348 C352 1.385 . S
C349 H324 0.951 . S
C349 C347 1.388 . S
C349 C350 1.366 . S
C350 C349 1.366 . S
C350 C351 1.414 . S
C350 C353 1.499 . S
C351 H325 0.950 . S
C351 C350 1.414 . S
C351 C352 1.374 . S
C352 H326 0.950 . S
C352 C348 1.385 . S
C352 C351 1.374 . S
C353 C350 1.499 . S
C353 C354 1.373 . S
C353 C355 1.389 . S
C354 H327 0.950 . S
C354 C340 1.377 . S
C354 C353 1.373 . S
C355 C339 1.377 . S
C355 C353 1.389 . S
C355 C356 1.524 . S
C356 C355 1.524 . S
C356 C357 1.397 . S
C356 C361 1.363 . S
C357 H328 0.950 . S
C357 C356 1.397 . S
C357 C358 1.334 . S
C358 H329 0.950 . S
C358 C357 1.334 . S
C358 C359 1.287 . S
C359 C358 1.287 . S
C359 C360 1.524 . S
C359 H362 0.999 . S
C360 H330 0.950 . S
C360 C359 1.524 . S
C360 C361 1.415 . S
C361 H331 0.950 . S
C361 C356 1.363 . S
C361 C360 1.415 . S
H362 C359 0.999 . S
H363 C344 0.913 . S
H364 C382 0.951 . S
H365 C384 0.951 . S
H366 C386 0.950 . S
H367 C387 0.950 . S
H368 C389 0.950 . S
H369 C392 0.950 . S
H370 C393 0.950 . S
H371 C395 0.950 . S
H372 C396 0.950 . S
H373 C397 0.951 . S
H374 C399 0.951 . S
H375 C401 0.950 . S
H376 C402 0.950 . S
H377 C404 0.950 . S
H378 C407 0.950 . S
H379 C408 0.950 . S
H380 C410 0.950 . S
H381 C411 0.950 . S
C382 H364 0.951 . S
C382 C383 1.366 . S
C382 C384 1.388 . S
C383 C382 1.366 . S
C383 C387 1.385 . S
C384 H365 0.951 . S
C384 C382 1.388 . S
C384 C385 1.366 . S
C385 C384 1.366 . S
C385 C386 1.414 . S
C385 C388 1.499 . S
C386 H366 0.950 . S
C386 C385 1.414 . S
C386 C387 1.374 . S
C387 H367 0.950 . S
C387 C383 1.385 . S
C387 C386 1.374 . S
C388 C385 1.499 . S
C388 C389 1.373 . S
C388 C390 1.389 . S
C389 H368 0.950 . S
C389 C388 1.373 . S
C389 C405 1.377 . S
C390 C388 1.389 . S
C390 C391 1.524 . S
C390 C404 1.377 . S
C391 C390 1.524 . S
C391 C392 1.397 . S
C391 C396 1.363 . S
C392 H369 0.950 . S
C392 C391 1.397 . S
C392 C393 1.334 . S
C393 H370 0.950 . S
C393 C392 1.334 . S
C393 C394 1.287 . S
C394 C393 1.287 . S
C394 C395 1.524 . S
C394 H413 0.913 . S
C395 H371 0.950 . S
C395 C394 1.524 . S
C395 C396 1.415 . S
C396 H372 0.950 . S
C396 C391 1.363 . S
C396 C395 1.415 . S
C397 H373 0.951 . S
C397 C398 1.366 . S
C397 C399 1.388 . S
C398 C397 1.366 . S
C398 C402 1.385 . S
C399 H374 0.951 . S
C399 C397 1.388 . S
C399 C400 1.366 . S
C400 C399 1.366 . S
C400 C401 1.414 . S
C400 C403 1.499 . S
C401 H375 0.950 . S
C401 C400 1.414 . S
C401 C402 1.374 . S
C402 H376 0.950 . S
C402 C398 1.385 . S
C402 C401 1.374 . S
C403 C400 1.499 . S
C403 C404 1.373 . S
C403 C405 1.389 . S
C404 H377 0.950 . S
C404 C390 1.377 . S
C404 C403 1.373 . S
C405 C389 1.377 . S
C405 C403 1.389 . S
C405 C406 1.524 . S
C406 C405 1.524 . S
C406 C407 1.397 . S
C406 C411 1.363 . S
C407 H378 0.950 . S
C407 C406 1.397 . S
C407 C408 1.334 . S
C408 H379 0.950 . S
C408 C407 1.334 . S
C408 C409 1.287 . S
C409 C408 1.287 . S
C409 C410 1.524 . S
C409 H412 0.999 . S
C410 H380 0.950 . S
C410 C409 1.524 . S
C410 C411 1.415 . S
C411 H381 0.950 . S
C411 C406 1.363 . S
C411 C410 1.415 . S
H412 C409 0.999 . S
H413 C394 0.913 . S
H414 C432 0.951 . S
H415 C434 0.951 . S
H416 C436 0.950 . S
H417 C437 0.950 . S
H418 C439 0.950 . S
H419 C442 0.950 . S
H420 C443 0.950 . S
H421 C445 0.950 . S
H422 C446 0.950 . S
H423 C447 0.951 . S
H424 C449 0.951 . S
H425 C451 0.950 . S
H426 C452 0.950 . S
H427 C454 0.950 . S
H428 C457 0.950 . S
H429 C458 0.950 . S
H430 C460 0.950 . S
H431 C461 0.950 . S
C432 H414 0.951 . S
C432 C433 1.366 . S
C432 C434 1.388 . S
C433 C432 1.366 . S
C433 C437 1.385 . S
C434 H415 0.951 . S
C434 C432 1.388 . S
C434 C435 1.366 . S
C435 C434 1.366 . S
C435 C436 1.414 . S
C435 C438 1.499 . S
C436 H416 0.950 . S
C436 C435 1.414 . S
C436 C437 1.374 . S
C437 H417 0.950 . S
C437 C433 1.385 . S
C437 C436 1.374 . S
C438 C435 1.499 . S
C438 C439 1.373 . S
C438 C440 1.389 . S
C439 H418 0.950 . S
C439 C438 1.373 . S
C439 C455 1.377 . S
C440 C438 1.389 . S
C440 C441 1.524 . S
C440 C454 1.377 . S
C441 C440 1.524 . S
C441 C442 1.397 . S
C441 C446 1.363 . S
C442 H419 0.950 . S
C442 C441 1.397 . S
C442 C443 1.334 . S
C443 H420 0.950 . S
C443 C442 1.334 . S
C443 C444 1.287 . S
C444 C443 1.287 . S
C444 C445 1.524 . S
C444 H463 0.913 . S
C445 H421 0.950 . S
C445 C444 1.524 . S
C445 C446 1.415 . S
C446 H422 0.950 . S
C446 C441 1.363 . S
C446 C445 1.415 . S
C447 H423 0.951 . S
C447 C448 1.366 . S
C447 C449 1.388 . S
C448 C447 1.366 . S
C448 C452 1.385 . S
C449 H424 0.951 . S
C449 C447 1.388 . S
C449 C450 1.366 . S
C450 C449 1.366 . S
C450 C451 1.414 . S
C450 C453 1.499 . S
C451 H425 0.950 . S
C451 C450 1.414 . S
C451 C452 1.374 . S
C452 H426 0.950 . S
C452 C448 1.385 . S
C452 C451 1.374 . S
C453 C450 1.499 . S
C453 C454 1.373 . S
C453 C455 1.389 . S
C454 H427 0.950 . S
C454 C440 1.377 . S
C454 C453 1.373 . S
C455 C439 1.377 . S
C455 C453 1.389 . S
C455 C456 1.524 . S
C456 C455 1.524 . S
C456 C457 1.397 . S
C456 C461 1.363 . S
C457 H428 0.950 . S
C457 C456 1.397 . S
C457 C458 1.334 . S
C458 H429 0.950 . S
C458 C457 1.334 . S
C458 C459 1.287 . S
C459 C458 1.287 . S
C459 C460 1.524 . S
C459 H462 0.999 . S
C460 H430 0.950 . S
C460 C459 1.524 . S
C460 C461 1.415 . S
C461 H431 0.950 . S
C461 C456 1.363 . S
C461 C460 1.415 . S
H462 C459 0.999 . S
H463 C444 0.913 . S
H464 C482 0.951 . S
H465 C484 0.951 . S
H466 C486 0.950 . S
H467 C487 0.950 . S
H468 C489 0.950 . S
H469 C492 0.950 . S
H470 C493 0.950 . S
H471 C495 0.950 . S
H472 C496 0.950 . S
H473 C497 0.951 . S
H474 C499 0.951 . S
H475 C501 0.950 . S
H476 C502 0.950 . S
H477 C504 0.950 . S
H478 C507 0.950 . S
H479 C508 0.950 . S
H480 C510 0.950 . S
H481 C511 0.950 . S
C482 H464 0.951 . S
C482 C483 1.366 . S
C482 C484 1.388 . S
C483 C482 1.366 . S
C483 C487 1.385 . S
C484 H465 0.951 . S
C484 C482 1.388 . S
C484 C485 1.366 . S
C485 C484 1.366 . S
C485 C486 1.414 . S
C485 C488 1.499 . S
C486 H466 0.950 . S
C486 C485 1.414 . S
C486 C487 1.374 . S
C487 H467 0.950 . S
C487 C483 1.385 . S
C487 C486 1.374 . S
C488 C485 1.499 . S
C488 C489 1.373 . S
C488 C490 1.389 . S
C489 H468 0.950 . S
C489 C488 1.373 . S
C489 C505 1.377 . S
C490 C488 1.389 . S
C490 C491 1.524 . S
C490 C504 1.377 . S
C491 C490 1.524 . S
C491 C492 1.397 . S
C491 C496 1.363 . S
C492 H469 0.950 . S
C492 C491 1.397 . S
C492 C493 1.334 . S
C493 H470 0.950 . S
C493 C492 1.334 . S
C493 C494 1.287 . S
C494 C493 1.287 . S
C494 C495 1.524 . S
C494 H513 0.913 . S
C495 H471 0.950 . S
C495 C494 1.524 . S
C495 C496 1.415 . S
C496 H472 0.950 . S
C496 C491 1.363 . S
C496 C495 1.415 . S
C497 H473 0.951 . S
C497 C498 1.366 . S
C497 C499 1.388 . S
C498 C497 1.366 . S
C498 C502 1.385 . S
C499 H474 0.951 . S
C499 C497 1.388 . S
C499 C500 1.366 . S
C500 C499 1.366 . S
C500 C501 1.414 . S
C500 C503 1.499 . S
C501 H475 0.950 . S
C501 C500 1.414 . S
C501 C502 1.374 . S
C502 H476 0.950 . S
C502 C498 1.385 . S
C502 C501 1.374 . S
C503 C500 1.499 . S
C503 C504 1.373 . S
C503 C505 1.389 . S
C504 H477 0.950 . S
C504 C490 1.377 . S
C504 C503 1.373 . S
C505 C489 1.377 . S
C505 C503 1.389 . S
C505 C506 1.524 . S
C506 C505 1.524 . S
C506 C507 1.397 . S
C506 C511 1.363 . S
C507 H478 0.950 . S
C507 C506 1.397 . S
C507 C508 1.334 . S
C508 H479 0.950 . S
C508 C507 1.334 . S
C508 C509 1.287 . S
C509 C508 1.287 . S
C509 C510 1.524 . S
C509 H512 0.999 . S
C510 H480 0.950 . S
C510 C509 1.524 . S
C510 C511 1.415 . S
C511 H481 0.950 . S
C511 C506 1.363 . S
C511 C510 1.415 . S
H512 C509 0.999 . S
H513 C494 0.913 . S
H514 C532 0.951 . S
H515 C534 0.951 . S
H516 C536 0.950 . S
H517 C537 0.950 . S
H518 C539 0.950 . S
H519 C542 0.950 . S
H520 C543 0.950 . S
H521 C545 0.950 . S
H522 C546 0.950 . S
H523 C547 0.951 . S
H524 C549 0.951 . S
H525 C551 0.950 . S
H526 C552 0.950 . S
H527 C554 0.950 . S
H528 C557 0.950 . S
H529 C558 0.950 . S
H530 C560 0.950 . S
H531 C561 0.950 . S
C532 H514 0.951 . S
C532 C533 1.366 . S
C532 C534 1.388 . S
C533 C532 1.366 . S
C533 C537 1.385 . S
C534 H515 0.951 . S
C534 C532 1.388 . S
C534 C535 1.366 . S
C535 C534 1.366 . S
C535 C536 1.414 . S
C535 C538 1.499 . S
C536 H516 0.950 . S
C536 C535 1.414 . S
C536 C537 1.374 . S
C537 H517 0.950 . S
C537 C533 1.385 . S
C537 C536 1.374 . S
C538 C535 1.499 . S
C538 C539 1.373 . S
C538 C540 1.389 . S
C539 H518 0.950 . S
C539 C538 1.373 . S
C539 C555 1.377 . S
C540 C538 1.389 . S
C540 C541 1.524 . S
C540 C554 1.377 . S
C541 C540 1.524 . S
C541 C542 1.397 . S
C541 C546 1.363 . S
C542 H519 0.950 . S
C542 C541 1.397 . S
C542 C543 1.334 . S
C543 H520 0.950 . S
C543 C542 1.334 . S
C543 C544 1.287 . S
C544 C543 1.287 . S
C544 C545 1.524 . S
C544 H563 0.913 . S
C545 H521 0.950 . S
C545 C544 1.524 . S
C545 C546 1.415 . S
C546 H522 0.950 . S
C546 C541 1.363 . S
C546 C545 1.415 . S
C547 H523 0.951 . S
C547 C548 1.366 . S
C547 C549 1.388 . S
C548 C547 1.366 . S
C548 C552 1.385 . S
C549 H524 0.951 . S
C549 C547 1.388 . S
C549 C550 1.366 . S
C550 C549 1.366 . S
C550 C551 1.414 . S
C550 C553 1.499 . S
C551 H525 0.950 . S
C551 C550 1.414 . S
C551 C552 1.374 . S
C552 H526 0.950 . S
C552 C548 1.385 . S
C552 C551 1.374 . S
C553 C550 1.499 . S
C553 C554 1.373 . S
C553 C555 1.389 . S
C554 H527 0.950 . S
C554 C540 1.377 . S
C554 C553 1.373 . S
C555 C539 1.377 . S
C555 C553 1.389 . S
C555 C556 1.524 . S
C556 C555 1.524 . S
C556 C557 1.397 . S
C556 C561 1.363 . S
C557 H528 0.950 . S
C557 C556 1.397 . S
C557 C558 1.334 . S
C558 H529 0.950 . S
C558 C557 1.334 . S
C558 C559 1.287 . S
C559 C558 1.287 . S
C559 C560 1.524 . S
C559 H562 0.999 . S
C560 H530 0.950 . S
C560 C559 1.524 . S
C560 C561 1.415 . S
C561 H531 0.950 . S
C561 C556 1.363 . S
C561 C560 1.415 . S
H562 C559 0.999 . S
H563 C544 0.913 . S
H564 C582 0.951 . S
H565 C584 0.951 . S
H566 C586 0.950 . S
H567 C587 0.950 . S
H568 C589 0.950 . S
H569 C592 0.950 . S
H570 C593 0.950 . S
H571 C595 0.950 . S
H572 C596 0.950 . S
H573 C597 0.951 . S
H574 C599 0.951 . S
H575 C601 0.950 . S
H576 C602 0.950 . S
H577 C604 0.950 . S
H578 C607 0.950 . S
H579 C608 0.950 . S
H580 C610 0.950 . S
H581 C611 0.950 . S
C582 H564 0.951 . S
C582 C583 1.366 . S
C582 C584 1.388 . S
C583 C582 1.366 . S
C583 C587 1.385 . S
C584 H565 0.951 . S
C584 C582 1.388 . S
C584 C585 1.366 . S
C585 C584 1.366 . S
C585 C586 1.414 . S
C585 C588 1.499 . S
C586 H566 0.950 . S
C586 C585 1.414 . S
C586 C587 1.374 . S
C587 H567 0.950 . S
C587 C583 1.385 . S
C587 C586 1.374 . S
C588 C585 1.499 . S
C588 C589 1.373 . S
C588 C590 1.389 . S
C589 H568 0.950 . S
C589 C588 1.373 . S
C589 C605 1.377 . S
C590 C588 1.389 . S
C590 C591 1.524 . S
C590 C604 1.377 . S
C591 C590 1.524 . S
C591 C592 1.397 . S
C591 C596 1.363 . S
C592 H569 0.950 . S
C592 C591 1.397 . S
C592 C593 1.334 . S
C593 H570 0.950 . S
C593 C592 1.334 . S
C593 C594 1.287 . S
C594 C593 1.287 . S
C594 C595 1.524 . S
C594 H613 0.913 . S
C595 H571 0.950 . S
C595 C594 1.524 . S
C595 C596 1.415 . S
C596 H572 0.950 . S
C596 C591 1.363 . S
C596 C595 1.415 . S
C597 H573 0.951 . S
C597 C598 1.366 . S
C597 C599 1.388 . S
C598 C597 1.366 . S
C598 C602 1.385 . S
C599 H574 0.951 . S
C599 C597 1.388 . S
C599 C600 1.366 . S
C600 C599 1.366 . S
C600 C601 1.414 . S
C600 C603 1.499 . S
C601 H575 0.950 . S
C601 C600 1.414 . S
C601 C602 1.374 . S
C602 H576 0.950 . S
C602 C598 1.385 . S
C602 C601 1.374 . S
C603 C600 1.499 . S
C603 C604 1.373 . S
C603 C605 1.389 . S
C604 H577 0.950 . S
C604 C590 1.377 . S
C604 C603 1.373 . S
C605 C589 1.377 . S
C605 C603 1.389 . S
C605 C606 1.524 . S
C606 C605 1.524 . S
C606 C607 1.397 . S
C606 C611 1.363 . S
C607 H578 0.950 . S
C607 C606 1.397 . S
C607 C608 1.334 . S
C608 H579 0.950 . S
C608 C607 1.334 . S
C608 C609 1.287 . S
C609 C608 1.287 . S
C609 C610 1.524 . S
C609 H612 0.999 . S
C610 H580 0.950 . S
C610 C609 1.524 . S
C610 C611 1.415 . S
C611 H581 0.950 . S
C611 C606 1.363 . S
C611 C610 1.415 . S
H612 C609 0.999 . S
H613 C594 0.913 . S
H614 C632 0.951 . S
H615 C634 0.951 . S
H616 C636 0.950 . S
H617 C637 0.950 . S
H618 C639 0.950 . S
H619 C642 0.950 . S
H620 C643 0.950 . S
H621 C645 0.950 . S
H622 C646 0.950 . S
H623 C647 0.951 . S
H624 C649 0.951 . S
H625 C651 0.950 . S
H626 C652 0.950 . S
H627 C654 0.950 . S
H628 C657 0.950 . S
H629 C658 0.950 . S
H630 C660 0.950 . S
H631 C661 0.950 . S
C632 H614 0.951 . S
C632 C633 1.366 . S
C632 C634 1.388 . S
C633 C632 1.366 . S
C633 C637 1.385 . S
C634 H615 0.951 . S
C634 C632 1.388 . S
C634 C635 1.366 . S
C635 C634 1.366 . S
C635 C636 1.414 . S
C635 C638 1.499 . S
C636 H616 0.950 . S
C636 C635 1.414 . S
C636 C637 1.374 . S
C637 H617 0.950 . S
C637 C633 1.385 . S
C637 C636 1.374 . S
C638 C635 1.499 . S
C638 C639 1.373 . S
C638 C640 1.389 . S
C639 H618 0.950 . S
C639 C638 1.373 . S
C639 C655 1.377 . S
C640 C638 1.389 . S
C640 C641 1.524 . S
C640 C654 1.377 . S
C641 C640 1.524 . S
C641 C642 1.397 . S
C641 C646 1.363 . S
C642 H619 0.950 . S
C642 C641 1.397 . S
C642 C643 1.334 . S
C643 H620 0.950 . S
C643 C642 1.334 . S
C643 C644 1.287 . S
C644 C643 1.287 . S
C644 C645 1.524 . S
C644 H663 0.913 . S
C645 H621 0.950 . S
C645 C644 1.524 . S
C645 C646 1.415 . S
C646 H622 0.950 . S
C646 C641 1.363 . S
C646 C645 1.415 . S
C647 H623 0.951 . S
C647 C648 1.366 . S
C647 C649 1.388 . S
C648 C647 1.366 . S
C648 C652 1.385 . S
C649 H624 0.951 . S
C649 C647 1.388 . S
C649 C650 1.366 . S
C650 C649 1.366 . S
C650 C651 1.414 . S
C650 C653 1.499 . S
C651 H625 0.950 . S
C651 C650 1.414 . S
C651 C652 1.374 . S
C652 H626 0.950 . S
C652 C648 1.385 . S
C652 C651 1.374 . S
C653 C650 1.499 . S
C653 C654 1.373 . S
C653 C655 1.389 . S
C654 H627 0.950 . S
C654 C640 1.377 . S
C654 C653 1.373 . S
C655 C639 1.377 . S
C655 C653 1.389 . S
C655 C656 1.524 . S
C656 C655 1.524 . S
C656 C657 1.397 . S
C656 C661 1.363 . S
C657 H628 0.950 . S
C657 C656 1.397 . S
C657 C658 1.334 . S
C658 H629 0.950 . S
C658 C657 1.334 . S
C658 C659 1.287 . S
C659 C658 1.287 . S
C659 C660 1.524 . S
C659 H662 0.999 . S
C660 H630 0.950 . S
C660 C659 1.524 . S
C660 C661 1.415 . S
C661 H631 0.950 . S
C661 C656 1.363 . S
C661 C660 1.415 . S
H662 C659 0.999 . S
H663 C644 0.913 . S
H664 C682 0.951 . S
H665 C684 0.951 . S
H666 C686 0.950 . S
H667 C687 0.950 . S
H668 C689 0.950 . S
H669 C692 0.950 . S
H670 C693 0.950 . S
H671 C695 0.950 . S
H672 C696 0.950 . S
H673 C697 0.951 . S
H674 C699 0.951 . S
H675 C701 0.950 . S
H676 C702 0.950 . S
H677 C704 0.950 . S
H678 C707 0.950 . S
H679 C708 0.950 . S
H680 C710 0.950 . S
H681 C711 0.950 . S
C682 H664 0.951 . S
C682 C683 1.366 . S
C682 C684 1.388 . S
C683 C682 1.366 . S
C683 C687 1.385 . S
C684 H665 0.951 . S
C684 C682 1.388 . S
C684 C685 1.366 . S
C685 C684 1.366 . S
C685 C686 1.414 . S
C685 C688 1.499 . S
C686 H666 0.950 . S
C686 C685 1.414 . S
C686 C687 1.374 . S
C687 H667 0.950 . S
C687 C683 1.385 . S
C687 C686 1.374 . S
C688 C685 1.499 . S
C688 C689 1.373 . S
C688 C690 1.389 . S
C689 H668 0.950 . S
C689 C688 1.373 . S
C689 C705 1.377 . S
C690 C688 1.389 . S
C690 C691 1.524 . S
C690 C704 1.377 . S
C691 C690 1.524 . S
C691 C692 1.397 . S
C691 C696 1.363 . S
C692 H669 0.950 . S
C692 C691 1.397 . S
C692 C693 1.334 . S
C693 H670 0.950 . S
C693 C692 1.334 . S
C693 C694 1.287 . S
C694 C693 1.287 . S
C694 C695 1.524 . S
C694 H713 0.913 . S
C695 H671 0.950 . S
C695 C694 1.524 . S
C695 C696 1.415 . S
C696 H672 0.950 . S
C696 C691 1.363 . S
C696 C695 1.415 . S
C697 H673 0.951 . S
C697 C698 1.366 . S
C697 C699 1.388 . S
C698 C697 1.366 . S
C698 C702 1.385 . S
C699 H674 0.951 . S
C699 C697 1.388 . S
C699 C700 1.366 . S
C700 C699 1.366 . S
C700 C701 1.414 . S
C700 C703 1.499 . S
C701 H675 0.950 . S
C701 C700 1.414 . S
C701 C702 1.374 . S
C702 H676 0.950 . S
C702 C698 1.385 . S
C702 C701 1.374 . S
C703 C700 1.499 . S
C703 C704 1.373 . S
C703 C705 1.389 . S
C704 H677 0.950 . S
C704 C690 1.377 . S
C704 C703 1.373 . S
C705 C689 1.377 . S
C705 C703 1.389 . S
C705 C706 1.524 . S
C706 C705 1.524 . S
C706 C707 1.397 . S
C706 C711 1.363 . S
C707 H678 0.950 . S
C707 C706 1.397 . S
C707 C708 1.334 . S
C708 H679 0.950 . S
C708 C707 1.334 . S
C708 C709 1.287 . S
C709 C708 1.287 . S
C709 C710 1.524 . S
C709 H712 0.999 . S
C710 H680 0.950 . S
C710 C709 1.524 . S
C710 C711 1.415 . S
C711 H681 0.950 . S
C711 C706 1.363 . S
C711 C710 1.415 . S
H712 C709 0.999 . S
H713 C694 0.913 . S
H714 C732 0.951 . S
H715 C734 0.949 . S
H716 C736 0.950 . S
H717 C737 0.950 . S
H718 C739 0.950 1_655 S
H719 C742 0.950 . S
H720 C743 0.950 . S
H721 C745 0.950 . S
H722 C746 0.950 . S
H723 C747 0.951 . S
H724 C749 0.951 . S
H725 C751 0.950 . S
H726 C752 0.950 . S
H727 C754 0.950 . S
H728 C757 0.950 . S
H729 C758 0.950 . S
H730 C760 0.950 . S
H731 C761 0.950 1_455 S
C732 H714 0.951 . S
C732 C733 1.366 1_655 S
C732 C734 1.389 . S
C733 C732 1.366 1_455 S
C733 C737 1.385 . S
C734 H715 0.949 . S
C734 C732 1.389 . S
C734 C735 1.367 1_655 S
C735 C734 1.367 1_455 S
C735 C736 1.414 . S
C735 C738 1.499 . S
C736 H716 0.950 . S
C736 C735 1.414 . S
C736 C737 1.374 . S
C737 H717 0.950 . S
C737 C733 1.385 . S
C737 C736 1.374 . S
C738 C735 1.499 . S
C738 C739 1.373 . S
C738 C740 1.389 . S
C739 H718 0.950 1_455 S
C739 C738 1.373 . S
C739 C755 1.377 . S
C740 C738 1.389 . S
C740 C741 1.524 . S
C740 C754 1.377 . S
C741 C740 1.524 . S
C741 C742 1.397 . S
C741 C746 1.363 . S
C742 H719 0.950 . S
C742 C741 1.397 . S
C742 C743 1.334 . S
C743 H720 0.950 . S
C743 C742 1.334 . S
C743 C744 1.287 . S
C744 C743 1.287 . S
C744 C745 1.524 . S
C744 H763 0.913 . S
C745 H721 0.950 . S
C745 C744 1.524 . S
C745 C746 1.415 . S
C746 H722 0.950 . S
C746 C741 1.363 . S
C746 C745 1.415 . S
C747 H723 0.951 . S
C747 C748 1.366 . S
C747 C749 1.388 . S
C748 C747 1.366 . S
C748 C752 1.385 . S
C749 H724 0.951 . S
C749 C747 1.388 . S
C749 C750 1.366 . S
C750 C749 1.366 . S
C750 C751 1.414 . S
C750 C753 1.499 1_556 S
C751 H725 0.950 . S
C751 C750 1.414 . S
C751 C752 1.374 . S
C752 H726 0.950 . S
C752 C748 1.385 . S
C752 C751 1.374 . S
C753 C750 1.499 1_554 S
C753 C754 1.373 . S
C753 C755 1.389 . S
C754 H727 0.950 . S
C754 C740 1.377 . S
C754 C753 1.373 . S
C755 C739 1.377 . S
C755 C753 1.389 . S
C755 C756 1.524 1_455 S
C756 C755 1.524 1_655 S
C756 C757 1.397 1_554 S
C756 C761 1.363 . S
C757 H728 0.950 . S
C757 C756 1.397 1_556 S
C757 C758 1.334 . S
C758 H729 0.950 . S
C758 C757 1.334 . S
C758 C759 1.287 . S
C759 C758 1.287 . S
C759 C760 1.524 1_556 S
C759 H762 0.999 . S
C760 H730 0.950 . S
C760 C759 1.524 1_554 S
C760 C761 1.415 . S
C761 H731 0.950 1_655 S
C761 C756 1.363 . S
C761 C760 1.415 . S
H762 C759 0.999 . S
H763 C744 0.913 . S
H764 C782 0.951 . S
H765 C784 0.951 . S
H766 C786 0.950 . S
H767 C787 0.950 . S
H768 C789 0.950 . S
H769 C792 0.950 . S
H770 C793 0.950 . S
H771 C795 0.950 1_565 S
H772 C796 0.959 . S
H773 C797 0.951 . S
H774 C799 0.951 . S
H775 C801 0.979 . S
H776 C802 0.950 1_565 S
H777 C804 0.950 . S
H778 C807 0.950 . S
H779 C808 0.950 . S
H780 C810 0.950 . S
H781 C811 0.950 . S
C782 H764 0.951 . S
C782 C783 1.366 1_565 S
C782 C784 1.388 . S
C783 C782 1.366 1_545 S
C783 C787 1.385 . S
C784 H765 0.951 . S
C784 C782 1.388 . S
C784 C785 1.366 1_565 S
C785 C784 1.366 1_545 S
C785 C786 1.414 . S
C785 C788 1.499 . S
C786 H766 0.950 . S
C786 C785 1.414 . S
C786 C787 1.374 . S
C787 H767 0.950 . S
C787 C783 1.385 . S
C787 C786 1.374 . S
C788 C785 1.499 . S
C788 C789 1.373 . S
C788 C790 1.389 . S
C789 H768 0.950 . S
C789 C788 1.373 . S
C789 C805 1.377 . S
C790 C788 1.389 . S
C790 C791 1.524 . S
C790 C804 1.377 . S
C791 C790 1.524 . S
C791 C792 1.397 . S
C791 C796 1.347 1_545 S
C792 H769 0.950 . S
C792 C791 1.397 . S
C792 C793 1.334 . S
C793 H770 0.950 . S
C793 C792 1.334 . S
C793 C794 1.287 . S
C794 C793 1.287 . S
C794 C795 1.524 . S
C794 H813 0.913 . S
C795 H771 0.950 1_545 S
C795 C794 1.524 . S
C795 C796 1.423 1_545 S
C796 H772 0.959 . S
C796 C791 1.347 1_565 S
C796 C795 1.423 1_565 S
C797 H773 0.951 . S
C797 C798 1.366 . S
C797 C799 1.388 . S
C798 C797 1.366 . S
C798 C802 1.385 . S
C799 H774 0.951 . S
C799 C797 1.388 . S
C799 C800 1.366 . S
C800 C799 1.366 . S
C800 C801 1.390 1_545 S
C800 C803 1.499 . S
C801 H775 0.979 . S
C801 C800 1.390 1_565 S
C801 C802 1.369 1_565 S
C802 H776 0.950 1_545 S
C802 C798 1.385 . S
C802 C801 1.369 1_545 S
C803 C800 1.499 . S
C803 C804 1.373 . S
C803 C805 1.389 . S
C804 H777 0.950 . S
C804 C790 1.377 . S
C804 C803 1.373 . S
C805 C789 1.377 . S
C805 C803 1.389 . S
C805 C806 1.524 . S
C806 C805 1.524 . S
C806 C807 1.397 1_545 S
C806 C811 1.363 . S
C807 H778 0.950 . S
C807 C806 1.397 1_565 S
C807 C808 1.334 . S
C808 H779 0.950 . S
C808 C807 1.334 . S
C808 C809 1.287 1_565 S
C809 C808 1.287 1_545 S
C809 C810 1.524 . S
C809 H812 0.999 . S
C810 H780 0.950 . S
C810 C809 1.524 . S
C810 C811 1.415 . S
C811 H781 0.950 . S
C811 C806 1.363 . S
C811 C810 1.415 . S
H812 C809 0.999 . S
H813 C794 0.913 . S
H814 C832 0.951 . S
H815 C834 0.951 . S
H816 C836 0.950 . S
H817 C837 0.950 . S
H818 C839 0.950 . S
H819 C842 0.950 . S
H820 C843 0.950 . S
H821 C845 0.950 . S
H822 C846 0.950 . S
H823 C847 0.951 . S
H824 C849 0.951 . S
H825 C851 0.950 . S
H826 C852 0.950 . S
H827 C854 0.950 . S
H828 C857 0.950 . S
H829 C858 0.950 . S
H830 C860 0.950 . S
H831 C861 0.950 . S
C832 H814 0.951 . S
C832 C833 1.366 . S
C832 C834 1.388 . S
C833 C832 1.366 . S
C833 C837 1.385 . S
C834 H815 0.951 . S
C834 C832 1.388 . S
C834 C835 1.366 . S
C835 C834 1.366 . S
C835 C836 1.414 . S
C835 C838 1.499 . S
C836 H816 0.950 . S
C836 C835 1.414 . S
C836 C837 1.374 . S
C837 H817 0.950 . S
C837 C833 1.385 . S
C837 C836 1.374 . S
C838 C835 1.499 . S
C838 C839 1.373 . S
C838 C840 1.389 . S
C839 H818 0.950 . S
C839 C838 1.373 . S
C839 C855 1.377 . S
C840 C838 1.389 . S
C840 C841 1.524 . S
C840 C854 1.377 . S
C841 C840 1.524 . S
C841 C842 1.397 . S
C841 C846 1.363 . S
C842 H819 0.950 . S
C842 C841 1.397 . S
C842 C843 1.334 . S
C843 H820 0.950 . S
C843 C842 1.334 . S
C843 C844 1.287 . S
C844 C843 1.287 . S
C844 C845 1.524 . S
C844 H863 0.913 . S
C845 H821 0.950 . S
C845 C844 1.524 . S
C845 C846 1.415 . S
C846 H822 0.950 . S
C846 C841 1.363 . S
C846 C845 1.415 . S
C847 H823 0.951 . S
C847 C848 1.366 . S
C847 C849 1.388 . S
C848 C847 1.366 . S
C848 C852 1.385 . S
C849 H824 0.951 . S
C849 C847 1.388 . S
C849 C850 1.366 . S
C850 C849 1.366 . S
C850 C851 1.414 . S
C850 C853 1.499 . S
C851 H825 0.950 . S
C851 C850 1.414 . S
C851 C852 1.374 . S
C852 H826 0.950 . S
C852 C848 1.385 . S
C852 C851 1.374 . S
C853 C850 1.499 . S
C853 C854 1.373 . S
C853 C855 1.389 . S
C854 H827 0.950 . S
C854 C840 1.377 . S
C854 C853 1.373 . S
C855 C839 1.377 . S
C855 C853 1.389 . S
C855 C856 1.524 . S
C856 C855 1.524 . S
C856 C857 1.397 . S
C856 C861 1.363 . S
C857 H828 0.950 . S
C857 C856 1.397 . S
C857 C858 1.334 . S
C858 H829 0.950 . S
C858 C857 1.334 . S
C858 C859 1.287 . S
C859 C858 1.287 . S
C859 C860 1.524 . S
C859 H862 0.999 . S
C860 H830 0.950 . S
C860 C859 1.524 . S
C860 C861 1.415 . S
C861 H831 0.950 . S
C861 C856 1.363 . S
C861 C860 1.415 . S
H862 C859 0.999 . S
H863 C844 0.913 . S
H864 C882 0.951 . S
H865 C884 0.951 . S
H866 C886 0.950 . S
H867 C887 0.950 . S
H868 C889 0.950 . S
H869 C892 0.950 . S
H870 C893 0.950 . S
H871 C895 0.950 . S
H872 C896 0.950 . S
H873 C897 0.951 . S
H874 C899 0.951 . S
H875 C901 0.950 . S
H876 C902 0.950 . S
H877 C904 0.950 . S
H878 C907 0.950 . S
H879 C908 0.950 . S
H880 C910 0.950 . S
H881 C911 0.950 . S
C882 H864 0.951 . S
C882 C883 1.366 . S
C882 C884 1.388 . S
C883 C882 1.366 . S
C883 C887 1.385 . S
C884 H865 0.951 . S
C884 C882 1.388 . S
C884 C885 1.366 . S
C885 C884 1.366 . S
C885 C886 1.414 . S
C885 C888 1.499 . S
C886 H866 0.950 . S
C886 C885 1.414 . S
C886 C887 1.374 . S
C887 H867 0.950 . S
C887 C883 1.385 . S
C887 C886 1.374 . S
C888 C885 1.499 . S
C888 C889 1.373 . S
C888 C890 1.389 1_545 S
C889 H868 0.950 . S
C889 C888 1.373 . S
C889 C905 1.377 . S
C890 C888 1.389 1_565 S
C890 C891 1.524 . S
C890 C904 1.377 . S
C891 C890 1.524 . S
C891 C892 1.397 . S
C891 C896 1.363 . S
C892 H869 0.950 . S
C892 C891 1.397 . S
C892 C893 1.334 . S
C893 H870 0.950 . S
C893 C892 1.334 . S
C893 C894 1.287 . S
C894 C893 1.287 . S
C894 C895 1.524 . S
C894 H913 0.913 . S
C895 H871 0.950 . S
C895 C894 1.524 . S
C895 C896 1.415 . S
C896 H872 0.950 . S
C896 C891 1.363 . S
C896 C895 1.415 . S
C897 H873 0.951 . S
C897 C898 1.366 . S
C897 C899 1.388 . S
C898 C897 1.366 . S
C898 C902 1.385 . S
C899 H874 0.951 . S
C899 C897 1.388 . S
C899 C900 1.366 . S
C900 C899 1.366 . S
C900 C901 1.414 . S
C900 C903 1.499 . S
C901 H875 0.950 . S
C901 C900 1.414 . S
C901 C902 1.374 . S
C902 H876 0.950 . S
C902 C898 1.385 . S
C902 C901 1.374 . S
C903 C900 1.499 . S
C903 C904 1.373 1_545 S
C903 C905 1.389 . S
C904 H877 0.950 . S
C904 C890 1.377 . S
C904 C903 1.373 1_565 S
C905 C889 1.377 . S
C905 C903 1.389 . S
C905 C906 1.524 . S
C906 C905 1.524 . S
C906 C907 1.397 . S
C906 C911 1.363 . S
C907 H878 0.950 . S
C907 C906 1.397 . S
C907 C908 1.334 . S
C908 H879 0.950 . S
C908 C907 1.334 . S
C908 C909 1.287 . S
C909 C908 1.287 . S
C909 C910 1.524 . S
C909 H912 0.999 . S
C910 H880 0.950 . S
C910 C909 1.524 . S
C910 C911 1.415 . S
C911 H881 0.950 . S
C911 C906 1.363 . S
C911 C910 1.415 . S
H912 C909 0.999 . S
H913 C894 0.913 . S
H914 C932 0.951 . S
H915 C934 0.951 . S
H916 C936 0.950 . S
H917 C937 0.950 . S
H918 C939 0.950 . S
H919 C942 0.950 . S
H920 C943 0.950 . S
H921 C945 0.950 . S
H922 C946 0.950 . S
H923 C947 0.951 . S
H924 C949 0.951 . S
H925 C951 0.950 . S
H926 C952 0.950 . S
H927 C954 0.950 . S
H928 C957 0.950 . S
H929 C958 0.950 . S
H930 C960 0.950 . S
H931 C961 0.950 . S
C932 H914 0.951 . S
C932 C933 1.366 . S
C932 C934 1.388 . S
C933 C932 1.366 . S
C933 C937 1.385 . S
C934 H915 0.951 . S
C934 C932 1.388 . S
C934 C935 1.366 . S
C935 C934 1.366 . S
C935 C936 1.414 . S
C935 C938 1.499 . S
C936 H916 0.950 . S
C936 C935 1.414 . S
C936 C937 1.374 . S
C937 H917 0.950 . S
C937 C933 1.385 . S
C937 C936 1.374 . S
C938 C935 1.499 . S
C938 C939 1.373 . S
C938 C940 1.389 . S
C939 H918 0.950 . S
C939 C938 1.373 . S
C939 C955 1.377 . S
C940 C938 1.389 . S
C940 C941 1.524 . S
C940 C954 1.377 . S
C941 C940 1.524 . S
C941 C942 1.397 . S
C941 C946 1.363 . S
C942 H919 0.950 . S
C942 C941 1.397 . S
C942 C943 1.334 . S
C943 H920 0.950 . S
C943 C942 1.334 . S
C943 C944 1.287 . S
C944 C943 1.287 . S
C944 C945 1.524 . S
C944 H963 0.913 . S
C945 H921 0.950 . S
C945 C944 1.524 . S
C945 C946 1.415 . S
C946 H922 0.950 . S
C946 C941 1.363 . S
C946 C945 1.415 . S
C947 H923 0.951 . S
C947 C948 1.366 . S
C947 C949 1.388 . S
C948 C947 1.366 . S
C948 C952 1.385 . S
C949 H924 0.951 . S
C949 C947 1.388 . S
C949 C950 1.366 . S
C950 C949 1.366 . S
C950 C951 1.414 . S
C950 C953 1.499 1_554 S
C951 H925 0.950 . S
C951 C950 1.414 . S
C951 C952 1.374 . S
C952 H926 0.950 . S
C952 C948 1.385 . S
C952 C951 1.374 . S
C953 C950 1.499 1_556 S
C953 C954 1.373 . S
C953 C955 1.389 . S
C954 H927 0.950 . S
C954 C940 1.377 . S
C954 C953 1.373 . S
C955 C939 1.377 . S
C955 C953 1.389 . S
C955 C956 1.524 . S
C956 C955 1.524 . S
C956 C957 1.397 1_556 S
C956 C961 1.363 . S
C957 H928 0.950 . S
C957 C956 1.397 1_554 S
C957 C958 1.334 . S
C958 H929 0.950 . S
C958 C957 1.334 . S
C958 C959 1.287 . S
C959 C958 1.287 . S
C959 C960 1.524 1_554 S
C959 H962 0.999 . S
C960 H930 0.950 . S
C960 C959 1.524 1_556 S
C960 C961 1.415 . S
C961 H931 0.950 . S
C961 C956 1.363 . S
C961 C960 1.415 . S
H962 C959 0.999 . S
H963 C944 0.913 . S
H964 C982 0.951 . S
H965 C984 0.951 . S
H966 C986 0.950 . S
H967 C987 0.950 . S
H968 C989 0.950 . S
H969 C992 0.950 . S
H970 C993 0.950 . S
H971 C995 0.950 . S
H972 C996 0.950 . S
H973 C997 0.951 . S
H974 C999 0.951 . S
H975 C1001 0.950 . S
H976 C1002 0.950 . S
H977 C1004 0.950 . S
H978 C1007 0.950 . S
H979 C1008 0.950 . S
H980 C1010 0.950 . S
H981 C1011 0.950 . S
C982 H964 0.951 . S
C982 C983 1.355 1_655 S
C982 C984 1.388 . S
C983 C982 1.355 1_455 S
C983 C987 1.397 . S
C984 H965 0.951 . S
C984 C982 1.388 . S
C984 C985 1.366 1_655 S
C985 C984 1.366 1_455 S
C985 C986 1.414 . S
C985 C988 1.499 . S
C986 H966 0.950 . S
C986 C985 1.414 . S
C986 C987 1.374 . S
C987 H967 0.950 . S
C987 C983 1.397 . S
C987 C986 1.374 . S
C988 C985 1.499 . S
C988 C989 1.373 . S
C988 C990 1.389 1_455 S
C989 H968 0.950 . S
C989 C988 1.373 . S
C989 C1005 1.377 . S
C990 C988 1.389 1_655 S
C990 C991 1.524 . S
C990 C1004 1.377 . S
C991 C990 1.524 . S
C991 C992 1.397 . S
C991 C996 1.363 . S
C992 H969 0.950 . S
C992 C991 1.397 . S
C992 C993 1.334 . S
C993 H970 0.950 . S
C993 C992 1.334 . S
C993 C994 1.287 . S
C994 C993 1.287 . S
C994 C995 1.524 . S
C994 H1013 0.913 . S
C995 H971 0.950 . S
C995 C994 1.524 . S
C995 C996 1.415 . S
C996 H972 0.950 . S
C996 C991 1.363 . S
C996 C995 1.415 . S
C997 H973 0.951 . S
C997 C998 1.366 . S
C997 C999 1.388 . S
C998 C997 1.366 . S
C998 C1002 1.385 1_455 S
C999 H974 0.951 . S
C999 C997 1.388 . S
C999 C1000 1.366 . S
C1000 C999 1.366 . S
C1000 C1001 1.414 1_455 S
C1000 C1003 1.499 . S
C1001 H975 0.950 . S
C1001 C1000 1.414 1_655 S
C1001 C1002 1.374 . S
C1002 H976 0.950 . S
C1002 C998 1.385 1_655 S
C1002 C1001 1.374 . S
C1003 C1000 1.499 . S
C1003 C1004 1.373 1_455 S
C1003 C1005 1.389 . S
C1004 H977 0.950 . S
C1004 C990 1.377 . S
C1004 C1003 1.373 1_655 S
C1005 C989 1.377 . S
C1005 C1003 1.389 . S
C1005 C1006 1.524 . S
C1006 C1005 1.524 . S
C1006 C1007 1.397 . S
C1006 C1011 1.363 . S
C1007 H978 0.950 . S
C1007 C1006 1.397 . S
C1007 C1008 1.334 . S
C1008 H979 0.950 . S
C1008 C1007 1.334 . S
C1008 C1009 1.287 . S
C1009 C1008 1.287 . S
C1009 C1010 1.524 . S
C1009 H1012 0.999 . S
C1010 H980 0.950 . S
C1010 C1009 1.524 . S
C1010 C1011 1.415 . S
C1011 H981 0.950 . S
C1011 C1006 1.363 . S
C1011 C1010 1.415 . S
H1012 C1009 0.999 . S
H1013 C994 0.913 . S
C133 C2 1.265 . S
C148 C109 1.343 . S
C183 C22 1.253 . S
C198 C91 1.343 . S
C233 C44 1.262 . S
C248 C103 1.350 . S
C283 C4 1.387 . S
C298 C112 1.480 . S
C348 C94 1.492 . S
C333 C24 1.414 . S
C398 C100 1.467 . S
C383 C42 1.384 . S
C433 C32 1.194 . S
C448 C73 1.229 . S
C483 C49 1.166 . S
C498 C82 1.186 1_655 S
C533 C9 1.155 . S
C548 C64 1.180 . S
C598 C76 1.153 . S
C583 C29 1.121 . S
C648 C85 1.190 . S
C633 C52 1.142 . S
C683 C12 1.135 . S
C698 C67 1.181 . S
C748 C83 1.437 . S
C733 C18 1.423 1_455 S
C783 C38 1.419 . S
C798 C65 1.439 . S
C833 C58 1.418 . S
C848 C74 1.440 . S
C898 C101 1.505 . S
C883 C39 1.487 . S
C948 C110 1.493 . S
C933 C59 1.467 . S
C983 C19 1.470 . S
C998 C92 1.495 . S
