# Generated by pormake.
# Topology cml, (3,6)-cn, num edge types: 1
# Building blocks:
#     Node 0, Type 0, BuildingBlock: KAKCAD_clean_linker_0, # of connection points: 3
#     Node 1, Type 0, BuildingBlock: KAKCAD_clean_linker_0, # of connection points: 3
#     Node 2, Type 0, BuildingBlock: KAKCAD_clean_linker_0, # of connection points: 3
#     Node 3, Type 0, BuildingBlock: KAKCAD_clean_linker_0, # of connection points: 3
#     Node 4, Type 0, BuildingBlock: KAKCAD_clean_linker_0, # of connection points: 3
#     Node 5, Type 0, BuildingBlock: KAKCAD_clean_linker_0, # of connection points: 3
#     Node 6, Type 0, BuildingBlock: KAKCAD_clean_linker_0, # of connection points: 3
#     Node 7, Type 0, BuildingBlock: KAKCAD_clean_linker_0, # of connection points: 3
#     Node 8, Type 1, BuildingBlock: OJICUG_clean_sbu_0, # of connection points: 6
#     Node 9, Type 1, BuildingBlock: OJICUG_clean_sbu_0, # of connection points: 6
#     Node 10, Type 1, BuildingBlock: OJICUG_clean_sbu_0, # of connection points: 6
#     Node 11, Type 1, BuildingBlock: OJICUG_clean_sbu_0, # of connection points: 6
#     Edge 12, Type (0, 1), BuildingBlock: UVAHIK_clean_linker_0, # of connection points: 2
#     Edge 13, Type (0, 1), BuildingBlock: UVAHIK_clean_linker_0, # of connection points: 2
#     Edge 14, Type (0, 1), BuildingBlock: UVAHIK_clean_linker_0, # of connection points: 2
#     Edge 15, Type (0, 1), BuildingBlock: UVAHIK_clean_linker_0, # of connection points: 2
#     Edge 16, Type (0, 1), BuildingBlock: UVAHIK_clean_linker_0, # of connection points: 2
#     Edge 17, Type (0, 1), BuildingBlock: UVAHIK_clean_linker_0, # of connection points: 2
#     Edge 18, Type (0, 1), BuildingBlock: UVAHIK_clean_linker_0, # of connection points: 2
#     Edge 19, Type (0, 1), BuildingBlock: UVAHIK_clean_linker_0, # of connection points: 2
#     Edge 20, Type (0, 1), BuildingBlock: UVAHIK_clean_linker_0, # of connection points: 2
#     Edge 21, Type (0, 1), BuildingBlock: UVAHIK_clean_linker_0, # of connection points: 2
#     Edge 22, Type (0, 1), BuildingBlock: UVAHIK_clean_linker_0, # of connection points: 2
#     Edge 23, Type (0, 1), BuildingBlock: UVAHIK_clean_linker_0, # of connection points: 2
#     Edge 24, Type (0, 1), BuildingBlock: UVAHIK_clean_linker_0, # of connection points: 2
#     Edge 25, Type (0, 1), BuildingBlock: UVAHIK_clean_linker_0, # of connection points: 2
#     Edge 26, Type (0, 1), BuildingBlock: UVAHIK_clean_linker_0, # of connection points: 2
#     Edge 27, Type (0, 1), BuildingBlock: UVAHIK_clean_linker_0, # of connection points: 2
#     Edge 28, Type (0, 1), BuildingBlock: UVAHIK_clean_linker_0, # of connection points: 2
#     Edge 29, Type (0, 1), BuildingBlock: UVAHIK_clean_linker_0, # of connection points: 2
#     Edge 30, Type (0, 1), BuildingBlock: UVAHIK_clean_linker_0, # of connection points: 2
#     Edge 31, Type (0, 1), BuildingBlock: UVAHIK_clean_linker_0, # of connection points: 2
#     Edge 32, Type (0, 1), BuildingBlock: UVAHIK_clean_linker_0, # of connection points: 2
#     Edge 33, Type (0, 1), BuildingBlock: UVAHIK_clean_linker_0, # of connection points: 2
#     Edge 34, Type (0, 1), BuildingBlock: UVAHIK_clean_linker_0, # of connection points: 2
#     Edge 35, Type (0, 1), BuildingBlock: UVAHIK_clean_linker_0, # of connection points: 2
# Relax obj value: 0.072
# Max RMSD: 0.084
# Mean RMSD: 0.080
data_MOF--net-cml--node1-OJICUG_clean_sbu_0--node2-KAKCAD_clean_linker_0--edge1-UVAHIK_clean_linker_0
_symmetry_space_group_name_H-M    P1
_symmetry_Int_Tables_number       1
_symmetry_cell_setting            triclinic
loop_
_symmetry_equiv_pos_as_xyz
'x, y, z'
_cell_length_a     58.630307
_cell_length_b     59.114591
_cell_length_c     55.813035
_cell_angle_alpha  89.931987
_cell_angle_beta   90.039475
_cell_angle_gamma 89.935037
loop_
_atom_site_label
_atom_site_type_symbol
_atom_site_fract_x
_atom_site_fract_y
_atom_site_fract_z
_atom_type_partial_charge
C0 C 0.28252 0.47605 0.96564 0.0
C1 C 0.30545 0.47228 0.95955 0.0
C2 C 0.27071 0.46029 0.97962 0.0
C3 C 0.28181 0.44078 0.98806 0.0
C4 C 0.30479 0.43717 0.98216 0.0
C5 C 0.31646 0.45271 0.96793 0.0
C6 C 0.26942 0.42376 0.00244 0.0
C7 C 0.24877 0.41478 0.99409 0.0
C8 C 0.23811 0.39688 0.0063 0.0
C9 C 0.24787 0.38868 0.02764 0.0
C10 C 0.26855 0.3975 0.0361 0.0
C11 C 0.27921 0.41504 0.02344 0.0
C12 C 0.28003 0.38719 0.05703 0.0
C13 C 0.26833 0.38398 0.07872 0.0
C14 C 0.3029 0.38034 0.05524 0.0
C15 C 0.31395 0.37055 0.0748 0.0
C16 C 0.30243 0.36765 0.09664 0.0
C17 C 0.21853 0.38504 0.99512 0.0
C18 C 0.20108 0.3972 0.98355 0.0
C19 C 0.21826 0.36129 0.99422 0.0
C20 C 0.20138 0.34997 0.98139 0.0
C21 C 0.18441 0.36211 0.96911 0.0
C22 C 0.18413 0.38583 0.97071 0.0
C23 C 0.27953 0.37447 0.09847 0.0
H24 H 0.27367 0.49102 0.95932 0.0
H25 H 0.25297 0.4634 0.98397 0.0
H26 H 0.31365 0.42212 0.98825 0.0
H27 H 0.3342 0.44953 0.96366 0.0
H28 H 0.24187 0.42072 0.97718 0.0
H29 H 0.29529 0.42179 0.02982 0.0
H30 H 0.2399 0.37476 0.03712 0.0
H31 H 0.25068 0.38915 0.08049 0.0
H32 H 0.3122 0.38243 0.03862 0.0
H33 H 0.33168 0.36566 0.073 0.0
H34 H 0.20079 0.41551 0.98406 0.0
H35 H 0.23161 0.35141 0.00266 0.0
H36 H 0.27029 0.37237 0.11513 0.0
H37 H 0.17126 0.39563 0.96138 0.0
H38 H 0.20182 0.33165 0.98081 0.0
C39 C 0.71281 0.52352 0.46442 0.0
C40 C 0.68893 0.52343 0.46588 0.0
C41 C 0.72544 0.54006 0.47646 0.0
C42 C 0.71435 0.557 0.48983 0.0
C43 C 0.69036 0.55709 0.49065 0.0
C44 C 0.67783 0.54038 0.47901 0.0
C45 C 0.72754 0.57459 0.5029 0.0
C46 C 0.74735 0.58404 0.49288 0.0
C47 C 0.75912 0.60153 0.50466 0.0
C48 C 0.75094 0.60945 0.5268 0.0
C49 C 0.73096 0.60051 0.53672 0.0
C50 C 0.71964 0.58287 0.52497 0.0
C51 C 0.72061 0.61087 0.55818 0.0
C52 C 0.73295 0.61309 0.57962 0.0
C53 C 0.69802 0.61866 0.55711 0.0
C54 C 0.68781 0.62836 0.57716 0.0
C55 C 0.6999 0.63019 0.59878 0.0
C56 C 0.77886 0.61268 0.49292 0.0
C57 C 0.79517 0.59993 0.4803 0.0
C58 C 0.78099 0.63635 0.49349 0.0
C59 C 0.79895 0.64704 0.48168 0.0
C60 C 0.81513 0.63434 0.46892 0.0
C61 C 0.81311 0.61067 0.46836 0.0
C62 C 0.72255 0.62245 0.59991 0.0
H63 H 0.72169 0.51052 0.45441 0.0
H64 H 0.74388 0.53935 0.4756 0.0
H65 H 0.68115 0.5702 0.50012 0.0
H66 H 0.65938 0.54084 0.48004 0.0
H67 H 0.75299 0.57858 0.47534 0.0
H68 H 0.70446 0.57576 0.53309 0.0
H69 H 0.75963 0.62312 0.53596 0.0
H70 H 0.75041 0.60718 0.58078 0.0
H71 H 0.68825 0.61728 0.54068 0.0
H72 H 0.67025 0.63397 0.57591 0.0
H73 H 0.79411 0.58165 0.47972 0.0
H74 H 0.76845 0.64672 0.50255 0.0
H75 H 0.73217 0.6237 0.61643 0.0
H76 H 0.82548 0.60046 0.45883 0.0
H77 H 0.79984 0.66534 0.48208 0.0
C78 C 0.71241 0.47258 0.95589 0.0
C79 C 0.70161 0.49027 0.9683 0.0
C80 C 0.72489 0.45618 0.96821 0.0
C81 C 0.72735 0.45727 0.99326 0.0
C82 C 0.71764 0.47568 0.00553 0.0
C83 C 0.70479 0.49191 0.99322 0.0
C84 C 0.7385 0.43835 0.00648 0.0
C85 C 0.75656 0.42624 0.99604 0.0
C86 C 0.76483 0.40624 0.00653 0.0
C87 C 0.75567 0.39897 0.02848 0.0
C88 C 0.73823 0.41133 0.03965 0.0
C89 C 0.72969 0.4309 0.02854 0.0
C90 C 0.72759 0.40303 0.06203 0.0
C91 C 0.71988 0.38061 0.06377 0.0
C92 C 0.72382 0.41788 0.08121 0.0
C93 C 0.71199 0.41064 0.10151 0.0
C94 C 0.70336 0.38847 0.10292 0.0
C95 C 0.78173 0.39212 0.99359 0.0
C96 C 0.77956 0.38876 0.96876 0.0
C97 C 0.79957 0.38128 0.00592 0.0
C98 C 0.81474 0.36717 0.9937 0.0
C99 C 0.81238 0.36366 0.96891 0.0
C100 C 0.79475 0.37474 0.95655 0.0
C101 C 0.70779 0.37342 0.08396 0.0
H102 H 0.7108 0.47103 0.93663 0.0
H103 H 0.7318 0.44217 0.95806 0.0
H104 H 0.7195 0.47733 0.02475 0.0
H105 H 0.69665 0.50523 0.00343 0.0
H106 H 0.76397 0.43213 0.97939 0.0
H107 H 0.71527 0.43954 0.03651 0.0
H108 H 0.76166 0.38339 0.0366 0.0
H109 H 0.72237 0.36889 0.04909 0.0
H110 H 0.72984 0.43518 0.08038 0.0
H111 H 0.70936 0.42254 0.11599 0.0
H112 H 0.76573 0.39648 0.9588 0.0
H113 H 0.80182 0.38373 0.02501 0.0
H114 H 0.70117 0.35633 0.08425 0.0
H115 H 0.79226 0.37207 0.93753 0.0
H116 H 0.82835 0.35904 0.00363 0.0
C117 C 0.27577 0.61706 0.59232 0.0
C118 C 0.29851 0.61121 0.59732 0.0
C119 C 0.26541 0.60981 0.57106 0.0
C120 C 0.27772 0.59683 0.55432 0.0
C121 C 0.30061 0.59144 0.55931 0.0
C122 C 0.3108 0.59839 0.58059 0.0
C123 C 0.26723 0.58928 0.5314 0.0
C124 C 0.25267 0.60361 0.51837 0.0
C125 C 0.24466 0.59731 0.49559 0.0
C126 C 0.25166 0.57658 0.48568 0.0
C127 C 0.26619 0.562 0.49848 0.0
C128 C 0.27316 0.5682 0.52162 0.0
C129 C 0.27557 0.54117 0.48716 0.0
C130 C 0.26237 0.52788 0.4715 0.0
C131 C 0.29839 0.53491 0.49139 0.0
C132 C 0.30774 0.51592 0.48039 0.0
C133 C 0.29467 0.50285 0.46455 0.0
C134 C 0.22979 0.61291 0.48176 0.0
C135 C 0.21169 0.62424 0.49306 0.0
C136 C 0.23375 0.6168 0.45726 0.0
C137 C 0.21996 0.63178 0.44438 0.0
C138 C 0.20191 0.64319 0.4557 0.0
C139 C 0.19789 0.6392 0.48018 0.0
C140 C 0.27189 0.50898 0.46015 0.0
H141 H 0.26596 0.62692 0.60501 0.0
H142 H 0.24772 0.61416 0.56786 0.0
H143 H 0.31089 0.5821 0.54658 0.0
H144 H 0.32851 0.59406 0.5838 0.0
H145 H 0.24838 0.62014 0.52544 0.0
H146 H 0.28366 0.55669 0.53197 0.0
H147 H 0.24615 0.57205 0.4678 0.0
H148 H 0.24469 0.53204 0.468 0.0
H149 H 0.30934 0.54502 0.50275 0.0
H150 H 0.32549 0.51186 0.48369 0.0
H151 H 0.20804 0.62137 0.51185 0.0
H152 H 0.24781 0.60861 0.44814 0.0
H153 H 0.26147 0.49912 0.44802 0.0
H154 H 0.18388 0.64744 0.48934 0.0
H155 H 0.2237 0.63473 0.42563 0.0
C156 C 0.77957 0.97504 0.96364 0.0
C157 C 0.80338 0.97688 0.96506 0.0
C158 C 0.76826 0.95752 0.97558 0.0
C159 C 0.78063 0.9413 0.98878 0.0
C160 C 0.80455 0.9431 0.98976 0.0
C161 C 0.81575 0.96081 0.97823 0.0
C162 C 0.76881 0.9224 0.00128 0.0
C163 C 0.74977 0.91183 0.99087 0.0
C164 C 0.73924 0.89326 0.00208 0.0
C165 C 0.74792 0.88532 0.02402 0.0
C166 C 0.76718 0.89536 0.03434 0.0
C167 C 0.77726 0.91407 0.02316 0.0
C168 C 0.77803 0.88515 0.05567 0.0
C169 C 0.76541 0.88068 0.07652 0.0
C170 C 0.80125 0.8794 0.05494 0.0
C171 C 0.81171 0.86931 0.07468 0.0
C172 C 0.79923 0.86506 0.09566 0.0
C173 C 0.72023 0.88122 0.99005 0.0
C174 C 0.70297 0.89327 0.97801 0.0
C175 C 0.71962 0.85745 0.98992 0.0
C176 C 0.70217 0.846 0.97809 0.0
C177 C 0.68498 0.85802 0.96601 0.0
C178 C 0.68554 0.88177 0.96605 0.0
C179 C 0.77601 0.87093 0.0965 0.0
H180 H 0.76971 0.98735 0.95362 0.0
H181 H 0.74982 0.95684 0.97465 0.0
H182 H 0.81475 0.93064 -0.00086 0.0
H183 H 0.83418 0.96172 0.97924 0.0
H184 H 0.74376 0.91735 0.97346 0.0
H185 H 0.79184 0.92203 0.03159 0.0
H186 H 0.74017 0.87084 0.03272 0.0
H187 H 0.74746 0.88499 0.07743 0.0
H188 H 0.81127 0.88249 0.03896 0.0
H189 H 0.82969 0.86516 0.0737 0.0
H190 H 0.70286 0.91159 0.97798 0.0
H191 H 0.73292 0.84764 -0.00147 0.0
H192 H 0.76607 0.8678 0.11252 0.0
H193 H 0.67237 0.89146 0.95706 0.0
H194 H 0.70239 0.82767 0.978 0.0
C195 C 0.2128 0.02253 0.45728 0.0
C196 C 0.18995 0.02632 0.45081 0.0
C197 C 0.22445 0.03831 0.47137 0.0
C198 C 0.21325 0.05785 0.47954 0.0
C199 C 0.1904 0.06155 0.4731 0.0
C200 C 0.1789 0.046 0.45877 0.0
C201 C 0.22526 0.07462 0.49456 0.0
C202 C 0.24615 0.08368 0.48713 0.0
C203 C 0.25651 0.10128 0.50009 0.0
C204 C 0.24604 0.10924 0.52115 0.0
C205 C 0.2251 0.10025 0.52875 0.0
C206 C 0.21492 0.08288 0.51541 0.0
C207 C 0.21306 0.10964 0.54984 0.0
C208 C 0.22445 0.11299 0.5717 0.0
C209 C 0.18968 0.11462 0.5483 0.0
C210 C 0.17771 0.12192 0.56841 0.0
C211 C 0.18879 0.12432 0.59059 0.0
C212 C 0.2768 0.11284 0.49004 0.0
C213 C 0.29442 0.10038 0.47918 0.0
C214 C 0.27765 0.13658 0.48934 0.0
C215 C 0.29522 0.14761 0.47721 0.0
C216 C 0.31231 0.13516 0.46549 0.0
C217 C 0.31203 0.11143 0.46705 0.0
C218 C 0.2124 0.12023 0.59194 0.0
H219 H 0.22166 0.00748 0.4513 0.0
H220 H 0.24207 0.03513 0.47615 0.0
H221 H 0.18148 0.07661 0.47899 0.0
H222 H 0.16122 0.04919 0.45424 0.0
H223 H 0.25359 0.07797 0.47041 0.0
H224 H 0.19877 0.07581 0.52119 0.0
H225 H 0.25375 0.12295 0.53115 0.0
H226 H 0.24248 0.10925 0.57334 0.0
H227 H 0.18058 0.11268 0.53153 0.0
H228 H 0.15965 0.12546 0.56663 0.0
H229 H 0.2943 0.08206 0.4796 0.0
H230 H 0.26423 0.14668 0.49729 0.0
H231 H 0.22139 0.12181 0.60882 0.0
H232 H 0.32495 0.10139 0.45815 0.0
H233 H 0.2952 0.16593 0.47666 0.0
C234 C 0.20977 0.9722 0.96024 0.0
C235 C 0.2063 0.99266 0.97254 0.0
C236 C 0.2209 0.95416 0.9713 0.0
C237 C 0.22873 0.95604 0.99499 0.0
C238 C 0.22567 0.97656 0.00724 0.0
C239 C 0.21464 0.99474 0.99608 0.0
C240 C 0.23887 0.93609 0.00708 0.0
C241 C 0.25439 0.92226 0.99481 0.0
C242 C 0.26182 0.90171 0.00473 0.0
C243 C 0.25394 0.89527 0.02749 0.0
C244 C 0.2386 0.90906 0.04015 0.0
C245 C 0.23133 0.92957 0.02992 0.0
C246 C 0.22834 0.90115 0.06291 0.0
C247 C 0.21948 0.87914 0.06468 0.0
C248 C 0.22581 0.91599 0.08235 0.0
C249 C 0.21398 0.90921 0.10285 0.0
C250 C 0.20422 0.88751 0.10423 0.0
C251 C 0.27659 0.88635 0.99058 0.0
C252 C 0.27225 0.88294 0.96607 0.0
C253 C 0.29482 0.87476 0.00141 0.0
C254 C 0.30843 0.86007 0.98799 0.0
C255 C 0.30407 0.85671 0.96347 0.0
C256 C 0.28585 0.86831 0.95267 0.0
C257 C 0.2075 0.87241 0.08508 0.0
H258 H 0.20314 0.96976 0.94231 0.0
H259 H 0.22262 0.9384 0.96156 0.0
H260 H 0.2317 0.97849 0.02547 0.0
H261 H 0.21251 0.01035 0.00596 0.0
H262 H 0.26044 0.9274 0.97728 0.0
H263 H 0.21867 0.93976 0.03909 0.0
H264 H 0.25917 0.87919 0.03507 0.0
H265 H 0.2209 0.86744 0.04983 0.0
H266 H 0.2327 0.93297 0.08154 0.0
H267 H 0.21216 0.92111 0.11746 0.0
H268 H 0.25804 0.89126 0.95731 0.0
H269 H 0.2987 0.87722 0.02021 0.0
H270 H 0.19996 0.8557 0.08536 0.0
H271 H 0.28183 0.86576 0.93392 0.0
H272 H 0.32252 0.85155 0.99673 0.0
C273 C 0.78127 0.11475 0.5945 0.0
C274 C 0.80429 0.10889 0.59779 0.0
C275 C 0.76957 0.10771 0.57389 0.0
C276 C 0.78081 0.09491 0.55621 0.0
C277 C 0.80404 0.08975 0.55937 0.0
C278 C 0.81556 0.09651 0.57993 0.0
C279 C 0.76885 0.08706 0.53424 0.0
C280 C 0.75365 0.10124 0.52187 0.0
C281 C 0.74455 0.09467 0.49962 0.0
C282 C 0.75102 0.07378 0.48965 0.0
C283 C 0.76612 0.05934 0.50185 0.0
C284 C 0.77419 0.06582 0.52451 0.0
C285 C 0.77513 0.03846 0.49031 0.0
C286 C 0.76133 0.02485 0.47554 0.0
C287 C 0.79817 0.03246 0.49344 0.0
C288 C 0.80715 0.01336 0.48233 0.0
C289 C 0.79347 -9e-05 0.46746 0.0
C290 C 0.72929 0.11021 0.48622 0.0
C291 C 0.71166 0.12176 0.49808 0.0
C292 C 0.73245 0.11385 0.46156 0.0
C293 C 0.71832 0.12878 0.44903 0.0
C294 C 0.7007 0.14038 0.46088 0.0
C295 C 0.69749 0.13666 0.48554 0.0
C296 C 0.77047 0.00582 0.46408 0.0
H297 H 0.77225 0.12432 0.60805 0.0
H298 H 0.75169 0.11196 0.57201 0.0
H299 H 0.81349 0.08061 0.5458 0.0
H300 H 0.83345 0.09223 0.58178 0.0
H301 H 0.74977 0.11787 0.52894 0.0
H302 H 0.78521 0.05444 0.53443 0.0
H303 H 0.74469 0.06905 0.47212 0.0
H304 H 0.74348 0.02885 0.47287 0.0
H305 H 0.80956 0.04284 0.50402 0.0
H306 H 0.82507 0.00949 0.4848 0.0
H307 H 0.70866 0.1191 0.51703 0.0
H308 H 0.74614 0.1055 0.45201 0.0
H309 H 0.75959 0.99568 0.45267 0.0
H310 H 0.68385 0.14507 0.49512 0.0
H311 H 0.72148 0.13154 0.43014 0.0
Sc312 Sc 0.00075 0.79946 0.30618 0.0
Sc313 Sc 0.99318 0.85866 0.30946 0.0
Sc314 Sc 0.00036 0.82709 0.36228 0.0
O315 O -0.00191 0.82835 0.32596 0.0
C316 C 0.97074 0.78308 0.35057 0.0
C317 C 0.96138 0.82624 0.27844 0.0
C318 C 0.9604 0.86318 0.35473 0.0
C319 C 0.02957 0.8347 0.27519 0.0
C320 C 0.03811 0.791 0.34698 0.0
C321 C 0.02861 0.87179 0.35055 0.0
O322 O 0.9772 0.78125 0.32888 0.0
O323 O 0.96693 0.84547 0.28668 0.0
O324 O 0.97108 0.8487 0.36735 0.0
O325 O 0.02489 0.81461 0.28173 0.0
O326 O 0.02966 0.80523 0.36154 0.0
O327 O 0.01891 0.87538 0.33053 0.0
O328 O 0.02945 0.78703 0.32653 0.0
O329 O 0.01923 0.85195 0.28337 0.0
O330 O 0.02358 0.85515 0.36395 0.0
O331 O 0.97224 0.8082 0.2834 0.0
O332 O 0.97776 0.79865 0.36441 0.0
O333 O 0.9665 0.86854 0.33365 0.0
Sc334 Sc -0.00242 0.19426 0.81138 0.0
Sc335 Sc 0.00149 0.13487 0.81729 0.0
Sc336 Sc 0.99743 0.16865 0.86866 0.0
O337 O -0.00116 0.16599 0.83242 0.0
C338 C 0.02901 0.21071 0.85454 0.0
C339 C 0.03518 0.16394 0.78491 0.0
C340 C 0.03447 0.12984 0.86261 0.0
C341 C 0.96675 0.15992 0.78174 0.0
C342 C 0.96145 0.20604 0.85244 0.0
C343 C 0.96602 0.12547 0.85919 0.0
O344 O 0.02259 0.21181 0.83279 0.0
O345 O 0.02881 0.14551 0.7945 0.0
O346 O 0.02565 0.14607 0.87425 0.0
O347 O 0.97218 0.17992 0.78787 0.0
O348 O 0.9692 0.19155 0.86716 0.0
O349 O 0.97423 0.12114 0.83864 0.0
O350 O 0.97012 0.2093 0.83182 0.0
O351 O 0.97635 0.14246 0.79044 0.0
O352 O 0.97321 0.14156 0.87222 0.0
O353 O 0.02512 0.18273 0.78852 0.0
O354 O 0.02122 0.19621 0.86924 0.0
O355 O 0.02721 0.12362 0.8422 0.0
Sc356 Sc 0.5033 0.29959 0.30832 0.0
Sc357 Sc 0.49713 0.35888 0.31268 0.0
Sc358 Sc 0.50086 0.32604 0.36498 0.0
O359 O 0.50044 0.32813 0.32864 0.0
C360 C 0.47151 0.28246 0.35088 0.0
C361 C 0.46553 0.32794 0.2798 0.0
C362 C 0.46221 0.36304 0.35644 0.0
C363 C 0.53387 0.33463 0.27904 0.0
C364 C 0.53893 0.29003 0.35063 0.0
C365 C 0.53038 0.37061 0.35595 0.0
O366 O 0.47842 0.2813 0.32931 0.0
O367 O 0.47112 0.34684 0.28887 0.0
O368 O 0.4713 0.3474 0.36885 0.0
O369 O 0.52875 0.31455 0.28524 0.0
O370 O 0.5303 0.30435 0.36499 0.0
O371 O 0.52288 0.37422 0.33492 0.0
O372 O 0.5308 0.28625 0.32987 0.0
O373 O 0.52358 0.35193 0.28713 0.0
O374 O 0.52349 0.35433 0.36892 0.0
O375 O 0.47595 0.30957 0.28453 0.0
O376 O 0.47843 0.29746 0.36544 0.0
O377 O 0.47006 0.3693 0.33627 0.0
Sc378 Sc 0.49503 0.69553 0.8056 0.0
Sc379 Sc 0.49927 0.63595 0.80897 0.0
Sc380 Sc 0.49447 0.66791 0.86169 0.0
O381 O 0.49628 0.6665 0.82541 0.0
C382 C 0.52621 0.71038 0.84964 0.0
C383 C 0.53287 0.66656 0.77795 0.0
C384 C 0.53181 0.62937 0.8543 0.0
C385 C 0.46416 0.66207 0.77477 0.0
C386 C 0.45845 0.70572 0.84663 0.0
C387 C 0.46362 0.62475 0.8503 0.0
O388 O 0.51978 0.71244 0.82796 0.0
O389 O 0.52644 0.64764 0.78639 0.0
O390 O 0.52271 0.64509 0.86652 0.0
O391 O 0.46985 0.68184 0.78143 0.0
O392 O 0.46624 0.69095 0.86102 0.0
O393 O 0.47249 0.6209 0.82994 0.0
O394 O 0.46724 0.70951 0.82619 0.0
O395 O 0.47376 0.64429 0.78273 0.0
O396 O 0.47003 0.64085 0.86377 0.0
O397 O 0.52283 0.68511 0.78271 0.0
O398 O 0.51838 0.69528 0.86362 0.0
O399 O 0.52494 0.62397 0.83349 0.0
C400 C 0.14433 0.35572 0.95473 0.0
C401 C 0.16757 0.34994 0.95411 0.0
C402 C 0.12847 0.34338 0.94138 0.0
C403 C 0.12315 0.30249 0.89132 0.0
H404 H 0.06905 0.2829 0.92539 0.0
C405 C 0.05344 0.24527 0.84896 0.0
C406 C 0.04543 0.22765 0.86369 0.0
C407 C 0.06777 0.262 0.85829 0.0
C408 C 0.08409 0.28822 0.91565 0.0
H409 H 0.19258 0.32749 0.93814 0.0
H410 H 0.16493 0.30573 0.91527 0.0
H411 H 0.09505 0.30956 0.94431 0.0
H412 H 0.04683 0.21352 0.89963 0.0
H413 H 0.07184 0.24246 0.91566 0.0
H414 H 0.11255 0.28044 0.863 0.0
C415 C 0.15892 0.31983 0.92592 0.0
C416 C 0.09883 0.30371 0.92636 0.0
C417 C 0.17472 0.3321 0.93929 0.0
C418 C 0.05249 0.22689 0.88776 0.0
C419 C 0.06671 0.24359 0.89705 0.0
C420 C 0.10836 0.28701 0.88057 0.0
C421 C 0.13559 0.32513 0.92705 0.0
C422 C 0.11875 0.31068 0.91451 0.0
C423 C 0.07427 0.26146 0.88252 0.0
C424 C 0.08894 0.27937 0.89285 0.0
H425 H 0.13834 0.36937 0.96602 0.0
H426 H 0.11061 0.34797 0.94244 0.0
H427 H 0.13825 0.30777 0.88164 0.0
H428 H 0.04835 0.24639 0.83034 0.0
H429 H 0.07332 0.27562 0.8467 0.0
C430 C 0.84551 0.66392 0.46683 0.0
C431 C 0.83377 0.64597 0.45594 0.0
C432 C 0.86205 0.67591 0.45419 0.0
C433 C 0.87889 0.69115 0.39315 0.0
H434 H 0.93372 0.7123 0.42488 0.0
C435 C 0.94727 0.74759 0.34686 0.0
C436 C 0.95504 0.76592 0.36069 0.0
C437 C 0.93341 0.73092 0.35711 0.0
C438 C 0.91844 0.70658 0.41581 0.0
H439 H 0.83039 0.62624 0.4234 0.0
H440 H 0.85957 0.64719 0.40128 0.0
H441 H 0.90845 0.68605 0.44556 0.0
H442 H 0.9538 0.7813 0.39604 0.0
H443 H 0.92969 0.75246 0.41364 0.0
H444 H 0.88874 0.7121 0.36355 0.0
C445 C 0.85581 0.65202 0.41957 0.0
C446 C 0.90399 0.69156 0.42764 0.0
C447 C 0.83929 0.63992 0.43229 0.0
C448 C 0.94831 0.76738 0.38482 0.0
C449 C 0.9346 0.75075 0.39502 0.0
C450 C 0.89339 0.7062 0.38128 0.0
C451 C 0.86722 0.67026 0.43035 0.0
C452 C 0.8838 0.68409 0.41667 0.0
C453 C 0.92721 0.73221 0.38138 0.0
C454 C 0.91302 0.71447 0.39274 0.0
H455 H 0.84176 0.66881 0.48511 0.0
H456 H 0.87035 0.69005 0.46291 0.0
H457 H 0.86335 0.68582 0.38431 0.0
H458 H 0.9521 0.74594 0.32822 0.0
H459 H 0.92796 0.71678 0.34619 0.0
C460 C 0.83638 0.3535 0.9333 0.0
C461 C 0.82774 0.3479 0.95604 0.0
C462 C 0.85021 0.33826 0.92086 0.0
C463 C 0.88686 0.28825 0.93012 0.0
H464 H 0.87839 0.27906 0.86186 0.0
C465 C 0.93091 0.21538 0.88194 0.0
C466 C 0.94265 0.22078 0.86074 0.0
C467 C 0.91552 0.23062 0.89194 0.0
C468 C 0.88103 0.2816 0.88088 0.0
H469 H 0.82652 0.32188 0.9834 0.0
H470 H 0.85056 0.29527 0.9617 0.0
H471 H 0.85475 0.30672 0.88299 0.0
H472 H 0.94633 0.24591 0.83262 0.0
H473 H 0.91934 0.27268 0.85028 0.0
H474 H 0.913 0.26314 0.92812 0.0
C475 C 0.84701 0.31158 0.95365 0.0
C476 C 0.86757 0.29745 0.89297 0.0
C477 C 0.83326 0.32682 0.96611 0.0
C478 C 0.9376 0.24125 0.84899 0.0
C479 C 0.92214 0.25657 0.85907 0.0
C480 C 0.90021 0.27241 0.91809 0.0
C481 C 0.85563 0.31711 0.93089 0.0
C482 C 0.87025 0.30082 0.91777 0.0
C483 C 0.91149 0.25165 0.88102 0.0
C484 C 0.89732 0.26877 0.89341 0.0
H485 H 0.8326 0.36974 0.92522 0.0
H486 H 0.85686 0.34315 0.90351 0.0
H487 H 0.8897 0.29078 0.94911 0.0
H488 H 0.9341 0.19961 0.89127 0.0
H489 H 0.90714 0.22615 0.90858 0.0
C490 C 0.18049 0.67982 0.45245 0.0
C491 C 0.18734 0.65925 0.44209 0.0
C492 C 0.16646 0.69477 0.43985 0.0
C493 C 0.12463 0.69648 0.39075 0.0
H494 H 0.13362 0.76133 0.39525 0.0
C495 C 0.0664 0.75959 0.34088 0.0
C496 C 0.05826 0.77772 0.35477 0.0
C497 C 0.08418 0.74593 0.34927 0.0
C498 C 0.13085 0.74326 0.3939 0.0
H499 H 0.18487 0.63828 0.41033 0.0
H500 H 0.16066 0.66459 0.38816 0.0
H501 H 0.16087 0.73573 0.41426 0.0
H502 H 0.06312 0.7962 0.388 0.0
H503 H 0.09394 0.77234 0.4026 0.0
H504 H 0.09443 0.704 0.37072 0.0
C505 C 0.16599 0.66904 0.40613 0.0
C506 C 0.14642 0.72861 0.40482 0.0
C507 C 0.18004 0.65408 0.41873 0.0
C508 C 0.06887 0.78234 0.37684 0.0
C509 C 0.08667 0.76875 0.38516 0.0
C510 C 0.10908 0.71113 0.37981 0.0
C511 C 0.15896 0.68951 0.41659 0.0
C512 C 0.14331 0.70506 0.40364 0.0
C513 C 0.09428 0.75018 0.37165 0.0
C514 C 0.11185 0.73469 0.38155 0.0
H515 H 0.18604 0.68442 0.4703 0.0
H516 H 0.16113 0.71028 0.44854 0.0
H517 H 0.12157 0.67844 0.38977 0.0
H518 H 0.05871 0.75557 0.32376 0.0
H519 H 0.08988 0.73191 0.33832 0.0
C520 C 0.66006 0.85198 0.93001 0.0
C521 C 0.66668 0.84564 0.95328 0.0
C522 C 0.64364 0.83946 0.91762 0.0
C523 C 0.59713 0.79837 0.92682 0.0
H524 H 0.60981 0.78009 0.86142 0.0
C525 C 0.55059 0.72425 0.88329 0.0
C526 C 0.54284 0.72672 0.85958 0.0
C527 C 0.56505 0.74026 0.89344 0.0
C528 C 0.60588 0.78533 0.87955 0.0
H529 H 0.66084 0.82175 0.98211 0.0
H530 H 0.63239 0.7998 0.96049 0.0
H531 H 0.6357 0.80613 0.88184 0.0
H532 H 0.54481 0.74777 0.82774 0.0
H533 H 0.57019 0.77587 0.84565 0.0
H534 H 0.56757 0.77735 0.92475 0.0
C535 C 0.63977 0.81447 0.95181 0.0
C536 C 0.62067 0.80024 0.89122 0.0
C537 C 0.65623 0.82689 0.96411 0.0
C538 C 0.55043 0.74535 0.84605 0.0
C539 C 0.56499 0.76142 0.85627 0.0
C540 C 0.58239 0.78351 0.91518 0.0
C541 C 0.63342 0.82051 0.92838 0.0
C542 C 0.61666 0.80654 0.91514 0.0
C543 C 0.57215 0.75918 0.88019 0.0
C544 C 0.58685 0.77646 0.89161 0.0
H545 H 0.66797 0.86628 0.92117 0.0
H546 H 0.63895 0.84458 0.89964 0.0
H547 H 0.59336 0.80328 0.94509 0.0
H548 H 0.54531 0.71003 0.89421 0.0
H549 H 0.57069 0.73781 0.91175 0.0
C550 C 0.32339 0.16496 0.43587 0.0
C551 C 0.32977 0.14695 0.45091 0.0
C552 C 0.33973 0.17653 0.42249 0.0
C553 C 0.40046 0.19026 0.42288 0.0
H554 H 0.38769 0.2134 0.35917 0.0
C555 C 0.44824 0.26598 0.38406 0.0
C556 C 0.45535 0.26524 0.36001 0.0
C557 C 0.43395 0.24934 0.39331 0.0
C558 C 0.39162 0.20682 0.37682 0.0
H559 H 0.35822 0.12661 0.46334 0.0
H560 H 0.38685 0.1468 0.43977 0.0
H561 H 0.36096 0.1872 0.37811 0.0
H562 H 0.45255 0.24651 0.3267 0.0
H563 H 0.42736 0.21733 0.34302 0.0
H564 H 0.43097 0.21 0.42173 0.0
C565 C 0.36919 0.15204 0.43851 0.0
C566 C 0.37624 0.19201 0.38775 0.0
C567 C 0.3528 0.14041 0.45187 0.0
C568 C 0.44742 0.24759 0.3453 0.0
C569 C 0.43298 0.23091 0.35461 0.0
C570 C 0.41578 0.20507 0.41199 0.0
C571 C 0.36284 0.17036 0.42384 0.0
C572 C 0.38028 0.18395 0.4111 0.0
C573 C 0.42633 0.23152 0.37879 0.0
C574 C 0.41127 0.21391 0.38908 0.0
H575 H 0.30572 0.17015 0.43444 0.0
H576 H 0.33431 0.19073 0.4116 0.0
H577 H 0.404 0.18449 0.44093 0.0
H578 H 0.45384 0.27935 0.39594 0.0
H579 H 0.42872 0.25053 0.41188 0.0
C580 C 0.32466 0.81984 0.9586 0.0
C581 C 0.31829 0.84098 0.9492 0.0
C582 C 0.33776 0.80488 0.94501 0.0
C583 C 0.37805 0.80306 0.89476 0.0
H584 H 0.36472 0.73881 0.8958 0.0
C585 C 0.43203 0.73886 0.84154 0.0
C586 C 0.439 0.71976 0.85469 0.0
C587 C 0.41502 0.75316 0.85043 0.0
C588 C 0.36868 0.7567 0.8954 0.0
H589 H 0.32085 0.86313 0.91831 0.0
H590 H 0.34357 0.83687 0.89447 0.0
H591 H 0.33965 0.76508 0.91684 0.0
H592 H 0.4328 0.70019 0.88702 0.0
H593 H 0.40344 0.72515 0.90249 0.0
H594 H 0.40736 0.79465 0.87376 0.0
C595 C 0.3385 0.83193 0.91238 0.0
C596 C 0.35437 0.77172 0.90747 0.0
C597 C 0.32534 0.84687 0.92595 0.0
C598 C 0.42797 0.71481 0.87644 0.0
C599 C 0.41098 0.72903 0.88526 0.0
C600 C 0.39239 0.78803 0.8827 0.0
C601 C 0.34482 0.81077 0.92176 0.0
C602 C 0.35911 0.79501 0.9076 0.0
C603 C 0.40458 0.74856 0.87256 0.0
C604 C 0.38806 0.76466 0.88322 0.0
H605 H 0.31929 0.81474 0.97637 0.0
H606 H 0.34262 0.78881 0.95285 0.0
H607 H 0.38228 0.82089 0.89474 0.0
H608 H 0.44009 0.74313 0.82468 0.0
H609 H 0.41024 0.76796 0.84012 0.0
C610 C 0.6793 0.17707 0.45799 0.0
C611 C 0.68581 0.1564 0.4476 0.0
C612 C 0.66517 0.19209 0.44558 0.0
C613 C 0.62289 0.19419 0.39678 0.0
H614 H 0.63303 0.25891 0.40074 0.0
C615 C 0.56664 0.25798 0.34541 0.0
C616 C 0.55863 0.27639 0.35898 0.0
C617 C 0.58396 0.24403 0.35429 0.0
C618 C 0.62994 0.24088 0.39956 0.0
H619 H 0.68249 0.13528 0.41604 0.0
H620 H 0.65818 0.1617 0.39419 0.0
H621 H 0.65978 0.23299 0.42003 0.0
H622 H 0.56323 0.29502 0.39215 0.0
H623 H 0.5933 0.27065 0.40758 0.0
H624 H 0.59292 0.20209 0.37653 0.0
C625 C 0.66384 0.16619 0.41204 0.0
C626 C 0.64522 0.22604 0.41064 0.0
C627 C 0.67797 0.15116 0.42446 0.0
C628 C 0.5689 0.28096 0.38124 0.0
C629 C 0.58626 0.26707 0.39004 0.0
C630 C 0.60765 0.20903 0.38565 0.0
C631 C 0.65724 0.1868 0.42249 0.0
C632 C 0.64172 0.20254 0.40962 0.0
C633 C 0.59373 0.24826 0.37684 0.0
C634 C 0.61086 0.23254 0.38715 0.0
H635 H 0.68526 0.18175 0.47567 0.0
H636 H 0.66018 0.2077 0.45427 0.0
H637 H 0.61952 0.1762 0.39593 0.0
H638 H 0.55919 0.254 0.32816 0.0
H639 H 0.58958 0.22981 0.34358 0.0
C640 C 0.31833 0.51175 0.95074 0.0
C641 C 0.31814 0.48871 0.94472 0.0
C642 C 0.33206 0.52688 0.93803 0.0
C643 C 0.38357 0.52727 0.89987 0.0
H644 H 0.3668 0.58997 0.88934 0.0
C645 C 0.44082 0.58901 0.84735 0.0
C646 C 0.4451 0.60976 0.85878 0.0
C647 C 0.42384 0.57456 0.85588 0.0
C648 C 0.37168 0.5725 0.89223 0.0
H649 H 0.33096 0.46356 0.91996 0.0
H650 H 0.35441 0.49001 0.89727 0.0
H651 H 0.3392 0.56402 0.90719 0.0
H652 H 0.43441 0.63188 0.88773 0.0
H653 H 0.40471 0.60662 0.90251 0.0
H654 H 0.416 0.53577 0.88485 0.0
C655 C 0.3446 0.49636 0.91227 0.0
C656 C 0.35594 0.55766 0.90252 0.0
C657 C 0.33111 0.48121 0.92516 0.0
C658 C 0.43166 0.61596 0.87859 0.0
C659 C 0.41453 0.6016 0.88695 0.0
C660 C 0.39919 0.54204 0.88939 0.0
C661 C 0.34566 0.51929 0.91887 0.0
C662 C 0.36177 0.5349 0.90668 0.0
C663 C 0.41063 0.58066 0.87584 0.0
C664 C 0.39349 0.56483 0.88569 0.0
H665 H 0.30857 0.51788 0.96588 0.0
H666 H 0.33264 0.54435 0.94382 0.0
H667 H 0.38886 0.51 0.90325 0.0
H668 H 0.45082 0.58373 0.83203 0.0
H669 H 0.42104 0.55857 0.84689 0.0
C670 C 0.65903 0.49362 0.46714 0.0
C671 C 0.67531 0.50573 0.45397 0.0
C672 C 0.64467 0.47825 0.45574 0.0
C673 C 0.63573 0.44628 0.39917 0.0
H674 H 0.57325 0.44504 0.42197 0.0
C675 C 0.56084 0.40009 0.35106 0.0
C676 C 0.54774 0.38603 0.36603 0.0
C677 C 0.57727 0.41454 0.36084 0.0
C678 C 0.59067 0.44516 0.41549 0.0
H679 H 0.6899 0.51103 0.41881 0.0
H680 H 0.66426 0.48458 0.39855 0.0
H681 H 0.6006 0.47032 0.44075 0.0
H682 H 0.5416 0.37615 0.40295 0.0
H683 H 0.56993 0.40162 0.4199 0.0
H684 H 0.62531 0.42135 0.37346 0.0
C685 C 0.66286 0.48657 0.41778 0.0
C686 C 0.60641 0.45952 0.42633 0.0
C687 C 0.67749 0.50175 0.4293 0.0
C688 C 0.5514 0.38673 0.39091 0.0
C689 C 0.56754 0.40137 0.40065 0.0
C690 C 0.61983 0.43208 0.38809 0.0
C691 C 0.64599 0.47494 0.43082 0.0
C692 C 0.62923 0.46004 0.41857 0.0
C693 C 0.58058 0.41542 0.38574 0.0
C694 C 0.59725 0.43121 0.3964 0.0
H695 H 0.65728 0.49622 0.48627 0.0
H696 H 0.63236 0.46912 0.46649 0.0
H697 H 0.65319 0.44611 0.39285 0.0
H698 H 0.5585 0.39984 0.33181 0.0
H699 H 0.58709 0.42531 0.349 0.0
C700 C 0.67183 0.49775 0.93703 0.0
C701 C 0.68591 0.50594 0.95548 0.0
C702 C 0.65631 0.51198 0.92557 0.0
C703 C 0.64114 0.57231 0.91605 0.0
H704 H 0.58247 0.54658 0.89913 0.0
C705 C 0.56251 0.62471 0.88523 0.0
C706 C 0.55089 0.61644 0.865 0.0
C707 C 0.57999 0.61206 0.8958 0.0
C708 C 0.59885 0.55393 0.90359 0.0
H709 H 0.69492 0.5358 0.97598 0.0
H710 H 0.66706 0.56045 0.95664 0.0
H711 H 0.61088 0.52308 0.91894 0.0
H712 H 0.54874 0.58855 0.83982 0.0
H713 H 0.57901 0.5664 0.85852 0.0
H714 H 0.62858 0.60339 0.90114 0.0
C715 C 0.66839 0.54306 0.95072 0.0
C716 C 0.61519 0.54047 0.91485 0.0
C717 C 0.68417 0.52885 0.96204 0.0
C718 C 0.55732 0.59541 0.85539 0.0
C719 C 0.57457 0.58267 0.86614 0.0
C720 C 0.62463 0.58587 0.90501 0.0
C721 C 0.65412 0.53473 0.93249 0.0
C722 C 0.63663 0.5494 0.92102 0.0
C723 C 0.58594 0.5908 0.88652 0.0
C724 C 0.60342 0.57672 0.89851 0.0
H725 H 0.67235 0.48015 0.93171 0.0
H726 H 0.64592 0.50505 0.91131 0.0
H727 H 0.65755 0.57968 0.9203 0.0
H728 H 0.55806 0.6409 0.89299 0.0
H729 H 0.58844 0.61863 0.91159 0.0
C730 C 0.30423 0.48205 0.42684 0.0
C731 C 0.30547 0.48365 0.4519 0.0
C732 C 0.31737 0.46604 0.41462 0.0
C733 C 0.35185 0.41405 0.42192 0.0
H734 H 0.38953 0.44027 0.37206 0.0
C735 C 0.43525 0.37221 0.38993 0.0
C736 C 0.44157 0.37448 0.36576 0.0
C737 C 0.4161 0.38352 0.39881 0.0
C738 C 0.37887 0.43247 0.38557 0.0
H739 H 0.32011 0.46892 0.48398 0.0
H740 H 0.34296 0.44088 0.4627 0.0
H741 H 0.35932 0.46273 0.39006 0.0
H742 H 0.43222 0.38978 0.33177 0.0
H743 H 0.39861 0.40907 0.34712 0.0
H744 H 0.37155 0.38384 0.41761 0.0
C745 C 0.33192 0.45198 0.45245 0.0
C746 C 0.36154 0.44539 0.3959 0.0
C747 C 0.31899 0.46811 0.46463 0.0
C748 C 0.42801 0.3879 0.35056 0.0
C749 C 0.40876 0.39903 0.35938 0.0
C750 C 0.36908 0.40104 0.41144 0.0
C751 C 0.33175 0.45121 0.4273 0.0
C752 C 0.34813 0.43646 0.41447 0.0
C753 C 0.4027 0.39719 0.38368 0.0
C754 C 0.38309 0.41024 0.39345 0.0
H755 H 0.29402 0.49392 0.41661 0.0
H756 H 0.31679 0.46568 0.39522 0.0
H757 H 0.34161 0.40668 0.43606 0.0
H758 H 0.44534 0.36206 0.40215 0.0
H759 H 0.41218 0.382 0.4177 0.0
C760 C 0.83115 0.00875 0.96547 0.0
C761 C 0.81557 0.99535 0.95274 0.0
C762 C 0.84415 0.02501 0.95359 0.0
C763 C 0.87032 0.03592 0.89635 0.0
H764 H 0.87978 0.09636 0.92134 0.0
C765 C 0.93397 0.0981 0.85261 0.0
C766 C 0.947 0.11148 0.86828 0.0
C767 C 0.91565 0.08537 0.86124 0.0
C768 C 0.87751 0.07947 0.91425 0.0
H769 H 0.80093 0.98854 0.91785 0.0
H770 H 0.82416 0.01683 0.89684 0.0
H771 H 0.85123 0.07185 0.93967 0.0
H772 H 0.95122 0.12173 0.90533 0.0
H773 H 0.91992 0.09899 0.92047 0.0
H774 H 0.89729 0.04294 0.87172 0.0
C775 C 0.8261 0.01483 0.91603 0.0
C776 C 0.86105 0.06554 0.92466 0.0
C777 C 0.81279 -0.0012 0.92801 0.0
C778 C 0.94142 0.11173 0.89275 0.0
C779 C 0.92331 0.09882 0.9014 0.0
C780 C 0.88701 0.04973 0.88613 0.0
C781 C 0.84204 0.0279 0.92871 0.0
C782 C 0.85756 0.04353 0.91603 0.0
C783 C 0.91012 0.08554 0.88577 0.0
C784 C 0.89109 0.07154 0.89524 0.0
H785 H 0.83349 0.0064 0.98457 0.0
H786 H 0.85646 0.03474 0.96373 0.0
H787 H 0.8681 0.0189 0.88955 0.0
H788 H 0.93769 0.09772 0.83361 0.0
H789 H 0.90569 0.07558 0.84863 0.0
C790 C 0.17699 0.98671 0.44298 0.0
C791 C 0.17722 0.00962 0.43636 0.0
C792 C 0.16288 0.97142 0.43097 0.0
C793 C 0.11025 0.9708 0.39465 0.0
H794 H 0.12589 0.90767 0.38536 0.0
C795 C 0.05037 0.90812 0.34657 0.0
C796 C 0.04681 0.88743 0.35845 0.0
C797 C 0.06753 0.92285 0.35413 0.0
C798 C 0.12131 0.92526 0.38793 0.0
H799 H 0.16411 0.03432 0.41117 0.0
H800 H 0.13995 0.00757 0.38973 0.0
H801 H 0.15445 0.93371 0.40124 0.0
H802 H 0.05883 0.86585 0.38737 0.0
H803 H 0.08875 0.8916 0.40048 0.0
H804 H 0.07712 0.96232 0.38134 0.0
C805 C 0.15006 0.00148 0.40465 0.0
C806 C 0.13762 0.94016 0.39706 0.0
C807 C 0.16396 0.01678 0.41682 0.0
C808 C 0.061 0.8817 0.37787 0.0
C809 C 0.07828 0.89634 0.38528 0.0
C810 C 0.09404 0.95596 0.38534 0.0
C811 C 0.14891 0.97873 0.41195 0.0
C812 C 0.1322 0.96307 0.40077 0.0
C813 C 0.08163 0.9171 0.37357 0.0
C814 C 0.09932 0.933 0.38214 0.0
H815 H 0.18694 0.98083 0.45812 0.0
H816 H 0.16224 0.9541 0.43726 0.0
H817 H 0.1053 0.98822 0.39771 0.0
H818 H 0.03979 0.91304 0.33152 0.0
H819 H 0.06986 0.9387 0.34469 0.0
C820 C 0.17676 0.0234 0.97464 0.0
C821 C 0.19279 0.01107 0.96119 0.0
C822 C 0.16217 0.03883 0.96342 0.0
C823 C 0.13409 0.0476 0.90637 0.0
H824 H 0.11929 0.10711 0.93101 0.0
C825 C 0.06885 0.10496 0.85872 0.0
C826 C 0.05413 0.11776 0.87322 0.0
C827 C 0.08746 0.09361 0.86876 0.0
C828 C 0.12303 0.09043 0.92405 0.0
H829 H 0.20705 0.00647 0.92563 0.0
H830 H 0.18112 0.03297 0.90602 0.0
H831 H 0.14927 0.08479 0.95019 0.0
H832 H 0.04732 0.12864 0.90963 0.0
H833 H 0.07921 0.1082 0.92726 0.0
H834 H 0.10737 0.05259 0.88092 0.0
C835 C 0.1798 0.0305 0.92521 0.0
C836 C 0.14028 0.07774 0.93496 0.0
C837 C 0.19456 0.01528 0.93644 0.0
C838 C 0.05843 0.11901 0.89795 0.0
C839 C 0.07684 0.10741 0.90803 0.0
C840 C 0.11666 0.06012 0.89566 0.0
C841 C 0.16318 0.04206 0.93852 0.0
C842 C 0.14589 0.05618 0.92627 0.0
C843 C 0.09159 0.09454 0.89358 0.0
C844 C 0.1108 0.08165 0.90444 0.0
H845 H 0.17472 0.02041 0.99366 0.0
H846 H 0.14936 0.04741 0.97405 0.0
H847 H 0.13785 0.03085 0.89956 0.0
H848 H 0.06616 0.1039 0.83955 0.0
H849 H 0.09867 0.08423 0.85699 0.0
C850 C 0.81814 0.96543 0.46714 0.0
C851 C 0.80386 0.98053 0.45474 0.0
C852 C 0.83091 0.94935 0.45471 0.0
C853 C 0.8584 0.94268 0.39693 0.0
H854 H 0.87185 0.88214 0.41981 0.0
C855 C 0.92499 0.88653 0.34997 0.0
C856 C 0.93985 0.87418 0.36486 0.0
C857 C 0.90574 0.89715 0.35946 0.0
C858 C 0.86839 0.89907 0.41329 0.0
H859 H 0.79079 0.98995 0.41981 0.0
H860 H 0.81322 0.96176 0.39796 0.0
H861 H 0.84173 0.90423 0.43897 0.0
H862 H 0.94592 0.86313 0.4014 0.0
H863 H 0.91269 0.88219 0.41805 0.0
H864 H 0.88556 0.93805 0.37195 0.0
C865 C 0.81457 0.96246 0.4173 0.0
C866 C 0.85107 0.91164 0.42418 0.0
C867 C 0.80161 0.97844 0.42979 0.0
C868 C 0.93482 0.87247 0.38941 0.0
C869 C 0.91565 0.88327 0.39894 0.0
C870 C 0.8758 0.93019 0.38616 0.0
C871 C 0.82979 0.94817 0.4296 0.0
C872 C 0.84613 0.9337 0.41634 0.0
C873 C 0.90094 0.89586 0.38409 0.0
C874 C 0.88126 0.90836 0.39443 0.0
H875 H 0.82004 0.96662 0.48641 0.0
H876 H 0.8426 0.93869 0.46467 0.0
H877 H 0.85526 0.95978 0.39076 0.0
H878 H 0.92817 0.88796 0.33091 0.0
H879 H 0.89459 0.90638 0.34743 0.0
C880 C 0.31439 0.36975 0.13958 0.0
C881 C 0.31476 0.35832 0.11757 0.0
C882 C 0.32813 0.36244 0.15853 0.0
C883 C 0.38097 0.32987 0.16919 0.0
H884 H 0.36468 0.33865 0.23585 0.0
C885 C 0.44302 0.30953 0.24687 0.0
C886 C 0.446 0.32753 0.263 0.0
C887 C 0.42513 0.30992 0.23028 0.0
C888 C 0.36941 0.33607 0.2173 0.0
H889 H 0.32858 0.32955 0.09846 0.0
H890 H 0.35211 0.31633 0.13173 0.0
H891 H 0.33608 0.34483 0.2047 0.0
H892 H 0.43201 0.3596 0.27502 0.0
H893 H 0.40081 0.36013 0.24623 0.0
H894 H 0.41435 0.32128 0.18186 0.0
C895 C 0.34178 0.33134 0.13421 0.0
C896 C 0.35309 0.33969 0.19944 0.0
C897 C 0.32825 0.33882 0.11519 0.0
C898 C 0.43032 0.34554 0.2627 0.0
C899 C 0.4123 0.34577 0.24637 0.0
C900 C 0.3972 0.32602 0.18705 0.0
C901 C 0.34234 0.34338 0.15593 0.0
C902 C 0.35881 0.33712 0.17512 0.0
C903 C 0.4097 0.32812 0.2298 0.0
C904 C 0.39171 0.32955 0.21123 0.0
H905 H 0.30428 0.38496 0.14179 0.0
H906 H 0.32834 0.37235 0.17483 0.0
H907 H 0.38616 0.32809 0.15067 0.0
H908 H 0.45481 0.29541 0.24667 0.0
H909 H 0.42341 0.29605 0.21773 0.0
C910 C 0.68765 0.62656 0.64148 0.0
C911 C 0.68823 0.6392 0.62021 0.0
C912 C 0.67379 0.63337 0.66052 0.0
C913 C 0.62181 0.66721 0.67117 0.0
H914 H 0.63481 0.65344 0.73773 0.0
C915 C 0.5574 0.68552 0.74702 0.0
C916 C 0.55298 0.66684 0.76193 0.0
C917 C 0.57593 0.68522 0.73126 0.0
C918 C 0.631 0.65741 0.7192 0.0
H919 H 0.67621 0.66963 0.60264 0.0
H920 H 0.6526 0.68202 0.63614 0.0
H921 H 0.6645 0.64815 0.70757 0.0
H922 H 0.56505 0.63357 0.7726 0.0
H923 H 0.59736 0.63318 0.74522 0.0
H924 H 0.58827 0.6763 0.68284 0.0
C925 C 0.66219 0.66645 0.63792 0.0
C926 C 0.64795 0.65431 0.70191 0.0
C927 C 0.6758 0.65947 0.6188 0.0
C928 C 0.56785 0.64817 0.76123 0.0
C929 C 0.5865 0.64801 0.74571 0.0
C930 C 0.60498 0.67053 0.68848 0.0
C931 C 0.66044 0.65312 0.65874 0.0
C932 C 0.64342 0.65874 0.6776 0.0
C933 C 0.59057 0.6664 0.73037 0.0
C934 C 0.60926 0.66524 0.71258 0.0
H935 H 0.69695 0.61076 0.6429 0.0
H936 H 0.6727 0.62251 0.67611 0.0
H937 H 0.61749 0.67041 0.65261 0.0
H938 H 0.54629 0.70017 0.74715 0.0
H939 H 0.57877 0.69966 0.71968 0.0
C940 C 0.67291 0.39687 0.13318 0.0
C941 C 0.6887 0.38152 0.12339 0.0
C942 C 0.65845 0.39031 0.15174 0.0
C943 C 0.63068 0.34101 0.17793 0.0
H944 H 0.61941 0.38166 0.23112 0.0
C945 C 0.56682 0.32026 0.25443 0.0
C946 C 0.55288 0.33828 0.26196 0.0
C947 C 0.58508 0.32411 0.2388 0.0
C948 C 0.62224 0.37019 0.2163 0.0
H949 H 0.70181 0.34724 0.12586 0.0
H950 H 0.67608 0.33566 0.15808 0.0
H951 H 0.6486 0.39106 0.2017 0.0
H952 H 0.54705 0.37445 0.25855 0.0
H953 H 0.57841 0.381 0.23116 0.0
H954 H 0.60382 0.32047 0.19214 0.0
C955 C 0.67501 0.35278 0.15123 0.0
C956 C 0.639 0.37555 0.19951 0.0
C957 C 0.68968 0.35942 0.13275 0.0
C958 C 0.55749 0.36016 0.25331 0.0
C959 C 0.57563 0.36397 0.2377 0.0
C960 C 0.61377 0.3357 0.19469 0.0
C961 C 0.65925 0.36819 0.16087 0.0
C962 C 0.6431 0.36125 0.17992 0.0
C963 C 0.58975 0.34606 0.23038 0.0
C964 C 0.60905 0.35047 0.21379 0.0
H965 H 0.67125 0.41385 0.12609 0.0
H966 H 0.64619 0.40243 0.15853 0.0
H967 H 0.63338 0.32976 0.16289 0.0
H968 H 0.56381 0.30321 0.26079 0.0
H969 H 0.59574 0.30997 0.2336 0.0
C970 C 0.32232 0.60275 0.63325 0.0
C971 C 0.30982 0.61848 0.61971 0.0
C972 C 0.33521 0.60978 0.65285 0.0
C973 C 0.36641 0.65877 0.67458 0.0
H974 H 0.37292 0.62215 0.73188 0.0
C975 C 0.43267 0.67827 0.74928 0.0
C976 C 0.44487 0.65939 0.75782 0.0
C977 C 0.41379 0.67541 0.73421 0.0
C978 C 0.37134 0.63252 0.71595 0.0
H979 H 0.30027 0.65376 0.61644 0.0
H980 H 0.32303 0.6662 0.6509 0.0
H981 H 0.34289 0.6134 0.70311 0.0
H982 H 0.44688 0.62269 0.75684 0.0
H983 H 0.41434 0.61783 0.7305 0.0
H984 H 0.39537 0.67743 0.68706 0.0
C985 C 0.32284 0.64842 0.64624 0.0
C986 C 0.35411 0.62755 0.69953 0.0
C987 C 0.30971 0.6413 0.62669 0.0
C988 C 0.4379 0.63765 0.75073 0.0
C989 C 0.41908 0.63482 0.73577 0.0
C990 C 0.3837 0.66374 0.69102 0.0
C991 C 0.33599 0.63275 0.65927 0.0
C992 C 0.35185 0.64023 0.67837 0.0
C993 C 0.40669 0.65362 0.72749 0.0
C994 C 0.38674 0.65025 0.71153 0.0
H995 H 0.32255 0.58503 0.6283 0.0
H996 H 0.34534 0.59734 0.66236 0.0
H997 H 0.36521 0.66872 0.65832 0.0
H998 H 0.43751 0.69526 0.75443 0.0
H999 H 0.40454 0.69022 0.72816 0.0
C1000 C 0.80979 0.86604 0.13903 0.0
C1001 C 0.81086 0.8552 0.11672 0.0
C1002 C 0.82319 0.85842 0.15812 0.0
C1003 C 0.87638 0.82638 0.16878 0.0
H1004 H 0.85949 0.8342 0.23542 0.0
C1005 C 0.93869 0.80689 0.24628 0.0
C1006 C 0.94146 0.82508 0.26222 0.0
C1007 C 0.9206 0.80677 0.22993 0.0
C1008 C 0.86437 0.83185 0.21687 0.0
H1009 H 0.82545 0.82709 0.09716 0.0
H1010 H 0.84827 0.81322 0.13067 0.0
H1011 H 0.831 0.84025 0.20411 0.0
H1012 H 0.92682 0.85683 0.2743 0.0
H1013 H 0.89526 0.85648 0.24593 0.0
H1014 H 0.90979 0.81819 0.18161 0.0
C1015 C 0.83773 0.82806 0.13331 0.0
C1016 C 0.84811 0.83542 0.19892 0.0
C1017 C 0.82458 0.83589 0.11415 0.0
C1018 C 0.92529 0.84267 0.2621 0.0
C1019 C 0.90708 0.84238 0.24602 0.0
C1020 C 0.89252 0.82257 0.18673 0.0
C1021 C 0.83772 0.83961 0.15533 0.0
C1022 C 0.85406 0.83324 0.17462 0.0
C1023 C 0.90477 0.82463 0.22952 0.0
C1024 C 0.88682 0.82577 0.21089 0.0
H1025 H 0.79945 0.88108 0.14136 0.0
H1026 H 0.82293 0.86795 0.17467 0.0
H1027 H 0.88176 0.82492 0.1503 0.0
H1028 H 0.95085 0.79309 0.24597 0.0
H1029 H 0.91912 0.79285 0.21742 0.0
C1030 C 0.18361 0.14516 0.6296 0.0
C1031 C 0.17536 0.12989 0.61235 0.0
C1032 C 0.17068 0.15012 0.65003 0.0
C1033 C 0.12402 0.12685 0.68694 0.0
H1034 H 0.11657 0.18845 0.70947 0.0
C1035 C 0.07049 0.14503 0.77011 0.0
C1036 C 0.05489 0.16302 0.76843 0.0
C1037 C 0.08789 0.14262 0.7533 0.0
C1038 C 0.11845 0.17117 0.70334 0.0
H1039 H 0.14732 0.10755 0.60326 0.0
H1040 H 0.12471 0.11654 0.63838 0.0
H1041 H 0.14147 0.18074 0.67526 0.0
H1042 H 0.04595 0.19323 0.74847 0.0
H1043 H 0.07604 0.18867 0.71856 0.0
H1044 H 0.10044 0.11724 0.71415 0.0
C1045 C 0.14119 0.12457 0.63633 0.0
C1046 C 0.1329 0.16674 0.68393 0.0
C1047 C 0.15403 0.11964 0.61601 0.0
C1048 C 0.05771 0.17917 0.75019 0.0
C1049 C 0.07502 0.17661 0.73314 0.0
C1050 C 0.10962 0.13126 0.70622 0.0
C1051 C 0.14937 0.13977 0.65364 0.0
C1052 C 0.13554 0.14455 0.67531 0.0
C1053 C 0.08996 0.15797 0.73419 0.0
C1054 C 0.10647 0.15348 0.71455 0.0
H1055 H 0.19993 0.15341 0.6272 0.0
H1056 H 0.17749 0.16181 0.66313 0.0
H1057 H 0.12595 0.10952 0.68097 0.0
H1058 H 0.06905 0.13252 0.78424 0.0
H1059 H 0.09946 0.12841 0.75502 0.0
C1060 C 0.17404 0.89705 0.13438 0.0
C1061 C 0.18936 0.88117 0.12474 0.0
C1062 C 0.15885 0.89083 0.15244 0.0
C1063 C 0.12876 0.84173 0.17656 0.0
H1064 H 0.11534 0.88223 0.22931 0.0
C1065 C 0.06269 0.82056 0.25074 0.0
C1066 C 0.04844 0.83846 0.25797 0.0
C1067 C 0.0812 0.82457 0.2355 0.0
C1068 C 0.11876 0.87081 0.21458 0.0
H1069 H 0.20116 0.84643 0.12715 0.0
H1070 H 0.17431 0.83551 0.15858 0.0
H1071 H 0.14596 0.89152 0.2015 0.0
H1072 H 0.04224 0.87454 0.2543 0.0
H1073 H 0.07412 0.88137 0.22758 0.0
H1074 H 0.10119 0.82127 0.18934 0.0
C1075 C 0.17404 0.85274 0.15194 0.0
C1076 C 0.13634 0.87611 0.19871 0.0
C1077 C 0.18938 0.859 0.13394 0.0
C1078 C 0.05291 0.86035 0.24928 0.0
C1079 C 0.07132 0.86433 0.23407 0.0
C1080 C 0.11109 0.83645 0.19242 0.0
C1081 C 0.1585 0.86856 0.16122 0.0
C1082 C 0.14128 0.86183 0.17931 0.0
C1083 C 0.08583 0.84656 0.22719 0.0
C1084 C 0.10564 0.85115 0.21136 0.0
H1085 H 0.1732 0.91414 0.12741 0.0
H1086 H 0.14683 0.90332 0.15896 0.0
H1087 H 0.13204 0.8305 0.16163 0.0
H1088 H 0.0598 0.8035 0.25715 0.0
H1089 H 0.09214 0.81055 0.23063 0.0
C1090 C 0.81754 0.13795 0.62748 0.0
C1091 C 0.81695 0.11538 0.61965 0.0
C1092 C 0.83221 0.14433 0.6461 0.0
C1093 C 0.88589 0.12539 0.67367 0.0
H1094 H 0.87133 0.16734 0.7248 0.0
C1095 C 0.94343 0.13463 0.75553 0.0
C1096 C 0.94854 0.15655 0.76365 0.0
C1097 C 0.92665 0.13118 0.73825 0.0
C1098 C 0.87567 0.15581 0.71044 0.0
H1099 H 0.8297 0.08153 0.62619 0.0
H1100 H 0.8549 0.09249 0.65882 0.0
H1101 H 0.84236 0.15816 0.69462 0.0
H1102 H 0.93955 0.19205 0.7602 0.0
H1103 H 0.9101 0.18591 0.72979 0.0
H1104 H 0.91901 0.12282 0.68939 0.0
C1105 C 0.84466 0.10542 0.65021 0.0
C1106 C 0.85912 0.15055 0.69321 0.0
C1107 C 0.83016 0.09911 0.63162 0.0
C1108 C 0.93613 0.17495 0.75428 0.0
C1109 C 0.91918 0.17145 0.73698 0.0
C1110 C 0.90232 0.13059 0.69081 0.0
C1111 C 0.84641 0.12819 0.65716 0.0
C1112 C 0.86397 0.13495 0.6749 0.0
C1113 C 0.91448 0.14953 0.72863 0.0
C1114 C 0.8973 0.14553 0.70961 0.0
H1115 H 0.80752 0.1508 0.61845 0.0
H1116 H 0.83321 0.16201 0.65108 0.0
H1117 H 0.89039 0.11381 0.6594 0.0
H1118 H 0.95249 0.12001 0.76239 0.0
H1119 H 0.92314 0.11405 0.73245 0.0
loop_
_geom_bond_atom_site_label_1
_geom_bond_atom_site_label_2
_geom_bond_distance
_geom_bond_site_symmetry_2
_ccdc_geom_bond_type
C0 C1 1.386 . S
C0 C2 1.397 . S
C0 H24 0.931 . S
C1 C0 1.386 . S
C1 C5 1.397 . S
C2 C0 1.397 . S
C2 C3 1.384 . S
C2 H25 0.930 . S
C3 C2 1.384 . S
C3 C4 1.377 . S
C3 C6 1.481 . S
C4 C3 1.377 . S
C4 C5 1.389 . S
C4 H26 0.929 . S
C5 C1 1.397 . S
C5 C4 1.389 . S
C5 H27 0.931 . S
C6 C3 1.481 . S
C6 C7 1.387 . S
C6 C11 1.390 1_556 S
C7 C6 1.387 . S
C7 C8 1.401 1_556 S
C7 H28 0.930 . S
C8 C7 1.401 1_554 S
C8 C9 1.376 . S
C8 C17 1.511 1_554 S
C9 C8 1.376 . S
C9 C10 1.392 . S
C9 H30 0.931 . S
C10 C9 1.392 . S
C10 C11 1.361 . S
C10 C12 1.500 . S
C11 C6 1.390 1_554 S
C11 C10 1.361 . S
C11 H29 0.931 . S
C12 C10 1.500 . S
C12 C13 1.371 . S
C12 C14 1.365 . S
C13 C12 1.371 . S
C13 C23 1.386 . S
C13 H31 0.931 . S
C14 C12 1.365 . S
C14 C15 1.409 . S
C14 H32 0.929 . S
C15 C14 1.409 . S
C15 C16 1.380 . S
C15 H33 0.930 . S
C16 C15 1.380 . S
C16 C23 1.357 . S
C17 C8 1.511 1_556 S
C17 C18 1.341 . S
C17 C19 1.372 1_556 S
C18 C17 1.341 . S
C18 C22 1.394 . S
C18 H34 0.930 . S
C19 C17 1.372 1_554 S
C19 C20 1.394 1_554 S
C19 H35 0.929 . S
C20 C19 1.394 1_556 S
C20 C21 1.331 . S
C20 H38 0.932 . S
C21 C20 1.331 . S
C21 C22 1.336 . S
C22 C18 1.394 . S
C22 C21 1.336 . S
C22 H37 0.929 . S
C23 C13 1.386 . S
C23 C16 1.357 . S
C23 H36 0.928 . S
H24 C0 0.931 . S
H25 C2 0.930 . S
H26 C4 0.929 . S
H27 C5 0.931 . S
H28 C7 0.930 . S
H29 C11 0.931 . S
H30 C9 0.931 . S
H31 C13 0.931 . S
H32 C14 0.929 . S
H33 C15 0.930 . S
H34 C18 0.930 . S
H35 C19 0.929 . S
H36 C23 0.928 . S
H37 C22 0.929 . S
H38 C20 0.932 . S
C39 C40 1.386 . S
C39 C41 1.397 . S
C39 H63 0.931 . S
C40 C39 1.386 . S
C40 C44 1.397 . S
C41 C39 1.397 . S
C41 C42 1.384 . S
C41 H64 0.930 . S
C42 C41 1.384 . S
C42 C43 1.377 . S
C42 C45 1.481 . S
C43 C42 1.377 . S
C43 C44 1.389 . S
C43 H65 0.929 . S
C44 C40 1.397 . S
C44 C43 1.389 . S
C44 H66 0.931 . S
C45 C42 1.481 . S
C45 C46 1.387 . S
C45 C50 1.390 . S
C46 C45 1.387 . S
C46 C47 1.401 . S
C46 H67 0.930 . S
C47 C46 1.401 . S
C47 C48 1.376 . S
C47 C56 1.511 . S
C48 C47 1.376 . S
C48 C49 1.392 . S
C48 H69 0.931 . S
C49 C48 1.392 . S
C49 C50 1.361 . S
C49 C51 1.500 . S
C50 C45 1.390 . S
C50 C49 1.361 . S
C50 H68 0.931 . S
C51 C49 1.500 . S
C51 C52 1.371 . S
C51 C53 1.365 . S
C52 C51 1.371 . S
C52 C62 1.386 . S
C52 H70 0.931 . S
C53 C51 1.365 . S
C53 C54 1.409 . S
C53 H71 0.929 . S
C54 C53 1.409 . S
C54 C55 1.380 . S
C54 H72 0.930 . S
C55 C54 1.380 . S
C55 C62 1.357 . S
C56 C47 1.511 . S
C56 C57 1.341 . S
C56 C58 1.371 . S
C57 C56 1.341 . S
C57 C61 1.394 . S
C57 H73 0.930 . S
C58 C56 1.371 . S
C58 C59 1.392 . S
C58 H74 0.931 . S
C59 C58 1.392 . S
C59 C60 1.331 . S
C59 H77 0.932 . S
C60 C59 1.331 . S
C60 C61 1.336 . S
C61 C57 1.394 . S
C61 C60 1.336 . S
C61 H76 0.929 . S
C62 C52 1.386 . S
C62 C55 1.357 . S
C62 H75 0.928 . S
H63 C39 0.931 . S
H64 C41 0.930 . S
H65 C43 0.929 . S
H66 C44 0.931 . S
H67 C46 0.930 . S
H68 C50 0.931 . S
H69 C48 0.931 . S
H70 C52 0.931 . S
H71 C53 0.929 . S
H72 C54 0.930 . S
H73 C57 0.930 . S
H74 C58 0.931 . S
H75 C62 0.928 . S
H76 C61 0.929 . S
H77 C59 0.932 . S
C78 C79 1.386 . S
C78 C80 1.397 . S
C78 H102 0.931 . S
C79 C78 1.386 . S
C79 C83 1.397 . S
C80 C78 1.397 . S
C80 C81 1.384 . S
C80 H103 0.930 . S
C81 C80 1.384 . S
C81 C82 1.377 . S
C81 C84 1.481 . S
C82 C81 1.377 . S
C82 C83 1.389 . S
C82 H104 0.929 1_556 S
C83 C79 1.397 . S
C83 C82 1.389 . S
C83 H105 0.931 . S
C84 C81 1.481 . S
C84 C85 1.387 . S
C84 C89 1.390 1_556 S
C85 C84 1.387 . S
C85 C86 1.401 1_556 S
C85 H106 0.930 . S
C86 C85 1.401 1_554 S
C86 C87 1.376 . S
C86 C95 1.511 1_554 S
C87 C86 1.376 . S
C87 C88 1.392 . S
C87 H108 0.931 . S
C88 C87 1.392 . S
C88 C89 1.361 . S
C88 C90 1.500 . S
C89 C84 1.390 1_554 S
C89 C88 1.361 . S
C89 H107 0.931 . S
C90 C88 1.500 . S
C90 C91 1.371 . S
C90 C92 1.365 . S
C91 C90 1.371 . S
C91 C101 1.386 . S
C91 H109 0.931 . S
C92 C90 1.365 . S
C92 C93 1.409 . S
C92 H110 0.929 . S
C93 C92 1.409 . S
C93 C94 1.380 . S
C93 H111 0.930 . S
C94 C93 1.380 . S
C94 C101 1.357 . S
C95 C86 1.511 1_556 S
C95 C96 1.341 . S
C95 C97 1.371 1_556 S
C96 C95 1.341 . S
C96 C100 1.394 . S
C96 H112 0.930 . S
C97 C95 1.371 1_554 S
C97 C98 1.392 1_554 S
C97 H113 0.931 . S
C98 C97 1.392 1_556 S
C98 C99 1.331 . S
C98 H116 0.932 1_556 S
C99 C98 1.331 . S
C99 C100 1.336 . S
C100 C96 1.394 . S
C100 C99 1.336 . S
C100 H115 0.929 . S
C101 C91 1.386 . S
C101 C94 1.357 . S
C101 H114 0.928 . S
H102 C78 0.931 . S
H103 C80 0.930 . S
H104 C82 0.929 1_554 S
H105 C83 0.931 . S
H106 C85 0.930 . S
H107 C89 0.931 . S
H108 C87 0.931 . S
H109 C91 0.931 . S
H110 C92 0.929 . S
H111 C93 0.930 . S
H112 C96 0.930 . S
H113 C97 0.931 . S
H114 C101 0.928 . S
H115 C100 0.929 . S
H116 C98 0.932 1_554 S
C117 C118 1.386 . S
C117 C119 1.397 . S
C117 H141 0.931 . S
C118 C117 1.386 . S
C118 C122 1.397 . S
C119 C117 1.397 . S
C119 C120 1.384 . S
C119 H142 0.930 . S
C120 C119 1.384 . S
C120 C121 1.377 . S
C120 C123 1.481 . S
C121 C120 1.377 . S
C121 C122 1.389 . S
C121 H143 0.929 . S
C122 C118 1.397 . S
C122 C121 1.389 . S
C122 H144 0.931 . S
C123 C120 1.481 . S
C123 C124 1.387 . S
C123 C128 1.390 . S
C124 C123 1.387 . S
C124 C125 1.401 . S
C124 H145 0.930 . S
C125 C124 1.401 . S
C125 C126 1.376 . S
C125 C134 1.511 . S
C126 C125 1.376 . S
C126 C127 1.392 . S
C126 H147 0.931 . S
C127 C126 1.392 . S
C127 C128 1.361 . S
C127 C129 1.500 . S
C128 C123 1.390 . S
C128 C127 1.361 . S
C128 H146 0.931 . S
C129 C127 1.500 . S
C129 C130 1.371 . S
C129 C131 1.365 . S
C130 C129 1.371 . S
C130 C140 1.386 . S
C130 H148 0.931 . S
C131 C129 1.365 . S
C131 C132 1.409 . S
C131 H149 0.929 . S
C132 C131 1.409 . S
C132 C133 1.380 . S
C132 H150 0.930 . S
C133 C132 1.380 . S
C133 C140 1.357 . S
C134 C125 1.511 . S
C134 C135 1.341 . S
C134 C136 1.371 . S
C135 C134 1.341 . S
C135 C139 1.394 . S
C135 H151 0.930 . S
C136 C134 1.371 . S
C136 C137 1.392 . S
C136 H152 0.931 . S
C137 C136 1.392 . S
C137 C138 1.331 . S
C137 H155 0.932 . S
C138 C137 1.331 . S
C138 C139 1.336 . S
C139 C135 1.394 . S
C139 C138 1.336 . S
C139 H154 0.929 . S
C140 C130 1.386 . S
C140 C133 1.357 . S
C140 H153 0.928 . S
H141 C117 0.931 . S
H142 C119 0.930 . S
H143 C121 0.929 . S
H144 C122 0.931 . S
H145 C124 0.930 . S
H146 C128 0.931 . S
H147 C126 0.931 . S
H148 C130 0.931 . S
H149 C131 0.929 . S
H150 C132 0.930 . S
H151 C135 0.930 . S
H152 C136 0.931 . S
H153 C140 0.928 . S
H154 C139 0.929 . S
H155 C137 0.932 . S
C156 C157 1.386 . S
C156 C158 1.397 . S
C156 H180 0.931 . S
C157 C156 1.386 . S
C157 C161 1.397 . S
C158 C156 1.397 . S
C158 C159 1.384 . S
C158 H181 0.930 . S
C159 C158 1.384 . S
C159 C160 1.377 . S
C159 C162 1.481 . S
C160 C159 1.377 . S
C160 C161 1.389 . S
C160 H182 0.929 . S
C161 C157 1.397 . S
C161 C160 1.389 . S
C161 H183 0.931 . S
C162 C159 1.481 . S
C162 C163 1.387 . S
C162 C167 1.390 1_556 S
C163 C162 1.387 . S
C163 C164 1.401 1_556 S
C163 H184 0.930 . S
C164 C163 1.401 1_554 S
C164 C165 1.376 . S
C164 C173 1.511 1_554 S
C165 C164 1.376 . S
C165 C166 1.392 . S
C165 H186 0.931 . S
C166 C165 1.392 . S
C166 C167 1.361 . S
C166 C168 1.500 . S
C167 C162 1.390 1_554 S
C167 C166 1.361 . S
C167 H185 0.931 . S
C168 C166 1.500 . S
C168 C169 1.371 . S
C168 C170 1.365 . S
C169 C168 1.371 . S
C169 C179 1.386 . S
C169 H187 0.931 . S
C170 C168 1.365 . S
C170 C171 1.409 . S
C170 H188 0.929 . S
C171 C170 1.409 . S
C171 C172 1.380 . S
C171 H189 0.930 . S
C172 C171 1.380 . S
C172 C179 1.357 . S
C173 C164 1.511 1_556 S
C173 C174 1.341 . S
C173 C175 1.372 1_556 S
C174 C173 1.341 . S
C174 C178 1.394 . S
C174 H190 0.930 . S
C175 C173 1.372 1_554 S
C175 C176 1.394 1_554 S
C175 H191 0.929 . S
C176 C175 1.394 1_556 S
C176 C177 1.331 . S
C176 H194 0.932 . S
C177 C176 1.331 . S
C177 C178 1.336 . S
C178 C174 1.394 . S
C178 C177 1.336 . S
C178 H193 0.929 . S
C179 C169 1.386 . S
C179 C172 1.357 . S
C179 H192 0.928 . S
H180 C156 0.931 . S
H181 C158 0.930 . S
H182 C160 0.929 . S
H183 C161 0.931 . S
H184 C163 0.930 . S
H185 C167 0.931 . S
H186 C165 0.931 . S
H187 C169 0.931 . S
H188 C170 0.929 . S
H189 C171 0.930 . S
H190 C174 0.930 . S
H191 C175 0.929 . S
H192 C179 0.928 . S
H193 C178 0.929 . S
H194 C176 0.932 . S
C195 C196 1.386 . S
C195 C197 1.397 . S
C195 H219 0.931 . S
C196 C195 1.386 . S
C196 C200 1.397 . S
C197 C195 1.397 . S
C197 C198 1.384 . S
C197 H220 0.930 . S
C198 C197 1.384 . S
C198 C199 1.377 . S
C198 C201 1.481 . S
C199 C198 1.377 . S
C199 C200 1.389 . S
C199 H221 0.929 . S
C200 C196 1.397 . S
C200 C199 1.389 . S
C200 H222 0.931 . S
C201 C198 1.481 . S
C201 C202 1.387 . S
C201 C206 1.390 . S
C202 C201 1.387 . S
C202 C203 1.401 . S
C202 H223 0.930 . S
C203 C202 1.401 . S
C203 C204 1.376 . S
C203 C212 1.511 . S
C204 C203 1.376 . S
C204 C205 1.392 . S
C204 H225 0.931 . S
C205 C204 1.392 . S
C205 C206 1.361 . S
C205 C207 1.500 . S
C206 C201 1.390 . S
C206 C205 1.361 . S
C206 H224 0.931 . S
C207 C205 1.500 . S
C207 C208 1.371 . S
C207 C209 1.365 . S
C208 C207 1.371 . S
C208 C218 1.386 . S
C208 H226 0.931 . S
C209 C207 1.365 . S
C209 C210 1.409 . S
C209 H227 0.929 . S
C210 C209 1.409 . S
C210 C211 1.380 . S
C210 H228 0.930 . S
C211 C210 1.380 . S
C211 C218 1.357 . S
C212 C203 1.511 . S
C212 C213 1.341 . S
C212 C214 1.371 . S
C213 C212 1.341 . S
C213 C217 1.394 . S
C213 H229 0.930 . S
C214 C212 1.371 . S
C214 C215 1.392 . S
C214 H230 0.931 . S
C215 C214 1.392 . S
C215 C216 1.331 . S
C215 H233 0.932 . S
C216 C215 1.331 . S
C216 C217 1.336 . S
C217 C213 1.394 . S
C217 C216 1.336 . S
C217 H232 0.929 . S
C218 C208 1.386 . S
C218 C211 1.357 . S
C218 H231 0.928 . S
H219 C195 0.931 . S
H220 C197 0.930 . S
H221 C199 0.929 . S
H222 C200 0.931 . S
H223 C202 0.930 . S
H224 C206 0.931 . S
H225 C204 0.931 . S
H226 C208 0.931 . S
H227 C209 0.929 . S
H228 C210 0.930 . S
H229 C213 0.930 . S
H230 C214 0.931 . S
H231 C218 0.928 . S
H232 C217 0.929 . S
H233 C215 0.932 . S
C234 C235 1.386 . S
C234 C236 1.397 . S
C234 H258 0.931 . S
C235 C234 1.386 . S
C235 C239 1.397 . S
C236 C234 1.397 . S
C236 C237 1.384 . S
C236 H259 0.930 . S
C237 C236 1.384 . S
C237 C238 1.377 . S
C237 C240 1.481 . S
C238 C237 1.377 . S
C238 C239 1.389 . S
C238 H260 0.929 1_556 S
C239 C235 1.397 . S
C239 C238 1.389 . S
C239 H261 0.931 . S
C240 C237 1.481 . S
C240 C241 1.387 . S
C240 C245 1.390 1_556 S
C241 C240 1.387 . S
C241 C242 1.401 1_556 S
C241 H262 0.930 . S
C242 C241 1.401 1_554 S
C242 C243 1.376 . S
C242 C251 1.511 1_554 S
C243 C242 1.376 . S
C243 C244 1.392 . S
C243 H264 0.931 . S
C244 C243 1.392 . S
C244 C245 1.361 . S
C244 C246 1.500 . S
C245 C240 1.390 1_554 S
C245 C244 1.361 . S
C245 H263 0.931 . S
C246 C244 1.500 . S
C246 C247 1.371 . S
C246 C248 1.365 . S
C247 C246 1.371 . S
C247 C257 1.386 . S
C247 H265 0.931 . S
C248 C246 1.365 . S
C248 C249 1.409 . S
C248 H266 0.929 . S
C249 C248 1.409 . S
C249 C250 1.380 . S
C249 H267 0.930 . S
C250 C249 1.380 . S
C250 C257 1.357 . S
C251 C242 1.511 1_556 S
C251 C252 1.341 . S
C251 C253 1.371 1_556 S
C252 C251 1.341 . S
C252 C256 1.394 . S
C252 H268 0.930 . S
C253 C251 1.371 1_554 S
C253 C254 1.392 1_554 S
C253 H269 0.931 . S
C254 C253 1.392 1_556 S
C254 C255 1.331 . S
C254 H272 0.932 1_556 S
C255 C254 1.331 . S
C255 C256 1.336 . S
C256 C252 1.394 . S
C256 C255 1.336 . S
C256 H271 0.929 . S
C257 C247 1.386 . S
C257 C250 1.357 . S
C257 H270 0.928 . S
H258 C234 0.931 . S
H259 C236 0.930 . S
H260 C238 0.929 1_554 S
H261 C239 0.931 . S
H262 C241 0.930 . S
H263 C245 0.931 . S
H264 C243 0.931 . S
H265 C247 0.931 . S
H266 C248 0.929 . S
H267 C249 0.930 . S
H268 C252 0.930 . S
H269 C253 0.931 . S
H270 C257 0.928 . S
H271 C256 0.929 . S
H272 C254 0.932 1_554 S
C273 C274 1.386 . S
C273 C275 1.397 . S
C273 H297 0.931 . S
C274 C273 1.386 . S
C274 C278 1.397 . S
C275 C273 1.397 . S
C275 C276 1.384 . S
C275 H298 0.930 . S
C276 C275 1.384 . S
C276 C277 1.377 . S
C276 C279 1.481 . S
C277 C276 1.377 . S
C277 C278 1.389 . S
C277 H299 0.929 . S
C278 C274 1.397 . S
C278 C277 1.389 . S
C278 H300 0.931 . S
C279 C276 1.481 . S
C279 C280 1.387 . S
C279 C284 1.390 . S
C280 C279 1.387 . S
C280 C281 1.401 . S
C280 H301 0.930 . S
C281 C280 1.401 . S
C281 C282 1.376 . S
C281 C290 1.511 . S
C282 C281 1.376 . S
C282 C283 1.392 . S
C282 H303 0.931 . S
C283 C282 1.392 . S
C283 C284 1.361 . S
C283 C285 1.500 . S
C284 C279 1.390 . S
C284 C283 1.361 . S
C284 H302 0.931 . S
C285 C283 1.500 . S
C285 C286 1.371 . S
C285 C287 1.365 . S
C286 C285 1.371 . S
C286 C296 1.386 . S
C286 H304 0.931 . S
C287 C285 1.365 . S
C287 C288 1.409 . S
C287 H305 0.929 . S
C288 C287 1.409 . S
C288 C289 1.380 . S
C288 H306 0.930 . S
C289 C288 1.380 . S
C289 C296 1.357 . S
C290 C281 1.511 . S
C290 C291 1.341 . S
C290 C292 1.371 . S
C291 C290 1.341 . S
C291 C295 1.394 . S
C291 H307 0.930 . S
C292 C290 1.371 . S
C292 C293 1.392 . S
C292 H308 0.931 . S
C293 C292 1.392 . S
C293 C294 1.331 . S
C293 H311 0.932 . S
C294 C293 1.331 . S
C294 C295 1.336 . S
C295 C291 1.394 . S
C295 C294 1.336 . S
C295 H310 0.929 . S
C296 C286 1.386 . S
C296 C289 1.357 . S
C296 H309 0.928 . S
H297 C273 0.931 . S
H298 C275 0.930 . S
H299 C277 0.929 . S
H300 C278 0.931 . S
H301 C280 0.930 . S
H302 C284 0.931 . S
H303 C282 0.931 . S
H304 C286 0.931 . S
H305 C287 0.929 . S
H306 C288 0.930 . S
H307 C291 0.930 . S
H308 C292 0.931 . S
H309 C296 0.928 . S
H310 C295 0.929 . S
H311 C293 0.932 . S
Sc312 O315 2.025 . S
Sc312 O322 2.105 1_455 S
Sc312 O325 2.105 . S
Sc312 O328 2.105 . S
Sc312 O331 2.105 1_455 S
Sc313 O315 2.025 . S
Sc313 O323 2.105 1_455 S
Sc313 O327 2.105 . S
Sc313 O329 2.105 . S
Sc313 O333 2.105 1_455 S
Sc314 O315 2.025 . S
Sc314 O324 2.105 1_455 S
Sc314 O326 2.105 . S
Sc314 O330 2.105 . S
Sc314 O332 2.105 1_455 S
O315 Sc312 2.025 . S
O315 Sc313 2.025 . S
O315 Sc314 2.025 . S
C316 O322 1.268 . S
C316 O332 1.268 . S
C317 O323 1.268 . S
C317 O331 1.268 . S
C318 O324 1.268 . S
C318 O333 1.268 . S
C319 O325 1.268 . S
C319 O329 1.268 . S
C320 O326 1.268 . S
C320 O328 1.268 . S
C321 O327 1.268 . S
C321 O330 1.268 . S
O322 Sc312 2.105 1_655 S
O322 C316 1.268 . S
O323 Sc313 2.105 1_655 S
O323 C317 1.268 . S
O324 Sc314 2.105 1_655 S
O324 C318 1.268 . S
O325 Sc312 2.105 . S
O325 C319 1.268 . S
O326 Sc314 2.105 . S
O326 C320 1.268 . S
O327 Sc313 2.105 . S
O327 C321 1.268 . S
O328 Sc312 2.105 . S
O328 C320 1.268 . S
O329 Sc313 2.105 . S
O329 C319 1.268 . S
O330 Sc314 2.105 . S
O330 C321 1.268 . S
O331 Sc312 2.105 1_655 S
O331 C317 1.268 . S
O332 Sc314 2.105 1_655 S
O332 C316 1.268 . S
O333 Sc313 2.105 1_655 S
O333 C318 1.268 . S
Sc334 O337 2.025 . S
Sc334 O344 2.105 . S
Sc334 O347 2.105 1_455 S
Sc334 O350 2.105 1_455 S
Sc334 O353 2.105 . S
Sc335 O337 2.025 . S
Sc335 O345 2.105 . S
Sc335 O349 2.105 1_455 S
Sc335 O351 2.105 1_455 S
Sc335 O355 2.105 . S
Sc336 O337 2.025 . S
Sc336 O346 2.105 . S
Sc336 O348 2.105 1_455 S
Sc336 O352 2.105 1_455 S
Sc336 O354 2.105 . S
O337 Sc334 2.025 . S
O337 Sc335 2.025 . S
O337 Sc336 2.025 . S
C338 O344 1.268 . S
C338 O354 1.268 . S
C339 O345 1.268 . S
C339 O353 1.268 . S
C340 O346 1.268 . S
C340 O355 1.268 . S
C341 O347 1.268 . S
C341 O351 1.268 . S
C342 O348 1.268 . S
C342 O350 1.268 . S
C343 O349 1.268 . S
C343 O352 1.268 . S
O344 Sc334 2.105 . S
O344 C338 1.268 . S
O345 Sc335 2.105 . S
O345 C339 1.268 . S
O346 Sc336 2.105 . S
O346 C340 1.268 . S
O347 Sc334 2.105 1_655 S
O347 C341 1.268 . S
O348 Sc336 2.105 1_655 S
O348 C342 1.268 . S
O349 Sc335 2.105 1_655 S
O349 C343 1.268 . S
O350 Sc334 2.105 1_655 S
O350 C342 1.268 . S
O351 Sc335 2.105 1_655 S
O351 C341 1.268 . S
O352 Sc336 2.105 1_655 S
O352 C343 1.268 . S
O353 Sc334 2.105 . S
O353 C339 1.268 . S
O354 Sc336 2.105 . S
O354 C338 1.268 . S
O355 Sc335 2.105 . S
O355 C340 1.268 . S
Sc356 O359 2.025 . S
Sc356 O366 2.105 . S
Sc356 O369 2.105 . S
Sc356 O372 2.105 . S
Sc356 O375 2.105 . S
Sc357 O359 2.025 . S
Sc357 O367 2.105 . S
Sc357 O371 2.105 . S
Sc357 O373 2.105 . S
Sc357 O377 2.105 . S
Sc358 O359 2.025 . S
Sc358 O368 2.105 . S
Sc358 O370 2.105 . S
Sc358 O374 2.105 . S
Sc358 O376 2.105 . S
O359 Sc356 2.025 . S
O359 Sc357 2.025 . S
O359 Sc358 2.025 . S
C360 O366 1.268 . S
C360 O376 1.268 . S
C361 O367 1.268 . S
C361 O375 1.268 . S
C362 O368 1.268 . S
C362 O377 1.268 . S
C363 O369 1.268 . S
C363 O373 1.268 . S
C364 O370 1.268 . S
C364 O372 1.268 . S
C365 O371 1.268 . S
C365 O374 1.268 . S
O366 Sc356 2.105 . S
O366 C360 1.268 . S
O367 Sc357 2.105 . S
O367 C361 1.268 . S
O368 Sc358 2.105 . S
O368 C362 1.268 . S
O369 Sc356 2.105 . S
O369 C363 1.268 . S
O370 Sc358 2.105 . S
O370 C364 1.268 . S
O371 Sc357 2.105 . S
O371 C365 1.268 . S
O372 Sc356 2.105 . S
O372 C364 1.268 . S
O373 Sc357 2.105 . S
O373 C363 1.268 . S
O374 Sc358 2.105 . S
O374 C365 1.268 . S
O375 Sc356 2.105 . S
O375 C361 1.268 . S
O376 Sc358 2.105 . S
O376 C360 1.268 . S
O377 Sc357 2.105 . S
O377 C362 1.268 . S
Sc378 O381 2.025 . S
Sc378 O388 2.105 . S
Sc378 O391 2.105 . S
Sc378 O394 2.105 . S
Sc378 O397 2.105 . S
Sc379 O381 2.025 . S
Sc379 O389 2.105 . S
Sc379 O393 2.105 . S
Sc379 O395 2.105 . S
Sc379 O399 2.105 . S
Sc380 O381 2.025 . S
Sc380 O390 2.105 . S
Sc380 O392 2.105 . S
Sc380 O396 2.105 . S
Sc380 O398 2.105 . S
O381 Sc378 2.025 . S
O381 Sc379 2.025 . S
O381 Sc380 2.025 . S
C382 O388 1.268 . S
C382 O398 1.268 . S
C383 O389 1.268 . S
C383 O397 1.268 . S
C384 O390 1.268 . S
C384 O399 1.268 . S
C385 O391 1.268 . S
C385 O395 1.268 . S
C386 O392 1.268 . S
C386 O394 1.268 . S
C387 O393 1.268 . S
C387 O396 1.268 . S
O388 Sc378 2.105 . S
O388 C382 1.268 . S
O389 Sc379 2.105 . S
O389 C383 1.268 . S
O390 Sc380 2.105 . S
O390 C384 1.268 . S
O391 Sc378 2.105 . S
O391 C385 1.268 . S
O392 Sc380 2.105 . S
O392 C386 1.268 . S
O393 Sc379 2.105 . S
O393 C387 1.268 . S
O394 Sc378 2.105 . S
O394 C386 1.268 . S
O395 Sc379 2.105 . S
O395 C385 1.268 . S
O396 Sc380 2.105 . S
O396 C387 1.268 . S
O397 Sc378 2.105 . S
O397 C383 1.268 . S
O398 Sc380 2.105 . S
O398 C382 1.268 . S
O399 Sc379 2.105 . S
O399 C384 1.268 . S
C400 C401 1.349 . S
C400 C402 1.327 . S
C400 H425 0.950 . S
C401 C400 1.349 . S
C401 C417 1.349 . S
C402 C400 1.327 . S
C402 C421 1.429 . S
C402 H426 0.950 . S
C403 C420 1.574 . S
C403 C422 1.368 . S
C403 H427 0.949 . S
H404 C408 0.949 . S
C405 C406 1.349 . S
C405 C407 1.327 . S
C405 H428 0.950 . S
C406 C405 1.349 . S
C406 C418 1.349 . S
C407 C405 1.327 . S
C407 C423 1.429 . S
C407 H429 0.950 . S
C408 H404 0.949 . S
C408 C416 1.574 . S
C408 C424 1.368 . S
H409 C417 0.950 . S
H410 C415 0.950 . S
H411 C416 0.949 . S
H412 C418 0.950 . S
H413 C419 0.950 . S
H414 C420 0.949 . S
C415 H410 0.950 . S
C415 C417 1.327 . S
C415 C421 1.429 . S
C416 C408 1.574 . S
C416 H411 0.949 . S
C416 C422 1.368 . S
C417 C401 1.349 . S
C417 H409 0.950 . S
C417 C415 1.327 . S
C418 C406 1.349 . S
C418 H412 0.950 . S
C418 C419 1.327 . S
C419 H413 0.950 . S
C419 C418 1.327 . S
C419 C423 1.429 . S
C420 C403 1.574 . S
C420 H414 0.949 . S
C420 C424 1.368 . S
C421 C402 1.429 . S
C421 C415 1.429 . S
C421 C422 1.523 . S
C422 C403 1.368 . S
C422 C416 1.368 . S
C422 C421 1.523 . S
C423 C407 1.429 . S
C423 C419 1.429 . S
C423 C424 1.523 . S
C424 C408 1.368 . S
C424 C420 1.368 . S
C424 C423 1.523 . S
H425 C400 0.950 . S
H426 C402 0.950 . S
H427 C403 0.949 . S
H428 C405 0.950 . S
H429 C407 0.950 . S
C430 C431 1.349 . S
C430 C432 1.327 . S
C430 H455 0.950 . S
C431 C430 1.349 . S
C431 C447 1.349 . S
C432 C430 1.327 . S
C432 C451 1.429 . S
C432 H456 0.950 . S
C433 C450 1.574 . S
C433 C452 1.368 . S
C433 H457 0.949 . S
H434 C438 0.949 . S
C435 C436 1.349 . S
C435 C437 1.327 . S
C435 H458 0.950 . S
C436 C435 1.349 . S
C436 C448 1.349 . S
C437 C435 1.327 . S
C437 C453 1.429 . S
C437 H459 0.950 . S
C438 H434 0.949 . S
C438 C446 1.574 . S
C438 C454 1.368 . S
H439 C447 0.950 . S
H440 C445 0.950 . S
H441 C446 0.949 . S
H442 C448 0.950 . S
H443 C449 0.950 . S
H444 C450 0.949 . S
C445 H440 0.950 . S
C445 C447 1.327 . S
C445 C451 1.429 . S
C446 C438 1.574 . S
C446 H441 0.949 . S
C446 C452 1.368 . S
C447 C431 1.349 . S
C447 H439 0.950 . S
C447 C445 1.327 . S
C448 C436 1.349 . S
C448 H442 0.950 . S
C448 C449 1.327 . S
C449 H443 0.950 . S
C449 C448 1.327 . S
C449 C453 1.429 . S
C450 C433 1.574 . S
C450 H444 0.949 . S
C450 C454 1.368 . S
C451 C432 1.429 . S
C451 C445 1.429 . S
C451 C452 1.523 . S
C452 C433 1.368 . S
C452 C446 1.368 . S
C452 C451 1.523 . S
C453 C437 1.429 . S
C453 C449 1.429 . S
C453 C454 1.523 . S
C454 C438 1.368 . S
C454 C450 1.368 . S
C454 C453 1.523 . S
H455 C430 0.950 . S
H456 C432 0.950 . S
H457 C433 0.949 . S
H458 C435 0.950 . S
H459 C437 0.950 . S
C460 C461 1.349 . S
C460 C462 1.327 . S
C460 H485 0.950 . S
C461 C460 1.349 . S
C461 C477 1.349 . S
C462 C460 1.327 . S
C462 C481 1.429 . S
C462 H486 0.950 . S
C463 C480 1.574 . S
C463 C482 1.368 . S
C463 H487 0.949 . S
H464 C468 0.949 . S
C465 C466 1.349 . S
C465 C467 1.327 . S
C465 H488 0.950 . S
C466 C465 1.349 . S
C466 C478 1.349 . S
C467 C465 1.327 . S
C467 C483 1.429 . S
C467 H489 0.950 . S
C468 H464 0.949 . S
C468 C476 1.574 . S
C468 C484 1.368 . S
H469 C477 0.950 . S
H470 C475 0.950 . S
H471 C476 0.949 . S
H472 C478 0.950 . S
H473 C479 0.950 . S
H474 C480 0.949 . S
C475 H470 0.950 . S
C475 C477 1.327 . S
C475 C481 1.429 . S
C476 C468 1.574 . S
C476 H471 0.949 . S
C476 C482 1.368 . S
C477 C461 1.349 . S
C477 H469 0.950 . S
C477 C475 1.327 . S
C478 C466 1.349 . S
C478 H472 0.950 . S
C478 C479 1.327 . S
C479 H473 0.950 . S
C479 C478 1.327 . S
C479 C483 1.429 . S
C480 C463 1.574 . S
C480 H474 0.949 . S
C480 C484 1.368 . S
C481 C462 1.429 . S
C481 C475 1.429 . S
C481 C482 1.523 . S
C482 C463 1.368 . S
C482 C476 1.368 . S
C482 C481 1.523 . S
C483 C467 1.429 . S
C483 C479 1.429 . S
C483 C484 1.523 . S
C484 C468 1.368 . S
C484 C480 1.368 . S
C484 C483 1.523 . S
H485 C460 0.950 . S
H486 C462 0.950 . S
H487 C463 0.949 . S
H488 C465 0.950 . S
H489 C467 0.950 . S
C490 C491 1.349 . S
C490 C492 1.327 . S
C490 H515 0.950 . S
C491 C490 1.349 . S
C491 C507 1.349 . S
C492 C490 1.327 . S
C492 C511 1.429 . S
C492 H516 0.950 . S
C493 C510 1.574 . S
C493 C512 1.368 . S
C493 H517 0.949 . S
H494 C498 0.949 . S
C495 C496 1.349 . S
C495 C497 1.327 . S
C495 H518 0.950 . S
C496 C495 1.349 . S
C496 C508 1.349 . S
C497 C495 1.327 . S
C497 C513 1.429 . S
C497 H519 0.950 . S
C498 H494 0.949 . S
C498 C506 1.574 . S
C498 C514 1.368 . S
H499 C507 0.950 . S
H500 C505 0.950 . S
H501 C506 0.949 . S
H502 C508 0.950 . S
H503 C509 0.950 . S
H504 C510 0.949 . S
C505 H500 0.950 . S
C505 C507 1.327 . S
C505 C511 1.429 . S
C506 C498 1.574 . S
C506 H501 0.949 . S
C506 C512 1.368 . S
C507 C491 1.349 . S
C507 H499 0.950 . S
C507 C505 1.327 . S
C508 C496 1.349 . S
C508 H502 0.950 . S
C508 C509 1.327 . S
C509 H503 0.950 . S
C509 C508 1.327 . S
C509 C513 1.429 . S
C510 C493 1.574 . S
C510 H504 0.949 . S
C510 C514 1.368 . S
C511 C492 1.429 . S
C511 C505 1.429 . S
C511 C512 1.523 . S
C512 C493 1.368 . S
C512 C506 1.368 . S
C512 C511 1.523 . S
C513 C497 1.429 . S
C513 C509 1.429 . S
C513 C514 1.523 . S
C514 C498 1.368 . S
C514 C510 1.368 . S
C514 C513 1.523 . S
H515 C490 0.950 . S
H516 C492 0.950 . S
H517 C493 0.949 . S
H518 C495 0.950 . S
H519 C497 0.950 . S
C520 C521 1.349 . S
C520 C522 1.327 . S
C520 H545 0.950 . S
C521 C520 1.349 . S
C521 C537 1.349 . S
C522 C520 1.327 . S
C522 C541 1.429 . S
C522 H546 0.950 . S
C523 C540 1.574 . S
C523 C542 1.368 . S
C523 H547 0.949 . S
H524 C528 0.949 . S
C525 C526 1.349 . S
C525 C527 1.327 . S
C525 H548 0.950 . S
C526 C525 1.349 . S
C526 C538 1.349 . S
C527 C525 1.327 . S
C527 C543 1.429 . S
C527 H549 0.950 . S
C528 H524 0.949 . S
C528 C536 1.574 . S
C528 C544 1.368 . S
H529 C537 0.950 . S
H530 C535 0.950 . S
H531 C536 0.949 . S
H532 C538 0.950 . S
H533 C539 0.950 . S
H534 C540 0.949 . S
C535 H530 0.950 . S
C535 C537 1.327 . S
C535 C541 1.429 . S
C536 C528 1.574 . S
C536 H531 0.949 . S
C536 C542 1.368 . S
C537 C521 1.349 . S
C537 H529 0.950 . S
C537 C535 1.327 . S
C538 C526 1.349 . S
C538 H532 0.950 . S
C538 C539 1.327 . S
C539 H533 0.950 . S
C539 C538 1.327 . S
C539 C543 1.429 . S
C540 C523 1.574 . S
C540 H534 0.949 . S
C540 C544 1.368 . S
C541 C522 1.429 . S
C541 C535 1.429 . S
C541 C542 1.523 . S
C542 C523 1.368 . S
C542 C536 1.368 . S
C542 C541 1.523 . S
C543 C527 1.429 . S
C543 C539 1.429 . S
C543 C544 1.523 . S
C544 C528 1.368 . S
C544 C540 1.368 . S
C544 C543 1.523 . S
H545 C520 0.950 . S
H546 C522 0.950 . S
H547 C523 0.949 . S
H548 C525 0.950 . S
H549 C527 0.950 . S
C550 C551 1.349 . S
C550 C552 1.327 . S
C550 H575 0.950 . S
C551 C550 1.349 . S
C551 C567 1.349 . S
C552 C550 1.327 . S
C552 C571 1.429 . S
C552 H576 0.950 . S
C553 C570 1.574 . S
C553 C572 1.368 . S
C553 H577 0.949 . S
H554 C558 0.949 . S
C555 C556 1.349 . S
C555 C557 1.327 . S
C555 H578 0.950 . S
C556 C555 1.349 . S
C556 C568 1.349 . S
C557 C555 1.327 . S
C557 C573 1.429 . S
C557 H579 0.950 . S
C558 H554 0.949 . S
C558 C566 1.574 . S
C558 C574 1.368 . S
H559 C567 0.950 . S
H560 C565 0.950 . S
H561 C566 0.949 . S
H562 C568 0.950 . S
H563 C569 0.950 . S
H564 C570 0.949 . S
C565 H560 0.950 . S
C565 C567 1.327 . S
C565 C571 1.429 . S
C566 C558 1.574 . S
C566 H561 0.949 . S
C566 C572 1.368 . S
C567 C551 1.349 . S
C567 H559 0.950 . S
C567 C565 1.327 . S
C568 C556 1.349 . S
C568 H562 0.950 . S
C568 C569 1.327 . S
C569 H563 0.950 . S
C569 C568 1.327 . S
C569 C573 1.429 . S
C570 C553 1.574 . S
C570 H564 0.949 . S
C570 C574 1.368 . S
C571 C552 1.429 . S
C571 C565 1.429 . S
C571 C572 1.523 . S
C572 C553 1.368 . S
C572 C566 1.368 . S
C572 C571 1.523 . S
C573 C557 1.429 . S
C573 C569 1.429 . S
C573 C574 1.523 . S
C574 C558 1.368 . S
C574 C570 1.368 . S
C574 C573 1.523 . S
H575 C550 0.950 . S
H576 C552 0.950 . S
H577 C553 0.949 . S
H578 C555 0.950 . S
H579 C557 0.950 . S
C580 C581 1.349 . S
C580 C582 1.327 . S
C580 H605 0.950 . S
C581 C580 1.349 . S
C581 C597 1.349 . S
C582 C580 1.327 . S
C582 C601 1.429 . S
C582 H606 0.950 . S
C583 C600 1.574 . S
C583 C602 1.368 . S
C583 H607 0.949 . S
H584 C588 0.949 . S
C585 C586 1.349 . S
C585 C587 1.327 . S
C585 H608 0.950 . S
C586 C585 1.349 . S
C586 C598 1.349 . S
C587 C585 1.327 . S
C587 C603 1.429 . S
C587 H609 0.950 . S
C588 H584 0.949 . S
C588 C596 1.574 . S
C588 C604 1.368 . S
H589 C597 0.950 . S
H590 C595 0.950 . S
H591 C596 0.949 . S
H592 C598 0.950 . S
H593 C599 0.950 . S
H594 C600 0.949 . S
C595 H590 0.950 . S
C595 C597 1.327 . S
C595 C601 1.429 . S
C596 C588 1.574 . S
C596 H591 0.949 . S
C596 C602 1.368 . S
C597 C581 1.349 . S
C597 H589 0.950 . S
C597 C595 1.327 . S
C598 C586 1.349 . S
C598 H592 0.950 . S
C598 C599 1.327 . S
C599 H593 0.950 . S
C599 C598 1.327 . S
C599 C603 1.429 . S
C600 C583 1.574 . S
C600 H594 0.949 . S
C600 C604 1.368 . S
C601 C582 1.429 . S
C601 C595 1.429 . S
C601 C602 1.523 . S
C602 C583 1.368 . S
C602 C596 1.368 . S
C602 C601 1.523 . S
C603 C587 1.429 . S
C603 C599 1.429 . S
C603 C604 1.523 . S
C604 C588 1.368 . S
C604 C600 1.368 . S
C604 C603 1.523 . S
H605 C580 0.950 . S
H606 C582 0.950 . S
H607 C583 0.949 . S
H608 C585 0.950 . S
H609 C587 0.950 . S
C610 C611 1.349 . S
C610 C612 1.327 . S
C610 H635 0.950 . S
C611 C610 1.349 . S
C611 C627 1.349 . S
C612 C610 1.327 . S
C612 C631 1.429 . S
C612 H636 0.950 . S
C613 C630 1.574 . S
C613 C632 1.368 . S
C613 H637 0.949 . S
H614 C618 0.949 . S
C615 C616 1.349 . S
C615 C617 1.327 . S
C615 H638 0.950 . S
C616 C615 1.349 . S
C616 C628 1.349 . S
C617 C615 1.327 . S
C617 C633 1.429 . S
C617 H639 0.950 . S
C618 H614 0.949 . S
C618 C626 1.574 . S
C618 C634 1.368 . S
H619 C627 0.950 . S
H620 C625 0.950 . S
H621 C626 0.949 . S
H622 C628 0.950 . S
H623 C629 0.950 . S
H624 C630 0.949 . S
C625 H620 0.950 . S
C625 C627 1.327 . S
C625 C631 1.429 . S
C626 C618 1.574 . S
C626 H621 0.949 . S
C626 C632 1.368 . S
C627 C611 1.349 . S
C627 H619 0.950 . S
C627 C625 1.327 . S
C628 C616 1.349 . S
C628 H622 0.950 . S
C628 C629 1.327 . S
C629 H623 0.950 . S
C629 C628 1.327 . S
C629 C633 1.429 . S
C630 C613 1.574 . S
C630 H624 0.949 . S
C630 C634 1.368 . S
C631 C612 1.429 . S
C631 C625 1.429 . S
C631 C632 1.523 . S
C632 C613 1.368 . S
C632 C626 1.368 . S
C632 C631 1.523 . S
C633 C617 1.429 . S
C633 C629 1.429 . S
C633 C634 1.523 . S
C634 C618 1.368 . S
C634 C630 1.368 . S
C634 C633 1.523 . S
H635 C610 0.950 . S
H636 C612 0.950 . S
H637 C613 0.949 . S
H638 C615 0.950 . S
H639 C617 0.950 . S
C640 C641 1.349 . S
C640 C642 1.327 . S
C640 H665 0.950 . S
C641 C640 1.349 . S
C641 C657 1.349 . S
C642 C640 1.327 . S
C642 C661 1.429 . S
C642 H666 0.950 . S
C643 C660 1.574 . S
C643 C662 1.368 . S
C643 H667 0.949 . S
H644 C648 0.949 . S
C645 C646 1.349 . S
C645 C647 1.327 . S
C645 H668 0.950 . S
C646 C645 1.349 . S
C646 C658 1.349 . S
C647 C645 1.327 . S
C647 C663 1.429 . S
C647 H669 0.950 . S
C648 H644 0.949 . S
C648 C656 1.574 . S
C648 C664 1.368 . S
H649 C657 0.950 . S
H650 C655 0.950 . S
H651 C656 0.949 . S
H652 C658 0.950 . S
H653 C659 0.950 . S
H654 C660 0.949 . S
C655 H650 0.950 . S
C655 C657 1.327 . S
C655 C661 1.429 . S
C656 C648 1.574 . S
C656 H651 0.949 . S
C656 C662 1.368 . S
C657 C641 1.349 . S
C657 H649 0.950 . S
C657 C655 1.327 . S
C658 C646 1.349 . S
C658 H652 0.950 . S
C658 C659 1.327 . S
C659 H653 0.950 . S
C659 C658 1.327 . S
C659 C663 1.429 . S
C660 C643 1.574 . S
C660 H654 0.949 . S
C660 C664 1.368 . S
C661 C642 1.429 . S
C661 C655 1.429 . S
C661 C662 1.523 . S
C662 C643 1.368 . S
C662 C656 1.368 . S
C662 C661 1.523 . S
C663 C647 1.429 . S
C663 C659 1.429 . S
C663 C664 1.523 . S
C664 C648 1.368 . S
C664 C660 1.368 . S
C664 C663 1.523 . S
H665 C640 0.950 . S
H666 C642 0.950 . S
H667 C643 0.949 . S
H668 C645 0.950 . S
H669 C647 0.950 . S
C670 C671 1.349 . S
C670 C672 1.327 . S
C670 H695 0.950 . S
C671 C670 1.349 . S
C671 C687 1.349 . S
C672 C670 1.327 . S
C672 C691 1.429 . S
C672 H696 0.950 . S
C673 C690 1.574 . S
C673 C692 1.368 . S
C673 H697 0.949 . S
H674 C678 0.949 . S
C675 C676 1.349 . S
C675 C677 1.327 . S
C675 H698 0.950 . S
C676 C675 1.349 . S
C676 C688 1.349 . S
C677 C675 1.327 . S
C677 C693 1.429 . S
C677 H699 0.950 . S
C678 H674 0.949 . S
C678 C686 1.574 . S
C678 C694 1.368 . S
H679 C687 0.950 . S
H680 C685 0.950 . S
H681 C686 0.949 . S
H682 C688 0.950 . S
H683 C689 0.950 . S
H684 C690 0.949 . S
C685 H680 0.950 . S
C685 C687 1.327 . S
C685 C691 1.429 . S
C686 C678 1.574 . S
C686 H681 0.949 . S
C686 C692 1.368 . S
C687 C671 1.349 . S
C687 H679 0.950 . S
C687 C685 1.327 . S
C688 C676 1.349 . S
C688 H682 0.950 . S
C688 C689 1.327 . S
C689 H683 0.950 . S
C689 C688 1.327 . S
C689 C693 1.429 . S
C690 C673 1.574 . S
C690 H684 0.949 . S
C690 C694 1.368 . S
C691 C672 1.429 . S
C691 C685 1.429 . S
C691 C692 1.523 . S
C692 C673 1.368 . S
C692 C686 1.368 . S
C692 C691 1.523 . S
C693 C677 1.429 . S
C693 C689 1.429 . S
C693 C694 1.523 . S
C694 C678 1.368 . S
C694 C690 1.368 . S
C694 C693 1.523 . S
H695 C670 0.950 . S
H696 C672 0.950 . S
H697 C673 0.949 . S
H698 C675 0.950 . S
H699 C677 0.950 . S
C700 C701 1.349 . S
C700 C702 1.327 . S
C700 H725 0.950 . S
C701 C700 1.349 . S
C701 C717 1.349 . S
C702 C700 1.327 . S
C702 C721 1.429 . S
C702 H726 0.950 . S
C703 C720 1.574 . S
C703 C722 1.368 . S
C703 H727 0.949 . S
H704 C708 0.949 . S
C705 C706 1.349 . S
C705 C707 1.327 . S
C705 H728 0.950 . S
C706 C705 1.349 . S
C706 C718 1.349 . S
C707 C705 1.327 . S
C707 C723 1.429 . S
C707 H729 0.950 . S
C708 H704 0.949 . S
C708 C716 1.574 . S
C708 C724 1.368 . S
H709 C717 0.950 . S
H710 C715 0.950 . S
H711 C716 0.949 . S
H712 C718 0.950 . S
H713 C719 0.950 . S
H714 C720 0.949 . S
C715 H710 0.950 . S
C715 C717 1.327 . S
C715 C721 1.429 . S
C716 C708 1.574 . S
C716 H711 0.949 . S
C716 C722 1.368 . S
C717 C701 1.349 . S
C717 H709 0.950 . S
C717 C715 1.327 . S
C718 C706 1.349 . S
C718 H712 0.950 . S
C718 C719 1.327 . S
C719 H713 0.950 . S
C719 C718 1.327 . S
C719 C723 1.429 . S
C720 C703 1.574 . S
C720 H714 0.949 . S
C720 C724 1.368 . S
C721 C702 1.429 . S
C721 C715 1.429 . S
C721 C722 1.523 . S
C722 C703 1.368 . S
C722 C716 1.368 . S
C722 C721 1.523 . S
C723 C707 1.429 . S
C723 C719 1.429 . S
C723 C724 1.523 . S
C724 C708 1.368 . S
C724 C720 1.368 . S
C724 C723 1.523 . S
H725 C700 0.950 . S
H726 C702 0.950 . S
H727 C703 0.949 . S
H728 C705 0.950 . S
H729 C707 0.950 . S
C730 C731 1.349 . S
C730 C732 1.327 . S
C730 H755 0.950 . S
C731 C730 1.349 . S
C731 C747 1.349 . S
C732 C730 1.327 . S
C732 C751 1.429 . S
C732 H756 0.950 . S
C733 C750 1.574 . S
C733 C752 1.368 . S
C733 H757 0.949 . S
H734 C738 0.949 . S
C735 C736 1.349 . S
C735 C737 1.327 . S
C735 H758 0.950 . S
C736 C735 1.349 . S
C736 C748 1.349 . S
C737 C735 1.327 . S
C737 C753 1.429 . S
C737 H759 0.950 . S
C738 H734 0.949 . S
C738 C746 1.574 . S
C738 C754 1.368 . S
H739 C747 0.950 . S
H740 C745 0.950 . S
H741 C746 0.949 . S
H742 C748 0.950 . S
H743 C749 0.950 . S
H744 C750 0.949 . S
C745 H740 0.950 . S
C745 C747 1.327 . S
C745 C751 1.429 . S
C746 C738 1.574 . S
C746 H741 0.949 . S
C746 C752 1.368 . S
C747 C731 1.349 . S
C747 H739 0.950 . S
C747 C745 1.327 . S
C748 C736 1.349 . S
C748 H742 0.950 . S
C748 C749 1.327 . S
C749 H743 0.950 . S
C749 C748 1.327 . S
C749 C753 1.429 . S
C750 C733 1.574 . S
C750 H744 0.949 . S
C750 C754 1.368 . S
C751 C732 1.429 . S
C751 C745 1.429 . S
C751 C752 1.523 . S
C752 C733 1.368 . S
C752 C746 1.368 . S
C752 C751 1.523 . S
C753 C737 1.429 . S
C753 C749 1.429 . S
C753 C754 1.523 . S
C754 C738 1.368 . S
C754 C750 1.368 . S
C754 C753 1.523 . S
H755 C730 0.950 . S
H756 C732 0.950 . S
H757 C733 0.949 . S
H758 C735 0.950 . S
H759 C737 0.950 . S
C760 C761 1.349 1_545 S
C760 C762 1.327 . S
C760 H785 0.950 . S
C761 C760 1.349 1_565 S
C761 C777 1.349 . S
C762 C760 1.327 . S
C762 C781 1.429 . S
C762 H786 0.950 . S
C763 C780 1.574 . S
C763 C782 1.368 . S
C763 H787 0.949 . S
H764 C768 0.949 . S
C765 C766 1.349 . S
C765 C767 1.327 . S
C765 H788 0.950 . S
C766 C765 1.349 . S
C766 C778 1.349 . S
C767 C765 1.327 . S
C767 C783 1.429 . S
C767 H789 0.950 . S
C768 H764 0.949 . S
C768 C776 1.574 . S
C768 C784 1.368 . S
H769 C777 0.950 . S
H770 C775 0.950 . S
H771 C776 0.949 . S
H772 C778 0.950 . S
H773 C779 0.950 . S
H774 C780 0.949 . S
C775 H770 0.950 . S
C775 C777 1.327 1_545 S
C775 C781 1.429 . S
C776 C768 1.574 . S
C776 H771 0.949 . S
C776 C782 1.368 . S
C777 C761 1.349 . S
C777 H769 0.950 . S
C777 C775 1.327 1_565 S
C778 C766 1.349 . S
C778 H772 0.950 . S
C778 C779 1.327 . S
C779 H773 0.950 . S
C779 C778 1.327 . S
C779 C783 1.429 . S
C780 C763 1.574 . S
C780 H774 0.949 . S
C780 C784 1.368 . S
C781 C762 1.429 . S
C781 C775 1.429 . S
C781 C782 1.523 . S
C782 C763 1.368 . S
C782 C776 1.368 . S
C782 C781 1.523 . S
C783 C767 1.429 . S
C783 C779 1.429 . S
C783 C784 1.523 . S
C784 C768 1.368 . S
C784 C780 1.368 . S
C784 C783 1.523 . S
H785 C760 0.950 . S
H786 C762 0.950 . S
H787 C763 0.949 . S
H788 C765 0.950 . S
H789 C767 0.950 . S
C790 C791 1.349 1_565 S
C790 C792 1.327 . S
C790 H815 0.950 . S
C791 C790 1.349 1_545 S
C791 C807 1.349 . S
C792 C790 1.327 . S
C792 C811 1.429 . S
C792 H816 0.950 . S
C793 C810 1.574 . S
C793 C812 1.368 . S
C793 H817 0.949 . S
H794 C798 0.949 . S
C795 C796 1.349 . S
C795 C797 1.327 . S
C795 H818 0.950 . S
C796 C795 1.349 . S
C796 C808 1.349 . S
C797 C795 1.327 . S
C797 C813 1.429 . S
C797 H819 0.950 . S
C798 H794 0.949 . S
C798 C806 1.574 . S
C798 C814 1.368 . S
H799 C807 0.950 . S
H800 C805 0.950 1_545 S
H801 C806 0.949 . S
H802 C808 0.950 . S
H803 C809 0.950 . S
H804 C810 0.949 . S
C805 H800 0.950 1_565 S
C805 C807 1.327 1_565 S
C805 C811 1.429 . S
C806 C798 1.574 . S
C806 H801 0.949 . S
C806 C812 1.368 . S
C807 C791 1.349 . S
C807 H799 0.950 . S
C807 C805 1.327 1_545 S
C808 C796 1.349 . S
C808 H802 0.950 . S
C808 C809 1.327 . S
C809 H803 0.950 . S
C809 C808 1.327 . S
C809 C813 1.429 . S
C810 C793 1.574 . S
C810 H804 0.949 . S
C810 C814 1.368 . S
C811 C792 1.429 . S
C811 C805 1.429 . S
C811 C812 1.523 . S
C812 C793 1.368 . S
C812 C806 1.368 . S
C812 C811 1.523 . S
C813 C797 1.429 . S
C813 C809 1.429 . S
C813 C814 1.523 . S
C814 C798 1.368 . S
C814 C810 1.368 . S
C814 C813 1.523 . S
H815 C790 0.950 . S
H816 C792 0.950 . S
H817 C793 0.949 . S
H818 C795 0.950 . S
H819 C797 0.950 . S
C820 C821 1.349 1_545 S
C820 C822 1.327 . S
C820 H845 0.950 . S
C821 C820 1.349 1_565 S
C821 C837 1.349 . S
C822 C820 1.327 . S
C822 C841 1.429 . S
C822 H846 0.950 . S
C823 C840 1.574 . S
C823 C842 1.368 . S
C823 H847 0.949 . S
H824 C828 0.949 . S
C825 C826 1.349 . S
C825 C827 1.327 . S
C825 H848 0.950 . S
C826 C825 1.349 . S
C826 C838 1.349 . S
C827 C825 1.327 . S
C827 C843 1.429 . S
C827 H849 0.950 . S
C828 H824 0.949 . S
C828 C836 1.574 . S
C828 C844 1.368 . S
H829 C837 0.950 . S
H830 C835 0.950 . S
H831 C836 0.949 . S
H832 C838 0.950 . S
H833 C839 0.950 . S
H834 C840 0.949 . S
C835 H830 0.950 . S
C835 C837 1.327 1_545 S
C835 C841 1.429 . S
C836 C828 1.574 . S
C836 H831 0.949 . S
C836 C842 1.368 . S
C837 C821 1.349 . S
C837 H829 0.950 . S
C837 C835 1.327 1_565 S
C838 C826 1.349 . S
C838 H832 0.950 . S
C838 C839 1.327 . S
C839 H833 0.950 . S
C839 C838 1.327 . S
C839 C843 1.429 . S
C840 C823 1.574 . S
C840 H834 0.949 . S
C840 C844 1.368 . S
C841 C822 1.429 . S
C841 C835 1.429 . S
C841 C842 1.523 . S
C842 C823 1.368 . S
C842 C836 1.368 . S
C842 C841 1.523 . S
C843 C827 1.429 . S
C843 C839 1.429 . S
C843 C844 1.523 . S
C844 C828 1.368 . S
C844 C840 1.368 . S
C844 C843 1.523 . S
H845 C820 0.950 . S
H846 C822 0.950 . S
H847 C823 0.949 . S
H848 C825 0.950 . S
H849 C827 0.950 . S
C850 C851 1.349 1_565 S
C850 C852 1.327 . S
C850 H875 0.950 . S
C851 C850 1.349 1_545 S
C851 C867 1.349 . S
C852 C850 1.327 . S
C852 C871 1.429 . S
C852 H876 0.950 . S
C853 C870 1.574 . S
C853 C872 1.368 . S
C853 H877 0.949 . S
H854 C858 0.949 . S
C855 C856 1.349 . S
C855 C857 1.327 . S
C855 H878 0.950 . S
C856 C855 1.349 . S
C856 C868 1.349 . S
C857 C855 1.327 . S
C857 C873 1.429 . S
C857 H879 0.950 . S
C858 H854 0.949 . S
C858 C866 1.574 . S
C858 C874 1.368 . S
H859 C867 0.950 . S
H860 C865 0.950 . S
H861 C866 0.949 . S
H862 C868 0.950 . S
H863 C869 0.950 . S
H864 C870 0.949 . S
C865 H860 0.950 . S
C865 C867 1.327 1_565 S
C865 C871 1.429 . S
C866 C858 1.574 . S
C866 H861 0.949 . S
C866 C872 1.368 . S
C867 C851 1.349 . S
C867 H859 0.950 . S
C867 C865 1.327 1_545 S
C868 C856 1.349 . S
C868 H862 0.950 . S
C868 C869 1.327 . S
C869 H863 0.950 . S
C869 C868 1.327 . S
C869 C873 1.429 . S
C870 C853 1.574 . S
C870 H864 0.949 . S
C870 C874 1.368 . S
C871 C852 1.429 . S
C871 C865 1.429 . S
C871 C872 1.523 . S
C872 C853 1.368 . S
C872 C866 1.368 . S
C872 C871 1.523 . S
C873 C857 1.429 . S
C873 C869 1.429 . S
C873 C874 1.523 . S
C874 C858 1.368 . S
C874 C870 1.368 . S
C874 C873 1.523 . S
H875 C850 0.950 . S
H876 C852 0.950 . S
H877 C853 0.949 . S
H878 C855 0.950 . S
H879 C857 0.950 . S
C880 C881 1.349 . S
C880 C882 1.327 . S
C880 H905 0.950 . S
C881 C880 1.349 . S
C881 C897 1.349 . S
C882 C880 1.327 . S
C882 C901 1.429 . S
C882 H906 0.950 . S
C883 C900 1.574 . S
C883 C902 1.368 . S
C883 H907 0.949 . S
H884 C888 0.949 . S
C885 C886 1.349 . S
C885 C887 1.327 . S
C885 H908 0.950 . S
C886 C885 1.349 . S
C886 C898 1.349 . S
C887 C885 1.327 . S
C887 C903 1.429 . S
C887 H909 0.950 . S
C888 H884 0.949 . S
C888 C896 1.574 . S
C888 C904 1.368 . S
H889 C897 0.950 . S
H890 C895 0.950 . S
H891 C896 0.949 . S
H892 C898 0.950 . S
H893 C899 0.950 . S
H894 C900 0.949 . S
C895 H890 0.950 . S
C895 C897 1.327 . S
C895 C901 1.429 . S
C896 C888 1.574 . S
C896 H891 0.949 . S
C896 C902 1.368 . S
C897 C881 1.349 . S
C897 H889 0.950 . S
C897 C895 1.327 . S
C898 C886 1.349 . S
C898 H892 0.950 . S
C898 C899 1.327 . S
C899 H893 0.950 . S
C899 C898 1.327 . S
C899 C903 1.429 . S
C900 C883 1.574 . S
C900 H894 0.949 . S
C900 C904 1.368 . S
C901 C882 1.429 . S
C901 C895 1.429 . S
C901 C902 1.523 . S
C902 C883 1.368 . S
C902 C896 1.368 . S
C902 C901 1.523 . S
C903 C887 1.429 . S
C903 C899 1.429 . S
C903 C904 1.523 . S
C904 C888 1.368 . S
C904 C900 1.368 . S
C904 C903 1.523 . S
H905 C880 0.950 . S
H906 C882 0.950 . S
H907 C883 0.949 . S
H908 C885 0.950 . S
H909 C887 0.950 . S
C910 C911 1.349 . S
C910 C912 1.327 . S
C910 H935 0.950 . S
C911 C910 1.349 . S
C911 C927 1.349 . S
C912 C910 1.327 . S
C912 C931 1.429 . S
C912 H936 0.950 . S
C913 C930 1.574 . S
C913 C932 1.368 . S
C913 H937 0.949 . S
H914 C918 0.949 . S
C915 C916 1.349 . S
C915 C917 1.327 . S
C915 H938 0.950 . S
C916 C915 1.349 . S
C916 C928 1.349 . S
C917 C915 1.327 . S
C917 C933 1.429 . S
C917 H939 0.950 . S
C918 H914 0.949 . S
C918 C926 1.574 . S
C918 C934 1.368 . S
H919 C927 0.950 . S
H920 C925 0.950 . S
H921 C926 0.949 . S
H922 C928 0.950 . S
H923 C929 0.950 . S
H924 C930 0.949 . S
C925 H920 0.950 . S
C925 C927 1.327 . S
C925 C931 1.429 . S
C926 C918 1.574 . S
C926 H921 0.949 . S
C926 C932 1.368 . S
C927 C911 1.349 . S
C927 H919 0.950 . S
C927 C925 1.327 . S
C928 C916 1.349 . S
C928 H922 0.950 . S
C928 C929 1.327 . S
C929 H923 0.950 . S
C929 C928 1.327 . S
C929 C933 1.429 . S
C930 C913 1.574 . S
C930 H924 0.949 . S
C930 C934 1.368 . S
C931 C912 1.429 . S
C931 C925 1.429 . S
C931 C932 1.523 . S
C932 C913 1.368 . S
C932 C926 1.368 . S
C932 C931 1.523 . S
C933 C917 1.429 . S
C933 C929 1.429 . S
C933 C934 1.523 . S
C934 C918 1.368 . S
C934 C930 1.368 . S
C934 C933 1.523 . S
H935 C910 0.950 . S
H936 C912 0.950 . S
H937 C913 0.949 . S
H938 C915 0.950 . S
H939 C917 0.950 . S
C940 C941 1.349 . S
C940 C942 1.327 . S
C940 H965 0.950 . S
C941 C940 1.349 . S
C941 C957 1.349 . S
C942 C940 1.327 . S
C942 C961 1.429 . S
C942 H966 0.950 . S
C943 C960 1.574 . S
C943 C962 1.368 . S
C943 H967 0.949 . S
H944 C948 0.949 . S
C945 C946 1.349 . S
C945 C947 1.327 . S
C945 H968 0.950 . S
C946 C945 1.349 . S
C946 C958 1.349 . S
C947 C945 1.327 . S
C947 C963 1.429 . S
C947 H969 0.950 . S
C948 H944 0.949 . S
C948 C956 1.574 . S
C948 C964 1.368 . S
H949 C957 0.950 . S
H950 C955 0.950 . S
H951 C956 0.949 . S
H952 C958 0.950 . S
H953 C959 0.950 . S
H954 C960 0.949 . S
C955 H950 0.950 . S
C955 C957 1.327 . S
C955 C961 1.429 . S
C956 C948 1.574 . S
C956 H951 0.949 . S
C956 C962 1.368 . S
C957 C941 1.349 . S
C957 H949 0.950 . S
C957 C955 1.327 . S
C958 C946 1.349 . S
C958 H952 0.950 . S
C958 C959 1.327 . S
C959 H953 0.950 . S
C959 C958 1.327 . S
C959 C963 1.429 . S
C960 C943 1.574 . S
C960 H954 0.949 . S
C960 C964 1.368 . S
C961 C942 1.429 . S
C961 C955 1.429 . S
C961 C962 1.523 . S
C962 C943 1.368 . S
C962 C956 1.368 . S
C962 C961 1.523 . S
C963 C947 1.429 . S
C963 C959 1.429 . S
C963 C964 1.523 . S
C964 C948 1.368 . S
C964 C960 1.368 . S
C964 C963 1.523 . S
H965 C940 0.950 . S
H966 C942 0.950 . S
H967 C943 0.949 . S
H968 C945 0.950 . S
H969 C947 0.950 . S
C970 C971 1.349 . S
C970 C972 1.327 . S
C970 H995 0.950 . S
C971 C970 1.349 . S
C971 C987 1.349 . S
C972 C970 1.327 . S
C972 C991 1.429 . S
C972 H996 0.950 . S
C973 C990 1.574 . S
C973 C992 1.368 . S
C973 H997 0.949 . S
H974 C978 0.949 . S
C975 C976 1.349 . S
C975 C977 1.327 . S
C975 H998 0.950 . S
C976 C975 1.349 . S
C976 C988 1.349 . S
C977 C975 1.327 . S
C977 C993 1.429 . S
C977 H999 0.950 . S
C978 H974 0.949 . S
C978 C986 1.574 . S
C978 C994 1.368 . S
H979 C987 0.950 . S
H980 C985 0.950 . S
H981 C986 0.949 . S
H982 C988 0.950 . S
H983 C989 0.950 . S
H984 C990 0.949 . S
C985 H980 0.950 . S
C985 C987 1.327 . S
C985 C991 1.429 . S
C986 C978 1.574 . S
C986 H981 0.949 . S
C986 C992 1.368 . S
C987 C971 1.349 . S
C987 H979 0.950 . S
C987 C985 1.327 . S
C988 C976 1.349 . S
C988 H982 0.950 . S
C988 C989 1.327 . S
C989 H983 0.950 . S
C989 C988 1.327 . S
C989 C993 1.429 . S
C990 C973 1.574 . S
C990 H984 0.949 . S
C990 C994 1.368 . S
C991 C972 1.429 . S
C991 C985 1.429 . S
C991 C992 1.523 . S
C992 C973 1.368 . S
C992 C986 1.368 . S
C992 C991 1.523 . S
C993 C977 1.429 . S
C993 C989 1.429 . S
C993 C994 1.523 . S
C994 C978 1.368 . S
C994 C990 1.368 . S
C994 C993 1.523 . S
H995 C970 0.950 . S
H996 C972 0.950 . S
H997 C973 0.949 . S
H998 C975 0.950 . S
H999 C977 0.950 . S
C1000 C1001 1.349 . S
C1000 C1002 1.327 . S
C1000 H1025 0.950 . S
C1001 C1000 1.349 . S
C1001 C1017 1.349 . S
C1002 C1000 1.327 . S
C1002 C1021 1.429 . S
C1002 H1026 0.950 . S
C1003 C1020 1.574 . S
C1003 C1022 1.368 . S
C1003 H1027 0.949 . S
H1004 C1008 0.949 . S
C1005 C1006 1.349 . S
C1005 C1007 1.327 . S
C1005 H1028 0.950 . S
C1006 C1005 1.349 . S
C1006 C1018 1.349 . S
C1007 C1005 1.327 . S
C1007 C1023 1.429 . S
C1007 H1029 0.950 . S
C1008 H1004 0.949 . S
C1008 C1016 1.574 . S
C1008 C1024 1.368 . S
H1009 C1017 0.950 . S
H1010 C1015 0.950 . S
H1011 C1016 0.949 . S
H1012 C1018 0.950 . S
H1013 C1019 0.950 . S
H1014 C1020 0.949 . S
C1015 H1010 0.950 . S
C1015 C1017 1.327 . S
C1015 C1021 1.429 . S
C1016 C1008 1.574 . S
C1016 H1011 0.949 . S
C1016 C1022 1.368 . S
C1017 C1001 1.349 . S
C1017 H1009 0.950 . S
C1017 C1015 1.327 . S
C1018 C1006 1.349 . S
C1018 H1012 0.950 . S
C1018 C1019 1.327 . S
C1019 H1013 0.950 . S
C1019 C1018 1.327 . S
C1019 C1023 1.429 . S
C1020 C1003 1.574 . S
C1020 H1014 0.949 . S
C1020 C1024 1.368 . S
C1021 C1002 1.429 . S
C1021 C1015 1.429 . S
C1021 C1022 1.523 . S
C1022 C1003 1.368 . S
C1022 C1016 1.368 . S
C1022 C1021 1.523 . S
C1023 C1007 1.429 . S
C1023 C1019 1.429 . S
C1023 C1024 1.523 . S
C1024 C1008 1.368 . S
C1024 C1020 1.368 . S
C1024 C1023 1.523 . S
H1025 C1000 0.950 . S
H1026 C1002 0.950 . S
H1027 C1003 0.949 . S
H1028 C1005 0.950 . S
H1029 C1007 0.950 . S
C1030 C1031 1.349 . S
C1030 C1032 1.327 . S
C1030 H1055 0.950 . S
C1031 C1030 1.349 . S
C1031 C1047 1.349 . S
C1032 C1030 1.327 . S
C1032 C1051 1.429 . S
C1032 H1056 0.950 . S
C1033 C1050 1.574 . S
C1033 C1052 1.368 . S
C1033 H1057 0.949 . S
H1034 C1038 0.949 . S
C1035 C1036 1.349 . S
C1035 C1037 1.327 . S
C1035 H1058 0.950 . S
C1036 C1035 1.349 . S
C1036 C1048 1.349 . S
C1037 C1035 1.327 . S
C1037 C1053 1.429 . S
C1037 H1059 0.950 . S
C1038 H1034 0.949 . S
C1038 C1046 1.574 . S
C1038 C1054 1.368 . S
H1039 C1047 0.950 . S
H1040 C1045 0.950 . S
H1041 C1046 0.949 . S
H1042 C1048 0.950 . S
H1043 C1049 0.950 . S
H1044 C1050 0.949 . S
C1045 H1040 0.950 . S
C1045 C1047 1.327 . S
C1045 C1051 1.429 . S
C1046 C1038 1.574 . S
C1046 H1041 0.949 . S
C1046 C1052 1.368 . S
C1047 C1031 1.349 . S
C1047 H1039 0.950 . S
C1047 C1045 1.327 . S
C1048 C1036 1.349 . S
C1048 H1042 0.950 . S
C1048 C1049 1.327 . S
C1049 H1043 0.950 . S
C1049 C1048 1.327 . S
C1049 C1053 1.429 . S
C1050 C1033 1.574 . S
C1050 H1044 0.949 . S
C1050 C1054 1.368 . S
C1051 C1032 1.429 . S
C1051 C1045 1.429 . S
C1051 C1052 1.523 . S
C1052 C1033 1.368 . S
C1052 C1046 1.368 . S
C1052 C1051 1.523 . S
C1053 C1037 1.429 . S
C1053 C1049 1.429 . S
C1053 C1054 1.523 . S
C1054 C1038 1.368 . S
C1054 C1050 1.368 . S
C1054 C1053 1.523 . S
H1055 C1030 0.950 . S
H1056 C1032 0.950 . S
H1057 C1033 0.949 . S
H1058 C1035 0.950 . S
H1059 C1037 0.950 . S
C1060 C1061 1.349 . S
C1060 C1062 1.327 . S
C1060 H1085 0.950 . S
C1061 C1060 1.349 . S
C1061 C1077 1.349 . S
C1062 C1060 1.327 . S
C1062 C1081 1.429 . S
C1062 H1086 0.950 . S
C1063 C1080 1.574 . S
C1063 C1082 1.368 . S
C1063 H1087 0.949 . S
H1064 C1068 0.949 . S
C1065 C1066 1.349 . S
C1065 C1067 1.327 . S
C1065 H1088 0.950 . S
C1066 C1065 1.349 . S
C1066 C1078 1.349 . S
C1067 C1065 1.327 . S
C1067 C1083 1.429 . S
C1067 H1089 0.950 . S
C1068 H1064 0.949 . S
C1068 C1076 1.574 . S
C1068 C1084 1.368 . S
H1069 C1077 0.950 . S
H1070 C1075 0.950 . S
H1071 C1076 0.949 . S
H1072 C1078 0.950 . S
H1073 C1079 0.950 . S
H1074 C1080 0.949 . S
C1075 H1070 0.950 . S
C1075 C1077 1.327 . S
C1075 C1081 1.429 . S
C1076 C1068 1.574 . S
C1076 H1071 0.949 . S
C1076 C1082 1.368 . S
C1077 C1061 1.349 . S
C1077 H1069 0.950 . S
C1077 C1075 1.327 . S
C1078 C1066 1.349 . S
C1078 H1072 0.950 . S
C1078 C1079 1.327 . S
C1079 H1073 0.950 . S
C1079 C1078 1.327 . S
C1079 C1083 1.429 . S
C1080 C1063 1.574 . S
C1080 H1074 0.949 . S
C1080 C1084 1.368 . S
C1081 C1062 1.429 . S
C1081 C1075 1.429 . S
C1081 C1082 1.523 . S
C1082 C1063 1.368 . S
C1082 C1076 1.368 . S
C1082 C1081 1.523 . S
C1083 C1067 1.429 . S
C1083 C1079 1.429 . S
C1083 C1084 1.523 . S
C1084 C1068 1.368 . S
C1084 C1080 1.368 . S
C1084 C1083 1.523 . S
H1085 C1060 0.950 . S
H1086 C1062 0.950 . S
H1087 C1063 0.949 . S
H1088 C1065 0.950 . S
H1089 C1067 0.950 . S
C1090 C1091 1.349 . S
C1090 C1092 1.327 . S
C1090 H1115 0.950 . S
C1091 C1090 1.349 . S
C1091 C1107 1.349 . S
C1092 C1090 1.327 . S
C1092 C1111 1.429 . S
C1092 H1116 0.950 . S
C1093 C1110 1.574 . S
C1093 C1112 1.368 . S
C1093 H1117 0.949 . S
H1094 C1098 0.949 . S
C1095 C1096 1.349 . S
C1095 C1097 1.327 . S
C1095 H1118 0.950 . S
C1096 C1095 1.349 . S
C1096 C1108 1.349 . S
C1097 C1095 1.327 . S
C1097 C1113 1.429 . S
C1097 H1119 0.950 . S
C1098 H1094 0.949 . S
C1098 C1106 1.574 . S
C1098 C1114 1.368 . S
H1099 C1107 0.950 . S
H1100 C1105 0.950 . S
H1101 C1106 0.949 . S
H1102 C1108 0.950 . S
H1103 C1109 0.950 . S
H1104 C1110 0.949 . S
C1105 H1100 0.950 . S
C1105 C1107 1.327 . S
C1105 C1111 1.429 . S
C1106 C1098 1.574 . S
C1106 H1101 0.949 . S
C1106 C1112 1.368 . S
C1107 C1091 1.349 . S
C1107 H1099 0.950 . S
C1107 C1105 1.327 . S
C1108 C1096 1.349 . S
C1108 H1102 0.950 . S
C1108 C1109 1.327 . S
C1109 H1103 0.950 . S
C1109 C1108 1.327 . S
C1109 C1113 1.429 . S
C1110 C1093 1.574 . S
C1110 H1104 0.949 . S
C1110 C1114 1.368 . S
C1111 C1092 1.429 . S
C1111 C1105 1.429 . S
C1111 C1112 1.523 . S
C1112 C1093 1.368 . S
C1112 C1106 1.368 . S
C1112 C1111 1.523 . S
C1113 C1097 1.429 . S
C1113 C1109 1.429 . S
C1113 C1114 1.523 . S
C1114 C1098 1.368 . S
C1114 C1110 1.368 . S
C1114 C1113 1.523 . S
H1115 C1090 0.950 . S
H1116 C1092 0.950 . S
H1117 C1093 0.949 . S
H1118 C1095 0.950 . S
H1119 C1097 0.950 . S
C401 C21 1.537 . S
C406 C338 1.509 . S
C436 C316 1.509 . S
C431 C60 1.537 . S
C466 C342 1.514 . S
C461 C99 1.535 . S
C496 C320 1.505 . S
C491 C138 1.532 . S
C526 C382 1.509 . S
C521 C177 1.537 . S
C556 C360 1.509 . S
C551 C216 1.537 . S
C581 C255 1.535 . S
C586 C386 1.514 . S
C616 C364 1.505 . S
C611 C294 1.532 . S
C641 C1 1.535 . S
C646 C387 1.534 . S
C676 C365 1.533 . S
C671 C40 1.534 . S
C701 C79 1.536 . S
C706 C384 1.538 . S
C731 C133 1.524 . S
C736 C362 1.526 . S
C766 C343 1.534 . S
C761 C157 1.535 . S
C791 C196 1.534 . S
C796 C321 1.533 . S
C826 C340 1.538 . S
C821 C235 1.536 . S
C856 C318 1.526 . S
C851 C289 1.524 . S
C886 C361 1.491 . S
C881 C16 1.490 . S
C916 C383 1.490 . S
C911 C55 1.489 . S
C941 C94 1.493 . S
C946 C363 1.491 . S
C976 C385 1.491 . S
C971 C118 1.495 . S
C1006 C317 1.491 . S
C1001 C172 1.490 . S
C1031 C211 1.490 . S
C1036 C339 1.490 . S
C1061 C250 1.492 . S
C1066 C319 1.491 . S
C1091 C274 1.494 . S
C1096 C341 1.491 . S
