# Generated by pormake.
# Topology ftw, (4,12)-cn, num edge types: 1
# Building blocks:
#     Node 0, Type 0, BuildingBlock: AZAVOO_clean_linker_0, # of connection points: 4
#     Node 1, Type 0, BuildingBlock: AZAVOO_clean_linker_0, # of connection points: 4
#     Node 2, Type 0, BuildingBlock: AZAVOO_clean_linker_0, # of connection points: 4
#     Node 3, Type 1, BuildingBlock: EZIPEK_clean_sbu_0, # of connection points: 12
#     Edge 4, Type (0, 1), BuildingBlock: CIFDUS_clean_linker_0, # of connection points: 2
#     Edge 5, Type (0, 1), BuildingBlock: CIFDUS_clean_linker_0, # of connection points: 2
#     Edge 6, Type (0, 1), BuildingBlock: CIFDUS_clean_linker_0, # of connection points: 2
#     Edge 7, Type (0, 1), BuildingBlock: CIFDUS_clean_linker_0, # of connection points: 2
#     Edge 8, Type (0, 1), BuildingBlock: CIFDUS_clean_linker_0, # of connection points: 2
#     Edge 9, Type (0, 1), BuildingBlock: CIFDUS_clean_linker_0, # of connection points: 2
#     Edge 10, Type (0, 1), BuildingBlock: CIFDUS_clean_linker_0, # of connection points: 2
#     Edge 11, Type (0, 1), BuildingBlock: CIFDUS_clean_linker_0, # of connection points: 2
#     Edge 12, Type (0, 1), BuildingBlock: CIFDUS_clean_linker_0, # of connection points: 2
#     Edge 13, Type (0, 1), BuildingBlock: CIFDUS_clean_linker_0, # of connection points: 2
#     Edge 14, Type (0, 1), BuildingBlock: CIFDUS_clean_linker_0, # of connection points: 2
#     Edge 15, Type (0, 1), BuildingBlock: CIFDUS_clean_linker_0, # of connection points: 2
# Relax obj value: 0.055
# Max RMSD: 0.221
# Mean RMSD: 0.171
data_MOF--net-ftw--node1-EZIPEK_clean_sbu_0--node2-AZAVOO_clean_linker_0--edge1-CIFDUS_clean_linker_0
_symmetry_space_group_name_H-M    P1
_symmetry_Int_Tables_number       1
_symmetry_cell_setting            triclinic
loop_
_symmetry_equiv_pos_as_xyz
'x, y, z'
_cell_length_a     25.451883
_cell_length_b     25.424887
_cell_length_c     25.489097
_cell_angle_alpha  91.67155
_cell_angle_beta   88.377813
_cell_angle_gamma 91.491963
loop_
_atom_site_label
_atom_site_type_symbol
_atom_site_fract_x
_atom_site_fract_y
_atom_site_fract_z
_atom_type_partial_charge
H0 H 0.06279 0.17373 0.38869 0.0
H1 H 0.95698 0.62497 0.83604 0.0
H2 H 0.08642 0.4733 0.38508 0.0
H3 H 0.08886 0.4046 0.31616 0.0
H4 H 0.92063 0.38096 0.33539 0.0
H5 H 0.91859 0.45127 0.402 0.0
H6 H 0.09387 0.39227 0.46158 0.0
H7 H 0.09703 0.30048 0.43012 0.0
H8 H 0.92901 0.28384 0.45735 0.0
H9 H 0.92655 0.37567 0.48897 0.0
H10 H 0.0917 0.4058 0.57076 0.0
H11 H 0.09461 0.33322 0.63179 0.0
H12 H 0.93008 0.35353 0.6717 0.0
H13 H 0.92754 0.42586 0.61042 0.0
H14 H 0.08523 0.52134 0.62725 0.0
H15 H 0.08567 0.55449 0.71845 0.0
H16 H 0.91826 0.57835 0.71384 0.0
H17 H 0.91837 0.54464 0.62292 0.0
H18 H 0.0844 0.61387 0.55284 0.0
H19 H 0.08198 0.69141 0.61212 0.0
H20 H 0.91359 0.69565 0.59822 0.0
H21 H 0.91599 0.61696 0.54043 0.0
H22 H 0.0798 0.57494 0.40442 0.0
H23 H 0.07725 0.64678 0.34241 0.0
H24 H 0.91346 0.66898 0.38403 0.0
H25 H 0.91614 0.59647 0.4451 0.0
O26 O 0.0609 0.20938 0.40287 0.0
O27 O 0.97449 0.20278 0.41773 0.0
O28 O 0.04294 0.5936 0.80236 0.0
O29 O 0.9576 0.60999 0.80069 0.0
C30 C 0.00421 0.48582 0.45431 0.0
C31 C 0.0076 0.4472 0.49297 0.0
C32 C 0.00677 0.46193 0.54656 0.0
C33 C 0.00255 0.51521 0.56196 0.0
C34 C 1.0003 0.5542 0.52354 0.0
C35 C 1.00076 0.53962 0.46947 0.0
C36 C 0.00234 0.46724 0.3987 0.0
C37 C 0.04972 0.45567 0.37192 0.0
C38 C 0.05116 0.41527 0.3335 0.0
C39 C 0.00524 0.38573 0.32155 0.0
C40 C 0.95688 0.40251 0.34345 0.0
C41 C 0.95545 0.44335 0.38131 0.0
C42 C 0.00996 0.39053 0.47716 0.0
C43 C 0.0579 0.36856 0.46102 0.0
C44 C 0.05954 0.31619 0.44301 0.0
C45 C 0.01321 0.28491 0.44086 0.0
C46 C 0.96538 0.30687 0.45829 0.0
C47 C 0.96385 0.3592 0.4765 0.0
C48 C 0.00944 0.42095 0.5864 0.0
C49 C 0.05643 0.39461 0.59292 0.0
C50 C 0.05792 0.35307 0.62742 0.0
C51 C 0.01252 0.33767 0.65625 0.0
C52 C 0.96575 0.36489 0.65029 0.0
C53 C 0.96421 0.40615 0.61548 0.0
C54 C 1.00181 0.53075 0.61861 0.0
C55 C 0.04863 0.53311 0.64631 0.0
C56 C 0.04878 0.55228 0.69826 0.0
C57 C 1.00201 0.56935 0.72335 0.0
C58 C 0.95497 0.56573 0.69568 0.0
C59 C 0.95488 0.5464 0.64382 0.0
C60 C 1.00047 0.61013 0.54177 0.0
C61 C 0.04729 0.6329 0.5607 0.0
C62 C 0.04579 0.67667 0.59502 0.0
C63 C 0.99754 0.69892 0.60996 0.0
C64 C 0.95127 0.67927 0.58695 0.0
C65 C 0.95266 0.63479 0.55339 0.0
C66 C 0.99823 0.58063 0.42943 0.0
C67 C 0.04323 0.59489 0.39961 0.0
C68 C 0.04171 0.63595 0.36431 0.0
C69 C 0.99523 0.6638 0.35864 0.0
C70 C 0.95003 0.64882 0.38812 0.0
C71 C 0.95145 0.60738 0.4229 0.0
C72 C 0.01483 0.22986 0.41994 0.0
C73 C 0.00228 0.59154 0.77787 0.0
H74 H 0.60456 0.96439 0.1664 0.0
H75 H 0.17487 0.10426 0.59061 0.0
H76 H 0.59686 0.91658 0.44798 0.0
H77 H 0.67422 0.91229 0.38905 0.0
H78 H 0.71508 0.07362 0.43132 0.0
H79 H 0.63724 0.07772 0.48988 0.0
H80 H 0.50812 0.93438 0.37488 0.0
H81 H 0.54188 0.93246 0.28394 0.0
H82 H 0.6073 0.08986 0.30693 0.0
H83 H 0.57271 0.09147 0.39751 0.0
H84 H 0.39602 0.94434 0.42968 0.0
H85 H 0.33565 0.94707 0.35693 0.0
H86 H 0.39223 0.10458 0.32321 0.0
H87 H 0.45265 0.10148 0.39647 0.0
H88 H 0.37547 0.94523 0.53871 0.0
H89 H 0.28343 0.95702 0.56591 0.0
H90 H 0.30287 0.12461 0.54465 0.0
H91 H 0.39501 0.1122 0.51785 0.0
H92 H 0.45464 0.93425 0.61534 0.0
H93 H 0.38372 0.93763 0.68175 0.0
H94 H 0.39184 0.10759 0.68123 0.0
H95 H 0.46204 0.10358 0.61398 0.0
H96 H 0.59769 0.92297 0.56066 0.0
H97 H 0.6701 0.91744 0.62137 0.0
H98 H 0.6406 0.07576 0.67858 0.0
H99 H 0.56887 0.08142 0.61695 0.0
O100 O 0.59066 0.96635 0.20212 0.0
O101 O 0.62449 0.04685 0.2164 0.0
O102 O 0.20255 0.01179 0.58804 0.0
O103 O 0.21073 0.09834 0.57871 0.0
C104 C 0.55582 0.00636 0.48894 0.0
C105 C 0.51968 0.01317 0.44864 0.0
C106 C 0.46614 0.01968 0.46118 0.0
C107 C 0.44862 0.02105 0.514 0.0
C108 C 0.48486 0.01637 0.55485 0.0
C109 C 0.53881 0.00832 0.54242 0.0
C110 C 0.61138 0.99756 0.47291 0.0
C111 C 0.62391 0.95016 0.44644 0.0
C112 C 0.66756 0.94803 0.4122 0.0
C113 C 0.69975 0.99301 0.40476 0.0
C114 C 0.69076 0.03842 0.43626 0.0
C115 C 0.64667 0.04069 0.47016 0.0
C116 C 0.53812 0.01299 0.3927 0.0
C117 C 0.52936 0.96853 0.35999 0.0
C118 C 0.54884 0.9675 0.30816 0.0
C119 C 0.57739 0.01098 0.28818 0.0
C120 C 0.58552 0.05571 0.32105 0.0
C121 C 0.56584 0.05674 0.37278 0.0
C122 C 0.42813 0.0229 0.41855 0.0
C123 C 0.39491 0.97962 0.40694 0.0
C124 C 0.36063 0.98124 0.36538 0.0
C125 C 0.35923 0.02612 0.33455 0.0
C126 C 0.39286 0.06938 0.34609 0.0
C127 C 0.42697 0.06783 0.388 0.0
C128 C 0.39183 0.02791 0.52671 0.0
C129 C 0.35963 0.98439 0.53972 0.0
C130 C 0.30713 0.99126 0.55526 0.0
C131 C 0.28584 0.04183 0.55767 0.0
C132 C 0.31803 0.08518 0.54335 0.0
C133 C 0.37058 0.07823 0.52787 0.0
C134 C 0.46358 0.01862 0.6097 0.0
C135 C 0.44318 0.97219 0.6317 0.0
C136 C 0.402 0.97428 0.66927 0.0
C137 C 0.38092 0.02293 0.68569 0.0
C138 C 0.4061 0.06945 0.66835 0.0
C139 C 0.44719 0.06729 0.63081 0.0
C140 C 0.57782 0.00262 0.58423 0.0
C141 C 0.6066 0.95637 0.58653 0.0
C142 C 0.64818 0.95337 0.62099 0.0
C143 C 0.66139 0.99631 0.65448 0.0
C144 C 0.63123 0.0419 0.65349 0.0
C145 C 0.59003 0.04511 0.61849 0.0
C146 C 0.59893 0.00938 0.23344 0.0
C147 C 0.2305 0.04951 0.57561 0.0
H148 H 0.3985 0.16609 0.96399 0.0
H149 H 0.82782 0.63162 0.04768 0.0
H150 H 0.39958 0.45417 0.90582 0.0
H151 H 0.33027 0.38595 0.9027 0.0
H152 H 0.31366 0.39594 0.07185 0.0
H153 H 0.38207 0.46498 0.07431 0.0
H154 H 0.47799 0.3779 0.91711 0.0
H155 H 0.44761 0.28591 0.92091 0.0
H156 H 0.44081 0.2991 0.09051 0.0
H157 H 0.47127 0.3911 0.08602 0.0
H158 H 0.58339 0.40012 0.92625 0.0
H159 H 0.65353 0.33668 0.93399 0.0
H160 H 0.6671 0.38094 0.09805 0.0
H161 H 0.59588 0.44333 0.09034 0.0
H162 H 0.62315 0.53113 0.9171 0.0
H163 H 0.71386 0.56575 0.91665 0.0
H164 H 0.70618 0.57961 0.08619 0.0
H165 H 0.61559 0.54483 0.08598 0.0
H166 H 0.53604 0.61376 0.91003 0.0
H167 H 0.60482 0.68213 0.90468 0.0
H168 H 0.61179 0.68654 0.07433 0.0
H169 H 0.5406 0.62199 0.07869 0.0
H170 H 0.3979 0.55524 0.91259 0.0
H171 H 0.32613 0.61743 0.91006 0.0
H172 H 0.36358 0.67548 0.06586 0.0
H173 H 0.43463 0.61251 0.06847 0.0
O174 O 0.41226 0.20192 0.96345 0.0
O175 O 0.41137 0.21004 0.05058 0.0
O176 O 0.79677 0.60291 0.96021 0.0
O177 O 0.79276 0.616 0.04686 0.0
C178 C 0.45055 0.48521 0.99369 0.0
C179 C 0.49046 0.44802 0.99874 0.0
C180 C 0.54316 0.46489 0.00272 0.0
C181 C 0.55654 0.51871 0.00114 0.0
C182 C 0.51682 0.55633 0.99701 0.0
C183 C 0.46345 0.53977 0.9934 0.0
C184 C 0.3957 0.46471 0.99027 0.0
C185 C 0.37877 0.44388 0.94189 0.0
C186 C 0.34003 0.40399 0.94031 0.0
C187 C 0.31758 0.38451 0.98712 0.0
C188 C 0.33017 0.40998 0.03506 0.0
C189 C 0.36887 0.44998 0.03657 0.0
C190 C 0.47659 0.39101 0.00127 0.0
C191 C 0.47041 0.36061 0.95501 0.0
C192 C 0.4529 0.30818 0.95732 0.0
C193 C 0.44145 0.28524 0.00601 0.0
C194 C 0.4491 0.31559 0.05237 0.0
C195 C 0.46667 0.36802 0.04997 0.0
C196 C 0.58476 0.42604 0.00775 0.0
C197 C 0.60124 0.39569 0.9639 0.0
C198 C 0.64116 0.35971 0.96836 0.0
C199 C 0.66555 0.35426 0.01659 0.0
C200 C 0.6491 0.38491 0.06041 0.0
C201 C 0.60857 0.42029 0.0561 0.0
C202 C 0.61289 0.53574 0.00153 0.0
C203 C 0.6414 0.54116 0.95408 0.0
C204 C 0.6931 0.56104 0.95396 0.0
C205 C 0.71718 0.57573 0.00141 0.0
C206 C 0.6888 0.56888 0.04897 0.0
C207 C 0.63716 0.54882 0.04901 0.0
C208 C 0.53386 0.61241 0.99473 0.0
C209 C 0.5501 0.63221 0.94601 0.0
C210 C 0.59075 0.67021 0.9431 0.0
C211 C 0.61622 0.68824 0.98889 0.0
C212 C 0.59399 0.67393 0.0379 0.0
C213 C 0.55248 0.63703 0.0407 0.0
C214 C 0.4214 0.57904 0.99083 0.0
C215 C 0.39041 0.58113 0.9463 0.0
C216 C 0.34944 0.61667 0.94492 0.0
C217 C 0.33911 0.65128 0.98782 0.0
C218 C 0.37086 0.64969 0.032 0.0
C219 C 0.41145 0.61375 0.03356 0.0
C220 C 0.42091 0.23015 0.00825 0.0
C221 C 0.77133 0.59886 0.00138 0.0
C222 C 0.99634 0.13055 0.88563 0.0
C223 C 0.98405 0.12808 0.13759 0.0
C224 C 0.00348 0.87603 0.87355 0.0
C225 C 0.00554 0.87219 0.12856 0.0
C226 C 0.13235 0.88421 0.00282 0.0
C227 C 0.11721 0.1396 0.01508 0.0
C228 C 0.87605 0.86668 0.0106 0.0
C229 C 0.86504 0.11833 0.01123 0.0
C230 C 0.87068 0.99242 0.13747 0.0
C231 C 0.12312 0.00923 0.13483 0.0
C232 C 0.87244 0.99836 0.88257 0.0
C233 C 0.1306 0.00327 0.88133 0.0
Eu234 Eu 0.99315 0.09965 0.01094 0.0
O235 O 0.04217 0.0517 0.05643 0.0
O236 O 0.95075 0.04424 0.96262 0.0
Eu237 Eu 0.09787 0.00968 0.00768 0.0
Eu238 Eu 0.8999 0.99424 0.00905 0.0
O239 O 0.04442 0.05239 0.96152 0.0
O240 O 0.94891 0.04396 0.05699 0.0
Eu241 Eu 1.00086 0.0028 0.90702 0.0
Eu242 Eu 0.99722 1.00054 0.10716 0.0
O243 O 0.04792 0.95973 0.95914 0.0
O244 O 0.04607 0.95789 0.05133 0.0
O245 O 0.95418 0.95075 0.05267 0.0
O246 O 0.9549 0.95189 0.95847 0.0
Eu247 Eu 0.00313 0.9017 0.00254 0.0
O248 O 0.99285 0.14494 0.93627 0.0
O249 O 0.98272 0.14296 0.08812 0.0
O250 O 0.00529 0.85907 0.92265 0.0
O251 O 0.00784 0.85743 0.07786 0.0
O252 O 0.14526 0.93539 0.00744 0.0
O253 O 0.13736 0.09161 0.00903 0.0
O254 O 0.85895 0.91556 0.01082 0.0
O255 O 0.85157 0.06736 0.01097 0.0
O256 O 0.92047 0.99481 0.15204 0.0
O257 O 0.0729 0.00485 0.15049 0.0
O258 O 0.92246 0.00172 0.86472 0.0
O259 O 0.08141 0.00283 0.86369 0.0
O260 O 0.92632 0.85236 0.00676 0.0
O261 O 0.08345 0.86414 0.99899 0.0
O262 O 0.91405 0.13815 0.01114 0.0
O263 O 0.0663 0.15026 0.01761 0.0
O264 O 0.99119 0.07906 0.15349 0.0
O265 O 1.00044 0.9216 0.14732 0.0
O266 O 1.00084 0.08128 0.86664 0.0
O267 O 1.00113 0.92617 0.85997 0.0
O268 O 0.14414 0.00653 0.9314 0.0
O269 O 0.14059 0.01248 0.08505 0.0
O270 O 0.85699 0.99381 0.93275 0.0
O271 O 0.85462 0.99173 0.08786 0.0
H272 H 0.93527 0.34281 0.25192 0.0
H273 H 0.08171 0.312 0.32531 0.0
H274 H 0.08535 0.22646 0.27994 0.0
H275 H 0.04858 0.16115 0.21601 0.0
H276 H 0.90263 0.19309 0.14295 0.0
H277 H 0.89608 0.27611 0.19302 0.0
C278 C 0.96778 0.3173 0.25848 0.0
C279 C 0.00836 0.33448 0.29168 0.0
C280 C 0.9693 0.26768 0.23286 0.0
C281 C 0.05047 0.30075 0.29899 0.0
C282 C 0.05232 0.25133 0.27355 0.0
C283 C 0.01474 0.18573 0.21241 0.0
C284 C 0.97575 0.17098 0.17663 0.0
C285 C 0.01208 0.23439 0.24016 0.0
C286 C 0.93272 0.20363 0.17091 0.0
C287 C 0.92923 0.25129 0.19909 0.0
H288 H 0.68391 0.96218 0.30363 0.0
H289 H 0.80156 0.02901 0.40623 0.0
H290 H 0.86399 0.03581 0.33183 0.0
H291 H 0.88471 0.02311 0.23858 0.0
H292 H 0.7675 0.95748 0.1345 0.0
H293 H 0.70475 0.95026 0.20886 0.0
C294 C 0.72344 0.97768 0.30968 0.0
C295 C 0.73846 0.99459 0.36036 0.0
C296 C 0.75876 0.98211 0.26663 0.0
C297 C 0.7893 0.01568 0.36761 0.0
C298 C 0.82486 0.01959 0.32514 0.0
C299 C 0.84549 0.00702 0.23192 0.0
C300 C 0.83095 0.99048 0.181 0.0
C301 C 0.80993 0.00303 0.27458 0.0
C302 C 0.77965 0.97067 0.1732 0.0
C303 C 0.74388 0.96632 0.21573 0.0
H304 H 0.03408 0.66732 0.25834 0.0
H305 H 0.95324 0.76063 0.37765 0.0
H306 H 0.95055 0.83411 0.31794 0.0
H307 H 0.97035 0.87155 0.23106 0.0
H308 H 0.04928 0.77642 0.11152 0.0
H309 H 0.05388 0.70447 0.17206 0.0
C310 C 0.01625 0.7039 0.27138 0.0
C311 C 0.99394 0.70849 0.32234 0.0
C312 C 0.01447 0.74579 0.23673 0.0
C313 C 0.97026 0.7559 0.33841 0.0
C314 C 0.96892 0.79802 0.30437 0.0
C315 C 0.98884 0.83521 0.2184 0.0
C316 C 0.00932 0.82953 0.16672 0.0
C317 C 0.99078 0.7934 0.25333 0.0
C318 C 0.03274 0.78188 0.15088 0.0
C319 C 0.03555 0.74062 0.18553 0.0
H320 H 0.25667 0.9969 0.33798 0.0
H321 H 0.37805 0.05955 0.23435 0.0
H322 H 0.31587 0.05982 0.16265 0.0
H323 H 0.22682 0.04091 0.12949 0.0
H324 H 0.10665 0.97815 0.23522 0.0
H325 H 0.16877 0.97879 0.30566 0.0
C326 C 0.26961 0.01024 0.29956 0.0
C327 C 0.3218 0.02781 0.29127 0.0
C328 C 0.2339 0.01017 0.25884 0.0
C329 C 0.33785 0.04608 0.24167 0.0
C330 C 0.30244 0.04598 0.20066 0.0
C331 C 0.21432 0.02723 0.16788 0.0
C332 C 0.16205 0.00963 0.17686 0.0
C333 C 0.25033 0.02788 0.20875 0.0
C334 C 0.14645 0.99235 0.22705 0.0
C335 C 0.18199 0.99253 0.26753 0.0
H336 H 0.03337 0.6889 0.70763 0.0
H337 H 0.95395 0.79583 0.6105 0.0
H338 H 0.94834 0.86009 0.68399 0.0
H339 H 0.96677 0.88567 0.77538 0.0
H340 H 0.04275 0.77688 0.87382 0.0
H341 H 0.04851 0.71307 0.80035 0.0
C342 C 0.01523 0.72651 0.70263 0.0
C343 C 0.99482 0.73826 0.65375 0.0
C344 C 0.01128 0.76255 0.74523 0.0
C345 C 0.97023 0.78637 0.64778 0.0
C346 C 0.96702 0.82294 0.68973 0.0
C347 C 0.98473 0.84805 0.7808 0.0
C348 C 0.00469 0.83624 0.82995 0.0
C349 C 0.98753 0.81146 0.73856 0.0
C350 C 0.02696 0.78693 0.83649 0.0
C351 C 0.0305 0.75052 0.79443 0.0
H352 H 0.34816 0.96181 0.76721 0.0
H353 H 0.29864 0.0881 0.67215 0.0
H354 H 0.21447 0.09043 0.72044 0.0
H355 H 0.15543 0.05847 0.7927 0.0
H356 H 0.20704 0.93337 0.88795 0.0
H357 H 0.28873 0.92775 0.83598 0.0
C358 C 0.31887 0.98962 0.75678 0.0
C359 C 0.33018 0.02502 0.71641 0.0
C360 C 0.2704 0.99067 0.7846 0.0
C361 C 0.29166 0.06108 0.70382 0.0
C362 C 0.24317 0.06215 0.73111 0.0
C363 C 0.18424 0.02942 0.80118 0.0
C364 C 0.17527 0.9962 0.84378 0.0
C365 C 0.23211 0.02732 0.77188 0.0
C366 C 0.21321 0.95929 0.85518 0.0
C367 C 0.26004 0.95621 0.82569 0.0
H368 H 0.97264 0.33504 0.75562 0.0
H369 H 0.05573 0.2413 0.63822 0.0
H370 H 0.05743 0.16814 0.69843 0.0
H371 H 0.03514 0.13104 0.78478 0.0
H372 H 0.95314 0.22644 0.90201 0.0
H373 H 0.95069 0.29843 0.84132 0.0
C374 C 0.99073 0.29842 0.74311 0.0
C375 C 0.01385 0.29343 0.69264 0.0
C376 C 0.99169 0.25679 0.77786 0.0
C377 C 0.03801 0.24614 0.67715 0.0
C378 C 0.03876 0.20426 0.71142 0.0
C379 C 0.01651 0.16748 0.79687 0.0
C380 C 0.99445 0.17334 0.84783 0.0
C381 C 0.01568 0.20915 0.7619 0.0
C382 C 0.97086 0.22101 0.86315 0.0
C383 C 0.96928 0.26222 0.82845 0.0
H384 H 0.66457 0.02596 0.75758 0.0
H385 H 0.76018 0.96064 0.6308 0.0
H386 H 0.8348 0.95661 0.68906 0.0
H387 H 0.87291 0.97133 0.77707 0.0
H388 H 0.7745 0.03406 0.90343 0.0
H389 H 0.70173 0.0399 0.84447 0.0
C390 C 0.70185 0.0112 0.74261 0.0
C391 C 0.70676 0.99375 0.68993 0.0
C392 C 0.74436 0.00856 0.77638 0.0
C393 C 0.75518 0.97393 0.67136 0.0
C394 C 0.79797 0.97185 0.7046 0.0
C395 C 0.83561 0.98648 0.79152 0.0
C396 C 0.82938 0.00212 0.84475 0.0
C397 C 0.79307 0.989 0.75733 0.0
C398 C 0.78052 0.02129 0.86286 0.0
C399 C 0.7387 0.0248 0.82911 0.0
H400 H 0.22833 0.36185 0.04425 0.0
H401 H 0.3368 0.29435 0.92961 0.0
H402 H 0.28723 0.21088 0.93089 0.0
H403 H 0.21107 0.15733 0.9631 0.0
H404 H 0.10245 0.22639 0.07669 0.0
H405 H 0.15452 0.30817 0.0782 0.0
C406 C 0.24122 0.32882 0.0197 0.0
C407 C 0.28585 0.33461 0.98654 0.0
C408 C 0.21265 0.28088 0.02073 0.0
C409 C 0.30188 0.29141 0.95472 0.0
C410 C 0.27385 0.24342 0.95578 0.0
C411 C 0.19943 0.19009 0.98868 0.0
C412 C 0.15307 0.18594 0.01964 0.0
C413 C 0.22898 0.23769 0.98849 0.0
C414 C 0.1379 0.22883 0.0522 0.0
C415 C 0.16755 0.27567 0.05305 0.0
H416 H 0.34048 0.75513 0.01692 0.0
H417 H 0.23873 0.63092 0.95614 0.0
H418 H 0.16578 0.69163 0.95535 0.0
H419 H 0.13065 0.77996 0.97271 0.0
H420 H 0.23347 0.90431 0.03231 0.0
H421 H 0.30584 0.8436 0.03294 0.0
C422 C 0.30224 0.74131 0.00379 0.0
C423 C 0.29505 0.68855 0.98674 0.0
C424 C 0.26054 0.77647 0.00323 0.0
C425 C 0.24545 0.67145 0.96905 0.0
C426 C 0.20364 0.70608 0.96883 0.0
C427 C 0.16882 0.79382 0.98598 0.0
C428 C 0.17628 0.84677 0.00255 0.0
C429 C 0.21068 0.7587 0.98593 0.0
C430 C 0.22634 0.86394 0.01911 0.0
C431 C 0.2679 0.82917 0.01964 0.0
H432 H 0.66253 0.25161 0.987 0.0
H433 H 0.76265 0.37222 0.05663 0.0
H434 H 0.83373 0.30953 0.06151 0.0
H435 H 0.86752 0.22091 0.04411 0.0
H436 H 0.76564 0.09974 0.97723 0.0
H437 H 0.69501 0.16224 0.97301 0.0
C438 C 0.70003 0.26403 0.00306 0.0
C439 C 0.7078 0.31623 0.02107 0.0
C440 C 0.74025 0.22782 0.00613 0.0
C441 C 0.75603 0.332 0.04269 0.0
C442 C 0.79659 0.29631 0.04528 0.0
C443 C 0.82989 0.20824 0.02852 0.0
C444 C 0.82197 0.15592 0.01057 0.0
C445 C 0.7892 0.2442 0.02682 0.0
C446 C 0.77275 0.13981 0.99127 0.0
C447 C 0.73235 0.17553 0.98873 0.0
H448 H 0.65853 0.76033 0.05902 0.0
H449 H 0.69409 0.67791 0.91209 0.0
H450 H 0.78045 0.72097 0.90811 0.0
H451 H 0.84537 0.78568 0.94475 0.0
H452 H 0.8104 0.86275 0.09399 0.0
H453 H 0.7259 0.81559 0.10013 0.0
C454 C 0.68517 0.75071 0.02646 0.0
C455 C 0.66864 0.71624 0.98562 0.0
C456 C 0.73582 0.77387 0.02535 0.0
C457 C 0.70426 0.70564 0.9434 0.0
C458 C 0.75436 0.72958 0.94142 0.0
C459 C 0.81987 0.79053 0.97928 0.0
C460 C 0.83401 0.82697 0.01915 0.0
C461 C 0.77057 0.76402 0.98206 0.0
C462 C 0.8003 0.83424 0.0632 0.0
C463 C 0.75176 0.80784 0.06642 0.0
loop_
_geom_bond_atom_site_label_1
_geom_bond_atom_site_label_2
_geom_bond_distance
_geom_bond_site_symmetry_2
_ccdc_geom_bond_type
H0 O26 0.856 . S
H1 O29 0.854 . S
H2 C37 0.930 . S
H3 C38 0.930 . S
H4 C40 0.930 . S
H5 C41 0.930 . S
H6 C43 0.931 . S
H7 C44 0.930 . S
H8 C46 0.930 . S
H9 C47 0.929 . S
H10 C49 0.930 . S
H11 C50 0.931 . S
H12 C52 0.930 . S
H13 C53 0.929 . S
H14 C55 0.931 . S
H15 C56 0.930 . S
H16 C58 0.930 . S
H17 C59 0.932 . S
H18 C61 0.930 . S
H19 C62 0.929 . S
H20 C64 0.931 . S
H21 C65 0.930 . S
H22 C67 0.929 . S
H23 C68 0.931 . S
H24 C70 0.930 . S
H25 C71 0.929 . S
O26 H0 0.856 . S
O26 C72 1.300 1_455 S
O27 C72 1.209 . S
O28 C73 1.199 1_455 S
O29 H1 0.854 . S
O29 C73 1.297 . S
C30 C31 1.404 . S
C30 C35 1.397 1_655 S
C30 C36 1.492 1_655 S
C31 C30 1.404 . S
C31 C32 1.396 . S
C31 C42 1.492 . S
C32 C31 1.396 . S
C32 C33 1.397 . S
C32 C48 1.509 . S
C33 C32 1.397 . S
C33 C34 1.413 . S
C33 C54 1.485 . S
C34 C33 1.413 . S
C34 C35 1.389 1_655 S
C34 C60 1.490 1_655 S
C35 C30 1.397 1_455 S
C35 C34 1.389 1_455 S
C35 C66 1.519 1_455 S
C36 C30 1.492 1_455 S
C36 C37 1.363 . S
C36 C41 1.390 1_455 S
C37 H2 0.930 . S
C37 C36 1.363 . S
C37 C38 1.372 . S
C38 H3 0.930 . S
C38 C37 1.372 . S
C38 C39 1.383 . S
C39 C38 1.383 . S
C39 C40 1.395 1_455 S
C40 H4 0.930 . S
C40 C39 1.395 1_655 S
C40 C41 1.362 . S
C41 H5 0.930 . S
C41 C36 1.390 1_655 S
C41 C40 1.362 . S
C42 C31 1.492 . S
C42 C43 1.377 1_655 S
C42 C47 1.397 . S
C43 H6 0.931 . S
C43 C42 1.377 1_455 S
C43 C44 1.376 . S
C44 H7 0.930 . S
C44 C43 1.376 . S
C44 C45 1.376 1_455 S
C45 C44 1.376 1_655 S
C45 C46 1.378 . S
C45 C72 1.486 . S
C46 H8 0.930 . S
C46 C45 1.378 . S
C46 C47 1.376 . S
C47 H9 0.929 . S
C47 C42 1.397 . S
C47 C46 1.376 . S
C48 C32 1.509 . S
C48 C49 1.391 1_655 S
C48 C53 1.386 . S
C49 H10 0.930 . S
C49 C48 1.391 1_455 S
C49 C50 1.375 . S
C50 H11 0.931 . S
C50 C49 1.375 . S
C50 C51 1.375 1_455 S
C51 C50 1.375 1_655 S
C51 C52 1.361 . S
C52 H12 0.930 . S
C52 C51 1.361 . S
C52 C53 1.399 . S
C53 H13 0.929 . S
C53 C48 1.386 . S
C53 C52 1.399 . S
C54 C33 1.485 . S
C54 C55 1.394 1_655 S
C54 C59 1.360 . S
C55 H14 0.931 . S
C55 C54 1.394 1_455 S
C55 C56 1.372 . S
C56 H15 0.930 . S
C56 C55 1.372 . S
C56 C57 1.397 1_455 S
C57 C56 1.397 1_655 S
C57 C58 1.390 . S
C57 C73 1.476 . S
C58 H16 0.930 . S
C58 C57 1.390 . S
C58 C59 1.366 . S
C59 H17 0.932 . S
C59 C54 1.360 . S
C59 C58 1.366 . S
C60 C34 1.490 1_455 S
C60 C61 1.380 . S
C60 C65 1.386 1_455 S
C61 H18 0.930 . S
C61 C60 1.380 . S
C61 C62 1.381 . S
C62 H19 0.929 . S
C62 C61 1.381 . S
C62 C63 1.371 . S
C63 C62 1.371 . S
C63 C64 1.380 1_455 S
C64 H20 0.931 . S
C64 C63 1.380 1_655 S
C64 C65 1.387 . S
C65 H21 0.930 . S
C65 C60 1.386 1_655 S
C65 C64 1.387 . S
C66 C35 1.519 1_655 S
C66 C67 1.377 1_655 S
C66 C71 1.361 . S
C67 H22 0.929 . S
C67 C66 1.377 1_455 S
C67 C68 1.386 . S
C68 H23 0.931 . S
C68 C67 1.386 . S
C68 C69 1.363 1_455 S
C69 C68 1.363 1_655 S
C69 C70 1.385 . S
C70 H24 0.930 . S
C70 C69 1.385 . S
C70 C71 1.396 . S
C71 H25 0.929 . S
C71 C66 1.361 . S
C71 C70 1.396 . S
C72 O26 1.300 1_655 S
C72 O27 1.209 . S
C72 C45 1.486 . S
C73 O28 1.199 1_655 S
C73 O29 1.297 . S
C73 C57 1.476 . S
H74 O100 0.856 1_545 S
H75 O103 0.854 . S
H76 C111 0.930 . S
H77 C112 0.930 . S
H78 C114 0.930 . S
H79 C115 0.930 . S
H80 C117 0.931 . S
H81 C118 0.930 . S
H82 C120 0.930 . S
H83 C121 0.929 . S
H84 C123 0.930 . S
H85 C124 0.931 . S
H86 C126 0.930 . S
H87 C127 0.929 . S
H88 C129 0.931 . S
H89 C130 0.930 . S
H90 C132 0.930 . S
H91 C133 0.932 . S
H92 C135 0.930 . S
H93 C136 0.929 . S
H94 C138 0.931 . S
H95 C139 0.930 . S
H96 C141 0.929 . S
H97 C142 0.931 . S
H98 C144 0.930 . S
H99 C145 0.929 . S
O100 H74 0.856 1_565 S
O100 C146 1.300 1_565 S
O101 C146 1.209 . S
O102 C147 1.199 1_565 S
O103 H75 0.854 . S
O103 C147 1.297 . S
C104 C105 1.404 . S
C104 C109 1.397 . S
C104 C110 1.492 . S
C105 C104 1.404 . S
C105 C106 1.396 . S
C105 C116 1.492 . S
C106 C105 1.396 . S
C106 C107 1.397 . S
C106 C122 1.509 . S
C107 C106 1.397 . S
C107 C108 1.412 . S
C107 C128 1.485 . S
C108 C107 1.412 . S
C108 C109 1.388 . S
C108 C134 1.490 . S
C109 C104 1.397 . S
C109 C108 1.388 . S
C109 C140 1.519 . S
C110 C104 1.492 . S
C110 C111 1.363 1_545 S
C110 C115 1.390 . S
C111 H76 0.930 . S
C111 C110 1.363 1_565 S
C111 C112 1.372 . S
C112 H77 0.930 . S
C112 C111 1.372 . S
C112 C113 1.383 . S
C113 C112 1.383 . S
C113 C114 1.395 1_565 S
C114 H78 0.930 . S
C114 C113 1.395 1_545 S
C114 C115 1.362 . S
C115 H79 0.930 . S
C115 C110 1.390 . S
C115 C114 1.362 . S
C116 C105 1.492 . S
C116 C117 1.377 1_545 S
C116 C121 1.397 . S
C117 H80 0.931 . S
C117 C116 1.377 1_565 S
C117 C118 1.376 . S
C118 H81 0.930 . S
C118 C117 1.376 . S
C118 C119 1.376 1_565 S
C119 C118 1.376 1_545 S
C119 C120 1.378 . S
C119 C146 1.486 . S
C120 H82 0.930 . S
C120 C119 1.378 . S
C120 C121 1.376 . S
C121 H83 0.929 . S
C121 C116 1.397 . S
C121 C120 1.376 . S
C122 C106 1.509 . S
C122 C123 1.391 1_545 S
C122 C127 1.386 . S
C123 H84 0.930 . S
C123 C122 1.391 1_565 S
C123 C124 1.375 . S
C124 H85 0.931 . S
C124 C123 1.375 . S
C124 C125 1.375 1_565 S
C125 C124 1.375 1_545 S
C125 C126 1.361 . S
C126 H86 0.930 . S
C126 C125 1.361 . S
C126 C127 1.399 . S
C127 H87 0.929 . S
C127 C122 1.386 . S
C127 C126 1.399 . S
C128 C107 1.485 . S
C128 C129 1.394 1_545 S
C128 C133 1.360 . S
C129 H88 0.931 . S
C129 C128 1.394 1_565 S
C129 C130 1.372 . S
C130 H89 0.930 . S
C130 C129 1.372 . S
C130 C131 1.397 1_565 S
C131 C130 1.397 1_545 S
C131 C132 1.390 . S
C131 C147 1.476 . S
C132 H90 0.930 . S
C132 C131 1.390 . S
C132 C133 1.366 . S
C133 H91 0.932 . S
C133 C128 1.360 . S
C133 C132 1.366 . S
C134 C108 1.490 . S
C134 C135 1.380 1_545 S
C134 C139 1.386 . S
C135 H92 0.930 . S
C135 C134 1.380 1_565 S
C135 C136 1.381 . S
C136 H93 0.929 . S
C136 C135 1.381 . S
C136 C137 1.371 . S
C137 C136 1.371 . S
C137 C138 1.380 1_565 S
C138 H94 0.931 . S
C138 C137 1.380 1_545 S
C138 C139 1.387 . S
C139 H95 0.930 . S
C139 C134 1.386 . S
C139 C138 1.387 . S
C140 C109 1.519 . S
C140 C141 1.377 1_545 S
C140 C145 1.361 . S
C141 H96 0.929 . S
C141 C140 1.377 1_565 S
C141 C142 1.386 . S
C142 H97 0.931 . S
C142 C141 1.386 . S
C142 C143 1.363 1_565 S
C143 C142 1.363 1_545 S
C143 C144 1.385 . S
C144 H98 0.930 . S
C144 C143 1.385 . S
C144 C145 1.396 . S
C145 H99 0.929 . S
C145 C140 1.361 . S
C145 C144 1.396 . S
C146 O100 1.300 1_545 S
C146 O101 1.209 . S
C146 C119 1.486 . S
C147 O102 1.199 1_545 S
C147 O103 1.297 . S
C147 C131 1.476 . S
H148 O174 0.856 . S
H149 O177 0.854 . S
H150 C185 0.930 . S
H151 C186 0.930 . S
H152 C188 0.930 . S
H153 C189 0.930 . S
H154 C191 0.931 . S
H155 C192 0.930 . S
H156 C194 0.930 . S
H157 C195 0.929 . S
H158 C197 0.930 . S
H159 C198 0.931 . S
H160 C200 0.930 . S
H161 C201 0.929 . S
H162 C203 0.931 . S
H163 C204 0.930 . S
H164 C206 0.930 . S
H165 C207 0.932 . S
H166 C209 0.930 . S
H167 C210 0.929 . S
H168 C212 0.931 . S
H169 C213 0.930 . S
H170 C215 0.929 . S
H171 C216 0.931 . S
H172 C218 0.930 . S
H173 C219 0.929 . S
O174 H148 0.856 . S
O174 C220 1.300 1_556 S
O175 C220 1.209 . S
O176 C221 1.199 1_556 S
O177 H149 0.854 . S
O177 C221 1.297 . S
C178 C179 1.404 . S
C178 C183 1.397 . S
C178 C184 1.489 1_554 S
C179 C178 1.404 . S
C179 C180 1.396 . S
C179 C190 1.492 . S
C180 C179 1.396 . S
C180 C181 1.397 . S
C180 C196 1.509 . S
C181 C180 1.397 . S
C181 C182 1.412 . S
C181 C202 1.485 . S
C182 C181 1.412 . S
C182 C183 1.388 . S
C182 C208 1.490 1_554 S
C183 C178 1.397 . S
C183 C182 1.388 . S
C183 C214 1.519 . S
C184 C178 1.489 1_556 S
C184 C185 1.382 . S
C184 C189 1.374 1_556 S
C185 H150 0.930 . S
C185 C184 1.382 . S
C185 C186 1.372 . S
C186 H151 0.930 . S
C186 C185 1.372 . S
C186 C187 1.383 . S
C187 C186 1.383 . S
C187 C188 1.395 1_556 S
C188 H152 0.930 . S
C188 C187 1.395 1_554 S
C188 C189 1.362 . S
C189 H153 0.930 . S
C189 C184 1.374 1_554 S
C189 C188 1.362 . S
C190 C179 1.492 . S
C190 C191 1.377 1_554 S
C190 C195 1.397 . S
C191 H154 0.931 . S
C191 C190 1.377 1_556 S
C191 C192 1.376 . S
C192 H155 0.930 . S
C192 C191 1.376 . S
C192 C193 1.376 1_556 S
C193 C192 1.376 1_554 S
C193 C194 1.378 . S
C193 C220 1.486 . S
C194 H156 0.930 . S
C194 C193 1.378 . S
C194 C195 1.376 . S
C195 H157 0.929 . S
C195 C190 1.397 . S
C195 C194 1.376 . S
C196 C180 1.509 . S
C196 C197 1.391 1_554 S
C196 C201 1.386 . S
C197 H158 0.930 . S
C197 C196 1.391 1_556 S
C197 C198 1.375 . S
C198 H159 0.931 . S
C198 C197 1.375 . S
C198 C199 1.375 1_556 S
C199 C198 1.375 1_554 S
C199 C200 1.361 . S
C200 H160 0.930 . S
C200 C199 1.361 . S
C200 C201 1.399 . S
C201 H161 0.929 . S
C201 C196 1.386 . S
C201 C200 1.399 . S
C202 C181 1.485 . S
C202 C203 1.394 1_554 S
C202 C207 1.360 . S
C203 H162 0.931 . S
C203 C202 1.394 1_556 S
C203 C204 1.372 . S
C204 H163 0.930 . S
C204 C203 1.372 . S
C204 C205 1.397 1_556 S
C205 C204 1.397 1_554 S
C205 C206 1.390 . S
C205 C221 1.476 . S
C206 H164 0.930 . S
C206 C205 1.390 . S
C206 C207 1.366 . S
C207 H165 0.932 . S
C207 C202 1.360 . S
C207 C206 1.366 . S
C208 C182 1.490 1_556 S
C208 C209 1.380 . S
C208 C213 1.386 1_556 S
C209 H166 0.930 . S
C209 C208 1.380 . S
C209 C210 1.381 . S
C210 H167 0.929 . S
C210 C209 1.381 . S
C210 C211 1.371 . S
C211 C210 1.371 . S
C211 C212 1.380 1_556 S
C212 H168 0.931 . S
C212 C211 1.380 1_554 S
C212 C213 1.387 . S
C213 H169 0.930 . S
C213 C208 1.386 1_554 S
C213 C212 1.387 . S
C214 C183 1.519 . S
C214 C215 1.377 1_554 S
C214 C219 1.361 . S
C215 H170 0.929 . S
C215 C214 1.377 1_556 S
C215 C216 1.386 . S
C216 H171 0.931 . S
C216 C215 1.386 . S
C216 C217 1.363 1_556 S
C217 C216 1.363 1_554 S
C217 C218 1.385 . S
C218 H172 0.930 . S
C218 C217 1.385 . S
C218 C219 1.396 . S
C219 H173 0.929 . S
C219 C214 1.361 . S
C219 C218 1.396 . S
C220 O174 1.300 1_554 S
C220 O175 1.209 . S
C220 C193 1.486 . S
C221 O176 1.199 1_554 S
C221 O177 1.297 . S
C221 C205 1.476 . S
C222 O248 1.283 . S
C222 O266 1.283 . S
C223 O249 1.283 . S
C223 O264 1.283 . S
C224 O250 1.283 . S
C224 O267 1.283 . S
C225 O251 1.283 . S
C225 O265 1.283 . S
C226 O252 1.283 . S
C226 O261 1.283 . S
C227 O253 1.283 . S
C227 O263 1.283 . S
C228 O254 1.283 . S
C228 O260 1.283 . S
C229 O255 1.283 . S
C229 O262 1.283 . S
C230 O256 1.283 . S
C230 O271 1.283 . S
C231 O257 1.283 . S
C231 O269 1.283 . S
C232 O258 1.283 . S
C232 O270 1.283 . S
C233 O259 1.283 . S
C233 O268 1.283 . S
Eu234 O235 2.370 . S
Eu234 O236 2.370 1_454 S
Eu234 O239 2.370 1_554 S
Eu234 O240 2.370 1_455 S
Eu234 O248 2.363 1_554 S
Eu234 O249 2.363 . S
Eu234 O262 2.363 1_455 S
Eu234 O263 2.363 . S
O235 Eu234 2.370 . S
O235 Eu237 2.371 . S
O235 Eu242 2.363 1_455 S
O236 Eu234 2.370 1_656 S
O236 Eu238 2.370 1_556 S
O236 Eu241 2.370 1_655 S
Eu237 O235 2.371 . S
Eu237 O239 2.369 1_554 S
Eu237 O243 2.369 1_544 S
Eu237 O244 2.371 1_545 S
Eu237 O252 2.363 1_544 S
Eu237 O253 2.363 . S
Eu237 O268 2.361 1_554 S
Eu237 O269 2.365 . S
Eu238 O236 2.370 1_554 S
Eu238 O240 2.370 . S
Eu238 O245 2.370 1_545 S
Eu238 O246 2.370 1_544 S
Eu238 O254 2.363 1_545 S
Eu238 O255 2.363 . S
Eu238 O270 2.363 1_554 S
Eu238 O271 2.363 . S
O239 Eu234 2.370 1_556 S
O239 Eu237 2.369 1_556 S
O239 Eu241 2.370 . S
O240 Eu234 2.370 1_655 S
O240 Eu238 2.370 . S
O240 Eu242 2.377 . S
Eu241 O236 2.370 1_455 S
Eu241 O239 2.370 . S
Eu241 O243 2.370 1_545 S
Eu241 O246 2.370 1_445 S
Eu241 O258 2.363 1_455 S
Eu241 O259 2.363 . S
Eu241 O266 2.363 . S
Eu241 O267 2.363 1_545 S
Eu242 O235 2.363 1_655 S
Eu242 O240 2.377 . S
Eu242 O244 2.363 1_645 S
Eu242 O245 2.377 1_545 S
Eu242 O256 2.375 . S
Eu242 O257 2.351 1_655 S
Eu242 O264 2.363 1_655 S
Eu242 O265 2.363 1_545 S
O243 Eu237 2.369 1_566 S
O243 Eu241 2.370 1_565 S
O243 Eu247 2.362 1_456 S
O244 Eu237 2.371 1_565 S
O244 Eu242 2.363 1_465 S
O244 Eu247 2.364 1_455 S
O245 Eu238 2.370 1_565 S
O245 Eu242 2.377 1_565 S
O245 Eu247 2.378 . S
O246 Eu238 2.370 1_566 S
O246 Eu241 2.370 1_665 S
O246 Eu247 2.376 1_556 S
Eu247 O243 2.362 1_654 S
Eu247 O244 2.364 1_655 S
Eu247 O245 2.378 . S
Eu247 O246 2.376 1_554 S
Eu247 O250 2.362 1_654 S
Eu247 O251 2.364 . S
Eu247 O260 2.375 . S
Eu247 O261 2.351 1_654 S
O248 C222 1.283 . S
O248 Eu234 2.363 1_556 S
O249 C223 1.283 . S
O249 Eu234 2.363 . S
O250 C224 1.283 . S
O250 Eu247 2.362 1_456 S
O251 C225 1.283 . S
O251 Eu247 2.364 . S
O252 C226 1.283 . S
O252 Eu237 2.363 1_566 S
O253 C227 1.283 . S
O253 Eu237 2.363 . S
O254 C228 1.283 . S
O254 Eu238 2.363 1_565 S
O255 C229 1.283 . S
O255 Eu238 2.363 . S
O256 C230 1.283 . S
O256 Eu242 2.375 . S
O257 C231 1.283 . S
O257 Eu242 2.351 1_455 S
O258 C232 1.283 . S
O258 Eu241 2.363 1_655 S
O259 C233 1.283 . S
O259 Eu241 2.363 . S
O260 C228 1.283 . S
O260 Eu247 2.375 . S
O261 C226 1.283 . S
O261 Eu247 2.351 1_456 S
O262 C229 1.283 . S
O262 Eu234 2.363 1_655 S
O263 C227 1.283 . S
O263 Eu234 2.363 . S
O264 C223 1.283 . S
O264 Eu242 2.363 1_455 S
O265 C225 1.283 . S
O265 Eu242 2.363 1_565 S
O266 C222 1.283 . S
O266 Eu241 2.363 . S
O267 C224 1.283 . S
O267 Eu241 2.363 1_565 S
O268 C233 1.283 . S
O268 Eu237 2.361 1_556 S
O269 C231 1.283 . S
O269 Eu237 2.365 . S
O270 C232 1.283 . S
O270 Eu238 2.363 1_556 S
O271 C230 1.283 . S
O271 Eu238 2.363 . S
H272 C278 0.930 1_655 S
H273 C281 0.930 . S
H274 C282 0.930 . S
H275 C283 0.930 . S
H276 C286 0.930 . S
H277 C287 0.930 . S
C278 H272 0.930 1_455 S
C278 C279 1.355 . S
C278 C280 1.415 . S
C279 C278 1.355 . S
C279 C281 1.419 . S
C280 C278 1.415 . S
C280 C285 1.425 . S
C280 C287 1.409 1_455 S
C281 H273 0.930 . S
C281 C279 1.419 . S
C281 C282 1.362 . S
C282 H274 0.930 . S
C282 C281 1.362 . S
C282 C285 1.409 . S
C283 H275 0.930 . S
C283 C284 1.355 . S
C283 C285 1.415 . S
C284 C283 1.355 . S
C284 C286 1.419 1_455 S
C285 C280 1.425 . S
C285 C282 1.409 . S
C285 C283 1.415 . S
C286 H276 0.930 . S
C286 C284 1.419 1_655 S
C286 C287 1.362 . S
C287 H277 0.930 . S
C287 C280 1.409 1_655 S
C287 C286 1.362 . S
H288 C294 0.928 1_545 S
H289 C297 0.930 . S
H290 C298 0.930 . S
H291 C299 0.930 . S
H292 C302 0.930 . S
H293 C303 0.930 . S
C294 H288 0.928 1_565 S
C294 C295 1.355 . S
C294 C296 1.415 1_565 S
C295 C294 1.355 . S
C295 C297 1.419 . S
C296 C294 1.415 1_545 S
C296 C301 1.425 1_545 S
C296 C303 1.409 . S
C297 H289 0.930 . S
C297 C295 1.419 . S
C297 C298 1.362 . S
C298 H290 0.930 . S
C298 C297 1.362 . S
C298 C301 1.409 . S
C299 H291 0.930 . S
C299 C300 1.355 . S
C299 C301 1.415 1_545 S
C300 C299 1.355 . S
C300 C302 1.419 . S
C301 C296 1.425 1_565 S
C301 C298 1.409 . S
C301 C299 1.415 1_565 S
C302 H292 0.930 . S
C302 C300 1.419 . S
C302 C303 1.362 . S
C303 H293 0.930 . S
C303 C296 1.409 . S
C303 C302 1.362 . S
H304 C310 0.930 . S
H305 C313 0.927 1_455 S
H306 C314 0.930 . S
H307 C315 0.930 1_455 S
H308 C318 0.930 . S
H309 C319 0.930 . S
C310 H304 0.930 . S
C310 C311 1.355 . S
C310 C312 1.415 . S
C311 C310 1.355 . S
C311 C313 1.423 . S
C312 C310 1.415 . S
C312 C317 1.425 . S
C312 C319 1.409 . S
C313 H305 0.927 1_655 S
C313 C311 1.423 . S
C313 C314 1.362 1_655 S
C314 H306 0.930 . S
C314 C313 1.362 1_455 S
C314 C317 1.409 1_455 S
C315 H307 0.930 1_655 S
C315 C316 1.355 . S
C315 C317 1.415 . S
C316 C315 1.355 . S
C316 C318 1.419 . S
C317 C312 1.425 . S
C317 C314 1.409 1_655 S
C317 C315 1.415 . S
C318 H308 0.930 . S
C318 C316 1.419 . S
C318 C319 1.362 . S
C319 H309 0.930 . S
C319 C312 1.409 . S
C319 C318 1.362 . S
H320 C326 0.930 . S
H321 C329 0.930 . S
H322 C330 0.930 . S
H323 C331 0.930 . S
H324 C334 0.930 . S
H325 C335 0.930 . S
C326 H320 0.930 . S
C326 C327 1.355 . S
C326 C328 1.415 . S
C327 C326 1.355 . S
C327 C329 1.419 . S
C328 C326 1.415 . S
C328 C333 1.425 . S
C328 C335 1.409 . S
C329 H321 0.930 . S
C329 C327 1.419 . S
C329 C330 1.362 . S
C330 H322 0.930 . S
C330 C329 1.362 . S
C330 C333 1.409 . S
C331 H323 0.930 . S
C331 C332 1.355 . S
C331 C333 1.415 . S
C332 C331 1.355 . S
C332 C334 1.419 . S
C333 C328 1.425 . S
C333 C330 1.409 . S
C333 C331 1.415 . S
C334 H324 0.930 . S
C334 C332 1.419 . S
C334 C335 1.362 . S
C335 H325 0.930 . S
C335 C328 1.409 . S
C335 C334 1.362 . S
H336 C342 0.930 . S
H337 C345 0.930 . S
H338 C346 0.930 . S
H339 C347 0.930 . S
H340 C350 0.930 . S
H341 C351 0.930 . S
C342 H336 0.930 . S
C342 C343 1.355 . S
C342 C344 1.415 . S
C343 C342 1.355 . S
C343 C345 1.419 1_455 S
C344 C342 1.415 . S
C344 C349 1.425 1_455 S
C344 C351 1.409 . S
C345 H337 0.930 . S
C345 C343 1.419 1_655 S
C345 C346 1.362 . S
C346 H338 0.930 . S
C346 C345 1.362 . S
C346 C349 1.409 . S
C347 H339 0.930 . S
C347 C348 1.355 1_655 S
C347 C349 1.415 . S
C348 C347 1.355 1_455 S
C348 C350 1.419 . S
C349 C344 1.425 1_655 S
C349 C346 1.409 . S
C349 C347 1.415 . S
C350 H340 0.930 . S
C350 C348 1.419 . S
C350 C351 1.362 . S
C351 H341 0.930 . S
C351 C344 1.409 . S
C351 C350 1.362 . S
H352 C358 0.930 . S
H353 C361 0.930 . S
H354 C362 0.930 . S
H355 C363 0.930 . S
H356 C366 0.930 . S
H357 C367 0.930 . S
C358 H352 0.930 . S
C358 C359 1.355 . S
C358 C360 1.415 . S
C359 C358 1.355 . S
C359 C361 1.419 . S
C360 C358 1.415 . S
C360 C365 1.425 1_565 S
C360 C367 1.409 . S
C361 H353 0.930 . S
C361 C359 1.419 . S
C361 C362 1.362 1_565 S
C362 H354 0.930 . S
C362 C361 1.362 1_545 S
C362 C365 1.409 . S
C363 H355 0.930 . S
C363 C364 1.355 . S
C363 C365 1.415 . S
C364 C363 1.355 . S
C364 C366 1.419 . S
C365 C360 1.425 1_545 S
C365 C362 1.409 . S
C365 C363 1.415 . S
C366 H356 0.930 . S
C366 C364 1.419 . S
C366 C367 1.362 1_545 S
C367 H357 0.930 . S
C367 C360 1.409 . S
C367 C366 1.362 1_565 S
H368 C374 0.930 . S
H369 C377 0.930 . S
H370 C378 0.930 . S
H371 C379 0.930 . S
H372 C382 0.930 . S
H373 C383 0.930 . S
C374 H368 0.930 . S
C374 C375 1.355 . S
C374 C376 1.415 . S
C375 C374 1.355 . S
C375 C377 1.419 1_655 S
C376 C374 1.415 . S
C376 C381 1.425 1_655 S
C376 C383 1.409 . S
C377 H369 0.930 . S
C377 C375 1.419 1_455 S
C377 C378 1.362 . S
C378 H370 0.930 . S
C378 C377 1.362 . S
C378 C381 1.409 . S
C379 H371 0.930 . S
C379 C380 1.354 1_455 S
C379 C381 1.415 . S
C380 C379 1.354 1_655 S
C380 C382 1.421 . S
C381 C376 1.425 1_455 S
C381 C378 1.409 . S
C381 C379 1.415 . S
C382 H372 0.930 . S
C382 C380 1.421 . S
C382 C383 1.362 . S
C383 H373 0.930 . S
C383 C376 1.409 . S
C383 C382 1.362 . S
H384 C390 0.930 . S
H385 C393 0.930 . S
H386 C394 0.930 . S
H387 C395 0.930 . S
H388 C398 0.930 . S
H389 C399 0.930 . S
C390 H384 0.930 . S
C390 C391 1.355 . S
C390 C392 1.415 . S
C391 C390 1.355 . S
C391 C393 1.419 . S
C392 C390 1.415 . S
C392 C397 1.425 . S
C392 C399 1.409 . S
C393 H385 0.930 . S
C393 C391 1.419 . S
C393 C394 1.362 . S
C394 H386 0.930 . S
C394 C393 1.362 . S
C394 C397 1.409 . S
C395 H387 0.930 . S
C395 C396 1.355 . S
C395 C397 1.415 . S
C396 C395 1.355 . S
C396 C398 1.419 . S
C397 C392 1.425 . S
C397 C394 1.409 . S
C397 C395 1.415 . S
C398 H388 0.930 . S
C398 C396 1.419 . S
C398 C399 1.362 . S
C399 H389 0.930 . S
C399 C392 1.409 . S
C399 C398 1.362 . S
H400 C406 0.930 . S
H401 C409 0.930 . S
H402 C410 0.930 . S
H403 C411 0.930 . S
H404 C414 0.930 . S
H405 C415 0.930 . S
C406 H400 0.930 . S
C406 C407 1.355 1_554 S
C406 C408 1.415 . S
C407 C406 1.355 1_556 S
C407 C409 1.419 . S
C408 C406 1.415 . S
C408 C413 1.425 1_554 S
C408 C415 1.409 . S
C409 H401 0.930 . S
C409 C407 1.419 . S
C409 C410 1.362 . S
C410 H402 0.930 . S
C410 C409 1.362 . S
C410 C413 1.409 . S
C411 H403 0.930 . S
C411 C412 1.342 1_556 S
C411 C413 1.415 . S
C412 C411 1.342 1_554 S
C412 C414 1.433 . S
C413 C408 1.425 1_556 S
C413 C410 1.409 . S
C413 C411 1.415 . S
C414 H404 0.930 . S
C414 C412 1.433 . S
C414 C415 1.362 . S
C415 H405 0.930 . S
C415 C408 1.409 . S
C415 C414 1.362 . S
H416 C422 0.930 . S
H417 C425 0.930 . S
H418 C426 0.930 . S
H419 C427 0.930 . S
H420 C430 0.930 . S
H421 C431 0.930 . S
C422 H416 0.930 . S
C422 C423 1.355 . S
C422 C424 1.415 . S
C423 C422 1.355 . S
C423 C425 1.419 1_554 S
C424 C422 1.415 . S
C424 C429 1.425 1_554 S
C424 C431 1.409 . S
C425 H417 0.930 . S
C425 C423 1.419 1_556 S
C425 C426 1.362 . S
C426 H418 0.930 . S
C426 C425 1.362 . S
C426 C429 1.409 . S
C427 H419 0.930 . S
C427 C428 1.355 1_556 S
C427 C429 1.415 . S
C428 C427 1.355 1_554 S
C428 C430 1.419 . S
C429 C424 1.425 1_556 S
C429 C426 1.409 . S
C429 C427 1.415 . S
C430 H420 0.930 . S
C430 C428 1.419 . S
C430 C431 1.362 . S
C431 H421 0.930 . S
C431 C424 1.409 . S
C431 C430 1.362 . S
H432 C438 0.930 . S
H433 C441 0.930 . S
H434 C442 0.930 . S
H435 C443 0.930 . S
H436 C446 0.930 . S
H437 C447 0.932 . S
C438 H432 0.930 . S
C438 C439 1.355 . S
C438 C440 1.415 . S
C439 C438 1.355 . S
C439 C441 1.419 . S
C440 C438 1.415 . S
C440 C445 1.425 . S
C440 C447 1.407 1_554 S
C441 H433 0.930 . S
C441 C439 1.419 . S
C441 C442 1.362 . S
C442 H434 0.930 . S
C442 C441 1.362 . S
C442 C445 1.409 . S
C443 H435 0.930 . S
C443 C444 1.355 . S
C443 C445 1.415 . S
C444 C443 1.355 . S
C444 C446 1.419 1_554 S
C445 C440 1.425 . S
C445 C442 1.409 . S
C445 C443 1.415 . S
C446 H436 0.930 . S
C446 C444 1.419 1_556 S
C446 C447 1.363 . S
C447 H437 0.932 . S
C447 C440 1.407 1_556 S
C447 C446 1.363 . S
H448 C454 0.930 . S
H449 C457 0.930 . S
H450 C458 0.930 . S
H451 C459 0.930 . S
H452 C462 0.930 . S
H453 C463 0.930 . S
C454 H448 0.930 . S
C454 C455 1.355 . S
C454 C456 1.415 . S
C455 C454 1.355 . S
C455 C457 1.419 . S
C456 C454 1.415 . S
C456 C461 1.425 . S
C456 C463 1.409 1_556 S
C457 H449 0.930 . S
C457 C455 1.419 . S
C457 C458 1.362 . S
C458 H450 0.930 . S
C458 C457 1.362 . S
C458 C461 1.409 . S
C459 H451 0.930 . S
C459 C460 1.355 1_556 S
C459 C461 1.415 . S
C460 C459 1.355 1_554 S
C460 C462 1.419 . S
C461 C456 1.425 . S
C461 C458 1.409 . S
C461 C459 1.415 . S
C462 H452 0.930 . S
C462 C460 1.419 . S
C462 C463 1.362 . S
C463 H453 0.930 . S
C463 C456 1.409 1_554 S
C463 C462 1.362 . S
C284 C223 1.734 . S
C279 C39 1.573 . S
C300 C230 1.778 . S
C295 C113 1.676 . S
C316 C225 2.042 . S
C311 C69 2.029 . S
C332 C231 0.853 . S
C327 C125 0.847 . S
C343 C63 1.566 . S
C348 C224 1.699 . S
C364 C233 1.704 . S
C359 C137 1.564 . S
C375 C51 0.827 . S
C380 C222 0.838 1_655 S
C391 C143 2.058 . S
C396 C232 2.062 . S
C407 C187 1.590 . S
C412 C227 1.742 . S
C423 C217 2.046 . S
C428 C226 2.053 1_554 S
C444 C229 0.856 . S
C439 C199 0.859 . S
C460 C228 1.703 . S
C455 C211 1.569 . S
