# Generated by pormake.
# Topology zzz, (3,6)-cn, num edge types: 1
# Building blocks:
#     Node 0, Type 0, BuildingBlock: MIDCAF_clean_linker_0, # of connection points: 3
#     Node 1, Type 0, BuildingBlock: MIDCAF_clean_linker_0, # of connection points: 3
#     Node 2, Type 0, BuildingBlock: MIDCAF_clean_linker_0, # of connection points: 3
#     Node 3, Type 0, BuildingBlock: MIDCAF_clean_linker_0, # of connection points: 3
#     Node 4, Type 0, BuildingBlock: MIDCAF_clean_linker_0, # of connection points: 3
#     Node 5, Type 0, BuildingBlock: MIDCAF_clean_linker_0, # of connection points: 3
#     Node 6, Type 0, BuildingBlock: MIDCAF_clean_linker_0, # of connection points: 3
#     Node 7, Type 0, BuildingBlock: MIDCAF_clean_linker_0, # of connection points: 3
#     Node 8, Type 1, BuildingBlock: KUMJIN_clean_sbu_0, # of connection points: 6
#     Node 9, Type 1, BuildingBlock: KUMJIN_clean_sbu_0, # of connection points: 6
#     Node 10, Type 1, BuildingBlock: KUMJIN_clean_sbu_0, # of connection points: 6
#     Node 11, Type 1, BuildingBlock: KUMJIN_clean_sbu_0, # of connection points: 6
#     Edge 12, Type (0, 1), BuildingBlock: XUDNAN_clean_linker_2, # of connection points: 2
#     Edge 13, Type (0, 1), BuildingBlock: XUDNAN_clean_linker_2, # of connection points: 2
#     Edge 14, Type (0, 1), BuildingBlock: XUDNAN_clean_linker_2, # of connection points: 2
#     Edge 15, Type (0, 1), BuildingBlock: XUDNAN_clean_linker_2, # of connection points: 2
#     Edge 16, Type (0, 1), BuildingBlock: XUDNAN_clean_linker_2, # of connection points: 2
#     Edge 17, Type (0, 1), BuildingBlock: XUDNAN_clean_linker_2, # of connection points: 2
#     Edge 18, Type (0, 1), BuildingBlock: XUDNAN_clean_linker_2, # of connection points: 2
#     Edge 19, Type (0, 1), BuildingBlock: XUDNAN_clean_linker_2, # of connection points: 2
#     Edge 20, Type (0, 1), BuildingBlock: XUDNAN_clean_linker_2, # of connection points: 2
#     Edge 21, Type (0, 1), BuildingBlock: XUDNAN_clean_linker_2, # of connection points: 2
#     Edge 22, Type (0, 1), BuildingBlock: XUDNAN_clean_linker_2, # of connection points: 2
#     Edge 23, Type (0, 1), BuildingBlock: XUDNAN_clean_linker_2, # of connection points: 2
#     Edge 24, Type (0, 1), BuildingBlock: XUDNAN_clean_linker_2, # of connection points: 2
#     Edge 25, Type (0, 1), BuildingBlock: XUDNAN_clean_linker_2, # of connection points: 2
#     Edge 26, Type (0, 1), BuildingBlock: XUDNAN_clean_linker_2, # of connection points: 2
#     Edge 27, Type (0, 1), BuildingBlock: XUDNAN_clean_linker_2, # of connection points: 2
#     Edge 28, Type (0, 1), BuildingBlock: XUDNAN_clean_linker_2, # of connection points: 2
#     Edge 29, Type (0, 1), BuildingBlock: XUDNAN_clean_linker_2, # of connection points: 2
#     Edge 30, Type (0, 1), BuildingBlock: XUDNAN_clean_linker_2, # of connection points: 2
#     Edge 31, Type (0, 1), BuildingBlock: XUDNAN_clean_linker_2, # of connection points: 2
#     Edge 32, Type (0, 1), BuildingBlock: XUDNAN_clean_linker_2, # of connection points: 2
#     Edge 33, Type (0, 1), BuildingBlock: XUDNAN_clean_linker_2, # of connection points: 2
#     Edge 34, Type (0, 1), BuildingBlock: XUDNAN_clean_linker_2, # of connection points: 2
#     Edge 35, Type (0, 1), BuildingBlock: XUDNAN_clean_linker_2, # of connection points: 2
# Relax obj value: 0.300
# Max RMSD: 0.226
# Mean RMSD: 0.213
data_MOF--net-zzz--node1-KUMJIN_clean_sbu_0--node2-MIDCAF_clean_linker_0--edge1-XUDNAN_clean_linker_2
_symmetry_space_group_name_H-M    P1
_symmetry_Int_Tables_number       1
_symmetry_cell_setting            triclinic
loop_
_symmetry_equiv_pos_as_xyz
'x, y, z'
_cell_length_a     56.992849
_cell_length_b     56.93151
_cell_length_c     20.001579
_cell_angle_alpha  90.882923
_cell_angle_beta   90.142797
_cell_angle_gamma 89.972631
loop_
_atom_site_label
_atom_site_type_symbol
_atom_site_fract_x
_atom_site_fract_y
_atom_site_fract_z
_atom_type_partial_charge
C0 C 0.79176 0.54452 0.37299 0.0
C1 C 0.81164 0.53109 0.35484 0.0
C2 C 0.81359 0.52341 0.28782 0.0
C3 C 0.79716 0.53033 0.23967 0.0
H4 H 0.70671 0.59969 0.07813 0.0
H5 H 0.6714 0.59422 0.01165 0.0
H6 H 0.6754 0.51934 0.04048 0.0
H7 H 0.71098 0.525 0.10923 0.0
H8 H 0.77546 0.59106 0.98744 0.0
H9 H 0.80968 0.60459 0.92813 0.0
H10 H 0.8382 0.63299 0.11321 0.0
H11 H 0.8045 0.61751 0.17306 0.0
H12 H 0.7613 0.56337 0.33903 0.0
H13 H 0.78969 0.55097 0.42384 0.0
H14 H 0.82835 0.51275 0.2719 0.0
H15 H 0.80017 0.52552 0.18776 0.0
N16 N 0.74445 0.55395 0.18009 0.0
N17 N 0.74958 0.5831 0.09881 0.0
N18 N 0.77982 0.57522 0.17414 0.0
C19 C 0.73574 0.56666 0.12774 0.0
C20 C 0.77149 0.58757 0.12202 0.0
C21 C 0.76663 0.55853 0.20362 0.0
C22 C 0.71188 0.56277 0.09858 0.0
C23 C 0.69994 0.58203 0.07129 0.0
C24 C 0.67972 0.57887 0.03255 0.0
C25 C 0.67081 0.55627 0.0189 0.0
C26 C 0.6818 0.537 0.04969 0.0
C27 C 0.70215 0.54022 0.08928 0.0
C28 C 0.78771 0.6027 0.08491 0.0
C29 C 0.7887 0.60087 0.01503 0.0
C30 C 0.80843 0.60885 0.9809 0.0
C31 C 0.82735 0.61927 0.01599 0.0
C32 C 0.82451 0.6242 0.08476 0.0
C33 C 0.80512 0.61552 0.11913 0.0
C34 C 0.77815 0.5449 0.25707 0.0
C35 C 0.77529 0.55146 0.32455 0.0
C36 C 0.95976 0.82496 0.31197 0.0
C37 C 0.98124 0.82465 0.34663 0.0
C38 C 0.99627 0.8052 0.33578 0.0
C39 C 0.99058 0.78735 0.28874 0.0
H40 H 0.93254 0.70647 0.11288 0.0
H41 H 0.93507 0.66926 0.05071 0.0
H42 H 0.01033 0.67642 0.04153 0.0
H43 H 0.00763 0.7138 0.10402 0.0
H44 H 0.96499 0.75805 0.94488 0.0
H45 H 0.97011 0.78124 0.84596 0.0
H46 H 0.94937 0.84365 0.95677 0.0
H47 H 0.94543 0.82044 0.05747 0.0
H48 H 0.93828 0.80913 0.23551 0.0
H49 H 0.94782 0.83963 0.31828 0.0
H50 H 0.01291 0.80424 0.36185 0.0
H51 H 1.00313 0.77345 0.27887 0.0
N52 N 0.97015 0.75032 0.18499 0.0
N53 N 0.96143 0.75082 0.06979 0.0
N54 N 0.96058 0.78582 0.13188 0.0
C55 C 0.96715 0.7386 0.12498 0.0
C56 C 0.95822 0.77432 0.07244 0.0
C57 C 0.96645 0.7742 0.18841 0.0
C58 C 0.96993 0.71282 0.11519 0.0
C59 C 0.94973 0.6995 0.10067 0.0
C60 C 0.95116 0.67837 0.06375 0.0
C61 C 0.97287 0.66996 0.03989 0.0
C62 C 0.99332 0.68225 0.05924 0.0
C63 C 0.99183 0.70356 0.09593 0.0
C64 C 0.9555 0.78751 0.0097 0.0
C65 C 0.96102 0.77664 0.94812 0.0
C66 C 0.96376 0.78998 0.89081 0.0
C67 C 0.96071 0.81448 0.89351 0.0
C68 C 0.95259 0.82492 0.95341 0.0
C69 C 0.95023 0.81161 0.01113 0.0
C70 C 0.96988 0.78871 0.25065 0.0
C71 C 0.9543 0.80742 0.26432 0.0
C72 C 0.69538 0.95932 0.30931 0.0
C73 C 0.69602 0.98067 0.34554 0.0
C74 C 0.71595 0.99518 0.33765 0.0
C75 C 0.73396 0.98909 0.29225 0.0
H76 H 0.82558 0.96211 0.19765 0.0
H77 H 0.86451 0.96881 0.14942 0.0
H78 H 0.83196 1.00353 0.98213 0.0
H79 H 0.7939 0.99796 0.03233 0.0
H80 H 0.76896 0.94836 0.95768 0.0
H81 H 0.74563 0.94797 0.85704 0.0
H82 H 0.68535 0.92515 0.96954 0.0
H83 H 0.70852 0.92698 0.07196 0.0
H84 H 0.71139 0.93713 0.23532 0.0
H85 H 0.68044 0.94769 0.31309 0.0
H86 H 0.71739 0.0116 0.36537 0.0
H87 H 0.74839 1.00117 0.28532 0.0
N88 N 0.77062 0.97296 0.19013 0.0
N89 N 0.77367 0.95686 0.08139 0.0
N90 N 0.73941 0.95123 0.14217 0.0
C91 C 0.78337 0.96918 0.13278 0.0
C92 C 0.75187 0.94777 0.08527 0.0
C93 C 0.74844 0.96358 0.19509 0.0
C94 C 0.80668 0.97982 0.1194 0.0
C95 C 0.82701 0.97221 0.15238 0.0
C96 C 0.84931 0.97559 0.12355 0.0
C97 C 0.85175 0.98636 0.06056 0.0
C98 C 0.83133 0.99543 0.03066 0.0
C99 C 0.80928 0.99228 0.05971 0.0
C100 C 0.74028 0.93889 0.02352 0.0
C101 C 0.75089 0.94261 0.9611 0.0
C102 C 0.73749 0.94212 0.90271 0.0
C103 C 0.7133 0.93751 0.9055 0.0
C104 C 0.70375 0.92974 0.96618 0.0
C105 C 0.71704 0.93072 0.02496 0.0
C106 C 0.73245 0.96839 0.2532 0.0
C107 C 0.71321 0.95333 0.26402 0.0
C108 C 0.62882 0.70127 0.06515 0.0
C109 C 0.62252 0.69863 0.99735 0.0
C110 C 0.61077 0.71734 0.96631 0.0
C111 C 0.60263 0.73649 1.0041 0.0
H112 H 0.531 0.78031 0.02441 0.0
H113 H 0.52062 0.8116 0.94754 0.0
H114 H 0.55982 0.8613 0.06869 0.0
H115 H 0.56994 0.82973 0.14631 0.0
H116 H 0.52061 0.74984 0.25521 0.0
H117 H 0.50708 0.72209 0.33935 0.0
H118 H 0.57909 0.70582 0.38833 0.0
H119 H 0.59239 0.73285 0.3035 0.0
H120 H 0.62345 0.72053 0.15663 0.0
H121 H 0.63853 0.68761 0.09028 0.0
H122 H 0.60553 0.71616 0.91432 0.0
H123 H 0.59172 0.74939 0.97965 0.0
N124 N 0.57971 0.7713 0.09011 0.0
N125 N 0.55522 0.77435 0.18469 0.0
N126 N 0.58354 0.74438 0.17631 0.0
C127 C 0.56257 0.78278 0.1246 0.0
C128 C 0.56604 0.75512 0.21109 0.0
C129 C 0.59043 0.7522 0.11588 0.0
C130 C 0.55094 0.80271 0.09169 0.0
C131 C 0.53659 0.79811 0.03598 0.0
C132 C 0.5309 0.816 0.99161 0.0
C133 C 0.53969 0.8389 1.00138 0.0
C134 C 0.55266 0.8439 0.05991 0.0
C135 C 0.55837 0.82589 0.10451 0.0
C136 C 0.55756 0.74346 0.27244 0.0
C137 C 0.53348 0.74081 0.28538 0.0
C138 C 0.52576 0.72479 0.33348 0.0
C139 C 0.54197 0.71122 0.36981 0.0
C140 C 0.56604 0.71535 0.36012 0.0
C141 C 0.5737 0.7311 0.31193 0.0
C142 C 0.60577 0.73715 0.07374 0.0
C143 C 0.62024 0.72019 0.10321 0.0
C144 C 0.21243 0.46752 0.93597 0.0
C145 C 0.20535 0.49114 0.93301 0.0
C146 C 0.2176 0.50778 0.97305 0.0
C147 C 0.23535 0.50067 0.01775 0.0
H148 H 0.30153 0.51366 0.17274 0.0
H149 H 0.3364 0.52752 0.23282 0.0
H150 H 0.35765 0.45551 0.2637 0.0
H151 H 0.32218 0.44205 0.20761 0.0
H152 H 0.26058 0.43187 0.30414 0.0
H153 H 0.23028 0.41631 0.3771 0.0
H154 H 0.18812 0.39845 0.20368 0.0
H155 H 0.21847 0.41312 0.13154 0.0
H156 H 0.23394 0.44192 0.98383 0.0
H157 H 0.20403 0.45423 0.90488 0.0
H158 H 0.21268 0.52614 0.97255 0.0
H159 H 0.24333 0.51361 0.05089 0.0
N160 N 0.27527 0.47732 0.10428 0.0
N161 N 0.27577 0.44998 0.1919 0.0
N162 N 0.24488 0.44975 0.11518 0.0
C163 C 0.28622 0.46788 0.15895 0.0
C164 C 0.25507 0.44088 0.17046 0.0
C165 C 0.25459 0.46778 0.08164 0.0
C166 C 0.30906 0.47679 0.18541 0.0
C167 C 0.31387 0.50089 0.19169 0.0
C168 C 0.33399 0.50877 0.22633 0.0
C169 C 0.3501 0.49273 0.25444 0.0
C170 C 0.34559 0.46858 0.24513 0.0
C171 C 0.3253 0.46079 0.21193 0.0
C172 C 0.24149 0.42453 0.21219 0.0
C173 C 0.24528 0.42368 0.28159 0.0
C174 C 0.22785 0.41485 0.32348 0.0
C175 C 0.20638 0.40685 0.29656 0.0
C176 C 0.20427 0.40454 0.22667 0.0
C177 C 0.22166 0.41327 0.18498 0.0
C178 C 0.24115 0.4768 0.02345 0.0
C179 C 0.2299 0.46047 0.98065 0.0
C180 C 0.05852 0.2089 0.93441 0.0
C181 C 0.03639 0.19799 0.92899 0.0
C182 C 0.01809 0.2069 0.96969 0.0
C183 C 0.02214 0.22552 0.01592 0.0
H184 H 0.02895 0.28527 0.28504 0.0
H185 H 0.02286 0.3214 0.34956 0.0
H186 H 0.03644 0.36213 0.17399 0.0
H187 H 0.04289 0.32548 0.10876 0.0
H188 H 0.08455 0.26168 0.30967 0.0
H189 H 0.1 0.2351 0.39066 0.0
H190 H 0.1221 0.18766 0.23173 0.0
H191 H 0.10512 0.21405 0.15004 0.0
H192 H 0.08015 0.23418 0.98535 0.0
H193 H 0.07328 0.20251 0.90546 0.0
H194 H 1.00076 0.19917 0.96685 0.0
H195 H 0.00812 0.23103 0.04909 0.0
N196 N 0.04026 0.26991 0.10404 0.0
N197 N 0.06516 0.27146 0.19835 0.0
N198 N 0.06931 0.24097 0.12032 0.0
C199 C 0.04751 0.281 0.16207 0.0
C200 C 0.07624 0.25162 0.17792 0.0
C201 C 0.0515 0.24971 0.08301 0.0
C202 C 0.03614 0.3024 0.19145 0.0
C203 C 0.02974 0.30186 0.25931 0.0
C204 C 0.02645 0.32261 0.29655 0.0
C205 C 0.02937 0.34468 0.26721 0.0
C206 C 0.03391 0.34539 0.19796 0.0
C207 C 0.0374 0.32441 0.16041 0.0
C208 C 0.09259 0.23949 0.22355 0.0
C209 C 0.09325 0.24591 0.29155 0.0
C210 C 0.10248 0.23057 0.33844 0.0
C211 C 0.11158 0.20854 0.31832 0.0
C212 C 0.11434 0.20396 0.24939 0.0
C213 C 0.10465 0.21915 0.20242 0.0
C214 C 0.0446 0.23558 0.02268 0.0
C215 C 0.06251 0.22726 0.98035 0.0
C216 C 0.32231 0.02701 0.96248 0.0
C217 C 0.31963 0.02915 0.8928 0.0
C218 C 0.29721 0.03548 0.86842 0.0
C219 C 0.2788 0.04143 0.91242 0.0
H220 H 0.19798 0.03454 0.06024 0.0
H221 H 0.16127 0.02721 0.12112 0.0
H222 H 0.19014 0.0622 0.29583 0.0
H223 H 0.22634 0.0691 0.23612 0.0
H224 H 0.26816 0.10117 0.22788 0.0
H225 H 0.30198 0.11837 0.28102 0.0
H226 H 0.32794 0.14012 0.08834 0.0
H227 H 0.29456 0.12081 0.03472 0.0
H228 H 0.30727 0.03282 0.05954 0.0
H229 H 0.33915 0.02252 0.9839 0.0
H230 H 0.29412 0.03689 0.81522 0.0
H231 H 0.26253 0.04814 0.89215 0.0
N232 N 0.24706 0.04713 0.05658 0.0
N233 N 0.24628 0.08112 0.12548 0.0
N234 N 0.27638 0.07607 0.04789 0.0
C235 C 0.23636 0.06043 0.10572 0.0
C236 C 0.266 0.08922 0.09624 0.0
C237 C 0.26726 0.05519 0.02749 0.0
C238 C 0.21512 0.05252 0.14295 0.0
C239 C 0.19657 0.0402 0.11201 0.0
C240 C 0.17544 0.03624 0.14683 0.0
C241 C 0.17255 0.04421 0.21364 0.0
C242 C 0.19159 0.05556 0.24498 0.0
C243 C 0.21242 0.05969 0.21027 0.0
C244 C 0.27938 0.1087 0.1271 0.0
C245 C 0.28058 0.11045 0.19698 0.0
C246 C 0.3002 0.12057 0.22765 0.0
C247 C 0.31872 0.12945 0.1887 0.0
C248 C 0.31477 0.1322 0.1197 0.0
C249 C 0.29552 0.12133 0.08884 0.0
C250 C 0.28217 0.04079 0.9819 0.0
C251 C 0.30389 0.03279 1.00619 0.0
C252 C 0.3948 0.3229 0.1659 0.0
C253 C 0.40673 0.32943 0.22526 0.0
C254 C 0.42083 0.31227 0.25614 0.0
C255 C 0.42555 0.29091 0.22393 0.0
H256 H 0.43156 0.2084 0.18987 0.0
H257 H 0.44655 0.17548 0.2525 0.0
H258 H 0.51389 0.18282 0.15653 0.0
H259 H 0.49874 0.21633 0.09353 0.0
H260 H 0.50062 0.27725 0.99947 0.0
H261 H 0.51455 0.30735 0.92359 0.0
H262 H 0.44498 0.31239 0.83808 0.0
H263 H 0.43107 0.28329 0.91669 0.0
H264 H 0.39317 0.29862 0.08286 0.0
H265 H 0.38265 0.33475 0.14209 0.0
H266 H 0.43044 0.31589 0.30173 0.0
H267 H 0.43835 0.27926 0.24608 0.0
N268 N 0.43852 0.24972 0.14043 0.0
N269 N 0.46388 0.24581 0.0481 0.0
N270 N 0.43789 0.27782 0.05672 0.0
C271 C 0.45508 0.23717 0.10647 0.0
C272 C 0.4548 0.26604 0.02251 0.0
C273 C 0.42982 0.26996 0.11578 0.0
C274 C 0.46399 0.21518 0.13691 0.0
C275 C 0.44952 0.20292 0.18137 0.0
C276 C 0.45808 0.18384 0.21708 0.0
C277 C 0.48147 0.17645 0.20989 0.0
C278 C 0.49583 0.18819 0.16374 0.0
C279 C 0.48712 0.20725 0.1272 0.0
C280 C 0.46483 0.2778 0.96359 0.0
C281 C 0.48859 0.28422 0.96275 0.0
C282 C 0.49649 0.30166 0.91925 0.0
C283 C 0.48084 0.31286 0.87504 0.0
C284 C 0.45748 0.30485 0.87248 0.0
C285 C 0.44955 0.28778 0.91669 0.0
C286 C 0.41691 0.28648 0.1594 0.0
C287 C 0.40039 0.30191 0.13229 0.0
Eu288 Eu 0.03521 1.00354 0.67355 0.0
C289 C 0.93871 0.99243 0.53513 0.0
C290 C 0.94878 0.96851 0.43845 0.0
C291 C 0.90908 0.96756 0.48206 0.0
C292 C 0.95514 0.98482 0.48929 0.0
C293 C 0.9154 0.98406 0.53175 0.0
C294 C 0.9257 0.95996 0.43515 0.0
C295 C 0.90556 0.01078 0.62214 0.0
N296 N 0.94518 0.00891 0.58107 0.0
C297 C 0.92871 0.01884 0.62255 0.0
C298 C 0.8989 0.99313 0.57692 0.0
Eu299 Eu 0.9846 0.02285 0.57848 0.0
N300 N 0.97711 0.99394 0.49289 0.0
C301 C 0.99353 0.98739 0.44623 0.0
C302 C 0.96567 0.96155 0.39169 0.0
C303 C 0.98814 0.97102 0.3957 0.0
H304 H 0.93361 0.03296 0.65654 0.0
H305 H 1.0014 0.96571 0.35989 0.0
H306 H 0.9205 0.94751 0.39635 0.0
H307 H 0.89279 0.01843 0.656 0.0
H308 H 0.01119 0.99396 0.44816 0.0
H309 H 0.0255 0.9554 0.90665 0.0
H310 H 0.96152 0.949 0.35214 0.0
H311 H 0.07423 0.04915 0.65432 0.0
H312 H 0.02794 0.96 0.78417 0.0
H313 H 0.09011 0.08163 0.72154 0.0
H314 H 0.89129 0.96095 0.47865 0.0
H315 H 0.03322 0.98945 0.98193 0.0
H316 H 0.04695 0.03123 0.99539 0.0
H317 H 0.88086 0.98712 0.57597 0.0
H318 H 0.06436 0.06612 0.9442 0.0
N319 N 0.03613 0.99645 0.79027 0.0
C320 C 0.03153 0.97489 0.81672 0.0
C321 C 0.03425 0.99155 0.92827 0.0
C322 C 0.04106 0.01297 0.90092 0.0
C323 C 0.03001 0.97226 0.88598 0.0
C324 C 0.04212 0.01479 0.83073 0.0
H325 H 0.08112 0.08486 0.84215 0.0
N326 N 0.0546 0.03435 0.73443 0.0
C327 C 0.07897 0.0687 0.74467 0.0
C328 C 0.05166 0.03446 0.80181 0.0
C329 C 0.06953 0.05021 0.70633 0.0
C330 C 0.07382 0.0705 0.81265 0.0
C331 C 0.06073 0.05279 0.84259 0.0
O332 O 0.05995 0.98967 0.59957 0.0
O333 O 0.00978 0.99321 0.5921 0.0
O334 O 0.97022 1.00562 0.67192 0.0
O335 O 1.00287 1.00037 0.74103 0.0
O336 O 0.01524 0.96903 0.66469 0.0
O337 O 0.06636 0.98348 0.70306 0.0
O338 O 0.96018 0.05191 0.56344 0.0
O339 O 0.01438 0.03486 0.64509 0.0
O340 O 0.04776 0.02775 0.59124 0.0
O341 O 0.01729 0.02678 0.51448 0.0
O342 O 0.98164 0.04732 0.66944 0.0
O343 O 0.98871 0.04701 0.49514 0.0
C344 C 1.00442 0.97251 0.60912 0.0
C345 C 0.07684 0.9537 0.62511 0.0
C346 C 0.06363 0.91298 0.62833 0.0
C347 C 0.06192 0.93648 0.65012 0.0
C348 C 0.08095 0.90682 0.58131 0.0
C349 C 0.09405 0.94735 0.57829 0.0
C350 C 0.09615 0.92394 0.55682 0.0
C351 C 0.97991 1.00041 0.73 0.0
C352 C 0.0727 0.97852 0.64216 0.0
C353 C 0.05788 0.05201 0.91224 0.0
C354 C 0.04801 0.03212 0.94141 0.0
C355 C 1.00349 0.04822 0.6855 0.0
C356 C 0.97856 0.08612 0.52659 0.0
C357 C 1.00185 0.09395 0.52037 0.0
C358 C 0.00773 0.11747 0.53474 0.0
C359 C 0.99005 0.13309 0.55606 0.0
C360 C 0.96115 0.1021 0.54716 0.0
C361 C 0.96692 0.12541 0.56207 0.0
C362 C 0.03963 0.03016 0.52971 0.0
C363 C 0.97235 0.06117 0.51613 0.0
H364 H 0.04837 0.9416 0.68506 0.0
H365 H 0.08288 0.88882 0.56391 0.0
H366 H 0.10552 0.96053 0.55753 0.0
H367 H 0.10942 0.9191 0.52052 0.0
H368 H 0.01551 0.08173 0.50529 0.0
H369 H 0.99397 0.15139 0.56653 0.0
H370 H 0.94311 0.09645 0.55257 0.0
H371 H 0.9534 0.13759 0.57811 0.0
Eu372 Eu 0.51872 0.02894 0.68091 0.0
C373 C 0.52205 0.94527 0.48217 0.0
C374 C 0.54993 0.95853 0.39993 0.0
C375 C 0.54492 0.91674 0.41811 0.0
C376 C 0.533 0.96341 0.44966 0.0
C377 C 0.52766 0.92169 0.46624 0.0
C378 C 0.55593 0.93513 0.38472 0.0
C379 C 0.49718 0.90958 0.54197 0.0
N380 N 0.50513 0.95064 0.52727 0.0
C381 C 0.49207 0.9332 0.55539 0.0
C382 C 0.51523 0.90378 0.49766 0.0
Eu383 Eu 0.49702 0.99106 0.54787 0.0
N384 N 0.52639 0.98577 0.46454 0.0
C385 C 0.53562 1.00407 0.42982 0.0
C386 C 0.55994 0.97729 0.36591 0.0
C387 C 0.55268 1.00015 0.38078 0.0
H388 H 0.4781 0.93761 0.58986 0.0
H389 H 0.5602 0.01481 0.35448 0.0
H390 H 0.56889 0.93105 0.34672 0.0
H391 H 0.48718 0.89589 0.56567 0.0
H392 H 0.53042 0.02187 0.44039 0.0
H393 H 0.52972 0.99899 0.93814 0.0
H394 H 0.57304 0.97431 0.32752 0.0
H395 H 0.48109 0.07027 0.62433 0.0
H396 H 0.54088 1.00475 0.82037 0.0
H397 H 0.44688 0.09251 0.66319 0.0
H398 H 0.54952 0.89876 0.40532 0.0
H399 H 0.49251 0.01556 0.98121 0.0
H400 H 0.45717 0.04079 0.9617 0.0
H401 H 0.51906 0.88547 0.48689 0.0
H402 H 0.43491 0.06663 0.88729 0.0
N403 N 0.50959 0.02322 0.7957 0.0
C404 C 0.52439 0.01179 0.8384 0.0
C405 C 0.49719 0.01792 0.92927 0.0
C406 C 0.48302 0.03117 0.88685 0.0
C407 C 0.51819 0.00854 0.90519 0.0
C408 C 0.48988 0.03369 0.81954 0.0
H409 H 0.43123 0.08638 0.77673 0.0
N410 N 0.48518 0.05108 0.71431 0.0
C411 C 0.45523 0.08005 0.69593 0.0
C412 C 0.47744 0.04827 0.77782 0.0
C413 C 0.47476 0.06723 0.67396 0.0
C414 C 0.44643 0.07652 0.75995 0.0
C415 C 0.45769 0.06069 0.80209 0.0
O416 O 0.53363 0.06376 0.66298 0.0
O417 O 0.52835 0.01099 0.58461 0.0
O418 O 0.51462 0.96746 0.62322 0.0
O419 O 0.51785 0.99101 0.71935 0.0
O420 O 0.55143 1.00691 0.66281 0.0
O421 O 0.54629 0.04342 0.74512 0.0
O422 O 0.46378 0.97453 0.52102 0.0
O423 O 0.48615 0.01585 0.63122 0.0
O424 O 0.51625 0.05099 0.58778 0.0
O425 O 0.49621 0.02841 0.50818 0.0
O426 O 0.47156 0.98273 0.63119 0.0
O427 O 0.4778 1.00134 0.45797 0.0
C428 C 0.54811 1.0023 0.60009 0.0
C429 C 0.57452 0.06349 0.6808 0.0
C430 C 0.61403 0.04722 0.66812 0.0
C431 C 0.59118 0.04603 0.69387 0.0
C432 C 0.61993 0.06589 0.62629 0.0
C433 C 0.58076 0.08219 0.63956 0.0
C434 C 0.60331 0.08326 0.61214 0.0
C435 C 0.5183 0.97024 0.6882 0.0
C436 C 0.55034 0.06113 0.70647 0.0
C437 C 0.45018 0.05744 0.86807 0.0
C438 C 0.46283 0.0427 0.91039 0.0
C439 C 0.47136 1.00296 0.66059 0.0
C440 C 0.43661 1.00126 0.47589 0.0
C441 C 0.43263 0.0211 0.4366 0.0
C442 C 0.41126 0.03341 0.44049 0.0
C443 C 0.39387 0.02567 0.48482 0.0
C444 C 0.41884 0.99371 0.51933 0.0
C445 C 0.3977 1.00595 0.52389 0.0
C446 C 0.50596 0.04831 0.52894 0.0
C447 C 0.45942 0.98889 0.47282 0.0
H448 H 0.58628 0.03115 0.72382 0.0
H449 H 0.63741 0.06733 0.60571 0.0
H450 H 0.56812 0.09575 0.62784 0.0
H451 H 0.60797 0.09766 0.58008 0.0
H452 H 0.44628 0.02706 0.40328 0.0
H453 H 0.37706 0.03447 0.48823 0.0
H454 H 0.4213 0.97849 0.55039 0.0
H455 H 0.38418 1.00008 0.5577 0.0
Eu456 Eu 0.53407 0.50765 0.59047 0.0
C457 C 0.43403 0.49793 0.71044 0.0
C458 C 0.40721 0.51703 0.63448 0.0
C459 C 0.39308 0.48589 0.70556 0.0
C460 C 0.43003 0.51415 0.66083 0.0
C461 C 0.41541 0.48415 0.7348 0.0
C462 C 0.38896 0.50239 0.65575 0.0
C463 C 0.4411 0.47111 0.82295 0.0
N464 N 0.45555 0.49723 0.73943 0.0
C465 C 0.45904 0.48485 0.79673 0.0
C466 C 0.41936 0.47022 0.79078 0.0
Eu467 Eu 0.4843 0.5232 0.69797 0.0
N468 N 0.4478 0.52865 0.6431 0.0
C469 C 0.44338 0.54754 0.60362 0.0
C470 C 0.40313 0.53528 0.58987 0.0
C471 C 0.42122 0.55078 0.57511 0.0
H472 H 0.47588 0.48551 0.82177 0.0
H473 H 0.41809 0.56537 0.54219 0.0
H474 H 0.3714 0.50422 0.63553 0.0
H475 H 0.444 0.46143 0.86833 0.0
H476 H 0.45695 0.56003 0.59255 0.0
H477 H 0.59859 0.47525 0.77437 0.0
H478 H 0.38589 0.53802 0.56838 0.0
H479 H 0.5455 0.53706 0.45048 0.0
H480 H 0.56118 0.47591 0.71696 0.0
H481 H 0.57755 0.56042 0.40219 0.0
H482 H 0.37862 0.47531 0.72319 0.0
H483 H 0.63025 0.50238 0.74254 0.0
H484 H 0.64499 0.53302 0.66532 0.0
H485 H 0.40544 0.45962 0.8114 0.0
H486 H 0.63923 0.55651 0.56459 0.0
N487 N 0.5703 0.50369 0.65051 0.0
C488 C 0.57437 0.48789 0.70033 0.0
C489 C 0.61367 0.50274 0.71596 0.0
C490 C 0.61013 0.51784 0.6625 0.0
C491 C 0.59586 0.48741 0.73404 0.0
C492 C 0.58811 0.51776 0.62972 0.0
H493 H 0.61442 0.56637 0.4654 0.0
N494 N 0.56403 0.52995 0.54046 0.0
C495 C 0.57965 0.55274 0.45097 0.0
C496 C 0.58482 0.53133 0.57342 0.0
C497 C 0.56157 0.53945 0.47845 0.0
C498 C 0.60046 0.556 0.48675 0.0
C499 C 0.60347 0.54484 0.54803 0.0
O500 O 0.55543 0.48908 0.51592 0.0
O501 O 0.49475 0.51009 0.59599 0.0
O502 O 0.4863 0.48312 0.68711 0.0
O503 O 0.52601 0.47907 0.66482 0.0
O504 O 0.51063 0.5213 0.50837 0.0
O505 O 0.52234 0.47444 0.54555 0.0
O506 O 0.47638 0.53229 0.80138 0.0
O507 O 0.5232 0.52411 0.68707 0.0
O508 O 0.53115 0.54745 0.5849 0.0
O509 O 0.4953 0.55539 0.63783 0.0
O510 O 0.51122 0.51537 0.78001 0.0
O511 O 0.47336 0.55887 0.72551 0.0
C512 C 0.49083 0.51824 0.53821 0.0
C513 C 0.53284 0.46995 0.43152 0.0
C514 C 0.50481 0.45612 0.34678 0.0
C515 C 0.511 0.46006 0.41417 0.0
C516 C 0.52072 0.46263 0.29665 0.0
C517 C 0.54844 0.47622 0.3805 0.0
C518 C 0.5423 0.47269 0.31355 0.0
C519 C 0.50567 0.47025 0.68392 0.0
C520 C 0.53938 0.47349 0.50256 0.0
C521 C 0.62486 0.54594 0.58281 0.0
C522 C 0.62816 0.53252 0.64003 0.0
C523 C 0.52978 0.51962 0.74567 0.0
C524 C 0.48376 0.57089 0.83521 0.0
C525 C 0.50796 0.57538 0.83133 0.0
C526 C 0.51897 0.58938 0.88058 0.0
C527 C 0.50531 0.59931 0.93243 0.0
C528 C 0.47049 0.58085 0.8872 0.0
C529 C 0.48124 0.59511 0.93545 0.0
C530 C 0.51394 0.56196 0.60282 0.0
C531 C 0.47238 0.5543 0.78917 0.0
H532 H 0.49879 0.45541 0.45323 0.0
H533 H 0.51682 0.45942 0.24431 0.0
H534 H 0.56541 0.4838 0.39224 0.0
H535 H 0.55445 0.47749 0.27457 0.0
H536 H 0.51816 0.56767 0.79103 0.0
H537 H 0.51318 0.61068 0.97018 0.0
H538 H 0.45186 0.57732 0.89092 0.0
H539 H 0.47093 0.60282 0.97552 0.0
Eu540 Eu 0.01522 0.5346 0.59053 0.0
C541 C 0.02089 0.43284 0.68384 0.0
C542 C 0.99834 0.41255 0.59806 0.0
C543 C 0.0306 0.3925 0.65224 0.0
C544 C 1.00296 0.43293 0.63721 0.0
C545 C 0.03444 0.41235 0.69325 0.0
C546 C 0.01257 0.39259 0.60476 0.0
C547 C 0.05253 0.43137 0.7887 0.0
N548 N 0.02419 0.45225 0.72286 0.0
C549 C 0.03857 0.45113 0.7777 0.0
C550 C 0.05083 0.41206 0.74535 0.0
Eu551 Eu 1.00028 0.48562 0.70086 0.0
N552 N 0.98974 0.45268 0.63095 0.0
C553 C 0.9707 0.45244 0.58893 0.0
C554 C 0.97939 0.41267 0.55374 0.0
C555 C 0.9654 0.43263 0.54963 0.0
H556 H 0.03978 0.4659 0.81222 0.0
H557 H 0.95053 0.43284 0.51586 0.0
H558 H 0.00947 0.37698 0.57433 0.0
H559 H 0.06449 0.43104 0.83079 0.0
H560 H 0.9595 0.46742 0.58381 0.0
H561 H 0.05127 0.5986 0.77516 0.0
H562 H 0.97525 0.39733 0.52325 0.0
H563 H 0.98129 0.54696 0.45836 0.0
H564 H 0.04965 0.56176 0.71427 0.0
H565 H 0.95533 0.57871 0.41908 0.0
H566 H 0.04105 0.37675 0.65816 0.0
H567 H 0.02298 0.63017 0.75124 0.0
H568 H 0.99004 0.64503 0.68134 0.0
H569 H 0.06156 0.39668 0.75415 0.0
H570 H 0.96361 0.63954 0.58516 0.0
N571 N 0.02019 0.57093 0.65264 0.0
C572 C 0.03711 0.57484 0.70058 0.0
C573 C 0.02219 0.61381 0.7229 0.0
C574 C 1.00578 0.61048 0.67177 0.0
C575 C 0.03817 0.59606 0.73646 0.0
C576 C 1.00534 0.58872 0.63655 0.0
H577 H 0.95089 0.61512 0.48651 0.0
N578 N 0.99109 0.56508 0.54803 0.0
C579 C 0.96468 0.5807 0.46593 0.0
C580 C 0.99025 0.58562 0.58301 0.0
C581 C 0.97941 0.56283 0.4883 0.0
C582 C 0.96229 0.60125 0.50402 0.0
C583 C 0.9755 0.60415 0.56258 0.0
O584 O 0.02752 0.5502 0.49765 0.0
O585 O 0.01555 0.49556 0.6025 0.0
O586 O 0.04018 0.49018 0.70575 0.0
O587 O 0.046 0.52714 0.65992 0.0
O588 O 1.00402 0.50777 0.51112 0.0
O589 O 0.05126 0.52954 0.55591 0.0
O590 O 0.99608 0.47654 0.80538 0.0
O591 O 0.99869 0.52465 0.68753 0.0
O592 O 0.97637 0.52778 0.57492 0.0
O593 O 0.96632 0.49955 0.65348 0.0
O594 O 0.00933 0.51323 0.78035 0.0
O595 O 0.96618 0.47449 0.73869 0.0
C596 C 0.00909 0.48918 0.54433 0.0
C597 C 0.05149 0.52302 0.43871 0.0
C598 C 0.06841 0.48705 0.39059 0.0
C599 C 0.06592 0.50307 0.44435 0.0
C600 C 0.05619 0.49117 0.33078 0.0
C601 C 0.03974 0.52692 0.37798 0.0
C602 C 0.04202 0.51101 0.32462 0.0
C603 C 0.05354 0.50869 0.69349 0.0
C604 C 0.04706 0.53847 0.49765 0.0
C605 C 0.97505 0.62527 0.59956 0.0
C606 C 0.99014 0.62842 0.65416 0.0
C607 C 1.00428 0.53152 0.74591 0.0
C608 C 0.95939 0.48403 0.85228 0.0
C609 C 0.95378 0.50804 0.85002 0.0
C610 C 0.94136 0.51879 0.90286 0.0
C611 C 0.93438 0.50498 0.9573 0.0
C612 C 0.95248 0.47069 0.90701 0.0
C613 C 0.93996 0.48115 0.95924 0.0
C614 C 0.96091 0.51429 0.60493 0.0
C615 C 0.97365 0.47286 0.80016 0.0
H616 H 0.07491 0.49973 0.49107 0.0
H617 H 0.05804 0.47941 0.28806 0.0
H618 H 0.02843 0.54205 0.37204 0.0
H619 H 0.03279 0.5141 0.27821 0.0
H620 H 0.95925 0.51827 0.80763 0.0
H621 H 0.92413 0.51243 0.99791 0.0
H622 H 0.9569 0.45221 0.90947 0.0
H623 H 0.93451 0.47075 1.0013 0.0
H624 H 0.16488 0.03403 0.34704 0.0
H625 H 0.12794 0.05011 0.16332 0.0
H626 H 0.09031 0.04955 0.22439 0.0
H627 H 0.1211 0.99485 0.41369 0.0
H628 H 0.12536 1.00471 0.49889 0.0
H629 H 0.14928 1.00595 0.44035 0.0
H630 H 0.15411 0.05043 0.46625 0.0
H631 H 0.13006 0.04936 0.52442 0.0
H632 H 0.12932 0.06977 0.45644 0.0
H633 H 0.0564 0.04779 0.30667 0.0
H634 H 0.02915 0.04297 0.40121 0.0
H635 H 0.08815 0.02872 0.53216 0.0
C636 C 0.14891 0.03747 0.31946 0.0
C637 C 0.14957 0.04207 0.24988 0.0
C638 C 0.12807 0.04618 0.2161 0.0
C639 C 0.10655 0.04611 0.25062 0.0
C640 C 0.10664 0.04184 0.31916 0.0
C641 C 0.12727 0.03744 0.35313 0.0
C642 C 0.12254 0.03315 0.42673 0.0
C643 C 0.13001 0.00819 0.44603 0.0
C644 C 0.13473 0.05179 0.47107 0.0
C645 C 0.09605 0.0359 0.429 0.0
C646 C 0.08721 0.04091 0.3664 0.0
C647 C 0.06319 0.04382 0.3558 0.0
C648 C 0.04781 0.0411 0.41006 0.0
C649 C 0.05637 0.03553 0.47458 0.0
C650 C 0.08093 0.03323 0.48391 0.0
H651 H 0.46002 0.1351 0.24598 0.0
H652 H 0.52396 0.17539 0.275 0.0
H653 H 0.53781 0.14634 0.35685 0.0
H654 H 0.45273 0.12037 0.41586 0.0
H655 H 0.44159 0.09134 0.39926 0.0
H656 H 0.43724 0.11424 0.33906 0.0
H657 H 0.45676 0.08838 0.24767 0.0
H658 H 0.46207 0.06516 0.30625 0.0
H659 H 0.4861 0.07748 0.26046 0.0
H660 H 0.54297 0.1146 0.44352 0.0
H661 H 0.54056 0.08115 0.52048 0.0
H662 H 0.47374 0.06092 0.43288 0.0
C663 C 0.47704 0.13775 0.26905 0.0
C664 C 0.49091 0.15759 0.2537 0.0
C665 C 0.51313 0.16022 0.28498 0.0
C666 C 0.52108 0.14388 0.33199 0.0
C667 C 0.50672 0.12484 0.34694 0.0
C668 C 0.4853 0.12157 0.31578 0.0
C669 C 0.47294 0.10001 0.34192 0.0
C670 C 0.44972 0.10689 0.37595 0.0
C671 C 0.46922 0.08168 0.28571 0.0
C672 C 0.49068 0.09157 0.3927 0.0
C673 C 0.50997 0.10628 0.39536 0.0
C674 C 0.52807 0.10284 0.44118 0.0
C675 C 0.52646 0.08387 0.485 0.0
C676 C 0.50702 0.06834 0.48243 0.0
C677 C 0.48897 0.07226 0.43532 0.0
H678 H 0.37295 0.47092 0.36055 0.0
H679 H 0.37607 0.53328 0.23797 0.0
H680 H 0.40994 0.54733 0.30351 0.0
H681 H 0.38819 0.49555 0.51232 0.0
H682 H 0.40842 0.47347 0.54186 0.0
H683 H 0.38486 0.4655 0.48576 0.0
H684 H 0.41162 0.44833 0.39569 0.0
H685 H 0.43581 0.45274 0.45298 0.0
H686 H 0.437 0.46465 0.37009 0.0
H687 H 0.44479 0.55389 0.37749 0.0
H688 H 0.47856 0.55247 0.45471 0.0
H689 H 0.45392 0.48604 0.53084 0.0
C690 C 0.38076 0.48744 0.34658 0.0
C691 C 0.37125 0.50101 0.29378 0.0
C692 C 0.38226 0.52267 0.27881 0.0
C693 C 0.40177 0.53078 0.31559 0.0
C694 C 0.41045 0.51704 0.36719 0.0
C695 C 0.40051 0.4957 0.38221 0.0
C696 C 0.41397 0.48389 0.43833 0.0
C697 C 0.39795 0.47935 0.49828 0.0
C698 C 0.42527 0.461 0.41286 0.0
C699 C 0.43264 0.50232 0.45412 0.0
C700 C 0.43038 0.52112 0.41147 0.0
C701 C 0.44652 0.53946 0.41174 0.0
C702 C 0.46565 0.53851 0.45581 0.0
C703 C 0.46844 0.5196 0.50033 0.0
C704 C 0.45166 0.50121 0.49946 0.0
H705 H 1.00293 0.38601 0.26337 0.0
H706 H 0.05882 0.35168 0.37218 0.0
H707 H 0.06072 0.38528 0.45152 0.0
H708 H 0.02458 0.44663 0.28709 0.0
H709 H 0.99579 0.45901 0.29885 0.0
H710 H 0.99959 0.43311 0.24704 0.0
H711 H 0.96915 0.41149 0.31706 0.0
H712 H 0.9653 0.43662 0.37179 0.0
H713 H 0.97343 0.40861 0.40565 0.0
H714 H 0.05701 0.42271 0.51932 0.0
H715 H 0.04544 0.45984 0.57619 0.0
H716 H 0.99036 0.46958 0.4295 0.0
C717 C 0.01574 0.38578 0.30341 0.0
C718 C 0.03079 0.36616 0.31141 0.0
C719 C 0.04709 0.36642 0.36513 0.0
C720 C 0.04833 0.38547 0.41045 0.0
C721 C 0.03306 0.40431 0.40209 0.0
C722 C 0.01704 0.40469 0.34999 0.0
C723 C 1.00199 0.42679 0.3546 0.0
C724 C 1.00572 0.4423 0.29328 0.0
C725 C 0.97593 0.42052 0.36282 0.0
C726 C 0.01187 0.43847 0.41766 0.0
C727 C 0.03004 0.42535 0.44358 0.0
C728 C 0.04249 0.43287 0.50022 0.0
C729 C 0.03574 0.45394 0.53244 0.0
C730 C 0.01634 0.46704 0.50916 0.0
C731 C 1.00479 0.45952 0.44968 0.0
H732 H 0.86842 0.01857 0.96812 0.0
H733 H 0.88737 0.9533 0.06446 0.0
H734 H 0.92295 0.95086 0.99525 0.0
H735 H 0.8849 0.99999 0.804 0.0
H736 H 0.89548 0.02851 0.78031 0.0
H737 H 0.87275 0.02619 0.84216 0.0
H738 H 0.89828 0.05071 0.9252 0.0
H739 H 0.92106 0.05273 0.86324 0.0
H740 H 0.92763 0.04101 0.94436 0.0
H741 H 0.95609 0.95438 0.90998 0.0
H742 H 0.98278 0.96355 0.81628 0.0
H743 H 0.94109 0.02498 0.77156 0.0
C744 C 0.87992 1.00368 0.97511 0.0
C745 C 0.87472 0.9862 0.02292 0.0
C746 C 0.89084 0.96732 0.02999 0.0
C747 C 0.91113 0.96562 0.99016 0.0
C748 C 0.91528 0.98281 0.94269 0.0
C749 C 0.90009 1.0015 0.93505 0.0
C750 C 0.90791 0.01706 0.87821 0.0
C751 C 0.88914 0.01797 0.82291 0.0
C752 C 0.91409 0.04184 0.90433 0.0
C753 C 0.92965 1.00403 0.85435 0.0
C754 C 0.93381 0.98446 0.89268 0.0
C755 C 0.95297 0.96974 0.87998 0.0
C756 C 0.96815 0.97513 0.82688 0.0
C757 C 0.96401 0.99493 0.78653 0.0
C758 C 0.94449 0.00951 0.80077 0.0
H759 H 0.52781 0.88639 0.00895 0.0
H760 H 0.54797 0.83088 0.8693 0.0
H761 H 0.54573 0.85866 0.77651 0.0
H762 H 0.48614 0.91451 0.89935 0.0
H763 H 0.49354 0.94398 0.92605 0.0
H764 H 0.49717 0.91995 0.98273 0.0
H765 H 0.54083 0.93129 0.99943 0.0
H766 H 0.5373 0.95526 0.94247 0.0
H767 H 0.55968 0.93346 0.92752 0.0
H768 H 0.54186 0.89188 0.6986 0.0
H769 H 0.53459 0.92849 0.63856 0.0
H770 H 0.51511 0.96315 0.82522 0.0
C771 C 0.53179 0.88016 0.95882 0.0
C772 C 0.53785 0.85632 0.94646 0.0
C773 C 0.54287 0.84888 0.88005 0.0
C774 C 0.54183 0.86459 0.82694 0.0
C775 C 0.53569 0.88782 0.84057 0.0
C776 C 0.5306 0.89567 0.90465 0.0
C777 C 0.52393 0.92157 0.90449 0.0
C778 C 0.49869 0.92521 0.92964 0.0
C779 C 0.54149 0.93626 0.94595 0.0
C780 C 0.52593 0.92687 0.83038 0.0
C781 C 0.53296 0.90713 0.7948 0.0
C782 C 0.53618 0.90742 0.72586 0.0
C783 C 0.53183 0.92835 0.69207 0.0
C784 C 0.52402 0.9488 0.72677 0.0
C785 C 0.52126 0.948 0.79715 0.0
H786 H 0.63174 0.52688 0.02445 0.0
H787 H 0.6654 0.5787 0.89991 0.0
H788 H 0.63258 0.57607 0.81986 0.0
H789 H 0.61009 0.49067 0.8896 0.0
H790 H 0.58249 0.48378 0.92849 0.0
H791 H 0.60789 0.49013 0.97939 0.0
H792 H 0.58571 0.52336 0.04186 0.0
H793 H 0.55987 0.517 0.99271 0.0
H794 H 0.57185 0.54629 0.99477 0.0
H795 H 0.59593 0.56832 0.75301 0.0
H796 H 0.55906 0.55412 0.70123 0.0
H797 H 0.54937 0.50603 0.86474 0.0
C798 C 0.63229 0.53753 0.98012 0.0
C799 C 0.65118 0.55323 0.9693 0.0
C800 C 0.65105 0.56687 0.91038 0.0
C801 C 0.63247 0.56546 0.8643 0.0
C802 C 0.61402 0.55017 0.877 0.0
C803 C 0.6138 0.53633 0.93318 0.0
C804 C 0.59192 0.52105 0.9339 0.0
C805 C 0.59849 0.49485 0.93276 0.0
C806 C 0.57642 0.5273 0.99441 0.0
C807 C 0.58018 0.52817 0.86893 0.0
C808 C 0.59312 0.54523 0.83737 0.0
C809 C 0.58578 0.55482 0.77707 0.0
C810 C 0.56488 0.54653 0.74772 0.0
C811 C 0.55177 0.5284 0.77767 0.0
C812 C 0.5593 0.51956 0.83997 0.0
H813 H 1.00305 0.63152 0.0343 0.0
H814 H 0.94483 0.66367 0.92977 0.0
H815 H 0.94601 0.63189 0.84442 0.0
H816 H 0.03488 0.61278 0.88994 0.0
H817 H 0.0443 0.58509 0.92337 0.0
H818 H 0.03862 0.60966 0.97884 0.0
H819 H 0.00871 0.58525 0.04531 0.0
H820 H 0.01444 0.56024 0.99147 0.0
H821 H 0.98486 0.57089 1.00174 0.0
H822 H 0.9544 0.59689 0.76727 0.0
H823 H 0.96834 0.56087 0.70851 0.0
H824 H 0.02107 0.55133 0.86209 0.0
C825 C 0.99057 0.63188 0.99345 0.0
C826 C 0.97374 0.65015 0.98934 0.0
C827 C 0.9577 0.64981 0.93484 0.0
C828 C 0.9583 0.63184 0.88578 0.0
C829 C 0.97505 0.61413 0.89133 0.0
C830 C 0.9908 0.61391 0.94405 0.0
C831 C 1.00699 0.59276 0.9383 0.0
C832 C 0.03273 0.60053 0.93224 0.0
C833 C 1.00354 0.57631 0.99774 0.0
C834 C 0.99824 0.58142 0.87363 0.0
C835 C 0.97975 0.59398 0.84732 0.0
C836 C 0.96888 0.58696 0.78759 0.0
C837 C 0.97703 0.56658 0.75417 0.0
C838 C 0.99621 0.55365 0.77962 0.0
C839 C 1.00662 0.56107 0.84079 0.0
H840 H 0.10072 0.16228 0.29555 0.0
H841 H 0.12259 0.21063 0.45331 0.0
H842 H 0.10488 0.18483 0.5364 0.0
H843 H 0.05039 0.15266 0.33566 0.0
H844 H 0.04716 0.12147 0.32162 0.0
H845 H 0.06933 0.13712 0.27782 0.0
H846 H 0.10172 0.10988 0.32366 0.0
H847 H 0.07939 0.09339 0.36602 0.0
H848 H 0.10395 0.10516 0.41236 0.0
H849 H 0.07142 0.16562 0.58937 0.0
H850 H 0.03311 0.14791 0.61423 0.0
H851 H 0.03606 0.10804 0.42835 0.0
C852 C 0.10338 0.16674 0.34771 0.0
C853 C 0.11222 0.18904 0.36739 0.0
C854 C 0.11509 0.1941 0.4365 0.0
C855 C 0.10526 0.17937 0.48435 0.0
C856 C 0.09381 0.15902 0.4625 0.0
C857 C 0.09406 0.15189 0.39603 0.0
C858 C 0.07758 0.13132 0.38389 0.0
C859 C 0.06009 0.13598 0.32647 0.0
C860 C 0.09151 0.1086 0.37073 0.0
C861 C 0.06543 0.13054 0.45096 0.0
C862 C 0.07546 0.1462 0.49629 0.0
C863 C 0.06424 0.15231 0.55598 0.0
C864 C 0.04231 0.14237 0.56937 0.0
C865 C 0.03199 0.12602 0.52418 0.0
C866 C 0.04407 0.11965 0.46518 0.0
H867 H 0.33421 0.1373 0.31863 0.0
H868 H 0.35893 0.11772 0.12016 0.0
H869 H 0.39285 0.09872 0.1689 0.0
H870 H 0.39696 0.13649 0.40602 0.0
H871 H 0.38373 0.12384 0.47885 0.0
H872 H 0.36778 0.14517 0.43079 0.0
H873 H 0.33351 0.11556 0.41873 0.0
H874 H 0.3495 0.09389 0.46415 0.0
H875 H 0.33892 0.08708 0.38108 0.0
H876 H 0.41318 0.06911 0.23242 0.0
H877 H 0.42375 0.0376 0.30924 0.0
H878 H 0.3873 0.07423 0.47013 0.0
C879 C 0.34729 0.12991 0.28533 0.0
C880 C 0.34322 0.12856 0.21552 0.0
C881 C 0.36118 0.11925 0.17375 0.0
C882 C 0.38072 0.10811 0.20116 0.0
C883 C 0.38236 0.1067 0.27033 0.0
C884 C 0.36666 0.11815 0.31228 0.0
C885 C 0.36973 0.11025 0.38394 0.0
C886 C 0.38018 0.13012 0.42747 0.0
C887 C 0.34655 0.10115 0.4136 0.0
C888 C 0.38734 0.09061 0.37391 0.0
C889 C 0.3949 0.08934 0.30838 0.0
C890 C 0.40828 0.07054 0.28455 0.0
C891 C 0.41419 0.05265 0.32869 0.0
C892 C 0.40669 0.05358 0.39612 0.0
C893 C 0.39347 0.0731 0.41904 0.0
H894 H 0.41905 0.34823 0.34991 0.0
H895 H 0.40037 0.36906 0.14812 0.0
H896 H 0.41562 0.40815 0.17139 0.0
H897 H 0.41724 0.40805 0.43494 0.0
H898 H 0.44401 0.40251 0.48024 0.0
H899 H 0.42403 0.37875 0.46133 0.0
H900 H 0.45662 0.35505 0.40268 0.0
H901 H 0.47724 0.37793 0.42219 0.0
H902 H 0.47323 0.36832 0.33661 0.0
H903 H 0.44182 0.44098 0.20215 0.0
H904 H 0.47585 0.46446 0.23934 0.0
H905 H 0.48335 0.42003 0.41262 0.0
C906 C 0.41767 0.36096 0.3106 0.0
C907 C 0.40869 0.35478 0.24656 0.0
C908 C 0.40668 0.37273 0.19816 0.0
C909 C 0.41554 0.3953 0.21071 0.0
C910 C 0.4266 0.39985 0.27159 0.0
C911 C 0.42754 0.38321 0.32114 0.0
C912 C 0.44465 0.3904 0.37587 0.0
C913 C 0.43172 0.39524 0.442 0.0
C914 C 0.46407 0.37183 0.38476 0.0
C915 C 0.4543 0.41282 0.34697 0.0
C916 C 0.44307 0.41841 0.28804 0.0
C917 C 0.45048 0.43702 0.24887 0.0
C918 C 0.47007 0.45006 0.26992 0.0
C919 C 0.48242 0.44411 0.32889 0.0
C920 C 0.47402 0.42549 0.3683 0.0
H921 H 0.19482 0.43782 0.39583 0.0
H922 H 0.16827 0.37698 0.28696 0.0
H923 H 0.12815 0.38701 0.3231 0.0
H924 H 0.14622 0.4384 0.53492 0.0
H925 H 0.14677 0.47006 0.53488 0.0
H926 H 0.17346 0.45364 0.52122 0.0
H927 H 0.17986 0.47596 0.41102 0.0
H928 H 0.15308 0.49188 0.42287 0.0
H929 H 0.15745 0.47485 0.34718 0.0
H930 H 0.09168 0.41023 0.33778 0.0
H931 H 0.06229 0.44196 0.34232 0.0
H932 H 0.11217 0.48703 0.44575 0.0
C933 C 0.18086 0.42566 0.38322 0.0
C934 C 0.18474 0.40672 0.33807 0.0
C935 C 0.16574 0.39174 0.32101 0.0
C936 C 0.14286 0.39725 0.34164 0.0
C937 C 0.13936 0.41741 0.38087 0.0
C938 C 0.158 0.43096 0.40353 0.0
C939 C 0.14957 0.45375 0.43543 0.0
C940 C 0.15428 0.45396 0.51112 0.0
C941 C 0.16063 0.47534 0.40205 0.0
C942 C 0.12358 0.45201 0.42095 0.0
C943 C 0.11789 0.43067 0.39112 0.0
C944 C 0.09573 0.42659 0.36356 0.0
C945 C 0.07918 0.44481 0.36577 0.0
C946 C 0.08477 0.46683 0.39557 0.0
C947 C 0.10708 0.47012 0.4249 0.0
H948 H 0.98394 0.85621 0.90564 0.0
H949 H 0.95935 0.80548 0.75703 0.0
H950 H 0.98248 0.82566 0.67067 0.0
H951 H 0.98454 0.90766 0.7912 0.0
H952 H 0.01019 0.9195 0.83227 0.0
H953 H 0.98919 0.90283 0.87912 0.0
H954 H 0.02262 0.87501 0.91681 0.0
H955 H 0.04358 0.89119 0.86888 0.0
H956 H 0.04015 0.86004 0.85448 0.0
H957 H 0.01261 0.84879 0.60407 0.0
H958 H 0.04238 0.87613 0.56028 0.0
H959 H 0.04684 0.91017 0.7557 0.0
C960 C 0.9825 0.84979 0.8546 0.0
C961 C 0.96982 0.82916 0.83844 0.0
C962 C 0.96917 0.82109 0.77096 0.0
C963 C 0.98219 0.83247 0.72149 0.0
C964 C 0.99546 0.85206 0.74018 0.0
C965 C 0.99517 0.86097 0.80485 0.0
C966 C 0.01171 0.88151 0.81341 0.0
C967 C 0.99809 0.90421 0.82996 0.0
C968 C 0.03063 0.87662 0.86651 0.0
C969 C 0.02206 0.8822 0.74418 0.0
C970 C 0.01246 0.86526 0.70226 0.0
C971 C 0.02003 0.8623 0.63636 0.0
C972 C 0.03715 0.87772 0.61214 0.0
C973 C 0.04684 0.89546 0.65433 0.0
C974 C 0.0394 0.89725 0.72146 0.0
H975 H 0.67184 0.96022 0.92269 0.0
H976 H 0.72029 0.93713 0.76798 0.0
H977 H 0.6994 0.962 0.68654 0.0
H978 H 0.61888 0.96506 0.81401 0.0
H979 H 0.60909 0.99051 0.86082 0.0
H980 H 0.62555 0.96787 0.90193 0.0
H981 H 0.65553 0.99931 0.94249 0.0
H982 H 0.63967 0.0219 0.89991 0.0
H983 H 0.67029 0.01713 0.88183 0.0
H984 H 0.67576 0.99416 0.62641 0.0
H985 H 0.64876 0.02592 0.59124 0.0
H986 H 0.61889 0.02788 0.79066 0.0
C987 C 0.67753 0.95931 0.87114 0.0
C988 C 0.6977 0.94654 0.85196 0.0
C989 C 0.70492 0.94683 0.78409 0.0
C990 C 0.69316 0.96091 0.73746 0.0
C991 C 0.67415 0.97436 0.75946 0.0
C992 C 0.66615 0.97319 0.82454 0.0
C993 C 0.64668 0.99052 0.83813 0.0
C994 C 0.62369 0.97772 0.85467 0.0
C995 C 0.65347 0.00825 0.89385 0.0
C996 C 0.64529 1.00212 0.77112 0.0
C997 C 0.66104 0.99263 0.72586 0.0
C998 C 0.66313 1.00144 0.66134 0.0
C999 C 0.64793 0.01964 0.64199 0.0
C1000 C 0.63138 0.02913 0.6878 0.0
C1001 C 0.63069 0.02052 0.7535 0.0
H1002 H 0.61408 0.65675 0.05602 0.0
H1003 H 0.62913 0.68713 0.8636 0.0
H1004 H 0.61312 0.65182 0.80763 0.0
H1005 H 0.61934 0.59059 0.99625 0.0
H1006 H 0.59534 0.58297 0.05008 0.0
H1007 H 0.61631 0.60506 0.07623 0.0
H1008 H 0.58312 0.63503 0.09557 0.0
H1009 H 0.56185 0.61363 0.07088 0.0
H1010 H 0.56301 0.6413 0.02831 0.0
H1011 H 0.58283 0.62311 0.77551 0.0
H1012 H 0.5444 0.60329 0.77197 0.0
H1013 H 0.55018 0.58884 0.98303 0.0
C1014 C 0.61556 0.65539 1.00223 0.0
C1015 C 0.62258 0.67493 0.9644 0.0
C1016 C 0.62353 0.67257 0.89388 0.0
C1017 C 0.61462 0.6524 0.86157 0.0
C1018 C 0.60539 0.63447 0.90043 0.0
C1019 C 0.60656 0.63544 0.96961 0.0
C1020 C 0.59129 0.61674 1.00051 0.0
C1021 C 0.60646 0.59769 0.03272 0.0
C1022 C 0.5738 0.62734 0.05164 0.0
C1023 C 0.57899 0.60727 0.93868 0.0
C1024 C 0.58798 0.61698 0.88104 0.0
C1025 C 0.57627 0.61467 0.81981 0.0
C1026 C 0.55436 0.60342 0.81816 0.0
C1027 C 0.54438 0.59476 0.87751 0.0
C1028 C 0.5576 0.59532 0.93709 0.0
H1029 H 0.86941 0.6112 0.07734 0.0
H1030 H 0.83937 0.62662 0.88353 0.0
H1031 H 0.87494 0.61116 0.82933 0.0
H1032 H 0.9354 0.6191 0.02188 0.0
H1033 H 0.94385 0.59534 0.07514 0.0
H1034 H 0.92097 0.61548 0.10084 0.0
H1035 H 0.89239 0.58112 0.1172 0.0
H1036 H 0.91455 0.56062 0.09263 0.0
H1037 H 0.88688 0.56083 0.04873 0.0
H1038 H 0.90376 0.5808 0.79831 0.0
H1039 H 0.925 0.54318 0.79472 0.0
H1040 H 0.94048 0.55054 1.00608 0.0
C1041 C 0.87079 0.61291 0.02377 0.0
C1042 C 0.85119 0.61964 0.98494 0.0
C1043 C 0.8538 0.62097 0.91466 0.0
C1044 C 0.87416 0.61245 0.88331 0.0
C1045 C 0.89214 0.60347 0.92294 0.0
C1046 C 0.89107 0.6046 0.99207 0.0
C1047 C 0.91033 0.59004 0.02347 0.0
C1048 C 0.92874 0.60593 0.05736 0.0
C1049 C 0.90041 0.5721 0.07326 0.0
C1050 C 0.9203 0.57811 0.96171 0.0
C1051 C 0.91014 0.58659 0.90393 0.0
C1052 C 0.91263 0.57473 0.8427 0.0
C1053 C 0.92474 0.55326 0.84108 0.0
C1054 C 0.93425 0.54387 0.90039 0.0
C1055 C 0.9333 0.55732 0.96009 0.0
H1056 H 0.00939 0.15745 0.94636 0.0
H1057 H 0.05604 0.19075 0.80491 0.0
H1058 H 0.05453 0.15542 0.73284 0.0
H1059 H 0.03206 0.0988 0.92658 0.0
H1060 H 1.00404 0.08422 0.93031 0.0
H1061 H 0.00836 0.11194 0.97342 0.0
H1062 H 0.97338 0.1303 0.91052 0.0
H1063 H 0.96828 0.10254 0.86849 0.0
H1064 H 0.97251 0.12873 0.82044 0.0
H1065 H 0.04959 0.11578 0.67763 0.0
H1066 H 0.0356 0.07776 0.63179 0.0
H1067 H 0.99166 0.0691 0.80611 0.0
C1068 C 0.01908 0.15748 0.89988 0.0
C1069 C 0.03319 0.17707 0.88247 0.0
C1070 C 0.04559 0.176 0.82094 0.0
C1071 C 0.0448 0.15594 0.77923 0.0
C1072 C 0.03131 0.13685 0.79873 0.0
C1073 C 0.01833 0.13752 0.85699 0.0
C1074 C 1.00471 0.11467 0.86476 0.0
C1075 C 0.01277 0.10164 0.92751 0.0
C1076 C 0.97814 0.11935 0.86612 0.0
C1077 C 0.01182 0.10131 0.80142 0.0
C1078 C 0.02746 0.11436 0.7647 0.0
C1079 C 0.03671 0.10583 0.70463 0.0
C1080 C 0.0291 0.08392 0.6798 0.0
C1081 C 0.01317 0.0701 0.71633 0.0
C1082 C 1.00432 0.07905 0.77787 0.0
H1083 H 0.35899 1.0 0.90252 0.0
H1084 H 0.32871 0.05458 0.77963 0.0
H1085 H 0.36387 0.05383 0.70861 0.0
H1086 H 0.41624 0.02197 0.90235 0.0
H1087 H 0.43182 0.99444 0.89533 0.0
H1088 H 0.40351 0.99571 0.93523 0.0
H1089 H 0.3856 0.96492 0.8559 0.0
H1090 H 0.41397 0.96127 0.81758 0.0
H1091 H 0.38874 0.968 0.76681 0.0
H1092 H 0.40255 0.04731 0.64966 0.0
H1093 H 0.44189 0.03566 0.60905 0.0
H1094 H 0.44879 0.98734 0.77297 0.0
C1095 C 0.35962 0.01181 0.86068 0.0
C1096 C 0.34059 0.0272 0.84695 0.0
C1097 C 0.34248 0.04216 0.79098 0.0
C1098 C 0.3626 0.04205 0.75042 0.0
C1099 C 0.38102 0.02696 0.766 0.0
C1100 C 0.3797 0.01201 0.81959 0.0
C1101 C 0.40222 0.99781 0.82601 0.0
C1102 C 0.41419 1.00277 0.89372 0.0
C1103 C 0.39733 0.97143 0.81596 0.0
C1104 C 0.41652 1.0074 0.76836 0.0
C1105 C 0.40382 0.02404 0.734 0.0
C1106 C 0.41279 0.03463 0.67703 0.0
C1107 C 0.43527 0.02811 0.65468 0.0
C1108 C 0.44886 0.01149 0.68967 0.0
C1109 C 0.43914 1.00076 0.74671 0.0
H1110 H 0.45452 0.35197 0.84198 0.0
H1111 H 0.52424 0.32201 0.81956 0.0
H1112 H 0.53735 0.35823 0.76496 0.0
H1113 H 0.45457 0.38227 0.67879 0.0
H1114 H 0.43818 0.40691 0.71175 0.0
H1115 H 0.4339 0.37808 0.74568 0.0
H1116 H 0.44424 0.39378 0.86567 0.0
H1117 H 0.44679 0.42232 0.82993 0.0
H1118 H 0.47086 0.4105 0.87751 0.0
H1119 H 0.54357 0.39855 0.71894 0.0
H1120 H 0.54253 0.43945 0.68239 0.0
H1121 H 0.46817 0.44305 0.7286 0.0
C1122 C 0.47241 0.35262 0.82418 0.0
C1123 C 0.48831 0.33388 0.83582 0.0
C1124 C 0.51172 0.33607 0.81273 0.0
C1125 C 0.51931 0.35657 0.78101 0.0
C1126 C 0.50327 0.37474 0.7716 0.0
C1127 C 0.48022 0.37283 0.79162 0.0
C1128 C 0.46666 0.39516 0.77688 0.0
C1129 C 0.44717 0.39031 0.72519 0.0
C1130 C 0.4566 0.40608 0.84144 0.0
C1131 C 0.48592 0.41032 0.7477 0.0
C1132 C 0.50682 0.39803 0.7446 0.0
C1133 C 0.52727 0.40829 0.72099 0.0
C1134 C 0.52647 0.43173 0.70057 0.0
C1135 C 0.50537 0.44501 0.70393 0.0
C1136 C 0.48472 0.43382 0.72679 0.0
H1137 H 0.16428 0.46631 0.91016 0.0
H1138 H 0.199 0.53154 0.85994 0.0
H1139 H 0.16465 0.5427 0.79162 0.0
H1140 H 0.13736 0.45575 0.74743 0.0
H1141 H 0.11085 0.44382 0.78223 0.0
H1142 H 0.13826 0.44092 0.82641 0.0
H1143 H 0.11974 0.46084 0.93094 0.0
H1144 H 0.09234 0.46393 0.88694 0.0
H1145 H 0.10638 0.4894 0.92362 0.0
H1146 H 0.12586 0.54674 0.72818 0.0
H1147 H 0.08632 0.54383 0.67877 0.0
H1148 H 0.07756 0.47554 0.76848 0.0
C1149 C 0.16494 0.48282 0.88411 0.0
C1150 C 0.18465 0.49796 0.89061 0.0
C1151 C 0.18421 0.51966 0.85664 0.0
C1152 C 0.16477 0.5261 0.81722 0.0
C1153 C 0.14576 0.5107 0.81191 0.0
C1154 C 0.14573 0.48948 0.84448 0.0
C1155 C 0.12298 0.47622 0.8316 0.0
C1156 C 0.12765 0.45279 0.79472 0.0
C1157 C 0.10957 0.47238 0.89718 0.0
C1158 C 0.11013 0.49333 0.787 0.0
C1159 C 0.12356 0.51308 0.77605 0.0
C1160 C 0.11523 0.53134 0.73682 0.0
C1161 C 0.09257 0.52951 0.70899 0.0
C1162 C 0.07817 0.50959 0.72049 0.0
C1163 C 0.08751 0.49118 0.75932 0.0
H1164 H 0.95587 0.85199 0.43871 0.0
H1165 H 0.02412 0.84599 0.34422 0.0
H1166 H 0.03641 0.88302 0.3992 0.0
H1167 H 0.95014 0.91346 0.42504 0.0
H1168 H 0.93666 0.91864 0.5057 0.0
H1169 H 0.93297 0.89081 0.46312 0.0
H1170 H 0.94941 0.86894 0.56455 0.0
H1171 H 0.95216 0.89672 0.60837 0.0
H1172 H 0.97715 0.87772 0.59976 0.0
H1173 H 0.04054 0.92222 0.45553 0.0
H1174 H 0.03821 0.95879 0.52258 0.0
H1175 H 0.96863 0.93967 0.58946 0.0
C1176 C 0.97351 0.85833 0.43032 0.0
C1177 C 0.98905 0.84581 0.38699 0.0
C1178 C 0.01196 0.85486 0.3776 0.0
C1179 C 0.01907 0.87607 0.40829 0.0
C1180 C 1.00325 0.88813 0.44934 0.0
C1181 C 0.98112 0.87939 0.46187 0.0
C1182 C 0.96765 0.8961 0.50828 0.0
C1183 C 0.94555 0.90534 0.47341 0.0
C1184 C 0.96123 0.88415 0.57411 0.0
C1185 C 0.98568 0.91561 0.51952 0.0
C1186 C 1.00593 0.91067 0.48401 0.0
C1187 C 0.02485 0.92616 0.48393 0.0
C1188 C 0.02335 0.94699 0.52211 0.0
C1189 C 1.00326 0.95224 0.56102 0.0
C1190 C 0.98414 0.93625 0.55969 0.0
H1191 H 0.66592 0.95382 0.42367 0.0
H1192 H 0.67786 0.02524 0.35854 0.0
H1193 H 0.64168 0.03791 0.41568 0.0
H1194 H 0.60487 0.9542 0.39839 0.0
H1195 H 0.59705 0.93734 0.47082 0.0
H1196 H 0.62516 0.93314 0.43151 0.0
H1197 H 0.64722 0.9425 0.54125 0.0
H1198 H 0.61913 0.94489 0.58206 0.0
H1199 H 0.63975 0.96865 0.5882 0.0
H1200 H 0.60299 0.04284 0.47432 0.0
H1201 H 0.56586 0.03999 0.53732 0.0
H1202 H 0.57802 0.9657 0.56583 0.0
C1203 C 0.66108 0.97218 0.42172 0.0
C1204 C 0.67512 0.9885 0.38637 0.0
C1205 C 0.66792 0.01237 0.38588 0.0
C1206 C 0.64717 0.01975 0.41785 0.0
C1207 C 0.63359 1.00316 0.45071 0.0
C1208 C 0.64038 0.97992 0.45379 0.0
C1209 C 0.62217 0.96558 0.49114 0.0
C1210 C 0.61165 0.94643 0.44522 0.0
C1211 C 0.63272 0.95477 0.55439 0.0
C1212 C 0.60412 0.98444 0.50859 0.0
C1213 C 0.61107 1.00596 0.48429 0.0
C1214 C 0.59738 0.02607 0.49341 0.0
C1215 C 0.57624 0.02429 0.52892 0.0
C1216 C 0.56886 1.00258 0.55523 0.0
C1217 C 0.58308 0.98242 0.5452 0.0
H1218 H 0.56213 0.66767 0.38392 0.0
H1219 H 0.50373 0.7101 0.4548 0.0
H1220 H 0.49054 0.67709 0.52461 0.0
H1221 H 0.53104 0.61411 0.37317 0.0
H1222 H 0.55514 0.59613 0.40002 0.0
H1223 H 0.56083 0.62318 0.35768 0.0
H1224 H 0.58654 0.63813 0.45615 0.0
H1225 H 0.58165 0.6109 0.49857 0.0
H1226 H 0.57475 0.63843 0.53973 0.0
H1227 H 0.48336 0.6383 0.58525 0.0
H1228 H 0.48282 0.59802 0.62957 0.0
H1229 H 0.54698 0.58231 0.5216 0.0
C1230 C 0.54682 0.67032 0.41506 0.0
C1231 C 0.53412 0.69172 0.41403 0.0
C1232 C 0.51373 0.69393 0.45419 0.0
C1233 C 0.50618 0.67529 0.49438 0.0
C1234 C 0.51918 0.65449 0.49407 0.0
C1235 C 0.53912 0.652 0.45547 0.0
C1236 C 0.54961 0.62768 0.4619 0.0
C1237 C 0.54913 0.61451 0.39417 0.0
C1238 C 0.57462 0.62887 0.49083 0.0
C1239 C 0.53268 0.61687 0.51086 0.0
C1240 C 0.51513 0.63249 0.52864 0.0
C1241 C 0.49712 0.62603 0.57175 0.0
C1242 C 0.49698 0.60303 0.59675 0.0
C1243 C 0.5148 0.58667 0.57893 0.0
C1244 C 0.53297 0.59404 0.53603 0.0
H1245 H 0.85941 0.53226 0.33294 0.0
H1246 H 0.80821 0.5201 0.48875 0.0
H1247 H 0.84047 0.51403 0.56983 0.0
H1248 H 0.90177 0.48873 0.38811 0.0
H1249 H 0.92669 0.50644 0.36601 0.0
H1250 H 0.89955 0.50916 0.32039 0.0
H1251 H 0.89832 0.55406 0.34731 0.0
H1252 H 0.92587 0.55089 0.39014 0.0
H1253 H 0.90119 0.56396 0.43306 0.0
H1254 H 0.8793 0.50887 0.63447 0.0
H1255 H 0.92032 0.50689 0.67603 0.0
H1256 H 0.9455 0.52321 0.47779 0.0
C1257 C 0.85487 0.52797 0.38383 0.0
C1258 C 0.83107 0.52654 0.40399 0.0
C1259 C 0.82617 0.52145 0.47178 0.0
C1260 C 0.84444 0.51785 0.51825 0.0
C1261 C 0.86765 0.51947 0.49656 0.0
C1262 C 0.87285 0.52444 0.43082 0.0
C1263 C 0.89916 0.52567 0.42008 0.0
C1264 C 0.90726 0.50635 0.37073 0.0
C1265 C 0.90654 0.55013 0.39631 0.0
C1266 C 0.90805 0.52106 0.49023 0.0
C1267 C 0.88967 0.51719 0.53363 0.0
C1268 C 0.89375 0.512 0.60078 0.0
C1269 C 0.91712 0.51087 0.62401 0.0
C1270 C 0.93617 0.51525 0.58056 0.0
C1271 C 0.93139 0.52032 0.51278 0.0
loop_
_geom_bond_atom_site_label_1
_geom_bond_atom_site_label_2
_geom_bond_distance
_geom_bond_site_symmetry_2
_ccdc_geom_bond_type
C0 C1 1.384 . S
C0 H13 0.947 . S
C0 C35 1.382 . S
C1 C0 1.384 . S
C1 C2 1.378 . S
C2 C1 1.378 . S
C2 C3 1.378 . S
C2 H14 0.952 . S
C3 C2 1.378 . S
C3 H15 0.950 . S
C3 C34 1.383 . S
H4 C23 0.947 . S
H5 C24 0.946 . S
H6 C26 0.953 . S
H7 C27 0.945 . S
H8 C29 0.952 . S
H9 C30 0.949 . S
H10 C32 0.950 . S
H11 C33 0.948 . S
H12 C35 0.951 . S
H13 C0 0.947 . S
H14 C2 0.952 . S
H15 C3 0.950 . S
N16 C19 1.382 . S
N16 C21 1.363 . S
N17 C19 1.371 . S
N17 C20 1.372 . S
N18 C20 1.361 . S
N18 C21 1.377 . S
C19 N16 1.382 . S
C19 N17 1.371 . S
C19 C22 1.480 . S
C20 N17 1.372 . S
C20 N18 1.361 . S
C20 C28 1.457 . S
C21 N16 1.363 . S
C21 N18 1.377 . S
C21 C34 1.479 . S
C22 C19 1.480 . S
C22 C23 1.383 . S
C22 C27 1.385 . S
C23 H4 0.947 . S
C23 C22 1.383 . S
C23 C24 1.388 . S
C24 H5 0.946 . S
C24 C23 1.388 . S
C24 C25 1.384 . S
C25 C24 1.384 . S
C25 C26 1.377 . S
C26 H6 0.953 . S
C26 C25 1.377 . S
C26 C27 1.369 . S
C27 H7 0.945 . S
C27 C22 1.385 . S
C27 C26 1.369 . S
C28 C20 1.457 . S
C28 C29 1.372 . S
C28 C33 1.364 . S
C29 H8 0.952 . S
C29 C28 1.372 . S
C29 C30 1.389 1_554 S
C30 H9 0.949 . S
C30 C29 1.389 1_556 S
C30 C31 1.387 1_556 S
C31 C30 1.387 1_554 S
C31 C32 1.372 . S
C32 H10 0.950 . S
C32 C31 1.372 . S
C32 C33 1.379 . S
C33 H11 0.948 . S
C33 C28 1.364 . S
C33 C32 1.379 . S
C34 C3 1.383 . S
C34 C21 1.479 . S
C34 C35 1.398 . S
C35 C0 1.382 . S
C35 H12 0.951 . S
C35 C34 1.398 . S
C36 C37 1.384 . S
C36 H49 0.947 . S
C36 C71 1.382 . S
C37 C36 1.384 . S
C37 C38 1.378 . S
C38 C37 1.378 . S
C38 C39 1.378 . S
C38 H50 0.952 . S
C39 C38 1.378 . S
C39 H51 0.950 . S
C39 C70 1.383 . S
H40 C59 0.947 . S
H41 C60 0.946 . S
H42 C62 0.953 . S
H43 C63 0.945 . S
H44 C65 0.952 . S
H45 C66 0.949 1_556 S
H46 C68 0.950 . S
H47 C69 0.948 . S
H48 C71 0.951 . S
H49 C36 0.947 . S
H50 C38 0.952 . S
H51 C39 0.950 . S
N52 C55 1.382 . S
N52 C57 1.363 . S
N53 C55 1.371 . S
N53 C56 1.372 . S
N54 C56 1.361 . S
N54 C57 1.377 . S
C55 N52 1.382 . S
C55 N53 1.371 . S
C55 C58 1.480 . S
C56 N53 1.372 . S
C56 N54 1.361 . S
C56 C64 1.457 . S
C57 N52 1.363 . S
C57 N54 1.377 . S
C57 C70 1.479 . S
C58 C55 1.480 . S
C58 C59 1.383 . S
C58 C63 1.385 . S
C59 H40 0.947 . S
C59 C58 1.383 . S
C59 C60 1.388 . S
C60 H41 0.946 . S
C60 C59 1.388 . S
C60 C61 1.384 . S
C61 C60 1.384 . S
C61 C62 1.377 . S
C62 H42 0.953 . S
C62 C61 1.377 . S
C62 C63 1.369 . S
C63 H43 0.945 . S
C63 C58 1.385 . S
C63 C62 1.369 . S
C64 C56 1.457 . S
C64 C65 1.372 . S
C64 C69 1.364 . S
C65 H44 0.952 . S
C65 C64 1.372 . S
C65 C66 1.389 . S
C66 H45 0.949 1_554 S
C66 C65 1.389 . S
C66 C67 1.387 . S
C67 C66 1.387 . S
C67 C68 1.372 . S
C68 H46 0.950 . S
C68 C67 1.372 . S
C68 C69 1.379 . S
C69 H47 0.948 . S
C69 C64 1.364 . S
C69 C68 1.379 . S
C70 C39 1.383 . S
C70 C57 1.479 . S
C70 C71 1.398 . S
C71 C36 1.382 . S
C71 H48 0.951 . S
C71 C70 1.398 . S
C72 C73 1.384 . S
C72 H85 0.947 . S
C72 C107 1.382 . S
C73 C72 1.384 . S
C73 C74 1.378 . S
C74 C73 1.378 . S
C74 C75 1.378 . S
C74 H86 0.952 . S
C75 C74 1.378 . S
C75 H87 0.950 . S
C75 C106 1.383 . S
H76 C95 0.947 . S
H77 C96 0.946 . S
H78 C98 0.953 . S
H79 C99 0.945 . S
H80 C101 0.952 . S
H81 C102 0.949 1_556 S
H82 C104 0.950 . S
H83 C105 0.948 . S
H84 C107 0.951 . S
H85 C72 0.947 . S
H86 C74 0.952 . S
H87 C75 0.950 . S
N88 C91 1.382 . S
N88 C93 1.363 . S
N89 C91 1.371 . S
N89 C92 1.372 . S
N90 C92 1.361 . S
N90 C93 1.377 . S
C91 N88 1.382 . S
C91 N89 1.371 . S
C91 C94 1.480 . S
C92 N89 1.372 . S
C92 N90 1.361 . S
C92 C100 1.457 . S
C93 N88 1.363 . S
C93 N90 1.377 . S
C93 C106 1.479 . S
C94 C91 1.480 . S
C94 C95 1.383 . S
C94 C99 1.385 . S
C95 H76 0.947 . S
C95 C94 1.383 . S
C95 C96 1.388 . S
C96 H77 0.946 . S
C96 C95 1.388 . S
C96 C97 1.384 . S
C97 C96 1.384 . S
C97 C98 1.377 . S
C98 H78 0.953 . S
C98 C97 1.377 . S
C98 C99 1.369 . S
C99 H79 0.945 . S
C99 C94 1.385 . S
C99 C98 1.369 . S
C100 C92 1.457 . S
C100 C101 1.372 . S
C100 C105 1.364 . S
C101 H80 0.952 . S
C101 C100 1.372 . S
C101 C102 1.389 . S
C102 H81 0.949 1_554 S
C102 C101 1.389 . S
C102 C103 1.387 . S
C103 C102 1.387 . S
C103 C104 1.372 . S
C104 H82 0.950 . S
C104 C103 1.372 . S
C104 C105 1.379 . S
C105 H83 0.948 . S
C105 C100 1.364 . S
C105 C104 1.379 . S
C106 C75 1.383 . S
C106 C93 1.479 . S
C106 C107 1.398 . S
C107 C72 1.382 . S
C107 H84 0.951 . S
C107 C106 1.398 . S
C108 C109 1.384 . S
C108 H121 0.947 . S
C108 C143 1.382 . S
C109 C108 1.384 . S
C109 C110 1.378 1_554 S
C110 C109 1.378 1_556 S
C110 C111 1.378 1_556 S
C110 H122 0.952 . S
C111 C110 1.378 1_554 S
C111 H123 0.950 . S
C111 C142 1.383 . S
H112 C131 0.947 . S
H113 C132 0.946 . S
H114 C134 0.953 . S
H115 C135 0.945 . S
H116 C137 0.952 . S
H117 C138 0.949 . S
H118 C140 0.950 . S
H119 C141 0.948 . S
H120 C143 0.951 . S
H121 C108 0.947 . S
H122 C110 0.952 . S
H123 C111 0.950 . S
N124 C127 1.382 . S
N124 C129 1.363 . S
N125 C127 1.371 . S
N125 C128 1.372 . S
N126 C128 1.361 . S
N126 C129 1.377 . S
C127 N124 1.382 . S
C127 N125 1.371 . S
C127 C130 1.480 . S
C128 N125 1.372 . S
C128 N126 1.361 . S
C128 C136 1.457 . S
C129 N124 1.363 . S
C129 N126 1.377 . S
C129 C142 1.479 . S
C130 C127 1.480 . S
C130 C131 1.383 . S
C130 C135 1.385 . S
C131 H112 0.947 . S
C131 C130 1.383 . S
C131 C132 1.388 . S
C132 H113 0.946 . S
C132 C131 1.388 . S
C132 C133 1.384 . S
C133 C132 1.384 . S
C133 C134 1.377 . S
C134 H114 0.953 . S
C134 C133 1.377 . S
C134 C135 1.369 . S
C135 H115 0.945 . S
C135 C130 1.385 . S
C135 C134 1.369 . S
C136 C128 1.457 . S
C136 C137 1.372 . S
C136 C141 1.364 . S
C137 H116 0.952 . S
C137 C136 1.372 . S
C137 C138 1.389 . S
C138 H117 0.949 . S
C138 C137 1.389 . S
C138 C139 1.387 . S
C139 C138 1.387 . S
C139 C140 1.372 . S
C140 H118 0.950 . S
C140 C139 1.372 . S
C140 C141 1.379 . S
C141 H119 0.948 . S
C141 C136 1.364 . S
C141 C140 1.379 . S
C142 C111 1.383 . S
C142 C129 1.479 . S
C142 C143 1.398 . S
C143 C108 1.382 . S
C143 H120 0.951 . S
C143 C142 1.398 . S
C144 C145 1.384 . S
C144 H157 0.947 . S
C144 C179 1.382 . S
C145 C144 1.384 . S
C145 C146 1.378 . S
C146 C145 1.378 . S
C146 C147 1.378 . S
C146 H158 0.952 . S
C147 C146 1.378 . S
C147 H159 0.950 . S
C147 C178 1.383 . S
H148 C167 0.947 1_556 S
H149 C168 0.946 1_556 S
H150 C170 0.953 . S
H151 C171 0.945 . S
H152 C173 0.952 . S
H153 C174 0.949 . S
H154 C176 0.950 . S
H155 C177 0.948 . S
H156 C179 0.951 . S
H157 C144 0.947 . S
H158 C146 0.952 . S
H159 C147 0.950 . S
N160 C163 1.382 1_556 S
N160 C165 1.363 . S
N161 C163 1.371 . S
N161 C164 1.372 . S
N162 C164 1.361 . S
N162 C165 1.377 1_554 S
C163 N160 1.382 1_554 S
C163 N161 1.371 . S
C163 C166 1.480 . S
C164 N161 1.372 . S
C164 N162 1.361 . S
C164 C172 1.457 . S
C165 N160 1.363 . S
C165 N162 1.377 1_556 S
C165 C178 1.479 . S
C166 C163 1.480 . S
C166 C167 1.383 . S
C166 C171 1.385 . S
C167 H148 0.947 1_554 S
C167 C166 1.383 . S
C167 C168 1.388 . S
C168 H149 0.946 1_554 S
C168 C167 1.388 . S
C168 C169 1.384 . S
C169 C168 1.384 . S
C169 C170 1.377 . S
C170 H150 0.953 . S
C170 C169 1.377 . S
C170 C171 1.369 . S
C171 H151 0.945 . S
C171 C166 1.385 . S
C171 C170 1.369 . S
C172 C164 1.457 . S
C172 C173 1.372 . S
C172 C177 1.364 . S
C173 H152 0.952 . S
C173 C172 1.372 . S
C173 C174 1.389 . S
C174 H153 0.949 . S
C174 C173 1.389 . S
C174 C175 1.387 . S
C175 C174 1.387 . S
C175 C176 1.372 . S
C176 H154 0.950 . S
C176 C175 1.372 . S
C176 C177 1.379 . S
C177 H155 0.948 . S
C177 C172 1.364 . S
C177 C176 1.379 . S
C178 C147 1.383 . S
C178 C165 1.479 . S
C178 C179 1.398 . S
C179 C144 1.382 . S
C179 H156 0.951 . S
C179 C178 1.398 . S
C180 C181 1.384 . S
C180 H193 0.947 . S
C180 C215 1.382 . S
C181 C180 1.384 . S
C181 C182 1.378 . S
C182 C181 1.378 . S
C182 C183 1.378 . S
C182 H194 0.952 . S
C183 C182 1.378 . S
C183 H195 0.950 . S
C183 C214 1.383 . S
H184 C203 0.947 1_556 S
H185 C204 0.946 1_556 S
H186 C206 0.953 . S
H187 C207 0.945 . S
H188 C209 0.952 . S
H189 C210 0.949 . S
H190 C212 0.950 . S
H191 C213 0.948 . S
H192 C215 0.951 . S
H193 C180 0.947 . S
H194 C182 0.952 . S
H195 C183 0.950 . S
N196 C199 1.382 1_556 S
N196 C201 1.363 . S
N197 C199 1.371 . S
N197 C200 1.372 . S
N198 C200 1.361 . S
N198 C201 1.377 1_554 S
C199 N196 1.382 1_554 S
C199 N197 1.371 . S
C199 C202 1.480 . S
C200 N197 1.372 . S
C200 N198 1.361 . S
C200 C208 1.457 . S
C201 N196 1.363 . S
C201 N198 1.377 1_556 S
C201 C214 1.479 . S
C202 C199 1.480 . S
C202 C203 1.383 . S
C202 C207 1.385 . S
C203 H184 0.947 1_554 S
C203 C202 1.383 . S
C203 C204 1.388 . S
C204 H185 0.946 1_554 S
C204 C203 1.388 . S
C204 C205 1.384 . S
C205 C204 1.384 . S
C205 C206 1.377 . S
C206 H186 0.953 . S
C206 C205 1.377 . S
C206 C207 1.369 . S
C207 H187 0.945 . S
C207 C202 1.385 . S
C207 C206 1.369 . S
C208 C200 1.457 . S
C208 C209 1.372 . S
C208 C213 1.364 . S
C209 H188 0.952 . S
C209 C208 1.372 . S
C209 C210 1.389 . S
C210 H189 0.949 . S
C210 C209 1.389 . S
C210 C211 1.387 . S
C211 C210 1.387 . S
C211 C212 1.372 . S
C212 H190 0.950 . S
C212 C211 1.372 . S
C212 C213 1.379 . S
C213 H191 0.948 . S
C213 C208 1.364 . S
C213 C212 1.379 . S
C214 C183 1.383 . S
C214 C201 1.479 . S
C214 C215 1.398 . S
C215 C180 1.382 . S
C215 H192 0.951 . S
C215 C214 1.398 . S
C216 C217 1.384 . S
C216 H229 0.947 . S
C216 C251 1.382 . S
C217 C216 1.384 . S
C217 C218 1.378 . S
C218 C217 1.378 . S
C218 C219 1.378 . S
C218 H230 0.952 . S
C219 C218 1.378 . S
C219 H231 0.950 . S
C219 C250 1.383 . S
H220 C239 0.947 1_556 S
H221 C240 0.946 1_556 S
H222 C242 0.953 . S
H223 C243 0.945 . S
H224 C245 0.952 . S
H225 C246 0.949 . S
H226 C248 0.950 . S
H227 C249 0.948 . S
H228 C251 0.951 . S
H229 C216 0.947 . S
H230 C218 0.952 . S
H231 C219 0.950 . S
N232 C235 1.382 1_556 S
N232 C237 1.363 . S
N233 C235 1.371 . S
N233 C236 1.372 . S
N234 C236 1.361 . S
N234 C237 1.377 1_554 S
C235 N232 1.382 1_554 S
C235 N233 1.371 . S
C235 C238 1.480 . S
C236 N233 1.372 . S
C236 N234 1.361 . S
C236 C244 1.457 . S
C237 N232 1.363 . S
C237 N234 1.377 1_556 S
C237 C250 1.479 . S
C238 C235 1.480 . S
C238 C239 1.383 . S
C238 C243 1.385 . S
C239 H220 0.947 1_554 S
C239 C238 1.383 . S
C239 C240 1.388 . S
C240 H221 0.946 1_554 S
C240 C239 1.388 . S
C240 C241 1.384 . S
C241 C240 1.384 . S
C241 C242 1.377 . S
C242 H222 0.953 . S
C242 C241 1.377 . S
C242 C243 1.369 . S
C243 H223 0.945 . S
C243 C238 1.385 . S
C243 C242 1.369 . S
C244 C236 1.457 . S
C244 C245 1.372 . S
C244 C249 1.364 . S
C245 H224 0.952 . S
C245 C244 1.372 . S
C245 C246 1.389 . S
C246 H225 0.949 . S
C246 C245 1.389 . S
C246 C247 1.387 . S
C247 C246 1.387 . S
C247 C248 1.372 . S
C248 H226 0.950 . S
C248 C247 1.372 . S
C248 C249 1.379 . S
C249 H227 0.948 . S
C249 C244 1.364 . S
C249 C248 1.379 . S
C250 C219 1.383 . S
C250 C237 1.479 . S
C250 C251 1.398 . S
C251 C216 1.382 . S
C251 H228 0.951 . S
C251 C250 1.398 . S
C252 C253 1.384 . S
C252 H265 0.947 . S
C252 C287 1.382 . S
C253 C252 1.384 . S
C253 C254 1.378 . S
C254 C253 1.378 . S
C254 C255 1.378 . S
C254 H266 0.952 . S
C255 C254 1.378 . S
C255 H267 0.950 . S
C255 C286 1.383 . S
H256 C275 0.947 . S
H257 C276 0.946 . S
H258 C278 0.953 1_556 S
H259 C279 0.945 1_556 S
H260 C281 0.952 . S
H261 C282 0.949 . S
H262 C284 0.950 . S
H263 C285 0.948 . S
H264 C287 0.951 . S
H265 C252 0.947 . S
H266 C254 0.952 . S
H267 C255 0.950 . S
N268 C271 1.382 . S
N268 C273 1.363 . S
N269 C271 1.371 1_556 S
N269 C272 1.372 . S
N270 C272 1.361 1_554 S
N270 C273 1.377 . S
C271 N268 1.382 . S
C271 N269 1.371 1_554 S
C271 C274 1.480 . S
C272 N269 1.372 . S
C272 N270 1.361 1_556 S
C272 C280 1.457 . S
C273 N268 1.363 . S
C273 N270 1.377 . S
C273 C286 1.479 . S
C274 C271 1.480 . S
C274 C275 1.383 . S
C274 C279 1.385 . S
C275 H256 0.947 . S
C275 C274 1.383 . S
C275 C276 1.388 . S
C276 H257 0.946 . S
C276 C275 1.388 . S
C276 C277 1.384 . S
C277 C276 1.384 . S
C277 C278 1.377 . S
C278 H258 0.953 1_554 S
C278 C277 1.377 . S
C278 C279 1.369 . S
C279 H259 0.945 1_554 S
C279 C274 1.385 . S
C279 C278 1.369 . S
C280 C272 1.457 . S
C280 C281 1.372 . S
C280 C285 1.364 . S
C281 H260 0.952 . S
C281 C280 1.372 . S
C281 C282 1.389 . S
C282 H261 0.949 . S
C282 C281 1.389 . S
C282 C283 1.387 . S
C283 C282 1.387 . S
C283 C284 1.372 . S
C284 H262 0.950 . S
C284 C283 1.372 . S
C284 C285 1.379 . S
C285 H263 0.948 . S
C285 C280 1.364 . S
C285 C284 1.379 . S
C286 C255 1.383 . S
C286 C273 1.479 . S
C286 C287 1.398 . S
C287 C252 1.382 . S
C287 H264 0.951 . S
C287 C286 1.398 . S
Eu288 N319 2.657 1_565 S
Eu288 N326 2.609 . S
Eu288 O332 2.558 . S
Eu288 O333 2.612 1_455 S
Eu288 O335 2.339 1_455 S
Eu288 O336 2.563 . S
Eu288 O337 2.419 . S
Eu288 O339 2.380 1_565 S
Eu288 O340 2.432 . S
Eu288 C352 2.848 . S
C289 C292 1.429 1_545 S
C289 C293 1.411 . S
C289 N296 1.377 . S
C290 C292 1.420 . S
C290 C294 1.423 . S
C290 C302 1.392 . S
C291 C293 1.420 1_565 S
C291 C294 1.351 . S
C291 H314 0.931 . S
C292 C289 1.429 1_565 S
C292 C290 1.420 . S
C292 N300 1.364 . S
C293 C289 1.411 . S
C293 C291 1.420 1_545 S
C293 C298 1.395 . S
C294 C290 1.423 . S
C294 C291 1.351 . S
C294 H306 0.930 . S
C295 C297 1.400 . S
C295 C298 1.386 . S
C295 H307 0.930 . S
N296 C289 1.377 . S
N296 C297 1.321 . S
N296 Eu299 2.609 . S
C297 C295 1.400 . S
C297 N296 1.321 . S
C297 H304 0.930 . S
C298 C293 1.395 . S
C298 C295 1.386 . S
C298 H317 0.930 . S
Eu299 N296 2.609 . S
Eu299 N300 2.651 1_545 S
Eu299 O333 2.380 1_545 S
Eu299 O334 2.432 . S
Eu299 O338 2.558 . S
Eu299 O339 2.612 1_655 S
Eu299 O341 2.339 1_655 S
Eu299 O342 2.563 1_655 S
Eu299 O343 2.419 . S
Eu299 C363 2.848 . S
N300 C292 1.364 . S
N300 Eu299 2.651 1_565 S
N300 C301 1.338 1_655 S
C301 N300 1.338 1_455 S
C301 C303 1.413 1_455 S
C301 H308 0.929 . S
C302 C290 1.392 . S
C302 C303 1.378 . S
C302 H310 0.930 . S
C303 C301 1.413 1_655 S
C303 C302 1.378 . S
C303 H305 0.921 1_655 S
H304 C297 0.930 . S
H305 C303 0.921 1_455 S
H306 C294 0.930 . S
H307 C295 0.930 . S
H308 C301 0.929 . S
H309 C323 0.930 1_655 S
H310 C302 0.930 . S
H311 C329 0.930 . S
H312 C320 0.929 1_655 S
H313 C327 0.930 . S
H314 C291 0.931 . S
H315 C321 0.930 . S
H316 C354 0.930 . S
H317 C298 0.930 . S
H318 C353 0.931 . S
N319 Eu288 2.657 1_545 S
N319 C320 1.334 . S
N319 C324 1.362 . S
C320 H312 0.929 1_455 S
C320 N319 1.334 . S
C320 C323 1.413 . S
C321 H315 0.930 . S
C321 C322 1.392 . S
C321 C323 1.367 . S
C322 C321 1.392 . S
C322 C324 1.420 . S
C322 C354 1.423 . S
C323 H309 0.930 1_455 S
C323 C320 1.413 . S
C323 C321 1.367 . S
C324 N319 1.362 . S
C324 C322 1.420 . S
C324 C328 1.429 . S
H325 C330 0.928 . S
N326 Eu288 2.609 . S
N326 C328 1.377 1_565 S
N326 C329 1.321 . S
C327 H313 0.930 . S
C327 C329 1.400 . S
C327 C330 1.405 . S
C328 C324 1.429 . S
C328 N326 1.377 1_545 S
C328 C331 1.411 . S
C329 H311 0.930 . S
C329 N326 1.321 . S
C329 C327 1.400 . S
C330 H325 0.928 . S
C330 C327 1.405 . S
C330 C331 1.378 1_565 S
C331 C328 1.411 . S
C331 C330 1.378 1_545 S
C331 C353 1.420 . S
O332 Eu288 2.558 . S
O332 C352 1.257 . S
O333 Eu288 2.612 1_655 S
O333 Eu299 2.380 1_565 S
O333 C344 1.276 . S
O334 Eu299 2.432 . S
O334 C351 1.264 . S
O335 Eu288 2.339 1_655 S
O335 C351 1.254 1_565 S
O336 Eu288 2.563 . S
O336 C344 1.235 1_455 S
O337 Eu288 2.419 . S
O337 C352 1.249 . S
O338 Eu299 2.558 . S
O338 C363 1.257 . S
O339 Eu288 2.380 1_545 S
O339 Eu299 2.612 1_455 S
O339 C355 1.276 . S
O340 Eu288 2.432 . S
O340 C362 1.264 1_565 S
O341 Eu299 2.339 1_455 S
O341 C362 1.254 . S
O342 Eu299 2.563 1_455 S
O342 C355 1.235 . S
O343 Eu299 2.419 . S
O343 C363 1.249 . S
C344 O333 1.276 . S
C344 O336 1.235 1_655 S
C345 C347 1.393 . S
C345 C349 1.395 . S
C345 C352 1.492 . S
C346 C347 1.392 . S
C346 C348 1.386 . S
C347 C345 1.393 . S
C347 C346 1.392 . S
C347 H364 0.934 1_455 S
C348 C346 1.386 . S
C348 C350 1.395 . S
C348 H365 0.930 . S
C349 C345 1.395 . S
C349 C350 1.379 . S
C349 H366 0.930 . S
C350 C348 1.395 . S
C350 C349 1.379 . S
C350 H367 0.930 . S
C351 O334 1.264 . S
C351 O335 1.254 1_545 S
C352 Eu288 2.848 . S
C352 O332 1.257 . S
C352 O337 1.249 . S
C352 C345 1.492 . S
C353 H318 0.931 . S
C353 C331 1.420 . S
C353 C354 1.351 . S
C354 H316 0.930 . S
C354 C322 1.423 . S
C354 C353 1.351 . S
C355 O339 1.276 . S
C355 O342 1.235 . S
C356 C357 1.393 . S
C356 C360 1.395 . S
C356 C363 1.492 . S
C357 C356 1.393 . S
C357 C358 1.392 . S
C357 H368 0.930 1_655 S
C358 C357 1.392 . S
C358 C359 1.386 . S
C359 C358 1.386 . S
C359 C361 1.395 . S
C359 H369 0.930 . S
C360 C356 1.395 . S
C360 C361 1.379 . S
C360 H370 0.930 . S
C361 C359 1.395 . S
C361 C360 1.379 . S
C361 H371 0.930 . S
C362 O340 1.264 1_545 S
C362 O341 1.254 . S
C363 Eu299 2.848 . S
C363 O338 1.257 . S
C363 O343 1.249 . S
C363 C356 1.492 . S
H364 C347 0.934 1_655 S
H365 C348 0.930 . S
H366 C349 0.930 . S
H367 C350 0.930 . S
H368 C357 0.930 1_455 S
H369 C359 0.930 . S
H370 C360 0.930 . S
H371 C361 0.930 . S
Eu372 N403 2.657 . S
Eu372 N410 2.609 . S
Eu372 O416 2.558 . S
Eu372 O417 2.612 1_545 S
Eu372 O419 2.339 1_545 S
Eu372 O420 2.563 . S
Eu372 O421 2.419 . S
Eu372 O423 2.380 . S
Eu372 O424 2.432 . S
Eu372 C436 2.848 . S
C373 C376 1.429 . S
C373 C377 1.411 . S
C373 N380 1.377 . S
C374 C376 1.420 . S
C374 C378 1.423 . S
C374 C386 1.392 . S
C375 C377 1.420 . S
C375 C378 1.351 . S
C375 H398 0.931 . S
C376 C373 1.429 . S
C376 C374 1.420 . S
C376 N384 1.362 . S
C377 C373 1.411 . S
C377 C375 1.420 . S
C377 C382 1.395 . S
C378 C374 1.423 . S
C378 C375 1.351 . S
C378 H390 0.930 . S
C379 C381 1.400 . S
C379 C382 1.386 . S
C379 H391 0.930 . S
N380 C373 1.377 . S
N380 C381 1.321 . S
N380 Eu383 2.609 . S
C381 C379 1.400 . S
C381 N380 1.321 . S
C381 H388 0.930 . S
C382 C377 1.395 . S
C382 C379 1.386 . S
C382 H401 0.930 . S
Eu383 N380 2.609 . S
Eu383 N384 2.657 . S
Eu383 O417 2.380 . S
Eu383 O418 2.432 . S
Eu383 O422 2.558 . S
Eu383 O423 2.612 1_565 S
Eu383 O425 2.339 1_565 S
Eu383 O426 2.563 1_565 S
Eu383 O427 2.419 . S
Eu383 C447 2.848 . S
N384 C376 1.362 . S
N384 Eu383 2.657 . S
N384 C385 1.334 1_565 S
C385 N384 1.334 1_545 S
C385 C387 1.413 . S
C385 H392 0.929 . S
C386 C374 1.392 . S
C386 C387 1.367 1_565 S
C386 H394 0.930 . S
C387 C385 1.413 . S
C387 C386 1.367 1_545 S
C387 H389 0.930 . S
H388 C381 0.930 . S
H389 C387 0.930 . S
H390 C378 0.930 . S
H391 C379 0.930 . S
H392 C385 0.929 . S
H393 C407 0.930 1_565 S
H394 C386 0.930 . S
H395 C413 0.930 . S
H396 C404 0.929 1_565 S
H397 C411 0.930 . S
H398 C375 0.931 . S
H399 C405 0.930 . S
H400 C438 0.930 . S
H401 C382 0.930 . S
H402 C437 0.931 . S
N403 Eu372 2.657 . S
N403 C404 1.334 . S
N403 C408 1.362 . S
C404 H396 0.929 1_545 S
C404 N403 1.334 . S
C404 C407 1.413 . S
C405 H399 0.930 . S
C405 C406 1.392 . S
C405 C407 1.367 . S
C406 C405 1.392 . S
C406 C408 1.420 . S
C406 C438 1.423 . S
C407 H393 0.930 1_545 S
C407 C404 1.413 . S
C407 C405 1.367 . S
C408 N403 1.362 . S
C408 C406 1.420 . S
C408 C412 1.429 . S
H409 C414 0.930 . S
N410 Eu372 2.609 . S
N410 C412 1.377 . S
N410 C413 1.321 . S
C411 H397 0.930 . S
C411 C413 1.400 . S
C411 C414 1.386 . S
C412 C408 1.429 . S
C412 N410 1.377 . S
C412 C415 1.411 . S
C413 H395 0.930 . S
C413 N410 1.321 . S
C413 C411 1.400 . S
C414 H409 0.930 . S
C414 C411 1.386 . S
C414 C415 1.395 . S
C415 C412 1.411 . S
C415 C414 1.395 . S
C415 C437 1.420 . S
O416 Eu372 2.558 . S
O416 C436 1.257 . S
O417 Eu372 2.612 1_565 S
O417 Eu383 2.380 . S
O417 C428 1.276 . S
O418 Eu383 2.432 . S
O418 C435 1.264 . S
O419 Eu372 2.339 1_565 S
O419 C435 1.254 . S
O420 Eu372 2.563 . S
O420 C428 1.235 1_545 S
O421 Eu372 2.419 . S
O421 C436 1.249 . S
O422 Eu383 2.558 . S
O422 C447 1.257 . S
O423 Eu372 2.380 . S
O423 Eu383 2.612 1_545 S
O423 C439 1.276 . S
O424 Eu372 2.432 . S
O424 C446 1.264 . S
O425 Eu383 2.339 1_545 S
O425 C446 1.254 . S
O426 Eu383 2.563 1_545 S
O426 C439 1.235 . S
O427 Eu383 2.419 . S
O427 C447 1.249 . S
C428 O417 1.276 . S
C428 O420 1.235 1_565 S
C429 C431 1.393 . S
C429 C433 1.395 . S
C429 C436 1.492 . S
C430 C431 1.392 . S
C430 C432 1.386 . S
C431 C429 1.393 . S
C431 C430 1.392 . S
C431 H448 0.930 . S
C432 C430 1.386 . S
C432 C434 1.395 . S
C432 H449 0.930 . S
C433 C429 1.395 . S
C433 C434 1.379 . S
C433 H450 0.930 . S
C434 C432 1.395 . S
C434 C433 1.379 . S
C434 H451 0.930 . S
C435 O418 1.264 . S
C435 O419 1.254 . S
C436 Eu372 2.848 . S
C436 O416 1.257 . S
C436 O421 1.249 . S
C436 C429 1.492 . S
C437 H402 0.931 . S
C437 C415 1.420 . S
C437 C438 1.351 . S
C438 H400 0.930 . S
C438 C406 1.423 . S
C438 C437 1.351 . S
C439 O423 1.276 . S
C439 O426 1.235 . S
C440 C441 1.393 . S
C440 C444 1.395 . S
C440 C447 1.492 . S
C441 C440 1.393 . S
C441 C442 1.392 . S
C441 H452 0.930 1_565 S
C442 C441 1.392 . S
C442 C443 1.386 . S
C443 C442 1.386 . S
C443 C445 1.395 . S
C443 H453 0.930 . S
C444 C440 1.395 . S
C444 C445 1.379 . S
C444 H454 0.930 . S
C445 C443 1.395 . S
C445 C444 1.379 . S
C445 H455 0.930 . S
C446 O424 1.264 . S
C446 O425 1.254 . S
C447 Eu383 2.848 . S
C447 O422 1.257 . S
C447 O427 1.249 . S
C447 C440 1.492 . S
H448 C431 0.930 . S
H449 C432 0.930 . S
H450 C433 0.930 . S
H451 C434 0.930 . S
H452 C441 0.930 1_545 S
H453 C443 0.930 . S
H454 C444 0.930 . S
H455 C445 0.930 . S
Eu456 N487 2.657 . S
Eu456 N494 2.609 . S
Eu456 O500 2.558 . S
Eu456 O501 2.612 . S
Eu456 O503 2.339 . S
Eu456 O504 2.563 . S
Eu456 O505 2.419 . S
Eu456 O507 2.380 . S
Eu456 O508 2.432 . S
Eu456 C520 2.848 . S
C457 C460 1.429 . S
C457 C461 1.411 . S
C457 N464 1.377 . S
C458 C460 1.420 . S
C458 C462 1.423 . S
C458 C470 1.392 . S
C459 C461 1.420 . S
C459 C462 1.351 . S
C459 H482 0.931 . S
C460 C457 1.429 . S
C460 C458 1.420 . S
C460 N468 1.362 . S
C461 C457 1.411 . S
C461 C459 1.420 . S
C461 C466 1.395 . S
C462 C458 1.423 . S
C462 C459 1.351 . S
C462 H474 0.930 . S
C463 C465 1.400 . S
C463 C466 1.386 . S
C463 H475 0.930 . S
N464 C457 1.377 . S
N464 C465 1.321 . S
N464 Eu467 2.609 . S
C465 C463 1.400 . S
C465 N464 1.321 . S
C465 H472 0.930 . S
C466 C461 1.395 . S
C466 C463 1.386 . S
C466 H485 0.930 . S
Eu467 N464 2.609 . S
Eu467 N468 2.657 . S
Eu467 O501 2.380 . S
Eu467 O502 2.432 . S
Eu467 O506 2.558 . S
Eu467 O507 2.612 . S
Eu467 O509 2.339 . S
Eu467 O510 2.563 . S
Eu467 O511 2.419 . S
Eu467 C531 2.848 . S
N468 C460 1.362 . S
N468 Eu467 2.657 . S
N468 C469 1.334 . S
C469 N468 1.334 . S
C469 C471 1.413 . S
C469 H476 0.929 . S
C470 C458 1.392 . S
C470 C471 1.367 . S
C470 H478 0.930 . S
C471 C469 1.413 . S
C471 C470 1.367 . S
C471 H473 0.930 . S
H472 C465 0.930 . S
H473 C471 0.930 . S
H474 C462 0.930 . S
H475 C463 0.930 . S
H476 C469 0.929 . S
H477 C491 0.930 . S
H478 C470 0.930 . S
H479 C497 0.930 . S
H480 C488 0.929 . S
H481 C495 0.930 . S
H482 C459 0.931 . S
H483 C489 0.930 . S
H484 C522 0.930 . S
H485 C466 0.930 . S
H486 C521 0.931 . S
N487 Eu456 2.657 . S
N487 C488 1.334 . S
N487 C492 1.362 . S
C488 H480 0.929 . S
C488 N487 1.334 . S
C488 C491 1.413 . S
C489 H483 0.930 . S
C489 C490 1.392 . S
C489 C491 1.367 . S
C490 C489 1.392 . S
C490 C492 1.420 . S
C490 C522 1.423 . S
C491 H477 0.930 . S
C491 C488 1.413 . S
C491 C489 1.367 . S
C492 N487 1.362 . S
C492 C490 1.420 . S
C492 C496 1.429 . S
H493 C498 0.930 . S
N494 Eu456 2.609 . S
N494 C496 1.377 . S
N494 C497 1.321 . S
C495 H481 0.930 . S
C495 C497 1.400 . S
C495 C498 1.386 . S
C496 C492 1.429 . S
C496 N494 1.377 . S
C496 C499 1.411 . S
C497 H479 0.930 . S
C497 N494 1.321 . S
C497 C495 1.400 . S
C498 H493 0.930 . S
C498 C495 1.386 . S
C498 C499 1.395 . S
C499 C496 1.411 . S
C499 C498 1.395 . S
C499 C521 1.420 . S
O500 Eu456 2.558 . S
O500 C520 1.257 . S
O501 Eu456 2.612 . S
O501 Eu467 2.380 . S
O501 C512 1.276 . S
O502 Eu467 2.432 . S
O502 C519 1.264 . S
O503 Eu456 2.339 . S
O503 C519 1.254 . S
O504 Eu456 2.563 . S
O504 C512 1.235 . S
O505 Eu456 2.419 . S
O505 C520 1.249 . S
O506 Eu467 2.558 . S
O506 C531 1.257 . S
O507 Eu456 2.380 . S
O507 Eu467 2.612 . S
O507 C523 1.276 . S
O508 Eu456 2.432 . S
O508 C530 1.264 . S
O509 Eu467 2.339 . S
O509 C530 1.254 . S
O510 Eu467 2.563 . S
O510 C523 1.235 . S
O511 Eu467 2.419 . S
O511 C531 1.249 . S
C512 O501 1.276 . S
C512 O504 1.235 . S
C513 C515 1.393 . S
C513 C517 1.395 . S
C513 C520 1.492 . S
C514 C515 1.392 . S
C514 C516 1.386 . S
C515 C513 1.393 . S
C515 C514 1.392 . S
C515 H532 0.930 . S
C516 C514 1.386 . S
C516 C518 1.395 . S
C516 H533 0.930 . S
C517 C513 1.395 . S
C517 C518 1.379 . S
C517 H534 0.930 . S
C518 C516 1.395 . S
C518 C517 1.379 . S
C518 H535 0.930 . S
C519 O502 1.264 . S
C519 O503 1.254 . S
C520 Eu456 2.848 . S
C520 O500 1.257 . S
C520 O505 1.249 . S
C520 C513 1.492 . S
C521 H486 0.931 . S
C521 C499 1.420 . S
C521 C522 1.351 . S
C522 H484 0.930 . S
C522 C490 1.423 . S
C522 C521 1.351 . S
C523 O507 1.276 . S
C523 O510 1.235 . S
C524 C525 1.393 . S
C524 C528 1.395 . S
C524 C531 1.492 . S
C525 C524 1.393 . S
C525 C526 1.392 . S
C525 H536 0.930 . S
C526 C525 1.392 . S
C526 C527 1.386 . S
C527 C526 1.386 . S
C527 C529 1.395 . S
C527 H537 0.930 . S
C528 C524 1.395 . S
C528 C529 1.379 . S
C528 H538 0.930 . S
C529 C527 1.395 . S
C529 C528 1.379 . S
C529 H539 0.930 . S
C530 O508 1.264 . S
C530 O509 1.254 . S
C531 Eu467 2.848 . S
C531 O506 1.257 . S
C531 O511 1.249 . S
C531 C524 1.492 . S
H532 C515 0.930 . S
H533 C516 0.930 . S
H534 C517 0.930 . S
H535 C518 0.930 . S
H536 C525 0.930 . S
H537 C527 0.930 . S
H538 C528 0.930 . S
H539 C529 0.930 . S
Eu540 N571 2.657 . S
Eu540 N578 2.609 . S
Eu540 O584 2.558 . S
Eu540 O585 2.612 . S
Eu540 O587 2.339 . S
Eu540 O588 2.563 . S
Eu540 O589 2.419 . S
Eu540 O591 2.382 . S
Eu540 O592 2.432 1_455 S
Eu540 C604 2.848 . S
C541 C544 1.429 . S
C541 C545 1.411 . S
C541 N548 1.377 . S
C542 C544 1.420 . S
C542 C546 1.423 . S
C542 C554 1.392 . S
C543 C545 1.420 . S
C543 C546 1.351 . S
C543 H566 0.931 . S
C544 C541 1.429 . S
C544 C542 1.420 . S
C544 N552 1.362 . S
C545 C541 1.411 . S
C545 C543 1.420 . S
C545 C550 1.395 . S
C546 C542 1.423 . S
C546 C543 1.351 . S
C546 H558 0.930 . S
C547 C549 1.400 . S
C547 C550 1.386 1_455 S
C547 H559 0.930 . S
N548 C541 1.377 . S
N548 C549 1.321 1_655 S
N548 Eu551 2.609 . S
C549 C547 1.400 . S
C549 N548 1.321 1_455 S
C549 H556 0.930 . S
C550 C545 1.395 . S
C550 C547 1.386 1_655 S
C550 H569 0.930 . S
Eu551 N548 2.609 . S
Eu551 N552 2.657 . S
Eu551 O585 2.380 1_655 S
Eu551 O586 2.432 1_655 S
Eu551 O590 2.558 . S
Eu551 O591 2.612 1_655 S
Eu551 O593 2.339 . S
Eu551 O594 2.563 . S
Eu551 O595 2.419 . S
Eu551 C615 2.848 . S
N552 C544 1.362 . S
N552 Eu551 2.657 . S
N552 C553 1.334 . S
C553 N552 1.334 . S
C553 C555 1.413 . S
C553 H560 0.929 . S
C554 C542 1.392 . S
C554 C555 1.367 . S
C554 H562 0.930 . S
C555 C553 1.413 . S
C555 C554 1.367 . S
C555 H557 0.930 . S
H556 C549 0.930 . S
H557 C555 0.930 . S
H558 C546 0.930 . S
H559 C547 0.930 . S
H560 C553 0.929 . S
H561 C575 0.930 . S
H562 C554 0.930 . S
H563 C581 0.930 1_655 S
H564 C572 0.929 . S
H565 C579 0.931 . S
H566 C543 0.931 . S
H567 C573 0.930 . S
H568 C606 0.930 . S
H569 C550 0.930 . S
H570 C605 0.931 . S
N571 Eu540 2.657 . S
N571 C572 1.334 . S
N571 C576 1.362 . S
C572 H564 0.929 . S
C572 N571 1.334 . S
C572 C575 1.413 . S
C573 H567 0.930 . S
C573 C574 1.392 . S
C573 C575 1.367 . S
C574 C573 1.392 . S
C574 C576 1.420 . S
C574 C606 1.423 . S
C575 H561 0.930 . S
C575 C572 1.413 . S
C575 C573 1.367 . S
C576 N571 1.362 . S
C576 C574 1.420 . S
C576 C580 1.429 . S
H577 C582 0.930 . S
N578 Eu540 2.609 . S
N578 C580 1.377 . S
N578 C581 1.321 . S
C579 H565 0.931 . S
C579 C581 1.399 1_655 S
C579 C582 1.384 1_655 S
C580 C576 1.429 . S
C580 N578 1.377 . S
C580 C583 1.411 . S
C581 H563 0.930 1_455 S
C581 N578 1.321 . S
C581 C579 1.399 1_455 S
C582 H577 0.930 . S
C582 C579 1.384 1_455 S
C582 C583 1.395 . S
C583 C580 1.411 . S
C583 C582 1.395 . S
C583 C605 1.420 . S
O584 Eu540 2.558 . S
O584 C604 1.257 . S
O585 Eu540 2.612 . S
O585 Eu551 2.380 1_455 S
O585 C596 1.276 . S
O586 Eu551 2.432 1_455 S
O586 C603 1.264 . S
O587 Eu540 2.339 . S
O587 C603 1.254 . S
O588 Eu540 2.563 . S
O588 C596 1.235 . S
O589 Eu540 2.419 . S
O589 C604 1.249 . S
O590 Eu551 2.558 . S
O590 C615 1.257 . S
O591 Eu540 2.382 . S
O591 Eu551 2.612 1_455 S
O591 C607 1.275 1_455 S
O592 Eu540 2.432 1_655 S
O592 C614 1.264 . S
O593 Eu551 2.339 . S
O593 C614 1.254 . S
O594 Eu551 2.563 . S
O594 C607 1.235 . S
O595 Eu551 2.419 . S
O595 C615 1.249 . S
C596 O585 1.276 . S
C596 O588 1.235 . S
C597 C599 1.393 . S
C597 C601 1.395 . S
C597 C604 1.492 . S
C598 C599 1.392 . S
C598 C600 1.386 . S
C599 C597 1.393 . S
C599 C598 1.392 . S
C599 H616 0.930 . S
C600 C598 1.386 . S
C600 C602 1.395 . S
C600 H617 0.930 . S
C601 C597 1.395 . S
C601 C602 1.379 . S
C601 H618 0.930 . S
C602 C600 1.395 . S
C602 C601 1.379 . S
C602 H619 0.930 . S
C603 O586 1.264 . S
C603 O587 1.254 . S
C604 Eu540 2.848 . S
C604 O584 1.257 . S
C604 O589 1.249 . S
C604 C597 1.492 . S
C605 H570 0.931 . S
C605 C583 1.420 . S
C605 C606 1.351 . S
C606 H568 0.930 . S
C606 C574 1.423 . S
C606 C605 1.351 . S
C607 O591 1.275 1_655 S
C607 O594 1.235 . S
C608 C609 1.393 . S
C608 C612 1.395 . S
C608 C615 1.492 . S
C609 C608 1.393 . S
C609 C610 1.392 . S
C609 H620 0.930 . S
C610 C609 1.392 . S
C610 C611 1.386 . S
C611 C610 1.386 . S
C611 C613 1.395 . S
C611 H621 0.930 . S
C612 C608 1.395 . S
C612 C613 1.379 . S
C612 H622 0.930 . S
C613 C611 1.395 . S
C613 C612 1.379 . S
C613 H623 0.930 . S
C614 O592 1.264 . S
C614 O593 1.254 . S
C615 Eu551 2.848 . S
C615 O590 1.257 . S
C615 O595 1.249 . S
C615 C608 1.492 . S
H616 C599 0.930 . S
H617 C600 0.930 . S
H618 C601 0.930 . S
H619 C602 0.930 . S
H620 C609 0.930 . S
H621 C611 0.930 . S
H622 C612 0.930 . S
H623 C613 0.930 . S
H624 C636 0.930 . S
H625 C638 0.930 . S
H626 C639 0.930 . S
H627 C643 0.959 . S
H628 C643 0.959 1_565 S
H629 C643 0.961 . S
H630 C644 0.960 . S
H631 C644 0.961 . S
H632 C644 0.963 . S
H633 C647 0.929 . S
H634 C648 0.931 . S
H635 C650 0.930 . S
C636 H624 0.930 . S
C636 C637 1.399 . S
C636 C641 1.399 . S
C637 C636 1.399 . S
C637 C638 1.376 . S
C638 H625 0.930 . S
C638 C637 1.376 . S
C638 C639 1.388 . S
C639 H626 0.930 . S
C639 C638 1.388 . S
C639 C640 1.390 . S
C640 C639 1.390 . S
C640 C641 1.394 . S
C640 C646 1.465 . S
C641 C636 1.399 . S
C641 C640 1.394 . S
C641 C642 1.516 . S
C642 C641 1.516 . S
C642 C643 1.502 . S
C642 C644 1.561 1_545 S
C642 C645 1.526 . S
C643 H627 0.959 . S
C643 H628 0.959 1_545 S
C643 H629 0.961 . S
C643 C642 1.502 . S
C644 H630 0.960 . S
C644 H631 0.961 . S
C644 H632 0.963 . S
C644 C642 1.561 1_565 S
C645 C642 1.526 . S
C645 C646 1.396 . S
C645 C650 1.390 . S
C646 C640 1.465 . S
C646 C645 1.396 . S
C646 C647 1.399 . S
C647 H633 0.929 . S
C647 C646 1.399 . S
C647 C648 1.385 . S
C648 H634 0.931 . S
C648 C647 1.385 . S
C648 C649 1.389 . S
C649 C648 1.389 . S
C649 C650 1.387 . S
C650 H635 0.930 . S
C650 C645 1.390 . S
C650 C649 1.387 . S
H651 C663 0.930 . S
H652 C665 0.930 . S
H653 C666 0.930 . S
H654 C670 0.959 . S
H655 C670 0.959 . S
H656 C670 0.961 . S
H657 C671 0.960 . S
H658 C671 0.961 . S
H659 C671 0.959 . S
H660 C674 0.929 . S
H661 C675 0.931 . S
H662 C677 0.930 . S
C663 H651 0.930 . S
C663 C664 1.399 . S
C663 C668 1.399 . S
C664 C663 1.399 . S
C664 C665 1.376 . S
C665 H652 0.930 . S
C665 C664 1.376 . S
C665 C666 1.388 . S
C666 H653 0.930 . S
C666 C665 1.388 . S
C666 C667 1.390 . S
C667 C666 1.390 . S
C667 C668 1.394 . S
C667 C673 1.465 . S
C668 C663 1.399 . S
C668 C667 1.394 . S
C668 C669 1.516 . S
C669 C668 1.516 . S
C669 C670 1.502 . S
C669 C671 1.561 . S
C669 C672 1.526 . S
C670 H654 0.959 . S
C670 H655 0.959 . S
C670 H656 0.961 . S
C670 C669 1.502 . S
C671 H657 0.960 . S
C671 H658 0.961 . S
C671 H659 0.959 . S
C671 C669 1.561 . S
C672 C669 1.526 . S
C672 C673 1.396 . S
C672 C677 1.390 . S
C673 C667 1.465 . S
C673 C672 1.396 . S
C673 C674 1.399 . S
C674 H660 0.929 . S
C674 C673 1.399 . S
C674 C675 1.385 . S
C675 H661 0.931 . S
C675 C674 1.385 . S
C675 C676 1.389 . S
C676 C675 1.389 . S
C676 C677 1.387 . S
C677 H662 0.930 . S
C677 C672 1.390 . S
C677 C676 1.387 . S
H678 C690 0.930 . S
H679 C692 0.930 . S
H680 C693 0.930 . S
H681 C697 0.959 . S
H682 C697 0.959 . S
H683 C697 0.961 . S
H684 C698 0.960 . S
H685 C698 0.961 . S
H686 C698 0.959 . S
H687 C701 0.929 . S
H688 C702 0.931 . S
H689 C704 0.930 . S
C690 H678 0.930 . S
C690 C691 1.399 . S
C690 C695 1.399 . S
C691 C690 1.399 . S
C691 C692 1.376 . S
C692 H679 0.930 . S
C692 C691 1.376 . S
C692 C693 1.388 . S
C693 H680 0.930 . S
C693 C692 1.388 . S
C693 C694 1.390 . S
C694 C693 1.390 . S
C694 C695 1.394 . S
C694 C700 1.465 . S
C695 C690 1.399 . S
C695 C694 1.394 . S
C695 C696 1.516 . S
C696 C695 1.516 . S
C696 C697 1.502 . S
C696 C698 1.561 . S
C696 C699 1.526 . S
C697 H681 0.959 . S
C697 H682 0.959 . S
C697 H683 0.961 . S
C697 C696 1.502 . S
C698 H684 0.960 . S
C698 H685 0.961 . S
C698 H686 0.959 . S
C698 C696 1.561 . S
C699 C696 1.526 . S
C699 C700 1.396 . S
C699 C704 1.390 . S
C700 C694 1.465 . S
C700 C699 1.396 . S
C700 C701 1.399 . S
C701 H687 0.929 . S
C701 C700 1.399 . S
C701 C702 1.385 . S
C702 H688 0.931 . S
C702 C701 1.385 . S
C702 C703 1.389 . S
C703 C702 1.389 . S
C703 C704 1.387 . S
C704 H689 0.930 . S
C704 C699 1.390 . S
C704 C703 1.387 . S
H705 C717 0.930 . S
H706 C719 0.930 . S
H707 C720 0.930 . S
H708 C724 0.959 . S
H709 C724 0.959 . S
H710 C724 0.961 . S
H711 C725 0.960 . S
H712 C725 0.961 . S
H713 C725 0.959 . S
H714 C728 0.929 . S
H715 C729 0.931 . S
H716 C731 0.930 . S
C717 H705 0.930 . S
C717 C718 1.399 . S
C717 C722 1.399 . S
C718 C717 1.399 . S
C718 C719 1.376 . S
C719 H706 0.930 . S
C719 C718 1.376 . S
C719 C720 1.388 . S
C720 H707 0.930 . S
C720 C719 1.388 . S
C720 C721 1.390 . S
C721 C720 1.390 . S
C721 C722 1.394 . S
C721 C727 1.465 . S
C722 C717 1.399 . S
C722 C721 1.394 . S
C722 C723 1.516 . S
C723 C722 1.516 . S
C723 C724 1.502 . S
C723 C725 1.561 . S
C723 C726 1.526 . S
C724 H708 0.959 . S
C724 H709 0.959 . S
C724 H710 0.961 . S
C724 C723 1.502 . S
C725 H711 0.960 . S
C725 H712 0.961 . S
C725 H713 0.959 . S
C725 C723 1.561 . S
C726 C723 1.526 . S
C726 C727 1.396 . S
C726 C731 1.390 . S
C727 C721 1.465 . S
C727 C726 1.396 . S
C727 C728 1.399 . S
C728 H714 0.929 . S
C728 C727 1.399 . S
C728 C729 1.385 . S
C729 H715 0.931 . S
C729 C728 1.385 . S
C729 C730 1.389 . S
C730 C729 1.389 . S
C730 C731 1.387 . S
C731 H716 0.930 . S
C731 C726 1.390 . S
C731 C730 1.387 . S
H732 C744 0.930 . S
H733 C746 0.930 . S
H734 C747 0.930 . S
H735 C751 0.959 1_565 S
H736 C751 0.959 . S
H737 C751 0.961 . S
H738 C752 0.960 1_554 S
H739 C752 0.961 . S
H740 C752 0.959 . S
H741 C755 0.929 . S
H742 C756 0.931 . S
H743 C758 0.930 1_545 S
C744 H732 0.930 . S
C744 C745 1.399 . S
C744 C749 1.399 1_554 S
C745 C744 1.399 . S
C745 C746 1.376 . S
C746 H733 0.930 . S
C746 C745 1.376 . S
C746 C747 1.388 1_554 S
C747 H734 0.930 . S
C747 C746 1.388 1_556 S
C747 C748 1.390 . S
C748 C747 1.390 . S
C748 C749 1.394 . S
C748 C754 1.465 . S
C749 C744 1.399 1_556 S
C749 C748 1.394 . S
C749 C750 1.516 . S
C750 C749 1.516 . S
C750 C751 1.502 1_565 S
C750 C752 1.561 1_565 S
C750 C753 1.526 . S
C751 H735 0.959 1_545 S
C751 H736 0.959 . S
C751 H737 0.961 . S
C751 C750 1.502 1_545 S
C752 H738 0.960 1_556 S
C752 H739 0.961 . S
C752 H740 0.959 . S
C752 C750 1.561 1_545 S
C753 C750 1.526 . S
C753 C754 1.396 . S
C753 C758 1.390 . S
C754 C748 1.465 . S
C754 C753 1.396 . S
C754 C755 1.399 . S
C755 H741 0.929 . S
C755 C754 1.399 . S
C755 C756 1.385 . S
C756 H742 0.931 . S
C756 C755 1.385 . S
C756 C757 1.389 . S
C757 C756 1.389 . S
C757 C758 1.387 . S
C758 H743 0.930 1_565 S
C758 C753 1.390 . S
C758 C757 1.387 . S
H759 C771 0.930 . S
H760 C773 0.930 . S
H761 C774 0.930 . S
H762 C778 0.959 . S
H763 C778 0.959 . S
H764 C778 0.961 1_554 S
H765 C779 0.960 1_554 S
H766 C779 0.961 . S
H767 C779 0.959 . S
H768 C782 0.929 . S
H769 C783 0.931 . S
H770 C785 0.930 . S
C771 H759 0.930 . S
C771 C772 1.399 . S
C771 C776 1.399 1_554 S
C772 C771 1.399 . S
C772 C773 1.376 . S
C773 H760 0.930 . S
C773 C772 1.376 . S
C773 C774 1.388 1_554 S
C774 H761 0.930 . S
C774 C773 1.388 1_556 S
C774 C775 1.390 . S
C775 C774 1.390 . S
C775 C776 1.394 . S
C775 C781 1.465 . S
C776 C771 1.399 1_556 S
C776 C775 1.394 . S
C776 C777 1.516 . S
C777 C776 1.516 . S
C777 C778 1.502 . S
C777 C779 1.561 . S
C777 C780 1.526 . S
C778 H762 0.959 . S
C778 H763 0.959 . S
C778 H764 0.961 1_556 S
C778 C777 1.502 . S
C779 H765 0.960 1_556 S
C779 H766 0.961 . S
C779 H767 0.959 . S
C779 C777 1.561 . S
C780 C777 1.526 . S
C780 C781 1.396 . S
C780 C785 1.390 . S
C781 C775 1.465 . S
C781 C780 1.396 . S
C781 C782 1.399 . S
C782 H768 0.929 . S
C782 C781 1.399 . S
C782 C783 1.385 . S
C783 H769 0.931 . S
C783 C782 1.385 . S
C783 C784 1.389 . S
C784 C783 1.389 . S
C784 C785 1.387 . S
C785 H770 0.930 . S
C785 C780 1.390 . S
C785 C784 1.387 . S
H786 C798 0.930 . S
H787 C800 0.930 . S
H788 C801 0.930 . S
H789 C805 0.959 . S
H790 C805 0.959 . S
H791 C805 0.961 . S
H792 C806 0.960 1_554 S
H793 C806 0.961 . S
H794 C806 0.959 . S
H795 C809 0.929 . S
H796 C810 0.931 . S
H797 C812 0.930 . S
C798 H786 0.930 . S
C798 C799 1.399 . S
C798 C803 1.399 1_554 S
C799 C798 1.399 . S
C799 C800 1.376 . S
C800 H787 0.930 . S
C800 C799 1.376 . S
C800 C801 1.388 1_554 S
C801 H788 0.930 . S
C801 C800 1.388 1_556 S
C801 C802 1.390 . S
C802 C801 1.390 . S
C802 C803 1.394 . S
C802 C808 1.465 . S
C803 C798 1.399 1_556 S
C803 C802 1.394 . S
C803 C804 1.516 . S
C804 C803 1.516 . S
C804 C805 1.502 . S
C804 C806 1.561 . S
C804 C807 1.526 . S
C805 H789 0.959 . S
C805 H790 0.959 . S
C805 H791 0.961 . S
C805 C804 1.502 . S
C806 H792 0.960 1_556 S
C806 H793 0.961 . S
C806 H794 0.959 . S
C806 C804 1.561 . S
C807 C804 1.526 . S
C807 C808 1.396 . S
C807 C812 1.390 . S
C808 C802 1.465 . S
C808 C807 1.396 . S
C808 C809 1.399 . S
C809 H795 0.929 . S
C809 C808 1.399 . S
C809 C810 1.385 . S
C810 H796 0.931 . S
C810 C809 1.385 . S
C810 C811 1.389 . S
C811 C810 1.389 . S
C811 C812 1.387 . S
C812 H797 0.930 . S
C812 C807 1.390 . S
C812 C811 1.387 . S
H813 C825 0.930 . S
H814 C827 0.930 . S
H815 C828 0.930 . S
H816 C832 0.959 . S
H817 C832 0.959 . S
H818 C832 0.961 1_554 S
H819 C833 0.960 1_554 S
H820 C833 0.961 . S
H821 C833 0.959 . S
H822 C836 0.929 . S
H823 C837 0.931 . S
H824 C839 0.958 . S
C825 H813 0.930 . S
C825 C826 1.399 . S
C825 C830 1.399 1_554 S
C826 C825 1.399 . S
C826 C827 1.376 . S
C827 H814 0.930 . S
C827 C826 1.376 . S
C827 C828 1.388 1_554 S
C828 H815 0.930 . S
C828 C827 1.388 1_556 S
C828 C829 1.390 . S
C829 C828 1.390 . S
C829 C830 1.394 . S
C829 C835 1.465 . S
C830 C825 1.399 1_556 S
C830 C829 1.394 . S
C830 C831 1.516 . S
C831 C830 1.516 . S
C831 C832 1.502 1_655 S
C831 C833 1.561 . S
C831 C834 1.526 . S
C832 H816 0.959 . S
C832 H817 0.959 . S
C832 H818 0.961 1_556 S
C832 C831 1.502 1_455 S
C833 H819 0.960 1_556 S
C833 H820 0.961 . S
C833 H821 0.959 . S
C833 C831 1.561 . S
C834 C831 1.526 . S
C834 C835 1.396 . S
C834 C839 1.390 . S
C835 C829 1.465 . S
C835 C834 1.396 . S
C835 C836 1.399 . S
C836 H822 0.929 . S
C836 C835 1.399 . S
C836 C837 1.385 . S
C837 H823 0.931 . S
C837 C836 1.385 . S
C837 C838 1.389 . S
C838 C837 1.389 . S
C838 C839 1.387 . S
C839 H824 0.958 . S
C839 C834 1.390 . S
C839 C838 1.387 . S
H840 C852 0.930 . S
H841 C854 0.930 . S
H842 C855 0.930 . S
H843 C859 0.959 . S
H844 C859 0.959 . S
H845 C859 0.961 . S
H846 C860 0.960 . S
H847 C860 0.961 . S
H848 C860 0.959 . S
H849 C863 0.929 . S
H850 C864 0.931 . S
H851 C866 0.917 1_655 S
C852 H840 0.930 . S
C852 C853 1.399 . S
C852 C857 1.399 . S
C853 C852 1.399 . S
C853 C854 1.376 . S
C854 H841 0.930 . S
C854 C853 1.376 . S
C854 C855 1.388 . S
C855 H842 0.930 . S
C855 C854 1.388 . S
C855 C856 1.390 . S
C856 C855 1.390 . S
C856 C857 1.394 . S
C856 C862 1.465 . S
C857 C852 1.399 . S
C857 C856 1.394 . S
C857 C858 1.516 . S
C858 C857 1.516 . S
C858 C859 1.502 . S
C858 C860 1.561 . S
C858 C861 1.526 . S
C859 H843 0.959 . S
C859 H844 0.959 . S
C859 H845 0.961 . S
C859 C858 1.502 . S
C860 H846 0.960 . S
C860 H847 0.961 . S
C860 H848 0.959 . S
C860 C858 1.561 . S
C861 C858 1.526 . S
C861 C862 1.396 . S
C861 C866 1.390 . S
C862 C856 1.465 . S
C862 C861 1.396 . S
C862 C863 1.399 . S
C863 H849 0.929 . S
C863 C862 1.399 . S
C863 C864 1.385 . S
C864 H850 0.931 . S
C864 C863 1.385 . S
C864 C865 1.389 . S
C865 C864 1.389 . S
C865 C866 1.387 . S
C866 H851 0.917 1_455 S
C866 C861 1.390 . S
C866 C865 1.387 . S
H867 C879 0.930 . S
H868 C881 0.930 . S
H869 C882 0.930 . S
H870 C886 0.959 . S
H871 C886 0.959 . S
H872 C886 0.961 . S
H873 C887 0.960 . S
H874 C887 0.961 . S
H875 C887 0.959 . S
H876 C890 0.929 . S
H877 C891 0.931 . S
H878 C893 0.930 . S
C879 H867 0.930 . S
C879 C880 1.399 . S
C879 C884 1.399 . S
C880 C879 1.399 . S
C880 C881 1.376 . S
C881 H868 0.930 . S
C881 C880 1.376 . S
C881 C882 1.388 . S
C882 H869 0.930 . S
C882 C881 1.388 . S
C882 C883 1.390 . S
C883 C882 1.390 . S
C883 C884 1.394 . S
C883 C889 1.465 . S
C884 C879 1.399 . S
C884 C883 1.394 . S
C884 C885 1.516 . S
C885 C884 1.516 . S
C885 C886 1.502 . S
C885 C887 1.561 . S
C885 C888 1.526 . S
C886 H870 0.959 . S
C886 H871 0.959 . S
C886 H872 0.961 . S
C886 C885 1.502 . S
C887 H873 0.960 . S
C887 H874 0.961 . S
C887 H875 0.959 . S
C887 C885 1.561 . S
C888 C885 1.526 . S
C888 C889 1.396 . S
C888 C893 1.390 . S
C889 C883 1.465 . S
C889 C888 1.396 . S
C889 C890 1.399 1_545 S
C890 H876 0.929 . S
C890 C889 1.399 1_565 S
C890 C891 1.385 . S
C891 H877 0.931 . S
C891 C890 1.385 . S
C891 C892 1.389 . S
C892 C891 1.389 . S
C892 C893 1.387 1_565 S
C893 H878 0.930 . S
C893 C888 1.390 . S
C893 C892 1.387 1_545 S
H894 C906 0.930 . S
H895 C908 0.930 . S
H896 C909 0.930 . S
H897 C913 0.959 . S
H898 C913 0.959 . S
H899 C913 0.961 . S
H900 C914 0.960 . S
H901 C914 0.961 . S
H902 C914 0.959 . S
H903 C917 0.929 . S
H904 C918 0.931 . S
H905 C920 0.930 . S
C906 H894 0.930 . S
C906 C907 1.399 . S
C906 C911 1.399 . S
C907 C906 1.399 . S
C907 C908 1.376 . S
C908 H895 0.930 . S
C908 C907 1.376 . S
C908 C909 1.388 . S
C909 H896 0.930 . S
C909 C908 1.388 . S
C909 C910 1.390 . S
C910 C909 1.390 . S
C910 C911 1.394 . S
C910 C916 1.465 . S
C911 C906 1.399 . S
C911 C910 1.394 . S
C911 C912 1.516 . S
C912 C911 1.516 . S
C912 C913 1.502 . S
C912 C914 1.561 . S
C912 C915 1.526 . S
C913 H897 0.959 . S
C913 H898 0.959 . S
C913 H899 0.961 . S
C913 C912 1.502 . S
C914 H900 0.960 . S
C914 H901 0.961 . S
C914 H902 0.959 . S
C914 C912 1.561 . S
C915 C912 1.526 . S
C915 C916 1.396 . S
C915 C920 1.390 . S
C916 C910 1.465 . S
C916 C915 1.396 . S
C916 C917 1.399 . S
C917 H903 0.929 . S
C917 C916 1.399 . S
C917 C918 1.385 . S
C918 H904 0.931 . S
C918 C917 1.385 . S
C918 C919 1.389 . S
C919 C918 1.389 . S
C919 C920 1.387 . S
C920 H905 0.930 . S
C920 C915 1.390 . S
C920 C919 1.387 . S
H921 C933 0.930 . S
H922 C935 0.930 . S
H923 C936 0.930 . S
H924 C940 0.959 . S
H925 C940 0.959 . S
H926 C940 0.961 . S
H927 C941 0.960 . S
H928 C941 0.961 . S
H929 C941 0.959 . S
H930 C944 0.929 . S
H931 C945 0.931 . S
H932 C947 0.930 . S
C933 H921 0.930 . S
C933 C934 1.399 . S
C933 C938 1.399 . S
C934 C933 1.399 . S
C934 C935 1.376 . S
C935 H922 0.930 . S
C935 C934 1.376 . S
C935 C936 1.388 . S
C936 H923 0.930 . S
C936 C935 1.388 . S
C936 C937 1.390 . S
C937 C936 1.390 . S
C937 C938 1.394 . S
C937 C943 1.465 . S
C938 C933 1.399 . S
C938 C937 1.394 . S
C938 C939 1.516 . S
C939 C938 1.516 . S
C939 C940 1.502 . S
C939 C941 1.561 . S
C939 C942 1.526 . S
C940 H924 0.959 . S
C940 H925 0.959 . S
C940 H926 0.961 . S
C940 C939 1.502 . S
C941 H927 0.960 . S
C941 H928 0.961 . S
C941 H929 0.959 . S
C941 C939 1.561 . S
C942 C939 1.526 . S
C942 C943 1.396 . S
C942 C947 1.390 . S
C943 C937 1.465 . S
C943 C942 1.396 . S
C943 C944 1.399 . S
C944 H930 0.929 . S
C944 C943 1.399 . S
C944 C945 1.385 . S
C945 H931 0.931 . S
C945 C944 1.385 . S
C945 C946 1.389 . S
C946 C945 1.389 . S
C946 C947 1.387 . S
C947 H932 0.930 . S
C947 C942 1.390 . S
C947 C946 1.387 . S
H948 C960 0.930 . S
H949 C962 0.930 . S
H950 C963 0.930 . S
H951 C967 0.959 . S
H952 C967 0.959 . S
H953 C967 0.961 . S
H954 C968 0.960 . S
H955 C968 0.961 1_455 S
H956 C968 0.959 1_455 S
H957 C971 0.929 . S
H958 C972 0.931 1_455 S
H959 C974 0.942 . S
C960 H948 0.930 . S
C960 C961 1.399 1_554 S
C960 C965 1.399 1_554 S
C961 C960 1.399 1_556 S
C961 C962 1.376 . S
C962 H949 0.930 . S
C962 C961 1.376 . S
C962 C963 1.388 . S
C963 H950 0.930 . S
C963 C962 1.388 . S
C963 C964 1.390 . S
C964 C963 1.390 . S
C964 C965 1.394 . S
C964 C970 1.465 . S
C965 C960 1.399 1_556 S
C965 C964 1.394 . S
C965 C966 1.516 . S
C966 C965 1.516 . S
C966 C967 1.502 1_556 S
C966 C968 1.561 1_556 S
C966 C969 1.526 . S
C967 H951 0.959 . S
C967 H952 0.959 . S
C967 H953 0.961 . S
C967 C966 1.502 1_554 S
C968 H954 0.960 . S
C968 H955 0.961 1_655 S
C968 H956 0.959 1_655 S
C968 C966 1.561 1_554 S
C969 C966 1.526 . S
C969 C970 1.396 . S
C969 C974 1.370 1_655 S
C970 C964 1.465 . S
C970 C969 1.396 . S
C970 C971 1.399 . S
C971 H957 0.929 . S
C971 C970 1.399 . S
C971 C972 1.385 . S
C972 H958 0.931 1_655 S
C972 C971 1.385 . S
C972 C973 1.389 1_655 S
C973 C972 1.389 1_455 S
C973 C974 1.395 . S
C974 H959 0.942 . S
C974 C969 1.370 1_455 S
C974 C973 1.395 . S
H975 C987 0.930 . S
H976 C989 0.930 . S
H977 C990 0.930 . S
H978 C994 0.959 . S
H979 C994 0.959 . S
H980 C994 0.961 . S
H981 C995 0.960 . S
H982 C995 0.961 . S
H983 C995 0.959 1_556 S
H984 C998 0.929 . S
H985 C999 0.930 1_545 S
H986 C1001 0.930 . S
C987 H975 0.930 . S
C987 C988 1.399 1_554 S
C987 C992 1.399 1_554 S
C988 C987 1.399 1_556 S
C988 C989 1.376 . S
C989 H976 0.930 . S
C989 C988 1.376 . S
C989 C990 1.388 . S
C990 H977 0.930 . S
C990 C989 1.388 . S
C990 C991 1.390 . S
C991 C990 1.390 . S
C991 C992 1.394 . S
C991 C997 1.465 . S
C992 C987 1.399 1_556 S
C992 C991 1.394 . S
C992 C993 1.516 . S
C993 C992 1.516 . S
C993 C994 1.502 1_556 S
C993 C995 1.561 1_566 S
C993 C996 1.526 . S
C994 H978 0.959 . S
C994 H979 0.959 . S
C994 H980 0.961 . S
C994 C993 1.502 1_554 S
C995 H981 0.960 . S
C995 H982 0.961 . S
C995 H983 0.959 1_554 S
C995 C993 1.561 1_544 S
C996 C993 1.526 . S
C996 C997 1.396 . S
C996 C1001 1.390 1_565 S
C997 C991 1.465 . S
C997 C996 1.396 . S
C997 C998 1.399 . S
C998 H984 0.929 . S
C998 C997 1.399 . S
C998 C999 1.385 . S
C999 H985 0.930 1_565 S
C999 C998 1.385 . S
C999 C1000 1.389 1_565 S
C1000 C999 1.389 1_545 S
C1000 C1001 1.387 . S
C1001 H986 0.930 . S
C1001 C996 1.390 1_545 S
C1001 C1000 1.387 . S
H1002 C1014 0.930 . S
H1003 C1016 0.930 . S
H1004 C1017 0.930 . S
H1005 C1021 0.959 1_556 S
H1006 C1021 0.959 . S
H1007 C1021 0.961 . S
H1008 C1022 0.960 . S
H1009 C1022 0.961 . S
H1010 C1022 0.959 . S
H1011 C1025 0.929 . S
H1012 C1026 0.931 . S
H1013 C1028 0.930 . S
C1014 H1002 0.930 . S
C1014 C1015 1.399 1_554 S
C1014 C1019 1.399 1_554 S
C1015 C1014 1.399 1_556 S
C1015 C1016 1.376 . S
C1016 H1003 0.930 . S
C1016 C1015 1.376 . S
C1016 C1017 1.388 . S
C1017 H1004 0.930 . S
C1017 C1016 1.388 . S
C1017 C1018 1.390 . S
C1018 C1017 1.390 . S
C1018 C1019 1.394 . S
C1018 C1024 1.465 . S
C1019 C1014 1.399 1_556 S
C1019 C1018 1.394 . S
C1019 C1020 1.516 . S
C1020 C1019 1.516 . S
C1020 C1021 1.502 1_556 S
C1020 C1022 1.561 1_556 S
C1020 C1023 1.526 . S
C1021 H1005 0.959 1_554 S
C1021 H1006 0.959 . S
C1021 H1007 0.961 . S
C1021 C1020 1.502 1_554 S
C1022 H1008 0.960 . S
C1022 H1009 0.961 . S
C1022 H1010 0.959 . S
C1022 C1020 1.561 1_554 S
C1023 C1020 1.526 . S
C1023 C1024 1.396 . S
C1023 C1028 1.390 . S
C1024 C1018 1.465 . S
C1024 C1023 1.396 . S
C1024 C1025 1.399 . S
C1025 H1011 0.929 . S
C1025 C1024 1.399 . S
C1025 C1026 1.385 . S
C1026 H1012 0.931 . S
C1026 C1025 1.385 . S
C1026 C1027 1.389 . S
C1027 C1026 1.389 . S
C1027 C1028 1.387 . S
C1028 H1013 0.930 . S
C1028 C1023 1.390 . S
C1028 C1027 1.387 . S
H1029 C1041 0.930 . S
H1030 C1043 0.930 . S
H1031 C1044 0.930 . S
H1032 C1048 0.959 . S
H1033 C1048 0.959 . S
H1034 C1048 0.961 . S
H1035 C1049 0.960 . S
H1036 C1049 0.961 . S
H1037 C1049 0.959 . S
H1038 C1052 0.929 . S
H1039 C1053 0.931 . S
H1040 C1055 0.930 . S
C1041 H1029 0.930 . S
C1041 C1042 1.399 1_554 S
C1041 C1046 1.399 1_554 S
C1042 C1041 1.399 1_556 S
C1042 C1043 1.376 . S
C1043 H1030 0.930 . S
C1043 C1042 1.376 . S
C1043 C1044 1.388 . S
C1044 H1031 0.930 . S
C1044 C1043 1.388 . S
C1044 C1045 1.390 . S
C1045 C1044 1.390 . S
C1045 C1046 1.394 . S
C1045 C1051 1.465 . S
C1046 C1041 1.399 1_556 S
C1046 C1045 1.394 . S
C1046 C1047 1.516 1_556 S
C1047 C1046 1.516 1_554 S
C1047 C1048 1.502 . S
C1047 C1049 1.561 . S
C1047 C1050 1.526 1_554 S
C1048 H1032 0.959 . S
C1048 H1033 0.959 . S
C1048 H1034 0.961 . S
C1048 C1047 1.502 . S
C1049 H1035 0.960 . S
C1049 H1036 0.961 . S
C1049 H1037 0.959 . S
C1049 C1047 1.561 . S
C1050 C1047 1.526 1_556 S
C1050 C1051 1.396 . S
C1050 C1055 1.390 . S
C1051 C1045 1.465 . S
C1051 C1050 1.396 . S
C1051 C1052 1.399 . S
C1052 H1038 0.929 . S
C1052 C1051 1.399 . S
C1052 C1053 1.385 . S
C1053 H1039 0.931 . S
C1053 C1052 1.385 . S
C1053 C1054 1.389 . S
C1054 C1053 1.389 . S
C1054 C1055 1.387 . S
C1055 H1040 0.930 . S
C1055 C1050 1.390 . S
C1055 C1054 1.387 . S
H1056 C1068 0.930 . S
H1057 C1070 0.930 . S
H1058 C1071 0.930 . S
H1059 C1075 0.959 . S
H1060 C1075 0.959 . S
H1061 C1075 0.961 . S
H1062 C1076 0.960 . S
H1063 C1076 0.961 . S
H1064 C1076 0.959 . S
H1065 C1079 0.929 . S
H1066 C1080 0.931 . S
H1067 C1082 0.930 . S
C1068 H1056 0.930 . S
C1068 C1069 1.399 . S
C1068 C1073 1.399 . S
C1069 C1068 1.399 . S
C1069 C1070 1.376 . S
C1070 H1057 0.930 . S
C1070 C1069 1.376 . S
C1070 C1071 1.388 . S
C1071 H1058 0.930 . S
C1071 C1070 1.388 . S
C1071 C1072 1.390 . S
C1072 C1071 1.390 . S
C1072 C1073 1.394 . S
C1072 C1078 1.465 . S
C1073 C1068 1.399 . S
C1073 C1072 1.394 . S
C1073 C1074 1.516 . S
C1074 C1073 1.516 . S
C1074 C1075 1.502 . S
C1074 C1076 1.561 . S
C1074 C1077 1.526 . S
C1075 H1059 0.959 . S
C1075 H1060 0.959 . S
C1075 H1061 0.961 . S
C1075 C1074 1.502 . S
C1076 H1062 0.960 . S
C1076 H1063 0.961 . S
C1076 H1064 0.959 . S
C1076 C1074 1.561 . S
C1077 C1074 1.526 . S
C1077 C1078 1.396 . S
C1077 C1082 1.390 . S
C1078 C1072 1.465 . S
C1078 C1077 1.396 . S
C1078 C1079 1.399 . S
C1079 H1065 0.929 . S
C1079 C1078 1.399 . S
C1079 C1080 1.385 . S
C1080 H1066 0.931 . S
C1080 C1079 1.385 . S
C1080 C1081 1.389 . S
C1081 C1080 1.389 . S
C1081 C1082 1.387 . S
C1082 H1067 0.930 . S
C1082 C1077 1.390 . S
C1082 C1081 1.387 . S
H1083 C1095 0.930 . S
H1084 C1097 0.930 . S
H1085 C1098 0.930 . S
H1086 C1102 0.959 . S
H1087 C1102 0.959 . S
H1088 C1102 0.961 . S
H1089 C1103 0.960 . S
H1090 C1103 0.961 . S
H1091 C1103 0.959 . S
H1092 C1106 0.929 . S
H1093 C1107 0.931 . S
H1094 C1109 0.930 . S
C1095 H1083 0.930 . S
C1095 C1096 1.399 . S
C1095 C1100 1.399 . S
C1096 C1095 1.399 . S
C1096 C1097 1.376 . S
C1097 H1084 0.930 . S
C1097 C1096 1.376 . S
C1097 C1098 1.388 . S
C1098 H1085 0.930 . S
C1098 C1097 1.388 . S
C1098 C1099 1.390 . S
C1099 C1098 1.390 . S
C1099 C1100 1.394 . S
C1099 C1105 1.465 . S
C1100 C1095 1.399 . S
C1100 C1099 1.394 . S
C1100 C1101 1.516 . S
C1101 C1100 1.516 . S
C1101 C1102 1.502 . S
C1101 C1103 1.561 . S
C1101 C1104 1.526 . S
C1102 H1086 0.959 . S
C1102 H1087 0.959 . S
C1102 H1088 0.961 . S
C1102 C1101 1.502 . S
C1103 H1089 0.960 . S
C1103 H1090 0.961 . S
C1103 H1091 0.959 . S
C1103 C1101 1.561 . S
C1104 C1101 1.526 . S
C1104 C1105 1.396 . S
C1104 C1109 1.390 . S
C1105 C1099 1.465 . S
C1105 C1104 1.396 . S
C1105 C1106 1.399 . S
C1106 H1092 0.929 . S
C1106 C1105 1.399 . S
C1106 C1107 1.385 . S
C1107 H1093 0.931 . S
C1107 C1106 1.385 . S
C1107 C1108 1.389 . S
C1108 C1107 1.389 . S
C1108 C1109 1.387 . S
C1109 H1094 0.930 . S
C1109 C1104 1.390 . S
C1109 C1108 1.387 . S
H1110 C1122 0.930 . S
H1111 C1124 0.930 . S
H1112 C1125 0.930 . S
H1113 C1129 0.959 . S
H1114 C1129 0.959 . S
H1115 C1129 0.961 . S
H1116 C1130 0.960 . S
H1117 C1130 0.961 . S
H1118 C1130 0.959 . S
H1119 C1133 0.929 . S
H1120 C1134 0.931 . S
H1121 C1136 0.930 . S
C1122 H1110 0.930 . S
C1122 C1123 1.399 . S
C1122 C1127 1.399 . S
C1123 C1122 1.399 . S
C1123 C1124 1.376 . S
C1124 H1111 0.930 . S
C1124 C1123 1.376 . S
C1124 C1125 1.388 . S
C1125 H1112 0.930 . S
C1125 C1124 1.388 . S
C1125 C1126 1.390 . S
C1126 C1125 1.390 . S
C1126 C1127 1.394 . S
C1126 C1132 1.465 . S
C1127 C1122 1.399 . S
C1127 C1126 1.394 . S
C1127 C1128 1.516 . S
C1128 C1127 1.516 . S
C1128 C1129 1.502 . S
C1128 C1130 1.561 . S
C1128 C1131 1.526 . S
C1129 H1113 0.959 . S
C1129 H1114 0.959 . S
C1129 H1115 0.961 . S
C1129 C1128 1.502 . S
C1130 H1116 0.960 . S
C1130 H1117 0.961 . S
C1130 H1118 0.959 . S
C1130 C1128 1.561 . S
C1131 C1128 1.526 . S
C1131 C1132 1.396 . S
C1131 C1136 1.390 . S
C1132 C1126 1.465 . S
C1132 C1131 1.396 . S
C1132 C1133 1.399 . S
C1133 H1119 0.929 . S
C1133 C1132 1.399 . S
C1133 C1134 1.385 . S
C1134 H1120 0.931 . S
C1134 C1133 1.385 . S
C1134 C1135 1.389 . S
C1135 C1134 1.389 . S
C1135 C1136 1.387 . S
C1136 H1121 0.930 . S
C1136 C1131 1.390 . S
C1136 C1135 1.387 . S
H1137 C1149 0.930 . S
H1138 C1151 0.930 . S
H1139 C1152 0.930 . S
H1140 C1156 0.959 . S
H1141 C1156 0.959 . S
H1142 C1156 0.961 . S
H1143 C1157 0.960 . S
H1144 C1157 0.961 . S
H1145 C1157 0.959 . S
H1146 C1160 0.929 . S
H1147 C1161 0.931 . S
H1148 C1163 0.930 . S
C1149 H1137 0.930 . S
C1149 C1150 1.399 . S
C1149 C1154 1.399 . S
C1150 C1149 1.399 . S
C1150 C1151 1.376 . S
C1151 H1138 0.930 . S
C1151 C1150 1.376 . S
C1151 C1152 1.388 . S
C1152 H1139 0.930 . S
C1152 C1151 1.388 . S
C1152 C1153 1.390 . S
C1153 C1152 1.390 . S
C1153 C1154 1.394 . S
C1153 C1159 1.465 . S
C1154 C1149 1.399 . S
C1154 C1153 1.394 . S
C1154 C1155 1.516 . S
C1155 C1154 1.516 . S
C1155 C1156 1.502 . S
C1155 C1157 1.561 . S
C1155 C1158 1.526 . S
C1156 H1140 0.959 . S
C1156 H1141 0.959 . S
C1156 H1142 0.961 . S
C1156 C1155 1.502 . S
C1157 H1143 0.960 . S
C1157 H1144 0.961 . S
C1157 H1145 0.959 . S
C1157 C1155 1.561 . S
C1158 C1155 1.526 . S
C1158 C1159 1.396 . S
C1158 C1163 1.390 . S
C1159 C1153 1.465 . S
C1159 C1158 1.396 . S
C1159 C1160 1.399 . S
C1160 H1146 0.929 . S
C1160 C1159 1.399 . S
C1160 C1161 1.385 . S
C1161 H1147 0.931 . S
C1161 C1160 1.385 . S
C1161 C1162 1.389 . S
C1162 C1161 1.389 . S
C1162 C1163 1.387 . S
C1163 H1148 0.930 . S
C1163 C1158 1.390 . S
C1163 C1162 1.387 . S
H1164 C1176 0.930 . S
H1165 C1178 0.930 . S
H1166 C1179 0.930 . S
H1167 C1183 0.959 . S
H1168 C1183 0.959 . S
H1169 C1183 0.961 . S
H1170 C1184 0.960 . S
H1171 C1184 0.961 . S
H1172 C1184 0.959 . S
H1173 C1187 0.929 . S
H1174 C1188 0.931 . S
H1175 C1190 0.930 . S
C1176 H1164 0.930 . S
C1176 C1177 1.399 . S
C1176 C1181 1.399 . S
C1177 C1176 1.399 . S
C1177 C1178 1.376 . S
C1178 H1165 0.930 . S
C1178 C1177 1.376 . S
C1178 C1179 1.388 . S
C1179 H1166 0.930 . S
C1179 C1178 1.388 . S
C1179 C1180 1.390 . S
C1180 C1179 1.390 . S
C1180 C1181 1.394 . S
C1180 C1186 1.465 . S
C1181 C1176 1.399 . S
C1181 C1180 1.394 . S
C1181 C1182 1.516 . S
C1182 C1181 1.516 . S
C1182 C1183 1.502 . S
C1182 C1184 1.561 . S
C1182 C1185 1.526 . S
C1183 H1167 0.959 . S
C1183 H1168 0.959 . S
C1183 H1169 0.961 . S
C1183 C1182 1.502 . S
C1184 H1170 0.960 . S
C1184 H1171 0.961 . S
C1184 H1172 0.959 . S
C1184 C1182 1.561 . S
C1185 C1182 1.526 . S
C1185 C1186 1.396 . S
C1185 C1190 1.390 . S
C1186 C1180 1.465 . S
C1186 C1185 1.396 . S
C1186 C1187 1.399 . S
C1187 H1173 0.929 . S
C1187 C1186 1.399 . S
C1187 C1188 1.385 . S
C1188 H1174 0.931 . S
C1188 C1187 1.385 . S
C1188 C1189 1.389 . S
C1189 C1188 1.389 . S
C1189 C1190 1.387 . S
C1190 H1175 0.930 . S
C1190 C1185 1.390 . S
C1190 C1189 1.387 . S
H1191 C1203 0.930 . S
H1192 C1205 0.930 . S
H1193 C1206 0.930 . S
H1194 C1210 0.959 . S
H1195 C1210 0.959 . S
H1196 C1210 0.961 . S
H1197 C1211 0.960 . S
H1198 C1211 0.961 . S
H1199 C1211 0.959 . S
H1200 C1214 0.929 . S
H1201 C1215 0.931 . S
H1202 C1217 0.930 . S
C1203 H1191 0.930 . S
C1203 C1204 1.399 . S
C1203 C1208 1.399 . S
C1204 C1203 1.399 . S
C1204 C1205 1.376 . S
C1205 H1192 0.930 . S
C1205 C1204 1.376 . S
C1205 C1206 1.388 . S
C1206 H1193 0.930 . S
C1206 C1205 1.388 . S
C1206 C1207 1.390 . S
C1207 C1206 1.390 . S
C1207 C1208 1.394 . S
C1207 C1213 1.465 . S
C1208 C1203 1.399 . S
C1208 C1207 1.394 . S
C1208 C1209 1.516 . S
C1209 C1208 1.516 . S
C1209 C1210 1.502 . S
C1209 C1211 1.561 . S
C1209 C1212 1.526 . S
C1210 H1194 0.959 . S
C1210 H1195 0.959 . S
C1210 H1196 0.961 . S
C1210 C1209 1.502 . S
C1211 H1197 0.960 . S
C1211 H1198 0.961 . S
C1211 H1199 0.959 . S
C1211 C1209 1.561 . S
C1212 C1209 1.526 . S
C1212 C1213 1.396 . S
C1212 C1217 1.390 . S
C1213 C1207 1.465 . S
C1213 C1212 1.396 . S
C1213 C1214 1.399 . S
C1214 H1200 0.929 . S
C1214 C1213 1.399 . S
C1214 C1215 1.385 . S
C1215 H1201 0.931 . S
C1215 C1214 1.385 . S
C1215 C1216 1.389 . S
C1216 C1215 1.389 . S
C1216 C1217 1.387 . S
C1217 H1202 0.930 . S
C1217 C1212 1.390 . S
C1217 C1216 1.387 . S
H1218 C1230 0.930 . S
H1219 C1232 0.930 . S
H1220 C1233 0.930 . S
H1221 C1237 0.959 . S
H1222 C1237 0.959 . S
H1223 C1237 0.961 . S
H1224 C1238 0.960 . S
H1225 C1238 0.961 . S
H1226 C1238 0.959 . S
H1227 C1241 0.929 . S
H1228 C1242 0.931 . S
H1229 C1244 0.930 . S
C1230 H1218 0.930 . S
C1230 C1231 1.399 . S
C1230 C1235 1.399 . S
C1231 C1230 1.399 . S
C1231 C1232 1.376 . S
C1232 H1219 0.930 . S
C1232 C1231 1.376 . S
C1232 C1233 1.388 . S
C1233 H1220 0.930 . S
C1233 C1232 1.388 . S
C1233 C1234 1.390 . S
C1234 C1233 1.390 . S
C1234 C1235 1.394 . S
C1234 C1240 1.465 . S
C1235 C1230 1.399 . S
C1235 C1234 1.394 . S
C1235 C1236 1.516 . S
C1236 C1235 1.516 . S
C1236 C1237 1.502 . S
C1236 C1238 1.561 . S
C1236 C1239 1.526 . S
C1237 H1221 0.959 . S
C1237 H1222 0.959 . S
C1237 H1223 0.961 . S
C1237 C1236 1.502 . S
C1238 H1224 0.960 . S
C1238 H1225 0.961 . S
C1238 H1226 0.959 . S
C1238 C1236 1.561 . S
C1239 C1236 1.526 . S
C1239 C1240 1.396 . S
C1239 C1244 1.390 . S
C1240 C1234 1.465 . S
C1240 C1239 1.396 . S
C1240 C1241 1.399 . S
C1241 H1227 0.929 . S
C1241 C1240 1.399 . S
C1241 C1242 1.385 . S
C1242 H1228 0.931 . S
C1242 C1241 1.385 . S
C1242 C1243 1.389 . S
C1243 C1242 1.389 . S
C1243 C1244 1.387 . S
C1244 H1229 0.930 . S
C1244 C1239 1.390 . S
C1244 C1243 1.387 . S
H1245 C1257 0.930 . S
H1246 C1259 0.930 . S
H1247 C1260 0.930 . S
H1248 C1264 0.959 . S
H1249 C1264 0.959 . S
H1250 C1264 0.961 . S
H1251 C1265 0.960 . S
H1252 C1265 0.961 . S
H1253 C1265 0.959 . S
H1254 C1268 0.929 . S
H1255 C1269 0.931 . S
H1256 C1271 0.930 . S
C1257 H1245 0.930 . S
C1257 C1258 1.399 . S
C1257 C1262 1.399 . S
C1258 C1257 1.399 . S
C1258 C1259 1.376 . S
C1259 H1246 0.930 . S
C1259 C1258 1.376 . S
C1259 C1260 1.388 . S
C1260 H1247 0.930 . S
C1260 C1259 1.388 . S
C1260 C1261 1.390 . S
C1261 C1260 1.390 . S
C1261 C1262 1.394 . S
C1261 C1267 1.465 . S
C1262 C1257 1.399 . S
C1262 C1261 1.394 . S
C1262 C1263 1.516 . S
C1263 C1262 1.516 . S
C1263 C1264 1.502 . S
C1263 C1265 1.561 . S
C1263 C1266 1.526 . S
C1264 H1248 0.959 . S
C1264 H1249 0.959 . S
C1264 H1250 0.961 . S
C1264 C1263 1.502 . S
C1265 H1251 0.960 . S
C1265 H1252 0.961 . S
C1265 H1253 0.959 . S
C1265 C1263 1.561 . S
C1266 C1263 1.526 . S
C1266 C1267 1.396 . S
C1266 C1271 1.390 . S
C1267 C1261 1.465 . S
C1267 C1266 1.396 . S
C1267 C1268 1.399 . S
C1268 H1254 0.929 . S
C1268 C1267 1.399 . S
C1268 C1269 1.385 . S
C1269 H1255 0.931 . S
C1269 C1268 1.385 . S
C1269 C1270 1.389 . S
C1270 C1269 1.389 . S
C1270 C1271 1.387 . S
C1271 H1256 0.930 . S
C1271 C1266 1.390 . S
C1271 C1270 1.387 . S
C637 C241 2.198 . S
C649 C362 2.358 . S
C676 C446 2.339 . S
C664 C277 2.277 . S
C703 C512 2.220 . S
C691 C169 2.394 . S
C730 C596 2.299 . S
C718 C205 2.326 . S
C757 C351 2.329 1_565 S
C745 C97 2.223 . S
C772 C133 2.298 . S
C784 C435 2.392 . S
C799 C25 2.339 . S
C811 C523 2.243 . S
C826 C61 2.303 . S
C838 C607 2.278 . S
C865 C358 0.678 1_455 S
C853 C211 0.756 . S
C892 C442 0.538 . S
C880 C247 0.558 . S
C919 C514 0.490 . S
C907 C253 0.490 . S
C934 C175 0.725 . S
C946 C598 0.671 . S
C961 C67 0.717 1_556 S
C973 C346 0.660 . S
C1000 C430 0.620 . S
C988 C103 0.706 1_556 S
C1027 C526 0.640 . S
C1015 C109 0.562 1_556 S
C1042 C31 0.708 1_556 S
C1054 C610 0.704 . S
C1069 C181 2.819 . S
C1081 C355 2.879 . S
C1096 C217 2.778 . S
C1108 C439 2.841 . S
C1135 C519 2.925 . S
C1123 C283 2.564 . S
C1162 C603 2.949 . S
C1150 C145 2.695 . S
C1177 C37 2.729 . S
C1189 C344 2.914 . S
C1216 C428 2.861 . S
C1204 C73 2.688 . S
C1243 C530 2.930 . S
C1231 C139 2.609 . S
C1258 C1 2.659 . S
C1270 C614 2.960 . S
