# Generated by pormake.
# Topology anh, (6,3)-cn, num edge types: 1
# Building blocks:
#     Node 0, Type 0, BuildingBlock: INOVEN_clean_sbu_0, # of connection points: 6
#     Node 1, Type 0, BuildingBlock: INOVEN_clean_sbu_0, # of connection points: 6
#     Node 2, Type 0, BuildingBlock: INOVEN_clean_sbu_0, # of connection points: 6
#     Node 3, Type 1, BuildingBlock: VETTIZ_charged_linker_0, # of connection points: 3
#     Node 4, Type 1, BuildingBlock: VETTIZ_charged_linker_0, # of connection points: 3
#     Node 5, Type 1, BuildingBlock: VETTIZ_charged_linker_0, # of connection points: 3
#     Node 6, Type 1, BuildingBlock: VETTIZ_charged_linker_0, # of connection points: 3
#     Node 7, Type 1, BuildingBlock: VETTIZ_charged_linker_0, # of connection points: 3
#     Node 8, Type 1, BuildingBlock: VETTIZ_charged_linker_0, # of connection points: 3
#     Edge 9, Type (0, 1), BuildingBlock: UVAHIK_clean_linker_0, # of connection points: 2
#     Edge 10, Type (0, 1), BuildingBlock: UVAHIK_clean_linker_0, # of connection points: 2
#     Edge 11, Type (0, 1), BuildingBlock: UVAHIK_clean_linker_0, # of connection points: 2
#     Edge 12, Type (0, 1), BuildingBlock: UVAHIK_clean_linker_0, # of connection points: 2
#     Edge 13, Type (0, 1), BuildingBlock: UVAHIK_clean_linker_0, # of connection points: 2
#     Edge 14, Type (0, 1), BuildingBlock: UVAHIK_clean_linker_0, # of connection points: 2
#     Edge 15, Type (0, 1), BuildingBlock: UVAHIK_clean_linker_0, # of connection points: 2
#     Edge 16, Type (0, 1), BuildingBlock: UVAHIK_clean_linker_0, # of connection points: 2
#     Edge 17, Type (0, 1), BuildingBlock: UVAHIK_clean_linker_0, # of connection points: 2
#     Edge 18, Type (0, 1), BuildingBlock: UVAHIK_clean_linker_0, # of connection points: 2
#     Edge 19, Type (0, 1), BuildingBlock: UVAHIK_clean_linker_0, # of connection points: 2
#     Edge 20, Type (0, 1), BuildingBlock: UVAHIK_clean_linker_0, # of connection points: 2
#     Edge 21, Type (0, 1), BuildingBlock: UVAHIK_clean_linker_0, # of connection points: 2
#     Edge 22, Type (0, 1), BuildingBlock: UVAHIK_clean_linker_0, # of connection points: 2
#     Edge 23, Type (0, 1), BuildingBlock: UVAHIK_clean_linker_0, # of connection points: 2
#     Edge 24, Type (0, 1), BuildingBlock: UVAHIK_clean_linker_0, # of connection points: 2
#     Edge 25, Type (0, 1), BuildingBlock: UVAHIK_clean_linker_0, # of connection points: 2
#     Edge 26, Type (0, 1), BuildingBlock: UVAHIK_clean_linker_0, # of connection points: 2
# Relax obj value: 0.165
# Max RMSD: 0.204
# Mean RMSD: 0.154
data_MOF--net-anh--node1-INOVEN_clean_sbu_0--node2-VETTIZ_charged_linker_0--edge1-UVAHIK_clean_linker_0
_symmetry_space_group_name_H-M    P1
_symmetry_Int_Tables_number       1
_symmetry_cell_setting            triclinic
loop_
_symmetry_equiv_pos_as_xyz
'x, y, z'
_cell_length_a     45.287197
_cell_length_b     52.033586
_cell_length_c     82.222326
_cell_angle_alpha  93.196399
_cell_angle_beta   89.312385
_cell_angle_gamma 127.01664
loop_
_atom_site_label
_atom_site_type_symbol
_atom_site_fract_x
_atom_site_fract_y
_atom_site_fract_z
_atom_type_partial_charge
Gd0 Gd 0.08629 0.50373 0.1496 0.0
Gd1 Gd 0.04574 0.52989 0.16235 0.0
C2 C 0.13109 0.58207 0.15714 0.0
C3 C 0.13064 0.49531 0.13503 0.0
C4 C 0.16922 0.50978 0.13943 0.0
C5 C 0.18132 0.51898 0.15582 0.0
C6 C 0.19453 0.51589 0.12741 0.0
C7 C 0.24334 0.53891 0.14824 0.0
C8 C 0.23146 0.53049 0.13178 0.0
C9 C 0.21798 0.53316 0.16019 0.0
C10 C 0.081 0.50531 0.18225 0.0
C11 C 1.00119 0.45234 0.15428 0.0
C12 C 1.0028 0.53826 0.17868 0.0
C13 C 0.9639 0.5154 0.18298 0.0
C14 C 0.94017 0.48693 0.17322 0.0
C15 C 0.95071 0.52084 0.19727 0.0
C16 C 0.89031 0.46938 0.19193 0.0
C17 C 0.91397 0.49807 0.20166 0.0
C18 C 0.90381 0.46407 0.17769 0.0
C19 C 0.053 0.52933 0.12976 0.0
O20 O 0.12989 0.55826 0.14957 0.0
O21 O 0.10238 0.57661 0.165 0.0
O22 O 0.10619 0.4753 0.14531 0.0
O23 O 0.12473 0.51544 0.1302 0.0
O24 O 0.08035 0.48316 0.17389 0.0
O25 O 0.08729 0.52666 0.17318 0.0
O26 O 1.00423 0.47553 0.16353 0.0
O27 O 1.02842 0.45876 0.14483 0.0
O28 O 1.00891 0.5434 0.16318 0.0
O29 O 1.02538 0.53407 0.18557 0.0
O30 O 0.05468 0.55205 0.13819 0.0
O31 O 0.04532 0.50736 0.13872 0.0
H32 H 0.16237 0.51514 0.16526 0.0
H33 H 0.18573 0.50934 0.1147 0.0
H34 H 0.25053 0.53452 0.12236 0.0
H35 H 0.22657 0.53973 0.17292 0.0
H36 H 0.94977 0.48229 0.16211 0.0
H37 H 0.9688 0.54261 0.205 0.0
H38 H 0.90408 0.50277 0.21263 0.0
H39 H 0.88596 0.44253 0.16977 0.0
Gd40 Gd 0.58847 0.01294 0.48719 0.0
Gd41 Gd 0.54103 0.03352 0.47815 0.0
C42 C 0.49925 0.95871 0.48043 0.0
C43 C 0.6153 0.98668 0.5003 0.0
C44 C 0.60499 0.95406 0.50198 0.0
C45 C 0.59961 0.93399 0.48832 0.0
C46 C 0.60147 0.94313 0.51761 0.0
C47 C 0.58802 0.8929 0.50601 0.0
C48 C 0.59295 0.91287 0.51961 0.0
C49 C 0.59133 0.90375 0.49033 0.0
C50 C 0.58401 0.01869 0.45511 0.0
C51 C 0.6306 0.08798 0.48463 0.0
C52 C 0.51487 0.0607 0.46554 0.0
C53 C 0.52327 0.09268 0.46826 0.0
C54 C 0.54496 0.11287 0.48183 0.0
C55 C 0.5093 0.10307 0.45745 0.0
C56 C 0.5377 0.15336 0.47406 0.0
C57 C 0.51648 0.13317 0.4603 0.0
C58 C 0.552 0.14284 0.48474 0.0
C59 C 0.54599 0.02865 0.51031 0.0
O60 O 0.52967 0.96671 0.48797 0.0
O61 O 0.4987 0.9803 0.47299 0.0
O62 O 0.62393 0.99801 0.4858 0.0
O63 O 0.5955 0.99362 0.50827 0.0
O64 O 0.61363 0.02601 0.46239 0.0
O65 O 0.55771 0.00678 0.46481 0.0
O66 O 0.59942 0.07999 0.47794 0.0
O67 O 0.63241 0.06634 0.49122 0.0
O68 O 0.49982 0.04202 0.47775 0.0
O69 O 0.54092 0.06024 0.45883 0.0
O70 O 0.51666 0.02199 0.50311 0.0
O71 O 0.57201 0.03999 0.5005 0.0
H72 H 0.602 0.94166 0.47609 0.0
H73 H 0.6057 0.95821 0.52833 0.0
H74 H 0.59108 0.90541 0.53186 0.0
H75 H 0.58736 0.8888 0.47961 0.0
H76 H 0.55606 0.10524 0.4903 0.0
H77 H 0.49269 0.08784 0.44685 0.0
H78 H 0.50551 0.14064 0.45167 0.0
H79 H 0.56797 0.15742 0.49558 0.0
Gd80 Gd 0.61549 0.56584 0.84186 0.0
Gd81 Gd 0.56506 0.49494 0.84647 0.0
C82 C 0.52577 0.5294 0.84473 0.0
C83 C 0.64723 0.62367 0.83276 0.0
C84 C 0.63756 0.64597 0.83083 0.0
C85 C 0.64691 0.6697 0.84318 0.0
C86 C 0.62022 0.6446 0.81639 0.0
C87 C 0.62162 0.69014 0.82674 0.0
C88 C 0.61231 0.66638 0.81439 0.0
C89 C 0.63892 0.69146 0.84119 0.0
C90 C 0.60629 0.54906 0.87299 0.0
C91 C 0.65549 0.5319 0.843 0.0
C92 C 0.53483 0.43824 0.85673 0.0
C93 C 0.54009 0.41319 0.85339 0.0
C94 C 0.55209 0.40991 0.83813 0.0
C95 C 0.53307 0.39231 0.86548 0.0
C96 C 0.54815 0.36401 0.84681 0.0
C97 C 0.53721 0.36796 0.86224 0.0
C98 C 0.55586 0.38541 0.83484 0.0
C99 C 0.57325 0.50963 0.81502 0.0
O100 O 0.55777 0.55375 0.83897 0.0
O101 O 0.52315 0.50504 0.85083 0.0
O102 O 0.64975 0.61739 0.84765 0.0
O103 O 0.63137 0.59823 0.82258 0.0
O104 O 0.63796 0.57224 0.86745 0.0
O105 O 0.58143 0.53688 0.8621 0.0
O106 O 0.62279 0.50622 0.84751 0.0
O107 O 0.65897 0.55762 0.83844 0.0
O108 O 0.52114 0.44369 0.84462 0.0
O109 O 0.56206 0.46472 0.86462 0.0
O110 O 0.54294 0.48512 0.82078 0.0
O111 O 0.59865 0.52357 0.82584 0.0
H112 H 0.66061 0.6716 0.85439 0.0
H113 H 0.61309 0.62694 0.80653 0.0
H114 H 0.59962 0.66504 0.80298 0.0
H115 H 0.64619 0.70926 0.851 0.0
H116 H 0.55823 0.4261 0.8287 0.0
H117 H 0.52403 0.39466 0.87736 0.0
H118 H 0.53098 0.35172 0.87166 0.0
H119 H 0.56486 0.38322 0.82292 0.0
C120 C 0.65401 0.10529 0.17806 0.0
C121 C 0.68114 0.13538 0.18618 0.0
C122 C 0.68274 0.13801 0.20332 0.0
C123 C 0.62992 0.08206 0.20423 0.0
C124 C 0.62838 0.07892 0.18738 0.0
C125 C 0.59623 0.04526 0.18118 0.0
H126 H 0.44058 0.89798 0.19977 0.0
C127 C 0.59887 0.05121 0.21047 0.0
C128 C 0.57859 0.02931 0.19707 0.0
H129 H 0.48324 0.92809 0.15178 0.0
H130 H 0.53596 0.98012 0.16359 0.0
H131 H 0.51652 0.92372 0.21589 0.0
H132 H 0.4565 0.96325 0.21373 0.0
H133 H 0.47489 0.97207 0.23367 0.0
H134 H 0.44292 0.93059 0.22609 0.0
H135 H 0.47771 0.9106 0.22848 0.0
H136 H 0.52426 0.94406 0.23492 0.0
C137 C 0.6119 0.02942 0.17191 0.0
C138 C 0.57016 0.04783 0.17066 0.0
C139 C 0.58236 0.04214 0.27173 0.0
C140 C 0.55541 0.01717 0.28131 0.0
C141 C 0.52575 0.98786 0.2735 0.0
C142 C 0.52306 0.98341 0.25648 0.0
C143 C 0.55028 0.00851 0.24707 0.0
C144 C 0.57919 0.03729 0.25471 0.0
C145 C 0.60515 0.06142 0.24273 0.0
C146 C 0.58739 0.0421 0.22663 0.0
C147 C 0.55538 0.01124 0.22928 0.0
C148 C 0.64377 0.06955 0.24567 0.0
C149 C 0.60418 0.09076 0.24481 0.0
C150 C 0.46107 0.91586 0.19176 0.0
C151 C 0.45749 0.90924 0.17485 0.0
C152 C 0.48536 0.9328 0.16487 0.0
C153 C 0.51579 0.96294 0.17175 0.0
C154 C 0.51849 0.96935 0.18877 0.0
C155 C 0.4915 0.94559 0.19839 0.0
C156 C 0.49893 0.95529 0.21621 0.0
C157 C 0.53455 0.98908 0.21588 0.0
C158 C 0.54608 0.99768 0.19981 0.0
C159 C 0.50442 0.93225 0.22444 0.0
C160 C 0.46667 0.95516 0.22293 0.0
H161 H 0.66037 0.11557 0.22533 0.0
H162 H 0.65222 0.10265 0.16488 0.0
H163 H 0.56537 0.06454 0.17686 0.0
H164 H 0.5426 0.02461 0.16854 0.0
H165 H 0.58236 0.05728 0.15866 0.0
H166 H 0.63675 0.03515 0.17846 0.0
H167 H 0.62021 0.03832 0.15948 0.0
H168 H 0.59217 0.00286 0.17094 0.0
H169 H 0.60525 0.0651 0.27734 0.0
H170 H 0.50487 0.96809 0.28058 0.0
H171 H 0.49987 0.96049 0.25135 0.0
H172 H 0.64112 0.04766 0.24867 0.0
H173 H 0.65895 0.08782 0.25599 0.0
H174 H 0.66111 0.07818 0.23481 0.0
H175 H 0.5774 0.08373 0.24974 0.0
H176 H 0.60627 0.10118 0.23311 0.0
H177 H 0.6265 0.10993 0.25334 0.0
H178 H 0.70366 0.16078 0.2098 0.0
C179 C 0.65752 0.11166 0.21234 0.0
C180 C 0.56766 0.59758 0.54318 0.0
C181 C 0.56724 0.62109 0.55231 0.0
C182 C 0.57184 0.62368 0.56939 0.0
C183 C 0.57659 0.57973 0.56812 0.0
C184 C 0.57213 0.57704 0.55135 0.0
C185 C 0.57209 0.54994 0.54376 0.0
H186 H 0.58862 0.43027 0.55401 0.0
C187 C 0.58033 0.5549 0.57293 0.0
C188 C 0.57767 0.53721 0.55873 0.0
H189 H 0.56752 0.45612 0.50893 0.0
H190 H 0.56829 0.49838 0.52354 0.0
H191 H 0.64888 0.50342 0.56983 0.0
H192 H 0.53156 0.43192 0.57372 0.0
H193 H 0.54733 0.4524 0.59296 0.0
H194 H 0.56406 0.4304 0.585 0.0
H195 H 0.62838 0.46668 0.5799 0.0
H196 H 0.63833 0.5024 0.59056 0.0
C197 C 0.60511 0.56452 0.53222 0.0
C198 C 0.53389 0.52468 0.53526 0.0
C199 C 0.59716 0.54597 0.63291 0.0
C200 C 0.59932 0.52419 0.64116 0.0
C201 C 0.59921 0.50036 0.63208 0.0
C202 C 0.59656 0.49798 0.61503 0.0
C203 C 0.59362 0.51945 0.60693 0.0
C204 C 0.59402 0.54298 0.61585 0.0
C205 C 0.58923 0.56286 0.60518 0.0
C206 C 0.58579 0.5473 0.58841 0.0
C207 C 0.58861 0.52208 0.58952 0.0
C208 C 0.62471 0.59818 0.60709 0.0
C209 C 0.55309 0.55819 0.60995 0.0
C210 C 0.58465 0.44532 0.54726 0.0
C211 C 0.57851 0.44023 0.5303 0.0
C212 C 0.57237 0.45969 0.52201 0.0
C213 C 0.5729 0.4842 0.53051 0.0
C214 C 0.57916 0.489 0.54751 0.0
C215 C 0.5846 0.46947 0.55556 0.0
C216 C 0.58909 0.47672 0.57367 0.0
C217 C 0.58614 0.50424 0.57522 0.0
C218 C 0.58053 0.51158 0.55989 0.0
C219 C 0.62805 0.48771 0.57891 0.0
C220 C 0.55661 0.44638 0.58188 0.0
H221 H 0.57993 0.60662 0.59031 0.0
H222 H 0.56397 0.5949 0.53005 0.0
H223 H 0.51148 0.5228 0.54221 0.0
H224 H 0.52618 0.50008 0.53461 0.0
H225 H 0.53302 0.53137 0.52277 0.0
H226 H 0.63021 0.5871 0.53796 0.0
H227 H 0.59893 0.57054 0.5206 0.0
H228 H 0.61305 0.54848 0.52942 0.0
H229 H 0.59668 0.56424 0.6396 0.0
H230 H 0.60111 0.48349 0.63821 0.0
H231 H 0.59653 0.47926 0.60885 0.0
H232 H 0.64972 0.599 0.60831 0.0
H233 H 0.6238 0.61096 0.61814 0.0
H234 H 0.6297 0.61209 0.59639 0.0
H235 H 0.53225 0.53372 0.61435 0.0
H236 H 0.53906 0.55967 0.59955 0.0
H237 H 0.55842 0.57603 0.61986 0.0
H238 H 0.57221 0.64189 0.57667 0.0
C239 C 0.57655 0.60326 0.57731 0.0
C240 C 0.17796 0.53263 0.85191 0.0
C241 C 0.20548 0.53261 0.86031 0.0
C242 C 0.20323 0.53046 0.87726 0.0
C243 C 0.14901 0.52961 0.87771 0.0
C244 C 0.14978 0.53123 0.86098 0.0
C245 C 0.11783 0.53147 0.85503 0.0
H246 H 0.97122 0.53429 0.87952 0.0
C247 C 0.11804 0.52928 0.88409 0.0
C248 C 0.09893 0.53043 0.871 0.0
H249 H 1.00008 0.53297 0.82953 0.0
H250 H 0.0507 0.5312 0.83856 0.0
H251 H 0.97548 0.48074 0.88937 0.0
H252 H 0.05072 0.58387 0.8936 0.0
H253 H 0.05693 0.57165 0.91185 0.0
H254 H 1.01206 0.56098 0.90661 0.0
H255 H 0.9713 0.50425 0.90466 0.0
H256 H 0.99806 0.48976 0.90828 0.0
C257 C 0.09161 0.50122 0.84372 0.0
C258 C 0.13373 0.56274 0.84648 0.0
C259 C 0.10086 0.52573 0.94554 0.0
C260 C 0.07544 0.52567 0.95559 0.0
C261 C 0.04865 0.52737 0.94837 0.0
C262 C 0.04686 0.52874 0.93151 0.0
C263 C 0.07215 0.52843 0.92156 0.0
C264 C 0.0986 0.52707 0.92863 0.0
C265 C 0.12325 0.52721 0.91619 0.0
C266 C 0.10702 0.52863 0.90042 0.0
C267 C 0.07722 0.52932 0.9037 0.0
C268 C 0.11819 0.49499 0.9169 0.0
C269 C 0.16328 0.55819 0.91989 0.0
C270 C 0.98839 0.53398 0.87034 0.0
C271 C 0.98159 0.53438 0.85383 0.0
C272 C 1.00448 0.53286 0.84243 0.0
C273 C 1.03391 0.53192 0.84765 0.0
C274 C 1.04035 0.53202 0.86447 0.0
C275 C 1.01701 0.53273 0.87526 0.0
C276 C 1.02532 0.53171 0.89255 0.0
C277 C 0.05769 0.53052 0.89081 0.0
C278 C 0.06761 0.53088 0.87437 0.0
C279 C 0.99087 0.50021 0.89921 0.0
C280 C 1.03661 0.56347 0.90177 0.0
H281 H 0.17634 0.5274 0.89875 0.0
H282 H 0.17877 0.53422 0.83882 0.0
H283 H 0.15414 0.58411 0.85465 0.0
H284 H 0.11181 0.56495 0.84313 0.0
H285 H 0.14792 0.56347 0.8352 0.0
H286 H 0.08252 0.47915 0.84989 0.0
H287 H 0.10571 0.50208 0.83238 0.0
H288 H 0.06651 0.49882 0.8403 0.0
H289 H 0.12172 0.52431 0.95067 0.0
H290 H 1.02917 0.52801 0.95582 0.0
H291 H 1.02575 0.53002 0.92695 0.0
H292 H 0.08959 0.47511 0.92036 0.0
H293 H 0.13753 0.4971 0.92602 0.0
H294 H 0.12165 0.48632 0.90497 0.0
H295 H 0.16329 0.5779 0.92591 0.0
H296 H 0.17924 0.56864 0.90875 0.0
H297 H 0.17868 0.55358 0.92812 0.0
H298 H 0.22339 0.53012 0.88402 0.0
C299 C 0.17557 0.5289 0.88587 0.0
C300 C 0.9768 0.43517 0.46086 0.0
C301 C 0.94615 0.4063 0.45317 0.0
C302 C 0.94244 0.40336 0.43609 0.0
C303 C 0.9986 0.4576 0.43438 0.0
C304 C 1.00262 0.46072 0.45118 0.0
C305 C 1.03621 0.49397 0.45698 0.0
H306 H 0.17912 0.64578 0.43679 0.0
C307 C 1.02894 0.48834 0.42776 0.0
C308 C 0.05118 0.51009 0.4409 0.0
H309 H 0.15243 0.61069 0.48513 0.0
H310 H 0.10141 0.55735 0.47385 0.0
H311 H 0.17201 0.58684 0.42082 0.0
H312 H 0.09689 0.61132 0.42366 0.0
H313 H 0.09271 0.59545 0.40369 0.0
H314 H 0.13676 0.63125 0.41111 0.0
H315 H 0.17547 0.61501 0.4078 0.0
H316 H 0.14726 0.57233 0.40217 0.0
C317 C 0.06344 0.49038 0.46572 0.0
C318 C 1.02305 0.5103 0.46786 0.0
C319 C 1.03653 0.4982 0.36636 0.0
C320 C 0.06124 0.52373 0.35651 0.0
C321 C 0.09023 0.55374 0.36403 0.0
C322 C 0.09468 0.55823 0.38101 0.0
C323 C 0.06996 0.53247 0.39068 0.0
C324 C 1.04144 0.50312 0.38334 0.0
C325 C 1.01783 0.47858 0.3956 0.0
C326 C 1.03733 0.49795 0.41149 0.0
C327 C 0.06769 0.5294 0.4085 0.0
C328 C 1.02029 0.45025 0.39256 0.0
C329 C 0.97816 0.46898 0.39403 0.0
C330 C 0.16207 0.62675 0.44501 0.0
C331 C 0.1693 0.63254 0.46186 0.0
C332 C 0.14718 0.6068 0.47208 0.0
C333 C 0.11756 0.57596 0.46552 0.0
C334 C 0.11034 0.5708 0.44855 0.0
C335 C 0.13296 0.59607 0.43868 0.0
C336 C 0.12293 0.58662 0.42096 0.0
C337 C 0.08997 0.55162 0.42165 0.0
C338 C 0.08222 0.54218 0.43781 0.0
C339 C 0.15603 0.59052 0.41236 0.0
C340 C 0.11194 0.60725 0.41435 0.0
H341 H 0.96379 0.42478 0.41374 0.0
H342 H 0.98004 0.43799 0.47401 0.0
H343 H 0.99833 0.50638 0.46221 0.0
H344 H 1.04398 0.53665 0.46952 0.0
H345 H 1.01535 0.50013 0.48005 0.0
H346 H 0.06496 0.47207 0.45899 0.0
H347 H 0.05444 0.48248 0.47827 0.0
H348 H 0.09202 0.51282 0.46634 0.0
H349 H 1.01371 0.47494 0.36099 0.0
H350 H 0.11 0.57367 0.35676 0.0
H351 H 0.11739 0.58163 0.3859 0.0
H352 H 0.04884 0.45933 0.38926 0.0
H353 H 1.0013 0.43342 0.3824 0.0
H354 H 1.01435 0.43652 0.40345 0.0
H355 H 0.97848 0.48878 0.38931 0.0
H356 H 0.96456 0.46445 0.4059 0.0
H357 H 0.96041 0.4474 0.38555 0.0
H358 H 0.91907 0.38129 0.43 0.0
C359 C 0.96845 0.4287 0.42668 0.0
C360 C 0.58358 0.95197 0.78464 0.0
C361 C 0.5827 0.92743 0.77596 0.0
C362 C 0.58198 0.92605 0.7588 0.0
C363 C 0.58203 0.97258 0.7591 0.0
C364 C 0.58284 0.97409 0.77595 0.0
C365 C 0.58143 1.00067 0.78306 0.0
H366 H 0.56804 0.12103 0.76989 0.0
C367 C 0.58028 0.99821 0.75373 0.0
C368 C 0.57969 0.01474 0.7677 0.0
H369 H 0.57309 0.08873 0.81638 0.0
H370 H 0.57878 0.04951 0.80258 0.0
H371 H 0.63114 0.11934 0.75311 0.0
H372 H 0.51251 0.05293 0.75301 0.0
H373 H 0.52523 0.0493 0.73329 0.0
H374 H 0.53649 0.08751 0.74097 0.0
H375 H 0.60183 0.12551 0.74236 0.0
H376 H 0.61655 0.10288 0.73303 0.0
C377 C 0.61755 0.02512 0.79316 0.0
C378 C 0.54574 0.98519 0.79296 0.0
C379 C 0.57612 0.01149 0.69311 0.0
C380 C 0.57201 0.03179 0.6845 0.0
C381 C 0.56976 0.05462 0.69321 0.0
C382 C 0.57143 0.05718 0.71025 0.0
C383 C 0.57505 0.03648 0.71874 0.0
C384 C 0.57726 0.01408 0.71019 0.0
C385 C 0.57949 0.99328 0.72133 0.0
C386 C 0.57878 0.00724 0.73795 0.0
C387 C 0.57635 0.03256 0.73631 0.0
C388 C 0.61681 0.99887 0.71855 0.0
C389 C 0.54479 0.95784 0.71797 0.0
C390 C 0.56995 0.10532 0.77716 0.0
C391 C 0.56958 0.10772 0.79425 0.0
C392 C 0.57329 0.08738 0.80319 0.0
C393 C 0.57637 0.06452 0.79515 0.0
C394 C 0.57575 0.06199 0.778 0.0
C395 C 0.57286 0.08245 0.76937 0.0
C396 C 0.57252 0.07667 0.75128 0.0
C397 C 0.57551 0.04919 0.75035 0.0
C398 C 0.57736 0.04053 0.76599 0.0
C399 C 0.60707 0.10765 0.74444 0.0
C400 C 0.53497 0.06627 0.74413 0.0
H401 H 0.58124 0.94609 0.73731 0.0
H402 H 0.58385 0.95337 0.79783 0.0
H403 H 0.52239 0.96208 0.78674 0.0
H404 H 0.53611 1.00025 0.79417 0.0
H405 H 0.5497 0.97989 0.80531 0.0
H406 H 0.64169 0.02892 0.78688 0.0
H407 H 0.61619 0.0163 0.80535 0.0
H408 H 0.62407 0.04925 0.79475 0.0
H409 H 0.57742 0.99345 0.6867 0.0
H410 H 0.56686 0.07065 0.68678 0.0
H411 H 0.56957 0.07506 0.71612 0.0
H412 H 0.63939 0.02486 0.7171 0.0
H413 H 0.61536 0.98518 0.70733 0.0
H414 H 0.6259 0.99237 0.72891 0.0
H415 H 0.52103 0.9566 0.71322 0.0
H416 H 0.53444 0.94428 0.72913 0.0
H417 H 0.55033 0.9448 0.70881 0.0
H418 H 0.58168 0.90752 0.75191 0.0
C419 C 0.58182 0.94852 0.75035 0.0
C420 C 0.56877 0.38735 0.13877 0.0
C421 C 0.57693 0.3678 0.13076 0.0
C422 C 0.5731 0.36325 0.11362 0.0
C423 C 0.55687 0.39986 0.11279 0.0
C424 C 0.5589 0.40305 0.12961 0.0
C425 C 0.55168 0.42618 0.13631 0.0
H426 H 0.51675 0.53236 0.12269 0.0
C427 C 0.54861 0.42132 0.10696 0.0
C428 C 0.54526 0.43658 0.12073 0.0
H429 H 0.52848 0.5039 0.16912 0.0
H430 H 0.53902 0.46787 0.15532 0.0
H431 H 0.58491 0.53547 0.10456 0.0
H432 H 0.46686 0.46565 0.10656 0.0
H433 H 0.47854 0.45916 0.08714 0.0
H434 H 0.48759 0.49743 0.09277 0.0
H435 H 0.55238 0.54036 0.09602 0.0
H436 H 0.56731 0.51979 0.08458 0.0
C437 C 0.58692 0.45454 0.14587 0.0
C438 C 0.51641 0.40726 0.14659 0.0
C439 C 0.54815 0.43654 0.04629 0.0
C440 C 0.54038 0.45443 0.03758 0.0
C441 C 0.52935 0.47149 0.04605 0.0
C442 C 0.52722 0.47169 0.06302 0.0
C443 C 0.53605 0.45452 0.07166 0.0
C444 C 0.54527 0.43656 0.0633 0.0
C445 C 0.55127 0.41815 0.0746 0.0
C446 C 0.54541 0.42903 0.09108 0.0
C447 C 0.53725 0.4508 0.08923 0.0
C448 C 0.59153 0.42959 0.07284 0.0
C449 C 0.52142 0.38159 0.07051 0.0
C450 C 0.52255 0.51901 0.12991 0.0
C451 C 0.52248 0.52137 0.14701 0.0
C452 C 0.52866 0.5026 0.15593 0.0
C453 C 0.53462 0.48164 0.14788 0.0
C454 C 0.53409 0.47927 0.13073 0.0
C455 C 0.52818 0.49785 0.12207 0.0
C456 C 0.52722 0.49153 0.10397 0.0
C457 C 0.5339 0.46622 0.10313 0.0
C458 C 0.53798 0.45921 0.1188 0.0
C459 C 0.55941 0.52335 0.09676 0.0
C460 C 0.48823 0.47794 0.09713 0.0
H461 H 0.56147 0.37532 0.09158 0.0
H462 H 0.57202 0.39191 0.15188 0.0
H463 H 0.49614 0.38222 0.14125 0.0
H464 H 0.50128 0.41779 0.14691 0.0
H465 H 0.52314 0.40563 0.15926 0.0
H466 H 0.61234 0.46052 0.13985 0.0
H467 H 0.58758 0.44836 0.15851 0.0
H468 H 0.58976 0.47717 0.14633 0.0
H469 H 0.55612 0.42282 0.03998 0.0
H470 H 0.52329 0.48542 0.03953 0.0
H471 H 0.51921 0.48557 0.06876 0.0
H472 H 0.61097 0.45633 0.07266 0.0
H473 H 0.59457 0.4193 0.06131 0.0
H474 H 0.60121 0.42335 0.08306 0.0
H475 H 0.49554 0.37658 0.06557 0.0
H476 H 0.51274 0.36728 0.08138 0.0
H477 H 0.53118 0.37209 0.06123 0.0
H478 H 0.57883 0.34805 0.10714 0.0
C479 C 0.56307 0.37914 0.1046 0.0
C480 C 0.28788 0.53823 0.16536 0.0
C481 C 0.2816 0.55216 0.15305 0.0
C482 C 0.32361 0.54852 0.16897 0.0
C483 C 0.41159 0.58488 0.14848 0.0
H484 H 0.44043 0.5725 0.18983 0.0
C485 C 0.52549 0.57102 0.1496 0.0
C486 C 0.51187 0.54072 0.15513 0.0
C487 C 0.50835 0.58535 0.15393 0.0
C488 C 0.43301 0.57649 0.17827 0.0
H489 H 0.30767 0.58918 0.13562 0.0
H490 H 0.37048 0.6079 0.1422 0.0
H491 H 0.38789 0.57438 0.1884 0.0
H492 H 0.47243 0.50338 0.17091 0.0
H493 H 0.44232 0.5282 0.17838 0.0
H494 H 0.45549 0.58565 0.13819 0.0
C495 C 0.34773 0.5884 0.14877 0.0
C496 C 0.40281 0.57737 0.17741 0.0
C497 C 0.31185 0.57774 0.14499 0.0
C498 C 0.48355 0.52677 0.16649 0.0
C499 C 0.46635 0.54108 0.1708 0.0
C500 C 0.44189 0.58434 0.14938 0.0
C501 C 0.35393 0.57325 0.16047 0.0
C502 C 0.39068 0.58002 0.16234 0.0
C503 C 0.47724 0.56956 0.16382 0.0
C504 C 0.4519 0.57868 0.16412 0.0
H505 H 0.26494 0.51831 0.17167 0.0
H506 H 0.32706 0.5358 0.17782 0.0
H507 H 0.40297 0.58659 0.13662 0.0
H508 H 0.5478 0.58257 0.14106 0.0
H509 H 0.51773 0.60762 0.14861 0.0
C510 C 0.69923 0.13141 0.48883 0.0
C511 C 0.66387 0.12219 0.48468 0.0
C512 C 0.73064 0.16349 0.4878 0.0
C513 C 0.76205 0.23697 0.46689 0.0
H514 H 0.84523 0.28059 0.49767 0.0
C515 C 0.88078 0.37021 0.46155 0.0
C516 C 0.91671 0.37898 0.4624 0.0
C517 C 0.85078 0.34049 0.46674 0.0
C518 C 0.82229 0.26866 0.48893 0.0
H519 H 0.63377 0.1399 0.47692 0.0
H520 H 0.68804 0.19546 0.4754 0.0
H521 H 0.79116 0.22522 0.50181 0.0
H522 H 0.94994 0.36439 0.46992 0.0
H523 H 0.89729 0.312 0.47902 0.0
H524 H 0.79291 0.27993 0.45392 0.0
C525 C 0.6918 0.1779 0.47905 0.0
C526 C 0.79133 0.2369 0.49128 0.0
C527 C 0.66056 0.14595 0.48 0.0
C528 C 0.92248 0.35828 0.4694 0.0
C529 C 0.89231 0.3283 0.47454 0.0
C530 C 0.79279 0.26855 0.46458 0.0
C531 C 0.72736 0.18705 0.48264 0.0
C532 C 0.7607 0.22073 0.48032 0.0
C533 C 0.85594 0.31859 0.47271 0.0
C534 C 0.82325 0.28495 0.4756 0.0
H535 H 0.70278 0.11373 0.49247 0.0
H536 H 0.75757 0.16959 0.49055 0.0
H537 H 0.7395 0.22509 0.45795 0.0
H538 H 0.87571 0.38576 0.4561 0.0
H539 H 0.8233 0.33415 0.4655 0.0
C540 C 0.64029 0.7466 0.82945 0.0
C541 C 0.61418 0.71391 0.8243 0.0
C542 C 0.6343 0.76925 0.82619 0.0
C543 C 0.58535 0.78256 0.79689 0.0
H544 H 0.60664 0.85101 0.82794 0.0
C545 C 0.55534 0.86999 0.77992 0.0
C546 C 0.58203 0.90278 0.78447 0.0
C547 C 0.55675 0.84662 0.78651 0.0
C548 C 0.6009 0.83223 0.81908 0.0
H549 H 0.56043 0.67923 0.81242 0.0
H550 H 0.55029 0.71881 0.80654 0.0
H551 H 0.61409 0.81076 0.8363 0.0
H552 H 0.63034 0.93692 0.79988 0.0
H553 H 0.63358 0.89608 0.81115 0.0
H554 H 0.57324 0.80419 0.77953 0.0
C555 C 0.5756 0.72694 0.81292 0.0
C556 C 0.60509 0.80915 0.82389 0.0
C557 C 0.58148 0.70429 0.81625 0.0
C558 C 0.60936 0.91173 0.79624 0.0
C559 C 0.6111 0.88831 0.80271 0.0
C560 C 0.58147 0.80568 0.79206 0.0
C561 C 0.60218 0.75973 0.81763 0.0
C562 C 0.59724 0.78403 0.81284 0.0
C563 C 0.58527 0.85551 0.79762 0.0
C564 C 0.58904 0.83077 0.80308 0.0
H565 H 0.66597 0.75493 0.83552 0.0
H566 H 0.65543 0.7944 0.82983 0.0
H567 H 0.57983 0.7639 0.788 0.0
H568 H 0.53365 0.86248 0.77104 0.0
H569 H 0.53578 0.82156 0.78265 0.0
C570 C 0.83338 0.41275 0.19406 0.0
C571 C 0.8507 0.44604 0.19557 0.0
C572 C 0.79483 0.39068 0.19357 0.0
C573 C 0.72242 0.35814 0.17527 0.0
H574 H 0.65764 0.37877 0.19112 0.0
C575 C 0.62519 0.35932 0.13408 0.0
C576 C 0.59409 0.35612 0.14016 0.0
C577 C 0.64681 0.35568 0.14416 0.0
C578 C 0.67475 0.37184 0.1868 0.0
H579 H 0.84167 0.48232 0.19927 0.0
H580 H 0.77472 0.44421 0.19799 0.0
H581 H 0.71512 0.40075 0.20595 0.0
H582 H 0.55895 0.34303 0.16105 0.0
H583 H 0.59708 0.33693 0.17876 0.0
H584 H 0.68265 0.33013 0.15583 0.0
C585 C 0.79049 0.43477 0.19748 0.0
C586 C 0.70802 0.38482 0.19522 0.0
C587 C 0.829 0.45677 0.19814 0.0
C588 C 0.58323 0.34632 0.15612 0.0
C589 C 0.60499 0.34277 0.16625 0.0
C590 C 0.68902 0.34491 0.16697 0.0
C591 C 0.77293 0.40156 0.19435 0.0
C592 C 0.73335 0.37987 0.18892 0.0
C593 C 0.63789 0.34877 0.16057 0.0
C594 C 0.66605 0.35338 0.17203 0.0
H595 H 0.84964 0.40388 0.19233 0.0
H596 H 0.78224 0.36525 0.19155 0.0
H597 H 0.74103 0.3536 0.17002 0.0
H598 H 0.63467 0.36721 0.12194 0.0
H599 H 0.67221 0.36094 0.1394 0.0
C600 C 0.43244 0.91571 0.47254 0.0
C601 C 0.46528 0.92478 0.48022 0.0
C602 C 0.40018 0.88398 0.47268 0.0
C603 C 0.36638 0.80021 0.47828 0.0
H604 H 0.27193 0.78514 0.48325 0.0
C605 C 0.22828 0.67094 0.47848 0.0
C606 C 0.20015 0.66556 0.46829 0.0
C607 C 0.26006 0.70244 0.48235 0.0
C608 C 0.29806 0.7889 0.48179 0.0
H609 H 0.48982 0.9073 0.49402 0.0
H610 H 0.43349 0.85203 0.49432 0.0
H611 H 0.32883 0.84018 0.48481 0.0
H612 H 0.18221 0.68885 0.45492 0.0
H613 H 0.23719 0.74346 0.46163 0.0
H614 H 0.33547 0.74887 0.47501 0.0
C615 C 0.43278 0.86943 0.48807 0.0
C616 C 0.33071 0.8205 0.48263 0.0
C617 C 0.46508 0.90121 0.48795 0.0
C618 C 0.20354 0.69227 0.46275 0.0
C619 C 0.235 0.72361 0.46669 0.0
C620 C 0.33367 0.76855 0.47745 0.0
C621 C 0.39984 0.86042 0.4805 0.0
C622 C 0.36529 0.82662 0.48061 0.0
C623 C 0.26407 0.72914 0.47625 0.0
C624 C 0.29904 0.76252 0.47891 0.0
H625 H 0.43153 0.93314 0.46643 0.0
H626 H 0.37555 0.87783 0.46648 0.0
H627 H 0.39245 0.80398 0.47653 0.0
H628 H 0.22647 0.65078 0.48284 0.0
H629 H 0.28176 0.70588 0.48989 0.0
C630 C 0.53453 0.31806 0.82835 0.0
C631 C 0.55051 0.33712 0.84293 0.0
C632 C 0.53705 0.29302 0.8244 0.0
C633 C 0.5573 0.24062 0.84184 0.0
H634 H 0.56929 0.22566 0.79634 0.0
C635 C 0.58669 0.15069 0.81626 0.0
C636 C 0.56511 0.13138 0.8024 0.0
C637 C 0.58499 0.17532 0.82265 0.0
C638 C 0.56577 0.22946 0.80908 0.0
H639 H 0.58149 0.34487 0.8649 0.0
H640 H 0.58673 0.30147 0.85784 0.0
H641 H 0.56751 0.2703 0.80453 0.0
H642 H 0.52278 0.12118 0.7852 0.0
H643 H 0.52046 0.16433 0.79612 0.0
H644 H 0.55629 0.19977 0.84626 0.0
C645 C 0.57163 0.30549 0.84957 0.0
C646 C 0.56457 0.25496 0.81379 0.0
C647 C 0.56875 0.3304 0.8536 0.0
C648 C 0.54053 0.13617 0.79561 0.0
C649 C 0.5391 0.16082 0.80187 0.0
C650 C 0.55895 0.21521 0.83712 0.0
C651 C 0.55602 0.28662 0.83485 0.0
C652 C 0.5596 0.26055 0.83018 0.0
C653 C 0.56188 0.18111 0.81521 0.0
C654 C 0.56251 0.20908 0.82065 0.0
H655 H 0.5197 0.3223 0.82003 0.0
H656 H 0.52381 0.27852 0.81317 0.0
H657 H 0.55321 0.24405 0.85455 0.0
H658 H 0.60596 0.14767 0.82174 0.0
H659 H 0.60283 0.19066 0.83297 0.0
C660 C 0.59922 0.8517 0.49929 0.0
C661 C 0.58039 0.86127 0.50829 0.0
C662 C 0.59409 0.82307 0.50237 0.0
C663 C 0.56476 0.76733 0.53521 0.0
H664 H 0.56342 0.71147 0.50147 0.0
C665 C 0.53858 0.64968 0.55107 0.0
C666 C 0.56244 0.64334 0.54438 0.0
C667 C 0.53733 0.6736 0.5451 0.0
C668 C 0.56399 0.72696 0.51102 0.0
H669 H 0.53988 0.84741 0.52693 0.0
H670 H 0.53062 0.79741 0.53219 0.0
H671 H 0.56743 0.75832 0.49395 0.0
H672 H 0.60235 0.65599 0.52563 0.0
H673 H 0.60044 0.69818 0.51521 0.0
H674 H 0.56175 0.73644 0.55229 0.0
C675 C 0.55008 0.81238 0.52303 0.0
C676 C 0.5663 0.75381 0.50673 0.0
C677 C 0.55533 0.84101 0.52001 0.0
C678 C 0.58361 0.66029 0.53098 0.0
C679 C 0.58249 0.68443 0.52503 0.0
C680 C 0.5624 0.74059 0.53948 0.0
C681 C 0.56991 0.80333 0.51448 0.0
C682 C 0.56667 0.77431 0.51879 0.0
C683 C 0.56005 0.69193 0.53233 0.0
C684 C 0.56192 0.72001 0.52747 0.0
H685 H 0.61896 0.86692 0.49027 0.0
H686 H 0.61008 0.81703 0.49566 0.0
H687 H 0.56588 0.78297 0.54485 0.0
H688 H 0.52139 0.63655 0.5612 0.0
H689 H 0.51904 0.67818 0.55074 0.0
C690 C 0.72352 0.55838 0.83767 0.0
C691 C 0.68887 0.53171 0.84277 0.0
C692 C 0.75487 0.55863 0.8376 0.0
C693 C 0.78513 0.50481 0.83996 0.0
H694 H 0.88133 0.58618 0.84914 0.0
C695 C 0.92272 0.51543 0.83765 0.0
C696 C 0.95076 0.53667 0.84941 0.0
C697 C 0.89128 0.51495 0.83566 0.0
C698 C 0.85481 0.56304 0.84665 0.0
H699 H 0.66093 0.48408 0.85175 0.0
H700 H 0.71529 0.4846 0.85185 0.0
H701 H 0.82659 0.58447 0.84878 0.0
H702 H 0.96765 0.575 0.86776 0.0
H703 H 0.9139 0.57413 0.86444 0.0
H704 H 0.81354 0.48332 0.83831 0.0
C705 C 0.71829 0.50539 0.84765 0.0
C706 C 0.82304 0.56213 0.84621 0.0
C707 C 0.68685 0.50514 0.84771 0.0
C708 C 0.94683 0.55815 0.8586 0.0
C709 C 0.91575 0.55778 0.85659 0.0
C710 C 0.81702 0.50573 0.84039 0.0
C711 C 0.75311 0.53222 0.84266 0.0
C712 C 0.78738 0.53299 0.84292 0.0
C713 C 0.88692 0.53591 0.84525 0.0
C714 C 0.8526 0.53486 0.84387 0.0
H715 H 0.72657 0.57934 0.83367 0.0
H716 H 0.78054 0.57963 0.83335 0.0
H717 H 0.75863 0.48182 0.83716 0.0
H718 H 0.92434 0.4983 0.83041 0.0
H719 H 0.87026 0.49794 0.82661 0.0
C720 C 0.19722 0.62245 0.1491 0.0
C721 C 0.16554 0.61569 0.15683 0.0
C722 C 0.22938 0.65427 0.14859 0.0
C723 C 0.26194 0.73917 0.15282 0.0
H724 H 0.35814 0.75955 0.1614 0.0
C725 C 0.38909 0.8667 0.1733 0.0
C726 C 0.42437 0.87765 0.16812 0.0
C727 C 0.35806 0.83526 0.16915 0.0
C728 C 0.33158 0.75425 0.15868 0.0
H729 H 0.14313 0.6373 0.17019 0.0
H730 H 0.19903 0.69243 0.16944 0.0
H731 H 0.3031 0.70338 0.15994 0.0
H732 H 0.45467 0.8646 0.15402 0.0
H733 H 0.4001 0.80926 0.14663 0.0
H734 H 0.29022 0.79 0.15188 0.0
C735 C 0.19894 0.67325 0.16354 0.0
C736 C 0.29997 0.722 0.15788 0.0
C737 C 0.1669 0.64151 0.16408 0.0
C738 C 0.42775 0.85683 0.15808 0.0
C739 C 0.39659 0.8251 0.15402 0.0
C740 C 0.29347 0.77133 0.15362 0.0
C741 C 0.23058 0.68011 0.15574 0.0
C742 C 0.26464 0.71411 0.15527 0.0
C743 C 0.36144 0.81379 0.15975 0.0
C744 C 0.32862 0.77937 0.15689 0.0
H745 H 0.19722 0.60319 0.14337 0.0
H746 H 0.25312 0.65865 0.14239 0.0
H747 H 0.23531 0.73397 0.1504 0.0
H748 H 0.38568 0.88225 0.18104 0.0
H749 H 0.33162 0.82738 0.17394 0.0
C750 C 0.51612 0.18817 0.47456 0.0
C751 C 0.54422 0.18488 0.47754 0.0
C752 C 0.52162 0.21727 0.47863 0.0
C753 C 0.57594 0.2889 0.50672 0.0
H754 H 0.5448 0.32605 0.47834 0.0
C755 C 0.60575 0.41081 0.52474 0.0
C756 C 0.57781 0.41411 0.52159 0.0
C757 C 0.60345 0.38445 0.51793 0.0
C758 C 0.55329 0.31583 0.48649 0.0
H759 H 0.60077 0.21035 0.48654 0.0
H760 H 0.60999 0.26079 0.49392 0.0
H761 H 0.53699 0.27673 0.46918 0.0
H762 H 0.52601 0.39288 0.50852 0.0
H763 H 0.52139 0.34628 0.49687 0.0
H764 H 0.59126 0.32714 0.52423 0.0
C765 C 0.58358 0.24068 0.48857 0.0
C766 C 0.5489 0.28762 0.48121 0.0
C767 C 0.57821 0.2117 0.48438 0.0
C768 C 0.54808 0.39104 0.51104 0.0
C769 C 0.54552 0.36438 0.50436 0.0
C770 C 0.58001 0.31686 0.51206 0.0
C771 C 0.55523 0.2437 0.4859 0.0
C772 C 0.56026 0.2739 0.49127 0.0
C773 C 0.57286 0.36042 0.50796 0.0
C774 C 0.56885 0.33081 0.50202 0.0
H775 H 0.48941 0.16796 0.46952 0.0
H776 H 0.49912 0.21876 0.47658 0.0
H777 H 0.58434 0.27859 0.51488 0.0
H778 H 0.62925 0.4285 0.53266 0.0
H779 H 0.62554 0.38275 0.52065 0.0
C780 C 0.49346 0.55385 0.83691 0.0
C781 C 0.49264 0.52994 0.8447 0.0
C782 C 0.46257 0.55433 0.83684 0.0
C783 C 0.35955 0.50348 0.84567 0.0
H784 H 0.37539 0.58513 0.84391 0.0
C785 C 0.23358 0.50906 0.84436 0.0
C786 C 0.23788 0.5356 0.85265 0.0
C787 C 0.26434 0.50876 0.84158 0.0
C788 C 0.37005 0.56196 0.84456 0.0
H789 H 0.45767 0.48782 0.8587 0.0
H790 H 0.4047 0.48908 0.85897 0.0
H791 H 0.428 0.58376 0.84369 0.0
H792 H 0.27854 0.58271 0.86437 0.0
H793 H 0.33147 0.58249 0.85959 0.0
H794 H 0.30166 0.48188 0.84723 0.0
C795 C 0.42887 0.50721 0.8525 0.0
C796 C 0.40067 0.56111 0.84418 0.0
C797 C 0.45967 0.50661 0.85246 0.0
C798 C 0.27412 0.56222 0.85751 0.0
C799 C 0.30473 0.56194 0.8548 0.0
C800 C 0.32892 0.50436 0.84615 0.0
C801 C 0.4295 0.53109 0.84467 0.0
C802 C 0.39625 0.53187 0.8448 0.0
C803 C 0.30056 0.5349 0.84713 0.0
C804 C 0.33341 0.53366 0.84571 0.0
H805 H 0.518 0.57222 0.8307 0.0
H806 H 0.46468 0.57291 0.83037 0.0
H807 H 0.35418 0.48024 0.84591 0.0
H808 H 0.20612 0.48773 0.84084 0.0
H809 H 0.25943 0.48755 0.83539 0.0
C810 C 0.9376 0.41241 0.16467 0.0
C811 C 0.96663 0.4188 0.1548 0.0
C812 C 0.90544 0.38101 0.1658 0.0
C813 C 0.8515 0.29724 0.14669 0.0
H814 H 0.80839 0.27619 0.18939 0.0
C815 C 0.73393 0.16704 0.16708 0.0
C816 C 0.70768 0.16491 0.17742 0.0
C817 C 0.76403 0.19716 0.16197 0.0
C818 C 0.8198 0.28171 0.17733 0.0
H819 H 0.98429 0.39679 0.13827 0.0
H820 H 0.92842 0.34159 0.14065 0.0
H821 H 0.86419 0.32987 0.18545 0.0
H822 H 0.69048 0.19184 0.18941 0.0
H823 H 0.74232 0.24399 0.18038 0.0
H824 H 0.80701 0.2483 0.13882 0.0
C825 C 0.93027 0.36113 0.14724 0.0
C826 C 0.85186 0.31263 0.17504 0.0
C827 C 0.96245 0.3928 0.14596 0.0
C828 C 0.7105 0.19288 0.18154 0.0
C829 C 0.74033 0.22276 0.17647 0.0
C830 C 0.81939 0.266 0.14905 0.0
C831 C 0.90148 0.35478 0.15735 0.0
C832 C 0.86795 0.32109 0.15965 0.0
C833 C 0.76825 0.22549 0.16718 0.0
C834 C 0.8029 0.25808 0.16436 0.0
H835 H 0.93976 0.43164 0.17174 0.0
H836 H 0.88367 0.37735 0.17342 0.0
H837 H 0.86295 0.30285 0.13465 0.0
H838 H 0.73249 0.14584 0.16384 0.0
H839 H 0.7851 0.19851 0.1548 0.0
C840 C 0.05799 0.50374 0.10436 0.0
C841 C 0.05909 0.52903 0.11212 0.0
C842 C 0.06335 0.50318 0.08761 0.0
C843 C 0.09924 0.55459 0.05221 0.0
H844 H 1.03464 0.47278 0.02735 0.0
C845 C 0.11031 0.54224 0.98241 0.0
C846 C 0.07653 0.52391 0.97351 0.0
C847 C 0.11085 0.54195 -0.00059 0.0
C848 C 0.05284 0.49584 0.0341 0.0
H849 H 0.06708 0.57376 0.10862 0.0
H850 H 0.07568 0.57253 0.07929 0.0
H851 H 1.0305 0.47491 0.05687 0.0
H852 H 1.01698 0.48988 0.97544 0.0
H853 H 1.01786 0.48989 0.00499 0.0
H854 H 0.12052 0.57569 0.02934 0.0
C855 C 0.07129 0.55337 0.08614 0.0
C856 C 0.05077 0.49701 0.05106 0.0
C857 C 0.06606 0.55396 0.10291 0.0
C858 C 1.04344 0.50463 0.98194 0.0
C859 C 1.04398 0.50433 -0.00111 0.0
C860 C 0.10126 0.55342 0.03523 0.0
C861 C 0.06978 0.52786 0.07827 0.0
C862 C 0.07362 0.52645 0.06031 0.0
C863 C 0.07764 0.52321 0.00786 0.0
C864 C 0.0777 0.52409 0.02596 0.0
H865 H 0.05293 0.48431 0.11122 0.0
H866 H 0.06257 0.48344 0.082 0.0
H867 H 0.1176 0.5776 0.05898 0.0
H868 H 0.13626 0.55748 0.97627 0.0
H869 H 0.13727 0.5565 0.00595 0.0
C870 C 0.54677 0.01077 0.43056 0.0
C871 C 0.5808 0.02153 0.4376 0.0
C872 C 0.54361 0.01273 0.41386 0.0
C873 C 0.59848 0.05326 0.37767 0.0
H874 H 0.51408 0.97852 0.35375 0.0
C875 C 0.59255 0.03567 0.30749 0.0
C876 C 0.55838 0.02125 0.29936 0.0
C877 C 0.59496 0.03789 0.3245 0.0
C878 C 0.53753 0.99981 0.36026 0.0
H879 H 0.63833 0.04328 0.43289 0.0
H880 H 0.63281 0.04647 0.4037 0.0
H881 H 0.51872 0.97847 0.38322 0.0
H882 H 0.50024 0.99908 0.30271 0.0
H883 H 0.50444 0.00312 0.33241 0.0
H884 H 0.61744 0.07448 0.35468 0.0
C885 C 0.60863 0.03679 0.41106 0.0
C886 C 0.5402 0.99976 0.37716 0.0
C887 C 0.61175 0.03477 0.42774 0.0
C888 C 0.52684 0.00981 0.30862 0.0
C889 C 0.52926 0.01211 0.32563 0.0
C890 C 0.59578 0.05334 0.36076 0.0
C891 C 0.57446 0.02557 0.40391 0.0
C892 C 0.57085 0.02637 0.38605 0.0
C893 C 0.56326 0.02582 0.33378 0.0
C894 C 0.56541 0.0265 0.35184 0.0
H895 H 0.52251 1.00063 0.43793 0.0
H896 H 0.51702 0.00424 0.40875 0.0
H897 H 0.62217 0.07432 0.38421 0.0
H898 H 0.61727 0.04436 0.30069 0.0
H899 H 0.62148 0.04819 0.33038 0.0
C900 C 0.55111 0.49194 0.78616 0.0
C901 C 0.57916 0.51464 0.79746 0.0
C902 C 0.55679 0.49541 0.76948 0.0
C903 C 0.60552 0.55197 0.73843 0.0
H904 H 0.58923 0.47958 0.71261 0.0
C905 C 0.62475 0.5543 0.66844 0.0
C906 C 0.6 0.52523 0.6592 0.0
C907 C 0.62538 0.55486 0.68548 0.0
C908 C 0.5934 0.49988 0.71956 0.0
H909 H 0.63488 0.5591 0.80023 0.0
H910 H 0.64435 0.56576 0.77081 0.0
H911 H 0.58392 0.47753 0.74208 0.0
H912 H 0.55568 0.47427 0.66043 0.0
H913 H 0.55569 0.47529 0.69001 0.0
H914 H 0.61328 0.5738 0.71591 0.0
C915 C 0.61818 0.54516 0.775 0.0
C916 C 0.59064 0.49874 0.73646 0.0
C917 C 0.61276 0.54135 0.79176 0.0
C918 C 0.5755 0.4969 0.66727 0.0
C919 C 0.57571 0.49752 0.68425 0.0
C920 C 0.60766 0.55292 0.72144 0.0
C921 C 0.59038 0.52193 0.76374 0.0
C922 C 0.59623 0.52458 0.74601 0.0
C923 C 0.60088 0.52642 0.69362 0.0
C924 C 0.60108 0.52664 0.71176 0.0
H925 H 0.52491 0.47114 0.7902 0.0
H926 H 0.53486 0.47734 0.76101 0.0
H927 H 0.60976 0.57212 0.74559 0.0
H928 H 0.64405 0.57646 0.66247 0.0
H929 H 0.64543 0.5775 0.69224 0.0
C930 C 0.51997 0.01861 0.53805 0.0
C931 C 0.54969 0.02768 0.528 0.0
C932 C 0.52343 0.01848 0.55487 0.0
C933 C 0.57305 0.01213 0.58694 0.0
H934 H 0.54527 0.05719 0.61429 0.0
C935 C 0.59573 0.02943 0.65718 0.0
C936 C 0.56925 0.02898 0.6665 0.0
C937 C 0.5941 0.02871 0.64016 0.0
C938 C 0.55259 0.04402 0.60688 0.0
H939 H 0.60618 0.04339 0.52754 0.0
H940 H 0.61192 0.04236 0.55708 0.0
H941 H 0.5408 0.05655 0.5848 0.0
H942 H 0.5194 0.02581 0.66547 0.0
H943 H 0.51566 0.02337 0.63586 0.0
H944 H 0.58386 0.99877 0.60899 0.0
C945 C 0.58605 0.03548 0.55188 0.0
C946 C 0.55022 0.04386 0.58998 0.0
C947 C 0.58278 0.0361 0.53503 0.0
C948 C 0.54049 0.02673 0.65854 0.0
C949 C 0.53854 0.02553 0.64157 0.0
C950 C 0.57495 0.01189 0.6039 0.0
C951 C 0.55651 0.02701 0.56195 0.0
C952 C 0.56023 0.02779 0.57985 0.0
C953 C 0.56567 0.02709 0.63215 0.0
C954 C 0.56449 0.02768 0.61409 0.0
H955 H 0.49412 0.01193 0.53294 0.0
H956 H 0.50015 0.01158 0.56237 0.0
H957 H 0.58072 0.9994 0.57935 0.0
H958 H 0.61828 0.03132 0.66308 0.0
H959 H 0.61568 0.03028 0.63334 0.0
C960 C 0.62964 0.5476 0.90012 0.0
C961 C 0.5999 0.53737 0.88951 0.0
C962 C 0.62306 0.53599 0.91572 0.0
C963 C 0.55451 0.50439 0.94738 0.0
H964 H 0.60269 0.46977 0.96434 0.0
C965 C 0.57956 0.46908 0.01311 0.0
C966 C 0.54506 0.45677 0.0198 0.0
C967 C 0.58566 0.47611 -0.00331 0.0
C968 C 0.58932 0.4797 0.95988 0.0
H969 H 0.54012 0.50694 0.88673 0.0
H970 H 0.52869 0.48723 0.91405 0.0
H971 H 0.6159 0.48921 0.93686 0.0
H972 H 0.48922 0.44015 0.01457 0.0
H973 H 0.49909 0.45084 0.98576 0.0
H974 H 0.52891 0.4962 0.97038 0.0
C975 C 0.557 0.50411 0.91033 0.0
C976 C 0.59686 0.49075 0.94413 0.0
C977 C 0.56356 0.51534 0.89471 0.0
C978 C 0.51616 0.44989 0.00966 0.0
C979 C 0.52201 0.45636 0.99321 0.0
C980 C 0.54738 0.49382 0.96315 0.0
C981 C 0.58665 0.51436 0.921 0.0
C982 C 0.57936 0.50304 0.93773 0.0
C983 C 0.55716 0.47053 0.98661 0.0
C984 C 0.5645 0.48115 0.96962 0.0
H985 H 0.65791 0.56445 0.89634 0.0
H986 H 0.64638 0.54438 0.92377 0.0
H987 H 0.54106 0.51419 0.94281 0.0
H988 H 0.60234 0.47484 0.02078 0.0
H989 H 0.61317 0.48727 0.99214 0.0
C990 C 0.06618 0.47933 0.20868 0.0
C991 C 0.07638 0.50589 0.19998 0.0
C992 C 0.06161 0.47962 0.22549 0.0
C993 C 0.04544 0.51942 0.25915 0.0
H994 H 0.0867 0.48873 0.2861 0.0
C995 C 0.06375 0.54351 0.32901 0.0
C996 C 0.05762 0.51909 0.33847 0.0
C997 C 0.06281 0.5401 0.31202 0.0
C998 C 0.0745 0.49692 0.27875 0.0
H999 H 0.09008 0.55368 0.20193 0.0
H1000 H 0.08222 0.55431 0.23138 0.0
H1001 H 0.09168 0.48649 0.25662 0.0
H1002 H 1.0449 0.47162 0.33747 0.0
H1003 H 1.04249 0.46538 0.30779 0.0
H1004 H 1.02851 0.53007 0.28132 0.0
C1005 C 0.07725 0.53306 0.22518 0.0
C1006 C 0.07741 0.49568 0.26184 0.0
C1007 C 0.0819 0.53277 0.20835 0.0
C1008 C 0.0495 0.49079 0.33054 0.0
C1009 C 0.04854 0.48738 0.31354 0.0
C1010 C 1.04247 0.52061 0.27607 0.0
C1011 C 0.06716 0.50652 0.23394 0.0
C1012 C 0.06312 0.50709 0.25186 0.0
C1013 C 0.05567 0.51218 0.30409 0.0
C1014 C 0.05717 0.50955 0.28607 0.0
H1015 H 0.06158 0.45822 0.20248 0.0
H1016 H 0.05339 0.45866 0.23186 0.0
H1017 H 1.03366 0.52795 0.25176 0.0
H1018 H 0.06958 0.56543 0.33475 0.0
H1019 H 0.06871 0.55977 0.30512 0.0
loop_
_geom_bond_atom_site_label_1
_geom_bond_atom_site_label_2
_geom_bond_distance
_geom_bond_site_symmetry_2
_ccdc_geom_bond_type
Gd0 C3 2.818 . S
Gd0 O20 2.377 . S
Gd0 O22 2.448 . S
Gd0 O23 2.506 . S
Gd0 O24 2.435 . S
Gd0 O25 2.717 . S
Gd0 O27 2.395 1_455 S
Gd0 O31 2.327 . S
Gd1 C12 2.818 1_455 S
Gd1 O21 2.395 . S
Gd1 O25 2.327 . S
Gd1 O26 2.377 1_455 S
Gd1 O28 2.448 1_455 S
Gd1 O29 2.506 1_455 S
Gd1 O30 2.435 . S
Gd1 O31 2.717 . S
C2 O20 1.240 . S
C2 O21 1.240 . S
C3 Gd0 2.818 . S
C3 C4 1.510 . S
C3 O22 1.249 . S
C3 O23 1.252 . S
C4 C3 1.510 . S
C4 C5 1.404 . S
C4 C6 1.352 . S
C5 C4 1.404 . S
C5 C9 1.389 . S
C5 H32 0.930 . S
C6 C4 1.352 . S
C6 C8 1.374 . S
C6 H33 0.931 . S
C7 C8 1.359 . S
C7 C9 1.364 . S
C8 C6 1.374 . S
C8 C7 1.359 . S
C8 H34 0.931 . S
C9 C5 1.389 . S
C9 C7 1.364 . S
C9 H35 0.931 . S
C10 O24 1.256 . S
C10 O25 1.257 . S
C11 O26 1.240 . S
C11 O27 1.240 . S
C12 Gd1 2.818 1_655 S
C12 C13 1.510 . S
C12 O28 1.249 . S
C12 O29 1.252 . S
C13 C12 1.510 . S
C13 C14 1.404 . S
C13 C15 1.352 . S
C14 C13 1.404 . S
C14 C18 1.389 . S
C14 H36 0.930 . S
C15 C13 1.352 . S
C15 C17 1.374 . S
C15 H37 0.931 . S
C16 C17 1.359 . S
C16 C18 1.364 . S
C17 C15 1.374 . S
C17 C16 1.359 . S
C17 H38 0.931 . S
C18 C14 1.389 . S
C18 C16 1.364 . S
C18 H39 0.931 . S
C19 O30 1.256 . S
C19 O31 1.257 . S
O20 Gd0 2.377 . S
O20 C2 1.240 . S
O21 Gd1 2.395 . S
O21 C2 1.240 . S
O22 Gd0 2.448 . S
O22 C3 1.249 . S
O23 Gd0 2.506 . S
O23 C3 1.252 . S
O24 Gd0 2.435 . S
O24 C10 1.256 . S
O25 Gd0 2.717 . S
O25 Gd1 2.327 . S
O25 C10 1.257 . S
O26 Gd1 2.377 1_655 S
O26 C11 1.240 . S
O27 Gd0 2.395 1_655 S
O27 C11 1.240 . S
O28 Gd1 2.448 1_655 S
O28 C12 1.249 . S
O29 Gd1 2.506 1_655 S
O29 C12 1.252 . S
O30 Gd1 2.435 . S
O30 C19 1.256 . S
O31 Gd0 2.327 . S
O31 Gd1 2.717 . S
O31 C19 1.257 . S
H32 C5 0.930 . S
H33 C6 0.931 . S
H34 C8 0.931 . S
H35 C9 0.931 . S
H36 C14 0.930 . S
H37 C15 0.931 . S
H38 C17 0.931 . S
H39 C18 0.931 . S
Gd40 C43 2.818 . S
Gd40 O60 2.377 . S
Gd40 O62 2.448 . S
Gd40 O63 2.506 . S
Gd40 O64 2.435 . S
Gd40 O65 2.717 1_565 S
Gd40 O67 2.395 1_565 S
Gd40 O71 2.327 1_565 S
Gd41 C52 2.818 . S
Gd41 O61 2.395 1_545 S
Gd41 O65 2.327 . S
Gd41 O66 2.377 . S
Gd41 O68 2.448 . S
Gd41 O69 2.506 . S
Gd41 O70 2.435 . S
Gd41 O71 2.717 . S
C42 O60 1.240 . S
C42 O61 1.240 . S
C43 Gd40 2.818 . S
C43 C44 1.510 . S
C43 O62 1.249 . S
C43 O63 1.252 . S
C44 C43 1.510 . S
C44 C45 1.404 . S
C44 C46 1.352 . S
C45 C44 1.404 . S
C45 C49 1.389 . S
C45 H72 0.930 . S
C46 C44 1.352 . S
C46 C48 1.374 . S
C46 H73 0.931 . S
C47 C48 1.359 . S
C47 C49 1.364 . S
C48 C46 1.374 . S
C48 C47 1.359 . S
C48 H74 0.931 . S
C49 C45 1.389 . S
C49 C47 1.364 . S
C49 H75 0.931 . S
C50 O64 1.256 1_545 S
C50 O65 1.257 . S
C51 O66 1.240 . S
C51 O67 1.240 . S
C52 Gd41 2.818 . S
C52 C53 1.510 . S
C52 O68 1.249 . S
C52 O69 1.252 . S
C53 C52 1.510 . S
C53 C54 1.404 . S
C53 C55 1.352 . S
C54 C53 1.404 . S
C54 C58 1.389 . S
C54 H76 0.930 . S
C55 C53 1.352 . S
C55 C57 1.374 . S
C55 H77 0.931 . S
C56 C57 1.359 . S
C56 C58 1.364 . S
C57 C55 1.374 . S
C57 C56 1.359 . S
C57 H78 0.931 . S
C58 C54 1.389 . S
C58 C56 1.364 . S
C58 H79 0.931 . S
C59 O70 1.256 . S
C59 O71 1.257 . S
O60 Gd40 2.377 . S
O60 C42 1.240 . S
O61 Gd41 2.395 1_565 S
O61 C42 1.240 . S
O62 Gd40 2.448 . S
O62 C43 1.249 . S
O63 Gd40 2.506 . S
O63 C43 1.252 . S
O64 Gd40 2.435 . S
O64 C50 1.256 1_565 S
O65 Gd40 2.717 1_545 S
O65 Gd41 2.327 . S
O65 C50 1.257 . S
O66 Gd41 2.377 . S
O66 C51 1.240 . S
O67 Gd40 2.395 1_545 S
O67 C51 1.240 . S
O68 Gd41 2.448 . S
O68 C52 1.249 . S
O69 Gd41 2.506 . S
O69 C52 1.252 . S
O70 Gd41 2.435 . S
O70 C59 1.256 . S
O71 Gd40 2.327 1_545 S
O71 Gd41 2.717 . S
O71 C59 1.257 . S
H72 C45 0.930 . S
H73 C46 0.931 . S
H74 C48 0.931 . S
H75 C49 0.931 . S
H76 C54 0.930 . S
H77 C55 0.931 . S
H78 C57 0.931 . S
H79 C58 0.931 . S
Gd80 C83 2.818 . S
Gd80 O100 2.377 . S
Gd80 O102 2.448 . S
Gd80 O103 2.506 . S
Gd80 O104 2.435 . S
Gd80 O105 2.717 . S
Gd80 O107 2.395 . S
Gd80 O111 2.327 . S
Gd81 C92 2.818 . S
Gd81 O101 2.395 . S
Gd81 O105 2.327 . S
Gd81 O106 2.377 . S
Gd81 O108 2.448 . S
Gd81 O109 2.506 . S
Gd81 O110 2.435 . S
Gd81 O111 2.717 . S
C82 O100 1.240 . S
C82 O101 1.240 . S
C83 Gd80 2.818 . S
C83 C84 1.510 . S
C83 O102 1.249 . S
C83 O103 1.252 . S
C84 C83 1.510 . S
C84 C85 1.404 . S
C84 C86 1.352 . S
C85 C84 1.404 . S
C85 C89 1.389 . S
C85 H112 0.930 . S
C86 C84 1.352 . S
C86 C88 1.374 . S
C86 H113 0.931 . S
C87 C88 1.359 . S
C87 C89 1.364 . S
C88 C86 1.374 . S
C88 C87 1.359 . S
C88 H114 0.931 . S
C89 C85 1.389 . S
C89 C87 1.364 . S
C89 H115 0.931 . S
C90 O104 1.256 . S
C90 O105 1.257 . S
C91 O106 1.240 . S
C91 O107 1.240 . S
C92 Gd81 2.818 . S
C92 C93 1.510 . S
C92 O108 1.249 . S
C92 O109 1.252 . S
C93 C92 1.510 . S
C93 C94 1.404 . S
C93 C95 1.352 . S
C94 C93 1.404 . S
C94 C98 1.389 . S
C94 H116 0.930 . S
C95 C93 1.352 . S
C95 C97 1.374 . S
C95 H117 0.931 . S
C96 C97 1.359 . S
C96 C98 1.364 . S
C97 C95 1.374 . S
C97 C96 1.359 . S
C97 H118 0.931 . S
C98 C94 1.389 . S
C98 C96 1.364 . S
C98 H119 0.931 . S
C99 O110 1.256 . S
C99 O111 1.257 . S
O100 Gd80 2.377 . S
O100 C82 1.240 . S
O101 Gd81 2.395 . S
O101 C82 1.240 . S
O102 Gd80 2.448 . S
O102 C83 1.249 . S
O103 Gd80 2.506 . S
O103 C83 1.252 . S
O104 Gd80 2.435 . S
O104 C90 1.256 . S
O105 Gd80 2.717 . S
O105 Gd81 2.327 . S
O105 C90 1.257 . S
O106 Gd81 2.377 . S
O106 C91 1.240 . S
O107 Gd80 2.395 . S
O107 C91 1.240 . S
O108 Gd81 2.448 . S
O108 C92 1.249 . S
O109 Gd81 2.506 . S
O109 C92 1.252 . S
O110 Gd81 2.435 . S
O110 C99 1.256 . S
O111 Gd80 2.327 . S
O111 Gd81 2.717 . S
O111 C99 1.257 . S
H112 C85 0.930 . S
H113 C86 0.931 . S
H114 C88 0.931 . S
H115 C89 0.931 . S
H116 C94 0.930 . S
H117 C95 0.931 . S
H118 C97 0.931 . S
H119 C98 0.931 . S
C120 C121 1.391 . S
C120 C124 1.391 . S
C120 H162 0.948 . S
C121 C120 1.391 . S
C121 C122 1.391 . S
C122 C121 1.391 . S
C122 H178 0.947 . S
C122 C179 1.392 . S
C123 C124 1.391 . S
C123 C127 1.397 . S
C123 C179 1.419 . S
C124 C120 1.391 . S
C124 C123 1.391 . S
C124 C125 1.399 . S
C125 C124 1.399 . S
C125 C128 1.396 . S
C125 C137 1.453 . S
C125 C138 1.684 . S
H126 C150 0.948 . S
C127 C123 1.397 . S
C127 C128 1.394 . S
C127 C146 1.723 . S
C128 C125 1.396 . S
C128 C127 1.394 . S
C128 C158 1.723 1_545 S
H129 C152 0.947 . S
H130 C153 0.948 . S
H131 C159 0.982 . S
H132 C160 0.979 . S
H133 C160 0.980 . S
H134 C160 0.983 . S
H135 C159 0.979 . S
H136 C159 0.977 . S
C137 C125 1.453 . S
C137 H166 0.982 . S
C137 H167 0.979 . S
C137 H168 0.977 . S
C138 C125 1.684 . S
C138 H163 0.979 . S
C138 H164 0.980 . S
C138 H165 0.983 . S
C139 C140 1.391 . S
C139 C144 1.391 . S
C139 H169 0.948 . S
C140 C139 1.391 . S
C140 C141 1.391 1_545 S
C141 C140 1.391 1_565 S
C141 C142 1.392 . S
C141 H170 0.947 . S
C142 C141 1.392 . S
C142 C143 1.419 1_565 S
C142 H171 0.948 . S
C143 C142 1.419 1_545 S
C143 C144 1.391 . S
C143 C147 1.397 . S
C144 C139 1.391 . S
C144 C143 1.391 . S
C144 C145 1.399 . S
C145 C144 1.399 . S
C145 C146 1.396 . S
C145 C148 1.453 . S
C145 C149 1.684 . S
C146 C127 1.723 . S
C146 C145 1.396 . S
C146 C147 1.394 . S
C147 C143 1.397 . S
C147 C146 1.394 . S
C147 C157 1.723 1_545 S
C148 C145 1.453 . S
C148 H172 0.982 . S
C148 H173 0.979 . S
C148 H174 0.977 . S
C149 C145 1.684 . S
C149 H175 0.979 . S
C149 H176 0.980 . S
C149 H177 0.983 . S
C150 H126 0.948 . S
C150 C151 1.391 . S
C150 C155 1.391 . S
C151 C150 1.391 . S
C151 C152 1.391 . S
C152 H129 0.947 . S
C152 C151 1.391 . S
C152 C153 1.392 . S
C153 H130 0.948 . S
C153 C152 1.392 . S
C153 C154 1.419 . S
C154 C153 1.419 . S
C154 C155 1.391 . S
C154 C158 1.397 . S
C155 C150 1.391 . S
C155 C154 1.391 . S
C155 C156 1.399 . S
C156 C155 1.399 . S
C156 C157 1.396 . S
C156 C159 1.453 . S
C156 C160 1.684 . S
C157 C147 1.723 1_565 S
C157 C156 1.396 . S
C157 C158 1.394 . S
C158 C128 1.723 1_565 S
C158 C154 1.397 . S
C158 C157 1.394 . S
C159 H131 0.982 . S
C159 H135 0.979 . S
C159 H136 0.977 . S
C159 C156 1.453 . S
C160 H132 0.979 . S
C160 H133 0.980 . S
C160 H134 0.983 . S
C160 C156 1.684 . S
H161 C179 0.948 . S
H162 C120 0.948 . S
H163 C138 0.979 . S
H164 C138 0.980 . S
H165 C138 0.983 . S
H166 C137 0.982 . S
H167 C137 0.979 . S
H168 C137 0.977 . S
H169 C139 0.948 . S
H170 C141 0.947 . S
H171 C142 0.948 . S
H172 C148 0.982 . S
H173 C148 0.979 . S
H174 C148 0.977 . S
H175 C149 0.979 . S
H176 C149 0.980 . S
H177 C149 0.983 . S
H178 C122 0.947 . S
C179 C122 1.392 . S
C179 C123 1.419 . S
C179 H161 0.948 . S
C180 C181 1.391 . S
C180 C184 1.391 . S
C180 H222 0.948 . S
C181 C180 1.391 . S
C181 C182 1.391 . S
C182 C181 1.391 . S
C182 H238 0.947 . S
C182 C239 1.392 . S
C183 C184 1.391 . S
C183 C187 1.397 . S
C183 C239 1.419 . S
C184 C180 1.391 . S
C184 C183 1.391 . S
C184 C185 1.399 . S
C185 C184 1.399 . S
C185 C188 1.396 . S
C185 C197 1.453 . S
C185 C198 1.684 . S
H186 C210 0.948 . S
C187 C183 1.397 . S
C187 C188 1.394 . S
C187 C206 1.723 . S
C188 C185 1.396 . S
C188 C187 1.394 . S
C188 C218 1.723 . S
H189 C212 0.947 . S
H190 C213 0.948 . S
H191 C219 0.982 . S
H192 C220 0.979 . S
H193 C220 0.980 . S
H194 C220 0.983 . S
H195 C219 0.979 . S
H196 C219 0.977 . S
C197 C185 1.453 . S
C197 H226 0.982 . S
C197 H227 0.979 . S
C197 H228 0.977 . S
C198 C185 1.684 . S
C198 H223 0.979 . S
C198 H224 0.980 . S
C198 H225 0.983 . S
C199 C200 1.391 . S
C199 C204 1.391 . S
C199 H229 0.948 . S
C200 C199 1.391 . S
C200 C201 1.391 . S
C201 C200 1.391 . S
C201 C202 1.392 . S
C201 H230 0.947 . S
C202 C201 1.392 . S
C202 C203 1.419 . S
C202 H231 0.948 . S
C203 C202 1.419 . S
C203 C204 1.391 . S
C203 C207 1.397 . S
C204 C199 1.391 . S
C204 C203 1.391 . S
C204 C205 1.399 . S
C205 C204 1.399 . S
C205 C206 1.396 . S
C205 C208 1.453 . S
C205 C209 1.684 . S
C206 C187 1.723 . S
C206 C205 1.396 . S
C206 C207 1.394 . S
C207 C203 1.397 . S
C207 C206 1.394 . S
C207 C217 1.723 . S
C208 C205 1.453 . S
C208 H232 0.982 . S
C208 H233 0.979 . S
C208 H234 0.977 . S
C209 C205 1.684 . S
C209 H235 0.979 . S
C209 H236 0.980 . S
C209 H237 0.983 . S
C210 H186 0.948 . S
C210 C211 1.391 . S
C210 C215 1.391 . S
C211 C210 1.391 . S
C211 C212 1.391 . S
C212 H189 0.947 . S
C212 C211 1.391 . S
C212 C213 1.392 . S
C213 H190 0.948 . S
C213 C212 1.392 . S
C213 C214 1.419 . S
C214 C213 1.419 . S
C214 C215 1.391 . S
C214 C218 1.397 . S
C215 C210 1.391 . S
C215 C214 1.391 . S
C215 C216 1.399 . S
C216 C215 1.399 . S
C216 C217 1.396 . S
C216 C219 1.453 . S
C216 C220 1.684 . S
C217 C207 1.723 . S
C217 C216 1.396 . S
C217 C218 1.394 . S
C218 C188 1.723 . S
C218 C214 1.397 . S
C218 C217 1.394 . S
C219 H191 0.982 . S
C219 H195 0.979 . S
C219 H196 0.977 . S
C219 C216 1.453 . S
C220 H192 0.979 . S
C220 H193 0.980 . S
C220 H194 0.983 . S
C220 C216 1.684 . S
H221 C239 0.948 . S
H222 C180 0.948 . S
H223 C198 0.979 . S
H224 C198 0.980 . S
H225 C198 0.983 . S
H226 C197 0.982 . S
H227 C197 0.979 . S
H228 C197 0.977 . S
H229 C199 0.948 . S
H230 C201 0.947 . S
H231 C202 0.948 . S
H232 C208 0.982 . S
H233 C208 0.979 . S
H234 C208 0.977 . S
H235 C209 0.979 . S
H236 C209 0.980 . S
H237 C209 0.983 . S
H238 C182 0.947 . S
C239 C182 1.392 . S
C239 C183 1.419 . S
C239 H221 0.948 . S
C240 C241 1.391 . S
C240 C244 1.391 . S
C240 H282 0.948 . S
C241 C240 1.391 . S
C241 C242 1.391 . S
C242 C241 1.391 . S
C242 H298 0.947 . S
C242 C299 1.392 . S
C243 C244 1.391 . S
C243 C247 1.397 . S
C243 C299 1.419 . S
C244 C240 1.391 . S
C244 C243 1.391 . S
C244 C245 1.399 . S
C245 C244 1.399 . S
C245 C248 1.396 . S
C245 C257 1.453 . S
C245 C258 1.684 . S
H246 C270 0.948 . S
C247 C243 1.397 . S
C247 C248 1.394 . S
C247 C266 1.723 . S
C248 C245 1.396 . S
C248 C247 1.394 . S
C248 C278 1.723 . S
H249 C272 0.947 . S
H250 C273 0.948 . S
H251 C279 0.982 . S
H252 C280 0.979 1_455 S
H253 C280 0.973 1_455 S
H254 C280 0.983 . S
H255 C279 0.979 . S
H256 C279 0.977 . S
C257 C245 1.453 . S
C257 H286 0.982 . S
C257 H287 0.979 . S
C257 H288 0.977 . S
C258 C245 1.684 . S
C258 H283 0.979 . S
C258 H284 0.980 . S
C258 H285 0.983 . S
C259 C260 1.391 . S
C259 C264 1.391 . S
C259 H289 0.948 . S
C260 C259 1.391 . S
C260 C261 1.391 . S
C261 C260 1.391 . S
C261 C262 1.392 . S
C261 H290 0.947 . S
C262 C261 1.392 . S
C262 C263 1.419 . S
C262 H291 0.948 . S
C263 C262 1.419 . S
C263 C264 1.391 . S
C263 C267 1.397 . S
C264 C259 1.391 . S
C264 C263 1.391 . S
C264 C265 1.399 . S
C265 C264 1.399 . S
C265 C266 1.396 . S
C265 C268 1.453 . S
C265 C269 1.684 . S
C266 C247 1.723 . S
C266 C265 1.396 . S
C266 C267 1.394 . S
C267 C263 1.397 . S
C267 C266 1.394 . S
C267 C277 1.723 . S
C268 C265 1.453 . S
C268 H292 0.982 . S
C268 H293 0.979 . S
C268 H294 0.977 . S
C269 C265 1.684 . S
C269 H295 0.979 . S
C269 H296 0.980 . S
C269 H297 0.983 . S
C270 H246 0.948 . S
C270 C271 1.391 . S
C270 C275 1.391 . S
C271 C270 1.391 . S
C271 C272 1.391 . S
C272 H249 0.947 . S
C272 C271 1.391 . S
C272 C273 1.392 1_655 S
C273 H250 0.948 . S
C273 C272 1.392 1_455 S
C273 C274 1.419 . S
C274 C273 1.419 . S
C274 C275 1.391 1_455 S
C274 C278 1.397 . S
C275 C270 1.391 . S
C275 C274 1.391 1_655 S
C275 C276 1.410 . S
C276 C275 1.410 . S
C276 C277 1.359 1_655 S
C276 C279 1.467 . S
C276 C280 1.703 . S
C277 C267 1.723 . S
C277 C276 1.359 1_455 S
C277 C278 1.394 . S
C278 C248 1.723 . S
C278 C274 1.397 . S
C278 C277 1.394 . S
C279 H251 0.982 . S
C279 H255 0.979 . S
C279 H256 0.977 . S
C279 C276 1.467 . S
C280 H252 0.979 1_655 S
C280 H253 0.973 1_655 S
C280 H254 0.983 . S
C280 C276 1.703 . S
H281 C299 0.948 . S
H282 C240 0.948 . S
H283 C258 0.979 . S
H284 C258 0.980 . S
H285 C258 0.983 . S
H286 C257 0.982 . S
H287 C257 0.979 . S
H288 C257 0.977 . S
H289 C259 0.948 . S
H290 C261 0.947 . S
H291 C262 0.948 . S
H292 C268 0.982 . S
H293 C268 0.979 . S
H294 C268 0.977 . S
H295 C269 0.979 . S
H296 C269 0.980 . S
H297 C269 0.983 . S
H298 C242 0.947 . S
C299 C242 1.392 . S
C299 C243 1.419 . S
C299 H281 0.948 . S
C300 C301 1.391 . S
C300 C304 1.391 . S
C300 H342 0.948 . S
C301 C300 1.391 . S
C301 C302 1.391 . S
C302 C301 1.391 . S
C302 H358 0.947 . S
C302 C359 1.392 . S
C303 C304 1.391 . S
C303 C307 1.397 . S
C303 C359 1.419 . S
C304 C300 1.391 . S
C304 C303 1.391 . S
C304 C305 1.399 . S
C305 C304 1.399 . S
C305 C308 1.396 . S
C305 C317 1.453 . S
C305 C318 1.684 . S
H306 C330 0.948 . S
C307 C303 1.397 . S
C307 C308 1.394 . S
C307 C326 1.723 . S
C308 C305 1.396 . S
C308 C307 1.394 . S
C308 C338 1.723 1_655 S
H309 C332 0.947 . S
H310 C333 0.948 . S
H311 C339 0.982 . S
H312 C340 0.979 . S
H313 C340 0.980 . S
H314 C340 0.983 . S
H315 C339 0.979 . S
H316 C339 0.977 . S
C317 C305 1.453 . S
C317 H346 0.982 1_655 S
C317 H347 0.979 . S
C317 H348 0.977 1_655 S
C318 C305 1.684 . S
C318 H343 0.979 . S
C318 H344 0.980 . S
C318 H345 0.983 . S
C319 C320 1.391 1_655 S
C319 C324 1.391 . S
C319 H349 0.948 . S
C320 C319 1.391 1_455 S
C320 C321 1.391 . S
C321 C320 1.391 . S
C321 C322 1.392 . S
C321 H350 0.947 . S
C322 C321 1.392 . S
C322 C323 1.419 . S
C322 H351 0.948 . S
C323 C322 1.419 . S
C323 C324 1.391 1_455 S
C323 C327 1.397 . S
C324 C319 1.391 . S
C324 C323 1.391 1_655 S
C324 C325 1.399 . S
C325 C324 1.399 . S
C325 C326 1.396 . S
C325 C328 1.453 . S
C325 C329 1.684 . S
C326 C307 1.723 . S
C326 C325 1.396 . S
C326 C327 1.394 1_655 S
C327 C323 1.397 . S
C327 C326 1.394 1_455 S
C327 C337 1.723 . S
C328 C325 1.453 . S
C328 H352 0.982 . S
C328 H353 0.979 . S
C328 H354 0.977 . S
C329 C325 1.684 . S
C329 H355 0.979 . S
C329 H356 0.980 . S
C329 H357 0.983 . S
C330 H306 0.948 . S
C330 C331 1.391 . S
C330 C335 1.391 . S
C331 C330 1.391 . S
C331 C332 1.391 . S
C332 H309 0.947 . S
C332 C331 1.391 . S
C332 C333 1.392 . S
C333 H310 0.948 . S
C333 C332 1.392 . S
C333 C334 1.419 . S
C334 C333 1.419 . S
C334 C335 1.391 . S
C334 C338 1.397 . S
C335 C330 1.391 . S
C335 C334 1.391 . S
C335 C336 1.399 . S
C336 C335 1.399 . S
C336 C337 1.396 . S
C336 C339 1.453 . S
C336 C340 1.684 . S
C337 C327 1.723 . S
C337 C336 1.396 . S
C337 C338 1.394 . S
C338 C308 1.723 1_455 S
C338 C334 1.397 . S
C338 C337 1.394 . S
C339 H311 0.982 . S
C339 H315 0.979 . S
C339 H316 0.977 . S
C339 C336 1.453 . S
C340 H312 0.979 . S
C340 H313 0.980 . S
C340 H314 0.983 . S
C340 C336 1.684 . S
H341 C359 0.948 . S
H342 C300 0.948 . S
H343 C318 0.979 . S
H344 C318 0.980 . S
H345 C318 0.983 . S
H346 C317 0.982 1_455 S
H347 C317 0.979 . S
H348 C317 0.977 1_455 S
H349 C319 0.948 . S
H350 C321 0.947 . S
H351 C322 0.948 . S
H352 C328 0.982 . S
H353 C328 0.979 . S
H354 C328 0.977 . S
H355 C329 0.979 . S
H356 C329 0.980 . S
H357 C329 0.983 . S
H358 C302 0.947 . S
C359 C302 1.392 . S
C359 C303 1.419 . S
C359 H341 0.948 . S
C360 C361 1.391 . S
C360 C364 1.391 . S
C360 H402 0.948 . S
C361 C360 1.391 . S
C361 C362 1.391 . S
C362 C361 1.391 . S
C362 H418 0.947 . S
C362 C419 1.392 . S
C363 C364 1.391 . S
C363 C367 1.397 . S
C363 C419 1.419 . S
C364 C360 1.391 . S
C364 C363 1.391 . S
C364 C365 1.399 . S
C365 C364 1.399 . S
C365 C368 1.396 . S
C365 C377 1.453 1_565 S
C365 C378 1.684 . S
H366 C390 0.948 . S
C367 C363 1.397 . S
C367 C368 1.394 . S
C367 C386 1.723 . S
C368 C365 1.396 . S
C368 C367 1.394 . S
C368 C398 1.723 1_565 S
H369 C392 0.947 . S
H370 C393 0.948 . S
H371 C399 0.982 . S
H372 C400 0.979 . S
H373 C400 0.980 . S
H374 C400 0.983 . S
H375 C399 0.979 . S
H376 C399 0.977 . S
C377 C365 1.453 1_545 S
C377 H406 0.982 . S
C377 H407 0.984 . S
C377 H408 0.977 . S
C378 C365 1.684 . S
C378 H403 0.979 . S
C378 H404 0.981 1_565 S
C378 H405 0.983 . S
C379 C380 1.408 . S
C379 C384 1.391 . S
C379 H409 0.948 . S
C380 C379 1.408 . S
C380 C381 1.373 1_565 S
C381 C380 1.373 1_545 S
C381 C382 1.392 . S
C381 H410 0.947 . S
C382 C381 1.392 . S
C382 C383 1.419 . S
C382 H411 0.948 . S
C383 C382 1.419 . S
C383 C384 1.391 1_545 S
C383 C387 1.397 . S
C384 C379 1.391 . S
C384 C383 1.391 1_565 S
C384 C385 1.399 . S
C385 C384 1.399 . S
C385 C386 1.396 . S
C385 C388 1.453 . S
C385 C389 1.684 . S
C386 C367 1.723 . S
C386 C385 1.396 . S
C386 C387 1.394 1_565 S
C387 C383 1.397 . S
C387 C386 1.394 1_545 S
C387 C397 1.723 . S
C388 C385 1.453 . S
C388 H412 0.982 . S
C388 H413 0.979 . S
C388 H414 0.977 . S
C389 C385 1.684 . S
C389 H415 0.979 . S
C389 H416 0.980 . S
C389 H417 0.983 . S
C390 H366 0.948 . S
C390 C391 1.391 . S
C390 C395 1.391 . S
C391 C390 1.391 . S
C391 C392 1.391 . S
C392 H369 0.947 . S
C392 C391 1.391 . S
C392 C393 1.392 . S
C393 H370 0.948 . S
C393 C392 1.392 . S
C393 C394 1.419 . S
C394 C393 1.419 . S
C394 C395 1.391 . S
C394 C398 1.397 . S
C395 C390 1.391 . S
C395 C394 1.391 . S
C395 C396 1.399 . S
C396 C395 1.399 . S
C396 C397 1.396 . S
C396 C399 1.453 . S
C396 C400 1.684 . S
C397 C387 1.723 . S
C397 C396 1.396 . S
C397 C398 1.394 . S
C398 C368 1.723 1_545 S
C398 C394 1.397 . S
C398 C397 1.394 . S
C399 H371 0.982 . S
C399 H375 0.979 . S
C399 H376 0.977 . S
C399 C396 1.453 . S
C400 H372 0.979 . S
C400 H373 0.980 . S
C400 H374 0.983 . S
C400 C396 1.684 . S
H401 C419 0.948 . S
H402 C360 0.948 . S
H403 C378 0.979 . S
H404 C378 0.981 1_545 S
H405 C378 0.983 . S
H406 C377 0.982 . S
H407 C377 0.984 . S
H408 C377 0.977 . S
H409 C379 0.948 . S
H410 C381 0.947 . S
H411 C382 0.948 . S
H412 C388 0.982 . S
H413 C388 0.979 . S
H414 C388 0.977 . S
H415 C389 0.979 . S
H416 C389 0.980 . S
H417 C389 0.983 . S
H418 C362 0.947 . S
C419 C362 1.392 . S
C419 C363 1.419 . S
C419 H401 0.948 . S
C420 C421 1.391 . S
C420 C424 1.391 . S
C420 H462 0.948 . S
C421 C420 1.391 . S
C421 C422 1.391 . S
C422 C421 1.391 . S
C422 H478 0.947 . S
C422 C479 1.392 . S
C423 C424 1.391 . S
C423 C427 1.397 . S
C423 C479 1.419 . S
C424 C420 1.391 . S
C424 C423 1.391 . S
C424 C425 1.399 . S
C425 C424 1.399 . S
C425 C428 1.396 . S
C425 C437 1.453 . S
C425 C438 1.684 . S
H426 C450 0.948 . S
C427 C423 1.397 . S
C427 C428 1.394 . S
C427 C446 1.723 . S
C428 C425 1.396 . S
C428 C427 1.394 . S
C428 C458 1.723 . S
H429 C452 0.947 . S
H430 C453 0.948 . S
H431 C459 0.982 . S
H432 C460 0.979 . S
H433 C460 0.980 . S
H434 C460 0.983 . S
H435 C459 0.979 . S
H436 C459 0.977 . S
C437 C425 1.453 . S
C437 H466 0.982 . S
C437 H467 0.979 . S
C437 H468 0.977 . S
C438 C425 1.684 . S
C438 H463 0.979 . S
C438 H464 0.980 . S
C438 H465 0.983 . S
C439 C440 1.391 . S
C439 C444 1.391 . S
C439 H469 0.948 . S
C440 C439 1.391 . S
C440 C441 1.391 . S
C441 C440 1.391 . S
C441 C442 1.392 . S
C441 H470 0.947 . S
C442 C441 1.392 . S
C442 C443 1.419 . S
C442 H471 0.948 . S
C443 C442 1.419 . S
C443 C444 1.391 . S
C443 C447 1.397 . S
C444 C439 1.391 . S
C444 C443 1.391 . S
C444 C445 1.399 . S
C445 C444 1.399 . S
C445 C446 1.396 . S
C445 C448 1.453 . S
C445 C449 1.684 . S
C446 C427 1.723 . S
C446 C445 1.396 . S
C446 C447 1.394 . S
C447 C443 1.397 . S
C447 C446 1.394 . S
C447 C457 1.723 . S
C448 C445 1.453 . S
C448 H472 0.982 . S
C448 H473 0.979 . S
C448 H474 0.977 . S
C449 C445 1.684 . S
C449 H475 0.979 . S
C449 H476 0.980 . S
C449 H477 0.983 . S
C450 H426 0.948 . S
C450 C451 1.391 . S
C450 C455 1.391 . S
C451 C450 1.391 . S
C451 C452 1.391 . S
C452 H429 0.947 . S
C452 C451 1.391 . S
C452 C453 1.392 . S
C453 H430 0.948 . S
C453 C452 1.392 . S
C453 C454 1.419 . S
C454 C453 1.419 . S
C454 C455 1.391 . S
C454 C458 1.397 . S
C455 C450 1.391 . S
C455 C454 1.391 . S
C455 C456 1.399 . S
C456 C455 1.399 . S
C456 C457 1.396 . S
C456 C459 1.453 . S
C456 C460 1.684 . S
C457 C447 1.723 . S
C457 C456 1.396 . S
C457 C458 1.394 . S
C458 C428 1.723 . S
C458 C454 1.397 . S
C458 C457 1.394 . S
C459 H431 0.982 . S
C459 H435 0.979 . S
C459 H436 0.977 . S
C459 C456 1.453 . S
C460 H432 0.979 . S
C460 H433 0.980 . S
C460 H434 0.983 . S
C460 C456 1.684 . S
H461 C479 0.948 . S
H462 C420 0.948 . S
H463 C438 0.979 . S
H464 C438 0.980 . S
H465 C438 0.983 . S
H466 C437 0.982 . S
H467 C437 0.979 . S
H468 C437 0.977 . S
H469 C439 0.948 . S
H470 C441 0.947 . S
H471 C442 0.948 . S
H472 C448 0.982 . S
H473 C448 0.979 . S
H474 C448 0.977 . S
H475 C449 0.979 . S
H476 C449 0.980 . S
H477 C449 0.983 . S
H478 C422 0.947 . S
C479 C422 1.392 . S
C479 C423 1.419 . S
C479 H461 0.948 . S
C480 C481 1.349 . S
C480 C482 1.327 . S
C480 H505 0.950 . S
C481 C480 1.349 . S
C481 C497 1.349 . S
C482 C480 1.327 . S
C482 C501 1.429 . S
C482 H506 0.950 . S
C483 C500 1.574 . S
C483 C502 1.368 . S
C483 H507 0.949 . S
H484 C488 0.949 . S
C485 C486 1.349 . S
C485 C487 1.327 . S
C485 H508 0.950 . S
C486 C485 1.349 . S
C486 C498 1.349 . S
C487 C485 1.327 . S
C487 C503 1.429 . S
C487 H509 0.950 . S
C488 H484 0.949 . S
C488 C496 1.574 . S
C488 C504 1.368 . S
H489 C497 0.950 . S
H490 C495 0.950 . S
H491 C496 0.949 . S
H492 C498 0.950 . S
H493 C499 0.950 . S
H494 C500 0.949 . S
C495 H490 0.950 . S
C495 C497 1.327 . S
C495 C501 1.429 . S
C496 C488 1.574 . S
C496 H491 0.949 . S
C496 C502 1.368 . S
C497 C481 1.349 . S
C497 H489 0.950 . S
C497 C495 1.327 . S
C498 C486 1.349 . S
C498 H492 0.950 . S
C498 C499 1.327 . S
C499 H493 0.950 . S
C499 C498 1.327 . S
C499 C503 1.429 . S
C500 C483 1.574 . S
C500 H494 0.949 . S
C500 C504 1.368 . S
C501 C482 1.429 . S
C501 C495 1.429 . S
C501 C502 1.523 . S
C502 C483 1.368 . S
C502 C496 1.368 . S
C502 C501 1.523 . S
C503 C487 1.429 . S
C503 C499 1.429 . S
C503 C504 1.523 . S
C504 C488 1.368 . S
C504 C500 1.368 . S
C504 C503 1.523 . S
H505 C480 0.950 . S
H506 C482 0.950 . S
H507 C483 0.949 . S
H508 C485 0.950 . S
H509 C487 0.950 . S
C510 C511 1.349 . S
C510 C512 1.327 . S
C510 H535 0.950 . S
C511 C510 1.349 . S
C511 C527 1.349 . S
C512 C510 1.327 . S
C512 C531 1.429 . S
C512 H536 0.950 . S
C513 C530 1.574 . S
C513 C532 1.368 . S
C513 H537 0.949 . S
H514 C518 0.949 . S
C515 C516 1.349 . S
C515 C517 1.327 . S
C515 H538 0.950 . S
C516 C515 1.349 . S
C516 C528 1.349 . S
C517 C515 1.327 . S
C517 C533 1.429 . S
C517 H539 0.950 . S
C518 H514 0.949 . S
C518 C526 1.574 . S
C518 C534 1.368 . S
H519 C527 0.950 . S
H520 C525 0.950 . S
H521 C526 0.949 . S
H522 C528 0.950 . S
H523 C529 0.950 . S
H524 C530 0.949 . S
C525 H520 0.950 . S
C525 C527 1.327 . S
C525 C531 1.429 . S
C526 C518 1.574 . S
C526 H521 0.949 . S
C526 C532 1.368 . S
C527 C511 1.349 . S
C527 H519 0.950 . S
C527 C525 1.327 . S
C528 C516 1.349 . S
C528 H522 0.950 . S
C528 C529 1.327 . S
C529 H523 0.950 . S
C529 C528 1.327 . S
C529 C533 1.429 . S
C530 C513 1.574 . S
C530 H524 0.949 . S
C530 C534 1.368 . S
C531 C512 1.429 . S
C531 C525 1.429 . S
C531 C532 1.523 . S
C532 C513 1.368 . S
C532 C526 1.368 . S
C532 C531 1.523 . S
C533 C517 1.429 . S
C533 C529 1.429 . S
C533 C534 1.523 . S
C534 C518 1.368 . S
C534 C530 1.368 . S
C534 C533 1.523 . S
H535 C510 0.950 . S
H536 C512 0.950 . S
H537 C513 0.949 . S
H538 C515 0.950 . S
H539 C517 0.950 . S
C540 C541 1.349 . S
C540 C542 1.327 . S
C540 H565 0.950 . S
C541 C540 1.349 . S
C541 C557 1.349 . S
C542 C540 1.327 . S
C542 C561 1.429 . S
C542 H566 0.950 . S
C543 C560 1.574 . S
C543 C562 1.368 . S
C543 H567 0.949 . S
H544 C548 0.949 . S
C545 C546 1.349 . S
C545 C547 1.327 . S
C545 H568 0.950 . S
C546 C545 1.349 . S
C546 C558 1.349 . S
C547 C545 1.327 . S
C547 C563 1.429 . S
C547 H569 0.950 . S
C548 H544 0.949 . S
C548 C556 1.574 . S
C548 C564 1.368 . S
H549 C557 0.950 . S
H550 C555 0.950 . S
H551 C556 0.949 . S
H552 C558 0.950 . S
H553 C559 0.950 . S
H554 C560 0.949 . S
C555 H550 0.950 . S
C555 C557 1.327 . S
C555 C561 1.429 . S
C556 C548 1.574 . S
C556 H551 0.949 . S
C556 C562 1.368 . S
C557 C541 1.349 . S
C557 H549 0.950 . S
C557 C555 1.327 . S
C558 C546 1.349 . S
C558 H552 0.950 . S
C558 C559 1.327 . S
C559 H553 0.950 . S
C559 C558 1.327 . S
C559 C563 1.429 . S
C560 C543 1.574 . S
C560 H554 0.949 . S
C560 C564 1.368 . S
C561 C542 1.429 . S
C561 C555 1.429 . S
C561 C562 1.523 . S
C562 C543 1.368 . S
C562 C556 1.368 . S
C562 C561 1.523 . S
C563 C547 1.429 . S
C563 C559 1.429 . S
C563 C564 1.523 . S
C564 C548 1.368 . S
C564 C560 1.368 . S
C564 C563 1.523 . S
H565 C540 0.950 . S
H566 C542 0.950 . S
H567 C543 0.949 . S
H568 C545 0.950 . S
H569 C547 0.950 . S
C570 C571 1.349 . S
C570 C572 1.327 . S
C570 H595 0.950 . S
C571 C570 1.349 . S
C571 C587 1.349 . S
C572 C570 1.327 . S
C572 C591 1.429 . S
C572 H596 0.950 . S
C573 C590 1.574 . S
C573 C592 1.368 . S
C573 H597 0.949 . S
H574 C578 0.949 . S
C575 C576 1.349 . S
C575 C577 1.327 . S
C575 H598 0.950 . S
C576 C575 1.349 . S
C576 C588 1.349 . S
C577 C575 1.327 . S
C577 C593 1.429 . S
C577 H599 0.950 . S
C578 H574 0.949 . S
C578 C586 1.574 . S
C578 C594 1.368 . S
H579 C587 0.950 . S
H580 C585 0.950 . S
H581 C586 0.949 . S
H582 C588 0.950 . S
H583 C589 0.950 . S
H584 C590 0.949 . S
C585 H580 0.950 . S
C585 C587 1.327 . S
C585 C591 1.429 . S
C586 C578 1.574 . S
C586 H581 0.949 . S
C586 C592 1.368 . S
C587 C571 1.349 . S
C587 H579 0.950 . S
C587 C585 1.327 . S
C588 C576 1.349 . S
C588 H582 0.950 . S
C588 C589 1.327 . S
C589 H583 0.950 . S
C589 C588 1.327 . S
C589 C593 1.429 . S
C590 C573 1.574 . S
C590 H584 0.949 . S
C590 C594 1.368 . S
C591 C572 1.429 . S
C591 C585 1.429 . S
C591 C592 1.523 . S
C592 C573 1.368 . S
C592 C586 1.368 . S
C592 C591 1.523 . S
C593 C577 1.429 . S
C593 C589 1.429 . S
C593 C594 1.523 . S
C594 C578 1.368 . S
C594 C590 1.368 . S
C594 C593 1.523 . S
H595 C570 0.950 . S
H596 C572 0.950 . S
H597 C573 0.949 . S
H598 C575 0.950 . S
H599 C577 0.950 . S
C600 C601 1.349 . S
C600 C602 1.327 . S
C600 H625 0.950 . S
C601 C600 1.349 . S
C601 C617 1.349 . S
C602 C600 1.327 . S
C602 C621 1.429 . S
C602 H626 0.950 . S
C603 C620 1.574 . S
C603 C622 1.368 . S
C603 H627 0.949 . S
H604 C608 0.949 . S
C605 C606 1.349 . S
C605 C607 1.327 . S
C605 H628 0.950 . S
C606 C605 1.349 . S
C606 C618 1.349 . S
C607 C605 1.327 . S
C607 C623 1.429 . S
C607 H629 0.950 . S
C608 H604 0.949 . S
C608 C616 1.574 . S
C608 C624 1.368 . S
H609 C617 0.950 . S
H610 C615 0.950 . S
H611 C616 0.949 . S
H612 C618 0.950 . S
H613 C619 0.950 . S
H614 C620 0.949 . S
C615 H610 0.950 . S
C615 C617 1.327 . S
C615 C621 1.429 . S
C616 C608 1.574 . S
C616 H611 0.949 . S
C616 C622 1.368 . S
C617 C601 1.349 . S
C617 H609 0.950 . S
C617 C615 1.327 . S
C618 C606 1.349 . S
C618 H612 0.950 . S
C618 C619 1.327 . S
C619 H613 0.950 . S
C619 C618 1.327 . S
C619 C623 1.429 . S
C620 C603 1.574 . S
C620 H614 0.949 . S
C620 C624 1.368 . S
C621 C602 1.429 . S
C621 C615 1.429 . S
C621 C622 1.523 . S
C622 C603 1.368 . S
C622 C616 1.368 . S
C622 C621 1.523 . S
C623 C607 1.429 . S
C623 C619 1.429 . S
C623 C624 1.523 . S
C624 C608 1.368 . S
C624 C620 1.368 . S
C624 C623 1.523 . S
H625 C600 0.950 . S
H626 C602 0.950 . S
H627 C603 0.949 . S
H628 C605 0.950 . S
H629 C607 0.950 . S
C630 C631 1.349 . S
C630 C632 1.327 . S
C630 H655 0.950 . S
C631 C630 1.349 . S
C631 C647 1.349 . S
C632 C630 1.327 . S
C632 C651 1.429 . S
C632 H656 0.950 . S
C633 C650 1.574 . S
C633 C652 1.368 . S
C633 H657 0.949 . S
H634 C638 0.949 . S
C635 C636 1.349 . S
C635 C637 1.327 . S
C635 H658 0.950 . S
C636 C635 1.349 . S
C636 C648 1.349 . S
C637 C635 1.327 . S
C637 C653 1.429 . S
C637 H659 0.950 . S
C638 H634 0.949 . S
C638 C646 1.574 . S
C638 C654 1.368 . S
H639 C647 0.950 . S
H640 C645 0.950 . S
H641 C646 0.949 . S
H642 C648 0.950 . S
H643 C649 0.950 . S
H644 C650 0.949 . S
C645 H640 0.950 . S
C645 C647 1.327 . S
C645 C651 1.429 . S
C646 C638 1.574 . S
C646 H641 0.949 . S
C646 C652 1.368 . S
C647 C631 1.349 . S
C647 H639 0.950 . S
C647 C645 1.327 . S
C648 C636 1.349 . S
C648 H642 0.950 . S
C648 C649 1.327 . S
C649 H643 0.950 . S
C649 C648 1.327 . S
C649 C653 1.429 . S
C650 C633 1.574 . S
C650 H644 0.949 . S
C650 C654 1.368 . S
C651 C632 1.429 . S
C651 C645 1.429 . S
C651 C652 1.523 . S
C652 C633 1.368 . S
C652 C646 1.368 . S
C652 C651 1.523 . S
C653 C637 1.429 . S
C653 C649 1.429 . S
C653 C654 1.523 . S
C654 C638 1.368 . S
C654 C650 1.368 . S
C654 C653 1.523 . S
H655 C630 0.950 . S
H656 C632 0.950 . S
H657 C633 0.949 . S
H658 C635 0.950 . S
H659 C637 0.950 . S
C660 C661 1.349 . S
C660 C662 1.327 . S
C660 H685 0.950 . S
C661 C660 1.349 . S
C661 C677 1.349 . S
C662 C660 1.327 . S
C662 C681 1.429 . S
C662 H686 0.950 . S
C663 C680 1.574 . S
C663 C682 1.368 . S
C663 H687 0.949 . S
H664 C668 0.949 . S
C665 C666 1.349 . S
C665 C667 1.327 . S
C665 H688 0.950 . S
C666 C665 1.349 . S
C666 C678 1.349 . S
C667 C665 1.327 . S
C667 C683 1.429 . S
C667 H689 0.950 . S
C668 H664 0.949 . S
C668 C676 1.574 . S
C668 C684 1.368 . S
H669 C677 0.950 . S
H670 C675 0.950 . S
H671 C676 0.949 . S
H672 C678 0.950 . S
H673 C679 0.950 . S
H674 C680 0.949 . S
C675 H670 0.950 . S
C675 C677 1.327 . S
C675 C681 1.429 . S
C676 C668 1.574 . S
C676 H671 0.949 . S
C676 C682 1.368 . S
C677 C661 1.349 . S
C677 H669 0.950 . S
C677 C675 1.327 . S
C678 C666 1.349 . S
C678 H672 0.950 . S
C678 C679 1.327 . S
C679 H673 0.950 . S
C679 C678 1.327 . S
C679 C683 1.429 . S
C680 C663 1.574 . S
C680 H674 0.949 . S
C680 C684 1.368 . S
C681 C662 1.429 . S
C681 C675 1.429 . S
C681 C682 1.523 . S
C682 C663 1.368 . S
C682 C676 1.368 . S
C682 C681 1.523 . S
C683 C667 1.429 . S
C683 C679 1.429 . S
C683 C684 1.523 . S
C684 C668 1.368 . S
C684 C680 1.368 . S
C684 C683 1.523 . S
H685 C660 0.950 . S
H686 C662 0.950 . S
H687 C663 0.949 . S
H688 C665 0.950 . S
H689 C667 0.950 . S
C690 C691 1.349 . S
C690 C692 1.327 . S
C690 H715 0.950 . S
C691 C690 1.349 . S
C691 C707 1.349 . S
C692 C690 1.327 . S
C692 C711 1.429 . S
C692 H716 0.950 . S
C693 C710 1.574 . S
C693 C712 1.368 . S
C693 H717 0.949 . S
H694 C698 0.949 . S
C695 C696 1.349 . S
C695 C697 1.327 . S
C695 H718 0.950 . S
C696 C695 1.349 . S
C696 C708 1.349 . S
C697 C695 1.327 . S
C697 C713 1.429 . S
C697 H719 0.950 . S
C698 H694 0.949 . S
C698 C706 1.574 . S
C698 C714 1.368 . S
H699 C707 0.950 . S
H700 C705 0.950 . S
H701 C706 0.949 . S
H702 C708 0.950 . S
H703 C709 0.950 . S
H704 C710 0.949 . S
C705 H700 0.950 . S
C705 C707 1.327 . S
C705 C711 1.429 . S
C706 C698 1.574 . S
C706 H701 0.949 . S
C706 C712 1.368 . S
C707 C691 1.349 . S
C707 H699 0.950 . S
C707 C705 1.327 . S
C708 C696 1.349 . S
C708 H702 0.950 . S
C708 C709 1.327 . S
C709 H703 0.950 . S
C709 C708 1.327 . S
C709 C713 1.429 . S
C710 C693 1.574 . S
C710 H704 0.949 . S
C710 C714 1.368 . S
C711 C692 1.429 . S
C711 C705 1.429 . S
C711 C712 1.523 . S
C712 C693 1.368 . S
C712 C706 1.368 . S
C712 C711 1.523 . S
C713 C697 1.429 . S
C713 C709 1.429 . S
C713 C714 1.523 . S
C714 C698 1.368 . S
C714 C710 1.368 . S
C714 C713 1.523 . S
H715 C690 0.950 . S
H716 C692 0.950 . S
H717 C693 0.949 . S
H718 C695 0.950 . S
H719 C697 0.950 . S
C720 C721 1.349 . S
C720 C722 1.327 . S
C720 H745 0.950 . S
C721 C720 1.349 . S
C721 C737 1.349 . S
C722 C720 1.327 . S
C722 C741 1.429 . S
C722 H746 0.950 . S
C723 C740 1.574 . S
C723 C742 1.368 . S
C723 H747 0.949 . S
H724 C728 0.949 . S
C725 C726 1.349 . S
C725 C727 1.327 . S
C725 H748 0.950 . S
C726 C725 1.349 . S
C726 C738 1.349 . S
C727 C725 1.327 . S
C727 C743 1.429 . S
C727 H749 0.950 . S
C728 H724 0.949 . S
C728 C736 1.574 . S
C728 C744 1.368 . S
H729 C737 0.950 . S
H730 C735 0.950 . S
H731 C736 0.949 . S
H732 C738 0.950 . S
H733 C739 0.950 . S
H734 C740 0.949 . S
C735 H730 0.950 . S
C735 C737 1.327 . S
C735 C741 1.429 . S
C736 C728 1.574 . S
C736 H731 0.949 . S
C736 C742 1.368 . S
C737 C721 1.349 . S
C737 H729 0.950 . S
C737 C735 1.327 . S
C738 C726 1.349 . S
C738 H732 0.950 . S
C738 C739 1.327 . S
C739 H733 0.950 . S
C739 C738 1.327 . S
C739 C743 1.429 . S
C740 C723 1.574 . S
C740 H734 0.949 . S
C740 C744 1.368 . S
C741 C722 1.429 . S
C741 C735 1.429 . S
C741 C742 1.523 . S
C742 C723 1.368 . S
C742 C736 1.368 . S
C742 C741 1.523 . S
C743 C727 1.429 . S
C743 C739 1.429 . S
C743 C744 1.523 . S
C744 C728 1.368 . S
C744 C740 1.368 . S
C744 C743 1.523 . S
H745 C720 0.950 . S
H746 C722 0.950 . S
H747 C723 0.949 . S
H748 C725 0.950 . S
H749 C727 0.950 . S
C750 C751 1.349 . S
C750 C752 1.327 . S
C750 H775 0.950 . S
C751 C750 1.349 . S
C751 C767 1.349 . S
C752 C750 1.327 . S
C752 C771 1.429 . S
C752 H776 0.950 . S
C753 C770 1.574 . S
C753 C772 1.368 . S
C753 H777 0.949 . S
H754 C758 0.949 . S
C755 C756 1.349 . S
C755 C757 1.327 . S
C755 H778 0.950 . S
C756 C755 1.349 . S
C756 C768 1.349 . S
C757 C755 1.327 . S
C757 C773 1.429 . S
C757 H779 0.950 . S
C758 H754 0.949 . S
C758 C766 1.574 . S
C758 C774 1.368 . S
H759 C767 0.950 . S
H760 C765 0.950 . S
H761 C766 0.949 . S
H762 C768 0.950 . S
H763 C769 0.950 . S
H764 C770 0.949 . S
C765 H760 0.950 . S
C765 C767 1.327 . S
C765 C771 1.429 . S
C766 C758 1.574 . S
C766 H761 0.949 . S
C766 C772 1.368 . S
C767 C751 1.349 . S
C767 H759 0.950 . S
C767 C765 1.327 . S
C768 C756 1.349 . S
C768 H762 0.950 . S
C768 C769 1.327 . S
C769 H763 0.950 . S
C769 C768 1.327 . S
C769 C773 1.429 . S
C770 C753 1.574 . S
C770 H764 0.949 . S
C770 C774 1.368 . S
C771 C752 1.429 . S
C771 C765 1.429 . S
C771 C772 1.523 . S
C772 C753 1.368 . S
C772 C766 1.368 . S
C772 C771 1.523 . S
C773 C757 1.429 . S
C773 C769 1.429 . S
C773 C774 1.523 . S
C774 C758 1.368 . S
C774 C770 1.368 . S
C774 C773 1.523 . S
H775 C750 0.950 . S
H776 C752 0.950 . S
H777 C753 0.949 . S
H778 C755 0.950 . S
H779 C757 0.950 . S
C780 C781 1.349 . S
C780 C782 1.327 . S
C780 H805 0.950 . S
C781 C780 1.349 . S
C781 C797 1.349 . S
C782 C780 1.327 . S
C782 C801 1.429 . S
C782 H806 0.950 . S
C783 C800 1.574 . S
C783 C802 1.368 . S
C783 H807 0.949 . S
H784 C788 0.949 . S
C785 C786 1.349 . S
C785 C787 1.327 . S
C785 H808 0.950 . S
C786 C785 1.349 . S
C786 C798 1.349 . S
C787 C785 1.327 . S
C787 C803 1.429 . S
C787 H809 0.950 . S
C788 H784 0.949 . S
C788 C796 1.574 . S
C788 C804 1.368 . S
H789 C797 0.950 . S
H790 C795 0.950 . S
H791 C796 0.949 . S
H792 C798 0.950 . S
H793 C799 0.950 . S
H794 C800 0.949 . S
C795 H790 0.950 . S
C795 C797 1.327 . S
C795 C801 1.429 . S
C796 C788 1.574 . S
C796 H791 0.949 . S
C796 C802 1.368 . S
C797 C781 1.349 . S
C797 H789 0.950 . S
C797 C795 1.327 . S
C798 C786 1.349 . S
C798 H792 0.950 . S
C798 C799 1.327 . S
C799 H793 0.950 . S
C799 C798 1.327 . S
C799 C803 1.429 . S
C800 C783 1.574 . S
C800 H794 0.949 . S
C800 C804 1.368 . S
C801 C782 1.429 . S
C801 C795 1.429 . S
C801 C802 1.523 . S
C802 C783 1.368 . S
C802 C796 1.368 . S
C802 C801 1.523 . S
C803 C787 1.429 . S
C803 C799 1.429 . S
C803 C804 1.523 . S
C804 C788 1.368 . S
C804 C800 1.368 . S
C804 C803 1.523 . S
H805 C780 0.950 . S
H806 C782 0.950 . S
H807 C783 0.949 . S
H808 C785 0.950 . S
H809 C787 0.950 . S
C810 C811 1.349 . S
C810 C812 1.327 . S
C810 H835 0.950 . S
C811 C810 1.349 . S
C811 C827 1.349 . S
C812 C810 1.327 . S
C812 C831 1.429 . S
C812 H836 0.950 . S
C813 C830 1.574 . S
C813 C832 1.368 . S
C813 H837 0.949 . S
H814 C818 0.949 . S
C815 C816 1.349 . S
C815 C817 1.327 . S
C815 H838 0.950 . S
C816 C815 1.349 . S
C816 C828 1.349 . S
C817 C815 1.327 . S
C817 C833 1.429 . S
C817 H839 0.950 . S
C818 H814 0.949 . S
C818 C826 1.574 . S
C818 C834 1.368 . S
H819 C827 0.950 . S
H820 C825 0.950 . S
H821 C826 0.949 . S
H822 C828 0.950 . S
H823 C829 0.950 . S
H824 C830 0.949 . S
C825 H820 0.950 . S
C825 C827 1.327 . S
C825 C831 1.429 . S
C826 C818 1.574 . S
C826 H821 0.949 . S
C826 C832 1.368 . S
C827 C811 1.349 . S
C827 H819 0.950 . S
C827 C825 1.327 . S
C828 C816 1.349 . S
C828 H822 0.950 . S
C828 C829 1.327 . S
C829 H823 0.950 . S
C829 C828 1.327 . S
C829 C833 1.429 . S
C830 C813 1.574 . S
C830 H824 0.949 . S
C830 C834 1.368 . S
C831 C812 1.429 . S
C831 C825 1.429 . S
C831 C832 1.523 . S
C832 C813 1.368 . S
C832 C826 1.368 . S
C832 C831 1.523 . S
C833 C817 1.429 . S
C833 C829 1.429 . S
C833 C834 1.523 . S
C834 C818 1.368 . S
C834 C830 1.368 . S
C834 C833 1.523 . S
H835 C810 0.950 . S
H836 C812 0.950 . S
H837 C813 0.949 . S
H838 C815 0.950 . S
H839 C817 0.950 . S
C840 C841 1.349 . S
C840 C842 1.327 . S
C840 H865 0.950 1_455 S
C841 C840 1.349 . S
C841 C857 1.349 . S
C842 C840 1.327 . S
C842 C861 1.429 . S
C842 H866 0.950 1_455 S
C843 C860 1.574 . S
C843 C862 1.368 . S
C843 H867 0.949 . S
H844 C848 0.949 1_655 S
C845 C846 1.349 . S
C845 C847 1.327 1_556 S
C845 H868 0.950 . S
C846 C845 1.349 . S
C846 C858 1.349 . S
C847 C845 1.327 1_554 S
C847 C863 1.429 . S
C847 H869 0.950 . S
C848 H844 0.949 1_455 S
C848 C856 1.574 . S
C848 C864 1.368 . S
H849 C857 0.950 . S
H850 C855 0.950 . S
H851 C856 0.949 1_655 S
H852 C858 0.967 . S
H853 C859 0.950 1_655 S
H854 C860 0.949 . S
C855 H850 0.950 . S
C855 C857 1.327 . S
C855 C861 1.429 . S
C856 C848 1.574 . S
C856 H851 0.949 1_455 S
C856 C862 1.368 . S
C857 C841 1.349 . S
C857 H849 0.950 . S
C857 C855 1.327 . S
C858 C846 1.349 . S
C858 H852 0.967 . S
C858 C859 1.327 1_556 S
C859 H853 0.950 1_455 S
C859 C858 1.327 1_554 S
C859 C863 1.429 . S
C860 C843 1.574 . S
C860 H854 0.949 . S
C860 C864 1.368 . S
C861 C842 1.429 . S
C861 C855 1.429 . S
C861 C862 1.523 . S
C862 C843 1.368 . S
C862 C856 1.368 . S
C862 C861 1.523 . S
C863 C847 1.429 . S
C863 C859 1.429 . S
C863 C864 1.523 . S
C864 C848 1.368 . S
C864 C860 1.368 . S
C864 C863 1.523 . S
H865 C840 0.950 1_655 S
H866 C842 0.950 1_655 S
H867 C843 0.949 . S
H868 C845 0.950 . S
H869 C847 0.950 . S
C870 C871 1.349 1_565 S
C870 C872 1.327 . S
C870 H895 0.950 . S
C871 C870 1.349 1_545 S
C871 C887 1.349 . S
C872 C870 1.327 . S
C872 C891 1.429 1_565 S
C872 H896 0.950 . S
C873 C890 1.574 . S
C873 C892 1.368 . S
C873 H897 0.949 . S
H874 C878 0.949 . S
C875 C876 1.349 . S
C875 C877 1.327 . S
C875 H898 0.950 . S
C876 C875 1.349 . S
C876 C888 1.345 1_545 S
C877 C875 1.327 . S
C877 C893 1.429 . S
C877 H899 0.950 . S
C878 H874 0.949 . S
C878 C886 1.574 . S
C878 C894 1.368 1_565 S
H879 C887 0.950 . S
H880 C885 0.950 . S
H881 C886 0.949 . S
H882 C888 0.953 . S
H883 C889 0.950 . S
H884 C890 0.949 . S
C885 H880 0.950 . S
C885 C887 1.327 . S
C885 C891 1.429 . S
C886 C878 1.574 . S
C886 H881 0.949 . S
C886 C892 1.368 1_565 S
C887 C871 1.349 . S
C887 H879 0.950 . S
C887 C885 1.327 . S
C888 C876 1.345 1_565 S
C888 H882 0.953 . S
C888 C889 1.328 . S
C889 H883 0.950 . S
C889 C888 1.328 . S
C889 C893 1.429 1_565 S
C890 C873 1.574 . S
C890 H884 0.949 . S
C890 C894 1.368 . S
C891 C872 1.429 1_545 S
C891 C885 1.429 . S
C891 C892 1.523 . S
C892 C873 1.368 . S
C892 C886 1.368 1_545 S
C892 C891 1.523 . S
C893 C877 1.429 . S
C893 C889 1.429 1_545 S
C893 C894 1.523 . S
C894 C878 1.368 1_545 S
C894 C890 1.368 . S
C894 C893 1.523 . S
H895 C870 0.950 . S
H896 C872 0.950 . S
H897 C873 0.949 . S
H898 C875 0.950 . S
H899 C877 0.950 . S
C900 C901 1.349 . S
C900 C902 1.327 . S
C900 H925 0.950 . S
C901 C900 1.349 . S
C901 C917 1.349 . S
C902 C900 1.327 . S
C902 C921 1.429 . S
C902 H926 0.950 . S
C903 C920 1.574 . S
C903 C922 1.368 . S
C903 H927 0.949 . S
H904 C908 0.949 . S
C905 C906 1.349 . S
C905 C907 1.327 . S
C905 H928 0.950 . S
C906 C905 1.349 . S
C906 C918 1.349 . S
C907 C905 1.327 . S
C907 C923 1.429 . S
C907 H929 0.950 . S
C908 H904 0.949 . S
C908 C916 1.574 . S
C908 C924 1.368 . S
H909 C917 0.950 . S
H910 C915 0.950 . S
H911 C916 0.949 . S
H912 C918 0.950 . S
H913 C919 0.950 . S
H914 C920 0.949 . S
C915 H910 0.950 . S
C915 C917 1.327 . S
C915 C921 1.429 . S
C916 C908 1.574 . S
C916 H911 0.949 . S
C916 C922 1.368 . S
C917 C901 1.349 . S
C917 H909 0.950 . S
C917 C915 1.327 . S
C918 C906 1.349 . S
C918 H912 0.950 . S
C918 C919 1.327 . S
C919 H913 0.950 . S
C919 C918 1.327 . S
C919 C923 1.429 . S
C920 C903 1.574 . S
C920 H914 0.949 . S
C920 C924 1.368 . S
C921 C902 1.429 . S
C921 C915 1.429 . S
C921 C922 1.523 . S
C922 C903 1.368 . S
C922 C916 1.368 . S
C922 C921 1.523 . S
C923 C907 1.429 . S
C923 C919 1.429 . S
C923 C924 1.523 . S
C924 C908 1.368 . S
C924 C920 1.368 . S
C924 C923 1.523 . S
H925 C900 0.950 . S
H926 C902 0.950 . S
H927 C903 0.949 . S
H928 C905 0.950 . S
H929 C907 0.950 . S
C930 C931 1.349 . S
C930 C932 1.327 . S
C930 H955 0.950 . S
C931 C930 1.349 . S
C931 C947 1.349 1_545 S
C932 C930 1.327 . S
C932 C951 1.429 . S
C932 H956 0.950 . S
C933 C950 1.574 . S
C933 C952 1.368 1_565 S
C933 H957 0.949 . S
H934 C938 0.949 . S
C935 C936 1.349 . S
C935 C937 1.327 . S
C935 H958 0.950 . S
C936 C935 1.349 . S
C936 C948 1.349 1_565 S
C937 C935 1.327 . S
C937 C953 1.437 . S
C937 H959 0.950 . S
C938 H934 0.949 . S
C938 C946 1.574 . S
C938 C954 1.368 . S
H939 C947 0.950 . S
H940 C945 0.950 . S
H941 C946 0.949 . S
H942 C948 0.950 . S
H943 C949 0.950 . S
H944 C950 0.949 . S
C945 H940 0.950 . S
C945 C947 1.327 . S
C945 C951 1.429 1_565 S
C946 C938 1.574 . S
C946 H941 0.949 . S
C946 C952 1.368 . S
C947 C931 1.349 1_565 S
C947 H939 0.950 . S
C947 C945 1.327 . S
C948 C936 1.349 1_545 S
C948 H942 0.950 . S
C948 C949 1.327 . S
C949 H943 0.950 . S
C949 C948 1.327 . S
C949 C953 1.421 1_545 S
C950 C933 1.574 . S
C950 H944 0.949 . S
C950 C954 1.368 1_565 S
C951 C932 1.429 . S
C951 C945 1.429 1_545 S
C951 C952 1.523 . S
C952 C933 1.368 1_545 S
C952 C946 1.368 . S
C952 C951 1.523 . S
C953 C937 1.437 . S
C953 C949 1.421 1_565 S
C953 C954 1.522 1_565 S
C954 C938 1.368 . S
C954 C950 1.368 1_545 S
C954 C953 1.522 1_545 S
H955 C930 0.950 . S
H956 C932 0.950 . S
H957 C933 0.949 . S
H958 C935 0.950 . S
H959 C937 0.950 . S
C960 C961 1.349 . S
C960 C962 1.327 . S
C960 H985 0.950 . S
C961 C960 1.349 . S
C961 C977 1.349 . S
C962 C960 1.327 . S
C962 C981 1.429 . S
C962 H986 0.950 . S
C963 C980 1.574 . S
C963 C982 1.368 . S
C963 H987 0.949 . S
H964 C968 0.949 . S
C965 C966 1.349 . S
C965 C967 1.327 1_554 S
C965 H988 0.950 . S
C966 C965 1.349 . S
C966 C978 1.349 . S
C967 C965 1.327 1_556 S
C967 C983 1.429 . S
C967 H989 0.950 . S
C968 H964 0.949 . S
C968 C976 1.574 . S
C968 C984 1.368 . S
H969 C977 0.950 . S
H970 C975 0.950 . S
H971 C976 0.949 . S
H972 C978 0.950 . S
H973 C979 0.950 . S
H974 C980 0.949 . S
C975 H970 0.950 . S
C975 C977 1.327 . S
C975 C981 1.429 . S
C976 C968 1.574 . S
C976 H971 0.949 . S
C976 C982 1.368 . S
C977 C961 1.349 . S
C977 H969 0.950 . S
C977 C975 1.327 . S
C978 C966 1.349 . S
C978 H972 0.950 . S
C978 C979 1.327 1_554 S
C979 H973 0.950 . S
C979 C978 1.327 1_556 S
C979 C983 1.429 . S
C980 C963 1.574 . S
C980 H974 0.949 . S
C980 C984 1.368 . S
C981 C962 1.429 . S
C981 C975 1.429 . S
C981 C982 1.523 . S
C982 C963 1.368 . S
C982 C976 1.368 . S
C982 C981 1.523 . S
C983 C967 1.429 . S
C983 C979 1.429 . S
C983 C984 1.523 . S
C984 C968 1.368 . S
C984 C980 1.368 . S
C984 C983 1.523 . S
H985 C960 0.950 . S
H986 C962 0.950 . S
H987 C963 0.949 . S
H988 C965 0.950 . S
H989 C967 0.950 . S
C990 C991 1.349 . S
C990 C992 1.327 . S
C990 H1015 0.950 . S
C991 C990 1.349 . S
C991 C1007 1.349 . S
C992 C990 1.327 . S
C992 C1011 1.429 . S
C992 H1016 0.950 . S
C993 C1010 1.574 . S
C993 C1012 1.368 . S
C993 H1017 0.949 . S
H994 C998 0.949 . S
C995 C996 1.357 . S
C995 C997 1.326 1_655 S
C995 H1018 0.963 . S
C996 C995 1.357 . S
C996 C1008 1.326 1_655 S
C997 C995 1.326 1_455 S
C997 C1013 1.429 . S
C997 H1019 0.950 . S
C998 H994 0.949 . S
C998 C1006 1.574 . S
C998 C1014 1.368 . S
H999 C1007 0.950 . S
H1000 C1005 0.950 . S
H1001 C1006 0.949 . S
H1002 C1008 0.932 . S
H1003 C1009 0.950 . S
H1004 C1010 0.949 . S
C1005 H1000 0.950 . S
C1005 C1007 1.327 . S
C1005 C1011 1.429 . S
C1006 C998 1.574 . S
C1006 H1001 0.949 . S
C1006 C1012 1.368 . S
C1007 C991 1.349 . S
C1007 H999 0.950 . S
C1007 C1005 1.327 . S
C1008 C996 1.326 1_455 S
C1008 H1002 0.932 . S
C1008 C1009 1.327 . S
C1009 H1003 0.950 . S
C1009 C1008 1.327 . S
C1009 C1013 1.429 . S
C1010 C993 1.574 . S
C1010 H1004 0.949 . S
C1010 C1014 1.368 . S
C1011 C992 1.429 . S
C1011 C1005 1.429 . S
C1011 C1012 1.523 . S
C1012 C993 1.368 . S
C1012 C1006 1.368 . S
C1012 C1011 1.523 . S
C1013 C997 1.429 . S
C1013 C1009 1.429 . S
C1013 C1014 1.523 . S
C1014 C998 1.368 . S
C1014 C1010 1.368 . S
C1014 C1013 1.523 . S
H1015 C990 0.950 . S
H1016 C992 0.950 . S
H1017 C993 0.949 . S
H1018 C995 0.963 . S
H1019 C997 0.950 . S
C481 C7 0.508 . S
C486 C451 0.459 . S
C511 C51 1.843 . S
C516 C301 1.724 . S
C541 C87 1.141 . S
C546 C361 1.116 . S
C571 C16 0.315 . S
C576 C421 0.400 . S
C606 C331 1.995 . S
C601 C42 1.988 . S
C636 C391 1.313 . S
C631 C96 1.305 . S
C661 C47 1.137 . S
C666 C181 1.103 . S
C691 C91 3.065 . S
C696 C271 3.055 . S
C721 C2 2.023 . S
C726 C151 2.040 . S
C756 C211 1.283 . S
C751 C56 1.273 . S
C786 C241 2.773 . S
C781 C82 2.907 . S
C811 C11 1.831 . S
C816 C121 1.716 . S
C846 C260 1.737 . S
C841 C19 1.697 . S
C871 C50 1.341 . S
C876 C140 1.356 . S
C901 C99 1.463 . S
C906 C200 1.483 . S
C936 C380 1.465 . S
C931 C59 1.451 . S
C966 C440 1.120 . S
C961 C90 1.113 . S
C991 C10 1.340 . S
C996 C320 1.353 1_655 S
