# Generated by pormake.
# Topology scu, (8,4)-cn, num edge types: 1
# Building blocks:
#     Node 0, Type 0, BuildingBlock: GIZVER_clean_sbu_0, # of connection points: 8
#     Node 1, Type 1, BuildingBlock: IZENUY_clean_linker_0, # of connection points: 4
#     Node 2, Type 1, BuildingBlock: IZENUY_clean_linker_0, # of connection points: 4
#     Edge 3, Type (0, 1), BuildingBlock: FUNLAD_clean_linker_0, # of connection points: 2
#     Edge 4, Type (0, 1), BuildingBlock: FUNLAD_clean_linker_0, # of connection points: 2
#     Edge 5, Type (0, 1), BuildingBlock: FUNLAD_clean_linker_0, # of connection points: 2
#     Edge 6, Type (0, 1), BuildingBlock: FUNLAD_clean_linker_0, # of connection points: 2
#     Edge 7, Type (0, 1), BuildingBlock: FUNLAD_clean_linker_0, # of connection points: 2
#     Edge 8, Type (0, 1), BuildingBlock: FUNLAD_clean_linker_0, # of connection points: 2
#     Edge 9, Type (0, 1), BuildingBlock: FUNLAD_clean_linker_0, # of connection points: 2
#     Edge 10, Type (0, 1), BuildingBlock: FUNLAD_clean_linker_0, # of connection points: 2
# Relax obj value: 0.122
# Max RMSD: 0.249
# Mean RMSD: 0.211
data_MOF--net-scu--node1-GIZVER_clean_sbu_0--node2-IZENUY_clean_linker_0--edge1-FUNLAD_clean_linker_0
_symmetry_space_group_name_H-M    P1
_symmetry_Int_Tables_number       1
_symmetry_cell_setting            triclinic
loop_
_symmetry_equiv_pos_as_xyz
'x, y, z'
_cell_length_a     30.892964
_cell_length_b     31.159641
_cell_length_c     24.978135
_cell_angle_alpha  100.05133
_cell_angle_beta   81.532914
_cell_angle_gamma 110.42498
loop_
_atom_site_label
_atom_site_type_symbol
_atom_site_fract_x
_atom_site_fract_y
_atom_site_fract_z
_atom_type_partial_charge
Co0 Co 0.04422 0.99225 0.1205 0.0
Co1 Co 0.11573 0.05105 0.07369 0.0
Co2 Co 1.02862 1.03731 0.01314 0.0
O3 O 0.06249 1.00751 0.04806 0.0
H4 H 0.07048 0.98327 0.0234 0.0
O5 O 0.99494 0.06694 0.97737 0.0
Co6 Co 1.01515 0.08433 0.90533 0.0
Co7 Co 0.94317 1.0235 0.948 0.0
H8 H 0.98593 0.09043 1.00227 0.0
O9 O 0.16503 1.03396 0.08243 0.0
O10 O 0.10457 1.03673 0.14438 0.0
O11 O 0.12257 0.11524 0.07802 0.0
O12 O 0.04965 0.09939 0.06085 0.0
O13 O 0.08406 0.05646 0.96026 0.0
O14 O 0.03176 0.10423 0.84119 0.0
O15 O 0.99141 0.13138 0.91347 0.0
O16 O 0.04564 0.03924 0.88693 0.0
O17 O 1.00789 0.97524 0.96556 0.0
O18 O 0.93689 0.95938 0.94171 0.0
O19 O 0.9559 0.03981 0.87818 0.0
O20 O 0.89387 0.04015 0.93866 0.0
C21 C 0.04914 0.94413 0.16367 0.0
C22 C 0.97724 1.03171 0.11804 0.0
C23 C 0.08735 0.12746 0.07912 0.0
C24 C 0.14484 1.03074 0.13173 0.0
C25 C 1.01063 0.13338 0.86327 0.0
C26 C 0.08222 0.04472 0.90903 0.0
C27 C 0.97153 0.94723 0.94427 0.0
C28 C 0.91503 0.04464 0.88994 0.0
O29 O 1.02913 0.97422 0.18578 0.0
O30 O 0.06707 0.94474 0.1129 0.0
O31 O 0.9734 1.01844 0.06714 0.0
O32 O 1.01513 1.03815 0.13788 0.0
H33 H 0.03609 0.47527 0.43628 0.0
H34 H 1.01918 0.47732 0.6109 0.0
H35 H 0.0332 0.35719 0.5054 0.0
H36 H 1.02704 0.60457 0.59216 0.0
H37 H 0.03345 0.59871 0.4176 0.0
H38 H 0.03452 0.72405 0.52278 0.0
N39 N 1.02624 0.52761 0.53354 0.0
N40 N 0.02969 0.54962 0.49497 0.0
C41 C 0.03278 0.45828 0.47173 0.0
C42 C 0.03565 0.41354 0.46449 0.0
C43 C 1.02695 0.48149 0.5247 0.0
C44 C 1.02321 0.45925 0.57027 0.0
C45 C 1.02607 0.4146 0.56368 0.0
C46 C 0.03211 0.39209 0.51071 0.0
C47 C 1.02868 0.62087 0.55663 0.0
C48 C 0.03082 0.66729 0.5636 0.0
C49 C 0.03008 0.5961 0.50374 0.0
C50 C 0.03279 0.61794 0.45813 0.0
C51 C 0.03373 0.66394 0.46464 0.0
C52 C 0.03314 0.68831 0.51747 0.0
H53 H 0.59402 0.04539 0.43057 0.0
H54 H 0.59897 0.04952 0.60305 0.0
H55 H 0.72291 0.06555 0.49287 0.0
H56 H 0.46812 0.04181 0.59161 0.0
H57 H 0.46123 1.02342 0.41748 0.0
H58 H 0.3404 1.02362 0.52795 0.0
N59 N 0.54289 0.04183 0.52944 0.0
N60 N 0.51783 1.03637 0.49223 0.0
C61 C 0.61326 0.04882 0.4649 0.0
C62 C 0.66101 0.05592 0.45591 0.0
C63 C 0.59085 0.04723 0.51838 0.0
C64 C 0.61648 0.05158 0.56219 0.0
C65 C 0.66409 0.05744 0.55327 0.0
C66 C 0.68603 0.06026 0.50011 0.0
C67 C 0.44861 1.03582 0.55678 0.0
C68 C 0.40179 1.03273 0.56539 0.0
C69 C 0.4701 1.03195 0.50304 0.0
C70 C 0.44432 1.02527 0.45862 0.0
C71 C 0.39757 1.02277 0.46719 0.0
C72 C 0.3766 1.02591 0.52073 0.0
C73 C 0.04556 0.18087 0.1296 0.0
C74 C 0.08751 0.17248 0.11099 0.0
C75 C 0.04485 0.21941 0.16774 0.0
C76 C 0.08627 0.25079 0.18777 0.0
C77 C 0.12834 0.24363 0.16672 0.0
C78 C 0.12901 0.20503 0.12889 0.0
C79 C 0.08712 0.28829 0.23431 0.0
C80 C 0.0507 0.30246 0.25494 0.0
C81 C 0.05065 0.33447 0.30688 0.0
C82 C 1.01966 0.35961 0.31677 0.0
C83 C 1.0159 0.38674 0.36716 0.0
C84 C 0.04257 0.38868 0.40906 0.0
H85 H 0.10146 0.31768 0.3435 0.0
C86 C 0.0742 0.36428 0.39881 0.0
C87 C 0.07812 0.33742 0.34853 0.0
H88 H 0.09545 0.36528 0.43016 0.0
H89 H 1.01286 0.15634 0.11706 0.0
H90 H 1.01149 0.22286 0.18312 0.0
H91 H 0.16082 0.26706 0.18119 0.0
H92 H 0.16198 0.1998 0.11536 0.0
H93 H 0.11941 0.30414 0.25336 0.0
H94 H 1.01948 0.29014 0.23384 0.0
H95 H 0.9977 0.35764 0.28574 0.0
H96 H 0.9909 0.4048 0.374 0.0
C97 C 0.89511 1.03235 0.13494 0.0
C98 C 0.93876 0.04261 0.15392 0.0
C99 C 0.85862 0.04156 0.1699 0.0
C100 C 0.86521 0.06129 0.22453 0.0
C101 C 0.90919 0.07257 0.24278 0.0
C102 C 0.94542 0.06317 0.20811 0.0
C103 C 0.82776 0.0708 0.26427 0.0
C104 C 0.78193 0.04976 0.25963 0.0
C105 C 0.74652 0.05526 0.30517 0.0
C106 C 0.70543 1.01799 0.31306 0.0
C107 C 0.67528 1.01936 0.36058 0.0
C108 C 0.68586 0.05813 0.40069 0.0
H109 H 0.78466 0.12593 0.33732 0.0
C110 C 0.72477 0.09684 0.39072 0.0
C111 C 0.75455 0.09568 0.34316 0.0
H112 H 0.7332 0.12732 0.42094 0.0
H113 H 0.88898 1.01685 0.09323 0.0
H114 H 0.82563 1.03347 0.15378 0.0
H115 H 0.91546 0.08811 0.28448 0.0
H116 H 0.97865 0.07193 0.22403 0.0
H117 H 0.83885 0.09325 0.30169 0.0
H118 H 0.77022 1.024 0.22483 0.0
H119 H 0.69804 0.9867 0.28406 0.0
H120 H 0.64544 0.98908 0.36759 0.0
C121 C 0.06181 0.87039 0.17473 0.0
C122 C 0.05224 0.91102 0.19768 0.0
C123 C 0.0611 0.8382 0.20822 0.0
C124 C 0.05129 0.84656 0.26533 0.0
C125 C 0.04346 0.88802 0.28783 0.0
C126 C 0.04376 0.91964 0.25464 0.0
C127 C 0.04695 0.81333 0.30374 0.0
C128 C 0.05172 0.77125 0.29025 0.0
C129 C 0.04412 0.74034 0.33251 0.0
C130 C 0.07102 0.71152 0.32862 0.0
C131 C 0.06673 0.68525 0.37059 0.0
C132 C 0.0352 0.68723 0.41697 0.0
H133 H 0.9877 0.75998 0.38057 0.0
C134 C 1.0064 0.71389 0.4191 0.0
C135 C 1.01059 0.73991 0.37734 0.0
H136 H 0.98087 0.71509 0.45357 0.0
H137 H 0.0686 0.8629 0.13093 0.0
H138 H 0.06754 0.80687 0.18898 0.0
H139 H 0.03612 0.89579 0.33154 0.0
H140 H 0.03687 0.95086 0.27389 0.0
H141 H 0.0389 0.82453 0.3466 0.0
H142 H 0.06283 0.75969 0.24871 0.0
H143 H 0.09657 0.71064 0.2941 0.0
H144 H 0.08928 0.66485 0.36776 0.0
C145 C 0.2135 1.01864 0.16028 0.0
C146 C 0.16919 1.02276 0.17388 0.0
C147 C 0.23825 1.01422 0.20025 0.0
C148 C 0.21902 1.01327 0.25491 0.0
C149 C 0.17419 1.01616 0.26819 0.0
C150 C 0.14952 1.02089 0.22817 0.0
C151 C 0.24587 1.0133 0.29974 0.0
C152 C 0.28538 1.0028 0.29201 0.0
C153 C 0.31423 1.00843 0.33706 0.0
C154 C 0.34373 0.98205 0.33218 0.0
C155 C 0.37157 0.98707 0.37388 0.0
C156 C 0.37053 1.0188 0.42108 0.0
H157 H 0.29403 0.06384 0.38783 0.0
C158 C 0.3422 0.04625 0.42504 0.0
C159 C 0.31451 0.04127 0.38356 0.0
H160 H 0.34163 0.07192 0.46026 0.0
H161 H 0.22977 1.02003 0.11884 0.0
H162 H 0.27298 1.01329 0.18807 0.0
H163 H 0.15853 1.01574 0.30995 0.0
H164 H 0.11547 1.02396 0.24005 0.0
H165 H 0.23238 1.02284 0.34106 0.0
H166 H 0.29701 0.98895 0.25176 0.0
H167 H 0.34478 0.95706 0.29636 0.0
H168 H 0.39309 0.96547 0.36973 0.0
C169 C 1.0141 0.8913 0.90654 0.0
C170 C 0.97273 0.90195 0.91437 0.0
C171 C 1.01753 0.85227 0.87112 0.0
C172 C 0.97965 0.82303 0.84257 0.0
C173 C 0.93744 0.8319 0.85335 0.0
C174 C 0.93403 0.871 0.88857 0.0
C175 C 0.98338 0.7845 0.79943 0.0
C176 C 1.02341 0.78535 0.76881 0.0
C177 C 1.0263 0.75219 0.71876 0.0
C178 C 0.06196 0.76714 0.67744 0.0
C179 C 0.06411 0.73894 0.62784 0.0
C180 C 0.03103 0.69471 0.61859 0.0
H181 H 0.96703 0.69382 0.74195 0.0
C182 C 0.99672 0.67855 0.66085 0.0
C183 C 0.99423 0.70708 0.71049 0.0
H184 H 0.97088 0.64451 0.65479 0.0
H185 H 0.04452 0.91406 0.92609 0.0
H186 H 0.05016 0.84569 0.86555 0.0
H187 H 0.90751 0.80967 0.83254 0.0
H188 H 0.90149 0.87781 0.89393 0.0
H189 H 0.95128 0.75767 0.78845 0.0
H190 H 0.05465 0.81454 0.77677 0.0
H191 H 0.08745 0.80145 0.68281 0.0
H192 H 0.0913 0.75205 0.59621 0.0
C193 C 0.13149 0.04443 0.82016 0.0
C194 C 0.12317 1.03751 0.87529 0.0
C195 C 0.17186 0.04054 0.78932 0.0
C196 C 0.20427 1.02891 0.81284 0.0
C197 C 0.1951 1.02027 0.86731 0.0
C198 C 0.15525 1.02521 0.89855 0.0
C199 C 0.24713 1.02449 0.78055 0.0
C200 C 0.27174 0.05435 0.74539 0.0
C201 C 0.31196 0.04902 0.70761 0.0
C202 C 0.34278 0.08788 0.68484 0.0
C203 C 0.37575 0.08306 0.64165 0.0
C204 C 0.37831 0.03924 0.62035 0.0
H205 H 0.29299 0.97453 0.70408 0.0
C206 C 0.34953 1.00064 0.64494 0.0
C207 C 0.31669 1.00544 0.68847 0.0
H208 H 0.35024 0.96639 0.628 0.0
H209 H 0.10733 0.05388 0.8012 0.0
H210 H 0.17751 0.04625 0.74692 0.0
H211 H 0.21929 1.0107 0.88605 0.0
H212 H 0.14947 1.01929 0.9409 0.0
H213 H 0.25913 0.99713 0.78718 0.0
H214 H 0.26149 0.08406 0.74352 0.0
H215 H 0.33974 0.12176 0.69856 0.0
H216 H 0.39698 0.11308 0.62231 0.0
C217 C 0.99701 0.20687 0.85274 0.0
C218 C 1.00775 0.16688 0.82964 0.0
C219 C 0.99811 0.23946 0.81956 0.0
C220 C 1.00947 0.23211 0.76263 0.0
C221 C 1.0185 0.19127 0.73994 0.0
C222 C 1.01777 0.15927 0.7728 0.0
C223 C 1.01469 0.266 0.72473 0.0
C224 C 1.00552 0.30602 0.73766 0.0
C225 C 1.01353 0.33752 0.69592 0.0
C226 C 0.98365 0.36289 0.69682 0.0
C227 C 0.98847 0.38937 0.65489 0.0
C228 C 1.02345 0.39104 0.61153 0.0
H229 H 0.07533 0.32446 0.65359 0.0
C230 C 0.05496 0.3679 0.61255 0.0
C231 C 0.05028 0.34173 0.65432 0.0
H232 H 0.08306 0.36961 0.58053 0.0
H233 H 0.98909 0.21361 0.89644 0.0
H234 H 0.99102 0.27046 0.83891 0.0
H235 H 1.02708 0.18431 0.69636 0.0
H236 H 1.0256 0.12857 0.75338 0.0
H237 H 1.02676 0.25683 0.6826 0.0
H238 H 0.99002 0.31501 0.77799 0.0
H239 H 0.95551 0.36083 0.72883 0.0
H240 H 0.96379 0.40703 0.65527 0.0
C241 C 0.84562 0.0541 0.8598 0.0
C242 C 0.89093 0.05241 0.84733 0.0
C243 C 0.82117 0.0584 0.81944 0.0
C244 C 0.84168 0.06177 0.76547 0.0
C245 C 0.88739 0.06111 0.75329 0.0
C246 C 0.91178 0.05645 0.79371 0.0
C247 C 0.81553 0.06246 0.7202 0.0
C248 C 0.77517 0.07145 0.72769 0.0
C249 C 0.74713 0.06751 0.68234 0.0
C250 C 0.71477 0.09101 0.69025 0.0
C251 C 0.68718 0.08735 0.64883 0.0
C252 C 0.69134 0.05992 0.59866 0.0
H253 H 0.77315 1.0187 0.62551 0.0
C254 C 0.72284 1.03548 0.59128 0.0
C255 C 0.75027 0.03905 0.63259 0.0
H256 H 0.72601 1.01315 0.55354 0.0
H257 H 0.82835 0.05091 0.90064 0.0
H258 H 0.78576 0.05745 0.8308 0.0
H259 H 0.90408 0.0634 0.71207 0.0
H260 H 0.9466 0.05522 0.78267 0.0
H261 H 0.83048 0.05519 0.67894 0.0
H262 H 0.76211 0.08295 0.76835 0.0
H263 H 0.71111 0.11264 0.72844 0.0
H264 H 0.66331 0.10667 0.65566 0.0
loop_
_geom_bond_atom_site_label_1
_geom_bond_atom_site_label_2
_geom_bond_distance
_geom_bond_site_symmetry_2
_ccdc_geom_bond_type
Co0 O3 2.042 . S
Co0 O10 2.262 1_565 S
Co0 O29 2.286 1_455 S
Co0 O30 2.069 . S
Co0 O32 2.015 1_455 S
Co1 O3 2.122 1_545 S
Co1 O9 2.073 . S
Co1 O10 2.330 . S
Co1 O11 1.976 . S
Co2 O3 2.087 1_545 S
Co2 O5 2.087 1_454 S
Co2 O12 2.122 . S
Co2 O13 2.151 1_554 S
Co2 O17 2.101 1_444 S
Co2 O31 2.136 1_445 S
O3 Co0 2.042 . S
O3 Co1 2.122 1_565 S
O3 Co2 2.087 1_565 S
O3 H4 0.980 . S
H4 O3 0.980 . S
O5 Co2 2.087 1_656 S
O5 Co6 2.042 . S
O5 Co7 2.122 1_545 S
O5 H8 0.980 . S
Co6 O5 2.042 . S
Co6 O14 2.286 1_655 S
Co6 O15 2.069 . S
Co6 O16 2.015 1_655 S
Co6 O19 2.270 . S
Co7 O5 2.122 1_565 S
Co7 O18 1.976 . S
Co7 O19 2.314 1_565 S
Co7 O20 2.073 . S
H8 O5 0.980 . S
O9 Co1 2.073 . S
O9 C24 1.245 1_545 S
O10 Co0 2.262 1_545 S
O10 Co1 2.330 . S
O10 C24 1.255 1_545 S
O11 Co1 1.976 . S
O11 C23 1.251 . S
O12 Co2 2.122 . S
O12 C23 1.274 . S
O13 Co2 2.151 1_556 S
O13 C26 1.246 . S
O14 Co6 2.286 1_455 S
O14 C25 1.259 1_455 S
O15 Co6 2.069 . S
O15 C25 1.289 . S
O16 Co6 2.015 1_455 S
O16 C26 1.257 . S
O17 Co2 2.101 1_666 S
O17 C27 1.274 . S
O18 Co7 1.976 . S
O18 C27 1.251 . S
O19 Co6 2.270 . S
O19 Co7 2.314 1_545 S
O19 C28 1.267 . S
O20 Co7 2.073 . S
O20 C28 1.245 1_565 S
C21 O29 1.259 1_455 S
C21 O30 1.289 . S
C22 O31 1.246 . S
C22 O32 1.257 . S
C23 O11 1.251 . S
C23 O12 1.274 . S
C24 O9 1.245 1_565 S
C24 O10 1.255 1_565 S
C25 O14 1.259 1_655 S
C25 O15 1.289 . S
C26 O13 1.246 . S
C26 O16 1.257 . S
C27 O17 1.274 . S
C27 O18 1.251 . S
C28 O19 1.267 . S
C28 O20 1.245 1_545 S
O29 Co0 2.286 1_655 S
O29 C21 1.259 1_655 S
O30 Co0 2.069 . S
O30 C21 1.289 . S
O31 Co2 2.136 1_665 S
O31 C22 1.246 . S
O32 Co0 2.015 1_655 S
O32 C22 1.257 . S
H33 C41 0.940 . S
H34 C44 0.940 . S
H35 C46 0.940 . S
H36 C47 0.940 . S
H37 C50 0.940 . S
H38 C52 0.940 . S
N39 N40 1.190 . S
N39 C43 1.477 . S
N40 N39 1.190 . S
N40 C49 1.477 . S
C41 H33 0.940 . S
C41 C42 1.390 1_455 S
C41 C43 1.322 . S
C42 C41 1.390 1_655 S
C42 C46 1.370 . S
C43 N39 1.477 . S
C43 C41 1.322 . S
C43 C44 1.447 . S
C44 H34 0.940 . S
C44 C43 1.447 . S
C44 C45 1.373 . S
C45 C44 1.373 . S
C45 C46 1.417 1_455 S
C46 H35 0.940 . S
C46 C42 1.370 . S
C46 C45 1.417 1_655 S
C47 H36 0.940 . S
C47 C48 1.390 1_455 S
C47 C49 1.322 . S
C48 C47 1.390 1_655 S
C48 C52 1.370 . S
C49 N40 1.477 . S
C49 C47 1.322 . S
C49 C50 1.447 . S
C50 H37 0.940 . S
C50 C49 1.447 . S
C50 C51 1.373 . S
C51 C50 1.373 . S
C51 C52 1.417 1_455 S
C52 H38 0.940 . S
C52 C48 1.370 . S
C52 C51 1.417 1_655 S
H53 C61 0.940 . S
H54 C64 0.940 . S
H55 C66 0.940 . S
H56 C67 0.940 . S
H57 C70 0.940 . S
H58 C72 0.940 . S
N59 N60 1.190 . S
N59 C63 1.477 . S
N60 N59 1.190 . S
N60 C69 1.477 . S
C61 H53 0.940 . S
C61 C62 1.390 1_545 S
C61 C63 1.322 . S
C62 C61 1.390 1_565 S
C62 C66 1.370 . S
C63 N59 1.477 . S
C63 C61 1.322 . S
C63 C64 1.447 . S
C64 H54 0.940 . S
C64 C63 1.447 . S
C64 C65 1.373 . S
C65 C64 1.373 . S
C65 C66 1.417 1_545 S
C66 H55 0.940 . S
C66 C62 1.370 . S
C66 C65 1.417 1_565 S
C67 H56 0.940 . S
C67 C68 1.390 1_545 S
C67 C69 1.322 . S
C68 C67 1.390 1_565 S
C68 C72 1.370 . S
C69 N60 1.477 . S
C69 C67 1.322 . S
C69 C70 1.447 . S
C70 H57 0.940 . S
C70 C69 1.447 . S
C70 C71 1.373 . S
C71 C70 1.373 . S
C71 C72 1.417 1_545 S
C72 H58 0.940 . S
C72 C68 1.370 . S
C72 C71 1.417 1_565 S
C73 C74 1.386 . S
C73 C75 1.383 . S
C73 H89 0.951 . S
C74 C73 1.386 . S
C74 C78 1.383 1_655 S
C75 C73 1.383 . S
C75 C76 1.402 . S
C75 H90 0.951 . S
C76 C75 1.402 . S
C76 C77 1.390 . S
C76 C79 1.481 . S
C77 C76 1.390 . S
C77 C78 1.361 1_655 S
C77 H91 0.942 1_655 S
C78 C74 1.383 1_455 S
C78 C77 1.361 1_455 S
C78 H92 0.950 . S
C79 C76 1.481 . S
C79 C80 1.297 . S
C79 H93 0.950 . S
C80 C79 1.297 . S
C80 C81 1.479 . S
C80 H94 0.950 . S
C81 C80 1.479 . S
C81 C82 1.375 . S
C81 C87 1.404 . S
C82 C81 1.375 . S
C82 C83 1.369 . S
C82 H95 0.950 . S
C83 C82 1.369 . S
C83 C84 1.392 . S
C83 H96 0.951 . S
C84 C83 1.392 . S
C84 C86 1.384 . S
H85 C87 0.949 . S
C86 C84 1.384 . S
C86 C87 1.385 . S
C86 H88 0.950 . S
C87 C81 1.404 . S
C87 H85 0.949 . S
C87 C86 1.385 . S
H88 C86 0.950 . S
H89 C73 0.951 . S
H90 C75 0.951 . S
H91 C77 0.942 1_455 S
H92 C78 0.950 . S
H93 C79 0.950 . S
H94 C80 0.950 . S
H95 C82 0.950 . S
H96 C83 0.951 . S
C97 C98 1.386 . S
C97 C99 1.383 . S
C97 H113 0.951 . S
C98 C97 1.386 . S
C98 C102 1.383 1_565 S
C99 C97 1.383 . S
C99 C100 1.402 . S
C99 H114 0.951 . S
C100 C99 1.402 . S
C100 C101 1.375 1_565 S
C100 C103 1.481 . S
C101 C100 1.375 1_545 S
C101 C102 1.367 . S
C101 H115 0.951 . S
C102 C98 1.383 1_545 S
C102 C101 1.367 . S
C102 H116 0.950 . S
C103 C100 1.481 . S
C103 C104 1.297 . S
C103 H117 0.950 . S
C104 C103 1.297 . S
C104 C105 1.479 . S
C104 H118 0.950 . S
C105 C104 1.479 . S
C105 C106 1.375 . S
C105 C111 1.404 . S
C106 C105 1.375 . S
C106 C107 1.369 . S
C106 H119 0.950 . S
C107 C106 1.369 . S
C107 C108 1.392 . S
C107 H120 0.951 . S
C108 C107 1.392 . S
C108 C110 1.384 . S
H109 C111 0.949 . S
C110 C108 1.384 . S
C110 C111 1.385 . S
C110 H112 0.951 1_565 S
C111 C105 1.404 . S
C111 H109 0.949 . S
C111 C110 1.385 . S
H112 C110 0.951 1_545 S
H113 C97 0.951 . S
H114 C99 0.951 . S
H115 C101 0.951 . S
H116 C102 0.950 . S
H117 C103 0.950 . S
H118 C104 0.950 . S
H119 C106 0.950 . S
H120 C107 0.951 . S
C121 C122 1.386 . S
C121 C123 1.383 . S
C121 H137 0.951 . S
C122 C121 1.386 . S
C122 C126 1.383 1_455 S
C123 C121 1.383 . S
C123 C124 1.392 1_455 S
C123 H138 0.951 . S
C124 C123 1.392 1_655 S
C124 C125 1.387 . S
C124 C127 1.479 . S
C125 C124 1.387 . S
C125 C126 1.367 . S
C125 H139 0.951 . S
C126 C122 1.383 1_655 S
C126 C125 1.367 . S
C126 H140 0.950 . S
C127 C124 1.479 . S
C127 C128 1.297 1_655 S
C127 H141 0.950 . S
C128 C127 1.297 1_455 S
C128 C129 1.479 . S
C128 H142 0.950 . S
C129 C128 1.479 . S
C129 C130 1.375 . S
C129 C135 1.404 1_455 S
C130 C129 1.375 . S
C130 C131 1.369 . S
C130 H143 0.950 . S
C131 C130 1.369 . S
C131 C132 1.392 . S
C131 H144 0.951 . S
C132 C131 1.392 . S
C132 C134 1.384 1_455 S
H133 C135 0.949 . S
C134 C132 1.384 1_655 S
C134 C135 1.385 . S
C134 H136 0.950 . S
C135 C129 1.404 1_655 S
C135 H133 0.949 . S
C135 C134 1.385 . S
H136 C134 0.950 . S
H137 C121 0.951 . S
H138 C123 0.951 . S
H139 C125 0.951 . S
H140 C126 0.950 . S
H141 C127 0.950 . S
H142 C128 0.950 . S
H143 C130 0.950 . S
H144 C131 0.951 . S
C145 C146 1.386 . S
C145 C147 1.383 . S
C145 H161 0.951 . S
C146 C145 1.386 . S
C146 C150 1.383 1_565 S
C147 C145 1.383 . S
C147 C148 1.402 1_565 S
C147 H162 0.951 . S
C148 C147 1.402 1_545 S
C148 C149 1.375 . S
C148 C151 1.481 . S
C149 C148 1.375 . S
C149 C150 1.367 . S
C149 H163 0.951 . S
C150 C146 1.383 1_545 S
C150 C149 1.367 . S
C150 H164 0.950 . S
C151 C148 1.481 . S
C151 C152 1.297 1_545 S
C151 H165 0.950 . S
C152 C151 1.297 1_565 S
C152 C153 1.479 1_565 S
C152 H166 0.950 . S
C153 C152 1.479 1_545 S
C153 C154 1.375 1_545 S
C153 C159 1.404 . S
C154 C153 1.375 1_565 S
C154 C155 1.369 . S
C154 H167 0.950 . S
C155 C154 1.369 . S
C155 C156 1.392 1_565 S
C155 H168 0.951 . S
C156 C155 1.392 1_545 S
C156 C158 1.384 . S
H157 C159 0.949 . S
C158 C156 1.384 . S
C158 C159 1.385 . S
C158 H160 0.950 . S
C159 C153 1.404 . S
C159 H157 0.949 . S
C159 C158 1.385 . S
H160 C158 0.950 . S
H161 C145 0.951 . S
H162 C147 0.951 . S
H163 C149 0.951 . S
H164 C150 0.950 . S
H165 C151 0.950 . S
H166 C152 0.950 . S
H167 C154 0.950 . S
H168 C155 0.951 . S
C169 C170 1.389 . S
C169 C171 1.383 . S
C169 H185 0.951 . S
C170 C169 1.389 . S
C170 C174 1.380 1_455 S
C171 C169 1.383 . S
C171 C172 1.402 1_455 S
C171 H186 0.951 . S
C172 C171 1.402 1_655 S
C172 C173 1.375 . S
C172 C175 1.481 . S
C173 C172 1.375 . S
C173 C174 1.367 . S
C173 H187 0.951 . S
C174 C170 1.380 1_655 S
C174 C173 1.367 . S
C174 H188 0.950 . S
C175 C172 1.481 . S
C175 C176 1.297 1_655 S
C175 H189 0.950 . S
C176 C175 1.297 1_455 S
C176 C177 1.479 . S
C176 H190 0.950 . S
C177 C176 1.479 . S
C177 C178 1.375 . S
C177 C183 1.404 1_455 S
C178 C177 1.375 . S
C178 C179 1.369 . S
C178 H191 0.950 . S
C179 C178 1.369 . S
C179 C180 1.393 1_455 S
C179 H192 0.951 . S
C180 C179 1.393 1_655 S
C180 C182 1.384 . S
H181 C183 0.949 . S
C182 C180 1.384 . S
C182 C183 1.385 . S
C182 H184 0.950 . S
C183 C177 1.404 1_655 S
C183 H181 0.949 . S
C183 C182 1.385 . S
H184 C182 0.950 . S
H185 C169 0.951 . S
H186 C171 0.951 . S
H187 C173 0.951 . S
H188 C174 0.950 . S
H189 C175 0.950 . S
H190 C176 0.950 . S
H191 C178 0.950 . S
H192 C179 0.951 . S
C193 C194 1.386 . S
C193 C195 1.383 . S
C193 H209 0.951 . S
C194 C193 1.386 . S
C194 C198 1.383 1_545 S
C195 C193 1.383 . S
C195 C196 1.397 1_545 S
C195 H210 0.951 . S
C196 C195 1.397 1_565 S
C196 C197 1.379 . S
C196 C199 1.482 . S
C197 C196 1.379 . S
C197 C198 1.367 . S
C197 H211 0.951 . S
C198 C194 1.383 1_565 S
C198 C197 1.367 . S
C198 H212 0.950 . S
C199 C196 1.482 . S
C199 C200 1.297 1_565 S
C199 H213 0.950 . S
C200 C199 1.297 1_545 S
C200 C201 1.479 . S
C200 H214 0.950 . S
C201 C200 1.479 . S
C201 C202 1.375 . S
C201 C207 1.404 1_545 S
C202 C201 1.375 . S
C202 C203 1.369 . S
C202 H215 0.950 . S
C203 C202 1.369 . S
C203 C204 1.392 . S
C203 H216 0.951 . S
C204 C203 1.392 . S
C204 C206 1.384 1_545 S
H205 C207 0.949 . S
C206 C204 1.384 1_565 S
C206 C207 1.385 . S
C206 H208 0.950 . S
C207 C201 1.404 1_565 S
C207 H205 0.949 . S
C207 C206 1.385 . S
H208 C206 0.950 . S
H209 C193 0.951 . S
H210 C195 0.951 . S
H211 C197 0.951 . S
H212 C198 0.950 . S
H213 C199 0.950 . S
H214 C200 0.950 . S
H215 C202 0.950 . S
H216 C203 0.951 . S
C217 C218 1.386 . S
C217 C219 1.383 . S
C217 H233 0.951 . S
C218 C217 1.386 . S
C218 C222 1.383 1_655 S
C219 C217 1.383 . S
C219 C220 1.402 . S
C219 H234 0.951 . S
C220 C219 1.402 . S
C220 C221 1.375 1_655 S
C220 C223 1.481 1_655 S
C221 C220 1.375 1_455 S
C221 C222 1.367 . S
C221 H235 0.951 . S
C222 C218 1.383 1_455 S
C222 C221 1.367 . S
C222 H236 0.950 . S
C223 C220 1.481 1_455 S
C223 C224 1.296 1_455 S
C223 H237 0.951 . S
C224 C223 1.296 1_655 S
C224 C225 1.479 . S
C224 H238 0.950 . S
C225 C224 1.479 . S
C225 C226 1.375 . S
C225 C231 1.404 1_655 S
C226 C225 1.375 . S
C226 C227 1.369 . S
C226 H239 0.950 . S
C227 C226 1.369 . S
C227 C228 1.392 . S
C227 H240 0.951 . S
C228 C227 1.392 . S
C228 C230 1.384 1_655 S
H229 C231 0.949 . S
C230 C228 1.384 1_455 S
C230 C231 1.385 . S
C230 H232 0.950 . S
C231 C225 1.404 1_455 S
C231 H229 0.949 . S
C231 C230 1.385 . S
H232 C230 0.950 . S
H233 C217 0.951 . S
H234 C219 0.951 . S
H235 C221 0.951 . S
H236 C222 0.950 . S
H237 C223 0.951 . S
H238 C224 0.950 . S
H239 C226 0.950 . S
H240 C227 0.951 . S
C241 C242 1.386 . S
C241 C243 1.383 . S
C241 H257 0.951 . S
C242 C241 1.386 . S
C242 C246 1.383 1_545 S
C243 C241 1.383 . S
C243 C244 1.402 . S
C243 H258 0.951 . S
C244 C243 1.402 . S
C244 C245 1.375 1_545 S
C244 C247 1.481 . S
C245 C244 1.375 1_565 S
C245 C246 1.367 . S
C245 H259 0.951 . S
C246 C242 1.383 1_565 S
C246 C245 1.367 . S
C246 H260 0.950 . S
C247 C244 1.481 . S
C247 C248 1.297 . S
C247 H261 0.950 1_545 S
C248 C247 1.297 . S
C248 C249 1.479 . S
C248 H262 0.950 . S
C249 C248 1.479 . S
C249 C250 1.375 . S
C249 C255 1.404 1_545 S
C250 C249 1.375 . S
C250 C251 1.369 . S
C250 H263 0.950 . S
C251 C250 1.369 . S
C251 C252 1.392 . S
C251 H264 0.951 . S
C252 C251 1.392 . S
C252 C254 1.384 1_545 S
H253 C255 0.949 . S
C254 C252 1.384 1_565 S
C254 C255 1.385 . S
C254 H256 0.950 . S
C255 C249 1.404 1_565 S
C255 H253 0.949 . S
C255 C254 1.385 . S
H256 C254 0.950 . S
H257 C241 0.951 . S
H258 C243 0.951 . S
H259 C245 0.951 . S
H260 C246 0.950 . S
H261 C247 0.950 1_565 S
H262 C248 0.950 . S
H263 C250 0.950 . S
H264 C251 0.951 . S
C74 C23 1.516 1_655 S
C84 C42 1.559 . S
C98 C22 1.626 . S
C108 C62 1.647 . S
C122 C21 1.995 . S
C132 C51 1.957 . S
C146 C24 1.676 . S
C156 C71 1.787 . S
C170 C27 1.502 1_455 S
C180 C48 1.575 . S
C194 C26 1.674 . S
C204 C68 1.658 1_545 S
C228 C45 2.000 1_655 S
C218 C25 2.010 . S
C242 C28 1.708 . S
C252 C65 1.735 . S
