# Generated by pormake.
# Topology ptr, (4,4)-cn, num edge types: 1
# Building blocks:
#     Node 0, Type 0, BuildingBlock: QUQFOY_clean_sbu_3, # of connection points: 4
#     Node 1, Type 0, BuildingBlock: QUQFOY_clean_sbu_3, # of connection points: 4
#     Node 2, Type 0, BuildingBlock: QUQFOY_clean_sbu_3, # of connection points: 4
#     Node 3, Type 0, BuildingBlock: QUQFOY_clean_sbu_3, # of connection points: 4
#     Node 4, Type 0, BuildingBlock: QUQFOY_clean_sbu_3, # of connection points: 4
#     Node 5, Type 0, BuildingBlock: QUQFOY_clean_sbu_3, # of connection points: 4
#     Node 6, Type 0, BuildingBlock: QUQFOY_clean_sbu_3, # of connection points: 4
#     Node 7, Type 0, BuildingBlock: QUQFOY_clean_sbu_3, # of connection points: 4
#     Node 8, Type 0, BuildingBlock: QUQFOY_clean_sbu_3, # of connection points: 4
#     Node 9, Type 0, BuildingBlock: QUQFOY_clean_sbu_3, # of connection points: 4
#     Node 10, Type 0, BuildingBlock: QUQFOY_clean_sbu_3, # of connection points: 4
#     Node 11, Type 0, BuildingBlock: QUQFOY_clean_sbu_3, # of connection points: 4
#     Node 12, Type 0, BuildingBlock: QUQFOY_clean_sbu_3, # of connection points: 4
#     Node 13, Type 0, BuildingBlock: QUQFOY_clean_sbu_3, # of connection points: 4
#     Node 14, Type 0, BuildingBlock: QUQFOY_clean_sbu_3, # of connection points: 4
#     Node 15, Type 0, BuildingBlock: QUQFOY_clean_sbu_3, # of connection points: 4
#     Node 16, Type 0, BuildingBlock: QUQFOY_clean_sbu_3, # of connection points: 4
#     Node 17, Type 0, BuildingBlock: QUQFOY_clean_sbu_3, # of connection points: 4
#     Node 18, Type 1, BuildingBlock: KUFVIS_clean_linker_0, # of connection points: 4
#     Node 19, Type 1, BuildingBlock: KUFVIS_clean_linker_0, # of connection points: 4
#     Node 20, Type 1, BuildingBlock: KUFVIS_clean_linker_0, # of connection points: 4
#     Node 21, Type 1, BuildingBlock: KUFVIS_clean_linker_0, # of connection points: 4
#     Node 22, Type 1, BuildingBlock: KUFVIS_clean_linker_0, # of connection points: 4
#     Node 23, Type 1, BuildingBlock: KUFVIS_clean_linker_0, # of connection points: 4
#     Node 24, Type 1, BuildingBlock: KUFVIS_clean_linker_0, # of connection points: 4
#     Node 25, Type 1, BuildingBlock: KUFVIS_clean_linker_0, # of connection points: 4
#     Node 26, Type 1, BuildingBlock: KUFVIS_clean_linker_0, # of connection points: 4
#     Node 27, Type 1, BuildingBlock: KUFVIS_clean_linker_0, # of connection points: 4
#     Node 28, Type 1, BuildingBlock: KUFVIS_clean_linker_0, # of connection points: 4
#     Node 29, Type 1, BuildingBlock: KUFVIS_clean_linker_0, # of connection points: 4
#     Node 30, Type 1, BuildingBlock: KUFVIS_clean_linker_0, # of connection points: 4
#     Node 31, Type 1, BuildingBlock: KUFVIS_clean_linker_0, # of connection points: 4
#     Node 32, Type 1, BuildingBlock: KUFVIS_clean_linker_0, # of connection points: 4
#     Node 33, Type 1, BuildingBlock: KUFVIS_clean_linker_0, # of connection points: 4
#     Node 34, Type 1, BuildingBlock: KUFVIS_clean_linker_0, # of connection points: 4
#     Node 35, Type 1, BuildingBlock: KUFVIS_clean_linker_0, # of connection points: 4
#     Edge 36, Type (0, 1), BuildingBlock: TEMPAE_clean_linker_10, # of connection points: 2
#     Edge 37, Type (0, 1), BuildingBlock: TEMPAE_clean_linker_10, # of connection points: 2
#     Edge 38, Type (0, 1), BuildingBlock: TEMPAE_clean_linker_10, # of connection points: 2
#     Edge 39, Type (0, 1), BuildingBlock: TEMPAE_clean_linker_10, # of connection points: 2
#     Edge 40, Type (0, 1), BuildingBlock: TEMPAE_clean_linker_10, # of connection points: 2
#     Edge 41, Type (0, 1), BuildingBlock: TEMPAE_clean_linker_10, # of connection points: 2
#     Edge 42, Type (0, 1), BuildingBlock: TEMPAE_clean_linker_10, # of connection points: 2
#     Edge 43, Type (0, 1), BuildingBlock: TEMPAE_clean_linker_10, # of connection points: 2
#     Edge 44, Type (0, 1), BuildingBlock: TEMPAE_clean_linker_10, # of connection points: 2
#     Edge 45, Type (0, 1), BuildingBlock: TEMPAE_clean_linker_10, # of connection points: 2
#     Edge 46, Type (0, 1), BuildingBlock: TEMPAE_clean_linker_10, # of connection points: 2
#     Edge 47, Type (0, 1), BuildingBlock: TEMPAE_clean_linker_10, # of connection points: 2
#     Edge 48, Type (0, 1), BuildingBlock: TEMPAE_clean_linker_10, # of connection points: 2
#     Edge 49, Type (0, 1), BuildingBlock: TEMPAE_clean_linker_10, # of connection points: 2
#     Edge 50, Type (0, 1), BuildingBlock: TEMPAE_clean_linker_10, # of connection points: 2
#     Edge 51, Type (0, 1), BuildingBlock: TEMPAE_clean_linker_10, # of connection points: 2
#     Edge 52, Type (0, 1), BuildingBlock: TEMPAE_clean_linker_10, # of connection points: 2
#     Edge 53, Type (0, 1), BuildingBlock: TEMPAE_clean_linker_10, # of connection points: 2
#     Edge 54, Type (0, 1), BuildingBlock: TEMPAE_clean_linker_10, # of connection points: 2
#     Edge 55, Type (0, 1), BuildingBlock: TEMPAE_clean_linker_10, # of connection points: 2
#     Edge 56, Type (0, 1), BuildingBlock: TEMPAE_clean_linker_10, # of connection points: 2
#     Edge 57, Type (0, 1), BuildingBlock: TEMPAE_clean_linker_10, # of connection points: 2
#     Edge 58, Type (0, 1), BuildingBlock: TEMPAE_clean_linker_10, # of connection points: 2
#     Edge 59, Type (0, 1), BuildingBlock: TEMPAE_clean_linker_10, # of connection points: 2
#     Edge 60, Type (0, 1), BuildingBlock: TEMPAE_clean_linker_10, # of connection points: 2
#     Edge 61, Type (0, 1), BuildingBlock: TEMPAE_clean_linker_10, # of connection points: 2
#     Edge 62, Type (0, 1), BuildingBlock: TEMPAE_clean_linker_10, # of connection points: 2
#     Edge 63, Type (0, 1), BuildingBlock: TEMPAE_clean_linker_10, # of connection points: 2
#     Edge 64, Type (0, 1), BuildingBlock: TEMPAE_clean_linker_10, # of connection points: 2
#     Edge 65, Type (0, 1), BuildingBlock: TEMPAE_clean_linker_10, # of connection points: 2
#     Edge 66, Type (0, 1), BuildingBlock: TEMPAE_clean_linker_10, # of connection points: 2
#     Edge 67, Type (0, 1), BuildingBlock: TEMPAE_clean_linker_10, # of connection points: 2
#     Edge 68, Type (0, 1), BuildingBlock: TEMPAE_clean_linker_10, # of connection points: 2
#     Edge 69, Type (0, 1), BuildingBlock: TEMPAE_clean_linker_10, # of connection points: 2
#     Edge 70, Type (0, 1), BuildingBlock: TEMPAE_clean_linker_10, # of connection points: 2
#     Edge 71, Type (0, 1), BuildingBlock: TEMPAE_clean_linker_10, # of connection points: 2
#     Edge 72, Type (0, 1), BuildingBlock: TEMPAE_clean_linker_10, # of connection points: 2
#     Edge 73, Type (0, 1), BuildingBlock: TEMPAE_clean_linker_10, # of connection points: 2
#     Edge 74, Type (0, 1), BuildingBlock: TEMPAE_clean_linker_10, # of connection points: 2
#     Edge 75, Type (0, 1), BuildingBlock: TEMPAE_clean_linker_10, # of connection points: 2
#     Edge 76, Type (0, 1), BuildingBlock: TEMPAE_clean_linker_10, # of connection points: 2
#     Edge 77, Type (0, 1), BuildingBlock: TEMPAE_clean_linker_10, # of connection points: 2
#     Edge 78, Type (0, 1), BuildingBlock: TEMPAE_clean_linker_10, # of connection points: 2
#     Edge 79, Type (0, 1), BuildingBlock: TEMPAE_clean_linker_10, # of connection points: 2
#     Edge 80, Type (0, 1), BuildingBlock: TEMPAE_clean_linker_10, # of connection points: 2
#     Edge 81, Type (0, 1), BuildingBlock: TEMPAE_clean_linker_10, # of connection points: 2
#     Edge 82, Type (0, 1), BuildingBlock: TEMPAE_clean_linker_10, # of connection points: 2
#     Edge 83, Type (0, 1), BuildingBlock: TEMPAE_clean_linker_10, # of connection points: 2
#     Edge 84, Type (0, 1), BuildingBlock: TEMPAE_clean_linker_10, # of connection points: 2
#     Edge 85, Type (0, 1), BuildingBlock: TEMPAE_clean_linker_10, # of connection points: 2
#     Edge 86, Type (0, 1), BuildingBlock: TEMPAE_clean_linker_10, # of connection points: 2
#     Edge 87, Type (0, 1), BuildingBlock: TEMPAE_clean_linker_10, # of connection points: 2
#     Edge 88, Type (0, 1), BuildingBlock: TEMPAE_clean_linker_10, # of connection points: 2
#     Edge 89, Type (0, 1), BuildingBlock: TEMPAE_clean_linker_10, # of connection points: 2
#     Edge 90, Type (0, 1), BuildingBlock: TEMPAE_clean_linker_10, # of connection points: 2
#     Edge 91, Type (0, 1), BuildingBlock: TEMPAE_clean_linker_10, # of connection points: 2
#     Edge 92, Type (0, 1), BuildingBlock: TEMPAE_clean_linker_10, # of connection points: 2
#     Edge 93, Type (0, 1), BuildingBlock: TEMPAE_clean_linker_10, # of connection points: 2
#     Edge 94, Type (0, 1), BuildingBlock: TEMPAE_clean_linker_10, # of connection points: 2
#     Edge 95, Type (0, 1), BuildingBlock: TEMPAE_clean_linker_10, # of connection points: 2
#     Edge 96, Type (0, 1), BuildingBlock: TEMPAE_clean_linker_10, # of connection points: 2
#     Edge 97, Type (0, 1), BuildingBlock: TEMPAE_clean_linker_10, # of connection points: 2
#     Edge 98, Type (0, 1), BuildingBlock: TEMPAE_clean_linker_10, # of connection points: 2
#     Edge 99, Type (0, 1), BuildingBlock: TEMPAE_clean_linker_10, # of connection points: 2
#     Edge 100, Type (0, 1), BuildingBlock: TEMPAE_clean_linker_10, # of connection points: 2
#     Edge 101, Type (0, 1), BuildingBlock: TEMPAE_clean_linker_10, # of connection points: 2
#     Edge 102, Type (0, 1), BuildingBlock: TEMPAE_clean_linker_10, # of connection points: 2
#     Edge 103, Type (0, 1), BuildingBlock: TEMPAE_clean_linker_10, # of connection points: 2
#     Edge 104, Type (0, 1), BuildingBlock: TEMPAE_clean_linker_10, # of connection points: 2
#     Edge 105, Type (0, 1), BuildingBlock: TEMPAE_clean_linker_10, # of connection points: 2
#     Edge 106, Type (0, 1), BuildingBlock: TEMPAE_clean_linker_10, # of connection points: 2
#     Edge 107, Type (0, 1), BuildingBlock: TEMPAE_clean_linker_10, # of connection points: 2
# Relax obj value: 0.043
# Max RMSD: 0.106
# Mean RMSD: 0.079
data_MOF--net-ptr--node1-QUQFOY_clean_sbu_3--node2-KUFVIS_clean_linker_0--edge1-TEMPAE_clean_linker_10
_symmetry_space_group_name_H-M    P1
_symmetry_Int_Tables_number       1
_symmetry_cell_setting            triclinic
loop_
_symmetry_equiv_pos_as_xyz
'x, y, z'
_cell_length_a     80.58975
_cell_length_b     81.073665
_cell_length_c     50.594483
_cell_angle_alpha  90.201837
_cell_angle_beta   89.681876
_cell_angle_gamma 120.49051
loop_
_atom_site_label
_atom_site_type_symbol
_atom_site_fract_x
_atom_site_fract_y
_atom_site_fract_z
_atom_type_partial_charge
C0 C 0.94978 0.31999 0.00863 0.0
O1 O 0.94335 0.32955 0.02015 0.0
Cd2 Cd 0.96253 0.36299 0.03043 0.0
O3 O 0.96771 0.32771 0.00328 0.0
Cd4 Cd 0.9983 0.3589 0.0109 0.0
C5 C 0.98409 0.3825 0.97005 0.0
O6 O 0.99064 0.36846 0.05303 0.0
O7 O 0.01453 0.39067 0.03107 0.0
O8 O 0.01399 0.34331 0.0313 0.0
C9 C 0.00439 0.38569 0.05196 0.0
O10 O 0.97245 0.38045 0.98864 0.0
C11 C 0.02813 0.34941 0.01542 0.0
O12 O 0.99468 0.37499 0.97174 0.0
O13 O 0.02823 0.35954 -0.00381 0.0
C14 C 0.63656 0.67897 -6e-05 0.0
O15 O 0.62051 0.66911 0.98835 0.0
Cd16 Cd 0.60612 0.63564 0.9783 0.0
O17 O 0.64688 0.67163 0.00545 0.0
Cd18 Cd 0.6462 0.64072 -0.00286 0.0
C19 C 0.60827 0.61592 0.03797 0.0
O20 O 0.62917 0.63119 0.95493 0.0
O21 O 0.63089 0.60912 0.97622 0.0
O22 O 0.67835 0.65662 0.9782 0.0
C23 C 0.62575 0.61409 0.95555 0.0
O24 O 0.59837 0.61758 0.0197 0.0
C25 C 0.68568 0.65036 -0.00538 0.0
O26 O 0.62656 0.62419 0.03605 0.0
O27 O 0.67479 0.63996 0.01326 0.0
C28 C 0.32122 0.95319 -0.00108 0.0
O29 O 0.33066 0.94682 0.98681 0.0
Cd30 Cd 0.36417 0.9651 0.97656 0.0
O31 O 0.32931 0.97082 0.00551 0.0
Cd32 Cd 0.3616 0.00062 -0.00041 0.0
C33 C 0.38368 0.98342 0.03787 0.0
O34 O 0.36969 0.99374 0.95612 0.0
O35 O 0.39347 0.01548 0.97835 0.0
O36 O 0.34771 0.01949 0.98434 0.0
C37 C 0.38741 0.00629 0.95687 0.0
O38 O 0.38178 0.97271 0.01823 0.0
C39 C 0.35602 0.03298 0.00101 0.0
O40 O 0.3764 0.9942 0.03744 0.0
O41 O 0.3664 0.0311 0.01818 0.0
C42 C 0.95998 0.62991 -0.0054 0.0
O43 O 0.95171 0.61184 -0.00287 0.0
Cd44 Cd 0.96685 0.59458 0.01189 0.0
O45 O 0.97811 0.64062 -0.00205 0.0
Cd46 Cd 0.00724 0.6381 0.00784 0.0
C47 C 0.99913 0.60411 0.96079 0.0
O48 O 0.98891 0.61643 0.04345 0.0
O49 O 0.01911 0.62612 0.04375 0.0
O50 O 0.01899 0.67256 0.01211 0.0
C51 C 0.0026 0.61536 0.05367 0.0
O52 O 0.98375 0.59255 0.97313 0.0
C53 C 0.03671 0.67771 0.01197 0.0
O54 O 0.00992 0.6213 0.96863 0.0
O55 O 0.04082 0.6646 0.00985 0.0
C56 C 0.32513 0.37787 0.99135 0.0
O57 O 0.33502 0.39418 0.9805 0.0
Cd58 Cd 0.36827 0.40972 0.96797 0.0
O59 O 0.33249 0.36745 -0.00387 0.0
Cd60 Cd 0.36352 0.36785 0.98906 0.0
C61 C 0.38899 0.4082 0.02724 0.0
O62 O 0.37067 0.38482 0.94786 0.0
O63 O 0.39291 0.37967 0.96136 0.0
O64 O 0.34739 0.33477 0.97363 0.0
C65 C 0.38718 0.38698 0.94418 0.0
O66 O 0.38647 0.41754 0.00904 0.0
C67 C 0.35411 0.32858 0.99113 0.0
O68 O 0.38152 0.39005 0.02564 0.0
O69 O 0.36477 0.34051 0.00864 0.0
C70 C 0.6788 0.04532 0.00453 0.0
O71 O 0.66932 0.05383 0.0075 0.0
Cd72 Cd 0.63689 0.04043 0.02402 0.0
O73 O 0.67098 0.02731 0.00819 0.0
Cd74 Cd 0.63802 4e-05 0.01894 0.0
C75 C 0.61301 0.01019 0.97284 0.0
O76 O 0.63335 0.01711 0.05509 0.0
O77 O 0.60969 0.98856 0.04849 0.0
O78 O 0.65221 0.98274 0.03962 0.0
C79 C 0.61663 0.00399 0.06158 0.0
O80 O 0.61547 0.02409 0.98737 0.0
C81 C 0.64292 0.96748 0.02615 0.0
O82 O 0.62094 0.00039 0.97817 0.0
O83 O 0.63162 0.96744 0.0087 0.0
C84 C 0.62551 0.6584 0.34713 0.0
O85 O 0.61987 0.66795 0.36049 0.0
Cd86 Cd 0.63936 0.70133 0.37081 0.0
O87 O 0.64315 0.666 0.34005 0.0
Cd88 Cd 0.67432 0.69717 0.34727 0.0
C89 C 0.6584 0.72053 0.30913 0.0
O90 O 0.66838 0.70696 0.39048 0.0
O91 O 0.69117 0.72911 0.36706 0.0
O92 O 0.6909 0.68137 0.36446 0.0
C93 C 0.68188 0.72427 0.38867 0.0
O94 O 0.64766 0.71863 0.32886 0.0
C95 C 0.70487 0.6885 0.34821 0.0
O96 O 0.66898 0.71296 0.30928 0.0
O97 O 0.70434 0.69913 0.33021 0.0
C98 C 0.2951 0.01344 0.34412 0.0
O99 O 0.27703 0.0041 0.34028 0.0
Cd100 Cd 0.25842 0.97228 0.32249 0.0
O101 O 0.30541 0.00579 0.34055 0.0
Cd102 Cd 0.30048 0.97375 0.3283 0.0
C103 C 0.26358 0.9468 0.37255 0.0
O104 O 0.2796 0.97013 0.29187 0.0
O105 O 0.28488 0.94681 0.29659 0.0
O106 O 0.33227 0.98831 0.3075 0.0
C107 C 0.27641 0.95394 0.2841 0.0
O108 O 0.25273 0.95056 0.35878 0.0
C109 C 0.33903 0.98065 0.32255 0.0
O110 O 0.28145 0.95425 0.36694 0.0
O111 O 0.32795 0.96988 0.34078 0.0
C112 C 0.99528 0.29481 0.35245 0.0
O113 O 0.00528 0.2869 0.34941 0.0
Cd114 Cd 0.03883 0.30401 0.33826 0.0
O115 O 0.00299 0.31294 0.35115 0.0
Cd116 Cd 0.03596 0.34138 0.34411 0.0
C117 C 0.05985 0.3324 0.39227 0.0
O118 O 0.04422 0.3281 0.30623 0.0
O119 O 0.067 0.35502 0.32141 0.0
O120 O 0.02301 0.35772 0.31885 0.0
C121 C 0.06131 0.34207 0.30391 0.0
O122 O 0.05683 0.31796 0.37858 0.0
C123 C 0.02803 0.37162 0.33465 0.0
O124 O 0.05326 0.34306 0.38519 0.0
O125 O 0.0367 0.37153 0.35549 0.0
C126 C 0.61731 0.95873 0.33909 0.0
O127 O 0.61086 0.94156 0.34653 0.0
Cd128 Cd 0.62869 0.92655 0.35858 0.0
O129 O 0.63546 0.97063 0.3378 0.0
Cd130 Cd 0.66645 0.97121 0.34846 0.0
C131 C 0.65821 0.93561 0.30417 0.0
O132 O 0.65266 0.95018 0.38598 0.0
O133 O 0.68237 0.95935 0.37853 0.0
O134 O 0.68212 0.00368 0.36693 0.0
C135 C 0.66735 0.94931 0.39222 0.0
O136 O 0.64381 0.9239 0.31809 0.0
C137 C 0.69653 0.01072 0.35135 0.0
O138 O 0.66841 0.95324 0.31043 0.0
O139 O 0.69664 0.99957 0.33373 0.0
C140 C 0.99934 0.70152 0.35794 0.0
O141 O 0.00946 0.71967 0.35841 0.0
Cd142 Cd 0.04289 0.7384 0.34664 0.0
O143 O 0.0069 0.69133 0.35282 0.0
Cd144 Cd 0.03992 0.69696 0.34349 0.0
C145 C 0.06462 0.72715 0.39499 0.0
O146 O 0.04691 0.72155 0.31052 0.0
O147 O 0.06843 0.71342 0.31493 0.0
O148 O 0.02522 0.66665 0.31946 0.0
C149 C 0.0631 0.72387 0.3037 0.0
O150 O 0.06138 0.73955 0.38483 0.0
C151 C 0.03328 0.65941 0.33275 0.0
O152 O 0.05801 0.71066 0.38463 0.0
O153 O 0.04421 0.66953 0.35142 0.0
C154 C 0.3439 0.37309 0.33496 0.0
O155 O 0.33432 0.37925 0.34718 0.0
Cd156 Cd 0.30077 0.36038 0.35788 0.0
O157 O 0.33617 0.35538 0.32901 0.0
Cd158 Cd 0.30468 0.32501 0.33842 0.0
C159 C 0.27963 0.33775 0.2986 0.0
O160 O 0.29623 0.33314 0.38112 0.0
O161 O 0.27307 0.30959 0.3602 0.0
O162 O 0.32147 0.31011 0.35744 0.0
C163 C 0.27878 0.31974 0.38094 0.0
O164 O 0.28194 0.34942 0.31713 0.0
C165 C 0.31378 0.2951 0.34331 0.0
O166 O 0.28772 0.3277 0.29964 0.0
O167 O 0.30227 0.29418 0.32547 0.0
C168 C 0.29016 0.99032 0.68589 0.0
O169 O 0.28131 0.99899 0.69237 0.0
Cd170 Cd 0.29527 0.0312 0.7089 0.0
O171 O 0.30853 0.99883 0.6862 0.0
Cd172 Cd 0.33632 0.03174 0.69553 0.0
C173 C 0.32141 0.05551 0.65391 0.0
O174 O 0.32184 0.03636 0.73499 0.0
O175 O 0.34983 0.06006 0.72482 0.0
O176 O 0.35544 0.01866 0.71326 0.0
C177 C 0.33533 0.05317 0.7401 0.0
O178 O 0.30776 0.05143 0.6702 0.0
C179 C 0.36919 0.0266 0.69671 0.0
O180 O 0.33301 0.04931 0.65742 0.0
O181 O 0.36762 0.03678 0.67896 0.0
C182 C 0.96916 0.33955 0.6785 0.0
O183 O 0.95103 0.32929 0.67605 0.0
Cd184 Cd 0.93413 0.29626 0.66331 0.0
O185 O 0.97992 0.33234 0.67553 0.0
Cd186 Cd 0.97469 0.29945 0.66626 0.0
C187 C 0.9424 0.27507 0.71551 0.0
O188 O 0.95228 0.29147 0.62926 0.0
O189 O 0.95627 0.26869 0.64344 0.0
O190 O 0.00523 0.31186 0.64231 0.0
C191 C 0.94878 0.27444 0.62657 0.0
O192 O 0.93029 0.27759 0.7028 0.0
C193 C 0.01255 0.30519 0.65811 0.0
O194 O 0.95971 0.28229 0.70746 0.0
O195 O 0.00238 0.29607 0.67799 0.0
C196 C 0.66899 0.62983 0.67834 0.0
O197 O 0.67901 0.62193 0.67472 0.0
Cd198 Cd 0.71122 0.63708 0.65748 0.0
O199 O 0.6762 0.64785 0.67558 0.0
Cd200 Cd 0.70806 0.67703 0.66591 0.0
C201 C 0.73564 0.66813 0.70885 0.0
O202 O 0.71014 0.65949 0.62891 0.0
O203 O 0.73158 0.68929 0.62854 0.0
O204 O 0.68608 0.68974 0.6635 0.0
C205 C 0.72493 0.67296 0.61806 0.0
O206 O 0.73232 0.65387 0.69443 0.0
C207 C 0.69932 0.70718 0.66468 0.0
O208 O 0.72776 0.67803 0.70391 0.0
O209 O 0.71645 0.71058 0.66679 0.0
C210 C 0.29531 0.30117 0.68714 0.0
O211 O 0.28834 0.28525 0.69907 0.0
Cd212 Cd 0.30632 0.26983 0.70925 0.0
O213 O 0.31321 0.31074 0.68134 0.0
Cd214 Cd 0.34255 0.30818 0.68917 0.0
C215 C 0.32647 0.26996 0.64885 0.0
O216 O 0.33482 0.29195 0.73218 0.0
O217 O 0.35741 0.29153 0.70974 0.0
O218 O 0.36191 0.34099 0.70496 0.0
C219 C 0.34782 0.28753 0.73107 0.0
O220 O 0.315 0.26041 0.66763 0.0
C221 C 0.37508 0.34636 0.68757 0.0
O222 O 0.33725 0.28807 0.65055 0.0
O223 O 0.37288 0.33409 0.67016 0.0
C224 C 0.65584 0.03315 0.67312 0.0
O225 O 0.66469 0.05117 0.66971 0.0
Cd226 Cd 0.69684 0.07139 0.65343 0.0
O227 O 0.66418 0.02347 0.66953 0.0
Cd228 Cd 0.69715 0.02994 0.65735 0.0
C229 C 0.72259 0.06615 0.70283 0.0
O230 O 0.70016 0.05128 0.62216 0.0
O231 O 0.72339 0.04549 0.62442 0.0
O232 O 0.68423 0.998 0.63815 0.0
C233 C 0.71627 0.05451 0.61343 0.0
O234 O 0.71753 0.07674 0.6911 0.0
C235 C 0.69337 0.99288 0.65322 0.0
O236 O 0.71694 0.04913 0.69506 0.0
O237 O 0.70403 0.00488 0.67062 0.0
C238 C 0.01442 0.71097 0.67532 0.0
O239 O 0.00472 0.71709 0.68733 0.0
Cd240 Cd 0.97101 0.69845 0.69714 0.0
O241 O 0.00664 0.69329 0.66905 0.0
Cd242 Cd 0.97467 0.66275 0.67604 0.0
C243 C 0.95179 0.6784 0.63602 0.0
O244 O 0.96507 0.66997 0.71848 0.0
O245 O 0.94253 0.64681 0.6962 0.0
O246 O 0.99029 0.64645 0.69483 0.0
C247 C 0.9476 0.65666 0.71724 0.0
O248 O 0.9539 0.68962 0.65508 0.0
C249 C 0.98298 0.63211 0.67943 0.0
O250 O 0.95905 0.66759 0.63715 0.0
O251 O 0.97226 0.63222 0.66115 0.0
H252 H 0.2295 0.34408 0.11554 0.0
H253 H 0.18739 0.35213 0.07611 0.0
H254 H 0.17851 0.33234 0.15747 0.0
H255 H 0.16292 0.34738 0.16056 0.0
H256 H 0.11511 0.34608 0.1225 0.0
H257 H 0.15578 0.33966 0.07559 0.0
C258 C 0.21567 0.34334 0.11596 0.0
C259 C 0.20504 0.33846 0.1394 0.0
C260 C 0.20921 0.348 0.09323 0.0
C261 C 0.19152 0.34743 0.09357 0.0
C262 C 0.17998 0.3419 0.11674 0.0
C263 C 0.18684 0.33688 0.1394 0.0
C264 C 0.1617 0.34272 0.118 0.0
C265 C 0.15492 0.3454 0.1426 0.0
C266 C 0.13804 0.34633 0.14444 0.0
C267 C 0.12821 0.34542 0.12134 0.0
C268 C 0.13491 0.34365 0.09659 0.0
C269 C 0.15126 0.3417 0.09488 0.0
H270 H 0.66341 0.88861 0.12513 0.0
H271 H 0.65039 0.83769 0.08317 0.0
H272 H 0.6779 0.84952 0.15992 0.0
H273 H 0.66009 0.81878 0.16551 0.0
H274 H 0.65491 0.76992 0.12567 0.0
H275 H 0.66079 0.81688 0.07973 0.0
C276 C 0.66419 0.87566 0.12408 0.0
C277 C 0.67123 0.87024 0.14553 0.0
C278 C 0.65736 0.86435 0.10141 0.0
C279 C 0.65675 0.84671 0.10031 0.0
C280 C 0.66357 0.84062 0.12183 0.0
C281 C 0.67156 0.8531 0.14379 0.0
C282 C 0.66144 0.821 0.12246 0.0
C283 C 0.6601 0.81201 0.14707 0.0
C284 C 0.65795 0.79374 0.14832 0.0
C285 C 0.65648 0.78402 0.12487 0.0
C286 C 0.6569 0.79203 0.10029 0.0
C287 C 0.65993 0.81071 0.09897 0.0
H288 H 0.21874 0.89461 0.11188 0.0
H289 H 0.17727 0.84271 0.07427 0.0
H290 H 0.16424 0.85911 0.1497 0.0
H291 H 0.15107 0.82833 0.15746 0.0
H292 H 0.1052 0.77814 0.1219 0.0
H293 H 0.14429 0.82468 0.07238 0.0
C294 C 0.20436 0.88214 0.11183 0.0
C295 C 0.1922 0.87827 0.13364 0.0
C296 C 0.19877 0.86972 0.09023 0.0
C297 C 0.18085 0.85269 0.09048 0.0
C298 C 0.16827 0.84824 0.11233 0.0
C299 C 0.17389 0.86166 0.13327 0.0
C300 C 0.15015 0.82909 0.11459 0.0
C301 C 0.14337 0.82085 0.13984 0.0
C302 C 0.12674 0.80283 0.14271 0.0
C303 C 0.11729 0.79261 0.11998 0.0
C304 C 0.12326 0.80043 0.09471 0.0
C305 C 0.13979 0.81866 0.09197 0.0
H306 H 0.34328 0.11602 0.91277 0.0
H307 H 0.35677 0.16807 0.95199 0.0
H308 H 0.33192 0.15601 0.87353 0.0
H309 H 0.35215 0.18706 0.86805 0.0
H310 H 0.35529 0.23602 0.90503 0.0
H311 H 0.34461 0.18812 0.95296 0.0
C312 C 0.34304 0.12927 0.9127 0.0
C313 C 0.33685 0.13461 0.89025 0.0
C314 C 0.34959 0.14094 0.93508 0.0
C315 C 0.35076 0.15883 0.93495 0.0
C316 C 0.34495 0.1649 0.91238 0.0
C317 C 0.33738 0.15223 0.89053 0.0
C318 C 0.34767 0.18466 0.91074 0.0
C319 C 0.3511 0.19389 0.88588 0.0
C320 C 0.35377 0.21232 0.88371 0.0
C321 C 0.35355 0.22187 0.90658 0.0
C322 C 0.3507 0.21343 0.93147 0.0
C323 C 0.34736 0.19469 0.93362 0.0
H324 H 0.78033 0.10186 0.88525 0.0
H325 H 0.8258 0.14358 0.93376 0.0
H326 H 0.8293 0.1487 0.84846 0.0
H327 H 0.86041 0.1639 0.85615 0.0
H328 H 0.89346 0.21902 0.89244 0.0
H329 H 0.84242 0.17615 0.93095 0.0
C330 C 0.79457 0.11441 0.88687 0.0
C331 C 0.80449 0.12383 0.86388 0.0
C332 C 0.80215 0.12127 0.91202 0.0
C333 C 0.81997 0.1384 0.91427 0.0
C334 C 0.83018 0.14861 0.89138 0.0
C335 C 0.8221 0.14107 0.8663 0.0
C336 C 0.84879 0.16742 0.89322 0.0
C337 C 0.86236 0.17352 0.87227 0.0
C338 C 0.87834 0.1922 0.87146 0.0
C339 C 0.88149 0.2044 0.89286 0.0
C340 C 0.86896 0.19847 0.91452 0.0
C341 C 0.85253 0.18008 0.91471 0.0
H342 H 0.7867 0.67748 0.90049 0.0
H343 H 0.82521 0.6626 0.93681 0.0
H344 H 0.83214 0.67903 0.85433 0.0
H345 H 0.84201 0.65815 0.85177 0.0
H346 H 0.89129 0.65936 0.88454 0.0
H347 H 0.85817 0.6756 0.93323 0.0
C348 C 0.7993 0.67596 0.89904 0.0
C349 C 0.80837 0.67829 0.87459 0.0
C350 C 0.80543 0.67052 0.92142 0.0
C351 C 0.82126 0.66777 0.91965 0.0
C352 C 0.83136 0.671 0.89546 0.0
C353 C 0.82486 0.67662 0.87317 0.0
C354 C 0.8479 0.66753 0.89285 0.0
C355 C 0.85148 0.66122 0.86846 0.0
C356 C 0.86714 0.65838 0.86545 0.0
C357 C 0.87916 0.66156 0.88693 0.0
C358 C 0.87603 0.6677 0.91133 0.0
C359 C 0.86032 0.67057 0.91438 0.0
H360 H 0.89597 0.66657 0.45491 0.0
H361 H 0.84975 0.66046 0.40621 0.0
H362 H 0.85154 0.67353 0.48977 0.0
H363 H 0.81964 0.65527 0.4853 0.0
H364 H 0.78271 0.66991 0.44383 0.0
H365 H 0.83306 0.67663 0.40499 0.0
C366 C 0.88252 0.66648 0.45292 0.0
C367 C 0.87454 0.67009 0.47511 0.0
C368 C 0.87378 0.66312 0.42812 0.0
C369 C 0.85647 0.66324 0.42545 0.0
C370 C 0.84779 0.6665 0.44774 0.0
C371 C 0.85724 0.67013 0.4725 0.0
C372 C 0.82908 0.66627 0.4456 0.0
C373 C 0.81652 0.66071 0.46768 0.0
C374 C 0.79988 0.66214 0.4674 0.0
C375 C 0.79525 0.66828 0.44427 0.0
C376 C 0.8068 0.67298 0.42167 0.0
C377 C 0.82382 0.67216 0.42227 0.0
H378 H 0.32431 0.21882 0.46046 0.0
H379 H 0.32349 0.17203 0.41986 0.0
H380 H 0.33758 0.18175 0.50328 0.0
H381 H 0.32548 0.15141 0.50539 0.0
H382 H 0.335 0.1098 0.46809 0.0
H383 H 0.33806 0.15527 0.42135 0.0
C384 C 0.326 0.20637 0.46089 0.0
C385 C 0.33032 0.2008 0.48471 0.0
C386 C 0.32385 0.19625 0.43752 0.0
C387 C 0.32605 0.1801 0.43793 0.0
C388 C 0.33076 0.17423 0.46179 0.0
C389 C 0.33344 0.18528 0.48484 0.0
C390 C 0.33217 0.15637 0.46324 0.0
C391 C 0.32942 0.14672 0.48766 0.0
C392 C 0.33086 0.13024 0.48951 0.0
C393 C 0.33445 0.12286 0.46668 0.0
C394 C 0.33668 0.13158 0.44203 0.0
C395 C 0.3358 0.14846 0.44042 0.0
H396 H 0.8922 0.2247 0.45137 0.0
H397 H 0.84426 0.18748 0.40224 0.0
H398 H 0.84472 0.17466 0.48524 0.0
H399 H 0.81317 0.16571 0.48038 0.0
H400 H 0.77277 0.11396 0.44069 0.0
H401 H 0.82551 0.15336 0.40182 0.0
C402 C 0.87819 0.21188 0.44916 0.0
C403 C 0.86941 0.20025 0.47112 0.0
C404 C 0.86933 0.20739 0.42437 0.0
C405 C 0.85114 0.19081 0.42141 0.0
C406 C 0.84171 0.17899 0.44351 0.0
C407 C 0.85124 0.18382 0.46821 0.0
C408 C 0.82196 0.16174 0.44142 0.0
C409 C 0.80921 0.15648 0.46322 0.0
C410 C 0.79153 0.13918 0.46341 0.0
C411 C 0.78608 0.12768 0.44077 0.0
C412 C 0.79794 0.13295 0.41843 0.0
C413 C 0.81601 0.14988 0.41872 0.0
H414 H 0.01761 0.45159 0.22511 0.0
H415 H 0.00978 0.49234 0.26892 0.0
H416 H 0.01326 0.49504 0.1833 0.0
H417 H 0.99478 0.50781 0.18807 0.0
H418 H 0.00839 0.56118 0.22401 0.0
H419 H 0.0226 0.52398 0.26459 0.0
C420 C 0.01598 0.46409 0.22522 0.0
C421 C 0.01516 0.47225 0.20136 0.0
C422 C 0.01451 0.47158 0.24942 0.0
C423 C 0.01148 0.48716 0.24996 0.0
C424 C 0.01088 0.49595 0.22611 0.0
C425 C 0.0129 0.48831 0.20189 0.0
C426 C 0.00895 0.51343 0.22627 0.0
C427 C 0.00091 0.51775 0.20438 0.0
C428 C 0.00074 0.535 0.20324 0.0
C429 C 0.00797 0.5476 0.22469 0.0
C430 C 0.01531 0.54337 0.24689 0.0
C431 C 0.01598 0.52646 0.24769 0.0
H432 H 0.43728 0.45268 0.21334 0.0
H433 H 0.48366 0.49192 0.26269 0.0
H434 H 0.48592 0.50018 0.17758 0.0
H435 H 0.51622 0.51596 0.18158 0.0
H436 H 0.55696 0.56465 0.2255 0.0
H437 H 0.50538 0.52263 0.26407 0.0
C438 C 0.45133 0.46551 0.21526 0.0
C439 C 0.46118 0.47554 0.19267 0.0
C440 C 0.45908 0.47174 0.24042 0.0
C441 C 0.47772 0.48779 0.24306 0.0
C442 C 0.4882 0.49844 0.22044 0.0
C443 C 0.47931 0.49211 0.19534 0.0
C444 C 0.50787 0.51634 0.22263 0.0
C445 C 0.5201 0.52362 0.20011 0.0
C446 C 0.53726 0.54141 0.20073 0.0
C447 C 0.54341 0.55115 0.22469 0.0
C448 C 0.53214 0.54427 0.24748 0.0
C449 C 0.51429 0.52705 0.24651 0.0
H450 H 0.43211 0.98362 0.22234 0.0
H451 H 0.48049 0.9949 0.27027 0.0
H452 H 0.48305 0.99069 0.18505 0.0
H453 H 0.51402 0.01264 0.19205 0.0
H454 H 0.5548 0.00065 0.228 0.0
H455 H 0.50099 0.98249 0.26676 0.0
C456 C 0.44662 0.98607 0.22383 0.0
C457 C 0.45678 0.98717 0.20085 0.0
C458 C 0.45489 0.98844 0.24879 0.0
C459 C 0.47405 0.99262 0.25088 0.0
C460 C 0.48468 0.9937 0.22787 0.0
C461 C 0.47566 0.99074 0.20296 0.0
C462 C 0.50485 0.99728 0.22937 0.0
C463 C 0.51792 0.00659 0.20823 0.0
C464 C 0.53592 0.00775 0.20737 0.0
C465 C 0.54126 0.00049 0.22863 0.0
C466 C 0.52898 0.99183 0.25016 0.0
C467 C 0.51075 0.99014 0.25061 0.0
H468 H 0.55451 0.99143 0.7897 0.0
H469 H 0.51369 0.99716 0.74242 0.0
H470 H 0.51782 0.00791 0.82696 0.0
H471 H 0.48843 -0.00011 0.82525 0.0
H472 H 0.45373 0.01646 0.78292 0.0
H473 H 0.49777 0.01235 0.74114 0.0
C474 C 0.54254 0.99393 0.78814 0.0
C475 C 0.53598 0.99847 0.81097 0.0
C476 C 0.53503 0.99411 0.7633 0.0
C477 C 0.51975 0.99781 0.76165 0.0
C478 C 0.51257 0.00224 0.7846 0.0
C479 C 0.52163 0.0033 0.80906 0.0
C480 C 0.49593 0.00588 0.78344 0.0
C481 C 0.48543 0.00445 0.80678 0.0
C482 C 0.4709 0.00911 0.80687 0.0
C483 C 0.46559 0.01372 0.78313 0.0
C484 C 0.47497 0.01456 0.75951 0.0
C485 C 0.4903 0.01091 0.75955 0.0
H486 H 0.00454 0.55562 0.78041 0.0
H487 H 0.99383 0.5047 0.73993 0.0
H488 H 0.01731 0.51638 0.81904 0.0
H489 H 0.99601 0.48477 0.82336 0.0
H490 H 0.99916 0.43861 0.78776 0.0
H491 H 0.00918 0.48647 0.73983 0.0
C492 C 0.00542 0.54271 0.78017 0.0
C493 C 0.01161 0.53738 0.80266 0.0
C494 C 0.99955 0.53134 0.75742 0.0
C495 C 0.99924 0.51381 0.7572 0.0
C496 C 0.00509 0.50784 0.77984 0.0
C497 C 0.01191 0.5202 0.80201 0.0
C498 C 0.00323 0.48844 0.7814 0.0
C499 C 0.9988 0.47871 0.80598 0.0
C500 C 0.99736 0.4608 0.8083 0.0
C501 C 0.00026 0.45247 0.78595 0.0
C502 C 0.00448 0.46152 0.76129 0.0
C503 C 0.00577 0.47945 0.7589 0.0
H504 H 0.56946 0.55851 0.78528 0.0
H505 H 0.52263 0.51938 0.73598 0.0
H506 H 0.52492 0.50609 0.81831 0.0
H507 H 0.49251 0.49325 0.81343 0.0
H508 H 0.45694 0.44116 0.77091 0.0
H509 H 0.50745 0.486 0.73366 0.0
C510 C 0.55596 0.54513 0.78289 0.0
C511 C 0.54806 0.53292 0.80452 0.0
C512 C 0.54693 0.54041 0.75821 0.0
C513 C 0.52959 0.52294 0.75508 0.0
C514 C 0.52115 0.51042 0.77683 0.0
C515 C 0.53068 0.51562 0.8015 0.0
C516 C 0.50261 0.49185 0.77416 0.0
C517 C 0.48972 0.48461 0.79583 0.0
C518 C 0.4732 0.4663 0.79502 0.0
C519 C 0.46931 0.45554 0.77183 0.0
C520 C 0.48121 0.46278 0.7496 0.0
C521 C 0.49795 0.48088 0.75069 0.0
H522 H 0.68438 0.78472 0.55663 0.0
H523 H 0.67278 0.82216 0.60313 0.0
H524 H 0.68817 0.834 0.52028 0.0
H525 H 0.66636 0.844 0.52398 0.0
H526 H 0.67818 0.89572 0.56351 0.0
H527 H 0.6896 0.85606 0.60325 0.0
C528 C 0.68332 0.7975 0.55819 0.0
C529 C 0.68668 0.80876 0.53578 0.0
C530 C 0.67821 0.80211 0.58242 0.0
C531 C 0.67691 0.81873 0.58443 0.0
C532 C 0.68022 0.83038 0.56195 0.0
C533 C 0.68517 0.82519 0.5377 0.0
C534 C 0.67841 0.84785 0.56331 0.0
C535 C 0.67158 0.85322 0.54116 0.0
C536 C 0.67143 0.87047 0.54093 0.0
C537 C 0.6776 0.88205 0.56348 0.0
C538 C 0.68367 0.87672 0.58601 0.0
C539 C 0.68418 0.85968 0.58603 0.0
H540 H 0.12232 0.77277 0.56919 0.0
H541 H 0.15979 0.82626 0.60699 0.0
H542 H 0.17562 0.81272 0.53158 0.0
H543 H 0.18401 0.84382 0.52462 0.0
H544 H 0.23144 0.89329 0.5593 0.0
H545 H 0.1942 0.84544 0.60876 0.0
C546 C 0.13606 0.78606 0.56945 0.0
C547 C 0.14847 0.79121 0.54766 0.0
C548 C 0.14024 0.79836 0.59099 0.0
C549 C 0.15718 0.81642 0.59087 0.0
C550 C 0.17007 0.82201 0.56914 0.0
C551 C 0.16576 0.80893 0.54811 0.0
C552 C 0.18715 0.84186 0.56696 0.0
C553 C 0.19254 0.85089 0.54195 0.0
C554 C 0.20851 0.86938 0.53912 0.0
C555 C 0.21916 0.87895 0.5615 0.0
C556 C 0.21417 0.87056 0.58665 0.0
C557 C 0.19801 0.85201 0.58939 0.0
H558 H 0.11674 0.3342 0.56623 0.0
H559 H 0.15219 0.3158 0.60273 0.0
H560 H 0.16744 0.3429 0.5257 0.0
H561 H 0.17656 0.32149 0.51918 0.0
H562 H 0.22013 0.31407 0.55532 0.0
H563 H 0.18438 0.3267 0.60417 0.0
C564 C 0.12986 0.33356 0.56572 0.0
C565 C 0.14155 0.33947 0.54313 0.0
C566 C 0.134 0.32562 0.58731 0.0
C567 C 0.1499 0.323 0.58641 0.0
C568 C 0.1622 0.32899 0.56403 0.0
C569 C 0.15804 0.33769 0.54278 0.0
C570 C 0.17851 0.32509 0.56194 0.0
C571 C 0.18409 0.32163 0.5369 0.0
C572 C 0.19906 0.31768 0.53444 0.0
C573 C 0.20827 0.31673 0.55718 0.0
C574 C 0.20272 0.31941 0.58232 0.0
C575 C 0.18818 0.32409 0.58468 0.0
C576 C 0.99655 0.39379 0.09622 0.0
C577 C 0.00693 0.39983 0.07246 0.0
C578 C 0.99866 0.40705 0.11574 0.0
C579 C 0.01133 0.42684 0.11125 0.0
C580 C 0.02172 0.43306 0.08719 0.0
C581 C 0.01948 0.41946 0.06813 0.0
C582 C 0.98748 0.39985 0.14128 0.0
C583 C 0.03522 0.45405 0.08164 0.0
C584 C 0.00283 0.45958 0.15599 0.0
C585 C 0.01619 0.46339 0.17613 0.0
C586 C 0.00168 0.44843 0.13398 0.0
C587 C 0.01412 0.44089 0.13225 0.0
C588 C 0.02835 0.44562 0.15177 0.0
C589 C 0.02929 0.45692 0.17337 0.0
C590 C 0.9865 0.44389 0.11334 0.0
C591 C 0.0419 0.4379 0.15063 0.0
H592 H 0.98684 0.37865 0.09968 0.0
H593 H 0.02747 0.42424 0.04972 0.0
H594 H 0.99758 0.40423 0.15817 0.0
H595 H 0.97837 0.40634 0.14439 0.0
H596 H 0.97809 0.38402 0.14157 0.0
H597 H 0.04176 0.45657 0.0616 0.0
H598 H 0.02739 0.46198 0.08345 0.0
H599 H 0.04695 0.46016 0.09645 0.0
H600 H 0.99263 0.46448 0.15807 0.0
H601 H 0.03989 0.46015 0.18865 0.0
H602 H 0.97525 0.42853 0.11459 0.0
H603 H 0.99288 0.44645 0.09323 0.0
H604 H 0.97949 0.45258 0.11595 0.0
H605 H 0.0336 0.42212 0.15305 0.0
H606 H 0.05305 0.44408 0.1663 0.0
H607 H 0.0492 0.44096 0.13111 0.0
C608 C 0.60856 0.60239 0.08247 0.0
C609 C 0.59818 0.60375 0.06124 0.0
C610 C 0.59902 0.59101 0.10461 0.0
C611 C 0.57864 0.5807 0.1055 0.0
C612 C 0.56809 0.58163 0.08387 0.0
C613 C 0.57797 0.59316 0.06207 0.0
C614 C 0.61076 0.59045 0.12737 0.0
C615 C 0.54633 0.57085 0.08406 0.0
C616 C 0.55199 0.54129 0.15661 0.0
C617 C 0.54792 0.55106 0.17613 0.0
C618 C 0.56216 0.55075 0.13352 0.0
C619 C 0.56832 0.57038 0.12997 0.0
C620 C 0.56416 0.58024 0.14959 0.0
C621 C 0.55395 0.57045 0.17227 0.0
C622 C 0.56629 0.53979 0.11292 0.0
C623 C 0.57034 0.60113 0.14655 0.0
H624 H 0.62416 0.61042 0.08197 0.0
H625 H 0.56977 0.59393 0.04571 0.0
H626 H 0.60838 0.59712 0.14507 0.0
H627 H 0.60606 0.57541 0.13256 0.0
H628 H 0.62642 0.59813 0.12284 0.0
H629 H 0.54028 0.57194 0.06491 0.0
H630 H 0.54065 0.5555 0.0885 0.0
H631 H 0.54108 0.57661 0.09986 0.0
H632 H 0.54741 0.52633 0.15951 0.0
H633 H 0.55047 0.578 0.18698 0.0
H634 H 0.58204 0.54677 0.10948 0.0
H635 H 0.55964 0.53997 0.09385 0.0
H636 H 0.56072 0.52467 0.11876 0.0
H637 H 0.58616 0.6098 0.14361 0.0
H638 H 0.56641 0.60681 0.16401 0.0
H639 H 0.56351 0.60309 0.1288 0.0
C640 C 0.40456 0.97318 0.06047 0.0
C641 C 0.39496 0.98359 0.06107 0.0
C642 C 0.41556 0.97338 0.082 0.0
C643 C 0.41694 0.98417 0.10476 0.0
C644 C 0.40736 0.99476 0.10551 0.0
C645 C 0.39652 0.99438 0.08364 0.0
C646 C 0.42561 0.96195 0.08044 0.0
C647 C 0.40843 0.00636 0.12954 0.0
C648 C 0.4282 0.97065 0.17113 0.0
C649 C 0.44748 0.985 0.1748 0.0
C650 C 0.41825 0.96995 0.14814 0.0
C651 C 0.42784 0.98386 0.12821 0.0
C652 C 0.44756 0.99785 0.13121 0.0
C653 C 0.45717 0.99826 0.15451 0.0
C654 C 0.39727 0.95472 0.14563 0.0
C655 C 0.4583 0.01283 0.11026 0.0
H656 H 0.40356 0.96487 0.04309 0.0
H657 H 0.3892 0.00249 0.0843 0.0
H658 H 0.44127 0.97143 0.08386 0.0
H659 H 0.42006 0.95089 0.09617 0.0
H660 H 0.42355 0.95474 0.06101 0.0
H661 H 0.40047 0.01409 0.1268 0.0
H662 H 0.40234 0.99682 0.14697 0.0
H663 H 0.42367 0.01696 0.13407 0.0
H664 H 0.42075 0.96019 0.18661 0.0
H665 H 0.47202 0.00945 0.15734 0.0
H666 H 0.39484 0.94667 0.12691 0.0
H667 H 0.38833 0.96154 0.14496 0.0
H668 H 0.3922 0.94442 0.16235 0.0
H669 H 0.45662 0.00594 0.0907 0.0
H670 H 0.4739 0.02179 0.1147 0.0
H671 H 0.45214 0.0223 0.10869 0.0
C672 C 0.39359 0.99855 0.9115 0.0
C673 C 0.40077 0.00737 0.93598 0.0
C674 C 0.40598 0.99886 0.89171 0.0
C675 C 0.42599 0.00801 0.8967 0.0
C676 C 0.43333 0.0168 0.92146 0.0
C677 C 0.42062 0.01651 0.94077 0.0
C678 C 0.39768 0.9896 0.86536 0.0
C679 C 0.45457 0.02652 0.92751 0.0
C680 C 0.45422 0.99454 0.84989 0.0
C681 C 0.46119 0.00956 0.83161 0.0
C682 C 0.44333 0.99419 0.87189 0.0
C683 C 0.43926 0.00913 0.87542 0.0
C684 C 0.44693 0.02469 0.85758 0.0
C685 C 0.45792 0.02478 0.83604 0.0
C686 C 0.43557 0.9775 0.89077 0.0
C687 C 0.44286 0.04085 0.8606 0.0
H688 H 0.37826 0.99148 0.90773 0.0
H689 H 0.42622 0.02321 0.95977 0.0
H690 H 0.404 0.00045 0.8494 0.0
H691 H 0.40144 0.97847 0.86096 0.0
H692 H 0.38176 0.98287 0.8648 0.0
H693 H 0.45784 0.03199 0.94812 0.0
H694 H 0.4598 0.01636 0.92444 0.0
H695 H 0.46277 0.03868 0.91378 0.0
H696 H 0.45666 0.98273 0.84649 0.0
H697 H 0.46364 0.03663 0.82222 0.0
H698 H 0.41966 0.96887 0.88912 0.0
H699 H 0.43896 0.98269 0.91146 0.0
H700 H 0.44155 0.96804 0.88672 0.0
H701 H 0.42719 0.03523 0.85842 0.0
H702 H 0.45068 0.05233 0.84571 0.0
H703 H 0.44701 0.04725 0.88061 0.0
C704 C 0.9741 0.40282 0.94546 0.0
C705 C 0.98555 0.39432 0.94676 0.0
C706 C 0.97548 0.41442 0.92406 0.0
C707 C 0.98862 0.41764 0.90332 0.0
C708 C 0.00027 0.40918 0.90446 0.0
C709 C 0.9986 0.39763 0.92616 0.0
C710 C 0.96277 0.42313 0.92356 0.0
C711 C 0.01442 0.41225 0.88266 0.0
C712 C 0.97972 0.4309 0.83514 0.0
C713 C 0.99329 0.45055 0.83395 0.0
C714 C 0.97777 0.42015 0.85779 0.0
C715 C 0.98964 0.42925 0.87992 0.0
C716 C 0.00275 0.44927 0.87932 0.0
C717 C 0.00441 0.45971 0.85631 0.0
C718 C 0.96346 0.3989 0.85767 0.0
C719 C 0.01557 0.4595 0.90259 0.0
H720 H 0.96399 0.40044 0.96126 0.0
H721 H 0.00756 0.39122 0.92698 0.0
H722 H 0.97173 0.43892 0.92178 0.0
H723 H 0.95324 0.41787 0.90604 0.0
H724 H 0.95366 0.41964 0.94158 0.0
H725 H 0.02275 0.40506 0.88678 0.0
H726 H 0.00664 0.40667 0.86372 0.0
H727 H 0.02466 0.42779 0.87994 0.0
H728 H 0.97096 0.42383 0.81795 0.0
H729 H 0.01501 0.47485 0.85538 0.0
H730 H 0.95361 0.39496 0.87491 0.0
H731 H 0.9712 0.39088 0.85944 0.0
H732 H 0.95471 0.39418 0.83934 0.0
H733 H 0.00681 0.45642 0.92087 0.0
H734 H 0.02407 0.47525 0.89966 0.0
H735 H 0.02567 0.4542 0.90573 0.0
C736 C 0.60805 0.58056 0.93799 0.0
C737 C 0.614 0.6 0.93497 0.0
C738 C 0.59646 0.567 0.91892 0.0
C739 C 0.5908 0.57306 0.89626 0.0
C740 C 0.59678 0.59267 0.89312 0.0
C741 C 0.60827 0.60588 0.91253 0.0
C742 C 0.59032 0.54622 0.92294 0.0
C743 C 0.59114 0.59973 0.86912 0.0
C744 C 0.57801 0.54638 0.83127 0.0
C745 C 0.55809 0.53908 0.83023 0.0
C746 C 0.58871 0.55645 0.85347 0.0
C747 C 0.57923 0.5592 0.87517 0.0
C748 C 0.55889 0.55047 0.87511 0.0
C749 C 0.54852 0.54047 0.85255 0.0
C750 C 0.61033 0.56539 0.85277 0.0
C751 C 0.54825 0.55292 0.89801 0.0
H752 H 0.61237 0.5759 0.95536 0.0
H753 H 0.61279 0.62086 0.91008 0.0
H754 H 0.57439 0.53726 0.92243 0.0
H755 H 0.59599 0.54128 0.90662 0.0
H756 H 0.59549 0.54375 0.942 0.0
H757 H 0.59673 0.61538 0.86987 0.0
H758 H 0.59676 0.59651 0.85095 0.0
H759 H 0.57523 0.59217 0.86743 0.0
H760 H 0.58537 0.54511 0.81406 0.0
H761 H 0.53313 0.53488 0.85171 0.0
H762 H 0.61557 0.56253 0.87145 0.0
H763 H 0.61717 0.58115 0.85079 0.0
H764 H 0.61519 0.55999 0.83598 0.0
H765 H 0.55336 0.55041 0.91705 0.0
H766 H 0.53244 0.54304 0.89662 0.0
H767 H 0.55113 0.56784 0.89827 0.0
C768 C 0.02278 0.59951 0.93441 0.0
C769 C 0.00436 0.59707 0.93714 0.0
C770 C 0.02705 0.59082 0.9134 0.0
C771 C 0.01272 0.58004 0.89436 0.0
C772 C 0.99435 0.57829 0.89656 0.0
C773 C 0.99029 0.58651 0.91821 0.0
C774 C 0.04656 0.59248 0.91223 0.0
C775 C 0.97884 0.56746 0.87625 0.0
C776 C 0.02386 0.56895 0.82596 0.0
C777 C 0.01585 0.549 0.82736 0.0
C778 C 0.02388 0.57951 0.848 0.0
C779 C 0.01645 0.57006 0.87239 0.0
C780 C 0.01025 0.55036 0.87466 0.0
C781 C 0.00974 0.54 0.85207 0.0
C782 C 0.03036 0.60042 0.84455 0.0
C783 C 0.00286 0.53988 0.90056 0.0
H784 H 0.03355 0.60748 0.94934 0.0
H785 H 0.97606 0.58469 0.92039 0.0
H786 H 0.04485 0.57815 0.91524 0.0
H787 H 0.05325 0.59758 0.89249 0.0
H788 H 0.05651 0.60238 0.92751 0.0
H789 H 0.96591 0.56872 0.87976 0.0
H790 H 0.98447 0.57287 0.85612 0.0
H791 H 0.97438 0.55208 0.8767 0.0
H792 H 0.02926 0.57623 0.80723 0.0
H793 H 0.00348 0.52464 0.85358 0.0
H794 H 0.04019 0.60911 0.86072 0.0
H795 H 0.01763 0.60226 0.8455 0.0
H796 H 0.03779 0.60614 0.82533 0.0
H797 H 0.0124 0.54844 0.91706 0.0
H798 H 0.00179 0.52567 0.90022 0.0
H799 H 0.98834 0.53767 0.90472 0.0
C800 C 0.40021 0.41674 0.91749 0.0
C801 C 0.40019 0.39988 0.92357 0.0
C802 C 0.41269 0.42937 0.89818 0.0
C803 C 0.42479 0.42456 0.88389 0.0
C804 C 0.42471 0.40745 0.88989 0.0
C805 C 0.41267 0.39549 0.91011 0.0
C806 C 0.41293 0.44783 0.89308 0.0
C807 C 0.43693 0.40152 0.87446 0.0
C808 C 0.44059 0.44491 0.81506 0.0
C809 C 0.4604 0.4577 0.8185 0.0
C810 C 0.42884 0.43412 0.83619 0.0
C811 C 0.43682 0.43689 0.86176 0.0
C812 C 0.45641 0.45083 0.86586 0.0
C813 C 0.46807 0.46083 0.8441 0.0
C814 C 0.40811 0.41913 0.83085 0.0
C815 C 0.46523 0.45472 0.89306 0.0
H816 H 0.39072 0.42024 0.92818 0.0
H817 H 0.41256 0.38241 0.91486 0.0
H818 H 0.42789 0.46013 0.89417 0.0
H819 H 0.40759 0.44769 0.87289 0.0
H820 H 0.40386 0.45019 0.90746 0.0
H821 H 0.43501 0.38766 0.88139 0.0
H822 H 0.43316 0.40018 0.85319 0.0
H823 H 0.45237 0.41262 0.87617 0.0
H824 H 0.4343 0.44284 0.79558 0.0
H825 H 0.48332 0.47055 0.84711 0.0
H826 H 0.39832 0.422 0.84291 0.0
H827 H 0.40551 0.40481 0.83666 0.0
H828 H 0.40422 0.41859 0.8097 0.0
H829 H 0.45594 0.45664 0.90752 0.0
H830 H 0.47984 0.46766 0.89343 0.0
H831 H 0.46636 0.4423 0.89969 0.0
C832 C 0.58133 0.00067 0.95298 0.0
C833 C 0.60055 0.00558 0.94958 0.0
C834 C 0.56963 0.99821 0.93112 0.0
C835 C 0.57762 0.00145 0.90535 0.0
C836 C 0.59704 0.00625 0.90186 0.0
C837 C 0.60823 0.00799 0.92409 0.0
C838 C 0.54886 0.99249 0.93564 0.0
C839 C 0.60621 0.01025 0.87477 0.0
C840 C 0.54549 0.98257 0.84487 0.0
C841 C 0.54499 0.99879 0.83657 0.0
C842 C 0.55562 0.98307 0.86763 0.0
C843 C 0.56582 0.00034 0.8821 0.0
C844 C 0.56507 0.01669 0.87402 0.0
C845 C 0.55449 0.01565 0.85145 0.0
C846 C 0.55566 0.96522 0.87592 0.0
C847 C 0.57597 0.03544 0.8887 0.0
H848 H 0.5755 0.99891 0.97282 0.0
H849 H 0.62321 0.01208 0.92163 0.0
H850 H 0.54653 0.00427 0.92944 0.0
H851 H 0.53928 0.97979 0.92343 0.0
H852 H 0.5445 0.98909 0.95671 0.0
H853 H 0.6214 0.01363 0.87541 0.0
H854 H 0.59797 0.99771 0.86165 0.0
H855 H 0.60585 0.02252 0.86573 0.0
H856 H 0.5381 0.96952 0.83331 0.0
H857 H 0.55426 0.02824 0.84481 0.0
H858 H 0.55107 0.96182 0.89687 0.0
H859 H 0.57046 0.96763 0.87442 0.0
H860 H 0.54598 0.95265 0.86353 0.0
H861 H 0.5714 0.03347 0.90972 0.0
H862 H 0.57375 0.04674 0.88004 0.0
H863 H 0.59161 0.04048 0.88833 0.0
C864 C 0.60569 0.02478 0.08247 0.0
C865 C 0.60502 0.00718 0.08127 0.0
C866 C 0.59426 0.02779 0.1007 0.0
C867 C 0.58259 0.01311 0.11883 0.0
C868 C 0.58208 0.99537 0.1178 0.0
C869 C 0.59301 0.99249 0.09862 0.0
C870 C 0.59454 0.04654 0.10043 0.0
C871 C 0.57029 0.97954 0.13727 0.0
C872 C 0.56842 0.02321 0.18565 0.0
C873 C 0.54831 0.01404 0.18322 0.0
C874 C 0.58 0.02401 0.16436 0.0
C875 C 0.57138 0.01629 0.13964 0.0
C876 C 0.55147 0.00929 0.13615 0.0
C877 C 0.54009 0.00797 0.15809 0.0
C878 C 0.60111 0.03136 0.16914 0.0
C879 C 0.54189 0.00175 0.10978 0.0
H880 H 0.61481 0.03604 0.06871 0.0
H881 H 0.59256 0.97891 0.09765 0.0
H882 H 0.57967 0.04384 0.0983 0.0
H883 H 0.60018 0.05418 0.11943 0.0
H884 H 0.60356 0.05605 0.08409 0.0
H885 H 0.57206 0.96693 0.13442 0.0
H886 H 0.57455 0.98489 0.15778 0.0
H887 H 0.55481 0.97482 0.13521 0.0
H888 H 0.57499 0.02853 0.20479 0.0
H889 H 0.5246 0.00093 0.15584 0.0
H890 H 0.61011 0.04141 0.15332 0.0
H891 H 0.60369 0.01915 0.16879 0.0
H892 H 0.60598 0.03874 0.18851 0.0
H893 H 0.55103 0.01112 0.09346 0.0
H894 H 0.52758 0.00063 0.10891 0.0
H895 H 0.53981 0.9873 0.10641 0.0
C896 C 0.01433 0.60548 0.09249 0.0
C897 C 0.9995 0.60151 0.07472 0.0
C898 C 0.01188 0.5924 0.11236 0.0
C899 C 0.99438 0.57463 0.11395 0.0
C900 C 0.97943 0.57041 0.09576 0.0
C901 C 0.98207 0.58406 0.07659 0.0
C902 C 0.02799 0.59771 0.1318 0.0
C903 C 0.96084 0.5514 0.09631 0.0
C904 C 0.00082 0.53885 0.15397 0.0
C905 C 0.99476 0.54109 0.17909 0.0
C906 C 0.99923 0.54844 0.1319 0.0
C907 C 0.99181 0.56085 0.13519 0.0
C908 C 0.98422 0.56191 0.16 0.0
C909 C 0.98547 0.55174 0.1815 0.0
C910 C 0.00684 0.54639 0.10552 0.0
C911 C 0.97637 0.57511 0.16453 0.0
H912 H 0.02779 0.61899 0.09109 0.0
H913 H 0.97068 0.58088 0.0626 0.0
H914 H 0.02263 0.59691 0.15229 0.0
H915 H 0.03315 0.5874 0.13031 0.0
H916 H 0.04039 0.61235 0.12838 0.0
H917 H 0.9508 0.5502 0.08046 0.0
H918 H 0.96392 0.5396 0.09395 0.0
H919 H 0.95354 0.54934 0.11569 0.0
H920 H 0.00798 0.53065 0.1518 0.0
H921 H 0.98021 0.55309 0.20068 0.0
H922 H 0.02101 0.55937 0.10157 0.0
H923 H 0.99699 0.54506 0.08934 0.0
H924 H 0.00875 0.53375 0.10502 0.0
H925 H 0.98839 0.59018 0.1637 0.0
H926 H 0.96909 0.57267 0.18404 0.0
H927 H 0.96602 0.57326 0.14884 0.0
C928 C 0.41012 0.43891 0.05126 0.0
C929 C 0.40087 0.41883 0.05046 0.0
C930 C 0.42113 0.44929 0.07315 0.0
C931 C 0.42293 0.43939 0.09488 0.0
C932 C 0.41393 0.41917 0.09408 0.0
C933 C 0.40303 0.40913 0.07187 0.0
C934 C 0.43053 0.47083 0.07323 0.0
C935 C 0.41548 0.40812 0.11694 0.0
C936 C 0.46244 0.46603 0.14577 0.0
C937 C 0.45215 0.46837 0.16642 0.0
C938 C 0.45322 0.45693 0.12209 0.0
C939 C 0.43329 0.45009 0.11908 0.0
C940 C 0.42305 0.45311 0.13949 0.0
C941 C 0.43261 0.46225 0.16285 0.0
C942 C 0.46465 0.45408 0.10068 0.0
C943 C 0.40184 0.44621 0.13699 0.0
H944 H 0.40869 0.4466 0.0348 0.0
H945 H 0.39601 0.39365 0.07144 0.0
H946 H 0.4243 0.47536 0.08932 0.0
H947 H 0.44618 0.47753 0.07716 0.0
H948 H 0.4286 0.47644 0.0542 0.0
H949 H 0.40836 0.39253 0.11278 0.0
H950 H 0.43084 0.41354 0.12159 0.0
H951 H 0.40876 0.41025 0.13483 0.0
H952 H 0.47751 0.47063 0.14854 0.0
H953 H 0.42467 0.46429 0.17864 0.0
H954 H 0.46293 0.45974 0.0816 0.0
H955 H 0.45908 0.43856 0.0979 0.0
H956 H 0.48023 0.46123 0.10542 0.0
H957 H 0.39919 0.45225 0.11894 0.0
H958 H 0.39613 0.45023 0.15434 0.0
H959 H 0.3936 0.43039 0.13495 0.0
C960 C 0.67367 0.73312 0.43217 0.0
C961 C 0.68461 0.73871 0.40883 0.0
C962 C 0.67561 0.7467 0.45103 0.0
C963 C 0.68876 0.76639 0.44642 0.0
C964 C 0.69988 0.77214 0.42294 0.0
C965 C 0.69772 0.75823 0.40444 0.0
C966 C 0.66356 0.73997 0.47595 0.0
C967 C 0.71402 0.79298 0.41734 0.0
C968 C 0.67856 0.7991 0.48851 0.0
C969 C 0.69042 0.80212 0.51031 0.0
C970 C 0.67873 0.78847 0.46661 0.0
C971 C 0.69106 0.78075 0.46666 0.0
C972 C 0.70415 0.78512 0.48769 0.0
C973 C 0.70369 0.79579 0.50924 0.0
C974 C 0.6647 0.7843 0.44441 0.0
C975 C 0.71762 0.77731 0.48845 0.0
H976 H 0.66352 0.71808 0.43569 0.0
H977 H 0.70619 0.76268 0.3864 0.0
H978 H 0.67306 0.7444 0.49351 0.0
H979 H 0.65459 0.74673 0.47763 0.0
H980 H 0.65394 0.72417 0.47646 0.0
H981 H 0.72144 0.79512 0.398 0.0
H982 H 0.70645 0.80122 0.41739 0.0
H983 H 0.72504 0.79906 0.43313 0.0
H984 H 0.66822 0.80389 0.48936 0.0
H985 H 0.713 0.79828 0.52602 0.0
H986 H 0.65302 0.76909 0.44543 0.0
H987 H 0.67194 0.7865 0.42496 0.0
H988 H 0.65811 0.79345 0.4455 0.0
H989 H 0.70918 0.76161 0.49176 0.0
H990 H 0.72844 0.7839 0.50447 0.0
H991 H 0.7253 0.77976 0.46931 0.0
C992 C 0.23496 0.92341 0.39913 0.0
C993 C 0.25504 0.93364 0.39546 0.0
C994 C 0.22651 0.91154 0.42116 0.0
C995 C 0.23837 0.90989 0.44018 0.0
C996 C 0.2586 0.91975 0.43631 0.0
C997 C 0.26669 0.93147 0.41395 0.0
C998 C 0.20488 0.90118 0.42444 0.0
C999 C 0.27173 0.9184 0.45624 0.0
C1000 C 0.21982 0.89838 0.51073 0.0
C1001 C 0.21443 0.87904 0.51297 0.0
C1002 C 0.22751 0.90849 0.48714 0.0
C1003 C 0.22972 0.89901 0.46504 0.0
C1004 C 0.22369 0.87931 0.46683 0.0
C1005 C 0.21611 0.86954 0.49081 0.0
C1006 C 0.23361 0.92944 0.48604 0.0
C1007 C 0.22567 0.86868 0.44361 0.0
H1008 H 0.22577 0.92481 0.38486 0.0
H1009 H 0.28219 0.93925 0.41128 0.0
H1010 H 0.19915 0.88569 0.42784 0.0
H1011 H 0.20109 0.90681 0.44204 0.0
H1012 H 0.1976 0.90284 0.40694 0.0
H1013 H 0.287 0.92599 0.44959 0.0
H1014 H 0.2708 0.9247 0.47531 0.0
H1015 H 0.2671 0.90319 0.46002 0.0
H1016 H 0.21826 0.90572 0.52767 0.0
H1017 H 0.21209 0.85463 0.49249 0.0
H1018 H 0.22583 0.93194 0.46998 0.0
H1019 H 0.24922 0.93813 0.48149 0.0
H1020 H 0.23079 0.93464 0.50492 0.0
H1021 H 0.21834 0.87018 0.42607 0.0
H1022 H 0.2195 0.8532 0.44781 0.0
H1023 H 0.2411 0.87497 0.43838 0.0
C1024 C 0.08948 0.35505 0.41698 0.0
C1025 C 0.07234 0.33734 0.41558 0.0
C1026 C 0.10309 0.35869 0.43682 0.0
C1027 C 0.0991 0.34447 0.45606 0.0
C1028 C 0.0813 0.32693 0.45537 0.0
C1029 C 0.06832 0.32343 0.43479 0.0
C1030 C 0.12211 0.37729 0.43636 0.0
C1031 C 0.07616 0.31162 0.47598 0.0
C1032 C 0.13601 0.33839 0.49412 0.0
C1033 C 0.13486 0.34518 0.51923 0.0
C1034 C 0.12572 0.33964 0.47264 0.0
C1035 C 0.11359 0.34738 0.47651 0.0
C1036 C 0.1136 0.35567 0.50116 0.0
C1037 C 0.12456 0.35483 0.52201 0.0
C1038 C 0.12672 0.33134 0.44633 0.0
C1039 C 0.10072 0.36385 0.50631 0.0
H1040 H 0.09269 0.36563 0.40172 0.0
H1041 H 0.05508 0.30971 0.43352 0.0
H1042 H 0.12539 0.38419 0.4561 0.0
H1043 H 0.1338 0.37435 0.4314 0.0
H1044 H 0.12231 0.3875 0.42159 0.0
H1045 H 0.06113 0.29955 0.47393 0.0
H1046 H 0.08602 0.30587 0.47424 0.0
H1047 H 0.07796 0.31779 0.4961 0.0
H1048 H 0.14389 0.33093 0.49157 0.0
H1049 H 0.12406 0.36072 0.54107 0.0
H1050 H 0.12788 0.34093 0.42993 0.0
H1051 H 0.11332 0.31738 0.44331 0.0
H1052 H 0.13914 0.329 0.44521 0.0
H1053 H 0.10182 0.37347 0.49002 0.0
H1054 H 0.10424 0.37193 0.52522 0.0
H1055 H 0.08552 0.35199 0.50727 0.0
C1056 C 0.09388 0.35656 0.28285 0.0
C1057 C 0.07414 0.34297 0.28228 0.0
C1058 C 0.10613 0.3578 0.26214 0.0
C1059 C 0.09836 0.34532 0.24022 0.0
C1060 C 0.07848 0.33142 0.2397 0.0
C1061 C 0.06663 0.33033 0.26083 0.0
C1062 C 0.1273 0.37262 0.26353 0.0
C1063 C 0.06963 0.31799 0.21652 0.0
C1064 C 0.12243 0.3599 0.17307 0.0
C1065 C 0.13027 0.34799 0.17038 0.0
C1066 C 0.11254 0.35962 0.19607 0.0
C1067 C 0.11073 0.34736 0.21712 0.0
C1068 C 0.11961 0.33615 0.21521 0.0
C1069 C 0.12922 0.33653 0.19178 0.0
C1070 C 0.10326 0.37178 0.19732 0.0
C1071 C 0.11821 0.32313 0.23743 0.0
H1072 H 0.09979 0.36628 0.29949 0.0
H1073 H 0.05138 0.3198 0.26028 0.0
H1074 H 0.13606 0.36572 0.2607 0.0
H1075 H 0.13116 0.38317 0.24735 0.0
H1076 H 0.13127 0.38041 0.28268 0.0
H1077 H 0.05403 0.30769 0.21948 0.0
H1078 H 0.07148 0.32635 0.1983 0.0
H1079 H 0.07708 0.30981 0.21319 0.0
H1080 H 0.12358 0.36911 0.15683 0.0
H1081 H 0.13517 0.32723 0.1898 0.0
H1082 H 0.10782 0.38072 0.21543 0.0
H1083 H 0.08737 0.36239 0.19833 0.0
H1084 H 0.10692 0.3813 0.17986 0.0
H1085 H 0.12218 0.331 0.25649 0.0
H1086 H 0.12767 0.31702 0.23407 0.0
H1087 H 0.10313 0.31115 0.23934 0.0
C1088 C 0.66952 0.73391 0.26342 0.0
C1089 C 0.65869 0.73207 0.28618 0.0
C1090 C 0.66973 0.74483 0.24174 0.0
C1091 C 0.65892 0.7542 0.24289 0.0
C1092 C 0.64819 0.75261 0.26592 0.0
C1093 C 0.64817 0.74157 0.28721 0.0
C1094 C 0.68129 0.74613 0.21745 0.0
C1095 C 0.63649 0.76239 0.26795 0.0
C1096 C 0.67091 0.79416 0.19352 0.0
C1097 C 0.65708 0.78437 0.17392 0.0
C1098 C 0.67156 0.78461 0.21631 0.0
C1099 C 0.65803 0.76485 0.21952 0.0
C1100 C 0.64363 0.75509 0.20021 0.0
C1101 C 0.6433 0.76498 0.17773 0.0
C1102 C 0.68703 0.79552 0.23659 0.0
C1103 C 0.62884 0.73408 0.20295 0.0
H1104 H 0.67773 0.7267 0.26242 0.0
H1105 H 0.63983 0.74038 0.30472 0.0
H1106 H 0.67155 0.7398 0.20027 0.0
H1107 H 0.6916 0.76135 0.21264 0.0
H1108 H 0.68946 0.73859 0.22001 0.0
H1109 H 0.62959 0.76041 0.28766 0.0
H1110 H 0.64579 0.77795 0.26415 0.0
H1111 H 0.62507 0.7566 0.25269 0.0
H1112 H 0.68166 0.8091 0.19057 0.0
H1113 H 0.6324 0.75741 0.1628 0.0
H1114 H 0.69667 0.7895 0.23776 0.0
H1115 H 0.68046 0.79396 0.25643 0.0
H1116 H 0.69586 0.81101 0.23181 0.0
H1117 H 0.63613 0.72559 0.20352 0.0
H1118 H 0.61835 0.72872 0.18643 0.0
H1119 H 0.62081 0.73148 0.22182 0.0
C1120 C 0.24607 0.94521 0.26012 0.0
C1121 C 0.26221 0.94318 0.26329 0.0
C1122 C 0.23224 0.93477 0.2407 0.0
C1123 C 0.23506 0.92259 0.22349 0.0
C1124 C 0.25148 0.92066 0.22652 0.0
C1125 C 0.26468 0.93073 0.24673 0.0
C1126 C 0.21458 0.93664 0.23872 0.0
C1127 C 0.25529 0.90824 0.20811 0.0
C1128 C 0.19624 0.88215 0.18291 0.0
C1129 C 0.19983 0.89051 0.1577 0.0
C1130 C 0.2066 0.89287 0.20503 0.0
C1131 C 0.22126 0.91222 0.20174 0.0
C1132 C 0.22401 0.92108 0.17678 0.0
C1133 C 0.21297 0.91022 0.15522 0.0
C1134 C 0.20271 0.8831 0.23157 0.0
C1135 C 0.23966 0.94161 0.17228 0.0
H1136 H 0.24405 0.95468 0.27319 0.0
H1137 H 0.27721 0.92923 0.24917 0.0
H1138 H 0.21427 0.9427 0.21925 0.0
H1139 H 0.2014 0.9223 0.24014 0.0
H1140 H 0.21407 0.94596 0.25448 0.0
H1141 H 0.26902 0.90875 0.21265 0.0
H1142 H 0.24337 0.89316 0.20948 0.0
H1143 H 0.25588 0.91292 0.18736 0.0
H1144 H 0.18618 0.86696 0.18518 0.0
H1145 H 0.21544 0.91698 0.13602 0.0
H1146 H 0.20244 0.89247 0.24741 0.0
H1147 H 0.21442 0.8802 0.23626 0.0
H1148 H 0.18882 0.8693 0.23185 0.0
H1149 H 0.23873 0.95116 0.1872 0.0
H1150 H 0.23893 0.9468 0.15227 0.0
H1151 H 0.25394 0.94285 0.17453 0.0
C1152 C 0.6493 0.91723 0.2622 0.0
C1153 C 0.66339 0.92827 0.28084 0.0
C1154 C 0.65359 0.9091 0.24063 0.0
C1155 C 0.6722 0.91143 0.23832 0.0
C1156 C 0.68648 0.92254 0.25725 0.0
C1157 C 0.68198 0.93115 0.27809 0.0
C1158 C 0.63812 0.89791 0.22042 0.0
C1159 C 0.70622 0.92472 0.25604 0.0
C1160 C 0.67033 0.87233 0.19507 0.0
C1161 C 0.67607 0.88161 0.17051 0.0
C1162 C 0.6707 0.88235 0.21798 0.0
C1163 C 0.67636 0.90195 0.21613 0.0
C1164 C 0.68363 0.91173 0.19191 0.0
C1165 C 0.68382 0.90153 0.16958 0.0
C1166 C 0.66363 0.87159 0.24373 0.0
C1167 C 0.68954 0.93253 0.1889 0.0
H1168 H 0.63494 0.91505 0.26446 0.0
H1169 H 0.69275 0.93948 0.29285 0.0
H1170 H 0.64357 0.90346 0.20028 0.0
H1171 H 0.63418 0.88267 0.22077 0.0
H1172 H 0.6249 0.89863 0.22409 0.0
H1173 H 0.71594 0.93452 0.27159 0.0
H1174 H 0.70489 0.91051 0.25857 0.0
H1175 H 0.71296 0.93025 0.23644 0.0
H1176 H 0.66434 0.85699 0.19622 0.0
H1177 H 0.68897 0.90902 0.15093 0.0
H1178 H 0.64885 0.86866 0.24791 0.0
H1179 H 0.67294 0.88025 0.26034 0.0
H1180 H 0.66325 0.8577 0.24309 0.0
H1181 H 0.67653 0.93391 0.18994 0.0
H1182 H 0.69695 0.93858 0.16977 0.0
H1183 H 0.69919 0.94124 0.2052 0.0
C1184 C 0.07655 0.75557 0.28189 0.0
C1185 C 0.07475 0.73748 0.28288 0.0
C1186 C 0.08708 0.76845 0.26154 0.0
C1187 C 0.09513 0.76264 0.24116 0.0
C1188 C 0.09355 0.74443 0.24238 0.0
C1189 C 0.08369 0.73221 0.26361 0.0
C1190 C 0.08918 0.78804 0.2615 0.0
C1191 C 0.10133 0.73744 0.22057 0.0
C1192 C 0.09889 0.78303 0.17286 0.0
C1193 C 0.11891 0.79428 0.16917 0.0
C1194 C 0.09102 0.77282 0.19626 0.0
C1195 C 0.1034 0.77465 0.21719 0.0
C1196 C 0.12353 0.78706 0.21447 0.0
C1197 C 0.1311 0.79646 0.19029 0.0
C1198 C 0.06949 0.75945 0.1981 0.0
C1199 C 0.1371 0.78997 0.2368 0.0
H1200 H 0.06981 0.75967 0.29711 0.0
H1201 H 0.08218 0.71815 0.26447 0.0
H1202 H 0.10436 0.79921 0.25749 0.0
H1203 H 0.08026 0.78888 0.24556 0.0
H1204 H 0.08461 0.79133 0.2806 0.0
H1205 H 0.09937 0.72313 0.22491 0.0
H1206 H 0.09385 0.73653 0.20179 0.0
H1207 H 0.11687 0.7477 0.2174 0.0
H1208 H 0.08926 0.78178 0.15711 0.0
H1209 H 0.14657 0.80505 0.18777 0.0
H1210 H 0.06348 0.76359 0.21492 0.0
H1211 H 0.06628 0.74463 0.20183 0.0
H1212 H 0.06193 0.75944 0.1798 0.0
H1213 H 0.13167 0.79259 0.25564 0.0
H1214 H 0.15185 0.80218 0.23302 0.0
H1215 H 0.13797 0.77686 0.23945 0.0
C1216 C 0.25561 0.34436 0.27738 0.0
C1217 C 0.26695 0.33574 0.27607 0.0
C1218 C 0.24382 0.34311 0.25626 0.0
C1219 C 0.2434 0.33313 0.23306 0.0
C1220 C 0.25437 0.32392 0.23182 0.0
C1221 C 0.26597 0.32528 0.25338 0.0
C1222 C 0.23232 0.35308 0.25847 0.0
C1223 C 0.25439 0.31324 0.20735 0.0
C1224 C 0.2043 0.3218 0.18194 0.0
C1225 C 0.21418 0.33695 0.16407 0.0
C1226 C 0.2136 0.32022 0.20449 0.0
C1227 C 0.23317 0.33413 0.20921 0.0
C1228 C 0.24305 0.34956 0.1914 0.0
C1229 C 0.23343 0.35083 0.16926 0.0
C1230 C 0.20257 0.30366 0.22318 0.0
C1231 C 0.26385 0.36481 0.19571 0.0
H1232 H 0.25603 0.35228 0.29491 0.0
H1233 H 0.27456 0.31848 0.25222 0.0
H1234 H 0.23808 0.36521 0.24434 0.0
H1235 H 0.21706 0.34312 0.25317 0.0
H1236 H 0.23282 0.35872 0.27867 0.0
H1237 H 0.26235 0.30552 0.2103 0.0
H1238 H 0.23942 0.30277 0.20139 0.0
H1239 H 0.26121 0.32346 0.19075 0.0
H1240 H 0.18945 0.31103 0.17801 0.0
H1241 H 0.24105 0.36282 0.15586 0.0
H1242 H 0.20251 0.30908 0.24332 0.0
H1243 H 0.20976 0.2951 0.22452 0.0
H1244 H 0.18743 0.29412 0.21682 0.0
H1245 H 0.26531 0.37226 0.21474 0.0
H1246 H 0.26957 0.37563 0.17965 0.0
H1247 H 0.27292 0.35815 0.19693 0.0
C1248 C 0.27207 0.32822 0.42562 0.0
C1249 C 0.26515 0.31806 0.40191 0.0
C1250 C 0.25937 0.32716 0.44549 0.0
C1251 C 0.23925 0.31584 0.44143 0.0
C1252 C 0.23215 0.30565 0.41745 0.0
C1253 C 0.2452 0.30678 0.39803 0.0
C1254 C 0.26751 0.33805 0.47095 0.0
C1255 C 0.2108 0.29361 0.41234 0.0
C1256 C 0.21029 0.30052 0.50489 0.0
C1257 C 0.20584 0.31503 0.5083 0.0
C1258 C 0.2203 0.30002 0.48248 0.0
C1259 C 0.22579 0.31425 0.46282 0.0
C1260 C 0.22001 0.32803 0.46513 0.0
C1261 C 0.21012 0.3283 0.48794 0.0
C1262 C 0.22615 0.28505 0.48078 0.0
C1263 C 0.22533 0.34325 0.44435 0.0
H1264 H 0.28747 0.33694 0.42874 0.0
H1265 H 0.23976 0.299 0.37964 0.0
H1266 H 0.26226 0.34817 0.47427 0.0
H1267 H 0.26247 0.32795 0.48788 0.0
H1268 H 0.28351 0.34625 0.47094 0.0
H1269 H 0.20763 0.28702 0.39234 0.0
H1270 H 0.20397 0.28204 0.42727 0.0
H1271 H 0.204 0.30251 0.41431 0.0
H1272 H 0.20667 0.29001 0.52039 0.0
H1273 H 0.20674 0.33956 0.49052 0.0
H1274 H 0.242 0.29202 0.483 0.0
H1275 H 0.22241 0.27794 0.46118 0.0
H1276 H 0.21917 0.27394 0.49635 0.0
H1277 H 0.24103 0.35364 0.4452 0.0
H1278 H 0.21755 0.35117 0.44723 0.0
H1279 H 0.22213 0.3368 0.42431 0.0
C1280 C 0.64958 0.91805 0.41575 0.0
C1281 C 0.66645 0.93582 0.41238 0.0
C1282 C 0.64859 0.90495 0.43467 0.0
C1283 C 0.66459 0.91014 0.45127 0.0
C1284 C 0.68163 0.92814 0.44796 0.0
C1285 C 0.68247 0.94062 0.42816 0.0
C1286 C 0.63047 0.88561 0.43692 0.0
C1287 C 0.69879 0.93445 0.4658 0.0
C1288 C 0.65727 0.88835 0.51943 0.0
C1289 C 0.6663 0.87747 0.51686 0.0
C1290 C 0.65611 0.89862 0.49804 0.0
C1291 C 0.6633 0.89727 0.47306 0.0
C1292 C 0.6707 0.88486 0.46967 0.0
C1293 C 0.6724 0.87532 0.4917 0.0
C1294 C 0.6484 0.91194 0.50267 0.0
C1295 C 0.6778 0.88244 0.44307 0.0
H1296 H 0.63727 0.91424 0.40325 0.0
H1297 H 0.69548 0.9544 0.42553 0.0
H1298 H 0.63406 0.8741 0.43586 0.0
H1299 H 0.62347 0.88431 0.45634 0.0
H1300 H 0.61997 0.88321 0.42109 0.0
H1301 H 0.71082 0.94901 0.46085 0.0
H1302 H 0.69448 0.93441 0.48668 0.0
H1303 H 0.70412 0.92427 0.46429 0.0
H1304 H 0.6519 0.8896 0.53857 0.0
H1305 H 0.67941 0.86699 0.48939 0.0
H1306 H 0.6368 0.90892 0.4884 0.0
H1307 H 0.66009 0.92695 0.49943 0.0
H1308 H 0.64264 0.91073 0.52302 0.0
H1309 H 0.66741 0.8805 0.42734 0.0
H1310 H 0.68005 0.87002 0.44276 0.0
H1311 H 0.69168 0.89552 0.43825 0.0
C1312 C 0.0752 0.7431 0.43859 0.0
C1313 C 0.07731 0.73266 0.41814 0.0
C1314 C 0.08846 0.75048 0.45934 0.0
C1315 C 0.10463 0.74796 0.45905 0.0
C1316 C 0.10661 0.73706 0.43868 0.0
C1317 C 0.09271 0.72926 0.41859 0.0
C1318 C 0.08545 0.76149 0.48116 0.0
C1319 C 0.12391 0.73454 0.43723 0.0
C1320 C 0.14432 0.78795 0.49846 0.0
C1321 C 0.14166 0.77923 0.52327 0.0
C1322 C 0.13372 0.77736 0.47644 0.0
C1323 C 0.11976 0.75773 0.47948 0.0
C1324 C 0.11838 0.74846 0.5037 0.0
C1325 C 0.12965 0.75926 0.52516 0.0
C1326 C 0.1362 0.78761 0.45058 0.0
C1327 C 0.10363 0.72759 0.50789 0.0
H1328 H 0.06324 0.74567 0.43817 0.0
H1329 H 0.09445 0.7214 0.40247 0.0
H1330 H 0.08645 0.75596 0.50076 0.0
H1331 H 0.0969 0.77679 0.4802 0.0
H1332 H 0.07126 0.76058 0.47976 0.0
H1333 H 0.12205 0.72364 0.42233 0.0
H1334 H 0.1368 0.74838 0.43177 0.0
H1335 H 0.12681 0.73033 0.45672 0.0
H1336 H 0.15354 0.80332 0.49657 0.0
H1337 H 0.12799 0.75225 0.544 0.0
H1338 H 0.12407 0.79024 0.44793 0.0
H1339 H 0.13599 0.77873 0.43371 0.0
H1340 H 0.14987 0.80161 0.44994 0.0
H1341 H 0.08915 0.72597 0.50986 0.0
H1342 H 0.10654 0.72181 0.52604 0.0
H1343 H 0.10319 0.71883 0.49073 0.0
C1344 C 0.3162 0.06473 0.76455 0.0
C1345 C 0.33352 0.06486 0.761 0.0
C1346 C 0.31457 0.0764 0.78377 0.0
C1347 C 0.33038 0.08778 0.80051 0.0
C1348 C 0.34782 0.0877 0.79715 0.0
C1349 C 0.3493 0.07656 0.77702 0.0
C1350 C 0.29605 0.07673 0.78595 0.0
C1351 C 0.36481 0.0991 0.81515 0.0
C1352 C 0.33735 0.13041 0.8409 0.0
C1353 C 0.33149 0.12227 0.86614 0.0
C1354 C 0.3357 0.11908 0.81884 0.0
C1355 C 0.32865 0.09927 0.82225 0.0
C1356 C 0.32161 0.09078 0.84728 0.0
C1357 C 0.32264 0.10229 0.86868 0.0
C1358 C 0.34255 0.12853 0.7922 0.0
C1359 C 0.31434 0.0698 0.85201 0.0
H1360 H 0.30409 0.05586 0.75183 0.0
H1361 H 0.36268 0.0766 0.77421 0.0
H1362 H 0.28929 0.07128 0.80557 0.0
H1363 H 0.2991 0.09167 0.78433 0.0
H1364 H 0.28554 0.06793 0.77042 0.0
H1365 H 0.37705 0.09691 0.81051 0.0
H1366 H 0.36988 0.11458 0.8134 0.0
H1367 H 0.36042 0.09496 0.83603 0.0
H1368 H 0.34419 0.14578 0.83852 0.0
H1369 H 0.31737 0.09568 0.88783 0.0
H1370 H 0.33231 0.11966 0.77648 0.0
H1371 H 0.35667 0.12996 0.78743 0.0
H1372 H 0.34427 0.14302 0.79181 0.0
H1373 H 0.30296 0.06084 0.83761 0.0
H1374 H 0.30847 0.06522 0.8723 0.0
H1375 H 0.32632 0.06695 0.84908 0.0
C1376 C 0.94087 0.24853 0.74219 0.0
C1377 C 0.9358 0.26257 0.73894 0.0
C1378 C 0.93292 0.23514 0.76285 0.0
C1379 C 0.92018 0.23633 0.78109 0.0
C1380 C 0.91567 0.25102 0.77839 0.0
C1381 C 0.92324 0.26373 0.75702 0.0
C1382 C 0.93752 0.2193 0.76451 0.0
C1383 C 0.90264 0.25319 0.7979 0.0
C1384 C 0.88199 0.19572 0.82211 0.0
C1385 C 0.8905 0.20011 0.84723 0.0
C1386 C 0.89218 0.20637 0.7998 0.0
C1387 C 0.91111 0.22212 0.80281 0.0
C1388 C 0.92031 0.22564 0.82762 0.0
C1389 C 0.91003 0.21432 0.84938 0.0
C1390 C 0.88213 0.20166 0.77341 0.0
C1391 C 0.94037 0.24243 0.83182 0.0
H1392 H 0.95037 0.24749 0.72789 0.0
H1393 H 0.91938 0.27463 0.75445 0.0
H1394 H 0.94274 0.21874 0.78454 0.0
H1395 H 0.92423 0.20532 0.76104 0.0
H1396 H 0.94856 0.22104 0.74976 0.0
H1397 H 0.90175 0.26621 0.79411 0.0
H1398 H 0.8879 0.24052 0.79681 0.0
H1399 H 0.9079 0.25394 0.81835 0.0
H1400 H 0.86696 0.18482 0.82005 0.0
H1401 H 0.91697 0.21742 0.86851 0.0
H1402 H 0.89197 0.20243 0.75741 0.0
H1403 H 0.87774 0.21227 0.76886 0.0
H1404 H 0.86905 0.18717 0.77331 0.0
H1405 H 0.95029 0.2431 0.81604 0.0
H1406 H 0.94634 0.2418 0.85129 0.0
H1407 H 0.93999 0.25591 0.83088 0.0
C1408 C 0.75805 0.66253 0.73621 0.0
C1409 C 0.74859 0.67281 0.73194 0.0
C1410 C 0.76938 0.66573 0.75868 0.0
C1411 C 0.77135 0.67957 0.77747 0.0
C1412 C 0.76251 0.69058 0.77283 0.0
C1413 C 0.75122 0.68707 0.75009 0.0
C1414 C 0.77854 0.65366 0.76287 0.0
C1415 C 0.76434 0.70549 0.7924 0.0
C1416 C 0.77907 0.66838 0.84729 0.0
C1417 C 0.79908 0.68005 0.85026 0.0
C1418 C 0.76985 0.66871 0.82412 0.0
C1419 C 0.78088 0.68091 0.80313 0.0
C1420 C 0.80103 0.69307 0.80611 0.0
C1421 C 0.80993 0.69247 0.82966 0.0
C1422 C 0.74836 0.6554 0.82174 0.0
C1423 C 0.81323 0.70631 0.78416 0.0
H1424 H 0.75632 0.65162 0.72221 0.0
H1425 H 0.74408 0.69518 0.74691 0.0
H1426 H 0.7941 0.66291 0.76723 0.0
H1427 H 0.77177 0.64415 0.78018 0.0
H1428 H 0.77694 0.64463 0.74541 0.0
H1429 H 0.75844 0.71426 0.78457 0.0
H1430 H 0.75644 0.69837 0.81082 0.0
H1431 H 0.77965 0.71514 0.79776 0.0
H1432 H 0.7706 0.65842 0.86283 0.0
H1433 H 0.82536 0.70162 0.83189 0.0
H1434 H 0.74533 0.64459 0.80613 0.0
H1435 H 0.74129 0.66351 0.81579 0.0
H1436 H 0.74171 0.64778 0.84052 0.0
H1437 H 0.81325 0.69775 0.76701 0.0
H1438 H 0.82836 0.71602 0.79039 0.0
H1439 H 0.80709 0.71508 0.77734 0.0
C1440 C 0.74662 0.68397 0.57873 0.0
C1441 C 0.73525 0.66943 0.59669 0.0
C1442 C 0.75667 0.68086 0.55845 0.0
C1443 C 0.75581 0.66299 0.55672 0.0
C1444 C 0.7446 0.64837 0.57514 0.0
C1445 C 0.73417 0.65166 0.59466 0.0
C1446 C 0.76804 0.69664 0.53873 0.0
C1447 C 0.74384 0.62937 0.57443 0.0
C1448 C 0.76802 0.65122 0.48953 0.0
C1449 C 0.78799 0.65889 0.49162 0.0
C1450 C 0.75721 0.65187 0.51086 0.0
C1451 C 0.76641 0.65965 0.53524 0.0
C1452 C 0.78617 0.66575 0.53825 0.0
C1453 C 0.7968 0.66554 0.5163 0.0
C1454 C 0.73623 0.64546 0.5067 0.0
C1455 C 0.79634 0.67352 0.56423 0.0
H1456 H 0.74739 0.69769 0.58027 0.0
H1457 H 0.72554 0.64046 0.60876 0.0
H1458 H 0.7835 0.70105 0.53966 0.0
H1459 H 0.76303 0.69136 0.51838 0.0
H1460 H 0.76669 0.70944 0.54232 0.0
H1461 H 0.7349 0.61972 0.5907 0.0
H1462 H 0.73786 0.62207 0.55531 0.0
H1463 H 0.75861 0.63171 0.57596 0.0
H1464 H 0.76095 0.6455 0.47078 0.0
H1465 H 0.8122 0.67155 0.51821 0.0
H1466 H 0.73423 0.658 0.50821 0.0
H1467 H 0.72718 0.63517 0.52226 0.0
H1468 H 0.73095 0.63864 0.48708 0.0
H1469 H 0.79822 0.68788 0.56781 0.0
H1470 H 0.81076 0.67486 0.56446 0.0
H1471 H 0.78762 0.66413 0.5808 0.0
C1472 C 0.33781 0.07208 0.61146 0.0
C1473 C 0.32352 0.06762 0.63066 0.0
C1474 C 0.33943 0.08318 0.58922 0.0
C1475 C 0.32645 0.08999 0.58613 0.0
C1476 C 0.31224 0.08583 0.60565 0.0
C1477 C 0.31095 0.07472 0.62761 0.0
C1478 C 0.35478 0.08734 0.56878 0.0
C1479 C 0.29812 0.09278 0.60309 0.0
C1480 C 0.33888 0.13045 0.53744 0.0
C1481 C 0.32845 0.12028 0.5151 0.0
C1482 C 0.33833 0.12082 0.5608 0.0
C1483 C 0.32702 0.10057 0.5618 0.0
C1484 C 0.31602 0.09032 0.53952 0.0
C1485 C 0.31685 0.10029 0.51651 0.0
C1486 C 0.35018 0.13225 0.58419 0.0
C1487 C 0.3036 0.06876 0.53984 0.0
H1488 H 0.34763 0.06673 0.61364 0.0
H1489 H 0.29989 0.07149 0.64233 0.0
H1490 H 0.34794 0.08073 0.54965 0.0
H1491 H 0.36375 0.103 0.56548 0.0
H1492 H 0.3643 0.0818 0.57467 0.0
H1493 H 0.2885 0.08906 0.6206 0.0
H1494 H 0.30595 0.10854 0.60047 0.0
H1495 H 0.28909 0.08636 0.5853 0.0
H1496 H 0.34797 0.14589 0.53635 0.0
H1497 H 0.30857 0.0924 0.49937 0.0
H1498 H 0.36103 0.12813 0.58889 0.0
H1499 H 0.34083 0.129 0.60188 0.0
H1500 H 0.35777 0.14792 0.58051 0.0
H1501 H 0.31264 0.0623 0.54354 0.0
H1502 H 0.29577 0.06296 0.52095 0.0
H1503 H 0.2929 0.06417 0.55615 0.0
C1504 C 0.92994 0.2689 0.58509 0.0
C1505 C 0.93573 0.26155 0.60581 0.0
C1506 C 0.918 0.25693 0.56488 0.0
C1507 C 0.91147 0.23709 0.5656 0.0
C1508 C 0.91685 0.22949 0.58684 0.0
C1509 C 0.92903 0.24184 0.6066 0.0
C1510 C 0.91276 0.26562 0.5424 0.0
C1511 C 0.90997 0.20839 0.58846 0.0
C1512 C 0.8696 0.20708 0.51956 0.0
C1513 C 0.87932 0.20616 0.49705 0.0
C1514 C 0.87975 0.21619 0.54271 0.0
C1515 C 0.90005 0.22463 0.54317 0.0
C1516 C 0.9097 0.22259 0.52108 0.0
C1517 C 0.8992 0.21325 0.4984 0.0
C1518 C 0.8689 0.21776 0.56607 0.0
C1519 C 0.93132 0.23136 0.52071 0.0
H1520 H 0.93506 0.2841 0.58438 0.0
H1521 H 0.93332 0.23604 0.6227 0.0
H1522 H 0.91847 0.26344 0.52352 0.0
H1523 H 0.89688 0.2584 0.54049 0.0
H1524 H 0.91857 0.28121 0.54516 0.0
H1525 H 0.91429 0.20455 0.60721 0.0
H1526 H 0.89405 0.19987 0.58681 0.0
H1527 H 0.91599 0.2042 0.5717 0.0
H1528 H 0.85425 0.20167 0.5186 0.0
H1529 H 0.90671 0.21225 0.48117 0.0
H1530 H 0.87211 0.23274 0.56791 0.0
H1531 H 0.87358 0.21413 0.58465 0.0
H1532 H 0.85308 0.20824 0.56401 0.0
H1533 H 0.93834 0.2472 0.52121 0.0
H1534 H 0.93642 0.22723 0.50281 0.0
H1535 H 0.93612 0.22696 0.53846 0.0
C1536 C 0.31827 0.23971 0.62485 0.0
C1537 C 0.32768 0.25978 0.62518 0.0
C1538 C 0.31945 0.22986 0.60274 0.0
C1539 C 0.33016 0.2403 0.58032 0.0
C1540 C 0.33981 0.26055 0.58057 0.0
C1541 C 0.33851 0.27005 0.60303 0.0
C1542 C 0.30904 0.20825 0.60325 0.0
C1543 C 0.3512 0.27216 0.55691 0.0
C1544 C 0.34474 0.2157 0.5287 0.0
C1545 C 0.33042 0.21069 0.50957 0.0
C1546 C 0.34482 0.22529 0.55196 0.0
C1547 C 0.33031 0.23 0.55604 0.0
C1548 C 0.31577 0.22485 0.53688 0.0
C1549 C 0.31594 0.21517 0.51401 0.0
C1550 C 0.36048 0.23047 0.57208 0.0
C1551 C 0.30003 0.2296 0.54049 0.0
H1552 H 0.31 0.23164 0.64193 0.0
H1553 H 0.34584 0.28555 0.6031 0.0
H1554 H 0.29774 0.20235 0.58782 0.0
H1555 H 0.31922 0.20321 0.59867 0.0
H1556 H 0.30216 0.20231 0.6227 0.0
H1557 H 0.35847 0.28781 0.56063 0.0
H1558 H 0.36227 0.26846 0.5514 0.0
H1559 H 0.3415 0.26867 0.5397 0.0
H1560 H 0.35602 0.21239 0.52531 0.0
H1561 H 0.30459 0.21098 0.49959 0.0
H1562 H 0.35399 0.2241 0.59152 0.0
H1563 H 0.36889 0.24622 0.57478 0.0
H1564 H 0.37049 0.22545 0.56619 0.0
H1565 H 0.29169 0.22275 0.55874 0.0
H1566 H 0.28993 0.22478 0.52353 0.0
H1567 H 0.30645 0.24529 0.54286 0.0
C1568 C 0.7381 0.06592 0.57442 0.0
C1569 C 0.72674 0.06882 0.59269 0.0
C1570 C 0.74806 0.07929 0.55438 0.0
C1571 C 0.7472 0.09631 0.55328 0.0
C1572 C 0.73608 0.09951 0.57212 0.0
C1573 C 0.72565 0.0855 0.59134 0.0
C1574 C 0.7593 0.07508 0.53418 0.0
C1575 C 0.73543 0.11779 0.57218 0.0
C1576 C 0.78842 0.13414 0.51258 0.0
C1577 C 0.7796 0.13177 0.48789 0.0
C1578 C 0.77766 0.12386 0.53478 0.0
C1579 C 0.75777 0.11047 0.53201 0.0
C1580 C 0.74854 0.10904 0.5077 0.0
C1581 C 0.7595 0.12005 0.48614 0.0
C1582 C 0.78788 0.12635 0.56069 0.0
C1583 C 0.72742 0.09471 0.50374 0.0
H1584 H 0.73885 0.05295 0.57548 0.0
H1585 H 0.71701 0.08781 0.60575 0.0
H1586 H 0.75433 0.07563 0.51397 0.0
H1587 H 0.7748 0.08612 0.53527 0.0
H1588 H 0.75778 0.06081 0.53716 0.0
H1589 H 0.72654 0.11829 0.58867 0.0
H1590 H 0.75024 0.13028 0.57391 0.0
H1591 H 0.72947 0.11933 0.55325 0.0
H1592 H 0.8039 0.14309 0.51434 0.0
H1593 H 0.75242 0.11861 0.46741 0.0
H1594 H 0.78995 0.114 0.56394 0.0
H1595 H 0.77914 0.12679 0.57742 0.0
H1596 H 0.80223 0.13964 0.56098 0.0
H1597 H 0.72514 0.08001 0.50433 0.0
H1598 H 0.72205 0.09667 0.48451 0.0
H1599 H 0.71864 0.09578 0.51985 0.0
C1600 C 0.93235 0.68975 0.61192 0.0
C1601 C 0.94016 0.6777 0.61284 0.0
C1602 C 0.92089 0.68909 0.59068 0.0
C1603 C 0.9171 0.67608 0.56973 0.0
C1604 C 0.92487 0.66383 0.5705 0.0
C1605 C 0.93631 0.66479 0.59202 0.0
C1606 C 0.91296 0.70244 0.59058 0.0
C1607 C 0.92118 0.64978 0.54847 0.0
C1608 C 0.87512 0.66255 0.52304 0.0
C1609 C 0.88467 0.6736 0.50077 0.0
C1610 C 0.88542 0.66349 0.54592 0.0
C1611 C 0.90569 0.67583 0.54649 0.0
C1612 C 0.91521 0.68768 0.52447 0.0
C1613 C 0.90459 0.68643 0.50193 0.0
C1614 C 0.87474 0.65072 0.56907 0.0
C1615 C 0.93674 0.70118 0.52431 0.0
H1616 H 0.93515 0.69978 0.62787 0.0
H1617 H 0.94218 0.65537 0.59256 0.0
H1618 H 0.91859 0.71206 0.57318 0.0
H1619 H 0.89705 0.69411 0.58885 0.0
H1620 H 0.91681 0.71137 0.60873 0.0
H1621 H 0.92782 0.64091 0.55232 0.0
H1622 H 0.90545 0.64014 0.54579 0.0
H1623 H 0.92704 0.65759 0.5296 0.0
H1624 H 0.85976 0.65251 0.52209 0.0
H1625 H 0.91198 0.69511 0.48478 0.0
H1626 H 0.87818 0.65928 0.58749 0.0
H1627 H 0.87943 0.64013 0.57191 0.0
H1628 H 0.85889 0.64287 0.56621 0.0
H1629 H 0.94109 0.71084 0.5417 0.0
H1630 H 0.94181 0.71004 0.5061 0.0
H1631 H 0.94421 0.69288 0.52577 0.0
C1632 C 0.91353 0.64231 0.73313 0.0
C1633 C 0.9333 0.65471 0.73734 0.0
C1634 C 0.89981 0.64092 0.75163 0.0
C1635 C 0.90604 0.65209 0.77495 0.0
C1636 C 0.92599 0.66453 0.77936 0.0
C1637 C 0.93935 0.66573 0.76048 0.0
C1638 C 0.87867 0.62757 0.74623 0.0
C1639 C 0.93324 0.67658 0.8041 0.0
C1640 C 0.87543 0.66498 0.81754 0.0
C1641 C 0.87225 0.65338 0.83966 0.0
C1642 C 0.88522 0.66373 0.79525 0.0
C1643 C 0.89193 0.65061 0.79526 0.0
C1644 C 0.88717 0.6377 0.81658 0.0
C1645 C 0.87733 0.63921 0.8385 0.0
C1646 C 0.88978 0.67756 0.77272 0.0
C1647 C 0.89392 0.62341 0.81734 0.0
H1648 H 0.90873 0.6338 0.71523 0.0
H1649 H 0.9546 0.67533 0.76386 0.0
H1650 H 0.87217 0.61673 0.76217 0.0
H1651 H 0.87101 0.63571 0.74618 0.0
H1652 H 0.87618 0.62003 0.727 0.0
H1653 H 0.94919 0.68557 0.80449 0.0
H1654 H 0.92711 0.6861 0.80564 0.0
H1655 H 0.92842 0.66722 0.82181 0.0
H1656 H 0.87158 0.67599 0.81844 0.0
H1657 H 0.87468 0.63011 0.85554 0.0
H1658 H 0.88721 0.67013 0.75342 0.0
H1659 H 0.90524 0.6888 0.77345 0.0
H1660 H 0.88106 0.68464 0.77373 0.0
H1661 H 0.89108 0.6157 0.79825 0.0
H1662 H 0.88683 0.61275 0.83343 0.0
H1663 H 0.90971 0.63109 0.8206 0.0
C1664 C 0.36191 0.2683 0.74806 0.0
C1665 C 0.34991 0.27598 0.75199 0.0
C1666 C 0.36364 0.25692 0.76746 0.0
C1667 C 0.35326 0.25328 0.79146 0.0
C1668 C 0.34115 0.26102 0.79555 0.0
C1669 C 0.33957 0.27222 0.77574 0.0
C1670 C 0.37661 0.24883 0.76234 0.0
C1671 C 0.32996 0.25761 0.82099 0.0
C1672 C 0.34284 0.21209 0.83736 0.0
C1673 C 0.356 0.22173 0.85774 0.0
C1674 C 0.34244 0.22199 0.81484 0.0
C1675 C 0.35546 0.24195 0.8128 0.0
C1676 C 0.3696 0.25145 0.83251 0.0
C1677 C 0.36974 0.2412 0.85466 0.0
C1678 C 0.3273 0.21131 0.79407 0.0
C1679 C 0.38381 0.27269 0.83106 0.0
H1680 H 0.36988 0.27106 0.72969 0.0
H1681 H 0.33028 0.2781 0.77891 0.0
H1682 H 0.38825 0.25436 0.77727 0.0
H1683 H 0.3683 0.23301 0.76433 0.0
H1684 H 0.38326 0.25252 0.74234 0.0
H1685 H 0.32101 0.26446 0.82095 0.0
H1686 H 0.32041 0.24202 0.82431 0.0
H1687 H 0.34004 0.26335 0.83793 0.0
H1688 H 0.33214 0.19706 0.83971 0.0
H1689 H 0.38012 0.24864 0.87024 0.0
H1690 H 0.33382 0.21486 0.77402 0.0
H1691 H 0.31636 0.21575 0.79499 0.0
H1692 H 0.3199 0.19556 0.79686 0.0
H1693 H 0.39105 0.27655 0.81149 0.0
H1694 H 0.39498 0.27754 0.84667 0.0
H1695 H 0.37604 0.28066 0.83341 0.0
C1696 C 0.75359 0.07531 0.72495 0.0
C1697 C 0.73563 0.07406 0.72551 0.0
C1698 C 0.76672 0.08412 0.74572 0.0
C1699 C 0.76134 0.0911 0.76791 0.0
C1700 C 0.74299 0.08948 0.76867 0.0
C1701 C 0.7305 0.08132 0.74716 0.0
C1702 C 0.78641 0.08624 0.74375 0.0
C1703 C 0.73644 0.09613 0.79234 0.0
C1704 C 0.78498 0.09572 0.83416 0.0
C1705 C 0.7957 0.11568 0.83764 0.0
C1706 C 0.77406 0.08754 0.81133 0.0
C1707 C 0.77455 0.09956 0.7908 0.0
C1708 C 0.78652 0.11967 0.79318 0.0
C1709 C 0.79672 0.12752 0.81675 0.0
C1710 C 0.76119 0.06605 0.80987 0.0
C1711 C 0.78796 0.13294 0.77128 0.0
H1712 H 0.75757 0.06991 0.70789 0.0
H1713 H 0.71656 0.08034 0.7474 0.0
H1714 H 0.79769 0.10155 0.74578 0.0
H1715 H 0.78848 0.07841 0.76012 0.0
H1716 H 0.78862 0.08076 0.72469 0.0
H1717 H 0.72146 0.09317 0.79019 0.0
H1718 H 0.73723 0.08889 0.81046 0.0
H1719 H 0.74611 0.11174 0.79526 0.0
H1720 H 0.78458 0.08639 0.84975 0.0
H1721 H 0.80485 0.14293 0.81911 0.0
H1722 H 0.76424 0.06041 0.79163 0.0
H1723 H 0.74591 0.06231 0.80897 0.0
H1724 H 0.76296 0.05868 0.82717 0.0
H1725 H 0.79011 0.12778 0.75193 0.0
H1726 H 0.79998 0.14782 0.77449 0.0
H1727 H 0.77434 0.13316 0.77013 0.0
C1728 C 0.04593 0.33966 0.04573 0.0
C1729 C 0.04436 0.34614 0.02071 0.0
C1730 C 0.06213 0.33848 0.05264 0.0
C1731 C 0.07705 0.34347 0.03387 0.0
C1732 C 0.07507 0.34895 0.00804 0.0
C1733 C 0.05886 0.35049 0.00186 0.0
C1734 C 0.06367 0.33284 0.08057 0.0
C1735 C 0.09035 0.35382 0.98723 0.0
C1736 C 0.12434 0.36181 0.06925 0.0
C1737 C 0.12461 0.34485 0.07318 0.0
C1738 C 0.10984 0.36197 0.05426 0.0
C1739 C 0.09535 0.34474 0.04263 0.0
C1740 C 0.09688 0.32808 0.04403 0.0
C1741 C 0.11143 0.32827 0.0596 0.0
C1742 C 0.10883 0.38005 0.05357 0.0
C1743 C 0.08213 0.3096 0.03121 0.0
H1744 H 0.03483 0.33627 0.06045 0.0
H1745 H 0.0577 0.35537 0.98241 0.0
H1746 H 0.06603 0.3205 0.08035 0.0
H1747 H 0.07625 0.3449 0.0905 0.0
H1748 H 0.05059 0.32891 0.09254 0.0
H1749 H 0.08511 0.35428 0.96714 0.0
H1750 H 0.10306 0.36804 0.99157 0.0
H1751 H 0.09521 0.34323 0.98734 0.0
H1752 H 0.13447 0.37458 0.07998 0.0
H1753 H 0.11152 0.3151 0.06284 0.0
H1754 H 0.09688 0.37829 0.06655 0.0
H1755 H 0.10578 0.38292 0.0333 0.0
H1756 H 0.12239 0.39271 0.06051 0.0
H1757 H 0.06897 0.30259 0.0437 0.0
H1758 H 0.08758 0.29954 0.02887 0.0
H1759 H 0.07797 0.31231 0.01153 0.0
C1760 C 0.65373 0.70643 0.03126 0.0
C1761 C 0.64259 0.69874 0.00847 0.0
C1762 C 0.65717 0.72395 0.04176 0.0
C1763 C 0.64974 0.73429 0.02875 0.0
C1764 C 0.63977 0.72729 0.00461 0.0
C1765 C 0.63603 0.70943 -0.00502 0.0
C1766 C 0.66761 0.73071 0.06779 0.0
C1767 C 0.63221 0.73816 0.98963 0.0
C1768 C 0.63637 0.76175 0.07636 0.0
C1769 C 0.65324 0.77973 0.07677 0.0
C1770 C 0.63464 0.74716 0.05967 0.0
C1771 C 0.65003 0.75076 0.04246 0.0
C1772 C 0.66633 0.7695 0.04087 0.0
C1773 C 0.66785 0.7838 0.05832 0.0
C1774 C 0.61705 0.72743 0.06226 0.0
C1775 C 0.68273 0.7741 0.02214 0.0
H1776 H 0.65882 0.69822 0.04176 0.0
H1777 H 0.62764 0.70367 0.97712 0.0
H1778 H 0.67958 0.74575 0.06615 0.0
H1779 H 0.65754 0.73031 0.08317 0.0
H1780 H 0.67357 0.72173 0.07449 0.0
H1781 H 0.62799 0.7327 0.96914 0.0
H1782 H 0.61938 0.73674 -3e-05 0.0
H1783 H 0.64319 0.75363 0.98883 0.0
H1784 H 0.6251 0.75865 0.09071 0.0
H1785 H 0.68095 0.79767 0.05876 0.0
H1786 H 0.62128 0.71746 0.07061 0.0
H1787 H 0.6106 0.72182 0.04261 0.0
H1788 H 0.60587 0.72734 0.07532 0.0
H1789 H 0.69163 0.76846 0.03028 0.0
H1790 H 0.69214 0.78978 0.01924 0.0
H1791 H 0.67724 0.7672 0.00264 0.0
C1792 C 0.29205 0.94429 0.02668 0.0
C1793 C 0.30096 0.93962 0.00653 0.0
C1794 C 0.27368 0.93073 0.03609 0.0
C1795 C 0.26387 0.91215 0.0248 0.0
C1796 C 0.27233 0.9077 0.00347 0.0
C1797 C 0.29084 0.92143 -0.00527 0.0
C1798 C 0.26519 0.93601 0.05902 0.0
C1799 C 0.26217 0.8882 0.99058 0.0
C1800 C 0.23009 0.87522 0.07391 0.0
C1801 C 0.21285 0.8748 0.06859 0.0
C1802 C 0.24655 0.88626 0.05846 0.0
C1803 C 0.24565 0.89704 0.03712 0.0
C1804 C 0.22774 0.89509 0.03009 0.0
C1805 C 0.2115 0.88404 0.04611 0.0
C1806 C 0.26531 0.88788 0.06667 0.0
C1807 C 0.2261 0.906 0.00715 0.0
H1808 H 0.29975 0.95829 0.03588 0.0
H1809 H 0.29754 0.91777 0.97892 0.0
H1810 H 0.25058 0.93313 0.05397 0.0
H1811 H 0.26369 0.92705 0.07642 0.0
H1812 H 0.27421 0.95131 0.0647 0.0
H1813 H 0.2695 0.88784 0.97212 0.0
H1814 H 0.26172 0.87742 0.00445 0.0
H1815 H 0.24706 0.88389 0.98591 0.0
H1816 H 0.2311 0.86825 0.09159 0.0
H1817 H 0.1982 0.88392 0.04232 0.0
H1818 H 0.27489 0.90229 0.0752 0.0
H1819 H 0.27285 0.88627 0.04933 0.0
H1820 H 0.26314 0.87697 0.08167 0.0
H1821 H 0.2322 0.92122 0.01286 0.0
H1822 H 0.21087 0.90019 0.00122 0.0
H1823 H 0.2344 0.90561 0.98984 0.0
C1824 C 0.36385 0.06553 0.01742 0.0
C1825 C 0.35484 0.05063 -0.0011 0.0
C1826 C 0.3643 0.083 0.01387 0.0
C1827 C 0.35587 0.08571 0.99104 0.0
C1828 C 0.34625 0.07047 0.97276 0.0
C1829 C 0.34575 0.05314 0.97702 0.0
C1830 C 0.37436 0.09872 0.03405 0.0
C1831 C 0.33711 0.07269 0.94803 0.0
C1832 C 0.34147 0.12238 0.97667 0.0
C1833 C 0.35538 0.13358 0.95774 0.0
C1834 C 0.34265 0.108 0.9905 0.0
C1835 C 0.35795 0.10466 0.98482 0.0
C1836 C 0.37326 0.11759 0.96823 0.0
C1837 C 0.3718 0.13196 0.95493 0.0
C1838 C 0.32632 0.09493 0.00863 0.0
C1839 C 0.3899 0.1147 0.96164 0.0
H1840 H 0.37087 0.0637 0.03444 0.0
H1841 H 0.33874 0.04174 0.96261 0.0
H1842 H 0.38835 0.11002 0.02589 0.0
H1843 H 0.36568 0.10548 0.03868 0.0
H1844 H 0.37717 0.09334 0.05267 0.0
H1845 H 0.32985 0.05934 0.93611 0.0
H1846 H 0.32633 0.07684 0.95329 0.0
H1847 H 0.34825 0.08428 0.9355 0.0
H1848 H 0.32865 0.12347 0.97859 0.0
H1849 H 0.38241 0.14046 0.93998 0.0
H1850 H 0.33172 0.09075 0.02598 0.0
H1851 H 0.31623 0.08167 -0.0022 0.0
H1852 H 0.31817 0.10179 0.01567 0.0
H1853 H 0.39521 0.11107 0.97959 0.0
H1854 H 0.40205 0.12763 0.95237 0.0
H1855 H 0.38497 0.10257 0.94759 0.0
C1856 C 0.94156 0.29106 0.98117 0.0
C1857 C 0.93612 0.3 0.00028 0.0
C1858 C 0.92823 0.2729 0.97121 0.0
C1859 C 0.90903 0.26327 0.98088 0.0
C1860 C 0.9037 0.27178 0.00112 0.0
C1861 C 0.91725 0.29011 0.01041 0.0
C1862 C 0.93449 0.26441 0.94945 0.0
C1863 C 0.88352 0.26182 0.01231 0.0
C1864 C 0.87415 0.22979 0.92962 0.0
C1865 C 0.87336 0.21259 0.93585 0.0
C1866 C 0.88458 0.24614 0.94533 0.0
C1867 C 0.89433 0.24517 0.96794 0.0
C1868 C 0.89192 0.2273 0.97577 0.0
C1869 C 0.88152 0.21117 0.95946 0.0
C1870 C 0.88672 0.26483 0.93617 0.0
C1871 C 0.90171 0.22556 4e-05 0.0
H1872 H 0.95608 0.29857 0.97324 0.0
H1873 H 0.91295 0.29681 0.0254 0.0
H1874 H 0.93131 0.24987 0.95508 0.0
H1875 H 0.92629 0.26294 0.93117 0.0
H1876 H 0.95011 0.27332 0.94492 0.0
H1877 H 0.88233 0.26918 0.03016 0.0
H1878 H 0.87339 0.26139 -0.00281 0.0
H1879 H 0.87885 0.24679 0.01751 0.0
H1880 H 0.86797 0.23087 0.91116 0.0
H1881 H 0.8811 0.19791 0.96406 0.0
H1882 H 0.90161 0.27431 0.92874 0.0
H1883 H 0.88436 0.27235 0.95282 0.0
H1884 H 0.8765 0.26275 0.92009 0.0
H1885 H 0.91725 0.23159 -0.00421 0.0
H1886 H 0.89551 0.2104 0.0062 0.0
H1887 H 0.90051 0.2338 0.01676 0.0
C1888 C 0.71469 0.64924 0.01036 0.0
C1889 C 0.70552 0.65399 0.99083 0.0
C1890 C 0.73305 0.65161 0.00583 0.0
C1891 C 0.74215 0.65845 0.98099 0.0
C1892 C 0.73304 0.66354 0.96143 0.0
C1893 C 0.71498 0.66144 0.9667 0.0
C1894 C 0.74248 0.64643 0.02735 0.0
C1895 C 0.74209 0.67072 0.93451 0.0
C1896 C 0.79414 0.68035 0.9608 0.0
C1897 C 0.79317 0.66561 0.94519 0.0
C1898 C 0.77816 0.67748 0.97577 0.0
C1899 C 0.76077 0.65962 0.97438 0.0
C1900 C 0.76056 0.64409 0.96111 0.0
C1901 C 0.77687 0.64729 0.94672 0.0
C1902 C 0.77919 0.69424 0.99034 0.0
C1903 C 0.74238 0.62482 0.95899 0.0
H1904 H 0.70748 0.64353 0.0291 0.0
H1905 H 0.70799 0.6651 0.95146 0.0
H1906 H 0.74234 0.6331 0.02187 0.0
H1907 H 0.75776 0.65784 0.0297 0.0
H1908 H 0.73497 0.64411 0.04664 0.0
H1909 H 0.73306 0.67399 0.92151 0.0
H1910 H 0.75638 0.68389 0.93664 0.0
H1911 H 0.74439 0.65982 0.92456 0.0
H1912 H 0.80671 0.69459 0.95931 0.0
H1913 H 0.77607 0.63599 0.93426 0.0
H1914 H 0.77094 0.68956 0.00915 0.0
H1915 H 0.77276 0.70081 0.97797 0.0
H1916 H 0.79432 0.70538 -0.00529 0.0
H1917 H 0.73466 0.62048 0.97819 0.0
H1918 H 0.74542 0.61353 0.95235 0.0
H1919 H 0.73263 0.62572 0.9444 0.0
C1920 C 0.95074 0.65493 -0.00012 0.0
C1921 C 0.94831 0.63846 0.98716 0.0
C1922 C 0.93914 0.66269 0.99329 0.0
C1923 C 0.92545 0.65421 0.97277 0.0
C1924 C 0.92315 0.63765 0.95976 0.0
C1925 C 0.93433 0.62978 0.96751 0.0
C1926 C 0.94144 0.67984 0.00832 0.0
C1927 C 0.90916 0.62845 0.93719 0.0
C1928 C 0.88234 0.65864 0.9557 0.0
C1929 C 0.88932 0.67015 0.93312 0.0
C1930 C 0.89468 0.65515 0.9712 0.0
C1931 C 0.91419 0.663 0.9634 0.0
C1932 C 0.9217 0.67652 0.94259 0.0
C1933 C 0.9092 0.6802 0.92804 0.0
C1934 C 0.88634 0.64141 -0.00592 0.0
C1935 C 0.94227 0.68508 0.93321 0.0
H1936 H 0.9614 0.66147 0.01537 0.0
H1937 H 0.93251 0.61706 0.95767 0.0
H1938 H 0.9465 0.69225 -0.00517 0.0
H1939 H 0.92732 0.67672 0.01643 0.0
H1940 H 0.95184 0.68397 0.02484 0.0
H1941 H 0.90963 0.61606 0.92861 0.0
H1942 H 0.89427 0.62342 0.94414 0.0
H1943 H 0.91245 0.6391 0.92129 0.0
H1944 H 0.867 0.65095 0.95979 0.0
H1945 H 0.91462 0.68931 0.91072 0.0
H1946 H 0.89682 0.64584 0.01051 0.0
H1947 H 0.88291 0.62695 0.98753 0.0
H1948 H 0.87287 0.6404 0.00159 0.0
H1949 H 0.95236 0.68967 0.95007 0.0
H1950 H 0.94664 0.69756 0.92 0.0
H1951 H 0.94373 0.67407 0.92204 0.0
C1952 C 0.35449 0.30041 0.01132 0.0
C1953 C 0.35102 0.30893 0.98957 0.0
C1954 C 0.35313 0.28244 0.00897 0.0
C1955 C 0.3489 0.27315 0.98407 0.0
C1956 C 0.34489 0.28151 0.96228 0.0
C1957 C 0.34573 0.29911 0.96542 0.0
C1958 C 0.35685 0.27375 0.0329 0.0
C1959 C 0.34066 0.27235 0.93519 0.0
C1960 C 0.36842 0.24255 0.95867 0.0
C1961 C 0.35133 0.22515 0.95435 0.0
C1962 C 0.36816 0.25794 0.97096 0.0
C1963 C 0.35038 0.25572 0.97959 0.0
C1964 C 0.33354 0.23734 0.9786 0.0
C1965 C 0.33415 0.22226 0.96563 0.0
C1966 C 0.38648 0.2772 0.9714 0.0
C1967 C 0.31447 0.23413 0.98862 0.0
H1968 H 0.35845 0.30787 0.03011 0.0
H1969 H 0.34309 0.30561 0.94849 0.0
H1970 H 0.34669 0.25807 0.03366 0.0
H1971 H 0.37165 0.27611 0.03177 0.0
H1972 H 0.35554 0.28029 0.05154 0.0
H1973 H 0.33767 0.2806 0.9204 0.0
H1974 H 0.35311 0.27123 0.92812 0.0
H1975 H 0.32803 0.25763 0.93615 0.0
H1976 H 0.38167 0.24479 0.94972 0.0
H1977 H 0.3209 0.20886 0.96211 0.0
H1978 H 0.38829 0.28437 0.99073 0.0
H1979 H 0.38573 0.28652 0.956 0.0
H1980 H 0.3994 0.27599 0.96745 0.0
H1981 H 0.31635 0.24224 0.00718 0.0
H1982 H 0.30412 0.21871 0.99225 0.0
H1983 H 0.30814 0.23931 0.97369 0.0
C1984 C 0.70347 0.06753 0.9727 0.0
C1985 C 0.69899 0.05652 -0.00434 0.0
C1986 C 0.72252 0.07825 0.96357 0.0
C1987 C 0.73756 0.0786 0.97844 0.0
C1988 C 0.73314 0.06797 0.00222 0.0
C1989 C 0.71379 0.05668 0.01027 0.0
C1990 C 0.72645 0.08885 0.93767 0.0
C1991 C 0.74882 0.06862 0.01915 0.0
C1992 C 0.78035 0.09052 0.93498 0.0
C1993 C 0.79011 0.11061 0.93524 0.0
C1994 C 0.76395 0.07971 0.95064 0.0
C1995 C 0.75762 0.08922 0.96784 0.0
C1996 C 0.76904 0.10935 0.97096 0.0
C1997 C 0.78509 0.1199 0.95433 0.0
C1998 C 0.75217 0.05834 0.94622 0.0
C1999 C 0.76331 0.11995 0.99003 0.0
H2000 H 0.69195 0.06735 0.96148 0.0
H2001 H 0.71025 0.04833 0.02828 0.0
H2002 H 0.7361 0.10443 0.94093 0.0
H2003 H 0.73389 0.08407 0.9238 0.0
H2004 H 0.71305 0.08657 0.92814 0.0
H2005 H 0.74311 0.0606 0.03794 0.0
H2006 H 0.75639 0.06247 0.00823 0.0
H2007 H 0.75969 0.0837 0.02385 0.0
H2008 H 0.78448 0.08328 0.92058 0.0
H2009 H 0.79265 0.1354 0.95479 0.0
H2010 H 0.73913 0.05495 0.93468 0.0
H2011 H 0.74726 0.05056 0.96524 0.0
H2012 H 0.76035 0.05289 0.93514 0.0
H2013 H 0.75175 0.12171 0.98114 0.0
H2014 H 0.77565 0.1344 -0.00534 0.0
H2015 H 0.75762 0.11181 0.00871 0.0
C2016 C 0.63515 0.93392 0.01554 0.0
C2017 C 0.64454 0.95033 0.03153 0.0
C2018 C 0.63577 0.91728 0.02154 0.0
C2019 C 0.6458 0.91695 0.04425 0.0
C2020 C 0.6556 0.93361 0.06014 0.0
C2021 C 0.65493 0.95006 0.05351 0.0
C2022 C 0.62537 0.89993 0.00393 0.0
C2023 C 0.66639 0.93391 0.08464 0.0
C2024 C 0.63408 0.87302 0.08434 0.0
C2025 C 0.65052 0.87168 0.07987 0.0
C2026 C 0.63136 0.8866 0.07092 0.0
C2027 C 0.64545 0.8991 0.05254 0.0
C2028 C 0.66095 0.89628 0.04582 0.0
C2029 C 0.66337 0.88264 0.05973 0.0
C2030 C 0.6146 0.88899 0.07874 0.0
C2031 C 0.67611 0.90901 0.02602 0.0
H2032 H 0.62714 0.934 -0.00154 0.0
H2033 H 0.66222 0.96263 0.066 0.0
H2034 H 0.63517 0.89468 -0.00196 0.0
H2035 H 0.61316 0.88819 0.01491 0.0
H2036 H 0.61968 0.903 0.98581 0.0
H2037 H 0.67353 0.94809 0.0946 0.0
H2038 H 0.65632 0.92299 0.0989 0.0
H2039 H 0.67752 0.93023 0.07948 0.0
H2040 H 0.62433 0.86477 0.10026 0.0
H2041 H 0.67627 0.88185 0.0566 0.0
H2042 H 0.60787 0.8912 0.06109 0.0
H2043 H 0.61986 0.90186 0.09147 0.0
H2044 H 0.60343 0.87642 0.08988 0.0
H2045 H 0.66946 0.91169 0.00866 0.0
H2046 H 0.68478 0.90268 0.01913 0.0
H2047 H 0.68597 0.92305 0.03534 0.0
C2048 C 0.05196 0.71264 0.00202 0.0
C2049 C 0.05171 0.69781 0.01648 0.0
C2050 C 0.06536 0.7319 0.00782 0.0
C2051 C 0.07792 0.73632 0.0296 0.0
C2052 C 0.07793 0.72126 0.04381 0.0
C2053 C 0.06512 0.7022 0.03662 0.0
C2054 C 0.06544 0.74736 0.9912 0.0
C2055 C 0.09053 0.72518 0.06776 0.0
C2056 C 0.1205 0.78354 0.05179 0.0
C2057 C 0.11185 0.78854 0.07193 0.0
C2058 C 0.10925 0.76762 0.03543 0.0
C2059 C 0.08915 0.75623 0.0401 0.0
C2060 C 0.08025 0.76255 0.05847 0.0
C2061 C 0.09169 0.77889 0.07366 0.0
C2062 C 0.11906 0.76214 0.01464 0.0
C2063 C 0.05892 0.75093 0.06429 0.0
H2064 H 0.04166 0.70918 0.98622 0.0
H2065 H 0.0648 0.69065 0.04783 0.0
H2066 H 0.05514 0.75122 -0.00033 0.0
H2067 H 0.07991 0.76045 0.99054 0.0
H2068 H 0.06079 0.74227 0.97067 0.0
H2069 H 0.08877 0.71186 0.0766 0.0
H2070 H 0.10588 0.73463 0.06237 0.0
H2071 H 0.08692 0.73275 0.08303 0.0
H2072 H 0.13607 0.79109 0.05013 0.0
H2073 H 0.08497 0.78305 0.08885 0.0
H2074 H 0.11 0.75659 -0.00332 0.0
H2075 H 0.12131 0.75063 0.02236 0.0
H2076 H 0.13333 0.77449 0.00907 0.0
H2077 H 0.05055 0.74811 0.04584 0.0
H2078 H 0.05418 0.75822 0.07849 0.0
H2079 H 0.05533 0.73688 0.07274 0.0
C2080 C 0.29651 0.35821 0.02029 0.0
C2081 C 0.30517 0.37157 -0.00015 0.0
C2082 C 0.27873 0.35414 0.031 0.0
C2083 C 0.26922 0.36337 0.02066 0.0
C2084 C 0.27723 0.3758 -0.00123 0.0
C2085 C 0.29523 0.37992 0.9888 0.0
C2086 C 0.27075 0.34089 0.05452 0.0
C2087 C 0.26729 0.38551 0.98675 0.0
C2088 C 0.21864 0.34291 0.04825 0.0
C2089 C 0.22231 0.3548 0.07022 0.0
C2090 C 0.23351 0.34639 0.0304 0.0
C2091 C 0.25238 0.36188 0.03509 0.0
C2092 C 0.25564 0.37481 0.05602 0.0
C2093 C 0.24051 0.37114 0.07325 0.0
C2094 C 0.22937 0.3326 0.00788 0.0
C2095 C 0.27549 0.3915 0.06182 0.0
H2096 H 0.3041 0.35168 0.02887 0.0
H2097 H 0.30171 0.39005 0.9727 0.0
H2098 H 0.27091 0.34913 0.07219 0.0
H2099 H 0.25557 0.32965 0.05095 0.0
H2100 H 0.27917 0.33385 0.059 0.0
H2101 H 0.27362 0.39206 0.96729 0.0
H2102 H 0.2517 0.37516 0.98417 0.0
H2103 H 0.26866 0.39696 0.00021 0.0
H2104 H 0.20457 0.33017 0.04614 0.0
H2105 H 0.24327 0.38021 0.09043 0.0
H2106 H 0.23457 0.32271 0.01305 0.0
H2107 H 0.23704 0.34035 0.98965 0.0
H2108 H 0.2137 0.32392 0.00369 0.0
H2109 H 0.28489 0.38606 0.06868 0.0
H2110 H 0.27523 0.40112 0.07731 0.0
H2111 H 0.28212 0.40002 0.04368 0.0
C2112 C 0.73701 0.69317 0.33364 0.0
C2113 C 0.7216 0.68569 0.35173 0.0
C2114 C 0.7536 0.69198 0.33845 0.0
C2115 C 0.75495 0.68344 0.36212 0.0
C2116 C 0.73919 0.6754 0.38002 0.0
C2117 C 0.72273 0.6765 0.37451 0.0
C2118 C 0.76988 0.70037 0.31862 0.0
C2119 C 0.73995 0.66624 0.40563 0.0
C2120 C 0.78828 0.66514 0.37993 0.0
C2121 C 0.80024 0.67902 0.3983 0.0
C2122 C 0.77477 0.66741 0.36527 0.0
C2123 C 0.77306 0.68378 0.36952 0.0
C2124 C 0.78674 0.69882 0.38567 0.0
C2125 C 0.80022 0.69627 0.3998 0.0
C2126 C 0.76088 0.65126 0.34768 0.0
C2127 C 0.78558 0.71656 0.39084 0.0
H2128 H 0.73626 0.70025 0.31594 0.0
H2129 H 0.71095 0.67066 0.38863 0.0
H2130 H 0.78206 0.7138 0.32664 0.0
H2131 H 0.77524 0.69038 0.3149 0.0
H2132 H 0.76547 0.70368 0.29953 0.0
H2133 H 0.72636 0.66037 0.41718 0.0
H2134 H 0.74281 0.65445 0.40154 0.0
H2135 H 0.75193 0.67695 0.41803 0.0
H2136 H 0.78808 0.65167 0.37903 0.0
H2137 H 0.80928 0.70687 0.41433 0.0
H2138 H 0.75767 0.65686 0.32963 0.0
H2139 H 0.74712 0.64241 0.35848 0.0
H2140 H 0.76661 0.64189 0.34176 0.0
H2141 H 0.7829 0.72204 0.37229 0.0
H2142 H 0.79896 0.72812 0.40003 0.0
H2143 H 0.77336 0.71294 0.40447 0.0
C2144 C 0.29645 0.03719 0.37625 0.0
C2145 C 0.30405 0.03325 0.35383 0.0
C2146 C 0.30472 0.05586 0.38618 0.0
C2147 C 0.32049 0.07109 0.37265 0.0
C2148 C 0.32788 0.06723 0.34947 0.0
C2149 C 0.31978 0.04821 0.3406 0.0
C2150 C 0.29675 0.05919 0.41145 0.0
C2151 C 0.34406 0.08316 0.33389 0.0
C2152 C 0.32481 0.11701 0.39743 0.0
C2153 C 0.33779 0.12135 0.41826 0.0
C2154 C 0.32073 0.10194 0.3799 0.0
C2155 C 0.32949 0.09076 0.38385 0.0
C2156 C 0.34435 0.09668 0.40271 0.0
C2157 C 0.34862 0.1122 0.41929 0.0
C2158 C 0.30553 0.0967 0.35907 0.0
C2159 C 0.35397 0.08516 0.40793 0.0
H2160 H 0.28429 0.02553 0.38641 0.0
H2161 H 0.32543 0.04508 0.323 0.0
H2162 H 0.3084 0.06638 0.42627 0.0
H2163 H 0.29094 0.06876 0.40759 0.0
H2164 H 0.28507 0.04566 0.42016 0.0
H2165 H 0.3482 0.07775 0.31634 0.0
H2166 H 0.33963 0.09337 0.32715 0.0
H2167 H 0.35692 0.09131 0.34654 0.0
H2168 H 0.31652 0.12414 0.39629 0.0
H2169 H 0.35906 0.11589 0.43495 0.0
H2170 H 0.29155 0.08488 0.36648 0.0
H2171 H 0.30921 0.09168 0.34074 0.0
H2172 H 0.30368 0.10903 0.35421 0.0
H2173 H 0.34384 0.07202 0.41901 0.0
H2174 H 0.36727 0.09332 0.41985 0.0
H2175 H 0.35769 0.08062 0.38923 0.0
C2176 C 0.96089 0.28359 0.34191 0.0
C2177 C 0.97453 0.28271 0.35796 0.0
C2178 C 0.94104 0.2713 0.34638 0.0
C2179 C 0.93486 0.25844 0.368 0.0
C2180 C 0.94873 0.25782 0.38447 0.0
C2181 C 0.96838 0.26968 0.37887 0.0
C2182 C 0.92674 0.2718 0.32776 0.0
C2183 C 0.94285 0.2448 0.40829 0.0
C2184 C 0.88847 0.24003 0.40573 0.0
C2185 C 0.88037 0.22025 0.40219 0.0
C2186 C 0.90544 0.25308 0.39254 0.0
C2187 C 0.91404 0.24614 0.37464 0.0
C2188 C 0.90411 0.22645 0.36781 0.0
C2189 C 0.88742 0.21361 0.38197 0.0
C2190 C 0.91549 0.27386 0.40078 0.0
C2191 C 0.91229 0.21861 0.34784 0.0
H2192 H 0.96576 0.29352 0.32545 0.0
H2193 H 0.97902 0.26906 0.3912 0.0
H2194 H 0.91817 0.25765 0.31804 0.0
H2195 H 0.91648 0.27457 0.33881 0.0
H2196 H 0.93388 0.28292 0.31224 0.0
H2197 H 0.95545 0.24674 0.41973 0.0
H2198 H 0.93356 0.2476 0.42161 0.0
H2199 H 0.93434 0.22964 0.40193 0.0
H2200 H 0.88287 0.24514 0.42128 0.0
H2201 H 0.88114 0.19832 0.37911 0.0
H2202 H 0.92197 0.28348 0.38354 0.0
H2203 H 0.92733 0.27674 0.41457 0.0
H2204 H 0.90552 0.27749 0.41099 0.0
H2205 H 0.91906 0.22865 0.33105 0.0
H2206 H 0.90101 0.20449 0.34009 0.0
H2207 H 0.92358 0.21669 0.35734 0.0
C2208 C 0.01901 0.38895 0.30258 0.0
C2209 C 0.0246 0.38747 0.32823 0.0
C2210 C 0.01688 0.40441 0.29523 0.0
C2211 C 0.02008 0.41866 0.31414 0.0
C2212 C 0.02498 0.41688 0.34039 0.0
C2213 C 0.02739 0.40138 0.34708 0.0
C2214 C 0.01185 0.40581 0.2669 0.0
C2215 C 0.02809 0.43155 0.3612 0.0
C2216 C 0.03478 0.4647 0.27834 0.0
C2217 C 0.0168 0.4628 0.27356 0.0
C2218 C 0.03641 0.45142 0.2941 0.0
C2219 C 0.01961 0.43594 0.30536 0.0
C2220 C 0.00178 0.43534 0.30315 0.0
C2221 C 0.00054 0.44875 0.28699 0.0
C2222 C 0.05571 0.45266 0.29581 0.0
C2223 C 0.98363 0.41937 0.31541 0.0
H2224 H 0.01683 0.37827 0.28789 0.0
H2225 H 0.03158 0.40023 0.367 0.0
H2226 H 0.99858 0.40671 0.2662 0.0
H2227 H 0.02361 0.41905 0.25771 0.0
H2228 H 0.00954 0.39337 0.25478 0.0
H2229 H 0.02919 0.42677 0.38133 0.0
H2230 H 0.04158 0.44517 0.35686 0.0
H2231 H 0.01615 0.43461 0.36098 0.0
H2232 H 0.04729 0.4755 0.26766 0.0
H2233 H 0.98661 0.44721 0.28301 0.0
H2234 H 0.05578 0.44179 0.28247 0.0
H2235 H 0.05841 0.44956 0.31614 0.0
H2236 H 0.0677 0.46699 0.28985 0.0
H2237 H 0.97808 0.40637 0.3029 0.0
H2238 H 0.97224 0.4232 0.31706 0.0
H2239 H 0.98652 0.41574 0.33534 0.0
C2240 C 0.59327 0.62845 0.35153 0.0
C2241 C 0.61103 0.63879 0.3383 0.0
C2242 C 0.57852 0.61084 0.3417 0.0
C2243 C 0.5814 0.60359 0.31772 0.0
C2244 C 0.59957 0.61358 0.30485 0.0
C2245 C 0.61422 0.63094 0.31545 0.0
C2246 C 0.55959 0.60041 0.3564 0.0
C2247 C 0.60321 0.60648 0.27907 0.0
C2248 C 0.54957 0.5533 0.29045 0.0
C2249 C 0.53926 0.55667 0.27115 0.0
C2250 C 0.56231 0.56811 0.30743 0.0
C2251 C 0.56501 0.58671 0.30452 0.0
C2252 C 0.55339 0.58966 0.28646 0.0
C2253 C 0.54059 0.57457 0.27012 0.0
C2254 C 0.57401 0.56421 0.32691 0.0
C2255 C 0.55578 0.60921 0.28252 0.0
H2256 H 0.59075 0.63431 0.36937 0.0
H2257 H 0.62786 0.63884 0.30508 0.0
H2258 H 0.54838 0.60147 0.34519 0.0
H2259 H 0.55477 0.58498 0.35825 0.0
H2260 H 0.56055 0.60642 0.37648 0.0
H2261 H 0.61836 0.61537 0.27223 0.0
H2262 H 0.59983 0.59147 0.28117 0.0
H2263 H 0.5936 0.60664 0.26357 0.0
H2264 H 0.54881 0.53956 0.2909 0.0
H2265 H 0.53285 0.57722 0.25482 0.0
H2266 H 0.57507 0.57137 0.34608 0.0
H2267 H 0.58885 0.57007 0.31911 0.0
H2268 H 0.56772 0.54863 0.33039 0.0
H2269 H 0.55537 0.61558 0.30177 0.0
H2270 H 0.54444 0.60872 0.26957 0.0
H2271 H 0.57003 0.61888 0.27333 0.0
C2272 C 0.36749 0.98992 0.29341 0.0
C2273 C 0.35848 0.9834 0.31803 0.0
C2274 C 0.38514 0.99114 0.28772 0.0
C2275 C 0.39432 0.98617 0.30736 0.0
C2276 C 0.38576 0.98048 0.33273 0.0
C2277 C 0.36778 0.97888 0.33765 0.0
C2278 C 0.39354 0.99699 0.26024 0.0
C2279 C 0.39533 0.97559 0.35441 0.0
C2280 C 0.42519 0.96915 0.27491 0.0
C2281 C 0.44264 0.98642 0.27186 0.0
C2282 C 0.40972 0.96843 0.28874 0.0
C2283 C 0.41189 0.98539 0.30013 0.0
C2284 C 0.43026 0.00231 0.29993 0.0
C2285 C 0.44545 0.00269 0.28551 0.0
C2286 C 0.39046 0.95008 0.28822 0.0
C2287 C 0.43337 0.02052 0.31262 0.0
H2288 H 0.36039 0.9934 0.27815 0.0
H2289 H 0.36096 0.97399 0.35682 0.0
H2290 H 0.40834 0.00954 0.26126 0.0
H2291 H 0.39453 0.98514 0.25078 0.0
H2292 H 0.38476 0.00069 0.24739 0.0
H2293 H 0.38851 0.97445 0.37397 0.0
H2294 H 0.39432 0.96171 0.34994 0.0
H2295 H 0.41085 0.98658 0.35562 0.0
H2296 H 0.42303 0.95661 0.26416 0.0
H2297 H 0.45889 0.0161 0.28297 0.0
H2298 H 0.38083 0.95163 0.27411 0.0
H2299 H 0.38345 0.947 0.30793 0.0
H2300 H 0.39179 0.93765 0.28196 0.0
H2301 H 0.4277 0.02742 0.29945 0.0
H2302 H 0.4489 0.03082 0.31604 0.0
H2303 H 0.42554 0.01747 0.33174 0.0
C2304 C 0.60828 0.97936 0.31324 0.0
C2305 C 0.60327 0.96453 0.33138 0.0
C2306 C 0.59436 0.98339 0.30367 0.0
C2307 C 0.57508 0.97259 0.31291 0.0
C2308 C 0.57023 0.95836 0.33238 0.0
C2309 C 0.58432 0.95436 0.34115 0.0
C2310 C 0.60008 0.99855 0.28269 0.0
C2311 C 0.54999 0.94685 0.34319 0.0
C2312 C 0.54371 0.99332 0.29393 0.0
C2313 C 0.53548 0.98334 0.27048 0.0
C2314 C 0.55571 0.98914 0.3091 0.0
C2315 C 0.55974 0.97492 0.30022 0.0
C2316 C 0.55026 0.9639 0.27756 0.0
C2317 C 0.53816 0.9682 0.26307 0.0
C2318 C 0.56515 0.00088 0.3335 0.0
C2319 C 0.55414 0.94866 0.26728 0.0
H2320 H 0.62288 0.98724 0.30561 0.0
H2321 H 0.58039 0.94304 0.35548 0.0
H2322 H 0.59239 0.99182 0.26404 0.0
H2323 H 0.59582 0.00904 0.28879 0.0
H2324 H 0.61582 0.00637 0.27865 0.0
H2325 H 0.54912 0.93806 0.36051 0.0
H2326 H 0.54455 0.95645 0.3491 0.0
H2327 H 0.54028 0.93715 0.32761 0.0
H2328 H 0.5419 0.00527 0.29935 0.0
H2329 H 0.53201 0.96073 0.24465 0.0
H2330 H 0.58051 0.0113 0.32916 0.0
H2331 H 0.56473 0.9916 0.34988 0.0
H2332 H 0.55812 0.00894 0.3402 0.0
H2333 H 0.56929 0.95545 0.2603 0.0
H2334 H 0.54451 0.94043 0.25063 0.0
H2335 H 0.55226 0.93852 0.28326 0.0
C2336 C 0.04035 0.633 0.34022 0.0
C2337 C 0.03079 0.64051 0.32592 0.0
C2338 C 0.0392 0.61577 0.33253 0.0
C2339 C 0.02835 0.60595 0.30996 0.0
C2340 C 0.01818 0.61316 0.29599 0.0
C2341 C 0.0195 0.63031 0.30418 0.0
C2342 C 0.05008 0.60843 0.34801 0.0
C2343 C 0.00641 0.60311 0.27178 0.0
C2344 C 0.03862 0.57545 0.26417 0.0
C2345 C 0.02243 0.55739 0.26863 0.0
C2346 C 0.04186 0.59125 0.27945 0.0
C2347 C 0.02847 0.58884 0.29949 0.0
C2348 C 0.01326 0.57022 0.30588 0.0
C2349 C 0.01036 0.55464 0.29022 0.0
C2350 C 0.05834 0.61081 0.27207 0.0
C2351 C 0.99884 0.567 0.32732 0.0
H2352 H 0.04905 0.64078 0.35712 0.0
H2353 H 0.01202 0.63597 0.2931 0.0
H2354 H 0.0406 0.59303 0.35269 0.0
H2355 H 0.06222 0.60977 0.3359 0.0
H2356 H 0.05597 0.61646 0.36675 0.0
H2357 H 0.99877 0.61019 0.26381 0.0
H2358 H 0.01594 0.60287 0.25605 0.0
H2359 H 0.9956 0.58803 0.27656 0.0
H2360 H 0.04778 0.57751 0.24722 0.0
H2361 H 0.9977 0.54066 0.29336 0.0
H2362 H 0.06575 0.61919 0.28998 0.0
H2363 H 0.05265 0.61878 0.26127 0.0
H2364 H 0.06907 0.6099 0.25919 0.0
H2365 H 0.00609 0.57593 0.34492 0.0
H2366 H 0.9905 0.55174 0.33341 0.0
H2367 H 0.98859 0.57121 0.31991 0.0
C2368 C 0.37129 0.38457 0.3028 0.0
C2369 C 0.3639 0.387 0.32668 0.0
C2370 C 0.38907 0.39911 0.29287 0.0
C2371 C 0.39997 0.41624 0.30755 0.0
C2372 C 0.39325 0.41806 0.33267 0.0
C2373 C 0.37515 0.40357 0.34172 0.0
C2374 C 0.39553 0.39668 0.26579 0.0
C2375 C 0.40468 0.43574 0.34937 0.0
C2376 C 0.45011 0.44956 0.27924 0.0
C2377 C 0.44644 0.46138 0.26318 0.0
C2378 C 0.43545 0.43553 0.2954 0.0
C2379 C 0.41674 0.43312 0.29489 0.0
C2380 C 0.4135 0.446 0.28008 0.0
C2381 C 0.42844 0.46007 0.26468 0.0
C2382 C 0.43967 0.42252 0.31162 0.0
C2383 C 0.39382 0.44398 0.27869 0.0
H2384 H 0.36263 0.3718 0.29111 0.0
H2385 H 0.36961 0.40539 0.36041 0.0
H2386 H 0.39526 0.40712 0.25193 0.0
H2387 H 0.41056 0.39967 0.26649 0.0
H2388 H 0.38619 0.38204 0.25776 0.0
H2389 H 0.39927 0.43354 0.37005 0.0
H2390 H 0.42012 0.44 0.34958 0.0
H2391 H 0.40372 0.44781 0.34082 0.0
H2392 H 0.46397 0.45044 0.27787 0.0
H2393 H 0.42562 0.46919 0.25212 0.0
H2394 H 0.43362 0.40845 0.30161 0.0
H2395 H 0.43282 0.41999 0.33142 0.0
H2396 H 0.4554 0.42853 0.31411 0.0
H2397 H 0.38358 0.43017 0.26912 0.0
H2398 H 0.39397 0.45574 0.2673 0.0
H2399 H 0.38826 0.44381 0.29884 0.0
C2400 C 0.3272 0.27976 0.37199 0.0
C2401 C 0.31675 0.27886 0.34941 0.0
C2402 C 0.32797 0.26377 0.3807 0.0
C2403 C 0.31833 0.24641 0.36625 0.0
C2404 C 0.30884 0.24575 0.34243 0.0
C2405 C 0.30798 0.26194 0.33442 0.0
C2406 C 0.33819 0.26519 0.40633 0.0
C2407 C 0.29884 0.22772 0.32606 0.0
C2408 C 0.33298 0.21216 0.39332 0.0
C2409 C 0.31914 0.20322 0.41328 0.0
C2410 C 0.33179 0.22482 0.37548 0.0
C2411 C 0.31659 0.22874 0.37809 0.0
C2412 C 0.30148 0.21802 0.3963 0.0
C2413 C 0.30291 0.20532 0.41358 0.0
C2414 C 0.34782 0.23542 0.35571 0.0
C2415 C 0.28497 0.22161 0.39985 0.0
H2416 H 0.33411 0.29277 0.38367 0.0
H2417 H 0.29997 0.26114 0.31684 0.0
H2418 H 0.32764 0.25538 0.42119 0.0
H2419 H 0.34899 0.26073 0.40325 0.0
H2420 H 0.34563 0.27993 0.4146 0.0
H2421 H 0.29601 0.23067 0.30565 0.0
H2422 H 0.30755 0.22065 0.32501 0.0
H2423 H 0.28485 0.21751 0.33539 0.0
H2424 H 0.34557 0.21061 0.39314 0.0
H2425 H 0.29221 0.19838 0.42906 0.0
H2426 H 0.35814 0.24985 0.36355 0.0
H2427 H 0.34213 0.23734 0.33676 0.0
H2428 H 0.3558 0.2278 0.35182 0.0
H2429 H 0.29027 0.23565 0.40972 0.0
H2430 H 0.2732 0.21039 0.41212 0.0
H2431 H 0.27897 0.22222 0.38046 0.0
C2432 C 0.7141 0.04104 0.37743 0.0
C2433 C 0.71298 0.03054 0.35475 0.0
C2434 C 0.73031 0.05907 0.38234 0.0
C2435 C 0.74578 0.06702 0.36394 0.0
C2436 C 0.74446 0.05683 0.3405 0.0
C2437 C 0.72814 0.03864 0.33628 0.0
C2438 C 0.73113 0.06936 0.40771 0.0
C2439 C 0.76046 0.06494 0.32023 0.0
C2440 C 0.77802 0.11979 0.3783 0.0
C2441 C 0.79095 0.11928 0.39617 0.0
C2442 C 0.76438 0.1031 0.36509 0.0
C2443 C 0.76355 0.08554 0.37033 0.0
C2444 C 0.77805 0.08551 0.38603 0.0
C2445 C 0.79163 0.10244 0.39872 0.0
C2446 C 0.74952 0.10391 0.34801 0.0
C2447 C 0.77779 0.06718 0.39218 0.0
H2448 H 0.7025 0.0349 0.39183 0.0
H2449 H 0.72737 0.03065 0.31865 0.0
H2450 H 0.74354 0.0715 0.41977 0.0
H2451 H 0.73333 0.08373 0.40326 0.0
H2452 H 0.7178 0.06137 0.41975 0.0
H2453 H 0.75636 0.05626 0.30183 0.0
H2454 H 0.76453 0.07984 0.31516 0.0
H2455 H 0.77341 0.06545 0.32855 0.0
H2456 H 0.77727 0.13273 0.37672 0.0
H2457 H 0.80141 0.10199 0.41296 0.0
H2458 H 0.736 0.09868 0.35951 0.0
H2459 H 0.74616 0.09456 0.33041 0.0
H2460 H 0.75443 0.11874 0.34136 0.0
H2461 H 0.7661 0.05872 0.40662 0.0
H2462 H 0.79163 0.06997 0.40083 0.0
H2463 H 0.77484 0.05832 0.37416 0.0
C2464 C 0.96506 0.67836 0.34619 0.0
C2465 C 0.97852 0.69233 0.3633 0.0
C2466 C 0.94517 0.67065 0.35024 0.0
C2467 C 0.93874 0.67664 0.3724 0.0
C2468 C 0.9524 0.69043 0.39004 0.0
C2469 C 0.97211 0.69837 0.38494 0.0
C2470 C 0.93114 0.65662 0.33043 0.0
C2471 C 0.94624 0.69679 0.41446 0.0
C2472 C 0.89215 0.67533 0.38608 0.0
C2473 C 0.88435 0.66108 0.4055 0.0
C2474 C 0.90877 0.67896 0.37202 0.0
C2475 C 0.91784 0.66836 0.37814 0.0
C2476 C 0.90836 0.65221 0.39491 0.0
C2477 C 0.89148 0.64857 0.40804 0.0
C2478 C 0.91789 0.69564 0.35316 0.0
C2479 C 0.91742 0.6405 0.40218 0.0
H2480 H 0.97012 0.67397 0.32917 0.0
H2481 H 0.98259 0.70918 0.39811 0.0
H2482 H 0.91945 0.64382 0.3405 0.0
H2483 H 0.92429 0.66346 0.31955 0.0
H2484 H 0.93828 0.65192 0.31588 0.0
H2485 H 0.95866 0.70678 0.42688 0.0
H2486 H 0.9383 0.70407 0.40867 0.0
H2487 H 0.93634 0.68418 0.42664 0.0
H2488 H 0.8866 0.68495 0.38394 0.0
H2489 H 0.88527 0.6374 0.42291 0.0
H2490 H 0.92451 0.69247 0.33606 0.0
H2491 H 0.92945 0.70836 0.36349 0.0
H2492 H 0.90721 0.69932 0.34576 0.0
H2493 H 0.92397 0.63772 0.38467 0.0
H2494 H 0.90679 0.62659 0.41122 0.0
H2495 H 0.92908 0.64862 0.41671 0.0
C2496 C 0.39001 0.01796 0.72254 0.0
C2497 C 0.38654 0.02472 0.69895 0.0
C2498 C 0.4068 0.01707 0.72596 0.0
C2499 C 0.42041 0.0227 0.70506 0.0
C2500 C 0.41673 0.02896 0.68084 0.0
C2501 C 0.39994 0.03013 0.67818 0.0
C2502 C 0.41018 0.01055 0.75231 0.0
C2503 C 0.43063 0.03468 0.65793 0.0
C2504 C 0.46877 0.03683 0.73425 0.0
C2505 C 0.46753 0.01897 0.73553 0.0
C2506 C 0.45447 0.0389 0.72159 0.0
C2507 C 0.43875 0.02275 0.7096 0.0
C2508 C 0.43909 0.00548 0.70741 0.0
C2509 C 0.45345 0.00374 0.72062 0.0
C2510 C 0.45483 0.05761 0.72448 0.0
C2511 C 0.423 0.98809 0.69404 0.0
H2512 H 0.37979 0.01383 0.73872 0.0
H2513 H 0.39732 0.03527 0.65984 0.0
H2514 H 0.41189 0.99792 0.74953 0.0
H2515 H 0.4237 0.02208 0.76121 0.0
H2516 H 0.3982 0.00669 0.76651 0.0
H2517 H 0.42454 0.0368 0.63948 0.0
H2518 H 0.44405 0.04823 0.66268 0.0
H2519 H 0.43464 0.02364 0.65434 0.0
H2520 H 0.47953 0.04855 0.74606 0.0
H2521 H 0.45234 0.98986 0.72181 0.0
H2522 H 0.4447 0.05623 0.74045 0.0
H2523 H 0.45011 0.06132 0.70603 0.0
H2524 H 0.46941 0.06955 0.72967 0.0
H2525 H 0.41051 0.98097 0.70773 0.0
H2526 H 0.42745 0.97761 0.6886 0.0
H2527 H 0.41817 0.99218 0.676 0.0
C2528 C 0.99253 0.37452 0.6714 0.0
C2529 C 0.97749 0.35984 0.68603 0.0
C2530 C 0.99958 0.39389 0.67783 0.0
C2531 C 0.99187 0.39854 0.69998 0.0
C2532 C 0.97689 0.38362 0.71501 0.0
C2533 C 0.96965 0.36451 0.7075 0.0
C2534 C 0.01495 0.40934 0.6607 0.0
C2535 C 0.96864 0.3878 0.73932 0.0
C2536 C 0.01834 0.44301 0.74169 0.0
C2537 C 0.00654 0.45097 0.73866 0.0
C2538 C 0.01494 0.4268 0.72728 0.0
C2539 C 0.99979 0.41878 0.70866 0.0
C2540 C 0.98983 0.42856 0.70268 0.0
C2541 C 0.99316 0.44448 0.71804 0.0
C2542 C 0.0258 0.41685 0.73471 0.0
C2543 C 0.97421 0.42103 0.68208 0.0
H2544 H 0.99836 0.37084 0.65451 0.0
H2545 H 0.95802 0.35312 0.71877 0.0
H2546 H 0.00945 0.41823 0.65216 0.0
H2547 H 0.02774 0.41899 0.67271 0.0
H2548 H 0.01954 0.40337 0.64431 0.0
H2549 H 0.95769 0.37454 0.74946 0.0
H2550 H 0.98033 0.39652 0.75354 0.0
H2551 H 0.96183 0.39622 0.73379 0.0
H2552 H 0.02882 0.44815 0.75753 0.0
H2553 H 0.98404 0.45061 0.71556 0.0
H2554 H 0.02981 0.41157 0.71697 0.0
H2555 H 0.01641 0.40425 0.74724 0.0
H2556 H 0.03909 0.42642 0.746 0.0
H2557 H 0.97823 0.41539 0.66471 0.0
H2558 H 0.97123 0.43231 0.67539 0.0
H2559 H 0.96075 0.40911 0.69059 0.0
C2560 C 0.63421 0.6186 0.67139 0.0
C2561 C 0.64859 0.61772 0.68566 0.0
C2562 C 0.61462 0.60614 0.67728 0.0
C2563 C 0.60951 0.59309 0.69853 0.0
C2564 C 0.62413 0.59251 0.71327 0.0
C2565 C 0.64347 0.60457 0.70627 0.0
C2566 C 0.59947 0.6066 0.66043 0.0
C2567 C 0.61939 0.57928 0.73667 0.0
C2568 C 0.56482 0.57339 0.74022 0.0
C2569 C 0.55707 0.55371 0.73606 0.0
C2570 C 0.58099 0.58685 0.72599 0.0
C2571 C 0.58905 0.58042 0.70649 0.0
C2572 C 0.57924 0.56081 0.69921 0.0
C2573 C 0.56339 0.54756 0.71437 0.0
C2574 C 0.59094 0.60754 0.73461 0.0
C2575 C 0.58681 0.55353 0.67757 0.0
H2576 H 0.63828 0.62861 0.65511 0.0
H2577 H 0.65468 0.60396 0.71722 0.0
H2578 H 0.5914 0.5929 0.64946 0.0
H2579 H 0.5889 0.608 0.67291 0.0
H2580 H 0.60581 0.61854 0.64594 0.0
H2581 H 0.6325 0.58134 0.74682 0.0
H2582 H 0.61048 0.58171 0.75121 0.0
H2583 H 0.61087 0.56416 0.73008 0.0
H2584 H 0.55968 0.57813 0.75677 0.0
H2585 H 0.55731 0.53236 0.71095 0.0
H2586 H 0.59644 0.61733 0.7174 0.0
H2587 H 0.60348 0.61064 0.74712 0.0
H2588 H 0.58121 0.61074 0.74632 0.0
H2589 H 0.59257 0.56378 0.66084 0.0
H2590 H 0.57544 0.53937 0.6701 0.0
H2591 H 0.59875 0.55193 0.68539 0.0
C2592 C 0.7066 0.73754 0.6432 0.0
C2593 C 0.69523 0.72278 0.66085 0.0
C2594 C 0.70161 0.75117 0.63622 0.0
C2595 C 0.68537 0.7506 0.64825 0.0
C2596 C 0.67472 0.73655 0.6677 0.0
C2597 C 0.67945 0.72242 0.6732 0.0
C2598 C 0.713 0.76538 0.61464 0.0
C2599 C 0.65793 0.73583 0.6821 0.0
C2600 C 0.68594 0.79565 0.62777 0.0
C2601 C 0.67463 0.78905 0.60495 0.0
C2602 C 0.68765 0.78274 0.6445 0.0
C2603 C 0.6784 0.7631 0.63753 0.0
C2604 C 0.66511 0.75622 0.6164 0.0
C2605 C 0.66308 0.76928 0.60075 0.0
C2606 C 0.70067 0.79035 0.66821 0.0
C2607 C 0.65479 0.73542 0.60826 0.0
H2608 H 0.71874 0.73771 0.63358 0.0
H2609 H 0.67077 0.71107 0.6871 0.0
H2610 H 0.70338 0.76358 0.59789 0.0
H2611 H 0.71912 0.78021 0.62212 0.0
H2612 H 0.725 0.76367 0.60704 0.0
H2613 H 0.65701 0.7307 0.70269 0.0
H2614 H 0.65897 0.75002 0.68269 0.0
H2615 H 0.64435 0.72553 0.67205 0.0
H2616 H 0.69468 0.81091 0.63132 0.0
H2617 H 0.65397 0.76417 0.58341 0.0
H2618 H 0.71499 0.79239 0.6631 0.0
H2619 H 0.6947 0.78006 0.68489 0.0
H2620 H 0.70271 0.80436 0.67475 0.0
H2621 H 0.66546 0.73149 0.60144 0.0
H2622 H 0.64435 0.7323 0.59206 0.0
H2623 H 0.64695 0.72615 0.62533 0.0
C2624 C 0.28075 0.95577 0.68746 0.0
C2625 C 0.27891 0.9705 0.6761 0.0
C2626 C 0.26973 0.93683 0.67819 0.0
C2627 C 0.25737 0.93282 0.65626 0.0
C2628 C 0.25561 0.94779 0.64476 0.0
C2629 C 0.26609 0.96634 0.65521 0.0
C2630 C 0.27141 0.92118 0.69171 0.0
C2631 C 0.2431 0.94437 0.62084 0.0
C2632 C 0.24584 0.89347 0.60692 0.0
C2633 C 0.22574 0.88226 0.60953 0.0
C2634 C 0.25667 0.90927 0.62337 0.0
C2635 C 0.24729 0.91348 0.64375 0.0
C2636 C 0.22747 0.90063 0.64881 0.0
C2637 C 0.21681 0.88525 0.63138 0.0
C2638 C 0.27767 0.92264 0.61686 0.0
C2639 C 0.21714 0.90405 0.67121 0.0
H2640 H 0.29054 0.95903 0.70387 0.0
H2641 H 0.26474 0.9778 0.64647 0.0
H2642 H 0.25695 0.90841 0.69492 0.0
H2643 H 0.2797 0.91671 0.67901 0.0
H2644 H 0.27884 0.92595 0.71105 0.0
H2645 H 0.24371 0.95765 0.61391 0.0
H2646 H 0.24776 0.93853 0.60438 0.0
H2647 H 0.22791 0.93362 0.62551 0.0
H2648 H 0.25288 0.89089 0.59042 0.0
H2649 H 0.20132 0.87656 0.63369 0.0
H2650 H 0.28659 0.92663 0.63493 0.0
H2651 H 0.27947 0.93602 0.6082 0.0
H2652 H 0.28326 0.91623 0.60246 0.0
H2653 H 0.22632 0.90916 0.6891 0.0
H2654 H 0.20337 0.89086 0.67624 0.0
H2655 H 0.21386 0.91526 0.6654 0.0
C2656 C 0.04159 0.31578 0.62954 0.0
C2657 C 0.03174 0.30744 0.65314 0.0
C2658 C 0.05939 0.31735 0.62388 0.0
C2659 C 0.06768 0.31055 0.64237 0.0
C2660 C 0.058 0.30241 0.66646 0.0
C2661 C 0.04008 0.30088 0.67153 0.0
C2662 C 0.0692 0.32609 0.59786 0.0
C2663 C 0.06647 0.29519 0.68671 0.0
C2664 C 0.1034 0.301 0.60736 0.0
C2665 C 0.12014 0.31895 0.60943 0.0
C2666 C 0.08642 0.29723 0.62041 0.0
C2667 C 0.08633 0.31182 0.63581 0.0
C2668 C 0.10385 0.32911 0.64045 0.0
C2669 C 0.12058 0.33253 0.627 0.0
C2670 C 0.06812 0.27856 0.615 0.0
C2671 C 0.10449 0.34492 0.65704 0.0
H2672 H 0.03525 0.32086 0.61523 0.0
H2673 H 0.03257 0.29445 0.68985 0.0
H2674 H 0.08369 0.3387 0.60146 0.0
H2675 H 0.07123 0.31558 0.58631 0.0
H2676 H 0.06086 0.33071 0.58569 0.0
H2677 H 0.05755 0.29001 0.70496 0.0
H2678 H 0.06781 0.28328 0.67822 0.0
H2679 H 0.08118 0.30672 0.69211 0.0
H2680 H 0.10304 0.29066 0.59334 0.0
H2681 H 0.13349 0.34653 0.62819 0.0
H2682 H 0.05943 0.281 0.60028 0.0
H2683 H 0.05929 0.2729 0.6332 0.0
H2684 H 0.07113 0.26756 0.60697 0.0
H2685 H 0.09874 0.35249 0.6454 0.0
H2686 H 0.11942 0.35554 0.6631 0.0
H2687 H 0.09539 0.33907 0.675 0.0
C2688 C 0.26431 0.30123 0.69069 0.0
C2689 C 0.2821 0.30767 0.67802 0.0
C2690 C 0.25049 0.305 0.68007 0.0
C2691 C 0.25432 0.31494 0.65579 0.0
C2692 C 0.27268 0.32242 0.64375 0.0
C2693 C 0.28643 0.31889 0.6552 0.0
C2694 C 0.23138 0.29735 0.69403 0.0
C2695 C 0.27731 0.33287 0.61767 0.0
C2696 C 0.21417 0.30046 0.60641 0.0
C2697 C 0.21246 0.31682 0.60543 0.0
C2698 C 0.22712 0.29937 0.6236 0.0
C2699 C 0.23838 0.31486 0.64082 0.0
C2700 C 0.23544 0.33069 0.64166 0.0
C2701 C 0.22257 0.33157 0.62374 0.0
C2702 C 0.22973 0.2822 0.62187 0.0
C2703 C 0.2467 0.3472 0.66033 0.0
H2704 H 0.26097 0.29277 0.70857 0.0
H2705 H 0.30014 0.32391 0.64531 0.0
H2706 H 0.22675 0.30812 0.69395 0.0
H2707 H 0.22022 0.28448 0.68349 0.0
H2708 H 0.23198 0.29329 0.7148 0.0
H2709 H 0.29271 0.33921 0.61207 0.0
H2710 H 0.26835 0.32276 0.60188 0.0
H2711 H 0.27381 0.34444 0.61849 0.0
H2712 H 0.20618 0.28895 0.59244 0.0
H2713 H 0.22129 0.34424 0.623 0.0
H2714 H 0.22809 0.27572 0.64167 0.0
H2715 H 0.24449 0.28679 0.6147 0.0
H2716 H 0.21924 0.27103 0.60826 0.0
H2717 H 0.24764 0.34194 0.68017 0.0
H2718 H 0.24013 0.35632 0.66236 0.0
H2719 H 0.2616 0.35621 0.65273 0.0
C2720 C 0.68357 0.96306 0.62734 0.0
C2721 C 0.69232 0.97419 0.64983 0.0
C2722 C 0.68358 0.946 0.6227 0.0
C2723 C 0.69233 0.93971 0.64123 0.0
C2724 C 0.70063 0.95053 0.66445 0.0
C2725 C 0.70068 0.96775 0.66837 0.0
C2726 C 0.67466 0.93498 0.59753 0.0
C2727 C 0.70979 0.94414 0.68482 0.0
C2728 C 0.67568 0.8879 0.62702 0.0
C2729 C 0.68967 0.89 0.60866 0.0
C2730 C 0.67744 0.90389 0.64054 0.0
C2731 C 0.69344 0.92228 0.63515 0.0
C2732 C 0.70872 0.92398 0.61919 0.0
C2733 C 0.70666 0.90774 0.60616 0.0
C2734 C 0.66106 0.90135 0.65796 0.0
C2735 C 0.72607 0.94325 0.61291 0.0
H2736 H 0.67711 0.96793 0.61291 0.0
H2737 H 0.7074 0.97624 0.68589 0.0
H2738 H 0.68574 0.93409 0.5855 0.0
H2739 H 0.66323 0.92013 0.60228 0.0
H2740 H 0.66826 0.9417 0.58534 0.0
H2741 H 0.71362 0.95293 0.70311 0.0
H2742 H 0.69994 0.92891 0.69009 0.0
H2743 H 0.72309 0.94525 0.67651 0.0
H2744 H 0.66242 0.87422 0.62865 0.0
H2745 H 0.71733 0.90936 0.59162 0.0
H2746 H 0.6517 0.90513 0.64661 0.0
H2747 H 0.6665 0.91095 0.67542 0.0
H2748 H 0.65212 0.88632 0.66485 0.0
H2749 H 0.72196 0.95074 0.59834 0.0
H2750 H 0.73803 0.94185 0.60434 0.0
H2751 H 0.73135 0.95233 0.63085 0.0
C2752 C 0.04475 0.74275 0.68043 0.0
C2753 C 0.0347 0.72485 0.66782 0.0
C2754 C 0.06339 0.75668 0.6723 0.0
C2755 C 0.07211 0.7528 0.65069 0.0
C2756 C 0.06225 0.73457 0.63832 0.0
C2757 C 0.04375 0.72077 0.64719 0.0
C2758 C 0.07355 0.77574 0.68637 0.0
C2759 C 0.07094 0.7299 0.61502 0.0
C2760 C 0.10828 0.79209 0.60567 0.0
C2761 C 0.12525 0.79215 0.61169 0.0
C2762 C 0.09107 0.78016 0.61934 0.0
C2763 C 0.0909 0.76811 0.63968 0.0
C2764 C 0.10842 0.76942 0.64738 0.0
C2765 C 0.1254 0.78131 0.63306 0.0
C2766 C 0.07277 0.77921 0.61034 0.0
C2767 C 0.10897 0.75714 0.66931 0.0
H2768 H 0.03795 0.74598 0.69657 0.0
H2769 H 0.0361 0.70702 0.63731 0.0
H2770 H 0.08829 0.77934 0.69207 0.0
H2771 H 0.07502 0.78717 0.67288 0.0
H2772 H 0.06566 0.77585 0.70438 0.0
H2773 H 0.06172 0.71491 0.60813 0.0
H2774 H 0.0731 0.73968 0.59836 0.0
H2775 H 0.08528 0.73214 0.6203 0.0
H2776 H 0.10811 0.80015 0.5887 0.0
H2777 H 0.13843 0.78104 0.6373 0.0
H2778 H 0.06468 0.7802 0.62748 0.0
H2779 H 0.06338 0.76523 0.60055 0.0
H2780 H 0.07564 0.79081 0.59616 0.0
H2781 H 0.10039 0.7571 0.68657 0.0
H2782 H 0.12393 0.76213 0.67583 0.0
H2783 H 0.1025 0.74216 0.66228 0.0
C2784 C 0.97744 0.59938 0.66762 0.0
C2785 C 0.98577 0.61555 0.68416 0.0
C2786 C 0.97867 0.58306 0.67367 0.0
C2787 C 0.9882 0.5828 0.69699 0.0
C2788 C 0.9971 0.5993 0.71328 0.0
C2789 C 0.99587 0.61543 0.70659 0.0
C2790 C 0.96928 0.56591 0.65557 0.0
C2791 C 0.00736 0.59972 0.73842 0.0
C2792 C 0.97628 0.53914 0.73782 0.0
C2793 C 0.99319 0.5384 0.73493 0.0
C2794 C 0.97352 0.55235 0.72347 0.0
C2795 C 0.98803 0.56509 0.70573 0.0
C2796 C 0.00408 0.56284 0.70055 0.0
C2797 C 0.00656 0.54958 0.7154 0.0
C2798 C 0.95617 0.55414 0.72972 0.0
C2799 C 0.01969 0.57579 0.68142 0.0
H2800 H 0.96964 0.59933 0.65021 0.0
H2801 H 0.00238 0.62781 0.71952 0.0
H2802 H 0.9793 0.56063 0.65123 0.0
H2803 H 0.95643 0.55411 0.66546 0.0
H2804 H 0.96468 0.56921 0.63662 0.0
H2805 H 0.01392 0.61381 0.74856 0.0
H2806 H 0.99706 0.58857 0.75226 0.0
H2807 H 0.01888 0.59644 0.73402 0.0
H2808 H 0.96611 0.53071 0.75326 0.0
H2809 H 0.0198 0.54926 0.71347 0.0
H2810 H 0.94984 0.55605 0.7114 0.0
H2811 H 0.96066 0.56698 0.74226 0.0
H2812 H 0.94487 0.54143 0.74049 0.0
H2813 H 0.01343 0.57832 0.66349 0.0
H2814 H 0.02879 0.56974 0.6754 0.0
H2815 H 0.02907 0.58987 0.69096 0.0
C2816 C 0.39604 0.37711 0.71108 0.0
C2817 C 0.39269 0.36555 0.68878 0.0
C2818 C 0.41336 0.3945 0.71407 0.0
C2819 C 0.42767 0.40073 0.69404 0.0
C2820 C 0.42406 0.38956 0.67089 0.0
C2821 C 0.40667 0.37198 0.66865 0.0
C2822 C 0.41658 0.40587 0.73923 0.0
C2823 C 0.43875 0.39581 0.6489 0.0
C2824 C 0.46291 0.45254 0.70798 0.0
C2825 C 0.47502 0.45059 0.72581 0.0
C2826 C 0.44873 0.43657 0.69413 0.0
C2827 C 0.44664 0.41837 0.69866 0.0
C2828 C 0.46079 0.41706 0.71347 0.0
C2829 C 0.47492 0.43328 0.72684 0.0
C2830 C 0.4344 0.43873 0.67769 0.0
C2831 C 0.45934 0.39804 0.71855 0.0
H2832 H 0.38534 0.37228 0.72672 0.0
H2833 H 0.40415 0.36314 0.6513 0.0
H2834 H 0.42905 0.40702 0.75008 0.0
H2835 H 0.41999 0.42062 0.73451 0.0
H2836 H 0.40383 0.39924 0.75257 0.0
H2837 H 0.43222 0.38803 0.6302 0.0
H2838 H 0.44564 0.41142 0.64525 0.0
H2839 H 0.45025 0.39285 0.65462 0.0
H2840 H 0.46292 0.46592 0.70733 0.0
H2841 H 0.48423 0.4318 0.74082 0.0
H2842 H 0.42132 0.43464 0.68973 0.0
H2843 H 0.42996 0.42919 0.66015 0.0
H2844 H 0.44037 0.45374 0.671 0.0
H2845 H 0.44796 0.39003 0.73358 0.0
H2846 H 0.4731 0.39985 0.72604 0.0
H2847 H 0.45526 0.38924 0.70032 0.0
C2848 C 0.63134 0.02928 0.70602 0.0
C2849 C 0.63572 0.02359 0.68218 0.0
C2850 C 0.61223 0.02133 0.71454 0.0
C2851 C 0.59707 0.00785 0.69828 0.0
C2852 C 0.60146 0.0021 0.67402 0.0
C2853 C 0.62085 0.00988 0.6664 0.0
C2854 C 0.60828 0.02749 0.74094 0.0
C2855 C 0.58575 0.98833 0.65574 0.0
C2856 C 0.55229 0.98016 0.73949 0.0
C2857 C 0.54532 0.9929 0.73957 0.0
C2858 C 0.56819 0.98371 0.72388 0.0
C2859 C 0.57682 -1e-05 0.70728 0.0
C2860 C 0.56781 0.011 0.70409 0.0
C2861 C 0.55222 0.00744 0.72052 0.0
C2862 C 0.57722 0.97153 0.72795 0.0
C2863 C 0.57601 0.02794 0.68564 0.0
H2864 H 0.64295 0.03995 0.71807 0.0
H2865 H 0.62436 0.00578 0.64771 0.0
H2866 H 0.6002 0.03506 0.73797 0.0
H2867 H 0.59924 0.01477 0.75344 0.0
H2868 H 0.62173 0.03717 0.75184 0.0
H2869 H 0.5915 0.98357 0.63924 0.0
H2870 H 0.57479 0.97555 0.66667 0.0
H2871 H 0.57831 0.99543 0.64724 0.0
H2872 H 0.54664 0.96859 0.75376 0.0
H2873 H 0.5468 0.01725 0.72024 0.0
H2874 H 0.58992 0.97928 0.74103 0.0
H2875 H 0.58231 0.96875 0.70898 0.0
H2876 H 0.56701 0.95761 0.73736 0.0
H2877 H 0.58856 0.04031 0.69512 0.0
H2878 H 0.56524 0.03218 0.68094 0.0
H2879 H 0.58108 0.02472 0.66695 0.0
loop_
_geom_bond_atom_site_label_1
_geom_bond_atom_site_label_2
_geom_bond_distance
_geom_bond_site_symmetry_2
_ccdc_geom_bond_type
C0 O1 1.306 1_556 S
C0 O3 1.160 . S
O1 C0 1.306 1_554 S
O1 Cd2 2.228 . S
Cd2 O1 2.228 . S
Cd2 O6 2.273 . S
Cd2 O10 2.277 1_554 S
O3 C0 1.160 . S
O3 Cd4 2.203 1_656 S
Cd4 O3 2.203 1_454 S
Cd4 O6 2.411 1_455 S
Cd4 O7 2.333 . S
Cd4 O8 2.352 . S
Cd4 O12 2.277 1_554 S
Cd4 O13 2.356 . S
C5 O10 1.209 1_455 S
C5 O12 1.226 . S
O6 Cd2 2.273 . S
O6 Cd4 2.411 1_655 S
O6 C9 1.295 1_655 S
O7 Cd4 2.333 . S
O7 C9 1.274 . S
O8 Cd4 2.352 . S
O8 C11 1.258 . S
C9 O6 1.295 1_455 S
C9 O7 1.274 . S
O10 Cd2 2.277 1_556 S
O10 C5 1.209 1_655 S
C11 O8 1.258 . S
C11 O13 1.282 . S
O12 Cd4 2.277 1_556 S
O12 C5 1.226 . S
O13 Cd4 2.356 . S
O13 C11 1.282 . S
C14 O15 1.306 . S
C14 O17 1.160 . S
O15 C14 1.306 . S
O15 Cd16 2.228 . S
Cd16 O15 2.228 . S
Cd16 O20 2.273 1_554 S
Cd16 O24 2.277 . S
O17 C14 1.160 . S
O17 Cd18 2.203 . S
Cd18 O17 2.203 . S
Cd18 O20 2.411 1_554 S
Cd18 O21 2.333 1_554 S
Cd18 O22 2.352 1_554 S
Cd18 O26 2.277 . S
Cd18 O27 2.356 . S
C19 O24 1.209 . S
C19 O26 1.226 . S
O20 Cd16 2.273 1_556 S
O20 Cd18 2.411 1_556 S
O20 C23 1.320 . S
O21 Cd18 2.333 1_556 S
O21 C23 1.214 . S
O22 Cd18 2.352 1_556 S
O22 C25 1.258 . S
C23 O20 1.320 . S
C23 O21 1.214 . S
O24 Cd16 2.277 . S
O24 C19 1.209 . S
C25 O22 1.258 . S
C25 O27 1.282 1_556 S
O26 Cd18 2.277 . S
O26 C19 1.226 . S
O27 Cd18 2.356 . S
O27 C25 1.282 1_554 S
C28 O29 1.306 . S
C28 O31 1.160 . S
O29 C28 1.306 . S
O29 Cd30 2.228 . S
Cd30 O29 2.228 . S
Cd30 O34 2.273 1_554 S
Cd30 O38 2.277 . S
O31 C28 1.160 . S
O31 Cd32 2.203 1_565 S
Cd32 O31 2.203 1_545 S
Cd32 O34 2.411 1_544 S
Cd32 O35 2.333 1_554 S
Cd32 O36 2.352 1_554 S
Cd32 O40 2.277 . S
Cd32 O41 2.356 . S
C33 O38 1.209 1_545 S
C33 O40 1.226 . S
O34 Cd30 2.273 1_556 S
O34 Cd32 2.411 1_566 S
O34 C37 1.320 1_565 S
O35 Cd32 2.333 1_556 S
O35 C37 1.214 . S
O36 Cd32 2.352 1_556 S
O36 C39 1.258 . S
C37 O34 1.320 1_545 S
C37 O35 1.214 . S
O38 Cd30 2.277 . S
O38 C33 1.209 1_565 S
C39 O36 1.258 . S
C39 O41 1.282 1_556 S
O40 Cd32 2.277 . S
O40 C33 1.226 . S
O41 Cd32 2.356 . S
O41 C39 1.282 1_554 S
C42 O43 1.306 1_556 S
C42 O45 1.160 . S
O43 C42 1.306 1_554 S
O43 Cd44 2.228 . S
Cd44 O43 2.228 . S
Cd44 O48 2.273 . S
Cd44 O52 2.277 1_554 S
O45 C42 1.160 . S
O45 Cd46 2.203 1_656 S
Cd46 O45 2.203 1_454 S
Cd46 O48 2.411 1_455 S
Cd46 O49 2.333 . S
Cd46 O50 2.352 . S
Cd46 O54 2.277 1_554 S
Cd46 O55 2.356 . S
C47 O52 1.209 1_455 S
C47 O54 1.226 . S
O48 Cd44 2.273 . S
O48 Cd46 2.411 1_655 S
O48 C51 1.274 1_655 S
O49 Cd46 2.333 . S
O49 C51 1.251 . S
O50 Cd46 2.352 . S
O50 C53 1.258 . S
C51 O48 1.274 1_455 S
C51 O49 1.251 . S
O52 Cd44 2.277 1_556 S
O52 C47 1.209 1_655 S
C53 O50 1.258 . S
C53 O55 1.282 . S
O54 Cd46 2.277 1_556 S
O54 C47 1.226 . S
O55 Cd46 2.356 . S
O55 C53 1.282 . S
C56 O57 1.306 . S
C56 O59 1.160 . S
O57 C56 1.306 . S
O57 Cd58 2.228 . S
Cd58 O57 2.228 . S
Cd58 O62 2.273 1_554 S
Cd58 O66 2.277 . S
O59 C56 1.160 . S
O59 Cd60 2.203 . S
Cd60 O59 2.203 . S
Cd60 O62 2.411 1_554 S
Cd60 O63 2.333 1_554 S
Cd60 O64 2.352 1_554 S
Cd60 O68 2.277 . S
Cd60 O69 2.356 . S
C61 O66 1.209 . S
C61 O68 1.226 . S
O62 Cd58 2.273 1_556 S
O62 Cd60 2.411 1_556 S
O62 C65 1.320 . S
O63 Cd60 2.333 1_556 S
O63 C65 1.214 . S
O64 Cd60 2.352 1_556 S
O64 C67 1.258 . S
C65 O62 1.320 . S
C65 O63 1.214 . S
O66 Cd58 2.277 . S
O66 C61 1.209 . S
C67 O64 1.258 . S
C67 O69 1.282 1_556 S
O68 Cd60 2.277 . S
O68 C61 1.226 . S
O69 Cd60 2.356 . S
O69 C67 1.282 1_554 S
C70 O71 1.306 1_556 S
C70 O73 1.160 . S
O71 C70 1.306 1_554 S
O71 Cd72 2.228 . S
Cd72 O71 2.228 . S
Cd72 O76 2.273 . S
Cd72 O80 2.277 1_554 S
O73 C70 1.160 . S
O73 Cd74 2.203 1_546 S
Cd74 O73 2.203 1_564 S
Cd74 O76 2.411 1_565 S
Cd74 O77 2.333 . S
Cd74 O78 2.352 . S
Cd74 O82 2.277 1_554 S
Cd74 O83 2.356 . S
C75 O80 1.175 1_565 S
C75 O82 1.274 . S
O76 Cd72 2.273 . S
O76 Cd74 2.411 1_545 S
O76 C79 1.343 . S
O77 Cd74 2.333 . S
O77 C79 1.167 1_565 S
O78 Cd74 2.352 . S
O78 C81 1.258 . S
C79 O76 1.343 . S
C79 O77 1.167 1_545 S
O80 Cd72 2.277 1_556 S
O80 C75 1.175 1_545 S
C81 O78 1.258 . S
C81 O83 1.282 . S
O82 Cd74 2.277 1_556 S
O82 C75 1.274 . S
O83 Cd74 2.356 . S
O83 C81 1.282 . S
C84 O85 1.306 . S
C84 O87 1.160 . S
O85 C84 1.306 . S
O85 Cd86 2.228 . S
Cd86 O85 2.228 . S
Cd86 O90 2.273 . S
Cd86 O94 2.277 . S
O87 C84 1.160 . S
O87 Cd88 2.203 . S
Cd88 O87 2.203 . S
Cd88 O90 2.411 . S
Cd88 O91 2.333 . S
Cd88 O92 2.352 . S
Cd88 O96 2.277 . S
Cd88 O97 2.356 . S
C89 O94 1.209 . S
C89 O96 1.226 . S
O90 Cd86 2.273 . S
O90 Cd88 2.411 . S
O90 C93 1.320 . S
O91 Cd88 2.333 . S
O91 C93 1.214 . S
O92 Cd88 2.352 . S
O92 C95 1.258 . S
C93 O90 1.320 . S
C93 O91 1.214 . S
O94 Cd86 2.277 . S
O94 C89 1.209 . S
C95 O92 1.258 . S
C95 O97 1.282 . S
O96 Cd88 2.277 . S
O96 C89 1.226 . S
O97 Cd88 2.356 . S
O97 C95 1.282 . S
C98 O99 1.306 . S
C98 O101 1.160 . S
O99 C98 1.306 . S
O99 Cd100 2.228 1_545 S
Cd100 O99 2.228 1_565 S
Cd100 O104 2.273 . S
Cd100 O108 2.277 . S
O101 C98 1.160 . S
O101 Cd102 2.203 1_545 S
Cd102 O101 2.203 1_565 S
Cd102 O104 2.411 . S
Cd102 O105 2.333 . S
Cd102 O106 2.362 . S
Cd102 O110 2.277 . S
Cd102 O111 2.356 . S
C103 O108 1.209 . S
C103 O110 1.226 . S
O104 Cd100 2.273 . S
O104 Cd102 2.411 . S
O104 C107 1.320 . S
O105 Cd102 2.333 . S
O105 C107 1.214 . S
O106 Cd102 2.362 . S
O106 C109 1.305 . S
C107 O104 1.320 . S
C107 O105 1.214 . S
O108 Cd100 2.277 . S
O108 C103 1.209 . S
C109 O106 1.305 . S
C109 O111 1.282 . S
O110 Cd102 2.277 . S
O110 C103 1.226 . S
O111 Cd102 2.356 . S
O111 C109 1.282 . S
C112 O113 1.306 . S
C112 O115 1.160 . S
O113 C112 1.306 . S
O113 Cd114 2.228 1_655 S
Cd114 O113 2.228 1_455 S
Cd114 O118 2.273 . S
Cd114 O122 2.277 . S
O115 C112 1.160 . S
O115 Cd116 2.203 1_655 S
Cd116 O115 2.203 1_455 S
Cd116 O118 2.411 . S
Cd116 O119 2.333 . S
Cd116 O120 2.352 . S
Cd116 O124 2.277 . S
Cd116 O125 2.356 . S
C117 O122 1.209 . S
C117 O124 1.226 . S
O118 Cd114 2.273 . S
O118 Cd116 2.411 . S
O118 C121 1.320 . S
O119 Cd116 2.333 . S
O119 C121 1.214 . S
O120 Cd116 2.352 . S
O120 C123 1.258 . S
C121 O118 1.320 . S
C121 O119 1.214 . S
O122 Cd114 2.277 . S
O122 C117 1.209 . S
C123 O120 1.258 . S
C123 O125 1.282 . S
O124 Cd116 2.277 . S
O124 C117 1.226 . S
O125 Cd116 2.356 . S
O125 C123 1.282 . S
C126 O127 1.306 . S
C126 O129 1.160 . S
O127 C126 1.306 . S
O127 Cd128 2.228 . S
Cd128 O127 2.228 . S
Cd128 O132 2.273 . S
Cd128 O136 2.277 . S
O129 C126 1.160 . S
O129 Cd130 2.203 . S
Cd130 O129 2.203 . S
Cd130 O132 2.411 . S
Cd130 O133 2.333 . S
Cd130 O134 2.352 1_565 S
Cd130 O138 2.277 . S
Cd130 O139 2.356 1_565 S
C131 O136 1.209 . S
C131 O138 1.226 . S
O132 Cd128 2.273 . S
O132 Cd130 2.411 . S
O132 C135 1.320 . S
O133 Cd130 2.333 . S
O133 C135 1.214 . S
O134 Cd130 2.352 1_545 S
O134 C137 1.258 . S
C135 O132 1.320 . S
C135 O133 1.214 . S
O136 Cd128 2.277 . S
O136 C131 1.209 . S
C137 O134 1.258 . S
C137 O139 1.282 . S
O138 Cd130 2.277 . S
O138 C131 1.226 . S
O139 Cd130 2.356 1_545 S
O139 C137 1.282 . S
C140 O141 1.306 . S
C140 O143 1.160 . S
O141 C140 1.306 . S
O141 Cd142 2.228 1_655 S
Cd142 O141 2.228 1_455 S
Cd142 O146 2.273 . S
Cd142 O150 2.277 . S
O143 C140 1.160 . S
O143 Cd144 2.203 1_655 S
Cd144 O143 2.203 1_455 S
Cd144 O146 2.411 . S
Cd144 O147 2.333 . S
Cd144 O148 2.352 . S
Cd144 O152 2.277 . S
Cd144 O153 2.356 . S
C145 O150 1.209 . S
C145 O152 1.226 . S
O146 Cd142 2.273 . S
O146 Cd144 2.411 . S
O146 C149 1.320 . S
O147 Cd144 2.333 . S
O147 C149 1.214 . S
O148 Cd144 2.352 . S
O148 C151 1.258 . S
C149 O146 1.320 . S
C149 O147 1.214 . S
O150 Cd142 2.277 . S
O150 C145 1.209 . S
C151 O148 1.258 . S
C151 O153 1.282 . S
O152 Cd144 2.277 . S
O152 C145 1.226 . S
O153 Cd144 2.356 . S
O153 C151 1.282 . S
C154 O155 1.306 . S
C154 O157 1.160 . S
O155 C154 1.306 . S
O155 Cd156 2.228 . S
Cd156 O155 2.228 . S
Cd156 O160 2.273 . S
Cd156 O164 2.277 . S
O157 C154 1.160 . S
O157 Cd158 2.203 . S
Cd158 O157 2.203 . S
Cd158 O160 2.411 . S
Cd158 O161 2.333 . S
Cd158 O162 2.352 . S
Cd158 O166 2.277 . S
Cd158 O167 2.356 . S
C159 O164 1.209 . S
C159 O166 1.226 . S
O160 Cd156 2.273 . S
O160 Cd158 2.411 . S
O160 C163 1.320 . S
O161 Cd158 2.333 . S
O161 C163 1.214 . S
O162 Cd158 2.352 . S
O162 C165 1.258 . S
C163 O160 1.320 . S
C163 O161 1.214 . S
O164 Cd156 2.277 . S
O164 C159 1.209 . S
C165 O162 1.258 . S
C165 O167 1.282 . S
O166 Cd158 2.277 . S
O166 C159 1.226 . S
O167 Cd158 2.356 . S
O167 C165 1.282 . S
C168 O169 1.306 . S
C168 O171 1.160 . S
O169 C168 1.306 . S
O169 Cd170 2.228 1_565 S
Cd170 O169 2.228 1_545 S
Cd170 O174 2.273 . S
Cd170 O178 2.277 . S
O171 C168 1.160 . S
O171 Cd172 2.203 1_565 S
Cd172 O171 2.203 1_545 S
Cd172 O174 2.411 . S
Cd172 O175 2.333 . S
Cd172 O176 2.352 . S
Cd172 O180 2.277 . S
Cd172 O181 2.356 . S
C173 O178 1.209 . S
C173 O180 1.226 . S
O174 Cd170 2.273 . S
O174 Cd172 2.411 . S
O174 C177 1.320 . S
O175 Cd172 2.333 . S
O175 C177 1.214 . S
O176 Cd172 2.352 . S
O176 C179 1.258 . S
C177 O174 1.320 . S
C177 O175 1.214 . S
O178 Cd170 2.277 . S
O178 C173 1.209 . S
C179 O176 1.258 . S
C179 O181 1.282 . S
O180 Cd172 2.277 . S
O180 C173 1.226 . S
O181 Cd172 2.356 . S
O181 C179 1.282 . S
C182 O183 1.306 . S
C182 O185 1.160 . S
O183 C182 1.306 . S
O183 Cd184 2.228 . S
Cd184 O183 2.228 . S
Cd184 O188 2.273 . S
Cd184 O192 2.277 . S
O185 C182 1.160 . S
O185 Cd186 2.203 . S
Cd186 O185 2.203 . S
Cd186 O188 2.411 . S
Cd186 O189 2.333 . S
Cd186 O190 2.352 1_655 S
Cd186 O194 2.277 . S
Cd186 O195 2.356 1_655 S
C187 O192 1.209 . S
C187 O194 1.226 . S
O188 Cd184 2.273 . S
O188 Cd186 2.411 . S
O188 C191 1.320 . S
O189 Cd186 2.333 . S
O189 C191 1.214 . S
O190 Cd186 2.352 1_455 S
O190 C193 1.258 . S
C191 O188 1.320 . S
C191 O189 1.214 . S
O192 Cd184 2.277 . S
O192 C187 1.209 . S
C193 O190 1.258 . S
C193 O195 1.282 . S
O194 Cd186 2.277 . S
O194 C187 1.226 . S
O195 Cd186 2.356 1_455 S
O195 C193 1.282 . S
C196 O197 1.306 . S
C196 O199 1.160 . S
O197 C196 1.306 . S
O197 Cd198 2.228 . S
Cd198 O197 2.228 . S
Cd198 O202 2.273 . S
Cd198 O206 2.277 . S
O199 C196 1.160 . S
O199 Cd200 2.203 . S
Cd200 O199 2.203 . S
Cd200 O202 2.411 . S
Cd200 O203 2.333 . S
Cd200 O204 2.352 . S
Cd200 O208 2.277 . S
Cd200 O209 2.356 . S
C201 O206 1.209 . S
C201 O208 1.226 . S
O202 Cd198 2.273 . S
O202 Cd200 2.411 . S
O202 C205 1.320 . S
O203 Cd200 2.333 . S
O203 C205 1.214 . S
O204 Cd200 2.352 . S
O204 C207 1.258 . S
C205 O202 1.320 . S
C205 O203 1.214 . S
O206 Cd198 2.277 . S
O206 C201 1.209 . S
C207 O204 1.258 . S
C207 O209 1.282 . S
O208 Cd200 2.277 . S
O208 C201 1.226 . S
O209 Cd200 2.356 . S
O209 C207 1.282 . S
C210 O211 1.306 . S
C210 O213 1.160 . S
O211 C210 1.306 . S
O211 Cd212 2.228 . S
Cd212 O211 2.228 . S
Cd212 O216 2.273 . S
Cd212 O220 2.277 . S
O213 C210 1.160 . S
O213 Cd214 2.203 . S
Cd214 O213 2.203 . S
Cd214 O216 2.411 . S
Cd214 O217 2.333 . S
Cd214 O218 2.352 . S
Cd214 O222 2.277 . S
Cd214 O223 2.356 . S
C215 O220 1.209 . S
C215 O222 1.226 . S
O216 Cd212 2.273 . S
O216 Cd214 2.411 . S
O216 C219 1.320 . S
O217 Cd214 2.333 . S
O217 C219 1.214 . S
O218 Cd214 2.352 . S
O218 C221 1.258 . S
C219 O216 1.320 . S
C219 O217 1.214 . S
O220 Cd212 2.277 . S
O220 C215 1.209 . S
C221 O218 1.258 . S
C221 O223 1.282 . S
O222 Cd214 2.277 . S
O222 C215 1.226 . S
O223 Cd214 2.356 . S
O223 C221 1.282 . S
C224 O225 1.306 . S
C224 O227 1.160 . S
O225 C224 1.306 . S
O225 Cd226 2.228 . S
Cd226 O225 2.228 . S
Cd226 O230 2.273 . S
Cd226 O234 2.277 . S
O227 C224 1.160 . S
O227 Cd228 2.203 . S
Cd228 O227 2.203 . S
Cd228 O230 2.411 . S
Cd228 O231 2.333 . S
Cd228 O232 2.352 1_545 S
Cd228 O236 2.277 . S
Cd228 O237 2.356 1_545 S
C229 O234 1.209 . S
C229 O236 1.226 . S
O230 Cd226 2.273 . S
O230 Cd228 2.411 . S
O230 C233 1.320 . S
O231 Cd228 2.333 . S
O231 C233 1.214 . S
O232 Cd228 2.352 1_565 S
O232 C235 1.258 . S
C233 O230 1.320 . S
C233 O231 1.214 . S
O234 Cd226 2.277 . S
O234 C229 1.209 . S
C235 O232 1.258 . S
C235 O237 1.282 . S
O236 Cd228 2.277 . S
O236 C229 1.226 . S
O237 Cd228 2.356 1_565 S
O237 C235 1.282 . S
C238 O239 1.306 . S
C238 O241 1.160 . S
O239 C238 1.306 . S
O239 Cd240 2.228 1_455 S
Cd240 O239 2.228 1_655 S
Cd240 O244 2.273 . S
Cd240 O248 2.277 . S
O241 C238 1.160 . S
O241 Cd242 2.203 1_455 S
Cd242 O241 2.203 1_655 S
Cd242 O244 2.411 . S
Cd242 O245 2.333 . S
Cd242 O246 2.392 . S
Cd242 O250 2.277 . S
Cd242 O251 2.356 . S
C243 O248 1.209 . S
C243 O250 1.226 . S
O244 Cd240 2.273 . S
O244 Cd242 2.411 . S
O244 C247 1.320 . S
O245 Cd242 2.333 . S
O245 C247 1.214 . S
O246 Cd242 2.392 . S
O246 C249 1.260 . S
C247 O244 1.320 . S
C247 O245 1.214 . S
O248 Cd240 2.277 . S
O248 C243 1.209 . S
C249 O246 1.260 . S
C249 O251 1.282 . S
O250 Cd242 2.277 . S
O250 C243 1.226 . S
O251 Cd242 2.356 . S
O251 C249 1.282 . S
H252 C258 0.930 . S
H253 C261 0.931 . S
H254 C263 0.931 . S
H255 C265 0.930 . S
H256 C267 0.930 . S
H257 C269 0.931 . S
C258 H252 0.930 . S
C258 C259 1.380 . S
C258 C260 1.394 . S
C259 C258 1.380 . S
C259 C263 1.382 . S
C260 C258 1.394 . S
C260 C261 1.400 . S
C261 H253 0.931 . S
C261 C260 1.400 . S
C261 C262 1.375 . S
C262 C261 1.375 . S
C262 C263 1.415 . S
C262 C264 1.501 . S
C263 H254 0.931 . S
C263 C259 1.382 . S
C263 C262 1.415 . S
C264 C262 1.501 . S
C264 C265 1.384 . S
C264 C269 1.408 . S
C265 H255 0.930 . S
C265 C264 1.384 . S
C265 C266 1.389 . S
C266 C265 1.389 . S
C266 C267 1.405 . S
C267 H256 0.930 . S
C267 C266 1.405 . S
C267 C268 1.364 . S
C268 C267 1.364 . S
C268 C269 1.400 . S
C269 H257 0.931 . S
C269 C264 1.408 . S
C269 C268 1.400 . S
H270 C276 0.930 . S
H271 C279 0.931 . S
H272 C281 0.931 . S
H273 C283 0.930 . S
H274 C285 0.930 . S
H275 C287 0.931 . S
C276 H270 0.930 . S
C276 C277 1.380 . S
C276 C278 1.394 . S
C277 C276 1.380 . S
C277 C281 1.382 . S
C278 C276 1.394 . S
C278 C279 1.400 . S
C279 H271 0.931 . S
C279 C278 1.400 . S
C279 C280 1.375 . S
C280 C279 1.375 . S
C280 C281 1.415 . S
C280 C282 1.501 . S
C281 H272 0.931 . S
C281 C277 1.382 . S
C281 C280 1.415 . S
C282 C280 1.501 . S
C282 C283 1.384 . S
C282 C287 1.408 . S
C283 H273 0.930 . S
C283 C282 1.384 . S
C283 C284 1.389 . S
C284 C283 1.389 . S
C284 C285 1.405 . S
C285 H274 0.930 . S
C285 C284 1.405 . S
C285 C286 1.364 . S
C286 C285 1.364 . S
C286 C287 1.400 . S
C287 H275 0.931 . S
C287 C282 1.408 . S
C287 C286 1.400 . S
H288 C294 0.930 . S
H289 C297 0.931 . S
H290 C299 0.931 . S
H291 C301 0.930 . S
H292 C303 0.930 . S
H293 C305 0.931 . S
C294 H288 0.930 . S
C294 C295 1.380 . S
C294 C296 1.394 . S
C295 C294 1.380 . S
C295 C299 1.382 . S
C296 C294 1.394 . S
C296 C297 1.400 . S
C297 H289 0.931 . S
C297 C296 1.400 . S
C297 C298 1.375 . S
C298 C297 1.375 . S
C298 C299 1.415 . S
C298 C300 1.501 . S
C299 H290 0.931 . S
C299 C295 1.382 . S
C299 C298 1.415 . S
C300 C298 1.501 . S
C300 C301 1.384 . S
C300 C305 1.408 . S
C301 H291 0.930 . S
C301 C300 1.384 . S
C301 C302 1.389 . S
C302 C301 1.389 . S
C302 C303 1.405 . S
C303 H292 0.930 . S
C303 C302 1.405 . S
C303 C304 1.364 . S
C304 C303 1.364 . S
C304 C305 1.400 . S
C305 H293 0.931 . S
C305 C300 1.408 . S
C305 C304 1.400 . S
H306 C312 0.930 . S
H307 C315 0.931 . S
H308 C317 0.931 . S
H309 C319 0.930 . S
H310 C321 0.930 . S
H311 C323 0.931 . S
C312 H306 0.930 . S
C312 C313 1.380 . S
C312 C314 1.394 . S
C313 C312 1.380 . S
C313 C317 1.382 . S
C314 C312 1.394 . S
C314 C315 1.400 . S
C315 H307 0.931 . S
C315 C314 1.400 . S
C315 C316 1.375 . S
C316 C315 1.375 . S
C316 C317 1.415 . S
C316 C318 1.501 . S
C317 H308 0.931 . S
C317 C313 1.382 . S
C317 C316 1.415 . S
C318 C316 1.501 . S
C318 C319 1.384 . S
C318 C323 1.408 . S
C319 H309 0.930 . S
C319 C318 1.384 . S
C319 C320 1.389 . S
C320 C319 1.389 . S
C320 C321 1.405 . S
C321 H310 0.930 . S
C321 C320 1.405 . S
C321 C322 1.364 . S
C322 C321 1.364 . S
C322 C323 1.400 . S
C323 H311 0.931 . S
C323 C318 1.408 . S
C323 C322 1.400 . S
H324 C330 0.930 . S
H325 C333 0.931 . S
H326 C335 0.931 . S
H327 C337 0.930 . S
H328 C339 0.930 . S
H329 C341 0.931 . S
C330 H324 0.930 . S
C330 C331 1.380 . S
C330 C332 1.394 . S
C331 C330 1.380 . S
C331 C335 1.382 . S
C332 C330 1.394 . S
C332 C333 1.400 . S
C333 H325 0.931 . S
C333 C332 1.400 . S
C333 C334 1.375 . S
C334 C333 1.375 . S
C334 C335 1.415 . S
C334 C336 1.501 . S
C335 H326 0.931 . S
C335 C331 1.382 . S
C335 C334 1.415 . S
C336 C334 1.501 . S
C336 C337 1.384 . S
C336 C341 1.408 . S
C337 H327 0.930 . S
C337 C336 1.384 . S
C337 C338 1.389 . S
C338 C337 1.389 . S
C338 C339 1.405 . S
C339 H328 0.930 . S
C339 C338 1.405 . S
C339 C340 1.364 . S
C340 C339 1.364 . S
C340 C341 1.400 . S
C341 H329 0.931 . S
C341 C336 1.408 . S
C341 C340 1.400 . S
H342 C348 0.930 . S
H343 C351 0.931 . S
H344 C353 0.931 . S
H345 C355 0.930 . S
H346 C357 0.930 . S
H347 C359 0.931 . S
C348 H342 0.930 . S
C348 C349 1.380 . S
C348 C350 1.394 . S
C349 C348 1.380 . S
C349 C353 1.382 . S
C350 C348 1.394 . S
C350 C351 1.400 . S
C351 H343 0.931 . S
C351 C350 1.400 . S
C351 C352 1.375 . S
C352 C351 1.375 . S
C352 C353 1.415 . S
C352 C354 1.501 . S
C353 H344 0.931 . S
C353 C349 1.382 . S
C353 C352 1.415 . S
C354 C352 1.501 . S
C354 C355 1.384 . S
C354 C359 1.408 . S
C355 H345 0.930 . S
C355 C354 1.384 . S
C355 C356 1.389 . S
C356 C355 1.389 . S
C356 C357 1.405 . S
C357 H346 0.930 . S
C357 C356 1.405 . S
C357 C358 1.364 . S
C358 C357 1.364 . S
C358 C359 1.400 . S
C359 H347 0.931 . S
C359 C354 1.408 . S
C359 C358 1.400 . S
H360 C366 0.930 . S
H361 C369 0.931 . S
H362 C371 0.931 . S
H363 C373 0.930 . S
H364 C375 0.930 . S
H365 C377 0.931 . S
C366 H360 0.930 . S
C366 C367 1.380 . S
C366 C368 1.394 . S
C367 C366 1.380 . S
C367 C371 1.382 . S
C368 C366 1.394 . S
C368 C369 1.400 . S
C369 H361 0.931 . S
C369 C368 1.400 . S
C369 C370 1.375 . S
C370 C369 1.375 . S
C370 C371 1.415 . S
C370 C372 1.501 . S
C371 H362 0.931 . S
C371 C367 1.382 . S
C371 C370 1.415 . S
C372 C370 1.501 . S
C372 C373 1.384 . S
C372 C377 1.408 . S
C373 H363 0.930 . S
C373 C372 1.384 . S
C373 C374 1.389 . S
C374 C373 1.389 . S
C374 C375 1.405 . S
C375 H364 0.930 . S
C375 C374 1.405 . S
C375 C376 1.364 . S
C376 C375 1.364 . S
C376 C377 1.400 . S
C377 H365 0.931 . S
C377 C372 1.408 . S
C377 C376 1.400 . S
H378 C384 0.930 . S
H379 C387 0.931 . S
H380 C389 0.931 . S
H381 C391 0.930 . S
H382 C393 0.930 . S
H383 C395 0.931 . S
C384 H378 0.930 . S
C384 C385 1.380 . S
C384 C386 1.394 . S
C385 C384 1.380 . S
C385 C389 1.382 . S
C386 C384 1.394 . S
C386 C387 1.400 . S
C387 H379 0.931 . S
C387 C386 1.400 . S
C387 C388 1.375 . S
C388 C387 1.375 . S
C388 C389 1.415 . S
C388 C390 1.501 . S
C389 H380 0.931 . S
C389 C385 1.382 . S
C389 C388 1.415 . S
C390 C388 1.501 . S
C390 C391 1.384 . S
C390 C395 1.408 . S
C391 H381 0.930 . S
C391 C390 1.384 . S
C391 C392 1.389 . S
C392 C391 1.389 . S
C392 C393 1.405 . S
C393 H382 0.930 . S
C393 C392 1.405 . S
C393 C394 1.364 . S
C394 C393 1.364 . S
C394 C395 1.400 . S
C395 H383 0.931 . S
C395 C390 1.408 . S
C395 C394 1.400 . S
H396 C402 0.930 . S
H397 C405 0.931 . S
H398 C407 0.931 . S
H399 C409 0.930 . S
H400 C411 0.930 . S
H401 C413 0.931 . S
C402 H396 0.930 . S
C402 C403 1.380 . S
C402 C404 1.394 . S
C403 C402 1.380 . S
C403 C407 1.382 . S
C404 C402 1.394 . S
C404 C405 1.400 . S
C405 H397 0.931 . S
C405 C404 1.400 . S
C405 C406 1.375 . S
C406 C405 1.375 . S
C406 C407 1.415 . S
C406 C408 1.501 . S
C407 H398 0.931 . S
C407 C403 1.382 . S
C407 C406 1.415 . S
C408 C406 1.501 . S
C408 C409 1.384 . S
C408 C413 1.408 . S
C409 H399 0.930 . S
C409 C408 1.384 . S
C409 C410 1.389 . S
C410 C409 1.389 . S
C410 C411 1.405 . S
C411 H400 0.930 . S
C411 C410 1.405 . S
C411 C412 1.364 . S
C412 C411 1.364 . S
C412 C413 1.400 . S
C413 H401 0.931 . S
C413 C408 1.408 . S
C413 C412 1.400 . S
H414 C420 0.925 . S
H415 C423 0.931 . S
H416 C425 0.931 . S
H417 C427 0.930 . S
H418 C429 0.930 . S
H419 C431 0.939 1_655 S
C420 H414 0.925 . S
C420 C421 1.384 . S
C420 C422 1.395 1_655 S
C421 C420 1.384 . S
C421 C425 1.382 . S
C422 C420 1.395 1_455 S
C422 C423 1.400 . S
C423 H415 0.931 . S
C423 C422 1.400 . S
C423 C424 1.375 . S
C424 C423 1.375 . S
C424 C425 1.415 1_455 S
C424 C426 1.501 . S
C425 H416 0.931 . S
C425 C421 1.382 . S
C425 C424 1.415 1_655 S
C426 C424 1.501 . S
C426 C427 1.384 . S
C426 C431 1.419 . S
C427 H417 0.930 . S
C427 C426 1.384 . S
C427 C428 1.389 . S
C428 C427 1.389 . S
C428 C429 1.405 . S
C429 H418 0.930 . S
C429 C428 1.405 . S
C429 C430 1.360 . S
C430 C429 1.360 . S
C430 C431 1.391 . S
C431 H419 0.939 1_455 S
C431 C426 1.419 . S
C431 C430 1.391 . S
H432 C438 0.930 . S
H433 C441 0.931 . S
H434 C443 0.931 . S
H435 C445 0.930 . S
H436 C447 0.930 . S
H437 C449 0.931 . S
C438 H432 0.930 . S
C438 C439 1.380 . S
C438 C440 1.394 . S
C439 C438 1.380 . S
C439 C443 1.382 . S
C440 C438 1.394 . S
C440 C441 1.400 . S
C441 H433 0.931 . S
C441 C440 1.400 . S
C441 C442 1.375 . S
C442 C441 1.375 . S
C442 C443 1.415 . S
C442 C444 1.501 . S
C443 H434 0.931 . S
C443 C439 1.382 . S
C443 C442 1.415 . S
C444 C442 1.501 . S
C444 C445 1.384 . S
C444 C449 1.408 . S
C445 H435 0.930 . S
C445 C444 1.384 . S
C445 C446 1.389 . S
C446 C445 1.389 . S
C446 C447 1.405 . S
C447 H436 0.930 . S
C447 C446 1.405 . S
C447 C448 1.364 . S
C448 C447 1.364 . S
C448 C449 1.400 . S
C449 H437 0.931 . S
C449 C444 1.408 . S
C449 C448 1.400 . S
H450 C456 0.959 . S
H451 C459 0.931 . S
H452 C461 0.931 . S
H453 C463 0.930 . S
H454 C465 0.930 . S
H455 C467 0.916 . S
C456 H450 0.959 . S
C456 C457 1.374 . S
C456 C458 1.374 1_545 S
C457 C456 1.374 . S
C457 C461 1.382 . S
C458 C456 1.374 1_565 S
C458 C459 1.400 . S
C459 H451 0.931 . S
C459 C458 1.400 . S
C459 C460 1.375 . S
C460 C459 1.375 . S
C460 C461 1.415 1_565 S
C460 C462 1.501 . S
C461 H452 0.931 . S
C461 C457 1.382 . S
C461 C460 1.415 1_545 S
C462 C460 1.501 . S
C462 C463 1.384 . S
C462 C467 1.397 . S
C463 H453 0.930 . S
C463 C462 1.384 . S
C463 C464 1.389 . S
C464 C463 1.389 . S
C464 C465 1.405 . S
C465 H454 0.930 . S
C465 C464 1.405 . S
C465 C466 1.380 . S
C466 C465 1.380 . S
C466 C467 1.402 . S
C467 H455 0.916 . S
C467 C462 1.397 . S
C467 C466 1.402 . S
H468 C474 0.918 . S
H469 C477 0.931 . S
H470 C479 0.927 1_545 S
H471 C481 0.930 . S
H472 C483 0.900 . S
H473 C485 0.931 . S
C474 H468 0.918 . S
C474 C475 1.381 . S
C474 C476 1.416 1_545 S
C475 C474 1.381 . S
C475 C479 1.399 1_545 S
C476 C474 1.416 1_565 S
C476 C477 1.371 . S
C477 H469 0.931 . S
C477 C476 1.371 . S
C477 C478 1.375 . S
C478 C477 1.375 . S
C478 C479 1.412 . S
C478 C480 1.501 . S
C479 H470 0.927 1_565 S
C479 C475 1.399 1_565 S
C479 C478 1.412 . S
C480 C478 1.501 . S
C480 C481 1.384 . S
C480 C485 1.408 1_565 S
C481 H471 0.930 . S
C481 C480 1.384 . S
C481 C482 1.389 . S
C482 C481 1.389 . S
C482 C483 1.431 . S
C483 H472 0.900 . S
C483 C482 1.431 . S
C483 C484 1.373 1_565 S
C484 C483 1.373 1_545 S
C484 C485 1.400 . S
C485 H473 0.931 . S
C485 C480 1.408 1_545 S
C485 C484 1.400 . S
H486 C492 0.958 . S
H487 C495 0.931 . S
H488 C497 0.934 1_655 S
H489 C499 0.930 . S
H490 C501 0.930 . S
H491 C503 0.931 . S
C492 H486 0.958 . S
C492 C493 1.378 . S
C492 C494 1.366 1_655 S
C493 C492 1.378 . S
C493 C497 1.359 1_655 S
C494 C492 1.366 1_455 S
C494 C495 1.433 . S
C495 H487 0.931 . S
C495 C494 1.433 . S
C495 C496 1.375 . S
C496 C495 1.375 . S
C496 C497 1.415 . S
C496 C498 1.501 . S
C497 H488 0.934 1_455 S
C497 C493 1.359 1_455 S
C497 C496 1.415 . S
C498 C496 1.501 . S
C498 C499 1.384 . S
C498 C503 1.408 1_455 S
C499 H489 0.930 . S
C499 C498 1.384 . S
C499 C500 1.389 . S
C500 C499 1.389 . S
C500 C501 1.405 . S
C501 H490 0.930 . S
C501 C500 1.405 . S
C501 C502 1.364 1_455 S
C502 C501 1.364 1_655 S
C502 C503 1.400 . S
C503 H491 0.931 . S
C503 C498 1.408 1_655 S
C503 C502 1.400 . S
H504 C510 0.930 . S
H505 C513 0.931 . S
H506 C515 0.931 . S
H507 C517 0.930 . S
H508 C519 0.930 . S
H509 C521 0.931 . S
C510 H504 0.930 . S
C510 C511 1.380 . S
C510 C512 1.394 . S
C511 C510 1.380 . S
C511 C515 1.382 . S
C512 C510 1.394 . S
C512 C513 1.400 . S
C513 H505 0.931 . S
C513 C512 1.400 . S
C513 C514 1.375 . S
C514 C513 1.375 . S
C514 C515 1.415 . S
C514 C516 1.501 . S
C515 H506 0.931 . S
C515 C511 1.382 . S
C515 C514 1.415 . S
C516 C514 1.501 . S
C516 C517 1.384 . S
C516 C521 1.408 . S
C517 H507 0.930 . S
C517 C516 1.384 . S
C517 C518 1.389 . S
C518 C517 1.389 . S
C518 C519 1.405 . S
C519 H508 0.930 . S
C519 C518 1.405 . S
C519 C520 1.364 . S
C520 C519 1.364 . S
C520 C521 1.400 . S
C521 H509 0.931 . S
C521 C516 1.408 . S
C521 C520 1.400 . S
H522 C528 0.930 . S
H523 C531 0.931 . S
H524 C533 0.931 . S
H525 C535 0.930 . S
H526 C537 0.930 . S
H527 C539 0.931 . S
C528 H522 0.930 . S
C528 C529 1.380 . S
C528 C530 1.394 . S
C529 C528 1.380 . S
C529 C533 1.382 . S
C530 C528 1.394 . S
C530 C531 1.400 . S
C531 H523 0.931 . S
C531 C530 1.400 . S
C531 C532 1.375 . S
C532 C531 1.375 . S
C532 C533 1.415 . S
C532 C534 1.501 . S
C533 H524 0.931 . S
C533 C529 1.382 . S
C533 C532 1.415 . S
C534 C532 1.501 . S
C534 C535 1.384 . S
C534 C539 1.408 . S
C535 H525 0.930 . S
C535 C534 1.384 . S
C535 C536 1.389 . S
C536 C535 1.389 . S
C536 C537 1.405 . S
C537 H526 0.930 . S
C537 C536 1.405 . S
C537 C538 1.364 . S
C538 C537 1.364 . S
C538 C539 1.400 . S
C539 H527 0.931 . S
C539 C534 1.408 . S
C539 C538 1.400 . S
H540 C546 0.930 . S
H541 C549 0.931 . S
H542 C551 0.931 . S
H543 C553 0.930 . S
H544 C555 0.930 . S
H545 C557 0.931 . S
C546 H540 0.930 . S
C546 C547 1.380 . S
C546 C548 1.394 . S
C547 C546 1.380 . S
C547 C551 1.382 . S
C548 C546 1.394 . S
C548 C549 1.400 . S
C549 H541 0.931 . S
C549 C548 1.400 . S
C549 C550 1.375 . S
C550 C549 1.375 . S
C550 C551 1.415 . S
C550 C552 1.501 . S
C551 H542 0.931 . S
C551 C547 1.382 . S
C551 C550 1.415 . S
C552 C550 1.501 . S
C552 C553 1.384 . S
C552 C557 1.408 . S
C553 H543 0.930 . S
C553 C552 1.384 . S
C553 C554 1.389 . S
C554 C553 1.389 . S
C554 C555 1.405 . S
C555 H544 0.930 . S
C555 C554 1.405 . S
C555 C556 1.364 . S
C556 C555 1.364 . S
C556 C557 1.400 . S
C557 H545 0.931 . S
C557 C552 1.408 . S
C557 C556 1.400 . S
H558 C564 0.930 . S
H559 C567 0.931 . S
H560 C569 0.931 . S
H561 C571 0.930 . S
H562 C573 0.930 . S
H563 C575 0.931 . S
C564 H558 0.930 . S
C564 C565 1.380 . S
C564 C566 1.394 . S
C565 C564 1.380 . S
C565 C569 1.382 . S
C566 C564 1.394 . S
C566 C567 1.400 . S
C567 H559 0.931 . S
C567 C566 1.400 . S
C567 C568 1.375 . S
C568 C567 1.375 . S
C568 C569 1.415 . S
C568 C570 1.501 . S
C569 H560 0.931 . S
C569 C565 1.382 . S
C569 C568 1.415 . S
C570 C568 1.501 . S
C570 C571 1.384 . S
C570 C575 1.408 . S
C571 H561 0.930 . S
C571 C570 1.384 . S
C571 C572 1.389 . S
C572 C571 1.389 . S
C572 C573 1.405 . S
C573 H562 0.930 . S
C573 C572 1.405 . S
C573 C574 1.364 . S
C574 C573 1.364 . S
C574 C575 1.400 . S
C575 H563 0.931 . S
C575 C570 1.408 . S
C575 C574 1.400 . S
C576 C577 1.437 . S
C576 C578 1.394 . S
C576 H592 0.931 . S
C577 C576 1.437 . S
C577 C581 1.354 1_655 S
C578 C576 1.394 . S
C578 C579 1.393 . S
C578 C582 1.531 . S
C579 C578 1.393 . S
C579 C580 1.361 1_655 S
C579 C587 1.535 . S
C580 C579 1.361 1_455 S
C580 C581 1.392 . S
C580 C583 1.511 . S
C581 C577 1.354 1_455 S
C581 C580 1.392 . S
C581 H593 0.929 . S
C582 C578 1.531 . S
C582 H594 0.960 . S
C582 H595 0.962 . S
C582 H596 0.960 . S
C583 C580 1.511 . S
C583 H597 0.961 . S
C583 H598 0.961 . S
C583 H599 0.961 . S
C584 C585 1.370 . S
C584 C586 1.363 . S
C584 H600 0.931 . S
C585 C584 1.370 . S
C585 C589 1.408 1_655 S
C586 C584 1.363 . S
C586 C587 1.370 . S
C586 C590 1.524 . S
C587 C579 1.535 . S
C587 C586 1.370 . S
C587 C588 1.403 1_655 S
C588 C587 1.403 1_455 S
C588 C589 1.404 . S
C588 C591 1.539 . S
C589 C585 1.408 1_455 S
C589 C588 1.404 . S
C589 H601 0.930 . S
C590 C586 1.524 . S
C590 H602 0.956 . S
C590 H603 0.961 . S
C590 H604 0.961 . S
C591 C588 1.539 . S
C591 H605 0.958 . S
C591 H606 0.961 . S
C591 H607 0.960 . S
H592 C576 0.931 . S
H593 C581 0.929 . S
H594 C582 0.960 . S
H595 C582 0.962 . S
H596 C582 0.960 . S
H597 C583 0.961 . S
H598 C583 0.961 . S
H599 C583 0.961 . S
H600 C584 0.931 . S
H601 C589 0.930 . S
H602 C590 0.956 . S
H603 C590 0.961 . S
H604 C590 0.961 . S
H605 C591 0.958 . S
H606 C591 0.961 . S
H607 C591 0.960 . S
C608 C609 1.391 . S
C608 C610 1.394 . S
C608 H624 0.931 . S
C609 C608 1.391 . S
C609 C613 1.376 . S
C610 C608 1.394 . S
C610 C611 1.369 . S
C610 C614 1.531 . S
C611 C610 1.369 . S
C611 C612 1.410 . S
C611 C619 1.503 . S
C612 C611 1.410 . S
C612 C613 1.392 . S
C612 C615 1.511 . S
C613 C609 1.376 . S
C613 C612 1.392 . S
C613 H625 0.929 . S
C614 C610 1.531 . S
C614 H626 0.960 . S
C614 H627 0.962 . S
C614 H628 0.960 . S
C615 C612 1.511 . S
C615 H629 0.961 . S
C615 H630 0.961 . S
C615 H631 0.961 . S
C616 C617 1.370 . S
C616 C618 1.363 . S
C616 H632 0.931 . S
C617 C616 1.370 . S
C617 C621 1.408 . S
C618 C616 1.363 . S
C618 C619 1.370 . S
C618 C622 1.524 . S
C619 C611 1.503 . S
C619 C618 1.370 . S
C619 C620 1.403 . S
C620 C619 1.403 . S
C620 C621 1.404 . S
C620 C623 1.539 . S
C621 C617 1.408 . S
C621 C620 1.404 . S
C621 H633 0.930 . S
C622 C618 1.524 . S
C622 H634 0.956 . S
C622 H635 0.961 . S
C622 H636 0.961 . S
C623 C620 1.539 . S
C623 H637 0.958 . S
C623 H638 0.961 . S
C623 H639 0.960 . S
H624 C608 0.931 . S
H625 C613 0.929 . S
H626 C614 0.960 . S
H627 C614 0.962 . S
H628 C614 0.960 . S
H629 C615 0.961 . S
H630 C615 0.961 . S
H631 C615 0.961 . S
H632 C616 0.931 . S
H633 C621 0.930 . S
H634 C622 0.956 . S
H635 C622 0.961 . S
H636 C622 0.961 . S
H637 C623 0.958 . S
H638 C623 0.961 . S
H639 C623 0.960 . S
C640 C641 1.391 1_565 S
C640 C642 1.394 . S
C640 H656 0.931 . S
C641 C640 1.391 1_545 S
C641 C645 1.376 . S
C642 C640 1.394 . S
C642 C643 1.369 1_565 S
C642 C646 1.531 . S
C643 C642 1.369 1_545 S
C643 C644 1.410 . S
C643 C651 1.503 . S
C644 C643 1.410 . S
C644 C645 1.392 . S
C644 C647 1.511 . S
C645 C641 1.376 . S
C645 C644 1.392 . S
C645 H657 0.929 . S
C646 C642 1.531 . S
C646 H658 0.960 . S
C646 H659 0.962 . S
C646 H660 0.960 . S
C647 C644 1.511 . S
C647 H661 0.961 . S
C647 H662 0.961 . S
C647 H663 0.961 . S
C648 C649 1.370 1_565 S
C648 C650 1.363 . S
C648 H664 0.931 . S
C649 C648 1.370 1_545 S
C649 C653 1.408 . S
C650 C648 1.363 . S
C650 C651 1.370 1_565 S
C650 C654 1.524 . S
C651 C643 1.503 . S
C651 C650 1.370 1_545 S
C651 C652 1.403 . S
C652 C651 1.403 . S
C652 C653 1.404 . S
C652 C655 1.539 . S
C653 C649 1.408 . S
C653 C652 1.404 . S
C653 H665 0.930 . S
C654 C650 1.524 . S
C654 H666 0.956 . S
C654 H667 0.961 . S
C654 H668 0.961 . S
C655 C652 1.539 . S
C655 H669 0.958 . S
C655 H670 0.961 . S
C655 H671 0.960 . S
H656 C640 0.931 . S
H657 C645 0.929 . S
H658 C646 0.960 . S
H659 C646 0.962 . S
H660 C646 0.960 . S
H661 C647 0.961 . S
H662 C647 0.961 . S
H663 C647 0.961 . S
H664 C648 0.931 . S
H665 C653 0.930 . S
H666 C654 0.956 . S
H667 C654 0.961 . S
H668 C654 0.961 . S
H669 C655 0.958 . S
H670 C655 0.961 . S
H671 C655 0.960 . S
C672 C673 1.391 1_565 S
C672 C674 1.394 . S
C672 H688 0.931 . S
C673 C672 1.391 1_545 S
C673 C677 1.376 . S
C674 C672 1.394 . S
C674 C675 1.371 . S
C674 C678 1.531 . S
C675 C674 1.371 . S
C675 C676 1.404 1_565 S
C675 C683 1.507 . S
C676 C675 1.404 1_545 S
C676 C677 1.392 . S
C676 C679 1.511 . S
C677 C673 1.376 . S
C677 C676 1.392 . S
C677 H689 0.929 . S
C678 C674 1.531 . S
C678 H690 0.960 . S
C678 H691 0.962 . S
C678 H692 0.960 . S
C679 C676 1.511 . S
C679 H693 0.961 . S
C679 H694 0.961 . S
C679 H695 0.961 . S
C680 C681 1.370 . S
C680 C682 1.363 . S
C680 H696 0.931 . S
C681 C680 1.370 . S
C681 C685 1.408 1_565 S
C682 C680 1.363 . S
C682 C683 1.370 . S
C682 C686 1.524 . S
C683 C675 1.507 . S
C683 C682 1.370 . S
C683 C684 1.403 1_565 S
C684 C683 1.403 1_545 S
C684 C685 1.404 . S
C684 C687 1.539 . S
C685 C681 1.408 1_545 S
C685 C684 1.404 . S
C685 H697 0.930 . S
C686 C682 1.524 . S
C686 H698 0.956 . S
C686 H699 0.961 . S
C686 H700 0.961 . S
C687 C684 1.539 . S
C687 H701 0.958 . S
C687 H702 0.961 . S
C687 H703 0.960 . S
H688 C672 0.931 . S
H689 C677 0.929 . S
H690 C678 0.960 . S
H691 C678 0.962 . S
H692 C678 0.960 . S
H693 C679 0.961 . S
H694 C679 0.961 . S
H695 C679 0.961 . S
H696 C680 0.931 . S
H697 C685 0.930 . S
H698 C686 0.956 . S
H699 C686 0.961 . S
H700 C686 0.961 . S
H701 C687 0.958 . S
H702 C687 0.961 . S
H703 C687 0.960 . S
C704 C705 1.391 . S
C704 C706 1.394 . S
C704 H720 0.931 . S
C705 C704 1.391 . S
C705 C709 1.376 . S
C706 C704 1.394 . S
C706 C707 1.369 . S
C706 C710 1.531 . S
C707 C706 1.369 . S
C707 C708 1.410 . S
C707 C715 1.503 . S
C708 C707 1.410 . S
C708 C709 1.392 . S
C708 C711 1.511 . S
C709 C705 1.376 . S
C709 C708 1.392 . S
C709 H721 0.929 . S
C710 C706 1.531 . S
C710 H722 0.960 . S
C710 H723 0.962 1_455 S
C710 H724 0.960 . S
C711 C708 1.511 . S
C711 H725 0.961 . S
C711 H726 0.961 . S
C711 H727 0.961 . S
C712 C713 1.370 1_655 S
C712 C714 1.363 . S
C712 H728 0.931 . S
C713 C712 1.370 1_455 S
C713 C717 1.408 . S
C714 C712 1.363 . S
C714 C715 1.370 1_655 S
C714 C718 1.524 . S
C715 C707 1.503 . S
C715 C714 1.370 1_455 S
C715 C716 1.403 . S
C716 C715 1.403 . S
C716 C717 1.404 . S
C716 C719 1.539 . S
C717 C713 1.408 . S
C717 C716 1.404 . S
C717 H729 0.930 . S
C718 C714 1.524 . S
C718 H730 0.956 . S
C718 H731 0.961 . S
C718 H732 0.961 . S
C719 C716 1.539 . S
C719 H733 0.958 . S
C719 H734 0.961 . S
C719 H735 0.960 . S
H720 C704 0.931 . S
H721 C709 0.929 . S
H722 C710 0.960 . S
H723 C710 0.962 1_655 S
H724 C710 0.960 . S
H725 C711 0.961 . S
H726 C711 0.961 . S
H727 C711 0.961 . S
H728 C712 0.931 . S
H729 C717 0.930 . S
H730 C718 0.956 . S
H731 C718 0.961 . S
H732 C718 0.961 . S
H733 C719 0.958 . S
H734 C719 0.961 . S
H735 C719 0.960 . S
C736 C737 1.391 . S
C736 C738 1.394 . S
C736 H752 0.931 . S
C737 C736 1.391 . S
C737 C741 1.376 . S
C738 C736 1.394 . S
C738 C739 1.369 . S
C738 C742 1.531 . S
C739 C738 1.369 . S
C739 C740 1.410 . S
C739 C747 1.503 . S
C740 C739 1.410 . S
C740 C741 1.392 . S
C740 C743 1.511 . S
C741 C737 1.376 . S
C741 C740 1.392 . S
C741 H753 0.929 . S
C742 C738 1.531 . S
C742 H754 0.960 . S
C742 H755 0.962 . S
C742 H756 0.960 . S
C743 C740 1.511 . S
C743 H757 0.961 . S
C743 H758 0.961 . S
C743 H759 0.961 . S
C744 C745 1.370 . S
C744 C746 1.363 . S
C744 H760 0.931 . S
C745 C744 1.370 . S
C745 C749 1.408 . S
C746 C744 1.363 . S
C746 C747 1.370 . S
C746 C750 1.524 . S
C747 C739 1.503 . S
C747 C746 1.370 . S
C747 C748 1.403 . S
C748 C747 1.403 . S
C748 C749 1.404 . S
C748 C751 1.539 . S
C749 C745 1.408 . S
C749 C748 1.404 . S
C749 H761 0.930 . S
C750 C746 1.524 . S
C750 H762 0.956 . S
C750 H763 0.961 . S
C750 H764 0.961 . S
C751 C748 1.539 . S
C751 H765 0.958 . S
C751 H766 0.961 . S
C751 H767 0.960 . S
H752 C736 0.931 . S
H753 C741 0.929 . S
H754 C742 0.960 . S
H755 C742 0.962 . S
H756 C742 0.960 . S
H757 C743 0.961 . S
H758 C743 0.961 . S
H759 C743 0.961 . S
H760 C744 0.931 . S
H761 C749 0.930 . S
H762 C750 0.956 . S
H763 C750 0.961 . S
H764 C750 0.961 . S
H765 C751 0.958 . S
H766 C751 0.961 . S
H767 C751 0.960 . S
C768 C769 1.391 . S
C768 C770 1.394 . S
C768 H784 0.931 . S
C769 C768 1.391 . S
C769 C773 1.376 1_455 S
C770 C768 1.394 . S
C770 C771 1.369 1_455 S
C770 C774 1.531 . S
C771 C770 1.369 1_655 S
C771 C772 1.410 . S
C771 C779 1.503 . S
C772 C771 1.410 . S
C772 C773 1.392 . S
C772 C775 1.511 . S
C773 C769 1.376 1_655 S
C773 C772 1.392 . S
C773 H785 0.929 . S
C774 C770 1.531 . S
C774 H786 0.960 . S
C774 H787 0.962 . S
C774 H788 0.960 . S
C775 C772 1.511 . S
C775 H789 0.961 . S
C775 H790 0.961 . S
C775 H791 0.961 . S
C776 C777 1.363 1_455 S
C776 C778 1.363 . S
C776 H792 0.931 . S
C777 C776 1.363 1_655 S
C777 C781 1.445 . S
C778 C776 1.363 . S
C778 C779 1.370 1_455 S
C778 C782 1.524 . S
C779 C771 1.503 . S
C779 C778 1.370 1_655 S
C779 C780 1.403 . S
C780 C779 1.403 . S
C780 C781 1.404 . S
C780 C783 1.539 . S
C781 C777 1.445 . S
C781 C780 1.404 . S
C781 H793 0.930 . S
C782 C778 1.524 . S
C782 H794 0.956 . S
C782 H795 0.961 . S
C782 H796 0.961 . S
C783 C780 1.539 . S
C783 H797 0.958 . S
C783 H798 0.961 . S
C783 H799 0.960 . S
H784 C768 0.931 . S
H785 C773 0.929 . S
H786 C774 0.960 . S
H787 C774 0.962 . S
H788 C774 0.960 . S
H789 C775 0.961 . S
H790 C775 0.961 . S
H791 C775 0.961 . S
H792 C776 0.931 . S
H793 C781 0.930 . S
H794 C782 0.956 . S
H795 C782 0.961 . S
H796 C782 0.961 . S
H797 C783 0.958 . S
H798 C783 0.961 . S
H799 C783 0.960 . S
C800 C801 1.391 . S
C800 C802 1.394 . S
C800 H816 0.931 . S
C801 C800 1.391 . S
C801 C805 1.376 . S
C802 C800 1.394 . S
C802 C803 1.369 . S
C802 C806 1.531 . S
C803 C802 1.369 . S
C803 C804 1.410 . S
C803 C811 1.503 . S
C804 C803 1.410 . S
C804 C805 1.392 . S
C804 C807 1.511 . S
C805 C801 1.376 . S
C805 C804 1.392 . S
C805 H817 0.929 . S
C806 C802 1.531 . S
C806 H818 0.960 . S
C806 H819 0.962 . S
C806 H820 0.960 . S
C807 C804 1.511 . S
C807 H821 0.961 . S
C807 H822 0.961 . S
C807 H823 0.961 . S
C808 C809 1.370 . S
C808 C810 1.363 . S
C808 H824 0.931 . S
C809 C808 1.370 . S
C809 C813 1.408 . S
C810 C808 1.363 . S
C810 C811 1.370 . S
C810 C814 1.524 . S
C811 C803 1.503 . S
C811 C810 1.370 . S
C811 C812 1.403 . S
C812 C811 1.403 . S
C812 C813 1.404 . S
C812 C815 1.539 . S
C813 C809 1.408 . S
C813 C812 1.404 . S
C813 H825 0.930 . S
C814 C810 1.524 . S
C814 H826 0.956 . S
C814 H827 0.961 . S
C814 H828 0.961 . S
C815 C812 1.539 . S
C815 H829 0.958 . S
C815 H830 0.961 . S
C815 H831 0.960 . S
H816 C800 0.931 . S
H817 C805 0.929 . S
H818 C806 0.960 . S
H819 C806 0.962 . S
H820 C806 0.960 . S
H821 C807 0.961 . S
H822 C807 0.961 . S
H823 C807 0.961 . S
H824 C808 0.931 . S
H825 C813 0.930 . S
H826 C814 0.956 . S
H827 C814 0.961 . S
H828 C814 0.961 . S
H829 C815 0.958 . S
H830 C815 0.961 . S
H831 C815 0.960 . S
C832 C833 1.391 . S
C832 C834 1.394 . S
C832 H848 0.931 . S
C833 C832 1.391 . S
C833 C837 1.376 1_565 S
C834 C832 1.394 . S
C834 C835 1.369 . S
C834 C838 1.531 . S
C835 C834 1.369 . S
C835 C836 1.410 1_565 S
C835 C843 1.530 . S
C836 C835 1.410 1_545 S
C836 C837 1.392 . S
C836 C839 1.511 . S
C837 C833 1.376 1_545 S
C837 C836 1.392 . S
C837 H849 0.929 . S
C838 C834 1.531 . S
C838 H850 0.960 . S
C838 H851 0.962 . S
C838 H852 0.960 . S
C839 C836 1.511 . S
C839 H853 0.961 . S
C839 H854 0.961 . S
C839 H855 0.961 . S
C840 C841 1.358 . S
C840 C842 1.363 . S
C840 H856 0.931 . S
C841 C840 1.358 . S
C841 C845 1.408 1_545 S
C842 C840 1.363 . S
C842 C843 1.370 1_545 S
C842 C846 1.524 . S
C843 C835 1.530 . S
C843 C842 1.370 1_565 S
C843 C844 1.381 . S
C844 C843 1.381 . S
C844 C845 1.404 . S
C844 C847 1.539 . S
C845 C841 1.408 1_565 S
C845 C844 1.404 . S
C845 H857 0.930 . S
C846 C842 1.524 . S
C846 H858 0.956 1_545 S
C846 H859 0.961 . S
C846 H860 0.961 . S
C847 C844 1.539 . S
C847 H861 0.958 . S
C847 H862 0.967 . S
C847 H863 0.959 1_565 S
H848 C832 0.931 . S
H849 C837 0.929 . S
H850 C838 0.960 . S
H851 C838 0.962 . S
H852 C838 0.960 . S
H853 C839 0.961 . S
H854 C839 0.961 . S
H855 C839 0.961 . S
H856 C840 0.931 . S
H857 C845 0.930 . S
H858 C846 0.956 1_565 S
H859 C846 0.961 . S
H860 C846 0.961 . S
H861 C847 0.958 . S
H862 C847 0.967 . S
H863 C847 0.959 1_545 S
C864 C865 1.391 . S
C864 C866 1.394 . S
C864 H880 0.931 . S
C865 C864 1.391 . S
C865 C869 1.376 1_545 S
C866 C864 1.394 . S
C866 C867 1.369 . S
C866 C870 1.531 . S
C867 C866 1.369 . S
C867 C868 1.410 1_545 S
C867 C875 1.503 . S
C868 C867 1.410 1_565 S
C868 C869 1.392 . S
C868 C871 1.511 . S
C869 C865 1.376 1_565 S
C869 C868 1.392 . S
C869 H881 0.929 . S
C870 C866 1.531 . S
C870 H882 0.960 . S
C870 H883 0.962 . S
C870 H884 0.960 . S
C871 C868 1.511 . S
C871 H885 0.961 . S
C871 H886 0.961 . S
C871 H887 0.961 . S
C872 C873 1.377 . S
C872 C874 1.370 1_565 S
C872 H888 0.929 . S
C873 C872 1.377 . S
C873 C877 1.396 1_565 S
C874 C872 1.370 1_545 S
C874 C875 1.370 . S
C874 C878 1.510 1_545 S
C875 C867 1.503 . S
C875 C874 1.370 . S
C875 C876 1.403 . S
C876 C875 1.403 . S
C876 C877 1.391 . S
C876 C879 1.539 . S
C877 C873 1.396 1_545 S
C877 C876 1.391 . S
C877 H889 0.925 . S
C878 C874 1.510 1_565 S
C878 H890 0.939 1_565 S
C878 H891 0.991 . S
C878 H892 0.966 . S
C879 C876 1.539 . S
C879 H893 0.958 . S
C879 H894 0.961 1_545 S
C879 H895 0.960 1_545 S
H880 C864 0.931 . S
H881 C869 0.929 . S
H882 C870 0.960 . S
H883 C870 0.962 . S
H884 C870 0.960 . S
H885 C871 0.961 . S
H886 C871 0.961 . S
H887 C871 0.961 . S
H888 C872 0.929 . S
H889 C877 0.925 . S
H890 C878 0.939 1_545 S
H891 C878 0.991 . S
H892 C878 0.966 . S
H893 C879 0.958 . S
H894 C879 0.961 1_565 S
H895 C879 0.960 1_565 S
C896 C897 1.391 1_455 S
C896 C898 1.394 . S
C896 H912 0.931 . S
C897 C896 1.391 1_655 S
C897 C901 1.376 . S
C898 C896 1.394 . S
C898 C899 1.369 1_455 S
C898 C902 1.531 . S
C899 C898 1.369 1_655 S
C899 C900 1.410 . S
C899 C907 1.503 . S
C900 C899 1.410 . S
C900 C901 1.392 . S
C900 C903 1.511 . S
C901 C897 1.376 . S
C901 C900 1.392 . S
C901 H913 0.929 . S
C902 C898 1.531 . S
C902 H914 0.960 . S
C902 H915 0.962 . S
C902 H916 0.960 . S
C903 C900 1.511 . S
C903 H917 0.961 . S
C903 H918 0.961 . S
C903 H919 0.961 . S
C904 C905 1.369 . S
C904 C906 1.363 . S
C904 H920 0.931 . S
C905 C904 1.369 . S
C905 C909 1.413 1_455 S
C906 C904 1.363 . S
C906 C907 1.370 1_455 S
C906 C910 1.524 . S
C907 C899 1.503 . S
C907 C906 1.370 1_655 S
C907 C908 1.403 . S
C908 C907 1.403 . S
C908 C909 1.404 . S
C908 C911 1.539 . S
C909 C905 1.413 1_655 S
C909 C908 1.404 . S
C909 H921 0.930 . S
C910 C906 1.524 . S
C910 H922 0.956 . S
C910 H923 0.961 1_455 S
C910 H924 0.961 . S
C911 C908 1.539 . S
C911 H925 0.958 . S
C911 H926 0.961 . S
C911 H927 0.960 . S
H912 C896 0.931 . S
H913 C901 0.929 . S
H914 C902 0.960 . S
H915 C902 0.962 . S
H916 C902 0.960 . S
H917 C903 0.961 . S
H918 C903 0.961 . S
H919 C903 0.961 . S
H920 C904 0.931 . S
H921 C909 0.930 . S
H922 C910 0.956 . S
H923 C910 0.961 1_655 S
H924 C910 0.961 . S
H925 C911 0.958 . S
H926 C911 0.961 . S
H927 C911 0.960 . S
C928 C929 1.391 . S
C928 C930 1.394 . S
C928 H944 0.931 . S
C929 C928 1.391 . S
C929 C933 1.376 . S
C930 C928 1.394 . S
C930 C931 1.369 . S
C930 C934 1.531 . S
C931 C930 1.369 . S
C931 C932 1.410 . S
C931 C939 1.503 . S
C932 C931 1.410 . S
C932 C933 1.392 . S
C932 C935 1.511 . S
C933 C929 1.376 . S
C933 C932 1.392 . S
C933 H945 0.929 . S
C934 C930 1.531 . S
C934 H946 0.960 . S
C934 H947 0.962 . S
C934 H948 0.960 . S
C935 C932 1.511 . S
C935 H949 0.961 . S
C935 H950 0.961 . S
C935 H951 0.961 . S
C936 C937 1.370 . S
C936 C938 1.363 . S
C936 H952 0.931 . S
C937 C936 1.370 . S
C937 C941 1.408 . S
C938 C936 1.363 . S
C938 C939 1.370 . S
C938 C942 1.524 . S
C939 C931 1.503 . S
C939 C938 1.370 . S
C939 C940 1.403 . S
C940 C939 1.403 . S
C940 C941 1.404 . S
C940 C943 1.539 . S
C941 C937 1.408 . S
C941 C940 1.404 . S
C941 H953 0.930 . S
C942 C938 1.524 . S
C942 H954 0.956 . S
C942 H955 0.961 . S
C942 H956 0.961 . S
C943 C940 1.539 . S
C943 H957 0.958 . S
C943 H958 0.961 . S
C943 H959 0.960 . S
H944 C928 0.931 . S
H945 C933 0.929 . S
H946 C934 0.960 . S
H947 C934 0.962 . S
H948 C934 0.960 . S
H949 C935 0.961 . S
H950 C935 0.961 . S
H951 C935 0.961 . S
H952 C936 0.931 . S
H953 C941 0.930 . S
H954 C942 0.956 . S
H955 C942 0.961 . S
H956 C942 0.961 . S
H957 C943 0.958 . S
H958 C943 0.961 . S
H959 C943 0.960 . S
C960 C961 1.391 . S
C960 C962 1.394 . S
C960 H976 0.931 . S
C961 C960 1.391 . S
C961 C965 1.376 . S
C962 C960 1.394 . S
C962 C963 1.369 . S
C962 C966 1.531 . S
C963 C962 1.369 . S
C963 C964 1.410 . S
C963 C971 1.503 . S
C964 C963 1.410 . S
C964 C965 1.392 . S
C964 C967 1.511 . S
C965 C961 1.376 . S
C965 C964 1.392 . S
C965 H977 0.929 . S
C966 C962 1.531 . S
C966 H978 0.960 . S
C966 H979 0.962 . S
C966 H980 0.960 . S
C967 C964 1.511 . S
C967 H981 0.961 . S
C967 H982 0.961 . S
C967 H983 0.961 . S
C968 C969 1.370 . S
C968 C970 1.363 . S
C968 H984 0.931 . S
C969 C968 1.370 . S
C969 C973 1.408 . S
C970 C968 1.363 . S
C970 C971 1.370 . S
C970 C974 1.524 . S
C971 C963 1.503 . S
C971 C970 1.370 . S
C971 C972 1.403 . S
C972 C971 1.403 . S
C972 C973 1.404 . S
C972 C975 1.539 . S
C973 C969 1.408 . S
C973 C972 1.404 . S
C973 H985 0.930 . S
C974 C970 1.524 . S
C974 H986 0.956 . S
C974 H987 0.961 . S
C974 H988 0.961 . S
C975 C972 1.539 . S
C975 H989 0.958 . S
C975 H990 0.961 . S
C975 H991 0.960 . S
H976 C960 0.931 . S
H977 C965 0.929 . S
H978 C966 0.960 . S
H979 C966 0.962 . S
H980 C966 0.960 . S
H981 C967 0.961 . S
H982 C967 0.961 . S
H983 C967 0.961 . S
H984 C968 0.931 . S
H985 C973 0.930 . S
H986 C974 0.956 . S
H987 C974 0.961 . S
H988 C974 0.961 . S
H989 C975 0.958 . S
H990 C975 0.961 . S
H991 C975 0.960 . S
C992 C993 1.391 . S
C992 C994 1.394 . S
C992 H1008 0.931 . S
C993 C992 1.391 . S
C993 C997 1.376 . S
C994 C992 1.394 . S
C994 C995 1.369 . S
C994 C998 1.531 . S
C995 C994 1.369 . S
C995 C996 1.410 . S
C995 C1003 1.503 . S
C996 C995 1.410 . S
C996 C997 1.392 . S
C996 C999 1.511 . S
C997 C993 1.376 . S
C997 C996 1.392 . S
C997 H1009 0.929 . S
C998 C994 1.531 . S
C998 H1010 0.960 . S
C998 H1011 0.962 . S
C998 H1012 0.960 . S
C999 C996 1.511 . S
C999 H1013 0.961 . S
C999 H1014 0.961 . S
C999 H1015 0.961 . S
C1000 C1001 1.370 . S
C1000 C1002 1.363 . S
C1000 H1016 0.931 . S
C1001 C1000 1.370 . S
C1001 C1005 1.408 . S
C1002 C1000 1.363 . S
C1002 C1003 1.370 . S
C1002 C1006 1.524 . S
C1003 C995 1.503 . S
C1003 C1002 1.370 . S
C1003 C1004 1.403 . S
C1004 C1003 1.403 . S
C1004 C1005 1.404 . S
C1004 C1007 1.539 . S
C1005 C1001 1.408 . S
C1005 C1004 1.404 . S
C1005 H1017 0.930 . S
C1006 C1002 1.524 . S
C1006 H1018 0.956 . S
C1006 H1019 0.961 . S
C1006 H1020 0.961 . S
C1007 C1004 1.539 . S
C1007 H1021 0.958 . S
C1007 H1022 0.961 . S
C1007 H1023 0.960 . S
H1008 C992 0.931 . S
H1009 C997 0.929 . S
H1010 C998 0.960 . S
H1011 C998 0.962 . S
H1012 C998 0.960 . S
H1013 C999 0.961 . S
H1014 C999 0.961 . S
H1015 C999 0.961 . S
H1016 C1000 0.931 . S
H1017 C1005 0.930 . S
H1018 C1006 0.956 . S
H1019 C1006 0.961 . S
H1020 C1006 0.961 . S
H1021 C1007 0.958 . S
H1022 C1007 0.961 . S
H1023 C1007 0.960 . S
C1024 C1025 1.391 . S
C1024 C1026 1.394 . S
C1024 H1040 0.931 . S
C1025 C1024 1.391 . S
C1025 C1029 1.376 . S
C1026 C1024 1.394 . S
C1026 C1027 1.369 . S
C1026 C1030 1.531 . S
C1027 C1026 1.369 . S
C1027 C1028 1.410 . S
C1027 C1035 1.503 . S
C1028 C1027 1.410 . S
C1028 C1029 1.392 . S
C1028 C1031 1.511 . S
C1029 C1025 1.376 . S
C1029 C1028 1.392 . S
C1029 H1041 0.929 . S
C1030 C1026 1.531 . S
C1030 H1042 0.960 . S
C1030 H1043 0.962 . S
C1030 H1044 0.960 . S
C1031 C1028 1.511 . S
C1031 H1045 0.961 . S
C1031 H1046 0.961 . S
C1031 H1047 0.961 . S
C1032 C1033 1.370 . S
C1032 C1034 1.363 . S
C1032 H1048 0.931 . S
C1033 C1032 1.370 . S
C1033 C1037 1.408 . S
C1034 C1032 1.363 . S
C1034 C1035 1.370 . S
C1034 C1038 1.524 . S
C1035 C1027 1.503 . S
C1035 C1034 1.370 . S
C1035 C1036 1.403 . S
C1036 C1035 1.403 . S
C1036 C1037 1.404 . S
C1036 C1039 1.539 . S
C1037 C1033 1.408 . S
C1037 C1036 1.404 . S
C1037 H1049 0.930 . S
C1038 C1034 1.524 . S
C1038 H1050 0.956 . S
C1038 H1051 0.961 . S
C1038 H1052 0.961 . S
C1039 C1036 1.539 . S
C1039 H1053 0.958 . S
C1039 H1054 0.961 . S
C1039 H1055 0.960 . S
H1040 C1024 0.931 . S
H1041 C1029 0.929 . S
H1042 C1030 0.960 . S
H1043 C1030 0.962 . S
H1044 C1030 0.960 . S
H1045 C1031 0.961 . S
H1046 C1031 0.961 . S
H1047 C1031 0.961 . S
H1048 C1032 0.931 . S
H1049 C1037 0.930 . S
H1050 C1038 0.956 . S
H1051 C1038 0.961 . S
H1052 C1038 0.961 . S
H1053 C1039 0.958 . S
H1054 C1039 0.961 . S
H1055 C1039 0.960 . S
C1056 C1057 1.391 . S
C1056 C1058 1.394 . S
C1056 H1072 0.931 . S
C1057 C1056 1.391 . S
C1057 C1061 1.376 . S
C1058 C1056 1.394 . S
C1058 C1059 1.369 . S
C1058 C1062 1.531 . S
C1059 C1058 1.369 . S
C1059 C1060 1.410 . S
C1059 C1067 1.503 . S
C1060 C1059 1.410 . S
C1060 C1061 1.392 . S
C1060 C1063 1.511 . S
C1061 C1057 1.376 . S
C1061 C1060 1.392 . S
C1061 H1073 0.929 . S
C1062 C1058 1.531 . S
C1062 H1074 0.960 . S
C1062 H1075 0.962 . S
C1062 H1076 0.960 . S
C1063 C1060 1.511 . S
C1063 H1077 0.961 . S
C1063 H1078 0.961 . S
C1063 H1079 0.961 . S
C1064 C1065 1.370 . S
C1064 C1066 1.363 . S
C1064 H1080 0.931 . S
C1065 C1064 1.370 . S
C1065 C1069 1.408 . S
C1066 C1064 1.363 . S
C1066 C1067 1.370 . S
C1066 C1070 1.524 . S
C1067 C1059 1.503 . S
C1067 C1066 1.370 . S
C1067 C1068 1.403 . S
C1068 C1067 1.403 . S
C1068 C1069 1.404 . S
C1068 C1071 1.539 . S
C1069 C1065 1.408 . S
C1069 C1068 1.404 . S
C1069 H1081 0.930 . S
C1070 C1066 1.524 . S
C1070 H1082 0.956 . S
C1070 H1083 0.961 . S
C1070 H1084 0.961 . S
C1071 C1068 1.539 . S
C1071 H1085 0.958 . S
C1071 H1086 0.961 . S
C1071 H1087 0.960 . S
H1072 C1056 0.931 . S
H1073 C1061 0.929 . S
H1074 C1062 0.960 . S
H1075 C1062 0.962 . S
H1076 C1062 0.960 . S
H1077 C1063 0.961 . S
H1078 C1063 0.961 . S
H1079 C1063 0.961 . S
H1080 C1064 0.931 . S
H1081 C1069 0.930 . S
H1082 C1070 0.956 . S
H1083 C1070 0.961 . S
H1084 C1070 0.961 . S
H1085 C1071 0.958 . S
H1086 C1071 0.961 . S
H1087 C1071 0.960 . S
C1088 C1089 1.391 . S
C1088 C1090 1.394 . S
C1088 H1104 0.931 . S
C1089 C1088 1.391 . S
C1089 C1093 1.376 . S
C1090 C1088 1.394 . S
C1090 C1091 1.369 . S
C1090 C1094 1.531 . S
C1091 C1090 1.369 . S
C1091 C1092 1.410 . S
C1091 C1099 1.503 . S
C1092 C1091 1.410 . S
C1092 C1093 1.392 . S
C1092 C1095 1.511 . S
C1093 C1089 1.376 . S
C1093 C1092 1.392 . S
C1093 H1105 0.929 . S
C1094 C1090 1.531 . S
C1094 H1106 0.960 . S
C1094 H1107 0.962 . S
C1094 H1108 0.960 . S
C1095 C1092 1.511 . S
C1095 H1109 0.961 . S
C1095 H1110 0.961 . S
C1095 H1111 0.961 . S
C1096 C1097 1.370 . S
C1096 C1098 1.363 . S
C1096 H1112 0.931 . S
C1097 C1096 1.370 . S
C1097 C1101 1.408 . S
C1098 C1096 1.363 . S
C1098 C1099 1.370 . S
C1098 C1102 1.524 . S
C1099 C1091 1.503 . S
C1099 C1098 1.370 . S
C1099 C1100 1.403 . S
C1100 C1099 1.403 . S
C1100 C1101 1.404 . S
C1100 C1103 1.539 . S
C1101 C1097 1.408 . S
C1101 C1100 1.404 . S
C1101 H1113 0.930 . S
C1102 C1098 1.524 . S
C1102 H1114 0.956 . S
C1102 H1115 0.961 . S
C1102 H1116 0.961 . S
C1103 C1100 1.539 . S
C1103 H1117 0.958 . S
C1103 H1118 0.961 . S
C1103 H1119 0.960 . S
H1104 C1088 0.931 . S
H1105 C1093 0.929 . S
H1106 C1094 0.960 . S
H1107 C1094 0.962 . S
H1108 C1094 0.960 . S
H1109 C1095 0.961 . S
H1110 C1095 0.961 . S
H1111 C1095 0.961 . S
H1112 C1096 0.931 . S
H1113 C1101 0.930 . S
H1114 C1102 0.956 . S
H1115 C1102 0.961 . S
H1116 C1102 0.961 . S
H1117 C1103 0.958 . S
H1118 C1103 0.961 . S
H1119 C1103 0.960 . S
C1120 C1121 1.391 . S
C1120 C1122 1.394 . S
C1120 H1136 0.931 . S
C1121 C1120 1.391 . S
C1121 C1125 1.376 . S
C1122 C1120 1.394 . S
C1122 C1123 1.369 . S
C1122 C1126 1.531 . S
C1123 C1122 1.369 . S
C1123 C1124 1.410 . S
C1123 C1131 1.503 . S
C1124 C1123 1.410 . S
C1124 C1125 1.392 . S
C1124 C1127 1.511 . S
C1125 C1121 1.376 . S
C1125 C1124 1.392 . S
C1125 H1137 0.929 . S
C1126 C1122 1.531 . S
C1126 H1138 0.960 . S
C1126 H1139 0.962 . S
C1126 H1140 0.960 . S
C1127 C1124 1.511 . S
C1127 H1141 0.961 . S
C1127 H1142 0.961 . S
C1127 H1143 0.961 . S
C1128 C1129 1.370 . S
C1128 C1130 1.363 . S
C1128 H1144 0.931 . S
C1129 C1128 1.370 . S
C1129 C1133 1.408 . S
C1130 C1128 1.363 . S
C1130 C1131 1.370 . S
C1130 C1134 1.524 . S
C1131 C1123 1.503 . S
C1131 C1130 1.370 . S
C1131 C1132 1.403 . S
C1132 C1131 1.403 . S
C1132 C1133 1.404 . S
C1132 C1135 1.539 . S
C1133 C1129 1.408 . S
C1133 C1132 1.404 . S
C1133 H1145 0.930 . S
C1134 C1130 1.524 . S
C1134 H1146 0.956 . S
C1134 H1147 0.961 . S
C1134 H1148 0.961 . S
C1135 C1132 1.539 . S
C1135 H1149 0.958 . S
C1135 H1150 0.961 . S
C1135 H1151 0.960 . S
H1136 C1120 0.931 . S
H1137 C1125 0.929 . S
H1138 C1126 0.960 . S
H1139 C1126 0.962 . S
H1140 C1126 0.960 . S
H1141 C1127 0.961 . S
H1142 C1127 0.961 . S
H1143 C1127 0.961 . S
H1144 C1128 0.931 . S
H1145 C1133 0.930 . S
H1146 C1134 0.956 . S
H1147 C1134 0.961 . S
H1148 C1134 0.961 . S
H1149 C1135 0.958 . S
H1150 C1135 0.961 . S
H1151 C1135 0.960 . S
C1152 C1153 1.391 . S
C1152 C1154 1.394 . S
C1152 H1168 0.931 . S
C1153 C1152 1.391 . S
C1153 C1157 1.376 . S
C1154 C1152 1.394 . S
C1154 C1155 1.369 . S
C1154 C1158 1.531 . S
C1155 C1154 1.369 . S
C1155 C1156 1.410 . S
C1155 C1163 1.503 . S
C1156 C1155 1.410 . S
C1156 C1157 1.392 . S
C1156 C1159 1.511 . S
C1157 C1153 1.376 . S
C1157 C1156 1.392 . S
C1157 H1169 0.929 . S
C1158 C1154 1.531 . S
C1158 H1170 0.960 . S
C1158 H1171 0.962 . S
C1158 H1172 0.960 . S
C1159 C1156 1.511 . S
C1159 H1173 0.961 . S
C1159 H1174 0.961 . S
C1159 H1175 0.961 . S
C1160 C1161 1.370 . S
C1160 C1162 1.363 . S
C1160 H1176 0.931 . S
C1161 C1160 1.370 . S
C1161 C1165 1.408 . S
C1162 C1160 1.363 . S
C1162 C1163 1.370 . S
C1162 C1166 1.524 . S
C1163 C1155 1.503 . S
C1163 C1162 1.370 . S
C1163 C1164 1.403 . S
C1164 C1163 1.403 . S
C1164 C1165 1.404 . S
C1164 C1167 1.539 . S
C1165 C1161 1.408 . S
C1165 C1164 1.404 . S
C1165 H1177 0.930 . S
C1166 C1162 1.524 . S
C1166 H1178 0.956 . S
C1166 H1179 0.961 . S
C1166 H1180 0.961 . S
C1167 C1164 1.539 . S
C1167 H1181 0.958 . S
C1167 H1182 0.961 . S
C1167 H1183 0.960 . S
H1168 C1152 0.931 . S
H1169 C1157 0.929 . S
H1170 C1158 0.960 . S
H1171 C1158 0.962 . S
H1172 C1158 0.960 . S
H1173 C1159 0.961 . S
H1174 C1159 0.961 . S
H1175 C1159 0.961 . S
H1176 C1160 0.931 . S
H1177 C1165 0.930 . S
H1178 C1166 0.956 . S
H1179 C1166 0.961 . S
H1180 C1166 0.961 . S
H1181 C1167 0.958 . S
H1182 C1167 0.961 . S
H1183 C1167 0.960 . S
C1184 C1185 1.391 . S
C1184 C1186 1.394 . S
C1184 H1200 0.931 . S
C1185 C1184 1.391 . S
C1185 C1189 1.376 . S
C1186 C1184 1.394 . S
C1186 C1187 1.369 . S
C1186 C1190 1.531 . S
C1187 C1186 1.369 . S
C1187 C1188 1.410 . S
C1187 C1195 1.503 . S
C1188 C1187 1.410 . S
C1188 C1189 1.392 . S
C1188 C1191 1.511 . S
C1189 C1185 1.376 . S
C1189 C1188 1.392 . S
C1189 H1201 0.929 . S
C1190 C1186 1.531 . S
C1190 H1202 0.960 . S
C1190 H1203 0.962 . S
C1190 H1204 0.960 . S
C1191 C1188 1.511 . S
C1191 H1205 0.961 . S
C1191 H1206 0.961 . S
C1191 H1207 0.961 . S
C1192 C1193 1.370 . S
C1192 C1194 1.363 . S
C1192 H1208 0.931 . S
C1193 C1192 1.370 . S
C1193 C1197 1.408 . S
C1194 C1192 1.363 . S
C1194 C1195 1.370 . S
C1194 C1198 1.524 . S
C1195 C1187 1.503 . S
C1195 C1194 1.370 . S
C1195 C1196 1.403 . S
C1196 C1195 1.403 . S
C1196 C1197 1.404 . S
C1196 C1199 1.539 . S
C1197 C1193 1.408 . S
C1197 C1196 1.404 . S
C1197 H1209 0.930 . S
C1198 C1194 1.524 . S
C1198 H1210 0.956 . S
C1198 H1211 0.961 . S
C1198 H1212 0.961 . S
C1199 C1196 1.539 . S
C1199 H1213 0.958 . S
C1199 H1214 0.961 . S
C1199 H1215 0.960 . S
H1200 C1184 0.931 . S
H1201 C1189 0.929 . S
H1202 C1190 0.960 . S
H1203 C1190 0.962 . S
H1204 C1190 0.960 . S
H1205 C1191 0.961 . S
H1206 C1191 0.961 . S
H1207 C1191 0.961 . S
H1208 C1192 0.931 . S
H1209 C1197 0.930 . S
H1210 C1198 0.956 . S
H1211 C1198 0.961 . S
H1212 C1198 0.961 . S
H1213 C1199 0.958 . S
H1214 C1199 0.961 . S
H1215 C1199 0.960 . S
C1216 C1217 1.391 . S
C1216 C1218 1.394 . S
C1216 H1232 0.931 . S
C1217 C1216 1.391 . S
C1217 C1221 1.376 . S
C1218 C1216 1.394 . S
C1218 C1219 1.369 . S
C1218 C1222 1.531 . S
C1219 C1218 1.369 . S
C1219 C1220 1.410 . S
C1219 C1227 1.503 . S
C1220 C1219 1.410 . S
C1220 C1221 1.392 . S
C1220 C1223 1.511 . S
C1221 C1217 1.376 . S
C1221 C1220 1.392 . S
C1221 H1233 0.929 . S
C1222 C1218 1.531 . S
C1222 H1234 0.960 . S
C1222 H1235 0.962 . S
C1222 H1236 0.960 . S
C1223 C1220 1.511 . S
C1223 H1237 0.961 . S
C1223 H1238 0.961 . S
C1223 H1239 0.961 . S
C1224 C1225 1.370 . S
C1224 C1226 1.363 . S
C1224 H1240 0.931 . S
C1225 C1224 1.370 . S
C1225 C1229 1.408 . S
C1226 C1224 1.363 . S
C1226 C1227 1.370 . S
C1226 C1230 1.524 . S
C1227 C1219 1.503 . S
C1227 C1226 1.370 . S
C1227 C1228 1.403 . S
C1228 C1227 1.403 . S
C1228 C1229 1.404 . S
C1228 C1231 1.539 . S
C1229 C1225 1.408 . S
C1229 C1228 1.404 . S
C1229 H1241 0.930 . S
C1230 C1226 1.524 . S
C1230 H1242 0.956 . S
C1230 H1243 0.961 . S
C1230 H1244 0.961 . S
C1231 C1228 1.539 . S
C1231 H1245 0.958 . S
C1231 H1246 0.961 . S
C1231 H1247 0.960 . S
H1232 C1216 0.931 . S
H1233 C1221 0.929 . S
H1234 C1222 0.960 . S
H1235 C1222 0.962 . S
H1236 C1222 0.960 . S
H1237 C1223 0.961 . S
H1238 C1223 0.961 . S
H1239 C1223 0.961 . S
H1240 C1224 0.931 . S
H1241 C1229 0.930 . S
H1242 C1230 0.956 . S
H1243 C1230 0.961 . S
H1244 C1230 0.961 . S
H1245 C1231 0.958 . S
H1246 C1231 0.961 . S
H1247 C1231 0.960 . S
C1248 C1249 1.391 . S
C1248 C1250 1.394 . S
C1248 H1264 0.931 . S
C1249 C1248 1.391 . S
C1249 C1253 1.376 . S
C1250 C1248 1.394 . S
C1250 C1251 1.369 . S
C1250 C1254 1.531 . S
C1251 C1250 1.369 . S
C1251 C1252 1.410 . S
C1251 C1259 1.503 . S
C1252 C1251 1.410 . S
C1252 C1253 1.392 . S
C1252 C1255 1.511 . S
C1253 C1249 1.376 . S
C1253 C1252 1.392 . S
C1253 H1265 0.929 . S
C1254 C1250 1.531 . S
C1254 H1266 0.960 . S
C1254 H1267 0.962 . S
C1254 H1268 0.960 . S
C1255 C1252 1.511 . S
C1255 H1269 0.961 . S
C1255 H1270 0.961 . S
C1255 H1271 0.961 . S
C1256 C1257 1.370 . S
C1256 C1258 1.363 . S
C1256 H1272 0.931 . S
C1257 C1256 1.370 . S
C1257 C1261 1.408 . S
C1258 C1256 1.363 . S
C1258 C1259 1.370 . S
C1258 C1262 1.524 . S
C1259 C1251 1.503 . S
C1259 C1258 1.370 . S
C1259 C1260 1.403 . S
C1260 C1259 1.403 . S
C1260 C1261 1.404 . S
C1260 C1263 1.539 . S
C1261 C1257 1.408 . S
C1261 C1260 1.404 . S
C1261 H1273 0.930 . S
C1262 C1258 1.524 . S
C1262 H1274 0.956 . S
C1262 H1275 0.961 . S
C1262 H1276 0.961 . S
C1263 C1260 1.539 . S
C1263 H1277 0.958 . S
C1263 H1278 0.961 . S
C1263 H1279 0.960 . S
H1264 C1248 0.931 . S
H1265 C1253 0.929 . S
H1266 C1254 0.960 . S
H1267 C1254 0.962 . S
H1268 C1254 0.960 . S
H1269 C1255 0.961 . S
H1270 C1255 0.961 . S
H1271 C1255 0.961 . S
H1272 C1256 0.931 . S
H1273 C1261 0.930 . S
H1274 C1262 0.956 . S
H1275 C1262 0.961 . S
H1276 C1262 0.961 . S
H1277 C1263 0.958 . S
H1278 C1263 0.961 . S
H1279 C1263 0.960 . S
C1280 C1281 1.391 . S
C1280 C1282 1.394 . S
C1280 H1296 0.931 . S
C1281 C1280 1.391 . S
C1281 C1285 1.376 . S
C1282 C1280 1.394 . S
C1282 C1283 1.369 . S
C1282 C1286 1.531 . S
C1283 C1282 1.369 . S
C1283 C1284 1.410 . S
C1283 C1291 1.503 . S
C1284 C1283 1.410 . S
C1284 C1285 1.392 . S
C1284 C1287 1.511 . S
C1285 C1281 1.376 . S
C1285 C1284 1.392 . S
C1285 H1297 0.929 . S
C1286 C1282 1.531 . S
C1286 H1298 0.960 . S
C1286 H1299 0.962 . S
C1286 H1300 0.960 . S
C1287 C1284 1.511 . S
C1287 H1301 0.961 . S
C1287 H1302 0.961 . S
C1287 H1303 0.961 . S
C1288 C1289 1.370 . S
C1288 C1290 1.363 . S
C1288 H1304 0.931 . S
C1289 C1288 1.370 . S
C1289 C1293 1.408 . S
C1290 C1288 1.363 . S
C1290 C1291 1.370 . S
C1290 C1294 1.524 . S
C1291 C1283 1.503 . S
C1291 C1290 1.370 . S
C1291 C1292 1.403 . S
C1292 C1291 1.403 . S
C1292 C1293 1.404 . S
C1292 C1295 1.539 . S
C1293 C1289 1.408 . S
C1293 C1292 1.404 . S
C1293 H1305 0.930 . S
C1294 C1290 1.524 . S
C1294 H1306 0.956 . S
C1294 H1307 0.961 . S
C1294 H1308 0.961 . S
C1295 C1292 1.539 . S
C1295 H1309 0.958 . S
C1295 H1310 0.961 . S
C1295 H1311 0.960 . S
H1296 C1280 0.931 . S
H1297 C1285 0.929 . S
H1298 C1286 0.960 . S
H1299 C1286 0.962 . S
H1300 C1286 0.960 . S
H1301 C1287 0.961 . S
H1302 C1287 0.961 . S
H1303 C1287 0.961 . S
H1304 C1288 0.931 . S
H1305 C1293 0.930 . S
H1306 C1294 0.956 . S
H1307 C1294 0.961 . S
H1308 C1294 0.961 . S
H1309 C1295 0.958 . S
H1310 C1295 0.961 . S
H1311 C1295 0.960 . S
C1312 C1313 1.391 . S
C1312 C1314 1.394 . S
C1312 H1328 0.931 . S
C1313 C1312 1.391 . S
C1313 C1317 1.376 . S
C1314 C1312 1.394 . S
C1314 C1315 1.369 . S
C1314 C1318 1.531 . S
C1315 C1314 1.369 . S
C1315 C1316 1.410 . S
C1315 C1323 1.503 . S
C1316 C1315 1.410 . S
C1316 C1317 1.392 . S
C1316 C1319 1.511 . S
C1317 C1313 1.376 . S
C1317 C1316 1.392 . S
C1317 H1329 0.929 . S
C1318 C1314 1.531 . S
C1318 H1330 0.960 . S
C1318 H1331 0.962 . S
C1318 H1332 0.960 . S
C1319 C1316 1.511 . S
C1319 H1333 0.961 . S
C1319 H1334 0.961 . S
C1319 H1335 0.961 . S
C1320 C1321 1.370 . S
C1320 C1322 1.363 . S
C1320 H1336 0.931 . S
C1321 C1320 1.370 . S
C1321 C1325 1.408 . S
C1322 C1320 1.363 . S
C1322 C1323 1.370 . S
C1322 C1326 1.524 . S
C1323 C1315 1.503 . S
C1323 C1322 1.370 . S
C1323 C1324 1.403 . S
C1324 C1323 1.403 . S
C1324 C1325 1.404 . S
C1324 C1327 1.539 . S
C1325 C1321 1.408 . S
C1325 C1324 1.404 . S
C1325 H1337 0.930 . S
C1326 C1322 1.524 . S
C1326 H1338 0.956 . S
C1326 H1339 0.961 . S
C1326 H1340 0.961 . S
C1327 C1324 1.539 . S
C1327 H1341 0.958 . S
C1327 H1342 0.961 . S
C1327 H1343 0.960 . S
H1328 C1312 0.931 . S
H1329 C1317 0.929 . S
H1330 C1318 0.960 . S
H1331 C1318 0.962 . S
H1332 C1318 0.960 . S
H1333 C1319 0.961 . S
H1334 C1319 0.961 . S
H1335 C1319 0.961 . S
H1336 C1320 0.931 . S
H1337 C1325 0.930 . S
H1338 C1326 0.956 . S
H1339 C1326 0.961 . S
H1340 C1326 0.961 . S
H1341 C1327 0.958 . S
H1342 C1327 0.961 . S
H1343 C1327 0.960 . S
C1344 C1345 1.391 . S
C1344 C1346 1.394 . S
C1344 H1360 0.931 . S
C1345 C1344 1.391 . S
C1345 C1349 1.376 . S
C1346 C1344 1.394 . S
C1346 C1347 1.369 . S
C1346 C1350 1.531 . S
C1347 C1346 1.369 . S
C1347 C1348 1.410 . S
C1347 C1355 1.503 . S
C1348 C1347 1.410 . S
C1348 C1349 1.392 . S
C1348 C1351 1.511 . S
C1349 C1345 1.376 . S
C1349 C1348 1.392 . S
C1349 H1361 0.929 . S
C1350 C1346 1.531 . S
C1350 H1362 0.960 . S
C1350 H1363 0.962 . S
C1350 H1364 0.960 . S
C1351 C1348 1.511 . S
C1351 H1365 0.961 . S
C1351 H1366 0.961 . S
C1351 H1367 0.961 . S
C1352 C1353 1.370 . S
C1352 C1354 1.363 . S
C1352 H1368 0.931 . S
C1353 C1352 1.370 . S
C1353 C1357 1.408 . S
C1354 C1352 1.363 . S
C1354 C1355 1.370 . S
C1354 C1358 1.524 . S
C1355 C1347 1.503 . S
C1355 C1354 1.370 . S
C1355 C1356 1.403 . S
C1356 C1355 1.403 . S
C1356 C1357 1.404 . S
C1356 C1359 1.539 . S
C1357 C1353 1.408 . S
C1357 C1356 1.404 . S
C1357 H1369 0.930 . S
C1358 C1354 1.524 . S
C1358 H1370 0.956 . S
C1358 H1371 0.961 . S
C1358 H1372 0.961 . S
C1359 C1356 1.539 . S
C1359 H1373 0.958 . S
C1359 H1374 0.961 . S
C1359 H1375 0.960 . S
H1360 C1344 0.931 . S
H1361 C1349 0.929 . S
H1362 C1350 0.960 . S
H1363 C1350 0.962 . S
H1364 C1350 0.960 . S
H1365 C1351 0.961 . S
H1366 C1351 0.961 . S
H1367 C1351 0.961 . S
H1368 C1352 0.931 . S
H1369 C1357 0.930 . S
H1370 C1358 0.956 . S
H1371 C1358 0.961 . S
H1372 C1358 0.961 . S
H1373 C1359 0.958 . S
H1374 C1359 0.961 . S
H1375 C1359 0.960 . S
C1376 C1377 1.391 . S
C1376 C1378 1.394 . S
C1376 H1392 0.931 . S
C1377 C1376 1.391 . S
C1377 C1381 1.376 . S
C1378 C1376 1.394 . S
C1378 C1379 1.369 . S
C1378 C1382 1.531 . S
C1379 C1378 1.369 . S
C1379 C1380 1.410 . S
C1379 C1387 1.503 . S
C1380 C1379 1.410 . S
C1380 C1381 1.392 . S
C1380 C1383 1.511 . S
C1381 C1377 1.376 . S
C1381 C1380 1.392 . S
C1381 H1393 0.929 . S
C1382 C1378 1.531 . S
C1382 H1394 0.960 . S
C1382 H1395 0.962 . S
C1382 H1396 0.960 . S
C1383 C1380 1.511 . S
C1383 H1397 0.961 . S
C1383 H1398 0.961 . S
C1383 H1399 0.961 . S
C1384 C1385 1.370 . S
C1384 C1386 1.363 . S
C1384 H1400 0.931 . S
C1385 C1384 1.370 . S
C1385 C1389 1.408 . S
C1386 C1384 1.363 . S
C1386 C1387 1.370 . S
C1386 C1390 1.524 . S
C1387 C1379 1.503 . S
C1387 C1386 1.370 . S
C1387 C1388 1.403 . S
C1388 C1387 1.403 . S
C1388 C1389 1.404 . S
C1388 C1391 1.539 . S
C1389 C1385 1.408 . S
C1389 C1388 1.404 . S
C1389 H1401 0.930 . S
C1390 C1386 1.524 . S
C1390 H1402 0.956 . S
C1390 H1403 0.961 . S
C1390 H1404 0.961 . S
C1391 C1388 1.539 . S
C1391 H1405 0.958 . S
C1391 H1406 0.961 . S
C1391 H1407 0.960 . S
H1392 C1376 0.931 . S
H1393 C1381 0.929 . S
H1394 C1382 0.960 . S
H1395 C1382 0.962 . S
H1396 C1382 0.960 . S
H1397 C1383 0.961 . S
H1398 C1383 0.961 . S
H1399 C1383 0.961 . S
H1400 C1384 0.931 . S
H1401 C1389 0.930 . S
H1402 C1390 0.956 . S
H1403 C1390 0.961 . S
H1404 C1390 0.961 . S
H1405 C1391 0.958 . S
H1406 C1391 0.961 . S
H1407 C1391 0.960 . S
C1408 C1409 1.391 . S
C1408 C1410 1.394 . S
C1408 H1424 0.931 . S
C1409 C1408 1.391 . S
C1409 C1413 1.376 . S
C1410 C1408 1.394 . S
C1410 C1411 1.369 . S
C1410 C1414 1.531 . S
C1411 C1410 1.369 . S
C1411 C1412 1.410 . S
C1411 C1419 1.503 . S
C1412 C1411 1.410 . S
C1412 C1413 1.392 . S
C1412 C1415 1.511 . S
C1413 C1409 1.376 . S
C1413 C1412 1.392 . S
C1413 H1425 0.929 . S
C1414 C1410 1.531 . S
C1414 H1426 0.960 . S
C1414 H1427 0.962 . S
C1414 H1428 0.960 . S
C1415 C1412 1.511 . S
C1415 H1429 0.961 . S
C1415 H1430 0.961 . S
C1415 H1431 0.961 . S
C1416 C1417 1.370 . S
C1416 C1418 1.363 . S
C1416 H1432 0.931 . S
C1417 C1416 1.370 . S
C1417 C1421 1.408 . S
C1418 C1416 1.363 . S
C1418 C1419 1.370 . S
C1418 C1422 1.524 . S
C1419 C1411 1.503 . S
C1419 C1418 1.370 . S
C1419 C1420 1.403 . S
C1420 C1419 1.403 . S
C1420 C1421 1.404 . S
C1420 C1423 1.539 . S
C1421 C1417 1.408 . S
C1421 C1420 1.404 . S
C1421 H1433 0.930 . S
C1422 C1418 1.524 . S
C1422 H1434 0.956 . S
C1422 H1435 0.961 . S
C1422 H1436 0.961 . S
C1423 C1420 1.539 . S
C1423 H1437 0.958 . S
C1423 H1438 0.961 . S
C1423 H1439 0.960 . S
H1424 C1408 0.931 . S
H1425 C1413 0.929 . S
H1426 C1414 0.960 . S
H1427 C1414 0.962 . S
H1428 C1414 0.960 . S
H1429 C1415 0.961 . S
H1430 C1415 0.961 . S
H1431 C1415 0.961 . S
H1432 C1416 0.931 . S
H1433 C1421 0.930 . S
H1434 C1422 0.956 . S
H1435 C1422 0.961 . S
H1436 C1422 0.961 . S
H1437 C1423 0.958 . S
H1438 C1423 0.961 . S
H1439 C1423 0.960 . S
C1440 C1441 1.391 . S
C1440 C1442 1.394 . S
C1440 H1456 0.931 . S
C1441 C1440 1.391 . S
C1441 C1445 1.376 . S
C1442 C1440 1.394 . S
C1442 C1443 1.369 . S
C1442 C1446 1.531 . S
C1443 C1442 1.369 . S
C1443 C1444 1.410 . S
C1443 C1451 1.503 . S
C1444 C1443 1.410 . S
C1444 C1445 1.392 . S
C1444 C1447 1.511 . S
C1445 C1441 1.376 . S
C1445 C1444 1.392 . S
C1445 H1457 0.929 . S
C1446 C1442 1.531 . S
C1446 H1458 0.960 . S
C1446 H1459 0.962 . S
C1446 H1460 0.960 . S
C1447 C1444 1.511 . S
C1447 H1461 0.961 . S
C1447 H1462 0.961 . S
C1447 H1463 0.961 . S
C1448 C1449 1.370 . S
C1448 C1450 1.363 . S
C1448 H1464 0.931 . S
C1449 C1448 1.370 . S
C1449 C1453 1.408 . S
C1450 C1448 1.363 . S
C1450 C1451 1.370 . S
C1450 C1454 1.524 . S
C1451 C1443 1.503 . S
C1451 C1450 1.370 . S
C1451 C1452 1.403 . S
C1452 C1451 1.403 . S
C1452 C1453 1.404 . S
C1452 C1455 1.539 . S
C1453 C1449 1.408 . S
C1453 C1452 1.404 . S
C1453 H1465 0.930 . S
C1454 C1450 1.524 . S
C1454 H1466 0.956 . S
C1454 H1467 0.961 . S
C1454 H1468 0.961 . S
C1455 C1452 1.539 . S
C1455 H1469 0.958 . S
C1455 H1470 0.961 . S
C1455 H1471 0.960 . S
H1456 C1440 0.931 . S
H1457 C1445 0.929 . S
H1458 C1446 0.960 . S
H1459 C1446 0.962 . S
H1460 C1446 0.960 . S
H1461 C1447 0.961 . S
H1462 C1447 0.961 . S
H1463 C1447 0.961 . S
H1464 C1448 0.931 . S
H1465 C1453 0.930 . S
H1466 C1454 0.956 . S
H1467 C1454 0.961 . S
H1468 C1454 0.961 . S
H1469 C1455 0.958 . S
H1470 C1455 0.961 . S
H1471 C1455 0.960 . S
C1472 C1473 1.391 . S
C1472 C1474 1.394 . S
C1472 H1488 0.931 . S
C1473 C1472 1.391 . S
C1473 C1477 1.376 . S
C1474 C1472 1.394 . S
C1474 C1475 1.369 . S
C1474 C1478 1.531 . S
C1475 C1474 1.369 . S
C1475 C1476 1.410 . S
C1475 C1483 1.503 . S
C1476 C1475 1.410 . S
C1476 C1477 1.392 . S
C1476 C1479 1.511 . S
C1477 C1473 1.376 . S
C1477 C1476 1.392 . S
C1477 H1489 0.929 . S
C1478 C1474 1.531 . S
C1478 H1490 0.960 . S
C1478 H1491 0.962 . S
C1478 H1492 0.960 . S
C1479 C1476 1.511 . S
C1479 H1493 0.961 . S
C1479 H1494 0.961 . S
C1479 H1495 0.961 . S
C1480 C1481 1.370 . S
C1480 C1482 1.363 . S
C1480 H1496 0.931 . S
C1481 C1480 1.370 . S
C1481 C1485 1.408 . S
C1482 C1480 1.363 . S
C1482 C1483 1.370 . S
C1482 C1486 1.524 . S
C1483 C1475 1.503 . S
C1483 C1482 1.370 . S
C1483 C1484 1.403 . S
C1484 C1483 1.403 . S
C1484 C1485 1.404 . S
C1484 C1487 1.539 . S
C1485 C1481 1.408 . S
C1485 C1484 1.404 . S
C1485 H1497 0.930 . S
C1486 C1482 1.524 . S
C1486 H1498 0.956 . S
C1486 H1499 0.961 . S
C1486 H1500 0.961 . S
C1487 C1484 1.539 . S
C1487 H1501 0.958 . S
C1487 H1502 0.961 . S
C1487 H1503 0.960 . S
H1488 C1472 0.931 . S
H1489 C1477 0.929 . S
H1490 C1478 0.960 . S
H1491 C1478 0.962 . S
H1492 C1478 0.960 . S
H1493 C1479 0.961 . S
H1494 C1479 0.961 . S
H1495 C1479 0.961 . S
H1496 C1480 0.931 . S
H1497 C1485 0.930 . S
H1498 C1486 0.956 . S
H1499 C1486 0.961 . S
H1500 C1486 0.961 . S
H1501 C1487 0.958 . S
H1502 C1487 0.961 . S
H1503 C1487 0.960 . S
C1504 C1505 1.391 . S
C1504 C1506 1.394 . S
C1504 H1520 0.931 . S
C1505 C1504 1.391 . S
C1505 C1509 1.376 . S
C1506 C1504 1.394 . S
C1506 C1507 1.369 . S
C1506 C1510 1.531 . S
C1507 C1506 1.369 . S
C1507 C1508 1.410 . S
C1507 C1515 1.503 . S
C1508 C1507 1.410 . S
C1508 C1509 1.392 . S
C1508 C1511 1.511 . S
C1509 C1505 1.376 . S
C1509 C1508 1.392 . S
C1509 H1521 0.929 . S
C1510 C1506 1.531 . S
C1510 H1522 0.960 . S
C1510 H1523 0.962 . S
C1510 H1524 0.960 . S
C1511 C1508 1.511 . S
C1511 H1525 0.961 . S
C1511 H1526 0.961 . S
C1511 H1527 0.961 . S
C1512 C1513 1.370 . S
C1512 C1514 1.363 . S
C1512 H1528 0.931 . S
C1513 C1512 1.370 . S
C1513 C1517 1.408 . S
C1514 C1512 1.363 . S
C1514 C1515 1.370 . S
C1514 C1518 1.524 . S
C1515 C1507 1.503 . S
C1515 C1514 1.370 . S
C1515 C1516 1.403 . S
C1516 C1515 1.403 . S
C1516 C1517 1.404 . S
C1516 C1519 1.539 . S
C1517 C1513 1.408 . S
C1517 C1516 1.404 . S
C1517 H1529 0.930 . S
C1518 C1514 1.524 . S
C1518 H1530 0.956 . S
C1518 H1531 0.961 . S
C1518 H1532 0.961 . S
C1519 C1516 1.539 . S
C1519 H1533 0.958 . S
C1519 H1534 0.961 . S
C1519 H1535 0.960 . S
H1520 C1504 0.931 . S
H1521 C1509 0.929 . S
H1522 C1510 0.960 . S
H1523 C1510 0.962 . S
H1524 C1510 0.960 . S
H1525 C1511 0.961 . S
H1526 C1511 0.961 . S
H1527 C1511 0.961 . S
H1528 C1512 0.931 . S
H1529 C1517 0.930 . S
H1530 C1518 0.956 . S
H1531 C1518 0.961 . S
H1532 C1518 0.961 . S
H1533 C1519 0.958 . S
H1534 C1519 0.961 . S
H1535 C1519 0.960 . S
C1536 C1537 1.391 . S
C1536 C1538 1.394 . S
C1536 H1552 0.931 . S
C1537 C1536 1.391 . S
C1537 C1541 1.376 . S
C1538 C1536 1.394 . S
C1538 C1539 1.369 . S
C1538 C1542 1.531 . S
C1539 C1538 1.369 . S
C1539 C1540 1.410 . S
C1539 C1547 1.503 . S
C1540 C1539 1.410 . S
C1540 C1541 1.392 . S
C1540 C1543 1.511 . S
C1541 C1537 1.376 . S
C1541 C1540 1.392 . S
C1541 H1553 0.929 . S
C1542 C1538 1.531 . S
C1542 H1554 0.960 . S
C1542 H1555 0.962 . S
C1542 H1556 0.960 . S
C1543 C1540 1.511 . S
C1543 H1557 0.961 . S
C1543 H1558 0.961 . S
C1543 H1559 0.961 . S
C1544 C1545 1.370 . S
C1544 C1546 1.363 . S
C1544 H1560 0.931 . S
C1545 C1544 1.370 . S
C1545 C1549 1.408 . S
C1546 C1544 1.363 . S
C1546 C1547 1.370 . S
C1546 C1550 1.524 . S
C1547 C1539 1.503 . S
C1547 C1546 1.370 . S
C1547 C1548 1.403 . S
C1548 C1547 1.403 . S
C1548 C1549 1.404 . S
C1548 C1551 1.539 . S
C1549 C1545 1.408 . S
C1549 C1548 1.404 . S
C1549 H1561 0.930 . S
C1550 C1546 1.524 . S
C1550 H1562 0.956 . S
C1550 H1563 0.961 . S
C1550 H1564 0.961 . S
C1551 C1548 1.539 . S
C1551 H1565 0.958 . S
C1551 H1566 0.961 . S
C1551 H1567 0.960 . S
H1552 C1536 0.931 . S
H1553 C1541 0.929 . S
H1554 C1542 0.960 . S
H1555 C1542 0.962 . S
H1556 C1542 0.960 . S
H1557 C1543 0.961 . S
H1558 C1543 0.961 . S
H1559 C1543 0.961 . S
H1560 C1544 0.931 . S
H1561 C1549 0.930 . S
H1562 C1550 0.956 . S
H1563 C1550 0.961 . S
H1564 C1550 0.961 . S
H1565 C1551 0.958 . S
H1566 C1551 0.961 . S
H1567 C1551 0.960 . S
C1568 C1569 1.391 . S
C1568 C1570 1.394 . S
C1568 H1584 0.931 . S
C1569 C1568 1.391 . S
C1569 C1573 1.376 . S
C1570 C1568 1.394 . S
C1570 C1571 1.369 . S
C1570 C1574 1.531 . S
C1571 C1570 1.369 . S
C1571 C1572 1.410 . S
C1571 C1579 1.503 . S
C1572 C1571 1.410 . S
C1572 C1573 1.392 . S
C1572 C1575 1.511 . S
C1573 C1569 1.376 . S
C1573 C1572 1.392 . S
C1573 H1585 0.929 . S
C1574 C1570 1.531 . S
C1574 H1586 0.960 . S
C1574 H1587 0.962 . S
C1574 H1588 0.960 . S
C1575 C1572 1.511 . S
C1575 H1589 0.961 . S
C1575 H1590 0.961 . S
C1575 H1591 0.961 . S
C1576 C1577 1.370 . S
C1576 C1578 1.363 . S
C1576 H1592 0.931 . S
C1577 C1576 1.370 . S
C1577 C1581 1.408 . S
C1578 C1576 1.363 . S
C1578 C1579 1.370 . S
C1578 C1582 1.524 . S
C1579 C1571 1.503 . S
C1579 C1578 1.370 . S
C1579 C1580 1.403 . S
C1580 C1579 1.403 . S
C1580 C1581 1.404 . S
C1580 C1583 1.539 . S
C1581 C1577 1.408 . S
C1581 C1580 1.404 . S
C1581 H1593 0.930 . S
C1582 C1578 1.524 . S
C1582 H1594 0.956 . S
C1582 H1595 0.961 . S
C1582 H1596 0.961 . S
C1583 C1580 1.539 . S
C1583 H1597 0.958 . S
C1583 H1598 0.961 . S
C1583 H1599 0.960 . S
H1584 C1568 0.931 . S
H1585 C1573 0.929 . S
H1586 C1574 0.960 . S
H1587 C1574 0.962 . S
H1588 C1574 0.960 . S
H1589 C1575 0.961 . S
H1590 C1575 0.961 . S
H1591 C1575 0.961 . S
H1592 C1576 0.931 . S
H1593 C1581 0.930 . S
H1594 C1582 0.956 . S
H1595 C1582 0.961 . S
H1596 C1582 0.961 . S
H1597 C1583 0.958 . S
H1598 C1583 0.961 . S
H1599 C1583 0.960 . S
C1600 C1601 1.391 . S
C1600 C1602 1.394 . S
C1600 H1616 0.931 . S
C1601 C1600 1.391 . S
C1601 C1605 1.376 . S
C1602 C1600 1.394 . S
C1602 C1603 1.369 . S
C1602 C1606 1.531 . S
C1603 C1602 1.369 . S
C1603 C1604 1.410 . S
C1603 C1611 1.503 . S
C1604 C1603 1.410 . S
C1604 C1605 1.392 . S
C1604 C1607 1.511 . S
C1605 C1601 1.376 . S
C1605 C1604 1.392 . S
C1605 H1617 0.929 . S
C1606 C1602 1.531 . S
C1606 H1618 0.960 . S
C1606 H1619 0.962 . S
C1606 H1620 0.960 . S
C1607 C1604 1.511 . S
C1607 H1621 0.961 . S
C1607 H1622 0.961 . S
C1607 H1623 0.961 . S
C1608 C1609 1.370 . S
C1608 C1610 1.363 . S
C1608 H1624 0.931 . S
C1609 C1608 1.370 . S
C1609 C1613 1.408 . S
C1610 C1608 1.363 . S
C1610 C1611 1.370 . S
C1610 C1614 1.524 . S
C1611 C1603 1.503 . S
C1611 C1610 1.370 . S
C1611 C1612 1.403 . S
C1612 C1611 1.403 . S
C1612 C1613 1.404 . S
C1612 C1615 1.539 . S
C1613 C1609 1.408 . S
C1613 C1612 1.404 . S
C1613 H1625 0.930 . S
C1614 C1610 1.524 . S
C1614 H1626 0.956 . S
C1614 H1627 0.961 . S
C1614 H1628 0.961 . S
C1615 C1612 1.539 . S
C1615 H1629 0.958 . S
C1615 H1630 0.961 . S
C1615 H1631 0.960 . S
H1616 C1600 0.931 . S
H1617 C1605 0.929 . S
H1618 C1606 0.960 . S
H1619 C1606 0.962 . S
H1620 C1606 0.960 . S
H1621 C1607 0.961 . S
H1622 C1607 0.961 . S
H1623 C1607 0.961 . S
H1624 C1608 0.931 . S
H1625 C1613 0.930 . S
H1626 C1614 0.956 . S
H1627 C1614 0.961 . S
H1628 C1614 0.961 . S
H1629 C1615 0.958 . S
H1630 C1615 0.961 . S
H1631 C1615 0.960 . S
C1632 C1633 1.391 . S
C1632 C1634 1.394 . S
C1632 H1648 0.931 . S
C1633 C1632 1.391 . S
C1633 C1637 1.376 . S
C1634 C1632 1.394 . S
C1634 C1635 1.369 . S
C1634 C1638 1.531 . S
C1635 C1634 1.369 . S
C1635 C1636 1.410 . S
C1635 C1643 1.503 . S
C1636 C1635 1.410 . S
C1636 C1637 1.392 . S
C1636 C1639 1.511 . S
C1637 C1633 1.376 . S
C1637 C1636 1.392 . S
C1637 H1649 0.929 . S
C1638 C1634 1.531 . S
C1638 H1650 0.960 . S
C1638 H1651 0.962 . S
C1638 H1652 0.960 . S
C1639 C1636 1.511 . S
C1639 H1653 0.961 . S
C1639 H1654 0.961 . S
C1639 H1655 0.961 . S
C1640 C1641 1.370 . S
C1640 C1642 1.363 . S
C1640 H1656 0.931 . S
C1641 C1640 1.370 . S
C1641 C1645 1.408 . S
C1642 C1640 1.363 . S
C1642 C1643 1.370 . S
C1642 C1646 1.524 . S
C1643 C1635 1.503 . S
C1643 C1642 1.370 . S
C1643 C1644 1.403 . S
C1644 C1643 1.403 . S
C1644 C1645 1.404 . S
C1644 C1647 1.539 . S
C1645 C1641 1.408 . S
C1645 C1644 1.404 . S
C1645 H1657 0.930 . S
C1646 C1642 1.524 . S
C1646 H1658 0.956 . S
C1646 H1659 0.961 . S
C1646 H1660 0.961 . S
C1647 C1644 1.539 . S
C1647 H1661 0.958 . S
C1647 H1662 0.961 . S
C1647 H1663 0.960 . S
H1648 C1632 0.931 . S
H1649 C1637 0.929 . S
H1650 C1638 0.960 . S
H1651 C1638 0.962 . S
H1652 C1638 0.960 . S
H1653 C1639 0.961 . S
H1654 C1639 0.961 . S
H1655 C1639 0.961 . S
H1656 C1640 0.931 . S
H1657 C1645 0.930 . S
H1658 C1646 0.956 . S
H1659 C1646 0.961 . S
H1660 C1646 0.961 . S
H1661 C1647 0.958 . S
H1662 C1647 0.961 . S
H1663 C1647 0.960 . S
C1664 C1665 1.391 . S
C1664 C1666 1.394 . S
C1664 H1680 0.931 . S
C1665 C1664 1.391 . S
C1665 C1669 1.376 . S
C1666 C1664 1.394 . S
C1666 C1667 1.369 . S
C1666 C1670 1.531 . S
C1667 C1666 1.369 . S
C1667 C1668 1.410 . S
C1667 C1675 1.503 . S
C1668 C1667 1.410 . S
C1668 C1669 1.392 . S
C1668 C1671 1.511 . S
C1669 C1665 1.376 . S
C1669 C1668 1.392 . S
C1669 H1681 0.929 . S
C1670 C1666 1.531 . S
C1670 H1682 0.960 . S
C1670 H1683 0.962 . S
C1670 H1684 0.960 . S
C1671 C1668 1.511 . S
C1671 H1685 0.961 . S
C1671 H1686 0.961 . S
C1671 H1687 0.961 . S
C1672 C1673 1.370 . S
C1672 C1674 1.363 . S
C1672 H1688 0.931 . S
C1673 C1672 1.370 . S
C1673 C1677 1.408 . S
C1674 C1672 1.363 . S
C1674 C1675 1.370 . S
C1674 C1678 1.524 . S
C1675 C1667 1.503 . S
C1675 C1674 1.370 . S
C1675 C1676 1.403 . S
C1676 C1675 1.403 . S
C1676 C1677 1.404 . S
C1676 C1679 1.539 . S
C1677 C1673 1.408 . S
C1677 C1676 1.404 . S
C1677 H1689 0.930 . S
C1678 C1674 1.524 . S
C1678 H1690 0.956 . S
C1678 H1691 0.961 . S
C1678 H1692 0.961 . S
C1679 C1676 1.539 . S
C1679 H1693 0.958 . S
C1679 H1694 0.961 . S
C1679 H1695 0.960 . S
H1680 C1664 0.931 . S
H1681 C1669 0.929 . S
H1682 C1670 0.960 . S
H1683 C1670 0.962 . S
H1684 C1670 0.960 . S
H1685 C1671 0.961 . S
H1686 C1671 0.961 . S
H1687 C1671 0.961 . S
H1688 C1672 0.931 . S
H1689 C1677 0.930 . S
H1690 C1678 0.956 . S
H1691 C1678 0.961 . S
H1692 C1678 0.961 . S
H1693 C1679 0.958 . S
H1694 C1679 0.961 . S
H1695 C1679 0.960 . S
C1696 C1697 1.391 . S
C1696 C1698 1.394 . S
C1696 H1712 0.931 . S
C1697 C1696 1.391 . S
C1697 C1701 1.376 . S
C1698 C1696 1.394 . S
C1698 C1699 1.369 . S
C1698 C1702 1.531 . S
C1699 C1698 1.369 . S
C1699 C1700 1.410 . S
C1699 C1707 1.503 . S
C1700 C1699 1.410 . S
C1700 C1701 1.392 . S
C1700 C1703 1.511 . S
C1701 C1697 1.376 . S
C1701 C1700 1.392 . S
C1701 H1713 0.929 . S
C1702 C1698 1.531 . S
C1702 H1714 0.960 . S
C1702 H1715 0.962 . S
C1702 H1716 0.960 . S
C1703 C1700 1.511 . S
C1703 H1717 0.961 . S
C1703 H1718 0.961 . S
C1703 H1719 0.961 . S
C1704 C1705 1.370 . S
C1704 C1706 1.363 . S
C1704 H1720 0.931 . S
C1705 C1704 1.370 . S
C1705 C1709 1.408 . S
C1706 C1704 1.363 . S
C1706 C1707 1.370 . S
C1706 C1710 1.524 . S
C1707 C1699 1.503 . S
C1707 C1706 1.370 . S
C1707 C1708 1.403 . S
C1708 C1707 1.403 . S
C1708 C1709 1.404 . S
C1708 C1711 1.539 . S
C1709 C1705 1.408 . S
C1709 C1708 1.404 . S
C1709 H1721 0.930 . S
C1710 C1706 1.524 . S
C1710 H1722 0.956 . S
C1710 H1723 0.961 . S
C1710 H1724 0.961 . S
C1711 C1708 1.539 . S
C1711 H1725 0.958 . S
C1711 H1726 0.961 . S
C1711 H1727 0.960 . S
H1712 C1696 0.931 . S
H1713 C1701 0.929 . S
H1714 C1702 0.960 . S
H1715 C1702 0.962 . S
H1716 C1702 0.960 . S
H1717 C1703 0.961 . S
H1718 C1703 0.961 . S
H1719 C1703 0.961 . S
H1720 C1704 0.931 . S
H1721 C1709 0.930 . S
H1722 C1710 0.956 . S
H1723 C1710 0.961 . S
H1724 C1710 0.961 . S
H1725 C1711 0.958 . S
H1726 C1711 0.961 . S
H1727 C1711 0.960 . S
C1728 C1729 1.391 . S
C1728 C1730 1.394 . S
C1728 H1744 0.931 . S
C1729 C1728 1.391 . S
C1729 C1733 1.376 . S
C1730 C1728 1.394 . S
C1730 C1731 1.369 . S
C1730 C1734 1.531 . S
C1731 C1730 1.369 . S
C1731 C1732 1.410 . S
C1731 C1739 1.503 . S
C1732 C1731 1.410 . S
C1732 C1733 1.392 . S
C1732 C1735 1.511 . S
C1733 C1729 1.376 . S
C1733 C1732 1.392 . S
C1733 H1745 0.929 . S
C1734 C1730 1.531 . S
C1734 H1746 0.960 . S
C1734 H1747 0.962 . S
C1734 H1748 0.960 . S
C1735 C1732 1.511 . S
C1735 H1749 0.961 . S
C1735 H1750 0.961 . S
C1735 H1751 0.961 . S
C1736 C1737 1.370 . S
C1736 C1738 1.363 . S
C1736 H1752 0.931 . S
C1737 C1736 1.370 . S
C1737 C1741 1.408 . S
C1738 C1736 1.363 . S
C1738 C1739 1.370 . S
C1738 C1742 1.524 . S
C1739 C1731 1.503 . S
C1739 C1738 1.370 . S
C1739 C1740 1.403 . S
C1740 C1739 1.403 . S
C1740 C1741 1.404 . S
C1740 C1743 1.539 . S
C1741 C1737 1.408 . S
C1741 C1740 1.404 . S
C1741 H1753 0.930 . S
C1742 C1738 1.524 . S
C1742 H1754 0.956 . S
C1742 H1755 0.961 . S
C1742 H1756 0.961 . S
C1743 C1740 1.539 . S
C1743 H1757 0.958 . S
C1743 H1758 0.961 . S
C1743 H1759 0.960 . S
H1744 C1728 0.931 . S
H1745 C1733 0.929 . S
H1746 C1734 0.960 . S
H1747 C1734 0.962 . S
H1748 C1734 0.960 . S
H1749 C1735 0.961 . S
H1750 C1735 0.961 . S
H1751 C1735 0.961 . S
H1752 C1736 0.931 . S
H1753 C1741 0.930 . S
H1754 C1742 0.956 . S
H1755 C1742 0.961 . S
H1756 C1742 0.961 . S
H1757 C1743 0.958 . S
H1758 C1743 0.961 . S
H1759 C1743 0.960 . S
C1760 C1761 1.391 . S
C1760 C1762 1.394 . S
C1760 H1776 0.931 . S
C1761 C1760 1.391 . S
C1761 C1765 1.376 . S
C1762 C1760 1.394 . S
C1762 C1763 1.369 . S
C1762 C1766 1.531 . S
C1763 C1762 1.369 . S
C1763 C1764 1.410 . S
C1763 C1771 1.503 . S
C1764 C1763 1.410 . S
C1764 C1765 1.392 . S
C1764 C1767 1.511 . S
C1765 C1761 1.376 . S
C1765 C1764 1.392 . S
C1765 H1777 0.929 . S
C1766 C1762 1.531 . S
C1766 H1778 0.960 . S
C1766 H1779 0.962 . S
C1766 H1780 0.960 . S
C1767 C1764 1.511 . S
C1767 H1781 0.961 . S
C1767 H1782 0.961 . S
C1767 H1783 0.961 . S
C1768 C1769 1.370 . S
C1768 C1770 1.363 . S
C1768 H1784 0.931 . S
C1769 C1768 1.370 . S
C1769 C1773 1.408 . S
C1770 C1768 1.363 . S
C1770 C1771 1.370 . S
C1770 C1774 1.524 . S
C1771 C1763 1.503 . S
C1771 C1770 1.370 . S
C1771 C1772 1.403 . S
C1772 C1771 1.403 . S
C1772 C1773 1.404 . S
C1772 C1775 1.539 . S
C1773 C1769 1.408 . S
C1773 C1772 1.404 . S
C1773 H1785 0.930 . S
C1774 C1770 1.524 . S
C1774 H1786 0.956 . S
C1774 H1787 0.961 . S
C1774 H1788 0.961 . S
C1775 C1772 1.539 . S
C1775 H1789 0.958 . S
C1775 H1790 0.961 . S
C1775 H1791 0.960 . S
H1776 C1760 0.931 . S
H1777 C1765 0.929 . S
H1778 C1766 0.960 . S
H1779 C1766 0.962 . S
H1780 C1766 0.960 . S
H1781 C1767 0.961 . S
H1782 C1767 0.961 . S
H1783 C1767 0.961 . S
H1784 C1768 0.931 . S
H1785 C1773 0.930 . S
H1786 C1774 0.956 . S
H1787 C1774 0.961 . S
H1788 C1774 0.961 . S
H1789 C1775 0.958 . S
H1790 C1775 0.961 . S
H1791 C1775 0.960 . S
C1792 C1793 1.391 . S
C1792 C1794 1.394 . S
C1792 H1808 0.931 . S
C1793 C1792 1.391 . S
C1793 C1797 1.376 . S
C1794 C1792 1.394 . S
C1794 C1795 1.369 . S
C1794 C1798 1.531 . S
C1795 C1794 1.369 . S
C1795 C1796 1.410 . S
C1795 C1803 1.503 . S
C1796 C1795 1.410 . S
C1796 C1797 1.392 . S
C1796 C1799 1.511 . S
C1797 C1793 1.376 . S
C1797 C1796 1.392 . S
C1797 H1809 0.929 . S
C1798 C1794 1.531 . S
C1798 H1810 0.960 . S
C1798 H1811 0.962 . S
C1798 H1812 0.960 . S
C1799 C1796 1.511 . S
C1799 H1813 0.961 . S
C1799 H1814 0.961 . S
C1799 H1815 0.961 . S
C1800 C1801 1.370 . S
C1800 C1802 1.363 . S
C1800 H1816 0.931 . S
C1801 C1800 1.370 . S
C1801 C1805 1.408 . S
C1802 C1800 1.363 . S
C1802 C1803 1.370 . S
C1802 C1806 1.524 . S
C1803 C1795 1.503 . S
C1803 C1802 1.370 . S
C1803 C1804 1.403 . S
C1804 C1803 1.403 . S
C1804 C1805 1.404 . S
C1804 C1807 1.539 . S
C1805 C1801 1.408 . S
C1805 C1804 1.404 . S
C1805 H1817 0.930 . S
C1806 C1802 1.524 . S
C1806 H1818 0.956 . S
C1806 H1819 0.961 . S
C1806 H1820 0.961 . S
C1807 C1804 1.539 . S
C1807 H1821 0.958 . S
C1807 H1822 0.961 . S
C1807 H1823 0.960 . S
H1808 C1792 0.931 . S
H1809 C1797 0.929 . S
H1810 C1798 0.960 . S
H1811 C1798 0.962 . S
H1812 C1798 0.960 . S
H1813 C1799 0.961 . S
H1814 C1799 0.961 . S
H1815 C1799 0.961 . S
H1816 C1800 0.931 . S
H1817 C1805 0.930 . S
H1818 C1806 0.956 . S
H1819 C1806 0.961 . S
H1820 C1806 0.961 . S
H1821 C1807 0.958 . S
H1822 C1807 0.961 . S
H1823 C1807 0.960 . S
C1824 C1825 1.391 . S
C1824 C1826 1.394 . S
C1824 H1840 0.931 1_556 S
C1825 C1824 1.391 . S
C1825 C1829 1.376 . S
C1826 C1824 1.394 . S
C1826 C1827 1.369 . S
C1826 C1830 1.531 1_556 S
C1827 C1826 1.369 . S
C1827 C1828 1.410 . S
C1827 C1835 1.503 . S
C1828 C1827 1.410 . S
C1828 C1829 1.392 . S
C1828 C1831 1.511 . S
C1829 C1825 1.376 . S
C1829 C1828 1.392 . S
C1829 H1841 0.929 . S
C1830 C1826 1.531 1_554 S
C1830 H1842 0.960 1_554 S
C1830 H1843 0.962 . S
C1830 H1844 0.960 . S
C1831 C1828 1.511 . S
C1831 H1845 0.961 . S
C1831 H1846 0.961 . S
C1831 H1847 0.961 . S
C1832 C1833 1.370 . S
C1832 C1834 1.363 . S
C1832 H1848 0.931 . S
C1833 C1832 1.370 . S
C1833 C1837 1.408 . S
C1834 C1832 1.363 . S
C1834 C1835 1.370 . S
C1834 C1838 1.524 . S
C1835 C1827 1.503 . S
C1835 C1834 1.370 . S
C1835 C1836 1.403 . S
C1836 C1835 1.403 . S
C1836 C1837 1.404 . S
C1836 C1839 1.539 . S
C1837 C1833 1.408 . S
C1837 C1836 1.404 . S
C1837 H1849 0.930 . S
C1838 C1834 1.524 . S
C1838 H1850 0.956 . S
C1838 H1851 0.961 . S
C1838 H1852 0.961 . S
C1839 C1836 1.539 . S
C1839 H1853 0.958 . S
C1839 H1854 0.961 . S
C1839 H1855 0.960 . S
H1840 C1824 0.931 1_554 S
H1841 C1829 0.929 . S
H1842 C1830 0.960 1_556 S
H1843 C1830 0.962 . S
H1844 C1830 0.960 . S
H1845 C1831 0.961 . S
H1846 C1831 0.961 . S
H1847 C1831 0.961 . S
H1848 C1832 0.931 . S
H1849 C1837 0.930 . S
H1850 C1838 0.956 . S
H1851 C1838 0.961 . S
H1852 C1838 0.961 . S
H1853 C1839 0.958 . S
H1854 C1839 0.961 . S
H1855 C1839 0.960 . S
C1856 C1857 1.391 . S
C1856 C1858 1.394 . S
C1856 H1872 0.931 . S
C1857 C1856 1.391 . S
C1857 C1861 1.376 . S
C1858 C1856 1.394 . S
C1858 C1859 1.369 . S
C1858 C1862 1.531 . S
C1859 C1858 1.369 . S
C1859 C1860 1.410 . S
C1859 C1867 1.503 . S
C1860 C1859 1.410 . S
C1860 C1861 1.392 . S
C1860 C1863 1.511 1_556 S
C1861 C1857 1.376 . S
C1861 C1860 1.392 . S
C1861 H1873 0.929 1_556 S
C1862 C1858 1.531 . S
C1862 H1874 0.960 . S
C1862 H1875 0.962 . S
C1862 H1876 0.960 . S
C1863 C1860 1.511 1_554 S
C1863 H1877 0.961 . S
C1863 H1878 0.961 1_554 S
C1863 H1879 0.961 . S
C1864 C1865 1.370 . S
C1864 C1866 1.363 . S
C1864 H1880 0.931 . S
C1865 C1864 1.370 . S
C1865 C1869 1.408 . S
C1866 C1864 1.363 . S
C1866 C1867 1.370 . S
C1866 C1870 1.524 . S
C1867 C1859 1.503 . S
C1867 C1866 1.370 . S
C1867 C1868 1.403 . S
C1868 C1867 1.403 . S
C1868 C1869 1.404 . S
C1868 C1871 1.539 . S
C1869 C1865 1.408 . S
C1869 C1868 1.404 . S
C1869 H1881 0.930 . S
C1870 C1866 1.524 . S
C1870 H1882 0.956 . S
C1870 H1883 0.961 . S
C1870 H1884 0.961 . S
C1871 C1868 1.539 . S
C1871 H1885 0.958 . S
C1871 H1886 0.961 . S
C1871 H1887 0.960 . S
H1872 C1856 0.931 . S
H1873 C1861 0.929 1_554 S
H1874 C1862 0.960 . S
H1875 C1862 0.962 . S
H1876 C1862 0.960 . S
H1877 C1863 0.961 . S
H1878 C1863 0.961 1_556 S
H1879 C1863 0.961 . S
H1880 C1864 0.931 . S
H1881 C1869 0.930 . S
H1882 C1870 0.956 . S
H1883 C1870 0.961 . S
H1884 C1870 0.961 . S
H1885 C1871 0.958 . S
H1886 C1871 0.961 . S
H1887 C1871 0.960 . S
C1888 C1889 1.391 . S
C1888 C1890 1.394 . S
C1888 H1904 0.931 . S
C1889 C1888 1.391 . S
C1889 C1893 1.376 . S
C1890 C1888 1.394 . S
C1890 C1891 1.369 . S
C1890 C1894 1.531 . S
C1891 C1890 1.369 . S
C1891 C1892 1.410 . S
C1891 C1899 1.503 . S
C1892 C1891 1.410 . S
C1892 C1893 1.392 . S
C1892 C1895 1.511 . S
C1893 C1889 1.376 . S
C1893 C1892 1.392 . S
C1893 H1905 0.929 . S
C1894 C1890 1.531 . S
C1894 H1906 0.960 . S
C1894 H1907 0.962 . S
C1894 H1908 0.960 . S
C1895 C1892 1.511 . S
C1895 H1909 0.961 . S
C1895 H1910 0.961 . S
C1895 H1911 0.961 . S
C1896 C1897 1.370 . S
C1896 C1898 1.363 . S
C1896 H1912 0.931 . S
C1897 C1896 1.370 . S
C1897 C1901 1.408 . S
C1898 C1896 1.363 . S
C1898 C1899 1.370 . S
C1898 C1902 1.524 . S
C1899 C1891 1.503 . S
C1899 C1898 1.370 . S
C1899 C1900 1.403 . S
C1900 C1899 1.403 . S
C1900 C1901 1.404 . S
C1900 C1903 1.539 . S
C1901 C1897 1.408 . S
C1901 C1900 1.404 . S
C1901 H1913 0.930 . S
C1902 C1898 1.524 . S
C1902 H1914 0.956 . S
C1902 H1915 0.961 . S
C1902 H1916 0.961 . S
C1903 C1900 1.539 . S
C1903 H1917 0.958 . S
C1903 H1918 0.961 . S
C1903 H1919 0.960 . S
H1904 C1888 0.931 . S
H1905 C1893 0.929 . S
H1906 C1894 0.960 . S
H1907 C1894 0.962 . S
H1908 C1894 0.960 . S
H1909 C1895 0.961 . S
H1910 C1895 0.961 . S
H1911 C1895 0.961 . S
H1912 C1896 0.931 . S
H1913 C1901 0.930 . S
H1914 C1902 0.956 . S
H1915 C1902 0.961 . S
H1916 C1902 0.961 . S
H1917 C1903 0.958 . S
H1918 C1903 0.961 . S
H1919 C1903 0.960 . S
C1920 C1921 1.391 . S
C1920 C1922 1.394 . S
C1920 H1936 0.931 . S
C1921 C1920 1.391 . S
C1921 C1925 1.376 . S
C1922 C1920 1.394 . S
C1922 C1923 1.369 . S
C1922 C1926 1.531 . S
C1923 C1922 1.369 . S
C1923 C1924 1.410 . S
C1923 C1931 1.503 . S
C1924 C1923 1.410 . S
C1924 C1925 1.392 . S
C1924 C1927 1.511 . S
C1925 C1921 1.376 . S
C1925 C1924 1.392 . S
C1925 H1937 0.929 . S
C1926 C1922 1.531 . S
C1926 H1938 0.960 . S
C1926 H1939 0.962 . S
C1926 H1940 0.960 . S
C1927 C1924 1.511 . S
C1927 H1941 0.961 . S
C1927 H1942 0.961 . S
C1927 H1943 0.961 . S
C1928 C1929 1.370 . S
C1928 C1930 1.363 . S
C1928 H1944 0.931 . S
C1929 C1928 1.370 . S
C1929 C1933 1.408 . S
C1930 C1928 1.363 . S
C1930 C1931 1.370 . S
C1930 C1934 1.524 . S
C1931 C1923 1.503 . S
C1931 C1930 1.370 . S
C1931 C1932 1.403 . S
C1932 C1931 1.403 . S
C1932 C1933 1.404 . S
C1932 C1935 1.539 . S
C1933 C1929 1.408 . S
C1933 C1932 1.404 . S
C1933 H1945 0.930 . S
C1934 C1930 1.524 . S
C1934 H1946 0.956 . S
C1934 H1947 0.961 . S
C1934 H1948 0.961 . S
C1935 C1932 1.539 . S
C1935 H1949 0.958 . S
C1935 H1950 0.961 . S
C1935 H1951 0.960 . S
H1936 C1920 0.931 . S
H1937 C1925 0.929 . S
H1938 C1926 0.960 . S
H1939 C1926 0.962 . S
H1940 C1926 0.960 . S
H1941 C1927 0.961 . S
H1942 C1927 0.961 . S
H1943 C1927 0.961 . S
H1944 C1928 0.931 . S
H1945 C1933 0.930 . S
H1946 C1934 0.956 . S
H1947 C1934 0.961 . S
H1948 C1934 0.961 . S
H1949 C1935 0.958 . S
H1950 C1935 0.961 . S
H1951 C1935 0.960 . S
C1952 C1953 1.391 . S
C1952 C1954 1.394 . S
C1952 H1968 0.931 1_556 S
C1953 C1952 1.391 . S
C1953 C1957 1.376 . S
C1954 C1952 1.394 . S
C1954 C1955 1.369 . S
C1954 C1958 1.531 . S
C1955 C1954 1.369 . S
C1955 C1956 1.410 . S
C1955 C1963 1.503 . S
C1956 C1955 1.410 . S
C1956 C1957 1.392 . S
C1956 C1959 1.511 . S
C1957 C1953 1.376 . S
C1957 C1956 1.392 . S
C1957 H1969 0.929 . S
C1958 C1954 1.531 . S
C1958 H1970 0.960 . S
C1958 H1971 0.962 . S
C1958 H1972 0.960 1_556 S
C1959 C1956 1.511 . S
C1959 H1973 0.961 . S
C1959 H1974 0.961 . S
C1959 H1975 0.961 . S
C1960 C1961 1.370 . S
C1960 C1962 1.363 . S
C1960 H1976 0.931 . S
C1961 C1960 1.370 . S
C1961 C1965 1.408 . S
C1962 C1960 1.363 . S
C1962 C1963 1.370 . S
C1962 C1966 1.524 . S
C1963 C1955 1.503 . S
C1963 C1962 1.370 . S
C1963 C1964 1.403 . S
C1964 C1963 1.403 . S
C1964 C1965 1.404 . S
C1964 C1967 1.539 . S
C1965 C1961 1.408 . S
C1965 C1964 1.404 . S
C1965 H1977 0.930 . S
C1966 C1962 1.524 . S
C1966 H1978 0.956 . S
C1966 H1979 0.961 . S
C1966 H1980 0.961 . S
C1967 C1964 1.539 . S
C1967 H1981 0.958 . S
C1967 H1982 0.961 . S
C1967 H1983 0.960 . S
H1968 C1952 0.931 1_554 S
H1969 C1957 0.929 . S
H1970 C1958 0.960 . S
H1971 C1958 0.962 . S
H1972 C1958 0.960 1_554 S
H1973 C1959 0.961 . S
H1974 C1959 0.961 . S
H1975 C1959 0.961 . S
H1976 C1960 0.931 . S
H1977 C1965 0.930 . S
H1978 C1966 0.956 . S
H1979 C1966 0.961 . S
H1980 C1966 0.961 . S
H1981 C1967 0.958 . S
H1982 C1967 0.961 . S
H1983 C1967 0.960 . S
C1984 C1985 1.391 . S
C1984 C1986 1.394 . S
C1984 H2000 0.931 . S
C1985 C1984 1.391 . S
C1985 C1989 1.376 . S
C1986 C1984 1.394 . S
C1986 C1987 1.369 . S
C1986 C1990 1.531 . S
C1987 C1986 1.369 . S
C1987 C1988 1.410 . S
C1987 C1995 1.503 . S
C1988 C1987 1.410 . S
C1988 C1989 1.392 . S
C1988 C1991 1.507 1_556 S
C1989 C1985 1.376 . S
C1989 C1988 1.392 . S
C1989 H2001 0.929 1_556 S
C1990 C1986 1.531 . S
C1990 H2002 0.960 . S
C1990 H2003 0.962 . S
C1990 H2004 0.960 . S
C1991 C1988 1.507 1_554 S
C1991 H2005 0.965 . S
C1991 H2006 0.955 1_554 S
C1991 H2007 0.967 . S
C1992 C1993 1.370 . S
C1992 C1994 1.363 . S
C1992 H2008 0.931 . S
C1993 C1992 1.370 . S
C1993 C1997 1.408 . S
C1994 C1992 1.363 . S
C1994 C1995 1.370 . S
C1994 C1998 1.524 . S
C1995 C1987 1.503 . S
C1995 C1994 1.370 . S
C1995 C1996 1.403 . S
C1996 C1995 1.403 . S
C1996 C1997 1.404 . S
C1996 C1999 1.539 . S
C1997 C1993 1.408 . S
C1997 C1996 1.404 . S
C1997 H2009 0.930 . S
C1998 C1994 1.524 . S
C1998 H2010 0.956 . S
C1998 H2011 0.961 . S
C1998 H2012 0.961 . S
C1999 C1996 1.539 . S
C1999 H2013 0.958 . S
C1999 H2014 0.961 . S
C1999 H2015 0.960 . S
H2000 C1984 0.931 . S
H2001 C1989 0.929 1_554 S
H2002 C1990 0.960 . S
H2003 C1990 0.962 . S
H2004 C1990 0.960 . S
H2005 C1991 0.965 . S
H2006 C1991 0.955 1_556 S
H2007 C1991 0.967 . S
H2008 C1992 0.931 . S
H2009 C1997 0.930 . S
H2010 C1998 0.956 . S
H2011 C1998 0.961 . S
H2012 C1998 0.961 . S
H2013 C1999 0.958 . S
H2014 C1999 0.961 . S
H2015 C1999 0.960 . S
C2016 C2017 1.391 . S
C2016 C2018 1.394 . S
C2016 H2032 0.931 . S
C2017 C2016 1.391 . S
C2017 C2021 1.376 . S
C2018 C2016 1.394 . S
C2018 C2019 1.369 . S
C2018 C2022 1.531 . S
C2019 C2018 1.369 . S
C2019 C2020 1.410 . S
C2019 C2027 1.503 . S
C2020 C2019 1.410 . S
C2020 C2021 1.392 . S
C2020 C2023 1.511 . S
C2021 C2017 1.376 . S
C2021 C2020 1.392 . S
C2021 H2033 0.929 . S
C2022 C2018 1.531 . S
C2022 H2034 0.960 . S
C2022 H2035 0.962 . S
C2022 H2036 0.960 . S
C2023 C2020 1.511 . S
C2023 H2037 0.961 . S
C2023 H2038 0.961 . S
C2023 H2039 0.961 . S
C2024 C2025 1.370 . S
C2024 C2026 1.363 . S
C2024 H2040 0.931 . S
C2025 C2024 1.370 . S
C2025 C2029 1.408 . S
C2026 C2024 1.363 . S
C2026 C2027 1.370 . S
C2026 C2030 1.524 . S
C2027 C2019 1.503 . S
C2027 C2026 1.370 . S
C2027 C2028 1.403 . S
C2028 C2027 1.403 . S
C2028 C2029 1.404 . S
C2028 C2031 1.539 . S
C2029 C2025 1.408 . S
C2029 C2028 1.404 . S
C2029 H2041 0.930 . S
C2030 C2026 1.524 . S
C2030 H2042 0.956 . S
C2030 H2043 0.961 . S
C2030 H2044 0.961 . S
C2031 C2028 1.539 . S
C2031 H2045 0.958 . S
C2031 H2046 0.961 . S
C2031 H2047 0.960 . S
H2032 C2016 0.931 . S
H2033 C2021 0.929 . S
H2034 C2022 0.960 . S
H2035 C2022 0.962 . S
H2036 C2022 0.960 . S
H2037 C2023 0.961 . S
H2038 C2023 0.961 . S
H2039 C2023 0.961 . S
H2040 C2024 0.931 . S
H2041 C2029 0.930 . S
H2042 C2030 0.956 . S
H2043 C2030 0.961 . S
H2044 C2030 0.961 . S
H2045 C2031 0.958 . S
H2046 C2031 0.961 . S
H2047 C2031 0.960 . S
C2048 C2049 1.391 . S
C2048 C2050 1.394 . S
C2048 H2064 0.931 . S
C2049 C2048 1.391 . S
C2049 C2053 1.376 . S
C2050 C2048 1.394 . S
C2050 C2051 1.369 . S
C2050 C2054 1.531 . S
C2051 C2050 1.369 . S
C2051 C2052 1.410 . S
C2051 C2059 1.503 . S
C2052 C2051 1.410 . S
C2052 C2053 1.392 . S
C2052 C2055 1.511 . S
C2053 C2049 1.376 . S
C2053 C2052 1.392 . S
C2053 H2065 0.929 . S
C2054 C2050 1.531 . S
C2054 H2066 0.960 . S
C2054 H2067 0.962 . S
C2054 H2068 0.960 . S
C2055 C2052 1.511 . S
C2055 H2069 0.961 . S
C2055 H2070 0.961 . S
C2055 H2071 0.961 . S
C2056 C2057 1.370 . S
C2056 C2058 1.363 . S
C2056 H2072 0.931 . S
C2057 C2056 1.370 . S
C2057 C2061 1.408 . S
C2058 C2056 1.363 . S
C2058 C2059 1.370 . S
C2058 C2062 1.524 . S
C2059 C2051 1.503 . S
C2059 C2058 1.370 . S
C2059 C2060 1.403 . S
C2060 C2059 1.403 . S
C2060 C2061 1.404 . S
C2060 C2063 1.539 . S
C2061 C2057 1.408 . S
C2061 C2060 1.404 . S
C2061 H2073 0.930 . S
C2062 C2058 1.524 . S
C2062 H2074 0.956 . S
C2062 H2075 0.961 . S
C2062 H2076 0.961 . S
C2063 C2060 1.539 . S
C2063 H2077 0.958 . S
C2063 H2078 0.961 . S
C2063 H2079 0.960 . S
H2064 C2048 0.931 . S
H2065 C2053 0.929 . S
H2066 C2054 0.960 . S
H2067 C2054 0.962 . S
H2068 C2054 0.960 . S
H2069 C2055 0.961 . S
H2070 C2055 0.961 . S
H2071 C2055 0.961 . S
H2072 C2056 0.931 . S
H2073 C2061 0.930 . S
H2074 C2062 0.956 . S
H2075 C2062 0.961 . S
H2076 C2062 0.961 . S
H2077 C2063 0.958 . S
H2078 C2063 0.961 . S
H2079 C2063 0.960 . S
C2080 C2081 1.391 . S
C2080 C2082 1.394 . S
C2080 H2096 0.931 . S
C2081 C2080 1.391 . S
C2081 C2085 1.376 . S
C2082 C2080 1.394 . S
C2082 C2083 1.369 . S
C2082 C2086 1.531 . S
C2083 C2082 1.369 . S
C2083 C2084 1.410 . S
C2083 C2091 1.503 . S
C2084 C2083 1.410 . S
C2084 C2085 1.392 . S
C2084 C2087 1.511 . S
C2085 C2081 1.376 . S
C2085 C2084 1.392 . S
C2085 H2097 0.929 . S
C2086 C2082 1.531 . S
C2086 H2098 0.960 . S
C2086 H2099 0.962 . S
C2086 H2100 0.960 . S
C2087 C2084 1.511 . S
C2087 H2101 0.961 . S
C2087 H2102 0.961 . S
C2087 H2103 0.961 . S
C2088 C2089 1.370 . S
C2088 C2090 1.363 . S
C2088 H2104 0.931 . S
C2089 C2088 1.370 . S
C2089 C2093 1.408 . S
C2090 C2088 1.363 . S
C2090 C2091 1.370 . S
C2090 C2094 1.524 . S
C2091 C2083 1.503 . S
C2091 C2090 1.370 . S
C2091 C2092 1.403 . S
C2092 C2091 1.403 . S
C2092 C2093 1.404 . S
C2092 C2095 1.539 . S
C2093 C2089 1.408 . S
C2093 C2092 1.404 . S
C2093 H2105 0.930 . S
C2094 C2090 1.524 . S
C2094 H2106 0.956 . S
C2094 H2107 0.961 . S
C2094 H2108 0.961 . S
C2095 C2092 1.539 . S
C2095 H2109 0.958 . S
C2095 H2110 0.961 . S
C2095 H2111 0.960 . S
H2096 C2080 0.931 . S
H2097 C2085 0.929 . S
H2098 C2086 0.960 . S
H2099 C2086 0.962 . S
H2100 C2086 0.960 . S
H2101 C2087 0.961 . S
H2102 C2087 0.961 . S
H2103 C2087 0.961 . S
H2104 C2088 0.931 . S
H2105 C2093 0.930 . S
H2106 C2094 0.956 . S
H2107 C2094 0.961 . S
H2108 C2094 0.961 . S
H2109 C2095 0.958 . S
H2110 C2095 0.961 . S
H2111 C2095 0.960 . S
C2112 C2113 1.391 . S
C2112 C2114 1.394 . S
C2112 H2128 0.931 . S
C2113 C2112 1.391 . S
C2113 C2117 1.376 . S
C2114 C2112 1.394 . S
C2114 C2115 1.369 . S
C2114 C2118 1.531 . S
C2115 C2114 1.369 . S
C2115 C2116 1.410 . S
C2115 C2123 1.503 . S
C2116 C2115 1.410 . S
C2116 C2117 1.392 . S
C2116 C2119 1.511 . S
C2117 C2113 1.376 . S
C2117 C2116 1.392 . S
C2117 H2129 0.929 . S
C2118 C2114 1.531 . S
C2118 H2130 0.960 . S
C2118 H2131 0.962 . S
C2118 H2132 0.960 . S
C2119 C2116 1.511 . S
C2119 H2133 0.961 . S
C2119 H2134 0.961 . S
C2119 H2135 0.961 . S
C2120 C2121 1.370 . S
C2120 C2122 1.363 . S
C2120 H2136 0.931 . S
C2121 C2120 1.370 . S
C2121 C2125 1.408 . S
C2122 C2120 1.363 . S
C2122 C2123 1.370 . S
C2122 C2126 1.524 . S
C2123 C2115 1.503 . S
C2123 C2122 1.370 . S
C2123 C2124 1.403 . S
C2124 C2123 1.403 . S
C2124 C2125 1.404 . S
C2124 C2127 1.539 . S
C2125 C2121 1.408 . S
C2125 C2124 1.404 . S
C2125 H2137 0.930 . S
C2126 C2122 1.524 . S
C2126 H2138 0.956 . S
C2126 H2139 0.961 . S
C2126 H2140 0.961 . S
C2127 C2124 1.539 . S
C2127 H2141 0.958 . S
C2127 H2142 0.961 . S
C2127 H2143 0.960 . S
H2128 C2112 0.931 . S
H2129 C2117 0.929 . S
H2130 C2118 0.960 . S
H2131 C2118 0.962 . S
H2132 C2118 0.960 . S
H2133 C2119 0.961 . S
H2134 C2119 0.961 . S
H2135 C2119 0.961 . S
H2136 C2120 0.931 . S
H2137 C2125 0.930 . S
H2138 C2126 0.956 . S
H2139 C2126 0.961 . S
H2140 C2126 0.961 . S
H2141 C2127 0.958 . S
H2142 C2127 0.961 . S
H2143 C2127 0.960 . S
C2144 C2145 1.391 . S
C2144 C2146 1.394 . S
C2144 H2160 0.931 . S
C2145 C2144 1.391 . S
C2145 C2149 1.376 . S
C2146 C2144 1.394 . S
C2146 C2147 1.369 . S
C2146 C2150 1.531 . S
C2147 C2146 1.369 . S
C2147 C2148 1.410 . S
C2147 C2155 1.503 . S
C2148 C2147 1.410 . S
C2148 C2149 1.392 . S
C2148 C2151 1.511 . S
C2149 C2145 1.376 . S
C2149 C2148 1.392 . S
C2149 H2161 0.929 . S
C2150 C2146 1.531 . S
C2150 H2162 0.960 . S
C2150 H2163 0.962 . S
C2150 H2164 0.960 . S
C2151 C2148 1.511 . S
C2151 H2165 0.961 . S
C2151 H2166 0.961 . S
C2151 H2167 0.961 . S
C2152 C2153 1.370 . S
C2152 C2154 1.363 . S
C2152 H2168 0.931 . S
C2153 C2152 1.370 . S
C2153 C2157 1.408 . S
C2154 C2152 1.363 . S
C2154 C2155 1.370 . S
C2154 C2158 1.524 . S
C2155 C2147 1.503 . S
C2155 C2154 1.370 . S
C2155 C2156 1.403 . S
C2156 C2155 1.403 . S
C2156 C2157 1.404 . S
C2156 C2159 1.539 . S
C2157 C2153 1.408 . S
C2157 C2156 1.404 . S
C2157 H2169 0.930 . S
C2158 C2154 1.524 . S
C2158 H2170 0.956 . S
C2158 H2171 0.961 . S
C2158 H2172 0.961 . S
C2159 C2156 1.539 . S
C2159 H2173 0.958 . S
C2159 H2174 0.961 . S
C2159 H2175 0.960 . S
H2160 C2144 0.931 . S
H2161 C2149 0.929 . S
H2162 C2150 0.960 . S
H2163 C2150 0.962 . S
H2164 C2150 0.960 . S
H2165 C2151 0.961 . S
H2166 C2151 0.961 . S
H2167 C2151 0.961 . S
H2168 C2152 0.931 . S
H2169 C2157 0.930 . S
H2170 C2158 0.956 . S
H2171 C2158 0.961 . S
H2172 C2158 0.961 . S
H2173 C2159 0.958 . S
H2174 C2159 0.961 . S
H2175 C2159 0.960 . S
C2176 C2177 1.391 . S
C2176 C2178 1.394 . S
C2176 H2192 0.931 . S
C2177 C2176 1.391 . S
C2177 C2181 1.376 . S
C2178 C2176 1.394 . S
C2178 C2179 1.369 . S
C2178 C2182 1.531 . S
C2179 C2178 1.369 . S
C2179 C2180 1.410 . S
C2179 C2187 1.503 . S
C2180 C2179 1.410 . S
C2180 C2181 1.392 . S
C2180 C2183 1.511 . S
C2181 C2177 1.376 . S
C2181 C2180 1.392 . S
C2181 H2193 0.929 . S
C2182 C2178 1.531 . S
C2182 H2194 0.960 . S
C2182 H2195 0.962 . S
C2182 H2196 0.960 . S
C2183 C2180 1.511 . S
C2183 H2197 0.961 . S
C2183 H2198 0.961 . S
C2183 H2199 0.961 . S
C2184 C2185 1.370 . S
C2184 C2186 1.363 . S
C2184 H2200 0.931 . S
C2185 C2184 1.370 . S
C2185 C2189 1.408 . S
C2186 C2184 1.363 . S
C2186 C2187 1.370 . S
C2186 C2190 1.524 . S
C2187 C2179 1.503 . S
C2187 C2186 1.370 . S
C2187 C2188 1.403 . S
C2188 C2187 1.403 . S
C2188 C2189 1.404 . S
C2188 C2191 1.539 . S
C2189 C2185 1.408 . S
C2189 C2188 1.404 . S
C2189 H2201 0.930 . S
C2190 C2186 1.524 . S
C2190 H2202 0.956 . S
C2190 H2203 0.961 . S
C2190 H2204 0.961 . S
C2191 C2188 1.539 . S
C2191 H2205 0.958 . S
C2191 H2206 0.961 . S
C2191 H2207 0.960 . S
H2192 C2176 0.931 . S
H2193 C2181 0.929 . S
H2194 C2182 0.960 . S
H2195 C2182 0.962 . S
H2196 C2182 0.960 . S
H2197 C2183 0.961 . S
H2198 C2183 0.961 . S
H2199 C2183 0.961 . S
H2200 C2184 0.931 . S
H2201 C2189 0.930 . S
H2202 C2190 0.956 . S
H2203 C2190 0.961 . S
H2204 C2190 0.961 . S
H2205 C2191 0.958 . S
H2206 C2191 0.961 . S
H2207 C2191 0.960 . S
C2208 C2209 1.391 . S
C2208 C2210 1.394 . S
C2208 H2224 0.931 . S
C2209 C2208 1.391 . S
C2209 C2213 1.376 1_455 S
C2210 C2208 1.394 . S
C2210 C2211 1.369 . S
C2210 C2214 1.531 . S
C2211 C2210 1.369 . S
C2211 C2212 1.410 1_455 S
C2211 C2219 1.503 . S
C2212 C2211 1.410 1_655 S
C2212 C2213 1.392 . S
C2212 C2215 1.511 . S
C2213 C2209 1.376 1_655 S
C2213 C2212 1.392 . S
C2213 H2225 0.929 . S
C2214 C2210 1.531 . S
C2214 H2226 0.960 . S
C2214 H2227 0.962 . S
C2214 H2228 0.960 . S
C2215 C2212 1.511 . S
C2215 H2229 0.961 . S
C2215 H2230 0.961 . S
C2215 H2231 0.961 . S
C2216 C2217 1.370 . S
C2216 C2218 1.363 . S
C2216 H2232 0.931 . S
C2217 C2216 1.370 . S
C2217 C2221 1.408 1_455 S
C2218 C2216 1.363 . S
C2218 C2219 1.370 . S
C2218 C2222 1.524 . S
C2219 C2211 1.503 . S
C2219 C2218 1.370 . S
C2219 C2220 1.403 1_455 S
C2220 C2219 1.403 1_655 S
C2220 C2221 1.404 . S
C2220 C2223 1.539 . S
C2221 C2217 1.408 1_655 S
C2221 C2220 1.404 . S
C2221 H2233 0.930 . S
C2222 C2218 1.524 . S
C2222 H2234 0.956 . S
C2222 H2235 0.961 . S
C2222 H2236 0.961 . S
C2223 C2220 1.539 . S
C2223 H2237 0.958 . S
C2223 H2238 0.961 . S
C2223 H2239 0.960 . S
H2224 C2208 0.931 . S
H2225 C2213 0.929 . S
H2226 C2214 0.960 . S
H2227 C2214 0.962 . S
H2228 C2214 0.960 . S
H2229 C2215 0.961 . S
H2230 C2215 0.961 . S
H2231 C2215 0.961 . S
H2232 C2216 0.931 . S
H2233 C2221 0.930 . S
H2234 C2222 0.956 . S
H2235 C2222 0.961 . S
H2236 C2222 0.961 . S
H2237 C2223 0.958 . S
H2238 C2223 0.961 . S
H2239 C2223 0.960 . S
C2240 C2241 1.391 . S
C2240 C2242 1.394 . S
C2240 H2256 0.931 . S
C2241 C2240 1.391 . S
C2241 C2245 1.376 . S
C2242 C2240 1.394 . S
C2242 C2243 1.369 . S
C2242 C2246 1.531 . S
C2243 C2242 1.369 . S
C2243 C2244 1.410 . S
C2243 C2251 1.503 . S
C2244 C2243 1.410 . S
C2244 C2245 1.392 . S
C2244 C2247 1.511 . S
C2245 C2241 1.376 . S
C2245 C2244 1.392 . S
C2245 H2257 0.929 . S
C2246 C2242 1.531 . S
C2246 H2258 0.960 . S
C2246 H2259 0.962 . S
C2246 H2260 0.960 . S
C2247 C2244 1.511 . S
C2247 H2261 0.961 . S
C2247 H2262 0.961 . S
C2247 H2263 0.961 . S
C2248 C2249 1.370 . S
C2248 C2250 1.363 . S
C2248 H2264 0.931 . S
C2249 C2248 1.370 . S
C2249 C2253 1.408 . S
C2250 C2248 1.363 . S
C2250 C2251 1.370 . S
C2250 C2254 1.524 . S
C2251 C2243 1.503 . S
C2251 C2250 1.370 . S
C2251 C2252 1.403 . S
C2252 C2251 1.403 . S
C2252 C2253 1.404 . S
C2252 C2255 1.539 . S
C2253 C2249 1.408 . S
C2253 C2252 1.404 . S
C2253 H2265 0.930 . S
C2254 C2250 1.524 . S
C2254 H2266 0.956 . S
C2254 H2267 0.961 . S
C2254 H2268 0.961 . S
C2255 C2252 1.539 . S
C2255 H2269 0.958 . S
C2255 H2270 0.961 . S
C2255 H2271 0.960 . S
H2256 C2240 0.931 . S
H2257 C2245 0.929 . S
H2258 C2246 0.960 . S
H2259 C2246 0.962 . S
H2260 C2246 0.960 . S
H2261 C2247 0.961 . S
H2262 C2247 0.961 . S
H2263 C2247 0.961 . S
H2264 C2248 0.931 . S
H2265 C2253 0.930 . S
H2266 C2254 0.956 . S
H2267 C2254 0.961 . S
H2268 C2254 0.961 . S
H2269 C2255 0.958 . S
H2270 C2255 0.961 . S
H2271 C2255 0.960 . S
C2272 C2273 1.391 1_545 S
C2272 C2274 1.394 . S
C2272 H2288 0.931 . S
C2273 C2272 1.391 1_565 S
C2273 C2277 1.376 . S
C2274 C2272 1.394 . S
C2274 C2275 1.369 1_545 S
C2274 C2278 1.531 . S
C2275 C2274 1.369 1_565 S
C2275 C2276 1.410 . S
C2275 C2283 1.503 . S
C2276 C2275 1.410 . S
C2276 C2277 1.392 . S
C2276 C2279 1.511 . S
C2277 C2273 1.376 . S
C2277 C2276 1.392 . S
C2277 H2289 0.929 . S
C2278 C2274 1.531 . S
C2278 H2290 0.960 . S
C2278 H2291 0.962 . S
C2278 H2292 0.960 . S
C2279 C2276 1.511 . S
C2279 H2293 0.961 . S
C2279 H2294 0.961 . S
C2279 H2295 0.961 . S
C2280 C2281 1.370 . S
C2280 C2282 1.363 . S
C2280 H2296 0.931 . S
C2281 C2280 1.370 . S
C2281 C2285 1.408 1_565 S
C2282 C2280 1.363 . S
C2282 C2283 1.370 . S
C2282 C2286 1.524 . S
C2283 C2275 1.503 . S
C2283 C2282 1.370 . S
C2283 C2284 1.403 1_565 S
C2284 C2283 1.403 1_545 S
C2284 C2285 1.404 . S
C2284 C2287 1.539 . S
C2285 C2281 1.408 1_545 S
C2285 C2284 1.404 . S
C2285 H2297 0.930 . S
C2286 C2282 1.524 . S
C2286 H2298 0.956 . S
C2286 H2299 0.961 . S
C2286 H2300 0.961 . S
C2287 C2284 1.539 . S
C2287 H2301 0.958 . S
C2287 H2302 0.961 . S
C2287 H2303 0.960 . S
H2288 C2272 0.931 . S
H2289 C2277 0.929 . S
H2290 C2278 0.960 . S
H2291 C2278 0.962 . S
H2292 C2278 0.960 . S
H2293 C2279 0.961 . S
H2294 C2279 0.961 . S
H2295 C2279 0.961 . S
H2296 C2280 0.931 . S
H2297 C2285 0.930 . S
H2298 C2286 0.956 . S
H2299 C2286 0.961 . S
H2300 C2286 0.961 . S
H2301 C2287 0.958 . S
H2302 C2287 0.961 . S
H2303 C2287 0.960 . S
C2304 C2305 1.391 . S
C2304 C2306 1.394 . S
C2304 H2320 0.931 . S
C2305 C2304 1.391 . S
C2305 C2309 1.376 . S
C2306 C2304 1.394 . S
C2306 C2307 1.369 . S
C2306 C2310 1.531 . S
C2307 C2306 1.369 . S
C2307 C2308 1.410 . S
C2307 C2315 1.503 . S
C2308 C2307 1.410 . S
C2308 C2309 1.392 . S
C2308 C2311 1.511 . S
C2309 C2305 1.376 . S
C2309 C2308 1.392 . S
C2309 H2321 0.929 . S
C2310 C2306 1.531 . S
C2310 H2322 0.960 . S
C2310 H2323 0.962 1_565 S
C2310 H2324 0.960 . S
C2311 C2308 1.511 . S
C2311 H2325 0.961 . S
C2311 H2326 0.961 . S
C2311 H2327 0.961 . S
C2312 C2313 1.370 1_545 S
C2312 C2314 1.363 . S
C2312 H2328 0.931 . S
C2313 C2312 1.370 1_565 S
C2313 C2317 1.408 . S
C2314 C2312 1.363 . S
C2314 C2315 1.370 1_545 S
C2314 C2318 1.524 . S
C2315 C2307 1.503 . S
C2315 C2314 1.370 1_565 S
C2315 C2316 1.403 . S
C2316 C2315 1.403 . S
C2316 C2317 1.404 . S
C2316 C2319 1.539 . S
C2317 C2313 1.408 . S
C2317 C2316 1.404 . S
C2317 H2329 0.930 . S
C2318 C2314 1.524 . S
C2318 H2330 0.956 . S
C2318 H2331 0.961 . S
C2318 H2332 0.961 . S
C2319 C2316 1.539 . S
C2319 H2333 0.958 . S
C2319 H2334 0.961 . S
C2319 H2335 0.960 . S
H2320 C2304 0.931 . S
H2321 C2309 0.929 . S
H2322 C2310 0.960 . S
H2323 C2310 0.962 1_545 S
H2324 C2310 0.960 . S
H2325 C2311 0.961 . S
H2326 C2311 0.961 . S
H2327 C2311 0.961 . S
H2328 C2312 0.931 . S
H2329 C2317 0.930 . S
H2330 C2318 0.956 . S
H2331 C2318 0.961 . S
H2332 C2318 0.961 . S
H2333 C2319 0.958 . S
H2334 C2319 0.961 . S
H2335 C2319 0.960 . S
C2336 C2337 1.391 . S
C2336 C2338 1.394 . S
C2336 H2352 0.931 . S
C2337 C2336 1.391 . S
C2337 C2341 1.376 1_455 S
C2338 C2336 1.394 . S
C2338 C2339 1.369 . S
C2338 C2342 1.531 . S
C2339 C2338 1.369 . S
C2339 C2340 1.410 1_455 S
C2339 C2347 1.503 . S
C2340 C2339 1.410 1_655 S
C2340 C2341 1.392 . S
C2340 C2343 1.511 . S
C2341 C2337 1.376 1_655 S
C2341 C2340 1.392 . S
C2341 H2353 0.929 . S
C2342 C2338 1.531 . S
C2342 H2354 0.960 . S
C2342 H2355 0.962 . S
C2342 H2356 0.960 . S
C2343 C2340 1.511 . S
C2343 H2357 0.961 . S
C2343 H2358 0.961 . S
C2343 H2359 0.961 . S
C2344 C2345 1.370 1_455 S
C2344 C2346 1.363 . S
C2344 H2360 0.931 . S
C2345 C2344 1.370 1_655 S
C2345 C2349 1.412 . S
C2346 C2344 1.363 . S
C2346 C2347 1.370 . S
C2346 C2350 1.524 . S
C2347 C2339 1.503 . S
C2347 C2346 1.370 . S
C2347 C2348 1.403 1_455 S
C2348 C2347 1.403 1_655 S
C2348 C2349 1.404 . S
C2348 C2351 1.539 . S
C2349 C2345 1.412 . S
C2349 C2348 1.404 . S
C2349 H2361 0.930 . S
C2350 C2346 1.524 . S
C2350 H2362 0.956 . S
C2350 H2363 0.961 . S
C2350 H2364 0.961 . S
C2351 C2348 1.539 . S
C2351 H2365 0.958 . S
C2351 H2366 0.961 . S
C2351 H2367 0.960 . S
H2352 C2336 0.931 . S
H2353 C2341 0.929 . S
H2354 C2342 0.960 . S
H2355 C2342 0.962 . S
H2356 C2342 0.960 . S
H2357 C2343 0.961 . S
H2358 C2343 0.961 . S
H2359 C2343 0.961 . S
H2360 C2344 0.931 . S
H2361 C2349 0.930 . S
H2362 C2350 0.956 . S
H2363 C2350 0.961 . S
H2364 C2350 0.961 . S
H2365 C2351 0.958 . S
H2366 C2351 0.961 . S
H2367 C2351 0.960 . S
C2368 C2369 1.391 . S
C2368 C2370 1.394 . S
C2368 H2384 0.931 . S
C2369 C2368 1.391 . S
C2369 C2373 1.376 . S
C2370 C2368 1.394 . S
C2370 C2371 1.369 . S
C2370 C2374 1.531 . S
C2371 C2370 1.369 . S
C2371 C2372 1.410 . S
C2371 C2379 1.503 . S
C2372 C2371 1.410 . S
C2372 C2373 1.392 . S
C2372 C2375 1.511 . S
C2373 C2369 1.376 . S
C2373 C2372 1.392 . S
C2373 H2385 0.929 . S
C2374 C2370 1.531 . S
C2374 H2386 0.960 . S
C2374 H2387 0.962 . S
C2374 H2388 0.960 . S
C2375 C2372 1.511 . S
C2375 H2389 0.961 . S
C2375 H2390 0.961 . S
C2375 H2391 0.961 . S
C2376 C2377 1.370 . S
C2376 C2378 1.363 . S
C2376 H2392 0.931 . S
C2377 C2376 1.370 . S
C2377 C2381 1.408 . S
C2378 C2376 1.363 . S
C2378 C2379 1.370 . S
C2378 C2382 1.524 . S
C2379 C2371 1.503 . S
C2379 C2378 1.370 . S
C2379 C2380 1.403 . S
C2380 C2379 1.403 . S
C2380 C2381 1.404 . S
C2380 C2383 1.539 . S
C2381 C2377 1.408 . S
C2381 C2380 1.404 . S
C2381 H2393 0.930 . S
C2382 C2378 1.524 . S
C2382 H2394 0.956 . S
C2382 H2395 0.961 . S
C2382 H2396 0.961 . S
C2383 C2380 1.539 . S
C2383 H2397 0.958 . S
C2383 H2398 0.961 . S
C2383 H2399 0.960 . S
H2384 C2368 0.931 . S
H2385 C2373 0.929 . S
H2386 C2374 0.960 . S
H2387 C2374 0.962 . S
H2388 C2374 0.960 . S
H2389 C2375 0.961 . S
H2390 C2375 0.961 . S
H2391 C2375 0.961 . S
H2392 C2376 0.931 . S
H2393 C2381 0.930 . S
H2394 C2382 0.956 . S
H2395 C2382 0.961 . S
H2396 C2382 0.961 . S
H2397 C2383 0.958 . S
H2398 C2383 0.961 . S
H2399 C2383 0.960 . S
C2400 C2401 1.391 . S
C2400 C2402 1.394 . S
C2400 H2416 0.931 . S
C2401 C2400 1.391 . S
C2401 C2405 1.376 . S
C2402 C2400 1.394 . S
C2402 C2403 1.369 . S
C2402 C2406 1.531 . S
C2403 C2402 1.369 . S
C2403 C2404 1.410 . S
C2403 C2411 1.503 . S
C2404 C2403 1.410 . S
C2404 C2405 1.392 . S
C2404 C2407 1.511 . S
C2405 C2401 1.376 . S
C2405 C2404 1.392 . S
C2405 H2417 0.929 . S
C2406 C2402 1.531 . S
C2406 H2418 0.960 . S
C2406 H2419 0.962 . S
C2406 H2420 0.960 . S
C2407 C2404 1.511 . S
C2407 H2421 0.961 . S
C2407 H2422 0.961 . S
C2407 H2423 0.961 . S
C2408 C2409 1.370 . S
C2408 C2410 1.363 . S
C2408 H2424 0.931 . S
C2409 C2408 1.370 . S
C2409 C2413 1.408 . S
C2410 C2408 1.363 . S
C2410 C2411 1.370 . S
C2410 C2414 1.524 . S
C2411 C2403 1.503 . S
C2411 C2410 1.370 . S
C2411 C2412 1.403 . S
C2412 C2411 1.403 . S
C2412 C2413 1.404 . S
C2412 C2415 1.539 . S
C2413 C2409 1.408 . S
C2413 C2412 1.404 . S
C2413 H2425 0.930 . S
C2414 C2410 1.524 . S
C2414 H2426 0.956 . S
C2414 H2427 0.961 . S
C2414 H2428 0.961 . S
C2415 C2412 1.539 . S
C2415 H2429 0.958 . S
C2415 H2430 0.961 . S
C2415 H2431 0.960 . S
H2416 C2400 0.931 . S
H2417 C2405 0.929 . S
H2418 C2406 0.960 . S
H2419 C2406 0.962 . S
H2420 C2406 0.960 . S
H2421 C2407 0.961 . S
H2422 C2407 0.961 . S
H2423 C2407 0.961 . S
H2424 C2408 0.931 . S
H2425 C2413 0.930 . S
H2426 C2414 0.956 . S
H2427 C2414 0.961 . S
H2428 C2414 0.961 . S
H2429 C2415 0.958 . S
H2430 C2415 0.961 . S
H2431 C2415 0.960 . S
C2432 C2433 1.391 . S
C2432 C2434 1.394 . S
C2432 H2448 0.931 . S
C2433 C2432 1.391 . S
C2433 C2437 1.376 . S
C2434 C2432 1.394 . S
C2434 C2435 1.369 . S
C2434 C2438 1.531 . S
C2435 C2434 1.369 . S
C2435 C2436 1.410 . S
C2435 C2443 1.503 . S
C2436 C2435 1.410 . S
C2436 C2437 1.392 . S
C2436 C2439 1.511 . S
C2437 C2433 1.376 . S
C2437 C2436 1.392 . S
C2437 H2449 0.929 . S
C2438 C2434 1.531 . S
C2438 H2450 0.960 . S
C2438 H2451 0.962 . S
C2438 H2452 0.960 . S
C2439 C2436 1.511 . S
C2439 H2453 0.961 . S
C2439 H2454 0.961 . S
C2439 H2455 0.961 . S
C2440 C2441 1.370 . S
C2440 C2442 1.363 . S
C2440 H2456 0.931 . S
C2441 C2440 1.370 . S
C2441 C2445 1.408 . S
C2442 C2440 1.363 . S
C2442 C2443 1.370 . S
C2442 C2446 1.524 . S
C2443 C2435 1.503 . S
C2443 C2442 1.370 . S
C2443 C2444 1.403 . S
C2444 C2443 1.403 . S
C2444 C2445 1.404 . S
C2444 C2447 1.539 . S
C2445 C2441 1.408 . S
C2445 C2444 1.404 . S
C2445 H2457 0.930 . S
C2446 C2442 1.524 . S
C2446 H2458 0.956 . S
C2446 H2459 0.961 . S
C2446 H2460 0.961 . S
C2447 C2444 1.539 . S
C2447 H2461 0.958 . S
C2447 H2462 0.961 . S
C2447 H2463 0.960 . S
H2448 C2432 0.931 . S
H2449 C2437 0.929 . S
H2450 C2438 0.960 . S
H2451 C2438 0.962 . S
H2452 C2438 0.960 . S
H2453 C2439 0.961 . S
H2454 C2439 0.961 . S
H2455 C2439 0.961 . S
H2456 C2440 0.931 . S
H2457 C2445 0.930 . S
H2458 C2446 0.956 . S
H2459 C2446 0.961 . S
H2460 C2446 0.961 . S
H2461 C2447 0.958 . S
H2462 C2447 0.961 . S
H2463 C2447 0.960 . S
C2464 C2465 1.391 . S
C2464 C2466 1.394 . S
C2464 H2480 0.931 . S
C2465 C2464 1.391 . S
C2465 C2469 1.376 . S
C2466 C2464 1.394 . S
C2466 C2467 1.369 . S
C2466 C2470 1.531 . S
C2467 C2466 1.369 . S
C2467 C2468 1.410 . S
C2467 C2475 1.503 . S
C2468 C2467 1.410 . S
C2468 C2469 1.392 . S
C2468 C2471 1.511 . S
C2469 C2465 1.376 . S
C2469 C2468 1.392 . S
C2469 H2481 0.929 . S
C2470 C2466 1.531 . S
C2470 H2482 0.960 . S
C2470 H2483 0.962 . S
C2470 H2484 0.960 . S
C2471 C2468 1.511 . S
C2471 H2485 0.961 . S
C2471 H2486 0.961 . S
C2471 H2487 0.961 . S
C2472 C2473 1.370 . S
C2472 C2474 1.363 . S
C2472 H2488 0.931 . S
C2473 C2472 1.370 . S
C2473 C2477 1.408 . S
C2474 C2472 1.363 . S
C2474 C2475 1.370 . S
C2474 C2478 1.524 . S
C2475 C2467 1.503 . S
C2475 C2474 1.370 . S
C2475 C2476 1.403 . S
C2476 C2475 1.403 . S
C2476 C2477 1.404 . S
C2476 C2479 1.539 . S
C2477 C2473 1.408 . S
C2477 C2476 1.404 . S
C2477 H2489 0.930 . S
C2478 C2474 1.524 . S
C2478 H2490 0.956 . S
C2478 H2491 0.961 . S
C2478 H2492 0.961 . S
C2479 C2476 1.539 . S
C2479 H2493 0.958 . S
C2479 H2494 0.961 . S
C2479 H2495 0.960 . S
H2480 C2464 0.931 . S
H2481 C2469 0.929 . S
H2482 C2470 0.960 . S
H2483 C2470 0.962 . S
H2484 C2470 0.960 . S
H2485 C2471 0.961 . S
H2486 C2471 0.961 . S
H2487 C2471 0.961 . S
H2488 C2472 0.931 . S
H2489 C2477 0.930 . S
H2490 C2478 0.956 . S
H2491 C2478 0.961 . S
H2492 C2478 0.961 . S
H2493 C2479 0.958 . S
H2494 C2479 0.961 . S
H2495 C2479 0.960 . S
C2496 C2497 1.391 1_565 S
C2496 C2498 1.394 . S
C2496 H2512 0.931 . S
C2497 C2496 1.391 1_545 S
C2497 C2501 1.376 . S
C2498 C2496 1.394 . S
C2498 C2499 1.369 1_565 S
C2498 C2502 1.531 . S
C2499 C2498 1.369 1_545 S
C2499 C2500 1.410 . S
C2499 C2507 1.503 . S
C2500 C2499 1.410 . S
C2500 C2501 1.392 . S
C2500 C2503 1.511 . S
C2501 C2497 1.376 . S
C2501 C2500 1.392 . S
C2501 H2513 0.929 . S
C2502 C2498 1.531 . S
C2502 H2514 0.960 . S
C2502 H2515 0.962 . S
C2502 H2516 0.960 . S
C2503 C2500 1.511 . S
C2503 H2517 0.961 . S
C2503 H2518 0.961 . S
C2503 H2519 0.961 . S
C2504 C2505 1.370 . S
C2504 C2506 1.363 . S
C2504 H2520 0.931 . S
C2505 C2504 1.370 . S
C2505 C2509 1.408 . S
C2506 C2504 1.363 . S
C2506 C2507 1.370 . S
C2506 C2510 1.524 . S
C2507 C2499 1.503 . S
C2507 C2506 1.370 . S
C2507 C2508 1.403 . S
C2508 C2507 1.403 . S
C2508 C2509 1.404 . S
C2508 C2511 1.539 . S
C2509 C2505 1.408 . S
C2509 C2508 1.404 . S
C2509 H2521 0.930 . S
C2510 C2506 1.524 . S
C2510 H2522 0.956 1_545 S
C2510 H2523 0.961 . S
C2510 H2524 0.961 . S
C2511 C2508 1.539 . S
C2511 H2525 0.965 . S
C2511 H2526 0.961 . S
C2511 H2527 0.960 . S
H2512 C2496 0.931 . S
H2513 C2501 0.929 . S
H2514 C2502 0.960 . S
H2515 C2502 0.962 . S
H2516 C2502 0.960 . S
H2517 C2503 0.961 . S
H2518 C2503 0.961 . S
H2519 C2503 0.961 . S
H2520 C2504 0.931 . S
H2521 C2509 0.930 . S
H2522 C2510 0.956 1_565 S
H2523 C2510 0.961 . S
H2524 C2510 0.961 . S
H2525 C2511 0.965 . S
H2526 C2511 0.961 . S
H2527 C2511 0.960 . S
C2528 C2529 1.391 1_455 S
C2528 C2530 1.394 . S
C2528 H2544 0.931 . S
C2529 C2528 1.391 1_655 S
C2529 C2533 1.376 . S
C2530 C2528 1.394 . S
C2530 C2531 1.369 1_455 S
C2530 C2534 1.531 . S
C2531 C2530 1.369 1_655 S
C2531 C2532 1.410 . S
C2531 C2539 1.503 . S
C2532 C2531 1.410 . S
C2532 C2533 1.392 . S
C2532 C2535 1.511 . S
C2533 C2529 1.376 . S
C2533 C2532 1.392 . S
C2533 H2545 0.929 . S
C2534 C2530 1.531 . S
C2534 H2546 0.960 . S
C2534 H2547 0.962 . S
C2534 H2548 0.960 . S
C2535 C2532 1.511 . S
C2535 H2549 0.961 . S
C2535 H2550 0.961 . S
C2535 H2551 0.961 . S
C2536 C2537 1.370 1_455 S
C2536 C2538 1.363 . S
C2536 H2552 0.931 . S
C2537 C2536 1.370 1_655 S
C2537 C2541 1.408 . S
C2538 C2536 1.363 . S
C2538 C2539 1.370 1_455 S
C2538 C2542 1.524 . S
C2539 C2531 1.503 . S
C2539 C2538 1.370 1_655 S
C2539 C2540 1.403 . S
C2540 C2539 1.403 . S
C2540 C2541 1.404 . S
C2540 C2543 1.539 . S
C2541 C2537 1.408 . S
C2541 C2540 1.404 . S
C2541 H2553 0.930 . S
C2542 C2538 1.524 . S
C2542 H2554 0.956 . S
C2542 H2555 0.961 . S
C2542 H2556 0.961 . S
C2543 C2540 1.539 . S
C2543 H2557 0.958 . S
C2543 H2558 0.961 . S
C2543 H2559 0.960 . S
H2544 C2528 0.931 . S
H2545 C2533 0.929 . S
H2546 C2534 0.960 . S
H2547 C2534 0.962 . S
H2548 C2534 0.960 . S
H2549 C2535 0.961 . S
H2550 C2535 0.961 . S
H2551 C2535 0.961 . S
H2552 C2536 0.931 . S
H2553 C2541 0.930 . S
H2554 C2542 0.956 . S
H2555 C2542 0.961 . S
H2556 C2542 0.961 . S
H2557 C2543 0.958 . S
H2558 C2543 0.961 . S
H2559 C2543 0.960 . S
C2560 C2561 1.391 . S
C2560 C2562 1.394 . S
C2560 H2576 0.931 . S
C2561 C2560 1.391 . S
C2561 C2565 1.376 . S
C2562 C2560 1.394 . S
C2562 C2563 1.369 . S
C2562 C2566 1.531 . S
C2563 C2562 1.369 . S
C2563 C2564 1.410 . S
C2563 C2571 1.503 . S
C2564 C2563 1.410 . S
C2564 C2565 1.392 . S
C2564 C2567 1.511 . S
C2565 C2561 1.376 . S
C2565 C2564 1.392 . S
C2565 H2577 0.929 . S
C2566 C2562 1.531 . S
C2566 H2578 0.960 . S
C2566 H2579 0.962 . S
C2566 H2580 0.960 . S
C2567 C2564 1.511 . S
C2567 H2581 0.961 . S
C2567 H2582 0.961 . S
C2567 H2583 0.961 . S
C2568 C2569 1.370 . S
C2568 C2570 1.363 . S
C2568 H2584 0.931 . S
C2569 C2568 1.370 . S
C2569 C2573 1.408 . S
C2570 C2568 1.363 . S
C2570 C2571 1.370 . S
C2570 C2574 1.524 . S
C2571 C2563 1.503 . S
C2571 C2570 1.370 . S
C2571 C2572 1.403 . S
C2572 C2571 1.403 . S
C2572 C2573 1.404 . S
C2572 C2575 1.539 . S
C2573 C2569 1.408 . S
C2573 C2572 1.404 . S
C2573 H2585 0.930 . S
C2574 C2570 1.524 . S
C2574 H2586 0.956 . S
C2574 H2587 0.961 . S
C2574 H2588 0.961 . S
C2575 C2572 1.539 . S
C2575 H2589 0.958 . S
C2575 H2590 0.961 . S
C2575 H2591 0.960 . S
H2576 C2560 0.931 . S
H2577 C2565 0.929 . S
H2578 C2566 0.960 . S
H2579 C2566 0.962 . S
H2580 C2566 0.960 . S
H2581 C2567 0.961 . S
H2582 C2567 0.961 . S
H2583 C2567 0.961 . S
H2584 C2568 0.931 . S
H2585 C2573 0.930 . S
H2586 C2574 0.956 . S
H2587 C2574 0.961 . S
H2588 C2574 0.961 . S
H2589 C2575 0.958 . S
H2590 C2575 0.961 . S
H2591 C2575 0.960 . S
C2592 C2593 1.391 . S
C2592 C2594 1.394 . S
C2592 H2608 0.931 . S
C2593 C2592 1.391 . S
C2593 C2597 1.376 . S
C2594 C2592 1.394 . S
C2594 C2595 1.369 . S
C2594 C2598 1.531 . S
C2595 C2594 1.369 . S
C2595 C2596 1.410 . S
C2595 C2603 1.503 . S
C2596 C2595 1.410 . S
C2596 C2597 1.392 . S
C2596 C2599 1.511 . S
C2597 C2593 1.376 . S
C2597 C2596 1.392 . S
C2597 H2609 0.929 . S
C2598 C2594 1.531 . S
C2598 H2610 0.960 . S
C2598 H2611 0.962 . S
C2598 H2612 0.960 . S
C2599 C2596 1.511 . S
C2599 H2613 0.961 . S
C2599 H2614 0.961 . S
C2599 H2615 0.961 . S
C2600 C2601 1.370 . S
C2600 C2602 1.363 . S
C2600 H2616 0.931 . S
C2601 C2600 1.370 . S
C2601 C2605 1.408 . S
C2602 C2600 1.363 . S
C2602 C2603 1.370 . S
C2602 C2606 1.524 . S
C2603 C2595 1.503 . S
C2603 C2602 1.370 . S
C2603 C2604 1.403 . S
C2604 C2603 1.403 . S
C2604 C2605 1.404 . S
C2604 C2607 1.539 . S
C2605 C2601 1.408 . S
C2605 C2604 1.404 . S
C2605 H2617 0.930 . S
C2606 C2602 1.524 . S
C2606 H2618 0.956 . S
C2606 H2619 0.961 . S
C2606 H2620 0.961 . S
C2607 C2604 1.539 . S
C2607 H2621 0.958 . S
C2607 H2622 0.961 . S
C2607 H2623 0.960 . S
H2608 C2592 0.931 . S
H2609 C2597 0.929 . S
H2610 C2598 0.960 . S
H2611 C2598 0.962 . S
H2612 C2598 0.960 . S
H2613 C2599 0.961 . S
H2614 C2599 0.961 . S
H2615 C2599 0.961 . S
H2616 C2600 0.931 . S
H2617 C2605 0.930 . S
H2618 C2606 0.956 . S
H2619 C2606 0.961 . S
H2620 C2606 0.961 . S
H2621 C2607 0.958 . S
H2622 C2607 0.961 . S
H2623 C2607 0.960 . S
C2624 C2625 1.391 . S
C2624 C2626 1.394 . S
C2624 H2640 0.931 . S
C2625 C2624 1.391 . S
C2625 C2629 1.376 . S
C2626 C2624 1.394 . S
C2626 C2627 1.369 . S
C2626 C2630 1.531 . S
C2627 C2626 1.369 . S
C2627 C2628 1.410 . S
C2627 C2635 1.503 . S
C2628 C2627 1.410 . S
C2628 C2629 1.392 . S
C2628 C2631 1.511 . S
C2629 C2625 1.376 . S
C2629 C2628 1.392 . S
C2629 H2641 0.929 . S
C2630 C2626 1.531 . S
C2630 H2642 0.960 . S
C2630 H2643 0.962 . S
C2630 H2644 0.960 . S
C2631 C2628 1.511 . S
C2631 H2645 0.961 . S
C2631 H2646 0.961 . S
C2631 H2647 0.961 . S
C2632 C2633 1.370 . S
C2632 C2634 1.363 . S
C2632 H2648 0.931 . S
C2633 C2632 1.370 . S
C2633 C2637 1.408 . S
C2634 C2632 1.363 . S
C2634 C2635 1.370 . S
C2634 C2638 1.524 . S
C2635 C2627 1.503 . S
C2635 C2634 1.370 . S
C2635 C2636 1.403 . S
C2636 C2635 1.403 . S
C2636 C2637 1.404 . S
C2636 C2639 1.539 . S
C2637 C2633 1.408 . S
C2637 C2636 1.404 . S
C2637 H2649 0.930 . S
C2638 C2634 1.524 . S
C2638 H2650 0.956 . S
C2638 H2651 0.961 . S
C2638 H2652 0.961 . S
C2639 C2636 1.539 . S
C2639 H2653 0.958 . S
C2639 H2654 0.961 . S
C2639 H2655 0.960 . S
H2640 C2624 0.931 . S
H2641 C2629 0.929 . S
H2642 C2630 0.960 . S
H2643 C2630 0.962 . S
H2644 C2630 0.960 . S
H2645 C2631 0.961 . S
H2646 C2631 0.961 . S
H2647 C2631 0.961 . S
H2648 C2632 0.931 . S
H2649 C2637 0.930 . S
H2650 C2638 0.956 . S
H2651 C2638 0.961 . S
H2652 C2638 0.961 . S
H2653 C2639 0.958 . S
H2654 C2639 0.961 . S
H2655 C2639 0.960 . S
C2656 C2657 1.391 . S
C2656 C2658 1.394 . S
C2656 H2672 0.931 . S
C2657 C2656 1.391 . S
C2657 C2661 1.376 . S
C2658 C2656 1.394 . S
C2658 C2659 1.369 . S
C2658 C2662 1.531 . S
C2659 C2658 1.369 . S
C2659 C2660 1.410 . S
C2659 C2667 1.503 . S
C2660 C2659 1.410 . S
C2660 C2661 1.392 . S
C2660 C2663 1.511 . S
C2661 C2657 1.376 . S
C2661 C2660 1.392 . S
C2661 H2673 0.929 . S
C2662 C2658 1.531 . S
C2662 H2674 0.960 . S
C2662 H2675 0.962 . S
C2662 H2676 0.960 . S
C2663 C2660 1.511 . S
C2663 H2677 0.961 . S
C2663 H2678 0.961 . S
C2663 H2679 0.961 . S
C2664 C2665 1.370 . S
C2664 C2666 1.363 . S
C2664 H2680 0.931 . S
C2665 C2664 1.370 . S
C2665 C2669 1.408 . S
C2666 C2664 1.363 . S
C2666 C2667 1.370 . S
C2666 C2670 1.524 . S
C2667 C2659 1.503 . S
C2667 C2666 1.370 . S
C2667 C2668 1.403 . S
C2668 C2667 1.403 . S
C2668 C2669 1.404 . S
C2668 C2671 1.539 . S
C2669 C2665 1.408 . S
C2669 C2668 1.404 . S
C2669 H2681 0.930 . S
C2670 C2666 1.524 . S
C2670 H2682 0.956 . S
C2670 H2683 0.961 . S
C2670 H2684 0.961 . S
C2671 C2668 1.539 . S
C2671 H2685 0.958 . S
C2671 H2686 0.961 . S
C2671 H2687 0.960 . S
H2672 C2656 0.931 . S
H2673 C2661 0.929 . S
H2674 C2662 0.960 . S
H2675 C2662 0.962 . S
H2676 C2662 0.960 . S
H2677 C2663 0.961 . S
H2678 C2663 0.961 . S
H2679 C2663 0.961 . S
H2680 C2664 0.931 . S
H2681 C2669 0.930 . S
H2682 C2670 0.956 . S
H2683 C2670 0.961 . S
H2684 C2670 0.961 . S
H2685 C2671 0.958 . S
H2686 C2671 0.961 . S
H2687 C2671 0.960 . S
C2688 C2689 1.391 . S
C2688 C2690 1.394 . S
C2688 H2704 0.931 . S
C2689 C2688 1.391 . S
C2689 C2693 1.376 . S
C2690 C2688 1.394 . S
C2690 C2691 1.369 . S
C2690 C2694 1.531 . S
C2691 C2690 1.369 . S
C2691 C2692 1.410 . S
C2691 C2699 1.503 . S
C2692 C2691 1.410 . S
C2692 C2693 1.392 . S
C2692 C2695 1.511 . S
C2693 C2689 1.376 . S
C2693 C2692 1.392 . S
C2693 H2705 0.929 . S
C2694 C2690 1.531 . S
C2694 H2706 0.960 . S
C2694 H2707 0.962 . S
C2694 H2708 0.960 . S
C2695 C2692 1.511 . S
C2695 H2709 0.961 . S
C2695 H2710 0.961 . S
C2695 H2711 0.961 . S
C2696 C2697 1.370 . S
C2696 C2698 1.363 . S
C2696 H2712 0.931 . S
C2697 C2696 1.370 . S
C2697 C2701 1.408 . S
C2698 C2696 1.363 . S
C2698 C2699 1.370 . S
C2698 C2702 1.524 . S
C2699 C2691 1.503 . S
C2699 C2698 1.370 . S
C2699 C2700 1.403 . S
C2700 C2699 1.403 . S
C2700 C2701 1.404 . S
C2700 C2703 1.539 . S
C2701 C2697 1.408 . S
C2701 C2700 1.404 . S
C2701 H2713 0.930 . S
C2702 C2698 1.524 . S
C2702 H2714 0.956 . S
C2702 H2715 0.961 . S
C2702 H2716 0.961 . S
C2703 C2700 1.539 . S
C2703 H2717 0.958 . S
C2703 H2718 0.961 . S
C2703 H2719 0.960 . S
H2704 C2688 0.931 . S
H2705 C2693 0.929 . S
H2706 C2694 0.960 . S
H2707 C2694 0.962 . S
H2708 C2694 0.960 . S
H2709 C2695 0.961 . S
H2710 C2695 0.961 . S
H2711 C2695 0.961 . S
H2712 C2696 0.931 . S
H2713 C2701 0.930 . S
H2714 C2702 0.956 . S
H2715 C2702 0.961 . S
H2716 C2702 0.961 . S
H2717 C2703 0.958 . S
H2718 C2703 0.961 . S
H2719 C2703 0.960 . S
C2720 C2721 1.391 . S
C2720 C2722 1.394 . S
C2720 H2736 0.931 . S
C2721 C2720 1.391 . S
C2721 C2725 1.376 . S
C2722 C2720 1.394 . S
C2722 C2723 1.369 . S
C2722 C2726 1.531 . S
C2723 C2722 1.369 . S
C2723 C2724 1.410 . S
C2723 C2731 1.503 . S
C2724 C2723 1.410 . S
C2724 C2725 1.392 . S
C2724 C2727 1.511 . S
C2725 C2721 1.376 . S
C2725 C2724 1.392 . S
C2725 H2737 0.929 . S
C2726 C2722 1.531 . S
C2726 H2738 0.960 . S
C2726 H2739 0.962 . S
C2726 H2740 0.960 . S
C2727 C2724 1.511 . S
C2727 H2741 0.961 . S
C2727 H2742 0.961 . S
C2727 H2743 0.961 . S
C2728 C2729 1.370 . S
C2728 C2730 1.363 . S
C2728 H2744 0.931 . S
C2729 C2728 1.370 . S
C2729 C2733 1.408 . S
C2730 C2728 1.363 . S
C2730 C2731 1.370 . S
C2730 C2734 1.524 . S
C2731 C2723 1.503 . S
C2731 C2730 1.370 . S
C2731 C2732 1.403 . S
C2732 C2731 1.403 . S
C2732 C2733 1.404 . S
C2732 C2735 1.539 . S
C2733 C2729 1.408 . S
C2733 C2732 1.404 . S
C2733 H2745 0.930 . S
C2734 C2730 1.524 . S
C2734 H2746 0.956 . S
C2734 H2747 0.961 . S
C2734 H2748 0.961 . S
C2735 C2732 1.539 . S
C2735 H2749 0.958 . S
C2735 H2750 0.961 . S
C2735 H2751 0.960 . S
H2736 C2720 0.931 . S
H2737 C2725 0.929 . S
H2738 C2726 0.960 . S
H2739 C2726 0.962 . S
H2740 C2726 0.960 . S
H2741 C2727 0.961 . S
H2742 C2727 0.961 . S
H2743 C2727 0.961 . S
H2744 C2728 0.931 . S
H2745 C2733 0.930 . S
H2746 C2734 0.956 . S
H2747 C2734 0.961 . S
H2748 C2734 0.961 . S
H2749 C2735 0.958 . S
H2750 C2735 0.961 . S
H2751 C2735 0.960 . S
C2752 C2753 1.391 . S
C2752 C2754 1.394 . S
C2752 H2768 0.931 . S
C2753 C2752 1.391 . S
C2753 C2757 1.376 . S
C2754 C2752 1.394 . S
C2754 C2755 1.369 . S
C2754 C2758 1.531 . S
C2755 C2754 1.369 . S
C2755 C2756 1.410 . S
C2755 C2763 1.503 . S
C2756 C2755 1.410 . S
C2756 C2757 1.392 . S
C2756 C2759 1.511 . S
C2757 C2753 1.376 . S
C2757 C2756 1.392 . S
C2757 H2769 0.929 . S
C2758 C2754 1.531 . S
C2758 H2770 0.960 . S
C2758 H2771 0.962 . S
C2758 H2772 0.960 . S
C2759 C2756 1.511 . S
C2759 H2773 0.961 . S
C2759 H2774 0.961 . S
C2759 H2775 0.961 . S
C2760 C2761 1.370 . S
C2760 C2762 1.363 . S
C2760 H2776 0.931 . S
C2761 C2760 1.370 . S
C2761 C2765 1.408 . S
C2762 C2760 1.363 . S
C2762 C2763 1.370 . S
C2762 C2766 1.524 . S
C2763 C2755 1.503 . S
C2763 C2762 1.370 . S
C2763 C2764 1.403 . S
C2764 C2763 1.403 . S
C2764 C2765 1.404 . S
C2764 C2767 1.539 . S
C2765 C2761 1.408 . S
C2765 C2764 1.404 . S
C2765 H2777 0.930 . S
C2766 C2762 1.524 . S
C2766 H2778 0.956 . S
C2766 H2779 0.961 . S
C2766 H2780 0.961 . S
C2767 C2764 1.539 . S
C2767 H2781 0.958 . S
C2767 H2782 0.961 . S
C2767 H2783 0.960 . S
H2768 C2752 0.931 . S
H2769 C2757 0.929 . S
H2770 C2758 0.960 . S
H2771 C2758 0.962 . S
H2772 C2758 0.960 . S
H2773 C2759 0.961 . S
H2774 C2759 0.961 . S
H2775 C2759 0.961 . S
H2776 C2760 0.931 . S
H2777 C2765 0.930 . S
H2778 C2766 0.956 . S
H2779 C2766 0.961 . S
H2780 C2766 0.961 . S
H2781 C2767 0.958 . S
H2782 C2767 0.961 . S
H2783 C2767 0.960 . S
C2784 C2785 1.391 . S
C2784 C2786 1.394 . S
C2784 H2800 0.931 . S
C2785 C2784 1.391 . S
C2785 C2789 1.376 1_655 S
C2786 C2784 1.394 . S
C2786 C2787 1.394 . S
C2786 C2790 1.531 . S
C2787 C2786 1.394 . S
C2787 C2788 1.406 1_655 S
C2787 C2795 1.486 . S
C2788 C2787 1.406 1_455 S
C2788 C2789 1.392 . S
C2788 C2791 1.511 . S
C2789 C2785 1.376 1_455 S
C2789 C2788 1.392 . S
C2789 H2801 0.929 . S
C2790 C2786 1.531 . S
C2790 H2802 0.960 . S
C2790 H2803 0.962 . S
C2790 H2804 0.960 . S
C2791 C2788 1.511 . S
C2791 H2805 0.961 . S
C2791 H2806 0.961 . S
C2791 H2807 0.961 . S
C2792 C2793 1.342 1_655 S
C2792 C2794 1.363 . S
C2792 H2808 0.931 . S
C2793 C2792 1.342 1_455 S
C2793 C2797 1.423 . S
C2794 C2792 1.363 . S
C2794 C2795 1.372 . S
C2794 C2798 1.524 . S
C2795 C2787 1.486 . S
C2795 C2794 1.372 . S
C2795 C2796 1.400 1_655 S
C2796 C2795 1.400 1_455 S
C2796 C2797 1.404 . S
C2796 C2799 1.539 . S
C2797 C2793 1.423 . S
C2797 C2796 1.404 . S
C2797 H2809 0.930 . S
C2798 C2794 1.524 . S
C2798 H2810 0.956 . S
C2798 H2811 0.961 . S
C2798 H2812 0.961 . S
C2799 C2796 1.539 . S
C2799 H2813 0.958 . S
C2799 H2814 0.961 . S
C2799 H2815 0.960 . S
H2800 C2784 0.931 . S
H2801 C2789 0.929 . S
H2802 C2790 0.960 . S
H2803 C2790 0.962 . S
H2804 C2790 0.960 . S
H2805 C2791 0.961 . S
H2806 C2791 0.961 . S
H2807 C2791 0.961 . S
H2808 C2792 0.931 . S
H2809 C2797 0.930 . S
H2810 C2798 0.956 . S
H2811 C2798 0.961 . S
H2812 C2798 0.961 . S
H2813 C2799 0.958 . S
H2814 C2799 0.961 . S
H2815 C2799 0.960 . S
C2816 C2817 1.391 . S
C2816 C2818 1.394 . S
C2816 H2832 0.931 . S
C2817 C2816 1.391 . S
C2817 C2821 1.376 . S
C2818 C2816 1.394 . S
C2818 C2819 1.369 . S
C2818 C2822 1.531 . S
C2819 C2818 1.369 . S
C2819 C2820 1.410 . S
C2819 C2827 1.503 . S
C2820 C2819 1.410 . S
C2820 C2821 1.392 . S
C2820 C2823 1.511 . S
C2821 C2817 1.376 . S
C2821 C2820 1.392 . S
C2821 H2833 0.929 . S
C2822 C2818 1.531 . S
C2822 H2834 0.960 . S
C2822 H2835 0.962 . S
C2822 H2836 0.960 . S
C2823 C2820 1.511 . S
C2823 H2837 0.961 . S
C2823 H2838 0.961 . S
C2823 H2839 0.961 . S
C2824 C2825 1.370 . S
C2824 C2826 1.363 . S
C2824 H2840 0.931 . S
C2825 C2824 1.370 . S
C2825 C2829 1.408 . S
C2826 C2824 1.363 . S
C2826 C2827 1.370 . S
C2826 C2830 1.524 . S
C2827 C2819 1.503 . S
C2827 C2826 1.370 . S
C2827 C2828 1.403 . S
C2828 C2827 1.403 . S
C2828 C2829 1.404 . S
C2828 C2831 1.539 . S
C2829 C2825 1.408 . S
C2829 C2828 1.404 . S
C2829 H2841 0.930 . S
C2830 C2826 1.524 . S
C2830 H2842 0.956 . S
C2830 H2843 0.961 . S
C2830 H2844 0.961 . S
C2831 C2828 1.539 . S
C2831 H2845 0.958 . S
C2831 H2846 0.961 . S
C2831 H2847 0.960 . S
H2832 C2816 0.931 . S
H2833 C2821 0.929 . S
H2834 C2822 0.960 . S
H2835 C2822 0.962 . S
H2836 C2822 0.960 . S
H2837 C2823 0.961 . S
H2838 C2823 0.961 . S
H2839 C2823 0.961 . S
H2840 C2824 0.931 . S
H2841 C2829 0.930 . S
H2842 C2830 0.956 . S
H2843 C2830 0.961 . S
H2844 C2830 0.961 . S
H2845 C2831 0.958 . S
H2846 C2831 0.961 . S
H2847 C2831 0.960 . S
C2848 C2849 1.391 . S
C2848 C2850 1.394 . S
C2848 H2864 0.931 . S
C2849 C2848 1.391 . S
C2849 C2853 1.376 . S
C2850 C2848 1.394 . S
C2850 C2851 1.369 . S
C2850 C2854 1.531 . S
C2851 C2850 1.369 . S
C2851 C2852 1.410 . S
C2851 C2859 1.503 . S
C2852 C2851 1.410 . S
C2852 C2853 1.392 . S
C2852 C2855 1.511 1_545 S
C2853 C2849 1.376 . S
C2853 C2852 1.392 . S
C2853 H2865 0.929 1_545 S
C2854 C2850 1.531 . S
C2854 H2866 0.960 . S
C2854 H2867 0.962 . S
C2854 H2868 0.960 . S
C2855 C2852 1.511 1_565 S
C2855 H2869 0.961 . S
C2855 H2870 0.961 . S
C2855 H2871 0.961 . S
C2856 C2857 1.320 1_565 S
C2856 C2858 1.363 . S
C2856 H2872 0.931 . S
C2857 C2856 1.320 1_545 S
C2857 C2861 1.444 . S
C2858 C2856 1.363 . S
C2858 C2859 1.370 1_565 S
C2858 C2862 1.524 . S
C2859 C2851 1.503 . S
C2859 C2858 1.370 1_545 S
C2859 C2860 1.403 . S
C2860 C2859 1.403 . S
C2860 C2861 1.404 . S
C2860 C2863 1.539 . S
C2861 C2857 1.444 . S
C2861 C2860 1.404 . S
C2861 H2873 0.930 . S
C2862 C2858 1.524 . S
C2862 H2874 0.956 . S
C2862 H2875 0.961 . S
C2862 H2876 0.961 . S
C2863 C2860 1.539 . S
C2863 H2877 0.958 . S
C2863 H2878 0.961 . S
C2863 H2879 0.960 . S
H2864 C2848 0.931 . S
H2865 C2853 0.929 1_565 S
H2866 C2854 0.960 . S
H2867 C2854 0.962 . S
H2868 C2854 0.960 . S
H2869 C2855 0.961 . S
H2870 C2855 0.961 . S
H2871 C2855 0.961 . S
H2872 C2856 0.931 . S
H2873 C2861 0.930 . S
H2874 C2862 0.956 . S
H2875 C2862 0.961 . S
H2876 C2862 0.961 . S
H2877 C2863 0.958 . S
H2878 C2863 0.961 . S
H2879 C2863 0.960 . S
C577 C9 1.490 1_655 S
C585 C421 1.506 . S
C609 C19 1.567 . S
C617 C446 1.532 . S
C649 C457 1.552 . S
C641 C33 1.558 . S
C673 C37 1.550 . S
C681 C482 1.522 . S
C705 C5 1.529 . S
C713 C500 1.514 . S
C737 C23 1.597 . S
C745 C511 1.555 . S
C769 C47 1.521 . S
C777 C493 1.512 . S
C809 C518 1.558 . S
C801 C65 1.562 . S
C841 C475 1.523 . S
C833 C75 1.499 . S
C865 C79 1.510 . S
C873 C464 1.477 . S
C905 C428 1.528 . S
C897 C51 1.574 1_655 S
C929 C61 1.557 . S
C937 C439 1.524 . S
C961 C93 1.635 . S
C969 C529 1.608 . S
C993 C103 1.590 . S
C1001 C554 1.583 . S
C1033 C565 1.586 . S
C1025 C117 1.636 . S
C1057 C121 1.612 . S
C1065 C266 1.581 . S
C1089 C89 1.603 . S
C1097 C284 1.574 . S
C1121 C107 1.618 . S
C1129 C295 1.568 . S
C1153 C131 1.568 . S
C1161 C277 1.539 . S
C1185 C149 1.582 . S
C1193 C302 1.576 . S
C1225 C259 1.540 . S
C1217 C159 1.570 . S
C1257 C572 1.565 . S
C1249 C163 1.583 . S
C1289 C536 1.586 . S
C1281 C135 1.597 . S
C1321 C547 1.565 . S
C1313 C145 1.588 . S
C1345 C177 1.613 . S
C1353 C313 1.561 . S
C1377 C187 1.585 . S
C1385 C338 1.551 . S
C1409 C201 1.627 . S
C1417 C349 1.600 . S
C1441 C205 1.638 . S
C1449 C374 1.627 . S
C1481 C392 1.569 . S
C1473 C173 1.611 . S
C1513 C403 1.585 . S
C1505 C191 1.637 . S
C1545 C385 1.584 . S
C1537 C215 1.600 . S
C1577 C410 1.589 . S
C1569 C233 1.621 . S
C1601 C243 1.570 . S
C1609 C367 1.534 . S
C1641 C356 1.509 . S
C1633 C247 1.522 . S
C1665 C219 1.597 . S
C1673 C320 1.582 . S
C1705 C331 1.563 . S
C1697 C229 1.563 . S
C1737 C268 1.417 . S
C1729 C11 1.494 . S
C1761 C14 1.466 . S
C1769 C286 1.391 . S
C1801 C296 1.460 . S
C1793 C28 1.532 . S
C1833 C314 1.459 . S
C1825 C39 1.520 . S
C1865 C340 1.440 . S
C1857 C0 1.506 . S
C1897 C350 1.348 . S
C1889 C25 1.424 . S
C1921 C42 1.571 . S
C1929 C358 1.474 . S
C1953 C67 1.503 . S
C1961 C322 1.421 . S
C1985 C70 1.478 . S
C1993 C332 1.422 . S
C2017 C81 1.510 . S
C2025 C278 1.450 . S
C2057 C304 1.442 . S
C2049 C53 1.545 . S
C2081 C56 1.505 . S
C2089 C260 1.432 . S
C2121 C376 1.427 . S
C2113 C95 1.469 . S
C2145 C98 1.526 . S
C2153 C394 1.447 . S
C2177 C112 1.567 . S
C2185 C404 1.520 . S
C2217 C422 1.396 . S
C2209 C123 1.465 . S
C2241 C84 1.484 . S
C2249 C448 1.417 . S
C2273 C109 1.424 . S
C2281 C458 1.376 . S
C2305 C126 1.475 . S
C2313 C466 1.440 . S
C2337 C151 1.455 . S
C2345 C430 1.395 1_655 S
C2377 C440 1.414 . S
C2369 C154 1.490 . S
C2401 C165 1.483 . S
C2409 C386 1.406 . S
C2433 C137 1.577 . S
C2441 C412 1.468 . S
C2473 C368 1.501 . S
C2465 C140 1.587 . S
C2505 C484 1.399 . S
C2497 C179 1.432 . S
C2529 C182 1.423 . S
C2537 C502 1.398 . S
C2561 C196 1.523 . S
C2569 C512 1.478 . S
C2601 C530 1.436 . S
C2593 C207 1.518 . S
C2633 C556 1.474 . S
C2625 C168 1.518 . S
C2657 C193 1.503 . S
C2665 C566 1.451 . S
C2689 C210 1.573 . S
C2697 C574 1.485 . S
C2721 C235 1.559 . S
C2729 C538 1.468 . S
C2761 C548 1.462 . S
C2753 C238 1.545 . S
C2793 C494 1.358 . S
C2785 C249 1.419 . S
C2825 C520 1.433 . S
C2817 C221 1.532 . S
C2849 C224 1.460 . S
C2857 C476 1.469 1_545 S
