# Generated by pormake.
# Topology ctn, (3,4)-cn, num edge types: 1
# Building blocks:
#     Node 0, Type 0, BuildingBlock: ESEHIV_clean_linker_0, # of connection points: 3
#     Node 1, Type 0, BuildingBlock: ESEHIV_clean_linker_0, # of connection points: 3
#     Node 2, Type 0, BuildingBlock: ESEHIV_clean_linker_0, # of connection points: 3
#     Node 3, Type 0, BuildingBlock: ESEHIV_clean_linker_0, # of connection points: 3
#     Node 4, Type 0, BuildingBlock: ESEHIV_clean_linker_0, # of connection points: 3
#     Node 5, Type 0, BuildingBlock: ESEHIV_clean_linker_0, # of connection points: 3
#     Node 6, Type 0, BuildingBlock: ESEHIV_clean_linker_0, # of connection points: 3
#     Node 7, Type 0, BuildingBlock: ESEHIV_clean_linker_0, # of connection points: 3
#     Node 8, Type 0, BuildingBlock: ESEHIV_clean_linker_0, # of connection points: 3
#     Node 9, Type 0, BuildingBlock: ESEHIV_clean_linker_0, # of connection points: 3
#     Node 10, Type 0, BuildingBlock: ESEHIV_clean_linker_0, # of connection points: 3
#     Node 11, Type 0, BuildingBlock: ESEHIV_clean_linker_0, # of connection points: 3
#     Node 12, Type 0, BuildingBlock: ESEHIV_clean_linker_0, # of connection points: 3
#     Node 13, Type 0, BuildingBlock: ESEHIV_clean_linker_0, # of connection points: 3
#     Node 14, Type 0, BuildingBlock: ESEHIV_clean_linker_0, # of connection points: 3
#     Node 15, Type 0, BuildingBlock: ESEHIV_clean_linker_0, # of connection points: 3
#     Node 16, Type 1, BuildingBlock: QUQFOY_clean_sbu_1, # of connection points: 4
#     Node 17, Type 1, BuildingBlock: QUQFOY_clean_sbu_1, # of connection points: 4
#     Node 18, Type 1, BuildingBlock: QUQFOY_clean_sbu_1, # of connection points: 4
#     Node 19, Type 1, BuildingBlock: QUQFOY_clean_sbu_1, # of connection points: 4
#     Node 20, Type 1, BuildingBlock: QUQFOY_clean_sbu_1, # of connection points: 4
#     Node 21, Type 1, BuildingBlock: QUQFOY_clean_sbu_1, # of connection points: 4
#     Node 22, Type 1, BuildingBlock: QUQFOY_clean_sbu_1, # of connection points: 4
#     Node 23, Type 1, BuildingBlock: QUQFOY_clean_sbu_1, # of connection points: 4
#     Node 24, Type 1, BuildingBlock: QUQFOY_clean_sbu_1, # of connection points: 4
#     Node 25, Type 1, BuildingBlock: QUQFOY_clean_sbu_1, # of connection points: 4
#     Node 26, Type 1, BuildingBlock: QUQFOY_clean_sbu_1, # of connection points: 4
#     Node 27, Type 1, BuildingBlock: QUQFOY_clean_sbu_1, # of connection points: 4
#     Edge 28, Type (0, 1), BuildingBlock: MIFKUJ_clean_linker_0, # of connection points: 2
#     Edge 29, Type (0, 1), BuildingBlock: MIFKUJ_clean_linker_0, # of connection points: 2
#     Edge 30, Type (0, 1), BuildingBlock: MIFKUJ_clean_linker_0, # of connection points: 2
#     Edge 31, Type (0, 1), BuildingBlock: MIFKUJ_clean_linker_0, # of connection points: 2
#     Edge 32, Type (0, 1), BuildingBlock: MIFKUJ_clean_linker_0, # of connection points: 2
#     Edge 33, Type (0, 1), BuildingBlock: MIFKUJ_clean_linker_0, # of connection points: 2
#     Edge 34, Type (0, 1), BuildingBlock: MIFKUJ_clean_linker_0, # of connection points: 2
#     Edge 35, Type (0, 1), BuildingBlock: MIFKUJ_clean_linker_0, # of connection points: 2
#     Edge 36, Type (0, 1), BuildingBlock: MIFKUJ_clean_linker_0, # of connection points: 2
#     Edge 37, Type (0, 1), BuildingBlock: MIFKUJ_clean_linker_0, # of connection points: 2
#     Edge 38, Type (0, 1), BuildingBlock: MIFKUJ_clean_linker_0, # of connection points: 2
#     Edge 39, Type (0, 1), BuildingBlock: MIFKUJ_clean_linker_0, # of connection points: 2
#     Edge 40, Type (0, 1), BuildingBlock: MIFKUJ_clean_linker_0, # of connection points: 2
#     Edge 41, Type (0, 1), BuildingBlock: MIFKUJ_clean_linker_0, # of connection points: 2
#     Edge 42, Type (0, 1), BuildingBlock: MIFKUJ_clean_linker_0, # of connection points: 2
#     Edge 43, Type (0, 1), BuildingBlock: MIFKUJ_clean_linker_0, # of connection points: 2
#     Edge 44, Type (0, 1), BuildingBlock: MIFKUJ_clean_linker_0, # of connection points: 2
#     Edge 45, Type (0, 1), BuildingBlock: MIFKUJ_clean_linker_0, # of connection points: 2
#     Edge 46, Type (0, 1), BuildingBlock: MIFKUJ_clean_linker_0, # of connection points: 2
#     Edge 47, Type (0, 1), BuildingBlock: MIFKUJ_clean_linker_0, # of connection points: 2
#     Edge 48, Type (0, 1), BuildingBlock: MIFKUJ_clean_linker_0, # of connection points: 2
#     Edge 49, Type (0, 1), BuildingBlock: MIFKUJ_clean_linker_0, # of connection points: 2
#     Edge 50, Type (0, 1), BuildingBlock: MIFKUJ_clean_linker_0, # of connection points: 2
#     Edge 51, Type (0, 1), BuildingBlock: MIFKUJ_clean_linker_0, # of connection points: 2
#     Edge 52, Type (0, 1), BuildingBlock: MIFKUJ_clean_linker_0, # of connection points: 2
#     Edge 53, Type (0, 1), BuildingBlock: MIFKUJ_clean_linker_0, # of connection points: 2
#     Edge 54, Type (0, 1), BuildingBlock: MIFKUJ_clean_linker_0, # of connection points: 2
#     Edge 55, Type (0, 1), BuildingBlock: MIFKUJ_clean_linker_0, # of connection points: 2
#     Edge 56, Type (0, 1), BuildingBlock: MIFKUJ_clean_linker_0, # of connection points: 2
#     Edge 57, Type (0, 1), BuildingBlock: MIFKUJ_clean_linker_0, # of connection points: 2
#     Edge 58, Type (0, 1), BuildingBlock: MIFKUJ_clean_linker_0, # of connection points: 2
#     Edge 59, Type (0, 1), BuildingBlock: MIFKUJ_clean_linker_0, # of connection points: 2
#     Edge 60, Type (0, 1), BuildingBlock: MIFKUJ_clean_linker_0, # of connection points: 2
#     Edge 61, Type (0, 1), BuildingBlock: MIFKUJ_clean_linker_0, # of connection points: 2
#     Edge 62, Type (0, 1), BuildingBlock: MIFKUJ_clean_linker_0, # of connection points: 2
#     Edge 63, Type (0, 1), BuildingBlock: MIFKUJ_clean_linker_0, # of connection points: 2
#     Edge 64, Type (0, 1), BuildingBlock: MIFKUJ_clean_linker_0, # of connection points: 2
#     Edge 65, Type (0, 1), BuildingBlock: MIFKUJ_clean_linker_0, # of connection points: 2
#     Edge 66, Type (0, 1), BuildingBlock: MIFKUJ_clean_linker_0, # of connection points: 2
#     Edge 67, Type (0, 1), BuildingBlock: MIFKUJ_clean_linker_0, # of connection points: 2
#     Edge 68, Type (0, 1), BuildingBlock: MIFKUJ_clean_linker_0, # of connection points: 2
#     Edge 69, Type (0, 1), BuildingBlock: MIFKUJ_clean_linker_0, # of connection points: 2
#     Edge 70, Type (0, 1), BuildingBlock: MIFKUJ_clean_linker_0, # of connection points: 2
#     Edge 71, Type (0, 1), BuildingBlock: MIFKUJ_clean_linker_0, # of connection points: 2
#     Edge 72, Type (0, 1), BuildingBlock: MIFKUJ_clean_linker_0, # of connection points: 2
#     Edge 73, Type (0, 1), BuildingBlock: MIFKUJ_clean_linker_0, # of connection points: 2
#     Edge 74, Type (0, 1), BuildingBlock: MIFKUJ_clean_linker_0, # of connection points: 2
#     Edge 75, Type (0, 1), BuildingBlock: MIFKUJ_clean_linker_0, # of connection points: 2
# Relax obj value: 0.036
# Max RMSD: 0.143
# Mean RMSD: 0.065
data_MOF--net-ctn--node1-QUQFOY_clean_sbu_1--node2-ESEHIV_clean_linker_0--edge1-MIFKUJ_clean_linker_0
_symmetry_space_group_name_H-M    P1
_symmetry_Int_Tables_number       1
_symmetry_cell_setting            triclinic
loop_
_symmetry_equiv_pos_as_xyz
'x, y, z'
_cell_length_a     68.275735
_cell_length_b     68.206734
_cell_length_c     68.281082
_cell_angle_alpha  92.799834
_cell_angle_beta   90.193117
_cell_angle_gamma 94.61944
loop_
_atom_site_label
_atom_site_type_symbol
_atom_site_fract_x
_atom_site_fract_y
_atom_site_fract_z
_atom_type_partial_charge
H0 H 0.04359 0.13845 0.0921 0.0
H1 H 0.06961 0.09044 0.11818 0.0
H2 H 0.08743 0.10809 0.06093 0.0
C3 C 0.05393 0.12719 0.09158 0.0
C4 C 0.06562 0.1249 0.07489 0.0
C5 C 0.05511 0.11475 0.10728 0.0
C6 C 0.06878 0.10034 0.10634 0.0
C7 C 0.08076 0.09797 0.08984 0.0
C8 C 0.0791 0.11042 0.07421 0.0
H9 H 0.29021 0.7124 0.25867 0.0
H10 H 0.3069 0.7664 0.23076 0.0
H11 H 0.25484 0.73111 0.21187 0.0
C12 C 0.28764 0.72282 0.24765 0.0
C13 C 0.27105 0.71948 0.23534 0.0
C14 C 0.30089 0.73951 0.246 0.0
C15 C 0.29675 0.75356 0.2325 0.0
C16 C 0.28002 0.75067 0.22043 0.0
C17 C 0.26741 0.73352 0.22168 0.0
H18 H 0.93171 0.47827 0.09943 0.0
H19 H 0.95511 0.42441 0.07857 0.0
H20 H 0.91301 0.45064 0.04371 0.0
C21 C 0.93208 0.46623 0.08855 0.0
C22 C 0.92029 0.46608 0.07158 0.0
C23 C 0.94493 0.45142 0.09118 0.0
C24 C 0.94546 0.43607 0.07678 0.0
C25 C 0.93392 0.43576 0.05977 0.0
C26 C 0.92124 0.45061 0.0573 0.0
H27 H 0.69974 0.77781 0.22343 0.0
H28 H 0.74803 0.81499 0.20197 0.0
H29 H 0.71216 0.83645 0.24872 0.0
C30 C 0.70865 0.79173 0.22411 0.0
C31 C 0.70425 0.80671 0.23784 0.0
C32 C 0.72439 0.79467 0.2111 0.0
C33 C 0.73586 0.81275 0.21198 0.0
C34 C 0.73152 0.82799 0.22546 0.0
C35 C 0.71568 0.82479 0.2383 0.0
H36 H 0.03242 0.94738 0.44206 0.0
H37 H 0.06209 0.00192 0.42499 0.0
H38 H 0.08897 0.96721 0.46687 0.0
C39 C 0.04522 0.9579 0.44275 0.0
C40 C 0.06078 0.95523 0.4556 0.0
C41 C 0.04552 0.97487 0.43187 0.0
C42 C 0.06177 0.98885 0.43345 0.0
C43 C 0.07764 0.986 0.44578 0.0
C44 C 0.07703 0.96917 0.45681 0.0
H45 H 0.18965 0.78073 0.80402 0.0
H46 H 0.24121 0.7559 0.82517 0.0
H47 H 0.21854 0.7393 0.76726 0.0
C48 C 0.2016 0.77134 0.80172 0.0
C49 C 0.20269 0.7604 0.78391 0.0
C50 C 0.21555 0.77002 0.81664 0.0
C51 C 0.23058 0.75729 0.81361 0.0
C52 C 0.2317 0.746 0.79591 0.0
C53 C 0.21785 0.7479 0.78099 0.0
H54 H 0.91669 0.58911 0.48559 0.0
H55 H 0.97462 0.59869 0.46167 0.0
H56 H 0.93731 0.54731 0.44287 0.0
C57 C 0.92789 0.58472 0.47542 0.0
C58 C 0.92476 0.56704 0.46407 0.0
C59 C 0.94592 0.59606 0.47478 0.0
C60 C 0.96073 0.58984 0.46231 0.0
C61 C 0.95766 0.57239 0.45057 0.0
C62 C 0.93963 0.56105 0.45154 0.0
H63 H 0.75461 0.80632 0.81587 0.0
H64 H 0.789 0.83579 0.77199 0.0
H65 H 0.81138 0.78724 0.80052 0.0
C66 C 0.76781 0.80756 0.80708 0.0
C67 C 0.78286 0.7951 0.81002 0.0
C68 C 0.77002 0.82219 0.79336 0.0
C69 C 0.78722 0.82413 0.78223 0.0
C70 C 0.80217 0.81142 0.78449 0.0
C71 C 0.79981 0.79691 0.79841 0.0
H72 H 0.25695 0.30622 0.31545 0.0
H73 H 0.28778 0.32992 0.26593 0.0
H74 H 0.31123 0.28369 0.29735 0.0
C75 C 0.26929 0.30637 0.30549 0.0
C76 C 0.28402 0.29357 0.30812 0.0
C77 C 0.27031 0.31917 0.28996 0.0
C78 C 0.28652 0.31938 0.27732 0.0
C79 C 0.30157 0.30684 0.28003 0.0
C80 C 0.29989 0.29363 0.29519 0.0
H81 H 0.41948 0.97328 0.6049 0.0
H82 H 0.43732 0.91669 0.58506 0.0
H83 H 0.39931 0.94712 0.54909 0.0
C84 C 0.41872 0.96103 0.59417 0.0
C85 C 0.40745 0.96196 0.57701 0.0
C86 C 0.4298 0.94489 0.59711 0.0
C87 C 0.42874 0.92914 0.58304 0.0
C88 C 0.41781 0.92991 0.56571 0.0
C89 C 0.40719 0.9463 0.5628 0.0
H90 H 0.20326 0.27887 0.72825 0.0
H91 H 0.24301 0.32331 0.70445 0.0
H92 H 0.20611 0.33831 0.75299 0.0
C93 C 0.20954 0.29399 0.72861 0.0
C94 C 0.2032 0.30782 0.74266 0.0
C95 C 0.22351 0.2997 0.71456 0.0
C96 C 0.2318 0.3192 0.71502 0.0
C97 C 0.22593 0.33322 0.7291 0.0
C98 C 0.21145 0.3274 0.74272 0.0
H99 H 0.78707 0.20976 0.74283 0.0
H100 H 0.8016 0.26922 0.72652 0.0
H101 H 0.74914 0.23697 0.70372 0.0
C102 C 0.78363 0.22235 0.73478 0.0
C103 C 0.76635 0.22132 0.72341 0.0
C104 C 0.79659 0.23945 0.73582 0.0
C105 C 0.79198 0.25577 0.72545 0.0
C106 C 0.77477 0.25505 0.71403 0.0
C107 C 0.76208 0.23777 0.71304 0.0
H108 H 0.53977 0.63616 0.58559 0.0
H109 H 0.56354 0.58988 0.61647 0.0
H110 H 0.58719 0.60596 0.56063 0.0
C111 C 0.55035 0.62522 0.58666 0.0
C112 C 0.56387 0.62275 0.57148 0.0
C113 C 0.55002 0.61336 0.60292 0.0
C114 C 0.56391 0.59931 0.60414 0.0
C115 C 0.57754 0.59656 0.58906 0.0
C116 C 0.57748 0.60853 0.57285 0.0
H117 H 0.52605 0.44822 0.94178 0.0
H118 H 0.56301 0.49478 0.91714 0.0
H119 H 0.58495 0.4623 0.96351 0.0
C120 C 0.54009 0.45673 0.94101 0.0
C121 C 0.55544 0.45289 0.95372 0.0
C122 C 0.54255 0.47199 0.92789 0.0
C123 C 0.56076 0.48312 0.92733 0.0
C124 C 0.57606 0.47966 0.94009 0.0
C125 C 0.5734 0.46439 0.95306 0.0
H126 H 0.69554 0.2809 0.30506 0.0
H127 H 0.74047 0.24785 0.32877 0.0
H128 H 0.71993 0.23531 0.26957 0.0
C129 C 0.70572 0.26956 0.30343 0.0
C130 C 0.70616 0.25842 0.28562 0.0
C131 C 0.71797 0.26586 0.31919 0.0
C132 C 0.73124 0.25121 0.31664 0.0
C133 C 0.73214 0.24022 0.29877 0.0
C134 C 0.71937 0.24375 0.2834 0.0
H135 H 0.42947 0.07544 0.9939 0.0
H136 H 0.48501 0.08766 0.96588 0.0
H137 H 0.44906 0.03462 0.94952 0.0
C138 C 0.44016 0.07143 0.98302 0.0
C139 C 0.43708 0.05361 0.97185 0.0
C140 C 0.45749 0.08363 0.98104 0.0
C141 C 0.47172 0.07808 0.96759 0.0
C142 C 0.46871 0.0605 0.95605 0.0
C143 C 0.45135 0.04833 0.95825 0.0
O144 O 0.23088 0.87639 0.01065 0.0
Cd145 Cd 0.24549 0.89139 0.03389 0.0
Cd146 Cd 0.22338 0.92123 0.02171 0.0
O147 O 0.21403 0.90017 0.00025 0.0
O148 O 0.25774 0.87009 0.047 0.0
O149 O 0.23659 0.88865 0.06183 0.0
C150 C 0.24796 0.87445 0.06248 0.0
C151 C 0.20078 0.94226 0.0345 0.0
C152 C 0.21901 0.88262 0.99849 0.0
C153 C 0.26778 0.92828 0.02196 0.0
O154 O 0.25117 0.93483 0.01922 0.0
O155 O 0.26892 0.91098 0.02769 0.0
O156 O 0.20747 0.94363 0.01699 0.0
O157 O 0.20635 0.9283 0.04478 0.0
O158 O 0.15325 0.53297 0.27982 0.0
Cd159 Cd 0.13727 0.50913 0.29073 0.0
Cd160 Cd 0.10856 0.51934 0.26658 0.0
O161 O 0.12974 0.5414 0.26043 0.0
O162 O 0.15603 0.49147 0.30104 0.0
O163 O 0.13629 0.48314 0.27559 0.0
C164 C 0.14979 0.47859 0.2875 0.0
C165 C 0.08818 0.50648 0.24086 0.0
C166 C 0.14707 0.54435 0.2674 0.0
C167 C 0.1002 0.51849 0.31005 0.0
O168 O 0.09412 0.52093 0.29284 0.0
O169 O 0.1176 0.51395 0.31289 0.0
O170 O 0.08684 0.52392 0.24853 0.0
O171 O 0.10173 0.4963 0.24738 0.0
O172 O 0.76506 0.67558 0.98658 0.0
Cd173 Cd 0.75438 0.65797 0.0084 0.0
Cd174 Cd 0.78054 0.63351 0.9929 0.0
O175 O 0.78692 0.65621 0.97452 0.0
O176 O 0.73994 0.67527 0.02645 0.0
O177 O 0.76638 0.66111 0.03544 0.0
C178 C 0.75252 0.67234 0.03989 0.0
C179 C 0.80557 0.6166 0.00562 0.0
C180 C 0.77839 0.67209 0.97424 0.0
C181 C 0.73773 0.61897 0.99159 0.0
O182 O 0.75527 0.61575 0.98727 0.0
O183 O 0.734 0.63502 0.00044 0.0
O184 O 0.8007 0.6147 0.98736 0.0
O185 O 0.79689 0.62907 0.0167 0.0
O186 O 0.89834 0.02211 0.28336 0.0
Cd187 Cd 0.88489 0.03193 0.2591 0.0
Cd188 Cd 0.86058 0.04372 0.28662 0.0
O189 O 0.882 0.03757 0.30627 0.0
O190 O 0.9061 0.03024 0.23948 0.0
O191 O 0.89377 0.0583 0.24862 0.0
C192 C 0.90642 0.04907 0.23851 0.0
C193 C 0.84788 0.07438 0.28826 0.0
C194 C 0.89577 0.02696 0.30128 0.0
C195 C 0.84534 0.0112 0.25773 0.0
O196 O 0.84294 0.02028 0.27415 0.0
O197 O 0.86087 0.01491 0.24793 0.0
O198 O 0.8427 0.06119 0.30056 0.0
O199 O 0.86067 0.07023 0.27509 0.0
O200 O 0.26942 0.18184 0.48916 0.0
Cd201 Cd 0.25829 0.16489 0.51123 0.0
Cd202 Cd 0.28301 0.13956 0.49485 0.0
O203 O 0.29106 0.16232 0.47702 0.0
O204 O 0.24463 0.18396 0.52799 0.0
O205 O 0.26912 0.168 0.53883 0.0
C206 C 0.25619 0.18056 0.54215 0.0
C207 C 0.30653 0.12118 0.50816 0.0
C208 C 0.28276 0.17833 0.47686 0.0
C209 C 0.23955 0.12719 0.49384 0.0
O210 O 0.25676 0.1234 0.48876 0.0
O211 O 0.23677 0.14304 0.50356 0.0
O212 O 0.30214 0.1196 0.48976 0.0
O213 O 0.29823 0.13411 0.51904 0.0
O214 O 0.39593 0.53075 0.78268 0.0
Cd215 Cd 0.37959 0.53783 0.7589 0.0
Cd216 Cd 0.35559 0.54763 0.7885 0.0
O217 O 0.37699 0.53974 0.80706 0.0
O218 O 0.39859 0.53437 0.73733 0.0
O219 O 0.38737 0.56309 0.74556 0.0
C220 C 0.39877 0.55295 0.73477 0.0
C221 C 0.34456 0.57893 0.79089 0.0
C222 C 0.39263 0.5327 0.80095 0.0
C223 C 0.33973 0.5158 0.75975 0.0
O224 O 0.33712 0.52529 0.77586 0.0
O225 O 0.35541 0.51918 0.75007 0.0
O226 O 0.33866 0.56567 0.80288 0.0
O227 O 0.35721 0.5745 0.77767 0.0
O228 O 0.73648 0.38062 0.51123 0.0
Cd229 Cd 0.74544 0.39962 0.53442 0.0
Cd230 Cd 0.71864 0.42164 0.51916 0.0
O231 O 0.71197 0.39681 0.50105 0.0
O232 O 0.76018 0.38381 0.55209 0.0
O233 O 0.73276 0.39704 0.56084 0.0
C234 C 0.74704 0.38665 0.5652 0.0
C235 C 0.6939 0.43973 0.53227 0.0
C236 C 0.72211 0.38197 0.49963 0.0
C237 C 0.76117 0.4374 0.51869 0.0
O238 O 0.74367 0.43921 0.51318 0.0
O239 O 0.76514 0.42277 0.52833 0.0
O240 O 0.69809 0.43965 0.51389 0.0
O241 O 0.70304 0.42849 0.54324 0.0
O242 O 0.65089 0.03515 0.76365 0.0
Cd243 Cd 0.63703 0.01228 0.77818 0.0
Cd244 Cd 0.60551 0.02117 0.7565 0.0
O245 O 0.62514 0.0433 0.74722 0.0
O246 O 0.6585 0.99778 0.78843 0.0
O247 O 0.63623 0.9844 0.76703 0.0
C248 C 0.65158 0.98267 0.77776 0.0
C249 C 0.58297 0.00603 0.73379 0.0
C250 C 0.64322 0.04619 0.75183 0.0
C251 C 0.60199 0.0224 0.80077 0.0
O252 O 0.59401 0.02366 0.78413 0.0
O253 O 0.6198 0.01852 0.80203 0.0
O254 O 0.58158 0.02374 0.74073 0.0
O255 O 0.5978 0.99692 0.73916 0.0
O256 O 0.97557 0.27284 0.9142 0.0
Cd257 Cd 0.98499 0.24972 0.89734 0.0
Cd258 Cd 0.00203 0.27793 0.87668 0.0
O259 O 0.99469 0.29573 0.90042 0.0
O260 O 0.98284 0.2269 0.91435 0.0
O261 O 0.01122 0.24006 0.9035 0.0
C262 C 0.00175 0.22727 0.91404 0.0
C263 C 0.03376 0.28136 0.86423 0.0
C264 C 0.98241 0.29065 0.91354 0.0
C265 C 0.96868 0.2524 0.85754 0.0
O266 O 0.98006 0.26805 0.85683 0.0
O267 O 0.96922 0.2417 0.8722 0.0
O268 O 0.0214 0.29432 0.86156 0.0
O269 O 0.0282 0.26647 0.87442 0.0
O270 O 0.48814 0.78021 0.42036 0.0
Cd271 Cd 0.49691 0.75921 0.40018 0.0
Cd272 Cd 0.51001 0.79094 0.38214 0.0
O273 O 0.50312 0.8063 0.40746 0.0
O274 O 0.49409 0.7345 0.41453 0.0
O275 O 0.52278 0.74783 0.40478 0.0
C276 C 0.51293 0.73422 0.41398 0.0
C277 C 0.54129 0.79326 0.36888 0.0
C278 C 0.49285 0.79864 0.42101 0.0
C279 C 0.47716 0.76609 0.36245 0.0
O280 O 0.48709 0.78268 0.3632 0.0
O281 O 0.47996 0.75353 0.37511 0.0
O282 O 0.52977 0.80724 0.36743 0.0
O283 O 0.53519 0.77813 0.37852 0.0
O284 O 0.98224 0.79086 0.6673 0.0
Cd285 Cd 0.00333 0.77879 0.64987 0.0
Cd286 Cd 0.98881 0.80215 0.62348 0.0
O287 O 0.97244 0.81184 0.64653 0.0
O288 O 0.01906 0.76541 0.66884 0.0
O289 O 0.03161 0.78977 0.65132 0.0
C290 C 0.03402 0.77701 0.66431 0.0
C291 C 0.00522 0.82466 0.60368 0.0
C292 C 0.97146 0.80447 0.66324 0.0
C293 C 0.98431 0.75903 0.61362 0.0
O294 O 0.97936 0.77586 0.60939 0.0
O295 O 0.99469 0.75709 0.62877 0.0
O296 O 0.98634 0.82185 0.60349 0.0
O297 O 0.01498 0.81503 0.61572 0.0
O298 O 0.48535 0.28303 0.16666 0.0
Cd299 Cd 0.50819 0.27367 0.14968 0.0
Cd300 Cd 0.49318 0.29654 0.12304 0.0
O301 O 0.47464 0.30311 0.14545 0.0
O302 O 0.52553 0.26107 0.16785 0.0
O303 O 0.53514 0.2879 0.15235 0.0
C304 C 0.53915 0.27457 0.16423 0.0
C305 C 0.50748 0.32217 0.10546 0.0
C306 C 0.47346 0.29547 0.16202 0.0
C307 C 0.49274 0.25388 0.11174 0.0
O308 O 0.48707 0.27037 0.10735 0.0
O309 O 0.50207 0.25224 0.12763 0.0
O310 O 0.48899 0.31678 0.104 0.0
O311 O 0.51802 0.31313 0.11731 0.0
H312 H 0.22115 0.75798 0.85384 0.0
H313 H 0.21821 0.77701 0.88479 0.0
H314 H 0.20259 0.82682 0.85319 0.0
H315 H 0.20643 0.80821 0.82216 0.0
H316 H 0.22807 0.83844 0.88098 0.0
H317 H 0.16781 0.79751 0.87756 0.0
H318 H 0.14681 0.76641 0.87372 0.0
H319 H 0.17364 0.74504 0.92461 0.0
H320 H 0.19502 0.77592 0.9286 0.0
H321 H 0.20074 0.89317 0.96528 0.0
H322 H 0.19576 0.8735 0.93448 0.0
H323 H 0.21844 0.82392 0.96123 0.0
H324 H 0.22343 0.84338 0.99207 0.0
H325 H 0.18698 0.81302 0.93547 0.0
H326 H 0.24887 0.85301 0.93686 0.0
H327 H 0.26968 0.88424 0.94073 0.0
H328 H 0.23894 0.90749 0.89321 0.0
H329 H 0.21775 0.87647 0.88925 0.0
C330 C 0.21732 0.77306 0.85346 0.0
C331 C 0.214 0.78157 0.83552 0.0
C332 C 0.21537 0.78383 0.87118 0.0
C333 C 0.20984 0.80323 0.87132 0.0
C334 C 0.20673 0.81183 0.85344 0.0
C335 C 0.2088 0.80112 0.83572 0.0
C336 C 0.20784 0.81476 0.89009 0.0
C337 C 0.21879 0.83301 0.89274 0.0
C338 C 0.19602 0.80754 0.90559 0.0
C339 C 0.18314 0.78897 0.90327 0.0
C340 C 0.16934 0.78612 0.88785 0.0
C341 C 0.15735 0.76854 0.88566 0.0
C342 C 0.15892 0.75374 0.89888 0.0
C343 C 0.17246 0.75651 0.91436 0.0
C344 C 0.1845 0.77406 0.91661 0.0
C345 C 0.20428 0.87795 0.96475 0.0
C346 C 0.21273 0.86992 0.98105 0.0
C347 C 0.20147 0.86677 0.94713 0.0
C348 C 0.20702 0.84738 0.94555 0.0
C349 C 0.21413 0.83888 0.96216 0.0
C350 C 0.21704 0.85007 0.97975 0.0
C351 C 0.2072 0.83657 0.92625 0.0
C352 C 0.19602 0.81847 0.92356 0.0
C353 C 0.21875 0.84393 0.91065 0.0
C354 C 0.23159 0.86252 0.91291 0.0
C355 C 0.24645 0.86484 0.92734 0.0
C356 C 0.25833 0.8825 0.92953 0.0
C357 C 0.2556 0.89787 0.91726 0.0
C358 C 0.24102 0.89559 0.90273 0.0
C359 C 0.22907 0.87797 0.9005 0.0
H360 H 0.26481 0.91152 0.91898 0.0
H361 H 0.14962 0.74014 0.89716 0.0
H362 H 0.99651 0.57121 0.45966 0.0
H363 H 0.02251 0.55989 0.43838 0.0
H364 H 0.98037 0.54715 0.39129 0.0
H365 H 0.95431 0.5583 0.41256 0.0
H366 H 0.00368 0.51793 0.39395 0.0
H367 H 0.0122 0.5886 0.39267 0.0
H368 H 0.01717 0.62254 0.40701 0.0
H369 H 0.07178 0.60931 0.43268 0.0
H370 H 0.06698 0.57519 0.41871 0.0
H371 H 0.06059 0.5202 0.30844 0.0
H372 H 0.03843 0.52658 0.33546 0.0
H373 H 0.08703 0.5298 0.37632 0.0
H374 H 0.10951 0.52332 0.3492 0.0
H375 H 0.06317 0.56167 0.38021 0.0
H376 H 0.05555 0.49133 0.37714 0.0
H377 H 0.05 0.45819 0.36103 0.0
H378 H 0.99294 0.47167 0.34165 0.0
H379 H 0.99825 0.50501 0.3574 0.0
C380 C 0.99285 0.56612 0.44472 0.0
C381 C 0.97343 0.5657 0.4377 0.0
C382 C 0.00768 0.55964 0.43261 0.0
C383 C 0.00338 0.55284 0.41322 0.0
C384 C 0.98398 0.55227 0.40624 0.0
C385 C 0.96912 0.55864 0.41838 0.0
C386 C 0.01906 0.54641 0.40007 0.0
C387 C 0.01663 0.52753 0.39084 0.0
C388 C 0.0362 0.55878 0.39645 0.0
C389 C 0.03911 0.57928 0.40485 0.0
C390 C 0.02518 0.59288 0.40152 0.0
C391 C 0.02798 0.61216 0.40955 0.0
C392 C 0.04475 0.61806 0.4208 0.0
C393 C 0.05878 0.6047 0.424 0.0
C394 C 0.05603 0.5854 0.41602 0.0
C395 C 0.06661 0.52214 0.32317 0.0
C396 C 0.08681 0.5213 0.3267 0.0
C397 C 0.05389 0.52567 0.3386 0.0
C398 C 0.06111 0.52849 0.35785 0.0
C399 C 0.08123 0.52756 0.36152 0.0
C400 C 0.094 0.52381 0.34606 0.0
C401 C 0.04756 0.53336 0.37385 0.0
C402 C 0.05038 0.55195 0.38359 0.0
C403 C 0.03067 0.52082 0.37776 0.0
C404 C 0.02736 0.50073 0.36836 0.0
C405 C 0.04187 0.48728 0.36932 0.0
C406 C 0.03876 0.46845 0.36028 0.0
C407 C 0.02114 0.46284 0.3503 0.0
C408 C 0.00658 0.47604 0.34938 0.0
C409 C 0.00962 0.4949 0.35839 0.0
H410 H 0.01876 0.44825 0.3433 0.0
H411 H 0.0469 0.63299 0.427 0.0
H412 H 0.76934 0.80174 0.84717 0.0
H413 H 0.77009 0.78025 0.87461 0.0
H414 H 0.79557 0.73623 0.83743 0.0
H415 H 0.79398 0.75729 0.80958 0.0
H416 H 0.76909 0.71941 0.86098 0.0
H417 H 0.82421 0.7668 0.86899 0.0
H418 H 0.84157 0.79996 0.87126 0.0
H419 H 0.80787 0.81507 0.92198 0.0
H420 H 0.79009 0.78207 0.91985 0.0
H421 H 0.79922 0.66568 0.94069 0.0
H422 H 0.80223 0.68656 0.91256 0.0
H423 H 0.76998 0.73005 0.94355 0.0
H424 H 0.76683 0.70931 0.97174 0.0
H425 H 0.80224 0.74627 0.92251 0.0
H426 H 0.746 0.6988 0.91263 0.0
H427 H 0.72942 0.66528 0.91008 0.0
H428 H 0.76694 0.64993 0.86234 0.0
H429 H 0.78395 0.6833 0.8648 0.0
C430 C 0.77471 0.78732 0.84468 0.0
C431 C 0.78169 0.78127 0.82619 0.0
C432 C 0.77538 0.77516 0.86047 0.0
C433 C 0.7833 0.75683 0.85817 0.0
C434 C 0.78957 0.7504 0.83957 0.0
C435 C 0.78878 0.76251 0.82371 0.0
C436 C 0.7853 0.74457 0.87527 0.0
C437 C 0.77661 0.72519 0.87431 0.0
C438 C 0.79495 0.75218 0.89274 0.0
C439 C 0.8057 0.77201 0.89416 0.0
C440 C 0.8204 0.77724 0.88055 0.0
C441 C 0.83033 0.796 0.88182 0.0
C442 C 0.82579 0.80963 0.89673 0.0
C443 C 0.81135 0.8045 0.91043 0.0
C444 C 0.80135 0.78576 0.90921 0.0
C445 C 0.79304 0.67983 0.94167 0.0
C446 C 0.78263 0.68577 0.95838 0.0
C447 C 0.79471 0.69168 0.92555 0.0
C448 C 0.7861 0.70969 0.92594 0.0
C449 C 0.77666 0.71616 0.94299 0.0
C450 C 0.77484 0.70426 0.95904 0.0
C451 C 0.78587 0.72128 0.90823 0.0
C452 C 0.79488 0.7405 0.90909 0.0
C453 C 0.77668 0.71348 0.89062 0.0
C454 C 0.76639 0.69346 0.88905 0.0
C455 C 0.75082 0.68822 0.9017 0.0
C456 C 0.74133 0.66927 0.90025 0.0
C457 C 0.74716 0.65547 0.88609 0.0
C458 C 0.76246 0.66062 0.87332 0.0
C459 C 0.77203 0.67955 0.87473 0.0
H460 H 0.73979 0.64079 0.88499 0.0
H461 H 0.8335 0.82415 0.89769 0.0
H462 H 0.02555 0.00776 0.43271 0.0
H463 H 0.99803 0.01459 0.41165 0.0
H464 H -0.00014 0.95741 0.38212 0.0
H465 H 0.02729 0.95038 0.40341 0.0
H466 H 0.0001 0.99099 0.35717 0.0
H467 H 0.96412 0.9621 0.41055 0.0
H468 H 0.95545 0.95858 0.4453 0.0
H469 H 0.93877 0.01801 0.44925 0.0
H470 H 0.94763 0.02199 0.41459 0.0
H471 H 0.91657 0.99469 0.29828 0.0
H472 H 0.94005 0.98415 0.32176 0.0
H473 H 0.92925 0.03367 0.36094 0.0
H474 H 0.90493 0.04378 0.33775 0.0
H475 H 0.93347 0.00309 0.38141 0.0
H476 H 0.97026 0.03367 0.33012 0.0
H477 H 0.98012 0.03949 0.29605 0.0
H478 H 0.99697 0.98028 0.28885 0.0
H479 H 0.98696 0.97401 0.32281 0.0
C480 C 0.02001 0.99665 0.42176 0.0
C481 C 0.02851 0.97859 0.41956 0.0
C482 C 0.00428 0.00051 0.40985 0.0
C483 C 0.99694 0.98646 0.39544 0.0
C484 C 0.00535 0.96838 0.39323 0.0
C485 C 0.02091 0.96437 0.40538 0.0
C486 C 0.98101 0.99107 0.38216 0.0
C487 C 0.98541 0.99331 0.36234 0.0
C488 C 0.96216 0.9948 0.3892 0.0
C489 C 0.95672 0.9924 0.41002 0.0
C490 C 0.95878 0.97448 0.41887 0.0
C491 C 0.95379 0.97239 0.43855 0.0
C492 C 0.94661 0.98808 0.44949 0.0
C493 C 0.94436 0.00588 0.44076 0.0
C494 C 0.94934 0.00805 0.4211 0.0
C495 C 0.91912 0.00328 0.31195 0.0
C496 C 0.9091 0.02018 0.31612 0.0
C497 C 0.93261 0.99729 0.32532 0.0
C498 C 0.93681 0.0084 0.3429 0.0
C499 C 0.92633 0.02493 0.34741 0.0
C500 C 0.91248 0.03072 0.33417 0.0
C501 C 0.95247 0.00297 0.35626 0.0
C502 C 0.9481 0.00068 0.37614 0.0
C503 C 0.97152 -0.00044 0.34935 0.0
C504 C 0.97768 0.00331 0.32895 0.0
C505 C 0.97595 0.02185 0.32123 0.0
C506 C 0.98158 0.02523 0.30194 0.0
C507 C 0.98912 0.01025 0.29028 0.0
C508 C 0.9911 0.99186 0.2979 0.0
C509 C 0.98546 0.98839 0.31717 0.0
H510 H 0.99347 0.0129 0.27534 0.0
H511 H 0.94276 0.98643 0.46472 0.0
H512 H 0.23614 0.26286 0.71755 0.0
H513 H 0.24334 0.23941 0.69045 0.0
H514 H 0.22854 0.28139 0.64868 0.0
H515 H 0.22178 0.30492 0.67556 0.0
H516 H 0.2091 0.24026 0.64429 0.0
H517 H 0.2726 0.27808 0.653 0.0
H518 H 0.3017 0.29091 0.67254 0.0
H519 H 0.31439 0.23189 0.68407 0.0
H520 H 0.28516 0.21873 0.66482 0.0
H521 H 0.23703 0.21324 0.55031 0.0
H522 H 0.23285 0.2301 0.58202 0.0
H523 H 0.26658 0.18814 0.6097 0.0
H524 H 0.27143 0.17144 0.57757 0.0
H525 H 0.27618 0.22402 0.62509 0.0
H526 H 0.21606 0.18541 0.61349 0.0
H527 H 0.18673 0.17132 0.59503 0.0
H528 H 0.16674 0.22907 0.59086 0.0
H529 H 0.19609 0.24356 0.60905 0.0
C530 C 0.23456 0.26704 0.70256 0.0
C531 C 0.22851 0.28565 0.69855 0.0
C532 C 0.23869 0.25371 0.68717 0.0
C533 C 0.23645 0.25876 0.66766 0.0
C534 C 0.23035 0.2773 0.66368 0.0
C535 C 0.2266 0.29072 0.67899 0.0
C536 C 0.23994 0.24467 0.65121 0.0
C537 C 0.22374 0.23672 0.64 0.0
C538 C 0.25898 0.23952 0.64622 0.0
C539 C 0.27656 0.24744 0.65771 0.0
C540 C 0.28147 0.26785 0.65988 0.0
C541 C 0.29801 0.27518 0.67086 0.0
C542 C 0.30984 0.26223 0.6796 0.0
C543 C 0.30519 0.24191 0.67733 0.0
C544 C 0.28864 0.23451 0.66638 0.0
C545 C 0.24358 0.20755 0.56311 0.0
C546 C 0.2544 0.1909 0.56149 0.0
C547 C 0.24109 0.21716 0.58128 0.0
C548 C 0.24896 0.21009 0.59833 0.0
C549 C 0.26023 0.19374 0.59674 0.0
C550 C 0.26298 0.18422 0.57842 0.0
C551 C 0.24534 0.22005 0.61763 0.0
C552 C 0.26147 0.2272 0.62948 0.0
C553 C 0.22614 0.22422 0.62343 0.0
C554 C 0.20836 0.21558 0.61256 0.0
C555 C 0.20548 0.19513 0.60853 0.0
C556 C 0.18883 0.18706 0.59813 0.0
C557 C 0.17489 0.19929 0.59175 0.0
C558 C 0.17755 0.21961 0.59581 0.0
C559 C 0.19417 0.22776 0.6062 0.0
H560 H 0.16202 0.19302 0.58369 0.0
H561 H 0.32265 0.26793 0.68809 0.0
H562 H 0.55218 0.61062 0.64287 0.0
H563 H 0.52467 0.60561 0.66546 0.0
H564 H 0.48389 0.61292 0.61851 0.0
H565 H 0.51111 0.61708 0.59571 0.0
H566 H 0.49285 0.62454 0.67874 0.0
H567 H 0.4473 0.57649 0.62035 0.0
H568 H 0.45255 0.55677 0.58981 0.0
H569 H 0.51061 0.54677 0.60931 0.0
H570 H 0.50558 0.56615 0.64007 0.0
H571 H 0.40159 0.59122 0.72331 0.0
H572 H 0.42554 0.60619 0.70057 0.0
H573 H 0.45121 0.55061 0.69225 0.0
H574 H 0.42718 0.53556 0.71423 0.0
H575 H 0.44836 0.56574 0.65883 0.0
H576 H 0.47185 0.5897 0.72313 0.0
H577 H 0.46958 0.60698 0.75553 0.0
H578 H 0.46028 0.66068 0.72782 0.0
H579 H 0.46227 0.64364 0.69524 0.0
C580 C 0.53736 0.61135 0.63741 0.0
C581 C 0.53386 0.61397 0.61742 0.0
C582 C 0.52168 0.60871 0.65038 0.0
C583 C 0.50225 0.60864 0.64358 0.0
C584 C 0.49878 0.61275 0.624 0.0
C585 C 0.51441 0.61526 0.61101 0.0
C586 C 0.48572 0.60184 0.65623 0.0
C587 C 0.48299 0.61179 0.67436 0.0
C588 C 0.47312 0.58499 0.65065 0.0
C589 C 0.47614 0.57297 0.63237 0.0
C590 C 0.46115 0.57002 0.61813 0.0
C591 C 0.46409 0.5589 0.60079 0.0
C592 C 0.48193 0.55058 0.59759 0.0
C593 C 0.49683 0.55327 0.61177 0.0
C594 C 0.49394 0.56433 0.62915 0.0
C595 C 0.41227 0.58221 0.71649 0.0
C596 C 0.41247 0.56221 0.72054 0.0
C597 C 0.42602 0.5908 0.7036 0.0
C598 C 0.4403 0.57957 0.69482 0.0
C599 C 0.4403 0.55957 0.69875 0.0
C600 C 0.42653 0.55098 0.71138 0.0
C601 C 0.45544 0.58832 0.68154 0.0
C602 C 0.45794 0.57872 0.66317 0.0
C603 C 0.46815 0.6051 0.68721 0.0
C604 C 0.46698 0.61535 0.70677 0.0
C605 C 0.46917 0.60516 0.72395 0.0
C606 C 0.46797 0.61492 0.74234 0.0
C607 C 0.46473 0.6349 0.74373 0.0
C608 C 0.46275 0.64519 0.72672 0.0
C609 C 0.46393 0.6355 0.70829 0.0
H610 H 0.4638 0.64243 0.75798 0.0
H611 H 0.48418 0.54202 0.58414 0.0
H612 H 0.79987 0.27746 0.69165 0.0
H613 H 0.79218 0.30441 0.67146 0.0
H614 H 0.73185 0.29816 0.69038 0.0
H615 H 0.73947 0.27098 0.71054 0.0
H616 H 0.73336 0.30024 0.65213 0.0
H617 H 0.7627 0.33856 0.70581 0.0
H618 H 0.78747 0.34867 0.73146 0.0
H619 H 0.83081 0.36095 0.68736 0.0
H620 H 0.80638 0.35063 0.66142 0.0
H621 H 0.71817 0.38158 0.59278 0.0
H622 H 0.71992 0.36381 0.6231 0.0
H623 H 0.78039 0.35387 0.61098 0.0
H624 H 0.77876 0.37141 0.58084 0.0
H625 H 0.77394 0.36384 0.65043 0.0
H626 H 0.74555 0.31926 0.5979 0.0
H627 H 0.7208 0.30868 0.57233 0.0
H628 H 0.67516 0.30859 0.61546 0.0
H629 H 0.69965 0.31943 0.64124 0.0
C630 C 0.78505 0.28204 0.69177 0.0
C631 C 0.77028 0.27213 0.70267 0.0
C632 C 0.78066 0.29749 0.68027 0.0
C633 C 0.76149 0.30351 0.67963 0.0
C634 C 0.74675 0.2938 0.6907 0.0
C635 C 0.7511 0.27825 0.70214 0.0
C636 C 0.75669 0.319 0.6663 0.0
C637 C 0.74191 0.31436 0.6521 0.0
C638 C 0.76795 0.33735 0.66612 0.0
C639 C 0.7827 0.34371 0.68166 0.0
C640 C 0.77754 0.34329 0.70157 0.0
C641 C 0.79152 0.34908 0.71617 0.0
C642 C 0.8107 0.35543 0.71104 0.0
C643 C 0.81594 0.35604 0.6913 0.0
C644 C 0.80202 0.35025 0.67665 0.0
C645 C 0.73189 0.37581 0.59675 0.0
C646 C 0.74828 0.37771 0.58437 0.0
C647 C 0.73285 0.36567 0.61402 0.0
C648 C 0.75026 0.35746 0.61918 0.0
C649 C 0.76685 0.36014 0.60728 0.0
C650 C 0.76584 0.37006 0.58999 0.0
C651 C 0.75105 0.34478 0.63608 0.0
C652 C 0.76508 0.34994 0.65088 0.0
C653 C 0.73906 0.32694 0.6369 0.0
C654 C 0.72437 0.32041 0.62142 0.0
C655 C 0.73021 0.31715 0.60189 0.0
C656 C 0.71624 0.31108 0.58737 0.0
C657 C 0.69641 0.30803 0.59226 0.0
C658 C 0.69052 0.311 0.61169 0.0
C659 C 0.70443 0.31711 0.62625 0.0
H660 H 0.68561 0.30332 0.581 0.0
H661 H 0.82151 0.3599 0.72236 0.0
H662 H 0.46697 0.93241 0.59636 0.0
H663 H 0.49227 0.93792 0.6217 0.0
H664 H 0.45158 0.96591 0.65987 0.0
H665 H 0.4257 0.95958 0.63497 0.0
H666 H 0.48788 0.98912 0.64978 0.0
H667 H 0.46517 0.92572 0.67362 0.0
H668 H 0.45655 0.88992 0.67007 0.0
H669 H 0.51544 0.88081 0.652 0.0
H670 H 0.52435 0.91661 0.65517 0.0
H671 H 0.54525 0.01507 0.73201 0.0
H672 H 0.51928 0.00056 0.71013 0.0
H673 H 0.55941 0.96137 0.68376 0.0
H674 H 0.58545 0.97536 0.70653 0.0
H675 H 0.52439 0.94252 0.68654 0.0
H676 H 0.54811 0.00349 0.66124 0.0
H677 H 0.55841 0.03899 0.66165 0.0
H678 H 0.50015 0.05252 0.67797 0.0
H679 H 0.48955 0.01708 0.67793 0.0
C680 C 0.46307 0.93908 0.61038 0.0
C681 C 0.44424 0.94566 0.61355 0.0
C682 C 0.47765 0.9423 0.6248 0.0
C683 C 0.47373 0.95233 0.64256 0.0
C684 C 0.4548 0.95815 0.64618 0.0
C685 C 0.44011 0.95466 0.63188 0.0
C686 C 0.48996 0.95881 0.65628 0.0
C687 C 0.49567 0.979 0.65811 0.0
C688 C 0.50068 0.94541 0.66622 0.0
C689 C 0.49537 0.92387 0.66445 0.0
C690 C 0.47624 0.91611 0.66872 0.0
C691 C 0.47131 0.89581 0.66681 0.0
C692 C 0.48542 0.8831 0.66076 0.0
C693 C 0.50451 0.89067 0.65666 0.0
C694 C 0.50952 0.91097 0.65854 0.0
C695 C 0.54858 0.00334 0.72157 0.0
C696 C 0.56743 0.99653 0.72072 0.0
C697 C 0.53372 0.99508 0.70904 0.0
C698 C 0.53753 0.98025 0.69493 0.0
C699 C 0.5562 0.97291 0.69444 0.0
C700 C 0.57105 0.98094 0.70736 0.0
C701 C 0.52204 0.97299 0.68049 0.0
C702 C 0.51658 0.95269 0.67831 0.0
C703 C 0.5118 0.98624 0.66974 0.0
C704 C 0.51808 0.00761 0.66974 0.0
C705 C 0.53752 0.01403 0.66505 0.0
C706 C 0.54341 0.03415 0.6652 0.0
C707 C 0.52995 0.048 0.66987 0.0
C708 C 0.51056 0.04177 0.67437 0.0
C709 C 0.5046 0.02167 0.67427 0.0
H710 H 0.53454 0.06357 0.66997 0.0
H711 H 0.48157 0.86739 0.65929 0.0
H712 H 0.8331 0.25604 0.72658 0.0
H713 H 0.86332 0.25691 0.74592 0.0
H714 H 0.83229 0.22437 0.79049 0.0
H715 H 0.80179 0.22447 0.77182 0.0
H716 H 0.855 0.25259 0.80705 0.0
H717 H 0.86365 0.20259 0.75691 0.0
H718 H 0.86501 0.18826 0.72314 0.0
H719 H 0.91212 0.23106 0.70999 0.0
H720 H 0.91087 0.24583 0.74364 0.0
H721 H 0.93712 0.22521 0.85845 0.0
H722 H 0.9092 0.22122 0.83576 0.0
H723 H 0.93736 0.26506 0.79953 0.0
H724 H 0.96538 0.26934 0.82225 0.0
H725 H 0.91686 0.23079 0.77846 0.0
H726 H 0.90686 0.28077 0.82941 0.0
H727 H 0.90557 0.29345 0.86379 0.0
H728 H 0.86048 0.24811 0.87576 0.0
H729 H 0.86173 0.23498 0.8415 0.0
C730 C 0.83264 0.24929 0.74062 0.0
C731 C 0.81501 0.24013 0.74761 0.0
C732 C 0.85001 0.24955 0.75153 0.0
C733 C 0.85017 0.24039 0.7695 0.0
C734 C 0.83256 0.23142 0.7766 0.0
C735 C 0.81516 0.23134 0.76581 0.0
C736 C 0.86856 0.24052 0.78115 0.0
C737 C 0.86842 0.24755 0.80082 0.0
C738 C 0.88622 0.23429 0.77298 0.0
C739 C 0.88703 0.22544 0.75274 0.0
C740 C 0.8742 0.20905 0.74678 0.0
C741 C 0.87496 0.20083 0.72766 0.0
C742 C 0.8886 0.20878 0.71441 0.0
C743 C 0.90154 0.22494 0.72026 0.0
C744 C 0.90082 0.23323 0.73936 0.0
C745 C 0.93759 0.23376 0.84548 0.0
C746 C 0.95338 0.24776 0.84226 0.0
C747 C 0.9216 0.23147 0.83256 0.0
C748 C 0.9212 0.24301 0.81615 0.0
C749 C 0.93745 0.25606 0.81217 0.0
C750 C 0.95339 0.25852 0.8252 0.0
C751 C 0.9031 0.2427 0.8042 0.0
C752 C 0.90336 0.23574 0.78456 0.0
C753 C 0.88546 0.24876 0.81242 0.0
C754 C 0.88453 0.25678 0.83296 0.0
C755 C 0.89678 0.27341 0.83942 0.0
C756 C 0.89605 0.28069 0.85888 0.0
C757 C 0.88299 0.27156 0.87197 0.0
C758 C 0.87061 0.25515 0.86561 0.0
C759 C 0.87131 0.24779 0.84617 0.0
H760 H 0.88244 0.27722 0.88703 0.0
H761 H 0.88918 0.20239 0.69962 0.0
H762 H 0.41439 0.88991 0.56815 0.0
H763 H 0.42365 0.86543 0.54315 0.0
H764 H 0.4359 0.91145 0.5027 0.0
H765 H 0.42637 0.93587 0.52747 0.0
H766 H 0.42044 0.87858 0.48374 0.0
H767 H 0.47197 0.89604 0.53124 0.0
H768 H 0.48596 0.90031 0.56466 0.0
H769 H 0.47428 0.83841 0.57259 0.0
H770 H 0.45987 0.83383 0.53932 0.0
H771 H 0.49218 0.83869 0.42259 0.0
H772 H 0.47668 0.85919 0.44747 0.0
H773 H 0.46051 0.80787 0.48011 0.0
H774 H 0.47586 0.78717 0.45524 0.0
H775 H 0.47619 0.8412 0.5034 0.0
H776 H 0.4266 0.82404 0.45408 0.0
H777 H 0.41326 0.82078 0.42038 0.0
H778 H 0.42269 0.88334 0.41539 0.0
H779 H 0.43637 0.88694 0.44899 0.0
C780 C 0.41869 0.89469 0.55377 0.0
C781 C 0.4198 0.91476 0.54975 0.0
C782 C 0.42402 0.88074 0.53955 0.0
C783 C 0.43086 0.8867 0.52123 0.0
C784 C 0.43071 0.90655 0.51675 0.0
C785 C 0.42521 0.92048 0.5309 0.0
C786 C 0.43979 0.87269 0.50735 0.0
C787 C 0.4327 0.8705 0.488 0.0
C788 C 0.45565 0.86197 0.51301 0.0
C789 C 0.46465 0.86463 0.53287 0.0
C790 C 0.47227 0.88336 0.54016 0.0
C791 C 0.48028 0.88584 0.55907 0.0
C792 C 0.48097 0.86965 0.57076 0.0
C793 C 0.4737 0.85094 0.56353 0.0
C794 C 0.46561 0.84839 0.54465 0.0
C795 C 0.48551 0.83177 0.43515 0.0
C796 C 0.48516 0.81129 0.4369 0.0
C797 C 0.47658 0.84349 0.44928 0.0
C798 C 0.46728 0.83496 0.46544 0.0
C799 C 0.46756 0.81467 0.46766 0.0
C800 C 0.4763 0.80289 0.45343 0.0
C801 C 0.45692 0.84723 0.47981 0.0
C802 C 0.4638 0.84913 0.49922 0.0
C803 C 0.44102 0.85783 0.47415 0.0
C804 C 0.43268 0.85573 0.45399 0.0
C805 C 0.42598 0.83708 0.44575 0.0
C806 C 0.41833 0.83518 0.42667 0.0
C807 C 0.41717 0.85184 0.41573 0.0
C808 C 0.42362 0.87045 0.42387 0.0
C809 C 0.4313 0.87243 0.44294 0.0
H810 H 0.41125 0.85034 0.40096 0.0
H811 H 0.48716 0.8716 0.5854 0.0
H812 H 0.20015 0.31982 0.78141 0.0
H813 H 0.17265 0.31262 0.80337 0.0
H814 H 0.14312 0.27514 0.75783 0.0
H815 H 0.16998 0.28318 0.73545 0.0
H816 H 0.11864 0.2979 0.77319 0.0
H817 H 0.16423 0.25641 0.79907 0.0
H818 H 0.1959 0.24782 0.81231 0.0
H819 H 0.19062 0.28883 0.86139 0.0
H820 H 0.15904 0.29787 0.8483 0.0
H821 H 0.06015 0.25328 0.85978 0.0
H822 H 0.09048 0.25534 0.8406 0.0
H823 H 0.08182 0.31562 0.8288 0.0
H824 H 0.05138 0.31352 0.84744 0.0
H825 H 0.12499 0.27746 0.84153 0.0
H826 H 0.09294 0.32412 0.7822 0.0
H827 H 0.06071 0.32949 0.76786 0.0
H828 H 0.03816 0.27174 0.78331 0.0
H829 H 0.07033 0.26592 0.79749 0.0
C830 C 0.18778 0.31009 0.77604 0.0
C831 C 0.18729 0.30213 0.75661 0.0
C832 C 0.17217 0.30577 0.78871 0.0
C833 C 0.15588 0.29316 0.78234 0.0
C834 C 0.15555 0.28486 0.76311 0.0
C835 C 0.17104 0.28933 0.75037 0.0
C836 C 0.13863 0.28962 0.79526 0.0
C837 C 0.12008 0.29335 0.7881 0.0
C838 C 0.14038 0.28338 0.81464 0.0
C839 C 0.15933 0.27793 0.82261 0.0
C840 C 0.16989 0.2637 0.81261 0.0
C841 C 0.18781 0.25873 0.82011 0.0
C842 C 0.19529 0.2678 0.83766 0.0
C843 C 0.18482 0.28182 0.84778 0.0
C844 C 0.16689 0.28686 0.84035 0.0
C845 C 0.06485 0.26703 0.85327 0.0
C846 C 0.05326 0.28315 0.85488 0.0
C847 C 0.08219 0.26819 0.84236 0.0
C848 C 0.08819 0.28551 0.83296 0.0
C849 C 0.07723 0.30198 0.83557 0.0
C850 C 0.05986 0.30076 0.84628 0.0
C851 C 0.10521 0.28614 0.81951 0.0
C852 C 0.12365 0.2819 0.82658 0.0
C853 C 0.10333 0.29143 0.79985 0.0
C854 C 0.084 0.29467 0.79106 0.0
C855 C 0.08113 0.31253 0.78245 0.0
C856 C 0.06287 0.31566 0.77437 0.0
C857 C 0.04738 0.30099 0.77473 0.0
C858 C 0.05015 0.28312 0.7831 0.0
C859 C 0.06839 0.27991 0.79118 0.0
H860 H 0.03325 0.30345 0.76848 0.0
H861 H 0.20917 0.26393 0.84343 0.0
H862 H 0.59377 0.64181 0.55133 0.0
H863 H 0.59119 0.65893 0.52068 0.0
H864 H 0.52844 0.64486 0.52003 0.0
H865 H 0.53093 0.62776 0.55044 0.0
H866 H 0.54625 0.63734 0.48374 0.0
H867 H 0.54646 0.68937 0.53545 0.0
H868 H 0.56103 0.70915 0.56384 0.0
H869 H 0.61173 0.72621 0.52968 0.0
H870 H 0.59754 0.70629 0.50116 0.0
H871 H 0.49567 0.7026 0.43186 0.0
H872 H 0.51087 0.6815 0.45413 0.0
H873 H 0.56764 0.71164 0.44381 0.0
H874 H 0.55234 0.73322 0.42155 0.0
H875 H 0.56108 0.70964 0.48197 0.0
H876 H 0.55808 0.66317 0.42837 0.0
H877 H 0.54393 0.64358 0.3997 0.0
H878 H 0.50001 0.61565 0.43622 0.0
H879 H 0.5137 0.63527 0.46508 0.0
C880 C 0.57946 0.6424 0.54459 0.0
C881 C 0.56252 0.63364 0.55333 0.0
C882 C 0.57801 0.65217 0.52715 0.0
C883 C 0.55962 0.65314 0.51814 0.0
C884 C 0.54277 0.64423 0.52675 0.0
C885 C 0.54418 0.63466 0.54422 0.0
C886 C 0.5576 0.66371 0.49991 0.0
C887 C 0.54946 0.65315 0.48329 0.0
C888 C 0.5626 0.68417 0.49914 0.0
C889 C 0.57107 0.69615 0.51627 0.0
C890 C 0.5608 0.69719 0.53406 0.0
C891 C 0.56897 0.70846 0.55016 0.0
C892 C 0.58733 0.71888 0.54859 0.0
C893 C 0.59753 0.7181 0.53089 0.0
C894 C 0.58943 0.70683 0.51476 0.0
C895 C 0.51145 0.70456 0.43401 0.0
C896 C 0.52279 0.71965 0.425 0.0
C897 C 0.52016 0.69237 0.44668 0.0
C898 C 0.54044 0.69484 0.45052 0.0
C899 C 0.55197 0.70943 0.44099 0.0
C900 C 0.54323 0.72168 0.42823 0.0
C901 C 0.54894 0.6834 0.46594 0.0
C902 C 0.55833 0.69375 0.4821 0.0
C903 C 0.54523 0.66269 0.46621 0.0
C904 C 0.5369 0.65078 0.4489 0.0
C905 C 0.54532 0.65295 0.43028 0.0
C906 C 0.53739 0.64182 0.41399 0.0
C907 C 0.52107 0.62839 0.41613 0.0
C908 C 0.51266 0.62604 0.43458 0.0
C909 C 0.52053 0.63715 0.45092 0.0
H910 H 0.51495 0.61979 0.4035 0.0
H911 H 0.59363 0.7276 0.56107 0.0
H912 H 0.8056 0.82075 0.74597 0.0
H913 H 0.83536 0.82384 0.72643 0.0
H914 H 0.86955 0.80871 0.77596 0.0
H915 H 0.8401 0.80716 0.79608 0.0
H916 H 0.8895 0.8358 0.75776 0.0
H917 H 0.85443 0.77451 0.73761 0.0
H918 H 0.82608 0.75239 0.72571 0.0
H919 H 0.82474 0.78333 0.6725 0.0
H920 H 0.85293 0.80581 0.6842 0.0
H921 H 0.96827 0.79634 0.70201 0.0
H922 H 0.94059 0.80211 0.72367 0.0
H923 H 0.91247 0.83094 0.67766 0.0
H924 H 0.94013 0.82552 0.656 0.0
H925 H 0.88983 0.79828 0.69368 0.0
H926 H 0.9278 0.85819 0.71469 0.0
H927 H 0.95737 0.87791 0.72741 0.0
H928 H 0.95475 0.8461 0.7802 0.0
H929 H 0.92531 0.82598 0.76766 0.0
C930 C 0.81948 0.81843 0.75286 0.0
C931 C 0.82036 0.81351 0.7726 0.0
C932 C 0.83647 0.81995 0.74157 0.0
C933 C 0.85464 0.81608 0.74959 0.0
C934 C 0.85568 0.81163 0.76939 0.0
C935 C 0.83874 0.81046 0.78081 0.0
C936 C 0.87248 0.81622 0.73724 0.0
C937 C 0.88961 0.82743 0.74385 0.0
C938 C 0.8726 0.80548 0.71896 0.0
C939 C 0.85566 0.79197 0.71187 0.0
C940 C 0.84799 0.77669 0.72343 0.0
C941 C 0.83197 0.76407 0.71672 0.0
C942 C 0.82358 0.76649 0.69839 0.0
C943 C 0.83123 0.7815 0.68671 0.0
C944 C 0.84724 0.79417 0.69337 0.0
C945 C 0.95637 0.80423 0.69663 0.0
C946 C 0.95632 0.81035 0.67725 0.0
C947 C 0.94062 0.80756 0.70903 0.0
C948 C 0.92455 0.81691 0.70218 0.0
C949 C 0.9248 0.82371 0.68315 0.0
C950 C 0.94063 0.82064 0.67083 0.0
C951 C 0.9067 0.81787 0.71419 0.0
C952 C 0.8896 0.80675 0.70754 0.0
C953 C 0.90677 0.82833 0.73256 0.0
C954 C 0.92445 0.84045 0.74015 0.0
C955 C 0.93363 0.85527 0.72893 0.0
C956 C 0.95035 0.86655 0.73613 0.0
C957 C 0.95797 0.86323 0.75458 0.0
C958 C 0.94885 0.84865 0.7659 0.0
C959 C 0.93213 0.83732 0.75876 0.0
H960 H 0.97091 0.87198 0.76013 0.0
H961 H 0.81117 0.7567 0.69321 0.0
H962 H 0.06498 0.9584 0.49505 0.0
H963 H 0.06073 0.93233 0.51816 0.0
H964 H 0.04931 0.88937 0.47006 0.0
H965 H 0.05274 0.91581 0.44685 0.0
H966 H 0.02415 0.88218 0.49586 0.0
H967 H 0.09291 0.89193 0.49912 0.0
H968 H 0.1257 0.90989 0.50152 0.0
H969 H 0.11259 0.93243 0.5594 0.0
H970 H 0.0796 0.91485 0.55726 0.0
H971 H 0.04263 0.82379 0.5895 0.0
H972 H 0.0568 0.84217 0.56219 0.0
H973 H 0.00436 0.87327 0.55903 0.0
H974 H 0.98996 0.85453 0.58562 0.0
H975 H 0.06652 0.87882 0.55461 0.0
H976 H 0.99111 0.8797 0.51373 0.0
H977 H 0.96044 0.85823 0.50922 0.0
H978 H 0.99115 0.80784 0.52218 0.0
H979 H 0.02206 0.82894 0.52648 0.0
C980 C 0.06183 0.94334 0.48942 0.0
C981 C 0.05928 0.93903 0.46922 0.0
C982 C 0.05955 0.92841 0.50262 0.0
C983 C 0.05513 0.90877 0.49588 0.0
C984 C 0.05282 0.90439 0.47562 0.0
C985 C 0.05475 0.91944 0.46238 0.0
C986 C 0.05126 0.89325 0.51022 0.0
C987 C 0.03355 0.88132 0.50857 0.0
C988 C 0.06382 0.89154 0.52652 0.0
C989 C 0.08371 0.90211 0.52798 0.0
C990 C 0.09696 0.90081 0.51232 0.0
C991 C 0.1156 0.91091 0.51364 0.0
C992 C 0.12122 0.92231 0.53059 0.0
C993 C 0.10822 0.92359 0.54628 0.0
C994 C 0.08956 0.91352 0.54503 0.0
C995 C 0.03428 0.83473 0.58308 0.0
C996 C 0.01513 0.83761 0.58947 0.0
C997 C 0.04235 0.84517 0.56748 0.0
C998 C 0.03141 0.85869 0.55822 0.0
C999 C 0.01282 0.86246 0.56552 0.0
C1000 C 0.00466 0.85185 0.58082 0.0
C1001 C 0.03898 0.8687 0.54066 0.0
C1002 C 0.05736 0.87948 0.54169 0.0
C1003 C 0.02742 0.8688 0.52341 0.0
C1004 C 0.00889 0.85595 0.52054 0.0
C1005 C 0.99135 0.86402 0.51549 0.0
C1006 C 0.97391 0.85192 0.513 0.0
C1007 C 0.97384 0.83169 0.51545 0.0
C1008 C 0.99121 0.82352 0.52034 0.0
C1009 C 0.00869 0.83555 0.52282 0.0
H1010 H 0.96032 0.82235 0.51353 0.0
H1011 H 0.13565 0.93012 0.53158 0.0
H1012 H 0.16328 0.75428 0.78842 0.0
H1013 H 0.1376 0.7565 0.76369 0.0
H1014 H 0.18179 0.7714 0.72072 0.0
H1015 H 0.20768 0.76884 0.74545 0.0
H1016 H 0.14792 0.79697 0.72485 0.0
H1017 H 0.16264 0.72965 0.71388 0.0
H1018 H 0.16869 0.69645 0.724 0.0
H1019 H 0.11069 0.68961 0.74812 0.0
H1020 H 0.10439 0.72291 0.73842 0.0
H1021 H 0.07041 0.79239 0.65306 0.0
H1022 H 0.10201 0.78907 0.66926 0.0
H1023 H 0.07209 0.75572 0.71399 0.0
H1024 H 0.04082 0.75832 0.69753 0.0
H1025 H 0.10299 0.73884 0.704 0.0
H1026 H 0.08933 0.80606 0.72056 0.0
H1027 H 0.08233 0.83998 0.71366 0.0
H1028 H 0.13665 0.84782 0.68242 0.0
H1029 H 0.14386 0.81384 0.68894 0.0
C1030 C 0.16749 0.758 0.77369 0.0
C1031 C 0.18737 0.76142 0.76876 0.0
C1032 C 0.15286 0.75921 0.75961 0.0
C1033 C 0.15788 0.76407 0.74044 0.0
C1034 C 0.17772 0.76762 0.73546 0.0
C1035 C 0.19242 0.76607 0.74951 0.0
C1036 C 0.14214 0.76556 0.72584 0.0
C1037 C 0.1383 0.78425 0.71987 0.0
C1038 C 0.12944 0.74897 0.71985 0.0
C1039 C 0.1331 0.72884 0.72553 0.0
C1040 C 0.15123 0.72113 0.72147 0.0
C1041 C 0.1547 0.70228 0.72711 0.0
C1042 C 0.1401 0.69094 0.73672 0.0
C1043 C 0.12199 0.69841 0.74068 0.0
C1044 C 0.11845 0.71727 0.73509 0.0
C1045 C 0.07064 0.78437 0.66635 0.0
C1046 C 0.05317 0.77561 0.67403 0.0
C1047 C 0.08868 0.78253 0.67563 0.0
C1048 C 0.08944 0.77226 0.69295 0.0
C1049 C 0.07194 0.7636 0.70059 0.0
C1050 C 0.05404 0.76516 0.69119 0.0
C1051 C 0.10828 0.77041 0.70336 0.0
C1052 C 0.11275 0.75159 0.70858 0.0
C1053 C 0.12134 0.78696 0.70897 0.0
C1054 C 0.11701 0.80735 0.70501 0.0
C1055 C 0.0997 0.81497 0.71208 0.0
C1056 C 0.09571 0.83421 0.70827 0.0
C1057 C 0.109 0.84602 0.69755 0.0
C1058 C 0.12635 0.83864 0.69068 0.0
C1059 C 0.1304 0.8194 0.69443 0.0
H1060 H 0.10589 0.86091 0.69462 0.0
H1061 H 0.14281 0.67634 0.74108 0.0
H1062 H 0.9227 0.62649 0.48094 0.0
H1063 H 0.92829 0.65472 0.50455 0.0
H1064 H 0.98287 0.63307 0.52256 0.0
H1065 H 0.97742 0.60493 0.49895 0.0
H1066 H 0.95693 0.64307 0.55384 0.0
H1067 H 0.98584 0.67001 0.49536 0.0
H1068 H 0.98572 0.67858 0.4607 0.0
H1069 H 0.9382 0.71506 0.47197 0.0
H1070 H 0.93784 0.70647 0.50666 0.0
H1071 H 0.00072 0.72384 0.61114 0.0
H1072 H 0.99275 0.69626 0.58759 0.0
H1073 H 0.94674 0.72749 0.5629 0.0
H1074 H 0.9552 0.75547 0.58591 0.0
H1075 H 0.96647 0.71245 0.53481 0.0
H1076 H 0.93713 0.68713 0.59263 0.0
H1077 H 0.93531 0.67841 0.62724 0.0
H1078 H 0.98049 0.63878 0.61759 0.0
H1079 H 0.98277 0.64746 0.58297 0.0
C1080 C 0.93592 0.62786 0.48989 0.0
C1081 C 0.94969 0.61365 0.48813 0.0
C1082 C 0.93911 0.64395 0.50328 0.0
C1083 C 0.95599 0.64589 0.5152 0.0
C1084 C 0.96977 0.63176 0.51343 0.0
C1085 C 0.96672 0.61583 0.49989 0.0
C1086 C 0.95912 0.66245 0.52987 0.0
C1087 C 0.95924 0.65826 0.54975 0.0
C1088 C 0.96142 0.6822 0.5244 0.0
C1089 C 0.96167 0.68742 0.50356 0.0
C1090 C 0.97524 0.67971 0.49041 0.0
C1091 C 0.97528 0.6846 0.47077 0.0
C1092 C 0.96192 0.69731 0.46412 0.0
C1093 C 0.94852 0.70519 0.47713 0.0
C1094 C 0.9484 0.70033 0.49678 0.0
C1095 C 0.98878 0.72475 0.60081 0.0
C1096 C 0.97857 0.74179 0.60037 0.0
C1097 C 0.98418 0.70894 0.5874 0.0
C1098 C 0.96896 0.70968 0.57363 0.0
C1099 C 0.95855 0.72659 0.57338 0.0
C1100 C 0.96336 0.74254 0.58656 0.0
C1101 C 0.96445 0.69316 0.55898 0.0
C1102 C 0.96405 0.69732 0.53904 0.0
C1103 C 0.96158 0.67337 0.56443 0.0
C1104 C 0.96024 0.66809 0.58524 0.0
C1105 C 0.94678 0.67667 0.59792 0.0
C1106 C 0.94565 0.67171 0.61753 0.0
C1107 C 0.95781 0.65809 0.62462 0.0
C1108 C 0.97109 0.64935 0.61208 0.0
C1109 C 0.97229 0.65427 0.59246 0.0
H1110 H 0.95691 0.65427 0.63981 0.0
H1111 H 0.96198 0.70109 0.44891 0.0
H1112 H 0.74315 0.85147 0.25777 0.0
H1113 H 0.76036 0.88426 0.25863 0.0
H1114 H 0.76445 0.88109 0.19559 0.0
H1115 H 0.74641 0.84852 0.19443 0.0
H1116 H 0.80058 0.89456 0.21721 0.0
H1117 H 0.73299 0.90828 0.21221 0.0
H1118 H 0.69798 0.90532 0.22124 0.0
H1119 H 0.71277 0.92882 0.27937 0.0
H1120 H 0.74792 0.93163 0.27078 0.0
H1121 H 0.84128 0.99348 0.22091 0.0
H1122 H 0.81976 0.96427 0.21087 0.0
H1123 H 0.79613 0.96252 0.26938 0.0
H1124 H 0.81689 0.9921 0.27922 0.0
H1125 H 0.76816 0.95227 0.24473 0.0
H1126 H 0.83464 0.93406 0.2526 0.0
H1127 H 0.87021 0.93554 0.24594 0.0
H1128 H 0.85831 0.91917 0.18528 0.0
H1129 H 0.82265 0.91782 0.19156 0.0
C1130 C 0.74746 0.85778 0.24403 0.0
C1131 C 0.7432 0.84739 0.22601 0.0
C1132 C 0.75739 0.87648 0.24458 0.0
C1133 C 0.76345 0.8851 0.22716 0.0
C1134 C 0.75983 0.87463 0.20917 0.0
C1135 C 0.74964 0.85598 0.20857 0.0
C1136 C 0.77357 0.9051 0.22797 0.0
C1137 C 0.79344 0.90731 0.22283 0.0
C1138 C 0.76427 0.92152 0.23571 0.0
C1139 C 0.74311 0.92003 0.24088 0.0
C1140 C 0.7288 0.91267 0.22696 0.0
C1141 C 0.70892 0.91105 0.23199 0.0
C1142 C 0.70316 0.91685 0.25088 0.0
C1143 C 0.71726 0.92433 0.26475 0.0
C1144 C 0.73716 0.92596 0.2598 0.0
C1145 C 0.83128 0.98701 0.23154 0.0
C1146 C 0.8309 0.99498 0.25091 0.0
C1147 C 0.81907 0.97026 0.22582 0.0
C1148 C 0.80664 0.96091 0.23949 0.0
C1149 C 0.80561 0.96941 0.25856 0.0
C1150 C 0.81754 0.98633 0.26419 0.0
C1151 C 0.79542 0.94176 0.23443 0.0
C1152 C 0.7753 0.93966 0.23878 0.0
C1153 C 0.8046 0.92534 0.22627 0.0
C1154 C 0.82601 0.92608 0.2225 0.0
C1155 C 0.83962 0.93091 0.23782 0.0
C1156 C 0.85979 0.9317 0.23412 0.0
C1157 C 0.86651 0.92751 0.21518 0.0
C1158 C 0.85308 0.92245 0.19993 0.0
C1159 C 0.83289 0.92167 0.20355 0.0
H1160 H 0.88213 0.92813 0.21235 0.0
H1161 H 0.68777 0.91557 0.25475 0.0
H1162 H 0.77099 0.24308 0.30901 0.0
H1163 H 0.79411 0.21752 0.30554 0.0
H1164 H 0.74804 0.17702 0.28013 0.0
H1165 H 0.72501 0.20263 0.28324 0.0
H1166 H 0.79505 0.18392 0.32134 0.0
H1167 H 0.76622 0.14448 0.2481 0.0
H1168 H 0.75114 0.15301 0.21708 0.0
H1169 H 0.7773 0.21228 0.22487 0.0
H1170 H 0.79277 0.20404 0.25578 0.0
H1171 H 0.81959 0.0861 0.31326 0.0
H1172 H 0.8036 0.11677 0.31384 0.0
H1173 H 0.83972 0.13665 0.26583 0.0
H1174 H 0.85562 0.10565 0.26489 0.0
H1175 H 0.80272 0.14374 0.2597 0.0
H1176 H 0.84819 0.15651 0.31238 0.0
H1177 H 0.86578 0.15012 0.34271 0.0
H1178 H 0.81155 0.14832 0.37448 0.0
H1179 H 0.79358 0.15442 0.34427 0.0
C1180 C 0.76583 0.22872 0.30265 0.0
C1181 C 0.74622 0.22484 0.29634 0.0
C1182 C 0.77905 0.21415 0.30065 0.0
C1183 C 0.7729 0.19541 0.29235 0.0
C1184 C 0.75327 0.19149 0.28615 0.0
C1185 C 0.7401 0.20611 0.28797 0.0
C1186 C 0.78678 0.17973 0.29085 0.0
C1187 C 0.79679 0.17521 0.30783 0.0
C1188 C 0.78949 0.16866 0.27311 0.0
C1189 C 0.78052 0.17366 0.25434 0.0
C1190 C 0.76884 0.1593 0.24314 0.0
C1191 C 0.76021 0.1641 0.22559 0.0
C1192 C 0.76322 0.18319 0.21904 0.0
C1193 C 0.77493 0.19751 0.22999 0.0
C1194 C 0.78362 0.19279 0.24754 0.0
C1195 C 0.82426 0.09702 0.30288 0.0
C1196 C 0.83892 0.09345 0.28905 0.0
C1197 C 0.81515 0.11461 0.30329 0.0
C1198 C 0.82063 0.12914 0.29005 0.0
C1199 C 0.8353 0.12566 0.27623 0.0
C1200 C 0.84441 0.10798 0.27575 0.0
C1201 C 0.81047 0.14759 0.29033 0.0
C1202 C 0.80114 0.1526 0.27314 0.0
C1203 C 0.80878 0.15943 0.30776 0.0
C1204 C 0.81952 0.1558 0.32601 0.0
C1205 C 0.83999 0.15462 0.3258 0.0
C1206 C 0.85004 0.15107 0.34298 0.0
C1207 C 0.83979 0.14878 0.3605 0.0
C1208 C 0.81947 0.15008 0.36089 0.0
C1209 C 0.80935 0.15361 0.34375 0.0
H1210 H 0.84759 0.14603 0.37379 0.0
H1211 H 0.7565 0.18687 0.20546 0.0
H1212 H 0.43525 0.01382 0.97537 0.0
H1213 H 0.40653 0.99195 0.98319 0.0
H1214 H 0.37044 0.04108 0.98406 0.0
H1215 H 0.39914 0.06306 0.97621 0.0
H1216 H 0.36445 0.02004 0.01584 0.0
H1217 H 0.36704 0.00634 0.94651 0.0
H1218 H 0.3823 0.99721 0.91504 0.0
H1219 H 0.39369 0.94105 0.93649 0.0
H1220 H 0.37873 0.94997 0.9682 0.0
H1221 H 0.27074 0.9674 0.01492 0.0
H1222 H 0.30018 0.98791 0.00666 0.0
H1223 H 0.33502 0.93829 0.01118 0.0
H1224 H 0.30554 0.91753 0.01948 0.0
H1225 H 0.34212 0.95881 0.97711 0.0
H1226 H 0.33859 0.97283 0.04646 0.0
H1227 H 0.32269 0.98232 0.07749 0.0
H1228 H 0.31235 0.03843 0.05529 0.0
H1229 H 0.32794 0.02916 0.02401 0.0
C1230 C 0.42113 0.0199 0.97688 0.0
C1231 C 0.41941 0.04014 0.97516 0.0
C1232 C 0.40475 0.00739 0.98138 0.0
C1233 C 0.38635 0.01488 0.98409 0.0
C1234 C 0.38453 0.03503 0.98208 0.0
C1235 C 0.40092 0.04756 0.97763 0.0
C1236 C 0.36917 0.00186 0.98985 0.0
C1237 C 0.3594 0.00679 0.00723 0.0
C1238 C 0.36294 0.98432 0.97886 0.0
C1239 C 0.37195 0.97891 0.95981 0.0
C1240 C 0.37295 0.99211 0.94458 0.0
C1241 C 0.38152 0.98696 0.92669 0.0
C1242 C 0.38901 0.96858 0.92379 0.0
C1243 C 0.3879 0.9553 0.93876 0.0
C1244 C 0.37937 0.96038 0.95669 0.0
C1245 C 0.28466 0.96083 0.01426 0.0
C1246 C 0.28581 0.94083 0.01787 0.0
C1247 C 0.30147 0.9726 0.0096 0.0
C1248 C 0.31974 0.96461 0.00843 0.0
C1249 C 0.32101 0.94468 0.01204 0.0
C1250 C 0.30419 0.93289 0.01686 0.0
C1251 C 0.3374 0.97708 0.00301 0.0
C1252 C 0.34724 0.97204 0.98572 0.0
C1253 C 0.34364 0.99459 0.01401 0.0
C1254 C 0.33428 0.00022 0.03282 0.0
C1255 C 0.33278 0.98712 0.04813 0.0
C1256 C 0.32385 0.99248 0.06578 0.0
C1257 C 0.31647 0.01094 0.06834 0.0
C1258 C 0.31805 0.02412 0.05328 0.0
C1259 C 0.32695 0.01883 0.03559 0.0
H1260 H 0.30957 0.01506 0.08201 0.0
H1261 H 0.39563 0.96462 0.90992 0.0
H1262 H 0.25445 0.34247 0.31822 0.0
H1263 H 0.22951 0.36565 0.31423 0.0
H1264 H 0.22625 0.35014 0.25219 0.0
H1265 H 0.2516 0.32708 0.2561 0.0
H1266 H 0.22741 0.38831 0.25779 0.0
H1267 H 0.1886 0.33509 0.28342 0.0
H1268 H 0.17948 0.3084 0.30554 0.0
H1269 H 0.17755 0.35064 0.35408 0.0
H1270 H 0.18696 0.37758 0.33232 0.0
H1271 H 0.14807 0.45206 0.25593 0.0
H1272 H 0.16414 0.42109 0.25281 0.0
H1273 H 0.18623 0.43082 0.31203 0.0
H1274 H 0.17054 0.46169 0.31518 0.0
H1275 H 0.17054 0.39149 0.30257 0.0
H1276 H 0.21524 0.44334 0.27639 0.0
H1277 H 0.22401 0.46952 0.25356 0.0
H1278 H 0.21318 0.42811 0.20456 0.0
H1279 H 0.20409 0.40173 0.22713 0.0
C1280 C 0.24824 0.34382 0.30377 0.0
C1281 C 0.25486 0.33291 0.28748 0.0
C1282 C 0.23394 0.35703 0.3015 0.0
C1283 C 0.2257 0.35936 0.28296 0.0
C1284 C 0.23232 0.3485 0.26664 0.0
C1285 C 0.24681 0.33539 0.26888 0.0
C1286 C 0.21094 0.37392 0.28067 0.0
C1287 C 0.21471 0.3887 0.26726 0.0
C1288 C 0.19437 0.3745 0.29304 0.0
C1289 C 0.18859 0.35836 0.30623 0.0
C1290 C 0.18636 0.33869 0.29884 0.0
C1291 C 0.18112 0.32351 0.31131 0.0
C1292 C 0.17796 0.32782 0.33121 0.0
C1293 C 0.18 0.34732 0.33866 0.0
C1294 C 0.18526 0.36256 0.32625 0.0
C1295 C 0.15622 0.44746 0.26831 0.0
C1296 C 0.15818 0.45932 0.28575 0.0
C1297 C 0.16537 0.42983 0.2665 0.0
C1298 C 0.17637 0.42376 0.28219 0.0
C1299 C 0.17775 0.43525 0.2998 0.0
C1300 C 0.16887 0.45293 0.30152 0.0
C1301 C 0.18746 0.40605 0.2802 0.0
C1302 C 0.18298 0.39072 0.2928 0.0
C1303 C 0.20322 0.40482 0.26694 0.0
C1304 C 0.20874 0.42065 0.25342 0.0
C1305 C 0.21456 0.43987 0.26074 0.0
C1306 C 0.21962 0.45473 0.24785 0.0
C1307 C 0.21908 0.4505 0.22761 0.0
C1308 C 0.21354 0.43138 0.22023 0.0
C1309 C 0.20844 0.41647 0.23306 0.0
H1310 H 0.22301 0.46202 0.21766 0.0
H1311 H 0.17391 0.31604 0.34085 0.0
H1312 H 0.0764 0.02559 0.45237 0.0
H1313 H 0.10412 0.05008 0.45877 0.0
H1314 H 0.14438 0.00474 0.45061 0.0
H1315 H 0.11662 0.98014 0.44465 0.0
H1316 H 0.15356 0.02605 0.48244 0.0
H1317 H 0.13908 0.04012 0.41629 0.0
H1318 H 0.1184 0.04787 0.38849 0.0
H1319 H 0.10519 0.10187 0.41868 0.0
H1320 H 0.12558 0.09431 0.4468 0.0
H1321 H 0.24073 0.08962 0.47847 0.0
H1322 H 0.21295 0.0662 0.46909 0.0
H1323 H 0.17264 0.10915 0.48683 0.0
H1324 H 0.20037 0.13276 0.49634 0.0
H1325 H 0.16377 0.08945 0.4498 0.0
H1326 H 0.17863 0.07427 0.51617 0.0
H1327 H 0.20026 0.06613 0.54308 0.0
H1328 H 0.21388 0.01341 0.51078 0.0
H1329 H 0.19254 0.02138 0.48354 0.0
C1330 C 0.09119 0.02094 0.45165 0.0
C1331 C 0.09443 0.00102 0.44801 0.0
C1332 C 0.10702 0.03493 0.45527 0.0
C1333 C 0.12634 0.02927 0.45498 0.0
C1334 C 0.12959 0.00942 0.45094 0.0
C1335 C 0.11377 0.9954 0.44754 0.0
C1336 C 0.14311 0.04383 0.45995 0.0
C1337 C 0.15594 0.03977 0.47506 0.0
C1338 C 0.14597 0.06194 0.45064 0.0
C1339 C 0.13372 0.06655 0.43374 0.0
C1340 C 0.13164 0.05357 0.41707 0.0
C1341 C 0.11999 0.05795 0.40124 0.0
C1342 C 0.11045 0.07533 0.40184 0.0
C1343 C 0.11257 0.0884 0.41825 0.0
C1344 C 0.12419 0.08409 0.43413 0.0
C1345 C 0.22595 0.09413 0.48038 0.0
C1346 C 0.22273 0.11304 0.48823 0.0
C1347 C 0.21014 0.08071 0.47504 0.0
C1348 C 0.19082 0.08597 0.47738 0.0
C1349 C 0.1875 0.10488 0.48493 0.0
C1350 C 0.20333 0.1183 0.49045 0.0
C1351 C 0.17411 0.07155 0.47215 0.0
C1352 C 0.16132 0.07568 0.45706 0.0
C1353 C 0.17139 0.05341 0.48131 0.0
C1354 C 0.18413 0.04853 0.49773 0.0
C1355 C 0.18636 0.06102 0.51473 0.0
C1356 C 0.19855 0.05642 0.53006 0.0
C1357 C 0.20848 0.03929 0.52862 0.0
C1358 C 0.2062 0.02669 0.51187 0.0
C1359 C 0.19405 0.03123 0.49649 0.0
H1360 H 0.21791 0.03575 0.54051 0.0
H1361 H 0.10143 0.07869 0.38956 0.0
H1362 H 0.77584 0.18293 0.72239 0.0
H1363 H 0.7536 0.15329 0.72331 0.0
H1364 H 0.70385 0.18842 0.72168 0.0
H1365 H 0.72603 0.21832 0.72235 0.0
H1366 H 0.69766 0.16322 0.74766 0.0
H1367 H 0.71823 0.15818 0.68117 0.0
H1368 H 0.74154 0.15788 0.65367 0.0
H1369 H 0.76658 0.10763 0.67602 0.0
H1370 H 0.74361 0.10779 0.70381 0.0
H1371 H 0.63031 0.07839 0.73501 0.0
H1372 H 0.65015 0.10794 0.72568 0.0
H1373 H 0.7029 0.08188 0.74213 0.0
H1374 H 0.68322 0.05237 0.75171 0.0
H1375 H 0.70523 0.10276 0.70585 0.0
H1376 H 0.68585 0.11093 0.77402 0.0
H1377 H 0.66158 0.11139 0.80067 0.0
H1378 H 0.63281 0.15653 0.77294 0.0
H1379 H 0.65678 0.15612 0.74596 0.0
C1380 C 0.76018 0.18442 0.72242 0.0
C1381 C 0.75277 0.20309 0.72244 0.0
C1382 C 0.74744 0.16738 0.72258 0.0
C1383 C 0.72701 0.16855 0.72223 0.0
C1384 C 0.71955 0.18712 0.72186 0.0
C1385 C 0.73229 0.20421 0.72205 0.0
C1386 C 0.71347 0.15051 0.72351 0.0
C1387 C 0.6991 0.15018 0.73819 0.0
C1388 C 0.71547 0.1333 0.71142 0.0
C1389 C 0.72928 0.13309 0.69467 0.0
C1390 C 0.7288 0.14715 0.6803 0.0
C1391 C 0.74194 0.14699 0.66465 0.0
C1392 C 0.75556 0.13277 0.66312 0.0
C1393 C 0.75603 0.11865 0.67723 0.0
C1394 C 0.74294 0.11874 0.69292 0.0
C1395 C 0.64615 0.07883 0.73639 0.0
C1396 C 0.65521 0.06313 0.74425 0.0
C1397 C 0.65743 0.09571 0.73107 0.0
C1398 C 0.67793 0.09705 0.73334 0.0
C1399 C 0.68709 0.08105 0.74026 0.0
C1400 C 0.67582 0.06427 0.74583 0.0
C1401 C 0.68972 0.11566 0.72995 0.0
C1402 C 0.70373 0.11601 0.715 0.0
C1403 C 0.68725 0.13298 0.74159 0.0
C1404 C 0.67295 0.13333 0.75787 0.0
C1405 C 0.67424 0.12083 0.77353 0.0
C1406 C 0.66057 0.1211 0.7887 0.0
C1407 C 0.64562 0.13394 0.78847 0.0
C1408 C 0.64437 0.14657 0.77308 0.0
C1409 C 0.658 0.14633 0.75785 0.0
H1410 H 0.63505 0.13413 0.80024 0.0
H1411 H 0.76572 0.13268 0.65099 0.0
H1412 H 0.3718 0.96412 0.55886 0.0
H1413 H 0.35667 0.99379 0.54991 0.0
H1414 H 0.40418 0.03004 0.57814 0.0
H1415 H 0.42011 0.00063 0.58616 0.0
H1416 H 0.35373 0.03547 0.58243 0.0
H1417 H 0.415 0.03727 0.54222 0.0
H1418 H 0.43754 0.01983 0.52064 0.0
H1419 H 0.38948 8e-05 0.48194 0.0
H1420 H 0.36664 0.0172 0.50348 0.0
H1421 H 0.32583 0.12454 0.54369 0.0
H1422 H 0.34545 0.10011 0.5579 0.0
H1423 H 0.33446 0.06167 0.50621 0.0
H1424 H 0.31598 0.08631 0.49167 0.0
H1425 H 0.36934 0.05902 0.51619 0.0
H1426 H 0.30843 0.05685 0.55181 0.0
H1427 H 0.2825 0.07027 0.57232 0.0
H1428 H 0.3246 0.0864 0.61835 0.0
H1429 H 0.35084 0.07327 0.598 0.0
C1430 C 0.37912 0.97838 0.56312 0.0
C1431 C 0.39725 0.97991 0.57317 0.0
C1432 C 0.37033 0.99528 0.55817 0.0
C1433 C 0.37937 0.01397 0.56342 0.0
C1434 C 0.397 0.01566 0.57409 0.0
C1435 C 0.40599 0.99879 0.57876 0.0
C1436 C 0.37102 0.03166 0.55646 0.0
C1437 C 0.35733 0.04095 0.56812 0.0
C1438 C 0.37537 0.03826 0.53761 0.0
C1439 C 0.38914 0.02832 0.52452 0.0
C1440 C 0.40924 0.02907 0.52919 0.0
C1441 C 0.42207 0.01928 0.51696 0.0
C1442 C 0.41494 0.00881 0.49996 0.0
C1443 C 0.39498 0.00817 0.49512 0.0
C1444 C 0.3821 0.01792 0.50733 0.0
C1445 C 0.32784 0.11095 0.53534 0.0
C1446 C 0.31941 0.10733 0.51658 0.0
C1447 C 0.33891 0.09693 0.54351 0.0
C1448 C 0.34119 0.07885 0.53328 0.0
C1449 C 0.33302 0.07548 0.51441 0.0
C1450 C 0.32241 0.08961 0.5061 0.0
C1451 C 0.35174 0.06314 0.54208 0.0
C1452 C 0.36585 0.054 0.5307 0.0
C1453 C 0.34736 0.05644 0.56105 0.0
C1454 C 0.33162 0.0643 0.5733 0.0
C1455 C 0.31218 0.06339 0.56625 0.0
C1456 C 0.29743 0.07092 0.57785 0.0
C1457 C 0.30192 0.07924 0.5966 0.0
C1458 C 0.32116 0.07999 0.60381 0.0
C1459 C 0.33597 0.0725 0.59225 0.0
H1460 H 0.29048 0.08506 0.60556 0.0
H1461 H 0.42488 0.00123 0.49051 0.0
H1462 H 0.61553 0.59592 0.57614 0.0
H1463 H 0.63441 0.56711 0.57119 0.0
H1464 H 0.58812 0.5309 0.59759 0.0
H1465 H 0.56859 0.55925 0.60163 0.0
H1466 H 0.63855 0.52897 0.605 0.0
H1467 H 0.57952 0.51931 0.56052 0.0
H1468 H 0.55716 0.53353 0.53758 0.0
H1469 H 0.60637 0.55336 0.50264 0.0
H1470 H 0.62901 0.53948 0.52558 0.0
H1471 H 0.674 0.43852 0.56722 0.0
H1472 H 0.65267 0.46302 0.58087 0.0
H1473 H 0.66337 0.49755 0.53006 0.0
H1474 H 0.68349 0.47276 0.51602 0.0
H1475 H 0.62797 0.49853 0.53789 0.0
H1476 H 0.68694 0.50773 0.5776 0.0
H1477 H 0.71248 0.49786 0.5999 0.0
H1478 H 0.66859 0.48338 0.6429 0.0
H1479 H 0.64275 0.49296 0.62074 0.0
C1480 C 0.60937 0.58188 0.58102 0.0
C1481 C 0.59041 0.57994 0.58909 0.0
C1482 C 0.62029 0.56551 0.57839 0.0
C1483 C 0.61259 0.54701 0.58408 0.0
C1484 C 0.59431 0.54517 0.59329 0.0
C1485 C 0.58322 0.56146 0.59565 0.0
C1486 C 0.62247 0.5293 0.57791 0.0
C1487 C 0.63608 0.52199 0.59048 0.0
C1488 C 0.61953 0.5207 0.55882 0.0
C1489 C 0.60591 0.52852 0.5448 0.0
C1490 C 0.58555 0.52681 0.548 0.0
C1491 C 0.57284 0.53479 0.53501 0.0
C1492 C 0.58034 0.54438 0.51869 0.0
C1493 C 0.60057 0.54594 0.5153 0.0
C1494 C 0.61334 0.53802 0.52827 0.0
C1495 C 0.67157 0.45127 0.55895 0.0
C1496 C 0.6803 0.45369 0.54053 0.0
C1497 C 0.65954 0.46535 0.56682 0.0
C1498 C 0.65658 0.48234 0.55664 0.0
C1499 C 0.66526 0.48458 0.53819 0.0
C1500 C 0.67681 0.47036 0.53016 0.0
C1501 C 0.64451 0.49796 0.56487 0.0
C1502 C 0.63039 0.50506 0.5526 0.0
C1503 C 0.6474 0.50659 0.58411 0.0
C1504 C 0.6629 0.50083 0.59743 0.0
C1505 C 0.68273 0.5023 0.59175 0.0
C1506 C 0.69725 0.49679 0.60437 0.0
C1507 C 0.69215 0.48994 0.62278 0.0
C1508 C 0.67251 0.48865 0.62862 0.0
C1509 C 0.65792 0.49413 0.61604 0.0
H1510 H 0.70342 0.48567 0.63253 0.0
H1511 H 0.57049 0.55056 0.50865 0.0
H1512 H 0.7478 0.27877 0.34493 0.0
H1513 H 0.74512 0.296 0.37691 0.0
H1514 H 0.68249 0.29598 0.36883 0.0
H1515 H 0.68478 0.27786 0.33727 0.0
H1516 H 0.70345 0.3338 0.38119 0.0
H1517 H 0.69547 0.266 0.39849 0.0
H1518 H 0.70477 0.23182 0.39873 0.0
H1519 H 0.75952 0.25191 0.42696 0.0
H1520 H 0.75068 0.28626 0.42663 0.0
H1521 H 0.68915 0.37505 0.47649 0.0
H1522 H 0.68491 0.35283 0.44726 0.0
H1523 H 0.7431 0.33413 0.45597 0.0
H1524 H 0.74701 0.35549 0.48556 0.0
H1525 H 0.72099 0.30426 0.44323 0.0
H1526 H 0.73242 0.37092 0.42329 0.0
H1527 H 0.72607 0.40593 0.42195 0.0
H1528 H 0.6687 0.38937 0.3976 0.0
H1529 H 0.67464 0.35424 0.39902 0.0
C1530 C 0.7334 0.28214 0.35002 0.0
C1531 C 0.71651 0.27686 0.33845 0.0
C1532 C 0.73193 0.29209 0.36825 0.0
C1533 C 0.7136 0.29715 0.37518 0.0
C1534 C 0.69676 0.29221 0.36365 0.0
C1535 C 0.69816 0.28199 0.34554 0.0
C1536 C 0.71213 0.30782 0.3944 0.0
C1537 C 0.70694 0.32729 0.39484 0.0
C1538 C 0.7172 0.29938 0.41203 0.0
C1539 C 0.72248 0.27872 0.41238 0.0
C1540 C 0.70957 0.26315 0.4046 0.0
C1541 C 0.71474 0.24374 0.40478 0.0
C1542 C 0.73274 0.2397 0.41281 0.0
C1543 C 0.74559 0.25506 0.42073 0.0
C1544 C 0.74049 0.2745 0.42057 0.0
C1545 C 0.70091 0.36598 0.4723 0.0
C1546 C 0.71847 0.36713 0.48324 0.0
C1547 C 0.69853 0.35338 0.45553 0.0
C1548 C 0.71387 0.34213 0.44913 0.0
C1549 C 0.73105 0.34267 0.46054 0.0
C1550 C 0.73329 0.35494 0.47748 0.0
C1551 C 0.71257 0.3305 0.43013 0.0
C1552 C 0.71727 0.3108 0.42968 0.0
C1553 C 0.70746 0.33888 0.4124 0.0
C1554 C 0.70388 0.35997 0.41147 0.0
C1555 C 0.7184 0.37476 0.41777 0.0
C1556 C 0.71488 0.39461 0.41698 0.0
C1557 C 0.69697 0.39987 0.40975 0.0
C1558 C 0.68255 0.38527 0.40323 0.0
C1559 C 0.68599 0.36539 0.40402 0.0
H1560 H 0.69427 0.41525 0.40915 0.0
H1561 H 0.73672 0.22466 0.41294 0.0
H1562 H 0.50839 0.06151 0.96167 0.0
H1563 H 0.53325 0.05323 0.93757 0.0
H1564 H 0.48771 0.03882 0.89403 0.0
H1565 H 0.46281 0.0469 0.91812 0.0
H1566 H 0.51398 0.01218 0.89236 0.0
H1567 H 0.51568 0.0829 0.89515 0.0
H1568 H 0.51878 0.11619 0.9112 0.0
H1569 H 0.57707 0.10713 0.93074 0.0
H1570 H 0.5742 0.07365 0.91503 0.0
H1571 H 0.56233 0.02353 0.80269 0.0
H1572 H 0.54232 0.02787 0.83177 0.0
H1573 H 0.59429 0.03182 0.86828 0.0
H1574 H 0.61465 0.02735 0.83905 0.0
H1575 H 0.56795 0.06186 0.87632 0.0
H1576 H 0.56643 0.99156 0.8692 0.0
H1577 H 0.56233 0.9592 0.85129 0.0
H1578 H 0.50242 0.9686 0.8379 0.0
H1579 H 0.50623 0.00115 0.85548 0.0
C1580 C 0.50372 0.05662 0.94693 0.0
C1581 C 0.48371 0.05492 0.9417 0.0
C1582 C 0.51791 0.05189 0.9332 0.0
C1583 C 0.51233 0.04563 0.91396 0.0
C1584 C 0.49232 0.04358 0.90882 0.0
C1585 C 0.47812 0.04818 0.92257 0.0
C1586 C 0.52729 0.04148 0.89903 0.0
C1587 C 0.52571 0.02308 0.88878 0.0
C1588 C 0.54286 0.05556 0.89469 0.0
C1589 C 0.54463 0.07569 0.90413 0.0
C1590 C 0.52909 0.08794 0.90302 0.0
C1591 C 0.53082 0.10686 0.91202 0.0
C1592 C 0.54809 0.11375 0.92204 0.0
C1593 C 0.56369 0.10176 0.92301 0.0
C1594 C 0.56202 0.08281 0.91405 0.0
C1595 C 0.56958 0.02531 0.81687 0.0
C1596 C 0.5901 0.02509 0.81858 0.0
C1597 C 0.55809 0.02769 0.83348 0.0
C1598 C 0.56685 0.02996 0.85211 0.0
C1599 C 0.58732 0.02999 0.85396 0.0
C1600 C 0.59888 0.0274 0.8373 0.0
C1601 C 0.55439 0.03272 0.86949 0.0
C1602 C 0.55641 0.05086 0.88016 0.0
C1603 C 0.53907 0.01851 0.87404 0.0
C1604 C 0.53667 0.99886 0.86356 0.0
C1605 C 0.55242 0.98679 0.86231 0.0
C1606 C 0.55014 0.9684 0.85224 0.0
C1607 C 0.53214 0.96186 0.84343 0.0
C1608 C 0.51636 0.97368 0.84472 0.0
C1609 C 0.51856 0.9921 0.85476 0.0
H1610 H 0.5304 0.94762 0.83564 0.0
H1611 H 0.5494 0.1284 0.929 0.0
H1612 H 0.28057 0.30492 0.34655 0.0
H1613 H 0.28297 0.28453 0.37495 0.0
H1614 H 0.2892 0.23356 0.33622 0.0
H1615 H 0.28713 0.25399 0.30775 0.0
H1616 H 0.26133 0.22831 0.3684 0.0
H1617 H 0.32814 0.25142 0.35526 0.0
H1618 H 0.35496 0.2767 0.34902 0.0
H1619 H 0.34577 0.30515 0.40536 0.0
H1620 H 0.31866 0.2802 0.4118 0.0
H1621 H 0.31155 0.17731 0.44894 0.0
H1622 H 0.31467 0.19694 0.41979 0.0
H1623 H 0.266 0.2292 0.4393 0.0
H1624 H 0.26291 0.21003 0.4685 0.0
H1625 H 0.31765 0.24107 0.41478 0.0
H1626 H 0.23522 0.22532 0.39817 0.0
H1627 H 0.20825 0.20014 0.40445 0.0
H1628 H 0.24957 0.15604 0.4067 0.0
H1629 H 0.27672 0.18088 0.40012 0.0
C1630 C 0.28222 0.28932 0.34414 0.0
C1631 C 0.28364 0.28093 0.32506 0.0
C1632 C 0.28371 0.27776 0.36031 0.0
C1633 C 0.2864 0.25765 0.35758 0.0
C1634 C 0.28718 0.2491 0.33853 0.0
C1635 C 0.28602 0.26072 0.32236 0.0
C1636 C 0.2886 0.24561 0.37469 0.0
C1637 C 0.27367 0.23102 0.37849 0.0
C1638 C 0.30483 0.24911 0.38768 0.0
C1639 C 0.32124 0.26404 0.38393 0.0
C1640 C 0.33172 0.26316 0.36625 0.0
C1641 C 0.347 0.27742 0.36269 0.0
C1642 C 0.35204 0.29255 0.37677 0.0
C1643 C 0.34184 0.29343 0.39446 0.0
C1644 C 0.32652 0.27923 0.39808 0.0
C1645 C 0.30179 0.18884 0.44722 0.0
C1646 C 0.28688 0.19198 0.46094 0.0
C1647 C 0.30361 0.20006 0.43061 0.0
C1648 C 0.29041 0.2143 0.42742 0.0
C1649 C 0.27622 0.21816 0.44155 0.0
C1650 C 0.27454 0.20718 0.45822 0.0
C1651 C 0.2902 0.22405 0.40863 0.0
C1652 C 0.30542 0.23826 0.40457 0.0
C1653 C 0.27427 0.22016 0.39533 0.0
C1654 C 0.25801 0.20501 0.39885 0.0
C1655 C 0.23853 0.21023 0.39992 0.0
C1656 C 0.22321 0.19602 0.40353 0.0
C1657 C 0.2272 0.17652 0.40604 0.0
C1658 C 0.24651 0.17117 0.40484 0.0
C1659 C 0.26186 0.18531 0.40119 0.0
H1660 H 0.21533 0.16555 0.40886 0.0
H1661 H 0.36387 0.30358 0.37399 0.0
H1662 H 0.51389 0.44715 0.90908 0.0
H1663 H 0.48647 0.45626 0.88925 0.0
H1664 H 0.50661 0.51765 0.89843 0.0
H1665 H 0.53303 0.50882 0.91937 0.0
H1666 H 0.46935 0.51469 0.9006 0.0
H1667 H 0.51576 0.48937 0.85509 0.0
H1668 H 0.53695 0.46484 0.84079 0.0
H1669 H 0.48645 0.42398 0.82997 0.0
H1670 H 0.46498 0.44819 0.84445 0.0
H1671 H 0.43137 0.5284 0.79455 0.0
H1672 H 0.45534 0.51745 0.8173 0.0
H1673 H 0.4104 0.51068 0.86135 0.0
H1674 H 0.38651 0.52254 0.83885 0.0
H1675 H 0.45882 0.485 0.83325 0.0
H1676 H 0.43038 0.51729 0.90678 0.0
H1677 H 0.41274 0.54546 0.91928 0.0
H1678 H 0.43349 0.57893 0.87077 0.0
H1679 H 0.45144 0.55106 0.85813 0.0
C1680 C 0.51232 0.4626 0.9071 0.0
C1681 C 0.52586 0.47723 0.91565 0.0
C1682 C 0.49675 0.46778 0.89557 0.0
C1683 C 0.49465 0.48763 0.89207 0.0
C1684 C 0.50794 0.50223 0.90085 0.0
C1685 C 0.52326 0.49711 0.9126 0.0
C1686 C 0.47885 0.49339 0.87905 0.0
C1687 C 0.467 0.50814 0.88589 0.0
C1688 C 0.47594 0.48507 0.85975 0.0
C1689 C 0.48881 0.4705 0.85105 0.0
C1690 C 0.5092 0.47509 0.8498 0.0
C1691 C 0.52126 0.46126 0.84164 0.0
C1692 C 0.51306 0.44284 0.83453 0.0
C1693 C 0.49278 0.43824 0.83552 0.0
C1694 C 0.48066 0.45201 0.84369 0.0
C1695 C 0.42662 0.52469 0.80913 0.0
C1696 C 0.4071 0.52642 0.81497 0.0
C1697 C 0.44032 0.51834 0.8221 0.0
C1698 C 0.43475 0.51334 0.8411 0.0
C1699 C 0.41516 0.51482 0.8469 0.0
C1700 C 0.40151 0.52155 0.83403 0.0
C1701 C 0.44953 0.50655 0.85468 0.0
C1702 C 0.46108 0.49148 0.848 0.0
C1703 C 0.45267 0.5151 0.87386 0.0
C1704 C 0.44204 0.532 0.8814 0.0
C1705 C 0.4312 0.53068 0.89882 0.0
C1706 C 0.42115 0.54659 0.90592 0.0
C1707 C 0.42193 0.56395 0.89579 0.0
C1708 C 0.43283 0.56545 0.87856 0.0
C1709 C 0.44292 0.5496 0.87141 0.0
H1710 H 0.41413 0.57624 0.90131 0.0
H1711 H 0.52241 0.43215 0.82822 0.0
H1712 H 0.75964 0.78019 0.20236 0.0
H1713 H 0.76655 0.75602 0.17608 0.0
H1714 H 0.70527 0.75075 0.15925 0.0
H1715 H 0.69827 0.77442 0.18586 0.0
H1716 H 0.7186 0.71611 0.15663 0.0
H1717 H 0.74113 0.78014 0.13507 0.0
H1718 H 0.76032 0.81241 0.1372 0.0
H1719 H 0.81399 0.78365 0.13759 0.0
H1720 H 0.79509 0.75119 0.13574 0.0
H1721 H 0.72088 0.68893 0.05555 0.0
H1722 H 0.71847 0.70608 0.08755 0.0
H1723 H 0.77821 0.69492 0.10093 0.0
H1724 H 0.78071 0.67741 0.06882 0.0
H1725 H 0.76902 0.73509 0.10738 0.0
H1726 H 0.74441 0.6704 0.12428 0.0
H1727 H 0.72359 0.63919 0.1203 0.0
H1728 H 0.67178 0.67064 0.12648 0.0
H1729 H 0.69229 0.70208 0.13022 0.0
C1730 C 0.74767 0.77375 0.19308 0.0
C1731 C 0.72845 0.7792 0.19604 0.0
C1732 C 0.75162 0.76 0.17806 0.0
C1733 C 0.73648 0.7518 0.16546 0.0
C1734 C 0.71719 0.75685 0.16878 0.0
C1735 C 0.71319 0.77037 0.18396 0.0
C1736 C 0.74073 0.73848 0.1484 0.0
C1737 C 0.72955 0.72033 0.14582 0.0
C1738 C 0.75532 0.74376 0.13447 0.0
C1739 C 0.7667 0.76325 0.13551 0.0
C1740 C 0.75702 0.7807 0.13576 0.0
C1741 C 0.76784 0.79902 0.1369 0.0
C1742 C 0.78836 0.80008 0.13759 0.0
C1743 C 0.7981 0.78281 0.13709 0.0
C1744 C 0.78734 0.76445 0.136 0.0
C1745 C 0.73349 0.68999 0.06533 0.0
C1746 C 0.751 0.68185 0.05967 0.0
C1747 C 0.73205 0.69972 0.08363 0.0
C1748 C 0.74812 0.70164 0.09661 0.0
C1749 C 0.76564 0.69349 0.0911 0.0
C1750 C 0.76701 0.68348 0.07282 0.0
C1751 C 0.74667 0.71297 0.11551 0.0
C1752 C 0.75832 0.73076 0.1184 0.0
C1753 C 0.73229 0.70752 0.12952 0.0
C1754 C 0.7199 0.68862 0.1274 0.0
C1755 C 0.72858 0.67068 0.12465 0.0
C1756 C 0.71683 0.65294 0.12246 0.0
C1757 C 0.69638 0.65294 0.1231 0.0
C1758 C 0.68763 0.67067 0.12598 0.0
C1759 C 0.69931 0.68845 0.12816 0.0
H1760 H 0.68731 0.63919 0.1214 0.0
H1761 H 0.79671 0.81427 0.13847 0.0
H1762 H 0.06125 0.10868 0.1463 0.0
H1763 H 0.03613 0.10291 0.17125 0.0
H1764 H 0.99145 0.11695 0.13072 0.0
H1765 H 0.01611 0.12163 0.10531 0.0
H1766 H 0.98897 0.13055 0.17599 0.0
H1767 H 0.99396 0.07444 0.12806 0.0
H1768 H 0.01428 0.05165 0.10965 0.0
H1769 H 0.0372 0.03292 0.1637 0.0
H1770 H 0.01726 0.05589 0.1824 0.0
H1771 H 0.90313 0.08074 0.2159 0.0
H1772 H 0.92879 0.0965 0.1955 0.0
H1773 H 0.97022 0.05763 0.2167 0.0
H1774 H 0.94429 0.04103 0.23567 0.0
H1775 H 0.97517 0.05846 0.18129 0.0
H1776 H 0.96964 0.11018 0.23037 0.0
H1777 H 0.9531 0.13432 0.25115 0.0
H1778 H 0.93513 0.16246 0.19991 0.0
H1779 H 0.95136 0.13833 0.17879 0.0
C1780 C 0.04612 0.11072 0.14269 0.0
C1781 C 0.04073 0.11528 0.12362 0.0
C1782 C 0.03185 0.10769 0.15707 0.0
C1783 C 0.01202 0.10952 0.15274 0.0
C1784 C 0.00675 0.11569 0.13434 0.0
C1785 C 0.02094 0.11838 0.11983 0.0
C1786 C 0.99662 0.10178 0.16606 0.0
C1787 C 0.98574 0.11482 0.17717 0.0
C1788 C 0.9929 0.0813 0.16781 0.0
C1789 C 0.00428 0.06698 0.15659 0.0
C1790 C 0.00342 0.06554 0.136 0.0
C1791 C 0.01487 0.0526 0.12552 0.0
C1792 C 0.02707 0.04088 0.1355 0.0
C1793 C 0.02777 0.04202 0.15598 0.0
C1794 C 0.01639 0.05499 0.16653 0.0
C1795 C 0.91777 0.07569 0.21614 0.0
C1796 C 0.92178 0.05962 0.22712 0.0
C1797 C 0.93248 0.08479 0.20465 0.0
C1798 C 0.95162 0.07845 0.20464 0.0
C1799 C 0.95562 0.06275 0.21622 0.0
C1800 C 0.94081 0.05327 0.2271 0.0
C1801 C 0.96726 0.08717 0.1918 0.0
C1802 C 0.97824 0.07425 0.18049 0.0
C1803 C 0.97133 0.10779 0.19034 0.0
C1804 C 0.96155 0.12232 0.20299 0.0
C1805 C 0.96204 0.12143 0.22352 0.0
C1806 C 0.95274 0.13512 0.23536 0.0
C1807 C 0.94302 0.14988 0.22685 0.0
C1808 C 0.94264 0.151 0.20648 0.0
C1809 C 0.9519 0.13733 0.19457 0.0
H1810 H 0.93584 0.16047 0.23605 0.0
H1811 H 0.03594 0.0309 0.12736 0.0
H1812 H 0.27472 0.74412 0.18115 0.0
H1813 H 0.26904 0.76845 0.15688 0.0
H1814 H 0.27045 0.81421 0.20284 0.0
H1815 H 0.27663 0.78995 0.22719 0.0
H1816 H 0.23663 0.81067 0.17146 0.0
H1817 H 0.30699 0.81803 0.18114 0.0
H1818 H 0.33966 0.80542 0.18416 0.0
H1819 H 0.3341 0.77913 0.12577 0.0
H1820 H 0.30123 0.79129 0.12254 0.0
H1821 H 0.2383 0.88508 0.1003 0.0
H1822 H 0.24357 0.86694 0.12977 0.0
H1823 H 0.2669 0.82045 0.09398 0.0
H1824 H 0.26242 0.83877 0.06483 0.0
H1825 H 0.28932 0.82809 0.124 0.0
H1826 H 0.21912 0.81718 0.11435 0.0
H1827 H 0.18535 0.82693 0.11055 0.0
H1828 H 0.18922 0.85711 0.16729 0.0
H1829 H 0.22312 0.84773 0.17131 0.0
C1830 C 0.27372 0.75936 0.18604 0.0
C1831 C 0.27611 0.76526 0.20594 0.0
C1832 C 0.27051 0.77319 0.17223 0.0
C1833 C 0.26934 0.79303 0.17817 0.0
C1834 C 0.27129 0.79892 0.19808 0.0
C1835 C 0.2749 0.78514 0.21188 0.0
C1836 C 0.26667 0.80757 0.1633 0.0
C1837 C 0.2482 0.81486 0.16126 0.0
C1838 C 0.28171 0.81255 0.14988 0.0
C1839 C 0.30157 0.80542 0.15168 0.0
C1840 C 0.31266 0.8094 0.16902 0.0
C1841 C 0.33123 0.80237 0.17075 0.0
C1842 C 0.33894 0.79144 0.15518 0.0
C1843 C 0.32811 0.78758 0.13782 0.0
C1844 C 0.30951 0.79455 0.13603 0.0
C1845 C 0.24447 0.87095 0.09878 0.0
C1846 C 0.25 0.86335 0.0803 0.0
C1847 C 0.24743 0.86057 0.1156 0.0
C1848 C 0.25554 0.84225 0.1141 0.0
C1849 C 0.26076 0.8346 0.09557 0.0
C1850 C 0.25813 0.84507 0.07888 0.0
C1851 C 0.25901 0.83099 0.13168 0.0
C1852 C 0.27772 0.82425 0.13428 0.0
C1853 C 0.24407 0.8263 0.14544 0.0
C1854 C 0.22372 0.83197 0.14302 0.0
C1855 C 0.21282 0.82603 0.12594 0.0
C1856 C 0.19365 0.83146 0.12376 0.0
C1857 C 0.18517 0.84269 0.13864 0.0
C1858 C 0.19582 0.84846 0.15575 0.0
C1859 C 0.21501 0.84308 0.158 0.0
H1860 H 0.17033 0.84688 0.13693 0.0
H1861 H 0.35332 0.78601 0.15655 0.0
H1862 H 0.98313 0.44163 0.09134 0.0
H1863 H 0.00704 0.44677 0.11805 0.0
H1864 H 0.96347 0.47126 0.15532 0.0
H1865 H 0.93889 0.46501 0.12914 0.0
H1866 H 0.00497 0.49481 0.14405 0.0
H1867 H 0.97188 0.43666 0.1721 0.0
H1868 H 0.9591 0.40176 0.1706 0.0
H1869 H 0.01684 0.38428 0.15746 0.0
H1870 H 0.02989 0.41914 0.15859 0.0
H1871 H 0.05331 0.52038 0.2322 0.0
H1872 H 0.02953 0.50777 0.20721 0.0
H1873 H 0.06702 0.46212 0.1896 0.0
H1874 H 0.09077 0.47434 0.21539 0.0
H1875 H 0.02999 0.44757 0.18923 0.0
H1876 H 0.06434 0.50322 0.16245 0.0
H1877 H 0.079 0.53738 0.16131 0.0
H1878 H 0.02193 0.55897 0.16819 0.0
H1879 H 0.00695 0.52494 0.16965 0.0
C1880 C 0.97832 0.44747 0.10538 0.0
C1881 C 0.95898 0.45292 0.10801 0.0
C1882 C 0.9921 0.4505 0.12058 0.0
C1883 C 0.98691 0.45928 0.13854 0.0
C1884 C 0.96763 0.46437 0.14148 0.0
C1885 C 0.95369 0.46097 0.12643 0.0
C1886 C 0.00218 0.46509 0.15344 0.0
C1887 C 0.01029 0.48462 0.15416 0.0
C1888 C 0.00963 0.45143 0.16581 0.0
C1889 C 0.0018 0.43051 0.16516 0.0
C1890 C 0.9818 0.42539 0.16865 0.0
C1891 C 0.97452 0.40561 0.16793 0.0
C1892 C 0.98714 0.39081 0.16387 0.0
C1893 C 0.00707 0.39576 0.16057 0.0
C1894 C 0.01442 0.41552 0.16126 0.0
C1895 C 0.05658 0.50768 0.22301 0.0
C1896 C 0.07402 0.49848 0.22557 0.0
C1897 C 0.04297 0.50051 0.20867 0.0
C1898 C 0.0467 0.48429 0.19622 0.0
C1899 C 0.06392 0.47475 0.19898 0.0
C1900 C 0.07748 0.48177 0.21363 0.0
C1901 C 0.03252 0.47759 0.18033 0.0
C1902 C 0.02473 0.45786 0.17919 0.0
C1903 C 0.0256 0.49099 0.16721 0.0
C1904 C 0.03454 0.51152 0.16632 0.0
C1905 C 0.05493 0.51525 0.16387 0.0
C1906 C 0.06329 0.53459 0.16314 0.0
C1907 C 0.05141 0.55033 0.16472 0.0
C1908 C 0.03112 0.54676 0.16698 0.0
C1909 C 0.02268 0.52745 0.16774 0.0
H1910 H 0.05792 0.5653 0.16415 0.0
H1911 H 0.98148 0.37551 0.16332 0.0
H1912 H 0.31981 0.77353 0.26249 0.0
H1913 H 0.35097 0.777 0.28062 0.0
H1914 H 0.35465 0.7142 0.27498 0.0
H1915 H 0.32413 0.71058 0.25602 0.0
H1916 H 0.36143 0.73278 0.31439 0.0
H1917 H 0.38197 0.73846 0.24705 0.0
H1918 H 0.38138 0.75254 0.21449 0.0
H1919 H 0.39955 0.80982 0.24029 0.0
H1920 H 0.39995 0.79612 0.27307 0.0
H1921 H 0.45753 0.73066 0.35146 0.0
H1922 H 0.4288 0.72497 0.32983 0.0
H1923 H 0.43119 0.78712 0.31983 0.0
H1924 H 0.46033 0.79275 0.34068 0.0
H1925 H 0.42117 0.76789 0.28757 0.0
H1926 H 0.39949 0.76469 0.35411 0.0
H1927 H 0.39848 0.75298 0.38772 0.0
H1928 H 0.38076 0.69431 0.36523 0.0
H1929 H 0.38192 0.70564 0.33144 0.0
C1930 C 0.32733 0.76046 0.26489 0.0
C1931 C 0.31939 0.74177 0.25777 0.0
C1932 C 0.34505 0.76248 0.27535 0.0
C1933 C 0.35502 0.74584 0.27905 0.0
C1934 C 0.34705 0.72717 0.27232 0.0
C1935 C 0.32952 0.72516 0.2616 0.0
C1936 C 0.37387 0.74792 0.28987 0.0
C1937 C 0.3746 0.7402 0.30847 0.0
C1938 C 0.39079 0.75809 0.28226 0.0
C1939 C 0.3908 0.7663 0.26253 0.0
C1940 C 0.38568 0.75409 0.2458 0.0
C1941 C 0.38541 0.76199 0.22731 0.0
C1942 C 0.39037 0.78207 0.22533 0.0
C1943 C 0.39569 0.79427 0.24185 0.0
C1944 C 0.39595 0.78644 0.26039 0.0
C1945 C 0.45207 0.74305 0.34444 0.0
C1946 C 0.4611 0.76216 0.34789 0.0
C1947 C 0.43558 0.73981 0.33218 0.0
C1948 C 0.42755 0.75569 0.32356 0.0
C1949 C 0.43706 0.77464 0.32635 0.0
C1950 C 0.45372 0.77784 0.33832 0.0
C1951 C 0.40885 0.75278 0.31227 0.0
C1952 C 0.40809 0.76036 0.29354 0.0
C1953 C 0.39176 0.74282 0.31995 0.0
C1954 C 0.391 0.73597 0.34024 0.0
C1955 C 0.39552 0.74926 0.35632 0.0
C1956 C 0.3949 0.7427 0.37541 0.0
C1957 C 0.38961 0.7229 0.37861 0.0
C1958 C 0.38488 0.70964 0.36273 0.0
C1959 C 0.38551 0.71612 0.34361 0.0
H1960 H 0.38914 0.71785 0.39339 0.0
H1961 H 0.39014 0.78817 0.211 0.0
H1962 H 0.90609 0.40966 0.04206 0.0
H1963 H 0.91135 0.38457 0.01582 0.0
H1964 H 0.973 0.40414 0.01511 0.0
H1965 H 0.96791 0.42878 0.04152 0.0
H1966 H 0.95199 0.39871 0.97655 0.0
H1967 H 0.96331 0.36648 0.03749 0.0
H1968 H 0.95322 0.355 0.06991 0.0
H1969 H 0.90399 0.32017 0.04352 0.0
H1970 H 0.91365 0.3317 0.01096 0.0
H1971 H 0.00107 0.32634 0.92469 0.0
H1972 H 0.98992 0.35085 0.94848 0.0
H1973 H 0.937 0.31347 0.95775 0.0
H1974 H 0.94858 0.2885 0.93468 0.0
H1975 H 0.9492 0.32792 0.99088 0.0
H1976 H 0.93794 0.35625 0.93013 0.0
H1977 H 0.94546 0.36774 0.89711 0.0
H1978 H 0.99029 0.40986 0.92132 0.0
H1979 H 0.98323 0.39843 0.95448 0.0
C1980 C 0.92071 0.40853 0.03622 0.0
C1981 C 0.93665 0.42093 0.04378 0.0
C1982 C 0.92369 0.39429 0.02132 0.0
C1983 C 0.94256 0.39261 0.01363 0.0
C1984 C 0.95836 0.4053 0.02089 0.0
C1985 C 0.95547 0.41923 0.03598 0.0
C1986 C 0.94613 0.37732 0.99834 0.0
C1987 C 0.9515 0.38321 0.97961 0.0
C1988 C 0.94476 0.35714 0.0023 0.0
C1989 C 0.93905 0.35014 0.02185 0.0
C1990 C 0.95022 0.35653 0.03863 0.0
C1991 C 0.94461 0.34998 0.05703 0.0
C1992 C 0.92793 0.33692 0.05879 0.0
C1993 C 0.91688 0.33032 0.04215 0.0
C1994 C 0.92242 0.33685 0.02372 0.0
C1995 C 0.98706 0.32338 0.9318 0.0
C1996 C 0.97568 0.30554 0.92783 0.0
C1997 C 0.98061 0.33746 0.94529 0.0
C1998 C 0.9624 0.33422 0.95464 0.0
C1999 C 0.95107 0.31635 0.95071 0.0
C2000 C 0.9577 0.30209 0.93752 0.0
C2001 C 0.95551 0.34923 0.96893 0.0
C2002 C 0.94948 0.34333 0.98755 0.0
C2003 C 0.95586 0.36939 0.9647 0.0
C2004 C 0.96015 0.37637 0.94478 0.0
C2005 C 0.9495 0.36787 0.9284 0.0
C2006 C 0.95366 0.37438 0.90966 0.0
C2007 C 0.96837 0.38949 0.90711 0.0
C2008 C 0.97891 0.39814 0.92331 0.0
C2009 C 0.97481 0.39167 0.94209 0.0
H2010 H 0.97157 0.39451 0.89259 0.0
H2011 H 0.92361 0.33185 0.07304 0.0
H2012 H 0.69456 0.77436 0.25912 0.0
H2013 H 0.66844 0.77027 0.28346 0.0
H2014 H 0.65092 0.82816 0.27256 0.0
H2015 H 0.6768 0.83226 0.24816 0.0
H2016 H 0.65411 0.82269 0.31149 0.0
H2017 H 0.62427 0.78732 0.25458 0.0
H2018 H 0.62229 0.7622 0.22727 0.0
H2019 H 0.62429 0.7165 0.26815 0.0
H2020 H 0.62656 0.7414 0.2957 0.0
H2021 H 0.5583 0.8237 0.34887 0.0
H2022 H 0.58814 0.82415 0.32938 0.0
H2023 H 0.59741 0.76538 0.34606 0.0
H2024 H 0.56728 0.76471 0.36552 0.0
H2025 H 0.60078 0.76876 0.30694 0.0
H2026 H 0.62726 0.80414 0.36415 0.0
H2027 H 0.62895 0.82938 0.39134 0.0
H2028 H 0.63328 0.87508 0.35013 0.0
H2029 H 0.63133 0.85012 0.32266 0.0
C2030 C 0.68496 0.7861 0.26174 0.0
C2031 C 0.68778 0.80366 0.25178 0.0
C2032 C 0.6701 0.78377 0.27568 0.0
C2033 C 0.65775 0.79892 0.2798 0.0
C2034 C 0.6604 0.81635 0.26971 0.0
C2035 C 0.6752 0.81868 0.2558 0.0
C2036 C 0.64218 0.79685 0.29479 0.0
C2037 C 0.64235 0.81099 0.31043 0.0
C2038 C 0.62723 0.78121 0.29372 0.0
C2039 C 0.62582 0.76623 0.27718 0.0
C2040 C 0.62446 0.77193 0.25773 0.0
C2041 C 0.62325 0.75773 0.24221 0.0
C2042 C 0.62323 0.73777 0.24596 0.0
C2043 C 0.62435 0.73197 0.26526 0.0
C2044 C 0.62559 0.74612 0.28083 0.0
C2045 C 0.56678 0.81094 0.34862 0.0
C2046 C 0.56041 0.79416 0.35873 0.0
C2047 C 0.5839 0.81125 0.33752 0.0
C2048 C 0.59509 0.79486 0.33639 0.0
C2049 C 0.589 0.7782 0.34677 0.0
C2050 C 0.57184 0.77788 0.35794 0.0
C2051 C 0.61247 0.79485 0.32344 0.0
C2052 C 0.61267 0.78031 0.30818 0.0
C2053 C 0.62777 0.81015 0.32485 0.0
C2054 C 0.629 0.82524 0.34133 0.0
C2055 C 0.62842 0.81957 0.36087 0.0
C2056 C 0.62945 0.83383 0.37634 0.0
C2057 C 0.63119 0.85382 0.37246 0.0
C2058 C 0.63193 0.85959 0.35311 0.0
C2059 C 0.63089 0.84539 0.33758 0.0
H2060 H 0.63198 0.86484 0.38446 0.0
H2061 H 0.62228 0.7268 0.23393 0.0
H2062 H 0.09315 0.14392 0.05183 0.0
H2063 H 0.08729 0.16049 0.02144 0.0
H2064 H 0.02487 0.14719 0.02779 0.0
H2065 H 0.03059 0.13065 0.05798 0.0
H2066 H 0.03925 0.13727 0.99018 0.0
H2067 H 0.0439 0.19202 0.039 0.0
H2068 H 0.06083 0.21338 0.06504 0.0
H2069 H 0.10791 0.22852 0.02561 0.0
H2070 H 0.09136 0.20701 -0.0006 0.0
H2071 H 0.9854 0.19834 0.93627 0.0
H2072 H 0.00172 0.17963 0.95997 0.0
H2073 H 0.05786 0.20798 0.94425 0.0
H2074 H 0.04145 0.22719 0.92055 0.0
H2075 H 0.05371 0.209 0.98302 0.0
H2076 H 0.04699 0.15894 0.93262 0.0
H2077 H 0.03082 0.13758 0.90616 0.0
H2078 H 0.98943 0.11297 0.94728 0.0
H2079 H 0.00516 0.13439 0.97395 0.0
C2080 C 0.0782 0.14465 0.04674 0.0
C2081 C 0.06231 0.13613 0.0573 0.0
C2082 C 0.07488 0.15412 0.02945 0.0
C2083 C 0.05566 0.15501 0.02241 0.0
C2084 C 0.03981 0.1466 0.03299 0.0
C2085 C 0.04309 0.13735 0.05032 0.0
C2086 C 0.05178 0.1645 0.00392 0.0
C2087 C 0.04233 0.15296 0.98858 0.0
C2088 C 0.05662 0.18478 0.0016 0.0
C2089 C 0.06653 0.19772 0.01734 0.0
C2090 C 0.05795 0.19975 0.03595 0.0
C2091 C 0.06746 0.21192 0.05072 0.0
C2092 C 0.08547 0.22225 0.047 0.0
C2093 C 0.09398 0.22048 0.02848 0.0
C2094 C 0.08454 0.20831 0.01366 0.0
C2095 C 0.00125 0.20044 0.9376 0.0
C2096 C 0.01212 0.21428 0.92654 0.0
C2097 C 0.01059 0.18961 0.9511 0.0
C2098 C 0.03105 0.19223 0.95375 0.0
C2099 C 0.04206 0.20568 0.94238 0.0
C2100 C 0.03268 0.21658 0.92881 0.0
C2101 C 0.04043 0.1819 0.96947 0.0
C2102 C 0.05098 0.19323 0.98433 0.0
C2103 C 0.03677 0.16135 0.97127 0.0
C2104 C 0.02723 0.14837 0.95529 0.0
C2105 C 0.03436 0.14908 0.93601 0.0
C2106 C 0.02528 0.13693 0.92097 0.0
C2107 C 0.0091 0.12394 0.92503 0.0
C2108 C 0.00198 0.12304 0.94415 0.0
C2109 C 0.01099 0.13515 0.95925 0.0
H2110 H 0.00209 0.11455 0.91337 0.0
H2111 H 0.0928 0.23167 0.05846 0.0
H2112 H 0.33955 0.30408 0.29178 0.0
H2113 H 0.36884 0.30466 0.27166 0.0
H2114 H 0.33413 0.31463 0.22068 0.0
H2115 H 0.30437 0.31261 0.24054 0.0
H2116 H 0.35819 0.28858 0.2115 0.0
H2117 H 0.36566 0.35187 0.24445 0.0
H2118 H 0.36685 0.37612 0.2725 0.0
H2119 H 0.4158 0.34965 0.29692 0.0
H2120 H 0.41474 0.32506 0.26914 0.0
H2121 H 0.44108 0.31426 0.15314 0.0
H2122 H 0.4125 0.31891 0.17371 0.0
H2123 H 0.44014 0.29189 0.22122 0.0
H2124 H 0.46885 0.28686 0.20062 0.0
H2125 H 0.41983 0.32836 0.23118 0.0
H2126 H 0.40997 0.26388 0.19766 0.0
H2127 H 0.40857 0.24119 0.16835 0.0
H2128 H 0.36337 0.27276 0.14348 0.0
H2129 H 0.36472 0.29584 0.17254 0.0
C2130 C 0.33803 0.30612 0.27623 0.0
C2131 C 0.31952 0.3081 0.26775 0.0
C2132 C 0.3549 0.30681 0.2648 0.0
C2133 C 0.35377 0.31004 0.24471 0.0
C2134 C 0.33537 0.31222 0.23618 0.0
C2135 C 0.31839 0.31123 0.24759 0.0
C2136 C 0.37171 0.31022 0.23251 0.0
C2137 C 0.37153 0.29757 0.21566 0.0
C2138 C 0.38927 0.3217 0.23807 0.0
C2139 C 0.39001 0.33651 0.25478 0.0
C2140 C 0.37659 0.35113 0.25587 0.0
C2141 C 0.37725 0.36495 0.27171 0.0
C2142 C 0.39136 0.3644 0.28651 0.0
C2143 C 0.40487 0.35005 0.28546 0.0
C2144 C 0.40426 0.33618 0.26965 0.0
C2145 C 0.44125 0.30951 0.16804 0.0
C2146 C 0.45718 0.30006 0.17523 0.0
C2147 C 0.42489 0.31217 0.17973 0.0
C2148 C 0.42426 0.30563 0.19886 0.0
C2149 C 0.44045 0.29702 0.20645 0.0
C2150 C 0.45676 0.2941 0.19466 0.0
C2151 C 0.40616 0.3067 0.21044 0.0
C2152 C 0.40637 0.31955 0.22709 0.0
C2153 C 0.38854 0.29566 0.20456 0.0
C2154 C 0.38761 0.2817 0.18717 0.0
C2155 C 0.39986 0.26609 0.18586 0.0
C2156 C 0.39905 0.25314 0.16931 0.0
C2157 C 0.38593 0.25557 0.15404 0.0
C2158 C 0.37355 0.27092 0.15531 0.0
C2159 C 0.37432 0.28393 0.17182 0.0
H2160 H 0.38533 0.24552 0.14124 0.0
H2161 H 0.39185 0.37511 0.29876 0.0
H2162 H 0.58107 0.42701 0.96603 0.0
H2163 H 0.57711 0.40551 0.9936 0.0
H2164 H 0.51871 0.42378 0.00323 0.0
H2165 H 0.52292 0.44599 0.97639 0.0
H2166 H 0.53839 0.42504 0.03667 0.0
H2167 H 0.52734 0.37811 0.98164 0.0
H2168 H 0.53574 0.36091 0.95056 0.0
H2169 H 0.58692 0.341 0.97764 0.0
H2170 H 0.57895 0.35831 0.00883 0.0
H2171 H 0.48836 0.34992 0.08785 0.0
H2172 H 0.50157 0.37331 0.06445 0.0
H2173 H 0.55917 0.35262 0.07109 0.0
H2174 H 0.54599 0.32911 0.09486 0.0
H2175 H 0.54591 0.35323 0.03169 0.0
H2176 H 0.55357 0.39683 0.08825 0.0
H2177 H 0.54374 0.41328 0.1192 0.0
H2178 H 0.49755 0.43891 0.08906 0.0
H2179 H 0.5069 0.42238 0.05796 0.0
C2180 C 0.56738 0.42643 0.97403 0.0
C2181 C 0.5523 0.43821 0.96899 0.0
C2182 C 0.56509 0.41403 0.98968 0.0
C2183 C 0.54758 0.41298 0.00042 0.0
C2184 C 0.53236 0.42438 0.99515 0.0
C2185 C 0.53469 0.43689 0.97962 0.0
C2186 C 0.54518 0.40048 0.01753 0.0
C2187 C 0.5399 0.40931 0.03554 0.0
C2188 C 0.54788 0.38009 0.01623 0.0
C2189 C 0.55268 0.3697 0.99749 0.0
C2190 C 0.54048 0.37021 0.98092 0.0
C2191 C 0.54514 0.36041 0.96329 0.0
C2192 C 0.56189 0.34992 0.96211 0.0
C2193 C 0.57398 0.34916 0.97856 0.0
C2194 C 0.56939 0.35896 0.99622 0.0
C2195 C 0.5039 0.35051 0.08456 0.0
C2196 C 0.51616 0.33768 0.09312 0.0
C2197 C 0.51144 0.36393 0.07125 0.0
C2198 C 0.53134 0.36471 0.06614 0.0
C2199 C 0.54377 0.35223 0.07494 0.0
C2200 C 0.53626 0.33892 0.08854 0.0
C2201 C 0.53853 0.37772 0.05058 0.0
C2202 C 0.54475 0.36902 0.03288 0.0
C2203 C 0.53655 0.3982 0.0521 0.0
C2204 C 0.53088 0.40825 0.07077 0.0
C2205 C 0.54122 0.40585 0.08824 0.0
C2206 C 0.53575 0.41522 0.10581 0.0
C2207 C 0.52001 0.42711 0.1061 0.0
C2208 C 0.50974 0.4297 0.08881 0.0
C2209 C 0.51514 0.42035 0.0712 0.0
H2210 H 0.5158 0.43435 0.11973 0.0
H2211 H 0.56547 0.34234 0.94845 0.0
H2212 H 0.68215 0.23074 0.26538 0.0
H2213 H 0.65703 0.23609 0.24111 0.0
H2214 H 0.67354 0.29861 0.24559 0.0
H2215 H 0.69831 0.2933 0.27042 0.0
H2216 H 0.63591 0.29307 0.24675 0.0
H2217 H 0.68395 0.26864 0.20392 0.0
H2218 H 0.70827 0.2462 0.19183 0.0
H2219 H 0.66296 0.19887 0.18522 0.0
H2220 H 0.6384 0.22095 0.19754 0.0
H2221 H 0.56809 0.30487 0.16794 0.0
H2222 H 0.5998 0.30472 0.18504 0.0
H2223 H 0.58598 0.244 0.19825 0.0
H2224 H 0.55434 0.24409 0.18153 0.0
H2225 H 0.62513 0.25261 0.1847 0.0
H2226 H 0.57869 0.27709 0.23211 0.0
H2227 H 0.55477 0.30006 0.24405 0.0
H2228 H 0.59859 0.34859 0.24078 0.0
H2229 H 0.6227 0.3259 0.22856 0.0
C2230 C 0.6806 0.24558 0.26094 0.0
C2231 C 0.69217 0.26161 0.2697 0.0
C2232 C 0.66629 0.24864 0.24701 0.0
C2233 C 0.66356 0.26774 0.24124 0.0
C2234 C 0.67538 0.28374 0.24976 0.0
C2235 C 0.68951 0.28071 0.26392 0.0
C2236 C 0.64753 0.27103 0.2273 0.0
C2237 C 0.63386 0.28453 0.23296 0.0
C2238 C 0.64465 0.25977 0.20938 0.0
C2239 C 0.65934 0.24645 0.20178 0.0
C2240 C 0.67918 0.25342 0.2 0.0
C2241 C 0.69301 0.24076 0.19309 0.0
C2242 C 0.68717 0.22111 0.18779 0.0
C2243 C 0.66747 0.21409 0.18933 0.0
C2244 C 0.65358 0.22668 0.19625 0.0
C2245 C 0.5719 0.29148 0.17439 0.0
C2246 C 0.5587 0.27453 0.17353 0.0
C2247 C 0.58997 0.29142 0.18414 0.0
C2248 C 0.59515 0.27435 0.19291 0.0
C2249 C 0.58225 0.25728 0.19152 0.0
C2250 C 0.56414 0.25741 0.18207 0.0
C2251 C 0.61354 0.27431 0.20441 0.0
C2252 C 0.62755 0.2614 0.19829 0.0
C2253 C 0.61687 0.28624 0.22179 0.0
C2254 C 0.60241 0.29985 0.22919 0.0
C2255 C 0.58316 0.29268 0.23377 0.0
C2256 C 0.56959 0.30564 0.24062 0.0
C2257 C 0.57514 0.32578 0.24311 0.0
C2258 C 0.5943 0.33299 0.2388 0.0
C2259 C 0.60793 0.32009 0.23192 0.0
H2260 H 0.56461 0.33579 0.24842 0.0
H2261 H 0.69791 0.21134 0.18245 0.0
H2262 H 0.43306 0.11302 0.98699 0.0
H2263 H 0.43867 0.14273 0.00872 0.0
H2264 H 0.49521 0.12451 0.02529 0.0
H2265 H 0.48978 0.09494 0.00345 0.0
H2266 H 0.46944 0.13559 0.05731 0.0
H2267 H 0.49596 0.15893 0.99615 0.0
H2268 H 0.49432 0.16498 0.96089 0.0
H2269 H 0.44618 0.20088 0.97126 0.0
H2270 H 0.44734 0.19478 0.00655 0.0
H2271 H 0.51134 0.21994 0.10989 0.0
H2272 H 0.50466 0.19142 0.08716 0.0
H2273 H 0.45748 0.21977 0.06086 0.0
H2274 H 0.4647 0.24871 0.083 0.0
H2275 H 0.4769 0.20334 0.03347 0.0
H2276 H 0.44923 0.18147 0.09334 0.0
H2277 H 0.44814 0.17514 0.12858 0.0
H2278 H 0.49426 0.13625 0.12113 0.0
H2279 H 0.49582 0.14255 0.08588 0.0
C2280 C 0.44668 0.11545 0.99525 0.0
C2281 C 0.46102 0.10181 0.99359 0.0
C2282 C 0.44989 0.13237 0.00755 0.0
C2283 C 0.46735 0.13572 0.0185 0.0
C2284 C 0.48166 0.12211 0.0169 0.0
C2285 C 0.4786 0.10535 0.00439 0.0
C2286 C 0.47057 0.15322 0.032 0.0
C2287 C 0.47131 0.15042 0.05216 0.0
C2288 C 0.47224 0.17249 0.02516 0.0
C2289 C 0.4716 0.17622 0.00396 0.0
C2290 C 0.4849 0.16795 0.99088 0.0
C2291 C 0.48408 0.17143 0.9709 0.0
C2292 C 0.47011 0.18326 0.96383 0.0
C2293 C 0.45697 0.19169 0.97675 0.0
C2294 C 0.45771 0.18824 0.99674 0.0
C2295 C 0.49952 0.22006 0.09929 0.0
C2296 C 0.48849 0.2365 0.09825 0.0
C2297 C 0.49564 0.20372 0.08637 0.0
C2298 C 0.48032 0.20329 0.07252 0.0
C2299 C 0.46935 0.21975 0.07143 0.0
C2300 C 0.47346 0.23625 0.08411 0.0
C2301 C 0.47599 0.18581 0.05898 0.0
C2302 C 0.47498 0.18856 0.03875 0.0
C2303 C 0.47365 0.16648 0.06579 0.0
C2304 C 0.47276 0.16263 0.087 0.0
C2305 C 0.45924 0.17168 0.09924 0.0
C2306 C 0.45852 0.16808 0.11922 0.0
C2307 C 0.47116 0.15534 0.1271 0.0
C2308 C 0.4845 0.14613 0.11501 0.0
C2309 C 0.48529 0.1497 0.09503 0.0
H2310 H 0.47058 0.15257 0.14257 0.0
H2311 H 0.46951 0.18594 0.94835 0.0
H2312 H 0.237 0.35557 0.6979 0.0
H2313 H 0.2537 0.3887 0.69899 0.0
H2314 H 0.25102 0.39125 0.7621 0.0
H2315 H 0.23523 0.35782 0.76132 0.0
H2316 H 0.24009 0.42653 0.74248 0.0
H2317 H 0.29122 0.38031 0.74392 0.0
H2318 H 0.30812 0.3521 0.73035 0.0
H2319 H 0.31905 0.38167 0.6769 0.0
H2320 H 0.30193 0.40995 0.69007 0.0
H2321 H 0.31049 0.49793 0.78115 0.0
H2322 H 0.28835 0.46943 0.77135 0.0
H2323 H 0.31301 0.46898 0.7132 0.0
H2324 H 0.33596 0.49714 0.72328 0.0
H2325 H 0.31057 0.43396 0.72451 0.0
H2326 H 0.26454 0.482 0.72325 0.0
H2327 H 0.24686 0.51049 0.73464 0.0
H2328 H 0.22483 0.47895 0.78392 0.0
H2329 H 0.24261 0.45035 0.773 0.0
C2330 C 0.2401 0.36306 0.71205 0.0
C2331 C 0.23489 0.35388 0.72955 0.0
C2332 C 0.24947 0.38206 0.7126 0.0
C2333 C 0.25355 0.39232 0.73061 0.0
C2334 C 0.24783 0.38355 0.74805 0.0
C2335 C 0.23874 0.36446 0.74755 0.0
C2336 C 0.26478 0.41179 0.73148 0.0
C2337 C 0.25553 0.42825 0.73865 0.0
C2338 C 0.28464 0.41402 0.72567 0.0
C2339 C 0.2951 0.39712 0.71788 0.0
C2340 C 0.29708 0.38071 0.72921 0.0
C2341 C 0.30672 0.36473 0.72161 0.0
C2342 C 0.3146 0.36506 0.70275 0.0
C2343 C 0.3129 0.38142 0.69149 0.0
C2344 C 0.30324 0.39743 0.69901 0.0
C2345 C 0.31105 0.49197 0.76618 0.0
C2346 C 0.325 0.4998 0.75299 0.0
C2347 C 0.29824 0.47571 0.76053 0.0
C2348 C 0.29872 0.46719 0.74141 0.0
C2349 C 0.31231 0.4753 0.72802 0.0
C2350 C 0.3254 0.49141 0.73378 0.0
C2351 C 0.2861 0.44892 0.73606 0.0
C2352 C 0.29505 0.43255 0.72802 0.0
C2353 C 0.26583 0.44691 0.7407 0.0
C2354 C 0.25502 0.46405 0.74734 0.0
C2355 C 0.25603 0.48117 0.73659 0.0
C2356 C 0.24598 0.49735 0.74295 0.0
C2357 C 0.23475 0.49655 0.76001 0.0
C2358 C 0.23353 0.47955 0.77071 0.0
C2359 C 0.24357 0.46334 0.76442 0.0
H2360 H 0.22698 0.50908 0.76492 0.0
H2361 H 0.32206 0.35267 0.69689 0.0
H2362 H 0.2261 0.70821 0.78069 0.0
H2363 H 0.24984 0.68321 0.77897 0.0
H2364 H 0.29443 0.72524 0.80442 0.0
H2365 H 0.27078 0.7505 0.80608 0.0
H2366 H 0.29174 0.68591 0.76104 0.0
H2367 H 0.30469 0.70767 0.83514 0.0
H2368 H 0.28927 0.71895 0.86593 0.0
H2369 H 0.24226 0.67356 0.8572 0.0
H2370 H 0.25737 0.6622 0.82627 0.0
H2371 H 0.35948 0.6132 0.77519 0.0
H2372 H 0.3448 0.64487 0.77617 0.0
H2373 H 0.29583 0.61949 0.80884 0.0
H2374 H 0.31088 0.58833 0.80875 0.0
H2375 H 0.30435 0.6541 0.8232 0.0
H2376 H 0.29512 0.62609 0.7568 0.0
H2377 H 0.30602 0.61283 0.72475 0.0
H2378 H 0.34038 0.66719 0.7159 0.0
H2379 H 0.32983 0.68069 0.74801 0.0
C2380 C 0.24105 0.71227 0.78559 0.0
C2381 C 0.24656 0.73133 0.79355 0.0
C2382 C 0.25456 0.69796 0.78465 0.0
C2383 C 0.27378 0.70242 0.79166 0.0
C2384 C 0.27957 0.72153 0.79909 0.0
C2385 C 0.26604 0.73589 0.80008 0.0
C2386 C 0.28729 0.68661 0.79223 0.0
C2387 C 0.29491 0.67913 0.77463 0.0
C2388 C 0.29092 0.67758 0.80986 0.0
C2389 C 0.28207 0.68418 0.8285 0.0
C2390 C 0.29106 0.70016 0.83983 0.0
C2391 C 0.28237 0.70657 0.85726 0.0
C2392 C 0.26478 0.69699 0.86351 0.0
C2393 C 0.25586 0.68097 0.85235 0.0
C2394 C 0.26447 0.67456 0.83487 0.0
C2395 C 0.34565 0.61448 0.78268 0.0
C2396 C 0.3363 0.5983 0.79185 0.0
C2397 C 0.33722 0.63254 0.78316 0.0
C2398 C 0.31902 0.63453 0.79233 0.0
C2399 C 0.30989 0.61841 0.80173 0.0
C2400 C 0.31849 0.60055 0.80161 0.0
C2401 C 0.30907 0.65312 0.7919 0.0
C2402 C 0.30185 0.66108 0.80957 0.0
C2403 C 0.30562 0.66238 0.77419 0.0
C2404 C 0.31187 0.6543 0.75487 0.0
C2405 C 0.30509 0.63516 0.74806 0.0
C2406 C 0.31119 0.62761 0.72988 0.0
C2407 C 0.32394 0.63914 0.71832 0.0
C2408 C 0.33055 0.65826 0.72489 0.0
C2409 C 0.3245 0.66587 0.74306 0.0
H2410 H 0.32865 0.63327 0.70426 0.0
H2411 H 0.25808 0.70197 0.87701 0.0
H2412 H 0.88683 0.57716 0.46442 0.0
H2413 H 0.85722 0.55602 0.47154 0.0
H2414 H 0.89253 0.50686 0.47737 0.0
H2415 H 0.92199 0.52778 0.46988 0.0
H2416 H 0.85965 0.49499 0.45891 0.0
H2417 H 0.87747 0.53453 0.51753 0.0
H2418 H 0.8853 0.56549 0.53718 0.0
H2419 H 0.82807 0.58389 0.52471 0.0
H2420 H 0.82 0.55314 0.50473 0.0
H2421 H 0.80065 0.43369 0.51961 0.0
H2422 H 0.82685 0.457 0.50844 0.0
H2423 H 0.78401 0.49728 0.49409 0.0
H2424 H 0.75762 0.47396 0.50504 0.0
H2425 H 0.81844 0.51476 0.51511 0.0
H2426 H 0.80047 0.47281 0.45818 0.0
H2427 H 0.7935 0.4409 0.43993 0.0
H2428 H 0.8523 0.42601 0.45105 0.0
H2429 H 0.85954 0.45772 0.46964 0.0
C2430 C 0.88818 0.56179 0.46707 0.0
C2431 C 0.90664 0.55407 0.46664 0.0
C2432 C 0.87131 0.54977 0.47118 0.0
C2433 C 0.87273 0.52995 0.47528 0.0
C2434 C 0.89109 0.5221 0.47422 0.0
C2435 C 0.9079 0.53404 0.46991 0.0
C2436 C 0.85529 0.51747 0.4814 0.0
C2437 C 0.85073 0.49927 0.47128 0.0
C2438 C 0.84345 0.52321 0.49735 0.0
C2439 C 0.84822 0.54164 0.50946 0.0
C2440 C 0.86661 0.54525 0.51886 0.0
C2441 C 0.87108 0.56275 0.53007 0.0
C2442 C 0.85721 0.57667 0.53215 0.0
C2443 C 0.83881 0.5731 0.52306 0.0
C2444 C 0.83428 0.55564 0.51179 0.0
C2445 C 0.7968 0.44756 0.51421 0.0
C2446 C 0.77708 0.45197 0.51312 0.0
C2447 C 0.81176 0.4608 0.50778 0.0
C2448 C 0.80726 0.47871 0.50032 0.0
C2449 C 0.78769 0.48346 0.49977 0.0
C2450 C 0.77267 0.47012 0.50597 0.0
C2451 C 0.82306 0.49228 0.49277 0.0
C2452 C 0.82727 0.51064 0.50262 0.0
C2453 C 0.83475 0.48659 0.47675 0.0
C2454 C 0.83048 0.46757 0.46545 0.0
C2455 C 0.81187 0.46266 0.45688 0.0
C2456 C 0.80788 0.44462 0.44644 0.0
C2457 C 0.82244 0.43142 0.44437 0.0
C2458 C 0.84103 0.43625 0.45268 0.0
C2459 C 0.84509 0.45426 0.46316 0.0
H2460 H 0.81932 0.41746 0.43628 0.0
H2461 H 0.8607 0.59021 0.54083 0.0
H2462 H 0.7309 0.8142 0.78522 0.0
H2463 H 0.70611 0.8382 0.782 0.0
H2464 H 0.75061 0.88571 0.79469 0.0
H2465 H 0.77537 0.86193 0.79749 0.0
H2466 H 0.71328 0.8858 0.81732 0.0
H2467 H 0.73945 0.87881 0.75084 0.0
H2468 H 0.74636 0.85936 0.72062 0.0
H2469 H 0.68493 0.8412 0.71372 0.0
H2470 H 0.67771 0.86033 0.7441 0.0
H2471 H 0.68718 0.97713 0.79337 0.0
H2472 H 0.70252 0.94638 0.79566 0.0
H2473 H 0.65271 0.91488 0.76606 0.0
H2474 H 0.63734 0.94599 0.76321 0.0
H2475 H 0.68608 0.90146 0.75294 0.0
H2476 H 0.65846 0.912 0.81551 0.0
H2477 H 0.65014 0.93022 0.84602 0.0
H2478 H 0.71132 0.93945 0.86144 0.0
H2479 H 0.72005 0.92154 0.83088 0.0
C2480 C 0.73528 0.82979 0.78729 0.0
C2481 C 0.75496 0.83633 0.79151 0.0
C2482 C 0.7212 0.8434 0.78542 0.0
C2483 C 0.72663 0.86363 0.78811 0.0
C2484 C 0.74621 0.87012 0.79258 0.0
C2485 C 0.76031 0.85659 0.79408 0.0
C2486 C 0.71207 0.8783 0.78637 0.0
C2487 C 0.70731 0.8893 0.80328 0.0
C2488 C 0.70371 0.88217 0.76814 0.0
C2489 C 0.70808 0.87077 0.74987 0.0
C2490 C 0.72745 0.8705 0.74299 0.0
C2491 C 0.73142 0.85958 0.72581 0.0
C2492 C 0.7161 0.84899 0.71529 0.0
C2493 C 0.69678 0.84937 0.72191 0.0
C2494 C 0.69274 0.86025 0.7391 0.0
C2495 C 0.67944 0.9637 0.78731 0.0
C2496 C 0.66097 0.96395 0.77825 0.0
C2497 C 0.68819 0.94609 0.78874 0.0
C2498 C 0.67854 0.92826 0.78148 0.0
C2499 C 0.66032 0.92846 0.77192 0.0
C2500 C 0.65158 0.94621 0.77031 0.0
C2501 C 0.68787 0.90962 0.78385 0.0
C2502 C 0.69163 0.89779 0.76709 0.0
C2503 C 0.69505 0.90474 0.80233 0.0
C2504 C 0.68991 0.91549 0.82082 0.0
C2505 C 0.67016 0.91802 0.82534 0.0
C2506 C 0.66537 0.92829 0.84266 0.0
C2507 C 0.6802 0.93601 0.85565 0.0
C2508 C 0.69985 0.93345 0.85136 0.0
C2509 C 0.70473 0.92321 0.83405 0.0
H2510 H 0.67645 0.94395 0.86905 0.0
H2511 H 0.7192 0.84055 0.70198 0.0
H2512 H 0.57809 0.51962 0.94248 0.0
H2513 H 0.60716 0.54233 0.94839 0.0
H2514 H 0.64359 0.4934 0.94706 0.0
H2515 H 0.6143 0.47049 0.94156 0.0
H2516 H 0.65254 0.51666 0.97759 0.0
H2517 H 0.64451 0.52661 0.90971 0.0
H2518 H 0.62702 0.53306 0.87934 0.0
H2519 H 0.61426 0.58982 0.90368 0.0
H2520 H 0.63144 0.58361 0.93432 0.0
H2521 H 0.74081 0.58067 0.97938 0.0
H2522 H 0.71432 0.55624 0.96865 0.0
H2523 H 0.67193 0.59901 0.97946 0.0
H2524 H 0.69833 0.6236 0.99038 0.0
H2525 H 0.66801 0.57779 0.94222 0.0
H2526 H 0.67486 0.56579 0.01104 0.0
H2527 H 0.69325 0.55876 0.0407 0.0
H2528 H 0.70966 0.50476 0.01281 0.0
H2529 H 0.69158 0.51162 0.98287 0.0
C2530 C 0.59235 0.51373 0.94302 0.0
C2531 C 0.59401 0.49333 0.94146 0.0
C2532 C 0.60896 0.52673 0.94638 0.0
C2533 C 0.6276 0.51959 0.94791 0.0
C2534 C 0.62935 0.49922 0.9459 0.0
C2535 C 0.61267 0.48617 0.94275 0.0
C2536 C 0.64495 0.53336 0.95304 0.0
C2537 C 0.65615 0.52982 0.96959 0.0
C2538 C 0.64945 0.55072 0.94283 0.0
C2539 C 0.63915 0.55457 0.92438 0.0
C2540 C 0.63785 0.54041 0.90865 0.0
C2541 C 0.62801 0.54403 0.89137 0.0
C2542 C 0.6195 0.56182 0.88959 0.0
C2543 C 0.62085 0.57604 0.90508 0.0
C2544 C 0.63066 0.57249 0.9224 0.0
C2545 C 0.72585 0.58489 0.97954 0.0
C2546 C 0.72163 0.60406 0.98576 0.0
C2547 C 0.71076 0.5709 0.97343 0.0
C2548 C 0.69125 0.57587 0.97332 0.0
C2549 C 0.68695 0.59497 0.97944 0.0
C2550 C 0.70202 0.60893 0.98577 0.0
C2551 C 0.67529 0.5611 0.9668 0.0
C2552 C 0.66443 0.5645 0.95002 0.0
C2553 C 0.67124 0.5435 0.97663 0.0
C2554 C 0.68205 0.53933 0.99465 0.0
C2555 C 0.68254 0.55251 0.01117 0.0
C2556 C 0.69287 0.54853 0.02804 0.0
C2557 C 0.70267 0.53135 0.02862 0.0
C2558 C 0.70209 0.51808 0.01233 0.0
C2559 C 0.69179 0.52199 0.99542 0.0
H2560 H 0.71066 0.5283 0.04169 0.0
H2561 H 0.61188 0.5646 0.8762 0.0
H2562 H 0.28125 0.68228 0.24176 0.0
H2563 H 0.25956 0.65256 0.24505 0.0
H2564 H 0.20931 0.68492 0.23359 0.0
H2565 H 0.23083 0.71513 0.23173 0.0
H2566 H 0.20129 0.66268 0.2622 0.0
H2567 H 0.2282 0.65163 0.1987 0.0
H2568 H 0.25407 0.64938 0.17378 0.0
H2569 H 0.27811 0.60314 0.2043 0.0
H2570 H 0.25253 0.60529 0.22957 0.0
H2571 H 0.13628 0.57609 0.24831 0.0
H2572 H 0.15703 0.60551 0.24041 0.0
H2573 H 0.20734 0.58103 0.26512 0.0
H2574 H 0.18668 0.55158 0.27328 0.0
H2575 H 0.21393 0.59916 0.22788 0.0
H2576 H 0.18686 0.61249 0.29227 0.0
H2577 H 0.1598 0.61479 0.31588 0.0
H2578 H 0.13449 0.65718 0.28108 0.0
H2579 H 0.16128 0.6549 0.2571 0.0
C2580 C 0.26557 0.68319 0.24018 0.0
C2581 C 0.25781 0.70118 0.23656 0.0
C2582 C 0.25319 0.66607 0.24174 0.0
C2583 C 0.23281 0.6664 0.23921 0.0
C2584 C 0.225 0.68428 0.23549 0.0
C2585 C 0.23736 0.70151 0.23423 0.0
C2586 C 0.21963 0.64824 0.24127 0.0
C2587 C 0.20388 0.6489 0.25439 0.0
C2588 C 0.22314 0.63014 0.23133 0.0
C2589 C 0.23853 0.62874 0.21612 0.0
C2590 C 0.23908 0.64108 0.20018 0.0
C2591 C 0.25368 0.6398 0.18598 0.0
C2592 C 0.26775 0.62615 0.18748 0.0
C2593 C 0.26721 0.61371 0.20317 0.0
C2594 C 0.25265 0.61494 0.21742 0.0
C2595 C 0.15179 0.57687 0.25193 0.0
C2596 C 0.15983 0.56156 0.26153 0.0
C2597 C 0.16359 0.5937 0.24743 0.0
C2598 C 0.18363 0.59541 0.2523 0.0
C2599 C 0.19187 0.57991 0.26127 0.0
C2600 C 0.18004 0.56317 0.26599 0.0
C2601 C 0.19585 0.61374 0.24881 0.0
C2602 C 0.21135 0.61305 0.23547 0.0
C2603 C 0.19196 0.63188 0.2583 0.0
C2604 C 0.17595 0.63336 0.27279 0.0
C2605 C 0.17543 0.62217 0.28957 0.0
C2606 C 0.16016 0.6235 0.30303 0.0
C2607 C 0.1454 0.63608 0.29995 0.0
C2608 C 0.14591 0.64741 0.28343 0.0
C2609 C 0.16114 0.64612 0.2699 0.0
H2610 H 0.13359 0.63709 0.31039 0.0
H2611 H 0.27905 0.62519 0.17647 0.0
H2612 H 0.92925 0.50547 0.08093 0.0
H2613 H 0.91036 0.533 0.07304 0.0
H2614 H 0.86598 0.49265 0.04488 0.0
H2615 H 0.88408 0.4648 0.0537 0.0
H2616 H 0.89123 0.53054 0.024 0.0
H2617 H 0.84661 0.50646 0.07619 0.0
H2618 H 0.84057 0.49731 0.11028 0.0
H2619 H 0.8647 0.55455 0.13144 0.0
H2620 H 0.87116 0.5639 0.09745 0.0
H2621 H 0.81549 0.58182 0.98944 0.0
H2622 H 0.83641 0.55877 0.00316 0.0
H2623 H 0.84865 0.59875 0.0535 0.0
H2624 H 0.82656 0.62159 0.04018 0.0
H2625 H 0.84327 0.56396 0.06563 0.0
H2626 H 0.88363 0.59089 0.0157 0.0
H2627 H 0.89258 0.60198 0.98285 0.0
H2628 H 0.88129 0.54287 0.95858 0.0
H2629 H 0.87202 0.53145 0.99124 0.0
C2630 C 0.91519 0.5023 0.0736 0.0
C2631 C 0.90821 0.48281 0.06799 0.0
C2632 C 0.90452 0.51811 0.06898 0.0
C2633 C 0.88683 0.51474 0.0585 0.0
C2634 C 0.87962 0.49542 0.05307 0.0
C2635 C 0.89008 0.47957 0.05798 0.0
C2636 C 0.87662 0.53146 0.05181 0.0
C2637 C 0.88059 0.5378 0.03295 0.0
C2638 C 0.86356 0.54139 0.06396 0.0
C2639 C 0.85962 0.53576 0.08433 0.0
C2640 C 0.85085 0.51699 0.08812 0.0
C2641 C 0.84729 0.5118 0.10742 0.0
C2642 C 0.85232 0.52531 0.12302 0.0
C2643 C 0.86086 0.54408 0.11935 0.0
C2644 C 0.86446 0.54933 0.10008 0.0
C2645 C 0.82278 0.58585 0.00334 0.0
C2646 C 0.81955 0.6036 0.01366 0.0
C2647 C 0.83487 0.57267 0.01115 0.0
C2648 C 0.84457 0.57718 0.02916 0.0
C2649 C 0.84143 0.59498 0.03951 0.0
C2650 C 0.8289 0.60805 0.03188 0.0
C2651 C 0.85726 0.5628 0.03732 0.0
C2652 C 0.85397 0.55693 0.05657 0.0
C2653 C 0.87134 0.55356 0.02562 0.0
C2654 C 0.87702 0.56034 0.00593 0.0
C2655 C 0.88294 0.58027 0.00334 0.0
C2656 C 0.88809 0.58662 0.98475 0.0
C2657 C 0.88747 0.57315 0.96863 0.0
C2658 C 0.88176 0.55329 0.97108 0.0
C2659 C 0.87659 0.54686 0.98964 0.0
H2660 H 0.89145 0.57809 0.95425 0.0
H2661 H 0.84954 0.52127 0.13795 0.0
H2662 H 0.07371 0.06019 0.10203 0.0
H2663 H 0.09402 0.03257 0.0964 0.0
H2664 H 0.13693 0.07023 0.06692 0.0
H2665 H 0.11732 0.09825 0.07334 0.0
H2666 H 0.11961 0.0335 0.04536 0.0
H2667 H 0.15052 0.0578 0.10709 0.0
H2668 H 0.15013 0.06735 0.14237 0.0
H2669 H 0.12612 0.00922 0.15492 0.0
H2670 H 0.1261 0.9994 0.11964 0.0
H2671 H 0.19822 0.97911 0.02241 0.0
H2672 H 0.17717 0.00384 0.03495 0.0
H2673 H 0.15257 0.96354 0.0769 0.0
H2674 H 0.17461 0.93884 0.06491 0.0
H2675 H 0.15701 0.99883 0.09357 0.0
H2676 H 0.12713 0.97288 0.03405 0.0
H2677 H 0.12503 0.96182 0.99913 0.0
H2678 H 0.14291 0.02047 0.98256 0.0
H2679 H 0.14539 0.03184 0.0174 0.0
C2680 C 0.08773 0.06282 0.09487 0.0
C2681 C 0.09383 0.08151 0.08807 0.0
C2682 C 0.09924 0.04694 0.09156 0.0
C2683 C 0.11688 0.04943 0.08123 0.0
C2684 C 0.12328 0.06808 0.07488 0.0
C2685 C 0.11198 0.08402 0.07845 0.0
C2686 C 0.12796 0.03232 0.07564 0.0
C2687 C 0.12797 0.02601 0.05582 0.0
C2688 C 0.13799 0.02206 0.08952 0.0
C2689 C 0.13808 0.02795 0.11071 0.0
C2690 C 0.14496 0.04712 0.11734 0.0
C2691 C 0.14487 0.05256 0.13735 0.0
C2692 C 0.13805 0.03892 0.15087 0.0
C2693 C 0.13137 0.01978 0.14442 0.0
C2694 C 0.13142 0.01427 0.12443 0.0
C2695 C 0.18831 0.97545 0.03428 0.0
C2696 C 0.18784 0.95695 0.04251 0.0
C2697 C 0.1762 0.98959 0.0414 0.0
C2698 C 0.16285 0.98539 0.0565 0.0
C2699 C 0.16263 0.96706 0.06512 0.0
C2700 C 0.17515 0.95296 0.05823 0.0
C2701 C 0.14924 0.0003 0.06305 0.0
C2702 C 0.14857 0.00615 0.08305 0.0
C2703 C 0.13816 0.00991 0.04937 0.0
C2704 C 0.13657 0.00318 0.02836 0.0
C2705 C 0.13073 0.9834 0.02297 0.0
C2706 C 0.12946 0.97707 0.00319 0.0
C2707 C 0.13386 0.99042 0.98864 0.0
C2708 C 0.13951 0.01014 0.99385 0.0
C2709 C 0.14082 0.01654 0.01361 0.0
H2710 H 0.13287 0.9855 0.97333 0.0
H2711 H 0.13799 0.04316 0.16635 0.0
loop_
_geom_bond_atom_site_label_1
_geom_bond_atom_site_label_2
_geom_bond_distance
_geom_bond_site_symmetry_2
_ccdc_geom_bond_type
H0 C3 0.931 . S
H1 C6 0.928 . S
H2 C8 0.930 . S
C3 H0 0.931 . S
C3 C4 1.413 . S
C3 C5 1.360 . S
C4 C3 1.413 . S
C4 C8 1.429 . S
C5 C3 1.360 . S
C5 C6 1.372 . S
C6 H1 0.928 . S
C6 C5 1.372 . S
C6 C7 1.404 . S
C7 C6 1.404 . S
C7 C8 1.391 . S
C8 H2 0.930 . S
C8 C4 1.429 . S
C8 C7 1.391 . S
H9 C12 0.931 . S
H10 C15 0.928 . S
H11 C17 0.930 . S
C12 H9 0.931 . S
C12 C13 1.413 . S
C12 C14 1.360 . S
C13 C12 1.413 . S
C13 C17 1.429 . S
C14 C12 1.360 . S
C14 C15 1.372 . S
C15 H10 0.928 . S
C15 C14 1.372 . S
C15 C16 1.404 . S
C16 C15 1.404 . S
C16 C17 1.391 . S
C17 H11 0.930 . S
C17 C13 1.429 . S
C17 C16 1.391 . S
H18 C21 0.931 . S
H19 C24 0.928 . S
H20 C26 0.930 . S
C21 H18 0.931 . S
C21 C22 1.413 . S
C21 C23 1.360 . S
C22 C21 1.413 . S
C22 C26 1.429 . S
C23 C21 1.360 . S
C23 C24 1.372 . S
C24 H19 0.928 . S
C24 C23 1.372 . S
C24 C25 1.404 . S
C25 C24 1.404 . S
C25 C26 1.391 . S
C26 H20 0.930 . S
C26 C22 1.429 . S
C26 C25 1.391 . S
H27 C30 0.931 . S
H28 C33 0.928 . S
H29 C35 0.930 . S
C30 H27 0.931 . S
C30 C31 1.413 . S
C30 C32 1.360 . S
C31 C30 1.413 . S
C31 C35 1.429 . S
C32 C30 1.360 . S
C32 C33 1.372 . S
C33 H28 0.928 . S
C33 C32 1.372 . S
C33 C34 1.404 . S
C34 C33 1.404 . S
C34 C35 1.391 . S
C35 H29 0.930 . S
C35 C31 1.429 . S
C35 C34 1.391 . S
H36 C39 0.931 . S
H37 C42 0.928 . S
H38 C44 0.930 . S
C39 H36 0.931 . S
C39 C40 1.413 . S
C39 C41 1.360 . S
C40 C39 1.413 . S
C40 C44 1.429 . S
C41 C39 1.360 . S
C41 C42 1.372 . S
C42 H37 0.928 . S
C42 C41 1.372 . S
C42 C43 1.404 . S
C43 C42 1.404 . S
C43 C44 1.391 . S
C44 H38 0.930 . S
C44 C40 1.429 . S
C44 C43 1.391 . S
H45 C48 0.931 . S
H46 C51 0.928 . S
H47 C53 0.930 . S
C48 H45 0.931 . S
C48 C49 1.413 . S
C48 C50 1.360 . S
C49 C48 1.413 . S
C49 C53 1.429 . S
C50 C48 1.360 . S
C50 C51 1.372 . S
C51 H46 0.928 . S
C51 C50 1.372 . S
C51 C52 1.404 . S
C52 C51 1.404 . S
C52 C53 1.391 . S
C53 H47 0.930 . S
C53 C49 1.429 . S
C53 C52 1.391 . S
H54 C57 0.931 . S
H55 C60 0.928 . S
H56 C62 0.930 . S
C57 H54 0.931 . S
C57 C58 1.413 . S
C57 C59 1.360 . S
C58 C57 1.413 . S
C58 C62 1.429 . S
C59 C57 1.360 . S
C59 C60 1.372 . S
C60 H55 0.928 . S
C60 C59 1.372 . S
C60 C61 1.404 . S
C61 C60 1.404 . S
C61 C62 1.391 . S
C62 H56 0.930 . S
C62 C58 1.429 . S
C62 C61 1.391 . S
H63 C66 0.931 . S
H64 C69 0.928 . S
H65 C71 0.930 . S
C66 H63 0.931 . S
C66 C67 1.413 . S
C66 C68 1.360 . S
C67 C66 1.413 . S
C67 C71 1.429 . S
C68 C66 1.360 . S
C68 C69 1.372 . S
C69 H64 0.928 . S
C69 C68 1.372 . S
C69 C70 1.404 . S
C70 C69 1.404 . S
C70 C71 1.391 . S
C71 H65 0.930 . S
C71 C67 1.429 . S
C71 C70 1.391 . S
H72 C75 0.931 . S
H73 C78 0.928 . S
H74 C80 0.930 . S
C75 H72 0.931 . S
C75 C76 1.413 . S
C75 C77 1.360 . S
C76 C75 1.413 . S
C76 C80 1.429 . S
C77 C75 1.360 . S
C77 C78 1.372 . S
C78 H73 0.928 . S
C78 C77 1.372 . S
C78 C79 1.404 . S
C79 C78 1.404 . S
C79 C80 1.391 . S
C80 H74 0.930 . S
C80 C76 1.429 . S
C80 C79 1.391 . S
H81 C84 0.931 . S
H82 C87 0.928 . S
H83 C89 0.930 . S
C84 H81 0.931 . S
C84 C85 1.413 . S
C84 C86 1.360 . S
C85 C84 1.413 . S
C85 C89 1.429 . S
C86 C84 1.360 . S
C86 C87 1.372 . S
C87 H82 0.928 . S
C87 C86 1.372 . S
C87 C88 1.404 . S
C88 C87 1.404 . S
C88 C89 1.391 . S
C89 H83 0.930 . S
C89 C85 1.429 . S
C89 C88 1.391 . S
H90 C93 0.931 . S
H91 C96 0.928 . S
H92 C98 0.930 . S
C93 H90 0.931 . S
C93 C94 1.413 . S
C93 C95 1.360 . S
C94 C93 1.413 . S
C94 C98 1.429 . S
C95 C93 1.360 . S
C95 C96 1.372 . S
C96 H91 0.928 . S
C96 C95 1.372 . S
C96 C97 1.404 . S
C97 C96 1.404 . S
C97 C98 1.391 . S
C98 H92 0.930 . S
C98 C94 1.429 . S
C98 C97 1.391 . S
H99 C102 0.931 . S
H100 C105 0.928 . S
H101 C107 0.930 . S
C102 H99 0.931 . S
C102 C103 1.413 . S
C102 C104 1.360 . S
C103 C102 1.413 . S
C103 C107 1.429 . S
C104 C102 1.360 . S
C104 C105 1.372 . S
C105 H100 0.928 . S
C105 C104 1.372 . S
C105 C106 1.404 . S
C106 C105 1.404 . S
C106 C107 1.391 . S
C107 H101 0.930 . S
C107 C103 1.429 . S
C107 C106 1.391 . S
H108 C111 0.931 . S
H109 C114 0.928 . S
H110 C116 0.930 . S
C111 H108 0.931 . S
C111 C112 1.413 . S
C111 C113 1.360 . S
C112 C111 1.413 . S
C112 C116 1.429 . S
C113 C111 1.360 . S
C113 C114 1.372 . S
C114 H109 0.928 . S
C114 C113 1.372 . S
C114 C115 1.404 . S
C115 C114 1.404 . S
C115 C116 1.391 . S
C116 H110 0.930 . S
C116 C112 1.429 . S
C116 C115 1.391 . S
H117 C120 0.931 . S
H118 C123 0.928 . S
H119 C125 0.930 . S
C120 H117 0.931 . S
C120 C121 1.413 . S
C120 C122 1.360 . S
C121 C120 1.413 . S
C121 C125 1.429 . S
C122 C120 1.360 . S
C122 C123 1.372 . S
C123 H118 0.928 . S
C123 C122 1.372 . S
C123 C124 1.404 . S
C124 C123 1.404 . S
C124 C125 1.391 . S
C125 H119 0.930 . S
C125 C121 1.429 . S
C125 C124 1.391 . S
H126 C129 0.931 . S
H127 C132 0.928 . S
H128 C134 0.930 . S
C129 H126 0.931 . S
C129 C130 1.413 . S
C129 C131 1.360 . S
C130 C129 1.413 . S
C130 C134 1.429 . S
C131 C129 1.360 . S
C131 C132 1.372 . S
C132 H127 0.928 . S
C132 C131 1.372 . S
C132 C133 1.404 . S
C133 C132 1.404 . S
C133 C134 1.391 . S
C134 H128 0.930 . S
C134 C130 1.429 . S
C134 C133 1.391 . S
H135 C138 0.931 . S
H136 C141 0.928 . S
H137 C143 0.930 . S
C138 H135 0.931 . S
C138 C139 1.413 . S
C138 C140 1.360 . S
C139 C138 1.413 . S
C139 C143 1.429 . S
C140 C138 1.360 . S
C140 C141 1.372 . S
C141 H136 0.928 . S
C141 C140 1.372 . S
C141 C142 1.404 . S
C142 C141 1.404 . S
C142 C143 1.391 . S
C143 H137 0.930 . S
C143 C139 1.429 . S
C143 C142 1.391 . S
O144 Cd145 2.223 . S
O144 C152 1.315 . S
Cd145 O144 2.223 . S
Cd145 O148 2.297 . S
Cd145 O149 2.439 . S
Cd145 O155 2.240 . S
Cd146 O147 2.240 . S
Cd146 O154 2.223 . S
Cd146 O156 2.297 . S
Cd146 O157 2.439 . S
O147 Cd146 2.240 . S
O147 C152 1.279 . S
O148 Cd145 2.297 . S
O148 C150 1.247 . S
O149 Cd145 2.439 . S
O149 C150 1.208 . S
C150 O148 1.247 . S
C150 O149 1.208 . S
C151 O156 1.247 . S
C151 O157 1.208 . S
C152 O144 1.315 . S
C152 O147 1.279 . S
C153 O154 1.315 . S
C153 O155 1.279 . S
O154 Cd146 2.223 . S
O154 C153 1.315 . S
O155 Cd145 2.240 . S
O155 C153 1.279 . S
O156 Cd146 2.297 . S
O156 C151 1.247 . S
O157 Cd146 2.439 . S
O157 C151 1.208 . S
O158 Cd159 2.223 . S
O158 C166 1.315 . S
Cd159 O158 2.223 . S
Cd159 O162 2.297 . S
Cd159 O163 2.439 . S
Cd159 O169 2.240 . S
Cd160 O161 2.240 . S
Cd160 O168 2.223 . S
Cd160 O170 2.297 . S
Cd160 O171 2.439 . S
O161 Cd160 2.240 . S
O161 C166 1.279 . S
O162 Cd159 2.297 . S
O162 C164 1.247 . S
O163 Cd159 2.439 . S
O163 C164 1.208 . S
C164 O162 1.247 . S
C164 O163 1.208 . S
C165 O170 1.247 . S
C165 O171 1.208 . S
C166 O158 1.315 . S
C166 O161 1.279 . S
C167 O168 1.315 . S
C167 O169 1.279 . S
O168 Cd160 2.223 . S
O168 C167 1.315 . S
O169 Cd159 2.240 . S
O169 C167 1.279 . S
O170 Cd160 2.297 . S
O170 C165 1.247 . S
O171 Cd160 2.439 . S
O171 C165 1.208 . S
O172 Cd173 2.223 1_556 S
O172 C180 1.315 . S
Cd173 O172 2.223 1_554 S
Cd173 O176 2.297 . S
Cd173 O177 2.439 . S
Cd173 O183 2.240 . S
Cd174 O175 2.240 . S
Cd174 O182 2.223 . S
Cd174 O184 2.297 1_556 S
Cd174 O185 2.439 1_556 S
O175 Cd174 2.240 . S
O175 C180 1.279 . S
O176 Cd173 2.297 . S
O176 C178 1.247 . S
O177 Cd173 2.439 . S
O177 C178 1.208 . S
C178 O176 1.247 . S
C178 O177 1.208 . S
C179 O184 1.247 . S
C179 O185 1.208 . S
C180 O172 1.315 . S
C180 O175 1.279 . S
C181 O182 1.315 . S
C181 O183 1.279 1_556 S
O182 Cd174 2.223 . S
O182 C181 1.315 . S
O183 Cd173 2.240 . S
O183 C181 1.279 1_554 S
O184 Cd174 2.297 1_554 S
O184 C179 1.247 . S
O185 Cd174 2.439 1_554 S
O185 C179 1.208 . S
O186 Cd187 2.223 . S
O186 C194 1.315 . S
Cd187 O186 2.223 . S
Cd187 O190 2.297 . S
Cd187 O191 2.439 . S
Cd187 O197 2.240 . S
Cd188 O189 2.240 . S
Cd188 O196 2.223 . S
Cd188 O198 2.297 . S
Cd188 O199 2.439 . S
O189 Cd188 2.240 . S
O189 C194 1.279 . S
O190 Cd187 2.297 . S
O190 C192 1.247 . S
O191 Cd187 2.439 . S
O191 C192 1.208 . S
C192 O190 1.247 . S
C192 O191 1.208 . S
C193 O198 1.247 . S
C193 O199 1.208 . S
C194 O186 1.315 . S
C194 O189 1.279 . S
C195 O196 1.315 . S
C195 O197 1.279 . S
O196 Cd188 2.223 . S
O196 C195 1.315 . S
O197 Cd187 2.240 . S
O197 C195 1.279 . S
O198 Cd188 2.297 . S
O198 C193 1.247 . S
O199 Cd188 2.439 . S
O199 C193 1.208 . S
O200 Cd201 2.223 . S
O200 C208 1.315 . S
Cd201 O200 2.223 . S
Cd201 O204 2.297 . S
Cd201 O205 2.439 . S
Cd201 O211 2.240 . S
Cd202 O203 2.240 . S
Cd202 O210 2.223 . S
Cd202 O212 2.297 . S
Cd202 O213 2.439 . S
O203 Cd202 2.240 . S
O203 C208 1.279 . S
O204 Cd201 2.297 . S
O204 C206 1.247 . S
O205 Cd201 2.439 . S
O205 C206 1.208 . S
C206 O204 1.247 . S
C206 O205 1.208 . S
C207 O212 1.247 . S
C207 O213 1.208 . S
C208 O200 1.315 . S
C208 O203 1.279 . S
C209 O210 1.315 . S
C209 O211 1.279 . S
O210 Cd202 2.223 . S
O210 C209 1.315 . S
O211 Cd201 2.240 . S
O211 C209 1.279 . S
O212 Cd202 2.297 . S
O212 C207 1.247 . S
O213 Cd202 2.439 . S
O213 C207 1.208 . S
O214 Cd215 2.223 . S
O214 C222 1.315 . S
Cd215 O214 2.223 . S
Cd215 O218 2.297 . S
Cd215 O219 2.439 . S
Cd215 O225 2.240 . S
Cd216 O217 2.240 . S
Cd216 O224 2.223 . S
Cd216 O226 2.297 . S
Cd216 O227 2.439 . S
O217 Cd216 2.240 . S
O217 C222 1.279 . S
O218 Cd215 2.297 . S
O218 C220 1.247 . S
O219 Cd215 2.439 . S
O219 C220 1.208 . S
C220 O218 1.247 . S
C220 O219 1.208 . S
C221 O226 1.247 . S
C221 O227 1.208 . S
C222 O214 1.315 . S
C222 O217 1.279 . S
C223 O224 1.315 . S
C223 O225 1.279 . S
O224 Cd216 2.223 . S
O224 C223 1.315 . S
O225 Cd215 2.240 . S
O225 C223 1.279 . S
O226 Cd216 2.297 . S
O226 C221 1.247 . S
O227 Cd216 2.439 . S
O227 C221 1.208 . S
O228 Cd229 2.223 . S
O228 C236 1.315 . S
Cd229 O228 2.223 . S
Cd229 O232 2.297 . S
Cd229 O233 2.439 . S
Cd229 O239 2.240 . S
Cd230 O231 2.240 . S
Cd230 O238 2.223 . S
Cd230 O240 2.297 . S
Cd230 O241 2.439 . S
O231 Cd230 2.240 . S
O231 C236 1.279 . S
O232 Cd229 2.297 . S
O232 C234 1.247 . S
O233 Cd229 2.439 . S
O233 C234 1.208 . S
C234 O232 1.247 . S
C234 O233 1.208 . S
C235 O240 1.247 . S
C235 O241 1.208 . S
C236 O228 1.315 . S
C236 O231 1.279 . S
C237 O238 1.315 . S
C237 O239 1.279 . S
O238 Cd230 2.223 . S
O238 C237 1.315 . S
O239 Cd229 2.240 . S
O239 C237 1.279 . S
O240 Cd230 2.297 . S
O240 C235 1.247 . S
O241 Cd230 2.439 . S
O241 C235 1.208 . S
O242 Cd243 2.223 1_545 S
O242 C250 1.315 . S
Cd243 O242 2.223 1_565 S
Cd243 O246 2.297 . S
Cd243 O247 2.439 . S
Cd243 O253 2.240 1_565 S
Cd244 O245 2.240 . S
Cd244 O252 2.223 . S
Cd244 O254 2.297 . S
Cd244 O255 2.439 1_545 S
O245 Cd244 2.240 . S
O245 C250 1.279 . S
O246 Cd243 2.297 . S
O246 C248 1.247 . S
O247 Cd243 2.439 . S
O247 C248 1.208 . S
C248 O246 1.247 . S
C248 O247 1.208 . S
C249 O254 1.247 1_565 S
C249 O255 1.208 . S
C250 O242 1.315 . S
C250 O245 1.279 . S
C251 O252 1.315 . S
C251 O253 1.279 . S
O252 Cd244 2.223 . S
O252 C251 1.315 . S
O253 Cd243 2.240 1_545 S
O253 C251 1.279 . S
O254 Cd244 2.297 . S
O254 C249 1.247 1_545 S
O255 Cd244 2.439 1_565 S
O255 C249 1.208 . S
O256 Cd257 2.223 . S
O256 C264 1.315 . S
Cd257 O256 2.223 . S
Cd257 O260 2.297 1_655 S
Cd257 O261 2.439 1_655 S
Cd257 O267 2.240 . S
Cd258 O259 2.240 . S
Cd258 O266 2.223 1_455 S
Cd258 O268 2.297 . S
Cd258 O269 2.439 . S
O259 Cd258 2.240 . S
O259 C264 1.279 1_455 S
O260 Cd257 2.297 1_455 S
O260 C262 1.247 . S
O261 Cd257 2.439 1_455 S
O261 C262 1.208 . S
C262 O260 1.247 . S
C262 O261 1.208 . S
C263 O268 1.247 . S
C263 O269 1.208 . S
C264 O256 1.315 . S
C264 O259 1.279 1_655 S
C265 O266 1.315 . S
C265 O267 1.279 . S
O266 Cd258 2.223 1_655 S
O266 C265 1.315 . S
O267 Cd257 2.240 . S
O267 C265 1.279 . S
O268 Cd258 2.297 . S
O268 C263 1.247 . S
O269 Cd258 2.439 . S
O269 C263 1.208 . S
O270 Cd271 2.223 . S
O270 C278 1.315 . S
Cd271 O270 2.223 . S
Cd271 O274 2.297 . S
Cd271 O275 2.439 . S
Cd271 O281 2.240 . S
Cd272 O273 2.240 . S
Cd272 O280 2.223 . S
Cd272 O282 2.297 . S
Cd272 O283 2.439 . S
O273 Cd272 2.240 . S
O273 C278 1.279 . S
O274 Cd271 2.297 . S
O274 C276 1.247 . S
O275 Cd271 2.439 . S
O275 C276 1.208 . S
C276 O274 1.247 . S
C276 O275 1.208 . S
C277 O282 1.247 . S
C277 O283 1.208 . S
C278 O270 1.315 . S
C278 O273 1.279 . S
C279 O280 1.315 . S
C279 O281 1.279 . S
O280 Cd272 2.223 . S
O280 C279 1.315 . S
O281 Cd271 2.240 . S
O281 C279 1.279 . S
O282 Cd272 2.297 . S
O282 C277 1.247 . S
O283 Cd272 2.439 . S
O283 C277 1.208 . S
O284 Cd285 2.223 1_655 S
O284 C292 1.315 . S
Cd285 O284 2.223 1_455 S
Cd285 O288 2.297 . S
Cd285 O289 2.439 . S
Cd285 O295 2.240 . S
Cd286 O287 2.240 . S
Cd286 O294 2.223 . S
Cd286 O296 2.297 1_655 S
Cd286 O297 2.439 1_655 S
O287 Cd286 2.240 . S
O287 C292 1.279 . S
O288 Cd285 2.297 . S
O288 C290 1.247 . S
O289 Cd285 2.439 . S
O289 C290 1.208 . S
C290 O288 1.247 . S
C290 O289 1.208 . S
C291 O296 1.247 . S
C291 O297 1.208 . S
C292 O284 1.315 . S
C292 O287 1.279 . S
C293 O294 1.315 . S
C293 O295 1.279 1_655 S
O294 Cd286 2.223 . S
O294 C293 1.315 . S
O295 Cd285 2.240 . S
O295 C293 1.279 1_455 S
O296 Cd286 2.297 1_455 S
O296 C291 1.247 . S
O297 Cd286 2.439 1_455 S
O297 C291 1.208 . S
O298 Cd299 2.223 . S
O298 C306 1.315 . S
Cd299 O298 2.223 . S
Cd299 O302 2.297 . S
Cd299 O303 2.439 . S
Cd299 O309 2.240 . S
Cd300 O301 2.240 . S
Cd300 O308 2.223 . S
Cd300 O310 2.297 . S
Cd300 O311 2.439 . S
O301 Cd300 2.240 . S
O301 C306 1.279 . S
O302 Cd299 2.297 . S
O302 C304 1.247 . S
O303 Cd299 2.439 . S
O303 C304 1.208 . S
C304 O302 1.247 . S
C304 O303 1.208 . S
C305 O310 1.247 . S
C305 O311 1.208 . S
C306 O298 1.315 . S
C306 O301 1.279 . S
C307 O308 1.315 . S
C307 O309 1.279 . S
O308 Cd300 2.223 . S
O308 C307 1.315 . S
O309 Cd299 2.240 . S
O309 C307 1.279 . S
O310 Cd300 2.297 . S
O310 C305 1.247 . S
O311 Cd300 2.439 . S
O311 C305 1.208 . S
H312 C330 0.951 . S
H313 C332 0.951 . S
H314 C334 0.950 . S
H315 C335 0.950 . S
H316 C337 0.950 . S
H317 C340 0.950 . S
H318 C341 0.950 . S
H319 C343 0.950 . S
H320 C344 0.950 . S
H321 C345 0.951 . S
H322 C347 0.951 . S
H323 C349 0.950 . S
H324 C350 0.950 1_554 S
H325 C352 0.950 . S
H326 C355 0.950 . S
H327 C356 0.950 . S
H328 C358 0.950 . S
H329 C359 0.950 . S
C330 H312 0.951 . S
C330 C331 1.366 . S
C330 C332 1.388 . S
C331 C330 1.366 . S
C331 C335 1.385 . S
C332 H313 0.951 . S
C332 C330 1.388 . S
C332 C333 1.366 . S
C333 C332 1.366 . S
C333 C334 1.414 . S
C333 C336 1.499 . S
C334 H314 0.950 . S
C334 C333 1.414 . S
C334 C335 1.374 . S
C335 H315 0.950 . S
C335 C331 1.385 . S
C335 C334 1.374 . S
C336 C333 1.499 . S
C336 C337 1.373 . S
C336 C338 1.389 . S
C337 H316 0.950 . S
C337 C336 1.373 . S
C337 C353 1.377 . S
C338 C336 1.389 . S
C338 C339 1.524 . S
C338 C352 1.377 . S
C339 C338 1.524 . S
C339 C340 1.397 . S
C339 C344 1.363 . S
C340 H317 0.950 . S
C340 C339 1.397 . S
C340 C341 1.334 . S
C341 H318 0.950 . S
C341 C340 1.334 . S
C341 C342 1.287 . S
C342 C341 1.287 . S
C342 C343 1.524 . S
C342 H361 0.913 . S
C343 H319 0.950 . S
C343 C342 1.524 . S
C343 C344 1.415 . S
C344 H320 0.950 . S
C344 C339 1.363 . S
C344 C343 1.415 . S
C345 H321 0.951 . S
C345 C346 1.366 . S
C345 C347 1.388 . S
C346 C345 1.366 . S
C346 C350 1.385 . S
C347 H322 0.951 . S
C347 C345 1.388 . S
C347 C348 1.366 . S
C348 C347 1.366 . S
C348 C349 1.414 . S
C348 C351 1.499 . S
C349 H323 0.950 . S
C349 C348 1.414 . S
C349 C350 1.374 . S
C350 H324 0.950 1_556 S
C350 C346 1.385 . S
C350 C349 1.374 . S
C351 C348 1.499 . S
C351 C352 1.373 . S
C351 C353 1.389 . S
C352 H325 0.950 . S
C352 C338 1.377 . S
C352 C351 1.373 . S
C353 C337 1.377 . S
C353 C351 1.389 . S
C353 C354 1.524 . S
C354 C353 1.524 . S
C354 C355 1.397 . S
C354 C359 1.363 . S
C355 H326 0.950 . S
C355 C354 1.397 . S
C355 C356 1.334 . S
C356 H327 0.950 . S
C356 C355 1.334 . S
C356 C357 1.287 . S
C357 C356 1.287 . S
C357 C358 1.524 . S
C357 H360 0.999 . S
C358 H328 0.950 . S
C358 C357 1.524 . S
C358 C359 1.415 . S
C359 H329 0.950 . S
C359 C354 1.363 . S
C359 C358 1.415 . S
H360 C357 0.999 . S
H361 C342 0.913 . S
H362 C380 0.951 . S
H363 C382 0.951 . S
H364 C384 0.950 . S
H365 C385 0.950 . S
H366 C387 0.950 . S
H367 C390 0.950 . S
H368 C391 0.950 . S
H369 C393 0.950 . S
H370 C394 0.950 . S
H371 C395 0.951 . S
H372 C397 0.951 . S
H373 C399 0.950 . S
H374 C400 0.950 . S
H375 C402 0.950 . S
H376 C405 0.950 . S
H377 C406 0.950 . S
H378 C408 0.950 . S
H379 C409 0.950 . S
C380 H362 0.951 . S
C380 C381 1.366 . S
C380 C382 1.388 . S
C381 C380 1.366 . S
C381 C385 1.385 . S
C382 H363 0.951 . S
C382 C380 1.388 . S
C382 C383 1.366 . S
C383 C382 1.366 . S
C383 C384 1.414 . S
C383 C386 1.499 . S
C384 H364 0.950 . S
C384 C383 1.414 . S
C384 C385 1.374 . S
C385 H365 0.950 . S
C385 C381 1.385 . S
C385 C384 1.374 . S
C386 C383 1.499 . S
C386 C387 1.373 . S
C386 C388 1.389 1_655 S
C387 H366 0.950 . S
C387 C386 1.373 . S
C387 C403 1.377 1_655 S
C388 C386 1.389 1_455 S
C388 C389 1.524 . S
C388 C402 1.377 . S
C389 C388 1.524 . S
C389 C390 1.397 1_455 S
C389 C394 1.363 . S
C390 H367 0.950 . S
C390 C389 1.397 1_655 S
C390 C391 1.334 . S
C391 H368 0.950 . S
C391 C390 1.334 . S
C391 C392 1.287 1_655 S
C392 C391 1.287 1_455 S
C392 C393 1.524 . S
C392 H411 0.913 . S
C393 H369 0.950 . S
C393 C392 1.524 . S
C393 C394 1.415 . S
C394 H370 0.950 . S
C394 C389 1.363 . S
C394 C393 1.415 . S
C395 H371 0.951 . S
C395 C396 1.366 . S
C395 C397 1.388 . S
C396 C395 1.366 . S
C396 C400 1.385 . S
C397 H372 0.951 . S
C397 C395 1.388 . S
C397 C398 1.366 . S
C398 C397 1.366 . S
C398 C399 1.414 . S
C398 C401 1.499 . S
C399 H373 0.950 . S
C399 C398 1.414 . S
C399 C400 1.374 . S
C400 H374 0.950 . S
C400 C396 1.385 . S
C400 C399 1.374 . S
C401 C398 1.499 . S
C401 C402 1.373 . S
C401 C403 1.389 . S
C402 H375 0.950 . S
C402 C388 1.377 . S
C402 C401 1.373 . S
C403 C387 1.377 1_455 S
C403 C401 1.389 . S
C403 C404 1.524 . S
C404 C403 1.524 . S
C404 C405 1.397 . S
C404 C409 1.363 1_455 S
C405 H376 0.950 . S
C405 C404 1.397 . S
C405 C406 1.334 . S
C406 H377 0.950 . S
C406 C405 1.334 . S
C406 C407 1.287 . S
C407 C406 1.287 . S
C407 C408 1.524 1_455 S
C407 H410 0.999 . S
C408 H378 0.950 . S
C408 C407 1.524 1_655 S
C408 C409 1.415 . S
C409 H379 0.950 . S
C409 C404 1.363 1_655 S
C409 C408 1.415 . S
H410 C407 0.999 . S
H411 C392 0.913 . S
H412 C430 0.951 . S
H413 C432 0.951 . S
H414 C434 0.950 . S
H415 C435 0.950 . S
H416 C437 0.950 . S
H417 C440 0.950 . S
H418 C441 0.950 . S
H419 C443 0.950 . S
H420 C444 0.950 . S
H421 C445 0.951 . S
H422 C447 0.951 . S
H423 C449 0.950 . S
H424 C450 0.950 . S
H425 C452 0.950 . S
H426 C455 0.950 . S
H427 C456 0.950 . S
H428 C458 0.950 . S
H429 C459 0.950 . S
C430 H412 0.951 . S
C430 C431 1.366 . S
C430 C432 1.388 . S
C431 C430 1.366 . S
C431 C435 1.385 . S
C432 H413 0.951 . S
C432 C430 1.388 . S
C432 C433 1.366 . S
C433 C432 1.366 . S
C433 C434 1.414 . S
C433 C436 1.499 . S
C434 H414 0.950 . S
C434 C433 1.414 . S
C434 C435 1.374 . S
C435 H415 0.950 . S
C435 C431 1.385 . S
C435 C434 1.374 . S
C436 C433 1.499 . S
C436 C437 1.373 . S
C436 C438 1.389 . S
C437 H416 0.950 . S
C437 C436 1.373 . S
C437 C453 1.377 . S
C438 C436 1.389 . S
C438 C439 1.524 . S
C438 C452 1.377 . S
C439 C438 1.524 . S
C439 C440 1.397 . S
C439 C444 1.363 . S
C440 H417 0.950 . S
C440 C439 1.397 . S
C440 C441 1.334 . S
C441 H418 0.950 . S
C441 C440 1.334 . S
C441 C442 1.287 . S
C442 C441 1.287 . S
C442 C443 1.524 . S
C442 H461 0.913 . S
C443 H419 0.950 . S
C443 C442 1.524 . S
C443 C444 1.415 . S
C444 H420 0.950 . S
C444 C439 1.363 . S
C444 C443 1.415 . S
C445 H421 0.951 . S
C445 C446 1.366 . S
C445 C447 1.388 . S
C446 C445 1.366 . S
C446 C450 1.385 . S
C447 H422 0.951 . S
C447 C445 1.388 . S
C447 C448 1.366 . S
C448 C447 1.366 . S
C448 C449 1.414 . S
C448 C451 1.499 . S
C449 H423 0.950 . S
C449 C448 1.414 . S
C449 C450 1.374 . S
C450 H424 0.950 . S
C450 C446 1.385 . S
C450 C449 1.374 . S
C451 C448 1.499 . S
C451 C452 1.373 . S
C451 C453 1.389 . S
C452 H425 0.950 . S
C452 C438 1.377 . S
C452 C451 1.373 . S
C453 C437 1.377 . S
C453 C451 1.389 . S
C453 C454 1.524 . S
C454 C453 1.524 . S
C454 C455 1.397 . S
C454 C459 1.363 . S
C455 H426 0.950 . S
C455 C454 1.397 . S
C455 C456 1.334 . S
C456 H427 0.950 . S
C456 C455 1.334 . S
C456 C457 1.287 . S
C457 C456 1.287 . S
C457 C458 1.524 . S
C457 H460 0.999 . S
C458 H428 0.950 . S
C458 C457 1.524 . S
C458 C459 1.415 . S
C459 H429 0.950 . S
C459 C454 1.363 . S
C459 C458 1.415 . S
H460 C457 0.999 . S
H461 C442 0.913 . S
H462 C480 0.951 . S
H463 C482 0.951 1_545 S
H464 C484 0.950 . S
H465 C485 0.950 . S
H466 C487 0.950 1_455 S
H467 C490 0.950 . S
H468 C491 0.950 1_565 S
H469 C493 0.950 1_455 S
H470 C494 0.950 . S
H471 C495 0.951 1_565 S
H472 C497 0.951 . S
H473 C499 0.950 . S
H474 C500 0.950 . S
H475 C502 0.950 . S
H476 C505 0.950 1_545 S
H477 C506 0.950 . S
H478 C508 0.950 . S
H479 C509 0.950 . S
C480 H462 0.951 . S
C480 C481 1.366 . S
C480 C482 1.388 . S
C481 C480 1.366 . S
C481 C485 1.385 . S
C482 H463 0.951 1_565 S
C482 C480 1.388 . S
C482 C483 1.366 . S
C483 C482 1.366 . S
C483 C484 1.414 . S
C483 C486 1.499 . S
C484 H464 0.950 . S
C484 C483 1.414 . S
C484 C485 1.374 . S
C485 H465 0.950 . S
C485 C481 1.385 . S
C485 C484 1.374 . S
C486 C483 1.499 . S
C486 C487 1.373 1_455 S
C486 C488 1.389 1_465 S
C487 H466 0.950 1_655 S
C487 C486 1.373 1_655 S
C487 C503 1.377 . S
C488 C486 1.389 1_645 S
C488 C489 1.524 . S
C488 C502 1.377 . S
C489 C488 1.524 . S
C489 C490 1.397 1_545 S
C489 C494 1.363 . S
C490 H467 0.950 . S
C490 C489 1.397 1_565 S
C490 C491 1.334 1_565 S
C491 H468 0.950 1_545 S
C491 C490 1.334 1_545 S
C491 C492 1.287 . S
C492 C491 1.287 . S
C492 C493 1.524 . S
C492 H511 0.913 . S
C493 H469 0.950 1_655 S
C493 C492 1.524 . S
C493 C494 1.415 . S
C494 H470 0.950 . S
C494 C489 1.363 . S
C494 C493 1.415 . S
C495 H471 0.951 1_545 S
C495 C496 1.366 . S
C495 C497 1.388 1_545 S
C496 C495 1.366 . S
C496 C500 1.385 . S
C497 H472 0.951 . S
C497 C495 1.388 1_565 S
C497 C498 1.366 1_565 S
C498 C497 1.366 1_545 S
C498 C499 1.414 . S
C498 C501 1.499 . S
C499 H473 0.950 . S
C499 C498 1.414 . S
C499 C500 1.374 . S
C500 H474 0.950 . S
C500 C496 1.385 . S
C500 C499 1.374 . S
C501 C498 1.499 . S
C501 C502 1.373 . S
C501 C503 1.389 1_545 S
C502 H475 0.950 . S
C502 C488 1.377 . S
C502 C501 1.373 . S
C503 C487 1.377 . S
C503 C501 1.389 1_565 S
C503 C504 1.524 . S
C504 C503 1.524 . S
C504 C505 1.397 . S
C504 C509 1.363 . S
C505 H476 0.950 1_565 S
C505 C504 1.397 . S
C505 C506 1.334 . S
C506 H477 0.950 . S
C506 C505 1.334 . S
C506 C507 1.287 . S
C507 C506 1.287 . S
C507 C508 1.524 . S
C507 H510 0.999 . S
C508 H478 0.950 . S
C508 C507 1.524 . S
C508 C509 1.415 . S
C509 H479 0.950 . S
C509 C504 1.363 . S
C509 C508 1.415 . S
H510 C507 0.999 . S
H511 C492 0.913 . S
H512 C530 0.951 . S
H513 C532 0.951 . S
H514 C534 0.950 . S
H515 C535 0.950 . S
H516 C537 0.950 . S
H517 C540 0.950 . S
H518 C541 0.950 . S
H519 C543 0.950 . S
H520 C544 0.950 . S
H521 C545 0.951 . S
H522 C547 0.951 . S
H523 C549 0.950 . S
H524 C550 0.950 . S
H525 C552 0.950 . S
H526 C555 0.950 . S
H527 C556 0.950 . S
H528 C558 0.950 . S
H529 C559 0.950 . S
C530 H512 0.951 . S
C530 C531 1.366 . S
C530 C532 1.388 . S
C531 C530 1.366 . S
C531 C535 1.385 . S
C532 H513 0.951 . S
C532 C530 1.388 . S
C532 C533 1.366 . S
C533 C532 1.366 . S
C533 C534 1.414 . S
C533 C536 1.499 . S
C534 H514 0.950 . S
C534 C533 1.414 . S
C534 C535 1.374 . S
C535 H515 0.950 . S
C535 C531 1.385 . S
C535 C534 1.374 . S
C536 C533 1.499 . S
C536 C537 1.373 . S
C536 C538 1.389 . S
C537 H516 0.950 . S
C537 C536 1.373 . S
C537 C553 1.377 . S
C538 C536 1.389 . S
C538 C539 1.524 . S
C538 C552 1.377 . S
C539 C538 1.524 . S
C539 C540 1.397 . S
C539 C544 1.363 . S
C540 H517 0.950 . S
C540 C539 1.397 . S
C540 C541 1.334 . S
C541 H518 0.950 . S
C541 C540 1.334 . S
C541 C542 1.287 . S
C542 C541 1.287 . S
C542 C543 1.524 . S
C542 H561 0.913 . S
C543 H519 0.950 . S
C543 C542 1.524 . S
C543 C544 1.415 . S
C544 H520 0.950 . S
C544 C539 1.363 . S
C544 C543 1.415 . S
C545 H521 0.951 . S
C545 C546 1.366 . S
C545 C547 1.388 . S
C546 C545 1.366 . S
C546 C550 1.385 . S
C547 H522 0.951 . S
C547 C545 1.388 . S
C547 C548 1.366 . S
C548 C547 1.366 . S
C548 C549 1.414 . S
C548 C551 1.499 . S
C549 H523 0.950 . S
C549 C548 1.414 . S
C549 C550 1.374 . S
C550 H524 0.950 . S
C550 C546 1.385 . S
C550 C549 1.374 . S
C551 C548 1.499 . S
C551 C552 1.373 . S
C551 C553 1.389 . S
C552 H525 0.950 . S
C552 C538 1.377 . S
C552 C551 1.373 . S
C553 C537 1.377 . S
C553 C551 1.389 . S
C553 C554 1.524 . S
C554 C553 1.524 . S
C554 C555 1.397 . S
C554 C559 1.363 . S
C555 H526 0.950 . S
C555 C554 1.397 . S
C555 C556 1.334 . S
C556 H527 0.950 . S
C556 C555 1.334 . S
C556 C557 1.287 . S
C557 C556 1.287 . S
C557 C558 1.524 . S
C557 H560 0.999 . S
C558 H528 0.950 . S
C558 C557 1.524 . S
C558 C559 1.415 . S
C559 H529 0.950 . S
C559 C554 1.363 . S
C559 C558 1.415 . S
H560 C557 0.999 . S
H561 C542 0.913 . S
H562 C580 0.951 . S
H563 C582 0.951 . S
H564 C584 0.950 . S
H565 C585 0.950 . S
H566 C587 0.950 . S
H567 C590 0.950 . S
H568 C591 0.950 . S
H569 C593 0.950 . S
H570 C594 0.950 . S
H571 C595 0.951 . S
H572 C597 0.951 . S
H573 C599 0.950 . S
H574 C600 0.950 . S
H575 C602 0.950 . S
H576 C605 0.950 . S
H577 C606 0.950 . S
H578 C608 0.950 . S
H579 C609 0.950 . S
C580 H562 0.951 . S
C580 C581 1.366 . S
C580 C582 1.388 . S
C581 C580 1.366 . S
C581 C585 1.385 . S
C582 H563 0.951 . S
C582 C580 1.388 . S
C582 C583 1.366 . S
C583 C582 1.366 . S
C583 C584 1.414 . S
C583 C586 1.499 . S
C584 H564 0.950 . S
C584 C583 1.414 . S
C584 C585 1.374 . S
C585 H565 0.950 . S
C585 C581 1.385 . S
C585 C584 1.374 . S
C586 C583 1.499 . S
C586 C587 1.373 . S
C586 C588 1.389 . S
C587 H566 0.950 . S
C587 C586 1.373 . S
C587 C603 1.377 . S
C588 C586 1.389 . S
C588 C589 1.524 . S
C588 C602 1.377 . S
C589 C588 1.524 . S
C589 C590 1.397 . S
C589 C594 1.363 . S
C590 H567 0.950 . S
C590 C589 1.397 . S
C590 C591 1.334 . S
C591 H568 0.950 . S
C591 C590 1.334 . S
C591 C592 1.287 . S
C592 C591 1.287 . S
C592 C593 1.524 . S
C592 H611 0.913 . S
C593 H569 0.950 . S
C593 C592 1.524 . S
C593 C594 1.415 . S
C594 H570 0.950 . S
C594 C589 1.363 . S
C594 C593 1.415 . S
C595 H571 0.951 . S
C595 C596 1.366 . S
C595 C597 1.388 . S
C596 C595 1.366 . S
C596 C600 1.385 . S
C597 H572 0.951 . S
C597 C595 1.388 . S
C597 C598 1.366 . S
C598 C597 1.366 . S
C598 C599 1.414 . S
C598 C601 1.499 . S
C599 H573 0.950 . S
C599 C598 1.414 . S
C599 C600 1.374 . S
C600 H574 0.950 . S
C600 C596 1.385 . S
C600 C599 1.374 . S
C601 C598 1.499 . S
C601 C602 1.373 . S
C601 C603 1.389 . S
C602 H575 0.950 . S
C602 C588 1.377 . S
C602 C601 1.373 . S
C603 C587 1.377 . S
C603 C601 1.389 . S
C603 C604 1.524 . S
C604 C603 1.524 . S
C604 C605 1.397 . S
C604 C609 1.363 . S
C605 H576 0.950 . S
C605 C604 1.397 . S
C605 C606 1.334 . S
C606 H577 0.950 . S
C606 C605 1.334 . S
C606 C607 1.287 . S
C607 C606 1.287 . S
C607 C608 1.524 . S
C607 H610 0.999 . S
C608 H578 0.950 . S
C608 C607 1.524 . S
C608 C609 1.415 . S
C609 H579 0.950 . S
C609 C604 1.363 . S
C609 C608 1.415 . S
H610 C607 0.999 . S
H611 C592 0.913 . S
H612 C630 0.951 . S
H613 C632 0.951 . S
H614 C634 0.950 . S
H615 C635 0.950 . S
H616 C637 0.950 . S
H617 C640 0.950 . S
H618 C641 0.950 . S
H619 C643 0.950 . S
H620 C644 0.950 . S
H621 C645 0.951 . S
H622 C647 0.951 . S
H623 C649 0.950 . S
H624 C650 0.950 . S
H625 C652 0.950 . S
H626 C655 0.950 . S
H627 C656 0.950 . S
H628 C658 0.950 . S
H629 C659 0.950 . S
C630 H612 0.951 . S
C630 C631 1.366 . S
C630 C632 1.388 . S
C631 C630 1.366 . S
C631 C635 1.385 . S
C632 H613 0.951 . S
C632 C630 1.388 . S
C632 C633 1.366 . S
C633 C632 1.366 . S
C633 C634 1.414 . S
C633 C636 1.499 . S
C634 H614 0.950 . S
C634 C633 1.414 . S
C634 C635 1.374 . S
C635 H615 0.950 . S
C635 C631 1.385 . S
C635 C634 1.374 . S
C636 C633 1.499 . S
C636 C637 1.373 . S
C636 C638 1.389 . S
C637 H616 0.950 . S
C637 C636 1.373 . S
C637 C653 1.377 . S
C638 C636 1.389 . S
C638 C639 1.524 . S
C638 C652 1.377 . S
C639 C638 1.524 . S
C639 C640 1.397 . S
C639 C644 1.363 . S
C640 H617 0.950 . S
C640 C639 1.397 . S
C640 C641 1.334 . S
C641 H618 0.950 . S
C641 C640 1.334 . S
C641 C642 1.287 . S
C642 C641 1.287 . S
C642 C643 1.524 . S
C642 H661 0.913 . S
C643 H619 0.950 . S
C643 C642 1.524 . S
C643 C644 1.415 . S
C644 H620 0.950 . S
C644 C639 1.363 . S
C644 C643 1.415 . S
C645 H621 0.951 . S
C645 C646 1.366 . S
C645 C647 1.388 . S
C646 C645 1.366 . S
C646 C650 1.385 . S
C647 H622 0.951 . S
C647 C645 1.388 . S
C647 C648 1.366 . S
C648 C647 1.366 . S
C648 C649 1.414 . S
C648 C651 1.499 . S
C649 H623 0.950 . S
C649 C648 1.414 . S
C649 C650 1.374 . S
C650 H624 0.950 . S
C650 C646 1.385 . S
C650 C649 1.374 . S
C651 C648 1.499 . S
C651 C652 1.373 . S
C651 C653 1.389 . S
C652 H625 0.950 . S
C652 C638 1.377 . S
C652 C651 1.373 . S
C653 C637 1.377 . S
C653 C651 1.389 . S
C653 C654 1.524 . S
C654 C653 1.524 . S
C654 C655 1.397 . S
C654 C659 1.363 . S
C655 H626 0.950 . S
C655 C654 1.397 . S
C655 C656 1.334 . S
C656 H627 0.950 . S
C656 C655 1.334 . S
C656 C657 1.287 . S
C657 C656 1.287 . S
C657 C658 1.524 . S
C657 H660 0.999 . S
C658 H628 0.950 . S
C658 C657 1.524 . S
C658 C659 1.415 . S
C659 H629 0.950 . S
C659 C654 1.363 . S
C659 C658 1.415 . S
H660 C657 0.999 . S
H661 C642 0.913 . S
H662 C680 0.951 . S
H663 C682 0.951 . S
H664 C684 0.950 . S
H665 C685 0.950 . S
H666 C687 0.950 . S
H667 C690 0.950 . S
H668 C691 0.950 . S
H669 C693 0.950 . S
H670 C694 0.950 . S
H671 C695 0.951 . S
H672 C697 0.951 . S
H673 C699 0.950 . S
H674 C700 0.950 . S
H675 C702 0.950 . S
H676 C705 0.967 . S
H677 C706 0.950 . S
H678 C708 0.950 . S
H679 C709 0.947 1_565 S
C680 H662 0.951 . S
C680 C681 1.366 . S
C680 C682 1.388 . S
C681 C680 1.366 . S
C681 C685 1.385 . S
C682 H663 0.951 . S
C682 C680 1.388 . S
C682 C683 1.366 . S
C683 C682 1.366 . S
C683 C684 1.414 . S
C683 C686 1.499 . S
C684 H664 0.950 . S
C684 C683 1.414 . S
C684 C685 1.374 . S
C685 H665 0.950 . S
C685 C681 1.385 . S
C685 C684 1.374 . S
C686 C683 1.499 . S
C686 C687 1.373 . S
C686 C688 1.389 . S
C687 H666 0.950 . S
C687 C686 1.373 . S
C687 C703 1.377 . S
C688 C686 1.389 . S
C688 C689 1.524 . S
C688 C702 1.377 . S
C689 C688 1.524 . S
C689 C690 1.397 . S
C689 C694 1.363 . S
C690 H667 0.950 . S
C690 C689 1.397 . S
C690 C691 1.334 . S
C691 H668 0.950 . S
C691 C690 1.334 . S
C691 C692 1.287 . S
C692 C691 1.287 . S
C692 C693 1.524 . S
C692 H711 0.913 . S
C693 H669 0.950 . S
C693 C692 1.524 . S
C693 C694 1.415 . S
C694 H670 0.950 . S
C694 C689 1.363 . S
C694 C693 1.415 . S
C695 H671 0.951 . S
C695 C696 1.366 . S
C695 C697 1.388 . S
C696 C695 1.366 . S
C696 C700 1.385 . S
C697 H672 0.951 . S
C697 C695 1.388 . S
C697 C698 1.366 . S
C698 C697 1.366 . S
C698 C699 1.414 . S
C698 C701 1.499 . S
C699 H673 0.950 . S
C699 C698 1.414 . S
C699 C700 1.374 . S
C700 H674 0.950 . S
C700 C696 1.385 . S
C700 C699 1.374 . S
C701 C698 1.499 . S
C701 C702 1.373 . S
C701 C703 1.389 . S
C702 H675 0.950 . S
C702 C688 1.377 . S
C702 C701 1.373 . S
C703 C687 1.377 . S
C703 C701 1.389 . S
C703 C704 1.524 . S
C704 C703 1.524 . S
C704 C705 1.397 1_565 S
C704 C709 1.363 1_565 S
C705 H676 0.967 . S
C705 C704 1.397 1_545 S
C705 C706 1.334 . S
C706 H677 0.950 . S
C706 C705 1.334 . S
C706 C707 1.287 . S
C707 C706 1.287 . S
C707 C708 1.524 . S
C707 H710 0.999 . S
C708 H678 0.950 . S
C708 C707 1.524 . S
C708 C709 1.415 . S
C709 H679 0.947 1_545 S
C709 C704 1.363 1_545 S
C709 C708 1.415 . S
H710 C707 0.999 . S
H711 C692 0.913 . S
H712 C730 0.951 . S
H713 C732 0.951 . S
H714 C734 0.950 . S
H715 C735 0.950 . S
H716 C737 0.950 . S
H717 C740 0.950 . S
H718 C741 0.950 . S
H719 C743 0.950 . S
H720 C744 0.950 . S
H721 C745 0.951 . S
H722 C747 0.951 . S
H723 C749 0.950 . S
H724 C750 0.950 . S
H725 C752 0.950 . S
H726 C755 0.950 . S
H727 C756 0.950 . S
H728 C758 0.950 . S
H729 C759 0.950 . S
C730 H712 0.951 . S
C730 C731 1.366 . S
C730 C732 1.388 . S
C731 C730 1.366 . S
C731 C735 1.385 . S
C732 H713 0.951 . S
C732 C730 1.388 . S
C732 C733 1.366 . S
C733 C732 1.366 . S
C733 C734 1.414 . S
C733 C736 1.499 . S
C734 H714 0.950 . S
C734 C733 1.414 . S
C734 C735 1.374 . S
C735 H715 0.950 . S
C735 C731 1.385 . S
C735 C734 1.374 . S
C736 C733 1.499 . S
C736 C737 1.373 . S
C736 C738 1.389 . S
C737 H716 0.950 . S
C737 C736 1.373 . S
C737 C753 1.377 . S
C738 C736 1.389 . S
C738 C739 1.524 . S
C738 C752 1.377 . S
C739 C738 1.524 . S
C739 C740 1.397 . S
C739 C744 1.363 . S
C740 H717 0.950 . S
C740 C739 1.397 . S
C740 C741 1.334 . S
C741 H718 0.950 . S
C741 C740 1.334 . S
C741 C742 1.287 . S
C742 C741 1.287 . S
C742 C743 1.524 . S
C742 H761 0.913 . S
C743 H719 0.950 . S
C743 C742 1.524 . S
C743 C744 1.415 . S
C744 H720 0.950 . S
C744 C739 1.363 . S
C744 C743 1.415 . S
C745 H721 0.951 . S
C745 C746 1.366 . S
C745 C747 1.388 . S
C746 C745 1.366 . S
C746 C750 1.385 . S
C747 H722 0.951 . S
C747 C745 1.388 . S
C747 C748 1.366 . S
C748 C747 1.366 . S
C748 C749 1.414 . S
C748 C751 1.499 . S
C749 H723 0.950 . S
C749 C748 1.414 . S
C749 C750 1.374 . S
C750 H724 0.950 . S
C750 C746 1.385 . S
C750 C749 1.374 . S
C751 C748 1.499 . S
C751 C752 1.373 . S
C751 C753 1.389 . S
C752 H725 0.950 . S
C752 C738 1.377 . S
C752 C751 1.373 . S
C753 C737 1.377 . S
C753 C751 1.389 . S
C753 C754 1.524 . S
C754 C753 1.524 . S
C754 C755 1.397 . S
C754 C759 1.363 . S
C755 H726 0.950 . S
C755 C754 1.397 . S
C755 C756 1.334 . S
C756 H727 0.950 . S
C756 C755 1.334 . S
C756 C757 1.287 . S
C757 C756 1.287 . S
C757 C758 1.524 . S
C757 H760 0.999 . S
C758 H728 0.950 . S
C758 C757 1.524 . S
C758 C759 1.415 . S
C759 H729 0.950 . S
C759 C754 1.363 . S
C759 C758 1.415 . S
H760 C757 0.999 . S
H761 C742 0.913 . S
H762 C780 0.951 . S
H763 C782 0.951 . S
H764 C784 0.950 . S
H765 C785 0.950 . S
H766 C787 0.950 . S
H767 C790 0.950 . S
H768 C791 0.950 . S
H769 C793 0.950 . S
H770 C794 0.950 . S
H771 C795 0.951 . S
H772 C797 0.951 . S
H773 C799 0.950 . S
H774 C800 0.950 . S
H775 C802 0.950 . S
H776 C805 0.950 . S
H777 C806 0.950 . S
H778 C808 0.950 . S
H779 C809 0.950 . S
C780 H762 0.951 . S
C780 C781 1.366 . S
C780 C782 1.388 . S
C781 C780 1.366 . S
C781 C785 1.385 . S
C782 H763 0.951 . S
C782 C780 1.388 . S
C782 C783 1.366 . S
C783 C782 1.366 . S
C783 C784 1.414 . S
C783 C786 1.499 . S
C784 H764 0.950 . S
C784 C783 1.414 . S
C784 C785 1.374 . S
C785 H765 0.950 . S
C785 C781 1.385 . S
C785 C784 1.374 . S
C786 C783 1.499 . S
C786 C787 1.373 . S
C786 C788 1.389 . S
C787 H766 0.950 . S
C787 C786 1.373 . S
C787 C803 1.377 . S
C788 C786 1.389 . S
C788 C789 1.524 . S
C788 C802 1.377 . S
C789 C788 1.524 . S
C789 C790 1.397 . S
C789 C794 1.363 . S
C790 H767 0.950 . S
C790 C789 1.397 . S
C790 C791 1.334 . S
C791 H768 0.950 . S
C791 C790 1.334 . S
C791 C792 1.287 . S
C792 C791 1.287 . S
C792 C793 1.524 . S
C792 H811 0.913 . S
C793 H769 0.950 . S
C793 C792 1.524 . S
C793 C794 1.415 . S
C794 H770 0.950 . S
C794 C789 1.363 . S
C794 C793 1.415 . S
C795 H771 0.951 . S
C795 C796 1.366 . S
C795 C797 1.388 . S
C796 C795 1.366 . S
C796 C800 1.385 . S
C797 H772 0.951 . S
C797 C795 1.388 . S
C797 C798 1.366 . S
C798 C797 1.366 . S
C798 C799 1.414 . S
C798 C801 1.499 . S
C799 H773 0.950 . S
C799 C798 1.414 . S
C799 C800 1.374 . S
C800 H774 0.950 . S
C800 C796 1.385 . S
C800 C799 1.374 . S
C801 C798 1.499 . S
C801 C802 1.373 . S
C801 C803 1.389 . S
C802 H775 0.950 . S
C802 C788 1.377 . S
C802 C801 1.373 . S
C803 C787 1.377 . S
C803 C801 1.389 . S
C803 C804 1.524 . S
C804 C803 1.524 . S
C804 C805 1.397 . S
C804 C809 1.363 . S
C805 H776 0.950 . S
C805 C804 1.397 . S
C805 C806 1.334 . S
C806 H777 0.950 . S
C806 C805 1.334 . S
C806 C807 1.287 . S
C807 C806 1.287 . S
C807 C808 1.524 . S
C807 H810 0.999 . S
C808 H778 0.950 . S
C808 C807 1.524 . S
C808 C809 1.415 . S
C809 H779 0.950 . S
C809 C804 1.363 . S
C809 C808 1.415 . S
H810 C807 0.999 . S
H811 C792 0.913 . S
H812 C830 0.951 . S
H813 C832 0.951 . S
H814 C834 0.950 . S
H815 C835 0.950 . S
H816 C837 0.950 . S
H817 C840 0.950 . S
H818 C841 0.950 . S
H819 C843 0.950 . S
H820 C844 0.950 . S
H821 C845 0.951 . S
H822 C847 0.951 . S
H823 C849 0.950 . S
H824 C850 0.950 . S
H825 C852 0.950 . S
H826 C855 0.950 . S
H827 C856 0.950 . S
H828 C858 0.950 . S
H829 C859 0.950 . S
C830 H812 0.951 . S
C830 C831 1.366 . S
C830 C832 1.388 . S
C831 C830 1.366 . S
C831 C835 1.385 . S
C832 H813 0.951 . S
C832 C830 1.388 . S
C832 C833 1.366 . S
C833 C832 1.366 . S
C833 C834 1.414 . S
C833 C836 1.499 . S
C834 H814 0.950 . S
C834 C833 1.414 . S
C834 C835 1.374 . S
C835 H815 0.950 . S
C835 C831 1.385 . S
C835 C834 1.374 . S
C836 C833 1.499 . S
C836 C837 1.373 . S
C836 C838 1.389 . S
C837 H816 0.950 . S
C837 C836 1.373 . S
C837 C853 1.377 . S
C838 C836 1.389 . S
C838 C839 1.524 . S
C838 C852 1.377 . S
C839 C838 1.524 . S
C839 C840 1.397 . S
C839 C844 1.363 . S
C840 H817 0.950 . S
C840 C839 1.397 . S
C840 C841 1.334 . S
C841 H818 0.950 . S
C841 C840 1.334 . S
C841 C842 1.287 . S
C842 C841 1.287 . S
C842 C843 1.524 . S
C842 H861 0.913 . S
C843 H819 0.950 . S
C843 C842 1.524 . S
C843 C844 1.415 . S
C844 H820 0.950 . S
C844 C839 1.363 . S
C844 C843 1.415 . S
C845 H821 0.951 . S
C845 C846 1.366 . S
C845 C847 1.388 . S
C846 C845 1.366 . S
C846 C850 1.385 . S
C847 H822 0.951 . S
C847 C845 1.388 . S
C847 C848 1.366 . S
C848 C847 1.366 . S
C848 C849 1.414 . S
C848 C851 1.499 . S
C849 H823 0.950 . S
C849 C848 1.414 . S
C849 C850 1.374 . S
C850 H824 0.950 . S
C850 C846 1.385 . S
C850 C849 1.374 . S
C851 C848 1.499 . S
C851 C852 1.373 . S
C851 C853 1.389 . S
C852 H825 0.950 . S
C852 C838 1.377 . S
C852 C851 1.373 . S
C853 C837 1.377 . S
C853 C851 1.389 . S
C853 C854 1.524 . S
C854 C853 1.524 . S
C854 C855 1.397 . S
C854 C859 1.363 . S
C855 H826 0.950 . S
C855 C854 1.397 . S
C855 C856 1.334 . S
C856 H827 0.950 . S
C856 C855 1.334 . S
C856 C857 1.287 . S
C857 C856 1.287 . S
C857 C858 1.524 . S
C857 H860 0.999 . S
C858 H828 0.950 . S
C858 C857 1.524 . S
C858 C859 1.415 . S
C859 H829 0.950 . S
C859 C854 1.363 . S
C859 C858 1.415 . S
H860 C857 0.999 . S
H861 C842 0.913 . S
H862 C880 0.951 . S
H863 C882 0.951 . S
H864 C884 0.950 . S
H865 C885 0.950 . S
H866 C887 0.950 . S
H867 C890 0.950 . S
H868 C891 0.950 . S
H869 C893 0.950 . S
H870 C894 0.950 . S
H871 C895 0.951 . S
H872 C897 0.951 . S
H873 C899 0.950 . S
H874 C900 0.950 . S
H875 C902 0.950 . S
H876 C905 0.950 . S
H877 C906 0.950 . S
H878 C908 0.950 . S
H879 C909 0.950 . S
C880 H862 0.951 . S
C880 C881 1.366 . S
C880 C882 1.388 . S
C881 C880 1.366 . S
C881 C885 1.385 . S
C882 H863 0.951 . S
C882 C880 1.388 . S
C882 C883 1.366 . S
C883 C882 1.366 . S
C883 C884 1.414 . S
C883 C886 1.499 . S
C884 H864 0.950 . S
C884 C883 1.414 . S
C884 C885 1.374 . S
C885 H865 0.950 . S
C885 C881 1.385 . S
C885 C884 1.374 . S
C886 C883 1.499 . S
C886 C887 1.373 . S
C886 C888 1.389 . S
C887 H866 0.950 . S
C887 C886 1.373 . S
C887 C903 1.377 . S
C888 C886 1.389 . S
C888 C889 1.524 . S
C888 C902 1.377 . S
C889 C888 1.524 . S
C889 C890 1.397 . S
C889 C894 1.363 . S
C890 H867 0.950 . S
C890 C889 1.397 . S
C890 C891 1.334 . S
C891 H868 0.950 . S
C891 C890 1.334 . S
C891 C892 1.287 . S
C892 C891 1.287 . S
C892 C893 1.524 . S
C892 H911 0.913 . S
C893 H869 0.950 . S
C893 C892 1.524 . S
C893 C894 1.415 . S
C894 H870 0.950 . S
C894 C889 1.363 . S
C894 C893 1.415 . S
C895 H871 0.951 . S
C895 C896 1.366 . S
C895 C897 1.388 . S
C896 C895 1.366 . S
C896 C900 1.385 . S
C897 H872 0.951 . S
C897 C895 1.388 . S
C897 C898 1.366 . S
C898 C897 1.366 . S
C898 C899 1.414 . S
C898 C901 1.499 . S
C899 H873 0.950 . S
C899 C898 1.414 . S
C899 C900 1.374 . S
C900 H874 0.950 . S
C900 C896 1.385 . S
C900 C899 1.374 . S
C901 C898 1.499 . S
C901 C902 1.373 . S
C901 C903 1.389 . S
C902 H875 0.950 . S
C902 C888 1.377 . S
C902 C901 1.373 . S
C903 C887 1.377 . S
C903 C901 1.389 . S
C903 C904 1.524 . S
C904 C903 1.524 . S
C904 C905 1.397 . S
C904 C909 1.363 . S
C905 H876 0.950 . S
C905 C904 1.397 . S
C905 C906 1.334 . S
C906 H877 0.950 . S
C906 C905 1.334 . S
C906 C907 1.287 . S
C907 C906 1.287 . S
C907 C908 1.524 . S
C907 H910 0.999 . S
C908 H878 0.950 . S
C908 C907 1.524 . S
C908 C909 1.415 . S
C909 H879 0.950 . S
C909 C904 1.363 . S
C909 C908 1.415 . S
H910 C907 0.999 . S
H911 C892 0.913 . S
H912 C930 0.951 . S
H913 C932 0.951 . S
H914 C934 0.950 . S
H915 C935 0.950 . S
H916 C937 0.950 . S
H917 C940 0.950 . S
H918 C941 0.950 . S
H919 C943 0.950 . S
H920 C944 0.950 . S
H921 C945 0.951 . S
H922 C947 0.951 . S
H923 C949 0.950 . S
H924 C950 0.950 . S
H925 C952 0.950 . S
H926 C955 0.950 . S
H927 C956 0.950 . S
H928 C958 0.950 . S
H929 C959 0.950 . S
C930 H912 0.951 . S
C930 C931 1.366 . S
C930 C932 1.388 . S
C931 C930 1.366 . S
C931 C935 1.385 . S
C932 H913 0.951 . S
C932 C930 1.388 . S
C932 C933 1.366 . S
C933 C932 1.366 . S
C933 C934 1.414 . S
C933 C936 1.499 . S
C934 H914 0.950 . S
C934 C933 1.414 . S
C934 C935 1.374 . S
C935 H915 0.950 . S
C935 C931 1.385 . S
C935 C934 1.374 . S
C936 C933 1.499 . S
C936 C937 1.373 . S
C936 C938 1.389 . S
C937 H916 0.950 . S
C937 C936 1.373 . S
C937 C953 1.377 . S
C938 C936 1.389 . S
C938 C939 1.524 . S
C938 C952 1.377 . S
C939 C938 1.524 . S
C939 C940 1.397 . S
C939 C944 1.363 . S
C940 H917 0.950 . S
C940 C939 1.397 . S
C940 C941 1.334 . S
C941 H918 0.950 . S
C941 C940 1.334 . S
C941 C942 1.287 . S
C942 C941 1.287 . S
C942 C943 1.524 . S
C942 H961 0.913 . S
C943 H919 0.950 . S
C943 C942 1.524 . S
C943 C944 1.415 . S
C944 H920 0.950 . S
C944 C939 1.363 . S
C944 C943 1.415 . S
C945 H921 0.951 . S
C945 C946 1.366 . S
C945 C947 1.388 . S
C946 C945 1.366 . S
C946 C950 1.385 . S
C947 H922 0.951 . S
C947 C945 1.388 . S
C947 C948 1.366 . S
C948 C947 1.366 . S
C948 C949 1.414 . S
C948 C951 1.499 . S
C949 H923 0.950 . S
C949 C948 1.414 . S
C949 C950 1.374 . S
C950 H924 0.950 . S
C950 C946 1.385 . S
C950 C949 1.374 . S
C951 C948 1.499 . S
C951 C952 1.373 . S
C951 C953 1.389 . S
C952 H925 0.950 . S
C952 C938 1.377 . S
C952 C951 1.373 . S
C953 C937 1.377 . S
C953 C951 1.389 . S
C953 C954 1.524 . S
C954 C953 1.524 . S
C954 C955 1.397 . S
C954 C959 1.363 . S
C955 H926 0.950 . S
C955 C954 1.397 . S
C955 C956 1.334 . S
C956 H927 0.950 . S
C956 C955 1.334 . S
C956 C957 1.287 . S
C957 C956 1.287 . S
C957 C958 1.524 . S
C957 H960 0.999 . S
C958 H928 0.950 . S
C958 C957 1.524 . S
C958 C959 1.415 . S
C959 H929 0.950 . S
C959 C954 1.363 . S
C959 C958 1.415 . S
H960 C957 0.999 . S
H961 C942 0.913 . S
H962 C980 0.951 . S
H963 C982 0.951 . S
H964 C984 0.950 . S
H965 C985 0.950 . S
H966 C987 0.950 . S
H967 C990 0.950 . S
H968 C991 0.950 . S
H969 C993 0.950 . S
H970 C994 0.950 . S
H971 C995 0.951 . S
H972 C997 0.951 . S
H973 C999 0.950 . S
H974 C1000 0.950 . S
H975 C1002 0.950 . S
H976 C1005 0.950 . S
H977 C1006 0.950 . S
H978 C1008 0.952 . S
H979 C1009 0.950 . S
C980 H962 0.951 . S
C980 C981 1.366 . S
C980 C982 1.388 . S
C981 C980 1.366 . S
C981 C985 1.385 . S
C982 H963 0.951 . S
C982 C980 1.388 . S
C982 C983 1.366 . S
C983 C982 1.366 . S
C983 C984 1.414 . S
C983 C986 1.499 . S
C984 H964 0.950 . S
C984 C983 1.414 . S
C984 C985 1.374 . S
C985 H965 0.950 . S
C985 C981 1.385 . S
C985 C984 1.374 . S
C986 C983 1.499 . S
C986 C987 1.373 . S
C986 C988 1.389 . S
C987 H966 0.950 . S
C987 C986 1.373 . S
C987 C1003 1.377 . S
C988 C986 1.389 . S
C988 C989 1.524 . S
C988 C1002 1.377 . S
C989 C988 1.524 . S
C989 C990 1.397 . S
C989 C994 1.363 . S
C990 H967 0.950 . S
C990 C989 1.397 . S
C990 C991 1.334 . S
C991 H968 0.950 . S
C991 C990 1.334 . S
C991 C992 1.287 . S
C992 C991 1.287 . S
C992 C993 1.524 . S
C992 H1011 0.913 . S
C993 H969 0.950 . S
C993 C992 1.524 . S
C993 C994 1.415 . S
C994 H970 0.950 . S
C994 C989 1.363 . S
C994 C993 1.415 . S
C995 H971 0.951 . S
C995 C996 1.366 . S
C995 C997 1.388 . S
C996 C995 1.366 . S
C996 C1000 1.385 . S
C997 H972 0.951 . S
C997 C995 1.388 . S
C997 C998 1.366 . S
C998 C997 1.366 . S
C998 C999 1.414 . S
C998 C1001 1.499 . S
C999 H973 0.950 . S
C999 C998 1.414 . S
C999 C1000 1.374 . S
C1000 H974 0.950 . S
C1000 C996 1.385 . S
C1000 C999 1.374 . S
C1001 C998 1.499 . S
C1001 C1002 1.373 . S
C1001 C1003 1.389 . S
C1002 H975 0.950 . S
C1002 C988 1.377 . S
C1002 C1001 1.373 . S
C1003 C987 1.377 . S
C1003 C1001 1.389 . S
C1003 C1004 1.524 . S
C1004 C1003 1.524 . S
C1004 C1005 1.412 . S
C1004 C1009 1.363 . S
C1005 H976 0.950 . S
C1005 C1004 1.412 . S
C1005 C1006 1.319 1_455 S
C1006 H977 0.950 . S
C1006 C1005 1.319 1_655 S
C1006 C1007 1.287 . S
C1007 C1006 1.287 . S
C1007 C1008 1.566 . S
C1007 H1010 0.999 . S
C1008 H978 0.952 . S
C1008 C1007 1.566 . S
C1008 C1009 1.373 1_655 S
C1009 H979 0.950 . S
C1009 C1004 1.363 . S
C1009 C1008 1.373 1_455 S
H1010 C1007 0.999 . S
H1011 C992 0.913 . S
H1012 C1030 0.951 . S
H1013 C1032 0.951 . S
H1014 C1034 0.950 . S
H1015 C1035 0.950 . S
H1016 C1037 0.950 . S
H1017 C1040 0.950 . S
H1018 C1041 0.950 . S
H1019 C1043 0.950 . S
H1020 C1044 0.950 . S
H1021 C1045 0.951 . S
H1022 C1047 0.951 . S
H1023 C1049 0.950 . S
H1024 C1050 0.950 . S
H1025 C1052 0.950 . S
H1026 C1055 0.950 . S
H1027 C1056 0.950 . S
H1028 C1058 0.950 . S
H1029 C1059 0.950 . S
C1030 H1012 0.951 . S
C1030 C1031 1.366 . S
C1030 C1032 1.388 . S
C1031 C1030 1.366 . S
C1031 C1035 1.385 . S
C1032 H1013 0.951 . S
C1032 C1030 1.388 . S
C1032 C1033 1.366 . S
C1033 C1032 1.366 . S
C1033 C1034 1.414 . S
C1033 C1036 1.499 . S
C1034 H1014 0.950 . S
C1034 C1033 1.414 . S
C1034 C1035 1.374 . S
C1035 H1015 0.950 . S
C1035 C1031 1.385 . S
C1035 C1034 1.374 . S
C1036 C1033 1.499 . S
C1036 C1037 1.373 . S
C1036 C1038 1.389 . S
C1037 H1016 0.950 . S
C1037 C1036 1.373 . S
C1037 C1053 1.377 . S
C1038 C1036 1.389 . S
C1038 C1039 1.524 . S
C1038 C1052 1.377 . S
C1039 C1038 1.524 . S
C1039 C1040 1.397 . S
C1039 C1044 1.363 . S
C1040 H1017 0.950 . S
C1040 C1039 1.397 . S
C1040 C1041 1.334 . S
C1041 H1018 0.950 . S
C1041 C1040 1.334 . S
C1041 C1042 1.287 . S
C1042 C1041 1.287 . S
C1042 C1043 1.524 . S
C1042 H1061 0.913 . S
C1043 H1019 0.950 . S
C1043 C1042 1.524 . S
C1043 C1044 1.415 . S
C1044 H1020 0.950 . S
C1044 C1039 1.363 . S
C1044 C1043 1.415 . S
C1045 H1021 0.951 . S
C1045 C1046 1.366 . S
C1045 C1047 1.388 . S
C1046 C1045 1.366 . S
C1046 C1050 1.385 . S
C1047 H1022 0.951 . S
C1047 C1045 1.388 . S
C1047 C1048 1.366 . S
C1048 C1047 1.366 . S
C1048 C1049 1.414 . S
C1048 C1051 1.499 . S
C1049 H1023 0.950 . S
C1049 C1048 1.414 . S
C1049 C1050 1.374 . S
C1050 H1024 0.950 . S
C1050 C1046 1.385 . S
C1050 C1049 1.374 . S
C1051 C1048 1.499 . S
C1051 C1052 1.373 . S
C1051 C1053 1.389 . S
C1052 H1025 0.950 . S
C1052 C1038 1.377 . S
C1052 C1051 1.373 . S
C1053 C1037 1.377 . S
C1053 C1051 1.389 . S
C1053 C1054 1.524 . S
C1054 C1053 1.524 . S
C1054 C1055 1.397 . S
C1054 C1059 1.363 . S
C1055 H1026 0.950 . S
C1055 C1054 1.397 . S
C1055 C1056 1.334 . S
C1056 H1027 0.950 . S
C1056 C1055 1.334 . S
C1056 C1057 1.287 . S
C1057 C1056 1.287 . S
C1057 C1058 1.524 . S
C1057 H1060 0.999 . S
C1058 H1028 0.950 . S
C1058 C1057 1.524 . S
C1058 C1059 1.415 . S
C1059 H1029 0.950 . S
C1059 C1054 1.363 . S
C1059 C1058 1.415 . S
H1060 C1057 0.999 . S
H1061 C1042 0.913 . S
H1062 C1080 0.951 . S
H1063 C1082 0.951 . S
H1064 C1084 0.950 . S
H1065 C1085 0.950 . S
H1066 C1087 0.950 . S
H1067 C1090 0.950 . S
H1068 C1091 0.950 . S
H1069 C1093 0.950 . S
H1070 C1094 0.950 . S
H1071 C1095 0.978 . S
H1072 C1097 0.951 . S
H1073 C1099 0.950 . S
H1074 C1100 0.950 . S
H1075 C1102 0.950 . S
H1076 C1105 0.950 . S
H1077 C1106 0.950 . S
H1078 C1108 0.950 . S
H1079 C1109 0.950 . S
C1080 H1062 0.951 . S
C1080 C1081 1.366 . S
C1080 C1082 1.388 . S
C1081 C1080 1.366 . S
C1081 C1085 1.385 . S
C1082 H1063 0.951 . S
C1082 C1080 1.388 . S
C1082 C1083 1.366 . S
C1083 C1082 1.366 . S
C1083 C1084 1.414 . S
C1083 C1086 1.499 . S
C1084 H1064 0.950 . S
C1084 C1083 1.414 . S
C1084 C1085 1.374 . S
C1085 H1065 0.950 . S
C1085 C1081 1.385 . S
C1085 C1084 1.374 . S
C1086 C1083 1.499 . S
C1086 C1087 1.373 . S
C1086 C1088 1.389 . S
C1087 H1066 0.950 . S
C1087 C1086 1.373 . S
C1087 C1103 1.377 . S
C1088 C1086 1.389 . S
C1088 C1089 1.524 . S
C1088 C1102 1.377 . S
C1089 C1088 1.524 . S
C1089 C1090 1.397 . S
C1089 C1094 1.363 . S
C1090 H1067 0.950 . S
C1090 C1089 1.397 . S
C1090 C1091 1.334 . S
C1091 H1068 0.950 . S
C1091 C1090 1.334 . S
C1091 C1092 1.287 . S
C1092 C1091 1.287 . S
C1092 C1093 1.524 . S
C1092 H1111 0.913 . S
C1093 H1069 0.950 . S
C1093 C1092 1.524 . S
C1093 C1094 1.415 . S
C1094 H1070 0.950 . S
C1094 C1089 1.363 . S
C1094 C1093 1.415 . S
C1095 H1071 0.978 . S
C1095 C1096 1.366 . S
C1095 C1097 1.388 . S
C1096 C1095 1.366 . S
C1096 C1100 1.385 . S
C1097 H1072 0.951 . S
C1097 C1095 1.388 . S
C1097 C1098 1.366 . S
C1098 C1097 1.366 . S
C1098 C1099 1.414 . S
C1098 C1101 1.499 . S
C1099 H1073 0.950 . S
C1099 C1098 1.414 . S
C1099 C1100 1.374 . S
C1100 H1074 0.950 . S
C1100 C1096 1.385 . S
C1100 C1099 1.374 . S
C1101 C1098 1.499 . S
C1101 C1102 1.373 . S
C1101 C1103 1.389 . S
C1102 H1075 0.950 . S
C1102 C1088 1.377 . S
C1102 C1101 1.373 . S
C1103 C1087 1.377 . S
C1103 C1101 1.389 . S
C1103 C1104 1.524 . S
C1104 C1103 1.524 . S
C1104 C1105 1.397 . S
C1104 C1109 1.363 . S
C1105 H1076 0.950 . S
C1105 C1104 1.397 . S
C1105 C1106 1.334 . S
C1106 H1077 0.950 . S
C1106 C1105 1.334 . S
C1106 C1107 1.287 . S
C1107 C1106 1.287 . S
C1107 C1108 1.524 . S
C1107 H1110 0.999 . S
C1108 H1078 0.950 . S
C1108 C1107 1.524 . S
C1108 C1109 1.415 . S
C1109 H1079 0.950 . S
C1109 C1104 1.363 . S
C1109 C1108 1.415 . S
H1110 C1107 0.999 . S
H1111 C1092 0.913 . S
H1112 C1130 0.951 . S
H1113 C1132 0.951 . S
H1114 C1134 0.950 . S
H1115 C1135 0.950 . S
H1116 C1137 0.950 . S
H1117 C1140 0.950 . S
H1118 C1141 0.950 . S
H1119 C1143 0.950 . S
H1120 C1144 0.950 . S
H1121 C1145 0.951 . S
H1122 C1147 0.951 . S
H1123 C1149 0.950 . S
H1124 C1150 0.950 . S
H1125 C1152 0.950 . S
H1126 C1155 0.950 . S
H1127 C1156 0.950 . S
H1128 C1158 0.950 . S
H1129 C1159 0.950 . S
C1130 H1112 0.951 . S
C1130 C1131 1.366 . S
C1130 C1132 1.388 . S
C1131 C1130 1.366 . S
C1131 C1135 1.385 . S
C1132 H1113 0.951 . S
C1132 C1130 1.388 . S
C1132 C1133 1.366 . S
C1133 C1132 1.366 . S
C1133 C1134 1.414 . S
C1133 C1136 1.499 . S
C1134 H1114 0.950 . S
C1134 C1133 1.414 . S
C1134 C1135 1.374 . S
C1135 H1115 0.950 . S
C1135 C1131 1.385 . S
C1135 C1134 1.374 . S
C1136 C1133 1.499 . S
C1136 C1137 1.373 . S
C1136 C1138 1.389 . S
C1137 H1116 0.950 . S
C1137 C1136 1.373 . S
C1137 C1153 1.377 . S
C1138 C1136 1.389 . S
C1138 C1139 1.524 . S
C1138 C1152 1.377 . S
C1139 C1138 1.524 . S
C1139 C1140 1.397 . S
C1139 C1144 1.363 . S
C1140 H1117 0.950 . S
C1140 C1139 1.397 . S
C1140 C1141 1.334 . S
C1141 H1118 0.950 . S
C1141 C1140 1.334 . S
C1141 C1142 1.287 . S
C1142 C1141 1.287 . S
C1142 C1143 1.524 . S
C1142 H1161 0.913 . S
C1143 H1119 0.950 . S
C1143 C1142 1.524 . S
C1143 C1144 1.415 . S
C1144 H1120 0.950 . S
C1144 C1139 1.363 . S
C1144 C1143 1.415 . S
C1145 H1121 0.951 . S
C1145 C1146 1.366 . S
C1145 C1147 1.388 1_545 S
C1146 C1145 1.366 . S
C1146 C1150 1.385 1_545 S
C1147 H1122 0.951 . S
C1147 C1145 1.388 1_565 S
C1147 C1148 1.366 . S
C1148 C1147 1.366 . S
C1148 C1149 1.414 . S
C1148 C1151 1.499 . S
C1149 H1123 0.950 . S
C1149 C1148 1.414 . S
C1149 C1150 1.374 . S
C1150 H1124 0.950 . S
C1150 C1146 1.385 1_565 S
C1150 C1149 1.374 . S
C1151 C1148 1.499 . S
C1151 C1152 1.373 . S
C1151 C1153 1.389 . S
C1152 H1125 0.950 . S
C1152 C1138 1.377 . S
C1152 C1151 1.373 . S
C1153 C1137 1.377 . S
C1153 C1151 1.389 . S
C1153 C1154 1.524 . S
C1154 C1153 1.524 . S
C1154 C1155 1.397 . S
C1154 C1159 1.363 . S
C1155 H1126 0.950 . S
C1155 C1154 1.397 . S
C1155 C1156 1.334 . S
C1156 H1127 0.950 . S
C1156 C1155 1.334 . S
C1156 C1157 1.287 . S
C1157 C1156 1.287 . S
C1157 C1158 1.524 . S
C1157 H1160 0.999 . S
C1158 H1128 0.950 . S
C1158 C1157 1.524 . S
C1158 C1159 1.415 . S
C1159 H1129 0.950 . S
C1159 C1154 1.363 . S
C1159 C1158 1.415 . S
H1160 C1157 0.999 . S
H1161 C1142 0.913 . S
H1162 C1180 0.951 . S
H1163 C1182 0.951 . S
H1164 C1184 0.950 . S
H1165 C1185 0.950 . S
H1166 C1187 0.950 . S
H1167 C1190 0.950 . S
H1168 C1191 0.950 . S
H1169 C1193 0.950 . S
H1170 C1194 0.950 . S
H1171 C1195 0.951 . S
H1172 C1197 0.951 . S
H1173 C1199 0.950 . S
H1174 C1200 0.950 . S
H1175 C1202 0.950 . S
H1176 C1205 0.950 . S
H1177 C1206 0.950 . S
H1178 C1208 0.950 . S
H1179 C1209 0.950 . S
C1180 H1162 0.951 . S
C1180 C1181 1.366 . S
C1180 C1182 1.388 . S
C1181 C1180 1.366 . S
C1181 C1185 1.385 . S
C1182 H1163 0.951 . S
C1182 C1180 1.388 . S
C1182 C1183 1.366 . S
C1183 C1182 1.366 . S
C1183 C1184 1.414 . S
C1183 C1186 1.499 . S
C1184 H1164 0.950 . S
C1184 C1183 1.414 . S
C1184 C1185 1.374 . S
C1185 H1165 0.950 . S
C1185 C1181 1.385 . S
C1185 C1184 1.374 . S
C1186 C1183 1.499 . S
C1186 C1187 1.373 . S
C1186 C1188 1.389 . S
C1187 H1166 0.950 . S
C1187 C1186 1.373 . S
C1187 C1203 1.377 . S
C1188 C1186 1.389 . S
C1188 C1189 1.524 . S
C1188 C1202 1.377 . S
C1189 C1188 1.524 . S
C1189 C1190 1.397 . S
C1189 C1194 1.363 . S
C1190 H1167 0.950 . S
C1190 C1189 1.397 . S
C1190 C1191 1.334 . S
C1191 H1168 0.950 . S
C1191 C1190 1.334 . S
C1191 C1192 1.287 . S
C1192 C1191 1.287 . S
C1192 C1193 1.524 . S
C1192 H1211 0.913 . S
C1193 H1169 0.950 . S
C1193 C1192 1.524 . S
C1193 C1194 1.415 . S
C1194 H1170 0.950 . S
C1194 C1189 1.363 . S
C1194 C1193 1.415 . S
C1195 H1171 0.951 . S
C1195 C1196 1.366 . S
C1195 C1197 1.388 . S
C1196 C1195 1.366 . S
C1196 C1200 1.385 . S
C1197 H1172 0.951 . S
C1197 C1195 1.388 . S
C1197 C1198 1.366 . S
C1198 C1197 1.366 . S
C1198 C1199 1.414 . S
C1198 C1201 1.499 . S
C1199 H1173 0.950 . S
C1199 C1198 1.414 . S
C1199 C1200 1.374 . S
C1200 H1174 0.950 . S
C1200 C1196 1.385 . S
C1200 C1199 1.374 . S
C1201 C1198 1.499 . S
C1201 C1202 1.373 . S
C1201 C1203 1.389 . S
C1202 H1175 0.950 . S
C1202 C1188 1.377 . S
C1202 C1201 1.373 . S
C1203 C1187 1.377 . S
C1203 C1201 1.389 . S
C1203 C1204 1.524 . S
C1204 C1203 1.524 . S
C1204 C1205 1.397 . S
C1204 C1209 1.363 . S
C1205 H1176 0.950 . S
C1205 C1204 1.397 . S
C1205 C1206 1.334 . S
C1206 H1177 0.950 . S
C1206 C1205 1.334 . S
C1206 C1207 1.287 . S
C1207 C1206 1.287 . S
C1207 C1208 1.524 . S
C1207 H1210 0.999 . S
C1208 H1178 0.950 . S
C1208 C1207 1.524 . S
C1208 C1209 1.415 . S
C1209 H1179 0.950 . S
C1209 C1204 1.363 . S
C1209 C1208 1.415 . S
H1210 C1207 0.999 . S
H1211 C1192 0.913 . S
H1212 C1230 0.951 . S
H1213 C1232 0.951 . S
H1214 C1234 0.950 . S
H1215 C1235 0.950 . S
H1216 C1237 0.950 1_554 S
H1217 C1240 0.950 . S
H1218 C1241 0.950 . S
H1219 C1243 0.950 . S
H1220 C1244 0.950 . S
H1221 C1245 0.951 . S
H1222 C1247 0.911 1_545 S
H1223 C1249 0.950 . S
H1224 C1250 0.950 1_556 S
H1225 C1252 0.950 . S
H1226 C1255 0.950 . S
H1227 C1256 0.950 . S
H1228 C1258 0.950 . S
H1229 C1259 0.950 . S
C1230 H1212 0.951 . S
C1230 C1231 1.366 . S
C1230 C1232 1.388 . S
C1231 C1230 1.366 . S
C1231 C1235 1.385 . S
C1232 H1213 0.951 . S
C1232 C1230 1.388 . S
C1232 C1233 1.366 . S
C1233 C1232 1.366 . S
C1233 C1234 1.414 . S
C1233 C1236 1.499 . S
C1234 H1214 0.950 . S
C1234 C1233 1.414 . S
C1234 C1235 1.374 . S
C1235 H1215 0.950 . S
C1235 C1231 1.385 . S
C1235 C1234 1.374 . S
C1236 C1233 1.499 . S
C1236 C1237 1.373 . S
C1236 C1238 1.389 . S
C1237 H1216 0.950 1_556 S
C1237 C1236 1.373 . S
C1237 C1253 1.377 1_556 S
C1238 C1236 1.389 . S
C1238 C1239 1.524 . S
C1238 C1252 1.377 1_545 S
C1239 C1238 1.524 . S
C1239 C1240 1.397 . S
C1239 C1244 1.363 1_545 S
C1240 H1217 0.950 . S
C1240 C1239 1.397 . S
C1240 C1241 1.334 . S
C1241 H1218 0.950 . S
C1241 C1240 1.334 . S
C1241 C1242 1.287 . S
C1242 C1241 1.287 . S
C1242 C1243 1.524 1_545 S
C1242 H1261 0.913 . S
C1243 H1219 0.950 . S
C1243 C1242 1.524 1_565 S
C1243 C1244 1.415 . S
C1244 H1220 0.950 . S
C1244 C1239 1.363 1_565 S
C1244 C1243 1.415 . S
C1245 H1221 0.951 . S
C1245 C1246 1.366 . S
C1245 C1247 1.388 . S
C1246 C1245 1.366 . S
C1246 C1250 1.385 . S
C1247 H1222 0.911 1_565 S
C1247 C1245 1.388 . S
C1247 C1248 1.333 1_554 S
C1248 C1247 1.333 1_556 S
C1248 C1249 1.426 . S
C1248 C1251 1.524 . S
C1249 H1223 0.950 . S
C1249 C1248 1.426 . S
C1249 C1250 1.374 1_556 S
C1250 H1224 0.950 1_554 S
C1250 C1246 1.385 . S
C1250 C1249 1.374 1_554 S
C1251 C1248 1.524 . S
C1251 C1252 1.373 . S
C1251 C1253 1.389 1_566 S
C1252 H1225 0.950 . S
C1252 C1238 1.377 1_565 S
C1252 C1251 1.373 . S
C1253 C1237 1.377 1_554 S
C1253 C1251 1.389 1_544 S
C1253 C1254 1.524 . S
C1254 C1253 1.524 . S
C1254 C1255 1.397 1_545 S
C1254 C1259 1.363 . S
C1255 H1226 0.950 . S
C1255 C1254 1.397 1_565 S
C1255 C1256 1.334 . S
C1256 H1227 0.950 . S
C1256 C1255 1.334 . S
C1256 C1257 1.287 1_565 S
C1257 C1256 1.287 1_545 S
C1257 C1258 1.524 . S
C1257 H1260 0.999 . S
C1258 H1228 0.950 . S
C1258 C1257 1.524 . S
C1258 C1259 1.415 . S
C1259 H1229 0.950 . S
C1259 C1254 1.363 . S
C1259 C1258 1.415 . S
H1260 C1257 0.999 . S
H1261 C1242 0.913 . S
H1262 C1280 0.951 . S
H1263 C1282 0.951 . S
H1264 C1284 0.950 . S
H1265 C1285 0.950 . S
H1266 C1287 0.950 . S
H1267 C1290 0.950 . S
H1268 C1291 0.950 . S
H1269 C1293 0.950 . S
H1270 C1294 0.950 . S
H1271 C1295 0.951 . S
H1272 C1297 0.951 . S
H1273 C1299 0.950 . S
H1274 C1300 0.950 . S
H1275 C1302 0.950 . S
H1276 C1305 0.950 . S
H1277 C1306 0.950 . S
H1278 C1308 0.950 . S
H1279 C1309 0.950 . S
C1280 H1262 0.951 . S
C1280 C1281 1.366 . S
C1280 C1282 1.388 . S
C1281 C1280 1.366 . S
C1281 C1285 1.385 . S
C1282 H1263 0.951 . S
C1282 C1280 1.388 . S
C1282 C1283 1.366 . S
C1283 C1282 1.366 . S
C1283 C1284 1.414 . S
C1283 C1286 1.499 . S
C1284 H1264 0.950 . S
C1284 C1283 1.414 . S
C1284 C1285 1.374 . S
C1285 H1265 0.950 . S
C1285 C1281 1.385 . S
C1285 C1284 1.374 . S
C1286 C1283 1.499 . S
C1286 C1287 1.373 . S
C1286 C1288 1.389 . S
C1287 H1266 0.950 . S
C1287 C1286 1.373 . S
C1287 C1303 1.377 . S
C1288 C1286 1.389 . S
C1288 C1289 1.524 . S
C1288 C1302 1.377 . S
C1289 C1288 1.524 . S
C1289 C1290 1.397 . S
C1289 C1294 1.363 . S
C1290 H1267 0.950 . S
C1290 C1289 1.397 . S
C1290 C1291 1.334 . S
C1291 H1268 0.950 . S
C1291 C1290 1.334 . S
C1291 C1292 1.287 . S
C1292 C1291 1.287 . S
C1292 C1293 1.524 . S
C1292 H1311 0.913 . S
C1293 H1269 0.950 . S
C1293 C1292 1.524 . S
C1293 C1294 1.415 . S
C1294 H1270 0.950 . S
C1294 C1289 1.363 . S
C1294 C1293 1.415 . S
C1295 H1271 0.951 . S
C1295 C1296 1.366 . S
C1295 C1297 1.388 . S
C1296 C1295 1.366 . S
C1296 C1300 1.385 . S
C1297 H1272 0.951 . S
C1297 C1295 1.388 . S
C1297 C1298 1.366 . S
C1298 C1297 1.366 . S
C1298 C1299 1.414 . S
C1298 C1301 1.499 . S
C1299 H1273 0.950 . S
C1299 C1298 1.414 . S
C1299 C1300 1.374 . S
C1300 H1274 0.950 . S
C1300 C1296 1.385 . S
C1300 C1299 1.374 . S
C1301 C1298 1.499 . S
C1301 C1302 1.373 . S
C1301 C1303 1.389 . S
C1302 H1275 0.950 . S
C1302 C1288 1.377 . S
C1302 C1301 1.373 . S
C1303 C1287 1.377 . S
C1303 C1301 1.389 . S
C1303 C1304 1.524 . S
C1304 C1303 1.524 . S
C1304 C1305 1.397 . S
C1304 C1309 1.363 . S
C1305 H1276 0.950 . S
C1305 C1304 1.397 . S
C1305 C1306 1.334 . S
C1306 H1277 0.950 . S
C1306 C1305 1.334 . S
C1306 C1307 1.287 . S
C1307 C1306 1.287 . S
C1307 C1308 1.524 . S
C1307 H1310 0.999 . S
C1308 H1278 0.950 . S
C1308 C1307 1.524 . S
C1308 C1309 1.415 . S
C1309 H1279 0.950 . S
C1309 C1304 1.363 . S
C1309 C1308 1.415 . S
H1310 C1307 0.999 . S
H1311 C1292 0.913 . S
H1312 C1330 0.951 . S
H1313 C1332 0.951 . S
H1314 C1334 0.950 . S
H1315 C1335 0.950 . S
H1316 C1337 0.950 . S
H1317 C1340 0.950 . S
H1318 C1341 0.950 . S
H1319 C1343 0.950 . S
H1320 C1344 0.950 . S
H1321 C1345 0.951 . S
H1322 C1347 0.951 . S
H1323 C1349 0.950 . S
H1324 C1350 0.950 . S
H1325 C1352 0.950 . S
H1326 C1355 0.950 . S
H1327 C1356 0.950 . S
H1328 C1358 0.950 1_565 S
H1329 C1359 0.950 . S
C1330 H1312 0.951 . S
C1330 C1331 1.366 . S
C1330 C1332 1.388 1_565 S
C1331 C1330 1.366 . S
C1331 C1335 1.385 . S
C1332 H1313 0.951 . S
C1332 C1330 1.388 1_545 S
C1332 C1333 1.366 . S
C1333 C1332 1.366 . S
C1333 C1334 1.414 1_545 S
C1333 C1336 1.499 . S
C1334 H1314 0.950 . S
C1334 C1333 1.414 1_565 S
C1334 C1335 1.374 . S
C1335 H1315 0.950 . S
C1335 C1331 1.385 . S
C1335 C1334 1.374 . S
C1336 C1333 1.499 . S
C1336 C1337 1.373 . S
C1336 C1338 1.389 . S
C1337 H1316 0.950 . S
C1337 C1336 1.373 . S
C1337 C1353 1.377 . S
C1338 C1336 1.389 . S
C1338 C1339 1.524 . S
C1338 C1352 1.377 . S
C1339 C1338 1.524 . S
C1339 C1340 1.397 . S
C1339 C1344 1.363 . S
C1340 H1317 0.950 . S
C1340 C1339 1.397 . S
C1340 C1341 1.334 . S
C1341 H1318 0.950 . S
C1341 C1340 1.334 . S
C1341 C1342 1.287 . S
C1342 C1341 1.287 . S
C1342 C1343 1.524 . S
C1342 H1361 0.913 . S
C1343 H1319 0.950 . S
C1343 C1342 1.524 . S
C1343 C1344 1.415 . S
C1344 H1320 0.950 . S
C1344 C1339 1.363 . S
C1344 C1343 1.415 . S
C1345 H1321 0.951 . S
C1345 C1346 1.366 . S
C1345 C1347 1.388 . S
C1346 C1345 1.366 . S
C1346 C1350 1.385 . S
C1347 H1322 0.951 . S
C1347 C1345 1.388 . S
C1347 C1348 1.366 . S
C1348 C1347 1.366 . S
C1348 C1349 1.414 . S
C1348 C1351 1.499 . S
C1349 H1323 0.950 . S
C1349 C1348 1.414 . S
C1349 C1350 1.374 . S
C1350 H1324 0.950 . S
C1350 C1346 1.385 . S
C1350 C1349 1.374 . S
C1351 C1348 1.499 . S
C1351 C1352 1.373 . S
C1351 C1353 1.389 . S
C1352 H1325 0.950 . S
C1352 C1338 1.377 . S
C1352 C1351 1.373 . S
C1353 C1337 1.377 . S
C1353 C1351 1.389 . S
C1353 C1354 1.524 . S
C1354 C1353 1.524 . S
C1354 C1355 1.397 . S
C1354 C1359 1.363 . S
C1355 H1326 0.950 . S
C1355 C1354 1.397 . S
C1355 C1356 1.334 . S
C1356 H1327 0.950 . S
C1356 C1355 1.334 . S
C1356 C1357 1.287 . S
C1357 C1356 1.287 . S
C1357 C1358 1.524 . S
C1357 H1360 0.999 . S
C1358 H1328 0.950 1_545 S
C1358 C1357 1.524 . S
C1358 C1359 1.415 . S
C1359 H1329 0.950 . S
C1359 C1354 1.363 . S
C1359 C1358 1.415 . S
H1360 C1357 0.999 . S
H1361 C1342 0.913 . S
H1362 C1380 0.951 . S
H1363 C1382 0.951 . S
H1364 C1384 0.950 . S
H1365 C1385 0.950 . S
H1366 C1387 0.950 . S
H1367 C1390 0.950 . S
H1368 C1391 0.950 . S
H1369 C1393 0.950 . S
H1370 C1394 0.950 . S
H1371 C1395 0.951 . S
H1372 C1397 0.951 . S
H1373 C1399 0.950 . S
H1374 C1400 0.950 . S
H1375 C1402 0.950 . S
H1376 C1405 0.950 . S
H1377 C1406 0.950 . S
H1378 C1408 0.950 . S
H1379 C1409 0.950 . S
C1380 H1362 0.951 . S
C1380 C1381 1.366 . S
C1380 C1382 1.388 . S
C1381 C1380 1.366 . S
C1381 C1385 1.385 . S
C1382 H1363 0.951 . S
C1382 C1380 1.388 . S
C1382 C1383 1.366 . S
C1383 C1382 1.366 . S
C1383 C1384 1.414 . S
C1383 C1386 1.499 . S
C1384 H1364 0.950 . S
C1384 C1383 1.414 . S
C1384 C1385 1.374 . S
C1385 H1365 0.950 . S
C1385 C1381 1.385 . S
C1385 C1384 1.374 . S
C1386 C1383 1.499 . S
C1386 C1387 1.373 . S
C1386 C1388 1.389 . S
C1387 H1366 0.950 . S
C1387 C1386 1.373 . S
C1387 C1403 1.377 . S
C1388 C1386 1.389 . S
C1388 C1389 1.524 . S
C1388 C1402 1.377 . S
C1389 C1388 1.524 . S
C1389 C1390 1.397 . S
C1389 C1394 1.363 . S
C1390 H1367 0.950 . S
C1390 C1389 1.397 . S
C1390 C1391 1.334 . S
C1391 H1368 0.950 . S
C1391 C1390 1.334 . S
C1391 C1392 1.287 . S
C1392 C1391 1.287 . S
C1392 C1393 1.524 . S
C1392 H1411 0.913 . S
C1393 H1369 0.950 . S
C1393 C1392 1.524 . S
C1393 C1394 1.415 . S
C1394 H1370 0.950 . S
C1394 C1389 1.363 . S
C1394 C1393 1.415 . S
C1395 H1371 0.951 . S
C1395 C1396 1.366 . S
C1395 C1397 1.388 . S
C1396 C1395 1.366 . S
C1396 C1400 1.385 . S
C1397 H1372 0.951 . S
C1397 C1395 1.388 . S
C1397 C1398 1.366 . S
C1398 C1397 1.366 . S
C1398 C1399 1.414 . S
C1398 C1401 1.499 . S
C1399 H1373 0.950 . S
C1399 C1398 1.414 . S
C1399 C1400 1.374 . S
C1400 H1374 0.950 . S
C1400 C1396 1.385 . S
C1400 C1399 1.374 . S
C1401 C1398 1.499 . S
C1401 C1402 1.373 . S
C1401 C1403 1.389 . S
C1402 H1375 0.950 . S
C1402 C1388 1.377 . S
C1402 C1401 1.373 . S
C1403 C1387 1.377 . S
C1403 C1401 1.389 . S
C1403 C1404 1.524 . S
C1404 C1403 1.524 . S
C1404 C1405 1.397 . S
C1404 C1409 1.363 . S
C1405 H1376 0.950 . S
C1405 C1404 1.397 . S
C1405 C1406 1.334 . S
C1406 H1377 0.950 . S
C1406 C1405 1.334 . S
C1406 C1407 1.287 . S
C1407 C1406 1.287 . S
C1407 C1408 1.524 . S
C1407 H1410 0.999 . S
C1408 H1378 0.950 . S
C1408 C1407 1.524 . S
C1408 C1409 1.415 . S
C1409 H1379 0.950 . S
C1409 C1404 1.363 . S
C1409 C1408 1.415 . S
H1410 C1407 0.999 . S
H1411 C1392 0.913 . S
H1412 C1430 0.951 . S
H1413 C1432 0.951 . S
H1414 C1434 0.912 1_545 S
H1415 C1435 0.950 . S
H1416 C1437 0.950 . S
H1417 C1440 0.950 . S
H1418 C1441 0.950 . S
H1419 C1443 0.950 . S
H1420 C1444 0.950 . S
H1421 C1445 0.951 . S
H1422 C1447 0.951 . S
H1423 C1449 0.950 . S
H1424 C1450 0.950 . S
H1425 C1452 0.950 . S
H1426 C1455 0.950 . S
H1427 C1456 0.950 . S
H1428 C1458 0.950 . S
H1429 C1459 0.950 . S
C1430 H1412 0.951 . S
C1430 C1431 1.366 . S
C1430 C1432 1.388 . S
C1431 C1430 1.366 . S
C1431 C1435 1.385 . S
C1432 H1413 0.951 . S
C1432 C1430 1.388 . S
C1432 C1433 1.366 . S
C1433 C1432 1.366 . S
C1433 C1434 1.414 . S
C1433 C1436 1.499 1_565 S
C1434 H1414 0.912 1_565 S
C1434 C1433 1.414 . S
C1434 C1435 1.374 . S
C1435 H1415 0.950 . S
C1435 C1431 1.385 . S
C1435 C1434 1.374 . S
C1436 C1433 1.499 1_545 S
C1436 C1437 1.373 . S
C1436 C1438 1.389 . S
C1437 H1416 0.950 . S
C1437 C1436 1.373 . S
C1437 C1453 1.377 . S
C1438 C1436 1.389 . S
C1438 C1439 1.524 1_545 S
C1438 C1452 1.377 . S
C1439 C1438 1.524 1_565 S
C1439 C1440 1.397 . S
C1439 C1444 1.363 . S
C1440 H1417 0.950 . S
C1440 C1439 1.397 . S
C1440 C1441 1.334 . S
C1441 H1418 0.950 . S
C1441 C1440 1.334 . S
C1441 C1442 1.287 . S
C1442 C1441 1.287 . S
C1442 C1443 1.524 . S
C1442 H1461 0.913 . S
C1443 H1419 0.950 . S
C1443 C1442 1.524 . S
C1443 C1444 1.415 . S
C1444 H1420 0.950 . S
C1444 C1439 1.363 . S
C1444 C1443 1.415 . S
C1445 H1421 0.951 . S
C1445 C1446 1.366 . S
C1445 C1447 1.388 . S
C1446 C1445 1.366 . S
C1446 C1450 1.385 . S
C1447 H1422 0.951 . S
C1447 C1445 1.388 . S
C1447 C1448 1.366 . S
C1448 C1447 1.366 . S
C1448 C1449 1.414 . S
C1448 C1451 1.499 . S
C1449 H1423 0.950 . S
C1449 C1448 1.414 . S
C1449 C1450 1.374 . S
C1450 H1424 0.950 . S
C1450 C1446 1.385 . S
C1450 C1449 1.374 . S
C1451 C1448 1.499 . S
C1451 C1452 1.373 . S
C1451 C1453 1.389 . S
C1452 H1425 0.950 . S
C1452 C1438 1.377 . S
C1452 C1451 1.373 . S
C1453 C1437 1.377 . S
C1453 C1451 1.389 . S
C1453 C1454 1.524 . S
C1454 C1453 1.524 . S
C1454 C1455 1.397 . S
C1454 C1459 1.363 . S
C1455 H1426 0.950 . S
C1455 C1454 1.397 . S
C1455 C1456 1.334 . S
C1456 H1427 0.950 . S
C1456 C1455 1.334 . S
C1456 C1457 1.287 . S
C1457 C1456 1.287 . S
C1457 C1458 1.524 . S
C1457 H1460 0.999 . S
C1458 H1428 0.950 . S
C1458 C1457 1.524 . S
C1458 C1459 1.415 . S
C1459 H1429 0.950 . S
C1459 C1454 1.363 . S
C1459 C1458 1.415 . S
H1460 C1457 0.999 . S
H1461 C1442 0.913 . S
H1462 C1480 0.951 . S
H1463 C1482 0.951 . S
H1464 C1484 0.950 . S
H1465 C1485 0.950 . S
H1466 C1487 0.950 . S
H1467 C1490 0.950 . S
H1468 C1491 0.950 . S
H1469 C1493 0.950 . S
H1470 C1494 0.950 . S
H1471 C1495 0.951 . S
H1472 C1497 0.951 . S
H1473 C1499 0.950 . S
H1474 C1500 0.950 . S
H1475 C1502 0.950 . S
H1476 C1505 0.950 . S
H1477 C1506 0.950 . S
H1478 C1508 0.950 . S
H1479 C1509 0.950 . S
C1480 H1462 0.951 . S
C1480 C1481 1.366 . S
C1480 C1482 1.388 . S
C1481 C1480 1.366 . S
C1481 C1485 1.385 . S
C1482 H1463 0.951 . S
C1482 C1480 1.388 . S
C1482 C1483 1.366 . S
C1483 C1482 1.366 . S
C1483 C1484 1.414 . S
C1483 C1486 1.499 . S
C1484 H1464 0.950 . S
C1484 C1483 1.414 . S
C1484 C1485 1.374 . S
C1485 H1465 0.950 . S
C1485 C1481 1.385 . S
C1485 C1484 1.374 . S
C1486 C1483 1.499 . S
C1486 C1487 1.373 . S
C1486 C1488 1.389 . S
C1487 H1466 0.950 . S
C1487 C1486 1.373 . S
C1487 C1503 1.377 . S
C1488 C1486 1.389 . S
C1488 C1489 1.524 . S
C1488 C1502 1.377 . S
C1489 C1488 1.524 . S
C1489 C1490 1.397 . S
C1489 C1494 1.363 . S
C1490 H1467 0.950 . S
C1490 C1489 1.397 . S
C1490 C1491 1.334 . S
C1491 H1468 0.950 . S
C1491 C1490 1.334 . S
C1491 C1492 1.287 . S
C1492 C1491 1.287 . S
C1492 C1493 1.524 . S
C1492 H1511 0.913 . S
C1493 H1469 0.950 . S
C1493 C1492 1.524 . S
C1493 C1494 1.415 . S
C1494 H1470 0.950 . S
C1494 C1489 1.363 . S
C1494 C1493 1.415 . S
C1495 H1471 0.951 . S
C1495 C1496 1.366 . S
C1495 C1497 1.388 . S
C1496 C1495 1.366 . S
C1496 C1500 1.385 . S
C1497 H1472 0.951 . S
C1497 C1495 1.388 . S
C1497 C1498 1.366 . S
C1498 C1497 1.366 . S
C1498 C1499 1.414 . S
C1498 C1501 1.499 . S
C1499 H1473 0.950 . S
C1499 C1498 1.414 . S
C1499 C1500 1.374 . S
C1500 H1474 0.950 . S
C1500 C1496 1.385 . S
C1500 C1499 1.374 . S
C1501 C1498 1.499 . S
C1501 C1502 1.373 . S
C1501 C1503 1.389 . S
C1502 H1475 0.950 . S
C1502 C1488 1.377 . S
C1502 C1501 1.373 . S
C1503 C1487 1.377 . S
C1503 C1501 1.389 . S
C1503 C1504 1.524 . S
C1504 C1503 1.524 . S
C1504 C1505 1.397 . S
C1504 C1509 1.363 . S
C1505 H1476 0.950 . S
C1505 C1504 1.397 . S
C1505 C1506 1.334 . S
C1506 H1477 0.950 . S
C1506 C1505 1.334 . S
C1506 C1507 1.287 . S
C1507 C1506 1.287 . S
C1507 C1508 1.524 . S
C1507 H1510 0.999 . S
C1508 H1478 0.950 . S
C1508 C1507 1.524 . S
C1508 C1509 1.415 . S
C1509 H1479 0.950 . S
C1509 C1504 1.363 . S
C1509 C1508 1.415 . S
H1510 C1507 0.999 . S
H1511 C1492 0.913 . S
H1512 C1530 0.951 . S
H1513 C1532 0.951 . S
H1514 C1534 0.950 . S
H1515 C1535 0.950 . S
H1516 C1537 0.950 . S
H1517 C1540 0.950 . S
H1518 C1541 0.950 . S
H1519 C1543 0.950 . S
H1520 C1544 0.950 . S
H1521 C1545 0.951 . S
H1522 C1547 0.951 . S
H1523 C1549 0.950 . S
H1524 C1550 0.950 . S
H1525 C1552 0.950 . S
H1526 C1555 0.950 . S
H1527 C1556 0.950 . S
H1528 C1558 0.950 . S
H1529 C1559 0.950 . S
C1530 H1512 0.951 . S
C1530 C1531 1.366 . S
C1530 C1532 1.388 . S
C1531 C1530 1.366 . S
C1531 C1535 1.385 . S
C1532 H1513 0.951 . S
C1532 C1530 1.388 . S
C1532 C1533 1.366 . S
C1533 C1532 1.366 . S
C1533 C1534 1.414 . S
C1533 C1536 1.499 . S
C1534 H1514 0.950 . S
C1534 C1533 1.414 . S
C1534 C1535 1.374 . S
C1535 H1515 0.950 . S
C1535 C1531 1.385 . S
C1535 C1534 1.374 . S
C1536 C1533 1.499 . S
C1536 C1537 1.373 . S
C1536 C1538 1.389 . S
C1537 H1516 0.950 . S
C1537 C1536 1.373 . S
C1537 C1553 1.377 . S
C1538 C1536 1.389 . S
C1538 C1539 1.524 . S
C1538 C1552 1.377 . S
C1539 C1538 1.524 . S
C1539 C1540 1.397 . S
C1539 C1544 1.363 . S
C1540 H1517 0.950 . S
C1540 C1539 1.397 . S
C1540 C1541 1.334 . S
C1541 H1518 0.950 . S
C1541 C1540 1.334 . S
C1541 C1542 1.287 . S
C1542 C1541 1.287 . S
C1542 C1543 1.524 . S
C1542 H1561 0.913 . S
C1543 H1519 0.950 . S
C1543 C1542 1.524 . S
C1543 C1544 1.415 . S
C1544 H1520 0.950 . S
C1544 C1539 1.363 . S
C1544 C1543 1.415 . S
C1545 H1521 0.951 . S
C1545 C1546 1.366 . S
C1545 C1547 1.388 . S
C1546 C1545 1.366 . S
C1546 C1550 1.385 . S
C1547 H1522 0.951 . S
C1547 C1545 1.388 . S
C1547 C1548 1.366 . S
C1548 C1547 1.366 . S
C1548 C1549 1.414 . S
C1548 C1551 1.499 . S
C1549 H1523 0.950 . S
C1549 C1548 1.414 . S
C1549 C1550 1.374 . S
C1550 H1524 0.950 . S
C1550 C1546 1.385 . S
C1550 C1549 1.374 . S
C1551 C1548 1.499 . S
C1551 C1552 1.373 . S
C1551 C1553 1.389 . S
C1552 H1525 0.950 . S
C1552 C1538 1.377 . S
C1552 C1551 1.373 . S
C1553 C1537 1.377 . S
C1553 C1551 1.389 . S
C1553 C1554 1.524 . S
C1554 C1553 1.524 . S
C1554 C1555 1.397 . S
C1554 C1559 1.363 . S
C1555 H1526 0.950 . S
C1555 C1554 1.397 . S
C1555 C1556 1.334 . S
C1556 H1527 0.950 . S
C1556 C1555 1.334 . S
C1556 C1557 1.287 . S
C1557 C1556 1.287 . S
C1557 C1558 1.524 . S
C1557 H1560 0.999 . S
C1558 H1528 0.950 . S
C1558 C1557 1.524 . S
C1558 C1559 1.415 . S
C1559 H1529 0.950 . S
C1559 C1554 1.363 . S
C1559 C1558 1.415 . S
H1560 C1557 0.999 . S
H1561 C1542 0.913 . S
H1562 C1580 0.951 . S
H1563 C1582 0.951 . S
H1564 C1584 0.950 . S
H1565 C1585 0.950 . S
H1566 C1587 0.950 . S
H1567 C1590 0.950 . S
H1568 C1591 0.950 . S
H1569 C1593 0.950 . S
H1570 C1594 0.950 . S
H1571 C1595 0.951 . S
H1572 C1597 0.951 . S
H1573 C1599 0.950 . S
H1574 C1600 0.950 . S
H1575 C1602 0.950 . S
H1576 C1605 0.950 . S
H1577 C1606 0.950 . S
H1578 C1608 0.950 1_565 S
H1579 C1609 0.950 . S
C1580 H1562 0.951 . S
C1580 C1581 1.366 . S
C1580 C1582 1.388 . S
C1581 C1580 1.366 . S
C1581 C1585 1.385 . S
C1582 H1563 0.951 . S
C1582 C1580 1.388 . S
C1582 C1583 1.366 . S
C1583 C1582 1.366 . S
C1583 C1584 1.414 . S
C1583 C1586 1.499 . S
C1584 H1564 0.950 . S
C1584 C1583 1.414 . S
C1584 C1585 1.374 . S
C1585 H1565 0.950 . S
C1585 C1581 1.385 . S
C1585 C1584 1.374 . S
C1586 C1583 1.499 . S
C1586 C1587 1.373 . S
C1586 C1588 1.389 . S
C1587 H1566 0.950 . S
C1587 C1586 1.373 . S
C1587 C1603 1.377 . S
C1588 C1586 1.389 . S
C1588 C1589 1.524 . S
C1588 C1602 1.377 . S
C1589 C1588 1.524 . S
C1589 C1590 1.397 . S
C1589 C1594 1.363 . S
C1590 H1567 0.950 . S
C1590 C1589 1.397 . S
C1590 C1591 1.334 . S
C1591 H1568 0.950 . S
C1591 C1590 1.334 . S
C1591 C1592 1.287 . S
C1592 C1591 1.287 . S
C1592 C1593 1.524 . S
C1592 H1611 0.913 . S
C1593 H1569 0.950 . S
C1593 C1592 1.524 . S
C1593 C1594 1.415 . S
C1594 H1570 0.950 . S
C1594 C1589 1.363 . S
C1594 C1593 1.415 . S
C1595 H1571 0.951 . S
C1595 C1596 1.366 . S
C1595 C1597 1.388 . S
C1596 C1595 1.366 . S
C1596 C1600 1.385 . S
C1597 H1572 0.951 . S
C1597 C1595 1.388 . S
C1597 C1598 1.366 . S
C1598 C1597 1.366 . S
C1598 C1599 1.414 . S
C1598 C1601 1.499 . S
C1599 H1573 0.950 . S
C1599 C1598 1.414 . S
C1599 C1600 1.374 . S
C1600 H1574 0.950 . S
C1600 C1596 1.385 . S
C1600 C1599 1.374 . S
C1601 C1598 1.499 . S
C1601 C1602 1.373 . S
C1601 C1603 1.389 . S
C1602 H1575 0.950 . S
C1602 C1588 1.377 . S
C1602 C1601 1.373 . S
C1603 C1587 1.377 . S
C1603 C1601 1.389 . S
C1603 C1604 1.524 . S
C1604 C1603 1.524 . S
C1604 C1605 1.397 . S
C1604 C1609 1.363 . S
C1605 H1576 0.950 . S
C1605 C1604 1.397 . S
C1605 C1606 1.334 1_545 S
C1606 H1577 0.950 . S
C1606 C1605 1.334 1_565 S
C1606 C1607 1.287 . S
C1607 C1606 1.287 . S
C1607 C1608 1.529 1_565 S
C1607 H1610 0.999 . S
C1608 H1578 0.950 1_545 S
C1608 C1607 1.529 1_545 S
C1608 C1609 1.409 . S
C1609 H1579 0.950 . S
C1609 C1604 1.363 . S
C1609 C1608 1.409 . S
H1610 C1607 0.999 . S
H1611 C1592 0.913 . S
H1612 C1630 0.951 . S
H1613 C1632 0.951 . S
H1614 C1634 0.950 . S
H1615 C1635 0.950 . S
H1616 C1637 0.950 . S
H1617 C1640 0.950 . S
H1618 C1641 0.950 . S
H1619 C1643 0.950 . S
H1620 C1644 0.950 . S
H1621 C1645 0.951 . S
H1622 C1647 0.951 . S
H1623 C1649 0.950 . S
H1624 C1650 0.950 . S
H1625 C1652 0.950 . S
H1626 C1655 0.950 . S
H1627 C1656 0.950 . S
H1628 C1658 0.950 . S
H1629 C1659 0.950 . S
C1630 H1612 0.951 . S
C1630 C1631 1.366 . S
C1630 C1632 1.388 . S
C1631 C1630 1.366 . S
C1631 C1635 1.385 . S
C1632 H1613 0.951 . S
C1632 C1630 1.388 . S
C1632 C1633 1.366 . S
C1633 C1632 1.366 . S
C1633 C1634 1.414 . S
C1633 C1636 1.499 . S
C1634 H1614 0.950 . S
C1634 C1633 1.414 . S
C1634 C1635 1.374 . S
C1635 H1615 0.950 . S
C1635 C1631 1.385 . S
C1635 C1634 1.374 . S
C1636 C1633 1.499 . S
C1636 C1637 1.373 . S
C1636 C1638 1.389 . S
C1637 H1616 0.950 . S
C1637 C1636 1.373 . S
C1637 C1653 1.377 . S
C1638 C1636 1.389 . S
C1638 C1639 1.524 . S
C1638 C1652 1.377 . S
C1639 C1638 1.524 . S
C1639 C1640 1.397 . S
C1639 C1644 1.363 . S
C1640 H1617 0.950 . S
C1640 C1639 1.397 . S
C1640 C1641 1.334 . S
C1641 H1618 0.950 . S
C1641 C1640 1.334 . S
C1641 C1642 1.287 . S
C1642 C1641 1.287 . S
C1642 C1643 1.524 . S
C1642 H1661 0.913 . S
C1643 H1619 0.950 . S
C1643 C1642 1.524 . S
C1643 C1644 1.415 . S
C1644 H1620 0.950 . S
C1644 C1639 1.363 . S
C1644 C1643 1.415 . S
C1645 H1621 0.951 . S
C1645 C1646 1.366 . S
C1645 C1647 1.388 . S
C1646 C1645 1.366 . S
C1646 C1650 1.385 . S
C1647 H1622 0.951 . S
C1647 C1645 1.388 . S
C1647 C1648 1.366 . S
C1648 C1647 1.366 . S
C1648 C1649 1.414 . S
C1648 C1651 1.499 . S
C1649 H1623 0.950 . S
C1649 C1648 1.414 . S
C1649 C1650 1.374 . S
C1650 H1624 0.950 . S
C1650 C1646 1.385 . S
C1650 C1649 1.374 . S
C1651 C1648 1.499 . S
C1651 C1652 1.373 . S
C1651 C1653 1.389 . S
C1652 H1625 0.950 . S
C1652 C1638 1.377 . S
C1652 C1651 1.373 . S
C1653 C1637 1.377 . S
C1653 C1651 1.389 . S
C1653 C1654 1.524 . S
C1654 C1653 1.524 . S
C1654 C1655 1.397 . S
C1654 C1659 1.363 . S
C1655 H1626 0.950 . S
C1655 C1654 1.397 . S
C1655 C1656 1.334 . S
C1656 H1627 0.950 . S
C1656 C1655 1.334 . S
C1656 C1657 1.287 . S
C1657 C1656 1.287 . S
C1657 C1658 1.524 . S
C1657 H1660 0.999 . S
C1658 H1628 0.950 . S
C1658 C1657 1.524 . S
C1658 C1659 1.415 . S
C1659 H1629 0.950 . S
C1659 C1654 1.363 . S
C1659 C1658 1.415 . S
H1660 C1657 0.999 . S
H1661 C1642 0.913 . S
H1662 C1680 0.951 . S
H1663 C1682 0.951 . S
H1664 C1684 0.950 . S
H1665 C1685 0.950 . S
H1666 C1687 0.950 . S
H1667 C1690 0.950 . S
H1668 C1691 0.950 . S
H1669 C1693 0.950 . S
H1670 C1694 0.950 . S
H1671 C1695 0.951 . S
H1672 C1697 0.951 . S
H1673 C1699 0.950 . S
H1674 C1700 0.950 . S
H1675 C1702 0.950 . S
H1676 C1705 0.950 . S
H1677 C1706 0.950 . S
H1678 C1708 0.950 . S
H1679 C1709 0.950 . S
C1680 H1662 0.951 . S
C1680 C1681 1.366 . S
C1680 C1682 1.388 . S
C1681 C1680 1.366 . S
C1681 C1685 1.385 . S
C1682 H1663 0.951 . S
C1682 C1680 1.388 . S
C1682 C1683 1.366 . S
C1683 C1682 1.366 . S
C1683 C1684 1.414 . S
C1683 C1686 1.499 . S
C1684 H1664 0.950 . S
C1684 C1683 1.414 . S
C1684 C1685 1.374 . S
C1685 H1665 0.950 . S
C1685 C1681 1.385 . S
C1685 C1684 1.374 . S
C1686 C1683 1.499 . S
C1686 C1687 1.373 . S
C1686 C1688 1.389 . S
C1687 H1666 0.950 . S
C1687 C1686 1.373 . S
C1687 C1703 1.377 . S
C1688 C1686 1.389 . S
C1688 C1689 1.524 . S
C1688 C1702 1.377 . S
C1689 C1688 1.524 . S
C1689 C1690 1.397 . S
C1689 C1694 1.363 . S
C1690 H1667 0.950 . S
C1690 C1689 1.397 . S
C1690 C1691 1.334 . S
C1691 H1668 0.950 . S
C1691 C1690 1.334 . S
C1691 C1692 1.287 . S
C1692 C1691 1.287 . S
C1692 C1693 1.524 . S
C1692 H1711 0.913 . S
C1693 H1669 0.950 . S
C1693 C1692 1.524 . S
C1693 C1694 1.415 . S
C1694 H1670 0.950 . S
C1694 C1689 1.363 . S
C1694 C1693 1.415 . S
C1695 H1671 0.951 . S
C1695 C1696 1.366 . S
C1695 C1697 1.388 . S
C1696 C1695 1.366 . S
C1696 C1700 1.385 . S
C1697 H1672 0.951 . S
C1697 C1695 1.388 . S
C1697 C1698 1.366 . S
C1698 C1697 1.366 . S
C1698 C1699 1.414 . S
C1698 C1701 1.499 . S
C1699 H1673 0.950 . S
C1699 C1698 1.414 . S
C1699 C1700 1.374 . S
C1700 H1674 0.950 . S
C1700 C1696 1.385 . S
C1700 C1699 1.374 . S
C1701 C1698 1.499 . S
C1701 C1702 1.373 . S
C1701 C1703 1.389 . S
C1702 H1675 0.950 . S
C1702 C1688 1.377 . S
C1702 C1701 1.373 . S
C1703 C1687 1.377 . S
C1703 C1701 1.389 . S
C1703 C1704 1.524 . S
C1704 C1703 1.524 . S
C1704 C1705 1.397 . S
C1704 C1709 1.363 . S
C1705 H1676 0.950 . S
C1705 C1704 1.397 . S
C1705 C1706 1.334 . S
C1706 H1677 0.950 . S
C1706 C1705 1.334 . S
C1706 C1707 1.287 . S
C1707 C1706 1.287 . S
C1707 C1708 1.524 . S
C1707 H1710 0.999 . S
C1708 H1678 0.950 . S
C1708 C1707 1.524 . S
C1708 C1709 1.415 . S
C1709 H1679 0.950 . S
C1709 C1704 1.363 . S
C1709 C1708 1.415 . S
H1710 C1707 0.999 . S
H1711 C1692 0.913 . S
H1712 C1730 0.951 . S
H1713 C1732 0.951 . S
H1714 C1734 0.950 . S
H1715 C1735 0.950 . S
H1716 C1737 0.950 . S
H1717 C1740 0.950 . S
H1718 C1741 0.950 . S
H1719 C1743 0.950 . S
H1720 C1744 0.950 . S
H1721 C1745 0.951 . S
H1722 C1747 0.951 . S
H1723 C1749 0.950 . S
H1724 C1750 0.950 . S
H1725 C1752 0.950 . S
H1726 C1755 0.950 . S
H1727 C1756 0.950 . S
H1728 C1758 0.950 . S
H1729 C1759 0.950 . S
C1730 H1712 0.951 . S
C1730 C1731 1.366 . S
C1730 C1732 1.388 . S
C1731 C1730 1.366 . S
C1731 C1735 1.385 . S
C1732 H1713 0.951 . S
C1732 C1730 1.388 . S
C1732 C1733 1.366 . S
C1733 C1732 1.366 . S
C1733 C1734 1.414 . S
C1733 C1736 1.499 . S
C1734 H1714 0.950 . S
C1734 C1733 1.414 . S
C1734 C1735 1.374 . S
C1735 H1715 0.950 . S
C1735 C1731 1.385 . S
C1735 C1734 1.374 . S
C1736 C1733 1.499 . S
C1736 C1737 1.373 . S
C1736 C1738 1.389 . S
C1737 H1716 0.950 . S
C1737 C1736 1.373 . S
C1737 C1753 1.377 . S
C1738 C1736 1.389 . S
C1738 C1739 1.524 . S
C1738 C1752 1.377 . S
C1739 C1738 1.524 . S
C1739 C1740 1.397 . S
C1739 C1744 1.363 . S
C1740 H1717 0.950 . S
C1740 C1739 1.397 . S
C1740 C1741 1.334 . S
C1741 H1718 0.950 . S
C1741 C1740 1.334 . S
C1741 C1742 1.287 . S
C1742 C1741 1.287 . S
C1742 C1743 1.524 . S
C1742 H1761 0.913 . S
C1743 H1719 0.950 . S
C1743 C1742 1.524 . S
C1743 C1744 1.415 . S
C1744 H1720 0.950 . S
C1744 C1739 1.363 . S
C1744 C1743 1.415 . S
C1745 H1721 0.951 . S
C1745 C1746 1.366 . S
C1745 C1747 1.388 . S
C1746 C1745 1.366 . S
C1746 C1750 1.385 . S
C1747 H1722 0.951 . S
C1747 C1745 1.388 . S
C1747 C1748 1.366 . S
C1748 C1747 1.366 . S
C1748 C1749 1.414 . S
C1748 C1751 1.499 . S
C1749 H1723 0.950 . S
C1749 C1748 1.414 . S
C1749 C1750 1.374 . S
C1750 H1724 0.950 . S
C1750 C1746 1.385 . S
C1750 C1749 1.374 . S
C1751 C1748 1.499 . S
C1751 C1752 1.373 . S
C1751 C1753 1.389 . S
C1752 H1725 0.950 . S
C1752 C1738 1.377 . S
C1752 C1751 1.373 . S
C1753 C1737 1.377 . S
C1753 C1751 1.389 . S
C1753 C1754 1.524 . S
C1754 C1753 1.524 . S
C1754 C1755 1.397 . S
C1754 C1759 1.363 . S
C1755 H1726 0.950 . S
C1755 C1754 1.397 . S
C1755 C1756 1.334 . S
C1756 H1727 0.950 . S
C1756 C1755 1.334 . S
C1756 C1757 1.287 . S
C1757 C1756 1.287 . S
C1757 C1758 1.524 . S
C1757 H1760 0.999 . S
C1758 H1728 0.950 . S
C1758 C1757 1.524 . S
C1758 C1759 1.415 . S
C1759 H1729 0.950 . S
C1759 C1754 1.363 . S
C1759 C1758 1.415 . S
H1760 C1757 0.999 . S
H1761 C1742 0.913 . S
H1762 C1780 0.951 . S
H1763 C1782 0.951 . S
H1764 C1784 0.950 . S
H1765 C1785 0.950 . S
H1766 C1787 0.950 . S
H1767 C1790 0.950 . S
H1768 C1791 0.950 . S
H1769 C1793 0.950 . S
H1770 C1794 0.950 . S
H1771 C1795 0.951 . S
H1772 C1797 0.951 . S
H1773 C1799 0.950 . S
H1774 C1800 0.950 . S
H1775 C1802 0.950 . S
H1776 C1805 0.950 . S
H1777 C1806 0.950 . S
H1778 C1808 0.950 . S
H1779 C1809 0.950 . S
C1780 H1762 0.951 . S
C1780 C1781 1.366 . S
C1780 C1782 1.388 . S
C1781 C1780 1.366 . S
C1781 C1785 1.385 . S
C1782 H1763 0.951 . S
C1782 C1780 1.388 . S
C1782 C1783 1.366 . S
C1783 C1782 1.366 . S
C1783 C1784 1.414 . S
C1783 C1786 1.499 . S
C1784 H1764 0.950 . S
C1784 C1783 1.414 . S
C1784 C1785 1.374 . S
C1785 H1765 0.950 . S
C1785 C1781 1.385 . S
C1785 C1784 1.374 . S
C1786 C1783 1.499 . S
C1786 C1787 1.373 . S
C1786 C1788 1.389 . S
C1787 H1766 0.950 . S
C1787 C1786 1.373 . S
C1787 C1803 1.377 1_455 S
C1788 C1786 1.389 . S
C1788 C1789 1.524 . S
C1788 C1802 1.377 . S
C1789 C1788 1.524 . S
C1789 C1790 1.397 . S
C1789 C1794 1.363 . S
C1790 H1767 0.950 . S
C1790 C1789 1.397 . S
C1790 C1791 1.334 . S
C1791 H1768 0.950 . S
C1791 C1790 1.334 . S
C1791 C1792 1.287 . S
C1792 C1791 1.287 . S
C1792 C1793 1.524 . S
C1792 H1811 0.913 . S
C1793 H1769 0.950 . S
C1793 C1792 1.524 . S
C1793 C1794 1.415 . S
C1794 H1770 0.950 . S
C1794 C1789 1.363 . S
C1794 C1793 1.415 . S
C1795 H1771 0.951 . S
C1795 C1796 1.366 . S
C1795 C1797 1.388 . S
C1796 C1795 1.366 . S
C1796 C1800 1.385 . S
C1797 H1772 0.951 . S
C1797 C1795 1.388 . S
C1797 C1798 1.366 . S
C1798 C1797 1.366 . S
C1798 C1799 1.414 . S
C1798 C1801 1.499 . S
C1799 H1773 0.950 . S
C1799 C1798 1.414 . S
C1799 C1800 1.374 . S
C1800 H1774 0.950 . S
C1800 C1796 1.385 . S
C1800 C1799 1.374 . S
C1801 C1798 1.499 . S
C1801 C1802 1.373 1_655 S
C1801 C1803 1.389 . S
C1802 H1775 0.950 . S
C1802 C1788 1.377 . S
C1802 C1801 1.373 1_455 S
C1803 C1787 1.377 1_655 S
C1803 C1801 1.389 . S
C1803 C1804 1.524 . S
C1804 C1803 1.524 . S
C1804 C1805 1.397 . S
C1804 C1809 1.363 . S
C1805 H1776 0.950 . S
C1805 C1804 1.397 . S
C1805 C1806 1.334 . S
C1806 H1777 0.950 . S
C1806 C1805 1.334 . S
C1806 C1807 1.287 . S
C1807 C1806 1.287 . S
C1807 C1808 1.524 . S
C1807 H1810 0.999 . S
C1808 H1778 0.950 . S
C1808 C1807 1.524 . S
C1808 C1809 1.415 . S
C1809 H1779 0.950 . S
C1809 C1804 1.363 . S
C1809 C1808 1.415 . S
H1810 C1807 0.999 . S
H1811 C1792 0.913 . S
H1812 C1830 0.951 . S
H1813 C1832 0.951 . S
H1814 C1834 0.950 . S
H1815 C1835 0.950 . S
H1816 C1837 0.950 . S
H1817 C1840 0.950 . S
H1818 C1841 0.950 . S
H1819 C1843 0.950 . S
H1820 C1844 0.950 . S
H1821 C1845 0.951 . S
H1822 C1847 0.951 . S
H1823 C1849 0.950 . S
H1824 C1850 0.950 . S
H1825 C1852 0.950 . S
H1826 C1855 0.950 . S
H1827 C1856 0.950 . S
H1828 C1858 0.950 . S
H1829 C1859 0.950 . S
C1830 H1812 0.951 . S
C1830 C1831 1.366 . S
C1830 C1832 1.388 . S
C1831 C1830 1.366 . S
C1831 C1835 1.385 . S
C1832 H1813 0.951 . S
C1832 C1830 1.388 . S
C1832 C1833 1.366 . S
C1833 C1832 1.366 . S
C1833 C1834 1.414 . S
C1833 C1836 1.499 . S
C1834 H1814 0.950 . S
C1834 C1833 1.414 . S
C1834 C1835 1.374 . S
C1835 H1815 0.950 . S
C1835 C1831 1.385 . S
C1835 C1834 1.374 . S
C1836 C1833 1.499 . S
C1836 C1837 1.373 . S
C1836 C1838 1.389 . S
C1837 H1816 0.950 . S
C1837 C1836 1.373 . S
C1837 C1853 1.377 . S
C1838 C1836 1.389 . S
C1838 C1839 1.524 . S
C1838 C1852 1.377 . S
C1839 C1838 1.524 . S
C1839 C1840 1.397 . S
C1839 C1844 1.363 . S
C1840 H1817 0.950 . S
C1840 C1839 1.397 . S
C1840 C1841 1.334 . S
C1841 H1818 0.950 . S
C1841 C1840 1.334 . S
C1841 C1842 1.287 . S
C1842 C1841 1.287 . S
C1842 C1843 1.524 . S
C1842 H1861 0.913 . S
C1843 H1819 0.950 . S
C1843 C1842 1.524 . S
C1843 C1844 1.415 . S
C1844 H1820 0.950 . S
C1844 C1839 1.363 . S
C1844 C1843 1.415 . S
C1845 H1821 0.951 . S
C1845 C1846 1.366 . S
C1845 C1847 1.388 . S
C1846 C1845 1.366 . S
C1846 C1850 1.385 . S
C1847 H1822 0.951 . S
C1847 C1845 1.388 . S
C1847 C1848 1.366 . S
C1848 C1847 1.366 . S
C1848 C1849 1.414 . S
C1848 C1851 1.499 . S
C1849 H1823 0.950 . S
C1849 C1848 1.414 . S
C1849 C1850 1.374 . S
C1850 H1824 0.950 . S
C1850 C1846 1.385 . S
C1850 C1849 1.374 . S
C1851 C1848 1.499 . S
C1851 C1852 1.373 . S
C1851 C1853 1.389 . S
C1852 H1825 0.950 . S
C1852 C1838 1.377 . S
C1852 C1851 1.373 . S
C1853 C1837 1.377 . S
C1853 C1851 1.389 . S
C1853 C1854 1.524 . S
C1854 C1853 1.524 . S
C1854 C1855 1.397 . S
C1854 C1859 1.363 . S
C1855 H1826 0.950 . S
C1855 C1854 1.397 . S
C1855 C1856 1.334 . S
C1856 H1827 0.950 . S
C1856 C1855 1.334 . S
C1856 C1857 1.287 . S
C1857 C1856 1.287 . S
C1857 C1858 1.524 . S
C1857 H1860 0.999 . S
C1858 H1828 0.950 . S
C1858 C1857 1.524 . S
C1858 C1859 1.415 . S
C1859 H1829 0.950 . S
C1859 C1854 1.363 . S
C1859 C1858 1.415 . S
H1860 C1857 0.999 . S
H1861 C1842 0.913 . S
H1862 C1880 0.951 . S
H1863 C1882 0.951 . S
H1864 C1884 0.950 . S
H1865 C1885 0.950 . S
H1866 C1887 0.950 . S
H1867 C1890 0.950 . S
H1868 C1891 0.950 . S
H1869 C1893 0.950 . S
H1870 C1894 0.950 . S
H1871 C1895 0.951 . S
H1872 C1897 0.951 . S
H1873 C1899 0.950 . S
H1874 C1900 0.950 . S
H1875 C1902 0.950 1_455 S
H1876 C1905 0.950 . S
H1877 C1906 0.950 . S
H1878 C1908 0.932 1_655 S
H1879 C1909 0.950 . S
C1880 H1862 0.951 . S
C1880 C1881 1.366 . S
C1880 C1882 1.388 . S
C1881 C1880 1.366 . S
C1881 C1885 1.385 . S
C1882 H1863 0.951 . S
C1882 C1880 1.388 . S
C1882 C1883 1.366 . S
C1883 C1882 1.366 . S
C1883 C1884 1.414 . S
C1883 C1886 1.499 . S
C1884 H1864 0.950 . S
C1884 C1883 1.414 . S
C1884 C1885 1.374 . S
C1885 H1865 0.950 . S
C1885 C1881 1.385 . S
C1885 C1884 1.374 . S
C1886 C1883 1.499 . S
C1886 C1887 1.373 . S
C1886 C1888 1.389 . S
C1887 H1866 0.950 . S
C1887 C1886 1.373 . S
C1887 C1903 1.412 . S
C1888 C1886 1.389 . S
C1888 C1889 1.524 . S
C1888 C1902 1.377 . S
C1889 C1888 1.524 . S
C1889 C1890 1.397 . S
C1889 C1894 1.363 . S
C1890 H1867 0.950 . S
C1890 C1889 1.397 . S
C1890 C1891 1.334 . S
C1891 H1868 0.950 . S
C1891 C1890 1.334 . S
C1891 C1892 1.287 . S
C1892 C1891 1.287 . S
C1892 C1893 1.524 . S
C1892 H1911 0.913 . S
C1893 H1869 0.950 . S
C1893 C1892 1.524 . S
C1893 C1894 1.415 . S
C1894 H1870 0.950 . S
C1894 C1889 1.363 . S
C1894 C1893 1.415 . S
C1895 H1871 0.951 . S
C1895 C1896 1.366 . S
C1895 C1897 1.388 . S
C1896 C1895 1.366 . S
C1896 C1900 1.385 . S
C1897 H1872 0.951 . S
C1897 C1895 1.388 . S
C1897 C1898 1.366 . S
C1898 C1897 1.366 . S
C1898 C1899 1.414 . S
C1898 C1901 1.499 . S
C1899 H1873 0.950 . S
C1899 C1898 1.414 . S
C1899 C1900 1.374 . S
C1900 H1874 0.950 . S
C1900 C1896 1.385 . S
C1900 C1899 1.374 . S
C1901 C1898 1.499 . S
C1901 C1902 1.373 1_455 S
C1901 C1903 1.371 1_455 S
C1902 H1875 0.950 1_655 S
C1902 C1888 1.377 . S
C1902 C1901 1.373 1_655 S
C1903 C1887 1.412 . S
C1903 C1901 1.371 1_655 S
C1903 C1904 1.509 1_655 S
C1904 C1903 1.509 1_455 S
C1904 C1905 1.397 . S
C1904 C1909 1.363 1_455 S
C1905 H1876 0.950 . S
C1905 C1904 1.397 . S
C1905 C1906 1.334 . S
C1906 H1877 0.950 . S
C1906 C1905 1.334 . S
C1906 C1907 1.287 . S
C1907 C1906 1.287 . S
C1907 C1908 1.524 . S
C1907 H1910 0.999 . S
C1908 H1878 0.932 1_455 S
C1908 C1907 1.524 . S
C1908 C1909 1.415 1_455 S
C1909 H1879 0.950 . S
C1909 C1904 1.363 1_655 S
C1909 C1908 1.415 1_655 S
H1910 C1907 0.999 . S
H1911 C1892 0.913 . S
H1912 C1930 0.951 . S
H1913 C1932 0.951 . S
H1914 C1934 0.950 . S
H1915 C1935 0.950 . S
H1916 C1937 0.950 . S
H1917 C1940 0.950 . S
H1918 C1941 0.950 . S
H1919 C1943 0.950 . S
H1920 C1944 0.950 . S
H1921 C1945 0.951 . S
H1922 C1947 0.951 . S
H1923 C1949 0.950 . S
H1924 C1950 0.950 . S
H1925 C1952 0.950 . S
H1926 C1955 0.950 . S
H1927 C1956 0.950 . S
H1928 C1958 0.950 . S
H1929 C1959 0.950 . S
C1930 H1912 0.951 . S
C1930 C1931 1.366 . S
C1930 C1932 1.388 . S
C1931 C1930 1.366 . S
C1931 C1935 1.385 . S
C1932 H1913 0.951 . S
C1932 C1930 1.388 . S
C1932 C1933 1.366 . S
C1933 C1932 1.366 . S
C1933 C1934 1.414 . S
C1933 C1936 1.499 . S
C1934 H1914 0.950 . S
C1934 C1933 1.414 . S
C1934 C1935 1.374 . S
C1935 H1915 0.950 . S
C1935 C1931 1.385 . S
C1935 C1934 1.374 . S
C1936 C1933 1.499 . S
C1936 C1937 1.373 . S
C1936 C1938 1.389 . S
C1937 H1916 0.950 . S
C1937 C1936 1.373 . S
C1937 C1953 1.377 . S
C1938 C1936 1.389 . S
C1938 C1939 1.524 . S
C1938 C1952 1.377 . S
C1939 C1938 1.524 . S
C1939 C1940 1.397 . S
C1939 C1944 1.363 . S
C1940 H1917 0.950 . S
C1940 C1939 1.397 . S
C1940 C1941 1.334 . S
C1941 H1918 0.950 . S
C1941 C1940 1.334 . S
C1941 C1942 1.287 . S
C1942 C1941 1.287 . S
C1942 C1943 1.524 . S
C1942 H1961 0.913 . S
C1943 H1919 0.950 . S
C1943 C1942 1.524 . S
C1943 C1944 1.415 . S
C1944 H1920 0.950 . S
C1944 C1939 1.363 . S
C1944 C1943 1.415 . S
C1945 H1921 0.951 . S
C1945 C1946 1.366 . S
C1945 C1947 1.388 . S
C1946 C1945 1.366 . S
C1946 C1950 1.385 . S
C1947 H1922 0.951 . S
C1947 C1945 1.388 . S
C1947 C1948 1.366 . S
C1948 C1947 1.366 . S
C1948 C1949 1.414 . S
C1948 C1951 1.499 . S
C1949 H1923 0.950 . S
C1949 C1948 1.414 . S
C1949 C1950 1.374 . S
C1950 H1924 0.950 . S
C1950 C1946 1.385 . S
C1950 C1949 1.374 . S
C1951 C1948 1.499 . S
C1951 C1952 1.373 . S
C1951 C1953 1.389 . S
C1952 H1925 0.950 . S
C1952 C1938 1.377 . S
C1952 C1951 1.373 . S
C1953 C1937 1.377 . S
C1953 C1951 1.389 . S
C1953 C1954 1.524 . S
C1954 C1953 1.524 . S
C1954 C1955 1.397 . S
C1954 C1959 1.363 . S
C1955 H1926 0.950 . S
C1955 C1954 1.397 . S
C1955 C1956 1.334 . S
C1956 H1927 0.950 . S
C1956 C1955 1.334 . S
C1956 C1957 1.287 . S
C1957 C1956 1.287 . S
C1957 C1958 1.524 . S
C1957 H1960 0.999 . S
C1958 H1928 0.950 . S
C1958 C1957 1.524 . S
C1958 C1959 1.415 . S
C1959 H1929 0.950 . S
C1959 C1954 1.363 . S
C1959 C1958 1.415 . S
H1960 C1957 0.999 . S
H1961 C1942 0.913 . S
H1962 C1980 0.951 . S
H1963 C1982 0.951 . S
H1964 C1984 0.950 . S
H1965 C1985 0.950 . S
H1966 C1987 0.947 1_554 S
H1967 C1990 0.950 . S
H1968 C1991 0.950 . S
H1969 C1993 0.950 . S
H1970 C1994 0.891 1_556 S
H1971 C1995 0.951 1_455 S
H1972 C1997 0.951 . S
H1973 C1999 0.950 . S
H1974 C2000 0.950 . S
H1975 C2002 0.950 . S
H1976 C2005 0.950 . S
H1977 C2006 0.950 . S
H1978 C2008 0.950 . S
H1979 C2009 0.950 . S
C1980 H1962 0.951 . S
C1980 C1981 1.366 . S
C1980 C1982 1.388 . S
C1981 C1980 1.366 . S
C1981 C1985 1.385 . S
C1982 H1963 0.951 . S
C1982 C1980 1.388 . S
C1982 C1983 1.366 . S
C1983 C1982 1.366 . S
C1983 C1984 1.414 . S
C1983 C1986 1.499 . S
C1984 H1964 0.950 . S
C1984 C1983 1.414 . S
C1984 C1985 1.374 . S
C1985 H1965 0.950 . S
C1985 C1981 1.385 . S
C1985 C1984 1.374 . S
C1986 C1983 1.499 . S
C1986 C1987 1.359 1_554 S
C1986 C1988 1.389 . S
C1987 H1966 0.947 1_556 S
C1987 C1986 1.359 1_556 S
C1987 C2003 1.395 . S
C1988 C1986 1.389 . S
C1988 C1989 1.524 . S
C1988 C2002 1.377 1_554 S
C1989 C1988 1.524 . S
C1989 C1990 1.397 . S
C1989 C1994 1.363 . S
C1990 H1967 0.950 . S
C1990 C1989 1.397 . S
C1990 C1991 1.334 . S
C1991 H1968 0.950 . S
C1991 C1990 1.334 . S
C1991 C1992 1.287 . S
C1992 C1991 1.287 . S
C1992 C1993 1.524 . S
C1992 H2011 0.913 . S
C1993 H1969 0.950 . S
C1993 C1992 1.524 . S
C1993 C1994 1.415 . S
C1994 H1970 0.891 1_554 S
C1994 C1989 1.363 . S
C1994 C1993 1.415 . S
C1995 H1971 0.951 1_655 S
C1995 C1996 1.366 . S
C1995 C1997 1.388 . S
C1996 C1995 1.366 . S
C1996 C2000 1.385 . S
C1997 H1972 0.951 . S
C1997 C1995 1.388 . S
C1997 C1998 1.366 . S
C1998 C1997 1.366 . S
C1998 C1999 1.414 . S
C1998 C2001 1.499 . S
C1999 H1973 0.950 . S
C1999 C1998 1.414 . S
C1999 C2000 1.374 . S
C2000 H1974 0.950 . S
C2000 C1996 1.385 . S
C2000 C1999 1.374 . S
C2001 C1998 1.499 . S
C2001 C2002 1.373 . S
C2001 C2003 1.389 . S
C2002 H1975 0.950 . S
C2002 C1988 1.377 1_556 S
C2002 C2001 1.373 . S
C2003 C1987 1.395 . S
C2003 C2001 1.389 . S
C2003 C2004 1.524 . S
C2004 C2003 1.524 . S
C2004 C2005 1.397 . S
C2004 C2009 1.363 . S
C2005 H1976 0.950 . S
C2005 C2004 1.397 . S
C2005 C2006 1.334 . S
C2006 H1977 0.950 . S
C2006 C2005 1.334 . S
C2006 C2007 1.287 . S
C2007 C2006 1.287 . S
C2007 C2008 1.524 1_655 S
C2007 H2010 0.999 1_655 S
C2008 H1978 0.950 . S
C2008 C2007 1.524 1_455 S
C2008 C2009 1.415 1_455 S
C2009 H1979 0.950 . S
C2009 C2004 1.363 . S
C2009 C2008 1.415 1_655 S
H2010 C2007 0.999 1_455 S
H2011 C1992 0.913 . S
H2012 C2030 0.951 . S
H2013 C2032 0.951 . S
H2014 C2034 0.950 . S
H2015 C2035 0.950 . S
H2016 C2037 0.950 . S
H2017 C2040 0.950 . S
H2018 C2041 0.950 . S
H2019 C2043 0.950 . S
H2020 C2044 0.950 . S
H2021 C2045 0.951 . S
H2022 C2047 0.951 . S
H2023 C2049 0.950 . S
H2024 C2050 0.950 . S
H2025 C2052 0.950 . S
H2026 C2055 0.950 . S
H2027 C2056 0.950 . S
H2028 C2058 0.950 . S
H2029 C2059 0.950 . S
C2030 H2012 0.951 . S
C2030 C2031 1.366 . S
C2030 C2032 1.388 . S
C2031 C2030 1.366 . S
C2031 C2035 1.385 . S
C2032 H2013 0.951 . S
C2032 C2030 1.388 . S
C2032 C2033 1.366 . S
C2033 C2032 1.366 . S
C2033 C2034 1.414 . S
C2033 C2036 1.499 . S
C2034 H2014 0.950 . S
C2034 C2033 1.414 . S
C2034 C2035 1.374 . S
C2035 H2015 0.950 . S
C2035 C2031 1.385 . S
C2035 C2034 1.374 . S
C2036 C2033 1.499 . S
C2036 C2037 1.373 . S
C2036 C2038 1.389 . S
C2037 H2016 0.950 . S
C2037 C2036 1.373 . S
C2037 C2053 1.377 . S
C2038 C2036 1.389 . S
C2038 C2039 1.524 . S
C2038 C2052 1.377 . S
C2039 C2038 1.524 . S
C2039 C2040 1.397 . S
C2039 C2044 1.363 . S
C2040 H2017 0.950 . S
C2040 C2039 1.397 . S
C2040 C2041 1.334 . S
C2041 H2018 0.950 . S
C2041 C2040 1.334 . S
C2041 C2042 1.287 . S
C2042 C2041 1.287 . S
C2042 C2043 1.524 . S
C2042 H2061 0.913 . S
C2043 H2019 0.950 . S
C2043 C2042 1.524 . S
C2043 C2044 1.415 . S
C2044 H2020 0.950 . S
C2044 C2039 1.363 . S
C2044 C2043 1.415 . S
C2045 H2021 0.951 . S
C2045 C2046 1.366 . S
C2045 C2047 1.388 . S
C2046 C2045 1.366 . S
C2046 C2050 1.385 . S
C2047 H2022 0.951 . S
C2047 C2045 1.388 . S
C2047 C2048 1.366 . S
C2048 C2047 1.366 . S
C2048 C2049 1.414 . S
C2048 C2051 1.499 . S
C2049 H2023 0.950 . S
C2049 C2048 1.414 . S
C2049 C2050 1.374 . S
C2050 H2024 0.950 . S
C2050 C2046 1.385 . S
C2050 C2049 1.374 . S
C2051 C2048 1.499 . S
C2051 C2052 1.373 . S
C2051 C2053 1.389 . S
C2052 H2025 0.950 . S
C2052 C2038 1.377 . S
C2052 C2051 1.373 . S
C2053 C2037 1.377 . S
C2053 C2051 1.389 . S
C2053 C2054 1.524 . S
C2054 C2053 1.524 . S
C2054 C2055 1.397 . S
C2054 C2059 1.363 . S
C2055 H2026 0.950 . S
C2055 C2054 1.397 . S
C2055 C2056 1.334 . S
C2056 H2027 0.950 . S
C2056 C2055 1.334 . S
C2056 C2057 1.287 . S
C2057 C2056 1.287 . S
C2057 C2058 1.524 . S
C2057 H2060 0.999 . S
C2058 H2028 0.950 . S
C2058 C2057 1.524 . S
C2058 C2059 1.415 . S
C2059 H2029 0.950 . S
C2059 C2054 1.363 . S
C2059 C2058 1.415 . S
H2060 C2057 0.999 . S
H2061 C2042 0.913 . S
H2062 C2080 0.951 . S
H2063 C2082 0.951 . S
H2064 C2084 0.950 . S
H2065 C2085 0.950 . S
H2066 C2087 0.950 . S
H2067 C2090 0.950 . S
H2068 C2091 0.950 . S
H2069 C2093 0.950 . S
H2070 C2094 0.950 . S
H2071 C2095 0.951 . S
H2072 C2097 0.951 . S
H2073 C2099 0.950 . S
H2074 C2100 0.950 . S
H2075 C2102 0.950 . S
H2076 C2105 0.950 . S
H2077 C2106 0.950 . S
H2078 C2108 0.950 1_554 S
H2079 C2109 0.950 . S
C2080 H2062 0.951 . S
C2080 C2081 1.366 . S
C2080 C2082 1.388 . S
C2081 C2080 1.366 . S
C2081 C2085 1.385 . S
C2082 H2063 0.951 . S
C2082 C2080 1.388 . S
C2082 C2083 1.366 . S
C2083 C2082 1.366 . S
C2083 C2084 1.414 . S
C2083 C2086 1.499 . S
C2084 H2064 0.950 . S
C2084 C2083 1.414 . S
C2084 C2085 1.374 . S
C2085 H2065 0.950 . S
C2085 C2081 1.385 . S
C2085 C2084 1.374 . S
C2086 C2083 1.499 . S
C2086 C2087 1.373 . S
C2086 C2088 1.389 . S
C2087 H2066 0.950 . S
C2087 C2086 1.373 . S
C2087 C2103 1.377 . S
C2088 C2086 1.389 . S
C2088 C2089 1.524 . S
C2088 C2102 1.377 . S
C2089 C2088 1.524 . S
C2089 C2090 1.397 . S
C2089 C2094 1.363 . S
C2090 H2067 0.950 . S
C2090 C2089 1.397 . S
C2090 C2091 1.334 . S
C2091 H2068 0.950 . S
C2091 C2090 1.334 . S
C2091 C2092 1.287 . S
C2092 C2091 1.287 . S
C2092 C2093 1.524 . S
C2092 H2111 0.913 . S
C2093 H2069 0.950 . S
C2093 C2092 1.524 . S
C2093 C2094 1.415 . S
C2094 H2070 0.950 . S
C2094 C2089 1.363 . S
C2094 C2093 1.415 . S
C2095 H2071 0.951 . S
C2095 C2096 1.366 . S
C2095 C2097 1.388 . S
C2096 C2095 1.366 . S
C2096 C2100 1.385 . S
C2097 H2072 0.951 . S
C2097 C2095 1.388 . S
C2097 C2098 1.366 . S
C2098 C2097 1.366 . S
C2098 C2099 1.414 . S
C2098 C2101 1.489 1_556 S
C2099 H2073 0.950 . S
C2099 C2098 1.414 . S
C2099 C2100 1.374 . S
C2100 H2074 0.950 . S
C2100 C2096 1.385 . S
C2100 C2099 1.374 . S
C2101 C2098 1.489 1_554 S
C2101 C2102 1.379 . S
C2101 C2103 1.394 . S
C2102 H2075 0.950 . S
C2102 C2088 1.377 . S
C2102 C2101 1.379 . S
C2103 C2087 1.377 . S
C2103 C2101 1.394 . S
C2103 C2104 1.524 1_554 S
C2104 C2103 1.524 1_556 S
C2104 C2105 1.397 . S
C2104 C2109 1.363 1_556 S
C2105 H2076 0.950 . S
C2105 C2104 1.397 . S
C2105 C2106 1.334 . S
C2106 H2077 0.950 . S
C2106 C2105 1.334 . S
C2106 C2107 1.298 . S
C2107 C2106 1.298 . S
C2107 C2108 1.520 1_455 S
C2107 H2110 0.989 1_455 S
C2108 H2078 0.950 1_556 S
C2108 C2107 1.520 1_655 S
C2108 C2109 1.415 1_656 S
C2109 H2079 0.950 . S
C2109 C2104 1.363 1_554 S
C2109 C2108 1.415 1_454 S
H2110 C2107 0.989 1_655 S
H2111 C2092 0.913 . S
H2112 C2130 0.951 . S
H2113 C2132 0.951 . S
H2114 C2134 0.950 . S
H2115 C2135 0.950 . S
H2116 C2137 0.950 . S
H2117 C2140 0.950 . S
H2118 C2141 0.950 . S
H2119 C2143 0.950 . S
H2120 C2144 0.950 . S
H2121 C2145 0.951 . S
H2122 C2147 0.951 . S
H2123 C2149 0.950 . S
H2124 C2150 0.950 . S
H2125 C2152 0.950 . S
H2126 C2155 0.950 . S
H2127 C2156 0.950 . S
H2128 C2158 0.950 . S
H2129 C2159 0.950 . S
C2130 H2112 0.951 . S
C2130 C2131 1.366 . S
C2130 C2132 1.388 . S
C2131 C2130 1.366 . S
C2131 C2135 1.385 . S
C2132 H2113 0.951 . S
C2132 C2130 1.388 . S
C2132 C2133 1.366 . S
C2133 C2132 1.366 . S
C2133 C2134 1.414 . S
C2133 C2136 1.499 . S
C2134 H2114 0.950 . S
C2134 C2133 1.414 . S
C2134 C2135 1.374 . S
C2135 H2115 0.950 . S
C2135 C2131 1.385 . S
C2135 C2134 1.374 . S
C2136 C2133 1.499 . S
C2136 C2137 1.373 . S
C2136 C2138 1.389 . S
C2137 H2116 0.950 . S
C2137 C2136 1.373 . S
C2137 C2153 1.377 . S
C2138 C2136 1.389 . S
C2138 C2139 1.524 . S
C2138 C2152 1.377 . S
C2139 C2138 1.524 . S
C2139 C2140 1.397 . S
C2139 C2144 1.363 . S
C2140 H2117 0.950 . S
C2140 C2139 1.397 . S
C2140 C2141 1.334 . S
C2141 H2118 0.950 . S
C2141 C2140 1.334 . S
C2141 C2142 1.287 . S
C2142 C2141 1.287 . S
C2142 C2143 1.524 . S
C2142 H2161 0.913 . S
C2143 H2119 0.950 . S
C2143 C2142 1.524 . S
C2143 C2144 1.415 . S
C2144 H2120 0.950 . S
C2144 C2139 1.363 . S
C2144 C2143 1.415 . S
C2145 H2121 0.951 . S
C2145 C2146 1.366 . S
C2145 C2147 1.388 . S
C2146 C2145 1.366 . S
C2146 C2150 1.385 . S
C2147 H2122 0.951 . S
C2147 C2145 1.388 . S
C2147 C2148 1.366 . S
C2148 C2147 1.366 . S
C2148 C2149 1.414 . S
C2148 C2151 1.499 . S
C2149 H2123 0.950 . S
C2149 C2148 1.414 . S
C2149 C2150 1.374 . S
C2150 H2124 0.950 . S
C2150 C2146 1.385 . S
C2150 C2149 1.374 . S
C2151 C2148 1.499 . S
C2151 C2152 1.373 . S
C2151 C2153 1.389 . S
C2152 H2125 0.950 . S
C2152 C2138 1.377 . S
C2152 C2151 1.373 . S
C2153 C2137 1.377 . S
C2153 C2151 1.389 . S
C2153 C2154 1.524 . S
C2154 C2153 1.524 . S
C2154 C2155 1.397 . S
C2154 C2159 1.363 . S
C2155 H2126 0.950 . S
C2155 C2154 1.397 . S
C2155 C2156 1.334 . S
C2156 H2127 0.950 . S
C2156 C2155 1.334 . S
C2156 C2157 1.287 . S
C2157 C2156 1.287 . S
C2157 C2158 1.524 . S
C2157 H2160 0.999 . S
C2158 H2128 0.950 . S
C2158 C2157 1.524 . S
C2158 C2159 1.415 . S
C2159 H2129 0.950 . S
C2159 C2154 1.363 . S
C2159 C2158 1.415 . S
H2160 C2157 0.999 . S
H2161 C2142 0.913 . S
H2162 C2180 0.951 . S
H2163 C2182 0.951 . S
H2164 C2184 0.950 . S
H2165 C2185 0.950 . S
H2166 C2187 0.950 1_556 S
H2167 C2190 0.950 . S
H2168 C2191 0.950 . S
H2169 C2193 0.950 . S
H2170 C2194 0.950 . S
H2171 C2195 0.951 . S
H2172 C2197 0.951 . S
H2173 C2199 0.950 . S
H2174 C2200 0.950 . S
H2175 C2202 0.950 . S
H2176 C2205 0.950 . S
H2177 C2206 0.950 . S
H2178 C2208 0.950 . S
H2179 C2209 0.950 . S
C2180 H2162 0.951 . S
C2180 C2181 1.366 . S
C2180 C2182 1.388 . S
C2181 C2180 1.366 . S
C2181 C2185 1.385 . S
C2182 H2163 0.951 . S
C2182 C2180 1.388 . S
C2182 C2183 1.366 . S
C2183 C2182 1.366 . S
C2183 C2184 1.414 . S
C2183 C2186 1.499 . S
C2184 H2164 0.950 . S
C2184 C2183 1.414 . S
C2184 C2185 1.374 . S
C2185 H2165 0.950 . S
C2185 C2181 1.385 . S
C2185 C2184 1.374 . S
C2186 C2183 1.499 . S
C2186 C2187 1.373 1_556 S
C2186 C2188 1.389 . S
C2187 H2166 0.950 1_554 S
C2187 C2186 1.373 1_554 S
C2187 C2203 1.377 . S
C2188 C2186 1.389 . S
C2188 C2189 1.524 . S
C2188 C2202 1.377 1_556 S
C2189 C2188 1.524 . S
C2189 C2190 1.397 . S
C2189 C2194 1.363 . S
C2190 H2167 0.950 . S
C2190 C2189 1.397 . S
C2190 C2191 1.334 . S
C2191 H2168 0.950 . S
C2191 C2190 1.334 . S
C2191 C2192 1.287 . S
C2192 C2191 1.287 . S
C2192 C2193 1.524 . S
C2192 H2211 0.913 . S
C2193 H2169 0.950 . S
C2193 C2192 1.524 . S
C2193 C2194 1.415 . S
C2194 H2170 0.950 . S
C2194 C2189 1.363 . S
C2194 C2193 1.415 . S
C2195 H2171 0.951 . S
C2195 C2196 1.366 . S
C2195 C2197 1.388 . S
C2196 C2195 1.366 . S
C2196 C2200 1.385 . S
C2197 H2172 0.951 . S
C2197 C2195 1.388 . S
C2197 C2198 1.366 . S
C2198 C2197 1.366 . S
C2198 C2199 1.414 . S
C2198 C2201 1.499 . S
C2199 H2173 0.950 . S
C2199 C2198 1.414 . S
C2199 C2200 1.374 . S
C2200 H2174 0.950 . S
C2200 C2196 1.385 . S
C2200 C2199 1.374 . S
C2201 C2198 1.499 . S
C2201 C2202 1.373 . S
C2201 C2203 1.389 . S
C2202 H2175 0.950 . S
C2202 C2188 1.377 1_554 S
C2202 C2201 1.373 . S
C2203 C2187 1.377 . S
C2203 C2201 1.389 . S
C2203 C2204 1.524 . S
C2204 C2203 1.524 . S
C2204 C2205 1.397 . S
C2204 C2209 1.363 . S
C2205 H2176 0.950 . S
C2205 C2204 1.397 . S
C2205 C2206 1.334 . S
C2206 H2177 0.950 . S
C2206 C2205 1.334 . S
C2206 C2207 1.287 . S
C2207 C2206 1.287 . S
C2207 C2208 1.524 . S
C2207 H2210 0.999 . S
C2208 H2178 0.950 . S
C2208 C2207 1.524 . S
C2208 C2209 1.415 . S
C2209 H2179 0.950 . S
C2209 C2204 1.363 . S
C2209 C2208 1.415 . S
H2210 C2207 0.999 . S
H2211 C2192 0.913 . S
H2212 C2230 0.951 . S
H2213 C2232 0.951 . S
H2214 C2234 0.950 . S
H2215 C2235 0.950 . S
H2216 C2237 0.950 . S
H2217 C2240 0.950 . S
H2218 C2241 0.950 . S
H2219 C2243 0.950 . S
H2220 C2244 0.950 . S
H2221 C2245 0.951 . S
H2222 C2247 0.951 . S
H2223 C2249 0.950 . S
H2224 C2250 0.950 . S
H2225 C2252 0.950 . S
H2226 C2255 0.950 . S
H2227 C2256 0.950 . S
H2228 C2258 0.950 . S
H2229 C2259 0.950 . S
C2230 H2212 0.951 . S
C2230 C2231 1.366 . S
C2230 C2232 1.388 . S
C2231 C2230 1.366 . S
C2231 C2235 1.385 . S
C2232 H2213 0.951 . S
C2232 C2230 1.388 . S
C2232 C2233 1.366 . S
C2233 C2232 1.366 . S
C2233 C2234 1.414 . S
C2233 C2236 1.499 . S
C2234 H2214 0.950 . S
C2234 C2233 1.414 . S
C2234 C2235 1.374 . S
C2235 H2215 0.950 . S
C2235 C2231 1.385 . S
C2235 C2234 1.374 . S
C2236 C2233 1.499 . S
C2236 C2237 1.373 . S
C2236 C2238 1.389 . S
C2237 H2216 0.950 . S
C2237 C2236 1.373 . S
C2237 C2253 1.377 . S
C2238 C2236 1.389 . S
C2238 C2239 1.524 . S
C2238 C2252 1.377 . S
C2239 C2238 1.524 . S
C2239 C2240 1.397 . S
C2239 C2244 1.363 . S
C2240 H2217 0.950 . S
C2240 C2239 1.397 . S
C2240 C2241 1.334 . S
C2241 H2218 0.950 . S
C2241 C2240 1.334 . S
C2241 C2242 1.287 . S
C2242 C2241 1.287 . S
C2242 C2243 1.524 . S
C2242 H2261 0.913 . S
C2243 H2219 0.950 . S
C2243 C2242 1.524 . S
C2243 C2244 1.415 . S
C2244 H2220 0.950 . S
C2244 C2239 1.363 . S
C2244 C2243 1.415 . S
C2245 H2221 0.951 . S
C2245 C2246 1.366 . S
C2245 C2247 1.388 . S
C2246 C2245 1.366 . S
C2246 C2250 1.385 . S
C2247 H2222 0.951 . S
C2247 C2245 1.388 . S
C2247 C2248 1.366 . S
C2248 C2247 1.366 . S
C2248 C2249 1.414 . S
C2248 C2251 1.499 . S
C2249 H2223 0.950 . S
C2249 C2248 1.414 . S
C2249 C2250 1.374 . S
C2250 H2224 0.950 . S
C2250 C2246 1.385 . S
C2250 C2249 1.374 . S
C2251 C2248 1.499 . S
C2251 C2252 1.373 . S
C2251 C2253 1.389 . S
C2252 H2225 0.950 . S
C2252 C2238 1.377 . S
C2252 C2251 1.373 . S
C2253 C2237 1.377 . S
C2253 C2251 1.389 . S
C2253 C2254 1.524 . S
C2254 C2253 1.524 . S
C2254 C2255 1.397 . S
C2254 C2259 1.363 . S
C2255 H2226 0.950 . S
C2255 C2254 1.397 . S
C2255 C2256 1.334 . S
C2256 H2227 0.950 . S
C2256 C2255 1.334 . S
C2256 C2257 1.287 . S
C2257 C2256 1.287 . S
C2257 C2258 1.524 . S
C2257 H2260 0.999 . S
C2258 H2228 0.950 . S
C2258 C2257 1.524 . S
C2258 C2259 1.415 . S
C2259 H2229 0.950 . S
C2259 C2254 1.363 . S
C2259 C2258 1.415 . S
H2260 C2257 0.999 . S
H2261 C2242 0.913 . S
H2262 C2280 0.951 . S
H2263 C2282 0.951 . S
H2264 C2284 0.950 . S
H2265 C2285 0.950 . S
H2266 C2287 0.950 . S
H2267 C2290 0.950 . S
H2268 C2291 0.950 . S
H2269 C2293 0.950 . S
H2270 C2294 0.950 . S
H2271 C2295 0.951 . S
H2272 C2297 0.951 . S
H2273 C2299 0.950 . S
H2274 C2300 0.950 . S
H2275 C2302 0.950 . S
H2276 C2305 0.950 . S
H2277 C2306 0.950 . S
H2278 C2308 0.950 . S
H2279 C2309 0.950 . S
C2280 H2262 0.951 . S
C2280 C2281 1.366 . S
C2280 C2282 1.388 . S
C2281 C2280 1.366 . S
C2281 C2285 1.385 . S
C2282 H2263 0.951 . S
C2282 C2280 1.388 . S
C2282 C2283 1.366 . S
C2283 C2282 1.366 . S
C2283 C2284 1.414 . S
C2283 C2286 1.499 1_556 S
C2284 H2264 0.950 . S
C2284 C2283 1.414 . S
C2284 C2285 1.374 . S
C2285 H2265 0.950 . S
C2285 C2281 1.385 . S
C2285 C2284 1.374 . S
C2286 C2283 1.499 1_554 S
C2286 C2287 1.373 . S
C2286 C2288 1.389 . S
C2287 H2266 0.950 . S
C2287 C2286 1.373 . S
C2287 C2303 1.377 . S
C2288 C2286 1.389 . S
C2288 C2289 1.524 1_554 S
C2288 C2302 1.377 . S
C2289 C2288 1.524 1_556 S
C2289 C2290 1.397 . S
C2289 C2294 1.363 . S
C2290 H2267 0.950 . S
C2290 C2289 1.397 . S
C2290 C2291 1.334 . S
C2291 H2268 0.950 . S
C2291 C2290 1.334 . S
C2291 C2292 1.287 . S
C2292 C2291 1.287 . S
C2292 C2293 1.524 . S
C2292 H2311 0.913 . S
C2293 H2269 0.950 . S
C2293 C2292 1.524 . S
C2293 C2294 1.415 . S
C2294 H2270 0.950 . S
C2294 C2289 1.363 . S
C2294 C2293 1.415 . S
C2295 H2271 0.951 . S
C2295 C2296 1.366 . S
C2295 C2297 1.388 . S
C2296 C2295 1.366 . S
C2296 C2300 1.385 . S
C2297 H2272 0.951 . S
C2297 C2295 1.388 . S
C2297 C2298 1.366 . S
C2298 C2297 1.366 . S
C2298 C2299 1.414 . S
C2298 C2301 1.499 . S
C2299 H2273 0.950 . S
C2299 C2298 1.414 . S
C2299 C2300 1.374 . S
C2300 H2274 0.950 . S
C2300 C2296 1.385 . S
C2300 C2299 1.374 . S
C2301 C2298 1.499 . S
C2301 C2302 1.373 . S
C2301 C2303 1.389 . S
C2302 H2275 0.950 . S
C2302 C2288 1.377 . S
C2302 C2301 1.373 . S
C2303 C2287 1.377 . S
C2303 C2301 1.389 . S
C2303 C2304 1.524 . S
C2304 C2303 1.524 . S
C2304 C2305 1.397 . S
C2304 C2309 1.363 . S
C2305 H2276 0.950 . S
C2305 C2304 1.397 . S
C2305 C2306 1.334 . S
C2306 H2277 0.950 . S
C2306 C2305 1.334 . S
C2306 C2307 1.287 . S
C2307 C2306 1.287 . S
C2307 C2308 1.524 . S
C2307 H2310 0.999 . S
C2308 H2278 0.950 . S
C2308 C2307 1.524 . S
C2308 C2309 1.415 . S
C2309 H2279 0.950 . S
C2309 C2304 1.363 . S
C2309 C2308 1.415 . S
H2310 C2307 0.999 . S
H2311 C2292 0.913 . S
H2312 C2330 0.951 . S
H2313 C2332 0.951 . S
H2314 C2334 0.950 . S
H2315 C2335 0.950 . S
H2316 C2337 0.950 . S
H2317 C2340 0.950 . S
H2318 C2341 0.950 . S
H2319 C2343 0.950 . S
H2320 C2344 0.950 . S
H2321 C2345 0.951 . S
H2322 C2347 0.951 . S
H2323 C2349 0.950 . S
H2324 C2350 0.950 . S
H2325 C2352 0.950 . S
H2326 C2355 0.950 . S
H2327 C2356 0.950 . S
H2328 C2358 0.950 . S
H2329 C2359 0.950 . S
C2330 H2312 0.951 . S
C2330 C2331 1.366 . S
C2330 C2332 1.388 . S
C2331 C2330 1.366 . S
C2331 C2335 1.385 . S
C2332 H2313 0.951 . S
C2332 C2330 1.388 . S
C2332 C2333 1.366 . S
C2333 C2332 1.366 . S
C2333 C2334 1.414 . S
C2333 C2336 1.499 . S
C2334 H2314 0.950 . S
C2334 C2333 1.414 . S
C2334 C2335 1.374 . S
C2335 H2315 0.950 . S
C2335 C2331 1.385 . S
C2335 C2334 1.374 . S
C2336 C2333 1.499 . S
C2336 C2337 1.373 . S
C2336 C2338 1.389 . S
C2337 H2316 0.950 . S
C2337 C2336 1.373 . S
C2337 C2353 1.377 . S
C2338 C2336 1.389 . S
C2338 C2339 1.524 . S
C2338 C2352 1.377 . S
C2339 C2338 1.524 . S
C2339 C2340 1.397 . S
C2339 C2344 1.363 . S
C2340 H2317 0.950 . S
C2340 C2339 1.397 . S
C2340 C2341 1.334 . S
C2341 H2318 0.950 . S
C2341 C2340 1.334 . S
C2341 C2342 1.287 . S
C2342 C2341 1.287 . S
C2342 C2343 1.524 . S
C2342 H2361 0.913 . S
C2343 H2319 0.950 . S
C2343 C2342 1.524 . S
C2343 C2344 1.415 . S
C2344 H2320 0.950 . S
C2344 C2339 1.363 . S
C2344 C2343 1.415 . S
C2345 H2321 0.951 . S
C2345 C2346 1.366 . S
C2345 C2347 1.388 . S
C2346 C2345 1.366 . S
C2346 C2350 1.385 . S
C2347 H2322 0.951 . S
C2347 C2345 1.388 . S
C2347 C2348 1.366 . S
C2348 C2347 1.366 . S
C2348 C2349 1.414 . S
C2348 C2351 1.499 . S
C2349 H2323 0.950 . S
C2349 C2348 1.414 . S
C2349 C2350 1.374 . S
C2350 H2324 0.950 . S
C2350 C2346 1.385 . S
C2350 C2349 1.374 . S
C2351 C2348 1.499 . S
C2351 C2352 1.373 . S
C2351 C2353 1.389 . S
C2352 H2325 0.950 . S
C2352 C2338 1.377 . S
C2352 C2351 1.373 . S
C2353 C2337 1.377 . S
C2353 C2351 1.389 . S
C2353 C2354 1.524 . S
C2354 C2353 1.524 . S
C2354 C2355 1.397 . S
C2354 C2359 1.363 . S
C2355 H2326 0.950 . S
C2355 C2354 1.397 . S
C2355 C2356 1.334 . S
C2356 H2327 0.950 . S
C2356 C2355 1.334 . S
C2356 C2357 1.287 . S
C2357 C2356 1.287 . S
C2357 C2358 1.524 . S
C2357 H2360 0.999 . S
C2358 H2328 0.950 . S
C2358 C2357 1.524 . S
C2358 C2359 1.415 . S
C2359 H2329 0.950 . S
C2359 C2354 1.363 . S
C2359 C2358 1.415 . S
H2360 C2357 0.999 . S
H2361 C2342 0.913 . S
H2362 C2380 0.951 . S
H2363 C2382 0.951 . S
H2364 C2384 0.950 . S
H2365 C2385 0.950 . S
H2366 C2387 0.950 . S
H2367 C2390 0.950 . S
H2368 C2391 0.950 . S
H2369 C2393 0.950 . S
H2370 C2394 0.950 . S
H2371 C2395 0.951 . S
H2372 C2397 0.951 . S
H2373 C2399 0.950 . S
H2374 C2400 0.950 . S
H2375 C2402 0.950 . S
H2376 C2405 0.950 . S
H2377 C2406 0.950 . S
H2378 C2408 0.950 . S
H2379 C2409 0.950 . S
C2380 H2362 0.951 . S
C2380 C2381 1.366 . S
C2380 C2382 1.388 . S
C2381 C2380 1.366 . S
C2381 C2385 1.385 . S
C2382 H2363 0.951 . S
C2382 C2380 1.388 . S
C2382 C2383 1.366 . S
C2383 C2382 1.366 . S
C2383 C2384 1.414 . S
C2383 C2386 1.499 . S
C2384 H2364 0.950 . S
C2384 C2383 1.414 . S
C2384 C2385 1.374 . S
C2385 H2365 0.950 . S
C2385 C2381 1.385 . S
C2385 C2384 1.374 . S
C2386 C2383 1.499 . S
C2386 C2387 1.373 . S
C2386 C2388 1.389 . S
C2387 H2366 0.950 . S
C2387 C2386 1.373 . S
C2387 C2403 1.377 . S
C2388 C2386 1.389 . S
C2388 C2389 1.524 . S
C2388 C2402 1.377 . S
C2389 C2388 1.524 . S
C2389 C2390 1.397 . S
C2389 C2394 1.363 . S
C2390 H2367 0.950 . S
C2390 C2389 1.397 . S
C2390 C2391 1.334 . S
C2391 H2368 0.950 . S
C2391 C2390 1.334 . S
C2391 C2392 1.287 . S
C2392 C2391 1.287 . S
C2392 C2393 1.524 . S
C2392 H2411 0.913 . S
C2393 H2369 0.950 . S
C2393 C2392 1.524 . S
C2393 C2394 1.415 . S
C2394 H2370 0.950 . S
C2394 C2389 1.363 . S
C2394 C2393 1.415 . S
C2395 H2371 0.951 . S
C2395 C2396 1.366 . S
C2395 C2397 1.388 . S
C2396 C2395 1.366 . S
C2396 C2400 1.385 . S
C2397 H2372 0.951 . S
C2397 C2395 1.388 . S
C2397 C2398 1.366 . S
C2398 C2397 1.366 . S
C2398 C2399 1.414 . S
C2398 C2401 1.499 . S
C2399 H2373 0.950 . S
C2399 C2398 1.414 . S
C2399 C2400 1.374 . S
C2400 H2374 0.950 . S
C2400 C2396 1.385 . S
C2400 C2399 1.374 . S
C2401 C2398 1.499 . S
C2401 C2402 1.373 . S
C2401 C2403 1.389 . S
C2402 H2375 0.950 . S
C2402 C2388 1.377 . S
C2402 C2401 1.373 . S
C2403 C2387 1.377 . S
C2403 C2401 1.389 . S
C2403 C2404 1.524 . S
C2404 C2403 1.524 . S
C2404 C2405 1.397 . S
C2404 C2409 1.363 . S
C2405 H2376 0.950 . S
C2405 C2404 1.397 . S
C2405 C2406 1.334 . S
C2406 H2377 0.950 . S
C2406 C2405 1.334 . S
C2406 C2407 1.287 . S
C2407 C2406 1.287 . S
C2407 C2408 1.524 . S
C2407 H2410 0.999 . S
C2408 H2378 0.950 . S
C2408 C2407 1.524 . S
C2408 C2409 1.415 . S
C2409 H2379 0.950 . S
C2409 C2404 1.363 . S
C2409 C2408 1.415 . S
H2410 C2407 0.999 . S
H2411 C2392 0.913 . S
H2412 C2430 0.951 . S
H2413 C2432 0.951 . S
H2414 C2434 0.950 . S
H2415 C2435 0.950 . S
H2416 C2437 0.950 . S
H2417 C2440 0.950 . S
H2418 C2441 0.950 . S
H2419 C2443 0.950 . S
H2420 C2444 0.950 . S
H2421 C2445 0.951 . S
H2422 C2447 0.951 . S
H2423 C2449 0.950 . S
H2424 C2450 0.950 . S
H2425 C2452 0.950 . S
H2426 C2455 0.950 . S
H2427 C2456 0.950 . S
H2428 C2458 0.950 . S
H2429 C2459 0.950 . S
C2430 H2412 0.951 . S
C2430 C2431 1.366 . S
C2430 C2432 1.388 . S
C2431 C2430 1.366 . S
C2431 C2435 1.385 . S
C2432 H2413 0.951 . S
C2432 C2430 1.388 . S
C2432 C2433 1.366 . S
C2433 C2432 1.366 . S
C2433 C2434 1.414 . S
C2433 C2436 1.499 . S
C2434 H2414 0.950 . S
C2434 C2433 1.414 . S
C2434 C2435 1.374 . S
C2435 H2415 0.950 . S
C2435 C2431 1.385 . S
C2435 C2434 1.374 . S
C2436 C2433 1.499 . S
C2436 C2437 1.373 . S
C2436 C2438 1.389 . S
C2437 H2416 0.950 . S
C2437 C2436 1.373 . S
C2437 C2453 1.377 . S
C2438 C2436 1.389 . S
C2438 C2439 1.524 . S
C2438 C2452 1.377 . S
C2439 C2438 1.524 . S
C2439 C2440 1.397 . S
C2439 C2444 1.363 . S
C2440 H2417 0.950 . S
C2440 C2439 1.397 . S
C2440 C2441 1.334 . S
C2441 H2418 0.950 . S
C2441 C2440 1.334 . S
C2441 C2442 1.287 . S
C2442 C2441 1.287 . S
C2442 C2443 1.524 . S
C2442 H2461 0.913 . S
C2443 H2419 0.950 . S
C2443 C2442 1.524 . S
C2443 C2444 1.415 . S
C2444 H2420 0.950 . S
C2444 C2439 1.363 . S
C2444 C2443 1.415 . S
C2445 H2421 0.951 . S
C2445 C2446 1.366 . S
C2445 C2447 1.388 . S
C2446 C2445 1.366 . S
C2446 C2450 1.385 . S
C2447 H2422 0.951 . S
C2447 C2445 1.388 . S
C2447 C2448 1.366 . S
C2448 C2447 1.366 . S
C2448 C2449 1.414 . S
C2448 C2451 1.499 . S
C2449 H2423 0.950 . S
C2449 C2448 1.414 . S
C2449 C2450 1.374 . S
C2450 H2424 0.950 . S
C2450 C2446 1.385 . S
C2450 C2449 1.374 . S
C2451 C2448 1.499 . S
C2451 C2452 1.373 . S
C2451 C2453 1.389 . S
C2452 H2425 0.950 . S
C2452 C2438 1.377 . S
C2452 C2451 1.373 . S
C2453 C2437 1.377 . S
C2453 C2451 1.389 . S
C2453 C2454 1.524 . S
C2454 C2453 1.524 . S
C2454 C2455 1.397 . S
C2454 C2459 1.363 . S
C2455 H2426 0.950 . S
C2455 C2454 1.397 . S
C2455 C2456 1.334 . S
C2456 H2427 0.950 . S
C2456 C2455 1.334 . S
C2456 C2457 1.287 . S
C2457 C2456 1.287 . S
C2457 C2458 1.524 . S
C2457 H2460 0.999 . S
C2458 H2428 0.950 . S
C2458 C2457 1.524 . S
C2458 C2459 1.415 . S
C2459 H2429 0.950 . S
C2459 C2454 1.363 . S
C2459 C2458 1.415 . S
H2460 C2457 0.999 . S
H2461 C2442 0.913 . S
H2462 C2480 0.951 . S
H2463 C2482 0.951 . S
H2464 C2484 0.950 . S
H2465 C2485 0.950 . S
H2466 C2487 0.950 . S
H2467 C2490 0.950 . S
H2468 C2491 0.950 . S
H2469 C2493 0.950 . S
H2470 C2494 0.950 . S
H2471 C2495 0.951 . S
H2472 C2497 0.951 . S
H2473 C2499 0.950 . S
H2474 C2500 0.950 . S
H2475 C2502 0.950 . S
H2476 C2505 0.950 . S
H2477 C2506 0.950 . S
H2478 C2508 0.950 . S
H2479 C2509 0.950 . S
C2480 H2462 0.951 . S
C2480 C2481 1.366 . S
C2480 C2482 1.388 . S
C2481 C2480 1.366 . S
C2481 C2485 1.385 . S
C2482 H2463 0.951 . S
C2482 C2480 1.388 . S
C2482 C2483 1.366 . S
C2483 C2482 1.366 . S
C2483 C2484 1.414 . S
C2483 C2486 1.499 . S
C2484 H2464 0.950 . S
C2484 C2483 1.414 . S
C2484 C2485 1.374 . S
C2485 H2465 0.950 . S
C2485 C2481 1.385 . S
C2485 C2484 1.374 . S
C2486 C2483 1.499 . S
C2486 C2487 1.373 . S
C2486 C2488 1.389 . S
C2487 H2466 0.950 . S
C2487 C2486 1.373 . S
C2487 C2503 1.377 . S
C2488 C2486 1.389 . S
C2488 C2489 1.524 . S
C2488 C2502 1.377 . S
C2489 C2488 1.524 . S
C2489 C2490 1.397 . S
C2489 C2494 1.363 . S
C2490 H2467 0.950 . S
C2490 C2489 1.397 . S
C2490 C2491 1.334 . S
C2491 H2468 0.950 . S
C2491 C2490 1.334 . S
C2491 C2492 1.287 . S
C2492 C2491 1.287 . S
C2492 C2493 1.524 . S
C2492 H2511 0.913 . S
C2493 H2469 0.950 . S
C2493 C2492 1.524 . S
C2493 C2494 1.415 . S
C2494 H2470 0.950 . S
C2494 C2489 1.363 . S
C2494 C2493 1.415 . S
C2495 H2471 0.951 . S
C2495 C2496 1.366 . S
C2495 C2497 1.388 . S
C2496 C2495 1.366 . S
C2496 C2500 1.385 . S
C2497 H2472 0.951 . S
C2497 C2495 1.388 . S
C2497 C2498 1.366 . S
C2498 C2497 1.366 . S
C2498 C2499 1.414 . S
C2498 C2501 1.499 . S
C2499 H2473 0.950 . S
C2499 C2498 1.414 . S
C2499 C2500 1.374 . S
C2500 H2474 0.950 . S
C2500 C2496 1.385 . S
C2500 C2499 1.374 . S
C2501 C2498 1.499 . S
C2501 C2502 1.373 . S
C2501 C2503 1.389 . S
C2502 H2475 0.950 . S
C2502 C2488 1.377 . S
C2502 C2501 1.373 . S
C2503 C2487 1.377 . S
C2503 C2501 1.389 . S
C2503 C2504 1.524 . S
C2504 C2503 1.524 . S
C2504 C2505 1.397 . S
C2504 C2509 1.363 . S
C2505 H2476 0.950 . S
C2505 C2504 1.397 . S
C2505 C2506 1.334 . S
C2506 H2477 0.950 . S
C2506 C2505 1.334 . S
C2506 C2507 1.287 . S
C2507 C2506 1.287 . S
C2507 C2508 1.524 . S
C2507 H2510 0.999 . S
C2508 H2478 0.950 . S
C2508 C2507 1.524 . S
C2508 C2509 1.415 . S
C2509 H2479 0.950 . S
C2509 C2504 1.363 . S
C2509 C2508 1.415 . S
H2510 C2507 0.999 . S
H2511 C2492 0.913 . S
H2512 C2530 0.951 . S
H2513 C2532 0.951 . S
H2514 C2534 0.950 . S
H2515 C2535 0.950 . S
H2516 C2537 0.950 . S
H2517 C2540 0.950 . S
H2518 C2541 0.950 . S
H2519 C2543 0.950 . S
H2520 C2544 0.950 . S
H2521 C2545 0.951 . S
H2522 C2547 0.951 . S
H2523 C2549 0.950 . S
H2524 C2550 0.950 . S
H2525 C2552 0.950 . S
H2526 C2555 0.950 . S
H2527 C2556 0.950 . S
H2528 C2558 0.950 . S
H2529 C2559 0.950 . S
C2530 H2512 0.951 . S
C2530 C2531 1.366 . S
C2530 C2532 1.388 . S
C2531 C2530 1.366 . S
C2531 C2535 1.385 . S
C2532 H2513 0.951 . S
C2532 C2530 1.388 . S
C2532 C2533 1.366 . S
C2533 C2532 1.366 . S
C2533 C2534 1.414 . S
C2533 C2536 1.499 . S
C2534 H2514 0.950 . S
C2534 C2533 1.414 . S
C2534 C2535 1.374 . S
C2535 H2515 0.950 . S
C2535 C2531 1.385 . S
C2535 C2534 1.374 . S
C2536 C2533 1.499 . S
C2536 C2537 1.373 . S
C2536 C2538 1.389 . S
C2537 H2516 0.950 . S
C2537 C2536 1.373 . S
C2537 C2553 1.377 . S
C2538 C2536 1.389 . S
C2538 C2539 1.524 . S
C2538 C2552 1.377 . S
C2539 C2538 1.524 . S
C2539 C2540 1.397 . S
C2539 C2544 1.363 . S
C2540 H2517 0.950 . S
C2540 C2539 1.397 . S
C2540 C2541 1.334 . S
C2541 H2518 0.950 . S
C2541 C2540 1.334 . S
C2541 C2542 1.287 . S
C2542 C2541 1.287 . S
C2542 C2543 1.524 . S
C2542 H2561 0.913 . S
C2543 H2519 0.950 . S
C2543 C2542 1.524 . S
C2543 C2544 1.415 . S
C2544 H2520 0.950 . S
C2544 C2539 1.363 . S
C2544 C2543 1.415 . S
C2545 H2521 0.951 . S
C2545 C2546 1.366 . S
C2545 C2547 1.388 . S
C2546 C2545 1.366 . S
C2546 C2550 1.385 . S
C2547 H2522 0.951 . S
C2547 C2545 1.388 . S
C2547 C2548 1.366 . S
C2548 C2547 1.366 . S
C2548 C2549 1.414 . S
C2548 C2551 1.499 . S
C2549 H2523 0.950 . S
C2549 C2548 1.414 . S
C2549 C2550 1.374 . S
C2550 H2524 0.950 . S
C2550 C2546 1.385 . S
C2550 C2549 1.374 . S
C2551 C2548 1.499 . S
C2551 C2552 1.373 . S
C2551 C2553 1.389 . S
C2552 H2525 0.950 . S
C2552 C2538 1.377 . S
C2552 C2551 1.373 . S
C2553 C2537 1.377 . S
C2553 C2551 1.389 . S
C2553 C2554 1.524 . S
C2554 C2553 1.524 . S
C2554 C2555 1.397 . S
C2554 C2559 1.363 . S
C2555 H2526 0.950 . S
C2555 C2554 1.397 . S
C2555 C2556 1.334 1_556 S
C2556 H2527 0.950 . S
C2556 C2555 1.334 1_554 S
C2556 C2557 1.287 . S
C2557 C2556 1.287 . S
C2557 C2558 1.524 1_554 S
C2557 H2560 0.999 . S
C2558 H2528 0.950 . S
C2558 C2557 1.524 1_556 S
C2558 C2559 1.415 . S
C2559 H2529 0.950 . S
C2559 C2554 1.363 . S
C2559 C2558 1.415 . S
H2560 C2557 0.999 . S
H2561 C2542 0.913 . S
H2562 C2580 0.951 . S
H2563 C2582 0.951 . S
H2564 C2584 0.950 . S
H2565 C2585 0.950 . S
H2566 C2587 0.950 . S
H2567 C2590 0.950 . S
H2568 C2591 0.950 . S
H2569 C2593 0.950 . S
H2570 C2594 0.950 . S
H2571 C2595 0.951 . S
H2572 C2597 0.951 . S
H2573 C2599 0.950 . S
H2574 C2600 0.950 . S
H2575 C2602 0.950 . S
H2576 C2605 0.950 . S
H2577 C2606 0.950 . S
H2578 C2608 0.950 . S
H2579 C2609 0.950 . S
C2580 H2562 0.951 . S
C2580 C2581 1.366 . S
C2580 C2582 1.388 . S
C2581 C2580 1.366 . S
C2581 C2585 1.385 . S
C2582 H2563 0.951 . S
C2582 C2580 1.388 . S
C2582 C2583 1.366 . S
C2583 C2582 1.366 . S
C2583 C2584 1.414 . S
C2583 C2586 1.499 . S
C2584 H2564 0.950 . S
C2584 C2583 1.414 . S
C2584 C2585 1.374 . S
C2585 H2565 0.950 . S
C2585 C2581 1.385 . S
C2585 C2584 1.374 . S
C2586 C2583 1.499 . S
C2586 C2587 1.373 . S
C2586 C2588 1.389 . S
C2587 H2566 0.950 . S
C2587 C2586 1.373 . S
C2587 C2603 1.377 . S
C2588 C2586 1.389 . S
C2588 C2589 1.524 . S
C2588 C2602 1.377 . S
C2589 C2588 1.524 . S
C2589 C2590 1.397 . S
C2589 C2594 1.363 . S
C2590 H2567 0.950 . S
C2590 C2589 1.397 . S
C2590 C2591 1.334 . S
C2591 H2568 0.950 . S
C2591 C2590 1.334 . S
C2591 C2592 1.287 . S
C2592 C2591 1.287 . S
C2592 C2593 1.524 . S
C2592 H2611 0.913 . S
C2593 H2569 0.950 . S
C2593 C2592 1.524 . S
C2593 C2594 1.415 . S
C2594 H2570 0.950 . S
C2594 C2589 1.363 . S
C2594 C2593 1.415 . S
C2595 H2571 0.951 . S
C2595 C2596 1.366 . S
C2595 C2597 1.388 . S
C2596 C2595 1.366 . S
C2596 C2600 1.385 . S
C2597 H2572 0.951 . S
C2597 C2595 1.388 . S
C2597 C2598 1.366 . S
C2598 C2597 1.366 . S
C2598 C2599 1.414 . S
C2598 C2601 1.499 . S
C2599 H2573 0.950 . S
C2599 C2598 1.414 . S
C2599 C2600 1.374 . S
C2600 H2574 0.950 . S
C2600 C2596 1.385 . S
C2600 C2599 1.374 . S
C2601 C2598 1.499 . S
C2601 C2602 1.373 . S
C2601 C2603 1.389 . S
C2602 H2575 0.950 . S
C2602 C2588 1.377 . S
C2602 C2601 1.373 . S
C2603 C2587 1.377 . S
C2603 C2601 1.389 . S
C2603 C2604 1.524 . S
C2604 C2603 1.524 . S
C2604 C2605 1.397 . S
C2604 C2609 1.363 . S
C2605 H2576 0.950 . S
C2605 C2604 1.397 . S
C2605 C2606 1.334 . S
C2606 H2577 0.950 . S
C2606 C2605 1.334 . S
C2606 C2607 1.287 . S
C2607 C2606 1.287 . S
C2607 C2608 1.524 . S
C2607 H2610 0.999 . S
C2608 H2578 0.950 . S
C2608 C2607 1.524 . S
C2608 C2609 1.415 . S
C2609 H2579 0.950 . S
C2609 C2604 1.363 . S
C2609 C2608 1.415 . S
H2610 C2607 0.999 . S
H2611 C2592 0.913 . S
H2612 C2630 0.951 . S
H2613 C2632 0.951 . S
H2614 C2634 0.950 . S
H2615 C2635 0.950 . S
H2616 C2637 0.950 . S
H2617 C2640 0.950 . S
H2618 C2641 0.950 . S
H2619 C2643 0.950 . S
H2620 C2644 0.950 . S
H2621 C2645 0.951 . S
H2622 C2647 0.951 . S
H2623 C2649 0.950 . S
H2624 C2650 0.950 . S
H2625 C2652 0.950 . S
H2626 C2655 0.953 . S
H2627 C2656 0.950 . S
H2628 C2658 0.950 . S
H2629 C2659 0.950 . S
C2630 H2612 0.951 . S
C2630 C2631 1.366 . S
C2630 C2632 1.388 . S
C2631 C2630 1.366 . S
C2631 C2635 1.385 . S
C2632 H2613 0.951 . S
C2632 C2630 1.388 . S
C2632 C2633 1.366 . S
C2633 C2632 1.366 . S
C2633 C2634 1.414 . S
C2633 C2636 1.499 . S
C2634 H2614 0.950 . S
C2634 C2633 1.414 . S
C2634 C2635 1.374 . S
C2635 H2615 0.950 . S
C2635 C2631 1.385 . S
C2635 C2634 1.374 . S
C2636 C2633 1.499 . S
C2636 C2637 1.373 . S
C2636 C2638 1.389 . S
C2637 H2616 0.950 . S
C2637 C2636 1.373 . S
C2637 C2653 1.377 . S
C2638 C2636 1.389 . S
C2638 C2639 1.524 . S
C2638 C2652 1.377 . S
C2639 C2638 1.524 . S
C2639 C2640 1.397 . S
C2639 C2644 1.363 . S
C2640 H2617 0.950 . S
C2640 C2639 1.397 . S
C2640 C2641 1.334 . S
C2641 H2618 0.950 . S
C2641 C2640 1.334 . S
C2641 C2642 1.287 . S
C2642 C2641 1.287 . S
C2642 C2643 1.524 . S
C2642 H2661 0.913 . S
C2643 H2619 0.950 . S
C2643 C2642 1.524 . S
C2643 C2644 1.415 . S
C2644 H2620 0.950 . S
C2644 C2639 1.363 . S
C2644 C2643 1.415 . S
C2645 H2621 0.951 . S
C2645 C2646 1.366 . S
C2645 C2647 1.388 . S
C2646 C2645 1.366 . S
C2646 C2650 1.385 . S
C2647 H2622 0.951 . S
C2647 C2645 1.388 . S
C2647 C2648 1.366 . S
C2648 C2647 1.366 . S
C2648 C2649 1.414 . S
C2648 C2651 1.499 . S
C2649 H2623 0.950 . S
C2649 C2648 1.414 . S
C2649 C2650 1.374 . S
C2650 H2624 0.950 . S
C2650 C2646 1.385 . S
C2650 C2649 1.374 . S
C2651 C2648 1.499 . S
C2651 C2652 1.373 . S
C2651 C2653 1.389 . S
C2652 H2625 0.950 . S
C2652 C2638 1.377 . S
C2652 C2651 1.373 . S
C2653 C2637 1.377 . S
C2653 C2651 1.389 . S
C2653 C2654 1.524 . S
C2654 C2653 1.524 . S
C2654 C2655 1.405 . S
C2654 C2659 1.363 . S
C2655 H2626 0.953 . S
C2655 C2654 1.405 . S
C2655 C2656 1.322 1_554 S
C2656 H2627 0.950 . S
C2656 C2655 1.322 1_556 S
C2656 C2657 1.287 . S
C2657 C2656 1.287 . S
C2657 C2658 1.524 . S
C2657 H2660 0.999 . S
C2658 H2628 0.950 . S
C2658 C2657 1.524 . S
C2658 C2659 1.415 1_556 S
C2659 H2629 0.950 . S
C2659 C2654 1.363 . S
C2659 C2658 1.415 1_554 S
H2660 C2657 0.999 . S
H2661 C2642 0.913 . S
H2662 C2680 0.951 . S
H2663 C2682 0.951 . S
H2664 C2684 0.950 . S
H2665 C2685 0.950 . S
H2666 C2687 0.950 . S
H2667 C2690 0.950 . S
H2668 C2691 0.950 . S
H2669 C2693 0.950 . S
H2670 C2694 0.950 . S
H2671 C2695 0.951 . S
H2672 C2697 0.951 . S
H2673 C2699 0.950 . S
H2674 C2700 0.950 . S
H2675 C2702 0.950 . S
H2676 C2705 0.950 . S
H2677 C2706 0.950 . S
H2678 C2708 0.950 . S
H2679 C2709 0.950 . S
C2680 H2662 0.951 . S
C2680 C2681 1.366 . S
C2680 C2682 1.388 . S
C2681 C2680 1.366 . S
C2681 C2685 1.385 . S
C2682 H2663 0.951 . S
C2682 C2680 1.388 . S
C2682 C2683 1.366 . S
C2683 C2682 1.366 . S
C2683 C2684 1.414 . S
C2683 C2686 1.499 . S
C2684 H2664 0.950 . S
C2684 C2683 1.414 . S
C2684 C2685 1.374 . S
C2685 H2665 0.950 . S
C2685 C2681 1.385 . S
C2685 C2684 1.374 . S
C2686 C2683 1.499 . S
C2686 C2687 1.373 . S
C2686 C2688 1.389 . S
C2687 H2666 0.950 . S
C2687 C2686 1.373 . S
C2687 C2703 1.377 . S
C2688 C2686 1.389 . S
C2688 C2689 1.524 . S
C2688 C2702 1.377 . S
C2689 C2688 1.524 . S
C2689 C2690 1.397 . S
C2689 C2694 1.363 . S
C2690 H2667 0.950 . S
C2690 C2689 1.397 . S
C2690 C2691 1.334 . S
C2691 H2668 0.950 . S
C2691 C2690 1.334 . S
C2691 C2692 1.287 . S
C2692 C2691 1.287 . S
C2692 C2693 1.524 . S
C2692 H2711 0.913 . S
C2693 H2669 0.950 . S
C2693 C2692 1.524 . S
C2693 C2694 1.415 . S
C2694 H2670 0.950 . S
C2694 C2689 1.363 . S
C2694 C2693 1.415 . S
C2695 H2671 0.951 . S
C2695 C2696 1.366 . S
C2695 C2697 1.388 1_565 S
C2696 C2695 1.366 . S
C2696 C2700 1.385 . S
C2697 H2672 0.951 . S
C2697 C2695 1.388 1_545 S
C2697 C2698 1.366 . S
C2698 C2697 1.366 . S
C2698 C2699 1.414 1_545 S
C2698 C2701 1.499 . S
C2699 H2673 0.950 . S
C2699 C2698 1.414 1_565 S
C2699 C2700 1.374 . S
C2700 H2674 0.950 . S
C2700 C2696 1.385 . S
C2700 C2699 1.374 . S
C2701 C2698 1.499 . S
C2701 C2702 1.373 . S
C2701 C2703 1.389 . S
C2702 H2675 0.950 . S
C2702 C2688 1.377 . S
C2702 C2701 1.373 . S
C2703 C2687 1.377 . S
C2703 C2701 1.389 . S
C2703 C2704 1.524 . S
C2704 C2703 1.524 . S
C2704 C2705 1.397 . S
C2704 C2709 1.363 . S
C2705 H2676 0.950 . S
C2705 C2704 1.397 . S
C2705 C2706 1.334 . S
C2706 H2677 0.950 . S
C2706 C2705 1.334 . S
C2706 C2707 1.287 . S
C2707 C2706 1.287 . S
C2707 C2708 1.524 . S
C2707 H2710 0.999 . S
C2708 H2678 0.950 . S
C2708 C2707 1.524 . S
C2708 C2709 1.415 . S
C2709 H2679 0.950 . S
C2709 C2704 1.363 . S
C2709 C2708 1.415 . S
H2710 C2707 0.999 . S
H2711 C2692 0.913 . S
C346 C152 1.619 1_556 S
C331 C50 1.627 . S
C396 C167 1.653 . S
C381 C61 1.681 . S
C431 C67 1.713 . S
C446 C180 1.699 . S
C496 C194 1.460 . S
C481 C41 1.491 . S
C546 C206 1.645 . S
C531 C95 1.703 . S
C596 C220 1.212 . S
C581 C113 1.230 . S
C631 C106 1.758 . S
C646 C234 1.716 . S
C696 C249 1.394 . S
C681 C86 1.410 . S
C731 C104 1.663 . S
C746 C265 1.650 . S
C796 C278 1.434 . S
C781 C88 1.444 . S
C831 C94 1.615 . S
C846 C263 1.571 . S
C896 C276 1.372 . S
C881 C112 1.378 . S
C931 C70 1.833 . S
C946 C292 1.819 . S
C981 C40 1.490 . S
C996 C291 1.466 . S
C1031 C49 1.754 . S
C1046 C290 1.697 . S
C1081 C59 1.584 . S
C1096 C293 1.565 . S
C1131 C34 1.680 . S
C1146 C195 1.671 . S
C1181 C133 1.505 . S
C1196 C193 1.478 . S
C1246 C153 1.488 . S
C1231 C139 1.510 . S
C1296 C164 1.737 . S
C1281 C77 1.766 . S
C1331 C43 1.532 . S
C1346 C209 1.518 . S
C1396 C250 1.887 . S
C1381 C103 1.896 . S
C1446 C207 1.414 . S
C1431 C85 1.426 . S
C1496 C235 1.362 . S
C1481 C115 1.382 . S
C1546 C236 1.619 . S
C1531 C131 1.627 . S
C1581 C142 1.681 . S
C1596 C251 1.653 . S
C1631 C76 1.713 . S
C1646 C208 1.699 . S
C1696 C222 1.459 . S
C1681 C122 1.490 . S
C1731 C32 1.703 . S
C1746 C178 1.645 . S
C1796 C192 1.212 . S
C1781 C5 1.230 . S
C1846 C150 1.716 . S
C1831 C16 1.758 . S
C1896 C165 1.394 . S
C1881 C23 1.410 . S
C1931 C14 1.663 . S
C1946 C279 1.650 . S
C1981 C25 1.443 . S
C1996 C264 1.434 . S
C2031 C31 1.615 . S
C2046 C277 1.571 . S
C2081 C4 1.378 . S
C2096 C262 1.372 . S
C2146 C306 1.819 . S
C2131 C79 1.833 . S
C2196 C305 1.466 . S
C2181 C121 1.489 . S
C2246 C304 1.697 . S
C2231 C130 1.754 . S
C2281 C140 1.584 . S
C2296 C307 1.566 . S
C2331 C97 1.680 . S
C2346 C223 1.672 . S
C2396 C221 1.477 . S
C2381 C52 1.505 . S
C2446 C237 1.488 . S
C2431 C58 1.510 . S
C2496 C248 1.737 . S
C2481 C68 1.766 . S
C2531 C124 1.532 . S
C2546 C181 1.518 . S
C2596 C166 1.887 . S
C2581 C13 1.896 . S
C2631 C22 1.426 . S
C2646 C179 1.415 . S
C2696 C151 1.363 . S
C2681 C7 1.382 . S
