# Generated by pormake.
# Topology tsx, (6,3)-cn, num edge types: 1
# Building blocks:
#     Node 0, Type 0, BuildingBlock: LEVNOQ01_clean_sbu_1, # of connection points: 6
#     Node 1, Type 0, BuildingBlock: LEVNOQ01_clean_sbu_1, # of connection points: 6
#     Node 2, Type 1, BuildingBlock: MIDCAF_clean_linker_0, # of connection points: 3
#     Node 3, Type 1, BuildingBlock: MIDCAF_clean_linker_0, # of connection points: 3
#     Node 4, Type 1, BuildingBlock: MIDCAF_clean_linker_0, # of connection points: 3
#     Node 5, Type 1, BuildingBlock: MIDCAF_clean_linker_0, # of connection points: 3
#     Edge 6, Type (0, 1), BuildingBlock: FUNLAD_clean_linker_1, # of connection points: 2
#     Edge 7, Type (0, 1), BuildingBlock: FUNLAD_clean_linker_1, # of connection points: 2
#     Edge 8, Type (0, 1), BuildingBlock: FUNLAD_clean_linker_1, # of connection points: 2
#     Edge 9, Type (0, 1), BuildingBlock: FUNLAD_clean_linker_1, # of connection points: 2
#     Edge 10, Type (0, 1), BuildingBlock: FUNLAD_clean_linker_1, # of connection points: 2
#     Edge 11, Type (0, 1), BuildingBlock: FUNLAD_clean_linker_1, # of connection points: 2
#     Edge 12, Type (0, 1), BuildingBlock: FUNLAD_clean_linker_1, # of connection points: 2
#     Edge 13, Type (0, 1), BuildingBlock: FUNLAD_clean_linker_1, # of connection points: 2
#     Edge 14, Type (0, 1), BuildingBlock: FUNLAD_clean_linker_1, # of connection points: 2
#     Edge 15, Type (0, 1), BuildingBlock: FUNLAD_clean_linker_1, # of connection points: 2
#     Edge 16, Type (0, 1), BuildingBlock: FUNLAD_clean_linker_1, # of connection points: 2
#     Edge 17, Type (0, 1), BuildingBlock: FUNLAD_clean_linker_1, # of connection points: 2
# Relax obj value: 0.132
# Max RMSD: 0.159
# Mean RMSD: 0.121
data_MOF--net-tsx--node1-LEVNOQ01_clean_sbu_1--node2-MIDCAF_clean_linker_0--edge1-FUNLAD_clean_linker_1
_symmetry_space_group_name_H-M    P1
_symmetry_Int_Tables_number       1
_symmetry_cell_setting            triclinic
loop_
_symmetry_equiv_pos_as_xyz
'x, y, z'
_cell_length_a     23.198001
_cell_length_b     28.030084
_cell_length_c     46.368714
_cell_angle_alpha  97.199261
_cell_angle_beta   90.775744
_cell_angle_gamma 90.095218
loop_
_atom_site_label
_atom_site_type_symbol
_atom_site_fract_x
_atom_site_fract_y
_atom_site_fract_z
_atom_type_partial_charge
O0 O 0.15986 0.02143 0.07432 0.0
Mg1 Mg 0.18914 0.03487 0.03307 0.0
O2 O 0.06723 0.01314 0.06165 0.0
Mg3 Mg 0.05996 0.0235 0.01244 0.0
O4 O 0.13313 0.07957 0.01555 0.0
O5 O 0.22395 0.09999 0.02782 0.0
O6 O 0.06005 0.04048 0.96311 0.0
O7 O -0.00252 0.08817 0.02503 0.0
Mg8 Mg 0.97337 0.0018 0.97899 0.0
O9 O 0.9855 0.96395 0.01305 0.0
O10 O 0.01364 0.98021 0.93949 0.0
O11 O 0.93765 0.07083 0.98785 0.0
O12 O 0.90827 0.95707 0.98267 0.0
C13 C 0.17236 0.94575 0.99544 0.0
C14 C 0.10794 0.01349 0.08056 0.0
C15 C 0.17453 0.11098 0.01736 0.0
C16 C 0.04613 0.01594 0.93903 0.0
C17 C 0.95378 0.09858 0.01007 0.0
C18 C 0.9362 0.94423 0.00462 0.0
O19 O 0.21165 0.97592 0.00337 0.0
O20 O 0.1192 0.95625 -0.00078 0.0
O21 O 0.65598 0.5227 0.57847 0.0
Mg22 Mg 0.69233 0.53164 0.53788 0.0
O23 O 0.56325 0.51726 0.56494 0.0
Mg24 Mg 0.55968 0.52658 0.51529 0.0
O25 O 0.63853 0.5759 0.519 0.0
O26 O 0.72916 0.59606 0.53034 0.0
O27 O 0.56608 0.53753 0.46541 0.0
O28 O 0.50506 0.59749 0.52795 0.0
Mg29 Mg 0.4578 0.51901 0.48347 0.0
O30 O 0.47896 0.47361 0.51323 0.0
O31 O 0.48922 0.50734 0.44188 0.0
O32 O 0.42893 0.58716 0.49875 0.0
O33 O 0.39521 0.4723 0.48784 0.0
C34 C 0.66465 0.44042 0.50166 0.0
C35 C 0.60326 0.51693 0.58424 0.0
C36 C 0.67972 0.60723 0.52002 0.0
C37 C 0.53862 0.52583 0.44156 0.0
C38 C 0.45731 0.61241 0.5184 0.0
C39 C 0.42828 0.45487 0.50648 0.0
O40 O 0.70658 0.46794 0.51008 0.0
O41 O 0.61265 0.45531 0.50384 0.0
C42 C 0.87673 0.10787 0.45444 0.0
C43 C 0.89017 0.12491 0.48346 0.0
C44 C 0.93537 0.10369 0.4976 0.0
C45 C 0.96812 0.06685 0.48251 0.0
H46 H 0.07039 0.92862 0.48287 0.0
H47 H 0.14362 0.87939 0.50364 0.0
H48 H 0.25012 0.88686 0.42869 0.0
H49 H 0.17717 0.93507 0.40777 0.0
H50 H 0.0942 0.93689 0.34634 0.0
H51 H 0.08897 0.93853 0.29416 0.0
H52 H 0.96286 0.0525 0.30633 0.0
H53 H 0.96753 0.05039 0.35843 0.0
H54 H 0.89942 0.0611 0.41656 0.0
H55 H 0.84279 0.12435 0.44286 0.0
H56 H 0.94596 0.1165 0.52005 0.0
H57 H 0.00385 0.05182 0.49357 0.0
N58 N 0.03593 -0.00796 0.4474 0.0
N59 N 0.07231 0.96497 0.40109 0.0
N60 N 0.99558 0.0191 0.40579 0.0
C61 C 0.07389 0.96459 0.43043 0.0
C62 C 0.03308 -0.00786 0.38861 0.0
C63 C 0.99647 0.01937 0.43506 0.0
C64 C 0.11786 0.93547 0.44359 0.0
C65 C 0.10943 0.91961 0.47085 0.0
C66 C 0.15109 0.89116 0.48264 0.0
C67 C 0.20223 0.87896 0.46753 0.0
C68 C 0.21098 0.8957 0.44069 0.0
C69 C 0.16906 0.92312 0.42867 0.0
C70 C 0.03125 -0.00662 0.3567 0.0
C71 C 0.06552 0.96242 0.33789 0.0
C72 C 0.06265 0.96362 0.30779 0.0
C73 C 0.02562 -0.00387 0.29589 0.0
C74 C 0.9917 0.02703 0.31477 0.0
C75 C 0.99445 0.02577 0.34472 0.0
C76 C 0.95685 0.0519 0.45286 0.0
C77 C 0.90971 0.0719 0.4393 0.0
C78 C 0.83729 0.9532 0.56709 0.0
C79 C 0.85493 0.93214 0.53951 0.0
C80 C 0.90647 0.94758 0.52815 0.0
C81 C 0.93966 0.98376 0.54399 0.0
H82 H 0.04245 0.10649 0.53344 0.0
H83 H 0.10525 0.16087 0.51064 0.0
H84 H 0.17318 0.21748 0.59509 0.0
H85 H 0.10898 0.16549 0.618 0.0
H86 H 0.05122 0.14472 0.67222 0.0
H87 H 0.06593 0.14637 0.72422 0.0
H88 H 0.95771 0.02043 0.72298 0.0
H89 H 0.94257 0.01889 0.6709 0.0
H90 H 0.85704 0.0034 0.60464 0.0
H91 H 0.79858 0.941 0.57676 0.0
H92 H 0.92136 0.93125 0.50716 0.0
H93 H 0.97949 -0.00528 0.53477 0.0
N94 N 0.9957 0.06825 0.57591 0.0
N95 N 0.02875 0.10525 0.62114 0.0
N96 N 0.95857 0.0448 0.61899 0.0
C97 C 0.0303 0.10108 0.59175 0.0
C98 C 0.99333 0.07745 0.63501 0.0
C99 C 0.95955 0.04016 0.58938 0.0
C100 C 0.06987 0.13202 0.57752 0.0
C101 C 0.07012 0.13094 0.54712 0.0
C102 C 0.10628 0.16168 0.53407 0.0
C103 C 0.14426 0.1925 0.55119 0.0
C104 C 0.14483 0.1932 0.58146 0.0
C105 C 0.10777 0.16353 0.59452 0.0
C106 C 0.99602 0.08134 0.66721 0.0
C107 C 0.02978 0.11767 0.683 0.0
C108 C 0.03821 0.11878 0.7129 0.0
C109 C 0.01285 0.08398 0.72791 0.0
C110 C 0.97714 0.0486 0.71241 0.0
C111 C 0.96869 0.04744 0.68236 0.0
C112 C 0.92278 0.00398 0.5719 0.0
C113 C 0.87114 0.98848 0.58322 0.0
C114 C 0.3793 0.61444 0.95137 0.0
C115 C 0.38123 0.62624 0.9816 0.0
C116 C 0.41904 0.60115 -0.00182 0.0
C117 C 0.45756 0.56728 0.98427 0.0
H118 H 0.59967 0.47023 0.99307 0.0
H119 H 0.66693 0.41881 0.01606 0.0
H120 H 0.70012 0.33853 0.93229 0.0
H121 H 0.63373 0.38941 0.90936 0.0
H122 H 0.59552 0.43549 0.84967 0.0
H123 H 0.58927 0.43658 0.79718 0.0
H124 H 0.47369 0.55803 0.81006 0.0
H125 H 0.47975 0.55694 0.86192 0.0
H126 H 0.41362 0.57345 0.91418 0.0
H127 H 0.34902 0.63157 0.9381 0.0
H128 H 0.42006 0.60894 0.02165 0.0
H129 H 0.48822 0.54983 -0.00275 0.0
N130 N 0.5351 0.49585 0.95099 0.0
N131 N 0.57361 0.46557 0.90547 0.0
N132 N 0.50177 0.52397 0.90844 0.0
C133 C 0.57233 0.46595 0.93495 0.0
C134 C 0.53836 0.49492 0.89212 0.0
C135 C 0.49932 0.5248 0.93762 0.0
C136 C 0.61125 0.43398 0.94933 0.0
C137 C 0.6209 0.44129 0.9796 0.0
C138 C 0.65935 0.41194 0.9928 0.0
C139 C 0.68778 0.37409 0.97613 0.0
C140 C 0.67766 0.36648 0.94594 0.0
C141 C 0.64 0.39613 0.93271 0.0
C142 C 0.53796 0.49584 0.86016 0.0
C143 C 0.5691 0.46253 0.84123 0.0
C144 C 0.56548 0.46329 0.81102 0.0
C145 C 0.53069 0.49758 0.79927 0.0
C146 C 0.50051 0.53102 0.81832 0.0
C147 C 0.50412 0.53031 0.84822 0.0
C148 C 0.45732 0.55747 0.95372 0.0
C149 C 0.41657 0.58067 0.93765 0.0
C150 C 0.33124 0.45566 0.06112 0.0
C151 C 0.34972 0.43418 0.03377 0.0
C152 C 0.40305 0.4477 0.02337 0.0
C153 C 0.43729 0.48222 0.03998 0.0
H154 H 0.52001 0.62554 0.03611 0.0
H155 H 0.58183 0.68318 0.01552 0.0
H156 H 0.68412 0.70108 0.09459 0.0
H157 H 0.62212 0.64468 0.11545 0.0
H158 H 0.55435 0.62841 0.17245 0.0
H159 H 0.56121 0.62685 0.22439 0.0
H160 H 0.44128 0.50761 0.21741 0.0
H161 H 0.43345 0.50969 0.1651 0.0
H162 H 0.35113 0.50462 0.09916 0.0
H163 H 0.29128 0.44487 0.07022 0.0
H164 H 0.41871 0.43088 0.00264 0.0
H165 H 0.47883 0.49133 0.03176 0.0
N166 N 0.49252 0.56664 0.07363 0.0
N167 N 0.52738 0.59811 0.11979 0.0
N168 N 0.4566 0.53796 0.11538 0.0
C169 C 0.52774 0.59756 0.09051 0.0
C170 C 0.49203 0.56852 0.13244 0.0
C171 C 0.45681 0.53683 0.08597 0.0
C172 C 0.56615 0.63055 0.07737 0.0
C173 C 0.55581 0.64157 0.049 0.0
C174 C 0.591 0.67448 0.03724 0.0
C175 C 0.63799 0.69558 0.05334 0.0
C176 C 0.64878 0.6843 0.08154 0.0
C177 C 0.61298 0.65231 0.09352 0.0
C178 C 0.49385 0.56877 0.16442 0.0
C179 C 0.52938 0.60174 0.18188 0.0
C180 C 0.53375 0.60057 0.21183 0.0
C181 C 0.50295 0.56608 0.22503 0.0
C182 C 0.46597 0.53425 0.20776 0.0
C183 C 0.46152 0.53544 0.17779 0.0
C184 C 0.41929 0.50281 0.06758 0.0
C185 C 0.36589 0.4894 0.07792 0.0
H186 H 0.12201 0.17329 0.00763 0.0
C187 C 0.16558 0.15974 0.00951 0.0
H188 H 0.25482 0.17468 0.00919 0.0
H189 H 0.2647 0.37038 0.96213 0.0
H190 H 0.27633 0.31946 0.91601 0.0
H191 H 0.25542 0.23243 0.91178 0.0
H192 H 0.22248 0.19583 0.95358 0.0
C193 C 0.21132 0.1888 0.00818 0.0
C194 C 0.20688 0.24149 0.0084 0.0
C195 C 0.22475 0.26237 0.98375 0.0
C196 C 0.23732 0.31232 0.98625 0.0
C197 C 0.2557 0.33234 0.96138 0.0
C198 C 0.26219 0.3036 0.93484 0.0
C199 C 0.25039 0.25459 0.93245 0.0
C200 C 0.23181 0.23401 0.95657 0.0
H201 H 0.34301 0.36269 0.0082 0.0
C202 C 0.31779 0.39301 0.01802 0.0
H203 H 0.2346 0.41967 0.02805 0.0
H204 H 0.1691 0.21336 0.05971 0.0
H205 H 0.15543 0.26438 0.10505 0.0
H206 H 0.17465 0.35152 0.10901 0.0
H207 H 0.20815 0.38782 0.06766 0.0
C208 C 0.26007 0.38924 0.01874 0.0
C209 C 0.23244 0.34101 0.0135 0.0
C210 C 0.20887 0.32105 0.03742 0.0
C211 C 0.19683 0.27099 0.03501 0.0
C212 C 0.17793 0.25123 0.05996 0.0
C213 C 0.16999 0.28015 0.08627 0.0
C214 C 0.18087 0.32916 0.0885 0.0
C215 C 0.20022 0.34954 0.06451 0.0
H216 H 0.22808 0.89196 0.97176 0.0
C217 C 0.19043 0.89649 0.98556 0.0
H218 H 0.13884 0.8649 0.01519 0.0
H219 H 0.29349 0.69609 0.93314 0.0
H220 H 0.23056 0.7114 0.89346 0.0
H221 H 0.15429 0.77279 0.90078 0.0
H222 H 0.1415 0.81955 0.94798 0.0
C223 C 0.17247 0.85956 -0.00099 0.0
C224 C 0.20747 0.81484 -0.00328 0.0
C225 C 0.21283 0.78634 0.9695 0.0
C226 C 0.25592 0.75032 0.96557 0.0
C227 C 0.2615 0.72372 0.93766 0.0
C228 C 0.22544 0.73211 0.91459 0.0
C229 C 0.18262 0.7667 0.91869 0.0
C230 C 0.17604 0.79349 0.94581 0.0
H231 H 0.31555 0.65832 0.01266 0.0
C232 C 0.34363 0.66519 0.99507 0.0
H233 H 0.36988 0.71297 0.96625 0.0
H234 H 0.20407 0.85977 0.05266 0.0
H235 H 0.26697 0.84477 0.0927 0.0
H236 H 0.34313 0.78325 0.08579 0.0
H237 H 0.35654 0.73614 0.03889 0.0
C238 C 0.34071 0.70699 0.98363 0.0
C239 C 0.29254 0.74175 0.98921 0.0
C240 C 0.28518 0.76865 0.01692 0.0
C241 C 0.24201 0.80488 0.02075 0.0
C242 C 0.2362 0.83194 0.04847 0.0
C243 C 0.27207 0.82374 0.07166 0.0
C244 C 0.31487 0.78903 0.06779 0.0
C245 C 0.32178 0.76191 0.04076 0.0
H246 H 0.93962 0.88034 0.02818 0.0
C247 C 0.91131 0.90607 0.0195 0.0
H248 H 0.82635 0.92755 0.01126 0.0
H249 H 0.71576 0.72397 0.98753 0.0
H250 H 0.70932 0.75183 0.94017 0.0
H251 H 0.7565 0.82743 0.93126 0.0
H252 H 0.81087 0.87506 0.9694 0.0
C253 C 0.85375 0.90097 0.01978 0.0
C254 C 0.82567 0.85591 0.02582 0.0
C255 C 0.7937 0.82863 0.00314 0.0
C256 C 0.76529 0.78579 0.00843 0.0
C257 C 0.7359 0.75802 0.98508 0.0
C258 C 0.73244 0.77328 0.95766 0.0
C259 C 0.75908 0.81577 0.95263 0.0
C260 C 0.78992 0.84296 0.97488 0.0
H261 H 0.65276 0.75936 0.03098 0.0
C262 C 0.67405 0.73126 0.0413 0.0
H263 H 0.7527 0.70159 0.05348 0.0
H264 H 0.87982 0.90199 0.07452 0.0
H265 H 0.88504 0.87471 0.12199 0.0
H266 H 0.83766 0.79927 0.13099 0.0
H267 H 0.78354 0.75144 0.09281 0.0
C268 C 0.73175 0.73033 0.04363 0.0
C269 C 0.76734 0.77126 0.03665 0.0
C270 C 0.80058 0.79786 0.0591 0.0
C271 C 0.82922 0.84067 0.05377 0.0
C272 C 0.85907 0.86822 0.07702 0.0
C273 C 0.86212 0.85315 0.10449 0.0
C274 C 0.83523 0.8108 0.10958 0.0
C275 C 0.80439 0.78355 0.08734 0.0
H276 H 0.87162 0.1326 0.02098 0.0
C277 C 0.91728 0.14026 0.01893 0.0
H278 H 0.97776 0.19158 0.00936 0.0
H279 H 0.79377 0.28652 0.93303 0.0
H280 H 0.86421 0.25517 0.89763 0.0
H281 H 0.94592 0.2065 0.91168 0.0
H282 H 0.95824 0.18963 0.96124 0.0
C283 C 0.93314 0.18464 0.01443 0.0
C284 C 0.88763 0.21899 0.00723 0.0
C285 C 0.88147 0.22892 0.97806 0.0
C286 C 0.83347 0.25585 0.96976 0.0
C287 C 0.82863 0.26543 0.9405 0.0
C288 C 0.86891 0.24776 0.91991 0.0
C289 C 0.91497 0.22047 0.92783 0.0
C290 C 0.92149 0.21112 0.95648 0.0
H291 H 0.75695 0.3629 0.00801 0.0
C292 C 0.73094 0.34511 0.99012 0.0
H293 H 0.71352 0.2801 0.96329 0.0
H294 H 0.88913 0.21005 0.06523 0.0
H295 H 0.81426 0.23566 0.09991 0.0
H296 H 0.72721 0.27689 0.08465 0.0
H297 H 0.7149 0.29356 0.03487 0.0
C298 C 0.74003 0.2984 0.98078 0.0
C299 C 0.79112 0.2722 0.99046 0.0
C300 C 0.79702 0.26207 0.01958 0.0
C301 C 0.84602 0.2364 0.0281 0.0
C302 C 0.8518 0.228 0.05746 0.0
C303 C 0.80934 0.24271 0.07758 0.0
C304 C 0.76042 0.26607 0.06902 0.0
C305 C 0.75409 0.27573 0.04039 0.0
H306 H 0.62683 0.66842 0.50866 0.0
C307 C 0.67046 0.65598 0.51199 0.0
H308 H 0.7591 0.67336 0.51482 0.0
H309 H 0.77829 0.86709 0.46768 0.0
H310 H 0.79621 0.81572 0.42234 0.0
H311 H 0.77431 0.72883 0.41755 0.0
H312 H 0.73381 0.69284 0.45798 0.0
C313 C 0.71544 0.68639 0.51228 0.0
C314 C 0.71 0.739 0.51173 0.0
C315 C 0.7327 0.75957 0.48793 0.0
C316 C 0.74612 0.80943 0.49084 0.0
C317 C 0.76876 0.82911 0.46672 0.0
C318 C 0.77884 0.80011 0.4406 0.0
C319 C 0.76647 0.75118 0.43789 0.0
C320 C 0.7436 0.73094 0.46122 0.0
H321 H 0.84949 0.85974 0.51487 0.0
C322 C 0.82379 0.89009 0.52421 0.0
H323 H 0.74039 0.91702 0.53296 0.0
H324 H 0.65911 0.71229 0.56048 0.0
H325 H 0.63731 0.76405 0.60463 0.0
H326 H 0.65975 0.85073 0.60953 0.0
H327 H 0.70438 0.88591 0.57038 0.0
C328 C 0.76597 0.88634 0.52415 0.0
C329 C 0.73765 0.83835 0.51777 0.0
C330 C 0.70849 0.81896 0.54039 0.0
C331 C 0.69505 0.76903 0.53747 0.0
C332 C 0.66967 0.74994 0.5612 0.0
C333 C 0.65693 0.7793 0.58679 0.0
C334 C 0.66958 0.82807 0.58956 0.0
C335 C 0.69529 0.84781 0.5668 0.0
H336 H 0.6398 0.3638 0.49186 0.0
C337 C 0.67605 0.38867 0.49365 0.0
H338 H 0.76653 0.39657 0.49543 0.0
H339 H 0.82708 0.21076 0.54968 0.0
H340 H 0.84734 0.2728 0.58995 0.0
H341 H 0.81983 0.35708 0.58716 0.0
H342 H 0.77152 0.37973 0.54433 0.0
C343 C 0.73032 0.37167 0.49278 0.0
C344 C 0.74354 0.3202 0.49451 0.0
C345 C 0.77206 0.30756 0.51974 0.0
C346 C 0.78905 0.25918 0.52114 0.0
C347 C 0.81546 0.24732 0.54702 0.0
C348 C 0.82676 0.28248 0.57043 0.0
C349 C 0.8112 0.32991 0.56887 0.0
C350 C 0.78376 0.34244 0.54402 0.0
H351 H 0.8903 0.19985 0.50414 0.0
C352 C 0.86244 0.16928 0.49709 0.0
H353 H 0.77817 0.14365 0.48893 0.0
H354 H 0.68967 0.33236 0.443 0.0
H355 H 0.66809 0.27035 0.4031 0.0
H356 H 0.69656 0.18624 0.40555 0.0
H357 H 0.74666 0.16373 0.4476 0.0
C358 C 0.80498 0.17491 0.49583 0.0
C359 C 0.77893 0.22373 0.49697 0.0
C360 C 0.7477 0.23593 0.47232 0.0
C361 C 0.73049 0.28434 0.471 0.0
C362 C 0.70227 0.29601 0.44553 0.0
C363 C 0.68995 0.2608 0.42233 0.0
C364 C 0.70604 0.21348 0.42369 0.0
C365 C 0.73487 0.20105 0.44817 0.0
H366 H 0.43838 0.39036 0.52934 0.0
C367 C 0.40763 0.41292 0.51952 0.0
H368 H 0.32086 0.42425 0.50783 0.0
H369 H 0.23892 0.21168 0.48763 0.0
H370 H 0.24281 0.23106 0.43815 0.0
H371 H 0.28622 0.30725 0.42755 0.0
H372 H 0.32681 0.36396 0.46623 0.0
C373 C 0.35127 0.40146 0.51773 0.0
C374 C 0.32862 0.35485 0.52451 0.0
C375 C 0.30479 0.32222 0.50158 0.0
C376 C 0.27825 0.27906 0.50774 0.0
C377 C 0.25713 0.24608 0.4843 0.0
C378 C 0.25968 0.2565 0.45575 0.0
C379 C 0.28421 0.29932 0.44977 0.0
C380 C 0.30707 0.33171 0.47227 0.0
H381 H 0.16209 0.2494 0.52372 0.0
C382 C 0.18177 0.22561 0.5378 0.0
H383 H 0.25728 0.20413 0.55811 0.0
H384 H 0.36879 0.41071 0.57352 0.0
H385 H 0.36354 0.39209 0.62299 0.0
H386 H 0.31787 0.31699 0.63385 0.0
H387 H 0.2764 0.26062 0.59544 0.0
C388 C 0.23833 0.2287 0.54431 0.0
C389 C 0.27365 0.26962 0.53696 0.0
C390 C 0.2994 0.30146 0.55981 0.0
C391 C 0.32659 0.3444 0.55357 0.0
C392 C 0.34908 0.37692 0.57689 0.0
C393 C 0.34608 0.36683 0.60547 0.0
C394 C 0.32025 0.32462 0.61158 0.0
C395 C 0.29674 0.29239 0.58919 0.0
H396 H 0.39002 0.65232 0.54211 0.0
C397 C 0.43023 0.65717 0.53105 0.0
H398 H 0.4754 0.70022 0.50535 0.0
H399 H 0.25661 0.76844 0.44224 0.0
H400 H 0.31066 0.72518 0.40309 0.0
H401 H 0.39926 0.68143 0.41327 0.0
H402 H 0.43398 0.6805 0.46244 0.0
C403 C 0.43706 0.69703 0.51821 0.0
C404 C 0.38568 0.72677 0.51242 0.0
C405 C 0.36654 0.72746 0.48317 0.0
C406 C 0.31595 0.75328 0.47716 0.0
C407 C 0.29618 0.75134 0.44795 0.0
C408 C 0.32638 0.72606 0.42524 0.0
C409 C 0.37617 0.7014 0.43098 0.0
C410 C 0.3959 0.70156 0.4595 0.0
H411 H 0.29186 0.85492 0.47206 0.0
C412 C 0.24793 0.84928 0.47889 0.0
H413 H 0.19393 0.80438 0.50036 0.0
H414 H 0.40962 0.73341 0.57087 0.0
H415 H 0.34975 0.77049 0.60987 0.0
H416 H 0.25965 0.81191 0.59917 0.0
H417 H 0.22936 0.81709 0.54935 0.0
C418 C 0.23735 0.81205 0.49375 0.0
C419 C 0.28515 0.7793 0.50024 0.0
C420 C 0.30179 0.77589 0.5294 0.0
C421 C 0.35279 0.75055 0.53554 0.0
C422 C 0.37001 0.7502 0.56492 0.0
C423 C 0.33633 0.7718 0.58754 0.0
C424 C 0.28569 0.79524 0.58151 0.0
C425 C 0.26879 0.79793 0.55283 0.0
H426 H 0.13311 0.00834 0.12571 0.0
C427 C 0.09628 0.00622 0.11081 0.0
H428 H 0.00588 -0.00454 0.10696 0.0
H429 H 0.02346 0.89399 0.22403 0.0
H430 H 0.99579 0.82623 0.18866 0.0
H431 H 0.98673 0.83531 0.13655 0.0
H432 H 0.00487 0.91242 0.11947 0.0
C433 C 0.04365 -0.00092 0.12118 0.0
C434 C 0.03755 -0.00433 0.15279 0.0
C435 C 0.02591 0.95069 0.1624 0.0
C436 C 0.03148 0.94543 0.19244 0.0
C437 C 0.02021 0.89993 0.20145 0.0
C438 C 0.00425 0.86076 0.18138 0.0
C439 C -0.00083 0.86587 0.15203 0.0
C440 C 0.00984 0.91024 0.14251 0.0
H441 H 0.98501 0.02082 0.25697 0.0
C442 C 0.02004 -0.00084 0.26415 0.0
H443 H 0.09222 0.95675 0.24953 0.0
H444 H 0.05093 0.08879 0.14217 0.0
H445 H 0.07974 0.15666 0.1772 0.0
H446 H 0.09683 0.14648 0.22871 0.0
H447 H 0.08402 0.06882 0.24559 0.0
C448 C 0.05654 0.97889 0.24394 0.0
C449 C 0.04836 0.98524 0.21276 0.0
C450 C 0.05782 0.03077 0.20323 0.0
C451 C 0.0508 0.03619 0.17333 0.0
C452 C 0.058 0.08238 0.16448 0.0
C453 C 0.07414 0.12167 0.18438 0.0
C454 C 0.08353 0.11597 0.21339 0.0
C455 C 0.07562 0.07116 0.22283 0.0
H456 H 0.00592 0.05643 0.90723 0.0
C457 C 0.04574 0.03862 0.91231 0.0
H458 H 0.12407 0.0095 0.8963 0.0
H459 H 0.02197 0.97105 0.76819 0.0
H460 H 0.05245 0.89192 0.77783 0.0
H461 H 0.09176 0.87908 0.82592 0.0
H462 H 0.10138 0.94522 0.8645 0.0
C463 C 0.08594 0.03 0.89191 0.0
C464 C 0.07221 0.03958 0.86163 0.0
C465 C 0.06714 0.00027 0.83925 0.0
C466 C 0.04353 0.00746 0.81167 0.0
C467 C 0.03897 0.96761 0.78968 0.0
C468 C 0.05636 0.92192 0.79488 0.0
C469 C 0.07852 0.91471 0.82194 0.0
C470 C 0.08383 0.95319 0.84395 0.0
H471 H 0.06913 0.10163 0.76661 0.0
C472 C 0.02938 0.08333 0.75891 0.0
H473 H 0.95966 0.04159 0.77104 0.0
H474 H 0.08638 0.12401 0.89764 0.0
H475 H 0.05297 0.20295 0.88853 0.0
H476 H 0.00428 0.2141 0.84221 0.0
H477 H 0.99018 0.14673 0.80443 0.0
C478 C -0.00039 0.06025 0.77761 0.0
C479 C 0.02474 0.05377 0.80653 0.0
C480 C 0.03111 0.09334 0.82862 0.0
C481 C 0.05642 0.08646 0.85589 0.0
C482 C 0.06499 0.12695 0.87705 0.0
C483 C 0.04646 0.17246 0.87201 0.0
C484 C 0.01927 0.17877 0.84588 0.0
C485 C 0.01169 0.13983 0.82433 0.0
H486 H 0.62729 0.5115 0.62938 0.0
C487 C 0.59049 0.51037 0.61448 0.0
H488 H 0.4999 0.50115 0.61069 0.0
H489 H 0.51237 0.39564 0.72605 0.0
H490 H 0.47397 0.33217 0.69049 0.0
H491 H 0.46186 0.34468 0.63903 0.0
H492 H 0.48758 0.42101 0.62281 0.0
C493 C 0.53768 0.50413 0.6249 0.0
C494 C 0.53199 0.49984 0.65649 0.0
C495 C 0.51627 0.45529 0.6656 0.0
C496 C 0.52371 0.44797 0.69526 0.0
C497 C 0.50796 0.40302 0.70377 0.0
C498 C 0.48585 0.36631 0.68359 0.0
C499 C 0.47904 0.37336 0.6546 0.0
C500 C 0.49412 0.41723 0.64556 0.0
H501 H 0.49111 0.5252 0.76111 0.0
C502 C 0.52357 0.50047 0.7676 0.0
H503 H 0.58843 0.45136 0.75129 0.0
H504 H 0.55194 0.59292 0.64752 0.0
H505 H 0.5909 0.6567 0.68272 0.0
H506 H 0.61296 0.64201 0.73306 0.0
H507 H 0.59483 0.56413 0.74867 0.0
C508 C 0.55581 0.477 0.74656 0.0
C509 C 0.54676 0.48525 0.71569 0.0
C510 C 0.56007 0.53059 0.70675 0.0
C511 C 0.55064 0.53831 0.67736 0.0
C512 C 0.561 0.58463 0.6693 0.0
C513 C 0.58291 0.6216 0.68932 0.0
C514 C 0.59507 0.61339 0.71768 0.0
C515 C 0.58398 0.56851 0.72641 0.0
H516 H 0.6047 0.55279 0.41331 0.0
C517 C 0.56159 0.53772 0.41384 0.0
H518 H 0.48469 0.51802 0.39023 0.0
H519 H 0.53964 0.66458 0.29981 0.0
H520 H 0.51524 0.72661 0.33918 0.0
H521 H 0.505 0.70705 0.3893 0.0
H522 H 0.51943 0.62549 0.40042 0.0
C523 C 0.52793 0.53288 0.38984 0.0
C524 C 0.54651 0.54694 0.36172 0.0
C525 C 0.53925 0.595 0.35585 0.0
C526 C 0.54477 0.60622 0.32697 0.0
C527 C 0.53588 0.6542 0.32141 0.0
C528 C 0.52188 0.69009 0.34379 0.0
C529 C 0.51614 0.67908 0.37202 0.0
C530 C 0.52453 0.63213 0.37811 0.0
H531 H 0.47594 0.54035 0.26589 0.0
C532 C 0.50842 0.56161 0.2565 0.0
H533 H 0.58738 0.59983 0.26543 0.0
H534 H 0.5686 0.45249 0.36655 0.0
H535 H 0.59479 0.39078 0.3274 0.0
H536 H 0.60589 0.41047 0.27735 0.0
H537 H 0.59046 0.49187 0.26614 0.0
C538 C 0.55301 0.5791 0.27351 0.0
C539 C 0.55681 0.56923 0.30417 0.0
C540 C 0.56817 0.52191 0.31045 0.0
C541 C 0.56254 0.51069 0.33928 0.0
C542 C 0.57222 0.46285 0.34493 0.0
C543 C 0.58747 0.42716 0.3227 0.0
C544 C 0.59368 0.43825 0.29452 0.0
C545 C 0.58438 0.48503 0.28835 0.0
loop_
_geom_bond_atom_site_label_1
_geom_bond_atom_site_label_2
_geom_bond_distance
_geom_bond_site_symmetry_2
_ccdc_geom_bond_type
O0 Mg1 1.990 . S
O0 C14 1.253 . S
Mg1 O0 1.990 . S
Mg1 O4 2.180 . S
Mg1 O5 2.117 . S
Mg1 O19 2.030 1_545 S
O2 Mg3 2.072 . S
O2 C14 1.260 . S
Mg3 O2 2.072 . S
Mg3 O4 2.099 . S
Mg3 O6 2.079 1_554 S
Mg3 O7 2.072 . S
Mg3 O9 2.096 1_444 S
Mg3 O20 2.079 1_545 S
O4 Mg1 2.180 . S
O4 Mg3 2.099 . S
O4 C15 1.279 . S
O5 Mg1 2.117 . S
O5 C15 1.250 . S
O6 Mg3 2.079 1_556 S
O6 C16 1.264 . S
O7 Mg3 2.072 . S
O7 C17 1.260 1_455 S
Mg8 O9 2.191 1_545 S
Mg8 O10 2.030 . S
Mg8 O11 1.990 . S
Mg8 O12 2.117 1_546 S
O9 Mg3 2.096 1_666 S
O9 Mg8 2.191 1_565 S
O9 C18 1.271 1_556 S
O10 Mg8 2.030 . S
O10 C16 1.248 1_655 S
O11 Mg8 1.990 . S
O11 C17 1.253 1_556 S
O12 Mg8 2.117 1_564 S
O12 C18 1.250 . S
C13 O19 1.248 . S
C13 O20 1.264 . S
C14 O0 1.253 . S
C14 O2 1.260 . S
C15 O4 1.279 . S
C15 O5 1.250 . S
C16 O6 1.264 . S
C16 O10 1.248 1_455 S
C17 O7 1.260 1_655 S
C17 O11 1.253 1_554 S
C18 O9 1.271 1_554 S
C18 O12 1.250 . S
O19 Mg1 2.030 1_565 S
O19 C13 1.248 . S
O20 Mg3 2.079 1_565 S
O20 C13 1.264 . S
O21 Mg22 1.990 . S
O21 C35 1.253 . S
Mg22 O21 1.990 . S
Mg22 O25 2.180 . S
Mg22 O26 2.117 . S
Mg22 O40 2.030 . S
O23 Mg24 2.072 . S
O23 C35 1.260 . S
Mg24 O23 2.072 . S
Mg24 O25 2.099 . S
Mg24 O27 2.079 . S
Mg24 O28 2.072 . S
Mg24 O30 2.099 . S
Mg24 O41 2.079 . S
O25 Mg22 2.180 . S
O25 Mg24 2.099 . S
O25 C36 1.279 . S
O26 Mg22 2.117 . S
O26 C36 1.250 . S
O27 Mg24 2.079 . S
O27 C37 1.264 . S
O28 Mg24 2.072 . S
O28 C38 1.260 . S
Mg29 O30 2.180 . S
Mg29 O31 2.030 . S
Mg29 O32 1.990 . S
Mg29 O33 2.117 . S
O30 Mg24 2.099 . S
O30 Mg29 2.180 . S
O30 C39 1.279 . S
O31 Mg29 2.030 . S
O31 C37 1.248 . S
O32 Mg29 1.990 . S
O32 C38 1.253 . S
O33 Mg29 2.117 . S
O33 C39 1.250 . S
C34 O40 1.248 . S
C34 O41 1.264 . S
C35 O21 1.253 . S
C35 O23 1.260 . S
C36 O25 1.279 . S
C36 O26 1.250 . S
C37 O27 1.264 . S
C37 O31 1.248 . S
C38 O28 1.260 . S
C38 O32 1.253 . S
C39 O30 1.279 . S
C39 O33 1.250 . S
O40 Mg22 2.030 . S
O40 C34 1.248 . S
O41 Mg24 2.079 . S
O41 C34 1.264 . S
C42 C43 1.384 . S
C42 H55 0.947 . S
C42 C77 1.382 . S
C43 C42 1.384 . S
C43 C44 1.378 . S
C44 C43 1.378 . S
C44 C45 1.378 . S
C44 H56 0.952 . S
C45 C44 1.378 . S
C45 H57 0.950 1_655 S
C45 C76 1.383 . S
H46 C65 0.947 . S
H47 C66 0.946 . S
H48 C68 0.953 . S
H49 C69 0.945 . S
H50 C71 0.952 . S
H51 C72 0.949 . S
H52 C74 0.950 . S
H53 C75 0.948 . S
H54 C77 0.951 . S
H55 C42 0.947 . S
H56 C44 0.952 . S
H57 C45 0.950 1_455 S
N58 C61 1.382 1_545 S
N58 C63 1.363 . S
N59 C61 1.371 . S
N59 C62 1.372 1_565 S
N60 C62 1.361 . S
N60 C63 1.377 . S
C61 N58 1.382 1_565 S
C61 N59 1.371 . S
C61 C64 1.480 . S
C62 N59 1.372 1_545 S
C62 N60 1.361 . S
C62 C70 1.457 . S
C63 N58 1.363 . S
C63 N60 1.377 . S
C63 C76 1.479 1_455 S
C64 C61 1.480 . S
C64 C65 1.383 . S
C64 C69 1.385 . S
C65 H46 0.947 . S
C65 C64 1.383 . S
C65 C66 1.388 . S
C66 H47 0.946 . S
C66 C65 1.388 . S
C66 C67 1.384 . S
C67 C66 1.384 . S
C67 C68 1.377 . S
C68 H48 0.953 . S
C68 C67 1.377 . S
C68 C69 1.369 . S
C69 H49 0.945 . S
C69 C64 1.385 . S
C69 C68 1.369 . S
C70 C62 1.457 . S
C70 C71 1.372 1_545 S
C70 C75 1.364 . S
C71 H50 0.952 . S
C71 C70 1.372 1_565 S
C71 C72 1.389 . S
C72 H51 0.949 . S
C72 C71 1.389 . S
C72 C73 1.387 . S
C73 C72 1.387 . S
C73 C74 1.372 1_565 S
C74 H52 0.950 . S
C74 C73 1.372 1_545 S
C74 C75 1.379 . S
C75 H53 0.948 . S
C75 C70 1.364 . S
C75 C74 1.379 . S
C76 C45 1.383 . S
C76 C63 1.479 1_655 S
C76 C77 1.398 . S
C77 C42 1.382 . S
C77 H54 0.951 . S
C77 C76 1.398 . S
C78 C79 1.384 . S
C78 H91 0.947 . S
C78 C113 1.382 . S
C79 C78 1.384 . S
C79 C80 1.378 . S
C80 C79 1.378 . S
C80 C81 1.384 . S
C80 H92 0.952 . S
C81 C80 1.384 . S
C81 H93 0.944 1_565 S
C81 C112 1.383 1_565 S
H82 C101 0.947 . S
H83 C102 0.946 . S
H84 C104 0.953 . S
H85 C105 0.945 . S
H86 C107 0.952 . S
H87 C108 0.949 . S
H88 C110 0.950 . S
H89 C111 0.948 . S
H90 C113 0.951 . S
H91 C78 0.947 . S
H92 C80 0.952 . S
H93 C81 0.944 1_545 S
N94 C97 1.382 . S
N94 C99 1.363 1_455 S
N95 C97 1.371 . S
N95 C98 1.372 . S
N96 C98 1.361 1_655 S
N96 C99 1.377 . S
C97 N94 1.382 . S
C97 N95 1.371 . S
C97 C100 1.480 . S
C98 N95 1.372 . S
C98 N96 1.361 1_455 S
C98 C106 1.457 . S
C99 N94 1.363 1_655 S
C99 N96 1.377 . S
C99 C112 1.479 . S
C100 C97 1.480 . S
C100 C101 1.383 . S
C100 C105 1.385 . S
C101 H82 0.947 . S
C101 C100 1.383 . S
C101 C102 1.388 . S
C102 H83 0.946 . S
C102 C101 1.388 . S
C102 C103 1.384 . S
C103 C102 1.384 . S
C103 C104 1.377 . S
C104 H84 0.953 . S
C104 C103 1.377 . S
C104 C105 1.369 . S
C105 H85 0.945 . S
C105 C100 1.385 . S
C105 C104 1.369 . S
C106 C98 1.457 . S
C106 C107 1.372 . S
C106 C111 1.364 1_455 S
C107 H86 0.952 . S
C107 C106 1.372 . S
C107 C108 1.389 . S
C108 H87 0.949 . S
C108 C107 1.389 . S
C108 C109 1.387 . S
C109 C108 1.387 . S
C109 C110 1.372 1_455 S
C110 H88 0.950 . S
C110 C109 1.372 1_655 S
C110 C111 1.379 . S
C111 H89 0.948 . S
C111 C106 1.364 1_655 S
C111 C110 1.379 . S
C112 C81 1.383 1_545 S
C112 C99 1.479 . S
C112 C113 1.398 1_545 S
C113 C78 1.382 . S
C113 H90 0.951 . S
C113 C112 1.398 1_565 S
C114 C115 1.384 . S
C114 H127 0.947 . S
C114 C149 1.382 . S
C115 C114 1.384 . S
C115 C116 1.378 1_556 S
C116 C115 1.378 1_554 S
C116 C117 1.378 1_554 S
C116 H128 0.952 . S
C117 C116 1.378 1_556 S
C117 H129 0.950 . S
C117 C148 1.383 . S
H118 C137 0.947 . S
H119 C138 0.946 1_554 S
H120 C140 0.953 . S
H121 C141 0.945 . S
H122 C143 0.952 . S
H123 C144 0.949 . S
H124 C146 0.950 . S
H125 C147 0.948 . S
H126 C149 0.951 . S
H127 C114 0.947 . S
H128 C116 0.952 . S
H129 C117 0.950 . S
N130 C133 1.382 . S
N130 C135 1.363 . S
N131 C133 1.371 . S
N131 C134 1.372 . S
N132 C134 1.361 . S
N132 C135 1.377 . S
C133 N130 1.382 . S
C133 N131 1.371 . S
C133 C136 1.480 . S
C134 N131 1.372 . S
C134 N132 1.361 . S
C134 C142 1.457 . S
C135 N130 1.363 . S
C135 N132 1.377 . S
C135 C148 1.479 . S
C136 C133 1.480 . S
C136 C137 1.383 . S
C136 C141 1.385 . S
C137 H118 0.947 . S
C137 C136 1.383 . S
C137 C138 1.388 . S
C138 H119 0.946 1_556 S
C138 C137 1.388 . S
C138 C139 1.384 . S
C139 C138 1.384 . S
C139 C140 1.377 . S
C140 H120 0.953 . S
C140 C139 1.377 . S
C140 C141 1.369 . S
C141 H121 0.945 . S
C141 C136 1.385 . S
C141 C140 1.369 . S
C142 C134 1.457 . S
C142 C143 1.372 . S
C142 C147 1.364 . S
C143 H122 0.952 . S
C143 C142 1.372 . S
C143 C144 1.389 . S
C144 H123 0.949 . S
C144 C143 1.389 . S
C144 C145 1.387 . S
C145 C144 1.387 . S
C145 C146 1.372 . S
C146 H124 0.950 . S
C146 C145 1.372 . S
C146 C147 1.379 . S
C147 H125 0.948 . S
C147 C142 1.364 . S
C147 C146 1.379 . S
C148 C117 1.383 . S
C148 C135 1.479 . S
C148 C149 1.398 . S
C149 C114 1.382 . S
C149 H126 0.951 . S
C149 C148 1.398 . S
C150 C151 1.384 . S
C150 H163 0.947 . S
C150 C185 1.382 . S
C151 C150 1.384 . S
C151 C152 1.378 . S
C152 C151 1.378 . S
C152 C153 1.378 . S
C152 H164 0.952 . S
C153 C152 1.378 . S
C153 H165 0.950 . S
C153 C184 1.383 . S
H154 C173 0.947 . S
H155 C174 0.946 . S
H156 C176 0.953 . S
H157 C177 0.945 . S
H158 C179 0.952 . S
H159 C180 0.949 . S
H160 C182 0.950 . S
H161 C183 0.948 . S
H162 C185 0.951 . S
H163 C150 0.947 . S
H164 C152 0.952 . S
H165 C153 0.950 . S
N166 C169 1.382 . S
N166 C171 1.363 . S
N167 C169 1.371 . S
N167 C170 1.372 . S
N168 C170 1.361 . S
N168 C171 1.377 . S
C169 N166 1.382 . S
C169 N167 1.371 . S
C169 C172 1.480 . S
C170 N167 1.372 . S
C170 N168 1.361 . S
C170 C178 1.457 . S
C171 N166 1.363 . S
C171 N168 1.377 . S
C171 C184 1.479 . S
C172 C169 1.480 . S
C172 C173 1.383 . S
C172 C177 1.385 . S
C173 H154 0.947 . S
C173 C172 1.383 . S
C173 C174 1.388 . S
C174 H155 0.946 . S
C174 C173 1.388 . S
C174 C175 1.384 . S
C175 C174 1.384 . S
C175 C176 1.377 . S
C176 H156 0.953 . S
C176 C175 1.377 . S
C176 C177 1.369 . S
C177 H157 0.945 . S
C177 C172 1.385 . S
C177 C176 1.369 . S
C178 C170 1.457 . S
C178 C179 1.372 . S
C178 C183 1.364 . S
C179 H158 0.952 . S
C179 C178 1.372 . S
C179 C180 1.389 . S
C180 H159 0.949 . S
C180 C179 1.389 . S
C180 C181 1.387 . S
C181 C180 1.387 . S
C181 C182 1.372 . S
C182 H160 0.950 . S
C182 C181 1.372 . S
C182 C183 1.379 . S
C183 H161 0.948 . S
C183 C178 1.364 . S
C183 C182 1.379 . S
C184 C153 1.383 . S
C184 C171 1.479 . S
C184 C185 1.398 . S
C185 C150 1.382 . S
C185 H162 0.951 . S
C185 C184 1.398 . S
H186 C187 0.951 . S
C187 H186 0.951 . S
C187 C193 1.265 . S
H188 C193 0.950 . S
H189 C197 0.949 . S
H190 C198 0.950 . S
H191 C199 0.951 . S
H192 C200 0.951 . S
C193 C187 1.265 . S
C193 H188 0.950 . S
C193 C194 1.478 . S
C194 C193 1.478 . S
C194 C195 1.397 1_554 S
C194 C211 1.394 . S
C195 C194 1.397 1_556 S
C195 C196 1.438 1_556 S
C195 C200 1.429 . S
C196 C195 1.438 1_554 S
C196 C197 1.428 1_554 S
C196 C209 1.394 . S
C197 H189 0.949 . S
C197 C196 1.428 1_556 S
C197 C198 1.345 . S
C198 H190 0.950 . S
C198 C197 1.345 . S
C198 C199 1.424 . S
C199 H191 0.951 . S
C199 C198 1.424 . S
C199 C200 1.347 . S
C200 H192 0.951 . S
C200 C195 1.429 . S
C200 C199 1.347 . S
H201 C202 0.951 . S
C202 H201 0.951 . S
C202 C208 1.265 . S
H203 C208 0.950 . S
H204 C212 0.949 . S
H205 C213 0.950 . S
H206 C214 0.951 . S
H207 C215 0.951 . S
C208 C202 1.265 . S
C208 H203 0.950 . S
C208 C209 1.478 . S
C209 C196 1.394 . S
C209 C208 1.478 . S
C209 C210 1.397 . S
C210 C209 1.397 . S
C210 C211 1.438 . S
C210 C215 1.429 . S
C211 C194 1.394 . S
C211 C210 1.438 . S
C211 C212 1.428 . S
C212 H204 0.949 . S
C212 C211 1.428 . S
C212 C213 1.345 . S
C213 H205 0.950 . S
C213 C212 1.345 . S
C213 C214 1.424 . S
C214 H206 0.951 . S
C214 C213 1.424 . S
C214 C215 1.347 . S
C215 H207 0.951 . S
C215 C210 1.429 . S
C215 C214 1.347 . S
H216 C217 0.951 . S
C217 H216 0.951 . S
C217 C223 1.265 . S
H218 C223 0.950 . S
H219 C227 0.949 . S
H220 C228 0.950 . S
H221 C229 0.951 . S
H222 C230 0.951 . S
C223 C217 1.265 . S
C223 H218 0.950 . S
C223 C224 1.478 . S
C224 C223 1.478 . S
C224 C225 1.397 1_554 S
C224 C241 1.394 . S
C225 C224 1.397 1_556 S
C225 C226 1.438 . S
C225 C230 1.429 . S
C226 C225 1.438 . S
C226 C227 1.428 . S
C226 C239 1.394 1_556 S
C227 H219 0.949 . S
C227 C226 1.428 . S
C227 C228 1.345 . S
C228 H220 0.950 . S
C228 C227 1.345 . S
C228 C229 1.424 . S
C229 H221 0.951 . S
C229 C228 1.424 . S
C229 C230 1.347 . S
C230 H222 0.951 . S
C230 C225 1.429 . S
C230 C229 1.347 . S
H231 C232 0.951 . S
C232 H231 0.951 . S
C232 C238 1.265 1_556 S
H233 C238 0.950 . S
H234 C242 0.949 . S
H235 C243 0.950 . S
H236 C244 0.951 . S
H237 C245 0.951 . S
C238 C232 1.265 1_554 S
C238 H233 0.950 . S
C238 C239 1.478 . S
C239 C226 1.394 1_554 S
C239 C238 1.478 . S
C239 C240 1.397 . S
C240 C239 1.397 . S
C240 C241 1.438 . S
C240 C245 1.429 . S
C241 C224 1.394 . S
C241 C240 1.438 . S
C241 C242 1.428 . S
C242 H234 0.949 . S
C242 C241 1.428 . S
C242 C243 1.345 . S
C243 H235 0.950 . S
C243 C242 1.345 . S
C243 C244 1.424 . S
C244 H236 0.951 . S
C244 C243 1.424 . S
C244 C245 1.347 . S
C245 H237 0.951 . S
C245 C240 1.429 . S
C245 C244 1.347 . S
H246 C247 0.951 . S
C247 H246 0.951 . S
C247 C253 1.265 . S
H248 C253 0.950 . S
H249 C257 0.949 . S
H250 C258 0.950 . S
H251 C259 0.951 . S
H252 C260 0.951 . S
C253 C247 1.265 . S
C253 H248 0.950 . S
C253 C254 1.478 . S
C254 C253 1.478 . S
C254 C255 1.397 . S
C254 C271 1.394 . S
C255 C254 1.397 . S
C255 C256 1.438 . S
C255 C260 1.429 1_554 S
C256 C255 1.438 . S
C256 C257 1.428 1_554 S
C256 C269 1.394 . S
C257 H249 0.949 . S
C257 C256 1.428 1_556 S
C257 C258 1.345 . S
C258 H250 0.950 . S
C258 C257 1.345 . S
C258 C259 1.424 . S
C259 H251 0.951 . S
C259 C258 1.424 . S
C259 C260 1.347 . S
C260 H252 0.951 . S
C260 C255 1.429 1_556 S
C260 C259 1.347 . S
H261 C262 0.951 . S
C262 H261 0.951 . S
C262 C268 1.265 . S
H263 C268 0.950 . S
H264 C272 0.949 . S
H265 C273 0.950 . S
H266 C274 0.951 . S
H267 C275 0.951 . S
C268 C262 1.265 . S
C268 H263 0.950 . S
C268 C269 1.478 . S
C269 C256 1.394 . S
C269 C268 1.478 . S
C269 C270 1.397 . S
C270 C269 1.397 . S
C270 C271 1.438 . S
C270 C275 1.429 . S
C271 C254 1.394 . S
C271 C270 1.438 . S
C271 C272 1.428 . S
C272 H264 0.949 . S
C272 C271 1.428 . S
C272 C273 1.345 . S
C273 H265 0.950 . S
C273 C272 1.345 . S
C273 C274 1.424 . S
C274 H266 0.951 . S
C274 C273 1.424 . S
C274 C275 1.347 . S
C275 H267 0.951 . S
C275 C270 1.429 . S
C275 C274 1.347 . S
H276 C277 0.951 . S
C277 H276 0.951 . S
C277 C283 1.265 . S
H278 C283 0.950 . S
H279 C287 0.949 . S
H280 C288 0.950 . S
H281 C289 0.951 . S
H282 C290 0.951 . S
C283 C277 1.265 . S
C283 H278 0.950 . S
C283 C284 1.478 . S
C284 C283 1.478 . S
C284 C285 1.397 1_554 S
C284 C301 1.394 . S
C285 C284 1.397 1_556 S
C285 C286 1.438 . S
C285 C290 1.429 . S
C286 C285 1.438 . S
C286 C287 1.428 . S
C286 C299 1.394 . S
C287 H279 0.949 . S
C287 C286 1.428 . S
C287 C288 1.345 . S
C288 H280 0.950 . S
C288 C287 1.345 . S
C288 C289 1.424 . S
C289 H281 0.951 . S
C289 C288 1.424 . S
C289 C290 1.347 . S
C290 H282 0.951 . S
C290 C285 1.429 . S
C290 C289 1.347 . S
H291 C292 0.951 . S
C292 H291 0.951 . S
C292 C298 1.265 . S
H293 C298 0.950 . S
H294 C302 0.949 . S
H295 C303 0.950 . S
H296 C304 0.951 . S
H297 C305 0.951 . S
C298 C292 1.265 . S
C298 H293 0.950 . S
C298 C299 1.478 . S
C299 C286 1.394 . S
C299 C298 1.478 . S
C299 C300 1.397 1_556 S
C300 C299 1.397 1_554 S
C300 C301 1.438 . S
C300 C305 1.429 . S
C301 C284 1.394 . S
C301 C300 1.438 . S
C301 C302 1.428 . S
C302 H294 0.949 . S
C302 C301 1.428 . S
C302 C303 1.345 . S
C303 H295 0.950 . S
C303 C302 1.345 . S
C303 C304 1.424 . S
C304 H296 0.951 . S
C304 C303 1.424 . S
C304 C305 1.347 . S
C305 H297 0.951 . S
C305 C300 1.429 . S
C305 C304 1.347 . S
H306 C307 0.951 . S
C307 H306 0.951 . S
C307 C313 1.265 . S
H308 C313 0.950 . S
H309 C317 0.949 . S
H310 C318 0.950 . S
H311 C319 0.951 . S
H312 C320 0.951 . S
C313 C307 1.265 . S
C313 H308 0.950 . S
C313 C314 1.478 . S
C314 C313 1.478 . S
C314 C315 1.397 . S
C314 C331 1.394 . S
C315 C314 1.397 . S
C315 C316 1.438 . S
C315 C320 1.429 . S
C316 C315 1.438 . S
C316 C317 1.428 . S
C316 C329 1.394 . S
C317 H309 0.949 . S
C317 C316 1.428 . S
C317 C318 1.345 . S
C318 H310 0.950 . S
C318 C317 1.345 . S
C318 C319 1.424 . S
C319 H311 0.951 . S
C319 C318 1.424 . S
C319 C320 1.347 . S
C320 H312 0.951 . S
C320 C315 1.429 . S
C320 C319 1.347 . S
H321 C322 0.951 . S
C322 H321 0.951 . S
C322 C328 1.265 . S
H323 C328 0.950 . S
H324 C332 0.949 . S
H325 C333 0.950 . S
H326 C334 0.951 . S
H327 C335 0.951 . S
C328 C322 1.265 . S
C328 H323 0.950 . S
C328 C329 1.478 . S
C329 C316 1.394 . S
C329 C328 1.478 . S
C329 C330 1.397 . S
C330 C329 1.397 . S
C330 C331 1.438 . S
C330 C335 1.429 . S
C331 C314 1.394 . S
C331 C330 1.438 . S
C331 C332 1.428 . S
C332 H324 0.949 . S
C332 C331 1.428 . S
C332 C333 1.345 . S
C333 H325 0.950 . S
C333 C332 1.345 . S
C333 C334 1.424 . S
C334 H326 0.951 . S
C334 C333 1.424 . S
C334 C335 1.347 . S
C335 H327 0.951 . S
C335 C330 1.429 . S
C335 C334 1.347 . S
H336 C337 0.951 . S
C337 H336 0.951 . S
C337 C343 1.265 . S
H338 C343 0.950 . S
H339 C347 0.949 . S
H340 C348 0.950 . S
H341 C349 0.951 . S
H342 C350 0.951 . S
C343 C337 1.265 . S
C343 H338 0.950 . S
C343 C344 1.478 . S
C344 C343 1.478 . S
C344 C345 1.397 . S
C344 C361 1.394 . S
C345 C344 1.397 . S
C345 C346 1.438 . S
C345 C350 1.429 . S
C346 C345 1.438 . S
C346 C347 1.428 . S
C346 C359 1.394 . S
C347 H339 0.949 . S
C347 C346 1.428 . S
C347 C348 1.345 . S
C348 H340 0.950 . S
C348 C347 1.345 . S
C348 C349 1.424 . S
C349 H341 0.951 . S
C349 C348 1.424 . S
C349 C350 1.347 . S
C350 H342 0.951 . S
C350 C345 1.429 . S
C350 C349 1.347 . S
H351 C352 0.951 . S
C352 H351 0.951 . S
C352 C358 1.265 . S
H353 C358 0.950 . S
H354 C362 0.949 . S
H355 C363 0.950 . S
H356 C364 0.951 . S
H357 C365 0.951 . S
C358 C352 1.265 . S
C358 H353 0.950 . S
C358 C359 1.478 . S
C359 C346 1.394 . S
C359 C358 1.478 . S
C359 C360 1.397 . S
C360 C359 1.397 . S
C360 C361 1.438 . S
C360 C365 1.429 . S
C361 C344 1.394 . S
C361 C360 1.438 . S
C361 C362 1.428 . S
C362 H354 0.949 . S
C362 C361 1.428 . S
C362 C363 1.345 . S
C363 H355 0.950 . S
C363 C362 1.345 . S
C363 C364 1.424 . S
C364 H356 0.951 . S
C364 C363 1.424 . S
C364 C365 1.347 . S
C365 H357 0.951 . S
C365 C360 1.429 . S
C365 C364 1.347 . S
H366 C367 0.951 . S
C367 H366 0.951 . S
C367 C373 1.265 . S
H368 C373 0.950 . S
H369 C377 0.949 . S
H370 C378 0.950 . S
H371 C379 0.951 . S
H372 C380 0.951 . S
C373 C367 1.265 . S
C373 H368 0.950 . S
C373 C374 1.478 . S
C374 C373 1.478 . S
C374 C375 1.397 . S
C374 C391 1.394 . S
C375 C374 1.397 . S
C375 C376 1.438 . S
C375 C380 1.429 . S
C376 C375 1.438 . S
C376 C377 1.428 . S
C376 C389 1.394 . S
C377 H369 0.949 . S
C377 C376 1.428 . S
C377 C378 1.345 . S
C378 H370 0.950 . S
C378 C377 1.345 . S
C378 C379 1.424 . S
C379 H371 0.951 . S
C379 C378 1.424 . S
C379 C380 1.347 . S
C380 H372 0.951 . S
C380 C375 1.429 . S
C380 C379 1.347 . S
H381 C382 0.951 . S
C382 H381 0.951 . S
C382 C388 1.265 . S
H383 C388 0.950 . S
H384 C392 0.949 . S
H385 C393 0.950 . S
H386 C394 0.951 . S
H387 C395 0.951 . S
C388 C382 1.265 . S
C388 H383 0.950 . S
C388 C389 1.478 . S
C389 C376 1.394 . S
C389 C388 1.478 . S
C389 C390 1.397 . S
C390 C389 1.397 . S
C390 C391 1.438 . S
C390 C395 1.429 . S
C391 C374 1.394 . S
C391 C390 1.438 . S
C391 C392 1.428 . S
C392 H384 0.949 . S
C392 C391 1.428 . S
C392 C393 1.345 . S
C393 H385 0.950 . S
C393 C392 1.345 . S
C393 C394 1.424 . S
C394 H386 0.951 . S
C394 C393 1.424 . S
C394 C395 1.347 . S
C395 H387 0.951 . S
C395 C390 1.429 . S
C395 C394 1.347 . S
H396 C397 0.951 . S
C397 H396 0.951 . S
C397 C403 1.265 . S
H398 C403 0.950 . S
H399 C407 0.949 . S
H400 C408 0.950 . S
H401 C409 0.951 . S
H402 C410 0.951 . S
C403 C397 1.265 . S
C403 H398 0.950 . S
C403 C404 1.478 . S
C404 C403 1.478 . S
C404 C405 1.397 . S
C404 C421 1.394 . S
C405 C404 1.397 . S
C405 C406 1.438 . S
C405 C410 1.429 . S
C406 C405 1.438 . S
C406 C407 1.428 . S
C406 C419 1.394 . S
C407 H399 0.949 . S
C407 C406 1.428 . S
C407 C408 1.345 . S
C408 H400 0.950 . S
C408 C407 1.345 . S
C408 C409 1.424 . S
C409 H401 0.951 . S
C409 C408 1.424 . S
C409 C410 1.347 . S
C410 H402 0.951 . S
C410 C405 1.429 . S
C410 C409 1.347 . S
H411 C412 0.951 . S
C412 H411 0.951 . S
C412 C418 1.265 . S
H413 C418 0.950 . S
H414 C422 0.949 . S
H415 C423 0.950 . S
H416 C424 0.951 . S
H417 C425 0.951 . S
C418 C412 1.265 . S
C418 H413 0.950 . S
C418 C419 1.478 . S
C419 C406 1.394 . S
C419 C418 1.478 . S
C419 C420 1.397 . S
C420 C419 1.397 . S
C420 C421 1.438 . S
C420 C425 1.429 . S
C421 C404 1.394 . S
C421 C420 1.438 . S
C421 C422 1.428 . S
C422 H414 0.949 . S
C422 C421 1.428 . S
C422 C423 1.345 . S
C423 H415 0.950 . S
C423 C422 1.345 . S
C423 C424 1.424 . S
C424 H416 0.951 . S
C424 C423 1.424 . S
C424 C425 1.347 . S
C425 H417 0.951 . S
C425 C420 1.429 . S
C425 C424 1.347 . S
H426 C427 0.951 . S
C427 H426 0.951 . S
C427 C433 1.265 . S
H428 C433 0.950 1_655 S
H429 C437 0.949 . S
H430 C438 0.950 . S
H431 C439 0.951 1_655 S
H432 C440 0.951 . S
C433 C427 1.265 . S
C433 H428 0.950 1_455 S
C433 C434 1.478 . S
C434 C433 1.478 . S
C434 C435 1.397 1_545 S
C434 C451 1.394 . S
C435 C434 1.397 1_565 S
C435 C436 1.438 . S
C435 C440 1.429 . S
C436 C435 1.438 . S
C436 C437 1.428 . S
C436 C449 1.394 1_565 S
C437 H429 0.949 . S
C437 C436 1.428 . S
C437 C438 1.345 . S
C438 H430 0.950 . S
C438 C437 1.345 . S
C438 C439 1.424 . S
C439 H431 0.951 1_455 S
C439 C438 1.424 . S
C439 C440 1.347 . S
C440 H432 0.951 . S
C440 C435 1.429 . S
C440 C439 1.347 . S
H441 C442 0.951 . S
C442 H441 0.951 . S
C442 C448 1.265 1_565 S
H443 C448 0.950 . S
H444 C452 0.949 . S
H445 C453 0.950 . S
H446 C454 0.951 . S
H447 C455 0.951 . S
C448 C442 1.265 1_545 S
C448 H443 0.950 . S
C448 C449 1.478 . S
C449 C436 1.394 1_545 S
C449 C448 1.478 . S
C449 C450 1.397 . S
C450 C449 1.397 . S
C450 C451 1.438 . S
C450 C455 1.429 . S
C451 C434 1.394 . S
C451 C450 1.438 . S
C451 C452 1.428 . S
C452 H444 0.949 . S
C452 C451 1.428 . S
C452 C453 1.345 . S
C453 H445 0.950 . S
C453 C452 1.345 . S
C453 C454 1.424 . S
C454 H446 0.951 . S
C454 C453 1.424 . S
C454 C455 1.347 . S
C455 H447 0.951 . S
C455 C450 1.429 . S
C455 C454 1.347 . S
H456 C457 0.951 1_655 S
C457 H456 0.951 1_455 S
C457 C463 1.265 . S
H458 C463 0.950 . S
H459 C467 0.949 . S
H460 C468 0.950 . S
H461 C469 0.951 . S
H462 C470 0.951 . S
C463 C457 1.265 . S
C463 H458 0.950 . S
C463 C464 1.478 . S
C464 C463 1.478 . S
C464 C465 1.397 . S
C464 C481 1.394 . S
C465 C464 1.397 . S
C465 C466 1.438 . S
C465 C470 1.429 1_545 S
C466 C465 1.438 . S
C466 C467 1.428 1_545 S
C466 C479 1.394 . S
C467 H459 0.949 . S
C467 C466 1.428 1_565 S
C467 C468 1.345 . S
C468 H460 0.950 . S
C468 C467 1.345 . S
C468 C469 1.424 . S
C469 H461 0.951 . S
C469 C468 1.424 . S
C469 C470 1.347 . S
C470 H462 0.951 . S
C470 C465 1.429 1_565 S
C470 C469 1.347 . S
H471 C472 0.951 . S
C472 H471 0.951 . S
C472 C478 1.265 1_455 S
H473 C478 0.950 . S
H474 C482 0.949 . S
H475 C483 0.950 . S
H476 C484 0.951 . S
H477 C485 0.951 . S
C478 C472 1.265 1_655 S
C478 H473 0.950 . S
C478 C479 1.478 1_655 S
C479 C466 1.394 . S
C479 C478 1.478 1_455 S
C479 C480 1.397 . S
C480 C479 1.397 . S
C480 C481 1.438 . S
C480 C485 1.429 1_455 S
C481 C464 1.394 . S
C481 C480 1.438 . S
C481 C482 1.428 . S
C482 H474 0.949 . S
C482 C481 1.428 . S
C482 C483 1.345 . S
C483 H475 0.950 . S
C483 C482 1.345 . S
C483 C484 1.424 1_455 S
C484 H476 0.951 . S
C484 C483 1.424 1_655 S
C484 C485 1.347 . S
C485 H477 0.951 . S
C485 C480 1.429 1_655 S
C485 C484 1.347 . S
H486 C487 0.951 . S
C487 H486 0.951 . S
C487 C493 1.265 . S
H488 C493 0.950 . S
H489 C497 0.949 . S
H490 C498 0.950 . S
H491 C499 0.951 . S
H492 C500 0.951 . S
C493 C487 1.265 . S
C493 H488 0.950 . S
C493 C494 1.478 . S
C494 C493 1.478 . S
C494 C495 1.397 . S
C494 C511 1.394 . S
C495 C494 1.397 . S
C495 C496 1.438 . S
C495 C500 1.429 . S
C496 C495 1.438 . S
C496 C497 1.428 . S
C496 C509 1.394 . S
C497 H489 0.949 . S
C497 C496 1.428 . S
C497 C498 1.345 . S
C498 H490 0.950 . S
C498 C497 1.345 . S
C498 C499 1.424 . S
C499 H491 0.951 . S
C499 C498 1.424 . S
C499 C500 1.347 . S
C500 H492 0.951 . S
C500 C495 1.429 . S
C500 C499 1.347 . S
H501 C502 0.951 . S
C502 H501 0.951 . S
C502 C508 1.265 . S
H503 C508 0.950 . S
H504 C512 0.949 . S
H505 C513 0.950 . S
H506 C514 0.951 . S
H507 C515 0.951 . S
C508 C502 1.265 . S
C508 H503 0.950 . S
C508 C509 1.478 . S
C509 C496 1.394 . S
C509 C508 1.478 . S
C509 C510 1.397 . S
C510 C509 1.397 . S
C510 C511 1.438 . S
C510 C515 1.429 . S
C511 C494 1.394 . S
C511 C510 1.438 . S
C511 C512 1.428 . S
C512 H504 0.949 . S
C512 C511 1.428 . S
C512 C513 1.345 . S
C513 H505 0.950 . S
C513 C512 1.345 . S
C513 C514 1.424 . S
C514 H506 0.951 . S
C514 C513 1.424 . S
C514 C515 1.347 . S
C515 H507 0.951 . S
C515 C510 1.429 . S
C515 C514 1.347 . S
H516 C517 0.951 . S
C517 H516 0.951 . S
C517 C523 1.265 . S
H518 C523 0.950 . S
H519 C527 0.949 . S
H520 C528 0.950 . S
H521 C529 0.951 . S
H522 C530 0.951 . S
C523 C517 1.265 . S
C523 H518 0.950 . S
C523 C524 1.478 . S
C524 C523 1.478 . S
C524 C525 1.397 . S
C524 C541 1.394 . S
C525 C524 1.397 . S
C525 C526 1.438 . S
C525 C530 1.429 . S
C526 C525 1.438 . S
C526 C527 1.428 . S
C526 C539 1.394 . S
C527 H519 0.949 . S
C527 C526 1.428 . S
C527 C528 1.345 . S
C528 H520 0.950 . S
C528 C527 1.345 . S
C528 C529 1.424 . S
C529 H521 0.951 . S
C529 C528 1.424 . S
C529 C530 1.347 . S
C530 H522 0.951 . S
C530 C525 1.429 . S
C530 C529 1.347 . S
H531 C532 0.951 . S
C532 H531 0.951 . S
C532 C538 1.265 . S
H533 C538 0.950 . S
H534 C542 0.949 . S
H535 C543 0.950 . S
H536 C544 0.951 . S
H537 C545 0.951 . S
C538 C532 1.265 . S
C538 H533 0.950 . S
C538 C539 1.478 . S
C539 C526 1.394 . S
C539 C538 1.478 . S
C539 C540 1.397 . S
C540 C539 1.397 . S
C540 C541 1.438 . S
C540 C545 1.429 . S
C541 C524 1.394 . S
C541 C540 1.438 . S
C541 C542 1.428 . S
C542 H534 0.949 . S
C542 C541 1.428 . S
C542 C543 1.345 . S
C543 H535 0.950 . S
C543 C542 1.345 . S
C543 C544 1.424 . S
C544 H536 0.951 . S
C544 C543 1.424 . S
C544 C545 1.347 . S
C545 H537 0.951 . S
C545 C540 1.429 . S
C545 C544 1.347 . S
C202 C151 1.432 . S
C187 C15 1.365 . S
C217 C13 1.482 . S
C232 C115 1.514 . S
C247 C18 1.362 . S
C262 C175 1.477 . S
C277 C17 1.271 . S
C292 C139 1.326 . S
C307 C36 1.372 . S
C322 C79 1.429 . S
C337 C34 1.533 . S
C352 C43 1.477 . S
C382 C103 1.484 . S
C367 C39 1.370 . S
C412 C67 1.321 . S
C397 C38 1.275 . S
C427 C14 1.464 . S
C442 C73 1.550 . S
C457 C16 1.320 . S
C472 C109 1.389 . S
C502 C145 1.549 . S
C487 C35 1.465 . S
C517 C37 1.421 . S
C532 C181 1.424 . S
