# Generated by pormake.
# Topology tsx, (6,3)-cn, num edge types: 1
# Building blocks:
#     Node 0, Type 0, BuildingBlock: MIDCAF_clean_sbu_0, # of connection points: 6
#     Node 1, Type 0, BuildingBlock: MIDCAF_clean_sbu_0, # of connection points: 6
#     Node 2, Type 1, BuildingBlock: QEWDON_clean_linker_0, # of connection points: 3
#     Node 3, Type 1, BuildingBlock: QEWDON_clean_linker_0, # of connection points: 3
#     Node 4, Type 1, BuildingBlock: QEWDON_clean_linker_0, # of connection points: 3
#     Node 5, Type 1, BuildingBlock: QEWDON_clean_linker_0, # of connection points: 3
#     Edge 6, Type (0, 1), BuildingBlock: KIFKEQ_clean_linker_1, # of connection points: 2
#     Edge 7, Type (0, 1), BuildingBlock: KIFKEQ_clean_linker_1, # of connection points: 2
#     Edge 8, Type (0, 1), BuildingBlock: KIFKEQ_clean_linker_1, # of connection points: 2
#     Edge 9, Type (0, 1), BuildingBlock: KIFKEQ_clean_linker_1, # of connection points: 2
#     Edge 10, Type (0, 1), BuildingBlock: KIFKEQ_clean_linker_1, # of connection points: 2
#     Edge 11, Type (0, 1), BuildingBlock: KIFKEQ_clean_linker_1, # of connection points: 2
#     Edge 12, Type (0, 1), BuildingBlock: KIFKEQ_clean_linker_1, # of connection points: 2
#     Edge 13, Type (0, 1), BuildingBlock: KIFKEQ_clean_linker_1, # of connection points: 2
#     Edge 14, Type (0, 1), BuildingBlock: KIFKEQ_clean_linker_1, # of connection points: 2
#     Edge 15, Type (0, 1), BuildingBlock: KIFKEQ_clean_linker_1, # of connection points: 2
#     Edge 16, Type (0, 1), BuildingBlock: KIFKEQ_clean_linker_1, # of connection points: 2
#     Edge 17, Type (0, 1), BuildingBlock: KIFKEQ_clean_linker_1, # of connection points: 2
# Relax obj value: 0.091
# Max RMSD: 0.153
# Mean RMSD: 0.150
data_MOF--net-tsx--node1-MIDCAF_clean_sbu_0--node2-QEWDON_clean_linker_0--edge1-KIFKEQ_clean_linker_1
_symmetry_space_group_name_H-M    P1
_symmetry_Int_Tables_number       1
_symmetry_cell_setting            triclinic
loop_
_symmetry_equiv_pos_as_xyz
'x, y, z'
_cell_length_a     21.610833
_cell_length_b     22.108512
_cell_length_c     36.070731
_cell_angle_alpha  90.300518
_cell_angle_beta   107.84181
_cell_angle_gamma 89.974297
loop_
_atom_site_label
_atom_site_type_symbol
_atom_site_fract_x
_atom_site_fract_y
_atom_site_fract_z
_atom_type_partial_charge
Zn0 Zn 0.93981 0.00922 0.94298 0.0
Zn1 Zn 0.16723 0.01647 0.05256 0.0
Zn2 Zn 0.05341 0.01806 -0.00198 0.0
C3 C 0.12919 0.13816 0.03692 0.0
C4 C 0.18818 0.95707 0.99027 0.0
O5 O 0.98221 0.96961 0.02128 0.0
O6 O 0.88847 0.97206 0.97402 0.0
C7 C 0.97246 0.13307 0.95449 0.0
O8 O 0.08099 0.11378 0.01083 0.0
O9 O 0.17247 0.1057 0.05956 0.0
O10 O 0.2204 0.97684 0.02345 0.0
O11 O 0.12647 0.96731 0.97698 0.0
O12 O 0.93078 0.09765 0.93289 0.0
O13 O 0.02143 0.11183 0.98145 0.0
O14 O 0.06773 0.97405 0.94621 0.0
O15 O 0.96901 0.95993 0.90531 0.0
C16 C 0.02991 0.95526 0.91313 0.0
O17 O 0.04105 0.97729 0.05121 0.0
O18 O 0.14074 0.96952 0.09192 0.0
C19 C 0.92093 0.95746 0.00822 0.0
C20 C 0.08028 0.96176 0.08455 0.0
Zn21 Zn 0.67323 0.50632 0.55872 0.0
Zn22 Zn 0.44265 0.5051 0.44523 0.0
Zn23 Zn 0.55721 0.51361 0.50255 0.0
C24 C 0.53591 0.45554 0.4161 0.0
C25 C 0.47766 0.62949 0.46171 0.0
O26 O 0.54312 0.47079 0.55435 0.0
O27 O 0.64137 0.4597 0.59637 0.0
C28 C 0.68992 0.45016 0.49398 0.0
O29 O 0.57171 0.47282 0.45006 0.0
O30 O 0.47476 0.45963 0.40692 0.0
O31 O 0.43609 0.59478 0.43929 0.0
O32 O 0.52669 0.60762 0.48826 0.0
O33 O 0.72351 0.46521 0.52797 0.0
O34 O 0.62914 0.46391 0.48111 0.0
O35 O 0.58729 0.60773 0.51757 0.0
O36 O 0.67944 0.59598 0.56541 0.0
C37 C 0.63678 0.63018 0.54368 0.0
O38 O 0.48502 0.46418 0.52365 0.0
O39 O 0.39209 0.46402 0.47557 0.0
C40 C 0.58047 0.45347 0.58777 0.0
C41 C 0.42437 0.4501 0.50994 0.0
H42 H 0.04006 0.04895 0.36615 0.0
C43 C 0.0906 0.03534 0.37634 0.0
C44 C 0.11673 1.00182 0.35147 0.0
C45 C 0.12846 0.04684 0.4151 0.0
H46 H 0.19975 0.95223 0.34667 0.0
C47 C 0.18075 0.98028 0.36542 0.0
C48 C 0.21921 0.9919 0.40375 0.0
C49 C 0.19355 0.02727 0.4278 0.0
C50 C 0.09881 0.071 0.44412 0.0
H51 H 0.22393 0.03713 0.45718 0.0
C52 C 0.03909 0.12567 0.42937 0.0
C53 C 0.99544 0.15929 0.45621 0.0
C54 C 0.12721 0.03842 0.48924 0.0
H55 H 0.16346 0.00311 0.49469 0.0
C56 C 0.09776 0.05807 0.5264 0.0
H57 H 0.02817 0.1412 0.39968 0.0
C58 C 0.00763 0.14054 0.50395 0.0
H59 H 0.97806 0.16411 0.51927 0.0
H60 H 0.11852 0.03488 0.55417 0.0
H61 H 0.07407 0.04987 0.63383 0.0
C62 C 0.02346 0.03625 0.62408 0.0
C63 C 0.99819 0.0027 0.64912 0.0
C64 C 0.98464 0.04765 0.58562 0.0
H65 H 0.91565 0.95347 0.6547 0.0
C66 C 0.93398 0.98143 0.63576 0.0
C67 C 0.89454 0.99302 0.59774 0.0
C68 C 0.91955 0.02791 0.57336 0.0
C69 C 0.01343 0.07169 0.55638 0.0
H70 H 0.88871 0.03732 0.54408 0.0
C71 C 0.0719 0.12769 0.57074 0.0
C72 C 0.11474 0.16141 0.54365 0.0
C73 C 0.98569 0.03752 0.51151 0.0
H74 H 0.95008 1.0016 0.50637 0.0
C75 C 0.01472 0.05671 0.47419 0.0
H76 H 0.08246 0.1441 0.60033 0.0
C77 C 0.10299 0.14125 0.49605 0.0
H78 H 0.13198 0.16497 0.48055 0.0
H79 H 0.99446 0.03253 0.44657 0.0
H80 H 0.53148 0.54684 0.86566 0.0
C81 C 0.58249 0.53485 0.87449 0.0
C82 C 0.6066 0.50079 0.84896 0.0
C83 C 0.62319 0.54887 0.91221 0.0
H84 H 0.68858 0.45202 0.84203 0.0
C85 C 0.67125 0.48075 0.86121 0.0
C86 C 0.71257 0.49475 0.89845 0.0
C87 C 0.68901 0.53123 0.92298 0.0
C88 C 0.59596 0.57269 0.9425 0.0
H89 H 0.72176 0.54321 0.95135 0.0
C90 C 0.53036 0.62177 0.92851 0.0
C91 C 0.48665 0.65157 0.95672 0.0
C92 C 0.63159 0.54355 0.98811 0.0
H93 H 0.67082 0.51126 0.9932 0.0
C94 C 0.60438 0.56104 0.02648 0.0
H95 H 0.51468 0.6355 0.89834 0.0
C96 C 0.50548 0.63458 0.00522 0.0
H97 H 0.47558 0.65542 0.02142 0.0
H98 H 0.62977 0.54009 0.05444 0.0
H99 H 0.58976 0.55494 0.13731 0.0
C100 C 0.54049 0.53769 0.12928 0.0
C101 C 0.51945 0.50643 0.15695 0.0
C102 C 0.49921 0.54253 0.09072 0.0
H103 H 0.4415 0.45738 0.16813 0.0
C104 C 0.45709 0.48111 0.14629 0.0
C105 C 0.41618 0.48322 0.10778 0.0
C106 C 0.43649 0.51654 0.08062 0.0
C107 C 0.52354 0.56736 0.05969 0.0
H108 H 0.40457 0.51948 0.05102 0.0
C109 C 0.57624 0.6286 0.07099 0.0
C110 C 0.6117 0.66566 0.04106 0.0
C111 C 0.49586 0.53021 0.01579 0.0
H112 H 0.46455 0.49115 0.01252 0.0
C113 C 0.51842 0.5515 0.9764 0.0
H114 H 0.58771 0.64639 0.1003 0.0
C115 C 0.59751 0.64375 0.99356 0.0
H116 H 0.622 0.66945 0.97624 0.0
H117 H 0.49857 0.5252 0.94958 0.0
H118 H 0.14182 0.21819 0.98236 0.0
H119 H 0.13894 0.20464 0.10101 0.0
H120 H 0.19597 0.31708 -0.00263 0.0
H121 H 0.191 0.30348 0.11573 0.0
H122 H 0.29707 0.5035 0.05148 0.0
H123 H 0.20529 0.43235 0.0296 0.0
H124 H 0.31172 0.30269 0.1142 0.0
H125 H 0.40318 0.37046 0.13439 0.0
C126 C 0.14968 0.23791 0.011 0.0
C127 C 0.13727 0.20402 0.04077 0.0
C128 C 0.18046 0.2944 0.01957 0.0
C129 C 0.19857 0.31715 0.05788 0.0
C130 C 0.1781 0.28654 0.08609 0.0
C131 C 0.14829 0.23014 0.07769 0.0
C132 C 0.30075 0.45981 0.0654 0.0
C133 C 0.35742 0.44354 0.09539 0.0
C134 C 0.2481 0.41941 0.05297 0.0
C135 C 0.251 0.36276 0.07088 0.0
C136 C 0.30732 0.34683 0.1007 0.0
C137 C 0.35981 0.3862 0.1125 0.0
H138 H 0.1406 0.86082 0.94144 0.0
H139 H 0.31386 0.96701 0.99155 0.0
H140 H 0.20386 0.78807 0.91655 0.0
H141 H 0.37718 0.89417 0.96776 0.0
H142 H 0.36475 0.63638 0.95944 0.0
H143 H 0.28329 0.71485 0.95319 0.0
H144 H 0.40443 0.84067 0.91542 0.0
H145 H 0.48652 0.76113 0.92213 0.0
C146 C 0.1917 0.86961 0.94608 0.0
C147 C 0.22231 0.91948 0.96854 0.0
C148 C 0.22812 0.82769 0.93214 0.0
C149 C 0.29582 0.83491 0.9404 0.0
C150 C 0.3252 0.88729 0.96041 0.0
C151 C 0.28895 0.92886 0.97443 0.0
C152 C 0.37268 0.6802 0.94832 0.0
C153 C 0.43149 0.69291 0.94111 0.0
C154 C 0.32592 0.72526 0.94462 0.0
C155 C 0.33742 0.7844 0.93414 0.0
C156 C 0.39431 0.79572 0.92389 0.0
C157 C 0.44098 0.75017 0.92726 0.0
H158 H 0.95073 0.84776 0.0437 0.0
H159 H 0.8132 0.99425 0.02476 0.0
H160 H 0.87646 0.78351 0.06546 0.0
H161 H 0.74068 0.93211 0.04875 0.0
H162 H 0.59229 0.77601 0.00961 0.0
H163 H 0.6732 0.8541 0.01525 0.0
H164 H 0.8112 0.75157 0.1053 0.0
H165 H 0.72878 0.67207 0.09857 0.0
C166 C 0.90576 0.86688 0.04581 0.0
C167 C 0.88695 0.92538 0.03204 0.0
C168 C 0.86315 0.83023 0.05841 0.0
C169 C 0.8015 0.85199 0.05791 0.0
C170 C 0.78663 0.91306 0.04833 0.0
C171 C 0.82836 0.94895 0.03491 0.0
C172 C 0.63918 0.7713 0.03162 0.0
C173 C 0.65433 0.71858 0.05387 0.0
C174 C 0.68586 0.8162 0.03503 0.0
C175 C 0.74933 0.80942 0.06071 0.0
C176 C 0.76312 0.75814 0.08498 0.0
C177 C 0.71581 0.71303 0.08161 0.0
H178 H 0.91893 0.191 0.88654 0.0
H179 H 0.99822 0.22238 0.01026 0.0
H180 H 0.87774 0.29361 0.87761 0.0
H181 H 0.95811 0.32671 0.00135 0.0
H182 H 0.76055 0.43809 0.96826 0.0
H183 H 0.8465 0.36305 0.98557 0.0
H184 H 0.89297 0.4017 0.87983 0.0
H185 H 0.80584 0.47664 0.86222 0.0
C186 C 0.92926 0.22067 0.91172 0.0
C187 C 0.96144 0.19874 0.94909 0.0
C188 C 0.90618 0.27984 0.90659 0.0
C189 C 0.91427 0.31852 0.93879 0.0
C190 C 0.95067 0.29789 0.97598 0.0
C191 C 0.97423 0.23842 0.98108 0.0
C192 C 0.79067 0.43236 0.9494 0.0
C193 C 0.77566 0.46258 0.91352 0.0
C194 C 0.84021 0.38922 0.95938 0.0
C195 C 0.87591 0.37548 0.93374 0.0
C196 C 0.8654 0.41032 0.89982 0.0
C197 C 0.81559 0.45328 0.88974 0.0
H198 H 0.61416 0.71535 0.48625 0.0
H199 H 0.68591 0.69226 0.61082 0.0
H200 H 0.65342 0.82012 0.49384 0.0
H201 H 0.72633 0.79534 0.61854 0.0
H202 H 0.85102 0.93162 0.529 0.0
H203 H 0.76512 0.85637 0.51136 0.0
H204 H 0.71078 0.90331 0.61361 0.0
H205 H 0.79792 0.97846 0.6316 0.0
C206 C 0.63644 0.73335 0.51528 0.0
C207 C 0.64724 0.69598 0.54797 0.0
C208 C 0.65939 0.79305 0.51963 0.0
C209 C 0.69345 0.81609 0.55677 0.0
C210 C 0.69965 0.77967 0.58955 0.0
C211 C 0.67705 0.72027 0.58516 0.0
C212 C 0.81922 0.9276 0.54697 0.0
C213 C 0.83194 0.96021 0.58207 0.0
C214 C 0.76969 0.88439 0.53678 0.0
C215 C 0.73177 0.87299 0.56146 0.0
C216 C 0.74009 0.91016 0.59442 0.0
C217 C 0.78989 0.95319 0.60472 0.0
H218 H 0.66622 0.33286 0.47276 0.0
H219 H 0.78421 0.48544 0.4635 0.0
H220 H 0.73517 0.26608 0.44879 0.0
H221 H 0.85061 0.4202 0.43622 0.0
H222 H 0.01524 0.27875 0.46644 0.0
H223 H 0.93239 0.35412 0.46286 0.0
H224 H 0.78376 0.22311 0.40681 0.0
H225 H 0.86833 0.14655 0.41366 0.0
C226 C 0.70561 0.35226 0.46402 0.0
C227 C 0.72073 0.41377 0.47031 0.0
C228 C 0.74516 0.31411 0.44996 0.0
C229 C 0.79997 0.33709 0.44119 0.0
C230 C 0.81057 0.40014 0.44392 0.0
C231 C 0.77218 0.43783 0.45911 0.0
C232 C 0.96491 0.26683 0.45243 0.0
C233 C 0.94792 0.20729 0.44041 0.0
C234 C 0.91691 0.3102 0.45003 0.0
C235 C 0.85045 0.29502 0.4351 0.0
C236 C 0.83406 0.2364 0.41947 0.0
C237 C 0.88242 0.19269 0.42262 0.0
H238 H 0.44998 0.33537 0.53651 0.0
H239 H 0.32422 0.48722 0.53459 0.0
H240 H 0.37844 0.27035 0.55948 0.0
H241 H 0.255 0.42417 0.56071 0.0
H242 H 0.09448 0.27878 0.52667 0.0
H243 H 0.17718 0.35471 0.53163 0.0
H244 H 0.32332 0.23154 0.59995 0.0
H245 H 0.23909 0.15406 0.59223 0.0
C246 C 0.40821 0.35516 0.54258 0.0
C247 C 0.39171 0.41569 0.53333 0.0
C248 C 0.36717 0.31808 0.55603 0.0
C249 C 0.30948 0.34132 0.56115 0.0
C250 C 0.29739 0.40385 0.55578 0.0
C251 C 0.33733 0.4403 0.54123 0.0
C252 C 0.14403 0.2688 0.54364 0.0
C253 C 0.16066 0.21104 0.559 0.0
C254 C 0.19189 0.31253 0.54685 0.0
C255 C 0.25787 0.29954 0.56583 0.0
C256 C 0.27346 0.243 0.58436 0.0
C257 C 0.22522 0.19887 0.58062 0.0
H258 H 0.49734 0.71581 0.51898 0.0
H259 H 0.43084 0.69025 0.39435 0.0
H260 H 0.45745 0.82032 0.51065 0.0
H261 H 0.38991 0.793 0.38587 0.0
H262 H 0.31763 0.9758 0.37137 0.0
H263 H 0.40465 0.90089 0.39066 0.0
H264 H 0.34579 0.85641 0.49144 0.0
H265 H 0.26007 0.93147 0.47254 0.0
C266 C 0.47598 0.73318 0.48982 0.0
C267 C 0.46678 0.69518 0.45729 0.0
C268 C 0.45273 0.79274 0.48502 0.0
C269 C 0.42002 0.81501 0.4476 0.0
C270 C 0.4155 0.77796 0.41508 0.0
C271 C 0.43836 0.71872 0.41991 0.0
C272 C 0.32458 0.95109 0.39819 0.0
C273 C 0.28139 0.95881 0.42007 0.0
C274 C 0.37433 0.90819 0.40924 0.0
C275 C 0.38142 0.8718 0.44218 0.0
C276 C 0.3422 0.88382 0.46607 0.0
C277 C 0.29276 0.92692 0.45515 0.0
H278 H 0.97141 0.00357 0.09949 0.0
H279 H 0.13636 0.88554 0.14389 0.0
H280 H 0.95281 0.00291 0.1631 0.0
H281 H 0.11826 0.88483 0.20704 0.0
H282 H 0.05796 0.07889 0.29245 0.0
H283 H 0.02247 0.05421 0.22296 0.0
H284 H 0.0536 0.8644 0.25035 0.0
H285 H 0.09025 0.88957 0.31968 0.0
C286 C 1.00184 0.9753 0.1223 0.0
C287 C 0.05569 0.94496 0.11698 0.0
C288 C 0.99162 0.97548 0.15882 0.0
C289 C 0.03459 0.94461 0.1903 0.0
C290 C 0.08391 0.90885 0.18348 0.0
C291 C 0.09453 0.90931 0.14726 0.0
C292 C 0.0548 0.03184 0.28351 0.0
C293 C 0.07781 0.98621 0.31114 0.0
C294 C 0.03428 0.01753 0.24373 0.0
C295 C 0.03633 0.95733 0.23113 0.0
C296 C 0.05257 0.91124 0.25912 0.0
C297 C 0.0734 0.92558 0.29875 0.0
H298 H 0.97794 0.87813 0.85283 0.0
H299 H 0.13892 1.00024 0.90016 0.0
H300 H 0.99872 0.87922 0.79042 0.0
H301 H 0.16033 1.00117 0.83743 0.0
H302 H 0.05565 0.07892 0.70934 0.0
H303 H 0.09119 0.05232 0.77831 0.0
H304 H 0.06473 0.86286 0.74739 0.0
H305 H 0.02789 0.88999 0.67853 0.0
C306 C 0.0195 0.90322 0.85028 0.0
C307 C 0.05627 0.93959 0.88112 0.0
C308 C 0.03172 0.90374 0.8145 0.0
C309 C 0.0806 0.94117 0.80874 0.0
C310 C 0.12181 0.97255 0.84086 0.0
C311 C 0.10992 0.97152 0.87688 0.0
C312 C 0.05998 0.03161 0.7174 0.0
C313 C 0.03818 0.98652 0.68894 0.0
C314 C 0.08052 0.01619 0.75689 0.0
C315 C 0.07962 0.95542 0.76833 0.0
C316 C 0.06484 0.91007 0.73951 0.0
C317 C 0.04398 0.92553 0.70016 0.0
H318 H 0.46883 0.49522 0.59905 0.0
H319 H 0.63234 0.37723 0.648 0.0
H320 H 0.44397 0.49439 0.66071 0.0
H321 H 0.60827 0.37676 0.70944 0.0
H322 H 0.57716 0.38716 0.82013 0.0
H323 H 0.54043 0.35869 0.7513 0.0
H324 H 0.51054 0.54738 0.72024 0.0
H325 H 0.54601 0.57528 0.78913 0.0
C326 C 0.49761 0.46683 0.62237 0.0
C327 C 0.55292 0.43668 0.61896 0.0
C328 C 0.48375 0.4669 0.65781 0.0
C329 C 0.52471 0.4364 0.69018 0.0
C330 C 0.5754 0.40054 0.68513 0.0
C331 C 0.58954 0.40097 0.64993 0.0
C332 C 0.56013 0.42217 0.79849 0.0
C333 C 0.56522 0.4834 0.8096 0.0
C334 C 0.53933 0.40596 0.75915 0.0
C335 C 0.52396 0.45079 0.73031 0.0
C336 C 0.52177 0.51163 0.74169 0.0
C337 C 0.54224 0.5278 0.78113 0.0
H338 H 0.49026 0.38056 0.35368 0.0
H339 H 0.64584 0.50527 0.4076 0.0
H340 H 0.51838 0.3852 0.29337 0.0
H341 H 0.67371 0.51046 0.34695 0.0
H342 H 0.56445 0.58727 0.21632 0.0
H343 H 0.59832 0.56169 0.28556 0.0
H344 H 0.59991 0.37223 0.25611 0.0
H345 H 0.5661 0.39813 0.18703 0.0
C346 C 0.53214 0.407 0.35307 0.0
C347 C 0.56558 0.44273 0.38516 0.0
C348 C 0.54849 0.40959 0.31858 0.0
C349 C 0.59788 0.44877 0.31538 0.0
C350 C 0.63531 0.48014 0.34862 0.0
C351 C 0.61963 0.4767 0.38341 0.0
C352 C 0.57542 0.54061 0.22486 0.0
C353 C 0.56241 0.49459 0.19669 0.0
C354 C 0.59475 0.5258 0.26444 0.0
C355 C 0.60075 0.46481 0.2761 0.0
C356 C 0.5951 0.41947 0.24788 0.0
C357 C 0.5761 0.43429 0.20846 0.0
loop_
_geom_bond_atom_site_label_1
_geom_bond_atom_site_label_2
_geom_bond_distance
_geom_bond_site_symmetry_2
_ccdc_geom_bond_type
Zn0 O6 1.920 1_545 S
Zn0 O12 1.898 . S
Zn0 O15 1.905 1_545 S
Zn1 O9 1.905 . S
Zn1 O10 1.898 1_545 S
Zn1 O18 1.920 1_545 S
Zn2 O5 2.080 1_444 S
Zn2 O8 2.114 . S
Zn2 O11 2.120 1_545 S
Zn2 O13 2.120 1_455 S
Zn2 O14 2.114 1_554 S
Zn2 O17 2.080 . S
C3 O8 1.166 . S
C3 O9 1.182 . S
C4 O10 1.167 . S
C4 O11 1.299 . S
O5 Zn2 2.080 1_666 S
O5 C19 1.305 . S
O6 Zn0 1.920 1_565 S
O6 C19 1.234 . S
C7 O12 1.167 . S
C7 O13 1.299 1_556 S
O8 Zn2 2.114 . S
O8 C3 1.166 . S
O9 Zn1 1.905 . S
O9 C3 1.182 . S
O10 Zn1 1.898 1_565 S
O10 C4 1.167 . S
O11 Zn2 2.120 1_565 S
O11 C4 1.299 . S
O12 Zn0 1.898 . S
O12 C7 1.167 . S
O13 Zn2 2.120 1_655 S
O13 C7 1.299 1_554 S
O14 Zn2 2.114 1_556 S
O14 C16 1.167 1_545 S
O15 Zn0 1.905 1_565 S
O15 C16 1.181 1_655 S
C16 O14 1.167 1_565 S
C16 O15 1.181 1_455 S
O17 Zn2 2.080 . S
O17 C20 1.305 1_545 S
O18 Zn1 1.920 1_565 S
O18 C20 1.234 . S
C19 O5 1.305 . S
C19 O6 1.234 . S
C20 O17 1.305 1_565 S
C20 O18 1.234 . S
Zn21 O27 1.920 . S
Zn21 O33 1.898 . S
Zn21 O36 1.905 . S
Zn22 O30 1.905 . S
Zn22 O31 1.898 . S
Zn22 O39 1.920 . S
Zn23 O26 2.080 . S
Zn23 O29 2.114 . S
Zn23 O32 2.120 . S
Zn23 O34 2.120 . S
Zn23 O35 2.114 . S
Zn23 O38 2.080 . S
C24 O29 1.166 . S
C24 O30 1.182 . S
C25 O31 1.167 . S
C25 O32 1.299 . S
O26 Zn23 2.080 . S
O26 C40 1.305 . S
O27 Zn21 1.920 . S
O27 C40 1.234 . S
C28 O33 1.167 . S
C28 O34 1.299 . S
O29 Zn23 2.114 . S
O29 C24 1.166 . S
O30 Zn22 1.905 . S
O30 C24 1.182 . S
O31 Zn22 1.898 . S
O31 C25 1.167 . S
O32 Zn23 2.120 . S
O32 C25 1.299 . S
O33 Zn21 1.898 . S
O33 C28 1.167 . S
O34 Zn23 2.120 . S
O34 C28 1.299 . S
O35 Zn23 2.114 . S
O35 C37 1.166 . S
O36 Zn21 1.905 . S
O36 C37 1.182 . S
C37 O35 1.166 . S
C37 O36 1.182 . S
O38 Zn23 2.080 . S
O38 C41 1.305 . S
O39 Zn22 1.920 . S
O39 C41 1.234 . S
C40 O26 1.305 . S
C40 O27 1.234 . S
C41 O38 1.305 . S
C41 O39 1.234 . S
H42 C43 0.949 . S
C43 H42 0.949 . S
C43 C44 1.395 . S
C43 C45 1.391 . S
C44 C43 1.395 . S
C44 C47 1.390 1_545 S
C45 C43 1.391 . S
C45 C49 1.387 . S
C45 C50 1.491 . S
H46 C47 0.950 . S
C47 C44 1.390 1_565 S
C47 H46 0.950 . S
C47 C48 1.378 . S
C48 C47 1.378 . S
C48 C49 1.409 1_565 S
C49 C45 1.387 . S
C49 C48 1.409 1_545 S
C49 H51 0.952 . S
C50 C45 1.491 . S
C50 C52 1.382 . S
C50 C54 1.404 . S
H51 C49 0.952 . S
C52 C50 1.382 . S
C52 C53 1.390 . S
C52 H57 0.949 . S
C53 C52 1.390 . S
C53 C58 1.399 . S
C54 C50 1.404 . S
C54 H55 0.950 . S
C54 C56 1.375 . S
H55 C54 0.950 . S
C56 C54 1.375 . S
C56 C58 1.382 . S
C56 H60 0.950 . S
H57 C52 0.949 . S
C58 C53 1.399 . S
C58 C56 1.382 . S
C58 H59 0.952 . S
H59 C58 0.952 . S
H60 C56 0.950 . S
H61 C62 0.949 . S
C62 H61 0.949 . S
C62 C63 1.395 1_455 S
C62 C64 1.391 1_455 S
C63 C62 1.395 1_655 S
C63 C66 1.390 1_545 S
C64 C62 1.391 1_655 S
C64 C68 1.399 . S
C64 C69 1.491 1_655 S
H65 C66 0.950 . S
C66 C63 1.390 1_565 S
C66 H65 0.950 . S
C66 C67 1.378 . S
C67 C66 1.378 . S
C67 C68 1.400 1_565 S
C68 C64 1.399 . S
C68 C67 1.400 1_545 S
C68 H70 0.949 1_545 S
C69 C64 1.491 1_455 S
C69 C71 1.382 . S
C69 C73 1.404 1_455 S
H70 C68 0.949 1_565 S
C71 C69 1.382 . S
C71 C72 1.390 . S
C71 H76 0.949 . S
C72 C71 1.390 . S
C72 C77 1.399 . S
C73 C69 1.404 1_655 S
C73 H74 0.950 . S
C73 C75 1.375 . S
H74 C73 0.950 . S
C75 C73 1.375 . S
C75 C77 1.382 1_655 S
C75 H79 0.950 . S
H76 C71 0.949 . S
C77 C72 1.399 . S
C77 C75 1.382 1_455 S
C77 H78 0.952 . S
H78 C77 0.952 . S
H79 C75 0.950 . S
H80 C81 0.949 . S
C81 H80 0.949 . S
C81 C82 1.395 . S
C81 C83 1.391 . S
C82 C81 1.395 . S
C82 C85 1.390 . S
C83 C81 1.391 . S
C83 C87 1.387 . S
C83 C88 1.491 . S
H84 C85 0.950 . S
C85 C82 1.390 . S
C85 H84 0.950 . S
C85 C86 1.378 . S
C86 C85 1.378 . S
C86 C87 1.409 . S
C87 C83 1.387 . S
C87 C86 1.409 . S
C87 H89 0.951 . S
C88 C83 1.491 . S
C88 C90 1.382 . S
C88 C92 1.404 1_556 S
H89 C87 0.951 . S
C90 C88 1.382 . S
C90 C91 1.390 . S
C90 H95 0.949 . S
C91 C90 1.390 . S
C91 C96 1.399 1_556 S
C92 C88 1.404 1_554 S
C92 H93 0.950 . S
C92 C94 1.375 . S
H93 C92 0.950 . S
C94 C92 1.375 . S
C94 C96 1.382 . S
C94 H98 0.950 . S
H95 C90 0.949 . S
C96 C91 1.399 1_554 S
C96 C94 1.382 . S
C96 H97 0.952 . S
H97 C96 0.952 . S
H98 C94 0.950 . S
H99 C100 0.949 . S
C100 H99 0.949 . S
C100 C101 1.395 . S
C100 C102 1.391 . S
C101 C100 1.395 . S
C101 C104 1.390 . S
C102 C100 1.391 . S
C102 C106 1.387 . S
C102 C107 1.491 . S
H103 C104 0.950 . S
C104 C101 1.390 . S
C104 H103 0.950 . S
C104 C105 1.378 . S
C105 C104 1.378 . S
C105 C106 1.409 . S
C106 C102 1.387 . S
C106 C105 1.409 . S
C106 H108 0.951 . S
C107 C102 1.491 . S
C107 C109 1.382 . S
C107 C111 1.404 . S
H108 C106 0.951 . S
C109 C107 1.382 . S
C109 C110 1.390 . S
C109 H114 0.949 . S
C110 C109 1.390 . S
C110 C115 1.399 1_554 S
C111 C107 1.404 . S
C111 H112 0.950 1_554 S
C111 C113 1.375 1_554 S
H112 C111 0.950 1_556 S
C113 C111 1.375 1_556 S
C113 C115 1.382 . S
C113 H117 0.950 . S
H114 C109 0.949 . S
C115 C110 1.399 1_556 S
C115 C113 1.382 . S
C115 H116 0.952 . S
H116 C115 0.952 . S
H117 C113 0.950 . S
H118 C126 0.950 . S
H119 C131 0.950 1_556 S
H120 C128 0.950 . S
H121 C130 0.950 1_556 S
H122 C132 0.950 . S
H123 C134 0.950 . S
H124 C136 0.950 . S
H125 C137 0.950 . S
C126 H118 0.950 . S
C126 C127 1.386 . S
C126 C128 1.391 . S
C127 C126 1.386 . S
C127 C131 1.393 . S
C128 H120 0.950 . S
C128 C126 1.391 . S
C128 C129 1.400 . S
C129 C128 1.400 . S
C129 C130 1.398 . S
C129 C135 1.491 . S
C130 H121 0.950 1_554 S
C130 C129 1.398 . S
C130 C131 1.391 . S
C131 H119 0.950 1_554 S
C131 C127 1.393 . S
C131 C130 1.391 . S
C132 H122 0.950 . S
C132 C133 1.386 . S
C132 C134 1.391 . S
C133 C132 1.386 . S
C133 C137 1.393 . S
C134 H123 0.950 . S
C134 C132 1.391 . S
C134 C135 1.400 . S
C135 C129 1.491 . S
C135 C134 1.400 . S
C135 C136 1.398 . S
C136 H124 0.950 . S
C136 C135 1.398 . S
C136 C137 1.391 . S
C137 H125 0.950 . S
C137 C133 1.393 . S
C137 C136 1.391 . S
H138 C146 0.950 . S
H139 C151 0.950 . S
H140 C148 0.950 . S
H141 C150 0.950 . S
H142 C152 0.950 . S
H143 C154 0.950 . S
H144 C156 0.950 . S
H145 C157 0.950 . S
C146 H138 0.950 . S
C146 C147 1.386 . S
C146 C148 1.391 . S
C147 C146 1.386 . S
C147 C151 1.393 1_556 S
C148 H140 0.950 . S
C148 C146 1.391 . S
C148 C149 1.400 . S
C149 C148 1.400 . S
C149 C150 1.398 1_556 S
C149 C155 1.491 . S
C150 H141 0.950 . S
C150 C149 1.398 1_554 S
C150 C151 1.391 . S
C151 H139 0.950 . S
C151 C147 1.393 1_554 S
C151 C150 1.391 . S
C152 H142 0.950 . S
C152 C153 1.386 1_554 S
C152 C154 1.391 . S
C153 C152 1.386 1_556 S
C153 C157 1.393 . S
C154 H143 0.950 . S
C154 C152 1.391 . S
C154 C155 1.400 1_554 S
C155 C149 1.491 . S
C155 C154 1.400 1_556 S
C155 C156 1.398 . S
C156 H144 0.950 . S
C156 C155 1.398 . S
C156 C157 1.391 . S
C157 H145 0.950 . S
C157 C153 1.393 . S
C157 C156 1.391 . S
H158 C166 0.950 . S
H159 C171 0.950 . S
H160 C168 0.950 . S
H161 C170 0.950 . S
H162 C172 0.950 . S
H163 C174 0.950 . S
H164 C176 0.950 . S
H165 C177 0.950 . S
C166 H158 0.950 . S
C166 C167 1.386 . S
C166 C168 1.391 . S
C167 C166 1.386 . S
C167 C171 1.393 . S
C168 H160 0.950 . S
C168 C166 1.391 . S
C168 C169 1.400 . S
C169 C168 1.400 . S
C169 C170 1.398 . S
C169 C175 1.491 . S
C170 H161 0.950 . S
C170 C169 1.398 . S
C170 C171 1.391 . S
C171 H159 0.950 . S
C171 C167 1.393 . S
C171 C170 1.391 . S
C172 H162 0.950 . S
C172 C173 1.386 . S
C172 C174 1.391 . S
C173 C172 1.386 . S
C173 C177 1.393 . S
C174 H163 0.950 . S
C174 C172 1.391 . S
C174 C175 1.400 . S
C175 C169 1.491 . S
C175 C174 1.400 . S
C175 C176 1.398 . S
C176 H164 0.950 . S
C176 C175 1.398 . S
C176 C177 1.391 . S
C177 H165 0.950 . S
C177 C173 1.393 . S
C177 C176 1.391 . S
H178 C186 0.950 . S
H179 C191 0.950 . S
H180 C188 0.950 . S
H181 C190 0.950 1_554 S
H182 C192 0.950 . S
H183 C194 0.950 1_554 S
H184 C196 0.950 . S
H185 C197 0.950 . S
C186 H178 0.950 . S
C186 C187 1.386 . S
C186 C188 1.391 . S
C187 C186 1.386 . S
C187 C191 1.393 1_556 S
C188 H180 0.950 . S
C188 C186 1.391 . S
C188 C189 1.400 . S
C189 C188 1.400 . S
C189 C190 1.398 . S
C189 C195 1.491 . S
C190 H181 0.950 1_556 S
C190 C189 1.398 . S
C190 C191 1.391 1_556 S
C191 H179 0.950 . S
C191 C187 1.393 1_554 S
C191 C190 1.391 1_554 S
C192 H182 0.950 . S
C192 C193 1.386 . S
C192 C194 1.391 . S
C193 C192 1.386 . S
C193 C197 1.393 . S
C194 H183 0.950 1_556 S
C194 C192 1.391 . S
C194 C195 1.400 . S
C195 C189 1.491 . S
C195 C194 1.400 . S
C195 C196 1.398 . S
C196 H184 0.950 . S
C196 C195 1.398 . S
C196 C197 1.391 . S
C197 H185 0.950 . S
C197 C193 1.393 . S
C197 C196 1.391 . S
H198 C206 0.950 . S
H199 C211 0.950 . S
H200 C208 0.950 . S
H201 C210 0.950 . S
H202 C212 0.950 . S
H203 C214 0.950 . S
H204 C216 0.950 . S
H205 C217 0.950 . S
C206 H198 0.950 . S
C206 C207 1.386 . S
C206 C208 1.391 . S
C207 C206 1.386 . S
C207 C211 1.393 . S
C208 H200 0.950 . S
C208 C206 1.391 . S
C208 C209 1.400 . S
C209 C208 1.400 . S
C209 C210 1.398 . S
C209 C215 1.491 . S
C210 H201 0.950 . S
C210 C209 1.398 . S
C210 C211 1.391 . S
C211 H199 0.950 . S
C211 C207 1.393 . S
C211 C210 1.391 . S
C212 H202 0.950 . S
C212 C213 1.386 . S
C212 C214 1.391 . S
C213 C212 1.386 . S
C213 C217 1.393 . S
C214 H203 0.950 . S
C214 C212 1.391 . S
C214 C215 1.400 . S
C215 C209 1.491 . S
C215 C214 1.400 . S
C215 C216 1.398 . S
C216 H204 0.950 . S
C216 C215 1.398 . S
C216 C217 1.391 . S
C217 H205 0.950 . S
C217 C213 1.393 . S
C217 C216 1.391 . S
H218 C226 0.950 . S
H219 C231 0.950 . S
H220 C228 0.950 . S
H221 C230 0.950 . S
H222 C232 0.950 . S
H223 C234 0.950 . S
H224 C236 0.950 . S
H225 C237 0.950 . S
C226 H218 0.950 . S
C226 C227 1.386 . S
C226 C228 1.391 . S
C227 C226 1.386 . S
C227 C231 1.393 . S
C228 H220 0.950 . S
C228 C226 1.391 . S
C228 C229 1.400 . S
C229 C228 1.400 . S
C229 C230 1.398 . S
C229 C235 1.491 . S
C230 H221 0.950 . S
C230 C229 1.398 . S
C230 C231 1.391 . S
C231 H219 0.950 . S
C231 C227 1.393 . S
C231 C230 1.391 . S
C232 H222 0.950 . S
C232 C233 1.386 . S
C232 C234 1.391 . S
C233 C232 1.386 . S
C233 C237 1.393 . S
C234 H223 0.950 . S
C234 C232 1.391 . S
C234 C235 1.400 . S
C235 C229 1.491 . S
C235 C234 1.400 . S
C235 C236 1.398 . S
C236 H224 0.950 . S
C236 C235 1.398 . S
C236 C237 1.391 . S
C237 H225 0.950 . S
C237 C233 1.393 . S
C237 C236 1.391 . S
H238 C246 0.950 . S
H239 C251 0.950 . S
H240 C248 0.950 . S
H241 C250 0.950 . S
H242 C252 0.950 . S
H243 C254 0.950 . S
H244 C256 0.950 . S
H245 C257 0.950 . S
C246 H238 0.950 . S
C246 C247 1.386 . S
C246 C248 1.391 . S
C247 C246 1.386 . S
C247 C251 1.393 . S
C248 H240 0.950 . S
C248 C246 1.391 . S
C248 C249 1.400 . S
C249 C248 1.400 . S
C249 C250 1.398 . S
C249 C255 1.491 . S
C250 H241 0.950 . S
C250 C249 1.398 . S
C250 C251 1.391 . S
C251 H239 0.950 . S
C251 C247 1.393 . S
C251 C250 1.391 . S
C252 H242 0.950 . S
C252 C253 1.386 . S
C252 C254 1.391 . S
C253 C252 1.386 . S
C253 C257 1.393 . S
C254 H243 0.950 . S
C254 C252 1.391 . S
C254 C255 1.400 . S
C255 C249 1.491 . S
C255 C254 1.400 . S
C255 C256 1.398 . S
C256 H244 0.950 . S
C256 C255 1.398 . S
C256 C257 1.391 . S
C257 H245 0.950 . S
C257 C253 1.393 . S
C257 C256 1.391 . S
H258 C266 0.950 . S
H259 C271 0.950 . S
H260 C268 0.950 . S
H261 C270 0.950 . S
H262 C272 0.950 . S
H263 C274 0.950 . S
H264 C276 0.950 . S
H265 C277 0.950 . S
C266 H258 0.950 . S
C266 C267 1.386 . S
C266 C268 1.391 . S
C267 C266 1.386 . S
C267 C271 1.393 . S
C268 H260 0.950 . S
C268 C266 1.391 . S
C268 C269 1.400 . S
C269 C268 1.400 . S
C269 C270 1.398 . S
C269 C275 1.491 . S
C270 H261 0.950 . S
C270 C269 1.398 . S
C270 C271 1.391 . S
C271 H259 0.950 . S
C271 C267 1.393 . S
C271 C270 1.391 . S
C272 H262 0.950 . S
C272 C273 1.386 . S
C272 C274 1.391 . S
C273 C272 1.386 . S
C273 C277 1.393 . S
C274 H263 0.950 . S
C274 C272 1.391 . S
C274 C275 1.400 . S
C275 C269 1.491 . S
C275 C274 1.400 . S
C275 C276 1.398 . S
C276 H264 0.950 . S
C276 C275 1.398 . S
C276 C277 1.391 . S
C277 H265 0.950 . S
C277 C273 1.393 . S
C277 C276 1.391 . S
H278 C286 0.950 . S
H279 C291 0.950 . S
H280 C288 0.950 . S
H281 C290 0.950 . S
H282 C292 0.950 . S
H283 C294 0.950 . S
H284 C296 0.950 . S
H285 C297 0.950 . S
C286 H278 0.950 . S
C286 C287 1.386 . S
C286 C288 1.391 . S
C287 C286 1.386 . S
C287 C291 1.393 1_565 S
C288 H280 0.950 . S
C288 C286 1.391 . S
C288 C289 1.400 . S
C289 C288 1.400 . S
C289 C290 1.398 1_565 S
C289 C295 1.491 1_565 S
C290 H281 0.950 . S
C290 C289 1.398 1_545 S
C290 C291 1.391 . S
C291 H279 0.950 . S
C291 C287 1.393 1_545 S
C291 C290 1.391 . S
C292 H282 0.950 . S
C292 C293 1.386 . S
C292 C294 1.391 . S
C293 C292 1.386 . S
C293 C297 1.393 1_545 S
C294 H283 0.950 . S
C294 C292 1.391 . S
C294 C295 1.400 . S
C295 C289 1.491 1_545 S
C295 C294 1.400 . S
C295 C296 1.398 1_545 S
C296 H284 0.950 . S
C296 C295 1.398 1_565 S
C296 C297 1.391 . S
C297 H285 0.950 . S
C297 C293 1.393 1_565 S
C297 C296 1.391 . S
H298 C306 0.950 . S
H299 C311 0.950 1_655 S
H300 C308 0.950 . S
H301 C310 0.950 . S
H302 C312 0.950 . S
H303 C314 0.950 . S
H304 C316 0.950 . S
H305 C317 0.950 . S
C306 H298 0.950 . S
C306 C307 1.386 . S
C306 C308 1.391 . S
C307 C306 1.386 . S
C307 C311 1.393 1_565 S
C308 H300 0.950 . S
C308 C306 1.391 . S
C308 C309 1.400 . S
C309 C308 1.400 . S
C309 C310 1.398 1_465 S
C309 C315 1.491 1_565 S
C310 H301 0.950 . S
C310 C309 1.398 1_645 S
C310 C311 1.391 1_655 S
C311 H299 0.950 1_455 S
C311 C307 1.393 1_545 S
C311 C310 1.391 1_455 S
C312 H302 0.950 . S
C312 C313 1.386 . S
C312 C314 1.391 . S
C313 C312 1.386 . S
C313 C317 1.393 1_645 S
C314 H303 0.950 . S
C314 C312 1.391 . S
C314 C315 1.400 1_655 S
C315 C309 1.491 1_545 S
C315 C314 1.400 1_455 S
C315 C316 1.398 1_545 S
C316 H304 0.950 . S
C316 C315 1.398 1_565 S
C316 C317 1.391 . S
C317 H305 0.950 . S
C317 C313 1.393 1_465 S
C317 C316 1.391 . S
H318 C326 0.950 . S
H319 C331 0.950 . S
H320 C328 0.950 . S
H321 C330 0.950 . S
H322 C332 0.950 . S
H323 C334 0.950 . S
H324 C336 0.950 . S
H325 C337 0.950 . S
C326 H318 0.950 . S
C326 C327 1.386 . S
C326 C328 1.391 . S
C327 C326 1.386 . S
C327 C331 1.393 . S
C328 H320 0.950 . S
C328 C326 1.391 . S
C328 C329 1.400 . S
C329 C328 1.400 . S
C329 C330 1.398 . S
C329 C335 1.491 . S
C330 H321 0.950 . S
C330 C329 1.398 . S
C330 C331 1.391 . S
C331 H319 0.950 . S
C331 C327 1.393 . S
C331 C330 1.391 . S
C332 H322 0.950 . S
C332 C333 1.386 . S
C332 C334 1.391 . S
C333 C332 1.386 . S
C333 C337 1.393 . S
C334 H323 0.950 . S
C334 C332 1.391 . S
C334 C335 1.400 . S
C335 C329 1.491 . S
C335 C334 1.400 . S
C335 C336 1.398 . S
C336 H324 0.950 . S
C336 C335 1.398 . S
C336 C337 1.391 . S
C337 H325 0.950 . S
C337 C333 1.393 . S
C337 C336 1.391 . S
H338 C346 0.950 . S
H339 C351 0.950 . S
H340 C348 0.950 . S
H341 C350 0.950 . S
H342 C352 0.950 . S
H343 C354 0.950 . S
H344 C356 0.950 . S
H345 C357 0.950 . S
C346 H338 0.950 . S
C346 C347 1.386 . S
C346 C348 1.391 . S
C347 C346 1.386 . S
C347 C351 1.393 . S
C348 H340 0.950 . S
C348 C346 1.391 . S
C348 C349 1.400 . S
C349 C348 1.400 . S
C349 C350 1.398 . S
C349 C355 1.491 . S
C350 H341 0.950 . S
C350 C349 1.398 . S
C350 C351 1.391 . S
C351 H339 0.950 . S
C351 C347 1.393 . S
C351 C350 1.391 . S
C352 H342 0.950 . S
C352 C353 1.386 . S
C352 C354 1.391 . S
C353 C352 1.386 . S
C353 C357 1.393 . S
C354 H343 0.950 . S
C354 C352 1.391 . S
C354 C355 1.400 . S
C355 C349 1.491 . S
C355 C354 1.400 . S
C355 C356 1.398 . S
C356 H344 0.950 . S
C356 C355 1.398 . S
C356 C357 1.391 . S
C357 H345 0.950 . S
C357 C353 1.393 . S
C357 C356 1.391 . S
C133 C105 1.385 . S
C127 C3 1.290 . S
C147 C4 1.420 1_556 S
C153 C91 1.510 . S
C167 C19 1.468 1_554 S
C173 C110 1.505 . S
C187 C7 1.274 . S
C193 C86 1.406 . S
C207 C37 1.290 . S
C213 C67 1.396 . S
C227 C28 1.448 . S
C233 C53 1.490 1_655 S
C253 C72 1.505 . S
C247 C41 1.468 . S
C273 C48 1.399 . S
C267 C25 1.315 . S
C287 C20 1.385 . S
C293 C44 1.519 . S
C307 C16 1.421 . S
C313 C63 1.557 . S
C333 C82 1.508 . S
C327 C40 1.407 . S
C347 C24 1.418 . S
C353 C101 1.555 . S
