# Generated by pormake.
# Topology pto, (3,4)-cn, num edge types: 1
# Building blocks:
#     Node 0, Type 0, BuildingBlock: OLANEW_clean_sbu_2, # of connection points: 3
#     Node 1, Type 0, BuildingBlock: OLANEW_clean_sbu_2, # of connection points: 3
#     Node 2, Type 0, BuildingBlock: OLANEW_clean_sbu_2, # of connection points: 3
#     Node 3, Type 0, BuildingBlock: OLANEW_clean_sbu_2, # of connection points: 3
#     Node 4, Type 0, BuildingBlock: OLANEW_clean_sbu_2, # of connection points: 3
#     Node 5, Type 0, BuildingBlock: OLANEW_clean_sbu_2, # of connection points: 3
#     Node 6, Type 0, BuildingBlock: OLANEW_clean_sbu_2, # of connection points: 3
#     Node 7, Type 0, BuildingBlock: OLANEW_clean_sbu_2, # of connection points: 3
#     Node 8, Type 1, BuildingBlock: MUDLON_clean_linker_0, # of connection points: 4
#     Node 9, Type 1, BuildingBlock: MUDLON_clean_linker_0, # of connection points: 4
#     Node 10, Type 1, BuildingBlock: MUDLON_clean_linker_0, # of connection points: 4
#     Node 11, Type 1, BuildingBlock: MUDLON_clean_linker_0, # of connection points: 4
#     Node 12, Type 1, BuildingBlock: MUDLON_clean_linker_0, # of connection points: 4
#     Node 13, Type 1, BuildingBlock: MUDLON_clean_linker_0, # of connection points: 4
#     Edge 14, Type (0, 1), BuildingBlock: EZIPEK_clean_linker_0, # of connection points: 2
#     Edge 15, Type (0, 1), BuildingBlock: EZIPEK_clean_linker_0, # of connection points: 2
#     Edge 16, Type (0, 1), BuildingBlock: EZIPEK_clean_linker_0, # of connection points: 2
#     Edge 17, Type (0, 1), BuildingBlock: EZIPEK_clean_linker_0, # of connection points: 2
#     Edge 18, Type (0, 1), BuildingBlock: EZIPEK_clean_linker_0, # of connection points: 2
#     Edge 19, Type (0, 1), BuildingBlock: EZIPEK_clean_linker_0, # of connection points: 2
#     Edge 20, Type (0, 1), BuildingBlock: EZIPEK_clean_linker_0, # of connection points: 2
#     Edge 21, Type (0, 1), BuildingBlock: EZIPEK_clean_linker_0, # of connection points: 2
#     Edge 22, Type (0, 1), BuildingBlock: EZIPEK_clean_linker_0, # of connection points: 2
#     Edge 23, Type (0, 1), BuildingBlock: EZIPEK_clean_linker_0, # of connection points: 2
#     Edge 24, Type (0, 1), BuildingBlock: EZIPEK_clean_linker_0, # of connection points: 2
#     Edge 25, Type (0, 1), BuildingBlock: EZIPEK_clean_linker_0, # of connection points: 2
#     Edge 26, Type (0, 1), BuildingBlock: EZIPEK_clean_linker_0, # of connection points: 2
#     Edge 27, Type (0, 1), BuildingBlock: EZIPEK_clean_linker_0, # of connection points: 2
#     Edge 28, Type (0, 1), BuildingBlock: EZIPEK_clean_linker_0, # of connection points: 2
#     Edge 29, Type (0, 1), BuildingBlock: EZIPEK_clean_linker_0, # of connection points: 2
#     Edge 30, Type (0, 1), BuildingBlock: EZIPEK_clean_linker_0, # of connection points: 2
#     Edge 31, Type (0, 1), BuildingBlock: EZIPEK_clean_linker_0, # of connection points: 2
#     Edge 32, Type (0, 1), BuildingBlock: EZIPEK_clean_linker_0, # of connection points: 2
#     Edge 33, Type (0, 1), BuildingBlock: EZIPEK_clean_linker_0, # of connection points: 2
#     Edge 34, Type (0, 1), BuildingBlock: EZIPEK_clean_linker_0, # of connection points: 2
#     Edge 35, Type (0, 1), BuildingBlock: EZIPEK_clean_linker_0, # of connection points: 2
#     Edge 36, Type (0, 1), BuildingBlock: EZIPEK_clean_linker_0, # of connection points: 2
#     Edge 37, Type (0, 1), BuildingBlock: EZIPEK_clean_linker_0, # of connection points: 2
# Relax obj value: 0.012
# Max RMSD: 0.126
# Mean RMSD: 0.065
data_MOF--net-pto--node1-OLANEW_clean_sbu_2--node2-MUDLON_clean_linker_0--edge1-EZIPEK_clean_linker_0
_symmetry_space_group_name_H-M    P1
_symmetry_Int_Tables_number       1
_symmetry_cell_setting            triclinic
loop_
_symmetry_equiv_pos_as_xyz
'x, y, z'
_cell_length_a     31.979056
_cell_length_b     57.387015
_cell_length_c     44.720966
_cell_angle_alpha  92.786359
_cell_angle_beta   88.572967
_cell_angle_gamma 107.03548
loop_
_atom_site_label
_atom_site_type_symbol
_atom_site_fract_x
_atom_site_fract_y
_atom_site_fract_z
_atom_type_partial_charge
O0 O 0.34968 0.35156 0.30088 0.0
Cd1 Cd 0.30116 0.34533 0.34453 0.0
O2 O 0.40505 0.37726 0.32494 0.0
Cd3 Cd 0.3637 0.38192 0.36284 0.0
O4 O 0.31322 0.39439 0.38643 0.0
C5 C 0.29917 0.4092 0.37231 0.0
O6 O 0.31655 0.41626 0.34613 0.0
C7 C 0.38945 0.36446 0.30159 0.0
C8 C 0.32045 0.31049 0.37841 0.0
O9 O 0.29156 0.30408 0.35789 0.0
O10 O 0.33937 0.33327 0.38345 0.0
O11 O 0.27108 0.90474 0.80481 0.0
Cd12 Cd 0.23138 0.92873 0.78006 0.0
O13 O 0.26084 0.87973 0.76528 0.0
Cd14 Cd 0.26223 0.84645 0.73975 0.0
O15 O 0.23404 0.81237 0.71386 0.0
C16 C 0.2373 0.79201 0.72176 0.0
O17 O 0.26076 0.79128 0.74518 0.0
C18 C 0.27594 0.88561 0.79151 0.0
C19 C 0.27829 0.9546 0.73293 0.0
O20 O 0.28081 0.96436 0.75946 0.0
O21 O 0.254 0.93262 0.72862 0.0
O22 O 0.8618 0.81289 0.32358 0.0
Cd23 Cd 0.84403 0.77978 0.28513 0.0
O24 O 0.79344 0.80456 0.33954 0.0
Cd25 Cd 0.76833 0.78011 0.30103 0.0
O26 O 0.73597 0.7784 0.25829 0.0
C27 C 0.69516 0.77584 0.25911 0.0
O28 O 0.67402 0.77214 0.28483 0.0
C29 C 0.8334 0.81689 0.34191 0.0
C30 C 0.87086 0.73993 0.3004 0.0
O31 O 0.89651 0.75754 0.2863 0.0
O32 O 0.8325 0.74113 0.30767 0.0
O33 O 0.76825 0.29845 0.65673 0.0
Cd34 Cd 0.72689 0.26023 0.67897 0.0
O35 O 0.80535 0.31251 0.69799 0.0
Cd36 Cd 0.76379 0.28524 0.72658 0.0
O37 O 0.71937 0.28658 0.76389 0.0
C38 C 0.67942 0.28413 0.7587 0.0
O39 O 0.66445 0.27793 0.73146 0.0
C40 C 0.79798 0.31471 0.67065 0.0
C41 C 0.73605 0.22045 0.64398 0.0
O42 O 0.76259 0.22972 0.66534 0.0
O43 O 0.705 0.22972 0.63935 0.0
O44 O 0.77185 0.79673 0.6505 0.0
Cd45 Cd 0.7463 0.75971 0.67889 0.0
O46 O 0.7939 0.82156 0.68992 0.0
Cd47 Cd 0.76309 0.79392 0.72183 0.0
O48 O 0.71219 0.78265 0.756 0.0
C49 C 0.67278 0.77758 0.74756 0.0
O50 O 0.66453 0.7774 0.7189 0.0
C51 C 0.79015 0.81796 0.66173 0.0
C52 C 0.8013 0.73038 0.66803 0.0
O53 O 0.76875 0.72855 0.65099 0.0
O54 O 0.80754 0.74578 0.69041 0.0
O55 O 0.8472 0.29101 0.32431 0.0
Cd56 Cd 0.81218 0.25103 0.30007 0.0
O57 O 0.79104 0.29018 0.35425 0.0
Cd58 Cd 0.74849 0.26124 0.32624 0.0
O59 O 0.71143 0.25864 0.28539 0.0
C60 C 0.72564 0.27731 0.26978 0.0
O61 O 0.76103 0.29444 0.27827 0.0
C62 C 0.83011 0.30045 0.34589 0.0
C63 C 0.81096 0.21356 0.33774 0.0
O64 O 0.84251 0.22098 0.31902 0.0
O65 O 0.78014 0.22364 0.33863 0.0
O66 O 0.25531 0.34439 0.76931 0.0
Cd67 Cd 0.22939 0.33955 0.71771 0.0
O68 O 0.32264 0.3613 0.75315 0.0
Cd69 Cd 0.30791 0.35398 0.70586 0.0
O70 O 0.31688 0.32917 0.66962 0.0
C71 C 0.31227 0.30739 0.67676 0.0
O72 O 0.29961 0.30096 0.7041 0.0
C73 C 0.29564 0.35444 0.77456 0.0
C74 C 0.1956 0.376 0.69918 0.0
O75 O 0.23701 0.37947 0.70013 0.0
O76 O 0.17034 0.35564 0.70788 0.0
O77 O 0.47725 0.87035 0.32391 0.0
Cd78 Cd 0.48216 0.8717 0.37843 0.0
O79 O 0.41937 0.83899 0.32937 0.0
Cd80 Cd 0.36724 0.80729 0.31341 0.0
O81 O 0.31081 0.77485 0.31073 0.0
C82 C 0.31571 0.75363 0.30896 0.0
O83 O 0.35529 0.75118 0.3075 0.0
C84 C 0.44685 0.85301 0.31232 0.0
C85 C 0.46523 0.91112 0.40949 0.0
O86 O 0.50406 0.91222 0.40038 0.0
O87 O 0.43409 0.89178 0.40299 0.0
H88 H 0.99274 0.43008 0.44608 0.0
N89 N 0.032 0.463 0.40672 0.0
H90 H 0.93911 0.39009 0.43553 0.0
H91 H 0.98874 0.44737 0.35351 0.0
H92 H 0.93608 0.40765 0.34314 0.0
H93 H 0.06252 0.44063 0.35873 0.0
H94 H 0.13027 0.42944 0.35613 0.0
H95 H 0.09467 0.47257 0.44771 0.0
H96 H 0.16314 0.46091 0.44505 0.0
H97 H 0.00014 0.49667 0.43356 0.0
H98 H 0.05963 0.48006 0.35074 0.0
H99 H 0.99548 0.53486 0.41333 0.0
H100 H 0.05573 0.51785 0.33089 0.0
H101 H 0.99144 0.63265 0.36612 0.0
H102 H 0.94346 0.6591 0.36606 0.0
H103 H 0.9509 0.65886 0.26963 0.0
H104 H 0.99902 0.63252 0.26974 0.0
H105 H 0.06938 0.65453 0.3603 0.0
H106 H 0.14036 0.68561 0.35762 0.0
H107 H 0.16738 0.65376 0.27272 0.0
H108 H 0.09568 0.62264 0.27519 0.0
H109 H 0.04768 0.61334 0.37597 0.0
H110 H 0.04423 0.57481 0.39838 0.0
H111 H 0.00142 0.5363 0.314 0.0
N112 N 0.03374 0.61943 0.31685 0.0
H113 H 0.00577 0.57505 0.29165 0.0
C114 C 0.99493 0.44186 0.40079 0.0
C115 C 0.97962 0.42553 0.42375 0.0
C116 C 0.94937 0.40275 0.41773 0.0
C117 C 0.93423 0.39592 0.3885 0.0
C118 C 0.94766 0.41262 0.3658 0.0
C119 C 0.97766 0.43542 0.37184 0.0
C120 C 0.07343 0.4577 0.40351 0.0
C121 C 0.08422 0.44555 0.37763 0.0
C122 C 0.12292 0.43904 0.3761 0.0
C123 C 0.15153 0.44439 0.40035 0.0
C124 C 0.14137 0.45675 0.42608 0.0
C125 C 0.10257 0.46342 0.42756 0.0
C126 C 0.03026 0.48538 0.39395 0.0
C127 C 0.01227 0.50126 0.41112 0.0
C128 C 0.00979 0.52306 0.39958 0.0
C129 C 0.02502 0.52933 0.37043 0.0
C130 C 0.04303 0.5134 0.35324 0.0
C131 C 0.04565 0.49173 0.3648 0.0
C132 C 0.99888 0.63065 0.3178 0.0
C133 C 0.98197 0.63776 0.34494 0.0
C134 C 0.95467 0.65289 0.34493 0.0
C135 C 0.94384 0.66099 0.31784 0.0
C136 C 0.9587 0.65272 0.29075 0.0
C137 C 0.98597 0.63768 0.29078 0.0
C138 C 0.07715 0.63627 0.31774 0.0
C139 C 0.09057 0.65394 0.34126 0.0
C140 C 0.13107 0.67171 0.33976 0.0
C141 C 0.1588 0.67199 0.3149 0.0
C142 C 0.14626 0.6538 0.29202 0.0
C143 C 0.10561 0.63611 0.29345 0.0
C144 C 0.02716 0.59703 0.33196 0.0
C145 C 0.03701 0.59663 0.36238 0.0
C146 C 0.03489 0.57453 0.37523 0.0
C147 C 0.02303 0.55251 0.35788 0.0
C148 C 0.01145 0.55297 0.32783 0.0
C149 C 0.01355 0.57501 0.31508 0.0
H150 H 0.98328 0.4518 0.66717 0.0
N151 N 0.01356 0.46785 0.61177 0.0
H152 H 0.92475 0.4146 0.67692 0.0
H153 H 0.95434 0.44187 0.57288 0.0
H154 H 0.89523 0.40436 0.58283 0.0
H155 H 0.04883 0.43554 0.58575 0.0
H156 H 0.0993 0.41672 0.60833 0.0
H157 H 0.0615 0.48538 0.66268 0.0
H158 H 0.11355 0.46727 0.68461 0.0
H159 H 0.9794 0.4911 0.65758 0.0
H160 H 0.05038 0.50204 0.57368 0.0
H161 H 0.98149 0.53379 0.6608 0.0
H162 H 0.0544 0.54526 0.57738 0.0
H163 H 0.99964 0.67178 0.58841 0.0
H164 H 0.94023 0.69035 0.59818 0.0
H165 H 0.9096 0.65319 0.68101 0.0
H166 H 0.96819 0.63411 0.67082 0.0
H167 H 0.09844 0.67355 0.59781 0.0
H168 H 0.15468 0.70855 0.62038 0.0
H169 H 0.09709 0.69063 0.70758 0.0
H170 H 0.04073 0.65641 0.68525 0.0
H171 H 0.03214 0.61674 0.67244 0.0
H172 H 0.02869 0.57385 0.66944 0.0
H173 H 0.01089 0.57201 0.57374 0.0
N174 N 0.02852 0.64516 0.62507 0.0
H175 H 0.01643 0.61546 0.57688 0.0
C176 C 0.97309 0.44976 0.61914 0.0
C177 C 0.96337 0.44218 0.64868 0.0
C178 C 0.93016 0.42084 0.65428 0.0
C179 C 0.90608 0.40679 0.63056 0.0
C180 C 0.91357 0.4151 0.60137 0.0
C181 C 0.94696 0.43648 0.59574 0.0
C182 C 0.05131 0.46184 0.62233 0.0
C183 C 0.06377 0.44301 0.60694 0.0
C184 C 0.09229 0.43222 0.61989 0.0
C185 C 0.10961 0.4404 0.64831 0.0
C186 C 0.1002 0.46061 0.66274 0.0
C187 C 0.07075 0.47106 0.65007 0.0
C188 C 0.01432 0.49314 0.61501 0.0
C189 C 0.99551 0.50259 0.63979 0.0
C190 C 0.99712 0.52724 0.64179 0.0
C191 C 0.01796 0.54308 0.6193 0.0
C192 C 0.03726 0.53359 0.59483 0.0
C193 C 0.0353 0.50892 0.59274 0.0
C194 C 0.98849 0.65172 0.62885 0.0
C195 C 0.97926 0.6671 0.60821 0.0
C196 C 0.94563 0.67773 0.61384 0.0
C197 C 0.92092 0.67328 0.64042 0.0
C198 C 0.92845 0.65685 0.66041 0.0
C199 C 0.96188 0.646 0.65459 0.0
C200 C 0.06561 0.66211 0.63967 0.0
C201 C 0.0988 0.67677 0.62188 0.0
C202 C 0.1307 0.69668 0.63469 0.0
C203 C 0.1299 0.70205 0.6656 0.0
C204 C 0.09834 0.6866 0.6837 0.0
C205 C 0.06626 0.6669 0.67087 0.0
C206 C 0.02518 0.61954 0.62468 0.0
C207 C 0.0278 0.60732 0.65077 0.0
C208 C 0.02537 0.58254 0.64905 0.0
C209 C 0.01974 0.56937 0.62131 0.0
C210 C 0.01618 0.5816 0.59541 0.0
C211 C 0.019 0.60639 0.59714 0.0
H212 H 0.45869 0.25252 0.54396 0.0
N213 N 0.41836 0.2094 0.51835 0.0
H214 H 0.43056 0.27431 0.58463 0.0
H215 H 0.34453 0.19041 0.55198 0.0
H216 H 0.31627 0.21228 0.59258 0.0
H217 H 0.46719 0.23633 0.47663 0.0
H218 H 0.4417 0.25839 0.4386 0.0
H219 H 0.33326 0.19985 0.50051 0.0
H220 H 0.30802 0.22157 0.46245 0.0
H221 H 0.35954 0.16603 0.49822 0.0
H222 H 0.48166 0.19701 0.54407 0.0
H223 H 0.36498 0.12524 0.50491 0.0
H224 H 0.48634 0.15619 0.55226 0.0
H225 H 0.35492 0.01315 0.55877 0.0
H226 H 0.31637 0.99262 0.6026 0.0
H227 H 0.42984 0.02581 0.65666 0.0
H228 H 0.46858 0.04663 0.61267 0.0
H229 H 0.50019 0.01985 0.55034 0.0
H230 H 0.50415 0.98859 0.51168 0.0
H231 H 0.38909 0.99652 0.4702 0.0
H232 H 0.38509 0.02777 0.50889 0.0
H233 H 0.36387 0.0561 0.55261 0.0
H234 H 0.3589 0.09625 0.5415 0.0
H235 H 0.49935 0.12149 0.52927 0.0
N236 N 0.43954 0.04281 0.55695 0.0
H237 H 0.50409 0.0815 0.54226 0.0
C238 C 0.40386 0.21995 0.54505 0.0
C239 C 0.42804 0.24347 0.55491 0.0
C240 C 0.41195 0.25587 0.57788 0.0
C241 C 0.3713 0.24489 0.59127 0.0
C242 C 0.34766 0.22098 0.58231 0.0
C243 C 0.36384 0.20854 0.5593 0.0
C244 C 0.40241 0.21633 0.4913 0.0
C245 C 0.43243 0.23231 0.47281 0.0
C246 C 0.41793 0.24495 0.45132 0.0
C247 C 0.37306 0.24166 0.448 0.0
C248 C 0.34279 0.22425 0.46473 0.0
C249 C 0.3573 0.21172 0.48633 0.0
C250 C 0.42065 0.18479 0.52041 0.0
C251 C 0.38764 0.1642 0.50968 0.0
C252 C 0.39058 0.1407 0.5138 0.0
C253 C 0.42615 0.13727 0.52911 0.0
C254 C 0.45895 0.15797 0.53978 0.0
C255 C 0.45625 0.18137 0.5353 0.0
C256 C 0.41478 0.03155 0.58253 0.0
C257 C 0.37151 0.01626 0.58001 0.0
C258 C 0.34948 0.00451 0.60497 0.0
C259 C 0.37041 0.00773 0.63269 0.0
C260 C 0.41329 0.02317 0.63537 0.0
C261 C 0.43524 0.03502 0.61043 0.0
C262 C 0.44258 0.02612 0.53246 0.0
C263 C 0.47622 0.01506 0.53267 0.0
C264 C 0.47844 0.99732 0.51073 0.0
C265 C 0.44698 0.99042 0.48819 0.0
C266 C 0.41374 0.0018 0.48741 0.0
C267 C 0.41149 0.01957 0.50945 0.0
C268 C 0.43468 0.06592 0.54896 0.0
C269 C 0.39367 0.07025 0.54782 0.0
C270 C 0.39081 0.09327 0.54104 0.0
C271 C 0.42876 0.11232 0.53471 0.0
C272 C 0.46949 0.10754 0.53476 0.0
C273 C 0.47233 0.08466 0.54196 0.0
H274 H 0.50964 0.78507 0.12597 0.0
N275 N 0.53466 0.83136 0.10512 0.0
H276 H 0.55194 0.7691 0.16036 0.0
H277 H 0.6201 0.8487 0.11477 0.0
H278 H 0.66272 0.83247 0.14888 0.0
H279 H 0.55638 0.87133 0.14069 0.0
H280 H 0.52377 0.87649 0.18982 0.0
H281 H 0.45234 0.80504 0.12304 0.0
H282 H 0.41955 0.81029 0.17222 0.0
H283 H 0.5386 0.79057 0.07005 0.0
H284 H 0.48603 0.85208 0.0737 0.0
H285 H 0.51026 0.77936 0.02029 0.0
H286 H 0.4569 0.84038 0.02349 0.0
H287 H 0.43029 0.74836 0.85383 0.0
H288 H 0.48782 0.74321 0.8187 0.0
H289 H 0.57965 0.8063 0.86024 0.0
H290 H 0.52279 0.8117 0.89481 0.0
H291 H 0.46558 0.8174 0.8486 0.0
H292 H 0.42438 0.84034 0.82446 0.0
H293 H 0.31447 0.81141 0.8833 0.0
H294 H 0.35478 0.7867 0.90664 0.0
H295 H 0.4257 0.75404 0.93812 0.0
H296 H 0.44402 0.76377 0.99105 0.0
H297 H 0.48704 0.84052 0.97302 0.0
N298 N 0.43587 0.78488 0.89413 0.0
H299 H 0.46795 0.83064 0.92044 0.0
C300 C 0.56177 0.81826 0.1179 0.0
C301 C 0.54341 0.79521 0.13008 0.0
C302 C 0.56752 0.78604 0.14961 0.0
C303 C 0.61024 0.7997 0.15713 0.0
C304 C 0.62981 0.82166 0.14312 0.0
C305 C 0.60566 0.83085 0.12363 0.0
C306 C 0.5072 0.83775 0.12834 0.0
C307 C 0.52551 0.85851 0.14686 0.0
C308 C 0.50707 0.86136 0.17489 0.0
C309 C 0.46973 0.84357 0.18469 0.0
C310 C 0.44851 0.82414 0.16497 0.0
C311 C 0.46717 0.8212 0.13692 0.0
C312 C 0.5135 0.82201 0.07677 0.0
C313 C 0.51988 0.8014 0.06091 0.0
C314 C 0.5036 0.79487 0.03203 0.0
C315 C 0.48111 0.80887 0.0179 0.0
C316 C 0.4743 0.82925 0.03366 0.0
C317 C 0.49052 0.83579 0.06257 0.0
C318 C 0.47195 0.7802 0.87716 0.0
C319 C 0.4631 0.76068 0.85582 0.0
C320 C 0.49576 0.75776 0.83586 0.0
C321 C 0.53782 0.77435 0.83709 0.0
C322 C 0.5474 0.79322 0.85922 0.0
C323 C 0.51482 0.7962 0.87907 0.0
C324 C 0.41324 0.79977 0.87963 0.0
C325 C 0.43258 0.81546 0.85646 0.0
C326 C 0.40906 0.82879 0.84252 0.0
C327 C 0.36634 0.82752 0.85197 0.0
C328 C 0.34732 0.8125 0.87553 0.0
C329 C 0.37032 0.7985 0.88886 0.0
C330 C 0.44532 0.79149 0.92537 0.0
C331 C 0.43873 0.77294 0.94575 0.0
C332 C 0.44942 0.77855 0.97589 0.0
C333 C 0.46703 0.80293 0.98628 0.0
C334 C 0.47293 0.82158 0.96589 0.0
C335 C 0.46223 0.81595 0.93576 0.0
H336 H 0.83365 0.1285 0.51886 0.0
N337 N 0.7664 0.09139 0.49462 0.0
H338 H 0.82659 0.15824 0.55815 0.0
H339 H 0.69704 0.08934 0.52948 0.0
H340 H 0.69 0.11942 0.56896 0.0
H341 H 0.84695 0.11276 0.46963 0.0
H342 H 0.86174 0.14148 0.42901 0.0
H343 H 0.7084 0.10066 0.45933 0.0
H344 H 0.72323 0.12908 0.41832 0.0
H345 H 0.72547 0.04585 0.47727 0.0
H346 H 0.84566 0.09055 0.5166 0.0
H347 H 0.75122 0.00986 0.47981 0.0
H348 H 0.8711 0.05471 0.52016 0.0
H349 H 0.79618 0.90765 0.51493 0.0
H350 H 0.7791 0.87916 0.55536 0.0
H351 H 0.90213 0.91662 0.59692 0.0
H352 H 0.91939 0.94559 0.55627 0.0
H353 H 0.93582 0.92579 0.48678 0.0
H354 H 0.93129 0.89572 0.44494 0.0
H355 H 0.80294 0.89995 0.4241 0.0
H356 H 0.80711 0.92971 0.46583 0.0
H357 H 0.78913 0.94721 0.51778 0.0
H358 H 0.76499 0.98337 0.51537 0.0
H359 H 0.89587 0.0252 0.49029 0.0
N360 N 0.87294 0.94416 0.50725 0.0
H361 H 0.92031 0.98878 0.49379 0.0
C362 C 0.76572 0.10647 0.52128 0.0
C363 C 0.80245 0.12579 0.53016 0.0
C364 C 0.79846 0.14289 0.55253 0.0
C365 C 0.75779 0.14099 0.56629 0.0
C366 C 0.72167 0.12107 0.55862 0.0
C367 C 0.72569 0.10393 0.53626 0.0
C368 C 0.77638 0.10463 0.46754 0.0
C369 C 0.81971 0.11581 0.45823 0.0
C370 C 0.8282 0.13217 0.43508 0.0
C371 C 0.79352 0.13733 0.42087 0.0
C372 C 0.75031 0.12519 0.42903 0.0
C373 C 0.74187 0.109 0.45225 0.0
C374 C 0.78323 0.07083 0.4969 0.0
C375 C 0.75729 0.04783 0.48665 0.0
C376 C 0.772 0.02729 0.48831 0.0
C377 C 0.81317 0.02931 0.50041 0.0
C378 C 0.83941 0.05249 0.51046 0.0
C379 C 0.82468 0.07307 0.50866 0.0
C380 C 0.85917 0.92903 0.53267 0.0
C381 C 0.81923 0.91023 0.53294 0.0
C382 C 0.80949 0.89384 0.55593 0.0
C383 C 0.83946 0.89581 0.5789 0.0
C384 C 0.87868 0.9149 0.57928 0.0
C385 C 0.88838 0.93141 0.55628 0.0
C386 C 0.87212 0.93017 0.47943 0.0
C387 C 0.9072 0.92069 0.47271 0.0
C388 C 0.90455 0.90352 0.44906 0.0
C389 C 0.86673 0.89567 0.43169 0.0
C390 C 0.83238 0.90591 0.43734 0.0
C391 C 0.83494 0.923 0.46109 0.0
C392 C 0.85699 0.96523 0.50623 0.0
C393 C 0.81295 0.96406 0.51202 0.0
C394 C 0.79895 0.98485 0.51033 0.0
C395 C 0.82842 0.00727 0.50259 0.0
C396 C 0.87237 0.00836 0.49675 0.0
C397 C 0.88638 0.98756 0.49856 0.0
H398 H 0.55901 0.31054 0.13442 0.0
N399 N 0.59348 0.36007 0.13008 0.0
H400 H 0.58977 0.2848 0.16407 0.0
H401 H 0.6747 0.37106 0.14986 0.0
H402 H 0.70548 0.34527 0.17953 0.0
H403 H 0.6063 0.3922 0.17627 0.0
H404 H 0.55466 0.3941 0.21738 0.0
H405 H 0.50717 0.33351 0.13271 0.0
H406 H 0.45575 0.33528 0.17391 0.0
H407 H 0.59786 0.32572 0.08466 0.0
H408 H 0.56258 0.39219 0.10377 0.0
H409 H 0.579 0.32636 0.03273 0.0
H410 H 0.54236 0.39232 0.05171 0.0
H411 H 0.49398 0.31688 0.89146 0.0
H412 H 0.52818 0.29455 0.85496 0.0
H413 H 0.64466 0.35591 0.85441 0.0
H414 H 0.61031 0.37836 0.89076 0.0
H415 H 0.51949 0.39284 0.87062 0.0
H416 H 0.45227 0.39044 0.84389 0.0
H417 H 0.37863 0.33601 0.90347 0.0
H418 H 0.44594 0.33776 0.92958 0.0
H419 H 0.50627 0.32307 0.94564 0.0
H420 H 0.51881 0.32133 0.99902 0.0
H421 H 0.57748 0.39953 0.00404 0.0
N422 N 0.52937 0.36408 0.91263 0.0
H423 H 0.56347 0.40108 0.95081 0.0
C424 C 0.6147 0.34285 0.14001 0.0
C425 C 0.59154 0.31808 0.14337 0.0
C426 C 0.60904 0.30337 0.16021 0.0
C427 C 0.64962 0.31329 0.1741 0.0
C428 C 0.67412 0.33737 0.16888 0.0
C429 C 0.65673 0.35201 0.15192 0.0
C430 C 0.56063 0.3628 0.15155 0.0
C431 C 0.57323 0.38008 0.17537 0.0
C432 C 0.54398 0.38109 0.19873 0.0
C433 C 0.50171 0.36476 0.19854 0.0
C434 C 0.48837 0.34798 0.17429 0.0
C435 C 0.51763 0.34699 0.15088 0.0
C436 C 0.58058 0.35866 0.09898 0.0
C437 C 0.58513 0.3402 0.07822 0.0
C438 C 0.57423 0.34051 0.04818 0.0
C439 C 0.5589 0.3593 0.03803 0.0
C440 C 0.55443 0.37767 0.05866 0.0
C441 C 0.56557 0.37747 0.08856 0.0
C442 C 0.54975 0.34941 0.89368 0.0
C443 C 0.52707 0.32542 0.88386 0.0
C444 C 0.54651 0.31266 0.86311 0.0
C445 C 0.58885 0.32364 0.85215 0.0
C446 C 0.612 0.34717 0.86278 0.0
C447 C 0.59253 0.35993 0.8834 0.0
C448 C 0.48804 0.36551 0.90195 0.0
C449 C 0.4887 0.38084 0.87838 0.0
C450 C 0.45046 0.37948 0.8632 0.0
C451 C 0.41072 0.36288 0.87159 0.0
C452 C 0.40913 0.34889 0.89672 0.0
C453 C 0.44766 0.34992 0.9116 0.0
C454 C 0.53382 0.36234 0.94433 0.0
C455 C 0.52137 0.33985 0.95829 0.0
C456 C 0.5289 0.33886 0.9888 0.0
C457 C 0.54921 0.36028 0.00585 0.0
C458 C 0.56112 0.38272 0.99176 0.0
C459 C 0.55336 0.38368 0.96135 0.0
C460 C 0.26939 0.44374 0.38773 0.0
C461 C 0.26301 0.41821 0.3845 0.0
C462 C 0.18651 0.41077 0.40038 0.0
C463 C 0.19123 0.43601 0.39866 0.0
N464 N 0.23616 0.47669 0.38872 0.0
N465 N 0.21417 0.37709 0.38463 0.0
C466 C 0.23253 0.45263 0.3921 0.0
C467 C 0.22136 0.40156 0.39041 0.0
N468 N 0.31082 0.45944 0.38729 0.0
N469 N 0.14866 0.39564 0.41164 0.0
H470 H 0.23839 0.36948 0.37674 0.0
H471 H 0.18324 0.36447 0.38521 0.0
H472 H 0.12248 0.40187 0.4191 0.0
H473 H 0.14482 0.37751 0.41625 0.0
H474 H 0.31791 0.47808 0.39238 0.0
H475 H 0.33861 0.45347 0.38476 0.0
H476 H 0.26422 0.4891 0.38043 0.0
H477 H 0.21006 0.48397 0.39226 0.0
C478 C 0.16449 0.76459 0.70508 0.0
C479 C 0.21046 0.76904 0.70684 0.0
C480 C 0.20366 0.72869 0.68292 0.0
C481 C 0.15845 0.72539 0.67869 0.0
N482 N 0.09781 0.74249 0.67962 0.0
N483 N 0.27503 0.75724 0.69296 0.0
C484 C 0.13948 0.74407 0.68789 0.0
C485 C 0.23046 0.75159 0.69455 0.0
N486 N 0.14422 0.77916 0.72114 0.0
N487 N 0.2207 0.70975 0.67664 0.0
H488 H 0.2957 0.77395 0.70083 0.0
H489 H 0.29148 0.74628 0.68148 0.0
H490 H 0.20208 0.69282 0.66784 0.0
H491 H 0.25231 0.71016 0.6823 0.0
H492 H 0.11034 0.77516 0.72308 0.0
H493 H 0.16089 0.79378 0.7352 0.0
H494 H 0.08408 0.75679 0.68305 0.0
H495 H 0.07842 0.72785 0.66672 0.0
C496 C 0.9232 0.72296 0.32637 0.0
C497 C 0.88573 0.71887 0.30824 0.0
C498 C 0.87999 0.67523 0.30332 0.0
C499 C 0.92091 0.68011 0.31751 0.0
N500 N 0.98364 0.7078 0.33997 0.0
N501 N 0.8302 0.69156 0.277 0.0
C502 C 0.94285 0.70388 0.3287 0.0
C503 C 0.86416 0.69504 0.29632 0.0
N504 N 0.93904 0.74476 0.34196 0.0
N505 N 0.85608 0.65163 0.29696 0.0
H506 H 0.81783 0.70557 0.27102 0.0
H507 H 0.81644 0.67518 0.26502 0.0
H508 H 0.86689 0.63684 0.30218 0.0
H509 H 0.82411 0.64665 0.28922 0.0
H510 H 0.96322 0.74798 0.35808 0.0
H511 H 0.9249 0.75894 0.341 0.0
H512 H 0.0044 0.72486 0.34657 0.0
H513 H 0.0044 0.72486 0.34657 0.0
C514 C 0.80449 0.35592 0.65151 0.0
C515 C 0.82358 0.33686 0.65559 0.0
C516 C 0.89406 0.36225 0.6368 0.0
C517 C 0.87634 0.3822 0.63627 0.0
N518 N 0.81598 0.39898 0.64371 0.0
N519 N 0.88592 0.32133 0.65289 0.0
C520 C 0.83171 0.37923 0.64344 0.0
C521 C 0.86817 0.33982 0.64821 0.0
N522 N 0.7604 0.35171 0.65557 0.0
N523 N 0.93555 0.36478 0.6261 0.0
H524 H 0.8673 0.30416 0.6595 0.0
H525 H 0.91927 0.3232 0.65162 0.0
H526 H 0.95576 0.3811 0.61811 0.0
H527 H 0.94904 0.35039 0.62299 0.0
H528 H 0.74361 0.36392 0.65008 0.0
H529 H 0.73972 0.33518 0.66257 0.0
H530 H 0.78531 0.39894 0.65209 0.0
H531 H 0.83469 0.41608 0.63692 0.0
C532 C 0.34947 0.2744 0.38121 0.0
C533 C 0.332 0.29206 0.39593 0.0
C534 C 0.34415 0.27757 0.44465 0.0
C535 C 0.35806 0.25861 0.42989 0.0
N536 N 0.36744 0.23634 0.38441 0.0
N537 N 0.30443 0.30732 0.44111 0.0
C538 C 0.35873 0.25622 0.39821 0.0
C539 C 0.327 0.29277 0.42752 0.0
N540 N 0.35927 0.27571 0.35129 0.0
N541 N 0.3488 0.28166 0.47495 0.0
H542 H 0.29065 0.31842 0.42928 0.0
H543 H 0.29569 0.30665 0.46372 0.0
H544 H 0.36137 0.27104 0.48844 0.0
H545 H 0.34382 0.29688 0.48641 0.0
H546 H 0.37647 0.26504 0.34005 0.0
H547 H 0.35369 0.28897 0.33809 0.0
H548 H 0.36385 0.23221 0.36151 0.0
H549 H 0.37477 0.22282 0.39623 0.0
C550 C 0.27849 0.84506 0.80954 0.0
C551 C 0.29873 0.87045 0.80674 0.0
C552 C 0.3591 0.86803 0.83792 0.0
C553 C 0.34201 0.84224 0.8372 0.0
N554 N 0.28911 0.80575 0.81755 0.0
N555 N 0.3632 0.90504 0.81295 0.0
C556 C 0.30267 0.83058 0.82166 0.0
C557 C 0.34043 0.88167 0.81947 0.0
N558 N 0.23569 0.8349 0.80184 0.0
N559 N 0.39221 0.87963 0.85699 0.0
H560 H 0.35165 0.91541 0.79849 0.0
H561 H 0.39552 0.91315 0.81931 0.0
H562 H 0.40579 0.87036 0.8717 0.0
H563 H 0.40292 0.89853 0.86045 0.0
H564 H 0.21812 0.817 0.80622 0.0
H565 H 0.21638 0.84498 0.79378 0.0
H566 H 0.26244 0.79643 0.80446 0.0
H567 H 0.30676 0.79452 0.82496 0.0
C568 C 0.84127 0.83163 0.39566 0.0
C569 C 0.84604 0.83702 0.36494 0.0
C570 C 0.87118 0.88083 0.37839 0.0
C571 C 0.86165 0.87547 0.40883 0.0
N572 N 0.83377 0.84618 0.44676 0.0
N573 N 0.86017 0.86658 0.32648 0.0
C574 C 0.84579 0.85096 0.4176 0.0
C575 C 0.85994 0.86159 0.3561 0.0
N576 N 0.83367 0.80808 0.40383 0.0
N577 N 0.89142 0.90431 0.37086 0.0
H578 H 0.85205 0.85307 0.30939 0.0
H579 H 0.86502 0.88405 0.31891 0.0
H580 H 0.89929 0.91891 0.38661 0.0
H581 H 0.90359 0.90908 0.3495 0.0
H582 H 0.83434 0.80319 0.42589 0.0
H583 H 0.83047 0.79352 0.38828 0.0
H584 H 0.81724 0.82887 0.45393 0.0
H585 H 0.83759 0.8598 0.46365 0.0
C586 C 0.64528 0.28158 0.81007 0.0
C587 C 0.65256 0.29251 0.78188 0.0
C588 C 0.61018 0.32017 0.7984 0.0
C589 C 0.60798 0.31149 0.82769 0.0
N590 N 0.62674 0.28558 0.86265 0.0
N591 N 0.64905 0.32541 0.75106 0.0
C592 C 0.62623 0.29252 0.83389 0.0
C593 C 0.63663 0.31255 0.77639 0.0
N594 N 0.6556 0.26042 0.81382 0.0
N595 N 0.58656 0.33553 0.79152 0.0
H596 H 0.66986 0.32123 0.73474 0.0
H597 H 0.64232 0.34177 0.74765 0.0
H598 H 0.56675 0.34154 0.80711 0.0
H599 H 0.58328 0.34039 0.76975 0.0
H600 H 0.64714 0.25024 0.83286 0.0
H601 H 0.66924 0.25184 0.79673 0.0
H602 H 0.64389 0.27382 0.86914 0.0
H603 H 0.61252 0.29295 0.88055 0.0
C604 C 0.33483 0.96013 0.69191 0.0
C605 C 0.30256 0.9685 0.70769 0.0
C606 C 0.31831 0.004 0.67627 0.0
C607 C 0.34757 0.99443 0.65882 0.0
N608 N 0.3798 0.96195 0.64711 0.0
N609 N 0.25832 0.99614 0.71218 0.0
C610 C 0.35475 0.97206 0.66582 0.0
C611 C 0.29298 0.98991 0.69924 0.0
N612 N 0.34772 0.94141 0.70258 0.0
N613 N 0.31533 0.02677 0.6712 0.0
H614 H 0.2386 0.98614 0.72883 0.0
H615 H 0.24669 0.00995 0.70468 0.0
H616 H 0.33274 0.03741 0.65416 0.0
H617 H 0.29836 0.03591 0.68528 0.0
H618 H 0.37434 0.9362 0.69397 0.0
H619 H 0.33426 0.93239 0.72182 0.0
H620 H 0.38217 0.94437 0.64905 0.0
H621 H 0.39573 0.97041 0.62814 0.0
C622 C 0.65626 0.80178 0.23486 0.0
C623 C 0.67356 0.78162 0.23272 0.0
C624 C 0.65264 0.7744 0.17987 0.0
C625 C 0.63181 0.79308 0.18302 0.0
N626 N 0.60624 0.82139 0.2149 0.0
N627 N 0.68346 0.74662 0.20472 0.0
C628 C 0.63135 0.80581 0.21095 0.0
C629 C 0.67058 0.76735 0.20559 0.0
N630 N 0.66555 0.81788 0.25907 0.0
N631 N 0.65607 0.76384 0.15222 0.0
H632 H 0.69665 0.74092 0.22314 0.0
H633 H 0.67796 0.73406 0.18659 0.0
H634 H 0.64264 0.76836 0.13309 0.0
H635 H 0.67485 0.75198 0.14781 0.0
H636 H 0.65776 0.83431 0.26023 0.0
H637 H 0.68503 0.8162 0.27671 0.0
H638 H 0.60065 0.82892 0.23574 0.0
H639 H 0.58768 0.82511 0.1979 0.0
C640 C 0.7487 0.20323 0.59315 0.0
C641 C 0.74196 0.20004 0.62436 0.0
C642 C 0.74956 0.15873 0.61791 0.0
C643 C 0.75212 0.16118 0.58647 0.0
N644 N 0.74653 0.184 0.54357 0.0
N645 N 0.72899 0.1736 0.66608 0.0
C646 C 0.74947 0.18293 0.57391 0.0
C647 C 0.74063 0.17749 0.63671 0.0
N648 N 0.75642 0.2259 0.58201 0.0
N649 N 0.75663 0.13874 0.62981 0.0
H650 H 0.72163 0.18675 0.68046 0.0
H651 H 0.7229 0.1567 0.67557 0.0
H652 H 0.76261 0.12451 0.61665 0.0
H653 H 0.76 0.13712 0.65265 0.0
H654 H 0.76629 0.22981 0.55998 0.0
H655 H 0.75717 0.24141 0.5954 0.0
H656 H 0.73956 0.19835 0.53336 0.0
H657 H 0.74724 0.16959 0.52861 0.0
C658 C 0.42325 0.38275 0.25395 0.0
C659 C 0.4178 0.36442 0.2751 0.0
C660 C 0.46901 0.3471 0.24684 0.0
C661 C 0.47219 0.36442 0.22464 0.0
N662 N 0.4485 0.39654 0.20441 0.0
N663 N 0.43016 0.32728 0.29034 0.0
C664 C 0.44823 0.38167 0.22745 0.0
C665 C 0.4391 0.34601 0.27113 0.0
N666 N 0.40516 0.40139 0.25951 0.0
N667 N 0.49569 0.33228 0.24519 0.0
H668 H 0.40955 0.32633 0.30898 0.0
H669 H 0.44066 0.31182 0.28676 0.0
H670 H 0.51762 0.3323 0.22752 0.0
H671 H 0.49858 0.32122 0.26232 0.0
H672 H 0.41187 0.41677 0.24675 0.0
H673 H 0.3855 0.40234 0.27824 0.0
H674 H 0.42815 0.4077 0.20359 0.0
H675 H 0.46691 0.39642 0.18484 0.0
C676 C 0.81531 0.68973 0.65792 0.0
C677 C 0.83172 0.71554 0.66152 0.0
C678 C 0.9066 0.71289 0.65561 0.0
C679 C 0.88992 0.68753 0.64842 0.0
N680 N 0.82819 0.65228 0.63824 0.0
N681 N 0.89254 0.75209 0.65743 0.0
C682 C 0.84416 0.67605 0.64832 0.0
C683 C 0.87729 0.72726 0.65871 0.0
N684 N 0.77264 0.67817 0.66491 0.0
N685 N 0.95038 0.72318 0.66028 0.0
H686 H 0.87215 0.76335 0.6584 0.0
H687 H 0.92493 0.76131 0.65224 0.0
H688 H 0.97297 0.71323 0.65865 0.0
H689 H 0.96365 0.74104 0.66862 0.0
H690 H 0.76006 0.65929 0.66565 0.0
H691 H 0.75076 0.68745 0.67286 0.0
H692 H 0.79509 0.64374 0.63456 0.0
H693 H 0.84835 0.64167 0.63111 0.0
C694 C 0.83791 0.34457 0.35937 0.0
C695 C 0.85492 0.3243 0.35982 0.0
C696 C 0.92413 0.35099 0.37955 0.0
C697 C 0.90601 0.37086 0.38097 0.0
N698 N 0.84285 0.38546 0.37873 0.0
N699 N 0.91007 0.30709 0.37668 0.0
C700 C 0.86192 0.36726 0.373 0.0
C701 C 0.89683 0.32717 0.37187 0.0
N702 N 0.80027 0.34268 0.34432 0.0
N703 N 0.96783 0.355 0.38418 0.0
H704 H 0.89052 0.28933 0.37185 0.0
H705 H 0.93845 0.30791 0.38816 0.0
H706 H 0.98913 0.37216 0.38969 0.0
H707 H 0.98367 0.34166 0.3801 0.0
H708 H 0.78916 0.35761 0.34049 0.0
H709 H 0.78218 0.32672 0.33308 0.0
H710 H 0.80952 0.38303 0.37623 0.0
H711 H 0.85957 0.40232 0.38874 0.0
C712 C 0.14208 0.40045 0.70376 0.0
C713 C 0.177 0.39474 0.68782 0.0
C714 C 0.17426 0.42412 0.65042 0.0
C715 C 0.13479 0.42642 0.66353 0.0
N716 N 0.07649 0.41279 0.69997 0.0
N717 N 0.221 0.39807 0.64243 0.0
C718 C 0.11745 0.41361 0.68958 0.0
C719 C 0.19205 0.4059 0.66028 0.0
N720 N 0.1331 0.39392 0.73273 0.0
N721 N 0.1949 0.43943 0.62865 0.0
H722 H 0.23308 0.38379 0.64764 0.0
H723 H 0.22936 0.40399 0.62083 0.0
H724 H 0.18299 0.4532 0.6212 0.0
H725 H 0.22591 0.44005 0.6203 0.0
H726 H 0.1105 0.39962 0.74614 0.0
H727 H 0.15168 0.38523 0.74439 0.0
H728 H 0.06082 0.40157 0.717 0.0
H729 H 0.05636 0.42134 0.68973 0.0
C730 C 0.24346 0.72897 0.28799 0.0
C731 C 0.27681 0.73188 0.3094 0.0
C732 C 0.23556 0.69337 0.33125 0.0
C733 C 0.20007 0.69213 0.31226 0.0
N734 N 0.16713 0.71086 0.27587 0.0
N735 N 0.30133 0.71909 0.35484 0.0
C736 C 0.20315 0.71049 0.29147 0.0
C737 C 0.27217 0.71461 0.3319 0.0
N738 N 0.25082 0.7433 0.26374 0.0
N739 N 0.23462 0.67407 0.34827 0.0
H740 H 0.32795 0.73474 0.35673 0.0
H741 H 0.29684 0.70844 0.37353 0.0
H742 H 0.20828 0.65821 0.34835 0.0
H743 H 0.26147 0.67287 0.36016 0.0
H744 H 0.22938 0.74032 0.24584 0.0
H745 H 0.28035 0.75666 0.25999 0.0
H746 H 0.16624 0.72533 0.26296 0.0
H747 H 0.13682 0.69776 0.27788 0.0
C748 C 0.83826 0.83902 0.62006 0.0
C749 C 0.80522 0.83879 0.6419 0.0
C750 C 0.80093 0.87827 0.62574 0.0
C751 C 0.83013 0.87705 0.60177 0.0
N752 N 0.87319 0.85519 0.57366 0.0
N753 N 0.75025 0.85626 0.66295 0.0
C754 C 0.84804 0.85717 0.5983 0.0
C755 C 0.78544 0.858 0.64424 0.0
N756 N 0.86121 0.82235 0.62072 0.0
N757 N 0.78843 0.89895 0.63098 0.0
H758 H 0.73727 0.84155 0.67655 0.0
H759 H 0.73143 0.86831 0.66312 0.0
H760 H 0.79882 0.91403 0.6176 0.0
H761 H 0.77096 0.90202 0.64997 0.0
H762 H 0.88872 0.82312 0.6074 0.0
H763 H 0.85517 0.80892 0.63651 0.0
H764 H 0.88289 0.83972 0.56804 0.0
H765 H 0.88185 0.86836 0.55753 0.0
C766 C 0.66233 0.28857 0.24965 0.0
C767 C 0.70079 0.28143 0.24411 0.0
C768 C 0.69854 0.28947 0.19087 0.0
C769 C 0.66408 0.29987 0.19734 0.0
N770 N 0.61487 0.31131 0.23305 0.0
N771 N 0.75629 0.27492 0.2101 0.0
C772 C 0.64591 0.29962 0.22668 0.0
C773 C 0.71894 0.28164 0.2148 0.0
N774 N 0.64186 0.28516 0.277 0.0
N775 N 0.71127 0.28689 0.16179 0.0
H776 H 0.77048 0.26772 0.22677 0.0
H777 H 0.77428 0.27738 0.19018 0.0
H778 H 0.69684 0.29254 0.1439 0.0
H779 H 0.73347 0.2775 0.15508 0.0
H780 H 0.61108 0.28737 0.28131 0.0
H781 H 0.65388 0.2782 0.29491 0.0
H782 H 0.60434 0.31448 0.25467 0.0
H783 H 0.6016 0.31955 0.21696 0.0
C784 C 0.30449 0.28404 0.62731 0.0
C785 C 0.32529 0.29015 0.65546 0.0
C786 C 0.37008 0.26278 0.64328 0.0
C787 C 0.3531 0.25905 0.61392 0.0
N788 N 0.30821 0.26833 0.57633 0.0
N789 N 0.38316 0.28866 0.68844 0.0
C790 C 0.32126 0.27021 0.60546 0.0
C791 C 0.35933 0.28028 0.66311 0.0
N792 N 0.26789 0.29078 0.62182 0.0
N793 N 0.39611 0.24937 0.65228 0.0
H794 H 0.37748 0.30207 0.70319 0.0
H795 H 0.41132 0.28406 0.69341 0.0
H796 H 0.40487 0.23649 0.63819 0.0
H797 H 0.4057 0.2494 0.67437 0.0
H798 H 0.24864 0.28469 0.60295 0.0
H799 H 0.25439 0.30069 0.63745 0.0
H800 H 0.289 0.27839 0.56812 0.0
H801 H 0.31927 0.2581 0.55971 0.0
C802 C 0.46082 0.82886 0.26714 0.0
C803 C 0.44589 0.84827 0.27947 0.0
C804 C 0.43691 0.86086 0.22891 0.0
C805 C 0.45735 0.84357 0.21692 0.0
N806 N 0.49369 0.8129 0.2246 0.0
N807 N 0.42059 0.88331 0.27292 0.0
C808 C 0.47013 0.82781 0.23597 0.0
C809 C 0.43395 0.86439 0.26055 0.0
N810 N 0.46656 0.81153 0.28524 0.0
N811 N 0.41981 0.87357 0.20993 0.0
H812 H 0.41577 0.88559 0.29591 0.0
H813 H 0.41629 0.89739 0.26069 0.0
H814 H 0.42156 0.87128 0.18668 0.0
H815 H 0.40091 0.88484 0.217 0.0
H816 H 0.4723 0.79542 0.27709 0.0
H817 H 0.46216 0.81219 0.3084 0.0
H818 H 0.50871 0.80334 0.23786 0.0
H819 H 0.50143 0.81145 0.20194 0.0
C820 C 0.81401 0.20033 0.38983 0.0
C821 C 0.81052 0.1943 0.35868 0.0
C822 C 0.80371 0.15158 0.36825 0.0
C823 C 0.80212 0.15715 0.39942 0.0
N824 N 0.80181 0.18609 0.44036 0.0
N825 N 0.79805 0.16413 0.31784 0.0
C826 C 0.80636 0.18136 0.41037 0.0
C827 C 0.80472 0.16993 0.34771 0.0
N828 N 0.82606 0.22428 0.3997 0.0
N829 N 0.80464 0.12881 0.3584 0.0
H830 H 0.79875 0.17707 0.3021 0.0
H831 H 0.78872 0.14632 0.30883 0.0
H832 H 0.80304 0.11486 0.3729 0.0
H833 H 0.8104 0.12424 0.33619 0.0
H834 H 0.83371 0.23002 0.42186 0.0
H835 H 0.8323 0.23869 0.38527 0.0
H836 H 0.79914 0.20268 0.44936 0.0
H837 H 0.79774 0.1729 0.4563 0.0
C838 C 0.32507 0.37575 0.82322 0.0
C839 C 0.3135 0.35423 0.80461 0.0
C840 C 0.36032 0.33669 0.83299 0.0
C841 C 0.37254 0.35836 0.85158 0.0
N842 N 0.35904 0.3958 0.86935 0.0
N843 N 0.30926 0.31179 0.79679 0.0
C844 C 0.35223 0.37701 0.84835 0.0
C845 C 0.32721 0.33381 0.81145 0.0
N846 N 0.31139 0.39521 0.81613 0.0
N847 N 0.38265 0.31974 0.83413 0.0
H848 H 0.28538 0.3092 0.78048 0.0
H849 H 0.3148 0.29565 0.80285 0.0
H850 H 0.40797 0.32119 0.84897 0.0
H851 H 0.37866 0.30516 0.8186 0.0
H852 H 0.32267 0.41244 0.82665 0.0
H853 H 0.28983 0.39424 0.79865 0.0
H854 H 0.34254 0.40898 0.86971 0.0
H855 H 0.37861 0.39696 0.88803 0.0
C856 C 0.43999 0.92658 0.45801 0.0
C857 C 0.45712 0.93123 0.42856 0.0
C858 C 0.46697 0.97499 0.43786 0.0
C859 C 0.44764 0.97007 0.46663 0.0
N860 N 0.40727 0.94105 0.50182 0.0
N861 N 0.47874 0.95885 0.38825 0.0
C862 C 0.43137 0.94578 0.47594 0.0
C863 C 0.46827 0.95518 0.41782 0.0
N864 N 0.43446 0.90423 0.4696 0.0
N865 N 0.48525 0.99858 0.43007 0.0
H866 H 0.47934 0.94468 0.37286 0.0
H867 H 0.48292 0.97545 0.37838 0.0
H868 H 0.48392 0.01353 0.44391 0.0
H869 H 0.50428 0.0034 0.41085 0.0
H870 H 0.42687 0.90068 0.49203 0.0
H871 H 0.44138 0.88973 0.45764 0.0
H872 H 0.39053 0.9235 0.50811 0.0
H873 H 0.40067 0.95471 0.51572 0.0
C874 C 0.61387 0.79348 0.77058 0.0
C875 C 0.63729 0.77592 0.77 0.0
C876 C 0.5962 0.75741 0.81424 0.0
C877 C 0.57065 0.77382 0.81326 0.0
N878 N 0.54891 0.80412 0.78712 0.0
N879 N 0.64665 0.73888 0.78805 0.0
C880 C 0.57755 0.79081 0.79034 0.0
C881 C 0.62735 0.75722 0.79097 0.0
N882 N 0.62776 0.81352 0.7535 0.0
N883 N 0.59152 0.74254 0.83782 0.0
H884 H 0.66949 0.73816 0.77123 0.0
H885 H 0.6375 0.72338 0.80068 0.0
H886 H 0.5684 0.7419 0.85488 0.0
H887 H 0.61245 0.73213 0.84162 0.0
H888 H 0.61488 0.82822 0.75554 0.0
H889 H 0.65509 0.81672 0.73937 0.0
H890 H 0.54953 0.81479 0.76883 0.0
H891 H 0.52194 0.80281 0.80127 0.0
loop_
_geom_bond_atom_site_label_1
_geom_bond_atom_site_label_2
_geom_bond_distance
_geom_bond_site_symmetry_2
_ccdc_geom_bond_type
O0 Cd1 2.300 . S
O0 C7 1.275 . S
Cd1 O0 2.300 . S
Cd1 O9 2.381 . S
Cd1 O10 2.378 . S
O2 Cd3 2.385 . S
O2 C7 1.255 . S
Cd3 O2 2.385 . S
Cd3 O4 2.317 . S
O4 Cd3 2.317 . S
O4 C5 1.232 . S
C5 O4 1.232 . S
C5 O6 1.218 . S
O6 C5 1.218 . S
C7 O0 1.275 . S
C7 O2 1.255 . S
C8 O9 1.258 . S
C8 O10 1.256 . S
O9 Cd1 2.381 . S
O9 C8 1.258 . S
O10 Cd1 2.378 . S
O10 C8 1.256 . S
O11 Cd12 2.300 . S
O11 C18 1.275 . S
Cd12 O11 2.300 . S
Cd12 O20 2.381 . S
Cd12 O21 2.378 . S
O13 Cd14 2.385 . S
O13 C18 1.255 . S
Cd14 O13 2.385 . S
Cd14 O15 2.317 . S
O15 Cd14 2.317 . S
O15 C16 1.232 . S
C16 O15 1.232 . S
C16 O17 1.218 . S
O17 C16 1.218 . S
C18 O11 1.275 . S
C18 O13 1.255 . S
C19 O20 1.258 . S
C19 O21 1.256 . S
O20 Cd12 2.381 . S
O20 C19 1.258 . S
O21 Cd12 2.378 . S
O21 C19 1.256 . S
O22 Cd23 2.300 . S
O22 C29 1.275 . S
Cd23 O22 2.300 . S
Cd23 O31 2.381 . S
Cd23 O32 2.378 . S
O24 Cd25 2.385 . S
O24 C29 1.255 . S
Cd25 O24 2.385 . S
Cd25 O26 2.317 . S
O26 Cd25 2.317 . S
O26 C27 1.232 . S
C27 O26 1.232 . S
C27 O28 1.218 . S
O28 C27 1.218 . S
C29 O22 1.275 . S
C29 O24 1.255 . S
C30 O31 1.258 . S
C30 O32 1.256 . S
O31 Cd23 2.381 . S
O31 C30 1.258 . S
O32 Cd23 2.378 . S
O32 C30 1.256 . S
O33 Cd34 2.300 . S
O33 C40 1.275 . S
Cd34 O33 2.300 . S
Cd34 O42 2.381 . S
Cd34 O43 2.378 . S
O35 Cd36 2.385 . S
O35 C40 1.255 . S
Cd36 O35 2.385 . S
Cd36 O37 2.317 . S
O37 Cd36 2.317 . S
O37 C38 1.232 . S
C38 O37 1.232 . S
C38 O39 1.218 . S
O39 C38 1.218 . S
C40 O33 1.275 . S
C40 O35 1.255 . S
C41 O42 1.258 . S
C41 O43 1.256 . S
O42 Cd34 2.381 . S
O42 C41 1.258 . S
O43 Cd34 2.378 . S
O43 C41 1.256 . S
O44 Cd45 2.300 . S
O44 C51 1.275 . S
Cd45 O44 2.300 . S
Cd45 O53 2.381 . S
Cd45 O54 2.378 . S
O46 Cd47 2.385 . S
O46 C51 1.255 . S
Cd47 O46 2.385 . S
Cd47 O48 2.317 . S
O48 Cd47 2.317 . S
O48 C49 1.232 . S
C49 O48 1.232 . S
C49 O50 1.218 . S
O50 C49 1.218 . S
C51 O44 1.275 . S
C51 O46 1.255 . S
C52 O53 1.258 . S
C52 O54 1.256 . S
O53 Cd45 2.381 . S
O53 C52 1.258 . S
O54 Cd45 2.378 . S
O54 C52 1.256 . S
O55 Cd56 2.300 . S
O55 C62 1.275 . S
Cd56 O55 2.300 . S
Cd56 O64 2.381 . S
Cd56 O65 2.378 . S
O57 Cd58 2.385 . S
O57 C62 1.255 . S
Cd58 O57 2.385 . S
Cd58 O59 2.317 . S
O59 Cd58 2.317 . S
O59 C60 1.232 . S
C60 O59 1.232 . S
C60 O61 1.218 . S
O61 C60 1.218 . S
C62 O55 1.275 . S
C62 O57 1.255 . S
C63 O64 1.258 . S
C63 O65 1.256 . S
O64 Cd56 2.381 . S
O64 C63 1.258 . S
O65 Cd56 2.378 . S
O65 C63 1.256 . S
O66 Cd67 2.300 . S
O66 C73 1.275 . S
Cd67 O66 2.300 . S
Cd67 O75 2.381 . S
Cd67 O76 2.378 . S
O68 Cd69 2.385 . S
O68 C73 1.255 . S
Cd69 O68 2.385 . S
Cd69 O70 2.317 . S
O70 Cd69 2.317 . S
O70 C71 1.232 . S
C71 O70 1.232 . S
C71 O72 1.218 . S
O72 C71 1.218 . S
C73 O66 1.275 . S
C73 O68 1.255 . S
C74 O75 1.258 . S
C74 O76 1.256 . S
O75 Cd67 2.381 . S
O75 C74 1.258 . S
O76 Cd67 2.378 . S
O76 C74 1.256 . S
O77 Cd78 2.300 . S
O77 C84 1.275 . S
Cd78 O77 2.300 . S
Cd78 O86 2.381 . S
Cd78 O87 2.378 . S
O79 Cd80 2.385 . S
O79 C84 1.255 . S
Cd80 O79 2.385 . S
Cd80 O81 2.317 . S
O81 Cd80 2.317 . S
O81 C82 1.232 . S
C82 O81 1.232 . S
C82 O83 1.218 . S
O83 C82 1.218 . S
C84 O77 1.275 . S
C84 O79 1.255 . S
C85 O86 1.258 . S
C85 O87 1.256 . S
O86 Cd78 2.381 . S
O86 C85 1.258 . S
O87 Cd78 2.378 . S
O87 C85 1.256 . S
H88 C115 0.929 1_455 S
N89 C114 1.433 . S
N89 C120 1.435 . S
N89 C126 1.423 . S
H90 C116 0.930 . S
H91 C119 0.931 . S
H92 C118 0.929 . S
H93 C121 0.930 . S
H94 C122 0.932 . S
H95 C125 0.929 . S
H96 C124 0.931 . S
H97 C127 0.929 . S
H98 C131 0.932 . S
H99 C128 0.931 . S
H100 C130 0.929 . S
H101 C133 0.929 . S
H102 C134 0.930 . S
H103 C136 0.929 . S
H104 C137 0.940 . S
H105 C139 0.930 . S
H106 C140 0.932 . S
H107 C142 0.931 . S
H108 C143 0.929 . S
H109 C145 0.929 . S
H110 C146 0.931 . S
H111 C148 0.929 . S
N112 C132 1.433 . S
N112 C138 1.435 . S
N112 C144 1.423 . S
H113 C149 0.932 . S
C114 N89 1.433 . S
C114 C115 1.363 1_455 S
C114 C119 1.370 1_455 S
C115 H88 0.929 1_655 S
C115 C114 1.363 1_655 S
C115 C116 1.385 . S
C116 H90 0.930 . S
C116 C115 1.385 . S
C116 C117 1.357 . S
C117 C116 1.357 . S
C117 C118 1.406 . S
C118 H92 0.929 . S
C118 C117 1.406 . S
C118 C119 1.391 . S
C119 H91 0.931 . S
C119 C114 1.370 1_655 S
C119 C118 1.391 . S
C120 N89 1.435 . S
C120 C121 1.358 . S
C120 C125 1.371 . S
C121 H93 0.930 . S
C121 C120 1.358 . S
C121 C122 1.405 . S
C122 H94 0.932 . S
C122 C121 1.405 . S
C122 C123 1.383 . S
C123 C122 1.383 . S
C123 C124 1.393 . S
C124 H96 0.931 . S
C124 C123 1.393 . S
C124 C125 1.382 . S
C125 H95 0.929 . S
C125 C120 1.371 . S
C125 C124 1.382 . S
C126 N89 1.423 . S
C126 C127 1.362 . S
C126 C131 1.388 . S
C127 H97 0.929 . S
C127 C126 1.362 . S
C127 C128 1.376 . S
C128 H99 0.931 . S
C128 C127 1.376 . S
C128 C129 1.396 . S
C129 C128 1.396 . S
C129 C130 1.348 . S
C129 C147 1.472 . S
C130 H100 0.929 . S
C130 C129 1.348 . S
C130 C131 1.443 . S
C131 H98 0.932 . S
C131 C126 1.388 . S
C131 C130 1.443 . S
C132 N112 1.433 . S
C132 C133 1.363 . S
C132 C137 1.370 1_455 S
C133 H101 0.929 . S
C133 C132 1.363 . S
C133 C134 1.385 1_455 S
C134 H102 0.930 . S
C134 C133 1.385 1_655 S
C134 C135 1.357 . S
C135 C134 1.357 . S
C135 C136 1.406 . S
C136 H103 0.929 . S
C136 C135 1.406 . S
C136 C137 1.391 . S
C137 H104 0.940 . S
C137 C132 1.370 1_655 S
C137 C136 1.391 . S
C138 N112 1.435 . S
C138 C139 1.358 . S
C138 C143 1.371 . S
C139 H105 0.930 . S
C139 C138 1.358 . S
C139 C140 1.405 . S
C140 H106 0.932 . S
C140 C139 1.405 . S
C140 C141 1.383 . S
C141 C140 1.383 . S
C141 C142 1.393 . S
C142 H107 0.931 . S
C142 C141 1.393 . S
C142 C143 1.382 . S
C143 H108 0.929 . S
C143 C138 1.371 . S
C143 C142 1.382 . S
C144 N112 1.423 . S
C144 C145 1.362 . S
C144 C149 1.388 . S
C145 H109 0.929 . S
C145 C144 1.362 . S
C145 C146 1.376 . S
C146 H110 0.931 . S
C146 C145 1.376 . S
C146 C147 1.396 . S
C147 C129 1.472 . S
C147 C146 1.396 . S
C147 C148 1.348 . S
C148 H111 0.929 . S
C148 C147 1.348 . S
C148 C149 1.443 . S
C149 H113 0.932 . S
C149 C144 1.388 . S
C149 C148 1.443 . S
H150 C177 0.929 . S
N151 C176 1.433 1_455 S
N151 C182 1.435 . S
N151 C188 1.423 . S
H152 C178 0.930 . S
H153 C181 0.931 . S
H154 C180 0.929 . S
H155 C183 0.930 . S
H156 C184 0.932 . S
H157 C187 0.929 . S
H158 C186 0.931 . S
H159 C189 0.929 . S
H160 C193 0.932 . S
H161 C190 0.931 . S
H162 C192 0.929 . S
H163 C195 0.929 . S
H164 C196 0.930 . S
H165 C198 0.929 . S
H166 C199 0.931 . S
H167 C201 0.930 . S
H168 C202 0.932 . S
H169 C204 0.931 . S
H170 C205 0.929 . S
H171 C207 0.929 . S
H172 C208 0.931 . S
H173 C210 0.929 . S
N174 C194 1.433 1_455 S
N174 C200 1.435 . S
N174 C206 1.423 . S
H175 C211 0.932 . S
C176 N151 1.433 1_655 S
C176 C177 1.363 . S
C176 C181 1.370 . S
C177 H150 0.929 . S
C177 C176 1.363 . S
C177 C178 1.385 . S
C178 H152 0.930 . S
C178 C177 1.385 . S
C178 C179 1.357 . S
C179 C178 1.357 . S
C179 C180 1.406 . S
C180 H154 0.929 . S
C180 C179 1.406 . S
C180 C181 1.391 . S
C181 H153 0.931 . S
C181 C176 1.370 . S
C181 C180 1.391 . S
C182 N151 1.435 . S
C182 C183 1.358 . S
C182 C187 1.371 . S
C183 H155 0.930 . S
C183 C182 1.358 . S
C183 C184 1.405 . S
C184 H156 0.932 . S
C184 C183 1.405 . S
C184 C185 1.383 . S
C185 C184 1.383 . S
C185 C186 1.393 . S
C186 H158 0.931 . S
C186 C185 1.393 . S
C186 C187 1.382 . S
C187 H157 0.929 . S
C187 C182 1.371 . S
C187 C186 1.382 . S
C188 N151 1.423 . S
C188 C189 1.362 1_455 S
C188 C193 1.388 . S
C189 H159 0.929 . S
C189 C188 1.362 1_655 S
C189 C190 1.376 . S
C190 H161 0.931 . S
C190 C189 1.376 . S
C190 C191 1.396 1_655 S
C191 C190 1.396 1_455 S
C191 C192 1.348 . S
C191 C209 1.472 . S
C192 H162 0.929 . S
C192 C191 1.348 . S
C192 C193 1.443 . S
C193 H160 0.932 . S
C193 C188 1.388 . S
C193 C192 1.443 . S
C194 N174 1.433 1_655 S
C194 C195 1.363 . S
C194 C199 1.370 . S
C195 H163 0.929 . S
C195 C194 1.363 . S
C195 C196 1.385 . S
C196 H164 0.930 . S
C196 C195 1.385 . S
C196 C197 1.357 . S
C197 C196 1.357 . S
C197 C198 1.406 . S
C198 H165 0.929 . S
C198 C197 1.406 . S
C198 C199 1.391 . S
C199 H166 0.931 . S
C199 C194 1.370 . S
C199 C198 1.391 . S
C200 N174 1.435 . S
C200 C201 1.358 . S
C200 C205 1.371 . S
C201 H167 0.930 . S
C201 C200 1.358 . S
C201 C202 1.405 . S
C202 H168 0.932 . S
C202 C201 1.405 . S
C202 C203 1.383 . S
C203 C202 1.383 . S
C203 C204 1.393 . S
C204 H169 0.931 . S
C204 C203 1.393 . S
C204 C205 1.382 . S
C205 H170 0.929 . S
C205 C200 1.371 . S
C205 C204 1.382 . S
C206 N174 1.423 . S
C206 C207 1.362 1_455 S
C206 C211 1.388 . S
C207 H171 0.929 . S
C207 C206 1.362 1_655 S
C207 C208 1.376 . S
C208 H172 0.931 . S
C208 C207 1.376 . S
C208 C209 1.396 1_655 S
C209 C191 1.472 . S
C209 C208 1.396 1_455 S
C209 C210 1.348 . S
C210 H173 0.929 . S
C210 C209 1.348 . S
C210 C211 1.443 . S
C211 H175 0.932 . S
C211 C206 1.388 . S
C211 C210 1.443 . S
H212 C239 0.929 . S
N213 C238 1.433 . S
N213 C244 1.435 . S
N213 C250 1.423 . S
H214 C240 0.930 . S
H215 C243 0.931 . S
H216 C242 0.929 . S
H217 C245 0.930 . S
H218 C246 0.932 . S
H219 C249 0.929 . S
H220 C248 0.931 . S
H221 C251 0.929 . S
H222 C255 0.932 . S
H223 C252 0.931 . S
H224 C254 0.929 . S
H225 C257 0.929 . S
H226 C258 0.930 . S
H227 C260 0.929 . S
H228 C261 0.931 . S
H229 C263 0.930 . S
H230 C264 0.932 . S
H231 C266 0.931 . S
H232 C267 0.929 . S
H233 C269 0.929 . S
H234 C270 0.931 . S
H235 C272 0.929 . S
N236 C256 1.433 . S
N236 C262 1.435 . S
N236 C268 1.423 . S
H237 C273 0.932 . S
C238 N213 1.433 . S
C238 C239 1.363 . S
C238 C243 1.370 . S
C239 H212 0.929 . S
C239 C238 1.363 . S
C239 C240 1.385 . S
C240 H214 0.930 . S
C240 C239 1.385 . S
C240 C241 1.357 . S
C241 C240 1.357 . S
C241 C242 1.406 . S
C242 H216 0.929 . S
C242 C241 1.406 . S
C242 C243 1.391 . S
C243 H215 0.931 . S
C243 C238 1.370 . S
C243 C242 1.391 . S
C244 N213 1.435 . S
C244 C245 1.358 . S
C244 C249 1.371 . S
C245 H217 0.930 . S
C245 C244 1.358 . S
C245 C246 1.405 . S
C246 H218 0.932 . S
C246 C245 1.405 . S
C246 C247 1.383 . S
C247 C246 1.383 . S
C247 C248 1.393 . S
C248 H220 0.931 . S
C248 C247 1.393 . S
C248 C249 1.382 . S
C249 H219 0.929 . S
C249 C244 1.371 . S
C249 C248 1.382 . S
C250 N213 1.423 . S
C250 C251 1.362 . S
C250 C255 1.388 . S
C251 H221 0.929 . S
C251 C250 1.362 . S
C251 C252 1.376 . S
C252 H223 0.931 . S
C252 C251 1.376 . S
C252 C253 1.396 . S
C253 C252 1.396 . S
C253 C254 1.348 . S
C253 C271 1.472 . S
C254 H224 0.929 . S
C254 C253 1.348 . S
C254 C255 1.443 . S
C255 H222 0.932 . S
C255 C250 1.388 . S
C255 C254 1.443 . S
C256 N236 1.433 . S
C256 C257 1.363 1_545 S
C256 C261 1.370 . S
C257 H225 0.929 . S
C257 C256 1.363 1_565 S
C257 C258 1.385 . S
C258 H226 0.930 . S
C258 C257 1.385 . S
C258 C259 1.357 1_565 S
C259 C258 1.357 1_545 S
C259 C260 1.406 . S
C260 H227 0.929 . S
C260 C259 1.406 . S
C260 C261 1.391 . S
C261 H228 0.931 . S
C261 C256 1.370 . S
C261 C260 1.391 . S
C262 N236 1.435 . S
C262 C263 1.361 . S
C262 C267 1.371 . S
C263 H229 0.930 . S
C263 C262 1.361 . S
C263 C264 1.402 1_545 S
C264 H230 0.932 . S
C264 C263 1.402 1_565 S
C264 C265 1.383 . S
C265 C264 1.383 . S
C265 C266 1.393 . S
C266 H231 0.931 . S
C266 C265 1.393 . S
C266 C267 1.382 1_565 S
C267 H232 0.929 . S
C267 C262 1.371 . S
C267 C266 1.382 1_545 S
C268 N236 1.423 . S
C268 C269 1.362 . S
C268 C273 1.388 . S
C269 H233 0.929 . S
C269 C268 1.362 . S
C269 C270 1.376 . S
C270 H234 0.931 . S
C270 C269 1.376 . S
C270 C271 1.396 . S
C271 C253 1.472 . S
C271 C270 1.396 . S
C271 C272 1.348 . S
C272 H235 0.929 . S
C272 C271 1.348 . S
C272 C273 1.443 . S
C273 H237 0.932 . S
C273 C268 1.388 . S
C273 C272 1.443 . S
H274 C301 0.929 . S
N275 C300 1.433 . S
N275 C306 1.435 . S
N275 C312 1.423 . S
H276 C302 0.930 . S
H277 C305 0.931 . S
H278 C304 0.929 . S
H279 C307 0.930 . S
H280 C308 0.932 . S
H281 C311 0.929 . S
H282 C310 0.931 . S
H283 C313 0.929 . S
H284 C317 0.932 . S
H285 C314 0.931 . S
H286 C316 0.929 . S
H287 C319 0.929 . S
H288 C320 0.930 . S
H289 C322 0.929 . S
H290 C323 0.931 . S
H291 C325 0.930 . S
H292 C326 0.932 . S
H293 C328 0.931 . S
H294 C329 0.929 . S
H295 C331 0.929 . S
H296 C332 0.931 . S
H297 C334 0.929 . S
N298 C318 1.433 . S
N298 C324 1.435 . S
N298 C330 1.423 . S
H299 C335 0.932 . S
C300 N275 1.433 . S
C300 C301 1.363 . S
C300 C305 1.370 . S
C301 H274 0.929 . S
C301 C300 1.363 . S
C301 C302 1.385 . S
C302 H276 0.930 . S
C302 C301 1.385 . S
C302 C303 1.357 . S
C303 C302 1.357 . S
C303 C304 1.406 . S
C304 H278 0.929 . S
C304 C303 1.406 . S
C304 C305 1.391 . S
C305 H277 0.931 . S
C305 C300 1.370 . S
C305 C304 1.391 . S
C306 N275 1.435 . S
C306 C307 1.358 . S
C306 C311 1.371 . S
C307 H279 0.930 . S
C307 C306 1.358 . S
C307 C308 1.405 . S
C308 H280 0.932 . S
C308 C307 1.405 . S
C308 C309 1.383 . S
C309 C308 1.383 . S
C309 C310 1.393 . S
C310 H282 0.931 . S
C310 C309 1.393 . S
C310 C311 1.382 . S
C311 H281 0.929 . S
C311 C306 1.371 . S
C311 C310 1.382 . S
C312 N275 1.423 . S
C312 C313 1.362 . S
C312 C317 1.388 . S
C313 H283 0.929 . S
C313 C312 1.362 . S
C313 C314 1.376 . S
C314 H285 0.931 . S
C314 C313 1.376 . S
C314 C315 1.396 . S
C315 C314 1.396 . S
C315 C316 1.348 . S
C315 C333 1.461 1_554 S
C316 H286 0.929 . S
C316 C315 1.348 . S
C316 C317 1.443 . S
C317 H284 0.932 . S
C317 C312 1.388 . S
C317 C316 1.443 . S
C318 N298 1.433 . S
C318 C319 1.363 . S
C318 C323 1.370 . S
C319 H287 0.929 . S
C319 C318 1.363 . S
C319 C320 1.385 . S
C320 H288 0.930 . S
C320 C319 1.385 . S
C320 C321 1.357 . S
C321 C320 1.357 . S
C321 C322 1.406 . S
C322 H289 0.929 . S
C322 C321 1.406 . S
C322 C323 1.391 . S
C323 H290 0.931 . S
C323 C318 1.370 . S
C323 C322 1.391 . S
C324 N298 1.435 . S
C324 C325 1.358 . S
C324 C329 1.371 . S
C325 H291 0.930 . S
C325 C324 1.358 . S
C325 C326 1.405 . S
C326 H292 0.932 . S
C326 C325 1.405 . S
C326 C327 1.383 . S
C327 C326 1.383 . S
C327 C328 1.393 . S
C328 H293 0.931 . S
C328 C327 1.393 . S
C328 C329 1.382 . S
C329 H294 0.929 . S
C329 C324 1.371 . S
C329 C328 1.382 . S
C330 N298 1.423 . S
C330 C331 1.362 . S
C330 C335 1.388 . S
C331 H295 0.929 . S
C331 C330 1.362 . S
C331 C332 1.376 . S
C332 H296 0.931 . S
C332 C331 1.376 . S
C332 C333 1.402 . S
C333 C315 1.461 1_556 S
C333 C332 1.402 . S
C333 C334 1.353 . S
C334 H297 0.929 . S
C334 C333 1.353 . S
C334 C335 1.443 . S
C335 H299 0.932 . S
C335 C330 1.388 . S
C335 C334 1.443 . S
H336 C363 0.929 . S
N337 C362 1.433 . S
N337 C368 1.435 . S
N337 C374 1.423 . S
H338 C364 0.930 . S
H339 C367 0.931 . S
H340 C366 0.929 . S
H341 C369 0.930 . S
H342 C370 0.932 . S
H343 C373 0.929 . S
H344 C372 0.931 . S
H345 C375 0.929 . S
H346 C379 0.932 . S
H347 C376 0.931 . S
H348 C378 0.929 . S
H349 C381 0.929 . S
H350 C382 0.930 . S
H351 C384 0.929 . S
H352 C385 0.931 . S
H353 C387 0.930 . S
H354 C388 0.932 . S
H355 C390 0.931 . S
H356 C391 0.929 . S
H357 C393 0.929 . S
H358 C394 0.931 . S
H359 C396 0.929 1_545 S
N360 C380 1.433 . S
N360 C386 1.435 . S
N360 C392 1.423 . S
H361 C397 0.932 . S
C362 N337 1.433 . S
C362 C363 1.363 . S
C362 C367 1.370 . S
C363 H336 0.929 . S
C363 C362 1.363 . S
C363 C364 1.385 . S
C364 H338 0.930 . S
C364 C363 1.385 . S
C364 C365 1.357 . S
C365 C364 1.357 . S
C365 C366 1.406 . S
C366 H340 0.929 . S
C366 C365 1.406 . S
C366 C367 1.391 . S
C367 H339 0.931 . S
C367 C362 1.370 . S
C367 C366 1.391 . S
C368 N337 1.435 . S
C368 C369 1.358 . S
C368 C373 1.371 . S
C369 H341 0.930 . S
C369 C368 1.358 . S
C369 C370 1.405 . S
C370 H342 0.932 . S
C370 C369 1.405 . S
C370 C371 1.383 . S
C371 C370 1.383 . S
C371 C372 1.393 . S
C372 H344 0.931 . S
C372 C371 1.393 . S
C372 C373 1.382 . S
C373 H343 0.929 . S
C373 C368 1.371 . S
C373 C372 1.382 . S
C374 N337 1.423 . S
C374 C375 1.362 . S
C374 C379 1.388 . S
C375 H345 0.929 . S
C375 C374 1.362 . S
C375 C376 1.376 . S
C376 H347 0.931 . S
C376 C375 1.376 . S
C376 C377 1.396 . S
C377 C376 1.396 . S
C377 C378 1.348 . S
C377 C395 1.472 . S
C378 H348 0.929 . S
C378 C377 1.348 . S
C378 C379 1.443 . S
C379 H346 0.932 . S
C379 C374 1.388 . S
C379 C378 1.443 . S
C380 N360 1.433 . S
C380 C381 1.363 . S
C380 C385 1.370 . S
C381 H349 0.929 . S
C381 C380 1.363 . S
C381 C382 1.385 . S
C382 H350 0.930 . S
C382 C381 1.385 . S
C382 C383 1.357 . S
C383 C382 1.357 . S
C383 C384 1.406 . S
C384 H351 0.929 . S
C384 C383 1.406 . S
C384 C385 1.391 . S
C385 H352 0.931 . S
C385 C380 1.370 . S
C385 C384 1.391 . S
C386 N360 1.435 . S
C386 C387 1.358 . S
C386 C391 1.371 . S
C387 H353 0.930 . S
C387 C386 1.358 . S
C387 C388 1.405 . S
C388 H354 0.932 . S
C388 C387 1.405 . S
C388 C389 1.383 . S
C389 C388 1.383 . S
C389 C390 1.393 . S
C390 H355 0.931 . S
C390 C389 1.393 . S
C390 C391 1.382 . S
C391 H356 0.929 . S
C391 C386 1.371 . S
C391 C390 1.382 . S
C392 N360 1.423 . S
C392 C393 1.362 . S
C392 C397 1.388 . S
C393 H357 0.929 . S
C393 C392 1.362 . S
C393 C394 1.376 . S
C394 H358 0.931 . S
C394 C393 1.376 . S
C394 C395 1.396 1_565 S
C395 C377 1.472 . S
C395 C394 1.396 1_545 S
C395 C396 1.348 1_545 S
C396 H359 0.929 1_565 S
C396 C395 1.348 1_565 S
C396 C397 1.443 . S
C397 H361 0.932 . S
C397 C392 1.388 . S
C397 C396 1.443 . S
H398 C425 0.929 . S
N399 C424 1.433 . S
N399 C430 1.435 . S
N399 C436 1.423 . S
H400 C426 0.930 . S
H401 C429 0.931 . S
H402 C428 0.929 . S
H403 C431 0.930 . S
H404 C432 0.932 . S
H405 C435 0.929 . S
H406 C434 0.931 . S
H407 C437 0.929 . S
H408 C441 0.932 . S
H409 C438 0.931 . S
H410 C440 0.929 . S
H411 C443 0.929 . S
H412 C444 0.930 . S
H413 C446 0.929 . S
H414 C447 0.931 . S
H415 C449 0.930 . S
H416 C450 0.932 . S
H417 C452 0.931 . S
H418 C453 0.929 . S
H419 C455 0.929 . S
H420 C456 0.931 . S
H421 C458 0.929 . S
N422 C442 1.433 . S
N422 C448 1.435 . S
N422 C454 1.423 . S
H423 C459 0.932 . S
C424 N399 1.433 . S
C424 C425 1.363 . S
C424 C429 1.370 . S
C425 H398 0.929 . S
C425 C424 1.363 . S
C425 C426 1.385 . S
C426 H400 0.930 . S
C426 C425 1.385 . S
C426 C427 1.357 . S
C427 C426 1.357 . S
C427 C428 1.406 . S
C428 H402 0.929 . S
C428 C427 1.406 . S
C428 C429 1.391 . S
C429 H401 0.931 . S
C429 C424 1.370 . S
C429 C428 1.391 . S
C430 N399 1.435 . S
C430 C431 1.358 . S
C430 C435 1.371 . S
C431 H403 0.930 . S
C431 C430 1.358 . S
C431 C432 1.405 . S
C432 H404 0.932 . S
C432 C431 1.405 . S
C432 C433 1.383 . S
C433 C432 1.383 . S
C433 C434 1.393 . S
C434 H406 0.931 . S
C434 C433 1.393 . S
C434 C435 1.382 . S
C435 H405 0.929 . S
C435 C430 1.371 . S
C435 C434 1.382 . S
C436 N399 1.423 . S
C436 C437 1.362 . S
C436 C441 1.388 . S
C437 H407 0.929 . S
C437 C436 1.362 . S
C437 C438 1.376 . S
C438 H409 0.931 . S
C438 C437 1.376 . S
C438 C439 1.396 . S
C439 C438 1.396 . S
C439 C440 1.348 . S
C439 C457 1.459 1_554 S
C440 H410 0.929 . S
C440 C439 1.348 . S
C440 C441 1.443 . S
C441 H408 0.932 . S
C441 C436 1.388 . S
C441 C440 1.443 . S
C442 N422 1.433 . S
C442 C443 1.363 . S
C442 C447 1.370 . S
C443 H411 0.929 . S
C443 C442 1.363 . S
C443 C444 1.385 . S
C444 H412 0.930 . S
C444 C443 1.385 . S
C444 C445 1.357 . S
C445 C444 1.357 . S
C445 C446 1.406 . S
C446 H413 0.929 . S
C446 C445 1.406 . S
C446 C447 1.391 . S
C447 H414 0.931 . S
C447 C442 1.370 . S
C447 C446 1.391 . S
C448 N422 1.435 . S
C448 C449 1.358 . S
C448 C453 1.371 . S
C449 H415 0.930 . S
C449 C448 1.358 . S
C449 C450 1.405 . S
C450 H416 0.932 . S
C450 C449 1.405 . S
C450 C451 1.383 . S
C451 C450 1.383 . S
C451 C452 1.393 . S
C452 H417 0.931 . S
C452 C451 1.393 . S
C452 C453 1.382 . S
C453 H418 0.929 . S
C453 C448 1.371 . S
C453 C452 1.382 . S
C454 N422 1.423 . S
C454 C455 1.362 . S
C454 C459 1.388 . S
C455 H419 0.929 . S
C455 C454 1.362 . S
C455 C456 1.376 . S
C456 H420 0.931 . S
C456 C455 1.376 . S
C456 C457 1.403 . S
C457 C439 1.459 1_556 S
C457 C456 1.403 . S
C457 C458 1.354 . S
C458 H421 0.929 . S
C458 C457 1.354 . S
C458 C459 1.443 . S
C459 H423 0.932 . S
C459 C454 1.388 . S
C459 C458 1.443 . S
C460 C461 1.363 . S
C460 C466 1.379 . S
C460 N468 1.356 . S
C461 C460 1.363 . S
C461 C467 1.363 . S
C462 C463 1.363 . S
C462 C467 1.379 . S
C462 N469 1.356 . S
C463 C462 1.363 . S
C463 C466 1.363 . S
N464 C466 1.356 . S
N464 H476 0.984 . S
N464 H477 0.985 . S
N465 C467 1.356 . S
N465 H470 0.984 . S
N465 H471 0.985 . S
C466 C460 1.379 . S
C466 C463 1.363 . S
C466 N464 1.356 . S
C467 C461 1.363 . S
C467 C462 1.379 . S
C467 N465 1.356 . S
N468 C460 1.356 . S
N468 H474 0.984 . S
N468 H475 0.984 . S
N469 C462 1.356 . S
N469 H472 0.984 . S
N469 H473 0.985 . S
H470 N465 0.984 . S
H471 N465 0.985 . S
H472 N469 0.984 . S
H473 N469 0.985 . S
H474 N468 0.984 . S
H475 N468 0.984 . S
H476 N464 0.984 . S
H477 N464 0.985 . S
C478 C479 1.363 . S
C478 C484 1.379 . S
C478 N486 1.356 . S
C479 C478 1.363 . S
C479 C485 1.363 . S
C480 C481 1.363 . S
C480 C485 1.379 . S
C480 N487 1.356 . S
C481 C480 1.363 . S
C481 C484 1.363 . S
N482 C484 1.356 . S
N482 H494 0.984 . S
N482 H495 0.985 . S
N483 C485 1.356 . S
N483 H488 0.984 . S
N483 H489 0.985 . S
C484 C478 1.379 . S
C484 C481 1.363 . S
C484 N482 1.356 . S
C485 C479 1.363 . S
C485 C480 1.379 . S
C485 N483 1.356 . S
N486 C478 1.356 . S
N486 H492 0.984 . S
N486 H493 0.984 . S
N487 C480 1.356 . S
N487 H490 0.984 . S
N487 H491 0.985 . S
H488 N483 0.984 . S
H489 N483 0.985 . S
H490 N487 0.984 . S
H491 N487 0.985 . S
H492 N486 0.984 . S
H493 N486 0.984 . S
H494 N482 0.984 . S
H495 N482 0.985 . S
C496 C497 1.363 . S
C496 C502 1.379 . S
C496 N504 1.356 . S
C497 C496 1.363 . S
C497 C503 1.363 . S
C498 C499 1.363 . S
C498 C503 1.379 . S
C498 N505 1.356 . S
C499 C498 1.363 . S
C499 C502 1.363 . S
N500 C502 1.356 . S
N500 H512 0.984 . S
N500 H513 0.985 . S
N501 C503 1.356 . S
N501 H506 0.984 . S
N501 H507 0.985 . S
C502 C496 1.379 . S
C502 C499 1.363 . S
C502 N500 1.356 . S
C503 C497 1.363 . S
C503 C498 1.379 . S
C503 N501 1.356 . S
N504 C496 1.356 . S
N504 H510 0.984 . S
N504 H511 0.984 . S
N505 C498 1.356 . S
N505 H508 0.984 . S
N505 H509 0.985 . S
H506 N501 0.984 . S
H507 N501 0.985 . S
H508 N505 0.984 . S
H509 N505 0.985 . S
H510 N504 0.984 . S
H511 N504 0.984 . S
H512 N500 0.984 . S
H513 N500 0.985 . S
C514 C515 1.363 . S
C514 C520 1.379 . S
C514 N522 1.356 . S
C515 C514 1.363 . S
C515 C521 1.363 . S
C516 C517 1.363 . S
C516 C521 1.379 . S
C516 N523 1.356 . S
C517 C516 1.363 . S
C517 C520 1.363 . S
N518 C520 1.356 . S
N518 H530 0.984 . S
N518 H531 0.985 . S
N519 C521 1.356 . S
N519 H524 0.984 . S
N519 H525 0.985 . S
C520 C514 1.379 . S
C520 C517 1.363 . S
C520 N518 1.356 . S
C521 C515 1.363 . S
C521 C516 1.379 . S
C521 N519 1.356 . S
N522 C514 1.356 . S
N522 H528 0.984 . S
N522 H529 0.984 . S
N523 C516 1.356 . S
N523 H526 0.984 . S
N523 H527 0.985 . S
H524 N519 0.984 . S
H525 N519 0.985 . S
H526 N523 0.984 . S
H527 N523 0.985 . S
H528 N522 0.984 . S
H529 N522 0.984 . S
H530 N518 0.984 . S
H531 N518 0.985 . S
C532 C533 1.363 . S
C532 C538 1.379 . S
C532 N540 1.356 . S
C533 C532 1.363 . S
C533 C539 1.363 . S
C534 C535 1.363 . S
C534 C539 1.379 . S
C534 N541 1.356 . S
C535 C534 1.363 . S
C535 C538 1.363 . S
N536 C538 1.356 . S
N536 H548 0.984 . S
N536 H549 0.985 . S
N537 C539 1.356 . S
N537 H542 0.984 . S
N537 H543 0.985 . S
C538 C532 1.379 . S
C538 C535 1.363 . S
C538 N536 1.356 . S
C539 C533 1.363 . S
C539 C534 1.379 . S
C539 N537 1.356 . S
N540 C532 1.356 . S
N540 H546 0.984 . S
N540 H547 0.984 . S
N541 C534 1.356 . S
N541 H544 0.984 . S
N541 H545 0.985 . S
H542 N537 0.984 . S
H543 N537 0.985 . S
H544 N541 0.984 . S
H545 N541 0.985 . S
H546 N540 0.984 . S
H547 N540 0.984 . S
H548 N536 0.984 . S
H549 N536 0.985 . S
C550 C551 1.363 . S
C550 C556 1.379 . S
C550 N558 1.356 . S
C551 C550 1.363 . S
C551 C557 1.363 . S
C552 C553 1.363 . S
C552 C557 1.379 . S
C552 N559 1.356 . S
C553 C552 1.363 . S
C553 C556 1.363 . S
N554 C556 1.356 . S
N554 H566 0.984 . S
N554 H567 0.985 . S
N555 C557 1.356 . S
N555 H560 0.984 . S
N555 H561 0.985 . S
C556 C550 1.379 . S
C556 C553 1.363 . S
C556 N554 1.356 . S
C557 C551 1.363 . S
C557 C552 1.379 . S
C557 N555 1.356 . S
N558 C550 1.356 . S
N558 H564 0.984 . S
N558 H565 0.984 . S
N559 C552 1.356 . S
N559 H562 0.984 . S
N559 H563 0.985 . S
H560 N555 0.984 . S
H561 N555 0.985 . S
H562 N559 0.984 . S
H563 N559 0.985 . S
H564 N558 0.984 . S
H565 N558 0.984 . S
H566 N554 0.984 . S
H567 N554 0.985 . S
C568 C569 1.363 . S
C568 C574 1.379 . S
C568 N576 1.356 . S
C569 C568 1.363 . S
C569 C575 1.363 . S
C570 C571 1.363 . S
C570 C575 1.379 . S
C570 N577 1.356 . S
C571 C570 1.363 . S
C571 C574 1.363 . S
N572 C574 1.356 . S
N572 H584 0.984 . S
N572 H585 0.985 . S
N573 C575 1.356 . S
N573 H578 0.984 . S
N573 H579 0.985 . S
C574 C568 1.379 . S
C574 C571 1.363 . S
C574 N572 1.356 . S
C575 C569 1.363 . S
C575 C570 1.379 . S
C575 N573 1.356 . S
N576 C568 1.356 . S
N576 H582 0.984 . S
N576 H583 0.984 . S
N577 C570 1.356 . S
N577 H580 0.984 . S
N577 H581 0.985 . S
H578 N573 0.984 . S
H579 N573 0.985 . S
H580 N577 0.984 . S
H581 N577 0.985 . S
H582 N576 0.984 . S
H583 N576 0.984 . S
H584 N572 0.984 . S
H585 N572 0.985 . S
C586 C587 1.363 . S
C586 C592 1.379 . S
C586 N594 1.356 . S
C587 C586 1.363 . S
C587 C593 1.363 . S
C588 C589 1.363 . S
C588 C593 1.379 . S
C588 N595 1.356 . S
C589 C588 1.363 . S
C589 C592 1.363 . S
N590 C592 1.356 . S
N590 H602 0.984 . S
N590 H603 0.985 . S
N591 C593 1.356 . S
N591 H596 0.984 . S
N591 H597 0.985 . S
C592 C586 1.379 . S
C592 C589 1.363 . S
C592 N590 1.356 . S
C593 C587 1.363 . S
C593 C588 1.379 . S
C593 N591 1.356 . S
N594 C586 1.356 . S
N594 H600 0.984 . S
N594 H601 0.984 . S
N595 C588 1.356 . S
N595 H598 0.984 . S
N595 H599 0.985 . S
H596 N591 0.984 . S
H597 N591 0.985 . S
H598 N595 0.984 . S
H599 N595 0.985 . S
H600 N594 0.984 . S
H601 N594 0.984 . S
H602 N590 0.984 . S
H603 N590 0.985 . S
C604 C605 1.363 . S
C604 C610 1.379 . S
C604 N612 1.356 . S
C605 C604 1.363 . S
C605 C611 1.363 . S
C606 C607 1.363 . S
C606 C611 1.379 . S
C606 N613 1.356 1_565 S
C607 C606 1.363 . S
C607 C610 1.363 . S
N608 C610 1.356 . S
N608 H620 0.984 . S
N608 H621 0.985 . S
N609 C611 1.356 . S
N609 H614 0.984 . S
N609 H615 0.985 . S
C610 C604 1.379 . S
C610 C607 1.363 . S
C610 N608 1.356 . S
C611 C605 1.363 . S
C611 C606 1.379 . S
C611 N609 1.356 . S
N612 C604 1.356 . S
N612 H618 0.984 . S
N612 H619 0.984 . S
N613 C606 1.356 1_545 S
N613 H616 0.984 . S
N613 H617 0.985 . S
H614 N609 0.984 . S
H615 N609 0.985 . S
H616 N613 0.984 . S
H617 N613 0.985 . S
H618 N612 0.984 . S
H619 N612 0.984 . S
H620 N608 0.984 . S
H621 N608 0.985 . S
C622 C623 1.363 . S
C622 C628 1.379 . S
C622 N630 1.356 . S
C623 C622 1.363 . S
C623 C629 1.363 . S
C624 C625 1.363 . S
C624 C629 1.379 . S
C624 N631 1.356 . S
C625 C624 1.363 . S
C625 C628 1.363 . S
N626 C628 1.356 . S
N626 H638 0.984 . S
N626 H639 0.985 . S
N627 C629 1.356 . S
N627 H632 0.984 . S
N627 H633 0.985 . S
C628 C622 1.379 . S
C628 C625 1.363 . S
C628 N626 1.356 . S
C629 C623 1.363 . S
C629 C624 1.379 . S
C629 N627 1.356 . S
N630 C622 1.356 . S
N630 H636 0.984 . S
N630 H637 0.984 . S
N631 C624 1.356 . S
N631 H634 0.984 . S
N631 H635 0.985 . S
H632 N627 0.984 . S
H633 N627 0.985 . S
H634 N631 0.984 . S
H635 N631 0.985 . S
H636 N630 0.984 . S
H637 N630 0.984 . S
H638 N626 0.984 . S
H639 N626 0.985 . S
C640 C641 1.363 . S
C640 C646 1.379 . S
C640 N648 1.356 . S
C641 C640 1.363 . S
C641 C647 1.363 . S
C642 C643 1.363 . S
C642 C647 1.379 . S
C642 N649 1.356 . S
C643 C642 1.363 . S
C643 C646 1.363 . S
N644 C646 1.356 . S
N644 H656 0.984 . S
N644 H657 0.985 . S
N645 C647 1.356 . S
N645 H650 0.984 . S
N645 H651 0.985 . S
C646 C640 1.379 . S
C646 C643 1.363 . S
C646 N644 1.356 . S
C647 C641 1.363 . S
C647 C642 1.379 . S
C647 N645 1.356 . S
N648 C640 1.356 . S
N648 H654 0.984 . S
N648 H655 0.984 . S
N649 C642 1.356 . S
N649 H652 0.984 . S
N649 H653 0.985 . S
H650 N645 0.984 . S
H651 N645 0.985 . S
H652 N649 0.984 . S
H653 N649 0.985 . S
H654 N648 0.984 . S
H655 N648 0.984 . S
H656 N644 0.984 . S
H657 N644 0.985 . S
C658 C659 1.363 . S
C658 C664 1.379 . S
C658 N666 1.356 . S
C659 C658 1.363 . S
C659 C665 1.363 . S
C660 C661 1.363 . S
C660 C665 1.379 . S
C660 N667 1.356 . S
C661 C660 1.363 . S
C661 C664 1.363 . S
N662 C664 1.356 . S
N662 H674 0.984 . S
N662 H675 0.985 . S
N663 C665 1.356 . S
N663 H668 0.984 . S
N663 H669 0.985 . S
C664 C658 1.379 . S
C664 C661 1.363 . S
C664 N662 1.356 . S
C665 C659 1.363 . S
C665 C660 1.379 . S
C665 N663 1.356 . S
N666 C658 1.356 . S
N666 H672 0.984 . S
N666 H673 0.984 . S
N667 C660 1.356 . S
N667 H670 0.984 . S
N667 H671 0.985 . S
H668 N663 0.984 . S
H669 N663 0.985 . S
H670 N667 0.984 . S
H671 N667 0.985 . S
H672 N666 0.984 . S
H673 N666 0.984 . S
H674 N662 0.984 . S
H675 N662 0.985 . S
C676 C677 1.363 . S
C676 C682 1.379 . S
C676 N684 1.356 . S
C677 C676 1.363 . S
C677 C683 1.363 . S
C678 C679 1.363 . S
C678 C683 1.379 . S
C678 N685 1.356 . S
C679 C678 1.363 . S
C679 C682 1.363 . S
N680 C682 1.356 . S
N680 H692 0.984 . S
N680 H693 0.985 . S
N681 C683 1.356 . S
N681 H686 0.984 . S
N681 H687 0.985 . S
C682 C676 1.379 . S
C682 C679 1.363 . S
C682 N680 1.356 . S
C683 C677 1.363 . S
C683 C678 1.379 . S
C683 N681 1.356 . S
N684 C676 1.356 . S
N684 H690 0.984 . S
N684 H691 0.984 . S
N685 C678 1.356 . S
N685 H688 0.984 . S
N685 H689 0.985 . S
H686 N681 0.984 . S
H687 N681 0.985 . S
H688 N685 0.984 . S
H689 N685 0.985 . S
H690 N684 0.984 . S
H691 N684 0.984 . S
H692 N680 0.984 . S
H693 N680 0.985 . S
C694 C695 1.363 . S
C694 C700 1.379 . S
C694 N702 1.356 . S
C695 C694 1.363 . S
C695 C701 1.363 . S
C696 C697 1.363 . S
C696 C701 1.379 . S
C696 N703 1.356 . S
C697 C696 1.363 . S
C697 C700 1.363 . S
N698 C700 1.356 . S
N698 H710 0.984 . S
N698 H711 0.985 . S
N699 C701 1.356 . S
N699 H704 0.984 . S
N699 H705 0.985 . S
C700 C694 1.379 . S
C700 C697 1.363 . S
C700 N698 1.356 . S
C701 C695 1.363 . S
C701 C696 1.379 . S
C701 N699 1.356 . S
N702 C694 1.356 . S
N702 H708 0.984 . S
N702 H709 0.984 . S
N703 C696 1.356 . S
N703 H706 0.984 . S
N703 H707 0.985 . S
H704 N699 0.984 . S
H705 N699 0.985 . S
H706 N703 0.984 . S
H707 N703 0.985 . S
H708 N702 0.984 . S
H709 N702 0.984 . S
H710 N698 0.984 . S
H711 N698 0.985 . S
C712 C713 1.363 . S
C712 C718 1.379 . S
C712 N720 1.356 . S
C713 C712 1.363 . S
C713 C719 1.363 . S
C714 C715 1.363 . S
C714 C719 1.379 . S
C714 N721 1.356 . S
C715 C714 1.363 . S
C715 C718 1.363 . S
N716 C718 1.356 . S
N716 H728 0.984 . S
N716 H729 0.985 . S
N717 C719 1.356 . S
N717 H722 0.984 . S
N717 H723 0.985 . S
C718 C712 1.379 . S
C718 C715 1.363 . S
C718 N716 1.356 . S
C719 C713 1.363 . S
C719 C714 1.379 . S
C719 N717 1.356 . S
N720 C712 1.356 . S
N720 H726 0.984 . S
N720 H727 0.984 . S
N721 C714 1.356 . S
N721 H724 0.984 . S
N721 H725 0.985 . S
H722 N717 0.984 . S
H723 N717 0.985 . S
H724 N721 0.984 . S
H725 N721 0.985 . S
H726 N720 0.984 . S
H727 N720 0.984 . S
H728 N716 0.984 . S
H729 N716 0.985 . S
C730 C731 1.363 . S
C730 C736 1.379 . S
C730 N738 1.356 . S
C731 C730 1.363 . S
C731 C737 1.363 . S
C732 C733 1.363 . S
C732 C737 1.379 . S
C732 N739 1.356 . S
C733 C732 1.363 . S
C733 C736 1.363 . S
N734 C736 1.356 . S
N734 H746 0.984 . S
N734 H747 0.985 . S
N735 C737 1.356 . S
N735 H740 0.984 . S
N735 H741 0.985 . S
C736 C730 1.379 . S
C736 C733 1.363 . S
C736 N734 1.356 . S
C737 C731 1.363 . S
C737 C732 1.379 . S
C737 N735 1.356 . S
N738 C730 1.356 . S
N738 H744 0.984 . S
N738 H745 0.984 . S
N739 C732 1.356 . S
N739 H742 0.984 . S
N739 H743 0.985 . S
H740 N735 0.984 . S
H741 N735 0.985 . S
H742 N739 0.984 . S
H743 N739 0.985 . S
H744 N738 0.984 . S
H745 N738 0.984 . S
H746 N734 0.984 . S
H747 N734 0.985 . S
C748 C749 1.363 . S
C748 C754 1.379 . S
C748 N756 1.356 . S
C749 C748 1.363 . S
C749 C755 1.363 . S
C750 C751 1.363 . S
C750 C755 1.379 . S
C750 N757 1.356 . S
C751 C750 1.363 . S
C751 C754 1.363 . S
N752 C754 1.356 . S
N752 H764 0.984 . S
N752 H765 0.985 . S
N753 C755 1.356 . S
N753 H758 0.984 . S
N753 H759 0.985 . S
C754 C748 1.379 . S
C754 C751 1.363 . S
C754 N752 1.356 . S
C755 C749 1.363 . S
C755 C750 1.379 . S
C755 N753 1.356 . S
N756 C748 1.356 . S
N756 H762 0.984 . S
N756 H763 0.984 . S
N757 C750 1.356 . S
N757 H760 0.984 . S
N757 H761 0.985 . S
H758 N753 0.984 . S
H759 N753 0.985 . S
H760 N757 0.984 . S
H761 N757 0.985 . S
H762 N756 0.984 . S
H763 N756 0.984 . S
H764 N752 0.984 . S
H765 N752 0.985 . S
C766 C767 1.363 . S
C766 C772 1.379 . S
C766 N774 1.356 . S
C767 C766 1.363 . S
C767 C773 1.363 . S
C768 C769 1.363 . S
C768 C773 1.379 . S
C768 N775 1.356 . S
C769 C768 1.363 . S
C769 C772 1.363 . S
N770 C772 1.356 . S
N770 H782 0.984 . S
N770 H783 0.985 . S
N771 C773 1.356 . S
N771 H776 0.984 . S
N771 H777 0.985 . S
C772 C766 1.379 . S
C772 C769 1.363 . S
C772 N770 1.356 . S
C773 C767 1.363 . S
C773 C768 1.379 . S
C773 N771 1.356 . S
N774 C766 1.356 . S
N774 H780 0.984 . S
N774 H781 0.984 . S
N775 C768 1.356 . S
N775 H778 0.984 . S
N775 H779 0.985 . S
H776 N771 0.984 . S
H777 N771 0.985 . S
H778 N775 0.984 . S
H779 N775 0.985 . S
H780 N774 0.984 . S
H781 N774 0.984 . S
H782 N770 0.984 . S
H783 N770 0.985 . S
C784 C785 1.363 . S
C784 C790 1.379 . S
C784 N792 1.356 . S
C785 C784 1.363 . S
C785 C791 1.363 . S
C786 C787 1.363 . S
C786 C791 1.379 . S
C786 N793 1.356 . S
C787 C786 1.363 . S
C787 C790 1.363 . S
N788 C790 1.356 . S
N788 H800 0.984 . S
N788 H801 0.985 . S
N789 C791 1.356 . S
N789 H794 0.984 . S
N789 H795 0.985 . S
C790 C784 1.379 . S
C790 C787 1.363 . S
C790 N788 1.356 . S
C791 C785 1.363 . S
C791 C786 1.379 . S
C791 N789 1.356 . S
N792 C784 1.356 . S
N792 H798 0.984 . S
N792 H799 0.984 . S
N793 C786 1.356 . S
N793 H796 0.984 . S
N793 H797 0.985 . S
H794 N789 0.984 . S
H795 N789 0.985 . S
H796 N793 0.984 . S
H797 N793 0.985 . S
H798 N792 0.984 . S
H799 N792 0.984 . S
H800 N788 0.984 . S
H801 N788 0.985 . S
C802 C803 1.363 . S
C802 C808 1.379 . S
C802 N810 1.356 . S
C803 C802 1.363 . S
C803 C809 1.363 . S
C804 C805 1.363 . S
C804 C809 1.379 . S
C804 N811 1.356 . S
C805 C804 1.363 . S
C805 C808 1.363 . S
N806 C808 1.356 . S
N806 H818 0.984 . S
N806 H819 0.985 . S
N807 C809 1.356 . S
N807 H812 0.984 . S
N807 H813 0.985 . S
C808 C802 1.379 . S
C808 C805 1.363 . S
C808 N806 1.356 . S
C809 C803 1.363 . S
C809 C804 1.379 . S
C809 N807 1.356 . S
N810 C802 1.356 . S
N810 H816 0.984 . S
N810 H817 0.984 . S
N811 C804 1.356 . S
N811 H814 0.984 . S
N811 H815 0.985 . S
H812 N807 0.984 . S
H813 N807 0.985 . S
H814 N811 0.984 . S
H815 N811 0.985 . S
H816 N810 0.984 . S
H817 N810 0.984 . S
H818 N806 0.984 . S
H819 N806 0.985 . S
C820 C821 1.363 . S
C820 C826 1.379 . S
C820 N828 1.356 . S
C821 C820 1.363 . S
C821 C827 1.363 . S
C822 C823 1.363 . S
C822 C827 1.379 . S
C822 N829 1.356 . S
C823 C822 1.363 . S
C823 C826 1.363 . S
N824 C826 1.356 . S
N824 H836 0.984 . S
N824 H837 0.985 . S
N825 C827 1.356 . S
N825 H830 0.984 . S
N825 H831 0.985 . S
C826 C820 1.379 . S
C826 C823 1.363 . S
C826 N824 1.356 . S
C827 C821 1.363 . S
C827 C822 1.379 . S
C827 N825 1.356 . S
N828 C820 1.356 . S
N828 H834 0.984 . S
N828 H835 0.984 . S
N829 C822 1.356 . S
N829 H832 0.984 . S
N829 H833 0.985 . S
H830 N825 0.984 . S
H831 N825 0.985 . S
H832 N829 0.984 . S
H833 N829 0.985 . S
H834 N828 0.984 . S
H835 N828 0.984 . S
H836 N824 0.984 . S
H837 N824 0.985 . S
C838 C839 1.363 . S
C838 C844 1.379 . S
C838 N846 1.356 . S
C839 C838 1.363 . S
C839 C845 1.363 . S
C840 C841 1.363 . S
C840 C845 1.379 . S
C840 N847 1.356 . S
C841 C840 1.363 . S
C841 C844 1.363 . S
N842 C844 1.356 . S
N842 H854 0.984 . S
N842 H855 0.985 . S
N843 C845 1.356 . S
N843 H848 0.984 . S
N843 H849 0.985 . S
C844 C838 1.379 . S
C844 C841 1.363 . S
C844 N842 1.356 . S
C845 C839 1.363 . S
C845 C840 1.379 . S
C845 N843 1.356 . S
N846 C838 1.356 . S
N846 H852 0.984 . S
N846 H853 0.984 . S
N847 C840 1.356 . S
N847 H850 0.984 . S
N847 H851 0.985 . S
H848 N843 0.984 . S
H849 N843 0.985 . S
H850 N847 0.984 . S
H851 N847 0.985 . S
H852 N846 0.984 . S
H853 N846 0.984 . S
H854 N842 0.984 . S
H855 N842 0.985 . S
C856 C857 1.363 . S
C856 C862 1.379 . S
C856 N864 1.356 . S
C857 C856 1.363 . S
C857 C863 1.363 . S
C858 C859 1.363 . S
C858 C863 1.379 . S
C858 N865 1.356 . S
C859 C858 1.363 . S
C859 C862 1.363 . S
N860 C862 1.356 . S
N860 H872 0.984 . S
N860 H873 0.985 . S
N861 C863 1.356 . S
N861 H866 0.984 . S
N861 H867 0.985 . S
C862 C856 1.379 . S
C862 C859 1.363 . S
C862 N860 1.356 . S
C863 C857 1.363 . S
C863 C858 1.379 . S
C863 N861 1.356 . S
N864 C856 1.356 . S
N864 H870 0.984 . S
N864 H871 0.984 . S
N865 C858 1.356 . S
N865 H868 0.984 . S
N865 H869 0.985 . S
H866 N861 0.984 . S
H867 N861 0.985 . S
H868 N865 0.984 . S
H869 N865 0.985 . S
H870 N864 0.984 . S
H871 N864 0.984 . S
H872 N860 0.984 . S
H873 N860 0.985 . S
C874 C875 1.363 . S
C874 C880 1.379 . S
C874 N882 1.356 . S
C875 C874 1.363 . S
C875 C881 1.363 . S
C876 C877 1.363 . S
C876 C881 1.379 . S
C876 N883 1.356 . S
C877 C876 1.363 . S
C877 C880 1.363 . S
N878 C880 1.356 . S
N878 H890 0.984 . S
N878 H891 0.985 . S
N879 C881 1.356 . S
N879 H884 0.984 . S
N879 H885 0.985 . S
C880 C874 1.379 . S
C880 C877 1.363 . S
C880 N878 1.356 . S
C881 C875 1.363 . S
C881 C876 1.379 . S
C881 N879 1.356 . S
N882 C874 1.356 . S
N882 H888 0.984 . S
N882 H889 0.984 . S
N883 C876 1.356 . S
N883 H886 0.984 . S
N883 H887 0.985 . S
H884 N879 0.984 . S
H885 N879 0.985 . S
H886 N883 0.984 . S
H887 N883 0.985 . S
H888 N882 0.984 . S
H889 N882 0.984 . S
H890 N878 0.984 . S
H891 N878 0.985 . S
C463 C123 1.502 . S
C461 C5 1.421 . S
C481 C203 1.683 . S
C479 C16 1.495 . S
C499 C135 1.610 . S
C497 C30 1.727 . S
C517 C179 1.825 . S
C515 C40 2.007 . S
C535 C247 1.343 . S
C533 C8 1.383 . S
C553 C327 1.457 . S
C551 C18 1.402 . S
C569 C29 1.842 . S
C571 C389 1.843 . S
C589 C445 1.553 . S
C587 C38 1.371 . S
C607 C259 1.383 1_565 S
C605 C19 1.534 . S
C623 C27 1.554 . S
C625 C303 1.530 . S
C643 C365 1.725 . S
C641 C41 1.908 . S
C661 C433 1.436 . S
C659 C7 1.475 . S
C677 C52 1.908 . S
C679 C197 1.725 . S
C697 C117 1.533 . S
C695 C62 1.586 . S
C713 C74 1.612 . S
C715 C185 1.541 . S
C731 C82 1.136 . S
C733 C141 1.364 . S
C751 C383 1.944 . S
C749 C51 2.002 . S
C769 C427 1.564 . S
C767 C60 1.466 . S
C787 C241 1.443 . S
C785 C71 1.235 . S
C803 C84 1.385 . S
C805 C309 1.393 . S
C823 C371 1.723 . S
C821 C63 1.771 . S
C841 C451 1.493 . S
C839 C73 1.451 . S
C859 C265 1.409 . S
C857 C85 1.499 . S
C875 C49 1.382 . S
C877 C321 1.569 . S
