# Generated by pormake.
# Topology pyr, (3,6)-cn, num edge types: 1
# Building blocks:
#     Node 0, Type 0, BuildingBlock: VETTIZ_charged_linker_0, # of connection points: 3
#     Node 1, Type 0, BuildingBlock: VETTIZ_charged_linker_0, # of connection points: 3
#     Node 2, Type 0, BuildingBlock: VETTIZ_charged_linker_0, # of connection points: 3
#     Node 3, Type 0, BuildingBlock: VETTIZ_charged_linker_0, # of connection points: 3
#     Node 4, Type 0, BuildingBlock: VETTIZ_charged_linker_0, # of connection points: 3
#     Node 5, Type 0, BuildingBlock: VETTIZ_charged_linker_0, # of connection points: 3
#     Node 6, Type 0, BuildingBlock: VETTIZ_charged_linker_0, # of connection points: 3
#     Node 7, Type 0, BuildingBlock: VETTIZ_charged_linker_0, # of connection points: 3
#     Node 8, Type 1, BuildingBlock: LEVNOQ01_clean_sbu_1, # of connection points: 6
#     Node 9, Type 1, BuildingBlock: LEVNOQ01_clean_sbu_1, # of connection points: 6
#     Node 10, Type 1, BuildingBlock: LEVNOQ01_clean_sbu_1, # of connection points: 6
#     Node 11, Type 1, BuildingBlock: LEVNOQ01_clean_sbu_1, # of connection points: 6
#     Edge 12, Type (0, 1), BuildingBlock: ZUJKAS_clean_linker_0, # of connection points: 2
#     Edge 13, Type (0, 1), BuildingBlock: ZUJKAS_clean_linker_0, # of connection points: 2
#     Edge 14, Type (0, 1), BuildingBlock: ZUJKAS_clean_linker_0, # of connection points: 2
#     Edge 15, Type (0, 1), BuildingBlock: ZUJKAS_clean_linker_0, # of connection points: 2
#     Edge 16, Type (0, 1), BuildingBlock: ZUJKAS_clean_linker_0, # of connection points: 2
#     Edge 17, Type (0, 1), BuildingBlock: ZUJKAS_clean_linker_0, # of connection points: 2
#     Edge 18, Type (0, 1), BuildingBlock: ZUJKAS_clean_linker_0, # of connection points: 2
#     Edge 19, Type (0, 1), BuildingBlock: ZUJKAS_clean_linker_0, # of connection points: 2
#     Edge 20, Type (0, 1), BuildingBlock: ZUJKAS_clean_linker_0, # of connection points: 2
#     Edge 21, Type (0, 1), BuildingBlock: ZUJKAS_clean_linker_0, # of connection points: 2
#     Edge 22, Type (0, 1), BuildingBlock: ZUJKAS_clean_linker_0, # of connection points: 2
#     Edge 23, Type (0, 1), BuildingBlock: ZUJKAS_clean_linker_0, # of connection points: 2
#     Edge 24, Type (0, 1), BuildingBlock: ZUJKAS_clean_linker_0, # of connection points: 2
#     Edge 25, Type (0, 1), BuildingBlock: ZUJKAS_clean_linker_0, # of connection points: 2
#     Edge 26, Type (0, 1), BuildingBlock: ZUJKAS_clean_linker_0, # of connection points: 2
#     Edge 27, Type (0, 1), BuildingBlock: ZUJKAS_clean_linker_0, # of connection points: 2
#     Edge 28, Type (0, 1), BuildingBlock: ZUJKAS_clean_linker_0, # of connection points: 2
#     Edge 29, Type (0, 1), BuildingBlock: ZUJKAS_clean_linker_0, # of connection points: 2
#     Edge 30, Type (0, 1), BuildingBlock: ZUJKAS_clean_linker_0, # of connection points: 2
#     Edge 31, Type (0, 1), BuildingBlock: ZUJKAS_clean_linker_0, # of connection points: 2
#     Edge 32, Type (0, 1), BuildingBlock: ZUJKAS_clean_linker_0, # of connection points: 2
#     Edge 33, Type (0, 1), BuildingBlock: ZUJKAS_clean_linker_0, # of connection points: 2
#     Edge 34, Type (0, 1), BuildingBlock: ZUJKAS_clean_linker_0, # of connection points: 2
#     Edge 35, Type (0, 1), BuildingBlock: ZUJKAS_clean_linker_0, # of connection points: 2
# Relax obj value: 0.035
# Max RMSD: 0.111
# Mean RMSD: 0.047
data_MOF--net-pry--node1-LEVNOQ01_clean_sbu_1--node2-VETTIZ_charged_linker_0--edge1-ZUJKAS_clean_linker_0
_symmetry_space_group_name_H-M    P1
_symmetry_Int_Tables_number       1
_symmetry_cell_setting            triclinic
loop_
_symmetry_equiv_pos_as_xyz
'x, y, z'
_cell_length_a     56.602343
_cell_length_b     54.880168
_cell_length_c     54.933997
_cell_angle_alpha  92.089554
_cell_angle_beta   91.099958
_cell_angle_gamma 93.830793
loop_
_atom_site_label
_atom_site_type_symbol
_atom_site_fract_x
_atom_site_fract_y
_atom_site_fract_z
_atom_type_partial_charge
C0 C 0.12075 0.09514 0.20155 0.0
C1 C 0.10054 0.10242 0.21359 0.0
C2 C 0.08714 0.1203 0.20326 0.0
C3 C 0.11497 0.12463 0.17026 0.0
C4 C 0.12743 0.10622 0.17982 0.0
C5 C 0.14823 0.10039 0.16445 0.0
H6 H 0.22131 0.12841 0.0716 0.0
C7 C 0.12751 0.13347 0.14842 0.0
C8 C 0.14698 0.11921 0.14488 0.0
H9 H 0.22395 0.06861 0.12047 0.0
H10 H 0.18871 0.0809 0.13999 0.0
H11 H 0.20712 0.16877 0.11129 0.0
H12 H 0.16325 0.12154 0.06199 0.0
H13 H 0.15304 0.15113 0.06158 0.0
H14 H 0.1826 0.14618 0.05177 0.0
H15 H 0.20541 0.17376 0.07921 0.0
H16 H 0.18446 0.18585 0.10002 0.0
C17 C 0.17103 0.10461 0.18052 0.0
C18 C 0.14364 0.07395 0.15367 0.0
C19 C 0.10051 0.20839 0.10603 0.0
C20 C 0.11023 0.2226 0.08737 0.0
C21 C 0.13062 0.215 0.07571 0.0
C22 C 0.14133 0.19387 0.08264 0.0
C23 C 0.13185 0.18022 0.10176 0.0
C24 C 0.11171 0.18752 0.11307 0.0
C25 C 0.10474 0.17141 0.13375 0.0
C26 C 0.12389 0.15321 0.13292 0.0
C27 C 0.13973 0.15839 0.11406 0.0
C28 C 0.10623 0.18743 0.15762 0.0
C29 C 0.07988 0.15886 0.12778 0.0
C30 C 0.21425 0.11802 0.08653 0.0
C31 C 0.22552 0.09744 0.09446 0.0
C32 C 0.21556 0.08432 0.11379 0.0
C33 C 0.19508 0.09156 0.1252 0.0
C34 C 0.1841 0.11216 0.11724 0.0
C35 C 0.19347 0.12484 0.09797 0.0
C36 C 0.17887 0.14588 0.09165 0.0
C37 C 0.15933 0.14372 0.11033 0.0
C38 C 0.1627 0.12406 0.12545 0.0
C39 C 0.19467 0.16991 0.09552 0.0
C40 C 0.16895 0.1412 0.06532 0.0
H41 H 0.08355 0.1453 0.17504 0.0
H42 H 0.13114 0.08116 0.20895 0.0
H43 H 0.12436 0.06917 0.15065 0.0
H44 H 0.15136 0.07142 0.13549 0.0
H45 H 0.15051 0.06042 0.1661 0.0
H46 H 0.1702 0.12125 0.19258 0.0
H47 H 0.17333 0.08889 0.19232 0.0
H48 H 0.18719 0.10784 0.16988 0.0
H49 H 0.085 0.21387 0.1155 0.0
H50 H 0.13831 0.22549 0.06115 0.0
H51 H 0.1568 0.18915 0.07302 0.0
H52 H 0.12178 0.20096 0.15757 0.0
H53 H 0.09013 0.19775 0.15978 0.0
H54 H 0.10883 0.17689 0.17405 0.0
H55 H 0.07757 0.1546 0.10789 0.0
H56 H 0.07696 0.14107 0.13641 0.0
H57 H 0.0657 0.17084 0.13331 0.0
H58 H 0.07146 0.12606 0.21224 0.0
C59 C 0.09427 0.1315 0.18175 0.0
C60 C 0.29726 0.89276 0.57824 0.0
C61 C 0.28491 0.91187 0.58847 0.0
C62 C 0.29458 0.92516 0.60916 0.0
C63 C 0.32772 0.89947 0.61001 0.0
C64 C 0.31848 0.88677 0.58939 0.0
C65 C 0.33299 0.86584 0.58199 0.0
H66 H 0.42625 0.79856 0.60495 0.0
C67 C 0.34926 0.88787 0.61787 0.0
C68 C 0.35249 0.8682 0.60147 0.0
H69 H 0.37269 0.78616 0.54777 0.0
H70 H 0.35447 0.8227 0.56108 0.0
H71 H 0.43469 0.85533 0.6013 0.0
H72 H 0.38963 0.8103 0.64576 0.0
H73 H 0.40124 0.83472 0.66476 0.0
H74 H 0.4211 0.81444 0.65058 0.0
H75 H 0.44574 0.84098 0.62762 0.0
H76 H 0.43439 0.87095 0.62974 0.0
C77 C 0.34274 0.87054 0.55633 0.0
C78 C 0.31726 0.84173 0.58367 0.0
C79 C 0.3937 0.9179 0.69582 0.0
C80 C 0.41385 0.91005 0.70786 0.0
C81 C 0.42603 0.89099 0.69711 0.0
C82 C 0.41803 0.87958 0.67504 0.0
C83 C 0.39755 0.88719 0.66355 0.0
C84 C 0.38594 0.90628 0.67371 0.0
C85 C 0.36464 0.91199 0.65865 0.0
C86 C 0.36517 0.89282 0.63804 0.0
C87 C 0.38444 0.87836 0.64116 0.0
C88 C 0.36899 0.93822 0.64944 0.0
C89 C 0.34238 0.90811 0.67442 0.0
C90 C 0.41054 0.8036 0.59531 0.0
C91 C 0.40092 0.78939 0.5753 0.0
C92 C 0.38067 0.79694 0.56305 0.0
C93 C 0.36998 0.81806 0.57095 0.0
C94 C 0.37948 0.83166 0.59143 0.0
C95 C 0.39947 0.82435 0.60316 0.0
C96 C 0.40666 0.8403 0.62515 0.0
C97 C 0.38777 0.85857 0.62462 0.0
C98 C 0.37189 0.85348 0.60488 0.0
C99 C 0.43172 0.85248 0.62099 0.0
C100 C 0.40479 0.82427 0.64784 0.0
H101 H 0.32231 0.92985 0.6357 0.0
H102 H 0.29008 0.88208 0.56251 0.0
H103 H 0.30432 0.84312 0.59857 0.0
H104 H 0.32746 0.82599 0.58825 0.0
H105 H 0.30704 0.83732 0.56643 0.0
H106 H 0.3484 0.89021 0.55462 0.0
H107 H 0.32901 0.86553 0.54197 0.0
H108 H 0.35865 0.86065 0.55237 0.0
H109 H 0.38387 0.93242 0.70364 0.0
H110 H 0.44189 0.88496 0.70572 0.0
H111 H 0.42805 0.86513 0.66791 0.0
H112 H 0.38795 0.94209 0.64505 0.0
H113 H 0.36433 0.95207 0.66347 0.0
H114 H 0.35916 0.94108 0.63233 0.0
H115 H 0.34408 0.89249 0.68654 0.0
H116 H 0.32604 0.90331 0.66353 0.0
H117 H 0.33979 0.92458 0.68616 0.0
H118 H 0.28542 0.9401 0.61716 0.0
C119 C 0.31598 0.91918 0.61987 0.0
C120 C 0.60943 0.30852 0.90754 0.0
C121 C 0.58924 0.29456 0.89846 0.0
C122 C 0.57742 0.30198 0.87744 0.0
C123 C 0.60591 0.33647 0.87478 0.0
C124 C 0.6176 0.32913 0.89525 0.0
C125 C 0.63967 0.34505 0.90146 0.0
H126 H 0.7132 0.44224 0.87531 0.0
C127 C 0.61901 0.35842 0.86625 0.0
C128 C 0.63885 0.36353 0.88167 0.0
H129 H 0.71962 0.39233 0.93377 0.0
H130 H 0.6833 0.36998 0.92038 0.0
H131 H 0.6601 0.44927 0.88209 0.0
H132 H 0.69489 0.40109 0.83319 0.0
H133 H 0.67256 0.41438 0.81648 0.0
H134 H 0.69618 0.43369 0.83083 0.0
H135 H 0.67227 0.45962 0.8541 0.0
H136 H 0.64224 0.44644 0.8556 0.0
C137 C 0.63697 0.35695 0.9272 0.0
C138 C 0.66119 0.32913 0.89891 0.0
C139 C 0.58811 0.4007 0.79309 0.0
C140 C 0.59641 0.42158 0.78114 0.0
C141 C 0.61654 0.43562 0.79035 0.0
C142 C 0.62886 0.42836 0.81083 0.0
C143 C 0.6208 0.40696 0.82219 0.0
C144 C 0.60051 0.39379 0.81358 0.0
C145 C 0.59444 0.37173 0.82812 0.0
C146 C 0.61453 0.3738 0.84683 0.0
C147 C 0.62999 0.39427 0.84306 0.0
C148 C 0.5701 0.37497 0.83986 0.0
C149 C 0.59535 0.34863 0.81109 0.0
C150 C 0.7067 0.42642 0.88507 0.0
C151 C 0.71895 0.41893 0.90556 0.0
C152 C 0.7101 0.39846 0.91807 0.0
C153 C 0.68914 0.38548 0.9102 0.0
C154 C 0.67691 0.39322 0.88974 0.0
C155 C 0.68565 0.41342 0.8776 0.0
C156 C 0.66984 0.4194 0.85675 0.0
C157 C 0.6504 0.39917 0.85815 0.0
C158 C 0.65472 0.38389 0.8774 0.0
C159 C 0.66068 0.44504 0.86215 0.0
C160 C 0.68399 0.41722 0.83297 0.0
H161 H 0.57602 0.32736 0.84955 0.0
H162 H 0.61896 0.30334 0.92363 0.0
H163 H 0.65816 0.31514 0.88379 0.0
H164 H 0.67762 0.33972 0.89415 0.0
H165 H 0.66442 0.31932 0.91586 0.0
H166 H 0.61822 0.36083 0.93046 0.0
H167 H 0.64255 0.34472 0.9416 0.0
H168 H 0.64697 0.37488 0.92973 0.0
H169 H 0.57263 0.38967 0.78627 0.0
H170 H 0.62333 0.45163 0.78108 0.0
H171 H 0.64443 0.43939 0.81665 0.0
H172 H 0.56832 0.39441 0.84559 0.0
H173 H 0.55535 0.36942 0.82678 0.0
H174 H 0.56758 0.36479 0.85667 0.0
H175 H 0.60855 0.35158 0.79655 0.0
H176 H 0.60117 0.33264 0.82069 0.0
H177 H 0.57789 0.34373 0.802 0.0
H178 H 0.56225 0.2912 0.86959 0.0
C179 C 0.58561 0.32288 0.86561 0.0
C180 C 0.91488 0.68087 0.4125 0.0
C181 C 0.9072 0.69337 0.43362 0.0
C182 C 0.88882 0.68162 0.44696 0.0
C183 C 0.88507 0.64767 0.41745 0.0
C184 C 0.90398 0.65802 0.40515 0.0
C185 C 0.91088 0.64185 0.38403 0.0
H186 H 0.87976 0.54865 0.30424 0.0
C187 C 0.8767 0.62468 0.40429 0.0
C188 C 0.89179 0.62103 0.38475 0.0
H189 H 0.94512 0.59487 0.30764 0.0
H190 H 0.93293 0.61405 0.34473 0.0
H191 H 0.88558 0.53709 0.36361 0.0
H192 H 0.84431 0.58475 0.32201 0.0
H193 H 0.82602 0.57236 0.34458 0.0
H194 H 0.83768 0.5523 0.32176 0.0
H195 H 0.86106 0.52588 0.34421 0.0
H196 H 0.85691 0.53597 0.37538 0.0
C197 C 0.93585 0.6331 0.38965 0.0
C198 C 0.90927 0.6563 0.36045 0.0
C199 C 0.80082 0.5795 0.43008 0.0
C200 C 0.78703 0.55922 0.42012 0.0
C201 C 0.79473 0.54699 0.39901 0.0
C202 C 0.81587 0.55494 0.38796 0.0
C203 C 0.82933 0.57548 0.39801 0.0
C204 C 0.82169 0.58734 0.41873 0.0
C205 C 0.83771 0.60925 0.4265 0.0
C206 C 0.85652 0.6084 0.4073 0.0
C207 C 0.85151 0.58866 0.3906 0.0
C208 C 0.8479 0.60511 0.45232 0.0
C209 C 0.82329 0.63221 0.42468 0.0
C210 C 0.89185 0.56253 0.31295 0.0
C211 C 0.91309 0.57078 0.30192 0.0
C212 C 0.92806 0.58886 0.31463 0.0
C213 C 0.92114 0.59987 0.33649 0.0
C214 C 0.89934 0.59233 0.34637 0.0
C215 C 0.88566 0.57316 0.3353 0.0
C216 C 0.8642 0.56601 0.34984 0.0
C217 C 0.86674 0.58492 0.37078 0.0
C218 C 0.88714 0.60059 0.36834 0.0
C219 C 0.86681 0.53981 0.35867 0.0
C220 C 0.84178 0.56879 0.33382 0.0
H221 H 0.86339 0.65182 0.44955 0.0
H222 H 0.92884 0.68851 0.40141 0.0
H223 H 0.89242 0.6656 0.35969 0.0
H224 H 0.90943 0.64463 0.34372 0.0
H225 H 0.92414 0.6705 0.35972 0.0
H226 H 0.93981 0.63351 0.40959 0.0
H227 H 0.9499 0.64484 0.38114 0.0
H228 H 0.93749 0.61382 0.38365 0.0
H229 H 0.79511 0.58956 0.44601 0.0
H230 H 0.78434 0.53129 0.39105 0.0
H231 H 0.82075 0.54499 0.37185 0.0
H232 H 0.84956 0.58533 0.45524 0.0
H233 H 0.8363 0.61212 0.46669 0.0
H234 H 0.86607 0.61355 0.45526 0.0
H235 H 0.81111 0.63052 0.40847 0.0
H236 H 0.83443 0.64917 0.42223 0.0
H237 H 0.81234 0.63469 0.44103 0.0
H238 H 0.88288 0.68939 0.46392 0.0
C239 C 0.87758 0.65925 0.43881 0.0
C240 C 0.8892 0.80336 0.91861 0.0
C241 C 0.90773 0.79004 0.90905 0.0
C242 C 0.91864 0.79838 0.88765 0.0
C243 C 0.89323 0.83219 0.88605 0.0
C244 C 0.88213 0.8241 0.90671 0.0
C245 C 0.86181 0.8394 0.91338 0.0
H246 H 0.79197 0.93133 0.88542 0.0
C247 C 0.88151 0.85386 0.87774 0.0
C248 C 0.86294 0.85821 0.89359 0.0
H249 H 0.78444 0.88182 0.94468 0.0
H250 H 0.82027 0.86343 0.93307 0.0
H251 H 0.8075 0.89118 0.84446 0.0
H252 H 0.8484 0.94224 0.89275 0.0
H253 H 0.86291 0.94122 0.86479 0.0
H254 H 0.83346 0.95196 0.86605 0.0
H255 H 0.80743 0.92375 0.84213 0.0
H256 H 0.82972 0.90671 0.82778 0.0
C257 C 0.83868 0.82263 0.91147 0.0
C258 C 0.86708 0.85143 0.93898 0.0
C259 C 0.91023 0.89486 0.80116 0.0
C260 C 0.90313 0.91507 0.78857 0.0
C261 C 0.88526 0.92892 0.79846 0.0
C262 C 0.87394 0.92209 0.81998 0.0
C263 C 0.88068 0.9013 0.83194 0.0
C264 C 0.89901 0.88851 0.82281 0.0
C265 C 0.90439 0.8674 0.83821 0.0
C266 C 0.88591 0.86919 0.85778 0.0
C267 C 0.87189 0.88894 0.85396 0.0
C268 C 0.9005 0.84348 0.82224 0.0
C269 C 0.92985 0.87241 0.84893 0.0
C270 C 0.79788 0.91638 0.89578 0.0
C271 C 0.78505 0.90801 0.91597 0.0
C272 C 0.79389 0.88885 0.9292 0.0
C273 C 0.81465 0.87797 0.92227 0.0
C274 C 0.82687 0.88611 0.90173 0.0
C275 C 0.81863 0.90528 0.88907 0.0
C276 C 0.83421 0.9119 0.86803 0.0
C277 C 0.85267 0.89306 0.86964 0.0
C278 C 0.84827 0.87789 0.88943 0.0
C279 C 0.81904 0.90839 0.84425 0.0
C280 C 0.84528 0.93825 0.8729 0.0
H281 H 0.92086 0.82444 0.86024 0.0
H282 H 0.88029 0.79789 0.93497 0.0
H283 H 0.88615 0.85767 0.94108 0.0
H284 H 0.85736 0.86796 0.94235 0.0
H285 H 0.86288 0.83831 0.95346 0.0
H286 H 0.83921 0.80925 0.89581 0.0
H287 H 0.83609 0.81213 0.92823 0.0
H288 H 0.8228 0.83267 0.90796 0.0
H289 H 0.92413 0.88407 0.79417 0.0
H290 H 0.87952 0.94458 0.78907 0.0
H291 H 0.8601 0.93303 0.82627 0.0
H292 H 0.88712 0.84533 0.80743 0.0
H293 H 0.91718 0.83858 0.81354 0.0
H294 H 0.89328 0.82785 0.83257 0.0
H295 H 0.9333 0.89207 0.8544 0.0
H296 H 0.93299 0.86246 0.86567 0.0
H297 H 0.94326 0.86772 0.83532 0.0
H298 H 0.93231 0.78845 0.87906 0.0
C299 C 0.91172 0.81933 0.87638 0.0
C300 C 0.71589 0.12019 0.42345 0.0
C301 C 0.72712 0.09966 0.41445 0.0
C302 C 0.7162 0.08544 0.39489 0.0
C303 C 0.68469 0.11308 0.39256 0.0
C304 C 0.6947 0.1264 0.41241 0.0
C305 C 0.6805 0.14759 0.41974 0.0
H306 H 0.58728 0.21525 0.39735 0.0
C307 C 0.66336 0.12498 0.38461 0.0
C308 C 0.66065 0.14508 0.40064 0.0
H309 H 0.64022 0.22664 0.45521 0.0
H310 H 0.65894 0.19061 0.4411 0.0
H311 H 0.57879 0.15859 0.40096 0.0
H312 H 0.62391 0.20313 0.35605 0.0
H313 H 0.61201 0.17863 0.33727 0.0
H314 H 0.59241 0.19923 0.35139 0.0
H315 H 0.56767 0.1732 0.37483 0.0
H316 H 0.57867 0.14309 0.37244 0.0
C317 C 0.67118 0.14335 0.44568 0.0
C318 C 0.69634 0.17151 0.41745 0.0
C319 C 0.61925 0.09552 0.30639 0.0
C320 C 0.59908 0.10333 0.29454 0.0
C321 C 0.58673 0.12222 0.30518 0.0
C322 C 0.5948 0.13377 0.3272 0.0
C323 C 0.61531 0.12616 0.33872 0.0
C324 C 0.62691 0.10702 0.32858 0.0
C325 C 0.64785 0.10086 0.34393 0.0
C326 C 0.6474 0.1201 0.36448 0.0
C327 C 0.62841 0.13489 0.36117 0.0
C328 C 0.64296 0.07465 0.35311 0.0
C329 C 0.67033 0.1043 0.32848 0.0
C330 C 0.60301 0.21011 0.40691 0.0
C331 C 0.61233 0.22386 0.42736 0.0
C332 C 0.63255 0.21622 0.43953 0.0
C333 C 0.64347 0.19536 0.43124 0.0
C334 C 0.63408 0.18202 0.41053 0.0
C335 C 0.61414 0.18947 0.39882 0.0
C336 C 0.60674 0.17344 0.37694 0.0
C337 C 0.62543 0.15495 0.37752 0.0
C338 C 0.64145 0.16005 0.39715 0.0
C339 C 0.58161 0.1615 0.38125 0.0
C340 C 0.60864 0.18927 0.35413 0.0
H341 H 0.68795 0.08066 0.36892 0.0
H342 H 0.72367 0.13164 0.43837 0.0
H343 H 0.7081 0.17015 0.40153 0.0
H344 H 0.68611 0.18754 0.41417 0.0
H345 H 0.7078 0.17536 0.43397 0.0
H346 H 0.66622 0.12363 0.44808 0.0
H347 H 0.68489 0.14929 0.45978 0.0
H348 H 0.65488 0.15266 0.44945 0.0
H349 H 0.6288 0.08079 0.29854 0.0
H350 H 0.57113 0.12836 0.29615 0.0
H351 H 0.58489 0.14835 0.33424 0.0
H352 H 0.62363 0.06993 0.35467 0.0
H353 H 0.65008 0.06082 0.34048 0.0
H354 H 0.65031 0.07256 0.37167 0.0
H355 H 0.67008 0.1214 0.31822 0.0
H356 H 0.68687 0.10614 0.3395 0.0
H357 H 0.67141 0.08883 0.31503 0.0
H358 H 0.72395 0.06913 0.38797 0.0
C359 C 0.69515 0.09205 0.3839 0.0
C360 C 0.41189 0.62064 0.21328 0.0
C361 C 0.40193 0.60136 0.22673 0.0
C362 C 0.37974 0.59 0.21922 0.0
C363 C 0.3779 0.61694 0.18562 0.0
C364 C 0.39944 0.62832 0.19309 0.0
C365 C 0.4066 0.64969 0.17789 0.0
H366 H 0.37986 0.72195 0.08572 0.0
C367 C 0.36949 0.62938 0.16422 0.0
C368 C 0.38619 0.64858 0.15952 0.0
H369 H 0.44047 0.73005 0.13511 0.0
H370 H 0.42775 0.69241 0.15396 0.0
H371 H 0.34235 0.7071 0.12502 0.0
H372 H 0.38218 0.66537 0.07479 0.0
H373 H 0.3551 0.64829 0.07737 0.0
H374 H 0.35548 0.67862 0.06557 0.0
H375 H 0.33678 0.70546 0.09271 0.0
H376 H 0.32282 0.68354 0.1124 0.0
C377 C 0.40728 0.67316 0.19455 0.0
C378 C 0.43041 0.64485 0.16578 0.0
C379 C 0.29271 0.59852 0.12128 0.0
C380 C 0.28107 0.60598 0.10036 0.0
C381 C 0.29081 0.62588 0.08759 0.0
C382 C 0.31193 0.63838 0.09568 0.0
C383 C 0.32342 0.6308 0.11667 0.0
C384 C 0.31392 0.61108 0.129 0.0
C385 C 0.32892 0.60538 0.15062 0.0
C386 C 0.34904 0.6249 0.14908 0.0
C387 C 0.34553 0.63978 0.12934 0.0
C388 C 0.31424 0.60886 0.17392 0.0
C389 C 0.33736 0.5793 0.14635 0.0
C390 C 0.39038 0.71553 0.10057 0.0
C391 C 0.41097 0.72889 0.10918 0.0
C392 C 0.42453 0.71987 0.12821 0.0
C393 C 0.41699 0.69821 0.13925 0.0
C394 C 0.39573 0.68558 0.13113 0.0
C395 C 0.38307 0.69407 0.11181 0.0
C396 C 0.36094 0.67841 0.10555 0.0
C397 C 0.36203 0.65947 0.1248 0.0
C398 C 0.38235 0.66375 0.13973 0.0
C399 C 0.33949 0.69431 0.10888 0.0
C400 C 0.3633 0.66714 0.07944 0.0
H401 H 0.35091 0.58834 0.1941 0.0
H402 H 0.42886 0.62983 0.21848 0.0
H403 H 0.43145 0.62505 0.16112 0.0
H404 H 0.43269 0.65397 0.1483 0.0
H405 H 0.44565 0.65067 0.17816 0.0
H406 H 0.39282 0.67201 0.20799 0.0
H407 H 0.42434 0.67589 0.20494 0.0
H408 H 0.40434 0.68978 0.18451 0.0
H409 H 0.28551 0.58319 0.13132 0.0
H410 H 0.28179 0.63209 0.07162 0.0
H411 H 0.31833 0.65356 0.08537 0.0
H412 H 0.30131 0.62306 0.1716 0.0
H413 H 0.30406 0.59164 0.17835 0.0
H414 H 0.32527 0.61551 0.18994 0.0
H415 H 0.34151 0.57591 0.12685 0.0
H416 H 0.35389 0.57628 0.15643 0.0
H417 H 0.32345 0.56521 0.15128 0.0
H418 H 0.37118 0.57565 0.22961 0.0
C419 C 0.36778 0.59759 0.1987 0.0
C420 C 0.07393 0.31795 0.59677 0.0
C421 C 0.08209 0.30406 0.57672 0.0
C422 C 0.10214 0.31417 0.56448 0.0
C423 C 0.10569 0.3493 0.59243 0.0
C424 C 0.08603 0.34013 0.60433 0.0
C425 C 0.0802 0.35631 0.62582 0.0
H426 H 0.11188 0.4535 0.70138 0.0
C427 C 0.11473 0.37219 0.60526 0.0
C428 C 0.09978 0.37657 0.62476 0.0
H429 H 0.05146 0.40158 0.70629 0.0
H430 H 0.06134 0.38212 0.66805 0.0
H431 H 0.10589 0.46105 0.64197 0.0
H432 H 0.14759 0.41607 0.68614 0.0
H433 H 0.16573 0.42657 0.66266 0.0
H434 H 0.15446 0.44832 0.68412 0.0
H435 H 0.13055 0.4733 0.66063 0.0
H436 H 0.13446 0.46164 0.62993 0.0
C437 C 0.05538 0.36578 0.62121 0.0
C438 C 0.08229 0.34143 0.64913 0.0
C439 C 0.19161 0.41503 0.5788 0.0
C440 C 0.20575 0.43529 0.58837 0.0
C441 C 0.19748 0.449 0.60829 0.0
C442 C 0.17583 0.44212 0.61896 0.0
C443 C 0.16234 0.42127 0.60968 0.0
C444 C 0.17018 0.40832 0.58974 0.0
C445 C 0.15392 0.38636 0.58262 0.0
C446 C 0.13501 0.38817 0.60164 0.0
C447 C 0.14004 0.40858 0.61745 0.0
C448 C 0.14389 0.3898 0.55659 0.0
C449 C 0.168 0.36326 0.58533 0.0
C450 C 0.10069 0.43808 0.69404 0.0
C451 C 0.081 0.42893 0.70679 0.0
C452 C 0.06665 0.40901 0.69663 0.0
C453 C 0.07254 0.39761 0.67456 0.0
C454 C 0.09299 0.40623 0.66261 0.0
C455 C 0.10635 0.4265 0.67208 0.0
C456 C 0.12756 0.43302 0.65706 0.0
C457 C 0.12496 0.41309 0.63718 0.0
C458 C 0.10479 0.39734 0.64063 0.0
C459 C 0.12473 0.45865 0.64691 0.0
C460 C 0.15011 0.43112 0.6732 0.0
H461 H 0.12863 0.3429 0.56179 0.0
H462 H 0.0586 0.31212 0.6069 0.0
H463 H 0.0977 0.32989 0.64813 0.0
H464 H 0.08546 0.35299 0.66586 0.0
H465 H 0.06617 0.32911 0.65143 0.0
H466 H 0.05199 0.36807 0.60144 0.0
H467 H 0.04118 0.35284 0.62776 0.0
H468 H 0.05351 0.38408 0.62975 0.0
H469 H 0.19725 0.40432 0.56328 0.0
H470 H 0.20809 0.4646 0.61612 0.0
H471 H 0.17072 0.45301 0.63435 0.0
H472 H 0.14175 0.40944 0.55336 0.0
H473 H 0.15589 0.38296 0.54251 0.0
H474 H 0.12598 0.38077 0.5535 0.0
H475 H 0.18087 0.36569 0.60094 0.0
H476 H 0.15673 0.34681 0.58947 0.0
H477 H 0.17816 0.3594 0.56869 0.0
H478 H 0.10975 0.30507 0.54915 0.0
C479 C 0.11363 0.33657 0.57201 0.0
O480 O 0.01468 0.00281 0.56413 0.0
Mg481 Mg 0.03318 0.02047 0.53667 0.0
O482 O 0.98847 0.98597 0.53726 0.0
Mg483 Mg 0.0035 -0.00129 0.49893 0.0
O484 O 0.01348 0.03921 0.51308 0.0
O485 O 0.03651 0.05635 0.54399 0.0
O486 O 0.01895 0.01214 0.46037 0.0
O487 O 0.96626 0.01631 0.49193 0.0
Mg488 Mg 0.97597 0.97632 0.46004 0.0
O489 O 0.99263 0.95789 0.48603 0.0
O490 O 0.99494 0.99316 0.43287 0.0
O491 O 0.94424 0.9903 0.46835 0.0
O492 O 0.97225 0.94036 0.45346 0.0
C493 C 0.06133 0.98756 0.51385 0.0
C494 C 0.99585 0.9897 0.55936 0.0
C495 C 0.02225 0.05837 0.5257 0.0
C496 C 0.01255 0.00786 0.43799 0.0
C497 C 0.94651 0.00993 0.48101 0.0
C498 C 0.98415 0.93854 0.47349 0.0
O499 O 0.0649 0.0076 0.5256 0.0
O500 O 0.04057 0.98084 0.50552 0.0
O501 O 0.4723 0.05636 0.02734 0.0
Mg502 Mg 0.50825 0.0584 0.01885 0.0
O503 O 0.46667 0.01999 0.00909 0.0
Mg504 Mg 0.50684 0.01053 0.00054 0.0
O505 O 0.5172 0.04831 0.98439 0.0
O506 O 0.51618 0.08724 -0.00122 0.0
O507 O 0.54699 0.00176 0.99311 0.0
O508 O 0.49477 0.0041 0.95832 0.0
Mg509 Mg 0.50557 0.96962 0.98159 0.0
O510 O 0.49659 0.9723 0.01732 0.0
O511 O 0.53904 0.97311 0.96509 0.0
O512 O 0.47625 0.96803 0.95869 0.0
O513 O 0.50656 0.93777 -0.00214 0.0
C514 C 0.53197 0.03409 0.05366 0.0
C515 C 0.45836 0.03853 0.02003 0.0
C516 C 0.52046 0.07166 0.98157 0.0
C517 C 0.55412 0.98731 0.9765 0.0
C518 C 0.48162 0.98709 0.94747 0.0
C519 C 0.49886 0.9489 0.01681 0.0
O520 O 0.53402 0.05523 0.04551 0.0
O521 O 0.51984 0.01709 0.0417 0.0
O522 O 0.46668 0.53857 0.53932 0.0
Mg523 Mg 0.47647 0.50252 0.54152 0.0
O524 O 0.48905 0.5427 0.50727 0.0
Mg525 Mg 0.49634 0.50232 0.49879 0.0
O526 O 0.51114 0.49547 0.53828 0.0
O527 O 0.49252 0.50135 0.5738 0.0
O528 O 0.50479 0.46178 0.48958 0.0
O529 O 0.53615 0.51624 0.49417 0.0
Mg530 Mg 0.51385 0.49736 0.4453 0.0
O531 O 0.4843 0.50964 0.46016 0.0
O532 O 0.51596 0.46028 0.45107 0.0
O533 O 0.54317 0.52113 0.45509 0.0
O534 O 0.49029 0.50765 0.42006 0.0
C535 C 0.44307 0.47611 0.5163 0.0
C536 C 0.47633 0.5519 0.52356 0.0
C537 C 0.51108 0.4962 0.56196 0.0
C538 C 0.51173 0.4499 0.47088 0.0
C539 C 0.54964 0.52382 0.47725 0.0
C540 C 0.47749 0.51378 0.43819 0.0
O541 O 0.45168 0.4729 0.53708 0.0
O542 O 0.45517 0.48906 0.50151 0.0
O543 O 0.99729 0.45196 0.03867 0.0
Mg544 Mg 0.00748 0.4894 0.04415 0.0
O545 O 0.01886 0.46543 0.00925 0.0
Mg546 Mg 0.00068 0.50446 0.00464 0.0
O547 O 0.98283 0.51428 0.04308 0.0
O548 O 0.9959 0.49754 0.07727 0.0
O549 O 0.98458 0.5465 0.0011 0.0
O550 O 0.96626 0.48109 0.99735 0.0
Mg551 Mg 0.99142 0.51687 0.9732 0.0
O552 O 0.01619 0.49347 0.96466 0.0
O553 O 0.00397 0.5529 0.96813 0.0
O554 O 0.95436 0.51287 0.98015 0.0
O555 O 0.98786 0.50337 0.9389 0.0
C556 C 0.04945 0.52017 0.03034 0.0
C557 C 0.01136 0.44758 0.02198 0.0
C558 C 0.98213 0.51165 0.06649 0.0
C559 C 0.99175 0.56135 0.98487 0.0
C560 C 0.9495 0.49259 0.9893 0.0
C561 C 0.00696 0.49273 0.94281 0.0
O562 O 0.04323 0.5035 0.04468 0.0
O563 O 0.03562 0.52571 0.01331 0.0
H564 H 0.06127 0.07324 0.22397 0.0
H565 H 0.04972 0.05792 0.26392 0.0
H566 H 0.113 0.09422 0.29676 0.0
H567 H 0.1248 0.10905 0.25676 0.0
H568 H 0.0787 0.0291 0.29804 0.0
H569 H 0.05452 0.11912 0.33629 0.0
H570 H 0.05576 0.11239 0.30392 0.0
H571 H 0.08264 0.11848 0.32155 0.0
C572 C 0.07271 0.07779 0.23974 0.0
C573 C 0.09391 0.09226 0.23739 0.0
C574 C 0.06613 0.06907 0.26251 0.0
C575 C 0.08038 0.07514 0.28338 0.0
C576 C 0.10166 0.08946 0.28096 0.0
H577 H 0.0545 0.03776 0.43743 0.0
H578 H 0.07369 0.05498 0.40117 0.0
C579 C 0.10843 0.09782 0.25814 0.0
C580 C 0.073 0.06656 0.30768 0.0
H581 H 0.05219 0.08606 0.36266 0.0
C582 C 0.07306 0.04157 0.31221 0.0
C583 C 0.06564 0.08284 0.32618 0.0
C584 C 0.06441 0.10971 0.32186 0.0
C585 C 0.06585 0.03243 0.3347 0.0
C586 C 0.05811 0.04864 0.35309 0.0
C587 C 0.05846 0.07371 0.34872 0.0
C588 C 0.04682 0.03934 0.37553 0.0
C589 C 0.0663 0.00538 0.33854 0.0
C590 C 0.02522 0.02546 0.37321 0.0
C591 C 0.01437 0.01579 0.39359 0.0
C592 C 0.02471 0.01968 0.41712 0.0
C593 C 0.04612 0.03424 0.41965 0.0
C594 C 0.05708 0.04407 0.39896 0.0
H595 H 0.07828 0.99653 0.32566 0.0
H596 H 0.07205 0.00193 0.35748 0.0
H597 H 0.04819 0.99663 0.33547 0.0
H598 H 0.01672 0.02197 0.35547 0.0
H599 H 0.99773 0.00504 0.3907 0.0
H600 H 0.43022 0.88754 0.74783 0.0
H601 H 0.44518 0.90681 0.78647 0.0
H602 H 0.43094 0.9776 0.76033 0.0
H603 H 0.41643 0.95861 0.7214 0.0
H604 H 0.48391 0.94643 0.79209 0.0
H605 H 0.3967 0.97059 0.82776 0.0
H606 H 0.39952 0.94681 0.80462 0.0
H607 H 0.40288 0.9783 0.79684 0.0
C608 C 0.43046 0.90723 0.75021 0.0
C609 C 0.42223 0.92159 0.73153 0.0
C610 C 0.43891 0.91816 0.77229 0.0
C611 C 0.43905 0.94355 0.77611 0.0
C612 C 0.43072 0.95793 0.75767 0.0
H613 H 0.47293 0.02351 0.9157 0.0
H614 H 0.46691 0.01806 0.87106 0.0
C615 C 0.42236 0.94705 0.73554 0.0
C616 C 0.4481 0.95504 0.79938 0.0
H617 H 0.43044 0.98298 0.85171 0.0
C618 C 0.47233 0.9547 0.80505 0.0
C619 C 0.43284 0.96571 0.81612 0.0
C620 C 0.40649 0.96532 0.81125 0.0
C621 C 0.48167 0.96444 0.82741 0.0
C622 C 0.46628 0.9746 0.84441 0.0
C623 C 0.44222 0.97568 0.83835 0.0
C624 C 0.47354 0.97962 0.87008 0.0
C625 C 0.50775 0.96311 0.83296 0.0
C626 C 0.47919 0.95988 0.88393 0.0
C627 C 0.48196 0.96278 0.90899 0.0
C628 C 0.47923 0.98553 0.92081 0.0
C629 C 0.47476 0.00575 0.90693 0.0
C630 C 0.47153 0.00269 0.88159 0.0
H631 H 0.51811 0.96265 0.81599 0.0
H632 H 0.51475 0.97886 0.84484 0.0
H633 H 0.51051 0.94605 0.84258 0.0
H634 H 0.48039 0.94186 0.87549 0.0
H635 H 0.48602 0.947 0.91921 0.0
H636 H 0.58808 0.39049 0.7422 0.0
H637 H 0.57721 0.40112 0.70083 0.0
H638 H 0.57034 0.47576 0.72574 0.0
H639 H 0.58166 0.46528 0.76722 0.0
H640 H 0.53815 0.42365 0.68024 0.0
H641 H 0.62303 0.48007 0.67485 0.0
H642 H 0.61729 0.4588 0.69869 0.0
H643 H 0.60484 0.48809 0.69993 0.0
C644 C 0.58373 0.40903 0.7389 0.0
C645 C 0.5859 0.42721 0.7576 0.0
C646 C 0.57763 0.41506 0.71535 0.0
C647 C 0.57362 0.43927 0.71035 0.0
C648 C 0.57401 0.45709 0.72934 0.0
H649 H 0.53183 0.52311 0.59903 0.0
H650 H 0.55419 0.50676 0.6323 0.0
C651 C 0.58035 0.45113 0.75288 0.0
C652 C 0.57061 0.44616 0.68501 0.0
H653 H 0.59546 0.48223 0.6419 0.0
C654 C 0.55076 0.43619 0.67165 0.0
C655 C 0.58737 0.46232 0.67406 0.0
C656 C 0.60946 0.4728 0.68752 0.0
C657 C 0.54648 0.44308 0.64779 0.0
C658 C 0.56291 0.45985 0.63705 0.0
C659 C 0.58322 0.46907 0.65015 0.0
C660 C 0.55693 0.47136 0.61424 0.0
C661 C 0.52374 0.43352 0.63487 0.0
C662 C 0.55292 0.45743 0.59244 0.0
C663 C 0.54028 0.46688 0.57328 0.0
C664 C 0.53168 0.49016 0.57613 0.0
C665 C 0.53838 0.50508 0.59665 0.0
C666 C 0.55109 0.49575 0.61561 0.0
H667 H 0.51149 0.42348 0.64717 0.0
H668 H 0.51444 0.44877 0.62716 0.0
H669 H 0.52788 0.42083 0.61959 0.0
H670 H 0.55766 0.43863 0.5911 0.0
H671 H 0.53504 0.45513 0.55755 0.0
H672 H 0.89964 0.52618 0.27821 0.0
H673 H 0.9061 0.51421 0.23574 0.0
H674 H 0.94759 0.58174 0.22642 0.0
H675 H 0.93973 0.59506 0.26773 0.0
H676 H 0.89539 0.54924 0.19208 0.0
H677 H 0.9867 0.51912 0.20246 0.0
H678 H 0.96602 0.51906 0.22714 0.0
H679 H 0.98114 0.54719 0.21868 0.0
C680 C 0.90987 0.53878 0.26721 0.0
C681 C 0.91898 0.56181 0.27684 0.0
C682 C 0.91372 0.53169 0.24295 0.0
C683 C 0.92731 0.54714 0.22816 0.0
C684 C 0.93712 0.56958 0.23774 0.0
H685 H 0.98893 0.55563 0.08982 0.0
H686 H 0.9703 0.56604 0.12834 0.0
C687 C 0.93281 0.57698 0.26166 0.0
C688 C 0.93073 0.5407 0.20228 0.0
H689 H 0.97381 0.52768 0.16238 0.0
C690 C 0.91237 0.54415 0.18547 0.0
C691 C 0.95291 0.53411 0.19396 0.0
C692 C 0.97283 0.52944 0.21146 0.0
C693 C 0.91608 0.54228 0.16028 0.0
C694 C 0.93864 0.53682 0.15199 0.0
C695 C 0.95664 0.53237 0.16888 0.0
C696 C 0.94429 0.53524 0.12591 0.0
C697 C 0.89628 0.54705 0.14271 0.0
C698 C 0.93478 0.51544 0.1112 0.0
C699 C 0.94521 0.50974 0.08908 0.0
C700 C 0.96523 0.52374 0.08161 0.0
C701 C 0.97313 0.545 0.09503 0.0
C702 C 0.96267 0.55076 0.11711 0.0
H703 H 0.88121 0.55505 0.15206 0.0
H704 H 0.90281 0.55961 0.12855 0.0
H705 H 0.88966 0.52958 0.13337 0.0
H706 H 0.92088 0.50305 0.11786 0.0
H707 H 0.93932 0.49289 0.07921 0.0
H708 H 0.23611 0.05125 0.07984 0.0
H709 H 0.27395 0.03781 0.06517 0.0
H710 H 0.30335 0.11238 0.06929 0.0
H711 H 0.2655 0.12594 0.08401 0.0
H712 H 0.30248 0.05257 0.0236 0.0
H713 H 0.34823 0.07389 0.11287 0.0
H714 H 0.31636 0.07127 0.1094 0.0
H715 H 0.33289 0.09856 0.10075 0.0
C716 C 0.25061 0.06481 0.07752 0.0
C717 C 0.24782 0.08967 0.08327 0.0
C718 C 0.2722 0.0571 0.06904 0.0
C719 C 0.29162 0.07401 0.06641 0.0
C720 C 0.2887 0.09894 0.07141 0.0
H721 H 0.43672 0.0801 0.03027 0.0
H722 H 0.39582 0.08518 0.0403 0.0
C723 C 0.267 0.10671 0.07965 0.0
C724 C 0.31513 0.06552 0.05925 0.0
H725 H 0.37236 0.0636 0.07972 0.0
C726 C 0.31774 0.05476 0.03591 0.0
C727 C 0.33498 0.0681 0.07541 0.0
C728 C 0.33306 0.07837 0.1011 0.0
C729 C 0.33992 0.04762 0.02795 0.0
C730 C 0.35994 0.05097 0.04388 0.0
C731 C 0.35706 0.06098 0.06748 0.0
C732 C 0.38449 0.04688 0.03582 0.0
C733 C 0.34206 0.03758 0.00225 0.0
C734 C 0.39197 0.02351 0.02951 0.0
C735 C 0.41581 0.02042 0.0236 0.0
C736 C 0.43252 0.04065 0.02414 0.0
C737 C 0.4246 0.06395 0.02991 0.0
C738 C 0.40106 0.06698 0.03566 0.0
H739 H 0.3256 0.03909 0.9912 0.0
H740 H 0.35703 0.0474 0.99315 0.0
H741 H 0.34581 0.01801 0.00265 0.0
H742 H 0.37957 0.00763 0.02975 0.0
H743 H 0.42125 0.00223 0.01934 0.0
H744 H 0.27245 0.9197 0.54114 0.0
H745 H 0.23338 0.92933 0.52529 0.0
H746 H 0.20527 0.92417 0.59751 0.0
H747 H 0.24429 0.91533 0.61343 0.0
H748 H 0.18989 0.90386 0.52516 0.0
H749 H 0.18658 0.99079 0.57927 0.0
H750 H 0.21345 0.97514 0.57611 0.0
H751 H 0.19165 0.9653 0.59774 0.0
C752 C 0.25788 0.9207 0.55355 0.0
C753 C 0.26138 0.91716 0.57854 0.0
C754 C 0.23562 0.92616 0.54452 0.0
C755 C 0.21652 0.92797 0.56031 0.0
C756 C 0.21989 0.9236 0.58512 0.0
H757 H 0.06938 0.95743 0.54995 0.0
H758 H 0.10699 0.93979 0.55933 0.0
C759 C 0.24215 0.9185 0.59418 0.0
C760 C 0.19305 0.93446 0.551 0.0
H761 H 0.15059 0.97512 0.55961 0.0
C762 C 0.18137 0.91955 0.53254 0.0
C763 C 0.18199 0.95502 0.56058 0.0
C764 C 0.19415 0.97262 0.57933 0.0
C765 C 0.15864 0.92431 0.52389 0.0
C766 C 0.14745 0.94447 0.53392 0.0
C767 C 0.15921 0.95952 0.55213 0.0
C768 C 0.12351 0.95054 0.52585 0.0
C769 C 0.14644 0.90757 0.50451 0.0
C770 C 0.12016 0.96177 0.50359 0.0
C771 C 0.09866 0.9719 0.49823 0.0
C772 C 0.08024 0.97058 0.51495 0.0
C773 C 0.08313 0.95799 0.53648 0.0
C774 C 0.10464 0.94812 0.54194 0.0
H775 H 0.15624 0.89101 0.50073 0.0
H776 H 0.12822 0.90185 0.51012 0.0
H777 H 0.14493 0.91755 0.48739 0.0
H778 H 0.13467 0.96411 0.49112 0.0
H779 H 0.09702 0.98218 0.48189 0.0
H780 H 0.75763 0.42935 0.87841 0.0
H781 H 0.79701 0.44484 0.89373 0.0
H782 H 0.7695 0.45325 0.96605 0.0
H783 H 0.73026 0.43743 0.95093 0.0
H784 H 0.81559 0.48817 0.92272 0.0
H785 H 0.8189 0.40012 0.96936 0.0
H786 H 0.79724 0.40501 0.94581 0.0
H787 H 0.79358 0.41699 0.97628 0.0
C788 C 0.75998 0.43505 0.89745 0.0
C789 C 0.74129 0.43192 0.9137 0.0
C790 C 0.78232 0.44388 0.90611 0.0
C791 C 0.78596 0.44969 0.931 0.0
C792 C 0.76687 0.44845 0.94684 0.0
H793 H 0.91057 0.49994 0.01547 0.0
H794 H 0.86957 0.48787 0.00204 0.0
C795 C 0.74464 0.4394 0.93826 0.0
C796 C 0.81006 0.45423 0.94095 0.0
H797 H 0.85071 0.42964 0.97765 0.0
C798 C 0.82332 0.47548 0.93476 0.0
C799 C 0.82 0.43724 0.95623 0.0
C800 C 0.80682 0.41343 0.96217 0.0
C801 C 0.84636 0.48045 0.94409 0.0
C802 C 0.85593 0.46375 0.95985 0.0
C803 C 0.84287 0.44241 0.96576 0.0
C804 C 0.87997 0.46789 0.96973 0.0
C805 C 0.8605 0.5033 0.93701 0.0
C806 C 0.89879 0.45954 0.95636 0.0
C807 C 0.92191 0.46599 0.96417 0.0
C808 C 0.92613 0.48086 0.98525 0.0
C809 C 0.90734 0.48816 -0.00068 0.0
C810 C 0.88416 0.48148 0.99163 0.0
H811 H 0.85007 0.51493 0.92531 0.0
H812 H 0.86677 0.51417 0.95361 0.0
H813 H 0.87641 0.49819 0.927 0.0
H814 H 0.89558 0.44908 0.93937 0.0
H815 H 0.93643 0.46075 0.95296 0.0
H816 H 0.77794 0.55344 0.46827 0.0
H817 H 0.73922 0.54549 0.48673 0.0
H818 H 0.7058 0.54159 0.41533 0.0
H819 H 0.74439 0.5493 0.39681 0.0
H820 H 0.70122 0.57466 0.4831 0.0
H821 H 0.67618 0.48095 0.4463 0.0
H822 H 0.70624 0.49425 0.44601 0.0
H823 H 0.68501 0.50159 0.42306 0.0
C824 C 0.76232 0.55059 0.45654 0.0
C825 C 0.76411 0.55188 0.43112 0.0
C826 C 0.74028 0.54603 0.46709 0.0
C827 C 0.71972 0.54263 0.45238 0.0
C828 C 0.72153 0.54354 0.42696 0.0
H829 H 0.57604 0.55682 0.45209 0.0
H830 H 0.61916 0.56314 0.45338 0.0
C831 C 0.74356 0.54795 0.4164 0.0
C832 C 0.69617 0.53986 0.46352 0.0
H833 H 0.64443 0.50421 0.461 0.0
C834 C 0.68894 0.55903 0.4787 0.0
C835 C 0.68028 0.51936 0.45792 0.0
C836 C 0.68739 0.49776 0.44262 0.0
C837 C 0.66566 0.55891 0.48707 0.0
C838 C 0.64947 0.53914 0.48018 0.0
C839 C 0.65705 0.51932 0.46626 0.0
C840 C 0.62386 0.54011 0.48396 0.0
C841 C 0.6581 0.58027 0.50235 0.0
C842 C 0.61236 0.52588 0.50145 0.0
C843 C 0.58761 0.52251 0.50099 0.0
C844 C 0.57433 0.53285 0.48262 0.0
C845 C 0.5859 0.54858 0.46637 0.0
C846 C 0.61049 0.55224 0.4671 0.0
H847 H 0.67345 0.59256 0.50896 0.0
H848 H 0.64614 0.59096 0.49132 0.0
H849 H 0.64803 0.57364 0.51824 0.0
H850 H 0.62254 0.51628 0.51447 0.0
H851 H 0.57909 0.5102 0.51362 0.0
H852 H 0.0639 0.22988 0.07557 0.0
H853 H 0.0475 0.26781 0.06258 0.0
H854 H 0.11651 0.30565 0.07207 0.0
H855 H 0.13302 0.26769 0.08411 0.0
H856 H 0.04448 0.31213 0.08474 0.0
H857 H 0.10086 0.32366 0.00407 0.0
H858 H 0.09897 0.29582 0.02059 0.0
H859 H 0.1176 0.32181 0.03189 0.0
C860 C 0.07553 0.24632 0.07482 0.0
C861 C 0.09982 0.24573 0.08051 0.0
C862 C 0.06617 0.268 0.06738 0.0
C863 C 0.08085 0.28959 0.06566 0.0
C864 C 0.10492 0.28916 0.07231 0.0
H865 H 0.05824 0.43977 0.02713 0.0
H866 H 0.07507 0.40122 0.0375 0.0
C867 C 0.11434 0.26745 0.07935 0.0
C868 C 0.071 0.31255 0.05719 0.0
H869 H 0.07816 0.35698 0.01523 0.0
C870 C 0.05175 0.32182 0.06943 0.0
C871 C 0.08051 0.32542 0.03727 0.0
C872 C 0.10047 0.31607 0.02254 0.0
C873 C 0.0421 0.34367 0.06268 0.0
C874 C 0.05155 0.35647 0.04267 0.0
C875 C 0.07084 0.34725 0.0305 0.0
C876 C 0.04173 0.37945 0.0342 0.0
C877 C 0.02231 0.35318 0.07758 0.0
C878 C 0.0176 0.38001 0.02784 0.0
C879 C 0.00798 0.40204 0.02218 0.0
C880 C 0.02241 0.42387 0.02187 0.0
C881 C 0.04683 0.4231 0.02662 0.0
C882 C 0.05639 0.4011 0.0328 0.0
H883 H 0.02189 0.34547 0.096 0.0
H884 H 0.02407 0.37342 0.07966 0.0
H885 H 0.0051 0.34772 0.06828 0.0
H886 H 0.006 0.36351 0.02794 0.0
H887 H 0.98907 0.4022 0.01882 0.0
H888 H 0.54398 0.27508 0.90454 0.0
H889 H 0.53223 0.23327 0.91567 0.0
H890 H 0.60545 0.21974 0.92877 0.0
H891 H 0.61755 0.26086 0.91662 0.0
H892 H 0.55563 0.19112 0.88737 0.0
H893 H 0.56368 0.19288 0.98868 0.0
H894 H 0.55682 0.2194 0.97199 0.0
H895 H 0.58646 0.20975 0.97255 0.0
C896 C 0.55757 0.26324 0.90992 0.0
C897 C 0.58171 0.27116 0.90936 0.0
C898 C 0.55081 0.23953 0.91642 0.0
C899 C 0.56806 0.2237 0.92288 0.0
C900 C 0.59198 0.23195 0.92392 0.0
H901 H 0.56605 0.07825 0.9695 0.0
H902 H 0.58065 0.11337 0.94669 0.0
C903 C 0.59881 0.2555 0.91712 0.0
C904 C 0.56155 0.19777 0.92598 0.0
H905 H 0.55808 0.15422 0.96837 0.0
C906 C 0.55604 0.18292 0.90504 0.0
C907 C 0.56232 0.18751 0.94905 0.0
C908 C 0.56749 0.20313 0.97196 0.0
C909 C 0.55155 0.15764 0.90662 0.0
C910 C 0.55256 0.1473 0.92967 0.0
C911 C 0.55788 0.16228 0.95062 0.0
C912 C 0.54594 0.12139 0.93327 0.0
C913 C 0.54597 0.14213 0.88377 0.0
C914 C 0.52195 0.11329 0.9314 0.0
C915 C 0.51366 0.09322 0.94433 0.0
C916 C 0.52938 0.0813 0.95904 0.0
C917 C 0.55379 0.08706 0.95784 0.0
C918 C 0.56209 0.10719 0.945 0.0
H919 H 0.55114 0.15193 0.86714 0.0
H920 H 0.55517 0.12489 0.88421 0.0
H921 H 0.52663 0.13723 0.88256 0.0
H922 H 0.50923 0.12424 0.92268 0.0
H923 H 0.49472 0.08917 0.94546 0.0
H924 H 0.88892 0.72827 0.46503 0.0
H925 H 0.9063 0.76815 0.47774 0.0
H926 H 0.96578 0.75798 0.43176 0.0
H927 H 0.95022 0.71695 0.42052 0.0
H928 H 0.95532 0.78184 0.49909 0.0
H929 H 0.93327 0.82278 0.41115 0.0
H930 H 0.91949 0.79408 0.42043 0.0
H931 H 0.94885 0.7953 0.40853 0.0
C932 C 0.90605 0.73367 0.45794 0.0
C933 C 0.91788 0.71839 0.44155 0.0
C934 C 0.9158 0.75693 0.46515 0.0
C935 C 0.93719 0.76596 0.45559 0.0
C936 C 0.94913 0.75125 0.43926 0.0
H937 H 0.01331 0.90583 0.45581 0.0
H938 H 0.00487 0.86153 0.45605 0.0
C939 C 0.93982 0.72767 0.43258 0.0
C940 C 0.94684 0.79103 0.4623 0.0
H941 H 0.9576 0.84735 0.43914 0.0
C942 C 0.95585 0.79623 0.48605 0.0
C943 C 0.94715 0.8097 0.44528 0.0
C944 C 0.9365 0.80536 0.41997 0.0
C945 C 0.96583 0.81964 0.49303 0.0
C946 C 0.96668 0.8381 0.47579 0.0
C947 C 0.95729 0.83295 0.45218 0.0
C948 C 0.97645 0.86329 0.4817 0.0
C949 C 0.9757 0.82446 0.51856 0.0
C950 C 0.96419 0.87872 0.49718 0.0
C951 C 0.96931 0.90399 0.49736 0.0
C952 C 0.98658 0.91394 0.48193 0.0
C953 C 0.00033 0.89839 0.46827 0.0
C954 C 0.99535 0.87316 0.46822 0.0
H955 H 0.97779 0.80726 0.52819 0.0
H956 H 0.99313 0.835 0.51827 0.0
H957 H 0.96346 0.83557 0.52908 0.0
H958 H 0.94925 0.87149 0.50734 0.0
H959 H 0.95806 0.91581 0.50743 0.0
H960 H 0.407 0.77052 0.52909 0.0
H961 H 0.42263 0.73128 0.51756 0.0
H962 H 0.43525 0.71754 0.59336 0.0
H963 H 0.41855 0.75588 0.60511 0.0
H964 H 0.46683 0.71269 0.52703 0.0
H965 H 0.39378 0.65781 0.56943 0.0
H966 H 0.39248 0.69006 0.56467 0.0
H967 H 0.40901 0.67975 0.59019 0.0
C968 C 0.41288 0.75902 0.5433 0.0
C969 C 0.41138 0.76626 0.56801 0.0
C970 C 0.42201 0.73677 0.53667 0.0
C971 C 0.42974 0.72147 0.55464 0.0
C972 C 0.42898 0.72897 0.57925 0.0
H973 H 0.47958 0.57965 0.56487 0.0
H974 H 0.47158 0.62265 0.5701 0.0
C975 C 0.41968 0.75103 0.5859 0.0
C976 C 0.43798 0.69729 0.54781 0.0
H977 H 0.42676 0.63655 0.55657 0.0
C978 C 0.45802 0.69597 0.53327 0.0
C979 C 0.42629 0.67562 0.55596 0.0
C980 C 0.40407 0.6758 0.57073 0.0
C981 C 0.4672 0.67342 0.52735 0.0
C982 C 0.4558 0.65188 0.53602 0.0
C983 C 0.43549 0.65322 0.55009 0.0
C984 C 0.46485 0.62758 0.53174 0.0
C985 C 0.48937 0.67279 0.5126 0.0
C986 C 0.46437 0.61643 0.50829 0.0
C987 C 0.46928 0.59186 0.50523 0.0
C988 C 0.47411 0.57829 0.52568 0.0
C989 C 0.47553 0.58979 0.54891 0.0
C990 C 0.47111 0.6143 0.5519 0.0
H991 H 0.49825 0.6913 0.51088 0.0
H992 H 0.50204 0.66082 0.52104 0.0
H993 H 0.48472 0.66511 0.49403 0.0
H994 H 0.45913 0.62633 0.4926 0.0
H995 H 0.46805 0.58318 0.48718 0.0
H996 H 0.92283 0.95901 0.77396 0.0
H997 H 0.93825 0.96854 0.73357 0.0
H998 H 0.92152 0.89388 0.70869 0.0
H999 H 0.90646 0.88418 0.74905 0.0
H1000 H 0.9757 0.94071 0.70478 0.0
H1001 H 0.88624 0.94136 0.6609 0.0
H1002 H 0.89111 0.94636 0.69335 0.0
H1003 H 0.89197 0.9162 0.67987 0.0
C1004 C 0.92252 0.94466 0.75986 0.0
C1005 C 0.9134 0.92088 0.76458 0.0
C1006 C 0.93137 0.95009 0.73687 0.0
C1007 C 0.93081 0.93195 0.7181 0.0
C1008 C 0.92199 0.90815 0.72288 0.0
H1009 H 0.97039 0.94511 0.56347 0.0
H1010 H 0.95385 0.92852 0.60128 0.0
C1011 C 0.9135 0.90262 0.74594 0.0
C1012 C 0.93902 0.938 0.69338 0.0
H1013 H 0.91911 0.94828 0.6357 0.0
C1014 C 0.96336 0.94227 0.68965 0.0
C1015 C 0.92289 0.93983 0.67364 0.0
C1016 C 0.89655 0.93585 0.67697 0.0
C1017 C 0.97197 0.94855 0.66671 0.0
C1018 C 0.95579 0.95107 0.64709 0.0
C1019 C 0.93148 0.94622 0.65069 0.0
C1020 C 0.9638 0.96107 0.6236 0.0
C1021 C 0.99836 0.95257 0.66362 0.0
C1022 C 0.97397 0.98503 0.62346 0.0
C1023 C 0.98334 0.99435 0.60219 0.0
C1024 C 0.98254 0.9801 0.58035 0.0
C1025 C 0.97115 0.95651 0.58001 0.0
C1026 C 0.96185 0.94703 0.60159 0.0
H1027 H 0.00844 0.94383 0.67809 0.0
H1028 H 0.00366 0.94522 0.64557 0.0
H1029 H 0.00344 0.97247 0.66471 0.0
H1030 H 0.97514 0.9964 0.64004 0.0
H1031 H 0.99171 0.01272 0.60297 0.0
H1032 H 0.62224 0.10673 0.2521 0.0
H1033 H 0.60936 0.08867 0.21212 0.0
H1034 H 0.54605 0.05647 0.24396 0.0
H1035 H 0.55856 0.07539 0.28376 0.0
H1036 H 0.60106 0.04044 0.19883 0.0
H1037 H 0.51933 0.08976 0.18588 0.0
H1038 H 0.54165 0.09918 0.20881 0.0
H1039 H 0.52072 0.07384 0.21379 0.0
C1040 C 0.60556 0.09584 0.2504 0.0
C1041 C 0.59131 0.09231 0.27072 0.0
C1042 C 0.59823 0.08556 0.22769 0.0
C1043 C 0.57665 0.07143 0.22507 0.0
C1044 C 0.5625 0.06774 0.24549 0.0
H1045 H 0.51145 0.00721 0.0894 0.0
H1046 H 0.52271 0.01037 0.13294 0.0
C1047 C 0.56967 0.07836 0.26816 0.0
C1048 C 0.56942 0.06013 0.20101 0.0
H1049 H 0.52702 0.05962 0.15597 0.0
C1050 C 0.58478 0.04448 0.18953 0.0
C1051 C 0.54816 0.06545 0.18896 0.0
C1052 C 0.53159 0.08313 0.19984 0.0
C1053 C 0.57969 0.0344 0.16607 0.0
C1054 C 0.55871 0.0401 0.15389 0.0
C1055 C 0.54293 0.05503 0.16564 0.0
C1056 C 0.55437 0.03381 0.12781 0.0
C1057 C 0.59701 0.0182 0.15422 0.0
C1058 C 0.56881 0.04543 0.1107 0.0
C1059 C 0.56231 0.0439 0.08611 0.0
C1060 C 0.54137 0.03056 0.07825 0.0
C1061 C 0.52781 0.01738 0.09509 0.0
C1062 C 0.53414 0.01926 0.11987 0.0
H1063 H 0.60851 0.01014 0.16798 0.0
H1064 H 0.58763 0.00322 0.14296 0.0
H1065 H 0.60857 0.02926 0.14212 0.0
H1066 H 0.58428 0.05702 0.11654 0.0
H1067 H 0.57299 0.05423 0.07339 0.0
H1068 H 0.40296 0.55551 0.24459 0.0
H1069 H 0.41479 0.54524 0.28558 0.0
H1070 H 0.44117 0.61993 0.30072 0.0
H1071 H 0.42743 0.63095 0.26057 0.0
H1072 H 0.45482 0.5478 0.3123 0.0
H1073 H 0.39257 0.61179 0.35244 0.0
H1074 H 0.39314 0.6047 0.32016 0.0
H1075 H 0.41546 0.6257 0.33438 0.0
C1076 C 0.4111 0.56984 0.25667 0.0
C1077 C 0.4135 0.59421 0.24954 0.0
C1078 C 0.41812 0.56387 0.27999 0.0
C1079 C 0.42804 0.58205 0.2964 0.0
C1080 C 0.43272 0.60586 0.28856 0.0
H1081 H 0.47587 0.5624 0.44217 0.0
H1082 H 0.45849 0.58336 0.40848 0.0
C1083 C 0.42519 0.61201 0.26541 0.0
C1084 C 0.43188 0.57617 0.32206 0.0
H1085 H 0.41357 0.58871 0.37982 0.0
C1086 C 0.44585 0.55677 0.32706 0.0
C1087 C 0.42015 0.58804 0.34124 0.0
C1088 C 0.40433 0.60859 0.33685 0.0
C1089 C 0.44811 0.54857 0.35072 0.0
C1090 C 0.43575 0.55992 0.36972 0.0
C1091 C 0.42253 0.57989 0.36499 0.0
C1092 C 0.43729 0.5514 0.3947 0.0
C1093 C 0.46371 0.52779 0.35516 0.0
C1094 C 0.42886 0.52748 0.39948 0.0
C1095 C 0.43885 0.51552 0.41867 0.0
C1096 C 0.45711 0.52758 0.43296 0.0
C1097 C 0.46172 0.55287 0.43129 0.0
C1098 C 0.45203 0.56478 0.41186 0.0
H1099 H 0.47578 0.52472 0.33979 0.0
H1100 H 0.47455 0.53138 0.37213 0.0
H1101 H 0.45242 0.5107 0.35724 0.0
H1102 H 0.41714 0.5171 0.38651 0.0
H1103 H 0.43514 0.49595 0.41972 0.0
H1104 H 0.1135 0.43756 0.74359 0.0
H1105 H 0.10613 0.44858 0.78615 0.0
H1106 H 0.03191 0.45281 0.7687 0.0
H1107 H 0.03913 0.44145 0.72602 0.0
H1108 H 0.08545 0.48823 0.80993 0.0
H1109 H 0.03289 0.40009 0.81959 0.0
H1110 H 0.0509 0.40616 0.79344 0.0
H1111 H 0.02225 0.41831 0.79578 0.0
C1112 C 0.09569 0.44129 0.74875 0.0
C1113 C 0.07681 0.43848 0.73165 0.0
C1114 C 0.09153 0.44751 0.77302 0.0
C1115 C 0.06847 0.451 0.78051 0.0
C1116 C 0.04977 0.44963 0.76324 0.0
H1117 H 0.9891 0.48785 0.89694 0.0
H1118 H 0.00931 0.47702 0.86022 0.0
C1119 C 0.05388 0.44319 0.73897 0.0
C1120 C 0.06373 0.45446 0.80662 0.0
H1121 H 0.03167 0.42946 0.8524 0.0
C1122 C 0.07401 0.47524 0.8194 0.0
C1123 C 0.04908 0.43722 0.81886 0.0
C1124 C 0.03832 0.41407 0.80629 0.0
C1125 C 0.06872 0.48 0.84389 0.0
C1126 C 0.0531 0.46334 0.85567 0.0
C1127 C 0.0439 0.44197 0.84325 0.0
C1128 C 0.04207 0.46999 0.87871 0.0
C1129 C 0.07851 0.50344 0.85661 0.0
C1130 C 0.05389 0.46924 0.90135 0.0
C1131 C 0.0423 0.47562 0.92278 0.0
C1132 C 0.01889 0.48267 0.9215 0.0
C1133 C 0.00715 0.48257 0.8987 0.0
C1134 C 0.01866 0.47647 0.87759 0.0
H1135 H 0.09101 0.51413 0.84508 0.0
H1136 H 0.06374 0.51489 0.86153 0.0
H1137 H 0.08785 0.49931 0.87377 0.0
H1138 H 0.07196 0.46393 0.90238 0.0
H1139 H 0.05176 0.47563 0.9401 0.0
H1140 H 0.76895 0.91836 0.96195 0.0
H1141 H 0.73083 0.93367 0.97321 0.0
H1142 H 0.71161 0.93783 0.89726 0.0
H1143 H 0.7494 0.92196 0.88582 0.0
H1144 H 0.71006 0.97755 0.962 0.0
H1145 H 0.65566 0.89656 0.92436 0.0
H1146 H 0.68727 0.89642 0.92933 0.0
H1147 H 0.67557 0.91044 0.90302 0.0
C1148 C 0.75657 0.92235 0.9476 0.0
C1149 C 0.7623 0.91868 0.92293 0.0
C1150 C 0.7348 0.93128 0.95409 0.0
C1151 C 0.71811 0.93658 0.93613 0.0
C1152 C 0.72398 0.9335 0.9115 0.0
H1153 H 0.57347 0.97875 0.93253 0.0
H1154 H 0.61385 0.96843 0.92393 0.0
C1155 C 0.74576 0.92465 0.90498 0.0
C1156 C 0.69456 0.94517 0.9431 0.0
H1157 H 0.635 0.93059 0.93745 0.0
C1158 C 0.69362 0.96727 0.95672 0.0
C1159 C 0.67308 0.93173 0.93633 0.0
C1160 C 0.67283 0.90736 0.92265 0.0
C1161 C 0.67185 0.97668 0.96299 0.0
C1162 C 0.6503 0.96336 0.95598 0.0
C1163 C 0.65136 0.94102 0.94274 0.0
C1164 C 0.62641 0.97231 0.96144 0.0
C1165 C 0.67226 0.00122 0.97634 0.0
C1166 C 0.61981 0.97857 0.98538 0.0
C1167 C 0.59672 0.9852 0.99024 0.0
C1168 C 0.57959 0.98506 0.97135 0.0
C1169 C 0.58631 0.97919 0.94745 0.0
C1170 C 0.60941 0.9731 0.94254 0.0
H1171 H 0.68927 0.01209 0.97393 0.0
H1172 H 0.65756 0.01199 0.96998 0.0
H1173 H 0.67027 -0.00158 0.99611 0.0
H1174 H 0.63221 0.97746 0.00047 0.0
H1175 H 0.59191 0.98906 0.0089 0.0
H1176 H 0.74305 0.10392 0.46223 0.0
H1177 H 0.7822 0.0957 0.47836 0.0
H1178 H 0.8027 0.07208 0.40656 0.0
H1179 H 0.76432 0.08154 0.39002 0.0
H1180 H 0.80458 0.05286 0.47844 0.0
H1181 H 0.85677 0.12105 0.426 0.0
H1182 H 0.825 0.12115 0.42841 0.0
H1183 H 0.83787 0.10057 0.40695 0.0
C1184 C 0.75599 0.09735 0.44976 0.0
C1185 C 0.75047 0.09358 0.42474 0.0
C1186 C 0.77831 0.09249 0.45908 0.0
C1187 C 0.79555 0.08381 0.44358 0.0
C1188 C 0.7899 0.0794 0.41876 0.0
H1189 H 0.92283 0.01817 0.43993 0.0
H1190 H 0.88778 0.04078 0.43487 0.0
C1191 C 0.76773 0.08444 0.4094 0.0
C1192 C 0.81927 0.07868 0.45333 0.0
H1193 H 0.8784 0.08987 0.44405 0.0
C1194 C 0.82076 0.06131 0.47134 0.0
C1195 C 0.84034 0.08979 0.44404 0.0
C1196 C 0.83996 0.10935 0.42545 0.0
C1197 C 0.84274 0.05359 0.47917 0.0
C1198 C 0.86375 0.06392 0.46908 0.0
C1199 C 0.86228 0.08216 0.45195 0.0
C1200 C 0.88677 0.05305 0.47268 0.0
C1201 C 0.84326 0.0333 0.49695 0.0
C1202 C 0.89842 0.05309 0.49558 0.0
C1203 C 0.91882 0.04009 0.49856 0.0
C1204 C 0.9274 0.02676 0.47868 0.0
C1205 C 0.91633 0.02793 0.45568 0.0
C1206 C 0.89635 0.04097 0.4527 0.0
H1207 H 0.82524 0.02521 0.50072 0.0
H1208 H 0.85406 0.01858 0.48979 0.0
H1209 H 0.85157 0.04058 0.51441 0.0
H1210 H 0.89143 0.06263 0.51117 0.0
H1211 H 0.92716 0.03954 0.51642 0.0
H1212 H 0.24258 0.59636 0.12795 0.0
H1213 H 0.2029 0.58124 0.11338 0.0
H1214 H 0.2286 0.57401 0.0402 0.0
H1215 H 0.26833 0.589 0.05466 0.0
H1216 H 0.17949 0.60779 0.07453 0.0
H1217 H 0.18744 0.50871 0.05302 0.0
H1218 H 0.20671 0.52601 0.07491 0.0
H1219 H 0.21093 0.52944 0.04291 0.0
C1220 C 0.23982 0.59097 0.10888 0.0
C1221 C 0.25825 0.59389 0.09231 0.0
C1222 C 0.21726 0.58248 0.10062 0.0
C1223 C 0.21312 0.57658 0.07583 0.0
C1224 C 0.23172 0.57836 0.05944 0.0
H1225 H 0.08139 0.53402 0.99633 0.0
H1226 H 0.12174 0.55248 0.00452 0.0
C1227 C 0.25423 0.58702 0.06765 0.0
C1228 C 0.1889 0.57096 0.06663 0.0
H1229 H 0.15173 0.52531 0.04134 0.0
C1230 C 0.17335 0.58981 0.0672 0.0
C1231 C 0.18131 0.54751 0.05705 0.0
C1232 C 0.19735 0.52663 0.05701 0.0
C1233 C 0.15002 0.58565 0.05853 0.0
C1234 C 0.14239 0.56214 0.0492 0.0
C1235 C 0.15804 0.54343 0.04818 0.0
C1236 C 0.11745 0.55548 0.04356 0.0
C1237 C 0.13355 0.60613 0.05972 0.0
C1238 C 0.10211 0.55147 0.06287 0.0
C1239 C 0.07961 0.54047 0.05834 0.0
C1240 C 0.07218 0.53376 0.03442 0.0
C1241 C 0.08699 0.53913 0.01489 0.0
C1242 C 0.10981 0.54967 0.01951 0.0
H1243 H 0.14336 0.62426 0.06268 0.0
H1244 H 0.12268 0.60623 0.04268 0.0
H1245 H 0.12131 0.60328 0.07506 0.0
H1246 H 0.108 0.5557 0.08154 0.0
H1247 H 0.06818 0.5367 0.07355 0.0
H1248 H 0.23853 0.4035 0.57484 0.0
H1249 H 0.27743 0.41291 0.55781 0.0
H1250 H 0.26595 0.48982 0.56236 0.0
H1251 H 0.22669 0.48053 0.57923 0.0
H1252 H 0.28851 0.43831 0.51473 0.0
H1253 H 0.33036 0.48423 0.59832 0.0
H1254 H 0.30318 0.46509 0.59892 0.0
H1255 H 0.30289 0.4956 0.58825 0.0
C1256 C 0.24414 0.42242 0.572 0.0
C1257 C 0.22946 0.44128 0.57826 0.0
C1258 C 0.26642 0.42776 0.56237 0.0
C1259 C 0.27458 0.45204 0.55896 0.0
C1260 C 0.26005 0.47097 0.56517 0.0
H1261 H 0.41084 0.5081 0.50412 0.0
H1262 H 0.36808 0.50321 0.51114 0.0
C1263 C 0.23768 0.46564 0.57481 0.0
C1264 C 0.29832 0.45729 0.54883 0.0
H1265 H 0.35379 0.48252 0.5633 0.0
C1266 C 0.30276 0.44813 0.52526 0.0
C1267 C 0.31685 0.46996 0.56272 0.0
C1268 C 0.31327 0.47916 0.58853 0.0
C1269 C 0.32536 0.45117 0.51529 0.0
C1270 C 0.34387 0.46362 0.52925 0.0
C1271 C 0.33938 0.47318 0.55262 0.0
C1272 C 0.36848 0.46539 0.52075 0.0
C1273 C 0.32954 0.44084 0.49007 0.0
C1274 C 0.38256 0.44551 0.52324 0.0
C1275 C 0.40692 0.44834 0.51954 0.0
C1276 C 0.4174 0.47093 0.5128 0.0
C1277 C 0.40301 0.49031 0.50862 0.0
C1278 C 0.3787 0.48763 0.51286 0.0
H1279 H 0.31272 0.43462 0.4803 0.0
H1280 H 0.33929 0.45475 0.4792 0.0
H1281 H 0.34069 0.42503 0.49142 0.0
H1282 H 0.37493 0.42828 0.5295 0.0
H1283 H 0.41778 0.43333 0.5233 0.0
H1284 H 0.95207 0.77169 0.90916 0.0
H1285 H 0.96371 0.73326 0.9243 0.0
H1286 H 0.89417 0.71924 0.95352 0.0
H1287 H 0.88142 0.75644 0.93597 0.0
H1288 H 0.96916 0.71688 0.96597 0.0
H1289 H 0.89895 0.65519 0.92059 0.0
H1290 H 0.90308 0.68702 0.91375 0.0
H1291 H 0.88696 0.67779 0.94024 0.0
C1292 C 0.93886 0.76026 0.91813 0.0
C1293 C 0.91547 0.76731 0.9206 0.0
C1294 C 0.94575 0.73825 0.9272 0.0
C1295 C 0.92973 0.72275 0.93961 0.0
C1296 C 0.90673 0.73024 0.94325 0.0
H1297 H 0.95557 0.58317 0.00885 0.0
H1298 H 0.93964 0.62275 1e-05 0.0
C1299 C 0.89958 0.75199 0.93358 0.0
C1300 C 0.93753 0.69919 0.94906 0.0
H1301 H 0.92375 0.63739 0.94935 0.0
C1302 C 0.95912 0.69957 0.96228 0.0
C1303 C 0.92465 0.67633 0.94428 0.0
C1304 C 0.90227 0.67397 0.92873 0.0
C1305 C 0.96818 0.67804 0.97058 0.0
C1306 C 0.95523 0.65537 0.96597 0.0
C1307 C 0.93346 0.65486 0.95323 0.0
C1308 C 0.96511 0.63186 0.97234 0.0
C1309 C 0.99179 0.67963 0.98396 0.0
C1310 C 0.98472 0.62395 0.95987 0.0
C1311 C 0.99386 0.60164 0.96496 0.0
C1312 C 0.98359 0.58645 0.98263 0.0
C1313 C 0.96411 0.59454 0.99544 0.0
C1314 C 0.95488 0.61702 0.99023 0.0
H1315 H 0.99701 0.69855 0.99082 0.0
H1316 H 0.9914 0.66728 -0.00046 0.0
H1317 H 0.00559 0.67379 0.97133 0.0
H1318 H 0.99272 0.63488 0.94579 0.0
H1319 H 0.00871 0.596 0.95449 0.0
H1320 H 0.4542 0.74661 0.09419 0.0
H1321 H 0.46465 0.78782 0.08015 0.0
H1322 H 0.39229 0.80634 0.08844 0.0
H1323 H 0.38175 0.76535 0.10263 0.0
H1324 H 0.44002 0.81382 0.03916 0.0
H1325 H 0.43716 0.85682 0.13259 0.0
H1326 H 0.44081 0.82459 0.12751 0.0
H1327 H 0.41251 0.83644 0.12206 0.0
C1328 C 0.44059 0.75951 0.09296 0.0
C1329 C 0.41725 0.753 0.0995 0.0
C1330 C 0.4465 0.78285 0.08486 0.0
C1331 C 0.42919 0.79989 0.08354 0.0
C1332 C 0.40579 0.7933 0.08953 0.0
H1333 H 0.45487 0.94912 0.03498 0.0
H1334 H 0.43445 0.91423 0.05438 0.0
C1335 C 0.39983 0.76995 0.09747 0.0
C1336 C 0.43592 0.82489 0.07675 0.0
H1337 H 0.44911 0.8824 0.10095 0.0
C1338 C 0.44175 0.82892 0.05253 0.0
C1339 C 0.43792 0.84434 0.09439 0.0
C1340 C 0.4319 0.8405 0.12067 0.0
C1341 C 0.45037 0.85202 0.0456 0.0
C1342 C 0.45343 0.87119 0.06349 0.0
C1343 C 0.44666 0.86746 0.08747 0.0
C1344 C 0.466 0.89436 0.0578 0.0
C1345 C 0.45686 0.85569 0.01939 0.0
C1346 C 0.49053 0.89493 0.05478 0.0
C1347 C 0.50207 0.91456 0.04369 0.0
C1348 C 0.48919 0.93386 0.03593 0.0
C1349 C 0.46511 0.93452 0.04135 0.0
C1350 C 0.45345 0.91463 0.05217 0.0
H1351 H 0.44959 0.84033 0.00713 0.0
H1352 H 0.45024 0.873 0.01298 0.0
H1353 H 0.47644 0.85702 0.01795 0.0
H1354 H 0.50034 0.87932 0.05919 0.0
H1355 H 0.52061 0.91374 0.03938 0.0
H1356 H 0.04535 0.27614 0.59893 0.0
H1357 H 0.02852 0.23595 0.58712 0.0
H1358 H 0.07468 0.23312 0.526 0.0
H1359 H 0.09117 0.27341 0.53617 0.0
H1360 H 0.00696 0.21713 0.53911 0.0
H1361 H 0.08741 0.17254 0.56855 0.0
H1362 H 0.08131 0.20309 0.57875 0.0
H1363 H 0.09318 0.19779 0.54907 0.0
C1364 C 0.05216 0.26773 0.58274 0.0
C1365 C 0.07046 0.27923 0.56905 0.0
C1366 C 0.04227 0.24434 0.5761 0.0
C1367 C 0.05059 0.23158 0.55591 0.0
C1368 C 0.06823 0.2427 0.54188 0.0
H1369 H 0.03837 0.08807 0.49066 0.0
H1370 H 0.03999 0.13283 0.49451 0.0
C1371 C 0.07787 0.26615 0.54815 0.0
C1372 C 0.04148 0.2063 0.54961 0.0
H1373 H 0.05906 0.14822 0.54434 0.0
C1374 C 0.01822 0.20198 0.54035 0.0
C1375 C 0.05623 0.18667 0.55155 0.0
C1376 C 0.08086 0.19011 0.56273 0.0
C1377 C 0.00961 0.17844 0.53213 0.0
C1378 C 0.02474 0.15909 0.53318 0.0
C1379 C 0.04774 0.16335 0.54303 0.0
C1380 C 0.01705 0.13376 0.52554 0.0
C1381 C 0.98466 0.17435 0.52205 0.0
C1382 C 0.00258 0.11976 0.54089 0.0
C1383 C 0.00165 0.09433 0.53865 0.0
C1384 C 0.01507 0.08278 0.52099 0.0
C1385 C 0.02747 0.09674 0.50399 0.0
C1386 C 0.02851 0.12222 0.5063 0.0
H1387 H 0.97637 0.19182 0.51912 0.0
H1388 H 0.98448 0.16359 0.50451 0.0
H1389 H 0.97376 0.16363 0.535 0.0
H1390 H 0.99399 0.12836 0.5561 0.0
H1391 H 0.99244 0.08374 0.55227 0.0
H1392 H 0.60404 0.2394 0.47418 0.0
H1393 H 0.58454 0.27607 0.48742 0.0
H1394 H 0.57541 0.29508 0.41253 0.0
H1395 H 0.59532 0.25894 0.39913 0.0
H1396 H 0.59856 0.32818 0.47298 0.0
H1397 H 0.50745 0.29273 0.44451 0.0
H1398 H 0.53093 0.27279 0.45031 0.0
H1399 H 0.53024 0.28906 0.42256 0.0
C1400 C 0.59811 0.25154 0.46056 0.0
C1401 C 0.60108 0.24623 0.43562 0.0
C1402 C 0.58688 0.27233 0.46814 0.0
C1403 C 0.57836 0.28794 0.45089 0.0
C1404 C 0.58159 0.28294 0.42604 0.0
H1405 H 0.51236 0.41748 0.43284 0.0
H1406 H 0.52755 0.37715 0.43237 0.0
C1407 C 0.59288 0.26227 0.41845 0.0
C1408 C 0.56625 0.30971 0.4587 0.0
H1409 H 0.51297 0.33495 0.45547 0.0
C1410 C 0.57976 0.32964 0.46962 0.0
C1411 C 0.54182 0.31137 0.454 0.0
C1412 C 0.52664 0.29031 0.44235 0.0
C1413 C 0.56962 0.35181 0.47492 0.0
C1414 C 0.54522 0.35363 0.46977 0.0
C1415 C 0.53158 0.33332 0.45969 0.0
C1416 C 0.53428 0.37728 0.47128 0.0
C1417 C 0.58532 0.3735 0.48447 0.0
C1418 C 0.5324 0.39044 0.49351 0.0
C1419 C 0.52364 0.41374 0.49386 0.0
C1420 C 0.5168 0.42399 0.47195 0.0
C1421 C 0.51764 0.41013 0.45001 0.0
C1422 C 0.5263 0.38706 0.44969 0.0
H1423 H 0.60441 0.36992 0.484 0.0
H1424 H 0.58244 0.38976 0.4736 0.0
H1425 H 0.58082 0.37796 0.50361 0.0
H1426 H 0.53818 0.38294 0.51041 0.0
H1427 H 0.52328 0.42411 0.511 0.0
loop_
_geom_bond_atom_site_label_1
_geom_bond_atom_site_label_2
_geom_bond_distance
_geom_bond_site_symmetry_2
_ccdc_geom_bond_type
C0 C1 1.391 . S
C0 C4 1.391 . S
C0 H42 0.948 . S
C1 C0 1.391 . S
C1 C2 1.391 . S
C2 C1 1.391 . S
C2 H58 0.947 . S
C2 C59 1.392 . S
C3 C4 1.391 . S
C3 C7 1.397 . S
C3 C59 1.419 . S
C4 C0 1.391 . S
C4 C3 1.391 . S
C4 C5 1.399 . S
C5 C4 1.399 . S
C5 C8 1.396 . S
C5 C17 1.453 . S
C5 C18 1.684 . S
H6 C30 0.948 . S
C7 C3 1.397 . S
C7 C8 1.394 . S
C7 C26 1.723 . S
C8 C5 1.396 . S
C8 C7 1.394 . S
C8 C38 1.723 . S
H9 C32 0.947 . S
H10 C33 0.948 . S
H11 C39 0.982 . S
H12 C40 0.979 . S
H13 C40 0.980 . S
H14 C40 0.983 . S
H15 C39 0.979 . S
H16 C39 0.977 . S
C17 C5 1.453 . S
C17 H46 0.982 . S
C17 H47 0.979 . S
C17 H48 0.977 . S
C18 C5 1.684 . S
C18 H43 0.979 . S
C18 H44 0.980 . S
C18 H45 0.983 . S
C19 C20 1.391 . S
C19 C24 1.391 . S
C19 H49 0.948 . S
C20 C19 1.391 . S
C20 C21 1.391 . S
C21 C20 1.391 . S
C21 C22 1.392 . S
C21 H50 0.947 . S
C22 C21 1.392 . S
C22 C23 1.419 . S
C22 H51 0.948 . S
C23 C22 1.419 . S
C23 C24 1.391 . S
C23 C27 1.397 . S
C24 C19 1.391 . S
C24 C23 1.391 . S
C24 C25 1.399 . S
C25 C24 1.399 . S
C25 C26 1.396 . S
C25 C28 1.453 . S
C25 C29 1.684 . S
C26 C7 1.723 . S
C26 C25 1.396 . S
C26 C27 1.394 . S
C27 C23 1.397 . S
C27 C26 1.394 . S
C27 C37 1.723 . S
C28 C25 1.453 . S
C28 H52 0.982 . S
C28 H53 0.979 . S
C28 H54 0.977 . S
C29 C25 1.684 . S
C29 H55 0.979 . S
C29 H56 0.980 . S
C29 H57 0.983 . S
C30 H6 0.948 . S
C30 C31 1.391 . S
C30 C35 1.391 . S
C31 C30 1.391 . S
C31 C32 1.391 . S
C32 H9 0.947 . S
C32 C31 1.391 . S
C32 C33 1.392 . S
C33 H10 0.948 . S
C33 C32 1.392 . S
C33 C34 1.419 . S
C34 C33 1.419 . S
C34 C35 1.391 . S
C34 C38 1.397 . S
C35 C30 1.391 . S
C35 C34 1.391 . S
C35 C36 1.399 . S
C36 C35 1.399 . S
C36 C37 1.396 . S
C36 C39 1.453 . S
C36 C40 1.684 . S
C37 C27 1.723 . S
C37 C36 1.396 . S
C37 C38 1.394 . S
C38 C8 1.723 . S
C38 C34 1.397 . S
C38 C37 1.394 . S
C39 H11 0.982 . S
C39 H15 0.979 . S
C39 H16 0.977 . S
C39 C36 1.453 . S
C40 H12 0.979 . S
C40 H13 0.980 . S
C40 H14 0.983 . S
C40 C36 1.684 . S
H41 C59 0.948 . S
H42 C0 0.948 . S
H43 C18 0.979 . S
H44 C18 0.980 . S
H45 C18 0.983 . S
H46 C17 0.982 . S
H47 C17 0.979 . S
H48 C17 0.977 . S
H49 C19 0.948 . S
H50 C21 0.947 . S
H51 C22 0.948 . S
H52 C28 0.982 . S
H53 C28 0.979 . S
H54 C28 0.977 . S
H55 C29 0.979 . S
H56 C29 0.980 . S
H57 C29 0.983 . S
H58 C2 0.947 . S
C59 C2 1.392 . S
C59 C3 1.419 . S
C59 H41 0.948 . S
C60 C61 1.391 . S
C60 C64 1.391 . S
C60 H102 0.948 . S
C61 C60 1.391 . S
C61 C62 1.391 . S
C62 C61 1.391 . S
C62 H118 0.947 . S
C62 C119 1.392 . S
C63 C64 1.391 . S
C63 C67 1.397 . S
C63 C119 1.419 . S
C64 C60 1.391 . S
C64 C63 1.391 . S
C64 C65 1.399 . S
C65 C64 1.399 . S
C65 C68 1.396 . S
C65 C77 1.453 . S
C65 C78 1.684 . S
H66 C90 0.948 . S
C67 C63 1.397 . S
C67 C68 1.394 . S
C67 C86 1.723 . S
C68 C65 1.396 . S
C68 C67 1.394 . S
C68 C98 1.723 . S
H69 C92 0.947 . S
H70 C93 0.948 . S
H71 C99 0.982 . S
H72 C100 0.979 . S
H73 C100 0.980 . S
H74 C100 0.983 . S
H75 C99 0.979 . S
H76 C99 0.977 . S
C77 C65 1.453 . S
C77 H106 0.982 . S
C77 H107 0.979 . S
C77 H108 0.977 . S
C78 C65 1.684 . S
C78 H103 0.979 . S
C78 H104 0.980 . S
C78 H105 0.983 . S
C79 C80 1.391 . S
C79 C84 1.391 . S
C79 H109 0.948 . S
C80 C79 1.391 . S
C80 C81 1.391 . S
C81 C80 1.391 . S
C81 C82 1.392 . S
C81 H110 0.947 . S
C82 C81 1.392 . S
C82 C83 1.419 . S
C82 H111 0.948 . S
C83 C82 1.419 . S
C83 C84 1.391 . S
C83 C87 1.397 . S
C84 C79 1.391 . S
C84 C83 1.391 . S
C84 C85 1.399 . S
C85 C84 1.399 . S
C85 C86 1.396 . S
C85 C88 1.453 . S
C85 C89 1.684 . S
C86 C67 1.723 . S
C86 C85 1.396 . S
C86 C87 1.394 . S
C87 C83 1.397 . S
C87 C86 1.394 . S
C87 C97 1.723 . S
C88 C85 1.453 . S
C88 H112 0.982 . S
C88 H113 0.979 . S
C88 H114 0.977 . S
C89 C85 1.684 . S
C89 H115 0.979 . S
C89 H116 0.980 . S
C89 H117 0.983 . S
C90 H66 0.948 . S
C90 C91 1.391 . S
C90 C95 1.391 . S
C91 C90 1.391 . S
C91 C92 1.391 . S
C92 H69 0.947 . S
C92 C91 1.391 . S
C92 C93 1.392 . S
C93 H70 0.948 . S
C93 C92 1.392 . S
C93 C94 1.419 . S
C94 C93 1.419 . S
C94 C95 1.391 . S
C94 C98 1.397 . S
C95 C90 1.391 . S
C95 C94 1.391 . S
C95 C96 1.399 . S
C96 C95 1.399 . S
C96 C97 1.396 . S
C96 C99 1.453 . S
C96 C100 1.684 . S
C97 C87 1.723 . S
C97 C96 1.396 . S
C97 C98 1.394 . S
C98 C68 1.723 . S
C98 C94 1.397 . S
C98 C97 1.394 . S
C99 H71 0.982 . S
C99 H75 0.979 . S
C99 H76 0.977 . S
C99 C96 1.453 . S
C100 H72 0.979 . S
C100 H73 0.980 . S
C100 H74 0.983 . S
C100 C96 1.684 . S
H101 C119 0.948 . S
H102 C60 0.948 . S
H103 C78 0.979 . S
H104 C78 0.980 . S
H105 C78 0.983 . S
H106 C77 0.982 . S
H107 C77 0.979 . S
H108 C77 0.977 . S
H109 C79 0.948 . S
H110 C81 0.947 . S
H111 C82 0.948 . S
H112 C88 0.982 . S
H113 C88 0.979 . S
H114 C88 0.977 . S
H115 C89 0.979 . S
H116 C89 0.980 . S
H117 C89 0.983 . S
H118 C62 0.947 . S
C119 C62 1.392 . S
C119 C63 1.419 . S
C119 H101 0.948 . S
C120 C121 1.391 . S
C120 C124 1.391 . S
C120 H162 0.948 . S
C121 C120 1.391 . S
C121 C122 1.391 . S
C122 C121 1.391 . S
C122 H178 0.947 . S
C122 C179 1.392 . S
C123 C124 1.391 . S
C123 C127 1.397 . S
C123 C179 1.419 . S
C124 C120 1.391 . S
C124 C123 1.391 . S
C124 C125 1.399 . S
C125 C124 1.399 . S
C125 C128 1.396 . S
C125 C137 1.453 . S
C125 C138 1.684 . S
H126 C150 0.948 . S
C127 C123 1.397 . S
C127 C128 1.394 . S
C127 C146 1.723 . S
C128 C125 1.396 . S
C128 C127 1.394 . S
C128 C158 1.723 . S
H129 C152 0.947 . S
H130 C153 0.948 . S
H131 C159 0.982 . S
H132 C160 0.979 . S
H133 C160 0.980 . S
H134 C160 0.983 . S
H135 C159 0.979 . S
H136 C159 0.977 . S
C137 C125 1.453 . S
C137 H166 0.982 . S
C137 H167 0.979 . S
C137 H168 0.977 . S
C138 C125 1.684 . S
C138 H163 0.979 . S
C138 H164 0.980 . S
C138 H165 0.983 . S
C139 C140 1.391 . S
C139 C144 1.391 . S
C139 H169 0.948 . S
C140 C139 1.391 . S
C140 C141 1.391 . S
C141 C140 1.391 . S
C141 C142 1.392 . S
C141 H170 0.947 . S
C142 C141 1.392 . S
C142 C143 1.419 . S
C142 H171 0.948 . S
C143 C142 1.419 . S
C143 C144 1.391 . S
C143 C147 1.397 . S
C144 C139 1.391 . S
C144 C143 1.391 . S
C144 C145 1.399 . S
C145 C144 1.399 . S
C145 C146 1.396 . S
C145 C148 1.453 . S
C145 C149 1.684 . S
C146 C127 1.723 . S
C146 C145 1.396 . S
C146 C147 1.394 . S
C147 C143 1.397 . S
C147 C146 1.394 . S
C147 C157 1.723 . S
C148 C145 1.453 . S
C148 H172 0.982 . S
C148 H173 0.979 . S
C148 H174 0.977 . S
C149 C145 1.684 . S
C149 H175 0.979 . S
C149 H176 0.980 . S
C149 H177 0.983 . S
C150 H126 0.948 . S
C150 C151 1.391 . S
C150 C155 1.391 . S
C151 C150 1.391 . S
C151 C152 1.391 . S
C152 H129 0.947 . S
C152 C151 1.391 . S
C152 C153 1.392 . S
C153 H130 0.948 . S
C153 C152 1.392 . S
C153 C154 1.419 . S
C154 C153 1.419 . S
C154 C155 1.391 . S
C154 C158 1.397 . S
C155 C150 1.391 . S
C155 C154 1.391 . S
C155 C156 1.399 . S
C156 C155 1.399 . S
C156 C157 1.396 . S
C156 C159 1.453 . S
C156 C160 1.684 . S
C157 C147 1.723 . S
C157 C156 1.396 . S
C157 C158 1.394 . S
C158 C128 1.723 . S
C158 C154 1.397 . S
C158 C157 1.394 . S
C159 H131 0.982 . S
C159 H135 0.979 . S
C159 H136 0.977 . S
C159 C156 1.453 . S
C160 H132 0.979 . S
C160 H133 0.980 . S
C160 H134 0.983 . S
C160 C156 1.684 . S
H161 C179 0.948 . S
H162 C120 0.948 . S
H163 C138 0.979 . S
H164 C138 0.980 . S
H165 C138 0.983 . S
H166 C137 0.982 . S
H167 C137 0.979 . S
H168 C137 0.977 . S
H169 C139 0.948 . S
H170 C141 0.947 . S
H171 C142 0.948 . S
H172 C148 0.982 . S
H173 C148 0.979 . S
H174 C148 0.977 . S
H175 C149 0.979 . S
H176 C149 0.980 . S
H177 C149 0.983 . S
H178 C122 0.947 . S
C179 C122 1.392 . S
C179 C123 1.419 . S
C179 H161 0.948 . S
C180 C181 1.391 . S
C180 C184 1.391 . S
C180 H222 0.948 . S
C181 C180 1.391 . S
C181 C182 1.391 . S
C182 C181 1.391 . S
C182 H238 0.947 . S
C182 C239 1.392 . S
C183 C184 1.391 . S
C183 C187 1.397 . S
C183 C239 1.419 . S
C184 C180 1.391 . S
C184 C183 1.391 . S
C184 C185 1.399 . S
C185 C184 1.399 . S
C185 C188 1.396 . S
C185 C197 1.453 . S
C185 C198 1.684 . S
H186 C210 0.948 . S
C187 C183 1.397 . S
C187 C188 1.394 . S
C187 C206 1.723 . S
C188 C185 1.396 . S
C188 C187 1.394 . S
C188 C218 1.723 . S
H189 C212 0.947 . S
H190 C213 0.948 . S
H191 C219 0.982 . S
H192 C220 0.979 . S
H193 C220 0.980 . S
H194 C220 0.983 . S
H195 C219 0.979 . S
H196 C219 0.977 . S
C197 C185 1.453 . S
C197 H226 0.982 . S
C197 H227 0.979 . S
C197 H228 0.977 . S
C198 C185 1.684 . S
C198 H223 0.979 . S
C198 H224 0.980 . S
C198 H225 0.983 . S
C199 C200 1.391 . S
C199 C204 1.391 . S
C199 H229 0.948 . S
C200 C199 1.391 . S
C200 C201 1.391 . S
C201 C200 1.391 . S
C201 C202 1.392 . S
C201 H230 0.947 . S
C202 C201 1.392 . S
C202 C203 1.419 . S
C202 H231 0.948 . S
C203 C202 1.419 . S
C203 C204 1.391 . S
C203 C207 1.397 . S
C204 C199 1.391 . S
C204 C203 1.391 . S
C204 C205 1.399 . S
C205 C204 1.399 . S
C205 C206 1.396 . S
C205 C208 1.453 . S
C205 C209 1.684 . S
C206 C187 1.723 . S
C206 C205 1.396 . S
C206 C207 1.394 . S
C207 C203 1.397 . S
C207 C206 1.394 . S
C207 C217 1.723 . S
C208 C205 1.453 . S
C208 H232 0.982 . S
C208 H233 0.979 . S
C208 H234 0.977 . S
C209 C205 1.684 . S
C209 H235 0.979 . S
C209 H236 0.980 . S
C209 H237 0.983 . S
C210 H186 0.948 . S
C210 C211 1.391 . S
C210 C215 1.391 . S
C211 C210 1.391 . S
C211 C212 1.391 . S
C212 H189 0.947 . S
C212 C211 1.391 . S
C212 C213 1.392 . S
C213 H190 0.948 . S
C213 C212 1.392 . S
C213 C214 1.419 . S
C214 C213 1.419 . S
C214 C215 1.391 . S
C214 C218 1.397 . S
C215 C210 1.391 . S
C215 C214 1.391 . S
C215 C216 1.399 . S
C216 C215 1.399 . S
C216 C217 1.396 . S
C216 C219 1.453 . S
C216 C220 1.684 . S
C217 C207 1.723 . S
C217 C216 1.396 . S
C217 C218 1.394 . S
C218 C188 1.723 . S
C218 C214 1.397 . S
C218 C217 1.394 . S
C219 H191 0.982 . S
C219 H195 0.979 . S
C219 H196 0.977 . S
C219 C216 1.453 . S
C220 H192 0.979 . S
C220 H193 0.980 . S
C220 H194 0.983 . S
C220 C216 1.684 . S
H221 C239 0.948 . S
H222 C180 0.948 . S
H223 C198 0.979 . S
H224 C198 0.980 . S
H225 C198 0.983 . S
H226 C197 0.982 . S
H227 C197 0.979 . S
H228 C197 0.977 . S
H229 C199 0.948 . S
H230 C201 0.947 . S
H231 C202 0.948 . S
H232 C208 0.982 . S
H233 C208 0.979 . S
H234 C208 0.977 . S
H235 C209 0.979 . S
H236 C209 0.980 . S
H237 C209 0.983 . S
H238 C182 0.947 . S
C239 C182 1.392 . S
C239 C183 1.419 . S
C239 H221 0.948 . S
C240 C241 1.391 . S
C240 C244 1.391 . S
C240 H282 0.948 . S
C241 C240 1.391 . S
C241 C242 1.391 . S
C242 C241 1.391 . S
C242 H298 0.947 . S
C242 C299 1.392 . S
C243 C244 1.391 . S
C243 C247 1.397 . S
C243 C299 1.419 . S
C244 C240 1.391 . S
C244 C243 1.391 . S
C244 C245 1.399 . S
C245 C244 1.399 . S
C245 C248 1.396 . S
C245 C257 1.453 . S
C245 C258 1.684 . S
H246 C270 0.948 . S
C247 C243 1.397 . S
C247 C248 1.394 . S
C247 C266 1.723 . S
C248 C245 1.396 . S
C248 C247 1.394 . S
C248 C278 1.723 . S
H249 C272 0.947 . S
H250 C273 0.948 . S
H251 C279 0.982 . S
H252 C280 0.979 . S
H253 C280 0.980 . S
H254 C280 0.983 . S
H255 C279 0.979 . S
H256 C279 0.977 . S
C257 C245 1.453 . S
C257 H286 0.982 . S
C257 H287 0.979 . S
C257 H288 0.977 . S
C258 C245 1.684 . S
C258 H283 0.979 . S
C258 H284 0.980 . S
C258 H285 0.983 . S
C259 C260 1.391 . S
C259 C264 1.391 . S
C259 H289 0.948 . S
C260 C259 1.391 . S
C260 C261 1.391 . S
C261 C260 1.391 . S
C261 C262 1.392 . S
C261 H290 0.947 . S
C262 C261 1.392 . S
C262 C263 1.419 . S
C262 H291 0.948 . S
C263 C262 1.419 . S
C263 C264 1.391 . S
C263 C267 1.397 . S
C264 C259 1.391 . S
C264 C263 1.391 . S
C264 C265 1.399 . S
C265 C264 1.399 . S
C265 C266 1.396 . S
C265 C268 1.453 . S
C265 C269 1.684 . S
C266 C247 1.723 . S
C266 C265 1.396 . S
C266 C267 1.394 . S
C267 C263 1.397 . S
C267 C266 1.394 . S
C267 C277 1.723 . S
C268 C265 1.453 . S
C268 H292 0.982 . S
C268 H293 0.979 . S
C268 H294 0.977 . S
C269 C265 1.684 . S
C269 H295 0.979 . S
C269 H296 0.980 . S
C269 H297 0.983 . S
C270 H246 0.948 . S
C270 C271 1.391 . S
C270 C275 1.391 . S
C271 C270 1.391 . S
C271 C272 1.391 . S
C272 H249 0.947 . S
C272 C271 1.391 . S
C272 C273 1.392 . S
C273 H250 0.948 . S
C273 C272 1.392 . S
C273 C274 1.419 . S
C274 C273 1.419 . S
C274 C275 1.391 . S
C274 C278 1.397 . S
C275 C270 1.391 . S
C275 C274 1.391 . S
C275 C276 1.399 . S
C276 C275 1.399 . S
C276 C277 1.396 . S
C276 C279 1.453 . S
C276 C280 1.684 . S
C277 C267 1.723 . S
C277 C276 1.396 . S
C277 C278 1.394 . S
C278 C248 1.723 . S
C278 C274 1.397 . S
C278 C277 1.394 . S
C279 H251 0.982 . S
C279 H255 0.979 . S
C279 H256 0.977 . S
C279 C276 1.453 . S
C280 H252 0.979 . S
C280 H253 0.980 . S
C280 H254 0.983 . S
C280 C276 1.684 . S
H281 C299 0.948 . S
H282 C240 0.948 . S
H283 C258 0.979 . S
H284 C258 0.980 . S
H285 C258 0.983 . S
H286 C257 0.982 . S
H287 C257 0.979 . S
H288 C257 0.977 . S
H289 C259 0.948 . S
H290 C261 0.947 . S
H291 C262 0.948 . S
H292 C268 0.982 . S
H293 C268 0.979 . S
H294 C268 0.977 . S
H295 C269 0.979 . S
H296 C269 0.980 . S
H297 C269 0.983 . S
H298 C242 0.947 . S
C299 C242 1.392 . S
C299 C243 1.419 . S
C299 H281 0.948 . S
C300 C301 1.391 . S
C300 C304 1.391 . S
C300 H342 0.948 . S
C301 C300 1.391 . S
C301 C302 1.391 . S
C302 C301 1.391 . S
C302 H358 0.947 . S
C302 C359 1.392 . S
C303 C304 1.391 . S
C303 C307 1.397 . S
C303 C359 1.419 . S
C304 C300 1.391 . S
C304 C303 1.391 . S
C304 C305 1.399 . S
C305 C304 1.399 . S
C305 C308 1.396 . S
C305 C317 1.453 . S
C305 C318 1.684 . S
H306 C330 0.948 . S
C307 C303 1.397 . S
C307 C308 1.394 . S
C307 C326 1.723 . S
C308 C305 1.396 . S
C308 C307 1.394 . S
C308 C338 1.723 . S
H309 C332 0.947 . S
H310 C333 0.948 . S
H311 C339 0.982 . S
H312 C340 0.979 . S
H313 C340 0.980 . S
H314 C340 0.983 . S
H315 C339 0.979 . S
H316 C339 0.977 . S
C317 C305 1.453 . S
C317 H346 0.982 . S
C317 H347 0.979 . S
C317 H348 0.977 . S
C318 C305 1.684 . S
C318 H343 0.979 . S
C318 H344 0.980 . S
C318 H345 0.983 . S
C319 C320 1.391 . S
C319 C324 1.391 . S
C319 H349 0.948 . S
C320 C319 1.391 . S
C320 C321 1.391 . S
C321 C320 1.391 . S
C321 C322 1.392 . S
C321 H350 0.947 . S
C322 C321 1.392 . S
C322 C323 1.419 . S
C322 H351 0.948 . S
C323 C322 1.419 . S
C323 C324 1.391 . S
C323 C327 1.397 . S
C324 C319 1.391 . S
C324 C323 1.391 . S
C324 C325 1.399 . S
C325 C324 1.399 . S
C325 C326 1.396 . S
C325 C328 1.453 . S
C325 C329 1.684 . S
C326 C307 1.723 . S
C326 C325 1.396 . S
C326 C327 1.394 . S
C327 C323 1.397 . S
C327 C326 1.394 . S
C327 C337 1.723 . S
C328 C325 1.453 . S
C328 H352 0.982 . S
C328 H353 0.979 . S
C328 H354 0.977 . S
C329 C325 1.684 . S
C329 H355 0.979 . S
C329 H356 0.980 . S
C329 H357 0.983 . S
C330 H306 0.948 . S
C330 C331 1.391 . S
C330 C335 1.391 . S
C331 C330 1.391 . S
C331 C332 1.391 . S
C332 H309 0.947 . S
C332 C331 1.391 . S
C332 C333 1.392 . S
C333 H310 0.948 . S
C333 C332 1.392 . S
C333 C334 1.419 . S
C334 C333 1.419 . S
C334 C335 1.391 . S
C334 C338 1.397 . S
C335 C330 1.391 . S
C335 C334 1.391 . S
C335 C336 1.399 . S
C336 C335 1.399 . S
C336 C337 1.396 . S
C336 C339 1.453 . S
C336 C340 1.684 . S
C337 C327 1.723 . S
C337 C336 1.396 . S
C337 C338 1.394 . S
C338 C308 1.723 . S
C338 C334 1.397 . S
C338 C337 1.394 . S
C339 H311 0.982 . S
C339 H315 0.979 . S
C339 H316 0.977 . S
C339 C336 1.453 . S
C340 H312 0.979 . S
C340 H313 0.980 . S
C340 H314 0.983 . S
C340 C336 1.684 . S
H341 C359 0.948 . S
H342 C300 0.948 . S
H343 C318 0.979 . S
H344 C318 0.980 . S
H345 C318 0.983 . S
H346 C317 0.982 . S
H347 C317 0.979 . S
H348 C317 0.977 . S
H349 C319 0.948 . S
H350 C321 0.947 . S
H351 C322 0.948 . S
H352 C328 0.982 . S
H353 C328 0.979 . S
H354 C328 0.977 . S
H355 C329 0.979 . S
H356 C329 0.980 . S
H357 C329 0.983 . S
H358 C302 0.947 . S
C359 C302 1.392 . S
C359 C303 1.419 . S
C359 H341 0.948 . S
C360 C361 1.391 . S
C360 C364 1.391 . S
C360 H402 0.948 . S
C361 C360 1.391 . S
C361 C362 1.391 . S
C362 C361 1.391 . S
C362 H418 0.947 . S
C362 C419 1.392 . S
C363 C364 1.391 . S
C363 C367 1.397 . S
C363 C419 1.419 . S
C364 C360 1.391 . S
C364 C363 1.391 . S
C364 C365 1.399 . S
C365 C364 1.399 . S
C365 C368 1.396 . S
C365 C377 1.453 . S
C365 C378 1.684 . S
H366 C390 0.948 . S
C367 C363 1.397 . S
C367 C368 1.394 . S
C367 C386 1.723 . S
C368 C365 1.396 . S
C368 C367 1.394 . S
C368 C398 1.723 . S
H369 C392 0.947 . S
H370 C393 0.948 . S
H371 C399 0.982 . S
H372 C400 0.979 . S
H373 C400 0.980 . S
H374 C400 0.983 . S
H375 C399 0.979 . S
H376 C399 0.977 . S
C377 C365 1.453 . S
C377 H406 0.982 . S
C377 H407 0.979 . S
C377 H408 0.977 . S
C378 C365 1.684 . S
C378 H403 0.979 . S
C378 H404 0.980 . S
C378 H405 0.983 . S
C379 C380 1.391 . S
C379 C384 1.391 . S
C379 H409 0.948 . S
C380 C379 1.391 . S
C380 C381 1.391 . S
C381 C380 1.391 . S
C381 C382 1.392 . S
C381 H410 0.947 . S
C382 C381 1.392 . S
C382 C383 1.419 . S
C382 H411 0.948 . S
C383 C382 1.419 . S
C383 C384 1.391 . S
C383 C387 1.397 . S
C384 C379 1.391 . S
C384 C383 1.391 . S
C384 C385 1.399 . S
C385 C384 1.399 . S
C385 C386 1.396 . S
C385 C388 1.453 . S
C385 C389 1.684 . S
C386 C367 1.723 . S
C386 C385 1.396 . S
C386 C387 1.394 . S
C387 C383 1.397 . S
C387 C386 1.394 . S
C387 C397 1.723 . S
C388 C385 1.453 . S
C388 H412 0.982 . S
C388 H413 0.979 . S
C388 H414 0.977 . S
C389 C385 1.684 . S
C389 H415 0.979 . S
C389 H416 0.980 . S
C389 H417 0.983 . S
C390 H366 0.948 . S
C390 C391 1.391 . S
C390 C395 1.391 . S
C391 C390 1.391 . S
C391 C392 1.391 . S
C392 H369 0.947 . S
C392 C391 1.391 . S
C392 C393 1.392 . S
C393 H370 0.948 . S
C393 C392 1.392 . S
C393 C394 1.419 . S
C394 C393 1.419 . S
C394 C395 1.391 . S
C394 C398 1.397 . S
C395 C390 1.391 . S
C395 C394 1.391 . S
C395 C396 1.399 . S
C396 C395 1.399 . S
C396 C397 1.396 . S
C396 C399 1.453 . S
C396 C400 1.684 . S
C397 C387 1.723 . S
C397 C396 1.396 . S
C397 C398 1.394 . S
C398 C368 1.723 . S
C398 C394 1.397 . S
C398 C397 1.394 . S
C399 H371 0.982 . S
C399 H375 0.979 . S
C399 H376 0.977 . S
C399 C396 1.453 . S
C400 H372 0.979 . S
C400 H373 0.980 . S
C400 H374 0.983 . S
C400 C396 1.684 . S
H401 C419 0.948 . S
H402 C360 0.948 . S
H403 C378 0.979 . S
H404 C378 0.980 . S
H405 C378 0.983 . S
H406 C377 0.982 . S
H407 C377 0.979 . S
H408 C377 0.977 . S
H409 C379 0.948 . S
H410 C381 0.947 . S
H411 C382 0.948 . S
H412 C388 0.982 . S
H413 C388 0.979 . S
H414 C388 0.977 . S
H415 C389 0.979 . S
H416 C389 0.980 . S
H417 C389 0.983 . S
H418 C362 0.947 . S
C419 C362 1.392 . S
C419 C363 1.419 . S
C419 H401 0.948 . S
C420 C421 1.391 . S
C420 C424 1.391 . S
C420 H462 0.948 . S
C421 C420 1.391 . S
C421 C422 1.391 . S
C422 C421 1.391 . S
C422 H478 0.947 . S
C422 C479 1.392 . S
C423 C424 1.391 . S
C423 C427 1.397 . S
C423 C479 1.419 . S
C424 C420 1.391 . S
C424 C423 1.391 . S
C424 C425 1.399 . S
C425 C424 1.399 . S
C425 C428 1.396 . S
C425 C437 1.453 . S
C425 C438 1.684 . S
H426 C450 0.948 . S
C427 C423 1.397 . S
C427 C428 1.394 . S
C427 C446 1.723 . S
C428 C425 1.396 . S
C428 C427 1.394 . S
C428 C458 1.723 . S
H429 C452 0.947 . S
H430 C453 0.948 . S
H431 C459 0.982 . S
H432 C460 0.979 . S
H433 C460 0.980 . S
H434 C460 0.983 . S
H435 C459 0.979 . S
H436 C459 0.977 . S
C437 C425 1.453 . S
C437 H466 0.982 . S
C437 H467 0.979 . S
C437 H468 0.977 . S
C438 C425 1.684 . S
C438 H463 0.979 . S
C438 H464 0.980 . S
C438 H465 0.983 . S
C439 C440 1.391 . S
C439 C444 1.391 . S
C439 H469 0.948 . S
C440 C439 1.391 . S
C440 C441 1.391 . S
C441 C440 1.391 . S
C441 C442 1.392 . S
C441 H470 0.947 . S
C442 C441 1.392 . S
C442 C443 1.419 . S
C442 H471 0.948 . S
C443 C442 1.419 . S
C443 C444 1.391 . S
C443 C447 1.397 . S
C444 C439 1.391 . S
C444 C443 1.391 . S
C444 C445 1.399 . S
C445 C444 1.399 . S
C445 C446 1.396 . S
C445 C448 1.453 . S
C445 C449 1.684 . S
C446 C427 1.723 . S
C446 C445 1.396 . S
C446 C447 1.394 . S
C447 C443 1.397 . S
C447 C446 1.394 . S
C447 C457 1.723 . S
C448 C445 1.453 . S
C448 H472 0.982 . S
C448 H473 0.979 . S
C448 H474 0.977 . S
C449 C445 1.684 . S
C449 H475 0.979 . S
C449 H476 0.980 . S
C449 H477 0.983 . S
C450 H426 0.948 . S
C450 C451 1.391 . S
C450 C455 1.391 . S
C451 C450 1.391 . S
C451 C452 1.391 . S
C452 H429 0.947 . S
C452 C451 1.391 . S
C452 C453 1.392 . S
C453 H430 0.948 . S
C453 C452 1.392 . S
C453 C454 1.419 . S
C454 C453 1.419 . S
C454 C455 1.391 . S
C454 C458 1.397 . S
C455 C450 1.391 . S
C455 C454 1.391 . S
C455 C456 1.399 . S
C456 C455 1.399 . S
C456 C457 1.396 . S
C456 C459 1.453 . S
C456 C460 1.684 . S
C457 C447 1.723 . S
C457 C456 1.396 . S
C457 C458 1.394 . S
C458 C428 1.723 . S
C458 C454 1.397 . S
C458 C457 1.394 . S
C459 H431 0.982 . S
C459 H435 0.979 . S
C459 H436 0.977 . S
C459 C456 1.453 . S
C460 H432 0.979 . S
C460 H433 0.980 . S
C460 H434 0.983 . S
C460 C456 1.684 . S
H461 C479 0.948 . S
H462 C420 0.948 . S
H463 C438 0.979 . S
H464 C438 0.980 . S
H465 C438 0.983 . S
H466 C437 0.982 . S
H467 C437 0.979 . S
H468 C437 0.977 . S
H469 C439 0.948 . S
H470 C441 0.947 . S
H471 C442 0.948 . S
H472 C448 0.982 . S
H473 C448 0.979 . S
H474 C448 0.977 . S
H475 C449 0.979 . S
H476 C449 0.980 . S
H477 C449 0.983 . S
H478 C422 0.947 . S
C479 C422 1.392 . S
C479 C423 1.419 . S
C479 H461 0.948 . S
O480 Mg481 1.990 . S
O480 C494 1.253 1_445 S
Mg481 O480 1.990 . S
Mg481 O484 2.180 . S
Mg481 O485 2.117 . S
Mg481 O499 2.030 1_545 S
O482 Mg483 2.072 1_665 S
O482 C494 1.260 . S
Mg483 O482 2.072 1_445 S
Mg483 O484 2.099 . S
Mg483 O486 2.079 . S
Mg483 O487 2.072 1_455 S
Mg483 O489 2.099 1_445 S
Mg483 O500 2.079 1_545 S
O484 Mg481 2.180 . S
O484 Mg483 2.099 . S
O484 C495 1.279 . S
O485 Mg481 2.117 . S
O485 C495 1.250 . S
O486 Mg483 2.079 . S
O486 C496 1.264 . S
O487 Mg483 2.072 1_655 S
O487 C497 1.260 . S
Mg488 O489 2.180 . S
Mg488 O490 2.030 1_565 S
Mg488 O491 1.990 1_565 S
Mg488 O492 2.117 . S
O489 Mg483 2.099 1_665 S
O489 Mg488 2.180 . S
O489 C498 1.279 . S
O490 Mg488 2.030 1_545 S
O490 C496 1.248 1_655 S
O491 Mg488 1.990 1_545 S
O491 C497 1.253 . S
O492 Mg488 2.117 . S
O492 C498 1.250 . S
C493 O499 1.248 . S
C493 O500 1.264 . S
C494 O480 1.253 1_665 S
C494 O482 1.260 . S
C495 O484 1.279 . S
C495 O485 1.250 . S
C496 O486 1.264 . S
C496 O490 1.248 1_455 S
C497 O487 1.260 . S
C497 O491 1.253 . S
C498 O489 1.279 . S
C498 O492 1.250 . S
O499 Mg481 2.030 1_565 S
O499 C493 1.248 . S
O500 Mg483 2.079 1_565 S
O500 C493 1.264 . S
O501 Mg502 1.990 . S
O501 C515 1.253 . S
Mg502 O501 1.990 . S
Mg502 O505 2.183 . S
Mg502 O506 2.117 1_554 S
Mg502 O520 2.030 . S
O503 Mg504 2.072 . S
O503 C515 1.260 . S
Mg504 O503 2.072 . S
Mg504 O505 2.099 . S
Mg504 O507 2.079 1_554 S
Mg504 O508 2.072 1_554 S
Mg504 O510 2.099 1_545 S
Mg504 O521 2.079 . S
O505 Mg502 2.183 . S
O505 Mg504 2.099 . S
O505 C516 1.276 1_554 S
O506 Mg502 2.117 1_556 S
O506 C516 1.250 . S
O507 Mg504 2.079 1_556 S
O507 C517 1.264 1_545 S
O508 Mg504 2.072 1_556 S
O508 C518 1.260 1_545 S
Mg509 O510 2.180 1_556 S
Mg509 O511 2.030 . S
Mg509 O512 1.990 . S
Mg509 O513 2.117 1_556 S
O510 Mg504 2.099 1_565 S
O510 Mg509 2.180 1_554 S
O510 C519 1.279 . S
O511 Mg509 2.030 . S
O511 C517 1.248 . S
O512 Mg509 1.990 . S
O512 C518 1.253 . S
O513 Mg509 2.117 1_554 S
O513 C519 1.250 . S
C514 O520 1.248 . S
C514 O521 1.264 . S
C515 O501 1.253 . S
C515 O503 1.260 . S
C516 O505 1.276 1_556 S
C516 O506 1.250 . S
C517 O507 1.264 1_565 S
C517 O511 1.248 . S
C518 O508 1.260 1_565 S
C518 O512 1.253 . S
C519 O510 1.279 . S
C519 O513 1.250 . S
O520 Mg502 2.030 . S
O520 C514 1.248 . S
O521 Mg504 2.079 . S
O521 C514 1.264 . S
O522 Mg523 1.990 . S
O522 C536 1.253 . S
Mg523 O522 1.990 . S
Mg523 O526 2.180 . S
Mg523 O527 2.117 . S
Mg523 O541 2.030 . S
O524 Mg525 2.072 . S
O524 C536 1.260 . S
Mg525 O524 2.072 . S
Mg525 O526 2.099 . S
Mg525 O528 2.079 . S
Mg525 O529 2.072 . S
Mg525 O531 2.099 . S
Mg525 O542 2.079 . S
O526 Mg523 2.180 . S
O526 Mg525 2.099 . S
O526 C537 1.279 . S
O527 Mg523 2.117 . S
O527 C537 1.250 . S
O528 Mg525 2.079 . S
O528 C538 1.264 . S
O529 Mg525 2.072 . S
O529 C539 1.260 . S
Mg530 O531 2.180 . S
Mg530 O532 2.030 . S
Mg530 O533 1.990 . S
Mg530 O534 2.117 . S
O531 Mg525 2.099 . S
O531 Mg530 2.180 . S
O531 C540 1.279 . S
O532 Mg530 2.030 . S
O532 C538 1.248 . S
O533 Mg530 1.990 . S
O533 C539 1.253 . S
O534 Mg530 2.117 . S
O534 C540 1.250 . S
C535 O541 1.248 . S
C535 O542 1.264 . S
C536 O522 1.253 . S
C536 O524 1.260 . S
C537 O526 1.279 . S
C537 O527 1.250 . S
C538 O528 1.264 . S
C538 O532 1.248 . S
C539 O529 1.260 . S
C539 O533 1.253 . S
C540 O531 1.279 . S
C540 O534 1.250 . S
O541 Mg523 2.030 . S
O541 C535 1.248 . S
O542 Mg525 2.079 . S
O542 C535 1.264 . S
O543 Mg544 1.990 . S
O543 C557 1.253 . S
Mg544 O543 1.990 . S
Mg544 O547 2.180 1_455 S
Mg544 O548 2.117 1_455 S
Mg544 O562 2.030 . S
O545 Mg546 2.072 . S
O545 C557 1.260 . S
Mg546 O545 2.072 . S
Mg546 O547 2.099 1_455 S
Mg546 O549 2.079 1_454 S
Mg546 O550 2.072 1_455 S
Mg546 O552 2.099 1_554 S
Mg546 O563 2.079 . S
O547 Mg544 2.180 1_655 S
O547 Mg546 2.099 1_655 S
O547 C558 1.279 . S
O548 Mg544 2.117 1_655 S
O548 C558 1.250 . S
O549 Mg546 2.079 1_656 S
O549 C559 1.264 . S
O550 Mg546 2.072 1_655 S
O550 C560 1.260 1_554 S
Mg551 O552 2.180 1_655 S
Mg551 O553 2.030 . S
Mg551 O554 1.990 . S
Mg551 O555 2.125 . S
O552 Mg546 2.099 1_556 S
O552 Mg551 2.180 1_455 S
O552 C561 1.279 . S
O553 Mg551 2.030 . S
O553 C559 1.248 . S
O554 Mg551 1.990 . S
O554 C560 1.253 . S
O555 Mg551 2.125 . S
O555 C561 1.243 1_655 S
C556 O562 1.248 . S
C556 O563 1.264 . S
C557 O543 1.253 . S
C557 O545 1.260 . S
C558 O547 1.279 . S
C558 O548 1.250 . S
C559 O549 1.264 . S
C559 O553 1.248 . S
C560 O550 1.260 1_556 S
C560 O554 1.253 . S
C561 O552 1.279 . S
C561 O555 1.243 1_455 S
O562 Mg544 2.030 . S
O562 C556 1.248 . S
O563 Mg546 2.079 . S
O563 C556 1.264 . S
H564 C572 0.929 . S
H565 C574 0.930 . S
H566 C576 0.930 . S
H567 C579 0.929 . S
H568 C582 0.930 . S
H569 C584 0.960 . S
H570 C584 0.960 . S
H571 C584 0.960 . S
C572 H564 0.929 . S
C572 C573 1.377 . S
C572 C574 1.384 . S
C573 C572 1.377 . S
C573 C579 1.390 . S
C574 H565 0.930 . S
C574 C572 1.384 . S
C574 C575 1.372 . S
C575 C574 1.372 . S
C575 C576 1.400 . S
C575 C580 1.490 . S
C576 H566 0.930 . S
C576 C575 1.400 . S
C576 C579 1.386 . S
H577 C593 0.930 . S
H578 C594 0.931 . S
C579 H567 0.929 . S
C579 C573 1.390 . S
C579 C576 1.386 . S
C580 C575 1.490 . S
C580 C582 1.395 . S
C580 C583 1.403 . S
H581 C587 0.930 . S
C582 H568 0.930 . S
C582 C580 1.395 . S
C582 C585 1.403 . S
C583 C580 1.403 . S
C583 C584 1.524 . S
C583 C587 1.400 . S
C584 H569 0.960 . S
C584 H570 0.960 . S
C584 H571 0.960 . S
C584 C583 1.524 . S
C585 C582 1.403 . S
C585 C586 1.392 . S
C585 C589 1.495 . S
C586 C585 1.392 . S
C586 C587 1.385 . S
C586 C588 1.478 . S
C587 H581 0.930 . S
C587 C583 1.400 . S
C587 C586 1.385 . S
C588 C586 1.478 . S
C588 C590 1.381 . S
C588 C594 1.383 . S
C589 C585 1.495 . S
C589 H595 0.959 1_545 S
C589 H596 0.961 . S
C589 H597 0.960 1_545 S
C590 C588 1.381 . S
C590 C591 1.394 . S
C590 H598 0.930 . S
C591 C590 1.394 . S
C591 C592 1.383 . S
C591 H599 0.929 . S
C592 C591 1.383 . S
C592 C593 1.377 . S
C593 H577 0.930 . S
C593 C592 1.377 . S
C593 C594 1.379 . S
C594 H578 0.931 . S
C594 C588 1.383 . S
C594 C593 1.379 . S
H595 C589 0.959 1_565 S
H596 C589 0.961 . S
H597 C589 0.960 1_565 S
H598 C590 0.930 . S
H599 C591 0.929 . S
H600 C608 0.929 . S
H601 C610 0.930 . S
H602 C612 0.930 . S
H603 C615 0.929 . S
H604 C618 0.930 . S
H605 C620 0.960 . S
H606 C620 0.960 . S
H607 C620 0.960 . S
C608 H600 0.929 . S
C608 C609 1.377 . S
C608 C610 1.384 . S
C609 C608 1.377 . S
C609 C615 1.390 . S
C610 H601 0.930 . S
C610 C608 1.384 . S
C610 C611 1.372 . S
C611 C610 1.372 . S
C611 C612 1.400 . S
C611 C616 1.490 . S
C612 H602 0.930 . S
C612 C611 1.400 . S
C612 C615 1.386 . S
H613 C629 0.930 . S
H614 C630 0.899 1_545 S
C615 H603 0.929 . S
C615 C609 1.390 . S
C615 C612 1.386 . S
C616 C611 1.490 . S
C616 C618 1.395 . S
C616 C619 1.403 . S
H617 C623 0.930 . S
C618 H604 0.930 . S
C618 C616 1.395 . S
C618 C621 1.403 . S
C619 C616 1.403 . S
C619 C620 1.524 . S
C619 C623 1.400 . S
C620 H605 0.960 . S
C620 H606 0.960 . S
C620 H607 0.960 . S
C620 C619 1.524 . S
C621 C618 1.403 . S
C621 C622 1.392 . S
C621 C625 1.495 . S
C622 C621 1.392 . S
C622 C623 1.385 . S
C622 C624 1.478 . S
C623 H617 0.930 . S
C623 C619 1.400 . S
C623 C622 1.385 . S
C624 C622 1.478 . S
C624 C626 1.381 . S
C624 C630 1.427 . S
C625 C621 1.495 . S
C625 H631 0.959 . S
C625 H632 0.961 . S
C625 H633 0.960 . S
C626 C624 1.381 . S
C626 C627 1.394 . S
C626 H634 0.930 . S
C627 C626 1.394 . S
C627 C628 1.383 . S
C627 H635 0.929 . S
C628 C627 1.383 . S
C628 C629 1.377 1_565 S
C629 H613 0.930 . S
C629 C628 1.377 1_545 S
C629 C630 1.368 1_545 S
C630 H614 0.899 1_565 S
C630 C624 1.427 . S
C630 C629 1.368 1_565 S
H631 C625 0.959 . S
H632 C625 0.961 . S
H633 C625 0.960 . S
H634 C626 0.930 . S
H635 C627 0.929 . S
H636 C644 0.929 . S
H637 C646 0.930 . S
H638 C648 0.930 . S
H639 C651 0.929 . S
H640 C654 0.930 . S
H641 C656 0.960 . S
H642 C656 0.960 . S
H643 C656 0.960 . S
C644 H636 0.929 . S
C644 C645 1.377 . S
C644 C646 1.384 . S
C645 C644 1.377 . S
C645 C651 1.390 . S
C646 H637 0.930 . S
C646 C644 1.384 . S
C646 C647 1.372 . S
C647 C646 1.372 . S
C647 C648 1.400 . S
C647 C652 1.490 . S
C648 H638 0.930 . S
C648 C647 1.400 . S
C648 C651 1.386 . S
H649 C665 0.930 . S
H650 C666 0.931 . S
C651 H639 0.929 . S
C651 C645 1.390 . S
C651 C648 1.386 . S
C652 C647 1.490 . S
C652 C654 1.395 . S
C652 C655 1.403 . S
H653 C659 0.930 . S
C654 H640 0.930 . S
C654 C652 1.395 . S
C654 C657 1.403 . S
C655 C652 1.403 . S
C655 C656 1.524 . S
C655 C659 1.400 . S
C656 H641 0.960 . S
C656 H642 0.960 . S
C656 H643 0.960 . S
C656 C655 1.524 . S
C657 C654 1.403 . S
C657 C658 1.392 . S
C657 C661 1.495 . S
C658 C657 1.392 . S
C658 C659 1.385 . S
C658 C660 1.478 . S
C659 H653 0.930 . S
C659 C655 1.400 . S
C659 C658 1.385 . S
C660 C658 1.478 . S
C660 C662 1.381 . S
C660 C666 1.383 . S
C661 C657 1.495 . S
C661 H667 0.959 . S
C661 H668 0.961 . S
C661 H669 0.960 . S
C662 C660 1.381 . S
C662 C663 1.394 . S
C662 H670 0.930 . S
C663 C662 1.394 . S
C663 C664 1.383 . S
C663 H671 0.929 . S
C664 C663 1.383 . S
C664 C665 1.377 . S
C665 H649 0.930 . S
C665 C664 1.377 . S
C665 C666 1.379 . S
C666 H650 0.931 . S
C666 C660 1.383 . S
C666 C665 1.379 . S
H667 C661 0.959 . S
H668 C661 0.961 . S
H669 C661 0.960 . S
H670 C662 0.930 . S
H671 C663 0.929 . S
H672 C680 0.929 . S
H673 C682 0.930 . S
H674 C684 0.930 . S
H675 C687 0.929 . S
H676 C690 0.930 . S
H677 C692 0.960 . S
H678 C692 0.960 . S
H679 C692 0.960 . S
C680 H672 0.929 . S
C680 C681 1.377 . S
C680 C682 1.384 . S
C681 C680 1.377 . S
C681 C687 1.390 . S
C682 H673 0.930 . S
C682 C680 1.384 . S
C682 C683 1.372 . S
C683 C682 1.372 . S
C683 C684 1.400 . S
C683 C688 1.490 . S
C684 H674 0.930 . S
C684 C683 1.400 . S
C684 C687 1.386 . S
H685 C701 0.930 . S
H686 C702 0.931 . S
C687 H675 0.929 . S
C687 C681 1.390 . S
C687 C684 1.386 . S
C688 C683 1.490 . S
C688 C690 1.395 . S
C688 C691 1.403 . S
H689 C695 0.930 . S
C690 H676 0.930 . S
C690 C688 1.395 . S
C690 C693 1.403 . S
C691 C688 1.403 . S
C691 C692 1.524 . S
C691 C695 1.400 . S
C692 H677 0.960 . S
C692 H678 0.960 . S
C692 H679 0.960 . S
C692 C691 1.524 . S
C693 C690 1.403 . S
C693 C694 1.392 . S
C693 C697 1.495 . S
C694 C693 1.392 . S
C694 C695 1.385 . S
C694 C696 1.478 . S
C695 H689 0.930 . S
C695 C691 1.400 . S
C695 C694 1.385 . S
C696 C694 1.478 . S
C696 C698 1.381 . S
C696 C702 1.383 . S
C697 C693 1.495 . S
C697 H703 0.959 . S
C697 H704 0.961 . S
C697 H705 0.960 . S
C698 C696 1.381 . S
C698 C699 1.394 . S
C698 H706 0.930 . S
C699 C698 1.394 . S
C699 C700 1.383 . S
C699 H707 0.929 . S
C700 C699 1.383 . S
C700 C701 1.377 . S
C701 H685 0.930 . S
C701 C700 1.377 . S
C701 C702 1.379 . S
C702 H686 0.931 . S
C702 C696 1.383 . S
C702 C701 1.379 . S
H703 C697 0.959 . S
H704 C697 0.961 . S
H705 C697 0.960 . S
H706 C698 0.930 . S
H707 C699 0.929 . S
H708 C716 0.929 . S
H709 C718 0.930 . S
H710 C720 0.930 . S
H711 C723 0.929 . S
H712 C726 0.930 . S
H713 C728 0.960 . S
H714 C728 0.960 . S
H715 C728 0.960 . S
C716 H708 0.929 . S
C716 C717 1.377 . S
C716 C718 1.384 . S
C717 C716 1.377 . S
C717 C723 1.390 . S
C718 H709 0.930 . S
C718 C716 1.384 . S
C718 C719 1.372 . S
C719 C718 1.372 . S
C719 C720 1.400 . S
C719 C724 1.490 . S
C720 H710 0.930 . S
C720 C719 1.400 . S
C720 C723 1.386 . S
H721 C737 0.930 . S
H722 C738 0.931 . S
C723 H711 0.929 . S
C723 C717 1.390 . S
C723 C720 1.386 . S
C724 C719 1.490 . S
C724 C726 1.395 . S
C724 C727 1.403 . S
H725 C731 0.930 . S
C726 H712 0.930 . S
C726 C724 1.395 . S
C726 C729 1.403 . S
C727 C724 1.403 . S
C727 C728 1.524 . S
C727 C731 1.400 . S
C728 H713 0.960 . S
C728 H714 0.960 . S
C728 H715 0.960 . S
C728 C727 1.524 . S
C729 C726 1.403 . S
C729 C730 1.392 . S
C729 C733 1.495 . S
C730 C729 1.392 . S
C730 C731 1.385 . S
C730 C732 1.478 . S
C731 H725 0.930 . S
C731 C727 1.400 . S
C731 C730 1.385 . S
C732 C730 1.478 . S
C732 C734 1.381 . S
C732 C738 1.383 . S
C733 C729 1.495 . S
C733 H739 0.959 1_554 S
C733 H740 0.961 1_554 S
C733 H741 0.960 . S
C734 C732 1.381 . S
C734 C735 1.394 . S
C734 H742 0.930 . S
C735 C734 1.394 . S
C735 C736 1.383 . S
C735 H743 0.929 . S
C736 C735 1.383 . S
C736 C737 1.377 . S
C737 H721 0.930 . S
C737 C736 1.377 . S
C737 C738 1.379 . S
C738 H722 0.931 . S
C738 C732 1.383 . S
C738 C737 1.379 . S
H739 C733 0.959 1_556 S
H740 C733 0.961 1_556 S
H741 C733 0.960 . S
H742 C734 0.930 . S
H743 C735 0.929 . S
H744 C752 0.929 . S
H745 C754 0.930 . S
H746 C756 0.930 . S
H747 C759 0.929 . S
H748 C762 0.930 . S
H749 C764 0.960 . S
H750 C764 0.960 . S
H751 C764 0.960 . S
C752 H744 0.929 . S
C752 C753 1.377 . S
C752 C754 1.384 . S
C753 C752 1.377 . S
C753 C759 1.390 . S
C754 H745 0.930 . S
C754 C752 1.384 . S
C754 C755 1.372 . S
C755 C754 1.372 . S
C755 C756 1.400 . S
C755 C760 1.490 . S
C756 H746 0.930 . S
C756 C755 1.400 . S
C756 C759 1.386 . S
H757 C773 0.930 . S
H758 C774 0.931 . S
C759 H747 0.929 . S
C759 C753 1.390 . S
C759 C756 1.386 . S
C760 C755 1.490 . S
C760 C762 1.395 . S
C760 C763 1.403 . S
H761 C767 0.930 . S
C762 H748 0.930 . S
C762 C760 1.395 . S
C762 C765 1.403 . S
C763 C760 1.403 . S
C763 C764 1.524 . S
C763 C767 1.400 . S
C764 H749 0.960 . S
C764 H750 0.960 . S
C764 H751 0.960 . S
C764 C763 1.524 . S
C765 C762 1.403 . S
C765 C766 1.392 . S
C765 C769 1.495 . S
C766 C765 1.392 . S
C766 C767 1.385 . S
C766 C768 1.478 . S
C767 H761 0.930 . S
C767 C763 1.400 . S
C767 C766 1.385 . S
C768 C766 1.478 . S
C768 C770 1.381 . S
C768 C774 1.383 . S
C769 C765 1.495 . S
C769 H775 0.959 . S
C769 H776 0.961 . S
C769 H777 0.960 . S
C770 C768 1.381 . S
C770 C771 1.394 . S
C770 H778 0.930 . S
C771 C770 1.394 . S
C771 C772 1.383 . S
C771 H779 0.929 . S
C772 C771 1.383 . S
C772 C773 1.377 . S
C773 H757 0.930 . S
C773 C772 1.377 . S
C773 C774 1.379 . S
C774 H758 0.931 . S
C774 C768 1.383 . S
C774 C773 1.379 . S
H775 C769 0.959 . S
H776 C769 0.961 . S
H777 C769 0.960 . S
H778 C770 0.930 . S
H779 C771 0.929 . S
H780 C788 0.929 . S
H781 C790 0.930 . S
H782 C792 0.930 . S
H783 C795 0.929 . S
H784 C798 0.930 . S
H785 C800 0.960 . S
H786 C800 0.960 . S
H787 C800 0.960 . S
C788 H780 0.929 . S
C788 C789 1.377 . S
C788 C790 1.384 . S
C789 C788 1.377 . S
C789 C795 1.390 . S
C790 H781 0.930 . S
C790 C788 1.384 . S
C790 C791 1.372 . S
C791 C790 1.372 . S
C791 C792 1.400 . S
C791 C796 1.490 . S
C792 H782 0.930 . S
C792 C791 1.400 . S
C792 C795 1.386 . S
H793 C809 0.931 1_554 S
H794 C810 0.924 1_554 S
C795 H783 0.929 . S
C795 C789 1.390 . S
C795 C792 1.386 . S
C796 C791 1.490 . S
C796 C798 1.395 . S
C796 C799 1.403 . S
H797 C803 0.930 . S
C798 H784 0.930 . S
C798 C796 1.395 . S
C798 C801 1.403 . S
C799 C796 1.403 . S
C799 C800 1.524 . S
C799 C803 1.400 . S
C800 H785 0.960 . S
C800 H786 0.960 . S
C800 H787 0.960 . S
C800 C799 1.524 . S
C801 C798 1.403 . S
C801 C802 1.392 . S
C801 C805 1.495 . S
C802 C801 1.392 . S
C802 C803 1.385 . S
C802 C804 1.478 . S
C803 H797 0.930 . S
C803 C799 1.400 . S
C803 C802 1.385 . S
C804 C802 1.478 . S
C804 C806 1.381 . S
C804 C810 1.383 . S
C805 C801 1.495 . S
C805 H811 0.959 . S
C805 H812 0.961 . S
C805 H813 0.960 . S
C806 C804 1.381 . S
C806 C807 1.394 . S
C806 H814 0.930 . S
C807 C806 1.394 . S
C807 C808 1.383 . S
C807 H815 0.929 . S
C808 C807 1.383 . S
C808 C809 1.376 . S
C809 H793 0.931 1_556 S
C809 C808 1.376 . S
C809 C810 1.379 . S
C810 H794 0.924 1_556 S
C810 C804 1.383 . S
C810 C809 1.379 . S
H811 C805 0.959 . S
H812 C805 0.961 . S
H813 C805 0.960 . S
H814 C806 0.930 . S
H815 C807 0.929 . S
H816 C824 0.929 . S
H817 C826 0.930 . S
H818 C828 0.930 . S
H819 C831 0.929 . S
H820 C834 0.930 . S
H821 C836 0.960 . S
H822 C836 0.960 . S
H823 C836 0.960 . S
C824 H816 0.929 . S
C824 C825 1.377 . S
C824 C826 1.384 . S
C825 C824 1.377 . S
C825 C831 1.390 . S
C826 H817 0.930 . S
C826 C824 1.384 . S
C826 C827 1.372 . S
C827 C826 1.372 . S
C827 C828 1.400 . S
C827 C832 1.490 . S
C828 H818 0.930 . S
C828 C827 1.400 . S
C828 C831 1.386 . S
H829 C845 0.930 . S
H830 C846 0.931 . S
C831 H819 0.929 . S
C831 C825 1.390 . S
C831 C828 1.386 . S
C832 C827 1.490 . S
C832 C834 1.395 . S
C832 C835 1.403 . S
H833 C839 0.930 . S
C834 H820 0.930 . S
C834 C832 1.395 . S
C834 C837 1.403 . S
C835 C832 1.403 . S
C835 C836 1.524 . S
C835 C839 1.400 . S
C836 H821 0.960 . S
C836 H822 0.960 . S
C836 H823 0.960 . S
C836 C835 1.524 . S
C837 C834 1.403 . S
C837 C838 1.392 . S
C837 C841 1.495 . S
C838 C837 1.392 . S
C838 C839 1.385 . S
C838 C840 1.478 . S
C839 H833 0.930 . S
C839 C835 1.400 . S
C839 C838 1.385 . S
C840 C838 1.478 . S
C840 C842 1.381 . S
C840 C846 1.383 . S
C841 C837 1.495 . S
C841 H847 0.959 . S
C841 H848 0.961 . S
C841 H849 0.960 . S
C842 C840 1.381 . S
C842 C843 1.394 . S
C842 H850 0.930 . S
C843 C842 1.394 . S
C843 C844 1.383 . S
C843 H851 0.929 . S
C844 C843 1.383 . S
C844 C845 1.377 . S
C845 H829 0.930 . S
C845 C844 1.377 . S
C845 C846 1.379 . S
C846 H830 0.931 . S
C846 C840 1.383 . S
C846 C845 1.379 . S
H847 C841 0.959 . S
H848 C841 0.961 . S
H849 C841 0.960 . S
H850 C842 0.930 . S
H851 C843 0.929 . S
H852 C860 0.929 . S
H853 C862 0.930 . S
H854 C864 0.930 . S
H855 C867 0.929 . S
H856 C870 0.930 . S
H857 C872 0.960 . S
H858 C872 0.960 . S
H859 C872 0.960 . S
C860 H852 0.929 . S
C860 C861 1.377 . S
C860 C862 1.384 . S
C861 C860 1.377 . S
C861 C867 1.390 . S
C862 H853 0.930 . S
C862 C860 1.384 . S
C862 C863 1.372 . S
C863 C862 1.372 . S
C863 C864 1.400 . S
C863 C868 1.490 . S
C864 H854 0.930 . S
C864 C863 1.400 . S
C864 C867 1.386 . S
H865 C881 0.930 . S
H866 C882 0.931 . S
C867 H855 0.929 . S
C867 C861 1.390 . S
C867 C864 1.386 . S
C868 C863 1.490 . S
C868 C870 1.395 . S
C868 C871 1.403 . S
H869 C875 0.930 . S
C870 H856 0.930 . S
C870 C868 1.395 . S
C870 C873 1.403 . S
C871 C868 1.403 . S
C871 C872 1.524 . S
C871 C875 1.400 . S
C872 H857 0.960 . S
C872 H858 0.960 . S
C872 H859 0.960 . S
C872 C871 1.524 . S
C873 C870 1.403 . S
C873 C874 1.392 . S
C873 C877 1.495 . S
C874 C873 1.392 . S
C874 C875 1.385 . S
C874 C876 1.478 . S
C875 H869 0.930 . S
C875 C871 1.400 . S
C875 C874 1.385 . S
C876 C874 1.478 . S
C876 C878 1.381 . S
C876 C882 1.383 . S
C877 C873 1.495 . S
C877 H883 0.959 . S
C877 H884 0.961 . S
C877 H885 0.960 . S
C878 C876 1.381 . S
C878 C879 1.394 . S
C878 H886 0.930 . S
C879 C878 1.394 . S
C879 C880 1.383 . S
C879 H887 0.940 . S
C880 C879 1.383 . S
C880 C881 1.377 . S
C881 H865 0.930 . S
C881 C880 1.377 . S
C881 C882 1.379 . S
C882 H866 0.931 . S
C882 C876 1.383 . S
C882 C881 1.379 . S
H883 C877 0.959 . S
H884 C877 0.961 . S
H885 C877 0.960 . S
H886 C878 0.930 . S
H887 C879 0.940 . S
H888 C896 0.929 . S
H889 C898 0.930 . S
H890 C900 0.930 . S
H891 C903 0.929 . S
H892 C906 0.930 . S
H893 C908 0.960 . S
H894 C908 0.960 . S
H895 C908 0.960 . S
C896 H888 0.929 . S
C896 C897 1.377 . S
C896 C898 1.384 . S
C897 C896 1.377 . S
C897 C903 1.390 . S
C898 H889 0.930 . S
C898 C896 1.384 . S
C898 C899 1.372 . S
C899 C898 1.372 . S
C899 C900 1.400 . S
C899 C904 1.490 . S
C900 H890 0.930 . S
C900 C899 1.400 . S
C900 C903 1.386 . S
H901 C917 0.930 . S
H902 C918 0.931 . S
C903 H891 0.929 . S
C903 C897 1.390 . S
C903 C900 1.386 . S
C904 C899 1.490 . S
C904 C906 1.395 . S
C904 C907 1.403 . S
H905 C911 0.930 . S
C906 H892 0.930 . S
C906 C904 1.395 . S
C906 C909 1.403 . S
C907 C904 1.403 . S
C907 C908 1.524 . S
C907 C911 1.400 . S
C908 H893 0.960 . S
C908 H894 0.960 . S
C908 H895 0.960 . S
C908 C907 1.524 . S
C909 C906 1.403 . S
C909 C910 1.392 . S
C909 C913 1.495 . S
C910 C909 1.392 . S
C910 C911 1.385 . S
C910 C912 1.478 . S
C911 H905 0.930 . S
C911 C907 1.400 . S
C911 C910 1.385 . S
C912 C910 1.478 . S
C912 C914 1.381 . S
C912 C918 1.383 . S
C913 C909 1.495 . S
C913 H919 0.959 . S
C913 H920 0.961 . S
C913 H921 0.960 . S
C914 C912 1.381 . S
C914 C915 1.394 . S
C914 H922 0.930 . S
C915 C914 1.394 . S
C915 C916 1.383 . S
C915 H923 0.929 . S
C916 C915 1.383 . S
C916 C917 1.377 . S
C917 H901 0.930 . S
C917 C916 1.377 . S
C917 C918 1.379 . S
C918 H902 0.931 . S
C918 C912 1.383 . S
C918 C917 1.379 . S
H919 C913 0.959 . S
H920 C913 0.961 . S
H921 C913 0.960 . S
H922 C914 0.930 . S
H923 C915 0.929 . S
H924 C932 0.929 . S
H925 C934 0.930 . S
H926 C936 0.930 . S
H927 C939 0.929 . S
H928 C942 0.930 . S
H929 C944 0.960 . S
H930 C944 0.960 . S
H931 C944 0.960 . S
C932 H924 0.929 . S
C932 C933 1.377 . S
C932 C934 1.384 . S
C933 C932 1.377 . S
C933 C939 1.390 . S
C934 H925 0.930 . S
C934 C932 1.384 . S
C934 C935 1.372 . S
C935 C934 1.372 . S
C935 C936 1.400 . S
C935 C940 1.490 . S
C936 H926 0.930 . S
C936 C935 1.400 . S
C936 C939 1.386 . S
H937 C953 0.930 1_455 S
H938 C954 0.931 . S
C939 H927 0.929 . S
C939 C933 1.390 . S
C939 C936 1.386 . S
C940 C935 1.490 . S
C940 C942 1.395 . S
C940 C943 1.403 . S
H941 C947 0.930 . S
C942 H928 0.930 . S
C942 C940 1.395 . S
C942 C945 1.403 . S
C943 C940 1.403 . S
C943 C944 1.524 . S
C943 C947 1.400 . S
C944 H929 0.960 . S
C944 H930 0.960 . S
C944 H931 0.960 . S
C944 C943 1.524 . S
C945 C942 1.403 . S
C945 C946 1.392 . S
C945 C949 1.495 . S
C946 C945 1.392 . S
C946 C947 1.385 . S
C946 C948 1.478 . S
C947 H941 0.930 . S
C947 C943 1.400 . S
C947 C946 1.385 . S
C948 C946 1.478 . S
C948 C950 1.381 . S
C948 C954 1.383 . S
C949 C945 1.495 . S
C949 H955 0.959 . S
C949 H956 0.961 . S
C949 H957 0.960 . S
C950 C948 1.381 . S
C950 C951 1.394 . S
C950 H958 0.930 . S
C951 C950 1.394 . S
C951 C952 1.383 . S
C951 H959 0.929 . S
C952 C951 1.383 . S
C952 C953 1.377 . S
C953 H937 0.930 1_655 S
C953 C952 1.377 . S
C953 C954 1.379 . S
C954 H938 0.931 . S
C954 C948 1.383 . S
C954 C953 1.379 . S
H955 C949 0.959 . S
H956 C949 0.961 . S
H957 C949 0.960 . S
H958 C950 0.930 . S
H959 C951 0.929 . S
H960 C968 0.929 . S
H961 C970 0.930 . S
H962 C972 0.930 . S
H963 C975 0.929 . S
H964 C978 0.930 . S
H965 C980 0.960 . S
H966 C980 0.960 . S
H967 C980 0.960 . S
C968 H960 0.929 . S
C968 C969 1.377 . S
C968 C970 1.384 . S
C969 C968 1.377 . S
C969 C975 1.390 . S
C970 H961 0.930 . S
C970 C968 1.384 . S
C970 C971 1.372 . S
C971 C970 1.372 . S
C971 C972 1.400 . S
C971 C976 1.490 . S
C972 H962 0.930 . S
C972 C971 1.400 . S
C972 C975 1.386 . S
H973 C989 0.930 . S
H974 C990 0.931 . S
C975 H963 0.929 . S
C975 C969 1.390 . S
C975 C972 1.386 . S
C976 C971 1.490 . S
C976 C978 1.395 . S
C976 C979 1.403 . S
H977 C983 0.930 . S
C978 H964 0.930 . S
C978 C976 1.395 . S
C978 C981 1.403 . S
C979 C976 1.403 . S
C979 C980 1.524 . S
C979 C983 1.400 . S
C980 H965 0.960 . S
C980 H966 0.960 . S
C980 H967 0.960 . S
C980 C979 1.524 . S
C981 C978 1.403 . S
C981 C982 1.392 . S
C981 C985 1.495 . S
C982 C981 1.392 . S
C982 C983 1.385 . S
C982 C984 1.478 . S
C983 H977 0.930 . S
C983 C979 1.400 . S
C983 C982 1.385 . S
C984 C982 1.478 . S
C984 C986 1.381 . S
C984 C990 1.383 . S
C985 C981 1.495 . S
C985 H991 0.959 . S
C985 H992 0.961 . S
C985 H993 0.960 . S
C986 C984 1.381 . S
C986 C987 1.394 . S
C986 H994 0.930 . S
C987 C986 1.394 . S
C987 C988 1.383 . S
C987 H995 0.929 . S
C988 C987 1.383 . S
C988 C989 1.377 . S
C989 H973 0.930 . S
C989 C988 1.377 . S
C989 C990 1.379 . S
C990 H974 0.931 . S
C990 C984 1.383 . S
C990 C989 1.379 . S
H991 C985 0.959 . S
H992 C985 0.961 . S
H993 C985 0.960 . S
H994 C986 0.930 . S
H995 C987 0.929 . S
H996 C1004 0.929 . S
H997 C1006 0.930 . S
H998 C1008 0.930 . S
H999 C1011 0.929 . S
H1000 C1014 0.930 . S
H1001 C1016 0.960 . S
H1002 C1016 0.960 . S
H1003 C1016 0.960 . S
C1004 H996 0.929 . S
C1004 C1005 1.377 . S
C1004 C1006 1.384 . S
C1005 C1004 1.377 . S
C1005 C1011 1.390 . S
C1006 H997 0.930 . S
C1006 C1004 1.384 . S
C1006 C1007 1.372 . S
C1007 C1006 1.372 . S
C1007 C1008 1.400 . S
C1007 C1012 1.490 . S
C1008 H998 0.930 . S
C1008 C1007 1.400 . S
C1008 C1011 1.386 . S
H1009 C1025 0.930 . S
H1010 C1026 0.931 . S
C1011 H999 0.929 . S
C1011 C1005 1.390 . S
C1011 C1008 1.386 . S
C1012 C1007 1.490 . S
C1012 C1014 1.395 . S
C1012 C1015 1.403 . S
H1013 C1019 0.930 . S
C1014 H1000 0.930 . S
C1014 C1012 1.395 . S
C1014 C1017 1.403 . S
C1015 C1012 1.403 . S
C1015 C1016 1.524 . S
C1015 C1019 1.400 . S
C1016 H1001 0.960 . S
C1016 H1002 0.960 . S
C1016 H1003 0.960 . S
C1016 C1015 1.524 . S
C1017 C1014 1.403 . S
C1017 C1018 1.392 . S
C1017 C1021 1.495 1_655 S
C1018 C1017 1.392 . S
C1018 C1019 1.385 . S
C1018 C1020 1.478 . S
C1019 H1013 0.930 . S
C1019 C1015 1.400 . S
C1019 C1018 1.385 . S
C1020 C1018 1.478 . S
C1020 C1022 1.381 . S
C1020 C1026 1.383 . S
C1021 C1017 1.495 1_455 S
C1021 H1027 0.959 . S
C1021 H1028 0.961 . S
C1021 H1029 0.960 . S
C1022 C1020 1.381 . S
C1022 C1023 1.394 . S
C1022 H1030 0.930 . S
C1023 C1022 1.394 . S
C1023 C1024 1.383 . S
C1023 H1031 0.929 1_565 S
C1024 C1023 1.383 . S
C1024 C1025 1.377 . S
C1025 H1009 0.930 . S
C1025 C1024 1.377 . S
C1025 C1026 1.379 . S
C1026 H1010 0.931 . S
C1026 C1020 1.383 . S
C1026 C1025 1.379 . S
H1027 C1021 0.959 . S
H1028 C1021 0.961 . S
H1029 C1021 0.960 . S
H1030 C1022 0.930 . S
H1031 C1023 0.929 1_545 S
H1032 C1040 0.929 . S
H1033 C1042 0.930 . S
H1034 C1044 0.930 . S
H1035 C1047 0.929 . S
H1036 C1050 0.930 . S
H1037 C1052 0.960 . S
H1038 C1052 0.960 . S
H1039 C1052 0.960 . S
C1040 H1032 0.929 . S
C1040 C1041 1.377 . S
C1040 C1042 1.384 . S
C1041 C1040 1.377 . S
C1041 C1047 1.390 . S
C1042 H1033 0.930 . S
C1042 C1040 1.384 . S
C1042 C1043 1.372 . S
C1043 C1042 1.372 . S
C1043 C1044 1.400 . S
C1043 C1048 1.490 . S
C1044 H1034 0.930 . S
C1044 C1043 1.400 . S
C1044 C1047 1.386 . S
H1045 C1061 0.930 . S
H1046 C1062 0.931 . S
C1047 H1035 0.929 . S
C1047 C1041 1.390 . S
C1047 C1044 1.386 . S
C1048 C1043 1.490 . S
C1048 C1050 1.395 . S
C1048 C1051 1.403 . S
H1049 C1055 0.930 . S
C1050 H1036 0.930 . S
C1050 C1048 1.395 . S
C1050 C1053 1.403 . S
C1051 C1048 1.403 . S
C1051 C1052 1.524 . S
C1051 C1055 1.400 . S
C1052 H1037 0.960 . S
C1052 H1038 0.960 . S
C1052 H1039 0.960 . S
C1052 C1051 1.524 . S
C1053 C1050 1.403 . S
C1053 C1054 1.392 . S
C1053 C1057 1.495 . S
C1054 C1053 1.392 . S
C1054 C1055 1.385 . S
C1054 C1056 1.478 . S
C1055 H1049 0.930 . S
C1055 C1051 1.400 . S
C1055 C1054 1.385 . S
C1056 C1054 1.478 . S
C1056 C1058 1.381 . S
C1056 C1062 1.383 . S
C1057 C1053 1.495 . S
C1057 H1063 0.959 . S
C1057 H1064 0.961 . S
C1057 H1065 0.960 . S
C1058 C1056 1.381 . S
C1058 C1059 1.394 . S
C1058 H1066 0.930 . S
C1059 C1058 1.394 . S
C1059 C1060 1.383 . S
C1059 H1067 0.929 . S
C1060 C1059 1.383 . S
C1060 C1061 1.377 . S
C1061 H1045 0.930 . S
C1061 C1060 1.377 . S
C1061 C1062 1.379 . S
C1062 H1046 0.931 . S
C1062 C1056 1.383 . S
C1062 C1061 1.379 . S
H1063 C1057 0.959 . S
H1064 C1057 0.961 . S
H1065 C1057 0.960 . S
H1066 C1058 0.930 . S
H1067 C1059 0.929 . S
H1068 C1076 0.929 . S
H1069 C1078 0.930 . S
H1070 C1080 0.930 . S
H1071 C1083 0.929 . S
H1072 C1086 0.930 . S
H1073 C1088 0.960 . S
H1074 C1088 0.960 . S
H1075 C1088 0.960 . S
C1076 H1068 0.929 . S
C1076 C1077 1.377 . S
C1076 C1078 1.384 . S
C1077 C1076 1.377 . S
C1077 C1083 1.390 . S
C1078 H1069 0.930 . S
C1078 C1076 1.384 . S
C1078 C1079 1.372 . S
C1079 C1078 1.372 . S
C1079 C1080 1.400 . S
C1079 C1084 1.490 . S
C1080 H1070 0.930 . S
C1080 C1079 1.400 . S
C1080 C1083 1.386 . S
H1081 C1097 0.930 . S
H1082 C1098 0.931 . S
C1083 H1071 0.929 . S
C1083 C1077 1.390 . S
C1083 C1080 1.386 . S
C1084 C1079 1.490 . S
C1084 C1086 1.395 . S
C1084 C1087 1.403 . S
H1085 C1091 0.930 . S
C1086 H1072 0.930 . S
C1086 C1084 1.395 . S
C1086 C1089 1.403 . S
C1087 C1084 1.403 . S
C1087 C1088 1.524 . S
C1087 C1091 1.400 . S
C1088 H1073 0.960 . S
C1088 H1074 0.960 . S
C1088 H1075 0.960 . S
C1088 C1087 1.524 . S
C1089 C1086 1.403 . S
C1089 C1090 1.392 . S
C1089 C1093 1.495 . S
C1090 C1089 1.392 . S
C1090 C1091 1.385 . S
C1090 C1092 1.478 . S
C1091 H1085 0.930 . S
C1091 C1087 1.400 . S
C1091 C1090 1.385 . S
C1092 C1090 1.478 . S
C1092 C1094 1.381 . S
C1092 C1098 1.383 . S
C1093 C1089 1.495 . S
C1093 H1099 0.959 . S
C1093 H1100 0.961 . S
C1093 H1101 0.960 . S
C1094 C1092 1.381 . S
C1094 C1095 1.394 . S
C1094 H1102 0.930 . S
C1095 C1094 1.394 . S
C1095 C1096 1.383 . S
C1095 H1103 0.929 . S
C1096 C1095 1.383 . S
C1096 C1097 1.377 . S
C1097 H1081 0.930 . S
C1097 C1096 1.377 . S
C1097 C1098 1.379 . S
C1098 H1082 0.931 . S
C1098 C1092 1.383 . S
C1098 C1097 1.379 . S
H1099 C1093 0.959 . S
H1100 C1093 0.961 . S
H1101 C1093 0.960 . S
H1102 C1094 0.930 . S
H1103 C1095 0.929 . S
H1104 C1112 0.929 . S
H1105 C1114 0.930 . S
H1106 C1116 0.930 . S
H1107 C1119 0.929 . S
H1108 C1122 0.930 . S
H1109 C1124 0.960 . S
H1110 C1124 0.960 . S
H1111 C1124 0.960 . S
C1112 H1104 0.929 . S
C1112 C1113 1.377 . S
C1112 C1114 1.384 . S
C1113 C1112 1.377 . S
C1113 C1119 1.390 . S
C1114 H1105 0.930 . S
C1114 C1112 1.384 . S
C1114 C1115 1.372 . S
C1115 C1114 1.372 . S
C1115 C1116 1.400 . S
C1115 C1120 1.490 . S
C1116 H1106 0.930 . S
C1116 C1115 1.400 . S
C1116 C1119 1.386 . S
H1117 C1133 0.930 1_655 S
H1118 C1134 0.931 . S
C1119 H1107 0.929 . S
C1119 C1113 1.390 . S
C1119 C1116 1.386 . S
C1120 C1115 1.490 . S
C1120 C1122 1.395 . S
C1120 C1123 1.403 . S
H1121 C1127 0.930 . S
C1122 H1108 0.930 . S
C1122 C1120 1.395 . S
C1122 C1125 1.403 . S
C1123 C1120 1.403 . S
C1123 C1124 1.524 . S
C1123 C1127 1.400 . S
C1124 H1109 0.960 . S
C1124 H1110 0.960 . S
C1124 H1111 0.960 . S
C1124 C1123 1.524 . S
C1125 C1122 1.403 . S
C1125 C1126 1.392 . S
C1125 C1129 1.495 . S
C1126 C1125 1.392 . S
C1126 C1127 1.385 . S
C1126 C1128 1.478 . S
C1127 H1121 0.930 . S
C1127 C1123 1.400 . S
C1127 C1126 1.385 . S
C1128 C1126 1.478 . S
C1128 C1130 1.381 . S
C1128 C1134 1.383 . S
C1129 C1125 1.495 . S
C1129 H1135 0.959 . S
C1129 H1136 0.961 . S
C1129 H1137 0.960 . S
C1130 C1128 1.381 . S
C1130 C1131 1.394 . S
C1130 H1138 0.930 . S
C1131 C1130 1.394 . S
C1131 C1132 1.383 . S
C1131 H1139 0.929 . S
C1132 C1131 1.383 . S
C1132 C1133 1.377 . S
C1133 H1117 0.930 1_455 S
C1133 C1132 1.377 . S
C1133 C1134 1.379 . S
C1134 H1118 0.931 . S
C1134 C1128 1.383 . S
C1134 C1133 1.379 . S
H1135 C1129 0.959 . S
H1136 C1129 0.961 . S
H1137 C1129 0.960 . S
H1138 C1130 0.930 . S
H1139 C1131 0.929 . S
H1140 C1148 0.929 . S
H1141 C1150 0.930 . S
H1142 C1152 0.930 . S
H1143 C1155 0.929 . S
H1144 C1158 0.930 . S
H1145 C1160 0.960 . S
H1146 C1160 0.960 . S
H1147 C1160 0.960 . S
C1148 H1140 0.929 . S
C1148 C1149 1.377 . S
C1148 C1150 1.384 . S
C1149 C1148 1.377 . S
C1149 C1155 1.390 . S
C1150 H1141 0.930 . S
C1150 C1148 1.384 . S
C1150 C1151 1.372 . S
C1151 C1150 1.372 . S
C1151 C1152 1.400 . S
C1151 C1156 1.490 . S
C1152 H1142 0.930 . S
C1152 C1151 1.400 . S
C1152 C1155 1.386 . S
H1153 C1169 0.930 . S
H1154 C1170 0.931 . S
C1155 H1143 0.929 . S
C1155 C1149 1.390 . S
C1155 C1152 1.386 . S
C1156 C1151 1.490 . S
C1156 C1158 1.395 . S
C1156 C1159 1.403 . S
H1157 C1163 0.930 . S
C1158 H1144 0.930 . S
C1158 C1156 1.395 . S
C1158 C1161 1.403 . S
C1159 C1156 1.403 . S
C1159 C1160 1.524 . S
C1159 C1163 1.400 . S
C1160 H1145 0.960 . S
C1160 H1146 0.960 . S
C1160 H1147 0.960 . S
C1160 C1159 1.524 . S
C1161 C1158 1.403 . S
C1161 C1162 1.392 . S
C1161 C1165 1.495 1_565 S
C1162 C1161 1.392 . S
C1162 C1163 1.385 . S
C1162 C1164 1.478 . S
C1163 H1157 0.930 . S
C1163 C1159 1.400 . S
C1163 C1162 1.385 . S
C1164 C1162 1.478 . S
C1164 C1166 1.381 . S
C1164 C1170 1.383 . S
C1165 C1161 1.495 1_545 S
C1165 H1171 0.959 . S
C1165 H1172 0.961 . S
C1165 H1173 0.962 . S
C1166 C1164 1.381 . S
C1166 C1167 1.394 . S
C1166 H1174 0.930 1_556 S
C1167 C1166 1.394 . S
C1167 C1168 1.383 . S
C1167 H1175 0.929 1_556 S
C1168 C1167 1.383 . S
C1168 C1169 1.377 . S
C1169 H1153 0.930 . S
C1169 C1168 1.377 . S
C1169 C1170 1.379 . S
C1170 H1154 0.931 . S
C1170 C1164 1.383 . S
C1170 C1169 1.379 . S
H1171 C1165 0.959 . S
H1172 C1165 0.961 . S
H1173 C1165 0.962 . S
H1174 C1166 0.930 1_554 S
H1175 C1167 0.929 1_554 S
H1176 C1184 0.929 . S
H1177 C1186 0.930 . S
H1178 C1188 0.930 . S
H1179 C1191 0.929 . S
H1180 C1194 0.930 . S
H1181 C1196 0.960 . S
H1182 C1196 0.960 . S
H1183 C1196 0.960 . S
C1184 H1176 0.929 . S
C1184 C1185 1.377 . S
C1184 C1186 1.384 . S
C1185 C1184 1.377 . S
C1185 C1191 1.390 . S
C1186 H1177 0.930 . S
C1186 C1184 1.384 . S
C1186 C1187 1.372 . S
C1187 C1186 1.372 . S
C1187 C1188 1.400 . S
C1187 C1192 1.490 . S
C1188 H1178 0.930 . S
C1188 C1187 1.400 . S
C1188 C1191 1.386 . S
H1189 C1205 0.930 . S
H1190 C1206 0.931 . S
C1191 H1179 0.929 . S
C1191 C1185 1.390 . S
C1191 C1188 1.386 . S
C1192 C1187 1.490 . S
C1192 C1194 1.395 . S
C1192 C1195 1.403 . S
H1193 C1199 0.930 . S
C1194 H1180 0.930 . S
C1194 C1192 1.395 . S
C1194 C1197 1.403 . S
C1195 C1192 1.403 . S
C1195 C1196 1.524 . S
C1195 C1199 1.400 . S
C1196 H1181 0.960 . S
C1196 H1182 0.960 . S
C1196 H1183 0.960 . S
C1196 C1195 1.524 . S
C1197 C1194 1.403 . S
C1197 C1198 1.392 . S
C1197 C1201 1.495 . S
C1198 C1197 1.392 . S
C1198 C1199 1.385 . S
C1198 C1200 1.478 . S
C1199 H1193 0.930 . S
C1199 C1195 1.400 . S
C1199 C1198 1.385 . S
C1200 C1198 1.478 . S
C1200 C1202 1.381 . S
C1200 C1206 1.383 . S
C1201 C1197 1.495 . S
C1201 H1207 0.959 . S
C1201 H1208 0.961 . S
C1201 H1209 0.960 . S
C1202 C1200 1.381 . S
C1202 C1203 1.394 . S
C1202 H1210 0.930 . S
C1203 C1202 1.394 . S
C1203 C1204 1.383 . S
C1203 H1211 0.929 . S
C1204 C1203 1.383 . S
C1204 C1205 1.377 . S
C1205 H1189 0.930 . S
C1205 C1204 1.377 . S
C1205 C1206 1.379 . S
C1206 H1190 0.931 . S
C1206 C1200 1.383 . S
C1206 C1205 1.379 . S
H1207 C1201 0.959 . S
H1208 C1201 0.961 . S
H1209 C1201 0.960 . S
H1210 C1202 0.930 . S
H1211 C1203 0.929 . S
H1212 C1220 0.929 . S
H1213 C1222 0.930 . S
H1214 C1224 0.930 . S
H1215 C1227 0.929 . S
H1216 C1230 0.930 . S
H1217 C1232 0.960 . S
H1218 C1232 0.960 . S
H1219 C1232 0.960 . S
C1220 H1212 0.929 . S
C1220 C1221 1.377 . S
C1220 C1222 1.384 . S
C1221 C1220 1.377 . S
C1221 C1227 1.390 . S
C1222 H1213 0.930 . S
C1222 C1220 1.384 . S
C1222 C1223 1.372 . S
C1223 C1222 1.372 . S
C1223 C1224 1.400 . S
C1223 C1228 1.490 . S
C1224 H1214 0.930 . S
C1224 C1223 1.400 . S
C1224 C1227 1.386 . S
H1225 C1241 0.930 1_556 S
H1226 C1242 0.931 . S
C1227 H1215 0.929 . S
C1227 C1221 1.390 . S
C1227 C1224 1.386 . S
C1228 C1223 1.490 . S
C1228 C1230 1.395 . S
C1228 C1231 1.403 . S
H1229 C1235 0.930 . S
C1230 H1216 0.930 . S
C1230 C1228 1.395 . S
C1230 C1233 1.403 . S
C1231 C1228 1.403 . S
C1231 C1232 1.524 . S
C1231 C1235 1.400 . S
C1232 H1217 0.960 . S
C1232 H1218 0.960 . S
C1232 H1219 0.960 . S
C1232 C1231 1.524 . S
C1233 C1230 1.403 . S
C1233 C1234 1.392 . S
C1233 C1237 1.495 . S
C1234 C1233 1.392 . S
C1234 C1235 1.385 . S
C1234 C1236 1.478 . S
C1235 H1229 0.930 . S
C1235 C1231 1.400 . S
C1235 C1234 1.385 . S
C1236 C1234 1.478 . S
C1236 C1238 1.381 . S
C1236 C1242 1.383 . S
C1237 C1233 1.495 . S
C1237 H1243 0.959 . S
C1237 H1244 0.961 . S
C1237 H1245 0.960 . S
C1238 C1236 1.381 . S
C1238 C1239 1.394 . S
C1238 H1246 0.930 . S
C1239 C1238 1.394 . S
C1239 C1240 1.383 . S
C1239 H1247 0.929 . S
C1240 C1239 1.383 . S
C1240 C1241 1.377 . S
C1241 H1225 0.930 1_554 S
C1241 C1240 1.377 . S
C1241 C1242 1.379 . S
C1242 H1226 0.931 . S
C1242 C1236 1.383 . S
C1242 C1241 1.379 . S
H1243 C1237 0.959 . S
H1244 C1237 0.961 . S
H1245 C1237 0.960 . S
H1246 C1238 0.930 . S
H1247 C1239 0.929 . S
H1248 C1256 0.929 . S
H1249 C1258 0.930 . S
H1250 C1260 0.930 . S
H1251 C1263 0.929 . S
H1252 C1266 0.930 . S
H1253 C1268 0.960 . S
H1254 C1268 0.960 . S
H1255 C1268 0.960 . S
C1256 H1248 0.929 . S
C1256 C1257 1.377 . S
C1256 C1258 1.384 . S
C1257 C1256 1.377 . S
C1257 C1263 1.390 . S
C1258 H1249 0.930 . S
C1258 C1256 1.384 . S
C1258 C1259 1.372 . S
C1259 C1258 1.372 . S
C1259 C1260 1.400 . S
C1259 C1264 1.490 . S
C1260 H1250 0.930 . S
C1260 C1259 1.400 . S
C1260 C1263 1.386 . S
H1261 C1277 0.930 . S
H1262 C1278 0.931 . S
C1263 H1251 0.929 . S
C1263 C1257 1.390 . S
C1263 C1260 1.386 . S
C1264 C1259 1.490 . S
C1264 C1266 1.395 . S
C1264 C1267 1.403 . S
H1265 C1271 0.930 . S
C1266 H1252 0.930 . S
C1266 C1264 1.395 . S
C1266 C1269 1.403 . S
C1267 C1264 1.403 . S
C1267 C1268 1.524 . S
C1267 C1271 1.400 . S
C1268 H1253 0.960 . S
C1268 H1254 0.960 . S
C1268 H1255 0.960 . S
C1268 C1267 1.524 . S
C1269 C1266 1.403 . S
C1269 C1270 1.392 . S
C1269 C1273 1.495 . S
C1270 C1269 1.392 . S
C1270 C1271 1.385 . S
C1270 C1272 1.478 . S
C1271 H1265 0.930 . S
C1271 C1267 1.400 . S
C1271 C1270 1.385 . S
C1272 C1270 1.478 . S
C1272 C1274 1.381 . S
C1272 C1278 1.383 . S
C1273 C1269 1.495 . S
C1273 H1279 0.959 . S
C1273 H1280 0.961 . S
C1273 H1281 0.960 . S
C1274 C1272 1.381 . S
C1274 C1275 1.394 . S
C1274 H1282 0.930 . S
C1275 C1274 1.394 . S
C1275 C1276 1.383 . S
C1275 H1283 0.929 . S
C1276 C1275 1.383 . S
C1276 C1277 1.377 . S
C1277 H1261 0.930 . S
C1277 C1276 1.377 . S
C1277 C1278 1.379 . S
C1278 H1262 0.931 . S
C1278 C1272 1.383 . S
C1278 C1277 1.379 . S
H1279 C1273 0.959 . S
H1280 C1273 0.961 . S
H1281 C1273 0.960 . S
H1282 C1274 0.930 . S
H1283 C1275 0.929 . S
H1284 C1292 0.929 . S
H1285 C1294 0.930 . S
H1286 C1296 0.930 . S
H1287 C1299 0.929 . S
H1288 C1302 0.930 . S
H1289 C1304 0.960 . S
H1290 C1304 0.960 . S
H1291 C1304 0.960 . S
C1292 H1284 0.929 . S
C1292 C1293 1.377 . S
C1292 C1294 1.384 . S
C1293 C1292 1.377 . S
C1293 C1299 1.390 . S
C1294 H1285 0.930 . S
C1294 C1292 1.384 . S
C1294 C1295 1.372 . S
C1295 C1294 1.372 . S
C1295 C1296 1.400 . S
C1295 C1300 1.490 . S
C1296 H1286 0.930 . S
C1296 C1295 1.400 . S
C1296 C1299 1.386 . S
H1297 C1313 0.930 1_554 S
H1298 C1314 0.931 . S
C1299 H1287 0.929 . S
C1299 C1293 1.390 . S
C1299 C1296 1.386 . S
C1300 C1295 1.490 . S
C1300 C1302 1.395 . S
C1300 C1303 1.403 . S
H1301 C1307 0.930 . S
C1302 H1288 0.930 . S
C1302 C1300 1.395 . S
C1302 C1305 1.403 . S
C1303 C1300 1.403 . S
C1303 C1304 1.524 . S
C1303 C1307 1.400 . S
C1304 H1289 0.960 . S
C1304 H1290 0.960 . S
C1304 H1291 0.960 . S
C1304 C1303 1.524 . S
C1305 C1302 1.403 . S
C1305 C1306 1.392 . S
C1305 C1309 1.495 . S
C1306 C1305 1.392 . S
C1306 C1307 1.385 . S
C1306 C1308 1.478 . S
C1307 H1301 0.930 . S
C1307 C1303 1.400 . S
C1307 C1306 1.385 . S
C1308 C1306 1.478 . S
C1308 C1310 1.381 . S
C1308 C1314 1.383 . S
C1309 C1305 1.495 . S
C1309 H1315 0.959 1_655 S
C1309 H1316 0.961 . S
C1309 H1317 0.960 1_655 S
C1310 C1308 1.381 . S
C1310 C1311 1.394 . S
C1310 H1318 0.930 . S
C1311 C1310 1.394 . S
C1311 C1312 1.383 . S
C1311 H1319 0.920 1_655 S
C1312 C1311 1.383 . S
C1312 C1313 1.377 . S
C1313 H1297 0.930 1_556 S
C1313 C1312 1.377 . S
C1313 C1314 1.379 . S
C1314 H1298 0.931 . S
C1314 C1308 1.383 . S
C1314 C1313 1.379 . S
H1315 C1309 0.959 1_455 S
H1316 C1309 0.961 . S
H1317 C1309 0.960 1_455 S
H1318 C1310 0.930 . S
H1319 C1311 0.920 1_455 S
H1320 C1328 0.929 . S
H1321 C1330 0.930 . S
H1322 C1332 0.930 . S
H1323 C1335 0.929 . S
H1324 C1338 0.930 . S
H1325 C1340 0.960 . S
H1326 C1340 0.960 . S
H1327 C1340 0.960 . S
C1328 H1320 0.929 . S
C1328 C1329 1.377 . S
C1328 C1330 1.384 . S
C1329 C1328 1.377 . S
C1329 C1335 1.390 . S
C1330 H1321 0.930 . S
C1330 C1328 1.384 . S
C1330 C1331 1.372 . S
C1331 C1330 1.372 . S
C1331 C1332 1.400 . S
C1331 C1336 1.490 . S
C1332 H1322 0.930 . S
C1332 C1331 1.400 . S
C1332 C1335 1.386 . S
H1333 C1349 0.930 . S
H1334 C1350 0.931 . S
C1335 H1323 0.929 . S
C1335 C1329 1.390 . S
C1335 C1332 1.386 . S
C1336 C1331 1.490 . S
C1336 C1338 1.395 . S
C1336 C1339 1.403 . S
H1337 C1343 0.930 . S
C1338 H1324 0.930 . S
C1338 C1336 1.395 . S
C1338 C1341 1.403 . S
C1339 C1336 1.403 . S
C1339 C1340 1.524 . S
C1339 C1343 1.400 . S
C1340 H1325 0.960 . S
C1340 H1326 0.960 . S
C1340 H1327 0.960 . S
C1340 C1339 1.524 . S
C1341 C1338 1.403 . S
C1341 C1342 1.392 . S
C1341 C1345 1.495 . S
C1342 C1341 1.392 . S
C1342 C1343 1.385 . S
C1342 C1344 1.478 . S
C1343 H1337 0.930 . S
C1343 C1339 1.400 . S
C1343 C1342 1.385 . S
C1344 C1342 1.478 . S
C1344 C1346 1.381 . S
C1344 C1350 1.383 . S
C1345 C1341 1.495 . S
C1345 H1351 0.959 . S
C1345 H1352 0.961 . S
C1345 H1353 0.960 . S
C1346 C1344 1.381 . S
C1346 C1347 1.394 . S
C1346 H1354 0.930 . S
C1347 C1346 1.394 . S
C1347 C1348 1.383 . S
C1347 H1355 0.929 . S
C1348 C1347 1.383 . S
C1348 C1349 1.377 . S
C1349 H1333 0.930 . S
C1349 C1348 1.377 . S
C1349 C1350 1.379 . S
C1350 H1334 0.931 . S
C1350 C1344 1.383 . S
C1350 C1349 1.379 . S
H1351 C1345 0.959 . S
H1352 C1345 0.961 . S
H1353 C1345 0.960 . S
H1354 C1346 0.930 . S
H1355 C1347 0.929 . S
H1356 C1364 0.929 . S
H1357 C1366 0.930 . S
H1358 C1368 0.930 . S
H1359 C1371 0.929 . S
H1360 C1374 0.930 . S
H1361 C1376 0.960 . S
H1362 C1376 0.960 . S
H1363 C1376 0.960 . S
C1364 H1356 0.929 . S
C1364 C1365 1.377 . S
C1364 C1366 1.384 . S
C1365 C1364 1.377 . S
C1365 C1371 1.390 . S
C1366 H1357 0.930 . S
C1366 C1364 1.384 . S
C1366 C1367 1.372 . S
C1367 C1366 1.372 . S
C1367 C1368 1.400 . S
C1367 C1372 1.490 . S
C1368 H1358 0.930 . S
C1368 C1367 1.400 . S
C1368 C1371 1.386 . S
H1369 C1385 0.930 . S
H1370 C1386 0.931 . S
C1371 H1359 0.929 . S
C1371 C1365 1.390 . S
C1371 C1368 1.386 . S
C1372 C1367 1.490 . S
C1372 C1374 1.395 . S
C1372 C1375 1.403 . S
H1373 C1379 0.930 . S
C1374 H1360 0.930 . S
C1374 C1372 1.395 . S
C1374 C1377 1.403 . S
C1375 C1372 1.403 . S
C1375 C1376 1.524 . S
C1375 C1379 1.400 . S
C1376 H1361 0.960 . S
C1376 H1362 0.960 . S
C1376 H1363 0.960 . S
C1376 C1375 1.524 . S
C1377 C1374 1.403 . S
C1377 C1378 1.392 . S
C1377 C1381 1.495 1_455 S
C1378 C1377 1.392 . S
C1378 C1379 1.385 . S
C1378 C1380 1.478 . S
C1379 H1373 0.930 . S
C1379 C1375 1.400 . S
C1379 C1378 1.385 . S
C1380 C1378 1.478 . S
C1380 C1382 1.381 . S
C1380 C1386 1.383 . S
C1381 C1377 1.495 1_655 S
C1381 H1387 0.959 . S
C1381 H1388 0.961 . S
C1381 H1389 0.960 . S
C1382 C1380 1.381 . S
C1382 C1383 1.394 . S
C1382 H1390 0.930 . S
C1383 C1382 1.394 . S
C1383 C1384 1.383 . S
C1383 H1391 0.929 1_455 S
C1384 C1383 1.383 . S
C1384 C1385 1.377 . S
C1385 H1369 0.930 . S
C1385 C1384 1.377 . S
C1385 C1386 1.379 . S
C1386 H1370 0.931 . S
C1386 C1380 1.383 . S
C1386 C1385 1.379 . S
H1387 C1381 0.959 . S
H1388 C1381 0.961 . S
H1389 C1381 0.960 . S
H1390 C1382 0.930 . S
H1391 C1383 0.929 1_655 S
H1392 C1400 0.929 . S
H1393 C1402 0.930 . S
H1394 C1404 0.930 . S
H1395 C1407 0.929 . S
H1396 C1410 0.930 . S
H1397 C1412 0.960 . S
H1398 C1412 0.960 . S
H1399 C1412 0.960 . S
C1400 H1392 0.929 . S
C1400 C1401 1.377 . S
C1400 C1402 1.384 . S
C1401 C1400 1.377 . S
C1401 C1407 1.390 . S
C1402 H1393 0.930 . S
C1402 C1400 1.384 . S
C1402 C1403 1.372 . S
C1403 C1402 1.372 . S
C1403 C1404 1.400 . S
C1403 C1408 1.490 . S
C1404 H1394 0.930 . S
C1404 C1403 1.400 . S
C1404 C1407 1.386 . S
H1405 C1421 0.930 . S
H1406 C1422 0.931 . S
C1407 H1395 0.929 . S
C1407 C1401 1.390 . S
C1407 C1404 1.386 . S
C1408 C1403 1.490 . S
C1408 C1410 1.395 . S
C1408 C1411 1.403 . S
H1409 C1415 0.930 . S
C1410 H1396 0.930 . S
C1410 C1408 1.395 . S
C1410 C1413 1.403 . S
C1411 C1408 1.403 . S
C1411 C1412 1.524 . S
C1411 C1415 1.400 . S
C1412 H1397 0.960 . S
C1412 H1398 0.960 . S
C1412 H1399 0.960 . S
C1412 C1411 1.524 . S
C1413 C1410 1.403 . S
C1413 C1414 1.392 . S
C1413 C1417 1.495 . S
C1414 C1413 1.392 . S
C1414 C1415 1.385 . S
C1414 C1416 1.478 . S
C1415 H1409 0.930 . S
C1415 C1411 1.400 . S
C1415 C1414 1.385 . S
C1416 C1414 1.478 . S
C1416 C1418 1.381 . S
C1416 C1422 1.383 . S
C1417 C1413 1.495 . S
C1417 H1423 0.959 . S
C1417 H1424 0.961 . S
C1417 H1425 0.960 . S
C1418 C1416 1.381 . S
C1418 C1419 1.394 . S
C1418 H1426 0.930 . S
C1419 C1418 1.394 . S
C1419 C1420 1.383 . S
C1419 H1427 0.929 . S
C1420 C1419 1.383 . S
C1420 C1421 1.377 . S
C1421 H1405 0.930 . S
C1421 C1420 1.377 . S
C1421 C1422 1.379 . S
C1422 H1406 0.931 . S
C1422 C1416 1.383 . S
C1422 C1421 1.379 . S
H1423 C1417 0.959 . S
H1424 C1417 0.961 . S
H1425 C1417 0.960 . S
H1426 C1418 0.930 . S
H1427 C1419 0.929 . S
C573 C1 1.618 . S
C592 C496 1.579 . S
C609 C80 1.444 . S
C628 C518 1.430 . S
C664 C537 1.161 . S
C645 C140 1.372 . S
C681 C211 1.798 . S
C700 C558 1.581 . S
C736 C515 1.808 . S
C717 C31 1.845 . S
C772 C493 1.716 . S
C753 C61 1.693 . S
C808 C560 1.230 . S
C789 C151 1.266 . S
C844 C539 1.430 . S
C825 C200 1.433 . S
C861 C20 1.792 . S
C880 C557 1.724 . S
C916 C516 1.373 . S
C897 C121 1.573 . S
C933 C181 1.633 . S
C952 C498 1.546 . S
C969 C91 1.474 . S
C988 C536 1.493 . S
C1024 C494 1.579 . S
C1005 C260 1.647 . S
C1041 C320 1.244 . S
C1060 C514 1.264 . S
C1077 C361 1.480 . S
C1096 C540 1.215 . S
C1113 C451 1.688 . S
C1132 C561 1.440 . S
C1149 C271 1.794 . S
C1168 C517 1.780 . S
C1204 C497 1.752 . S
C1185 C301 1.778 . S
C1240 C556 1.145 . S
C1221 C380 1.180 . S
C1276 C535 1.544 . S
C1257 C440 1.529 . S
C1293 C241 1.559 . S
C1312 C559 1.548 . S
C1348 C519 1.200 . S
C1329 C391 1.488 . S
C1384 C495 1.337 . S
C1365 C421 1.418 . S
C1401 C331 1.416 . S
C1420 C538 1.398 . S
