# Generated by pormake.
# Topology anh, (6,3)-cn, num edge types: 1
# Building blocks:
#     Node 0, Type 0, BuildingBlock: BETFAJ_clean_sbu_0, # of connection points: 6
#     Node 1, Type 0, BuildingBlock: BETFAJ_clean_sbu_0, # of connection points: 6
#     Node 2, Type 0, BuildingBlock: BETFAJ_clean_sbu_0, # of connection points: 6
#     Node 3, Type 1, BuildingBlock: VETTIZ_charged_linker_0, # of connection points: 3
#     Node 4, Type 1, BuildingBlock: VETTIZ_charged_linker_0, # of connection points: 3
#     Node 5, Type 1, BuildingBlock: VETTIZ_charged_linker_0, # of connection points: 3
#     Node 6, Type 1, BuildingBlock: VETTIZ_charged_linker_0, # of connection points: 3
#     Node 7, Type 1, BuildingBlock: VETTIZ_charged_linker_0, # of connection points: 3
#     Node 8, Type 1, BuildingBlock: VETTIZ_charged_linker_0, # of connection points: 3
#     Edge 9, Type (0, 1), BuildingBlock: ZUJKAS_clean_linker_0, # of connection points: 2
#     Edge 10, Type (0, 1), BuildingBlock: ZUJKAS_clean_linker_0, # of connection points: 2
#     Edge 11, Type (0, 1), BuildingBlock: ZUJKAS_clean_linker_0, # of connection points: 2
#     Edge 12, Type (0, 1), BuildingBlock: ZUJKAS_clean_linker_0, # of connection points: 2
#     Edge 13, Type (0, 1), BuildingBlock: ZUJKAS_clean_linker_0, # of connection points: 2
#     Edge 14, Type (0, 1), BuildingBlock: ZUJKAS_clean_linker_0, # of connection points: 2
#     Edge 15, Type (0, 1), BuildingBlock: ZUJKAS_clean_linker_0, # of connection points: 2
#     Edge 16, Type (0, 1), BuildingBlock: ZUJKAS_clean_linker_0, # of connection points: 2
#     Edge 17, Type (0, 1), BuildingBlock: ZUJKAS_clean_linker_0, # of connection points: 2
#     Edge 18, Type (0, 1), BuildingBlock: ZUJKAS_clean_linker_0, # of connection points: 2
#     Edge 19, Type (0, 1), BuildingBlock: ZUJKAS_clean_linker_0, # of connection points: 2
#     Edge 20, Type (0, 1), BuildingBlock: ZUJKAS_clean_linker_0, # of connection points: 2
#     Edge 21, Type (0, 1), BuildingBlock: ZUJKAS_clean_linker_0, # of connection points: 2
#     Edge 22, Type (0, 1), BuildingBlock: ZUJKAS_clean_linker_0, # of connection points: 2
#     Edge 23, Type (0, 1), BuildingBlock: ZUJKAS_clean_linker_0, # of connection points: 2
#     Edge 24, Type (0, 1), BuildingBlock: ZUJKAS_clean_linker_0, # of connection points: 2
#     Edge 25, Type (0, 1), BuildingBlock: ZUJKAS_clean_linker_0, # of connection points: 2
#     Edge 26, Type (0, 1), BuildingBlock: ZUJKAS_clean_linker_0, # of connection points: 2
# Relax obj value: 0.168
# Max RMSD: 0.200
# Mean RMSD: 0.153
data_MOF--net-anh--node1-BETFAJ_clean_sbu_0--node2-VETTIZ_charged_linker_0--edge1-ZUJKAS_clean_linker_0
_symmetry_space_group_name_H-M    P1
_symmetry_Int_Tables_number       1
_symmetry_cell_setting            triclinic
loop_
_symmetry_equiv_pos_as_xyz
'x, y, z'
_cell_length_a     45.471895
_cell_length_b     52.142734
_cell_length_c     82.516889
_cell_angle_alpha  92.044992
_cell_angle_beta   89.690104
_cell_angle_gamma 127.34464
loop_
_atom_site_label
_atom_site_type_symbol
_atom_site_fract_x
_atom_site_fract_y
_atom_site_fract_z
_atom_type_partial_charge
Sm0 Sm 0.07666 0.5117 0.14868 0.0
Sm1 Sm 1.03296 0.54006 0.16079 0.0
C2 C 0.11472 0.49755 0.13191 0.0
C3 C 0.1503 0.50399 0.13555 0.0
C4 C 0.17638 0.5141 0.12336 0.0
C5 C 0.21153 0.52311 0.12713 0.0
C6 C 0.22102 0.52207 0.14317 0.0
C7 C 0.19466 0.51164 0.15531 0.0
C8 C 0.15971 0.50283 0.15155 0.0
C9 C 0.07528 0.51564 0.18223 0.0
C10 C 0.12223 0.59044 0.15746 0.0
C11 C 0.99135 0.55196 0.17642 0.0
C12 C 0.95812 0.53229 0.18616 0.0
C13 C 0.93832 0.54387 0.19066 0.0
C14 C 0.90298 0.52298 0.19702 0.0
C15 C 0.88655 0.48998 0.1985 0.0
C16 C 0.90806 0.47932 0.19531 0.0
C17 C 0.94369 0.50044 0.18932 0.0
C18 C 1.04812 0.54289 0.12835 0.0
C19 C 0.98778 0.46089 0.15404 0.0
O20 O 0.11668 0.52324 0.12936 0.0
O21 O 0.08701 0.47674 0.14106 0.0
O22 O 0.06231 0.52342 0.17191 0.0
O23 O 0.09156 0.50529 0.17467 0.0
O24 O 0.12121 0.56739 0.14941 0.0
O25 O 0.09295 0.58504 0.16466 0.0
O26 O 1.02186 0.55876 0.18268 0.0
O27 O 0.9866 0.54325 0.16097 0.0
O28 O 1.03851 0.5201 0.13734 0.0
O29 O 1.04733 0.56463 0.13613 0.0
O30 O 0.98937 0.48451 0.16174 0.0
O31 O 1.01627 0.46603 0.14615 0.0
H32 H 0.16975 0.5155 0.11098 0.0
H33 H 0.23122 0.53075 0.11751 0.0
H34 H 0.20133 0.51096 0.16779 0.0
H35 H 0.14029 0.49566 0.16125 0.0
H36 H 0.94935 0.56857 0.18851 0.0
H37 H 0.88769 0.53229 0.19985 0.0
H38 H 0.89656 0.45419 0.19625 0.0
H39 H 0.95909 0.49138 0.18626 0.0
Sm40 Sm 0.59322 0.01375 0.49132 0.0
Sm41 Sm 0.54459 0.0372 0.48032 0.0
C42 C 0.62072 0.98728 0.50524 0.0
C43 C 0.61273 0.9554 0.50559 0.0
C44 C 0.57637 0.92679 0.50399 0.0
C45 C 0.56946 0.89676 0.50437 0.0
C46 C 0.59883 0.89484 0.50619 0.0
C47 C 0.6352 0.92361 0.50761 0.0
C48 C 0.64204 0.95359 0.50733 0.0
C49 C 0.58859 0.02012 0.45871 0.0
C50 C 0.50177 0.95983 0.48505 0.0
C51 C 0.51701 0.06137 0.46431 0.0
C52 C 0.5186 0.09008 0.46768 0.0
C53 C 0.50673 0.10108 0.45603 0.0
C54 C 0.50839 0.12847 0.45948 0.0
C55 C 0.52172 0.14504 0.47468 0.0
C56 C 0.53391 0.13399 0.48622 0.0
C57 C 0.5325 0.10689 0.48272 0.0
C58 C 0.55647 0.04364 0.51371 0.0
C59 C 0.63503 0.08982 0.48758 0.0
O60 O 0.59697 0.99027 0.51225 0.0
O61 O 0.63261 1.00188 0.4915 0.0
O62 O 0.56265 0.00926 0.46857 0.0
O63 O 0.61767 0.02582 0.4657 0.0
O64 O 0.53293 0.9666 0.49105 0.0
O65 O 0.49997 0.98196 0.4788 0.0
O66 O 0.54867 0.06723 0.46071 0.0
O67 O 0.49776 0.03817 0.47455 0.0
O68 O 0.56824 0.03479 0.50293 0.0
O69 O 0.53602 0.04981 0.50671 0.0
O70 O 0.60612 0.08172 0.47866 0.0
O71 O 0.63447 0.06861 0.49624 0.0
H72 H 0.55336 0.92765 0.50246 0.0
H73 H 0.54119 0.87504 0.50309 0.0
H74 H 0.65837 0.92297 0.50923 0.0
H75 H 0.67028 0.97541 0.50854 0.0
H76 H 0.4961 0.08846 0.44433 0.0
H77 H 0.49871 0.13637 0.45038 0.0
H78 H 0.54495 0.14655 0.49791 0.0
H79 H 0.54228 0.09902 0.49179 0.0
Sm80 Sm 0.60506 0.56011 0.84025 0.0
Sm81 Sm 0.55445 0.48882 0.84623 0.0
C82 C 0.63843 0.61868 0.82913 0.0
C83 C 0.63272 0.64348 0.82796 0.0
C84 C 0.59707 0.63523 0.82723 0.0
C85 C 0.59236 0.65918 0.82559 0.0
C86 C 0.62327 0.69179 0.82462 0.0
C87 C 0.65891 0.6999 0.82568 0.0
C88 C 0.66355 0.67596 0.82733 0.0
C89 C 0.59791 0.54526 0.87226 0.0
C90 C 0.51395 0.52336 0.84476 0.0
C91 C 0.52321 0.43028 0.85684 0.0
C92 C 0.52874 0.40542 0.8542 0.0
C93 C 0.51852 0.38307 0.86612 0.0
C94 C 0.52342 0.35919 0.86364 0.0
C95 C 0.53855 0.35719 0.84915 0.0
C96 C 0.54908 0.37997 0.8373 0.0
C97 C 0.5444 0.40393 0.83984 0.0
C98 C 0.56269 0.50307 0.81403 0.0
C99 C 0.64586 0.52594 0.84244 0.0
O100 O 0.61657 0.59209 0.82021 0.0
O101 O 0.6447 0.61354 0.84366 0.0
O102 O 0.57191 0.53186 0.86189 0.0
O103 O 0.62895 0.56872 0.86615 0.0
O104 O 0.54598 0.54817 0.83898 0.0
O105 O 0.51118 0.49848 0.85041 0.0
O106 O 0.5497 0.45666 0.86483 0.0
O107 O 0.5105 0.43593 0.84439 0.0
O108 O 0.58833 0.5169 0.82459 0.0
O109 O 0.53172 0.47951 0.8201 0.0
O110 O 0.61349 0.50088 0.8478 0.0
O111 O 0.64901 0.55104 0.83688 0.0
H112 H 0.57293 0.61026 0.82769 0.0
H113 H 0.56455 0.65206 0.82466 0.0
H114 H 0.68329 0.7248 0.82522 0.0
H115 H 0.69129 0.6828 0.82798 0.0
H116 H 0.50672 0.38407 0.87735 0.0
H117 H 0.5156 0.34247 0.87315 0.0
H118 H 0.56034 0.37898 0.8259 0.0
H119 H 0.55272 0.42114 0.83051 0.0
C120 C 0.63973 0.11653 0.18286 0.0
C121 C 0.66609 0.14686 0.19077 0.0
C122 C 0.6673 0.14916 0.20784 0.0
C123 C 0.61674 0.0922 0.20902 0.0
C124 C 0.61505 0.08954 0.19226 0.0
C125 C 0.58402 0.0555 0.18621 0.0
H126 H 0.44589 0.8999 0.20548 0.0
C127 C 0.58783 0.06024 0.21537 0.0
C128 C 0.56823 0.03835 0.20212 0.0
H129 H 0.47484 0.93717 0.15742 0.0
H130 H 0.52352 0.99084 0.1689 0.0
H131 H 0.52877 0.93851 0.21987 0.0
H132 H 0.44729 0.95533 0.2206 0.0
H133 H 0.47021 0.97003 0.23951 0.0
H134 H 0.44515 0.92774 0.23385 0.0
H135 H 0.48761 0.91567 0.23162 0.0
H136 H 0.52952 0.95265 0.23961 0.0
C137 C 0.60097 0.04198 0.1762 0.0
C138 C 0.55577 0.05656 0.17656 0.0
C139 C 0.5775 0.04718 0.27644 0.0
C140 C 0.55367 0.0206 0.28611 0.0
C141 C 0.52606 0.99044 0.27849 0.0
C142 C 0.52237 0.98674 0.26156 0.0
C143 C 0.54648 0.01348 0.25204 0.0
C144 C 0.57333 0.04307 0.25951 0.0
C145 C 0.59614 0.06882 0.24746 0.0
C146 C 0.5786 0.04973 0.23152 0.0
C147 C 0.54974 0.0174 0.2343 0.0
C148 C 0.63676 0.08116 0.24945 0.0
C149 C 0.59038 0.09508 0.2503 0.0
C150 C 0.463 0.91948 0.19736 0.0
C151 C 0.45697 0.91421 0.18054 0.0
C152 C 0.47912 0.94064 0.17045 0.0
C153 C 0.5073 0.9717 0.17714 0.0
C154 C 0.51294 0.97645 0.19411 0.0
C155 C 0.49057 0.9504 0.20382 0.0
C156 C 0.49867 0.95939 0.22154 0.0
C157 C 0.5299 0.99513 0.22104 0.0
C158 C 0.5387 1.00533 0.20498 0.0
C159 C 0.51161 0.94054 0.22868 0.0
C160 C 0.46361 0.95266 0.22942 0.0
H161 H 0.64566 0.12584 0.22987 0.0
H162 H 0.63801 0.11407 0.16975 0.0
H163 H 0.55179 0.07365 0.1826 0.0
H164 H 0.52801 0.03308 0.17585 0.0
H165 H 0.56543 0.06469 0.16408 0.0
H166 H 0.62549 0.04708 0.18271 0.0
H167 H 0.61014 0.05328 0.16424 0.0
H168 H 0.58163 0.01555 0.17416 0.0
H169 H 0.59875 0.07076 0.28191 0.0
H170 H 0.50766 0.96949 0.28564 0.0
H171 H 0.50098 0.96309 0.25657 0.0
H172 H 0.63786 0.06104 0.25227 0.0
H173 H 0.65129 0.09971 0.2595 0.0
H174 H 0.65282 0.0911 0.23828 0.0
H175 H 0.5625 0.08461 0.2552 0.0
H176 H 0.59125 0.1062 0.23897 0.0
H177 H 0.61117 0.11431 0.25911 0.0
H178 H 0.6876 0.172 0.21422 0.0
C179 C 0.64297 0.12218 0.21694 0.0
C180 C 0.56165 0.59099 0.54112 0.0
C181 C 0.56358 0.61595 0.54957 0.0
C182 C 0.56771 0.61876 0.5666 0.0
C183 C 0.56787 0.57244 0.56657 0.0
C184 C 0.56364 0.56944 0.54987 0.0
C185 C 0.56125 0.54102 0.54299 0.0
H186 H 0.56206 0.41371 0.55644 0.0
C187 C 0.56927 0.54655 0.57203 0.0
C188 C 0.56534 0.52792 0.5583 0.0
H189 H 0.54676 0.44225 0.51058 0.0
H190 H 0.55402 0.48777 0.52409 0.0
H191 H 0.62759 0.48455 0.57009 0.0
H192 H 0.50976 0.42412 0.57645 0.0
H193 H 0.53053 0.44265 0.59543 0.0
H194 H 0.53905 0.41627 0.58571 0.0
H195 H 0.60432 0.45016 0.5826 0.0
H196 H 0.62023 0.48945 0.59051 0.0
C197 C 0.59408 0.55383 0.5315 0.0
C198 C 0.52268 0.51685 0.53474 0.0
C199 C 0.58526 0.53888 0.63214 0.0
C200 C 0.58751 0.51758 0.64103 0.0
C201 C 0.58623 0.4929 0.63258 0.0
C202 C 0.58227 0.48924 0.61564 0.0
C203 C 0.57949 0.51043 0.60697 0.0
C204 C 0.5813 0.53488 0.61523 0.0
C205 C 0.57813 0.55526 0.60404 0.0
C206 C 0.57381 0.53884 0.5877 0.0
C207 C 0.57452 0.51258 0.58949 0.0
C208 C 0.61471 0.59014 0.60543 0.0
C209 C 0.54296 0.55219 0.60851 0.0
C210 C 0.55986 0.4295 0.54928 0.0
C211 C 0.55353 0.4241 0.5324 0.0
C212 C 0.55184 0.44589 0.52357 0.0
C213 C 0.55581 0.4722 0.53145 0.0
C214 C 0.56151 0.47686 0.54838 0.0
C215 C 0.56357 0.4557 0.55695 0.0
C216 C 0.56943 0.46399 0.57484 0.0
C217 C 0.57027 0.49351 0.57567 0.0
C218 C 0.56569 0.50107 0.56014 0.0
C219 C 0.60718 0.47229 0.57993 0.0
C220 C 0.53571 0.43534 0.5837 0.0
H221 H 0.57318 0.60089 0.58804 0.0
H222 H 0.55824 0.58809 0.52805 0.0
H223 H 0.50114 0.51625 0.54159 0.0
H224 H 0.51325 0.49171 0.53445 0.0
H225 H 0.52242 0.52371 0.52218 0.0
H226 H 0.61971 0.57653 0.53669 0.0
H227 H 0.58837 0.55917 0.51951 0.0
H228 H 0.60101 0.53701 0.52965 0.0
H229 H 0.58664 0.55837 0.63821 0.0
H230 H 0.58748 0.47593 0.63912 0.0
H231 H 0.58116 0.46982 0.60998 0.0
H232 H 0.63879 0.58999 0.60742 0.0
H233 H 0.61418 0.60406 0.61578 0.0
H234 H 0.62111 0.60354 0.59425 0.0
H235 H 0.52086 0.52769 0.61281 0.0
H236 H 0.53021 0.555 0.59805 0.0
H237 H 0.54901 0.56997 0.61835 0.0
H238 H 0.56985 0.63804 0.57337 0.0
C239 C 0.5699 0.59725 0.57511 0.0
C240 C 0.16608 0.52512 0.85253 0.0
C241 C 0.19365 0.52521 0.86098 0.0
C242 C 0.19408 0.52695 0.87798 0.0
C243 C 0.14138 0.5281 0.87832 0.0
C244 C 0.13988 0.52647 0.86156 0.0
C245 C 0.10771 0.52632 0.85554 0.0
H246 H 0.95825 0.52452 0.87957 0.0
C247 C 0.11131 0.52896 0.88461 0.0
C248 C 0.09059 0.52778 0.87145 0.0
H249 H 0.98768 0.52475 0.82985 0.0
H250 H 1.04069 0.52655 0.83899 0.0
H251 H 0.97013 0.47588 0.8921 0.0
H252 H 1.03703 0.57896 0.89123 0.0
H253 H 0.04934 0.57165 0.90958 0.0
H254 H 1.00209 0.55661 0.90604 0.0
H255 H 0.9632 0.49974 0.90535 0.0
H256 H 0.99346 0.48988 0.91093 0.0
C257 C 0.07996 0.49489 0.84555 0.0
C258 C 0.1234 0.55641 0.84564 0.0
C259 C 0.10151 0.53559 0.94601 0.0
C260 C 0.07747 0.53729 0.95595 0.0
C261 C 0.04893 0.53639 0.94865 0.0
C262 C 1.04445 0.534 0.93177 0.0
C263 C 0.06887 0.53265 0.92191 0.0
C264 C 0.09678 0.53348 0.92908 0.0
C265 C 0.12022 0.5321 0.91672 0.0
C266 C 0.10188 0.53048 0.90089 0.0
C267 C 0.07183 0.53065 0.90406 0.0
C268 C 0.11614 0.50068 0.91918 0.0
C269 C 0.16026 0.56391 0.91877 0.0
C270 C 0.97553 0.52455 0.87046 0.0
C271 C 0.96781 0.52384 0.85398 0.0
C272 C 0.99246 0.52506 0.84272 0.0
C273 C 1.02315 0.52601 0.848 0.0
C274 C 1.02993 0.52635 0.86476 0.0
C275 C 1.00602 0.52603 0.87546 0.0
C276 C 1.01667 0.52817 0.89275 0.0
C277 C 0.05037 0.52906 0.89112 0.0
C278 C 0.05907 0.52783 0.87472 0.0
C279 C 0.98429 0.49704 0.90085 0.0
C280 C 1.02659 0.56029 0.90044 0.0
H281 H 0.17132 0.5297 0.89947 0.0
H282 H 0.1648 0.52372 0.83941 0.0
H283 H 0.14497 0.57864 0.85285 0.0
H284 H 0.10165 0.5587 0.84222 0.0
H285 H 0.13617 0.55534 0.83437 0.0
H286 H 0.07053 0.47359 0.85274 0.0
H287 H 0.09289 0.4938 0.83435 0.0
H288 H 0.05521 0.49288 0.84199 0.0
H289 H 0.12385 0.53638 0.95125 0.0
H290 H 1.02965 0.53711 0.95603 0.0
H291 H 1.02193 0.53318 0.92713 0.0
H292 H 0.0887 0.48149 0.9242 0.0
H293 H 0.13763 0.50502 0.92774 0.0
H294 H 0.11714 0.48967 0.90768 0.0
H295 H 0.16025 0.58438 0.92308 0.0
H296 H 0.17531 0.57193 0.90724 0.0
H297 H 0.17653 0.56159 0.92776 0.0
H298 H 0.21454 0.52713 0.88478 0.0
C299 C 0.16861 0.52843 0.88655 0.0
C300 C 0.98241 0.43393 0.45802 0.0
C301 C 0.95283 0.40487 0.45007 0.0
C302 C 0.94757 0.40465 0.43323 0.0
C303 C 1.00128 0.46052 0.43226 0.0
C304 C 1.00636 0.4615 0.44884 0.0
C305 C 1.03968 0.49457 0.45491 0.0
H306 H 0.18409 0.64837 0.43588 0.0
C307 C 1.03058 0.49248 0.42606 0.0
C308 C 0.05327 0.51296 0.43925 0.0
H309 H 0.15956 0.60836 0.48336 0.0
H310 H 0.10483 0.55738 0.4722 0.0
H311 H 0.17131 0.58923 0.41772 0.0
H312 H 0.10227 0.61881 0.42531 0.0
H313 H 0.09286 0.60268 0.40533 0.0
H314 H 0.13912 0.6375 0.41107 0.0
H315 H 0.17717 0.62124 0.40692 0.0
H316 H 0.14675 0.5798 0.39944 0.0
C317 C 0.06817 0.49101 0.46224 0.0
C318 C 1.02641 0.50864 0.46704 0.0
C319 C 1.03862 0.50809 0.36519 0.0
C320 C 0.06308 0.53483 0.3557 0.0
C321 C 0.09021 0.56488 0.36356 0.0
C322 C 0.09382 0.568 0.38048 0.0
C323 C 0.0701 0.54082 0.38978 0.0
C324 C 1.04261 0.51168 0.38214 0.0
C325 C 1.01943 0.48567 0.39404 0.0
C326 C 1.03835 0.50387 0.41005 0.0
C327 C 0.06807 0.53599 0.40741 0.0
C328 C 1.02329 0.45847 0.39038 0.0
C329 C 0.97925 0.47479 0.39272 0.0
C330 C 0.1673 0.62867 0.44395 0.0
C331 C 0.17668 0.6324 0.46048 0.0
C332 C 0.1531 0.60619 0.47054 0.0
C333 C 0.12147 0.57656 0.46402 0.0
C334 C 0.11329 0.5731 0.44727 0.0
C335 C 0.13617 0.59919 0.43766 0.0
C336 C 0.12464 0.5918 0.42014 0.0
C337 C 0.09095 0.55688 0.42061 0.0
C338 C 0.08395 0.54567 0.4365 0.0
C339 C 0.15649 0.59586 0.41042 0.0
C340 C 0.11438 0.61388 0.41504 0.0
H341 H 0.96576 0.42992 0.41161 0.0
H342 H 0.98715 0.43502 0.47095 0.0
H343 H 1.00097 0.50458 0.4623 0.0
H344 H 1.04687 0.53497 0.46914 0.0
H345 H 1.01981 0.49692 0.47888 0.0
H346 H 0.07059 0.47461 0.45438 0.0
H347 H 0.05968 0.48069 0.47444 0.0
H348 H 0.09628 0.51406 0.46323 0.0
H349 H 1.01747 0.48463 0.35958 0.0
H350 H 0.10883 0.58608 0.35661 0.0
H351 H 0.11534 0.59146 0.38564 0.0
H352 H 0.05238 0.46887 0.38743 0.0
H353 H 1.00549 0.4428 0.37983 0.0
H354 H 1.01665 0.44319 0.40078 0.0
H355 H 0.97847 0.49402 0.38788 0.0
H356 H 0.96598 0.46986 0.40467 0.0
H357 H 0.96177 0.45305 0.38452 0.0
H358 H 0.92456 0.38309 0.42683 0.0
C359 C 0.97146 0.43209 0.42436 0.0
C360 C 0.58718 0.95662 0.78572 0.0
C361 C 0.591 0.93526 0.77682 0.0
C362 C 0.59106 0.93552 0.75974 0.0
C363 C 0.58472 0.97837 0.76062 0.0
C364 C 0.58434 0.97811 0.77737 0.0
C365 C 0.58132 1.00331 0.78476 0.0
H366 H 0.57486 0.12839 0.77344 0.0
C367 C 0.58203 1.00377 0.7556 0.0
C368 C 0.58019 0.01869 0.76967 0.0
H369 H 0.57219 0.08869 0.81897 0.0
H370 H 0.57449 0.04851 0.80463 0.0
H371 H 0.63621 0.12472 0.75649 0.0
H372 H 0.51725 0.06152 0.75543 0.0
H373 H 0.53078 0.05932 0.73581 0.0
H374 H 0.54345 0.09743 0.74403 0.0
H375 H 0.60904 0.13394 0.74633 0.0
H376 H 0.6218 0.11084 0.73627 0.0
C377 C 0.61644 0.02737 0.79534 0.0
C378 C 0.54474 0.98587 0.79414 0.0
C379 C 0.58045 0.02182 0.69556 0.0
C380 C 0.57818 0.04352 0.68708 0.0
C381 C 0.57667 0.0663 0.69597 0.0
C382 C 0.57716 0.06733 0.71296 0.0
C383 C 0.57916 0.04533 0.72125 0.0
C384 C 0.58082 0.02312 0.71255 0.0
C385 C 0.58272 1.00158 0.72339 0.0
C386 C 0.58155 0.01432 0.74004 0.0
C387 C 0.57955 0.03994 0.73869 0.0
C388 C 0.62008 0.00741 0.72052 0.0
C389 C 0.54795 0.96634 0.71983 0.0
C390 C 0.57522 0.11129 0.78034 0.0
C391 C 0.57387 0.11195 0.79734 0.0
C392 C 0.57328 0.08866 0.80585 0.0
C393 C 0.57475 0.06546 0.79751 0.0
C394 C 0.57651 0.06539 0.78047 0.0
C395 C 0.57632 0.08791 0.77222 0.0
C396 C 0.57686 0.08373 0.75416 0.0
C397 C 0.57809 0.05535 0.75286 0.0
C398 C 0.57812 0.04471 0.76828 0.0
C399 C 0.61262 0.11489 0.74783 0.0
C400 C 0.54044 0.07528 0.74684 0.0
H401 H 0.58821 0.95573 0.73864 0.0
H402 H 0.58716 0.95705 0.79885 0.0
H403 H 0.52239 0.9629 0.78764 0.0
H404 H 0.53405 1.00002 0.79524 0.0
H405 H 0.54811 0.97989 0.80645 0.0
H406 H 0.64146 0.03297 0.7892 0.0
H407 H 0.61463 0.01715 0.80722 0.0
H408 H 0.62183 0.05088 0.79753 0.0
H409 H 0.58126 1.0038 0.68912 0.0
H410 H 0.57543 0.08359 0.68976 0.0
H411 H 0.57598 0.08526 0.71897 0.0
H412 H 0.64194 0.03268 0.71709 0.0
H413 H 0.61748 0.99115 0.7106 0.0
H414 H 0.63136 1.0045 0.73154 0.0
H415 H 0.52335 0.96547 0.71727 0.0
H416 H 0.54002 0.95071 0.73022 0.0
H417 H 0.55196 0.95537 0.7091 0.0
H418 H 0.5933 0.91895 0.7526 0.0
C419 C 0.58792 0.95684 0.75163 0.0
C420 C 0.56659 0.38431 0.1394 0.0
C421 C 0.57815 0.3675 0.13163 0.0
C422 C 0.5795 0.36682 0.11456 0.0
C423 C 0.56137 0.40193 0.11347 0.0
C424 C 0.55879 0.40155 0.13017 0.0
C425 C 0.55008 0.42339 0.13681 0.0
H426 H 0.51756 0.53118 0.1233 0.0
C427 C 0.55486 0.42467 0.1077 0.0
C428 C 0.54844 0.43741 0.12138 0.0
H429 H 0.51462 0.49177 0.16899 0.0
H430 H 0.53238 0.46108 0.15561 0.0
H431 H 0.59218 0.54088 0.10905 0.0
H432 H 0.47455 0.46869 0.10443 0.0
H433 H 0.49187 0.46749 0.08564 0.0
H434 H 0.49871 0.50402 0.09261 0.0
H435 H 0.56236 0.54616 0.09806 0.0
H436 H 0.58204 0.52825 0.08847 0.0
C437 C 0.58247 0.44958 0.14823 0.0
C438 C 0.51197 0.40226 0.14503 0.0
C439 C 0.55955 0.44538 0.04742 0.0
C440 C 0.55388 0.46498 0.03886 0.0
C441 C 0.54655 0.48422 0.04755 0.0
C442 C 0.54458 0.48388 0.06444 0.0
C443 C 0.54985 0.464 0.07285 0.0
C444 C 0.55712 0.4451 0.0644 0.0
C445 C 0.56153 0.4253 0.07556 0.0
C446 C 0.55517 0.43521 0.092 0.0
C447 C 0.54875 0.45811 0.09025 0.0
C448 C 0.60152 0.43611 0.07409 0.0
C449 C 0.53106 0.38915 0.07111 0.0
C450 C 0.52192 0.51676 0.13053 0.0
C451 C 0.51531 0.51425 0.14725 0.0
C452 C 0.51981 0.49419 0.1561 0.0
C453 C 0.52986 0.47627 0.14828 0.0
C454 C 0.53502 0.47816 0.1314 0.0
C455 C 0.5313 0.4984 0.12288 0.0
C456 C 0.5355 0.49604 0.10495 0.0
C457 C 0.54253 0.4711 0.10406 0.0
C458 C 0.54238 0.46081 0.11955 0.0
C459 C 0.56959 0.52952 0.0997 0.0
C460 C 0.4985 0.48366 0.09634 0.0
H461 H 0.57325 0.38294 0.0925 0.0
H462 H 0.56618 0.38599 0.15252 0.0
H463 H 0.49318 0.37835 0.13852 0.0
H464 H 0.49701 0.41281 0.14479 0.0
H465 H 0.51491 0.39784 0.15778 0.0
H466 H 0.60945 0.45698 0.14349 0.0
H467 H 0.5795 0.44047 0.16056 0.0
H468 H 0.58523 0.47212 0.14927 0.0
H469 H 0.56517 0.4303 0.04105 0.0
H470 H 0.54275 0.49993 0.04126 0.0
H471 H 0.53898 0.49916 0.07026 0.0
H472 H 0.62139 0.46256 0.07242 0.0
H473 H 0.60387 0.42369 0.06353 0.0
H474 H 0.61154 0.43202 0.08512 0.0
H475 H 0.50446 0.38474 0.06813 0.0
H476 H 0.52476 0.37326 0.08118 0.0
H477 H 0.53884 0.38115 0.06037 0.0
H478 H 0.58845 0.35407 0.10832 0.0
C479 C 0.57096 0.38379 0.10542 0.0
H480 H 0.23783 0.49097 0.16238 0.0
H481 H 0.29877 0.50529 0.16827 0.0
H482 H 0.34922 0.58907 0.13924 0.0
H483 H 0.28805 0.57468 0.13318 0.0
H484 H 0.37023 0.55263 0.13064 0.0
H485 H 0.38548 0.57281 0.19717 0.0
H486 H 0.34229 0.53496 0.19148 0.0
H487 H 0.3513 0.57206 0.18562 0.0
C488 C 0.26197 0.51279 0.15751 0.0
C489 C 0.25821 0.53167 0.14729 0.0
C490 C 0.29682 0.5211 0.161 0.0
C491 C 0.32862 0.54867 0.15451 0.0
C492 C 0.32504 0.5679 0.14452 0.0
H493 H 0.53726 0.57567 0.14436 0.0
H494 H 0.4989 0.59348 0.14939 0.0
C495 C 0.29011 0.55949 0.14095 0.0
C496 C 0.36475 0.55478 0.15647 0.0
H497 H 0.42155 0.55748 0.18456 0.0
C498 C 0.38206 0.55458 0.14242 0.0
C499 C 0.38006 0.5573 0.17187 0.0
C500 C 0.36398 0.55964 0.18738 0.0
C501 C 0.41265 0.55437 0.1433 0.0
C502 C 0.4267 0.55502 0.1587 0.0
C503 C 0.4107 0.55704 0.17279 0.0
C504 C 0.45448 0.5491 0.16015 0.0
C505 C 0.42799 0.55116 0.12772 0.0
C506 C 0.44335 0.51936 0.1657 0.0
C507 C 0.46526 0.50926 0.16297 0.0
C508 C 0.49851 0.52877 0.15458 0.0
C509 C 0.51147 0.56002 0.15065 0.0
C510 C 0.48964 0.5702 0.15351 0.0
H511 H 0.4101 0.54577 0.11701 0.0
H512 H 0.45572 0.57412 0.12573 0.0
H513 H 0.4311 0.53169 0.12842 0.0
H514 H 0.41629 0.50278 0.17089 0.0
H515 H 0.4545 0.48502 0.16606 0.0
H516 H 0.65275 0.13534 0.46589 0.0
H517 H 0.71003 0.18999 0.46437 0.0
H518 H 0.75237 0.17638 0.50719 0.0
H519 H 0.69541 0.12095 0.50842 0.0
H520 H 0.74255 0.24169 0.48382 0.0
H521 H 0.83629 0.20738 0.47734 0.0
H522 H 0.78665 0.17796 0.47626 0.0
H523 H 0.8102 0.19432 0.49561 0.0
C524 C 0.6742 0.14387 0.47501 0.0
C525 C 0.66952 0.12357 0.4872 0.0
C526 C 0.70703 0.17525 0.47413 0.0
C527 C 0.73598 0.18733 0.48549 0.0
C528 C 0.73098 0.16745 0.498 0.0
H529 H 0.92017 0.39677 0.4797 0.0
H530 H 0.87065 0.34546 0.49158 0.0
C531 C 0.69825 0.13578 0.49875 0.0
C532 C 0.77115 0.22063 0.48399 0.0
H533 H 0.86412 0.26295 0.47833 0.0
C534 C 0.76919 0.24637 0.48272 0.0
C535 C 0.80597 0.22681 0.48246 0.0
C536 C 0.81002 0.20016 0.48284 0.0
C537 C 0.80057 0.27769 0.47938 0.0
C538 C 0.83539 0.28387 0.4778 0.0
C539 C 0.83759 0.25837 0.47968 0.0
C540 C 0.86873 0.31531 0.47219 0.0
C541 C 0.7956 0.30335 0.47668 0.0
C542 C 0.8859 0.31558 0.45795 0.0
C543 C 0.91462 0.34469 0.4514 0.0
C544 C 0.92682 0.37445 0.4588 0.0
C545 C 0.91131 0.3743 0.47364 0.0
C546 C 0.88262 0.34496 0.48031 0.0
H547 H 0.76605 0.29285 0.4747 0.0
H548 H 0.80601 0.32001 0.48753 0.0
H549 H 0.81137 0.31764 0.46603 0.0
H550 H 0.87615 0.29317 0.4515 0.0
H551 H 0.92654 0.34385 0.44018 0.0
H552 H 0.66207 0.74193 0.80425 0.0
H553 H 0.65379 0.78307 0.79923 0.0
H554 H 0.5647 0.73983 0.83317 0.0
H555 H 0.57336 0.69881 0.83859 0.0
H556 H 0.58675 0.77006 0.78741 0.0
H557 H 0.6326 0.83759 0.84714 0.0
H558 H 0.64449 0.81147 0.84077 0.0
H559 H 0.59857 0.79443 0.84738 0.0
C560 C 0.64111 0.74142 0.81088 0.0
C561 C 0.61851 0.71715 0.8219 0.0
C562 C 0.63628 0.76486 0.80791 0.0
C563 C 0.60893 0.76471 0.81596 0.0
C564 C 0.58634 0.74065 0.82702 0.0
H565 H 0.55057 0.89571 0.80181 0.0
H566 H 0.55301 0.85366 0.81265 0.0
C567 C 0.59108 0.71706 0.82997 0.0
C568 C 0.60315 0.7889 0.81202 0.0
H569 H 0.61271 0.85556 0.82714 0.0
C570 C 0.59224 0.78865 0.79612 0.0
C571 C 0.60999 0.81291 0.82346 0.0
C572 C 0.6223 0.81445 0.84064 0.0
C573 C 0.58865 0.81212 0.79124 0.0
C574 C 0.59692 0.83692 0.80247 0.0
C575 C 0.60659 0.83659 0.81855 0.0
C576 C 0.59763 0.86425 0.79734 0.0
C577 C 0.57615 0.81024 0.77403 0.0
C578 C 0.6228 0.8848 0.78563 0.0
C579 C 0.62147 0.90865 0.77947 0.0
C580 C 0.59506 0.91259 0.78496 0.0
C581 C 0.57121 0.89321 0.79737 0.0
C582 C 0.57249 0.86916 0.80352 0.0
H583 H 0.56119 0.78548 0.76848 0.0
H584 H 0.55781 0.81758 0.77353 0.0
H585 H 0.60074 0.82683 0.7666 0.0
H586 H 0.64297 0.88188 0.78097 0.0
H587 H 0.64072 0.92366 0.77016 0.0
H588 H 0.84786 0.4328 0.2148 0.0
H589 H 0.78082 0.38957 0.21318 0.0
H590 H 0.76686 0.44985 0.18513 0.0
H591 H 0.83274 0.49223 0.18627 0.0
H592 H 0.71156 0.41375 0.20879 0.0
H593 H 0.73391 0.33805 0.16937 0.0
H594 H 0.75433 0.35138 0.18946 0.0
H595 H 0.77151 0.37998 0.1738 0.0
C596 C 0.83039 0.43694 0.20846 0.0
C597 C 0.84592 0.46609 0.20061 0.0
C598 C 0.79213 0.41223 0.20758 0.0
C599 C 0.769 0.41645 0.19891 0.0
C600 C 0.78419 0.44616 0.19199 0.0
H601 H 0.64389 0.37847 0.12699 0.0
H602 H 0.67964 0.37436 0.14699 0.0
C603 C 0.82209 0.47061 0.19277 0.0
C604 C 0.72959 0.3898 0.19528 0.0
H605 H 0.67899 0.3319 0.16534 0.0
C606 C 0.70363 0.39485 0.19975 0.0
C607 C 0.71946 0.36496 0.18367 0.0
C608 C 0.74609 0.35804 0.17871 0.0
C609 C 0.67009 0.37945 0.19109 0.0
C610 C 0.66201 0.35762 0.17797 0.0
C611 C 0.68548 0.3489 0.17526 0.0
C612 C 0.63614 0.35101 0.16467 0.0
C613 C 0.64612 0.3899 0.19478 0.0
C614 C 0.59891 0.33735 0.16747 0.0
C615 C 0.57846 0.34015 0.15604 0.0
C616 C 0.59476 0.35595 0.14153 0.0
C617 C 0.63047 0.36603 0.13799 0.0
C618 C 0.651 0.3637 0.14948 0.0
H619 H 0.65834 0.40924 0.20449 0.0
H620 H 0.64188 0.39895 0.18374 0.0
H621 H 0.61867 0.36899 0.19886 0.0
H622 H 0.58651 0.32658 0.17891 0.0
H623 H 0.55073 0.33176 0.15895 0.0
H624 H 0.43909 0.9311 0.46609 0.0
H625 H 0.38411 0.8747 0.46551 0.0
H626 H 0.43192 0.85526 0.5036 0.0
H627 H 0.48758 0.91132 0.50377 0.0
H628 H 0.40301 0.80919 0.48184 0.0
H629 H 0.29861 0.8287 0.49483 0.0
H630 H 0.32417 0.84967 0.47723 0.0
H631 H 0.34758 0.86094 0.4967 0.0
C632 C 0.43781 0.91488 0.47443 0.0
C633 C 0.46778 0.92579 0.48499 0.0
C634 C 0.40613 0.88261 0.47419 0.0
C635 C 0.40326 0.86067 0.48478 0.0
C636 C 0.43321 0.87161 0.49535 0.0
H637 H 0.1883 0.66702 0.489 0.0
H638 H 0.2441 0.72089 0.4974 0.0
C639 C 0.46512 0.90373 0.49542 0.0
C640 C 0.36999 0.82602 0.48423 0.0
H641 H 0.27537 0.77637 0.48321 0.0
C642 C 0.37514 0.80209 0.48235 0.0
C643 C 0.33343 0.81636 0.4853 0.0
C644 C 0.32563 0.84029 0.48882 0.0
C645 C 0.34499 0.76914 0.48079 0.0
C646 C 0.30848 0.75971 0.48051 0.0
C647 C 0.30326 0.78347 0.48316 0.0
C648 C 0.27564 0.72584 0.47637 0.0
C649 C 0.35276 0.74482 0.4795 0.0
C650 C 0.27473 0.71047 0.46187 0.0
C651 C 0.24327 0.67967 0.45721 0.0
C652 C 0.21136 0.66355 0.46673 0.0
C653 C 0.21243 0.67859 0.48145 0.0
C654 C 0.24423 0.70951 0.48619 0.0
H655 H 0.37903 0.75397 0.48595 0.0
H656 H 0.33006 0.72146 0.4846 0.0
H657 H 0.35585 0.74053 0.46655 0.0
H658 H 0.29805 0.72266 0.45384 0.0
H659 H 0.24374 0.66871 0.44591 0.0
H660 H 0.59526 0.36147 0.83403 0.0
H661 H 0.60025 0.31811 0.82784 0.0
H662 H 0.49796 0.25115 0.8523 0.0
H663 H 0.49163 0.29391 0.85775 0.0
H664 H 0.6051 0.2798 0.8472 0.0
H665 H 0.47723 0.20463 0.80887 0.0
H666 H 0.49721 0.24565 0.81534 0.0
H667 H 0.46972 0.21339 0.82902 0.0
C668 C 0.57352 0.33744 0.83791 0.0
C669 C 0.5428 0.3312 0.84623 0.0
C670 C 0.57661 0.31272 0.8345 0.0
C671 C 0.54914 0.28122 0.83934 0.0
C672 C 0.51908 0.27509 0.84811 0.0
H673 H 0.5272 0.10333 0.82139 0.0
H674 H 0.52176 0.14395 0.83359 0.0
C675 C 0.51578 0.29974 0.85142 0.0
C676 C 0.55203 0.25489 0.83508 0.0
H677 H 0.5083 0.18229 0.81424 0.0
C678 C 0.58388 0.25845 0.84002 0.0
C679 C 0.52433 0.22702 0.82569 0.0
C680 C 0.49036 0.22248 0.81928 0.0
C681 C 0.58887 0.235 0.83577 0.0
C682 C 0.56136 0.20738 0.82629 0.0
C683 C 0.52918 0.20343 0.82162 0.0
C684 C 0.56656 0.18339 0.82007 0.0
C685 C 0.62354 0.23995 0.84141 0.0
C686 C 0.5936 0.19221 0.80851 0.0
C687 C 0.59661 0.16914 0.8015 0.0
C688 C 0.57266 0.13678 0.80594 0.0
C689 C 0.54623 0.12814 0.81786 0.0
C690 C 0.54299 0.15123 0.82477 0.0
H691 H 0.63751 0.25806 0.85168 0.0
H692 H 0.61718 0.21687 0.8452 0.0
H693 H 0.64313 0.24875 0.83124 0.0
H694 H 0.61172 0.21679 0.80457 0.0
H695 H 0.61737 0.17651 0.79241 0.0
H696 H 0.63664 0.87538 0.49132 0.0
H697 H 0.6272 0.82427 0.49408 0.0
H698 H 0.53611 0.7918 0.5259 0.0
H699 H 0.54519 0.84266 0.52308 0.0
H700 H 0.63333 0.8015 0.52155 0.0
H701 H 0.49181 0.71333 0.49584 0.0
H702 H 0.51857 0.75614 0.49294 0.0
H703 H 0.49391 0.73926 0.51144 0.0
C704 C 0.61444 0.85724 0.49882 0.0
C705 C 0.59165 0.86305 0.50698 0.0
C706 C 0.60897 0.828 0.50032 0.0
C707 C 0.58057 0.80396 0.50998 0.0
C708 C 0.55752 0.80957 0.518 0.0
H709 H 0.52357 0.63764 0.55741 0.0
H710 H 0.52734 0.68176 0.54544 0.0
C711 C 0.56284 0.83873 0.51643 0.0
C712 C 0.57698 0.7742 0.51277 0.0
H713 H 0.51497 0.6919 0.51245 0.0
C714 C 0.60763 0.77752 0.5193 0.0
C715 C 0.54344 0.7429 0.50983 0.0
C716 C 0.51019 0.73764 0.50197 0.0
C717 C 0.60519 0.75052 0.52366 0.0
C718 C 0.57129 0.71933 0.52124 0.0
C719 C 0.54091 0.71588 0.51429 0.0
C720 C 0.5662 0.69036 0.52708 0.0
C721 C 0.6384 0.75564 0.53149 0.0
C722 C 0.58598 0.67996 0.52039 0.0
C723 C 0.58393 0.65474 0.52724 0.0
C724 C 0.56217 0.63967 0.54091 0.0
C725 C 0.54103 0.64915 0.54704 0.0
C726 C 0.54296 0.67419 0.54016 0.0
H727 H 0.66036 0.78141 0.535 0.0
H728 H 0.63022 0.74116 0.54247 0.0
H729 H 0.65027 0.74753 0.52284 0.0
H730 H 0.60375 0.69193 0.51016 0.0
H731 H 0.60058 0.648 0.52228 0.0
H732 H 0.71554 0.56977 0.82973 0.0
H733 H 0.76872 0.56867 0.8297 0.0
H734 H 0.70587 0.48087 0.85587 0.0
H735 H 0.65238 0.48129 0.85545 0.0
H736 H 0.81283 0.57311 0.85155 0.0
H737 H 0.74311 0.45203 0.82231 0.0
H738 H 0.72134 0.4716 0.82354 0.0
H739 H 0.72038 0.45025 0.8405 0.0
C740 C 0.7128 0.55001 0.83539 0.0
C741 C 0.679 0.52547 0.84247 0.0
C742 C 0.74355 0.54943 0.8354 0.0
C743 C 0.74186 0.52428 0.84245 0.0
C744 C 0.70828 0.5001 0.8498 0.0
H745 H 0.89708 0.48271 0.86519 0.0
H746 H 0.84448 0.48373 0.86142 0.0
C747 C 0.67746 0.50053 0.84969 0.0
C748 C 0.77521 0.52384 0.84247 0.0
H749 H 0.80204 0.47544 0.8348 0.0
C750 C 0.8103 0.55174 0.8477 0.0
C751 C 0.77291 0.49623 0.83744 0.0
C752 C 0.73751 0.46597 0.83047 0.0
C753 C 0.84206 0.55248 0.84854 0.0
C754 C 0.8395 0.52467 0.84385 0.0
C755 C 0.80457 0.4969 0.83846 0.0
C756 C 0.87203 0.52337 0.84519 0.0
C757 C 0.87797 0.5829 0.855 0.0
C758 C 0.90557 0.54457 0.83698 0.0
C759 C 0.93601 0.54377 0.839 0.0
C760 C 0.93406 0.52189 0.8494 0.0
C761 C 0.90004 0.50006 0.85713 0.0
C762 C 0.86968 0.50063 0.85498 0.0
H763 H 0.8737 0.59939 0.86151 0.0
H764 H 0.89209 0.57715 0.86338 0.0
H765 H 0.89658 0.5959 0.84473 0.0
H766 H 0.9084 0.56203 0.82906 0.0
H767 H 0.96155 0.56114 0.8329 0.0
H768 H 0.13419 0.64538 0.17024 0.0
H769 H 0.19183 0.70029 0.17134 0.0
H770 H 0.24822 0.6666 0.14783 0.0
H771 H 0.19043 0.61157 0.14636 0.0
H772 H 0.25583 0.72351 0.18677 0.0
H773 H 0.28113 0.74317 0.12099 0.0
H774 H 0.23735 0.70982 0.12872 0.0
H775 H 0.27547 0.7079 0.12741 0.0
C776 C 0.15874 0.64955 0.16521 0.0
C777 C 0.15749 0.6239 0.15818 0.0
C778 C 0.19175 0.68106 0.16584 0.0
C779 C 0.22434 0.68779 0.15943 0.0
C780 C 0.22331 0.66225 0.15249 0.0
H781 H 0.44412 0.85772 0.18779 0.0
H782 H 0.38874 0.80285 0.18128 0.0
C783 C 0.19022 0.63068 0.15179 0.0
C784 C 0.25962 0.72127 0.16081 0.0
H785 H 0.33035 0.78284 0.13897 0.0
C786 C 0.27201 0.73646 0.17629 0.0
C787 C 0.28061 0.73843 0.14714 0.0
C788 C 0.26785 0.72416 0.13011 0.0
C789 C 0.3049 0.768 0.17852 0.0
C790 C 0.3266 0.78474 0.16493 0.0
C791 C 0.31396 0.76986 0.14939 0.0
C792 C 0.36237 0.81773 0.1668 0.0
C793 C 0.3158 0.78331 0.19544 0.0
C794 C 0.36699 0.84431 0.16003 0.0
C795 C 0.39895 0.87583 0.1636 0.0
C796 C 0.42669 0.88118 0.17403 0.0
C797 C 0.42297 0.85436 0.17989 0.0
C798 C 0.39127 0.823 0.17624 0.0
H799 H 0.29183 0.771 0.20366 0.0
H800 H 0.33697 0.78148 0.20053 0.0
H801 H 0.3278 0.80925 0.19533 0.0
H802 H 0.34513 0.84079 0.15261 0.0
H803 H 0.40099 0.89602 0.15898 0.0
H804 H 0.54589 0.19647 0.45578 0.0
H805 H 0.55197 0.24545 0.46344 0.0
H806 H 0.50612 0.20701 0.51013 0.0
H807 H 0.50026 0.15833 0.50263 0.0
H808 H 0.50066 0.25539 0.47333 0.0
H809 H 0.60405 0.2936 0.52232 0.0
H810 H 0.59132 0.26232 0.50725 0.0
H811 H 0.56248 0.25336 0.52447 0.0
C812 C 0.53683 0.1984 0.46762 0.0
C813 C 0.52306 0.17375 0.47869 0.0
C814 C 0.54043 0.22641 0.472 0.0
C815 C 0.5303 0.23019 0.48749 0.0
C816 C 0.51509 0.20501 0.49828 0.0
H817 H 0.51545 0.36291 0.54334 0.0
H818 H 0.51068 0.31722 0.53102 0.0
C819 C 0.5117 0.17719 0.49397 0.0
C820 C 0.53584 0.26047 0.49258 0.0
H821 H 0.57614 0.32036 0.52225 0.0
C822 C 0.5175 0.26985 0.4839 0.0
C823 C 0.5581 0.27945 0.50631 0.0
C824 C 0.58042 0.27189 0.51553 0.0
C825 C 0.51956 0.29692 0.48904 0.0
C826 C 0.54062 0.31504 0.50313 0.0
C827 C 0.55978 0.30621 0.51152 0.0
C828 C 0.54199 0.34246 0.50986 0.0
C829 C 0.49824 0.30539 0.47975 0.0
C830 C 0.56113 0.3718 0.50198 0.0
C831 C 0.56432 0.39821 0.5091 0.0
C832 C 0.54848 0.3957 0.52424 0.0
C833 C 0.52862 0.36594 0.53185 0.0
C834 C 0.52561 0.3397 0.52478 0.0
H835 H 0.47929 0.28643 0.4704 0.0
H836 H 0.48181 0.30903 0.48818 0.0
H837 H 0.51795 0.32839 0.47362 0.0
H838 H 0.57436 0.37449 0.49055 0.0
H839 H 0.58013 0.42084 0.50299 0.0
H840 H 0.44195 0.47529 0.85371 0.0
H841 H 0.38831 0.47567 0.85409 0.0
H842 H 0.45629 0.57298 0.83768 0.0
H843 H 0.50966 0.57237 0.83688 0.0
H844 H 0.37084 0.50834 0.87055 0.0
H845 H 0.37264 0.53712 0.80658 0.0
H846 H 0.4013 0.5268 0.81404 0.0
H847 H 0.41527 0.5672 0.81716 0.0
C848 C 0.44562 0.49679 0.85006 0.0
C849 C 0.48069 0.52372 0.84513 0.0
C850 C 0.41462 0.49701 0.8503 0.0
C851 C 0.41722 0.52409 0.84557 0.0
C852 C 0.45243 0.55121 0.84091 0.0
H853 H 0.2609 0.57347 0.84799 0.0
H854 H 0.3143 0.57308 0.8436 0.0
C855 C 0.4834 0.55095 0.84059 0.0
C856 C 0.3836 0.52415 0.84605 0.0
H857 H 0.33218 0.53953 0.82385 0.0
C858 C 0.36245 0.51497 0.86022 0.0
C859 C 0.37189 0.53287 0.83275 0.0
C860 C 0.39121 0.54124 0.81672 0.0
C861 C 0.33115 0.51479 0.86156 0.0
C862 C 0.31942 0.52346 0.84827 0.0
C863 C 0.34062 0.53283 0.83412 0.0
C864 C 0.28541 0.52283 0.84893 0.0
C865 C 0.31147 0.50608 0.87751 0.0
C866 C 0.25027 0.4945 0.85261 0.0
C867 C 0.21952 0.49464 0.85488 0.0
C868 C 0.2224 0.52295 0.8533 0.0
C869 C 0.25704 0.55092 0.84879 0.0
C870 C 0.2879 0.55078 0.84649 0.0
H871 H 0.32943 0.50913 0.88767 0.0
H872 H 0.3022 0.52109 0.88039 0.0
H873 H 0.28674 0.48037 0.87676 0.0
H874 H 0.24676 0.4723 0.85427 0.0
H875 H 0.19378 0.47285 0.85878 0.0
H876 H 0.92396 0.44012 0.16979 0.0
H877 H 0.86784 0.38492 0.17191 0.0
H878 H 0.915 0.35016 0.14131 0.0
H879 H 0.97182 0.40535 0.13947 0.0
H880 H 0.81786 0.33987 0.14918 0.0
H881 H 0.88559 0.29482 0.18022 0.0
H882 H 0.90862 0.33722 0.17762 0.0
H883 H 0.90496 0.31207 0.16102 0.0
C884 C 0.92261 0.42082 0.16352 0.0
C885 C 0.9528 0.42733 0.15461 0.0
C886 C 0.89031 0.38918 0.16472 0.0
C887 C 0.88732 0.36321 0.15702 0.0
C888 C 0.91692 0.36965 0.1477 0.0
H889 H 0.71197 0.15487 0.16634 0.0
H890 H 0.76372 0.20621 0.15521 0.0
C891 C 0.94938 0.40133 0.14656 0.0
C892 C 0.85329 0.32951 0.15895 0.0
H893 H 0.82208 0.25672 0.17378 0.0
C894 C 0.81883 0.32165 0.15449 0.0
C895 C 0.85444 0.30562 0.16585 0.0
C896 C 0.8903 0.31282 0.1716 0.0
C897 C 0.7856 0.29079 0.15685 0.0
C898 C 0.78671 0.26716 0.16408 0.0
C899 C 0.82121 0.27472 0.16813 0.0
C900 C 0.75257 0.23555 0.16893 0.0
C901 C 0.7496 0.28386 0.15161 0.0
C902 C 0.72873 0.23483 0.1801 0.0
C903 C 0.69929 0.20567 0.18639 0.0
C904 C 0.69305 0.17648 0.18175 0.0
C905 C 0.71586 0.17692 0.17001 0.0
C906 C 0.74555 0.20625 0.16374 0.0
H907 H 0.75381 0.2997 0.14176 0.0
H908 H 0.72913 0.25828 0.14735 0.0
H909 H 0.73787 0.28863 0.16207 0.0
H910 H 0.73388 0.25703 0.18457 0.0
H911 H 0.68214 0.2061 0.19539 0.0
H912 H 0.05076 0.49904 0.11086 0.0
H913 H 0.06354 0.49943 0.08197 0.0
H914 H 0.07646 0.58802 0.07783 0.0
H915 H 0.06483 0.58824 0.10682 0.0
H916 H 1.02415 0.49602 0.05676 0.0
H917 H 0.16675 0.60964 0.05465 0.0
H918 H 0.14501 0.59088 0.07344 0.0
H919 H 0.13541 0.61563 0.06385 0.0
C920 C 0.05684 0.51883 0.10382 0.0
C921 C 0.05699 0.54371 0.11106 0.0
C922 C 0.06409 0.519 0.08732 0.0
C923 C 0.07158 0.54403 0.07778 0.0
C924 C 0.07175 0.56892 0.08503 0.0
H925 H 0.07517 0.5776 0.97695 0.0
H926 H 0.07662 0.57868 0.00662 0.0
C927 C 0.06478 0.56888 0.10155 0.0
C928 C 0.07671 0.54297 0.06004 0.0
H929 H 0.13391 0.58739 0.02913 0.0
C930 C 1.0484 0.5158 0.05075 0.0
C931 C 0.10842 0.56876 0.05221 0.0
C932 C 0.14079 0.59772 0.06157 0.0
C933 C 0.05027 0.51426 0.0338 0.0
C934 C 0.08136 0.5405 0.02596 0.0
C935 C 0.11008 0.56736 0.03522 0.0
C936 C 0.08336 0.54118 0.00806 0.0
C937 C 1.01839 0.48513 0.02431 0.0
C938 C 0.08744 0.52017 -0.00091 0.0
C939 C 0.08667 0.51952 0.98212 0.0
C940 C 0.08156 0.53975 0.97389 0.0
C941 C 0.07862 0.56143 0.98296 0.0
C942 C 0.07966 0.56221 -0.00011 0.0
H943 H 0.99409 0.46904 0.03201 0.0
H944 H 1.00975 0.49276 0.01414 0.0
H945 H 1.02732 0.47104 0.01903 0.0
H946 H 0.09059 0.50392 0.00523 0.0
H947 H 0.08885 0.50249 0.97545 0.0
H948 H 0.643 0.04532 0.43651 0.0
H949 H 0.63765 0.04935 0.40737 0.0
H950 H 0.52194 1.00635 0.41246 0.0
H951 H 0.52738 1.00296 0.4417 0.0
H952 H 0.59417 0.9997 0.38551 0.0
H953 H 0.55699 0.08325 0.38551 0.0
H954 H 0.57496 0.07758 0.40334 0.0
H955 H 0.52702 0.04858 0.39745 0.0
C956 C 0.61652 0.03704 0.43142 0.0
C957 C 0.58559 0.02381 0.44131 0.0
C958 C 0.6135 0.03935 0.4148 0.0
C959 C 0.57952 0.02853 0.40777 0.0
C960 C 0.54862 0.01553 0.41767 0.0
H961 H 0.49913 0.99603 0.30855 0.0
H962 H 0.50604 0.99901 0.33813 0.0
C963 C 0.55169 0.01338 0.43434 0.0
C964 C 0.57604 0.02904 0.38995 0.0
H965 H 0.55108 0.05678 0.36021 0.0
C966 C 0.58501 0.01239 0.37998 0.0
C967 C 0.56396 0.04552 0.38276 0.0
C968 C 0.5555 0.065 0.3928 0.0
C969 C 0.58174 0.01137 0.36304 0.0
C970 C 0.56951 0.02769 0.35588 0.0
C971 C 0.56046 0.04431 0.36579 0.0
C972 C 0.56568 0.02742 0.33808 0.0
C973 C 0.59068 0.99231 0.35292 0.0
C974 C 0.59703 0.04292 0.32833 0.0
C975 C 0.59319 0.04123 0.31146 0.0
C976 C 0.5579 0.02396 0.30405 0.0
C977 C 0.52663 0.00912 0.3139 0.0
C978 C 0.53052 0.01097 0.33078 0.0
H979 H 0.59248 0.97592 0.36034 0.0
H980 H 0.56943 0.97773 0.34316 0.0
H981 H 0.61775 0.00924 0.34709 0.0
H982 H 0.62443 0.05599 0.33379 0.0
H983 H 0.61777 0.05273 0.3042 0.0
H984 H 0.51095 0.47108 0.78975 0.0
H985 H 0.52071 0.47757 0.76055 0.0
H986 H 0.63708 0.55311 0.76945 0.0
H987 H 0.62743 0.54691 0.79879 0.0
H988 H 0.60385 0.56704 0.74561 0.0
H989 H 0.57226 0.44712 0.73398 0.0
H990 H 0.53704 0.44563 0.74493 0.0
H991 H 0.58224 0.4659 0.75405 0.0
C992 C 0.53861 0.48912 0.78549 0.0
C993 C 0.56851 0.50828 0.7965 0.0
C994 C 0.54416 0.4927 0.76882 0.0
C995 C 0.57971 0.5154 0.76286 0.0
C996 C 0.60948 0.53529 0.77383 0.0
H997 H 0.63076 0.51154 0.66102 0.0
H998 H 0.63279 0.51397 0.69072 0.0
C999 C 0.60394 0.5317 0.79055 0.0
C1000 C 0.58561 0.51806 0.74515 0.0
H1001 H 0.575 0.47447 0.71083 0.0
C1002 C 0.59786 0.54693 0.73799 0.0
C1003 C 0.57835 0.49196 0.73531 0.0
C1004 C 0.56709 0.46099 0.74245 0.0
C1005 C 0.60172 0.54996 0.72112 0.0
C1006 C 0.5926 0.52326 0.7112 0.0
C1007 C 0.58166 0.49482 0.71844 0.0
C1008 C 0.59307 0.52382 0.69325 0.0
C1009 C 0.61559 0.58173 0.71408 0.0
C1010 C 0.56993 0.52837 0.68484 0.0
C1011 C 0.56859 0.52686 0.6679 0.0
C1012 C 0.59018 0.52051 0.65903 0.0
C1013 C 0.61351 0.51614 0.6675 0.0
C1014 C 0.61486 0.51771 0.68445 0.0
H1015 H 0.63137 0.602 0.72326 0.0
H1016 H 0.63357 0.58706 0.70356 0.0
H1017 H 0.59162 0.58049 0.70986 0.0
H1018 H 0.55216 0.53228 0.69139 0.0
H1019 H 0.54984 0.52976 0.66176 0.0
H1020 H 0.52045 0.05119 0.53739 0.0
H1021 H 0.52682 0.05001 0.56673 0.0
H1022 H 0.60888 0.03436 0.55916 0.0
H1023 H 0.60313 0.03625 0.52974 0.0
H1024 H 0.5147 0.99866 0.58413 0.0
H1025 H 0.65885 0.11111 0.5925 0.0
H1026 H 0.6315 0.102 0.57438 0.0
H1027 H 0.65223 0.08218 0.57743 0.0
C1028 C 0.53998 0.04765 0.54199 0.0
C1029 C 0.56109 0.04351 0.53135 0.0
C1030 C 0.54352 0.04691 0.55873 0.0
C1031 C 0.56848 0.04231 0.5651 0.0
C1032 C 0.58977 0.03832 0.55448 0.0
H1033 H 0.61935 0.03549 0.66621 0.0
H1034 H 0.61673 0.03303 0.63649 0.0
C1035 C 0.58621 0.03905 0.53771 0.0
C1036 C 0.57137 0.041 0.58287 0.0
H1037 H 0.62966 0.08062 0.61568 0.0
C1038 C 0.53985 0.01652 0.59104 0.0
C1039 C 0.60429 0.06425 0.5918 0.0
C1040 C 0.63863 0.09156 0.58365 0.0
C1041 C 0.54027 0.01477 0.60794 0.0
C1042 C 0.57289 0.03848 0.61692 0.0
C1043 C 0.60469 0.06253 0.60873 0.0
C1044 C 0.57411 0.03945 0.63487 0.0
C1045 C 0.50585 0.98745 0.61604 0.0
C1046 C 0.5513 0.04422 0.64376 0.0
C1047 C 0.55261 0.0455 0.6607 0.0
C1048 C 0.57693 0.04222 0.66907 0.0
C1049 C 0.59997 0.03768 0.66012 0.0
C1050 C 0.59868 0.03646 0.64316 0.0
H1051 H 0.48728 0.96677 0.60737 0.0
H1052 H 0.51294 0.97879 0.62632 0.0
H1053 H 0.49034 0.99611 0.62088 0.0
H1054 H 0.53259 0.04714 0.63759 0.0
H1055 H 0.53428 0.04874 0.66722 0.0
H1056 H 0.53567 0.49427 0.88605 0.0
H1057 H 0.52881 0.4772 0.91401 0.0
H1058 H 0.6435 0.55587 0.92427 0.0
H1059 H 0.65072 0.57295 0.89628 0.0
H1060 H 0.57678 0.46339 0.93194 0.0
H1061 H 0.57701 0.5635 0.9581 0.0
H1062 H 0.56534 0.54996 0.93706 0.0
H1063 H 0.61266 0.57389 0.94395 0.0
C1064 C 0.55943 0.50787 0.89426 0.0
C1065 C 0.59369 0.53501 0.88906 0.0
C1066 C 0.5555 0.49803 0.91017 0.0
C1067 C 0.58564 0.51536 0.92112 0.0
C1068 C 0.61994 0.54231 0.91594 0.0
H1069 H 0.60692 0.47139 0.01948 0.0
H1070 H 0.6142 0.4808 0.9903 0.0
C1071 C 0.62398 0.55203 0.90001 0.0
C1072 C 0.58085 0.5059 0.93815 0.0
H1073 H 0.57429 0.52857 0.97643 0.0
C1074 C 0.57628 0.47758 0.94172 0.0
C1075 C 0.57996 0.52444 0.95075 0.0
C1076 C 0.58376 0.55457 0.94738 0.0
C1077 C 0.57095 0.46734 0.95771 0.0
C1078 C 0.57036 0.48606 0.97034 0.0
C1079 C 0.57486 0.51434 0.9667 0.0
C1080 C 0.56409 0.47654 0.98743 0.0
C1081 C 0.56524 0.43633 0.96094 0.0
C1082 C 0.5334 0.47076 0.9954 0.0
C1083 C 0.52929 0.46553 0.01198 0.0
C1084 C 0.55591 0.46613 0.02095 0.0
C1085 C 0.58585 0.47053 0.01283 0.0
C1086 C 0.59001 0.47588 0.99619 0.0
H1087 H 0.55853 0.42136 0.94964 0.0
H1088 H 0.59099 0.44208 0.96637 0.0
H1089 H 0.54263 0.42192 0.96967 0.0
H1090 H 0.51307 0.47112 0.98885 0.0
H1091 H 0.5057 0.46179 0.01789 0.0
H1092 H 1.02858 0.52277 0.19886 0.0
H1093 H 1.02288 0.52495 0.22834 0.0
H1094 H 0.10591 0.51056 0.23492 0.0
H1095 H 0.11205 0.5089 0.20542 0.0
H1096 H 1.03882 0.47029 0.25382 0.0
H1097 H 0.10362 0.60142 0.25947 0.0
H1098 H 0.06679 0.57784 0.24461 0.0
H1099 H 0.10947 0.5834 0.24188 0.0
C1100 C 1.04608 0.52074 0.20661 0.0
C1101 C 0.07138 0.51651 0.19993 0.0
C1102 C 1.04261 0.52172 0.22341 0.0
C1103 C 0.06435 0.51836 0.23376 0.0
C1104 C 0.08904 0.51336 0.2271 0.0
H1105 H 0.12095 0.5623 0.33492 0.0
H1106 H 0.11851 0.55725 0.30536 0.0
C1107 C 0.09256 0.51248 0.21029 0.0
C1108 C 0.06153 0.52013 0.25156 0.0
H1109 H 0.08096 0.57219 0.28338 0.0
C1110 C 1.04782 0.49248 0.26031 0.0
C1111 C 0.07356 0.54922 0.25991 0.0
C1112 C 0.08946 0.5798 0.25107 0.0
C1113 C 1.04596 0.4932 0.27729 0.0
C1114 C 0.05798 0.52229 0.28564 0.0
C1115 C 0.07153 0.54989 0.27688 0.0
C1116 C 0.05876 0.52511 0.30355 0.0
C1117 C 1.03213 0.46317 0.28625 0.0
C1118 C 1.02588 0.50885 0.31228 0.0
C1119 C 1.02713 0.51195 0.32923 0.0
C1120 C 0.06132 0.53142 0.33769 0.0
C1121 C 0.09415 0.5476 0.32881 0.0
C1122 C 0.09285 0.5446 0.31192 0.0
H1123 H 1.02956 0.44429 0.27824 0.0
H1124 H 0.05103 0.46903 0.29661 0.0
H1125 H 1.00449 0.45307 0.29121 0.0
H1126 H 0.9993 0.49401 0.30598 0.0
H1127 H 1.00136 0.49948 0.33567 0.0
loop_
_geom_bond_atom_site_label_1
_geom_bond_atom_site_label_2
_geom_bond_distance
_geom_bond_site_symmetry_2
_ccdc_geom_bond_type
Sm0 C2 2.846 . S
Sm0 O20 2.543 . S
Sm0 O21 2.450 . S
Sm0 O22 2.681 . S
Sm0 O23 2.464 . S
Sm0 O24 2.396 . S
Sm0 O28 2.386 . S
Sm0 O31 2.408 1_455 S
Sm1 C11 2.846 . S
Sm1 O22 2.386 1_655 S
Sm1 O25 2.408 1_655 S
Sm1 O26 2.543 . S
Sm1 O27 2.450 . S
Sm1 O28 2.681 1_655 S
Sm1 O29 2.461 1_655 S
Sm1 O30 2.396 . S
C2 Sm0 2.846 . S
C2 C3 1.506 . S
C2 O20 1.261 . S
C2 O21 1.242 . S
C3 C2 1.506 . S
C3 C4 1.358 . S
C3 C8 1.382 . S
C4 C3 1.358 . S
C4 C5 1.385 . S
C4 H32 0.930 . S
C5 C4 1.385 . S
C5 C6 1.395 . S
C5 H33 0.929 . S
C6 C5 1.395 . S
C6 C7 1.335 . S
C7 C6 1.335 . S
C7 C8 1.398 . S
C7 H34 0.930 . S
C8 C3 1.382 . S
C8 C7 1.398 . S
C8 H35 0.929 . S
C9 O22 1.271 . S
C9 O23 1.251 . S
C10 O24 1.252 . S
C10 O25 1.272 . S
C11 Sm1 2.846 . S
C11 C12 1.506 . S
C11 O26 1.261 . S
C11 O27 1.242 . S
C12 C11 1.506 . S
C12 C13 1.358 . S
C12 C17 1.382 . S
C13 C12 1.358 . S
C13 C14 1.385 . S
C13 H36 0.930 . S
C14 C13 1.385 . S
C14 C15 1.395 . S
C14 H37 0.929 . S
C15 C14 1.395 . S
C15 C16 1.335 . S
C16 C15 1.335 . S
C16 C17 1.398 . S
C16 H38 0.930 . S
C17 C12 1.382 . S
C17 C16 1.398 . S
C17 H39 0.929 . S
C18 O28 1.271 . S
C18 O29 1.267 . S
C19 O30 1.252 . S
C19 O31 1.272 . S
O20 Sm0 2.543 . S
O20 C2 1.261 . S
O21 Sm0 2.450 . S
O21 C2 1.242 . S
O22 Sm0 2.681 . S
O22 Sm1 2.386 1_455 S
O22 C9 1.271 . S
O23 Sm0 2.464 . S
O23 C9 1.251 . S
O24 Sm0 2.396 . S
O24 C10 1.252 . S
O25 Sm1 2.408 1_455 S
O25 C10 1.272 . S
O26 Sm1 2.543 . S
O26 C11 1.261 . S
O27 Sm1 2.450 . S
O27 C11 1.242 . S
O28 Sm0 2.386 . S
O28 Sm1 2.681 1_455 S
O28 C18 1.271 . S
O29 Sm1 2.461 1_455 S
O29 C18 1.267 . S
O30 Sm1 2.396 . S
O30 C19 1.252 . S
O31 Sm0 2.408 1_655 S
O31 C19 1.272 . S
H32 C4 0.930 . S
H33 C5 0.929 . S
H34 C7 0.930 . S
H35 C8 0.929 . S
H36 C13 0.930 . S
H37 C14 0.929 . S
H38 C16 0.930 . S
H39 C17 0.929 . S
Sm40 C42 2.846 . S
Sm40 O60 2.543 . S
Sm40 O61 2.450 . S
Sm40 O62 2.681 1_565 S
Sm40 O63 2.464 . S
Sm40 O64 2.396 . S
Sm40 O68 2.375 1_565 S
Sm40 O71 2.408 1_565 S
Sm41 C51 2.846 . S
Sm41 O62 2.386 . S
Sm41 O65 2.408 1_545 S
Sm41 O66 2.543 . S
Sm41 O67 2.450 . S
Sm41 O68 2.699 . S
Sm41 O69 2.464 . S
Sm41 O70 2.396 . S
C42 Sm40 2.846 . S
C42 C43 1.506 . S
C42 O60 1.261 . S
C42 O61 1.242 . S
C43 C42 1.506 . S
C43 C44 1.358 . S
C43 C48 1.382 . S
C44 C43 1.358 . S
C44 C45 1.385 . S
C44 H72 0.930 . S
C45 C44 1.385 . S
C45 C46 1.395 . S
C45 H73 0.929 . S
C46 C45 1.395 . S
C46 C47 1.335 . S
C47 C46 1.335 . S
C47 C48 1.398 . S
C47 H74 0.930 . S
C48 C43 1.382 . S
C48 C47 1.398 . S
C48 H75 0.929 . S
C49 O62 1.271 . S
C49 O63 1.251 1_545 S
C50 O64 1.252 . S
C50 O65 1.272 . S
C51 Sm41 2.846 . S
C51 C52 1.506 . S
C51 O66 1.261 . S
C51 O67 1.242 . S
C52 C51 1.506 . S
C52 C53 1.358 . S
C52 C57 1.382 . S
C53 C52 1.358 . S
C53 C54 1.385 . S
C53 H76 0.930 . S
C54 C53 1.385 . S
C54 C55 1.395 . S
C54 H77 0.929 . S
C55 C54 1.395 . S
C55 C56 1.335 . S
C56 C55 1.335 . S
C56 C57 1.398 . S
C56 H78 0.930 . S
C57 C52 1.382 . S
C57 C56 1.398 . S
C57 H79 0.929 . S
C58 O68 1.282 . S
C58 O69 1.251 . S
C59 O70 1.252 . S
C59 O71 1.272 . S
O60 Sm40 2.543 . S
O60 C42 1.261 . S
O61 Sm40 2.450 . S
O61 C42 1.242 . S
O62 Sm40 2.681 1_545 S
O62 Sm41 2.386 . S
O62 C49 1.271 . S
O63 Sm40 2.464 . S
O63 C49 1.251 1_565 S
O64 Sm40 2.396 . S
O64 C50 1.252 . S
O65 Sm41 2.408 1_565 S
O65 C50 1.272 . S
O66 Sm41 2.543 . S
O66 C51 1.261 . S
O67 Sm41 2.450 . S
O67 C51 1.242 . S
O68 Sm40 2.375 1_545 S
O68 Sm41 2.699 . S
O68 C58 1.282 . S
O69 Sm41 2.464 . S
O69 C58 1.251 . S
O70 Sm41 2.396 . S
O70 C59 1.252 . S
O71 Sm40 2.408 1_545 S
O71 C59 1.272 . S
H72 C44 0.930 . S
H73 C45 0.929 . S
H74 C47 0.930 . S
H75 C48 0.929 . S
H76 C53 0.930 . S
H77 C54 0.929 . S
H78 C56 0.930 . S
H79 C57 0.929 . S
Sm80 C82 2.846 . S
Sm80 O100 2.543 . S
Sm80 O101 2.450 . S
Sm80 O102 2.681 . S
Sm80 O103 2.464 . S
Sm80 O104 2.396 . S
Sm80 O108 2.386 . S
Sm80 O111 2.408 . S
Sm81 C91 2.846 . S
Sm81 O102 2.386 . S
Sm81 O105 2.408 . S
Sm81 O106 2.543 . S
Sm81 O107 2.450 . S
Sm81 O108 2.681 . S
Sm81 O109 2.464 . S
Sm81 O110 2.396 . S
C82 Sm80 2.846 . S
C82 C83 1.506 . S
C82 O100 1.261 . S
C82 O101 1.242 . S
C83 C82 1.506 . S
C83 C84 1.358 . S
C83 C88 1.382 . S
C84 C83 1.358 . S
C84 C85 1.385 . S
C84 H112 0.930 . S
C85 C84 1.385 . S
C85 C86 1.395 . S
C85 H113 0.929 . S
C86 C85 1.395 . S
C86 C87 1.335 . S
C87 C86 1.335 . S
C87 C88 1.398 . S
C87 H114 0.930 . S
C88 C83 1.382 . S
C88 C87 1.398 . S
C88 H115 0.929 . S
C89 O102 1.271 . S
C89 O103 1.251 . S
C90 O104 1.252 . S
C90 O105 1.272 . S
C91 Sm81 2.846 . S
C91 C92 1.506 . S
C91 O106 1.261 . S
C91 O107 1.242 . S
C92 C91 1.506 . S
C92 C93 1.358 . S
C92 C97 1.382 . S
C93 C92 1.358 . S
C93 C94 1.385 . S
C93 H116 0.930 . S
C94 C93 1.385 . S
C94 C95 1.395 . S
C94 H117 0.929 . S
C95 C94 1.395 . S
C95 C96 1.335 . S
C96 C95 1.335 . S
C96 C97 1.398 . S
C96 H118 0.930 . S
C97 C92 1.382 . S
C97 C96 1.398 . S
C97 H119 0.929 . S
C98 O108 1.271 . S
C98 O109 1.251 . S
C99 O110 1.252 . S
C99 O111 1.272 . S
O100 Sm80 2.543 . S
O100 C82 1.261 . S
O101 Sm80 2.450 . S
O101 C82 1.242 . S
O102 Sm80 2.681 . S
O102 Sm81 2.386 . S
O102 C89 1.271 . S
O103 Sm80 2.464 . S
O103 C89 1.251 . S
O104 Sm80 2.396 . S
O104 C90 1.252 . S
O105 Sm81 2.408 . S
O105 C90 1.272 . S
O106 Sm81 2.543 . S
O106 C91 1.261 . S
O107 Sm81 2.450 . S
O107 C91 1.242 . S
O108 Sm80 2.386 . S
O108 Sm81 2.681 . S
O108 C98 1.271 . S
O109 Sm81 2.464 . S
O109 C98 1.251 . S
O110 Sm81 2.396 . S
O110 C99 1.252 . S
O111 Sm80 2.408 . S
O111 C99 1.272 . S
H112 C84 0.930 . S
H113 C85 0.929 . S
H114 C87 0.930 . S
H115 C88 0.929 . S
H116 C93 0.930 . S
H117 C94 0.929 . S
H118 C96 0.930 . S
H119 C97 0.929 . S
C120 C121 1.391 . S
C120 C124 1.391 . S
C120 H162 0.948 . S
C121 C120 1.391 . S
C121 C122 1.391 . S
C122 C121 1.391 . S
C122 H178 0.947 . S
C122 C179 1.392 . S
C123 C124 1.391 . S
C123 C127 1.397 . S
C123 C179 1.419 . S
C124 C120 1.391 . S
C124 C123 1.391 . S
C124 C125 1.399 . S
C125 C124 1.399 . S
C125 C128 1.396 . S
C125 C137 1.453 . S
C125 C138 1.684 . S
H126 C150 0.948 . S
C127 C123 1.397 . S
C127 C128 1.394 . S
C127 C146 1.723 . S
C128 C125 1.396 . S
C128 C127 1.394 . S
C128 C158 1.723 1_545 S
H129 C152 0.947 . S
H130 C153 0.948 . S
H131 C159 0.982 . S
H132 C160 0.979 . S
H133 C160 0.980 . S
H134 C160 0.983 . S
H135 C159 0.979 . S
H136 C159 0.977 . S
C137 C125 1.453 . S
C137 H166 0.982 . S
C137 H167 0.979 . S
C137 H168 0.961 1_545 S
C138 C125 1.684 . S
C138 H163 0.979 . S
C138 H164 0.980 . S
C138 H165 0.983 . S
C139 C140 1.391 . S
C139 C144 1.391 . S
C139 H169 0.948 . S
C140 C139 1.391 . S
C140 C141 1.391 1_545 S
C141 C140 1.391 1_565 S
C141 C142 1.392 . S
C141 H170 0.947 . S
C142 C141 1.392 . S
C142 C143 1.419 1_565 S
C142 H171 0.948 . S
C143 C142 1.419 1_545 S
C143 C144 1.391 . S
C143 C147 1.397 . S
C144 C139 1.391 . S
C144 C143 1.391 . S
C144 C145 1.399 . S
C145 C144 1.399 . S
C145 C146 1.396 . S
C145 C148 1.453 . S
C145 C149 1.684 . S
C146 C127 1.723 . S
C146 C145 1.396 . S
C146 C147 1.394 . S
C147 C143 1.397 . S
C147 C146 1.394 . S
C147 C157 1.723 1_545 S
C148 C145 1.453 . S
C148 H172 0.982 . S
C148 H173 0.979 . S
C148 H174 0.977 . S
C149 C145 1.684 . S
C149 H175 0.979 . S
C149 H176 0.980 . S
C149 H177 0.983 . S
C150 H126 0.948 . S
C150 C151 1.391 . S
C150 C155 1.391 . S
C151 C150 1.391 . S
C151 C152 1.391 . S
C152 H129 0.947 . S
C152 C151 1.391 . S
C152 C153 1.392 . S
C153 H130 0.948 . S
C153 C152 1.392 . S
C153 C154 1.419 . S
C154 C153 1.419 . S
C154 C155 1.391 . S
C154 C158 1.397 . S
C155 C150 1.391 . S
C155 C154 1.391 . S
C155 C156 1.399 . S
C156 C155 1.399 . S
C156 C157 1.396 . S
C156 C159 1.453 . S
C156 C160 1.684 . S
C157 C147 1.723 1_565 S
C157 C156 1.396 . S
C157 C158 1.394 . S
C158 C128 1.723 1_565 S
C158 C154 1.397 . S
C158 C157 1.394 . S
C159 H131 0.982 . S
C159 H135 0.979 . S
C159 H136 0.977 . S
C159 C156 1.453 . S
C160 H132 0.979 . S
C160 H133 0.980 . S
C160 H134 0.983 . S
C160 C156 1.684 . S
H161 C179 0.948 . S
H162 C120 0.948 . S
H163 C138 0.979 . S
H164 C138 0.980 . S
H165 C138 0.983 . S
H166 C137 0.982 . S
H167 C137 0.979 . S
H168 C137 0.961 1_565 S
H169 C139 0.948 . S
H170 C141 0.947 . S
H171 C142 0.948 . S
H172 C148 0.982 . S
H173 C148 0.979 . S
H174 C148 0.977 . S
H175 C149 0.979 . S
H176 C149 0.980 . S
H177 C149 0.983 . S
H178 C122 0.947 . S
C179 C122 1.392 . S
C179 C123 1.419 . S
C179 H161 0.948 . S
C180 C181 1.391 . S
C180 C184 1.391 . S
C180 H222 0.948 . S
C181 C180 1.391 . S
C181 C182 1.391 . S
C182 C181 1.391 . S
C182 H238 0.947 . S
C182 C239 1.392 . S
C183 C184 1.391 . S
C183 C187 1.397 . S
C183 C239 1.419 . S
C184 C180 1.391 . S
C184 C183 1.391 . S
C184 C185 1.399 . S
C185 C184 1.399 . S
C185 C188 1.396 . S
C185 C197 1.453 . S
C185 C198 1.684 . S
H186 C210 0.948 . S
C187 C183 1.397 . S
C187 C188 1.394 . S
C187 C206 1.723 . S
C188 C185 1.396 . S
C188 C187 1.394 . S
C188 C218 1.723 . S
H189 C212 0.947 . S
H190 C213 0.948 . S
H191 C219 0.982 . S
H192 C220 0.979 . S
H193 C220 0.980 . S
H194 C220 0.983 . S
H195 C219 0.979 . S
H196 C219 0.977 . S
C197 C185 1.453 . S
C197 H226 0.982 . S
C197 H227 0.979 . S
C197 H228 0.977 . S
C198 C185 1.684 . S
C198 H223 0.979 . S
C198 H224 0.980 . S
C198 H225 0.983 . S
C199 C200 1.391 . S
C199 C204 1.391 . S
C199 H229 0.948 . S
C200 C199 1.391 . S
C200 C201 1.391 . S
C201 C200 1.391 . S
C201 C202 1.392 . S
C201 H230 0.947 . S
C202 C201 1.392 . S
C202 C203 1.419 . S
C202 H231 0.948 . S
C203 C202 1.419 . S
C203 C204 1.391 . S
C203 C207 1.397 . S
C204 C199 1.391 . S
C204 C203 1.391 . S
C204 C205 1.399 . S
C205 C204 1.399 . S
C205 C206 1.396 . S
C205 C208 1.453 . S
C205 C209 1.684 . S
C206 C187 1.723 . S
C206 C205 1.396 . S
C206 C207 1.394 . S
C207 C203 1.397 . S
C207 C206 1.394 . S
C207 C217 1.723 . S
C208 C205 1.453 . S
C208 H232 0.982 . S
C208 H233 0.979 . S
C208 H234 0.977 . S
C209 C205 1.684 . S
C209 H235 0.979 . S
C209 H236 0.980 . S
C209 H237 0.983 . S
C210 H186 0.948 . S
C210 C211 1.391 . S
C210 C215 1.391 . S
C211 C210 1.391 . S
C211 C212 1.391 . S
C212 H189 0.947 . S
C212 C211 1.391 . S
C212 C213 1.392 . S
C213 H190 0.948 . S
C213 C212 1.392 . S
C213 C214 1.419 . S
C214 C213 1.419 . S
C214 C215 1.391 . S
C214 C218 1.397 . S
C215 C210 1.391 . S
C215 C214 1.391 . S
C215 C216 1.399 . S
C216 C215 1.399 . S
C216 C217 1.396 . S
C216 C219 1.453 . S
C216 C220 1.684 . S
C217 C207 1.723 . S
C217 C216 1.396 . S
C217 C218 1.394 . S
C218 C188 1.723 . S
C218 C214 1.397 . S
C218 C217 1.394 . S
C219 H191 0.982 . S
C219 H195 0.979 . S
C219 H196 0.977 . S
C219 C216 1.453 . S
C220 H192 0.979 . S
C220 H193 0.980 . S
C220 H194 0.983 . S
C220 C216 1.684 . S
H221 C239 0.948 . S
H222 C180 0.948 . S
H223 C198 0.979 . S
H224 C198 0.980 . S
H225 C198 0.983 . S
H226 C197 0.982 . S
H227 C197 0.979 . S
H228 C197 0.977 . S
H229 C199 0.948 . S
H230 C201 0.947 . S
H231 C202 0.948 . S
H232 C208 0.982 . S
H233 C208 0.979 . S
H234 C208 0.977 . S
H235 C209 0.979 . S
H236 C209 0.980 . S
H237 C209 0.983 . S
H238 C182 0.947 . S
C239 C182 1.392 . S
C239 C183 1.419 . S
C239 H221 0.948 . S
C240 C241 1.391 . S
C240 C244 1.391 . S
C240 H282 0.948 . S
C241 C240 1.391 . S
C241 C242 1.391 . S
C242 C241 1.391 . S
C242 H298 0.947 . S
C242 C299 1.392 . S
C243 C244 1.391 . S
C243 C247 1.397 . S
C243 C299 1.419 . S
C244 C240 1.391 . S
C244 C243 1.391 . S
C244 C245 1.399 . S
C245 C244 1.399 . S
C245 C248 1.396 . S
C245 C257 1.453 . S
C245 C258 1.684 . S
H246 C270 0.948 . S
C247 C243 1.397 . S
C247 C248 1.394 . S
C247 C266 1.723 . S
C248 C245 1.396 . S
C248 C247 1.394 . S
C248 C278 1.723 . S
H249 C272 0.947 . S
H250 C273 0.919 1_455 S
H251 C279 0.982 . S
H252 C280 0.974 1_455 S
H253 C280 0.980 . S
H254 C280 0.983 . S
H255 C279 0.979 . S
H256 C279 0.977 . S
C257 C245 1.453 . S
C257 H286 0.982 . S
C257 H287 0.979 . S
C257 H288 0.977 . S
C258 C245 1.684 . S
C258 H283 0.979 . S
C258 H284 0.980 . S
C258 H285 0.983 . S
C259 C260 1.391 . S
C259 C264 1.391 . S
C259 H289 0.948 . S
C260 C259 1.391 . S
C260 C261 1.391 . S
C261 C260 1.391 . S
C261 C262 1.392 . S
C261 H290 0.947 1_455 S
C262 C261 1.392 . S
C262 C263 1.419 . S
C262 H291 0.948 1_455 S
C263 C262 1.419 . S
C263 C264 1.391 . S
C263 C267 1.397 . S
C264 C259 1.391 . S
C264 C263 1.391 . S
C264 C265 1.399 . S
C265 C264 1.399 . S
C265 C266 1.396 . S
C265 C268 1.453 . S
C265 C269 1.684 . S
C266 C247 1.723 . S
C266 C265 1.396 . S
C266 C267 1.394 . S
C267 C263 1.397 . S
C267 C266 1.394 . S
C267 C277 1.723 . S
C268 C265 1.453 . S
C268 H292 0.982 . S
C268 H293 0.979 . S
C268 H294 0.977 . S
C269 C265 1.684 . S
C269 H295 0.979 . S
C269 H296 0.980 . S
C269 H297 0.983 . S
C270 H246 0.948 . S
C270 C271 1.391 . S
C270 C275 1.391 . S
C271 C270 1.391 . S
C271 C272 1.391 . S
C272 H249 0.947 . S
C272 C271 1.391 . S
C272 C273 1.425 . S
C273 H250 0.919 1_655 S
C273 C272 1.425 . S
C273 C274 1.416 . S
C274 C273 1.416 . S
C274 C275 1.391 . S
C274 C278 1.397 1_655 S
C275 C270 1.391 . S
C275 C274 1.391 . S
C275 C276 1.399 . S
C276 C275 1.399 . S
C276 C277 1.396 1_655 S
C276 C279 1.453 . S
C276 C280 1.684 . S
C277 C267 1.723 . S
C277 C276 1.396 1_455 S
C277 C278 1.394 . S
C278 C248 1.723 . S
C278 C274 1.397 1_455 S
C278 C277 1.394 . S
C279 H251 0.982 . S
C279 H255 0.979 . S
C279 H256 0.977 . S
C279 C276 1.453 . S
C280 H252 0.974 1_655 S
C280 H253 0.980 . S
C280 H254 0.983 . S
C280 C276 1.684 . S
H281 C299 0.948 . S
H282 C240 0.948 . S
H283 C258 0.979 . S
H284 C258 0.980 . S
H285 C258 0.983 . S
H286 C257 0.982 . S
H287 C257 0.979 . S
H288 C257 0.977 . S
H289 C259 0.948 . S
H290 C261 0.947 1_655 S
H291 C262 0.948 1_655 S
H292 C268 0.982 . S
H293 C268 0.979 . S
H294 C268 0.977 . S
H295 C269 0.979 . S
H296 C269 0.980 . S
H297 C269 0.983 . S
H298 C242 0.947 . S
C299 C242 1.392 . S
C299 C243 1.419 . S
C299 H281 0.948 . S
C300 C301 1.391 . S
C300 C304 1.391 . S
C300 H342 0.948 . S
C301 C300 1.391 . S
C301 C302 1.391 . S
C302 C301 1.391 . S
C302 H358 0.947 . S
C302 C359 1.392 . S
C303 C304 1.391 . S
C303 C307 1.397 . S
C303 C359 1.419 . S
C304 C300 1.391 . S
C304 C303 1.391 . S
C304 C305 1.399 . S
C305 C304 1.399 . S
C305 C308 1.396 . S
C305 C317 1.453 . S
C305 C318 1.684 . S
H306 C330 0.948 . S
C307 C303 1.397 . S
C307 C308 1.394 . S
C307 C326 1.723 . S
C308 C305 1.396 . S
C308 C307 1.394 . S
C308 C338 1.723 1_655 S
H309 C332 0.947 . S
H310 C333 0.948 . S
H311 C339 0.982 . S
H312 C340 0.979 . S
H313 C340 0.980 . S
H314 C340 0.983 . S
H315 C339 0.979 . S
H316 C339 0.977 . S
C317 C305 1.453 . S
C317 H346 0.982 1_655 S
C317 H347 0.979 . S
C317 H348 0.977 1_655 S
C318 C305 1.684 . S
C318 H343 0.979 . S
C318 H344 0.980 . S
C318 H345 0.983 . S
C319 C320 1.391 1_655 S
C319 C324 1.391 . S
C319 H349 0.948 . S
C320 C319 1.391 1_455 S
C320 C321 1.391 . S
C321 C320 1.391 . S
C321 C322 1.392 . S
C321 H350 0.947 . S
C322 C321 1.392 . S
C322 C323 1.419 . S
C322 H351 0.948 . S
C323 C322 1.419 . S
C323 C324 1.391 1_455 S
C323 C327 1.397 . S
C324 C319 1.391 . S
C324 C323 1.391 1_655 S
C324 C325 1.399 . S
C325 C324 1.399 . S
C325 C326 1.396 . S
C325 C328 1.453 . S
C325 C329 1.684 . S
C326 C307 1.723 . S
C326 C325 1.396 . S
C326 C327 1.394 1_655 S
C327 C323 1.397 . S
C327 C326 1.394 1_455 S
C327 C337 1.723 . S
C328 C325 1.453 . S
C328 H352 0.982 . S
C328 H353 0.979 . S
C328 H354 0.977 . S
C329 C325 1.684 . S
C329 H355 0.979 . S
C329 H356 0.980 . S
C329 H357 0.983 . S
C330 H306 0.948 . S
C330 C331 1.391 . S
C330 C335 1.391 . S
C331 C330 1.391 . S
C331 C332 1.391 . S
C332 H309 0.947 . S
C332 C331 1.391 . S
C332 C333 1.392 . S
C333 H310 0.948 . S
C333 C332 1.392 . S
C333 C334 1.419 . S
C334 C333 1.419 . S
C334 C335 1.391 . S
C334 C338 1.397 . S
C335 C330 1.391 . S
C335 C334 1.391 . S
C335 C336 1.399 . S
C336 C335 1.399 . S
C336 C337 1.396 . S
C336 C339 1.453 . S
C336 C340 1.684 . S
C337 C327 1.723 . S
C337 C336 1.396 . S
C337 C338 1.394 . S
C338 C308 1.723 1_455 S
C338 C334 1.397 . S
C338 C337 1.394 . S
C339 H311 0.982 . S
C339 H315 0.979 . S
C339 H316 0.977 . S
C339 C336 1.453 . S
C340 H312 0.979 . S
C340 H313 0.980 . S
C340 H314 0.983 . S
C340 C336 1.684 . S
H341 C359 0.948 . S
H342 C300 0.948 . S
H343 C318 0.979 . S
H344 C318 0.980 . S
H345 C318 0.983 . S
H346 C317 0.982 1_455 S
H347 C317 0.979 . S
H348 C317 0.977 1_455 S
H349 C319 0.948 . S
H350 C321 0.947 . S
H351 C322 0.948 . S
H352 C328 0.982 . S
H353 C328 0.979 . S
H354 C328 0.977 . S
H355 C329 0.979 . S
H356 C329 0.980 . S
H357 C329 0.983 . S
H358 C302 0.947 . S
C359 C302 1.392 . S
C359 C303 1.419 . S
C359 H341 0.948 . S
C360 C361 1.391 . S
C360 C364 1.391 . S
C360 H402 0.948 . S
C361 C360 1.391 . S
C361 C362 1.391 . S
C362 C361 1.391 . S
C362 H418 0.947 . S
C362 C419 1.392 . S
C363 C364 1.391 . S
C363 C367 1.397 . S
C363 C419 1.419 . S
C364 C360 1.391 . S
C364 C363 1.391 . S
C364 C365 1.399 . S
C365 C364 1.399 . S
C365 C368 1.396 . S
C365 C377 1.453 1_565 S
C365 C378 1.684 . S
H366 C390 0.948 . S
C367 C363 1.397 . S
C367 C368 1.394 . S
C367 C386 1.723 . S
C368 C365 1.396 . S
C368 C367 1.394 . S
C368 C398 1.723 1_565 S
H369 C392 0.947 . S
H370 C393 0.948 . S
H371 C399 0.982 . S
H372 C400 0.979 . S
H373 C400 0.980 . S
H374 C400 0.983 . S
H375 C399 0.979 . S
H376 C399 0.977 . S
C377 C365 1.453 1_545 S
C377 H406 0.982 . S
C377 H407 0.979 1_545 S
C377 H408 0.977 . S
C378 C365 1.684 . S
C378 H403 0.979 . S
C378 H404 0.980 . S
C378 H405 0.983 . S
C379 C380 1.376 1_565 S
C379 C384 1.391 . S
C379 H409 0.948 . S
C380 C379 1.376 1_545 S
C380 C381 1.408 . S
C381 C380 1.408 . S
C381 C382 1.392 . S
C381 H410 0.947 . S
C382 C381 1.392 . S
C382 C383 1.419 . S
C382 H411 0.948 . S
C383 C382 1.419 . S
C383 C384 1.391 1_545 S
C383 C387 1.397 . S
C384 C379 1.391 . S
C384 C383 1.391 1_565 S
C384 C385 1.399 . S
C385 C384 1.399 . S
C385 C386 1.396 . S
C385 C388 1.453 . S
C385 C389 1.684 . S
C386 C367 1.723 . S
C386 C385 1.396 . S
C386 C387 1.394 1_565 S
C387 C383 1.397 . S
C387 C386 1.394 1_545 S
C387 C397 1.723 . S
C388 C385 1.453 . S
C388 H412 0.982 . S
C388 H413 0.979 . S
C388 H414 0.977 . S
C389 C385 1.684 . S
C389 H415 0.979 . S
C389 H416 0.980 . S
C389 H417 0.983 . S
C390 H366 0.948 . S
C390 C391 1.391 . S
C390 C395 1.391 . S
C391 C390 1.391 . S
C391 C392 1.391 . S
C392 H369 0.947 . S
C392 C391 1.391 . S
C392 C393 1.392 . S
C393 H370 0.948 . S
C393 C392 1.392 . S
C393 C394 1.419 . S
C394 C393 1.419 . S
C394 C395 1.391 . S
C394 C398 1.397 . S
C395 C390 1.391 . S
C395 C394 1.391 . S
C395 C396 1.399 . S
C396 C395 1.399 . S
C396 C397 1.396 . S
C396 C399 1.453 . S
C396 C400 1.684 . S
C397 C387 1.723 . S
C397 C396 1.396 . S
C397 C398 1.394 . S
C398 C368 1.723 1_545 S
C398 C394 1.397 . S
C398 C397 1.394 . S
C399 H371 0.982 . S
C399 H375 0.979 . S
C399 H376 0.977 . S
C399 C396 1.453 . S
C400 H372 0.979 . S
C400 H373 0.980 . S
C400 H374 0.983 . S
C400 C396 1.684 . S
H401 C419 0.948 . S
H402 C360 0.948 . S
H403 C378 0.979 . S
H404 C378 0.980 . S
H405 C378 0.983 . S
H406 C377 0.982 . S
H407 C377 0.979 1_565 S
H408 C377 0.977 . S
H409 C379 0.948 . S
H410 C381 0.947 . S
H411 C382 0.948 . S
H412 C388 0.982 . S
H413 C388 0.979 . S
H414 C388 0.977 . S
H415 C389 0.979 . S
H416 C389 0.980 . S
H417 C389 0.983 . S
H418 C362 0.947 . S
C419 C362 1.392 . S
C419 C363 1.419 . S
C419 H401 0.948 . S
C420 C421 1.391 . S
C420 C424 1.391 . S
C420 H462 0.948 . S
C421 C420 1.391 . S
C421 C422 1.391 . S
C422 C421 1.391 . S
C422 H478 0.947 . S
C422 C479 1.392 . S
C423 C424 1.391 . S
C423 C427 1.397 . S
C423 C479 1.419 . S
C424 C420 1.391 . S
C424 C423 1.391 . S
C424 C425 1.399 . S
C425 C424 1.399 . S
C425 C428 1.396 . S
C425 C437 1.453 . S
C425 C438 1.684 . S
H426 C450 0.948 . S
C427 C423 1.397 . S
C427 C428 1.394 . S
C427 C446 1.723 . S
C428 C425 1.396 . S
C428 C427 1.394 . S
C428 C458 1.723 . S
H429 C452 0.947 . S
H430 C453 0.948 . S
H431 C459 0.982 . S
H432 C460 0.979 . S
H433 C460 0.980 . S
H434 C460 0.983 . S
H435 C459 0.979 . S
H436 C459 0.977 . S
C437 C425 1.453 . S
C437 H466 0.982 . S
C437 H467 0.979 . S
C437 H468 0.977 . S
C438 C425 1.684 . S
C438 H463 0.979 . S
C438 H464 0.980 . S
C438 H465 0.983 . S
C439 C440 1.391 . S
C439 C444 1.391 . S
C439 H469 0.948 . S
C440 C439 1.391 . S
C440 C441 1.391 . S
C441 C440 1.391 . S
C441 C442 1.392 . S
C441 H470 0.947 . S
C442 C441 1.392 . S
C442 C443 1.419 . S
C442 H471 0.948 . S
C443 C442 1.419 . S
C443 C444 1.391 . S
C443 C447 1.397 . S
C444 C439 1.391 . S
C444 C443 1.391 . S
C444 C445 1.399 . S
C445 C444 1.399 . S
C445 C446 1.396 . S
C445 C448 1.453 . S
C445 C449 1.684 . S
C446 C427 1.723 . S
C446 C445 1.396 . S
C446 C447 1.394 . S
C447 C443 1.397 . S
C447 C446 1.394 . S
C447 C457 1.723 . S
C448 C445 1.453 . S
C448 H472 0.982 . S
C448 H473 0.979 . S
C448 H474 0.977 . S
C449 C445 1.684 . S
C449 H475 0.979 . S
C449 H476 0.980 . S
C449 H477 0.983 . S
C450 H426 0.948 . S
C450 C451 1.391 . S
C450 C455 1.391 . S
C451 C450 1.391 . S
C451 C452 1.391 . S
C452 H429 0.947 . S
C452 C451 1.391 . S
C452 C453 1.392 . S
C453 H430 0.948 . S
C453 C452 1.392 . S
C453 C454 1.419 . S
C454 C453 1.419 . S
C454 C455 1.391 . S
C454 C458 1.397 . S
C455 C450 1.391 . S
C455 C454 1.391 . S
C455 C456 1.399 . S
C456 C455 1.399 . S
C456 C457 1.396 . S
C456 C459 1.453 . S
C456 C460 1.684 . S
C457 C447 1.723 . S
C457 C456 1.396 . S
C457 C458 1.394 . S
C458 C428 1.723 . S
C458 C454 1.397 . S
C458 C457 1.394 . S
C459 H431 0.982 . S
C459 H435 0.979 . S
C459 H436 0.977 . S
C459 C456 1.453 . S
C460 H432 0.979 . S
C460 H433 0.980 . S
C460 H434 0.983 . S
C460 C456 1.684 . S
H461 C479 0.948 . S
H462 C420 0.948 . S
H463 C438 0.979 . S
H464 C438 0.980 . S
H465 C438 0.983 . S
H466 C437 0.982 . S
H467 C437 0.979 . S
H468 C437 0.977 . S
H469 C439 0.948 . S
H470 C441 0.947 . S
H471 C442 0.948 . S
H472 C448 0.982 . S
H473 C448 0.979 . S
H474 C448 0.977 . S
H475 C449 0.979 . S
H476 C449 0.980 . S
H477 C449 0.983 . S
H478 C422 0.947 . S
C479 C422 1.392 . S
C479 C423 1.419 . S
C479 H461 0.948 . S
H480 C488 0.929 . S
H481 C490 0.930 . S
H482 C492 0.930 . S
H483 C495 0.929 . S
H484 C498 0.930 . S
H485 C500 0.960 . S
H486 C500 0.960 . S
H487 C500 0.960 . S
C488 H480 0.929 . S
C488 C489 1.377 . S
C488 C490 1.384 . S
C489 C488 1.377 . S
C489 C495 1.390 . S
C490 H481 0.930 . S
C490 C488 1.384 . S
C490 C491 1.372 . S
C491 C490 1.372 . S
C491 C492 1.400 . S
C491 C496 1.490 . S
C492 H482 0.930 . S
C492 C491 1.400 . S
C492 C495 1.386 . S
H493 C509 0.930 . S
H494 C510 0.931 . S
C495 H483 0.929 . S
C495 C489 1.390 . S
C495 C492 1.386 . S
C496 C491 1.490 . S
C496 C498 1.395 . S
C496 C499 1.403 . S
H497 C503 0.930 . S
C498 H484 0.930 . S
C498 C496 1.395 . S
C498 C501 1.403 . S
C499 C496 1.403 . S
C499 C500 1.524 . S
C499 C503 1.400 . S
C500 H485 0.960 . S
C500 H486 0.960 . S
C500 H487 0.960 . S
C500 C499 1.524 . S
C501 C498 1.403 . S
C501 C502 1.392 . S
C501 C505 1.495 . S
C502 C501 1.392 . S
C502 C503 1.385 . S
C502 C504 1.478 . S
C503 H497 0.930 . S
C503 C499 1.400 . S
C503 C502 1.385 . S
C504 C502 1.478 . S
C504 C506 1.381 . S
C504 C510 1.383 . S
C505 C501 1.495 . S
C505 H511 0.959 . S
C505 H512 0.961 . S
C505 H513 0.960 . S
C506 C504 1.381 . S
C506 C507 1.394 . S
C506 H514 0.930 . S
C507 C506 1.394 . S
C507 C508 1.383 . S
C507 H515 0.929 . S
C508 C507 1.383 . S
C508 C509 1.377 . S
C509 H493 0.930 . S
C509 C508 1.377 . S
C509 C510 1.379 . S
C510 H494 0.931 . S
C510 C504 1.383 . S
C510 C509 1.379 . S
H511 C505 0.959 . S
H512 C505 0.961 . S
H513 C505 0.960 . S
H514 C506 0.930 . S
H515 C507 0.929 . S
H516 C524 0.929 . S
H517 C526 0.930 . S
H518 C528 0.930 . S
H519 C531 0.929 . S
H520 C534 0.930 . S
H521 C536 0.960 . S
H522 C536 0.960 . S
H523 C536 0.960 . S
C524 H516 0.929 . S
C524 C525 1.377 . S
C524 C526 1.384 . S
C525 C524 1.377 . S
C525 C531 1.390 . S
C526 H517 0.930 . S
C526 C524 1.384 . S
C526 C527 1.372 . S
C527 C526 1.372 . S
C527 C528 1.400 . S
C527 C532 1.490 . S
C528 H518 0.930 . S
C528 C527 1.400 . S
C528 C531 1.386 . S
H529 C545 0.930 . S
H530 C546 0.931 . S
C531 H519 0.929 . S
C531 C525 1.390 . S
C531 C528 1.386 . S
C532 C527 1.490 . S
C532 C534 1.395 . S
C532 C535 1.403 . S
H533 C539 0.930 . S
C534 H520 0.930 . S
C534 C532 1.395 . S
C534 C537 1.403 . S
C535 C532 1.403 . S
C535 C536 1.524 . S
C535 C539 1.400 . S
C536 H521 0.960 . S
C536 H522 0.960 . S
C536 H523 0.960 . S
C536 C535 1.524 . S
C537 C534 1.403 . S
C537 C538 1.392 . S
C537 C541 1.495 . S
C538 C537 1.392 . S
C538 C539 1.385 . S
C538 C540 1.478 . S
C539 H533 0.930 . S
C539 C535 1.400 . S
C539 C538 1.385 . S
C540 C538 1.478 . S
C540 C542 1.381 . S
C540 C546 1.383 . S
C541 C537 1.495 . S
C541 H547 0.959 . S
C541 H548 0.961 . S
C541 H549 0.960 . S
C542 C540 1.381 . S
C542 C543 1.394 . S
C542 H550 0.930 . S
C543 C542 1.394 . S
C543 C544 1.383 . S
C543 H551 0.929 . S
C544 C543 1.383 . S
C544 C545 1.377 . S
C545 H529 0.930 . S
C545 C544 1.377 . S
C545 C546 1.379 . S
C546 H530 0.931 . S
C546 C540 1.383 . S
C546 C545 1.379 . S
H547 C541 0.959 . S
H548 C541 0.961 . S
H549 C541 0.960 . S
H550 C542 0.930 . S
H551 C543 0.929 . S
H552 C560 0.929 . S
H553 C562 0.930 . S
H554 C564 0.930 . S
H555 C567 0.929 . S
H556 C570 0.930 . S
H557 C572 0.960 . S
H558 C572 0.960 . S
H559 C572 0.960 . S
C560 H552 0.929 . S
C560 C561 1.377 . S
C560 C562 1.384 . S
C561 C560 1.377 . S
C561 C567 1.390 . S
C562 H553 0.930 . S
C562 C560 1.384 . S
C562 C563 1.372 . S
C563 C562 1.372 . S
C563 C564 1.400 . S
C563 C568 1.490 . S
C564 H554 0.930 . S
C564 C563 1.400 . S
C564 C567 1.386 . S
H565 C581 0.930 . S
H566 C582 0.931 . S
C567 H555 0.929 . S
C567 C561 1.390 . S
C567 C564 1.386 . S
C568 C563 1.490 . S
C568 C570 1.395 . S
C568 C571 1.403 . S
H569 C575 0.930 . S
C570 H556 0.930 . S
C570 C568 1.395 . S
C570 C573 1.403 . S
C571 C568 1.403 . S
C571 C572 1.524 . S
C571 C575 1.400 . S
C572 H557 0.960 . S
C572 H558 0.960 . S
C572 H559 0.960 . S
C572 C571 1.524 . S
C573 C570 1.403 . S
C573 C574 1.392 . S
C573 C577 1.495 . S
C574 C573 1.392 . S
C574 C575 1.385 . S
C574 C576 1.478 . S
C575 H569 0.930 . S
C575 C571 1.400 . S
C575 C574 1.385 . S
C576 C574 1.478 . S
C576 C578 1.381 . S
C576 C582 1.383 . S
C577 C573 1.495 . S
C577 H583 0.959 . S
C577 H584 0.961 . S
C577 H585 0.960 . S
C578 C576 1.381 . S
C578 C579 1.394 . S
C578 H586 0.930 . S
C579 C578 1.394 . S
C579 C580 1.383 . S
C579 H587 0.929 . S
C580 C579 1.383 . S
C580 C581 1.377 . S
C581 H565 0.930 . S
C581 C580 1.377 . S
C581 C582 1.379 . S
C582 H566 0.931 . S
C582 C576 1.383 . S
C582 C581 1.379 . S
H583 C577 0.959 . S
H584 C577 0.961 . S
H585 C577 0.960 . S
H586 C578 0.930 . S
H587 C579 0.929 . S
H588 C596 0.929 . S
H589 C598 0.930 . S
H590 C600 0.930 . S
H591 C603 0.929 . S
H592 C606 0.930 . S
H593 C608 0.960 . S
H594 C608 0.960 . S
H595 C608 0.960 . S
C596 H588 0.929 . S
C596 C597 1.377 . S
C596 C598 1.384 . S
C597 C596 1.377 . S
C597 C603 1.390 . S
C598 H589 0.930 . S
C598 C596 1.384 . S
C598 C599 1.372 . S
C599 C598 1.372 . S
C599 C600 1.400 . S
C599 C604 1.490 . S
C600 H590 0.930 . S
C600 C599 1.400 . S
C600 C603 1.386 . S
H601 C617 0.930 . S
H602 C618 0.931 . S
C603 H591 0.929 . S
C603 C597 1.390 . S
C603 C600 1.386 . S
C604 C599 1.490 . S
C604 C606 1.395 . S
C604 C607 1.403 . S
H605 C611 0.930 . S
C606 H592 0.930 . S
C606 C604 1.395 . S
C606 C609 1.403 . S
C607 C604 1.403 . S
C607 C608 1.524 . S
C607 C611 1.400 . S
C608 H593 0.960 . S
C608 H594 0.960 . S
C608 H595 0.960 . S
C608 C607 1.524 . S
C609 C606 1.403 . S
C609 C610 1.392 . S
C609 C613 1.495 . S
C610 C609 1.392 . S
C610 C611 1.385 . S
C610 C612 1.478 . S
C611 H605 0.930 . S
C611 C607 1.400 . S
C611 C610 1.385 . S
C612 C610 1.478 . S
C612 C614 1.381 . S
C612 C618 1.383 . S
C613 C609 1.495 . S
C613 H619 0.959 . S
C613 H620 0.961 . S
C613 H621 0.960 . S
C614 C612 1.381 . S
C614 C615 1.394 . S
C614 H622 0.930 . S
C615 C614 1.394 . S
C615 C616 1.383 . S
C615 H623 0.929 . S
C616 C615 1.383 . S
C616 C617 1.377 . S
C617 H601 0.930 . S
C617 C616 1.377 . S
C617 C618 1.379 . S
C618 H602 0.931 . S
C618 C612 1.383 . S
C618 C617 1.379 . S
H619 C613 0.959 . S
H620 C613 0.961 . S
H621 C613 0.960 . S
H622 C614 0.930 . S
H623 C615 0.929 . S
H624 C632 0.929 . S
H625 C634 0.930 . S
H626 C636 0.930 . S
H627 C639 0.929 . S
H628 C642 0.930 . S
H629 C644 0.960 . S
H630 C644 0.960 . S
H631 C644 0.960 . S
C632 H624 0.929 . S
C632 C633 1.377 . S
C632 C634 1.384 . S
C633 C632 1.377 . S
C633 C639 1.390 . S
C634 H625 0.930 . S
C634 C632 1.384 . S
C634 C635 1.372 . S
C635 C634 1.372 . S
C635 C636 1.400 . S
C635 C640 1.490 . S
C636 H626 0.930 . S
C636 C635 1.400 . S
C636 C639 1.386 . S
H637 C653 0.930 . S
H638 C654 0.931 . S
C639 H627 0.929 . S
C639 C633 1.390 . S
C639 C636 1.386 . S
C640 C635 1.490 . S
C640 C642 1.395 . S
C640 C643 1.403 . S
H641 C647 0.930 . S
C642 H628 0.930 . S
C642 C640 1.395 . S
C642 C645 1.403 . S
C643 C640 1.403 . S
C643 C644 1.524 . S
C643 C647 1.400 . S
C644 H629 0.960 . S
C644 H630 0.960 . S
C644 H631 0.960 . S
C644 C643 1.524 . S
C645 C642 1.403 . S
C645 C646 1.392 . S
C645 C649 1.495 . S
C646 C645 1.392 . S
C646 C647 1.385 . S
C646 C648 1.478 . S
C647 H641 0.930 . S
C647 C643 1.400 . S
C647 C646 1.385 . S
C648 C646 1.478 . S
C648 C650 1.381 . S
C648 C654 1.383 . S
C649 C645 1.495 . S
C649 H655 0.959 . S
C649 H656 0.961 . S
C649 H657 0.960 . S
C650 C648 1.381 . S
C650 C651 1.394 . S
C650 H658 0.930 . S
C651 C650 1.394 . S
C651 C652 1.383 . S
C651 H659 0.929 . S
C652 C651 1.383 . S
C652 C653 1.377 . S
C653 H637 0.930 . S
C653 C652 1.377 . S
C653 C654 1.379 . S
C654 H638 0.931 . S
C654 C648 1.383 . S
C654 C653 1.379 . S
H655 C649 0.959 . S
H656 C649 0.961 . S
H657 C649 0.960 . S
H658 C650 0.930 . S
H659 C651 0.929 . S
H660 C668 0.929 . S
H661 C670 0.930 . S
H662 C672 0.930 . S
H663 C675 0.929 . S
H664 C678 0.930 . S
H665 C680 0.960 . S
H666 C680 0.960 . S
H667 C680 0.960 . S
C668 H660 0.929 . S
C668 C669 1.377 . S
C668 C670 1.384 . S
C669 C668 1.377 . S
C669 C675 1.390 . S
C670 H661 0.930 . S
C670 C668 1.384 . S
C670 C671 1.372 . S
C671 C670 1.372 . S
C671 C672 1.400 . S
C671 C676 1.490 . S
C672 H662 0.930 . S
C672 C671 1.400 . S
C672 C675 1.386 . S
H673 C689 0.930 . S
H674 C690 0.931 . S
C675 H663 0.929 . S
C675 C669 1.390 . S
C675 C672 1.386 . S
C676 C671 1.490 . S
C676 C678 1.395 . S
C676 C679 1.403 . S
H677 C683 0.930 . S
C678 H664 0.930 . S
C678 C676 1.395 . S
C678 C681 1.403 . S
C679 C676 1.403 . S
C679 C680 1.524 . S
C679 C683 1.400 . S
C680 H665 0.960 . S
C680 H666 0.960 . S
C680 H667 0.960 . S
C680 C679 1.524 . S
C681 C678 1.403 . S
C681 C682 1.392 . S
C681 C685 1.495 . S
C682 C681 1.392 . S
C682 C683 1.385 . S
C682 C684 1.478 . S
C683 H677 0.930 . S
C683 C679 1.400 . S
C683 C682 1.385 . S
C684 C682 1.478 . S
C684 C686 1.381 . S
C684 C690 1.383 . S
C685 C681 1.495 . S
C685 H691 0.959 . S
C685 H692 0.961 . S
C685 H693 0.960 . S
C686 C684 1.381 . S
C686 C687 1.394 . S
C686 H694 0.930 . S
C687 C686 1.394 . S
C687 C688 1.383 . S
C687 H695 0.929 . S
C688 C687 1.383 . S
C688 C689 1.377 . S
C689 H673 0.930 . S
C689 C688 1.377 . S
C689 C690 1.379 . S
C690 H674 0.931 . S
C690 C684 1.383 . S
C690 C689 1.379 . S
H691 C685 0.959 . S
H692 C685 0.961 . S
H693 C685 0.960 . S
H694 C686 0.930 . S
H695 C687 0.929 . S
H696 C704 0.929 . S
H697 C706 0.930 . S
H698 C708 0.930 . S
H699 C711 0.929 . S
H700 C714 0.930 . S
H701 C716 0.960 . S
H702 C716 0.960 . S
H703 C716 0.960 . S
C704 H696 0.929 . S
C704 C705 1.377 . S
C704 C706 1.384 . S
C705 C704 1.377 . S
C705 C711 1.390 . S
C706 H697 0.930 . S
C706 C704 1.384 . S
C706 C707 1.372 . S
C707 C706 1.372 . S
C707 C708 1.400 . S
C707 C712 1.490 . S
C708 H698 0.930 . S
C708 C707 1.400 . S
C708 C711 1.386 . S
H709 C725 0.930 . S
H710 C726 0.931 . S
C711 H699 0.929 . S
C711 C705 1.390 . S
C711 C708 1.386 . S
C712 C707 1.490 . S
C712 C714 1.395 . S
C712 C715 1.403 . S
H713 C719 0.930 . S
C714 H700 0.930 . S
C714 C712 1.395 . S
C714 C717 1.403 . S
C715 C712 1.403 . S
C715 C716 1.524 . S
C715 C719 1.400 . S
C716 H701 0.960 . S
C716 H702 0.960 . S
C716 H703 0.960 . S
C716 C715 1.524 . S
C717 C714 1.403 . S
C717 C718 1.392 . S
C717 C721 1.495 . S
C718 C717 1.392 . S
C718 C719 1.385 . S
C718 C720 1.478 . S
C719 H713 0.930 . S
C719 C715 1.400 . S
C719 C718 1.385 . S
C720 C718 1.478 . S
C720 C722 1.381 . S
C720 C726 1.383 . S
C721 C717 1.495 . S
C721 H727 0.959 . S
C721 H728 0.961 . S
C721 H729 0.960 . S
C722 C720 1.381 . S
C722 C723 1.394 . S
C722 H730 0.930 . S
C723 C722 1.394 . S
C723 C724 1.383 . S
C723 H731 0.929 . S
C724 C723 1.383 . S
C724 C725 1.377 . S
C725 H709 0.930 . S
C725 C724 1.377 . S
C725 C726 1.379 . S
C726 H710 0.931 . S
C726 C720 1.383 . S
C726 C725 1.379 . S
H727 C721 0.959 . S
H728 C721 0.961 . S
H729 C721 0.960 . S
H730 C722 0.930 . S
H731 C723 0.929 . S
H732 C740 0.929 . S
H733 C742 0.930 . S
H734 C744 0.930 . S
H735 C747 0.929 . S
H736 C750 0.930 . S
H737 C752 0.960 . S
H738 C752 0.960 . S
H739 C752 0.960 . S
C740 H732 0.929 . S
C740 C741 1.377 . S
C740 C742 1.384 . S
C741 C740 1.377 . S
C741 C747 1.390 . S
C742 H733 0.930 . S
C742 C740 1.384 . S
C742 C743 1.372 . S
C743 C742 1.372 . S
C743 C744 1.400 . S
C743 C748 1.490 . S
C744 H734 0.930 . S
C744 C743 1.400 . S
C744 C747 1.386 . S
H745 C761 0.930 . S
H746 C762 0.931 . S
C747 H735 0.929 . S
C747 C741 1.390 . S
C747 C744 1.386 . S
C748 C743 1.490 . S
C748 C750 1.395 . S
C748 C751 1.403 . S
H749 C755 0.930 . S
C750 H736 0.930 . S
C750 C748 1.395 . S
C750 C753 1.403 . S
C751 C748 1.403 . S
C751 C752 1.524 . S
C751 C755 1.400 . S
C752 H737 0.960 . S
C752 H738 0.960 . S
C752 H739 0.960 . S
C752 C751 1.524 . S
C753 C750 1.403 . S
C753 C754 1.392 . S
C753 C757 1.495 . S
C754 C753 1.392 . S
C754 C755 1.385 . S
C754 C756 1.478 . S
C755 H749 0.930 . S
C755 C751 1.400 . S
C755 C754 1.385 . S
C756 C754 1.478 . S
C756 C758 1.381 . S
C756 C762 1.383 . S
C757 C753 1.495 . S
C757 H763 0.959 . S
C757 H764 0.961 . S
C757 H765 0.960 . S
C758 C756 1.381 . S
C758 C759 1.394 . S
C758 H766 0.930 . S
C759 C758 1.394 . S
C759 C760 1.383 . S
C759 H767 0.929 . S
C760 C759 1.383 . S
C760 C761 1.377 . S
C761 H745 0.930 . S
C761 C760 1.377 . S
C761 C762 1.379 . S
C762 H746 0.931 . S
C762 C756 1.383 . S
C762 C761 1.379 . S
H763 C757 0.959 . S
H764 C757 0.961 . S
H765 C757 0.960 . S
H766 C758 0.930 . S
H767 C759 0.929 . S
H768 C776 0.929 . S
H769 C778 0.930 . S
H770 C780 0.930 . S
H771 C783 0.929 . S
H772 C786 0.930 . S
H773 C788 0.960 . S
H774 C788 0.960 . S
H775 C788 0.960 . S
C776 H768 0.929 . S
C776 C777 1.377 . S
C776 C778 1.384 . S
C777 C776 1.377 . S
C777 C783 1.390 . S
C778 H769 0.930 . S
C778 C776 1.384 . S
C778 C779 1.372 . S
C779 C778 1.372 . S
C779 C780 1.400 . S
C779 C784 1.490 . S
C780 H770 0.930 . S
C780 C779 1.400 . S
C780 C783 1.386 . S
H781 C797 0.930 . S
H782 C798 0.931 . S
C783 H771 0.929 . S
C783 C777 1.390 . S
C783 C780 1.386 . S
C784 C779 1.490 . S
C784 C786 1.395 . S
C784 C787 1.403 . S
H785 C791 0.930 . S
C786 H772 0.930 . S
C786 C784 1.395 . S
C786 C789 1.403 . S
C787 C784 1.403 . S
C787 C788 1.524 . S
C787 C791 1.400 . S
C788 H773 0.960 . S
C788 H774 0.960 . S
C788 H775 0.960 . S
C788 C787 1.524 . S
C789 C786 1.403 . S
C789 C790 1.392 . S
C789 C793 1.495 . S
C790 C789 1.392 . S
C790 C791 1.385 . S
C790 C792 1.478 . S
C791 H785 0.930 . S
C791 C787 1.400 . S
C791 C790 1.385 . S
C792 C790 1.478 . S
C792 C794 1.381 . S
C792 C798 1.383 . S
C793 C789 1.495 . S
C793 H799 0.959 . S
C793 H800 0.961 . S
C793 H801 0.960 . S
C794 C792 1.381 . S
C794 C795 1.394 . S
C794 H802 0.930 . S
C795 C794 1.394 . S
C795 C796 1.383 . S
C795 H803 0.929 . S
C796 C795 1.383 . S
C796 C797 1.377 . S
C797 H781 0.930 . S
C797 C796 1.377 . S
C797 C798 1.379 . S
C798 H782 0.931 . S
C798 C792 1.383 . S
C798 C797 1.379 . S
H799 C793 0.959 . S
H800 C793 0.961 . S
H801 C793 0.960 . S
H802 C794 0.930 . S
H803 C795 0.929 . S
H804 C812 0.929 . S
H805 C814 0.930 . S
H806 C816 0.930 . S
H807 C819 0.929 . S
H808 C822 0.930 . S
H809 C824 0.960 . S
H810 C824 0.960 . S
H811 C824 0.960 . S
C812 H804 0.929 . S
C812 C813 1.377 . S
C812 C814 1.384 . S
C813 C812 1.377 . S
C813 C819 1.390 . S
C814 H805 0.930 . S
C814 C812 1.384 . S
C814 C815 1.372 . S
C815 C814 1.372 . S
C815 C816 1.400 . S
C815 C820 1.490 . S
C816 H806 0.930 . S
C816 C815 1.400 . S
C816 C819 1.386 . S
H817 C833 0.930 . S
H818 C834 0.931 . S
C819 H807 0.929 . S
C819 C813 1.390 . S
C819 C816 1.386 . S
C820 C815 1.490 . S
C820 C822 1.395 . S
C820 C823 1.403 . S
H821 C827 0.930 . S
C822 H808 0.930 . S
C822 C820 1.395 . S
C822 C825 1.403 . S
C823 C820 1.403 . S
C823 C824 1.524 . S
C823 C827 1.400 . S
C824 H809 0.960 . S
C824 H810 0.960 . S
C824 H811 0.960 . S
C824 C823 1.524 . S
C825 C822 1.403 . S
C825 C826 1.392 . S
C825 C829 1.495 . S
C826 C825 1.392 . S
C826 C827 1.385 . S
C826 C828 1.478 . S
C827 H821 0.930 . S
C827 C823 1.400 . S
C827 C826 1.385 . S
C828 C826 1.478 . S
C828 C830 1.381 . S
C828 C834 1.383 . S
C829 C825 1.495 . S
C829 H835 0.959 . S
C829 H836 0.961 . S
C829 H837 0.960 . S
C830 C828 1.381 . S
C830 C831 1.394 . S
C830 H838 0.930 . S
C831 C830 1.394 . S
C831 C832 1.383 . S
C831 H839 0.929 . S
C832 C831 1.383 . S
C832 C833 1.377 . S
C833 H817 0.930 . S
C833 C832 1.377 . S
C833 C834 1.379 . S
C834 H818 0.931 . S
C834 C828 1.383 . S
C834 C833 1.379 . S
H835 C829 0.959 . S
H836 C829 0.961 . S
H837 C829 0.960 . S
H838 C830 0.930 . S
H839 C831 0.929 . S
H840 C848 0.929 . S
H841 C850 0.930 . S
H842 C852 0.930 . S
H843 C855 0.929 . S
H844 C858 0.930 . S
H845 C860 0.960 . S
H846 C860 0.960 . S
H847 C860 0.960 . S
C848 H840 0.929 . S
C848 C849 1.377 . S
C848 C850 1.384 . S
C849 C848 1.377 . S
C849 C855 1.390 . S
C850 H841 0.930 . S
C850 C848 1.384 . S
C850 C851 1.372 . S
C851 C850 1.372 . S
C851 C852 1.400 . S
C851 C856 1.490 . S
C852 H842 0.930 . S
C852 C851 1.400 . S
C852 C855 1.386 . S
H853 C869 0.930 . S
H854 C870 0.931 . S
C855 H843 0.929 . S
C855 C849 1.390 . S
C855 C852 1.386 . S
C856 C851 1.490 . S
C856 C858 1.395 . S
C856 C859 1.403 . S
H857 C863 0.930 . S
C858 H844 0.930 . S
C858 C856 1.395 . S
C858 C861 1.403 . S
C859 C856 1.403 . S
C859 C860 1.524 . S
C859 C863 1.400 . S
C860 H845 0.960 . S
C860 H846 0.960 . S
C860 H847 0.960 . S
C860 C859 1.524 . S
C861 C858 1.403 . S
C861 C862 1.392 . S
C861 C865 1.495 . S
C862 C861 1.392 . S
C862 C863 1.385 . S
C862 C864 1.478 . S
C863 H857 0.930 . S
C863 C859 1.400 . S
C863 C862 1.385 . S
C864 C862 1.478 . S
C864 C866 1.381 . S
C864 C870 1.383 . S
C865 C861 1.495 . S
C865 H871 0.959 . S
C865 H872 0.961 . S
C865 H873 0.960 . S
C866 C864 1.381 . S
C866 C867 1.394 . S
C866 H874 0.930 . S
C867 C866 1.394 . S
C867 C868 1.383 . S
C867 H875 0.929 . S
C868 C867 1.383 . S
C868 C869 1.377 . S
C869 H853 0.930 . S
C869 C868 1.377 . S
C869 C870 1.379 . S
C870 H854 0.931 . S
C870 C864 1.383 . S
C870 C869 1.379 . S
H871 C865 0.959 . S
H872 C865 0.961 . S
H873 C865 0.960 . S
H874 C866 0.930 . S
H875 C867 0.929 . S
H876 C884 0.929 . S
H877 C886 0.930 . S
H878 C888 0.930 . S
H879 C891 0.929 . S
H880 C894 0.930 . S
H881 C896 0.960 . S
H882 C896 0.960 . S
H883 C896 0.960 . S
C884 H876 0.929 . S
C884 C885 1.377 . S
C884 C886 1.384 . S
C885 C884 1.377 . S
C885 C891 1.390 . S
C886 H877 0.930 . S
C886 C884 1.384 . S
C886 C887 1.372 . S
C887 C886 1.372 . S
C887 C888 1.400 . S
C887 C892 1.490 . S
C888 H878 0.930 . S
C888 C887 1.400 . S
C888 C891 1.386 . S
H889 C905 0.930 . S
H890 C906 0.931 . S
C891 H879 0.929 . S
C891 C885 1.390 . S
C891 C888 1.386 . S
C892 C887 1.490 . S
C892 C894 1.395 . S
C892 C895 1.403 . S
H893 C899 0.930 . S
C894 H880 0.930 . S
C894 C892 1.395 . S
C894 C897 1.403 . S
C895 C892 1.403 . S
C895 C896 1.524 . S
C895 C899 1.400 . S
C896 H881 0.960 . S
C896 H882 0.960 . S
C896 H883 0.960 . S
C896 C895 1.524 . S
C897 C894 1.403 . S
C897 C898 1.392 . S
C897 C901 1.495 . S
C898 C897 1.392 . S
C898 C899 1.385 . S
C898 C900 1.478 . S
C899 H893 0.930 . S
C899 C895 1.400 . S
C899 C898 1.385 . S
C900 C898 1.478 . S
C900 C902 1.381 . S
C900 C906 1.383 . S
C901 C897 1.495 . S
C901 H907 0.959 . S
C901 H908 0.961 . S
C901 H909 0.960 . S
C902 C900 1.381 . S
C902 C903 1.394 . S
C902 H910 0.930 . S
C903 C902 1.394 . S
C903 C904 1.383 . S
C903 H911 0.929 . S
C904 C903 1.383 . S
C904 C905 1.377 . S
C905 H889 0.930 . S
C905 C904 1.377 . S
C905 C906 1.379 . S
C906 H890 0.931 . S
C906 C900 1.383 . S
C906 C905 1.379 . S
H907 C901 0.959 . S
H908 C901 0.961 . S
H909 C901 0.960 . S
H910 C902 0.930 . S
H911 C903 0.929 . S
H912 C920 0.929 . S
H913 C922 0.930 . S
H914 C924 0.930 . S
H915 C927 0.929 . S
H916 C930 0.928 . S
H917 C932 0.960 . S
H918 C932 0.960 . S
H919 C932 0.960 . S
C920 H912 0.929 . S
C920 C921 1.377 . S
C920 C922 1.384 . S
C921 C920 1.377 . S
C921 C927 1.390 . S
C922 H913 0.930 . S
C922 C920 1.384 . S
C922 C923 1.372 . S
C923 C922 1.372 . S
C923 C924 1.400 . S
C923 C928 1.490 . S
C924 H914 0.930 . S
C924 C923 1.400 . S
C924 C927 1.386 . S
H925 C941 0.930 . S
H926 C942 0.931 . S
C927 H915 0.929 . S
C927 C921 1.390 . S
C927 C924 1.386 . S
C928 C923 1.490 . S
C928 C930 1.395 . S
C928 C931 1.403 . S
H929 C935 0.930 . S
C930 H916 0.928 . S
C930 C928 1.395 . S
C930 C933 1.403 . S
C931 C928 1.403 . S
C931 C932 1.524 . S
C931 C935 1.400 . S
C932 H917 0.960 . S
C932 H918 0.960 . S
C932 H919 0.960 . S
C932 C931 1.524 . S
C933 C930 1.403 . S
C933 C934 1.392 . S
C933 C937 1.495 1_455 S
C934 C933 1.392 . S
C934 C935 1.385 . S
C934 C936 1.478 . S
C935 H929 0.930 . S
C935 C931 1.400 . S
C935 C934 1.385 . S
C936 C934 1.478 . S
C936 C938 1.381 . S
C936 C942 1.383 . S
C937 C933 1.495 1_655 S
C937 H943 0.959 . S
C937 H944 0.961 . S
C937 H945 0.960 1_655 S
C938 C936 1.381 . S
C938 C939 1.394 1_554 S
C938 H946 0.930 . S
C939 C938 1.394 1_556 S
C939 C940 1.383 . S
C939 H947 0.929 . S
C940 C939 1.383 . S
C940 C941 1.377 . S
C941 H925 0.930 . S
C941 C940 1.377 . S
C941 C942 1.379 1_556 S
C942 H926 0.931 . S
C942 C936 1.383 . S
C942 C941 1.379 1_554 S
H943 C937 0.959 . S
H944 C937 0.961 . S
H945 C937 0.960 1_455 S
H946 C938 0.930 . S
H947 C939 0.929 . S
H948 C956 0.929 . S
H949 C958 0.930 . S
H950 C960 0.930 . S
H951 C963 0.929 . S
H952 C966 0.930 . S
H953 C968 0.960 . S
H954 C968 0.960 . S
H955 C968 0.960 . S
C956 H948 0.929 . S
C956 C957 1.377 . S
C956 C958 1.384 . S
C957 C956 1.377 . S
C957 C963 1.390 . S
C958 H949 0.930 . S
C958 C956 1.384 . S
C958 C959 1.372 . S
C959 C958 1.372 . S
C959 C960 1.400 . S
C959 C964 1.490 . S
C960 H950 0.930 . S
C960 C959 1.400 . S
C960 C963 1.386 . S
H961 C977 0.930 . S
H962 C978 0.931 . S
C963 H951 0.929 . S
C963 C957 1.390 . S
C963 C960 1.386 . S
C964 C959 1.490 . S
C964 C966 1.395 1_545 S
C964 C967 1.403 . S
H965 C971 0.930 . S
C966 H952 0.930 . S
C966 C964 1.395 1_565 S
C966 C969 1.403 . S
C967 C964 1.403 . S
C967 C968 1.524 . S
C967 C971 1.400 . S
C968 H953 0.960 . S
C968 H954 0.960 . S
C968 H955 0.960 . S
C968 C967 1.524 . S
C969 C966 1.403 . S
C969 C970 1.392 1_565 S
C969 C973 1.495 . S
C970 C969 1.392 1_545 S
C970 C971 1.385 . S
C970 C972 1.478 . S
C971 H965 0.930 . S
C971 C967 1.400 . S
C971 C970 1.385 . S
C972 C970 1.478 . S
C972 C974 1.381 . S
C972 C978 1.383 . S
C973 C969 1.495 . S
C973 H979 0.959 . S
C973 H980 0.961 . S
C973 H981 0.960 . S
C974 C972 1.381 . S
C974 C975 1.394 . S
C974 H982 0.930 . S
C975 C974 1.394 . S
C975 C976 1.383 . S
C975 H983 0.929 . S
C976 C975 1.383 . S
C976 C977 1.377 . S
C977 H961 0.930 . S
C977 C976 1.377 . S
C977 C978 1.379 . S
C978 H962 0.931 . S
C978 C972 1.383 . S
C978 C977 1.379 . S
H979 C973 0.959 . S
H980 C973 0.961 . S
H981 C973 0.960 . S
H982 C974 0.930 . S
H983 C975 0.929 . S
H984 C992 0.929 . S
H985 C994 0.930 . S
H986 C996 0.930 . S
H987 C999 0.929 . S
H988 C1002 0.930 . S
H989 C1004 0.960 . S
H990 C1004 0.960 . S
H991 C1004 0.960 . S
C992 H984 0.929 . S
C992 C993 1.377 . S
C992 C994 1.384 . S
C993 C992 1.377 . S
C993 C999 1.390 . S
C994 H985 0.930 . S
C994 C992 1.384 . S
C994 C995 1.372 . S
C995 C994 1.372 . S
C995 C996 1.400 . S
C995 C1000 1.490 . S
C996 H986 0.930 . S
C996 C995 1.400 . S
C996 C999 1.386 . S
H997 C1013 0.930 . S
H998 C1014 0.931 . S
C999 H987 0.929 . S
C999 C993 1.390 . S
C999 C996 1.386 . S
C1000 C995 1.490 . S
C1000 C1002 1.395 . S
C1000 C1003 1.403 . S
H1001 C1007 0.930 . S
C1002 H988 0.930 . S
C1002 C1000 1.395 . S
C1002 C1005 1.403 . S
C1003 C1000 1.403 . S
C1003 C1004 1.524 . S
C1003 C1007 1.400 . S
C1004 H989 0.960 . S
C1004 H990 0.960 . S
C1004 H991 0.960 . S
C1004 C1003 1.524 . S
C1005 C1002 1.403 . S
C1005 C1006 1.392 . S
C1005 C1009 1.495 . S
C1006 C1005 1.392 . S
C1006 C1007 1.385 . S
C1006 C1008 1.478 . S
C1007 H1001 0.930 . S
C1007 C1003 1.400 . S
C1007 C1006 1.385 . S
C1008 C1006 1.478 . S
C1008 C1010 1.381 . S
C1008 C1014 1.383 . S
C1009 C1005 1.495 . S
C1009 H1015 0.959 . S
C1009 H1016 0.961 . S
C1009 H1017 0.960 . S
C1010 C1008 1.381 . S
C1010 C1011 1.394 . S
C1010 H1018 0.930 . S
C1011 C1010 1.394 . S
C1011 C1012 1.383 . S
C1011 H1019 0.929 . S
C1012 C1011 1.383 . S
C1012 C1013 1.377 . S
C1013 H997 0.930 . S
C1013 C1012 1.377 . S
C1013 C1014 1.379 . S
C1014 H998 0.931 . S
C1014 C1008 1.383 . S
C1014 C1013 1.379 . S
H1015 C1009 0.959 . S
H1016 C1009 0.961 . S
H1017 C1009 0.960 . S
H1018 C1010 0.930 . S
H1019 C1011 0.929 . S
H1020 C1028 0.929 . S
H1021 C1030 0.930 . S
H1022 C1032 0.930 . S
H1023 C1035 0.929 . S
H1024 C1038 0.930 . S
H1025 C1040 0.960 . S
H1026 C1040 0.960 . S
H1027 C1040 0.960 . S
C1028 H1020 0.929 . S
C1028 C1029 1.377 . S
C1028 C1030 1.384 . S
C1029 C1028 1.377 . S
C1029 C1035 1.390 1_545 S
C1030 H1021 0.930 . S
C1030 C1028 1.384 . S
C1030 C1031 1.372 . S
C1031 C1030 1.372 . S
C1031 C1032 1.400 1_545 S
C1031 C1036 1.490 . S
C1032 H1022 0.930 . S
C1032 C1031 1.400 1_565 S
C1032 C1035 1.386 . S
H1033 C1049 0.930 . S
H1034 C1050 0.931 . S
C1035 H1023 0.929 . S
C1035 C1029 1.390 1_565 S
C1035 C1032 1.386 . S
C1036 C1031 1.490 . S
C1036 C1038 1.395 1_545 S
C1036 C1039 1.403 . S
H1037 C1043 0.930 . S
C1038 H1024 0.930 . S
C1038 C1036 1.395 1_565 S
C1038 C1041 1.403 . S
C1039 C1036 1.403 . S
C1039 C1040 1.524 . S
C1039 C1043 1.400 . S
C1040 H1025 0.960 . S
C1040 H1026 0.960 . S
C1040 H1027 0.960 . S
C1040 C1039 1.524 . S
C1041 C1038 1.403 . S
C1041 C1042 1.392 . S
C1041 C1045 1.495 . S
C1042 C1041 1.392 . S
C1042 C1043 1.385 1_565 S
C1042 C1044 1.478 . S
C1043 H1037 0.930 . S
C1043 C1039 1.400 . S
C1043 C1042 1.385 1_545 S
C1044 C1042 1.478 . S
C1044 C1046 1.381 1_565 S
C1044 C1050 1.383 . S
C1045 C1041 1.495 . S
C1045 H1051 0.959 . S
C1045 H1052 0.961 . S
C1045 H1053 0.960 . S
C1046 C1044 1.381 1_545 S
C1046 C1047 1.394 . S
C1046 H1054 0.930 . S
C1047 C1046 1.394 . S
C1047 C1048 1.383 1_545 S
C1047 H1055 0.929 . S
C1048 C1047 1.383 1_565 S
C1048 C1049 1.377 . S
C1049 H1033 0.930 . S
C1049 C1048 1.377 . S
C1049 C1050 1.379 . S
C1050 H1034 0.931 . S
C1050 C1044 1.383 . S
C1050 C1049 1.379 . S
H1051 C1045 0.959 . S
H1052 C1045 0.961 . S
H1053 C1045 0.960 . S
H1054 C1046 0.930 . S
H1055 C1047 0.929 . S
H1056 C1064 0.929 . S
H1057 C1066 0.930 . S
H1058 C1068 0.930 . S
H1059 C1071 0.929 . S
H1060 C1074 0.930 . S
H1061 C1076 0.960 . S
H1062 C1076 0.960 . S
H1063 C1076 0.960 . S
C1064 H1056 0.929 . S
C1064 C1065 1.377 . S
C1064 C1066 1.384 . S
C1065 C1064 1.377 . S
C1065 C1071 1.390 . S
C1066 H1057 0.930 . S
C1066 C1064 1.384 . S
C1066 C1067 1.372 . S
C1067 C1066 1.372 . S
C1067 C1068 1.400 . S
C1067 C1072 1.490 . S
C1068 H1058 0.930 . S
C1068 C1067 1.400 . S
C1068 C1071 1.386 . S
H1069 C1085 0.930 . S
H1070 C1086 0.931 . S
C1071 H1059 0.929 . S
C1071 C1065 1.390 . S
C1071 C1068 1.386 . S
C1072 C1067 1.490 . S
C1072 C1074 1.395 . S
C1072 C1075 1.403 . S
H1073 C1079 0.930 . S
C1074 H1060 0.930 . S
C1074 C1072 1.395 . S
C1074 C1077 1.403 . S
C1075 C1072 1.403 . S
C1075 C1076 1.524 . S
C1075 C1079 1.400 . S
C1076 H1061 0.960 . S
C1076 H1062 0.960 . S
C1076 H1063 0.960 . S
C1076 C1075 1.524 . S
C1077 C1074 1.403 . S
C1077 C1078 1.392 . S
C1077 C1081 1.495 . S
C1078 C1077 1.392 . S
C1078 C1079 1.385 . S
C1078 C1080 1.478 . S
C1079 H1073 0.930 . S
C1079 C1075 1.400 . S
C1079 C1078 1.385 . S
C1080 C1078 1.478 . S
C1080 C1082 1.381 . S
C1080 C1086 1.383 . S
C1081 C1077 1.495 . S
C1081 H1087 0.959 . S
C1081 H1088 0.961 . S
C1081 H1089 0.960 . S
C1082 C1080 1.381 . S
C1082 C1083 1.394 1_556 S
C1082 H1090 0.930 . S
C1083 C1082 1.394 1_554 S
C1083 C1084 1.383 . S
C1083 H1091 0.929 . S
C1084 C1083 1.383 . S
C1084 C1085 1.377 . S
C1085 H1069 0.930 . S
C1085 C1084 1.377 . S
C1085 C1086 1.379 1_554 S
C1086 H1070 0.931 . S
C1086 C1080 1.383 . S
C1086 C1085 1.379 1_556 S
H1087 C1081 0.959 . S
H1088 C1081 0.961 . S
H1089 C1081 0.960 . S
H1090 C1082 0.930 . S
H1091 C1083 0.929 . S
H1092 C1100 0.929 . S
H1093 C1102 0.930 . S
H1094 C1104 0.930 . S
H1095 C1107 0.929 . S
H1096 C1110 0.930 . S
H1097 C1112 0.960 . S
H1098 C1112 0.960 . S
H1099 C1112 0.960 . S
C1100 H1092 0.929 . S
C1100 C1101 1.377 1_655 S
C1100 C1102 1.384 . S
C1101 C1100 1.377 1_455 S
C1101 C1107 1.390 . S
C1102 H1093 0.930 . S
C1102 C1100 1.384 . S
C1102 C1103 1.372 1_655 S
C1103 C1102 1.372 1_455 S
C1103 C1104 1.400 . S
C1103 C1108 1.490 . S
C1104 H1094 0.930 . S
C1104 C1103 1.400 . S
C1104 C1107 1.386 . S
H1105 C1121 0.930 . S
H1106 C1122 0.931 . S
C1107 H1095 0.929 . S
C1107 C1101 1.390 . S
C1107 C1104 1.386 . S
C1108 C1103 1.490 . S
C1108 C1110 1.395 1_455 S
C1108 C1111 1.403 . S
H1109 C1115 0.930 . S
C1110 H1096 0.930 . S
C1110 C1108 1.395 1_655 S
C1110 C1113 1.403 . S
C1111 C1108 1.403 . S
C1111 C1112 1.524 . S
C1111 C1115 1.400 . S
C1112 H1097 0.960 . S
C1112 H1098 0.960 . S
C1112 H1099 0.960 . S
C1112 C1111 1.524 . S
C1113 C1110 1.403 . S
C1113 C1114 1.392 1_655 S
C1113 C1117 1.495 . S
C1114 C1113 1.392 1_455 S
C1114 C1115 1.385 . S
C1114 C1116 1.477 1_455 S
C1115 H1109 0.930 . S
C1115 C1111 1.400 . S
C1115 C1114 1.385 . S
C1116 C1114 1.477 1_655 S
C1116 C1118 1.415 . S
C1116 C1122 1.352 1_655 S
C1117 C1113 1.495 . S
C1117 H1123 0.959 . S
C1117 H1124 0.961 . S
C1117 H1125 0.960 . S
C1118 C1116 1.415 . S
C1118 C1119 1.394 . S
C1118 H1126 0.930 . S
C1119 C1118 1.394 . S
C1119 C1120 1.383 . S
C1119 H1127 0.929 . S
C1120 C1119 1.383 . S
C1120 C1121 1.377 1_655 S
C1121 H1105 0.930 . S
C1121 C1120 1.377 1_455 S
C1121 C1122 1.379 . S
C1122 H1106 0.931 . S
C1122 C1116 1.352 1_455 S
C1122 C1121 1.379 . S
H1123 C1117 0.959 . S
H1124 C1117 0.961 . S
H1125 C1117 0.960 . S
H1126 C1118 0.930 . S
H1127 C1119 0.929 . S
C489 C6 0.443 . S
C508 C451 0.399 . S
C525 C59 1.856 . S
C544 C301 1.716 . S
C561 C86 1.152 . S
C580 C361 1.082 . S
C597 C15 0.338 . S
C616 C421 0.502 . S
C652 C331 1.968 . S
C633 C50 1.950 . S
C688 C391 1.279 . S
C669 C95 1.258 . S
C705 C46 1.155 . S
C724 C181 1.132 . S
C741 C99 3.047 . S
C760 C271 3.032 . S
C777 C10 1.983 . S
C796 C151 1.998 . S
C832 C211 1.246 . S
C813 C55 1.243 . S
C868 C241 2.782 . S
C849 C90 2.921 . S
C885 C19 1.848 . S
C904 C121 1.719 . S
C940 C260 1.738 . S
C921 C18 1.696 . S
C957 C49 1.332 . S
C976 C140 1.343 . S
C993 C98 1.452 . S
C1012 C200 1.492 . S
C1048 C380 1.447 1_565 S
C1029 C58 1.440 . S
C1084 C440 1.110 . S
C1065 C89 1.090 . S
C1101 C9 1.336 . S
C1120 C320 1.364 1_655 S
