# Generated by pormake.
# Topology ctn, (3,4)-cn, num edge types: 1
# Building blocks:
#     Node 0, Type 0, BuildingBlock: QEWDON_clean_linker_0, # of connection points: 3
#     Node 1, Type 0, BuildingBlock: QEWDON_clean_linker_0, # of connection points: 3
#     Node 2, Type 0, BuildingBlock: QEWDON_clean_linker_0, # of connection points: 3
#     Node 3, Type 0, BuildingBlock: QEWDON_clean_linker_0, # of connection points: 3
#     Node 4, Type 0, BuildingBlock: QEWDON_clean_linker_0, # of connection points: 3
#     Node 5, Type 0, BuildingBlock: QEWDON_clean_linker_0, # of connection points: 3
#     Node 6, Type 0, BuildingBlock: QEWDON_clean_linker_0, # of connection points: 3
#     Node 7, Type 0, BuildingBlock: QEWDON_clean_linker_0, # of connection points: 3
#     Node 8, Type 0, BuildingBlock: QEWDON_clean_linker_0, # of connection points: 3
#     Node 9, Type 0, BuildingBlock: QEWDON_clean_linker_0, # of connection points: 3
#     Node 10, Type 0, BuildingBlock: QEWDON_clean_linker_0, # of connection points: 3
#     Node 11, Type 0, BuildingBlock: QEWDON_clean_linker_0, # of connection points: 3
#     Node 12, Type 0, BuildingBlock: QEWDON_clean_linker_0, # of connection points: 3
#     Node 13, Type 0, BuildingBlock: QEWDON_clean_linker_0, # of connection points: 3
#     Node 14, Type 0, BuildingBlock: QEWDON_clean_linker_0, # of connection points: 3
#     Node 15, Type 0, BuildingBlock: QEWDON_clean_linker_0, # of connection points: 3
#     Node 16, Type 1, BuildingBlock: AZAVOO_clean_sbu_0, # of connection points: 4
#     Node 17, Type 1, BuildingBlock: AZAVOO_clean_sbu_0, # of connection points: 4
#     Node 18, Type 1, BuildingBlock: AZAVOO_clean_sbu_0, # of connection points: 4
#     Node 19, Type 1, BuildingBlock: AZAVOO_clean_sbu_0, # of connection points: 4
#     Node 20, Type 1, BuildingBlock: AZAVOO_clean_sbu_0, # of connection points: 4
#     Node 21, Type 1, BuildingBlock: AZAVOO_clean_sbu_0, # of connection points: 4
#     Node 22, Type 1, BuildingBlock: AZAVOO_clean_sbu_0, # of connection points: 4
#     Node 23, Type 1, BuildingBlock: AZAVOO_clean_sbu_0, # of connection points: 4
#     Node 24, Type 1, BuildingBlock: AZAVOO_clean_sbu_0, # of connection points: 4
#     Node 25, Type 1, BuildingBlock: AZAVOO_clean_sbu_0, # of connection points: 4
#     Node 26, Type 1, BuildingBlock: AZAVOO_clean_sbu_0, # of connection points: 4
#     Node 27, Type 1, BuildingBlock: AZAVOO_clean_sbu_0, # of connection points: 4
#     Edge 28, Type (0, 1), BuildingBlock: UVAHIK_clean_linker_0, # of connection points: 2
#     Edge 29, Type (0, 1), BuildingBlock: UVAHIK_clean_linker_0, # of connection points: 2
#     Edge 30, Type (0, 1), BuildingBlock: UVAHIK_clean_linker_0, # of connection points: 2
#     Edge 31, Type (0, 1), BuildingBlock: UVAHIK_clean_linker_0, # of connection points: 2
#     Edge 32, Type (0, 1), BuildingBlock: UVAHIK_clean_linker_0, # of connection points: 2
#     Edge 33, Type (0, 1), BuildingBlock: UVAHIK_clean_linker_0, # of connection points: 2
#     Edge 34, Type (0, 1), BuildingBlock: UVAHIK_clean_linker_0, # of connection points: 2
#     Edge 35, Type (0, 1), BuildingBlock: UVAHIK_clean_linker_0, # of connection points: 2
#     Edge 36, Type (0, 1), BuildingBlock: UVAHIK_clean_linker_0, # of connection points: 2
#     Edge 37, Type (0, 1), BuildingBlock: UVAHIK_clean_linker_0, # of connection points: 2
#     Edge 38, Type (0, 1), BuildingBlock: UVAHIK_clean_linker_0, # of connection points: 2
#     Edge 39, Type (0, 1), BuildingBlock: UVAHIK_clean_linker_0, # of connection points: 2
#     Edge 40, Type (0, 1), BuildingBlock: UVAHIK_clean_linker_0, # of connection points: 2
#     Edge 41, Type (0, 1), BuildingBlock: UVAHIK_clean_linker_0, # of connection points: 2
#     Edge 42, Type (0, 1), BuildingBlock: UVAHIK_clean_linker_0, # of connection points: 2
#     Edge 43, Type (0, 1), BuildingBlock: UVAHIK_clean_linker_0, # of connection points: 2
#     Edge 44, Type (0, 1), BuildingBlock: UVAHIK_clean_linker_0, # of connection points: 2
#     Edge 45, Type (0, 1), BuildingBlock: UVAHIK_clean_linker_0, # of connection points: 2
#     Edge 46, Type (0, 1), BuildingBlock: UVAHIK_clean_linker_0, # of connection points: 2
#     Edge 47, Type (0, 1), BuildingBlock: UVAHIK_clean_linker_0, # of connection points: 2
#     Edge 48, Type (0, 1), BuildingBlock: UVAHIK_clean_linker_0, # of connection points: 2
#     Edge 49, Type (0, 1), BuildingBlock: UVAHIK_clean_linker_0, # of connection points: 2
#     Edge 50, Type (0, 1), BuildingBlock: UVAHIK_clean_linker_0, # of connection points: 2
#     Edge 51, Type (0, 1), BuildingBlock: UVAHIK_clean_linker_0, # of connection points: 2
#     Edge 52, Type (0, 1), BuildingBlock: UVAHIK_clean_linker_0, # of connection points: 2
#     Edge 53, Type (0, 1), BuildingBlock: UVAHIK_clean_linker_0, # of connection points: 2
#     Edge 54, Type (0, 1), BuildingBlock: UVAHIK_clean_linker_0, # of connection points: 2
#     Edge 55, Type (0, 1), BuildingBlock: UVAHIK_clean_linker_0, # of connection points: 2
#     Edge 56, Type (0, 1), BuildingBlock: UVAHIK_clean_linker_0, # of connection points: 2
#     Edge 57, Type (0, 1), BuildingBlock: UVAHIK_clean_linker_0, # of connection points: 2
#     Edge 58, Type (0, 1), BuildingBlock: UVAHIK_clean_linker_0, # of connection points: 2
#     Edge 59, Type (0, 1), BuildingBlock: UVAHIK_clean_linker_0, # of connection points: 2
#     Edge 60, Type (0, 1), BuildingBlock: UVAHIK_clean_linker_0, # of connection points: 2
#     Edge 61, Type (0, 1), BuildingBlock: UVAHIK_clean_linker_0, # of connection points: 2
#     Edge 62, Type (0, 1), BuildingBlock: UVAHIK_clean_linker_0, # of connection points: 2
#     Edge 63, Type (0, 1), BuildingBlock: UVAHIK_clean_linker_0, # of connection points: 2
#     Edge 64, Type (0, 1), BuildingBlock: UVAHIK_clean_linker_0, # of connection points: 2
#     Edge 65, Type (0, 1), BuildingBlock: UVAHIK_clean_linker_0, # of connection points: 2
#     Edge 66, Type (0, 1), BuildingBlock: UVAHIK_clean_linker_0, # of connection points: 2
#     Edge 67, Type (0, 1), BuildingBlock: UVAHIK_clean_linker_0, # of connection points: 2
#     Edge 68, Type (0, 1), BuildingBlock: UVAHIK_clean_linker_0, # of connection points: 2
#     Edge 69, Type (0, 1), BuildingBlock: UVAHIK_clean_linker_0, # of connection points: 2
#     Edge 70, Type (0, 1), BuildingBlock: UVAHIK_clean_linker_0, # of connection points: 2
#     Edge 71, Type (0, 1), BuildingBlock: UVAHIK_clean_linker_0, # of connection points: 2
#     Edge 72, Type (0, 1), BuildingBlock: UVAHIK_clean_linker_0, # of connection points: 2
#     Edge 73, Type (0, 1), BuildingBlock: UVAHIK_clean_linker_0, # of connection points: 2
#     Edge 74, Type (0, 1), BuildingBlock: UVAHIK_clean_linker_0, # of connection points: 2
#     Edge 75, Type (0, 1), BuildingBlock: UVAHIK_clean_linker_0, # of connection points: 2
# Relax obj value: 0.112
# Max RMSD: 0.291
# Mean RMSD: 0.159
data_MOF--net-ctn--node1-AZAVOO_clean_sbu_0--node2-QEWDON_clean_linker_0--edge1-UVAHIK_clean_linker_0
_symmetry_space_group_name_H-M    P1
_symmetry_Int_Tables_number       1
_symmetry_cell_setting            triclinic
loop_
_symmetry_equiv_pos_as_xyz
'x, y, z'
_cell_length_a     67.628987
_cell_length_b     71.287336
_cell_length_c     75.703943
_cell_angle_alpha  97.994655
_cell_angle_beta   94.267132
_cell_angle_gamma 98.269307
loop_
_atom_site_label
_atom_site_type_symbol
_atom_site_fract_x
_atom_site_fract_y
_atom_site_fract_z
_atom_type_partial_charge
H0 H 0.0965 0.02676 0.03473 0.0
C1 C 0.08971 0.02529 0.04709 0.0
C2 C 0.09002 0.00849 0.05487 0.0
C3 C 0.08162 0.04075 0.05561 0.0
H4 H 0.08131 0.99444 0.07736 0.0
C5 C 0.08084 0.00702 0.07089 0.0
C6 C 0.07211 0.02228 0.07926 0.0
C7 C 0.07272 0.03912 0.07152 0.0
C8 C 0.08438 0.05935 0.04893 0.0
H9 H 0.06629 0.05111 0.07789 0.0
C10 C 0.07684 0.06099 0.03149 0.0
C11 C 0.08039 0.07868 0.02519 0.0
C12 C 0.09528 0.07554 0.06002 0.0
H13 H 0.10126 0.07452 0.07348 0.0
C14 C 0.09893 0.09306 0.05371 0.0
H15 H 0.06827 0.04859 0.02291 0.0
C16 C 0.09162 0.09463 0.03635 0.0
H17 H 0.09442 0.1084 0.03171 0.0
H18 H 0.10745 0.10544 0.06228 0.0
H19 H 0.33707 0.75579 0.25658 0.0
C20 C 0.32755 0.74256 0.25049 0.0
C21 C 0.33301 0.72488 0.2533 0.0
C22 C 0.30996 0.74326 0.23973 0.0
H23 H 0.32431 0.69424 0.24847 0.0
C24 C 0.32051 0.70784 0.24557 0.0
C25 C 0.30244 0.70831 0.23528 0.0
C26 C 0.29749 0.72612 0.2321 0.0
C27 C 0.30411 0.76194 0.23712 0.0
H28 H 0.28365 0.72671 0.22414 0.0
C29 C 0.30111 0.76661 0.2198 0.0
C30 C 0.29531 0.78433 0.2172 0.0
C31 C 0.30142 0.7751 0.25198 0.0
H32 H 0.30366 0.77173 0.26544 0.0
C33 C 0.29542 0.79256 0.24956 0.0
H34 H 0.30384 0.75657 0.20846 0.0
C35 C 0.29228 0.79714 0.23233 0.0
H36 H 0.28729 0.81066 0.23092 0.0
H37 H 0.29309 0.80255 0.26107 0.0
H38 H 0.02908 0.47993 0.03248 0.0
C39 C 0.01603 0.48716 0.03273 0.0
C40 C 0.00982 0.49457 0.04925 0.0
C41 C 0.00581 0.48948 0.01656 0.0
H42 H 0.98828 0.50996 0.06218 0.0
C43 C 0.993 0.50411 0.04947 0.0
C44 C 0.98265 0.5066 0.03333 0.0
C45 C 0.98918 0.49918 0.01698 0.0
C46 C 0.01288 0.48246 0.99914 0.0
H47 H 0.98154 0.50129 0.00447 0.0
C48 C 0.01633 0.4634 0.99511 0.0
C49 C 0.02231 0.45657 0.97827 0.0
C50 C 0.01581 0.49479 0.98631 0.0
H51 H 0.01339 0.50956 0.98915 0.0
C52 C 0.02202 0.48821 0.96972 0.0
H53 H 0.0141 0.45387 0.00501 0.0
C54 C 0.02518 0.46924 0.96566 0.0
H55 H 0.02946 0.46441 0.95249 0.0
H56 H 0.02421 0.49781 0.9599 0.0
H57 H 0.78272 0.82931 0.24707 0.0
C58 C 0.77879 0.8201 0.23426 0.0
C59 C 0.78535 0.8264 0.21863 0.0
C60 C 0.7678 0.80174 0.23363 0.0
H61 H 0.78618 0.81871 0.19019 0.0
C62 C 0.78073 0.81407 0.20223 0.0
C63 C 0.76975 0.79558 0.20136 0.0
C64 C 0.76312 0.78958 0.21715 0.0
C65 C 0.76244 0.79501 0.25049 0.0
H66 H 0.75485 0.77529 0.21673 0.0
C67 C 0.74226 0.78954 0.2534 0.0
C68 C 0.73733 0.78486 0.27015 0.0
C69 C 0.77765 0.79507 0.26419 0.0
H70 H 0.79328 0.79919 0.26217 0.0
C71 C 0.77282 0.78988 0.28062 0.0
H72 H 0.73045 0.78983 0.24298 0.0
C73 C 0.75279 0.78495 0.28366 0.0
H74 H 0.74934 0.78123 0.29661 0.0
H75 H 0.78462 0.78993 0.2911 0.0
H76 H 0.10902 0.97126 0.4977 0.0
C77 C 0.09662 0.97373 0.48885 0.0
C78 C 0.0966 0.99179 0.48339 0.0
C79 C 0.08121 0.95847 0.48219 0.0
H80 H 0.0809 0.00806 0.46658 0.0
C81 C 0.08057 0.99448 0.47153 0.0
C82 C 0.06505 0.9793 0.46472 0.0
C83 C 0.06549 0.96129 0.47018 0.0
C84 C 0.08342 0.9389 0.48529 0.0
H85 H 0.05396 0.94928 0.46468 0.0
C86 C 0.07802 0.93204 0.5011 0.0
C87 C 0.08124 0.91356 0.50395 0.0
C88 C 0.0917 0.92716 0.47231 0.0
H89 H 0.09593 0.93228 0.46008 0.0
C90 C 0.09483 0.90886 0.47508 0.0
H91 H 0.07164 0.94109 0.51117 0.0
C92 C 0.08973 0.9021 0.49082 0.0
H93 H 0.0922 0.88779 0.49267 0.0
H94 H 0.10128 0.89989 0.46503 0.0
H95 H 0.25645 0.67015 0.75954 0.0
C96 C 0.25308 0.67826 0.77186 0.0
C97 C 0.26323 0.67614 0.78812 0.0
C98 C 0.23877 0.69071 0.77131 0.0
H99 H 0.26701 0.68517 0.81658 0.0
C100 C 0.25861 0.68628 0.80411 0.0
C101 C 0.24417 0.6987 0.804 0.0
C102 C 0.23426 0.70076 0.7875 0.0
C103 C 0.22941 0.69375 0.7537 0.0
H104 H 0.22334 0.71047 0.78721 0.0
C105 C 0.20887 0.6954 0.75109 0.0
C106 C 0.20022 0.69729 0.73405 0.0
C107 C 0.24117 0.69474 0.73916 0.0
H108 H 0.25709 0.69409 0.74078 0.0
C109 C 0.23261 0.69673 0.72234 0.0
H110 H 0.19951 0.69464 0.76206 0.0
C111 C 0.21225 0.69785 0.71973 0.0
H112 H 0.2059 0.69945 0.70655 0.0
H113 H 0.24181 0.69741 0.71127 0.0
H114 H 0.96186 0.55072 0.44149 0.0
C115 C 0.95292 0.5385 0.44565 0.0
C116 C 0.95035 0.53833 0.46391 0.0
C117 C 0.94322 0.52334 0.43267 0.0
H118 H 0.93584 0.52263 0.48304 0.0
C119 C 0.93839 0.52257 0.46905 0.0
C120 C 0.92829 0.50751 0.45614 0.0
C121 C 0.93079 0.50801 0.43796 0.0
C122 C 0.94413 0.5244 0.4134 0.0
H123 H 0.92285 0.49658 0.42786 0.0
C124 C 0.96144 0.52132 0.40486 0.0
C125 C 0.96157 0.52138 0.38623 0.0
C126 C 0.92714 0.52789 0.40337 0.0
H127 H 0.9137 0.53025 0.40975 0.0
C128 C 0.92735 0.52841 0.38505 0.0
H129 H 0.97442 0.51827 0.41259 0.0
C130 C 0.94439 0.52516 0.37651 0.0
H131 H 0.94414 0.5257 0.36227 0.0
H132 H 0.91422 0.53125 0.37741 0.0
H133 H 0.83447 0.81099 0.79101 0.0
C134 C 0.83326 0.80033 0.79995 0.0
C135 C 0.8409 0.78307 0.7956 0.0
C136 C 0.82464 0.80418 0.81611 0.0
H137 H 0.84549 0.75628 0.80442 0.0
C138 C 0.83927 0.76942 0.80744 0.0
C139 C 0.83078 0.77318 0.8237 0.0
C140 C 0.8235 0.79058 0.82787 0.0
C141 C 0.81809 0.82292 0.82157 0.0
H142 H 0.81687 0.79358 0.84037 0.0
C143 C 0.80341 0.82959 0.81092 0.0
C144 C 0.79641 0.84685 0.81704 0.0
C145 C 0.82613 0.83387 0.83807 0.0
H146 H 0.8375 0.82904 0.84643 0.0
C147 C 0.81964 0.85115 0.84394 0.0
H148 H 0.79693 0.82104 0.7983 0.0
C149 C 0.80485 0.85758 0.83357 0.0
H150 H 0.8001 0.87108 0.83846 0.0
H151 H 0.826 0.85954 0.85664 0.0
H152 H 0.33865 0.31276 0.29102 0.0
C153 C 0.33703 0.30194 0.29978 0.0
C154 C 0.34442 0.28457 0.29531 0.0
C155 C 0.3282 0.3057 0.31584 0.0
H156 H 0.34838 0.2575 0.3038 0.0
C157 C 0.34233 0.27072 0.30691 0.0
C158 C 0.33363 0.27438 0.32308 0.0
C159 C 0.32658 0.29188 0.32737 0.0
C160 C 0.32209 0.32462 0.32142 0.0
H161 H 0.3198 0.29481 0.3398 0.0
C162 C 0.30865 0.33223 0.31029 0.0
C163 C 0.30303 0.35024 0.31594 0.0
C164 C 0.32981 0.33515 0.33821 0.0
H165 H 0.34023 0.32961 0.34696 0.0
C166 C 0.32438 0.35301 0.34378 0.0
H167 H 0.30258 0.32417 0.29734 0.0
C168 C 0.31111 0.36054 0.33275 0.0
H169 H 0.30691 0.37434 0.33749 0.0
H170 H 0.33044 0.36103 0.35672 0.0
H171 H 0.53263 0.98559 0.5344 0.0
C172 C 0.51929 0.99237 0.53433 0.0
C173 C 0.51154 0.99847 0.55057 0.0
C174 C 0.51052 0.99575 0.51792 0.0
H175 H 0.48815 0.01238 0.56229 0.0
C176 C 0.49461 0.00793 0.55002 0.0
C177 C 0.48572 0.01147 0.53364 0.0
C178 C 0.49383 0.00532 0.5177 0.0
C179 C 0.51897 0.98962 0.50093 0.0
H180 H 0.48726 0.00817 0.50503 0.0
C181 C 0.52236 0.9706 0.49643 0.0
C182 C 0.52935 0.96446 0.47984 0.0
C183 C 0.52308 0.00264 0.48887 0.0
H184 H 0.52069 0.01739 0.49209 0.0
C185 C 0.53038 0.99678 0.47259 0.0
H186 H 0.51923 0.96056 0.50575 0.0
C187 C 0.5334 0.97782 0.46802 0.0
H188 H 0.53848 0.97356 0.45505 0.0
H189 H 0.53345 0.0069 0.46336 0.0
H190 H 0.28494 0.32122 0.75035 0.0
C191 C 0.28116 0.31421 0.73661 0.0
C192 C 0.28755 0.32365 0.72252 0.0
C193 C 0.27018 0.29565 0.73312 0.0
H194 H 0.28828 0.32151 0.69398 0.0
C195 C 0.28296 0.3143 0.70482 0.0
C196 C 0.2727 0.29533 0.70112 0.0
C197 C 0.26589 0.28626 0.7154 0.0
C198 C 0.2648 0.28562 0.74825 0.0
H199 H 0.25834 0.27154 0.71292 0.0
C200 C 0.24474 0.28192 0.7521 0.0
C201 C 0.24003 0.27412 0.76763 0.0
C202 C 0.28006 0.28089 0.75963 0.0
H203 H 0.29561 0.28372 0.75686 0.0
C204 C 0.27537 0.27262 0.77475 0.0
H205 H 0.23299 0.28595 0.74352 0.0
C206 C 0.2555 0.26939 0.77883 0.0
H207 H 0.2522 0.26325 0.7908 0.0
H208 H 0.28719 0.26899 0.78347 0.0
H209 H 0.84067 0.25677 0.75431 0.0
C210 C 0.82996 0.24393 0.74942 0.0
C211 C 0.83428 0.22602 0.75284 0.0
C212 C 0.81196 0.24547 0.73964 0.0
H213 H 0.82316 0.19574 0.7494 0.0
C214 C 0.82035 0.20952 0.74618 0.0
C215 C 0.8022 0.21078 0.73638 0.0
C216 C 0.79816 0.22884 0.73304 0.0
C217 C 0.8075 0.26466 0.73701 0.0
H218 H 0.78414 0.23002 0.72566 0.0
C219 C 0.80301 0.26893 0.71972 0.0
C220 C 0.80043 0.28767 0.71726 0.0
C221 C 0.80875 0.27912 0.75188 0.0
H222 H 0.81213 0.27611 0.76532 0.0
C223 C 0.8057 0.29758 0.74952 0.0
H224 H 0.80244 0.25791 0.7082 0.0
C225 C 0.80169 0.3019 0.73233 0.0
H226 H 0.79952 0.31638 0.73081 0.0
H227 H 0.80665 0.30863 0.76105 0.0
H228 H 0.60051 0.52947 0.53573 0.0
C229 C 0.59154 0.5275 0.54682 0.0
C230 C 0.58819 0.50954 0.55264 0.0
C231 C 0.58389 0.54309 0.55563 0.0
H232 H 0.57475 0.49351 0.57207 0.0
C233 C 0.57682 0.50722 0.56726 0.0
C234 C 0.56931 0.52289 0.57636 0.0
C235 C 0.57278 0.5407 0.57024 0.0
C236 C 0.58845 0.56233 0.55049 0.0
H237 H 0.56686 0.55288 0.57689 0.0
C238 C 0.58049 0.56621 0.53394 0.0
C239 C 0.5832 0.58509 0.53007 0.0
C240 C 0.59972 0.57725 0.56284 0.0
H241 H 0.6059 0.57448 0.57568 0.0
C242 C 0.60294 0.59587 0.55879 0.0
H243 H 0.57143 0.55479 0.52454 0.0
C244 C 0.59462 0.59983 0.54257 0.0
H245 H 0.59703 0.61445 0.53979 0.0
H246 H 0.61166 0.60731 0.56836 0.0
H247 H 0.60494 0.47285 0.99812 0.0
C248 C 0.59345 0.47634 0.98891 0.0
C249 C 0.59517 0.49479 0.98399 0.0
C250 C 0.57758 0.46198 0.98114 0.0
H251 H 0.58204 0.51271 0.96713 0.0
C252 C 0.58036 0.49883 0.97162 0.0
C253 C 0.56433 0.48461 0.96378 0.0
C254 C 0.56306 0.46621 0.96871 0.0
C255 C 0.57787 0.44187 0.98372 0.0
H256 H 0.55104 0.45495 0.96252 0.0
C257 C 0.57527 0.43582 1.00045 0.0
C258 C 0.57624 0.41662 0.00248 0.0
C259 C 0.58123 0.42863 0.96913 0.0
H260 H 0.58328 0.43306 0.95618 0.0
C261 C 0.58232 0.40967 0.97118 0.0
H262 H 0.57256 0.44593 0.01175 0.0
C263 C 0.57992 0.40369 0.98776 0.0
H264 H 0.58065 0.38885 0.98905 0.0
H265 H 0.58502 0.39958 0.95989 0.0
H266 H 0.7593 0.16847 0.26182 0.0
C267 C 0.75591 0.17672 0.27406 0.0
C268 C 0.76604 0.17477 0.29038 0.0
C269 C 0.74161 0.18917 0.27335 0.0
H270 H 0.76981 0.18409 0.31879 0.0
C271 C 0.7614 0.18507 0.30629 0.0
C272 C 0.74694 0.19745 0.30603 0.0
C273 C 0.73706 0.19935 0.28946 0.0
C274 C 0.73231 0.19208 0.25565 0.0
H275 H 0.72614 0.20904 0.28906 0.0
C276 C 0.71188 0.19416 0.25305 0.0
C277 C 0.7033 0.19607 0.23599 0.0
C278 C 0.74403 0.19263 0.24105 0.0
H279 H 0.75989 0.19169 0.24265 0.0
C280 C 0.73554 0.19457 0.2242 0.0
H281 H 0.70253 0.19376 0.26405 0.0
C282 C 0.71528 0.19614 0.22162 0.0
H283 H 0.70901 0.19775 0.20842 0.0
H284 H 0.74471 0.19491 0.21309 0.0
H285 H 0.46601 0.0514 0.95077 0.0
C286 C 0.4582 0.03804 0.95384 0.0
C287 C 0.45526 0.03585 0.97171 0.0
C288 C 0.45006 0.02347 0.93968 0.0
H289 H 0.44183 0.01664 0.98879 0.0
C290 C 0.4443 0.0186 0.97514 0.0
C291 C 0.43556 0.00418 0.96102 0.0
C292 C 0.43861 0.00668 0.9433 0.0
C293 C 0.45138 0.02681 0.92099 0.0
H294 H 0.43167 0.99578 0.93229 0.0
C295 C 0.46671 0.02073 0.91108 0.0
C296 C 0.46758 0.02389 0.89314 0.0
C297 C 0.43698 0.03612 0.913 0.0
H298 H 0.4251 0.04088 0.92049 0.0
C299 C 0.43778 0.03932 0.8953 0.0
H300 H 0.47773 0.01342 0.91727 0.0
C301 C 0.45294 0.03328 0.88542 0.0
H302 H 0.45336 0.03623 0.87179 0.0
H303 H 0.42665 0.04657 0.88923 0.0
Mg304 Mg 0.2413 0.84011 0.01135 0.0
O305 O 0.27152 0.85792 0.00784 0.0
O306 O 0.29555 0.83999 0.01181 0.0
Mg307 Mg 0.28078 0.81066 0.01746 0.0
C308 C 0.28993 0.8556 0.00846 0.0
C309 C 0.22782 0.87902 0.01183 0.0
O310 O 0.24319 0.8821 0.0241 0.0
O311 O 0.24137 0.82331 0.98319 0.0
O312 O 0.26421 0.80462 0.98913 0.0
O313 O 0.24546 0.84925 0.04109 0.0
O314 O 0.25554 0.82345 0.02743 0.0
C315 C 0.2512 0.80972 0.97837 0.0
C316 C 0.25443 0.83456 0.04211 0.0
O317 O 0.22385 0.86272 0.00196 0.0
Mg318 Mg 0.15606 0.50473 0.2511 0.0
O319 O 0.13689 0.49684 0.22374 0.0
O320 O 0.15847 0.49395 0.20286 0.0
Mg321 Mg 0.19062 0.5017 0.21607 0.0
C322 C 0.1406 0.49319 0.20741 0.0
C323 C 0.13032 0.50606 0.28252 0.0
O324 O 0.14753 0.51666 0.28904 0.0
O325 O 0.1642 0.47435 0.25004 0.0
O326 O 0.18653 0.4748 0.22969 0.0
O327 O 0.1575 0.53591 0.2491 0.0
O328 O 0.17971 0.51832 0.23898 0.0
C329 C 0.17694 0.46647 0.24108 0.0
C330 C 0.17345 0.53463 0.24083 0.0
O331 O 0.12851 0.49788 0.2663 0.0
Mg332 Mg 0.81257 0.66382 0.01121 0.0
O333 O 0.78186 0.644 0.007 0.0
O334 O 0.75847 0.66311 0.00585 0.0
Mg335 Mg 0.77353 0.69425 0.00848 0.0
C336 C 0.76347 0.64647 0.00556 0.0
C337 C 0.84568 0.64098 0.01651 0.0
O338 O 0.85066 0.65749 0.02714 0.0
O339 O 0.8104 0.6683 0.98174 0.0
O340 O 0.78721 0.68772 0.98174 0.0
O341 O 0.81092 0.6672 0.04071 0.0
O342 O 0.79942 0.68652 0.02343 0.0
C343 C 0.79971 0.67855 0.97372 0.0
C344 C 0.80151 0.68153 0.0391 0.0
O345 O 0.82942 0.63828 0.00626 0.0
Mg346 Mg 0.95667 0.03659 0.27022 0.0
O347 O 0.93576 0.00815 0.25966 0.0
O348 O 0.95515 0.98613 0.25153 0.0
Mg349 Mg 0.98798 0.99971 0.25812 0.0
C350 C 0.93789 0.99111 0.25311 0.0
C351 C 0.92932 0.06662 0.27527 0.0
O352 O 0.94349 0.07364 0.26596 0.0
O353 O 0.96361 0.02577 0.29674 0.0
O354 O 0.98293 0.00388 0.28807 0.0
O355 O 0.95766 0.04322 0.24229 0.0
O356 O 0.97924 0.02759 0.25506 0.0
C357 C 0.97427 0.01306 0.30018 0.0
C358 C 0.97268 0.0339 0.24097 0.0
O359 O 0.93015 0.05037 0.28019 0.0
Mg360 Mg 0.31137 0.16435 0.5095 0.0
O361 O 0.28062 0.14455 0.50469 0.0
O362 O 0.25741 0.16378 0.50294 0.0
Mg363 Mg 0.27254 0.19489 0.50575 0.0
C364 C 0.26228 0.14711 0.50282 0.0
C365 C 0.34409 0.14145 0.51606 0.0
O366 O 0.34837 0.15773 0.52711 0.0
O367 O 0.30999 0.16869 0.48 0.0
O368 O 0.28687 0.18815 0.4794 0.0
O369 O 0.30892 0.16789 0.53892 0.0
O370 O 0.29797 0.18709 0.52123 0.0
C371 C 0.29952 0.17891 0.4717 0.0
C372 C 0.29964 0.18224 0.53698 0.0
O373 O 0.32841 0.13885 0.50508 0.0
Mg374 Mg 0.45409 0.53836 0.76671 0.0
O375 O 0.43462 0.50858 0.75872 0.0
O376 O 0.45582 0.48763 0.75273 0.0
Mg377 Mg 0.48796 0.50336 0.75629 0.0
C378 C 0.43809 0.49149 0.75413 0.0
C379 C 0.42605 0.56754 0.77147 0.0
O380 O 0.43987 0.57437 0.76173 0.0
O381 O 0.46344 0.5304 0.79415 0.0
O382 O 0.48439 0.50976 0.78635 0.0
O383 O 0.45284 0.54263 0.73801 0.0
O384 O 0.47635 0.52943 0.75117 0.0
C385 C 0.4755 0.51905 0.79819 0.0
C386 C 0.46845 0.53413 0.73674 0.0
O387 O 0.42731 0.55156 0.77682 0.0
Mg388 Mg 0.7385 0.34006 0.51152 0.0
O389 O 0.76714 0.36057 0.5081 0.0
O390 O 0.79294 0.34476 0.51248 0.0
Mg391 Mg 0.78125 0.31478 0.51847 0.0
C392 C 0.78593 0.35968 0.50895 0.0
C393 C 0.70255 0.3588 0.51034 0.0
O394 O 0.70058 0.346 0.52127 0.0
O395 O 0.7402 0.32343 0.48363 0.0
O396 O 0.76492 0.30695 0.49005 0.0
O397 O 0.74149 0.34973 0.5411 0.0
O398 O 0.75482 0.32553 0.52824 0.0
C399 C 0.75129 0.31081 0.4791 0.0
C400 C 0.75227 0.33638 0.54269 0.0
O401 O 0.71797 0.36003 0.50165 0.0
Mg402 Mg 0.65569 0.00662 0.75251 0.0
O403 O 0.63699 0.99903 0.72494 0.0
O404 O 0.65892 0.99677 0.70431 0.0
Mg405 Mg 0.69089 0.00466 0.71802 0.0
C406 C 0.64096 0.99574 0.70865 0.0
C407 C 0.63046 0.00298 0.78419 0.0
O408 O 0.64855 0.01021 0.79183 0.0
O409 O 0.66418 0.97639 0.75106 0.0
O410 O 0.68699 0.97735 0.73115 0.0
O411 O 0.65669 0.03784 0.75105 0.0
O412 O 0.67938 0.02084 0.74089 0.0
C413 C 0.6772 0.96876 0.74228 0.0
C414 C 0.67279 0.03701 0.74292 0.0
O415 O 0.62794 0.99887 0.76719 0.0
Mg416 Mg 0.05059 0.22488 0.89098 0.0
O417 O 0.01989 0.21884 0.87429 0.0
O418 O 0.99685 0.21131 0.89294 0.0
Mg419 Mg 0.01241 0.21219 0.92095 0.0
C420 C 0.00166 0.21409 0.8774 0.0
C421 C 0.06443 0.23016 0.85293 0.0
O422 O 0.05254 0.21364 0.84833 0.0
O423 O 0.04321 0.25352 0.90374 0.0
O424 O 0.02111 0.245 0.92284 0.0
O425 O 0.05461 0.19413 0.88561 0.0
O426 O 0.03958 0.2067 0.90831 0.0
C427 C 0.03185 0.25784 0.91593 0.0
C428 C 0.04492 0.19178 0.89946 0.0
O429 O 0.06588 0.23849 0.86906 0.0
Mg430 Mg 0.5497 0.72987 0.39212 0.0
O431 O 0.51832 0.72411 0.37666 0.0
O432 O 0.49621 0.71956 0.39681 0.0
Mg433 Mg 0.51309 0.72052 0.42429 0.0
C434 C 0.50029 0.72096 0.38079 0.0
C435 C 0.56327 0.73167 0.35339 0.0
O436 O 0.55304 0.71424 0.35038 0.0
O437 O 0.54414 0.7596 0.40426 0.0
O438 O 0.52314 0.75284 0.42477 0.0
O439 O 0.55208 0.69859 0.38796 0.0
O440 O 0.53944 0.7134 0.41104 0.0
C441 C 0.53376 0.7649 0.41694 0.0
C442 C 0.54364 0.69768 0.40269 0.0
O443 O 0.56385 0.74165 0.36876 0.0
Mg444 Mg 0.9859 0.73705 0.61791 0.0
O445 O 0.0134 0.73198 0.63575 0.0
O446 O 0.03716 0.72658 0.61746 0.0
Mg447 Mg 0.02524 0.72685 0.58859 0.0
C448 C 0.03109 0.72858 0.63308 0.0
C449 C 0.95457 0.7389 0.64532 0.0
O450 O 0.94727 0.72349 0.6338 0.0
O451 O 0.00184 0.76707 0.61467 0.0
O452 O 0.02461 0.75895 0.59617 0.0
O453 O 0.97401 0.7055 0.61275 0.0
O454 O 0.99449 0.7199 0.59579 0.0
C455 C 0.01629 0.77155 0.60529 0.0
C456 C 0.98446 0.70425 0.59912 0.0
O457 O 0.97117 0.74861 0.64278 0.0
Mg458 Mg 0.49166 0.24017 0.11921 0.0
O459 O 0.51903 0.23545 0.1374 0.0
O460 O 0.54297 0.22973 0.1194 0.0
Mg461 Mg 0.53129 0.22961 0.09039 0.0
C462 C 0.53674 0.23198 0.13495 0.0
C463 C 0.45965 0.24255 0.14571 0.0
O464 O 0.45223 0.22756 0.13372 0.0
O465 O 0.50751 0.2701 0.11563 0.0
O466 O 0.53048 0.26176 0.09746 0.0
O467 O 0.48003 0.2086 0.11461 0.0
O468 O 0.50046 0.22272 0.09742 0.0
C469 C 0.52204 0.27446 0.1063 0.0
C470 C 0.49059 0.20714 0.10107 0.0
O471 O 0.47666 0.25193 0.1438 0.0
C472 C 0.23824 0.72968 0.82185 0.0
C473 C 0.24054 0.71026 0.82108 0.0
C474 C 0.23705 0.741 0.83829 0.0
C475 C 0.25523 0.74477 0.88503 0.0
H476 H 0.21538 0.77768 0.8958 0.0
C477 C 0.2517 0.78016 0.95675 0.0
C478 C 0.24748 0.79899 0.95993 0.0
C479 C 0.24935 0.76998 0.93946 0.0
C480 C 0.22679 0.76878 0.89293 0.0
H481 H 0.242 0.68728 0.83695 0.0
H482 H 0.2405 0.70716 0.86558 0.0
H483 H 0.21353 0.75864 0.86596 0.0
H484 H 0.23696 0.82177 0.94747 0.0
H485 H 0.23347 0.80411 0.9169 0.0
H486 H 0.26894 0.75508 0.91153 0.0
C487 C 0.23978 0.71362 0.85346 0.0
C488 C 0.22565 0.75784 0.87588 0.0
C489 C 0.24072 0.70227 0.83706 0.0
C490 C 0.24034 0.80728 0.9454 0.0
C491 C 0.23827 0.79712 0.92792 0.0
C492 C 0.25654 0.75585 0.90188 0.0
C493 C 0.23835 0.73317 0.85428 0.0
C494 C 0.23968 0.74548 0.87193 0.0
C495 C 0.24308 0.77843 0.92473 0.0
C496 C 0.24213 0.76771 0.90623 0.0
H497 H 0.23825 0.73638 0.80986 0.0
H498 H 0.23604 0.75607 0.8386 0.0
H499 H 0.2665 0.73569 0.8822 0.0
H500 H 0.25685 0.7732 0.96769 0.0
H501 H 0.25256 0.75542 0.93767 0.0
C502 C 0.99892 0.52537 0.38392 0.0
C503 C 0.97931 0.51726 0.37668 0.0
C504 C 0.01536 0.52242 0.37422 0.0
C505 C 0.02778 0.50977 0.32771 0.0
H506 H 0.07872 0.50236 0.35052 0.0
C507 C 0.09413 0.49486 0.28662 0.0
C508 C 0.11317 0.50481 0.29368 0.0
C509 C 0.07781 0.49479 0.29701 0.0
C510 C 0.06464 0.50456 0.34396 0.0
H511 H 0.96175 0.49882 0.35401 0.0
H512 H 0.99029 0.49366 0.33719 0.0
H513 H 0.05041 0.50537 0.36837 0.0
H514 H 0.13004 0.52213 0.31735 0.0
H515 H 0.10168 0.52215 0.33527 0.0
H516 H 0.042 0.50921 0.30337 0.0
C517 C 0.99298 0.50268 0.35015 0.0
C518 C 0.04841 0.5063 0.35421 0.0
C519 C 0.9766 0.50563 0.35981 0.0
C520 C 0.1156 0.5143 0.31146 0.0
C521 C 0.09933 0.51422 0.32182 0.0
C522 C 0.04399 0.50805 0.31748 0.0
C523 C 0.01255 0.51126 0.35709 0.0
C524 C 0.02979 0.509 0.34622 0.0
C525 C 0.08017 0.50463 0.31469 0.0
C526 C 0.06266 0.50552 0.32547 0.0
H527 H 0.00151 0.53449 0.39682 0.0
H528 H 0.03021 0.52937 0.37991 0.0
H529 H 0.01377 0.51216 0.32116 0.0
H530 H 0.09174 0.48736 0.273 0.0
H531 H 0.06332 0.48704 0.29116 0.0
C532 C 0.8364 0.76612 0.85501 0.0
C533 C 0.83019 0.75946 0.83681 0.0
C534 C 0.83486 0.75361 0.86766 0.0
C535 C 0.83862 0.72241 0.89068 0.0
H536 H 0.78717 0.69016 0.88997 0.0
C537 C 0.82085 0.67839 0.9477 0.0
C538 C 0.80284 0.68141 0.95501 0.0
C539 C 0.8249 0.68398 0.93113 0.0
C540 C 0.80167 0.69899 0.89029 0.0
H541 H 0.81793 0.73435 0.81752 0.0
H542 H 0.81506 0.71235 0.83975 0.0
H543 H 0.79389 0.708 0.86517 0.0
H544 H 0.77444 0.69148 0.95008 0.0
H545 H 0.78144 0.70104 0.9213 0.0
H546 H 0.84612 0.71405 0.91612 0.0
C547 C 0.8211 0.72732 0.84418 0.0
C548 C 0.80558 0.70908 0.87601 0.0
C549 C 0.82285 0.73986 0.83146 0.0
C550 C 0.78852 0.68905 0.9449 0.0
C551 C 0.79247 0.69442 0.92831 0.0
C552 C 0.83478 0.71222 0.90488 0.0
C553 C 0.82696 0.73411 0.86245 0.0
C554 C 0.8239 0.72132 0.87629 0.0
C555 C 0.81092 0.69244 0.92144 0.0
C556 C 0.81605 0.70079 0.90509 0.0
H557 H 0.84232 0.78112 0.85951 0.0
H558 H 0.8393 0.75935 0.88163 0.0
H559 H 0.85297 0.73156 0.89118 0.0
H560 H 0.83221 0.67256 0.95514 0.0
H561 H 0.83918 0.68211 0.9261 0.0
C562 C 0.04485 0.96802 0.43502 0.0
C563 C 0.04975 0.98185 0.45045 0.0
C564 C 0.03222 0.97129 0.42068 0.0
C565 C 0.01554 0.01108 0.40034 0.0
H566 H 0.98062 0.96967 0.36936 0.0
C567 C 0.97447 0.02232 0.33355 0.0
C568 C 0.97743 0.00903 0.31879 0.0
C569 C 0.97942 0.01909 0.35107 0.0
C570 C 0.99028 0.98139 0.37791 0.0
H571 H 0.04444 0.00956 0.46328 0.0
H572 H 0.0222 0.01523 0.43828 0.0
H573 H 0.99617 0.96378 0.39779 0.0
H574 H 0.98696 0.98153 0.31091 0.0
H575 H 0.9954 0.97591 0.34129 0.0
H576 H 0.00996 0.02856 0.38024 0.0
C577 C 0.02842 0.00199 0.43714 0.0
C578 C 0.99924 0.97802 0.39417 0.0
C579 C 0.04112 0.99873 0.45148 0.0
C580 C 0.98461 0.99212 0.32195 0.0
C581 C 0.9893 0.98881 0.33939 0.0
C582 C 0.00648 0.01448 0.38411 0.0
C583 C 0.02412 0.98846 0.42142 0.0
C584 C 0.01243 0.99268 0.40536 0.0
C585 C 0.9871 0.00239 0.35415 0.0
C586 C 0.99419 0.99954 0.3725 0.0
H587 H 0.0515 0.95501 0.43366 0.0
H588 H 0.02955 0.96069 0.4087 0.0
H589 H 0.02578 0.02266 0.40849 0.0
H590 H 0.96898 0.03548 0.33157 0.0
H591 H 0.97746 0.02975 0.3622 0.0
C592 C 0.28748 0.28659 0.67229 0.0
C593 C 0.27113 0.28444 0.68268 0.0
C594 C 0.28673 0.27578 0.65537 0.0
C595 C 0.26291 0.23047 0.62847 0.0
H596 H 0.28704 0.25333 0.59004 0.0
C597 C 0.29279 0.18666 0.5692 0.0
C598 C 0.2913 0.19262 0.55229 0.0
C599 C 0.28651 0.19736 0.58405 0.0
C600 C 0.27995 0.24672 0.60049 0.0
H601 H 0.24103 0.26928 0.68323 0.0
H602 H 0.23982 0.25015 0.65355 0.0
H603 H 0.28284 0.27365 0.61768 0.0
H604 H 0.28138 0.21415 0.53759 0.0
H605 H 0.27018 0.23269 0.56345 0.0
H606 H 0.26024 0.20348 0.6113 0.0
C607 C 0.25322 0.26027 0.65865 0.0
C608 C 0.27775 0.25836 0.61642 0.0
C609 C 0.25393 0.2712 0.67563 0.0
C610 C 0.28274 0.20915 0.55042 0.0
C611 C 0.27645 0.21986 0.56528 0.0
C612 C 0.26515 0.21879 0.61251 0.0
C613 C 0.26966 0.26242 0.64837 0.0
C614 C 0.26963 0.25033 0.63073 0.0
C615 C 0.2786 0.21428 0.58233 0.0
C616 C 0.27407 0.22675 0.59848 0.0
H617 H 0.3012 0.29622 0.67745 0.0
H618 H 0.29982 0.27748 0.64798 0.0
H619 H 0.25668 0.22384 0.63928 0.0
H620 H 0.29931 0.17398 0.5711 0.0
H621 H 0.28861 0.19277 0.59702 0.0
C622 C 0.56235 0.53628 0.60726 0.0
C623 C 0.55864 0.52124 0.59272 0.0
C624 C 0.55145 0.53569 0.62215 0.0
C625 C 0.52159 0.50425 0.64772 0.0
H626 H 0.50022 0.55053 0.66447 0.0
C627 C 0.49388 0.52088 0.71805 0.0
C628 C 0.4766 0.52968 0.71927 0.0
C629 C 0.50219 0.51772 0.70173 0.0
C630 C 0.50589 0.53743 0.65987 0.0
H631 H 0.54108 0.49332 0.58283 0.0
H632 H 0.52219 0.49213 0.60921 0.0
H633 H 0.51822 0.54895 0.63772 0.0
H634 H 0.45423 0.54163 0.70415 0.0
H635 H 0.46884 0.53624 0.67572 0.0
H636 H 0.50947 0.49288 0.67014 0.0
C637 C 0.53349 0.50446 0.60887 0.0
C638 C 0.51636 0.53659 0.64465 0.0
C639 C 0.54433 0.50513 0.59382 0.0
C640 C 0.46759 0.53488 0.70371 0.0
C641 C 0.47598 0.53184 0.68742 0.0
C642 C 0.51126 0.50517 0.66311 0.0
C643 C 0.5367 0.51993 0.62301 0.0
C644 C 0.52452 0.5201 0.63853 0.0
C645 C 0.49351 0.52345 0.6863 0.0
C646 C 0.50343 0.52183 0.66942 0.0
H647 H 0.57367 0.54866 0.60714 0.0
H648 H 0.55457 0.54762 0.63303 0.0
H649 H 0.52777 0.49139 0.64332 0.0
H650 H 0.5013 0.51683 0.72978 0.0
H651 H 0.51584 0.51143 0.70133 0.0
C652 C 0.78283 0.281 0.68615 0.0
C653 C 0.79707 0.29264 0.69902 0.0
C654 C 0.77939 0.28606 0.66912 0.0
C655 C 0.78202 0.29443 0.63112 0.0
H656 H 0.78352 0.34816 0.62677 0.0
C657 C 0.77259 0.31889 0.56203 0.0
C658 C 0.76061 0.33323 0.56048 0.0
C659 C 0.7788 0.31469 0.57886 0.0
C660 C 0.7829 0.33307 0.62774 0.0
H661 H 0.81939 0.3183 0.70399 0.0
H662 H 0.81379 0.32691 0.6742 0.0
H663 H 0.78995 0.33894 0.65614 0.0
H664 H 0.74609 0.3547 0.57544 0.0
H665 H 0.75645 0.34709 0.60472 0.0
H666 H 0.77406 0.28849 0.60284 0.0
C667 C 0.8048 0.31418 0.67736 0.0
C668 C 0.78687 0.32779 0.64458 0.0
C669 C 0.80807 0.30923 0.69442 0.0
C670 C 0.7554 0.34362 0.57616 0.0
C671 C 0.76145 0.33931 0.59299 0.0
C672 C 0.77789 0.2997 0.6143 0.0
C673 C 0.7903 0.30276 0.66452 0.0
C674 C 0.78642 0.30839 0.64651 0.0
C675 C 0.77299 0.32459 0.59455 0.0
C676 C 0.7782 0.31909 0.61239 0.0
H677 H 0.77403 0.26822 0.6894 0.0
H678 H 0.76789 0.27707 0.65969 0.0
H679 H 0.78181 0.27938 0.63204 0.0
H680 H 0.77686 0.31058 0.55025 0.0
H681 H 0.788 0.30352 0.57956 0.0
C682 C 0.53094 0.97925 0.56923 0.0
C683 C 0.52164 0.99555 0.56802 0.0
C684 C 0.54189 0.97731 0.58511 0.0
C685 C 0.54907 0.99175 0.63353 0.0
H686 H 0.60468 0.98604 0.62907 0.0
C687 C 0.60766 0.0014 0.69539 0.0
C688 C 0.62446 0.99198 0.69404 0.0
C689 C 0.59358 1.00003 0.68054 0.0
C690 C 0.5891 0.98716 0.63065 0.0
H691 H 0.51623 0.02231 0.58304 0.0
H692 H 0.53466 0.01841 0.61091 0.0
H693 H 0.58255 0.98654 0.60243 0.0
H694 H 0.63903 0.9727 0.67659 0.0
H695 H 0.61397 0.96925 0.65112 0.0
H696 H 0.55533 0.99187 0.66167 0.0
C697 C 0.53352 0.00727 0.59942 0.0
C698 C 0.57646 0.98759 0.61531 0.0
C699 C 0.52288 0.00942 0.58343 0.0
C700 C 0.62632 0.98029 0.67793 0.0
C701 C 0.61202 0.97852 0.66325 0.0
C702 C 0.56161 0.99091 0.6489 0.0
C703 C 0.54345 0.99139 0.60028 0.0
C704 C 0.55639 0.99006 0.61661 0.0
C705 C 0.59576 0.98885 0.66411 0.0
C706 C 0.5819 0.98876 0.64772 0.0
H707 H 0.52994 0.968 0.55787 0.0
H708 H 0.54925 0.96483 0.58551 0.0
H709 H 0.53358 0.99356 0.63485 0.0
H710 H 0.60595 0.01065 0.70763 0.0
H711 H 0.58148 0.00841 0.68181 0.0
C712 C 0.8592 0.23823 0.77965 0.0
C713 C 0.85276 0.22467 0.76423 0.0
C714 C 0.876 0.23657 0.79085 0.0
C715 C 0.92147 0.21328 0.79314 0.0
H716 H 0.91751 0.22374 0.84429 0.0
C717 C 0.96555 0.20521 0.86534 0.0
C718 C 0.98537 0.21267 0.86283 0.0
C719 C 0.94982 0.20538 0.85238 0.0
C720 C 0.91882 0.22056 0.83005 0.0
H721 H 0.8593 0.19899 0.74825 0.0
H722 H 0.88842 0.19584 0.76808 0.0
H723 H 0.88939 0.22669 0.82352 0.0
H724 H 0.00427 0.22549 0.84436 0.0
H725 H 0.97668 0.22606 0.82182 0.0
H726 H 0.95085 0.20678 0.79979 0.0
C727 C 0.88056 0.20788 0.77138 0.0
C728 C 0.90278 0.22253 0.81813 0.0
C729 C 0.86374 0.20956 0.76013 0.0
C730 C 0.98917 0.21965 0.84672 0.0
C731 C 0.97337 0.2199 0.83377 0.0
C732 C 0.93757 0.21129 0.80511 0.0
C733 C 0.88675 0.22125 0.78698 0.0
C734 C 0.90391 0.21899 0.79953 0.0
C735 C 0.95346 0.21311 0.83662 0.0
C736 C 0.9364 0.2149 0.82372 0.0
H737 H 0.85099 0.24992 0.78333 0.0
H738 H 0.88053 0.24728 0.80261 0.0
H739 H 0.92287 0.21057 0.77889 0.0
H740 H 0.96208 0.19949 0.87747 0.0
H741 H 0.93472 0.19962 0.85482 0.0
C742 C 0.54751 0.93918 0.46468 0.0
C743 C 0.53161 0.94403 0.47449 0.0
C744 C 0.54897 0.91999 0.45881 0.0
C745 C 0.5325 0.87083 0.46732 0.0
H746 H 0.54201 0.85588 0.41781 0.0
C747 C 0.52058 0.79171 0.43504 0.0
C748 C 0.53412 0.78565 0.42306 0.0
C749 C 0.52114 0.81115 0.44131 0.0
C750 C 0.53964 0.85983 0.43174 0.0
H751 H 0.50479 0.93234 0.48579 0.0
H752 H 0.50758 0.89892 0.47586 0.0
H753 H 0.54191 0.88962 0.42921 0.0
H754 H 0.55884 0.79539 0.40819 0.0
H755 H 0.56006 0.82937 0.41941 0.0
H756 H 0.53035 0.84117 0.46996 0.0
C757 C 0.51899 0.91 0.47282 0.0
C758 C 0.53956 0.87916 0.43826 0.0
C759 C 0.51744 0.92918 0.47857 0.0
C760 C 0.54814 0.79956 0.41736 0.0
C761 C 0.54878 0.81906 0.42374 0.0
C762 C 0.53273 0.85155 0.46085 0.0
C763 C 0.53466 0.90521 0.46274 0.0
C764 C 0.53577 0.88483 0.45606 0.0
C765 C 0.53535 0.82508 0.43588 0.0
C766 C 0.53606 0.84576 0.44292 0.0
H767 H 0.55889 0.95023 0.46155 0.0
H768 H 0.56136 0.91672 0.45127 0.0
H769 H 0.52985 0.87481 0.48118 0.0
H770 H 0.50944 0.78143 0.4396 0.0
H771 H 0.51027 0.81527 0.45032 0.0
C772 C 0.21546 0.27945 0.79008 0.0
C773 C 0.21924 0.2718 0.77277 0.0
C774 C 0.19606 0.27682 0.79537 0.0
C775 C 0.14968 0.24345 0.78788 0.0
H776 H 0.12815 0.28479 0.81511 0.0
C777 C 0.07718 0.22835 0.82252 0.0
C778 C 0.07807 0.23769 0.84025 0.0
C779 C 0.09167 0.23413 0.81128 0.0
C780 C 0.13396 0.27305 0.80761 0.0
H781 H 0.20579 0.25564 0.74731 0.0
H782 H 0.17167 0.25058 0.75678 0.0
H783 H 0.15911 0.29184 0.80102 0.0
H784 H 0.09437 0.26097 0.8598 0.0
H785 H 0.11975 0.27069 0.8405 0.0
H786 H 0.12529 0.22447 0.79526 0.0
C787 C 0.18378 0.25876 0.76614 0.0
C788 C 0.15163 0.27713 0.79948 0.0
C789 C 0.2032 0.26169 0.76072 0.0
C790 C 0.09321 0.25345 0.84622 0.0
C791 C 0.10774 0.25913 0.83506 0.0
C792 C 0.13212 0.23932 0.7962 0.0
C793 C 0.18007 0.26626 0.78354 0.0
C794 C 0.15991 0.26232 0.78991 0.0
C795 C 0.10742 0.24931 0.81755 0.0
C796 C 0.12432 0.25402 0.80657 0.0
H797 H 0.22757 0.28744 0.79956 0.0
H798 H 0.19368 0.28258 0.80892 0.0
H799 H 0.15583 0.23175 0.78069 0.0
H800 H 0.06562 0.21624 0.81746 0.0
H801 H 0.09074 0.22645 0.79778 0.0
C802 C 0.56197 0.60476 0.5145 0.0
C803 C 0.57344 0.58981 0.51346 0.0
C804 C 0.55396 0.61044 0.49896 0.0
C805 C 0.56501 0.6137 0.45346 0.0
H806 H 0.51335 0.63122 0.44997 0.0
C807 C 0.5472 0.66308 0.40247 0.0
C808 C 0.54024 0.67963 0.41038 0.0
C809 C 0.54689 0.64709 0.41135 0.0
C810 C 0.52779 0.62633 0.45068 0.0
H811 H 0.58504 0.56859 0.49545 0.0
H812 H 0.57128 0.57884 0.46802 0.0
H813 H 0.52109 0.61185 0.47299 0.0
H814 H 0.52644 0.69191 0.43332 0.0
H815 H 0.52599 0.66432 0.44873 0.0
H816 H 0.57226 0.62915 0.43194 0.0
C817 C 0.56842 0.58605 0.48092 0.0
C818 C 0.53219 0.61521 0.46383 0.0
C819 C 0.57622 0.58016 0.49656 0.0
C820 C 0.53186 0.67942 0.42679 0.0
C821 C 0.5315 0.66347 0.43561 0.0
C822 C 0.56066 0.62492 0.44036 0.0
C823 C 0.55742 0.60142 0.482 0.0
C824 C 0.55113 0.60943 0.4658 0.0
C825 C 0.53955 0.64733 0.42828 0.0
C826 C 0.54231 0.63203 0.43931 0.0
H827 H 0.55947 0.6123 0.52739 0.0
H828 H 0.54578 0.62248 0.50024 0.0
H829 H 0.57978 0.60955 0.45473 0.0
H830 H 0.55368 0.66277 0.3898 0.0
H831 H 0.553 0.63479 0.40525 0.0
C832 C 0.8662 0.79431 0.77514 0.0
C833 C 0.85173 0.77976 0.77932 0.0
C834 C 0.87722 0.79091 0.76041 0.0
C835 C 0.87654 0.75933 0.7174 0.0
H836 H 0.9343 0.77488 0.72343 0.0
C837 C 0.9266 0.73214 0.66444 0.0
C838 C 0.94337 0.7446 0.66082 0.0
C839 C 0.91561 0.7373 0.67875 0.0
C840 C 0.91816 0.7707 0.7214 0.0
H841 H 0.83721 0.75037 0.7711 0.0
H842 H 0.85638 0.74446 0.7453 0.0
H843 H 0.91447 0.78242 0.7484 0.0
H844 H 0.96179 0.77232 0.6695 0.0
H845 H 0.94231 0.78157 0.69436 0.0
H846 H 0.88006 0.74778 0.69042 0.0
C847 C 0.85919 0.7585 0.75343 0.0
C848 C 0.9068 0.77499 0.73574 0.0
C849 C 0.84831 0.76184 0.76826 0.0
C850 C 0.94898 0.76237 0.67196 0.0
C851 C 0.93785 0.76762 0.68626 0.0
C852 C 0.88785 0.75519 0.70303 0.0
C853 C 0.87389 0.77295 0.74941 0.0
C854 C 0.88588 0.76916 0.73396 0.0
C855 C 0.92094 0.75517 0.68979 0.0
C856 C 0.90885 0.76058 0.70489 0.0
H857 H 0.86935 0.8082 0.78352 0.0
H858 H 0.88833 0.80237 0.75759 0.0
H859 H 0.86042 0.75494 0.7155 0.0
H860 H 0.92194 0.71826 0.65626 0.0
H861 H 0.903 0.72713 0.68125 0.0
C862 C 0.05585 0.90389 0.52487 0.0
C863 C 0.07573 0.90574 0.52035 0.0
C864 C 0.05 0.8932 0.53835 0.0
C865 C 0.06555 0.85301 0.55853 0.0
H866 H 0.02481 0.86162 0.59087 0.0
C867 C 0.0439 0.79797 0.60367 0.0
C868 C 0.02327 0.79175 0.60367 0.0
C869 C 0.05079 0.81514 0.59768 0.0
C870 C 0.03618 0.85902 0.58188 0.0
H871 H 0.10544 0.89943 0.52726 0.0
H872 H 0.0955 0.88135 0.55107 0.0
H873 H 0.03612 0.88611 0.57246 0.0
H874 H 0.99364 0.79911 0.5986 0.0
H875 H 0.00564 0.82905 0.58754 0.0
H876 H 0.06536 0.82588 0.5673 0.0
C877 C 0.08421 0.88754 0.54391 0.0
C878 C 0.04265 0.87303 0.57134 0.0
C879 C 0.08996 0.89799 0.53037 0.0
C880 C 0.00965 0.80372 0.59886 0.0
C881 C 0.01655 0.82084 0.59251 0.0
C882 C 0.05913 0.83912 0.56896 0.0
C883 C 0.06401 0.88432 0.54758 0.0
C884 C 0.05745 0.87016 0.55954 0.0
C885 C 0.03717 0.82627 0.59108 0.0
C886 C 0.04439 0.84189 0.58081 0.0
H887 H 0.0446 0.90969 0.51726 0.0
H888 H 0.03432 0.89096 0.54078 0.0
H889 H 0.0765 0.84999 0.54922 0.0
H890 H 0.0547 0.78903 0.60745 0.0
H891 H 0.0668 0.81917 0.59729 0.0
C892 C 0.17093 0.71436 0.73984 0.0
C893 C 0.17873 0.69891 0.73082 0.0
C894 C 0.15173 0.71787 0.73432 0.0
C895 C 0.12128 0.72969 0.70762 0.0
H896 H 0.07542 0.69021 0.69086 0.0
C897 C 0.06612 0.73203 0.64727 0.0
C898 C 0.04542 0.72726 0.64844 0.0
C899 C 0.07999 0.73012 0.66123 0.0
C900 C 0.08796 0.70146 0.69575 0.0
H901 H 0.17234 0.67429 0.70989 0.0
H902 H 0.13875 0.68015 0.70045 0.0
H903 H 0.10373 0.68275 0.70933 0.0
H904 H 0.02297 0.71694 0.66528 0.0
H905 H 0.04749 0.71298 0.68965 0.0
H906 H 0.10605 0.74807 0.69316 0.0
C907 C 0.14735 0.68961 0.71172 0.0
C908 C 0.10418 0.69717 0.70621 0.0
C909 C 0.16659 0.6863 0.71704 0.0
C910 C 0.03885 0.72076 0.66405 0.0
C911 C 0.05282 0.71845 0.67793 0.0
C912 C 0.1052 0.73389 0.69696 0.0
C913 C 0.13996 0.70578 0.7199 0.0
C914 C 0.12125 0.7111 0.71183 0.0
C915 C 0.07353 0.7231 0.67659 0.0
C916 C 0.08866 0.71967 0.6905 0.0
H917 H 0.1801 0.72434 0.75044 0.0
H918 H 0.14637 0.7304 0.74089 0.0
H919 H 0.13427 0.74068 0.7116 0.0
H920 H 0.07166 0.73719 0.63548 0.0
H921 H 0.09585 0.7336 0.65975 0.0
C922 C 0.95371 0.57354 0.47462 0.0
C923 C 0.95805 0.55545 0.47746 0.0
C924 C 0.95844 0.58928 0.48827 0.0
C925 C 0.99021 0.60944 0.52954 0.0
H926 H 0.94581 0.63616 0.54172 0.0
C927 C 0.99767 0.68393 0.57422 0.0
C928 C 0.98411 0.68574 0.58735 0.0
C929 C 0.99598 0.66706 0.56194 0.0
C930 C 0.95831 0.62877 0.53853 0.0
H931 H 0.9715 0.53977 0.49646 0.0
H932 H 0.98029 0.56753 0.52025 0.0
H933 H 0.94058 0.6091 0.5173 0.0
H934 H 0.95841 0.67102 0.59809 0.0
H935 H 0.9552 0.64174 0.57633 0.0
H936 H 0.00804 0.62948 0.55057 0.0
C937 C 0.97307 0.56943 0.50751 0.0
C938 C 0.95537 0.61342 0.52448 0.0
C939 C 0.96801 0.55358 0.49395 0.0
C940 C 0.96914 0.67009 0.58819 0.0
C941 C 0.96723 0.65336 0.5757 0.0
C942 C 0.99326 0.62507 0.54341 0.0
C943 C 0.96789 0.58731 0.50492 0.0
C944 C 0.97127 0.60362 0.51983 0.0
C945 C 0.98046 0.6518 0.56231 0.0
C946 C 0.9773 0.63484 0.54805 0.0
H947 H 0.94584 0.57535 0.46212 0.0
H948 H 0.9544 0.60295 0.48591 0.0
H949 H 0.0027 0.60211 0.52619 0.0
H950 H 0.00933 0.69566 0.57312 0.0
H951 H 0.0063 0.66627 0.55168 0.0
C952 C 0.81587 0.84694 0.21105 0.0
C953 C 0.79819 0.84532 0.21972 0.0
C954 C 0.82878 0.86441 0.21312 0.0
C955 C 0.84241 0.91004 0.24412 0.0
H956 H 0.87343 0.9248 0.20582 0.0
C957 C 0.90102 0.97929 0.25304 0.0
C958 C 0.91988 0.97643 0.24745 0.0
C959 C 0.88435 0.96485 0.24845 0.0
C960 C 0.86486 0.92085 0.21663 0.0
H961 H 0.77976 0.86087 0.23681 0.0
H962 H 0.80215 0.89152 0.24022 0.0
H963 H 0.84721 0.89677 0.19977 0.0
H964 H 0.93583 0.95639 0.23216 0.0
H965 H 0.90681 0.93137 0.22411 0.0
H966 H 0.86024 0.93408 0.26099 0.0
C967 C 0.80626 0.87919 0.23212 0.0
C968 C 0.84989 0.90476 0.2132 0.0
C969 C 0.79341 0.86167 0.23013 0.0
C970 C 0.92156 0.95905 0.23677 0.0
C971 C 0.90489 0.94475 0.23203 0.0
C972 C 0.85729 0.92622 0.24751 0.0
C973 C 0.82425 0.88072 0.22383 0.0
C974 C 0.83876 0.89892 0.227 0.0
C975 C 0.88617 0.94739 0.23797 0.0
C976 C 0.86894 0.93155 0.23389 0.0
H977 H 0.82011 0.83452 0.20317 0.0
H978 H 0.84265 0.86493 0.20681 0.0
H979 H 0.83433 0.90584 0.25513 0.0
H980 H 0.89921 0.9925 0.26129 0.0
H981 H 0.87005 0.9673 0.25313 0.0
C982 C 0.7974 0.16517 0.27883 0.0
C983 C 0.78244 0.16299 0.29063 0.0
C984 C 0.81321 0.15458 0.27924 0.0
C985 C 0.82797 0.11034 0.291 0.0
H986 H 0.88201 0.13717 0.29066 0.0
C987 C 0.89789 0.07116 0.29028 0.0
C988 C 0.91254 0.07735 0.27921 0.0
C989 C 0.88205 0.0815 0.29363 0.0
C990 C 0.86702 0.12939 0.29057 0.0
H991 H 0.77214 0.14783 0.31195 0.0
H992 H 0.79978 0.12894 0.31244 0.0
H993 H 0.85411 0.15523 0.29251 0.0
H994 H 0.92186 0.09912 0.26284 0.0
H995 H 0.89428 0.11668 0.26827 0.0
H996 H 0.84078 0.0844 0.28839 0.0
C997 C 0.79923 0.13897 0.30297 0.0
C998 C 0.85105 0.13977 0.29171 0.0
C999 C 0.78352 0.14982 0.30275 0.0
C1000 C 0.91097 0.094 0.27157 0.0
C1001 C 0.89517 0.1042 0.2748 0.0
C1002 C 0.84397 0.09988 0.28965 0.0
C1003 C 0.81432 0.14139 0.29131 0.0
C1004 C 0.83133 0.13035 0.29162 0.0
C1005 C 0.88052 0.09819 0.28593 0.0
C1006 C 0.86366 0.10926 0.28907 0.0
H1007 H 0.79705 0.17534 0.26946 0.0
H1008 H 0.82453 0.15661 0.26998 0.0
H1009 H 0.81289 0.10272 0.29084 0.0
H1010 H 0.89868 0.05839 0.29639 0.0
H1011 H 0.87114 0.07652 0.30237 0.0
C1012 C 0.40226 0.98284 0.95598 0.0
C1013 C 0.42172 0.98741 0.96482 0.0
C1014 C 0.3885 0.96816 0.96059 0.0
C1015 C 0.37909 0.93906 0.99731 0.0
H1016 H 0.33828 0.90907 0.96174 0.0
C1017 C 0.32567 0.87162 0.0096 0.0
C1018 C 0.30517 0.87117 0.00444 0.0
C1019 C 0.34012 0.88585 0.00513 0.0
C1020 C 0.34953 0.91743 0.97182 0.0
H1021 H 0.44229 0.97989 0.98499 0.0
H1022 H 0.4186 0.95367 0.99257 0.0
H1023 H 0.36361 0.93283 0.95266 0.0
H1024 H 0.28378 0.88539 0.9906 0.0
H1025 H 0.30911 0.90998 0.98248 0.0
H1026 H 0.36519 0.92308 0.01633 0.0
C1027 C 0.41366 0.96178 0.98247 0.0
C1028 C 0.36403 0.93113 0.96666 0.0
C1029 C 0.42733 0.97669 0.97805 0.0
C1030 C 0.29944 0.88535 0.99482 0.0
C1031 C 0.31392 0.89936 0.99007 0.0
C1032 C 0.36478 0.92512 0.0024 0.0
C1033 C 0.39393 0.95747 0.97399 0.0
C1034 C 0.37894 0.94228 0.97936 0.0
C1035 C 0.3344 0.8997 0.99513 0.0
C1036 C 0.34977 0.91429 0.98973 0.0
H1037 H 0.39745 0.99109 0.94593 0.0
H1038 H 0.3734 0.96561 0.95397 0.0
H1039 H 0.39002 0.94756 0.00758 0.0
H1040 H 0.33058 0.86094 0.01706 0.0
H1041 H 0.35581 0.88575 0.00913 0.0
C1042 C 0.27 0.34764 0.29744 0.0
C1043 C 0.2886 0.35845 0.30466 0.0
C1044 C 0.25569 0.35615 0.28831 0.0
C1045 C 0.22466 0.38285 0.28151 0.0
H1046 H 0.24173 0.41775 0.24866 0.0
C1047 C 0.18136 0.44305 0.26248 0.0
C1048 C 0.18299 0.4483 0.24535 0.0
C1049 C 0.19133 0.4285 0.26775 0.0
C1050 C 0.23656 0.40784 0.25758 0.0
H1051 H 0.30711 0.38634 0.30744 0.0
H1052 H 0.28234 0.4011 0.29145 0.0
H1053 H 0.26548 0.39928 0.26097 0.0
H1054 H 0.1946 0.44107 0.21974 0.0
H1055 H 0.21153 0.41554 0.22877 0.0
H1056 H 0.19576 0.39175 0.2783 0.0
C1057 C 0.27872 0.3861 0.29283 0.0
C1058 C 0.25028 0.39741 0.26479 0.0
C1059 C 0.29286 0.37769 0.30208 0.0
C1060 C 0.19329 0.43758 0.23313 0.0
C1061 C 0.20311 0.42301 0.23834 0.0
C1062 C 0.21091 0.39342 0.27435 0.0
C1063 C 0.25987 0.37552 0.28602 0.0
C1064 C 0.24461 0.38503 0.27705 0.0
C1065 C 0.20301 0.41887 0.25595 0.0
C1066 C 0.21678 0.40622 0.26245 0.0
H1067 H 0.26628 0.33281 0.29935 0.0
H1068 H 0.24135 0.34761 0.28311 0.0
H1069 H 0.21989 0.3735 0.29102 0.0
H1070 H 0.17358 0.45106 0.27222 0.0
H1071 H 0.19097 0.4257 0.28143 0.0
C1072 C 0.11146 0.02658 0.49206 0.0
C1073 C 0.11419 0.00729 0.48841 0.0
C1074 C 0.12793 0.04129 0.49464 0.0
C1075 C 0.18301 0.05227 0.50494 0.0
H1076 H 0.17776 0.09467 0.47884 0.0
C1077 C 0.25009 0.11156 0.49978 0.0
C1078 C 0.24594 0.13045 0.501 0.0
C1079 C 0.23445 0.09606 0.4984 0.0
C1080 C 0.17944 0.08308 0.4864 0.0
H1081 H 0.13653 0.98838 0.48511 0.0
H1082 H 0.16526 0.01406 0.48989 0.0
H1083 H 0.14964 0.06887 0.4773 0.0
H1084 H 0.22199 0.14777 0.50191 0.0
H1085 H 0.19503 0.121 0.49982 0.0
H1086 H 0.21281 0.06661 0.51417 0.0
C1087 C 0.15036 0.01777 0.49083 0.0
C1088 C 0.16329 0.06828 0.48552 0.0
C1089 C 0.13387 0.00305 0.48816 0.0
C1090 C 0.22582 0.13344 0.50084 0.0
C1091 C 0.21027 0.11803 0.49954 0.0
C1092 C 0.19918 0.06717 0.50592 0.0
C1093 C 0.14753 0.03706 0.49371 0.0
C1094 C 0.16483 0.05276 0.49485 0.0
C1095 C 0.21434 0.09913 0.49824 0.0
C1096 C 0.19754 0.08283 0.49675 0.0
H1097 H 0.09653 0.03034 0.49262 0.0
H1098 H 0.12529 0.05601 0.49717 0.0
H1099 H 0.18461 0.04053 0.51235 0.0
H1100 H 0.2654 0.10872 0.49986 0.0
H1101 H 0.23811 0.08167 0.49724 0.0
C1102 C 0.767 0.19327 0.73468 0.0
C1103 C 0.78705 0.19326 0.73096 0.0
C1104 C 0.75343 0.17612 0.73205 0.0
C1105 C 0.75382 0.12444 0.73094 0.0
H1106 H 0.69686 0.11992 0.71668 0.0
C1107 C 0.70162 0.05309 0.72876 0.0
C1108 C 0.68365 0.05412 0.73679 0.0
C1109 C 0.7131 0.06963 0.72483 0.0
C1110 C 0.71273 0.121 0.72075 0.0
H1111 H 0.80824 0.1756 0.72036 0.0
H1112 H 0.78454 0.14573 0.71551 0.0
H1113 H 0.71907 0.14984 0.71523 0.0
H1114 H 0.66323 0.07327 0.7463 0.0
H1115 H 0.68344 0.1022 0.73968 0.0
H1116 H 0.74756 0.09589 0.73686 0.0
C1117 C 0.77939 0.15887 0.72089 0.0
C1118 C 0.72544 0.13813 0.71992 0.0
C1119 C 0.79295 0.17597 0.7236 0.0
C1120 C 0.67701 0.07197 0.74011 0.0
C1121 C 0.68854 0.08856 0.73623 0.0
C1122 C 0.74116 0.10738 0.73176 0.0
C1123 C 0.75963 0.15863 0.72559 0.0
C1124 C 0.74613 0.1401 0.72515 0.0
C1125 C 0.70697 0.08764 0.72892 0.0
C1126 C 0.72043 0.10547 0.72682 0.0
H1127 H 0.76207 0.20635 0.74052 0.0
H1128 H 0.73839 0.17645 0.73596 0.0
H1129 H 0.76958 0.12556 0.73546 0.0
H1130 H 0.70719 0.0396 0.72599 0.0
H1131 H 0.72704 0.06837 0.71892 0.0
C1132 C 0.4685 0.03901 0.54523 0.0
C1133 C 0.46846 0.02223 0.53304 0.0
C1134 C 0.45318 0.0501 0.54362 0.0
C1135 C 0.41503 0.06022 0.51017 0.0
H1136 H 0.39545 0.08679 0.55195 0.0
C1137 C 0.3531 0.10883 0.50564 0.0
C1138 C 0.35698 0.12642 0.51725 0.0
C1139 C 0.36527 0.0947 0.50737 0.0
C1140 C 0.40084 0.07953 0.54014 0.0
H1141 H 0.45177 0.00344 0.51014 0.0
H1142 H 0.42497 0.02271 0.5074 0.0
H1143 H 0.41899 0.06446 0.55577 0.0
H1144 H 0.3768 0.14297 0.53966 0.0
H1145 H 0.39786 0.11854 0.54257 0.0
H1146 H 0.39698 0.0755 0.49457 0.0
C1147 C 0.43707 0.02753 0.51797 0.0
C1148 C 0.41436 0.06676 0.54234 0.0
C1149 C 0.4524 0.01647 0.51957 0.0
C1150 C 0.3733 0.12958 0.53051 0.0
C1151 C 0.38532 0.1155 0.53229 0.0
C1152 C 0.40144 0.07298 0.50797 0.0
C1153 C 0.43742 0.04465 0.52981 0.0
C1154 C 0.42188 0.05716 0.5274 0.0
C1155 C 0.38143 0.09785 0.52083 0.0
C1156 C 0.39447 0.08304 0.52296 0.0
H1157 H 0.48078 0.04398 0.55561 0.0
H1158 H 0.4541 0.06333 0.55283 0.0
H1159 H 0.42068 0.05325 0.49837 0.0
H1160 H 0.34064 0.10595 0.4953 0.0
H1161 H 0.36186 0.08121 0.49837 0.0
C1162 C 0.61887 0.49635 0.54391 0.0
C1163 C 0.59798 0.49368 0.54438 0.0
C1164 C 0.62844 0.48127 0.53687 0.0
C1165 C 0.62008 0.42799 0.52552 0.0
H1166 H 0.67147 0.43819 0.50637 0.0
C1167 C 0.67442 0.37345 0.52306 0.0
C1168 C 0.68824 0.37271 0.51011 0.0
C1169 C 0.66184 0.38734 0.52419 0.0
C1170 C 0.65697 0.43493 0.51134 0.0
H1171 H 0.57053 0.47346 0.5374 0.0
H1172 H 0.587 0.44726 0.52422 0.0
H1173 H 0.65224 0.4641 0.51303 0.0
H1174 H 0.6992 0.38562 0.48773 0.0
H1175 H 0.67658 0.40959 0.48921 0.0
H1176 H 0.62436 0.3987 0.5231 0.0
C1177 C 0.59622 0.46077 0.52986 0.0
C1178 C 0.64604 0.44995 0.51552 0.0
C1179 C 0.5867 0.47578 0.53729 0.0
C1180 C 0.68875 0.38587 0.4979 0.0
C1181 C 0.67587 0.39969 0.49886 0.0
C1182 C 0.63078 0.41293 0.52099 0.0
C1183 C 0.61728 0.4632 0.52976 0.0
C1184 C 0.62773 0.44682 0.52321 0.0
C1185 C 0.6624 0.40076 0.51219 0.0
C1186 C 0.64971 0.41628 0.51442 0.0
H1187 H 0.6279 0.51001 0.54949 0.0
H1188 H 0.64466 0.48372 0.53751 0.0
H1189 H 0.60616 0.42487 0.53148 0.0
H1190 H 0.67369 0.36365 0.5328 0.0
H1191 H 0.65215 0.38787 0.53494 0.0
C1192 C 0.74368 0.20144 0.33915 0.0
C1193 C 0.74324 0.20916 0.32303 0.0
C1194 C 0.74259 0.21294 0.35544 0.0
C1195 C 0.72708 0.25647 0.3774 0.0
H1196 H 0.77165 0.25644 0.4127 0.0
C1197 C 0.74009 0.30716 0.44611 0.0
C1198 C 0.74827 0.29976 0.46079 0.0
C1199 C 0.73842 0.29672 0.42878 0.0
C1200 C 0.75888 0.25643 0.40318 0.0
H1201 H 0.74037 0.23499 0.31146 0.0
H1202 H 0.73781 0.25489 0.33998 0.0
H1203 H 0.76951 0.23659 0.38363 0.0
H1204 H 0.76004 0.27523 0.46899 0.0
H1205 H 0.75639 0.25687 0.43923 0.0
H1206 H 0.71609 0.27589 0.39718 0.0
C1207 C 0.73917 0.23991 0.33987 0.0
C1208 C 0.75776 0.24511 0.38646 0.0
C1209 C 0.74055 0.22846 0.32355 0.0
C1210 C 0.75404 0.28151 0.45791 0.0
C1211 C 0.75206 0.27101 0.44076 0.0
C1212 C 0.72801 0.26762 0.39432 0.0
C1213 C 0.74071 0.23236 0.35599 0.0
C1214 C 0.74179 0.24487 0.37348 0.0
C1215 C 0.74464 0.27859 0.42587 0.0
C1216 C 0.74384 0.26756 0.40751 0.0
H1217 H 0.74523 0.18654 0.33925 0.0
H1218 H 0.74354 0.20673 0.36769 0.0
H1219 H 0.71462 0.25651 0.36756 0.0
H1220 H 0.73552 0.3212 0.44794 0.0
H1221 H 0.73274 0.30308 0.41764 0.0
C1222 C 0.50386 0.02095 0.88989 0.0
C1223 C 0.48378 0.01782 0.88241 0.0
C1224 C 0.51923 0.01675 0.87928 0.0
C1225 C 0.53039 0.01123 0.83197 0.0
H1226 H 0.57665 0.99063 0.84988 0.0
C1227 C 0.59347 0.9953 0.78724 0.0
C1228 C 0.61323 0.0012 0.79523 0.0
C1229 C 0.57722 0.99509 0.79771 0.0
C1230 C 0.56389 0.99651 0.84471 0.0
H1231 H 0.46403 0.00679 0.85817 0.0
H1232 H 0.49075 0.99942 0.83973 0.0
H1233 H 0.54922 0.99439 0.86866 0.0
H1234 H 0.63141 0.01099 0.82058 0.0
H1235 H 0.60321 0.0108 0.83871 0.0
H1236 H 0.54513 0.01367 0.80816 0.0
C1237 C 0.49471 0.00553 0.85368 0.0
C1238 C 0.54817 0.99867 0.85549 0.0
C1239 C 0.47938 0.00974 0.86426 0.0
C1240 C 0.61639 0.00636 0.81396 0.0
C1241 C 0.60019 0.00613 0.8244 0.0
C1242 C 0.54609 0.00909 0.82121 0.0
C1243 C 0.51487 0.00929 0.86096 0.0
C1244 C 0.53128 0.00619 0.8493 0.0
C1245 C 0.58038 0.00074 0.81641 0.0
C1246 C 0.56313 0.00185 0.82749 0.0
H1247 H 0.50778 0.02732 0.90378 0.0
H1248 H 0.5346 0.02 0.88529 0.0
H1249 H 0.51778 0.01737 0.82686 0.0
H1250 H 0.59049 0.99118 0.77286 0.0
H1251 H 0.56217 0.99059 0.79114 0.0
C1252 C 0.32535 0.24089 0.33036 0.0
C1253 C 0.33268 0.26045 0.336 0.0
C1254 C 0.32339 0.22813 0.34287 0.0
C1255 C 0.3074 0.20933 0.37421 0.0
H1256 H 0.34725 0.21405 0.41482 0.0
C1257 C 0.28889 0.18913 0.44262 0.0
C1258 C 0.30304 0.18161 0.45304 0.0
C1259 C 0.2932 0.19442 0.42608 0.0
C1260 C 0.3361 0.21227 0.40343 0.0
H1261 H 0.34455 0.28181 0.359 0.0
H1262 H 0.34112 0.25967 0.38076 0.0
H1263 H 0.35458 0.23179 0.39014 0.0
H1264 H 0.33244 0.17282 0.45376 0.0
H1265 H 0.34003 0.1822 0.42479 0.0
H1266 H 0.2887 0.19022 0.38776 0.0
C1267 C 0.33687 0.25412 0.36672 0.0
C1268 C 0.34023 0.2226 0.38938 0.0
C1269 C 0.33863 0.26686 0.35428 0.0
C1270 C 0.32122 0.17857 0.44608 0.0
C1271 C 0.32562 0.18406 0.42955 0.0
C1272 C 0.30322 0.19908 0.38833 0.0
C1273 C 0.32901 0.23466 0.36122 0.0
C1274 C 0.32573 0.22164 0.37483 0.0
C1275 C 0.31182 0.19244 0.41956 0.0
C1276 C 0.31733 0.20081 0.40332 0.0
H1277 H 0.32062 0.23557 0.31635 0.0
H1278 H 0.31738 0.2132 0.33822 0.0
H1279 H 0.29588 0.20833 0.36324 0.0
H1280 H 0.27469 0.19156 0.44753 0.0
H1281 H 0.2823 0.20098 0.41884 0.0
C1282 C 0.54285 0.50601 0.95017 0.0
C1283 C 0.55022 0.48845 0.94916 0.0
C1284 C 0.53076 0.51004 0.93577 0.0
C1285 C 0.50021 0.48695 0.89329 0.0
H1286 H 0.51339 0.53676 0.87834 0.0
C1287 C 0.48667 0.49942 0.82073 0.0
C1288 C 0.47943 0.51614 0.81705 0.0
C1289 C 0.49151 0.49675 0.83833 0.0
C1290 C 0.50925 0.52292 0.88253 0.0
H1291 H 0.55066 0.46141 0.93216 0.0
H1292 H 0.52973 0.46839 0.90719 0.0
H1293 H 0.52901 0.5307 0.90671 0.0
H1294 H 0.47129 0.54304 0.82903 0.0
H1295 H 0.48022 0.53848 0.86005 0.0
H1296 H 0.48116 0.47891 0.86871 0.0
C1297 C 0.53287 0.47892 0.91921 0.0
C1298 C 0.51819 0.51943 0.89879 0.0
C1299 C 0.54491 0.4749 0.93357 0.0
C1300 C 0.4768 0.53001 0.83146 0.0
C1301 C 0.48198 0.52745 0.84916 0.0
C1302 C 0.49139 0.4904 0.87702 0.0
C1303 C 0.52578 0.49661 0.92004 0.0
C1304 C 0.51422 0.50121 0.90411 0.0
C1305 C 0.48946 0.5108 0.85274 0.0
C1306 C 0.49624 0.50824 0.87123 0.0
H1307 H 0.54653 0.51668 0.96206 0.0
H1308 H 0.52538 0.52371 0.93693 0.0
H1309 H 0.49644 0.4729 0.89717 0.0
H1310 H 0.48876 0.48839 0.80997 0.0
H1311 H 0.49747 0.48389 0.84063 0.0
C1312 C 0.77089 0.76338 0.18362 0.0
C1313 C 0.76676 0.7822 0.18416 0.0
C1314 C 0.77064 0.75155 0.16722 0.0
C1315 C 0.77738 0.75526 0.12 0.0
H1316 H 0.761 0.70013 0.11296 0.0
C1317 C 0.78483 0.70828 0.05322 0.0
C1318 C 0.79333 0.69163 0.05466 0.0
C1319 C 0.77844 0.71856 0.06828 0.0
C1320 C 0.7657 0.71551 0.11476 0.0
H1321 H 0.7579 0.80298 0.16802 0.0
H1322 H 0.75725 0.78229 0.13938 0.0
H1323 H 0.75494 0.71946 0.14072 0.0
H1324 H 0.80126 0.6724 0.07293 0.0
H1325 H 0.79029 0.69042 0.09919 0.0
H1326 H 0.78849 0.75133 0.09426 0.0
C1327 C 0.76112 0.7768 0.15161 0.0
C1328 C 0.76224 0.72658 0.13066 0.0
C1329 C 0.76144 0.78863 0.168 0.0
C1330 C 0.79477 0.68518 0.07136 0.0
C1331 C 0.78836 0.69544 0.0864 0.0
C1332 C 0.78081 0.74422 0.10413 0.0
C1333 C 0.7662 0.75828 0.151 0.0
C1334 C 0.76827 0.74657 0.13356 0.0
C1335 C 0.78039 0.71241 0.08509 0.0
C1336 C 0.77525 0.72418 0.1014 0.0
H1337 H 0.77528 0.75809 0.19583 0.0
H1338 H 0.77486 0.73747 0.16725 0.0
H1339 H 0.78256 0.77057 0.1219 0.0
H1340 H 0.78352 0.71366 0.04057 0.0
H1341 H 0.77214 0.73146 0.06678 0.0
C1342 C 0.06641 0.03707 0.1101 0.0
C1343 C 0.06291 0.02117 0.0964 0.0
C1344 C 0.05643 0.0369 0.12557 0.0
C1345 C 0.02845 0.0057 0.1532 0.0
H1346 H 0.00671 0.0519 0.16942 0.0
C1347 C 0.99871 0.02116 0.22277 0.0
C1348 C 0.98156 0.03016 0.22377 0.0
C1349 C 0.00766 0.01849 0.20673 0.0
C1350 C 0.0125 0.03882 0.16499 0.0
H1351 H 0.0468 0.99229 0.08854 0.0
H1352 H 0.02936 0.99194 0.11576 0.0
H1353 H 0.02451 0.05006 0.1426 0.0
H1354 H 0.96009 0.04303 0.20855 0.0
H1355 H 0.97567 0.03834 0.18057 0.0
H1356 H 0.01631 0.99447 0.17564 0.0
C1357 C 0.03986 0.00454 0.11445 0.0
C1358 C 0.02293 0.03785 0.14973 0.0
C1359 C 0.04985 0.00473 0.09889 0.0
C1360 C 0.97334 0.03612 0.20827 0.0
C1361 C 0.98232 0.0335 0.19225 0.0
C1362 C 0.01808 0.00671 0.16856 0.0
C1363 C 0.04275 0.02079 0.12779 0.0
C1364 C 0.03117 0.02136 0.14373 0.0
C1365 C 0.99971 0.02485 0.19134 0.0
C1366 C 0.01007 0.02332 0.17466 0.0
H1367 H 0.07675 0.04978 0.1088 0.0
H1368 H 0.05937 0.04947 0.13578 0.0
H1369 H 0.03469 0.99283 0.14894 0.0
H1370 H 0.00554 0.01654 0.23448 0.0
H1371 H 0.02119 0.012 0.20654 0.0
C1372 C 0.2851 0.77542 0.18402 0.0
C1373 C 0.29256 0.78952 0.19884 0.0
C1374 C 0.28264 0.7803 0.16683 0.0
C1375 C 0.29672 0.81996 0.14033 0.0
H1376 H 0.25222 0.79194 0.10739 0.0
C1377 C 0.26505 0.84419 0.07492 0.0
C1378 C 0.26242 0.83024 0.05953 0.0
C1379 C 0.27072 0.83945 0.09169 0.0
C1380 C 0.26479 0.79977 0.11643 0.0
H1381 H 0.30355 0.81991 0.2069 0.0
H1382 H 0.29802 0.82854 0.17729 0.0
H1383 H 0.25748 0.78334 0.1372 0.0
H1384 H 0.2641 0.80053 0.04953 0.0
H1385 H 0.27349 0.79218 0.07892 0.0
H1386 H 0.30328 0.83696 0.11958 0.0
C1387 C 0.2946 0.81358 0.17881 0.0
C1388 C 0.26792 0.7948 0.1335 0.0
C1389 C 0.29742 0.80865 0.19594 0.0
C1390 C 0.26607 0.8116 0.06115 0.0
C1391 C 0.27134 0.80679 0.07794 0.0
C1392 C 0.29331 0.82517 0.12335 0.0
C1393 C 0.2872 0.79948 0.16398 0.0
C1394 C 0.28398 0.80477 0.1457 0.0
C1395 C 0.27346 0.8206 0.09337 0.0
C1396 C 0.27737 0.81506 0.11126 0.0
H1397 H 0.2809 0.76057 0.18566 0.0
H1398 H 0.27724 0.76893 0.15577 0.0
H1399 H 0.30947 0.82776 0.14914 0.0
H1400 H 0.26237 0.85867 0.07406 0.0
H1401 H 0.27221 0.85032 0.10344 0.0
C1402 C 0.04241 0.49971 0.06837 0.0
C1403 C 0.02166 0.49323 0.06618 0.0
C1404 C 0.05381 0.49842 0.08418 0.0
C1405 C 0.04976 0.49032 0.13162 0.0
H1406 H 0.10483 0.48223 0.12805 0.0
C1407 C 0.10757 0.49933 0.19401 0.0
C1408 C 0.12396 0.48931 0.19295 0.0
C1409 C 0.09356 0.49793 0.17909 0.0
C1410 C 0.08939 0.48412 0.1294 0.0
H1411 H 0.99649 0.48035 0.07874 0.0
H1412 H 0.01649 0.47728 0.10617 0.0
H1413 H 0.08359 0.48292 0.10117 0.0
H1414 H 0.13777 0.46888 0.17603 0.0
H1415 H 0.1128 0.46541 0.15049 0.0
H1416 H 0.05539 0.49057 0.15986 0.0
C1417 C 0.02396 0.48387 0.09591 0.0
C1418 C 0.07724 0.48494 0.11388 0.0
C1419 C 0.01248 0.48551 0.08016 0.0
C1420 C 0.12539 0.47694 0.17713 0.0
C1421 C 0.11116 0.47515 0.16241 0.0
C1422 C 0.06184 0.48914 0.14718 0.0
C1423 C 0.04484 0.49025 0.09812 0.0
C1424 C 0.05734 0.48838 0.11475 0.0
C1425 C 0.09542 0.48615 0.16291 0.0
C1426 C 0.08194 0.48624 0.14632 0.0
H1427 H 0.04979 0.50601 0.05789 0.0
H1428 H 0.06968 0.50404 0.08548 0.0
H1429 H 0.03459 0.49314 0.13294 0.0
H1430 H 0.10621 0.50909 0.20601 0.0
H1431 H 0.08186 0.50679 0.18007 0.0
C1432 C 0.3657 0.71323 0.25944 0.0
C1433 C 0.35109 0.72419 0.26528 0.0
C1434 C 0.38246 0.71215 0.27105 0.0
C1435 C 0.39823 0.7134 0.31771 0.0
H1436 H 0.45268 0.7293 0.30682 0.0
C1437 C 0.4646 0.72337 0.3717 0.0
C1438 C 0.48346 0.71972 0.3668 0.0
C1439 C 0.44878 0.72294 0.35866 0.0
C1440 C 0.43762 0.72442 0.30996 0.0
H1441 H 0.34232 0.74248 0.28771 0.0
H1442 H 0.37137 0.74014 0.30819 0.0
H1443 H 0.42449 0.7302 0.28496 0.0
H1444 H 0.50044 0.71241 0.34434 0.0
H1445 H 0.47255 0.71081 0.32151 0.0
H1446 H 0.41102 0.707 0.34236 0.0
C1447 C 0.36997 0.73263 0.29459 0.0
C1448 C 0.42151 0.72507 0.29746 0.0
C1449 C 0.35347 0.73405 0.28289 0.0
C1450 C 0.48609 0.71538 0.34853 0.0
C1451 C 0.47011 0.7146 0.33544 0.0
C1452 C 0.4143 0.71237 0.33004 0.0
C1453 C 0.38457 0.72166 0.28877 0.0
C1454 C 0.4017 0.71988 0.30139 0.0
C1455 C 0.45124 0.71847 0.34033 0.0
C1456 C 0.43423 0.71822 0.32652 0.0
H1457 H 0.36414 0.70553 0.2459 0.0
H1458 H 0.39353 0.70356 0.26633 0.0
H1459 H 0.38305 0.70908 0.3209 0.0
H1460 H 0.46214 0.72703 0.38566 0.0
H1461 H 0.43472 0.72652 0.36303 0.0
C1462 C 0.0112 0.42137 0.97839 0.0
C1463 C 0.02484 0.43615 0.97349 0.0
C1464 C 0.01282 0.40215 0.97289 0.0
C1465 C 0.03261 0.37121 0.93772 0.0
H1466 H 0.02501 0.33326 0.96965 0.0
C1467 C 0.04469 0.29288 0.917 0.0
C1468 C 0.03126 0.27833 0.92249 0.0
C1469 C 0.0444 0.31217 0.92351 0.0
C1470 C 0.02693 0.34363 0.96049 0.0
H1471 H 0.05138 0.44223 0.95955 0.0
H1472 H 0.05407 0.40869 0.94982 0.0
H1473 H 0.02383 0.36682 0.98084 0.0
H1474 H 0.00678 0.27277 0.93897 0.0
H1475 H 0.00601 0.30635 0.95 0.0
H1476 H 0.0354 0.34806 0.91729 0.0
C1477 C 0.04196 0.41201 0.95772 0.0
C1478 C 0.02631 0.36287 0.96693 0.0
C1479 C 0.0404 0.43122 0.96329 0.0
C1480 C 0.01743 0.28356 0.93453 0.0
C1481 C 0.01707 0.30285 0.94096 0.0
C1482 C 0.03313 0.35197 0.93125 0.0
C1483 C 0.02806 0.39726 0.96229 0.0
C1484 C 0.02912 0.37687 0.95561 0.0
C1485 C 0.0306 0.31739 0.9356 0.0
C1486 C 0.03026 0.33792 0.94254 0.0
H1487 H 0.99886 0.42463 0.986 0.0
H1488 H 0.00175 0.39111 0.97647 0.0
H1489 H 0.03453 0.38162 0.92859 0.0
H1490 H 0.05563 0.28939 0.90782 0.0
H1491 H 0.05521 0.32297 0.91927 0.0
C1492 C 0.70987 0.7905 0.28952 0.0
C1493 C 0.71614 0.78077 0.27402 0.0
C1494 C 0.69025 0.78609 0.29392 0.0
C1495 C 0.64507 0.77997 0.29552 0.0
H1496 H 0.6274 0.72649 0.29881 0.0
C1497 C 0.58885 0.75649 0.34414 0.0
C1498 C 0.57616 0.73874 0.33996 0.0
C1499 C 0.60285 0.76221 0.33253 0.0
C1500 C 0.63179 0.74144 0.2976 0.0
H1501 H 0.70681 0.7591 0.25073 0.0
H1502 H 0.67235 0.75104 0.25865 0.0
H1503 H 0.65774 0.73553 0.28452 0.0
H1504 H 0.56741 0.71357 0.31976 0.0
H1505 H 0.59166 0.72373 0.29929 0.0
H1506 H 0.61941 0.786 0.30887 0.0
C1507 C 0.68266 0.76216 0.2673 0.0
C1508 C 0.64923 0.7466 0.28943 0.0
C1509 C 0.70229 0.7668 0.26275 0.0
C1510 C 0.57708 0.72727 0.32345 0.0
C1511 C 0.59106 0.73304 0.31176 0.0
C1512 C 0.62755 0.77481 0.30353 0.0
C1513 C 0.67652 0.7717 0.283 0.0
C1514 C 0.65637 0.76598 0.28883 0.0
C1515 C 0.60444 0.75039 0.31636 0.0
C1516 C 0.62105 0.75554 0.30522 0.0
H1517 H 0.72023 0.80143 0.29835 0.0
H1518 H 0.68602 0.79352 0.3062 0.0
H1519 H 0.6501 0.795 0.29499 0.0
H1520 H 0.58855 0.76571 0.35674 0.0
H1521 H 0.61305 0.77553 0.33668 0.0
C1522 C 0.05108 0.07927 0.00337 0.0
C1523 C 0.07193 0.08101 0.00726 0.0
C1524 C 0.04318 0.08502 0.98774 0.0
C1525 C 0.05414 0.09808 0.94373 0.0
H1526 H 0.02624 0.141 0.95693 0.0
C1527 C 0.056 0.16084 0.90389 0.0
C1528 C 0.04153 0.17304 0.90577 0.0
C1529 C 0.05499 0.14485 0.91276 0.0
C1530 C 0.03342 0.12873 0.95268 0.0
H1531 H 0.10086 0.08879 0.99762 0.0
H1532 H 0.08706 0.09839 0.97004 0.0
H1533 H 0.0329 0.12023 0.97867 0.0
H1534 H 0.0135 0.17706 0.91669 0.0
H1535 H 0.01103 0.14862 0.93137 0.0
H1536 H 0.05484 0.10658 0.91776 0.0
C1537 C 0.07682 0.09267 0.97903 0.0
C1538 C 0.03731 0.11685 0.96526 0.0
C1539 C 0.08472 0.0873 0.99479 0.0
C1540 C 0.0251 0.16811 0.91537 0.0
C1541 C 0.02379 0.15184 0.92387 0.0
C1542 C 0.04986 0.10973 0.93096 0.0
C1543 C 0.05604 0.09222 0.97567 0.0
C1544 C 0.04834 0.10187 0.96112 0.0
C1545 C 0.0392 0.14047 0.92338 0.0
C1546 C 0.04018 0.12572 0.9355 0.0
H1547 H 0.041 0.07457 0.01291 0.0
H1548 H 0.02711 0.0846 0.98544 0.0
H1549 H 0.06256 0.08649 0.9402 0.0
H1550 H 0.06887 0.16436 0.89658 0.0
H1551 H 0.06731 0.13671 0.91213 0.0
C1552 C 0.37036 0.29589 0.27547 0.0
C1553 C 0.35551 0.2814 0.27918 0.0
C1554 C 0.38155 0.29266 0.26083 0.0
C1555 C 0.38084 0.26219 0.21728 0.0
H1556 H 0.43873 0.27652 0.22409 0.0
C1557 C 0.43102 0.23574 0.16411 0.0
C1558 C 0.44821 0.24805 0.16109 0.0
C1559 C 0.41989 0.24066 0.17837 0.0
C1560 C 0.42257 0.2727 0.22185 0.0
H1561 H 0.34053 0.25229 0.27027 0.0
H1562 H 0.35999 0.24666 0.24461 0.0
H1563 H 0.41873 0.28364 0.24902 0.0
H1564 H 0.46719 0.27527 0.17077 0.0
H1565 H 0.44745 0.28413 0.19555 0.0
H1566 H 0.38451 0.25144 0.19013 0.0
C1567 C 0.36296 0.26053 0.25303 0.0
C1568 C 0.4111 0.27673 0.23617 0.0
C1569 C 0.35191 0.26369 0.26779 0.0
C1570 C 0.45405 0.26544 0.17276 0.0
C1571 C 0.44278 0.27046 0.18702 0.0
C1572 C 0.39225 0.25831 0.20294 0.0
C1573 C 0.37801 0.27493 0.24947 0.0
C1574 C 0.39013 0.27134 0.23409 0.0
C1575 C 0.42549 0.25814 0.18997 0.0
C1576 C 0.41331 0.26328 0.20507 0.0
H1577 H 0.37365 0.30962 0.28412 0.0
H1578 H 0.39293 0.30407 0.25836 0.0
H1579 H 0.36468 0.25814 0.21518 0.0
H1580 H 0.42616 0.22214 0.1555 0.0
H1581 H 0.40698 0.23059 0.18041 0.0
C1582 C 0.58813 0.40121 0.02796 0.0
C1583 C 0.57306 0.40947 0.01962 0.0
C1584 C 0.58402 0.39081 0.04193 0.0
C1585 C 0.5459 0.37671 0.07295 0.0
H1586 H 0.56733 0.32894 0.06554 0.0
C1587 C 0.51507 0.3069 0.10079 0.0
C1588 C 0.52888 0.29462 0.10433 0.0
C1589 C 0.52145 0.32411 0.09436 0.0
C1590 C 0.5615 0.34233 0.06813 0.0
H1591 H 0.54224 0.41432 0.01981 0.0
H1592 H 0.53476 0.39568 0.04404 0.0
H1593 H 0.57684 0.35334 0.04729 0.0
H1594 H 0.5603 0.29149 0.10579 0.0
H1595 H 0.57152 0.32169 0.09539 0.0
H1596 H 0.53 0.36511 0.09355 0.0
C1597 C 0.54989 0.39752 0.04007 0.0
C1598 C 0.567 0.35641 0.05761 0.0
C1599 C 0.55412 0.40818 0.02619 0.0
C1600 C 0.54932 0.30062 0.10296 0.0
C1601 C 0.55571 0.31785 0.09685 0.0
C1602 C 0.54034 0.3625 0.08355 0.0
C1603 C 0.5646 0.38809 0.04763 0.0
C1604 C 0.5593 0.3738 0.05982 0.0
C1605 C 0.54174 0.32932 0.09157 0.0
C1606 C 0.5481 0.34512 0.08124 0.0
H1607 H 0.60287 0.4021 0.02312 0.0
H1608 H 0.59586 0.38419 0.04775 0.0
H1609 H 0.53972 0.38995 0.07504 0.0
H1610 H 0.4992 0.30253 0.10164 0.0
H1611 H 0.51029 0.33259 0.09042 0.0
C1612 C 0.67469 0.21404 0.24192 0.0
C1613 C 0.68198 0.19831 0.23282 0.0
C1614 C 0.65573 0.21815 0.23644 0.0
C1615 C 0.62594 0.23101 0.20987 0.0
H1616 H 0.57915 0.19272 0.19285 0.0
C1617 C 0.57159 0.23512 0.14949 0.0
C1618 C 0.55082 0.2306 0.15047 0.0
C1619 C 0.58521 0.23292 0.16352 0.0
C1620 C 0.59195 0.20365 0.19782 0.0
H1621 H 0.67488 0.1738 0.21181 0.0
H1622 H 0.64169 0.18071 0.20245 0.0
H1623 H 0.60693 0.18434 0.2113 0.0
H1624 H 0.52801 0.2205 0.16707 0.0
H1625 H 0.55208 0.21606 0.19156 0.0
H1626 H 0.61149 0.24998 0.19553 0.0
C1627 C 0.65052 0.18993 0.21374 0.0
C1628 C 0.60788 0.19883 0.20827 0.0
C1629 C 0.66953 0.18602 0.21902 0.0
C1630 C 0.54394 0.22414 0.16598 0.0
C1631 C 0.55766 0.22154 0.17993 0.0
C1632 C 0.61015 0.23574 0.19924 0.0
C1633 C 0.64367 0.20638 0.22199 0.0
C1634 C 0.62528 0.21231 0.21397 0.0
C1635 C 0.57843 0.22586 0.17877 0.0
C1636 C 0.59327 0.22195 0.19268 0.0
H1637 H 0.6841 0.22377 0.25253 0.0
H1638 H 0.65079 0.23088 0.24307 0.0
H1639 H 0.6392 0.24166 0.21392 0.0
H1640 H 0.57736 0.24024 0.13776 0.0
H1641 H 0.60113 0.23616 0.16216 0.0
C1642 C 0.45012 0.05574 1.00072 0.0
C1643 C 0.46213 0.05211 0.98658 0.0
C1644 C 0.45591 0.07151 0.01419 0.0
C1645 C 0.4845 0.11968 0.02215 0.0
H1646 H 0.47989 0.11595 0.07234 0.0
C1647 C 0.50346 0.18677 0.07602 0.0
C1648 C 0.49082 0.18837 0.08989 0.0
C1649 C 0.50241 0.16946 0.0645 0.0
C1650 C 0.48107 0.11731 0.05837 0.0
H1651 H 0.48998 0.06218 0.97593 0.0
H1652 H 0.49974 0.09007 0.99923 0.0
H1653 H 0.4734 0.08694 0.05014 0.0
H1654 H 0.46737 0.17287 0.10271 0.0
H1655 H 0.46504 0.14291 0.08232 0.0
H1656 H 0.4913 0.15001 0.03009 0.0
C1657 C 0.48585 0.08058 0.9998 0.0
C1658 C 0.47744 0.10065 0.04568 0.0
C1659 C 0.4802 0.06463 0.98642 0.0
C1660 C 0.47742 0.17212 0.09223 0.0
C1661 C 0.47617 0.15486 0.08056 0.0
C1662 C 0.48789 0.13635 0.03479 0.0
C1663 C 0.4737 0.08422 0.01376 0.0
C1664 C 0.47895 0.10169 0.02741 0.0
C1665 C 0.48846 0.15336 0.06637 0.0
C1666 C 0.48604 0.13543 0.05308 0.0
H1667 H 0.43588 0.04676 0.00114 0.0
H1668 H 0.44608 0.07412 0.02462 0.0
H1669 H 0.48551 0.12094 0.00813 0.0
H1670 H 0.51395 0.19896 0.0738 0.0
H1671 H 0.51241 0.1688 0.05399 0.0
C1672 C 0.31851 0.3445 0.73789 0.0
C1673 C 0.30085 0.3424 0.72634 0.0
C1674 C 0.33208 0.36156 0.74046 0.0
C1675 C 0.33853 0.41241 0.74056 0.0
H1676 H 0.39228 0.40742 0.72801 0.0
C1677 C 0.4016 0.4782 0.74551 0.0
C1678 C 0.4212 0.47538 0.75072 0.0
C1679 C 0.38596 0.4626 0.74182 0.0
C1680 C 0.37747 0.40911 0.73187 0.0
H1681 H 0.28314 0.35654 0.70883 0.0
H1682 H 0.3068 0.38683 0.7138 0.0
H1683 H 0.36649 0.37921 0.7237 0.0
H1684 H 0.43963 0.45419 0.75688 0.0
H1685 H 0.41248 0.42735 0.75128 0.0
H1686 H 0.34964 0.44215 0.74953 0.0
C1687 C 0.3101 0.37513 0.72067 0.0
C1688 C 0.36268 0.39294 0.72924 0.0
C1689 C 0.29668 0.35787 0.7178 0.0
C1690 C 0.42476 0.4568 0.75259 0.0
C1691 C 0.40915 0.44134 0.74924 0.0
C1692 C 0.35346 0.42861 0.74354 0.0
C1693 C 0.32806 0.37694 0.73177 0.0
C1694 C 0.34318 0.39441 0.73372 0.0
C1695 C 0.38958 0.44393 0.74354 0.0
C1696 C 0.37322 0.4271 0.73945 0.0
H1697 H 0.32215 0.3327 0.74448 0.0
H1698 H 0.34584 0.36269 0.74911 0.0
H1699 H 0.32354 0.41381 0.74414 0.0
H1700 H 0.39843 0.49237 0.74392 0.0
H1701 H 0.37114 0.46515 0.73732 0.0
C1702 C 0.29445 0.66646 0.77631 0.0
C1703 C 0.2796 0.6643 0.78821 0.0
C1704 C 0.31022 0.65581 0.77656 0.0
C1705 C 0.32502 0.61151 0.78829 0.0
H1706 H 0.37898 0.6381 0.78703 0.0
C1707 C 0.39492 0.57224 0.78692 0.0
C1708 C 0.40925 0.57823 0.7755 0.0
C1709 C 0.37913 0.5826 0.79041 0.0
C1710 C 0.364 0.63038 0.78721 0.0
H1711 H 0.26948 0.64913 0.80958 0.0
H1712 H 0.29707 0.63018 0.80984 0.0
H1713 H 0.35119 0.65627 0.7892 0.0
H1714 H 0.41804 0.59965 0.75863 0.0
H1715 H 0.39057 0.61727 0.76433 0.0
H1716 H 0.33774 0.58551 0.78566 0.0
C1717 C 0.29645 0.64022 0.80038 0.0
C1718 C 0.34809 0.64084 0.78852 0.0
C1719 C 0.28077 0.65111 0.8003 0.0
C1720 C 0.4074 0.59469 0.76762 0.0
C1721 C 0.39166 0.60492 0.77101 0.0
C1722 C 0.34095 0.60098 0.78678 0.0
C1723 C 0.31143 0.6426 0.7886 0.0
C1724 C 0.32839 0.6315 0.78875 0.0
C1725 C 0.37735 0.59912 0.78252 0.0
C1726 C 0.3606 0.61027 0.78586 0.0
H1727 H 0.29405 0.67665 0.76696 0.0
H1728 H 0.32144 0.65782 0.76721 0.0
H1729 H 0.30995 0.60394 0.78838 0.0
H1730 H 0.39593 0.55962 0.79321 0.0
H1731 H 0.36846 0.57779 0.79944 0.0
C1732 C 0.89432 0.48734 0.45307 0.0
C1733 C 0.91395 0.49207 0.46159 0.0
C1734 C 0.88044 0.47346 0.45871 0.0
C1735 C 0.87631 0.43112 0.48108 0.0
H1736 H 0.82345 0.44258 0.49069 0.0
C1737 C 0.82064 0.37815 0.51104 0.0
C1738 C 0.80016 0.37612 0.50509 0.0
C1739 C 0.83438 0.39291 0.50652 0.0
C1740 C 0.83802 0.43899 0.48782 0.0
H1741 H 0.93454 0.48584 0.48251 0.0
H1742 H 0.91034 0.46119 0.49216 0.0
H1743 H 0.8477 0.46671 0.48071 0.0
H1744 H 0.77799 0.38812 0.48985 0.0
H1745 H 0.802 0.41346 0.48141 0.0
H1746 H 0.86663 0.40325 0.48754 0.0
C1747 C 0.9057 0.46834 0.48119 0.0
C1748 C 0.85193 0.45288 0.48218 0.0
C1749 C 0.9195 0.48246 0.47573 0.0
C1750 C 0.79366 0.38938 0.49475 0.0
C1751 C 0.80746 0.40398 0.48998 0.0
C1752 C 0.86232 0.41713 0.48646 0.0
C1753 C 0.88599 0.46382 0.47282 0.0
C1754 C 0.87123 0.4491 0.47881 0.0
C1755 C 0.82807 0.40584 0.49566 0.0
C1756 C 0.84298 0.42087 0.48997 0.0
H1757 H 0.88959 0.49468 0.44226 0.0
H1758 H 0.86539 0.47015 0.45196 0.0
H1759 H 0.89101 0.42775 0.47836 0.0
H1760 H 0.82611 0.3683 0.5192 0.0
H1761 H 0.84998 0.39412 0.51157 0.0
C1762 C 0.76483 0.86139 0.81527 0.0
C1763 C 0.78022 0.85381 0.80653 0.0
C1764 C 0.7507 0.86978 0.80595 0.0
C1765 C 0.74553 0.89435 0.7668 0.0
H1766 H 0.69013 0.89192 0.77764 0.0
C1767 C 0.69433 0.94023 0.73467 0.0
C1768 C 0.68307 0.95044 0.7464 0.0
C1769 C 0.7032 0.92505 0.73982 0.0
C1770 C 0.70557 0.89281 0.77451 0.0
H1771 H 0.7923 0.84834 0.78093 0.0
H1772 H 0.76745 0.8629 0.76451 0.0
H1773 H 0.71134 0.87125 0.79049 0.0
H1774 H 0.67126 0.95188 0.77232 0.0
H1775 H 0.68702 0.92558 0.78145 0.0
H1776 H 0.74009 0.91627 0.75133 0.0
C1777 C 0.76649 0.86253 0.77868 0.0
C1778 C 0.71773 0.88095 0.78186 0.0
C1779 C 0.78062 0.85404 0.78803 0.0
C1780 C 0.6798 0.94429 0.76294 0.0
C1781 C 0.68883 0.92916 0.76816 0.0
C1782 C 0.73341 0.90621 0.7595 0.0
C1783 C 0.75159 0.87083 0.78762 0.0
C1784 C 0.73796 0.8818 0.77832 0.0
C1785 C 0.7012 0.91978 0.75689 0.0
C1786 C 0.71336 0.90581 0.76345 0.0
H1787 H 0.76394 0.86117 0.82947 0.0
H1788 H 0.73958 0.87614 0.81331 0.0
H1789 H 0.7611 0.89566 0.76403 0.0
H1790 H 0.69694 0.94441 0.72172 0.0
H1791 H 0.71218 0.91784 0.7306 0.0
C1792 C 0.6118 0.52882 0.99438 0.0
C1793 C 0.61338 0.50929 0.99015 0.0
C1794 C 0.62901 0.54269 0.9981 0.0
C1795 C 0.68231 0.5504 0.98932 0.0
H1796 H 0.68447 0.59653 0.02369 0.0
C1797 C 0.75163 0.61093 0.00323 0.0
C1798 C 0.74727 0.62975 0.00426 0.0
C1799 C 0.73619 0.59539 0.00264 0.0
C1800 C 0.68405 0.58376 0.01397 0.0
H1801 H 0.63439 0.48902 0.98698 0.0
H1802 H 0.66439 0.51317 0.99394 0.0
H1803 H 0.65598 0.57086 0.02149 0.0
H1804 H 0.72314 0.64686 0.00533 0.0
H1805 H 0.69647 0.61991 0.00425 0.0
H1806 H 0.71035 0.56345 0.98172 0.0
C1807 C 0.64982 0.51779 0.99412 0.0
C1808 C 0.66771 0.56905 0.0127 0.0
C1809 C 0.6326 0.50391 0.99038 0.0
C1810 C 0.72714 0.63261 0.00457 0.0
C1811 C 0.7118 0.61715 0.0041 0.0
C1812 C 0.69871 0.5651 0.99065 0.0
C1813 C 0.64824 0.53738 0.99771 0.0
C1814 C 0.66645 0.55232 1.00015 0.0
C1815 C 0.71612 0.59838 0.00323 0.0
C1816 C 0.69958 0.58208 0.00277 0.0
H1817 H 0.59723 0.53343 0.99446 0.0
H1818 H 0.62718 0.55764 1.00064 0.0
H1819 H 0.68173 0.53783 0.97934 0.0
H1820 H 0.76695 0.60818 0.00298 0.0
H1821 H 0.74 0.58108 0.00203 0.0
C1822 C 0.26759 0.68985 0.23223 0.0
C1823 C 0.28798 0.69036 0.22948 0.0
C1824 C 0.25441 0.67249 0.22914 0.0
C1825 C 0.25541 0.62101 0.2285 0.0
H1826 H 0.19885 0.6161 0.2124 0.0
C1827 C 0.20263 0.54998 0.22664 0.0
C1828 C 0.18454 0.55141 0.23437 0.0
C1829 C 0.21437 0.56626 0.22247 0.0
C1830 C 0.21461 0.61728 0.21696 0.0
H1831 H 0.31024 0.67324 0.22022 0.0
H1832 H 0.28718 0.64291 0.2146 0.0
H1833 H 0.22121 0.64594 0.21108 0.0
H1834 H 0.16417 0.57095 0.24306 0.0
H1835 H 0.18479 0.59942 0.23597 0.0
H1836 H 0.24882 0.59261 0.23478 0.0
C1837 C 0.28147 0.65589 0.21954 0.0
C1838 C 0.22742 0.63436 0.21621 0.0
C1839 C 0.29467 0.67325 0.2227 0.0
C1840 C 0.17803 0.56936 0.23712 0.0
C1841 C 0.18981 0.58567 0.23296 0.0
C1842 C 0.24264 0.60396 0.22922 0.0
C1843 C 0.2613 0.65522 0.22318 0.0
C1844 C 0.24793 0.63652 0.22222 0.0
C1845 C 0.20835 0.58437 0.22598 0.0
C1846 C 0.22204 0.60197 0.22369 0.0
H1847 H 0.26202 0.70274 0.23768 0.0
H1848 H 0.23906 0.67251 0.23231 0.0
H1849 H 0.27102 0.62226 0.23358 0.0
H1850 H 0.20811 0.5364 0.22433 0.0
H1851 H 0.22842 0.56471 0.21684 0.0
C1852 C 0.9674 0.53554 0.04464 0.0
C1853 C 0.96581 0.51792 0.0333 0.0
C1854 C 0.95255 0.54719 0.04325 0.0
C1855 C 0.91284 0.55657 0.01094 0.0
H1856 H 0.89778 0.58739 0.05264 0.0
C1857 C 0.85317 0.60761 0.00693 0.0
C1858 C 0.85833 0.62574 0.01754 0.0
C1859 C 0.86494 0.59318 0.00873 0.0
C1860 C 0.90192 0.57895 0.04084 0.0
H1861 H 0.94689 0.49826 0.01225 0.0
H1862 H 0.9209 0.5185 0.00993 0.0
H1863 H 0.92035 0.56423 0.05658 0.0
H1864 H 0.8801 0.64299 0.03814 0.0
H1865 H 0.90049 0.61805 0.04116 0.0
H1866 H 0.89452 0.57149 0.99521 0.0
C1867 C 0.93383 0.52352 0.01963 0.0
C1868 C 0.91487 0.56569 0.04311 0.0
C1869 C 0.94869 0.5119 0.021 0.0
C1870 C 0.87559 0.62918 0.02979 0.0
C1871 C 0.88724 0.61482 0.03164 0.0
C1872 C 0.89983 0.56983 0.00867 0.0
C1873 C 0.93574 0.54146 0.03054 0.0
C1874 C 0.92075 0.55453 0.02818 0.0
C1875 C 0.882 0.5966 0.02126 0.0
C1876 C 0.89449 0.5814 0.0236 0.0
H1877 H 0.98053 0.54073 0.05408 0.0
H1878 H 0.95466 0.56102 0.05171 0.0
H1879 H 0.91724 0.54839 0.99912 0.0
H1880 H 0.83995 0.60449 0.99738 0.0
H1881 H 0.86048 0.57926 1.00058 0.0
C1882 C 0.09508 0.97382 0.04806 0.0
C1883 C 0.10135 0.99333 0.04706 0.0
C1884 C 0.10657 0.95992 0.0417 0.0
C1885 C 0.14545 0.94996 0.01179 0.0
H1886 H 0.16299 0.91912 0.0465 0.0
C1887 C 0.19638 0.88986 0.99957 0.0
C1888 C 0.21325 0.89272 0.01226 0.0
C1889 C 0.18136 0.90145 0.00169 0.0
C1890 C 0.15805 0.92753 0.03663 0.0
H1891 H 0.1249 0.01328 0.03851 0.0
H1892 H 0.14425 0.98901 0.02685 0.0
H1893 H 0.13797 0.93987 0.05376 0.0
H1894 H 0.2279 0.91048 0.03669 0.0
H1895 H 0.2016 0.93025 0.04045 0.0
H1896 H 0.1658 0.93769 0.99475 0.0
C1897 C 0.13039 0.98452 0.03248 0.0
C1898 C 0.14367 0.93927 0.04073 0.0
C1899 C 0.11916 0.99843 0.03911 0.0
C1900 C 0.21513 0.90782 0.02667 0.0
C1901 C 0.20002 0.9191 0.02892 0.0
C1902 C 0.15958 0.9379 0.00755 0.0
C1903 C 0.12438 0.96518 0.03392 0.0
C1904 C 0.13756 0.95092 0.02852 0.0
C1905 C 0.18284 0.91579 0.01667 0.0
C1906 C 0.16633 0.92695 0.02012 0.0
H1907 H 0.08134 0.96926 0.05382 0.0
H1908 H 0.10161 0.94506 0.04292 0.0
H1909 H 0.14092 0.95879 0.00214 0.0
H1910 H 0.1945 0.87836 0.98833 0.0
H1911 H 0.16824 0.89872 0.99203 0.0
loop_
_geom_bond_atom_site_label_1
_geom_bond_atom_site_label_2
_geom_bond_distance
_geom_bond_site_symmetry_2
_ccdc_geom_bond_type
H0 C1 0.949 . S
C1 H0 0.949 . S
C1 C2 1.395 . S
C1 C3 1.391 . S
C2 C1 1.395 . S
C2 C5 1.390 . S
C3 C1 1.391 . S
C3 C7 1.387 . S
C3 C8 1.491 . S
H4 C5 0.950 1_565 S
C5 C2 1.390 . S
C5 H4 0.950 1_545 S
C5 C6 1.378 . S
C6 C5 1.378 . S
C6 C7 1.409 . S
C7 C3 1.387 . S
C7 C6 1.409 . S
C7 H9 0.951 . S
C8 C3 1.491 . S
C8 C10 1.382 . S
C8 C12 1.404 . S
H9 C7 0.951 . S
C10 C8 1.382 . S
C10 C11 1.390 1_554 S
C10 H15 0.976 . S
C11 C10 1.390 1_556 S
C11 C16 1.399 1_556 S
C12 C8 1.404 . S
C12 H13 0.950 . S
C12 C14 1.375 . S
H13 C12 0.950 . S
C14 C12 1.375 . S
C14 C16 1.382 . S
C14 H18 0.950 . S
H15 C10 0.976 . S
C16 C11 1.399 1_554 S
C16 C14 1.382 . S
C16 H17 0.952 . S
H17 C16 0.952 . S
H18 C14 0.950 . S
H19 C20 0.949 . S
C20 H19 0.949 . S
C20 C21 1.395 . S
C20 C22 1.391 . S
C21 C20 1.395 . S
C21 C24 1.390 . S
C22 C20 1.391 . S
C22 C26 1.387 . S
C22 C27 1.491 . S
H23 C24 0.950 . S
C24 C21 1.390 . S
C24 H23 0.950 . S
C24 C25 1.378 . S
C25 C24 1.378 . S
C25 C26 1.409 . S
C26 C22 1.387 . S
C26 C25 1.409 . S
C26 H28 0.951 . S
C27 C22 1.491 . S
C27 C29 1.382 . S
C27 C31 1.404 . S
H28 C26 0.951 . S
C29 C27 1.382 . S
C29 C30 1.390 . S
C29 H34 0.949 . S
C30 C29 1.390 . S
C30 C35 1.399 . S
C31 C27 1.404 . S
C31 H32 0.950 . S
C31 C33 1.375 . S
H32 C31 0.950 . S
C33 C31 1.375 . S
C33 C35 1.382 . S
C33 H37 0.950 . S
H34 C29 0.949 . S
C35 C30 1.399 . S
C35 C33 1.382 . S
C35 H36 0.952 . S
H36 C35 0.952 . S
H37 C33 0.950 . S
H38 C39 0.949 . S
C39 H38 0.949 . S
C39 C40 1.395 . S
C39 C41 1.391 1_455 S
C40 C39 1.395 . S
C40 C43 1.390 1_455 S
C41 C39 1.391 1_655 S
C41 C45 1.387 . S
C41 C46 1.480 1_655 S
H42 C43 0.950 . S
C43 C40 1.390 1_655 S
C43 H42 0.950 . S
C43 C44 1.378 . S
C44 C43 1.378 . S
C44 C45 1.409 . S
C45 C41 1.387 . S
C45 C44 1.409 . S
C45 H47 0.951 . S
C46 C41 1.480 1_455 S
C46 C48 1.393 . S
C46 C50 1.407 1_554 S
H47 C45 0.951 . S
C48 C46 1.393 . S
C48 C49 1.390 1_554 S
C48 H53 0.949 . S
C49 C48 1.390 1_556 S
C49 C54 1.399 . S
C50 C46 1.407 1_556 S
C50 H51 0.951 1_455 S
C50 C52 1.375 . S
H51 C50 0.951 1_655 S
C52 C50 1.375 . S
C52 C54 1.382 . S
C52 H56 0.950 . S
H53 C48 0.949 . S
C54 C49 1.399 . S
C54 C52 1.382 . S
C54 H55 0.952 . S
H55 C54 0.952 . S
H56 C52 0.950 . S
H57 C58 0.949 . S
C58 H57 0.949 . S
C58 C59 1.395 . S
C58 C60 1.391 . S
C59 C58 1.395 . S
C59 C62 1.390 . S
C60 C58 1.391 . S
C60 C64 1.387 . S
C60 C65 1.491 . S
H61 C62 0.950 . S
C62 C59 1.390 . S
C62 H61 0.950 . S
C62 C63 1.378 . S
C63 C62 1.378 . S
C63 C64 1.409 . S
C64 C60 1.387 . S
C64 C63 1.409 . S
C64 H66 0.951 . S
C65 C60 1.491 . S
C65 C67 1.382 . S
C65 C69 1.404 . S
H66 C64 0.951 . S
C67 C65 1.382 . S
C67 C68 1.390 . S
C67 H72 0.949 . S
C68 C67 1.390 . S
C68 C73 1.399 . S
C69 C65 1.404 . S
C69 H70 0.950 . S
C69 C71 1.375 . S
H70 C69 0.950 . S
C71 C69 1.375 . S
C71 C73 1.382 . S
C71 H75 0.950 . S
H72 C67 0.949 . S
C73 C68 1.399 . S
C73 C71 1.382 . S
C73 H74 0.952 . S
H74 C73 0.952 . S
H75 C71 0.950 . S
H76 C77 0.949 . S
C77 H76 0.949 . S
C77 C78 1.395 . S
C77 C79 1.391 . S
C78 C77 1.395 . S
C78 C81 1.390 . S
C79 C77 1.391 . S
C79 C83 1.387 . S
C79 C84 1.491 . S
H80 C81 0.946 1_545 S
C81 C78 1.390 . S
C81 H80 0.946 1_565 S
C81 C82 1.378 . S
C82 C81 1.378 . S
C82 C83 1.409 . S
C83 C79 1.387 . S
C83 C82 1.409 . S
C83 H85 0.951 . S
C84 C79 1.491 . S
C84 C86 1.382 . S
C84 C88 1.404 . S
H85 C83 0.951 . S
C86 C84 1.382 . S
C86 C87 1.390 . S
C86 H91 0.949 . S
C87 C86 1.390 . S
C87 C92 1.399 . S
C88 C84 1.404 . S
C88 H89 0.950 . S
C88 C90 1.375 . S
H89 C88 0.950 . S
C90 C88 1.375 . S
C90 C92 1.382 . S
C90 H94 0.950 . S
H91 C86 0.949 . S
C92 C87 1.399 . S
C92 C90 1.382 . S
C92 H93 0.952 . S
H93 C92 0.952 . S
H94 C90 0.950 . S
H95 C96 0.949 . S
C96 H95 0.949 . S
C96 C97 1.395 . S
C96 C98 1.391 . S
C97 C96 1.395 . S
C97 C100 1.390 . S
C98 C96 1.391 . S
C98 C102 1.387 . S
C98 C103 1.491 . S
H99 C100 0.950 . S
C100 C97 1.390 . S
C100 H99 0.950 . S
C100 C101 1.378 . S
C101 C100 1.378 . S
C101 C102 1.409 . S
C102 C98 1.387 . S
C102 C101 1.409 . S
C102 H104 0.951 . S
C103 C98 1.491 . S
C103 C105 1.382 . S
C103 C107 1.404 . S
H104 C102 0.951 . S
C105 C103 1.382 . S
C105 C106 1.390 . S
C105 H110 0.949 . S
C106 C105 1.390 . S
C106 C111 1.399 . S
C107 C103 1.404 . S
C107 H108 0.950 . S
C107 C109 1.375 . S
H108 C107 0.950 . S
C109 C107 1.375 . S
C109 C111 1.382 . S
C109 H113 0.950 . S
H110 C105 0.949 . S
C111 C106 1.399 . S
C111 C109 1.382 . S
C111 H112 0.952 . S
H112 C111 0.952 . S
H113 C109 0.950 . S
H114 C115 0.949 . S
C115 H114 0.949 . S
C115 C116 1.395 . S
C115 C117 1.391 . S
C116 C115 1.395 . S
C116 C119 1.390 . S
C117 C115 1.391 . S
C117 C121 1.387 . S
C117 C122 1.491 . S
H118 C119 0.950 . S
C119 C116 1.390 . S
C119 H118 0.950 . S
C119 C120 1.378 . S
C120 C119 1.378 . S
C120 C121 1.409 . S
C121 C117 1.387 . S
C121 C120 1.409 . S
C121 H123 0.951 . S
C122 C117 1.491 . S
C122 C124 1.382 . S
C122 C126 1.404 . S
H123 C121 0.951 . S
C124 C122 1.382 . S
C124 C125 1.390 . S
C124 H129 0.949 1_655 S
C125 C124 1.390 . S
C125 C130 1.400 . S
C126 C122 1.404 . S
C126 H127 0.950 . S
C126 C128 1.375 . S
H127 C126 0.950 . S
C128 C126 1.375 . S
C128 C130 1.382 . S
C128 H132 0.950 . S
H129 C124 0.949 1_455 S
C130 C125 1.400 . S
C130 C128 1.382 . S
C130 H131 0.952 . S
H131 C130 0.952 . S
H132 C128 0.950 . S
H133 C134 0.949 . S
C134 H133 0.949 . S
C134 C135 1.395 . S
C134 C136 1.391 . S
C135 C134 1.395 . S
C135 C138 1.390 . S
C136 C134 1.391 . S
C136 C140 1.387 . S
C136 C141 1.491 . S
H137 C138 0.950 . S
C138 C135 1.390 . S
C138 H137 0.950 . S
C138 C139 1.378 . S
C139 C138 1.378 . S
C139 C140 1.409 . S
C140 C136 1.387 . S
C140 C139 1.409 . S
C140 H142 0.951 . S
C141 C136 1.491 . S
C141 C143 1.382 . S
C141 C145 1.404 . S
H142 C140 0.951 . S
C143 C141 1.382 . S
C143 C144 1.390 . S
C143 H148 0.949 . S
C144 C143 1.390 . S
C144 C149 1.399 . S
C145 C141 1.404 . S
C145 H146 0.950 . S
C145 C147 1.375 . S
H146 C145 0.950 . S
C147 C145 1.375 . S
C147 C149 1.382 . S
C147 H151 0.950 . S
H148 C143 0.949 . S
C149 C144 1.399 . S
C149 C147 1.382 . S
C149 H150 0.952 . S
H150 C149 0.952 . S
H151 C147 0.950 . S
H152 C153 0.949 . S
C153 H152 0.949 . S
C153 C154 1.395 . S
C153 C155 1.391 . S
C154 C153 1.395 . S
C154 C157 1.390 . S
C155 C153 1.391 . S
C155 C159 1.387 . S
C155 C160 1.491 . S
H156 C157 0.950 . S
C157 C154 1.390 . S
C157 H156 0.950 . S
C157 C158 1.378 . S
C158 C157 1.378 . S
C158 C159 1.409 . S
C159 C155 1.387 . S
C159 C158 1.409 . S
C159 H161 0.951 . S
C160 C155 1.491 . S
C160 C162 1.382 . S
C160 C164 1.404 . S
H161 C159 0.951 . S
C162 C160 1.382 . S
C162 C163 1.390 . S
C162 H167 0.949 . S
C163 C162 1.390 . S
C163 C168 1.399 . S
C164 C160 1.404 . S
C164 H165 0.950 . S
C164 C166 1.375 . S
H165 C164 0.950 . S
C166 C164 1.375 . S
C166 C168 1.382 . S
C166 H170 0.950 . S
H167 C162 0.949 . S
C168 C163 1.399 . S
C168 C166 1.382 . S
C168 H169 0.952 . S
H169 C168 0.952 . S
H170 C166 0.950 . S
H171 C172 0.949 . S
C172 H171 0.949 . S
C172 C173 1.395 . S
C172 C174 1.391 . S
C173 C172 1.395 . S
C173 C176 1.390 . S
C174 C172 1.391 . S
C174 C178 1.387 . S
C174 C179 1.491 . S
H175 C176 0.950 . S
C176 C173 1.390 . S
C176 H175 0.950 . S
C176 C177 1.378 . S
C177 C176 1.378 . S
C177 C178 1.409 . S
C178 C174 1.387 . S
C178 C177 1.409 . S
C178 H180 0.951 . S
C179 C174 1.491 . S
C179 C181 1.382 . S
C179 C183 1.404 . S
H180 C178 0.951 . S
C181 C179 1.382 . S
C181 C182 1.390 . S
C181 H186 0.949 . S
C182 C181 1.390 . S
C182 C187 1.399 . S
C183 C179 1.404 . S
C183 H184 0.950 . S
C183 C185 1.375 . S
H184 C183 0.950 . S
C185 C183 1.375 . S
C185 C187 1.382 . S
C185 H189 0.950 . S
H186 C181 0.949 . S
C187 C182 1.399 . S
C187 C185 1.382 . S
C187 H188 0.952 . S
H188 C187 0.952 . S
H189 C185 0.950 . S
H190 C191 0.949 . S
C191 H190 0.949 . S
C191 C192 1.395 . S
C191 C193 1.391 . S
C192 C191 1.395 . S
C192 C195 1.390 . S
C193 C191 1.391 . S
C193 C197 1.387 . S
C193 C198 1.491 . S
H194 C195 0.950 . S
C195 C192 1.390 . S
C195 H194 0.950 . S
C195 C196 1.378 . S
C196 C195 1.378 . S
C196 C197 1.409 . S
C197 C193 1.387 . S
C197 C196 1.409 . S
C197 H199 0.951 . S
C198 C193 1.491 . S
C198 C200 1.382 . S
C198 C202 1.404 . S
H199 C197 0.951 . S
C200 C198 1.382 . S
C200 C201 1.390 . S
C200 H205 0.949 . S
C201 C200 1.390 . S
C201 C206 1.399 . S
C202 C198 1.404 . S
C202 H203 0.950 . S
C202 C204 1.375 . S
H203 C202 0.950 . S
C204 C202 1.375 . S
C204 C206 1.382 . S
C204 H208 0.950 . S
H205 C200 0.949 . S
C206 C201 1.399 . S
C206 C204 1.382 . S
C206 H207 0.952 . S
H207 C206 0.952 . S
H208 C204 0.950 . S
H209 C210 0.949 . S
C210 H209 0.949 . S
C210 C211 1.395 . S
C210 C212 1.391 . S
C211 C210 1.395 . S
C211 C214 1.390 . S
C212 C210 1.391 . S
C212 C216 1.387 . S
C212 C217 1.491 . S
H213 C214 0.950 . S
C214 C211 1.390 . S
C214 H213 0.950 . S
C214 C215 1.378 . S
C215 C214 1.378 . S
C215 C216 1.409 . S
C216 C212 1.387 . S
C216 C215 1.409 . S
C216 H218 0.951 . S
C217 C212 1.491 . S
C217 C219 1.382 . S
C217 C221 1.404 . S
H218 C216 0.951 . S
C219 C217 1.382 . S
C219 C220 1.390 . S
C219 H224 0.949 . S
C220 C219 1.390 . S
C220 C225 1.399 . S
C221 C217 1.404 . S
C221 H222 0.950 . S
C221 C223 1.375 . S
H222 C221 0.950 . S
C223 C221 1.375 . S
C223 C225 1.382 . S
C223 H227 0.950 . S
H224 C219 0.949 . S
C225 C220 1.399 . S
C225 C223 1.382 . S
C225 H226 0.952 . S
H226 C225 0.952 . S
H227 C223 0.950 . S
H228 C229 0.949 . S
C229 H228 0.949 . S
C229 C230 1.395 . S
C229 C231 1.391 . S
C230 C229 1.395 . S
C230 C233 1.390 . S
C231 C229 1.391 . S
C231 C235 1.387 . S
C231 C236 1.491 . S
H232 C233 0.950 . S
C233 C230 1.390 . S
C233 H232 0.950 . S
C233 C234 1.378 . S
C234 C233 1.378 . S
C234 C235 1.409 . S
C235 C231 1.387 . S
C235 C234 1.409 . S
C235 H237 0.951 . S
C236 C231 1.491 . S
C236 C238 1.382 . S
C236 C240 1.404 . S
H237 C235 0.951 . S
C238 C236 1.382 . S
C238 C239 1.390 . S
C238 H243 0.949 . S
C239 C238 1.390 . S
C239 C244 1.399 . S
C240 C236 1.404 . S
C240 H241 0.950 . S
C240 C242 1.375 . S
H241 C240 0.950 . S
C242 C240 1.375 . S
C242 C244 1.382 . S
C242 H246 0.950 . S
H243 C238 0.949 . S
C244 C239 1.399 . S
C244 C242 1.382 . S
C244 H245 0.952 . S
H245 C244 0.952 . S
H246 C242 0.950 . S
H247 C248 0.949 1_554 S
C248 H247 0.949 1_556 S
C248 C249 1.395 . S
C248 C250 1.391 . S
C249 C248 1.395 . S
C249 C252 1.390 . S
C250 C248 1.391 . S
C250 C254 1.387 . S
C250 C255 1.491 . S
H251 C252 0.950 . S
C252 C249 1.390 . S
C252 H251 0.950 . S
C252 C253 1.378 . S
C253 C252 1.378 . S
C253 C254 1.409 . S
C254 C250 1.387 . S
C254 C253 1.409 . S
C254 H256 0.951 . S
C255 C250 1.491 . S
C255 C257 1.382 1_556 S
C255 C259 1.404 . S
H256 C254 0.951 . S
C257 C255 1.382 1_554 S
C257 C258 1.390 . S
C257 H262 0.949 . S
C258 C257 1.390 . S
C258 C263 1.399 . S
C259 C255 1.404 . S
C259 H260 0.950 . S
C259 C261 1.375 . S
H260 C259 0.950 . S
C261 C259 1.375 . S
C261 C263 1.382 1_556 S
C261 H265 0.950 . S
H262 C257 0.949 . S
C263 C258 1.399 . S
C263 C261 1.382 1_554 S
C263 H264 0.952 . S
H264 C263 0.952 . S
H265 C261 0.950 . S
H266 C267 0.949 . S
C267 H266 0.949 . S
C267 C268 1.395 . S
C267 C269 1.391 . S
C268 C267 1.395 . S
C268 C271 1.390 . S
C269 C267 1.391 . S
C269 C273 1.387 . S
C269 C274 1.491 . S
H270 C271 0.950 . S
C271 C268 1.390 . S
C271 H270 0.950 . S
C271 C272 1.378 . S
C272 C271 1.378 . S
C272 C273 1.409 . S
C273 C269 1.387 . S
C273 C272 1.409 . S
C273 H275 0.951 . S
C274 C269 1.491 . S
C274 C276 1.382 . S
C274 C278 1.404 . S
H275 C273 0.951 . S
C276 C274 1.382 . S
C276 C277 1.390 . S
C276 H281 0.949 . S
C277 C276 1.390 . S
C277 C282 1.399 . S
C278 C274 1.404 . S
C278 H279 0.950 . S
C278 C280 1.375 . S
H279 C278 0.950 . S
C280 C278 1.375 . S
C280 C282 1.382 . S
C280 H284 0.950 . S
H281 C276 0.949 . S
C282 C277 1.399 . S
C282 C280 1.382 . S
C282 H283 0.952 . S
H283 C282 0.952 . S
H284 C280 0.950 . S
H285 C286 0.949 . S
C286 H285 0.949 . S
C286 C287 1.395 . S
C286 C288 1.391 . S
C287 C286 1.395 . S
C287 C290 1.390 . S
C288 C286 1.391 . S
C288 C292 1.387 . S
C288 C293 1.491 . S
H289 C290 0.950 . S
C290 C287 1.390 . S
C290 H289 0.950 . S
C290 C291 1.378 . S
C291 C290 1.378 . S
C291 C292 1.409 . S
C292 C288 1.387 . S
C292 C291 1.409 . S
C292 H294 0.951 . S
C293 C288 1.491 . S
C293 C295 1.382 . S
C293 C297 1.404 . S
H294 C292 0.951 . S
C295 C293 1.382 . S
C295 C296 1.390 . S
C295 H300 0.949 . S
C296 C295 1.390 . S
C296 C301 1.399 . S
C297 C293 1.404 . S
C297 H298 0.950 . S
C297 C299 1.375 . S
H298 C297 0.950 . S
C299 C297 1.375 . S
C299 C301 1.382 . S
C299 H303 0.950 . S
H300 C295 0.949 . S
C301 C296 1.399 . S
C301 C299 1.382 . S
C301 H302 0.952 . S
H302 C301 0.952 . S
H303 C299 0.950 . S
Mg304 O305 2.028 . S
Mg304 O311 1.986 . S
Mg304 O313 2.114 . S
Mg304 O314 2.251 . S
Mg304 O317 2.010 . S
O305 Mg304 2.028 . S
O305 C308 1.250 . S
O306 Mg307 2.028 . S
O306 C308 1.248 . S
Mg307 O306 2.028 . S
Mg307 O312 2.032 . S
Mg307 O314 2.079 . S
C308 O305 1.250 . S
C308 O306 1.248 . S
C309 O310 1.264 . S
C309 O317 1.249 . S
O310 C309 1.264 . S
O311 Mg304 1.986 . S
O311 C315 1.246 1_554 S
O312 Mg307 2.032 . S
O312 C315 1.259 1_554 S
O313 Mg304 2.114 . S
O313 C316 1.252 . S
O314 Mg304 2.251 . S
O314 Mg307 2.079 . S
O314 C316 1.273 . S
C315 O311 1.246 1_556 S
C315 O312 1.259 1_556 S
C316 O313 1.252 . S
C316 O314 1.273 . S
O317 Mg304 2.010 . S
O317 C309 1.249 . S
Mg318 O319 2.028 . S
Mg318 O325 1.986 . S
Mg318 O327 2.114 . S
Mg318 O328 2.251 . S
Mg318 O331 2.010 . S
O319 Mg318 2.028 . S
O319 C322 1.250 . S
O320 Mg321 2.028 . S
O320 C322 1.248 . S
Mg321 O320 2.028 . S
Mg321 O326 2.032 . S
Mg321 O328 2.079 . S
C322 O319 1.250 . S
C322 O320 1.248 . S
C323 O324 1.264 . S
C323 O331 1.249 . S
O324 C323 1.264 . S
O325 Mg318 1.986 . S
O325 C329 1.246 . S
O326 Mg321 2.032 . S
O326 C329 1.259 . S
O327 Mg318 2.114 . S
O327 C330 1.252 . S
O328 Mg318 2.251 . S
O328 Mg321 2.079 . S
O328 C330 1.273 . S
C329 O325 1.246 . S
C329 O326 1.259 . S
C330 O327 1.252 . S
C330 O328 1.273 . S
O331 Mg318 2.010 . S
O331 C323 1.249 . S
Mg332 O333 2.029 1_554 S
Mg332 O339 1.986 1_554 S
Mg332 O341 2.114 . S
Mg332 O342 2.251 . S
Mg332 O345 2.010 . S
O333 Mg332 2.029 1_556 S
O333 C336 1.250 . S
O334 Mg335 2.024 . S
O334 C336 1.248 . S
Mg335 O334 2.024 . S
Mg335 O340 2.069 . S
Mg335 O342 2.055 1_556 S
C336 O333 1.250 . S
C336 O334 1.248 . S
C337 O338 1.264 . S
C337 O345 1.249 . S
O338 C337 1.264 . S
O339 Mg332 1.986 1_556 S
O339 C343 1.246 . S
O340 Mg335 2.069 . S
O340 C343 1.259 . S
O341 Mg332 2.114 . S
O341 C344 1.252 . S
O342 Mg332 2.251 . S
O342 Mg335 2.055 1_554 S
O342 C344 1.273 . S
C343 O339 1.246 . S
C343 O340 1.259 . S
C344 O341 1.252 . S
C344 O342 1.273 . S
O345 Mg332 2.010 . S
O345 C337 1.249 . S
Mg346 O347 2.028 . S
Mg346 O353 1.986 . S
Mg346 O355 2.114 . S
Mg346 O356 2.251 . S
Mg346 O359 2.010 . S
O347 Mg346 2.028 . S
O347 C350 1.250 1_545 S
O348 Mg349 2.028 . S
O348 C350 1.248 . S
Mg349 O348 2.028 . S
Mg349 O354 2.032 1_565 S
Mg349 O356 2.079 1_565 S
C350 O347 1.250 1_565 S
C350 O348 1.248 . S
C351 O352 1.264 . S
C351 O359 1.249 . S
O352 C351 1.264 . S
O353 Mg346 1.986 . S
O353 C357 1.246 . S
O354 Mg349 2.032 1_545 S
O354 C357 1.259 . S
O355 Mg346 2.114 . S
O355 C358 1.252 . S
O356 Mg346 2.251 . S
O356 Mg349 2.079 1_545 S
O356 C358 1.273 . S
C357 O353 1.246 . S
C357 O354 1.259 . S
C358 O355 1.252 . S
C358 O356 1.273 . S
O359 Mg346 2.010 . S
O359 C351 1.249 . S
Mg360 O361 2.028 . S
Mg360 O367 1.986 . S
Mg360 O369 2.114 . S
Mg360 O370 2.251 . S
Mg360 O373 2.010 . S
O361 Mg360 2.028 . S
O361 C364 1.250 . S
O362 Mg363 2.028 . S
O362 C364 1.248 . S
Mg363 O362 2.028 . S
Mg363 O368 2.032 . S
Mg363 O370 2.079 . S
C364 O361 1.250 . S
C364 O362 1.248 . S
C365 O366 1.264 . S
C365 O373 1.249 . S
O366 C365 1.264 . S
O367 Mg360 1.986 . S
O367 C371 1.246 . S
O368 Mg363 2.032 . S
O368 C371 1.259 . S
O369 Mg360 2.114 . S
O369 C372 1.252 . S
O370 Mg360 2.251 . S
O370 Mg363 2.079 . S
O370 C372 1.273 . S
C371 O367 1.246 . S
C371 O368 1.259 . S
C372 O369 1.252 . S
C372 O370 1.273 . S
O373 Mg360 2.010 . S
O373 C365 1.249 . S
Mg374 O375 2.028 . S
Mg374 O381 1.986 . S
Mg374 O383 2.114 . S
Mg374 O384 2.251 . S
Mg374 O387 2.010 . S
O375 Mg374 2.028 . S
O375 C378 1.250 . S
O376 Mg377 2.028 . S
O376 C378 1.248 . S
Mg377 O376 2.028 . S
Mg377 O382 2.032 . S
Mg377 O384 2.079 . S
C378 O375 1.250 . S
C378 O376 1.248 . S
C379 O380 1.264 . S
C379 O387 1.249 . S
O380 C379 1.264 . S
O381 Mg374 1.986 . S
O381 C385 1.246 . S
O382 Mg377 2.032 . S
O382 C385 1.259 . S
O383 Mg374 2.114 . S
O383 C386 1.252 . S
O384 Mg374 2.251 . S
O384 Mg377 2.079 . S
O384 C386 1.273 . S
C385 O381 1.246 . S
C385 O382 1.259 . S
C386 O383 1.252 . S
C386 O384 1.273 . S
O387 Mg374 2.010 . S
O387 C379 1.249 . S
Mg388 O389 2.028 . S
Mg388 O395 1.986 . S
Mg388 O397 2.114 . S
Mg388 O398 2.251 . S
Mg388 O401 2.010 . S
O389 Mg388 2.028 . S
O389 C392 1.250 . S
O390 Mg391 2.028 . S
O390 C392 1.248 . S
Mg391 O390 2.028 . S
Mg391 O396 2.032 . S
Mg391 O398 2.079 . S
C392 O389 1.250 . S
C392 O390 1.248 . S
C393 O394 1.264 . S
C393 O401 1.249 . S
O394 C393 1.264 . S
O395 Mg388 1.986 . S
O395 C399 1.246 . S
O396 Mg391 2.032 . S
O396 C399 1.259 . S
O397 Mg388 2.114 . S
O397 C400 1.252 . S
O398 Mg388 2.251 . S
O398 Mg391 2.079 . S
O398 C400 1.273 . S
C399 O395 1.246 . S
C399 O396 1.259 . S
C400 O397 1.252 . S
C400 O398 1.273 . S
O401 Mg388 2.010 . S
O401 C393 1.249 . S
Mg402 O403 2.028 . S
Mg402 O409 1.986 1_545 S
Mg402 O411 2.114 . S
Mg402 O412 2.251 . S
Mg402 O415 2.010 . S
O403 Mg402 2.028 . S
O403 C406 1.250 . S
O404 Mg405 2.028 . S
O404 C406 1.248 . S
Mg405 O404 2.028 . S
Mg405 O410 2.032 1_545 S
Mg405 O412 2.079 . S
C406 O403 1.250 . S
C406 O404 1.248 . S
C407 O408 1.264 . S
C407 O415 1.249 . S
O408 C407 1.264 . S
O409 Mg402 1.986 1_565 S
O409 C413 1.246 . S
O410 Mg405 2.032 1_565 S
O410 C413 1.259 . S
O411 Mg402 2.114 . S
O411 C414 1.252 . S
O412 Mg402 2.251 . S
O412 Mg405 2.079 . S
O412 C414 1.273 . S
C413 O409 1.246 . S
C413 O410 1.259 . S
C414 O411 1.252 . S
C414 O412 1.273 . S
O415 Mg402 2.010 . S
O415 C407 1.249 . S
Mg416 O417 2.028 . S
Mg416 O423 1.986 . S
Mg416 O425 2.114 . S
Mg416 O426 2.251 . S
Mg416 O429 2.010 . S
O417 Mg416 2.028 . S
O417 C420 1.250 1_455 S
O418 Mg419 2.028 . S
O418 C420 1.248 . S
Mg419 O418 2.028 . S
Mg419 O424 2.032 . S
Mg419 O426 2.079 1_655 S
C420 O417 1.250 1_655 S
C420 O418 1.248 . S
C421 O422 1.264 . S
C421 O429 1.249 . S
O422 C421 1.264 . S
O423 Mg416 1.986 . S
O423 C427 1.246 . S
O424 Mg419 2.032 . S
O424 C427 1.259 1_655 S
O425 Mg416 2.114 . S
O425 C428 1.252 . S
O426 Mg416 2.251 . S
O426 Mg419 2.079 1_455 S
O426 C428 1.273 . S
C427 O423 1.246 . S
C427 O424 1.259 1_455 S
C428 O425 1.252 . S
C428 O426 1.273 . S
O429 Mg416 2.010 . S
O429 C421 1.249 . S
Mg430 O431 2.028 . S
Mg430 O437 1.986 . S
Mg430 O439 2.114 . S
Mg430 O440 2.251 . S
Mg430 O443 2.010 . S
O431 Mg430 2.028 . S
O431 C434 1.250 . S
O432 Mg433 2.028 . S
O432 C434 1.248 . S
Mg433 O432 2.028 . S
Mg433 O438 2.032 . S
Mg433 O440 2.079 . S
C434 O431 1.250 . S
C434 O432 1.248 . S
C435 O436 1.264 . S
C435 O443 1.249 . S
O436 C435 1.264 . S
O437 Mg430 1.986 . S
O437 C441 1.246 . S
O438 Mg433 2.032 . S
O438 C441 1.259 . S
O439 Mg430 2.114 . S
O439 C442 1.252 . S
O440 Mg430 2.251 . S
O440 Mg433 2.079 . S
O440 C442 1.273 . S
C441 O437 1.246 . S
C441 O438 1.259 . S
C442 O439 1.252 . S
C442 O440 1.273 . S
O443 Mg430 2.010 . S
O443 C435 1.249 . S
Mg444 O445 2.028 1_655 S
Mg444 O451 1.986 1_655 S
Mg444 O453 2.114 . S
Mg444 O454 2.251 1_655 S
Mg444 O457 2.010 . S
O445 Mg444 2.028 1_455 S
O445 C448 1.250 . S
O446 Mg447 2.028 . S
O446 C448 1.248 . S
Mg447 O446 2.028 . S
Mg447 O452 2.032 . S
Mg447 O454 2.079 . S
C448 O445 1.250 . S
C448 O446 1.248 . S
C449 O450 1.264 . S
C449 O457 1.249 . S
O450 C449 1.264 . S
O451 Mg444 1.986 1_455 S
O451 C455 1.246 . S
O452 Mg447 2.032 . S
O452 C455 1.259 . S
O453 Mg444 2.114 . S
O453 C456 1.252 . S
O454 Mg444 2.251 1_455 S
O454 Mg447 2.079 . S
O454 C456 1.273 1_455 S
C455 O451 1.246 . S
C455 O452 1.259 . S
C456 O453 1.252 . S
C456 O454 1.273 1_655 S
O457 Mg444 2.010 . S
O457 C449 1.249 . S
Mg458 O459 2.028 . S
Mg458 O465 1.986 . S
Mg458 O467 2.114 . S
Mg458 O468 2.251 . S
Mg458 O471 2.010 . S
O459 Mg458 2.028 . S
O459 C462 1.250 . S
O460 Mg461 2.028 . S
O460 C462 1.248 . S
Mg461 O460 2.028 . S
Mg461 O466 2.032 . S
Mg461 O468 2.079 . S
C462 O459 1.250 . S
C462 O460 1.248 . S
C463 O464 1.264 . S
C463 O471 1.249 . S
O464 C463 1.264 . S
O465 Mg458 1.986 . S
O465 C469 1.246 . S
O466 Mg461 2.032 . S
O466 C469 1.259 . S
O467 Mg458 2.114 . S
O467 C470 1.252 . S
O468 Mg458 2.251 . S
O468 Mg461 2.079 . S
O468 C470 1.273 . S
C469 O465 1.246 . S
C469 O466 1.259 . S
C470 O467 1.252 . S
C470 O468 1.273 . S
O471 Mg458 2.010 . S
O471 C463 1.249 . S
C472 C473 1.349 . S
C472 C474 1.327 . S
C472 H497 0.950 . S
C473 C472 1.349 . S
C473 C489 1.349 . S
C474 C472 1.327 . S
C474 C493 1.429 . S
C474 H498 0.950 . S
C475 C492 1.574 . S
C475 C494 1.368 . S
C475 H499 0.949 . S
H476 C480 0.949 . S
C477 C478 1.349 . S
C477 C479 1.327 . S
C477 H500 0.950 . S
C478 C477 1.349 . S
C478 C490 1.349 . S
C479 C477 1.327 . S
C479 C495 1.429 . S
C479 H501 0.950 . S
C480 H476 0.949 . S
C480 C488 1.574 . S
C480 C496 1.368 . S
H481 C489 0.950 . S
H482 C487 0.950 . S
H483 C488 0.949 . S
H484 C490 0.950 . S
H485 C491 0.950 . S
H486 C492 0.949 . S
C487 H482 0.950 . S
C487 C489 1.327 . S
C487 C493 1.429 . S
C488 C480 1.574 . S
C488 H483 0.949 . S
C488 C494 1.368 . S
C489 C473 1.349 . S
C489 H481 0.950 . S
C489 C487 1.327 . S
C490 C478 1.349 . S
C490 H484 0.950 . S
C490 C491 1.327 . S
C491 H485 0.950 . S
C491 C490 1.327 . S
C491 C495 1.429 . S
C492 C475 1.574 . S
C492 H486 0.949 . S
C492 C496 1.368 . S
C493 C474 1.429 . S
C493 C487 1.429 . S
C493 C494 1.523 . S
C494 C475 1.368 . S
C494 C488 1.368 . S
C494 C493 1.523 . S
C495 C479 1.429 . S
C495 C491 1.429 . S
C495 C496 1.523 . S
C496 C480 1.368 . S
C496 C492 1.368 . S
C496 C495 1.523 . S
H497 C472 0.950 . S
H498 C474 0.950 . S
H499 C475 0.949 . S
H500 C477 0.950 . S
H501 C479 0.950 . S
C502 C503 1.349 . S
C502 C504 1.327 . S
C502 H527 0.950 . S
C503 C502 1.349 . S
C503 C519 1.349 . S
C504 C502 1.327 . S
C504 C523 1.429 . S
C504 H528 0.950 . S
C505 C522 1.574 . S
C505 C524 1.368 . S
C505 H529 0.949 . S
H506 C510 0.949 . S
C507 C508 1.349 . S
C507 C509 1.327 . S
C507 H530 0.950 . S
C508 C507 1.349 . S
C508 C520 1.349 . S
C509 C507 1.327 . S
C509 C525 1.429 . S
C509 H531 0.950 . S
C510 H506 0.949 . S
C510 C518 1.574 . S
C510 C526 1.368 . S
H511 C519 0.950 1_655 S
H512 C517 0.950 . S
H513 C518 0.949 . S
H514 C520 0.950 . S
H515 C521 0.950 . S
H516 C522 0.949 . S
C517 H512 0.950 . S
C517 C519 1.327 . S
C517 C523 1.429 . S
C518 C510 1.574 . S
C518 H513 0.949 . S
C518 C524 1.368 . S
C519 C503 1.349 . S
C519 H511 0.950 1_455 S
C519 C517 1.327 . S
C520 C508 1.349 . S
C520 H514 0.950 . S
C520 C521 1.327 . S
C521 H515 0.950 . S
C521 C520 1.327 . S
C521 C525 1.429 . S
C522 C505 1.574 . S
C522 H516 0.949 . S
C522 C526 1.368 . S
C523 C504 1.429 . S
C523 C517 1.429 . S
C523 C524 1.523 . S
C524 C505 1.368 . S
C524 C518 1.368 . S
C524 C523 1.523 . S
C525 C509 1.429 . S
C525 C521 1.429 . S
C525 C526 1.523 . S
C526 C510 1.368 . S
C526 C522 1.368 . S
C526 C525 1.523 . S
H527 C502 0.950 . S
H528 C504 0.950 . S
H529 C505 0.949 . S
H530 C507 0.950 . S
H531 C509 0.950 . S
C532 C533 1.349 . S
C532 C534 1.327 . S
C532 H557 0.950 . S
C533 C532 1.349 . S
C533 C549 1.349 . S
C534 C532 1.327 . S
C534 C553 1.429 . S
C534 H558 0.950 . S
C535 C552 1.574 . S
C535 C554 1.368 . S
C535 H559 0.949 . S
H536 C540 0.949 . S
C537 C538 1.349 . S
C537 C539 1.327 . S
C537 H560 0.950 . S
C538 C537 1.349 . S
C538 C550 1.349 . S
C539 C537 1.327 . S
C539 C555 1.429 . S
C539 H561 0.950 . S
C540 H536 0.949 . S
C540 C548 1.574 . S
C540 C556 1.368 . S
H541 C549 0.950 . S
H542 C547 0.950 . S
H543 C548 0.949 . S
H544 C550 0.950 . S
H545 C551 0.950 . S
H546 C552 0.949 . S
C547 H542 0.950 . S
C547 C549 1.327 . S
C547 C553 1.429 . S
C548 C540 1.574 . S
C548 H543 0.949 . S
C548 C554 1.368 . S
C549 C533 1.349 . S
C549 H541 0.950 . S
C549 C547 1.327 . S
C550 C538 1.349 . S
C550 H544 0.950 . S
C550 C551 1.327 . S
C551 H545 0.950 . S
C551 C550 1.327 . S
C551 C555 1.429 . S
C552 C535 1.574 . S
C552 H546 0.949 . S
C552 C556 1.368 . S
C553 C534 1.429 . S
C553 C547 1.429 . S
C553 C554 1.523 . S
C554 C535 1.368 . S
C554 C548 1.368 . S
C554 C553 1.523 . S
C555 C539 1.429 . S
C555 C551 1.429 . S
C555 C556 1.523 . S
C556 C540 1.368 . S
C556 C552 1.368 . S
C556 C555 1.523 . S
H557 C532 0.950 . S
H558 C534 0.950 . S
H559 C535 0.949 . S
H560 C537 0.950 . S
H561 C539 0.950 . S
C562 C563 1.349 . S
C562 C564 1.327 . S
C562 H587 0.950 . S
C563 C562 1.349 . S
C563 C579 1.349 1_565 S
C564 C562 1.327 . S
C564 C583 1.429 . S
C564 H588 0.950 . S
C565 C582 1.574 . S
C565 C584 1.368 1_545 S
C565 H589 0.949 . S
H566 C570 0.949 . S
C567 C568 1.349 . S
C567 C569 1.327 1_655 S
C567 H590 0.945 . S
C568 C567 1.349 . S
C568 C580 1.349 . S
C569 C567 1.327 1_455 S
C569 C585 1.429 . S
C569 H591 0.950 . S
C570 H566 0.949 . S
C570 C578 1.574 . S
C570 C586 1.368 1_565 S
H571 C579 0.950 . S
H572 C577 0.950 . S
H573 C578 0.949 . S
H574 C580 0.950 1_565 S
H575 C581 0.950 . S
H576 C582 0.949 . S
C577 H572 0.950 . S
C577 C579 1.327 . S
C577 C583 1.429 1_545 S
C578 C570 1.574 . S
C578 H573 0.949 . S
C578 C584 1.368 . S
C579 C563 1.349 1_545 S
C579 H571 0.950 . S
C579 C577 1.327 . S
C580 C568 1.349 . S
C580 H574 0.950 1_545 S
C580 C581 1.327 1_545 S
C581 H575 0.950 . S
C581 C580 1.327 1_565 S
C581 C585 1.429 1_665 S
C582 C565 1.574 . S
C582 H576 0.949 . S
C582 C586 1.368 . S
C583 C564 1.429 . S
C583 C577 1.429 1_565 S
C583 C584 1.523 . S
C584 C565 1.368 1_565 S
C584 C578 1.368 . S
C584 C583 1.523 . S
C585 C569 1.429 . S
C585 C581 1.429 1_445 S
C585 C586 1.523 . S
C586 C570 1.368 1_545 S
C586 C582 1.368 . S
C586 C585 1.523 . S
H587 C562 0.950 . S
H588 C564 0.950 . S
H589 C565 0.949 . S
H590 C567 0.945 . S
H591 C569 0.950 . S
C592 C593 1.349 . S
C592 C594 1.327 . S
C592 H617 0.950 . S
C593 C592 1.349 . S
C593 C609 1.349 . S
C594 C592 1.327 . S
C594 C613 1.429 . S
C594 H618 0.950 . S
C595 C612 1.574 . S
C595 C614 1.368 . S
C595 H619 0.949 . S
H596 C600 0.949 . S
C597 C598 1.349 . S
C597 C599 1.327 . S
C597 H620 0.950 . S
C598 C597 1.349 . S
C598 C610 1.349 . S
C599 C597 1.327 . S
C599 C615 1.429 . S
C599 H621 0.950 . S
C600 H596 0.949 . S
C600 C608 1.574 . S
C600 C616 1.368 . S
H601 C609 0.950 . S
H602 C607 0.950 . S
H603 C608 0.949 . S
H604 C610 0.950 . S
H605 C611 0.950 . S
H606 C612 0.949 . S
C607 H602 0.950 . S
C607 C609 1.327 . S
C607 C613 1.429 . S
C608 C600 1.574 . S
C608 H603 0.949 . S
C608 C614 1.368 . S
C609 C593 1.349 . S
C609 H601 0.950 . S
C609 C607 1.327 . S
C610 C598 1.349 . S
C610 H604 0.950 . S
C610 C611 1.327 . S
C611 H605 0.950 . S
C611 C610 1.327 . S
C611 C615 1.429 . S
C612 C595 1.574 . S
C612 H606 0.949 . S
C612 C616 1.368 . S
C613 C594 1.429 . S
C613 C607 1.429 . S
C613 C614 1.523 . S
C614 C595 1.368 . S
C614 C608 1.368 . S
C614 C613 1.523 . S
C615 C599 1.429 . S
C615 C611 1.429 . S
C615 C616 1.523 . S
C616 C600 1.368 . S
C616 C612 1.368 . S
C616 C615 1.523 . S
H617 C592 0.950 . S
H618 C594 0.950 . S
H619 C595 0.949 . S
H620 C597 0.950 . S
H621 C599 0.950 . S
C622 C623 1.349 . S
C622 C624 1.327 . S
C622 H647 0.950 . S
C623 C622 1.349 . S
C623 C639 1.349 . S
C624 C622 1.327 . S
C624 C643 1.429 . S
C624 H648 0.950 . S
C625 C642 1.574 . S
C625 C644 1.368 . S
C625 H649 0.949 . S
H626 C630 0.949 . S
C627 C628 1.349 . S
C627 C629 1.327 . S
C627 H650 0.950 . S
C628 C627 1.349 . S
C628 C640 1.349 . S
C629 C627 1.327 . S
C629 C645 1.429 . S
C629 H651 0.950 . S
C630 H626 0.949 . S
C630 C638 1.574 . S
C630 C646 1.368 . S
H631 C639 0.950 . S
H632 C637 0.950 . S
H633 C638 0.949 . S
H634 C640 0.950 . S
H635 C641 0.950 . S
H636 C642 0.949 . S
C637 H632 0.950 . S
C637 C639 1.327 . S
C637 C643 1.429 . S
C638 C630 1.574 . S
C638 H633 0.949 . S
C638 C644 1.368 . S
C639 C623 1.349 . S
C639 H631 0.950 . S
C639 C637 1.327 . S
C640 C628 1.349 . S
C640 H634 0.950 . S
C640 C641 1.327 . S
C641 H635 0.950 . S
C641 C640 1.327 . S
C641 C645 1.429 . S
C642 C625 1.574 . S
C642 H636 0.949 . S
C642 C646 1.368 . S
C643 C624 1.429 . S
C643 C637 1.429 . S
C643 C644 1.523 . S
C644 C625 1.368 . S
C644 C638 1.368 . S
C644 C643 1.523 . S
C645 C629 1.429 . S
C645 C641 1.429 . S
C645 C646 1.523 . S
C646 C630 1.368 . S
C646 C642 1.368 . S
C646 C645 1.523 . S
H647 C622 0.950 . S
H648 C624 0.950 . S
H649 C625 0.949 . S
H650 C627 0.950 . S
H651 C629 0.950 . S
C652 C653 1.349 . S
C652 C654 1.327 . S
C652 H677 0.950 . S
C653 C652 1.349 . S
C653 C669 1.349 . S
C654 C652 1.327 . S
C654 C673 1.429 . S
C654 H678 0.950 . S
C655 C672 1.574 . S
C655 C674 1.368 . S
C655 H679 0.949 . S
H656 C660 0.949 . S
C657 C658 1.349 . S
C657 C659 1.327 . S
C657 H680 0.950 . S
C658 C657 1.349 . S
C658 C670 1.349 . S
C659 C657 1.327 . S
C659 C675 1.429 . S
C659 H681 0.950 . S
C660 H656 0.949 . S
C660 C668 1.574 . S
C660 C676 1.368 . S
H661 C669 0.950 . S
H662 C667 0.950 . S
H663 C668 0.949 . S
H664 C670 0.950 . S
H665 C671 0.950 . S
H666 C672 0.949 . S
C667 H662 0.950 . S
C667 C669 1.327 . S
C667 C673 1.429 . S
C668 C660 1.574 . S
C668 H663 0.949 . S
C668 C674 1.368 . S
C669 C653 1.349 . S
C669 H661 0.950 . S
C669 C667 1.327 . S
C670 C658 1.349 . S
C670 H664 0.950 . S
C670 C671 1.327 . S
C671 H665 0.950 . S
C671 C670 1.327 . S
C671 C675 1.429 . S
C672 C655 1.574 . S
C672 H666 0.949 . S
C672 C676 1.368 . S
C673 C654 1.429 . S
C673 C667 1.429 . S
C673 C674 1.523 . S
C674 C655 1.368 . S
C674 C668 1.368 . S
C674 C673 1.523 . S
C675 C659 1.429 . S
C675 C671 1.429 . S
C675 C676 1.523 . S
C676 C660 1.368 . S
C676 C672 1.368 . S
C676 C675 1.523 . S
H677 C652 0.950 . S
H678 C654 0.950 . S
H679 C655 0.949 . S
H680 C657 0.950 . S
H681 C659 0.950 . S
C682 C683 1.349 . S
C682 C684 1.327 . S
C682 H707 0.950 . S
C683 C682 1.349 . S
C683 C699 1.349 . S
C684 C682 1.327 . S
C684 C703 1.429 . S
C684 H708 0.950 . S
C685 C702 1.574 . S
C685 C704 1.368 1_545 S
C685 H709 0.949 . S
H686 C690 0.949 . S
C687 C688 1.349 . S
C687 C689 1.327 . S
C687 H710 0.950 . S
C688 C687 1.349 . S
C688 C700 1.349 1_545 S
C689 C687 1.327 . S
C689 C705 1.429 1_545 S
C689 H711 0.950 . S
C690 H686 0.949 . S
C690 C698 1.574 . S
C690 C706 1.368 . S
H691 C699 0.910 1_545 S
H692 C697 0.950 1_545 S
H693 C698 0.949 . S
H694 C700 0.950 . S
H695 C701 0.950 . S
H696 C702 0.949 . S
C697 H692 0.950 1_565 S
C697 C699 1.327 . S
C697 C703 1.429 . S
C698 C690 1.574 . S
C698 H693 0.949 . S
C698 C704 1.368 . S
C699 C683 1.349 . S
C699 H691 0.910 1_565 S
C699 C697 1.327 . S
C700 C688 1.349 1_565 S
C700 H694 0.950 . S
C700 C701 1.327 . S
C701 H695 0.950 . S
C701 C700 1.327 . S
C701 C705 1.429 . S
C702 C685 1.574 . S
C702 H696 0.949 . S
C702 C706 1.368 1_545 S
C703 C684 1.429 . S
C703 C697 1.429 . S
C703 C704 1.523 . S
C704 C685 1.368 1_565 S
C704 C698 1.368 . S
C704 C703 1.523 . S
C705 C689 1.429 1_565 S
C705 C701 1.429 . S
C705 C706 1.523 . S
C706 C690 1.368 . S
C706 C702 1.368 1_565 S
C706 C705 1.523 . S
H707 C682 0.950 . S
H708 C684 0.950 . S
H709 C685 0.949 . S
H710 C687 0.950 . S
H711 C689 0.950 . S
C712 C713 1.349 . S
C712 C714 1.327 . S
C712 H737 0.950 . S
C713 C712 1.349 . S
C713 C729 1.349 . S
C714 C712 1.327 . S
C714 C733 1.429 . S
C714 H738 0.950 . S
C715 C732 1.574 . S
C715 C734 1.368 . S
C715 H739 0.949 . S
H716 C720 0.949 . S
C717 C718 1.349 . S
C717 C719 1.327 . S
C717 H740 0.950 . S
C718 C717 1.349 . S
C718 C730 1.349 . S
C719 C717 1.327 . S
C719 C735 1.429 . S
C719 H741 0.950 . S
C720 H716 0.949 . S
C720 C728 1.574 . S
C720 C736 1.368 . S
H721 C729 0.950 . S
H722 C727 0.950 . S
H723 C728 0.949 . S
H724 C730 0.950 . S
H725 C731 0.950 . S
H726 C732 0.949 . S
C727 H722 0.950 . S
C727 C729 1.327 . S
C727 C733 1.429 . S
C728 C720 1.574 . S
C728 H723 0.949 . S
C728 C734 1.368 . S
C729 C713 1.349 . S
C729 H721 0.950 . S
C729 C727 1.327 . S
C730 C718 1.349 . S
C730 H724 0.950 . S
C730 C731 1.327 . S
C731 H725 0.950 . S
C731 C730 1.327 . S
C731 C735 1.429 . S
C732 C715 1.574 . S
C732 H726 0.949 . S
C732 C736 1.368 . S
C733 C714 1.429 . S
C733 C727 1.429 . S
C733 C734 1.523 . S
C734 C715 1.368 . S
C734 C728 1.368 . S
C734 C733 1.523 . S
C735 C719 1.429 . S
C735 C731 1.429 . S
C735 C736 1.523 . S
C736 C720 1.368 . S
C736 C732 1.368 . S
C736 C735 1.523 . S
H737 C712 0.950 . S
H738 C714 0.950 . S
H739 C715 0.949 . S
H740 C717 0.950 . S
H741 C719 0.950 . S
C742 C743 1.349 . S
C742 C744 1.327 . S
C742 H767 0.950 . S
C743 C742 1.349 . S
C743 C759 1.349 . S
C744 C742 1.327 . S
C744 C763 1.429 . S
C744 H768 0.950 . S
C745 C762 1.574 . S
C745 C764 1.368 . S
C745 H769 0.949 . S
H746 C750 0.949 . S
C747 C748 1.349 . S
C747 C749 1.327 . S
C747 H770 0.950 . S
C748 C747 1.349 . S
C748 C760 1.349 . S
C749 C747 1.327 . S
C749 C765 1.429 . S
C749 H771 0.950 . S
C750 H746 0.949 . S
C750 C758 1.574 . S
C750 C766 1.368 . S
H751 C759 0.950 . S
H752 C757 0.950 . S
H753 C758 0.949 . S
H754 C760 0.950 . S
H755 C761 0.950 . S
H756 C762 0.949 . S
C757 H752 0.950 . S
C757 C759 1.327 . S
C757 C763 1.429 . S
C758 C750 1.574 . S
C758 H753 0.949 . S
C758 C764 1.368 . S
C759 C743 1.349 . S
C759 H751 0.950 . S
C759 C757 1.327 . S
C760 C748 1.349 . S
C760 H754 0.950 . S
C760 C761 1.327 . S
C761 H755 0.950 . S
C761 C760 1.327 . S
C761 C765 1.429 . S
C762 C745 1.574 . S
C762 H756 0.949 . S
C762 C766 1.368 . S
C763 C744 1.429 . S
C763 C757 1.429 . S
C763 C764 1.523 . S
C764 C745 1.368 . S
C764 C758 1.368 . S
C764 C763 1.523 . S
C765 C749 1.429 . S
C765 C761 1.429 . S
C765 C766 1.523 . S
C766 C750 1.368 . S
C766 C762 1.368 . S
C766 C765 1.523 . S
H767 C742 0.950 . S
H768 C744 0.950 . S
H769 C745 0.949 . S
H770 C747 0.950 . S
H771 C749 0.950 . S
C772 C773 1.349 . S
C772 C774 1.327 . S
C772 H797 0.950 . S
C773 C772 1.349 . S
C773 C789 1.349 . S
C774 C772 1.327 . S
C774 C793 1.429 . S
C774 H798 0.950 . S
C775 C792 1.574 . S
C775 C794 1.368 . S
C775 H799 0.949 . S
H776 C780 0.949 . S
C777 C778 1.349 . S
C777 C779 1.327 . S
C777 H800 0.950 . S
C778 C777 1.349 . S
C778 C790 1.349 . S
C779 C777 1.327 . S
C779 C795 1.429 . S
C779 H801 0.950 . S
C780 H776 0.949 . S
C780 C788 1.574 . S
C780 C796 1.368 . S
H781 C789 0.950 . S
H782 C787 0.950 . S
H783 C788 0.949 . S
H784 C790 0.950 . S
H785 C791 0.950 . S
H786 C792 0.949 . S
C787 H782 0.950 . S
C787 C789 1.327 . S
C787 C793 1.429 . S
C788 C780 1.574 . S
C788 H783 0.949 . S
C788 C794 1.368 . S
C789 C773 1.349 . S
C789 H781 0.950 . S
C789 C787 1.327 . S
C790 C778 1.349 . S
C790 H784 0.950 . S
C790 C791 1.327 . S
C791 H785 0.950 . S
C791 C790 1.327 . S
C791 C795 1.429 . S
C792 C775 1.574 . S
C792 H786 0.949 . S
C792 C796 1.368 . S
C793 C774 1.429 . S
C793 C787 1.429 . S
C793 C794 1.523 . S
C794 C775 1.368 . S
C794 C788 1.368 . S
C794 C793 1.523 . S
C795 C779 1.429 . S
C795 C791 1.429 . S
C795 C796 1.523 . S
C796 C780 1.368 . S
C796 C792 1.368 . S
C796 C795 1.523 . S
H797 C772 0.950 . S
H798 C774 0.950 . S
H799 C775 0.949 . S
H800 C777 0.950 . S
H801 C779 0.950 . S
C802 C803 1.349 . S
C802 C804 1.327 . S
C802 H827 0.950 . S
C803 C802 1.349 . S
C803 C819 1.349 . S
C804 C802 1.327 . S
C804 C823 1.429 . S
C804 H828 0.950 . S
C805 C822 1.574 . S
C805 C824 1.368 . S
C805 H829 0.949 . S
H806 C810 0.949 . S
C807 C808 1.349 . S
C807 C809 1.327 . S
C807 H830 0.950 . S
C808 C807 1.349 . S
C808 C820 1.349 . S
C809 C807 1.327 . S
C809 C825 1.429 . S
C809 H831 0.950 . S
C810 H806 0.949 . S
C810 C818 1.574 . S
C810 C826 1.368 . S
H811 C819 0.950 . S
H812 C817 0.950 . S
H813 C818 0.949 . S
H814 C820 0.950 . S
H815 C821 0.950 . S
H816 C822 0.949 . S
C817 H812 0.950 . S
C817 C819 1.327 . S
C817 C823 1.429 . S
C818 C810 1.574 . S
C818 H813 0.949 . S
C818 C824 1.368 . S
C819 C803 1.349 . S
C819 H811 0.950 . S
C819 C817 1.327 . S
C820 C808 1.349 . S
C820 H814 0.950 . S
C820 C821 1.327 . S
C821 H815 0.950 . S
C821 C820 1.327 . S
C821 C825 1.429 . S
C822 C805 1.574 . S
C822 H816 0.949 . S
C822 C826 1.368 . S
C823 C804 1.429 . S
C823 C817 1.429 . S
C823 C824 1.523 . S
C824 C805 1.368 . S
C824 C818 1.368 . S
C824 C823 1.523 . S
C825 C809 1.429 . S
C825 C821 1.429 . S
C825 C826 1.523 . S
C826 C810 1.368 . S
C826 C822 1.368 . S
C826 C825 1.523 . S
H827 C802 0.950 . S
H828 C804 0.950 . S
H829 C805 0.949 . S
H830 C807 0.950 . S
H831 C809 0.950 . S
C832 C833 1.349 . S
C832 C834 1.327 . S
C832 H857 0.950 . S
C833 C832 1.349 . S
C833 C849 1.349 . S
C834 C832 1.327 . S
C834 C853 1.429 . S
C834 H858 0.950 . S
C835 C852 1.574 . S
C835 C854 1.368 . S
C835 H859 0.949 . S
H836 C840 0.949 . S
C837 C838 1.349 . S
C837 C839 1.327 . S
C837 H860 0.950 . S
C838 C837 1.349 . S
C838 C850 1.349 . S
C839 C837 1.327 . S
C839 C855 1.429 . S
C839 H861 0.950 . S
C840 H836 0.949 . S
C840 C848 1.574 . S
C840 C856 1.368 . S
H841 C849 0.950 . S
H842 C847 0.950 . S
H843 C848 0.949 . S
H844 C850 0.950 . S
H845 C851 0.950 . S
H846 C852 0.949 . S
C847 H842 0.950 . S
C847 C849 1.327 . S
C847 C853 1.429 . S
C848 C840 1.574 . S
C848 H843 0.949 . S
C848 C854 1.368 . S
C849 C833 1.349 . S
C849 H841 0.950 . S
C849 C847 1.327 . S
C850 C838 1.349 . S
C850 H844 0.950 . S
C850 C851 1.327 . S
C851 H845 0.950 . S
C851 C850 1.327 . S
C851 C855 1.429 . S
C852 C835 1.574 . S
C852 H846 0.949 . S
C852 C856 1.368 . S
C853 C834 1.429 . S
C853 C847 1.429 . S
C853 C854 1.523 . S
C854 C835 1.368 . S
C854 C848 1.368 . S
C854 C853 1.523 . S
C855 C839 1.429 . S
C855 C851 1.429 . S
C855 C856 1.523 . S
C856 C840 1.368 . S
C856 C852 1.368 . S
C856 C855 1.523 . S
H857 C832 0.950 . S
H858 C834 0.950 . S
H859 C835 0.949 . S
H860 C837 0.950 . S
H861 C839 0.950 . S
C862 C863 1.349 . S
C862 C864 1.327 . S
C862 H887 0.950 . S
C863 C862 1.349 . S
C863 C879 1.349 . S
C864 C862 1.327 . S
C864 C883 1.429 . S
C864 H888 0.950 . S
C865 C882 1.574 . S
C865 C884 1.368 . S
C865 H889 0.949 . S
H866 C870 0.949 . S
C867 C868 1.349 . S
C867 C869 1.327 . S
C867 H890 0.950 . S
C868 C867 1.349 . S
C868 C880 1.349 . S
C869 C867 1.327 . S
C869 C885 1.429 . S
C869 H891 0.950 . S
C870 H866 0.949 . S
C870 C878 1.574 . S
C870 C886 1.368 . S
H871 C879 0.950 . S
H872 C877 0.950 . S
H873 C878 0.949 . S
H874 C880 0.950 . S
H875 C881 0.950 . S
H876 C882 0.949 . S
C877 H872 0.950 . S
C877 C879 1.327 . S
C877 C883 1.429 . S
C878 C870 1.574 . S
C878 H873 0.949 . S
C878 C884 1.368 . S
C879 C863 1.349 . S
C879 H871 0.950 . S
C879 C877 1.327 . S
C880 C868 1.349 . S
C880 H874 0.950 . S
C880 C881 1.327 . S
C881 H875 0.950 . S
C881 C880 1.327 . S
C881 C885 1.429 . S
C882 C865 1.574 . S
C882 H876 0.949 . S
C882 C886 1.368 . S
C883 C864 1.429 . S
C883 C877 1.429 . S
C883 C884 1.523 . S
C884 C865 1.368 . S
C884 C878 1.368 . S
C884 C883 1.523 . S
C885 C869 1.429 . S
C885 C881 1.429 . S
C885 C886 1.523 . S
C886 C870 1.368 . S
C886 C882 1.368 . S
C886 C885 1.523 . S
H887 C862 0.950 . S
H888 C864 0.950 . S
H889 C865 0.949 . S
H890 C867 0.950 . S
H891 C869 0.950 . S
C892 C893 1.349 . S
C892 C894 1.327 . S
C892 H917 0.950 . S
C893 C892 1.349 . S
C893 C909 1.349 . S
C894 C892 1.327 . S
C894 C913 1.429 . S
C894 H918 0.950 . S
C895 C912 1.574 . S
C895 C914 1.368 . S
C895 H919 0.949 . S
H896 C900 0.949 . S
C897 C898 1.349 . S
C897 C899 1.327 . S
C897 H920 0.950 . S
C898 C897 1.349 . S
C898 C910 1.349 . S
C899 C897 1.327 . S
C899 C915 1.429 . S
C899 H921 0.950 . S
C900 H896 0.949 . S
C900 C908 1.574 . S
C900 C916 1.368 . S
H901 C909 0.950 . S
H902 C907 0.950 . S
H903 C908 0.949 . S
H904 C910 0.950 . S
H905 C911 0.950 . S
H906 C912 0.949 . S
C907 H902 0.950 . S
C907 C909 1.327 . S
C907 C913 1.429 . S
C908 C900 1.574 . S
C908 H903 0.949 . S
C908 C914 1.368 . S
C909 C893 1.349 . S
C909 H901 0.950 . S
C909 C907 1.327 . S
C910 C898 1.349 . S
C910 H904 0.950 . S
C910 C911 1.327 . S
C911 H905 0.950 . S
C911 C910 1.327 . S
C911 C915 1.429 . S
C912 C895 1.574 . S
C912 H906 0.949 . S
C912 C916 1.368 . S
C913 C894 1.429 . S
C913 C907 1.429 . S
C913 C914 1.523 . S
C914 C895 1.368 . S
C914 C908 1.368 . S
C914 C913 1.523 . S
C915 C899 1.429 . S
C915 C911 1.429 . S
C915 C916 1.523 . S
C916 C900 1.368 . S
C916 C912 1.368 . S
C916 C915 1.523 . S
H917 C892 0.950 . S
H918 C894 0.950 . S
H919 C895 0.949 . S
H920 C897 0.950 . S
H921 C899 0.950 . S
C922 C923 1.349 . S
C922 C924 1.327 . S
C922 H947 0.950 . S
C923 C922 1.349 . S
C923 C939 1.349 . S
C924 C922 1.327 . S
C924 C943 1.429 . S
C924 H948 0.950 . S
C925 C942 1.574 . S
C925 C944 1.368 . S
C925 H949 0.949 1_655 S
H926 C930 0.949 . S
C927 C928 1.349 1_455 S
C927 C929 1.324 . S
C927 H950 0.950 . S
C928 C927 1.349 1_655 S
C928 C940 1.349 . S
C929 C927 1.324 . S
C929 C945 1.396 1_455 S
C929 H951 0.989 . S
C930 H926 0.949 . S
C930 C938 1.574 . S
C930 C946 1.368 . S
H931 C939 0.950 . S
H932 C937 0.969 . S
H933 C938 0.949 . S
H934 C940 0.950 . S
H935 C941 0.950 . S
H936 C942 0.949 1_455 S
C937 H932 0.969 . S
C937 C939 1.327 . S
C937 C943 1.429 . S
C938 C930 1.574 . S
C938 H933 0.949 . S
C938 C944 1.368 . S
C939 C923 1.349 . S
C939 H931 0.950 . S
C939 C937 1.327 . S
C940 C928 1.349 . S
C940 H934 0.950 . S
C940 C941 1.327 . S
C941 H935 0.950 . S
C941 C940 1.327 . S
C941 C945 1.429 . S
C942 C925 1.574 . S
C942 H936 0.949 1_655 S
C942 C946 1.368 . S
C943 C924 1.429 . S
C943 C937 1.429 . S
C943 C944 1.523 . S
C944 C925 1.368 . S
C944 C938 1.368 . S
C944 C943 1.523 . S
C945 C929 1.396 1_655 S
C945 C941 1.429 . S
C945 C946 1.523 . S
C946 C930 1.368 . S
C946 C942 1.368 . S
C946 C945 1.523 . S
H947 C922 0.950 . S
H948 C924 0.950 . S
H949 C925 0.949 1_455 S
H950 C927 0.950 . S
H951 C929 0.989 . S
C952 C953 1.349 . S
C952 C954 1.327 . S
C952 H977 0.950 . S
C953 C952 1.349 . S
C953 C969 1.349 . S
C954 C952 1.327 . S
C954 C973 1.429 . S
C954 H978 0.950 . S
C955 C972 1.574 . S
C955 C974 1.368 . S
C955 H979 0.949 . S
H956 C960 0.949 . S
C957 C958 1.349 . S
C957 C959 1.327 . S
C957 H980 0.950 . S
C958 C957 1.349 . S
C958 C970 1.349 . S
C959 C957 1.327 . S
C959 C975 1.429 . S
C959 H981 0.950 . S
C960 H956 0.949 . S
C960 C968 1.574 . S
C960 C976 1.368 . S
H961 C969 0.950 . S
H962 C967 0.950 . S
H963 C968 0.949 . S
H964 C970 0.950 . S
H965 C971 0.950 . S
H966 C972 0.949 . S
C967 H962 0.950 . S
C967 C969 1.327 . S
C967 C973 1.429 . S
C968 C960 1.574 . S
C968 H963 0.949 . S
C968 C974 1.368 . S
C969 C953 1.349 . S
C969 H961 0.950 . S
C969 C967 1.327 . S
C970 C958 1.349 . S
C970 H964 0.950 . S
C970 C971 1.327 . S
C971 H965 0.950 . S
C971 C970 1.327 . S
C971 C975 1.429 . S
C972 C955 1.574 . S
C972 H966 0.949 . S
C972 C976 1.368 . S
C973 C954 1.429 . S
C973 C967 1.429 . S
C973 C974 1.523 . S
C974 C955 1.368 . S
C974 C968 1.368 . S
C974 C973 1.523 . S
C975 C959 1.429 . S
C975 C971 1.429 . S
C975 C976 1.523 . S
C976 C960 1.368 . S
C976 C972 1.368 . S
C976 C975 1.523 . S
H977 C952 0.950 . S
H978 C954 0.950 . S
H979 C955 0.949 . S
H980 C957 0.950 . S
H981 C959 0.950 . S
C982 C983 1.349 . S
C982 C984 1.327 . S
C982 H1007 0.950 . S
C983 C982 1.349 . S
C983 C999 1.349 . S
C984 C982 1.327 . S
C984 C1003 1.429 . S
C984 H1008 0.950 . S
C985 C1002 1.574 . S
C985 C1004 1.368 . S
C985 H1009 0.949 . S
H986 C990 0.949 . S
C987 C988 1.349 . S
C987 C989 1.327 . S
C987 H1010 0.950 . S
C988 C987 1.349 . S
C988 C1000 1.349 . S
C989 C987 1.327 . S
C989 C1005 1.429 . S
C989 H1011 0.950 . S
C990 H986 0.949 . S
C990 C998 1.574 . S
C990 C1006 1.368 . S
H991 C999 0.950 . S
H992 C997 0.950 . S
H993 C998 0.949 . S
H994 C1000 0.950 . S
H995 C1001 0.950 . S
H996 C1002 0.949 . S
C997 H992 0.950 . S
C997 C999 1.327 . S
C997 C1003 1.429 . S
C998 C990 1.574 . S
C998 H993 0.949 . S
C998 C1004 1.368 . S
C999 C983 1.349 . S
C999 H991 0.950 . S
C999 C997 1.327 . S
C1000 C988 1.349 . S
C1000 H994 0.950 . S
C1000 C1001 1.327 . S
C1001 H995 0.950 . S
C1001 C1000 1.327 . S
C1001 C1005 1.429 . S
C1002 C985 1.574 . S
C1002 H996 0.949 . S
C1002 C1006 1.368 . S
C1003 C984 1.429 . S
C1003 C997 1.429 . S
C1003 C1004 1.523 . S
C1004 C985 1.368 . S
C1004 C998 1.368 . S
C1004 C1003 1.523 . S
C1005 C989 1.429 . S
C1005 C1001 1.429 . S
C1005 C1006 1.523 . S
C1006 C990 1.368 . S
C1006 C1002 1.368 . S
C1006 C1005 1.523 . S
H1007 C982 0.950 . S
H1008 C984 0.950 . S
H1009 C985 0.949 . S
H1010 C987 0.950 . S
H1011 C989 0.950 . S
C1012 C1013 1.349 . S
C1012 C1014 1.327 1_545 S
C1012 H1037 0.950 . S
C1013 C1012 1.349 . S
C1013 C1029 1.349 . S
C1014 C1012 1.327 1_565 S
C1014 C1033 1.429 . S
C1014 H1038 0.950 . S
C1015 C1032 1.574 . S
C1015 C1034 1.368 1_554 S
C1015 H1039 0.949 . S
H1016 C1020 0.949 . S
C1017 C1018 1.349 . S
C1017 C1019 1.327 . S
C1017 H1040 0.950 . S
C1018 C1017 1.349 . S
C1018 C1030 1.349 . S
C1019 C1017 1.327 . S
C1019 C1035 1.429 . S
C1019 H1041 0.950 . S
C1020 H1016 0.949 . S
C1020 C1028 1.574 . S
C1020 C1036 1.368 1_556 S
H1021 C1029 0.950 . S
H1022 C1027 0.950 1_554 S
H1023 C1028 0.949 . S
H1024 C1030 0.950 1_556 S
H1025 C1031 0.954 1_556 S
H1026 C1032 0.949 . S
C1027 H1022 0.950 1_556 S
C1027 C1029 1.327 1_565 S
C1027 C1033 1.429 . S
C1028 C1020 1.574 . S
C1028 H1023 0.949 . S
C1028 C1034 1.368 . S
C1029 C1013 1.349 . S
C1029 H1021 0.950 . S
C1029 C1027 1.327 1_545 S
C1030 C1018 1.349 . S
C1030 H1024 0.950 1_554 S
C1030 C1031 1.325 . S
C1031 H1025 0.954 1_554 S
C1031 C1030 1.325 . S
C1031 C1035 1.427 . S
C1032 C1015 1.574 . S
C1032 H1026 0.949 . S
C1032 C1036 1.368 . S
C1033 C1014 1.429 . S
C1033 C1027 1.429 . S
C1033 C1034 1.523 . S
C1034 C1015 1.368 1_556 S
C1034 C1028 1.368 . S
C1034 C1033 1.523 . S
C1035 C1019 1.429 . S
C1035 C1031 1.427 . S
C1035 C1036 1.523 . S
C1036 C1020 1.368 1_554 S
C1036 C1032 1.368 . S
C1036 C1035 1.523 . S
H1037 C1012 0.950 . S
H1038 C1014 0.950 . S
H1039 C1015 0.949 . S
H1040 C1017 0.950 . S
H1041 C1019 0.950 . S
C1042 C1043 1.349 . S
C1042 C1044 1.327 . S
C1042 H1067 0.950 . S
C1043 C1042 1.349 . S
C1043 C1059 1.349 . S
C1044 C1042 1.327 . S
C1044 C1063 1.429 . S
C1044 H1068 0.950 . S
C1045 C1062 1.574 . S
C1045 C1064 1.368 . S
C1045 H1069 0.949 . S
H1046 C1050 0.949 . S
C1047 C1048 1.349 . S
C1047 C1049 1.327 . S
C1047 H1070 0.950 . S
C1048 C1047 1.349 . S
C1048 C1060 1.349 . S
C1049 C1047 1.327 . S
C1049 C1065 1.429 . S
C1049 H1071 0.950 . S
C1050 H1046 0.949 . S
C1050 C1058 1.574 . S
C1050 C1066 1.368 . S
H1051 C1059 0.950 . S
H1052 C1057 0.950 . S
H1053 C1058 0.949 . S
H1054 C1060 0.950 . S
H1055 C1061 0.950 . S
H1056 C1062 0.949 . S
C1057 H1052 0.950 . S
C1057 C1059 1.327 . S
C1057 C1063 1.429 . S
C1058 C1050 1.574 . S
C1058 H1053 0.949 . S
C1058 C1064 1.368 . S
C1059 C1043 1.349 . S
C1059 H1051 0.950 . S
C1059 C1057 1.327 . S
C1060 C1048 1.349 . S
C1060 H1054 0.950 . S
C1060 C1061 1.327 . S
C1061 H1055 0.950 . S
C1061 C1060 1.327 . S
C1061 C1065 1.429 . S
C1062 C1045 1.574 . S
C1062 H1056 0.949 . S
C1062 C1066 1.368 . S
C1063 C1044 1.429 . S
C1063 C1057 1.429 . S
C1063 C1064 1.523 . S
C1064 C1045 1.368 . S
C1064 C1058 1.368 . S
C1064 C1063 1.523 . S
C1065 C1049 1.429 . S
C1065 C1061 1.429 . S
C1065 C1066 1.523 . S
C1066 C1050 1.368 . S
C1066 C1062 1.368 . S
C1066 C1065 1.523 . S
H1067 C1042 0.950 . S
H1068 C1044 0.950 . S
H1069 C1045 0.949 . S
H1070 C1047 0.950 . S
H1071 C1049 0.950 . S
C1072 C1073 1.349 . S
C1072 C1074 1.327 . S
C1072 H1097 0.950 . S
C1073 C1072 1.349 . S
C1073 C1089 1.349 . S
C1074 C1072 1.327 . S
C1074 C1093 1.429 . S
C1074 H1098 0.950 . S
C1075 C1092 1.574 . S
C1075 C1094 1.368 . S
C1075 H1099 0.949 . S
H1076 C1080 0.949 . S
C1077 C1078 1.349 . S
C1077 C1079 1.327 . S
C1077 H1100 0.950 . S
C1078 C1077 1.349 . S
C1078 C1090 1.349 . S
C1079 C1077 1.327 . S
C1079 C1095 1.429 . S
C1079 H1101 0.950 . S
C1080 H1076 0.949 . S
C1080 C1088 1.574 . S
C1080 C1096 1.368 . S
H1081 C1089 0.950 1_565 S
H1082 C1087 0.950 . S
H1083 C1088 0.949 . S
H1084 C1090 0.950 . S
H1085 C1091 0.950 . S
H1086 C1092 0.949 . S
C1087 H1082 0.950 . S
C1087 C1089 1.327 . S
C1087 C1093 1.429 . S
C1088 C1080 1.574 . S
C1088 H1083 0.949 . S
C1088 C1094 1.368 . S
C1089 C1073 1.349 . S
C1089 H1081 0.950 1_545 S
C1089 C1087 1.327 . S
C1090 C1078 1.349 . S
C1090 H1084 0.950 . S
C1090 C1091 1.327 . S
C1091 H1085 0.950 . S
C1091 C1090 1.327 . S
C1091 C1095 1.429 . S
C1092 C1075 1.574 . S
C1092 H1086 0.949 . S
C1092 C1096 1.368 . S
C1093 C1074 1.429 . S
C1093 C1087 1.429 . S
C1093 C1094 1.523 . S
C1094 C1075 1.368 . S
C1094 C1088 1.368 . S
C1094 C1093 1.523 . S
C1095 C1079 1.429 . S
C1095 C1091 1.429 . S
C1095 C1096 1.523 . S
C1096 C1080 1.368 . S
C1096 C1092 1.368 . S
C1096 C1095 1.523 . S
H1097 C1072 0.950 . S
H1098 C1074 0.950 . S
H1099 C1075 0.949 . S
H1100 C1077 0.950 . S
H1101 C1079 0.950 . S
C1102 C1103 1.349 . S
C1102 C1104 1.327 . S
C1102 H1127 0.950 . S
C1103 C1102 1.349 . S
C1103 C1119 1.349 . S
C1104 C1102 1.327 . S
C1104 C1123 1.429 . S
C1104 H1128 0.950 . S
C1105 C1122 1.574 . S
C1105 C1124 1.368 . S
C1105 H1129 0.949 . S
H1106 C1110 0.949 . S
C1107 C1108 1.349 . S
C1107 C1109 1.327 . S
C1107 H1130 0.950 . S
C1108 C1107 1.349 . S
C1108 C1120 1.349 . S
C1109 C1107 1.327 . S
C1109 C1125 1.429 . S
C1109 H1131 0.950 . S
C1110 H1106 0.949 . S
C1110 C1118 1.574 . S
C1110 C1126 1.368 . S
H1111 C1119 0.950 . S
H1112 C1117 0.950 . S
H1113 C1118 0.949 . S
H1114 C1120 0.950 . S
H1115 C1121 0.950 . S
H1116 C1122 0.949 . S
C1117 H1112 0.950 . S
C1117 C1119 1.327 . S
C1117 C1123 1.429 . S
C1118 C1110 1.574 . S
C1118 H1113 0.949 . S
C1118 C1124 1.368 . S
C1119 C1103 1.349 . S
C1119 H1111 0.950 . S
C1119 C1117 1.327 . S
C1120 C1108 1.349 . S
C1120 H1114 0.950 . S
C1120 C1121 1.327 . S
C1121 H1115 0.950 . S
C1121 C1120 1.327 . S
C1121 C1125 1.429 . S
C1122 C1105 1.574 . S
C1122 H1116 0.949 . S
C1122 C1126 1.368 . S
C1123 C1104 1.429 . S
C1123 C1117 1.429 . S
C1123 C1124 1.523 . S
C1124 C1105 1.368 . S
C1124 C1118 1.368 . S
C1124 C1123 1.523 . S
C1125 C1109 1.429 . S
C1125 C1121 1.429 . S
C1125 C1126 1.523 . S
C1126 C1110 1.368 . S
C1126 C1122 1.368 . S
C1126 C1125 1.523 . S
H1127 C1102 0.950 . S
H1128 C1104 0.950 . S
H1129 C1105 0.949 . S
H1130 C1107 0.950 . S
H1131 C1109 0.950 . S
C1132 C1133 1.349 . S
C1132 C1134 1.327 . S
C1132 H1157 0.950 . S
C1133 C1132 1.349 . S
C1133 C1149 1.349 . S
C1134 C1132 1.327 . S
C1134 C1153 1.429 . S
C1134 H1158 0.950 . S
C1135 C1152 1.574 . S
C1135 C1154 1.368 . S
C1135 H1159 0.949 . S
H1136 C1140 0.949 . S
C1137 C1138 1.349 . S
C1137 C1139 1.327 . S
C1137 H1160 0.950 . S
C1138 C1137 1.349 . S
C1138 C1150 1.349 . S
C1139 C1137 1.327 . S
C1139 C1155 1.429 . S
C1139 H1161 0.950 . S
C1140 H1136 0.949 . S
C1140 C1148 1.574 . S
C1140 C1156 1.368 . S
H1141 C1149 0.950 1_565 S
H1142 C1147 0.950 . S
H1143 C1148 0.949 . S
H1144 C1150 0.950 . S
H1145 C1151 0.950 . S
H1146 C1152 0.949 . S
C1147 H1142 0.950 . S
C1147 C1149 1.327 . S
C1147 C1153 1.429 . S
C1148 C1140 1.574 . S
C1148 H1143 0.949 . S
C1148 C1154 1.368 . S
C1149 C1133 1.349 . S
C1149 H1141 0.950 1_545 S
C1149 C1147 1.327 . S
C1150 C1138 1.349 . S
C1150 H1144 0.950 . S
C1150 C1151 1.327 . S
C1151 H1145 0.950 . S
C1151 C1150 1.327 . S
C1151 C1155 1.429 . S
C1152 C1135 1.574 . S
C1152 H1146 0.949 . S
C1152 C1156 1.368 . S
C1153 C1134 1.429 . S
C1153 C1147 1.429 . S
C1153 C1154 1.523 . S
C1154 C1135 1.368 . S
C1154 C1148 1.368 . S
C1154 C1153 1.523 . S
C1155 C1139 1.429 . S
C1155 C1151 1.429 . S
C1155 C1156 1.523 . S
C1156 C1140 1.368 . S
C1156 C1152 1.368 . S
C1156 C1155 1.523 . S
H1157 C1132 0.950 . S
H1158 C1134 0.950 . S
H1159 C1135 0.949 . S
H1160 C1137 0.950 . S
H1161 C1139 0.950 . S
C1162 C1163 1.349 . S
C1162 C1164 1.327 . S
C1162 H1187 0.950 . S
C1163 C1162 1.349 . S
C1163 C1179 1.349 . S
C1164 C1162 1.327 . S
C1164 C1183 1.429 . S
C1164 H1188 0.950 . S
C1165 C1182 1.574 . S
C1165 C1184 1.368 . S
C1165 H1189 0.949 . S
H1166 C1170 0.949 . S
C1167 C1168 1.349 . S
C1167 C1169 1.327 . S
C1167 H1190 0.950 . S
C1168 C1167 1.349 . S
C1168 C1180 1.349 . S
C1169 C1167 1.327 . S
C1169 C1185 1.429 . S
C1169 H1191 0.950 . S
C1170 H1166 0.949 . S
C1170 C1178 1.574 . S
C1170 C1186 1.368 . S
H1171 C1179 0.950 . S
H1172 C1177 0.950 . S
H1173 C1178 0.949 . S
H1174 C1180 0.950 . S
H1175 C1181 0.950 . S
H1176 C1182 0.949 . S
C1177 H1172 0.950 . S
C1177 C1179 1.327 . S
C1177 C1183 1.429 . S
C1178 C1170 1.574 . S
C1178 H1173 0.949 . S
C1178 C1184 1.368 . S
C1179 C1163 1.349 . S
C1179 H1171 0.950 . S
C1179 C1177 1.327 . S
C1180 C1168 1.349 . S
C1180 H1174 0.950 . S
C1180 C1181 1.327 . S
C1181 H1175 0.950 . S
C1181 C1180 1.327 . S
C1181 C1185 1.429 . S
C1182 C1165 1.574 . S
C1182 H1176 0.949 . S
C1182 C1186 1.368 . S
C1183 C1164 1.429 . S
C1183 C1177 1.429 . S
C1183 C1184 1.523 . S
C1184 C1165 1.368 . S
C1184 C1178 1.368 . S
C1184 C1183 1.523 . S
C1185 C1169 1.429 . S
C1185 C1181 1.429 . S
C1185 C1186 1.523 . S
C1186 C1170 1.368 . S
C1186 C1182 1.368 . S
C1186 C1185 1.523 . S
H1187 C1162 0.950 . S
H1188 C1164 0.950 . S
H1189 C1165 0.949 . S
H1190 C1167 0.950 . S
H1191 C1169 0.950 . S
C1192 C1193 1.349 . S
C1192 C1194 1.327 . S
C1192 H1217 0.950 . S
C1193 C1192 1.349 . S
C1193 C1209 1.349 . S
C1194 C1192 1.327 . S
C1194 C1213 1.429 . S
C1194 H1218 0.950 . S
C1195 C1212 1.574 . S
C1195 C1214 1.368 . S
C1195 H1219 0.949 . S
H1196 C1200 0.949 . S
C1197 C1198 1.349 . S
C1197 C1199 1.327 . S
C1197 H1220 0.950 . S
C1198 C1197 1.349 . S
C1198 C1210 1.349 . S
C1199 C1197 1.327 . S
C1199 C1215 1.429 . S
C1199 H1221 0.950 . S
C1200 H1196 0.949 . S
C1200 C1208 1.574 . S
C1200 C1216 1.368 . S
H1201 C1209 0.950 . S
H1202 C1207 0.950 . S
H1203 C1208 0.949 . S
H1204 C1210 0.950 . S
H1205 C1211 0.950 . S
H1206 C1212 0.949 . S
C1207 H1202 0.950 . S
C1207 C1209 1.327 . S
C1207 C1213 1.429 . S
C1208 C1200 1.574 . S
C1208 H1203 0.949 . S
C1208 C1214 1.368 . S
C1209 C1193 1.349 . S
C1209 H1201 0.950 . S
C1209 C1207 1.327 . S
C1210 C1198 1.349 . S
C1210 H1204 0.950 . S
C1210 C1211 1.327 . S
C1211 H1205 0.950 . S
C1211 C1210 1.327 . S
C1211 C1215 1.429 . S
C1212 C1195 1.574 . S
C1212 H1206 0.949 . S
C1212 C1216 1.368 . S
C1213 C1194 1.429 . S
C1213 C1207 1.429 . S
C1213 C1214 1.523 . S
C1214 C1195 1.368 . S
C1214 C1208 1.368 . S
C1214 C1213 1.523 . S
C1215 C1199 1.429 . S
C1215 C1211 1.429 . S
C1215 C1216 1.523 . S
C1216 C1200 1.368 . S
C1216 C1212 1.368 . S
C1216 C1215 1.523 . S
H1217 C1192 0.950 . S
H1218 C1194 0.950 . S
H1219 C1195 0.949 . S
H1220 C1197 0.950 . S
H1221 C1199 0.950 . S
C1222 C1223 1.349 . S
C1222 C1224 1.327 . S
C1222 H1247 0.950 . S
C1223 C1222 1.349 . S
C1223 C1239 1.349 . S
C1224 C1222 1.327 . S
C1224 C1243 1.429 . S
C1224 H1248 0.950 . S
C1225 C1242 1.574 . S
C1225 C1244 1.368 . S
C1225 H1249 0.949 . S
H1226 C1230 0.949 . S
C1227 C1228 1.349 . S
C1227 C1229 1.327 . S
C1227 H1250 0.939 1_545 S
C1228 C1227 1.349 . S
C1228 C1240 1.349 . S
C1229 C1227 1.327 . S
C1229 C1245 1.429 . S
C1229 H1251 0.969 . S
C1230 H1226 0.949 . S
C1230 C1238 1.574 . S
C1230 C1246 1.368 . S
H1231 C1239 0.950 . S
H1232 C1237 0.950 . S
H1233 C1238 0.949 . S
H1234 C1240 0.950 . S
H1235 C1241 0.950 . S
H1236 C1242 0.949 . S
C1237 H1232 0.950 . S
C1237 C1239 1.327 . S
C1237 C1243 1.429 . S
C1238 C1230 1.574 . S
C1238 H1233 0.949 . S
C1238 C1244 1.368 . S
C1239 C1223 1.349 . S
C1239 H1231 0.950 . S
C1239 C1237 1.327 . S
C1240 C1228 1.349 . S
C1240 H1234 0.950 . S
C1240 C1241 1.327 . S
C1241 H1235 0.950 . S
C1241 C1240 1.327 . S
C1241 C1245 1.429 . S
C1242 C1225 1.574 . S
C1242 H1236 0.949 . S
C1242 C1246 1.368 . S
C1243 C1224 1.429 . S
C1243 C1237 1.429 . S
C1243 C1244 1.523 . S
C1244 C1225 1.368 . S
C1244 C1238 1.368 . S
C1244 C1243 1.523 . S
C1245 C1229 1.429 . S
C1245 C1241 1.429 . S
C1245 C1246 1.523 . S
C1246 C1230 1.368 . S
C1246 C1242 1.368 . S
C1246 C1245 1.523 . S
H1247 C1222 0.950 . S
H1248 C1224 0.950 . S
H1249 C1225 0.949 . S
H1250 C1227 0.939 1_565 S
H1251 C1229 0.969 . S
C1252 C1253 1.349 . S
C1252 C1254 1.327 . S
C1252 H1277 0.950 . S
C1253 C1252 1.349 . S
C1253 C1269 1.349 . S
C1254 C1252 1.327 . S
C1254 C1273 1.429 . S
C1254 H1278 0.950 . S
C1255 C1272 1.574 . S
C1255 C1274 1.368 . S
C1255 H1279 0.949 . S
H1256 C1260 0.949 . S
C1257 C1258 1.349 . S
C1257 C1259 1.327 . S
C1257 H1280 0.950 . S
C1258 C1257 1.349 . S
C1258 C1270 1.349 . S
C1259 C1257 1.327 . S
C1259 C1275 1.429 . S
C1259 H1281 0.950 . S
C1260 H1256 0.949 . S
C1260 C1268 1.574 . S
C1260 C1276 1.368 . S
H1261 C1269 0.950 . S
H1262 C1267 0.950 . S
H1263 C1268 0.949 . S
H1264 C1270 0.950 . S
H1265 C1271 0.950 . S
H1266 C1272 0.949 . S
C1267 H1262 0.950 . S
C1267 C1269 1.327 . S
C1267 C1273 1.429 . S
C1268 C1260 1.574 . S
C1268 H1263 0.949 . S
C1268 C1274 1.368 . S
C1269 C1253 1.349 . S
C1269 H1261 0.950 . S
C1269 C1267 1.327 . S
C1270 C1258 1.349 . S
C1270 H1264 0.950 . S
C1270 C1271 1.327 . S
C1271 H1265 0.950 . S
C1271 C1270 1.327 . S
C1271 C1275 1.429 . S
C1272 C1255 1.574 . S
C1272 H1266 0.949 . S
C1272 C1276 1.368 . S
C1273 C1254 1.429 . S
C1273 C1267 1.429 . S
C1273 C1274 1.523 . S
C1274 C1255 1.368 . S
C1274 C1268 1.368 . S
C1274 C1273 1.523 . S
C1275 C1259 1.429 . S
C1275 C1271 1.429 . S
C1275 C1276 1.523 . S
C1276 C1260 1.368 . S
C1276 C1272 1.368 . S
C1276 C1275 1.523 . S
H1277 C1252 0.950 . S
H1278 C1254 0.950 . S
H1279 C1255 0.949 . S
H1280 C1257 0.950 . S
H1281 C1259 0.950 . S
C1282 C1283 1.349 . S
C1282 C1284 1.327 . S
C1282 H1307 0.950 . S
C1283 C1282 1.349 . S
C1283 C1299 1.349 . S
C1284 C1282 1.327 . S
C1284 C1303 1.429 . S
C1284 H1308 0.950 . S
C1285 C1302 1.574 . S
C1285 C1304 1.368 . S
C1285 H1309 0.949 . S
H1286 C1290 0.949 . S
C1287 C1288 1.349 . S
C1287 C1289 1.327 . S
C1287 H1310 0.950 . S
C1288 C1287 1.349 . S
C1288 C1300 1.349 . S
C1289 C1287 1.327 . S
C1289 C1305 1.429 . S
C1289 H1311 0.950 . S
C1290 H1286 0.949 . S
C1290 C1298 1.574 . S
C1290 C1306 1.368 . S
H1291 C1299 0.950 . S
H1292 C1297 0.950 . S
H1293 C1298 0.949 . S
H1294 C1300 0.950 . S
H1295 C1301 0.950 . S
H1296 C1302 0.949 . S
C1297 H1292 0.950 . S
C1297 C1299 1.327 . S
C1297 C1303 1.429 . S
C1298 C1290 1.574 . S
C1298 H1293 0.949 . S
C1298 C1304 1.368 . S
C1299 C1283 1.349 . S
C1299 H1291 0.950 . S
C1299 C1297 1.327 . S
C1300 C1288 1.349 . S
C1300 H1294 0.950 . S
C1300 C1301 1.327 . S
C1301 H1295 0.950 . S
C1301 C1300 1.327 . S
C1301 C1305 1.429 . S
C1302 C1285 1.574 . S
C1302 H1296 0.949 . S
C1302 C1306 1.368 . S
C1303 C1284 1.429 . S
C1303 C1297 1.429 . S
C1303 C1304 1.523 . S
C1304 C1285 1.368 . S
C1304 C1298 1.368 . S
C1304 C1303 1.523 . S
C1305 C1289 1.429 . S
C1305 C1301 1.429 . S
C1305 C1306 1.523 . S
C1306 C1290 1.368 . S
C1306 C1302 1.368 . S
C1306 C1305 1.523 . S
H1307 C1282 0.950 . S
H1308 C1284 0.950 . S
H1309 C1285 0.949 . S
H1310 C1287 0.950 . S
H1311 C1289 0.950 . S
C1312 C1313 1.349 . S
C1312 C1314 1.327 . S
C1312 H1337 0.950 . S
C1313 C1312 1.349 . S
C1313 C1329 1.349 . S
C1314 C1312 1.327 . S
C1314 C1333 1.429 . S
C1314 H1338 0.950 . S
C1315 C1332 1.574 . S
C1315 C1334 1.368 . S
C1315 H1339 0.949 . S
H1316 C1320 0.949 . S
C1317 C1318 1.349 . S
C1317 C1319 1.327 . S
C1317 H1340 0.950 . S
C1318 C1317 1.349 . S
C1318 C1330 1.349 . S
C1319 C1317 1.327 . S
C1319 C1335 1.429 . S
C1319 H1341 0.950 . S
C1320 H1316 0.949 . S
C1320 C1328 1.574 . S
C1320 C1336 1.368 . S
H1321 C1329 0.950 . S
H1322 C1327 0.950 . S
H1323 C1328 0.949 . S
H1324 C1330 0.950 . S
H1325 C1331 0.950 . S
H1326 C1332 0.949 . S
C1327 H1322 0.950 . S
C1327 C1329 1.327 . S
C1327 C1333 1.429 . S
C1328 C1320 1.574 . S
C1328 H1323 0.949 . S
C1328 C1334 1.368 . S
C1329 C1313 1.349 . S
C1329 H1321 0.950 . S
C1329 C1327 1.327 . S
C1330 C1318 1.349 . S
C1330 H1324 0.950 . S
C1330 C1331 1.327 . S
C1331 H1325 0.950 . S
C1331 C1330 1.327 . S
C1331 C1335 1.429 . S
C1332 C1315 1.574 . S
C1332 H1326 0.949 . S
C1332 C1336 1.368 . S
C1333 C1314 1.429 . S
C1333 C1327 1.429 . S
C1333 C1334 1.523 . S
C1334 C1315 1.368 . S
C1334 C1328 1.368 . S
C1334 C1333 1.523 . S
C1335 C1319 1.429 . S
C1335 C1331 1.429 . S
C1335 C1336 1.523 . S
C1336 C1320 1.368 . S
C1336 C1332 1.368 . S
C1336 C1335 1.523 . S
H1337 C1312 0.950 . S
H1338 C1314 0.950 . S
H1339 C1315 0.949 . S
H1340 C1317 0.950 . S
H1341 C1319 0.950 . S
C1342 C1343 1.349 . S
C1342 C1344 1.327 . S
C1342 H1367 0.950 . S
C1343 C1342 1.349 . S
C1343 C1359 1.349 . S
C1344 C1342 1.327 . S
C1344 C1363 1.429 . S
C1344 H1368 0.950 . S
C1345 C1362 1.574 . S
C1345 C1364 1.368 . S
C1345 H1369 0.949 . S
H1346 C1350 0.949 . S
C1347 C1348 1.349 . S
C1347 C1349 1.327 . S
C1347 H1370 0.950 . S
C1348 C1347 1.349 . S
C1348 C1360 1.349 . S
C1349 C1347 1.327 . S
C1349 C1365 1.429 . S
C1349 H1371 0.950 1_655 S
C1350 H1346 0.949 . S
C1350 C1358 1.574 . S
C1350 C1366 1.368 . S
H1351 C1359 0.950 1_565 S
H1352 C1357 0.948 1_565 S
H1353 C1358 0.949 . S
H1354 C1360 0.950 . S
H1355 C1361 0.950 . S
H1356 C1362 0.949 . S
C1357 H1352 0.948 1_545 S
C1357 C1359 1.327 . S
C1357 C1363 1.429 . S
C1358 C1350 1.574 . S
C1358 H1353 0.949 . S
C1358 C1364 1.368 1_655 S
C1359 C1343 1.349 . S
C1359 H1351 0.950 1_545 S
C1359 C1357 1.327 . S
C1360 C1348 1.349 . S
C1360 H1354 0.950 . S
C1360 C1361 1.327 . S
C1361 H1355 0.950 . S
C1361 C1360 1.327 . S
C1361 C1365 1.429 . S
C1362 C1345 1.574 . S
C1362 H1356 0.949 . S
C1362 C1366 1.368 1_455 S
C1363 C1344 1.429 . S
C1363 C1357 1.429 . S
C1363 C1364 1.523 . S
C1364 C1345 1.368 . S
C1364 C1358 1.368 1_455 S
C1364 C1363 1.523 . S
C1365 C1349 1.429 . S
C1365 C1361 1.429 . S
C1365 C1366 1.523 . S
C1366 C1350 1.368 . S
C1366 C1362 1.368 1_655 S
C1366 C1365 1.523 . S
H1367 C1342 0.950 . S
H1368 C1344 0.950 . S
H1369 C1345 0.949 . S
H1370 C1347 0.950 . S
H1371 C1349 0.950 1_455 S
C1372 C1373 1.349 . S
C1372 C1374 1.327 . S
C1372 H1397 0.950 . S
C1373 C1372 1.349 . S
C1373 C1389 1.349 . S
C1374 C1372 1.327 . S
C1374 C1393 1.429 . S
C1374 H1398 0.950 . S
C1375 C1392 1.574 . S
C1375 C1394 1.368 . S
C1375 H1399 0.949 . S
H1376 C1380 0.949 . S
C1377 C1378 1.349 . S
C1377 C1379 1.327 . S
C1377 H1400 0.950 . S
C1378 C1377 1.349 . S
C1378 C1390 1.349 . S
C1379 C1377 1.327 . S
C1379 C1395 1.429 . S
C1379 H1401 0.950 . S
C1380 H1376 0.949 . S
C1380 C1388 1.574 . S
C1380 C1396 1.368 . S
H1381 C1389 0.950 . S
H1382 C1387 0.950 . S
H1383 C1388 0.949 . S
H1384 C1390 0.950 . S
H1385 C1391 0.950 . S
H1386 C1392 0.949 . S
C1387 H1382 0.950 . S
C1387 C1389 1.327 . S
C1387 C1393 1.429 . S
C1388 C1380 1.574 . S
C1388 H1383 0.949 . S
C1388 C1394 1.368 . S
C1389 C1373 1.349 . S
C1389 H1381 0.950 . S
C1389 C1387 1.327 . S
C1390 C1378 1.349 . S
C1390 H1384 0.950 . S
C1390 C1391 1.327 . S
C1391 H1385 0.950 . S
C1391 C1390 1.327 . S
C1391 C1395 1.429 . S
C1392 C1375 1.574 . S
C1392 H1386 0.949 . S
C1392 C1396 1.368 . S
C1393 C1374 1.429 . S
C1393 C1387 1.429 . S
C1393 C1394 1.523 . S
C1394 C1375 1.368 . S
C1394 C1388 1.368 . S
C1394 C1393 1.523 . S
C1395 C1379 1.429 . S
C1395 C1391 1.429 . S
C1395 C1396 1.523 . S
C1396 C1380 1.368 . S
C1396 C1392 1.368 . S
C1396 C1395 1.523 . S
H1397 C1372 0.950 . S
H1398 C1374 0.950 . S
H1399 C1375 0.949 . S
H1400 C1377 0.950 . S
H1401 C1379 0.950 . S
C1402 C1403 1.349 . S
C1402 C1404 1.327 . S
C1402 H1427 0.950 . S
C1403 C1402 1.349 . S
C1403 C1419 1.349 . S
C1404 C1402 1.327 . S
C1404 C1423 1.429 . S
C1404 H1428 0.950 . S
C1405 C1422 1.574 . S
C1405 C1424 1.368 . S
C1405 H1429 0.949 . S
H1406 C1410 0.949 . S
C1407 C1408 1.349 . S
C1407 C1409 1.327 . S
C1407 H1430 0.950 . S
C1408 C1407 1.349 . S
C1408 C1420 1.349 . S
C1409 C1407 1.327 . S
C1409 C1425 1.429 . S
C1409 H1431 0.950 . S
C1410 H1406 0.949 . S
C1410 C1418 1.574 . S
C1410 C1426 1.368 . S
H1411 C1419 0.950 . S
H1412 C1417 0.950 . S
H1413 C1418 0.949 . S
H1414 C1420 0.950 . S
H1415 C1421 0.950 . S
H1416 C1422 0.949 . S
C1417 H1412 0.950 . S
C1417 C1419 1.327 . S
C1417 C1423 1.429 . S
C1418 C1410 1.574 . S
C1418 H1413 0.949 . S
C1418 C1424 1.368 . S
C1419 C1403 1.349 . S
C1419 H1411 0.950 . S
C1419 C1417 1.327 . S
C1420 C1408 1.349 . S
C1420 H1414 0.950 . S
C1420 C1421 1.327 . S
C1421 H1415 0.950 . S
C1421 C1420 1.327 . S
C1421 C1425 1.429 . S
C1422 C1405 1.574 . S
C1422 H1416 0.949 . S
C1422 C1426 1.368 . S
C1423 C1404 1.429 . S
C1423 C1417 1.429 . S
C1423 C1424 1.523 . S
C1424 C1405 1.368 . S
C1424 C1418 1.368 . S
C1424 C1423 1.523 . S
C1425 C1409 1.429 . S
C1425 C1421 1.429 . S
C1425 C1426 1.523 . S
C1426 C1410 1.368 . S
C1426 C1422 1.368 . S
C1426 C1425 1.523 . S
H1427 C1402 0.950 . S
H1428 C1404 0.950 . S
H1429 C1405 0.949 . S
H1430 C1407 0.950 . S
H1431 C1409 0.950 . S
C1432 C1433 1.349 . S
C1432 C1434 1.327 . S
C1432 H1457 0.950 . S
C1433 C1432 1.349 . S
C1433 C1449 1.349 . S
C1434 C1432 1.327 . S
C1434 C1453 1.429 . S
C1434 H1458 0.950 . S
C1435 C1452 1.574 . S
C1435 C1454 1.368 . S
C1435 H1459 0.949 . S
H1436 C1440 0.949 . S
C1437 C1438 1.349 . S
C1437 C1439 1.327 . S
C1437 H1460 0.950 . S
C1438 C1437 1.349 . S
C1438 C1450 1.349 . S
C1439 C1437 1.327 . S
C1439 C1455 1.429 . S
C1439 H1461 0.950 . S
C1440 H1436 0.949 . S
C1440 C1448 1.574 . S
C1440 C1456 1.368 . S
H1441 C1449 0.950 . S
H1442 C1447 0.950 . S
H1443 C1448 0.949 . S
H1444 C1450 0.950 . S
H1445 C1451 0.950 . S
H1446 C1452 0.949 . S
C1447 H1442 0.950 . S
C1447 C1449 1.327 . S
C1447 C1453 1.429 . S
C1448 C1440 1.574 . S
C1448 H1443 0.949 . S
C1448 C1454 1.368 . S
C1449 C1433 1.349 . S
C1449 H1441 0.950 . S
C1449 C1447 1.327 . S
C1450 C1438 1.349 . S
C1450 H1444 0.950 . S
C1450 C1451 1.327 . S
C1451 H1445 0.950 . S
C1451 C1450 1.327 . S
C1451 C1455 1.429 . S
C1452 C1435 1.574 . S
C1452 H1446 0.949 . S
C1452 C1456 1.368 . S
C1453 C1434 1.429 . S
C1453 C1447 1.429 . S
C1453 C1454 1.523 . S
C1454 C1435 1.368 . S
C1454 C1448 1.368 . S
C1454 C1453 1.523 . S
C1455 C1439 1.429 . S
C1455 C1451 1.429 . S
C1455 C1456 1.523 . S
C1456 C1440 1.368 . S
C1456 C1452 1.368 . S
C1456 C1455 1.523 . S
H1457 C1432 0.950 . S
H1458 C1434 0.950 . S
H1459 C1435 0.949 . S
H1460 C1437 0.950 . S
H1461 C1439 0.950 . S
C1462 C1463 1.349 1_655 S
C1462 C1464 1.327 . S
C1462 H1487 0.950 . S
C1463 C1462 1.349 1_455 S
C1463 C1479 1.349 . S
C1464 C1462 1.327 . S
C1464 C1483 1.429 1_655 S
C1464 H1488 0.950 . S
C1465 C1482 1.574 . S
C1465 C1484 1.368 . S
C1465 H1489 0.949 . S
H1466 C1470 0.949 . S
C1467 C1468 1.349 . S
C1467 C1469 1.327 . S
C1467 H1490 0.950 . S
C1468 C1467 1.349 . S
C1468 C1480 1.350 1_455 S
C1469 C1467 1.327 . S
C1469 C1485 1.429 . S
C1469 H1491 0.950 . S
C1470 H1466 0.949 . S
C1470 C1478 1.574 . S
C1470 C1486 1.368 1_655 S
H1471 C1479 0.950 . S
H1472 C1477 0.950 . S
H1473 C1478 0.949 . S
H1474 C1480 0.949 . S
H1475 C1481 0.950 . S
H1476 C1482 0.949 . S
C1477 H1472 0.950 . S
C1477 C1479 1.327 . S
C1477 C1483 1.429 . S
C1478 C1470 1.574 . S
C1478 H1473 0.949 . S
C1478 C1484 1.368 1_655 S
C1479 C1463 1.349 . S
C1479 H1471 0.950 . S
C1479 C1477 1.327 . S
C1480 C1468 1.350 1_655 S
C1480 H1474 0.949 . S
C1480 C1481 1.327 . S
C1481 H1475 0.950 . S
C1481 C1480 1.327 . S
C1481 C1485 1.429 1_655 S
C1482 C1465 1.574 . S
C1482 H1476 0.949 . S
C1482 C1486 1.368 . S
C1483 C1464 1.429 1_455 S
C1483 C1477 1.429 . S
C1483 C1484 1.523 . S
C1484 C1465 1.368 . S
C1484 C1478 1.368 1_455 S
C1484 C1483 1.523 . S
C1485 C1469 1.429 . S
C1485 C1481 1.429 1_455 S
C1485 C1486 1.523 . S
C1486 C1470 1.368 1_455 S
C1486 C1482 1.368 . S
C1486 C1485 1.523 . S
H1487 C1462 0.950 . S
H1488 C1464 0.950 . S
H1489 C1465 0.949 . S
H1490 C1467 0.950 . S
H1491 C1469 0.950 . S
C1492 C1493 1.349 . S
C1492 C1494 1.327 . S
C1492 H1517 0.950 . S
C1493 C1492 1.349 . S
C1493 C1509 1.349 . S
C1494 C1492 1.327 . S
C1494 C1513 1.429 . S
C1494 H1518 0.950 . S
C1495 C1512 1.574 . S
C1495 C1514 1.368 . S
C1495 H1519 0.949 . S
H1496 C1500 0.949 . S
C1497 C1498 1.349 . S
C1497 C1499 1.327 . S
C1497 H1520 0.950 . S
C1498 C1497 1.349 . S
C1498 C1510 1.349 . S
C1499 C1497 1.327 . S
C1499 C1515 1.429 . S
C1499 H1521 0.950 . S
C1500 H1496 0.949 . S
C1500 C1508 1.574 . S
C1500 C1516 1.368 . S
H1501 C1509 0.950 . S
H1502 C1507 0.950 . S
H1503 C1508 0.949 . S
H1504 C1510 0.950 . S
H1505 C1511 0.950 . S
H1506 C1512 0.949 . S
C1507 H1502 0.950 . S
C1507 C1509 1.327 . S
C1507 C1513 1.429 . S
C1508 C1500 1.574 . S
C1508 H1503 0.949 . S
C1508 C1514 1.368 . S
C1509 C1493 1.349 . S
C1509 H1501 0.950 . S
C1509 C1507 1.327 . S
C1510 C1498 1.349 . S
C1510 H1504 0.950 . S
C1510 C1511 1.327 . S
C1511 H1505 0.950 . S
C1511 C1510 1.327 . S
C1511 C1515 1.429 . S
C1512 C1495 1.574 . S
C1512 H1506 0.949 . S
C1512 C1516 1.368 . S
C1513 C1494 1.429 . S
C1513 C1507 1.429 . S
C1513 C1514 1.523 . S
C1514 C1495 1.368 . S
C1514 C1508 1.368 . S
C1514 C1513 1.523 . S
C1515 C1499 1.429 . S
C1515 C1511 1.429 . S
C1515 C1516 1.523 . S
C1516 C1500 1.368 . S
C1516 C1512 1.368 . S
C1516 C1515 1.523 . S
H1517 C1492 0.950 . S
H1518 C1494 0.950 . S
H1519 C1495 0.949 . S
H1520 C1497 0.950 . S
H1521 C1499 0.950 . S
C1522 C1523 1.349 . S
C1522 C1524 1.327 . S
C1522 H1547 0.950 1_556 S
C1523 C1522 1.349 . S
C1523 C1539 1.349 . S
C1524 C1522 1.327 . S
C1524 C1543 1.429 . S
C1524 H1548 0.950 . S
C1525 C1542 1.574 . S
C1525 C1544 1.368 . S
C1525 H1549 0.949 . S
H1526 C1530 0.949 . S
C1527 C1528 1.349 . S
C1527 C1529 1.327 . S
C1527 H1550 0.950 . S
C1528 C1527 1.349 . S
C1528 C1540 1.349 . S
C1529 C1527 1.327 . S
C1529 C1545 1.429 . S
C1529 H1551 0.950 . S
C1530 H1526 0.949 . S
C1530 C1538 1.574 . S
C1530 C1546 1.368 . S
H1531 C1539 0.950 . S
H1532 C1537 0.950 . S
H1533 C1538 0.949 . S
H1534 C1540 0.950 . S
H1535 C1541 0.950 . S
H1536 C1542 0.949 . S
C1537 H1532 0.950 . S
C1537 C1539 1.327 . S
C1537 C1543 1.429 . S
C1538 C1530 1.574 . S
C1538 H1533 0.949 . S
C1538 C1544 1.368 . S
C1539 C1523 1.349 . S
C1539 H1531 0.950 . S
C1539 C1537 1.327 . S
C1540 C1528 1.349 . S
C1540 H1534 0.950 . S
C1540 C1541 1.327 . S
C1541 H1535 0.950 . S
C1541 C1540 1.327 . S
C1541 C1545 1.429 . S
C1542 C1525 1.574 . S
C1542 H1536 0.949 . S
C1542 C1546 1.368 . S
C1543 C1524 1.429 . S
C1543 C1537 1.429 . S
C1543 C1544 1.523 . S
C1544 C1525 1.368 . S
C1544 C1538 1.368 . S
C1544 C1543 1.523 . S
C1545 C1529 1.429 . S
C1545 C1541 1.429 . S
C1545 C1546 1.523 . S
C1546 C1530 1.368 . S
C1546 C1542 1.368 . S
C1546 C1545 1.523 . S
H1547 C1522 0.950 1_554 S
H1548 C1524 0.950 . S
H1549 C1525 0.949 . S
H1550 C1527 0.950 . S
H1551 C1529 0.950 . S
C1552 C1553 1.349 . S
C1552 C1554 1.327 . S
C1552 H1577 0.950 . S
C1553 C1552 1.349 . S
C1553 C1569 1.349 . S
C1554 C1552 1.327 . S
C1554 C1573 1.429 . S
C1554 H1578 0.950 . S
C1555 C1572 1.574 . S
C1555 C1574 1.368 . S
C1555 H1579 0.949 . S
H1556 C1560 0.949 . S
C1557 C1558 1.349 . S
C1557 C1559 1.327 . S
C1557 H1580 0.950 . S
C1558 C1557 1.349 . S
C1558 C1570 1.349 . S
C1559 C1557 1.327 . S
C1559 C1575 1.429 . S
C1559 H1581 0.950 . S
C1560 H1556 0.949 . S
C1560 C1568 1.574 . S
C1560 C1576 1.368 . S
H1561 C1569 0.950 . S
H1562 C1567 0.950 . S
H1563 C1568 0.949 . S
H1564 C1570 0.950 . S
H1565 C1571 0.950 . S
H1566 C1572 0.949 . S
C1567 H1562 0.950 . S
C1567 C1569 1.327 . S
C1567 C1573 1.429 . S
C1568 C1560 1.574 . S
C1568 H1563 0.949 . S
C1568 C1574 1.368 . S
C1569 C1553 1.349 . S
C1569 H1561 0.950 . S
C1569 C1567 1.327 . S
C1570 C1558 1.349 . S
C1570 H1564 0.950 . S
C1570 C1571 1.327 . S
C1571 H1565 0.950 . S
C1571 C1570 1.327 . S
C1571 C1575 1.429 . S
C1572 C1555 1.574 . S
C1572 H1566 0.949 . S
C1572 C1576 1.368 . S
C1573 C1554 1.429 . S
C1573 C1567 1.429 . S
C1573 C1574 1.523 . S
C1574 C1555 1.368 . S
C1574 C1568 1.368 . S
C1574 C1573 1.523 . S
C1575 C1559 1.429 . S
C1575 C1571 1.429 . S
C1575 C1576 1.523 . S
C1576 C1560 1.368 . S
C1576 C1572 1.368 . S
C1576 C1575 1.523 . S
H1577 C1552 0.950 . S
H1578 C1554 0.950 . S
H1579 C1555 0.949 . S
H1580 C1557 0.950 . S
H1581 C1559 0.950 . S
C1582 C1583 1.349 . S
C1582 C1584 1.327 . S
C1582 H1607 0.950 . S
C1583 C1582 1.349 . S
C1583 C1599 1.349 . S
C1584 C1582 1.327 . S
C1584 C1603 1.429 . S
C1584 H1608 0.950 . S
C1585 C1602 1.574 . S
C1585 C1604 1.368 . S
C1585 H1609 0.949 . S
H1586 C1590 0.949 . S
C1587 C1588 1.349 . S
C1587 C1589 1.327 . S
C1587 H1610 0.950 . S
C1588 C1587 1.349 . S
C1588 C1600 1.349 . S
C1589 C1587 1.327 . S
C1589 C1605 1.429 . S
C1589 H1611 0.950 . S
C1590 H1586 0.949 . S
C1590 C1598 1.574 . S
C1590 C1606 1.368 . S
H1591 C1599 0.950 . S
H1592 C1597 0.950 . S
H1593 C1598 0.949 . S
H1594 C1600 0.950 . S
H1595 C1601 0.950 . S
H1596 C1602 0.949 . S
C1597 H1592 0.950 . S
C1597 C1599 1.327 . S
C1597 C1603 1.429 . S
C1598 C1590 1.574 . S
C1598 H1593 0.949 . S
C1598 C1604 1.368 . S
C1599 C1583 1.349 . S
C1599 H1591 0.950 . S
C1599 C1597 1.327 . S
C1600 C1588 1.349 . S
C1600 H1594 0.950 . S
C1600 C1601 1.327 . S
C1601 H1595 0.950 . S
C1601 C1600 1.327 . S
C1601 C1605 1.429 . S
C1602 C1585 1.574 . S
C1602 H1596 0.949 . S
C1602 C1606 1.368 . S
C1603 C1584 1.429 . S
C1603 C1597 1.429 . S
C1603 C1604 1.523 . S
C1604 C1585 1.368 . S
C1604 C1598 1.368 . S
C1604 C1603 1.523 . S
C1605 C1589 1.429 . S
C1605 C1601 1.429 . S
C1605 C1606 1.523 . S
C1606 C1590 1.368 . S
C1606 C1602 1.368 . S
C1606 C1605 1.523 . S
H1607 C1582 0.950 . S
H1608 C1584 0.950 . S
H1609 C1585 0.949 . S
H1610 C1587 0.950 . S
H1611 C1589 0.950 . S
C1612 C1613 1.349 . S
C1612 C1614 1.327 . S
C1612 H1637 0.950 . S
C1613 C1612 1.349 . S
C1613 C1629 1.349 . S
C1614 C1612 1.327 . S
C1614 C1633 1.429 . S
C1614 H1638 0.950 . S
C1615 C1632 1.574 . S
C1615 C1634 1.368 . S
C1615 H1639 0.949 . S
H1616 C1620 0.949 . S
C1617 C1618 1.349 . S
C1617 C1619 1.327 . S
C1617 H1640 0.950 . S
C1618 C1617 1.349 . S
C1618 C1630 1.349 . S
C1619 C1617 1.327 . S
C1619 C1635 1.429 . S
C1619 H1641 0.950 . S
C1620 H1616 0.949 . S
C1620 C1628 1.574 . S
C1620 C1636 1.368 . S
H1621 C1629 0.950 . S
H1622 C1627 0.950 . S
H1623 C1628 0.949 . S
H1624 C1630 0.950 . S
H1625 C1631 0.950 . S
H1626 C1632 0.949 . S
C1627 H1622 0.950 . S
C1627 C1629 1.327 . S
C1627 C1633 1.429 . S
C1628 C1620 1.574 . S
C1628 H1623 0.949 . S
C1628 C1634 1.368 . S
C1629 C1613 1.349 . S
C1629 H1621 0.950 . S
C1629 C1627 1.327 . S
C1630 C1618 1.349 . S
C1630 H1624 0.950 . S
C1630 C1631 1.327 . S
C1631 H1625 0.950 . S
C1631 C1630 1.327 . S
C1631 C1635 1.429 . S
C1632 C1615 1.574 . S
C1632 H1626 0.949 . S
C1632 C1636 1.368 . S
C1633 C1614 1.429 . S
C1633 C1627 1.429 . S
C1633 C1634 1.523 . S
C1634 C1615 1.368 . S
C1634 C1628 1.368 . S
C1634 C1633 1.523 . S
C1635 C1619 1.429 . S
C1635 C1631 1.429 . S
C1635 C1636 1.523 . S
C1636 C1620 1.368 . S
C1636 C1632 1.368 . S
C1636 C1635 1.523 . S
H1637 C1612 0.950 . S
H1638 C1614 0.950 . S
H1639 C1615 0.949 . S
H1640 C1617 0.950 . S
H1641 C1619 0.950 . S
C1642 C1643 1.349 . S
C1642 C1644 1.327 1_556 S
C1642 H1667 0.950 . S
C1643 C1642 1.349 . S
C1643 C1659 1.349 . S
C1644 C1642 1.327 1_554 S
C1644 C1663 1.429 . S
C1644 H1668 0.950 . S
C1645 C1662 1.574 . S
C1645 C1664 1.368 . S
C1645 H1669 0.949 . S
H1646 C1650 0.949 . S
C1647 C1648 1.349 . S
C1647 C1649 1.327 . S
C1647 H1670 0.950 . S
C1648 C1647 1.349 . S
C1648 C1660 1.349 . S
C1649 C1647 1.327 . S
C1649 C1665 1.429 . S
C1649 H1671 0.950 . S
C1650 H1646 0.949 . S
C1650 C1658 1.574 . S
C1650 C1666 1.368 . S
H1651 C1659 0.950 . S
H1652 C1657 0.950 . S
H1653 C1658 0.949 . S
H1654 C1660 0.950 . S
H1655 C1661 0.950 . S
H1656 C1662 0.949 . S
C1657 H1652 0.950 . S
C1657 C1659 1.327 1_554 S
C1657 C1663 1.429 . S
C1658 C1650 1.574 . S
C1658 H1653 0.949 . S
C1658 C1664 1.368 . S
C1659 C1643 1.349 . S
C1659 H1651 0.950 . S
C1659 C1657 1.327 1_556 S
C1660 C1648 1.349 . S
C1660 H1654 0.950 . S
C1660 C1661 1.327 . S
C1661 H1655 0.950 . S
C1661 C1660 1.327 . S
C1661 C1665 1.429 . S
C1662 C1645 1.574 . S
C1662 H1656 0.949 . S
C1662 C1666 1.368 . S
C1663 C1644 1.429 . S
C1663 C1657 1.429 . S
C1663 C1664 1.523 . S
C1664 C1645 1.368 . S
C1664 C1658 1.368 . S
C1664 C1663 1.523 . S
C1665 C1649 1.429 . S
C1665 C1661 1.429 . S
C1665 C1666 1.523 . S
C1666 C1650 1.368 . S
C1666 C1662 1.368 . S
C1666 C1665 1.523 . S
H1667 C1642 0.950 . S
H1668 C1644 0.950 . S
H1669 C1645 0.949 . S
H1670 C1647 0.950 . S
H1671 C1649 0.950 . S
C1672 C1673 1.349 . S
C1672 C1674 1.327 . S
C1672 H1697 0.950 . S
C1673 C1672 1.349 . S
C1673 C1689 1.349 . S
C1674 C1672 1.327 . S
C1674 C1693 1.429 . S
C1674 H1698 0.950 . S
C1675 C1692 1.574 . S
C1675 C1694 1.368 . S
C1675 H1699 0.949 . S
H1676 C1680 0.949 . S
C1677 C1678 1.349 . S
C1677 C1679 1.327 . S
C1677 H1700 0.950 . S
C1678 C1677 1.349 . S
C1678 C1690 1.349 . S
C1679 C1677 1.327 . S
C1679 C1695 1.429 . S
C1679 H1701 0.950 . S
C1680 H1676 0.949 . S
C1680 C1688 1.574 . S
C1680 C1696 1.368 . S
H1681 C1689 0.950 . S
H1682 C1687 0.950 . S
H1683 C1688 0.949 . S
H1684 C1690 0.950 . S
H1685 C1691 0.950 . S
H1686 C1692 0.949 . S
C1687 H1682 0.950 . S
C1687 C1689 1.327 . S
C1687 C1693 1.429 . S
C1688 C1680 1.574 . S
C1688 H1683 0.949 . S
C1688 C1694 1.368 . S
C1689 C1673 1.349 . S
C1689 H1681 0.950 . S
C1689 C1687 1.327 . S
C1690 C1678 1.349 . S
C1690 H1684 0.950 . S
C1690 C1691 1.327 . S
C1691 H1685 0.950 . S
C1691 C1690 1.327 . S
C1691 C1695 1.429 . S
C1692 C1675 1.574 . S
C1692 H1686 0.949 . S
C1692 C1696 1.368 . S
C1693 C1674 1.429 . S
C1693 C1687 1.429 . S
C1693 C1694 1.523 . S
C1694 C1675 1.368 . S
C1694 C1688 1.368 . S
C1694 C1693 1.523 . S
C1695 C1679 1.429 . S
C1695 C1691 1.429 . S
C1695 C1696 1.523 . S
C1696 C1680 1.368 . S
C1696 C1692 1.368 . S
C1696 C1695 1.523 . S
H1697 C1672 0.950 . S
H1698 C1674 0.950 . S
H1699 C1675 0.949 . S
H1700 C1677 0.950 . S
H1701 C1679 0.950 . S
C1702 C1703 1.349 . S
C1702 C1704 1.327 . S
C1702 H1727 0.950 . S
C1703 C1702 1.349 . S
C1703 C1719 1.349 . S
C1704 C1702 1.327 . S
C1704 C1723 1.429 . S
C1704 H1728 0.950 . S
C1705 C1722 1.574 . S
C1705 C1724 1.368 . S
C1705 H1729 0.949 . S
H1706 C1710 0.949 . S
C1707 C1708 1.349 . S
C1707 C1709 1.327 . S
C1707 H1730 0.950 . S
C1708 C1707 1.349 . S
C1708 C1720 1.349 . S
C1709 C1707 1.327 . S
C1709 C1725 1.429 . S
C1709 H1731 0.950 . S
C1710 H1706 0.949 . S
C1710 C1718 1.574 . S
C1710 C1726 1.368 . S
H1711 C1719 0.950 . S
H1712 C1717 0.950 . S
H1713 C1718 0.949 . S
H1714 C1720 0.950 . S
H1715 C1721 0.950 . S
H1716 C1722 0.949 . S
C1717 H1712 0.950 . S
C1717 C1719 1.327 . S
C1717 C1723 1.429 . S
C1718 C1710 1.574 . S
C1718 H1713 0.949 . S
C1718 C1724 1.368 . S
C1719 C1703 1.349 . S
C1719 H1711 0.950 . S
C1719 C1717 1.327 . S
C1720 C1708 1.349 . S
C1720 H1714 0.950 . S
C1720 C1721 1.327 . S
C1721 H1715 0.950 . S
C1721 C1720 1.327 . S
C1721 C1725 1.429 . S
C1722 C1705 1.574 . S
C1722 H1716 0.949 . S
C1722 C1726 1.368 . S
C1723 C1704 1.429 . S
C1723 C1717 1.429 . S
C1723 C1724 1.523 . S
C1724 C1705 1.368 . S
C1724 C1718 1.368 . S
C1724 C1723 1.523 . S
C1725 C1709 1.429 . S
C1725 C1721 1.429 . S
C1725 C1726 1.523 . S
C1726 C1710 1.368 . S
C1726 C1722 1.368 . S
C1726 C1725 1.523 . S
H1727 C1702 0.950 . S
H1728 C1704 0.950 . S
H1729 C1705 0.949 . S
H1730 C1707 0.950 . S
H1731 C1709 0.950 . S
C1732 C1733 1.349 . S
C1732 C1734 1.327 . S
C1732 H1757 0.950 . S
C1733 C1732 1.349 . S
C1733 C1749 1.349 . S
C1734 C1732 1.327 . S
C1734 C1753 1.429 . S
C1734 H1758 0.950 . S
C1735 C1752 1.574 . S
C1735 C1754 1.368 . S
C1735 H1759 0.949 . S
H1736 C1740 0.949 . S
C1737 C1738 1.349 . S
C1737 C1739 1.327 . S
C1737 H1760 0.950 . S
C1738 C1737 1.349 . S
C1738 C1750 1.349 . S
C1739 C1737 1.327 . S
C1739 C1755 1.429 . S
C1739 H1761 0.950 . S
C1740 H1736 0.949 . S
C1740 C1748 1.574 . S
C1740 C1756 1.368 . S
H1741 C1749 0.950 . S
H1742 C1747 0.950 . S
H1743 C1748 0.949 . S
H1744 C1750 0.950 . S
H1745 C1751 0.950 . S
H1746 C1752 0.949 . S
C1747 H1742 0.950 . S
C1747 C1749 1.327 . S
C1747 C1753 1.429 . S
C1748 C1740 1.574 . S
C1748 H1743 0.949 . S
C1748 C1754 1.368 . S
C1749 C1733 1.349 . S
C1749 H1741 0.950 . S
C1749 C1747 1.327 . S
C1750 C1738 1.349 . S
C1750 H1744 0.950 . S
C1750 C1751 1.327 . S
C1751 H1745 0.950 . S
C1751 C1750 1.327 . S
C1751 C1755 1.429 . S
C1752 C1735 1.574 . S
C1752 H1746 0.949 . S
C1752 C1756 1.368 . S
C1753 C1734 1.429 . S
C1753 C1747 1.429 . S
C1753 C1754 1.523 . S
C1754 C1735 1.368 . S
C1754 C1748 1.368 . S
C1754 C1753 1.523 . S
C1755 C1739 1.429 . S
C1755 C1751 1.429 . S
C1755 C1756 1.523 . S
C1756 C1740 1.368 . S
C1756 C1752 1.368 . S
C1756 C1755 1.523 . S
H1757 C1732 0.950 . S
H1758 C1734 0.950 . S
H1759 C1735 0.949 . S
H1760 C1737 0.950 . S
H1761 C1739 0.950 . S
C1762 C1763 1.349 . S
C1762 C1764 1.327 . S
C1762 H1787 0.950 . S
C1763 C1762 1.349 . S
C1763 C1779 1.349 . S
C1764 C1762 1.327 . S
C1764 C1783 1.429 . S
C1764 H1788 0.950 . S
C1765 C1782 1.574 . S
C1765 C1784 1.368 . S
C1765 H1789 0.949 . S
H1766 C1770 0.949 . S
C1767 C1768 1.349 . S
C1767 C1769 1.327 . S
C1767 H1790 0.950 . S
C1768 C1767 1.349 . S
C1768 C1780 1.349 . S
C1769 C1767 1.327 . S
C1769 C1785 1.429 . S
C1769 H1791 0.950 . S
C1770 H1766 0.949 . S
C1770 C1778 1.574 . S
C1770 C1786 1.368 . S
H1771 C1779 0.950 . S
H1772 C1777 0.950 . S
H1773 C1778 0.949 . S
H1774 C1780 0.950 . S
H1775 C1781 0.950 . S
H1776 C1782 0.949 . S
C1777 H1772 0.950 . S
C1777 C1779 1.327 . S
C1777 C1783 1.429 . S
C1778 C1770 1.574 . S
C1778 H1773 0.949 . S
C1778 C1784 1.368 . S
C1779 C1763 1.349 . S
C1779 H1771 0.950 . S
C1779 C1777 1.327 . S
C1780 C1768 1.349 . S
C1780 H1774 0.950 . S
C1780 C1781 1.327 . S
C1781 H1775 0.950 . S
C1781 C1780 1.327 . S
C1781 C1785 1.429 . S
C1782 C1765 1.574 . S
C1782 H1776 0.949 . S
C1782 C1786 1.368 . S
C1783 C1764 1.429 . S
C1783 C1777 1.429 . S
C1783 C1784 1.523 . S
C1784 C1765 1.368 . S
C1784 C1778 1.368 . S
C1784 C1783 1.523 . S
C1785 C1769 1.429 . S
C1785 C1781 1.429 . S
C1785 C1786 1.523 . S
C1786 C1770 1.368 . S
C1786 C1782 1.368 . S
C1786 C1785 1.523 . S
H1787 C1762 0.950 . S
H1788 C1764 0.950 . S
H1789 C1765 0.949 . S
H1790 C1767 0.950 . S
H1791 C1769 0.950 . S
C1792 C1793 1.349 1_554 S
C1792 C1794 1.327 . S
C1792 H1817 0.950 . S
C1793 C1792 1.349 1_556 S
C1793 C1809 1.349 . S
C1794 C1792 1.327 . S
C1794 C1813 1.429 1_554 S
C1794 H1818 0.950 . S
C1795 C1812 1.574 . S
C1795 C1814 1.368 . S
C1795 H1819 0.949 . S
H1796 C1800 0.949 . S
C1797 C1798 1.349 . S
C1797 C1799 1.327 . S
C1797 H1820 0.950 . S
C1798 C1797 1.349 . S
C1798 C1810 1.349 1_556 S
C1799 C1797 1.327 . S
C1799 C1815 1.429 . S
C1799 H1821 0.950 . S
C1800 H1796 0.949 . S
C1800 C1808 1.574 . S
C1800 C1816 1.368 1_554 S
H1801 C1809 0.950 . S
H1802 C1807 0.950 . S
H1803 C1808 0.949 . S
H1804 C1810 0.950 . S
H1805 C1811 0.950 . S
H1806 C1812 0.949 . S
C1807 H1802 0.950 . S
C1807 C1809 1.327 . S
C1807 C1813 1.429 . S
C1808 C1800 1.574 . S
C1808 H1803 0.949 . S
C1808 C1814 1.368 1_554 S
C1809 C1793 1.349 . S
C1809 H1801 0.950 . S
C1809 C1807 1.327 . S
C1810 C1798 1.349 1_554 S
C1810 H1804 0.950 . S
C1810 C1811 1.327 . S
C1811 H1805 0.950 . S
C1811 C1810 1.327 . S
C1811 C1815 1.429 1_554 S
C1812 C1795 1.574 . S
C1812 H1806 0.949 . S
C1812 C1816 1.368 . S
C1813 C1794 1.429 1_556 S
C1813 C1807 1.429 . S
C1813 C1814 1.523 . S
C1814 C1795 1.368 . S
C1814 C1808 1.368 1_556 S
C1814 C1813 1.523 . S
C1815 C1799 1.429 . S
C1815 C1811 1.429 1_556 S
C1815 C1816 1.523 . S
C1816 C1800 1.368 1_556 S
C1816 C1812 1.368 . S
C1816 C1815 1.523 . S
H1817 C1792 0.950 . S
H1818 C1794 0.950 . S
H1819 C1795 0.949 . S
H1820 C1797 0.950 . S
H1821 C1799 0.950 . S
C1822 C1823 1.349 . S
C1822 C1824 1.327 . S
C1822 H1847 0.950 . S
C1823 C1822 1.349 . S
C1823 C1839 1.349 . S
C1824 C1822 1.327 . S
C1824 C1843 1.429 . S
C1824 H1848 0.950 . S
C1825 C1842 1.574 . S
C1825 C1844 1.368 . S
C1825 H1849 0.949 . S
H1826 C1830 0.949 . S
C1827 C1828 1.349 . S
C1827 C1829 1.327 . S
C1827 H1850 0.950 . S
C1828 C1827 1.349 . S
C1828 C1840 1.349 . S
C1829 C1827 1.327 . S
C1829 C1845 1.429 . S
C1829 H1851 0.950 . S
C1830 H1826 0.949 . S
C1830 C1838 1.574 . S
C1830 C1846 1.368 . S
H1831 C1839 0.950 . S
H1832 C1837 0.950 . S
H1833 C1838 0.949 . S
H1834 C1840 0.950 . S
H1835 C1841 0.950 . S
H1836 C1842 0.949 . S
C1837 H1832 0.950 . S
C1837 C1839 1.327 . S
C1837 C1843 1.429 . S
C1838 C1830 1.574 . S
C1838 H1833 0.949 . S
C1838 C1844 1.368 . S
C1839 C1823 1.349 . S
C1839 H1831 0.950 . S
C1839 C1837 1.327 . S
C1840 C1828 1.349 . S
C1840 H1834 0.950 . S
C1840 C1841 1.327 . S
C1841 H1835 0.950 . S
C1841 C1840 1.327 . S
C1841 C1845 1.429 . S
C1842 C1825 1.574 . S
C1842 H1836 0.949 . S
C1842 C1846 1.368 . S
C1843 C1824 1.429 . S
C1843 C1837 1.429 . S
C1843 C1844 1.523 . S
C1844 C1825 1.368 . S
C1844 C1838 1.368 . S
C1844 C1843 1.523 . S
C1845 C1829 1.429 . S
C1845 C1841 1.429 . S
C1845 C1846 1.523 . S
C1846 C1830 1.368 . S
C1846 C1842 1.368 . S
C1846 C1845 1.523 . S
H1847 C1822 0.950 . S
H1848 C1824 0.950 . S
H1849 C1825 0.949 . S
H1850 C1827 0.950 . S
H1851 C1829 0.950 . S
C1852 C1853 1.349 . S
C1852 C1854 1.327 . S
C1852 H1877 0.950 . S
C1853 C1852 1.349 . S
C1853 C1869 1.349 . S
C1854 C1852 1.327 . S
C1854 C1873 1.429 . S
C1854 H1878 0.950 . S
C1855 C1872 1.574 . S
C1855 C1874 1.368 . S
C1855 H1879 0.963 . S
H1856 C1860 0.949 . S
C1857 C1858 1.349 1_556 S
C1857 C1859 1.327 . S
C1857 H1880 0.950 . S
C1858 C1857 1.349 1_554 S
C1858 C1870 1.349 . S
C1859 C1857 1.327 . S
C1859 C1875 1.429 1_556 S
C1859 H1881 0.950 . S
C1860 H1856 0.949 . S
C1860 C1868 1.574 . S
C1860 C1876 1.368 . S
H1861 C1869 0.950 . S
H1862 C1867 0.950 . S
H1863 C1868 0.949 . S
H1864 C1870 0.950 . S
H1865 C1871 0.950 . S
H1866 C1872 0.949 1_556 S
C1867 H1862 0.950 . S
C1867 C1869 1.327 . S
C1867 C1873 1.429 . S
C1868 C1860 1.574 . S
C1868 H1863 0.949 . S
C1868 C1874 1.368 . S
C1869 C1853 1.349 . S
C1869 H1861 0.950 . S
C1869 C1867 1.327 . S
C1870 C1858 1.349 . S
C1870 H1864 0.950 . S
C1870 C1871 1.327 . S
C1871 H1865 0.950 . S
C1871 C1870 1.327 . S
C1871 C1875 1.429 . S
C1872 C1855 1.574 . S
C1872 H1866 0.949 1_554 S
C1872 C1876 1.368 . S
C1873 C1854 1.429 . S
C1873 C1867 1.429 . S
C1873 C1874 1.523 . S
C1874 C1855 1.368 . S
C1874 C1868 1.368 . S
C1874 C1873 1.523 . S
C1875 C1859 1.429 1_554 S
C1875 C1871 1.429 . S
C1875 C1876 1.523 . S
C1876 C1860 1.368 . S
C1876 C1872 1.368 . S
C1876 C1875 1.523 . S
H1877 C1852 0.950 . S
H1878 C1854 0.950 . S
H1879 C1855 0.963 . S
H1880 C1857 0.950 . S
H1881 C1859 0.950 . S
C1882 C1883 1.349 . S
C1882 C1884 1.327 . S
C1882 H1907 0.950 . S
C1883 C1882 1.349 . S
C1883 C1899 1.342 1_565 S
C1884 C1882 1.327 . S
C1884 C1903 1.429 . S
C1884 H1908 0.950 . S
C1885 C1902 1.574 . S
C1885 C1904 1.368 . S
C1885 H1909 0.949 . S
H1886 C1890 0.949 . S
C1887 C1888 1.349 . S
C1887 C1889 1.327 . S
C1887 H1910 0.950 . S
C1888 C1887 1.349 . S
C1888 C1900 1.349 . S
C1889 C1887 1.327 . S
C1889 C1905 1.429 . S
C1889 H1911 0.950 . S
C1890 H1886 0.949 . S
C1890 C1898 1.574 . S
C1890 C1906 1.368 . S
H1891 C1899 0.994 . S
H1892 C1897 0.950 . S
H1893 C1898 0.949 . S
H1894 C1900 0.950 . S
H1895 C1901 0.950 . S
H1896 C1902 0.949 . S
C1897 H1892 0.950 . S
C1897 C1899 1.293 1_565 S
C1897 C1903 1.429 . S
C1898 C1890 1.574 . S
C1898 H1893 0.949 . S
C1898 C1904 1.368 . S
C1899 C1883 1.342 1_545 S
C1899 H1891 0.994 . S
C1899 C1897 1.293 1_545 S
C1900 C1888 1.349 . S
C1900 H1894 0.950 . S
C1900 C1901 1.327 . S
C1901 H1895 0.950 . S
C1901 C1900 1.327 . S
C1901 C1905 1.429 . S
C1902 C1885 1.574 . S
C1902 H1896 0.949 . S
C1902 C1906 1.368 . S
C1903 C1884 1.429 . S
C1903 C1897 1.429 . S
C1903 C1904 1.523 . S
C1904 C1885 1.368 . S
C1904 C1898 1.368 . S
C1904 C1903 1.523 . S
C1905 C1889 1.429 . S
C1905 C1901 1.429 . S
C1905 C1906 1.523 . S
C1906 C1890 1.368 . S
C1906 C1902 1.368 . S
C1906 C1905 1.523 . S
H1907 C1882 0.950 . S
H1908 C1884 0.950 . S
H1909 C1885 0.949 . S
H1910 C1887 0.950 . S
H1911 C1889 0.950 . S
C478 C315 1.810 . S
C473 C101 1.839 . S
C508 C323 0.873 . S
C503 C125 0.956 1_455 S
C533 C139 2.035 . S
C538 C343 1.991 . S
C568 C357 1.811 . S
C563 C82 1.856 . S
C598 C372 1.600 . S
C593 C196 1.605 . S
C628 C386 1.904 . S
C623 C234 1.906 . S
C653 C220 0.764 . S
C658 C400 0.771 . S
C688 C406 1.629 . S
C683 C173 1.684 . S
C713 C211 1.057 . S
C718 C420 1.044 . S
C748 C441 1.022 . S
C743 C182 0.976 . S
C773 C201 1.261 . S
C778 C421 1.121 . S
C808 C442 1.292 . S
C803 C239 1.193 . S
C833 C135 1.656 . S
C838 C449 1.421 . S
C863 C87 1.884 . S
C868 C455 2.024 . S
C893 C106 1.072 . S
C898 C448 1.165 . S
C923 C116 1.122 . S
C928 C456 1.132 . S
C953 C59 1.968 . S
C958 C350 1.935 . S
C983 C268 2.352 . S
C988 C351 2.140 . S
C1018 C308 1.120 . S
C1013 C291 1.147 . S
C1048 C329 1.404 . S
C1043 C163 1.294 . S
C1073 C78 2.142 1_545 S
C1078 C364 2.126 . S
C1108 C414 1.105 . S
C1103 C215 1.105 . S
C1138 C365 1.398 . S
C1133 C177 1.560 1_545 S
C1168 C393 1.594 . S
C1163 C230 1.893 . S
C1198 C399 1.830 . S
C1193 C272 1.860 . S
C1223 C296 0.970 . S
C1228 C407 0.881 . S
C1253 C158 2.032 . S
C1258 C371 1.989 . S
C1288 C385 1.783 . S
C1283 C253 1.827 . S
C1313 C63 1.589 . S
C1318 C344 1.584 . S
C1348 C358 1.910 . S
C1343 C6 1.912 . S
C1378 C316 0.768 . S
C1373 C30 0.762 . S
C1408 C322 1.661 . S
C1403 C40 1.716 . S
C1433 C21 1.095 . S
C1438 C434 1.082 . S
C1463 C49 0.962 . S
C1468 C427 1.007 . S
C1493 C68 1.244 . S
C1498 C435 1.104 . S
C1523 C11 1.188 . S
C1528 C428 1.286 . S
C1558 C463 1.391 . S
C1553 C154 1.623 . S
C1588 C469 2.037 . S
C1583 C258 1.893 . S
C1618 C462 1.221 . S
C1613 C277 1.118 . S
C1643 C287 1.119 . S
C1648 C470 1.130 . S
C1673 C192 1.965 . S
C1678 C378 1.933 . S
C1708 C379 2.111 . S
C1703 C97 2.324 . S
C1738 C392 1.126 . S
C1733 C120 1.153 . S
C1768 C413 1.412 . S
C1763 C144 1.302 . S
C1793 C249 2.139 . S
C1798 C336 2.125 . S
C1828 C330 1.132 . S
C1823 C25 1.132 . S
C1853 C44 1.512 . S
C1858 C337 1.359 . S
C1888 C309 1.593 . S
C1883 C2 1.892 1_565 S
