# Generated by pormake.
# Topology pyr, (3,6)-cn, num edge types: 1
# Building blocks:
#     Node 0, Type 0, BuildingBlock: ESEHIV_clean_linker_0, # of connection points: 3
#     Node 1, Type 0, BuildingBlock: ESEHIV_clean_linker_0, # of connection points: 3
#     Node 2, Type 0, BuildingBlock: ESEHIV_clean_linker_0, # of connection points: 3
#     Node 3, Type 0, BuildingBlock: ESEHIV_clean_linker_0, # of connection points: 3
#     Node 4, Type 0, BuildingBlock: ESEHIV_clean_linker_0, # of connection points: 3
#     Node 5, Type 0, BuildingBlock: ESEHIV_clean_linker_0, # of connection points: 3
#     Node 6, Type 0, BuildingBlock: ESEHIV_clean_linker_0, # of connection points: 3
#     Node 7, Type 0, BuildingBlock: ESEHIV_clean_linker_0, # of connection points: 3
#     Node 8, Type 1, BuildingBlock: MIFKUJ_clean_sbu_0, # of connection points: 6
#     Node 9, Type 1, BuildingBlock: MIFKUJ_clean_sbu_0, # of connection points: 6
#     Node 10, Type 1, BuildingBlock: MIFKUJ_clean_sbu_0, # of connection points: 6
#     Node 11, Type 1, BuildingBlock: MIFKUJ_clean_sbu_0, # of connection points: 6
#     Edge 12, Type (0, 1), BuildingBlock: UVAHIK_clean_linker_0, # of connection points: 2
#     Edge 13, Type (0, 1), BuildingBlock: UVAHIK_clean_linker_0, # of connection points: 2
#     Edge 14, Type (0, 1), BuildingBlock: UVAHIK_clean_linker_0, # of connection points: 2
#     Edge 15, Type (0, 1), BuildingBlock: UVAHIK_clean_linker_0, # of connection points: 2
#     Edge 16, Type (0, 1), BuildingBlock: UVAHIK_clean_linker_0, # of connection points: 2
#     Edge 17, Type (0, 1), BuildingBlock: UVAHIK_clean_linker_0, # of connection points: 2
#     Edge 18, Type (0, 1), BuildingBlock: UVAHIK_clean_linker_0, # of connection points: 2
#     Edge 19, Type (0, 1), BuildingBlock: UVAHIK_clean_linker_0, # of connection points: 2
#     Edge 20, Type (0, 1), BuildingBlock: UVAHIK_clean_linker_0, # of connection points: 2
#     Edge 21, Type (0, 1), BuildingBlock: UVAHIK_clean_linker_0, # of connection points: 2
#     Edge 22, Type (0, 1), BuildingBlock: UVAHIK_clean_linker_0, # of connection points: 2
#     Edge 23, Type (0, 1), BuildingBlock: UVAHIK_clean_linker_0, # of connection points: 2
#     Edge 24, Type (0, 1), BuildingBlock: UVAHIK_clean_linker_0, # of connection points: 2
#     Edge 25, Type (0, 1), BuildingBlock: UVAHIK_clean_linker_0, # of connection points: 2
#     Edge 26, Type (0, 1), BuildingBlock: UVAHIK_clean_linker_0, # of connection points: 2
#     Edge 27, Type (0, 1), BuildingBlock: UVAHIK_clean_linker_0, # of connection points: 2
#     Edge 28, Type (0, 1), BuildingBlock: UVAHIK_clean_linker_0, # of connection points: 2
#     Edge 29, Type (0, 1), BuildingBlock: UVAHIK_clean_linker_0, # of connection points: 2
#     Edge 30, Type (0, 1), BuildingBlock: UVAHIK_clean_linker_0, # of connection points: 2
#     Edge 31, Type (0, 1), BuildingBlock: UVAHIK_clean_linker_0, # of connection points: 2
#     Edge 32, Type (0, 1), BuildingBlock: UVAHIK_clean_linker_0, # of connection points: 2
#     Edge 33, Type (0, 1), BuildingBlock: UVAHIK_clean_linker_0, # of connection points: 2
#     Edge 34, Type (0, 1), BuildingBlock: UVAHIK_clean_linker_0, # of connection points: 2
#     Edge 35, Type (0, 1), BuildingBlock: UVAHIK_clean_linker_0, # of connection points: 2
# Relax obj value: 0.026
# Max RMSD: 0.079
# Mean RMSD: 0.046
data_MOF--net-pyr--node1-MIFKUJ_clean_sbu_0--node2-ESEHIV_clean_linker_0--edge1-UVAHIK_clean_linker_0
_symmetry_space_group_name_H-M    P1
_symmetry_Int_Tables_number       1
_symmetry_cell_setting            triclinic
loop_
_symmetry_equiv_pos_as_xyz
'x, y, z'
_cell_length_a     48.420438
_cell_length_b     43.471074
_cell_length_c     46.918224
_cell_angle_alpha  86.448569
_cell_angle_beta   88.489997
_cell_angle_gamma 96.380323
loop_
_atom_site_label
_atom_site_type_symbol
_atom_site_fract_x
_atom_site_fract_y
_atom_site_fract_z
_atom_type_partial_charge
H0 H 0.17359 0.2153 0.23354 0.0
H1 H 0.24222 0.16076 0.2363 0.0
H2 H 0.2346 0.22556 0.16454 0.0
C3 C 0.19307 0.20979 0.22437 0.0
C4 C 0.20247 0.22336 0.19747 0.0
C5 C 0.20754 0.1876 0.23876 0.0
C6 C 0.23155 0.17864 0.2257 0.0
C7 C 0.24123 0.1918 0.19864 0.0
C8 C 0.2269 0.2147 0.18506 0.0
H9 H 0.30889 0.87284 0.71162 0.0
H10 H 0.37625 0.81664 0.7058 0.0
H11 H 0.31761 0.81918 0.63867 0.0
C12 C 0.32015 0.85715 0.69996 0.0
C13 C 0.31017 0.84685 0.67397 0.0
C14 C 0.34399 0.84633 0.71155 0.0
C15 C 0.35799 0.8252 0.69676 0.0
C16 C 0.34857 0.81506 0.6705 0.0
C17 C 0.3247 0.82618 0.65926 0.0
H18 H 0.69328 0.33669 0.86833 0.0
H19 H 0.70043 0.40788 0.79973 0.0
H20 H 0.63197 0.3353 0.80386 0.0
C21 C 0.68534 0.34696 0.84902 0.0
C22 C 0.66095 0.33274 0.83768 0.0
C23 C 0.69972 0.37415 0.83563 0.0
C24 C 0.68938 0.38708 0.81033 0.0
C25 C 0.66492 0.37318 0.79858 0.0
C26 C 0.65084 0.34614 0.8126 0.0
H27 H 0.82894 0.67837 0.36114 0.0
H28 H 0.89764 0.68169 0.30036 0.0
H29 H 0.82508 0.61566 0.29406 0.0
C30 C 0.83876 0.66959 0.34277 0.0
C31 C 0.82436 0.64518 0.32914 0.0
C32 C 0.86511 0.68329 0.33247 0.0
C33 C 0.87702 0.67196 0.30803 0.0
C34 C 0.86288 0.64734 0.29405 0.0
C35 C 0.83637 0.63438 0.30468 0.0
H36 H 0.76844 0.84408 0.76917 0.0
H37 H 0.83828 0.79146 0.77535 0.0
H38 H 0.77224 0.77624 0.83926 0.0
C39 C 0.7788 0.82607 0.77995 0.0
C40 C 0.76743 0.81141 0.80585 0.0
C41 C 0.80408 0.8185 0.76843 0.0
C42 C 0.81796 0.79601 0.78316 0.0
C43 C 0.8068 0.78086 0.80886 0.0
C44 C 0.78122 0.78824 0.81969 0.0
H45 H 0.63028 0.17092 0.3084 0.0
H46 H 0.70092 0.12004 0.29983 0.0
H47 H 0.69535 0.17963 0.36901 0.0
C48 C 0.65001 0.16482 0.31603 0.0
C49 C 0.66076 0.17739 0.34086 0.0
C50 C 0.66458 0.1445 0.30084 0.0
C51 C 0.69003 0.13646 0.31095 0.0
C52 C 0.70107 0.14867 0.33579 0.0
C53 C 0.68641 0.1693 0.35042 0.0
H54 H 0.32082 0.66831 0.14408 0.0
H55 H 0.31409 0.59608 0.21167 0.0
H56 H 0.3824 0.66885 0.20831 0.0
C57 C 0.32886 0.65778 0.16321 0.0
C58 C 0.35326 0.67189 0.17464 0.0
C59 C 0.3146 0.63038 0.17629 0.0
C60 C 0.32508 0.61705 0.20132 0.0
C61 C 0.34957 0.63078 0.21312 0.0
C62 C 0.36353 0.65811 0.19947 0.0
H63 H 0.11888 0.33203 0.71189 0.0
H64 H 0.18708 0.33143 0.65155 0.0
H65 H 0.19393 0.39334 0.71969 0.0
C66 C 0.13989 0.34052 0.70448 0.0
C67 C 0.15497 0.36427 0.71862 0.0
C68 C 0.15136 0.32835 0.68031 0.0
C69 C 0.17824 0.34052 0.67025 0.0
C70 C 0.19382 0.36422 0.68399 0.0
C71 C 0.18195 0.37578 0.70831 0.0
Zn72 Zn 0.03428 0.99753 0.52233 0.0
Zn73 Zn 0.98228 0.01587 0.49141 0.0
C74 C 0.05565 0.05956 0.53369 0.0
O75 O 0.07537 0.05308 0.51601 0.0
C76 C 0.9584 0.95494 0.47955 0.0
O77 O 0.93982 0.96192 0.49829 0.0
O78 O 0.06685 0.97941 0.53935 0.0
O79 O 1.00005 0.9698 0.53653 0.0
O80 O 0.97485 0.00875 0.53386 0.0
C81 C 0.06935 0.95059 0.54107 0.0
O82 O 0.04998 0.93112 0.53079 0.0
O83 O 0.03482 0.03939 0.53949 0.0
C84 C 0.94936 0.04236 0.4492 0.0
O85 O 0.96933 0.03467 0.43246 0.0
O86 O 0.95052 0.03691 0.47603 0.0
O87 O 0.017 0.04258 0.47719 0.0
O88 O 0.04233 0.00373 0.4799 0.0
O89 O 0.97957 0.97444 0.4731 0.0
C90 C 0.97943 0.98267 0.54531 0.0
C91 C 0.03762 0.02974 0.46837 0.0
Zn92 Zn 0.5252 0.98245 0.98977 0.0
Zn93 Zn 0.48614 0.02011 0.01672 0.0
C94 C 0.48589 0.94599 0.95958 0.0
O95 O 0.4976 0.92475 0.97461 0.0
C96 C 0.52616 0.05495 0.04862 0.0
O97 O 0.51546 0.07767 0.0346 0.0
O98 O 0.55541 0.95988 0.97366 0.0
O99 O 0.54034 0.02765 0.98588 0.0
O100 O 0.49896 0.04181 0.97851 0.0
C101 C 0.5601 0.96434 0.94686 0.0
O102 O 0.54613 0.98385 0.93224 0.0
O103 O 0.4937 0.97443 0.96283 0.0
C104 C 0.45096 0.03951 0.0593 0.0
O105 O 0.46521 0.02117 0.07494 0.0
O106 O 0.45582 0.04273 0.03247 0.0
O107 O 0.4711 0.97487 0.0206 0.0
O108 O 0.51263 0.96117 0.02822 0.0
O109 O 0.51744 0.02712 0.04392 0.0
C110 C 0.52521 0.04696 0.97484 0.0
C111 C 0.4864 0.95593 0.03203 0.0
Zn112 Zn 0.51796 0.47202 0.48879 0.0
Zn113 Zn 0.49984 0.52826 0.51895 0.0
C114 C 0.56098 0.4965 0.44844 0.0
O115 O 0.54742 0.47523 0.4338 0.0
C116 C 0.45851 0.50271 0.56027 0.0
O117 O 0.47344 0.52291 0.57493 0.0
O118 O 0.52348 0.43039 0.47427 0.0
O119 O 0.51897 0.46622 0.53195 0.0
O120 O 0.53391 0.51484 0.53802 0.0
C121 C 0.54107 0.41444 0.48593 0.0
O122 O 0.55418 0.42467 0.50822 0.0
O123 O 0.55191 0.50076 0.47345 0.0
C124 C 0.47021 0.57909 0.5261 0.0
O125 O 0.45362 0.562 0.51013 0.0
O126 O 0.49334 0.56986 0.53278 0.0
O127 O 0.49868 0.5344 0.47593 0.0
O128 O 0.48393 0.4858 0.46981 0.0
O129 O 0.46615 0.4992 0.5346 0.0
C130 C 0.53282 0.48627 0.54612 0.0
C131 C 0.48466 0.51438 0.46193 0.0
Zn132 Zn 0.99719 0.53156 0.98598 0.0
Zn133 Zn 0.01578 0.47867 0.0246 0.0
C134 C 0.95884 0.49921 0.95162 0.0
O135 O 0.97725 0.51359 0.93285 0.0
C136 C 0.05446 0.50944 0.05977 0.0
O137 O 0.0357 0.49535 0.07833 0.0
O138 O 0.98919 0.57054 0.96412 0.0
O139 O 0.99788 0.54179 0.02756 0.0
O140 O 0.98241 0.49441 0.0435 0.0
C141 C 0.96994 0.58444 0.97463 0.0
O142 O 0.95851 0.5742 0.99962 0.0
O143 O 0.96307 0.50186 0.9781 0.0
C144 C 0.04024 0.42335 0.03593 0.0
O145 O 0.05191 0.43231 0.01076 0.0
O146 O 0.02221 0.43901 0.04632 0.0
O147 O 0.01582 0.46919 0.98276 0.0
O148 O 0.03091 0.51678 0.96705 0.0
O149 O 0.05036 0.50719 0.03324 0.0
C150 C 0.98433 0.52344 0.04638 0.0
C151 C 0.02947 0.48778 0.96416 0.0
C152 C 0.19499 0.13996 0.27162 0.0
C153 C 0.19604 0.17228 0.26636 0.0
C154 C 0.18105 0.12519 0.29605 0.0
C155 C 0.12275 0.13448 0.3434 0.0
H156 H 0.14926 0.06946 0.39216 0.0
C157 C 0.05751 0.0783 0.44064 0.0
C158 C 0.05735 0.04624 0.44662 0.0
C159 C 0.0763 0.09416 0.42033 0.0
C160 C 0.14142 0.08731 0.37853 0.0
H161 H 0.18497 0.21463 0.28354 0.0
H162 H 0.16016 0.18871 0.32588 0.0
H163 H 0.17985 0.09641 0.35405 0.0
H164 H 0.07672 0.00558 0.43611 0.0
H165 H 0.10888 0.03304 0.39979 0.0
H166 H 0.08409 0.12491 0.36684 0.0
C167 C 0.16991 0.17485 0.31095 0.0
C168 C 0.159 0.10282 0.35685 0.0
C169 C 0.18403 0.18964 0.28671 0.0
C170 C 0.07642 0.03033 0.43195 0.0
C171 C 0.09499 0.04613 0.41131 0.0
C172 C 0.10509 0.11879 0.36477 0.0
C173 C 0.16774 0.14245 0.31549 0.0
C174 C 0.1498 0.12657 0.33916 0.0
C175 C 0.09509 0.07824 0.40518 0.0
C176 C 0.11419 0.09503 0.38265 0.0
H177 H 0.20374 0.12587 0.25623 0.0
H178 H 0.17949 0.10013 0.29898 0.0
H179 H 0.11496 0.15232 0.32968 0.0
H180 H 0.04334 0.09129 0.45192 0.0
H181 H 0.07617 0.11898 0.41665 0.0
C182 C 0.35712 0.88846 0.74452 0.0
C183 C 0.35434 0.85684 0.73917 0.0
C184 C 0.36855 0.89846 0.76988 0.0
C185 C 0.41424 0.8735 0.82648 0.0
H186 H 0.38813 0.94045 0.86692 0.0
C187 C 0.45796 0.90505 0.93424 0.0
C188 C 0.46613 0.93666 0.93737 0.0
C189 C 0.44172 0.89573 0.91154 0.0
C190 C 0.39572 0.92185 0.85572 0.0
H191 H 0.35994 0.81074 0.75671 0.0
H192 H 0.3795 0.82804 0.80108 0.0
H193 H 0.36437 0.9231 0.82439 0.0
H194 H 0.4626 0.98338 0.91987 0.0
H195 H 0.43422 0.96698 0.87998 0.0
H196 H 0.44555 0.87221 0.85762 0.0
C197 C 0.37358 0.84526 0.78542 0.0
C198 C 0.38216 0.91194 0.83137 0.0
C199 C 0.36234 0.83532 0.76004 0.0
C200 C 0.45667 0.95884 0.918 0.0
C201 C 0.44035 0.94947 0.89523 0.0
C202 C 0.42765 0.88328 0.8508 0.0
C203 C 0.37729 0.87699 0.79044 0.0
C204 C 0.39126 0.88758 0.81651 0.0
C205 C 0.43326 0.91777 0.89142 0.0
C206 C 0.41853 0.90749 0.86575 0.0
H207 H 0.35128 0.90556 0.72869 0.0
H208 H 0.37136 0.92309 0.77294 0.0
H209 H 0.42224 0.8552 0.8152 0.0
H210 H 0.46464 0.88737 0.94895 0.0
H211 H 0.43614 0.87115 0.90947 0.0
C212 C 0.65352 0.41875 0.76668 0.0
C213 C 0.65387 0.38654 0.77169 0.0
C214 C 0.64146 0.43086 0.74218 0.0
C215 C 0.58954 0.4083 0.68894 0.0
H216 H 0.62349 0.48102 0.64372 0.0
C217 C 0.5474 0.4444 0.57976 0.0
C218 C 0.54722 0.47616 0.57209 0.0
C219 C 0.56082 0.4346 0.60415 0.0
C220 C 0.61351 0.46093 0.65631 0.0
H221 H 0.64307 0.34202 0.75394 0.0
H222 H 0.62188 0.36304 0.71163 0.0
H223 H 0.64651 0.46212 0.68603 0.0
H224 H 0.56107 0.52254 0.58425 0.0
H225 H 0.58407 0.50542 0.62718 0.0
H226 H 0.55644 0.40711 0.65964 0.0
C227 C 0.63044 0.37893 0.72687 0.0
C228 C 0.62677 0.45007 0.68055 0.0
C229 C 0.64258 0.36687 0.75119 0.0
C230 C 0.56086 0.49789 0.58946 0.0
C231 C 0.57421 0.48806 0.61401 0.0
C232 C 0.57624 0.41921 0.66489 0.0
C233 C 0.62937 0.41102 0.72223 0.0
C234 C 0.61507 0.42341 0.69697 0.0
C235 C 0.57429 0.45625 0.62174 0.0
C236 C 0.58815 0.44548 0.64803 0.0
H237 H 0.66181 0.43457 0.78209 0.0
H238 H 0.64084 0.45569 0.73931 0.0
H239 H 0.57966 0.38808 0.70144 0.0
H240 H 0.53722 0.42696 0.56687 0.0
H241 H 0.56085 0.40993 0.60903 0.0
C242 C 0.87359 0.60256 0.26566 0.0
C243 C 0.87587 0.63474 0.26869 0.0
C244 C 0.8854 0.59061 0.24177 0.0
C245 C 0.93834 0.6104 0.18294 0.0
H246 H 0.8979 0.5411 0.14817 0.0
C247 C 0.97387 0.56811 0.07479 0.0
C248 C 0.9717 0.53593 0.07184 0.0
C249 C 0.96224 0.58005 0.09879 0.0
C250 C 0.90964 0.56021 0.1578 0.0
H251 H 0.89236 0.67955 0.24871 0.0
H252 H 0.91293 0.65872 0.20699 0.0
H253 H 0.87765 0.56226 0.18978 0.0
H254 H 0.95554 0.49108 0.09201 0.0
H255 H 0.93541 0.5119 0.13398 0.0
H256 H 0.97031 0.60838 0.1509 0.0
C257 C 0.90229 0.64267 0.22332 0.0
C258 C 0.89801 0.57238 0.1817 0.0
C259 C 0.89048 0.65464 0.24726 0.0
C260 C 0.95753 0.51598 0.09351 0.0
C261 C 0.94586 0.52794 0.11753 0.0
C262 C 0.94996 0.59824 0.15902 0.0
C263 C 0.89984 0.61048 0.22021 0.0
C264 C 0.91221 0.59763 0.19462 0.0
C265 C 0.9481 0.56015 0.12051 0.0
C266 C 0.93577 0.57298 0.14611 0.0
H267 H 0.86295 0.58649 0.28199 0.0
H268 H 0.88352 0.56569 0.24042 0.0
H269 H 0.95009 0.62951 0.19256 0.0
H270 H 0.98455 0.58421 0.0585 0.0
H271 H 0.96404 0.60497 0.10012 0.0
C272 C 0.26403 0.17595 0.1541 0.0
C273 C 0.2649 0.17995 0.18359 0.0
C274 C 0.28526 0.16302 0.14009 0.0
C275 C 0.3574 0.14285 0.14765 0.0
H276 H 0.33538 0.08542 0.09011 0.0
C277 C 0.42919 0.05844 0.10278 0.0
C278 C 0.43022 0.0568 0.07296 0.0
C279 C 0.4098 0.07501 0.11581 0.0
C280 C 0.34184 0.10163 0.10593 0.0
H281 H 0.28933 0.17423 0.22127 0.0
H282 H 0.32581 0.15041 0.19705 0.0
H283 H 0.30027 0.11158 0.11399 0.0
H284 H 0.41177 0.07119 0.03337 0.0
H285 H 0.37754 0.09979 0.05627 0.0
H286 H 0.39894 0.13197 0.14 0.0
C287 C 0.30893 0.15784 0.18463 0.0
C288 C 0.32178 0.11674 0.11956 0.0
C289 C 0.28781 0.17114 0.19862 0.0
C290 C 0.41145 0.07202 0.0564 0.0
C291 C 0.39183 0.08828 0.06948 0.0
C292 C 0.37743 0.12744 0.1342 0.0
C293 C 0.30774 0.1533 0.15524 0.0
C294 C 0.32929 0.13759 0.14057 0.0
C295 C 0.39086 0.08994 0.09929 0.0
C296 C 0.36981 0.10672 0.11322 0.0
H297 H 0.24655 0.18202 0.14185 0.0
H298 H 0.28388 0.1604 0.11735 0.0
H299 H 0.36399 0.15908 0.16339 0.0
H300 H 0.44345 0.04705 0.1161 0.0
H301 H 0.40931 0.07571 0.13885 0.0
C302 C 0.26455 0.83569 0.65067 0.0
C303 C 0.28438 0.85718 0.66215 0.0
C304 C 0.24068 0.84534 0.63858 0.0
C305 C 0.19642 0.90938 0.63595 0.0
H306 H 0.17254 0.87514 0.56505 0.0
C307 C 0.11364 0.96029 0.56699 0.0
C308 C 0.09363 0.93929 0.55512 0.0
C309 C 0.13642 0.9498 0.58063 0.0
C310 C 0.17875 0.88464 0.58501 0.0
H311 H 0.29463 0.9056 0.67021 0.0
H312 H 0.25294 0.9226 0.64889 0.0
H313 H 0.2132 0.85795 0.58805 0.0
H314 H 0.08189 0.89075 0.54826 0.0
H315 H 0.12172 0.8724 0.5722 0.0
H316 H 0.16206 0.93627 0.63272 0.0
C317 C 0.25571 0.89818 0.64957 0.0
C318 C 0.20204 0.87479 0.59821 0.0
C319 C 0.27959 0.88849 0.66175 0.0
C320 C 0.09696 0.90754 0.55712 0.0
C321 C 0.11983 0.89704 0.57072 0.0
C322 C 0.17316 0.91928 0.6227 0.0
C323 C 0.2361 0.87674 0.63764 0.0
C324 C 0.21117 0.88707 0.62381 0.0
C325 C 0.13977 0.91806 0.58267 0.0
C326 C 0.16411 0.90707 0.59706 0.0
H327 H 0.26743 0.81131 0.65116 0.0
H328 H 0.22573 0.82815 0.6301 0.0
H329 H 0.20266 0.91894 0.65587 0.0
H330 H 0.11175 0.98493 0.56579 0.0
H331 H 0.15162 0.96662 0.58926 0.0
C332 C 0.74942 0.39862 0.83047 0.0
C333 C 0.7258 0.38836 0.84801 0.0
C334 C 0.77444 0.40997 0.84242 0.0
C335 C 0.80411 0.44158 0.9082 0.0
H336 H 0.87271 0.41654 0.87757 0.0
C337 C 0.91024 0.47217 0.96047 0.0
C338 C 0.93277 0.48271 0.94153 0.0
C339 C 0.88497 0.45904 0.9501 0.0
C340 C 0.85378 0.42397 0.88625 0.0
H341 H 0.70974 0.3831 0.89185 0.0
H342 H 0.75337 0.40249 0.91267 0.0
H343 H 0.82865 0.39837 0.85697 0.0
H344 H 0.94658 0.48689 0.89693 0.0
H345 H 0.90284 0.46431 0.87903 0.0
H346 H 0.82931 0.46735 0.93737 0.0
C347 C 0.75259 0.40188 0.88966 0.0
C348 C 0.82849 0.41361 0.87437 0.0
C349 C 0.72763 0.39047 0.87773 0.0
C350 C 0.9297 0.47904 0.91217 0.0
C351 C 0.90458 0.46588 0.90187 0.0
C352 C 0.82943 0.45198 0.92008 0.0
C353 C 0.77642 0.41146 0.87221 0.0
C354 C 0.80333 0.42243 0.88505 0.0
C355 C 0.88176 0.456 0.92061 0.0
C356 C 0.85463 0.4435 0.90912 0.0
H357 H 0.7488 0.39713 0.80754 0.0
H358 H 0.79227 0.41755 0.82829 0.0
H359 H 0.78518 0.44911 0.91678 0.0
H360 H 0.9119 0.47467 0.9832 0.0
H361 H 0.86792 0.45133 0.96518 0.0
C362 C 0.79361 0.61993 0.36964 0.0
C363 C 0.79682 0.63089 0.34084 0.0
C364 C 0.76767 0.60676 0.38096 0.0
C365 C 0.69728 0.57385 0.35914 0.0
H366 H 0.67874 0.58108 0.43913 0.0
C367 C 0.60157 0.50158 0.41393 0.0
C368 C 0.58721 0.5137 0.43627 0.0
C369 C 0.62653 0.51711 0.40236 0.0
C370 C 0.68328 0.57915 0.41664 0.0
H371 H 0.77547 0.63723 0.30136 0.0
H372 H 0.72986 0.61551 0.32123 0.0
H373 H 0.72247 0.60672 0.41867 0.0
H374 H 0.58758 0.55189 0.46383 0.0
H375 H 0.63061 0.57988 0.44282 0.0
H376 H 0.65751 0.5477 0.3567 0.0
C377 C 0.74745 0.616 0.33501 0.0
C378 C 0.70875 0.59346 0.40495 0.0
C379 C 0.77356 0.62862 0.32357 0.0
C380 C 0.59827 0.54191 0.4467 0.0
C381 C 0.62307 0.55783 0.43473 0.0
C382 C 0.67163 0.56004 0.37069 0.0
C383 C 0.7441 0.60475 0.3639 0.0
C384 C 0.71633 0.59067 0.3761 0.0
C385 C 0.63762 0.5456 0.41239 0.0
C386 C 0.66438 0.56203 0.39974 0.0
H387 H 0.81132 0.62119 0.38333 0.0
H388 H 0.76628 0.59777 0.40305 0.0
H389 H 0.70228 0.57074 0.33696 0.0
H390 H 0.5938 0.47967 0.40563 0.0
H391 H 0.6373 0.50636 0.38581 0.0
C392 C 0.18199 0.24241 0.15201 0.0
C393 C 0.18549 0.24463 0.18149 0.0
C394 C 0.16449 0.26078 0.13728 0.0
C395 C 0.12845 0.33122 0.14238 0.0
H396 H 0.08443 0.29504 0.08241 0.0
C397 C 0.04728 0.39634 0.08337 0.0
C398 C 0.05108 0.39834 0.05348 0.0
C399 C 0.06094 0.37555 0.10021 0.0
C400 C 0.09661 0.30539 0.09911 0.0
H401 H 0.17386 0.2686 0.21842 0.0
H402 H 0.14254 0.29984 0.19294 0.0
H403 H 0.1145 0.26354 0.10961 0.0
H404 H 0.07084 0.37906 0.0177 0.0
H405 H 0.09431 0.34239 0.04713 0.0
H406 H 0.11028 0.37301 0.13189 0.0
C407 C 0.15366 0.28422 0.18109 0.0
C408 C 0.11399 0.28747 0.11457 0.0
C409 C 0.1714 0.26605 0.19578 0.0
C410 C 0.06759 0.37807 0.04069 0.0
C411 C 0.08093 0.35701 0.05751 0.0
C412 C 0.11083 0.34901 0.12712 0.0
C413 C 0.1498 0.28159 0.15171 0.0
C414 C 0.13043 0.3003 0.13612 0.0
C415 C 0.07827 0.3561 0.08743 0.0
C416 C 0.09503 0.33637 0.10513 0.0
H417 H 0.19221 0.22588 0.14036 0.0
H418 H 0.16245 0.25856 0.11455 0.0
H419 H 0.14107 0.34199 0.15854 0.0
H420 H 0.03475 0.41176 0.09382 0.0
H421 H 0.05841 0.37507 0.12325 0.0
C422 C 0.61711 0.29925 0.85471 0.0
C423 C 0.64629 0.30359 0.85178 0.0
C424 C 0.60341 0.27177 0.86786 0.0
C425 C 0.61498 0.20481 0.91699 0.0
H426 H 0.54771 0.16577 0.88531 0.0
C427 C 0.56733 0.08157 0.95584 0.0
C428 C 0.53826 0.0761 0.9596 0.0
C429 C 0.57991 0.10941 0.94246 0.0
C430 C 0.56629 0.17656 0.89462 0.0
H431 H 0.68388 0.28209 0.85991 0.0
H432 H 0.66005 0.23427 0.88284 0.0
H433 H 0.57075 0.21426 0.86259 0.0
H434 H 0.49958 0.09558 0.95192 0.0
H435 H 0.52159 0.14434 0.92869 0.0
H436 H 0.6106 0.16717 0.94897 0.0
C437 C 0.64774 0.25232 0.87542 0.0
C438 C 0.57951 0.20436 0.8816 0.0
C439 C 0.66142 0.27976 0.86227 0.0
C440 C 0.52202 0.09901 0.94931 0.0
C441 C 0.53464 0.12691 0.93588 0.0
C442 C 0.60179 0.17705 0.92999 0.0
C443 C 0.61857 0.24798 0.87842 0.0
C444 C 0.6041 0.21874 0.89254 0.0
C445 C 0.56376 0.13254 0.93249 0.0
C446 C 0.57737 0.16246 0.91889 0.0
H447 H 0.60484 0.3173 0.8472 0.0
H448 H 0.58094 0.26937 0.87017 0.0
H449 H 0.63359 0.21553 0.92631 0.0
H450 H 0.58049 0.06439 0.96337 0.0
H451 H 0.60235 0.11273 0.93978 0.0
C452 C 0.87758 0.70988 0.37729 0.0
C453 C 0.87974 0.70952 0.34733 0.0
C454 C 0.88877 0.73566 0.39121 0.0
C455 C 0.93963 0.80489 0.3859 0.0
H456 H 0.88817 0.83726 0.4379 0.0
C457 C 0.96527 0.92252 0.43791 0.0
C458 C 0.95354 0.92553 0.46517 0.0
C459 C 0.95822 0.89566 0.42337 0.0
C460 C 0.90309 0.82832 0.42393 0.0
H461 H 0.89668 0.73579 0.30874 0.0
H462 H 0.91694 0.78057 0.33332 0.0
H463 H 0.87316 0.79121 0.41312 0.0
H464 H 0.92658 0.90213 0.49927 0.0
H465 H 0.91532 0.85498 0.47473 0.0
H466 H 0.96984 0.84158 0.3972 0.0
C467 C 0.90628 0.76081 0.34586 0.0
C468 C 0.89435 0.80196 0.40957 0.0
C469 C 0.89473 0.7351 0.33182 0.0
C470 C 0.93564 0.90068 0.4781 0.0
C471 C 0.929 0.87369 0.46385 0.0
C472 C 0.94857 0.8311 0.40065 0.0
C473 C 0.90283 0.76161 0.37564 0.0
C474 C 0.91251 0.78988 0.39048 0.0
C475 C 0.93961 0.87103 0.43598 0.0
C476 C 0.93043 0.84313 0.42 0.0
H477 H 0.8669 0.69033 0.39008 0.0
H478 H 0.88623 0.73541 0.41424 0.0
H479 H 0.95409 0.79597 0.37137 0.0
H480 H 0.97904 0.94139 0.42736 0.0
H481 H 0.96667 0.89471 0.4019 0.0
C482 C 0.34842 0.7694 0.64021 0.0
C483 C 0.36344 0.79276 0.65482 0.0
C484 C 0.36224 0.74885 0.62494 0.0
C485 C 0.42637 0.71279 0.6208 0.0
H486 H 0.40415 0.69662 0.54385 0.0
C487 C 0.47869 0.6265 0.554 0.0
C488 C 0.46082 0.60694 0.53814 0.0
C489 C 0.46903 0.65177 0.56664 0.0
C490 C 0.41044 0.70062 0.56541 0.0
H491 H 0.40494 0.81265 0.66478 0.0
H492 H 0.42901 0.77597 0.63874 0.0
H493 H 0.3827 0.73527 0.56964 0.0
H494 H 0.41889 0.59869 0.52289 0.0
H495 H 0.40193 0.642 0.5454 0.0
H496 H 0.45332 0.67736 0.61711 0.0
C497 C 0.4065 0.77383 0.63913 0.0
C498 C 0.39822 0.72284 0.58011 0.0
C499 C 0.39268 0.7947 0.65413 0.0
C500 C 0.43327 0.61341 0.53482 0.0
C501 C 0.42357 0.63844 0.54761 0.0
C502 C 0.4384 0.69027 0.60622 0.0
C503 C 0.39139 0.75088 0.62422 0.0
C504 C 0.40579 0.72884 0.60806 0.0
C505 C 0.44125 0.65787 0.56382 0.0
C506 C 0.43027 0.68358 0.57848 0.0
H507 H 0.32591 0.76673 0.64077 0.0
H508 H 0.35009 0.73101 0.61401 0.0
H509 H 0.43243 0.71687 0.64243 0.0
H510 H 0.50008 0.62216 0.55685 0.0
H511 H 0.48332 0.6665 0.57864 0.0
C512 C 0.8317 0.82003 0.72226 0.0
C513 C 0.81724 0.83558 0.74225 0.0
C514 C 0.84647 0.83648 0.69916 0.0
C515 C 0.87937 0.91543 0.67723 0.0
H516 H 0.88828 0.88034 0.60398 0.0
C517 C 0.93994 0.98251 0.58075 0.0
C518 C 0.95961 0.96642 0.56714 0.0
C519 C 0.92089 0.96705 0.60108 0.0
C520 C 0.88601 0.89032 0.62439 0.0
H521 H 0.8062 0.88061 0.75298 0.0
H522 H 0.83088 0.90909 0.71201 0.0
H523 H 0.85647 0.85264 0.64057 0.0
H524 H 0.97453 0.92148 0.56385 0.0
H525 H 0.94104 0.89444 0.59927 0.0
H526 H 0.90878 0.95322 0.66085 0.0
C527 C 0.83142 0.88424 0.7146 0.0
C528 C 0.86788 0.87447 0.64537 0.0
C529 C 0.81689 0.86782 0.73788 0.0
C530 C 0.95973 0.93453 0.57411 0.0
C531 C 0.94044 0.919 0.59417 0.0
C532 C 0.89724 0.93142 0.65614 0.0
C533 C 0.84689 0.86887 0.6953 0.0
C534 C 0.86459 0.88665 0.67218 0.0
C535 C 0.92092 0.93515 0.6079 0.0
C536 C 0.90097 0.91884 0.62967 0.0
H537 H 0.83206 0.79514 0.72477 0.0
H538 H 0.85833 0.82387 0.68491 0.0
H539 H 0.87781 0.92526 0.69779 0.0
H540 H 0.93932 0.00709 0.57579 0.0
H541 H 0.90592 0.97997 0.61125 0.0
C542 C 0.62485 0.1214 0.27288 0.0
C543 C 0.65328 0.13181 0.27434 0.0
C544 C 0.61407 0.11037 0.24767 0.0
C545 C 0.5991 0.07359 0.19634 0.0
H546 H 0.62207 0.12043 0.12501 0.0
C547 C 0.55481 0.03755 0.08901 0.0
C548 C 0.54586 0.06171 0.07155 0.0
C549 C 0.57125 0.04413 0.1124 0.0
C550 C 0.61545 0.10711 0.14476 0.0
H551 H 0.69273 0.1386 0.25054 0.0
H552 H 0.67395 0.11888 0.20659 0.0
H553 H 0.64364 0.13541 0.16922 0.0
H554 H 0.54807 0.11172 0.06424 0.0
H555 H 0.57645 0.12316 0.10509 0.0
H556 H 0.57016 0.04604 0.17208 0.0
C557 C 0.65997 0.11952 0.2249 0.0
C558 C 0.62801 0.11549 0.17004 0.0
C559 C 0.67076 0.13053 0.25014 0.0
C560 C 0.55457 0.09256 0.0773 0.0
C561 C 0.57101 0.09913 0.10063 0.0
C562 C 0.58657 0.0652 0.17106 0.0
C563 C 0.63147 0.10949 0.22333 0.0
C564 C 0.61965 0.09912 0.19619 0.0
C565 C 0.57912 0.075 0.11875 0.0
C566 C 0.5943 0.08216 0.14505 0.0
H567 H 0.61091 0.12177 0.29126 0.0
H568 H 0.59197 0.10314 0.24708 0.0
H569 H 0.59246 0.06027 0.21609 0.0
H570 H 0.54856 0.01352 0.08507 0.0
H571 H 0.57749 0.02504 0.12574 0.0
C572 C 0.36109 0.58465 0.24411 0.0
C573 C 0.36066 0.61691 0.23976 0.0
C574 C 0.37259 0.57195 0.26866 0.0
C575 C 0.3937 0.59039 0.34202 0.0
H576 H 0.44023 0.52405 0.33476 0.0
C577 C 0.46731 0.55629 0.43035 0.0
C578 C 0.46922 0.52457 0.43674 0.0
C579 C 0.45267 0.56612 0.40681 0.0
C580 C 0.42702 0.54231 0.33724 0.0
H581 H 0.37126 0.66094 0.25841 0.0
H582 H 0.39182 0.63899 0.30065 0.0
H583 H 0.41691 0.54366 0.29304 0.0
H584 H 0.4572 0.47831 0.4232 0.0
H585 H 0.43165 0.49554 0.38199 0.0
H586 H 0.40417 0.58938 0.38609 0.0
C587 C 0.38307 0.62338 0.28529 0.0
C588 C 0.41359 0.55354 0.3133 0.0
C589 C 0.37158 0.63604 0.26082 0.0
C590 C 0.45616 0.50291 0.4189 0.0
C591 C 0.44164 0.51279 0.39519 0.0
C592 C 0.40719 0.57925 0.36589 0.0
C593 C 0.38388 0.59118 0.28951 0.0
C594 C 0.39698 0.57797 0.3153 0.0
C595 C 0.43964 0.54453 0.38892 0.0
C596 C 0.42425 0.55529 0.36375 0.0
H597 H 0.35304 0.56924 0.22827 0.0
H598 H 0.37256 0.54702 0.27133 0.0
H599 H 0.38063 0.60876 0.34456 0.0
H600 H 0.47708 0.57364 0.4436 0.0
H601 H 0.4519 0.59076 0.4024 0.0
C602 C 0.14577 0.40932 0.74743 0.0
C603 C 0.14245 0.3772 0.74406 0.0
C604 C 0.13377 0.42152 0.77112 0.0
C605 C 0.07846 0.40267 0.82782 0.0
H606 H 0.11871 0.47048 0.86481 0.0
C607 C 0.04035 0.4435 0.93547 0.0
C608 C 0.04268 0.4756 0.93887 0.0
C609 C 0.05258 0.43184 0.91166 0.0
C610 C 0.10704 0.45178 0.85454 0.0
H611 H 0.12429 0.3327 0.76338 0.0
H612 H 0.10349 0.35389 0.8047 0.0
H613 H 0.13999 0.44943 0.82366 0.0
H614 H 0.0598 0.52061 0.91974 0.0
H615 H 0.08101 0.50027 0.87809 0.0
H616 H 0.04557 0.40495 0.85875 0.0
C617 C 0.11496 0.36977 0.78877 0.0
C618 C 0.11925 0.43969 0.83091 0.0
C619 C 0.12692 0.35759 0.76506 0.0
C620 C 0.05764 0.49575 0.91786 0.0
C621 C 0.06993 0.48407 0.89404 0.0
C622 C 0.06628 0.41473 0.85146 0.0
C623 C 0.11815 0.40191 0.7921 0.0
C624 C 0.10514 0.41492 0.81725 0.0
C625 C 0.06751 0.45196 0.8906 0.0
C626 C 0.08042 0.4394 0.86518 0.0
H627 H 0.15725 0.42516 0.73147 0.0
H628 H 0.13634 0.44641 0.7727 0.0
H629 H 0.06674 0.38399 0.81757 0.0
H630 H 0.02906 0.42724 0.95124 0.0
H631 H 0.05061 0.40697 0.90995 0.0
C632 C 0.74145 0.8249 0.84944 0.0
C633 C 0.74257 0.82216 0.81971 0.0
C634 C 0.71928 0.83721 0.86244 0.0
C635 C 0.669 0.89149 0.84778 0.0
H636 H 0.63309 0.85574 0.91896 0.0
C637 C 0.58033 0.94674 0.90202 0.0
C638 C 0.57986 0.9468 0.93196 0.0
C639 C 0.59854 0.92975 0.88775 0.0
C640 C 0.64314 0.86622 0.89927 0.0
H641 H 0.72063 0.82932 0.78053 0.0
H642 H 0.68218 0.85166 0.8033 0.0
H643 H 0.66731 0.82828 0.89485 0.0
H644 H 0.59822 0.92928 0.97047 0.0
H645 H 0.63069 0.90037 0.94554 0.0
H646 H 0.64574 0.92993 0.85253 0.0
C647 C 0.6986 0.8442 0.81639 0.0
C648 C 0.66258 0.85039 0.88541 0.0
C649 C 0.72065 0.83152 0.80339 0.0
C650 C 0.59805 0.92959 0.94737 0.0
C651 C 0.6165 0.91283 0.93307 0.0
C652 C 0.64979 0.90749 0.86177 0.0
C653 C 0.69789 0.84743 0.846 0.0
C654 C 0.67582 0.86299 0.85964 0.0
C655 C 0.61694 0.91267 0.90308 0.0
C656 C 0.63675 0.89515 0.88779 0.0
H657 H 0.75821 0.81859 0.86265 0.0
H658 H 0.71945 0.83985 0.88525 0.0
H659 H 0.67924 0.90194 0.82815 0.0
H660 H 0.56636 0.95953 0.88953 0.0
H661 H 0.59795 0.92974 0.86469 0.0
C662 C 0.75026 0.13697 0.32777 0.0
C663 C 0.72776 0.13965 0.34667 0.0
C664 C 0.77524 0.1282 0.3381 0.0
C665 C 0.81581 0.12437 0.40341 0.0
H666 H 0.85213 0.06249 0.36514 0.0
C667 C 0.90307 0.06225 0.45467 0.0
C668 C 0.92534 0.05606 0.43692 0.0
C669 C 0.87993 0.07416 0.44299 0.0
C670 C 0.84248 0.08013 0.37584 0.0
H671 H 0.71374 0.1348 0.39119 0.0
H672 H 0.75734 0.1197 0.40919 0.0
H673 H 0.80995 0.08018 0.34583 0.0
H674 H 0.94102 0.05803 0.39301 0.0
H675 H 0.90076 0.07919 0.37268 0.0
H676 H 0.84825 0.12426 0.43349 0.0
C677 C 0.7558 0.12481 0.38643 0.0
C678 C 0.8183 0.09023 0.36478 0.0
C679 C 0.73082 0.13347 0.37611 0.0
C680 C 0.92415 0.06243 0.40727 0.0
C681 C 0.90101 0.07439 0.39559 0.0
C682 C 0.84003 0.11434 0.41442 0.0
C683 C 0.77826 0.12202 0.36755 0.0
C684 C 0.80457 0.11226 0.37859 0.0
C685 C 0.87856 0.08022 0.41331 0.0
C686 C 0.85351 0.0919 0.40091 0.0
H687 H 0.7487 0.142 0.30501 0.0
H688 H 0.7923 0.1266 0.32307 0.0
H689 H 0.80594 0.14175 0.41426 0.0
H690 H 0.90329 0.05751 0.47759 0.0
H691 H 0.86283 0.07798 0.45721 0.0
C692 C 0.28646 0.61474 0.13415 0.0
C693 C 0.28845 0.61638 0.1639 0.0
C694 C 0.2614 0.6036 0.12225 0.0
C695 C 0.1856 0.59203 0.13794 0.0
H696 H 0.18422 0.53933 0.07414 0.0
C697 C 0.08388 0.52825 0.09955 0.0
C698 C 0.08072 0.52525 0.07011 0.0
C699 C 0.10911 0.54089 0.11 0.0
C700 C 0.18426 0.55441 0.09167 0.0
H701 H 0.26567 0.60707 0.20446 0.0
H702 H 0.22204 0.58711 0.18374 0.0
H703 H 0.22851 0.55692 0.09475 0.0
H704 H 0.10156 0.53389 0.02846 0.0
H705 H 0.14574 0.55631 0.04673 0.0
H706 H 0.14139 0.58948 0.13496 0.0
C707 C 0.23981 0.59485 0.16957 0.0
C708 C 0.20967 0.56443 0.10355 0.0
C709 C 0.26491 0.60592 0.1815 0.0
C710 C 0.1033 0.53587 0.05126 0.0
C711 C 0.12867 0.54849 0.06176 0.0
C712 C 0.16022 0.58204 0.12606 0.0
C713 C 0.23765 0.59384 0.13977 0.0
C714 C 0.21065 0.58322 0.12697 0.0
C715 C 0.13195 0.55089 0.09131 0.0
C716 C 0.15918 0.56291 0.1029 0.0
H717 H 0.30428 0.62228 0.12 0.0
H718 H 0.2605 0.60336 0.09922 0.0
H719 H 0.18561 0.60699 0.15556 0.0
H720 H 0.06696 0.52031 0.11473 0.0
H721 H 0.11092 0.54198 0.13288 0.0
C722 C 0.23189 0.40863 0.6741 0.0
C723 C 0.22228 0.37697 0.67266 0.0
C724 C 0.25816 0.4207 0.66272 0.0
C725 C 0.30931 0.41098 0.60747 0.0
H726 H 0.3627 0.45601 0.65413 0.0
C727 C 0.41988 0.45866 0.56286 0.0
C728 C 0.43214 0.4865 0.57303 0.0
C729 C 0.39492 0.44373 0.57541 0.0
C730 C 0.34796 0.44402 0.64053 0.0
H731 H 0.2337 0.33318 0.65866 0.0
H732 H 0.2788 0.35476 0.6376 0.0
H733 H 0.31774 0.43399 0.67507 0.0
H734 H 0.42749 0.52099 0.60372 0.0
H735 H 0.38372 0.49613 0.6245 0.0
H736 H 0.3387 0.42206 0.57254 0.0
C737 C 0.26585 0.37004 0.64767 0.0
C738 C 0.32224 0.4312 0.6527 0.0
C739 C 0.23986 0.35779 0.65961 0.0
C740 C 0.41879 0.4993 0.59566 0.0
C741 C 0.39367 0.48481 0.60777 0.0
C742 C 0.33481 0.42437 0.59508 0.0
C743 C 0.27523 0.40159 0.64912 0.0
C744 C 0.30267 0.41463 0.63628 0.0
C745 C 0.38139 0.45664 0.59806 0.0
C746 C 0.35451 0.44126 0.61139 0.0
H747 H 0.21893 0.42435 0.68347 0.0
H748 H 0.26489 0.44519 0.66392 0.0
H749 H 0.29444 0.39843 0.59433 0.0
H750 H 0.42977 0.4482 0.5455 0.0
H751 H 0.38648 0.42188 0.56753 0.0
C752 C 0.83862 0.73887 0.8116 0.0
C753 C 0.82296 0.75926 0.82547 0.0
C754 C 0.85528 0.72015 0.82721 0.0
C755 C 0.86409 0.68531 0.89894 0.0
H756 H 0.94094 0.68375 0.87406 0.0
C757 C 0.93955 0.627 0.97054 0.0
C758 C 0.95754 0.60856 0.95742 0.0
C759 C 0.92472 0.64688 0.95408 0.0
C760 C 0.91945 0.68366 0.88112 0.0
H761 H 0.81265 0.77593 0.8667 0.0
H762 H 0.84108 0.74267 0.89388 0.0
H763 H 0.91069 0.71384 0.84543 0.0
H764 H 0.97497 0.59724 0.91684 0.0
H765 H 0.94859 0.63148 0.88797 0.0
H766 H 0.87245 0.65479 0.93427 0.0
C767 C 0.84034 0.74112 0.87095 0.0
C768 C 0.90217 0.70087 0.86474 0.0
C769 C 0.82394 0.76005 0.85536 0.0
C770 C 0.96135 0.61134 0.92755 0.0
C771 C 0.94625 0.631 0.91102 0.0
C772 C 0.88125 0.66791 0.91517 0.0
C773 C 0.85635 0.72122 0.85701 0.0
C774 C 0.8744 0.70201 0.87363 0.0
C775 C 0.92728 0.64847 0.92408 0.0
C776 C 0.90921 0.66707 0.9066 0.0
H777 H 0.83805 0.73741 0.78866 0.0
H778 H 0.86719 0.70471 0.81601 0.0
H779 H 0.84264 0.68547 0.90606 0.0
H780 H 0.93641 0.62555 0.99356 0.0
H781 H 0.91084 0.66061 0.96487 0.0
C782 C 0.3969 0.70573 0.15752 0.0
C783 C 0.36774 0.70125 0.16077 0.0
C784 C 0.41036 0.7332 0.14409 0.0
C785 C 0.3978 0.79911 0.09426 0.0
H786 H 0.46548 0.83933 0.12415 0.0
C787 C 0.44456 0.92157 0.0521 0.0
C788 C 0.47359 0.9271 0.04794 0.0
C789 C 0.43223 0.89403 0.06625 0.0
C790 C 0.44677 0.8282 0.11534 0.0
H791 H 0.32997 0.72258 0.15316 0.0
H792 H 0.35338 0.77034 0.12972 0.0
H793 H 0.44295 0.7912 0.14807 0.0
H794 H 0.51245 0.90805 0.05568 0.0
H795 H 0.49089 0.85981 0.0802 0.0
H796 H 0.40156 0.83597 0.06154 0.0
C797 C 0.36584 0.75241 0.13708 0.0
C798 C 0.43385 0.80061 0.12906 0.0
C799 C 0.35241 0.72501 0.15052 0.0
C800 C 0.49003 0.90456 0.05858 0.0
C801 C 0.47768 0.87696 0.07276 0.0
C802 C 0.4107 0.82662 0.08056 0.0
C803 C 0.39497 0.7568 0.13357 0.0
C804 C 0.40912 0.78583 0.11877 0.0
C805 C 0.4486 0.87127 0.07659 0.0
C806 C 0.43526 0.84163 0.091 0.0
H807 H 0.40932 0.68775 0.16488 0.0
H808 H 0.4328 0.73567 0.14144 0.0
H809 H 0.37907 0.78803 0.08544 0.0
H810 H 0.43125 0.93849 0.04434 0.0
H811 H 0.40982 0.89067 0.06925 0.0
C812 C 0.11924 0.27835 0.68134 0.0
C813 C 0.13557 0.30274 0.6656 0.0
C814 C 0.1059 0.2534 0.6676 0.0
C815 C 0.08672 0.22755 0.59516 0.0
H816 H 0.08563 0.14538 0.63268 0.0
C817 C 0.07713 0.1143 0.53608 0.0
C818 C 0.05893 0.08909 0.54802 0.0
C819 C 0.08219 0.14141 0.55054 0.0
C820 C 0.08545 0.16822 0.62209 0.0
H821 H 0.14946 0.32044 0.62273 0.0
H822 H 0.12763 0.27651 0.59911 0.0
H823 H 0.10272 0.19068 0.65788 0.0
H824 H 0.03135 0.07272 0.58425 0.0
H825 H 0.04076 0.12003 0.60991 0.0
H826 H 0.07075 0.20466 0.55883 0.0
C827 C 0.12457 0.27676 0.62203 0.0
C828 C 0.09516 0.19429 0.63656 0.0
C829 C 0.13758 0.30184 0.6357 0.0
C830 C 0.04541 0.09181 0.57448 0.0
C831 C 0.0509 0.11877 0.58923 0.0
C832 C 0.07744 0.20145 0.58057 0.0
C833 C 0.10873 0.25198 0.63777 0.0
C834 C 0.0963 0.22435 0.62317 0.0
C835 C 0.06953 0.14373 0.57749 0.0
C836 C 0.07701 0.17151 0.59377 0.0
H837 H 0.11731 0.27807 0.7044 0.0
H838 H 0.09352 0.2351 0.68047 0.0
H839 H 0.08659 0.25025 0.58431 0.0
H840 H 0.08779 0.11293 0.51567 0.0
H841 H 0.09679 0.16019 0.54107 0.0
C842 C 0.64507 0.19797 0.38676 0.0
C843 C 0.64544 0.19918 0.35671 0.0
C844 C 0.63162 0.21914 0.40167 0.0
C845 C 0.57787 0.27209 0.39631 0.0
H846 H 0.61954 0.31602 0.45368 0.0
C847 C 0.54251 0.38101 0.44448 0.0
C848 C 0.54885 0.38641 0.47291 0.0
C849 C 0.55228 0.35616 0.43131 0.0
C850 C 0.60733 0.3036 0.43816 0.0
H851 H 0.63163 0.22361 0.31886 0.0
H852 H 0.60757 0.26007 0.34503 0.0
H853 H 0.64014 0.27616 0.42892 0.0
H854 H 0.56917 0.36919 0.5103 0.0
H855 H 0.58534 0.32522 0.48774 0.0
H856 H 0.5449 0.29921 0.40569 0.0
C857 C 0.61771 0.24262 0.35694 0.0
C858 C 0.61924 0.28084 0.42388 0.0
C859 C 0.63144 0.22167 0.34199 0.0
C860 C 0.56419 0.36578 0.48826 0.0
C861 C 0.57363 0.3407 0.47523 0.0
C862 C 0.56579 0.29462 0.41084 0.0
C863 C 0.61793 0.24176 0.3869 0.0
C864 C 0.60472 0.26504 0.40268 0.0
C865 C 0.5683 0.33592 0.4464 0.0
C866 C 0.58046 0.31085 0.43181 0.0
H867 H 0.65513 0.18058 0.39884 0.0
H868 H 0.63181 0.21775 0.4248 0.0
H869 H 0.56613 0.26 0.38023 0.0
H870 H 0.53088 0.39664 0.43203 0.0
H871 H 0.54805 0.35351 0.409 0.0
loop_
_geom_bond_atom_site_label_1
_geom_bond_atom_site_label_2
_geom_bond_distance
_geom_bond_site_symmetry_2
_ccdc_geom_bond_type
H0 C3 0.931 . S
H1 C6 0.928 . S
H2 C8 0.930 . S
C3 H0 0.931 . S
C3 C4 1.413 . S
C3 C5 1.360 . S
C4 C3 1.413 . S
C4 C8 1.429 . S
C5 C3 1.360 . S
C5 C6 1.372 . S
C6 H1 0.928 . S
C6 C5 1.372 . S
C6 C7 1.404 . S
C7 C6 1.404 . S
C7 C8 1.391 . S
C8 H2 0.930 . S
C8 C4 1.429 . S
C8 C7 1.391 . S
H9 C12 0.931 . S
H10 C15 0.928 . S
H11 C17 0.930 . S
C12 H9 0.931 . S
C12 C13 1.413 . S
C12 C14 1.360 . S
C13 C12 1.413 . S
C13 C17 1.429 . S
C14 C12 1.360 . S
C14 C15 1.372 . S
C15 H10 0.928 . S
C15 C14 1.372 . S
C15 C16 1.404 . S
C16 C15 1.404 . S
C16 C17 1.391 . S
C17 H11 0.930 . S
C17 C13 1.429 . S
C17 C16 1.391 . S
H18 C21 0.931 . S
H19 C24 0.928 . S
H20 C26 0.930 . S
C21 H18 0.931 . S
C21 C22 1.413 . S
C21 C23 1.360 . S
C22 C21 1.413 . S
C22 C26 1.429 . S
C23 C21 1.360 . S
C23 C24 1.372 . S
C24 H19 0.928 . S
C24 C23 1.372 . S
C24 C25 1.404 . S
C25 C24 1.404 . S
C25 C26 1.391 . S
C26 H20 0.930 . S
C26 C22 1.429 . S
C26 C25 1.391 . S
H27 C30 0.931 . S
H28 C33 0.928 . S
H29 C35 0.930 . S
C30 H27 0.931 . S
C30 C31 1.413 . S
C30 C32 1.360 . S
C31 C30 1.413 . S
C31 C35 1.429 . S
C32 C30 1.360 . S
C32 C33 1.372 . S
C33 H28 0.928 . S
C33 C32 1.372 . S
C33 C34 1.404 . S
C34 C33 1.404 . S
C34 C35 1.391 . S
C35 H29 0.930 . S
C35 C31 1.429 . S
C35 C34 1.391 . S
H36 C39 0.931 . S
H37 C42 0.928 . S
H38 C44 0.930 . S
C39 H36 0.931 . S
C39 C40 1.413 . S
C39 C41 1.360 . S
C40 C39 1.413 . S
C40 C44 1.429 . S
C41 C39 1.360 . S
C41 C42 1.372 . S
C42 H37 0.928 . S
C42 C41 1.372 . S
C42 C43 1.404 . S
C43 C42 1.404 . S
C43 C44 1.391 . S
C44 H38 0.930 . S
C44 C40 1.429 . S
C44 C43 1.391 . S
H45 C48 0.931 . S
H46 C51 0.928 . S
H47 C53 0.930 . S
C48 H45 0.931 . S
C48 C49 1.413 . S
C48 C50 1.360 . S
C49 C48 1.413 . S
C49 C53 1.429 . S
C50 C48 1.360 . S
C50 C51 1.372 . S
C51 H46 0.928 . S
C51 C50 1.372 . S
C51 C52 1.404 . S
C52 C51 1.404 . S
C52 C53 1.391 . S
C53 H47 0.930 . S
C53 C49 1.429 . S
C53 C52 1.391 . S
H54 C57 0.931 . S
H55 C60 0.928 . S
H56 C62 0.930 . S
C57 H54 0.931 . S
C57 C58 1.413 . S
C57 C59 1.360 . S
C58 C57 1.413 . S
C58 C62 1.429 . S
C59 C57 1.360 . S
C59 C60 1.372 . S
C60 H55 0.928 . S
C60 C59 1.372 . S
C60 C61 1.404 . S
C61 C60 1.404 . S
C61 C62 1.391 . S
C62 H56 0.930 . S
C62 C58 1.429 . S
C62 C61 1.391 . S
H63 C66 0.931 . S
H64 C69 0.928 . S
H65 C71 0.930 . S
C66 H63 0.931 . S
C66 C67 1.413 . S
C66 C68 1.360 . S
C67 C66 1.413 . S
C67 C71 1.429 . S
C68 C66 1.360 . S
C68 C69 1.372 . S
C69 H64 0.928 . S
C69 C68 1.372 . S
C69 C70 1.404 . S
C70 C69 1.404 . S
C70 C71 1.391 . S
C71 H65 0.930 . S
C71 C67 1.429 . S
C71 C70 1.391 . S
Zn72 O78 1.969 1_545 S
Zn72 O79 1.965 1_545 S
Zn72 O83 2.024 . S
Zn72 O88 1.969 . S
Zn73 O80 1.969 . S
Zn73 O86 1.969 1_565 S
Zn73 O87 1.965 1_665 S
Zn73 O89 2.024 . S
C74 O75 1.229 . S
C74 O83 1.058 . S
O75 C74 1.229 . S
C76 O77 1.229 . S
C76 O89 1.058 . S
O77 C76 1.229 . S
O78 Zn72 1.969 1_565 S
O78 C81 1.267 . S
O79 Zn72 1.965 1_565 S
O79 C90 1.260 1_455 S
O80 Zn73 1.969 . S
O80 C90 1.258 . S
C81 O78 1.267 . S
C81 O82 1.228 . S
O82 C81 1.228 . S
O83 Zn72 2.024 . S
O83 C74 1.058 . S
C84 O85 1.228 . S
C84 O86 1.267 . S
O85 C84 1.228 . S
O86 Zn73 1.969 1_545 S
O86 C84 1.267 . S
O87 Zn73 1.965 1_445 S
O87 C91 1.260 . S
O88 Zn72 1.969 . S
O88 C91 1.258 . S
O89 Zn73 2.024 . S
O89 C76 1.058 . S
C90 O79 1.260 1_655 S
C90 O80 1.258 . S
C91 O87 1.260 . S
C91 O88 1.258 . S
Zn92 O98 1.969 . S
Zn92 O99 1.965 1_565 S
Zn92 O103 2.024 . S
Zn92 O108 1.958 1_556 S
Zn93 O100 1.969 . S
Zn93 O106 1.969 . S
Zn93 O107 1.965 1_545 S
Zn93 O109 2.024 . S
C94 O95 1.229 . S
C94 O103 1.058 . S
O95 C94 1.229 . S
C96 O97 1.229 . S
C96 O109 1.058 . S
O97 C96 1.229 . S
O98 Zn92 1.969 . S
O98 C101 1.267 . S
O99 Zn92 1.965 1_545 S
O99 C110 1.260 . S
O100 Zn93 1.969 . S
O100 C110 1.258 1_554 S
C101 O98 1.267 . S
C101 O102 1.228 . S
O102 C101 1.228 . S
O103 Zn92 2.024 . S
O103 C94 1.058 . S
C104 O105 1.228 . S
C104 O106 1.267 . S
O105 C104 1.228 . S
O106 Zn93 1.969 . S
O106 C104 1.267 . S
O107 Zn93 1.965 1_565 S
O107 C111 1.260 . S
O108 Zn92 1.958 1_554 S
O108 C111 1.270 . S
O109 Zn93 2.024 . S
O109 C96 1.058 . S
C110 O99 1.260 . S
C110 O100 1.258 1_556 S
C111 O107 1.260 . S
C111 O108 1.270 . S
Zn112 O118 1.969 . S
Zn112 O119 1.965 . S
Zn112 O123 2.024 . S
Zn112 O128 1.969 . S
Zn113 O120 1.969 . S
Zn113 O126 1.969 . S
Zn113 O127 1.965 . S
Zn113 O129 2.024 . S
C114 O115 1.229 . S
C114 O123 1.058 . S
O115 C114 1.229 . S
C116 O117 1.229 . S
C116 O129 1.058 . S
O117 C116 1.229 . S
O118 Zn112 1.969 . S
O118 C121 1.267 . S
O119 Zn112 1.965 . S
O119 C130 1.260 . S
O120 Zn113 1.969 . S
O120 C130 1.258 . S
C121 O118 1.267 . S
C121 O122 1.228 . S
O122 C121 1.228 . S
O123 Zn112 2.024 . S
O123 C114 1.058 . S
C124 O125 1.228 . S
C124 O126 1.267 . S
O125 C124 1.228 . S
O126 Zn113 1.969 . S
O126 C124 1.267 . S
O127 Zn113 1.965 . S
O127 C131 1.260 . S
O128 Zn112 1.969 . S
O128 C131 1.258 . S
O129 Zn113 2.024 . S
O129 C116 1.058 . S
C130 O119 1.260 . S
C130 O120 1.258 . S
C131 O127 1.260 . S
C131 O128 1.258 . S
Zn132 O138 1.969 . S
Zn132 O139 1.965 1_556 S
Zn132 O143 2.024 . S
Zn132 O148 1.969 1_655 S
Zn133 O140 1.969 . S
Zn133 O146 1.969 . S
Zn133 O147 1.965 1_554 S
Zn133 O149 2.024 . S
C134 O135 1.229 . S
C134 O143 1.058 . S
O135 C134 1.229 . S
C136 O137 1.229 . S
C136 O149 1.058 . S
O137 C136 1.229 . S
O138 Zn132 1.969 . S
O138 C141 1.267 . S
O139 Zn132 1.965 1_554 S
O139 C150 1.260 . S
O140 Zn133 1.969 . S
O140 C150 1.258 1_455 S
C141 O138 1.267 . S
C141 O142 1.228 . S
O142 C141 1.228 . S
O143 Zn132 2.024 . S
O143 C134 1.058 . S
C144 O145 1.228 . S
C144 O146 1.267 . S
O145 C144 1.228 . S
O146 Zn133 1.969 . S
O146 C144 1.267 . S
O147 Zn133 1.965 1_556 S
O147 C151 1.260 . S
O148 Zn132 1.969 1_455 S
O148 C151 1.258 . S
O149 Zn133 2.024 . S
O149 C136 1.058 . S
C150 O139 1.260 . S
C150 O140 1.258 1_655 S
C151 O147 1.260 . S
C151 O148 1.258 . S
C152 C153 1.349 . S
C152 C154 1.327 . S
C152 H177 0.950 . S
C153 C152 1.349 . S
C153 C169 1.349 . S
C154 C152 1.327 . S
C154 C173 1.429 . S
C154 H178 0.950 . S
C155 C172 1.574 . S
C155 C174 1.368 . S
C155 H179 0.949 . S
H156 C160 0.949 . S
C157 C158 1.349 . S
C157 C159 1.327 . S
C157 H180 0.950 . S
C158 C157 1.349 . S
C158 C170 1.349 . S
C159 C157 1.327 . S
C159 C175 1.429 . S
C159 H181 0.950 . S
C160 H156 0.949 . S
C160 C168 1.574 . S
C160 C176 1.368 . S
H161 C169 0.950 . S
H162 C167 0.950 . S
H163 C168 0.949 . S
H164 C170 0.950 . S
H165 C171 0.950 . S
H166 C172 0.949 . S
C167 H162 0.950 . S
C167 C169 1.327 . S
C167 C173 1.429 . S
C168 C160 1.574 . S
C168 H163 0.949 . S
C168 C174 1.368 . S
C169 C153 1.349 . S
C169 H161 0.950 . S
C169 C167 1.327 . S
C170 C158 1.349 . S
C170 H164 0.950 . S
C170 C171 1.327 . S
C171 H165 0.950 . S
C171 C170 1.327 . S
C171 C175 1.429 . S
C172 C155 1.574 . S
C172 H166 0.949 . S
C172 C176 1.368 . S
C173 C154 1.429 . S
C173 C167 1.429 . S
C173 C174 1.523 . S
C174 C155 1.368 . S
C174 C168 1.368 . S
C174 C173 1.523 . S
C175 C159 1.429 . S
C175 C171 1.429 . S
C175 C176 1.523 . S
C176 C160 1.368 . S
C176 C172 1.368 . S
C176 C175 1.523 . S
H177 C152 0.950 . S
H178 C154 0.950 . S
H179 C155 0.949 . S
H180 C157 0.950 . S
H181 C159 0.950 . S
C182 C183 1.349 . S
C182 C184 1.327 . S
C182 H207 0.950 . S
C183 C182 1.349 . S
C183 C199 1.349 . S
C184 C182 1.327 . S
C184 C203 1.429 . S
C184 H208 0.950 . S
C185 C202 1.574 . S
C185 C204 1.368 . S
C185 H209 0.949 . S
H186 C190 0.949 . S
C187 C188 1.349 . S
C187 C189 1.327 . S
C187 H210 0.950 . S
C188 C187 1.349 . S
C188 C200 1.349 . S
C189 C187 1.327 . S
C189 C205 1.429 . S
C189 H211 0.950 . S
C190 H186 0.949 . S
C190 C198 1.574 . S
C190 C206 1.368 . S
H191 C199 0.950 . S
H192 C197 0.950 . S
H193 C198 0.949 . S
H194 C200 0.950 . S
H195 C201 0.950 . S
H196 C202 0.949 . S
C197 H192 0.950 . S
C197 C199 1.327 . S
C197 C203 1.429 . S
C198 C190 1.574 . S
C198 H193 0.949 . S
C198 C204 1.368 . S
C199 C183 1.349 . S
C199 H191 0.950 . S
C199 C197 1.327 . S
C200 C188 1.349 . S
C200 H194 0.950 . S
C200 C201 1.327 . S
C201 H195 0.950 . S
C201 C200 1.327 . S
C201 C205 1.429 . S
C202 C185 1.574 . S
C202 H196 0.949 . S
C202 C206 1.368 . S
C203 C184 1.429 . S
C203 C197 1.429 . S
C203 C204 1.523 . S
C204 C185 1.368 . S
C204 C198 1.368 . S
C204 C203 1.523 . S
C205 C189 1.429 . S
C205 C201 1.429 . S
C205 C206 1.523 . S
C206 C190 1.368 . S
C206 C202 1.368 . S
C206 C205 1.523 . S
H207 C182 0.950 . S
H208 C184 0.950 . S
H209 C185 0.949 . S
H210 C187 0.950 . S
H211 C189 0.950 . S
C212 C213 1.349 . S
C212 C214 1.327 . S
C212 H237 0.950 . S
C213 C212 1.349 . S
C213 C229 1.349 . S
C214 C212 1.327 . S
C214 C233 1.429 . S
C214 H238 0.950 . S
C215 C232 1.574 . S
C215 C234 1.368 . S
C215 H239 0.949 . S
H216 C220 0.949 . S
C217 C218 1.349 . S
C217 C219 1.327 . S
C217 H240 0.950 . S
C218 C217 1.349 . S
C218 C230 1.349 . S
C219 C217 1.327 . S
C219 C235 1.429 . S
C219 H241 0.950 . S
C220 H216 0.949 . S
C220 C228 1.574 . S
C220 C236 1.368 . S
H221 C229 0.950 . S
H222 C227 0.950 . S
H223 C228 0.949 . S
H224 C230 0.950 . S
H225 C231 0.950 . S
H226 C232 0.949 . S
C227 H222 0.950 . S
C227 C229 1.327 . S
C227 C233 1.429 . S
C228 C220 1.574 . S
C228 H223 0.949 . S
C228 C234 1.368 . S
C229 C213 1.349 . S
C229 H221 0.950 . S
C229 C227 1.327 . S
C230 C218 1.349 . S
C230 H224 0.950 . S
C230 C231 1.327 . S
C231 H225 0.950 . S
C231 C230 1.327 . S
C231 C235 1.429 . S
C232 C215 1.574 . S
C232 H226 0.949 . S
C232 C236 1.368 . S
C233 C214 1.429 . S
C233 C227 1.429 . S
C233 C234 1.523 . S
C234 C215 1.368 . S
C234 C228 1.368 . S
C234 C233 1.523 . S
C235 C219 1.429 . S
C235 C231 1.429 . S
C235 C236 1.523 . S
C236 C220 1.368 . S
C236 C232 1.368 . S
C236 C235 1.523 . S
H237 C212 0.950 . S
H238 C214 0.950 . S
H239 C215 0.949 . S
H240 C217 0.950 . S
H241 C219 0.950 . S
C242 C243 1.349 . S
C242 C244 1.327 . S
C242 H267 0.950 . S
C243 C242 1.349 . S
C243 C259 1.349 . S
C244 C242 1.327 . S
C244 C263 1.429 . S
C244 H268 0.950 . S
C245 C262 1.574 . S
C245 C264 1.368 . S
C245 H269 0.949 . S
H246 C250 0.949 . S
C247 C248 1.349 . S
C247 C249 1.327 . S
C247 H270 0.950 . S
C248 C247 1.349 . S
C248 C260 1.349 . S
C249 C247 1.327 . S
C249 C265 1.429 . S
C249 H271 0.950 . S
C250 H246 0.949 . S
C250 C258 1.574 . S
C250 C266 1.368 . S
H251 C259 0.950 . S
H252 C257 0.950 . S
H253 C258 0.949 . S
H254 C260 0.950 . S
H255 C261 0.950 . S
H256 C262 0.949 . S
C257 H252 0.950 . S
C257 C259 1.327 . S
C257 C263 1.429 . S
C258 C250 1.574 . S
C258 H253 0.949 . S
C258 C264 1.368 . S
C259 C243 1.349 . S
C259 H251 0.950 . S
C259 C257 1.327 . S
C260 C248 1.349 . S
C260 H254 0.950 . S
C260 C261 1.327 . S
C261 H255 0.950 . S
C261 C260 1.327 . S
C261 C265 1.429 . S
C262 C245 1.574 . S
C262 H256 0.949 . S
C262 C266 1.368 . S
C263 C244 1.429 . S
C263 C257 1.429 . S
C263 C264 1.523 . S
C264 C245 1.368 . S
C264 C258 1.368 . S
C264 C263 1.523 . S
C265 C249 1.429 . S
C265 C261 1.429 . S
C265 C266 1.523 . S
C266 C250 1.368 . S
C266 C262 1.368 . S
C266 C265 1.523 . S
H267 C242 0.950 . S
H268 C244 0.950 . S
H269 C245 0.949 . S
H270 C247 0.950 . S
H271 C249 0.950 . S
C272 C273 1.349 . S
C272 C274 1.327 . S
C272 H297 0.950 . S
C273 C272 1.349 . S
C273 C289 1.349 . S
C274 C272 1.327 . S
C274 C293 1.429 . S
C274 H298 0.950 . S
C275 C292 1.574 . S
C275 C294 1.368 . S
C275 H299 0.949 . S
H276 C280 0.949 . S
C277 C278 1.349 . S
C277 C279 1.327 . S
C277 H300 0.950 . S
C278 C277 1.349 . S
C278 C290 1.349 . S
C279 C277 1.327 . S
C279 C295 1.429 . S
C279 H301 0.950 . S
C280 H276 0.949 . S
C280 C288 1.574 . S
C280 C296 1.368 . S
H281 C289 0.950 . S
H282 C287 0.950 . S
H283 C288 0.949 . S
H284 C290 0.950 . S
H285 C291 0.950 . S
H286 C292 0.949 . S
C287 H282 0.950 . S
C287 C289 1.327 . S
C287 C293 1.429 . S
C288 C280 1.574 . S
C288 H283 0.949 . S
C288 C294 1.368 . S
C289 C273 1.349 . S
C289 H281 0.950 . S
C289 C287 1.327 . S
C290 C278 1.349 . S
C290 H284 0.950 . S
C290 C291 1.327 . S
C291 H285 0.950 . S
C291 C290 1.327 . S
C291 C295 1.429 . S
C292 C275 1.574 . S
C292 H286 0.949 . S
C292 C296 1.368 . S
C293 C274 1.429 . S
C293 C287 1.429 . S
C293 C294 1.523 . S
C294 C275 1.368 . S
C294 C288 1.368 . S
C294 C293 1.523 . S
C295 C279 1.429 . S
C295 C291 1.429 . S
C295 C296 1.523 . S
C296 C280 1.368 . S
C296 C292 1.368 . S
C296 C295 1.523 . S
H297 C272 0.950 . S
H298 C274 0.950 . S
H299 C275 0.949 . S
H300 C277 0.950 . S
H301 C279 0.950 . S
C302 C303 1.349 . S
C302 C304 1.327 . S
C302 H327 0.950 . S
C303 C302 1.349 . S
C303 C319 1.349 . S
C304 C302 1.327 . S
C304 C323 1.429 . S
C304 H328 0.950 . S
C305 C322 1.574 . S
C305 C324 1.368 . S
C305 H329 0.949 . S
H306 C310 0.949 . S
C307 C308 1.349 . S
C307 C309 1.327 . S
C307 H330 0.950 . S
C308 C307 1.349 . S
C308 C320 1.349 . S
C309 C307 1.327 . S
C309 C325 1.429 . S
C309 H331 0.950 . S
C310 H306 0.949 . S
C310 C318 1.574 . S
C310 C326 1.368 . S
H311 C319 0.950 . S
H312 C317 0.950 . S
H313 C318 0.949 . S
H314 C320 0.950 . S
H315 C321 0.950 . S
H316 C322 0.949 . S
C317 H312 0.950 . S
C317 C319 1.327 . S
C317 C323 1.429 . S
C318 C310 1.574 . S
C318 H313 0.949 . S
C318 C324 1.368 . S
C319 C303 1.349 . S
C319 H311 0.950 . S
C319 C317 1.327 . S
C320 C308 1.349 . S
C320 H314 0.950 . S
C320 C321 1.327 . S
C321 H315 0.950 . S
C321 C320 1.327 . S
C321 C325 1.429 . S
C322 C305 1.574 . S
C322 H316 0.949 . S
C322 C326 1.368 . S
C323 C304 1.429 . S
C323 C317 1.429 . S
C323 C324 1.523 . S
C324 C305 1.368 . S
C324 C318 1.368 . S
C324 C323 1.523 . S
C325 C309 1.429 . S
C325 C321 1.429 . S
C325 C326 1.523 . S
C326 C310 1.368 . S
C326 C322 1.368 . S
C326 C325 1.523 . S
H327 C302 0.950 . S
H328 C304 0.950 . S
H329 C305 0.949 . S
H330 C307 0.950 . S
H331 C309 0.950 . S
C332 C333 1.349 . S
C332 C334 1.327 . S
C332 H357 0.950 . S
C333 C332 1.349 . S
C333 C349 1.349 . S
C334 C332 1.327 . S
C334 C353 1.429 . S
C334 H358 0.950 . S
C335 C352 1.574 . S
C335 C354 1.368 . S
C335 H359 0.949 . S
H336 C340 0.949 . S
C337 C338 1.349 . S
C337 C339 1.327 . S
C337 H360 0.950 . S
C338 C337 1.349 . S
C338 C350 1.349 . S
C339 C337 1.327 . S
C339 C355 1.429 . S
C339 H361 0.950 . S
C340 H336 0.949 . S
C340 C348 1.574 . S
C340 C356 1.368 . S
H341 C349 0.950 . S
H342 C347 0.950 . S
H343 C348 0.949 . S
H344 C350 0.950 . S
H345 C351 0.950 . S
H346 C352 0.949 . S
C347 H342 0.950 . S
C347 C349 1.327 . S
C347 C353 1.429 . S
C348 C340 1.574 . S
C348 H343 0.949 . S
C348 C354 1.368 . S
C349 C333 1.349 . S
C349 H341 0.950 . S
C349 C347 1.327 . S
C350 C338 1.349 . S
C350 H344 0.950 . S
C350 C351 1.327 . S
C351 H345 0.950 . S
C351 C350 1.327 . S
C351 C355 1.429 . S
C352 C335 1.574 . S
C352 H346 0.949 . S
C352 C356 1.368 . S
C353 C334 1.429 . S
C353 C347 1.429 . S
C353 C354 1.523 . S
C354 C335 1.368 . S
C354 C348 1.368 . S
C354 C353 1.523 . S
C355 C339 1.429 . S
C355 C351 1.429 . S
C355 C356 1.523 . S
C356 C340 1.368 . S
C356 C352 1.368 . S
C356 C355 1.523 . S
H357 C332 0.950 . S
H358 C334 0.950 . S
H359 C335 0.949 . S
H360 C337 0.950 . S
H361 C339 0.950 . S
C362 C363 1.349 . S
C362 C364 1.327 . S
C362 H387 0.950 . S
C363 C362 1.349 . S
C363 C379 1.349 . S
C364 C362 1.327 . S
C364 C383 1.429 . S
C364 H388 0.950 . S
C365 C382 1.574 . S
C365 C384 1.368 . S
C365 H389 0.949 . S
H366 C370 0.949 . S
C367 C368 1.349 . S
C367 C369 1.327 . S
C367 H390 0.950 . S
C368 C367 1.349 . S
C368 C380 1.349 . S
C369 C367 1.327 . S
C369 C385 1.429 . S
C369 H391 0.950 . S
C370 H366 0.949 . S
C370 C378 1.574 . S
C370 C386 1.368 . S
H371 C379 0.950 . S
H372 C377 0.950 . S
H373 C378 0.949 . S
H374 C380 0.950 . S
H375 C381 0.950 . S
H376 C382 0.949 . S
C377 H372 0.950 . S
C377 C379 1.327 . S
C377 C383 1.429 . S
C378 C370 1.574 . S
C378 H373 0.949 . S
C378 C384 1.368 . S
C379 C363 1.349 . S
C379 H371 0.950 . S
C379 C377 1.327 . S
C380 C368 1.349 . S
C380 H374 0.950 . S
C380 C381 1.327 . S
C381 H375 0.950 . S
C381 C380 1.327 . S
C381 C385 1.429 . S
C382 C365 1.574 . S
C382 H376 0.949 . S
C382 C386 1.368 . S
C383 C364 1.429 . S
C383 C377 1.429 . S
C383 C384 1.523 . S
C384 C365 1.368 . S
C384 C378 1.368 . S
C384 C383 1.523 . S
C385 C369 1.429 . S
C385 C381 1.429 . S
C385 C386 1.523 . S
C386 C370 1.368 . S
C386 C382 1.368 . S
C386 C385 1.523 . S
H387 C362 0.950 . S
H388 C364 0.950 . S
H389 C365 0.949 . S
H390 C367 0.950 . S
H391 C369 0.950 . S
C392 C393 1.349 . S
C392 C394 1.327 . S
C392 H417 0.950 . S
C393 C392 1.349 . S
C393 C409 1.349 . S
C394 C392 1.327 . S
C394 C413 1.429 . S
C394 H418 0.950 . S
C395 C412 1.574 . S
C395 C414 1.368 . S
C395 H419 0.949 . S
H396 C400 0.949 . S
C397 C398 1.349 . S
C397 C399 1.327 . S
C397 H420 0.950 . S
C398 C397 1.349 . S
C398 C410 1.349 . S
C399 C397 1.327 . S
C399 C415 1.429 . S
C399 H421 0.950 . S
C400 H396 0.949 . S
C400 C408 1.574 . S
C400 C416 1.368 . S
H401 C409 0.950 . S
H402 C407 0.950 . S
H403 C408 0.949 . S
H404 C410 0.950 . S
H405 C411 0.950 . S
H406 C412 0.949 . S
C407 H402 0.950 . S
C407 C409 1.327 . S
C407 C413 1.429 . S
C408 C400 1.574 . S
C408 H403 0.949 . S
C408 C414 1.368 . S
C409 C393 1.349 . S
C409 H401 0.950 . S
C409 C407 1.327 . S
C410 C398 1.349 . S
C410 H404 0.950 . S
C410 C411 1.327 . S
C411 H405 0.950 . S
C411 C410 1.327 . S
C411 C415 1.429 . S
C412 C395 1.574 . S
C412 H406 0.949 . S
C412 C416 1.368 . S
C413 C394 1.429 . S
C413 C407 1.429 . S
C413 C414 1.523 . S
C414 C395 1.368 . S
C414 C408 1.368 . S
C414 C413 1.523 . S
C415 C399 1.429 . S
C415 C411 1.429 . S
C415 C416 1.523 . S
C416 C400 1.368 . S
C416 C412 1.368 . S
C416 C415 1.523 . S
H417 C392 0.950 . S
H418 C394 0.950 . S
H419 C395 0.949 . S
H420 C397 0.950 . S
H421 C399 0.950 . S
C422 C423 1.349 . S
C422 C424 1.327 . S
C422 H447 0.950 . S
C423 C422 1.349 . S
C423 C439 1.349 . S
C424 C422 1.327 . S
C424 C443 1.429 . S
C424 H448 0.950 . S
C425 C442 1.574 . S
C425 C444 1.368 . S
C425 H449 0.949 . S
H426 C430 0.949 . S
C427 C428 1.349 . S
C427 C429 1.327 . S
C427 H450 0.950 . S
C428 C427 1.349 . S
C428 C440 1.349 . S
C429 C427 1.327 . S
C429 C445 1.429 . S
C429 H451 0.950 . S
C430 H426 0.949 . S
C430 C438 1.574 . S
C430 C446 1.368 . S
H431 C439 0.950 . S
H432 C437 0.950 . S
H433 C438 0.949 . S
H434 C440 0.950 . S
H435 C441 0.950 . S
H436 C442 0.949 . S
C437 H432 0.950 . S
C437 C439 1.327 . S
C437 C443 1.429 . S
C438 C430 1.574 . S
C438 H433 0.949 . S
C438 C444 1.368 . S
C439 C423 1.349 . S
C439 H431 0.950 . S
C439 C437 1.327 . S
C440 C428 1.349 . S
C440 H434 0.950 . S
C440 C441 1.327 . S
C441 H435 0.950 . S
C441 C440 1.327 . S
C441 C445 1.429 . S
C442 C425 1.574 . S
C442 H436 0.949 . S
C442 C446 1.368 . S
C443 C424 1.429 . S
C443 C437 1.429 . S
C443 C444 1.523 . S
C444 C425 1.368 . S
C444 C438 1.368 . S
C444 C443 1.523 . S
C445 C429 1.429 . S
C445 C441 1.429 . S
C445 C446 1.523 . S
C446 C430 1.368 . S
C446 C442 1.368 . S
C446 C445 1.523 . S
H447 C422 0.950 . S
H448 C424 0.950 . S
H449 C425 0.949 . S
H450 C427 0.950 . S
H451 C429 0.950 . S
C452 C453 1.349 . S
C452 C454 1.327 . S
C452 H477 0.950 . S
C453 C452 1.349 . S
C453 C469 1.349 . S
C454 C452 1.327 . S
C454 C473 1.429 . S
C454 H478 0.950 . S
C455 C472 1.574 . S
C455 C474 1.368 . S
C455 H479 0.949 . S
H456 C460 0.949 . S
C457 C458 1.349 . S
C457 C459 1.327 . S
C457 H480 0.950 . S
C458 C457 1.349 . S
C458 C470 1.349 . S
C459 C457 1.327 . S
C459 C475 1.429 . S
C459 H481 0.950 . S
C460 H456 0.949 . S
C460 C468 1.574 . S
C460 C476 1.368 . S
H461 C469 0.950 . S
H462 C467 0.950 . S
H463 C468 0.949 . S
H464 C470 0.950 . S
H465 C471 0.950 . S
H466 C472 0.949 . S
C467 H462 0.950 . S
C467 C469 1.327 . S
C467 C473 1.429 . S
C468 C460 1.574 . S
C468 H463 0.949 . S
C468 C474 1.368 . S
C469 C453 1.349 . S
C469 H461 0.950 . S
C469 C467 1.327 . S
C470 C458 1.349 . S
C470 H464 0.950 . S
C470 C471 1.327 . S
C471 H465 0.950 . S
C471 C470 1.327 . S
C471 C475 1.429 . S
C472 C455 1.574 . S
C472 H466 0.949 . S
C472 C476 1.368 . S
C473 C454 1.429 . S
C473 C467 1.429 . S
C473 C474 1.523 . S
C474 C455 1.368 . S
C474 C468 1.368 . S
C474 C473 1.523 . S
C475 C459 1.429 . S
C475 C471 1.429 . S
C475 C476 1.523 . S
C476 C460 1.368 . S
C476 C472 1.368 . S
C476 C475 1.523 . S
H477 C452 0.950 . S
H478 C454 0.950 . S
H479 C455 0.949 . S
H480 C457 0.950 . S
H481 C459 0.950 . S
C482 C483 1.349 . S
C482 C484 1.327 . S
C482 H507 0.950 . S
C483 C482 1.349 . S
C483 C499 1.349 . S
C484 C482 1.327 . S
C484 C503 1.429 . S
C484 H508 0.950 . S
C485 C502 1.574 . S
C485 C504 1.368 . S
C485 H509 0.949 . S
H486 C490 0.949 . S
C487 C488 1.349 . S
C487 C489 1.327 . S
C487 H510 0.950 . S
C488 C487 1.349 . S
C488 C500 1.349 . S
C489 C487 1.327 . S
C489 C505 1.429 . S
C489 H511 0.950 . S
C490 H486 0.949 . S
C490 C498 1.574 . S
C490 C506 1.368 . S
H491 C499 0.950 . S
H492 C497 0.950 . S
H493 C498 0.949 . S
H494 C500 0.950 . S
H495 C501 0.950 . S
H496 C502 0.949 . S
C497 H492 0.950 . S
C497 C499 1.327 . S
C497 C503 1.429 . S
C498 C490 1.574 . S
C498 H493 0.949 . S
C498 C504 1.368 . S
C499 C483 1.349 . S
C499 H491 0.950 . S
C499 C497 1.327 . S
C500 C488 1.349 . S
C500 H494 0.950 . S
C500 C501 1.327 . S
C501 H495 0.950 . S
C501 C500 1.327 . S
C501 C505 1.429 . S
C502 C485 1.574 . S
C502 H496 0.949 . S
C502 C506 1.368 . S
C503 C484 1.429 . S
C503 C497 1.429 . S
C503 C504 1.523 . S
C504 C485 1.368 . S
C504 C498 1.368 . S
C504 C503 1.523 . S
C505 C489 1.429 . S
C505 C501 1.429 . S
C505 C506 1.523 . S
C506 C490 1.368 . S
C506 C502 1.368 . S
C506 C505 1.523 . S
H507 C482 0.950 . S
H508 C484 0.950 . S
H509 C485 0.949 . S
H510 C487 0.950 . S
H511 C489 0.950 . S
C512 C513 1.349 . S
C512 C514 1.327 . S
C512 H537 0.950 . S
C513 C512 1.349 . S
C513 C529 1.349 . S
C514 C512 1.327 . S
C514 C533 1.429 . S
C514 H538 0.950 . S
C515 C532 1.574 . S
C515 C534 1.368 . S
C515 H539 0.949 . S
H516 C520 0.949 . S
C517 C518 1.349 . S
C517 C519 1.327 . S
C517 H540 0.950 . S
C518 C517 1.349 . S
C518 C530 1.349 . S
C519 C517 1.327 . S
C519 C535 1.429 . S
C519 H541 0.950 . S
C520 H516 0.949 . S
C520 C528 1.574 . S
C520 C536 1.368 . S
H521 C529 0.950 . S
H522 C527 0.950 . S
H523 C528 0.949 . S
H524 C530 0.950 . S
H525 C531 0.950 . S
H526 C532 0.949 . S
C527 H522 0.950 . S
C527 C529 1.327 . S
C527 C533 1.429 . S
C528 C520 1.574 . S
C528 H523 0.949 . S
C528 C534 1.368 . S
C529 C513 1.349 . S
C529 H521 0.950 . S
C529 C527 1.327 . S
C530 C518 1.349 . S
C530 H524 0.950 . S
C530 C531 1.327 . S
C531 H525 0.950 . S
C531 C530 1.327 . S
C531 C535 1.429 . S
C532 C515 1.574 . S
C532 H526 0.949 . S
C532 C536 1.368 . S
C533 C514 1.429 . S
C533 C527 1.429 . S
C533 C534 1.523 . S
C534 C515 1.368 . S
C534 C528 1.368 . S
C534 C533 1.523 . S
C535 C519 1.429 . S
C535 C531 1.429 . S
C535 C536 1.523 . S
C536 C520 1.368 . S
C536 C532 1.368 . S
C536 C535 1.523 . S
H537 C512 0.950 . S
H538 C514 0.950 . S
H539 C515 0.949 . S
H540 C517 0.950 . S
H541 C519 0.950 . S
C542 C543 1.349 . S
C542 C544 1.327 . S
C542 H567 0.950 . S
C543 C542 1.349 . S
C543 C559 1.349 . S
C544 C542 1.327 . S
C544 C563 1.429 . S
C544 H568 0.950 . S
C545 C562 1.574 . S
C545 C564 1.368 . S
C545 H569 0.949 . S
H546 C550 0.949 . S
C547 C548 1.349 . S
C547 C549 1.327 . S
C547 H570 0.950 . S
C548 C547 1.349 . S
C548 C560 1.349 . S
C549 C547 1.327 . S
C549 C565 1.429 . S
C549 H571 0.950 . S
C550 H546 0.949 . S
C550 C558 1.574 . S
C550 C566 1.368 . S
H551 C559 0.950 . S
H552 C557 0.950 . S
H553 C558 0.949 . S
H554 C560 0.950 . S
H555 C561 0.950 . S
H556 C562 0.949 . S
C557 H552 0.950 . S
C557 C559 1.327 . S
C557 C563 1.429 . S
C558 C550 1.574 . S
C558 H553 0.949 . S
C558 C564 1.368 . S
C559 C543 1.349 . S
C559 H551 0.950 . S
C559 C557 1.327 . S
C560 C548 1.349 . S
C560 H554 0.950 . S
C560 C561 1.327 . S
C561 H555 0.950 . S
C561 C560 1.327 . S
C561 C565 1.429 . S
C562 C545 1.574 . S
C562 H556 0.949 . S
C562 C566 1.368 . S
C563 C544 1.429 . S
C563 C557 1.429 . S
C563 C564 1.523 . S
C564 C545 1.368 . S
C564 C558 1.368 . S
C564 C563 1.523 . S
C565 C549 1.429 . S
C565 C561 1.429 . S
C565 C566 1.523 . S
C566 C550 1.368 . S
C566 C562 1.368 . S
C566 C565 1.523 . S
H567 C542 0.950 . S
H568 C544 0.950 . S
H569 C545 0.949 . S
H570 C547 0.950 . S
H571 C549 0.950 . S
C572 C573 1.349 . S
C572 C574 1.327 . S
C572 H597 0.950 . S
C573 C572 1.349 . S
C573 C589 1.349 . S
C574 C572 1.327 . S
C574 C593 1.429 . S
C574 H598 0.950 . S
C575 C592 1.574 . S
C575 C594 1.368 . S
C575 H599 0.949 . S
H576 C580 0.949 . S
C577 C578 1.349 . S
C577 C579 1.327 . S
C577 H600 0.950 . S
C578 C577 1.349 . S
C578 C590 1.349 . S
C579 C577 1.327 . S
C579 C595 1.429 . S
C579 H601 0.950 . S
C580 H576 0.949 . S
C580 C588 1.574 . S
C580 C596 1.368 . S
H581 C589 0.950 . S
H582 C587 0.950 . S
H583 C588 0.949 . S
H584 C590 0.950 . S
H585 C591 0.950 . S
H586 C592 0.949 . S
C587 H582 0.950 . S
C587 C589 1.327 . S
C587 C593 1.429 . S
C588 C580 1.574 . S
C588 H583 0.949 . S
C588 C594 1.368 . S
C589 C573 1.349 . S
C589 H581 0.950 . S
C589 C587 1.327 . S
C590 C578 1.349 . S
C590 H584 0.950 . S
C590 C591 1.327 . S
C591 H585 0.950 . S
C591 C590 1.327 . S
C591 C595 1.429 . S
C592 C575 1.574 . S
C592 H586 0.949 . S
C592 C596 1.368 . S
C593 C574 1.429 . S
C593 C587 1.429 . S
C593 C594 1.523 . S
C594 C575 1.368 . S
C594 C588 1.368 . S
C594 C593 1.523 . S
C595 C579 1.429 . S
C595 C591 1.429 . S
C595 C596 1.523 . S
C596 C580 1.368 . S
C596 C592 1.368 . S
C596 C595 1.523 . S
H597 C572 0.950 . S
H598 C574 0.950 . S
H599 C575 0.949 . S
H600 C577 0.950 . S
H601 C579 0.950 . S
C602 C603 1.349 . S
C602 C604 1.327 . S
C602 H627 0.950 . S
C603 C602 1.349 . S
C603 C619 1.349 . S
C604 C602 1.327 . S
C604 C623 1.429 . S
C604 H628 0.950 . S
C605 C622 1.574 . S
C605 C624 1.368 . S
C605 H629 0.949 . S
H606 C610 0.949 . S
C607 C608 1.349 . S
C607 C609 1.327 . S
C607 H630 0.950 . S
C608 C607 1.349 . S
C608 C620 1.349 . S
C609 C607 1.327 . S
C609 C625 1.429 . S
C609 H631 0.950 . S
C610 H606 0.949 . S
C610 C618 1.574 . S
C610 C626 1.368 . S
H611 C619 0.950 . S
H612 C617 0.950 . S
H613 C618 0.949 . S
H614 C620 0.950 . S
H615 C621 0.950 . S
H616 C622 0.949 . S
C617 H612 0.950 . S
C617 C619 1.327 . S
C617 C623 1.429 . S
C618 C610 1.574 . S
C618 H613 0.949 . S
C618 C624 1.368 . S
C619 C603 1.349 . S
C619 H611 0.950 . S
C619 C617 1.327 . S
C620 C608 1.349 . S
C620 H614 0.950 . S
C620 C621 1.327 . S
C621 H615 0.950 . S
C621 C620 1.327 . S
C621 C625 1.429 . S
C622 C605 1.574 . S
C622 H616 0.949 . S
C622 C626 1.368 . S
C623 C604 1.429 . S
C623 C617 1.429 . S
C623 C624 1.523 . S
C624 C605 1.368 . S
C624 C618 1.368 . S
C624 C623 1.523 . S
C625 C609 1.429 . S
C625 C621 1.429 . S
C625 C626 1.523 . S
C626 C610 1.368 . S
C626 C622 1.368 . S
C626 C625 1.523 . S
H627 C602 0.950 . S
H628 C604 0.950 . S
H629 C605 0.949 . S
H630 C607 0.950 . S
H631 C609 0.950 . S
C632 C633 1.349 . S
C632 C634 1.327 . S
C632 H657 0.950 . S
C633 C632 1.349 . S
C633 C649 1.349 . S
C634 C632 1.327 . S
C634 C653 1.429 . S
C634 H658 0.950 . S
C635 C652 1.574 . S
C635 C654 1.368 . S
C635 H659 0.949 . S
H636 C640 0.949 . S
C637 C638 1.349 . S
C637 C639 1.327 . S
C637 H660 0.950 . S
C638 C637 1.349 . S
C638 C650 1.349 . S
C639 C637 1.327 . S
C639 C655 1.429 . S
C639 H661 0.950 . S
C640 H636 0.949 . S
C640 C648 1.574 . S
C640 C656 1.368 . S
H641 C649 0.950 . S
H642 C647 0.950 . S
H643 C648 0.949 . S
H644 C650 0.950 . S
H645 C651 0.950 . S
H646 C652 0.949 . S
C647 H642 0.950 . S
C647 C649 1.327 . S
C647 C653 1.429 . S
C648 C640 1.574 . S
C648 H643 0.949 . S
C648 C654 1.368 . S
C649 C633 1.349 . S
C649 H641 0.950 . S
C649 C647 1.327 . S
C650 C638 1.349 . S
C650 H644 0.950 . S
C650 C651 1.327 . S
C651 H645 0.950 . S
C651 C650 1.327 . S
C651 C655 1.429 . S
C652 C635 1.574 . S
C652 H646 0.949 . S
C652 C656 1.368 . S
C653 C634 1.429 . S
C653 C647 1.429 . S
C653 C654 1.523 . S
C654 C635 1.368 . S
C654 C648 1.368 . S
C654 C653 1.523 . S
C655 C639 1.429 . S
C655 C651 1.429 . S
C655 C656 1.523 . S
C656 C640 1.368 . S
C656 C652 1.368 . S
C656 C655 1.523 . S
H657 C632 0.950 . S
H658 C634 0.950 . S
H659 C635 0.949 . S
H660 C637 0.950 . S
H661 C639 0.950 . S
C662 C663 1.349 . S
C662 C664 1.327 . S
C662 H687 0.950 . S
C663 C662 1.349 . S
C663 C679 1.349 . S
C664 C662 1.327 . S
C664 C683 1.429 . S
C664 H688 0.950 . S
C665 C682 1.574 . S
C665 C684 1.368 . S
C665 H689 0.949 . S
H666 C670 0.949 . S
C667 C668 1.349 . S
C667 C669 1.327 . S
C667 H690 0.950 . S
C668 C667 1.349 . S
C668 C680 1.349 . S
C669 C667 1.327 . S
C669 C685 1.429 . S
C669 H691 0.950 . S
C670 H666 0.949 . S
C670 C678 1.574 . S
C670 C686 1.368 . S
H671 C679 0.950 . S
H672 C677 0.950 . S
H673 C678 0.949 . S
H674 C680 0.950 . S
H675 C681 0.950 . S
H676 C682 0.949 . S
C677 H672 0.950 . S
C677 C679 1.327 . S
C677 C683 1.429 . S
C678 C670 1.574 . S
C678 H673 0.949 . S
C678 C684 1.368 . S
C679 C663 1.349 . S
C679 H671 0.950 . S
C679 C677 1.327 . S
C680 C668 1.349 . S
C680 H674 0.950 . S
C680 C681 1.327 . S
C681 H675 0.950 . S
C681 C680 1.327 . S
C681 C685 1.429 . S
C682 C665 1.574 . S
C682 H676 0.949 . S
C682 C686 1.368 . S
C683 C664 1.429 . S
C683 C677 1.429 . S
C683 C684 1.523 . S
C684 C665 1.368 . S
C684 C678 1.368 . S
C684 C683 1.523 . S
C685 C669 1.429 . S
C685 C681 1.429 . S
C685 C686 1.523 . S
C686 C670 1.368 . S
C686 C682 1.368 . S
C686 C685 1.523 . S
H687 C662 0.950 . S
H688 C664 0.950 . S
H689 C665 0.949 . S
H690 C667 0.950 . S
H691 C669 0.950 . S
C692 C693 1.349 . S
C692 C694 1.327 . S
C692 H717 0.950 . S
C693 C692 1.349 . S
C693 C709 1.349 . S
C694 C692 1.327 . S
C694 C713 1.429 . S
C694 H718 0.950 . S
C695 C712 1.574 . S
C695 C714 1.368 . S
C695 H719 0.949 . S
H696 C700 0.949 . S
C697 C698 1.349 . S
C697 C699 1.327 . S
C697 H720 0.950 . S
C698 C697 1.349 . S
C698 C710 1.349 . S
C699 C697 1.327 . S
C699 C715 1.429 . S
C699 H721 0.950 . S
C700 H696 0.949 . S
C700 C708 1.574 . S
C700 C716 1.368 . S
H701 C709 0.950 . S
H702 C707 0.950 . S
H703 C708 0.949 . S
H704 C710 0.950 . S
H705 C711 0.950 . S
H706 C712 0.949 . S
C707 H702 0.950 . S
C707 C709 1.327 . S
C707 C713 1.429 . S
C708 C700 1.574 . S
C708 H703 0.949 . S
C708 C714 1.368 . S
C709 C693 1.349 . S
C709 H701 0.950 . S
C709 C707 1.327 . S
C710 C698 1.349 . S
C710 H704 0.950 . S
C710 C711 1.327 . S
C711 H705 0.950 . S
C711 C710 1.327 . S
C711 C715 1.429 . S
C712 C695 1.574 . S
C712 H706 0.949 . S
C712 C716 1.368 . S
C713 C694 1.429 . S
C713 C707 1.429 . S
C713 C714 1.523 . S
C714 C695 1.368 . S
C714 C708 1.368 . S
C714 C713 1.523 . S
C715 C699 1.429 . S
C715 C711 1.429 . S
C715 C716 1.523 . S
C716 C700 1.368 . S
C716 C712 1.368 . S
C716 C715 1.523 . S
H717 C692 0.950 . S
H718 C694 0.950 . S
H719 C695 0.949 . S
H720 C697 0.950 . S
H721 C699 0.950 . S
C722 C723 1.349 . S
C722 C724 1.327 . S
C722 H747 0.950 . S
C723 C722 1.349 . S
C723 C739 1.349 . S
C724 C722 1.327 . S
C724 C743 1.429 . S
C724 H748 0.950 . S
C725 C742 1.574 . S
C725 C744 1.368 . S
C725 H749 0.949 . S
H726 C730 0.949 . S
C727 C728 1.349 . S
C727 C729 1.327 . S
C727 H750 0.950 . S
C728 C727 1.349 . S
C728 C740 1.349 . S
C729 C727 1.327 . S
C729 C745 1.429 . S
C729 H751 0.950 . S
C730 H726 0.949 . S
C730 C738 1.574 . S
C730 C746 1.368 . S
H731 C739 0.950 . S
H732 C737 0.950 . S
H733 C738 0.949 . S
H734 C740 0.950 . S
H735 C741 0.950 . S
H736 C742 0.949 . S
C737 H732 0.950 . S
C737 C739 1.327 . S
C737 C743 1.429 . S
C738 C730 1.574 . S
C738 H733 0.949 . S
C738 C744 1.368 . S
C739 C723 1.349 . S
C739 H731 0.950 . S
C739 C737 1.327 . S
C740 C728 1.349 . S
C740 H734 0.950 . S
C740 C741 1.327 . S
C741 H735 0.950 . S
C741 C740 1.327 . S
C741 C745 1.429 . S
C742 C725 1.574 . S
C742 H736 0.949 . S
C742 C746 1.368 . S
C743 C724 1.429 . S
C743 C737 1.429 . S
C743 C744 1.523 . S
C744 C725 1.368 . S
C744 C738 1.368 . S
C744 C743 1.523 . S
C745 C729 1.429 . S
C745 C741 1.429 . S
C745 C746 1.523 . S
C746 C730 1.368 . S
C746 C742 1.368 . S
C746 C745 1.523 . S
H747 C722 0.950 . S
H748 C724 0.950 . S
H749 C725 0.949 . S
H750 C727 0.950 . S
H751 C729 0.950 . S
C752 C753 1.349 . S
C752 C754 1.327 . S
C752 H777 0.950 . S
C753 C752 1.349 . S
C753 C769 1.349 . S
C754 C752 1.327 . S
C754 C773 1.429 . S
C754 H778 0.950 . S
C755 C772 1.574 . S
C755 C774 1.368 . S
C755 H779 0.949 . S
H756 C760 0.949 . S
C757 C758 1.349 . S
C757 C759 1.327 . S
C757 H780 0.950 . S
C758 C757 1.349 . S
C758 C770 1.349 . S
C759 C757 1.327 . S
C759 C775 1.429 . S
C759 H781 0.950 . S
C760 H756 0.949 . S
C760 C768 1.574 . S
C760 C776 1.368 . S
H761 C769 0.950 . S
H762 C767 0.950 . S
H763 C768 0.949 . S
H764 C770 0.950 . S
H765 C771 0.950 . S
H766 C772 0.949 . S
C767 H762 0.950 . S
C767 C769 1.327 . S
C767 C773 1.429 . S
C768 C760 1.574 . S
C768 H763 0.949 . S
C768 C774 1.368 . S
C769 C753 1.349 . S
C769 H761 0.950 . S
C769 C767 1.327 . S
C770 C758 1.349 . S
C770 H764 0.950 . S
C770 C771 1.327 . S
C771 H765 0.950 . S
C771 C770 1.327 . S
C771 C775 1.429 . S
C772 C755 1.574 . S
C772 H766 0.949 . S
C772 C776 1.368 . S
C773 C754 1.429 . S
C773 C767 1.429 . S
C773 C774 1.523 . S
C774 C755 1.368 . S
C774 C768 1.368 . S
C774 C773 1.523 . S
C775 C759 1.429 . S
C775 C771 1.429 . S
C775 C776 1.523 . S
C776 C760 1.368 . S
C776 C772 1.368 . S
C776 C775 1.523 . S
H777 C752 0.950 . S
H778 C754 0.950 . S
H779 C755 0.949 . S
H780 C757 0.950 . S
H781 C759 0.950 . S
C782 C783 1.349 . S
C782 C784 1.327 . S
C782 H807 0.950 . S
C783 C782 1.349 . S
C783 C799 1.349 . S
C784 C782 1.327 . S
C784 C803 1.429 . S
C784 H808 0.950 . S
C785 C802 1.574 . S
C785 C804 1.368 . S
C785 H809 0.949 . S
H786 C790 0.949 . S
C787 C788 1.349 . S
C787 C789 1.327 . S
C787 H810 0.950 . S
C788 C787 1.349 . S
C788 C800 1.349 . S
C789 C787 1.327 . S
C789 C805 1.429 . S
C789 H811 0.950 . S
C790 H786 0.949 . S
C790 C798 1.574 . S
C790 C806 1.368 . S
H791 C799 0.950 . S
H792 C797 0.950 . S
H793 C798 0.949 . S
H794 C800 0.950 . S
H795 C801 0.950 . S
H796 C802 0.949 . S
C797 H792 0.950 . S
C797 C799 1.327 . S
C797 C803 1.429 . S
C798 C790 1.574 . S
C798 H793 0.949 . S
C798 C804 1.368 . S
C799 C783 1.349 . S
C799 H791 0.950 . S
C799 C797 1.327 . S
C800 C788 1.349 . S
C800 H794 0.950 . S
C800 C801 1.327 . S
C801 H795 0.950 . S
C801 C800 1.327 . S
C801 C805 1.429 . S
C802 C785 1.574 . S
C802 H796 0.949 . S
C802 C806 1.368 . S
C803 C784 1.429 . S
C803 C797 1.429 . S
C803 C804 1.523 . S
C804 C785 1.368 . S
C804 C798 1.368 . S
C804 C803 1.523 . S
C805 C789 1.429 . S
C805 C801 1.429 . S
C805 C806 1.523 . S
C806 C790 1.368 . S
C806 C802 1.368 . S
C806 C805 1.523 . S
H807 C782 0.950 . S
H808 C784 0.950 . S
H809 C785 0.949 . S
H810 C787 0.950 . S
H811 C789 0.950 . S
C812 C813 1.349 . S
C812 C814 1.327 . S
C812 H837 0.950 . S
C813 C812 1.349 . S
C813 C829 1.349 . S
C814 C812 1.327 . S
C814 C833 1.429 . S
C814 H838 0.950 . S
C815 C832 1.574 . S
C815 C834 1.368 . S
C815 H839 0.949 . S
H816 C820 0.949 . S
C817 C818 1.349 . S
C817 C819 1.327 . S
C817 H840 0.950 . S
C818 C817 1.349 . S
C818 C830 1.349 . S
C819 C817 1.327 . S
C819 C835 1.429 . S
C819 H841 0.950 . S
C820 H816 0.949 . S
C820 C828 1.574 . S
C820 C836 1.368 . S
H821 C829 0.950 . S
H822 C827 0.950 . S
H823 C828 0.949 . S
H824 C830 0.950 . S
H825 C831 0.950 . S
H826 C832 0.949 . S
C827 H822 0.950 . S
C827 C829 1.327 . S
C827 C833 1.429 . S
C828 C820 1.574 . S
C828 H823 0.949 . S
C828 C834 1.368 . S
C829 C813 1.349 . S
C829 H821 0.950 . S
C829 C827 1.327 . S
C830 C818 1.349 . S
C830 H824 0.950 . S
C830 C831 1.327 . S
C831 H825 0.950 . S
C831 C830 1.327 . S
C831 C835 1.429 . S
C832 C815 1.574 . S
C832 H826 0.949 . S
C832 C836 1.368 . S
C833 C814 1.429 . S
C833 C827 1.429 . S
C833 C834 1.523 . S
C834 C815 1.368 . S
C834 C828 1.368 . S
C834 C833 1.523 . S
C835 C819 1.429 . S
C835 C831 1.429 . S
C835 C836 1.523 . S
C836 C820 1.368 . S
C836 C832 1.368 . S
C836 C835 1.523 . S
H837 C812 0.950 . S
H838 C814 0.950 . S
H839 C815 0.949 . S
H840 C817 0.950 . S
H841 C819 0.950 . S
C842 C843 1.349 . S
C842 C844 1.327 . S
C842 H867 0.950 . S
C843 C842 1.349 . S
C843 C859 1.349 . S
C844 C842 1.327 . S
C844 C863 1.429 . S
C844 H868 0.950 . S
C845 C862 1.574 . S
C845 C864 1.368 . S
C845 H869 0.949 . S
H846 C850 0.949 . S
C847 C848 1.349 . S
C847 C849 1.327 . S
C847 H870 0.950 . S
C848 C847 1.349 . S
C848 C860 1.349 . S
C849 C847 1.327 . S
C849 C865 1.429 . S
C849 H871 0.950 . S
C850 H846 0.949 . S
C850 C858 1.574 . S
C850 C866 1.368 . S
H851 C859 0.950 . S
H852 C857 0.950 . S
H853 C858 0.949 . S
H854 C860 0.950 . S
H855 C861 0.950 . S
H856 C862 0.949 . S
C857 H852 0.950 . S
C857 C859 1.327 . S
C857 C863 1.429 . S
C858 C850 1.574 . S
C858 H853 0.949 . S
C858 C864 1.368 . S
C859 C843 1.349 . S
C859 H851 0.950 . S
C859 C857 1.327 . S
C860 C848 1.349 . S
C860 H854 0.950 . S
C860 C861 1.327 . S
C861 H855 0.950 . S
C861 C860 1.327 . S
C861 C865 1.429 . S
C862 C845 1.574 . S
C862 H856 0.949 . S
C862 C866 1.368 . S
C863 C844 1.429 . S
C863 C857 1.429 . S
C863 C864 1.523 . S
C864 C845 1.368 . S
C864 C858 1.368 . S
C864 C863 1.523 . S
C865 C849 1.429 . S
C865 C861 1.429 . S
C865 C866 1.523 . S
C866 C850 1.368 . S
C866 C862 1.368 . S
C866 C865 1.523 . S
H867 C842 0.950 . S
H868 C844 0.950 . S
H869 C845 0.949 . S
H870 C847 0.950 . S
H871 C849 0.950 . S
C153 C5 1.471 . S
C158 C91 1.445 . S
C183 C14 1.289 . S
C188 C94 1.238 . S
C218 C130 1.728 . S
C213 C25 1.761 . S
C243 C34 1.643 . S
C248 C150 1.613 . S
C278 C104 1.665 . S
C273 C7 1.696 . S
C308 C81 1.528 . S
C303 C13 1.553 . S
C338 C134 1.532 . S
C333 C23 1.638 . S
C368 C114 1.338 . S
C363 C31 1.410 . S
C393 C4 1.332 . S
C398 C144 1.288 . S
C428 C110 1.599 . S
C423 C22 1.624 . S
C453 C32 1.632 . S
C458 C76 1.564 . S
C483 C16 1.334 . S
C488 C124 1.303 . S
C518 C90 1.430 . S
C513 C41 1.455 . S
C543 C50 1.297 . S
C548 C96 1.246 . S
C573 C61 1.759 . S
C578 C131 1.725 . S
C603 C67 1.655 . S
C608 C151 1.626 . S
C633 C40 1.714 . S
C638 C101 1.684 . S
C668 C84 1.504 . S
C663 C52 1.529 . S
C698 C136 1.538 . S
C693 C59 1.645 . S
C728 C116 1.334 . S
C723 C70 1.405 . S
C753 C43 1.328 . S
C758 C141 1.284 . S
C788 C111 1.608 . S
C783 C58 1.634 . S
C818 C74 1.549 . S
C813 C68 1.616 . S
C843 C49 1.343 . S
C848 C121 1.312 . S
