# Generated by pormake.
# Topology eea, (3,6)-cn, num edge types: 1
# Building blocks:
#     Node 0, Type 0, BuildingBlock: BETDAH_clean_linker_0, # of connection points: 3
#     Node 1, Type 0, BuildingBlock: BETDAH_clean_linker_0, # of connection points: 3
#     Node 2, Type 0, BuildingBlock: BETDAH_clean_linker_0, # of connection points: 3
#     Node 3, Type 0, BuildingBlock: BETDAH_clean_linker_0, # of connection points: 3
#     Node 4, Type 0, BuildingBlock: BETDAH_clean_linker_0, # of connection points: 3
#     Node 5, Type 0, BuildingBlock: BETDAH_clean_linker_0, # of connection points: 3
#     Node 6, Type 0, BuildingBlock: BETDAH_clean_linker_0, # of connection points: 3
#     Node 7, Type 0, BuildingBlock: BETDAH_clean_linker_0, # of connection points: 3
#     Node 8, Type 0, BuildingBlock: BETDAH_clean_linker_0, # of connection points: 3
#     Node 9, Type 0, BuildingBlock: BETDAH_clean_linker_0, # of connection points: 3
#     Node 10, Type 0, BuildingBlock: BETDAH_clean_linker_0, # of connection points: 3
#     Node 11, Type 0, BuildingBlock: BETDAH_clean_linker_0, # of connection points: 3
#     Node 12, Type 0, BuildingBlock: BETDAH_clean_linker_0, # of connection points: 3
#     Node 13, Type 0, BuildingBlock: BETDAH_clean_linker_0, # of connection points: 3
#     Node 14, Type 0, BuildingBlock: BETDAH_clean_linker_0, # of connection points: 3
#     Node 15, Type 0, BuildingBlock: BETDAH_clean_linker_0, # of connection points: 3
#     Node 16, Type 0, BuildingBlock: BETDAH_clean_linker_0, # of connection points: 3
#     Node 17, Type 0, BuildingBlock: BETDAH_clean_linker_0, # of connection points: 3
#     Node 18, Type 1, BuildingBlock: KUMBOL_clean_sbu_0, # of connection points: 6
#     Node 19, Type 1, BuildingBlock: KUMBOL_clean_sbu_0, # of connection points: 6
#     Node 20, Type 1, BuildingBlock: KUMBOL_clean_sbu_0, # of connection points: 6
#     Node 21, Type 1, BuildingBlock: KUMBOL_clean_sbu_0, # of connection points: 6
#     Node 22, Type 1, BuildingBlock: KUMBOL_clean_sbu_0, # of connection points: 6
#     Node 23, Type 1, BuildingBlock: KUMBOL_clean_sbu_0, # of connection points: 6
#     Node 24, Type 1, BuildingBlock: KUMBOL_clean_sbu_0, # of connection points: 6
#     Node 25, Type 1, BuildingBlock: KUMBOL_clean_sbu_0, # of connection points: 6
#     Node 26, Type 1, BuildingBlock: KUMBOL_clean_sbu_0, # of connection points: 6
#     Edge 27, Type (0, 1), BuildingBlock: AJUNOK_clean_linker_0, # of connection points: 2
#     Edge 28, Type (0, 1), BuildingBlock: AJUNOK_clean_linker_0, # of connection points: 2
#     Edge 29, Type (0, 1), BuildingBlock: AJUNOK_clean_linker_0, # of connection points: 2
#     Edge 30, Type (0, 1), BuildingBlock: AJUNOK_clean_linker_0, # of connection points: 2
#     Edge 31, Type (0, 1), BuildingBlock: AJUNOK_clean_linker_0, # of connection points: 2
#     Edge 32, Type (0, 1), BuildingBlock: AJUNOK_clean_linker_0, # of connection points: 2
#     Edge 33, Type (0, 1), BuildingBlock: AJUNOK_clean_linker_0, # of connection points: 2
#     Edge 34, Type (0, 1), BuildingBlock: AJUNOK_clean_linker_0, # of connection points: 2
#     Edge 35, Type (0, 1), BuildingBlock: AJUNOK_clean_linker_0, # of connection points: 2
#     Edge 36, Type (0, 1), BuildingBlock: AJUNOK_clean_linker_0, # of connection points: 2
#     Edge 37, Type (0, 1), BuildingBlock: AJUNOK_clean_linker_0, # of connection points: 2
#     Edge 38, Type (0, 1), BuildingBlock: AJUNOK_clean_linker_0, # of connection points: 2
#     Edge 39, Type (0, 1), BuildingBlock: AJUNOK_clean_linker_0, # of connection points: 2
#     Edge 40, Type (0, 1), BuildingBlock: AJUNOK_clean_linker_0, # of connection points: 2
#     Edge 41, Type (0, 1), BuildingBlock: AJUNOK_clean_linker_0, # of connection points: 2
#     Edge 42, Type (0, 1), BuildingBlock: AJUNOK_clean_linker_0, # of connection points: 2
#     Edge 43, Type (0, 1), BuildingBlock: AJUNOK_clean_linker_0, # of connection points: 2
#     Edge 44, Type (0, 1), BuildingBlock: AJUNOK_clean_linker_0, # of connection points: 2
#     Edge 45, Type (0, 1), BuildingBlock: AJUNOK_clean_linker_0, # of connection points: 2
#     Edge 46, Type (0, 1), BuildingBlock: AJUNOK_clean_linker_0, # of connection points: 2
#     Edge 47, Type (0, 1), BuildingBlock: AJUNOK_clean_linker_0, # of connection points: 2
#     Edge 48, Type (0, 1), BuildingBlock: AJUNOK_clean_linker_0, # of connection points: 2
#     Edge 49, Type (0, 1), BuildingBlock: AJUNOK_clean_linker_0, # of connection points: 2
#     Edge 50, Type (0, 1), BuildingBlock: AJUNOK_clean_linker_0, # of connection points: 2
#     Edge 51, Type (0, 1), BuildingBlock: AJUNOK_clean_linker_0, # of connection points: 2
#     Edge 52, Type (0, 1), BuildingBlock: AJUNOK_clean_linker_0, # of connection points: 2
#     Edge 53, Type (0, 1), BuildingBlock: AJUNOK_clean_linker_0, # of connection points: 2
#     Edge 54, Type (0, 1), BuildingBlock: AJUNOK_clean_linker_0, # of connection points: 2
#     Edge 55, Type (0, 1), BuildingBlock: AJUNOK_clean_linker_0, # of connection points: 2
#     Edge 56, Type (0, 1), BuildingBlock: AJUNOK_clean_linker_0, # of connection points: 2
#     Edge 57, Type (0, 1), BuildingBlock: AJUNOK_clean_linker_0, # of connection points: 2
#     Edge 58, Type (0, 1), BuildingBlock: AJUNOK_clean_linker_0, # of connection points: 2
#     Edge 59, Type (0, 1), BuildingBlock: AJUNOK_clean_linker_0, # of connection points: 2
#     Edge 60, Type (0, 1), BuildingBlock: AJUNOK_clean_linker_0, # of connection points: 2
#     Edge 61, Type (0, 1), BuildingBlock: AJUNOK_clean_linker_0, # of connection points: 2
#     Edge 62, Type (0, 1), BuildingBlock: AJUNOK_clean_linker_0, # of connection points: 2
#     Edge 63, Type (0, 1), BuildingBlock: AJUNOK_clean_linker_0, # of connection points: 2
#     Edge 64, Type (0, 1), BuildingBlock: AJUNOK_clean_linker_0, # of connection points: 2
#     Edge 65, Type (0, 1), BuildingBlock: AJUNOK_clean_linker_0, # of connection points: 2
#     Edge 66, Type (0, 1), BuildingBlock: AJUNOK_clean_linker_0, # of connection points: 2
#     Edge 67, Type (0, 1), BuildingBlock: AJUNOK_clean_linker_0, # of connection points: 2
#     Edge 68, Type (0, 1), BuildingBlock: AJUNOK_clean_linker_0, # of connection points: 2
#     Edge 69, Type (0, 1), BuildingBlock: AJUNOK_clean_linker_0, # of connection points: 2
#     Edge 70, Type (0, 1), BuildingBlock: AJUNOK_clean_linker_0, # of connection points: 2
#     Edge 71, Type (0, 1), BuildingBlock: AJUNOK_clean_linker_0, # of connection points: 2
#     Edge 72, Type (0, 1), BuildingBlock: AJUNOK_clean_linker_0, # of connection points: 2
#     Edge 73, Type (0, 1), BuildingBlock: AJUNOK_clean_linker_0, # of connection points: 2
#     Edge 74, Type (0, 1), BuildingBlock: AJUNOK_clean_linker_0, # of connection points: 2
#     Edge 75, Type (0, 1), BuildingBlock: AJUNOK_clean_linker_0, # of connection points: 2
#     Edge 76, Type (0, 1), BuildingBlock: AJUNOK_clean_linker_0, # of connection points: 2
#     Edge 77, Type (0, 1), BuildingBlock: AJUNOK_clean_linker_0, # of connection points: 2
#     Edge 78, Type (0, 1), BuildingBlock: AJUNOK_clean_linker_0, # of connection points: 2
#     Edge 79, Type (0, 1), BuildingBlock: AJUNOK_clean_linker_0, # of connection points: 2
#     Edge 80, Type (0, 1), BuildingBlock: AJUNOK_clean_linker_0, # of connection points: 2
# Relax obj value: 0.024
# Max RMSD: 0.183
# Mean RMSD: 0.129
data_MOF--net-eea--node1-KUMBOL_clean_sbu_0--node2-BETDAH_clean_linker_0--edge1-AJUNOK_clean_linker_0
_symmetry_space_group_name_H-M    P1
_symmetry_Int_Tables_number       1
_symmetry_cell_setting            triclinic
loop_
_symmetry_equiv_pos_as_xyz
'x, y, z'
_cell_length_a     39.702926
_cell_length_b     40.996572
_cell_length_c     51.817999
_cell_angle_alpha  89.818563
_cell_angle_beta   89.900392
_cell_angle_gamma 119.90213
loop_
_atom_site_label
_atom_site_type_symbol
_atom_site_fract_x
_atom_site_fract_y
_atom_site_fract_z
_atom_type_partial_charge
H0 H 0.26158 0.05678 0.44618 0.0
H1 H 0.28412 0.16913 0.43014 0.0
H2 H 0.24084 0.08593 0.3704 0.0
C3 C 0.26129 0.07717 0.43293 0.0
C4 C 0.24923 0.06666 0.40736 0.0
C5 C 0.27446 0.11415 0.44139 0.0
C6 C 0.27297 0.1402 0.42429 0.0
C7 C 0.26028 0.12968 0.39876 0.0
C8 C 0.24898 0.09324 0.39041 0.0
N9 N 0.26297 0.15631 0.38022 0.0
C10 C 0.2482 0.18032 0.38395 0.0
H11 H 0.95403 0.20938 0.43952 0.0
H12 H 0.85154 0.10134 0.42647 0.0
H13 H 0.93923 0.15167 0.36776 0.0
C14 C 0.93712 0.185 0.4275 0.0
C15 C 0.95178 0.18314 0.40309 0.0
C16 C 0.90057 0.1559 0.43622 0.0
C17 C 0.8792 0.12442 0.42009 0.0
C18 C 0.89287 0.12336 0.39524 0.0
C19 C 0.92899 0.1526 0.38702 0.0
N20 N 0.87023 0.0949 0.37712 0.0
C21 C 0.84087 0.05843 0.38271 0.0
H22 H 0.81143 0.75274 0.43987 0.0
H23 H 0.92826 0.77243 0.43059 0.0
H24 H 0.87789 0.80993 0.37236 0.0
C25 C 0.83809 0.76391 0.42874 0.0
C26 C 0.84082 0.78201 0.4051 0.0
C27 C 0.86928 0.76015 0.43828 0.0
C28 C 0.90389 0.77469 0.42344 0.0
C29 C 0.90705 0.79288 0.3996 0.0
C30 C 0.87545 0.79627 0.39077 0.0
N31 N 0.94119 0.80883 0.38381 0.0
C32 C 0.97515 0.80702 0.38726 0.0
H33 H 0.0606 0.25252 0.60373 0.0
H34 H 0.15321 0.22721 0.61331 0.0
H35 H 0.06351 0.19205 0.67087 0.0
C36 C 0.07449 0.24008 0.61481 0.0
C37 C 0.05758 0.22194 0.63845 0.0
C38 C 0.10928 0.24268 0.60544 0.0
C39 C 0.12713 0.22644 0.62032 0.0
C40 C 0.11082 0.20838 0.64403 0.0
C41 C 0.07592 0.20588 0.65262 0.0
N42 N 0.12804 0.19201 0.65985 0.0
C43 C 0.16498 0.19587 0.65723 0.0
H44 H 0.75376 0.80958 0.60318 0.0
H45 H 0.78655 0.92711 0.60339 0.0
H46 H 0.83391 0.88453 0.65972 0.0
C47 C 0.76996 0.83748 0.61141 0.0
C48 C 0.79353 0.84322 0.63313 0.0
C49 C 0.76668 0.86745 0.60059 0.0
C50 C 0.78758 0.90344 0.61187 0.0
C51 C 0.81153 0.90935 0.63333 0.0
C52 C 0.81463 0.8794 0.64354 0.0
N53 N 0.83465 0.94537 0.64443 0.0
C54 C 0.82502 0.97362 0.64517 0.0
H55 H 0.20333 0.94932 0.60315 0.0
H56 H 0.09106 0.84885 0.61032 0.0
H57 H 0.1267 0.93849 0.66526 0.0
C58 C 0.17584 0.9332 0.61316 0.0
C59 C 0.16855 0.94831 0.63539 0.0
C60 C 0.14835 0.89728 0.60388 0.0
C61 C 0.11247 0.87645 0.61714 0.0
C62 C 0.10492 0.89148 0.63951 0.0
C63 C 0.13296 0.92712 0.64822 0.0
N64 N 0.06983 0.87267 0.65412 0.0
C65 C 0.0391 0.83598 0.65158 0.0
H66 H 0.92742 0.39297 0.77683 0.0
H67 H 0.95812 0.50834 0.76305 0.0
H68 H 0.91395 0.42888 0.70132 0.0
C69 C 0.92913 0.41468 0.76399 0.0
C70 C 0.91731 0.40578 0.73817 0.0
C71 C 0.9442 0.45162 0.77325 0.0
C72 C 0.94543 0.47947 0.75663 0.0
C73 C 0.93365 0.47082 0.73083 0.0
C74 C 0.92062 0.43444 0.72165 0.0
N75 N 0.93993 0.49934 0.71283 0.0
C76 C 0.92288 0.52172 0.71468 0.0
H77 H 0.62725 0.54542 0.77618 0.0
H78 H 0.52552 0.43636 0.76548 0.0
H79 H 0.61478 0.48244 0.70725 0.0
C80 C 0.61066 0.52038 0.76467 0.0
C81 C 0.62578 0.51722 0.7408 0.0
C82 C 0.57442 0.49143 0.77383 0.0
C83 C 0.55361 0.45857 0.7589 0.0
C84 C 0.56831 0.45544 0.73483 0.0
C85 C 0.60412 0.48476 0.72605 0.0
N86 N 0.54753 0.42446 0.718 0.0
C87 C 0.51523 0.38976 0.72392 0.0
H88 H 0.47294 0.08849 0.77417 0.0
H89 H 0.58488 0.09763 0.76166 0.0
H90 H 0.53574 0.13738 0.70389 0.0
C91 C 0.49861 0.09738 0.76231 0.0
C92 C 0.50082 0.11406 0.73815 0.0
C93 C 0.52891 0.09174 0.77127 0.0
C94 C 0.56173 0.10237 0.75521 0.0
C95 C 0.56436 0.11907 0.73083 0.0
C96 C 0.53389 0.12488 0.72269 0.0
N97 N 0.59618 0.12977 0.7134 0.0
C98 C 0.63121 0.13013 0.71758 0.0
H99 H 0.72341 0.58529 0.93657 0.0
H100 H 0.8222 0.56924 0.94597 0.0
H101 H 0.73276 0.52969 1.00432 0.0
C102 C 0.73932 0.5752 0.94789 0.0
C103 C 0.72387 0.55746 0.97182 0.0
C104 C 0.77486 0.5799 0.93828 0.0
C105 C 0.79478 0.5656 0.95293 0.0
C106 C 0.77957 0.54738 0.97683 0.0
C107 C 0.74411 0.54327 0.98584 0.0
N108 N 0.79863 0.53307 0.99284 0.0
C109 C 0.83495 0.53582 0.98929 0.0
H110 H 0.4135 0.13746 0.93751 0.0
H111 H 0.41928 0.24403 0.95093 0.0
H112 H 0.46162 0.1976 1.00796 0.0
C113 C 0.42252 0.1623 0.94917 0.0
C114 C 0.44004 0.16478 0.97323 0.0
C115 C 0.41535 0.19101 0.94056 0.0
C116 C 0.42491 0.22188 0.95696 0.0
C117 C 0.44083 0.22353 0.98148 0.0
C118 C 0.44841 0.19527 0.98926 0.0
N119 N 0.44833 0.25218 0.99956 0.0
C120 C 0.45531 0.28805 0.99372 0.0
H121 H 0.86328 0.28269 0.93512 0.0
H122 H 0.75066 0.18349 0.94447 0.0
H123 H 0.79452 0.26955 1.00254 0.0
C124 C 0.83651 0.26686 0.94596 0.0
C125 C 0.83231 0.28086 0.96974 0.0
C126 C 0.807 0.23222 0.93624 0.0
C127 C 0.77338 0.21038 0.95148 0.0
C128 C 0.76917 0.22398 0.97561 0.0
C129 C 0.79847 0.25908 0.98425 0.0
N130 N 0.73616 0.20423 0.99201 0.0
C131 C 0.70418 0.16847 0.9886 0.0
H132 H 0.58796 0.72171 0.1103 0.0
H133 H 0.6152 0.836 0.09583 0.0
H134 H 0.57202 0.75498 0.03473 0.0
C135 C 0.58824 0.74287 0.09756 0.0
C136 C 0.57638 0.73342 0.07185 0.0
C137 C 0.60222 0.77977 0.10656 0.0
C138 C 0.60365 0.80723 0.08945 0.0
C139 C 0.59244 0.79801 0.0636 0.0
C140 C 0.57921 0.76138 0.05494 0.0
N141 N 0.59843 0.82588 0.04516 0.0
C142 C 0.58455 0.85073 0.04794 0.0
H143 H 0.29286 0.87595 0.10874 0.0
H144 H 0.19966 0.76072 0.10588 0.0
H145 H 0.28886 0.8033 0.04771 0.0
C146 C 0.27841 0.84885 0.09925 0.0
C147 C 0.29509 0.84349 0.07679 0.0
C148 C 0.24381 0.81931 0.10993 0.0
C149 C 0.22608 0.78377 0.09787 0.0
C150 C 0.24275 0.77808 0.07555 0.0
C151 C 0.27691 0.8079 0.06525 0.0
N152 N 0.22711 0.74265 0.06314 0.0
C153 C 0.1889 0.71325 0.0646 0.0
H154 H 0.14055 0.42662 0.1091 0.0
H155 H 0.25521 0.4407 0.10019 0.0
H156 H 0.2102 0.48604 0.04334 0.0
C157 C 0.16729 0.43699 0.09816 0.0
C158 C 0.17127 0.45618 0.07482 0.0
C159 C 0.19686 0.43053 0.10747 0.0
C160 C 0.23223 0.44546 0.0934 0.0
C161 C 0.23725 0.4659 0.07024 0.0
C162 C 0.20668 0.47111 0.06135 0.0
N163 N 0.27189 0.48162 0.05488 0.0
C164 C 0.30441 0.477 0.05731 0.0
H165 H 0.39616 0.91544 0.2705 0.0
H166 H 0.48889 0.8899 0.27854 0.0
H167 H 0.40012 0.85421 0.33683 0.0
C168 C 0.41022 0.90282 0.2812 0.0
C169 C 0.39372 0.88444 0.30484 0.0
C170 C 0.44478 0.90542 0.27136 0.0
C171 C 0.46293 0.88907 0.28586 0.0
C172 C 0.44699 0.87079 0.30959 0.0
C173 C 0.41226 0.86822 0.31857 0.0
N174 N 0.46434 0.8542 0.32507 0.0
C175 C 0.50121 0.85795 0.32225 0.0
H176 H 0.08959 0.47411 0.26785 0.0
H177 H 0.09515 0.58032 0.28199 0.0
H178 H 0.13107 0.53018 0.34051 0.0
C179 C 0.09675 0.49779 0.28031 0.0
C180 C 0.11189 0.49878 0.30504 0.0
C181 C 0.09015 0.52687 0.27176 0.0
C182 C 0.09982 0.55766 0.28824 0.0
C183 C 0.11496 0.55871 0.31296 0.0
C184 C 0.12032 0.52924 0.32114 0.0
N185 N 0.1246 0.58827 0.33071 0.0
C186 C 0.12562 0.62198 0.32572 0.0
H187 H 0.52976 0.61458 0.26883 0.0
H188 H 0.42683 0.50725 0.28267 0.0
H189 H 0.4733 0.59 0.34286 0.0
C190 C 0.50625 0.59565 0.28144 0.0
C191 C 0.50481 0.60696 0.30685 0.0
C192 C 0.47841 0.55975 0.27237 0.0
C193 C 0.44811 0.53511 0.28917 0.0
C194 C 0.4461 0.54637 0.31459 0.0
C195 C 0.47452 0.58201 0.3231 0.0
N196 N 0.41761 0.52247 0.33294 0.0
C197 C 0.38222 0.49014 0.32804 0.0
Gd198 Gd 0.51275 0.02073 0.05448 0.0
Gd199 Gd 0.48451 0.97991 0.9884 0.0
C200 C 0.36471 0.87472 0.98143 0.0
C201 C 0.3813 0.82731 0.96903 0.0
C202 C 0.432 0.89233 0.97493 0.0
C203 C 0.40455 0.902 0.98159 0.0
C204 C 0.42069 0.85518 0.96762 0.0
C205 C 0.35333 0.83706 0.97599 0.0
C206 C 0.33754 0.88639 0.98569 0.0
C207 C 0.35035 0.92464 0.98869 0.0
N208 N 0.41669 0.93871 0.98634 0.0
C209 C 0.39022 0.95062 0.98857 0.0
H210 H 0.39953 0.97998 0.99119 0.0
C211 C 0.49679 0.91356 0.96221 0.0
N212 N 0.46957 0.92006 0.97349 0.0
C213 C 0.4872 0.87713 0.95487 0.0
C214 C 0.44909 0.84762 0.95807 0.0
H215 H 0.52624 0.93644 0.9597 0.0
H216 H 0.3229 0.81558 0.97615 0.0
H217 H 0.5985 0.02198 0.0528 0.0
H218 H 0.30666 0.86633 0.9858 0.0
H219 H 0.32955 0.93413 0.99129 0.0
H220 H 0.37205 0.79846 0.96388 0.0
H221 H 0.46683 0.06345 0.07836 0.0
H222 H 0.68965 0.13479 0.06517 0.0
H223 H 0.66803 0.06797 0.05629 0.0
H224 H 0.62134 0.20031 0.08568 0.0
H225 H 0.50915 0.87187 0.94673 0.0
H226 H 0.44163 0.81946 0.95222 0.0
H227 H 0.67195 0.18417 0.07576 0.0
H228 H 0.48229 0.12697 0.09254 0.0
N229 N 0.58016 0.06219 0.05896 0.0
C230 C 0.6589 0.11465 0.06369 0.0
C231 C 0.64681 0.07695 0.05876 0.0
C232 C 0.63111 0.12565 0.06747 0.0
C233 C 0.59146 0.09833 0.06516 0.0
C234 C 0.60712 0.05087 0.0568 0.0
N235 N 0.5255 0.07986 0.06952 0.0
C236 C 0.56316 0.10748 0.07058 0.0
C237 C 0.50532 0.12195 0.08626 0.0
C238 C 0.54385 0.15126 0.0861 0.0
C239 C 0.49667 0.08604 0.07828 0.0
C240 C 0.57344 0.14408 0.07865 0.0
H241 H 0.55052 0.17902 0.09242 0.0
O242 O 0.47859 0.00231 0.09004 0.0
O243 O 0.4679 0.97469 0.03024 0.0
O244 O 0.46768 0.02434 0.9956 0.0
O245 O 0.50308 0.06174 0.03069 0.0
O246 O 0.44887 0.00021 0.0563 0.0
O247 O 0.53097 0.99929 0.087 0.0
O248 O 0.51729 0.99768 0.95234 0.0
O249 O 0.52894 0.02506 1.01295 0.0
O250 O 0.53153 0.97744 0.04691 0.0
O251 O 0.50037 0.94199 1.01005 0.0
O252 O 0.54934 0.00385 0.98477 0.0
O253 O 0.46434 0.99967 0.95605 0.0
C254 C 0.43782 0.97328 0.03987 0.0
C255 C 0.61284 0.1719 0.0798 0.0
C256 C 0.64164 0.1627 0.07417 0.0
C257 C 0.50226 0.9941 0.10195 0.0
C258 C 0.51196 0.00723 0.12901 0.0
C259 C 0.53552 0.04572 0.13394 0.0
C260 C 0.49745 0.98158 0.1501 0.0
C261 C 0.50683 0.99457 0.17589 0.0
C262 C 0.54423 0.05874 0.15923 0.0
C263 C 0.52993 0.03357 0.17997 0.0
C264 C 0.48148 0.05517 1.00975 0.0
C265 C 0.55958 0.02876 1.00269 0.0
C266 C 0.49275 0.00496 0.94076 0.0
C267 C 0.48257 0.99145 0.91391 0.0
C268 C 0.45686 0.95329 0.90911 0.0
C269 C 0.4989 0.01671 0.89285 0.0
C270 C 0.48937 0.00386 0.86709 0.0
C271 C 0.44753 0.94036 0.88382 0.0
C272 C 0.46353 0.96529 0.86303 0.0
C273 C 0.52161 0.94866 0.03112 0.0
H274 H 0.54702 0.0658 0.11822 0.0
H275 H 0.47933 0.95175 0.14643 0.0
H276 H 0.56207 0.0886 0.16279 0.0
H277 H 0.53665 0.04481 0.19935 0.0
H278 H 0.44397 0.93351 0.92492 0.0
H279 H 0.51919 0.04613 0.89658 0.0
H280 H 0.42756 0.91084 0.8803 0.0
H281 H 0.45508 0.95438 0.84367 0.0
Gd282 Gd 0.98256 0.48839 0.05626 0.0
Gd283 Gd 0.03022 0.50712 0.99242 0.0
C284 C 0.137 0.49274 0.98658 0.0
C285 C 0.1886 0.55684 0.97842 0.0
C286 C 0.12167 0.54275 0.98273 0.0
C287 C 0.10977 0.50532 0.98709 0.0
C288 C 0.161 0.56873 0.9774 0.0
C289 C 0.17662 0.51889 0.98306 0.0
C290 C 0.12346 0.45414 0.98875 0.0
C291 C 0.08356 0.42908 0.99023 0.0
N292 N 0.07124 0.48082 0.99015 0.0
C293 C 0.05769 0.44292 0.99059 0.0
H294 H 0.02705 0.42307 0.99206 0.0
C295 C 0.10333 0.58787 0.97229 0.0
N296 N 0.09418 0.55309 0.98147 0.0
C297 C 0.142 0.6148 0.96705 0.0
C298 C 0.1711 0.60541 0.9701 0.0
H299 H 0.08078 0.59509 0.96994 0.0
H300 H 0.19803 0.50984 0.98301 0.0
H301 H 0.97601 0.56715 0.05519 0.0
H302 H 0.14342 0.44335 0.98855 0.0
H303 H 0.07269 0.3991 0.99135 0.0
H304 H 0.21906 0.57649 0.97476 0.0
H305 H 0.94149 0.40082 0.07984 0.0
H306 H 0.85667 0.53613 0.06433 0.0
H307 H 0.92542 0.585 0.05783 0.0
H308 H 0.79421 0.40389 0.08239 0.0
H309 H 0.1493 0.64273 0.96064 0.0
H310 H 0.201 0.62622 0.96584 0.0
H311 H 0.8077 0.46822 0.07296 0.0
H312 H 0.8762 0.34948 0.09233 0.0
N313 N 0.93644 0.50846 0.05957 0.0
C314 C 0.87882 0.52809 0.06327 0.0
C315 C 0.91759 0.55575 0.05968 0.0
C316 C 0.86931 0.49055 0.06639 0.0
C317 C 0.89926 0.48162 0.06474 0.0
C318 C 0.94626 0.54545 0.05821 0.0
N319 N 0.92179 0.43887 0.06988 0.0
C320 C 0.89165 0.44556 0.06999 0.0
C321 C 0.88008 0.3763 0.08592 0.0
C322 C 0.84826 0.38202 0.0846 0.0
C323 C 0.91699 0.40541 0.0789 0.0
C324 C 0.85393 0.41724 0.07708 0.0
H325 H 0.81973 0.35949 0.09018 0.0
O326 O 1.00157 0.47486 0.09203 0.0
O327 O 0.03321 0.49376 0.03382 0.0
O328 O 0.98256 0.44592 0.99597 0.0
O329 O 0.94339 0.43785 0.03205 0.0
O330 O 1.00629 0.44882 0.05902 0.0
O331 O 0.99769 0.52545 0.08943 0.0
O332 O 0.02089 0.52715 0.95571 0.0
O333 O 0.97995 0.50197 0.01484 0.0
O334 O 0.02658 0.55081 0.05118 0.0
O335 O 0.06838 0.55676 0.01731 0.0
O336 O 1.00487 0.54575 0.98875 0.0
O337 O 0.01224 0.47083 0.95882 0.0
C338 C 0.03498 0.46605 0.04319 0.0
C339 C 0.82351 0.42539 0.07731 0.0
C340 C 0.83119 0.46201 0.07196 0.0
C341 C 1.005 0.50401 0.10425 0.0
C342 C 0.98899 0.49709 0.1306 0.0
C343 C 0.94877 0.4787 0.13476 0.0
C344 C 0.01427 0.50795 0.15186 0.0
C345 C 0.99949 0.49954 0.1773 0.0
C346 C 0.93388 0.47068 0.15982 0.0
C347 C 0.95892 0.48078 0.18092 0.0
C348 C 0.95095 0.42598 1.01022 0.0
C349 C 0.97663 0.52855 1.00495 0.0
C350 C 0.01277 0.49638 0.9435 0.0
C351 C 0.0317 0.50104 0.91828 0.0
C352 C 0.07193 0.51556 0.91654 0.0
C353 C 0.00923 0.49066 0.89566 0.0
C354 C 0.02692 0.49489 0.87134 0.0
C355 C 0.08964 0.51997 0.89252 0.0
C356 C 0.06738 0.50972 0.87006 0.0
C357 C 0.05922 0.56998 0.03776 0.0
H358 H 0.92891 0.47038 0.11868 0.0
H359 H 0.04536 0.52302 0.14849 0.0
H360 H 0.90277 0.45624 0.16292 0.0
H361 H 0.94644 0.47341 0.20012 0.0
H362 H 0.08961 0.52334 0.93368 0.0
H363 H 0.97801 0.47868 0.89706 0.0
H364 H 0.12073 0.53128 0.89131 0.0
H365 H 0.08182 0.51347 0.85163 0.0
Gd366 Gd 0.49962 0.52062 0.98932 0.0
Gd367 Gd 0.52813 0.50531 0.05391 0.0
C368 C 0.64329 0.50797 0.06654 0.0
C369 C 0.62177 0.44281 0.07763 0.0
C370 C 0.57452 0.46273 0.06906 0.0
C371 C 0.60418 0.49894 0.06426 0.0
C372 C 0.5829 0.43436 0.07629 0.0
C373 C 0.65191 0.47955 0.07273 0.0
C374 C 0.67249 0.54545 0.06315 0.0
C375 C 0.66229 0.57297 0.05857 0.0
N376 N 0.59475 0.52572 0.05857 0.0
C377 C 0.62306 0.56263 0.0567 0.0
H378 H 0.61575 0.58422 0.05297 0.0
C379 C 0.50716 0.42128 0.07478 0.0
N380 N 0.53737 0.45561 0.06763 0.0
C381 C 0.51397 0.39217 0.08198 0.0
C382 C 0.55199 0.3986 0.08246 0.0
H383 H 0.47769 0.41607 0.07423 0.0
H384 H 0.68178 0.48587 0.07433 0.0
H385 H 0.41195 0.44236 0.99123 0.0
H386 H 0.70289 0.55353 0.0646 0.0
H387 H 0.68462 0.60215 0.05634 0.0
H388 H 0.62882 0.42133 0.08293 0.0
H389 H 0.55045 0.60981 0.96866 0.0
H390 H 0.32509 0.47265 0.97702 0.0
H391 H 0.34315 0.42423 0.98673 0.0
H392 H 0.39963 0.60442 0.95743 0.0
H393 H 0.4899 0.36477 0.08708 0.0
H394 H 0.55719 0.37602 0.08808 0.0
H395 H 0.34646 0.54011 0.96638 0.0
H396 H 0.53854 0.66077 0.95467 0.0
N397 N 0.43308 0.50056 0.98455 0.0
C398 C 0.35545 0.48075 0.97889 0.0
C399 C 0.36553 0.45334 0.98427 0.0
C400 C 0.38475 0.51814 0.9753 0.0
C401 C 0.4238 0.5272 0.97812 0.0
C402 C 0.4047 0.46373 0.9867 0.0
N403 N 0.49064 0.57031 0.97498 0.0
C404 C 0.45356 0.56323 0.97308 0.0
C405 C 0.51436 0.63349 0.95986 0.0
C406 C 0.47638 0.62704 0.95874 0.0
C407 C 0.52099 0.60453 0.96775 0.0
C408 C 0.44535 0.59145 0.9651 0.0
H409 H 0.4713 0.6495 0.95258 0.0
O410 O 0.5311 0.53454 0.95279 0.0
O411 O 0.54564 0.51796 1.01248 0.0
O412 O 0.54872 0.56689 0.04585 0.0
O413 O 0.5071 0.56836 0.01479 0.0
O414 O 0.56414 0.56078 0.98586 0.0
O415 O 0.47905 0.48054 0.95773 0.0
O416 O 0.49608 0.49083 0.09018 0.0
O417 O 0.48261 0.50827 0.03066 0.0
O418 O 0.47945 0.45868 0.99725 0.0
O419 O 0.52189 0.45869 0.02823 0.0
O420 O 0.46311 0.46569 0.05742 0.0
O421 O 0.54871 0.54456 0.08606 0.0
C422 C 0.57578 0.5453 1.00258 0.0
C423 C 0.40654 0.58303 0.96328 0.0
C424 C 0.37628 0.54643 0.96839 0.0
C425 C 0.50629 0.50315 0.94178 0.0
C426 C 0.49407 0.50631 0.91542 0.0
C427 C 0.46329 0.51335 0.91172 0.0
C428 C 0.51366 0.50288 0.89372 0.0
C429 C 0.5028 0.50699 0.86849 0.0
C430 C 0.45211 0.51692 0.88684 0.0
C431 C 0.47163 0.51378 0.86539 0.0
C432 C 0.53207 0.58385 0.03398 0.0
C433 C 0.4521 0.48157 0.04056 0.0
C434 C 0.52081 0.52188 0.1016 0.0
C435 C 0.53185 0.51796 0.12817 0.0
C436 C 0.55969 0.50706 0.13235 0.0
C437 C 0.51401 0.52462 0.14958 0.0
C438 C 0.52428 0.52074 0.1751 0.0
C439 C 0.56979 0.50292 0.15742 0.0
C440 C 0.55236 0.50972 0.1786 0.0
C441 C 0.49663 0.44233 1.00935 0.0
H442 H 0.44786 0.51603 0.92805 0.0
H443 H 0.53765 0.49769 0.89645 0.0
H444 H 0.42821 0.52221 0.88416 0.0
H445 H 0.46221 0.51646 0.84629 0.0
H446 H 0.57363 0.50175 0.11623 0.0
H447 H 0.49198 0.5324 0.14632 0.0
H448 H 0.59142 0.49459 0.16048 0.0
H449 H 0.56136 0.50689 0.1978 0.0
Gd450 Gd 0.17994 0.35333 0.38812 0.0
Gd451 Gd 0.15266 0.31128 0.3227 0.0
C452 C 0.04207 0.19957 0.30728 0.0
C453 C 0.06783 0.15962 0.29362 0.0
C454 C 0.11167 0.22497 0.30498 0.0
C455 C 0.08033 0.22971 0.31042 0.0
C456 C 0.1058 0.19014 0.29586 0.0
C457 C 0.03601 0.1643 0.29941 0.0
C458 C 0.0111 0.20608 0.31147 0.0
C459 C 0.01876 0.24227 0.31756 0.0
N460 N 0.08725 0.26427 0.31764 0.0
C461 C 0.05723 0.27129 0.32013 0.0
H462 H 0.06274 0.299 0.32498 0.0
C463 C 0.17965 0.25269 0.2997 0.0
N464 N 0.14796 0.25499 0.30749 0.0
C465 C 0.1753 0.21875 0.29055 0.0
C466 C 0.13823 0.18724 0.28879 0.0
H467 H 0.20845 0.27682 0.30084 0.0
H468 H 0.00684 0.14073 0.29712 0.0
H469 H 0.26662 0.35752 0.39031 0.0
H470 H 0.98128 0.18364 0.30943 0.0
H471 H 0.99507 0.24784 0.32037 0.0
H472 H 0.06274 0.13252 0.28695 0.0
H473 H 0.13032 0.39521 0.40765 0.0
H474 H 0.35487 0.47166 0.40244 0.0
H475 H 0.33558 0.40495 0.39537 0.0
H476 H 0.28222 0.53478 0.41634 0.0
H477 H 0.20054 0.21693 0.28483 0.0
H478 H 0.13495 0.16099 0.28167 0.0
H479 H 0.33468 0.52011 0.40982 0.0
H480 H 0.14313 0.4587 0.41932 0.0
N481 N 0.24656 0.39665 0.39403 0.0
C482 C 0.32442 0.45084 0.40035 0.0
C483 C 0.31364 0.41322 0.39643 0.0
C484 C 0.29566 0.46092 0.40229 0.0
C485 C 0.25647 0.43271 0.3993 0.0
C486 C 0.27436 0.38631 0.39359 0.0
N487 N 0.18993 0.41247 0.40142 0.0
C488 C 0.22715 0.44094 0.40303 0.0
C489 C 0.16705 0.45415 0.41467 0.0
C490 C 0.2052 0.48414 0.41514 0.0
C491 C 0.15992 0.41818 0.40813 0.0
C492 C 0.23589 0.47764 0.40973 0.0
H493 H 0.21067 0.51195 0.42032 0.0
O494 O 0.14603 0.33554 0.42373 0.0
O495 O 0.13433 0.30693 0.36429 0.0
O496 O 0.12994 0.35124 0.33082 0.0
O497 O 0.17089 0.39281 0.36216 0.0
O498 O 0.11616 0.33276 0.39073 0.0
O499 O 0.19831 0.33225 0.42079 0.0
O500 O 0.18773 0.33805 0.28845 0.0
O501 O 0.19729 0.35727 0.34692 0.0
O502 O 0.20031 0.31102 0.38025 0.0
O503 O 0.16203 0.27109 0.34717 0.0
O504 O 0.21757 0.3349 0.31954 0.0
O505 O 0.12794 0.3241 0.28903 0.0
C506 C 0.10451 0.30616 0.37404 0.0
C507 C 0.27488 0.50631 0.41149 0.0
C508 C 0.30474 0.49795 0.40778 0.0
C509 C 0.16978 0.32757 0.43576 0.0
C510 C 0.17971 0.34149 0.46263 0.0
C511 C 0.20365 0.38008 0.46703 0.0
C512 C 0.16465 0.31655 0.48404 0.0
C513 C 0.17387 0.33028 0.50966 0.0
C514 C 0.21227 0.39385 0.49215 0.0
C515 C 0.19742 0.36935 0.51323 0.0
C516 C 0.14566 0.38391 0.34301 0.0
C517 C 0.22793 0.36015 0.33717 0.0
C518 C 0.15967 0.33757 0.27528 0.0
C519 C 0.15613 0.32471 0.24812 0.0
C520 C 0.14452 0.28697 0.24317 0.0
C521 C 0.16594 0.35013 0.22703 0.0
C522 C 0.16384 0.3375 0.20128 0.0
C523 C 0.14346 0.27467 0.21801 0.0
C524 C 0.15327 0.29963 0.19731 0.0
C525 C 0.18598 0.27919 0.36694 0.0
H526 H 0.21542 0.39964 0.45102 0.0
H527 H 0.14614 0.28666 0.48076 0.0
H528 H 0.23041 0.42378 0.49532 0.0
H529 H 0.20403 0.38118 0.53245 0.0
H530 H 0.13665 0.26699 0.25879 0.0
H531 H 0.17462 0.3793 0.2306 0.0
H532 H 0.13499 0.24556 0.21452 0.0
H533 H 0.15246 0.28918 0.17801 0.0
Gd534 Gd 0.65462 0.82115 0.38775 0.0
Gd535 Gd 0.69898 0.83293 0.32356 0.0
C536 C 0.81402 0.83525 0.31009 0.0
C537 C 0.85483 0.89803 0.29249 0.0
C538 C 0.78779 0.87691 0.30452 0.0
C539 C 0.7831 0.84273 0.31243 0.0
C540 C 0.82337 0.9046 0.29377 0.0
C541 C 0.85021 0.86345 0.30075 0.0
C542 C 0.80718 0.79919 0.3162 0.0
C543 C 0.76978 0.77122 0.32312 0.0
N544 N 0.74747 0.81587 0.32069 0.0
C545 C 0.73997 0.77993 0.32474 0.0
H546 H 0.71132 0.7581 0.33021 0.0
C547 C 0.7589 0.91419 0.29614 0.0
N548 N 0.75685 0.88233 0.30611 0.0
C549 C 0.79353 0.94246 0.28526 0.0
C550 C 0.82599 0.93775 0.28417 0.0
H551 H 0.73394 0.91805 0.29684 0.0
H552 H 0.87441 0.85836 0.29906 0.0
H553 H 0.65011 0.90103 0.38499 0.0
H554 H 0.83019 0.79234 0.31481 0.0
H555 H 0.76386 0.74295 0.32725 0.0
H556 H 0.88256 0.91916 0.28463 0.0
H557 H 0.61136 0.73249 0.40957 0.0
H558 H 0.53224 0.87319 0.39695 0.0
H559 H 0.60089 0.9205 0.38818 0.0
H560 H 0.46739 0.74122 0.41629 0.0
H561 H 0.79515 0.96785 0.27771 0.0
H562 H 0.85277 0.95967 0.27571 0.0
H563 H 0.48248 0.80608 0.40706 0.0
H564 H 0.54571 0.68238 0.42251 0.0
N565 N 0.60995 0.84291 0.39141 0.0
C566 C 0.55381 0.86443 0.39565 0.0
C567 C 0.59253 0.89122 0.39077 0.0
C568 C 0.54356 0.82678 0.39941 0.0
C569 C 0.57274 0.81684 0.39735 0.0
C570 C 0.62044 0.87999 0.389 0.0
N571 N 0.5935 0.77252 0.40155 0.0
C572 C 0.5642 0.78043 0.40248 0.0
C573 C 0.55047 0.70979 0.41681 0.0
C574 C 0.51957 0.71696 0.41667 0.0
C575 C 0.5876 0.73823 0.40956 0.0
C576 C 0.52633 0.75281 0.40987 0.0
H577 H 0.49086 0.69494 0.42241 0.0
O578 O 0.67081 0.80743 0.42456 0.0
O579 O 0.70445 0.82404 0.36563 0.0
O580 O 0.6576 0.77144 0.3336 0.0
O581 O 0.61335 0.77181 0.36285 0.0
O582 O 0.67819 0.78159 0.39278 0.0
O583 O 0.6737 0.86114 0.41942 0.0
O584 O 0.67914 0.84088 0.2862 0.0
O585 O 0.65036 0.83072 0.34618 0.0
O586 O 0.69878 0.88315 0.37894 0.0
O587 O 0.73968 0.88441 0.34598 0.0
O588 O 0.67204 0.86996 0.3172 0.0
O589 O 0.67997 0.78945 0.29442 0.0
C590 C 0.7065 0.79731 0.37654 0.0
C591 C 0.49677 0.76213 0.4109 0.0
C592 C 0.50537 0.79906 0.40566 0.0
C593 C 0.67761 0.83867 0.43549 0.0
C594 C 0.66143 0.83507 0.46164 0.0
C595 C 0.62172 0.82204 0.4652 0.0
C596 C 0.68573 0.84373 0.48335 0.0
C597 C 0.67046 0.83946 0.50856 0.0
C598 C 0.60631 0.81731 0.49005 0.0
C599 C 0.63035 0.82571 0.51157 0.0
C600 C 0.62292 0.75495 0.34482 0.0
C601 C 0.64588 0.8557 0.33496 0.0
C602 C 0.67438 0.80933 0.27703 0.0
C603 C 0.69082 0.81127 0.25123 0.0
C604 C 0.72825 0.81629 0.24833 0.0
C605 C 0.66878 0.80807 0.2292 0.0
C606 C 0.6837 0.80917 0.20431 0.0
C607 C 0.74346 0.81801 0.22377 0.0
C608 C 0.72139 0.81438 0.20189 0.0
C609 C 0.7315 0.90059 0.36518 0.0
H610 H 0.6026 0.81526 0.44882 0.0
H611 H 0.71648 0.85395 0.4806 0.0
H612 H 0.57553 0.80682 0.49265 0.0
H613 H 0.61739 0.82093 0.53061 0.0
H614 H 0.74562 0.81867 0.26499 0.0
H615 H 0.64014 0.80488 0.2315 0.0
H616 H 0.77233 0.82179 0.22167 0.0
H617 H 0.73359 0.815 0.18306 0.0
Gd618 Gd 0.17338 0.85556 0.32481 0.0
Gd619 Gd 0.20018 0.8364 0.3891 0.0
C620 C 0.31005 0.82806 0.39843 0.0
C621 C 0.28361 0.76208 0.40956 0.0
C622 C 0.2405 0.78741 0.40261 0.0
C623 C 0.27198 0.82233 0.39717 0.0
C624 C 0.24594 0.75708 0.40953 0.0
C625 C 0.31564 0.79753 0.40398 0.0
C626 C 0.34135 0.86454 0.3949 0.0
C627 C 0.33422 0.89432 0.39132 0.0
N628 N 0.26549 0.85122 0.39222 0.0
C629 C 0.2959 0.88715 0.39043 0.0
H630 H 0.29077 0.91025 0.38725 0.0
C631 C 0.17327 0.75147 0.41164 0.0
N632 N 0.20462 0.78376 0.40265 0.0
C633 C 0.17708 0.72043 0.41845 0.0
C634 C 0.21349 0.72304 0.41701 0.0
H635 H 0.14516 0.74939 0.41308 0.0
H636 H 0.34463 0.80128 0.40476 0.0
H637 H 0.08623 0.77568 0.32284 0.0
H638 H 0.37103 0.87013 0.3956 0.0
H639 H 0.35818 0.92276 0.38904 0.0
H640 H 0.28838 0.73902 0.41455 0.0
H641 H 0.22322 0.94615 0.30762 0.0
H642 H 0.99845 0.80529 0.3108 0.0
H643 H 0.01748 0.75699 0.31793 0.0
H644 H 0.07126 0.9388 0.29766 0.0
H645 H 0.15198 0.69458 0.42489 0.0
H646 H 0.21642 0.69904 0.42246 0.0
H647 H 0.01877 0.87329 0.30355 0.0
H648 H 0.21046 0.99765 0.29641 0.0
N649 N 0.10667 0.83447 0.31925 0.0
C650 C 0.02887 0.81376 0.31292 0.0
C651 C 0.03951 0.78643 0.31688 0.0
C652 C 0.05771 0.85163 0.31108 0.0
C653 C 0.09686 0.86115 0.31416 0.0
C654 C 0.07875 0.79727 0.31967 0.0
N655 N 0.1635 0.9055 0.31269 0.0
C656 C 0.12625 0.89788 0.31081 0.0
C657 C 0.18649 0.96975 0.30049 0.0
C658 C 0.14829 0.96272 0.29958 0.0
C659 C 0.19361 0.94052 0.30675 0.0
C660 C 0.11754 0.92631 0.30438 0.0
H661 H 0.14282 0.98536 0.29464 0.0
O662 O 0.20447 0.87373 0.28819 0.0
O663 O 0.21824 0.85023 0.34759 0.0
O664 O 0.22359 0.89879 0.3817 0.0
O665 O 0.18149 0.90196 0.35193 0.0
O666 O 0.23803 0.89478 0.32216 0.0
O667 O 0.15619 0.81706 0.29241 0.0
O668 O 0.16637 0.82833 0.42407 0.0
O669 O 0.15597 0.84172 0.3659 0.0
O670 O 0.15218 0.7932 0.33049 0.0
O671 O 0.18736 0.78665 0.36447 0.0
O672 O 0.13496 0.79863 0.39252 0.0
O673 O 0.22652 0.87151 0.42303 0.0
C674 C 0.24882 0.87754 0.33801 0.0
C675 C 0.07857 0.9173 0.30236 0.0
C676 C 0.04869 0.88001 0.30571 0.0
C677 C 0.18212 0.84187 0.27673 0.0
C678 C 0.16872 0.84406 0.25056 0.0
C679 C 0.13759 0.85065 0.24725 0.0
C680 C 0.18709 0.83942 0.22865 0.0
C681 C 0.17455 0.84165 0.20354 0.0
C682 C 0.12472 0.85239 0.22252 0.0
C683 C 0.14289 0.84782 0.20083 0.0
C684 C 0.20753 0.91687 0.37059 0.0
C685 C 0.12499 0.81514 0.37547 0.0
C686 C 0.19523 0.85401 0.43718 0.0
C687 C 0.19957 0.84309 0.46371 0.0
C688 C 0.21412 0.81854 0.46748 0.0
C689 C 0.18762 0.85579 0.48539 0.0
C690 C 0.19042 0.84401 0.51063 0.0
C691 C 0.21599 0.80607 0.4922 0.0
C692 C 0.20401 0.81839 0.51355 0.0
C693 C 0.16453 0.77381 0.34409 0.0
H694 H 0.12309 0.85424 0.26377 0.0
H695 H 0.21133 0.83454 0.23114 0.0
H696 H 0.10045 0.85719 0.22013 0.0
H697 H 0.1319 0.84876 0.18189 0.0
H698 H 0.22374 0.80871 0.4513 0.0
H699 H 0.17667 0.87505 0.48264 0.0
H700 H 0.22675 0.78666 0.49484 0.0
H701 H 0.2054 0.8078 0.53246 0.0
Gd702 Gd 0.84935 0.68934 0.72087 0.0
Gd703 Gd 0.81884 0.64889 0.65496 0.0
C704 C 0.6978 0.54527 0.64836 0.0
C705 C 0.71283 0.49701 0.63537 0.0
C706 C 0.76464 0.56154 0.64138 0.0
C707 C 0.73784 0.57194 0.64837 0.0
C708 C 0.75242 0.5243 0.63381 0.0
C709 C 0.68554 0.50749 0.64269 0.0
C710 C 0.67131 0.55766 0.65305 0.0
C711 C 0.68496 0.59603 0.65632 0.0
N712 N 0.75081 0.60874 0.6534 0.0
C713 C 0.72499 0.62139 0.65602 0.0
H714 H 0.73498 0.65087 0.65882 0.0
C715 C 0.82886 0.58169 0.62785 0.0
N716 N 0.80243 0.58873 0.63978 0.0
C717 C 0.81839 0.54512 0.6203 0.0
C718 C 0.78012 0.51608 0.62382 0.0
H719 H 0.85823 0.6043 0.62473 0.0
H720 H 0.65495 0.48647 0.64297 0.0
H721 H 0.93209 0.68411 0.71646 0.0
H722 H 0.64032 0.53808 0.65332 0.0
H723 H 0.66469 0.60609 0.65926 0.0
H724 H 0.70289 0.46809 0.63003 0.0
H725 H 0.81104 0.73619 0.74859 0.0
H726 H 0.02911 0.79388 0.72778 0.0
H727 H 1.00236 0.72633 0.71843 0.0
H728 H 0.97039 0.86664 0.75269 0.0
H729 H 0.83975 0.53942 0.61165 0.0
H730 H 0.77195 0.48782 0.61775 0.0
H731 H 0.01689 0.84631 0.74008 0.0
H732 H 0.83192 0.80032 0.76457 0.0
N733 N 0.91784 0.72704 0.72401 0.0
C734 C 0.99793 0.77538 0.72698 0.0
C735 C 0.98294 0.73726 0.72181 0.0
C736 C 0.97246 0.78888 0.73197 0.0
C737 C 0.9321 0.76362 0.7305 0.0
C738 C 0.94269 0.71328 0.72074 0.0
N739 N 0.86783 0.74937 0.7371 0.0
C740 C 0.90616 0.77517 0.73729 0.0
C741 C 0.8531 0.79376 0.7567 0.0
C742 C 0.89228 0.82142 0.75544 0.0
C743 C 0.84139 0.75753 0.74768 0.0
C744 C 0.9195 0.81211 0.74611 0.0
H745 H 0.90133 0.84945 0.76248 0.0
O746 O 0.81732 0.67493 0.75736 0.0
O747 O 0.80288 0.64403 0.69699 0.0
O748 O 0.80372 0.69449 0.66241 0.0
O749 O 0.83911 0.73107 0.69785 0.0
O750 O 0.7861 0.67127 0.7233 0.0
O751 O 0.86365 0.66273 0.75216 0.0
O752 O 0.85206 0.66794 0.61915 0.0
O753 O 0.86429 0.69393 0.67911 0.0
O754 O 0.86499 0.64389 0.71319 0.0
O755 O 0.83475 0.61017 0.67558 0.0
O756 O 0.88335 0.6716 0.6508 0.0
O757 O 0.79766 0.6672 0.62226 0.0
C758 C 0.77368 0.64401 0.70702 0.0
C759 C 0.95956 0.83798 0.7463 0.0
C760 C 0.98602 0.82639 0.73916 0.0
C761 C 0.83798 0.66211 0.76818 0.0
C762 C 0.85115 0.67459 0.79497 0.0
C763 C 0.88359 0.71018 0.79921 0.0
C764 C 0.83137 0.65126 0.8165 0.0
C765 C 0.8438 0.66393 0.842 0.0
C766 C 0.89624 0.72253 0.82425 0.0
C767 C 0.87661 0.69972 0.84543 0.0
C768 C 0.81778 0.72522 0.67673 0.0
C769 C 0.89445 0.69692 0.6685 0.0
C770 C 0.82674 0.67373 0.60723 0.0
C771 C 0.81768 0.65983 0.58039 0.0
C772 C 0.79298 0.62143 0.57566 0.0
C773 C 0.8347 0.68484 0.55927 0.0
C774 C 0.82748 0.67134 0.53361 0.0
C775 C 0.7855 0.60799 0.55041 0.0
C776 C 0.80252 0.63262 0.52957 0.0
C777 C 0.85541 0.61586 0.69681 0.0
H778 H 0.89921 0.72842 0.78311 0.0
H779 H 0.80614 0.62378 0.81344 0.0
H780 H 0.9214 0.75001 0.82728 0.0
H781 H 0.88719 0.71009 0.86464 0.0
H782 H 0.77947 0.60183 0.59148 0.0
H783 H 0.85382 0.71457 0.56281 0.0
H784 H 0.76626 0.57831 0.54695 0.0
H785 H 0.79555 0.62141 0.51019 0.0
Gd786 Gd 0.31631 0.15643 0.72326 0.0
Gd787 Gd 0.3638 0.17379 0.65958 0.0
C788 C 0.47499 0.16785 0.65074 0.0
C789 C 0.52293 0.23307 0.6416 0.0
C790 C 0.45507 0.21479 0.64788 0.0
C791 C 0.44587 0.17795 0.65214 0.0
C792 C 0.49349 0.24258 0.64183 0.0
C793 C 0.5137 0.19577 0.6461 0.0
C794 C 0.46415 0.12988 0.65337 0.0
C795 C 0.42494 0.10296 0.65629 0.0
N796 N 0.40816 0.15168 0.65645 0.0
C797 C 0.39711 0.11436 0.65744 0.0
H798 H 0.36698 0.09326 0.65993 0.0
C799 C 0.43247 0.25755 0.64032 0.0
N800 N 0.4259 0.22295 0.6481 0.0
C801 C 0.47013 0.28613 0.63428 0.0
C802 C 0.5009 0.27878 0.63542 0.0
H803 H 0.40873 0.26333 0.63964 0.0
H804 H 0.53654 0.18863 0.64527 0.0
H805 H 0.31006 0.23532 0.72132 0.0
H806 H 0.48565 0.12099 0.65255 0.0
H807 H 0.41615 0.07344 0.65784 0.0
H808 H 0.55273 0.25412 0.63732 0.0
H809 H 0.27463 0.06848 0.74607 0.0
H810 H 0.19135 0.20536 0.7321 0.0
H811 H 0.25999 0.25373 0.72445 0.0
H812 H 0.12838 0.07325 0.75071 0.0
H813 H 0.47543 0.3138 0.62882 0.0
H814 H 0.53003 0.30094 0.63067 0.0
H815 H 0.14224 0.13772 0.7414 0.0
H816 H 0.20941 0.01758 0.75901 0.0
N817 N 0.27048 0.17689 0.7267 0.0
C818 C 0.21331 0.1971 0.73083 0.0
C819 C 0.25202 0.22448 0.72662 0.0
C820 C 0.20361 0.15952 0.73413 0.0
C821 C 0.23331 0.15027 0.73214 0.0
C822 C 0.28044 0.21389 0.72493 0.0
N823 N 0.25538 0.10707 0.73676 0.0
C824 C 0.22546 0.11411 0.73725 0.0
C825 C 0.21346 0.04453 0.75277 0.0
C826 C 0.18188 0.05066 0.75197 0.0
C827 C 0.25035 0.07341 0.74546 0.0
C828 C 0.18777 0.08602 0.74464 0.0
H829 H 0.15338 0.02832 0.75778 0.0
O830 O 0.33401 0.1428 0.75953 0.0
O831 O 0.36635 0.16014 0.701 0.0
O832 O 0.31791 0.11209 0.66448 0.0
O833 O 0.27601 0.1071 0.69811 0.0
O834 O 0.33944 0.11623 0.72685 0.0
O835 O 0.33267 0.19464 0.75589 0.0
O836 O 0.3506 0.19085 0.623 0.0
O837 O 0.31389 0.16934 0.68187 0.0
O838 O 0.36063 0.21906 0.71692 0.0
O839 O 0.40358 0.22098 0.68549 0.0
O840 O 0.3384 0.21239 0.65539 0.0
O841 O 0.34848 0.13717 0.62623 0.0
C842 C 0.36789 0.1325 0.71075 0.0
C843 C 0.15763 0.09454 0.74536 0.0
C844 C 0.16553 0.13125 0.74009 0.0
C845 C 0.33826 0.1726 0.7713 0.0
C846 C 0.32107 0.1664 0.79734 0.0
C847 C 0.2808 0.14994 0.80057 0.0
C848 C 0.34506 0.17575 0.81923 0.0
C849 C 0.32885 0.16761 0.84434 0.0
C850 C 0.26454 0.14224 0.82526 0.0
C851 C 0.28823 0.15073 0.84696 0.0
C852 C 0.28454 0.0938 0.67728 0.0
C853 C 0.31044 0.19566 0.67182 0.0
C854 C 0.34556 0.16094 0.6109 0.0
C855 C 0.36437 0.16732 0.58546 0.0
C856 C 0.40488 0.18444 0.58338 0.0
C857 C 0.3416 0.15638 0.56297 0.0
C858 C 0.35928 0.16256 0.53848 0.0
C859 C 0.42257 0.19084 0.5592 0.0
C860 C 0.40001 0.17999 0.53688 0.0
C861 C 0.39468 0.2364 0.70475 0.0
H862 H 0.26192 0.14287 0.78406 0.0
H863 H 0.37625 0.18942 0.81659 0.0
H864 H 0.23337 0.12925 0.82759 0.0
H865 H 0.27461 0.14356 0.86583 0.0
H866 H 0.42282 0.19279 0.60038 0.0
H867 H 0.31022 0.1425 0.56459 0.0
H868 H 0.45388 0.20416 0.55775 0.0
H869 H 0.41441 0.18524 0.51831 0.0
Gd870 Gd 0.83631 0.19158 0.65464 0.0
Gd871 Gd 0.86182 0.17448 0.71971 0.0
C872 C 0.97767 0.17794 0.73194 0.0
C873 C 0.95656 0.1135 0.7448 0.0
C874 C 0.90907 0.13299 0.73588 0.0
C875 C 0.93848 0.16878 0.72998 0.0
C876 C 0.91771 0.10519 0.74415 0.0
C877 C 0.98652 0.14983 0.73863 0.0
C878 C 1.00673 0.21534 0.72805 0.0
C879 C 0.99631 0.24272 0.72359 0.0
N880 N 0.92877 0.19528 0.72408 0.0
C881 C 0.95701 0.23225 0.72209 0.0
H882 H 0.94965 0.25379 0.71838 0.0
C883 C 0.84237 0.09319 0.74488 0.0
N884 N 0.872 0.12616 0.7353 0.0
C885 C 0.84938 0.06462 0.75322 0.0
C886 C 0.88714 0.0704 0.75242 0.0
H887 H 0.81309 0.0885 0.74538 0.0
H888 H 0.01644 0.15621 0.73994 0.0
H889 H 0.75027 0.11149 0.65365 0.0
H890 H 0.03718 0.22353 0.72926 0.0
H891 H 0.01852 0.2719 0.72113 0.0
H892 H 0.9638 0.09239 0.75079 0.0
H893 H 0.88527 0.28011 0.633 0.0
H894 H 0.66109 0.13929 0.64091 0.0
H895 H 0.68096 0.09172 0.64876 0.0
H896 H 0.73275 0.27161 0.62302 0.0
H897 H 0.82566 0.03816 0.76017 0.0
H898 H 0.89254 0.04829 0.75897 0.0
H899 H 0.6807 0.20674 0.63182 0.0
H900 H 0.87173 0.32977 0.61803 0.0
N901 N 0.76957 0.16987 0.64952 0.0
C902 C 0.6916 0.14816 0.6431 0.0
C903 C 0.70271 0.12122 0.64743 0.0
C904 C 0.72013 0.18606 0.64058 0.0
C905 C 0.75941 0.19611 0.64375 0.0
C906 C 0.7421 0.13258 0.65019 0.0
N907 N 0.82598 0.24056 0.64083 0.0
C908 C 0.78857 0.23264 0.63916 0.0
C909 C 0.84809 0.30266 0.62407 0.0
C910 C 0.80983 0.29556 0.62347 0.0
C911 C 0.85566 0.27453 0.63256 0.0
C912 C 0.77944 0.26007 0.63078 0.0
H913 H 0.80403 0.31736 0.61683 0.0
O914 O 0.87048 0.20703 0.6192 0.0
O915 O 0.88077 0.18712 0.67839 0.0
O916 O 0.88297 0.23639 0.71231 0.0
O917 O 0.8451 0.24043 0.67953 0.0
O918 O 0.90085 0.23153 0.65274 0.0
O919 O 0.81568 0.15515 0.62095 0.0
O920 O 0.8273 0.16132 0.75492 0.0
O921 O 0.81696 0.17781 0.69568 0.0
O922 O 0.81865 0.12977 0.66022 0.0
O923 O 0.85205 0.12474 0.69595 0.0
O924 O 0.79715 0.13378 0.72158 0.0
O925 O 0.88227 0.21282 0.75242 0.0
C926 C 0.91144 0.21462 0.66907 0.0
C927 C 0.74036 0.25077 0.62902 0.0
C928 C 0.71073 0.21383 0.63401 0.0
C929 C 0.84503 0.17782 0.60643 0.0
C930 C 0.83602 0.18526 0.58013 0.0
C931 C 0.8148 0.20388 0.57679 0.0
C932 C 0.84946 0.1747 0.55817 0.0
C933 C 0.84175 0.18292 0.53305 0.0
C934 C 0.80789 0.21285 0.55216 0.0
C935 C 0.82153 0.20285 0.53049 0.0
C936 C 0.86867 0.2548 0.69954 0.0
C937 C 0.7864 0.14994 0.70479 0.0
C938 C 0.85269 0.19115 0.76711 0.0
C939 C 0.86113 0.18529 0.79397 0.0
C940 C 0.88586 0.17079 0.79887 0.0
C941 C 0.84386 0.19362 0.81491 0.0
C942 C 0.85146 0.18766 0.84067 0.0
C943 C 0.8932 0.1645 0.82419 0.0
C944 C 0.87622 0.17282 0.8449 0.0
C945 C 0.83139 0.1113 0.67461 0.0
H946 H 0.80383 0.2118 0.5932 0.0
H947 H 0.86554 0.15994 0.56064 0.0
H948 H 0.79206 0.22783 0.54984 0.0
H949 H 0.81646 0.21105 0.51165 0.0
H950 H 0.89949 0.16434 0.78315 0.0
H951 H 0.82434 0.20437 0.81112 0.0
H952 H 0.91237 0.15332 0.82779 0.0
H953 H 0.88308 0.16826 0.86433 0.0
C954 C 0.33425 0.91088 0.0624 0.0
C955 C 0.33103 0.87528 0.06513 0.0
C956 C 0.36826 0.94176 0.05271 0.0
C957 C 0.40041 0.93837 0.04509 0.0
H958 H 0.31041 0.91508 0.06809 0.0
H959 H 0.36977 0.96887 0.05174 0.0
S960 S 0.40736 0.85156 0.04839 0.0
N961 N 0.36327 0.83849 0.05928 0.0
N962 N 0.42704 0.89663 0.04108 0.0
C963 C 0.39742 0.90283 0.04712 0.0
C964 C 0.36275 0.87127 0.05706 0.0
C965 C 0.14079 0.49349 0.05713 0.0
C966 C 0.13745 0.45867 0.06414 0.0
C967 C 0.10804 0.49601 0.04924 0.0
C968 C 0.07092 0.46369 0.04758 0.0
H969 H 0.1686 0.5191 0.05866 0.0
H970 H 0.1116 0.52349 0.04516 0.0
S971 S 0.0474 0.36559 0.06095 0.0
N972 N 0.09439 0.39106 0.06682 0.0
N973 N 0.03347 0.39578 0.05214 0.0
C974 C 0.06766 0.42876 0.05363 0.0
C975 C 0.10071 0.42622 0.06171 0.0
C976 C 0.58738 0.67892 0.06658 0.0
C977 C 0.56402 0.69514 0.06206 0.0
C978 C 0.57693 0.64318 0.05714 0.0
C979 C 0.54268 0.62216 0.04278 0.0
H980 H 0.61426 0.69418 0.07725 0.0
H981 H 0.59611 0.63211 0.0611 0.0
S982 S 0.47023 0.65127 0.02705 0.0
N983 N 0.50444 0.68721 0.04314 0.0
N984 N 0.48454 0.61979 0.02549 0.0
C985 C 0.51887 0.638 0.03827 0.0
C986 C 0.5296 0.67452 0.04788 0.0
C987 C 0.87436 0.32234 1.0058 0.0
C988 C 0.86309 0.31817 0.97964 0.0
C989 C 0.90264 0.35726 0.01568 0.0
C990 C 0.92106 0.38926 0.99976 0.0
H991 H 0.86146 0.29831 0.01873 0.0
H992 H 0.91064 0.35901 0.03579 0.0
S993 S 0.90024 0.39468 0.9306 0.0
N994 N 0.87119 0.35014 0.93852 0.0
N995 N 0.92482 0.41527 0.95699 0.0
C996 C 0.90998 0.38569 0.9737 0.0
C997 C 0.88094 0.35031 0.96367 0.0
C998 C 0.65576 0.52026 0.99105 0.0
C999 C 0.68723 0.55485 0.9824 0.0
C1000 C 0.62015 0.51721 0.99904 0.0
C1001 C 0.61489 0.54878 0.99911 0.0
H1002 H 0.65813 0.49508 0.99069 0.0
H1003 H 0.59621 0.48975 1.00421 0.0
S1004 S 0.68964 0.64651 0.98184 0.0
N1005 N 0.71153 0.62178 0.97697 0.0
N1006 N 0.64535 0.61613 0.99193 0.0
C1007 C 0.64677 0.58368 0.99179 0.0
C1008 C 0.68268 0.58673 0.98354 0.0
C1009 C 0.44294 0.12301 1.0078 0.0
C1010 C 0.45003 0.13597 0.98199 0.0
C1011 C 0.45418 0.09765 0.01701 0.0
C1012 C 0.47248 0.08401 1.00066 0.0
H1013 H 0.4283 0.13235 0.021 0.0
H1014 H 0.44757 0.08791 0.0368 0.0
S1015 S 0.4997 0.11011 0.9321 0.0
N1016 N 0.47839 0.13422 0.9407 0.0
N1017 N 0.4984 0.08576 0.95789 0.0
C1018 C 0.47985 0.09661 0.97494 0.0
C1019 C 0.46884 0.12272 0.96561 0.0
C1020 C 0.63376 0.13321 0.99762 0.0
C1021 C 0.66804 0.13306 0.99098 0.0
C1022 C 0.59881 0.09945 1.00211 0.0
C1023 C 0.59716 0.06442 1.00044 0.0
H1024 H 0.634 0.15964 0.99953 0.0
H1025 H 0.57293 0.10083 1.00664 0.0
S1026 S 0.6793 0.04918 0.98423 0.0
N1027 N 0.69854 0.09539 0.98334 0.0
N1028 N 0.63294 0.03185 0.99162 0.0
C1029 C 0.63134 0.06408 0.99371 0.0
C1030 C 0.66685 0.09844 0.98918 0.0
C1031 C 0.90725 0.56608 0.99161 0.0
C1032 C 0.87042 0.53349 0.9915 0.0
C1033 C 0.94123 0.56403 0.99609 0.0
C1034 C 0.93965 0.52944 1.00126 0.0
H1035 H 0.90982 0.59338 0.98853 0.0
H1036 H 0.96901 0.58986 0.99597 0.0
S1037 S 0.85009 0.43569 1.00128 0.0
N1038 N 0.83433 0.46553 0.99584 0.0
N1039 N 0.89776 0.46162 1.0039 0.0
C1040 C 0.90289 0.49663 1.00053 0.0
C1041 C 0.86842 0.49872 0.99586 0.0
C1042 C 0.50117 0.35227 1.00675 0.0
C1043 C 0.46688 0.32735 0.99392 0.0
C1044 C 0.51102 0.38968 1.01081 0.0
C1045 C 0.48673 0.40348 1.00233 0.0
H1046 H 0.51999 0.34251 0.01443 0.0
H1047 H 0.53761 0.40765 0.02115 0.0
S1048 S 0.39451 0.349 0.9661 0.0
N1049 N 0.40935 0.31847 0.9716 0.0
N1050 N 0.42767 0.38907 0.97895 0.0
C1051 C 0.45298 0.3789 0.98843 0.0
C1052 C 0.443 0.34065 0.98438 0.0
C1053 C 0.13662 0.67283 0.03503 0.0
C1054 C 0.15203 0.67959 0.06006 0.0
C1055 C 0.10513 0.63773 0.02832 0.0
C1056 C 0.08803 0.60822 0.0464 0.0
H1057 H 0.15001 0.69431 0.02021 0.0
H1058 H 0.09461 0.63347 1.00869 0.0
S1059 S 0.11655 0.6125 0.11493 0.0
N1060 N 0.14713 0.65481 0.10335 0.0
N1061 N 0.08762 0.5887 0.09079 0.0
C1062 C 0.10199 0.61526 0.07187 0.0
C1063 C 0.13425 0.65103 0.07867 0.0
C1064 C 0.37509 0.51147 0.04715 0.0
C1065 C 0.34137 0.47765 0.05402 0.0
C1066 C 0.41067 0.51266 0.04219 0.0
C1067 C 0.41379 0.47993 0.04362 0.0
H1068 H 0.37397 0.53726 0.04546 0.0
H1069 H 0.43592 0.53944 0.03745 0.0
S1070 S 0.33361 0.38413 0.05998 0.0
N1071 N 0.31313 0.41065 0.06141 0.0
N1072 N 0.37962 0.41268 0.05223 0.0
C1073 C 0.38013 0.44598 0.05044 0.0
C1074 C 0.344 0.44483 0.05546 0.0
C1075 C 0.5685 0.88913 0.02015 0.0
C1076 C 0.56943 0.87596 0.04497 0.0
C1077 C 0.55294 0.91267 0.01594 0.0
C1078 C 0.53762 0.92369 0.0364 0.0
H1079 H 0.57989 0.88117 1.00381 0.0
H1080 H 0.55373 0.92293 0.9966 0.0
S1081 S 0.53352 0.89664 0.10519 0.0
N1082 N 0.55419 0.87539 0.0904 0.0
N1083 N 0.52467 0.91984 0.08254 0.0
C1084 C 0.5388 0.91098 0.06145 0.0
C1085 C 0.55467 0.88687 0.06572 0.0
C1086 C 0.99833 0.25097 0.39281 0.0
C1087 C 0.99035 0.21356 0.39381 0.0
C1088 C 0.03476 0.28012 0.38466 0.0
C1089 C 0.06488 0.27321 0.37737 0.0
H1090 H 0.97632 0.25779 0.39854 0.0
H1091 H 0.03981 0.30865 0.38477 0.0
S1092 S 0.05868 0.17997 0.37707 0.0
N1093 N 0.01509 0.17085 0.3865 0.0
N1094 N 0.08415 0.22591 0.37227 0.0
C1095 C 0.05712 0.23582 0.37803 0.0
C1096 C 0.01971 0.20597 0.38594 0.0
C1097 C 0.76949 0.7553 0.3956 0.0
C1098 C 0.80753 0.7863 0.39566 0.0
C1099 C 0.73754 0.75923 0.38838 0.0
C1100 C 0.74207 0.79426 0.38077 0.0
H1101 H 0.7643 0.72777 0.40141 0.0
H1102 H 0.70879 0.73459 0.38908 0.0
S1103 S 0.83531 0.88455 0.37919 0.0
N1104 N 0.84773 0.8534 0.3882 0.0
N1105 N 0.78778 0.86087 0.37492 0.0
C1106 C 0.77996 0.82547 0.38067 0.0
C1107 C 0.81257 0.82142 0.38795 0.0
C1108 C 0.20527 0.00714 0.38344 0.0
C1109 C 0.23928 0.02873 0.39786 0.0
C1110 C 0.19546 0.97122 0.37442 0.0
C1111 C 0.21928 0.95551 0.37949 0.0
H1112 H 0.18582 0.01788 0.3794 0.0
H1113 H 0.16865 0.95545 0.36376 0.0
S1114 S 0.31362 0.00245 0.41417 0.0
N1115 N 0.29828 0.03314 0.41507 0.0
N1116 N 0.27974 0.96569 0.39861 0.0
C1117 C 0.25382 0.97728 0.39343 0.0
C1118 C 0.26384 0.01384 0.40248 0.0
C1119 C 0.52521 0.66727 0.33116 0.0
C1120 C 0.53547 0.64431 0.31683 0.0
C1121 C 0.55358 0.70251 0.34065 0.0
C1122 C 0.59347 0.71638 0.33615 0.0
H1123 H 0.4949 0.65821 0.33473 0.0
H1124 H 0.54403 0.7193 0.35112 0.0
S1125 S 0.63592 0.66552 0.30202 0.0
N1126 N 0.58857 0.6368 0.30045 0.0
N1127 N 0.64163 0.7029 0.31769 0.0
C1128 C 0.60411 0.69324 0.32237 0.0
C1129 C 0.57525 0.65734 0.31285 0.0
C1130 C 0.32511 0.8486 0.32332 0.0
C1131 C 0.35766 0.88298 0.31548 0.0
C1132 C 0.29029 0.84673 0.33185 0.0
C1133 C 0.28692 0.87932 0.33332 0.0
H1134 H 0.32611 0.82273 0.32202 0.0
H1135 H 0.26553 0.81952 0.33652 0.0
S1136 S 0.36491 0.9767 0.31837 0.0
N1137 N 0.38488 0.9506 0.31208 0.0
N1138 N 0.32016 0.94718 0.32811 0.0
C1139 C 0.31978 0.9139 0.32665 0.0
C1140 C 0.35491 0.91575 0.31782 0.0
C1141 C 0.15313 0.47815 0.3289 0.0
C1142 C 0.11932 0.46854 0.31452 0.0
C1143 C 0.16052 0.45057 0.33888 0.0
C1144 C 0.1352 0.41219 0.33417 0.0
H1145 H 0.17437 0.50736 0.33239 0.0
H1146 H 0.18669 0.45957 0.34999 0.0
S1147 S 0.0406 0.37154 0.30004 0.0
N1148 N 0.05833 0.41744 0.29834 0.0
N1149 N 0.07343 0.36575 0.31567 0.0
C1150 C 0.10095 0.40203 0.3202 0.0
C1151 C 0.09285 0.43012 0.31062 0.0
C1152 C 0.33734 0.42112 0.32903 0.0
C1153 C 0.34325 0.45784 0.32891 0.0
C1154 C 0.29986 0.38984 0.33222 0.0
C1155 C 0.26717 0.39423 0.33605 0.0
H1156 H 0.36182 0.41654 0.32687 0.0
H1157 H 0.29644 0.36191 0.33196 0.0
S1158 S 0.2677 0.48499 0.33563 0.0
N1159 N 0.31381 0.49714 0.33197 0.0
N1160 N 0.24343 0.43857 0.33755 0.0
C1161 C 0.27287 0.43096 0.33545 0.0
C1162 C 0.31097 0.46271 0.3321 0.0
C1163 C 0.53756 0.82436 0.33118 0.0
C1164 C 0.53781 0.85775 0.32433 0.0
C1165 C 0.57243 0.82377 0.33505 0.0
C1166 C 0.6089 0.85673 0.33259 0.0
H1167 H 0.51018 0.79848 0.33376 0.0
H1168 H 0.57074 0.7973 0.33987 0.0
S1169 S 0.62518 0.95134 0.31492 0.0
N1170 N 0.57738 0.92442 0.31518 0.0
N1171 N 0.64277 0.92352 0.32238 0.0
C1172 C 0.60935 0.89015 0.32545 0.0
C1173 C 0.57388 0.89068 0.32151 0.0
C1174 C 0.15868 0.68855 0.31205 0.0
C1175 C 0.13021 0.65903 0.32702 0.0
C1176 C 0.16858 0.72599 0.31687 0.0
C1177 C 0.15044 0.7346 0.3369 0.0
H1178 H 0.17448 0.68285 0.29734 0.0
H1179 H 0.1916 0.74839 0.30565 0.0
S1180 S 0.073 0.66705 0.38058 0.0
N1181 N 0.0831 0.64052 0.36181 0.0
N1182 N 0.10169 0.71082 0.37079 0.0
C1183 C 0.12105 0.70517 0.35128 0.0
C1184 C 0.11089 0.66725 0.34633 0.0
C1185 C 0.7758 0.00163 0.39006 0.0
C1186 C 0.81429 0.01833 0.38112 0.0
C1187 C 0.74933 0.96326 0.38542 0.0
C1188 C 0.76036 0.94066 0.37123 0.0
H1189 H 0.76589 0.01839 0.4002 0.0
H1190 H 0.71981 0.95159 0.39239 0.0
S1191 S 0.85928 0.97229 0.34488 0.0
N1192 N 0.86292 0.01004 0.35872 0.0
N1193 N 0.81377 0.93883 0.34928 0.0
C1194 C 0.7993 0.95753 0.36268 0.0
C1195 C 0.82608 0.99615 0.3678 0.0
C1196 C 0.04656 0.84333 0.37989 0.0
C1197 C 0.01274 0.80887 0.38538 0.0
C1198 C 0.08279 0.84539 0.3761 0.0
C1199 C 0.08633 0.81289 0.37725 0.0
H1200 H 0.04498 0.8689 0.37834 0.0
H1201 H 0.10814 0.87259 0.37242 0.0
S1202 S 1.00625 0.71589 0.39085 0.0
N1203 N 0.98498 0.74173 0.39166 0.0
N1204 N 0.0526 0.74534 0.38464 0.0
C1205 C 0.0526 0.77839 0.38291 0.0
C1206 C 0.01588 0.77638 0.38679 0.0
C1207 C 0.25117 0.24149 0.39015 0.0
C1208 C 0.23056 0.20369 0.38262 0.0
C1209 C 0.23592 0.26545 0.38578 0.0
C1210 C 0.19987 0.25249 0.37336 0.0
H1211 H 0.27963 0.25284 0.39883 0.0
H1212 H 0.25321 0.29459 0.39142 0.0
S1213 S 0.13375 0.15437 0.35198 0.0
N1214 N 0.17184 0.15344 0.3638 0.0
N1215 N 0.14314 0.19816 0.35528 0.0
C1216 C 0.17866 0.2142 0.36652 0.0
C1217 C 0.19406 0.18987 0.37123 0.0
C1218 C 0.66938 0.58535 0.72971 0.0
C1219 C 0.6633 0.54852 0.73064 0.0
C1220 C 0.7046 0.6155 0.72075 0.0
C1221 C 0.73528 0.61019 0.71233 0.0
H1222 H 0.64675 0.59096 0.73606 0.0
H1223 H 0.70813 0.64347 0.72084 0.0
S1224 S 0.73476 0.51948 0.71181 0.0
N1225 N 0.69108 0.50838 0.72251 0.0
N1226 N 0.75768 0.56532 0.70644 0.0
C1227 C 0.72962 0.5735 0.71308 0.0
C1228 C 0.69351 0.54263 0.72195 0.0
C1229 C 0.42999 0.0887 0.72802 0.0
C1230 C 0.46809 0.11948 0.72904 0.0
C1231 C 0.39839 0.09336 0.72099 0.0
C1232 C 0.40333 0.12898 0.71469 0.0
H1233 H 0.42449 0.06076 0.73294 0.0
H1234 H 0.36959 0.0688 0.72087 0.0
S1235 S 0.49696 0.21909 0.71632 0.0
N1236 N 0.50892 0.187 0.72378 0.0
N1237 N 0.44951 0.19596 0.71169 0.0
C1238 C 0.4413 0.16006 0.71584 0.0
C1239 C 0.47363 0.15522 0.72263 0.0
C1240 C 0.92427 0.34838 0.7345 0.0
C1241 C 0.90404 0.36727 0.72802 0.0
C1242 C 0.91276 0.31238 0.72497 0.0
C1243 C 0.88069 0.29369 0.70831 0.0
H1244 H 0.94956 0.36166 0.74685 0.0
H1245 H 0.92944 0.29927 0.73074 0.0
S1246 S 0.81707 0.33062 0.68615 0.0
N1247 N 0.84948 0.36416 0.7047 0.0
N1248 N 0.82865 0.29714 0.68607 0.0
C1249 C 0.86034 0.31243 0.70155 0.0
C1250 C 0.87179 0.34898 0.71156 0.0
C1251 C 0.20667 0.99047 0.67233 0.0
C1252 C 0.19817 0.98586 0.6457 0.0
C1253 C 0.23428 0.02546 0.68256 0.0
C1254 C 0.25466 0.05716 0.66657 0.0
H1255 H 0.19225 0.96668 0.68537 0.0
H1256 H 0.24036 0.02739 0.703 0.0
S1257 S 0.24114 0.06138 0.59605 0.0
N1258 N 0.21092 0.01706 0.60391 0.0
N1259 N 0.26299 0.08238 0.62309 0.0
C1260 C 0.24615 0.05315 0.64004 0.0
C1261 C 0.21792 0.01767 0.62962 0.0
C1262 C 0.98882 0.18627 0.65679 0.0
C1263 C 0.02124 0.22051 0.64858 0.0
C1264 C 0.9537 0.18433 0.6647 0.0
C1265 C 0.94985 0.2167 0.6651 0.0
H1266 H 0.99013 0.16052 0.65623 0.0
H1267 H 0.9291 0.15718 0.66967 0.0
S1268 S 0.02733 0.31382 0.64895 0.0
N1269 N 0.04784 0.2879 0.64385 0.0
N1270 N 0.98253 0.28432 0.6586 0.0
C1271 C 0.98258 0.2512 0.65809 0.0
C1272 C 0.01803 0.25312 0.64995 0.0
C1273 C 0.80793 0.79043 0.62904 0.0
C1274 C 0.79758 0.81203 0.64465 0.0
C1275 C 0.81453 0.76266 0.6398 0.0
C1276 C 0.81107 0.75537 0.66657 0.0
H1277 H 0.81181 0.79559 0.60844 0.0
H1278 H 0.823 0.7471 0.62702 0.0
S1279 S 0.77995 0.80095 0.71532 0.0
N1280 N 0.78132 0.82239 0.68797 0.0
N1281 N 0.79318 0.76976 0.70798 0.0
C1282 C 0.79972 0.77604 0.68227 0.0
C1283 C 0.79306 0.80442 0.67135 0.0
C1284 C 0.96944 0.80115 0.6628 0.0
C1285 C 1.00307 0.80061 0.6549 0.0
C1286 C 0.93452 0.76761 0.66789 0.0
C1287 C 0.93221 0.73237 0.66556 0.0
H1288 H 0.97014 0.82773 0.66519 0.0
H1289 H 0.90917 0.76935 0.67342 0.0
S1290 S 0.01257 0.71603 0.6461 0.0
N1291 N 0.0323 0.76231 0.64544 0.0
N1292 N 0.96678 0.69919 0.65482 0.0
C1293 C 0.96577 0.73162 0.65761 0.0
C1294 C 1.00128 0.76578 0.65248 0.0
C1295 C 0.20197 0.16269 0.66538 0.0
C1296 C 0.20182 0.19613 0.65937 0.0
C1297 C 0.23701 0.16257 0.6696 0.0
C1298 C 0.27324 0.19603 0.66833 0.0
H1299 H 0.17476 0.13643 0.66714 0.0
H1300 H 0.23564 0.13609 0.67392 0.0
S1301 S 0.28844 0.29096 0.65302 0.0
N1302 N 0.24076 0.26337 0.65213 0.0
N1303 N 0.30647 0.26335 0.66002 0.0
C1304 C 0.27332 0.2295 0.6619 0.0
C1305 C 0.23767 0.22956 0.65761 0.0
C1306 C 0.8123 0.01115 0.67624 0.0
C1307 C 0.82031 0.00559 0.65077 0.0
C1308 C 0.81407 0.04485 0.68353 0.0
C1309 C 0.82399 0.07411 0.66563 0.0
H1310 H 0.80603 0.98987 0.69085 0.0
H1311 H 0.80823 0.04821 0.70341 0.0
S1312 S 0.84572 0.07229 0.59616 0.0
N1313 N 0.83687 0.03092 0.60731 0.0
N1314 N 0.84024 0.09448 0.62096 0.0
C1315 C 0.83032 0.06808 0.63978 0.0
C1316 C 0.82862 0.03374 0.63238 0.0
C1317 C 0.49282 0.32588 0.70889 0.0
C1318 C 0.48494 0.35068 0.72263 0.0
C1319 C 0.46358 0.28897 0.70393 0.0
C1320 C 0.42503 0.27513 0.71246 0.0
H1321 H 0.52168 0.33538 0.70121 0.0
H1322 H 0.47141 0.27142 0.69285 0.0
S1323 S 0.39013 0.3292 0.75053 0.0
N1324 N 0.43672 0.35938 0.74555 0.0
N1325 N 0.38135 0.28954 0.73658 0.0
C1326 C 0.41712 0.29953 0.7271 0.0
C1327 C 0.44715 0.33747 0.73203 0.0
C1328 C 0.67673 0.10471 0.71531 0.0
C1329 C 0.67043 0.13551 0.71581 0.0
C1330 C 0.71431 0.1099 0.71139 0.0
C1331 C 0.74688 0.14596 0.70716 0.0
H1332 H 0.65249 0.07642 0.71774 0.0
H1333 H 0.71785 0.08535 0.71134 0.0
S1334 S 0.74545 0.23571 0.70836 0.0
N1335 N 0.69959 0.20318 0.71275 0.0
N1336 N 0.76997 0.21307 0.70562 0.0
C1337 C 0.74079 0.17695 0.7081 0.0
C1338 C 0.70261 0.17163 0.71225 0.0
C1339 C 0.88222 0.54869 0.72936 0.0
C1340 C 0.90638 0.54579 0.71077 0.0
C1341 C 0.86557 0.57153 0.72482 0.0
C1342 C 0.87222 0.59142 0.70142 0.0
H1343 H 0.87613 0.53326 0.74738 0.0
H1344 H 0.84712 0.57334 0.7395 0.0
S1345 S 0.93575 0.59504 0.64772 0.0
N1346 N 0.93756 0.56573 0.66888 0.0
N1347 N 0.90673 0.60873 0.66051 0.0
C1348 C 0.89687 0.58908 0.68304 0.0
C1349 C 0.91385 0.56614 0.68768 0.0
C1350 C 0.43762 0.92117 0.22489 0.0
C1351 C 0.46182 0.92583 0.2462 0.0
C1352 C 0.45246 0.94195 0.20179 0.0
C1353 C 0.49222 0.96855 0.19892 0.0
H1354 H 0.4067 0.90155 0.22615 0.0
H1355 H 0.43237 0.93817 0.18643 0.0
S1356 S 0.56874 0.98997 0.24788 0.0
N1357 N 0.52817 0.95854 0.26217 0.0
N1358 N 0.55598 0.99629 0.2188 0.0
C1359 C 0.51697 0.97237 0.21963 0.0
C1360 C 0.50188 0.9514 0.24316 0.0
C1361 C 0.03942 0.5308 0.24518 0.0
C1362 C 0.07052 0.52356 0.2465 0.0
C1363 C 0.01761 0.5241 0.22255 0.0
C1364 C 0.02569 0.50965 0.20021 0.0
H1365 H 0.03092 0.54051 0.26206 0.0
H1366 H 0.99373 0.52978 0.22273 0.0
S1367 S 0.10598 0.48854 0.19285 0.0
N1368 N 0.11034 0.50405 0.22271 0.0
N1369 N 0.06814 0.4896 0.18066 0.0
C1370 C 0.05754 0.50344 0.20097 0.0
C1371 C 0.0801 0.51072 0.22397 0.0
C1372 C 0.48425 0.51362 0.24337 0.0
C1373 C 0.48369 0.54748 0.24618 0.0
C1374 C 0.49568 0.50448 0.22001 0.0
C1375 C 0.50693 0.52869 0.19835 0.0
H1376 H 0.47766 0.49485 0.25972 0.0
H1377 H 0.49673 0.4786 0.21916 0.0
S1378 S 0.50641 0.61888 0.19478 0.0
N1379 N 0.49185 0.60364 0.22449 0.0
N1380 N 0.51415 0.58697 0.18094 0.0
C1381 C 0.50444 0.56166 0.20049 0.0
C1382 C 0.49274 0.57094 0.22428 0.0
C1383 C 0.98947 0.44981 0.80596 0.0
C1384 C 0.96293 0.46166 0.79912 0.0
C1385 C 0.00939 0.46022 0.82946 0.0
C1386 C 1.00359 0.48286 0.84721 0.0
H1387 H 0.99565 0.433 0.79276 0.0
H1388 H 0.02972 0.45058 0.83371 0.0
S1389 S 0.93646 0.52051 0.83905 0.0
N1390 N 0.93104 0.49642 0.81238 0.0
N1391 N 0.96895 0.51645 0.85653 0.0
C1392 C 0.97665 0.49442 0.84089 0.0
C1393 C 0.95637 0.48387 0.81683 0.0
C1394 C 0.54325 0.46815 0.81764 0.0
C1395 C 0.55765 0.49636 0.79841 0.0
C1396 C 0.52683 0.47226 0.8407 0.0
C1397 C 0.5236 0.50446 0.84521 0.0
H1398 H 0.54473 0.44272 0.81485 0.0
H1399 H 0.51562 0.44964 0.85478 0.0
S1400 S 0.55708 0.58656 0.80123 0.0
N1401 N 0.56765 0.55769 0.78568 0.0
N1402 N 0.5371 0.56539 0.8288 0.0
C1403 C 0.53826 0.53297 0.82627 0.0
C1404 C 0.55518 0.52894 0.80297 0.0
C1405 C 0.52727 0.04016 0.79888 0.0
C1406 C 0.52464 0.07305 0.79695 0.0
C1407 C 0.51751 0.01898 0.82192 0.0
C1408 C 0.50495 0.02986 0.84415 0.0
H1409 H 0.53523 0.02974 0.78211 0.0
H1410 H 0.5189 0.99325 0.82211 0.0
S1411 S 0.49741 0.1162 0.84998 0.0
N1412 N 0.51194 0.11737 0.81994 0.0
N1413 N 0.49319 0.07751 0.86298 0.0
C1414 C 0.50427 0.06384 0.84284 0.0
C1415 C 0.51409 0.08533 0.81934 0.0
C1416 C 0.10323 0.25808 0.5587 0.0
C1417 C 0.1269 0.26294 0.58035 0.0
C1418 C 0.1187 0.2785 0.53555 0.0
C1419 C 0.15856 0.30491 0.53297 0.0
H1420 H 0.07228 0.23852 0.5597 0.0
H1421 H 0.09901 0.27453 0.51987 0.0
S1422 S 0.23381 0.32686 0.58301 0.0
N1423 N 0.19284 0.29576 0.59705 0.0
N1424 N 0.22183 0.33278 0.55359 0.0
C1425 C 0.18277 0.30901 0.55409 0.0
C1426 C 0.16704 0.28842 0.57766 0.0
C1427 C 0.74462 0.84086 0.55604 0.0
C1428 C 0.74227 0.86125 0.57716 0.0
C1429 C 0.722 0.83461 0.53379 0.0
C1430 C 0.69587 0.8483 0.53175 0.0
H1431 H 0.76432 0.82977 0.55664 0.0
H1432 H 0.72446 0.81829 0.51826 0.0
S1433 S 0.67915 0.90404 0.58129 0.0
N1434 N 0.71154 0.89511 0.59447 0.0
N1435 N 0.67003 0.88438 0.5525 0.0
C1436 C 0.69359 0.86915 0.55258 0.0
C1437 C 0.71653 0.87542 0.57525 0.0
C1438 C 0.13331 0.86881 0.55906 0.0
C1439 C 0.15826 0.88207 0.58057 0.0
C1440 C 0.14405 0.85735 0.53627 0.0
C1441 C 0.17999 0.85836 0.5342 0.0
H1442 H 0.10561 0.86794 0.55967 0.0
H1443 H 0.12386 0.84716 0.52029 0.0
S1444 S 0.25561 0.89045 0.58506 0.0
N1445 N 0.22018 0.89468 0.59835 0.0
N1446 N 0.24067 0.87438 0.55568 0.0
C1447 C 0.20505 0.87153 0.55562 0.0
C1448 C 0.19413 0.88301 0.57871 0.0
C1449 C 0.6576 0.82079 0.1356 0.0
C1450 C 0.61971 0.7902 0.13275 0.0
C1451 C 0.67743 0.82757 0.1591 0.0
C1452 C 0.66017 0.80408 0.18071 0.0
H1453 H 0.67282 0.8386 0.11922 0.0
H1454 H 0.70695 0.85088 0.16014 0.0
S1455 S 0.55996 0.72242 0.18399 0.0
N1456 N 0.56434 0.73823 0.15412 0.0
N1457 N 0.60194 0.75024 0.19808 0.0
C1458 C 0.62156 0.7745 0.17848 0.0
C1459 C 0.60131 0.7677 0.15455 0.0
C1460 C 0.21539 0.80034 0.15478 0.0
C1461 C 0.22656 0.82565 0.13379 0.0
C1462 C 0.19958 0.80615 0.17751 0.0
C1463 C 0.19386 0.83725 0.18004 0.0
H1464 H 0.21918 0.77598 0.15372 0.0
H1465 H 0.19103 0.78571 0.193 0.0
S1466 S 0.21851 0.91201 0.1309 0.0
N1467 N 0.23062 0.88302 0.11715 0.0
N1468 N 0.20165 0.89419 0.15979 0.0
C1469 C 0.20519 0.86288 0.15928 0.0
C1470 C 0.22134 0.85705 0.13623 0.0
C1471 C 0.21515 0.41863 0.15227 0.0
C1472 C 0.18909 0.40663 0.13129 0.0
C1473 C 0.20647 0.39708 0.17527 0.0
C1474 C 0.17154 0.3625 0.17811 0.0
H1475 H 0.24222 0.4451 0.15103 0.0
H1476 H 0.22759 0.40716 0.19071 0.0
S1477 S 0.09356 0.31838 0.129 0.0
N1478 N 0.12714 0.35733 0.11498 0.0
N1479 N 0.11047 0.31798 0.15799 0.0
C1480 C 0.14527 0.35047 0.15731 0.0
C1481 C 0.15413 0.37213 0.13402 0.0
C1482 C 0.8041 0.58593 0.89356 0.0
C1483 C 0.7914 0.60093 0.91335 0.0
C1484 C 0.81934 0.60545 0.87002 0.0
C1485 C 0.82304 0.64102 0.86546 0.0
H1486 H 0.80212 0.55882 0.89626 0.0
H1487 H 0.82936 0.59313 0.8556 0.0
S1488 S 0.79424 0.69283 0.91079 0.0
N1489 N 0.78378 0.65377 0.92647 0.0
N1490 N 0.81206 0.68999 0.88261 0.0
C1491 C 0.81014 0.65607 0.88498 0.0
C1492 C 0.79447 0.63622 0.90876 0.0
C1493 C 0.36578 0.19608 0.9132 0.0
C1494 C 0.396 0.18764 0.91514 0.0
C1495 C 0.34517 0.19055 0.89012 0.0
C1496 C 0.35355 0.17603 0.86793 0.0
H1497 H 0.35715 0.2061 0.92986 0.0
H1498 H 0.3221 0.19737 0.8898 0.0
S1499 S 0.43148 0.15141 0.86227 0.0
N1500 N 0.43518 0.16661 0.89215 0.0
N1501 N 0.39497 0.15407 0.84935 0.0
C1502 C 0.38431 0.16828 0.8694 0.0
C1503 C 0.40573 0.17447 0.89283 0.0
C1504 C 0.80864 0.18326 0.90769 0.0
C1505 C 0.81272 0.21918 0.91047 0.0
C1506 C 0.81966 0.17276 0.88471 0.0
C1507 C 0.83499 0.19761 0.86343 0.0
H1508 H 0.79853 0.16371 0.92379 0.0
H1509 H 0.81706 0.1452 0.88382 0.0
S1510 S 0.84806 0.29372 0.86002 0.0
N1511 N 0.83009 0.27848 0.88916 0.0
N1512 N 0.85152 0.25914 0.84639 0.0
C1513 C 0.83735 0.23291 0.86555 0.0
C1514 C 0.82613 0.24358 0.88892 0.0
C1515 C 0.32307 0.11701 0.47316 0.0
C1516 C 0.29432 0.12619 0.46679 0.0
C1517 C 0.34337 0.1285 0.49645 0.0
C1518 C 0.33577 0.14961 0.51448 0.0
H1519 H 0.33049 0.10128 0.45978 0.0
H1520 H 0.36531 0.1208 0.50037 0.0
S1521 S 0.26297 0.18062 0.50743 0.0
N1522 N 0.25878 0.15717 0.48063 0.0
N1523 N 0.29733 0.17917 0.5245 0.0
C1524 C 0.30682 0.15871 0.50857 0.0
C1525 C 0.28616 0.14708 0.48468 0.0
C1526 C 0.90801 0.1736 0.48352 0.0
C1527 C 0.88416 0.1595 0.4615 0.0
C1528 C 0.89382 0.17963 0.50692 0.0
C1529 C 0.85517 0.17187 0.5093 0.0
H1530 H 0.9381 0.18048 0.48261 0.0
H1531 H 0.91366 0.19168 0.52297 0.0
S1532 S 0.77987 0.13238 0.45821 0.0
N1533 N 0.81942 0.13725 0.44411 0.0
N1534 N 0.79249 0.14662 0.48819 0.0
C1535 C 0.83062 0.15633 0.48781 0.0
C1536 C 0.84511 0.15062 0.46395 0.0
C1537 C 0.84855 0.7496 0.48509 0.0
C1538 C 0.8645 0.74063 0.46372 0.0
C1539 C 0.83872 0.72846 0.50814 0.0
C1540 C 0.84406 0.69716 0.51076 0.0
H1541 H 0.84261 0.77263 0.48375 0.0
H1542 H 0.82513 0.73561 0.52356 0.0
S1543 S 0.88805 0.66373 0.46164 0.0
N1544 N 0.88747 0.69961 0.44751 0.0
N1545 N 0.86939 0.66019 0.49072 0.0
C1546 C 0.86174 0.68901 0.49004 0.0
C1547 C 0.87194 0.71067 0.46662 0.0
loop_
_geom_bond_atom_site_label_1
_geom_bond_atom_site_label_2
_geom_bond_distance
_geom_bond_site_symmetry_2
_ccdc_geom_bond_type
H0 C3 0.929 . S
H1 C6 0.929 . S
H2 C8 0.930 . S
C3 H0 0.929 . S
C3 C4 1.398 . S
C3 C5 1.396 . S
C4 C3 1.398 . S
C4 C8 1.407 . S
C5 C3 1.396 . S
C5 C6 1.394 . S
C6 H1 0.929 . S
C6 C5 1.394 . S
C6 C7 1.382 . S
C7 C6 1.382 . S
C7 C8 1.392 . S
C7 N9 1.420 . S
C8 H2 0.930 . S
C8 C4 1.407 . S
C8 C7 1.392 . S
N9 C7 1.420 . S
N9 C10 1.244 . S
C10 N9 1.244 . S
H11 C14 0.929 . S
H12 C17 0.929 . S
H13 C19 0.930 . S
C14 H11 0.929 . S
C14 C15 1.398 . S
C14 C16 1.396 . S
C15 C14 1.398 . S
C15 C19 1.407 . S
C16 C14 1.396 . S
C16 C17 1.394 . S
C17 H12 0.929 . S
C17 C16 1.394 . S
C17 C18 1.382 . S
C18 C17 1.382 . S
C18 C19 1.392 . S
C18 N20 1.420 . S
C19 H13 0.930 . S
C19 C15 1.407 . S
C19 C18 1.392 . S
N20 C18 1.420 . S
N20 C21 1.244 . S
C21 N20 1.244 . S
H22 C25 0.929 . S
H23 C28 0.929 . S
H24 C30 0.930 . S
C25 H22 0.929 . S
C25 C26 1.398 . S
C25 C27 1.396 . S
C26 C25 1.398 . S
C26 C30 1.407 . S
C27 C25 1.396 . S
C27 C28 1.394 . S
C28 H23 0.929 . S
C28 C27 1.394 . S
C28 C29 1.382 . S
C29 C28 1.382 . S
C29 C30 1.392 . S
C29 N31 1.420 . S
C30 H24 0.930 . S
C30 C26 1.407 . S
C30 C29 1.392 . S
N31 C29 1.420 . S
N31 C32 1.244 . S
C32 N31 1.244 . S
H33 C36 0.929 . S
H34 C39 0.929 . S
H35 C41 0.930 . S
C36 H33 0.929 . S
C36 C37 1.398 . S
C36 C38 1.396 . S
C37 C36 1.398 . S
C37 C41 1.407 . S
C38 C36 1.396 . S
C38 C39 1.394 . S
C39 H34 0.929 . S
C39 C38 1.394 . S
C39 C40 1.382 . S
C40 C39 1.382 . S
C40 C41 1.392 . S
C40 N42 1.420 . S
C41 H35 0.930 . S
C41 C37 1.407 . S
C41 C40 1.392 . S
N42 C40 1.420 . S
N42 C43 1.244 . S
C43 N42 1.244 . S
H44 C47 0.929 . S
H45 C50 0.929 . S
H46 C52 0.930 . S
C47 H44 0.929 . S
C47 C48 1.398 . S
C47 C49 1.396 . S
C48 C47 1.398 . S
C48 C52 1.407 . S
C49 C47 1.396 . S
C49 C50 1.394 . S
C50 H45 0.929 . S
C50 C49 1.394 . S
C50 C51 1.382 . S
C51 C50 1.382 . S
C51 C52 1.392 . S
C51 N53 1.420 . S
C52 H46 0.930 . S
C52 C48 1.407 . S
C52 C51 1.392 . S
N53 C51 1.420 . S
N53 C54 1.244 . S
C54 N53 1.244 . S
H55 C58 0.929 . S
H56 C61 0.929 . S
H57 C63 0.930 . S
C58 H55 0.929 . S
C58 C59 1.398 . S
C58 C60 1.396 . S
C59 C58 1.398 . S
C59 C63 1.407 . S
C60 C58 1.396 . S
C60 C61 1.394 . S
C61 H56 0.929 . S
C61 C60 1.394 . S
C61 C62 1.382 . S
C62 C61 1.382 . S
C62 C63 1.392 . S
C62 N64 1.420 . S
C63 H57 0.930 . S
C63 C59 1.407 . S
C63 C62 1.392 . S
N64 C62 1.420 . S
N64 C65 1.244 . S
C65 N64 1.244 . S
H66 C69 0.929 . S
H67 C72 0.929 . S
H68 C74 0.930 . S
C69 H66 0.929 . S
C69 C70 1.398 . S
C69 C71 1.396 . S
C70 C69 1.398 . S
C70 C74 1.407 . S
C71 C69 1.396 . S
C71 C72 1.394 . S
C72 H67 0.929 . S
C72 C71 1.394 . S
C72 C73 1.382 . S
C73 C72 1.382 . S
C73 C74 1.392 . S
C73 N75 1.420 . S
C74 H68 0.930 . S
C74 C70 1.407 . S
C74 C73 1.392 . S
N75 C73 1.420 . S
N75 C76 1.244 . S
C76 N75 1.244 . S
H77 C80 0.929 . S
H78 C83 0.929 . S
H79 C85 0.930 . S
C80 H77 0.929 . S
C80 C81 1.398 . S
C80 C82 1.396 . S
C81 C80 1.398 . S
C81 C85 1.407 . S
C82 C80 1.396 . S
C82 C83 1.394 . S
C83 H78 0.929 . S
C83 C82 1.394 . S
C83 C84 1.382 . S
C84 C83 1.382 . S
C84 C85 1.392 . S
C84 N86 1.420 . S
C85 H79 0.930 . S
C85 C81 1.407 . S
C85 C84 1.392 . S
N86 C84 1.420 . S
N86 C87 1.244 . S
C87 N86 1.244 . S
H88 C91 0.929 . S
H89 C94 0.929 . S
H90 C96 0.930 . S
C91 H88 0.929 . S
C91 C92 1.398 . S
C91 C93 1.396 . S
C92 C91 1.398 . S
C92 C96 1.407 . S
C93 C91 1.396 . S
C93 C94 1.394 . S
C94 H89 0.929 . S
C94 C93 1.394 . S
C94 C95 1.382 . S
C95 C94 1.382 . S
C95 C96 1.392 . S
C95 N97 1.420 . S
C96 H90 0.930 . S
C96 C92 1.407 . S
C96 C95 1.392 . S
N97 C95 1.420 . S
N97 C98 1.244 . S
C98 N97 1.244 . S
H99 C102 0.929 . S
H100 C105 0.929 . S
H101 C107 0.930 . S
C102 H99 0.929 . S
C102 C103 1.398 . S
C102 C104 1.396 . S
C103 C102 1.398 . S
C103 C107 1.407 . S
C104 C102 1.396 . S
C104 C105 1.394 . S
C105 H100 0.929 . S
C105 C104 1.394 . S
C105 C106 1.382 . S
C106 C105 1.382 . S
C106 C107 1.392 . S
C106 N108 1.420 . S
C107 H101 0.930 . S
C107 C103 1.407 . S
C107 C106 1.392 . S
N108 C106 1.420 . S
N108 C109 1.244 . S
C109 N108 1.244 . S
H110 C113 0.929 . S
H111 C116 0.929 . S
H112 C118 0.930 . S
C113 H110 0.929 . S
C113 C114 1.398 . S
C113 C115 1.396 . S
C114 C113 1.398 . S
C114 C118 1.407 . S
C115 C113 1.396 . S
C115 C116 1.394 . S
C116 H111 0.929 . S
C116 C115 1.394 . S
C116 C117 1.382 . S
C117 C116 1.382 . S
C117 C118 1.392 . S
C117 N119 1.420 . S
C118 H112 0.930 . S
C118 C114 1.407 . S
C118 C117 1.392 . S
N119 C117 1.420 . S
N119 C120 1.244 . S
C120 N119 1.244 . S
H121 C124 0.929 . S
H122 C127 0.929 . S
H123 C129 0.930 . S
C124 H121 0.929 . S
C124 C125 1.398 . S
C124 C126 1.396 . S
C125 C124 1.398 . S
C125 C129 1.407 . S
C126 C124 1.396 . S
C126 C127 1.394 . S
C127 H122 0.929 . S
C127 C126 1.394 . S
C127 C128 1.382 . S
C128 C127 1.382 . S
C128 C129 1.392 . S
C128 N130 1.420 . S
C129 H123 0.930 . S
C129 C125 1.407 . S
C129 C128 1.392 . S
N130 C128 1.420 . S
N130 C131 1.244 . S
C131 N130 1.244 . S
H132 C135 0.929 . S
H133 C138 0.929 . S
H134 C140 0.930 . S
C135 H132 0.929 . S
C135 C136 1.398 . S
C135 C137 1.396 . S
C136 C135 1.398 . S
C136 C140 1.407 . S
C137 C135 1.396 . S
C137 C138 1.394 . S
C138 H133 0.929 . S
C138 C137 1.394 . S
C138 C139 1.382 . S
C139 C138 1.382 . S
C139 C140 1.392 . S
C139 N141 1.420 . S
C140 H134 0.930 . S
C140 C136 1.407 . S
C140 C139 1.392 . S
N141 C139 1.420 . S
N141 C142 1.244 . S
C142 N141 1.244 . S
H143 C146 0.929 . S
H144 C149 0.929 . S
H145 C151 0.930 . S
C146 H143 0.929 . S
C146 C147 1.398 . S
C146 C148 1.396 . S
C147 C146 1.398 . S
C147 C151 1.407 . S
C148 C146 1.396 . S
C148 C149 1.394 . S
C149 H144 0.929 . S
C149 C148 1.394 . S
C149 C150 1.382 . S
C150 C149 1.382 . S
C150 C151 1.392 . S
C150 N152 1.420 . S
C151 H145 0.930 . S
C151 C147 1.407 . S
C151 C150 1.392 . S
N152 C150 1.420 . S
N152 C153 1.244 . S
C153 N152 1.244 . S
H154 C157 0.929 . S
H155 C160 0.929 . S
H156 C162 0.930 . S
C157 H154 0.929 . S
C157 C158 1.398 . S
C157 C159 1.396 . S
C158 C157 1.398 . S
C158 C162 1.407 . S
C159 C157 1.396 . S
C159 C160 1.394 . S
C160 H155 0.929 . S
C160 C159 1.394 . S
C160 C161 1.382 . S
C161 C160 1.382 . S
C161 C162 1.392 . S
C161 N163 1.420 . S
C162 H156 0.930 . S
C162 C158 1.407 . S
C162 C161 1.392 . S
N163 C161 1.420 . S
N163 C164 1.244 . S
C164 N163 1.244 . S
H165 C168 0.929 . S
H166 C171 0.929 . S
H167 C173 0.930 . S
C168 H165 0.929 . S
C168 C169 1.398 . S
C168 C170 1.396 . S
C169 C168 1.398 . S
C169 C173 1.407 . S
C170 C168 1.396 . S
C170 C171 1.394 . S
C171 H166 0.929 . S
C171 C170 1.394 . S
C171 C172 1.382 . S
C172 C171 1.382 . S
C172 C173 1.392 . S
C172 N174 1.420 . S
C173 H167 0.930 . S
C173 C169 1.407 . S
C173 C172 1.392 . S
N174 C172 1.420 . S
N174 C175 1.244 . S
C175 N174 1.244 . S
H176 C179 0.929 . S
H177 C182 0.929 . S
H178 C184 0.930 . S
C179 H176 0.929 . S
C179 C180 1.398 . S
C179 C181 1.396 . S
C180 C179 1.398 . S
C180 C184 1.407 . S
C181 C179 1.396 . S
C181 C182 1.394 . S
C182 H177 0.929 . S
C182 C181 1.394 . S
C182 C183 1.382 . S
C183 C182 1.382 . S
C183 C184 1.392 . S
C183 N185 1.420 . S
C184 H178 0.930 . S
C184 C180 1.407 . S
C184 C183 1.392 . S
N185 C183 1.420 . S
N185 C186 1.244 . S
C186 N185 1.244 . S
H187 C190 0.929 . S
H188 C193 0.929 . S
H189 C195 0.930 . S
C190 H187 0.929 . S
C190 C191 1.398 . S
C190 C192 1.396 . S
C191 C190 1.398 . S
C191 C195 1.407 . S
C192 C190 1.396 . S
C192 C193 1.394 . S
C193 H188 0.929 . S
C193 C192 1.394 . S
C193 C194 1.382 . S
C194 C193 1.382 . S
C194 C195 1.392 . S
C194 N196 1.420 . S
C195 H189 0.930 . S
C195 C191 1.407 . S
C195 C194 1.392 . S
N196 C194 1.420 . S
N196 C197 1.244 . S
C197 N196 1.244 . S
Gd198 N229 2.661 . S
Gd198 N235 2.601 . S
Gd198 O242 2.545 . S
Gd198 O243 2.606 1_545 S
Gd198 O245 2.429 . S
Gd198 O246 2.545 1_545 S
Gd198 O247 2.412 1_545 S
Gd198 O249 2.362 . S
Gd198 O250 2.324 1_545 S
Gd198 C257 2.828 . S
Gd199 N208 2.661 . S
Gd199 N212 2.601 . S
Gd199 O243 2.362 1_556 S
Gd199 O244 2.324 1_565 S
Gd199 O248 2.545 . S
Gd199 O249 2.606 1_566 S
Gd199 O251 2.429 . S
Gd199 O252 2.545 1_565 S
Gd199 O253 2.412 1_565 S
Gd199 C266 2.828 . S
C200 C203 1.417 . S
C200 C205 1.431 . S
C200 C206 1.412 . S
C201 C204 1.437 . S
C201 C205 1.317 . S
C201 H220 0.929 . S
C202 C203 1.426 . S
C202 C204 1.413 . S
C202 N212 1.359 . S
C203 C200 1.417 . S
C203 C202 1.426 . S
C203 N208 1.350 . S
C204 C201 1.437 . S
C204 C202 1.413 . S
C204 C214 1.391 . S
C205 C200 1.431 . S
C205 C201 1.317 . S
C205 H216 0.930 . S
C206 C200 1.412 . S
C206 C207 1.355 . S
C206 H218 0.930 . S
C207 C206 1.355 . S
C207 C209 1.402 . S
C207 H219 0.930 . S
N208 Gd199 2.661 . S
N208 C203 1.350 . S
N208 C209 1.307 . S
C209 C207 1.402 . S
C209 N208 1.307 . S
C209 H210 0.930 . S
H210 C209 0.930 . S
C211 N212 1.334 . S
C211 C213 1.394 . S
C211 H215 0.930 . S
N212 Gd199 2.601 . S
N212 C202 1.359 . S
N212 C211 1.334 . S
C213 C211 1.394 . S
C213 C214 1.359 . S
C213 H225 0.930 . S
C214 C204 1.391 . S
C214 C213 1.359 . S
C214 H226 0.929 . S
H215 C211 0.930 . S
H216 C205 0.930 . S
H217 C234 0.930 . S
H218 C206 0.930 . S
H219 C207 0.930 . S
H220 C201 0.929 . S
H221 C239 0.930 . S
H222 C230 0.930 . S
H223 C231 0.930 . S
H224 C255 0.929 . S
H225 C213 0.930 . S
H226 C214 0.929 . S
H227 C256 0.930 . S
H228 C237 0.930 . S
N229 Gd198 2.661 . S
N229 C233 1.350 . S
N229 C234 1.307 . S
C230 H222 0.930 . S
C230 C231 1.355 . S
C230 C232 1.412 . S
C231 H223 0.930 . S
C231 C230 1.355 . S
C231 C234 1.402 . S
C232 C230 1.412 . S
C232 C233 1.417 . S
C232 C256 1.431 . S
C233 N229 1.350 . S
C233 C232 1.417 . S
C233 C236 1.426 . S
C234 H217 0.930 . S
C234 N229 1.307 . S
C234 C231 1.402 . S
N235 Gd198 2.601 . S
N235 C236 1.359 . S
N235 C239 1.334 . S
C236 C233 1.426 . S
C236 N235 1.359 . S
C236 C240 1.413 . S
C237 H228 0.930 . S
C237 C238 1.359 . S
C237 C239 1.394 . S
C238 C237 1.359 . S
C238 C240 1.391 . S
C238 H241 0.929 . S
C239 H221 0.930 . S
C239 N235 1.334 . S
C239 C237 1.394 . S
C240 C236 1.413 . S
C240 C238 1.391 . S
C240 C255 1.437 . S
H241 C238 0.929 . S
O242 Gd198 2.545 . S
O242 C257 1.258 . S
O243 Gd198 2.606 1_565 S
O243 Gd199 2.362 1_554 S
O243 C254 1.284 . S
O244 Gd199 2.324 1_545 S
O244 C264 1.254 . S
O245 Gd198 2.429 . S
O245 C264 1.268 1_554 S
O246 Gd198 2.545 1_565 S
O246 C254 1.250 . S
O247 Gd198 2.412 1_565 S
O247 C257 1.252 1_565 S
O248 Gd199 2.545 . S
O248 C266 1.258 . S
O249 Gd198 2.362 . S
O249 Gd199 2.606 1_544 S
O249 C265 1.284 1_554 S
O250 Gd198 2.324 1_565 S
O250 C273 1.254 . S
O251 Gd199 2.429 . S
O251 C273 1.268 1_556 S
O252 Gd199 2.545 1_545 S
O252 C265 1.250 . S
O253 Gd199 2.412 1_545 S
O253 C266 1.252 1_545 S
C254 O243 1.284 . S
C254 O246 1.250 . S
C255 H224 0.929 . S
C255 C240 1.437 . S
C255 C256 1.317 . S
C256 H227 0.930 . S
C256 C232 1.431 . S
C256 C255 1.317 . S
C257 Gd198 2.828 . S
C257 O242 1.258 . S
C257 O247 1.252 1_545 S
C257 C258 1.497 . S
C258 C257 1.497 . S
C258 C259 1.395 . S
C258 C260 1.380 1_545 S
C259 C258 1.395 . S
C259 C262 1.398 . S
C259 H274 0.930 . S
C260 C258 1.380 1_565 S
C260 C261 1.391 . S
C260 H275 0.930 . S
C261 C260 1.391 . S
C261 C263 1.387 . S
C262 C259 1.398 . S
C262 C263 1.380 1_545 S
C262 H276 0.930 . S
C263 C261 1.387 . S
C263 C262 1.380 1_565 S
C263 H277 0.930 . S
C264 O244 1.254 . S
C264 O245 1.268 1_556 S
C265 O249 1.284 1_556 S
C265 O252 1.250 . S
C266 Gd199 2.828 . S
C266 O248 1.258 . S
C266 O253 1.252 1_565 S
C266 C267 1.497 1_565 S
C267 C266 1.497 1_545 S
C267 C268 1.395 1_545 S
C267 C269 1.380 . S
C268 C267 1.395 1_565 S
C268 C271 1.398 . S
C268 H278 0.930 . S
C269 C267 1.380 . S
C269 C270 1.391 . S
C269 H279 0.930 . S
C270 C269 1.391 . S
C270 C272 1.387 . S
C271 C268 1.398 . S
C271 C272 1.380 1_565 S
C271 H280 0.930 . S
C272 C270 1.387 . S
C272 C271 1.380 1_545 S
C272 H281 0.930 . S
C273 O250 1.254 . S
C273 O251 1.268 1_554 S
H274 C259 0.930 . S
H275 C260 0.930 . S
H276 C262 0.930 . S
H277 C263 0.930 . S
H278 C268 0.930 . S
H279 C269 0.930 . S
H280 C271 0.930 . S
H281 C272 0.930 . S
Gd282 N313 2.661 . S
Gd282 N319 2.601 . S
Gd282 O326 2.545 . S
Gd282 O327 2.606 1_655 S
Gd282 O329 2.429 . S
Gd282 O330 2.545 1_655 S
Gd282 O331 2.412 1_655 S
Gd282 O333 2.362 . S
Gd282 O334 2.324 1_655 S
Gd282 C341 2.828 . S
Gd283 N292 2.661 . S
Gd283 N296 2.601 . S
Gd283 O327 2.362 1_556 S
Gd283 O328 2.324 1_455 S
Gd283 O332 2.545 . S
Gd283 O333 2.606 1_456 S
Gd283 O335 2.429 . S
Gd283 O336 2.545 1_455 S
Gd283 O337 2.412 1_455 S
Gd283 C350 2.828 . S
C284 C287 1.417 . S
C284 C289 1.431 . S
C284 C290 1.412 . S
C285 C288 1.437 . S
C285 C289 1.317 . S
C285 H304 0.929 . S
C286 C287 1.426 . S
C286 C288 1.413 . S
C286 N296 1.359 . S
C287 C284 1.417 . S
C287 C286 1.426 . S
C287 N292 1.350 . S
C288 C285 1.437 . S
C288 C286 1.413 . S
C288 C298 1.391 . S
C289 C284 1.431 . S
C289 C285 1.317 . S
C289 H300 0.930 . S
C290 C284 1.412 . S
C290 C291 1.355 . S
C290 H302 0.930 . S
C291 C290 1.355 . S
C291 C293 1.402 . S
C291 H303 0.930 . S
N292 Gd283 2.661 . S
N292 C287 1.350 . S
N292 C293 1.307 . S
C293 C291 1.402 . S
C293 N292 1.307 . S
C293 H294 0.930 . S
H294 C293 0.930 . S
C295 N296 1.334 . S
C295 C297 1.394 . S
C295 H299 0.930 . S
N296 Gd283 2.601 . S
N296 C286 1.359 . S
N296 C295 1.334 . S
C297 C295 1.394 . S
C297 C298 1.359 . S
C297 H309 0.930 . S
C298 C288 1.391 . S
C298 C297 1.359 . S
C298 H310 0.929 . S
H299 C295 0.930 . S
H300 C289 0.930 . S
H301 C318 0.930 . S
H302 C290 0.930 . S
H303 C291 0.930 . S
H304 C285 0.929 . S
H305 C323 0.930 . S
H306 C314 0.930 . S
H307 C315 0.930 . S
H308 C339 0.929 . S
H309 C297 0.930 . S
H310 C298 0.929 . S
H311 C340 0.930 . S
H312 C321 0.930 . S
N313 Gd282 2.661 . S
N313 C317 1.350 . S
N313 C318 1.307 . S
C314 H306 0.930 . S
C314 C315 1.355 . S
C314 C316 1.412 . S
C315 H307 0.930 . S
C315 C314 1.355 . S
C315 C318 1.402 . S
C316 C314 1.412 . S
C316 C317 1.417 . S
C316 C340 1.431 . S
C317 N313 1.350 . S
C317 C316 1.417 . S
C317 C320 1.426 . S
C318 H301 0.930 . S
C318 N313 1.307 . S
C318 C315 1.402 . S
N319 Gd282 2.601 . S
N319 C320 1.359 . S
N319 C323 1.334 . S
C320 C317 1.426 . S
C320 N319 1.359 . S
C320 C324 1.413 . S
C321 H312 0.930 . S
C321 C322 1.359 . S
C321 C323 1.394 . S
C322 C321 1.359 . S
C322 C324 1.391 . S
C322 H325 0.929 . S
C323 H305 0.930 . S
C323 N319 1.334 . S
C323 C321 1.394 . S
C324 C320 1.413 . S
C324 C322 1.391 . S
C324 C339 1.437 . S
H325 C322 0.929 . S
O326 Gd282 2.545 . S
O326 C341 1.258 . S
O327 Gd282 2.606 1_455 S
O327 Gd283 2.362 1_554 S
O327 C338 1.284 . S
O328 Gd283 2.324 1_655 S
O328 C348 1.254 . S
O329 Gd282 2.429 . S
O329 C348 1.268 1_554 S
O330 Gd282 2.545 1_455 S
O330 C338 1.250 . S
O331 Gd282 2.412 1_455 S
O331 C341 1.252 1_455 S
O332 Gd283 2.545 . S
O332 C350 1.258 . S
O333 Gd282 2.362 . S
O333 Gd283 2.606 1_654 S
O333 C349 1.284 1_554 S
O334 Gd282 2.324 1_455 S
O334 C357 1.254 . S
O335 Gd283 2.429 . S
O335 C357 1.268 1_556 S
O336 Gd283 2.545 1_655 S
O336 C349 1.250 . S
O337 Gd283 2.412 1_655 S
O337 C350 1.252 1_655 S
C338 O327 1.284 . S
C338 O330 1.250 . S
C339 H308 0.929 . S
C339 C324 1.437 . S
C339 C340 1.317 . S
C340 H311 0.930 . S
C340 C316 1.431 . S
C340 C339 1.317 . S
C341 Gd282 2.828 . S
C341 O326 1.258 . S
C341 O331 1.252 1_655 S
C341 C342 1.490 1_655 S
C342 C341 1.490 1_455 S
C342 C343 1.385 1_455 S
C342 C344 1.399 . S
C343 C342 1.385 1_655 S
C343 C346 1.398 . S
C343 H358 0.930 . S
C344 C342 1.399 . S
C344 C345 1.391 . S
C344 H359 0.930 . S
C345 C344 1.391 . S
C345 C347 1.387 . S
C346 C343 1.398 . S
C346 C347 1.380 1_655 S
C346 H360 0.930 . S
C347 C345 1.387 . S
C347 C346 1.380 1_455 S
C347 H361 0.930 . S
C348 O328 1.254 . S
C348 O329 1.268 1_556 S
C349 O333 1.284 1_556 S
C349 O336 1.250 . S
C350 Gd283 2.828 . S
C350 O332 1.258 . S
C350 O337 1.252 1_455 S
C350 C351 1.497 . S
C351 C350 1.497 . S
C351 C352 1.395 . S
C351 C353 1.380 1_455 S
C352 C351 1.395 . S
C352 C355 1.398 . S
C352 H362 0.930 . S
C353 C351 1.380 1_655 S
C353 C354 1.391 . S
C353 H363 0.930 . S
C354 C353 1.391 . S
C354 C356 1.387 . S
C355 C352 1.398 . S
C355 C356 1.380 1_455 S
C355 H364 0.930 . S
C356 C354 1.387 . S
C356 C355 1.380 1_655 S
C356 H365 0.930 . S
C357 O334 1.254 . S
C357 O335 1.268 1_554 S
H358 C343 0.930 . S
H359 C344 0.930 . S
H360 C346 0.930 . S
H361 C347 0.930 . S
H362 C352 0.930 . S
H363 C353 0.930 . S
H364 C355 0.930 . S
H365 C356 0.930 . S
Gd366 N397 2.661 . S
Gd366 N403 2.601 . S
Gd366 O410 2.545 . S
Gd366 O411 2.606 1_556 S
Gd366 O413 2.429 . S
Gd366 O414 2.545 . S
Gd366 O415 2.412 . S
Gd366 O417 2.362 1_556 S
Gd366 O418 2.324 . S
Gd366 C425 2.828 . S
Gd367 N376 2.661 . S
Gd367 N380 2.601 . S
Gd367 O411 2.362 . S
Gd367 O412 2.324 . S
Gd367 O416 2.545 . S
Gd367 O417 2.606 . S
Gd367 O419 2.429 . S
Gd367 O420 2.545 . S
Gd367 O421 2.412 . S
Gd367 C434 2.828 . S
C368 C371 1.417 . S
C368 C373 1.431 . S
C368 C374 1.412 . S
C369 C372 1.437 . S
C369 C373 1.317 . S
C369 H388 0.929 . S
C370 C371 1.426 . S
C370 C372 1.413 . S
C370 N380 1.359 . S
C371 C368 1.417 . S
C371 C370 1.426 . S
C371 N376 1.350 . S
C372 C369 1.437 . S
C372 C370 1.413 . S
C372 C382 1.391 . S
C373 C368 1.431 . S
C373 C369 1.317 . S
C373 H384 0.930 . S
C374 C368 1.412 . S
C374 C375 1.355 . S
C374 H386 0.930 . S
C375 C374 1.355 . S
C375 C377 1.402 . S
C375 H387 0.930 . S
N376 Gd367 2.661 . S
N376 C371 1.350 . S
N376 C377 1.307 . S
C377 C375 1.402 . S
C377 N376 1.307 . S
C377 H378 0.930 . S
H378 C377 0.930 . S
C379 N380 1.334 . S
C379 C381 1.394 . S
C379 H383 0.930 . S
N380 Gd367 2.601 . S
N380 C370 1.359 . S
N380 C379 1.334 . S
C381 C379 1.394 . S
C381 C382 1.359 . S
C381 H393 0.930 . S
C382 C372 1.391 . S
C382 C381 1.359 . S
C382 H394 0.929 . S
H383 C379 0.930 . S
H384 C373 0.930 . S
H385 C402 0.930 . S
H386 C374 0.930 . S
H387 C375 0.930 . S
H388 C369 0.929 . S
H389 C407 0.930 . S
H390 C398 0.930 . S
H391 C399 0.930 . S
H392 C423 0.929 . S
H393 C381 0.930 . S
H394 C382 0.929 . S
H395 C424 0.930 . S
H396 C405 0.930 . S
N397 Gd366 2.661 . S
N397 C401 1.350 . S
N397 C402 1.307 . S
C398 H390 0.930 . S
C398 C399 1.355 . S
C398 C400 1.412 . S
C399 H391 0.930 . S
C399 C398 1.355 . S
C399 C402 1.402 . S
C400 C398 1.412 . S
C400 C401 1.417 . S
C400 C424 1.431 . S
C401 N397 1.350 . S
C401 C400 1.417 . S
C401 C404 1.426 . S
C402 H385 0.930 . S
C402 N397 1.307 . S
C402 C399 1.402 . S
N403 Gd366 2.601 . S
N403 C404 1.359 . S
N403 C407 1.334 . S
C404 C401 1.426 . S
C404 N403 1.359 . S
C404 C408 1.413 . S
C405 H396 0.930 . S
C405 C406 1.359 . S
C405 C407 1.394 . S
C406 C405 1.359 . S
C406 C408 1.391 . S
C406 H409 0.929 . S
C407 H389 0.930 . S
C407 N403 1.334 . S
C407 C405 1.394 . S
C408 C404 1.413 . S
C408 C406 1.391 . S
C408 C423 1.437 . S
H409 C406 0.929 . S
O410 Gd366 2.545 . S
O410 C425 1.258 . S
O411 Gd366 2.606 1_554 S
O411 Gd367 2.362 . S
O411 C422 1.284 1_554 S
O412 Gd367 2.324 . S
O412 C432 1.254 . S
O413 Gd366 2.429 . S
O413 C432 1.268 1_556 S
O414 Gd366 2.545 . S
O414 C422 1.250 . S
O415 Gd366 2.412 . S
O415 C425 1.252 . S
O416 Gd367 2.545 . S
O416 C434 1.258 . S
O417 Gd366 2.362 1_554 S
O417 Gd367 2.606 . S
O417 C433 1.284 . S
O418 Gd366 2.324 . S
O418 C441 1.254 . S
O419 Gd367 2.429 . S
O419 C441 1.268 1_554 S
O420 Gd367 2.545 . S
O420 C433 1.250 . S
O421 Gd367 2.412 . S
O421 C434 1.252 . S
C422 O411 1.284 1_556 S
C422 O414 1.250 . S
C423 H392 0.929 . S
C423 C408 1.437 . S
C423 C424 1.317 . S
C424 H395 0.930 . S
C424 C400 1.431 . S
C424 C423 1.317 . S
C425 Gd366 2.828 . S
C425 O410 1.258 . S
C425 O415 1.252 . S
C425 C426 1.497 . S
C426 C425 1.497 . S
C426 C427 1.395 . S
C426 C428 1.380 . S
C427 C426 1.395 . S
C427 C430 1.398 . S
C427 H442 0.930 . S
C428 C426 1.380 . S
C428 C429 1.391 . S
C428 H443 0.930 . S
C429 C428 1.391 . S
C429 C431 1.387 . S
C430 C427 1.398 . S
C430 C431 1.380 . S
C430 H444 0.930 . S
C431 C429 1.387 . S
C431 C430 1.380 . S
C431 H445 0.930 . S
C432 O412 1.254 . S
C432 O413 1.268 1_554 S
C433 O417 1.284 . S
C433 O420 1.250 . S
C434 Gd367 2.828 . S
C434 O416 1.258 . S
C434 O421 1.252 . S
C434 C435 1.497 . S
C435 C434 1.497 . S
C435 C436 1.395 . S
C435 C437 1.380 . S
C436 C435 1.395 . S
C436 C439 1.398 . S
C436 H446 0.930 . S
C437 C435 1.380 . S
C437 C438 1.391 . S
C437 H447 0.930 . S
C438 C437 1.391 . S
C438 C440 1.387 . S
C439 C436 1.398 . S
C439 C440 1.380 . S
C439 H448 0.930 . S
C440 C438 1.387 . S
C440 C439 1.380 . S
C440 H449 0.930 . S
C441 O418 1.254 . S
C441 O419 1.268 1_556 S
H442 C427 0.930 . S
H443 C428 0.930 . S
H444 C430 0.930 . S
H445 C431 0.930 . S
H446 C436 0.930 . S
H447 C437 0.930 . S
H448 C439 0.930 . S
H449 C440 0.930 . S
Gd450 N481 2.661 . S
Gd450 N487 2.601 . S
Gd450 O494 2.545 . S
Gd450 O495 2.606 . S
Gd450 O497 2.429 . S
Gd450 O498 2.545 . S
Gd450 O499 2.412 . S
Gd450 O501 2.362 . S
Gd450 O502 2.324 . S
Gd450 C509 2.828 . S
Gd451 N460 2.661 . S
Gd451 N464 2.601 . S
Gd451 O495 2.362 . S
Gd451 O496 2.324 . S
Gd451 O500 2.545 . S
Gd451 O501 2.606 . S
Gd451 O503 2.429 . S
Gd451 O504 2.545 . S
Gd451 O505 2.412 . S
Gd451 C518 2.828 . S
C452 C455 1.417 1_655 S
C452 C457 1.431 . S
C452 C458 1.412 . S
C453 C456 1.437 1_655 S
C453 C457 1.317 . S
C453 H472 0.929 . S
C454 C455 1.426 . S
C454 C456 1.413 . S
C454 N464 1.359 . S
C455 C452 1.417 1_455 S
C455 C454 1.426 . S
C455 N460 1.350 . S
C456 C453 1.437 1_455 S
C456 C454 1.413 . S
C456 C466 1.391 . S
C457 C452 1.431 . S
C457 C453 1.317 . S
C457 H468 0.930 . S
C458 C452 1.412 . S
C458 C459 1.355 . S
C458 H470 0.930 . S
C459 C458 1.355 . S
C459 C461 1.402 1_655 S
C459 H471 0.930 . S
N460 Gd451 2.661 . S
N460 C455 1.350 . S
N460 C461 1.307 . S
C461 C459 1.402 1_455 S
C461 N460 1.307 . S
C461 H462 0.930 . S
H462 C461 0.930 . S
C463 N464 1.334 . S
C463 C465 1.394 . S
C463 H467 0.930 . S
N464 Gd451 2.601 . S
N464 C454 1.359 . S
N464 C463 1.334 . S
C465 C463 1.394 . S
C465 C466 1.359 . S
C465 H477 0.930 . S
C466 C456 1.391 . S
C466 C465 1.359 . S
C466 H478 0.929 . S
H467 C463 0.930 . S
H468 C457 0.930 . S
H469 C486 0.930 . S
H470 C458 0.930 . S
H471 C459 0.930 . S
H472 C453 0.929 . S
H473 C491 0.930 . S
H474 C482 0.930 . S
H475 C483 0.930 . S
H476 C507 0.929 . S
H477 C465 0.930 . S
H478 C466 0.929 . S
H479 C508 0.930 . S
H480 C489 0.930 . S
N481 Gd450 2.661 . S
N481 C485 1.350 . S
N481 C486 1.307 . S
C482 H474 0.930 . S
C482 C483 1.355 . S
C482 C484 1.412 . S
C483 H475 0.930 . S
C483 C482 1.355 . S
C483 C486 1.402 . S
C484 C482 1.412 . S
C484 C485 1.417 . S
C484 C508 1.431 . S
C485 N481 1.350 . S
C485 C484 1.417 . S
C485 C488 1.426 . S
C486 H469 0.930 . S
C486 N481 1.307 . S
C486 C483 1.402 . S
N487 Gd450 2.601 . S
N487 C488 1.359 . S
N487 C491 1.334 . S
C488 C485 1.426 . S
C488 N487 1.359 . S
C488 C492 1.413 . S
C489 H480 0.930 . S
C489 C490 1.359 . S
C489 C491 1.394 . S
C490 C489 1.359 . S
C490 C492 1.391 . S
C490 H493 0.929 . S
C491 H473 0.930 . S
C491 N487 1.334 . S
C491 C489 1.394 . S
C492 C488 1.413 . S
C492 C490 1.391 . S
C492 C507 1.437 . S
H493 C490 0.929 . S
O494 Gd450 2.545 . S
O494 C509 1.258 . S
O495 Gd450 2.606 . S
O495 Gd451 2.362 . S
O495 C506 1.284 . S
O496 Gd451 2.324 . S
O496 C516 1.254 . S
O497 Gd450 2.429 . S
O497 C516 1.268 . S
O498 Gd450 2.545 . S
O498 C506 1.250 . S
O499 Gd450 2.412 . S
O499 C509 1.252 . S
O500 Gd451 2.545 . S
O500 C518 1.258 . S
O501 Gd450 2.362 . S
O501 Gd451 2.606 . S
O501 C517 1.284 . S
O502 Gd450 2.324 . S
O502 C525 1.254 . S
O503 Gd451 2.429 . S
O503 C525 1.268 . S
O504 Gd451 2.545 . S
O504 C517 1.250 . S
O505 Gd451 2.412 . S
O505 C518 1.252 . S
C506 O495 1.284 . S
C506 O498 1.250 . S
C507 H476 0.929 . S
C507 C492 1.437 . S
C507 C508 1.317 . S
C508 H479 0.930 . S
C508 C484 1.431 . S
C508 C507 1.317 . S
C509 Gd450 2.828 . S
C509 O494 1.258 . S
C509 O499 1.252 . S
C509 C510 1.497 . S
C510 C509 1.497 . S
C510 C511 1.395 . S
C510 C512 1.380 . S
C511 C510 1.395 . S
C511 C514 1.398 . S
C511 H526 0.930 . S
C512 C510 1.380 . S
C512 C513 1.391 . S
C512 H527 0.930 . S
C513 C512 1.391 . S
C513 C515 1.387 . S
C514 C511 1.398 . S
C514 C515 1.380 . S
C514 H528 0.930 . S
C515 C513 1.387 . S
C515 C514 1.380 . S
C515 H529 0.930 . S
C516 O496 1.254 . S
C516 O497 1.268 . S
C517 O501 1.284 . S
C517 O504 1.250 . S
C518 Gd451 2.828 . S
C518 O500 1.258 . S
C518 O505 1.252 . S
C518 C519 1.497 . S
C519 C518 1.497 . S
C519 C520 1.395 . S
C519 C521 1.380 . S
C520 C519 1.395 . S
C520 C523 1.398 . S
C520 H530 0.930 . S
C521 C519 1.380 . S
C521 C522 1.391 . S
C521 H531 0.930 . S
C522 C521 1.391 . S
C522 C524 1.387 . S
C523 C520 1.398 . S
C523 C524 1.380 . S
C523 H532 0.930 . S
C524 C522 1.387 . S
C524 C523 1.380 . S
C524 H533 0.930 . S
C525 O502 1.254 . S
C525 O503 1.268 . S
H526 C511 0.930 . S
H527 C512 0.930 . S
H528 C514 0.930 . S
H529 C515 0.930 . S
H530 C520 0.930 . S
H531 C521 0.930 . S
H532 C523 0.930 . S
H533 C524 0.930 . S
Gd534 N565 2.661 . S
Gd534 N571 2.601 . S
Gd534 O578 2.545 . S
Gd534 O579 2.606 . S
Gd534 O581 2.429 . S
Gd534 O582 2.545 . S
Gd534 O583 2.412 . S
Gd534 O585 2.362 . S
Gd534 O586 2.324 . S
Gd534 C593 2.828 . S
Gd535 N544 2.661 . S
Gd535 N548 2.601 . S
Gd535 O579 2.362 . S
Gd535 O580 2.324 . S
Gd535 O584 2.545 . S
Gd535 O585 2.606 . S
Gd535 O587 2.429 . S
Gd535 O588 2.545 . S
Gd535 O589 2.412 . S
Gd535 C602 2.828 . S
C536 C539 1.417 . S
C536 C541 1.431 . S
C536 C542 1.412 . S
C537 C540 1.437 . S
C537 C541 1.317 . S
C537 H556 0.929 . S
C538 C539 1.426 . S
C538 C540 1.413 . S
C538 N548 1.359 . S
C539 C536 1.417 . S
C539 C538 1.426 . S
C539 N544 1.350 . S
C540 C537 1.437 . S
C540 C538 1.413 . S
C540 C550 1.391 . S
C541 C536 1.431 . S
C541 C537 1.317 . S
C541 H552 0.930 . S
C542 C536 1.412 . S
C542 C543 1.355 . S
C542 H554 0.930 . S
C543 C542 1.355 . S
C543 C545 1.402 . S
C543 H555 0.930 . S
N544 Gd535 2.661 . S
N544 C539 1.350 . S
N544 C545 1.307 . S
C545 C543 1.402 . S
C545 N544 1.307 . S
C545 H546 0.930 . S
H546 C545 0.930 . S
C547 N548 1.334 . S
C547 C549 1.394 . S
C547 H551 0.930 . S
N548 Gd535 2.601 . S
N548 C538 1.359 . S
N548 C547 1.334 . S
C549 C547 1.394 . S
C549 C550 1.359 . S
C549 H561 0.930 . S
C550 C540 1.391 . S
C550 C549 1.359 . S
C550 H562 0.929 . S
H551 C547 0.930 . S
H552 C541 0.930 . S
H553 C570 0.930 . S
H554 C542 0.930 . S
H555 C543 0.930 . S
H556 C537 0.929 . S
H557 C575 0.930 . S
H558 C566 0.930 . S
H559 C567 0.930 . S
H560 C591 0.929 . S
H561 C549 0.930 . S
H562 C550 0.929 . S
H563 C592 0.930 . S
H564 C573 0.930 . S
N565 Gd534 2.661 . S
N565 C569 1.350 . S
N565 C570 1.307 . S
C566 H558 0.930 . S
C566 C567 1.355 . S
C566 C568 1.412 . S
C567 H559 0.930 . S
C567 C566 1.355 . S
C567 C570 1.402 . S
C568 C566 1.412 . S
C568 C569 1.417 . S
C568 C592 1.431 . S
C569 N565 1.350 . S
C569 C568 1.417 . S
C569 C572 1.426 . S
C570 H553 0.930 . S
C570 N565 1.307 . S
C570 C567 1.402 . S
N571 Gd534 2.601 . S
N571 C572 1.359 . S
N571 C575 1.334 . S
C572 C569 1.426 . S
C572 N571 1.359 . S
C572 C576 1.413 . S
C573 H564 0.930 . S
C573 C574 1.359 . S
C573 C575 1.394 . S
C574 C573 1.359 . S
C574 C576 1.391 . S
C574 H577 0.929 . S
C575 H557 0.930 . S
C575 N571 1.334 . S
C575 C573 1.394 . S
C576 C572 1.413 . S
C576 C574 1.391 . S
C576 C591 1.437 . S
H577 C574 0.929 . S
O578 Gd534 2.545 . S
O578 C593 1.258 . S
O579 Gd534 2.606 . S
O579 Gd535 2.362 . S
O579 C590 1.284 . S
O580 Gd535 2.324 . S
O580 C600 1.254 . S
O581 Gd534 2.429 . S
O581 C600 1.268 . S
O582 Gd534 2.545 . S
O582 C590 1.250 . S
O583 Gd534 2.412 . S
O583 C593 1.252 . S
O584 Gd535 2.545 . S
O584 C602 1.258 . S
O585 Gd534 2.362 . S
O585 Gd535 2.606 . S
O585 C601 1.284 . S
O586 Gd534 2.324 . S
O586 C609 1.254 . S
O587 Gd535 2.429 . S
O587 C609 1.268 . S
O588 Gd535 2.545 . S
O588 C601 1.250 . S
O589 Gd535 2.412 . S
O589 C602 1.252 . S
C590 O579 1.284 . S
C590 O582 1.250 . S
C591 H560 0.929 . S
C591 C576 1.437 . S
C591 C592 1.317 . S
C592 H563 0.930 . S
C592 C568 1.431 . S
C592 C591 1.317 . S
C593 Gd534 2.828 . S
C593 O578 1.258 . S
C593 O583 1.252 . S
C593 C594 1.497 . S
C594 C593 1.497 . S
C594 C595 1.395 . S
C594 C596 1.380 . S
C595 C594 1.395 . S
C595 C598 1.398 . S
C595 H610 0.930 . S
C596 C594 1.380 . S
C596 C597 1.391 . S
C596 H611 0.930 . S
C597 C596 1.391 . S
C597 C599 1.387 . S
C598 C595 1.398 . S
C598 C599 1.380 . S
C598 H612 0.930 . S
C599 C597 1.387 . S
C599 C598 1.380 . S
C599 H613 0.930 . S
C600 O580 1.254 . S
C600 O581 1.268 . S
C601 O585 1.284 . S
C601 O588 1.250 . S
C602 Gd535 2.828 . S
C602 O584 1.258 . S
C602 O589 1.252 . S
C602 C603 1.497 . S
C603 C602 1.497 . S
C603 C604 1.395 . S
C603 C605 1.380 . S
C604 C603 1.395 . S
C604 C607 1.398 . S
C604 H614 0.930 . S
C605 C603 1.380 . S
C605 C606 1.391 . S
C605 H615 0.930 . S
C606 C605 1.391 . S
C606 C608 1.387 . S
C607 C604 1.398 . S
C607 C608 1.380 . S
C607 H616 0.930 . S
C608 C606 1.387 . S
C608 C607 1.380 . S
C608 H617 0.930 . S
C609 O586 1.254 . S
C609 O587 1.268 . S
H610 C595 0.930 . S
H611 C596 0.930 . S
H612 C598 0.930 . S
H613 C599 0.930 . S
H614 C604 0.930 . S
H615 C605 0.930 . S
H616 C607 0.930 . S
H617 C608 0.930 . S
Gd618 N649 2.661 . S
Gd618 N655 2.601 . S
Gd618 O662 2.545 . S
Gd618 O663 2.606 . S
Gd618 O665 2.429 . S
Gd618 O666 2.545 . S
Gd618 O667 2.412 . S
Gd618 O669 2.362 . S
Gd618 O670 2.324 . S
Gd618 C677 2.828 . S
Gd619 N628 2.661 . S
Gd619 N632 2.601 . S
Gd619 O663 2.362 . S
Gd619 O664 2.324 . S
Gd619 O668 2.545 . S
Gd619 O669 2.606 . S
Gd619 O671 2.429 . S
Gd619 O672 2.545 . S
Gd619 O673 2.412 . S
Gd619 C686 2.828 . S
C620 C623 1.417 . S
C620 C625 1.431 . S
C620 C626 1.412 . S
C621 C624 1.437 . S
C621 C625 1.317 . S
C621 H640 0.929 . S
C622 C623 1.426 . S
C622 C624 1.413 . S
C622 N632 1.359 . S
C623 C620 1.417 . S
C623 C622 1.426 . S
C623 N628 1.350 . S
C624 C621 1.437 . S
C624 C622 1.413 . S
C624 C634 1.391 . S
C625 C620 1.431 . S
C625 C621 1.317 . S
C625 H636 0.930 . S
C626 C620 1.412 . S
C626 C627 1.355 . S
C626 H638 0.930 . S
C627 C626 1.355 . S
C627 C629 1.402 . S
C627 H639 0.930 . S
N628 Gd619 2.661 . S
N628 C623 1.350 . S
N628 C629 1.307 . S
C629 C627 1.402 . S
C629 N628 1.307 . S
C629 H630 0.930 . S
H630 C629 0.930 . S
C631 N632 1.334 . S
C631 C633 1.394 . S
C631 H635 0.930 . S
N632 Gd619 2.601 . S
N632 C622 1.359 . S
N632 C631 1.334 . S
C633 C631 1.394 . S
C633 C634 1.359 . S
C633 H645 0.930 . S
C634 C624 1.391 . S
C634 C633 1.359 . S
C634 H646 0.929 . S
H635 C631 0.930 . S
H636 C625 0.930 . S
H637 C654 0.930 . S
H638 C626 0.930 . S
H639 C627 0.930 . S
H640 C621 0.929 . S
H641 C659 0.930 . S
H642 C650 0.930 . S
H643 C651 0.930 . S
H644 C675 0.929 . S
H645 C633 0.930 . S
H646 C634 0.929 . S
H647 C676 0.930 . S
H648 C657 0.930 . S
N649 Gd618 2.661 . S
N649 C653 1.350 . S
N649 C654 1.307 . S
C650 H642 0.930 . S
C650 C651 1.355 . S
C650 C652 1.412 . S
C651 H643 0.930 . S
C651 C650 1.355 . S
C651 C654 1.402 . S
C652 C650 1.412 . S
C652 C653 1.417 . S
C652 C676 1.431 . S
C653 N649 1.350 . S
C653 C652 1.417 . S
C653 C656 1.426 . S
C654 H637 0.930 . S
C654 N649 1.307 . S
C654 C651 1.402 . S
N655 Gd618 2.601 . S
N655 C656 1.359 . S
N655 C659 1.334 . S
C656 C653 1.426 . S
C656 N655 1.359 . S
C656 C660 1.413 . S
C657 H648 0.930 . S
C657 C658 1.359 . S
C657 C659 1.394 . S
C658 C657 1.359 . S
C658 C660 1.391 . S
C658 H661 0.929 . S
C659 H641 0.930 . S
C659 N655 1.334 . S
C659 C657 1.394 . S
C660 C656 1.413 . S
C660 C658 1.391 . S
C660 C675 1.437 . S
H661 C658 0.929 . S
O662 Gd618 2.545 . S
O662 C677 1.258 . S
O663 Gd618 2.606 . S
O663 Gd619 2.362 . S
O663 C674 1.284 . S
O664 Gd619 2.324 . S
O664 C684 1.254 . S
O665 Gd618 2.429 . S
O665 C684 1.268 . S
O666 Gd618 2.545 . S
O666 C674 1.250 . S
O667 Gd618 2.412 . S
O667 C677 1.252 . S
O668 Gd619 2.545 . S
O668 C686 1.258 . S
O669 Gd618 2.362 . S
O669 Gd619 2.606 . S
O669 C685 1.284 . S
O670 Gd618 2.324 . S
O670 C693 1.254 . S
O671 Gd619 2.429 . S
O671 C693 1.268 . S
O672 Gd619 2.545 . S
O672 C685 1.250 . S
O673 Gd619 2.412 . S
O673 C686 1.252 . S
C674 O663 1.284 . S
C674 O666 1.250 . S
C675 H644 0.929 . S
C675 C660 1.437 . S
C675 C676 1.317 . S
C676 H647 0.930 . S
C676 C652 1.431 . S
C676 C675 1.317 . S
C677 Gd618 2.828 . S
C677 O662 1.258 . S
C677 O667 1.252 . S
C677 C678 1.497 . S
C678 C677 1.497 . S
C678 C679 1.395 . S
C678 C680 1.380 . S
C679 C678 1.395 . S
C679 C682 1.398 . S
C679 H694 0.930 . S
C680 C678 1.380 . S
C680 C681 1.391 . S
C680 H695 0.930 . S
C681 C680 1.391 . S
C681 C683 1.387 . S
C682 C679 1.398 . S
C682 C683 1.380 . S
C682 H696 0.930 . S
C683 C681 1.387 . S
C683 C682 1.380 . S
C683 H697 0.930 . S
C684 O664 1.254 . S
C684 O665 1.268 . S
C685 O669 1.284 . S
C685 O672 1.250 . S
C686 Gd619 2.828 . S
C686 O668 1.258 . S
C686 O673 1.252 . S
C686 C687 1.497 . S
C687 C686 1.497 . S
C687 C688 1.395 . S
C687 C689 1.380 . S
C688 C687 1.395 . S
C688 C691 1.398 . S
C688 H698 0.930 . S
C689 C687 1.380 . S
C689 C690 1.391 . S
C689 H699 0.930 . S
C690 C689 1.391 . S
C690 C692 1.387 . S
C691 C688 1.398 . S
C691 C692 1.380 . S
C691 H700 0.930 . S
C692 C690 1.387 . S
C692 C691 1.380 . S
C692 H701 0.930 . S
C693 O670 1.254 . S
C693 O671 1.268 . S
H694 C679 0.930 . S
H695 C680 0.930 . S
H696 C682 0.930 . S
H697 C683 0.930 . S
H698 C688 0.930 . S
H699 C689 0.930 . S
H700 C691 0.930 . S
H701 C692 0.930 . S
Gd702 N733 2.661 . S
Gd702 N739 2.601 . S
Gd702 O746 2.545 . S
Gd702 O747 2.606 . S
Gd702 O749 2.429 . S
Gd702 O750 2.545 . S
Gd702 O751 2.412 . S
Gd702 O753 2.362 . S
Gd702 O754 2.324 . S
Gd702 C761 2.828 . S
Gd703 N712 2.661 . S
Gd703 N716 2.601 . S
Gd703 O747 2.362 . S
Gd703 O748 2.324 . S
Gd703 O752 2.545 . S
Gd703 O753 2.606 . S
Gd703 O755 2.429 . S
Gd703 O756 2.545 . S
Gd703 O757 2.412 . S
Gd703 C770 2.828 . S
C704 C707 1.417 . S
C704 C709 1.431 . S
C704 C710 1.412 . S
C705 C708 1.437 . S
C705 C709 1.317 . S
C705 H724 0.929 . S
C706 C707 1.426 . S
C706 C708 1.413 . S
C706 N716 1.359 . S
C707 C704 1.417 . S
C707 C706 1.426 . S
C707 N712 1.350 . S
C708 C705 1.437 . S
C708 C706 1.413 . S
C708 C718 1.391 . S
C709 C704 1.431 . S
C709 C705 1.317 . S
C709 H720 0.930 . S
C710 C704 1.412 . S
C710 C711 1.355 . S
C710 H722 0.930 . S
C711 C710 1.355 . S
C711 C713 1.402 . S
C711 H723 0.930 . S
N712 Gd703 2.661 . S
N712 C707 1.350 . S
N712 C713 1.307 . S
C713 C711 1.402 . S
C713 N712 1.307 . S
C713 H714 0.930 . S
H714 C713 0.930 . S
C715 N716 1.334 . S
C715 C717 1.394 . S
C715 H719 0.930 . S
N716 Gd703 2.601 . S
N716 C706 1.359 . S
N716 C715 1.334 . S
C717 C715 1.394 . S
C717 C718 1.359 . S
C717 H729 0.930 . S
C718 C708 1.391 . S
C718 C717 1.359 . S
C718 H730 0.929 . S
H719 C715 0.930 . S
H720 C709 0.930 . S
H721 C738 0.930 . S
H722 C710 0.930 . S
H723 C711 0.930 . S
H724 C705 0.929 . S
H725 C743 0.930 . S
H726 C734 0.930 . S
H727 C735 0.930 . S
H728 C759 0.929 . S
H729 C717 0.930 . S
H730 C718 0.929 . S
H731 C760 0.930 . S
H732 C741 0.930 . S
N733 Gd702 2.661 . S
N733 C737 1.350 . S
N733 C738 1.307 . S
C734 H726 0.930 . S
C734 C735 1.355 . S
C734 C736 1.412 . S
C735 H727 0.930 . S
C735 C734 1.355 . S
C735 C738 1.402 . S
C736 C734 1.412 . S
C736 C737 1.417 . S
C736 C760 1.431 . S
C737 N733 1.350 . S
C737 C736 1.417 . S
C737 C740 1.426 . S
C738 H721 0.930 . S
C738 N733 1.307 . S
C738 C735 1.402 . S
N739 Gd702 2.601 . S
N739 C740 1.359 . S
N739 C743 1.334 . S
C740 C737 1.426 . S
C740 N739 1.359 . S
C740 C744 1.413 . S
C741 H732 0.930 . S
C741 C742 1.359 . S
C741 C743 1.394 . S
C742 C741 1.359 . S
C742 C744 1.391 . S
C742 H745 0.929 . S
C743 H725 0.930 . S
C743 N739 1.334 . S
C743 C741 1.394 . S
C744 C740 1.413 . S
C744 C742 1.391 . S
C744 C759 1.437 . S
H745 C742 0.929 . S
O746 Gd702 2.545 . S
O746 C761 1.258 . S
O747 Gd702 2.606 . S
O747 Gd703 2.362 . S
O747 C758 1.284 . S
O748 Gd703 2.324 . S
O748 C768 1.254 . S
O749 Gd702 2.429 . S
O749 C768 1.268 . S
O750 Gd702 2.545 . S
O750 C758 1.250 . S
O751 Gd702 2.412 . S
O751 C761 1.252 . S
O752 Gd703 2.545 . S
O752 C770 1.258 . S
O753 Gd702 2.362 . S
O753 Gd703 2.606 . S
O753 C769 1.284 . S
O754 Gd702 2.324 . S
O754 C777 1.254 . S
O755 Gd703 2.429 . S
O755 C777 1.268 . S
O756 Gd703 2.545 . S
O756 C769 1.250 . S
O757 Gd703 2.412 . S
O757 C770 1.252 . S
C758 O747 1.284 . S
C758 O750 1.250 . S
C759 H728 0.929 . S
C759 C744 1.437 . S
C759 C760 1.317 . S
C760 H731 0.930 . S
C760 C736 1.431 . S
C760 C759 1.317 . S
C761 Gd702 2.828 . S
C761 O746 1.258 . S
C761 O751 1.252 . S
C761 C762 1.497 . S
C762 C761 1.497 . S
C762 C763 1.395 . S
C762 C764 1.380 . S
C763 C762 1.395 . S
C763 C766 1.398 . S
C763 H778 0.930 . S
C764 C762 1.380 . S
C764 C765 1.391 . S
C764 H779 0.930 . S
C765 C764 1.391 . S
C765 C767 1.387 . S
C766 C763 1.398 . S
C766 C767 1.380 . S
C766 H780 0.930 . S
C767 C765 1.387 . S
C767 C766 1.380 . S
C767 H781 0.930 . S
C768 O748 1.254 . S
C768 O749 1.268 . S
C769 O753 1.284 . S
C769 O756 1.250 . S
C770 Gd703 2.828 . S
C770 O752 1.258 . S
C770 O757 1.252 . S
C770 C771 1.497 . S
C771 C770 1.497 . S
C771 C772 1.395 . S
C771 C773 1.380 . S
C772 C771 1.395 . S
C772 C775 1.398 . S
C772 H782 0.930 . S
C773 C771 1.380 . S
C773 C774 1.391 . S
C773 H783 0.930 . S
C774 C773 1.391 . S
C774 C776 1.387 . S
C775 C772 1.398 . S
C775 C776 1.380 . S
C775 H784 0.930 . S
C776 C774 1.387 . S
C776 C775 1.380 . S
C776 H785 0.930 . S
C777 O754 1.254 . S
C777 O755 1.268 . S
H778 C763 0.930 . S
H779 C764 0.930 . S
H780 C766 0.930 . S
H781 C767 0.930 . S
H782 C772 0.930 . S
H783 C773 0.930 . S
H784 C775 0.930 . S
H785 C776 0.930 . S
Gd786 N817 2.661 . S
Gd786 N823 2.601 . S
Gd786 O830 2.545 . S
Gd786 O831 2.606 . S
Gd786 O833 2.429 . S
Gd786 O834 2.545 . S
Gd786 O835 2.412 . S
Gd786 O837 2.362 . S
Gd786 O838 2.324 . S
Gd786 C845 2.828 . S
Gd787 N796 2.661 . S
Gd787 N800 2.601 . S
Gd787 O831 2.362 . S
Gd787 O832 2.324 . S
Gd787 O836 2.545 . S
Gd787 O837 2.606 . S
Gd787 O839 2.429 . S
Gd787 O840 2.545 . S
Gd787 O841 2.412 . S
Gd787 C854 2.828 . S
C788 C791 1.417 . S
C788 C793 1.431 . S
C788 C794 1.412 . S
C789 C792 1.437 . S
C789 C793 1.317 . S
C789 H808 0.929 . S
C790 C791 1.426 . S
C790 C792 1.413 . S
C790 N800 1.359 . S
C791 C788 1.417 . S
C791 C790 1.426 . S
C791 N796 1.350 . S
C792 C789 1.437 . S
C792 C790 1.413 . S
C792 C802 1.391 . S
C793 C788 1.431 . S
C793 C789 1.317 . S
C793 H804 0.930 . S
C794 C788 1.412 . S
C794 C795 1.355 . S
C794 H806 0.930 . S
C795 C794 1.355 . S
C795 C797 1.402 . S
C795 H807 0.930 . S
N796 Gd787 2.661 . S
N796 C791 1.350 . S
N796 C797 1.307 . S
C797 C795 1.402 . S
C797 N796 1.307 . S
C797 H798 0.930 . S
H798 C797 0.930 . S
C799 N800 1.334 . S
C799 C801 1.394 . S
C799 H803 0.930 . S
N800 Gd787 2.601 . S
N800 C790 1.359 . S
N800 C799 1.334 . S
C801 C799 1.394 . S
C801 C802 1.359 . S
C801 H813 0.930 . S
C802 C792 1.391 . S
C802 C801 1.359 . S
C802 H814 0.929 . S
H803 C799 0.930 . S
H804 C793 0.930 . S
H805 C822 0.930 . S
H806 C794 0.930 . S
H807 C795 0.930 . S
H808 C789 0.929 . S
H809 C827 0.930 . S
H810 C818 0.930 . S
H811 C819 0.930 . S
H812 C843 0.929 . S
H813 C801 0.930 . S
H814 C802 0.929 . S
H815 C844 0.930 . S
H816 C825 0.930 . S
N817 Gd786 2.661 . S
N817 C821 1.350 . S
N817 C822 1.307 . S
C818 H810 0.930 . S
C818 C819 1.355 . S
C818 C820 1.412 . S
C819 H811 0.930 . S
C819 C818 1.355 . S
C819 C822 1.402 . S
C820 C818 1.412 . S
C820 C821 1.417 . S
C820 C844 1.431 . S
C821 N817 1.350 . S
C821 C820 1.417 . S
C821 C824 1.426 . S
C822 H805 0.930 . S
C822 N817 1.307 . S
C822 C819 1.402 . S
N823 Gd786 2.601 . S
N823 C824 1.359 . S
N823 C827 1.334 . S
C824 C821 1.426 . S
C824 N823 1.359 . S
C824 C828 1.413 . S
C825 H816 0.930 . S
C825 C826 1.359 . S
C825 C827 1.394 . S
C826 C825 1.359 . S
C826 C828 1.391 . S
C826 H829 0.929 . S
C827 H809 0.930 . S
C827 N823 1.334 . S
C827 C825 1.394 . S
C828 C824 1.413 . S
C828 C826 1.391 . S
C828 C843 1.437 . S
H829 C826 0.929 . S
O830 Gd786 2.545 . S
O830 C845 1.258 . S
O831 Gd786 2.606 . S
O831 Gd787 2.362 . S
O831 C842 1.284 . S
O832 Gd787 2.324 . S
O832 C852 1.254 . S
O833 Gd786 2.429 . S
O833 C852 1.268 . S
O834 Gd786 2.545 . S
O834 C842 1.250 . S
O835 Gd786 2.412 . S
O835 C845 1.252 . S
O836 Gd787 2.545 . S
O836 C854 1.258 . S
O837 Gd786 2.362 . S
O837 Gd787 2.606 . S
O837 C853 1.284 . S
O838 Gd786 2.324 . S
O838 C861 1.254 . S
O839 Gd787 2.429 . S
O839 C861 1.268 . S
O840 Gd787 2.545 . S
O840 C853 1.250 . S
O841 Gd787 2.412 . S
O841 C854 1.252 . S
C842 O831 1.284 . S
C842 O834 1.250 . S
C843 H812 0.929 . S
C843 C828 1.437 . S
C843 C844 1.317 . S
C844 H815 0.930 . S
C844 C820 1.431 . S
C844 C843 1.317 . S
C845 Gd786 2.828 . S
C845 O830 1.258 . S
C845 O835 1.252 . S
C845 C846 1.497 . S
C846 C845 1.497 . S
C846 C847 1.395 . S
C846 C848 1.380 . S
C847 C846 1.395 . S
C847 C850 1.398 . S
C847 H862 0.930 . S
C848 C846 1.380 . S
C848 C849 1.391 . S
C848 H863 0.930 . S
C849 C848 1.391 . S
C849 C851 1.387 . S
C850 C847 1.398 . S
C850 C851 1.380 . S
C850 H864 0.930 . S
C851 C849 1.387 . S
C851 C850 1.380 . S
C851 H865 0.930 . S
C852 O832 1.254 . S
C852 O833 1.268 . S
C853 O837 1.284 . S
C853 O840 1.250 . S
C854 Gd787 2.828 . S
C854 O836 1.258 . S
C854 O841 1.252 . S
C854 C855 1.497 . S
C855 C854 1.497 . S
C855 C856 1.395 . S
C855 C857 1.380 . S
C856 C855 1.395 . S
C856 C859 1.398 . S
C856 H866 0.930 . S
C857 C855 1.380 . S
C857 C858 1.391 . S
C857 H867 0.930 . S
C858 C857 1.391 . S
C858 C860 1.387 . S
C859 C856 1.398 . S
C859 C860 1.380 . S
C859 H868 0.930 . S
C860 C858 1.387 . S
C860 C859 1.380 . S
C860 H869 0.930 . S
C861 O838 1.254 . S
C861 O839 1.268 . S
H862 C847 0.930 . S
H863 C848 0.930 . S
H864 C850 0.930 . S
H865 C851 0.930 . S
H866 C856 0.930 . S
H867 C857 0.930 . S
H868 C859 0.930 . S
H869 C860 0.930 . S
Gd870 N901 2.661 . S
Gd870 N907 2.601 . S
Gd870 O914 2.545 . S
Gd870 O915 2.606 . S
Gd870 O917 2.429 . S
Gd870 O918 2.545 . S
Gd870 O919 2.412 . S
Gd870 O921 2.362 . S
Gd870 O922 2.324 . S
Gd870 C929 2.828 . S
Gd871 N880 2.661 . S
Gd871 N884 2.601 . S
Gd871 O915 2.362 . S
Gd871 O916 2.324 . S
Gd871 O920 2.545 . S
Gd871 O921 2.606 . S
Gd871 O923 2.429 . S
Gd871 O924 2.545 . S
Gd871 O925 2.412 . S
Gd871 C938 2.828 . S
C872 C875 1.417 1_455 S
C872 C877 1.431 . S
C872 C878 1.412 . S
C873 C876 1.437 1_455 S
C873 C877 1.317 . S
C873 H892 0.929 . S
C874 C875 1.426 . S
C874 C876 1.413 . S
C874 N884 1.359 . S
C875 C872 1.417 1_655 S
C875 C874 1.426 . S
C875 N880 1.350 . S
C876 C873 1.437 1_655 S
C876 C874 1.413 . S
C876 C886 1.391 . S
C877 C872 1.431 . S
C877 C873 1.317 . S
C877 H888 0.930 . S
C878 C872 1.412 . S
C878 C879 1.355 . S
C878 H890 0.930 . S
C879 C878 1.355 . S
C879 C881 1.402 1_455 S
C879 H891 0.930 . S
N880 Gd871 2.661 . S
N880 C875 1.350 . S
N880 C881 1.307 . S
C881 C879 1.402 1_655 S
C881 N880 1.307 . S
C881 H882 0.930 . S
H882 C881 0.930 . S
C883 N884 1.334 . S
C883 C885 1.394 . S
C883 H887 0.930 . S
N884 Gd871 2.601 . S
N884 C874 1.359 . S
N884 C883 1.334 . S
C885 C883 1.394 . S
C885 C886 1.359 . S
C885 H897 0.930 . S
C886 C876 1.391 . S
C886 C885 1.359 . S
C886 H898 0.929 . S
H887 C883 0.930 . S
H888 C877 0.930 . S
H889 C906 0.930 . S
H890 C878 0.930 . S
H891 C879 0.930 . S
H892 C873 0.929 . S
H893 C911 0.930 . S
H894 C902 0.930 . S
H895 C903 0.930 . S
H896 C927 0.929 . S
H897 C885 0.930 . S
H898 C886 0.929 . S
H899 C928 0.930 . S
H900 C909 0.930 . S
N901 Gd870 2.661 . S
N901 C905 1.350 . S
N901 C906 1.307 . S
C902 H894 0.930 . S
C902 C903 1.355 . S
C902 C904 1.412 . S
C903 H895 0.930 . S
C903 C902 1.355 . S
C903 C906 1.402 . S
C904 C902 1.412 . S
C904 C905 1.417 . S
C904 C928 1.431 . S
C905 N901 1.350 . S
C905 C904 1.417 . S
C905 C908 1.426 . S
C906 H889 0.930 . S
C906 N901 1.307 . S
C906 C903 1.402 . S
N907 Gd870 2.601 . S
N907 C908 1.359 . S
N907 C911 1.334 . S
C908 C905 1.426 . S
C908 N907 1.359 . S
C908 C912 1.413 . S
C909 H900 0.930 . S
C909 C910 1.359 . S
C909 C911 1.394 . S
C910 C909 1.359 . S
C910 C912 1.391 . S
C910 H913 0.929 . S
C911 H893 0.930 . S
C911 N907 1.334 . S
C911 C909 1.394 . S
C912 C908 1.413 . S
C912 C910 1.391 . S
C912 C927 1.437 . S
H913 C910 0.929 . S
O914 Gd870 2.545 . S
O914 C929 1.258 . S
O915 Gd870 2.606 . S
O915 Gd871 2.362 . S
O915 C926 1.284 . S
O916 Gd871 2.324 . S
O916 C936 1.254 . S
O917 Gd870 2.429 . S
O917 C936 1.268 . S
O918 Gd870 2.545 . S
O918 C926 1.250 . S
O919 Gd870 2.412 . S
O919 C929 1.252 . S
O920 Gd871 2.545 . S
O920 C938 1.258 . S
O921 Gd870 2.362 . S
O921 Gd871 2.606 . S
O921 C937 1.284 . S
O922 Gd870 2.324 . S
O922 C945 1.254 . S
O923 Gd871 2.429 . S
O923 C945 1.268 . S
O924 Gd871 2.545 . S
O924 C937 1.250 . S
O925 Gd871 2.412 . S
O925 C938 1.252 . S
C926 O915 1.284 . S
C926 O918 1.250 . S
C927 H896 0.929 . S
C927 C912 1.437 . S
C927 C928 1.317 . S
C928 H899 0.930 . S
C928 C904 1.431 . S
C928 C927 1.317 . S
C929 Gd870 2.828 . S
C929 O914 1.258 . S
C929 O919 1.252 . S
C929 C930 1.497 . S
C930 C929 1.497 . S
C930 C931 1.395 . S
C930 C932 1.380 . S
C931 C930 1.395 . S
C931 C934 1.398 . S
C931 H946 0.930 . S
C932 C930 1.380 . S
C932 C933 1.391 . S
C932 H947 0.930 . S
C933 C932 1.391 . S
C933 C935 1.387 . S
C934 C931 1.398 . S
C934 C935 1.380 . S
C934 H948 0.930 . S
C935 C933 1.387 . S
C935 C934 1.380 . S
C935 H949 0.930 . S
C936 O916 1.254 . S
C936 O917 1.268 . S
C937 O921 1.284 . S
C937 O924 1.250 . S
C938 Gd871 2.828 . S
C938 O920 1.258 . S
C938 O925 1.252 . S
C938 C939 1.497 . S
C939 C938 1.497 . S
C939 C940 1.395 . S
C939 C941 1.380 . S
C940 C939 1.395 . S
C940 C943 1.398 . S
C940 H950 0.930 . S
C941 C939 1.380 . S
C941 C942 1.391 . S
C941 H951 0.930 . S
C942 C941 1.391 . S
C942 C944 1.387 . S
C943 C940 1.398 . S
C943 C944 1.380 . S
C943 H952 0.930 . S
C944 C942 1.387 . S
C944 C943 1.380 . S
C944 H953 0.930 . S
C945 O922 1.254 . S
C945 O923 1.268 . S
H946 C931 0.930 . S
H947 C932 0.930 . S
H948 C934 0.930 . S
H949 C935 0.930 . S
H950 C940 0.930 . S
H951 C941 0.930 . S
H952 C943 0.930 . S
H953 C944 0.930 . S
C954 C955 1.369 . S
C954 C956 1.419 . S
C954 H958 0.930 . S
C955 C954 1.369 . S
C955 C964 1.429 . S
C956 C954 1.419 . S
C956 C957 1.363 . S
C956 H959 0.929 . S
C957 C956 1.363 . S
C957 C963 1.428 . S
H958 C954 0.930 . S
H959 C956 0.929 . S
S960 N961 1.613 1_556 S
S960 N962 1.610 . S
N961 S960 1.613 1_554 S
N961 C964 1.350 . S
N962 S960 1.610 . S
N962 C963 1.351 1_556 S
C963 C957 1.428 . S
C963 N962 1.351 1_554 S
C963 C964 1.434 . S
C964 C955 1.429 . S
C964 N961 1.350 . S
C964 C963 1.434 . S
C965 C966 1.369 . S
C965 C967 1.419 . S
C965 H969 0.930 . S
C966 C965 1.369 . S
C966 C975 1.429 . S
C967 C965 1.419 . S
C967 C968 1.363 . S
C967 H970 0.929 . S
C968 C967 1.363 . S
C968 C974 1.428 . S
H969 C965 0.930 . S
H970 C967 0.929 . S
S971 N972 1.613 . S
S971 N973 1.610 . S
N972 S971 1.613 . S
N972 C975 1.350 . S
N973 S971 1.610 . S
N973 C974 1.351 . S
C974 C968 1.428 . S
C974 N973 1.351 . S
C974 C975 1.434 . S
C975 C966 1.429 . S
C975 N972 1.350 . S
C975 C974 1.434 . S
C976 C977 1.369 . S
C976 C978 1.419 . S
C976 H980 0.930 . S
C977 C976 1.369 . S
C977 C986 1.429 . S
C978 C976 1.419 . S
C978 C979 1.363 . S
C978 H981 0.929 . S
C979 C978 1.363 . S
C979 C985 1.428 . S
H980 C976 0.930 . S
H981 C978 0.929 . S
S982 N983 1.613 . S
S982 N984 1.610 . S
N983 S982 1.613 . S
N983 C986 1.350 . S
N984 S982 1.610 . S
N984 C985 1.351 . S
C985 C979 1.428 . S
C985 N984 1.351 . S
C985 C986 1.434 . S
C986 C977 1.429 . S
C986 N983 1.350 . S
C986 C985 1.434 . S
C987 C988 1.369 . S
C987 C989 1.419 . S
C987 H991 0.930 . S
C988 C987 1.369 . S
C988 C997 1.429 . S
C989 C987 1.419 . S
C989 C990 1.363 . S
C989 H992 0.929 1_556 S
C990 C989 1.363 . S
C990 C996 1.428 . S
H991 C987 0.930 . S
H992 C989 0.929 1_554 S
S993 N994 1.613 . S
S993 N995 1.610 . S
N994 S993 1.613 . S
N994 C997 1.350 . S
N995 S993 1.610 . S
N995 C996 1.351 . S
C996 C990 1.428 . S
C996 N995 1.351 . S
C996 C997 1.434 . S
C997 C988 1.429 . S
C997 N994 1.350 . S
C997 C996 1.434 . S
C998 C999 1.369 . S
C998 C1000 1.419 . S
C998 H1002 0.930 . S
C999 C998 1.369 . S
C999 C1008 1.429 . S
C1000 C998 1.419 . S
C1000 C1001 1.363 . S
C1000 H1003 0.929 . S
C1001 C1000 1.363 . S
C1001 C1007 1.428 1_556 S
H1002 C998 0.930 . S
H1003 C1000 0.929 . S
S1004 N1005 1.613 . S
S1004 N1006 1.610 . S
N1005 S1004 1.613 . S
N1005 C1008 1.350 1_554 S
N1006 S1004 1.610 . S
N1006 C1007 1.351 . S
C1007 C1001 1.428 1_554 S
C1007 N1006 1.351 . S
C1007 C1008 1.434 1_554 S
C1008 C999 1.429 . S
C1008 N1005 1.350 1_556 S
C1008 C1007 1.434 1_556 S
C1009 C1010 1.369 . S
C1009 C1011 1.419 1_556 S
C1009 H1013 0.930 1_556 S
C1010 C1009 1.369 . S
C1010 C1019 1.429 . S
C1011 C1009 1.419 1_554 S
C1011 C1012 1.363 1_554 S
C1011 H1014 0.929 . S
C1012 C1011 1.363 1_556 S
C1012 C1018 1.428 . S
H1013 C1009 0.930 1_554 S
H1014 C1011 0.929 . S
S1015 N1016 1.613 . S
S1015 N1017 1.610 . S
N1016 S1015 1.613 . S
N1016 C1019 1.350 . S
N1017 S1015 1.610 . S
N1017 C1018 1.351 . S
C1018 C1012 1.428 . S
C1018 N1017 1.351 . S
C1018 C1019 1.434 . S
C1019 C1010 1.429 . S
C1019 N1016 1.350 . S
C1019 C1018 1.434 . S
C1020 C1021 1.369 . S
C1020 C1022 1.419 . S
C1020 H1024 0.930 . S
C1021 C1020 1.369 . S
C1021 C1030 1.429 . S
C1022 C1020 1.419 . S
C1022 C1023 1.363 . S
C1022 H1025 0.929 . S
C1023 C1022 1.363 . S
C1023 C1029 1.428 . S
H1024 C1020 0.930 . S
H1025 C1022 0.929 . S
S1026 N1027 1.613 . S
S1026 N1028 1.610 . S
N1027 S1026 1.613 . S
N1027 C1030 1.350 . S
N1028 S1026 1.610 . S
N1028 C1029 1.351 . S
C1029 C1023 1.428 . S
C1029 N1028 1.351 . S
C1029 C1030 1.434 . S
C1030 C1021 1.429 . S
C1030 N1027 1.350 . S
C1030 C1029 1.434 . S
C1031 C1032 1.369 . S
C1031 C1033 1.419 . S
C1031 H1035 0.930 . S
C1032 C1031 1.369 . S
C1032 C1041 1.429 . S
C1033 C1031 1.419 . S
C1033 C1034 1.363 . S
C1033 H1036 0.929 . S
C1034 C1033 1.363 . S
C1034 C1040 1.428 1_556 S
H1035 C1031 0.930 . S
H1036 C1033 0.929 . S
S1037 N1038 1.613 . S
S1037 N1039 1.610 . S
N1038 S1037 1.613 . S
N1038 C1041 1.350 1_554 S
N1039 S1037 1.610 . S
N1039 C1040 1.351 . S
C1040 C1034 1.428 1_554 S
C1040 N1039 1.351 . S
C1040 C1041 1.434 1_554 S
C1041 C1032 1.429 . S
C1041 N1038 1.350 1_556 S
C1041 C1040 1.434 1_556 S
C1042 C1043 1.369 . S
C1042 C1044 1.419 . S
C1042 H1046 0.922 1_556 S
C1043 C1042 1.369 . S
C1043 C1052 1.429 . S
C1044 C1042 1.419 . S
C1044 C1045 1.363 . S
C1044 H1047 0.929 1_556 S
C1045 C1044 1.363 . S
C1045 C1051 1.428 . S
H1046 C1042 0.922 1_554 S
H1047 C1044 0.929 1_554 S
S1048 N1049 1.613 . S
S1048 N1050 1.610 . S
N1049 S1048 1.613 . S
N1049 C1052 1.350 . S
N1050 S1048 1.610 . S
N1050 C1051 1.351 . S
C1051 C1045 1.428 . S
C1051 N1050 1.351 . S
C1051 C1052 1.434 . S
C1052 C1043 1.429 . S
C1052 N1049 1.350 . S
C1052 C1051 1.434 . S
C1053 C1054 1.369 . S
C1053 C1055 1.419 . S
C1053 H1057 0.930 . S
C1054 C1053 1.369 . S
C1054 C1063 1.429 . S
C1055 C1053 1.419 . S
C1055 C1056 1.363 . S
C1055 H1058 0.929 . S
C1056 C1055 1.363 . S
C1056 C1062 1.428 . S
H1057 C1053 0.930 . S
H1058 C1055 0.929 . S
S1059 N1060 1.613 . S
S1059 N1061 1.610 . S
N1060 S1059 1.613 . S
N1060 C1063 1.350 . S
N1061 S1059 1.610 . S
N1061 C1062 1.351 . S
C1062 C1056 1.428 . S
C1062 N1061 1.351 . S
C1062 C1063 1.434 . S
C1063 C1054 1.429 . S
C1063 N1060 1.350 . S
C1063 C1062 1.434 . S
C1064 C1065 1.369 . S
C1064 C1066 1.419 . S
C1064 H1068 0.930 . S
C1065 C1064 1.369 . S
C1065 C1074 1.429 . S
C1066 C1064 1.419 . S
C1066 C1067 1.363 . S
C1066 H1069 0.929 . S
C1067 C1066 1.363 . S
C1067 C1073 1.428 . S
H1068 C1064 0.930 . S
H1069 C1066 0.929 . S
S1070 N1071 1.613 . S
S1070 N1072 1.610 . S
N1071 S1070 1.613 . S
N1071 C1074 1.350 . S
N1072 S1070 1.610 . S
N1072 C1073 1.351 . S
C1073 C1067 1.428 . S
C1073 N1072 1.351 . S
C1073 C1074 1.434 . S
C1074 C1065 1.429 . S
C1074 N1071 1.350 . S
C1074 C1073 1.434 . S
C1075 C1076 1.369 . S
C1075 C1077 1.419 . S
C1075 H1079 0.930 . S
C1076 C1075 1.369 . S
C1076 C1085 1.429 . S
C1077 C1075 1.419 . S
C1077 C1078 1.363 . S
C1077 H1080 0.929 . S
C1078 C1077 1.363 . S
C1078 C1084 1.428 . S
H1079 C1075 0.930 . S
H1080 C1077 0.929 . S
S1081 N1082 1.613 . S
S1081 N1083 1.610 . S
N1082 S1081 1.613 . S
N1082 C1085 1.350 . S
N1083 S1081 1.610 . S
N1083 C1084 1.351 . S
C1084 C1078 1.428 . S
C1084 N1083 1.351 . S
C1084 C1085 1.434 . S
C1085 C1076 1.429 . S
C1085 N1082 1.350 . S
C1085 C1084 1.434 . S
C1086 C1087 1.369 . S
C1086 C1088 1.419 1_655 S
C1086 H1090 0.930 . S
C1087 C1086 1.369 . S
C1087 C1096 1.429 . S
C1088 C1086 1.419 1_455 S
C1088 C1089 1.363 . S
C1088 H1091 0.929 . S
C1089 C1088 1.363 . S
C1089 C1095 1.428 . S
H1090 C1086 0.930 . S
H1091 C1088 0.929 . S
S1092 N1093 1.613 1_455 S
S1092 N1094 1.610 . S
N1093 S1092 1.613 1_655 S
N1093 C1096 1.350 . S
N1094 S1092 1.610 . S
N1094 C1095 1.351 . S
C1095 C1089 1.428 . S
C1095 N1094 1.351 . S
C1095 C1096 1.434 1_455 S
C1096 C1087 1.429 . S
C1096 N1093 1.350 . S
C1096 C1095 1.434 1_655 S
C1097 C1098 1.369 . S
C1097 C1099 1.419 . S
C1097 H1101 0.930 . S
C1098 C1097 1.369 . S
C1098 C1107 1.429 . S
C1099 C1097 1.419 . S
C1099 C1100 1.363 . S
C1099 H1102 0.929 . S
C1100 C1099 1.363 . S
C1100 C1106 1.428 . S
H1101 C1097 0.930 . S
H1102 C1099 0.929 . S
S1103 N1104 1.613 . S
S1103 N1105 1.610 . S
N1104 S1103 1.613 . S
N1104 C1107 1.350 . S
N1105 S1103 1.610 . S
N1105 C1106 1.351 . S
C1106 C1100 1.428 . S
C1106 N1105 1.351 . S
C1106 C1107 1.434 . S
C1107 C1098 1.429 . S
C1107 N1104 1.350 . S
C1107 C1106 1.434 . S
C1108 C1109 1.369 . S
C1108 C1110 1.419 1_545 S
C1108 H1112 0.930 . S
C1109 C1108 1.369 . S
C1109 C1118 1.429 . S
C1110 C1108 1.419 1_565 S
C1110 C1111 1.363 . S
C1110 H1113 0.929 . S
C1111 C1110 1.363 . S
C1111 C1117 1.428 . S
H1112 C1108 0.930 . S
H1113 C1110 0.929 . S
S1114 N1115 1.613 . S
S1114 N1116 1.610 1_545 S
N1115 S1114 1.613 . S
N1115 C1118 1.350 . S
N1116 S1114 1.610 1_565 S
N1116 C1117 1.351 . S
C1117 C1111 1.428 . S
C1117 N1116 1.351 . S
C1117 C1118 1.434 1_565 S
C1118 C1109 1.429 . S
C1118 N1115 1.350 . S
C1118 C1117 1.434 1_545 S
C1119 C1120 1.369 . S
C1119 C1121 1.419 . S
C1119 H1123 0.930 . S
C1120 C1119 1.369 . S
C1120 C1129 1.429 . S
C1121 C1119 1.419 . S
C1121 C1122 1.363 . S
C1121 H1124 0.929 . S
C1122 C1121 1.363 . S
C1122 C1128 1.428 . S
H1123 C1119 0.930 . S
H1124 C1121 0.929 . S
S1125 N1126 1.613 . S
S1125 N1127 1.610 . S
N1126 S1125 1.613 . S
N1126 C1129 1.350 . S
N1127 S1125 1.610 . S
N1127 C1128 1.351 . S
C1128 C1122 1.428 . S
C1128 N1127 1.351 . S
C1128 C1129 1.434 . S
C1129 C1120 1.429 . S
C1129 N1126 1.350 . S
C1129 C1128 1.434 . S
C1130 C1131 1.369 . S
C1130 C1132 1.419 . S
C1130 H1134 0.930 . S
C1131 C1130 1.369 . S
C1131 C1140 1.429 . S
C1132 C1130 1.419 . S
C1132 C1133 1.363 . S
C1132 H1135 0.929 . S
C1133 C1132 1.363 . S
C1133 C1139 1.428 . S
H1134 C1130 0.930 . S
H1135 C1132 0.929 . S
S1136 N1137 1.613 . S
S1136 N1138 1.610 . S
N1137 S1136 1.613 . S
N1137 C1140 1.350 . S
N1138 S1136 1.610 . S
N1138 C1139 1.351 . S
C1139 C1133 1.428 . S
C1139 N1138 1.351 . S
C1139 C1140 1.434 . S
C1140 C1131 1.429 . S
C1140 N1137 1.350 . S
C1140 C1139 1.434 . S
C1141 C1142 1.369 . S
C1141 C1143 1.419 . S
C1141 H1145 0.930 . S
C1142 C1141 1.369 . S
C1142 C1151 1.429 . S
C1143 C1141 1.419 . S
C1143 C1144 1.363 . S
C1143 H1146 0.929 . S
C1144 C1143 1.363 . S
C1144 C1150 1.428 . S
H1145 C1141 0.930 . S
H1146 C1143 0.929 . S
S1147 N1148 1.613 . S
S1147 N1149 1.610 . S
N1148 S1147 1.613 . S
N1148 C1151 1.350 . S
N1149 S1147 1.610 . S
N1149 C1150 1.351 . S
C1150 C1144 1.428 . S
C1150 N1149 1.351 . S
C1150 C1151 1.434 . S
C1151 C1142 1.429 . S
C1151 N1148 1.350 . S
C1151 C1150 1.434 . S
C1152 C1153 1.369 . S
C1152 C1154 1.419 . S
C1152 H1156 0.930 . S
C1153 C1152 1.369 . S
C1153 C1162 1.429 . S
C1154 C1152 1.419 . S
C1154 C1155 1.363 . S
C1154 H1157 0.929 . S
C1155 C1154 1.363 . S
C1155 C1161 1.428 . S
H1156 C1152 0.930 . S
H1157 C1154 0.929 . S
S1158 N1159 1.613 . S
S1158 N1160 1.610 . S
N1159 S1158 1.613 . S
N1159 C1162 1.350 . S
N1160 S1158 1.610 . S
N1160 C1161 1.351 . S
C1161 C1155 1.428 . S
C1161 N1160 1.351 . S
C1161 C1162 1.434 . S
C1162 C1153 1.429 . S
C1162 N1159 1.350 . S
C1162 C1161 1.434 . S
C1163 C1164 1.369 . S
C1163 C1165 1.419 . S
C1163 H1167 0.930 . S
C1164 C1163 1.369 . S
C1164 C1173 1.429 . S
C1165 C1163 1.419 . S
C1165 C1166 1.363 . S
C1165 H1168 0.929 . S
C1166 C1165 1.363 . S
C1166 C1172 1.428 . S
H1167 C1163 0.930 . S
H1168 C1165 0.929 . S
S1169 N1170 1.613 . S
S1169 N1171 1.610 . S
N1170 S1169 1.613 . S
N1170 C1173 1.350 . S
N1171 S1169 1.610 . S
N1171 C1172 1.351 . S
C1172 C1166 1.428 . S
C1172 N1171 1.351 . S
C1172 C1173 1.434 . S
C1173 C1164 1.429 . S
C1173 N1170 1.350 . S
C1173 C1172 1.434 . S
C1174 C1175 1.369 . S
C1174 C1176 1.419 . S
C1174 H1178 0.930 . S
C1175 C1174 1.369 . S
C1175 C1184 1.429 . S
C1176 C1174 1.419 . S
C1176 C1177 1.363 . S
C1176 H1179 0.929 . S
C1177 C1176 1.363 . S
C1177 C1183 1.428 . S
H1178 C1174 0.930 . S
H1179 C1176 0.929 . S
S1180 N1181 1.613 . S
S1180 N1182 1.610 . S
N1181 S1180 1.613 . S
N1181 C1184 1.350 . S
N1182 S1180 1.610 . S
N1182 C1183 1.351 . S
C1183 C1177 1.428 . S
C1183 N1182 1.351 . S
C1183 C1184 1.434 . S
C1184 C1175 1.429 . S
C1184 N1181 1.350 . S
C1184 C1183 1.434 . S
C1185 C1186 1.369 . S
C1185 C1187 1.419 . S
C1185 H1189 0.930 . S
C1186 C1185 1.369 . S
C1186 C1195 1.429 . S
C1187 C1185 1.419 . S
C1187 C1188 1.363 . S
C1187 H1190 0.929 . S
C1188 C1187 1.363 . S
C1188 C1194 1.428 . S
H1189 C1185 0.930 . S
H1190 C1187 0.929 . S
S1191 N1192 1.613 . S
S1191 N1193 1.610 . S
N1192 S1191 1.613 . S
N1192 C1195 1.350 . S
N1193 S1191 1.610 . S
N1193 C1194 1.351 . S
C1194 C1188 1.428 . S
C1194 N1193 1.351 . S
C1194 C1195 1.434 . S
C1195 C1186 1.429 . S
C1195 N1192 1.350 . S
C1195 C1194 1.434 . S
C1196 C1197 1.369 . S
C1196 C1198 1.419 . S
C1196 H1200 0.930 . S
C1197 C1196 1.369 . S
C1197 C1206 1.429 . S
C1198 C1196 1.419 . S
C1198 C1199 1.363 . S
C1198 H1201 0.929 . S
C1199 C1198 1.363 . S
C1199 C1205 1.428 . S
H1200 C1196 0.930 . S
H1201 C1198 0.929 . S
S1202 N1203 1.613 . S
S1202 N1204 1.610 . S
N1203 S1202 1.613 . S
N1203 C1206 1.350 . S
N1204 S1202 1.610 . S
N1204 C1205 1.351 . S
C1205 C1199 1.428 . S
C1205 N1204 1.351 . S
C1205 C1206 1.434 . S
C1206 C1197 1.429 . S
C1206 N1203 1.350 . S
C1206 C1205 1.434 . S
C1207 C1208 1.369 . S
C1207 C1209 1.419 . S
C1207 H1211 0.930 . S
C1208 C1207 1.369 . S
C1208 C1217 1.429 . S
C1209 C1207 1.419 . S
C1209 C1210 1.363 . S
C1209 H1212 0.929 . S
C1210 C1209 1.363 . S
C1210 C1216 1.428 . S
H1211 C1207 0.930 . S
H1212 C1209 0.929 . S
S1213 N1214 1.613 . S
S1213 N1215 1.610 . S
N1214 S1213 1.613 . S
N1214 C1217 1.350 . S
N1215 S1213 1.610 . S
N1215 C1216 1.351 . S
C1216 C1210 1.428 . S
C1216 N1215 1.351 . S
C1216 C1217 1.434 . S
C1217 C1208 1.429 . S
C1217 N1214 1.350 . S
C1217 C1216 1.434 . S
C1218 C1219 1.369 . S
C1218 C1220 1.419 . S
C1218 H1222 0.930 . S
C1219 C1218 1.369 . S
C1219 C1228 1.429 . S
C1220 C1218 1.419 . S
C1220 C1221 1.363 . S
C1220 H1223 0.929 . S
C1221 C1220 1.363 . S
C1221 C1227 1.428 . S
H1222 C1218 0.930 . S
H1223 C1220 0.929 . S
S1224 N1225 1.613 . S
S1224 N1226 1.610 . S
N1225 S1224 1.613 . S
N1225 C1228 1.350 . S
N1226 S1224 1.610 . S
N1226 C1227 1.351 . S
C1227 C1221 1.428 . S
C1227 N1226 1.351 . S
C1227 C1228 1.434 . S
C1228 C1219 1.429 . S
C1228 N1225 1.350 . S
C1228 C1227 1.434 . S
C1229 C1230 1.369 . S
C1229 C1231 1.419 . S
C1229 H1233 0.930 . S
C1230 C1229 1.369 . S
C1230 C1239 1.429 . S
C1231 C1229 1.419 . S
C1231 C1232 1.363 . S
C1231 H1234 0.929 . S
C1232 C1231 1.363 . S
C1232 C1238 1.428 . S
H1233 C1229 0.930 . S
H1234 C1231 0.929 . S
S1235 N1236 1.613 . S
S1235 N1237 1.610 . S
N1236 S1235 1.613 . S
N1236 C1239 1.350 . S
N1237 S1235 1.610 . S
N1237 C1238 1.351 . S
C1238 C1232 1.428 . S
C1238 N1237 1.351 . S
C1238 C1239 1.434 . S
C1239 C1230 1.429 . S
C1239 N1236 1.350 . S
C1239 C1238 1.434 . S
C1240 C1241 1.369 . S
C1240 C1242 1.419 . S
C1240 H1244 0.930 . S
C1241 C1240 1.369 . S
C1241 C1250 1.429 . S
C1242 C1240 1.419 . S
C1242 C1243 1.363 . S
C1242 H1245 0.929 . S
C1243 C1242 1.363 . S
C1243 C1249 1.428 . S
H1244 C1240 0.930 . S
H1245 C1242 0.929 . S
S1246 N1247 1.613 . S
S1246 N1248 1.610 . S
N1247 S1246 1.613 . S
N1247 C1250 1.350 . S
N1248 S1246 1.610 . S
N1248 C1249 1.351 . S
C1249 C1243 1.428 . S
C1249 N1248 1.351 . S
C1249 C1250 1.434 . S
C1250 C1241 1.429 . S
C1250 N1247 1.350 . S
C1250 C1249 1.434 . S
C1251 C1252 1.369 . S
C1251 C1253 1.419 . S
C1251 H1255 0.930 . S
C1252 C1251 1.369 . S
C1252 C1261 1.429 1_565 S
C1253 C1251 1.419 . S
C1253 C1254 1.363 1_565 S
C1253 H1256 0.929 . S
C1254 C1253 1.363 1_545 S
C1254 C1260 1.428 . S
H1255 C1251 0.930 . S
H1256 C1253 0.929 . S
S1257 N1258 1.613 . S
S1257 N1259 1.610 . S
N1258 S1257 1.613 . S
N1258 C1261 1.350 . S
N1259 S1257 1.610 . S
N1259 C1260 1.351 . S
C1260 C1254 1.428 . S
C1260 N1259 1.351 . S
C1260 C1261 1.434 . S
C1261 C1252 1.429 1_545 S
C1261 N1258 1.350 . S
C1261 C1260 1.434 . S
C1262 C1263 1.369 . S
C1262 C1264 1.419 1_455 S
C1262 H1266 0.930 . S
C1263 C1262 1.369 . S
C1263 C1272 1.429 . S
C1264 C1262 1.419 1_655 S
C1264 C1265 1.363 . S
C1264 H1267 0.929 . S
C1265 C1264 1.363 . S
C1265 C1271 1.428 . S
H1266 C1262 0.930 . S
H1267 C1264 0.929 . S
S1268 N1269 1.613 . S
S1268 N1270 1.640 . S
N1269 S1268 1.613 . S
N1269 C1272 1.350 . S
N1270 S1268 1.640 . S
N1270 C1271 1.352 1_455 S
C1271 C1265 1.428 . S
C1271 N1270 1.352 1_655 S
C1271 C1272 1.434 1_655 S
C1272 C1263 1.429 . S
C1272 N1269 1.350 . S
C1272 C1271 1.434 1_455 S
C1273 C1274 1.369 . S
C1273 C1275 1.419 . S
C1273 H1277 0.930 . S
C1274 C1273 1.369 . S
C1274 C1283 1.429 . S
C1275 C1273 1.419 . S
C1275 C1276 1.363 . S
C1275 H1278 0.929 . S
C1276 C1275 1.363 . S
C1276 C1282 1.428 . S
H1277 C1273 0.930 . S
H1278 C1275 0.929 . S
S1279 N1280 1.613 . S
S1279 N1281 1.610 . S
N1280 S1279 1.613 . S
N1280 C1283 1.350 . S
N1281 S1279 1.610 . S
N1281 C1282 1.351 . S
C1282 C1276 1.428 . S
C1282 N1281 1.351 . S
C1282 C1283 1.434 . S
C1283 C1274 1.429 . S
C1283 N1280 1.350 . S
C1283 C1282 1.434 . S
C1284 C1285 1.369 . S
C1284 C1286 1.419 . S
C1284 H1288 0.930 . S
C1285 C1284 1.369 . S
C1285 C1294 1.429 . S
C1286 C1284 1.419 . S
C1286 C1287 1.363 . S
C1286 H1289 0.929 . S
C1287 C1286 1.363 . S
C1287 C1293 1.428 . S
H1288 C1284 0.930 . S
H1289 C1286 0.929 . S
S1290 N1291 1.613 . S
S1290 N1292 1.610 . S
N1291 S1290 1.613 . S
N1291 C1294 1.350 . S
N1292 S1290 1.610 . S
N1292 C1293 1.351 . S
C1293 C1287 1.428 . S
C1293 N1292 1.351 . S
C1293 C1294 1.434 . S
C1294 C1285 1.429 . S
C1294 N1291 1.350 . S
C1294 C1293 1.434 . S
C1295 C1296 1.369 . S
C1295 C1297 1.419 . S
C1295 H1299 0.930 . S
C1296 C1295 1.369 . S
C1296 C1305 1.429 . S
C1297 C1295 1.419 . S
C1297 C1298 1.363 . S
C1297 H1300 0.929 . S
C1298 C1297 1.363 . S
C1298 C1304 1.428 . S
H1299 C1295 0.930 . S
H1300 C1297 0.929 . S
S1301 N1302 1.613 . S
S1301 N1303 1.610 . S
N1302 S1301 1.613 . S
N1302 C1305 1.350 . S
N1303 S1301 1.610 . S
N1303 C1304 1.351 . S
C1304 C1298 1.428 . S
C1304 N1303 1.351 . S
C1304 C1305 1.434 . S
C1305 C1296 1.429 . S
C1305 N1302 1.350 . S
C1305 C1304 1.434 . S
C1306 C1307 1.369 . S
C1306 C1308 1.419 . S
C1306 H1310 0.930 . S
C1307 C1306 1.369 . S
C1307 C1316 1.429 . S
C1308 C1306 1.419 . S
C1308 C1309 1.363 . S
C1308 H1311 0.929 . S
C1309 C1308 1.363 . S
C1309 C1315 1.428 . S
H1310 C1306 0.930 . S
H1311 C1308 0.929 . S
S1312 N1313 1.613 . S
S1312 N1314 1.610 . S
N1313 S1312 1.613 . S
N1313 C1316 1.350 . S
N1314 S1312 1.610 . S
N1314 C1315 1.351 . S
C1315 C1309 1.428 . S
C1315 N1314 1.351 . S
C1315 C1316 1.434 . S
C1316 C1307 1.429 . S
C1316 N1313 1.350 . S
C1316 C1315 1.434 . S
C1317 C1318 1.369 . S
C1317 C1319 1.419 . S
C1317 H1321 0.930 . S
C1318 C1317 1.369 . S
C1318 C1327 1.429 . S
C1319 C1317 1.419 . S
C1319 C1320 1.363 . S
C1319 H1322 0.929 . S
C1320 C1319 1.363 . S
C1320 C1326 1.428 . S
H1321 C1317 0.930 . S
H1322 C1319 0.929 . S
S1323 N1324 1.613 . S
S1323 N1325 1.610 . S
N1324 S1323 1.613 . S
N1324 C1327 1.350 . S
N1325 S1323 1.610 . S
N1325 C1326 1.351 . S
C1326 C1320 1.428 . S
C1326 N1325 1.351 . S
C1326 C1327 1.434 . S
C1327 C1318 1.429 . S
C1327 N1324 1.350 . S
C1327 C1326 1.434 . S
C1328 C1329 1.369 . S
C1328 C1330 1.419 . S
C1328 H1332 0.930 . S
C1329 C1328 1.369 . S
C1329 C1338 1.429 . S
C1330 C1328 1.419 . S
C1330 C1331 1.363 . S
C1330 H1333 0.929 . S
C1331 C1330 1.363 . S
C1331 C1337 1.428 . S
H1332 C1328 0.930 . S
H1333 C1330 0.929 . S
S1334 N1335 1.613 . S
S1334 N1336 1.610 . S
N1335 S1334 1.613 . S
N1335 C1338 1.350 . S
N1336 S1334 1.610 . S
N1336 C1337 1.351 . S
C1337 C1331 1.428 . S
C1337 N1336 1.351 . S
C1337 C1338 1.434 . S
C1338 C1329 1.429 . S
C1338 N1335 1.350 . S
C1338 C1337 1.434 . S
C1339 C1340 1.369 . S
C1339 C1341 1.419 . S
C1339 H1343 0.930 . S
C1340 C1339 1.369 . S
C1340 C1349 1.429 . S
C1341 C1339 1.419 . S
C1341 C1342 1.363 . S
C1341 H1344 0.929 . S
C1342 C1341 1.363 . S
C1342 C1348 1.428 . S
H1343 C1339 0.930 . S
H1344 C1341 0.929 . S
S1345 N1346 1.613 . S
S1345 N1347 1.610 . S
N1346 S1345 1.613 . S
N1346 C1349 1.350 . S
N1347 S1345 1.610 . S
N1347 C1348 1.351 . S
C1348 C1342 1.428 . S
C1348 N1347 1.351 . S
C1348 C1349 1.434 . S
C1349 C1340 1.429 . S
C1349 N1346 1.350 . S
C1349 C1348 1.434 . S
C1350 C1351 1.369 . S
C1350 C1352 1.419 . S
C1350 H1354 0.930 . S
C1351 C1350 1.369 . S
C1351 C1360 1.429 . S
C1352 C1350 1.419 . S
C1352 C1353 1.363 . S
C1352 H1355 0.929 . S
C1353 C1352 1.363 . S
C1353 C1359 1.428 . S
H1354 C1350 0.930 . S
H1355 C1352 0.929 . S
S1356 N1357 1.613 . S
S1356 N1358 1.610 . S
N1357 S1356 1.613 . S
N1357 C1360 1.350 . S
N1358 S1356 1.610 . S
N1358 C1359 1.351 . S
C1359 C1353 1.428 . S
C1359 N1358 1.351 . S
C1359 C1360 1.434 . S
C1360 C1351 1.429 . S
C1360 N1357 1.350 . S
C1360 C1359 1.434 . S
C1361 C1362 1.369 . S
C1361 C1363 1.419 . S
C1361 H1365 0.930 . S
C1362 C1361 1.369 . S
C1362 C1371 1.429 . S
C1363 C1361 1.419 . S
C1363 C1364 1.363 . S
C1363 H1366 0.929 . S
C1364 C1363 1.363 . S
C1364 C1370 1.428 . S
H1365 C1361 0.930 . S
H1366 C1363 0.929 . S
S1367 N1368 1.613 . S
S1367 N1369 1.610 . S
N1368 S1367 1.613 . S
N1368 C1371 1.350 . S
N1369 S1367 1.610 . S
N1369 C1370 1.351 . S
C1370 C1364 1.428 . S
C1370 N1369 1.351 . S
C1370 C1371 1.434 . S
C1371 C1362 1.429 . S
C1371 N1368 1.350 . S
C1371 C1370 1.434 . S
C1372 C1373 1.369 . S
C1372 C1374 1.419 . S
C1372 H1376 0.930 . S
C1373 C1372 1.369 . S
C1373 C1382 1.429 . S
C1374 C1372 1.419 . S
C1374 C1375 1.363 . S
C1374 H1377 0.929 . S
C1375 C1374 1.363 . S
C1375 C1381 1.428 . S
H1376 C1372 0.930 . S
H1377 C1374 0.929 . S
S1378 N1379 1.613 . S
S1378 N1380 1.610 . S
N1379 S1378 1.613 . S
N1379 C1382 1.350 . S
N1380 S1378 1.610 . S
N1380 C1381 1.351 . S
C1381 C1375 1.428 . S
C1381 N1380 1.351 . S
C1381 C1382 1.434 . S
C1382 C1373 1.429 . S
C1382 N1379 1.350 . S
C1382 C1381 1.434 . S
C1383 C1384 1.369 . S
C1383 C1385 1.419 . S
C1383 H1387 0.930 . S
C1384 C1383 1.369 . S
C1384 C1393 1.429 . S
C1385 C1383 1.419 . S
C1385 C1386 1.363 . S
C1385 H1388 0.929 . S
C1386 C1385 1.363 . S
C1386 C1392 1.428 . S
H1387 C1383 0.930 . S
H1388 C1385 0.929 . S
S1389 N1390 1.613 . S
S1389 N1391 1.610 . S
N1390 S1389 1.613 . S
N1390 C1393 1.350 . S
N1391 S1389 1.610 . S
N1391 C1392 1.351 . S
C1392 C1386 1.428 . S
C1392 N1391 1.351 . S
C1392 C1393 1.434 . S
C1393 C1384 1.429 . S
C1393 N1390 1.350 . S
C1393 C1392 1.434 . S
C1394 C1395 1.369 . S
C1394 C1396 1.419 . S
C1394 H1398 0.930 . S
C1395 C1394 1.369 . S
C1395 C1404 1.429 . S
C1396 C1394 1.419 . S
C1396 C1397 1.363 . S
C1396 H1399 0.929 . S
C1397 C1396 1.363 . S
C1397 C1403 1.428 . S
H1398 C1394 0.930 . S
H1399 C1396 0.929 . S
S1400 N1401 1.613 . S
S1400 N1402 1.610 . S
N1401 S1400 1.613 . S
N1401 C1404 1.350 . S
N1402 S1400 1.610 . S
N1402 C1403 1.351 . S
C1403 C1397 1.428 . S
C1403 N1402 1.351 . S
C1403 C1404 1.434 . S
C1404 C1395 1.429 . S
C1404 N1401 1.350 . S
C1404 C1403 1.434 . S
C1405 C1406 1.369 . S
C1405 C1407 1.419 . S
C1405 H1409 0.930 . S
C1406 C1405 1.369 . S
C1406 C1415 1.429 . S
C1407 C1405 1.419 . S
C1407 C1408 1.363 . S
C1407 H1410 0.929 . S
C1408 C1407 1.363 . S
C1408 C1414 1.428 . S
H1409 C1405 0.930 . S
H1410 C1407 0.929 . S
S1411 N1412 1.613 . S
S1411 N1413 1.610 . S
N1412 S1411 1.613 . S
N1412 C1415 1.350 . S
N1413 S1411 1.610 . S
N1413 C1414 1.351 . S
C1414 C1408 1.428 . S
C1414 N1413 1.351 . S
C1414 C1415 1.434 . S
C1415 C1406 1.429 . S
C1415 N1412 1.350 . S
C1415 C1414 1.434 . S
C1416 C1417 1.369 . S
C1416 C1418 1.419 . S
C1416 H1420 0.930 . S
C1417 C1416 1.369 . S
C1417 C1426 1.429 . S
C1418 C1416 1.419 . S
C1418 C1419 1.363 . S
C1418 H1421 0.929 . S
C1419 C1418 1.363 . S
C1419 C1425 1.428 . S
H1420 C1416 0.930 . S
H1421 C1418 0.929 . S
S1422 N1423 1.613 . S
S1422 N1424 1.610 . S
N1423 S1422 1.613 . S
N1423 C1426 1.350 . S
N1424 S1422 1.610 . S
N1424 C1425 1.351 . S
C1425 C1419 1.428 . S
C1425 N1424 1.351 . S
C1425 C1426 1.434 . S
C1426 C1417 1.429 . S
C1426 N1423 1.350 . S
C1426 C1425 1.434 . S
C1427 C1428 1.369 . S
C1427 C1429 1.419 . S
C1427 H1431 0.930 . S
C1428 C1427 1.369 . S
C1428 C1437 1.429 . S
C1429 C1427 1.419 . S
C1429 C1430 1.363 . S
C1429 H1432 0.929 . S
C1430 C1429 1.363 . S
C1430 C1436 1.428 . S
H1431 C1427 0.930 . S
H1432 C1429 0.929 . S
S1433 N1434 1.613 . S
S1433 N1435 1.610 . S
N1434 S1433 1.613 . S
N1434 C1437 1.350 . S
N1435 S1433 1.610 . S
N1435 C1436 1.351 . S
C1436 C1430 1.428 . S
C1436 N1435 1.351 . S
C1436 C1437 1.434 . S
C1437 C1428 1.429 . S
C1437 N1434 1.350 . S
C1437 C1436 1.434 . S
C1438 C1439 1.369 . S
C1438 C1440 1.419 . S
C1438 H1442 0.930 . S
C1439 C1438 1.369 . S
C1439 C1448 1.429 . S
C1440 C1438 1.419 . S
C1440 C1441 1.363 . S
C1440 H1443 0.929 . S
C1441 C1440 1.363 . S
C1441 C1447 1.428 . S
H1442 C1438 0.930 . S
H1443 C1440 0.929 . S
S1444 N1445 1.613 . S
S1444 N1446 1.610 . S
N1445 S1444 1.613 . S
N1445 C1448 1.350 . S
N1446 S1444 1.610 . S
N1446 C1447 1.351 . S
C1447 C1441 1.428 . S
C1447 N1446 1.351 . S
C1447 C1448 1.434 . S
C1448 C1439 1.429 . S
C1448 N1445 1.350 . S
C1448 C1447 1.434 . S
C1449 C1450 1.369 . S
C1449 C1451 1.419 . S
C1449 H1453 0.930 . S
C1450 C1449 1.369 . S
C1450 C1459 1.429 . S
C1451 C1449 1.419 . S
C1451 C1452 1.363 . S
C1451 H1454 0.929 . S
C1452 C1451 1.363 . S
C1452 C1458 1.428 . S
H1453 C1449 0.930 . S
H1454 C1451 0.929 . S
S1455 N1456 1.613 . S
S1455 N1457 1.610 . S
N1456 S1455 1.613 . S
N1456 C1459 1.350 . S
N1457 S1455 1.610 . S
N1457 C1458 1.351 . S
C1458 C1452 1.428 . S
C1458 N1457 1.351 . S
C1458 C1459 1.434 . S
C1459 C1450 1.429 . S
C1459 N1456 1.350 . S
C1459 C1458 1.434 . S
C1460 C1461 1.369 . S
C1460 C1462 1.419 . S
C1460 H1464 0.930 . S
C1461 C1460 1.369 . S
C1461 C1470 1.429 . S
C1462 C1460 1.419 . S
C1462 C1463 1.363 . S
C1462 H1465 0.929 . S
C1463 C1462 1.363 . S
C1463 C1469 1.428 . S
H1464 C1460 0.930 . S
H1465 C1462 0.929 . S
S1466 N1467 1.613 . S
S1466 N1468 1.610 . S
N1467 S1466 1.613 . S
N1467 C1470 1.350 . S
N1468 S1466 1.610 . S
N1468 C1469 1.351 . S
C1469 C1463 1.428 . S
C1469 N1468 1.351 . S
C1469 C1470 1.434 . S
C1470 C1461 1.429 . S
C1470 N1467 1.350 . S
C1470 C1469 1.434 . S
C1471 C1472 1.369 . S
C1471 C1473 1.419 . S
C1471 H1475 0.930 . S
C1472 C1471 1.369 . S
C1472 C1481 1.429 . S
C1473 C1471 1.419 . S
C1473 C1474 1.363 . S
C1473 H1476 0.929 . S
C1474 C1473 1.363 . S
C1474 C1480 1.428 . S
H1475 C1471 0.930 . S
H1476 C1473 0.929 . S
S1477 N1478 1.613 . S
S1477 N1479 1.610 . S
N1478 S1477 1.613 . S
N1478 C1481 1.350 . S
N1479 S1477 1.610 . S
N1479 C1480 1.351 . S
C1480 C1474 1.428 . S
C1480 N1479 1.351 . S
C1480 C1481 1.434 . S
C1481 C1472 1.429 . S
C1481 N1478 1.350 . S
C1481 C1480 1.434 . S
C1482 C1483 1.369 . S
C1482 C1484 1.419 . S
C1482 H1486 0.930 . S
C1483 C1482 1.369 . S
C1483 C1492 1.429 . S
C1484 C1482 1.419 . S
C1484 C1485 1.363 . S
C1484 H1487 0.929 . S
C1485 C1484 1.363 . S
C1485 C1491 1.428 . S
H1486 C1482 0.930 . S
H1487 C1484 0.929 . S
S1488 N1489 1.613 . S
S1488 N1490 1.610 . S
N1489 S1488 1.613 . S
N1489 C1492 1.350 . S
N1490 S1488 1.610 . S
N1490 C1491 1.351 . S
C1491 C1485 1.428 . S
C1491 N1490 1.351 . S
C1491 C1492 1.434 . S
C1492 C1483 1.429 . S
C1492 N1489 1.350 . S
C1492 C1491 1.434 . S
C1493 C1494 1.369 . S
C1493 C1495 1.419 . S
C1493 H1497 0.930 . S
C1494 C1493 1.369 . S
C1494 C1503 1.429 . S
C1495 C1493 1.419 . S
C1495 C1496 1.363 . S
C1495 H1498 0.929 . S
C1496 C1495 1.363 . S
C1496 C1502 1.428 . S
H1497 C1493 0.930 . S
H1498 C1495 0.929 . S
S1499 N1500 1.613 . S
S1499 N1501 1.610 . S
N1500 S1499 1.613 . S
N1500 C1503 1.350 . S
N1501 S1499 1.610 . S
N1501 C1502 1.351 . S
C1502 C1496 1.428 . S
C1502 N1501 1.351 . S
C1502 C1503 1.434 . S
C1503 C1494 1.429 . S
C1503 N1500 1.350 . S
C1503 C1502 1.434 . S
C1504 C1505 1.369 . S
C1504 C1506 1.419 . S
C1504 H1508 0.930 . S
C1505 C1504 1.369 . S
C1505 C1514 1.429 . S
C1506 C1504 1.419 . S
C1506 C1507 1.363 . S
C1506 H1509 0.929 . S
C1507 C1506 1.363 . S
C1507 C1513 1.428 . S
H1508 C1504 0.930 . S
H1509 C1506 0.929 . S
S1510 N1511 1.613 . S
S1510 N1512 1.610 . S
N1511 S1510 1.613 . S
N1511 C1514 1.350 . S
N1512 S1510 1.610 . S
N1512 C1513 1.351 . S
C1513 C1507 1.428 . S
C1513 N1512 1.351 . S
C1513 C1514 1.434 . S
C1514 C1505 1.429 . S
C1514 N1511 1.350 . S
C1514 C1513 1.434 . S
C1515 C1516 1.369 . S
C1515 C1517 1.419 . S
C1515 H1519 0.930 . S
C1516 C1515 1.369 . S
C1516 C1525 1.429 . S
C1517 C1515 1.419 . S
C1517 C1518 1.363 . S
C1517 H1520 0.929 . S
C1518 C1517 1.363 . S
C1518 C1524 1.428 . S
H1519 C1515 0.930 . S
H1520 C1517 0.929 . S
S1521 N1522 1.613 . S
S1521 N1523 1.610 . S
N1522 S1521 1.613 . S
N1522 C1525 1.350 . S
N1523 S1521 1.610 . S
N1523 C1524 1.351 . S
C1524 C1518 1.428 . S
C1524 N1523 1.351 . S
C1524 C1525 1.434 . S
C1525 C1516 1.429 . S
C1525 N1522 1.350 . S
C1525 C1524 1.434 . S
C1526 C1527 1.369 . S
C1526 C1528 1.419 . S
C1526 H1530 0.930 . S
C1527 C1526 1.369 . S
C1527 C1536 1.429 . S
C1528 C1526 1.419 . S
C1528 C1529 1.363 . S
C1528 H1531 0.929 . S
C1529 C1528 1.363 . S
C1529 C1535 1.428 . S
H1530 C1526 0.930 . S
H1531 C1528 0.929 . S
S1532 N1533 1.613 . S
S1532 N1534 1.610 . S
N1533 S1532 1.613 . S
N1533 C1536 1.350 . S
N1534 S1532 1.610 . S
N1534 C1535 1.351 . S
C1535 C1529 1.428 . S
C1535 N1534 1.351 . S
C1535 C1536 1.434 . S
C1536 C1527 1.429 . S
C1536 N1533 1.350 . S
C1536 C1535 1.434 . S
C1537 C1538 1.369 . S
C1537 C1539 1.419 . S
C1537 H1541 0.930 . S
C1538 C1537 1.369 . S
C1538 C1547 1.429 . S
C1539 C1537 1.419 . S
C1539 C1540 1.363 . S
C1539 H1542 0.929 . S
C1540 C1539 1.363 . S
C1540 C1546 1.428 . S
H1541 C1537 0.930 . S
H1542 C1539 0.929 . S
S1543 N1544 1.613 . S
S1543 N1545 1.610 . S
N1544 S1543 1.613 . S
N1544 C1547 1.350 . S
N1545 S1543 1.610 . S
N1545 C1546 1.351 . S
C1546 C1540 1.428 . S
C1546 N1545 1.351 . S
C1546 C1547 1.434 . S
C1547 C1538 1.429 . S
C1547 N1544 1.350 . S
C1547 C1546 1.434 . S
C955 C147 1.473 . S
C957 C254 1.417 . S
C966 C158 1.495 . S
C968 C338 1.443 . S
C977 C136 1.470 . S
C979 C432 1.469 . S
C988 C125 1.458 . S
C990 C348 1.462 . S
C1001 C422 1.409 . S
C999 C103 1.466 . S
C1010 C114 1.435 . S
C1012 C264 1.435 . S
C1023 C265 1.453 . S
C1021 C131 1.512 . S
C1034 C349 1.483 . S
C1032 C109 1.537 . S
C1043 C120 1.524 . S
C1045 C441 1.479 . S
C1054 C153 1.503 . S
C1056 C357 1.463 . S
C1065 C164 1.492 . S
C1067 C433 1.431 . S
C1078 C273 1.444 . S
C1076 C142 1.486 . S
C1089 C506 1.410 . S
C1087 C15 1.470 . S
C1098 C26 1.496 . S
C1100 C590 1.440 . S
C1109 C4 1.467 . S
C1111 C684 1.467 . S
C1120 C191 1.457 . S
C1122 C600 1.461 . S
C1131 C169 1.463 . S
C1133 C674 1.402 . S
C1142 C180 1.436 . S
C1144 C516 1.434 . S
C1153 C197 1.513 . S
C1155 C517 1.460 . S
C1164 C175 1.532 . S
C1166 C601 1.477 . S
C1177 C693 1.476 . S
C1175 C186 1.527 . S
C1186 C21 1.503 1_565 S
C1188 C609 1.463 . S
C1199 C685 1.433 . S
C1197 C32 1.491 1_455 S
C1208 C10 1.486 . S
C1210 C525 1.444 . S
C1221 C758 1.417 . S
C1219 C81 1.473 . S
C1230 C92 1.498 . S
C1232 C842 1.444 . S
C1243 C936 1.469 . S
C1241 C70 1.469 . S
C1254 C852 1.462 . S
C1252 C59 1.459 . S
C1265 C926 1.408 . S
C1263 C37 1.466 . S
C1274 C48 1.439 . S
C1276 C768 1.435 . S
C1285 C65 1.513 1_655 S
C1287 C769 1.454 . S
C1296 C43 1.533 . S
C1298 C853 1.477 . S
C1309 C945 1.483 . S
C1307 C54 1.523 1_545 S
C1318 C87 1.503 . S
C1320 C861 1.458 . S
C1329 C98 1.493 . S
C1331 C937 1.437 . S
C1340 C76 1.488 . S
C1342 C777 1.436 . S
C1351 C170 1.570 . S
C1353 C261 1.465 . S
C1364 C345 1.479 . S
C1362 C181 1.612 . S
C1373 C192 1.566 . S
C1375 C438 1.388 . S
C1384 C71 1.581 . S
C1386 C354 1.375 . S
C1395 C82 1.575 . S
C1397 C429 1.452 . S
C1408 C270 1.380 . S
C1406 C93 1.540 . S
C1417 C38 1.571 . S
C1419 C513 1.465 . S
C1428 C49 1.607 . S
C1430 C597 1.471 . S
C1439 C60 1.565 . S
C1441 C690 1.380 . S
C1450 C137 1.577 . S
C1452 C606 1.383 . S
C1463 C681 1.452 . S
C1461 C148 1.575 . S
C1472 C159 1.538 . S
C1474 C522 1.370 . S
C1483 C104 1.567 . S
C1485 C765 1.469 . S
C1494 C115 1.606 . S
C1496 C849 1.477 . S
C1507 C942 1.388 . S
C1505 C126 1.567 . S
C1516 C5 1.581 . S
C1518 C858 1.376 . S
C1527 C16 1.576 . S
C1529 C933 1.448 . S
C1538 C27 1.541 . S
C1540 C774 1.369 . S
