# Generated by pormake.
# Topology pts, (4,4)-cn, num edge types: 1
# Building blocks:
#     Node 0, Type 0, BuildingBlock: MUDLON_clean_linker_0, # of connection points: 4
#     Node 1, Type 0, BuildingBlock: MUDLON_clean_linker_0, # of connection points: 4
#     Node 2, Type 1, BuildingBlock: UXUYUI_clean_sbu_0, # of connection points: 4
#     Node 3, Type 1, BuildingBlock: UXUYUI_clean_sbu_0, # of connection points: 4
#     Edge 4, Type (0, 1), BuildingBlock: XIVTED_clean_linker_0, # of connection points: 2
#     Edge 5, Type (0, 1), BuildingBlock: XIVTED_clean_linker_0, # of connection points: 2
#     Edge 6, Type (0, 1), BuildingBlock: XIVTED_clean_linker_0, # of connection points: 2
#     Edge 7, Type (0, 1), BuildingBlock: XIVTED_clean_linker_0, # of connection points: 2
#     Edge 8, Type (0, 1), BuildingBlock: XIVTED_clean_linker_0, # of connection points: 2
#     Edge 9, Type (0, 1), BuildingBlock: XIVTED_clean_linker_0, # of connection points: 2
#     Edge 10, Type (0, 1), BuildingBlock: XIVTED_clean_linker_0, # of connection points: 2
#     Edge 11, Type (0, 1), BuildingBlock: XIVTED_clean_linker_0, # of connection points: 2
# Relax obj value: 0.012
# Max RMSD: 0.056
# Mean RMSD: 0.052
data_MOF--net-pts--node1-UXUYUI_clean_sbu_0--node2-MUDLON_clean_linker_0--edge1-XIVTED_clean_linker_0
_symmetry_space_group_name_H-M    P1
_symmetry_Int_Tables_number       1
_symmetry_cell_setting            triclinic
loop_
_symmetry_equiv_pos_as_xyz
'x, y, z'
_cell_length_a     40.656957
_cell_length_b     40.639192
_cell_length_c     52.121337
_cell_angle_alpha  89.986405
_cell_angle_beta   89.978153
_cell_angle_gamma 89.984683
loop_
_atom_site_label
_atom_site_type_symbol
_atom_site_fract_x
_atom_site_fract_y
_atom_site_fract_z
_atom_type_partial_charge
H0 H 0.62333 0.07288 0.04857 0.0
N1 N 0.61687 0.04181 0.00384 0.0
H2 H 0.66266 0.06011 0.08297 0.0
H3 H 0.65367 0.98549 0.00801 0.0
H4 H 0.69334 0.97323 0.04182 0.0
H5 H 0.61708 0.99538 0.96532 0.0
H6 H 0.65701 0.99202 0.93028 0.0
H7 H 0.65986 0.08734 0.98969 0.0
H8 H 0.70042 0.08352 0.95501 0.0
H9 H 0.56507 0.07801 0.99126 0.0
H10 H 0.59302 0.97938 0.01254 0.0
H11 H 0.50752 0.0609 0.98879 0.0
H12 H 0.53567 0.96246 0.01148 0.0
H13 H 0.34776 0.0264 0.00988 0.0
H14 H 0.30858 0.03529 0.04447 0.0
H15 H 0.32793 0.93728 0.07298 0.0
H16 H 0.36818 0.92905 0.03859 0.0
H17 H 0.3435 0.92376 0.97816 0.0
H18 H 0.30716 0.93 0.94127 0.0
H19 H 0.34354 0.02895 0.9299 0.0
H20 H 0.37883 0.02277 0.96749 0.0
H21 H 0.40551 0.02969 0.01446 0.0
H22 H 0.46282 0.04616 0.01516 0.0
H23 H 0.49064 0.95138 0.98429 0.0
N24 N 0.3811 0.96924 -0.00039 0.0
H25 H 0.43294 0.93444 0.98494 0.0
C26 C 0.63579 0.03053 0.02559 0.0
C27 C 0.63792 0.05063 0.04737 0.0
C28 C 0.6603 0.04331 0.06694 0.0
C29 C 0.68118 0.0159 0.0648 0.0
C30 C 0.6777 0.99468 0.04374 0.0
C31 C 0.655 0.0017 0.02443 0.0
C32 C 0.63535 0.04187 0.98016 0.0
C33 C 0.63436 0.01534 0.96275 0.0
C34 C 0.65725 0.01334 0.94275 0.0
C35 C 0.68179 0.03741 0.94016 0.0
C36 C 0.68175 0.06462 0.95672 0.0
C37 C 0.65855 0.06692 0.97637 0.0
C38 C 0.58334 0.0303 0.00239 0.0
C39 C 0.5587 0.05273 0.99559 0.0
C40 C 0.52581 0.04292 0.99439 0.0
C41 C 0.51677 0.01032 0.00019 0.0
C42 C 0.54165 0.98767 0.00664 0.0
C43 C 0.57459 0.99745 0.00755 0.0
C44 C 0.36109 0.97695 0.02169 0.0
C45 C 0.34423 0.00707 0.02386 0.0
C46 C 0.32148 0.012 0.04355 0.0
C47 C 0.31476 0.98686 0.06135 0.0
C48 C 0.33268 0.9573 0.05978 0.0
C49 C 0.35562 0.95248 0.04012 0.0
C50 C 0.36393 0.97257 0.97554 0.0
C51 C 0.344 0.94654 0.96737 0.0
C52 C 0.32335 0.95018 0.94619 0.0
C53 C 0.3223 0.98005 0.93254 0.0
C54 C 0.34333 0.00578 0.94016 0.0
C55 C 0.36384 0.00216 0.96152 0.0
C56 C 0.41481 0.98041 -1e-05 0.0
C57 C 0.42375 0.01221 0.00806 0.0
C58 C 0.45676 0.02182 0.00816 0.0
C59 C 0.48155 1.00013 -0.00018 0.0
C60 C 0.4724 0.96856 0.99134 0.0
C61 C 0.43942 0.95887 0.99152 0.0
H62 H 0.97445 0.65215 0.52122 0.0
N63 N 0.03015 0.6195 0.50604 0.0
H64 H 0.9699 0.69 0.55718 0.0
H65 H 0.0738 0.62851 0.54336 0.0
H66 H 0.0692 0.66594 0.58008 0.0
H67 H 0.07867 0.65219 0.48364 0.0
H68 H 0.07443 0.69247 0.44898 0.0
H69 H 0.97496 0.63212 0.47769 0.0
H70 H 0.97001 0.67344 0.44369 0.0
H71 H 0.97491 0.59229 0.52891 0.0
H72 H 0.05652 0.57147 0.47852 0.0
H73 H 0.9579 0.53527 0.52677 0.0
H74 H 0.03823 0.51458 0.47476 0.0
H75 H 0.91071 0.34914 0.52233 0.0
H76 H 0.91566 0.31096 0.55847 0.0
H77 H 0.01733 0.33932 0.56786 0.0
H78 H 0.01234 0.37693 0.53186 0.0
H79 H 0.01714 0.35314 0.48894 0.0
H80 H 0.0272 0.31439 0.45441 0.0
H81 H 0.92742 0.32772 0.42774 0.0
H82 H 0.91796 0.36781 0.46204 0.0
H83 H 0.9191 0.43524 0.50307 0.0
H84 H 0.93437 0.49343 0.5026 0.0
H85 H 0.0369 0.46568 0.49724 0.0
N86 N 0.95842 0.38334 0.50014 0.0
H87 H 0.02122 0.40833 0.49581 0.0
C88 C 0.02466 0.63752 0.52952 0.0
C89 C 0.9951 0.65456 0.53414 0.0
C90 C 0.99244 0.67612 0.55489 0.0
C91 C 0.01928 0.68123 0.57143 0.0
C92 C 0.04824 0.66293 0.56748 0.0
C93 C 0.05084 0.64133 0.5467 0.0
C94 C 0.02722 0.63948 0.48333 0.0
C95 C 0.05505 0.65632 0.47459 0.0
C96 C 0.05245 0.67955 0.455 0.0
C97 C 0.02175 0.68668 0.44386 0.0
C98 C 0.99405 0.66852 0.45177 0.0
C99 C 0.99676 0.64503 0.47131 0.0
C100 C 0.01755 0.58633 0.50411 0.0
C101 C 0.98911 0.5757 0.51711 0.0
C102 C 0.97908 0.54282 0.51566 0.0
C103 C 0.99676 0.51994 0.50075 0.0
C104 C 0.02443 0.53106 0.48702 0.0
C105 C 0.03478 0.56371 0.48891 0.0
C106 C 0.96097 0.36594 0.5242 0.0
C107 C 0.93381 0.34765 0.53262 0.0
C108 C 0.9367 0.32589 0.55327 0.0
C109 C 0.96701 0.32189 0.56585 0.0
C110 C 0.99379 0.34149 0.55828 0.0
C111 C 0.99084 0.3633 0.53769 0.0
C112 C 0.96669 0.3637 0.47802 0.0
C113 C 0.99765 0.34863 0.47533 0.0
C114 C 0.00326 0.32598 0.45568 0.0
C115 C 0.97801 0.31758 0.43845 0.0
C116 C 0.94754 0.33379 0.4405 0.0
C117 C 0.94202 0.35664 0.4601 0.0
C118 C 0.96881 0.41728 0.49979 0.0
C119 C 0.94483 0.4419 0.50166 0.0
C120 C 0.95369 0.47515 0.5016 0.0
C121 C 0.98697 0.48453 0.50001 0.0
C122 C 0.01098 0.45967 0.49805 0.0
C123 C 0.00202 0.4265 0.49762 0.0
Li124 Li 0.99962 0.03044 0.2672 0.0
Li125 Li 0.99883 0.97026 0.26854 0.0
Li126 Li 0.02986 1.00005 0.23556 0.0
Li127 Li 0.96948 0.99849 0.23495 0.0
C128 C 0.06981 0.99571 0.27472 0.0
N129 N 0.13699 0.98542 0.27525 0.0
C130 C 0.08246 0.96462 0.2806 0.0
C131 C 0.09133 0.02159 0.26921 0.0
C132 C 0.1165 0.95993 0.28078 0.0
C133 C 0.12521 0.01587 0.26952 0.0
C134 C 0.94469 0.98845 0.29238 0.0
C135 C 0.90867 0.94749 0.31057 0.0
N136 N 0.91338 0.96087 0.33421 0.0
C137 C 0.94906 0.0019 0.31681 0.0
C138 C 0.92421 0.96115 0.28917 0.0
C139 C 0.93303 0.98757 0.33773 0.0
C140 C 0.96965 0.08651 0.28902 0.0
N141 N 0.99819 0.06915 0.28768 0.0
C142 C 0.02466 0.10692 0.31604 0.0
C143 C 0.0254 0.07867 0.30084 0.0
C144 C 0.99555 0.12545 0.31781 0.0
C145 C 0.96781 0.11498 0.30396 0.0
H146 H 0.94827 0.07808 0.27857 0.0
H147 H 0.04765 0.06424 0.29963 0.0
C148 C 0.99478 0.90235 0.28131 0.0
N149 N 0.99911 0.93318 0.29081 0.0
C150 C 0.99606 0.87511 0.29763 0.0
C151 C 0.00617 0.91193 0.33317 0.0
C152 C 0.00485 0.9384 0.31616 0.0
C153 C 0.002 0.87969 0.32395 0.0
H154 H 0.99089 0.89884 0.261 0.0
H155 H 0.00867 0.96318 0.32311 0.0
C156 C 0.99392 0.06963 0.22775 0.0
N157 N 0.98264 0.13668 0.22692 0.0
C158 C 0.96262 0.08178 0.22196 0.0
C159 C 0.01953 0.09159 0.23297 0.0
C160 C 0.95742 0.11576 0.22164 0.0
C161 C 0.01331 0.12539 0.23253 0.0
C162 C 0.98868 0.94301 0.21182 0.0
C163 C 0.00423 0.94345 0.18789 0.0
C164 C 0.95999 0.92455 0.21516 0.0
C165 C 0.99064 0.92554 0.16762 0.0
C166 C 0.94715 0.90703 0.1944 0.0
N167 N 0.9626 0.90788 0.17127 0.0
C168 C 0.08694 0.97151 0.2137 0.0
C169 C 0.07625 0.02641 0.20081 0.0
C170 C 0.11519 0.9705 0.19845 0.0
N171 N 0.06827 0.99924 0.21465 0.0
C172 C 0.10421 0.02648 0.18528 0.0
C173 C 0.12406 0.99822 0.18387 0.0
H174 H 0.07973 0.9501 0.22468 0.0
H175 H 0.06083 0.04801 0.20173 0.0
C176 C 0.90125 1.00067 0.22419 0.0
N177 N 0.93163 0.99831 0.21349 0.0
C178 C 0.87329 0.00189 0.20863 0.0
C179 C 0.90848 0.99765 0.17141 0.0
C180 C 0.93572 0.99728 0.18765 0.0
C181 C 0.8766 1.00033 0.18177 0.0
H182 H 0.89875 0.00225 0.2448 0.0
H183 H 0.96021 0.99627 0.17962 0.0
O184 O 0.03654 1.00067 0.274 0.0
O185 O 0.96063 0.00174 0.27173 0.0
O186 O 0.99935 0.03643 0.22868 0.0
O187 O 0.00149 0.96056 0.23185 0.0
H188 H 0.0662 0.94425 0.28475 0.0
H189 H 0.08197 0.0457 0.26429 0.0
H190 H 0.12663 0.93597 0.28521 0.0
H191 H 0.14214 0.03561 0.2651 0.0
H192 H 0.89291 0.92624 0.3084 0.0
H193 H 0.96494 0.02294 0.31965 0.0
H194 H 0.92058 0.95046 0.27037 0.0
H195 H 0.93632 0.9976 0.35678 0.0
H196 H 0.0467 0.11423 0.3262 0.0
H197 H 0.94474 0.12821 0.30507 0.0
H198 H 0.99328 0.85071 0.28958 0.0
H199 H 0.01042 0.91673 0.35334 0.0
H200 H 0.94249 0.06518 0.21794 0.0
H201 H 0.04381 0.08261 0.23778 0.0
H202 H 0.9333 0.12551 0.21728 0.0
H203 H 0.03282 0.14264 0.23674 0.0
H204 H 0.02638 0.95767 0.18492 0.0
H205 H 0.94758 0.92406 0.23351 0.0
H206 H 0.00233 0.92575 0.14898 0.0
H207 H 0.92485 0.89281 0.19668 0.0
H208 H 0.12949 0.94804 0.19766 0.0
H209 H 0.11027 0.04849 0.17457 0.0
H210 H 0.84947 0.00475 0.21763 0.0
H211 H 0.91253 0.9958 0.15094 0.0
Li212 Li 0.96857 0.00554 0.77017 0.0
Li213 Li 0.02937 0.00469 0.77009 0.0
Li214 Li 0.99688 0.03526 0.73689 0.0
Li215 Li 0.99978 0.97512 0.73544 0.0
C216 C 0.98847 0.06079 0.79486 0.0
N217 N 0.9653 0.09561 0.83666 0.0
C218 C 0.00601 0.06067 0.81792 0.0
C219 C 0.95928 0.07884 0.79299 0.0
C220 C 0.99386 0.07839 0.83885 0.0
C221 C 0.94793 0.09621 0.81436 0.0
C222 C 0.00622 0.94005 0.78747 0.0
C223 C 0.03585 0.8891 0.79317 0.0
N224 N 0.02196 0.88551 0.81674 0.0
C225 C 0.992 0.93565 0.81166 0.0
C226 C 0.02813 0.91642 0.77806 0.0
C227 C 1.00037 0.90801 0.8262 0.0
C228 C 0.90043 1.00035 0.78046 0.0
N229 N 0.9304 0.00455 0.79152 0.0
C230 C 0.90566 0.01032 0.83285 0.0
C231 C 0.93348 0.0088 0.81726 0.0
C232 C 0.87418 0.00655 0.82202 0.0
C233 C 0.87189 0.00109 0.79542 0.0
H234 H 0.89866 0.99655 0.75998 0.0
H235 H 0.95759 0.01159 0.82569 0.0
C236 C 0.0939 0.02413 0.78256 0.0
N237 N 0.0685 0.00477 0.79035 0.0
C238 C 0.12372 0.02381 0.7959 0.0
C239 C 0.10051 0.98396 0.82519 0.0
C240 C 0.07107 0.98539 0.81152 0.0
C241 C 0.12738 0.00312 0.81728 0.0
H242 H 0.09111 0.03946 0.76573 0.0
H243 H 0.0504 0.97095 0.81784 0.0
C244 C 0.94261 0.01785 0.71332 0.0
N245 N 0.90924 0.04857 0.67387 0.0
C246 C 0.94597 0.00649 0.68815 0.0
C247 C 0.92203 0.04459 0.71849 0.0
C248 C 0.92892 0.0224 0.66846 0.0
C249 C 0.90546 0.05987 0.69826 0.0
C250 C 0.06449 0.99534 0.72106 0.0
C251 C 0.07564 0.00842 0.69782 0.0
C252 C 0.0824 0.97029 0.73297 0.0
C253 C 0.10422 0.99578 0.68666 0.0
C254 C 0.11089 0.95834 0.72124 0.0
N255 N 0.1211 0.97119 0.69849 0.0
C256 C 0.98924 0.10336 0.72654 0.0
C257 C 1.00063 0.07033 0.69014 0.0
C258 C 0.98692 0.13143 0.71119 0.0
N259 N 0.9957 0.07358 0.71581 0.0
C260 C 0.99872 0.09777 0.67408 0.0
C261 C 0.99162 0.12881 0.68458 0.0
H262 H 0.98582 0.10537 0.74701 0.0
H263 H 0.00558 0.04632 0.6821 0.0
C264 C 0.98534 0.90921 0.72285 0.0
N265 N 1.00055 0.93692 0.71431 0.0
C266 C 0.98703 0.88014 0.70862 0.0
C267 C 0.01885 0.90904 0.67657 0.0
C268 C 0.01654 0.93752 0.69142 0.0
C269 C 0.00433 0.8797 0.68528 0.0
H270 H 0.97238 0.90956 0.74097 0.0
H271 H 0.02754 0.96009 0.68466 0.0
O272 O 0.99997 0.04349 0.77421 0.0
O273 O 0.99827 0.96707 0.77303 0.0
O274 O 0.95967 0.00307 0.73276 0.0
O275 O 0.03642 0.00738 0.73213 0.0
H276 H 0.02869 0.04694 0.81968 0.0
H277 H 0.94531 0.07908 0.77534 0.0
H278 H 0.00712 0.07842 0.85684 0.0
H279 H 0.92526 0.11007 0.81325 0.0
H280 H 0.05279 0.87067 0.78611 0.0
H281 H 0.97483 0.95346 0.81922 0.0
H282 H 0.03879 0.91883 0.75918 0.0
H283 H 0.98968 0.90444 0.84501 0.0
H284 H 0.90893 0.01514 0.85311 0.0
H285 H 0.84836 0.99732 0.78618 0.0
H286 H 0.14393 0.03892 0.78923 0.0
H287 H 0.1022 0.96818 0.84189 0.0
H288 H 0.96179 0.98581 0.68385 0.0
H289 H 0.91915 0.05362 0.73788 0.0
H290 H 0.93142 0.01401 0.64886 0.0
H291 H 0.88965 0.08075 0.70194 0.0
H292 H 0.0623 0.02805 0.68843 0.0
H293 H 0.07466 0.96045 0.75121 0.0
H294 H 0.11301 0.00555 0.66861 0.0
H295 H 0.12495 0.93892 0.73026 0.0
H296 H 0.98186 0.15497 0.7201 0.0
H297 H 0.00215 0.0946 0.65363 0.0
H298 H 0.97556 0.85809 0.71612 0.0
H299 H 0.03174 0.91005 0.6584 0.0
H300 H 0.25459 0.01546 0.05384 0.0
H301 H 0.18487 0.97115 0.19329 0.0
H302 H 0.31248 0.96626 0.11174 0.0
H303 H 0.1298 0.02335 0.13535 0.0
H304 H 0.23217 0.96943 0.16421 0.0
H305 H 0.20928 0.01965 0.08415 0.0
C306 C 0.25798 0.00588 0.07305 0.0
C307 C 0.28757 0.99062 0.08024 0.0
C308 C 0.20976 0.98134 0.15792 0.0
C309 C 0.23521 0.99474 0.11505 0.0
C310 C 0.18269 0.98217 0.17444 0.0
C311 C 0.15329 0.99743 0.16676 0.0
C312 C 0.20739 0.99576 0.13349 0.0
C313 C 0.15205 0.01171 0.14225 0.0
C314 C 0.23191 0.00806 0.09033 0.0
C315 C 0.29006 0.97796 0.10526 0.0
N316 N 0.17863 0.01044 0.12651 0.0
N317 N 0.2642 0.98026 0.12175 0.0
H318 H 0.92526 0.30421 0.60503 0.0
H319 H 0.0317 0.14646 0.64465 0.0
H320 H 0.01845 0.27903 0.57056 0.0
H321 H 0.9457 0.17821 0.68641 0.0
H322 H 0.02654 0.19458 0.61685 0.0
H323 H 0.93171 0.25802 0.63482 0.0
C324 C 0.94712 0.28904 0.6038 0.0
C325 C 0.97138 0.29554 0.58531 0.0
C326 C 0.00884 0.19111 0.63215 0.0
C327 C 0.97888 0.24264 0.61924 0.0
C328 C 0.01166 0.16352 0.64792 0.0
C329 C 0.98905 0.15827 0.66784 0.0
C330 C 0.98307 0.21358 0.63617 0.0
C331 C 0.96385 0.18146 0.67142 0.0
C332 C 0.95084 0.26277 0.62085 0.0
C333 C 0.99933 0.27525 0.58471 0.0
N334 N 0.96144 0.20802 0.65566 0.0
N335 N 0.00221 0.24965 0.6013 0.0
H336 H 0.67933 0.01342 0.11745 0.0
H337 H 0.87213 0.02795 0.13363 0.0
H338 H 0.74581 0.00914 0.05305 0.0
H339 H 0.81349 0.97755 0.19065 0.0
H340 H 0.82438 0.02976 0.10555 0.0
H341 H 0.72675 0.00864 0.14666 0.0
C342 C 0.70389 0.01133 0.10954 0.0
C343 C 0.70881 0.01142 0.0829 0.0
C344 C 0.82209 0.01825 0.12422 0.0
C345 C 0.7627 0.00673 0.11589 0.0
C346 C 0.84944 0.01694 0.14028 0.0
C347 C 0.84724 0.00221 0.16464 0.0
C348 C 0.79198 0.00543 0.13265 0.0
C349 C 0.8165 0.98953 0.17227 0.0
C350 C 0.73079 0.00853 0.12612 0.0
C351 C 0.74102 0.00877 0.07349 0.0
N352 N 0.79003 0.99159 0.15638 0.0
N353 N 0.76679 0.00686 0.08997 0.0
H354 H 0.96774 0.69765 0.60319 0.0
H355 H 0.05859 0.85667 0.65982 0.0
H356 H 0.06745 0.72519 0.58449 0.0
H357 H 0.95749 0.83225 0.67647 0.0
H358 H 0.06316 0.80663 0.63423 0.0
H359 H 0.96452 0.74458 0.63248 0.0
C360 C 0.98901 0.71345 0.60533 0.0
C361 C 0.01788 0.70748 0.59126 0.0
C362 C 0.03998 0.81213 0.64352 0.0
C363 C 0.01438 0.76122 0.6248 0.0
C364 C 0.03728 0.84085 0.658 0.0
C365 C 0.00753 0.84885 0.67017 0.0
C366 C 0.01272 0.79115 0.64108 0.0
C367 C 0.98098 0.82698 0.66758 0.0
C368 C 0.98718 0.7402 0.6221 0.0
C369 C 0.04482 0.72854 0.59511 0.0
N370 N 0.98415 0.79922 0.65323 0.0
N371 N 0.04233 0.75453 0.61137 0.0
H372 H 0.30146 0.93527 0.89645 0.0
H373 H 0.166 0.05384 0.83437 0.0
H374 H 0.28668 0.03569 0.92105 0.0
H375 H 0.1606 0.9479 0.83191 0.0
H376 H 0.21689 0.04958 0.85952 0.0
H377 H 0.25635 0.94171 0.86593 0.0
C378 C 0.28887 0.95872 0.89542 0.0
C379 C 0.29773 0.98483 0.91167 0.0
C380 C 0.20461 0.02731 0.85334 0.0
C381 C 0.24635 0.99246 0.8764 0.0
C382 C 0.17572 0.02972 0.83893 0.0
C383 C 0.15901 0.00117 0.83128 0.0
C384 C 0.21704 0.99613 0.85977 0.0
C385 C 0.17252 0.9705 0.83776 0.0
C386 C 0.26319 0.96238 0.87791 0.0
C387 C 0.28099 0.01491 0.90887 0.0
N388 N 0.20074 0.96879 0.85163 0.0
N389 N 0.256 0.01784 0.89169 0.0
H390 H 0.01014 0.25921 0.44598 0.0
H391 H 0.96521 0.18467 0.30825 0.0
H392 H 0.95599 0.31331 0.38853 0.0
H393 H 0.022 0.13343 0.36571 0.0
H394 H 0.96197 0.23238 0.33682 0.0
H395 H 0.01586 0.21364 0.41606 0.0
C396 C 0.99979 0.26173 0.42693 0.0
C397 C 0.98269 0.29032 0.41976 0.0
C398 C 0.97523 0.21073 0.34312 0.0
C399 C 0.98858 0.23763 0.38543 0.0
C400 C 0.97693 0.18341 0.32688 0.0
C401 C 0.99391 0.15497 0.33458 0.0
C402 C 0.9905 0.20955 0.36727 0.0
C403 C 0.00902 0.15493 0.3588 0.0
C404 C 0.00285 0.23551 0.40989 0.0
C405 C 0.96912 0.29167 0.39499 0.0
N406 N 0.00687 0.18172 0.37426 0.0
N407 N 0.97231 0.26567 0.37873 0.0
H408 H 0.74676 0.03623 0.95163 0.0
H409 H 0.81298 0.03118 0.80924 0.0
H410 H 0.6795 0.02696 0.88812 0.0
H411 H 0.86633 0.98741 0.87236 0.0
H412 H 0.76502 0.03698 0.8372 0.0
H413 H 0.79283 0.0269 0.92228 0.0
C414 C 0.7418 0.03244 0.93142 0.0
C415 C 0.70944 0.0325 0.92216 0.0
C416 C 0.78727 0.02598 0.84477 0.0
C417 C 0.76186 0.02195 0.88857 0.0
C418 C 0.81468 0.02245 0.82881 0.0
C419 C 0.84412 0.00894 0.83837 0.0
C420 C 0.78946 0.01658 0.87058 0.0
C421 C 0.84469 0.99875 0.86416 0.0
C422 C 0.768 0.02689 0.91476 0.0
C423 C 0.70418 0.02707 0.8959 0.0
N424 N 0.81794 0.0031 0.87939 0.0
N425 N 0.73022 0.02231 0.87988 0.0
H426 H 0.9833 0.69023 0.40034 0.0
H427 H 0.0451 0.87135 0.36383 0.0
H428 H 0.05236 0.74657 0.44537 0.0
H429 H 0.96574 0.82245 0.32415 0.0
H430 H 0.04956 0.8244 0.39264 0.0
H431 H 0.97792 0.73698 0.37094 0.0
C432 C 0.9973 0.71238 0.40408 0.0
C433 C 0.0185 0.71431 0.42531 0.0
C434 C 0.03111 0.82391 0.37767 0.0
C435 C 0.01263 0.76776 0.39165 0.0
C436 C 0.02839 0.85087 0.36128 0.0
C437 C 0.00485 0.85104 0.34158 0.0
C438 C 0.01026 0.7967 0.37437 0.0
C439 C 0.98446 0.82331 0.33889 0.0
C440 C 0.99429 0.73901 0.38724 0.0
C441 C 0.03624 0.74358 0.42902 0.0
N442 N 0.98762 0.79727 0.35511 0.0
N443 N 0.03292 0.76905 0.41239 0.0
loop_
_geom_bond_atom_site_label_1
_geom_bond_atom_site_label_2
_geom_bond_distance
_geom_bond_site_symmetry_2
_ccdc_geom_bond_type
H0 C27 0.929 . S
N1 C26 1.433 . S
N1 C32 1.435 1_554 S
N1 C38 1.423 1_554 S
H2 C28 0.930 . S
H3 C31 0.931 . S
H4 C30 0.929 . S
H5 C33 0.930 . S
H6 C34 0.932 . S
H7 C37 0.929 . S
H8 C36 0.931 . S
H9 C39 0.929 . S
H10 C43 0.932 1_565 S
H11 C40 0.931 . S
H12 C42 0.929 1_565 S
H13 C45 0.929 . S
H14 C46 0.930 . S
H15 C48 0.929 . S
H16 C49 0.931 . S
H17 C51 0.930 . S
H18 C52 0.932 . S
H19 C54 0.931 . S
H20 C55 0.929 . S
H21 C57 0.929 . S
H22 C58 0.931 . S
H23 C60 0.929 1_565 S
N24 C44 1.433 . S
N24 C50 1.435 1_554 S
N24 C56 1.423 1_554 S
H25 C61 0.932 1_565 S
C26 N1 1.433 . S
C26 C27 1.363 . S
C26 C31 1.370 1_545 S
C27 H0 0.929 . S
C27 C26 1.363 . S
C27 C28 1.385 . S
C28 H2 0.930 . S
C28 C27 1.385 . S
C28 C29 1.357 . S
C29 C28 1.357 . S
C29 C30 1.406 1_545 S
C30 H4 0.929 . S
C30 C29 1.406 1_565 S
C30 C31 1.391 . S
C31 H3 0.931 . S
C31 C26 1.370 1_565 S
C31 C30 1.391 . S
C32 N1 1.435 1_556 S
C32 C33 1.358 1_545 S
C32 C37 1.371 . S
C33 H5 0.930 . S
C33 C32 1.358 1_565 S
C33 C34 1.405 . S
C34 H6 0.932 . S
C34 C33 1.405 . S
C34 C35 1.383 1_565 S
C35 C34 1.383 1_545 S
C35 C36 1.393 . S
C36 H8 0.931 . S
C36 C35 1.393 . S
C36 C37 1.382 . S
C37 H7 0.929 . S
C37 C32 1.371 . S
C37 C36 1.382 . S
C38 N1 1.423 1_556 S
C38 C39 1.362 1_556 S
C38 C43 1.388 . S
C39 H9 0.929 . S
C39 C38 1.362 1_554 S
C39 C40 1.376 . S
C40 H11 0.931 . S
C40 C39 1.376 . S
C40 C41 1.396 1_554 S
C41 C40 1.396 1_556 S
C41 C42 1.348 . S
C41 C59 1.472 . S
C42 H12 0.929 1_545 S
C42 C41 1.348 . S
C42 C43 1.443 . S
C43 H10 0.932 1_545 S
C43 C38 1.388 . S
C43 C42 1.443 . S
C44 N24 1.433 . S
C44 C45 1.363 . S
C44 C49 1.370 1_545 S
C45 H13 0.929 . S
C45 C44 1.363 . S
C45 C46 1.385 . S
C46 H14 0.930 . S
C46 C45 1.385 . S
C46 C47 1.357 . S
C47 C46 1.357 . S
C47 C48 1.406 1_545 S
C48 H15 0.929 . S
C48 C47 1.406 1_565 S
C48 C49 1.391 . S
C49 H16 0.931 . S
C49 C44 1.370 1_565 S
C49 C48 1.391 . S
C50 N24 1.435 1_556 S
C50 C51 1.358 1_545 S
C50 C55 1.371 . S
C51 H17 0.930 . S
C51 C50 1.358 1_565 S
C51 C52 1.405 . S
C52 H18 0.932 . S
C52 C51 1.405 . S
C52 C53 1.383 1_565 S
C53 C52 1.383 1_545 S
C53 C54 1.393 . S
C54 H19 0.931 . S
C54 C53 1.393 . S
C54 C55 1.382 . S
C55 H20 0.929 . S
C55 C50 1.371 . S
C55 C54 1.382 . S
C56 N24 1.423 1_556 S
C56 C57 1.362 1_556 S
C56 C61 1.388 . S
C57 H21 0.929 . S
C57 C56 1.362 1_554 S
C57 C58 1.376 . S
C58 H22 0.931 . S
C58 C57 1.376 . S
C58 C59 1.396 1_554 S
C59 C41 1.472 . S
C59 C58 1.396 1_556 S
C59 C60 1.348 . S
C60 H23 0.929 1_545 S
C60 C59 1.348 . S
C60 C61 1.443 . S
C61 H25 0.932 1_545 S
C61 C56 1.388 . S
C61 C60 1.443 . S
H62 C89 0.929 . S
N63 C88 1.433 . S
N63 C94 1.435 . S
N63 C100 1.423 . S
H64 C90 0.930 . S
H65 C93 0.931 . S
H66 C92 0.929 . S
H67 C95 0.930 . S
H68 C96 0.932 . S
H69 C99 0.929 . S
H70 C98 0.931 . S
H71 C101 0.929 . S
H72 C105 0.932 1_455 S
H73 C102 0.931 . S
H74 C104 0.929 1_455 S
H75 C107 0.929 . S
H76 C108 0.930 . S
H77 C110 0.929 . S
H78 C111 0.931 . S
H79 C113 0.930 . S
H80 C114 0.932 . S
H81 C116 0.931 . S
H82 C117 0.929 . S
H83 C119 0.929 . S
H84 C120 0.931 . S
H85 C122 0.929 1_455 S
N86 C106 1.433 . S
N86 C112 1.435 . S
N86 C118 1.423 . S
H87 C123 0.932 1_455 S
C88 N63 1.433 . S
C88 C89 1.363 . S
C88 C93 1.370 1_655 S
C89 H62 0.929 . S
C89 C88 1.363 . S
C89 C90 1.385 . S
C90 H64 0.930 . S
C90 C89 1.385 . S
C90 C91 1.357 . S
C91 C90 1.357 . S
C91 C92 1.406 1_655 S
C92 H66 0.929 . S
C92 C91 1.406 1_455 S
C92 C93 1.391 . S
C93 H65 0.931 . S
C93 C88 1.370 1_455 S
C93 C92 1.391 . S
C94 N63 1.435 . S
C94 C95 1.358 1_655 S
C94 C99 1.371 . S
C95 H67 0.930 . S
C95 C94 1.358 1_455 S
C95 C96 1.405 . S
C96 H68 0.932 . S
C96 C95 1.405 . S
C96 C97 1.383 1_455 S
C97 C96 1.383 1_655 S
C97 C98 1.393 . S
C98 H70 0.931 . S
C98 C97 1.393 . S
C98 C99 1.382 . S
C99 H69 0.929 . S
C99 C94 1.371 . S
C99 C98 1.382 . S
C100 N63 1.423 . S
C100 C101 1.362 . S
C100 C105 1.388 . S
C101 H71 0.929 . S
C101 C100 1.362 . S
C101 C102 1.376 . S
C102 H73 0.931 . S
C102 C101 1.376 . S
C102 C103 1.396 . S
C103 C102 1.396 . S
C103 C104 1.348 . S
C103 C121 1.472 . S
C104 H74 0.929 1_655 S
C104 C103 1.348 . S
C104 C105 1.443 . S
C105 H72 0.932 1_655 S
C105 C100 1.388 . S
C105 C104 1.443 . S
C106 N86 1.433 . S
C106 C107 1.363 . S
C106 C111 1.370 1_655 S
C107 H75 0.929 . S
C107 C106 1.363 . S
C107 C108 1.385 . S
C108 H76 0.930 . S
C108 C107 1.385 . S
C108 C109 1.357 . S
C109 C108 1.357 . S
C109 C110 1.406 1_655 S
C110 H77 0.929 . S
C110 C109 1.406 1_455 S
C110 C111 1.391 . S
C111 H78 0.931 . S
C111 C106 1.370 1_455 S
C111 C110 1.391 . S
C112 N86 1.435 . S
C112 C113 1.358 1_655 S
C112 C117 1.371 . S
C113 H79 0.930 . S
C113 C112 1.358 1_455 S
C113 C114 1.405 . S
C114 H80 0.932 . S
C114 C113 1.405 . S
C114 C115 1.383 1_455 S
C115 C114 1.383 1_655 S
C115 C116 1.393 . S
C116 H81 0.931 . S
C116 C115 1.393 . S
C116 C117 1.382 . S
C117 H82 0.929 . S
C117 C112 1.371 . S
C117 C116 1.382 . S
C118 N86 1.423 . S
C118 C119 1.362 . S
C118 C123 1.388 . S
C119 H83 0.929 . S
C119 C118 1.362 . S
C119 C120 1.376 . S
C120 H84 0.931 . S
C120 C119 1.376 . S
C120 C121 1.396 . S
C121 C103 1.472 . S
C121 C120 1.396 . S
C121 C122 1.348 . S
C122 H85 0.929 1_655 S
C122 C121 1.348 . S
C122 C123 1.443 . S
C123 H87 0.932 1_655 S
C123 C118 1.388 . S
C123 C122 1.443 . S
Li124 N141 1.990 . S
Li124 O184 1.956 1_545 S
Li124 O185 1.970 1_455 S
Li124 O186 1.961 1_455 S
Li125 N149 1.990 . S
Li125 O184 1.970 1_655 S
Li125 O185 1.956 1_565 S
Li125 O187 1.961 1_655 S
Li126 N171 1.990 . S
Li126 O184 1.961 1_545 S
Li126 O186 1.956 1_455 S
Li126 O187 1.970 1_545 S
Li127 N177 1.990 . S
Li127 O185 1.961 1_565 S
Li127 O186 1.970 1_565 S
Li127 O187 1.956 1_655 S
C128 C130 1.348 1_545 S
C128 C131 1.356 . S
C128 O184 1.325 1_545 S
N129 C132 1.314 1_545 S
N129 C133 1.279 . S
C130 C128 1.348 1_565 S
C130 C132 1.353 . S
C130 H188 0.929 . S
C131 C128 1.356 . S
C131 C133 1.358 . S
C131 H189 0.930 . S
C132 N129 1.314 1_565 S
C132 C130 1.353 . S
C132 H190 0.930 . S
C133 N129 1.279 . S
C133 C131 1.358 . S
C133 H191 0.930 . S
C134 C137 1.348 . S
C134 C138 1.356 1_545 S
C134 O185 1.325 . S
C135 N136 1.279 . S
C135 C138 1.358 . S
C135 H192 0.930 . S
N136 C135 1.279 . S
N136 C139 1.314 1_565 S
C137 C134 1.348 . S
C137 C139 1.353 . S
C137 H193 0.929 . S
C138 C134 1.356 1_565 S
C138 C135 1.358 . S
C138 H194 0.930 . S
C139 N136 1.314 1_545 S
C139 C137 1.353 . S
C139 H195 0.930 . S
C140 N141 1.314 1_655 S
C140 C145 1.353 . S
C140 H146 0.930 . S
N141 Li124 1.990 . S
N141 C140 1.314 1_455 S
N141 C143 1.279 . S
C142 C143 1.358 . S
C142 C144 1.356 . S
C142 H196 0.930 . S
C143 N141 1.279 . S
C143 C142 1.358 . S
C143 H147 0.930 . S
C144 C142 1.356 . S
C144 C145 1.348 1_455 S
C145 C140 1.353 . S
C145 C144 1.348 1_655 S
C145 H197 0.929 . S
H146 C140 0.930 . S
H147 C143 0.930 . S
C148 N149 1.314 1_455 S
C148 C150 1.353 . S
C148 H154 0.930 . S
N149 Li125 1.990 . S
N149 C148 1.314 1_655 S
N149 C152 1.279 . S
C150 C148 1.353 . S
C150 C153 1.348 . S
C150 H198 0.929 . S
C151 C152 1.358 . S
C151 C153 1.356 1_655 S
C151 H199 0.930 . S
C152 N149 1.279 . S
C152 C151 1.358 . S
C152 H155 0.930 . S
C153 C150 1.348 . S
C153 C151 1.356 1_455 S
H154 C148 0.930 . S
H155 C152 0.930 . S
C156 C158 1.348 1_455 S
C156 C159 1.356 . S
C156 O186 1.325 1_455 S
N157 C160 1.314 1_455 S
N157 C161 1.279 . S
C158 C156 1.348 1_655 S
C158 C160 1.353 . S
C158 H200 0.929 . S
C159 C156 1.356 . S
C159 C161 1.358 . S
C159 H201 0.930 . S
C160 N157 1.314 1_655 S
C160 C158 1.353 . S
C160 H202 0.930 . S
C161 N157 1.279 . S
C161 C159 1.358 . S
C161 H203 0.930 . S
C162 C163 1.348 . S
C162 C164 1.356 1_455 S
C162 O187 1.325 . S
C163 C162 1.348 . S
C163 C165 1.353 . S
C163 H204 0.929 . S
C164 C162 1.356 1_655 S
C164 C166 1.358 . S
C164 H205 0.930 . S
C165 C163 1.353 . S
C165 N167 1.314 1_455 S
C165 H206 0.930 . S
C166 C164 1.358 . S
C166 N167 1.279 . S
C166 H207 0.930 . S
N167 C165 1.314 1_655 S
N167 C166 1.279 . S
C168 C170 1.353 . S
C168 N171 1.314 1_565 S
C168 H174 0.930 . S
C169 N171 1.279 . S
C169 C172 1.358 . S
C169 H175 0.930 . S
C170 C168 1.353 . S
C170 C173 1.348 1_565 S
C170 H208 0.929 . S
N171 Li126 1.990 . S
N171 C168 1.314 1_545 S
N171 C169 1.279 . S
C172 C169 1.358 . S
C172 C173 1.356 . S
C172 H209 0.930 . S
C173 C170 1.348 1_545 S
C173 C172 1.356 . S
H174 C168 0.930 . S
H175 C169 0.930 . S
C176 N177 1.314 1_545 S
C176 C178 1.353 . S
C176 H182 0.930 . S
N177 Li127 1.990 . S
N177 C176 1.314 1_565 S
N177 C180 1.279 . S
C178 C176 1.353 . S
C178 C181 1.348 . S
C178 H210 0.929 . S
C179 C180 1.358 . S
C179 C181 1.356 1_565 S
C179 H211 0.930 . S
C180 N177 1.279 . S
C180 C179 1.358 . S
C180 H183 0.930 . S
C181 C178 1.348 . S
C181 C179 1.356 1_545 S
H182 C176 0.930 . S
H183 C180 0.930 . S
O184 Li124 1.956 1_565 S
O184 Li125 1.970 1_455 S
O184 Li126 1.961 1_565 S
O184 C128 1.325 1_565 S
O185 Li124 1.970 1_655 S
O185 Li125 1.956 1_545 S
O185 Li127 1.961 1_545 S
O185 C134 1.325 . S
O186 Li124 1.961 1_655 S
O186 Li126 1.956 1_655 S
O186 Li127 1.970 1_545 S
O186 C156 1.325 1_655 S
O187 Li125 1.961 1_455 S
O187 Li126 1.970 1_565 S
O187 Li127 1.956 1_455 S
O187 C162 1.325 . S
H188 C130 0.929 . S
H189 C131 0.930 . S
H190 C132 0.930 . S
H191 C133 0.930 . S
H192 C135 0.930 . S
H193 C137 0.929 . S
H194 C138 0.930 . S
H195 C139 0.930 . S
H196 C142 0.930 . S
H197 C145 0.929 . S
H198 C150 0.929 . S
H199 C151 0.930 . S
H200 C158 0.929 . S
H201 C159 0.930 . S
H202 C160 0.930 . S
H203 C161 0.930 . S
H204 C163 0.929 . S
H205 C164 0.930 . S
H206 C165 0.930 . S
H207 C166 0.930 . S
H208 C170 0.929 . S
H209 C172 0.930 . S
H210 C178 0.929 . S
H211 C179 0.930 . S
Li212 N229 1.990 . S
Li212 O272 1.956 1_655 S
Li212 O273 1.970 1_545 S
Li212 O274 1.961 1_545 S
Li213 N237 1.990 . S
Li213 O272 1.970 1_565 S
Li213 O273 1.956 1_455 S
Li213 O275 1.961 1_565 S
Li214 N259 1.990 . S
Li214 O272 1.961 1_655 S
Li214 O274 1.956 1_545 S
Li214 O275 1.970 1_655 S
Li215 N265 1.990 . S
Li215 O273 1.961 1_455 S
Li215 O274 1.970 1_455 S
Li215 O275 1.956 1_565 S
C216 C218 1.348 . S
C216 C219 1.356 1_455 S
C216 O272 1.325 . S
N217 C220 1.314 1_655 S
N217 C221 1.279 . S
C218 C216 1.348 . S
C218 C220 1.353 . S
C218 H276 0.929 . S
C219 C216 1.356 1_655 S
C219 C221 1.358 . S
C219 H277 0.930 . S
C220 N217 1.314 1_455 S
C220 C218 1.353 . S
C220 H278 0.930 . S
C221 N217 1.279 . S
C221 C219 1.358 . S
C221 H279 0.930 . S
C222 C225 1.348 1_455 S
C222 C226 1.356 . S
C222 O273 1.325 1_455 S
C223 N224 1.279 . S
C223 C226 1.358 . S
C223 H280 0.930 . S
N224 C223 1.279 . S
N224 C227 1.314 1_455 S
C225 C222 1.348 1_655 S
C225 C227 1.353 . S
C225 H281 0.929 . S
C226 C222 1.356 . S
C226 C223 1.358 . S
C226 H282 0.930 . S
C227 N224 1.314 1_655 S
C227 C225 1.353 . S
C227 H283 0.930 . S
C228 N229 1.314 1_565 S
C228 C233 1.353 . S
C228 H234 0.930 . S
N229 Li212 1.990 . S
N229 C228 1.314 1_545 S
N229 C231 1.279 . S
C230 C231 1.358 . S
C230 C232 1.356 . S
C230 H284 0.930 . S
C231 N229 1.279 . S
C231 C230 1.358 . S
C231 H235 0.930 . S
C232 C230 1.356 . S
C232 C233 1.348 1_545 S
C233 C228 1.353 . S
C233 C232 1.348 1_565 S
C233 H285 0.929 . S
H234 C228 0.930 . S
H235 C231 0.930 . S
C236 N237 1.314 1_545 S
C236 C238 1.353 . S
C236 H242 0.930 . S
N237 Li213 1.990 . S
N237 C236 1.314 1_565 S
N237 C240 1.279 . S
C238 C236 1.353 . S
C238 C241 1.348 . S
C238 H286 0.929 . S
C239 C240 1.358 . S
C239 C241 1.356 1_565 S
C239 H287 0.930 . S
C240 N237 1.279 . S
C240 C239 1.358 . S
C240 H243 0.930 . S
C241 C238 1.348 . S
C241 C239 1.356 1_545 S
H242 C236 0.930 . S
H243 C240 0.930 . S
C244 C246 1.348 1_545 S
C244 C247 1.356 . S
C244 O274 1.325 1_545 S
N245 C248 1.314 1_545 S
N245 C249 1.279 . S
C246 C244 1.348 1_565 S
C246 C248 1.353 . S
C246 H288 0.929 . S
C247 C244 1.356 . S
C247 C249 1.358 . S
C247 H289 0.930 . S
C248 N245 1.314 1_565 S
C248 C246 1.353 . S
C248 H290 0.930 . S
C249 N245 1.279 . S
C249 C247 1.358 . S
C249 H291 0.930 . S
C250 C251 1.348 . S
C250 C252 1.356 1_545 S
C250 O275 1.325 . S
C251 C250 1.348 . S
C251 C253 1.353 . S
C251 H292 0.929 . S
C252 C250 1.356 1_565 S
C252 C254 1.358 . S
C252 H293 0.930 . S
C253 C251 1.353 . S
C253 N255 1.314 1_545 S
C253 H294 0.930 . S
C254 C252 1.358 . S
C254 N255 1.279 . S
C254 H295 0.930 . S
N255 C253 1.314 1_565 S
N255 C254 1.279 . S
C256 C258 1.353 . S
C256 N259 1.314 1_455 S
C256 H262 0.930 . S
C257 N259 1.279 . S
C257 C260 1.358 . S
C257 H263 0.930 . S
C258 C256 1.353 . S
C258 C261 1.348 . S
C258 H296 0.929 . S
N259 Li214 1.990 . S
N259 C256 1.314 1_655 S
N259 C257 1.279 . S
C260 C257 1.358 . S
C260 C261 1.356 1_655 S
C260 H297 0.930 . S
C261 C258 1.348 . S
C261 C260 1.356 1_455 S
H262 C256 0.930 . S
H263 C257 0.930 . S
C264 N265 1.314 1_655 S
C264 C266 1.353 . S
C264 H270 0.930 . S
N265 Li215 1.990 . S
N265 C264 1.314 1_455 S
N265 C268 1.279 . S
C266 C264 1.353 . S
C266 C269 1.348 1_655 S
C266 H298 0.929 . S
C267 C268 1.358 . S
C267 C269 1.356 . S
C267 H299 0.930 . S
C268 N265 1.279 . S
C268 C267 1.358 . S
C268 H271 0.930 . S
C269 C266 1.348 1_455 S
C269 C267 1.356 . S
H270 C264 0.930 . S
H271 C268 0.930 . S
O272 Li212 1.956 1_455 S
O272 Li213 1.970 1_545 S
O272 Li214 1.961 1_455 S
O272 C216 1.325 . S
O273 Li212 1.970 1_565 S
O273 Li213 1.956 1_655 S
O273 Li215 1.961 1_655 S
O273 C222 1.325 1_655 S
O274 Li212 1.961 1_565 S
O274 Li214 1.956 1_565 S
O274 Li215 1.970 1_655 S
O274 C244 1.325 1_565 S
O275 Li213 1.961 1_545 S
O275 Li214 1.970 1_455 S
O275 Li215 1.956 1_545 S
O275 C250 1.325 . S
H276 C218 0.929 . S
H277 C219 0.930 . S
H278 C220 0.930 . S
H279 C221 0.930 . S
H280 C223 0.930 . S
H281 C225 0.929 . S
H282 C226 0.930 . S
H283 C227 0.930 . S
H284 C230 0.930 . S
H285 C233 0.929 . S
H286 C238 0.929 . S
H287 C239 0.930 . S
H288 C246 0.929 . S
H289 C247 0.930 . S
H290 C248 0.930 . S
H291 C249 0.930 . S
H292 C251 0.929 . S
H293 C252 0.930 . S
H294 C253 0.930 . S
H295 C254 0.930 . S
H296 C258 0.929 . S
H297 C260 0.930 . S
H298 C266 0.929 . S
H299 C267 0.930 . S
H300 C306 0.930 . S
H301 C310 0.930 . S
H302 C315 0.929 . S
H303 C313 0.929 . S
H304 C308 0.929 . S
H305 C314 0.929 . S
C306 H300 0.930 . S
C306 C307 1.370 . S
C306 C314 1.378 . S
C307 C306 1.370 . S
C307 C315 1.430 1_545 S
C308 H304 0.929 . S
C308 C310 1.378 . S
C308 C312 1.360 . S
C309 C312 1.462 1_545 S
C309 C314 1.351 . S
C309 N317 1.426 1_545 S
C310 H301 0.930 . S
C310 C308 1.378 . S
C310 C311 1.378 . S
C311 C310 1.378 . S
C311 C313 1.422 1_565 S
C312 C308 1.360 . S
C312 C309 1.462 1_565 S
C312 N316 1.418 1_565 S
C313 H303 0.929 . S
C313 C311 1.422 1_545 S
C313 N316 1.384 . S
C314 H305 0.929 . S
C314 C306 1.378 . S
C314 C309 1.351 . S
C315 H302 0.929 . S
C315 C307 1.430 1_565 S
C315 N317 1.384 . S
N316 C312 1.418 1_545 S
N316 C313 1.384 . S
N317 C309 1.426 1_565 S
N317 C315 1.384 . S
H318 C324 0.930 . S
H319 C328 0.930 . S
H320 C333 0.929 . S
H321 C331 0.929 . S
H322 C326 0.929 . S
H323 C332 0.929 . S
C324 H318 0.930 . S
C324 C325 1.366 . S
C324 C332 1.378 . S
C325 C324 1.366 . S
C325 C333 1.434 1_655 S
C326 H322 0.929 . S
C326 C328 1.378 . S
C326 C330 1.358 . S
C327 C330 1.462 . S
C327 C332 1.350 1_455 S
C327 N335 1.427 . S
C328 H319 0.930 . S
C328 C326 1.378 . S
C328 C329 1.376 . S
C329 C328 1.376 . S
C329 C331 1.424 1_455 S
C330 C326 1.358 . S
C330 C327 1.462 . S
C330 N334 1.420 1_455 S
C331 H321 0.929 . S
C331 C329 1.424 1_655 S
C331 N334 1.384 . S
C332 H323 0.929 . S
C332 C324 1.378 . S
C332 C327 1.350 1_655 S
C333 H320 0.929 . S
C333 C325 1.434 1_455 S
C333 N335 1.384 . S
N334 C330 1.420 1_655 S
N334 C331 1.384 . S
N335 C327 1.427 . S
N335 C333 1.384 . S
H336 C342 0.930 . S
H337 C346 0.930 . S
H338 C351 0.929 . S
H339 C349 0.929 . S
H340 C344 0.929 . S
H341 C350 0.929 . S
C342 H336 0.930 . S
C342 C343 1.371 . S
C342 C350 1.378 . S
C343 C342 1.371 . S
C343 C351 1.429 1_545 S
C344 H340 0.929 . S
C344 C346 1.378 . S
C344 C348 1.349 1_565 S
C345 C348 1.462 . S
C345 C350 1.359 . S
C345 N353 1.419 1_545 S
C346 H337 0.930 . S
C346 C344 1.378 . S
C346 C347 1.361 1_565 S
C347 C346 1.361 1_545 S
C347 C349 1.439 . S
C348 C344 1.349 1_545 S
C348 C345 1.462 . S
C348 N352 1.428 . S
C349 H339 0.929 . S
C349 C347 1.439 . S
C349 N352 1.384 . S
C350 H341 0.929 . S
C350 C342 1.378 . S
C350 C345 1.359 . S
C351 H338 0.929 . S
C351 C343 1.429 1_565 S
C351 N353 1.384 . S
N352 C348 1.428 . S
N352 C349 1.384 . S
N353 C345 1.419 1_565 S
N353 C351 1.384 . S
H354 C360 0.930 . S
H355 C364 0.930 . S
H356 C369 0.929 . S
H357 C367 0.929 . S
H358 C362 0.929 . S
H359 C368 0.929 . S
C360 H354 0.930 . S
C360 C361 1.381 . S
C360 C368 1.378 . S
C361 C360 1.381 . S
C361 C369 1.419 1_655 S
C362 H358 0.929 . S
C362 C364 1.378 . S
C362 C366 1.363 . S
C363 C366 1.462 1_655 S
C363 C368 1.350 . S
C363 N371 1.427 1_655 S
C364 H355 0.930 . S
C364 C362 1.378 . S
C364 C365 1.364 . S
C365 C364 1.364 . S
C365 C367 1.436 1_455 S
C366 C362 1.363 . S
C366 C363 1.462 1_455 S
C366 N370 1.414 1_455 S
C367 H357 0.929 . S
C367 C365 1.436 1_655 S
C367 N370 1.384 . S
C368 H359 0.929 . S
C368 C360 1.378 . S
C368 C363 1.350 . S
C369 H356 0.929 . S
C369 C361 1.419 1_455 S
C369 N371 1.384 . S
N370 C366 1.414 1_655 S
N370 C367 1.384 . S
N371 C363 1.427 1_455 S
N371 C369 1.384 . S
H372 C378 0.930 . S
H373 C382 0.930 . S
H374 C387 0.929 . S
H375 C385 0.929 . S
H376 C380 0.929 . S
H377 C386 0.929 . S
C378 H372 0.930 . S
C378 C379 1.380 . S
C378 C386 1.378 . S
C379 C378 1.380 . S
C379 C387 1.420 1_565 S
C380 H376 0.929 . S
C380 C382 1.378 . S
C380 C384 1.350 . S
C381 C384 1.462 1_565 S
C381 C386 1.364 . S
C381 N389 1.413 1_565 S
C382 H373 0.930 . S
C382 C380 1.378 . S
C382 C383 1.367 . S
C383 C382 1.367 . S
C383 C385 1.433 1_545 S
C384 C380 1.350 . S
C384 C381 1.462 1_545 S
C384 N388 1.427 1_545 S
C385 H375 0.929 . S
C385 C383 1.433 1_565 S
C385 N388 1.384 . S
C386 H377 0.929 . S
C386 C378 1.378 . S
C386 C381 1.364 . S
C387 H374 0.929 . S
C387 C379 1.420 1_545 S
C387 N389 1.384 . S
N388 C384 1.427 1_565 S
N388 C385 1.384 . S
N389 C381 1.413 1_545 S
N389 C387 1.384 . S
H390 C396 0.930 . S
H391 C400 0.930 . S
H392 C405 0.929 . S
H393 C403 0.929 . S
H394 C398 0.929 . S
H395 C404 0.929 . S
C396 H390 0.930 . S
C396 C397 1.368 . S
C396 C404 1.378 . S
C397 C396 1.368 . S
C397 C405 1.432 1_455 S
C398 H394 0.929 . S
C398 C400 1.378 . S
C398 C402 1.356 . S
C399 C402 1.462 1_455 S
C399 C404 1.350 . S
C399 N407 1.427 1_455 S
C400 H391 0.930 . S
C400 C398 1.378 . S
C400 C401 1.374 . S
C401 C400 1.374 . S
C401 C403 1.426 1_655 S
C402 C398 1.356 . S
C402 C399 1.462 1_655 S
C402 N406 1.422 1_655 S
C403 H393 0.929 . S
C403 C401 1.426 1_455 S
C403 N406 1.384 . S
C404 H395 0.929 . S
C404 C396 1.378 . S
C404 C399 1.350 . S
C405 H392 0.929 . S
C405 C397 1.432 1_655 S
C405 N407 1.384 . S
N406 C402 1.422 1_455 S
N406 C403 1.384 . S
N407 C399 1.427 1_655 S
N407 C405 1.384 . S
H408 C414 0.930 . S
H409 C418 0.930 . S
H410 C423 0.929 . S
H411 C421 0.929 . S
H412 C416 0.929 . S
H413 C422 0.929 . S
C414 H408 0.930 . S
C414 C415 1.376 . S
C414 C422 1.378 . S
C415 C414 1.376 . S
C415 C423 1.423 1_545 S
C416 H412 0.929 . S
C416 C418 1.378 . S
C416 C420 1.350 . S
C417 C420 1.462 1_545 S
C417 C422 1.359 . S
C417 N425 1.418 1_545 S
C418 H409 0.930 . S
C418 C416 1.378 . S
C418 C419 1.367 . S
C419 C418 1.367 . S
C419 C421 1.433 1_565 S
C420 C416 1.350 . S
C420 C417 1.462 1_565 S
C420 N424 1.427 1_565 S
C421 H411 0.929 . S
C421 C419 1.433 1_545 S
C421 N424 1.384 . S
C422 H413 0.929 . S
C422 C414 1.378 . S
C422 C417 1.359 . S
C423 H410 0.929 . S
C423 C415 1.423 1_565 S
C423 N425 1.384 . S
N424 C420 1.427 1_545 S
N424 C421 1.384 . S
N425 C417 1.418 1_565 S
N425 C423 1.384 . S
H426 C432 0.930 . S
H427 C436 0.930 . S
H428 C441 0.929 . S
H429 C439 0.929 . S
H430 C434 0.929 . S
H431 C440 0.929 . S
C432 H426 0.930 . S
C432 C433 1.367 . S
C432 C440 1.378 . S
C433 C432 1.367 . S
C433 C441 1.433 1_655 S
C434 H430 0.929 . S
C434 C436 1.378 . S
C434 C438 1.364 . S
C435 C438 1.462 1_655 S
C435 C440 1.349 . S
C435 N443 1.429 1_655 S
C436 H427 0.930 . S
C436 C434 1.378 . S
C436 C437 1.367 . S
C437 C436 1.367 . S
C437 C439 1.433 1_455 S
C438 C434 1.364 . S
C438 C435 1.462 1_455 S
C438 N442 1.414 1_455 S
C439 H429 0.929 . S
C439 C437 1.433 1_655 S
C439 N442 1.384 . S
C440 H431 0.929 . S
C440 C432 1.378 . S
C440 C435 1.349 . S
C441 H428 0.929 . S
C441 C433 1.433 1_455 S
C441 N443 1.384 . S
N442 C438 1.414 1_655 S
N442 C439 1.384 . S
N443 C435 1.429 1_455 S
N443 C441 1.384 . S
C311 C173 1.760 1_565 S
C307 C47 1.624 . S
C329 C261 1.762 . S
C325 C109 1.640 . S
C347 C181 1.762 . S
C343 C29 1.645 . S
C365 C269 1.760 . S
C361 C91 1.632 . S
C383 C241 1.377 . S
C379 C53 1.356 1_565 S
C401 C144 1.377 1_655 S
C397 C115 1.353 1_455 S
C419 C232 1.377 1_565 S
C415 C35 1.360 . S
C433 C97 1.364 . S
C437 C153 1.380 . S
