# Generated by pormake.
# Topology csq, (4,8)-cn, num edge types: 1
# Building blocks:
#     Node 0, Type 0, BuildingBlock: MIFKUJ_clean_linker_1, # of connection points: 4
#     Node 1, Type 0, BuildingBlock: MIFKUJ_clean_linker_1, # of connection points: 4
#     Node 2, Type 0, BuildingBlock: MIFKUJ_clean_linker_1, # of connection points: 4
#     Node 3, Type 0, BuildingBlock: MIFKUJ_clean_linker_1, # of connection points: 4
#     Node 4, Type 0, BuildingBlock: MIFKUJ_clean_linker_1, # of connection points: 4
#     Node 5, Type 0, BuildingBlock: MIFKUJ_clean_linker_1, # of connection points: 4
#     Node 6, Type 1, BuildingBlock: TAGTUT_clean_sbu_3, # of connection points: 8
#     Node 7, Type 1, BuildingBlock: TAGTUT_clean_sbu_3, # of connection points: 8
#     Node 8, Type 1, BuildingBlock: TAGTUT_clean_sbu_3, # of connection points: 8
#     Edge 9, Type (0, 1), BuildingBlock: OJICUG_clean_linker_0, # of connection points: 2
#     Edge 10, Type (0, 1), BuildingBlock: OJICUG_clean_linker_0, # of connection points: 2
#     Edge 11, Type (0, 1), BuildingBlock: OJICUG_clean_linker_0, # of connection points: 2
#     Edge 12, Type (0, 1), BuildingBlock: OJICUG_clean_linker_0, # of connection points: 2
#     Edge 13, Type (0, 1), BuildingBlock: OJICUG_clean_linker_0, # of connection points: 2
#     Edge 14, Type (0, 1), BuildingBlock: OJICUG_clean_linker_0, # of connection points: 2
#     Edge 15, Type (0, 1), BuildingBlock: OJICUG_clean_linker_0, # of connection points: 2
#     Edge 16, Type (0, 1), BuildingBlock: OJICUG_clean_linker_0, # of connection points: 2
#     Edge 17, Type (0, 1), BuildingBlock: OJICUG_clean_linker_0, # of connection points: 2
#     Edge 18, Type (0, 1), BuildingBlock: OJICUG_clean_linker_0, # of connection points: 2
#     Edge 19, Type (0, 1), BuildingBlock: OJICUG_clean_linker_0, # of connection points: 2
#     Edge 20, Type (0, 1), BuildingBlock: OJICUG_clean_linker_0, # of connection points: 2
#     Edge 21, Type (0, 1), BuildingBlock: OJICUG_clean_linker_0, # of connection points: 2
#     Edge 22, Type (0, 1), BuildingBlock: OJICUG_clean_linker_0, # of connection points: 2
#     Edge 23, Type (0, 1), BuildingBlock: OJICUG_clean_linker_0, # of connection points: 2
#     Edge 24, Type (0, 1), BuildingBlock: OJICUG_clean_linker_0, # of connection points: 2
#     Edge 25, Type (0, 1), BuildingBlock: OJICUG_clean_linker_0, # of connection points: 2
#     Edge 26, Type (0, 1), BuildingBlock: OJICUG_clean_linker_0, # of connection points: 2
#     Edge 27, Type (0, 1), BuildingBlock: OJICUG_clean_linker_0, # of connection points: 2
#     Edge 28, Type (0, 1), BuildingBlock: OJICUG_clean_linker_0, # of connection points: 2
#     Edge 29, Type (0, 1), BuildingBlock: OJICUG_clean_linker_0, # of connection points: 2
#     Edge 30, Type (0, 1), BuildingBlock: OJICUG_clean_linker_0, # of connection points: 2
#     Edge 31, Type (0, 1), BuildingBlock: OJICUG_clean_linker_0, # of connection points: 2
#     Edge 32, Type (0, 1), BuildingBlock: OJICUG_clean_linker_0, # of connection points: 2
# Relax obj value: 0.028
# Max RMSD: 0.107
# Mean RMSD: 0.042
data_MOF--net-csq--node1-TAGTUT_clean_sbu_3--node2-MIFKUJ_clean_linker_1--edge1-OJICUG_clean_linker_0
_symmetry_space_group_name_H-M    P1
_symmetry_Int_Tables_number       1
_symmetry_cell_setting            triclinic
loop_
_symmetry_equiv_pos_as_xyz
'x, y, z'
_cell_length_a     49.791484
_cell_length_b     49.188311
_cell_length_c     16.919109
_cell_angle_alpha  92.494768
_cell_angle_beta   92.842419
_cell_angle_gamma 120.04042
loop_
_atom_site_label
_atom_site_type_symbol
_atom_site_fract_x
_atom_site_fract_y
_atom_site_fract_z
_atom_type_partial_charge
H0 H 0.27777 0.44329 0.21506 0.0
H1 H 0.31841 0.43561 0.27647 0.0
H2 H 0.36553 0.53163 0.38128 0.0
H3 H 0.32516 0.5396 0.31545 0.0
H4 H 0.25572 0.50225 0.32169 0.0
H5 H 0.26467 0.44218 0.04104 0.0
H6 H 0.30462 0.43549 0.98116 0.0
H7 H 0.37391 0.53092 0.06626 0.0
H8 H 0.33366 0.53677 0.12961 0.0
H9 H 0.20791 0.50624 0.9967 0.0
H10 H 0.15776 0.48492 0.91966 0.0
H11 H 0.11342 0.41742 0.09287 0.0
H12 H 0.16392 0.43779 0.16829 0.0
H13 H 0.24122 0.4818 0.02844 0.0
H14 H 0.19304 0.52493 0.19073 0.0
H15 H 0.15161 0.52364 0.26563 0.0
H16 H 0.1618 0.46306 0.42701 0.0
H17 H 0.20192 0.46324 0.35023 0.0
C18 C 0.29874 0.49204 0.26065 0.0
C19 C 0.29692 0.4627 0.25122 0.0
C20 C 0.32007 0.45831 0.28653 0.0
C21 C 0.34516 0.48302 0.33355 0.0
C22 C 0.34668 0.51234 0.34421 0.0
C23 C 0.32352 0.51682 0.30786 0.0
C24 C 0.27526 0.49647 0.21628 0.0
C25 C 0.25257 0.49853 0.25745 0.0
C26 C 0.2721 0.49243 0.13275 0.0
C27 C 0.29604 0.49012 0.08854 0.0
C28 C 0.28836 0.46182 0.04574 0.0
C29 C 0.31138 0.45806 0.01173 0.0
C30 C 0.34263 0.4828 0.01799 0.0
C31 C 0.35025 0.51125 0.06081 0.0
C32 C 0.32719 0.51481 0.09601 0.0
C33 C 0.18961 0.47411 0.08916 0.0
C34 C 0.18749 0.4867 0.01789 0.0
C35 C 0.15893 0.47436 0.97365 0.0
C36 C 0.13195 0.44939 1.00026 0.0
C37 C 0.13399 0.43665 0.07132 0.0
C38 C 0.16271 0.4486 0.11483 0.0
C39 C 0.22028 0.48615 0.13373 0.0
C40 C 0.24453 0.48714 0.09227 0.0
C41 C 0.22486 0.49344 0.21721 0.0
C42 C 0.20056 0.49399 0.26426 0.0
C43 C 0.1862 0.51122 0.24198 0.0
C44 C 0.16269 0.51071 0.28535 0.0
C45 C 0.15314 0.49306 0.35213 0.0
C46 C 0.16808 0.47643 0.37512 0.0
C47 C 0.19139 0.47683 0.3317 0.0
H48 H 0.79959 0.32802 0.09281 0.0
H49 H 0.83134 0.37037 0.00969 0.0
H50 H 0.85912 0.30963 0.89158 0.0
H51 H 0.82634 0.26729 0.9723 0.0
H52 H 0.76224 0.2411 0.97546 0.0
H53 H 0.79158 0.30649 0.28854 0.0
H54 H 0.83626 0.34878 0.37028 0.0
H55 H 0.89799 0.32901 0.24029 0.0
H56 H 0.8534 0.28775 0.15747 0.0
H57 H 0.7422 0.15884 0.15232 0.0
H58 H 0.70169 0.11019 0.20195 0.0
H59 H 0.66175 0.16189 0.30791 0.0
H60 H 0.70246 0.21052 0.25849 0.0
H61 H 0.77296 0.24262 0.26925 0.0
H62 H 0.74776 0.17913 0.95945 0.0
H63 H 0.70542 0.13273 0.88325 0.0
H64 H 0.6385 0.1434 0.01476 0.0
H65 H 0.68085 0.19078 0.08699 0.0
C66 C 0.81079 0.29463 0.03889 0.0
C67 C 0.81274 0.32404 0.04926 0.0
C68 C 0.83088 0.34819 0.00153 0.0
C69 C 0.84761 0.34343 0.94299 0.0
C70 C 0.84594 0.31401 0.93421 0.0
C71 C 0.82754 0.28984 0.98113 0.0
C72 C 0.78929 0.26795 0.08328 0.0
C73 C 0.7648 0.24143 0.03963 0.0
C74 C 0.79227 0.26855 0.16714 0.0
C75 C 0.81926 0.29449 0.21587 0.0
C76 C 0.81481 0.31146 0.27763 0.0
C77 C 0.84036 0.33537 0.3249 0.0
C78 C 0.87083 0.34247 0.31184 0.0
C79 C 0.87498 0.32471 0.25112 0.0
C80 C 0.84951 0.30111 0.20349 0.0
C81 C 0.72523 0.18815 0.20207 0.0
C82 C 0.72504 0.15973 0.1876 0.0
C83 C 0.70187 0.13201 0.2155 0.0
C84 C 0.67842 0.1323 0.25759 0.0
C85 C 0.67932 0.16102 0.27441 0.0
C86 C 0.70274 0.18881 0.24735 0.0
C87 C 0.74635 0.21603 0.16111 0.0
C88 C 0.77043 0.24265 0.2052 0.0
C89 C 0.74324 0.21556 0.0776 0.0
C90 C 0.71746 0.18823 0.02924 0.0
C91 C 0.72393 0.1716 0.97116 0.0
C92 C 0.6997 0.14479 0.92858 0.0
C93 C 0.66852 0.13409 0.94345 0.0
C94 C 0.66218 0.15104 0.00134 0.0
C95 C 0.68639 0.17801 0.04319 0.0
H96 H 0.57538 0.73949 0.94375 0.0
H97 H 0.58504 0.7052 0.85381 0.0
H98 H 0.48692 0.63602 0.83502 0.0
H99 H 0.47755 0.66993 0.92602 0.0
H100 H 0.52981 0.76011 0.90319 0.0
H101 H 0.55675 0.70818 0.10141 0.0
H102 H 0.55603 0.66744 0.18087 0.0
H103 H 0.45813 0.62994 0.20682 0.0
H104 H 0.45899 0.67094 0.12735 0.0
H105 H 0.45894 0.75919 0.17208 0.0
H106 H 0.45988 0.79484 0.27968 0.0
H107 H 0.55373 0.86395 0.2342 0.0
H108 H 0.55278 0.82831 0.12766 0.0
H109 H 0.49681 0.73535 0.17515 0.0
H110 H 0.46938 0.78747 0.97957 0.0
H111 H 0.47016 0.8291 0.90321 0.0
H112 H 0.5675 0.86549 0.87163 0.0
H113 H 0.56649 0.82348 0.94693 0.0
C114 C 0.52585 0.70684 0.9419 0.0
C115 C 0.55605 0.7169 0.92009 0.0
C116 C 0.56149 0.69756 0.86849 0.0
C117 C 0.53662 0.66842 0.83669 0.0
C118 C 0.50634 0.65875 0.85757 0.0
C119 C 0.50102 0.67778 0.91027 0.0
C120 C 0.51983 0.72764 0.99357 0.0
C121 C 0.52294 0.755 0.96311 0.0
C122 C 0.5095 0.7199 0.06998 0.0
C123 C 0.50788 0.69249 0.10792 0.0
C124 C 0.53497 0.69081 0.12268 0.0
C125 C 0.5346 0.66772 0.1688 0.0
C126 C 0.50707 0.64569 0.20063 0.0
C127 C 0.47963 0.64653 0.18288 0.0
C128 C 0.48012 0.66993 0.13758 0.0
C129 C 0.50563 0.79131 0.14127 0.0
C130 C 0.47951 0.78223 0.18467 0.0
C131 C 0.48012 0.80247 0.24621 0.0
C132 C 0.50706 0.83186 0.26596 0.0
C133 C 0.53288 0.84115 0.22118 0.0
C134 C 0.53215 0.82107 0.15934 0.0
C135 C 0.50714 0.76829 0.08539 0.0
C136 C 0.50317 0.74035 0.11484 0.0
C137 C 0.51647 0.77535 0.00777 0.0
C138 C 0.51794 0.80257 0.96949 0.0
C139 C 0.49095 0.8046 0.95689 0.0
C140 C 0.49132 0.82809 0.91242 0.0
C141 C 0.51881 0.85023 0.88075 0.0
C142 C 0.546 0.84864 0.89512 0.0
C143 C 0.54547 0.82479 0.93834 0.0
H144 H 0.81954 0.49691 0.16222 0.0
H145 H 0.87062 0.50463 0.20691 0.0
H146 H 0.91522 0.59563 0.11018 0.0
H147 H 0.86404 0.58794 0.06713 0.0
H148 H 0.79293 0.54062 0.19581 0.0
H149 H 0.8139 0.48584 0.97344 0.0
H150 H 0.85386 0.48657 0.89374 0.0
H151 H 0.8769 0.579 0.82451 0.0
H152 H 0.83584 0.57714 0.90109 0.0
H153 H 0.74639 0.57147 0.92691 0.0
H154 H 0.69923 0.56504 0.85738 0.0
H155 H 0.64428 0.47713 0.96282 0.0
H156 H 0.69188 0.48412 0.03405 0.0
H157 H 0.76664 0.52679 0.90414 0.0
H158 H 0.74707 0.58282 0.12044 0.0
H159 H 0.70802 0.58475 0.19981 0.0
H160 H 0.68494 0.49473 0.28527 0.0
H161 H 0.72421 0.49307 0.20638 0.0
C162 C 0.83823 0.542 0.11239 0.0
C163 C 0.84037 0.51857 0.15138 0.0
C164 C 0.86951 0.52279 0.17538 0.0
C165 C 0.89686 0.55059 0.16099 0.0
C166 C 0.89453 0.57401 0.12189 0.0
C167 C 0.86541 0.56973 0.09781 0.0
C168 C 0.80775 0.53651 0.0804 0.0
C169 C 0.78689 0.53712 0.13225 0.0
C170 C 0.80026 0.53243 0.99767 0.0
C171 C 0.82181 0.5313 0.94228 0.0
C172 C 0.82723 0.50592 0.93962 0.0
C173 C 0.8504 0.50662 0.89492 0.0
C174 C 0.86888 0.53293 0.85278 0.0
C175 C 0.86286 0.55807 0.85477 0.0
C176 C 0.83939 0.55712 0.89855 0.0
C177 C 0.72253 0.52811 0.98462 0.0
C178 C 0.72416 0.55101 0.93573 0.0
C179 C 0.69724 0.54725 0.89609 0.0
C180 C 0.66822 0.52026 0.90368 0.0
C181 C 0.66635 0.49811 0.95606 0.0
C182 C 0.69344 0.50202 0.99633 0.0
C183 C 0.75161 0.53088 0.01939 0.0
C184 C 0.77235 0.52984 0.96783 0.0
C185 C 0.75898 0.53477 0.10229 0.0
C186 C 0.73833 0.53773 0.15753 0.0
C187 C 0.73396 0.56381 0.15749 0.0
C188 C 0.7118 0.56496 0.20294 0.0
C189 C 0.69344 0.53984 0.24825 0.0
C190 C 0.69871 0.51431 0.25042 0.0
C191 C 0.72116 0.51339 0.20582 0.0
H192 H 0.26531 0.88096 0.1124 0.0
H193 H 0.30122 0.92716 0.04546 0.0
H194 H 0.30349 0.86609 0.85801 0.0
H195 H 0.26869 0.8201 0.92629 0.0
H196 H 0.21389 0.79207 0.97421 0.0
H197 H 0.26299 0.85474 0.28345 0.0
H198 H 0.3104 0.89462 0.36021 0.0
H199 H 0.36587 0.8822 0.18947 0.0
H200 H 0.31792 0.84186 0.11259 0.0
H201 H 0.23576 0.73392 0.24351 0.0
H202 H 0.20909 0.69752 0.34447 0.0
H203 H 0.12693 0.70387 0.28786 0.0
H204 H 0.15384 0.74056 0.18796 0.0
H205 H 0.24849 0.79296 0.25476 0.0
H206 H 0.20615 0.7122 0.03737 0.0
H207 H 0.16737 0.66597 0.9521 0.0
H208 H 0.10908 0.7075 0.93069 0.0
H209 H 0.14847 0.75426 0.01423 0.0
C210 C 0.26503 0.84708 0.02551 0.0
C211 C 0.27338 0.87751 0.05663 0.0
C212 C 0.2936 0.90385 0.0181 0.0
C213 C 0.3051 0.90011 0.94682 0.0
C214 C 0.29467 0.8696 0.91246 0.0
C215 C 0.27489 0.84331 0.95165 0.0
C216 C 0.24782 0.81942 0.07203 0.0
C217 C 0.22138 0.79238 0.03574 0.0
C218 C 0.25809 0.81916 0.15131 0.0
C219 C 0.28699 0.84554 0.1923 0.0
C220 C 0.28534 0.86088 0.262 0.0
C221 C 0.31246 0.88376 0.30552 0.0
C222 C 0.34185 0.8916 0.28063 0.0
C223 C 0.34353 0.87652 0.21009 0.0
C224 C 0.31624 0.85371 0.16597 0.0
C225 C 0.19666 0.73969 0.20768 0.0
C226 C 0.21183 0.72706 0.2521 0.0
C227 C 0.19666 0.70642 0.30997 0.0
C228 C 0.16615 0.69832 0.32501 0.0
C229 C 0.1507 0.71025 0.27876 0.0
C230 C 0.16581 0.73072 0.22057 0.0
C231 C 0.21449 0.76581 0.15738 0.0
C232 C 0.24096 0.79268 0.19324 0.0
C233 C 0.20491 0.7654 0.07712 0.0
C234 C 0.17996 0.73642 0.03253 0.0
C235 C 0.18493 0.71124 0.01472 0.0
C236 C 0.163 0.68508 0.96546 0.0
C237 C 0.13551 0.68346 0.93438 0.0
C238 C 0.1302 0.70835 0.95376 0.0
C239 C 0.15252 0.73488 0.00161 0.0
H240 H 0.54577 0.23629 0.09309 0.0
H241 H 0.56388 0.205 0.02087 0.0
H242 H 0.48624 0.11983 0.09175 0.0
H243 H 0.46706 0.1507 0.15938 0.0
H244 H 0.49578 0.23567 0.0507 0.0
H245 H 0.53162 0.21173 0.29733 0.0
H246 H 0.53425 0.17477 0.38544 0.0
H247 H 0.4346 0.12812 0.39734 0.0
H248 H 0.43204 0.16472 0.30814 0.0
H249 H 0.41181 0.23627 0.28514 0.0
H250 H 0.40277 0.27355 0.36518 0.0
H251 H 0.48764 0.35081 0.29361 0.0
H252 H 0.49731 0.31401 0.21646 0.0
H253 H 0.45792 0.22772 0.31865 0.0
H254 H 0.42543 0.26008 0.08394 0.0
H255 H 0.42472 0.29595 0.98877 0.0
H256 H 0.52126 0.32879 0.9534 0.0
H257 H 0.52224 0.29421 0.05052 0.0
C258 C 0.50505 0.19587 0.1319 0.0
C259 C 0.53294 0.21088 0.09428 0.0
C260 C 0.54343 0.19315 0.05363 0.0
C261 C 0.52658 0.16022 0.05179 0.0
C262 C 0.49993 0.14531 0.0939 0.0
C263 C 0.48899 0.16295 0.13273 0.0
C264 C 0.49102 0.21435 0.16148 0.0
C265 C 0.48801 0.23445 0.1099 0.0
C266 C 0.47935 0.21137 0.23711 0.0
C267 C 0.48156 0.19059 0.29496 0.0
C268 C 0.51038 0.19362 0.31923 0.0
C269 C 0.51189 0.17276 0.37041 0.0
C270 C 0.4846 0.14851 0.39821 0.0
C271 C 0.45597 0.14642 0.37643 0.0
C272 C 0.4545 0.16733 0.32559 0.0
C273 C 0.45502 0.27241 0.24381 0.0
C274 C 0.42814 0.26131 0.28557 0.0
C275 C 0.42301 0.28239 0.33134 0.0
C276 C 0.44466 0.31466 0.33513 0.0
C277 C 0.47072 0.32584 0.29091 0.0
C278 C 0.476 0.30489 0.24603 0.0
C279 C 0.46393 0.25026 0.20908 0.0
C280 C 0.46566 0.2291 0.25936 0.0
C281 C 0.47493 0.25276 0.13256 0.0
C282 C 0.47397 0.27455 0.07529 0.0
C283 C 0.44652 0.27525 0.05629 0.0
C284 C 0.44602 0.29545 0.00092 0.0
C285 C 0.47295 0.31532 0.96332 0.0
C286 C 0.5002 0.31418 0.98181 0.0
C287 C 0.50072 0.29418 0.03713 0.0
C288 C 0.05543 0.48564 0.54017 0.0
C289 C 0.0307 0.44436 0.82348 0.0
C290 C 0.94297 0.43857 0.77344 0.0
Mg291 Mg 0.03145 0.52559 0.44529 0.0
Mg292 Mg 0.01378 0.57361 0.54061 0.0
O293 O 0.00583 0.53225 0.52368 0.0
Mg294 Mg 0.01233 0.51132 0.61468 0.0
O295 O 0.0192 0.48824 0.69919 0.0
Mg296 Mg -0.00331 0.44415 0.64672 0.0
Mg297 Mg 0.00892 0.493 0.80164 0.0
C298 C 0.96909 0.5404 0.67697 0.0
O299 O 0.04695 0.55791 0.69064 0.0
O300 O 0.00811 0.5427 0.3532 0.0
O301 O 0.0334 0.54408 0.81456 0.0
O302 O 0.07229 0.57616 0.4673 0.0
O303 O -0.00314 0.57522 0.42346 0.0
O304 O 0.06306 0.60652 0.54963 0.0
O305 O 0.97706 0.46292 0.54866 0.0
O306 O 0.99095 0.47551 0.42614 0.0
C307 C 0.97396 0.45547 0.4737 0.0
C308 C -0.00325 0.56108 0.35793 0.0
O309 O 0.97467 0.51746 0.67532 0.0
O310 O 0.0207 0.43271 0.75137 0.0
O311 O 0.98329 0.56441 0.63613 0.0
O312 O 0.9531 0.42812 0.71871 0.0
O313 O 0.02836 0.46729 0.85426 0.0
O314 O 0.95997 0.4659 0.80862 0.0
O315 O 0.04997 0.50841 0.54784 0.0
O316 O 0.03947 0.46026 0.57451 0.0
C317 C 0.08121 0.6025 0.50616 0.0
C318 C 0.04834 0.56482 0.76573 0.0
C319 C 0.50097 0.05103 0.52015 0.0
C320 C 0.58197 0.02779 0.40037 0.0
C321 C 0.52268 0.93352 0.47466 0.0
Mg322 Mg 0.46115 0.02306 0.66998 0.0
Mg323 Mg 0.48379 0.99341 0.8105 0.0
O324 O 0.47284 0.99109 0.70188 0.0
Mg325 Mg 0.50549 -9e-05 0.62737 0.0
O326 O 0.53636 0.00962 0.54797 0.0
Mg327 Mg 0.50756 0.99266 0.44869 0.0
Mg328 Mg 0.56652 -0.00253 0.5619 0.0
C329 C 0.50855 0.94942 0.74625 0.0
O330 O 0.54709 0.0301 0.71807 0.0
O331 O 0.42094 -0.0011 0.75339 0.0
O332 O 0.58435 0.01971 0.68227 0.0
O333 O 0.49232 0.05996 0.77303 0.0
O334 O 0.43872 0.9798 0.84874 0.0
O335 O 0.51428 0.04079 0.85401 0.0
O336 O 0.46635 0.9711 0.52923 0.0
O337 O 0.43343 0.98716 0.56503 0.0
C338 C 0.44072 0.97126 0.51751 0.0
C339 C 0.41754 0.98432 0.81679 0.0
O340 O 0.50828 0.9571 0.67435 0.0
O341 O 0.55298 0.01838 0.38345 0.0
O342 O 0.50224 0.96206 0.80495 0.0
O343 O 0.50953 0.94723 0.44195 0.0
O344 O 0.59203 0.02202 0.46503 0.0
O345 O 0.54464 0.94763 0.5298 0.0
O346 O 0.50172 0.04229 0.59006 0.0
O347 O 0.50429 0.03697 0.45937 0.0
C348 C 0.51096 0.06345 0.83254 0.0
C349 C 0.57419 0.03309 0.72956 0.0
C350 C 0.52854 0.55742 0.71429 0.0
C351 C 0.43269 0.46723 0.84435 0.0
C352 C 0.47207 0.40986 0.77239 0.0
Mg353 Mg 0.55984 0.55203 0.55498 0.0
Mg354 Mg 0.5172 0.49703 0.41556 0.0
O355 O 0.53306 0.50596 0.52208 0.0
Mg356 Mg 0.50325 0.49214 0.60661 0.0
O357 O 0.47537 0.48042 0.69417 0.0
Mg358 Mg 0.50504 0.48981 0.78906 0.0
Mg359 Mg 0.44048 0.43958 0.68293 0.0
C360 C 0.47551 0.43017 0.48291 0.0
O361 O 0.46301 0.48817 0.52748 0.0
O362 O 0.59284 0.55141 0.46083 0.0
O363 O 0.42289 0.4435 0.56614 0.0
O364 O 0.53688 0.56872 0.46089 0.0
O365 O 0.56152 0.51085 0.37154 0.0
O366 O 0.50233 0.52892 0.37746 0.0
O367 O 0.54068 0.49431 0.69637 0.0
O368 O 0.58121 0.53532 0.64891 0.0
C369 C 0.56997 0.51392 0.69794 0.0
C370 C 0.58859 0.53318 0.39854 0.0
O371 O 0.48412 0.44082 0.55617 0.0
O372 O 0.4625 0.48353 0.86166 0.0
O373 O 0.48342 0.44796 0.4249 0.0
O374 O 0.49034 0.43804 0.80173 0.0
O375 O 0.42059 0.44895 0.78074 0.0
O376 O 0.4514 0.40387 0.71604 0.0
O377 O 0.52295 0.54419 0.64404 0.0
O378 O 0.52168 0.54144 0.77527 0.0
C379 C 0.51623 0.55794 0.40212 0.0
C380 C 0.43434 0.46607 0.51987 0.0
C381 C 0.12442 0.51802 0.41296 0.0
C382 C 0.12741 0.49134 0.3973 0.0
H383 H 0.09947 0.53731 0.47046 0.0
C384 C 0.1058 0.46277 0.42652 0.0
H385 H 0.14076 0.54047 0.39184 0.0
C386 C 0.08242 0.46103 0.47191 0.0
C387 C 0.07974 0.48777 0.48907 0.0
H388 H 0.10686 0.44155 0.41419 0.0
H389 H 0.06644 0.43859 0.49375 0.0
C390 C 0.10082 0.51625 0.45831 0.0
C391 C 0.62193 0.09536 0.27155 0.0
C392 C 0.65304 0.1028 0.28432 0.0
H393 H 0.57469 0.065 0.29636 0.0
C394 C 0.65989 0.08268 0.326 0.0
H395 H 0.61605 0.11028 0.23838 0.0
C396 C 0.63629 0.05679 0.35924 0.0
C397 C 0.60536 0.05036 0.35057 0.0
H398 H 0.6837 0.08788 0.3364 0.0
H399 H 0.64249 0.04263 0.39473 0.0
C400 C 0.59824 0.06922 0.30389 0.0
C401 C 0.53103 0.63392 0.31804 0.0
C402 C 0.50759 0.62312 0.25549 0.0
H403 H 0.55164 0.62208 0.4143 0.0
C404 C 0.48519 0.59084 0.24561 0.0
H405 H 0.54827 0.65874 0.32798 0.0
C406 C 0.48716 0.56962 0.29505 0.0
C407 C 0.51129 0.58037 0.35611 0.0
H408 H 0.46679 0.58189 0.19802 0.0
H409 H 0.47021 0.54476 0.2843 0.0
C410 C 0.53274 0.61288 0.36802 0.0
C411 C 0.94778 0.58476 0.23868 0.0
C412 C 0.92739 0.55627 0.19418 0.0
H413 H 0.98671 0.6089 0.32492 0.0
C414 C 0.93454 0.53201 0.19084 0.0
H415 H 0.94288 0.60388 0.24228 0.0
C416 C 0.95986 0.53499 0.2379 0.0
C417 C 0.97801 0.56212 0.28946 0.0
H418 H 0.91943 0.51003 0.15571 0.0
H419 H 0.96334 0.51496 0.23936 0.0
C420 C 0.97286 0.58763 0.2861 0.0
C421 C 0.39395 0.90772 0.35136 0.0
C422 C 0.37028 0.91451 0.33096 0.0
H423 H 0.43519 0.92055 0.42691 0.0
C424 C 0.37234 0.94201 0.36541 0.0
H425 H 0.3929 0.88662 0.32572 0.0
C426 C 0.39618 0.9611 0.42324 0.0
C427 C 0.41866 0.95325 0.44791 0.0
H428 H 0.35484 0.94821 0.34955 0.0
H429 H 0.3964 0.98158 0.4504 0.0
C430 C 0.41806 0.92704 0.4094 0.0
C431 C 0.43049 0.35564 0.35335 0.0
C432 C 0.44172 0.33744 0.38703 0.0
H433 H 0.43194 0.3998 0.36003 0.0
C434 C 0.45787 0.34682 0.46265 0.0
H435 H 0.41822 0.34877 0.29473 0.0
C436 C 0.46588 0.37608 0.50014 0.0
C437 C 0.45812 0.39612 0.46125 0.0
H438 H 0.46697 0.33304 0.48882 0.0
H439 H 0.48093 0.38431 0.55475 0.0
C440 C 0.43855 0.38482 0.39046 0.0
C441 C 0.54155 0.90723 0.85801 0.0
C442 C 0.51927 0.87564 0.83564 0.0
H443 H 0.55556 0.95565 0.8458 0.0
C444 C 0.49621 0.86874 0.77399 0.0
H445 H 0.55946 0.9132 0.90554 0.0
C446 C 0.4945 0.89309 0.73834 0.0
C447 C 0.51551 0.92458 0.7649 0.0
H448 H 0.47889 0.84453 0.75533 0.0
H449 H 0.47551 0.88728 0.69422 0.0
C450 C 0.53944 0.93148 0.82362 0.0
C451 C 0.64489 0.51962 0.77052 0.0
C452 C 0.64098 0.51443 0.851 0.0
H453 H 0.62525 0.5231 0.65957 0.0
C454 C 0.61175 0.50505 0.87962 0.0
H455 H 0.6668 0.52582 0.74619 0.0
C456 C 0.58747 0.50305 0.82907 0.0
C457 C 0.59249 0.5106 0.75003 0.0
H458 H 0.60814 0.50063 0.94144 0.0
H459 H 0.56553 0.49723 0.85256 0.0
C460 C 0.62103 0.5179 0.72084 0.0
C461 C 0.12023 0.6446 0.81613 0.0
C462 C 0.11201 0.65522 0.88428 0.0
H463 H 0.10591 0.60783 0.72288 0.0
C464 C 0.08169 0.63753 0.90756 0.0
H465 H 0.1435 0.65803 0.79696 0.0
C466 C 0.06051 0.60875 0.86632 0.0
C467 C 0.06903 0.59746 0.79997 0.0
H468 H 0.07486 0.64523 0.95994 0.0
H469 H 0.03769 0.59483 0.88772 0.0
C470 C 0.09873 0.6161 0.77356 0.0
C471 C 0.53571 0.11571 0.02117 0.0
C472 C 0.53293 0.14094 0.99542 0.0
H473 H 0.53205 0.07152 0.98836 0.0
C474 C 0.5296 0.14371 0.9138 0.0
H475 H 0.53834 0.11327 0.08399 0.0
C476 C 0.5253 0.11957 0.85902 0.0
C477 C 0.52473 0.09263 0.88534 0.0
H478 H 0.52729 0.16301 0.89284 0.0
H479 H 0.52009 0.12093 0.79686 0.0
C480 C 0.53207 0.09188 0.96631 0.0
C481 C 0.39768 0.49261 0.00856 0.0
C482 C 0.36651 0.47906 0.97647 0.0
H483 H 0.44337 0.49956 0.99269 0.0
C484 C 0.35792 0.46174 0.90249 0.0
H485 H 0.40512 0.506 0.06575 0.0
C486 C 0.37935 0.45755 0.86219 0.0
C487 C 0.41054 0.471 0.89334 0.0
H488 H 0.33458 0.45175 0.87431 0.0
H489 H 0.37129 0.44413 0.80501 0.0
C490 C 0.41956 0.48872 0.96714 0.0
C491 C 0.88514 0.40058 0.92607 0.0
C492 C 0.86782 0.36922 0.89333 0.0
H493 H 0.92178 0.44739 0.91279 0.0
C494 C 0.87185 0.36238 0.81454 0.0
H495 H 0.88281 0.40687 0.98642 0.0
C496 C 0.89468 0.38563 0.77251 0.0
C497 C 0.91375 0.41636 0.80792 0.0
H498 H 0.85818 0.33873 0.78623 0.0
H499 H 0.89845 0.37908 0.71389 0.0
C500 C 0.90765 0.42392 0.88364 0.0
C501 C 0.90166 0.54937 0.73653 0.0
C502 C 0.89454 0.53442 0.80777 0.0
H503 H 0.93086 0.56315 0.6403 0.0
C504 C 0.91243 0.52137 0.8359 0.0
H505 H 0.88809 0.55909 0.71186 0.0
C506 C 0.93667 0.52317 0.79361 0.0
C507 C 0.94382 0.53843 0.72305 0.0
H508 H 0.90811 0.51022 0.89129 0.0
H509 H 0.95024 0.51327 0.81699 0.0
C510 C 0.92615 0.5516 0.69518 0.0
C511 C 0.3319 0.93119 0.83309 0.0
C512 C 0.33151 0.92729 0.91491 0.0
H513 H 0.35986 0.9535 0.73756 0.0
C514 C 0.35857 0.94646 0.96509 0.0
H515 H 0.31126 0.91664 0.79337 0.0
C516 C 0.38629 0.96703 0.93325 0.0
C517 C 0.38726 0.96922 0.85092 0.0
H518 H 0.35896 0.94371 0.02827 0.0
H519 H 0.40738 0.97989 0.97258 0.0
C520 C 0.35959 0.95234 0.80133 0.0
C521 C 0.49925 0.36898 0.91197 0.0
C522 C 0.47333 0.33836 0.90817 0.0
H523 H 0.51941 0.41505 0.87108 0.0
C524 C 0.44785 0.33053 0.8532 0.0
H525 H 0.51916 0.37605 0.95402 0.0
C526 C 0.44797 0.35317 0.80515 0.0
C527 C 0.47347 0.38412 0.81165 0.0
H528 H 0.42768 0.30703 0.84798 0.0
H529 H 0.42761 0.34677 0.76542 0.0
C530 C 0.49933 0.39147 0.86441 0.0
C531 C 0.09752 0.43208 0.87427 0.0
C532 C 0.10156 0.43892 0.9569 0.0
H533 H 0.07059 0.4272 0.76646 0.0
C534 C 0.07821 0.44055 0.9962 0.0
H535 H 0.11522 0.43049 0.84304 0.0
C536 C 0.0529 0.43897 0.95256 0.0
C537 C 0.05044 0.43528 0.86923 0.0
H538 H 0.0809 0.44584 0.05992 0.0
H539 H 0.03656 0.44306 0.98356 0.0
C540 C 0.07188 0.42992 0.83067 0.0
C541 C 0.61548 0.10629 0.87034 0.0
C542 C 0.64272 0.10622 0.89615 0.0
H543 H 0.57275 0.08338 0.79721 0.0
C544 C 0.64571 0.08011 0.87274 0.0
H545 H 0.61252 0.12615 0.88604 0.0
C546 C 0.62271 0.05543 0.82149 0.0
C547 C 0.59612 0.05622 0.7933 0.0
H548 H 0.66611 0.07901 0.89283 0.0
H549 H 0.62611 0.03614 0.80235 0.0
C550 C 0.59249 0.08158 0.8196 0.0
C551 C 0.52388 0.63054 0.71879 0.0
C552 C 0.54219 0.64611 0.78981 0.0
H553 H 0.50617 0.58989 0.63626 0.0
C554 C 0.56159 0.63599 0.82392 0.0
H555 H 0.50886 0.63817 0.69155 0.0
C556 C 0.55971 0.60833 0.79316 0.0
C557 C 0.53889 0.59091 0.72718 0.0
H558 H 0.57579 0.64762 0.87885 0.0
H559 H 0.5725 0.59912 0.8249 0.0
C560 C 0.52251 0.60316 0.68696 0.0
C561 C 0.50922 0.13075 0.50244 0.0
C562 C 0.4856 0.12349 0.44202 0.0
H563 H 0.53207 0.11286 0.57736 0.0
C564 C 0.46445 0.09173 0.41757 0.0
H565 H 0.5257 0.15504 0.52275 0.0
C566 C 0.46819 0.06792 0.44842 0.0
C567 C 0.49282 0.07529 0.50519 0.0
H568 H 0.44622 0.08534 0.37067 0.0
H569 H 0.4528 0.04377 0.42471 0.0
C570 C 0.51267 0.10672 0.53431 0.0
C571 C 0.40046 0.50081 0.37977 0.0
C572 C 0.36882 0.47758 0.37398 0.0
H573 H 0.44624 0.51529 0.43004 0.0
C574 C 0.35958 0.44922 0.40932 0.0
H575 H 0.4083 0.52266 0.3518 0.0
C576 C 0.38131 0.44469 0.45254 0.0
C577 C 0.41271 0.46857 0.4621 0.0
H578 H 0.33531 0.43094 0.40645 0.0
H579 H 0.37318 0.42297 0.48127 0.0
C580 C 0.42224 0.49637 0.42357 0.0
C581 C 0.92477 0.38894 0.31824 0.0
C582 C 0.8983 0.36954 0.35746 0.0
H583 H 0.96934 0.4304 0.3245 0.0
C584 C 0.89803 0.3772 0.43864 0.0
H585 H 0.92578 0.3842 0.25568 0.0
C586 C 0.92326 0.40432 0.47859 0.0
C587 C 0.94909 0.42427 0.43785 0.0
H588 H 0.87818 0.36251 0.47099 0.0
H589 H 0.92202 0.41024 0.54021 0.0
C590 C 0.94979 0.41574 0.35786 0.0
C591 C 0.53475 0.86957 0.38546 0.0
C592 C 0.50823 0.85344 0.33141 0.0
H593 H 0.55979 0.9073 0.4758 0.0
C594 C 0.48409 0.86019 0.33583 0.0
H595 H 0.55343 0.86434 0.38414 0.0
C596 C 0.48767 0.88466 0.38829 0.0
C597 C 0.51536 0.90265 0.43756 0.0
H598 H 0.46338 0.84803 0.29505 0.0
H599 H 0.46955 0.89077 0.38669 0.0
C600 C 0.53821 0.89388 0.43856 0.0
C601 C 0.6709 0.5645 0.33687 0.0
C602 C 0.66705 0.53884 0.28749 0.0
H603 H 0.64912 0.58287 0.41183 0.0
C604 C 0.63739 0.51202 0.27368 0.0
H605 H 0.69361 0.58548 0.34825 0.0
C606 C 0.61205 0.5107 0.3086 0.0
C607 C 0.61575 0.53604 0.35917 0.0
H608 H 0.63369 0.4921 0.23497 0.0
H609 H 0.58958 0.48946 0.2967 0.0
C610 C 0.6455 0.56299 0.37316 0.0
C611 C 0.1315 0.68275 0.43716 0.0
C612 C 0.14991 0.67674 0.38694 0.0
H613 H 0.09591 0.66412 0.51797 0.0
C614 C 0.15052 0.64862 0.39158 0.0
H615 H 0.13122 0.70462 0.43626 0.0
C616 C 0.13053 0.62552 0.43895 0.0
C617 C 0.10959 0.63015 0.48251 0.0
H618 H 0.16465 0.64343 0.35407 0.0
H619 H 0.12965 0.60304 0.43621 0.0
C620 C 0.11164 0.65973 0.48499 0.0
loop_
_geom_bond_atom_site_label_1
_geom_bond_atom_site_label_2
_geom_bond_distance
_geom_bond_site_symmetry_2
_ccdc_geom_bond_type
H0 C19 0.949 . S
H1 C20 0.950 . S
H2 C22 0.950 . S
H3 C23 0.950 . S
H4 C25 0.950 . S
H5 C28 0.950 . S
H6 C29 0.950 . S
H7 C31 0.951 1_556 S
H8 C32 0.949 . S
H9 C34 0.949 . S
H10 C35 0.950 1_556 S
H11 C37 0.950 . S
H12 C38 0.950 . S
H13 C40 0.950 . S
H14 C43 0.950 . S
H15 C44 0.950 . S
H16 C46 0.951 . S
H17 C47 0.949 . S
C18 C19 1.376 . S
C18 C23 1.386 . S
C18 C24 1.483 . S
C19 H0 0.949 . S
C19 C18 1.376 . S
C19 C20 1.397 . S
C20 H1 0.950 . S
C20 C19 1.397 . S
C20 C21 1.391 . S
C21 C20 1.391 . S
C21 C22 1.405 . S
C22 H2 0.950 . S
C22 C21 1.405 . S
C22 C23 1.367 . S
C23 H3 0.950 . S
C23 C18 1.386 . S
C23 C22 1.367 . S
C24 C18 1.483 . S
C24 C25 1.382 . S
C24 C26 1.403 . S
C25 H4 0.950 . S
C25 C24 1.382 . S
C25 C41 1.411 . S
C26 C24 1.403 . S
C26 C27 1.489 . S
C26 C40 1.411 . S
C27 C26 1.489 . S
C27 C28 1.383 . S
C27 C32 1.382 . S
C28 H5 0.950 . S
C28 C27 1.383 . S
C28 C29 1.395 . S
C29 H6 0.950 . S
C29 C28 1.395 . S
C29 C30 1.288 . S
C30 C29 1.288 . S
C30 C31 1.392 . S
C31 H7 0.951 1_554 S
C31 C30 1.392 . S
C31 C32 1.392 . S
C32 H8 0.949 . S
C32 C27 1.382 . S
C32 C31 1.392 . S
C33 C34 1.376 . S
C33 C38 1.386 . S
C33 C39 1.483 . S
C34 H9 0.949 . S
C34 C33 1.376 . S
C34 C35 1.397 . S
C35 H10 0.950 1_554 S
C35 C34 1.397 . S
C35 C36 1.391 . S
C36 C35 1.391 . S
C36 C37 1.405 . S
C37 H11 0.950 . S
C37 C36 1.405 . S
C37 C38 1.367 . S
C38 H12 0.950 . S
C38 C33 1.386 . S
C38 C37 1.367 . S
C39 C33 1.483 . S
C39 C40 1.382 . S
C39 C41 1.403 . S
C40 H13 0.950 . S
C40 C26 1.411 . S
C40 C39 1.382 . S
C41 C25 1.411 . S
C41 C39 1.403 . S
C41 C42 1.489 . S
C42 C41 1.489 . S
C42 C43 1.383 . S
C42 C47 1.382 . S
C43 H14 0.950 . S
C43 C42 1.383 . S
C43 C44 1.395 . S
C44 H15 0.950 . S
C44 C43 1.395 . S
C44 C45 1.288 . S
C45 C44 1.288 . S
C45 C46 1.392 . S
C46 H16 0.951 . S
C46 C45 1.392 . S
C46 C47 1.392 . S
C47 H17 0.949 . S
C47 C42 1.382 . S
C47 C46 1.392 . S
H48 C67 0.949 . S
H49 C68 0.950 . S
H50 C70 0.950 . S
H51 C71 0.950 . S
H52 C73 0.950 1_556 S
H53 C76 0.950 . S
H54 C77 0.950 . S
H55 C79 0.951 . S
H56 C80 0.949 . S
H57 C82 0.949 . S
H58 C83 0.950 . S
H59 C85 0.950 . S
H60 C86 0.950 . S
H61 C88 0.950 . S
H62 C91 0.950 . S
H63 C92 0.950 . S
H64 C94 0.951 . S
H65 C95 0.949 . S
C66 C67 1.376 1_554 S
C66 C71 1.386 . S
C66 C72 1.483 . S
C67 H48 0.949 . S
C67 C66 1.376 1_556 S
C67 C68 1.397 . S
C68 H49 0.950 . S
C68 C67 1.397 . S
C68 C69 1.391 . S
C69 C68 1.391 . S
C69 C70 1.405 . S
C70 H50 0.950 . S
C70 C69 1.405 . S
C70 C71 1.367 1_556 S
C71 H51 0.950 . S
C71 C66 1.386 . S
C71 C70 1.367 1_554 S
C72 C66 1.483 . S
C72 C73 1.382 . S
C72 C74 1.403 . S
C73 H52 0.950 1_554 S
C73 C72 1.382 . S
C73 C89 1.411 . S
C74 C72 1.403 . S
C74 C75 1.489 . S
C74 C88 1.411 . S
C75 C74 1.489 . S
C75 C76 1.383 . S
C75 C80 1.382 . S
C76 H53 0.950 . S
C76 C75 1.383 . S
C76 C77 1.395 . S
C77 H54 0.950 . S
C77 C76 1.395 . S
C77 C78 1.288 . S
C78 C77 1.288 . S
C78 C79 1.392 . S
C79 H55 0.951 . S
C79 C78 1.392 . S
C79 C80 1.392 . S
C80 H56 0.949 . S
C80 C75 1.382 . S
C80 C79 1.392 . S
C81 C82 1.376 . S
C81 C86 1.386 . S
C81 C87 1.483 . S
C82 H57 0.949 . S
C82 C81 1.376 . S
C82 C83 1.397 . S
C83 H58 0.950 . S
C83 C82 1.397 . S
C83 C84 1.391 . S
C84 C83 1.391 . S
C84 C85 1.405 . S
C85 H59 0.950 . S
C85 C84 1.405 . S
C85 C86 1.367 . S
C86 H60 0.950 . S
C86 C81 1.386 . S
C86 C85 1.367 . S
C87 C81 1.483 . S
C87 C88 1.382 . S
C87 C89 1.403 . S
C88 H61 0.950 . S
C88 C74 1.411 . S
C88 C87 1.382 . S
C89 C73 1.411 . S
C89 C87 1.403 . S
C89 C90 1.489 . S
C90 C89 1.489 . S
C90 C91 1.383 . S
C90 C95 1.382 1_554 S
C91 H62 0.950 . S
C91 C90 1.383 . S
C91 C92 1.395 1_554 S
C92 H63 0.950 . S
C92 C91 1.395 1_556 S
C92 C93 1.288 . S
C93 C92 1.288 . S
C93 C94 1.392 . S
C94 H64 0.951 . S
C94 C93 1.392 . S
C94 C95 1.392 . S
C95 H65 0.949 . S
C95 C90 1.382 1_556 S
C95 C94 1.392 . S
H96 C115 0.949 . S
H97 C116 0.950 . S
H98 C118 0.950 . S
H99 C119 0.950 . S
H100 C121 0.950 . S
H101 C124 0.950 . S
H102 C125 0.950 . S
H103 C127 0.951 . S
H104 C128 0.949 . S
H105 C130 0.949 . S
H106 C131 0.950 . S
H107 C133 0.950 . S
H108 C134 0.950 . S
H109 C136 0.950 . S
H110 C139 0.950 . S
H111 C140 0.950 . S
H112 C142 0.951 . S
H113 C143 0.949 . S
C114 C115 1.376 . S
C114 C119 1.386 . S
C114 C120 1.483 . S
C115 H96 0.949 . S
C115 C114 1.376 . S
C115 C116 1.397 . S
C116 H97 0.950 . S
C116 C115 1.397 . S
C116 C117 1.391 . S
C117 C116 1.391 . S
C117 C118 1.405 . S
C118 H98 0.950 . S
C118 C117 1.405 . S
C118 C119 1.367 . S
C119 H99 0.950 . S
C119 C114 1.386 . S
C119 C118 1.367 . S
C120 C114 1.483 . S
C120 C121 1.382 . S
C120 C122 1.403 1_556 S
C121 H100 0.950 . S
C121 C120 1.382 . S
C121 C137 1.411 . S
C122 C120 1.403 1_554 S
C122 C123 1.489 . S
C122 C136 1.411 . S
C123 C122 1.489 . S
C123 C124 1.383 . S
C123 C128 1.382 . S
C124 H101 0.950 . S
C124 C123 1.383 . S
C124 C125 1.395 . S
C125 H102 0.950 . S
C125 C124 1.395 . S
C125 C126 1.288 . S
C126 C125 1.288 . S
C126 C127 1.392 . S
C127 H103 0.951 . S
C127 C126 1.392 . S
C127 C128 1.392 . S
C128 H104 0.949 . S
C128 C123 1.382 . S
C128 C127 1.392 . S
C129 C130 1.376 . S
C129 C134 1.386 . S
C129 C135 1.483 . S
C130 H105 0.949 . S
C130 C129 1.376 . S
C130 C131 1.397 . S
C131 H106 0.950 . S
C131 C130 1.397 . S
C131 C132 1.391 . S
C132 C131 1.391 . S
C132 C133 1.405 . S
C133 H107 0.950 . S
C133 C132 1.405 . S
C133 C134 1.367 . S
C134 H108 0.950 . S
C134 C129 1.386 . S
C134 C133 1.367 . S
C135 C129 1.483 . S
C135 C136 1.382 . S
C135 C137 1.403 1_554 S
C136 H109 0.950 . S
C136 C122 1.411 . S
C136 C135 1.382 . S
C137 C121 1.411 . S
C137 C135 1.403 1_556 S
C137 C138 1.489 . S
C138 C137 1.489 . S
C138 C139 1.383 . S
C138 C143 1.382 . S
C139 H110 0.950 . S
C139 C138 1.383 . S
C139 C140 1.395 . S
C140 H111 0.950 . S
C140 C139 1.395 . S
C140 C141 1.288 . S
C141 C140 1.288 . S
C141 C142 1.392 . S
C142 H112 0.951 . S
C142 C141 1.392 . S
C142 C143 1.392 . S
C143 H113 0.949 . S
C143 C138 1.382 . S
C143 C142 1.392 . S
H144 C163 0.949 . S
H145 C164 0.950 . S
H146 C166 0.950 . S
H147 C167 0.950 . S
H148 C169 0.950 . S
H149 C172 0.950 . S
H150 C173 0.950 . S
H151 C175 0.951 . S
H152 C176 0.949 . S
H153 C178 0.949 . S
H154 C179 0.950 . S
H155 C181 0.950 . S
H156 C182 0.950 . S
H157 C184 0.950 . S
H158 C187 0.950 . S
H159 C188 0.950 . S
H160 C190 0.951 . S
H161 C191 0.949 . S
C162 C163 1.376 . S
C162 C167 1.386 . S
C162 C168 1.483 . S
C163 H144 0.949 . S
C163 C162 1.376 . S
C163 C164 1.397 . S
C164 H145 0.950 . S
C164 C163 1.397 . S
C164 C165 1.391 . S
C165 C164 1.391 . S
C165 C166 1.405 . S
C166 H146 0.950 . S
C166 C165 1.405 . S
C166 C167 1.367 . S
C167 H147 0.950 . S
C167 C162 1.386 . S
C167 C166 1.367 . S
C168 C162 1.483 . S
C168 C169 1.382 . S
C168 C170 1.403 1_554 S
C169 H148 0.950 . S
C169 C168 1.382 . S
C169 C185 1.411 . S
C170 C168 1.403 1_556 S
C170 C171 1.489 . S
C170 C184 1.411 . S
C171 C170 1.489 . S
C171 C172 1.383 . S
C171 C176 1.382 . S
C172 H149 0.950 . S
C172 C171 1.383 . S
C172 C173 1.395 . S
C173 H150 0.950 . S
C173 C172 1.395 . S
C173 C174 1.288 . S
C174 C173 1.288 . S
C174 C175 1.392 . S
C175 H151 0.951 . S
C175 C174 1.392 . S
C175 C176 1.392 . S
C176 H152 0.949 . S
C176 C171 1.382 . S
C176 C175 1.392 . S
C177 C178 1.376 . S
C177 C182 1.386 . S
C177 C183 1.483 . S
C178 H153 0.949 . S
C178 C177 1.376 . S
C178 C179 1.397 . S
C179 H154 0.950 . S
C179 C178 1.397 . S
C179 C180 1.391 . S
C180 C179 1.391 . S
C180 C181 1.405 . S
C181 H155 0.950 . S
C181 C180 1.405 . S
C181 C182 1.367 . S
C182 H156 0.950 . S
C182 C177 1.386 . S
C182 C181 1.367 . S
C183 C177 1.483 . S
C183 C184 1.382 . S
C183 C185 1.403 1_556 S
C184 H157 0.950 . S
C184 C170 1.411 . S
C184 C183 1.382 . S
C185 C169 1.411 . S
C185 C183 1.403 1_554 S
C185 C186 1.489 . S
C186 C185 1.489 . S
C186 C187 1.383 . S
C186 C191 1.382 . S
C187 H158 0.950 . S
C187 C186 1.383 . S
C187 C188 1.395 . S
C188 H159 0.950 . S
C188 C187 1.395 . S
C188 C189 1.288 . S
C189 C188 1.288 . S
C189 C190 1.392 . S
C190 H160 0.951 . S
C190 C189 1.392 . S
C190 C191 1.392 . S
C191 H161 0.949 . S
C191 C186 1.382 . S
C191 C190 1.392 . S
H192 C211 0.949 . S
H193 C212 0.950 . S
H194 C214 0.951 1_554 S
H195 C215 0.950 . S
H196 C217 0.950 1_556 S
H197 C220 0.950 . S
H198 C221 0.950 . S
H199 C223 0.951 . S
H200 C224 0.949 . S
H201 C226 0.949 . S
H202 C227 0.950 . S
H203 C229 0.950 . S
H204 C230 0.950 . S
H205 C232 0.950 . S
H206 C235 0.950 . S
H207 C236 0.950 . S
H208 C238 0.951 . S
H209 C239 0.949 . S
C210 C211 1.376 1_554 S
C210 C215 1.386 . S
C210 C216 1.483 . S
C211 H192 0.949 . S
C211 C210 1.376 1_556 S
C211 C212 1.397 . S
C212 H193 0.950 . S
C212 C211 1.397 . S
C212 C213 1.391 . S
C213 C212 1.391 . S
C213 C214 1.413 . S
C214 H194 0.951 1_556 S
C214 C213 1.413 . S
C214 C215 1.359 1_556 S
C215 H195 0.950 . S
C215 C210 1.386 . S
C215 C214 1.359 1_554 S
C216 C210 1.483 . S
C216 C217 1.382 . S
C216 C218 1.403 . S
C217 H196 0.950 1_554 S
C217 C216 1.382 . S
C217 C233 1.411 . S
C218 C216 1.403 . S
C218 C219 1.489 . S
C218 C232 1.411 . S
C219 C218 1.489 . S
C219 C220 1.383 . S
C219 C224 1.382 . S
C220 H197 0.950 . S
C220 C219 1.383 . S
C220 C221 1.395 . S
C221 H198 0.950 . S
C221 C220 1.395 . S
C221 C222 1.288 . S
C222 C221 1.288 . S
C222 C223 1.392 . S
C223 H199 0.951 . S
C223 C222 1.392 . S
C223 C224 1.392 . S
C224 H200 0.949 . S
C224 C219 1.382 . S
C224 C223 1.392 . S
C225 C226 1.376 . S
C225 C230 1.386 . S
C225 C231 1.483 . S
C226 H201 0.949 . S
C226 C225 1.376 . S
C226 C227 1.397 . S
C227 H202 0.950 . S
C227 C226 1.397 . S
C227 C228 1.391 . S
C228 C227 1.391 . S
C228 C229 1.405 . S
C229 H203 0.950 . S
C229 C228 1.405 . S
C229 C230 1.367 . S
C230 H204 0.950 . S
C230 C225 1.386 . S
C230 C229 1.367 . S
C231 C225 1.483 . S
C231 C232 1.382 . S
C231 C233 1.403 . S
C232 H205 0.950 . S
C232 C218 1.411 . S
C232 C231 1.382 . S
C233 C217 1.411 . S
C233 C231 1.403 . S
C233 C234 1.489 . S
C234 C233 1.489 . S
C234 C235 1.383 . S
C234 C239 1.382 1_554 S
C235 H206 0.950 . S
C235 C234 1.383 . S
C235 C236 1.395 1_554 S
C236 H207 0.950 . S
C236 C235 1.395 1_556 S
C236 C237 1.288 . S
C237 C236 1.288 . S
C237 C238 1.392 . S
C238 H208 0.951 . S
C238 C237 1.392 . S
C238 C239 1.392 . S
C239 H209 0.949 . S
C239 C234 1.382 1_556 S
C239 C238 1.392 . S
H240 C259 0.949 . S
H241 C260 0.950 1_556 S
H242 C262 0.950 . S
H243 C263 0.950 . S
H244 C265 0.950 . S
H245 C268 0.950 . S
H246 C269 0.950 . S
H247 C271 0.951 . S
H248 C272 0.949 . S
H249 C274 0.949 . S
H250 C275 0.950 . S
H251 C277 0.950 . S
H252 C278 0.950 . S
H253 C280 0.950 . S
H254 C283 0.950 . S
H255 C284 0.950 . S
H256 C286 0.951 1_556 S
H257 C287 0.949 . S
C258 C259 1.376 . S
C258 C263 1.386 . S
C258 C264 1.483 . S
C259 H240 0.949 . S
C259 C258 1.376 . S
C259 C260 1.397 . S
C260 H241 0.950 1_554 S
C260 C259 1.397 . S
C260 C261 1.391 . S
C261 C260 1.391 . S
C261 C262 1.405 . S
C262 H242 0.950 . S
C262 C261 1.405 . S
C262 C263 1.367 . S
C263 H243 0.950 . S
C263 C258 1.386 . S
C263 C262 1.367 . S
C264 C258 1.483 . S
C264 C265 1.382 . S
C264 C266 1.403 . S
C265 H244 0.950 . S
C265 C264 1.382 . S
C265 C281 1.411 . S
C266 C264 1.403 . S
C266 C267 1.489 . S
C266 C280 1.411 . S
C267 C266 1.489 . S
C267 C268 1.383 . S
C267 C272 1.382 . S
C268 H245 0.950 . S
C268 C267 1.383 . S
C268 C269 1.395 . S
C269 H246 0.950 . S
C269 C268 1.395 . S
C269 C270 1.288 . S
C270 C269 1.288 . S
C270 C271 1.392 . S
C271 H247 0.951 . S
C271 C270 1.392 . S
C271 C272 1.392 . S
C272 H248 0.949 . S
C272 C267 1.382 . S
C272 C271 1.392 . S
C273 C274 1.376 . S
C273 C278 1.386 . S
C273 C279 1.483 . S
C274 H249 0.949 . S
C274 C273 1.376 . S
C274 C275 1.397 . S
C275 H250 0.950 . S
C275 C274 1.397 . S
C275 C276 1.391 . S
C276 C275 1.391 . S
C276 C277 1.405 . S
C277 H251 0.950 . S
C277 C276 1.405 . S
C277 C278 1.367 . S
C278 H252 0.950 . S
C278 C273 1.386 . S
C278 C277 1.367 . S
C279 C273 1.483 . S
C279 C280 1.382 . S
C279 C281 1.403 . S
C280 H253 0.950 . S
C280 C266 1.411 . S
C280 C279 1.382 . S
C281 C265 1.411 . S
C281 C279 1.403 . S
C281 C282 1.489 . S
C282 C281 1.489 . S
C282 C283 1.383 . S
C282 C287 1.382 . S
C283 H254 0.950 . S
C283 C282 1.383 . S
C283 C284 1.395 . S
C284 H255 0.950 . S
C284 C283 1.395 . S
C284 C285 1.288 . S
C285 C284 1.288 . S
C285 C286 1.392 . S
C286 H256 0.951 1_554 S
C286 C285 1.392 . S
C286 C287 1.392 . S
C287 H257 0.949 . S
C287 C282 1.382 . S
C287 C286 1.392 . S
C288 O315 1.312 . S
C288 O316 1.208 . S
C289 O310 1.331 . S
C289 O313 1.244 . S
C290 O312 1.264 . S
C290 O314 1.273 . S
Mg291 O293 1.936 1_455 S
Mg291 O300 2.081 1_455 S
Mg291 O302 2.023 . S
Mg291 O306 2.031 1_455 S
Mg291 O315 2.291 . S
Mg292 O293 1.945 . S
Mg292 O303 1.964 . S
Mg292 O304 1.926 1_655 S
Mg292 O311 2.005 . S
O293 Mg291 1.936 1_655 S
O293 Mg292 1.945 . S
O293 Mg294 1.915 1_655 S
Mg294 O293 1.915 1_455 S
Mg294 O295 1.915 . S
Mg294 O299 2.013 . S
Mg294 O305 2.114 1_455 S
Mg294 O309 2.013 1_455 S
Mg294 O315 2.114 . S
O295 Mg294 1.915 . S
O295 Mg296 1.936 . S
O295 Mg297 1.963 . S
Mg296 O295 1.936 . S
Mg296 O305 2.291 1_455 S
Mg296 O310 2.081 . S
Mg296 O312 2.023 1_455 S
Mg296 O316 2.031 . S
Mg297 O295 1.963 . S
Mg297 O301 1.986 . S
Mg297 O313 1.942 . S
Mg297 O314 1.955 1_455 S
C298 O309 1.191 . S
C298 O311 1.307 . S
O299 Mg294 2.013 . S
O299 C318 1.191 . S
O300 Mg291 2.081 1_655 S
O300 C308 1.331 . S
O301 Mg297 1.986 . S
O301 C318 1.307 . S
O302 Mg291 2.023 . S
O302 C317 1.264 . S
O303 Mg292 1.964 . S
O303 C308 1.244 . S
O304 Mg292 1.926 1_455 S
O304 C317 1.273 . S
O305 Mg294 2.114 1_655 S
O305 Mg296 2.291 1_655 S
O305 C307 1.312 . S
O306 Mg291 2.031 1_655 S
O306 C307 1.208 . S
C307 O305 1.312 . S
C307 O306 1.208 . S
C308 O300 1.331 . S
C308 O303 1.244 . S
O309 Mg294 2.013 1_655 S
O309 C298 1.191 . S
O310 C289 1.331 . S
O310 Mg296 2.081 . S
O311 Mg292 2.005 . S
O311 C298 1.307 . S
O312 C290 1.264 . S
O312 Mg296 2.023 1_655 S
O313 C289 1.244 . S
O313 Mg297 1.942 . S
O314 C290 1.273 . S
O314 Mg297 1.955 1_655 S
O315 C288 1.312 . S
O315 Mg291 2.291 . S
O315 Mg294 2.114 . S
O316 C288 1.208 . S
O316 Mg296 2.031 . S
C317 O302 1.264 . S
C317 O304 1.273 . S
C318 O299 1.191 . S
C318 O301 1.307 . S
C319 O346 1.312 . S
C319 O347 1.208 . S
C320 O341 1.331 . S
C320 O344 1.244 . S
C321 O343 1.264 . S
C321 O345 1.273 . S
Mg322 O324 1.936 1_545 S
Mg322 O331 2.081 1_545 S
Mg322 O333 2.023 . S
Mg322 O337 2.031 1_545 S
Mg322 O346 2.291 . S
Mg323 O324 1.963 . S
Mg323 O334 1.942 . S
Mg323 O335 1.955 1_565 S
Mg323 O342 1.986 . S
O324 Mg322 1.936 1_565 S
O324 Mg323 1.963 . S
O324 Mg325 1.915 1_565 S
Mg325 O324 1.915 1_545 S
Mg325 O326 1.915 . S
Mg325 O330 2.013 . S
Mg325 O336 2.114 1_545 S
Mg325 O340 2.013 1_545 S
Mg325 O346 2.114 . S
O326 Mg325 1.915 . S
O326 Mg327 1.936 . S
O326 Mg328 1.963 . S
Mg327 O326 1.936 . S
Mg327 O336 2.291 1_545 S
Mg327 O341 2.081 . S
Mg327 O343 2.023 1_545 S
Mg327 O347 2.031 . S
Mg328 O326 1.963 . S
Mg328 O332 1.986 . S
Mg328 O344 1.942 . S
Mg328 O345 1.955 1_545 S
C329 O340 1.191 . S
C329 O342 1.307 . S
O330 Mg325 2.013 . S
O330 C349 1.191 . S
O331 Mg322 2.081 1_565 S
O331 C339 1.331 . S
O332 Mg328 1.986 . S
O332 C349 1.307 . S
O333 Mg322 2.023 . S
O333 C348 1.264 . S
O334 Mg323 1.942 . S
O334 C339 1.244 . S
O335 Mg323 1.955 1_545 S
O335 C348 1.273 . S
O336 Mg325 2.114 1_565 S
O336 Mg327 2.291 1_565 S
O336 C338 1.312 . S
O337 Mg322 2.031 1_565 S
O337 C338 1.208 . S
C338 O336 1.312 . S
C338 O337 1.208 . S
C339 O331 1.331 . S
C339 O334 1.244 . S
O340 Mg325 2.013 1_565 S
O340 C329 1.191 . S
O341 C320 1.331 . S
O341 Mg327 2.081 . S
O342 Mg323 1.986 . S
O342 C329 1.307 . S
O343 C321 1.264 . S
O343 Mg327 2.023 1_565 S
O344 C320 1.244 . S
O344 Mg328 1.942 . S
O345 C321 1.273 . S
O345 Mg328 1.955 1_565 S
O346 C319 1.312 . S
O346 Mg322 2.291 . S
O346 Mg325 2.114 . S
O347 C319 1.208 . S
O347 Mg327 2.031 . S
C348 O333 1.264 . S
C348 O335 1.273 . S
C349 O330 1.191 . S
C349 O332 1.307 . S
C350 O377 1.312 . S
C350 O378 1.208 . S
C351 O372 1.331 . S
C351 O375 1.244 . S
C352 O374 1.264 . S
C352 O376 1.273 . S
Mg353 O355 1.936 . S
Mg353 O362 2.081 . S
Mg353 O364 2.023 . S
Mg353 O368 2.031 . S
Mg353 O377 2.291 . S
Mg354 O355 1.963 . S
Mg354 O365 1.942 . S
Mg354 O366 1.955 . S
Mg354 O373 1.986 . S
O355 Mg353 1.936 . S
O355 Mg354 1.963 . S
O355 Mg356 1.915 . S
Mg356 O355 1.915 . S
Mg356 O357 1.915 . S
Mg356 O361 2.013 . S
Mg356 O367 2.114 . S
Mg356 O371 2.013 . S
Mg356 O377 2.114 . S
O357 Mg356 1.915 . S
O357 Mg358 1.936 . S
O357 Mg359 1.963 . S
Mg358 O357 1.936 . S
Mg358 O367 2.291 . S
Mg358 O372 2.081 . S
Mg358 O374 2.023 . S
Mg358 O378 2.031 . S
Mg359 O357 1.963 . S
Mg359 O363 1.986 . S
Mg359 O375 1.942 . S
Mg359 O376 1.955 . S
C360 O371 1.191 . S
C360 O373 1.307 . S
O361 Mg356 2.013 . S
O361 C380 1.191 . S
O362 Mg353 2.081 . S
O362 C370 1.331 . S
O363 Mg359 1.986 . S
O363 C380 1.307 . S
O364 Mg353 2.023 . S
O364 C379 1.264 . S
O365 Mg354 1.942 . S
O365 C370 1.244 . S
O366 Mg354 1.955 . S
O366 C379 1.273 . S
O367 Mg356 2.114 . S
O367 Mg358 2.291 . S
O367 C369 1.312 . S
O368 Mg353 2.031 . S
O368 C369 1.208 . S
C369 O367 1.312 . S
C369 O368 1.208 . S
C370 O362 1.331 . S
C370 O365 1.244 . S
O371 Mg356 2.013 . S
O371 C360 1.191 . S
O372 C351 1.331 . S
O372 Mg358 2.081 . S
O373 Mg354 1.986 . S
O373 C360 1.307 . S
O374 C352 1.264 . S
O374 Mg358 2.023 . S
O375 C351 1.244 . S
O375 Mg359 1.942 . S
O376 C352 1.273 . S
O376 Mg359 1.955 . S
O377 C350 1.312 . S
O377 Mg353 2.291 . S
O377 Mg356 2.114 . S
O378 C350 1.208 . S
O378 Mg358 2.031 . S
C379 O364 1.264 . S
C379 O366 1.273 . S
C380 O361 1.191 . S
C380 O363 1.307 . S
C381 C382 1.387 . S
C381 H385 0.950 . S
C381 C390 1.390 . S
C382 C381 1.387 . S
C382 C384 1.387 . S
H383 C390 0.950 . S
C384 C382 1.387 . S
C384 C386 1.390 . S
C384 H388 0.950 . S
H385 C381 0.950 . S
C386 C384 1.390 . S
C386 C387 1.387 . S
C386 H389 0.950 . S
C387 C386 1.387 . S
C387 C390 1.387 . S
H388 C384 0.950 . S
H389 C386 0.950 . S
C390 C381 1.390 . S
C390 H383 0.950 . S
C390 C387 1.387 . S
C391 C392 1.387 . S
C391 H395 0.950 . S
C391 C400 1.390 . S
C392 C391 1.387 . S
C392 C394 1.387 . S
H393 C400 0.950 . S
C394 C392 1.387 . S
C394 C396 1.390 . S
C394 H398 0.950 . S
H395 C391 0.950 . S
C396 C394 1.390 . S
C396 C397 1.387 . S
C396 H399 0.950 . S
C397 C396 1.387 . S
C397 C400 1.387 . S
H398 C394 0.950 . S
H399 C396 0.950 . S
C400 C391 1.390 . S
C400 H393 0.950 . S
C400 C397 1.387 . S
C401 C402 1.387 . S
C401 H405 0.950 . S
C401 C410 1.390 . S
C402 C401 1.387 . S
C402 C404 1.387 . S
H403 C410 0.950 . S
C404 C402 1.387 . S
C404 C406 1.390 . S
C404 H408 0.950 . S
H405 C401 0.950 . S
C406 C404 1.390 . S
C406 C407 1.387 . S
C406 H409 0.950 . S
C407 C406 1.387 . S
C407 C410 1.387 . S
H408 C404 0.950 . S
H409 C406 0.950 . S
C410 C401 1.390 . S
C410 H403 0.950 . S
C410 C407 1.387 . S
C411 C412 1.387 . S
C411 H415 0.950 . S
C411 C420 1.390 . S
C412 C411 1.387 . S
C412 C414 1.387 . S
H413 C420 0.950 . S
C414 C412 1.387 . S
C414 C416 1.390 . S
C414 H418 0.950 . S
H415 C411 0.950 . S
C416 C414 1.390 . S
C416 C417 1.387 . S
C416 H419 0.950 . S
C417 C416 1.387 . S
C417 C420 1.387 . S
H418 C414 0.950 . S
H419 C416 0.950 . S
C420 C411 1.390 . S
C420 H413 0.950 . S
C420 C417 1.387 . S
C421 C422 1.387 . S
C421 H425 0.950 . S
C421 C430 1.390 . S
C422 C421 1.387 . S
C422 C424 1.387 . S
H423 C430 0.950 . S
C424 C422 1.387 . S
C424 C426 1.390 . S
C424 H428 0.950 . S
H425 C421 0.950 . S
C426 C424 1.390 . S
C426 C427 1.387 . S
C426 H429 0.950 . S
C427 C426 1.387 . S
C427 C430 1.387 . S
H428 C424 0.950 . S
H429 C426 0.950 . S
C430 C421 1.390 . S
C430 H423 0.950 . S
C430 C427 1.387 . S
C431 C432 1.387 . S
C431 H435 0.950 . S
C431 C440 1.390 . S
C432 C431 1.387 . S
C432 C434 1.387 . S
H433 C440 0.950 . S
C434 C432 1.387 . S
C434 C436 1.390 . S
C434 H438 0.950 . S
H435 C431 0.950 . S
C436 C434 1.390 . S
C436 C437 1.387 . S
C436 H439 0.950 . S
C437 C436 1.387 . S
C437 C440 1.387 . S
H438 C434 0.950 . S
H439 C436 0.950 . S
C440 C431 1.390 . S
C440 H433 0.950 . S
C440 C437 1.387 . S
C441 C442 1.387 . S
C441 H445 0.950 . S
C441 C450 1.390 . S
C442 C441 1.387 . S
C442 C444 1.387 . S
H443 C450 0.950 . S
C444 C442 1.387 . S
C444 C446 1.390 . S
C444 H448 0.950 . S
H445 C441 0.950 . S
C446 C444 1.390 . S
C446 C447 1.387 . S
C446 H449 0.950 . S
C447 C446 1.387 . S
C447 C450 1.387 . S
H448 C444 0.950 . S
H449 C446 0.950 . S
C450 C441 1.390 . S
C450 H443 0.950 . S
C450 C447 1.387 . S
C451 C452 1.387 . S
C451 H455 0.950 . S
C451 C460 1.390 . S
C452 C451 1.387 . S
C452 C454 1.387 . S
H453 C460 0.950 . S
C454 C452 1.387 . S
C454 C456 1.390 . S
C454 H458 0.950 . S
H455 C451 0.950 . S
C456 C454 1.390 . S
C456 C457 1.387 . S
C456 H459 0.950 . S
C457 C456 1.387 . S
C457 C460 1.387 . S
H458 C454 0.950 . S
H459 C456 0.950 . S
C460 C451 1.390 . S
C460 H453 0.950 . S
C460 C457 1.387 . S
C461 C462 1.387 . S
C461 H465 0.950 . S
C461 C470 1.390 . S
C462 C461 1.387 . S
C462 C464 1.387 . S
H463 C470 0.950 . S
C464 C462 1.387 . S
C464 C466 1.390 . S
C464 H468 0.950 . S
H465 C461 0.950 . S
C466 C464 1.390 . S
C466 C467 1.387 . S
C466 H469 0.950 . S
C467 C466 1.387 . S
C467 C470 1.387 . S
H468 C464 0.950 . S
H469 C466 0.950 . S
C470 C461 1.390 . S
C470 H463 0.950 . S
C470 C467 1.387 . S
C471 C472 1.387 . S
C471 H475 0.950 1_556 S
C471 C480 1.390 . S
C472 C471 1.387 . S
C472 C474 1.387 . S
H473 C480 0.950 . S
C474 C472 1.387 . S
C474 C476 1.390 . S
C474 H478 0.950 . S
H475 C471 0.950 1_554 S
C476 C474 1.390 . S
C476 C477 1.387 . S
C476 H479 0.950 . S
C477 C476 1.387 . S
C477 C480 1.387 . S
H478 C474 0.950 . S
H479 C476 0.950 . S
C480 C471 1.390 . S
C480 H473 0.950 . S
C480 C477 1.387 . S
C481 C482 1.387 . S
C481 H485 0.950 1_556 S
C481 C490 1.390 . S
C482 C481 1.387 . S
C482 C484 1.387 . S
H483 C490 0.950 . S
C484 C482 1.387 . S
C484 C486 1.390 . S
C484 H488 0.950 . S
H485 C481 0.950 1_554 S
C486 C484 1.390 . S
C486 C487 1.387 . S
C486 H489 0.950 . S
C487 C486 1.387 . S
C487 C490 1.387 . S
H488 C484 0.950 . S
H489 C486 0.950 . S
C490 C481 1.390 . S
C490 H483 0.950 . S
C490 C487 1.387 . S
C491 C492 1.387 . S
C491 H495 0.950 . S
C491 C500 1.390 . S
C492 C491 1.387 . S
C492 C494 1.387 . S
H493 C500 0.950 . S
C494 C492 1.387 . S
C494 C496 1.390 . S
C494 H498 0.950 . S
H495 C491 0.950 . S
C496 C494 1.390 . S
C496 C497 1.387 . S
C496 H499 0.950 . S
C497 C496 1.387 . S
C497 C500 1.387 . S
H498 C494 0.950 . S
H499 C496 0.950 . S
C500 C491 1.390 . S
C500 H493 0.950 . S
C500 C497 1.387 . S
C501 C502 1.387 . S
C501 H505 0.950 . S
C501 C510 1.390 . S
C502 C501 1.387 . S
C502 C504 1.387 . S
H503 C510 0.950 . S
C504 C502 1.387 . S
C504 C506 1.390 . S
C504 H508 0.950 . S
H505 C501 0.950 . S
C506 C504 1.390 . S
C506 C507 1.387 . S
C506 H509 0.950 . S
C507 C506 1.387 . S
C507 C510 1.387 . S
H508 C504 0.950 . S
H509 C506 0.950 . S
C510 C501 1.390 . S
C510 H503 0.950 . S
C510 C507 1.387 . S
C511 C512 1.387 . S
C511 H515 0.950 . S
C511 C520 1.390 . S
C512 C511 1.387 . S
C512 C514 1.387 . S
H513 C520 0.950 . S
C514 C512 1.387 . S
C514 C516 1.390 . S
C514 H518 0.950 . S
H515 C511 0.950 . S
C516 C514 1.390 . S
C516 C517 1.387 . S
C516 H519 0.950 . S
C517 C516 1.387 . S
C517 C520 1.387 . S
H518 C514 0.950 . S
H519 C516 0.950 . S
C520 C511 1.390 . S
C520 H513 0.950 . S
C520 C517 1.387 . S
C521 C522 1.387 . S
C521 H525 0.950 . S
C521 C530 1.390 . S
C522 C521 1.387 . S
C522 C524 1.387 . S
H523 C530 0.950 . S
C524 C522 1.387 . S
C524 C526 1.390 . S
C524 H528 0.950 . S
H525 C521 0.950 . S
C526 C524 1.390 . S
C526 C527 1.387 . S
C526 H529 0.950 . S
C527 C526 1.387 . S
C527 C530 1.387 . S
H528 C524 0.950 . S
H529 C526 0.950 . S
C530 C521 1.390 . S
C530 H523 0.950 . S
C530 C527 1.387 . S
C531 C532 1.387 . S
C531 H535 0.950 . S
C531 C540 1.390 . S
C532 C531 1.387 . S
C532 C534 1.387 . S
H533 C540 0.950 . S
C534 C532 1.387 . S
C534 C536 1.390 . S
C534 H538 0.950 . S
H535 C531 0.950 . S
C536 C534 1.390 . S
C536 C537 1.387 . S
C536 H539 0.950 . S
C537 C536 1.387 . S
C537 C540 1.387 . S
H538 C534 0.950 . S
H539 C536 0.950 . S
C540 C531 1.390 . S
C540 H533 0.950 . S
C540 C537 1.387 . S
C541 C542 1.387 . S
C541 H545 0.950 . S
C541 C550 1.390 . S
C542 C541 1.387 . S
C542 C544 1.387 . S
H543 C550 0.950 . S
C544 C542 1.387 . S
C544 C546 1.390 . S
C544 H548 0.950 . S
H545 C541 0.950 . S
C546 C544 1.390 . S
C546 C547 1.387 . S
C546 H549 0.950 . S
C547 C546 1.387 . S
C547 C550 1.387 . S
H548 C544 0.950 . S
H549 C546 0.950 . S
C550 C541 1.390 . S
C550 H543 0.950 . S
C550 C547 1.387 . S
C551 C552 1.387 . S
C551 H555 0.950 . S
C551 C560 1.390 . S
C552 C551 1.387 . S
C552 C554 1.387 . S
H553 C560 0.950 . S
C554 C552 1.387 . S
C554 C556 1.390 . S
C554 H558 0.950 . S
H555 C551 0.950 . S
C556 C554 1.390 . S
C556 C557 1.387 . S
C556 H559 0.950 . S
C557 C556 1.387 . S
C557 C560 1.387 . S
H558 C554 0.950 . S
H559 C556 0.950 . S
C560 C551 1.390 . S
C560 H553 0.950 . S
C560 C557 1.387 . S
C561 C562 1.387 . S
C561 H565 0.950 . S
C561 C570 1.390 . S
C562 C561 1.387 . S
C562 C564 1.387 . S
H563 C570 0.950 . S
C564 C562 1.387 . S
C564 C566 1.390 . S
C564 H568 0.950 . S
H565 C561 0.950 . S
C566 C564 1.390 . S
C566 C567 1.387 . S
C566 H569 0.950 . S
C567 C566 1.387 . S
C567 C570 1.387 . S
H568 C564 0.950 . S
H569 C566 0.950 . S
C570 C561 1.390 . S
C570 H563 0.950 . S
C570 C567 1.387 . S
C571 C572 1.387 . S
C571 H575 0.950 . S
C571 C580 1.390 . S
C572 C571 1.387 . S
C572 C574 1.387 . S
H573 C580 0.950 . S
C574 C572 1.387 . S
C574 C576 1.390 . S
C574 H578 0.950 . S
H575 C571 0.950 . S
C576 C574 1.390 . S
C576 C577 1.387 . S
C576 H579 0.950 . S
C577 C576 1.387 . S
C577 C580 1.387 . S
H578 C574 0.950 . S
H579 C576 0.950 . S
C580 C571 1.390 . S
C580 H573 0.950 . S
C580 C577 1.387 . S
C581 C582 1.387 . S
C581 H585 0.950 . S
C581 C590 1.390 . S
C582 C581 1.387 . S
C582 C584 1.387 . S
H583 C590 0.950 . S
C584 C582 1.387 . S
C584 C586 1.390 . S
C584 H588 0.950 . S
H585 C581 0.950 . S
C586 C584 1.390 . S
C586 C587 1.387 . S
C586 H589 0.950 . S
C587 C586 1.387 . S
C587 C590 1.387 . S
H588 C584 0.950 . S
H589 C586 0.950 . S
C590 C581 1.390 . S
C590 H583 0.950 . S
C590 C587 1.387 . S
C591 C592 1.387 . S
C591 H595 0.950 . S
C591 C600 1.390 . S
C592 C591 1.387 . S
C592 C594 1.387 . S
H593 C600 0.950 . S
C594 C592 1.387 . S
C594 C596 1.390 . S
C594 H598 0.950 . S
H595 C591 0.950 . S
C596 C594 1.390 . S
C596 C597 1.387 . S
C596 H599 0.950 . S
C597 C596 1.387 . S
C597 C600 1.387 . S
H598 C594 0.950 . S
H599 C596 0.950 . S
C600 C591 1.390 . S
C600 H593 0.950 . S
C600 C597 1.387 . S
C601 C602 1.387 . S
C601 H605 0.950 . S
C601 C610 1.390 . S
C602 C601 1.387 . S
C602 C604 1.387 . S
H603 C610 0.950 . S
C604 C602 1.387 . S
C604 C606 1.390 . S
C604 H608 0.950 . S
H605 C601 0.950 . S
C606 C604 1.390 . S
C606 C607 1.387 . S
C606 H609 0.950 . S
C607 C606 1.387 . S
C607 C610 1.387 . S
H608 C604 0.950 . S
H609 C606 0.950 . S
C610 C601 1.390 . S
C610 H603 0.950 . S
C610 C607 1.387 . S
C611 C612 1.387 . S
C611 H615 0.950 . S
C611 C620 1.390 . S
C612 C611 1.387 . S
C612 C614 1.387 . S
H613 C620 0.950 . S
C614 C612 1.387 . S
C614 C616 1.390 . S
C614 H618 0.950 . S
H615 C611 0.950 . S
C616 C614 1.390 . S
C616 C617 1.387 . S
C616 H619 0.950 . S
C617 C616 1.387 . S
C617 C620 1.387 . S
H618 C614 0.950 . S
H619 C616 0.950 . S
C620 C611 1.390 . S
C620 H613 0.950 . S
C620 C617 1.387 . S
C382 C45 1.891 . S
C387 C288 1.744 . S
C392 C84 1.574 . S
C397 C320 1.536 . S
C407 C379 1.835 . S
C402 C126 1.861 . S
C417 C308 1.428 . S
C412 C165 1.463 . S
C422 C222 1.725 . S
C427 C338 1.645 . S
C437 C360 1.388 . S
C432 C276 1.381 . S
C447 C329 1.771 . S
C442 C141 1.809 . S
C452 C180 1.471 . S
C457 C369 1.377 . S
C467 C318 1.686 . S
C462 C237 1.742 . S
C472 C261 1.528 1_556 S
C477 C348 1.488 . S
C482 C30 1.785 1_556 S
C487 C351 1.763 . S
C497 C290 1.604 . S
C492 C69 1.622 . S
C507 C298 1.704 . S
C502 C174 1.803 . S
C517 C339 1.511 . S
C512 C213 1.545 . S
C527 C352 1.845 . S
C522 C285 1.873 1_556 S
C537 C289 1.439 . S
C532 C36 1.477 1_556 S
C547 C349 1.610 . S
C542 C93 1.638 . S
C552 C117 1.395 . S
C557 C350 1.364 . S
C567 C319 1.712 . S
C562 C270 1.795 . S
C577 C380 1.361 . S
C572 C21 1.417 . S
C587 C307 1.625 . S
C582 C78 1.730 . S
C597 C321 1.517 . S
C592 C132 1.557 . S
C602 C189 1.783 . S
C607 C370 1.759 . S
C612 C228 1.630 . S
C617 C317 1.608 . S
