# Generated by pormake.
# Topology zzz, (3,6)-cn, num edge types: 1
# Building blocks:
#     Node 0, Type 0, BuildingBlock: BETDAH_clean_linker_0, # of connection points: 3
#     Node 1, Type 0, BuildingBlock: BETDAH_clean_linker_0, # of connection points: 3
#     Node 2, Type 0, BuildingBlock: BETDAH_clean_linker_0, # of connection points: 3
#     Node 3, Type 0, BuildingBlock: BETDAH_clean_linker_0, # of connection points: 3
#     Node 4, Type 0, BuildingBlock: BETDAH_clean_linker_0, # of connection points: 3
#     Node 5, Type 0, BuildingBlock: BETDAH_clean_linker_0, # of connection points: 3
#     Node 6, Type 0, BuildingBlock: BETDAH_clean_linker_0, # of connection points: 3
#     Node 7, Type 0, BuildingBlock: BETDAH_clean_linker_0, # of connection points: 3
#     Node 8, Type 1, BuildingBlock: KUMJIN_clean_sbu_0, # of connection points: 6
#     Node 9, Type 1, BuildingBlock: KUMJIN_clean_sbu_0, # of connection points: 6
#     Node 10, Type 1, BuildingBlock: KUMJIN_clean_sbu_0, # of connection points: 6
#     Node 11, Type 1, BuildingBlock: KUMJIN_clean_sbu_0, # of connection points: 6
#     Edge 12, Type (0, 1), BuildingBlock: ZUJKAS_clean_linker_0, # of connection points: 2
#     Edge 13, Type (0, 1), BuildingBlock: ZUJKAS_clean_linker_0, # of connection points: 2
#     Edge 14, Type (0, 1), BuildingBlock: ZUJKAS_clean_linker_0, # of connection points: 2
#     Edge 15, Type (0, 1), BuildingBlock: ZUJKAS_clean_linker_0, # of connection points: 2
#     Edge 16, Type (0, 1), BuildingBlock: ZUJKAS_clean_linker_0, # of connection points: 2
#     Edge 17, Type (0, 1), BuildingBlock: ZUJKAS_clean_linker_0, # of connection points: 2
#     Edge 18, Type (0, 1), BuildingBlock: ZUJKAS_clean_linker_0, # of connection points: 2
#     Edge 19, Type (0, 1), BuildingBlock: ZUJKAS_clean_linker_0, # of connection points: 2
#     Edge 20, Type (0, 1), BuildingBlock: ZUJKAS_clean_linker_0, # of connection points: 2
#     Edge 21, Type (0, 1), BuildingBlock: ZUJKAS_clean_linker_0, # of connection points: 2
#     Edge 22, Type (0, 1), BuildingBlock: ZUJKAS_clean_linker_0, # of connection points: 2
#     Edge 23, Type (0, 1), BuildingBlock: ZUJKAS_clean_linker_0, # of connection points: 2
#     Edge 24, Type (0, 1), BuildingBlock: ZUJKAS_clean_linker_0, # of connection points: 2
#     Edge 25, Type (0, 1), BuildingBlock: ZUJKAS_clean_linker_0, # of connection points: 2
#     Edge 26, Type (0, 1), BuildingBlock: ZUJKAS_clean_linker_0, # of connection points: 2
#     Edge 27, Type (0, 1), BuildingBlock: ZUJKAS_clean_linker_0, # of connection points: 2
#     Edge 28, Type (0, 1), BuildingBlock: ZUJKAS_clean_linker_0, # of connection points: 2
#     Edge 29, Type (0, 1), BuildingBlock: ZUJKAS_clean_linker_0, # of connection points: 2
#     Edge 30, Type (0, 1), BuildingBlock: ZUJKAS_clean_linker_0, # of connection points: 2
#     Edge 31, Type (0, 1), BuildingBlock: ZUJKAS_clean_linker_0, # of connection points: 2
#     Edge 32, Type (0, 1), BuildingBlock: ZUJKAS_clean_linker_0, # of connection points: 2
#     Edge 33, Type (0, 1), BuildingBlock: ZUJKAS_clean_linker_0, # of connection points: 2
#     Edge 34, Type (0, 1), BuildingBlock: ZUJKAS_clean_linker_0, # of connection points: 2
#     Edge 35, Type (0, 1), BuildingBlock: ZUJKAS_clean_linker_0, # of connection points: 2
# Relax obj value: 0.147
# Max RMSD: 0.153
# Mean RMSD: 0.113
data_MOF--net-zzz--node1-KUMJIN_clean_sbu_0--node2-BETDAH_clean_linker_0--edge1-ZUJKAS_clean_linker_0
_symmetry_space_group_name_H-M    P1
_symmetry_Int_Tables_number       1
_symmetry_cell_setting            triclinic
loop_
_symmetry_equiv_pos_as_xyz
'x, y, z'
_cell_length_a     65.766119
_cell_length_b     65.809835
_cell_length_c     19.223164
_cell_angle_alpha  91.044116
_cell_angle_beta   89.993217
_cell_angle_gamma 89.855359
loop_
_atom_site_label
_atom_site_type_symbol
_atom_site_fract_x
_atom_site_fract_y
_atom_site_fract_z
_atom_type_partial_charge
H0 H 0.81463 0.53591 0.13449 0.0
H1 H 0.75473 0.53047 0.04693 0.0
H2 H 0.7642 0.52142 0.26653 0.0
C3 C 0.79849 0.53317 0.14113 0.0
C4 C 0.79103 0.52883 0.20737 0.0
C5 C 0.78554 0.53354 0.08308 0.0
C6 C 0.76465 0.53019 0.09189 0.0
C7 C 0.75679 0.52579 0.15813 0.0
C8 C 0.77013 0.52496 0.21558 0.0
N9 N 0.73571 0.52186 0.1685 0.0
C10 C 0.72107 0.52139 0.1158 0.0
H11 H 0.97597 0.8054 0.15606 0.0
H12 H 0.98691 0.74528 0.07474 0.0
H13 H 0.01092 0.7631 0.27568 0.0
C14 C 0.98196 0.79021 0.16343 0.0
C15 C 0.9933 0.78612 0.22337 0.0
C16 C 0.97984 0.77565 0.1098 0.0
C17 C 0.98839 0.75628 0.11702 0.0
C18 C 0.99931 0.75141 0.17737 0.0
C19 C 1.00203 0.76656 0.22994 0.0
N20 N 1.00814 0.73173 0.1855 0.0
C21 C 1.00648 0.71555 0.13726 0.0
H22 H 0.71352 0.99912 0.1544 0.0
H23 H 0.77588 0.99838 0.09012 0.0
H24 H 0.76089 1.00048 0.30899 0.0
C25 C 0.72952 0.99889 0.16816 0.0
C26 C 0.73523 1.00003 0.23838 0.0
C27 C 0.7441 0.99825 0.11507 0.0
C28 C 0.7648 0.99849 0.13179 0.0
C29 C 0.77104 0.99896 0.20187 0.0
C30 C 0.75615 0.99962 0.25504 0.0
N31 N 0.79207 0.99924 0.2201 0.0
C32 C 0.80799 0.99953 0.17183 0.0
H33 H 0.5275 0.73098 0.17933 0.0
H34 H 0.53515 0.79275 0.11745 0.0
H35 H 0.53238 0.77831 0.3354 0.0
C36 C 0.52879 0.74697 0.19326 0.0
C37 C 0.52922 0.75282 0.2637 0.0
C38 C 0.53082 0.76124 0.14042 0.0
C39 C 0.5335 0.78179 0.15839 0.0
C40 C 0.53395 0.78808 0.22891 0.0
C41 C 0.53203 0.77348 0.28123 0.0
N42 N 0.53625 0.80889 0.24874 0.0
C43 C 0.53632 0.82474 0.20164 0.0
H44 H 0.22431 0.51228 0.08728 0.0
H45 H 0.28435 0.50368 0.16971 0.0
H46 H 0.27224 0.49111 0.95236 0.0
C47 C 0.24008 0.50792 0.07957 0.0
C48 C 0.24656 0.50178 0.01308 0.0
C49 C 0.25349 0.50836 0.13635 0.0
C50 C 0.274 0.5032 0.12591 0.0
C51 C 0.28091 0.49695 0.05945 0.0
C52 C 0.26702 0.496 1.00346 0.0
N53 N 0.30162 0.49147 0.04736 0.0
C54 C 0.31696 0.49247 0.09755 0.0
H55 H 0.05503 0.21282 0.08894 0.0
H56 H 0.04358 0.27242 0.1746 0.0
H57 H 0.02376 0.25708 0.96612 0.0
C58 C 0.04948 0.2282 0.08218 0.0
C59 C 0.03962 0.23317 0.02005 0.0
C60 C 0.05071 0.24219 0.138 0.0
C61 C 0.04277 0.26183 0.1309 0.0
C62 C 0.03337 0.26754 0.06848 0.0
C63 C 0.03149 0.25296 0.01363 0.0
N64 N 0.02529 0.28753 0.06015 0.0
C65 C 0.02658 0.30339 0.10972 0.0
H66 H 0.30746 0.05004 0.07359 0.0
H67 H 0.24557 0.04192 0.1364 0.0
H68 H 0.26445 0.02393 0.92903 0.0
C69 C 0.29202 0.04568 0.06037 0.0
C70 C 0.28794 0.03719 0.99433 0.0
C71 C 0.27686 0.04732 0.11149 0.0
C72 C 0.2571 0.04076 0.09628 0.0
C73 C 0.25238 0.03255 0.03012 0.0
C74 C 0.26796 0.03054 0.97963 0.0
N75 N 0.23227 0.02599 0.01358 0.0
C76 C 0.21579 0.02751 0.05947 0.0
H77 H 0.48293 0.31323 0.04076 0.0
H78 H 0.49376 0.25664 0.14179 0.0
H79 H 0.50764 0.2627 0.9236 0.0
C80 C 0.48746 0.29737 0.03734 0.0
C81 C 0.49497 0.28937 0.97443 0.0
C82 C 0.48707 0.28572 0.09752 0.0
C83 C 0.49381 0.26548 0.09482 0.0
C84 C 0.50093 0.25698 0.03135 0.0
C85 C 0.50173 0.26911 0.97187 0.0
N86 N 0.50786 0.23655 0.02536 0.0
C87 C 0.50678 0.22227 0.07775 0.0
Eu88 Eu 0.02993 1.00698 0.68603 0.0
C89 C 0.97187 0.97558 0.47635 0.0
C90 C 0.99385 0.9595 0.39038 0.0
C91 C 0.96128 0.9443 0.41678 0.0
C92 C 0.99 0.97521 0.44005 0.0
C93 C 0.95706 0.9604 0.46345 0.0
C94 C 0.97962 0.94389 0.38015 0.0
C95 C 0.93372 0.97962 0.53525 0.0
N96 N 0.96811 0.99143 0.5207 0.0
C97 C 0.94872 0.99436 0.54538 0.0
C98 C 0.93807 0.96228 0.49548 0.0
Eu99 Eu 0.99504 0.01545 0.53964 0.0
N100 N 1.00366 0.99037 0.45178 0.0
C101 C 0.02071 0.99135 0.41088 0.0
C102 C 0.01179 0.96002 0.35169 0.0
C103 C 0.02512 0.97618 0.36136 0.0
H104 H 0.94455 1.00825 0.57249 0.0
H105 H 0.03882 0.97705 0.33033 0.0
H106 H 0.9825 0.93161 0.34307 0.0
H107 H 0.91868 0.98186 0.55702 0.0
H108 H 0.03113 1.00379 0.41431 0.0
H109 H 0.99797 0.06051 0.88408 0.0
H110 H 0.01527 0.94827 0.31329 0.0
H111 H 0.07908 0.99721 0.65587 0.0
H112 H 0.99669 0.03323 0.79918 0.0
H113 H 0.11272 0.01249 0.67887 0.0
H114 H 0.9502 0.93243 0.40706 0.0
H115 H 0.0301 0.07835 0.9088 0.0
H116 H 0.06718 0.08205 0.88622 0.0
H117 H 0.92634 0.95097 0.48689 0.0
H118 H 0.09825 0.06954 0.82887 0.0
N119 N 0.02842 0.03421 0.77188 0.0
C120 C 0.01126 0.04001 0.80804 0.0
C121 C 0.02985 0.06602 0.87068 0.0
C122 C 0.04749 0.0599 0.8358 0.0
C123 C 0.01173 0.05593 0.85709 0.0
C124 C 0.04639 0.04361 0.78678 0.0
H125 H 0.11538 0.04364 0.75209 0.0
N126 N 0.06272 0.02032 0.71091 0.0
C127 C 0.09914 0.01959 0.69993 0.0
C128 C 0.06395 0.03664 0.7546 0.0
C129 C 0.08007 0.01111 0.68652 0.0
C130 C 0.10056 0.03716 0.7412 0.0
C131 C 0.08293 0.04564 0.77045 0.0
O132 O 0.04934 0.98913 0.75443 0.0
O133 O 0.01151 0.9918 0.60088 0.0
O134 O 0.97541 0.01015 0.6348 0.0
O135 O 0.99769 1.0059 0.72789 0.0
O136 O 0.04195 0.98344 0.60912 0.0
O137 O 0.01777 0.98135 0.74358 0.0
O138 O 0.96898 0.03126 0.4955 0.0
O139 O 0.01446 0.03041 0.62186 0.0
O140 O 0.04972 0.01608 0.59467 0.0
O141 O 0.02701 0.02535 0.5073 0.0
O142 O 0.98619 0.04319 0.60546 0.0
O143 O 0.99851 0.03371 0.44691 0.0
C144 C 0.02499 0.97955 0.57791 0.0
C145 C 0.04107 0.95425 0.74197 0.0
C146 C 0.03039 0.91907 0.72301 0.0
C147 C 0.02697 0.9386 0.75168 0.0
C148 C 0.0483 0.91537 0.68468 0.0
C149 C 0.0591 0.95006 0.70489 0.0
C150 C 0.06259 0.93074 0.67631 0.0
C151 C 0.97919 1.00706 0.70127 0.0
C152 C 0.03564 0.97524 0.76328 0.0
C153 C 0.08385 0.06234 0.81666 0.0
C154 C 0.06618 0.06942 0.8494 0.0
C155 C 1.00289 0.04496 0.64015 0.0
C156 C 0.97679 0.06239 0.4447 0.0
C157 C 0.99169 0.07613 0.46862 0.0
C158 C 0.98896 0.09721 0.4612 0.0
C159 C 0.97058 0.10423 0.43215 0.0
C160 C 0.95865 0.06975 0.41646 0.0
C161 C 0.95552 0.0906 0.41079 0.0
C162 C 0.04572 0.02296 0.53187 0.0
C163 C 0.97982 0.04035 0.44895 0.0
H164 H 0.01324 0.94177 0.78119 0.0
H165 H 0.05123 0.90064 0.66069 0.0
H166 H 0.07024 0.96181 0.69606 0.0
H167 H 0.07631 0.92775 0.6467 0.0
H168 H 1.00546 0.07033 0.49209 0.0
H169 H 0.968 0.12023 0.42346 0.0
H170 H 0.94695 0.05935 0.39845 0.0
H171 H 0.94155 0.09621 0.38829 0.0
Eu172 Eu 0.51964 0.04083 0.70868 0.0
C173 C 0.54218 0.96609 0.53293 0.0
C174 C 0.57003 0.97733 0.46116 0.0
C175 C 0.56946 0.94261 0.5015 0.0
C176 C 0.55181 0.98148 0.49786 0.0
C177 C 0.55047 0.94628 0.53264 0.0
C178 C 0.57923 0.95813 0.46572 0.0
C179 C 0.51909 0.93446 0.58286 0.0
N180 N 0.52364 0.96996 0.56089 0.0
C181 C 0.51148 0.9543 0.58112 0.0
C182 C 0.53889 0.93051 0.56012 0.0
Eu183 Eu 0.51263 1.00429 0.56494 0.0
N184 N 0.54236 0.99984 0.49377 0.0
C185 C 0.54929 0.01375 0.44717 0.0
C186 C 0.5779 0.9922 0.41788 0.0
C187 C 0.56718 0.01024 0.40943 0.0
H188 H 0.49609 0.95729 0.59827 0.0
H189 H 0.57274 0.02156 0.37404 0.0
H190 H 0.5934 0.95484 0.43898 0.0
H191 H 0.50967 0.92225 0.6015 0.0
H192 H 0.54145 0.02776 0.43788 0.0
H193 H 0.53266 0.0229 0.98147 0.0
H194 H 0.59177 0.98957 0.38859 0.0
H195 H 0.47963 0.06582 0.63707 0.0
H196 H 0.54104 0.02562 0.85669 0.0
H197 H 0.44794 0.0821 0.67374 0.0
H198 H 0.57622 0.92758 0.50181 0.0
H199 H 0.49935 0.03513 0.02515 0.0
H200 H 0.46644 0.05298 1.00116 0.0
H201 H 0.54471 0.9151 0.56083 0.0
H202 H 0.44396 0.06998 0.9181 0.0
N203 N 0.51205 0.03734 0.82888 0.0
C204 C 0.52618 0.03031 0.87498 0.0
C205 C 0.50276 0.03584 0.9701 0.0
C206 C 0.48894 0.04437 0.9236 0.0
C207 C 0.52157 0.02895 0.9457 0.0
C208 C 0.49407 0.04483 0.85229 0.0
H209 H 0.43677 0.08059 0.79622 0.0
N210 N 0.48717 0.05484 0.73786 0.0
C211 C 0.45721 0.07433 0.71149 0.0
C212 C 0.48132 0.05408 0.80548 0.0
C213 C 0.47548 0.06508 0.69105 0.0
C214 C 0.45091 0.07337 0.78052 0.0
C215 C 0.46309 0.06336 0.82867 0.0
O216 O 0.52659 0.0727 0.68823 0.0
O217 O 0.53457 0.02519 0.61678 0.0
O218 O 0.52153 0.98648 0.66152 0.0
O219 O 0.51981 1.0094 0.7562 0.0
O220 O 0.55089 0.02577 0.70841 0.0
O221 O 0.54201 0.05754 0.77084 0.0
O222 O 0.4873 0.0162 0.5048 0.0
O223 O 0.49669 0.02372 0.64551 0.0
O224 O 0.51315 0.05831 0.61089 0.0
O225 O 0.51745 0.03539 0.51869 0.0
O226 O 0.48703 0.9938 0.6346 0.0
O227 O 0.49911 0.98655 0.47931 0.0
C228 C 0.5512 0.01996 0.64409 0.0
C229 C 0.56157 0.0796 0.70189 0.0
C230 C 0.59805 0.07369 0.68757 0.0
C231 C 0.57949 0.06934 0.72005 0.0
C232 C 0.59869 0.08901 0.63765 0.0
C233 C 0.56252 0.09496 0.65226 0.0
C234 C 0.58101 0.09964 0.62051 0.0
C235 C 0.52203 0.99088 0.72914 0.0
C236 C 0.54182 0.0733 0.73115 0.0
C237 C 0.45786 0.06287 0.8994 0.0
C238 C 0.47062 0.05316 0.94666 0.0
C239 C 0.48412 0.01075 0.66776 0.0
C240 C 0.46333 0.991 0.47269 0.0
C241 C 0.44682 1.00374 0.49009 0.0
C242 C 0.42665 0.99658 0.4873 0.0
C243 C 0.4235 0.97589 0.46993 0.0
C244 C 0.45968 0.97051 0.45571 0.0
C245 C 0.43989 0.963 0.45524 0.0
C246 C 0.51469 0.05402 0.5438 0.0
C247 C 0.48422 0.99926 0.47091 0.0
H248 H 0.57902 0.05778 0.75942 0.0
H249 H 0.61275 0.09256 0.61122 0.0
H250 H 0.54893 0.10313 0.63731 0.0
H251 H 0.58158 0.11137 0.58182 0.0
H252 H 0.4498 0.01939 0.50462 0.0
H253 H 0.40838 0.96962 0.46479 0.0
H254 H 0.47209 0.96031 0.44228 0.0
H255 H 0.43718 0.94721 0.4415 0.0
Eu256 Eu 0.53479 0.51072 0.52924 0.0
C257 C 0.45679 0.50936 0.69878 0.0
C258 C 0.43502 0.52833 0.62199 0.0
C259 C 0.42038 0.50287 0.6968 0.0
C260 C 0.45452 0.52379 0.6484 0.0
C261 C 0.4397 0.49893 0.72449 0.0
C262 C 0.41802 0.51765 0.64597 0.0
C263 C 0.46169 0.48323 0.80852 0.0
N264 N 0.47556 0.50636 0.72561 0.0
C265 C 0.47804 0.49419 0.782 0.0
C266 C 0.44245 0.48542 0.77905 0.0
Eu267 Eu 0.50309 0.52489 0.67756 0.0
N268 N 0.47125 0.53398 0.62722 0.0
C269 C 0.46934 0.54941 0.58091 0.0
C270 C 0.43313 0.54381 0.57358 0.0
C271 C 0.45035 0.55448 0.55334 0.0
H272 H 0.49283 0.49275 0.80598 0.0
H273 H 0.44906 0.56655 0.51608 0.0
H274 H 0.40293 0.52099 0.62667 0.0
H275 H 0.46391 0.47327 0.85205 0.0
H276 H 0.48237 0.55769 0.5634 0.0
H277 H 0.56066 0.43351 0.46811 0.0
H278 H 0.41844 0.54781 0.55221 0.0
H279 H 0.56454 0.55302 0.56737 0.0
H280 H 0.5365 0.46227 0.47331 0.0
H281 H 0.59983 0.56097 0.58985 0.0
H282 H 0.40709 0.49499 0.71573 0.0
H283 H 0.59612 0.43838 0.50773 0.0
H284 H 0.62328 0.46205 0.55069 0.0
H285 H 0.42973 0.4771 0.80015 0.0
H286 H 0.63398 0.4968 0.58142 0.0
N287 N 0.55769 0.48289 0.51884 0.0
C288 C 0.5519 0.46447 0.4913 0.0
C289 C 0.5855 0.45098 0.5107 0.0
C290 C 0.59174 0.47023 0.53413 0.0
C291 C 0.56554 0.44817 0.48817 0.0
C292 C 0.5773 0.48617 0.5372 0.0
H293 H 0.62559 0.53376 0.59193 0.0
N294 N 0.56908 0.52086 0.55473 0.0
C295 C 0.59538 0.54534 0.58021 0.0
C296 C 0.58324 0.50574 0.55485 0.0
C297 C 0.57506 0.54058 0.56659 0.0
C298 C 0.60984 0.52993 0.58205 0.0
C299 C 0.60391 0.50985 0.56958 0.0
O300 O 0.52476 0.52839 0.44016 0.0
O301 O 0.50296 0.51773 0.56379 0.0
O302 O 0.50477 0.49032 0.67634 0.0
O303 O 0.52889 0.4818 0.59082 0.0
O304 O 0.50739 0.49094 0.50747 0.0
O305 O 0.54428 0.50267 0.42286 0.0
O306 O 0.50309 0.53055 0.78989 0.0
O307 O 0.5353 0.52273 0.63804 0.0
O308 O 0.53265 0.54501 0.52994 0.0
O309 O 0.5131 0.55405 0.62692 0.0
O310 O 0.52915 0.50988 0.73361 0.0
O311 O 0.50146 0.55583 0.72114 0.0
C312 C 0.49389 0.50263 0.53603 0.0
C313 C 0.51682 0.50734 0.34469 0.0
C314 C 0.4949 0.47939 0.30584 0.0
C315 C 0.51116 0.48678 0.34626 0.0
C316 C 0.4844 0.49287 0.2627 0.0
C317 C 0.50622 0.52053 0.30106 0.0
C318 C 0.49012 0.51329 0.2602 0.0
C319 C 0.51643 0.47703 0.64232 0.0
C320 C 0.53193 0.51555 0.39448 0.0
C321 C 0.61813 0.49391 0.56955 0.0
C322 C 0.61205 0.47413 0.55212 0.0
C323 C 0.54313 0.51345 0.68866 0.0
C324 C 0.52302 0.55937 0.81868 0.0
C325 C 0.52668 0.58028 0.81223 0.0
C326 C 0.54432 0.58915 0.84064 0.0
C327 C 0.55837 0.57685 0.87555 0.0
C328 C 0.53721 0.54739 0.85455 0.0
C329 C 0.55477 0.55612 0.88251 0.0
C330 C 0.52379 0.55866 0.57122 0.0
C331 C 0.50514 0.55005 0.78419 0.0
H332 H 0.51896 0.47658 0.38074 0.0
H333 H 0.47197 0.48757 0.23024 0.0
H334 H 0.5101 0.53652 0.29986 0.0
H335 H 0.48193 0.52357 0.22694 0.0
H336 H 0.51567 0.58966 0.78567 0.0
H337 H 0.57216 0.58327 0.89743 0.0
H338 H 0.53496 0.53122 0.86023 0.0
H339 H 0.5657 0.54674 0.9093 0.0
Eu340 Eu 0.02165 0.52828 0.56646 0.0
C341 C 0.0317 0.44553 0.71718 0.0
C342 C 0.01358 0.42003 0.64949 0.0
C343 C 0.04241 0.41014 0.72038 0.0
C344 C 0.01658 0.44051 0.67004 0.0
C345 C 0.04459 0.43036 0.7438 0.0
C346 C 0.02686 0.40497 0.6736 0.0
C347 C 0.0593 0.45581 0.82057 0.0
N348 N 0.03304 0.46507 0.74023 0.0
C349 C 0.04598 0.47023 0.79342 0.0
C350 C 0.05878 0.43582 0.79504 0.0
Eu351 Eu 0.01006 0.48875 0.69184 0.0
N352 N 1.00397 0.4554 0.64776 0.0
C353 C 0.98739 0.45061 0.60796 0.0
C354 C 0.99689 0.4152 0.60729 0.0
C355 C 0.98374 0.43056 0.58652 0.0
H356 H 0.04642 0.48568 0.81334 0.0
H357 H 0.9707 0.42696 0.55429 0.0
H358 H 0.02494 0.38922 0.65764 0.0
H359 H 0.06991 0.46011 0.86125 0.0
H360 H 0.97692 0.46216 0.59177 0.0
H361 H 0.05908 0.59178 0.69946 0.0
H362 H 0.99385 0.39962 0.59136 0.0
H363 H 0.98634 0.52976 0.44046 0.0
H364 H 0.05405 0.5563 0.66343 0.0
H365 H 0.96256 0.55443 0.38914 0.0
H366 H 0.05225 0.3983 0.73982 0.0
H367 H 0.03426 0.61809 0.6648 0.0
H368 H 1.00337 0.62729 0.59525 0.0
H369 H 0.06898 0.42462 0.81661 0.0
H370 H 0.97715 0.61711 0.51032 0.0
N371 N 0.02657 0.56193 0.60855 0.0
C372 C 0.04306 0.56742 0.64762 0.0
C373 C 0.03199 0.60242 0.64844 0.0
C374 C 0.01574 0.59692 0.60515 0.0
C375 C 0.04596 0.58764 0.6684 0.0
C376 C 0.01364 0.57633 0.5847 0.0
H377 H 0.96204 0.59007 0.43235 0.0
N378 N 0.99865 0.55106 0.51351 0.0
C379 C 0.97273 0.5592 0.43054 0.0
C380 C 0.99913 0.57069 0.53611 0.0
C381 C 0.98624 0.54529 0.45962 0.0
C382 C 0.97242 0.57928 0.45529 0.0
C383 C 0.98598 0.58535 0.50778 0.0
O384 O 0.03154 0.53361 0.45966 0.0
O385 O 0.0203 0.49484 0.58392 0.0
O386 O 0.04381 0.48746 0.66722 0.0
O387 O 0.0486 0.52116 0.63813 0.0
O388 O 0.01111 0.50408 0.48752 0.0
O389 O 0.05378 0.53141 0.5424 0.0
O390 O 1.00293 0.48707 0.80226 0.0
O391 O 0.01083 0.52236 0.67397 0.0
O392 O 0.98786 0.5298 0.59036 0.0
O393 O 0.98232 0.49658 0.62447 0.0
O394 O 0.02129 0.51302 0.76906 0.0
O395 O 0.97932 0.48139 0.72537 0.0
C396 C 0.01366 0.48848 0.52598 0.0
C397 C 0.0607 0.55501 0.45628 0.0
C398 C 0.09233 0.57388 0.44474 0.0
C399 C 0.08191 0.5561 0.462 0.0
C400 C 0.08128 0.59073 0.42143 0.0
C401 C 0.04977 0.57207 0.43391 0.0
C402 C 0.06008 0.58983 0.41656 0.0
C403 C 0.05568 0.50348 0.66006 0.0
C404 C 0.05046 0.53632 0.47811 0.0
C405 C 0.98722 0.60566 0.53105 0.0
C406 C 1.00213 0.61145 0.57949 0.0
C407 C 0.01767 0.52867 0.73182 0.0
C408 C 0.96973 0.49687 0.83301 0.0
C409 C 0.95697 0.51147 0.80262 0.0
C410 C 0.94302 0.52267 0.84381 0.0
C411 C 0.9427 0.51937 0.91625 0.0
C412 C 0.96921 0.49412 0.90502 0.0
C413 C 0.95585 0.50543 0.94641 0.0
C414 C 0.97568 0.51411 0.59989 0.0
C415 C 0.98361 0.48412 0.7912 0.0
H416 H 0.09037 0.54292 0.47915 0.0
H417 H 0.08904 0.60455 0.40728 0.0
H418 H 0.03335 0.57175 0.43016 0.0
H419 H 0.05162 0.60292 0.39919 0.0
H420 H 0.95778 0.51384 0.74712 0.0
H421 H 0.93181 0.52696 0.95 0.0
H422 H 0.97903 0.48304 0.92918 0.0
H423 H 0.95534 0.50304 1.00195 0.0
H424 H 0.21267 0.01156 0.18767 0.0
H425 H 0.18312 0.01328 0.26605 0.0
H426 H 0.15062 0.04876 0.11559 0.0
H427 H 0.18006 0.04672 0.03692 0.0
H428 H 0.16354 0.04632 0.32636 0.0
H429 H 0.11001 1.00397 0.15435 0.0
H430 H 0.13706 1.00439 0.13866 0.0
H431 H 0.12148 0.02566 0.11501 0.0
C432 C 0.19916 0.01965 0.17148 0.0
C433 C 0.19849 0.0289 0.10635 0.0
C434 C 0.1823 0.02066 0.21623 0.0
C435 C 0.16443 0.03086 0.19646 0.0
C436 C 0.16398 0.0404 0.13156 0.0
H437 H 0.04629 0.04472 0.41041 0.0
H438 H 0.07482 0.04862 0.32922 0.0
C439 C 0.18084 0.03936 0.08682 0.0
C440 C 0.14646 0.03169 0.2442 0.0
H441 H 0.09633 0.01839 0.25783 0.0
C442 C 0.14885 0.04021 0.31127 0.0
C443 C 0.12719 0.02384 0.22467 0.0
C444 C 0.12374 0.01378 0.15451 0.0
C445 C 0.13262 0.0411 0.35906 0.0
C446 C 0.11346 0.03292 0.34 0.0
C447 C 0.11095 0.02474 0.27251 0.0
C448 C 0.09626 0.03155 0.39061 0.0
C449 C 0.13613 0.051 0.42944 0.0
C450 C 0.09866 0.02056 0.45194 0.0
C451 C 0.08244 0.01832 0.49822 0.0
C452 C 0.06327 0.02695 0.48465 0.0
C453 C 0.06085 0.038 0.42307 0.0
C454 C 0.07715 0.04022 0.37649 0.0
H455 H 0.149 0.06189 0.42819 0.0
H456 H 0.12233 0.05918 0.44811 0.0
H457 H 0.13996 0.03911 0.46752 0.0
H458 H 0.11299 0.01318 0.46324 0.0
H459 H 0.08483 1.00912 0.54335 0.0
H460 H 0.50361 0.18263 0.04517 0.0
H461 H 0.5043 0.15405 0.12549 0.0
H462 H 0.51047 0.19613 0.29894 0.0
H463 H 0.50959 0.22477 0.21832 0.0
H464 H 0.53558 0.1439 0.2182 0.0
H465 H 0.4632 0.15951 0.35844 0.0
H466 H 0.46932 0.17107 0.2766 0.0
H467 H 0.48053 0.18054 0.35597 0.0
C468 C 0.50492 0.18571 0.10057 0.0
C469 C 0.50641 0.20573 0.12608 0.0
C470 C 0.50537 0.16943 0.14629 0.0
C471 C 0.5072 0.17295 0.21828 0.0
C472 C 0.50867 0.19307 0.24375 0.0
H473 H 0.51428 0.09477 0.57548 0.0
H474 H 0.51313 0.12306 0.4956 0.0
C475 C 0.50825 0.20938 0.19786 0.0
C476 C 0.50823 0.1555 0.26613 0.0
H477 H 0.48402 0.13328 0.40223 0.0
C478 C 0.52428 0.14152 0.25832 0.0
C479 C 0.4935 0.15245 0.31849 0.0
C480 C 0.47555 0.16656 0.32776 0.0
C481 C 0.5262 0.12477 0.30222 0.0
C482 C 0.5114 0.12165 0.35442 0.0
C483 C 0.49535 0.13565 0.36218 0.0
C484 C 0.51243 0.10418 0.40235 0.0
C485 C 0.54435 0.11089 0.29339 0.0
C486 C 0.51226 0.08405 0.37669 0.0
C487 C 0.51311 0.06772 0.42239 0.0
C488 C 0.51392 0.07121 0.49478 0.0
C489 C 0.5138 0.09142 0.52019 0.0
C490 C 0.51308 0.10768 0.47452 0.0
H491 H 0.5569 0.11837 0.2649 0.0
H492 H 0.5502 0.10593 0.34456 0.0
H493 H 0.53978 0.09717 0.26288 0.0
H494 H 0.51124 0.08094 0.3213 0.0
H495 H 0.5129 0.0524 0.40093 0.0
H496 H 0.32518 0.52211 0.19286 0.0
H497 H 0.35468 0.52396 0.27151 0.0
H498 H 0.37595 0.46613 0.19065 0.0
H499 H 0.34665 0.46448 0.11147 0.0
H500 H 0.36753 0.49852 0.37547 0.0
H501 H 0.42589 0.50176 0.16768 0.0
H502 H 0.39915 0.50532 0.15057 0.0
H503 H 0.40936 0.48016 0.16039 0.0
C504 C 0.3362 0.50983 0.19215 0.0
C505 C 0.33381 0.4932 0.14624 0.0
C506 C 0.35302 0.51087 0.23701 0.0
C507 C 0.36779 0.49535 0.23632 0.0
C508 C 0.36507 0.47851 0.19121 0.0
H509 H 0.46268 0.47596 0.54998 0.0
H510 H 0.43147 0.47411 0.47972 0.0
C511 C 0.34827 0.47749 0.14637 0.0
C512 C 0.38592 0.49676 0.28296 0.0
H513 H 0.43791 0.49811 0.28293 0.0
C514 C 0.38292 0.4984 0.35522 0.0
C515 C 0.40605 0.49688 0.25666 0.0
C516 C 0.41038 0.49613 0.17957 0.0
C517 C 0.39942 0.49996 0.40171 0.0
C518 C 0.41956 0.49963 0.37554 0.0
C519 C 0.42253 0.49817 0.30323 0.0
C520 C 0.43776 0.50131 0.42181 0.0
C521 C 0.39515 0.50266 0.4783 0.0
C522 C 0.4519 0.517 0.41231 0.0
C523 C 0.46965 0.51803 0.45244 0.0
C524 C 0.47358 0.50352 0.5034 0.0
C525 C 0.45957 0.48775 0.51282 0.0
C526 C 0.44176 0.48672 0.47269 0.0
H527 H 0.37913 0.50719 0.48851 0.0
H528 H 0.39809 0.48816 0.50509 0.0
H529 H 0.40532 0.51441 0.50106 0.0
H530 H 0.44937 0.52828 0.37289 0.0
H531 H 0.48062 0.52986 0.44221 0.0
H532 H 1.00457 0.30931 0.22788 0.0
H533 H 1.00391 0.3399 0.30349 0.0
H534 H 0.04926 0.36762 0.17412 0.0
H535 H 0.04967 0.33716 0.09818 0.0
H536 H 0.0337 0.35972 0.38137 0.0
H537 H 1.00478 0.41057 0.17687 0.0
H538 H 1.00495 0.38328 0.16642 0.0
H539 H 0.02792 0.39755 0.15414 0.0
C540 C 0.01444 0.32193 0.21594 0.0
C541 C 0.02713 0.32094 0.15722 0.0
C542 C 0.01408 0.33942 0.25914 0.0
C543 C 0.02628 0.35634 0.24418 0.0
C544 C 0.03936 0.35505 0.18625 0.0
H545 H 0.04391 0.45992 0.54301 0.0
H546 H 0.0483 0.42785 0.47748 0.0
C547 C 0.03971 0.33757 0.1431 0.0
C548 C 0.02513 0.37533 0.2886 0.0
H549 H 0.0143 0.42614 0.28346 0.0
C550 C 0.02935 0.37425 0.3601 0.0
C551 C 0.01944 0.39436 0.26124 0.0
C552 C 0.01383 0.39657 0.18562 0.0
C553 C 0.028 0.39149 0.40483 0.0
C554 C 0.02239 0.41067 0.37751 0.0
C555 C 0.01841 0.41165 0.30554 0.0
C556 C 0.01971 0.42979 0.42157 0.0
C557 C 0.03224 0.38858 0.48099 0.0
C558 C 1.00251 0.44225 0.41179 0.0
C559 C 1.00044 0.46095 0.44729 0.0
C560 C 0.01509 0.46753 0.49573 0.0
C561 C 0.03208 0.45501 0.50734 0.0
C562 C 0.03451 0.43652 0.46994 0.0
H563 H 0.02896 0.37277 0.49686 0.0
H564 H 0.04858 0.39152 0.49129 0.0
H565 H 0.02311 0.39907 0.51373 0.0
H566 H 0.99072 0.43769 0.37545 0.0
H567 H 0.98731 0.47037 0.43666 0.0
H568 H 0.82664 0.96732 0.10968 0.0
H569 H 0.85606 0.968 0.03066 0.0
H570 H 0.85672 0.03348 0.04545 0.0
H571 H 0.82751 0.03272 0.12514 0.0
H572 H 0.86101 0.98531 0.90297 0.0
H573 H 0.91539 0.01948 0.09136 0.0
H574 H 0.89113 1.00939 0.11753 0.0
H575 H 0.89267 0.03427 0.08066 0.0
C576 C 0.83314 0.98182 0.09596 0.0
C577 C 0.82498 0.99996 0.12349 0.0
C578 C 0.84992 0.98222 0.05084 0.0
C579 C 0.85891 1.00078 0.03283 0.0
C580 C 0.85043 0.01895 0.05963 0.0
H581 H 0.94053 0.02194 0.68404 0.0
H582 H 0.91165 0.01962 0.76324 0.0
C583 C 0.83365 0.01853 0.10475 0.0
C584 C 0.87694 1.00112 0.98534 0.0
H585 H 0.92624 0.01728 0.97339 0.0
C586 C 0.87528 0.99225 0.91851 0.0
C587 C 0.89574 0.00988 0.0057 0.0
C588 C 0.89898 0.01862 0.07794 0.0
C589 C 0.89166 0.99228 0.87124 0.0
C590 C 0.91021 1.00173 0.89067 0.0
C591 C 0.91201 0.01021 0.95802 0.0
C592 C 0.92789 1.00299 0.84195 0.0
C593 C 0.88902 0.98187 0.80125 0.0
C594 C 0.94696 0.99496 0.8602 0.0
C595 C 0.96358 0.99624 0.81466 0.0
C596 C 0.96154 1.00559 0.74972 0.0
C597 C 0.94253 0.01396 0.73226 0.0
C598 C 0.92595 0.01271 0.7778 0.0
H599 H 0.8765 0.97057 0.80198 0.0
H600 H 0.88517 0.99339 0.76193 0.0
H601 H 0.90322 0.97402 0.78455 0.0
H602 H 0.94895 0.98754 0.90957 0.0
H603 H 0.978 0.98975 0.83016 0.0
H604 H 0.51498 0.82648 0.08218 0.0
H605 H 0.51375 0.8549 1.00102 0.0
H606 H 0.55522 0.88876 0.13253 0.0
H607 H 0.55662 0.86021 0.21311 0.0
H608 H 0.50108 0.89462 0.02833 0.0
H609 H 0.58152 0.89326 0.94078 0.0
H610 H 0.57006 0.87239 0.98605 0.0
H611 H 0.57831 0.89466 0.03352 0.0
C612 C 0.52393 0.83997 0.09319 0.0
C613 C 0.53597 0.84128 0.15323 0.0
C614 C 0.52321 0.85617 0.04703 0.0
C615 C 0.53462 0.87386 0.06012 0.0
C616 C 0.54664 0.87512 0.12053 0.0
H617 H 0.54499 0.98957 0.84754 0.0
H618 H 0.54783 0.96152 0.92938 0.0
C619 C 0.54734 0.8589 0.16666 0.0
C620 C 0.5333 0.89126 0.01198 0.0
H621 H 0.56145 0.92124 0.90528 0.0
C622 C 0.51427 0.90039 1.00121 0.0
C623 C 0.55054 0.89885 0.97686 0.0
C624 C 0.57124 0.8892 0.98424 0.0
C625 C 0.51202 0.91701 0.95698 0.0
C626 C 0.52922 0.92451 0.9215 0.0
C627 C 0.54829 0.91549 0.93256 0.0
C628 C 0.52763 0.94149 0.87179 0.0
C629 C 0.4913 0.92665 0.94966 0.0
C630 C 0.51552 0.9395 0.81192 0.0
C631 C 0.51378 0.95555 0.76562 0.0
C632 C 0.52427 0.97384 0.77773 0.0
C633 C 0.53654 0.97576 0.8373 0.0
C634 C 0.53829 0.95969 0.88375 0.0
H635 H 0.48115 0.92284 0.99373 0.0
H636 H 0.49248 0.94344 0.94674 0.0
H637 H 0.48408 0.92092 0.90098 0.0
H638 H 0.50735 0.92553 0.80108 0.0
H639 H 0.50378 0.95381 0.72136 0.0
H640 H 0.70474 0.55262 0.04479 0.0
H641 H 0.67577 0.55107 0.96379 0.0
H642 H 0.67203 0.48627 0.9911 0.0
H643 H 0.70076 0.48791 0.07266 0.0
H644 H 0.67012 0.52976 0.83867 0.0
H645 H 0.61421 0.5047 0.03516 0.0
H646 H 0.63894 0.51445 0.05873 0.0
H647 H 0.63622 0.48861 0.02815 0.0
C648 C 0.69771 0.53808 0.03312 0.0
C649 C 0.70482 0.52039 0.0648 0.0
C650 C 0.68119 0.53718 0.98693 0.0
C651 C 0.67143 0.5186 0.97213 0.0
C652 C 0.67897 0.50084 1.00272 0.0
H653 H 0.56738 0.48153 0.71938 0.0
H654 H 0.59992 0.48272 0.7823 0.0
C655 C 0.69546 0.50175 0.04887 0.0
C656 C 0.65339 0.51779 0.92494 0.0
H657 H 0.60319 0.50433 0.91757 0.0
C658 C 0.65546 0.52432 0.85608 0.0
C659 C 0.63421 0.51065 0.94745 0.0
C660 C 0.63063 0.50438 0.02156 0.0
C661 C 0.63903 0.52357 0.80907 0.0
C662 C 0.61995 0.51626 0.83143 0.0
C663 C 0.61786 0.50979 0.90025 0.0
C664 C 0.60181 0.51553 0.78493 0.0
C665 C 0.64229 0.52988 0.73503 0.0
C666 C 0.59215 0.53356 0.76466 0.0
C667 C 0.57363 0.53286 0.72852 0.0
C668 C 0.56458 0.51414 0.71111 0.0
C669 C 0.57441 0.49612 0.73021 0.0
C670 C 0.5929 0.49681 0.7665 0.0
H671 H 0.65849 0.53329 0.72388 0.0
H672 H 0.63715 0.51753 0.69914 0.0
H673 H 0.63308 0.54362 0.72434 0.0
H674 H 0.59841 0.54819 0.77976 0.0
H675 H 0.56587 0.54696 0.71722 0.0
H676 H 0.01602 0.71387 0.9998 0.0
H677 H 0.01613 0.68362 0.92254 0.0
H678 H 0.99581 0.64701 0.0928 0.0
H679 H 0.99548 0.67728 0.16947 0.0
H680 H 0.03839 0.64918 0.93177 0.0
H681 H 0.95696 0.62861 0.94108 0.0
H682 H 0.96627 0.65293 0.97192 0.0
H683 H 0.96821 0.63094 0.02588 0.0
C684 C 0.01136 0.69937 0.02029 0.0
C685 C 1.00561 0.69789 0.09035 0.0
C686 C 0.01144 0.68207 0.97621 0.0
C687 C 1.00565 0.66293 1.00114 0.0
C688 C 0.99985 0.66156 0.07142 0.0
H689 H 0.04153 0.54447 0.83357 0.0
H690 H 0.03849 0.57724 0.89444 0.0
C691 C 0.99979 0.67886 0.11544 0.0
C692 C 1.00681 0.64428 0.95498 0.0
H693 H 0.97954 0.6033 0.89445 0.0
C694 C 0.02545 0.63926 0.92326 0.0
C695 C 0.98993 0.63132 0.94265 0.0
C696 C 0.96916 0.63629 0.97157 0.0
C697 C 0.02786 0.62155 0.88165 0.0
C698 C 0.01124 0.60803 0.87185 0.0
C699 C 0.99241 0.61339 0.90189 0.0
C700 C 0.01324 0.58805 0.83289 0.0
C701 C 0.04825 0.61774 0.84807 0.0
C702 C 0.99962 0.58251 0.7791 0.0
C703 C 1.00119 0.56347 0.74466 0.0
C704 C 0.01655 0.5496 0.76276 0.0
C705 C 0.02988 0.55501 0.81714 0.0
C706 C 0.02824 0.5739 0.85172 0.0
H707 H 0.05664 0.63216 0.84026 0.0
H708 H 0.05762 0.60809 0.88236 0.0
H709 H 0.04655 0.6099 0.79707 0.0
H710 H 0.98772 0.59291 0.76379 0.0
H711 H 0.99026 0.55949 0.7046 0.0
H712 H 0.08703 0.22457 0.17148 0.0
H713 H 0.09303 0.20286 0.27189 0.0
H714 H 0.03441 0.22005 0.35517 0.0
H715 H 0.02893 0.24247 0.2573 0.0
H716 H 0.06118 0.20784 0.45932 0.0
H717 H 0.05974 0.15243 0.23561 0.0
H718 H 0.08052 0.17 0.23922 0.0
H719 H 0.05512 0.17907 0.22351 0.0
C720 C 0.07591 0.22438 0.21304 0.0
C721 C 0.05739 0.23484 0.20646 0.0
C722 C 0.07929 0.21194 0.27015 0.0
C723 C 0.06384 0.20929 0.3196 0.0
C724 C 0.0465 0.22175 0.31741 0.0
H725 H 0.98625 0.13685 0.5085 0.0
H726 H 0.01222 0.16266 0.49828 0.0
C727 C 0.04333 0.23453 0.26131 0.0
C728 C 0.06312 0.19084 0.36261 0.0
H729 H 0.05242 0.14045 0.34411 0.0
C730 C 0.05982 0.19295 0.43464 0.0
C731 C 0.06152 0.17135 0.33052 0.0
C732 C 0.06428 0.16796 0.25303 0.0
C733 C 0.05327 0.17642 0.47416 0.0
C734 C 0.04966 0.1575 0.44038 0.0
C735 C 0.05512 0.15495 0.37017 0.0
C736 C 0.03642 0.14163 0.47032 0.0
C737 C 0.04941 0.17967 0.55087 0.0
C738 C 0.04135 0.12099 0.46072 0.0
C739 C 0.02618 0.10619 0.46317 0.0
C740 C 1.00582 0.11174 0.47645 0.0
C741 C 1.00155 0.13208 0.49513 0.0
C742 C 0.01662 0.14689 0.49126 0.0
H743 H 0.06098 0.19006 0.57387 0.0
H744 H 0.03433 0.18701 0.55835 0.0
H745 H 0.04964 0.16514 0.57941 0.0
H746 H 0.05653 0.11652 0.44458 0.0
H747 H 0.03025 0.09076 0.44853 0.0
H748 H 0.2712 0.0265 0.2306 0.0
H749 H 0.29121 0.03071 0.33674 0.0
H750 H 0.31626 0.08638 0.25884 0.0
H751 H 0.29657 0.08192 0.15178 0.0
H752 H 0.34302 0.05506 0.26336 0.0
H753 H 0.3042 0.06171 0.51798 0.0
H754 H 0.29273 0.04318 0.46074 0.0
H755 H 0.29247 0.06955 0.43763 0.0
C756 C 0.28017 0.04017 0.23774 0.0
C757 C 0.28271 0.0537 0.18281 0.0
C758 C 0.2915 0.04267 0.29879 0.0
C759 C 0.30529 0.05884 0.30571 0.0
C760 C 0.30565 0.07384 0.25467 0.0
H761 H 0.4256 0.03807 0.46309 0.0
H762 H 0.3959 0.05879 0.44508 0.0
C763 C 0.29453 0.07122 0.19337 0.0
C764 C 0.32308 0.05652 0.35208 0.0
H765 H 0.33747 0.04553 0.51796 0.0
C766 C 0.34193 0.05358 0.31937 0.0
C767 C 0.32148 0.0541 0.42475 0.0
C768 C 0.30164 0.05748 0.46246 0.0
C769 C 0.35894 0.04701 0.35613 0.0
C770 C 0.35737 0.04416 0.42888 0.0
C771 C 0.33871 0.04795 0.46247 0.0
C772 C 0.37444 0.03501 0.46777 0.0
C773 C 0.37792 0.04165 0.31515 0.0
C774 C 0.37221 0.01563 0.4958 0.0
C775 C 0.38936 1.00383 0.51004 0.0
C776 C 0.409 0.01096 0.49401 0.0
C777 C 0.41102 0.03151 0.47539 0.0
C778 C 0.39389 0.04353 0.46418 0.0
H779 H 0.37489 0.04021 0.25841 0.0
H780 H 0.3894 0.05381 0.32279 0.0
H781 H 0.38456 0.02708 0.33265 0.0
H782 H 0.35726 1.00893 0.501 0.0
H783 H 0.38704 0.98862 0.52884 0.0
H784 H 0.51286 0.29995 0.19576 0.0
H785 H 0.50622 0.32964 0.26997 0.0
H786 H 0.44249 0.32651 0.21737 0.0
H787 H 0.44942 0.2972 0.14071 0.0
H788 H 0.45807 0.36012 0.17481 0.0
H789 H 0.48288 0.35216 0.44634 0.0
H790 H 0.50243 0.34294 0.38905 0.0
H791 H 0.4781 0.33034 0.3903 0.0
C792 C 0.49727 0.30487 0.20346 0.0
C793 C 0.48162 0.2963 0.16314 0.0
C794 C 0.49343 0.32191 0.24599 0.0
C795 C 0.47381 0.33041 0.24949 0.0
C796 C 0.45773 0.32024 0.21568 0.0
H797 H 0.45663 0.46293 0.31196 0.0
H798 H 0.44758 0.42676 0.31095 0.0
C799 C 0.46164 0.30338 0.17238 0.0
C800 C 0.47126 0.35191 0.27311 0.0
H801 H 0.48669 0.38625 0.39747 0.0
C802 C 0.46373 0.36576 0.2245 0.0
C803 C 0.47874 0.35937 0.33767 0.0
C804 C 0.48578 0.34533 0.39396 0.0
C805 C 0.46495 0.3868 0.23624 0.0
C806 C 0.47371 0.39425 0.29876 0.0
C807 C 0.48007 0.38048 0.34938 0.0
C808 C 0.47872 0.41607 0.30805 0.0
C809 C 0.45822 0.40087 0.17942 0.0
C810 C 0.49919 0.42199 0.30858 0.0
C811 C 0.50437 0.44252 0.30873 0.0
C812 C 0.48918 0.4576 0.30855 0.0
C813 C 0.46865 0.45166 0.31053 0.0
C814 C 0.46347 0.43103 0.31046 0.0
H815 H 0.4546 0.39255 0.13019 0.0
H816 H 0.44437 0.40924 0.19656 0.0
H817 H 0.47022 0.41223 0.16865 0.0
H818 H 0.51118 0.41067 0.30633 0.0
H819 H 0.52031 0.44658 0.30681 0.0
H820 H 0.26944 0.53578 0.23098 0.0
H821 H 0.25239 0.54973 0.33518 0.0
H822 H 0.20207 0.50888 0.29858 0.0
H823 H 0.21936 0.49443 0.19801 0.0
H824 H 0.22005 0.57068 0.33329 0.0
H825 H 0.2017 0.50775 0.50223 0.0
H826 H 0.22098 0.50512 0.43571 0.0
H827 H 0.19468 0.49921 0.41681 0.0
C828 C 0.25509 0.52932 0.24707 0.0
C829 C 0.24555 0.51423 0.20604 0.0
C830 C 0.24533 0.53732 0.30641 0.0
C831 C 0.226 0.53024 0.32563 0.0
C832 C 0.21719 0.51427 0.28673 0.0
H833 H 0.11791 0.58355 0.34017 0.0
H834 H 0.15437 0.57761 0.33482 0.0
C835 C 0.22694 0.50623 0.22821 0.0
C836 C 0.21319 0.54149 0.37715 0.0
H837 H 0.17271 0.53228 0.4821 0.0
C838 C 0.21016 0.56241 0.36787 0.0
C839 C 0.20078 0.53123 0.42522 0.0
C840 C 0.20497 0.50963 0.44601 0.0
C841 C 0.19325 0.57244 0.39697 0.0
C842 C 0.17862 0.56104 0.43348 0.0
C843 C 0.18336 0.54098 0.45162 0.0
C844 C 0.15725 0.56815 0.442 0.0
C845 C 0.19081 0.59491 0.38517 0.0
C846 C 0.1464 0.56458 0.50359 0.0
C847 C 0.12532 0.5674 0.50581 0.0
C848 C 0.11479 0.57408 0.4468 0.0
C849 C 0.12574 0.57874 0.38668 0.0
C850 C 0.14669 0.57553 0.38396 0.0
H851 H 0.20577 0.60264 0.38945 0.0
H852 H 0.18512 0.59733 0.3316 0.0
H853 H 0.18014 0.6021 0.42306 0.0
H854 H 0.15409 0.55877 0.54895 0.0
H855 H 0.11714 0.5637 0.55283 0.0
H856 H 0.99988 0.77535 0.98755 0.0
H857 H 0.99216 0.79662 0.88878 0.0
H858 H 0.93389 0.81195 0.97924 0.0
H859 H 0.94235 0.79162 0.08116 0.0
H860 H 0.96574 0.80521 0.78856 0.0
H861 H 0.96118 0.86546 0.99687 0.0
H862 H 0.96774 0.83969 0.01696 0.0
H863 H 0.94187 0.84631 0.99635 0.0
C864 C 0.98513 0.78268 0.98519 0.0
C865 C 0.97186 0.78224 0.04217 0.0
C866 C 0.98067 0.79485 0.92862 0.0
C867 C 0.96275 0.80652 0.92781 0.0
C868 C 0.94814 0.80369 0.98005 0.0
H869 H 0.98861 0.92144 0.72381 0.0
H870 H 0.96461 0.89454 0.75401 0.0
C871 C 0.95286 0.79195 0.03782 0.0
C872 C 0.96181 0.82407 0.88052 0.0
H873 H 0.96923 0.87539 0.88597 0.0
C874 C 0.96586 0.82063 0.80943 0.0
C875 C 0.96177 0.84431 0.90748 0.0
C876 C 0.95801 0.84928 0.98351 0.0
C877 C 0.97223 0.83651 0.76689 0.0
C878 C 0.97433 0.8562 0.79615 0.0
C879 C 0.96766 0.86015 0.86419 0.0
C880 C 0.98777 0.87144 0.7648 0.0
C881 C 0.97821 0.83187 0.69258 0.0
C882 C 1.00867 0.86731 0.76146 0.0
C883 C 0.02242 0.88269 0.74672 0.0
C884 C 0.01553 0.90253 0.73436 0.0
C885 C 0.99445 0.90643 0.73474 0.0
C886 C 0.98069 0.89104 0.75065 0.0
H887 H 0.96976 0.81853 0.67144 0.0
H888 H 0.97536 0.84514 0.65897 0.0
H889 H 0.99469 0.82824 0.69046 0.0
H890 H 0.01447 0.85241 0.77425 0.0
H891 H 0.03851 0.87917 0.74779 0.0
H892 H 0.7498 0.02911 0.02591 0.0
H893 H 0.72927 0.03569 0.92228 0.0
H894 H 0.70185 0.97648 0.93824 0.0
H895 H 0.72183 0.97021 0.04339 0.0
H896 H 0.7173 0.01751 0.78975 0.0
H897 H 0.65651 0.01711 0.99155 0.0
H898 H 0.68313 0.01636 0.01349 0.0
H899 H 0.67055 0.99382 0.98171 0.0
C900 C 0.73997 0.01723 0.0055 0.0
C901 C 0.73712 0.99928 0.04245 0.0
C902 C 0.72828 0.02097 0.94639 0.0
C903 C 0.71379 1.00672 0.92365 0.0
C904 C 0.71278 0.98776 0.95571 0.0
H905 H 0.60097 0.03298 0.71042 0.0
H906 H 0.63038 0.01415 0.75188 0.0
C907 C 0.72419 0.98416 0.01545 0.0
C908 C 0.69726 0.01325 0.87692 0.0
H909 H 0.64686 0.0255 0.87887 0.0
C910 C 0.70184 0.01906 0.80874 0.0
C911 C 0.67716 0.01547 0.90235 0.0
C912 C 0.67149 0.01055 0.97638 0.0
C913 C 0.68673 0.02715 0.76536 0.0
C914 C 0.66679 0.02967 0.79153 0.0
C915 C 0.66218 0.02339 0.85894 0.0
C916 C 0.65054 0.04008 0.75278 0.0
C917 C 0.69216 0.03302 0.69222 0.0
C918 C 0.65224 0.06085 0.73846 0.0
C919 C 0.63536 0.07172 0.71504 0.0
C920 C 0.6165 0.062 0.70622 0.0
C921 C 0.61516 0.041 0.7179 0.0
C922 C 0.63201 0.03015 0.74078 0.0
H923 H 0.7062 0.02518 0.67387 0.0
H924 H 0.67956 0.02938 0.65559 0.0
H925 H 0.69487 0.04964 0.69097 0.0
H926 H 0.66628 0.06889 0.74903 0.0
H927 H 0.63685 0.08789 0.707 0.0
H928 H 0.55813 0.77029 0.03776 0.0
H929 H 0.56312 0.7512 0.92831 0.0
H930 H 0.50971 0.71561 0.97254 0.0
H931 H 0.50417 0.73526 0.0785 0.0
H932 H 0.57379 0.71485 0.92884 0.0
H933 H 0.50531 0.71322 0.77028 0.0
H934 H 0.50908 0.73296 0.83554 0.0
H935 H 0.49639 0.7095 0.85689 0.0
C936 C 0.54696 0.75903 0.02211 0.0
C937 C 0.53097 0.75396 0.06701 0.0
C938 C 0.54985 0.74807 0.95969 0.0
C939 C 0.53679 0.73192 0.94148 0.0
C940 C 0.51977 0.72825 0.98362 0.0
H941 H 0.55583 0.61464 0.94577 0.0
H942 H 0.55852 0.65143 0.94417 0.0
C943 C 0.51678 0.73929 0.0452 0.0
C944 C 0.54301 0.71606 0.88957 0.0
H945 H 0.52078 0.67829 0.79306 0.0
C946 C 0.5624 0.70732 0.89682 0.0
C947 C 0.52875 0.7064 0.84489 0.0
C948 C 0.50884 0.71627 0.82601 0.0
C949 C 0.56661 0.68781 0.87017 0.0
C950 C 0.55083 0.67656 0.8378 0.0
C951 C 0.53266 0.68654 0.82059 0.0
C952 C 0.55132 0.65403 0.8346 0.0
C953 C 0.58748 0.67892 0.88142 0.0
C954 C 0.54581 0.64314 0.77401 0.0
C955 C 0.54399 0.62195 0.77521 0.0
C956 C 0.54757 0.61138 0.83703 0.0
C957 C 0.55338 0.62231 0.89707 0.0
C958 C 0.55507 0.64338 0.89599 0.0
H959 H 0.59931 0.69082 0.87605 0.0
H960 H 0.58856 0.67311 0.93515 0.0
H961 H 0.5908 0.6663 0.84396 0.0
H962 H 0.5426 0.65103 0.72627 0.0
H963 H 0.53963 0.61383 0.72811 0.0
H964 H 0.77455 0.56084 0.98287 0.0
H965 H 0.79276 0.56749 0.87344 0.0
H966 H 0.83502 0.51929 0.91984 0.0
H967 H 0.81687 0.5125 0.02667 0.0
H968 H 0.83051 0.58072 0.86003 0.0
H969 H 0.828 0.50871 0.71679 0.0
H970 H 0.80954 0.51486 0.78377 0.0
H971 H 0.8331 0.50215 0.80496 0.0
C972 C 0.78742 0.55139 0.96828 0.0
C973 C 0.79445 0.53625 0.01315 0.0
C974 C 0.79779 0.55519 0.90599 0.0
C975 C 0.81502 0.54361 0.88744 0.0
C976 C 0.82142 0.52803 0.93143 0.0
H977 H 0.92521 0.55702 0.90039 0.0
H978 H 0.89215 0.56975 0.87116 0.0
C979 C 0.81122 0.52433 0.99321 0.0
C980 C 0.82844 0.54912 0.82866 0.0
H981 H 0.86327 0.5238 0.73012 0.0
C982 C 0.83731 0.56851 0.82929 0.0
C983 C 0.8366 0.53391 0.78393 0.0
C984 C 0.82604 0.51385 0.77177 0.0
C985 C 0.85631 0.57163 0.7978 0.0
C986 C 0.86696 0.55471 0.76913 0.0
C987 C 0.85599 0.53671 0.75562 0.0
C988 C 0.88963 0.55313 0.7727 0.0
C989 C 0.86527 0.59268 0.79991 0.0
C990 C 0.90032 0.54021 0.72639 0.0
C991 C 0.91876 0.53138 0.7464 0.0
C992 C 0.92733 0.53612 0.81194 0.0
C993 C 0.91852 0.55199 0.85162 0.0
C994 C 0.89965 0.55994 0.8334 0.0
H995 H 0.85382 0.60378 0.78138 0.0
H996 H 0.86898 0.5971 0.85446 0.0
H997 H 0.87911 0.59379 0.76714 0.0
H998 H 0.89341 0.53531 0.67792 0.0
H999 H 0.92516 0.51959 0.71303 0.0
H1000 H 1.00428 0.21906 0.95999 0.0
H1001 H 0.99989 0.18807 0.88822 0.0
H1002 H 0.06488 0.17924 0.88522 0.0
H1003 H 0.06916 0.20964 0.95898 0.0
H1004 H 0.01125 0.17426 0.76336 0.0
H1005 H 0.0486 0.12557 0.95782 0.0
H1006 H 0.04244 0.15183 0.9761 0.0
H1007 H 0.06505 0.14522 0.92771 0.0
C1008 C 0.01763 0.21067 0.94298 0.0
C1009 C 0.03706 0.21681 0.96543 0.0
C1010 C 0.01512 0.19284 0.90223 0.0
C1011 C 0.032 0.18075 0.8827 0.0
C1012 C 0.0515 0.18769 0.90141 0.0
H1013 H 0.04065 0.06347 0.64835 0.0
H1014 H 0.0488 0.09665 0.70332 0.0
C1015 C 0.05397 0.20529 0.94288 0.0
C1016 C 0.02919 0.16079 0.84425 0.0
H1017 H 0.04067 0.10995 0.84921 0.0
C1018 C 0.01765 0.16023 0.78256 0.0
C1019 C 0.03748 0.14225 0.86855 0.0
C1020 C 0.0489 0.14116 0.9365 0.0
C1021 C 0.01429 0.1419 0.74497 0.0
C1022 C 0.02254 0.12345 0.76943 0.0
C1023 C 0.03437 0.12402 0.8302 0.0
C1024 C 0.0179 0.1033 0.73532 0.0
C1025 C 1.00202 0.14243 0.67885 0.0
C1026 C 0.99791 0.09584 0.7352 0.0
C1027 C 0.99335 0.07685 0.7049 0.0
C1028 C 1.00866 0.06464 0.67455 0.0
C1029 C 0.02863 0.07224 0.67316 0.0
C1030 C 0.03326 0.09127 0.70411 0.0
H1031 H 1.00194 0.15782 0.65601 0.0
H1032 H 1.0081 0.13139 0.63979 0.0
H1033 H 0.98607 0.13818 0.6904 0.0
H1034 H 0.98579 0.10466 0.7592 0.0
H1035 H 0.97775 0.07159 0.70585 0.0
H1036 H 0.31675 0.06519 0.96108 0.0
H1037 H 0.34855 0.05954 0.89797 0.0
H1038 H 0.33077 0.99779 0.85162 0.0
H1039 H 0.29876 1.00334 0.91563 0.0
H1040 H 0.37704 0.02985 0.93988 0.0
H1041 H 0.3544 0.01822 0.66347 0.0
H1042 H 0.33804 0.0307 0.72664 0.0
H1043 H 0.34093 1.00359 0.72682 0.0
C1044 C 0.3194 0.05047 0.9365 0.0
C1045 C 0.3052 0.03468 0.94393 0.0
C1046 C 0.33763 0.04727 0.90033 0.0
C1047 C 0.34216 0.02825 0.86989 0.0
C1048 C 0.32757 0.01269 0.87384 0.0
H1049 H 0.47011 0.99375 0.78605 0.0
H1050 H 0.43566 0.996 0.83452 0.0
C1051 C 0.30922 0.01589 0.91033 0.0
C1052 C 0.36292 0.02443 0.84046 0.0
H1053 H 0.38914 0.01388 0.6903 0.0
C1054 C 0.37969 0.02635 0.88525 0.0
C1055 C 0.36643 0.01988 0.76925 0.0
C1056 C 0.34907 0.01808 0.71833 0.0
C1057 C 0.3998 0.02416 0.86111 0.0
C1058 C 0.40347 0.0196 0.78966 0.0
C1059 C 0.38658 0.01744 0.74492 0.0
C1060 C 0.42457 0.0177 0.7598 0.0
C1061 C 0.41674 0.02732 0.91297 0.0
C1062 C 0.42989 0.02827 0.69942 0.0
C1063 C 0.44948 0.02655 0.67095 0.0
C1064 C 0.46449 0.01483 0.70329 0.0
C1065 C 0.45913 1.00378 0.76228 0.0
C1066 C 0.43939 1.00509 0.78998 0.0
H1067 H 0.41215 0.03803 0.95553 0.0
H1068 H 0.42051 0.01256 0.9369 0.0
H1069 H 0.43055 0.03329 0.88804 0.0
H1070 H 0.41884 0.03782 0.67389 0.0
H1071 H 0.45282 0.03424 0.62297 0.0
H1072 H 0.46672 0.31575 0.92442 0.0
H1073 H 0.47252 0.34357 0.84484 0.0
H1074 H 0.53381 0.32231 0.8093 0.0
H1075 H 0.52822 0.29465 0.89093 0.0
H1076 H 0.53317 0.36137 0.84988 0.0
H1077 H 0.47721 0.35116 0.63841 0.0
H1078 H 0.46509 0.34987 0.72174 0.0
H1079 H 0.48371 0.33096 0.69682 0.0
C1080 C 0.48128 0.31671 0.89838 0.0
C1081 C 0.49705 0.30309 0.91425 0.0
C1082 C 0.48453 0.33254 0.85231 0.0
C1083 C 0.50355 0.33498 0.82043 0.0
C1084 C 0.51897 0.32066 0.83295 0.0
H1085 H 0.52076 0.4427 0.56062 0.0
H1086 H 0.51994 0.40726 0.59751 0.0
C1087 C 0.51572 0.30478 0.87921 0.0
C1088 C 0.508 0.35393 0.78236 0.0
H1089 H 0.48881 0.38574 0.65996 0.0
C1090 C 0.52371 0.36649 0.80742 0.0
C1091 C 0.49585 0.36061 0.72639 0.0
C1092 C 0.47967 0.34732 0.69383 0.0
C1093 C 0.52682 0.38597 0.78089 0.0
C1094 C 0.51361 0.39327 0.72886 0.0
C1095 C 0.49871 0.38028 0.70075 0.0
C1096 C 0.51435 0.41469 0.70596 0.0
C1097 C 0.54406 0.39866 0.80965 0.0
C1098 C 0.51121 0.43061 0.75436 0.0
C1099 C 0.51189 0.45082 0.73349 0.0
C1100 C 0.51556 0.45555 0.66367 0.0
C1101 C 0.51839 0.43958 0.615 0.0
C1102 C 0.51772 0.41931 0.63591 0.0
H1103 H 0.55628 0.38898 0.83152 0.0
H1104 H 0.55075 0.40837 0.76898 0.0
H1105 H 0.53824 0.40866 0.8523 0.0
H1106 H 0.50818 0.42742 0.80845 0.0
H1107 H 0.5099 0.46272 0.77239 0.0
H1108 H 0.22252 0.53284 0.97034 0.0
H1109 H 0.19294 0.53082 0.89311 0.0
H1110 H 0.20574 0.46749 0.85151 0.0
H1111 H 0.23555 0.4695 0.92892 0.0
H1112 H 0.18772 0.51607 0.74524 0.0
H1113 H 0.14717 0.4705 0.94313 0.0
H1114 H 0.1694 0.48541 0.96443 0.0
H1115 H 0.17203 0.46197 0.91615 0.0
C1116 C 0.2193 0.5186 0.94346 0.0
C1117 C 0.23134 0.50132 0.95563 0.0
C1118 C 0.20238 0.51746 0.89939 0.0
C1119 C 0.19697 0.49896 0.86712 0.0
C1120 C 0.20956 0.48189 0.87627 0.0
H1121 H 0.07841 0.46908 0.68171 0.0
H1122 H 0.11346 0.46692 0.72388 0.0
C1123 C 0.22667 0.48308 0.91996 0.0
C1124 C 0.17733 0.49739 0.82869 0.0
H1125 H 0.12881 0.4795 0.84386 0.0
C1126 C 0.17487 0.50793 0.76636 0.0
C1127 C 0.16057 0.48676 0.85624 0.0
C1128 C 0.16222 0.47557 0.92386 0.0
C1129 C 0.15608 0.5082 0.73106 0.0
C1130 C 0.13907 0.49815 0.75999 0.0
C1131 C 0.14174 0.48722 0.8215 0.0
C1132 C 0.11819 0.49946 0.72945 0.0
C1133 C 0.15477 0.51909 0.66276 0.0
C1134 C 0.10898 0.51843 0.71848 0.0
C1135 C 0.08893 0.5197 0.69424 0.0
C1136 C 0.07741 0.50202 0.68145 0.0
C1137 C 0.08671 0.48302 0.69172 0.0
C1138 C 0.10682 0.48177 0.71565 0.0
H1139 H 0.16982 0.51962 0.63655 0.0
H1140 H 0.14372 0.51167 0.62686 0.0
H1141 H 0.14978 0.535 0.67264 0.0
H1142 H 0.11709 0.53236 0.73049 0.0
H1143 H 0.08232 0.5346 0.68743 0.0
H1144 H 0.96495 0.81123 0.28399 0.0
H1145 H 0.97077 0.84271 0.35126 0.0
H1146 H 0.03537 0.83203 0.3432 0.0
H1147 H 0.02962 0.8003 0.27613 0.0
H1148 H 0.99991 0.84867 0.4884 0.0
H1149 H 0.01813 0.89134 0.24887 0.0
H1150 H 1.0016 0.86944 0.24659 0.0
H1151 H 0.02838 0.86611 0.25914 0.0
C1152 C 0.9804 0.81536 0.2977 0.0
C1153 C 0.99682 0.80314 0.27489 0.0
C1154 C 0.9837 0.83342 0.336 0.0
C1155 C 1.00351 0.83987 0.35188 0.0
C1156 C 0.01994 0.82739 0.33147 0.0
H1157 H 0.05058 0.95715 0.49658 0.0
H1158 H 0.04553 0.92298 0.44708 0.0
C1159 C 0.01663 0.80915 0.29368 0.0
C1160 C 1.0069 0.86004 0.38716 0.0
H1161 H 0.01905 0.90954 0.35504 0.0
C1162 C 1.00411 0.86199 0.45934 0.0
C1163 C 0.0124 0.87744 0.34937 0.0
C1164 C 0.01528 0.87621 0.2716 0.0
C1165 C 1.00701 0.88075 0.49481 0.0
C1166 C 0.01229 0.89833 0.45704 0.0
C1167 C 0.015 0.89627 0.38456 0.0
C1168 C 0.01557 0.91886 0.49125 0.0
C1169 C 1.00519 0.88129 0.57281 0.0
C1170 C 1.00061 0.92817 0.5338 0.0
C1171 C 1.00355 0.94781 0.56233 0.0
C1172 C 0.02129 0.95884 0.54758 0.0
C1173 C 0.03651 0.94927 0.5073 0.0
C1174 C 0.03362 0.92968 0.47898 0.0
H1175 H 1.00709 0.86596 0.5952 0.0
H1176 H 0.01682 0.89154 0.59576 0.0
H1177 H 0.9899 0.88702 0.58776 0.0
H1178 H 0.98639 0.9205 0.54362 0.0
H1179 H 0.99182 0.9545 0.59506 0.0
H1180 H 0.72916 0.97858 0.35892 0.0
H1181 H 0.69977 0.98103 0.4384 0.0
H1182 H 0.67503 0.02964 0.31693 0.0
H1183 H 0.7042 0.02741 0.23857 0.0
H1184 H 0.67304 0.0372 0.46063 0.0
H1185 H 0.64151 0.96121 0.39118 0.0
H1186 H 0.66754 0.96174 0.41987 0.0
H1187 H 0.66072 0.97335 0.33936 0.0
C1188 C 0.71756 0.98993 0.34989 0.0
C1189 C 0.71895 1.00269 0.29212 0.0
C1190 C 0.70065 0.99117 0.3948 0.0
C1191 C 0.68492 1.00527 0.38294 0.0
C1192 C 0.68679 0.01852 0.32697 0.0
H1193 H 0.56817 0.04549 0.55101 0.0
H1194 H 0.60114 0.04213 0.49254 0.0
C1195 C 0.70351 0.01721 0.28211 0.0
C1196 C 0.66642 1.0065 0.42812 0.0
H1197 H 0.62328 0.98093 0.4731 0.0
C1198 C 0.66221 0.02484 0.46367 0.0
C1199 C 0.65223 0.99042 0.43224 0.0
C1200 C 0.65553 0.97058 0.39333 0.0
C1201 C 0.64429 0.02763 0.50279 0.0
C1202 C 0.62974 0.01173 0.50577 0.0
C1203 C 0.63423 0.99319 0.47129 0.0
C1204 C 0.60963 0.01407 0.54244 0.0
C1205 C 0.6415 0.04761 0.54098 0.0
C1206 C 0.6028 0.99919 0.58879 0.0
C1207 C 0.58366 1.00091 0.62095 0.0
C1208 C 0.57075 0.01732 0.60656 0.0
C1209 C 0.57763 0.03239 0.56151 0.0
C1210 C 0.59669 0.03065 0.52909 0.0
H1211 H 0.65635 0.05418 0.55722 0.0
H1212 H 0.63402 0.0586 0.50604 0.0
H1213 H 0.63199 0.04585 0.58766 0.0
H1214 H 0.61234 0.98626 0.60045 0.0
H1215 H 0.57889 0.98936 0.65689 0.0
H1216 H 0.50175 0.72195 0.26521 0.0
H1217 H 0.50167 0.6924 0.33941 0.0
H1218 H 0.55143 0.71771 0.4585 0.0
H1219 H 0.5521 0.74719 0.3818 0.0
H1220 H 0.55931 0.67944 0.42248 0.0
H1221 H 0.48185 0.68169 0.53097 0.0
H1222 H 0.48067 0.68308 0.4381 0.0
H1223 H 0.49282 0.70317 0.4877 0.0
C1224 C 0.51253 0.72139 0.30775 0.0
C1225 C 0.52704 0.73688 0.31727 0.0
C1226 C 0.51231 0.70455 0.35079 0.0
C1227 C 0.52634 0.70286 0.4054 0.0
C1228 C 0.54035 0.7187 0.41699 0.0
H1229 H 0.51311 0.59207 0.65096 0.0
H1230 H 0.51582 0.62788 0.62082 0.0
C1231 C 0.54063 0.73562 0.37351 0.0
C1232 C 0.52747 0.68364 0.44518 0.0
H1233 H 0.49767 0.64827 0.5234 0.0
C1234 C 0.5459 0.67281 0.44572 0.0
C1235 C 0.51015 0.67504 0.477 0.0
C1236 C 0.49035 0.6865 0.48411 0.0
C1237 C 0.54716 0.65318 0.47314 0.0
C1238 C 0.52937 0.64382 0.49882 0.0
C1239 C 0.51125 0.65517 0.50239 0.0
C1240 C 0.52892 0.62205 0.51907 0.0
C1241 C 0.56758 0.64268 0.47392 0.0
C1242 C 0.53526 0.60673 0.47197 0.0
C1243 C 0.53396 0.58622 0.48938 0.0
C1244 C 0.5259 0.5805 0.55389 0.0
C1245 C 0.51942 0.59586 0.60086 0.0
C1246 C 0.52095 0.61639 0.58367 0.0
H1247 H 0.58017 0.65389 0.47704 0.0
H1248 H 0.56893 0.63224 0.51842 0.0
H1249 H 0.56954 0.63374 0.42487 0.0
H1250 H 0.54085 0.61058 0.42091 0.0
H1251 H 0.53889 0.57485 0.45153 0.0
H1252 H 0.81211 0.56014 0.26633 0.0
H1253 H 0.84076 0.5581 0.34744 0.0
H1254 H 0.83309 0.49312 0.35657 0.0
H1255 H 0.80377 0.49536 0.27759 0.0
H1256 H 0.84441 0.50793 0.4814 0.0
H1257 H 0.89549 0.53966 0.28229 0.0
H1258 H 0.87519 0.5568 0.30453 0.0
H1259 H 0.86959 0.53265 0.26328 0.0
C1260 C 0.81627 0.54551 0.28711 0.0
C1261 C 0.80569 0.52792 0.26611 0.0
C1262 C 0.83283 0.54429 0.3327 0.0
C1263 C 0.8396 0.52537 0.35668 0.0
C1264 C 0.82834 0.50789 0.33855 0.0
H1265 H 0.94829 0.48336 0.57422 0.0
H1266 H 0.91448 0.48601 0.52243 0.0
C1267 C 0.81152 0.50916 0.2937 0.0
C1268 C 0.85887 0.52377 0.39782 0.0
H1269 H 0.90941 0.53599 0.39502 0.0
C1270 C 0.85862 0.51406 0.46242 0.0
C1271 C 0.8776 0.53145 0.37297 0.0
C1272 C 0.87958 0.54052 0.30168 0.0
C1273 C 0.87634 0.51228 0.50331 0.0
C1274 C 0.89493 0.52045 0.4791 0.0
C1275 C 0.89516 0.53003 0.41439 0.0
C1276 C 0.91454 0.51885 0.51813 0.0
C1277 C 0.87475 0.50166 0.57198 0.0
C1278 C 0.92599 0.53638 0.53353 0.0
C1279 C 0.94545 0.53489 0.56279 0.0
C1280 C 0.95408 0.5158 0.5768 0.0
C1281 C 0.94225 0.49831 0.56405 0.0
C1282 C 0.92279 0.49981 0.53461 0.0
H1283 H 0.87658 0.48506 0.56271 0.0
H1284 H 0.88657 0.5067 0.60943 0.0
H1285 H 0.85956 0.50421 0.59601 0.0
H1286 H 0.92003 0.55127 0.52152 0.0
H1287 H 0.95392 0.54872 0.57301 0.0
loop_
_geom_bond_atom_site_label_1
_geom_bond_atom_site_label_2
_geom_bond_distance
_geom_bond_site_symmetry_2
_ccdc_geom_bond_type
H0 C3 0.929 . S
H1 C6 0.929 . S
H2 C8 0.930 . S
C3 H0 0.929 . S
C3 C4 1.398 . S
C3 C5 1.396 . S
C4 C3 1.398 . S
C4 C8 1.407 . S
C5 C3 1.396 . S
C5 C6 1.394 . S
C6 H1 0.929 . S
C6 C5 1.394 . S
C6 C7 1.382 . S
C7 C6 1.382 . S
C7 C8 1.392 . S
C7 N9 1.420 . S
C8 H2 0.930 . S
C8 C4 1.407 . S
C8 C7 1.392 . S
N9 C7 1.420 . S
N9 C10 1.244 . S
C10 N9 1.244 . S
H11 C14 0.929 . S
H12 C17 0.929 . S
H13 C19 0.930 . S
C14 H11 0.929 . S
C14 C15 1.398 . S
C14 C16 1.396 . S
C15 C14 1.398 . S
C15 C19 1.407 . S
C16 C14 1.396 . S
C16 C17 1.394 . S
C17 H12 0.929 . S
C17 C16 1.394 . S
C17 C18 1.382 . S
C18 C17 1.382 . S
C18 C19 1.392 . S
C18 N20 1.420 . S
C19 H13 0.930 . S
C19 C15 1.407 . S
C19 C18 1.392 . S
N20 C18 1.420 . S
N20 C21 1.244 . S
C21 N20 1.244 . S
H22 C25 0.929 . S
H23 C28 0.929 . S
H24 C30 0.930 . S
C25 H22 0.929 . S
C25 C26 1.398 . S
C25 C27 1.396 . S
C26 C25 1.398 . S
C26 C30 1.407 . S
C27 C25 1.396 . S
C27 C28 1.394 . S
C28 H23 0.929 . S
C28 C27 1.394 . S
C28 C29 1.382 . S
C29 C28 1.382 . S
C29 C30 1.392 . S
C29 N31 1.420 . S
C30 H24 0.930 . S
C30 C26 1.407 . S
C30 C29 1.392 . S
N31 C29 1.420 . S
N31 C32 1.244 . S
C32 N31 1.244 . S
H33 C36 0.929 . S
H34 C39 0.929 . S
H35 C41 0.930 . S
C36 H33 0.929 . S
C36 C37 1.398 . S
C36 C38 1.396 . S
C37 C36 1.398 . S
C37 C41 1.407 . S
C38 C36 1.396 . S
C38 C39 1.394 . S
C39 H34 0.929 . S
C39 C38 1.394 . S
C39 C40 1.382 . S
C40 C39 1.382 . S
C40 C41 1.392 . S
C40 N42 1.420 . S
C41 H35 0.930 . S
C41 C37 1.407 . S
C41 C40 1.392 . S
N42 C40 1.420 . S
N42 C43 1.244 . S
C43 N42 1.244 . S
H44 C47 0.929 . S
H45 C50 0.929 . S
H46 C52 0.930 . S
C47 H44 0.929 . S
C47 C48 1.398 . S
C47 C49 1.396 1_556 S
C48 C47 1.398 . S
C48 C52 1.407 . S
C49 C47 1.396 1_554 S
C49 C50 1.394 . S
C50 H45 0.929 . S
C50 C49 1.394 . S
C50 C51 1.382 . S
C51 C50 1.382 . S
C51 C52 1.392 1_554 S
C51 N53 1.420 . S
C52 H46 0.930 . S
C52 C48 1.407 . S
C52 C51 1.392 1_556 S
N53 C51 1.420 . S
N53 C54 1.244 . S
C54 N53 1.244 . S
H55 C58 0.929 . S
H56 C61 0.929 . S
H57 C63 0.930 . S
C58 H55 0.929 . S
C58 C59 1.398 . S
C58 C60 1.396 1_556 S
C59 C58 1.398 . S
C59 C63 1.407 . S
C60 C58 1.396 1_554 S
C60 C61 1.394 . S
C61 H56 0.929 . S
C61 C60 1.394 . S
C61 C62 1.382 . S
C62 C61 1.382 . S
C62 C63 1.392 1_554 S
C62 N64 1.420 . S
C63 H57 0.930 . S
C63 C59 1.407 . S
C63 C62 1.392 1_556 S
N64 C62 1.420 . S
N64 C65 1.244 . S
C65 N64 1.244 . S
H66 C69 0.929 . S
H67 C72 0.929 . S
H68 C74 0.930 . S
C69 H66 0.929 . S
C69 C70 1.398 . S
C69 C71 1.396 1_556 S
C70 C69 1.398 . S
C70 C74 1.407 . S
C71 C69 1.396 1_554 S
C71 C72 1.394 . S
C72 H67 0.929 . S
C72 C71 1.394 . S
C72 C73 1.382 . S
C73 C72 1.382 . S
C73 C74 1.392 1_554 S
C73 N75 1.420 . S
C74 H68 0.930 . S
C74 C70 1.407 . S
C74 C73 1.392 1_556 S
N75 C73 1.420 . S
N75 C76 1.244 . S
C76 N75 1.244 . S
H77 C80 0.929 . S
H78 C83 0.929 . S
H79 C85 0.930 . S
C80 H77 0.929 . S
C80 C81 1.398 . S
C80 C82 1.396 1_556 S
C81 C80 1.398 . S
C81 C85 1.407 . S
C82 C80 1.396 1_554 S
C82 C83 1.394 . S
C83 H78 0.929 . S
C83 C82 1.394 . S
C83 C84 1.382 . S
C84 C83 1.382 . S
C84 C85 1.392 1_554 S
C84 N86 1.420 . S
C85 H79 0.930 . S
C85 C81 1.407 . S
C85 C84 1.392 1_556 S
N86 C84 1.420 . S
N86 C87 1.244 . S
C87 N86 1.244 . S
Eu88 N119 2.657 1_565 S
Eu88 N126 2.605 1_565 S
Eu88 O132 2.558 . S
Eu88 O133 2.612 1_455 S
Eu88 O135 2.350 1_455 S
Eu88 O136 2.563 . S
Eu88 O137 2.419 . S
Eu88 O139 2.380 1_565 S
Eu88 O140 2.432 . S
Eu88 C152 2.848 . S
C89 C92 1.409 1_545 S
C89 C93 1.411 . S
C89 N96 1.377 . S
C90 C92 1.451 . S
C90 C94 1.423 . S
C90 C102 1.392 . S
C91 C93 1.420 1_565 S
C91 C94 1.351 . S
C91 H114 0.931 . S
C92 C89 1.409 1_565 S
C92 C90 1.451 . S
C92 N100 1.353 1_565 S
C93 C89 1.411 . S
C93 C91 1.420 1_545 S
C93 C98 1.395 . S
C94 C90 1.423 . S
C94 C91 1.351 . S
C94 H106 0.930 . S
C95 C97 1.400 . S
C95 C98 1.386 . S
C95 H107 0.930 . S
N96 C89 1.377 . S
N96 C97 1.321 . S
N96 Eu99 2.609 . S
C97 C95 1.400 . S
C97 N96 1.321 . S
C97 H104 0.930 . S
C98 C93 1.395 . S
C98 C95 1.386 . S
C98 H117 0.930 . S
Eu99 N96 2.609 . S
Eu99 N100 2.657 . S
Eu99 O133 2.380 1_545 S
Eu99 O134 2.432 . S
Eu99 O138 2.558 . S
Eu99 O139 2.612 1_655 S
Eu99 O141 2.339 1_655 S
Eu99 O142 2.563 1_655 S
Eu99 O143 2.420 1_655 S
Eu99 C163 2.848 . S
N100 C92 1.353 1_545 S
N100 Eu99 2.657 . S
N100 C101 1.334 1_645 S
C101 N100 1.334 1_465 S
C101 C103 1.413 . S
C101 H108 0.929 . S
C102 C90 1.392 . S
C102 C103 1.367 1_655 S
C102 H110 0.930 . S
C103 C101 1.413 . S
C103 C102 1.367 1_455 S
C103 H105 0.930 . S
H104 C97 0.930 . S
H105 C103 0.930 . S
H106 C94 0.930 . S
H107 C95 0.930 . S
H108 C101 0.929 . S
H109 C123 0.930 1_655 S
H110 C102 0.930 . S
H111 C129 0.930 . S
H112 C120 0.929 1_655 S
H113 C127 0.930 . S
H114 C91 0.931 . S
H115 C121 0.930 . S
H116 C154 0.930 . S
H117 C98 0.930 . S
H118 C153 0.931 . S
N119 Eu88 2.657 1_545 S
N119 C120 1.334 . S
N119 C124 1.362 . S
C120 H112 0.929 1_455 S
C120 N119 1.334 . S
C120 C123 1.413 . S
C121 H115 0.930 . S
C121 C122 1.392 . S
C121 C123 1.367 . S
C122 C121 1.392 . S
C122 C124 1.420 . S
C122 C154 1.423 . S
C123 H109 0.930 1_455 S
C123 C120 1.413 . S
C123 C121 1.367 . S
C124 N119 1.362 . S
C124 C122 1.420 . S
C124 C128 1.429 . S
H125 C130 0.930 . S
N126 Eu88 2.605 1_545 S
N126 C128 1.386 . S
N126 C129 1.314 1_545 S
C127 H113 0.930 . S
C127 C129 1.400 . S
C127 C130 1.386 1_565 S
C128 C124 1.429 . S
C128 N126 1.386 . S
C128 C131 1.411 . S
C129 H111 0.930 . S
C129 N126 1.314 1_565 S
C129 C127 1.400 . S
C130 H125 0.930 . S
C130 C127 1.386 1_545 S
C130 C131 1.395 . S
C131 C128 1.411 . S
C131 C130 1.395 . S
C131 C153 1.420 . S
O132 Eu88 2.558 . S
O132 C152 1.257 . S
O133 Eu88 2.612 1_655 S
O133 Eu99 2.380 1_565 S
O133 C144 1.276 . S
O134 Eu99 2.432 . S
O134 C151 1.264 . S
O135 Eu88 2.350 1_655 S
O135 C151 1.239 1_565 S
O136 Eu88 2.563 . S
O136 C144 1.235 1_455 S
O137 Eu88 2.419 . S
O137 C152 1.249 . S
O138 Eu99 2.558 . S
O138 C163 1.257 . S
O139 Eu88 2.380 1_545 S
O139 Eu99 2.612 1_455 S
O139 C155 1.276 . S
O140 Eu88 2.432 . S
O140 C162 1.264 1_565 S
O141 Eu99 2.339 1_455 S
O141 C162 1.254 . S
O142 Eu99 2.563 1_455 S
O142 C155 1.235 . S
O143 Eu99 2.420 1_455 S
O143 C163 1.252 1_455 S
C144 O133 1.276 . S
C144 O136 1.235 1_655 S
C145 C147 1.393 . S
C145 C149 1.395 . S
C145 C152 1.492 . S
C146 C147 1.392 . S
C146 C148 1.386 . S
C147 C145 1.393 . S
C147 C146 1.392 . S
C147 H164 0.880 1_455 S
C148 C146 1.386 . S
C148 C150 1.395 . S
C148 H165 0.930 . S
C149 C145 1.395 . S
C149 C150 1.379 . S
C149 H166 0.930 . S
C150 C148 1.395 . S
C150 C149 1.379 . S
C150 H167 0.930 . S
C151 O134 1.264 . S
C151 O135 1.239 1_545 S
C152 Eu88 2.848 . S
C152 O132 1.257 . S
C152 O137 1.249 . S
C152 C145 1.492 . S
C153 H118 0.931 . S
C153 C131 1.420 . S
C153 C154 1.351 . S
C154 H116 0.930 . S
C154 C122 1.423 . S
C154 C153 1.351 . S
C155 O139 1.276 . S
C155 O142 1.235 . S
C156 C157 1.363 1_655 S
C156 C160 1.395 . S
C156 C163 1.492 . S
C157 C156 1.363 1_455 S
C157 C158 1.391 1_455 S
C157 H168 0.962 . S
C158 C157 1.391 1_655 S
C158 C159 1.402 . S
C159 C158 1.402 . S
C159 C161 1.395 . S
C159 H169 0.930 . S
C160 C156 1.395 . S
C160 C161 1.379 . S
C160 H170 0.930 . S
C161 C159 1.395 . S
C161 C160 1.379 . S
C161 H171 0.930 . S
C162 O140 1.264 1_545 S
C162 O141 1.254 . S
C163 Eu99 2.848 . S
C163 O138 1.257 . S
C163 O143 1.252 1_655 S
C163 C156 1.492 . S
H164 C147 0.880 1_655 S
H165 C148 0.930 . S
H166 C149 0.930 . S
H167 C150 0.930 . S
H168 C157 0.962 . S
H169 C159 0.930 . S
H170 C160 0.930 . S
H171 C161 0.930 . S
Eu172 N203 2.657 . S
Eu172 N210 2.609 . S
Eu172 O216 2.558 . S
Eu172 O217 2.607 1_545 S
Eu172 O219 2.339 1_545 S
Eu172 O220 2.563 . S
Eu172 O221 2.419 . S
Eu172 O223 2.380 . S
Eu172 O224 2.432 . S
Eu172 C236 2.848 . S
C173 C176 1.429 . S
C173 C177 1.411 . S
C173 N180 1.377 . S
C174 C176 1.420 . S
C174 C178 1.423 . S
C174 C186 1.392 . S
C175 C177 1.420 . S
C175 C178 1.351 . S
C175 H198 0.931 . S
C176 C173 1.429 . S
C176 C174 1.420 . S
C176 N184 1.362 . S
C177 C173 1.411 . S
C177 C175 1.420 . S
C177 C182 1.395 . S
C178 C174 1.423 . S
C178 C175 1.351 . S
C178 H190 0.930 . S
C179 C181 1.400 . S
C179 C182 1.386 . S
C179 H191 0.930 . S
N180 C173 1.377 . S
N180 C181 1.321 . S
N180 Eu183 2.609 . S
C181 C179 1.400 . S
C181 N180 1.321 . S
C181 H188 0.930 . S
C182 C177 1.395 . S
C182 C179 1.386 . S
C182 H201 0.930 . S
Eu183 N180 2.609 . S
Eu183 N184 2.657 . S
Eu183 O217 2.382 . S
Eu183 O218 2.432 . S
Eu183 O222 2.558 . S
Eu183 O223 2.612 1_565 S
Eu183 O225 2.339 1_565 S
Eu183 O226 2.563 1_565 S
Eu183 O227 2.419 1_565 S
Eu183 C247 2.848 . S
N184 C176 1.362 . S
N184 Eu183 2.657 . S
N184 C185 1.334 1_565 S
C185 N184 1.334 1_545 S
C185 C187 1.413 . S
C185 H192 0.929 . S
C186 C174 1.392 . S
C186 C187 1.367 1_565 S
C186 H194 0.930 . S
C187 C185 1.413 . S
C187 C186 1.367 1_545 S
C187 H189 0.930 . S
H188 C181 0.930 . S
H189 C187 0.930 . S
H190 C178 0.930 . S
H191 C179 0.930 . S
H192 C185 0.929 . S
H193 C207 0.930 1_565 S
H194 C186 0.930 . S
H195 C213 0.930 . S
H196 C204 0.929 1_565 S
H197 C211 0.930 . S
H198 C175 0.931 . S
H199 C205 0.930 . S
H200 C238 0.930 . S
H201 C182 0.930 . S
H202 C237 0.931 . S
N203 Eu172 2.657 . S
N203 C204 1.334 . S
N203 C208 1.362 . S
C204 H196 0.929 1_545 S
C204 N203 1.334 . S
C204 C207 1.413 . S
C205 H199 0.930 . S
C205 C206 1.392 . S
C205 C207 1.367 . S
C206 C205 1.392 . S
C206 C208 1.420 . S
C206 C238 1.423 . S
C207 H193 0.930 1_545 S
C207 C204 1.413 . S
C207 C205 1.367 . S
C208 N203 1.362 . S
C208 C206 1.420 . S
C208 C212 1.429 . S
H209 C214 0.930 . S
N210 Eu172 2.609 . S
N210 C212 1.377 . S
N210 C213 1.321 . S
C211 H197 0.930 . S
C211 C213 1.400 . S
C211 C214 1.386 . S
C212 C208 1.429 . S
C212 N210 1.377 . S
C212 C215 1.411 . S
C213 H195 0.930 . S
C213 N210 1.321 . S
C213 C211 1.400 . S
C214 H209 0.930 . S
C214 C211 1.386 . S
C214 C215 1.395 . S
C215 C212 1.411 . S
C215 C214 1.395 . S
C215 C237 1.420 . S
O216 Eu172 2.558 . S
O216 C236 1.257 . S
O217 Eu172 2.607 1_565 S
O217 Eu183 2.382 . S
O217 C228 1.275 1_565 S
O218 Eu183 2.432 . S
O218 C235 1.264 . S
O219 Eu172 2.339 1_565 S
O219 C235 1.254 . S
O220 Eu172 2.563 . S
O220 C228 1.241 . S
O221 Eu172 2.419 . S
O221 C236 1.249 . S
O222 Eu183 2.558 . S
O222 C247 1.257 . S
O223 Eu172 2.380 . S
O223 Eu183 2.612 1_545 S
O223 C239 1.276 . S
O224 Eu172 2.432 . S
O224 C246 1.264 . S
O225 Eu183 2.339 1_545 S
O225 C246 1.254 . S
O226 Eu183 2.563 1_545 S
O226 C239 1.235 . S
O227 Eu183 2.419 1_545 S
O227 C247 1.249 1_545 S
C228 O217 1.275 1_545 S
C228 O220 1.241 . S
C229 C231 1.393 . S
C229 C233 1.395 . S
C229 C236 1.492 . S
C230 C231 1.392 . S
C230 C232 1.386 . S
C231 C229 1.393 . S
C231 C230 1.392 . S
C231 H248 0.930 . S
C232 C230 1.386 . S
C232 C234 1.395 . S
C232 H249 0.930 . S
C233 C229 1.395 . S
C233 C234 1.379 . S
C233 H250 0.930 . S
C234 C232 1.395 . S
C234 C233 1.379 . S
C234 H251 0.930 . S
C235 O218 1.264 . S
C235 O219 1.254 . S
C236 Eu172 2.848 . S
C236 O216 1.257 . S
C236 O221 1.249 . S
C236 C229 1.492 . S
C237 H202 0.931 . S
C237 C215 1.420 . S
C237 C238 1.351 . S
C238 H200 0.930 . S
C238 C206 1.423 . S
C238 C237 1.351 . S
C239 O223 1.276 . S
C239 O226 1.235 . S
C240 C241 1.393 1_565 S
C240 C244 1.395 . S
C240 C247 1.492 . S
C241 C240 1.393 1_545 S
C241 C242 1.397 . S
C241 H252 0.930 . S
C242 C241 1.397 . S
C242 C243 1.338 1_545 S
C243 C242 1.338 1_565 S
C243 C245 1.395 . S
C243 H253 0.930 . S
C244 C240 1.395 . S
C244 C245 1.379 . S
C244 H254 0.930 . S
C245 C243 1.395 . S
C245 C244 1.379 . S
C245 H255 0.930 . S
C246 O224 1.264 . S
C246 O225 1.254 . S
C247 Eu183 2.848 . S
C247 O222 1.257 . S
C247 O227 1.249 1_565 S
C247 C240 1.492 . S
H248 C231 0.930 . S
H249 C232 0.930 . S
H250 C233 0.930 . S
H251 C234 0.930 . S
H252 C241 0.930 . S
H253 C243 0.930 . S
H254 C244 0.930 . S
H255 C245 0.930 . S
Eu256 N287 2.657 . S
Eu256 N294 2.609 . S
Eu256 O300 2.558 . S
Eu256 O301 2.612 . S
Eu256 O303 2.339 . S
Eu256 O304 2.563 . S
Eu256 O305 2.419 . S
Eu256 O307 2.380 . S
Eu256 O308 2.432 . S
Eu256 C320 2.848 . S
C257 C260 1.429 . S
C257 C261 1.411 . S
C257 N264 1.377 . S
C258 C260 1.420 . S
C258 C262 1.423 . S
C258 C270 1.392 . S
C259 C261 1.420 . S
C259 C262 1.351 . S
C259 H282 0.931 . S
C260 C257 1.429 . S
C260 C258 1.420 . S
C260 N268 1.362 . S
C261 C257 1.411 . S
C261 C259 1.420 . S
C261 C266 1.395 . S
C262 C258 1.423 . S
C262 C259 1.351 . S
C262 H274 0.930 . S
C263 C265 1.400 . S
C263 C266 1.386 . S
C263 H275 0.930 . S
N264 C257 1.377 . S
N264 C265 1.321 . S
N264 Eu267 2.609 . S
C265 C263 1.400 . S
C265 N264 1.321 . S
C265 H272 0.930 . S
C266 C261 1.395 . S
C266 C263 1.386 . S
C266 H285 0.930 . S
Eu267 N264 2.609 . S
Eu267 N268 2.657 . S
Eu267 O301 2.380 . S
Eu267 O302 2.432 . S
Eu267 O306 2.558 . S
Eu267 O307 2.612 . S
Eu267 O309 2.339 . S
Eu267 O310 2.563 . S
Eu267 O311 2.419 . S
Eu267 C331 2.848 . S
N268 C260 1.362 . S
N268 Eu267 2.657 . S
N268 C269 1.334 . S
C269 N268 1.334 . S
C269 C271 1.413 . S
C269 H276 0.929 . S
C270 C258 1.392 . S
C270 C271 1.367 . S
C270 H278 0.930 . S
C271 C269 1.413 . S
C271 C270 1.367 . S
C271 H273 0.930 . S
H272 C265 0.930 . S
H273 C271 0.930 . S
H274 C262 0.930 . S
H275 C263 0.930 . S
H276 C269 0.929 . S
H277 C291 0.930 . S
H278 C270 0.930 . S
H279 C297 0.930 . S
H280 C288 0.929 . S
H281 C295 0.930 . S
H282 C259 0.931 . S
H283 C289 0.930 . S
H284 C322 0.930 . S
H285 C266 0.930 . S
H286 C321 0.931 . S
N287 Eu256 2.657 . S
N287 C288 1.334 . S
N287 C292 1.362 . S
C288 H280 0.929 . S
C288 N287 1.334 . S
C288 C291 1.413 . S
C289 H283 0.930 . S
C289 C290 1.392 . S
C289 C291 1.367 . S
C290 C289 1.392 . S
C290 C292 1.420 . S
C290 C322 1.423 . S
C291 H277 0.930 . S
C291 C288 1.413 . S
C291 C289 1.367 . S
C292 N287 1.362 . S
C292 C290 1.420 . S
C292 C296 1.429 . S
H293 C298 0.930 . S
N294 Eu256 2.609 . S
N294 C296 1.377 . S
N294 C297 1.321 . S
C295 H281 0.930 . S
C295 C297 1.400 . S
C295 C298 1.386 . S
C296 C292 1.429 . S
C296 N294 1.377 . S
C296 C299 1.411 . S
C297 H279 0.930 . S
C297 N294 1.321 . S
C297 C295 1.400 . S
C298 H293 0.930 . S
C298 C295 1.386 . S
C298 C299 1.395 . S
C299 C296 1.411 . S
C299 C298 1.395 . S
C299 C321 1.420 . S
O300 Eu256 2.558 . S
O300 C320 1.257 . S
O301 Eu256 2.612 . S
O301 Eu267 2.380 . S
O301 C312 1.276 . S
O302 Eu267 2.432 . S
O302 C319 1.264 . S
O303 Eu256 2.339 . S
O303 C319 1.254 . S
O304 Eu256 2.563 . S
O304 C312 1.235 . S
O305 Eu256 2.419 . S
O305 C320 1.249 . S
O306 Eu267 2.558 . S
O306 C331 1.257 . S
O307 Eu256 2.380 . S
O307 Eu267 2.612 . S
O307 C323 1.276 . S
O308 Eu256 2.432 . S
O308 C330 1.264 . S
O309 Eu267 2.339 . S
O309 C330 1.254 . S
O310 Eu267 2.563 . S
O310 C323 1.235 . S
O311 Eu267 2.419 . S
O311 C331 1.249 . S
C312 O301 1.276 . S
C312 O304 1.235 . S
C313 C315 1.393 . S
C313 C317 1.395 . S
C313 C320 1.492 . S
C314 C315 1.392 . S
C314 C316 1.386 . S
C315 C313 1.393 . S
C315 C314 1.392 . S
C315 H332 0.930 . S
C316 C314 1.386 . S
C316 C318 1.395 . S
C316 H333 0.930 . S
C317 C313 1.395 . S
C317 C318 1.379 . S
C317 H334 0.930 . S
C318 C316 1.395 . S
C318 C317 1.379 . S
C318 H335 0.930 . S
C319 O302 1.264 . S
C319 O303 1.254 . S
C320 Eu256 2.848 . S
C320 O300 1.257 . S
C320 O305 1.249 . S
C320 C313 1.492 . S
C321 H286 0.931 . S
C321 C299 1.420 . S
C321 C322 1.351 . S
C322 H284 0.930 . S
C322 C290 1.423 . S
C322 C321 1.351 . S
C323 O307 1.276 . S
C323 O310 1.235 . S
C324 C325 1.393 . S
C324 C328 1.395 . S
C324 C331 1.492 . S
C325 C324 1.393 . S
C325 C326 1.392 . S
C325 H336 0.930 . S
C326 C325 1.392 . S
C326 C327 1.386 . S
C327 C326 1.386 . S
C327 C329 1.395 . S
C327 H337 0.930 . S
C328 C324 1.395 . S
C328 C329 1.379 . S
C328 H338 0.930 . S
C329 C327 1.395 . S
C329 C328 1.379 . S
C329 H339 0.930 1_556 S
C330 O308 1.264 . S
C330 O309 1.254 . S
C331 Eu267 2.848 . S
C331 O306 1.257 . S
C331 O311 1.249 . S
C331 C324 1.492 . S
H332 C315 0.930 . S
H333 C316 0.930 . S
H334 C317 0.930 . S
H335 C318 0.930 . S
H336 C325 0.930 . S
H337 C327 0.930 . S
H338 C328 0.930 . S
H339 C329 0.930 1_554 S
Eu340 N371 2.657 . S
Eu340 N378 2.609 . S
Eu340 O384 2.558 . S
Eu340 O385 2.612 . S
Eu340 O387 2.339 . S
Eu340 O388 2.563 . S
Eu340 O389 2.419 . S
Eu340 O391 2.380 . S
Eu340 O392 2.432 1_455 S
Eu340 C404 2.848 . S
C341 C344 1.429 . S
C341 C345 1.411 . S
C341 N348 1.377 . S
C342 C344 1.420 . S
C342 C346 1.423 . S
C342 C354 1.392 . S
C343 C345 1.420 . S
C343 C346 1.351 . S
C343 H366 0.931 . S
C344 C341 1.429 . S
C344 C342 1.420 . S
C344 N352 1.362 . S
C345 C341 1.411 . S
C345 C343 1.420 . S
C345 C350 1.395 1_655 S
C346 C342 1.423 . S
C346 C343 1.351 . S
C346 H358 0.930 . S
C347 C349 1.400 . S
C347 C350 1.386 . S
C347 H359 0.930 . S
N348 C341 1.377 . S
N348 C349 1.321 1_655 S
N348 Eu351 2.609 . S
C349 C347 1.400 . S
C349 N348 1.321 1_455 S
C349 H356 0.930 . S
C350 C345 1.395 1_455 S
C350 C347 1.386 . S
C350 H369 0.930 . S
Eu351 N348 2.609 . S
Eu351 N352 2.657 . S
Eu351 O385 2.380 1_655 S
Eu351 O386 2.432 1_655 S
Eu351 O390 2.558 . S
Eu351 O391 2.612 1_655 S
Eu351 O393 2.339 . S
Eu351 O394 2.563 . S
Eu351 O395 2.419 . S
Eu351 C415 2.848 . S
N352 C344 1.362 . S
N352 Eu351 2.657 . S
N352 C353 1.334 . S
C353 N352 1.334 . S
C353 C355 1.413 . S
C353 H360 0.929 . S
C354 C342 1.392 . S
C354 C355 1.367 . S
C354 H362 0.930 . S
C355 C353 1.413 . S
C355 C354 1.367 . S
C355 H357 0.930 . S
H356 C349 0.930 . S
H357 C355 0.930 . S
H358 C346 0.930 . S
H359 C347 0.930 . S
H360 C353 0.929 . S
H361 C375 0.930 . S
H362 C354 0.930 . S
H363 C381 0.930 1_655 S
H364 C372 0.929 . S
H365 C379 0.930 1_655 S
H366 C343 0.931 . S
H367 C373 0.930 . S
H368 C406 0.930 . S
H369 C350 0.930 . S
H370 C405 0.931 . S
N371 Eu340 2.657 . S
N371 C372 1.334 . S
N371 C376 1.362 . S
C372 H364 0.929 . S
C372 N371 1.334 . S
C372 C375 1.413 . S
C373 H367 0.930 . S
C373 C374 1.392 . S
C373 C375 1.367 . S
C374 C373 1.392 . S
C374 C376 1.420 . S
C374 C406 1.423 . S
C375 H361 0.930 . S
C375 C372 1.413 . S
C375 C373 1.367 . S
C376 N371 1.362 . S
C376 C374 1.420 . S
C376 C380 1.429 . S
H377 C382 0.930 . S
N378 Eu340 2.609 . S
N378 C380 1.377 . S
N378 C381 1.321 . S
C379 H365 0.930 1_455 S
C379 C381 1.400 . S
C379 C382 1.386 . S
C380 C376 1.429 . S
C380 N378 1.377 . S
C380 C383 1.411 . S
C381 H363 0.930 1_455 S
C381 N378 1.321 . S
C381 C379 1.400 . S
C382 H377 0.930 . S
C382 C379 1.386 . S
C382 C383 1.395 . S
C383 C380 1.411 . S
C383 C382 1.395 . S
C383 C405 1.420 . S
O384 Eu340 2.558 . S
O384 C404 1.257 . S
O385 Eu340 2.612 . S
O385 Eu351 2.380 1_455 S
O385 C396 1.276 . S
O386 Eu351 2.432 1_455 S
O386 C403 1.264 . S
O387 Eu340 2.339 . S
O387 C403 1.254 . S
O388 Eu340 2.563 . S
O388 C396 1.235 . S
O389 Eu340 2.419 . S
O389 C404 1.249 . S
O390 Eu351 2.558 . S
O390 C415 1.257 . S
O391 Eu340 2.380 . S
O391 Eu351 2.612 1_455 S
O391 C407 1.276 1_455 S
O392 Eu340 2.432 1_655 S
O392 C414 1.264 . S
O393 Eu351 2.339 . S
O393 C414 1.254 . S
O394 Eu351 2.563 . S
O394 C407 1.235 . S
O395 Eu351 2.419 . S
O395 C415 1.249 . S
C396 O385 1.276 . S
C396 O388 1.235 . S
C397 C399 1.393 . S
C397 C401 1.395 . S
C397 C404 1.492 . S
C398 C399 1.392 . S
C398 C400 1.386 . S
C399 C397 1.393 . S
C399 C398 1.392 . S
C399 H416 0.930 . S
C400 C398 1.386 . S
C400 C402 1.395 . S
C400 H417 0.930 . S
C401 C397 1.395 . S
C401 C402 1.379 . S
C401 H418 0.930 . S
C402 C400 1.395 . S
C402 C401 1.379 . S
C402 H419 0.930 . S
C403 O386 1.264 . S
C403 O387 1.254 . S
C404 Eu340 2.848 . S
C404 O384 1.257 . S
C404 O389 1.249 . S
C404 C397 1.492 . S
C405 H370 0.931 . S
C405 C383 1.420 . S
C405 C406 1.351 . S
C406 H368 0.930 . S
C406 C374 1.423 . S
C406 C405 1.351 . S
C407 O391 1.276 1_655 S
C407 O394 1.235 . S
C408 C409 1.393 . S
C408 C412 1.395 . S
C408 C415 1.492 . S
C409 C408 1.393 . S
C409 C410 1.392 . S
C409 H420 0.930 . S
C410 C409 1.392 . S
C410 C411 1.386 . S
C411 C410 1.386 . S
C411 C413 1.395 . S
C411 H421 0.930 . S
C412 C408 1.395 . S
C412 C413 1.379 . S
C412 H422 0.930 . S
C413 C411 1.395 . S
C413 C412 1.379 . S
C413 H423 0.930 1_556 S
C414 O392 1.264 . S
C414 O393 1.254 . S
C415 Eu351 2.848 . S
C415 O390 1.257 . S
C415 O395 1.249 . S
C415 C408 1.492 . S
H416 C399 0.930 . S
H417 C400 0.930 . S
H418 C401 0.930 . S
H419 C402 0.930 . S
H420 C409 0.930 . S
H421 C411 0.930 . S
H422 C412 0.930 . S
H423 C413 0.930 1_554 S
H424 C432 0.929 . S
H425 C434 0.930 . S
H426 C436 0.930 . S
H427 C439 0.929 . S
H428 C442 0.930 . S
H429 C444 0.960 . S
H430 C444 0.960 . S
H431 C444 0.960 . S
C432 H424 0.929 . S
C432 C433 1.377 . S
C432 C434 1.384 . S
C433 C432 1.377 . S
C433 C439 1.390 . S
C434 H425 0.930 . S
C434 C432 1.384 . S
C434 C435 1.372 . S
C435 C434 1.372 . S
C435 C436 1.400 . S
C435 C440 1.490 . S
C436 H426 0.930 . S
C436 C435 1.400 . S
C436 C439 1.386 . S
H437 C453 0.930 . S
H438 C454 0.931 . S
C439 H427 0.929 . S
C439 C433 1.390 . S
C439 C436 1.386 . S
C440 C435 1.490 . S
C440 C442 1.395 . S
C440 C443 1.403 . S
H441 C447 0.930 . S
C442 H428 0.930 . S
C442 C440 1.395 . S
C442 C445 1.403 . S
C443 C440 1.403 . S
C443 C444 1.524 . S
C443 C447 1.400 . S
C444 H429 0.960 . S
C444 H430 0.960 . S
C444 H431 0.960 . S
C444 C443 1.524 . S
C445 C442 1.403 . S
C445 C446 1.392 . S
C445 C449 1.495 . S
C446 C445 1.392 . S
C446 C447 1.385 . S
C446 C448 1.478 . S
C447 H441 0.930 . S
C447 C443 1.400 . S
C447 C446 1.385 . S
C448 C446 1.478 . S
C448 C450 1.381 . S
C448 C454 1.383 . S
C449 C445 1.495 . S
C449 H455 0.959 . S
C449 H456 0.961 . S
C449 H457 0.960 . S
C450 C448 1.381 . S
C450 C451 1.394 . S
C450 H458 0.930 . S
C451 C450 1.394 . S
C451 C452 1.383 . S
C451 H459 0.929 . S
C452 C451 1.383 . S
C452 C453 1.377 . S
C453 H437 0.930 . S
C453 C452 1.377 . S
C453 C454 1.379 . S
C454 H438 0.931 . S
C454 C448 1.383 . S
C454 C453 1.379 . S
H455 C449 0.959 . S
H456 C449 0.961 . S
H457 C449 0.960 . S
H458 C450 0.930 . S
H459 C451 0.929 . S
H460 C468 0.929 . S
H461 C470 0.930 . S
H462 C472 0.930 . S
H463 C475 0.929 . S
H464 C478 0.930 . S
H465 C480 0.960 . S
H466 C480 0.960 . S
H467 C480 0.960 . S
C468 H460 0.929 . S
C468 C469 1.377 . S
C468 C470 1.384 . S
C469 C468 1.377 . S
C469 C475 1.390 . S
C470 H461 0.930 . S
C470 C468 1.384 . S
C470 C471 1.372 . S
C471 C470 1.372 . S
C471 C472 1.400 . S
C471 C476 1.490 . S
C472 H462 0.930 . S
C472 C471 1.400 . S
C472 C475 1.386 . S
H473 C489 0.930 . S
H474 C490 0.931 . S
C475 H463 0.929 . S
C475 C469 1.390 . S
C475 C472 1.386 . S
C476 C471 1.490 . S
C476 C478 1.395 . S
C476 C479 1.403 . S
H477 C483 0.930 . S
C478 H464 0.930 . S
C478 C476 1.395 . S
C478 C481 1.403 . S
C479 C476 1.403 . S
C479 C480 1.524 . S
C479 C483 1.400 . S
C480 H465 0.960 . S
C480 H466 0.960 . S
C480 H467 0.960 . S
C480 C479 1.524 . S
C481 C478 1.403 . S
C481 C482 1.392 . S
C481 C485 1.495 . S
C482 C481 1.392 . S
C482 C483 1.385 . S
C482 C484 1.478 . S
C483 H477 0.930 . S
C483 C479 1.400 . S
C483 C482 1.385 . S
C484 C482 1.478 . S
C484 C486 1.381 . S
C484 C490 1.383 . S
C485 C481 1.495 . S
C485 H491 0.959 . S
C485 H492 0.961 . S
C485 H493 0.960 . S
C486 C484 1.381 . S
C486 C487 1.394 . S
C486 H494 0.930 . S
C487 C486 1.394 . S
C487 C488 1.383 . S
C487 H495 0.929 . S
C488 C487 1.383 . S
C488 C489 1.377 . S
C489 H473 0.930 . S
C489 C488 1.377 . S
C489 C490 1.379 . S
C490 H474 0.931 . S
C490 C484 1.383 . S
C490 C489 1.379 . S
H491 C485 0.959 . S
H492 C485 0.961 . S
H493 C485 0.960 . S
H494 C486 0.930 . S
H495 C487 0.929 . S
H496 C504 0.929 . S
H497 C506 0.930 . S
H498 C508 0.930 . S
H499 C511 0.929 . S
H500 C514 0.930 . S
H501 C516 0.960 . S
H502 C516 0.960 . S
H503 C516 0.960 . S
C504 H496 0.929 . S
C504 C505 1.377 . S
C504 C506 1.384 . S
C505 C504 1.377 . S
C505 C511 1.390 . S
C506 H497 0.930 . S
C506 C504 1.384 . S
C506 C507 1.372 . S
C507 C506 1.372 . S
C507 C508 1.400 . S
C507 C512 1.490 . S
C508 H498 0.930 . S
C508 C507 1.400 . S
C508 C511 1.386 . S
H509 C525 0.930 . S
H510 C526 0.931 . S
C511 H499 0.929 . S
C511 C505 1.390 . S
C511 C508 1.386 . S
C512 C507 1.490 . S
C512 C514 1.395 . S
C512 C515 1.403 . S
H513 C519 0.930 . S
C514 H500 0.930 . S
C514 C512 1.395 . S
C514 C517 1.403 . S
C515 C512 1.403 . S
C515 C516 1.524 . S
C515 C519 1.400 . S
C516 H501 0.960 . S
C516 H502 0.960 . S
C516 H503 0.960 . S
C516 C515 1.524 . S
C517 C514 1.403 . S
C517 C518 1.392 . S
C517 C521 1.495 . S
C518 C517 1.392 . S
C518 C519 1.385 . S
C518 C520 1.478 . S
C519 H513 0.930 . S
C519 C515 1.400 . S
C519 C518 1.385 . S
C520 C518 1.478 . S
C520 C522 1.381 . S
C520 C526 1.383 . S
C521 C517 1.495 . S
C521 H527 0.959 . S
C521 H528 0.961 . S
C521 H529 0.960 . S
C522 C520 1.381 . S
C522 C523 1.394 . S
C522 H530 0.930 . S
C523 C522 1.394 . S
C523 C524 1.383 . S
C523 H531 0.929 . S
C524 C523 1.383 . S
C524 C525 1.377 . S
C525 H509 0.930 . S
C525 C524 1.377 . S
C525 C526 1.379 . S
C526 H510 0.931 . S
C526 C520 1.383 . S
C526 C525 1.379 . S
H527 C521 0.959 . S
H528 C521 0.961 . S
H529 C521 0.960 . S
H530 C522 0.930 . S
H531 C523 0.929 . S
H532 C540 0.929 . S
H533 C542 0.930 . S
H534 C544 0.930 . S
H535 C547 0.929 . S
H536 C550 0.930 . S
H537 C552 0.960 . S
H538 C552 0.960 . S
H539 C552 0.960 . S
C540 H532 0.929 . S
C540 C541 1.377 . S
C540 C542 1.384 . S
C541 C540 1.377 . S
C541 C547 1.390 . S
C542 H533 0.930 . S
C542 C540 1.384 . S
C542 C543 1.372 . S
C543 C542 1.372 . S
C543 C544 1.400 . S
C543 C548 1.490 . S
C544 H534 0.930 . S
C544 C543 1.400 . S
C544 C547 1.386 . S
H545 C561 0.930 . S
H546 C562 0.931 . S
C547 H535 0.929 . S
C547 C541 1.390 . S
C547 C544 1.386 . S
C548 C543 1.490 . S
C548 C550 1.395 . S
C548 C551 1.403 . S
H549 C555 0.930 . S
C550 H536 0.930 . S
C550 C548 1.395 . S
C550 C553 1.403 . S
C551 C548 1.403 . S
C551 C552 1.524 . S
C551 C555 1.400 . S
C552 H537 0.960 . S
C552 H538 0.960 . S
C552 H539 0.960 . S
C552 C551 1.524 . S
C553 C550 1.403 . S
C553 C554 1.392 . S
C553 C557 1.495 . S
C554 C553 1.392 . S
C554 C555 1.385 . S
C554 C556 1.478 . S
C555 H549 0.930 . S
C555 C551 1.400 . S
C555 C554 1.385 . S
C556 C554 1.478 . S
C556 C558 1.381 . S
C556 C562 1.383 . S
C557 C553 1.495 . S
C557 H563 0.959 . S
C557 H564 0.961 . S
C557 H565 0.960 . S
C558 C556 1.381 . S
C558 C559 1.394 . S
C558 H566 0.930 . S
C559 C558 1.394 . S
C559 C560 1.383 . S
C559 H567 0.929 1_455 S
C560 C559 1.383 . S
C560 C561 1.377 . S
C561 H545 0.930 . S
C561 C560 1.377 . S
C561 C562 1.379 . S
C562 H546 0.931 . S
C562 C556 1.383 . S
C562 C561 1.379 . S
H563 C557 0.959 . S
H564 C557 0.961 . S
H565 C557 0.960 . S
H566 C558 0.930 . S
H567 C559 0.929 1_655 S
H568 C576 0.929 . S
H569 C578 0.926 1_556 S
H570 C580 0.930 . S
H571 C583 0.929 . S
H572 C586 0.930 . S
H573 C588 0.960 . S
H574 C588 0.960 . S
H575 C588 0.960 . S
C576 H568 0.929 . S
C576 C577 1.377 . S
C576 C578 1.384 . S
C577 C576 1.377 . S
C577 C583 1.390 . S
C578 H569 0.926 1_554 S
C578 C576 1.384 . S
C578 C579 1.372 . S
C579 C578 1.372 . S
C579 C580 1.400 . S
C579 C584 1.490 1_554 S
C580 H570 0.930 . S
C580 C579 1.400 . S
C580 C583 1.386 . S
H581 C597 0.930 . S
H582 C598 0.931 . S
C583 H571 0.929 . S
C583 C577 1.390 . S
C583 C580 1.386 . S
C584 C579 1.490 1_556 S
C584 C586 1.395 . S
C584 C587 1.403 . S
H585 C591 0.930 . S
C586 H572 0.930 . S
C586 C584 1.395 . S
C586 C589 1.403 . S
C587 C584 1.403 . S
C587 C588 1.524 1_556 S
C587 C591 1.400 . S
C588 H573 0.960 . S
C588 H574 0.960 . S
C588 H575 0.960 . S
C588 C587 1.524 1_554 S
C589 C586 1.403 . S
C589 C590 1.392 . S
C589 C593 1.495 . S
C590 C589 1.392 . S
C590 C591 1.385 . S
C590 C592 1.478 . S
C591 H585 0.930 . S
C591 C587 1.400 . S
C591 C590 1.385 . S
C592 C590 1.478 . S
C592 C594 1.381 . S
C592 C598 1.383 1_565 S
C593 C589 1.495 . S
C593 H599 0.959 . S
C593 H600 0.961 . S
C593 H601 0.960 . S
C594 C592 1.381 . S
C594 C595 1.394 . S
C594 H602 0.930 . S
C595 C594 1.394 . S
C595 C596 1.383 . S
C595 H603 0.929 . S
C596 C595 1.383 . S
C596 C597 1.377 1_565 S
C597 H581 0.930 . S
C597 C596 1.377 1_545 S
C597 C598 1.379 . S
C598 H582 0.931 . S
C598 C592 1.383 1_545 S
C598 C597 1.379 . S
H599 C593 0.959 . S
H600 C593 0.961 . S
H601 C593 0.960 . S
H602 C594 0.930 . S
H603 C595 0.929 . S
H604 C612 0.929 . S
H605 C614 0.930 . S
H606 C616 0.930 . S
H607 C619 0.929 . S
H608 C622 0.930 1_554 S
H609 C624 0.960 . S
H610 C624 0.960 . S
H611 C624 0.960 . S
C612 H604 0.929 . S
C612 C613 1.377 . S
C612 C614 1.384 . S
C613 C612 1.377 . S
C613 C619 1.390 . S
C614 H605 0.930 . S
C614 C612 1.384 . S
C614 C615 1.372 . S
C615 C614 1.372 . S
C615 C616 1.400 . S
C615 C620 1.490 1_554 S
C616 H606 0.930 . S
C616 C615 1.400 . S
C616 C619 1.386 . S
H617 C633 0.930 . S
H618 C634 0.931 . S
C619 H607 0.929 . S
C619 C613 1.390 . S
C619 C616 1.386 . S
C620 C615 1.490 1_556 S
C620 C622 1.395 . S
C620 C623 1.403 . S
H621 C627 0.930 . S
C622 H608 0.930 1_556 S
C622 C620 1.395 . S
C622 C625 1.403 . S
C623 C620 1.403 . S
C623 C624 1.524 . S
C623 C627 1.400 . S
C624 H609 0.960 . S
C624 H610 0.960 . S
C624 H611 0.960 . S
C624 C623 1.524 . S
C625 C622 1.403 . S
C625 C626 1.392 . S
C625 C629 1.495 . S
C626 C625 1.392 . S
C626 C627 1.385 . S
C626 C628 1.478 . S
C627 H621 0.930 . S
C627 C623 1.400 . S
C627 C626 1.385 . S
C628 C626 1.478 . S
C628 C630 1.381 . S
C628 C634 1.383 . S
C629 C625 1.495 . S
C629 H635 0.959 . S
C629 H636 0.961 . S
C629 H637 0.960 . S
C630 C628 1.381 . S
C630 C631 1.394 . S
C630 H638 0.930 . S
C631 C630 1.394 . S
C631 C632 1.383 . S
C631 H639 0.929 . S
C632 C631 1.383 . S
C632 C633 1.377 . S
C633 H617 0.930 . S
C633 C632 1.377 . S
C633 C634 1.379 . S
C634 H618 0.931 . S
C634 C628 1.383 . S
C634 C633 1.379 . S
H635 C629 0.959 . S
H636 C629 0.961 . S
H637 C629 0.960 . S
H638 C630 0.930 . S
H639 C631 0.929 . S
H640 C648 0.929 . S
H641 C650 0.930 . S
H642 C652 0.930 . S
H643 C655 0.929 . S
H644 C658 0.930 . S
H645 C660 0.960 . S
H646 C660 0.960 . S
H647 C660 0.960 . S
C648 H640 0.929 . S
C648 C649 1.377 . S
C648 C650 1.384 . S
C649 C648 1.377 . S
C649 C655 1.390 . S
C650 H641 0.930 . S
C650 C648 1.384 . S
C650 C651 1.372 . S
C651 C650 1.372 . S
C651 C652 1.400 . S
C651 C656 1.490 1_554 S
C652 H642 0.930 . S
C652 C651 1.400 . S
C652 C655 1.386 . S
H653 C669 0.930 . S
H654 C670 0.931 . S
C655 H643 0.929 . S
C655 C649 1.390 . S
C655 C652 1.386 . S
C656 C651 1.490 1_556 S
C656 C658 1.395 . S
C656 C659 1.403 . S
H657 C663 0.930 . S
C658 H644 0.930 . S
C658 C656 1.395 . S
C658 C661 1.403 . S
C659 C656 1.403 . S
C659 C660 1.524 1_556 S
C659 C663 1.400 . S
C660 H645 0.960 . S
C660 H646 0.960 . S
C660 H647 0.960 . S
C660 C659 1.524 1_554 S
C661 C658 1.403 . S
C661 C662 1.392 . S
C661 C665 1.495 . S
C662 C661 1.392 . S
C662 C663 1.385 . S
C662 C664 1.478 . S
C663 H657 0.930 . S
C663 C659 1.400 . S
C663 C662 1.385 . S
C664 C662 1.478 . S
C664 C666 1.381 . S
C664 C670 1.383 . S
C665 C661 1.495 . S
C665 H671 0.959 . S
C665 H672 0.961 . S
C665 H673 0.960 . S
C666 C664 1.381 . S
C666 C667 1.394 . S
C666 H674 0.930 . S
C667 C666 1.394 . S
C667 C668 1.383 . S
C667 H675 0.929 . S
C668 C667 1.383 . S
C668 C669 1.377 . S
C669 H653 0.930 . S
C669 C668 1.377 . S
C669 C670 1.379 . S
C670 H654 0.931 . S
C670 C664 1.383 . S
C670 C669 1.379 . S
H671 C665 0.959 . S
H672 C665 0.961 . S
H673 C665 0.960 . S
H674 C666 0.930 . S
H675 C667 0.929 . S
H676 C684 0.929 . S
H677 C686 0.930 1_556 S
H678 C688 0.930 . S
H679 C691 0.929 . S
H680 C694 0.930 . S
H681 C696 0.960 . S
H682 C696 0.960 . S
H683 C696 0.960 . S
C684 H676 0.929 . S
C684 C685 1.377 . S
C684 C686 1.384 . S
C685 C684 1.377 . S
C685 C691 1.390 . S
C686 H677 0.930 1_554 S
C686 C684 1.384 . S
C686 C687 1.372 . S
C687 C686 1.372 . S
C687 C688 1.400 . S
C687 C692 1.490 1_554 S
C688 H678 0.930 . S
C688 C687 1.400 . S
C688 C691 1.386 . S
H689 C705 0.930 . S
H690 C706 0.931 . S
C691 H679 0.929 . S
C691 C685 1.390 . S
C691 C688 1.386 . S
C692 C687 1.490 1_556 S
C692 C694 1.395 . S
C692 C695 1.403 . S
H693 C699 0.930 . S
C694 H680 0.930 . S
C694 C692 1.395 . S
C694 C697 1.403 . S
C695 C692 1.403 . S
C695 C696 1.524 . S
C695 C699 1.400 . S
C696 H681 0.960 . S
C696 H682 0.960 . S
C696 H683 0.960 . S
C696 C695 1.524 . S
C697 C694 1.403 . S
C697 C698 1.392 . S
C697 C701 1.495 1_655 S
C698 C697 1.392 . S
C698 C699 1.385 . S
C698 C700 1.478 . S
C699 H693 0.930 . S
C699 C695 1.400 . S
C699 C698 1.385 . S
C700 C698 1.478 . S
C700 C702 1.381 . S
C700 C706 1.383 . S
C701 C697 1.495 1_455 S
C701 H707 0.959 . S
C701 H708 0.961 . S
C701 H709 0.960 . S
C702 C700 1.381 . S
C702 C703 1.394 . S
C702 H710 0.930 . S
C703 C702 1.394 . S
C703 C704 1.383 . S
C703 H711 0.929 1_655 S
C704 C703 1.383 . S
C704 C705 1.377 . S
C705 H689 0.930 . S
C705 C704 1.377 . S
C705 C706 1.379 . S
C706 H690 0.931 . S
C706 C700 1.383 . S
C706 C705 1.379 . S
H707 C701 0.959 . S
H708 C701 0.961 . S
H709 C701 0.960 . S
H710 C702 0.930 . S
H711 C703 0.929 1_455 S
H712 C720 0.929 . S
H713 C722 0.930 . S
H714 C724 0.930 . S
H715 C727 0.929 . S
H716 C730 0.930 . S
H717 C732 0.960 1_655 S
H718 C732 0.960 . S
H719 C732 0.960 . S
C720 H712 0.929 . S
C720 C721 1.377 . S
C720 C722 1.384 . S
C721 C720 1.377 . S
C721 C727 1.390 . S
C722 H713 0.930 . S
C722 C720 1.384 . S
C722 C723 1.372 . S
C723 C722 1.372 . S
C723 C724 1.400 . S
C723 C728 1.490 . S
C724 H714 0.930 . S
C724 C723 1.400 . S
C724 C727 1.386 . S
H725 C741 0.930 1_655 S
H726 C742 0.931 . S
C727 H715 0.929 . S
C727 C721 1.390 . S
C727 C724 1.386 . S
C728 C723 1.490 . S
C728 C730 1.395 . S
C728 C731 1.403 . S
H729 C735 0.930 . S
C730 H716 0.930 . S
C730 C728 1.395 . S
C730 C733 1.403 . S
C731 C728 1.403 . S
C731 C732 1.524 . S
C731 C735 1.400 . S
C732 H717 0.960 1_455 S
C732 H718 0.960 . S
C732 H719 0.960 . S
C732 C731 1.524 . S
C733 C730 1.403 . S
C733 C734 1.392 . S
C733 C737 1.495 . S
C734 C733 1.392 . S
C734 C735 1.385 . S
C734 C736 1.478 . S
C735 H729 0.930 . S
C735 C731 1.400 . S
C735 C734 1.385 . S
C736 C734 1.478 . S
C736 C738 1.381 . S
C736 C742 1.383 . S
C737 C733 1.495 . S
C737 H743 0.959 . S
C737 H744 0.961 . S
C737 H745 0.960 . S
C738 C736 1.381 . S
C738 C739 1.394 . S
C738 H746 0.930 . S
C739 C738 1.394 . S
C739 C740 1.383 . S
C739 H747 0.929 . S
C740 C739 1.383 . S
C740 C741 1.377 . S
C741 H725 0.930 1_455 S
C741 C740 1.377 . S
C741 C742 1.379 . S
C742 H726 0.931 . S
C742 C736 1.383 . S
C742 C741 1.379 . S
H743 C737 0.959 . S
H744 C737 0.961 . S
H745 C737 0.960 . S
H746 C738 0.930 . S
H747 C739 0.929 . S
H748 C756 0.929 . S
H749 C758 0.930 . S
H750 C760 0.930 . S
H751 C763 0.929 . S
H752 C766 0.930 . S
H753 C768 0.960 . S
H754 C768 0.960 . S
H755 C768 0.960 . S
C756 H748 0.929 . S
C756 C757 1.377 . S
C756 C758 1.384 . S
C757 C756 1.377 . S
C757 C763 1.390 . S
C758 H749 0.930 . S
C758 C756 1.384 . S
C758 C759 1.372 . S
C759 C758 1.372 . S
C759 C760 1.400 . S
C759 C764 1.490 . S
C760 H750 0.930 . S
C760 C759 1.400 . S
C760 C763 1.386 . S
H761 C777 0.930 . S
H762 C778 0.931 . S
C763 H751 0.929 . S
C763 C757 1.390 . S
C763 C760 1.386 . S
C764 C759 1.490 . S
C764 C766 1.395 . S
C764 C767 1.403 . S
H765 C771 0.930 . S
C766 H752 0.930 . S
C766 C764 1.395 . S
C766 C769 1.403 . S
C767 C764 1.403 . S
C767 C768 1.524 . S
C767 C771 1.400 . S
C768 H753 0.960 . S
C768 H754 0.960 . S
C768 H755 0.960 . S
C768 C767 1.524 . S
C769 C766 1.403 . S
C769 C770 1.392 . S
C769 C773 1.495 . S
C770 C769 1.392 . S
C770 C771 1.385 . S
C770 C772 1.478 . S
C771 H765 0.930 . S
C771 C767 1.400 . S
C771 C770 1.385 . S
C772 C770 1.478 . S
C772 C774 1.375 . S
C772 C778 1.383 . S
C773 C769 1.495 . S
C773 H779 0.959 . S
C773 H780 0.961 . S
C773 H781 0.960 1_545 S
C774 C772 1.375 . S
C774 C775 1.396 1_545 S
C774 H782 0.934 1_545 S
C775 C774 1.396 1_565 S
C775 C776 1.383 1_565 S
C775 H783 0.929 . S
C776 C775 1.383 1_545 S
C776 C777 1.377 . S
C777 H761 0.930 . S
C777 C776 1.377 . S
C777 C778 1.379 . S
C778 H762 0.931 . S
C778 C772 1.383 . S
C778 C777 1.379 . S
H779 C773 0.959 . S
H780 C773 0.961 . S
H781 C773 0.960 1_565 S
H782 C774 0.934 1_565 S
H783 C775 0.929 . S
H784 C792 0.929 . S
H785 C794 0.930 . S
H786 C796 0.930 . S
H787 C799 0.929 . S
H788 C802 0.930 . S
H789 C804 0.960 . S
H790 C804 0.960 . S
H791 C804 0.960 . S
C792 H784 0.929 . S
C792 C793 1.377 . S
C792 C794 1.384 . S
C793 C792 1.377 . S
C793 C799 1.390 . S
C794 H785 0.930 . S
C794 C792 1.384 . S
C794 C795 1.372 . S
C795 C794 1.372 . S
C795 C796 1.400 . S
C795 C800 1.490 . S
C796 H786 0.930 . S
C796 C795 1.400 . S
C796 C799 1.386 . S
H797 C813 0.930 . S
H798 C814 0.931 . S
C799 H787 0.929 . S
C799 C793 1.390 . S
C799 C796 1.386 . S
C800 C795 1.490 . S
C800 C802 1.395 . S
C800 C803 1.403 . S
H801 C807 0.930 . S
C802 H788 0.930 . S
C802 C800 1.395 . S
C802 C805 1.403 . S
C803 C800 1.403 . S
C803 C804 1.524 . S
C803 C807 1.400 . S
C804 H789 0.960 . S
C804 H790 0.960 . S
C804 H791 0.960 . S
C804 C803 1.524 . S
C805 C802 1.403 . S
C805 C806 1.392 . S
C805 C809 1.495 . S
C806 C805 1.392 . S
C806 C807 1.385 . S
C806 C808 1.478 . S
C807 H801 0.930 . S
C807 C803 1.400 . S
C807 C806 1.385 . S
C808 C806 1.478 . S
C808 C810 1.381 . S
C808 C814 1.383 . S
C809 C805 1.495 . S
C809 H815 0.959 . S
C809 H816 0.961 . S
C809 H817 0.960 . S
C810 C808 1.381 . S
C810 C811 1.394 . S
C810 H818 0.930 . S
C811 C810 1.394 . S
C811 C812 1.383 . S
C811 H819 0.929 . S
C812 C811 1.383 . S
C812 C813 1.377 . S
C813 H797 0.930 . S
C813 C812 1.377 . S
C813 C814 1.379 . S
C814 H798 0.931 . S
C814 C808 1.383 . S
C814 C813 1.379 . S
H815 C809 0.959 . S
H816 C809 0.961 . S
H817 C809 0.960 . S
H818 C810 0.930 . S
H819 C811 0.929 . S
H820 C828 0.929 . S
H821 C830 0.930 . S
H822 C832 0.930 . S
H823 C835 0.927 1_556 S
H824 C838 0.930 . S
H825 C840 0.960 . S
H826 C840 0.960 . S
H827 C840 0.960 . S
C828 H820 0.929 . S
C828 C829 1.377 . S
C828 C830 1.384 . S
C829 C828 1.377 . S
C829 C835 1.390 . S
C830 H821 0.930 . S
C830 C828 1.384 . S
C830 C831 1.372 . S
C831 C830 1.372 . S
C831 C832 1.400 . S
C831 C836 1.490 . S
C832 H822 0.930 . S
C832 C831 1.400 . S
C832 C835 1.386 . S
H833 C849 0.930 . S
H834 C850 0.931 . S
C835 H823 0.927 1_554 S
C835 C829 1.390 . S
C835 C832 1.386 . S
C836 C831 1.490 . S
C836 C838 1.395 . S
C836 C839 1.403 . S
H837 C843 0.930 . S
C838 H824 0.930 . S
C838 C836 1.395 . S
C838 C841 1.403 . S
C839 C836 1.403 . S
C839 C840 1.524 . S
C839 C843 1.400 . S
C840 H825 0.960 . S
C840 H826 0.960 . S
C840 H827 0.960 . S
C840 C839 1.524 . S
C841 C838 1.403 . S
C841 C842 1.392 . S
C841 C845 1.495 . S
C842 C841 1.392 . S
C842 C843 1.385 . S
C842 C844 1.478 . S
C843 H837 0.930 . S
C843 C839 1.400 . S
C843 C842 1.385 . S
C844 C842 1.478 . S
C844 C846 1.381 . S
C844 C850 1.383 . S
C845 C841 1.495 . S
C845 H851 0.959 . S
C845 H852 0.961 . S
C845 H853 0.960 . S
C846 C844 1.381 . S
C846 C847 1.394 . S
C846 H854 0.930 . S
C847 C846 1.394 . S
C847 C848 1.383 . S
C847 H855 0.929 . S
C848 C847 1.383 . S
C848 C849 1.377 . S
C849 H833 0.930 . S
C849 C848 1.377 . S
C849 C850 1.379 . S
C850 H834 0.931 . S
C850 C844 1.383 . S
C850 C849 1.379 . S
H851 C845 0.959 . S
H852 C845 0.961 . S
H853 C845 0.960 . S
H854 C846 0.930 . S
H855 C847 0.929 . S
H856 C864 0.929 . S
H857 C866 0.930 . S
H858 C868 0.930 . S
H859 C871 0.929 . S
H860 C874 0.930 . S
H861 C876 0.960 . S
H862 C876 0.960 . S
H863 C876 0.960 . S
C864 H856 0.929 . S
C864 C865 1.377 . S
C864 C866 1.384 . S
C865 C864 1.377 . S
C865 C871 1.390 . S
C866 H857 0.930 . S
C866 C864 1.384 . S
C866 C867 1.372 . S
C867 C866 1.372 . S
C867 C868 1.400 . S
C867 C872 1.490 . S
C868 H858 0.930 . S
C868 C867 1.400 . S
C868 C871 1.386 . S
H869 C885 0.930 . S
H870 C886 0.931 . S
C871 H859 0.929 . S
C871 C865 1.390 . S
C871 C868 1.386 . S
C872 C867 1.490 . S
C872 C874 1.395 1_554 S
C872 C875 1.403 . S
H873 C879 0.930 . S
C874 H860 0.930 . S
C874 C872 1.395 1_556 S
C874 C877 1.403 . S
C875 C872 1.403 . S
C875 C876 1.524 . S
C875 C879 1.400 . S
C876 H861 0.960 . S
C876 H862 0.960 . S
C876 H863 0.960 . S
C876 C875 1.524 . S
C877 C874 1.403 . S
C877 C878 1.392 . S
C877 C881 1.495 1_655 S
C878 C877 1.392 . S
C878 C879 1.385 1_556 S
C878 C880 1.478 . S
C879 H873 0.930 . S
C879 C875 1.400 . S
C879 C878 1.385 1_554 S
C880 C878 1.478 . S
C880 C882 1.381 1_655 S
C880 C886 1.383 . S
C881 C877 1.495 1_455 S
C881 H887 0.959 . S
C881 H888 0.956 1_455 S
C881 H889 0.960 . S
C882 C880 1.381 1_455 S
C882 C883 1.394 . S
C882 H890 0.930 . S
C883 C882 1.394 . S
C883 C884 1.383 . S
C883 H891 0.929 . S
C884 C883 1.383 . S
C884 C885 1.377 1_455 S
C885 H869 0.930 . S
C885 C884 1.377 1_655 S
C885 C886 1.379 . S
C886 H870 0.931 . S
C886 C880 1.383 . S
C886 C885 1.379 . S
H887 C881 0.959 . S
H888 C881 0.956 1_655 S
H889 C881 0.960 . S
H890 C882 0.930 . S
H891 C883 0.929 . S
H892 C900 0.929 . S
H893 C902 0.930 . S
H894 C904 0.930 . S
H895 C907 0.929 . S
H896 C910 0.902 1_545 S
H897 C912 0.960 . S
H898 C912 0.960 . S
H899 C912 0.960 . S
C900 H892 0.929 . S
C900 C901 1.377 . S
C900 C902 1.384 . S
C901 C900 1.377 . S
C901 C907 1.390 . S
C902 H893 0.930 . S
C902 C900 1.384 . S
C902 C903 1.372 . S
C903 C902 1.372 . S
C903 C904 1.400 . S
C903 C908 1.490 . S
C904 H894 0.930 . S
C904 C903 1.400 . S
C904 C907 1.386 . S
H905 C921 0.930 . S
H906 C922 0.931 . S
C907 H895 0.929 . S
C907 C901 1.390 . S
C907 C904 1.386 . S
C908 C903 1.490 . S
C908 C910 1.395 . S
C908 C911 1.403 . S
H909 C915 0.931 . S
C910 H896 0.902 1_565 S
C910 C908 1.395 . S
C910 C913 1.403 1_564 S
C911 C908 1.403 . S
C911 C912 1.524 . S
C911 C915 1.397 1_554 S
C912 H897 0.960 . S
C912 H898 0.960 . S
C912 H899 0.960 . S
C912 C911 1.524 . S
C913 C910 1.403 1_546 S
C913 C914 1.392 1_545 S
C913 C917 1.495 . S
C914 C913 1.392 1_565 S
C914 C915 1.387 . S
C914 C916 1.478 . S
C915 H909 0.931 . S
C915 C911 1.397 1_556 S
C915 C914 1.387 . S
C916 C914 1.478 . S
C916 C918 1.381 1_565 S
C916 C922 1.383 . S
C917 C913 1.495 . S
C917 H923 0.959 . S
C917 H924 0.961 . S
C917 H925 0.960 . S
C918 C916 1.381 1_545 S
C918 C919 1.394 . S
C918 H926 0.930 . S
C919 C918 1.394 . S
C919 C920 1.383 . S
C919 H927 0.929 . S
C920 C919 1.383 . S
C920 C921 1.377 1_545 S
C921 H905 0.930 . S
C921 C920 1.377 1_565 S
C921 C922 1.379 . S
C922 H906 0.931 . S
C922 C916 1.383 . S
C922 C921 1.379 . S
H923 C917 0.959 . S
H924 C917 0.961 . S
H925 C917 0.960 . S
H926 C918 0.930 . S
H927 C919 0.929 . S
H928 C936 0.929 . S
H929 C938 0.930 . S
H930 C940 0.930 . S
H931 C943 0.929 . S
H932 C946 0.930 . S
H933 C948 0.960 . S
H934 C948 0.960 . S
H935 C948 0.960 . S
C936 H928 0.929 . S
C936 C937 1.377 . S
C936 C938 1.384 . S
C937 C936 1.377 . S
C937 C943 1.390 . S
C938 H929 0.930 . S
C938 C936 1.384 . S
C938 C939 1.372 . S
C939 C938 1.372 . S
C939 C940 1.400 . S
C939 C944 1.490 . S
C940 H930 0.930 . S
C940 C939 1.400 . S
C940 C943 1.386 . S
H941 C957 0.930 . S
H942 C958 0.931 . S
C943 H931 0.929 . S
C943 C937 1.390 . S
C943 C940 1.386 . S
C944 C939 1.490 . S
C944 C946 1.395 . S
C944 C947 1.403 1_554 S
H945 C951 0.930 . S
C946 H932 0.930 . S
C946 C944 1.395 . S
C946 C949 1.403 . S
C947 C944 1.403 1_556 S
C947 C948 1.524 . S
C947 C951 1.400 . S
C948 H933 0.960 . S
C948 H934 0.960 . S
C948 H935 0.960 . S
C948 C947 1.524 . S
C949 C946 1.403 . S
C949 C950 1.392 1_554 S
C949 C953 1.495 . S
C950 C949 1.392 1_556 S
C950 C951 1.385 . S
C950 C952 1.478 . S
C951 H945 0.930 . S
C951 C947 1.400 . S
C951 C950 1.385 . S
C952 C950 1.478 . S
C952 C954 1.381 . S
C952 C958 1.383 . S
C953 C949 1.495 . S
C953 H959 0.959 . S
C953 H960 0.961 . S
C953 H961 0.960 . S
C954 C952 1.381 . S
C954 C955 1.394 . S
C954 H962 0.930 . S
C955 C954 1.394 . S
C955 C956 1.383 . S
C955 H963 0.929 . S
C956 C955 1.383 . S
C956 C957 1.377 . S
C957 H941 0.930 . S
C957 C956 1.377 . S
C957 C958 1.379 . S
C958 H942 0.931 . S
C958 C952 1.383 . S
C958 C957 1.379 . S
H959 C953 0.959 . S
H960 C953 0.961 . S
H961 C953 0.960 . S
H962 C954 0.930 . S
H963 C955 0.929 . S
H964 C972 0.929 . S
H965 C974 0.930 1_556 S
H966 C976 0.930 . S
H967 C979 0.929 . S
H968 C982 0.930 . S
H969 C984 0.960 . S
H970 C984 0.960 . S
H971 C984 0.960 . S
C972 H964 0.929 . S
C972 C973 1.377 . S
C972 C974 1.384 . S
C973 C972 1.377 . S
C973 C979 1.390 . S
C974 H965 0.930 1_554 S
C974 C972 1.384 . S
C974 C975 1.372 . S
C975 C974 1.372 . S
C975 C976 1.400 . S
C975 C980 1.490 . S
C976 H966 0.930 . S
C976 C975 1.400 . S
C976 C979 1.386 . S
H977 C993 0.930 . S
H978 C994 0.931 1_554 S
C979 H967 0.929 . S
C979 C973 1.390 . S
C979 C976 1.386 . S
C980 C975 1.490 . S
C980 C982 1.395 . S
C980 C983 1.403 . S
H981 C987 0.930 . S
C982 H968 0.930 . S
C982 C980 1.395 . S
C982 C985 1.403 1_554 S
C983 C980 1.403 . S
C983 C984 1.524 . S
C983 C987 1.400 1_554 S
C984 H969 0.960 . S
C984 H970 0.960 . S
C984 H971 0.960 . S
C984 C983 1.524 . S
C985 C982 1.403 1_556 S
C985 C986 1.392 . S
C985 C989 1.495 . S
C986 C985 1.392 . S
C986 C987 1.385 . S
C986 C988 1.478 . S
C987 H981 0.930 . S
C987 C983 1.400 1_556 S
C987 C986 1.385 . S
C988 C986 1.478 . S
C988 C990 1.381 . S
C988 C994 1.383 . S
C989 C985 1.495 . S
C989 H995 0.959 . S
C989 H996 0.961 . S
C989 H997 0.960 . S
C990 C988 1.381 . S
C990 C991 1.394 . S
C990 H998 0.930 . S
C991 C990 1.394 . S
C991 C992 1.383 . S
C991 H999 0.929 . S
C992 C991 1.383 . S
C992 C993 1.377 . S
C993 H977 0.930 . S
C993 C992 1.377 . S
C993 C994 1.379 . S
C994 H978 0.931 1_556 S
C994 C988 1.383 . S
C994 C993 1.379 . S
H995 C989 0.959 . S
H996 C989 0.961 . S
H997 C989 0.960 . S
H998 C990 0.930 . S
H999 C991 0.929 . S
H1000 C1008 0.929 . S
H1001 C1010 0.930 . S
H1002 C1012 0.930 . S
H1003 C1015 0.929 . S
H1004 C1018 0.930 . S
H1005 C1020 0.960 . S
H1006 C1020 0.960 . S
H1007 C1020 0.960 . S
C1008 H1000 0.929 . S
C1008 C1009 1.377 . S
C1008 C1010 1.384 . S
C1009 C1008 1.377 . S
C1009 C1015 1.390 . S
C1010 H1001 0.930 . S
C1010 C1008 1.384 . S
C1010 C1011 1.372 . S
C1011 C1010 1.372 . S
C1011 C1012 1.400 . S
C1011 C1016 1.490 . S
C1012 H1002 0.930 . S
C1012 C1011 1.400 . S
C1012 C1015 1.386 . S
H1013 C1029 0.930 . S
H1014 C1030 0.931 . S
C1015 H1003 0.929 . S
C1015 C1009 1.390 . S
C1015 C1012 1.386 . S
C1016 C1011 1.490 . S
C1016 C1018 1.395 . S
C1016 C1019 1.403 . S
H1017 C1023 0.930 . S
C1018 H1004 0.930 . S
C1018 C1016 1.395 . S
C1018 C1021 1.403 . S
C1019 C1016 1.403 . S
C1019 C1020 1.524 . S
C1019 C1023 1.400 . S
C1020 H1005 0.960 . S
C1020 H1006 0.960 . S
C1020 H1007 0.960 . S
C1020 C1019 1.524 . S
C1021 C1018 1.403 . S
C1021 C1022 1.392 . S
C1021 C1025 1.470 1_455 S
C1022 C1021 1.392 . S
C1022 C1023 1.385 . S
C1022 C1024 1.478 . S
C1023 H1017 0.930 . S
C1023 C1019 1.400 . S
C1023 C1022 1.385 . S
C1024 C1022 1.478 . S
C1024 C1026 1.381 . S
C1024 C1030 1.383 . S
C1025 C1021 1.470 1_655 S
C1025 H1031 0.974 . S
C1025 H1032 0.961 . S
C1025 H1033 0.971 . S
C1026 C1024 1.381 . S
C1026 C1027 1.394 . S
C1026 H1034 0.930 . S
C1027 C1026 1.394 . S
C1027 C1028 1.383 . S
C1027 H1035 0.929 . S
C1028 C1027 1.383 . S
C1028 C1029 1.377 . S
C1029 H1013 0.930 . S
C1029 C1028 1.377 . S
C1029 C1030 1.379 . S
C1030 H1014 0.931 . S
C1030 C1024 1.383 . S
C1030 C1029 1.379 . S
H1031 C1025 0.974 . S
H1032 C1025 0.961 . S
H1033 C1025 0.971 . S
H1034 C1026 0.930 . S
H1035 C1027 0.929 . S
H1036 C1044 0.929 . S
H1037 C1046 0.930 . S
H1038 C1048 0.930 . S
H1039 C1051 0.929 . S
H1040 C1054 0.930 . S
H1041 C1056 0.960 . S
H1042 C1056 0.960 . S
H1043 C1056 0.960 . S
C1044 H1036 0.929 . S
C1044 C1045 1.377 . S
C1044 C1046 1.384 . S
C1045 C1044 1.377 . S
C1045 C1051 1.390 . S
C1046 H1037 0.930 . S
C1046 C1044 1.384 . S
C1046 C1047 1.372 . S
C1047 C1046 1.372 . S
C1047 C1048 1.400 . S
C1047 C1052 1.490 . S
C1048 H1038 0.930 . S
C1048 C1047 1.400 . S
C1048 C1051 1.386 . S
H1049 C1065 0.930 . S
H1050 C1066 0.931 . S
C1051 H1039 0.929 . S
C1051 C1045 1.390 . S
C1051 C1048 1.386 . S
C1052 C1047 1.490 . S
C1052 C1054 1.395 . S
C1052 C1055 1.403 . S
H1053 C1059 0.930 . S
C1054 H1040 0.930 . S
C1054 C1052 1.395 . S
C1054 C1057 1.403 . S
C1055 C1052 1.403 . S
C1055 C1056 1.524 . S
C1055 C1059 1.400 . S
C1056 H1041 0.960 . S
C1056 H1042 0.960 . S
C1056 H1043 0.960 . S
C1056 C1055 1.524 . S
C1057 C1054 1.403 . S
C1057 C1058 1.392 . S
C1057 C1061 1.495 . S
C1058 C1057 1.392 . S
C1058 C1059 1.385 . S
C1058 C1060 1.478 . S
C1059 H1053 0.930 . S
C1059 C1055 1.400 . S
C1059 C1058 1.385 . S
C1060 C1058 1.478 . S
C1060 C1062 1.381 . S
C1060 C1066 1.383 . S
C1061 C1057 1.495 . S
C1061 H1067 0.959 . S
C1061 H1068 0.961 . S
C1061 H1069 0.960 . S
C1062 C1060 1.381 . S
C1062 C1063 1.394 . S
C1062 H1070 0.930 . S
C1063 C1062 1.394 . S
C1063 C1064 1.383 . S
C1063 H1071 0.929 . S
C1064 C1063 1.383 . S
C1064 C1065 1.377 . S
C1065 H1049 0.930 . S
C1065 C1064 1.377 . S
C1065 C1066 1.379 . S
C1066 H1050 0.931 . S
C1066 C1060 1.383 . S
C1066 C1065 1.379 . S
H1067 C1061 0.959 . S
H1068 C1061 0.961 . S
H1069 C1061 0.960 . S
H1070 C1062 0.930 . S
H1071 C1063 0.929 . S
H1072 C1080 0.929 . S
H1073 C1082 0.930 . S
H1074 C1084 0.930 . S
H1075 C1087 0.929 . S
H1076 C1090 0.930 . S
H1077 C1092 0.960 . S
H1078 C1092 0.960 . S
H1079 C1092 0.960 . S
C1080 H1072 0.929 . S
C1080 C1081 1.377 . S
C1080 C1082 1.384 . S
C1081 C1080 1.377 . S
C1081 C1087 1.390 . S
C1082 H1073 0.930 . S
C1082 C1080 1.384 . S
C1082 C1083 1.372 . S
C1083 C1082 1.372 . S
C1083 C1084 1.400 . S
C1083 C1088 1.490 . S
C1084 H1074 0.930 . S
C1084 C1083 1.400 . S
C1084 C1087 1.386 . S
H1085 C1101 0.930 . S
H1086 C1102 0.931 . S
C1087 H1075 0.929 . S
C1087 C1081 1.390 . S
C1087 C1084 1.386 . S
C1088 C1083 1.490 . S
C1088 C1090 1.395 . S
C1088 C1091 1.403 . S
H1089 C1095 0.930 . S
C1090 H1076 0.930 . S
C1090 C1088 1.395 . S
C1090 C1093 1.403 . S
C1091 C1088 1.403 . S
C1091 C1092 1.524 . S
C1091 C1095 1.400 . S
C1092 H1077 0.960 . S
C1092 H1078 0.960 . S
C1092 H1079 0.960 . S
C1092 C1091 1.524 . S
C1093 C1090 1.403 . S
C1093 C1094 1.392 . S
C1093 C1097 1.495 . S
C1094 C1093 1.392 . S
C1094 C1095 1.385 . S
C1094 C1096 1.478 . S
C1095 H1089 0.930 . S
C1095 C1091 1.400 . S
C1095 C1094 1.385 . S
C1096 C1094 1.478 . S
C1096 C1098 1.381 . S
C1096 C1102 1.383 . S
C1097 C1093 1.495 . S
C1097 H1103 0.959 . S
C1097 H1104 0.961 . S
C1097 H1105 0.960 . S
C1098 C1096 1.381 . S
C1098 C1099 1.394 . S
C1098 H1106 0.930 . S
C1099 C1098 1.394 . S
C1099 C1100 1.383 . S
C1099 H1107 0.929 . S
C1100 C1099 1.383 . S
C1100 C1101 1.377 . S
C1101 H1085 0.930 . S
C1101 C1100 1.377 . S
C1101 C1102 1.379 . S
C1102 H1086 0.931 . S
C1102 C1096 1.383 . S
C1102 C1101 1.379 . S
H1103 C1097 0.959 . S
H1104 C1097 0.961 . S
H1105 C1097 0.960 . S
H1106 C1098 0.930 . S
H1107 C1099 0.929 . S
H1108 C1116 0.929 . S
H1109 C1118 0.930 . S
H1110 C1120 0.930 . S
H1111 C1123 0.929 . S
H1112 C1126 0.930 . S
H1113 C1128 0.960 . S
H1114 C1128 0.960 . S
H1115 C1128 0.960 . S
C1116 H1108 0.929 . S
C1116 C1117 1.377 . S
C1116 C1118 1.384 . S
C1117 C1116 1.377 . S
C1117 C1123 1.390 . S
C1118 H1109 0.930 . S
C1118 C1116 1.384 . S
C1118 C1119 1.372 . S
C1119 C1118 1.372 . S
C1119 C1120 1.400 . S
C1119 C1124 1.490 . S
C1120 H1110 0.930 . S
C1120 C1119 1.400 . S
C1120 C1123 1.386 . S
H1121 C1137 0.930 . S
H1122 C1138 0.931 . S
C1123 H1111 0.929 . S
C1123 C1117 1.390 . S
C1123 C1120 1.386 . S
C1124 C1119 1.490 . S
C1124 C1126 1.395 . S
C1124 C1127 1.403 . S
H1125 C1131 0.930 . S
C1126 H1112 0.930 . S
C1126 C1124 1.395 . S
C1126 C1129 1.403 . S
C1127 C1124 1.403 . S
C1127 C1128 1.524 . S
C1127 C1131 1.400 . S
C1128 H1113 0.960 . S
C1128 H1114 0.960 . S
C1128 H1115 0.960 . S
C1128 C1127 1.524 . S
C1129 C1126 1.403 . S
C1129 C1130 1.392 . S
C1129 C1133 1.495 . S
C1130 C1129 1.392 . S
C1130 C1131 1.385 . S
C1130 C1132 1.478 . S
C1131 H1125 0.930 . S
C1131 C1127 1.400 . S
C1131 C1130 1.385 . S
C1132 C1130 1.478 . S
C1132 C1134 1.381 . S
C1132 C1138 1.383 . S
C1133 C1129 1.495 . S
C1133 H1139 0.959 . S
C1133 H1140 0.961 . S
C1133 H1141 0.960 . S
C1134 C1132 1.381 . S
C1134 C1135 1.394 . S
C1134 H1142 0.930 . S
C1135 C1134 1.394 . S
C1135 C1136 1.383 . S
C1135 H1143 0.929 . S
C1136 C1135 1.383 . S
C1136 C1137 1.377 . S
C1137 H1121 0.930 . S
C1137 C1136 1.377 . S
C1137 C1138 1.379 . S
C1138 H1122 0.931 . S
C1138 C1132 1.383 . S
C1138 C1137 1.379 . S
H1139 C1133 0.959 . S
H1140 C1133 0.961 . S
H1141 C1133 0.960 . S
H1142 C1134 0.930 . S
H1143 C1135 0.929 . S
H1144 C1152 0.929 . S
H1145 C1154 0.930 . S
H1146 C1156 0.930 . S
H1147 C1159 0.929 . S
H1148 C1162 0.930 . S
H1149 C1164 0.960 . S
H1150 C1164 0.960 . S
H1151 C1164 0.960 . S
C1152 H1144 0.929 . S
C1152 C1153 1.377 . S
C1152 C1154 1.384 . S
C1153 C1152 1.377 . S
C1153 C1159 1.390 . S
C1154 H1145 0.930 . S
C1154 C1152 1.384 . S
C1154 C1155 1.372 . S
C1155 C1154 1.372 . S
C1155 C1156 1.400 . S
C1155 C1160 1.490 . S
C1156 H1146 0.930 . S
C1156 C1155 1.400 . S
C1156 C1159 1.386 . S
H1157 C1173 0.933 1_455 S
H1158 C1174 0.931 1_455 S
C1159 H1147 0.929 . S
C1159 C1153 1.390 . S
C1159 C1156 1.386 . S
C1160 C1155 1.490 . S
C1160 C1162 1.395 . S
C1160 C1163 1.403 . S
H1161 C1167 0.930 . S
C1162 H1148 0.930 . S
C1162 C1160 1.395 . S
C1162 C1165 1.403 . S
C1163 C1160 1.403 . S
C1163 C1164 1.524 . S
C1163 C1167 1.400 . S
C1164 H1149 0.960 . S
C1164 H1150 0.960 . S
C1164 H1151 0.960 . S
C1164 C1163 1.524 . S
C1165 C1162 1.403 . S
C1165 C1166 1.392 . S
C1165 C1169 1.495 . S
C1166 C1165 1.392 . S
C1166 C1167 1.385 . S
C1166 C1168 1.478 . S
C1167 H1161 0.930 . S
C1167 C1163 1.400 . S
C1167 C1166 1.385 . S
C1168 C1166 1.478 . S
C1168 C1170 1.381 . S
C1168 C1174 1.383 . S
C1169 C1165 1.495 . S
C1169 H1175 0.959 . S
C1169 H1176 0.961 . S
C1169 H1177 0.960 . S
C1170 C1168 1.381 . S
C1170 C1171 1.394 . S
C1170 H1178 0.930 . S
C1171 C1170 1.394 . S
C1171 C1172 1.383 . S
C1171 H1179 0.929 . S
C1172 C1171 1.383 . S
C1172 C1173 1.374 . S
C1173 H1157 0.933 1_655 S
C1173 C1172 1.374 . S
C1173 C1174 1.379 . S
C1174 H1158 0.931 1_655 S
C1174 C1168 1.383 . S
C1174 C1173 1.379 . S
H1175 C1169 0.959 . S
H1176 C1169 0.961 . S
H1177 C1169 0.960 . S
H1178 C1170 0.930 . S
H1179 C1171 0.929 . S
H1180 C1188 0.929 . S
H1181 C1190 0.930 . S
H1182 C1192 0.930 . S
H1183 C1195 0.929 . S
H1184 C1198 0.930 . S
H1185 C1200 0.960 . S
H1186 C1200 0.960 . S
H1187 C1200 0.960 . S
C1188 H1180 0.929 . S
C1188 C1189 1.377 . S
C1188 C1190 1.384 . S
C1189 C1188 1.377 . S
C1189 C1195 1.390 . S
C1190 H1181 0.930 . S
C1190 C1188 1.384 . S
C1190 C1191 1.372 . S
C1191 C1190 1.372 . S
C1191 C1192 1.400 . S
C1191 C1196 1.490 . S
C1192 H1182 0.930 . S
C1192 C1191 1.400 . S
C1192 C1195 1.386 . S
H1193 C1209 0.930 . S
H1194 C1210 0.931 . S
C1195 H1183 0.929 . S
C1195 C1189 1.390 . S
C1195 C1192 1.386 . S
C1196 C1191 1.490 . S
C1196 C1198 1.395 . S
C1196 C1199 1.403 . S
H1197 C1203 0.930 . S
C1198 H1184 0.930 . S
C1198 C1196 1.395 . S
C1198 C1201 1.403 . S
C1199 C1196 1.403 . S
C1199 C1200 1.524 . S
C1199 C1203 1.400 . S
C1200 H1185 0.960 . S
C1200 H1186 0.960 . S
C1200 H1187 0.960 . S
C1200 C1199 1.524 . S
C1201 C1198 1.403 . S
C1201 C1202 1.392 . S
C1201 C1205 1.495 1_565 S
C1202 C1201 1.392 . S
C1202 C1203 1.385 . S
C1202 C1204 1.478 . S
C1203 H1197 0.930 . S
C1203 C1199 1.400 . S
C1203 C1202 1.385 . S
C1204 C1202 1.478 . S
C1204 C1206 1.381 . S
C1204 C1210 1.383 . S
C1205 C1201 1.495 1_545 S
C1205 H1211 0.959 . S
C1205 H1212 0.961 . S
C1205 H1213 0.960 . S
C1206 C1204 1.381 . S
C1206 C1207 1.394 . S
C1206 H1214 0.930 . S
C1207 C1206 1.394 . S
C1207 C1208 1.383 . S
C1207 H1215 0.929 . S
C1208 C1207 1.383 . S
C1208 C1209 1.377 . S
C1209 H1193 0.930 . S
C1209 C1208 1.377 . S
C1209 C1210 1.379 . S
C1210 H1194 0.931 . S
C1210 C1204 1.383 . S
C1210 C1209 1.379 . S
H1211 C1205 0.959 . S
H1212 C1205 0.961 . S
H1213 C1205 0.960 . S
H1214 C1206 0.930 . S
H1215 C1207 0.929 . S
H1216 C1224 0.929 . S
H1217 C1226 0.930 . S
H1218 C1228 0.930 . S
H1219 C1231 0.929 . S
H1220 C1234 0.930 . S
H1221 C1236 0.960 . S
H1222 C1236 0.960 . S
H1223 C1236 0.960 . S
C1224 H1216 0.929 . S
C1224 C1225 1.377 . S
C1224 C1226 1.384 . S
C1225 C1224 1.377 . S
C1225 C1231 1.390 . S
C1226 H1217 0.930 . S
C1226 C1224 1.384 . S
C1226 C1227 1.372 . S
C1227 C1226 1.372 . S
C1227 C1228 1.400 . S
C1227 C1232 1.490 . S
C1228 H1218 0.930 . S
C1228 C1227 1.400 . S
C1228 C1231 1.386 . S
H1229 C1245 0.930 . S
H1230 C1246 0.931 . S
C1231 H1219 0.929 . S
C1231 C1225 1.390 . S
C1231 C1228 1.386 . S
C1232 C1227 1.490 . S
C1232 C1234 1.395 . S
C1232 C1235 1.403 . S
H1233 C1239 0.930 . S
C1234 H1220 0.930 . S
C1234 C1232 1.395 . S
C1234 C1237 1.403 . S
C1235 C1232 1.403 . S
C1235 C1236 1.524 . S
C1235 C1239 1.400 . S
C1236 H1221 0.960 . S
C1236 H1222 0.960 . S
C1236 H1223 0.960 . S
C1236 C1235 1.524 . S
C1237 C1234 1.403 . S
C1237 C1238 1.392 . S
C1237 C1241 1.495 . S
C1238 C1237 1.392 . S
C1238 C1239 1.385 . S
C1238 C1240 1.478 . S
C1239 H1233 0.930 . S
C1239 C1235 1.400 . S
C1239 C1238 1.385 . S
C1240 C1238 1.478 . S
C1240 C1242 1.381 . S
C1240 C1246 1.383 . S
C1241 C1237 1.495 . S
C1241 H1247 0.959 . S
C1241 H1248 0.961 . S
C1241 H1249 0.960 . S
C1242 C1240 1.381 . S
C1242 C1243 1.394 . S
C1242 H1250 0.930 . S
C1243 C1242 1.394 . S
C1243 C1244 1.383 . S
C1243 H1251 0.929 . S
C1244 C1243 1.383 . S
C1244 C1245 1.377 . S
C1245 H1229 0.930 . S
C1245 C1244 1.377 . S
C1245 C1246 1.379 . S
C1246 H1230 0.931 . S
C1246 C1240 1.383 . S
C1246 C1245 1.379 . S
H1247 C1241 0.959 . S
H1248 C1241 0.961 . S
H1249 C1241 0.960 . S
H1250 C1242 0.930 . S
H1251 C1243 0.929 . S
H1252 C1260 0.929 . S
H1253 C1262 0.930 . S
H1254 C1264 0.930 . S
H1255 C1267 0.929 . S
H1256 C1270 0.930 . S
H1257 C1272 0.960 . S
H1258 C1272 0.960 . S
H1259 C1272 0.960 . S
C1260 H1252 0.929 . S
C1260 C1261 1.377 . S
C1260 C1262 1.384 . S
C1261 C1260 1.377 . S
C1261 C1267 1.390 . S
C1262 H1253 0.930 . S
C1262 C1260 1.384 . S
C1262 C1263 1.372 . S
C1263 C1262 1.372 . S
C1263 C1264 1.400 . S
C1263 C1268 1.490 . S
C1264 H1254 0.930 . S
C1264 C1263 1.400 . S
C1264 C1267 1.386 . S
H1265 C1281 0.930 . S
H1266 C1282 0.931 . S
C1267 H1255 0.929 . S
C1267 C1261 1.390 . S
C1267 C1264 1.386 . S
C1268 C1263 1.490 . S
C1268 C1270 1.395 . S
C1268 C1271 1.403 . S
H1269 C1275 0.930 . S
C1270 H1256 0.930 . S
C1270 C1268 1.395 . S
C1270 C1273 1.403 . S
C1271 C1268 1.403 . S
C1271 C1272 1.524 . S
C1271 C1275 1.400 . S
C1272 H1257 0.960 . S
C1272 H1258 0.960 . S
C1272 H1259 0.960 . S
C1272 C1271 1.524 . S
C1273 C1270 1.403 . S
C1273 C1274 1.392 . S
C1273 C1277 1.495 . S
C1274 C1273 1.392 . S
C1274 C1275 1.385 . S
C1274 C1276 1.478 . S
C1275 H1269 0.930 . S
C1275 C1271 1.400 . S
C1275 C1274 1.385 . S
C1276 C1274 1.478 . S
C1276 C1278 1.381 . S
C1276 C1282 1.383 . S
C1277 C1273 1.495 . S
C1277 H1283 0.959 . S
C1277 H1284 0.961 . S
C1277 H1285 0.960 . S
C1278 C1276 1.381 . S
C1278 C1279 1.394 . S
C1278 H1286 0.930 . S
C1279 C1278 1.394 . S
C1279 C1280 1.383 . S
C1279 H1287 0.929 . S
C1280 C1279 1.383 . S
C1280 C1281 1.377 . S
C1281 H1265 0.930 . S
C1281 C1280 1.377 . S
C1281 C1282 1.379 . S
C1282 H1266 0.931 . S
C1282 C1276 1.383 . S
C1282 C1281 1.379 . S
H1283 C1277 0.959 . S
H1284 C1277 0.961 . S
H1285 C1277 0.960 . S
H1286 C1278 0.930 . S
H1287 C1279 0.929 . S
C433 C76 1.796 . S
C452 C162 1.865 . S
C488 C246 1.860 . S
C469 C87 1.829 . S
C524 C312 1.927 . S
C505 C54 1.948 . S
C560 C396 1.900 . S
C541 C65 1.920 . S
C596 C151 1.861 1_565 S
C577 C32 1.811 . S
C613 C43 1.833 . S
C632 C235 1.856 . S
C649 C10 1.961 . S
C668 C323 1.921 . S
C685 C21 1.924 . S
C704 C407 1.874 . S
C740 C158 0.594 1_455 S
C721 C60 0.476 . S
C776 C242 0.520 . S
C757 C71 0.465 . S
C812 C314 0.409 . S
C793 C82 0.445 . S
C829 C49 0.482 . S
C848 C398 0.507 . S
C865 C16 0.485 . S
C884 C146 0.498 . S
C920 C230 0.449 . S
C901 C27 0.458 . S
C956 C326 0.475 . S
C937 C38 0.474 . S
C973 C5 0.489 . S
C992 C410 0.561 . S
C1009 C59 1.948 . S
C1028 C155 1.974 . S
C1045 C70 1.916 . S
C1064 C239 1.964 . S
C1100 C319 1.925 . S
C1081 C81 1.810 . S
C1136 C403 1.977 . S
C1117 C48 1.840 . S
C1153 C15 1.938 . S
C1172 C144 1.988 . S
C1208 C228 1.929 1_565 S
C1189 C26 1.909 . S
C1244 C330 1.945 . S
C1225 C37 1.793 . S
C1261 C4 1.826 . S
C1280 C414 1.983 . S
