# Generated by pormake.
# Topology eea, (3,6)-cn, num edge types: 1
# Building blocks:
#     Node 0, Type 0, BuildingBlock: ESEHIV_clean_linker_0, # of connection points: 3
#     Node 1, Type 0, BuildingBlock: ESEHIV_clean_linker_0, # of connection points: 3
#     Node 2, Type 0, BuildingBlock: ESEHIV_clean_linker_0, # of connection points: 3
#     Node 3, Type 0, BuildingBlock: ESEHIV_clean_linker_0, # of connection points: 3
#     Node 4, Type 0, BuildingBlock: ESEHIV_clean_linker_0, # of connection points: 3
#     Node 5, Type 0, BuildingBlock: ESEHIV_clean_linker_0, # of connection points: 3
#     Node 6, Type 0, BuildingBlock: ESEHIV_clean_linker_0, # of connection points: 3
#     Node 7, Type 0, BuildingBlock: ESEHIV_clean_linker_0, # of connection points: 3
#     Node 8, Type 0, BuildingBlock: ESEHIV_clean_linker_0, # of connection points: 3
#     Node 9, Type 0, BuildingBlock: ESEHIV_clean_linker_0, # of connection points: 3
#     Node 10, Type 0, BuildingBlock: ESEHIV_clean_linker_0, # of connection points: 3
#     Node 11, Type 0, BuildingBlock: ESEHIV_clean_linker_0, # of connection points: 3
#     Node 12, Type 0, BuildingBlock: ESEHIV_clean_linker_0, # of connection points: 3
#     Node 13, Type 0, BuildingBlock: ESEHIV_clean_linker_0, # of connection points: 3
#     Node 14, Type 0, BuildingBlock: ESEHIV_clean_linker_0, # of connection points: 3
#     Node 15, Type 0, BuildingBlock: ESEHIV_clean_linker_0, # of connection points: 3
#     Node 16, Type 0, BuildingBlock: ESEHIV_clean_linker_0, # of connection points: 3
#     Node 17, Type 0, BuildingBlock: ESEHIV_clean_linker_0, # of connection points: 3
#     Node 18, Type 1, BuildingBlock: CUWYAW_clean_sbu_0, # of connection points: 6
#     Node 19, Type 1, BuildingBlock: CUWYAW_clean_sbu_0, # of connection points: 6
#     Node 20, Type 1, BuildingBlock: CUWYAW_clean_sbu_0, # of connection points: 6
#     Node 21, Type 1, BuildingBlock: CUWYAW_clean_sbu_0, # of connection points: 6
#     Node 22, Type 1, BuildingBlock: CUWYAW_clean_sbu_0, # of connection points: 6
#     Node 23, Type 1, BuildingBlock: CUWYAW_clean_sbu_0, # of connection points: 6
#     Node 24, Type 1, BuildingBlock: CUWYAW_clean_sbu_0, # of connection points: 6
#     Node 25, Type 1, BuildingBlock: CUWYAW_clean_sbu_0, # of connection points: 6
#     Node 26, Type 1, BuildingBlock: CUWYAW_clean_sbu_0, # of connection points: 6
#     Edge 27, Type (0, 1), BuildingBlock: TEMPAE_clean_linker_10, # of connection points: 2
#     Edge 28, Type (0, 1), BuildingBlock: TEMPAE_clean_linker_10, # of connection points: 2
#     Edge 29, Type (0, 1), BuildingBlock: TEMPAE_clean_linker_10, # of connection points: 2
#     Edge 30, Type (0, 1), BuildingBlock: TEMPAE_clean_linker_10, # of connection points: 2
#     Edge 31, Type (0, 1), BuildingBlock: TEMPAE_clean_linker_10, # of connection points: 2
#     Edge 32, Type (0, 1), BuildingBlock: TEMPAE_clean_linker_10, # of connection points: 2
#     Edge 33, Type (0, 1), BuildingBlock: TEMPAE_clean_linker_10, # of connection points: 2
#     Edge 34, Type (0, 1), BuildingBlock: TEMPAE_clean_linker_10, # of connection points: 2
#     Edge 35, Type (0, 1), BuildingBlock: TEMPAE_clean_linker_10, # of connection points: 2
#     Edge 36, Type (0, 1), BuildingBlock: TEMPAE_clean_linker_10, # of connection points: 2
#     Edge 37, Type (0, 1), BuildingBlock: TEMPAE_clean_linker_10, # of connection points: 2
#     Edge 38, Type (0, 1), BuildingBlock: TEMPAE_clean_linker_10, # of connection points: 2
#     Edge 39, Type (0, 1), BuildingBlock: TEMPAE_clean_linker_10, # of connection points: 2
#     Edge 40, Type (0, 1), BuildingBlock: TEMPAE_clean_linker_10, # of connection points: 2
#     Edge 41, Type (0, 1), BuildingBlock: TEMPAE_clean_linker_10, # of connection points: 2
#     Edge 42, Type (0, 1), BuildingBlock: TEMPAE_clean_linker_10, # of connection points: 2
#     Edge 43, Type (0, 1), BuildingBlock: TEMPAE_clean_linker_10, # of connection points: 2
#     Edge 44, Type (0, 1), BuildingBlock: TEMPAE_clean_linker_10, # of connection points: 2
#     Edge 45, Type (0, 1), BuildingBlock: TEMPAE_clean_linker_10, # of connection points: 2
#     Edge 46, Type (0, 1), BuildingBlock: TEMPAE_clean_linker_10, # of connection points: 2
#     Edge 47, Type (0, 1), BuildingBlock: TEMPAE_clean_linker_10, # of connection points: 2
#     Edge 48, Type (0, 1), BuildingBlock: TEMPAE_clean_linker_10, # of connection points: 2
#     Edge 49, Type (0, 1), BuildingBlock: TEMPAE_clean_linker_10, # of connection points: 2
#     Edge 50, Type (0, 1), BuildingBlock: TEMPAE_clean_linker_10, # of connection points: 2
#     Edge 51, Type (0, 1), BuildingBlock: TEMPAE_clean_linker_10, # of connection points: 2
#     Edge 52, Type (0, 1), BuildingBlock: TEMPAE_clean_linker_10, # of connection points: 2
#     Edge 53, Type (0, 1), BuildingBlock: TEMPAE_clean_linker_10, # of connection points: 2
#     Edge 54, Type (0, 1), BuildingBlock: TEMPAE_clean_linker_10, # of connection points: 2
#     Edge 55, Type (0, 1), BuildingBlock: TEMPAE_clean_linker_10, # of connection points: 2
#     Edge 56, Type (0, 1), BuildingBlock: TEMPAE_clean_linker_10, # of connection points: 2
#     Edge 57, Type (0, 1), BuildingBlock: TEMPAE_clean_linker_10, # of connection points: 2
#     Edge 58, Type (0, 1), BuildingBlock: TEMPAE_clean_linker_10, # of connection points: 2
#     Edge 59, Type (0, 1), BuildingBlock: TEMPAE_clean_linker_10, # of connection points: 2
#     Edge 60, Type (0, 1), BuildingBlock: TEMPAE_clean_linker_10, # of connection points: 2
#     Edge 61, Type (0, 1), BuildingBlock: TEMPAE_clean_linker_10, # of connection points: 2
#     Edge 62, Type (0, 1), BuildingBlock: TEMPAE_clean_linker_10, # of connection points: 2
#     Edge 63, Type (0, 1), BuildingBlock: TEMPAE_clean_linker_10, # of connection points: 2
#     Edge 64, Type (0, 1), BuildingBlock: TEMPAE_clean_linker_10, # of connection points: 2
#     Edge 65, Type (0, 1), BuildingBlock: TEMPAE_clean_linker_10, # of connection points: 2
#     Edge 66, Type (0, 1), BuildingBlock: TEMPAE_clean_linker_10, # of connection points: 2
#     Edge 67, Type (0, 1), BuildingBlock: TEMPAE_clean_linker_10, # of connection points: 2
#     Edge 68, Type (0, 1), BuildingBlock: TEMPAE_clean_linker_10, # of connection points: 2
#     Edge 69, Type (0, 1), BuildingBlock: TEMPAE_clean_linker_10, # of connection points: 2
#     Edge 70, Type (0, 1), BuildingBlock: TEMPAE_clean_linker_10, # of connection points: 2
#     Edge 71, Type (0, 1), BuildingBlock: TEMPAE_clean_linker_10, # of connection points: 2
#     Edge 72, Type (0, 1), BuildingBlock: TEMPAE_clean_linker_10, # of connection points: 2
#     Edge 73, Type (0, 1), BuildingBlock: TEMPAE_clean_linker_10, # of connection points: 2
#     Edge 74, Type (0, 1), BuildingBlock: TEMPAE_clean_linker_10, # of connection points: 2
#     Edge 75, Type (0, 1), BuildingBlock: TEMPAE_clean_linker_10, # of connection points: 2
#     Edge 76, Type (0, 1), BuildingBlock: TEMPAE_clean_linker_10, # of connection points: 2
#     Edge 77, Type (0, 1), BuildingBlock: TEMPAE_clean_linker_10, # of connection points: 2
#     Edge 78, Type (0, 1), BuildingBlock: TEMPAE_clean_linker_10, # of connection points: 2
#     Edge 79, Type (0, 1), BuildingBlock: TEMPAE_clean_linker_10, # of connection points: 2
#     Edge 80, Type (0, 1), BuildingBlock: TEMPAE_clean_linker_10, # of connection points: 2
# Relax obj value: 0.035
# Max RMSD: 0.131
# Mean RMSD: 0.088
data_MOF--net-eea--node1-CUWYAW_clean_sbu_0--node2-ESEHIV_clean_linker_0--edge1-TEMPAE_clean_linker_10
_symmetry_space_group_name_H-M    P1
_symmetry_Int_Tables_number       1
_symmetry_cell_setting            triclinic
loop_
_symmetry_equiv_pos_as_xyz
'x, y, z'
_cell_length_a     48.357806
_cell_length_b     47.936001
_cell_length_c     74.279176
_cell_angle_alpha  93.519166
_cell_angle_beta   93.318486
_cell_angle_gamma 119.90078
loop_
_atom_site_label
_atom_site_type_symbol
_atom_site_fract_x
_atom_site_fract_y
_atom_site_fract_z
_atom_type_partial_charge
H0 H 0.22145 0.15974 0.4357 0.0
H1 H 0.2037 0.06255 0.4351 0.0
H2 H 0.18993 0.09785 0.38553 0.0
C3 C 0.21374 0.13643 0.42831 0.0
C4 C 0.20459 0.13145 0.40953 0.0
C5 C 0.21416 0.11185 0.4375 0.0
C6 C 0.20472 0.08187 0.4278 0.0
C7 C 0.19647 0.07657 0.40897 0.0
C8 C 0.19637 0.10157 0.40002 0.0
H9 H 0.85548 0.07531 0.43957 0.0
H10 H 0.93902 0.17015 0.44452 0.0
H11 H 0.90755 0.11143 0.39331 0.0
C12 C 0.87468 0.09444 0.43331 0.0
C13 C 0.87834 0.08946 0.41496 0.0
C14 C 0.89577 0.1237 0.44394 0.0
C15 C 0.92226 0.14776 0.43634 0.0
C16 C 0.92713 0.14296 0.41816 0.0
C17 C 0.90465 0.11416 0.40753 0.0
H18 H 0.84825 0.76469 0.44566 0.0
H19 H 0.935 0.76012 0.4474 0.0
H20 H 0.90296 0.78724 0.39978 0.0
C21 C 0.86863 0.76686 0.43914 0.0
C22 C 0.87286 0.77656 0.4216 0.0
C23 C 0.89067 0.76057 0.44854 0.0
C24 C 0.91779 0.7648 0.44026 0.0
C25 C 0.92265 0.77491 0.42273 0.0
C26 C 0.89995 0.78054 0.41351 0.0
H27 H 0.06873 0.24032 0.55896 0.0
H28 H 0.15711 0.23891 0.56183 0.0
H29 H 0.10212 0.21662 0.60754 0.0
C30 C 0.08634 0.23662 0.56645 0.0
C31 C 0.08162 0.2272 0.58414 0.0
C32 C 0.11388 0.24149 0.55842 0.0
C33 C 0.13642 0.23631 0.56816 0.0
C34 C 0.13227 0.22715 0.5858 0.0
C35 C 0.10489 0.22275 0.5937 0.0
H36 H 0.80057 0.9395 0.57253 0.0
H37 H 0.80159 0.85054 0.56911 0.0
H38 H 0.81263 0.90138 0.62129 0.0
C39 C 0.80204 0.9209 0.57936 0.0
C40 C 0.80804 0.92449 0.59832 0.0
C41 C 0.79819 0.89357 0.56888 0.0
C42 C 0.80311 0.87075 0.57737 0.0
C43 C 0.80951 0.87384 0.59638 0.0
C44 C 0.81039 0.90008 0.60665 0.0
H45 H 0.06411 0.83458 0.5601 0.0
H46 H 0.14575 0.93068 0.56462 0.0
H47 H 0.09596 0.89305 0.61139 0.0
C48 C 0.08061 0.85715 0.56821 0.0
C49 C 0.07623 0.86155 0.58653 0.0
C50 C 0.10631 0.88177 0.56039 0.0
C51 C 0.12712 0.91118 0.57098 0.0
C52 C 0.12397 0.91578 0.58946 0.0
C53 C 0.09841 0.89057 0.59707 0.0
H54 H 0.86517 0.48544 0.77123 0.0
H55 H 0.86642 0.39653 0.7686 0.0
H56 H 0.86084 0.437 0.71949 0.0
C57 C 0.86499 0.46577 0.76315 0.0
C58 C 0.8613 0.46368 0.74408 0.0
C59 C 0.86793 0.44216 0.77203 0.0
C60 C 0.86532 0.41523 0.76169 0.0
C61 C 0.86182 0.41257 0.74265 0.0
C62 C 0.86117 0.43765 0.73409 0.0
H63 H 0.51734 0.41219 0.77012 0.0
H64 H 0.60522 0.50378 0.77714 0.0
H65 H 0.57462 0.44553 0.7256 0.0
C66 C 0.53875 0.43008 0.7647 0.0
C67 C 0.5435 0.4251 0.74658 0.0
C68 C 0.56084 0.45829 0.77583 0.0
C69 C 0.58788 0.48219 0.76853 0.0
C70 C 0.59315 0.4778 0.75037 0.0
C71 C 0.57077 0.44915 0.73957 0.0
H72 H 0.51323 0.0936 0.77724 0.0
H73 H 0.60334 0.0958 0.78006 0.0
H74 H 0.56901 0.11975 0.73187 0.0
C75 C 0.53432 0.0973 0.77093 0.0
C76 C 0.5385 0.10738 0.75348 0.0
C77 C 0.55737 0.09274 0.78055 0.0
C78 C 0.58534 0.09896 0.77259 0.0
C79 C 0.59 0.10901 0.75502 0.0
C80 C 0.56629 0.11301 0.74559 0.0
H81 H 0.73697 0.57474 0.89199 0.0
H82 H 0.82426 0.57121 0.89424 0.0
H83 H 0.77105 0.55192 0.94066 0.0
C84 C 0.75469 0.57121 0.89948 0.0
C85 C 0.75042 0.56246 0.91733 0.0
C86 C 0.78124 0.57421 0.89103 0.0
C87 C 0.80376 0.56889 0.90068 0.0
C88 C 0.80016 0.56065 0.91852 0.0
C89 C 0.7735 0.55756 0.92673 0.0
H90 H 0.44026 0.2586 0.90854 0.0
H91 H 0.4388 0.16812 0.90695 0.0
H92 H 0.47681 0.23456 0.95553 0.0
C93 C 0.44544 0.242 0.91521 0.0
C94 C 0.45877 0.24989 0.93336 0.0
C95 C 0.43884 0.2129 0.90551 0.0
C96 C 0.44493 0.19104 0.91426 0.0
C97 C 0.45786 0.19826 0.93253 0.0
C98 C 0.46535 0.22807 0.94176 0.0
H99 H 0.73562 0.16639 0.896 0.0
H100 H 0.82415 0.25749 0.90311 0.0
H101 H 0.7668 0.2243 0.94762 0.0
C102 C 0.75317 0.18787 0.9046 0.0
C103 C 0.74806 0.19233 0.92278 0.0
C104 C 0.78025 0.21175 0.89731 0.0
C105 C 0.8027 0.23968 0.90853 0.0
C106 C 0.79817 0.24451 0.9267 0.0
C107 C 0.77069 0.22072 0.93365 0.0
H108 H 0.53175 0.82142 0.10684 0.0
H109 H 0.53414 0.73311 0.10512 0.0
H110 H 0.53088 0.77356 0.05564 0.0
C111 C 0.53223 0.80191 0.09898 0.0
C112 C 0.52968 0.79992 0.07991 0.0
C113 C 0.53486 0.77838 0.10812 0.0
C114 C 0.53321 0.75174 0.09804 0.0
C115 C 0.5309 0.74924 0.07902 0.0
C116 C 0.53044 0.77416 0.0702 0.0
H117 H 0.17781 0.74795 0.10066 0.0
H118 H 0.26513 0.84026 0.10853 0.0
H119 H 0.23993 0.77994 0.05809 0.0
C120 C 0.19954 0.76601 0.0956 0.0
C121 C 0.20619 0.76044 0.07801 0.0
C122 C 0.22066 0.79461 0.10676 0.0
C123 C 0.24876 0.81806 0.10006 0.0
C124 C 0.25581 0.81292 0.08247 0.0
C125 C 0.23447 0.78402 0.07162 0.0
H126 H 0.18199 0.42862 0.11027 0.0
H127 H 0.27097 0.42825 0.11362 0.0
H128 H 0.24005 0.45599 0.06585 0.0
C129 C 0.20318 0.43207 0.1042 0.0
C130 C 0.20831 0.44287 0.08691 0.0
C131 C 0.2255 0.42655 0.11394 0.0
C132 C 0.25358 0.43236 0.10621 0.0
C133 C 0.25922 0.44339 0.08891 0.0
C134 C 0.23637 0.44845 0.07939 0.0
H135 H 0.39779 0.90036 0.22457 0.0
H136 H 0.48624 0.8991 0.2283 0.0
H137 H 0.43112 0.87889 0.27399 0.0
C138 C 0.41558 0.89732 0.23237 0.0
C139 C 0.41089 0.88877 0.25022 0.0
C140 C 0.44265 0.90085 0.22432 0.0
C141 C 0.4653 0.89628 0.23441 0.0
C142 C 0.46132 0.88825 0.25229 0.0
C143 C 0.43401 0.88447 0.26006 0.0
H144 H 0.10816 0.58803 0.24117 0.0
H145 H 0.12096 0.5056 0.23658 0.0
H146 H 0.14034 0.56093 0.28843 0.0
C147 C 0.11474 0.57207 0.24746 0.0
C148 C 0.12533 0.57813 0.26602 0.0
C149 C 0.11282 0.5458 0.23685 0.0
C150 C 0.12181 0.52538 0.24494 0.0
C151 C 0.1316 0.5303 0.26366 0.0
C152 C 0.133 0.55672 0.27403 0.0
H153 H 0.40431 0.5009 0.22952 0.0
H154 H 0.49105 0.59374 0.23723 0.0
H155 H 0.4311 0.5598 0.2806 0.0
C156 C 0.42078 0.52297 0.23805 0.0
C157 C 0.41434 0.52744 0.25593 0.0
C158 C 0.44844 0.54686 0.23115 0.0
C159 C 0.46968 0.57534 0.24242 0.0
C160 C 0.46374 0.58029 0.26029 0.0
C161 C 0.43594 0.55621 0.26685 0.0
C162 C 0.55065 0.02366 0.05447 0.0
Eu163 Eu 0.5247 0.01641 0.02158 0.0
C164 C 0.53884 0.00907 0.07133 0.0
C165 C 0.54978 0.02866 0.08788 0.0
C166 C 0.53785 0.01566 0.10393 0.0
C167 C 0.51476 0.98266 0.1038 0.0
C168 C 0.50387 0.96306 0.08711 0.0
C169 C 0.51572 0.97615 0.07105 0.0
C170 C 0.50785 0.05549 0.00555 0.0
C171 C 0.44627 0.96839 0.02091 0.0
C172 C 0.45623 0.97774 0.95219 0.0
Eu173 Eu 0.48141 0.98691 0.98542 0.0
C174 C 0.46981 0.99117 0.93539 0.0
C175 C 0.49993 0.99603 0.93156 0.0
C176 C 0.51291 0.00936 0.9158 0.0
C177 C 0.49612 0.01828 0.90356 0.0
C178 C 0.46615 0.0138 0.90757 0.0
C179 C 0.45314 1.00037 0.92335 0.0
C180 C 0.49774 0.94798 0.00207 0.0
C181 C 0.55944 0.03667 0.98593 0.0
O182 O 0.55164 0.00483 0.04127 0.0
O183 O 0.53975 0.04202 0.04879 0.0
O184 O 0.53555 0.06602 0.01472 0.0
O185 O 0.48989 0.02558 0.00634 0.0
O186 O 0.47535 0.98063 0.02953 0.0
O187 O 0.44185 0.97146 0.00357 0.0
O188 O 0.45586 0.99817 0.96455 0.0
O189 O 0.46519 0.95861 0.95903 0.0
O190 O 0.46967 0.93774 0.99351 0.0
O191 O 0.51601 0.97762 1.00071 0.0
O192 O 0.53025 0.02348 0.97737 0.0
O193 O 0.56424 0.03388 0.00327 0.0
H194 H 0.56732 0.05419 0.08837 0.0
H195 H 0.54634 0.03169 0.11641 0.0
H196 H 0.48637 0.93751 0.08644 0.0
H197 H 0.50666 0.96059 0.0584 0.0
H198 H 0.51358 0.98965 0.9408 0.0
H199 H 0.53625 0.01297 0.91326 0.0
H200 H 0.45246 0.02012 0.89835 0.0
H201 H 0.43002 0.99712 0.92614 0.0
C202 C 0.99825 0.53516 0.0532 0.0
Eu203 Eu 0.99606 0.51113 0.02039 0.0
C204 C 0.01229 0.53478 0.07117 0.0
C205 C 0.02019 0.51096 0.0745 0.0
C206 C 0.03362 0.51091 0.09167 0.0
C207 C 0.03938 0.53473 0.10576 0.0
C208 C 0.03172 0.55874 0.10224 0.0
C209 C 0.01832 0.55876 0.08507 0.0
C210 C 0.95439 0.45056 0.00502 0.0
C211 C 0.04673 0.48404 0.01937 0.0
C212 C 0.01023 0.46892 0.95105 0.0
Eu213 Eu 0.01268 0.49224 0.98406 0.0
C214 C 0.99215 0.46568 0.93368 0.0
C215 C 0.983 0.48844 0.92984 0.0
C216 C 0.9661 0.48523 0.91319 0.0
C217 C 0.95802 0.45917 0.9001 0.0
C218 C 0.96659 0.43601 0.90423 0.0
C219 C 0.98349 0.43927 0.92087 0.0
C220 C 0.05421 0.55274 0.99968 0.0
C221 C 0.96187 0.51879 0.98516 0.0
O222 O 0.01876 0.55124 0.04181 0.0
O223 O 0.97442 0.50748 0.04567 0.0
O224 O 0.94569 0.46851 0.014 0.0
O225 O 0.9845 0.4646 0.00544 0.0
O226 O 0.03591 0.50071 0.02841 0.0
O227 O 0.0379 0.474 0.00193 0.0
O228 O 0.99334 0.45114 0.96329 0.0
O229 O 0.0316 0.49838 0.95781 0.0
O230 O 0.06312 0.53477 0.99089 0.0
O231 O 0.02409 0.53866 0.99898 0.0
O232 O 0.97137 0.50065 0.9764 0.0
O233 O 0.97225 0.53043 0.0023 0.0
H234 H 0.01588 0.49236 0.06385 0.0
H235 H 0.03962 0.49235 0.09389 0.0
H236 H 0.0355 0.57717 0.11286 0.0
H237 H 0.01248 0.57739 0.08268 0.0
H238 H 0.98919 0.50888 0.93962 0.0
H239 H 0.96006 0.50358 0.91042 0.0
H240 H 0.96021 0.41535 0.89458 0.0
H241 H 0.98995 0.42123 0.92371 0.0
C242 C 0.45673 0.47241 0.95232 0.0
Eu243 Eu 0.48348 0.49535 0.98535 0.0
C244 C 0.46812 0.47024 0.93454 0.0
C245 C 0.4574 0.47992 0.91952 0.0
C246 C 0.46888 0.47956 0.90271 0.0
C247 C 0.49131 0.46938 0.90052 0.0
C248 C 0.50185 0.4594 0.91559 0.0
C249 C 0.49045 0.45991 0.93245 0.0
C250 C 0.49908 0.55383 0.00156 0.0
C251 C 0.56181 0.52747 0.98505 0.0
C252 C 0.55357 0.54328 0.05398 0.0
Eu253 Eu 0.52799 0.51799 0.02106 0.0
C254 C 0.54064 0.54379 0.07151 0.0
C255 C 0.54918 0.53165 0.08622 0.0
C256 C 0.53609 0.53029 0.10266 0.0
C257 C 0.51425 0.54123 0.10482 0.0
C258 C 0.50603 0.55388 0.09017 0.0
C259 C 0.51896 0.555 0.07364 0.0
C260 C 0.51182 0.45886 0.00542 0.0
C261 C 0.44943 0.48415 0.02143 0.0
O262 O 0.45877 0.45457 0.9644 0.0
O263 O 0.46511 0.50158 0.95931 0.0
O264 O 0.47074 0.53336 0.99362 0.0
O265 O 0.51792 0.54303 1.00009 0.0
O266 O 0.53257 0.50805 0.97683 0.0
O267 O 0.56669 0.53882 0.00232 0.0
O268 O 0.5495 0.55957 0.04157 0.0
O269 O 0.54874 0.51513 0.04726 0.0
O270 O 0.53975 0.47864 0.01416 0.0
O271 O 0.49341 0.47029 0.00639 0.0
O272 O 0.4786 0.50329 0.02978 0.0
O273 O 0.44465 0.47369 0.004 0.0
H274 H 0.44037 0.48819 0.92085 0.0
H275 H 0.46056 0.4878 0.89149 0.0
H276 H 0.51871 0.45094 0.91433 0.0
H277 H 0.49926 0.45242 0.94383 0.0
H278 H 0.56585 0.52292 0.08493 0.0
H279 H 0.54331 0.52091 0.11376 0.0
H280 H 0.48914 0.56233 0.09136 0.0
H281 H 0.51166 0.56428 0.06252 0.0
C282 C 0.21916 0.35764 0.38782 0.0
Eu283 Eu 0.19343 0.34817 0.3547 0.0
C284 C 0.2067 0.34266 0.40448 0.0
C285 C 0.21353 0.36252 0.42068 0.0
C286 C 0.1997 0.34919 0.43627 0.0
C287 C 0.17876 0.31567 0.43597 0.0
C288 C 0.17241 0.29568 0.41981 0.0
C289 C 0.18613 0.30906 0.40416 0.0
C290 C 0.17655 0.38721 0.33871 0.0
C291 C 0.11548 0.29869 0.35467 0.0
C292 C 0.12355 0.31314 0.28621 0.0
Eu293 Eu 0.14946 0.319 0.3189 0.0
C294 C 0.13692 0.32623 0.26929 0.0
C295 C 0.16592 0.32888 0.2648 0.0
C296 C 0.17869 0.3418 0.2489 0.0
C297 C 0.16282 0.35245 0.23716 0.0
C298 C 0.13402 0.3502 0.24186 0.0
C299 C 0.12123 0.33723 0.25778 0.0
C300 C 0.16645 0.27953 0.33443 0.0
C301 C 0.22788 0.36731 0.31888 0.0
O302 O 0.22204 0.3396 0.37495 0.0
O303 O 0.20703 0.37464 0.38163 0.0
O304 O 0.20492 0.39737 0.3468 0.0
O305 O 0.15836 0.35753 0.33999 0.0
O306 O 0.14483 0.31079 0.36286 0.0
O307 O 0.11048 0.30248 0.33753 0.0
O308 O 0.12599 0.33438 0.2991 0.0
O309 O 0.13016 0.29182 0.29228 0.0
O310 O 0.13869 0.26923 0.32538 0.0
O311 O 0.18446 0.30946 0.33366 0.0
O312 O 0.19859 0.35391 0.31041 0.0
O313 O 0.23288 0.36505 0.3363 0.0
H314 H 0.2292 0.38847 0.42118 0.0
H315 H 0.20546 0.36515 0.44859 0.0
H316 H 0.15622 0.26981 0.41914 0.0
H317 H 0.18012 0.2932 0.39175 0.0
H318 H 0.17883 0.32109 0.27362 0.0
H319 H 0.20118 0.3437 0.24588 0.0
H320 H 0.12101 0.3579 0.23306 0.0
H321 H 0.09902 0.33572 0.26109 0.0
C322 C 0.66599 0.87147 0.38819 0.0
Eu323 Eu 0.66114 0.84596 0.35541 0.0
C324 C 0.68331 0.87278 0.40545 0.0
C325 C 0.68941 0.84778 0.40895 0.0
C326 C 0.70591 0.84922 0.42538 0.0
C327 C 0.71666 0.87571 0.4386 0.0
C328 C 0.71104 0.90101 0.43485 0.0
C329 C 0.69455 0.89955 0.4184 0.0
C330 C 0.61828 0.78562 0.34011 0.0
C331 C 0.71007 0.81664 0.35478 0.0
C332 C 0.67563 0.80287 0.2865 0.0
Eu333 Eu 0.67746 0.82583 0.31946 0.0
C334 C 0.65733 0.79959 0.26922 0.0
C335 C 0.64819 0.8224 0.26551 0.0
C336 C 0.63097 0.81916 0.24901 0.0
C337 C 0.62256 0.79302 0.23592 0.0
C338 C 0.63109 0.76979 0.23991 0.0
C339 C 0.64833 0.77307 0.25643 0.0
C340 C 0.72031 0.88568 0.33528 0.0
C341 C 0.62694 0.85306 0.32011 0.0
O342 O 0.68396 0.88776 0.37582 0.0
O343 O 0.64229 0.84295 0.38156 0.0
O344 O 0.61014 0.80419 0.34899 0.0
O345 O 0.64836 0.79892 0.3407 0.0
O346 O 0.70007 0.83431 0.36357 0.0
O347 O 0.70093 0.80611 0.33743 0.0
O348 O 0.65894 0.7848 0.29871 0.0
O349 O 0.69669 0.83241 0.29331 0.0
O350 O 0.72854 0.86644 0.32734 0.0
O351 O 0.69026 0.87284 0.33413 0.0
O352 O 0.63667 0.83496 0.31151 0.0
O353 O 0.63697 0.86475 0.33726 0.0
H354 H 0.68131 0.82705 0.39902 0.0
H355 H 0.71026 0.82959 0.42773 0.0
H356 H 0.71871 0.9216 0.44482 0.0
H357 H 0.69033 0.9192 0.41585 0.0
H358 H 0.65464 0.84292 0.2753 0.0
H359 H 0.62497 0.83757 0.24632 0.0
H360 H 0.62447 0.74907 0.23025 0.0
H361 H 0.65476 0.75498 0.25919 0.0
C362 C 0.11531 0.79207 0.28411 0.0
Eu363 Eu 0.14166 0.81826 0.31684 0.0
C364 C 0.12823 0.79413 0.26645 0.0
C365 C 0.15694 0.82159 0.26323 0.0
C366 C 0.16941 0.8232 0.24656 0.0
C367 C 0.15342 0.79735 0.23277 0.0
C368 C 0.12476 0.76978 0.23613 0.0
C369 C 0.11232 0.7682 0.25283 0.0
C370 C 0.15615 0.87747 0.33126 0.0
C371 C 0.22048 0.85303 0.31621 0.0
C372 C 0.21231 0.87212 0.38478 0.0
Eu373 Eu 0.18684 0.84434 0.35223 0.0
C374 C 0.19884 0.87348 0.40197 0.0
C375 C 0.20808 0.8635 0.41741 0.0
C376 C 0.19408 0.86242 0.43349 0.0
C377 C 0.17062 0.87148 0.43451 0.0
C378 C 0.1618 0.88211 0.41913 0.0
C379 C 0.17563 0.88291 0.40298 0.0
C380 C 0.17118 0.78431 0.33834 0.0
C381 C 0.1084 0.80884 0.35306 0.0
O382 O 0.12341 0.77752 0.29587 0.0
O383 O 0.11705 0.81851 0.29142 0.0
O384 O 0.12795 0.85607 0.32354 0.0
O385 O 0.1755 0.86716 0.33039 0.0
O386 O 0.19123 0.83342 0.30804 0.0
O387 O 0.22543 0.86445 0.33346 0.0
O388 O 0.20805 0.88728 0.37176 0.0
O389 O 0.20797 0.84379 0.37886 0.0
O390 O 0.19929 0.80512 0.34652 0.0
O391 O 0.15248 0.79544 0.33884 0.0
O392 O 0.13752 0.82966 0.36092 0.0
O393 O 0.10353 0.79656 0.33595 0.0
H394 H 0.16981 0.84178 0.27363 0.0
H395 H 0.19177 0.84455 0.24454 0.0
H396 H 0.11166 0.7496 0.22575 0.0
H397 H 0.09024 0.74674 0.25511 0.0
H398 H 0.22589 0.85611 0.41697 0.0
H399 H 0.20179 0.85466 0.44519 0.0
H400 H 0.14369 0.88909 0.41945 0.0
H401 H 0.16774 0.89041 0.39124 0.0
C402 C 0.88822 0.69274 0.72033 0.0
Eu403 Eu 0.86041 0.68443 0.68783 0.0
C404 C 0.87722 0.67889 0.73748 0.0
C405 C 0.88833 0.69926 0.75378 0.0
C406 C 0.8766 0.68711 0.77004 0.0
C407 C 0.85348 0.65427 0.77033 0.0
C408 C 0.8427 0.6338 0.75397 0.0
C409 C 0.85437 0.64599 0.7377 0.0
C410 C 0.84592 0.7253 0.67188 0.0
C411 C 0.78208 0.63824 0.68904 0.0
C412 C 0.78749 0.64796 0.62023 0.0
Eu413 Eu 0.8147 0.6558 0.65277 0.0
C414 C 0.79975 0.6622 0.60335 0.0
C415 C 0.79172 0.64185 0.58722 0.0
C416 C 0.80521 0.65446 0.57141 0.0
C417 C 0.82696 0.68774 0.57141 0.0
C418 C 0.83455 0.70823 0.58752 0.0
C419 C 0.82121 0.69556 0.60337 0.0
C420 C 0.82925 0.61499 0.66876 0.0
C421 C 0.89287 0.7018 0.65135 0.0
O422 O 0.88832 0.67332 0.70713 0.0
O423 O 0.87724 0.71109 0.71474 0.0
O424 O 0.87411 0.73421 0.67986 0.0
O425 O 0.82659 0.69597 0.67345 0.0
O426 O 0.81154 0.64979 0.69695 0.0
O427 O 0.77673 0.64163 0.67188 0.0
O428 O 0.78722 0.6673 0.63341 0.0
O429 O 0.7976 0.62897 0.62593 0.0
O430 O 0.80106 0.60602 0.66074 0.0
O431 O 0.84853 0.6443 0.66713 0.0
O432 O 0.86337 0.69002 0.6435 0.0
O433 O 0.89841 0.69891 0.66859 0.0
H434 H 0.90572 0.72475 0.75388 0.0
H435 H 0.88514 0.70364 0.78233 0.0
H436 H 0.82534 0.60829 0.75375 0.0
H437 H 0.84527 0.62977 0.72528 0.0
H438 H 0.77535 0.61606 0.58692 0.0
H439 H 0.7985 0.63814 0.55914 0.0
H440 H 0.85137 0.73394 0.58798 0.0
H441 H 0.82814 0.71176 0.61569 0.0
C442 C 0.32354 0.19653 0.7211 0.0
Eu443 Eu 0.32493 0.17564 0.68817 0.0
C444 C 0.33749 0.19665 0.73922 0.0
C445 C 0.34442 0.17237 0.74317 0.0
C446 C 0.35717 0.17253 0.76058 0.0
C447 C 0.36342 0.19713 0.77426 0.0
C448 C 0.35702 0.22173 0.77012 0.0
C449 C 0.34413 0.22145 0.75274 0.0
C450 C 0.28213 0.11721 0.6707 0.0
C451 C 0.37384 0.14646 0.68811 0.0
C452 C 0.34319 0.1359 0.61964 0.0
Eu453 Eu 0.34374 0.15808 0.65258 0.0
C454 C 0.32686 0.13384 0.60184 0.0
C455 C 0.3446 0.14248 0.58685 0.0
C456 C 0.33017 0.14232 0.56999 0.0
C457 C 0.29763 0.13343 0.56779 0.0
C458 C 0.27972 0.12437 0.5828 0.0
C459 C 0.29426 0.12473 0.59972 0.0
C460 C 0.38652 0.217 0.66976 0.0
C461 C 0.29554 0.18786 0.65263 0.0
O462 O 0.34381 0.21473 0.71016 0.0
O463 O 0.30166 0.16826 0.71304 0.0
O464 O 0.27394 0.13634 0.67881 0.0
O465 O 0.3121 0.12929 0.6725 0.0
O466 O 0.36347 0.16372 0.69698 0.0
O467 O 0.36577 0.13714 0.67059 0.0
O468 O 0.32533 0.11768 0.6315 0.0
O469 O 0.36448 0.1651 0.62681 0.0
O470 O 0.39476 0.19845 0.66097 0.0
O471 O 0.35646 0.20444 0.66823 0.0
O472 O 0.30505 0.16971 0.6439 0.0
O473 O 0.30436 0.1979 0.67005 0.0
H474 H 0.33981 0.15319 0.73283 0.0
H475 H 0.36225 0.15351 0.76333 0.0
H476 H 0.36134 0.24083 0.78043 0.0
H477 H 0.33909 0.24047 0.74989 0.0
H478 H 0.36976 0.1496 0.58822 0.0
H479 H 0.34445 0.14886 0.55861 0.0
H480 H 0.25464 0.11751 0.58153 0.0
H481 H 0.28009 0.11821 0.61114 0.0
C482 C 0.78908 0.12636 0.62032 0.0
Eu483 Eu 0.81437 0.15527 0.65271 0.0
C484 C 0.80302 0.12793 0.60301 0.0
C485 C 0.83024 0.15647 0.5993 0.0
C486 C 0.84383 0.15774 0.58305 0.0
C487 C 0.83049 0.13048 0.57013 0.0
C488 C 0.80336 0.10181 0.574 0.0
C489 C 0.78983 0.10056 0.59031 0.0
C490 C 0.82836 0.21512 0.66575 0.0
C491 C 0.89309 0.19217 0.65175 0.0
C492 C 0.88604 0.21248 0.72022 0.0
Eu493 Eu 0.85987 0.18399 0.68782 0.0
C494 C 0.87323 0.21099 0.73788 0.0
C495 C 0.84426 0.18393 0.74119 0.0
C496 C 0.83216 0.18256 0.75796 0.0
C497 C 0.84891 0.20816 0.77182 0.0
C498 C 0.87779 0.23538 0.76836 0.0
C499 C 0.88977 0.2368 0.75152 0.0
C500 C 0.84562 0.12405 0.6747 0.0
C501 C 0.78105 0.14754 0.68864 0.0
O502 O 0.79736 0.11311 0.63286 0.0
O503 O 0.78946 0.15263 0.62674 0.0
O504 O 0.80017 0.1931 0.65827 0.0
O505 O 0.84793 0.20506 0.6653 0.0
O506 O 0.86399 0.17098 0.64399 0.0
O507 O 0.8979 0.20512 0.66869 0.0
O508 O 0.87713 0.22576 0.708 0.0
O509 O 0.88514 0.1861 0.71353 0.0
O510 O 0.87396 0.14608 0.68195 0.0
O511 O 0.82623 0.13428 0.67531 0.0
O512 O 0.81018 0.16863 0.69645 0.0
O513 O 0.77629 0.13443 0.67175 0.0
H514 H 0.84116 0.17781 0.60903 0.0
H515 H 0.86502 0.18001 0.58071 0.0
H516 H 0.79222 0.08046 0.56429 0.0
H517 H 0.76899 0.07823 0.59298 0.0
H518 H 0.83107 0.16372 0.73083 0.0
H519 H 0.80999 0.16118 0.76019 0.0
H520 H 0.891 0.25572 0.77864 0.0
H521 H 0.91199 0.25802 0.74916 0.0
C522 C 0.30459 0.82858 0.06614 0.0
C523 C 0.28515 0.83772 0.07513 0.0
C524 C 0.3312 0.85123 0.05808 0.0
C525 C 0.33839 0.88377 0.05883 0.0
C526 C 0.31935 0.89334 0.06827 0.0
C527 C 0.29299 0.8702 0.07637 0.0
C528 C 0.35156 0.84032 0.04866 0.0
C529 C 0.32676 0.92797 0.06971 0.0
C530 C 0.42275 0.9455 0.04931 0.0
C531 C 0.41819 0.94883 0.03089 0.0
C532 C 0.39691 0.92534 0.05875 0.0
C533 C 0.36567 0.90761 0.04953 0.0
C534 C 0.36073 0.91146 0.03106 0.0
C535 C 0.38703 0.93206 0.02198 0.0
C536 C 0.40375 0.9224 0.07841 0.0
C537 C 0.32776 0.89311 0.02077 0.0
H538 H 0.29891 0.80359 0.06541 0.0
H539 H 0.27798 0.87735 0.08325 0.0
H540 H 0.35165 0.84489 0.03419 0.0
H541 H 0.37674 0.85451 0.05494 0.0
H542 H 0.34289 0.8142 0.04938 0.0
H543 H 0.30983 0.9316 0.07766 0.0
H544 H 0.35151 0.94413 0.07628 0.0
H545 H 0.32568 0.93545 0.05597 0.0
H546 H 0.44668 0.95826 0.0564 0.0
H547 H 0.3832 0.93441 0.00776 0.0
H548 H 0.41022 0.90328 0.07918 0.0
H549 H 0.38288 0.91596 0.08622 0.0
H550 H 0.42436 0.94546 0.08499 0.0
H551 H 0.31883 0.86674 0.01999 0.0
H552 H 0.32764 0.89999 0.00676 0.0
H553 H 0.3107 0.89758 0.02802 0.0
C554 C 0.19419 0.47595 0.06755 0.0
C555 C 0.18429 0.4483 0.07674 0.0
C556 C 0.17174 0.48153 0.05806 0.0
C557 C 0.1386 0.4589 0.05773 0.0
C558 C 0.12845 0.43087 0.0669 0.0
C559 C 0.15142 0.4259 0.07629 0.0
C560 C 0.18348 0.51178 0.04851 0.0
C561 C 0.09333 0.40615 0.06683 0.0
C562 C 0.07993 0.48812 0.04762 0.0
C563 C 0.06968 0.47687 0.02921 0.0
C564 C 0.10213 0.48222 0.05709 0.0
C565 C 0.11453 0.46474 0.04794 0.0
C566 C 0.10419 0.45314 0.02939 0.0
C567 C 0.08187 0.45933 0.02025 0.0
C568 C 0.11248 0.49493 0.07688 0.0
C569 C 0.11687 0.43438 0.01918 0.0
H570 H 0.21953 0.49354 0.06803 0.0
H571 H 0.14364 0.40427 0.08316 0.0
H572 H 0.17469 0.50526 0.03389 0.0
H573 H 0.17372 0.52667 0.05417 0.0
H574 H 0.21006 0.52673 0.04986 0.0
H575 H 0.08941 0.38557 0.07456 0.0
H576 H 0.08055 0.41772 0.07282 0.0
H577 H 0.08232 0.39653 0.05268 0.0
H578 H 0.0708 0.5018 0.05469 0.0
H579 H 0.07414 0.45054 0.00604 0.0
H580 H 0.13875 0.51191 0.07888 0.0
H581 H 0.10731 0.47468 0.08515 0.0
H582 H 0.10021 0.50769 0.08207 0.0
H583 H 0.14328 0.44945 0.0193 0.0
H584 H 0.10608 0.42664 0.00488 0.0
H585 H 0.1119 0.41259 0.02596 0.0
C586 C 0.54336 0.704 0.07497 0.0
C587 C 0.52819 0.72038 0.0683 0.0
C588 C 0.53956 0.676 0.06528 0.0
C589 C 0.52126 0.66484 0.04817 0.0
C590 C 0.5065 0.68154 0.04115 0.0
C591 C 0.50957 0.7086 0.05144 0.0
C592 C 0.55475 0.65812 0.07345 0.0
C593 C 0.48727 0.67074 0.02276 0.0
C594 C 0.53417 0.61119 0.01407 0.0
C595 C 0.50584 0.58165 0.01422 0.0
C596 C 0.53985 0.63852 0.02531 0.0
C597 C 0.51724 0.6356 0.03748 0.0
C598 C 0.4895 0.60513 0.0384 0.0
C599 C 0.48375 0.57864 0.02641 0.0
C600 C 0.56924 0.67075 0.02358 0.0
C601 C 0.46562 0.60061 0.0518 0.0
H602 H 0.55831 0.71299 0.08778 0.0
H603 H 0.49693 0.72025 0.04627 0.0
H604 H 0.5361 0.63263 0.07447 0.0
H605 H 0.57214 0.65753 0.06457 0.0
H606 H 0.56739 0.66937 0.08716 0.0
H607 H 0.47913 0.68764 0.01875 0.0
H608 H 0.50187 0.6688 0.01229 0.0
H609 H 0.46588 0.6464 0.02286 0.0
H610 H 0.55119 0.61321 0.00461 0.0
H611 H 0.4621 0.55546 0.02667 0.0
H612 H 0.58329 0.68163 0.03697 0.0
H613 H 0.56179 0.68769 0.01872 0.0
H614 H 0.58504 0.66864 0.01398 0.0
H615 H 0.47817 0.611 0.0656 0.0
H616 H 0.44752 0.57469 0.05225 0.0
H617 H 0.45292 0.61365 0.04804 0.0
C618 C 0.83675 0.30451 0.93126 0.0
C619 C 0.82204 0.27447 0.93836 0.0
C620 C 0.85913 0.33294 0.9421 0.0
C621 C 0.86661 0.33143 0.96059 0.0
C622 C 0.85196 0.30126 0.96786 0.0
C623 C 0.83007 0.27314 0.95663 0.0
C624 C 0.87456 0.36464 0.93381 0.0
C625 C 0.8592 0.29874 0.98755 0.0
C626 C 0.94332 0.40088 0.9857 0.0
C627 C 0.93194 0.41943 0.99432 0.0
C628 C 0.92236 0.37222 0.9746 0.0
C629 C 0.88917 0.36155 0.97244 0.0
C630 C 0.87747 0.3798 0.98153 0.0
C631 C 0.89905 0.40863 0.9923 0.0
C632 C 0.93579 0.35365 0.96495 0.0
C633 C 0.8422 0.36904 0.97973 0.0
H634 H 0.83041 0.30595 0.91725 0.0
H635 H 0.81936 0.25003 0.96218 0.0
H636 H 0.86789 0.38142 0.94056 0.0
H637 H 0.90107 0.37636 0.93595 0.0
H638 H 0.86725 0.36148 0.91903 0.0
H639 H 0.84582 0.27345 0.99109 0.0
H640 H 0.88524 0.30813 0.99068 0.0
H641 H 0.85287 0.31385 0.99634 0.0
H642 H 0.96869 0.40893 0.98751 0.0
H643 H 0.89018 0.4229 0.999 0.0
H644 H 0.93037 0.35202 0.95008 0.0
H645 H 0.92426 0.32857 0.96879 0.0
H646 H 0.96217 0.36516 0.96813 0.0
H647 H 0.83386 0.3681 0.96536 0.0
H648 H 0.83689 0.38547 0.98812 0.0
H649 H 0.82813 0.34426 0.98386 0.0
C650 C 0.70633 0.53219 0.93686 0.0
C651 C 0.72188 0.55801 0.9263 0.0
C652 C 0.68044 0.52831 0.94621 0.0
C653 C 0.66953 0.55064 0.9449 0.0
C654 C 0.68464 0.57639 0.93398 0.0
C655 C 0.71067 0.5798 0.92483 0.0
C656 C 0.6647 0.50022 0.95747 0.0
C657 C 0.67348 0.60049 0.93212 0.0
C658 C 0.58448 0.52166 0.95651 0.0
C659 C 0.5896 0.5352 0.97456 0.0
C660 C 0.61024 0.52693 0.94662 0.0
C661 C 0.64204 0.5466 0.95484 0.0
C662 C 0.64746 0.56098 0.9729 0.0
C663 C 0.62119 0.55506 0.98256 0.0
C664 C 0.60331 0.5111 0.92741 0.0
C665 C 0.68103 0.58199 0.98218 0.0
H666 H 0.71436 0.51482 0.93779 0.0
H667 H 0.72267 0.59994 0.91681 0.0
H668 H 0.66577 0.50928 0.97175 0.0
H669 H 0.639 0.4846 0.95238 0.0
H670 H 0.67627 0.48518 0.95722 0.0
H671 H 0.68773 0.61914 0.92311 0.0
H672 H 0.6479 0.58776 0.92656 0.0
H673 H 0.67525 0.61277 0.94565 0.0
H674 H 0.56024 0.5064 0.9501 0.0
H675 H 0.62546 0.56568 0.99646 0.0
H676 H 0.61707 0.49852 0.92536 0.0
H677 H 0.61082 0.52988 0.91784 0.0
H678 H 0.57745 0.49326 0.92392 0.0
H679 H 0.69295 0.56742 0.98342 0.0
H680 H 0.68127 0.59266 0.99593 0.0
H681 H 0.69546 0.60188 0.97391 0.0
C682 C 0.47477 0.15633 0.93352 0.0
C683 C 0.46327 0.1748 0.94222 0.0
C684 C 0.48101 0.13516 0.94292 0.0
C685 C 0.47619 0.13288 0.96152 0.0
C686 C 0.46409 0.15099 0.97027 0.0
C687 C 0.45742 0.17136 0.96048 0.0
C688 C 0.49327 0.11565 0.93304 0.0
C689 C 0.45877 0.14936 0.99012 0.0
C690 C 0.46874 0.06218 0.98557 0.0
C691 C 0.49975 0.07516 0.99426 0.0
C692 C 0.46102 0.08024 0.97426 0.0
C693 C 0.48467 0.1124 0.97211 0.0
C694 C 0.516 0.1257 0.98099 0.0
C695 C 0.52322 0.10681 0.99188 0.0
C696 C 0.42752 0.06501 0.96477 0.0
C697 C 0.54173 0.16007 0.97924 0.0
H698 H 0.47956 0.1589 0.91946 0.0
H699 H 0.44769 0.18478 0.96721 0.0
H700 H 0.51796 0.12339 0.93889 0.0
H701 H 0.4781 0.08961 0.93481 0.0
H702 H 0.4936 0.11844 0.91831 0.0
H703 H 0.44915 0.16496 0.99488 0.0
H704 H 0.44176 0.1241 0.99262 0.0
H705 H 0.48172 0.15709 0.99841 0.0
H706 H 0.45042 0.03789 0.98766 0.0
H707 H 0.54724 0.11689 0.99859 0.0
H708 H 0.42851 0.06721 0.95001 0.0
H709 H 0.41544 0.07794 0.96994 0.0
H710 H 0.4127 0.03901 0.9668 0.0
H711 H 0.54528 0.16362 0.96476 0.0
H712 H 0.56505 0.16652 0.98671 0.0
H713 H 0.53413 0.17707 0.98458 0.0
C714 C 0.70215 0.17757 0.94154 0.0
C715 C 0.7191 0.16774 0.9306 0.0
C716 C 0.67603 0.15511 0.95001 0.0
C717 C 0.66648 0.12189 0.94749 0.0
C718 C 0.68302 0.11166 0.93614 0.0
C719 C 0.70912 0.13471 0.9278 0.0
C720 C 0.65882 0.16702 0.96181 0.0
C721 C 0.67352 0.07646 0.93309 0.0
C722 C 0.61877 0.07082 0.98385 0.0
C723 C 0.58716 0.05673 0.97577 0.0
C724 C 0.64488 0.09136 0.9746 0.0
C725 C 0.63927 0.09806 0.95686 0.0
C726 C 0.60748 0.0834 0.9485 0.0
C727 C 0.58189 0.06296 0.95803 0.0
C728 C 0.67845 0.10655 0.98398 0.0
C729 C 0.60039 0.08989 0.92963 0.0
H730 H 0.70937 0.20298 0.94351 0.0
H731 H 0.72225 0.12698 0.91948 0.0
H732 H 0.63302 0.15473 0.95675 0.0
H733 H 0.66038 0.16094 0.97586 0.0
H734 H 0.66896 0.19358 0.96218 0.0
H735 H 0.68825 0.07233 0.92352 0.0
H736 H 0.67619 0.06766 0.94619 0.0
H737 H 0.64791 0.06167 0.92765 0.0
H738 H 0.62316 0.06619 0.99752 0.0
H739 H 0.55762 0.05243 0.95164 0.0
H740 H 0.68922 0.13321 0.98607 0.0
H741 H 0.69377 0.10152 0.97537 0.0
H742 H 0.67893 0.09753 0.99735 0.0
H743 H 0.60984 0.11618 0.92917 0.0
H744 H 0.5743 0.07677 0.92509 0.0
H745 H 0.61263 0.08252 0.91984 0.0
C746 C 0.8571 0.57594 0.92769 0.0
C747 C 0.82419 0.55507 0.92853 0.0
C748 C 0.88002 0.57067 0.93686 0.0
C749 C 0.8698 0.54393 0.94715 0.0
C750 C 0.83664 0.52285 0.94812 0.0
C751 C 0.81423 0.52867 0.93879 0.0
C752 C 0.91518 0.59371 0.93554 0.0
C753 C 0.82482 0.49399 0.95889 0.0
C754 C 0.92637 0.51228 0.95744 0.0
C755 C 0.93873 0.52574 0.9754 0.0
C756 C 0.90406 0.51812 0.94806 0.0
C757 C 0.89378 0.53789 0.95685 0.0
C758 C 0.9062 0.55166 0.97494 0.0
C759 C 0.92853 0.54542 0.984 0.0
C760 C 0.89146 0.50307 0.92875 0.0
C761 C 0.89575 0.57284 0.98475 0.0
H762 H 0.86496 0.59662 0.91998 0.0
H763 H 0.78884 0.51221 0.93929 0.0
H764 H 0.92774 0.60477 0.94927 0.0
H765 H 0.92636 0.58032 0.92971 0.0
H766 H 0.91916 0.61336 0.927 0.0
H767 H 0.79825 0.48016 0.95844 0.0
H768 H 0.83301 0.47751 0.95352 0.0
H769 H 0.83509 0.50203 0.97325 0.0
H770 H 0.93396 0.49693 0.95067 0.0
H771 H 0.9379 0.55592 0.99787 0.0
H772 H 0.8981 0.52234 0.91954 0.0
H773 H 0.8649 0.48837 0.92744 0.0
H774 H 0.90104 0.48736 0.92412 0.0
H775 H 0.90096 0.59385 0.97714 0.0
H776 H 0.90792 0.58197 0.99874 0.0
H777 H 0.86946 0.55904 0.9855 0.0
C778 C 0.46016 0.28143 0.96197 0.0
C779 C 0.46569 0.28073 0.94365 0.0
C780 C 0.46731 0.31035 0.97204 0.0
C781 C 0.47971 0.33922 0.96351 0.0
C782 C 0.4847 0.33867 0.94493 0.0
C783 C 0.47792 0.30949 0.93526 0.0
C784 C 0.46189 0.31005 0.99187 0.0
C785 C 0.49745 0.36895 0.93532 0.0
C786 C 0.47234 0.40785 0.98647 0.0
C787 C 0.50345 0.4281 0.99494 0.0
C788 C 0.46441 0.37914 0.97587 0.0
C789 C 0.48798 0.37011 0.97416 0.0
C790 C 0.51932 0.39027 0.98294 0.0
C791 C 0.52675 0.41918 0.99314 0.0
C792 C 0.43087 0.35852 0.96648 0.0
C793 C 0.54496 0.3812 0.98165 0.0
H794 H 0.45007 0.25927 0.96849 0.0
H795 H 0.48267 0.30935 0.92119 0.0
H796 H 0.48476 0.32698 1.00023 0.0
H797 H 0.44477 0.31852 0.99442 0.0
H798 H 0.45234 0.28559 0.9965 0.0
H799 H 0.49845 0.36412 0.92062 0.0
H800 H 0.48214 0.37996 0.9369 0.0
H801 H 0.52193 0.38709 0.94152 0.0
H802 H 0.45416 0.41446 0.98811 0.0
H803 H 0.55082 0.4348 0.99973 0.0
H804 H 0.41916 0.33434 0.97155 0.0
H805 H 0.43181 0.35473 0.95169 0.0
H806 H 0.41574 0.36961 0.96864 0.0
H807 H 0.53692 0.35743 0.98689 0.0
H808 H 0.56807 0.39942 0.98941 0.0
H809 H 0.54912 0.37867 0.96726 0.0
C810 C 0.17674 0.73083 0.04777 0.0
C811 C 0.18353 0.73007 0.0663 0.0
C812 C 0.15561 0.7024 0.03654 0.0
C813 C 0.14061 0.67247 0.04405 0.0
C814 C 0.14705 0.6715 0.06277 0.0
C815 C 0.16857 0.70026 0.07364 0.0
C816 C 0.14939 0.70438 0.01664 0.0
C817 C 0.13135 0.64004 0.07129 0.0
C818 C 0.06466 0.60255 0.01858 0.0
C819 C 0.07636 0.58391 0.01043 0.0
C820 C 0.08528 0.63141 0.02961 0.0
C821 C 0.11844 0.64208 0.03228 0.0
C822 C 0.13045 0.62364 0.02375 0.0
C823 C 0.10922 0.5947 0.01295 0.0
C824 C 0.07152 0.65025 0.03859 0.0
C825 C 0.16568 0.63433 0.02616 0.0
H826 H 0.18772 0.75378 0.04203 0.0
H827 H 0.17398 0.69932 0.08787 0.0
H828 H 0.15603 0.68896 0.00836 0.0
H829 H 0.12347 0.69502 0.01303 0.0
H830 H 0.1631 0.72951 0.01289 0.0
H831 H 0.13821 0.64354 0.08614 0.0
H832 H 0.10487 0.6283 0.06885 0.0
H833 H 0.1382 0.62311 0.06493 0.0
H834 H 0.03929 0.59441 0.01647 0.0
H835 H 0.11832 0.58033 0.00664 0.0
H836 H 0.08327 0.67518 0.0345 0.0
H837 H 0.07641 0.65233 0.05354 0.0
H838 H 0.04522 0.63871 0.03507 0.0
H839 H 0.18003 0.6589 0.0218 0.0
H840 H 0.17125 0.6176 0.01829 0.0
H841 H 0.17346 0.63577 0.0407 0.0
C842 C 0.30539 0.47686 0.07134 0.0
C843 C 0.2886 0.44927 0.08046 0.0
C844 C 0.33191 0.48189 0.06226 0.0
C845 C 0.34198 0.45876 0.06226 0.0
C846 C 0.32562 0.43122 0.07179 0.0
C847 C 0.29914 0.42681 0.08079 0.0
C848 C 0.34889 0.51176 0.05244 0.0
C849 C 0.3358 0.40616 0.07222 0.0
C850 C 0.39011 0.45751 0.02374 0.0
C851 C 0.42166 0.47572 0.03203 0.0
C852 C 0.36391 0.4512 0.03354 0.0
C853 C 0.36937 0.46333 0.05207 0.0
C854 C 0.40112 0.48106 0.06062 0.0
C855 C 0.42682 0.48711 0.05051 0.0
C856 C 0.33039 0.4322 0.02394 0.0
C857 C 0.40809 0.49449 0.08034 0.0
H858 H 0.29768 0.49457 0.07126 0.0
H859 H 0.28614 0.40532 0.08768 0.0
H860 H 0.37466 0.52587 0.05764 0.0
H861 H 0.34755 0.50464 0.03777 0.0
H862 H 0.33841 0.52767 0.05399 0.0
H863 H 0.32117 0.38659 0.08064 0.0
H864 H 0.3336 0.39517 0.05824 0.0
H865 H 0.36138 0.41776 0.07766 0.0
H866 H 0.38584 0.44863 0.0095 0.0
H867 H 0.45106 0.50123 0.05711 0.0
H868 H 0.31932 0.44765 0.0238 0.0
H869 H 0.31523 0.4112 0.03133 0.0
H870 H 0.33008 0.42324 0.00974 0.0
H871 H 0.40292 0.51454 0.08196 0.0
H872 H 0.4335 0.50391 0.08555 0.0
H873 H 0.39246 0.47566 0.08884 0.0
C874 C 0.50772 0.81451 0.05285 0.0
C875 C 0.52562 0.82407 0.06995 0.0
C876 C 0.50459 0.83676 0.04283 0.0
C877 C 0.51826 0.86924 0.05038 0.0
C878 C 0.53523 0.87899 0.06788 0.0
C879 C 0.53927 0.85649 0.07731 0.0
C880 C 0.48682 0.82546 0.02403 0.0
C881 C 0.54878 0.91307 0.07672 0.0
C882 C 0.53328 0.93035 0.01657 0.0
C883 C 0.50415 0.92996 0.01536 0.0
C884 C 0.53863 0.91126 0.0283 0.0
C885 C 0.51484 0.89275 0.03967 0.0
C886 C 0.48628 0.89422 0.03934 0.0
C887 C 0.48086 0.91205 0.02676 0.0
C888 C 0.5689 0.90951 0.02779 0.0
C889 C 0.46107 0.8764 0.05192 0.0
H890 H 0.49592 0.78945 0.04718 0.0
H891 H 0.55339 0.8645 0.09038 0.0
H892 H 0.46493 0.82747 0.02367 0.0
H893 H 0.50208 0.84106 0.01407 0.0
H894 H 0.47961 0.79997 0.01964 0.0
H895 H 0.56102 0.91676 0.09051 0.0
H896 H 0.5661 0.93071 0.06827 0.0
H897 H 0.52917 0.91857 0.07775 0.0
H898 H 0.55122 0.94437 0.00771 0.0
H899 H 0.45852 0.91228 0.02599 0.0
H900 H 0.56264 0.88455 0.02281 0.0
H901 H 0.58153 0.91505 0.0416 0.0
H902 H 0.58561 0.92651 0.01881 0.0
H903 H 0.4476 0.8502 0.04718 0.0
H904 H 0.4437 0.88515 0.05245 0.0
H905 H 0.47234 0.87925 0.06586 0.0
C906 C 0.96495 0.2006 0.41245 0.0
C907 C 0.95563 0.1677 0.41005 0.0
C908 C 0.991 0.22372 0.4041 0.0
C909 C 0.00828 0.21375 0.39321 0.0
C910 C 0.99936 0.18067 0.39108 0.0
C911 C 0.97315 0.1581 0.39946 0.0
C912 C 0.99981 0.25876 0.40673 0.0
C913 C 0.01738 0.16903 0.37982 0.0
C914 C 0.05618 0.26397 0.35662 0.0
C915 C 0.08775 0.27882 0.3649 0.0
C916 C 0.03004 0.24351 0.36588 0.0
C917 C 0.03552 0.23768 0.38385 0.0
C918 C 0.06724 0.25333 0.39247 0.0
C919 C 0.0929 0.2736 0.3829 0.0
C920 C 0.99658 0.22746 0.35625 0.0
C921 C 0.0743 0.2478 0.41158 0.0
H922 H 0.95139 0.20815 0.42051 0.0
H923 H 0.96638 0.13279 0.39778 0.0
H924 H 0.02517 0.27396 0.41257 0.0
H925 H 0.99766 0.26722 0.39343 0.0
H926 H 0.98434 0.26269 0.41582 0.0
H927 H 0.0077 0.14258 0.37973 0.0
H928 H 0.0161 0.17466 0.36564 0.0
H929 H 0.04308 0.18187 0.38516 0.0
H930 H 0.05186 0.26785 0.34277 0.0
H931 H 0.11712 0.28493 0.3895 0.0
H932 H 0.98076 0.23226 0.36454 0.0
H933 H 0.98636 0.20086 0.35444 0.0
H934 H 0.99613 0.23598 0.34272 0.0
H935 H 0.05761 0.24944 0.42064 0.0
H936 H 0.09928 0.26549 0.4173 0.0
H937 H 0.07079 0.2231 0.4116 0.0
C938 C 0.85852 0.80875 0.40159 0.0
C939 C 0.84875 0.78216 0.41169 0.0
C940 C 0.83595 0.81432 0.39225 0.0
C941 C 0.80282 0.79285 0.39307 0.0
C942 C 0.79279 0.76599 0.40324 0.0
C943 C 0.81586 0.76092 0.41237 0.0
C944 C 0.84754 0.84326 0.38156 0.0
C945 C 0.75767 0.7426 0.40446 0.0
C946 C 0.74534 0.82332 0.38262 0.0
C947 C 0.7331 0.80971 0.36467 0.0
C948 C 0.7679 0.81791 0.39206 0.0
C949 C 0.77863 0.79851 0.38331 0.0
C950 C 0.76636 0.78462 0.36522 0.0
C951 C 0.74371 0.79036 0.35611 0.0
C952 C 0.78033 0.83308 0.41136 0.0
C953 C 0.77735 0.76388 0.35544 0.0
H954 H 0.88388 0.82549 0.40119 0.0
H955 H 0.80812 0.74005 0.41992 0.0
H956 H 0.83751 0.83523 0.36715 0.0
H957 H 0.83891 0.85939 0.38686 0.0
H958 H 0.87411 0.85745 0.38214 0.0
H959 H 0.75386 0.72306 0.41306 0.0
H960 H 0.74614 0.75572 0.41017 0.0
H961 H 0.74532 0.7314 0.39071 0.0
H962 H 0.73757 0.83857 0.38932 0.0
H963 H 0.73447 0.7798 0.34224 0.0
H964 H 0.80681 0.84868 0.41256 0.0
H965 H 0.77462 0.81392 0.42054 0.0
H966 H 0.76989 0.84795 0.4161 0.0
H967 H 0.80365 0.77804 0.35479 0.0
H968 H 0.76536 0.75473 0.34142 0.0
H969 H 0.77238 0.7429 0.36302 0.0
C970 C 0.20408 0.02832 0.40416 0.0
C971 C 0.1889 0.04537 0.39861 0.0
C972 C 0.19788 0.99951 0.39431 0.0
C973 C 0.17716 0.98816 0.37802 0.0
C974 C 0.1617 0.00503 0.3723 0.0
C975 C 0.16716 0.03293 0.38286 0.0
C976 C 0.21372 0.98137 0.40125 0.0
C977 C 0.13994 0.99404 0.35479 0.0
C978 C 0.1892 0.93568 0.34258 0.0
C979 C 0.16205 0.90549 0.34348 0.0
C980 C 0.19431 0.96291 0.3537 0.0
C981 C 0.17252 0.95931 0.36657 0.0
C982 C 0.14581 0.92838 0.36805 0.0
C983 C 0.14043 0.90195 0.35611 0.0
C984 C 0.22251 0.99563 0.35132 0.0
C985 C 0.12303 0.92313 0.38226 0.0
H986 H 0.22136 0.03768 0.41605 0.0
H987 H 0.15442 0.04503 0.37862 0.0
H988 H 0.19536 0.95576 0.40221 0.0
H989 H 0.2304 0.98128 0.39164 0.0
H990 H 0.22737 0.99215 0.4148 0.0
H991 H 0.13053 0.01043 0.35197 0.0
H992 H 0.15317 0.99289 0.34331 0.0
H993 H 0.11934 0.96934 0.35529 0.0
H994 H 0.20582 0.93815 0.33275 0.0
H995 H 0.11964 0.87834 0.3569 0.0
H996 H 0.2385 0.00618 0.36416 0.0
H997 H 0.21389 0.01243 0.34794 0.0
H998 H 0.23678 0.99435 0.34044 0.0
H999 H 0.13663 0.93334 0.39584 0.0
H1000 H 0.1054 0.89707 0.38275 0.0
H1001 H 0.10973 0.93593 0.3794 0.0
C1002 C 0.4936 0.60928 0.29061 0.0
C1003 C 0.48667 0.61048 0.27215 0.0
C1004 C 0.51482 0.63746 0.302 0.0
C1005 C 0.53 0.66761 0.29473 0.0
C1006 C 0.52352 0.66904 0.27609 0.0
C1007 C 0.50174 0.64054 0.26507 0.0
C1008 C 0.52098 0.63497 0.32184 0.0
C1009 C 0.53956 0.70071 0.26778 0.0
C1010 C 0.56286 0.74491 0.32657 0.0
C1011 C 0.59553 0.75486 0.32912 0.0
C1012 C 0.54121 0.71643 0.31551 0.0
C1013 C 0.55261 0.69767 0.30668 0.0
C1014 C 0.58559 0.70755 0.30933 0.0
C1015 C 0.60657 0.73583 0.32071 0.0
C1016 C 0.50617 0.7065 0.31319 0.0
C1017 C 0.59878 0.68848 0.29997 0.0
H1018 H 0.48266 0.58619 0.29619 0.0
H1019 H 0.49627 0.6419 0.25091 0.0
H1020 H 0.5468 0.64368 0.32535 0.0
H1021 H 0.51491 0.65066 0.33031 0.0
H1022 H 0.50681 0.60979 0.32545 0.0
H1023 H 0.5326 0.6976 0.25296 0.0
H1024 H 0.53314 0.71781 0.27438 0.0
H1025 H 0.56602 0.71204 0.27011 0.0
H1026 H 0.55424 0.75956 0.3331 0.0
H1027 H 0.63175 0.74321 0.3229 0.0
H1028 H 0.49139 0.68183 0.31733 0.0
H1029 H 0.49849 0.70563 0.2987 0.0
H1030 H 0.50106 0.72338 0.3213 0.0
H1031 H 0.58678 0.66344 0.3039 0.0
H1032 H 0.62507 0.69961 0.30335 0.0
H1033 H 0.59371 0.68676 0.28506 0.0
C1034 C 0.37092 0.90607 0.25707 0.0
C1035 C 0.38191 0.88413 0.25873 0.0
C1036 C 0.34444 0.90255 0.26577 0.0
C1037 C 0.32852 0.87642 0.27634 0.0
C1038 C 0.33917 0.8539 0.27779 0.0
C1039 C 0.36566 0.85801 0.26898 0.0
C1040 C 0.33379 0.92704 0.26388 0.0
C1041 C 0.32273 0.82554 0.28879 0.0
C1042 C 0.27984 0.88073 0.3138 0.0
C1043 C 0.2483 0.86107 0.30568 0.0
C1044 C 0.30619 0.88666 0.30423 0.0
C1045 C 0.30093 0.87264 0.2861 0.0
C1046 C 0.26919 0.8535 0.27768 0.0
C1047 C 0.24333 0.84791 0.28756 0.0
C1048 C 0.33967 0.90722 0.3137 0.0
C1049 C 0.26248 0.83816 0.25836 0.0
H1050 H 0.38351 0.92646 0.2493 0.0
H1051 H 0.37366 0.84064 0.27008 0.0
H1052 H 0.30815 0.91468 0.25847 0.0
H1053 H 0.33602 0.93961 0.2774 0.0
H1054 H 0.34811 0.94544 0.25477 0.0
H1055 H 0.33372 0.80998 0.28838 0.0
H1056 H 0.32391 0.83438 0.30314 0.0
H1057 H 0.29699 0.8105 0.28364 0.0
H1058 H 0.28401 0.89105 0.32776 0.0
H1059 H 0.21913 0.83264 0.28111 0.0
H1060 H 0.35452 0.92714 0.30556 0.0
H1061 H 0.35123 0.89233 0.315 0.0
H1062 H 0.33981 0.91785 0.32745 0.0
H1063 H 0.27562 0.8569 0.24919 0.0
H1064 H 0.23652 0.82518 0.25351 0.0
H1065 H 0.2712 0.82071 0.25731 0.0
C1066 C 0.16288 0.51948 0.2878 0.0
C1067 C 0.14005 0.50793 0.27254 0.0
C1068 C 0.16864 0.49843 0.29751 0.0
C1069 C 0.15265 0.46511 0.29128 0.0
C1070 C 0.13135 0.45346 0.2752 0.0
C1071 C 0.12469 0.47481 0.26629 0.0
C1072 C 0.19109 0.51178 0.31481 0.0
C1073 C 0.11513 0.41835 0.26762 0.0
C1074 C 0.19032 0.42069 0.31288 0.0
C1075 C 0.16941 0.40544 0.32592 0.0
C1076 C 0.18397 0.43839 0.30061 0.0
C1077 C 0.15711 0.44245 0.30223 0.0
C1078 C 0.13583 0.42682 0.31538 0.0
C1079 C 0.14185 0.40775 0.32679 0.0
C1080 C 0.2062 0.45304 0.28613 0.0
C1081 C 0.10754 0.4314 0.31795 0.0
H1082 H 0.17609 0.54507 0.29242 0.0
H1083 H 0.10683 0.4652 0.25466 0.0
H1084 H 0.17827 0.49907 0.3263 0.0
H1085 H 0.21145 0.50749 0.31367 0.0
H1086 H 0.20084 0.53814 0.3181 0.0
H1087 H 0.10297 0.41412 0.25374 0.0
H1088 H 0.13287 0.41011 0.26718 0.0
H1089 H 0.09698 0.40312 0.27653 0.0
H1090 H 0.21148 0.4185 0.31215 0.0
H1091 H 0.12577 0.39579 0.33692 0.0
H1092 H 0.21998 0.47975 0.28901 0.0
H1093 H 0.19216 0.44724 0.2727 0.0
H1094 H 0.22346 0.4442 0.28529 0.0
H1095 H 0.11611 0.45743 0.32161 0.0
H1096 H 0.09328 0.41745 0.32874 0.0
H1097 H 0.09156 0.42375 0.30513 0.0
C1098 C 0.36756 0.51094 0.27428 0.0
C1099 C 0.38548 0.50212 0.26353 0.0
C1100 C 0.34178 0.48784 0.28272 0.0
C1101 C 0.3335 0.45496 0.28032 0.0
C1102 C 0.3509 0.44569 0.26911 0.0
C1103 C 0.37669 0.46938 0.26086 0.0
C1104 C 0.32365 0.49873 0.2944 0.0
C1105 C 0.34266 0.41086 0.26611 0.0
C1106 C 0.28707 0.40273 0.31669 0.0
C1107 C 0.25537 0.38761 0.30861 0.0
C1108 C 0.31281 0.42404 0.30745 0.0
C1109 C 0.30675 0.43046 0.28971 0.0
C1110 C 0.27489 0.41473 0.28135 0.0
C1111 C 0.24969 0.39354 0.29086 0.0
C1112 C 0.34645 0.44042 0.31687 0.0
C1113 C 0.26728 0.4209 0.26249 0.0
H1114 H 0.3738 0.53609 0.27618 0.0
H1115 H 0.39055 0.46237 0.25271 0.0
H1116 H 0.29781 0.48551 0.28934 0.0
H1117 H 0.32556 0.49296 0.3085 0.0
H1118 H 0.33279 0.52511 0.29467 0.0
H1119 H 0.35782 0.40743 0.25655 0.0
H1120 H 0.34585 0.40239 0.27922 0.0
H1121 H 0.31713 0.3953 0.26069 0.0
H1122 H 0.29177 0.39842 0.33038 0.0
H1123 H 0.22535 0.3823 0.28448 0.0
H1124 H 0.35624 0.46694 0.31892 0.0
H1125 H 0.36233 0.43622 0.3083 0.0
H1126 H 0.34737 0.43164 0.33026 0.0
H1127 H 0.27572 0.447 0.26207 0.0
H1128 H 0.2412 0.40692 0.25795 0.0
H1129 H 0.28011 0.41437 0.2527 0.0
C1130 C 0.51859 0.9053 0.26198 0.0
C1131 C 0.48578 0.88384 0.26279 0.0
C1132 C 0.54196 0.90096 0.27138 0.0
C1133 C 0.53233 0.8746 0.28191 0.0
C1134 C 0.49928 0.85303 0.28294 0.0
C1135 C 0.4764 0.8579 0.27336 0.0
C1136 C 0.57697 0.92449 0.26996 0.0
C1137 C 0.48809 0.82455 0.29398 0.0
C1138 C 0.59072 0.84515 0.29242 0.0
C1139 C 0.60327 0.85925 0.31027 0.0
C1140 C 0.56766 0.84995 0.28304 0.0
C1141 C 0.55685 0.86937 0.29169 0.0
C1142 C 0.56945 0.88377 0.30968 0.0
C1143 C 0.59251 0.87854 0.31875 0.0
C1144 C 0.55493 0.83425 0.26385 0.0
C1145 C 0.55844 0.90457 0.31936 0.0
H1146 H 0.52602 0.92569 0.25406 0.0
H1147 H 0.45111 0.841 0.27387 0.0
H1148 H 0.58955 0.93584 0.28364 0.0
H1149 H 0.58849 0.91143 0.26415 0.0
H1150 H 0.58047 0.94391 0.26133 0.0
H1151 H 0.46156 0.81042 0.29369 0.0
H1152 H 0.49653 0.80822 0.2887 0.0
H1153 H 0.4986 0.83304 0.30828 0.0
H1154 H 0.5987 0.83007 0.28574 0.0
H1155 H 0.60199 0.88949 0.33254 0.0
H1156 H 0.56218 0.8532 0.25439 0.0
H1157 H 0.52834 0.82011 0.26246 0.0
H1158 H 0.56398 0.81788 0.25962 0.0
H1159 H 0.5631 0.92528 0.31161 0.0
H1160 H 0.57068 0.91412 0.33331 0.0
H1161 H 0.5322 0.89033 0.32018 0.0
C1162 C 0.14165 0.63697 0.26931 0.0
C1163 C 0.12943 0.60742 0.27688 0.0
C1164 C 0.14685 0.66509 0.27949 0.0
C1165 C 0.14041 0.66389 0.29786 0.0
C1166 C 0.12786 0.6342 0.30558 0.0
C1167 C 0.12219 0.60627 0.29495 0.0
C1168 C 0.15975 0.69621 0.27068 0.0
C1169 C 0.12099 0.63208 0.32518 0.0
C1170 C 0.18611 0.74367 0.32779 0.0
C1171 C 0.16279 0.75272 0.32889 0.0
C1172 C 0.17888 0.71437 0.3181 0.0
C1173 C 0.14775 0.69399 0.30908 0.0
C1174 C 0.12399 0.70285 0.31039 0.0
C1175 C 0.1317 0.73192 0.32053 0.0
C1176 C 0.2047 0.70548 0.31729 0.0
C1177 C 0.09071 0.68206 0.3007 0.0
H1178 H 0.14787 0.63838 0.25548 0.0
H1179 H 0.11214 0.5835 0.30086 0.0
H1180 H 0.14405 0.70673 0.27239 0.0
H1181 H 0.18391 0.71419 0.27736 0.0
H1182 H 0.16156 0.69262 0.25597 0.0
H1183 H 0.11104 0.60711 0.3291 0.0
H1184 H 0.14338 0.64836 0.33411 0.0
H1185 H 0.1037 0.64033 0.32773 0.0
H1186 H 0.21013 0.75963 0.33435 0.0
H1187 H 0.11347 0.73862 0.32165 0.0
H1188 H 0.21041 0.70447 0.3031 0.0
H1189 H 0.19607 0.68108 0.3218 0.0
H1190 H 0.22709 0.72307 0.32587 0.0
H1191 H 0.09213 0.6799 0.28587 0.0
H1192 H 0.07486 0.69214 0.30336 0.0
H1193 H 0.07952 0.65728 0.30497 0.0
C1194 C 0.8223 0.0416 0.40719 0.0
C1195 C 0.85463 0.05867 0.40362 0.0
C1196 C 0.79997 0.01244 0.39691 0.0
C1197 C 0.80964 0.00073 0.38204 0.0
C1198 C 0.84193 0.0179 0.3781 0.0
C1199 C 0.86412 0.04615 0.38915 0.0
C1200 C 0.766 0.99418 0.40196 0.0
C1201 C 0.85301 0.00662 0.36207 0.0
C1202 C 0.76142 0.91297 0.36172 0.0
C1203 C 0.7425 0.91482 0.3474 0.0
C1204 C 0.7825 0.94053 0.37357 0.0
C1205 C 0.78586 0.97086 0.37035 0.0
C1206 C 0.76692 0.97275 0.3557 0.0
C1207 C 0.74484 0.94446 0.34464 0.0
C1208 C 0.80097 0.93713 0.38955 0.0
C1209 C 0.77052 0.00473 0.35144 0.0
H1210 H 0.81412 0.05106 0.41795 0.0
H1211 H 0.88899 0.0583 0.3864 0.0
H1212 H 0.74923 0.99394 0.39104 0.0
H1213 H 0.75887 0.96861 0.40343 0.0
H1214 H 0.76302 0.00503 0.41483 0.0
H1215 H 0.87856 0.02356 0.36032 0.0
H1216 H 0.84997 0.98246 0.36377 0.0
H1217 H 0.8381 0.0041 0.34947 0.0
H1218 H 0.75928 0.88984 0.36386 0.0
H1219 H 0.7301 0.94563 0.33347 0.0
H1220 H 0.79705 0.94748 0.40227 0.0
H1221 H 0.82703 0.95088 0.38813 0.0
H1222 H 0.79381 0.91148 0.39087 0.0
H1223 H 0.76484 0.01587 0.36311 0.0
H1224 H 0.75465 0.00213 0.33925 0.0
H1225 H 0.79575 0.02169 0.34912 0.0
C1226 C 0.96806 0.8063 0.40427 0.0
C1227 C 0.95101 0.7792 0.41371 0.0
C1228 C 0.99373 0.80997 0.39477 0.0
C1229 C 0.00258 0.78592 0.39465 0.0
C1230 C 0.98588 0.75879 0.40442 0.0
C1231 C 0.96031 0.75578 0.41387 0.0
C1232 C 0.01125 0.8395 0.38475 0.0
C1233 C 0.99492 0.73289 0.40479 0.0
C1234 C 0.04921 0.78275 0.35576 0.0
C1235 C 0.08091 0.80055 0.36385 0.0
C1236 C 0.02339 0.77707 0.36576 0.0
C1237 C 0.02942 0.78937 0.38429 0.0
C1238 C 0.06129 0.80644 0.39267 0.0
C1239 C 0.08658 0.81193 0.38235 0.0
C1240 C 0.9897 0.75872 0.35636 0.0
C1241 C 0.06897 0.82006 0.41237 0.0
H1242 H 0.96129 0.82472 0.40432 0.0
H1243 H 0.94707 0.73467 0.42102 0.0
H1244 H 0.03704 0.85314 0.38992 0.0
H1245 H 0.00969 0.83203 0.37012 0.0
H1246 H 0.00138 0.85598 0.38619 0.0
H1247 H 0.97978 0.71347 0.41317 0.0
H1248 H 0.9925 0.72185 0.39079 0.0
H1249 H 0.0204 0.74376 0.41028 0.0
H1250 H 0.04458 0.7739 0.3415 0.0
H1251 H 0.11094 0.82562 0.38881 0.0
H1252 H 0.97937 0.77482 0.35617 0.0
H1253 H 0.97422 0.73812 0.36393 0.0
H1254 H 0.98887 0.74926 0.34219 0.0
H1255 H 0.06712 0.84223 0.41379 0.0
H1256 H 0.0936 0.82654 0.41771 0.0
H1257 H 0.05174 0.80257 0.42092 0.0
C1258 C 0.21203 0.16145 0.38194 0.0
C1259 C 0.20334 0.15714 0.39972 0.0
C1260 C 0.2077 0.18293 0.37178 0.0
C1261 C 0.19527 0.20141 0.37972 0.0
C1262 C 0.18817 0.19867 0.39798 0.0
C1263 C 0.19196 0.17633 0.4077 0.0
C1264 C 0.21529 0.18491 0.35229 0.0
C1265 C 0.17579 0.21873 0.40707 0.0
C1266 C 0.20477 0.27245 0.35504 0.0
C1267 C 0.17414 0.25965 0.34584 0.0
C1268 C 0.21175 0.25421 0.36663 0.0
C1269 C 0.18784 0.22199 0.36849 0.0
C1270 C 0.15701 0.20881 0.35897 0.0
C1271 C 0.15046 0.22791 0.34789 0.0
C1272 C 0.24468 0.26938 0.37686 0.0
C1273 C 0.131 0.17438 0.36034 0.0
H1274 H 0.2218 0.14759 0.3758 0.0
H1275 H 0.18502 0.17321 0.42137 0.0
H1276 H 0.19309 0.17697 0.34319 0.0
H1277 H 0.23248 0.21027 0.35006 0.0
H1278 H 0.22565 0.16959 0.3483 0.0
H1279 H 0.17354 0.21545 0.4217 0.0
H1280 H 0.19211 0.24475 0.40574 0.0
H1281 H 0.15194 0.21203 0.4003 0.0
H1282 H 0.22331 0.29674 0.35316 0.0
H1283 H 0.12674 0.21792 0.34077 0.0
H1284 H 0.257 0.2563 0.37237 0.0
H1285 H 0.24261 0.26735 0.39158 0.0
H1286 H 0.25984 0.29533 0.37482 0.0
H1287 H 0.1392 0.15745 0.35582 0.0
H1288 H 0.10836 0.16776 0.352 0.0
H1289 H 0.12588 0.17091 0.37465 0.0
C1290 C 0.63271 0.53593 0.74647 0.0
C1291 C 0.62197 0.50286 0.74256 0.0
C1292 C 0.65905 0.55957 0.73856 0.0
C1293 C 0.67489 0.54995 0.72634 0.0
C1294 C 0.66453 0.51668 0.72258 0.0
C1295 C 0.63838 0.49362 0.73079 0.0
C1296 C 0.66979 0.59483 0.74317 0.0
C1297 C 0.68116 0.50545 0.7099 0.0
C1298 C 0.72284 0.60524 0.69151 0.0
C1299 C 0.7545 0.618 0.69924 0.0
C1300 C 0.69671 0.58371 0.70039 0.0
C1301 C 0.7023 0.57452 0.71739 0.0
C1302 C 0.73416 0.58767 0.72539 0.0
C1303 C 0.7598 0.60947 0.71633 0.0
C1304 C 0.66311 0.57003 0.69134 0.0
C1305 C 0.74137 0.57859 0.74345 0.0
H1306 H 0.62012 0.54335 0.75543 0.0
H1307 H 0.63083 0.46824 0.72801 0.0
H1308 H 0.69526 0.60814 0.74898 0.0
H1309 H 0.66824 0.60574 0.73068 0.0
H1310 H 0.65514 0.5984 0.75304 0.0
H1311 H 0.66998 0.47869 0.70824 0.0
H1312 H 0.68052 0.51381 0.69636 0.0
H1313 H 0.70676 0.51621 0.71512 0.0
H1314 H 0.71843 0.61161 0.67833 0.0
H1315 H 0.7841 0.61909 0.72248 0.0
H1316 H 0.64826 0.57456 0.70061 0.0
H1317 H 0.65176 0.54342 0.6883 0.0
H1318 H 0.6627 0.58062 0.67851 0.0
H1319 H 0.73615 0.59149 0.75445 0.0
H1320 H 0.76687 0.58518 0.74581 0.0
H1321 H 0.7262 0.55227 0.74441 0.0
C1322 C 0.52274 0.13963 0.73446 0.0
C1323 C 0.51376 0.11207 0.74359 0.0
C1324 C 0.49955 0.14481 0.72553 0.0
C1325 C 0.46661 0.12181 0.72569 0.0
C1326 C 0.4574 0.09382 0.73477 0.0
C1327 C 0.48109 0.0893 0.74361 0.0
C1328 C 0.51028 0.17501 0.71605 0.0
C1329 C 0.42253 0.06868 0.73515 0.0
C1330 C 0.4066 0.14972 0.71639 0.0
C1331 C 0.39629 0.13869 0.69797 0.0
C1332 C 0.42918 0.14406 0.72565 0.0
C1333 C 0.44179 0.12699 0.71626 0.0
C1334 C 0.4311 0.11532 0.69776 0.0
C1335 C 0.40848 0.1213 0.68884 0.0
C1336 C 0.43991 0.15681 0.7454 0.0
C1337 C 0.4439 0.0969 0.68731 0.0
H1338 H 0.54794 0.15748 0.73459 0.0
H1339 H 0.47404 0.06775 0.75046 0.0
H1340 H 0.50106 0.16839 0.70148 0.0
H1341 H 0.50022 0.18944 0.72196 0.0
H1342 H 0.53681 0.19044 0.71713 0.0
H1343 H 0.41938 0.04829 0.74283 0.0
H1344 H 0.40967 0.07991 0.74143 0.0
H1345 H 0.41099 0.05884 0.72111 0.0
H1346 H 0.39739 0.16321 0.72358 0.0
H1347 H 0.40069 0.11265 0.67462 0.0
H1348 H 0.46598 0.17471 0.74711 0.0
H1349 H 0.43607 0.13682 0.7536 0.0
H1350 H 0.42692 0.16858 0.7509 0.0
H1351 H 0.47017 0.11245 0.68701 0.0
H1352 H 0.43247 0.08868 0.67314 0.0
H1353 H 0.43986 0.07544 0.69417 0.0
C1354 C 0.83919 0.37207 0.7149 0.0
C1355 C 0.85823 0.38347 0.73166 0.0
C1356 C 0.83548 0.34493 0.70434 0.0
C1357 C 0.84989 0.32767 0.71098 0.0
C1358 C 0.86854 0.33839 0.728 0.0
C1359 C 0.87309 0.36653 0.73793 0.0
C1360 C 0.81603 0.33473 0.68604 0.0
C1361 C 0.8834 0.31994 0.7358 0.0
C1362 C 0.81189 0.24111 0.68941 0.0
C1363 C 0.83421 0.24369 0.67748 0.0
C1364 C 0.81745 0.26795 0.70105 0.0
C1365 C 0.84526 0.29834 0.70004 0.0
C1366 C 0.86784 0.30095 0.68791 0.0
C1367 C 0.86236 0.27331 0.67705 0.0
C1368 C 0.79354 0.26376 0.71436 0.0
C1369 C 0.89722 0.33308 0.68601 0.0
H1370 H 0.82676 0.38411 0.71001 0.0
H1371 H 0.8884 0.37518 0.7506 0.0
H1372 H 0.83028 0.33263 0.6754 0.0
H1373 H 0.79437 0.31057 0.68608 0.0
H1374 H 0.80829 0.35206 0.68229 0.0
H1375 H 0.89571 0.33043 0.74967 0.0
H1376 H 0.86466 0.29432 0.73636 0.0
H1377 H 0.90107 0.3199 0.72694 0.0
H1378 H 0.79038 0.21791 0.6899 0.0
H1379 H 0.87958 0.27503 0.66781 0.0
H1380 H 0.78126 0.2772 0.71061 0.0
H1381 H 0.80605 0.27396 0.72819 0.0
H1382 H 0.77509 0.23794 0.71476 0.0
H1383 H 0.88986 0.35039 0.6817 0.0
H1384 H 0.91239 0.33095 0.67596 0.0
H1385 H 0.91193 0.34354 0.69926 0.0
C1386 C 0.1798 0.96404 0.59698 0.0
C1387 C 0.14762 0.9466 0.60078 0.0
C1388 C 0.20218 0.99302 0.60741 0.0
C1389 C 0.1927 0.00421 0.62258 0.0
C1390 C 0.1605 0.98676 0.62666 0.0
C1391 C 0.13827 0.95864 0.61552 0.0
C1392 C 0.23604 0.01156 0.60222 0.0
C1393 C 0.14961 0.99752 0.64298 0.0
C1394 C 0.25774 0.05882 0.66028 0.0
C1395 C 0.26009 0.08866 0.65814 0.0
C1396 C 0.23562 0.03102 0.64889 0.0
C1397 C 0.21664 0.03363 0.63454 0.0
C1398 C 0.2201 0.0642 0.63191 0.0
C1399 C 0.24121 0.09124 0.64409 0.0
C1400 C 0.23197 0.99875 0.6525 0.0
C1401 C 0.20169 0.06842 0.61622 0.0
H1402 H 0.18785 0.95495 0.58598 0.0
H1403 H 0.11349 0.94617 0.61844 0.0
H1404 H 0.24327 0.03731 0.60132 0.0
H1405 H 0.25289 0.01109 0.61281 0.0
H1406 H 0.23874 0.00137 0.58904 0.0
H1407 H 0.12402 0.98062 0.64468 0.0
H1408 H 0.16448 0.99937 0.65545 0.0
H1409 H 0.1529 0.0219 0.64172 0.0
H1410 H 0.27244 0.05708 0.67124 0.0
H1411 H 0.24342 0.11455 0.64241 0.0
H1412 H 0.23746 0.98808 0.64053 0.0
H1413 H 0.20677 0.98167 0.65482 0.0
H1414 H 0.24795 0.00077 0.66449 0.0
H1415 H 0.20561 0.05868 0.60328 0.0
H1416 H 0.20893 0.09421 0.61536 0.0
H1417 H 0.17563 0.05457 0.61762 0.0
C1418 C 0.04133 0.24394 0.59126 0.0
C1419 C 0.05282 0.22239 0.59293 0.0
C1420 C 0.01515 0.24041 0.60027 0.0
C1421 C 1.00025 0.21486 0.61133 0.0
C1422 C 0.01143 0.19279 0.61288 0.0
C1423 C 0.0374 0.19671 0.6036 0.0
C1424 C 0.00368 0.26421 0.59814 0.0
C1425 C 0.9961 0.16512 0.62446 0.0
C1426 C 0.95235 0.22056 0.64888 0.0
C1427 C 0.92073 0.19997 0.64114 0.0
C1428 C 0.97849 0.22618 0.63919 0.0
C1429 C 0.97288 0.211 0.62131 0.0
C1430 C 0.94103 0.19078 0.61329 0.0
C1431 C 0.91542 0.18543 0.62331 0.0
C1432 C 0.01214 0.24765 0.64826 0.0
C1433 C 0.93395 0.17426 0.59423 0.0
H1434 H 0.05326 0.26404 0.58321 0.0
H1435 H 0.04569 0.17958 0.60472 0.0
H1436 H 0.97786 0.25116 0.59304 0.0
H1437 H 0.00618 0.27733 0.61152 0.0
H1438 H 0.01727 0.2822 0.58866 0.0
H1439 H 0.00774 0.15015 0.6243 0.0
H1440 H 0.99754 0.17466 0.63869 0.0
H1441 H 0.97031 0.1493 0.61963 0.0
H1442 H 0.95674 0.23181 0.66264 0.0
H1443 H 0.89116 0.16929 0.61719 0.0
H1444 H 0.02629 0.26727 0.63978 0.0
H1445 H 0.02429 0.23333 0.64966 0.0
H1446 H 0.0125 0.25873 0.66192 0.0
H1447 H 0.94517 0.19261 0.58456 0.0
H1448 H 0.90781 0.15939 0.58994 0.0
H1449 H 0.94447 0.15835 0.59325 0.0
C1450 C 0.80086 0.81744 0.59869 0.0
C1451 C 0.81541 0.85014 0.60573 0.0
C1452 C 0.80607 0.79527 0.60776 0.0
C1453 C 0.8251 0.80561 0.62466 0.0
C1454 C 0.84 0.83844 0.63178 0.0
C1455 C 0.83572 0.86034 0.62202 0.0
C1456 C 0.79133 0.76083 0.59925 0.0
C1457 C 0.86005 0.85043 0.64992 0.0
C1458 C 0.8113 0.74525 0.65885 0.0
C1459 C 0.8397 0.74424 0.65911 0.0
C1460 C 0.80593 0.76473 0.64743 0.0
C1461 C 0.8288 0.78217 0.63535 0.0
C1462 C 0.85659 0.77941 0.6348 0.0
C1463 C 0.86219 0.76128 0.64712 0.0
C1464 C 0.77658 0.76789 0.64893 0.0
C1465 C 0.88071 0.79594 0.62146 0.0
H1466 H 0.78498 0.80887 0.58624 0.0
H1467 H 0.84834 0.88561 0.62735 0.0
H1468 H 0.81041 0.75469 0.59766 0.0
H1469 H 0.77464 0.74384 0.6082 0.0
H1470 H 0.77806 0.75684 0.58575 0.0
H1471 H 0.86835 0.87628 0.65406 0.0
H1472 H 0.84597 0.8358 0.66055 0.0
H1473 H 0.88138 0.84759 0.64938 0.0
H1474 H 0.79395 0.73191 0.66815 0.0
H1475 H 0.88397 0.76003 0.64717 0.0
H1476 H 0.76241 0.76146 0.63553 0.0
H1477 H 0.78405 0.79341 0.65338 0.0
H1478 H 0.76085 0.75223 0.65874 0.0
H1479 H 0.8685 0.79401 0.60794 0.0
H1480 H 0.89649 0.78543 0.61993 0.0
H1481 H 0.89605 0.82202 0.62625 0.0
C1482 C 0.03083 0.84455 0.60591 0.0
C1483 C 0.04864 0.83604 0.59488 0.0
C1484 C 0.00541 0.82121 0.61446 0.0
C1485 C 0.99764 0.78848 0.61205 0.0
C1486 C 0.01523 0.77961 0.60075 0.0
C1487 C 0.04046 0.80348 0.59225 0.0
C1488 C 0.98693 0.83164 0.62613 0.0
C1489 C 0.00754 0.74495 0.59776 0.0
C1490 C 0.95193 0.73676 0.64873 0.0
C1491 C 0.92014 0.72137 0.64077 0.0
C1492 C 0.97749 0.75782 0.6393 0.0
C1493 C 0.97115 0.76372 0.62148 0.0
C1494 C 0.93924 0.74739 0.61314 0.0
C1495 C 0.91419 0.72651 0.62287 0.0
C1496 C 0.0112 0.77462 0.64864 0.0
C1497 C 0.93122 0.75296 0.59423 0.0
H1498 H 0.03671 0.86959 0.60778 0.0
H1499 H 0.05425 0.79677 0.58384 0.0
H1500 H 0.9612 0.81839 0.62085 0.0
H1501 H 0.98853 0.82551 0.64017 0.0
H1502 H 0.99596 0.85802 0.6266 0.0
H1503 H 0.02326 0.74193 0.58846 0.0
H1504 H 0.0103 0.73637 0.61092 0.0
H1505 H 0.98221 0.72921 0.59201 0.0
H1506 H 0.95685 0.733 0.66251 0.0
H1507 H 0.88978 0.71486 0.61652 0.0
H1508 H 0.02058 0.80106 0.65076 0.0
H1509 H 0.02725 0.77084 0.63999 0.0
H1510 H 0.01241 0.76583 0.66199 0.0
H1511 H 0.9329 0.77694 0.59461 0.0
H1512 H 0.90659 0.73424 0.58849 0.0
H1513 H 0.94844 0.7531 0.58495 0.0
C1514 C 0.18948 0.24419 0.5955 0.0
C1515 C 0.15668 0.2223 0.59596 0.0
C1516 C 0.21284 0.23959 0.60469 0.0
C1517 C 0.20318 0.21249 0.61461 0.0
C1518 C 0.17013 0.19041 0.61524 0.0
C1519 C 0.14727 0.19558 0.60591 0.0
C1520 C 0.24786 0.26366 0.60371 0.0
C1521 C 0.15892 0.16117 0.62566 0.0
C1522 C 0.2615 0.18282 0.62457 0.0
C1523 C 0.27306 0.19549 0.64272 0.0
C1524 C 0.23896 0.1884 0.61522 0.0
C1525 C 0.22766 0.20706 0.62422 0.0
C1526 C 0.23948 0.22025 0.64245 0.0
C1527 C 0.26205 0.21431 0.65148 0.0
C1528 C 0.22693 0.17391 0.59579 0.0
C1529 C 0.22798 0.2403 0.65248 0.0
H1530 H 0.1969 0.26513 0.58804 0.0
H1531 H 0.12197 0.17838 0.60614 0.0
H1532 H 0.26002 0.27434 0.61755 0.0
H1533 H 0.25982 0.25121 0.5977 0.0
H1534 H 0.25137 0.28355 0.59547 0.0
H1535 H 0.13236 0.14658 0.62501 0.0
H1536 H 0.16795 0.14551 0.62015 0.0
H1537 H 0.16884 0.16889 0.64009 0.0
H1538 H 0.26972 0.16815 0.61767 0.0
H1539 H 0.2708 0.22417 0.66549 0.0
H1540 H 0.23054 0.19309 0.58698 0.0
H1541 H 0.20081 0.15636 0.59472 0.0
H1542 H 0.23923 0.16124 0.5905 0.0
H1543 H 0.23248 0.26134 0.64507 0.0
H1544 H 0.23998 0.24931 0.66651 0.0
H1545 H 0.20172 0.22565 0.65315 0.0
C1546 C 0.79656 0.97023 0.60368 0.0
C1547 C 0.81238 0.95386 0.60938 0.0
C1548 C 0.80178 0.99867 0.61356 0.0
C1549 C 0.82208 0.01025 0.63002 0.0
C1550 C 0.83747 0.99355 0.63612 0.0
C1551 C 0.83305 0.96611 0.62556 0.0
C1552 C 0.78584 0.01652 0.60628 0.0
C1553 C 0.85869 0.00469 0.65385 0.0
C1554 C 0.86053 0.09748 0.65052 0.0
C1555 C 0.8393 0.09516 0.66315 0.0
C1556 C 0.85444 0.07027 0.63905 0.0
C1557 C 0.82731 0.03983 0.64094 0.0
C1558 C 0.80589 0.03748 0.6538 0.0
C1559 C 0.81178 0.06544 0.66448 0.0
C1560 C 0.87701 0.07412 0.62493 0.0
C1561 C 0.7773 0.00533 0.65663 0.0
H1562 H 0.77998 0.96091 0.59149 0.0
H1563 H 0.84621 0.95451 0.62998 0.0
H1564 H 0.76913 0.01684 0.61579 0.0
H1565 H 0.80416 0.04209 0.60515 0.0
H1566 H 0.77224 0.00538 0.59276 0.0
H1567 H 0.86713 0.98775 0.65728 0.0
H1568 H 0.87994 0.02889 0.65314 0.0
H1569 H 0.84549 0.00706 0.66503 0.0
H1570 H 0.88154 0.12075 0.64936 0.0
H1571 H 0.79542 0.06394 0.67427 0.0
H1572 H 0.86331 0.06351 0.6114 0.0
H1573 H 0.88972 0.06088 0.62817 0.0
H1574 H 0.89517 0.0999 0.6241 0.0
H1575 H 0.76131 0.99422 0.64382 0.0
H1576 H 0.76317 0.00766 0.66729 0.0
H1577 H 0.78549 0.98846 0.6606 0.0
C1578 C 0.50574 0.36491 0.74242 0.0
C1579 C 0.52 0.39473 0.73506 0.0
C1580 C 0.48346 0.33613 0.7318 0.0
C1581 C 0.47561 0.33701 0.71327 0.0
C1582 C 0.48995 0.36692 0.70572 0.0
C1583 C 0.51175 0.39542 0.71672 0.0
C1584 C 0.46842 0.30475 0.74041 0.0
C1585 C 0.48236 0.3688 0.68597 0.0
C1586 C 0.44213 0.25874 0.68229 0.0
C1587 C 0.40927 0.24811 0.68043 0.0
C1588 C 0.46404 0.28784 0.69276 0.0
C1589 C 0.45271 0.30654 0.70174 0.0
C1590 C 0.41952 0.29594 0.69983 0.0
C1591 C 0.39823 0.26701 0.68902 0.0
C1592 C 0.49928 0.2985 0.69429 0.0
C1593 C 0.40645 0.31495 0.70938 0.0
H1594 H 0.51227 0.36393 0.75647 0.0
H1595 H 0.52214 0.41832 0.71096 0.0
H1596 H 0.4419 0.29299 0.73852 0.0
H1597 H 0.47491 0.28779 0.7337 0.0
H1598 H 0.47619 0.30835 0.75515 0.0
H1599 H 0.4958 0.39389 0.68213 0.0
H1600 H 0.48831 0.35323 0.6773 0.0
H1601 H 0.45632 0.35956 0.68299 0.0
H1602 H 0.45075 0.24422 0.67562 0.0
H1603 H 0.37289 0.25907 0.68738 0.0
H1604 H 0.50806 0.30003 0.70865 0.0
H1605 H 0.51322 0.32302 0.6898 0.0
H1606 H 0.50428 0.28169 0.68604 0.0
H1607 H 0.41258 0.31743 0.72424 0.0
H1608 H 0.37999 0.30329 0.70656 0.0
H1609 H 0.41766 0.33972 0.70508 0.0
C1610 C 0.63199 0.09443 0.74827 0.0
C1611 C 0.6192 0.11484 0.74626 0.0
C1612 C 0.65874 0.09903 0.7395 0.0
C1613 C 0.67282 0.12438 0.72825 0.0
C1614 C 0.6603 0.14528 0.72632 0.0
C1615 C 0.63386 0.14042 0.73543 0.0
C1616 C 0.67174 0.07658 0.74212 0.0
C1617 C 0.67478 0.17275 0.71454 0.0
C1618 C 0.75818 0.15549 0.71658 0.0
C1619 C 0.75325 0.14006 0.69903 0.0
C1620 C 0.7323 0.1503 0.72633 0.0
C1621 C 0.70058 0.12907 0.71838 0.0
C1622 C 0.69537 0.11314 0.70075 0.0
C1623 C 0.72176 0.11877 0.6913 0.0
C1624 C 0.73904 0.16767 0.74512 0.0
C1625 C 0.66188 0.09066 0.69172 0.0
H1626 H 0.6207 0.07437 0.75641 0.0
H1627 H 0.62467 0.15677 0.73408 0.0
H1628 H 0.67012 0.06348 0.7289 0.0
H1629 H 0.69747 0.09076 0.7474 0.0
H1630 H 0.65859 0.05853 0.75166 0.0
H1631 H 0.66209 0.18671 0.71436 0.0
H1632 H 0.70036 0.18953 0.71948 0.0
H1633 H 0.67399 0.16314 0.70043 0.0
H1634 H 0.78234 0.17215 0.72269 0.0
H1635 H 0.71764 0.10683 0.67774 0.0
H1636 H 0.73228 0.1499 0.75527 0.0
H1637 H 0.7245 0.17955 0.74656 0.0
H1638 H 0.76475 0.18635 0.74835 0.0
H1639 H 0.6483 0.07102 0.70031 0.0
H1640 H 0.66187 0.0796 0.67813 0.0
H1641 H 0.6489 0.10415 0.69018 0.0
C1642 C 0.8711 0.52048 0.74191 0.0
C1643 C 0.85703 0.48807 0.73443 0.0
C1644 C 0.86688 0.5432 0.7328 0.0
C1645 C 0.84935 0.53371 0.71546 0.0
C1646 C 0.83526 0.50124 0.70779 0.0
C1647 C 0.83854 0.47877 0.71753 0.0
C1648 C 0.88103 0.57729 0.74176 0.0
C1649 C 0.81691 0.49021 0.68914 0.0
C1650 C 0.81238 0.57809 0.69304 0.0
C1651 C 0.83545 0.59605 0.68154 0.0
C1652 C 0.81768 0.55954 0.70518 0.0
C1653 C 0.84592 0.55754 0.70502 0.0
C1654 C 0.86946 0.57605 0.69352 0.0
C1655 C 0.86425 0.59576 0.68221 0.0
C1656 C 0.79283 0.54173 0.71794 0.0
C1657 C 0.89935 0.57374 0.69246 0.0
H1658 H 0.88572 0.52837 0.75481 0.0
H1659 H 0.82641 0.45374 0.71178 0.0
H1660 H 0.89903 0.59471 0.73353 0.0
H1661 H 0.86194 0.58362 0.74257 0.0
H1662 H 0.89268 0.58045 0.75566 0.0
H1663 H 0.80916 0.46461 0.68465 0.0
H1664 H 0.79532 0.49272 0.68909 0.0
H1665 H 0.83201 0.50567 0.67908 0.0
H1666 H 0.79031 0.57882 0.69268 0.0
H1667 H 0.88204 0.60983 0.67329 0.0
H1668 H 0.80441 0.54699 0.73203 0.0
H1669 H 0.78123 0.51526 0.71425 0.0
H1670 H 0.77391 0.54847 0.71762 0.0
H1671 H 0.91248 0.57913 0.70611 0.0
H1672 H 0.91581 0.59057 0.68332 0.0
H1673 H 0.89258 0.54866 0.68738 0.0
C1674 C 0.45815 0.89362 0.19353 0.0
C1675 C 0.44798 0.90972 0.20548 0.0
C1676 C 0.46677 0.90388 0.1764 0.0
C1677 C 0.46525 0.93096 0.17106 0.0
C1678 C 0.45373 0.9465 0.18275 0.0
C1679 C 0.44515 0.93564 0.19982 0.0
C1680 C 0.47861 0.88643 0.16429 0.0
C1681 C 0.45175 0.97545 0.17754 0.0
C1682 C 0.52227 0.97955 0.13726 0.0
C1683 C 0.50201 0.96899 0.12098 0.0
C1684 C 0.51052 0.96758 0.15363 0.0
C1685 C 0.47769 0.94423 0.15378 0.0
C1686 C 0.45712 0.93321 0.13742 0.0
C1687 C 0.46952 0.94569 0.12125 0.0
C1688 C 0.53331 0.97985 0.17077 0.0
C1689 C 0.42199 0.90825 0.13699 0.0
H1690 H 0.45989 0.87325 0.19774 0.0
H1691 H 0.43749 0.94827 0.20904 0.0
H1692 H 0.46506 0.8792 0.15065 0.0
H1693 H 0.50422 0.9029 0.16252 0.0
H1694 H 0.47627 0.86449 0.16992 0.0
H1695 H 0.44004 0.98326 0.1875 0.0
H1696 H 0.47625 0.99597 0.17663 0.0
H1697 H 0.43819 0.96988 0.16399 0.0
H1698 H 0.54753 0.99699 0.13721 0.0
H1699 H 0.4536 0.93744 0.10885 0.0
H1700 H 0.53432 0.95947 0.17645 0.0
H1701 H 0.52455 0.99038 0.18114 0.0
H1702 H 0.558 0.99853 0.16844 0.0
H1703 H 0.4193 0.88565 0.1418 0.0
H1704 H 0.40914 0.90243 0.12317 0.0
H1705 H 0.41029 0.91712 0.14631 0.0
C1706 C 0.11853 0.53423 0.20428 0.0
C1707 C 0.1016 0.54017 0.21723 0.0
C1708 C 0.10933 0.53128 0.18565 0.0
C1709 C 0.08259 0.53433 0.17992 0.0
C1710 C 0.06486 0.53931 0.19297 0.0
C1711 C 0.07457 0.54214 0.21145 0.0
C1712 C 0.12875 0.52589 0.17212 0.0
C1713 C 0.03608 0.54247 0.18741 0.0
C1714 C 0.07592 0.56299 0.13428 0.0
C1715 C 0.05249 0.53415 0.12422 0.0
C1716 C 0.08674 0.56319 0.15224 0.0
C1717 C 0.07384 0.53383 0.16034 0.0
C1718 C 0.05103 0.50446 0.15007 0.0
C1719 C 0.0406 0.50497 0.13212 0.0
C1720 C 0.11123 0.595 0.16273 0.0
C1721 C 0.03673 0.47268 0.15824 0.0
H1722 H 0.13956 0.5329 0.2087 0.0
H1723 H 0.06112 0.54619 0.22144 0.0
H1724 H 0.11286 0.50469 0.16219 0.0
H1725 H 0.14057 0.54724 0.16439 0.0
H1726 H 0.14748 0.52187 0.17875 0.0
H1727 H 0.02411 0.54493 0.19923 0.0
H1728 H 0.04358 0.56401 0.17988 0.0
H1729 H 0.01834 0.52102 0.17816 0.0
H1730 H 0.08558 0.58552 0.12813 0.0
H1731 H 0.02229 0.48264 0.12447 0.0
H1732 H 0.13185 0.5933 0.16868 0.0
H1733 H 0.10037 0.60066 0.17412 0.0
H1734 H 0.12032 0.61535 0.15413 0.0
H1735 H 0.05598 0.46921 0.16459 0.0
H1736 H 0.02135 0.45173 0.14803 0.0
H1737 H 0.02199 0.4729 0.1691 0.0
C1738 C 0.43129 0.53067 0.19768 0.0
C1739 C 0.45547 0.54255 0.21221 0.0
C1740 C 0.4383 0.52868 0.17967 0.0
C1741 C 0.47026 0.53888 0.17609 0.0
C1742 C 0.49459 0.55018 0.19074 0.0
C1743 C 0.48689 0.55175 0.20856 0.0
C1744 C 0.41165 0.51629 0.16444 0.0
C1745 C 0.52895 0.56113 0.18757 0.0
C1746 C 0.48989 0.51205 0.13171 0.0
C1747 C 0.50051 0.53969 0.12243 0.0
C1748 C 0.47888 0.51099 0.14889 0.0
C1749 C 0.47863 0.53832 0.15709 0.0
C1750 C 0.4884 0.56594 0.14754 0.0
C1751 C 0.49911 0.56626 0.13031 0.0
C1752 C 0.46835 0.48094 0.1585 0.0
C1753 C 0.48865 0.59565 0.15581 0.0
H1754 H 0.407 0.52375 0.20034 0.0
H1755 H 0.50562 0.56037 0.21971 0.0
H1756 H 0.41637 0.53577 0.15564 0.0
H1757 H 0.41075 0.49603 0.15585 0.0
H1758 H 0.38784 0.50779 0.16951 0.0
H1759 H 0.54496 0.56893 0.20043 0.0
H1760 H 0.53034 0.54123 0.18004 0.0
H1761 H 0.53807 0.58163 0.17911 0.0
H1762 H 0.49039 0.49122 0.12556 0.0
H1763 H 0.50746 0.58777 0.12328 0.0
H1764 H 0.44413 0.47242 0.16292 0.0
H1765 H 0.485 0.48661 0.17086 0.0
H1766 H 0.46781 0.46096 0.14978 0.0
H1767 H 0.46479 0.58901 0.16022 0.0
H1768 H 0.49504 0.61435 0.14623 0.0
H1769 H 0.50626 0.60636 0.16805 0.0
C1770 C 0.86094 0.41974 0.80219 0.0
C1771 C 0.8756 0.44627 0.79204 0.0
C1772 C 0.87155 0.42218 0.82052 0.0
C1773 C 0.89738 0.45189 0.82891 0.0
C1774 C 0.91097 0.47927 0.81904 0.0
C1775 C 0.89994 0.47612 0.80072 0.0
C1776 C 0.85629 0.39247 0.8306 0.0
C1777 C 0.93848 0.51141 0.82751 0.0
C1778 C 0.91685 0.46366 0.88017 0.0
C1779 C 0.94183 0.45676 0.88196 0.0
C1780 C 0.902 0.46212 0.863 0.0
C1781 C 0.91238 0.45343 0.84729 0.0
C1782 C 0.93748 0.44632 0.84903 0.0
C1783 C 0.9519 0.44813 0.86631 0.0
C1784 C 0.8753 0.46982 0.86168 0.0
C1785 C 0.94934 0.43707 0.8326 0.0
H1786 H 0.84173 0.39675 0.79565 0.0
H1787 H 0.91155 0.49666 0.79294 0.0
H1788 H 0.87367 0.38415 0.83335 0.0
H1789 H 0.84993 0.39822 0.84389 0.0
H1790 H 0.83435 0.37227 0.8228 0.0
H1791 H 0.94392 0.53111 0.81873 0.0
H1792 H 0.93304 0.51818 0.84084 0.0
H1793 H 0.96028 0.50945 0.82995 0.0
H1794 H 0.90873 0.47003 0.8922 0.0
H1795 H 0.97155 0.44333 0.86755 0.0
H1796 H 0.8531 0.44871 0.85475 0.0
H1797 H 0.88173 0.49028 0.85339 0.0
H1798 H 0.87013 0.47627 0.8752 0.0
H1799 H 0.92929 0.41528 0.82461 0.0
H1800 H 0.96884 0.43195 0.8363 0.0
H1801 H 0.9584 0.4569 0.82367 0.0
C1802 C 0.54532 0.4365 0.8057 0.0
C1803 C 0.55515 0.46239 0.79504 0.0
C1804 C 0.53707 0.43874 0.82332 0.0
C1805 C 0.53857 0.46757 0.83049 0.0
C1806 C 0.54953 0.49421 0.82005 0.0
C1807 C 0.55779 0.49134 0.80245 0.0
C1808 C 0.52583 0.40987 0.83405 0.0
C1809 C 0.5514 0.52533 0.82719 0.0
C1810 C 0.48281 0.45881 0.86654 0.0
C1811 C 0.50363 0.46924 0.88259 0.0
C1812 C 0.49401 0.45866 0.84953 0.0
C1813 C 0.52684 0.469 0.84847 0.0
C1814 C 0.54803 0.47967 0.86459 0.0
C1815 C 0.53619 0.47972 0.88143 0.0
C1816 C 0.47059 0.44706 0.83268 0.0
C1817 C 0.58318 0.49086 0.86406 0.0
H1818 H 0.54372 0.41423 0.80015 0.0
H1819 H 0.56518 0.51135 0.79424 0.0
H1820 H 0.54004 0.41711 0.8475 0.0
H1821 H 0.5004 0.40048 0.83648 0.0
H1822 H 0.52786 0.38997 0.82697 0.0
H1823 H 0.56249 0.54451 0.81794 0.0
H1824 H 0.52692 0.52082 0.82898 0.0
H1825 H 0.5655 0.53436 0.84069 0.0
H1826 H 0.45756 0.45027 0.86728 0.0
H1827 H 0.55254 0.48835 0.89369 0.0
H1828 H 0.4693 0.42533 0.82557 0.0
H1829 H 0.47894 0.46599 0.82318 0.0
H1830 H 0.44608 0.44086 0.83577 0.0
H1831 H 0.58597 0.47092 0.85777 0.0
H1832 H 0.59659 0.49889 0.87779 0.0
H1833 H 0.59422 0.51118 0.85555 0.0
C1834 C 0.57577 0.09645 0.81344 0.0
C1835 C 0.55169 0.08137 0.79887 0.0
C1836 C 0.56955 0.08727 0.83105 0.0
C1837 C 0.53857 0.06242 0.8341 0.0
C1838 C 0.51449 0.04654 0.81933 0.0
C1839 C 0.52136 0.05618 0.80194 0.0
C1840 C 0.59583 0.10468 0.84645 0.0
C1841 C 0.48123 0.01975 0.82196 0.0
C1842 C 0.52341 0.01727 0.87602 0.0
C1843 C 0.50937 0.03136 0.88644 0.0
C1844 C 0.53417 0.02796 0.85926 0.0
C1845 C 0.53078 0.05333 0.85273 0.0
C1846 C 0.51762 0.06839 0.86346 0.0
C1847 C 0.50708 0.05722 0.88018 0.0
C1848 C 0.54805 0.01127 0.84823 0.0
C1849 C 0.51374 0.09563 0.85702 0.0
H1850 H 0.59917 0.11607 0.81116 0.0
H1851 H 0.50282 0.04409 0.79067 0.0
H1852 H 0.58889 0.11786 0.85631 0.0
H1853 H 0.59927 0.08701 0.85381 0.0
H1854 H 0.61904 0.12228 0.84169 0.0
H1855 H 0.46551 0.00927 0.80898 0.0
H1856 H 0.48259 1.00012 0.82838 0.0
H1857 H 0.46987 0.02917 0.83122 0.0
H1858 H 0.52502 0.99709 0.88068 0.0
H1859 H 0.49679 0.0686 0.88831 0.0
H1860 H 0.57143 0.02935 0.84392 0.0
H1861 H 0.53172 0.99793 0.83574 0.0
H1862 H 0.55157 0.99389 0.85587 0.0
H1863 H 0.53688 0.11508 0.85321 0.0
H1864 H 0.50513 0.10621 0.86749 0.0
H1865 H 0.4963 0.08656 0.84472 0.0
C1866 C 0.09529 0.23806 0.52554 0.0
C1867 C 0.11976 0.25225 0.53994 0.0
C1868 C 0.10155 0.24677 0.50784 0.0
C1869 C 0.133 0.27015 0.50452 0.0
C1870 C 0.15756 0.28503 0.5191 0.0
C1871 C 0.15061 0.27601 0.53659 0.0
C1872 C 0.07471 0.23054 0.49266 0.0
C1873 C 0.19138 0.31021 0.51619 0.0
C1874 C 0.16348 0.27425 0.45819 0.0
C1875 C 0.16388 0.30184 0.45259 0.0
C1876 C 0.15212 0.26274 0.47473 0.0
C1877 C 0.1407 0.27911 0.48585 0.0
C1878 C 0.13958 0.30601 0.47982 0.0
C1879 C 0.15126 0.31709 0.46329 0.0
C1880 C 0.1538 0.23404 0.4807 0.0
C1881 C 0.12727 0.32391 0.49117 0.0
H1882 H 0.07146 0.21953 0.52801 0.0
H1883 H 0.1695 0.28752 0.54771 0.0
H1884 H 0.07247 0.249 0.48543 0.0
H1885 H 0.08023 0.21635 0.48263 0.0
H1886 H 0.05129 0.21407 0.49762 0.0
H1887 H 0.20766 0.3196 0.52899 0.0
H1888 H 0.20118 0.2997 0.50648 0.0
H1889 H 0.1914 0.33084 0.51017 0.0
H1890 H 0.17329 0.26242 0.45 0.0
H1891 H 0.15093 0.33805 0.45884 0.0
H1892 H 0.13039 0.21584 0.4849 0.0
H1893 H 0.17186 0.24201 0.49264 0.0
H1894 H 0.16051 0.22225 0.46982 0.0
H1895 H 0.10352 0.30671 0.49545 0.0
H1896 H 0.12503 0.34227 0.48378 0.0
H1897 H 0.1439 0.33636 0.50366 0.0
C1898 C 0.7627 0.89379 0.54324 0.0
C1899 C 0.78777 0.88872 0.54917 0.0
C1900 C 0.75273 0.89042 0.52477 0.0
C1901 C 0.76816 0.88169 0.51181 0.0
C1902 C 0.79316 0.876 0.51767 0.0
C1903 C 0.80265 0.87951 0.53633 0.0
C1904 C 0.72578 0.89643 0.51912 0.0
C1905 C 0.81012 0.86664 0.50422 0.0
C1906 C 0.71991 0.8485 0.46575 0.0
C1907 C 0.73234 0.87636 0.45657 0.0
C1908 C 0.73246 0.84945 0.48344 0.0
C1909 C 0.75805 0.87899 0.49217 0.0
C1910 C 0.77168 0.90683 0.48267 0.0
C1911 C 0.75865 0.90518 0.46498 0.0
C1912 C 0.71721 0.81926 0.49312 0.0
C1913 C 0.79907 0.93874 0.49148 0.0
H1914 H 0.75072 0.90032 0.55313 0.0
H1915 H 0.82212 0.8757 0.54085 0.0
H1916 H 0.73441 0.91658 0.51042 0.0
H1917 H 0.70598 0.87464 0.51099 0.0
H1918 H 0.71602 0.90261 0.53093 0.0
H1919 H 0.82839 0.8621 0.51098 0.0
H1920 H 0.7925 0.84454 0.49537 0.0
H1921 H 0.82211 0.8862 0.49532 0.0
H1922 H 0.69941 0.8262 0.45941 0.0
H1923 H 0.76874 0.92664 0.45784 0.0
H1924 H 0.70416 0.82247 0.50413 0.0
H1925 H 0.73583 0.81489 0.4995 0.0
H1926 H 0.70001 0.79752 0.48384 0.0
H1927 H 0.79065 0.94812 0.50264 0.0
H1928 H 0.80896 0.95721 0.48172 0.0
H1929 H 0.81864 0.93546 0.49753 0.0
C1930 C 0.08728 0.86295 0.5272 0.0
C1931 C 0.11235 0.87708 0.54129 0.0
C1932 C 0.09345 0.86007 0.50909 0.0
C1933 C 0.12541 0.87158 0.505 0.0
C1934 C 0.15065 0.88527 0.51922 0.0
C1935 C 0.14381 0.88773 0.53713 0.0
C1936 C 0.0659 0.84519 0.4943 0.0
C1937 C 0.18505 0.89767 0.51551 0.0
C1938 C 0.14637 0.84336 0.46166 0.0
C1939 C 0.1558 0.87007 0.45169 0.0
C1940 C 0.13488 0.8428 0.47865 0.0
C1941 C 0.1329 0.86969 0.48591 0.0
C1942 C 0.14108 0.89613 0.47557 0.0
C1943 C 0.15235 0.89596 0.45855 0.0
C1944 C 0.12612 0.81401 0.48914 0.0
C1945 C 0.13942 0.92531 0.48284 0.0
H1946 H 0.06295 0.85484 0.53029 0.0
H1947 H 0.16323 0.89808 0.54797 0.0
H1948 H 0.069 0.86336 0.48484 0.0
H1949 H 0.06564 0.82475 0.48627 0.0
H1950 H 0.04234 0.83622 0.49977 0.0
H1951 H 0.20187 0.90755 0.5281 0.0
H1952 H 0.18739 0.87787 0.50859 0.0
H1953 H 0.19242 0.917 0.50629 0.0
H1954 H 0.14839 0.82299 0.45626 0.0
H1955 H 0.15971 0.91673 0.45096 0.0
H1956 H 0.10211 0.8051 0.49396 0.0
H1957 H 0.14361 0.82133 0.5013 0.0
H1958 H 0.126 0.7938 0.48091 0.0
H1959 H 0.11561 0.91771 0.48763 0.0
H1960 H 0.14379 0.94248 0.4725 0.0
H1961 H 0.15767 0.93823 0.49465 0.0
C1962 C 0.56544 0.81208 0.13709 0.0
C1963 C 0.54136 0.78234 0.12818 0.0
C1964 C 0.5759 0.81488 0.15547 0.0
C1965 C 0.56194 0.78725 0.16512 0.0
C1966 C 0.53615 0.75773 0.15653 0.0
C1967 C 0.52613 0.75565 0.13815 0.0
C1968 C 0.60335 0.84684 0.16419 0.0
C1969 C 0.52051 0.72779 0.16639 0.0
C1970 C 0.61614 0.78227 0.20215 0.0
C1971 C 0.60618 0.79072 0.21789 0.0
C1972 C 0.60174 0.78088 0.18495 0.0
C1973 C 0.57679 0.78823 0.18341 0.0
C1974 C 0.56647 0.79665 0.19923 0.0
C1975 C 0.5813 0.79778 0.2163 0.0
C1976 C 0.61351 0.77188 0.16839 0.0
C1977 C 0.53992 0.80458 0.19811 0.0
H1978 H 0.57744 0.83274 0.12943 0.0
H1979 H 0.50709 0.73276 0.13139 0.0
H1980 H 0.59787 0.85321 0.1776 0.0
H1981 H 0.62516 0.84485 0.16648 0.0
H1982 H 0.60881 0.86682 0.15563 0.0
H1983 H 0.49841 0.70796 0.15852 0.0
H1984 H 0.53758 0.71901 0.16891 0.0
H1985 H 0.51435 0.73339 0.17977 0.0
H1986 H 0.63572 0.77735 0.20325 0.0
H1987 H 0.57328 0.80401 0.22842 0.0
H1988 H 0.62276 0.79198 0.15964 0.0
H1989 H 0.59338 0.75034 0.16027 0.0
H1990 H 0.63286 0.76648 0.17194 0.0
H1991 H 0.54654 0.82537 0.19005 0.0
H1992 H 0.53471 0.81067 0.2117 0.0
H1993 H 0.51769 0.78373 0.19102 0.0
C1994 C 0.23677 0.80991 0.14026 0.0
C1995 C 0.21324 0.79936 0.12548 0.0
C1996 C 0.22917 0.81166 0.15813 0.0
C1997 C 0.19731 0.80272 0.16128 0.0
C1998 C 0.17374 0.79308 0.14637 0.0
C1999 C 0.18199 0.79154 0.12869 0.0
C2000 C 0.25497 0.82211 0.17367 0.0
C2001 C 0.13956 0.78361 0.14912 0.0
C2002 C 0.16581 0.77233 0.20602 0.0
C2003 C 0.16628 0.79931 0.21486 0.0
C2004 C 0.17657 0.7734 0.18878 0.0
C2005 C 0.18813 0.80214 0.18013 0.0
C2006 C 0.18938 0.8297 0.18914 0.0
C2007 C 0.17844 0.82795 0.20639 0.0
C2008 C 0.17499 0.74352 0.17967 0.0
C2009 C 0.20149 0.86078 0.18038 0.0
H2010 H 0.26089 0.81575 0.13788 0.0
H2011 H 0.16382 0.78386 0.11731 0.0
H2012 H 0.25633 0.84219 0.18267 0.0
H2013 H 0.24895 0.8017 0.18195 0.0
H2014 H 0.27894 0.83014 0.16893 0.0
H2015 H 0.12445 0.77799 0.13608 0.0
H2016 H 0.12877 0.76201 0.15672 0.0
H2017 H 0.13902 0.80342 0.15733 0.0
H2018 H 0.15697 0.7503 0.2126 0.0
H2019 H 0.17861 0.84882 0.21303 0.0
H2020 H 0.19895 0.74935 0.17576 0.0
H2021 H 0.15836 0.73486 0.16704 0.0
H2022 H 0.16667 0.72356 0.18852 0.0
H2023 H 0.2257 0.86873 0.1761 0.0
H2024 H 0.20272 0.88059 0.1896 0.0
H2025 H 0.18541 0.85669 0.168 0.0
C2026 C 0.24321 0.42887 0.14682 0.0
C2027 C 0.21912 0.41492 0.13221 0.0
C2028 C 0.23655 0.41952 0.16437 0.0
C2029 C 0.20508 0.39567 0.16736 0.0
C2030 C 0.18092 0.38096 0.15257 0.0
C2031 C 0.18824 0.39069 0.13521 0.0
C2032 C 0.26297 0.43568 0.17978 0.0
C2033 C 0.1471 0.35529 0.15512 0.0
C2034 C 0.18824 0.34969 0.20906 0.0
C2035 C 0.17576 0.36501 0.21985 0.0
C2036 C 0.19891 0.36011 0.19223 0.0
C2037 C 0.19696 0.38643 0.18596 0.0
C2038 C 0.18523 0.40258 0.19699 0.0
C2039 C 0.17481 0.39171 0.21379 0.0
C2040 C 0.21128 0.34225 0.18089 0.0
C2041 C 0.18285 0.43082 0.19083 0.0
H2042 H 0.26705 0.44777 0.14463 0.0
H2043 H 0.16965 0.37941 0.12394 0.0
H2044 H 0.25691 0.44938 0.18982 0.0
H2045 H 0.26533 0.41719 0.18692 0.0
H2046 H 0.28649 0.45259 0.17508 0.0
H2047 H 0.13129 0.3457 0.14215 0.0
H2048 H 0.14726 0.33486 0.16129 0.0
H2049 H 0.13663 0.36544 0.16458 0.0
H2050 H 0.18878 0.32884 0.21352 0.0
H2051 H 0.16575 0.40406 0.22218 0.0
H2052 H 0.23503 0.35952 0.17664 0.0
H2053 H 0.1947 0.32981 0.16838 0.0
H2054 H 0.21358 0.32393 0.18828 0.0
H2055 H 0.20642 0.44968 0.18714 0.0
H2056 H 0.17489 0.44188 0.20141 0.0
H2057 H 0.16555 0.42265 0.17851 0.0
C2058 C 0.79491 0.56626 0.85985 0.0
C2059 C 0.78613 0.58314 0.87217 0.0
C2060 C 0.8034 0.57656 0.84271 0.0
C2061 C 0.80322 0.60452 0.83776 0.0
C2062 C 0.79304 0.62087 0.84983 0.0
C2063 C 0.78451 0.6099 0.86689 0.0
C2064 C 0.81373 0.5582 0.83019 0.0
C2065 C 0.79255 0.65078 0.84505 0.0
C2066 C 0.86088 0.6514 0.80378 0.0
C2067 C 0.84047 0.64159 0.78761 0.0
C2068 C 0.84895 0.63987 0.8202 0.0
C2069 C 0.81578 0.61779 0.82049 0.0
C2070 C 0.79501 0.60783 0.80424 0.0
C2071 C 0.8076 0.61993 0.78803 0.0
C2072 C 0.87193 0.65108 0.83722 0.0
C2073 C 0.75954 0.58429 0.80395 0.0
H2074 H 0.79574 0.54526 0.86378 0.0
H2075 H 0.77791 0.62311 0.87641 0.0
H2076 H 0.79999 0.55181 0.81663 0.0
H2077 H 0.83946 0.57373 0.8283 0.0
H2078 H 0.81032 0.53566 0.83552 0.0
H2079 H 0.78159 0.65913 0.85524 0.0
H2080 H 0.81742 0.6706 0.84417 0.0
H2081 H 0.77901 0.64609 0.83157 0.0
H2082 H 0.88636 0.66783 0.80357 0.0
H2083 H 0.79159 0.61274 0.7757 0.0
H2084 H 0.87203 0.63006 0.84264 0.0
H2085 H 0.864 0.66209 0.84782 0.0
H2086 H 0.89684 0.66907 0.83482 0.0
H2087 H 0.75563 0.56121 0.80868 0.0
H2088 H 0.74662 0.57905 0.7902 0.0
H2089 H 0.74883 0.59416 0.81341 0.0
C2090 C 0.44027 0.19616 0.87315 0.0
C2091 C 0.42597 0.20581 0.88614 0.0
C2092 C 0.4303 0.19242 0.85458 0.0
C2093 C 0.40531 0.19825 0.84896 0.0
C2094 C 0.38997 0.20676 0.8621 0.0
C2095 C 0.40057 0.21054 0.88053 0.0
C2096 C 0.44729 0.18344 0.84097 0.0
C2097 C 0.36297 0.21279 0.85666 0.0
C2098 C 0.40062 0.22531 0.80252 0.0
C2099 C 0.37573 0.19678 0.79295 0.0
C2100 C 0.41113 0.22584 0.8206 0.0
C2101 C 0.39622 0.1972 0.82936 0.0
C2102 C 0.3716 0.16812 0.81964 0.0
C2103 C 0.36171 0.16824 0.80151 0.0
C2104 C 0.43769 0.25726 0.83046 0.0
C2105 C 0.355 0.13717 0.82856 0.0
H2106 H 0.46006 0.1927 0.87746 0.0
H2107 H 0.38921 0.21758 0.89059 0.0
H2108 H 0.42967 0.16228 0.83151 0.0
H2109 H 0.46032 0.20383 0.83272 0.0
H2110 H 0.46474 0.17761 0.84757 0.0
H2111 H 0.35231 0.21728 0.86857 0.0
H2112 H 0.37198 0.2341 0.84883 0.0
H2113 H 0.3438 0.19174 0.84774 0.0
H2114 H 0.41179 0.2473 0.79585 0.0
H2115 H 0.34226 0.14621 0.7942 0.0
H2116 H 0.4572 0.25378 0.83642 0.0
H2117 H 0.42837 0.26515 0.8418 0.0
H2118 H 0.44798 0.2769 0.82141 0.0
H2119 H 0.37289 0.13166 0.83481 0.0
H2120 H 0.33771 0.11622 0.81882 0.0
H2121 H 0.34186 0.14011 0.8396 0.0
C2122 C 0.78311 0.17953 0.8702 0.0
C2123 C 0.78552 0.20816 0.87798 0.0
C2124 C 0.79122 0.17733 0.85248 0.0
C2125 C 0.80175 0.20431 0.84232 0.0
C2126 C 0.80294 0.23276 0.84988 0.0
C2127 C 0.79488 0.23435 0.8676 0.0
C2128 C 0.7897 0.14659 0.84491 0.0
C2129 C 0.81368 0.26195 0.83945 0.0
C2130 C 0.8575 0.21614 0.80581 0.0
C2131 C 0.83654 0.20631 0.78987 0.0
C2132 C 0.84632 0.21488 0.82294 0.0
C2133 C 0.81336 0.20367 0.82421 0.0
C2134 C 0.79199 0.19333 0.80819 0.0
C2135 C 0.80382 0.1947 0.79122 0.0
C2136 C 0.86988 0.22591 0.8397 0.0
C2137 C 0.75675 0.18145 0.80893 0.0
H2138 H 0.77604 0.1593 0.8782 0.0
H2139 H 0.7963 0.25636 0.87347 0.0
H2140 H 0.77549 0.13783 0.83144 0.0
H2141 H 0.81424 0.15151 0.84294 0.0
H2142 H 0.7789 0.12707 0.85399 0.0
H2143 H 0.81135 0.28144 0.84682 0.0
H2144 H 0.83914 0.27183 0.83694 0.0
H2145 H 0.79939 0.25494 0.82604 0.0
H2146 H 0.8827 0.2246 0.80489 0.0
H2147 H 0.78752 0.18727 0.77899 0.0
H2148 H 0.86186 0.20643 0.84884 0.0
H2149 H 0.87088 0.24713 0.84728 0.0
H2150 H 0.89445 0.23272 0.83642 0.0
H2151 H 0.74626 0.16137 0.81764 0.0
H2152 H 0.74306 0.17289 0.79528 0.0
H2153 H 0.75362 0.20125 0.81511 0.0
C2154 C 0.21557 0.13292 0.46962 0.0
C2155 C 0.22553 0.11746 0.45711 0.0
C2156 C 0.22567 0.13729 0.48823 0.0
C2157 C 0.24621 0.12597 0.4944 0.0
C2158 C 0.25663 0.11074 0.48179 0.0
C2159 C 0.24626 0.10677 0.46333 0.0
C2160 C 0.21416 0.15371 0.5013 0.0
C2161 C 0.27871 0.0985 0.48778 0.0
C2162 C 0.29891 0.15862 0.53907 0.0
C2163 C 0.28257 0.13319 0.54974 0.0
C2164 C 0.28652 0.15734 0.5213 0.0
C2165 C 0.25711 0.12994 0.51401 0.0
C2166 C 0.23977 0.10489 0.52499 0.0
C2167 C 0.2527 0.10683 0.54275 0.0
C2168 C 0.30564 0.18466 0.51008 0.0
C2169 C 0.20835 0.07524 0.51768 0.0
H2170 H 0.1994 0.14105 0.46489 0.0
H2171 H 0.25454 0.09537 0.45369 0.0
H2172 H 0.20023 0.13689 0.51119 0.0
H2173 H 0.23495 0.17505 0.50915 0.0
H2174 H 0.19883 0.16177 0.4943 0.0
H2175 H 0.2845 0.08711 0.47624 0.0
H2176 H 0.30144 0.11877 0.4948 0.0
H2177 H 0.26746 0.08044 0.49759 0.0
H2178 H 0.32174 0.17933 0.54454 0.0
H2179 H 0.24005 0.08705 0.5509 0.0
H2180 H 0.29018 0.19306 0.50366 0.0
H2181 H 0.31477 0.17593 0.499 0.0
H2182 H 0.32639 0.20558 0.51827 0.0
H2183 H 0.19185 0.08235 0.51121 0.0
H2184 H 0.19634 0.05953 0.52844 0.0
H2185 H 0.21268 0.0609 0.50709 0.0
C2186 C 0.91387 0.14151 0.47726 0.0
C2187 C 0.88933 0.12865 0.46291 0.0
C2188 C 0.90714 0.14396 0.4953 0.0
C2189 C 0.87514 0.13332 0.49902 0.0
C2190 C 0.8505 0.12118 0.48451 0.0
C2191 C 0.8579 0.1191 0.46669 0.0
C2192 C 0.93409 0.15721 0.5104 0.0
C2193 C 0.81611 0.10977 0.48783 0.0
C2194 C 0.84635 0.10592 0.54472 0.0
C2195 C 0.84431 0.13218 0.55251 0.0
C2196 C 0.85747 0.10646 0.52761 0.0
C2197 C 0.86695 0.13399 0.51804 0.0
C2198 C 0.86605 0.16103 0.52609 0.0
C2199 C 0.85466 0.15977 0.54317 0.0
C2200 C 0.85809 0.07712 0.51952 0.0
C2201 C 0.87597 0.19086 0.51636 0.0
H2202 H 0.93817 0.14879 0.47445 0.0
H2203 H 0.83891 0.10971 0.45563 0.0
H2204 H 0.93461 0.17738 0.51888 0.0
H2205 H 0.93002 0.13809 0.51934 0.0
H2206 H 0.95785 0.1661 0.5052 0.0
H2207 H 0.7999 0.10166 0.47502 0.0
H2208 H 0.8074 0.08935 0.49634 0.0
H2209 H 0.81445 0.12951 0.49535 0.0
H2210 H 0.83902 0.08476 0.55197 0.0
H2211 H 0.85291 0.18007 0.54895 0.0
H2212 H 0.88217 0.08429 0.51527 0.0
H2213 H 0.84069 0.06604 0.50722 0.0
H2214 H 0.85196 0.05853 0.52916 0.0
H2215 H 0.89996 0.19943 0.51159 0.0
H2216 H 0.87672 0.21091 0.52512 0.0
H2217 H 0.85879 0.18489 0.50421 0.0
C2218 C 0.90951 0.76287 0.48121 0.0
C2219 C 0.8848 0.74948 0.46694 0.0
C2220 C 0.90331 0.75405 0.4989 0.0
C2221 C 0.87168 0.73138 0.50234 0.0
C2222 C 0.84687 0.71722 0.48787 0.0
C2223 C 0.85376 0.72633 0.47039 0.0
C2224 C 0.93042 0.76949 0.51395 0.0
C2225 C 0.81285 0.69282 0.49092 0.0
C2226 C 0.85283 0.68463 0.54367 0.0
C2227 C 0.84139 0.70085 0.55456 0.0
C2228 C 0.86424 0.69523 0.52701 0.0
C2229 C 0.86403 0.72261 0.52104 0.0
C2230 C 0.85371 0.73985 0.53231 0.0
C2231 C 0.8426 0.72882 0.54897 0.0
C2232 C 0.87538 0.67639 0.5155 0.0
C2233 C 0.853 0.76909 0.52641 0.0
H2234 H 0.9335 0.78091 0.47867 0.0
H2235 H 0.83467 0.71543 0.45936 0.0
H2236 H 0.92576 0.78426 0.52407 0.0
H2237 H 0.93192 0.75057 0.52111 0.0
H2238 H 0.95394 0.78526 0.50888 0.0
H2239 H 0.79642 0.6838 0.47817 0.0
H2240 H 0.81217 0.67186 0.49689 0.0
H2241 H 0.8037 0.7039 0.50071 0.0
H2242 H 0.85251 0.66335 0.5481 0.0
H2243 H 0.83368 0.74137 0.5573 0.0
H2244 H 0.89925 0.69293 0.51111 0.0
H2245 H 0.85845 0.66437 0.50307 0.0
H2246 H 0.8769 0.65759 0.52281 0.0
H2247 H 0.8766 0.78677 0.52217 0.0
H2248 H 0.84685 0.78133 0.53733 0.0
H2249 H 0.83496 0.76159 0.5145 0.0
loop_
_geom_bond_atom_site_label_1
_geom_bond_atom_site_label_2
_geom_bond_distance
_geom_bond_site_symmetry_2
_ccdc_geom_bond_type
H0 C3 0.931 . S
H1 C6 0.928 . S
H2 C8 0.930 . S
C3 H0 0.931 . S
C3 C4 1.413 . S
C3 C5 1.360 . S
C4 C3 1.413 . S
C4 C8 1.429 . S
C5 C3 1.360 . S
C5 C6 1.372 . S
C6 H1 0.928 . S
C6 C5 1.372 . S
C6 C7 1.404 . S
C7 C6 1.404 . S
C7 C8 1.391 . S
C8 H2 0.930 . S
C8 C4 1.429 . S
C8 C7 1.391 . S
H9 C12 0.931 . S
H10 C15 0.928 . S
H11 C17 0.930 . S
C12 H9 0.931 . S
C12 C13 1.413 . S
C12 C14 1.360 . S
C13 C12 1.413 . S
C13 C17 1.429 . S
C14 C12 1.360 . S
C14 C15 1.372 . S
C15 H10 0.928 . S
C15 C14 1.372 . S
C15 C16 1.404 . S
C16 C15 1.404 . S
C16 C17 1.391 . S
C17 H11 0.930 . S
C17 C13 1.429 . S
C17 C16 1.391 . S
H18 C21 0.931 . S
H19 C24 0.928 . S
H20 C26 0.930 . S
C21 H18 0.931 . S
C21 C22 1.413 . S
C21 C23 1.360 . S
C22 C21 1.413 . S
C22 C26 1.429 . S
C23 C21 1.360 . S
C23 C24 1.372 . S
C24 H19 0.928 . S
C24 C23 1.372 . S
C24 C25 1.404 . S
C25 C24 1.404 . S
C25 C26 1.391 . S
C26 H20 0.930 . S
C26 C22 1.429 . S
C26 C25 1.391 . S
H27 C30 0.931 . S
H28 C33 0.928 . S
H29 C35 0.930 . S
C30 H27 0.931 . S
C30 C31 1.413 . S
C30 C32 1.360 . S
C31 C30 1.413 . S
C31 C35 1.429 . S
C32 C30 1.360 . S
C32 C33 1.372 . S
C33 H28 0.928 . S
C33 C32 1.372 . S
C33 C34 1.404 . S
C34 C33 1.404 . S
C34 C35 1.391 . S
C35 H29 0.930 . S
C35 C31 1.429 . S
C35 C34 1.391 . S
H36 C39 0.931 . S
H37 C42 0.928 . S
H38 C44 0.930 . S
C39 H36 0.931 . S
C39 C40 1.413 . S
C39 C41 1.360 . S
C40 C39 1.413 . S
C40 C44 1.429 . S
C41 C39 1.360 . S
C41 C42 1.372 . S
C42 H37 0.928 . S
C42 C41 1.372 . S
C42 C43 1.404 . S
C43 C42 1.404 . S
C43 C44 1.391 . S
C44 H38 0.930 . S
C44 C40 1.429 . S
C44 C43 1.391 . S
H45 C48 0.931 . S
H46 C51 0.928 . S
H47 C53 0.930 . S
C48 H45 0.931 . S
C48 C49 1.413 . S
C48 C50 1.360 . S
C49 C48 1.413 . S
C49 C53 1.429 . S
C50 C48 1.360 . S
C50 C51 1.372 . S
C51 H46 0.928 . S
C51 C50 1.372 . S
C51 C52 1.404 . S
C52 C51 1.404 . S
C52 C53 1.391 . S
C53 H47 0.930 . S
C53 C49 1.429 . S
C53 C52 1.391 . S
H54 C57 0.931 . S
H55 C60 0.928 . S
H56 C62 0.930 . S
C57 H54 0.931 . S
C57 C58 1.413 . S
C57 C59 1.360 . S
C58 C57 1.413 . S
C58 C62 1.429 . S
C59 C57 1.360 . S
C59 C60 1.372 . S
C60 H55 0.928 . S
C60 C59 1.372 . S
C60 C61 1.404 . S
C61 C60 1.404 . S
C61 C62 1.391 . S
C62 H56 0.930 . S
C62 C58 1.429 . S
C62 C61 1.391 . S
H63 C66 0.931 . S
H64 C69 0.928 . S
H65 C71 0.930 . S
C66 H63 0.931 . S
C66 C67 1.413 . S
C66 C68 1.360 . S
C67 C66 1.413 . S
C67 C71 1.429 . S
C68 C66 1.360 . S
C68 C69 1.372 . S
C69 H64 0.928 . S
C69 C68 1.372 . S
C69 C70 1.404 . S
C70 C69 1.404 . S
C70 C71 1.391 . S
C71 H65 0.930 . S
C71 C67 1.429 . S
C71 C70 1.391 . S
H72 C75 0.931 . S
H73 C78 0.928 . S
H74 C80 0.930 . S
C75 H72 0.931 . S
C75 C76 1.413 . S
C75 C77 1.360 . S
C76 C75 1.413 . S
C76 C80 1.429 . S
C77 C75 1.360 . S
C77 C78 1.372 . S
C78 H73 0.928 . S
C78 C77 1.372 . S
C78 C79 1.404 . S
C79 C78 1.404 . S
C79 C80 1.391 . S
C80 H74 0.930 . S
C80 C76 1.429 . S
C80 C79 1.391 . S
H81 C84 0.931 . S
H82 C87 0.928 . S
H83 C89 0.930 . S
C84 H81 0.931 . S
C84 C85 1.413 . S
C84 C86 1.360 . S
C85 C84 1.413 . S
C85 C89 1.429 . S
C86 C84 1.360 . S
C86 C87 1.372 . S
C87 H82 0.928 . S
C87 C86 1.372 . S
C87 C88 1.404 . S
C88 C87 1.404 . S
C88 C89 1.391 . S
C89 H83 0.930 . S
C89 C85 1.429 . S
C89 C88 1.391 . S
H90 C93 0.931 . S
H91 C96 0.928 . S
H92 C98 0.930 . S
C93 H90 0.931 . S
C93 C94 1.413 . S
C93 C95 1.360 . S
C94 C93 1.413 . S
C94 C98 1.429 . S
C95 C93 1.360 . S
C95 C96 1.372 . S
C96 H91 0.928 . S
C96 C95 1.372 . S
C96 C97 1.404 . S
C97 C96 1.404 . S
C97 C98 1.391 . S
C98 H92 0.930 . S
C98 C94 1.429 . S
C98 C97 1.391 . S
H99 C102 0.931 . S
H100 C105 0.928 . S
H101 C107 0.930 . S
C102 H99 0.931 . S
C102 C103 1.413 . S
C102 C104 1.360 . S
C103 C102 1.413 . S
C103 C107 1.429 . S
C104 C102 1.360 . S
C104 C105 1.372 . S
C105 H100 0.928 . S
C105 C104 1.372 . S
C105 C106 1.404 . S
C106 C105 1.404 . S
C106 C107 1.391 . S
C107 H101 0.930 . S
C107 C103 1.429 . S
C107 C106 1.391 . S
H108 C111 0.931 . S
H109 C114 0.928 . S
H110 C116 0.930 . S
C111 H108 0.931 . S
C111 C112 1.413 . S
C111 C113 1.360 . S
C112 C111 1.413 . S
C112 C116 1.429 . S
C113 C111 1.360 . S
C113 C114 1.372 . S
C114 H109 0.928 . S
C114 C113 1.372 . S
C114 C115 1.404 . S
C115 C114 1.404 . S
C115 C116 1.391 . S
C116 H110 0.930 . S
C116 C112 1.429 . S
C116 C115 1.391 . S
H117 C120 0.931 . S
H118 C123 0.928 . S
H119 C125 0.930 . S
C120 H117 0.931 . S
C120 C121 1.413 . S
C120 C122 1.360 . S
C121 C120 1.413 . S
C121 C125 1.429 . S
C122 C120 1.360 . S
C122 C123 1.372 . S
C123 H118 0.928 . S
C123 C122 1.372 . S
C123 C124 1.404 . S
C124 C123 1.404 . S
C124 C125 1.391 . S
C125 H119 0.930 . S
C125 C121 1.429 . S
C125 C124 1.391 . S
H126 C129 0.931 . S
H127 C132 0.928 . S
H128 C134 0.930 . S
C129 H126 0.931 . S
C129 C130 1.413 . S
C129 C131 1.360 . S
C130 C129 1.413 . S
C130 C134 1.429 . S
C131 C129 1.360 . S
C131 C132 1.372 . S
C132 H127 0.928 . S
C132 C131 1.372 . S
C132 C133 1.404 . S
C133 C132 1.404 . S
C133 C134 1.391 . S
C134 H128 0.930 . S
C134 C130 1.429 . S
C134 C133 1.391 . S
H135 C138 0.931 . S
H136 C141 0.928 . S
H137 C143 0.930 . S
C138 H135 0.931 . S
C138 C139 1.413 . S
C138 C140 1.360 . S
C139 C138 1.413 . S
C139 C143 1.429 . S
C140 C138 1.360 . S
C140 C141 1.372 . S
C141 H136 0.928 . S
C141 C140 1.372 . S
C141 C142 1.404 . S
C142 C141 1.404 . S
C142 C143 1.391 . S
C143 H137 0.930 . S
C143 C139 1.429 . S
C143 C142 1.391 . S
H144 C147 0.931 . S
H145 C150 0.928 . S
H146 C152 0.930 . S
C147 H144 0.931 . S
C147 C148 1.413 . S
C147 C149 1.360 . S
C148 C147 1.413 . S
C148 C152 1.429 . S
C149 C147 1.360 . S
C149 C150 1.372 . S
C150 H145 0.928 . S
C150 C149 1.372 . S
C150 C151 1.404 . S
C151 C150 1.404 . S
C151 C152 1.391 . S
C152 H146 0.930 . S
C152 C148 1.429 . S
C152 C151 1.391 . S
H153 C156 0.931 . S
H154 C159 0.928 . S
H155 C161 0.930 . S
C156 H153 0.931 . S
C156 C157 1.413 . S
C156 C158 1.360 . S
C157 C156 1.413 . S
C157 C161 1.429 . S
C158 C156 1.360 . S
C158 C159 1.372 . S
C159 H154 0.928 . S
C159 C158 1.372 . S
C159 C160 1.404 . S
C160 C159 1.404 . S
C160 C161 1.391 . S
C161 H155 0.930 . S
C161 C157 1.429 . S
C161 C160 1.391 . S
C162 Eu163 2.835 . S
C162 C164 1.500 . S
C162 O182 1.257 1_545 S
C162 O183 1.260 . S
Eu163 C162 2.835 . S
Eu163 O182 2.473 1_545 S
Eu163 O183 2.480 . S
Eu163 O184 2.430 . S
Eu163 O185 2.670 1_554 S
Eu163 O186 2.394 1_545 S
Eu163 O191 2.355 1_545 S
Eu163 O193 2.374 . S
C164 C162 1.500 . S
C164 C165 1.377 . S
C164 C169 1.377 1_545 S
C165 C164 1.377 . S
C165 C166 1.395 . S
C165 H194 0.931 . S
C166 C165 1.395 . S
C166 C167 1.383 1_545 S
C166 H195 0.931 . S
C167 C166 1.383 1_565 S
C167 C168 1.394 . S
C168 C167 1.394 . S
C168 C169 1.378 . S
C168 H196 0.931 . S
C169 C164 1.377 1_565 S
C169 C168 1.378 . S
C169 H197 0.931 . S
C170 O184 1.259 1_556 S
C170 O185 1.270 . S
C171 O186 1.251 . S
C171 O187 1.251 1_554 S
C172 Eu173 2.835 . S
C172 C174 1.500 . S
C172 O188 1.257 1_565 S
C172 O189 1.260 . S
Eu173 C172 2.835 . S
Eu173 O185 2.355 1_565 S
Eu173 O187 2.374 . S
Eu173 O188 2.473 1_565 S
Eu173 O189 2.480 . S
Eu173 O190 2.430 . S
Eu173 O191 2.670 1_556 S
Eu173 O192 2.394 1_565 S
C174 C172 1.500 . S
C174 C175 1.377 . S
C174 C179 1.377 1_565 S
C175 C174 1.377 . S
C175 C176 1.395 . S
C175 H198 0.931 . S
C176 C175 1.395 . S
C176 C177 1.383 1_565 S
C176 H199 0.931 . S
C177 C176 1.383 1_545 S
C177 C178 1.394 . S
C178 C177 1.394 . S
C178 C179 1.378 . S
C178 H200 0.931 . S
C179 C174 1.377 1_545 S
C179 C178 1.378 . S
C179 H201 0.931 . S
C180 O190 1.259 1_554 S
C180 O191 1.270 . S
C181 O192 1.251 . S
C181 O193 1.251 1_556 S
O182 C162 1.257 1_565 S
O182 Eu163 2.473 1_565 S
O183 C162 1.260 . S
O183 Eu163 2.480 . S
O184 Eu163 2.430 . S
O184 C170 1.259 1_554 S
O185 Eu163 2.670 1_556 S
O185 C170 1.270 . S
O185 Eu173 2.355 1_545 S
O186 Eu163 2.394 1_565 S
O186 C171 1.251 . S
O187 C171 1.251 1_556 S
O187 Eu173 2.374 . S
O188 C172 1.257 1_545 S
O188 Eu173 2.473 1_545 S
O189 C172 1.260 . S
O189 Eu173 2.480 . S
O190 Eu173 2.430 . S
O190 C180 1.259 1_556 S
O191 Eu163 2.355 1_565 S
O191 Eu173 2.670 1_554 S
O191 C180 1.270 . S
O192 Eu173 2.394 1_545 S
O192 C181 1.251 . S
O193 Eu163 2.374 . S
O193 C181 1.251 1_554 S
H194 C165 0.931 . S
H195 C166 0.931 . S
H196 C168 0.931 . S
H197 C169 0.931 . S
H198 C175 0.931 . S
H199 C176 0.931 . S
H200 C178 0.931 . S
H201 C179 0.931 . S
C202 Eu203 2.835 . S
C202 C204 1.500 1_655 S
C202 O222 1.257 1_655 S
C202 O223 1.260 . S
Eu203 C202 2.835 . S
Eu203 O222 2.473 1_655 S
Eu203 O223 2.480 . S
Eu203 O224 2.430 . S
Eu203 O225 2.670 1_554 S
Eu203 O226 2.394 1_655 S
Eu203 O231 2.355 1_655 S
Eu203 O233 2.374 . S
C204 C202 1.500 1_455 S
C204 C205 1.377 1_455 S
C204 C209 1.377 . S
C205 C204 1.377 1_655 S
C205 C206 1.395 . S
C205 H234 0.931 . S
C206 C205 1.395 . S
C206 C207 1.383 1_655 S
C206 H235 0.931 . S
C207 C206 1.383 1_455 S
C207 C208 1.394 . S
C208 C207 1.394 . S
C208 C209 1.378 . S
C208 H236 0.931 . S
C209 C204 1.377 . S
C209 C208 1.378 . S
C209 H237 0.931 . S
C210 O224 1.259 1_556 S
C210 O225 1.270 . S
C211 O226 1.251 . S
C211 O227 1.251 . S
C212 Eu213 2.835 . S
C212 C214 1.500 1_455 S
C212 O228 1.257 1_455 S
C212 O229 1.260 . S
Eu213 C212 2.835 . S
Eu213 O225 2.355 1_455 S
Eu213 O227 2.374 1_556 S
Eu213 O228 2.473 1_455 S
Eu213 O229 2.480 . S
Eu213 O230 2.430 . S
Eu213 O231 2.670 1_556 S
Eu213 O232 2.394 1_455 S
C214 C212 1.500 1_655 S
C214 C215 1.377 1_655 S
C214 C219 1.377 . S
C215 C214 1.377 1_455 S
C215 C216 1.395 . S
C215 H238 0.931 . S
C216 C215 1.395 . S
C216 C217 1.383 1_455 S
C216 H239 0.931 . S
C217 C216 1.383 1_655 S
C217 C218 1.394 . S
C218 C217 1.394 . S
C218 C219 1.378 . S
C218 H240 0.931 . S
C219 C214 1.377 . S
C219 C218 1.378 . S
C219 H241 0.931 . S
C220 O230 1.259 1_554 S
C220 O231 1.270 . S
C221 O232 1.251 . S
C221 O233 1.251 1_556 S
O222 C202 1.257 1_455 S
O222 Eu203 2.473 1_455 S
O223 C202 1.260 . S
O223 Eu203 2.480 . S
O224 Eu203 2.430 . S
O224 C210 1.259 1_554 S
O225 Eu203 2.670 1_556 S
O225 C210 1.270 . S
O225 Eu213 2.355 1_655 S
O226 Eu203 2.394 1_455 S
O226 C211 1.251 . S
O227 C211 1.251 . S
O227 Eu213 2.374 1_554 S
O228 C212 1.257 1_655 S
O228 Eu213 2.473 1_655 S
O229 C212 1.260 . S
O229 Eu213 2.480 . S
O230 Eu213 2.430 . S
O230 C220 1.259 1_556 S
O231 Eu203 2.355 1_455 S
O231 Eu213 2.670 1_554 S
O231 C220 1.270 . S
O232 Eu213 2.394 1_655 S
O232 C221 1.251 . S
O233 Eu203 2.374 . S
O233 C221 1.251 1_554 S
H234 C205 0.931 . S
H235 C206 0.931 . S
H236 C208 0.931 . S
H237 C209 0.931 . S
H238 C215 0.931 . S
H239 C216 0.931 . S
H240 C218 0.931 . S
H241 C219 0.931 . S
C242 Eu243 2.835 . S
C242 C244 1.500 . S
C242 O262 1.257 . S
C242 O263 1.260 . S
Eu243 C242 2.835 . S
Eu243 O262 2.473 . S
Eu243 O263 2.480 . S
Eu243 O264 2.430 . S
Eu243 O265 2.670 1_556 S
Eu243 O266 2.394 . S
Eu243 O271 2.355 . S
Eu243 O273 2.400 . S
C244 C242 1.500 . S
C244 C245 1.377 . S
C244 C249 1.377 . S
C245 C244 1.377 . S
C245 C246 1.395 . S
C245 H274 0.931 . S
C246 C245 1.395 . S
C246 C247 1.383 . S
C246 H275 0.931 . S
C247 C246 1.383 . S
C247 C248 1.394 . S
C248 C247 1.394 . S
C248 C249 1.378 . S
C248 H276 0.931 . S
C249 C244 1.377 . S
C249 C248 1.378 . S
C249 H277 0.931 . S
C250 O264 1.259 1_554 S
C250 O265 1.270 . S
C251 O266 1.251 . S
C251 O267 1.251 1_556 S
C252 Eu253 2.835 . S
C252 C254 1.500 . S
C252 O268 1.257 . S
C252 O269 1.260 . S
Eu253 C252 2.835 . S
Eu253 O265 2.355 . S
Eu253 O267 2.374 . S
Eu253 O268 2.473 . S
Eu253 O269 2.480 . S
Eu253 O270 2.430 . S
Eu253 O271 2.670 1_554 S
Eu253 O272 2.394 . S
C254 C252 1.500 . S
C254 C255 1.377 . S
C254 C259 1.377 . S
C255 C254 1.377 . S
C255 C256 1.395 . S
C255 H278 0.931 . S
C256 C255 1.395 . S
C256 C257 1.383 . S
C256 H279 0.931 . S
C257 C256 1.383 . S
C257 C258 1.394 . S
C258 C257 1.394 . S
C258 C259 1.378 . S
C258 H280 0.931 . S
C259 C254 1.377 . S
C259 C258 1.378 . S
C259 H281 0.931 . S
C260 O270 1.259 1_556 S
C260 O271 1.270 . S
C261 O272 1.251 . S
C261 O273 1.218 1_554 S
O262 C242 1.257 . S
O262 Eu243 2.473 . S
O263 C242 1.260 . S
O263 Eu243 2.480 . S
O264 Eu243 2.430 . S
O264 C250 1.259 1_556 S
O265 Eu243 2.670 1_554 S
O265 C250 1.270 . S
O265 Eu253 2.355 . S
O266 Eu243 2.394 . S
O266 C251 1.251 . S
O267 C251 1.251 1_554 S
O267 Eu253 2.374 . S
O268 C252 1.257 . S
O268 Eu253 2.473 . S
O269 C252 1.260 . S
O269 Eu253 2.480 . S
O270 Eu253 2.430 . S
O270 C260 1.259 1_554 S
O271 Eu243 2.355 . S
O271 Eu253 2.670 1_556 S
O271 C260 1.270 . S
O272 Eu253 2.394 . S
O272 C261 1.251 . S
O273 Eu243 2.400 . S
O273 C261 1.218 1_556 S
H274 C245 0.931 . S
H275 C246 0.931 . S
H276 C248 0.931 . S
H277 C249 0.931 . S
H278 C255 0.931 . S
H279 C256 0.931 . S
H280 C258 0.931 . S
H281 C259 0.931 . S
C282 Eu283 2.835 . S
C282 C284 1.500 . S
C282 O302 1.257 . S
C282 O303 1.260 . S
Eu283 C282 2.835 . S
Eu283 O302 2.473 . S
Eu283 O303 2.480 . S
Eu283 O304 2.430 . S
Eu283 O305 2.670 . S
Eu283 O306 2.394 . S
Eu283 O311 2.355 . S
Eu283 O313 2.374 . S
C284 C282 1.500 . S
C284 C285 1.377 . S
C284 C289 1.377 . S
C285 C284 1.377 . S
C285 C286 1.395 . S
C285 H314 0.931 . S
C286 C285 1.395 . S
C286 C287 1.383 . S
C286 H315 0.931 . S
C287 C286 1.383 . S
C287 C288 1.394 . S
C288 C287 1.394 . S
C288 C289 1.378 . S
C288 H316 0.931 . S
C289 C284 1.377 . S
C289 C288 1.378 . S
C289 H317 0.931 . S
C290 O304 1.259 . S
C290 O305 1.270 . S
C291 O306 1.251 . S
C291 O307 1.251 . S
C292 Eu293 2.835 . S
C292 C294 1.500 . S
C292 O308 1.257 . S
C292 O309 1.260 . S
Eu293 C292 2.835 . S
Eu293 O305 2.355 . S
Eu293 O307 2.374 . S
Eu293 O308 2.473 . S
Eu293 O309 2.480 . S
Eu293 O310 2.430 . S
Eu293 O311 2.670 . S
Eu293 O312 2.394 . S
C294 C292 1.500 . S
C294 C295 1.377 . S
C294 C299 1.377 . S
C295 C294 1.377 . S
C295 C296 1.395 . S
C295 H318 0.931 . S
C296 C295 1.395 . S
C296 C297 1.383 . S
C296 H319 0.931 . S
C297 C296 1.383 . S
C297 C298 1.394 . S
C298 C297 1.394 . S
C298 C299 1.378 . S
C298 H320 0.931 . S
C299 C294 1.377 . S
C299 C298 1.378 . S
C299 H321 0.931 . S
C300 O310 1.259 . S
C300 O311 1.270 . S
C301 O312 1.251 . S
C301 O313 1.251 . S
O302 C282 1.257 . S
O302 Eu283 2.473 . S
O303 C282 1.260 . S
O303 Eu283 2.480 . S
O304 Eu283 2.430 . S
O304 C290 1.259 . S
O305 Eu283 2.670 . S
O305 C290 1.270 . S
O305 Eu293 2.355 . S
O306 Eu283 2.394 . S
O306 C291 1.251 . S
O307 C291 1.251 . S
O307 Eu293 2.374 . S
O308 C292 1.257 . S
O308 Eu293 2.473 . S
O309 C292 1.260 . S
O309 Eu293 2.480 . S
O310 Eu293 2.430 . S
O310 C300 1.259 . S
O311 Eu283 2.355 . S
O311 Eu293 2.670 . S
O311 C300 1.270 . S
O312 Eu293 2.394 . S
O312 C301 1.251 . S
O313 Eu283 2.374 . S
O313 C301 1.251 . S
H314 C285 0.931 . S
H315 C286 0.931 . S
H316 C288 0.931 . S
H317 C289 0.931 . S
H318 C295 0.931 . S
H319 C296 0.931 . S
H320 C298 0.931 . S
H321 C299 0.931 . S
C322 Eu323 2.835 . S
C322 C324 1.500 . S
C322 O342 1.257 . S
C322 O343 1.260 . S
Eu323 C322 2.835 . S
Eu323 O342 2.473 . S
Eu323 O343 2.480 . S
Eu323 O344 2.430 . S
Eu323 O345 2.670 . S
Eu323 O346 2.394 . S
Eu323 O351 2.355 . S
Eu323 O353 2.374 . S
C324 C322 1.500 . S
C324 C325 1.377 . S
C324 C329 1.377 . S
C325 C324 1.377 . S
C325 C326 1.395 . S
C325 H354 0.931 . S
C326 C325 1.395 . S
C326 C327 1.383 . S
C326 H355 0.931 . S
C327 C326 1.383 . S
C327 C328 1.394 . S
C328 C327 1.394 . S
C328 C329 1.378 . S
C328 H356 0.931 . S
C329 C324 1.377 . S
C329 C328 1.378 . S
C329 H357 0.931 . S
C330 O344 1.259 . S
C330 O345 1.270 . S
C331 O346 1.251 . S
C331 O347 1.251 . S
C332 Eu333 2.835 . S
C332 C334 1.500 . S
C332 O348 1.257 . S
C332 O349 1.260 . S
Eu333 C332 2.835 . S
Eu333 O345 2.355 . S
Eu333 O347 2.374 . S
Eu333 O348 2.473 . S
Eu333 O349 2.480 . S
Eu333 O350 2.430 . S
Eu333 O351 2.670 . S
Eu333 O352 2.394 . S
C334 C332 1.500 . S
C334 C335 1.377 . S
C334 C339 1.377 . S
C335 C334 1.377 . S
C335 C336 1.395 . S
C335 H358 0.931 . S
C336 C335 1.395 . S
C336 C337 1.383 . S
C336 H359 0.931 . S
C337 C336 1.383 . S
C337 C338 1.394 . S
C338 C337 1.394 . S
C338 C339 1.378 . S
C338 H360 0.931 . S
C339 C334 1.377 . S
C339 C338 1.378 . S
C339 H361 0.931 . S
C340 O350 1.259 . S
C340 O351 1.270 . S
C341 O352 1.251 . S
C341 O353 1.251 . S
O342 C322 1.257 . S
O342 Eu323 2.473 . S
O343 C322 1.260 . S
O343 Eu323 2.480 . S
O344 Eu323 2.430 . S
O344 C330 1.259 . S
O345 Eu323 2.670 . S
O345 C330 1.270 . S
O345 Eu333 2.355 . S
O346 Eu323 2.394 . S
O346 C331 1.251 . S
O347 C331 1.251 . S
O347 Eu333 2.374 . S
O348 C332 1.257 . S
O348 Eu333 2.473 . S
O349 C332 1.260 . S
O349 Eu333 2.480 . S
O350 Eu333 2.430 . S
O350 C340 1.259 . S
O351 Eu323 2.355 . S
O351 Eu333 2.670 . S
O351 C340 1.270 . S
O352 Eu333 2.394 . S
O352 C341 1.251 . S
O353 Eu323 2.374 . S
O353 C341 1.251 . S
H354 C325 0.931 . S
H355 C326 0.931 . S
H356 C328 0.931 . S
H357 C329 0.931 . S
H358 C335 0.931 . S
H359 C336 0.931 . S
H360 C338 0.931 . S
H361 C339 0.931 . S
C362 Eu363 2.835 . S
C362 C364 1.500 . S
C362 O382 1.257 . S
C362 O383 1.260 . S
Eu363 C362 2.835 . S
Eu363 O382 2.473 . S
Eu363 O383 2.480 . S
Eu363 O384 2.430 . S
Eu363 O385 2.670 . S
Eu363 O386 2.394 . S
Eu363 O391 2.355 . S
Eu363 O393 2.374 . S
C364 C362 1.500 . S
C364 C365 1.377 . S
C364 C369 1.377 . S
C365 C364 1.377 . S
C365 C366 1.395 . S
C365 H394 0.931 . S
C366 C365 1.395 . S
C366 C367 1.383 . S
C366 H395 0.931 . S
C367 C366 1.383 . S
C367 C368 1.394 . S
C368 C367 1.394 . S
C368 C369 1.378 . S
C368 H396 0.931 . S
C369 C364 1.377 . S
C369 C368 1.378 . S
C369 H397 0.931 . S
C370 O384 1.259 . S
C370 O385 1.270 . S
C371 O386 1.251 . S
C371 O387 1.251 . S
C372 Eu373 2.835 . S
C372 C374 1.500 . S
C372 O388 1.257 . S
C372 O389 1.260 . S
Eu373 C372 2.835 . S
Eu373 O385 2.355 . S
Eu373 O387 2.374 . S
Eu373 O388 2.473 . S
Eu373 O389 2.480 . S
Eu373 O390 2.430 . S
Eu373 O391 2.670 . S
Eu373 O392 2.394 . S
C374 C372 1.500 . S
C374 C375 1.377 . S
C374 C379 1.377 . S
C375 C374 1.377 . S
C375 C376 1.395 . S
C375 H398 0.931 . S
C376 C375 1.395 . S
C376 C377 1.383 . S
C376 H399 0.931 . S
C377 C376 1.383 . S
C377 C378 1.394 . S
C378 C377 1.394 . S
C378 C379 1.378 . S
C378 H400 0.931 . S
C379 C374 1.377 . S
C379 C378 1.378 . S
C379 H401 0.931 . S
C380 O390 1.259 . S
C380 O391 1.270 . S
C381 O392 1.251 . S
C381 O393 1.251 . S
O382 C362 1.257 . S
O382 Eu363 2.473 . S
O383 C362 1.260 . S
O383 Eu363 2.480 . S
O384 Eu363 2.430 . S
O384 C370 1.259 . S
O385 Eu363 2.670 . S
O385 C370 1.270 . S
O385 Eu373 2.355 . S
O386 Eu363 2.394 . S
O386 C371 1.251 . S
O387 C371 1.251 . S
O387 Eu373 2.374 . S
O388 C372 1.257 . S
O388 Eu373 2.473 . S
O389 C372 1.260 . S
O389 Eu373 2.480 . S
O390 Eu373 2.430 . S
O390 C380 1.259 . S
O391 Eu363 2.355 . S
O391 Eu373 2.670 . S
O391 C380 1.270 . S
O392 Eu373 2.394 . S
O392 C381 1.251 . S
O393 Eu363 2.374 . S
O393 C381 1.251 . S
H394 C365 0.931 . S
H395 C366 0.931 . S
H396 C368 0.931 . S
H397 C369 0.931 . S
H398 C375 0.931 . S
H399 C376 0.931 . S
H400 C378 0.931 . S
H401 C379 0.931 . S
C402 Eu403 2.835 . S
C402 C404 1.500 . S
C402 O422 1.257 . S
C402 O423 1.260 . S
Eu403 C402 2.835 . S
Eu403 O422 2.473 . S
Eu403 O423 2.480 . S
Eu403 O424 2.430 . S
Eu403 O425 2.670 . S
Eu403 O426 2.394 . S
Eu403 O431 2.355 . S
Eu403 O433 2.374 . S
C404 C402 1.500 . S
C404 C405 1.377 . S
C404 C409 1.377 . S
C405 C404 1.377 . S
C405 C406 1.395 . S
C405 H434 0.931 . S
C406 C405 1.395 . S
C406 C407 1.383 . S
C406 H435 0.931 . S
C407 C406 1.383 . S
C407 C408 1.394 . S
C408 C407 1.394 . S
C408 C409 1.378 . S
C408 H436 0.931 . S
C409 C404 1.377 . S
C409 C408 1.378 . S
C409 H437 0.931 . S
C410 O424 1.259 . S
C410 O425 1.270 . S
C411 O426 1.251 . S
C411 O427 1.251 . S
C412 Eu413 2.835 . S
C412 C414 1.500 . S
C412 O428 1.257 . S
C412 O429 1.260 . S
Eu413 C412 2.835 . S
Eu413 O425 2.355 . S
Eu413 O427 2.374 . S
Eu413 O428 2.473 . S
Eu413 O429 2.480 . S
Eu413 O430 2.430 . S
Eu413 O431 2.670 . S
Eu413 O432 2.394 . S
C414 C412 1.500 . S
C414 C415 1.377 . S
C414 C419 1.377 . S
C415 C414 1.377 . S
C415 C416 1.395 . S
C415 H438 0.931 . S
C416 C415 1.395 . S
C416 C417 1.383 . S
C416 H439 0.931 . S
C417 C416 1.383 . S
C417 C418 1.394 . S
C418 C417 1.394 . S
C418 C419 1.378 . S
C418 H440 0.931 . S
C419 C414 1.377 . S
C419 C418 1.378 . S
C419 H441 0.931 . S
C420 O430 1.259 . S
C420 O431 1.270 . S
C421 O432 1.251 . S
C421 O433 1.251 . S
O422 C402 1.257 . S
O422 Eu403 2.473 . S
O423 C402 1.260 . S
O423 Eu403 2.480 . S
O424 Eu403 2.430 . S
O424 C410 1.259 . S
O425 Eu403 2.670 . S
O425 C410 1.270 . S
O425 Eu413 2.355 . S
O426 Eu403 2.394 . S
O426 C411 1.251 . S
O427 C411 1.251 . S
O427 Eu413 2.374 . S
O428 C412 1.257 . S
O428 Eu413 2.473 . S
O429 C412 1.260 . S
O429 Eu413 2.480 . S
O430 Eu413 2.430 . S
O430 C420 1.259 . S
O431 Eu403 2.355 . S
O431 Eu413 2.670 . S
O431 C420 1.270 . S
O432 Eu413 2.394 . S
O432 C421 1.251 . S
O433 Eu403 2.374 . S
O433 C421 1.251 . S
H434 C405 0.931 . S
H435 C406 0.931 . S
H436 C408 0.931 . S
H437 C409 0.931 . S
H438 C415 0.931 . S
H439 C416 0.931 . S
H440 C418 0.931 . S
H441 C419 0.931 . S
C442 Eu443 2.835 . S
C442 C444 1.500 . S
C442 O462 1.257 . S
C442 O463 1.260 . S
Eu443 C442 2.835 . S
Eu443 O462 2.473 . S
Eu443 O463 2.480 . S
Eu443 O464 2.430 . S
Eu443 O465 2.670 . S
Eu443 O466 2.394 . S
Eu443 O471 2.355 . S
Eu443 O473 2.374 . S
C444 C442 1.500 . S
C444 C445 1.377 . S
C444 C449 1.377 . S
C445 C444 1.377 . S
C445 C446 1.395 . S
C445 H474 0.931 . S
C446 C445 1.395 . S
C446 C447 1.383 . S
C446 H475 0.931 . S
C447 C446 1.383 . S
C447 C448 1.394 . S
C448 C447 1.394 . S
C448 C449 1.378 . S
C448 H476 0.931 . S
C449 C444 1.377 . S
C449 C448 1.378 . S
C449 H477 0.931 . S
C450 O464 1.259 . S
C450 O465 1.270 . S
C451 O466 1.251 . S
C451 O467 1.251 . S
C452 Eu453 2.835 . S
C452 C454 1.500 . S
C452 O468 1.257 . S
C452 O469 1.260 . S
Eu453 C452 2.835 . S
Eu453 O465 2.355 . S
Eu453 O467 2.374 . S
Eu453 O468 2.473 . S
Eu453 O469 2.480 . S
Eu453 O470 2.430 . S
Eu453 O471 2.670 . S
Eu453 O472 2.394 . S
C454 C452 1.500 . S
C454 C455 1.377 . S
C454 C459 1.377 . S
C455 C454 1.377 . S
C455 C456 1.395 . S
C455 H478 0.931 . S
C456 C455 1.395 . S
C456 C457 1.383 . S
C456 H479 0.931 . S
C457 C456 1.383 . S
C457 C458 1.394 . S
C458 C457 1.394 . S
C458 C459 1.378 . S
C458 H480 0.931 . S
C459 C454 1.377 . S
C459 C458 1.378 . S
C459 H481 0.931 . S
C460 O470 1.259 . S
C460 O471 1.270 . S
C461 O472 1.251 . S
C461 O473 1.251 . S
O462 C442 1.257 . S
O462 Eu443 2.473 . S
O463 C442 1.260 . S
O463 Eu443 2.480 . S
O464 Eu443 2.430 . S
O464 C450 1.259 . S
O465 Eu443 2.670 . S
O465 C450 1.270 . S
O465 Eu453 2.355 . S
O466 Eu443 2.394 . S
O466 C451 1.251 . S
O467 C451 1.251 . S
O467 Eu453 2.374 . S
O468 C452 1.257 . S
O468 Eu453 2.473 . S
O469 C452 1.260 . S
O469 Eu453 2.480 . S
O470 Eu453 2.430 . S
O470 C460 1.259 . S
O471 Eu443 2.355 . S
O471 Eu453 2.670 . S
O471 C460 1.270 . S
O472 Eu453 2.394 . S
O472 C461 1.251 . S
O473 Eu443 2.374 . S
O473 C461 1.251 . S
H474 C445 0.931 . S
H475 C446 0.931 . S
H476 C448 0.931 . S
H477 C449 0.931 . S
H478 C455 0.931 . S
H479 C456 0.931 . S
H480 C458 0.931 . S
H481 C459 0.931 . S
C482 Eu483 2.835 . S
C482 C484 1.500 . S
C482 O502 1.257 . S
C482 O503 1.260 . S
Eu483 C482 2.835 . S
Eu483 O502 2.473 . S
Eu483 O503 2.480 . S
Eu483 O504 2.430 . S
Eu483 O505 2.670 . S
Eu483 O506 2.394 . S
Eu483 O511 2.355 . S
Eu483 O513 2.374 . S
C484 C482 1.500 . S
C484 C485 1.377 . S
C484 C489 1.377 . S
C485 C484 1.377 . S
C485 C486 1.395 . S
C485 H514 0.931 . S
C486 C485 1.395 . S
C486 C487 1.383 . S
C486 H515 0.931 . S
C487 C486 1.383 . S
C487 C488 1.394 . S
C488 C487 1.394 . S
C488 C489 1.378 . S
C488 H516 0.931 . S
C489 C484 1.377 . S
C489 C488 1.378 . S
C489 H517 0.931 . S
C490 O504 1.259 . S
C490 O505 1.270 . S
C491 O506 1.251 . S
C491 O507 1.251 . S
C492 Eu493 2.835 . S
C492 C494 1.500 . S
C492 O508 1.257 . S
C492 O509 1.260 . S
Eu493 C492 2.835 . S
Eu493 O505 2.355 . S
Eu493 O507 2.374 . S
Eu493 O508 2.473 . S
Eu493 O509 2.480 . S
Eu493 O510 2.430 . S
Eu493 O511 2.670 . S
Eu493 O512 2.394 . S
C494 C492 1.500 . S
C494 C495 1.377 . S
C494 C499 1.377 . S
C495 C494 1.377 . S
C495 C496 1.395 . S
C495 H518 0.931 . S
C496 C495 1.395 . S
C496 C497 1.383 . S
C496 H519 0.931 . S
C497 C496 1.383 . S
C497 C498 1.394 . S
C498 C497 1.394 . S
C498 C499 1.378 . S
C498 H520 0.931 . S
C499 C494 1.377 . S
C499 C498 1.378 . S
C499 H521 0.931 . S
C500 O510 1.259 . S
C500 O511 1.270 . S
C501 O512 1.251 . S
C501 O513 1.251 . S
O502 C482 1.257 . S
O502 Eu483 2.473 . S
O503 C482 1.260 . S
O503 Eu483 2.480 . S
O504 Eu483 2.430 . S
O504 C490 1.259 . S
O505 Eu483 2.670 . S
O505 C490 1.270 . S
O505 Eu493 2.355 . S
O506 Eu483 2.394 . S
O506 C491 1.251 . S
O507 C491 1.251 . S
O507 Eu493 2.374 . S
O508 C492 1.257 . S
O508 Eu493 2.473 . S
O509 C492 1.260 . S
O509 Eu493 2.480 . S
O510 Eu493 2.430 . S
O510 C500 1.259 . S
O511 Eu483 2.355 . S
O511 Eu493 2.670 . S
O511 C500 1.270 . S
O512 Eu493 2.394 . S
O512 C501 1.251 . S
O513 Eu483 2.374 . S
O513 C501 1.251 . S
H514 C485 0.931 . S
H515 C486 0.931 . S
H516 C488 0.931 . S
H517 C489 0.931 . S
H518 C495 0.931 . S
H519 C496 0.931 . S
H520 C498 0.931 . S
H521 C499 0.931 . S
C522 C523 1.391 . S
C522 C524 1.394 . S
C522 H538 0.931 . S
C523 C522 1.391 . S
C523 C527 1.376 . S
C524 C522 1.394 . S
C524 C525 1.369 . S
C524 C528 1.531 . S
C525 C524 1.369 . S
C525 C526 1.410 . S
C525 C533 1.503 . S
C526 C525 1.410 . S
C526 C527 1.392 . S
C526 C529 1.511 . S
C527 C523 1.376 . S
C527 C526 1.392 . S
C527 H539 0.929 . S
C528 C524 1.531 . S
C528 H540 0.960 . S
C528 H541 0.962 . S
C528 H542 0.960 . S
C529 C526 1.511 . S
C529 H543 0.961 . S
C529 H544 0.961 . S
C529 H545 0.961 . S
C530 C531 1.370 . S
C530 C532 1.363 . S
C530 H546 0.931 . S
C531 C530 1.370 . S
C531 C535 1.408 . S
C532 C530 1.363 . S
C532 C533 1.370 . S
C532 C536 1.524 . S
C533 C525 1.503 . S
C533 C532 1.370 . S
C533 C534 1.403 . S
C534 C533 1.403 . S
C534 C535 1.404 . S
C534 C537 1.539 . S
C535 C531 1.408 . S
C535 C534 1.404 . S
C535 H547 0.930 . S
C536 C532 1.524 . S
C536 H548 0.956 . S
C536 H549 0.961 . S
C536 H550 0.961 . S
C537 C534 1.539 . S
C537 H551 0.958 . S
C537 H552 0.961 . S
C537 H553 0.960 . S
H538 C522 0.931 . S
H539 C527 0.929 . S
H540 C528 0.960 . S
H541 C528 0.962 . S
H542 C528 0.960 . S
H543 C529 0.961 . S
H544 C529 0.961 . S
H545 C529 0.961 . S
H546 C530 0.931 . S
H547 C535 0.930 . S
H548 C536 0.956 . S
H549 C536 0.961 . S
H550 C536 0.961 . S
H551 C537 0.958 . S
H552 C537 0.961 . S
H553 C537 0.960 . S
C554 C555 1.391 . S
C554 C556 1.394 . S
C554 H570 0.931 . S
C555 C554 1.391 . S
C555 C559 1.376 . S
C556 C554 1.394 . S
C556 C557 1.369 . S
C556 C560 1.531 . S
C557 C556 1.369 . S
C557 C558 1.410 . S
C557 C565 1.503 . S
C558 C557 1.410 . S
C558 C559 1.392 . S
C558 C561 1.511 . S
C559 C555 1.376 . S
C559 C558 1.392 . S
C559 H571 0.929 . S
C560 C556 1.531 . S
C560 H572 0.960 . S
C560 H573 0.962 . S
C560 H574 0.960 . S
C561 C558 1.511 . S
C561 H575 0.961 . S
C561 H576 0.961 . S
C561 H577 0.961 . S
C562 C563 1.370 . S
C562 C564 1.363 . S
C562 H578 0.931 . S
C563 C562 1.370 . S
C563 C567 1.408 . S
C564 C562 1.363 . S
C564 C565 1.370 . S
C564 C568 1.524 . S
C565 C557 1.503 . S
C565 C564 1.370 . S
C565 C566 1.403 . S
C566 C565 1.403 . S
C566 C567 1.404 . S
C566 C569 1.539 . S
C567 C563 1.408 . S
C567 C566 1.404 . S
C567 H579 0.930 . S
C568 C564 1.524 . S
C568 H580 0.956 . S
C568 H581 0.961 . S
C568 H582 0.961 . S
C569 C566 1.539 . S
C569 H583 0.958 . S
C569 H584 0.910 1_554 S
C569 H585 0.960 . S
H570 C554 0.931 . S
H571 C559 0.929 . S
H572 C560 0.960 . S
H573 C560 0.962 . S
H574 C560 0.960 . S
H575 C561 0.961 . S
H576 C561 0.961 . S
H577 C561 0.961 . S
H578 C562 0.931 . S
H579 C567 0.930 . S
H580 C568 0.956 . S
H581 C568 0.961 . S
H582 C568 0.961 . S
H583 C569 0.958 . S
H584 C569 0.910 1_556 S
H585 C569 0.960 . S
C586 C587 1.391 . S
C586 C588 1.394 . S
C586 H602 0.931 . S
C587 C586 1.391 . S
C587 C591 1.376 . S
C588 C586 1.394 . S
C588 C589 1.369 . S
C588 C592 1.531 . S
C589 C588 1.369 . S
C589 C590 1.410 . S
C589 C597 1.503 . S
C590 C589 1.410 . S
C590 C591 1.392 . S
C590 C593 1.511 . S
C591 C587 1.376 . S
C591 C590 1.392 . S
C591 H603 0.929 . S
C592 C588 1.531 . S
C592 H604 0.960 . S
C592 H605 0.962 . S
C592 H606 0.960 . S
C593 C590 1.511 . S
C593 H607 0.961 1_554 S
C593 H608 0.961 1_554 S
C593 H609 0.961 . S
C594 C595 1.370 . S
C594 C596 1.363 . S
C594 H610 0.931 . S
C595 C594 1.370 . S
C595 C599 1.408 . S
C596 C594 1.363 . S
C596 C597 1.370 . S
C596 C600 1.524 . S
C597 C589 1.503 . S
C597 C596 1.370 . S
C597 C598 1.403 . S
C598 C597 1.403 . S
C598 C599 1.404 . S
C598 C601 1.539 . S
C599 C595 1.408 . S
C599 C598 1.404 . S
C599 H611 0.930 . S
C600 C596 1.524 . S
C600 H612 0.956 . S
C600 H613 0.961 . S
C600 H614 0.961 . S
C601 C598 1.539 . S
C601 H615 0.958 . S
C601 H616 0.961 . S
C601 H617 0.960 . S
H602 C586 0.931 . S
H603 C591 0.929 . S
H604 C592 0.960 . S
H605 C592 0.962 . S
H606 C592 0.960 . S
H607 C593 0.961 1_556 S
H608 C593 0.961 1_556 S
H609 C593 0.961 . S
H610 C594 0.931 . S
H611 C599 0.930 . S
H612 C600 0.956 . S
H613 C600 0.961 . S
H614 C600 0.961 . S
H615 C601 0.958 . S
H616 C601 0.961 . S
H617 C601 0.960 . S
C618 C619 1.391 . S
C618 C620 1.394 . S
C618 H634 0.931 . S
C619 C618 1.391 . S
C619 C623 1.376 . S
C620 C618 1.394 . S
C620 C621 1.369 . S
C620 C624 1.531 . S
C621 C620 1.369 . S
C621 C622 1.410 . S
C621 C629 1.503 . S
C622 C621 1.410 . S
C622 C623 1.392 . S
C622 C625 1.511 . S
C623 C619 1.376 . S
C623 C622 1.392 . S
C623 H635 0.929 . S
C624 C620 1.531 . S
C624 H636 0.960 . S
C624 H637 0.962 . S
C624 H638 0.960 . S
C625 C622 1.511 . S
C625 H639 0.956 1_556 S
C625 H640 0.961 . S
C625 H641 0.961 1_556 S
C626 C627 1.370 . S
C626 C628 1.363 . S
C626 H642 0.931 . S
C627 C626 1.370 . S
C627 C631 1.408 . S
C628 C626 1.363 . S
C628 C629 1.370 . S
C628 C632 1.524 . S
C629 C621 1.503 . S
C629 C628 1.370 . S
C629 C630 1.403 . S
C630 C629 1.403 . S
C630 C631 1.404 . S
C630 C633 1.539 . S
C631 C627 1.408 . S
C631 C630 1.404 . S
C631 H643 0.930 . S
C632 C628 1.524 . S
C632 H644 0.956 . S
C632 H645 0.961 . S
C632 H646 0.961 . S
C633 C630 1.539 . S
C633 H647 0.958 . S
C633 H648 0.961 1_556 S
C633 H649 0.960 . S
H634 C618 0.931 . S
H635 C623 0.929 . S
H636 C624 0.960 . S
H637 C624 0.962 . S
H638 C624 0.960 . S
H639 C625 0.956 1_554 S
H640 C625 0.961 . S
H641 C625 0.961 1_554 S
H642 C626 0.931 . S
H643 C631 0.930 . S
H644 C632 0.956 . S
H645 C632 0.961 . S
H646 C632 0.961 . S
H647 C633 0.958 . S
H648 C633 0.961 1_554 S
H649 C633 0.960 . S
C650 C651 1.391 . S
C650 C652 1.394 . S
C650 H666 0.931 . S
C651 C650 1.391 . S
C651 C655 1.376 . S
C652 C650 1.394 . S
C652 C653 1.369 . S
C652 C656 1.531 . S
C653 C652 1.369 . S
C653 C654 1.410 . S
C653 C661 1.503 . S
C654 C653 1.410 . S
C654 C655 1.392 . S
C654 C657 1.511 . S
C655 C651 1.376 . S
C655 C654 1.392 . S
C655 H667 0.929 . S
C656 C652 1.531 . S
C656 H668 0.960 . S
C656 H669 0.962 . S
C656 H670 0.960 . S
C657 C654 1.511 . S
C657 H671 0.961 . S
C657 H672 0.961 . S
C657 H673 0.961 . S
C658 C659 1.370 . S
C658 C660 1.363 . S
C658 H674 0.931 . S
C659 C658 1.370 . S
C659 C663 1.408 . S
C660 C658 1.363 . S
C660 C661 1.370 . S
C660 C664 1.524 . S
C661 C653 1.503 . S
C661 C660 1.370 . S
C661 C662 1.403 . S
C662 C661 1.403 . S
C662 C663 1.404 . S
C662 C665 1.539 . S
C663 C659 1.408 . S
C663 C662 1.404 . S
C663 H675 0.937 . S
C664 C660 1.524 . S
C664 H676 0.956 . S
C664 H677 0.961 . S
C664 H678 0.961 . S
C665 C662 1.539 . S
C665 H679 0.958 1_556 S
C665 H680 0.961 . S
C665 H681 0.960 . S
H666 C650 0.931 . S
H667 C655 0.929 . S
H668 C656 0.960 . S
H669 C656 0.962 . S
H670 C656 0.960 . S
H671 C657 0.961 . S
H672 C657 0.961 . S
H673 C657 0.961 . S
H674 C658 0.931 . S
H675 C663 0.937 . S
H676 C664 0.956 . S
H677 C664 0.961 . S
H678 C664 0.961 . S
H679 C665 0.958 1_554 S
H680 C665 0.961 . S
H681 C665 0.960 . S
C682 C683 1.391 . S
C682 C684 1.394 . S
C682 H698 0.931 . S
C683 C682 1.391 . S
C683 C687 1.376 . S
C684 C682 1.394 . S
C684 C685 1.369 . S
C684 C688 1.531 . S
C685 C684 1.369 . S
C685 C686 1.410 . S
C685 C693 1.503 . S
C686 C685 1.410 . S
C686 C687 1.392 . S
C686 C689 1.511 . S
C687 C683 1.376 . S
C687 C686 1.392 . S
C687 H699 0.929 . S
C688 C684 1.531 . S
C688 H700 0.960 . S
C688 H701 0.962 . S
C688 H702 0.960 . S
C689 C686 1.511 . S
C689 H703 0.961 . S
C689 H704 0.961 . S
C689 H705 0.931 1_556 S
C690 C691 1.370 . S
C690 C692 1.363 . S
C690 H706 0.931 . S
C691 C690 1.370 . S
C691 C695 1.408 1_556 S
C692 C690 1.363 . S
C692 C693 1.370 . S
C692 C696 1.524 . S
C693 C685 1.503 . S
C693 C692 1.370 . S
C693 C694 1.403 . S
C694 C693 1.403 . S
C694 C695 1.404 1_556 S
C694 C697 1.539 1_556 S
C695 C691 1.408 1_554 S
C695 C694 1.404 1_554 S
C695 H707 0.930 . S
C696 C692 1.524 . S
C696 H708 0.956 . S
C696 H709 0.961 . S
C696 H710 0.961 . S
C697 C694 1.539 1_554 S
C697 H711 0.958 . S
C697 H712 0.961 . S
C697 H713 0.960 . S
H698 C682 0.931 . S
H699 C687 0.929 . S
H700 C688 0.960 . S
H701 C688 0.962 . S
H702 C688 0.960 . S
H703 C689 0.961 . S
H704 C689 0.961 . S
H705 C689 0.931 1_554 S
H706 C690 0.931 . S
H707 C695 0.930 . S
H708 C696 0.956 . S
H709 C696 0.961 . S
H710 C696 0.961 . S
H711 C697 0.958 . S
H712 C697 0.961 . S
H713 C697 0.960 . S
C714 C715 1.391 . S
C714 C716 1.394 . S
C714 H730 0.931 . S
C715 C714 1.391 . S
C715 C719 1.376 . S
C716 C714 1.394 . S
C716 C717 1.369 . S
C716 C720 1.531 . S
C717 C716 1.369 . S
C717 C718 1.410 . S
C717 C725 1.503 . S
C718 C717 1.410 . S
C718 C719 1.392 . S
C718 C721 1.511 . S
C719 C715 1.376 . S
C719 C718 1.392 . S
C719 H731 0.929 . S
C720 C716 1.531 . S
C720 H732 0.960 . S
C720 H733 0.962 . S
C720 H734 0.960 . S
C721 C718 1.511 . S
C721 H735 0.961 . S
C721 H736 0.961 . S
C721 H737 0.961 1_556 S
C722 C723 1.370 . S
C722 C724 1.363 . S
C722 H738 0.931 . S
C723 C722 1.370 . S
C723 C727 1.408 . S
C724 C722 1.363 . S
C724 C725 1.370 . S
C724 C728 1.524 . S
C725 C717 1.503 . S
C725 C724 1.370 . S
C725 C726 1.403 . S
C726 C725 1.403 . S
C726 C727 1.404 . S
C726 C729 1.539 . S
C727 C723 1.408 . S
C727 C726 1.404 . S
C727 H739 0.930 . S
C728 C724 1.524 . S
C728 H740 0.956 . S
C728 H741 0.961 . S
C728 H742 0.961 . S
C729 C726 1.539 . S
C729 H743 0.958 . S
C729 H744 0.961 . S
C729 H745 0.960 . S
H730 C714 0.931 . S
H731 C719 0.929 . S
H732 C720 0.960 . S
H733 C720 0.962 . S
H734 C720 0.960 . S
H735 C721 0.961 . S
H736 C721 0.961 . S
H737 C721 0.961 1_554 S
H738 C722 0.931 . S
H739 C727 0.930 . S
H740 C728 0.956 . S
H741 C728 0.961 . S
H742 C728 0.961 . S
H743 C729 0.958 . S
H744 C729 0.961 . S
H745 C729 0.960 . S
C746 C747 1.391 . S
C746 C748 1.394 . S
C746 H762 0.931 . S
C747 C746 1.391 . S
C747 C751 1.376 . S
C748 C746 1.394 . S
C748 C749 1.369 . S
C748 C752 1.531 . S
C749 C748 1.369 . S
C749 C750 1.410 . S
C749 C757 1.503 . S
C750 C749 1.410 . S
C750 C751 1.392 . S
C750 C753 1.511 . S
C751 C747 1.376 . S
C751 C750 1.392 . S
C751 H763 0.929 . S
C752 C748 1.531 . S
C752 H764 0.960 . S
C752 H765 0.962 . S
C752 H766 0.960 . S
C753 C750 1.511 . S
C753 H767 0.961 . S
C753 H768 0.961 . S
C753 H769 0.961 . S
C754 C755 1.370 . S
C754 C756 1.363 . S
C754 H770 0.931 . S
C755 C754 1.370 . S
C755 C759 1.408 . S
C756 C754 1.363 . S
C756 C757 1.370 . S
C756 C760 1.524 . S
C757 C749 1.503 . S
C757 C756 1.370 . S
C757 C758 1.403 . S
C758 C757 1.403 . S
C758 C759 1.404 . S
C758 C761 1.585 . S
C759 C755 1.408 . S
C759 C758 1.404 . S
C759 H771 0.930 1_556 S
C760 C756 1.524 . S
C760 H772 0.956 . S
C760 H773 0.961 . S
C760 H774 0.961 . S
C761 C758 1.585 . S
C761 H775 0.948 1_556 S
C761 H776 0.910 1_556 S
C761 H777 0.981 . S
H762 C746 0.931 . S
H763 C751 0.929 . S
H764 C752 0.960 . S
H765 C752 0.962 . S
H766 C752 0.960 . S
H767 C753 0.961 . S
H768 C753 0.961 . S
H769 C753 0.961 . S
H770 C754 0.931 . S
H771 C759 0.930 1_554 S
H772 C760 0.956 . S
H773 C760 0.961 . S
H774 C760 0.961 . S
H775 C761 0.948 1_554 S
H776 C761 0.910 1_554 S
H777 C761 0.981 . S
C778 C779 1.391 . S
C778 C780 1.394 . S
C778 H794 0.931 . S
C779 C778 1.391 . S
C779 C783 1.376 . S
C780 C778 1.394 . S
C780 C781 1.369 . S
C780 C784 1.531 . S
C781 C780 1.369 . S
C781 C782 1.410 . S
C781 C789 1.503 . S
C782 C781 1.410 . S
C782 C783 1.392 . S
C782 C785 1.511 . S
C783 C779 1.376 . S
C783 C782 1.392 . S
C783 H795 0.929 . S
C784 C780 1.531 . S
C784 H796 0.960 1_556 S
C784 H797 0.962 . S
C784 H798 0.960 1_556 S
C785 C782 1.511 . S
C785 H799 0.961 . S
C785 H800 0.961 . S
C785 H801 0.961 . S
C786 C787 1.370 . S
C786 C788 1.363 . S
C786 H802 0.931 . S
C787 C786 1.370 . S
C787 C791 1.408 . S
C788 C786 1.363 . S
C788 C789 1.370 . S
C788 C792 1.524 . S
C789 C781 1.503 . S
C789 C788 1.370 . S
C789 C790 1.403 . S
C790 C789 1.403 . S
C790 C791 1.404 . S
C790 C793 1.539 1_556 S
C791 C787 1.408 . S
C791 C790 1.404 . S
C791 H803 0.930 1_556 S
C792 C788 1.524 . S
C792 H804 0.956 . S
C792 H805 0.961 . S
C792 H806 0.961 . S
C793 C790 1.539 1_554 S
C793 H807 0.958 . S
C793 H808 0.961 . S
C793 H809 0.960 1_554 S
H794 C778 0.931 . S
H795 C783 0.929 . S
H796 C784 0.960 1_554 S
H797 C784 0.962 . S
H798 C784 0.960 1_554 S
H799 C785 0.961 . S
H800 C785 0.961 . S
H801 C785 0.961 . S
H802 C786 0.931 . S
H803 C791 0.930 1_554 S
H804 C792 0.956 . S
H805 C792 0.961 . S
H806 C792 0.961 . S
H807 C793 0.958 . S
H808 C793 0.961 . S
H809 C793 0.960 1_556 S
C810 C811 1.391 . S
C810 C812 1.394 . S
C810 H826 0.931 . S
C811 C810 1.391 . S
C811 C815 1.376 . S
C812 C810 1.394 . S
C812 C813 1.369 . S
C812 C816 1.531 . S
C813 C812 1.369 . S
C813 C814 1.410 . S
C813 C821 1.503 . S
C814 C813 1.410 . S
C814 C815 1.392 . S
C814 C817 1.511 . S
C815 C811 1.376 . S
C815 C814 1.392 . S
C815 H827 0.929 . S
C816 C812 1.531 . S
C816 H828 0.960 . S
C816 H829 0.962 . S
C816 H830 0.960 . S
C817 C814 1.511 . S
C817 H831 0.961 . S
C817 H832 0.961 . S
C817 H833 0.961 . S
C818 C819 1.370 . S
C818 C820 1.363 . S
C818 H834 0.931 . S
C819 C818 1.370 . S
C819 C823 1.408 . S
C820 C818 1.363 . S
C820 C821 1.370 . S
C820 C824 1.524 . S
C821 C813 1.503 . S
C821 C820 1.370 . S
C821 C822 1.403 . S
C822 C821 1.403 . S
C822 C823 1.404 . S
C822 C825 1.539 . S
C823 C819 1.408 . S
C823 C822 1.404 . S
C823 H835 0.930 . S
C824 C820 1.524 . S
C824 H836 0.956 . S
C824 H837 0.961 . S
C824 H838 0.961 . S
C825 C822 1.539 . S
C825 H839 0.958 1_554 S
C825 H840 0.961 . S
C825 H841 0.960 . S
H826 C810 0.931 . S
H827 C815 0.929 . S
H828 C816 0.960 . S
H829 C816 0.962 . S
H830 C816 0.960 . S
H831 C817 0.961 . S
H832 C817 0.961 . S
H833 C817 0.961 . S
H834 C818 0.931 . S
H835 C823 0.930 . S
H836 C824 0.956 . S
H837 C824 0.961 . S
H838 C824 0.961 . S
H839 C825 0.958 1_556 S
H840 C825 0.961 . S
H841 C825 0.960 . S
C842 C843 1.391 . S
C842 C844 1.394 . S
C842 H858 0.931 . S
C843 C842 1.391 . S
C843 C847 1.376 . S
C844 C842 1.394 . S
C844 C845 1.369 . S
C844 C848 1.531 . S
C845 C844 1.369 . S
C845 C846 1.410 . S
C845 C853 1.503 . S
C846 C845 1.410 . S
C846 C847 1.392 . S
C846 C849 1.511 . S
C847 C843 1.376 . S
C847 C846 1.392 . S
C847 H859 0.929 . S
C848 C844 1.531 . S
C848 H860 0.960 . S
C848 H861 0.962 . S
C848 H862 0.960 . S
C849 C846 1.511 . S
C849 H863 0.961 . S
C849 H864 0.961 . S
C849 H865 0.961 . S
C850 C851 1.370 . S
C850 C852 1.363 . S
C850 H866 0.931 . S
C851 C850 1.370 . S
C851 C855 1.408 . S
C852 C850 1.363 . S
C852 C853 1.370 . S
C852 C856 1.524 . S
C853 C845 1.503 . S
C853 C852 1.370 . S
C853 C854 1.403 . S
C854 C853 1.403 . S
C854 C855 1.404 . S
C854 C857 1.539 . S
C855 C851 1.408 . S
C855 C854 1.404 . S
C855 H867 0.930 . S
C856 C852 1.524 . S
C856 H868 0.956 . S
C856 H869 0.961 . S
C856 H870 0.996 . S
C857 C854 1.539 . S
C857 H871 0.958 . S
C857 H872 0.961 . S
C857 H873 0.960 . S
H858 C842 0.931 . S
H859 C847 0.929 . S
H860 C848 0.960 . S
H861 C848 0.962 . S
H862 C848 0.960 . S
H863 C849 0.961 . S
H864 C849 0.961 . S
H865 C849 0.961 . S
H866 C850 0.931 . S
H867 C855 0.930 . S
H868 C856 0.956 . S
H869 C856 0.961 . S
H870 C856 0.996 . S
H871 C857 0.958 . S
H872 C857 0.961 . S
H873 C857 0.960 . S
C874 C875 1.391 . S
C874 C876 1.394 . S
C874 H890 0.931 . S
C875 C874 1.391 . S
C875 C879 1.376 . S
C876 C874 1.394 . S
C876 C877 1.369 . S
C876 C880 1.531 . S
C877 C876 1.369 . S
C877 C878 1.410 . S
C877 C885 1.503 . S
C878 C877 1.410 . S
C878 C879 1.392 . S
C878 C881 1.511 . S
C879 C875 1.376 . S
C879 C878 1.392 . S
C879 H891 0.929 . S
C880 C876 1.531 . S
C880 H892 0.960 . S
C880 H893 0.962 . S
C880 H894 0.960 . S
C881 C878 1.511 . S
C881 H895 0.961 . S
C881 H896 0.961 . S
C881 H897 0.961 . S
C882 C883 1.370 . S
C882 C884 1.363 . S
C882 H898 0.931 1_554 S
C883 C882 1.370 . S
C883 C887 1.408 . S
C884 C882 1.363 . S
C884 C885 1.370 . S
C884 C888 1.554 . S
C885 C877 1.503 . S
C885 C884 1.370 . S
C885 C886 1.403 . S
C886 C885 1.403 . S
C886 C887 1.404 . S
C886 C889 1.539 . S
C887 C883 1.408 . S
C887 C886 1.404 . S
C887 H899 0.930 . S
C888 C884 1.554 . S
C888 H900 0.949 1_554 S
C888 H901 0.986 . S
C888 H902 0.916 1_554 S
C889 C886 1.539 . S
C889 H903 0.958 . S
C889 H904 0.961 . S
C889 H905 0.960 . S
H890 C874 0.931 . S
H891 C879 0.929 . S
H892 C880 0.960 . S
H893 C880 0.962 . S
H894 C880 0.960 . S
H895 C881 0.961 . S
H896 C881 0.961 . S
H897 C881 0.961 . S
H898 C882 0.931 1_556 S
H899 C887 0.930 . S
H900 C888 0.949 1_556 S
H901 C888 0.986 . S
H902 C888 0.916 1_556 S
H903 C889 0.958 . S
H904 C889 0.961 . S
H905 C889 0.960 . S
C906 C907 1.391 . S
C906 C908 1.394 . S
C906 H922 0.931 . S
C907 C906 1.391 . S
C907 C911 1.376 . S
C908 C906 1.394 . S
C908 C909 1.369 . S
C908 C912 1.531 1_655 S
C909 C908 1.369 . S
C909 C910 1.410 . S
C909 C917 1.503 1_655 S
C910 C909 1.410 . S
C910 C911 1.392 . S
C910 C913 1.511 . S
C911 C907 1.376 . S
C911 C910 1.392 . S
C911 H923 0.929 . S
C912 C908 1.531 1_455 S
C912 H924 0.960 . S
C912 H925 0.962 . S
C912 H926 0.960 . S
C913 C910 1.511 . S
C913 H927 0.961 . S
C913 H928 0.961 . S
C913 H929 0.961 . S
C914 C915 1.370 . S
C914 C916 1.363 . S
C914 H930 0.931 . S
C915 C914 1.370 . S
C915 C919 1.408 . S
C916 C914 1.363 . S
C916 C917 1.370 . S
C916 C920 1.524 1_455 S
C917 C909 1.503 1_455 S
C917 C916 1.370 . S
C917 C918 1.403 . S
C918 C917 1.403 . S
C918 C919 1.404 . S
C918 C921 1.539 . S
C919 C915 1.408 . S
C919 C918 1.404 . S
C919 H931 0.930 . S
C920 C916 1.524 1_655 S
C920 H932 0.956 . S
C920 H933 0.961 . S
C920 H934 0.961 1_655 S
C921 C918 1.539 . S
C921 H935 0.958 . S
C921 H936 0.961 . S
C921 H937 0.960 . S
H922 C906 0.931 . S
H923 C911 0.929 . S
H924 C912 0.960 . S
H925 C912 0.962 . S
H926 C912 0.960 . S
H927 C913 0.961 . S
H928 C913 0.961 . S
H929 C913 0.961 . S
H930 C914 0.931 . S
H931 C919 0.930 . S
H932 C920 0.956 . S
H933 C920 0.961 . S
H934 C920 0.961 1_455 S
H935 C921 0.958 . S
H936 C921 0.961 . S
H937 C921 0.960 . S
C938 C939 1.391 . S
C938 C940 1.394 . S
C938 H954 0.931 . S
C939 C938 1.391 . S
C939 C943 1.376 . S
C940 C938 1.394 . S
C940 C941 1.369 . S
C940 C944 1.531 . S
C941 C940 1.369 . S
C941 C942 1.410 . S
C941 C949 1.503 . S
C942 C941 1.410 . S
C942 C943 1.392 . S
C942 C945 1.511 . S
C943 C939 1.376 . S
C943 C942 1.392 . S
C943 H955 0.929 . S
C944 C940 1.531 . S
C944 H956 0.960 . S
C944 H957 0.962 . S
C944 H958 0.960 . S
C945 C942 1.511 . S
C945 H959 0.961 . S
C945 H960 0.961 . S
C945 H961 0.961 . S
C946 C947 1.370 . S
C946 C948 1.363 . S
C946 H962 0.931 . S
C947 C946 1.370 . S
C947 C951 1.408 . S
C948 C946 1.363 . S
C948 C949 1.370 . S
C948 C952 1.524 . S
C949 C941 1.503 . S
C949 C948 1.370 . S
C949 C950 1.403 . S
C950 C949 1.403 . S
C950 C951 1.404 . S
C950 C953 1.539 . S
C951 C947 1.408 . S
C951 C950 1.404 . S
C951 H963 0.930 . S
C952 C948 1.524 . S
C952 H964 0.956 . S
C952 H965 0.961 . S
C952 H966 0.961 . S
C953 C950 1.539 . S
C953 H967 0.958 . S
C953 H968 0.961 . S
C953 H969 0.960 . S
H954 C938 0.931 . S
H955 C943 0.929 . S
H956 C944 0.960 . S
H957 C944 0.962 . S
H958 C944 0.960 . S
H959 C945 0.961 . S
H960 C945 0.961 . S
H961 C945 0.961 . S
H962 C946 0.931 . S
H963 C951 0.930 . S
H964 C952 0.956 . S
H965 C952 0.961 . S
H966 C952 0.961 . S
H967 C953 0.958 . S
H968 C953 0.961 . S
H969 C953 0.960 . S
C970 C971 1.391 . S
C970 C972 1.394 . S
C970 H986 0.931 . S
C971 C970 1.391 . S
C971 C975 1.376 . S
C972 C970 1.394 . S
C972 C973 1.369 . S
C972 C976 1.531 . S
C973 C972 1.369 . S
C973 C974 1.410 . S
C973 C981 1.503 1_545 S
C974 C973 1.410 . S
C974 C975 1.392 . S
C974 C977 1.511 . S
C975 C971 1.376 . S
C975 C974 1.392 . S
C975 H987 0.929 . S
C976 C972 1.531 . S
C976 H988 0.960 . S
C976 H989 0.962 . S
C976 H990 0.960 . S
C977 C974 1.511 . S
C977 H991 0.961 . S
C977 H992 0.961 . S
C977 H993 0.961 . S
C978 C979 1.370 . S
C978 C980 1.363 . S
C978 H994 0.931 . S
C979 C978 1.370 . S
C979 C983 1.408 . S
C980 C978 1.363 . S
C980 C981 1.370 . S
C980 C984 1.524 1_565 S
C981 C973 1.503 1_565 S
C981 C980 1.370 . S
C981 C982 1.403 . S
C982 C981 1.403 . S
C982 C983 1.404 . S
C982 C985 1.539 . S
C983 C979 1.408 . S
C983 C982 1.404 . S
C983 H995 0.930 . S
C984 C980 1.524 1_545 S
C984 H996 0.956 . S
C984 H997 0.961 . S
C984 H998 0.961 1_545 S
C985 C982 1.539 . S
C985 H999 0.958 . S
C985 H1000 0.961 . S
C985 H1001 0.960 . S
H986 C970 0.931 . S
H987 C975 0.929 . S
H988 C976 0.960 . S
H989 C976 0.962 . S
H990 C976 0.960 . S
H991 C977 0.961 . S
H992 C977 0.961 . S
H993 C977 0.961 . S
H994 C978 0.931 . S
H995 C983 0.930 . S
H996 C984 0.956 . S
H997 C984 0.961 . S
H998 C984 0.961 1_565 S
H999 C985 0.958 . S
H1000 C985 0.961 . S
H1001 C985 0.960 . S
C1002 C1003 1.391 . S
C1002 C1004 1.394 . S
C1002 H1018 0.931 . S
C1003 C1002 1.391 . S
C1003 C1007 1.376 . S
C1004 C1002 1.394 . S
C1004 C1005 1.369 . S
C1004 C1008 1.531 . S
C1005 C1004 1.369 . S
C1005 C1006 1.410 . S
C1005 C1013 1.503 . S
C1006 C1005 1.410 . S
C1006 C1007 1.392 . S
C1006 C1009 1.511 . S
C1007 C1003 1.376 . S
C1007 C1006 1.392 . S
C1007 H1019 0.929 . S
C1008 C1004 1.531 . S
C1008 H1020 0.960 . S
C1008 H1021 0.962 . S
C1008 H1022 0.960 . S
C1009 C1006 1.511 . S
C1009 H1023 0.961 . S
C1009 H1024 0.961 . S
C1009 H1025 0.961 . S
C1010 C1011 1.370 . S
C1010 C1012 1.363 . S
C1010 H1026 0.931 . S
C1011 C1010 1.370 . S
C1011 C1015 1.408 . S
C1012 C1010 1.363 . S
C1012 C1013 1.370 . S
C1012 C1016 1.524 . S
C1013 C1005 1.503 . S
C1013 C1012 1.370 . S
C1013 C1014 1.403 . S
C1014 C1013 1.403 . S
C1014 C1015 1.404 . S
C1014 C1017 1.539 . S
C1015 C1011 1.408 . S
C1015 C1014 1.404 . S
C1015 H1027 0.930 . S
C1016 C1012 1.524 . S
C1016 H1028 0.956 . S
C1016 H1029 0.961 . S
C1016 H1030 0.961 . S
C1017 C1014 1.539 . S
C1017 H1031 0.958 . S
C1017 H1032 0.961 . S
C1017 H1033 0.960 . S
H1018 C1002 0.931 . S
H1019 C1007 0.929 . S
H1020 C1008 0.960 . S
H1021 C1008 0.962 . S
H1022 C1008 0.960 . S
H1023 C1009 0.961 . S
H1024 C1009 0.961 . S
H1025 C1009 0.961 . S
H1026 C1010 0.931 . S
H1027 C1015 0.930 . S
H1028 C1016 0.956 . S
H1029 C1016 0.961 . S
H1030 C1016 0.961 . S
H1031 C1017 0.958 . S
H1032 C1017 0.961 . S
H1033 C1017 0.960 . S
C1034 C1035 1.391 . S
C1034 C1036 1.394 . S
C1034 H1050 0.931 . S
C1035 C1034 1.391 . S
C1035 C1039 1.376 . S
C1036 C1034 1.394 . S
C1036 C1037 1.369 . S
C1036 C1040 1.531 . S
C1037 C1036 1.369 . S
C1037 C1038 1.410 . S
C1037 C1045 1.503 . S
C1038 C1037 1.410 . S
C1038 C1039 1.392 . S
C1038 C1041 1.511 . S
C1039 C1035 1.376 . S
C1039 C1038 1.392 . S
C1039 H1051 0.929 . S
C1040 C1036 1.531 . S
C1040 H1052 0.960 . S
C1040 H1053 0.962 . S
C1040 H1054 0.960 . S
C1041 C1038 1.511 . S
C1041 H1055 0.961 . S
C1041 H1056 0.961 . S
C1041 H1057 0.961 . S
C1042 C1043 1.370 . S
C1042 C1044 1.363 . S
C1042 H1058 0.931 . S
C1043 C1042 1.370 . S
C1043 C1047 1.408 . S
C1044 C1042 1.363 . S
C1044 C1045 1.370 . S
C1044 C1048 1.524 . S
C1045 C1037 1.503 . S
C1045 C1044 1.370 . S
C1045 C1046 1.403 . S
C1046 C1045 1.403 . S
C1046 C1047 1.404 . S
C1046 C1049 1.539 . S
C1047 C1043 1.408 . S
C1047 C1046 1.404 . S
C1047 H1059 0.930 . S
C1048 C1044 1.524 . S
C1048 H1060 0.956 . S
C1048 H1061 0.961 . S
C1048 H1062 0.961 . S
C1049 C1046 1.539 . S
C1049 H1063 0.958 . S
C1049 H1064 0.961 . S
C1049 H1065 0.960 . S
H1050 C1034 0.931 . S
H1051 C1039 0.929 . S
H1052 C1040 0.960 . S
H1053 C1040 0.962 . S
H1054 C1040 0.960 . S
H1055 C1041 0.961 . S
H1056 C1041 0.961 . S
H1057 C1041 0.961 . S
H1058 C1042 0.931 . S
H1059 C1047 0.930 . S
H1060 C1048 0.956 . S
H1061 C1048 0.961 . S
H1062 C1048 0.961 . S
H1063 C1049 0.958 . S
H1064 C1049 0.961 . S
H1065 C1049 0.960 . S
C1066 C1067 1.391 . S
C1066 C1068 1.394 . S
C1066 H1082 0.931 . S
C1067 C1066 1.391 . S
C1067 C1071 1.376 . S
C1068 C1066 1.394 . S
C1068 C1069 1.369 . S
C1068 C1072 1.531 . S
C1069 C1068 1.369 . S
C1069 C1070 1.410 . S
C1069 C1077 1.503 . S
C1070 C1069 1.410 . S
C1070 C1071 1.392 . S
C1070 C1073 1.511 . S
C1071 C1067 1.376 . S
C1071 C1070 1.392 . S
C1071 H1083 0.929 . S
C1072 C1068 1.531 . S
C1072 H1084 0.960 . S
C1072 H1085 0.962 . S
C1072 H1086 0.960 . S
C1073 C1070 1.511 . S
C1073 H1087 0.961 . S
C1073 H1088 0.961 . S
C1073 H1089 0.961 . S
C1074 C1075 1.370 . S
C1074 C1076 1.363 . S
C1074 H1090 0.931 . S
C1075 C1074 1.370 . S
C1075 C1079 1.408 . S
C1076 C1074 1.363 . S
C1076 C1077 1.370 . S
C1076 C1080 1.524 . S
C1077 C1069 1.503 . S
C1077 C1076 1.370 . S
C1077 C1078 1.403 . S
C1078 C1077 1.403 . S
C1078 C1079 1.404 . S
C1078 C1081 1.539 . S
C1079 C1075 1.408 . S
C1079 C1078 1.404 . S
C1079 H1091 0.930 . S
C1080 C1076 1.524 . S
C1080 H1092 0.956 . S
C1080 H1093 0.961 . S
C1080 H1094 0.961 . S
C1081 C1078 1.539 . S
C1081 H1095 0.958 . S
C1081 H1096 0.961 . S
C1081 H1097 0.960 . S
H1082 C1066 0.931 . S
H1083 C1071 0.929 . S
H1084 C1072 0.960 . S
H1085 C1072 0.962 . S
H1086 C1072 0.960 . S
H1087 C1073 0.961 . S
H1088 C1073 0.961 . S
H1089 C1073 0.961 . S
H1090 C1074 0.931 . S
H1091 C1079 0.930 . S
H1092 C1080 0.956 . S
H1093 C1080 0.961 . S
H1094 C1080 0.961 . S
H1095 C1081 0.958 . S
H1096 C1081 0.961 . S
H1097 C1081 0.960 . S
C1098 C1099 1.391 . S
C1098 C1100 1.394 . S
C1098 H1114 0.931 . S
C1099 C1098 1.391 . S
C1099 C1103 1.376 . S
C1100 C1098 1.394 . S
C1100 C1101 1.369 . S
C1100 C1104 1.531 . S
C1101 C1100 1.369 . S
C1101 C1102 1.410 . S
C1101 C1109 1.503 . S
C1102 C1101 1.410 . S
C1102 C1103 1.392 . S
C1102 C1105 1.511 . S
C1103 C1099 1.376 . S
C1103 C1102 1.392 . S
C1103 H1115 0.929 . S
C1104 C1100 1.531 . S
C1104 H1116 0.960 . S
C1104 H1117 0.962 . S
C1104 H1118 0.960 . S
C1105 C1102 1.511 . S
C1105 H1119 0.961 . S
C1105 H1120 0.961 . S
C1105 H1121 0.961 . S
C1106 C1107 1.370 . S
C1106 C1108 1.363 . S
C1106 H1122 0.931 . S
C1107 C1106 1.370 . S
C1107 C1111 1.408 . S
C1108 C1106 1.363 . S
C1108 C1109 1.370 . S
C1108 C1112 1.524 . S
C1109 C1101 1.503 . S
C1109 C1108 1.370 . S
C1109 C1110 1.403 . S
C1110 C1109 1.403 . S
C1110 C1111 1.404 . S
C1110 C1113 1.539 . S
C1111 C1107 1.408 . S
C1111 C1110 1.404 . S
C1111 H1123 0.930 . S
C1112 C1108 1.524 . S
C1112 H1124 0.956 . S
C1112 H1125 0.961 . S
C1112 H1126 0.961 . S
C1113 C1110 1.539 . S
C1113 H1127 0.958 . S
C1113 H1128 0.961 . S
C1113 H1129 0.960 . S
H1114 C1098 0.931 . S
H1115 C1103 0.929 . S
H1116 C1104 0.960 . S
H1117 C1104 0.962 . S
H1118 C1104 0.960 . S
H1119 C1105 0.961 . S
H1120 C1105 0.961 . S
H1121 C1105 0.961 . S
H1122 C1106 0.931 . S
H1123 C1111 0.930 . S
H1124 C1112 0.956 . S
H1125 C1112 0.961 . S
H1126 C1112 0.961 . S
H1127 C1113 0.958 . S
H1128 C1113 0.961 . S
H1129 C1113 0.960 . S
C1130 C1131 1.391 . S
C1130 C1132 1.394 . S
C1130 H1146 0.931 . S
C1131 C1130 1.391 . S
C1131 C1135 1.376 . S
C1132 C1130 1.394 . S
C1132 C1133 1.369 . S
C1132 C1136 1.531 . S
C1133 C1132 1.369 . S
C1133 C1134 1.410 . S
C1133 C1141 1.503 . S
C1134 C1133 1.410 . S
C1134 C1135 1.392 . S
C1134 C1137 1.511 . S
C1135 C1131 1.376 . S
C1135 C1134 1.392 . S
C1135 H1147 0.929 . S
C1136 C1132 1.531 . S
C1136 H1148 0.960 . S
C1136 H1149 0.962 . S
C1136 H1150 0.960 . S
C1137 C1134 1.511 . S
C1137 H1151 0.961 . S
C1137 H1152 0.961 . S
C1137 H1153 0.961 . S
C1138 C1139 1.370 . S
C1138 C1140 1.363 . S
C1138 H1154 0.931 . S
C1139 C1138 1.370 . S
C1139 C1143 1.408 . S
C1140 C1138 1.363 . S
C1140 C1141 1.370 . S
C1140 C1144 1.524 . S
C1141 C1133 1.503 . S
C1141 C1140 1.370 . S
C1141 C1142 1.403 . S
C1142 C1141 1.403 . S
C1142 C1143 1.404 . S
C1142 C1145 1.539 . S
C1143 C1139 1.408 . S
C1143 C1142 1.404 . S
C1143 H1155 0.930 . S
C1144 C1140 1.524 . S
C1144 H1156 0.956 . S
C1144 H1157 0.961 . S
C1144 H1158 0.961 . S
C1145 C1142 1.539 . S
C1145 H1159 0.958 . S
C1145 H1160 0.961 . S
C1145 H1161 0.960 . S
H1146 C1130 0.931 . S
H1147 C1135 0.929 . S
H1148 C1136 0.960 . S
H1149 C1136 0.962 . S
H1150 C1136 0.960 . S
H1151 C1137 0.961 . S
H1152 C1137 0.961 . S
H1153 C1137 0.961 . S
H1154 C1138 0.931 . S
H1155 C1143 0.930 . S
H1156 C1144 0.956 . S
H1157 C1144 0.961 . S
H1158 C1144 0.961 . S
H1159 C1145 0.958 . S
H1160 C1145 0.961 . S
H1161 C1145 0.960 . S
C1162 C1163 1.391 . S
C1162 C1164 1.394 . S
C1162 H1178 0.931 . S
C1163 C1162 1.391 . S
C1163 C1167 1.376 . S
C1164 C1162 1.394 . S
C1164 C1165 1.369 . S
C1164 C1168 1.531 . S
C1165 C1164 1.369 . S
C1165 C1166 1.410 . S
C1165 C1173 1.503 . S
C1166 C1165 1.410 . S
C1166 C1167 1.392 . S
C1166 C1169 1.511 . S
C1167 C1163 1.376 . S
C1167 C1166 1.392 . S
C1167 H1179 0.929 . S
C1168 C1164 1.531 . S
C1168 H1180 0.960 . S
C1168 H1181 0.962 . S
C1168 H1182 0.960 . S
C1169 C1166 1.511 . S
C1169 H1183 0.961 . S
C1169 H1184 0.961 . S
C1169 H1185 0.961 . S
C1170 C1171 1.370 . S
C1170 C1172 1.363 . S
C1170 H1186 0.931 . S
C1171 C1170 1.370 . S
C1171 C1175 1.408 . S
C1172 C1170 1.363 . S
C1172 C1173 1.370 . S
C1172 C1176 1.524 . S
C1173 C1165 1.503 . S
C1173 C1172 1.370 . S
C1173 C1174 1.403 . S
C1174 C1173 1.403 . S
C1174 C1175 1.404 . S
C1174 C1177 1.539 . S
C1175 C1171 1.408 . S
C1175 C1174 1.404 . S
C1175 H1187 0.930 . S
C1176 C1172 1.524 . S
C1176 H1188 0.956 . S
C1176 H1189 0.961 . S
C1176 H1190 0.961 . S
C1177 C1174 1.539 . S
C1177 H1191 0.958 . S
C1177 H1192 0.961 . S
C1177 H1193 0.960 . S
H1178 C1162 0.931 . S
H1179 C1167 0.929 . S
H1180 C1168 0.960 . S
H1181 C1168 0.962 . S
H1182 C1168 0.960 . S
H1183 C1169 0.961 . S
H1184 C1169 0.961 . S
H1185 C1169 0.961 . S
H1186 C1170 0.931 . S
H1187 C1175 0.930 . S
H1188 C1176 0.956 . S
H1189 C1176 0.961 . S
H1190 C1176 0.961 . S
H1191 C1177 0.958 . S
H1192 C1177 0.961 . S
H1193 C1177 0.960 . S
C1194 C1195 1.391 . S
C1194 C1196 1.394 . S
C1194 H1210 0.931 . S
C1195 C1194 1.391 . S
C1195 C1199 1.376 . S
C1196 C1194 1.394 . S
C1196 C1197 1.369 . S
C1196 C1200 1.531 . S
C1197 C1196 1.369 . S
C1197 C1198 1.410 . S
C1197 C1205 1.503 1_545 S
C1198 C1197 1.410 . S
C1198 C1199 1.392 . S
C1198 C1201 1.511 . S
C1199 C1195 1.376 . S
C1199 C1198 1.392 . S
C1199 H1211 0.929 . S
C1200 C1196 1.531 . S
C1200 H1212 0.960 . S
C1200 H1213 0.962 . S
C1200 H1214 0.960 . S
C1201 C1198 1.511 . S
C1201 H1215 0.961 . S
C1201 H1216 0.987 . S
C1201 H1217 0.961 . S
C1202 C1203 1.370 . S
C1202 C1204 1.363 . S
C1202 H1218 0.931 . S
C1203 C1202 1.370 . S
C1203 C1207 1.408 . S
C1204 C1202 1.363 . S
C1204 C1205 1.370 . S
C1204 C1208 1.524 . S
C1205 C1197 1.503 1_565 S
C1205 C1204 1.370 . S
C1205 C1206 1.403 . S
C1206 C1205 1.403 . S
C1206 C1207 1.404 . S
C1206 C1209 1.539 1_565 S
C1207 C1203 1.408 . S
C1207 C1206 1.404 . S
C1207 H1219 0.930 . S
C1208 C1204 1.524 . S
C1208 H1220 0.956 . S
C1208 H1221 0.961 . S
C1208 H1222 0.961 . S
C1209 C1206 1.539 1_545 S
C1209 H1223 0.958 . S
C1209 H1224 0.961 1_545 S
C1209 H1225 0.960 . S
H1210 C1194 0.931 . S
H1211 C1199 0.929 . S
H1212 C1200 0.960 . S
H1213 C1200 0.962 . S
H1214 C1200 0.960 . S
H1215 C1201 0.961 . S
H1216 C1201 0.987 . S
H1217 C1201 0.961 . S
H1218 C1202 0.931 . S
H1219 C1207 0.930 . S
H1220 C1208 0.956 . S
H1221 C1208 0.961 . S
H1222 C1208 0.961 . S
H1223 C1209 0.958 . S
H1224 C1209 0.961 1_565 S
H1225 C1209 0.960 . S
C1226 C1227 1.391 . S
C1226 C1228 1.394 . S
C1226 H1242 0.931 . S
C1227 C1226 1.391 . S
C1227 C1231 1.376 . S
C1228 C1226 1.394 . S
C1228 C1229 1.369 . S
C1228 C1232 1.531 1_655 S
C1229 C1228 1.369 . S
C1229 C1230 1.410 . S
C1229 C1237 1.503 1_655 S
C1230 C1229 1.410 . S
C1230 C1231 1.392 . S
C1230 C1233 1.511 . S
C1231 C1227 1.376 . S
C1231 C1230 1.392 . S
C1231 H1243 0.929 . S
C1232 C1228 1.531 1_455 S
C1232 H1244 0.960 . S
C1232 H1245 0.962 . S
C1232 H1246 0.960 . S
C1233 C1230 1.511 . S
C1233 H1247 0.961 . S
C1233 H1248 0.961 1_655 S
C1233 H1249 0.941 1_655 S
C1234 C1235 1.370 . S
C1234 C1236 1.363 . S
C1234 H1250 0.931 . S
C1235 C1234 1.370 . S
C1235 C1239 1.408 . S
C1236 C1234 1.363 . S
C1236 C1237 1.370 . S
C1236 C1240 1.524 1_455 S
C1237 C1229 1.503 1_455 S
C1237 C1236 1.370 . S
C1237 C1238 1.403 . S
C1238 C1237 1.403 . S
C1238 C1239 1.404 . S
C1238 C1241 1.539 . S
C1239 C1235 1.408 . S
C1239 C1238 1.404 . S
C1239 H1251 0.930 . S
C1240 C1236 1.524 1_655 S
C1240 H1252 0.956 . S
C1240 H1253 0.961 . S
C1240 H1254 0.961 . S
C1241 C1238 1.539 . S
C1241 H1255 0.958 . S
C1241 H1256 0.961 . S
C1241 H1257 0.960 . S
H1242 C1226 0.931 . S
H1243 C1231 0.929 . S
H1244 C1232 0.960 . S
H1245 C1232 0.962 . S
H1246 C1232 0.960 . S
H1247 C1233 0.961 . S
H1248 C1233 0.961 1_455 S
H1249 C1233 0.941 1_455 S
H1250 C1234 0.931 . S
H1251 C1239 0.930 . S
H1252 C1240 0.956 . S
H1253 C1240 0.961 . S
H1254 C1240 0.961 . S
H1255 C1241 0.958 . S
H1256 C1241 0.961 . S
H1257 C1241 0.960 . S
C1258 C1259 1.391 . S
C1258 C1260 1.394 . S
C1258 H1274 0.931 . S
C1259 C1258 1.391 . S
C1259 C1263 1.376 . S
C1260 C1258 1.394 . S
C1260 C1261 1.369 . S
C1260 C1264 1.531 . S
C1261 C1260 1.369 . S
C1261 C1262 1.410 . S
C1261 C1269 1.503 . S
C1262 C1261 1.410 . S
C1262 C1263 1.392 . S
C1262 C1265 1.511 . S
C1263 C1259 1.376 . S
C1263 C1262 1.392 . S
C1263 H1275 0.929 . S
C1264 C1260 1.531 . S
C1264 H1276 0.960 . S
C1264 H1277 0.962 . S
C1264 H1278 0.960 . S
C1265 C1262 1.511 . S
C1265 H1279 0.961 . S
C1265 H1280 0.961 . S
C1265 H1281 0.961 . S
C1266 C1267 1.370 . S
C1266 C1268 1.363 . S
C1266 H1282 0.931 . S
C1267 C1266 1.370 . S
C1267 C1271 1.408 . S
C1268 C1266 1.363 . S
C1268 C1269 1.370 . S
C1268 C1272 1.524 . S
C1269 C1261 1.503 . S
C1269 C1268 1.370 . S
C1269 C1270 1.403 . S
C1270 C1269 1.403 . S
C1270 C1271 1.404 . S
C1270 C1273 1.539 . S
C1271 C1267 1.408 . S
C1271 C1270 1.404 . S
C1271 H1283 0.930 . S
C1272 C1268 1.524 . S
C1272 H1284 0.956 . S
C1272 H1285 0.961 . S
C1272 H1286 0.961 . S
C1273 C1270 1.539 . S
C1273 H1287 0.958 . S
C1273 H1288 0.961 . S
C1273 H1289 0.960 . S
H1274 C1258 0.931 . S
H1275 C1263 0.929 . S
H1276 C1264 0.960 . S
H1277 C1264 0.962 . S
H1278 C1264 0.960 . S
H1279 C1265 0.961 . S
H1280 C1265 0.961 . S
H1281 C1265 0.961 . S
H1282 C1266 0.931 . S
H1283 C1271 0.930 . S
H1284 C1272 0.956 . S
H1285 C1272 0.961 . S
H1286 C1272 0.961 . S
H1287 C1273 0.958 . S
H1288 C1273 0.961 . S
H1289 C1273 0.960 . S
C1290 C1291 1.391 . S
C1290 C1292 1.394 . S
C1290 H1306 0.931 . S
C1291 C1290 1.391 . S
C1291 C1295 1.376 . S
C1292 C1290 1.394 . S
C1292 C1293 1.369 . S
C1292 C1296 1.531 . S
C1293 C1292 1.369 . S
C1293 C1294 1.410 . S
C1293 C1301 1.503 . S
C1294 C1293 1.410 . S
C1294 C1295 1.392 . S
C1294 C1297 1.511 . S
C1295 C1291 1.376 . S
C1295 C1294 1.392 . S
C1295 H1307 0.929 . S
C1296 C1292 1.531 . S
C1296 H1308 0.960 . S
C1296 H1309 0.962 . S
C1296 H1310 0.960 . S
C1297 C1294 1.511 . S
C1297 H1311 0.961 . S
C1297 H1312 0.961 . S
C1297 H1313 0.961 . S
C1298 C1299 1.370 . S
C1298 C1300 1.363 . S
C1298 H1314 0.931 . S
C1299 C1298 1.370 . S
C1299 C1303 1.408 . S
C1300 C1298 1.363 . S
C1300 C1301 1.370 . S
C1300 C1304 1.524 . S
C1301 C1293 1.503 . S
C1301 C1300 1.370 . S
C1301 C1302 1.403 . S
C1302 C1301 1.403 . S
C1302 C1303 1.404 . S
C1302 C1305 1.539 . S
C1303 C1299 1.408 . S
C1303 C1302 1.404 . S
C1303 H1315 0.930 . S
C1304 C1300 1.524 . S
C1304 H1316 0.956 . S
C1304 H1317 0.961 . S
C1304 H1318 0.961 . S
C1305 C1302 1.539 . S
C1305 H1319 0.958 . S
C1305 H1320 0.961 . S
C1305 H1321 0.960 . S
H1306 C1290 0.931 . S
H1307 C1295 0.929 . S
H1308 C1296 0.960 . S
H1309 C1296 0.962 . S
H1310 C1296 0.960 . S
H1311 C1297 0.961 . S
H1312 C1297 0.961 . S
H1313 C1297 0.961 . S
H1314 C1298 0.931 . S
H1315 C1303 0.930 . S
H1316 C1304 0.956 . S
H1317 C1304 0.961 . S
H1318 C1304 0.961 . S
H1319 C1305 0.958 . S
H1320 C1305 0.961 . S
H1321 C1305 0.960 . S
C1322 C1323 1.391 . S
C1322 C1324 1.394 . S
C1322 H1338 0.931 . S
C1323 C1322 1.391 . S
C1323 C1327 1.376 . S
C1324 C1322 1.394 . S
C1324 C1325 1.369 . S
C1324 C1328 1.531 . S
C1325 C1324 1.369 . S
C1325 C1326 1.410 . S
C1325 C1333 1.503 . S
C1326 C1325 1.410 . S
C1326 C1327 1.392 . S
C1326 C1329 1.511 . S
C1327 C1323 1.376 . S
C1327 C1326 1.392 . S
C1327 H1339 0.929 . S
C1328 C1324 1.531 . S
C1328 H1340 0.960 . S
C1328 H1341 0.962 . S
C1328 H1342 0.960 . S
C1329 C1326 1.511 . S
C1329 H1343 0.961 . S
C1329 H1344 0.961 . S
C1329 H1345 0.961 . S
C1330 C1331 1.370 . S
C1330 C1332 1.363 . S
C1330 H1346 0.931 . S
C1331 C1330 1.370 . S
C1331 C1335 1.408 . S
C1332 C1330 1.363 . S
C1332 C1333 1.370 . S
C1332 C1336 1.524 . S
C1333 C1325 1.503 . S
C1333 C1332 1.370 . S
C1333 C1334 1.403 . S
C1334 C1333 1.403 . S
C1334 C1335 1.404 . S
C1334 C1337 1.539 . S
C1335 C1331 1.408 . S
C1335 C1334 1.404 . S
C1335 H1347 0.930 . S
C1336 C1332 1.524 . S
C1336 H1348 0.956 . S
C1336 H1349 0.961 . S
C1336 H1350 0.961 . S
C1337 C1334 1.539 . S
C1337 H1351 0.958 . S
C1337 H1352 0.961 . S
C1337 H1353 0.960 . S
H1338 C1322 0.931 . S
H1339 C1327 0.929 . S
H1340 C1328 0.960 . S
H1341 C1328 0.962 . S
H1342 C1328 0.960 . S
H1343 C1329 0.961 . S
H1344 C1329 0.961 . S
H1345 C1329 0.961 . S
H1346 C1330 0.931 . S
H1347 C1335 0.930 . S
H1348 C1336 0.956 . S
H1349 C1336 0.961 . S
H1350 C1336 0.961 . S
H1351 C1337 0.958 . S
H1352 C1337 0.961 . S
H1353 C1337 0.960 . S
C1354 C1355 1.391 . S
C1354 C1356 1.394 . S
C1354 H1370 0.931 . S
C1355 C1354 1.391 . S
C1355 C1359 1.376 . S
C1356 C1354 1.394 . S
C1356 C1357 1.369 . S
C1356 C1360 1.531 . S
C1357 C1356 1.369 . S
C1357 C1358 1.410 . S
C1357 C1365 1.503 . S
C1358 C1357 1.410 . S
C1358 C1359 1.392 . S
C1358 C1361 1.511 . S
C1359 C1355 1.376 . S
C1359 C1358 1.392 . S
C1359 H1371 0.929 . S
C1360 C1356 1.531 . S
C1360 H1372 0.960 . S
C1360 H1373 0.962 . S
C1360 H1374 0.960 . S
C1361 C1358 1.511 . S
C1361 H1375 0.961 . S
C1361 H1376 0.961 . S
C1361 H1377 0.961 . S
C1362 C1363 1.370 . S
C1362 C1364 1.363 . S
C1362 H1378 0.931 . S
C1363 C1362 1.370 . S
C1363 C1367 1.408 . S
C1364 C1362 1.363 . S
C1364 C1365 1.370 . S
C1364 C1368 1.524 . S
C1365 C1357 1.503 . S
C1365 C1364 1.370 . S
C1365 C1366 1.403 . S
C1366 C1365 1.403 . S
C1366 C1367 1.404 . S
C1366 C1369 1.539 . S
C1367 C1363 1.408 . S
C1367 C1366 1.404 . S
C1367 H1379 0.930 . S
C1368 C1364 1.524 . S
C1368 H1380 0.956 . S
C1368 H1381 0.961 . S
C1368 H1382 0.961 . S
C1369 C1366 1.539 . S
C1369 H1383 0.958 . S
C1369 H1384 0.961 . S
C1369 H1385 0.960 . S
H1370 C1354 0.931 . S
H1371 C1359 0.929 . S
H1372 C1360 0.960 . S
H1373 C1360 0.962 . S
H1374 C1360 0.960 . S
H1375 C1361 0.961 . S
H1376 C1361 0.961 . S
H1377 C1361 0.961 . S
H1378 C1362 0.931 . S
H1379 C1367 0.930 . S
H1380 C1368 0.956 . S
H1381 C1368 0.961 . S
H1382 C1368 0.961 . S
H1383 C1369 0.958 . S
H1384 C1369 0.961 . S
H1385 C1369 0.960 . S
C1386 C1387 1.391 . S
C1386 C1388 1.394 . S
C1386 H1402 0.931 . S
C1387 C1386 1.391 . S
C1387 C1391 1.376 . S
C1388 C1386 1.394 . S
C1388 C1389 1.369 . S
C1388 C1392 1.531 . S
C1389 C1388 1.369 . S
C1389 C1390 1.410 . S
C1389 C1397 1.503 1_565 S
C1390 C1389 1.410 . S
C1390 C1391 1.392 . S
C1390 C1393 1.511 . S
C1391 C1387 1.376 . S
C1391 C1390 1.392 . S
C1391 H1403 0.929 . S
C1392 C1388 1.531 . S
C1392 H1404 0.960 1_565 S
C1392 H1405 0.962 . S
C1392 H1406 0.960 . S
C1393 C1390 1.511 . S
C1393 H1407 0.961 . S
C1393 H1408 0.961 . S
C1393 H1409 0.961 . S
C1394 C1395 1.370 . S
C1394 C1396 1.363 . S
C1394 H1410 0.931 . S
C1395 C1394 1.370 . S
C1395 C1399 1.408 . S
C1396 C1394 1.363 . S
C1396 C1397 1.370 . S
C1396 C1400 1.524 1_545 S
C1397 C1389 1.503 1_545 S
C1397 C1396 1.370 . S
C1397 C1398 1.403 . S
C1398 C1397 1.403 . S
C1398 C1399 1.404 . S
C1398 C1401 1.539 . S
C1399 C1395 1.408 . S
C1399 C1398 1.404 . S
C1399 H1411 0.930 . S
C1400 C1396 1.524 1_565 S
C1400 H1412 0.956 . S
C1400 H1413 0.961 . S
C1400 H1414 0.961 1_565 S
C1401 C1398 1.539 . S
C1401 H1415 0.958 . S
C1401 H1416 0.961 . S
C1401 H1417 0.960 . S
H1402 C1386 0.931 . S
H1403 C1391 0.929 . S
H1404 C1392 0.960 1_545 S
H1405 C1392 0.962 . S
H1406 C1392 0.960 . S
H1407 C1393 0.961 . S
H1408 C1393 0.961 . S
H1409 C1393 0.961 . S
H1410 C1394 0.931 . S
H1411 C1399 0.930 . S
H1412 C1400 0.956 . S
H1413 C1400 0.961 . S
H1414 C1400 0.961 1_545 S
H1415 C1401 0.958 . S
H1416 C1401 0.961 . S
H1417 C1401 0.960 . S
C1418 C1419 1.391 . S
C1418 C1420 1.394 . S
C1418 H1434 0.931 . S
C1419 C1418 1.391 . S
C1419 C1423 1.376 . S
C1420 C1418 1.394 . S
C1420 C1421 1.369 . S
C1420 C1424 1.531 1_455 S
C1421 C1420 1.369 . S
C1421 C1422 1.410 . S
C1421 C1429 1.503 1_455 S
C1422 C1421 1.410 . S
C1422 C1423 1.392 . S
C1422 C1425 1.511 . S
C1423 C1419 1.376 . S
C1423 C1422 1.392 . S
C1423 H1435 0.929 . S
C1424 C1420 1.531 1_655 S
C1424 H1436 0.960 . S
C1424 H1437 0.962 . S
C1424 H1438 0.960 . S
C1425 C1422 1.511 . S
C1425 H1439 0.961 . S
C1425 H1440 0.961 . S
C1425 H1441 0.961 . S
C1426 C1427 1.370 . S
C1426 C1428 1.363 . S
C1426 H1442 0.931 . S
C1427 C1426 1.370 . S
C1427 C1431 1.408 . S
C1428 C1426 1.363 . S
C1428 C1429 1.370 . S
C1428 C1432 1.528 . S
C1429 C1421 1.503 1_655 S
C1429 C1428 1.370 . S
C1429 C1430 1.403 . S
C1430 C1429 1.403 . S
C1430 C1431 1.404 . S
C1430 C1433 1.539 . S
C1431 C1427 1.408 . S
C1431 C1430 1.404 . S
C1431 H1443 0.930 . S
C1432 C1428 1.528 . S
C1432 H1444 0.957 1_655 S
C1432 H1445 0.950 1_655 S
C1432 H1446 0.967 . S
C1433 C1430 1.539 . S
C1433 H1447 0.958 . S
C1433 H1448 0.961 . S
C1433 H1449 0.960 . S
H1434 C1418 0.931 . S
H1435 C1423 0.929 . S
H1436 C1424 0.960 . S
H1437 C1424 0.962 . S
H1438 C1424 0.960 . S
H1439 C1425 0.961 . S
H1440 C1425 0.961 . S
H1441 C1425 0.961 . S
H1442 C1426 0.931 . S
H1443 C1431 0.930 . S
H1444 C1432 0.957 1_455 S
H1445 C1432 0.950 1_455 S
H1446 C1432 0.967 . S
H1447 C1433 0.958 . S
H1448 C1433 0.961 . S
H1449 C1433 0.960 . S
C1450 C1451 1.391 . S
C1450 C1452 1.394 . S
C1450 H1466 0.931 . S
C1451 C1450 1.391 . S
C1451 C1455 1.376 . S
C1452 C1450 1.394 . S
C1452 C1453 1.369 . S
C1452 C1456 1.531 . S
C1453 C1452 1.369 . S
C1453 C1454 1.410 . S
C1453 C1461 1.503 . S
C1454 C1453 1.410 . S
C1454 C1455 1.392 . S
C1454 C1457 1.511 . S
C1455 C1451 1.376 . S
C1455 C1454 1.392 . S
C1455 H1467 0.929 . S
C1456 C1452 1.531 . S
C1456 H1468 0.960 . S
C1456 H1469 0.962 . S
C1456 H1470 0.960 . S
C1457 C1454 1.511 . S
C1457 H1471 0.961 . S
C1457 H1472 0.961 . S
C1457 H1473 0.961 . S
C1458 C1459 1.370 . S
C1458 C1460 1.363 . S
C1458 H1474 0.931 . S
C1459 C1458 1.370 . S
C1459 C1463 1.408 . S
C1460 C1458 1.363 . S
C1460 C1461 1.370 . S
C1460 C1464 1.524 . S
C1461 C1453 1.503 . S
C1461 C1460 1.370 . S
C1461 C1462 1.403 . S
C1462 C1461 1.403 . S
C1462 C1463 1.404 . S
C1462 C1465 1.539 . S
C1463 C1459 1.408 . S
C1463 C1462 1.404 . S
C1463 H1475 0.930 . S
C1464 C1460 1.524 . S
C1464 H1476 0.956 . S
C1464 H1477 0.961 . S
C1464 H1478 0.961 . S
C1465 C1462 1.539 . S
C1465 H1479 0.958 . S
C1465 H1480 0.961 . S
C1465 H1481 0.960 . S
H1466 C1450 0.931 . S
H1467 C1455 0.929 . S
H1468 C1456 0.960 . S
H1469 C1456 0.962 . S
H1470 C1456 0.960 . S
H1471 C1457 0.961 . S
H1472 C1457 0.961 . S
H1473 C1457 0.961 . S
H1474 C1458 0.931 . S
H1475 C1463 0.930 . S
H1476 C1464 0.956 . S
H1477 C1464 0.961 . S
H1478 C1464 0.961 . S
H1479 C1465 0.958 . S
H1480 C1465 0.961 . S
H1481 C1465 0.960 . S
C1482 C1483 1.391 . S
C1482 C1484 1.394 . S
C1482 H1498 0.931 . S
C1483 C1482 1.391 . S
C1483 C1487 1.376 . S
C1484 C1482 1.394 . S
C1484 C1485 1.369 . S
C1484 C1488 1.531 1_455 S
C1485 C1484 1.369 . S
C1485 C1486 1.410 . S
C1485 C1493 1.503 1_455 S
C1486 C1485 1.410 . S
C1486 C1487 1.392 . S
C1486 C1489 1.511 . S
C1487 C1483 1.376 . S
C1487 C1486 1.392 . S
C1487 H1499 0.929 . S
C1488 C1484 1.531 1_655 S
C1488 H1500 0.960 . S
C1488 H1501 0.962 . S
C1488 H1502 0.960 . S
C1489 C1486 1.511 . S
C1489 H1503 0.961 . S
C1489 H1504 0.961 . S
C1489 H1505 0.961 . S
C1490 C1491 1.370 . S
C1490 C1492 1.363 . S
C1490 H1506 0.931 . S
C1491 C1490 1.370 . S
C1491 C1495 1.408 . S
C1492 C1490 1.363 . S
C1492 C1493 1.370 . S
C1492 C1496 1.524 . S
C1493 C1485 1.503 1_655 S
C1493 C1492 1.370 . S
C1493 C1494 1.403 . S
C1494 C1493 1.403 . S
C1494 C1495 1.404 . S
C1494 C1497 1.539 . S
C1495 C1491 1.408 . S
C1495 C1494 1.404 . S
C1495 H1507 0.930 . S
C1496 C1492 1.524 . S
C1496 H1508 0.956 . S
C1496 H1509 0.961 1_655 S
C1496 H1510 0.961 . S
C1497 C1494 1.539 . S
C1497 H1511 0.958 . S
C1497 H1512 0.961 . S
C1497 H1513 0.960 1_655 S
H1498 C1482 0.931 . S
H1499 C1487 0.929 . S
H1500 C1488 0.960 . S
H1501 C1488 0.962 . S
H1502 C1488 0.960 . S
H1503 C1489 0.961 . S
H1504 C1489 0.961 . S
H1505 C1489 0.961 . S
H1506 C1490 0.931 . S
H1507 C1495 0.930 . S
H1508 C1496 0.956 . S
H1509 C1496 0.961 1_455 S
H1510 C1496 0.961 . S
H1511 C1497 0.958 . S
H1512 C1497 0.961 . S
H1513 C1497 0.960 1_455 S
C1514 C1515 1.391 . S
C1514 C1516 1.394 . S
C1514 H1530 0.931 . S
C1515 C1514 1.391 . S
C1515 C1519 1.376 . S
C1516 C1514 1.394 . S
C1516 C1517 1.369 . S
C1516 C1520 1.531 . S
C1517 C1516 1.369 . S
C1517 C1518 1.410 . S
C1517 C1525 1.503 . S
C1518 C1517 1.410 . S
C1518 C1519 1.392 . S
C1518 C1521 1.511 . S
C1519 C1515 1.376 . S
C1519 C1518 1.392 . S
C1519 H1531 0.929 . S
C1520 C1516 1.531 . S
C1520 H1532 0.960 . S
C1520 H1533 0.962 . S
C1520 H1534 0.960 . S
C1521 C1518 1.511 . S
C1521 H1535 0.961 . S
C1521 H1536 0.961 . S
C1521 H1537 0.961 . S
C1522 C1523 1.370 . S
C1522 C1524 1.363 . S
C1522 H1538 0.931 . S
C1523 C1522 1.370 . S
C1523 C1527 1.408 . S
C1524 C1522 1.363 . S
C1524 C1525 1.370 . S
C1524 C1528 1.524 . S
C1525 C1517 1.503 . S
C1525 C1524 1.370 . S
C1525 C1526 1.403 . S
C1526 C1525 1.403 . S
C1526 C1527 1.404 . S
C1526 C1529 1.539 . S
C1527 C1523 1.408 . S
C1527 C1526 1.404 . S
C1527 H1539 0.930 . S
C1528 C1524 1.524 . S
C1528 H1540 0.956 . S
C1528 H1541 0.961 . S
C1528 H1542 0.961 . S
C1529 C1526 1.539 . S
C1529 H1543 0.958 . S
C1529 H1544 0.961 . S
C1529 H1545 0.960 . S
H1530 C1514 0.931 . S
H1531 C1519 0.929 . S
H1532 C1520 0.960 . S
H1533 C1520 0.962 . S
H1534 C1520 0.960 . S
H1535 C1521 0.961 . S
H1536 C1521 0.961 . S
H1537 C1521 0.961 . S
H1538 C1522 0.931 . S
H1539 C1527 0.930 . S
H1540 C1528 0.956 . S
H1541 C1528 0.961 . S
H1542 C1528 0.961 . S
H1543 C1529 0.958 . S
H1544 C1529 0.961 . S
H1545 C1529 0.960 . S
C1546 C1547 1.391 . S
C1546 C1548 1.394 . S
C1546 H1562 0.931 . S
C1547 C1546 1.391 . S
C1547 C1551 1.376 . S
C1548 C1546 1.394 . S
C1548 C1549 1.369 . S
C1548 C1552 1.531 . S
C1549 C1548 1.369 . S
C1549 C1550 1.410 . S
C1549 C1557 1.503 1_565 S
C1550 C1549 1.410 . S
C1550 C1551 1.392 . S
C1550 C1553 1.511 . S
C1551 C1547 1.376 . S
C1551 C1550 1.392 . S
C1551 H1563 0.929 . S
C1552 C1548 1.531 . S
C1552 H1564 0.960 . S
C1552 H1565 0.962 . S
C1552 H1566 0.960 . S
C1553 C1550 1.511 . S
C1553 H1567 0.961 . S
C1553 H1568 0.961 . S
C1553 H1569 0.961 . S
C1554 C1555 1.370 . S
C1554 C1556 1.363 . S
C1554 H1570 0.931 . S
C1555 C1554 1.370 . S
C1555 C1559 1.408 . S
C1556 C1554 1.363 . S
C1556 C1557 1.370 . S
C1556 C1560 1.524 . S
C1557 C1549 1.503 1_545 S
C1557 C1556 1.370 . S
C1557 C1558 1.403 . S
C1558 C1557 1.403 . S
C1558 C1559 1.404 . S
C1558 C1561 1.539 1_545 S
C1559 C1555 1.408 . S
C1559 C1558 1.404 . S
C1559 H1571 0.930 . S
C1560 C1556 1.524 . S
C1560 H1572 0.956 1_545 S
C1560 H1573 0.961 1_545 S
C1560 H1574 0.961 . S
C1561 C1558 1.539 1_565 S
C1561 H1575 0.958 . S
C1561 H1576 0.961 1_565 S
C1561 H1577 0.960 . S
H1562 C1546 0.931 . S
H1563 C1551 0.929 . S
H1564 C1552 0.960 . S
H1565 C1552 0.962 . S
H1566 C1552 0.960 . S
H1567 C1553 0.961 . S
H1568 C1553 0.961 . S
H1569 C1553 0.961 . S
H1570 C1554 0.931 . S
H1571 C1559 0.930 . S
H1572 C1560 0.956 1_565 S
H1573 C1560 0.961 1_565 S
H1574 C1560 0.961 . S
H1575 C1561 0.958 . S
H1576 C1561 0.961 1_545 S
H1577 C1561 0.960 . S
C1578 C1579 1.391 . S
C1578 C1580 1.394 . S
C1578 H1594 0.931 . S
C1579 C1578 1.391 . S
C1579 C1583 1.376 . S
C1580 C1578 1.394 . S
C1580 C1581 1.369 . S
C1580 C1584 1.531 . S
C1581 C1580 1.369 . S
C1581 C1582 1.410 . S
C1581 C1589 1.503 . S
C1582 C1581 1.410 . S
C1582 C1583 1.392 . S
C1582 C1585 1.511 . S
C1583 C1579 1.376 . S
C1583 C1582 1.392 . S
C1583 H1595 0.929 . S
C1584 C1580 1.531 . S
C1584 H1596 0.960 . S
C1584 H1597 0.962 . S
C1584 H1598 0.960 . S
C1585 C1582 1.511 . S
C1585 H1599 0.961 . S
C1585 H1600 0.961 . S
C1585 H1601 0.961 . S
C1586 C1587 1.370 . S
C1586 C1588 1.363 . S
C1586 H1602 0.931 . S
C1587 C1586 1.370 . S
C1587 C1591 1.408 . S
C1588 C1586 1.363 . S
C1588 C1589 1.370 . S
C1588 C1592 1.524 . S
C1589 C1581 1.503 . S
C1589 C1588 1.370 . S
C1589 C1590 1.403 . S
C1590 C1589 1.403 . S
C1590 C1591 1.404 . S
C1590 C1593 1.539 . S
C1591 C1587 1.408 . S
C1591 C1590 1.404 . S
C1591 H1603 0.930 . S
C1592 C1588 1.524 . S
C1592 H1604 0.956 . S
C1592 H1605 0.961 . S
C1592 H1606 0.961 . S
C1593 C1590 1.539 . S
C1593 H1607 0.958 . S
C1593 H1608 0.961 . S
C1593 H1609 0.960 . S
H1594 C1578 0.931 . S
H1595 C1583 0.929 . S
H1596 C1584 0.960 . S
H1597 C1584 0.962 . S
H1598 C1584 0.960 . S
H1599 C1585 0.961 . S
H1600 C1585 0.961 . S
H1601 C1585 0.961 . S
H1602 C1586 0.931 . S
H1603 C1591 0.930 . S
H1604 C1592 0.956 . S
H1605 C1592 0.961 . S
H1606 C1592 0.961 . S
H1607 C1593 0.958 . S
H1608 C1593 0.961 . S
H1609 C1593 0.960 . S
C1610 C1611 1.391 . S
C1610 C1612 1.394 . S
C1610 H1626 0.931 . S
C1611 C1610 1.391 . S
C1611 C1615 1.376 . S
C1612 C1610 1.394 . S
C1612 C1613 1.369 . S
C1612 C1616 1.531 . S
C1613 C1612 1.369 . S
C1613 C1614 1.410 . S
C1613 C1621 1.503 . S
C1614 C1613 1.410 . S
C1614 C1615 1.392 . S
C1614 C1617 1.511 . S
C1615 C1611 1.376 . S
C1615 C1614 1.392 . S
C1615 H1627 0.929 . S
C1616 C1612 1.531 . S
C1616 H1628 0.960 . S
C1616 H1629 0.962 . S
C1616 H1630 0.960 . S
C1617 C1614 1.511 . S
C1617 H1631 0.961 . S
C1617 H1632 0.961 . S
C1617 H1633 0.961 . S
C1618 C1619 1.370 . S
C1618 C1620 1.363 . S
C1618 H1634 0.931 . S
C1619 C1618 1.370 . S
C1619 C1623 1.408 . S
C1620 C1618 1.363 . S
C1620 C1621 1.370 . S
C1620 C1624 1.524 . S
C1621 C1613 1.503 . S
C1621 C1620 1.370 . S
C1621 C1622 1.403 . S
C1622 C1621 1.403 . S
C1622 C1623 1.404 . S
C1622 C1625 1.539 . S
C1623 C1619 1.408 . S
C1623 C1622 1.404 . S
C1623 H1635 0.930 . S
C1624 C1620 1.524 . S
C1624 H1636 0.956 . S
C1624 H1637 0.961 . S
C1624 H1638 0.961 . S
C1625 C1622 1.539 . S
C1625 H1639 0.958 . S
C1625 H1640 0.961 . S
C1625 H1641 0.960 . S
H1626 C1610 0.931 . S
H1627 C1615 0.929 . S
H1628 C1616 0.960 . S
H1629 C1616 0.962 . S
H1630 C1616 0.960 . S
H1631 C1617 0.961 . S
H1632 C1617 0.961 . S
H1633 C1617 0.961 . S
H1634 C1618 0.931 . S
H1635 C1623 0.930 . S
H1636 C1624 0.956 . S
H1637 C1624 0.961 . S
H1638 C1624 0.961 . S
H1639 C1625 0.958 . S
H1640 C1625 0.961 . S
H1641 C1625 0.960 . S
C1642 C1643 1.391 . S
C1642 C1644 1.394 . S
C1642 H1658 0.931 . S
C1643 C1642 1.391 . S
C1643 C1647 1.376 . S
C1644 C1642 1.394 . S
C1644 C1645 1.369 . S
C1644 C1648 1.531 . S
C1645 C1644 1.369 . S
C1645 C1646 1.410 . S
C1645 C1653 1.503 . S
C1646 C1645 1.410 . S
C1646 C1647 1.392 . S
C1646 C1649 1.511 . S
C1647 C1643 1.376 . S
C1647 C1646 1.392 . S
C1647 H1659 0.929 . S
C1648 C1644 1.531 . S
C1648 H1660 0.960 . S
C1648 H1661 0.962 . S
C1648 H1662 0.960 . S
C1649 C1646 1.511 . S
C1649 H1663 0.961 . S
C1649 H1664 0.961 . S
C1649 H1665 0.961 . S
C1650 C1651 1.370 . S
C1650 C1652 1.363 . S
C1650 H1666 0.931 . S
C1651 C1650 1.370 . S
C1651 C1655 1.408 . S
C1652 C1650 1.363 . S
C1652 C1653 1.370 . S
C1652 C1656 1.524 . S
C1653 C1645 1.503 . S
C1653 C1652 1.370 . S
C1653 C1654 1.403 . S
C1654 C1653 1.403 . S
C1654 C1655 1.404 . S
C1654 C1657 1.539 . S
C1655 C1651 1.408 . S
C1655 C1654 1.404 . S
C1655 H1667 0.930 . S
C1656 C1652 1.524 . S
C1656 H1668 0.956 . S
C1656 H1669 0.961 . S
C1656 H1670 0.961 . S
C1657 C1654 1.539 . S
C1657 H1671 0.958 . S
C1657 H1672 0.961 . S
C1657 H1673 0.960 . S
H1658 C1642 0.931 . S
H1659 C1647 0.929 . S
H1660 C1648 0.960 . S
H1661 C1648 0.962 . S
H1662 C1648 0.960 . S
H1663 C1649 0.961 . S
H1664 C1649 0.961 . S
H1665 C1649 0.961 . S
H1666 C1650 0.931 . S
H1667 C1655 0.930 . S
H1668 C1656 0.956 . S
H1669 C1656 0.961 . S
H1670 C1656 0.961 . S
H1671 C1657 0.958 . S
H1672 C1657 0.961 . S
H1673 C1657 0.960 . S
C1674 C1675 1.391 . S
C1674 C1676 1.394 . S
C1674 H1690 0.931 . S
C1675 C1674 1.391 . S
C1675 C1679 1.376 . S
C1676 C1674 1.394 . S
C1676 C1677 1.369 . S
C1676 C1680 1.531 . S
C1677 C1676 1.369 . S
C1677 C1678 1.410 . S
C1677 C1685 1.503 . S
C1678 C1677 1.410 . S
C1678 C1679 1.392 . S
C1678 C1681 1.511 . S
C1679 C1675 1.376 . S
C1679 C1678 1.392 . S
C1679 H1691 0.929 . S
C1680 C1676 1.531 . S
C1680 H1692 0.960 . S
C1680 H1693 0.962 . S
C1680 H1694 0.960 . S
C1681 C1678 1.511 . S
C1681 H1695 0.961 . S
C1681 H1696 0.961 . S
C1681 H1697 0.961 . S
C1682 C1683 1.370 1_545 S
C1682 C1684 1.363 . S
C1682 H1698 0.931 . S
C1683 C1682 1.370 1_565 S
C1683 C1687 1.408 . S
C1684 C1682 1.363 . S
C1684 C1685 1.370 1_545 S
C1684 C1688 1.524 . S
C1685 C1677 1.503 . S
C1685 C1684 1.370 1_565 S
C1685 C1686 1.403 . S
C1686 C1685 1.403 . S
C1686 C1687 1.404 . S
C1686 C1689 1.539 . S
C1687 C1683 1.408 . S
C1687 C1686 1.404 . S
C1687 H1699 0.930 . S
C1688 C1684 1.524 . S
C1688 H1700 0.956 . S
C1688 H1701 0.961 . S
C1688 H1702 0.961 . S
C1689 C1686 1.539 . S
C1689 H1703 0.958 . S
C1689 H1704 0.961 . S
C1689 H1705 0.960 . S
H1690 C1674 0.931 . S
H1691 C1679 0.929 . S
H1692 C1680 0.960 . S
H1693 C1680 0.962 . S
H1694 C1680 0.960 . S
H1695 C1681 0.961 . S
H1696 C1681 0.961 . S
H1697 C1681 0.961 . S
H1698 C1682 0.931 . S
H1699 C1687 0.930 . S
H1700 C1688 0.956 . S
H1701 C1688 0.961 . S
H1702 C1688 0.961 . S
H1703 C1689 0.958 . S
H1704 C1689 0.961 . S
H1705 C1689 0.960 . S
C1706 C1707 1.391 . S
C1706 C1708 1.394 . S
C1706 H1722 0.931 . S
C1707 C1706 1.391 . S
C1707 C1711 1.376 . S
C1708 C1706 1.394 . S
C1708 C1709 1.369 . S
C1708 C1712 1.531 . S
C1709 C1708 1.369 . S
C1709 C1710 1.410 . S
C1709 C1717 1.503 . S
C1710 C1709 1.410 . S
C1710 C1711 1.392 . S
C1710 C1713 1.511 . S
C1711 C1707 1.376 . S
C1711 C1710 1.392 . S
C1711 H1723 0.929 . S
C1712 C1708 1.531 . S
C1712 H1724 0.960 . S
C1712 H1725 0.962 . S
C1712 H1726 0.960 . S
C1713 C1710 1.511 . S
C1713 H1727 0.961 . S
C1713 H1728 0.961 . S
C1713 H1729 0.961 1_455 S
C1714 C1715 1.370 . S
C1714 C1716 1.363 . S
C1714 H1730 0.931 . S
C1715 C1714 1.370 . S
C1715 C1719 1.408 1_455 S
C1716 C1714 1.363 . S
C1716 C1717 1.370 . S
C1716 C1720 1.524 . S
C1717 C1709 1.503 . S
C1717 C1716 1.370 . S
C1717 C1718 1.403 1_455 S
C1718 C1717 1.403 1_655 S
C1718 C1719 1.404 . S
C1718 C1721 1.539 . S
C1719 C1715 1.408 1_655 S
C1719 C1718 1.404 . S
C1719 H1731 0.930 . S
C1720 C1716 1.524 . S
C1720 H1732 0.956 . S
C1720 H1733 0.961 . S
C1720 H1734 0.961 . S
C1721 C1718 1.539 . S
C1721 H1735 0.958 . S
C1721 H1736 0.961 . S
C1721 H1737 0.960 . S
H1722 C1706 0.931 . S
H1723 C1711 0.929 . S
H1724 C1712 0.960 . S
H1725 C1712 0.962 . S
H1726 C1712 0.960 . S
H1727 C1713 0.961 . S
H1728 C1713 0.961 . S
H1729 C1713 0.961 1_655 S
H1730 C1714 0.931 . S
H1731 C1719 0.930 . S
H1732 C1720 0.956 . S
H1733 C1720 0.961 . S
H1734 C1720 0.961 . S
H1735 C1721 0.958 . S
H1736 C1721 0.961 . S
H1737 C1721 0.960 . S
C1738 C1739 1.391 . S
C1738 C1740 1.394 . S
C1738 H1754 0.931 . S
C1739 C1738 1.391 . S
C1739 C1743 1.376 . S
C1740 C1738 1.394 . S
C1740 C1741 1.369 . S
C1740 C1744 1.531 . S
C1741 C1740 1.369 . S
C1741 C1742 1.410 . S
C1741 C1749 1.503 . S
C1742 C1741 1.410 . S
C1742 C1743 1.392 . S
C1742 C1745 1.511 . S
C1743 C1739 1.376 . S
C1743 C1742 1.392 . S
C1743 H1755 0.929 . S
C1744 C1740 1.531 . S
C1744 H1756 0.960 . S
C1744 H1757 0.962 . S
C1744 H1758 0.960 . S
C1745 C1742 1.511 . S
C1745 H1759 0.961 . S
C1745 H1760 0.961 . S
C1745 H1761 0.961 . S
C1746 C1747 1.370 . S
C1746 C1748 1.363 . S
C1746 H1762 0.931 . S
C1747 C1746 1.370 . S
C1747 C1751 1.408 . S
C1748 C1746 1.363 . S
C1748 C1749 1.370 . S
C1748 C1752 1.524 . S
C1749 C1741 1.503 . S
C1749 C1748 1.370 . S
C1749 C1750 1.403 . S
C1750 C1749 1.403 . S
C1750 C1751 1.404 . S
C1750 C1753 1.539 . S
C1751 C1747 1.408 . S
C1751 C1750 1.404 . S
C1751 H1763 0.930 . S
C1752 C1748 1.524 . S
C1752 H1764 0.956 . S
C1752 H1765 0.961 . S
C1752 H1766 0.961 . S
C1753 C1750 1.539 . S
C1753 H1767 0.958 . S
C1753 H1768 0.961 . S
C1753 H1769 0.960 . S
H1754 C1738 0.931 . S
H1755 C1743 0.929 . S
H1756 C1744 0.960 . S
H1757 C1744 0.962 . S
H1758 C1744 0.960 . S
H1759 C1745 0.961 . S
H1760 C1745 0.961 . S
H1761 C1745 0.961 . S
H1762 C1746 0.931 . S
H1763 C1751 0.930 . S
H1764 C1752 0.956 . S
H1765 C1752 0.961 . S
H1766 C1752 0.961 . S
H1767 C1753 0.958 . S
H1768 C1753 0.961 . S
H1769 C1753 0.960 . S
C1770 C1771 1.391 . S
C1770 C1772 1.394 . S
C1770 H1786 0.931 . S
C1771 C1770 1.391 . S
C1771 C1775 1.376 1_655 S
C1772 C1770 1.394 . S
C1772 C1773 1.369 . S
C1772 C1776 1.531 . S
C1773 C1772 1.369 . S
C1773 C1774 1.410 1_655 S
C1773 C1781 1.503 . S
C1774 C1773 1.410 1_455 S
C1774 C1775 1.392 . S
C1774 C1777 1.511 . S
C1775 C1771 1.376 1_455 S
C1775 C1774 1.392 . S
C1775 H1787 0.929 . S
C1776 C1772 1.531 . S
C1776 H1788 0.960 . S
C1776 H1789 0.962 . S
C1776 H1790 0.960 . S
C1777 C1774 1.511 . S
C1777 H1791 0.961 . S
C1777 H1792 0.961 . S
C1777 H1793 0.961 . S
C1778 C1779 1.370 . S
C1778 C1780 1.363 . S
C1778 H1794 0.931 . S
C1779 C1778 1.370 . S
C1779 C1783 1.408 . S
C1780 C1778 1.363 . S
C1780 C1781 1.370 . S
C1780 C1784 1.524 . S
C1781 C1773 1.503 . S
C1781 C1780 1.370 . S
C1781 C1782 1.403 . S
C1782 C1781 1.403 . S
C1782 C1783 1.404 . S
C1782 C1785 1.539 . S
C1783 C1779 1.408 . S
C1783 C1782 1.404 . S
C1783 H1795 0.930 . S
C1784 C1780 1.524 . S
C1784 H1796 0.956 . S
C1784 H1797 0.961 . S
C1784 H1798 0.961 . S
C1785 C1782 1.539 . S
C1785 H1799 0.958 . S
C1785 H1800 0.965 . S
C1785 H1801 0.960 . S
H1786 C1770 0.931 . S
H1787 C1775 0.929 . S
H1788 C1776 0.960 . S
H1789 C1776 0.962 . S
H1790 C1776 0.960 . S
H1791 C1777 0.961 . S
H1792 C1777 0.961 . S
H1793 C1777 0.961 . S
H1794 C1778 0.931 . S
H1795 C1783 0.930 . S
H1796 C1784 0.956 . S
H1797 C1784 0.961 . S
H1798 C1784 0.961 . S
H1799 C1785 0.958 . S
H1800 C1785 0.965 . S
H1801 C1785 0.960 . S
C1802 C1803 1.391 . S
C1802 C1804 1.394 . S
C1802 H1818 0.931 . S
C1803 C1802 1.391 . S
C1803 C1807 1.376 . S
C1804 C1802 1.394 . S
C1804 C1805 1.369 . S
C1804 C1808 1.531 . S
C1805 C1804 1.369 . S
C1805 C1806 1.410 . S
C1805 C1813 1.503 . S
C1806 C1805 1.410 . S
C1806 C1807 1.392 . S
C1806 C1809 1.511 . S
C1807 C1803 1.376 . S
C1807 C1806 1.392 . S
C1807 H1819 0.929 . S
C1808 C1804 1.531 . S
C1808 H1820 0.960 . S
C1808 H1821 0.962 . S
C1808 H1822 0.960 . S
C1809 C1806 1.511 . S
C1809 H1823 0.961 . S
C1809 H1824 0.961 . S
C1809 H1825 0.961 . S
C1810 C1811 1.370 . S
C1810 C1812 1.363 . S
C1810 H1826 0.931 . S
C1811 C1810 1.370 . S
C1811 C1815 1.408 . S
C1812 C1810 1.363 . S
C1812 C1813 1.370 . S
C1812 C1816 1.524 . S
C1813 C1805 1.503 . S
C1813 C1812 1.370 . S
C1813 C1814 1.403 . S
C1814 C1813 1.403 . S
C1814 C1815 1.404 . S
C1814 C1817 1.539 . S
C1815 C1811 1.408 . S
C1815 C1814 1.404 . S
C1815 H1827 0.930 . S
C1816 C1812 1.524 . S
C1816 H1828 0.956 . S
C1816 H1829 0.961 . S
C1816 H1830 0.961 . S
C1817 C1814 1.539 . S
C1817 H1831 0.958 . S
C1817 H1832 0.961 . S
C1817 H1833 0.960 . S
H1818 C1802 0.931 . S
H1819 C1807 0.929 . S
H1820 C1808 0.960 . S
H1821 C1808 0.962 . S
H1822 C1808 0.960 . S
H1823 C1809 0.961 . S
H1824 C1809 0.961 . S
H1825 C1809 0.961 . S
H1826 C1810 0.931 . S
H1827 C1815 0.930 . S
H1828 C1816 0.956 . S
H1829 C1816 0.961 . S
H1830 C1816 0.961 . S
H1831 C1817 0.958 . S
H1832 C1817 0.961 . S
H1833 C1817 0.960 . S
C1834 C1835 1.391 . S
C1834 C1836 1.394 . S
C1834 H1850 0.931 . S
C1835 C1834 1.391 . S
C1835 C1839 1.376 . S
C1836 C1834 1.394 . S
C1836 C1837 1.369 . S
C1836 C1840 1.531 . S
C1837 C1836 1.369 . S
C1837 C1838 1.410 . S
C1837 C1845 1.503 . S
C1838 C1837 1.410 . S
C1838 C1839 1.392 . S
C1838 C1841 1.511 . S
C1839 C1835 1.376 . S
C1839 C1838 1.392 . S
C1839 H1851 0.929 . S
C1840 C1836 1.531 . S
C1840 H1852 0.960 . S
C1840 H1853 0.962 . S
C1840 H1854 0.960 . S
C1841 C1838 1.511 . S
C1841 H1855 0.961 1_545 S
C1841 H1856 0.945 1_545 S
C1841 H1857 0.961 . S
C1842 C1843 1.370 1_565 S
C1842 C1844 1.363 1_565 S
C1842 H1858 0.931 . S
C1843 C1842 1.370 1_545 S
C1843 C1847 1.408 . S
C1844 C1842 1.363 1_545 S
C1844 C1845 1.370 . S
C1844 C1848 1.524 1_545 S
C1845 C1837 1.503 . S
C1845 C1844 1.370 . S
C1845 C1846 1.403 . S
C1846 C1845 1.403 . S
C1846 C1847 1.404 . S
C1846 C1849 1.539 . S
C1847 C1843 1.408 . S
C1847 C1846 1.404 . S
C1847 H1859 0.930 . S
C1848 C1844 1.524 1_565 S
C1848 H1860 0.956 . S
C1848 H1861 0.961 . S
C1848 H1862 0.961 . S
C1849 C1846 1.539 . S
C1849 H1863 0.958 . S
C1849 H1864 0.961 . S
C1849 H1865 0.960 . S
H1850 C1834 0.931 . S
H1851 C1839 0.929 . S
H1852 C1840 0.960 . S
H1853 C1840 0.962 . S
H1854 C1840 0.960 . S
H1855 C1841 0.961 1_565 S
H1856 C1841 0.945 1_565 S
H1857 C1841 0.961 . S
H1858 C1842 0.931 . S
H1859 C1847 0.930 . S
H1860 C1848 0.956 . S
H1861 C1848 0.961 . S
H1862 C1848 0.961 . S
H1863 C1849 0.958 . S
H1864 C1849 0.961 . S
H1865 C1849 0.960 . S
C1866 C1867 1.391 . S
C1866 C1868 1.394 . S
C1866 H1882 0.931 . S
C1867 C1866 1.391 . S
C1867 C1871 1.376 . S
C1868 C1866 1.394 . S
C1868 C1869 1.369 . S
C1868 C1872 1.531 . S
C1869 C1868 1.369 . S
C1869 C1870 1.410 . S
C1869 C1877 1.503 . S
C1870 C1869 1.410 . S
C1870 C1871 1.392 . S
C1870 C1873 1.511 . S
C1871 C1867 1.376 . S
C1871 C1870 1.392 . S
C1871 H1883 0.929 . S
C1872 C1868 1.531 . S
C1872 H1884 0.960 . S
C1872 H1885 0.962 . S
C1872 H1886 0.960 . S
C1873 C1870 1.511 . S
C1873 H1887 0.961 . S
C1873 H1888 0.961 . S
C1873 H1889 0.961 . S
C1874 C1875 1.370 . S
C1874 C1876 1.363 . S
C1874 H1890 0.931 . S
C1875 C1874 1.370 . S
C1875 C1879 1.408 . S
C1876 C1874 1.363 . S
C1876 C1877 1.370 . S
C1876 C1880 1.524 . S
C1877 C1869 1.503 . S
C1877 C1876 1.370 . S
C1877 C1878 1.403 . S
C1878 C1877 1.403 . S
C1878 C1879 1.404 . S
C1878 C1881 1.539 . S
C1879 C1875 1.408 . S
C1879 C1878 1.404 . S
C1879 H1891 0.930 . S
C1880 C1876 1.524 . S
C1880 H1892 0.956 . S
C1880 H1893 0.961 . S
C1880 H1894 0.961 . S
C1881 C1878 1.539 . S
C1881 H1895 0.958 . S
C1881 H1896 0.961 . S
C1881 H1897 0.960 . S
H1882 C1866 0.931 . S
H1883 C1871 0.929 . S
H1884 C1872 0.960 . S
H1885 C1872 0.962 . S
H1886 C1872 0.960 . S
H1887 C1873 0.961 . S
H1888 C1873 0.961 . S
H1889 C1873 0.961 . S
H1890 C1874 0.931 . S
H1891 C1879 0.930 . S
H1892 C1880 0.956 . S
H1893 C1880 0.961 . S
H1894 C1880 0.961 . S
H1895 C1881 0.958 . S
H1896 C1881 0.961 . S
H1897 C1881 0.960 . S
C1898 C1899 1.391 . S
C1898 C1900 1.394 . S
C1898 H1914 0.931 . S
C1899 C1898 1.391 . S
C1899 C1903 1.376 . S
C1900 C1898 1.394 . S
C1900 C1901 1.369 . S
C1900 C1904 1.531 . S
C1901 C1900 1.369 . S
C1901 C1902 1.410 . S
C1901 C1909 1.503 . S
C1902 C1901 1.410 . S
C1902 C1903 1.392 . S
C1902 C1905 1.511 . S
C1903 C1899 1.376 . S
C1903 C1902 1.392 . S
C1903 H1915 0.929 . S
C1904 C1900 1.531 . S
C1904 H1916 0.960 . S
C1904 H1917 0.962 . S
C1904 H1918 0.960 . S
C1905 C1902 1.511 . S
C1905 H1919 0.961 . S
C1905 H1920 0.961 . S
C1905 H1921 0.961 . S
C1906 C1907 1.370 . S
C1906 C1908 1.363 . S
C1906 H1922 0.931 . S
C1907 C1906 1.370 . S
C1907 C1911 1.408 . S
C1908 C1906 1.363 . S
C1908 C1909 1.370 . S
C1908 C1912 1.524 . S
C1909 C1901 1.503 . S
C1909 C1908 1.370 . S
C1909 C1910 1.403 . S
C1910 C1909 1.403 . S
C1910 C1911 1.404 . S
C1910 C1913 1.539 . S
C1911 C1907 1.408 . S
C1911 C1910 1.404 . S
C1911 H1923 0.930 . S
C1912 C1908 1.524 . S
C1912 H1924 0.956 . S
C1912 H1925 0.961 . S
C1912 H1926 0.961 . S
C1913 C1910 1.539 . S
C1913 H1927 0.958 . S
C1913 H1928 0.961 . S
C1913 H1929 0.960 . S
H1914 C1898 0.931 . S
H1915 C1903 0.929 . S
H1916 C1904 0.960 . S
H1917 C1904 0.962 . S
H1918 C1904 0.960 . S
H1919 C1905 0.961 . S
H1920 C1905 0.961 . S
H1921 C1905 0.961 . S
H1922 C1906 0.931 . S
H1923 C1911 0.930 . S
H1924 C1912 0.956 . S
H1925 C1912 0.961 . S
H1926 C1912 0.961 . S
H1927 C1913 0.958 . S
H1928 C1913 0.961 . S
H1929 C1913 0.960 . S
C1930 C1931 1.391 . S
C1930 C1932 1.394 . S
C1930 H1946 0.931 . S
C1931 C1930 1.391 . S
C1931 C1935 1.376 . S
C1932 C1930 1.394 . S
C1932 C1933 1.369 . S
C1932 C1936 1.531 . S
C1933 C1932 1.369 . S
C1933 C1934 1.410 . S
C1933 C1941 1.503 . S
C1934 C1933 1.410 . S
C1934 C1935 1.392 . S
C1934 C1937 1.511 . S
C1935 C1931 1.376 . S
C1935 C1934 1.392 . S
C1935 H1947 0.929 . S
C1936 C1932 1.531 . S
C1936 H1948 0.960 . S
C1936 H1949 0.962 . S
C1936 H1950 0.960 . S
C1937 C1934 1.511 . S
C1937 H1951 0.961 . S
C1937 H1952 0.961 . S
C1937 H1953 0.961 . S
C1938 C1939 1.370 . S
C1938 C1940 1.363 . S
C1938 H1954 0.931 . S
C1939 C1938 1.370 . S
C1939 C1943 1.408 . S
C1940 C1938 1.363 . S
C1940 C1941 1.370 . S
C1940 C1944 1.524 . S
C1941 C1933 1.503 . S
C1941 C1940 1.370 . S
C1941 C1942 1.403 . S
C1942 C1941 1.403 . S
C1942 C1943 1.404 . S
C1942 C1945 1.539 . S
C1943 C1939 1.408 . S
C1943 C1942 1.404 . S
C1943 H1955 0.930 . S
C1944 C1940 1.524 . S
C1944 H1956 0.956 . S
C1944 H1957 0.961 . S
C1944 H1958 0.961 . S
C1945 C1942 1.539 . S
C1945 H1959 0.958 . S
C1945 H1960 0.961 . S
C1945 H1961 0.960 . S
H1946 C1930 0.931 . S
H1947 C1935 0.929 . S
H1948 C1936 0.960 . S
H1949 C1936 0.962 . S
H1950 C1936 0.960 . S
H1951 C1937 0.961 . S
H1952 C1937 0.961 . S
H1953 C1937 0.961 . S
H1954 C1938 0.931 . S
H1955 C1943 0.930 . S
H1956 C1944 0.956 . S
H1957 C1944 0.961 . S
H1958 C1944 0.961 . S
H1959 C1945 0.958 . S
H1960 C1945 0.961 . S
H1961 C1945 0.960 . S
C1962 C1963 1.391 . S
C1962 C1964 1.394 . S
C1962 H1978 0.931 . S
C1963 C1962 1.391 . S
C1963 C1967 1.376 . S
C1964 C1962 1.394 . S
C1964 C1965 1.369 . S
C1964 C1968 1.531 . S
C1965 C1964 1.369 . S
C1965 C1966 1.410 . S
C1965 C1973 1.503 . S
C1966 C1965 1.410 . S
C1966 C1967 1.392 . S
C1966 C1969 1.511 . S
C1967 C1963 1.376 . S
C1967 C1966 1.392 . S
C1967 H1979 0.929 . S
C1968 C1964 1.531 . S
C1968 H1980 0.960 . S
C1968 H1981 0.962 . S
C1968 H1982 0.960 . S
C1969 C1966 1.511 . S
C1969 H1983 0.961 . S
C1969 H1984 0.961 . S
C1969 H1985 0.961 . S
C1970 C1971 1.370 . S
C1970 C1972 1.363 . S
C1970 H1986 0.931 . S
C1971 C1970 1.370 . S
C1971 C1975 1.408 . S
C1972 C1970 1.363 . S
C1972 C1973 1.370 . S
C1972 C1976 1.524 . S
C1973 C1965 1.503 . S
C1973 C1972 1.370 . S
C1973 C1974 1.403 . S
C1974 C1973 1.403 . S
C1974 C1975 1.404 . S
C1974 C1977 1.539 . S
C1975 C1971 1.408 . S
C1975 C1974 1.404 . S
C1975 H1987 0.930 . S
C1976 C1972 1.524 . S
C1976 H1988 0.956 . S
C1976 H1989 0.961 . S
C1976 H1990 0.961 . S
C1977 C1974 1.539 . S
C1977 H1991 0.958 . S
C1977 H1992 0.961 . S
C1977 H1993 0.960 . S
H1978 C1962 0.931 . S
H1979 C1967 0.929 . S
H1980 C1968 0.960 . S
H1981 C1968 0.962 . S
H1982 C1968 0.960 . S
H1983 C1969 0.961 . S
H1984 C1969 0.961 . S
H1985 C1969 0.961 . S
H1986 C1970 0.931 . S
H1987 C1975 0.930 . S
H1988 C1976 0.956 . S
H1989 C1976 0.961 . S
H1990 C1976 0.961 . S
H1991 C1977 0.958 . S
H1992 C1977 0.961 . S
H1993 C1977 0.960 . S
C1994 C1995 1.391 . S
C1994 C1996 1.394 . S
C1994 H2010 0.931 . S
C1995 C1994 1.391 . S
C1995 C1999 1.376 . S
C1996 C1994 1.394 . S
C1996 C1997 1.369 . S
C1996 C2000 1.531 . S
C1997 C1996 1.369 . S
C1997 C1998 1.410 . S
C1997 C2005 1.503 . S
C1998 C1997 1.410 . S
C1998 C1999 1.392 . S
C1998 C2001 1.511 . S
C1999 C1995 1.376 . S
C1999 C1998 1.392 . S
C1999 H2011 0.929 . S
C2000 C1996 1.531 . S
C2000 H2012 0.960 . S
C2000 H2013 0.962 . S
C2000 H2014 0.960 . S
C2001 C1998 1.511 . S
C2001 H2015 0.961 . S
C2001 H2016 0.961 . S
C2001 H2017 0.961 . S
C2002 C2003 1.370 . S
C2002 C2004 1.363 . S
C2002 H2018 0.931 . S
C2003 C2002 1.370 . S
C2003 C2007 1.408 . S
C2004 C2002 1.363 . S
C2004 C2005 1.370 . S
C2004 C2008 1.524 . S
C2005 C1997 1.503 . S
C2005 C2004 1.370 . S
C2005 C2006 1.403 . S
C2006 C2005 1.403 . S
C2006 C2007 1.404 . S
C2006 C2009 1.539 . S
C2007 C2003 1.408 . S
C2007 C2006 1.404 . S
C2007 H2019 0.930 . S
C2008 C2004 1.524 . S
C2008 H2020 0.956 . S
C2008 H2021 0.961 . S
C2008 H2022 0.961 . S
C2009 C2006 1.539 . S
C2009 H2023 0.958 . S
C2009 H2024 0.961 . S
C2009 H2025 0.960 . S
H2010 C1994 0.931 . S
H2011 C1999 0.929 . S
H2012 C2000 0.960 . S
H2013 C2000 0.962 . S
H2014 C2000 0.960 . S
H2015 C2001 0.961 . S
H2016 C2001 0.961 . S
H2017 C2001 0.961 . S
H2018 C2002 0.931 . S
H2019 C2007 0.930 . S
H2020 C2008 0.956 . S
H2021 C2008 0.961 . S
H2022 C2008 0.961 . S
H2023 C2009 0.958 . S
H2024 C2009 0.961 . S
H2025 C2009 0.960 . S
C2026 C2027 1.391 . S
C2026 C2028 1.394 . S
C2026 H2042 0.931 . S
C2027 C2026 1.391 . S
C2027 C2031 1.376 . S
C2028 C2026 1.394 . S
C2028 C2029 1.369 . S
C2028 C2032 1.531 . S
C2029 C2028 1.369 . S
C2029 C2030 1.410 . S
C2029 C2037 1.503 . S
C2030 C2029 1.410 . S
C2030 C2031 1.392 . S
C2030 C2033 1.511 . S
C2031 C2027 1.376 . S
C2031 C2030 1.392 . S
C2031 H2043 0.929 . S
C2032 C2028 1.531 . S
C2032 H2044 0.960 . S
C2032 H2045 0.962 . S
C2032 H2046 0.960 . S
C2033 C2030 1.511 . S
C2033 H2047 0.961 . S
C2033 H2048 0.961 . S
C2033 H2049 0.961 . S
C2034 C2035 1.370 . S
C2034 C2036 1.363 . S
C2034 H2050 0.931 . S
C2035 C2034 1.370 . S
C2035 C2039 1.408 . S
C2036 C2034 1.363 . S
C2036 C2037 1.370 . S
C2036 C2040 1.524 . S
C2037 C2029 1.503 . S
C2037 C2036 1.370 . S
C2037 C2038 1.403 . S
C2038 C2037 1.403 . S
C2038 C2039 1.404 . S
C2038 C2041 1.539 . S
C2039 C2035 1.408 . S
C2039 C2038 1.404 . S
C2039 H2051 0.930 . S
C2040 C2036 1.524 . S
C2040 H2052 0.956 . S
C2040 H2053 0.961 . S
C2040 H2054 0.961 . S
C2041 C2038 1.539 . S
C2041 H2055 0.958 . S
C2041 H2056 0.961 . S
C2041 H2057 0.960 . S
H2042 C2026 0.931 . S
H2043 C2031 0.929 . S
H2044 C2032 0.960 . S
H2045 C2032 0.962 . S
H2046 C2032 0.960 . S
H2047 C2033 0.961 . S
H2048 C2033 0.961 . S
H2049 C2033 0.961 . S
H2050 C2034 0.931 . S
H2051 C2039 0.930 . S
H2052 C2040 0.956 . S
H2053 C2040 0.961 . S
H2054 C2040 0.961 . S
H2055 C2041 0.958 . S
H2056 C2041 0.961 . S
H2057 C2041 0.960 . S
C2058 C2059 1.391 . S
C2058 C2060 1.394 . S
C2058 H2074 0.931 . S
C2059 C2058 1.391 . S
C2059 C2063 1.376 . S
C2060 C2058 1.394 . S
C2060 C2061 1.369 . S
C2060 C2064 1.531 . S
C2061 C2060 1.369 . S
C2061 C2062 1.410 . S
C2061 C2069 1.503 . S
C2062 C2061 1.410 . S
C2062 C2063 1.392 . S
C2062 C2065 1.511 . S
C2063 C2059 1.376 . S
C2063 C2062 1.392 . S
C2063 H2075 0.929 . S
C2064 C2060 1.531 . S
C2064 H2076 0.960 . S
C2064 H2077 0.962 . S
C2064 H2078 0.960 . S
C2065 C2062 1.511 . S
C2065 H2079 0.961 . S
C2065 H2080 0.961 . S
C2065 H2081 0.961 . S
C2066 C2067 1.370 . S
C2066 C2068 1.363 . S
C2066 H2082 0.931 . S
C2067 C2066 1.370 . S
C2067 C2071 1.408 . S
C2068 C2066 1.363 . S
C2068 C2069 1.370 . S
C2068 C2072 1.524 . S
C2069 C2061 1.503 . S
C2069 C2068 1.370 . S
C2069 C2070 1.403 . S
C2070 C2069 1.403 . S
C2070 C2071 1.404 . S
C2070 C2073 1.539 . S
C2071 C2067 1.408 . S
C2071 C2070 1.404 . S
C2071 H2083 0.930 . S
C2072 C2068 1.524 . S
C2072 H2084 0.956 . S
C2072 H2085 0.961 . S
C2072 H2086 0.961 . S
C2073 C2070 1.539 . S
C2073 H2087 0.958 . S
C2073 H2088 0.961 . S
C2073 H2089 0.960 . S
H2074 C2058 0.931 . S
H2075 C2063 0.929 . S
H2076 C2064 0.960 . S
H2077 C2064 0.962 . S
H2078 C2064 0.960 . S
H2079 C2065 0.961 . S
H2080 C2065 0.961 . S
H2081 C2065 0.961 . S
H2082 C2066 0.931 . S
H2083 C2071 0.930 . S
H2084 C2072 0.956 . S
H2085 C2072 0.961 . S
H2086 C2072 0.961 . S
H2087 C2073 0.958 . S
H2088 C2073 0.961 . S
H2089 C2073 0.960 . S
C2090 C2091 1.391 . S
C2090 C2092 1.394 . S
C2090 H2106 0.931 . S
C2091 C2090 1.391 . S
C2091 C2095 1.376 . S
C2092 C2090 1.394 . S
C2092 C2093 1.369 . S
C2092 C2096 1.531 . S
C2093 C2092 1.369 . S
C2093 C2094 1.410 . S
C2093 C2101 1.503 . S
C2094 C2093 1.410 . S
C2094 C2095 1.392 . S
C2094 C2097 1.511 . S
C2095 C2091 1.376 . S
C2095 C2094 1.392 . S
C2095 H2107 0.929 . S
C2096 C2092 1.531 . S
C2096 H2108 0.960 . S
C2096 H2109 0.962 . S
C2096 H2110 0.960 . S
C2097 C2094 1.511 . S
C2097 H2111 0.961 . S
C2097 H2112 0.961 . S
C2097 H2113 0.961 . S
C2098 C2099 1.370 . S
C2098 C2100 1.363 . S
C2098 H2114 0.931 . S
C2099 C2098 1.370 . S
C2099 C2103 1.408 . S
C2100 C2098 1.363 . S
C2100 C2101 1.370 . S
C2100 C2104 1.524 . S
C2101 C2093 1.503 . S
C2101 C2100 1.370 . S
C2101 C2102 1.403 . S
C2102 C2101 1.403 . S
C2102 C2103 1.404 . S
C2102 C2105 1.539 . S
C2103 C2099 1.408 . S
C2103 C2102 1.404 . S
C2103 H2115 0.930 . S
C2104 C2100 1.524 . S
C2104 H2116 0.956 . S
C2104 H2117 0.961 . S
C2104 H2118 0.961 . S
C2105 C2102 1.539 . S
C2105 H2119 0.958 . S
C2105 H2120 0.961 . S
C2105 H2121 0.960 . S
H2106 C2090 0.931 . S
H2107 C2095 0.929 . S
H2108 C2096 0.960 . S
H2109 C2096 0.962 . S
H2110 C2096 0.960 . S
H2111 C2097 0.961 . S
H2112 C2097 0.961 . S
H2113 C2097 0.961 . S
H2114 C2098 0.931 . S
H2115 C2103 0.930 . S
H2116 C2104 0.956 . S
H2117 C2104 0.961 . S
H2118 C2104 0.961 . S
H2119 C2105 0.958 . S
H2120 C2105 0.961 . S
H2121 C2105 0.960 . S
C2122 C2123 1.391 . S
C2122 C2124 1.394 . S
C2122 H2138 0.931 . S
C2123 C2122 1.391 . S
C2123 C2127 1.376 . S
C2124 C2122 1.394 . S
C2124 C2125 1.369 . S
C2124 C2128 1.531 . S
C2125 C2124 1.369 . S
C2125 C2126 1.410 . S
C2125 C2133 1.503 . S
C2126 C2125 1.410 . S
C2126 C2127 1.392 . S
C2126 C2129 1.511 . S
C2127 C2123 1.376 . S
C2127 C2126 1.392 . S
C2127 H2139 0.929 . S
C2128 C2124 1.531 . S
C2128 H2140 0.960 . S
C2128 H2141 0.962 . S
C2128 H2142 0.960 . S
C2129 C2126 1.511 . S
C2129 H2143 0.961 . S
C2129 H2144 0.961 . S
C2129 H2145 0.961 . S
C2130 C2131 1.370 . S
C2130 C2132 1.363 . S
C2130 H2146 0.931 . S
C2131 C2130 1.370 . S
C2131 C2135 1.408 . S
C2132 C2130 1.363 . S
C2132 C2133 1.370 . S
C2132 C2136 1.524 . S
C2133 C2125 1.503 . S
C2133 C2132 1.370 . S
C2133 C2134 1.403 . S
C2134 C2133 1.403 . S
C2134 C2135 1.404 . S
C2134 C2137 1.539 . S
C2135 C2131 1.408 . S
C2135 C2134 1.404 . S
C2135 H2147 0.930 . S
C2136 C2132 1.524 . S
C2136 H2148 0.956 . S
C2136 H2149 0.961 . S
C2136 H2150 0.961 . S
C2137 C2134 1.539 . S
C2137 H2151 0.958 . S
C2137 H2152 0.961 . S
C2137 H2153 0.960 . S
H2138 C2122 0.931 . S
H2139 C2127 0.929 . S
H2140 C2128 0.960 . S
H2141 C2128 0.962 . S
H2142 C2128 0.960 . S
H2143 C2129 0.961 . S
H2144 C2129 0.961 . S
H2145 C2129 0.961 . S
H2146 C2130 0.931 . S
H2147 C2135 0.930 . S
H2148 C2136 0.956 . S
H2149 C2136 0.961 . S
H2150 C2136 0.961 . S
H2151 C2137 0.958 . S
H2152 C2137 0.961 . S
H2153 C2137 0.960 . S
C2154 C2155 1.391 . S
C2154 C2156 1.394 . S
C2154 H2170 0.931 . S
C2155 C2154 1.391 . S
C2155 C2159 1.376 . S
C2156 C2154 1.394 . S
C2156 C2157 1.369 . S
C2156 C2160 1.531 . S
C2157 C2156 1.369 . S
C2157 C2158 1.410 . S
C2157 C2165 1.503 . S
C2158 C2157 1.410 . S
C2158 C2159 1.392 . S
C2158 C2161 1.511 . S
C2159 C2155 1.376 . S
C2159 C2158 1.392 . S
C2159 H2171 0.929 . S
C2160 C2156 1.531 . S
C2160 H2172 0.960 . S
C2160 H2173 0.962 . S
C2160 H2174 0.960 . S
C2161 C2158 1.511 . S
C2161 H2175 0.961 . S
C2161 H2176 0.961 . S
C2161 H2177 0.961 . S
C2162 C2163 1.370 . S
C2162 C2164 1.363 . S
C2162 H2178 0.931 . S
C2163 C2162 1.370 . S
C2163 C2167 1.408 . S
C2164 C2162 1.363 . S
C2164 C2165 1.370 . S
C2164 C2168 1.524 . S
C2165 C2157 1.503 . S
C2165 C2164 1.370 . S
C2165 C2166 1.403 . S
C2166 C2165 1.403 . S
C2166 C2167 1.404 . S
C2166 C2169 1.539 . S
C2167 C2163 1.408 . S
C2167 C2166 1.404 . S
C2167 H2179 0.930 . S
C2168 C2164 1.524 . S
C2168 H2180 0.956 . S
C2168 H2181 0.961 . S
C2168 H2182 0.961 . S
C2169 C2166 1.539 . S
C2169 H2183 0.958 . S
C2169 H2184 0.961 . S
C2169 H2185 0.960 . S
H2170 C2154 0.931 . S
H2171 C2159 0.929 . S
H2172 C2160 0.960 . S
H2173 C2160 0.962 . S
H2174 C2160 0.960 . S
H2175 C2161 0.961 . S
H2176 C2161 0.961 . S
H2177 C2161 0.961 . S
H2178 C2162 0.931 . S
H2179 C2167 0.930 . S
H2180 C2168 0.956 . S
H2181 C2168 0.961 . S
H2182 C2168 0.961 . S
H2183 C2169 0.958 . S
H2184 C2169 0.961 . S
H2185 C2169 0.960 . S
C2186 C2187 1.391 . S
C2186 C2188 1.394 . S
C2186 H2202 0.931 . S
C2187 C2186 1.391 . S
C2187 C2191 1.376 . S
C2188 C2186 1.394 . S
C2188 C2189 1.369 . S
C2188 C2192 1.531 . S
C2189 C2188 1.369 . S
C2189 C2190 1.410 . S
C2189 C2197 1.503 . S
C2190 C2189 1.410 . S
C2190 C2191 1.392 . S
C2190 C2193 1.511 . S
C2191 C2187 1.376 . S
C2191 C2190 1.392 . S
C2191 H2203 0.929 . S
C2192 C2188 1.531 . S
C2192 H2204 0.960 . S
C2192 H2205 0.962 . S
C2192 H2206 0.960 . S
C2193 C2190 1.511 . S
C2193 H2207 0.961 . S
C2193 H2208 0.961 . S
C2193 H2209 0.961 . S
C2194 C2195 1.370 . S
C2194 C2196 1.363 . S
C2194 H2210 0.931 . S
C2195 C2194 1.370 . S
C2195 C2199 1.408 . S
C2196 C2194 1.363 . S
C2196 C2197 1.370 . S
C2196 C2200 1.524 . S
C2197 C2189 1.503 . S
C2197 C2196 1.370 . S
C2197 C2198 1.403 . S
C2198 C2197 1.403 . S
C2198 C2199 1.404 . S
C2198 C2201 1.539 . S
C2199 C2195 1.408 . S
C2199 C2198 1.404 . S
C2199 H2211 0.930 . S
C2200 C2196 1.524 . S
C2200 H2212 0.956 . S
C2200 H2213 0.961 . S
C2200 H2214 0.961 . S
C2201 C2198 1.539 . S
C2201 H2215 0.958 . S
C2201 H2216 0.961 . S
C2201 H2217 0.960 . S
H2202 C2186 0.931 . S
H2203 C2191 0.929 . S
H2204 C2192 0.960 . S
H2205 C2192 0.962 . S
H2206 C2192 0.960 . S
H2207 C2193 0.961 . S
H2208 C2193 0.961 . S
H2209 C2193 0.961 . S
H2210 C2194 0.931 . S
H2211 C2199 0.930 . S
H2212 C2200 0.956 . S
H2213 C2200 0.961 . S
H2214 C2200 0.961 . S
H2215 C2201 0.958 . S
H2216 C2201 0.961 . S
H2217 C2201 0.960 . S
C2218 C2219 1.391 . S
C2218 C2220 1.394 . S
C2218 H2234 0.931 . S
C2219 C2218 1.391 . S
C2219 C2223 1.376 . S
C2220 C2218 1.394 . S
C2220 C2221 1.369 . S
C2220 C2224 1.531 . S
C2221 C2220 1.369 . S
C2221 C2222 1.410 . S
C2221 C2229 1.503 . S
C2222 C2221 1.410 . S
C2222 C2223 1.392 . S
C2222 C2225 1.511 . S
C2223 C2219 1.376 . S
C2223 C2222 1.392 . S
C2223 H2235 0.929 . S
C2224 C2220 1.531 . S
C2224 H2236 0.960 . S
C2224 H2237 0.962 . S
C2224 H2238 0.960 . S
C2225 C2222 1.511 . S
C2225 H2239 0.961 . S
C2225 H2240 0.961 . S
C2225 H2241 0.961 . S
C2226 C2227 1.370 . S
C2226 C2228 1.363 . S
C2226 H2242 0.931 . S
C2227 C2226 1.370 . S
C2227 C2231 1.408 . S
C2228 C2226 1.363 . S
C2228 C2229 1.370 . S
C2228 C2232 1.524 . S
C2229 C2221 1.503 . S
C2229 C2228 1.370 . S
C2229 C2230 1.403 . S
C2230 C2229 1.403 . S
C2230 C2231 1.404 . S
C2230 C2233 1.539 . S
C2231 C2227 1.408 . S
C2231 C2230 1.404 . S
C2231 H2243 0.930 . S
C2232 C2228 1.524 . S
C2232 H2244 0.956 . S
C2232 H2245 0.961 . S
C2232 H2246 0.961 . S
C2233 C2230 1.539 . S
C2233 H2247 0.958 . S
C2233 H2248 0.961 . S
C2233 H2249 0.960 . S
H2234 C2218 0.931 . S
H2235 C2223 0.929 . S
H2236 C2224 0.960 . S
H2237 C2224 0.962 . S
H2238 C2224 0.960 . S
H2239 C2225 0.961 . S
H2240 C2225 0.961 . S
H2241 C2225 0.961 . S
H2242 C2226 0.931 . S
H2243 C2231 0.930 . S
H2244 C2232 0.956 . S
H2245 C2232 0.961 . S
H2246 C2232 0.961 . S
H2247 C2233 0.958 . S
H2248 C2233 0.961 . S
H2249 C2233 0.960 . S
C523 C124 1.530 . S
C531 C171 1.542 . S
C555 C130 1.702 . S
C563 C211 1.686 . S
C587 C115 1.540 . S
C595 C250 1.556 . S
C619 C106 1.467 . S
C627 C210 1.449 . S
C659 C251 1.426 . S
C651 C85 1.452 . S
C683 C97 1.313 . S
C691 C170 1.310 . S
C723 C181 1.547 . S
C715 C103 1.585 . S
C755 C221 1.662 . S
C747 C88 1.687 . S
C779 C94 1.560 . S
C787 C260 1.547 . S
C811 C121 1.467 . S
C819 C220 1.447 . S
C843 C133 1.416 . S
C851 C261 1.411 . S
C883 C180 1.347 . S
C875 C112 1.313 . S
C915 C291 1.544 . S
C907 C16 1.529 . S
C939 C22 1.698 . S
C947 C331 1.688 . S
C971 C7 1.540 . S
C979 C370 1.564 . S
C1003 C160 1.465 . S
C1011 C330 1.470 . S
C1035 C139 1.447 . S
C1043 C371 1.436 . S
C1067 C151 1.325 . S
C1075 C290 1.312 . S
C1099 C157 1.550 . S
C1107 C301 1.566 . S
C1131 C142 1.682 . S
C1139 C341 1.666 . S
C1171 C380 1.566 . S
C1163 C148 1.552 . S
C1195 C13 1.484 . S
C1203 C340 1.448 . S
C1235 C381 1.411 . S
C1227 C25 1.416 . S
C1259 C4 1.315 . S
C1267 C300 1.334 . S
C1299 C411 1.536 . S
C1291 C70 1.546 . S
C1323 C76 1.711 . S
C1331 C451 1.681 . S
C1363 C490 1.555 . S
C1355 C61 1.582 . S
C1395 C450 1.461 . S
C1387 C52 1.452 . S
C1427 C491 1.443 . S
C1419 C31 1.428 . S
C1451 C43 1.287 . S
C1459 C410 1.321 . S
C1483 C49 1.585 . S
C1491 C421 1.548 . S
C1515 C34 1.690 . S
C1523 C461 1.659 . S
C1555 C500 1.546 . S
C1547 C40 1.573 . S
C1579 C67 1.474 . S
C1587 C460 1.467 . S
C1611 C79 1.427 . S
C1619 C501 1.405 . S
C1643 C58 1.355 . S
C1651 C420 1.337 . S
C1675 C140 1.398 . S
C1683 C167 1.390 . S
C1715 C207 1.727 . S
C1707 C149 1.730 . S
C1739 C158 1.539 . S
C1747 C257 1.548 . S
C1771 C59 1.741 . S
C1779 C217 1.743 . S
C1803 C68 1.517 . S
C1811 C247 1.528 . S
C1843 C177 1.387 . S
C1835 C77 1.400 . S
C1867 C32 1.402 . S
C1875 C287 1.400 . S
C1899 C41 1.711 . S
C1907 C327 1.729 . S
C1931 C50 1.537 . S
C1939 C377 1.547 . S
C1963 C113 1.735 . S
C1971 C337 1.751 . S
C2003 C367 1.530 . S
C1995 C122 1.530 . S
C2027 C131 1.399 . S
C2035 C297 1.387 . S
C2059 C86 1.398 . S
C2067 C407 1.393 . S
C2091 C95 1.729 . S
C2099 C447 1.727 . S
C2131 C497 1.549 . S
C2123 C104 1.545 . S
C2155 C5 1.736 . S
C2163 C457 1.744 . S
C2187 C14 1.530 . S
C2195 C487 1.530 . S
C2219 C23 1.400 . S
C2227 C417 1.387 . S
