# Generated by pormake.
# Topology nom, (4,4)-cn, num edge types: 1
# Building blocks:
#     Node 0, Type 0, BuildingBlock: MUDLON_clean_linker_0, # of connection points: 4
#     Node 1, Type 0, BuildingBlock: MUDLON_clean_linker_0, # of connection points: 4
#     Node 2, Type 0, BuildingBlock: MUDLON_clean_linker_0, # of connection points: 4
#     Node 3, Type 0, BuildingBlock: MUDLON_clean_linker_0, # of connection points: 4
#     Node 4, Type 0, BuildingBlock: MUDLON_clean_linker_0, # of connection points: 4
#     Node 5, Type 0, BuildingBlock: MUDLON_clean_linker_0, # of connection points: 4
#     Node 6, Type 1, BuildingBlock: NAHDIM_clean_sbu_0, # of connection points: 4
#     Node 7, Type 1, BuildingBlock: NAHDIM_clean_sbu_0, # of connection points: 4
#     Node 8, Type 1, BuildingBlock: NAHDIM_clean_sbu_0, # of connection points: 4
#     Node 9, Type 1, BuildingBlock: NAHDIM_clean_sbu_0, # of connection points: 4
#     Node 10, Type 1, BuildingBlock: NAHDIM_clean_sbu_0, # of connection points: 4
#     Node 11, Type 1, BuildingBlock: NAHDIM_clean_sbu_0, # of connection points: 4
#     Edge 12, Type (0, 1), BuildingBlock: EZIPEK_clean_linker_0, # of connection points: 2
#     Edge 13, Type (0, 1), BuildingBlock: EZIPEK_clean_linker_0, # of connection points: 2
#     Edge 14, Type (0, 1), BuildingBlock: EZIPEK_clean_linker_0, # of connection points: 2
#     Edge 15, Type (0, 1), BuildingBlock: EZIPEK_clean_linker_0, # of connection points: 2
#     Edge 16, Type (0, 1), BuildingBlock: EZIPEK_clean_linker_0, # of connection points: 2
#     Edge 17, Type (0, 1), BuildingBlock: EZIPEK_clean_linker_0, # of connection points: 2
#     Edge 18, Type (0, 1), BuildingBlock: EZIPEK_clean_linker_0, # of connection points: 2
#     Edge 19, Type (0, 1), BuildingBlock: EZIPEK_clean_linker_0, # of connection points: 2
#     Edge 20, Type (0, 1), BuildingBlock: EZIPEK_clean_linker_0, # of connection points: 2
#     Edge 21, Type (0, 1), BuildingBlock: EZIPEK_clean_linker_0, # of connection points: 2
#     Edge 22, Type (0, 1), BuildingBlock: EZIPEK_clean_linker_0, # of connection points: 2
#     Edge 23, Type (0, 1), BuildingBlock: EZIPEK_clean_linker_0, # of connection points: 2
#     Edge 24, Type (0, 1), BuildingBlock: EZIPEK_clean_linker_0, # of connection points: 2
#     Edge 25, Type (0, 1), BuildingBlock: EZIPEK_clean_linker_0, # of connection points: 2
#     Edge 26, Type (0, 1), BuildingBlock: EZIPEK_clean_linker_0, # of connection points: 2
#     Edge 27, Type (0, 1), BuildingBlock: EZIPEK_clean_linker_0, # of connection points: 2
#     Edge 28, Type (0, 1), BuildingBlock: EZIPEK_clean_linker_0, # of connection points: 2
#     Edge 29, Type (0, 1), BuildingBlock: EZIPEK_clean_linker_0, # of connection points: 2
#     Edge 30, Type (0, 1), BuildingBlock: EZIPEK_clean_linker_0, # of connection points: 2
#     Edge 31, Type (0, 1), BuildingBlock: EZIPEK_clean_linker_0, # of connection points: 2
#     Edge 32, Type (0, 1), BuildingBlock: EZIPEK_clean_linker_0, # of connection points: 2
#     Edge 33, Type (0, 1), BuildingBlock: EZIPEK_clean_linker_0, # of connection points: 2
#     Edge 34, Type (0, 1), BuildingBlock: EZIPEK_clean_linker_0, # of connection points: 2
#     Edge 35, Type (0, 1), BuildingBlock: EZIPEK_clean_linker_0, # of connection points: 2
# Relax obj value: 0.027
# Max RMSD: 0.123
# Mean RMSD: 0.105
data_MOF--net-nom--node1-NAHDIM_clean_sbu_0--node2-MUDLON_clean_linker_0--edge1-EZIPEK_clean_linker_0
_symmetry_space_group_name_H-M    P1
_symmetry_Int_Tables_number       1
_symmetry_cell_setting            triclinic
loop_
_symmetry_equiv_pos_as_xyz
'x, y, z'
_cell_length_a     47.647704
_cell_length_b     49.743124
_cell_length_c     48.481747
_cell_angle_alpha  90.376229
_cell_angle_beta   90.489345
_cell_angle_gamma 121.44768
loop_
_atom_site_label
_atom_site_type_symbol
_atom_site_fract_x
_atom_site_fract_y
_atom_site_fract_z
_atom_type_partial_charge
H0 H 0.17373 0.55624 0.3022 0.0
N1 N 0.12299 0.55017 0.32971 0.0
H2 H 0.213 0.60126 0.27443 0.0
H3 H 0.11718 0.60028 0.31488 0.0
H4 H 0.15652 0.64529 0.28725 0.0
H5 H 0.13428 0.6 0.36274 0.0
H6 H 0.1633 0.61472 0.40722 0.0
H7 H 0.14068 0.51667 0.35952 0.0
H8 H 0.17002 0.53163 0.40431 0.0
H9 H 0.08825 0.49999 0.29762 0.0
H10 H 0.07862 0.56388 0.35156 0.0
H11 H 0.02919 0.47185 0.28751 0.0
H12 H 0.01957 0.53543 0.34229 0.0
H13 H 0.84279 0.38086 0.25867 0.0
H14 H 0.82318 0.37429 0.21056 0.0
H15 H 0.88393 0.47465 0.19933 0.0
H16 H 0.90354 0.48125 0.24715 0.0
H17 H 0.86831 0.48178 0.28339 0.0
H18 H 0.82404 0.48285 0.30753 0.0
H19 H 0.79875 0.39644 0.34834 0.0
H20 H 0.84366 0.39564 0.3245 0.0
H21 H 0.9185 0.40994 0.29574 0.0
H22 H 0.97696 0.43763 0.30838 0.0
H23 H 0.98093 0.5264 0.30558 0.0
N24 N 0.88187 0.4345 0.28569 0.0
H25 H 0.92255 0.49851 0.29388 0.0
C26 C 0.14264 0.57485 0.31058 0.0
C27 C 0.16948 0.5753 0.29853 0.0
C28 C 0.19179 0.60088 0.28281 0.0
C29 C 0.18756 0.62645 0.27899 0.0
C30 C 0.16002 0.62563 0.29004 0.0
C31 C 0.13763 0.59996 0.30577 0.0
C32 C 0.13519 0.55702 0.35777 0.0
C33 C 0.14114 0.58443 0.37182 0.0
C34 C 0.1578 0.59293 0.39719 0.0
C35 C 0.16875 0.57425 0.40887 0.0
C36 C 0.16157 0.54621 0.39556 0.0
C37 C 0.14485 0.53768 0.37017 0.0
C38 C 0.08789 0.5338 0.32541 0.0
C39 C 0.07327 0.50768 0.3075 0.0
C40 C 0.03953 0.49157 0.30189 0.0
C41 C 0.01958 0.50128 0.3142 0.0
C42 C 0.03426 0.52752 0.33225 0.0
C43 C 0.06811 0.5437 0.33777 0.0
C44 C 0.87462 0.43139 0.25653 0.0
C45 C 0.85236 0.40132 0.24563 0.0
C46 C 0.84119 0.3976 0.21834 0.0
C47 C 0.85217 0.42402 0.20159 0.0
C48 C 0.87534 0.45404 0.21205 0.0
C49 C 0.88653 0.45775 0.23935 0.0
C50 C 0.85943 0.43858 0.30231 0.0
C51 C 0.85402 0.46353 0.29808 0.0
C52 C 0.82864 0.46411 0.31174 0.0
C53 C 0.80814 0.43963 0.32951 0.0
C54 C 0.8144 0.41552 0.33467 0.0
C55 C 0.83993 0.41508 0.32118 0.0
C56 C 0.91609 0.45196 0.2938 0.0
C57 C 0.93205 0.43536 0.29804 0.0
C58 C 0.96546 0.45126 0.30506 0.0
C59 C 0.9837 0.48429 0.30786 0.0
C60 C 0.96755 0.50093 0.30392 0.0
C61 C 0.93406 0.48495 0.297 0.0
H62 H 0.4867 0.86611 0.46211 0.0
N63 N 0.47861 0.91212 0.44504 0.0
H64 H 0.4475 0.81931 0.48814 0.0
H65 H 0.42342 0.90352 0.47105 0.0
H66 H 0.38437 0.85682 0.4968 0.0
H67 H 0.42097 0.90043 0.42101 0.0
H68 H 0.40089 0.87814 0.37478 0.0
H69 H 0.51225 0.9048 0.40544 0.0
H70 H 0.49212 0.88266 0.35887 0.0
H71 H 0.54014 0.94906 0.46205 0.0
H72 H 0.45102 0.94878 0.44555 0.0
H73 H 0.56799 0.00454 0.47562 0.0
H74 H 0.47775 0.00354 0.46088 0.0
H75 H 0.64116 0.17276 0.54215 0.0
H76 H 0.63587 0.1879 0.58931 0.0
H77 H 0.53021 0.13098 0.58134 0.0
H78 H 0.53551 0.1156 0.53424 0.0
H79 H 0.54353 0.15046 0.4962 0.0
H80 H 0.55021 0.19761 0.47616 0.0
H81 H 0.64998 0.22726 0.45516 0.0
H82 H 0.64303 0.18 0.47559 0.0
H83 H 0.6004 0.09286 0.52506 0.0
H84 H 0.57128 0.03768 0.51103 0.0
H85 H 0.51692 0.05589 0.44977 0.0
N86 N 0.59296 0.13861 0.50604 0.0
H87 H 0.54459 0.11046 0.46495 0.0
C88 C 0.45815 0.88832 0.46457 0.0
C89 C 0.46486 0.86462 0.4703 0.0
C90 C 0.44256 0.83802 0.48502 0.0
C91 C 0.41314 0.83475 0.49421 0.0
C92 C 0.40707 0.85912 0.48987 0.0
C93 C 0.42944 0.88579 0.47515 0.0
C94 C 0.46821 0.9042 0.41668 0.0
C95 C 0.43705 0.89741 0.40749 0.0
C96 C 0.42553 0.88466 0.38112 0.0
C97 C 0.44508 0.87881 0.36362 0.0
C98 C 0.47684 0.88721 0.37216 0.0
C99 C 0.48828 0.8998 0.39857 0.0
C100 C 0.4935 0.94463 0.45327 0.0
C101 C 0.52649 0.96094 0.46178 0.0
C102 C 0.54223 0.9926 0.46974 0.0
C103 C 0.52507 0.00861 0.46975 0.0
C104 C 0.49189 0.99217 0.46096 0.0
C105 C 0.47633 0.96056 0.45254 0.0
C106 C 0.58886 0.14322 0.53477 0.0
C107 C 0.61693 0.16303 0.55083 0.0
C108 C 0.61391 0.17164 0.57757 0.0
C109 C 0.58268 0.16055 0.58857 0.0
C110 C 0.55447 0.13964 0.57307 0.0
C111 C 0.55751 0.13096 0.54628 0.0
C112 C 0.59361 0.16264 0.48904 0.0
C113 C 0.56725 0.16768 0.48802 0.0
C114 C 0.57171 0.1957 0.47745 0.0
C115 C 0.60319 0.22044 0.46943 0.0
C116 C 0.62727 0.21219 0.46572 0.0
C117 C 0.62292 0.18422 0.47629 0.0
C118 C 0.57479 0.10613 0.49651 0.0
C119 C 0.58198 0.08489 0.50876 0.0
C120 C 0.56549 0.05334 0.50046 0.0
C121 C 0.54179 0.04218 0.47908 0.0
C122 C 0.5346 0.06343 0.46662 0.0
C123 C 0.55075 0.09501 0.47529 0.0
H124 H 0.44875 0.59466 0.64666 0.0
N125 N 0.42287 0.53692 0.67091 0.0
H126 H 0.41875 0.61166 0.61779 0.0
H127 H 0.36212 0.5016 0.65096 0.0
H128 H 0.33128 0.51942 0.62358 0.0
H129 H 0.38071 0.51744 0.71193 0.0
H130 H 0.38528 0.54622 0.75473 0.0
H131 H 0.47713 0.59234 0.68834 0.0
H132 H 0.48176 0.62123 0.73128 0.0
H133 H 0.47627 0.57042 0.63699 0.0
H134 H 0.42463 0.48698 0.6864 0.0
H135 H 0.5148 0.55521 0.62299 0.0
H136 H 0.46446 0.47236 0.67372 0.0
H137 H 0.63592 0.50128 0.579 0.0
H138 H 0.63956 0.48759 0.53083 0.0
H139 H 0.53414 0.42605 0.527 0.0
H140 H 0.53031 0.43986 0.57455 0.0
H141 H 0.54273 0.41115 0.60818 0.0
H142 H 0.55185 0.37371 0.63268 0.0
H143 H 0.63958 0.45053 0.67073 0.0
H144 H 0.62986 0.48848 0.6467 0.0
H145 H 0.59647 0.53373 0.62123 0.0
H146 H 0.55909 0.55008 0.63758 0.0
H147 H 0.47927 0.45269 0.63616 0.0
N148 N 0.58265 0.47581 0.61 0.0
H149 H 0.51682 0.43668 0.62149 0.0
C150 C 0.40786 0.54642 0.65037 0.0
C151 C 0.4237 0.57751 0.64061 0.0
C152 C 0.40648 0.58738 0.62436 0.0
C153 C 0.37286 0.56679 0.61867 0.0
C154 C 0.35727 0.53555 0.62767 0.0
C155 C 0.3748 0.5254 0.64317 0.0
C156 C 0.42849 0.55269 0.69713 0.0
C157 C 0.40306 0.5398 0.7163 0.0
C158 C 0.40564 0.55618 0.74053 0.0
C159 C 0.4338 0.58574 0.74596 0.0
C160 C 0.45991 0.59836 0.72732 0.0
C161 C 0.45726 0.58192 0.70293 0.0
C162 C 0.44691 0.52941 0.66242 0.0
C163 C 0.4731 0.54884 0.64496 0.0
C164 C 0.49557 0.54026 0.63717 0.0
C165 C 0.49274 0.51242 0.64706 0.0
C166 C 0.46703 0.49356 0.66514 0.0
C167 C 0.44434 0.50194 0.67257 0.0
C168 C 0.58303 0.47164 0.58056 0.0
C169 C 0.61356 0.48556 0.56749 0.0
C170 C 0.61563 0.4778 0.54015 0.0
C171 C 0.58709 0.45581 0.52561 0.0
C172 C 0.55635 0.44315 0.53801 0.0
C173 C 0.55426 0.45108 0.56526 0.0
C174 C 0.58551 0.45289 0.62588 0.0
C175 C 0.56346 0.42023 0.62227 0.0
C176 C 0.56874 0.39873 0.63613 0.0
C177 C 0.59636 0.40942 0.65343 0.0
C178 C 0.61806 0.44191 0.6575 0.0
C179 C 0.61253 0.46346 0.64389 0.0
C180 C 0.55969 0.48413 0.61996 0.0
C181 C 0.57092 0.516 0.62466 0.0
C182 C 0.54943 0.52527 0.63378 0.0
C183 C 0.51604 0.50272 0.63813 0.0
C184 C 0.50488 0.47071 0.63351 0.0
C185 C 0.52646 0.46148 0.62476 0.0
H186 H 0.17978 0.63805 0.80503 0.0
N187 N 0.12601 0.58767 0.78521 0.0
H188 H 0.2255 0.63981 0.83051 0.0
H189 H 0.12719 0.53644 0.80489 0.0
H190 H 0.17258 0.53827 0.83082 0.0
H191 H 0.13141 0.54508 0.75315 0.0
H192 H 0.14887 0.55205 0.7051 0.0
H193 H 0.13873 0.63521 0.75254 0.0
H194 H 0.15776 0.64288 0.7046 0.0
H195 H 0.09251 0.60857 0.81147 0.0
H196 H 0.08235 0.52446 0.77538 0.0
H197 H 0.03401 0.5793 0.82264 0.0
H198 H 0.02442 0.49488 0.78718 0.0
H199 H 0.84445 0.48509 0.85129 0.0
H200 H 0.82041 0.46894 0.89734 0.0
H201 H 0.87728 0.42549 0.91152 0.0
H202 H 0.90083 0.44105 0.86533 0.0
H203 H 0.88031 0.41404 0.82165 0.0
H204 H 0.83597 0.36713 0.7976 0.0
H205 H 0.79463 0.4214 0.76938 0.0
H206 H 0.83885 0.46825 0.79352 0.0
H207 H 0.93535 0.51319 0.8599 0.0
H208 H 0.9939 0.53928 0.85163 0.0
H209 H 0.97393 0.49128 0.77287 0.0
N210 N 0.88504 0.47123 0.82664 0.0
H211 H 0.91556 0.46439 0.78126 0.0
C212 C 0.15002 0.58728 0.80318 0.0
C213 C 0.17783 0.6162 0.81099 0.0
C214 C 0.20382 0.61719 0.82539 0.0
C215 C 0.20231 0.58917 0.83236 0.0
C216 C 0.17403 0.56009 0.82556 0.0
C217 C 0.14811 0.55911 0.81083 0.0
C218 C 0.13327 0.58953 0.75629 0.0
C219 C 0.13598 0.56601 0.74255 0.0
C220 C 0.14618 0.57006 0.71518 0.0
C221 C 0.15458 0.59797 0.70139 0.0
C222 C 0.15121 0.62114 0.71489 0.0
C223 C 0.14042 0.6168 0.7421 0.0
C224 C 0.09192 0.5689 0.79266 0.0
C225 C 0.07772 0.5837 0.80629 0.0
C226 C 0.04436 0.56687 0.81278 0.0
C227 C 0.02448 0.53468 0.80583 0.0
C228 C 0.03891 0.51972 0.79251 0.0
C229 C 0.07226 0.53665 0.78591 0.0
C230 C 0.87453 0.46454 0.85496 0.0
C231 C 0.85205 0.47249 0.8645 0.0
C232 C 0.83833 0.46322 0.89059 0.0
C233 C 0.84718 0.4461 0.90763 0.0
C234 C 0.87032 0.43878 0.89855 0.0
C235 C 0.8837 0.44766 0.87228 0.0
C236 C 0.8627 0.44463 0.80937 0.0
C237 C 0.862 0.41595 0.80998 0.0
C238 C 0.83685 0.38928 0.79625 0.0
C239 C 0.81209 0.39095 0.78195 0.0
C240 C 0.81361 0.41981 0.78034 0.0
C241 C 0.83875 0.44643 0.79398 0.0
C242 C 0.92014 0.4848 0.82225 0.0
C243 C 0.94329 0.50724 0.8412 0.0
C244 C 0.977 0.5227 0.83626 0.0
C245 C 0.98869 0.51707 0.81175 0.0
C246 C 0.96583 0.49544 0.79238 0.0
C247 C 0.9321 0.47983 0.79735 0.0
H248 H 0.52534 0.18399 0.97942 0.0
N249 N 0.5231 0.13296 0.96007 0.0
H250 H 0.56969 0.22711 0.00697 0.0
H251 H 0.5757 0.13294 0.98374 0.0
H252 H 0.61991 0.17598 0.01141 0.0
H253 H 0.5801 0.14815 0.93355 0.0
H254 H 0.59464 0.16778 0.88657 0.0
H255 H 0.48493 0.13774 0.92251 0.0
H256 H 0.49964 0.15742 0.87508 0.0
H257 H 0.47256 0.09947 0.99283 0.0
H258 H 0.54242 0.09236 0.94218 0.0
H259 H 0.44622 0.04365 0.00385 0.0
H260 H 0.51522 0.03642 0.95165 0.0
H261 H 0.35563 0.85982 0.02607 0.0
H262 H 0.35157 0.83872 0.0726 0.0
H263 H 0.45474 0.90578 0.08685 0.0
H264 H 0.45894 0.92683 0.04074 0.0
H265 H 0.45497 0.88433 0.00718 0.0
H266 H 0.45422 0.84128 0.98203 0.0
H267 H 0.37794 0.83344 0.92787 0.0
H268 H 0.37719 0.87544 0.95428 0.0
H269 H 0.3837 0.9377 0.99362 0.0
H270 H 0.41197 0.99385 0.98348 0.0
H271 H 0.50513 0.9983 0.98498 0.0
N272 N 0.40989 0.90264 0.00093 0.0
H273 H 0.47625 0.94178 0.99356 0.0
C274 C 0.54711 0.15531 0.97957 0.0
C275 C 0.54557 0.18182 0.98683 0.0
C276 C 0.5708 0.20633 0.00241 0.0
C277 C 0.598 0.20466 0.01101 0.0
C278 C 0.59902 0.17756 0.0049 0.0
C279 C 0.57377 0.15303 0.98919 0.0
C280 C 0.5313 0.14157 0.93162 0.0
C281 C 0.56214 0.14967 0.92098 0.0
C282 C 0.57047 0.16082 0.89416 0.0
C283 C 0.54817 0.16396 0.87754 0.0
C284 C 0.51703 0.15496 0.88769 0.0
C285 C 0.50869 0.14381 0.91459 0.0
C286 C 0.50904 0.10011 0.9664 0.0
C287 C 0.48203 0.08578 0.98394 0.0
C288 C 0.46686 0.0538 0.98999 0.0
C289 C 0.47825 0.03528 0.97833 0.0
C290 C 0.50588 0.04989 0.96118 0.0
C291 C 0.52131 0.08201 0.95546 0.0
C292 C 0.4074 0.89491 0.02981 0.0
C293 C 0.37713 0.87051 0.03952 0.0
C294 C 0.37483 0.85849 0.06592 0.0
C295 C 0.40289 0.87077 0.08293 0.0
C296 C 0.43285 0.8962 0.07392 0.0
C297 C 0.43515 0.90825 0.04756 0.0
C298 C 0.41528 0.88247 0.98309 0.0
C299 C 0.43821 0.87367 0.98982 0.0
C300 C 0.43798 0.8492 0.97535 0.0
C301 C 0.41564 0.83386 0.95342 0.0
C302 C 0.39513 0.84482 0.94493 0.0
C303 C 0.39472 0.86871 0.9599 0.0
C304 C 0.42777 0.93566 0.9945 0.0
C305 C 0.41021 0.95089 0.9916 0.0
C306 C 0.4265 0.98304 0.98608 0.0
C307 C 0.46097 0.00084 0.98369 0.0
C308 C 0.47858 0.98538 0.98639 0.0
C309 C 0.46212 0.95305 0.99153 0.0
H310 H 0.51263 0.3768 0.13941 0.0
N311 N 0.51749 0.42831 0.1605 0.0
H312 H 0.55602 0.37276 0.11638 0.0
H313 H 0.57532 0.47809 0.14119 0.0
H314 H 0.61869 0.474 0.11834 0.0
H315 H 0.57208 0.47007 0.19106 0.0
H316 H 0.58628 0.46128 0.2372 0.0
H317 H 0.47948 0.3816 0.1942 0.0
H318 H 0.4943 0.37245 0.24051 0.0
H319 H 0.46273 0.41043 0.13212 0.0
H320 H 0.54429 0.49148 0.17238 0.0
H321 H 0.4393 0.44225 0.11926 0.0
H322 H 0.52078 0.52313 0.16027 0.0
H323 H 0.38105 0.52819 0.06292 0.0
H324 H 0.3864 0.55057 0.01677 0.0
H325 H 0.47729 0.63385 0.0425 0.0
H326 H 0.47169 0.61184 0.08857 0.0
H327 H 0.36457 0.55554 0.11699 0.0
H328 H 0.35858 0.59363 0.14482 0.0
H329 H 0.46117 0.64081 0.16815 0.0
H330 H 0.46731 0.60295 0.14004 0.0
H331 H 0.389 0.49846 0.12652 0.0
H332 H 0.41331 0.46772 0.14058 0.0
H333 H 0.50975 0.54617 0.12072 0.0
N334 N 0.4194 0.55628 0.10677 0.0
H335 H 0.48534 0.57683 0.10744 0.0
C336 C 0.54064 0.42759 0.14207 0.0
C337 C 0.53534 0.39813 0.13411 0.0
C338 C 0.56004 0.39584 0.12112 0.0
C339 C 0.59047 0.42308 0.11591 0.0
C340 C 0.59526 0.45277 0.12225 0.0
C341 C 0.57048 0.45505 0.13526 0.0
C342 C 0.5243 0.4266 0.18924 0.0
C343 C 0.55428 0.44926 0.2019 0.0
C344 C 0.56257 0.44418 0.22821 0.0
C345 C 0.54129 0.41629 0.24211 0.0
C346 C 0.51086 0.3942 0.23006 0.0
C347 C 0.50241 0.39945 0.20381 0.0
C348 C 0.50508 0.44831 0.15328 0.0
C349 C 0.47549 0.43505 0.13826 0.0
C350 C 0.46207 0.45322 0.13112 0.0
C351 C 0.47806 0.48522 0.13891 0.0
C352 C 0.50798 0.49864 0.15375 0.0
C353 C 0.5214 0.4804 0.16086 0.0
C354 C 0.42592 0.56816 0.07909 0.0
C355 C 0.40243 0.55097 0.05838 0.0
C356 C 0.40547 0.5637 0.0322 0.0
C357 C 0.4322 0.59382 0.0264 0.0
C358 C 0.45658 0.61051 0.04667 0.0
C359 C 0.45341 0.59786 0.0729 0.0
C360 C 0.41618 0.57621 0.12653 0.0
C361 C 0.38559 0.57371 0.12854 0.0
C362 C 0.38223 0.59543 0.14425 0.0
C363 C 0.40948 0.61997 0.15834 0.0
C364 C 0.43992 0.62193 0.15737 0.0
C365 C 0.44334 0.60026 0.14141 0.0
C366 C 0.43516 0.53976 0.11583 0.0
C367 C 0.4154 0.50899 0.12539 0.0
C368 C 0.42932 0.49144 0.13319 0.0
C369 C 0.46347 0.50439 0.13155 0.0
C370 C 0.4834 0.53556 0.12245 0.0
C371 C 0.4694 0.55312 0.11467 0.0
C372 C 0.6209 0.33315 0.4191 0.0
O373 O 0.64455 0.36106 0.4278 0.0
O374 O 0.66265 0.39174 0.36941 0.0
Zn375 Zn 0.61707 0.37417 0.3838 0.0
O376 O 0.61742 0.40065 0.41543 0.0
C377 C 0.59657 0.39913 0.34189 0.0
O378 O 0.62186 0.42511 0.35213 0.0
O379 O 0.60311 0.33132 0.39863 0.0
C380 C 0.59231 0.40204 0.42133 0.0
O381 O 0.56557 0.3869 0.40594 0.0
C382 C 0.68732 0.41866 0.37565 0.0
O383 O 0.68388 0.43779 0.39211 0.0
O384 O 0.58826 0.37282 0.35267 0.0
C385 C 0.32232 0.7105 0.53406 0.0
O386 O 0.32626 0.68924 0.52155 0.0
O387 O 0.30352 0.6401 0.56733 0.0
Zn388 Zn 0.27264 0.65529 0.55906 0.0
O389 O 0.24393 0.63352 0.52558 0.0
C390 C 0.21511 0.62381 0.59413 0.0
O391 O 0.2008 0.60544 0.57251 0.0
O392 O 0.29991 0.70192 0.55189 0.0
C393 C 0.25246 0.6222 0.50608 0.0
O394 O 0.28075 0.62367 0.50752 0.0
C395 C 0.29282 0.61107 0.5709 0.0
O396 O 0.26137 0.59021 0.56724 0.0
O397 O 0.24479 0.64657 0.59277 0.0
C398 C 0.62478 0.31989 0.70146 0.0
O399 O 0.65209 0.32135 0.69437 0.0
O400 O 0.66661 0.29564 0.74365 0.0
Zn401 Zn 0.61946 0.26941 0.73127 0.0
O402 O 0.61408 0.24086 0.69971 0.0
C403 C 0.59737 0.22308 0.77251 0.0
O404 O 0.61699 0.21638 0.75933 0.0
O405 O 0.60537 0.29873 0.71799 0.0
C406 C 0.5855 0.21894 0.69227 0.0
O407 O 0.55968 0.21432 0.70591 0.0
C408 C 0.68979 0.29187 0.73607 0.0
O409 O 0.68378 0.26877 0.71904 0.0
O410 O 0.59326 0.2448 0.76374 0.0
C411 C 0.40003 0.71649 0.9145 0.0
O412 O 0.38372 0.69246 0.931 0.0
O413 O 0.34779 0.64507 0.87273 0.0
Zn414 Zn 0.39571 0.66714 0.88319 0.0
O415 O 0.40211 0.64761 0.91709 0.0
C416 C 0.41296 0.6355 0.84522 0.0
O417 O 0.39411 0.61233 0.86178 0.0
O418 O 0.40963 0.71212 0.89146 0.0
C419 C 0.4288 0.64879 0.92278 0.0
O420 O 0.45384 0.66301 0.90607 0.0
C421 C 0.32551 0.61774 0.88016 0.0
O422 O 0.33293 0.60089 0.89591 0.0
O423 O 0.41929 0.66314 0.85073 0.0
C424 C 0.68909 0.39596 0.08268 0.0
O425 O 0.68867 0.37336 0.09688 0.0
O426 O 0.70739 0.34518 0.04441 0.0
Zn427 Zn 0.73783 0.39065 0.05552 0.0
O428 O 0.76275 0.39424 0.09063 0.0
C429 C 0.78266 0.40118 0.01229 0.0
O430 O 0.78035 0.37586 0.02284 0.0
O431 O 0.70934 0.40856 0.06314 0.0
C432 C 0.79387 0.41001 0.09337 0.0
O433 O 0.81236 0.42479 0.07221 0.0
C434 C 0.7012 0.32157 0.05892 0.0
O435 O 0.71608 0.32575 0.08288 0.0
O436 O 0.76742 0.413 0.02343 0.0
C437 C 0.37504 0.70389 0.20815 0.0
O438 O 0.34353 0.68932 0.21355 0.0
O439 O 0.32664 0.72944 0.23631 0.0
Zn440 Zn 0.37255 0.75873 0.22317 0.0
O441 O 0.37243 0.78347 0.19068 0.0
C442 C 0.38968 0.80732 0.26263 0.0
O443 O 0.36639 0.80874 0.2493 0.0
O444 O 0.39292 0.73361 0.21146 0.0
C445 C 0.39879 0.80859 0.18424 0.0
O446 O 0.42571 0.81834 0.19902 0.0
C447 C 0.30076 0.72772 0.22703 0.0
O448 O 0.3026 0.7466 0.20737 0.0
O449 O 0.39763 0.78777 0.25487 0.0
C450 C 0.21542 0.65517 0.23594 0.0
C451 C 0.21355 0.65496 0.26509 0.0
C452 C 0.26433 0.70675 0.26778 0.0
C453 C 0.26881 0.70463 0.23916 0.0
N454 N 0.25017 0.67595 0.1959 0.0
N455 N 0.23702 0.67913 0.30939 0.0
C456 C 0.24454 0.67884 0.22306 0.0
C457 C 0.23805 0.68053 0.28122 0.0
N458 N 0.18926 0.63277 0.22066 0.0
N459 N 0.28493 0.73411 0.28196 0.0
H460 H 0.21786 0.66061 0.32008 0.0
H461 H 0.25625 0.69521 0.3222 0.0
H462 H 0.30413 0.75394 0.27255 0.0
H463 H 0.28116 0.73826 0.30228 0.0
H464 H 0.18772 0.63338 0.19926 0.0
H465 H 0.16772 0.61499 0.2296 0.0
H466 H 0.23521 0.65586 0.18396 0.0
H467 H 0.27115 0.69276 0.18567 0.0
C468 C 0.64141 0.27761 0.45395 0.0
C469 C 0.61006 0.2533 0.4628 0.0
C470 C 0.58697 0.28491 0.44775 0.0
C471 C 0.61622 0.30474 0.43303 0.0
N472 N 0.67133 0.31861 0.42094 0.0
N473 N 0.56541 0.25147 0.48737 0.0
C474 C 0.64352 0.30079 0.43588 0.0
C475 C 0.58565 0.2614 0.46515 0.0
N476 N 0.66922 0.28196 0.46652 0.0
N477 N 0.56063 0.28869 0.44568 0.0
H478 H 0.56886 0.23985 0.50369 0.0
H479 H 0.54915 0.25896 0.49166 0.0
H480 H 0.56089 0.30648 0.43425 0.0
H481 H 0.53775 0.27263 0.45388 0.0
H482 H 0.69262 0.30115 0.46252 0.0
H483 H 0.66811 0.26908 0.48383 0.0
H484 H 0.69064 0.31443 0.42084 0.0
H485 H 0.67372 0.33532 0.40673 0.0
C486 C 0.34592 0.59852 0.62193 0.0
C487 C 0.35317 0.57887 0.60594 0.0
C488 C 0.32335 0.58281 0.56612 0.0
C489 C 0.31486 0.60122 0.58248 0.0
N490 N 0.31617 0.62574 0.62599 0.0
N491 N 0.34803 0.55067 0.56375 0.0
C492 C 0.32596 0.60916 0.61031 0.0
C493 C 0.34165 0.57055 0.57826 0.0
N494 N 0.35816 0.60695 0.64831 0.0
N495 N 0.31487 0.57811 0.53871 0.0
H496 H 0.36306 0.54287 0.57137 0.0
H497 H 0.33741 0.54065 0.5447 0.0
H498 H 0.30139 0.58667 0.52927 0.0
H499 H 0.32282 0.5676 0.52475 0.0
H500 H 0.35787 0.62448 0.65987 0.0
H501 H 0.36997 0.59722 0.65868 0.0
H502 H 0.31947 0.62884 0.64725 0.0
H503 H 0.30312 0.63549 0.61802 0.0
C504 C 0.77996 0.35721 0.74128 0.0
C505 C 0.78303 0.36217 0.77024 0.0
C506 C 0.72834 0.31529 0.77624 0.0
C507 C 0.72328 0.31344 0.74727 0.0
N508 N 0.74309 0.33379 0.70186 0.0
N509 N 0.75947 0.34772 0.81561 0.0
C510 C 0.74893 0.3344 0.72959 0.0
C511 C 0.75717 0.34148 0.78789 0.0
N512 N 0.8068 0.37427 0.72505 0.0
N513 N 0.70573 0.29166 0.79252 0.0
H514 H 0.7803 0.36647 0.82509 0.0
H515 H 0.73985 0.33567 0.82899 0.0
H516 H 0.68459 0.27187 0.7845 0.0
H517 H 0.70944 0.2901 0.8135 0.0
H518 H 0.80706 0.36968 0.7041 0.0
H519 H 0.8298 0.39125 0.7331 0.0
H520 H 0.75956 0.35086 0.68839 0.0
H521 H 0.72073 0.31746 0.69246 0.0
C522 C 0.43781 0.80473 0.92771 0.0
C523 C 0.41139 0.80435 0.94139 0.0
C524 C 0.37632 0.74794 0.9314 0.0
C525 C 0.40402 0.74731 0.92183 0.0
N526 N 0.46275 0.77482 0.91483 0.0
N527 N 0.35751 0.77376 0.9617 0.0
C528 C 0.43526 0.77567 0.92084 0.0
C529 C 0.38113 0.77546 0.94472 0.0
N530 N 0.46505 0.83279 0.92084 0.0
N531 N 0.34523 0.72266 0.92697 0.0
H532 H 0.36043 0.79296 0.97304 0.0
H533 H 0.33647 0.75249 0.96682 0.0
H534 H 0.34043 0.70261 0.9159 0.0
H535 H 0.32416 0.7232 0.93142 0.0
H536 H 0.48366 0.83439 0.90852 0.0
H537 H 0.46748 0.85448 0.92522 0.0
H538 H 0.48649 0.79445 0.91667 0.0
H539 H 0.46221 0.754 0.91054 0.0
C540 C 0.64166 0.42218 0.12597 0.0
C541 C 0.61818 0.41999 0.10642 0.0
C542 C 0.64194 0.40311 0.07063 0.0
C543 C 0.66631 0.40664 0.0899 0.0
N544 N 0.69414 0.42646 0.13376 0.0
N545 N 0.5996 0.41464 0.05926 0.0
C546 C 0.66761 0.4183 0.11695 0.0
C547 C 0.61955 0.41251 0.07841 0.0
N548 N 0.63837 0.42661 0.15336 0.0
N549 N 0.63896 0.38915 0.0455 0.0
H550 H 0.58274 0.4212 0.06442 0.0
H551 H 0.6017 0.41262 0.03809 0.0
H552 H 0.65462 0.38164 0.03906 0.0
H553 H 0.61939 0.38268 0.03186 0.0
H554 H 0.65237 0.42459 0.1689 0.0
H555 H 0.61994 0.42991 0.16089 0.0
H556 H 0.69817 0.43813 0.15263 0.0
H557 H 0.71385 0.42434 0.12767 0.0
C558 C 0.38929 0.79746 0.5338 0.0
C559 C 0.38735 0.80432 0.50576 0.0
C560 C 0.33789 0.75208 0.49893 0.0
C561 C 0.34251 0.74378 0.52574 0.0
N562 N 0.37319 0.75727 0.56859 0.0
N563 N 0.36182 0.78774 0.46062 0.0
C564 C 0.36815 0.76622 0.54333 0.0
C565 C 0.36202 0.78159 0.48807 0.0
N566 N 0.41116 0.82093 0.55128 0.0
N567 N 0.30999 0.73193 0.48413 0.0
H568 H 0.37868 0.80929 0.45186 0.0
H569 H 0.34643 0.77078 0.44609 0.0
H570 H 0.29156 0.71034 0.49178 0.0
H571 H 0.30354 0.73779 0.46554 0.0
H572 H 0.41169 0.81836 0.57253 0.0
H573 H 0.42719 0.84392 0.54476 0.0
H574 H 0.39368 0.77138 0.58111 0.0
H575 H 0.35776 0.73479 0.57644 0.0
C576 C 0.6126 0.36911 0.64882 0.0
C577 C 0.60348 0.38645 0.666 0.0
C578 C 0.61059 0.36174 0.70685 0.0
C579 C 0.61643 0.34216 0.68943 0.0
N580 N 0.6158 0.3224 0.64364 0.0
N581 N 0.58798 0.39536 0.71081 0.0
C582 C 0.61542 0.34448 0.66033 0.0
C583 C 0.60077 0.38164 0.6949 0.0
N584 N 0.61968 0.37687 0.6217 0.0
N585 N 0.61586 0.36246 0.73468 0.0
H586 H 0.58043 0.41002 0.70277 0.0
H587 H 0.58217 0.39002 0.73151 0.0
H588 H 0.62372 0.34876 0.74424 0.0
H589 H 0.61541 0.37876 0.74798 0.0
H590 H 0.62978 0.36718 0.60901 0.0
H591 H 0.61847 0.39515 0.61251 0.0
H592 H 0.6116 0.32107 0.62241 0.0
H593 H 0.61692 0.30341 0.65124 0.0
C594 C 0.23684 0.59668 0.87442 0.0
C595 C 0.23135 0.59079 0.8456 0.0
C596 C 0.28569 0.5972 0.84048 0.0
C597 C 0.29172 0.60443 0.86909 0.0
N598 N 0.27209 0.6058 0.91438 0.0
N599 N 0.24726 0.58019 0.80169 0.0
C600 C 0.26683 0.60227 0.88645 0.0
C601 C 0.25475 0.58924 0.8288 0.0
N602 N 0.21376 0.59801 0.88997 0.0
N603 N 0.31 0.59871 0.82449 0.0
H604 H 0.22533 0.57528 0.79221 0.0
H605 H 0.26169 0.57569 0.78877 0.0
H606 H 0.33188 0.60201 0.83276 0.0
H607 H 0.30922 0.59759 0.80305 0.0
H608 H 0.2174 0.60564 0.91043 0.0
H609 H 0.19093 0.59252 0.88201 0.0
H610 H 0.25414 0.6018 0.9286 0.0
H611 H 0.29417 0.6109 0.92371 0.0
C612 C 0.62346 0.24012 0.05238 0.0
C613 C 0.62631 0.23242 0.02476 0.0
C614 C 0.68158 0.27943 0.02263 0.0
C615 C 0.6767 0.2895 0.04861 0.0
N616 N 0.64133 0.28126 0.08714 0.0
N617 N 0.65633 0.24644 0.98212 0.0
C618 C 0.64735 0.27019 0.06342 0.0
C619 C 0.65501 0.25241 0.0095 0.0
N620 N 0.59804 0.21855 0.06808 0.0
N621 N 0.71191 0.29528 0.01083 0.0
H622 H 0.63746 0.22685 0.97163 0.0
H623 H 0.67499 0.26222 0.96922 0.0
H624 H 0.73215 0.31466 0.02031 0.0
H625 H 0.71785 0.28736 0.99316 0.0
H626 H 0.59642 0.2215 0.08918 0.0
H627 H 0.5801 0.19635 0.06052 0.0
H628 H 0.61876 0.26972 0.09704 0.0
H629 H 0.65791 0.30327 0.09581 0.0
C630 C 0.41143 0.67121 0.1581 0.0
C631 C 0.40599 0.64439 0.17284 0.0
C632 C 0.38782 0.66135 0.21292 0.0
C633 C 0.38891 0.68561 0.19685 0.0
N634 N 0.39884 0.7123 0.15335 0.0
N635 N 0.388 0.61265 0.21365 0.0
C636 C 0.40042 0.69055 0.16934 0.0
C637 C 0.39414 0.63922 0.20019 0.0
N638 N 0.42699 0.67807 0.13328 0.0
N639 N 0.38151 0.66002 0.2405 0.0
H640 H 0.39376 0.5967 0.20541 0.0
H641 H 0.3756 0.60545 0.23226 0.0
H642 H 0.37717 0.67614 0.25046 0.0
H643 H 0.38342 0.64484 0.25399 0.0
H644 H 0.43492 0.69906 0.12292 0.0
H645 H 0.43448 0.66389 0.12401 0.0
H646 H 0.40317 0.71444 0.13224 0.0
H647 H 0.39073 0.72683 0.16063 0.0
C648 C 0.7772 0.44287 0.36974 0.0
C649 C 0.77845 0.43771 0.34111 0.0
C650 C 0.72261 0.42742 0.3349 0.0
C651 C 0.7197 0.42808 0.36394 0.0
N652 N 0.74271 0.43233 0.40951 0.0
N653 N 0.75086 0.42074 0.29672 0.0
C654 C 0.74669 0.43502 0.38157 0.0
C655 C 0.75082 0.42898 0.32368 0.0
N656 N 0.80527 0.45562 0.38553 0.0
N657 N 0.69874 0.42604 0.31802 0.0
H658 H 0.77089 0.42127 0.28762 0.0
H659 H 0.73002 0.41075 0.28398 0.0
H660 H 0.67801 0.42552 0.32553 0.0
H661 H 0.70107 0.42864 0.29671 0.0
H662 H 0.80661 0.4629 0.40593 0.0
H663 H 0.82802 0.46157 0.37746 0.0
H664 H 0.76043 0.43361 0.4231 0.0
H665 H 0.72066 0.42614 0.41907 0.0
C666 C 0.22384 0.6097 0.43112 0.0
C667 C 0.19031 0.58561 0.43378 0.0
C668 C 0.19881 0.58276 0.48334 0.0
C669 C 0.23134 0.60908 0.48111 0.0
N670 N 0.27323 0.65109 0.45378 0.0
N671 N 0.14437 0.55168 0.4625 0.0
C672 C 0.24352 0.62345 0.45522 0.0
C673 C 0.17734 0.57277 0.45994 0.0
N674 N 0.23709 0.61893 0.4055 0.0
N675 N 0.18888 0.56657 0.5075 0.0
H676 H 0.12803 0.5435 0.44571 0.0
H677 H 0.13282 0.54412 0.48143 0.0
H678 H 0.20416 0.57284 0.5249 0.0
H679 H 0.16665 0.54533 0.5096 0.0
H680 H 0.26219 0.63383 0.40223 0.0
H681 H 0.22345 0.60958 0.38728 0.0
H682 H 0.28157 0.66456 0.43601 0.0
H683 H 0.28841 0.66216 0.47093 0.0
C684 C 0.58368 0.16049 0.64028 0.0
C685 C 0.57984 0.1732 0.61544 0.0
C686 C 0.5739 0.21222 0.64165 0.0
C687 C 0.58126 0.20167 0.66622 0.0
N688 N 0.59498 0.16736 0.68961 0.0
N689 N 0.57429 0.21269 0.59165 0.0
C690 C 0.58653 0.17613 0.66576 0.0
C691 C 0.57546 0.19933 0.61589 0.0
N692 N 0.58402 0.13317 0.63941 0.0
N693 N 0.56536 0.23454 0.64299 0.0
H694 H 0.57464 0.20358 0.5723 0.0
H695 H 0.5752 0.23401 0.59052 0.0
H696 H 0.56512 0.2454 0.66139 0.0
H697 H 0.55622 0.24077 0.62624 0.0
H698 H 0.58355 0.12088 0.65686 0.0
H699 H 0.58226 0.12137 0.621 0.0
H700 H 0.60283 0.15139 0.69033 0.0
H701 H 0.59584 0.17742 0.70879 0.0
C702 C 0.41858 0.62133 0.76885 0.0
C703 C 0.43447 0.60396 0.77049 0.0
C704 C 0.44403 0.61543 0.82003 0.0
C705 C 0.42369 0.62841 0.81908 0.0
N706 N 0.38909 0.64159 0.79304 0.0
N707 N 0.46166 0.58323 0.7972 0.0
C708 C 0.41069 0.6313 0.79355 0.0
C709 C 0.44736 0.60093 0.79594 0.0
N710 N 0.41096 0.62816 0.74362 0.0
N711 N 0.46063 0.61758 0.84388 0.0
H712 H 0.46555 0.57329 0.77974 0.0
H713 H 0.468 0.57693 0.8156 0.0
H714 H 0.45914 0.6287 0.86164 0.0
H715 H 0.47813 0.61112 0.84538 0.0
H716 H 0.40246 0.64348 0.74091 0.0
H717 H 0.41593 0.62073 0.72511 0.0
H718 H 0.3756 0.64035 0.77556 0.0
H719 H 0.38259 0.64926 0.81055 0.0
C720 C 0.80355 0.40349 0.93655 0.0
C721 C 0.83102 0.43467 0.9346 0.0
C722 C 0.82767 0.44375 0.98393 0.0
C723 C 0.79912 0.41315 0.98555 0.0
N724 N 0.75609 0.3661 0.96273 0.0
N725 N 0.86738 0.48594 0.95497 0.0
C726 C 0.78609 0.39353 0.96169 0.0
C727 C 0.84253 0.45526 0.95789 0.0
N728 N 0.7943 0.38332 0.91438 0.0
N729 N 0.84126 0.46133 0.00746 0.0
H730 H 0.87994 0.49478 0.93656 0.0
H731 H 0.87433 0.50321 0.9702 0.0
H732 H 0.83061 0.45407 0.02674 0.0
H733 H 0.86412 0.48215 0.00831 0.0
H734 H 0.77719 0.35926 0.91546 0.0
H735 H 0.80531 0.39015 0.89513 0.0
H736 H 0.74354 0.3524 0.94544 0.0
H737 H 0.74212 0.35829 0.98058 0.0
C738 C 0.41152 0.83246 0.1091 0.0
C739 C 0.40171 0.85495 0.10905 0.0
C740 C 0.38803 0.84561 0.15805 0.0
C741 C 0.40001 0.8248 0.15851 0.0
N742 N 0.42649 0.80068 0.1359 0.0
N743 N 0.38429 0.88601 0.13338 0.0
C744 C 0.41279 0.81893 0.13444 0.0
C745 C 0.39091 0.86236 0.13351 0.0
N746 N 0.41857 0.82331 0.08475 0.0
N747 N 0.37354 0.84896 0.18096 0.0
H748 H 0.38558 0.89832 0.11562 0.0
H749 H 0.3797 0.89498 0.15108 0.0
H750 H 0.37219 0.83798 0.19958 0.0
H751 H 0.36104 0.86097 0.18118 0.0
H752 H 0.42219 0.80448 0.08288 0.0
H753 H 0.41845 0.83303 0.06578 0.0
H754 H 0.43969 0.79848 0.11998 0.0
H755 H 0.42658 0.78919 0.15379 0.0
C756 C 0.57223 0.39526 0.2665 0.0
C757 C 0.55259 0.40901 0.26802 0.0
C758 C 0.56035 0.41477 0.31823 0.0
C759 C 0.57962 0.40063 0.31678 0.0
N760 N 0.60114 0.37402 0.29064 0.0
N761 N 0.52362 0.42763 0.29474 0.0
C762 C 0.58453 0.38965 0.29124 0.0
C763 C 0.5453 0.41746 0.29377 0.0
N764 N 0.58005 0.38865 0.24126 0.0
N765 N 0.557 0.42613 0.34296 0.0
H766 H 0.5128 0.43053 0.27712 0.0
H767 H 0.51452 0.43122 0.31292 0.0
H768 H 0.56599 0.42288 0.36152 0.0
H769 H 0.54669 0.44001 0.34513 0.0
H770 H 0.59748 0.38235 0.2383 0.0
H771 H 0.57031 0.39105 0.22273 0.0
H772 H 0.6023 0.36214 0.27336 0.0
H773 H 0.6125 0.37128 0.30796 0.0
C774 C 0.43599 0.87686 0.31235 0.0
C775 C 0.43095 0.86077 0.33757 0.0
C776 C 0.39653 0.80997 0.31388 0.0
C777 C 0.40389 0.82584 0.28833 0.0
N778 N 0.43333 0.87368 0.26229 0.0
N779 N 0.41045 0.81221 0.36234 0.0
C780 C 0.42428 0.85915 0.28728 0.0
C781 C 0.41237 0.82736 0.33833 0.0
N782 N 0.45138 0.90899 0.3125 0.0
N783 N 0.37326 0.77851 0.31493 0.0
H784 H 0.42095 0.82404 0.38094 0.0
H785 H 0.40061 0.78801 0.36345 0.0
H786 H 0.36086 0.76491 0.2975 0.0
H787 H 0.36407 0.76639 0.33327 0.0
H788 H 0.45273 0.92201 0.2953 0.0
H789 H 0.46089 0.92266 0.33045 0.0
H790 H 0.4509 0.89747 0.25999 0.0
H791 H 0.42503 0.86144 0.24355 0.0
C792 C 0.59308 0.41637 0.49836 0.0
C793 C 0.58955 0.44299 0.4987 0.0
C794 C 0.5906 0.44441 0.44817 0.0
C795 C 0.5915 0.41635 0.44785 0.0
N796 N 0.58827 0.37258 0.47204 0.0
N797 N 0.58145 0.4807 0.47469 0.0
C798 C 0.59144 0.40155 0.47279 0.0
C799 C 0.58731 0.45658 0.47379 0.0
N800 N 0.59838 0.40547 0.52249 0.0
N801 N 0.59401 0.45992 0.42408 0.0
H802 H 0.58003 0.49082 0.49314 0.0
H803 H 0.57592 0.4894 0.45735 0.0
H804 H 0.59647 0.45159 0.405 0.0
H805 H 0.59694 0.48213 0.42312 0.0
H806 H 0.60511 0.38865 0.52333 0.0
H807 H 0.59848 0.41484 0.54183 0.0
H808 H 0.58426 0.3589 0.48941 0.0
H809 H 0.58679 0.36079 0.45372 0.0
C810 C 0.15237 0.60613 0.65032 0.0
C811 C 0.16938 0.60396 0.67358 0.0
C812 C 0.21288 0.60918 0.6436 0.0
C813 C 0.19834 0.61571 0.62105 0.0
N814 N 0.15617 0.62429 0.60341 0.0
N815 N 0.21926 0.61002 0.69309 0.0
C816 C 0.16849 0.61515 0.62447 0.0
C817 C 0.20065 0.60738 0.67045 0.0
N818 N 0.12054 0.59867 0.65274 0.0
N819 N 0.23736 0.60313 0.6392 0.0
H820 H 0.21169 0.60971 0.71327 0.0
H821 H 0.24359 0.61571 0.69181 0.0
H822 H 0.24544 0.60222 0.61951 0.0
H823 H 0.24675 0.59538 0.65462 0.0
H824 H 0.10581 0.59672 0.63592 0.0
H825 H 0.10788 0.59167 0.67129 0.0
H826 H 0.13645 0.6276 0.60569 0.0
H827 H 0.16734 0.63109 0.58422 0.0
C828 C 0.57885 0.21225 0.84901 0.0
C829 C 0.55865 0.17897 0.85025 0.0
C830 C 0.56035 0.17502 0.79995 0.0
C831 C 0.58329 0.20795 0.7991 0.0
N832 N 0.61887 0.25729 0.8231 0.0
N833 N 0.53259 0.128 0.82784 0.0
C834 C 0.59365 0.22648 0.82369 0.0
C835 C 0.54995 0.16012 0.82595 0.0
N836 N 0.58346 0.23028 0.87199 0.0
N837 N 0.5478 0.15824 0.77588 0.0
H838 H 0.52395 0.11633 0.8465 0.0
H839 H 0.52864 0.11292 0.81129 0.0
H840 H 0.55486 0.16845 0.75649 0.0
H841 H 0.52851 0.13484 0.77505 0.0
H842 H 0.59492 0.25472 0.87163 0.0
H843 H 0.57331 0.22069 0.89106 0.0
H844 H 0.63001 0.27087 0.84079 0.0
H845 H 0.63083 0.26862 0.80506 0.0
C846 C 0.44028 0.59835 0.97509 0.0
C847 C 0.43318 0.60889 -0.00016 0.0
C848 C 0.42915 0.64905 0.97428 0.0
C849 C 0.43214 0.63598 0.94921 0.0
N850 N 0.43639 0.59567 0.92514 0.0
N851 N 0.41543 0.64075 0.02262 0.0
C852 C 0.43679 0.61003 0.94941 0.0
C853 C 0.42617 0.63333 -0.00064 0.0
N854 N 0.451 0.57768 0.97623 0.0
N855 N 0.43035 0.67712 0.97422 0.0
H856 H 0.41261 0.62965 0.04145 0.0
H857 H 0.4065 0.65591 0.02265 0.0
H858 H 0.43364 0.68986 0.95629 0.0
H859 H 0.43156 0.68935 0.99215 0.0
H860 H 0.45982 0.57162 0.95919 0.0
H861 H 0.45374 0.56862 0.99471 0.0
H862 H 0.43605 0.57459 0.92411 0.0
H863 H 0.43365 0.60343 0.90595 0.0
C864 C 0.8129 0.42808 0.16984 0.0
C865 C 0.83749 0.42048 0.17374 0.0
C866 C 0.83153 0.40347 0.12538 0.0
C867 C 0.8091 0.41372 0.12094 0.0
N868 N 0.78345 0.44164 0.13743 0.0
N869 N 0.87393 0.40531 0.15486 0.0
C870 C 0.80108 0.42759 0.14277 0.0
C871 C 0.84791 0.40943 0.15138 0.0
N872 N 0.80019 0.43498 0.19209 0.0
N873 N 0.83613 0.3869 0.10516 0.0
H874 H 0.8862 0.40907 0.17373 0.0
H875 H 0.88501 0.40061 0.13865 0.0
H876 H 0.8243 0.38179 0.08595 0.0
H877 H 0.84943 0.3759 0.10817 0.0
H878 H 0.77964 0.43717 0.19082 0.0
H879 H 0.80837 0.43586 0.2123 0.0
H880 H 0.77984 0.45501 0.15198 0.0
H881 H 0.77507 0.4426 0.11774 0.0
loop_
_geom_bond_atom_site_label_1
_geom_bond_atom_site_label_2
_geom_bond_distance
_geom_bond_site_symmetry_2
_ccdc_geom_bond_type
H0 C27 0.929 . S
N1 C26 1.433 . S
N1 C32 1.435 . S
N1 C38 1.423 . S
H2 C28 0.930 . S
H3 C31 0.931 . S
H4 C30 0.929 . S
H5 C33 0.930 . S
H6 C34 0.932 . S
H7 C37 0.929 . S
H8 C36 0.931 . S
H9 C39 0.929 . S
H10 C43 0.932 . S
H11 C40 0.931 . S
H12 C42 0.929 . S
H13 C45 0.929 . S
H14 C46 0.930 . S
H15 C48 0.929 . S
H16 C49 0.931 . S
H17 C51 0.930 . S
H18 C52 0.932 . S
H19 C54 0.931 . S
H20 C55 0.929 . S
H21 C57 0.929 . S
H22 C58 0.931 . S
H23 C60 0.929 . S
N24 C44 1.433 . S
N24 C50 1.435 . S
N24 C56 1.423 . S
H25 C61 0.932 . S
C26 N1 1.433 . S
C26 C27 1.363 . S
C26 C31 1.370 . S
C27 H0 0.929 . S
C27 C26 1.363 . S
C27 C28 1.385 . S
C28 H2 0.930 . S
C28 C27 1.385 . S
C28 C29 1.357 . S
C29 C28 1.357 . S
C29 C30 1.406 . S
C30 H4 0.929 . S
C30 C29 1.406 . S
C30 C31 1.391 . S
C31 H3 0.931 . S
C31 C26 1.370 . S
C31 C30 1.391 . S
C32 N1 1.435 . S
C32 C33 1.358 . S
C32 C37 1.371 . S
C33 H5 0.930 . S
C33 C32 1.358 . S
C33 C34 1.405 . S
C34 H6 0.932 . S
C34 C33 1.405 . S
C34 C35 1.383 . S
C35 C34 1.383 . S
C35 C36 1.393 . S
C36 H8 0.931 . S
C36 C35 1.393 . S
C36 C37 1.382 . S
C37 H7 0.929 . S
C37 C32 1.371 . S
C37 C36 1.382 . S
C38 N1 1.423 . S
C38 C39 1.362 . S
C38 C43 1.388 . S
C39 H9 0.929 . S
C39 C38 1.362 . S
C39 C40 1.376 . S
C40 H11 0.931 . S
C40 C39 1.376 . S
C40 C41 1.396 . S
C41 C40 1.396 . S
C41 C42 1.348 . S
C41 C59 1.472 1_455 S
C42 H12 0.929 . S
C42 C41 1.348 . S
C42 C43 1.443 . S
C43 H10 0.932 . S
C43 C38 1.388 . S
C43 C42 1.443 . S
C44 N24 1.433 . S
C44 C45 1.363 . S
C44 C49 1.370 . S
C45 H13 0.929 . S
C45 C44 1.363 . S
C45 C46 1.385 . S
C46 H14 0.930 . S
C46 C45 1.385 . S
C46 C47 1.357 . S
C47 C46 1.357 . S
C47 C48 1.406 . S
C48 H15 0.929 . S
C48 C47 1.406 . S
C48 C49 1.391 . S
C49 H16 0.931 . S
C49 C44 1.370 . S
C49 C48 1.391 . S
C50 N24 1.435 . S
C50 C51 1.358 . S
C50 C55 1.371 . S
C51 H17 0.930 . S
C51 C50 1.358 . S
C51 C52 1.405 . S
C52 H18 0.932 . S
C52 C51 1.405 . S
C52 C53 1.383 . S
C53 C52 1.383 . S
C53 C54 1.393 . S
C54 H19 0.931 . S
C54 C53 1.393 . S
C54 C55 1.382 . S
C55 H20 0.929 . S
C55 C50 1.371 . S
C55 C54 1.382 . S
C56 N24 1.423 . S
C56 C57 1.362 . S
C56 C61 1.388 . S
C57 H21 0.929 . S
C57 C56 1.362 . S
C57 C58 1.376 . S
C58 H22 0.931 . S
C58 C57 1.376 . S
C58 C59 1.396 . S
C59 C41 1.472 1_655 S
C59 C58 1.396 . S
C59 C60 1.348 . S
C60 H23 0.929 . S
C60 C59 1.348 . S
C60 C61 1.443 . S
C61 H25 0.932 . S
C61 C56 1.388 . S
C61 C60 1.443 . S
H62 C89 0.929 . S
N63 C88 1.433 . S
N63 C94 1.435 . S
N63 C100 1.423 . S
H64 C90 0.930 . S
H65 C93 0.931 . S
H66 C92 0.929 . S
H67 C95 0.930 . S
H68 C96 0.932 . S
H69 C99 0.929 . S
H70 C98 0.931 . S
H71 C101 0.929 . S
H72 C105 0.932 . S
H73 C102 0.931 . S
H74 C104 0.929 1_545 S
H75 C107 0.929 . S
H76 C108 0.930 . S
H77 C110 0.929 . S
H78 C111 0.931 . S
H79 C113 0.930 . S
H80 C114 0.932 . S
H81 C116 0.931 . S
H82 C117 0.929 . S
H83 C119 0.929 . S
H84 C120 0.931 . S
H85 C122 0.929 . S
N86 C106 1.433 . S
N86 C112 1.435 . S
N86 C118 1.423 . S
H87 C123 0.932 . S
C88 N63 1.433 . S
C88 C89 1.363 . S
C88 C93 1.370 . S
C89 H62 0.929 . S
C89 C88 1.363 . S
C89 C90 1.385 . S
C90 H64 0.930 . S
C90 C89 1.385 . S
C90 C91 1.357 . S
C91 C90 1.357 . S
C91 C92 1.406 . S
C92 H66 0.929 . S
C92 C91 1.406 . S
C92 C93 1.391 . S
C93 H65 0.931 . S
C93 C88 1.370 . S
C93 C92 1.391 . S
C94 N63 1.435 . S
C94 C95 1.358 . S
C94 C99 1.371 . S
C95 H67 0.930 . S
C95 C94 1.358 . S
C95 C96 1.405 . S
C96 H68 0.932 . S
C96 C95 1.405 . S
C96 C97 1.383 . S
C97 C96 1.383 . S
C97 C98 1.393 . S
C98 H70 0.931 . S
C98 C97 1.393 . S
C98 C99 1.382 . S
C99 H69 0.929 . S
C99 C94 1.371 . S
C99 C98 1.382 . S
C100 N63 1.423 . S
C100 C101 1.362 . S
C100 C105 1.388 . S
C101 H71 0.929 . S
C101 C100 1.362 . S
C101 C102 1.376 . S
C102 H73 0.931 . S
C102 C101 1.376 . S
C102 C103 1.396 1_565 S
C103 C102 1.396 1_545 S
C103 C104 1.348 1_545 S
C103 C121 1.472 . S
C104 H74 0.929 1_565 S
C104 C103 1.348 1_565 S
C104 C105 1.443 . S
C105 H72 0.932 . S
C105 C100 1.388 . S
C105 C104 1.443 . S
C106 N86 1.433 . S
C106 C107 1.363 . S
C106 C111 1.370 . S
C107 H75 0.929 . S
C107 C106 1.363 . S
C107 C108 1.385 . S
C108 H76 0.930 . S
C108 C107 1.385 . S
C108 C109 1.357 . S
C109 C108 1.357 . S
C109 C110 1.406 . S
C110 H77 0.929 . S
C110 C109 1.406 . S
C110 C111 1.391 . S
C111 H78 0.931 . S
C111 C106 1.370 . S
C111 C110 1.391 . S
C112 N86 1.435 . S
C112 C113 1.358 . S
C112 C117 1.371 . S
C113 H79 0.930 . S
C113 C112 1.358 . S
C113 C114 1.405 . S
C114 H80 0.932 . S
C114 C113 1.405 . S
C114 C115 1.383 . S
C115 C114 1.383 . S
C115 C116 1.393 . S
C116 H81 0.931 . S
C116 C115 1.393 . S
C116 C117 1.382 . S
C117 H82 0.929 . S
C117 C112 1.371 . S
C117 C116 1.382 . S
C118 N86 1.423 . S
C118 C119 1.362 . S
C118 C123 1.388 . S
C119 H83 0.929 . S
C119 C118 1.362 . S
C119 C120 1.376 . S
C120 H84 0.931 . S
C120 C119 1.376 . S
C120 C121 1.396 . S
C121 C103 1.472 . S
C121 C120 1.396 . S
C121 C122 1.348 . S
C122 H85 0.929 . S
C122 C121 1.348 . S
C122 C123 1.443 . S
C123 H87 0.932 . S
C123 C118 1.388 . S
C123 C122 1.443 . S
H124 C151 0.929 . S
N125 C150 1.433 . S
N125 C156 1.435 . S
N125 C162 1.423 . S
H126 C152 0.930 . S
H127 C155 0.931 . S
H128 C154 0.929 . S
H129 C157 0.930 . S
H130 C158 0.932 . S
H131 C161 0.929 . S
H132 C160 0.931 . S
H133 C163 0.929 . S
H134 C167 0.932 . S
H135 C164 0.931 . S
H136 C166 0.929 . S
H137 C169 0.929 . S
H138 C170 0.930 . S
H139 C172 0.929 . S
H140 C173 0.931 . S
H141 C175 0.930 . S
H142 C176 0.932 . S
H143 C178 0.931 . S
H144 C179 0.929 . S
H145 C181 0.929 . S
H146 C182 0.931 . S
H147 C184 0.929 . S
N148 C168 1.433 . S
N148 C174 1.435 . S
N148 C180 1.423 . S
H149 C185 0.932 . S
C150 N125 1.433 . S
C150 C151 1.363 . S
C150 C155 1.370 . S
C151 H124 0.929 . S
C151 C150 1.363 . S
C151 C152 1.385 . S
C152 H126 0.930 . S
C152 C151 1.385 . S
C152 C153 1.357 . S
C153 C152 1.357 . S
C153 C154 1.406 . S
C154 H128 0.929 . S
C154 C153 1.406 . S
C154 C155 1.391 . S
C155 H127 0.931 . S
C155 C150 1.370 . S
C155 C154 1.391 . S
C156 N125 1.435 . S
C156 C157 1.358 . S
C156 C161 1.371 . S
C157 H129 0.930 . S
C157 C156 1.358 . S
C157 C158 1.405 . S
C158 H130 0.932 . S
C158 C157 1.405 . S
C158 C159 1.383 . S
C159 C158 1.383 . S
C159 C160 1.393 . S
C160 H132 0.931 . S
C160 C159 1.393 . S
C160 C161 1.382 . S
C161 H131 0.929 . S
C161 C156 1.371 . S
C161 C160 1.382 . S
C162 N125 1.423 . S
C162 C163 1.362 . S
C162 C167 1.388 . S
C163 H133 0.929 . S
C163 C162 1.362 . S
C163 C164 1.376 . S
C164 H135 0.931 . S
C164 C163 1.376 . S
C164 C165 1.396 . S
C165 C164 1.396 . S
C165 C166 1.348 . S
C165 C183 1.472 . S
C166 H136 0.929 . S
C166 C165 1.348 . S
C166 C167 1.443 . S
C167 H134 0.932 . S
C167 C162 1.388 . S
C167 C166 1.443 . S
C168 N148 1.433 . S
C168 C169 1.363 . S
C168 C173 1.370 . S
C169 H137 0.929 . S
C169 C168 1.363 . S
C169 C170 1.385 . S
C170 H138 0.930 . S
C170 C169 1.385 . S
C170 C171 1.357 . S
C171 C170 1.357 . S
C171 C172 1.406 . S
C172 H139 0.929 . S
C172 C171 1.406 . S
C172 C173 1.391 . S
C173 H140 0.931 . S
C173 C168 1.370 . S
C173 C172 1.391 . S
C174 N148 1.435 . S
C174 C175 1.358 . S
C174 C179 1.371 . S
C175 H141 0.930 . S
C175 C174 1.358 . S
C175 C176 1.405 . S
C176 H142 0.932 . S
C176 C175 1.405 . S
C176 C177 1.383 . S
C177 C176 1.383 . S
C177 C178 1.393 . S
C178 H143 0.931 . S
C178 C177 1.393 . S
C178 C179 1.382 . S
C179 H144 0.929 . S
C179 C174 1.371 . S
C179 C178 1.382 . S
C180 N148 1.423 . S
C180 C181 1.362 . S
C180 C185 1.388 . S
C181 H145 0.929 . S
C181 C180 1.362 . S
C181 C182 1.376 . S
C182 H146 0.931 . S
C182 C181 1.376 . S
C182 C183 1.396 . S
C183 C165 1.472 . S
C183 C182 1.396 . S
C183 C184 1.348 . S
C184 H147 0.929 . S
C184 C183 1.348 . S
C184 C185 1.443 . S
C185 H149 0.932 . S
C185 C180 1.388 . S
C185 C184 1.443 . S
H186 C213 0.929 . S
N187 C212 1.433 . S
N187 C218 1.435 . S
N187 C224 1.423 . S
H188 C214 0.930 . S
H189 C217 0.931 . S
H190 C216 0.929 . S
H191 C219 0.930 . S
H192 C220 0.932 . S
H193 C223 0.929 . S
H194 C222 0.931 . S
H195 C225 0.929 . S
H196 C229 0.932 . S
H197 C226 0.931 . S
H198 C228 0.929 . S
H199 C231 0.929 . S
H200 C232 0.930 . S
H201 C234 0.929 . S
H202 C235 0.931 . S
H203 C237 0.930 . S
H204 C238 0.932 . S
H205 C240 0.931 . S
H206 C241 0.929 . S
H207 C243 0.929 . S
H208 C244 0.931 . S
H209 C246 0.929 . S
N210 C230 1.433 . S
N210 C236 1.435 . S
N210 C242 1.423 . S
H211 C247 0.932 . S
C212 N187 1.433 . S
C212 C213 1.363 . S
C212 C217 1.370 . S
C213 H186 0.929 . S
C213 C212 1.363 . S
C213 C214 1.385 . S
C214 H188 0.930 . S
C214 C213 1.385 . S
C214 C215 1.357 . S
C215 C214 1.357 . S
C215 C216 1.406 . S
C216 H190 0.929 . S
C216 C215 1.406 . S
C216 C217 1.391 . S
C217 H189 0.931 . S
C217 C212 1.370 . S
C217 C216 1.391 . S
C218 N187 1.435 . S
C218 C219 1.358 . S
C218 C223 1.371 . S
C219 H191 0.930 . S
C219 C218 1.358 . S
C219 C220 1.405 . S
C220 H192 0.932 . S
C220 C219 1.405 . S
C220 C221 1.383 . S
C221 C220 1.383 . S
C221 C222 1.393 . S
C222 H194 0.931 . S
C222 C221 1.393 . S
C222 C223 1.382 . S
C223 H193 0.929 . S
C223 C218 1.371 . S
C223 C222 1.382 . S
C224 N187 1.423 . S
C224 C225 1.362 . S
C224 C229 1.388 . S
C225 H195 0.929 . S
C225 C224 1.362 . S
C225 C226 1.376 . S
C226 H197 0.931 . S
C226 C225 1.376 . S
C226 C227 1.396 . S
C227 C226 1.396 . S
C227 C228 1.348 . S
C227 C245 1.472 1_455 S
C228 H198 0.929 . S
C228 C227 1.348 . S
C228 C229 1.443 . S
C229 H196 0.932 . S
C229 C224 1.388 . S
C229 C228 1.443 . S
C230 N210 1.433 . S
C230 C231 1.363 . S
C230 C235 1.370 . S
C231 H199 0.929 . S
C231 C230 1.363 . S
C231 C232 1.385 . S
C232 H200 0.930 . S
C232 C231 1.385 . S
C232 C233 1.357 . S
C233 C232 1.357 . S
C233 C234 1.406 . S
C234 H201 0.929 . S
C234 C233 1.406 . S
C234 C235 1.391 . S
C235 H202 0.931 . S
C235 C230 1.370 . S
C235 C234 1.391 . S
C236 N210 1.435 . S
C236 C237 1.358 . S
C236 C241 1.371 . S
C237 H203 0.930 . S
C237 C236 1.358 . S
C237 C238 1.405 . S
C238 H204 0.932 . S
C238 C237 1.405 . S
C238 C239 1.383 . S
C239 C238 1.383 . S
C239 C240 1.393 . S
C240 H205 0.931 . S
C240 C239 1.393 . S
C240 C241 1.382 . S
C241 H206 0.929 . S
C241 C236 1.371 . S
C241 C240 1.382 . S
C242 N210 1.423 . S
C242 C243 1.362 . S
C242 C247 1.388 . S
C243 H207 0.929 . S
C243 C242 1.362 . S
C243 C244 1.376 . S
C244 H208 0.931 . S
C244 C243 1.376 . S
C244 C245 1.396 . S
C245 C227 1.472 1_655 S
C245 C244 1.396 . S
C245 C246 1.348 . S
C246 H209 0.929 . S
C246 C245 1.348 . S
C246 C247 1.443 . S
C247 H211 0.932 . S
C247 C242 1.388 . S
C247 C246 1.443 . S
H248 C275 0.929 . S
N249 C274 1.433 . S
N249 C280 1.435 . S
N249 C286 1.423 . S
H250 C276 0.930 . S
H251 C279 0.931 . S
H252 C278 0.929 . S
H253 C281 0.930 . S
H254 C282 0.932 . S
H255 C285 0.929 . S
H256 C284 0.931 . S
H257 C287 0.929 . S
H258 C291 0.932 . S
H259 C288 0.931 . S
H260 C290 0.929 . S
H261 C293 0.929 . S
H262 C294 0.930 . S
H263 C296 0.929 . S
H264 C297 0.931 . S
H265 C299 0.942 . S
H266 C300 0.932 . S
H267 C302 0.931 . S
H268 C303 0.929 . S
H269 C305 0.929 . S
H270 C306 0.924 1_554 S
H271 C308 0.929 . S
N272 C292 1.433 . S
N272 C298 1.435 1_554 S
N272 C304 1.423 1_554 S
H273 C309 0.932 . S
C274 N249 1.433 . S
C274 C275 1.363 . S
C274 C279 1.370 . S
C275 H248 0.929 . S
C275 C274 1.363 . S
C275 C276 1.385 . S
C276 H250 0.930 . S
C276 C275 1.385 . S
C276 C277 1.357 1_556 S
C277 C276 1.357 1_554 S
C277 C278 1.406 . S
C278 H252 0.929 . S
C278 C277 1.406 . S
C278 C279 1.391 1_554 S
C279 H251 0.931 . S
C279 C274 1.370 . S
C279 C278 1.391 1_556 S
C280 N249 1.435 . S
C280 C281 1.358 . S
C280 C285 1.371 . S
C281 H253 0.930 . S
C281 C280 1.358 . S
C281 C282 1.405 . S
C282 H254 0.932 . S
C282 C281 1.405 . S
C282 C283 1.383 . S
C283 C282 1.383 . S
C283 C284 1.393 . S
C284 H256 0.931 . S
C284 C283 1.393 . S
C284 C285 1.382 . S
C285 H255 0.929 . S
C285 C280 1.371 . S
C285 C284 1.382 . S
C286 N249 1.423 . S
C286 C287 1.362 . S
C286 C291 1.388 . S
C287 H257 0.929 . S
C287 C286 1.362 . S
C287 C288 1.376 . S
C288 H259 0.931 . S
C288 C287 1.376 . S
C288 C289 1.396 . S
C289 C288 1.396 . S
C289 C290 1.348 . S
C289 C307 1.472 1_545 S
C290 H260 0.929 . S
C290 C289 1.348 . S
C290 C291 1.443 . S
C291 H258 0.932 . S
C291 C286 1.388 . S
C291 C290 1.443 . S
C292 N272 1.433 . S
C292 C293 1.363 . S
C292 C297 1.370 . S
C293 H261 0.929 . S
C293 C292 1.363 . S
C293 C294 1.385 . S
C294 H262 0.930 . S
C294 C293 1.385 . S
C294 C295 1.357 . S
C295 C294 1.357 . S
C295 C296 1.406 . S
C296 H263 0.929 . S
C296 C295 1.406 . S
C296 C297 1.391 . S
C297 H264 0.931 . S
C297 C292 1.370 . S
C297 C296 1.391 . S
C298 N272 1.435 1_556 S
C298 C299 1.354 1_556 S
C298 C303 1.371 . S
C299 H265 0.942 . S
C299 C298 1.354 1_554 S
C299 C300 1.397 1_554 S
C300 H266 0.932 . S
C300 C299 1.397 1_556 S
C300 C301 1.383 . S
C301 C300 1.383 . S
C301 C302 1.393 . S
C302 H267 0.931 . S
C302 C301 1.393 . S
C302 C303 1.382 . S
C303 H268 0.929 . S
C303 C298 1.371 . S
C303 C302 1.382 . S
C304 N272 1.423 1_556 S
C304 C305 1.362 1_556 S
C304 C309 1.388 . S
C305 H269 0.929 . S
C305 C304 1.362 1_554 S
C305 C306 1.370 1_554 S
C306 H270 0.924 1_556 S
C306 C305 1.370 1_556 S
C306 C307 1.410 . S
C307 C289 1.472 1_565 S
C307 C306 1.410 . S
C307 C308 1.348 . S
C308 H271 0.929 . S
C308 C307 1.348 . S
C308 C309 1.443 . S
C309 H273 0.932 . S
C309 C304 1.388 . S
C309 C308 1.443 . S
H310 C337 0.929 . S
N311 C336 1.433 . S
N311 C342 1.435 . S
N311 C348 1.423 . S
H312 C338 0.930 . S
H313 C341 0.931 . S
H314 C340 0.929 . S
H315 C343 0.930 . S
H316 C344 0.932 . S
H317 C347 0.929 . S
H318 C346 0.931 . S
H319 C349 0.929 . S
H320 C353 0.932 . S
H321 C350 0.931 . S
H322 C352 0.929 . S
H323 C355 0.929 . S
H324 C356 0.930 . S
H325 C358 0.929 . S
H326 C359 0.931 . S
H327 C361 0.930 . S
H328 C362 0.932 . S
H329 C364 0.931 . S
H330 C365 0.929 . S
H331 C367 0.929 . S
H332 C368 0.931 . S
H333 C370 0.929 . S
N334 C354 1.433 . S
N334 C360 1.435 . S
N334 C366 1.423 . S
H335 C371 0.932 . S
C336 N311 1.433 . S
C336 C337 1.363 . S
C336 C341 1.370 . S
C337 H310 0.929 . S
C337 C336 1.363 . S
C337 C338 1.385 . S
C338 H312 0.930 . S
C338 C337 1.385 . S
C338 C339 1.357 . S
C339 C338 1.357 . S
C339 C340 1.406 . S
C340 H314 0.929 . S
C340 C339 1.406 . S
C340 C341 1.391 . S
C341 H313 0.931 . S
C341 C336 1.370 . S
C341 C340 1.391 . S
C342 N311 1.435 . S
C342 C343 1.358 . S
C342 C347 1.371 . S
C343 H315 0.930 . S
C343 C342 1.358 . S
C343 C344 1.405 . S
C344 H316 0.932 . S
C344 C343 1.405 . S
C344 C345 1.383 . S
C345 C344 1.383 . S
C345 C346 1.393 . S
C346 H318 0.931 . S
C346 C345 1.393 . S
C346 C347 1.382 . S
C347 H317 0.929 . S
C347 C342 1.371 . S
C347 C346 1.382 . S
C348 N311 1.423 . S
C348 C349 1.362 . S
C348 C353 1.388 . S
C349 H319 0.929 . S
C349 C348 1.362 . S
C349 C350 1.376 . S
C350 H321 0.931 . S
C350 C349 1.376 . S
C350 C351 1.396 . S
C351 C350 1.396 . S
C351 C352 1.348 . S
C351 C369 1.472 . S
C352 H322 0.929 . S
C352 C351 1.348 . S
C352 C353 1.443 . S
C353 H320 0.932 . S
C353 C348 1.388 . S
C353 C352 1.443 . S
C354 N334 1.433 . S
C354 C355 1.363 . S
C354 C359 1.370 . S
C355 H323 0.929 . S
C355 C354 1.363 . S
C355 C356 1.385 . S
C356 H324 0.930 . S
C356 C355 1.385 . S
C356 C357 1.357 . S
C357 C356 1.357 . S
C357 C358 1.406 . S
C358 H325 0.929 . S
C358 C357 1.406 . S
C358 C359 1.391 . S
C359 H326 0.931 . S
C359 C354 1.370 . S
C359 C358 1.391 . S
C360 N334 1.435 . S
C360 C361 1.358 . S
C360 C365 1.371 . S
C361 H327 0.930 . S
C361 C360 1.358 . S
C361 C362 1.405 . S
C362 H328 0.932 . S
C362 C361 1.405 . S
C362 C363 1.383 . S
C363 C362 1.383 . S
C363 C364 1.393 . S
C364 H329 0.931 . S
C364 C363 1.393 . S
C364 C365 1.382 . S
C365 H330 0.929 . S
C365 C360 1.371 . S
C365 C364 1.382 . S
C366 N334 1.423 . S
C366 C367 1.362 . S
C366 C371 1.388 . S
C367 H331 0.929 . S
C367 C366 1.362 . S
C367 C368 1.376 . S
C368 H332 0.931 . S
C368 C367 1.376 . S
C368 C369 1.396 . S
C369 C351 1.472 . S
C369 C368 1.396 . S
C369 C370 1.348 . S
C370 H333 0.929 . S
C370 C369 1.348 . S
C370 C371 1.443 . S
C371 H335 0.932 . S
C371 C366 1.388 . S
C371 C370 1.443 . S
C372 O373 1.160 . S
C372 O379 1.185 . S
O373 C372 1.160 . S
O374 Zn375 1.899 . S
O374 C382 1.284 . S
Zn375 O374 1.899 . S
Zn375 O376 2.032 . S
Zn375 O379 2.086 . S
Zn375 O384 1.977 . S
O376 Zn375 2.032 . S
O376 C380 1.278 . S
C377 O378 1.203 . S
C377 O384 1.267 . S
O378 C377 1.203 . S
O379 C372 1.185 . S
O379 Zn375 2.086 . S
C380 O376 1.278 . S
C380 O381 1.211 . S
O381 C380 1.211 . S
C382 O374 1.284 . S
C382 O383 1.273 . S
O383 C382 1.273 . S
O384 Zn375 1.977 . S
O384 C377 1.267 . S
C385 O386 1.160 . S
C385 O392 1.185 . S
O386 C385 1.160 . S
O387 Zn388 1.899 . S
O387 C395 1.284 . S
Zn388 O387 1.899 . S
Zn388 O389 2.032 . S
Zn388 O392 2.086 . S
Zn388 O397 1.977 . S
O389 Zn388 2.032 . S
O389 C393 1.278 . S
C390 O391 1.203 . S
C390 O397 1.267 . S
O391 C390 1.203 . S
O392 C385 1.185 . S
O392 Zn388 2.086 . S
C393 O389 1.278 . S
C393 O394 1.211 . S
O394 C393 1.211 . S
C395 O387 1.284 . S
C395 O396 1.273 . S
O396 C395 1.273 . S
O397 Zn388 1.977 . S
O397 C390 1.267 . S
C398 O399 1.160 . S
C398 O405 1.185 . S
O399 C398 1.160 . S
O400 Zn401 1.899 . S
O400 C408 1.284 . S
Zn401 O400 1.899 . S
Zn401 O402 2.032 . S
Zn401 O405 2.086 . S
Zn401 O410 1.977 . S
O402 Zn401 2.032 . S
O402 C406 1.278 . S
C403 O404 1.203 . S
C403 O410 1.267 . S
O404 C403 1.203 . S
O405 C398 1.185 . S
O405 Zn401 2.086 . S
C406 O402 1.278 . S
C406 O407 1.211 . S
O407 C406 1.211 . S
C408 O400 1.284 . S
C408 O409 1.273 . S
O409 C408 1.273 . S
O410 Zn401 1.977 . S
O410 C403 1.267 . S
C411 O412 1.160 . S
C411 O418 1.185 . S
O412 C411 1.160 . S
O413 Zn414 1.899 . S
O413 C421 1.284 . S
Zn414 O413 1.899 . S
Zn414 O415 2.032 . S
Zn414 O418 2.086 . S
Zn414 O423 1.977 . S
O415 Zn414 2.032 . S
O415 C419 1.278 . S
C416 O417 1.203 . S
C416 O423 1.267 . S
O417 C416 1.203 . S
O418 C411 1.185 . S
O418 Zn414 2.086 . S
C419 O415 1.278 . S
C419 O420 1.211 . S
O420 C419 1.211 . S
C421 O413 1.284 . S
C421 O422 1.273 . S
O422 C421 1.273 . S
O423 Zn414 1.977 . S
O423 C416 1.267 . S
C424 O425 1.160 . S
C424 O431 1.185 . S
O425 C424 1.160 . S
O426 Zn427 1.899 . S
O426 C434 1.284 . S
Zn427 O426 1.899 . S
Zn427 O428 2.032 . S
Zn427 O431 2.086 . S
Zn427 O436 1.977 . S
O428 Zn427 2.032 . S
O428 C432 1.278 . S
C429 O430 1.203 . S
C429 O436 1.267 . S
O430 C429 1.203 . S
O431 C424 1.185 . S
O431 Zn427 2.086 . S
C432 O428 1.278 . S
C432 O433 1.211 . S
O433 C432 1.211 . S
C434 O426 1.284 . S
C434 O435 1.273 . S
O435 C434 1.273 . S
O436 Zn427 1.977 . S
O436 C429 1.267 . S
C437 O438 1.160 . S
C437 O444 1.185 . S
O438 C437 1.160 . S
O439 Zn440 1.899 . S
O439 C447 1.284 . S
Zn440 O439 1.899 . S
Zn440 O441 2.032 . S
Zn440 O444 2.086 . S
Zn440 O449 1.977 . S
O441 Zn440 2.032 . S
O441 C445 1.278 . S
C442 O443 1.203 . S
C442 O449 1.267 . S
O443 C442 1.203 . S
O444 C437 1.185 . S
O444 Zn440 2.086 . S
C445 O441 1.278 . S
C445 O446 1.211 . S
O446 C445 1.211 . S
C447 O439 1.284 . S
C447 O448 1.273 . S
O448 C447 1.273 . S
O449 Zn440 1.977 . S
O449 C442 1.267 . S
C450 C451 1.363 . S
C450 C456 1.379 . S
C450 N458 1.356 . S
C451 C450 1.363 . S
C451 C457 1.363 . S
C452 C453 1.363 . S
C452 C457 1.379 . S
C452 N459 1.356 . S
C453 C452 1.363 . S
C453 C456 1.363 . S
N454 C456 1.356 . S
N454 H466 0.984 . S
N454 H467 0.985 . S
N455 C457 1.356 . S
N455 H460 0.984 . S
N455 H461 0.985 . S
C456 C450 1.379 . S
C456 C453 1.363 . S
C456 N454 1.356 . S
C457 C451 1.363 . S
C457 C452 1.379 . S
C457 N455 1.356 . S
N458 C450 1.356 . S
N458 H464 0.984 . S
N458 H465 0.984 . S
N459 C452 1.356 . S
N459 H462 0.984 . S
N459 H463 0.985 . S
H460 N455 0.984 . S
H461 N455 0.985 . S
H462 N459 0.984 . S
H463 N459 0.985 . S
H464 N458 0.984 . S
H465 N458 0.984 . S
H466 N454 0.984 . S
H467 N454 0.985 . S
C468 C469 1.363 . S
C468 C474 1.379 . S
C468 N476 1.356 . S
C469 C468 1.363 . S
C469 C475 1.363 . S
C470 C471 1.363 . S
C470 C475 1.379 . S
C470 N477 1.356 . S
C471 C470 1.363 . S
C471 C474 1.363 . S
N472 C474 1.356 . S
N472 H484 0.984 . S
N472 H485 0.985 . S
N473 C475 1.356 . S
N473 H478 0.984 . S
N473 H479 0.985 . S
C474 C468 1.379 . S
C474 C471 1.363 . S
C474 N472 1.356 . S
C475 C469 1.363 . S
C475 C470 1.379 . S
C475 N473 1.356 . S
N476 C468 1.356 . S
N476 H482 0.984 . S
N476 H483 0.984 . S
N477 C470 1.356 . S
N477 H480 0.984 . S
N477 H481 0.985 . S
H478 N473 0.984 . S
H479 N473 0.985 . S
H480 N477 0.984 . S
H481 N477 0.985 . S
H482 N476 0.984 . S
H483 N476 0.984 . S
H484 N472 0.984 . S
H485 N472 0.985 . S
C486 C487 1.363 . S
C486 C492 1.379 . S
C486 N494 1.356 . S
C487 C486 1.363 . S
C487 C493 1.363 . S
C488 C489 1.363 . S
C488 C493 1.379 . S
C488 N495 1.356 . S
C489 C488 1.363 . S
C489 C492 1.363 . S
N490 C492 1.356 . S
N490 H502 0.984 . S
N490 H503 0.985 . S
N491 C493 1.356 . S
N491 H496 0.984 . S
N491 H497 0.985 . S
C492 C486 1.379 . S
C492 C489 1.363 . S
C492 N490 1.356 . S
C493 C487 1.363 . S
C493 C488 1.379 . S
C493 N491 1.356 . S
N494 C486 1.356 . S
N494 H500 0.984 . S
N494 H501 0.984 . S
N495 C488 1.356 . S
N495 H498 0.984 . S
N495 H499 0.985 . S
H496 N491 0.984 . S
H497 N491 0.985 . S
H498 N495 0.984 . S
H499 N495 0.985 . S
H500 N494 0.984 . S
H501 N494 0.984 . S
H502 N490 0.984 . S
H503 N490 0.985 . S
C504 C505 1.363 . S
C504 C510 1.379 . S
C504 N512 1.356 . S
C505 C504 1.363 . S
C505 C511 1.363 . S
C506 C507 1.363 . S
C506 C511 1.379 . S
C506 N513 1.356 . S
C507 C506 1.363 . S
C507 C510 1.363 . S
N508 C510 1.356 . S
N508 H520 0.984 . S
N508 H521 0.985 . S
N509 C511 1.356 . S
N509 H514 0.984 . S
N509 H515 0.985 . S
C510 C504 1.379 . S
C510 C507 1.363 . S
C510 N508 1.356 . S
C511 C505 1.363 . S
C511 C506 1.379 . S
C511 N509 1.356 . S
N512 C504 1.356 . S
N512 H518 0.984 . S
N512 H519 0.984 . S
N513 C506 1.356 . S
N513 H516 0.984 . S
N513 H517 0.985 . S
H514 N509 0.984 . S
H515 N509 0.985 . S
H516 N513 0.984 . S
H517 N513 0.985 . S
H518 N512 0.984 . S
H519 N512 0.984 . S
H520 N508 0.984 . S
H521 N508 0.985 . S
C522 C523 1.363 . S
C522 C528 1.379 . S
C522 N530 1.356 . S
C523 C522 1.363 . S
C523 C529 1.363 . S
C524 C525 1.363 . S
C524 C529 1.379 . S
C524 N531 1.356 . S
C525 C524 1.363 . S
C525 C528 1.363 . S
N526 C528 1.356 . S
N526 H538 0.984 . S
N526 H539 0.985 . S
N527 C529 1.356 . S
N527 H532 0.984 . S
N527 H533 0.985 . S
C528 C522 1.379 . S
C528 C525 1.363 . S
C528 N526 1.356 . S
C529 C523 1.363 . S
C529 C524 1.379 . S
C529 N527 1.356 . S
N530 C522 1.356 . S
N530 H536 0.984 . S
N530 H537 0.984 . S
N531 C524 1.356 . S
N531 H534 0.984 . S
N531 H535 0.985 . S
H532 N527 0.984 . S
H533 N527 0.985 . S
H534 N531 0.984 . S
H535 N531 0.985 . S
H536 N530 0.984 . S
H537 N530 0.984 . S
H538 N526 0.984 . S
H539 N526 0.985 . S
C540 C541 1.363 . S
C540 C546 1.379 . S
C540 N548 1.356 . S
C541 C540 1.363 . S
C541 C547 1.363 . S
C542 C543 1.363 . S
C542 C547 1.379 . S
C542 N549 1.356 . S
C543 C542 1.363 . S
C543 C546 1.363 . S
N544 C546 1.356 . S
N544 H556 0.984 . S
N544 H557 0.985 . S
N545 C547 1.356 . S
N545 H550 0.984 . S
N545 H551 0.985 . S
C546 C540 1.379 . S
C546 C543 1.363 . S
C546 N544 1.356 . S
C547 C541 1.363 . S
C547 C542 1.379 . S
C547 N545 1.356 . S
N548 C540 1.356 . S
N548 H554 0.984 . S
N548 H555 0.984 . S
N549 C542 1.356 . S
N549 H552 0.984 . S
N549 H553 0.985 . S
H550 N545 0.984 . S
H551 N545 0.985 . S
H552 N549 0.984 . S
H553 N549 0.985 . S
H554 N548 0.984 . S
H555 N548 0.984 . S
H556 N544 0.984 . S
H557 N544 0.985 . S
C558 C559 1.363 . S
C558 C564 1.379 . S
C558 N566 1.356 . S
C559 C558 1.363 . S
C559 C565 1.363 . S
C560 C561 1.363 . S
C560 C565 1.379 . S
C560 N567 1.356 . S
C561 C560 1.363 . S
C561 C564 1.363 . S
N562 C564 1.356 . S
N562 H574 0.984 . S
N562 H575 0.985 . S
N563 C565 1.356 . S
N563 H568 0.984 . S
N563 H569 0.985 . S
C564 C558 1.379 . S
C564 C561 1.363 . S
C564 N562 1.356 . S
C565 C559 1.363 . S
C565 C560 1.379 . S
C565 N563 1.356 . S
N566 C558 1.356 . S
N566 H572 0.984 . S
N566 H573 0.984 . S
N567 C560 1.356 . S
N567 H570 0.984 . S
N567 H571 0.985 . S
H568 N563 0.984 . S
H569 N563 0.985 . S
H570 N567 0.984 . S
H571 N567 0.985 . S
H572 N566 0.984 . S
H573 N566 0.984 . S
H574 N562 0.984 . S
H575 N562 0.985 . S
C576 C577 1.363 . S
C576 C582 1.379 . S
C576 N584 1.356 . S
C577 C576 1.363 . S
C577 C583 1.363 . S
C578 C579 1.363 . S
C578 C583 1.379 . S
C578 N585 1.356 . S
C579 C578 1.363 . S
C579 C582 1.363 . S
N580 C582 1.356 . S
N580 H592 0.984 . S
N580 H593 0.985 . S
N581 C583 1.356 . S
N581 H586 0.984 . S
N581 H587 0.985 . S
C582 C576 1.379 . S
C582 C579 1.363 . S
C582 N580 1.356 . S
C583 C577 1.363 . S
C583 C578 1.379 . S
C583 N581 1.356 . S
N584 C576 1.356 . S
N584 H590 0.984 . S
N584 H591 0.984 . S
N585 C578 1.356 . S
N585 H588 0.984 . S
N585 H589 0.985 . S
H586 N581 0.984 . S
H587 N581 0.985 . S
H588 N585 0.984 . S
H589 N585 0.985 . S
H590 N584 0.984 . S
H591 N584 0.984 . S
H592 N580 0.984 . S
H593 N580 0.985 . S
C594 C595 1.363 . S
C594 C600 1.379 . S
C594 N602 1.356 . S
C595 C594 1.363 . S
C595 C601 1.363 . S
C596 C597 1.363 . S
C596 C601 1.379 . S
C596 N603 1.356 . S
C597 C596 1.363 . S
C597 C600 1.363 . S
N598 C600 1.356 . S
N598 H610 0.984 . S
N598 H611 0.985 . S
N599 C601 1.356 . S
N599 H604 0.984 . S
N599 H605 0.985 . S
C600 C594 1.379 . S
C600 C597 1.363 . S
C600 N598 1.356 . S
C601 C595 1.363 . S
C601 C596 1.379 . S
C601 N599 1.356 . S
N602 C594 1.356 . S
N602 H608 0.984 . S
N602 H609 0.984 . S
N603 C596 1.356 . S
N603 H606 0.984 . S
N603 H607 0.985 . S
H604 N599 0.984 . S
H605 N599 0.985 . S
H606 N603 0.984 . S
H607 N603 0.985 . S
H608 N602 0.984 . S
H609 N602 0.984 . S
H610 N598 0.984 . S
H611 N598 0.985 . S
C612 C613 1.363 . S
C612 C618 1.379 . S
C612 N620 1.356 . S
C613 C612 1.363 . S
C613 C619 1.363 . S
C614 C615 1.363 . S
C614 C619 1.379 . S
C614 N621 1.356 . S
C615 C614 1.363 . S
C615 C618 1.363 . S
N616 C618 1.356 . S
N616 H628 0.984 . S
N616 H629 0.985 . S
N617 C619 1.356 . S
N617 H622 0.984 . S
N617 H623 0.985 1_554 S
C618 C612 1.379 . S
C618 C615 1.363 . S
C618 N616 1.356 . S
C619 C613 1.363 . S
C619 C614 1.379 . S
C619 N617 1.356 . S
N620 C612 1.356 . S
N620 H626 0.984 . S
N620 H627 0.984 . S
N621 C614 1.356 . S
N621 H624 0.984 . S
N621 H625 1.010 . S
H622 N617 0.984 . S
H623 N617 0.985 1_556 S
H624 N621 0.984 . S
H625 N621 1.010 . S
H626 N620 0.984 . S
H627 N620 0.984 . S
H628 N616 0.984 . S
H629 N616 0.985 . S
C630 C631 1.363 . S
C630 C636 1.379 . S
C630 N638 1.356 . S
C631 C630 1.363 . S
C631 C637 1.363 . S
C632 C633 1.363 . S
C632 C637 1.379 . S
C632 N639 1.356 . S
C633 C632 1.363 . S
C633 C636 1.363 . S
N634 C636 1.356 . S
N634 H646 0.984 . S
N634 H647 0.985 . S
N635 C637 1.356 . S
N635 H640 0.984 . S
N635 H641 0.985 . S
C636 C630 1.379 . S
C636 C633 1.363 . S
C636 N634 1.356 . S
C637 C631 1.363 . S
C637 C632 1.379 . S
C637 N635 1.356 . S
N638 C630 1.356 . S
N638 H644 0.984 . S
N638 H645 0.984 . S
N639 C632 1.356 . S
N639 H642 0.984 . S
N639 H643 0.985 . S
H640 N635 0.984 . S
H641 N635 0.985 . S
H642 N639 0.984 . S
H643 N639 0.985 . S
H644 N638 0.984 . S
H645 N638 0.984 . S
H646 N634 0.984 . S
H647 N634 0.985 . S
C648 C649 1.363 . S
C648 C654 1.379 . S
C648 N656 1.356 . S
C649 C648 1.363 . S
C649 C655 1.363 . S
C650 C651 1.363 . S
C650 C655 1.379 . S
C650 N657 1.356 . S
C651 C650 1.363 . S
C651 C654 1.363 . S
N652 C654 1.356 . S
N652 H664 0.984 . S
N652 H665 0.985 . S
N653 C655 1.356 . S
N653 H658 0.984 . S
N653 H659 0.985 . S
C654 C648 1.379 . S
C654 C651 1.363 . S
C654 N652 1.356 . S
C655 C649 1.363 . S
C655 C650 1.379 . S
C655 N653 1.356 . S
N656 C648 1.356 . S
N656 H662 0.984 . S
N656 H663 0.984 . S
N657 C650 1.356 . S
N657 H660 0.984 . S
N657 H661 0.985 . S
H658 N653 0.984 . S
H659 N653 0.985 . S
H660 N657 0.984 . S
H661 N657 0.985 . S
H662 N656 0.984 . S
H663 N656 0.984 . S
H664 N652 0.984 . S
H665 N652 0.985 . S
C666 C667 1.363 . S
C666 C672 1.379 . S
C666 N674 1.356 . S
C667 C666 1.363 . S
C667 C673 1.363 . S
C668 C669 1.363 . S
C668 C673 1.379 . S
C668 N675 1.356 . S
C669 C668 1.363 . S
C669 C672 1.363 . S
N670 C672 1.356 . S
N670 H682 0.984 . S
N670 H683 0.985 . S
N671 C673 1.356 . S
N671 H676 0.984 . S
N671 H677 0.985 . S
C672 C666 1.379 . S
C672 C669 1.363 . S
C672 N670 1.356 . S
C673 C667 1.363 . S
C673 C668 1.379 . S
C673 N671 1.356 . S
N674 C666 1.356 . S
N674 H680 0.984 . S
N674 H681 0.984 . S
N675 C668 1.356 . S
N675 H678 0.984 . S
N675 H679 0.985 . S
H676 N671 0.984 . S
H677 N671 0.985 . S
H678 N675 0.984 . S
H679 N675 0.985 . S
H680 N674 0.984 . S
H681 N674 0.984 . S
H682 N670 0.984 . S
H683 N670 0.985 . S
C684 C685 1.363 . S
C684 C690 1.379 . S
C684 N692 1.356 . S
C685 C684 1.363 . S
C685 C691 1.363 . S
C686 C687 1.363 . S
C686 C691 1.379 . S
C686 N693 1.356 . S
C687 C686 1.363 . S
C687 C690 1.363 . S
N688 C690 1.356 . S
N688 H700 0.984 . S
N688 H701 0.985 . S
N689 C691 1.356 . S
N689 H694 0.984 . S
N689 H695 0.985 . S
C690 C684 1.379 . S
C690 C687 1.363 . S
C690 N688 1.356 . S
C691 C685 1.363 . S
C691 C686 1.379 . S
C691 N689 1.356 . S
N692 C684 1.356 . S
N692 H698 0.984 . S
N692 H699 0.984 . S
N693 C686 1.356 . S
N693 H696 0.984 . S
N693 H697 0.985 . S
H694 N689 0.984 . S
H695 N689 0.985 . S
H696 N693 0.984 . S
H697 N693 0.985 . S
H698 N692 0.984 . S
H699 N692 0.984 . S
H700 N688 0.984 . S
H701 N688 0.985 . S
C702 C703 1.363 . S
C702 C708 1.379 . S
C702 N710 1.356 . S
C703 C702 1.363 . S
C703 C709 1.363 . S
C704 C705 1.363 . S
C704 C709 1.379 . S
C704 N711 1.356 . S
C705 C704 1.363 . S
C705 C708 1.363 . S
N706 C708 1.356 . S
N706 H718 0.984 . S
N706 H719 0.985 . S
N707 C709 1.356 . S
N707 H712 0.984 . S
N707 H713 0.985 . S
C708 C702 1.379 . S
C708 C705 1.363 . S
C708 N706 1.356 . S
C709 C703 1.363 . S
C709 C704 1.379 . S
C709 N707 1.356 . S
N710 C702 1.356 . S
N710 H716 0.984 . S
N710 H717 0.984 . S
N711 C704 1.356 . S
N711 H714 0.984 . S
N711 H715 0.985 . S
H712 N707 0.984 . S
H713 N707 0.985 . S
H714 N711 0.984 . S
H715 N711 0.985 . S
H716 N710 0.984 . S
H717 N710 0.984 . S
H718 N706 0.984 . S
H719 N706 0.985 . S
C720 C721 1.363 . S
C720 C726 1.379 . S
C720 N728 1.356 . S
C721 C720 1.363 . S
C721 C727 1.363 . S
C722 C723 1.363 . S
C722 C727 1.379 . S
C722 N729 1.356 . S
C723 C722 1.363 . S
C723 C726 1.363 . S
N724 C726 1.356 . S
N724 H736 0.984 . S
N724 H737 0.985 . S
N725 C727 1.356 . S
N725 H730 0.984 . S
N725 H731 0.985 . S
C726 C720 1.379 . S
C726 C723 1.363 . S
C726 N724 1.356 . S
C727 C721 1.363 . S
C727 C722 1.379 . S
C727 N725 1.356 . S
N728 C720 1.356 . S
N728 H734 0.984 . S
N728 H735 0.984 . S
N729 C722 1.356 . S
N729 H732 0.984 1_556 S
N729 H733 0.985 . S
H730 N725 0.984 . S
H731 N725 0.985 . S
H732 N729 0.984 1_554 S
H733 N729 0.985 . S
H734 N728 0.984 . S
H735 N728 0.984 . S
H736 N724 0.984 . S
H737 N724 0.985 . S
C738 C739 1.363 . S
C738 C744 1.379 . S
C738 N746 1.356 . S
C739 C738 1.363 . S
C739 C745 1.363 . S
C740 C741 1.363 . S
C740 C745 1.379 . S
C740 N747 1.356 . S
C741 C740 1.363 . S
C741 C744 1.363 . S
N742 C744 1.356 . S
N742 H754 0.984 . S
N742 H755 0.985 . S
N743 C745 1.356 . S
N743 H748 0.984 . S
N743 H749 0.985 . S
C744 C738 1.379 . S
C744 C741 1.363 . S
C744 N742 1.356 . S
C745 C739 1.363 . S
C745 C740 1.379 . S
C745 N743 1.356 . S
N746 C738 1.356 . S
N746 H752 0.984 . S
N746 H753 0.984 . S
N747 C740 1.356 . S
N747 H750 0.984 . S
N747 H751 0.985 . S
H748 N743 0.984 . S
H749 N743 0.985 . S
H750 N747 0.984 . S
H751 N747 0.985 . S
H752 N746 0.984 . S
H753 N746 0.984 . S
H754 N742 0.984 . S
H755 N742 0.985 . S
C756 C757 1.363 . S
C756 C762 1.379 . S
C756 N764 1.356 . S
C757 C756 1.363 . S
C757 C763 1.363 . S
C758 C759 1.363 . S
C758 C763 1.379 . S
C758 N765 1.356 . S
C759 C758 1.363 . S
C759 C762 1.363 . S
N760 C762 1.356 . S
N760 H772 0.984 . S
N760 H773 0.985 . S
N761 C763 1.356 . S
N761 H766 0.984 . S
N761 H767 0.985 . S
C762 C756 1.379 . S
C762 C759 1.363 . S
C762 N760 1.356 . S
C763 C757 1.363 . S
C763 C758 1.379 . S
C763 N761 1.356 . S
N764 C756 1.356 . S
N764 H770 0.984 . S
N764 H771 0.984 . S
N765 C758 1.356 . S
N765 H768 0.984 . S
N765 H769 0.985 . S
H766 N761 0.984 . S
H767 N761 0.985 . S
H768 N765 0.984 . S
H769 N765 0.985 . S
H770 N764 0.984 . S
H771 N764 0.984 . S
H772 N760 0.984 . S
H773 N760 0.985 . S
C774 C775 1.363 . S
C774 C780 1.379 . S
C774 N782 1.356 . S
C775 C774 1.363 . S
C775 C781 1.363 . S
C776 C777 1.363 . S
C776 C781 1.379 . S
C776 N783 1.356 . S
C777 C776 1.363 . S
C777 C780 1.363 . S
N778 C780 1.356 . S
N778 H790 0.984 . S
N778 H791 0.985 . S
N779 C781 1.356 . S
N779 H784 0.984 . S
N779 H785 0.985 . S
C780 C774 1.379 . S
C780 C777 1.363 . S
C780 N778 1.356 . S
C781 C775 1.363 . S
C781 C776 1.379 . S
C781 N779 1.356 . S
N782 C774 1.356 . S
N782 H788 0.984 . S
N782 H789 0.984 . S
N783 C776 1.356 . S
N783 H786 0.984 . S
N783 H787 0.985 . S
H784 N779 0.984 . S
H785 N779 0.985 . S
H786 N783 0.984 . S
H787 N783 0.985 . S
H788 N782 0.984 . S
H789 N782 0.984 . S
H790 N778 0.984 . S
H791 N778 0.985 . S
C792 C793 1.363 . S
C792 C798 1.379 . S
C792 N800 1.356 . S
C793 C792 1.363 . S
C793 C799 1.363 . S
C794 C795 1.363 . S
C794 C799 1.379 . S
C794 N801 1.356 . S
C795 C794 1.363 . S
C795 C798 1.363 . S
N796 C798 1.356 . S
N796 H808 0.984 . S
N796 H809 0.985 . S
N797 C799 1.356 . S
N797 H802 0.984 . S
N797 H803 0.985 . S
C798 C792 1.379 . S
C798 C795 1.363 . S
C798 N796 1.356 . S
C799 C793 1.363 . S
C799 C794 1.379 . S
C799 N797 1.356 . S
N800 C792 1.356 . S
N800 H806 0.984 . S
N800 H807 0.984 . S
N801 C794 1.356 . S
N801 H804 0.984 . S
N801 H805 0.985 . S
H802 N797 0.984 . S
H803 N797 0.985 . S
H804 N801 0.984 . S
H805 N801 0.985 . S
H806 N800 0.984 . S
H807 N800 0.984 . S
H808 N796 0.984 . S
H809 N796 0.985 . S
C810 C811 1.363 . S
C810 C816 1.379 . S
C810 N818 1.356 . S
C811 C810 1.363 . S
C811 C817 1.363 . S
C812 C813 1.363 . S
C812 C817 1.379 . S
C812 N819 1.356 . S
C813 C812 1.363 . S
C813 C816 1.363 . S
N814 C816 1.356 . S
N814 H826 0.984 . S
N814 H827 0.985 . S
N815 C817 1.356 . S
N815 H820 0.984 . S
N815 H821 0.985 . S
C816 C810 1.379 . S
C816 C813 1.363 . S
C816 N814 1.356 . S
C817 C811 1.363 . S
C817 C812 1.379 . S
C817 N815 1.356 . S
N818 C810 1.356 . S
N818 H824 0.984 . S
N818 H825 0.984 . S
N819 C812 1.356 . S
N819 H822 0.984 . S
N819 H823 0.985 . S
H820 N815 0.984 . S
H821 N815 0.985 . S
H822 N819 0.984 . S
H823 N819 0.985 . S
H824 N818 0.984 . S
H825 N818 0.984 . S
H826 N814 0.984 . S
H827 N814 0.985 . S
C828 C829 1.363 . S
C828 C834 1.379 . S
C828 N836 1.356 . S
C829 C828 1.363 . S
C829 C835 1.363 . S
C830 C831 1.363 . S
C830 C835 1.379 . S
C830 N837 1.356 . S
C831 C830 1.363 . S
C831 C834 1.363 . S
N832 C834 1.356 . S
N832 H844 0.984 . S
N832 H845 0.985 . S
N833 C835 1.356 . S
N833 H838 0.984 . S
N833 H839 0.985 . S
C834 C828 1.379 . S
C834 C831 1.363 . S
C834 N832 1.356 . S
C835 C829 1.363 . S
C835 C830 1.379 . S
C835 N833 1.356 . S
N836 C828 1.356 . S
N836 H842 0.984 . S
N836 H843 0.984 . S
N837 C830 1.356 . S
N837 H840 0.984 . S
N837 H841 0.985 . S
H838 N833 0.984 . S
H839 N833 0.985 . S
H840 N837 0.984 . S
H841 N837 0.985 . S
H842 N836 0.984 . S
H843 N836 0.984 . S
H844 N832 0.984 . S
H845 N832 0.985 . S
C846 C847 1.363 . S
C846 C852 1.379 . S
C846 N854 1.356 . S
C847 C846 1.363 . S
C847 C853 1.363 1_556 S
C848 C849 1.363 . S
C848 C853 1.379 1_556 S
C848 N855 1.356 . S
C849 C848 1.363 . S
C849 C852 1.363 . S
N850 C852 1.356 . S
N850 H862 0.984 . S
N850 H863 0.985 . S
N851 C853 1.356 . S
N851 H856 0.984 . S
N851 H857 0.985 . S
C852 C846 1.379 . S
C852 C849 1.363 . S
C852 N850 1.356 . S
C853 C847 1.363 1_554 S
C853 C848 1.379 1_554 S
C853 N851 1.356 . S
N854 C846 1.356 . S
N854 H860 0.984 . S
N854 H861 0.984 . S
N855 C848 1.356 . S
N855 H858 0.984 . S
N855 H859 0.985 1_556 S
H856 N851 0.984 . S
H857 N851 0.985 . S
H858 N855 0.984 . S
H859 N855 0.985 1_554 S
H860 N854 0.984 . S
H861 N854 0.984 . S
H862 N850 0.984 . S
H863 N850 0.985 . S
C864 C865 1.363 . S
C864 C870 1.379 . S
C864 N872 1.356 . S
C865 C864 1.363 . S
C865 C871 1.363 . S
C866 C867 1.363 . S
C866 C871 1.379 . S
C866 N873 1.356 . S
C867 C866 1.363 . S
C867 C870 1.363 . S
N868 C870 1.356 . S
N868 H880 0.984 . S
N868 H881 0.985 . S
N869 C871 1.356 . S
N869 H874 0.984 . S
N869 H875 0.985 . S
C870 C864 1.379 . S
C870 C867 1.363 . S
C870 N868 1.356 . S
C871 C865 1.363 . S
C871 C866 1.379 . S
C871 N869 1.356 . S
N872 C864 1.356 . S
N872 H878 0.984 . S
N872 H879 0.984 . S
N873 C866 1.356 . S
N873 H876 0.984 . S
N873 H877 0.985 . S
H874 N869 0.984 . S
H875 N869 0.985 . S
H876 N873 0.984 . S
H877 N873 0.985 . S
H878 N872 0.984 . S
H879 N872 0.984 . S
H880 N868 0.984 . S
H881 N868 0.985 . S
C453 C447 1.704 . S
C451 C29 1.623 . S
C469 C115 1.623 . S
C471 C372 1.513 . S
C487 C153 1.608 . S
C489 C395 1.716 . S
C505 C239 1.480 . S
C507 C408 1.492 . S
C525 C411 1.581 . S
C523 C301 1.671 . S
C541 C339 1.746 . S
C543 C424 1.763 . S
C559 C91 1.519 . S
C561 C385 1.537 . S
C577 C177 1.660 . S
C579 C398 1.549 . S
C595 C215 1.467 . S
C597 C421 1.550 . S
C615 C434 1.977 . S
C613 C277 1.853 . S
C633 C437 1.547 . S
C631 C363 1.637 . S
C651 C382 1.648 . S
C649 C53 1.631 . S
C667 C35 1.560 . S
C669 C393 1.556 . S
C685 C109 1.357 . S
C687 C406 1.429 . S
C705 C416 1.438 . S
C703 C159 1.464 . S
C721 C233 1.572 . S
C723 C429 1.661 1_556 S
C741 C445 1.512 . S
C739 C295 1.414 . S
C759 C377 1.328 . S
C757 C345 1.368 . S
C777 C442 1.406 . S
C775 C97 1.426 . S
C793 C171 1.388 . S
C795 C380 1.467 . S
C813 C390 1.518 . S
C811 C221 1.551 . S
C829 C283 1.407 . S
C831 C403 1.362 . S
C847 C357 1.373 1_556 S
C849 C419 1.465 . S
C865 C47 1.587 . S
C867 C432 1.675 . S
