# Generated by pormake.
# Topology ctn, (3,4)-cn, num edge types: 1
# Building blocks:
#     Node 0, Type 0, BuildingBlock: KAKCAD_clean_linker_0, # of connection points: 3
#     Node 1, Type 0, BuildingBlock: KAKCAD_clean_linker_0, # of connection points: 3
#     Node 2, Type 0, BuildingBlock: KAKCAD_clean_linker_0, # of connection points: 3
#     Node 3, Type 0, BuildingBlock: KAKCAD_clean_linker_0, # of connection points: 3
#     Node 4, Type 0, BuildingBlock: KAKCAD_clean_linker_0, # of connection points: 3
#     Node 5, Type 0, BuildingBlock: KAKCAD_clean_linker_0, # of connection points: 3
#     Node 6, Type 0, BuildingBlock: KAKCAD_clean_linker_0, # of connection points: 3
#     Node 7, Type 0, BuildingBlock: KAKCAD_clean_linker_0, # of connection points: 3
#     Node 8, Type 0, BuildingBlock: KAKCAD_clean_linker_0, # of connection points: 3
#     Node 9, Type 0, BuildingBlock: KAKCAD_clean_linker_0, # of connection points: 3
#     Node 10, Type 0, BuildingBlock: KAKCAD_clean_linker_0, # of connection points: 3
#     Node 11, Type 0, BuildingBlock: KAKCAD_clean_linker_0, # of connection points: 3
#     Node 12, Type 0, BuildingBlock: KAKCAD_clean_linker_0, # of connection points: 3
#     Node 13, Type 0, BuildingBlock: KAKCAD_clean_linker_0, # of connection points: 3
#     Node 14, Type 0, BuildingBlock: KAKCAD_clean_linker_0, # of connection points: 3
#     Node 15, Type 0, BuildingBlock: KAKCAD_clean_linker_0, # of connection points: 3
#     Node 16, Type 1, BuildingBlock: AZAVOO_clean_sbu_0, # of connection points: 4
#     Node 17, Type 1, BuildingBlock: AZAVOO_clean_sbu_0, # of connection points: 4
#     Node 18, Type 1, BuildingBlock: AZAVOO_clean_sbu_0, # of connection points: 4
#     Node 19, Type 1, BuildingBlock: AZAVOO_clean_sbu_0, # of connection points: 4
#     Node 20, Type 1, BuildingBlock: AZAVOO_clean_sbu_0, # of connection points: 4
#     Node 21, Type 1, BuildingBlock: AZAVOO_clean_sbu_0, # of connection points: 4
#     Node 22, Type 1, BuildingBlock: AZAVOO_clean_sbu_0, # of connection points: 4
#     Node 23, Type 1, BuildingBlock: AZAVOO_clean_sbu_0, # of connection points: 4
#     Node 24, Type 1, BuildingBlock: AZAVOO_clean_sbu_0, # of connection points: 4
#     Node 25, Type 1, BuildingBlock: AZAVOO_clean_sbu_0, # of connection points: 4
#     Node 26, Type 1, BuildingBlock: AZAVOO_clean_sbu_0, # of connection points: 4
#     Node 27, Type 1, BuildingBlock: AZAVOO_clean_sbu_0, # of connection points: 4
#     Edge 28, Type (0, 1), BuildingBlock: EZIPEK_clean_linker_0, # of connection points: 2
#     Edge 29, Type (0, 1), BuildingBlock: EZIPEK_clean_linker_0, # of connection points: 2
#     Edge 30, Type (0, 1), BuildingBlock: EZIPEK_clean_linker_0, # of connection points: 2
#     Edge 31, Type (0, 1), BuildingBlock: EZIPEK_clean_linker_0, # of connection points: 2
#     Edge 32, Type (0, 1), BuildingBlock: EZIPEK_clean_linker_0, # of connection points: 2
#     Edge 33, Type (0, 1), BuildingBlock: EZIPEK_clean_linker_0, # of connection points: 2
#     Edge 34, Type (0, 1), BuildingBlock: EZIPEK_clean_linker_0, # of connection points: 2
#     Edge 35, Type (0, 1), BuildingBlock: EZIPEK_clean_linker_0, # of connection points: 2
#     Edge 36, Type (0, 1), BuildingBlock: EZIPEK_clean_linker_0, # of connection points: 2
#     Edge 37, Type (0, 1), BuildingBlock: EZIPEK_clean_linker_0, # of connection points: 2
#     Edge 38, Type (0, 1), BuildingBlock: EZIPEK_clean_linker_0, # of connection points: 2
#     Edge 39, Type (0, 1), BuildingBlock: EZIPEK_clean_linker_0, # of connection points: 2
#     Edge 40, Type (0, 1), BuildingBlock: EZIPEK_clean_linker_0, # of connection points: 2
#     Edge 41, Type (0, 1), BuildingBlock: EZIPEK_clean_linker_0, # of connection points: 2
#     Edge 42, Type (0, 1), BuildingBlock: EZIPEK_clean_linker_0, # of connection points: 2
#     Edge 43, Type (0, 1), BuildingBlock: EZIPEK_clean_linker_0, # of connection points: 2
#     Edge 44, Type (0, 1), BuildingBlock: EZIPEK_clean_linker_0, # of connection points: 2
#     Edge 45, Type (0, 1), BuildingBlock: EZIPEK_clean_linker_0, # of connection points: 2
#     Edge 46, Type (0, 1), BuildingBlock: EZIPEK_clean_linker_0, # of connection points: 2
#     Edge 47, Type (0, 1), BuildingBlock: EZIPEK_clean_linker_0, # of connection points: 2
#     Edge 48, Type (0, 1), BuildingBlock: EZIPEK_clean_linker_0, # of connection points: 2
#     Edge 49, Type (0, 1), BuildingBlock: EZIPEK_clean_linker_0, # of connection points: 2
#     Edge 50, Type (0, 1), BuildingBlock: EZIPEK_clean_linker_0, # of connection points: 2
#     Edge 51, Type (0, 1), BuildingBlock: EZIPEK_clean_linker_0, # of connection points: 2
#     Edge 52, Type (0, 1), BuildingBlock: EZIPEK_clean_linker_0, # of connection points: 2
#     Edge 53, Type (0, 1), BuildingBlock: EZIPEK_clean_linker_0, # of connection points: 2
#     Edge 54, Type (0, 1), BuildingBlock: EZIPEK_clean_linker_0, # of connection points: 2
#     Edge 55, Type (0, 1), BuildingBlock: EZIPEK_clean_linker_0, # of connection points: 2
#     Edge 56, Type (0, 1), BuildingBlock: EZIPEK_clean_linker_0, # of connection points: 2
#     Edge 57, Type (0, 1), BuildingBlock: EZIPEK_clean_linker_0, # of connection points: 2
#     Edge 58, Type (0, 1), BuildingBlock: EZIPEK_clean_linker_0, # of connection points: 2
#     Edge 59, Type (0, 1), BuildingBlock: EZIPEK_clean_linker_0, # of connection points: 2
#     Edge 60, Type (0, 1), BuildingBlock: EZIPEK_clean_linker_0, # of connection points: 2
#     Edge 61, Type (0, 1), BuildingBlock: EZIPEK_clean_linker_0, # of connection points: 2
#     Edge 62, Type (0, 1), BuildingBlock: EZIPEK_clean_linker_0, # of connection points: 2
#     Edge 63, Type (0, 1), BuildingBlock: EZIPEK_clean_linker_0, # of connection points: 2
#     Edge 64, Type (0, 1), BuildingBlock: EZIPEK_clean_linker_0, # of connection points: 2
#     Edge 65, Type (0, 1), BuildingBlock: EZIPEK_clean_linker_0, # of connection points: 2
#     Edge 66, Type (0, 1), BuildingBlock: EZIPEK_clean_linker_0, # of connection points: 2
#     Edge 67, Type (0, 1), BuildingBlock: EZIPEK_clean_linker_0, # of connection points: 2
#     Edge 68, Type (0, 1), BuildingBlock: EZIPEK_clean_linker_0, # of connection points: 2
#     Edge 69, Type (0, 1), BuildingBlock: EZIPEK_clean_linker_0, # of connection points: 2
#     Edge 70, Type (0, 1), BuildingBlock: EZIPEK_clean_linker_0, # of connection points: 2
#     Edge 71, Type (0, 1), BuildingBlock: EZIPEK_clean_linker_0, # of connection points: 2
#     Edge 72, Type (0, 1), BuildingBlock: EZIPEK_clean_linker_0, # of connection points: 2
#     Edge 73, Type (0, 1), BuildingBlock: EZIPEK_clean_linker_0, # of connection points: 2
#     Edge 74, Type (0, 1), BuildingBlock: EZIPEK_clean_linker_0, # of connection points: 2
#     Edge 75, Type (0, 1), BuildingBlock: EZIPEK_clean_linker_0, # of connection points: 2
# Relax obj value: 0.002
# Max RMSD: 0.041
# Mean RMSD: 0.022
data_MOF--net-ctn--node1-AZAVOO_clean_sbu_0--node2-KAKCAD_clean_linker_0--edge1-EZIPEK_clean_linker_0
_symmetry_space_group_name_H-M    P1
_symmetry_Int_Tables_number       1
_symmetry_cell_setting            triclinic
loop_
_symmetry_equiv_pos_as_xyz
'x, y, z'
_cell_length_a     51.959075
_cell_length_b     52.789263
_cell_length_c     52.684813
_cell_angle_alpha  90.200556
_cell_angle_beta   93.361268
_cell_angle_gamma 93.457456
loop_
_atom_site_label
_atom_site_type_symbol
_atom_site_fract_x
_atom_site_fract_y
_atom_site_fract_z
_atom_type_partial_charge
C0 C 0.99404 0.09199 0.96295 0.0
C1 C 0.01652 0.10566 0.95609 0.0
C2 C 0.99578 0.06903 0.97593 0.0
C3 C 0.02005 0.05952 0.98234 0.0
C4 C 0.04238 0.07274 0.9742 0.0
C5 C 0.04061 0.09559 0.96119 0.0
C6 C 0.0225 0.03754 0.9997 0.0
C7 C 0.04118 0.01988 0.99627 0.0
C8 C 0.04603 0.00116 0.01456 0.0
C9 C 0.03143 -0.00011 0.03625 0.0
C10 C 0.01247 0.01725 0.03989 0.0
C11 C 0.00798 0.03578 0.02134 0.0
C12 C 0.99869 0.01737 0.06387 0.0
C13 C 0.98988 0.99456 0.07515 0.0
C14 C 0.99464 0.04052 0.07592 0.0
C15 C 0.982 0.04089 0.09854 0.0
C16 C 0.97329 0.01816 0.10971 0.0
C17 C 0.06751 0.98411 0.01185 0.0
C18 C 0.09125 0.99366 0.00302 0.0
C19 C 0.06481 0.95842 0.01879 0.0
C20 C 0.08544 0.94277 0.01727 0.0
C21 C 0.10908 0.95251 0.00872 0.0
C22 C 0.11183 0.97798 0.00143 0.0
C23 C 0.9773 0.99496 0.09793 0.0
H24 H 0.97531 0.09961 0.95919 0.0
H25 H 0.97822 0.05914 0.98166 0.0
H26 H 0.06139 0.0662 0.97911 0.0
H27 H 0.05814 0.10605 0.95615 0.0
H28 H 0.0522 0.02093 0.97943 0.0
H29 H 0.99376 0.04953 0.02426 0.0
H30 H 0.03576 0.98623 0.05096 0.0
H31 H 0.99256 0.97644 0.06629 0.0
H32 H 0.00166 0.05841 0.06812 0.0
H33 H 0.97927 0.05895 0.10753 0.0
H34 H 0.09417 0.01344 0.99793 0.0
H35 H 0.04674 0.95041 0.02542 0.0
H36 H 0.97076 0.97723 0.10642 0.0
H37 H 0.13004 0.98579 0.99497 0.0
H38 H 0.08308 0.92311 0.02298 0.0
C39 C 0.38101 0.74956 0.2962 0.0
C40 C 0.40002 0.73171 0.29815 0.0
C41 C 0.36036 0.74639 0.278 0.0
C42 C 0.35819 0.72508 0.26186 0.0
C43 C 0.37737 0.70746 0.26349 0.0
C44 C 0.39833 0.71093 0.28128 0.0
C45 C 0.33514 0.72041 0.2444 0.0
C46 C 0.33073 0.73621 0.22342 0.0
C47 C 0.30879 0.73153 0.20675 0.0
C48 C 0.29097 0.71137 0.21187 0.0
C49 C 0.29499 0.69562 0.23296 0.0
C50 C 0.31737 0.70011 0.249 0.0
C51 C 0.27574 0.67457 0.23807 0.0
C52 C 0.2491 0.67814 0.23491 0.0
C53 C 0.2838 0.65066 0.24571 0.0
C54 C 0.26563 0.63073 0.24988 0.0
C55 C 0.23915 0.63438 0.24642 0.0
C56 C 0.3042 0.74743 0.1839 0.0
C57 C 0.30841 0.774 0.18514 0.0
C58 C 0.29443 0.73605 0.16083 0.0
C59 C 0.28807 0.7509 0.13982 0.0
C60 C 0.2916 0.77736 0.14137 0.0
C61 C 0.30218 0.78887 0.16397 0.0
C62 C 0.23096 0.65818 0.23901 0.0
H63 H 0.38197 0.76569 0.30906 0.0
H64 H 0.34564 0.7601 0.27706 0.0
H65 H 0.37595 0.6909 0.25116 0.0
H66 H 0.41283 0.697 0.28246 0.0
H67 H 0.34471 0.75165 0.21977 0.0
H68 H 0.3207 0.68827 0.26549 0.0
H69 H 0.27384 0.70787 0.19932 0.0
H70 H 0.24225 0.69643 0.22943 0.0
H71 H 0.30414 0.64722 0.24804 0.0
H72 H 0.27219 0.6124 0.25563 0.0
H73 H 0.31573 0.78334 0.20266 0.0
H74 H 0.29148 0.71562 0.15906 0.0
H75 H 0.21055 0.66128 0.23647 0.0
H76 H 0.30498 0.80934 0.16538 0.0
H77 H 0.28007 0.74177 0.12241 0.0
C78 C 0.02835 0.49178 0.13529 0.0
C79 C 0.05482 0.49061 0.13182 0.0
C80 C 0.01037 0.48909 0.11448 0.0
C81 C 0.01856 0.48496 0.08989 0.0
C82 C 0.04515 0.48397 0.08654 0.0
C83 C 0.06311 0.48683 0.10731 0.0
C84 C 0.99945 0.48101 0.0679 0.0
C85 C 0.97845 0.49648 0.0646 0.0
C86 C 0.96009 0.49251 0.04402 0.0
C87 C 0.96296 0.47267 0.02671 0.0
C88 C 0.98389 0.45708 0.02968 0.0
C89 C 0.00203 0.46143 0.0503 0.0
C90 C 0.98645 0.4356 0.01188 0.0
C91 C 0.96486 0.41934 0.0044 0.0
C92 C 0.01075 0.43041 0.00332 0.0
C93 C 0.01357 0.40891 0.98843 0.0
C94 C 0.99216 0.39224 0.9819 0.0
C95 C 0.93805 0.50919 0.04053 0.0
C96 C 0.92526 0.51737 0.06163 0.0
C97 C 0.92987 0.51738 0.01612 0.0
C98 C 0.90969 0.53366 0.01295 0.0
C99 C 0.89745 0.54218 0.03414 0.0
C100 C 0.90519 0.53375 0.05845 0.0
C101 C 0.96772 0.3978 0.98956 0.0
H102 H 0.02165 0.49461 0.15412 0.0
H103 H 0.99001 0.48967 0.1177 0.0
H104 H 0.05207 0.48109 0.06781 0.0
H105 H 0.08348 0.48593 0.10431 0.0
H106 H 0.97677 0.51203 0.07778 0.0
H107 H 0.01777 0.44897 0.05315 0.0
H108 H 0.94883 0.46925 0.01094 0.0
H109 H 0.94595 0.42269 0.01087 0.0
H110 H 0.02766 0.44277 0.00848 0.0
H111 H 0.03257 0.40482 0.98268 0.0
H112 H 0.93074 0.5111 0.08063 0.0
H113 H 0.93946 0.51171 0.99949 0.0
H114 H 0.95105 0.38499 0.98479 0.0
H115 H 0.89587 0.54012 0.07499 0.0
H116 H 0.90398 0.54007 0.99406 0.0
C117 C 0.71355 0.7453 0.15296 0.0
C118 C 0.73813 0.74383 0.14357 0.0
C119 C 0.70882 0.76442 0.17019 0.0
C120 C 0.7289 0.78182 0.17943 0.0
C121 C 0.7538 0.77943 0.17069 0.0
C122 C 0.75819 0.76108 0.15258 0.0
C123 C 0.72406 0.80227 0.19804 0.0
C124 C 0.70424 0.79905 0.21505 0.0
C125 C 0.69981 0.81811 0.2327 0.0
C126 C 0.71633 0.8402 0.23425 0.0
C127 C 0.73662 0.84359 0.21787 0.0
C128 C 0.73963 0.82504 0.19929 0.0
C129 C 0.75563 0.86575 0.22082 0.0
C130 C 0.74776 0.89026 0.22566 0.0
C131 C 0.78212 0.86224 0.21915 0.0
C132 C 0.8003 0.88272 0.22212 0.0
C133 C 0.79239 0.90708 0.22689 0.0
C134 C 0.67837 0.81428 0.24999 0.0
C135 C 0.6541 0.80379 0.24063 0.0
C136 C 0.68226 0.81998 0.27609 0.0
C137 C 0.66259 0.81444 0.29257 0.0
C138 C 0.63875 0.8032 0.2832 0.0
C139 C 0.63446 0.79828 0.25711 0.0
C140 C 0.76604 0.9108 0.22868 0.0
H141 H 0.6978 0.73209 0.14632 0.0
H142 H 0.68925 0.76565 0.17584 0.0
H143 H 0.77015 0.79158 0.17781 0.0
H144 H 0.77738 0.7602 0.14574 0.0
H145 H 0.69257 0.78138 0.21524 0.0
H146 H 0.75431 0.82858 0.18577 0.0
H147 H 0.71362 0.85456 0.24843 0.0
H148 H 0.72751 0.89358 0.22689 0.0
H149 H 0.78889 0.84355 0.21594 0.0
H150 H 0.8206 0.87954 0.22091 0.0
H151 H 0.65043 0.79952 0.22057 0.0
H152 H 0.70079 0.82784 0.28391 0.0
H153 H 0.7597 0.92955 0.23245 0.0
H154 H 0.61616 0.78954 0.24963 0.0
H155 H 0.6662 0.81817 0.31274 0.0
C156 C 0.96983 0.00022 0.41827 0.0
C157 C 0.98061 0.00723 0.39532 0.0
C158 C 0.98581 0.99732 0.44029 0.0
C159 C 0.01278 0.00162 0.43971 0.0
C160 C 0.02333 0.00917 0.41673 0.0
C161 C 0.0074 0.01193 0.39478 0.0
C162 C 0.03015 0.99738 0.46257 0.0
C163 C 0.02625 0.97573 0.47758 0.0
C164 C 0.04395 0.9704 0.4978 0.0
C165 C 0.06584 0.98706 0.50287 0.0
C166 C 0.06993 0.00909 0.48828 0.0
C167 C 0.05167 0.01418 0.46844 0.0
C168 C 0.0934 0.02658 0.49324 0.0
C169 C 0.10418 0.03106 0.51814 0.0
C170 C 0.10508 0.03926 0.47299 0.0
C171 C 0.12625 0.05657 0.47756 0.0
C172 C 0.13667 0.0612 0.5024 0.0
C173 C 0.04011 0.94669 0.51263 0.0
C174 C 0.01541 0.9387 0.52021 0.0
C175 C 0.06079 0.93118 0.51812 0.0
C176 C 0.05664 0.90774 0.52998 0.0
C177 C 0.03179 0.89948 0.53663 0.0
C178 C 0.01129 0.91531 0.53214 0.0
C179 C 0.12577 0.04799 0.52263 0.0
H180 H 0.94915 0.99658 0.41899 0.0
H181 H 0.9771 0.99169 0.45774 0.0
H182 H 0.04402 0.01227 0.41552 0.0
H183 H 0.01603 0.01729 0.3772 0.0
H184 H 0.01004 0.96234 0.47277 0.0
H185 H 0.05408 0.03137 0.45744 0.0
H186 H 0.0798 0.98264 0.51802 0.0
H187 H 0.09565 0.02195 0.53427 0.0
H188 H 0.09794 0.03584 0.45349 0.0
H189 H 0.1345 0.06643 0.46167 0.0
H190 H 0.99916 0.95036 0.51652 0.0
H191 H 0.07998 0.93666 0.51231 0.0
H192 H 0.1336 0.05128 0.54195 0.0
H193 H 0.99198 0.90916 0.53711 0.0
H194 H 0.07262 0.89564 0.53315 0.0
C195 C 0.12782 0.70309 0.70926 0.0
C196 C 0.12595 0.726 0.69598 0.0
C197 C 0.14779 0.70034 0.72785 0.0
C198 C 0.1658 0.72068 0.73392 0.0
C199 C 0.16362 0.74377 0.72105 0.0
C200 C 0.14403 0.74632 0.70202 0.0
C201 C 0.18706 0.71772 0.75342 0.0
C202 C 0.20448 0.69866 0.75071 0.0
C203 C 0.22517 0.69616 0.76876 0.0
C204 C 0.22768 0.71237 0.79006 0.0
C205 C 0.21012 0.73119 0.79333 0.0
C206 C 0.1901 0.73405 0.77464 0.0
C207 C 0.21266 0.74741 0.81656 0.0
C208 C 0.21809 0.7365 0.84044 0.0
C209 C 0.21023 0.77379 0.8151 0.0
C210 C 0.21374 0.78896 0.83705 0.0
C211 C 0.2196 0.77792 0.86071 0.0
C212 C 0.2446 0.67711 0.76522 0.0
C213 C 0.23695 0.65207 0.75763 0.0
C214 C 0.2711 0.68394 0.76953 0.0
C215 C 0.28953 0.6662 0.76622 0.0
C216 C 0.28184 0.64128 0.75865 0.0
C217 C 0.25543 0.63425 0.75449 0.0
C218 C 0.22151 0.75161 0.86229 0.0
H219 H 0.11403 0.68722 0.70495 0.0
H220 H 0.14908 0.68241 0.73765 0.0
H221 H 0.17738 0.75965 0.72538 0.0
H222 H 0.14296 0.76412 0.69196 0.0
H223 H 0.20241 0.68639 0.73408 0.0
H224 H 0.17638 0.74845 0.77693 0.0
H225 H 0.24343 0.71034 0.80419 0.0
H226 H 0.21966 0.71621 0.84226 0.0
H227 H 0.2062 0.78274 0.79695 0.0
H228 H 0.21218 0.80928 0.83558 0.0
H229 H 0.21668 0.64621 0.7544 0.0
H230 H 0.27762 0.70314 0.77509 0.0
H231 H 0.22589 0.74281 0.88046 0.0
H232 H 0.24919 0.61506 0.74865 0.0
H233 H 0.30984 0.67196 0.7694 0.0
C234 C 0.95609 0.60311 0.50869 0.0
C235 C 0.98131 0.61105 0.51743 0.0
C236 C 0.9514 0.58074 0.49451 0.0
C237 C 0.97186 0.56576 0.48891 0.0
C238 C 0.99713 0.57369 0.49798 0.0
C239 C 0.00182 0.59621 0.51201 0.0
C240 C 0.96689 0.54212 0.47344 0.0
C241 C 0.98388 0.53596 0.45494 0.0
C242 C 0.97946 0.51372 0.44018 0.0
C243 C 0.95787 0.49727 0.44445 0.0
C244 C 0.9404 0.50312 0.46279 0.0
C245 C 0.94508 0.52574 0.47701 0.0
C246 C 0.91752 0.48554 0.46738 0.0
C247 C 0.90459 0.47119 0.44735 0.0
C248 C 0.90854 0.48274 0.492 0.0
C249 C 0.88739 0.46611 0.49646 0.0
C250 C 0.87512 0.45133 0.47659 0.0
C251 C 0.99752 0.50791 0.42033 0.0
C252 C 0.00749 0.52742 0.40491 0.0
C253 C 0.00544 0.48313 0.41701 0.0
C254 C 0.02345 0.47817 0.39914 0.0
C255 C 0.03391 0.49794 0.38447 0.0
C256 C 0.02555 0.52249 0.38723 0.0
C257 C 0.88381 0.45405 0.45198 0.0
H258 H 0.94006 0.61448 0.51255 0.0
H259 H 0.93179 0.57547 0.48752 0.0
H260 H 0.01329 0.56244 0.49434 0.0
H261 H 0.02142 0.60213 0.51856 0.0
H262 H 0.00062 0.5486 0.45193 0.0
H263 H 0.93177 0.53066 0.49103 0.0
H264 H 0.95471 0.47991 0.43342 0.0
H265 H 0.91046 0.47313 0.42805 0.0
H266 H 0.91817 0.49292 0.50808 0.0
H267 H 0.88107 0.46416 0.51563 0.0
H268 H 0.00141 0.5466 0.40658 0.0
H269 H 0.99829 0.46771 0.42868 0.0
H270 H 0.8746 0.44278 0.43639 0.0
H271 H 0.03331 0.53793 0.37591 0.0
H272 H 0.0297 0.45909 0.39718 0.0
C273 C 0.80904 0.72035 0.85929 0.0
C274 C 0.78485 0.71357 0.86859 0.0
C275 C 0.8107 0.73333 0.8363 0.0
C276 C 0.78817 0.73961 0.82214 0.0
C277 C 0.76398 0.73141 0.83089 0.0
C278 C 0.76235 0.7186 0.85395 0.0
C279 C 0.78989 0.75627 0.79947 0.0
C280 C 0.80931 0.75367 0.78232 0.0
C281 C 0.81201 0.77049 0.76188 0.0
C282 C 0.79488 0.79 0.75863 0.0
C283 C 0.77528 0.79291 0.77549 0.0
C284 C 0.77288 0.77585 0.79576 0.0
C285 C 0.75839 0.81467 0.77278 0.0
C286 C 0.75223 0.82838 0.79435 0.0
C287 C 0.74936 0.82272 0.74858 0.0
C288 C 0.7354 0.84449 0.74598 0.0
C289 C 0.7301 0.85849 0.76752 0.0
C290 C 0.83307 0.76817 0.74423 0.0
C291 C 0.85818 0.76315 0.75357 0.0
C292 C 0.82827 0.77128 0.7179 0.0
C293 C 0.84807 0.76929 0.7013 0.0
C294 C 0.873 0.76417 0.7107 0.0
C295 C 0.878 0.76121 0.73694 0.0
C296 C 0.73815 0.85003 0.79173 0.0
H297 H 0.82659 0.71667 0.87044 0.0
H298 H 0.82963 0.73952 0.83029 0.0
H299 H 0.74627 0.73548 0.82022 0.0
H300 H 0.74352 0.71344 0.86086 0.0
H301 H 0.82223 0.73838 0.78474 0.0
H302 H 0.75805 0.77821 0.80904 0.0
H303 H 0.79753 0.80361 0.74351 0.0
H304 H 0.75915 0.82299 0.81323 0.0
H305 H 0.75343 0.8124 0.73161 0.0
H306 H 0.72936 0.85083 0.72714 0.0
H307 H 0.86259 0.76102 0.77377 0.0
H308 H 0.80911 0.77492 0.71008 0.0
H309 H 0.73437 0.86076 0.80854 0.0
H310 H 0.89718 0.75727 0.74447 0.0
H311 H 0.8439 0.77151 0.68106 0.0
C312 C 0.30537 0.21818 0.35277 0.0
C313 C 0.28124 0.21157 0.36227 0.0
C314 C 0.3069 0.23059 0.32946 0.0
C315 C 0.28428 0.23646 0.31522 0.0
C316 C 0.26017 0.2282 0.32408 0.0
C317 C 0.25867 0.21595 0.34746 0.0
C318 C 0.28583 0.25319 0.29261 0.0
C319 C 0.3053 0.25089 0.27545 0.0
C320 C 0.30808 0.26809 0.25533 0.0
C321 C 0.29098 0.28766 0.2524 0.0
C322 C 0.27137 0.29028 0.26933 0.0
C323 C 0.26885 0.27282 0.28922 0.0
C324 C 0.25476 0.31228 0.26729 0.0
C325 C 0.24899 0.32554 0.28928 0.0
C326 C 0.24563 0.32099 0.24339 0.0
C327 C 0.2319 0.34297 0.2415 0.0
C328 C 0.22699 0.3565 0.26347 0.0
C329 C 0.32936 0.2662 0.23786 0.0
C330 C 0.35439 0.26111 0.24737 0.0
C331 C 0.32485 0.26977 0.21156 0.0
C332 C 0.34485 0.26807 0.19513 0.0
C333 C 0.36969 0.2628 0.2047 0.0
C334 C 0.3744 0.25947 0.23092 0.0
C335 C 0.23517 0.3474 0.28737 0.0
H336 H 0.32297 0.21501 0.36406 0.0
H337 H 0.32577 0.23684 0.32335 0.0
H338 H 0.24241 0.23198 0.31335 0.0
H339 H 0.23989 0.21092 0.35454 0.0
H340 H 0.31825 0.23561 0.2777 0.0
H341 H 0.25404 0.27498 0.30256 0.0
H342 H 0.2937 0.30157 0.23757 0.0
H343 H 0.25602 0.31964 0.30796 0.0
H344 H 0.24944 0.31105 0.22612 0.0
H345 H 0.22577 0.34985 0.2229 0.0
H346 H 0.35858 0.25866 0.26756 0.0
H347 H 0.30576 0.2735 0.20362 0.0
H348 H 0.23172 0.35779 0.30449 0.0
H349 H 0.39351 0.25541 0.23857 0.0
H350 H 0.3409 0.27057 0.17491 0.0
C351 C 0.53106 0.9979 0.63409 0.0
C352 C 0.55671 0.99214 0.63111 0.0
C353 C 0.51268 0.99506 0.61361 0.0
C354 C 0.51972 0.98674 0.58968 0.0
C355 C 0.54563 0.98136 0.58684 0.0
C356 C 0.56387 0.98384 0.60739 0.0
C357 C 0.50015 0.9833 0.56785 0.0
C358 C 0.48012 -6e-05 0.56421 0.0
C359 C 0.46151 0.99652 0.54375 0.0
C360 C 0.46336 0.97634 0.52658 0.0
C361 C 0.48342 0.95977 0.52969 0.0
C362 C 0.50148 0.96322 0.55048 0.0
C363 C 0.48549 0.93847 0.51159 0.0
C364 C 0.46367 0.92264 0.50388 0.0
C365 C 0.50969 0.93305 0.50299 0.0
C366 C 0.51224 0.91162 0.48797 0.0
C367 C 0.49064 0.89524 0.48132 0.0
C368 C 0.44029 0.01415 0.54024 0.0
C369 C 0.42787 0.02288 0.56134 0.0
C370 C 0.43242 0.02254 0.51582 0.0
C371 C 0.41282 0.03949 0.51264 0.0
C372 C 0.40086 0.04843 0.53381 0.0
C373 C 0.40836 0.03989 0.55814 0.0
C374 C 0.46625 0.90111 0.4889 0.0
H375 H 0.52526 0.00436 0.65232 0.0
H376 H 0.49289 0.99903 0.61668 0.0
H377 H 0.55197 0.97544 0.56864 0.0
H378 H 0.58367 0.97956 0.60473 0.0
H379 H 0.47932 0.01597 0.57696 0.0
H380 H 0.51626 0.94974 0.55346 0.0
H381 H 0.44917 0.97347 0.51077 0.0
H382 H 0.44482 0.92626 0.51034 0.0
H383 H 0.52677 0.94512 0.50832 0.0
H384 H 0.5312 0.90726 0.48231 0.0
H385 H 0.43315 0.01649 0.58034 0.0
H386 H 0.44176 0.01645 0.4992 0.0
H387 H 0.44944 0.8885 0.48406 0.0
H388 H 0.39926 0.04659 0.57467 0.0
H389 H 0.40729 0.04599 0.49373 0.0
C390 C 0.20812 0.25217 0.64326 0.0
C391 C 0.23346 0.24544 0.64007 0.0
C392 C 0.20316 0.26928 0.66249 0.0
C393 C 0.22354 0.28007 0.67853 0.0
C394 C 0.24876 0.27272 0.67561 0.0
C395 C 0.25365 0.25553 0.65659 0.0
C396 C 0.21888 0.29942 0.69793 0.0
C397 C 0.1989 0.29548 0.71456 0.0
C398 C 0.19582 0.31299 0.73421 0.0
C399 C 0.21288 0.33468 0.7369 0.0
C400 C 0.23246 0.33908 0.71999 0.0
C401 C 0.23529 0.3215 0.70052 0.0
C402 C 0.25089 0.3614 0.72314 0.0
C403 C 0.26678 0.36464 0.74553 0.0
C404 C 0.25399 0.37852 0.70307 0.0
C405 C 0.27312 0.3983 0.70513 0.0
C406 C 0.28983 0.40082 0.72705 0.0
C407 C 0.1755 0.30805 0.75251 0.0
C408 C 0.15045 0.29899 0.744 0.0
C409 C 0.18124 0.31174 0.77874 0.0
C410 C 0.1625 0.30597 0.79611 0.0
C411 C 0.13771 0.29651 0.78755 0.0
C412 C 0.13166 0.29333 0.7614 0.0
C413 C 0.28631 0.38407 0.74738 0.0
H414 H 0.19236 0.24465 0.63052 0.0
H415 H 0.18357 0.27469 0.66431 0.0
H416 H 0.26476 0.28041 0.68796 0.0
H417 H 0.27332 0.25053 0.65433 0.0
H418 H 0.18647 0.27824 0.7129 0.0
H419 H 0.25068 0.32482 0.68766 0.0
H420 H 0.21077 0.34833 0.75195 0.0
H421 H 0.26478 0.3515 0.76114 0.0
H422 H 0.24188 0.37632 0.68566 0.0
H423 H 0.27553 0.41109 0.6893 0.0
H424 H 0.1454 0.29624 0.7239 0.0
H425 H 0.20043 0.31841 0.78589 0.0
H426 H 0.29906 0.3857 0.7644 0.0
H427 H 0.11257 0.28605 0.75455 0.0
H428 H 0.16746 0.3084 0.81627 0.0
C429 C 0.87138 0.25479 0.79431 0.0
C430 C 0.88911 0.23584 0.79766 0.0
C431 C 0.85135 0.25219 0.77539 0.0
C432 C 0.84849 0.23037 0.75994 0.0
C433 C 0.86659 0.21174 0.76287 0.0
C434 C 0.88694 0.2146 0.78138 0.0
C435 C 0.82542 0.22596 0.7424 0.0
C436 C 0.81991 0.24301 0.72269 0.0
C437 C 0.79757 0.23881 0.7064 0.0
C438 C 0.78029 0.21798 0.71088 0.0
C439 C 0.78574 0.20084 0.73042 0.0
C440 C 0.8085 0.20472 0.74588 0.0
C441 C 0.76758 0.17889 0.73476 0.0
C442 C 0.74156 0.18251 0.73877 0.0
C443 C 0.7763 0.15424 0.73529 0.0
C444 C 0.75927 0.13351 0.73985 0.0
C445 C 0.7334 0.13717 0.74442 0.0
C446 C 0.79243 0.25555 0.68428 0.0
C447 C 0.79725 0.28204 0.68618 0.0
C448 C 0.78234 0.24495 0.66095 0.0
C449 C 0.77664 0.26044 0.64025 0.0
C450 C 0.78114 0.28679 0.64236 0.0
C451 C 0.79169 0.29756 0.66532 0.0
C452 C 0.72464 0.1618 0.74386 0.0
H453 H 0.87273 0.27128 0.80673 0.0
H454 H 0.83745 0.26666 0.77354 0.0
H455 H 0.86468 0.19476 0.75112 0.0
H456 H 0.90047 0.19984 0.78365 0.0
H457 H 0.83342 0.25901 0.71965 0.0
H458 H 0.81263 0.19163 0.7612 0.0
H459 H 0.76263 0.21485 0.69899 0.0
H460 H 0.7345 0.20141 0.73857 0.0
H461 H 0.79626 0.15105 0.73211 0.0
H462 H 0.76636 0.11462 0.7403 0.0
H463 H 0.80483 0.29081 0.7039 0.0
H464 H 0.77893 0.22461 0.65862 0.0
H465 H 0.70479 0.16497 0.74755 0.0
H466 H 0.79523 0.31793 0.66716 0.0
H467 H 0.76866 0.25188 0.62256 0.0
C468 C 0.51389 0.59058 0.4432 0.0
C469 C 0.52296 0.61192 0.45788 0.0
C470 C 0.51172 0.56658 0.45447 0.0
C471 C 0.51796 0.56395 0.48057 0.0
C472 C 0.52656 0.58536 0.49521 0.0
C473 C 0.52926 0.60908 0.48393 0.0
C474 C 0.51612 0.53907 0.49309 0.0
C475 C 0.53428 0.52122 0.48881 0.0
C476 C 0.53613 0.49977 0.50445 0.0
C477 C 0.51899 0.49622 0.5241 0.0
C478 C 0.50081 0.51416 0.52867 0.0
C479 C 0.49921 0.53524 0.5126 0.0
C480 C 0.48583 0.5127 0.55192 0.0
C481 C 0.47582 0.48932 0.56111 0.0
C482 C 0.48272 0.53494 0.56597 0.0
C483 C 0.47021 0.53385 0.58863 0.0
C484 C 0.46076 0.51053 0.59798 0.0
C485 C 0.55775 0.4828 0.50202 0.0
C486 C 0.56618 0.47653 0.47799 0.0
C487 C 0.57109 0.47387 0.52391 0.0
C488 C 0.59225 0.45908 0.52184 0.0
C489 C 0.60069 0.45308 0.49789 0.0
C490 C 0.58756 0.4619 0.47595 0.0
C491 C 0.46344 0.48823 0.58405 0.0
H492 H 0.50894 0.59248 0.42307 0.0
H493 H 0.50507 0.55018 0.44294 0.0
H494 H 0.5316 0.58362 0.51536 0.0
H495 H 0.53637 0.6253 0.49553 0.0
H496 H 0.54818 0.5251 0.47456 0.0
H497 H 0.48553 0.54944 0.51591 0.0
H498 H 0.52067 0.48011 0.53664 0.0
H499 H 0.47774 0.47187 0.55071 0.0
H500 H 0.49073 0.5532 0.55996 0.0
H501 H 0.46855 0.5512 0.59932 0.0
H502 H 0.55628 0.48295 0.46075 0.0
H503 H 0.56564 0.47881 0.54274 0.0
H504 H 0.45638 0.47004 0.59115 0.0
H505 H 0.59386 0.45742 0.4573 0.0
H506 H 0.60227 0.45253 0.53897 0.0
C507 C 0.46749 0.48912 0.90897 0.0
C508 C 0.47643 0.5053 0.8899 0.0
C509 C 0.48163 0.48758 0.93233 0.0
C510 C 0.50572 0.50127 0.93673 0.0
C511 C 0.51395 0.51812 0.91765 0.0
C512 C 0.4992 0.52054 0.89493 0.0
C513 C 0.52313 0.49675 0.95993 0.0
C514 C 0.52135 0.47357 0.97309 0.0
C515 C 0.53915 0.46833 0.99326 0.0
C516 C 0.56 0.48589 0.99935 0.0
C517 C 0.56241 0.5091 0.98645 0.0
C518 C 0.54308 0.51481 0.96788 0.0
C519 C 0.58566 0.52691 0.99119 0.0
C520 C 0.59811 0.52983 0.0156 0.0
C521 C 0.59596 0.54084 0.97096 0.0
C522 C 0.61759 0.55765 0.9751 0.0
C523 C 0.62984 0.56053 0.99943 0.0
C524 C 0.53625 0.44399 0.00723 0.0
C525 C 0.51177 0.43486 0.01447 0.0
C526 C 0.55762 0.42937 0.01276 0.0
C527 C 0.55438 0.40574 0.02449 0.0
C528 C 0.52978 0.39645 0.03097 0.0
C529 C 0.50858 0.41131 0.02626 0.0
C530 C 0.62012 0.54629 0.0196 0.0
H531 H 0.44988 0.47724 0.90556 0.0
H532 H 0.47379 0.47511 0.94656 0.0
H533 H 0.53242 0.52871 0.91938 0.0
H534 H 0.50648 0.53319 0.88049 0.0
H535 H 0.50679 0.4589 0.9672 0.0
H536 H 0.54398 0.53343 0.95941 0.0
H537 H 0.57447 0.48127 0.01396 0.0
H538 H 0.59069 0.5197 0.03171 0.0
H539 H 0.58747 0.53865 0.95176 0.0
H540 H 0.62484 0.5684 0.95927 0.0
H541 H 0.49502 0.44584 0.01078 0.0
H542 H 0.57666 0.43577 0.00723 0.0
H543 H 0.62932 0.54833 0.03856 0.0
H544 H 0.48945 0.40434 0.03108 0.0
H545 H 0.5709 0.39437 0.02783 0.0
C546 C 0.62576 0.20474 0.20953 0.0
C547 C 0.62379 0.22732 0.19568 0.0
C548 C 0.64565 0.20258 0.22832 0.0
C549 C 0.66344 0.22317 0.23403 0.0
C550 C 0.6611 0.24595 0.22066 0.0
C551 C 0.64161 0.24792 0.20143 0.0
C552 C 0.68476 0.22072 0.25356 0.0
C553 C 0.70269 0.20215 0.25083 0.0
C554 C 0.72348 0.20018 0.26886 0.0
C555 C 0.72555 0.21633 0.29018 0.0
C556 C 0.70748 0.23463 0.29347 0.0
C557 C 0.68738 0.23708 0.27478 0.0
C558 C 0.70972 0.25077 0.31672 0.0
C559 C 0.71502 0.23976 0.34058 0.0
C560 C 0.70748 0.27716 0.31528 0.0
C561 C 0.71122 0.2923 0.33724 0.0
C562 C 0.71705 0.28117 0.36087 0.0
C563 C 0.74351 0.18178 0.26534 0.0
C564 C 0.73662 0.15644 0.2583 0.0
C565 C 0.76982 0.1895 0.26939 0.0
C566 C 0.78883 0.1723 0.26653 0.0
C567 C 0.78191 0.14702 0.25968 0.0
C568 C 0.75569 0.13914 0.25563 0.0
C569 C 0.71863 0.25483 0.36243 0.0
H570 H 0.61216 0.18868 0.20545 0.0
H571 H 0.64708 0.18487 0.2385 0.0
H572 H 0.67471 0.26202 0.22473 0.0
H573 H 0.64045 0.26547 0.19094 0.0
H574 H 0.70094 0.18986 0.23421 0.0
H575 H 0.67333 0.25116 0.27707 0.0
H576 H 0.74137 0.21466 0.30432 0.0
H577 H 0.71647 0.21945 0.34233 0.0
H578 H 0.70354 0.28615 0.29713 0.0
H579 H 0.70991 0.31265 0.3358 0.0
H580 H 0.7165 0.14993 0.25525 0.0
H581 H 0.77573 0.20897 0.27453 0.0
H582 H 0.72299 0.24598 0.38058 0.0
H583 H 0.75005 0.11966 0.25034 0.0
H584 H 0.80898 0.1787 0.26961 0.0
C585 C 0.45628 0.09945 0.00878 0.0
C586 C 0.48152 0.10758 0.01726 0.0
C587 C 0.4516 0.07691 0.99486 0.0
C588 C 0.47211 0.062 0.98926 0.0
C589 C 0.49739 0.0701 0.99812 0.0
C590 C 0.50206 0.09276 0.0119 0.0
C591 C 0.46717 0.03831 0.97388 0.0
C592 C 0.48396 0.0323 0.95514 0.0
C593 C 0.47947 0.01011 0.94033 0.0
C594 C 0.45803 0.99354 0.94481 0.0
C595 C 0.4408 0.99921 0.96342 0.0
C596 C 0.44552 0.0218 0.97768 0.0
C597 C 0.41814 0.98147 0.96825 0.0
C598 C 0.40504 0.96715 0.94829 0.0
C599 C 0.40961 0.97839 0.99301 0.0
C600 C 0.38876 0.96146 0.99769 0.0
C601 C 0.37636 0.94669 0.97788 0.0
C602 C 0.49723 0.00447 0.92017 0.0
C603 C 0.50708 0.02412 0.90484 0.0
C604 C 0.50497 0.97968 0.91641 0.0
C605 C 0.52265 0.97484 0.89819 0.0
C606 C 0.53303 0.99475 0.88364 0.0
C607 C 0.52486 0.01931 0.88684 0.0
C608 C 0.38457 0.94974 0.95312 0.0
H609 H 0.44023 0.1108 0.01259 0.0
H610 H 0.43198 0.07149 0.98803 0.0
H611 H 0.51358 0.05889 0.99445 0.0
H612 H 0.52168 0.09884 0.01826 0.0
H613 H 0.50058 0.04505 0.95198 0.0
H614 H 0.43237 0.02659 0.9919 0.0
H615 H 0.4548 0.97622 0.93373 0.0
H616 H 0.41056 0.96933 0.92889 0.0
H617 H 0.41938 0.98856 0.00902 0.0
H618 H 0.38278 0.95928 0.01696 0.0
H619 H 0.50112 0.0433 0.90681 0.0
H620 H 0.49792 0.96415 0.928 0.0
H621 H 0.37523 0.93849 0.93758 0.0
H622 H 0.53255 0.03486 0.87562 0.0
H623 H 0.52875 0.95575 0.89589 0.0
Mg624 Mg 0.23639 0.85141 0.01258 0.0
O625 O 0.27447 0.8745 0.00576 0.0
O626 O 0.30416 0.84622 0.00041 0.0
Mg627 Mg 0.28644 0.80626 0.00812 0.0
C628 C 0.29732 0.86905 0.00086 0.0
C629 C 0.18924 0.88162 0.01033 0.0
O630 O 0.18184 0.85967 0.02003 0.0
O631 O 0.23293 0.83873 0.97106 0.0
O632 O 0.26168 0.80876 0.97063 0.0
O633 O 0.24422 0.85313 0.05456 0.0
O634 O 0.25641 0.82248 0.03008 0.0
C635 C 0.2439 0.82127 0.95974 0.0
C636 C 0.25573 0.83221 0.0525 0.0
O637 O 0.21244 0.88539 0.00418 0.0
Mg638 Mg 0.15363 0.50218 0.27484 0.0
O639 O 0.12958 0.49998 0.23681 0.0
O640 O 0.15723 0.50385 0.20578 0.0
Mg641 Mg 0.19826 0.51097 0.22384 0.0
C642 C 0.13437 0.50066 0.21333 0.0
C643 C 0.11672 0.49931 0.31682 0.0
O644 O 0.13458 0.51691 0.32417 0.0
O645 O 0.16743 0.46249 0.26848 0.0
O646 O 0.19686 0.47035 0.23957 0.0
O647 O 0.15191 0.5444 0.2767 0.0
O648 O 0.18263 0.52466 0.25886 0.0
C649 C 0.18507 0.45535 0.25462 0.0
C650 C 0.17297 0.54562 0.2647 0.0
O651 O 0.11884 0.48749 0.29606 0.0
Mg652 Mg 0.77784 0.65246 0.02512 0.0
O653 O 0.73857 0.63027 0.01848 0.0
O654 O 0.70921 0.65911 0.01124 0.0
Mg655 Mg 0.72919 0.69911 0.01621 0.0
C656 C 0.71536 0.63611 0.01327 0.0
C657 C 0.82125 0.61751 0.03191 0.0
O658 O 0.82809 0.63722 0.04661 0.0
O659 O 0.77875 0.66279 0.98299 0.0
O660 O 0.75101 0.69366 0.98024 0.0
O661 O 0.77273 0.65351 0.06687 0.0
O662 O 0.76057 0.68345 0.04045 0.0
C663 C 0.76738 0.68 0.97051 0.0
C664 C 0.76245 0.67506 0.06341 0.0
O665 O 0.79972 0.61701 0.01909 0.0
Mg666 Mg 0.9043 0.0407 0.24575 0.0
O667 O 0.87619 0.00582 0.24055 0.0
O668 O 0.89953 0.97207 0.23596 0.0
Mg669 Mg 0.94255 0.98564 0.23713 0.0
C670 C 0.87785 0.98209 0.23713 0.0
C671 C 0.86721 0.08368 0.24623 0.0
O672 O 0.88313 0.0913 0.22895 0.0
O673 O 0.91572 0.02871 0.28648 0.0
O674 O 0.94222 0.99784 0.27924 0.0
O675 O 0.90428 0.04631 0.20355 0.0
O676 O 0.93211 0.02368 0.22544 0.0
C677 C 0.93189 0.01272 0.29436 0.0
C678 C 0.92374 0.03211 0.20383 0.0
O679 O 0.87089 0.0631 0.25796 0.0
Mg680 Mg 0.28149 0.15927 0.52179 0.0
O681 O 0.24292 0.1354 0.51855 0.0
O682 O 0.21196 0.1626 0.51099 0.0
Mg683 Mg 0.22985 0.20331 0.51285 0.0
C684 C 0.21925 0.14007 0.51397 0.0
C685 C 0.32584 0.12503 0.53022 0.0
O686 O 0.3324 0.14487 0.54482 0.0
O687 O 0.27924 0.16684 0.47904 0.0
O688 O 0.25009 0.1965 0.47604 0.0
O689 O 0.27879 0.16347 0.56385 0.0
O690 O 0.263 0.18982 0.53529 0.0
C691 C 0.26648 0.18287 0.46622 0.0
C692 C 0.26618 0.18343 0.55872 0.0
O693 O 0.30453 0.12435 0.51702 0.0
Mg694 Mg 0.40196 0.53367 0.73829 0.0
O695 O 0.37546 0.49726 0.73469 0.0
O696 O 0.4002 0.46454 0.72977 0.0
Mg697 Mg 0.44202 0.4799 0.72852 0.0
C698 C 0.37818 0.47355 0.73187 0.0
C699 C 0.36519 0.57651 0.74163 0.0
O700 O 0.38121 0.58491 0.72475 0.0
O701 O 0.41666 0.52348 0.77859 0.0
O702 O 0.44157 0.49163 0.77047 0.0
O703 O 0.399 0.53854 0.69617 0.0
O704 O 0.42878 0.51704 0.71677 0.0
C705 C 0.43235 0.50688 0.78599 0.0
C706 C 0.41866 0.52466 0.69549 0.0
O707 O 0.36858 0.55521 0.7521 0.0
Mg708 Mg 0.73286 0.35886 0.51021 0.0
O709 O 0.7714 0.3814 0.50374 0.0
O710 O 0.80089 0.35248 0.50072 0.0
Mg711 Mg 0.78262 0.31308 0.50983 0.0
C712 C 0.79436 0.37542 0.49987 0.0
C713 C 0.68588 0.38824 0.50561 0.0
O714 O 0.67963 0.36721 0.51767 0.0
O715 O 0.73082 0.34418 0.4695 0.0
O716 O 0.75907 0.31372 0.47139 0.0
O717 O 0.73899 0.36251 0.55231 0.0
O718 O 0.75206 0.33079 0.52981 0.0
C719 C 0.7418 0.32602 0.45939 0.0
C720 C 0.7504 0.34139 0.55169 0.0
O721 O 0.7088 0.39194 0.49862 0.0
Mg722 Mg 0.65304 0.00229 0.77495 0.0
O723 O 0.63083 0.00097 0.7358 0.0
O724 O 0.66007 0.00594 0.70637 0.0
Mg725 Mg 0.7002 0.01282 0.72657 0.0
C726 C 0.63677 0.00238 0.71263 0.0
C727 C 0.61539 0.99747 0.81567 0.0
O728 O 0.63346 0.0145 0.82392 0.0
O729 O 0.66781 0.96296 0.76866 0.0
O730 O 0.69873 0.97186 0.74151 0.0
O731 O 0.65051 0.04435 0.77757 0.0
O732 O 0.68254 0.02547 0.76094 0.0
C733 C 0.6864 0.95639 0.75572 0.0
C734 C 0.67206 0.0461 0.7664 0.0
O735 O 0.61753 0.98661 0.79439 0.0
Mg736 Mg 0.02814 0.25258 0.90176 0.0
O737 O 0.99011 0.24675 0.87765 0.0
O738 O 0.95896 0.23725 0.90424 0.0
Mg739 Mg 0.97754 0.23345 0.94448 0.0
C740 C 0.96643 0.24167 0.88192 0.0
C741 C 0.0706 0.26572 0.86672 0.0
O742 O 0.08083 0.25028 0.88345 0.0
O743 O 0.01585 0.29006 0.9175 0.0
O744 O 0.98781 0.27645 0.946 0.0
O745 O 0.03578 0.21183 0.89693 0.0
O746 O 0.01459 0.22693 0.92832 0.0
C747 C 0.00086 0.29421 0.93523 0.0
C748 C 0.02306 0.2077 0.91706 0.0
O749 O 0.0475 0.27171 0.86873 0.0
Mg750 Mg 0.53821 0.75977 0.40368 0.0
O751 O 0.50198 0.74994 0.37762 0.0
O752 O 0.47062 0.73762 0.40304 0.0
Mg753 Mg 0.48751 0.7355 0.44399 0.0
C754 C 0.47855 0.74271 0.38103 0.0
C755 C 0.56217 0.76785 0.35232 0.0
O756 O 0.55276 0.74423 0.35026 0.0
O757 O 0.52091 0.79545 0.41808 0.0
O758 O 0.49331 0.77899 0.44569 0.0
O759 O 0.55105 0.72041 0.40085 0.0
O760 O 0.52636 0.73279 0.42996 0.0
C761 C 0.50487 0.79793 0.43526 0.0
C762 C 0.53898 0.71486 0.42103 0.0
O763 O 0.55802 0.78075 0.37189 0.0
Mg764 Mg 0.98632 0.74774 0.59586 0.0
O765 O 0.02383 0.74048 0.61932 0.0
O766 O 0.05459 0.73686 0.59174 0.0
Mg767 Mg 0.03624 0.73801 0.55113 0.0
C768 C 0.04726 0.73748 0.61445 0.0
C769 C 0.94415 0.75125 0.6324 0.0
O770 O 0.93404 0.73637 0.61393 0.0
O771 O 0.00156 0.78801 0.58643 0.0
O772 O 0.02881 0.78021 0.55624 0.0
O773 O 0.97541 0.70624 0.59351 0.0
O774 O 0.99841 0.72709 0.5655 0.0
C775 C 0.01693 0.79554 0.56955 0.0
C776 C 0.98794 0.70593 0.57301 0.0
O777 O 0.96723 0.76047 0.63125 0.0
Mg778 Mg 0.48551 0.24578 0.09259 0.0
O779 O 0.52261 0.23919 0.11697 0.0
O780 O 0.55395 0.23501 0.09015 0.0
Mg781 Mg 0.53639 0.23504 0.0492 0.0
C782 C 0.54618 0.23617 0.11266 0.0
C783 C 0.44238 0.25022 0.12769 0.0
O784 O 0.43268 0.23538 0.10901 0.0
O785 O 0.50084 0.2858 0.08244 0.0
O786 O 0.52872 0.27731 0.05304 0.0
O787 O 0.47475 0.20424 0.09109 0.0
O788 O 0.49826 0.22447 0.06306 0.0
C789 C 0.51652 0.29293 0.06569 0.0
C790 C 0.48766 0.20349 0.07086 0.0
O791 O 0.4656 0.2592 0.1272 0.0
C792 C 0.20448 0.79432 0.90154 0.0
C793 C 0.22423 0.79361 0.88415 0.0
C794 C 0.25413 0.81777 0.91419 0.0
C795 C 0.23578 0.81474 0.93299 0.0
N796 N 0.19381 0.79889 0.94541 0.0
N797 N 0.26826 0.8036 0.87374 0.0
C798 C 0.21084 0.80306 0.92682 0.0
C799 C 0.24912 0.80534 0.89028 0.0
N800 N 0.17966 0.78664 0.89377 0.0
N801 N 0.27616 0.83292 0.91915 0.0
H802 H 0.26515 0.79522 0.85578 0.0
H803 H 0.28756 0.80904 0.87837 0.0
H804 H 0.28017 0.84252 0.93642 0.0
H805 H 0.28921 0.83789 0.90548 0.0
H806 H 0.1639 0.78901 0.90469 0.0
H807 H 0.17451 0.77998 0.87539 0.0
H808 H 0.17661 0.78779 0.94276 0.0
H809 H 0.19762 0.80504 0.96415 0.0
C810 C 0.04845 0.495 0.34007 0.0
C811 C 0.05432 0.49351 0.36662 0.0
C812 C 0.09964 0.48793 0.35883 0.0
C813 C 0.09457 0.49389 0.33287 0.0
N814 N 0.06432 0.50541 0.29885 0.0
N815 N 0.08596 0.4908 0.40181 0.0
C816 C 0.06894 0.49767 0.32334 0.0
C817 C 0.08001 0.49028 0.37619 0.0
N818 N 0.02325 0.49377 0.33089 0.0
N819 N 0.12317 0.47961 0.36679 0.0
H820 H 0.0722 0.49248 0.41525 0.0
H821 H 0.10484 0.49156 0.40974 0.0
H822 H 0.13779 0.47719 0.35439 0.0
H823 H 0.12724 0.47265 0.38497 0.0
H824 H 0.01768 0.49226 0.3116 0.0
H825 H 0.00783 0.49179 0.34272 0.0
H826 H 0.04653 0.51134 0.29184 0.0
H827 H 0.0787 0.50786 0.28595 0.0
C828 C 0.78839 0.72058 0.91577 0.0
C829 C 0.78292 0.70373 0.89483 0.0
C830 C 0.76869 0.67 0.92376 0.0
C831 C 0.77518 0.68665 0.94467 0.0
N832 N 0.79741 0.72515 0.9612 0.0
N833 N 0.77266 0.66127 0.87889 0.0
C834 C 0.787 0.71113 0.94083 0.0
C835 C 0.77458 0.67802 0.89884 0.0
N836 N 0.79364 0.74591 0.91176 0.0
N837 N 0.7559 0.64707 0.92758 0.0
H838 H 0.77676 0.66664 0.86044 0.0
H839 H 0.76912 0.64178 0.88092 0.0
H840 H 0.75166 0.6405 0.94559 0.0
H841 H 0.74802 0.6353 0.91286 0.0
H842 H 0.79478 0.75946 0.92626 0.0
H843 H 0.79461 0.75384 0.89372 0.0
H844 H 0.80861 0.74202 0.95941 0.0
H845 H 0.7971 0.71865 0.97986 0.0
C846 C 0.96054 0.03296 0.3604 0.0
C847 C 0.96424 0.0089 0.37136 0.0
C848 C 0.94049 0.98835 0.33457 0.0
C849 C 0.94047 0.01205 0.32183 0.0
N850 N 0.95441 0.05668 0.32159 0.0
N851 N 0.96025 0.96322 0.36787 0.0
C852 C 0.95122 0.03442 0.33456 0.0
C853 C 0.95469 0.98643 0.35829 0.0
N854 N 0.96594 0.05445 0.37474 0.0
N855 N 0.92655 0.96772 0.32418 0.0
H856 H 0.97046 0.9609 0.38525 0.0
H857 H 0.9565 0.94633 0.35767 0.0
H858 H 0.91584 0.96848 0.30692 0.0
H859 H 0.92359 0.95066 0.33375 0.0
H860 H 0.96119 0.07242 0.36862 0.0
H861 H 0.97287 0.05398 0.39373 0.0
H862 H 0.96476 0.0727 0.32927 0.0
H863 H 0.94903 0.05863 0.30239 0.0
C864 C 0.23393 0.20281 0.61839 0.0
C865 C 0.23953 0.22945 0.61825 0.0
C866 C 0.26374 0.22551 0.58016 0.0
C867 C 0.25654 0.19912 0.57907 0.0
N868 N 0.2305 0.16351 0.59411 0.0
N869 N 0.25429 0.26685 0.59586 0.0
C870 C 0.2404 0.18796 0.59734 0.0
C871 C 0.25268 0.24101 0.59809 0.0
N872 N 0.22324 0.19162 0.63895 0.0
N873 N 0.2823 0.23562 0.56514 0.0
H874 H 0.24626 0.27888 0.60858 0.0
H875 H 0.26129 0.27617 0.58004 0.0
H876 H 0.2919 0.22487 0.55248 0.0
H877 H 0.29017 0.25419 0.56716 0.0
H878 H 0.22138 0.17204 0.64139 0.0
H879 H 0.21797 0.20193 0.65455 0.0
H880 H 0.21651 0.15522 0.60535 0.0
H881 H 0.23444 0.15221 0.57871 0.0
C882 C 0.46683 0.51548 0.64504 0.0
C883 C 0.44993 0.50983 0.62344 0.0
C884 C 0.41304 0.5083 0.65043 0.0
C885 C 0.42954 0.51816 0.67106 0.0
N886 N 0.47188 0.53545 0.68641 0.0
N887 N 0.40659 0.50291 0.60473 0.0
C888 C 0.45645 0.52266 0.66808 0.0
C889 C 0.4229 0.5066 0.62589 0.0
N890 N 0.49286 0.51395 0.64351 0.0
N891 N 0.38823 0.49988 0.65442 0.0
H892 H 0.41313 0.50118 0.5865 0.0
H893 H 0.3866 0.50336 0.60505 0.0
H894 H 0.38054 0.50022 0.67226 0.0
H895 H 0.37614 0.49023 0.64066 0.0
H896 H 0.5059 0.51543 0.65932 0.0
H897 H 0.50112 0.50859 0.62687 0.0
H898 H 0.49101 0.5415 0.68387 0.0
H899 H 0.46506 0.54253 0.70306 0.0
C900 C 0.74898 0.31154 0.61736 0.0
C901 C 0.77426 0.30291 0.62032 0.0
C902 C 0.78501 0.32236 0.57983 0.0
C903 C 0.75895 0.3287 0.57558 0.0
N904 N 0.71489 0.32515 0.58822 0.0
N905 N 0.81592 0.29776 0.60382 0.0
C906 C 0.74061 0.32238 0.59389 0.0
C907 C 0.7922 0.3077 0.6014 0.0
N908 N 0.73296 0.30941 0.63703 0.0
N909 N 0.80305 0.33116 0.56371 0.0
H910 H 0.82227 0.28789 0.61989 0.0
H911 H 0.8287 0.29791 0.58932 0.0
H912 H 0.79825 0.34202 0.54793 0.0
H913 H 0.82284 0.3296 0.56704 0.0
H914 H 0.71541 0.31794 0.63709 0.0
H915 H 0.73816 0.30091 0.65427 0.0
H916 H 0.70039 0.31825 0.59964 0.0
H917 H 0.70765 0.33211 0.57092 0.0
C918 C 0.57856 0.97583 0.6711 0.0
C919 C 0.57642 0.99526 0.65268 0.0
C920 C 0.61236 0.02028 0.67479 0.0
C921 C 0.61583 -1e-05 0.69211 0.0
N922 N 0.60497 0.95691 0.70456 0.0
N923 N 0.59229 0.03495 0.63522 0.0
C924 C 0.59953 0.9774 0.68981 0.0
C925 C 0.59363 0.0172 0.65404 0.0
N926 N 0.56047 0.95589 0.67075 0.0
N927 N 0.6263 0.04289 0.67874 0.0
H928 H 0.57787 0.03422 0.62056 0.0
H929 H 0.60629 0.04963 0.63317 0.0
H930 H 0.64062 0.04579 0.69328 0.0
H931 H 0.62252 0.05941 0.66883 0.0
H932 H 0.55907 0.94272 0.68534 0.0
H933 H 0.54558 0.95341 0.65665 0.0
H934 H 0.59572 0.93897 0.70192 0.0
H935 H 0.62035 0.95714 0.71819 0.0
C936 C 0.92884 0.25726 0.82009 0.0
C937 C 0.90906 0.23748 0.81914 0.0
C938 C 0.92909 0.21876 0.85731 0.0
C939 C 0.9469 0.24021 0.86012 0.0
N940 N 0.96004 0.2826 0.84675 0.0
N941 N 0.88706 0.20265 0.84029 0.0
C942 C 0.94582 0.26025 0.84219 0.0
C943 C 0.90821 0.21915 0.83876 0.0
N944 N 0.93193 0.27275 0.79962 0.0
N945 N 0.93266 0.19748 0.87149 0.0
H946 H 0.87092 0.20277 0.82756 0.0
H947 H 0.88444 0.19064 0.85571 0.0
H948 H 0.94832 0.19582 0.88454 0.0
H949 H 0.92165 0.18049 0.86826 0.0
H950 H 0.94766 0.28578 0.79833 0.0
H951 H 0.92015 0.27089 0.78291 0.0
H952 H 0.95793 0.29865 0.83555 0.0
H953 H 0.97198 0.28603 0.86314 0.0
C954 C 0.50447 0.85079 0.48391 0.0
C955 C 0.49418 0.8705 0.46898 0.0
C956 C 0.48993 0.84238 0.43157 0.0
C957 C 0.50203 0.8234 0.44615 0.0
N958 N 0.52602 0.81145 0.48444 0.0
N959 N 0.48035 0.88676 0.42807 0.0
C960 C 0.51078 0.82815 0.47184 0.0
C961 C 0.48783 0.8668 0.4426 0.0
N962 N 0.50749 0.85338 0.50978 0.0
N963 N 0.47967 0.83676 0.40759 0.0
H964 H 0.47826 0.90475 0.43567 0.0
H965 H 0.47805 0.88606 0.40831 0.0
H966 H 0.48106 0.81913 0.39894 0.0
H967 H 0.46821 0.84883 0.39696 0.0
H968 H 0.51209 0.83853 0.52185 0.0
H969 H 0.50315 0.8697 0.51947 0.0
H970 H 0.53529 0.81526 0.50223 0.0
H971 H 0.53158 0.79481 0.47614 0.0
C972 C 0.10645 0.30757 0.81983 0.0
C973 C 0.11853 0.28878 0.80624 0.0
C974 C 0.09453 0.25536 0.8287 0.0
C975 C 0.08532 0.27404 0.84472 0.0
N976 N 0.08448 0.31792 0.85751 0.0
N977 N 0.12685 0.24477 0.79984 0.0
C978 C 0.09158 0.30021 0.8407 0.0
C979 C 0.11324 0.26264 0.81114 0.0
N980 N 0.10889 0.33237 0.81249 0.0
N981 N 0.08474 0.23077 0.82969 0.0
H982 H 0.14076 0.24924 0.78681 0.0
H983 H 0.12592 0.22571 0.80495 0.0
H984 H 0.07047 0.22484 0.84187 0.0
H985 H 0.08878 0.21685 0.8167 0.0
H986 H 0.09842 0.34658 0.81993 0.0
H987 H 0.11973 0.33838 0.79733 0.0
H988 H 0.091 0.33696 0.85721 0.0
H989 H 0.07366 0.31331 0.87308 0.0
C990 C 0.54713 0.64315 0.43049 0.0
C991 C 0.52653 0.63752 0.4465 0.0
C992 C 0.5216 0.68273 0.45225 0.0
C993 C 0.53806 0.68855 0.4322 0.0
N994 N 0.57082 0.67378 0.40554 0.0
N995 N 0.49081 0.65197 0.4687 0.0
C996 C 0.55194 0.66858 0.42205 0.0
C997 C 0.51255 0.65733 0.45588 0.0
N998 N 0.56332 0.62466 0.4249 0.0
N999 N 0.51692 0.70071 0.4698 0.0
H1000 H 0.48334 0.63345 0.47145 0.0
H1001 H 0.47896 0.66604 0.47418 0.0
H1002 H 0.52725 0.71825 0.47109 0.0
H1003 H 0.50623 0.69664 0.48559 0.0
H1004 H 0.58046 0.6281 0.41587 0.0
H1005 H 0.56074 0.60595 0.43092 0.0
H1006 H 0.57736 0.66016 0.39352 0.0
H1007 H 0.58105 0.69131 0.40492 0.0
C1008 C 0.90537 0.78305 0.68146 0.0
C1009 C 0.89366 0.76125 0.69279 0.0
C1010 C 0.92027 0.73399 0.6689 0.0
C1011 C 0.9291 0.75539 0.65491 0.0
N1012 N 0.92864 0.8002 0.64617 0.0
N1013 N 0.88781 0.71567 0.6957 0.0
C1014 C 0.92153 0.77999 0.66091 0.0
C1015 C 0.90065 0.73662 0.68622 0.0
N1016 N 0.90126 0.80665 0.69061 0.0
N1017 N 0.93117 0.71129 0.66608 0.0
H1018 H 0.87346 0.71674 0.70863 0.0
H1019 H 0.88994 0.69728 0.68927 0.0
H1020 H 0.946 0.70884 0.65393 0.0
H1021 H 0.92742 0.69564 0.67757 0.0
H1022 H 0.91127 0.82315 0.68496 0.0
H1023 H 0.88939 0.80951 0.70554 0.0
H1024 H 0.92126 0.81801 0.64772 0.0
H1025 H 0.94056 0.79878 0.63105 0.0
C1026 C 0.03394 0.86696 0.5715 0.0
C1027 C 0.02675 0.87323 0.54598 0.0
C1028 C 0.00886 0.82974 0.53813 0.0
C1029 C 0.01879 0.82271 0.56258 0.0
N1030 N 0.04276 0.8337 0.60201 0.0
N1031 N 0.01084 0.85991 0.50374 0.0
C1032 C 0.03173 0.84111 0.57925 0.0
C1033 C 0.01507 0.85445 0.52895 0.0
N1034 N 0.0424 0.8858 0.58838 0.0
N1035 N 0.9928 0.81297 0.52394 0.0
H1036 H 0.01509 0.87779 0.49613 0.0
H1037 H 0.0052 0.8462 0.48994 0.0
H1038 H 0.98746 0.79476 0.53015 0.0
H1039 H 0.98275 0.8179 0.50717 0.0
H1040 H 0.04547 0.8829 0.60783 0.0
H1041 H 0.04444 0.90484 0.58321 0.0
H1042 H 0.05489 0.84562 0.61381 0.0
H1043 H 0.04118 0.815 0.60835 0.0
C1044 C 0.08656 0.74682 0.67775 0.0
C1045 C 0.10532 0.72861 0.67542 0.0
C1046 C 0.08322 0.71366 0.63529 0.0
C1047 C 0.06673 0.73414 0.63585 0.0
N1048 N 0.05649 0.77346 0.65556 0.0
N1049 N 0.1246 0.69826 0.64906 0.0
C1050 C 0.06936 0.75163 0.65656 0.0
C1051 C 0.10454 0.71301 0.65335 0.0
N1052 N 0.0846 0.75902 0.70041 0.0
N1053 N 0.07797 0.6942 0.61822 0.0
H1054 H 0.14103 0.69781 0.66137 0.0
H1055 H 0.1261 0.68852 0.63202 0.0
H1056 H 0.06188 0.69327 0.60539 0.0
H1057 H 0.08797 0.67766 0.61873 0.0
H1058 H 0.0696 0.77058 0.70384 0.0
H1059 H 0.0964 0.75557 0.71658 0.0
H1060 H 0.05983 0.78798 0.66901 0.0
H1061 H 0.0445 0.77833 0.64001 0.0
C1062 C 0.98234 0.65848 0.51805 0.0
C1063 C 0.98611 0.63558 0.53131 0.0
C1064 C 0.99701 0.65983 0.57065 0.0
C1065 C 0.9892 0.68215 0.55821 0.0
N1066 N 0.97006 0.70173 0.52072 0.0
N1067 N 0.99436 0.61384 0.57092 0.0
C1068 C 0.98092 0.68133 0.532 0.0
C1069 C 0.99289 0.63605 0.55781 0.0
N1070 N 0.9804 0.65845 0.49206 0.0
N1071 N 0.00904 0.66144 0.59443 0.0
H1072 H 0.99147 0.59605 0.56221 0.0
H1073 H 0.99639 0.61306 0.59068 0.0
H1074 H 0.01296 0.67864 0.60411 0.0
H1075 H 0.01743 0.64618 0.60343 0.0
H1076 H 0.98029 0.67502 0.48136 0.0
H1077 H 0.98154 0.64205 0.48117 0.0
H1078 H 0.96117 0.70103 0.50246 0.0
H1079 H 0.96746 0.7186 0.53029 0.0
C1080 C 0.81658 0.94581 0.2107 0.0
C1081 C 0.81213 0.92846 0.23068 0.0
C1082 C 0.84945 0.94773 0.25583 0.0
C1083 C 0.85387 0.96522 0.2359 0.0
N1084 N 0.83782 0.98529 0.19752 0.0
N1085 N 0.8204 0.91601 0.27419 0.0
C1086 C 0.83617 0.9657 0.21434 0.0
C1087 C 0.82742 0.93037 0.25387 0.0
N1088 N 0.80287 0.94259 0.18784 0.0
N1089 N 0.86644 0.94773 0.27662 0.0
H1090 H 0.80428 0.90318 0.27338 0.0
H1091 H 0.82913 0.91818 0.29241 0.0
H1092 H 0.88131 0.9617 0.27972 0.0
H1093 H 0.86645 0.93352 0.29027 0.0
H1094 H 0.80734 0.95266 0.17156 0.0
H1095 H 0.78811 0.92848 0.18455 0.0
H1096 H 0.82397 0.98799 0.18284 0.0
H1097 H 0.85168 0.00033 0.19967 0.0
C1098 C 0.81724 0.12099 0.27821 0.0
C1099 C 0.80239 0.12897 0.25654 0.0
C1100 C 0.82697 0.10303 0.22918 0.0
C1101 C 0.84411 0.09803 0.2503 0.0
N1102 N 0.8576 0.1049 0.29456 0.0
N1103 N 0.79536 0.1306 0.21089 0.0
C1104 C 0.83971 0.10755 0.27481 0.0
C1105 C 0.80779 0.12075 0.23186 0.0
N1106 N 0.80955 0.12584 0.30202 0.0
N1107 N 0.82837 0.09015 0.20679 0.0
H1108 H 0.78122 0.1437 0.21196 0.0
H1109 H 0.80064 0.12745 0.19242 0.0
H1110 H 0.8416 0.07637 0.20431 0.0
H1111 H 0.81472 0.09116 0.1916 0.0
H1112 H 0.81805 0.11827 0.31847 0.0
H1113 H 0.79311 0.13554 0.3052 0.0
H1114 H 0.85681 0.1139 0.3121 0.0
H1115 H 0.87449 0.0955 0.29282 0.0
C1116 C 0.33017 0.92857 0.97289 0.0
C1117 C 0.35579 0.927 0.98348 0.0
C1118 C 0.34161 0.89047 0.00859 0.0
C1119 C 0.31688 0.88983 0.99553 0.0
N1120 N 0.2895 0.90556 0.96111 0.0
N1121 N 0.38702 0.90247 0.00672 0.0
C1122 C 0.31159 0.90818 0.97654 0.0
C1123 C 0.36186 0.90675 -6e-05 0.0
N1124 N 0.32334 0.94978 0.96 0.0
N1125 N 0.34554 0.87648 0.03005 0.0
H1126 H 0.40259 0.9134 7e-05 0.0
H1127 H 0.39243 0.88644 0.01671 0.0
H1128 H 0.33068 0.86583 0.0381 0.0
H1129 H 0.36262 0.87805 0.04151 0.0
H1130 H 0.3043 0.95293 0.95412 0.0
H1131 H 0.33627 0.96529 0.95733 0.0
H1132 H 0.28604 0.91702 0.94537 0.0
H1133 H 0.27582 0.89041 0.96238 0.0
C1134 C 0.18877 0.38329 0.2556 0.0
C1135 C 0.21563 0.38161 0.26144 0.0
C1136 C 0.22093 0.4277 0.26688 0.0
C1137 C 0.19475 0.42971 0.25822 0.0
N1138 N 0.15418 0.40989 0.24167 0.0
N1139 N 0.2582 0.40235 0.26818 0.0
C1140 C 0.17868 0.40761 0.25196 0.0
C1141 C 0.23198 0.40386 0.26584 0.0
N1142 N 0.17287 0.36168 0.25415 0.0
N1143 N 0.23498 0.44841 0.27708 0.0
H1144 H 0.2672 0.38525 0.26739 0.0
H1145 H 0.27115 0.41822 0.26854 0.0
H1146 H 0.2274 0.46614 0.27891 0.0
H1147 H 0.25326 0.44743 0.28614 0.0
H1148 H 0.1528 0.36173 0.25261 0.0
H1149 H 0.17969 0.34359 0.25646 0.0
H1150 H 0.14251 0.39467 0.23406 0.0
H1151 H 0.14609 0.42736 0.23905 0.0
C1152 C 0.18261 0.07691 0.49635 0.0
C1153 C 0.15864 0.08042 0.50708 0.0
C1154 C 0.17679 0.12024 0.52659 0.0
C1155 C 0.19917 0.11873 0.51255 0.0
N1156 N 0.2212 0.09731 0.48025 0.0
N1157 N 0.13138 0.10809 0.52855 0.0
C1158 C 0.20163 0.09744 0.49647 0.0
C1159 C 0.15529 0.1028 0.52122 0.0
N1160 N 0.18745 0.05381 0.48649 0.0
N1161 N 0.1763 0.13779 0.54567 0.0
H1162 H 0.11485 0.09629 0.52434 0.0
H1163 H 0.12752 0.12543 0.53657 0.0
H1164 H 0.19202 0.1503 0.55094 0.0
H1165 H 0.16139 0.13802 0.55805 0.0
H1166 H 0.20552 0.04952 0.48066 0.0
H1167 H 0.17418 0.03818 0.48655 0.0
H1168 H 0.2222 0.08341 0.46631 0.0
H1169 H 0.235 0.11232 0.47886 0.0
C1170 C 0.72131 0.10205 0.7741 0.0
C1171 C 0.71597 0.11518 0.75112 0.0
C1172 C 0.67786 0.08629 0.74164 0.0
C1173 C 0.68575 0.07092 0.76228 0.0
N1174 N 0.71564 0.0631 0.79781 0.0
N1175 N 0.69091 0.11818 0.71127 0.0
C1176 C 0.70768 0.0785 0.77843 0.0
C1177 C 0.69456 0.10701 0.73446 0.0
N1178 N 0.73872 0.11257 0.7922 0.0
N1179 N 0.65436 0.08123 0.7291 0.0
H1180 H 0.70298 0.1331 0.70507 0.0
H1181 H 0.67726 0.11121 0.69729 0.0
H1182 H 0.64171 0.06619 0.73401 0.0
H1183 H 0.64648 0.09323 0.71546 0.0
H1184 H 0.74153 0.10515 0.81037 0.0
H1185 H 0.74858 0.13016 0.79 0.0
H1186 H 0.73329 0.06607 0.80814 0.0
H1187 H 0.70529 0.04645 0.80267 0.0
C1188 C 0.38871 0.09306 0.52525 0.0
C1189 C 0.38104 0.0675 0.53071 0.0
C1190 C 0.33657 0.0793 0.53521 0.0
C1191 C 0.34401 0.10458 0.52839 0.0
N1192 N 0.37539 0.13396 0.51068 0.0
N1193 N 0.34702 0.03511 0.53564 0.0
C1194 C 0.36958 0.11099 0.52153 0.0
C1195 C 0.35472 0.06025 0.53404 0.0
N1196 N 0.41434 0.10047 0.52464 0.0
N1197 N 0.3127 0.07372 0.54409 0.0
H1198 H 0.35983 0.02068 0.53489 0.0
H1199 H 0.32773 0.02846 0.53542 0.0
H1200 H 0.2989 0.08712 0.54546 0.0
H1201 H 0.30729 0.05631 0.55206 0.0
H1202 H 0.42115 0.11939 0.52364 0.0
H1203 H 0.42903 0.08797 0.52731 0.0
H1204 H 0.39302 0.13869 0.50295 0.0
H1205 H 0.36168 0.14734 0.507 0.0
C1206 C 0.62023 0.41206 0.48766 0.0
C1207 C 0.6235 0.43764 0.49614 0.0
C1208 C 0.66891 0.43183 0.50887 0.0
C1209 C 0.6658 0.40646 0.49967 0.0
N1210 N 0.64091 0.3749 0.47388 0.0
N1211 N 0.65214 0.47373 0.50859 0.0
C1212 C 0.64218 0.39737 0.48701 0.0
C1213 C 0.64829 0.44814 0.5047 0.0
N1214 N 0.59605 0.40137 0.48144 0.0
N1215 N 0.69083 0.43997 0.52291 0.0
H1216 H 0.63745 0.4862 0.50556 0.0
H1217 H 0.67032 0.48281 0.51242 0.0
H1218 H 0.70633 0.42865 0.52668 0.0
H1219 H 0.69283 0.45729 0.53257 0.0
H1220 H 0.59229 0.38202 0.47797 0.0
H1221 H 0.57939 0.4114 0.48175 0.0
H1222 H 0.62491 0.36847 0.46227 0.0
H1223 H 0.65687 0.364 0.47242 0.0
C1224 C 0.74739 0.30763 0.39049 0.0
C1225 C 0.72213 0.29683 0.38426 0.0
C1226 C 0.70883 0.30739 0.42667 0.0
C1227 C 0.73406 0.31838 0.43285 0.0
N1228 N 0.77523 0.33468 0.41914 0.0
N1229 N 0.67736 0.2915 0.39365 0.0
C1230 C 0.7527 0.32029 0.41424 0.0
C1231 C 0.70235 0.29846 0.40148 0.0
N1232 N 0.76654 0.30488 0.37414 0.0
N1233 N 0.69157 0.30409 0.44518 0.0
H1234 H 0.6721 0.28466 0.37535 0.0
H1235 H 0.66164 0.29461 0.40439 0.0
H1236 H 0.6955 0.31028 0.4639 0.0
H1237 H 0.67402 0.29355 0.44254 0.0
H1238 H 0.78598 0.30958 0.37888 0.0
H1239 H 0.76322 0.29639 0.35624 0.0
H1240 H 0.78855 0.33888 0.40552 0.0
H1241 H 0.77951 0.34445 0.43627 0.0
C1242 C 0.57886 0.9866 0.87477 0.0
C1243 C 0.5532 0.99045 0.86552 0.0
C1244 C 0.56761 0.9957 0.82226 0.0
C1245 C 0.59321 0.99141 0.83149 0.0
N1246 N 0.62169 0.97553 0.86467 0.0
N1247 N 0.52197 0.992 0.83003 0.0
C1248 C 0.59831 0.98448 0.85719 0.0
C1249 C 0.5472 0.99274 0.83905 0.0
N1250 N 0.58502 0.98639 0.90036 0.0
N1251 N 0.56296 0.00422 0.79805 0.0
H1252 H 0.50662 0.98979 0.84191 0.0
H1253 H 0.51628 0.99111 0.81074 0.0
H1254 H 0.57728 0.00686 0.78511 0.0
H1255 H 0.54522 0.01053 0.79135 0.0
H1256 H 0.60394 0.98666 0.90811 0.0
H1257 H 0.57143 0.98798 0.91398 0.0
H1258 H 0.62571 0.96793 0.88258 0.0
H1259 H 0.63615 0.97325 0.85205 0.0
C1260 C 0.27171 0.17757 0.39444 0.0
C1261 C 0.27946 0.20312 0.38899 0.0
C1262 C 0.28401 0.21305 0.4345 0.0
C1263 C 0.27298 0.18856 0.4398 0.0
N1264 N 0.25434 0.14785 0.42511 0.0
N1265 N 0.28915 0.24632 0.40351 0.0
C1266 C 0.26647 0.17076 0.41987 0.0
C1267 C 0.28471 0.22117 0.40894 0.0
N1268 N 0.26977 0.15981 0.37538 0.0
N1269 N 0.29443 0.22835 0.45394 0.0
H1270 H 0.28959 0.2533 0.38504 0.0
H1271 H 0.29008 0.26062 0.41727 0.0
H1272 H 0.29466 0.22289 0.47297 0.0
H1273 H 0.30514 0.2453 0.45107 0.0
H1274 H 0.26667 0.14043 0.37846 0.0
H1275 H 0.27335 0.16429 0.35658 0.0
H1276 H 0.24651 0.13515 0.41116 0.0
H1277 H 0.25055 0.1422 0.44354 0.0
C1278 C 0.47892 0.4989 0.84304 0.0
C1279 C 0.46388 0.50456 0.86368 0.0
C1280 C 0.42644 0.50845 0.83356 0.0
C1281 C 0.44276 0.50682 0.81294 0.0
N1282 N 0.48671 0.50875 0.79956 0.0
N1283 N 0.42408 0.51942 0.87805 0.0
C1284 C 0.46965 0.50439 0.81807 0.0
C1285 C 0.43778 0.51066 0.85885 0.0
N1286 N 0.50183 0.48772 0.84709 0.0
N1287 N 0.40021 0.50687 0.82928 0.0
H1288 H 0.43192 0.52197 0.89662 0.0
H1289 H 0.40584 0.52643 0.87496 0.0
H1290 H 0.39111 0.5041 0.81124 0.0
H1291 H 0.38756 0.50564 0.84392 0.0
H1292 H 0.51231 0.48145 0.83224 0.0
H1293 H 0.50875 0.48204 0.86504 0.0
H1294 H 0.50667 0.5091 0.80327 0.0
H1295 H 0.48128 0.51531 0.7815 0.0
C1296 C 0.76307 0.70777 0.12838 0.0
C1297 C 0.74299 0.72456 0.12396 0.0
C1298 C 0.73179 0.70356 0.08311 0.0
C1299 C 0.75484 0.69046 0.08525 0.0
N1300 N 0.79568 0.68504 0.10888 0.0
N1301 N 0.71174 0.74183 0.09387 0.0
C1302 C 0.77139 0.69372 0.10768 0.0
C1303 C 0.72825 0.72343 0.10041 0.0
N1304 N 0.77395 0.70485 0.15235 0.0
N1305 N 0.71267 0.6963 0.06536 0.0
H1306 H 0.7096 0.75768 0.10523 0.0
H1307 H 0.70236 0.74268 0.07587 0.0
H1308 H 0.71389 0.68036 0.054 0.0
H1309 H 0.69462 0.704 0.06438 0.0
H1310 H 0.78713 0.69116 0.15677 0.0
H1311 H 0.76768 0.71409 0.16819 0.0
H1312 H 0.80902 0.68917 0.1241 0.0
H1313 H 0.80368 0.6764 0.09365 0.0
C1314 C 0.93365 0.0143 0.1351 0.0
C1315 C 0.96075 0.01901 0.1343 0.0
C1316 C 0.9635 0.03276 0.17886 0.0
C1317 C 0.93663 0.02648 0.18022 0.0
N1318 N 0.89746 0.00578 0.1614 0.0
N1319 N 0.00227 0.0269 0.15669 0.0
C1320 C 0.92206 0.01565 0.15882 0.0
C1321 C 0.97593 0.02636 0.15663 0.0
N1322 N 0.91884 0.00945 0.11312 0.0
N1323 N 0.97692 0.04622 0.19809 0.0
H1324 H 0.01205 0.02222 0.14074 0.0
H1325 H 0.01429 0.02955 0.17313 0.0
H1326 H 0.96853 0.05221 0.21439 0.0
H1327 H 0.99582 0.05368 0.19679 0.0
H1328 H 0.89873 0.00871 0.11218 0.0
H1329 H 0.92663 0.00811 0.09539 0.0
H1330 H 0.88671 0.99542 0.14717 0.0
H1331 H 0.88882 0.00572 0.17874 0.0
C1332 C 0.30015 0.79816 0.09972 0.0
C1333 C 0.28318 0.79287 0.11938 0.0
C1334 C 0.248 0.81165 0.09442 0.0
C1335 C 0.26545 0.81875 0.07553 0.0
N1336 N 0.3089 0.82219 0.06183 0.0
N1337 N 0.24233 0.79788 0.13768 0.0
C1338 C 0.29175 0.81286 0.07859 0.0
C1339 C 0.25755 0.80074 0.11744 0.0
N1340 N 0.32413 0.78873 0.10105 0.0
N1341 N 0.22205 0.81385 0.08975 0.0
H1342 H 0.24832 0.7892 0.15459 0.0
H1343 H 0.22457 0.80591 0.13852 0.0
H1344 H 0.21401 0.82086 0.07279 0.0
H1345 H 0.20817 0.80642 0.10159 0.0
H1346 H 0.33626 0.78927 0.08599 0.0
H1347 H 0.33135 0.77884 0.11676 0.0
H1348 H 0.32881 0.82101 0.06434 0.0
H1349 H 0.30323 0.83308 0.04635 0.0
C1350 C 0.08025 0.51692 0.16564 0.0
C1351 C 0.07401 0.49291 0.15391 0.0
C1352 C 0.10737 0.4739 0.18132 0.0
C1353 C 0.11265 0.49761 0.1939 0.0
N1354 N 0.10131 0.54048 0.20149 0.0
N1355 N 0.07777 0.4476 0.15363 0.0
C1356 C 0.09813 0.51874 0.18718 0.0
C1357 C 0.08647 0.47109 0.16264 0.0
N1358 N 0.06998 0.53816 0.1555 0.0
N1359 N 0.12261 0.4542 0.18693 0.0
H1360 H 0.0624 0.44481 0.14007 0.0
H1361 H 0.08421 0.43073 0.16111 0.0
H1362 H 0.13743 0.45523 0.2012 0.0
H1363 H 0.12173 0.43741 0.1764 0.0
H1364 H 0.07597 0.55653 0.16138 0.0
H1365 H 0.05685 0.53762 0.13974 0.0
H1366 H 0.0894 0.55558 0.19924 0.0
H1367 H 0.11458 0.54267 0.21709 0.0
C1368 C 0.42251 0.71548 0.33791 0.0
C1369 C 0.42101 0.73417 0.31866 0.0
C1370 C 0.45663 0.75943 0.34093 0.0
C1371 C 0.45975 0.73949 0.35872 0.0
N1372 N 0.44999 0.69567 0.36963 0.0
N1373 N 0.44044 0.77114 0.29881 0.0
C1374 C 0.44397 0.71664 0.35587 0.0
C1375 C 0.43925 0.75532 0.31923 0.0
N1376 N 0.40295 0.69719 0.33979 0.0
N1377 N 0.46911 0.7827 0.34532 0.0
H1378 H 0.42833 0.76848 0.28239 0.0
H1379 H 0.45506 0.78535 0.29718 0.0
H1380 H 0.48128 0.78694 0.36139 0.0
H1381 H 0.46539 0.79855 0.33427 0.0
H1382 H 0.40197 0.68475 0.35506 0.0
H1383 H 0.38637 0.6961 0.32758 0.0
H1384 H 0.44047 0.67789 0.36647 0.0
H1385 H 0.46629 0.6953 0.38213 0.0
C1386 C 0.98846 0.36427 0.94291 0.0
C1387 C 0.99571 0.3677 0.96915 0.0
C1388 C 0.01065 0.32462 0.97126 0.0
C1389 C 0.00057 0.32013 0.94593 0.0
N1390 N 0.97776 0.33453 0.90806 0.0
N1391 N 0.01031 0.35023 0.00939 0.0
C1392 C 0.98905 0.33971 0.93175 0.0
C1393 C 0.00597 0.34765 0.98363 0.0
N1394 N 0.98147 0.38459 0.92864 0.0
N1395 N 0.02541 0.30713 0.98325 0.0
H1396 H 0.00725 0.36683 0.01928 0.0
H1397 H 0.01488 0.33524 0.0213 0.0
H1398 H 0.0296 0.29013 0.97468 0.0
H1399 H 0.03557 0.31051 0.00068 0.0
H1400 H 0.97849 0.38397 0.90893 0.0
H1401 H 0.9806 0.40274 0.93634 0.0
H1402 H 0.96655 0.34713 0.89784 0.0
H1403 H 0.97809 0.31683 0.89927 0.0
C1404 C 0.62247 0.77195 0.31496 0.0
C1405 C 0.61903 0.79454 0.30101 0.0
C1406 C 0.57719 0.79886 0.3194 0.0
C1407 C 0.58171 0.77742 0.33482 0.0
N1408 N 0.61112 0.74696 0.35147 0.0
N1409 N 0.59522 0.83161 0.29221 0.0
C1410 C 0.60503 0.76487 0.33376 0.0
C1411 C 0.59695 0.80864 0.30387 0.0
N1412 N 0.64202 0.75685 0.30975 0.0
N1413 N 0.55371 0.80929 0.31896 0.0
H1414 H 0.60923 0.83915 0.28049 0.0
H1415 H 0.581 0.84407 0.29563 0.0
H1416 H 0.53888 0.80264 0.33017 0.0
H1417 H 0.5482 0.82321 0.30615 0.0
H1418 H 0.64365 0.73874 0.31724 0.0
H1419 H 0.65539 0.76139 0.29621 0.0
H1420 H 0.62909 0.73922 0.3533 0.0
H1421 H 0.59923 0.74162 0.36605 0.0
C1422 C 0.00828 0.13633 0.92041 0.0
C1423 C 0.0154 0.13189 0.94633 0.0
C1424 C 0.02777 0.17697 0.95289 0.0
C1425 C 0.01923 0.18179 0.92736 0.0
N1426 N 0.99642 0.16708 0.88836 0.0
N1427 N 0.02578 0.14845 0.98866 0.0
C1428 C 0.00803 0.16175 0.91152 0.0
C1429 C 0.02313 0.15241 0.96303 0.0
N1430 N 0.00257 0.11627 0.90416 0.0
N1431 N 0.04179 0.19533 0.96704 0.0
H1432 H 0.02257 0.13066 0.99685 0.0
H1433 H 0.02868 0.16316 0.00195 0.0
H1434 H 0.04666 0.21338 0.96021 0.0
H1435 H 0.05089 0.19187 0.98473 0.0
H1436 H 1.00007 0.11819 0.88452 0.0
H1437 H 0.00209 0.09745 0.91017 0.0
H1438 H 0.98565 0.15359 0.87706 0.0
H1439 H 0.99546 0.18552 0.88145 0.0
C1440 C 0.39761 0.23536 0.18042 0.0
C1441 C 0.39054 0.25997 0.18698 0.0
C1442 C 0.41912 0.27885 0.15576 0.0
C1443 C 0.42679 0.25427 0.14984 0.0
N1444 N 0.42856 0.2101 0.16087 0.0
N1445 N 0.39822 0.30538 0.1851 0.0
C1446 C 0.41761 0.23281 0.16353 0.0
C1447 C 0.4025 0.28183 0.17597 0.0
N1448 N 0.38449 0.21438 0.18949 0.0
N1449 N 0.42662 0.29912 0.14129 0.0
H1450 H 0.38602 0.30819 0.19978 0.0
H1451 H 0.40836 0.32191 0.17971 0.0
H1452 H 0.43891 0.29775 0.12646 0.0
H1453 H 0.41924 0.31694 0.14275 0.0
H1454 H 0.38672 0.19603 0.18301 0.0
H1455 H 0.36981 0.21538 0.20207 0.0
H1456 H 0.42453 0.19441 0.17222 0.0
H1457 H 0.44367 0.20769 0.14905 0.0
C1458 C 0.53255 0.3645 0.06634 0.0
C1459 C 0.52577 0.37017 0.04057 0.0
C1460 C 0.50899 0.32627 0.03318 0.0
C1461 C 0.51838 0.31991 0.05803 0.0
N1462 N 0.54137 0.332 0.09768 0.0
N1463 N 0.51126 0.35583 0.99828 0.0
C1464 C 0.53067 0.3388 0.07456 0.0
C1465 C 0.51497 0.35088 0.02366 0.0
N1466 N 0.54026 0.38376 0.083 0.0
N1467 N 0.49359 0.30898 0.01895 0.0
H1468 H 0.51534 0.37364 0.99045 0.0
H1469 H 0.50627 0.3418 0.98463 0.0
H1470 H 0.48839 0.29083 0.02539 0.0
H1471 H 0.48389 0.31341 0.00182 0.0
H1472 H 0.54293 0.38126 0.10255 0.0
H1473 H 0.54213 0.40272 0.07749 0.0
H1474 H 0.55304 0.34434 0.10948 0.0
H1475 H 0.54005 0.31342 0.10434 0.0
C1476 C 0.60308 0.21309 0.15314 0.0
C1477 C 0.60339 0.22923 0.17477 0.0
C1478 C 0.56746 0.25147 0.15475 0.0
C1479 C 0.5653 0.23347 0.13449 0.0
N1480 N 0.57715 0.1932 0.11816 0.0
N1481 N 0.58198 0.26006 0.19861 0.0
C1482 C 0.58198 0.21311 0.13476 0.0
C1483 C 0.5844 0.24733 0.17633 0.0
N1484 N 0.62337 0.19842 0.14954 0.0
N1485 N 0.5544 0.27317 0.15297 0.0
H1486 H 0.59359 0.25711 0.21503 0.0
H1487 H 0.56681 0.27158 0.20149 0.0
H1488 H 0.54261 0.27757 0.13711 0.0
H1489 H 0.55741 0.28803 0.16608 0.0
H1490 H 0.6252 0.18828 0.1328 0.0
H1491 H 0.63966 0.19843 0.16208 0.0
H1492 H 0.5873 0.17676 0.11928 0.0
H1493 H 0.56123 0.1918 0.10513 0.0
C1494 C 0.4826 0.15498 0.01688 0.0
C1495 C 0.48631 0.13236 0.03065 0.0
C1496 C 0.49685 0.15738 0.06956 0.0
C1497 C 0.4891 0.17943 0.05659 0.0
N1498 N 0.47027 0.19828 0.01854 0.0
N1499 N 0.49442 0.11141 0.07071 0.0
C1500 C 0.48105 0.1781 0.03034 0.0
C1501 C 0.49292 0.13336 0.05717 0.0
N1502 N 0.48082 0.15441 0.99089 0.0
N1503 N 0.50862 0.15948 0.09343 0.0
H1504 H 0.49175 0.09345 0.06231 0.0
H1505 H 0.49632 0.11098 0.09049 0.0
H1506 H 0.51237 0.17687 0.1028 0.0
H1507 H 0.51696 0.14443 0.10285 0.0
H1508 H 0.48077 0.17075 0.97984 0.0
H1509 H 0.48202 0.13779 0.98037 0.0
H1510 H 0.46153 0.19722 0.00023 0.0
H1511 H 0.46759 0.21534 0.02772 0.0
C1512 C 0.33187 0.41804 0.71086 0.0
C1513 C 0.31205 0.41998 0.72806 0.0
C1514 C 0.33666 0.45588 0.74933 0.0
C1515 C 0.35494 0.45571 0.7303 0.0
N1516 N 0.36606 0.44032 0.68929 0.0
N1517 N 0.293 0.444 0.7604 0.0
C1518 C 0.35143 0.43786 0.70997 0.0
C1519 C 0.31365 0.43991 0.74634 0.0
N1520 N 0.33269 0.39681 0.69607 0.0
N1521 N 0.34176 0.47025 0.77087 0.0
H1522 H 0.27567 0.43293 0.75845 0.0
H1523 H 0.29221 0.45981 0.77215 0.0
H1524 H 0.35884 0.48142 0.7744 0.0
H1525 H 0.33025 0.46905 0.78641 0.0
H1526 H 0.34824 0.39342 0.68515 0.0
H1527 H 0.31924 0.38137 0.69668 0.0
H1528 H 0.36242 0.42927 0.67289 0.0
H1529 H 0.38 0.45512 0.68731 0.0
C1530 C 0.3163 0.61341 0.77576 0.0
C1531 C 0.3017 0.62277 0.75458 0.0
C1532 C 0.32536 0.59736 0.72589 0.0
C1533 C 0.34237 0.59095 0.74664 0.0
N1534 N 0.35601 0.59529 0.79112 0.0
N1535 N 0.29459 0.62656 0.70909 0.0
C1536 C 0.33828 0.59943 0.77161 0.0
C1537 C 0.30676 0.61546 0.72951 0.0
N1538 N 0.30887 0.61749 0.79983 0.0
N1539 N 0.32638 0.58548 0.7029 0.0
H1540 H 0.28086 0.63998 0.71086 0.0
H1541 H 0.29971 0.62409 0.69046 0.0
H1542 H 0.33919 0.57149 0.6997 0.0
H1543 H 0.31277 0.58751 0.68784 0.0
H1544 H 0.31712 0.60896 0.81587 0.0
H1545 H 0.29284 0.6276 0.80354 0.0
H1546 H 0.35555 0.60349 0.80909 0.0
H1547 H 0.3725 0.58539 0.78887 0.0
C1548 C 0.82873 0.43373 0.47105 0.0
C1549 C 0.85417 0.43196 0.48205 0.0
C1550 C 0.83902 0.39615 0.50763 0.0
C1551 C 0.81444 0.39567 0.49428 0.0
N1552 N 0.78795 0.41106 0.45899 0.0
N1553 N 0.88465 0.40724 0.50606 0.0
C1554 C 0.80977 0.41369 0.47479 0.0
C1555 C 0.85967 0.41187 0.49891 0.0
N1556 N 0.82242 0.45481 0.45766 0.0
N1557 N 0.84247 0.38259 0.52944 0.0
H1558 H 0.90048 0.41775 0.49939 0.0
H1559 H 0.88964 0.39128 0.5164 0.0
H1560 H 0.82737 0.37238 0.53756 0.0
H1561 H 0.85944 0.38412 0.54107 0.0
H1562 H 0.80352 0.45814 0.45144 0.0
H1563 H 0.83562 0.47008 0.45489 0.0
H1564 H 0.78495 0.42228 0.44297 0.0
H1565 H 0.77409 0.39607 0.46023 0.0
C1566 C 0.69158 0.88448 0.7578 0.0
C1567 C 0.71832 0.88335 0.76469 0.0
C1568 C 0.72252 0.92954 0.76951 0.0
C1569 C 0.69659 0.93099 0.75978 0.0
N1570 N 0.65708 0.91019 0.74178 0.0
N1571 N 0.76035 0.90497 0.77246 0.0
C1572 C 0.6812 0.90853 0.75323 0.0
C1573 C 0.73411 0.90594 0.76924 0.0
N1574 N 0.67606 0.86262 0.75625 0.0
N1575 N 0.73579 0.95055 0.78004 0.0
H1576 H 0.76974 0.88807 0.77218 0.0
H1577 H 0.77297 0.92109 0.77301 0.0
H1578 H 0.72776 0.96811 0.78143 0.0
H1579 H 0.75376 0.94994 0.78982 0.0
H1580 H 0.656 0.86234 0.75393 0.0
H1581 H 0.68309 0.84472 0.7593 0.0
H1582 H 0.646 0.89465 0.73403 0.0
H1583 H 0.64889 0.92747 0.73826 0.0
C1584 C 0.67566 0.57573 0.99166 0.0
C1585 C 0.65239 0.57911 0.0038 0.0
C1586 C 0.67269 0.61673 0.0257 0.0
C1587 C 0.69442 0.61563 0.0107 0.0
N1588 N 0.71482 0.59589 0.9763 0.0
N1589 N 0.62711 0.60601 0.02846 0.0
C1590 C 0.69552 0.59555 0.99286 0.0
C1591 C 0.65041 0.60052 0.01974 0.0
N1592 N 0.67908 0.55334 0.97956 0.0
N1593 N 0.67371 0.63238 0.04646 0.0
H1594 H 0.61005 0.59508 0.02396 0.0
H1595 H 0.62427 0.62285 0.03801 0.0
H1596 H 0.69041 0.64309 0.05258 0.0
H1597 H 0.65921 0.63225 0.05932 0.0
H1598 H 0.69662 0.54891 0.97256 0.0
H1599 H 0.66518 0.53821 0.97873 0.0
H1600 H 0.71496 0.58316 0.96117 0.0
H1601 H 0.72945 0.61028 0.97619 0.0
C1602 C 0.20895 0.5983 0.23005 0.0
C1603 C 0.22 0.61315 0.25086 0.0
C1604 C 0.19885 0.58455 0.28079 0.0
C1605 C 0.18703 0.57018 0.25993 0.0
N1606 N 0.17598 0.56638 0.21505 0.0
N1607 N 0.22146 0.62391 0.29543 0.0
C1608 C 0.19065 0.57796 0.23462 0.0
C1609 C 0.21362 0.60738 0.27607 0.0
N1610 N 0.21655 0.60316 0.20605 0.0
N1611 N 0.19719 0.57569 0.30505 0.0
H1612 H 0.23265 0.64065 0.2927 0.0
H1613 H 0.21506 0.62218 0.31375 0.0
H1614 H 0.18656 0.55907 0.30948 0.0
H1615 H 0.20796 0.58371 0.32066 0.0
H1616 H 0.21144 0.59126 0.19053 0.0
H1617 H 0.2295 0.61823 0.2019 0.0
H1618 H 0.17589 0.57262 0.19632 0.0
H1619 H 0.16193 0.55196 0.21804 0.0
C1620 C 0.85105 0.55313 0.03471 0.0
C1621 C 0.87721 0.56084 0.0311 0.0
C1622 C 0.86483 0.60406 0.02205 0.0
C1623 C 0.8395 0.59725 0.02933 0.0
N1624 N 0.80889 0.56585 0.04525 0.0
N1625 N 0.90982 0.59437 0.02461 0.0
C1626 C 0.83257 0.57186 0.03615 0.0
C1627 C 0.88434 0.58649 0.02552 0.0
N1628 N 0.84382 0.52789 0.03636 0.0
N1629 N 0.87006 0.6271 0.01109 0.0
H1630 H 0.92481 0.58218 0.02717 0.0
H1631 H 0.91625 0.61339 0.02351 0.0
H1632 H 0.85604 0.6402 0.00758 0.0
H1633 H 0.88749 0.63211 0.00307 0.0
H1634 H 0.82464 0.52091 0.03639 0.0
H1635 H 0.85689 0.51371 0.03541 0.0
H1636 H 0.80386 0.54836 0.05324 0.0
H1637 H 0.79484 0.57899 0.04671 0.0
C1638 C 0.14665 0.93292 0.03123 0.0
C1639 C 0.13133 0.93619 0.00843 0.0
C1640 C 0.15791 0.90774 0.98572 0.0
C1641 C 0.1712 0.90224 0.00914 0.0
N1642 N 0.17814 0.90836 0.05445 0.0
N1643 N 0.12082 0.92604 0.96426 0.0
C1644 C 0.16563 0.9146 0.03196 0.0
C1645 C 0.13667 0.92359 0.98565 0.0
N1646 N 0.14336 0.94777 0.05199 0.0
N1647 N 0.16567 0.89783 0.96361 0.0
H1648 H 0.10544 0.9379 0.96341 0.0
H1649 H 0.12177 0.91525 0.94782 0.0
H1650 H 0.18074 0.88567 0.96312 0.0
H1651 H 0.15857 0.90301 0.94561 0.0
H1652 H 0.15565 0.94833 0.06833 0.0
H1653 H 0.12938 0.96113 0.05224 0.0
H1654 H 0.17278 0.91416 0.07218 0.0
H1655 H 0.19328 0.89622 0.05554 0.0
loop_
_geom_bond_atom_site_label_1
_geom_bond_atom_site_label_2
_geom_bond_distance
_geom_bond_site_symmetry_2
_ccdc_geom_bond_type
C0 C1 1.386 . S
C0 C2 1.397 . S
C0 H24 0.931 . S
C1 C0 1.386 . S
C1 C5 1.397 . S
C2 C0 1.397 . S
C2 C3 1.384 . S
C2 H25 0.930 . S
C3 C2 1.384 . S
C3 C4 1.377 1_556 S
C3 C6 1.481 1_556 S
C4 C3 1.377 1_554 S
C4 C5 1.389 1_554 S
C4 H26 0.929 . S
C5 C1 1.397 . S
C5 C4 1.389 1_556 S
C5 H27 0.931 . S
C6 C3 1.481 1_554 S
C6 C7 1.387 . S
C6 C11 1.390 . S
C7 C6 1.387 . S
C7 C8 1.401 . S
C7 H28 0.930 1_554 S
C8 C7 1.401 . S
C8 C9 1.376 . S
C8 C17 1.511 . S
C9 C8 1.376 . S
C9 C10 1.392 . S
C9 H30 0.931 . S
C10 C9 1.392 . S
C10 C11 1.361 . S
C10 C12 1.525 . S
C11 C6 1.390 . S
C11 C10 1.361 . S
C11 H29 0.931 . S
C12 C10 1.525 . S
C12 C13 1.363 1_455 S
C12 C14 1.349 1_455 S
C13 C12 1.363 1_655 S
C13 C23 1.386 . S
C13 H31 0.931 1_545 S
C14 C12 1.349 1_655 S
C14 C15 1.409 . S
C14 H32 0.929 . S
C15 C14 1.409 . S
C15 C16 1.380 . S
C15 H33 0.930 . S
C16 C15 1.380 . S
C16 C23 1.357 . S
C17 C8 1.511 . S
C17 C18 1.341 1_544 S
C17 C19 1.371 1_545 S
C18 C17 1.341 1_566 S
C18 C22 1.391 . S
C18 H34 0.933 1_565 S
C19 C17 1.371 1_565 S
C19 C20 1.392 . S
C19 H35 0.931 . S
C20 C19 1.392 . S
C20 C21 1.331 . S
C20 H38 0.932 . S
C21 C20 1.331 . S
C21 C22 1.336 1_554 S
C22 C18 1.391 . S
C22 C21 1.336 1_556 S
C22 H37 0.929 . S
C23 C13 1.386 . S
C23 C16 1.357 . S
C23 H36 0.928 1_545 S
H24 C0 0.931 . S
H25 C2 0.930 . S
H26 C4 0.929 . S
H27 C5 0.931 . S
H28 C7 0.930 1_556 S
H29 C11 0.931 . S
H30 C9 0.931 . S
H31 C13 0.931 1_565 S
H32 C14 0.929 . S
H33 C15 0.930 . S
H34 C18 0.933 1_545 S
H35 C19 0.931 . S
H36 C23 0.928 1_565 S
H37 C22 0.929 . S
H38 C20 0.932 . S
C39 C40 1.386 . S
C39 C41 1.397 . S
C39 H63 0.931 . S
C40 C39 1.386 . S
C40 C44 1.397 . S
C41 C39 1.397 . S
C41 C42 1.384 . S
C41 H64 0.930 . S
C42 C41 1.384 . S
C42 C43 1.377 . S
C42 C45 1.481 . S
C43 C42 1.377 . S
C43 C44 1.389 . S
C43 H65 0.929 . S
C44 C40 1.397 . S
C44 C43 1.389 . S
C44 H66 0.931 . S
C45 C42 1.481 . S
C45 C46 1.387 . S
C45 C50 1.390 . S
C46 C45 1.387 . S
C46 C47 1.401 . S
C46 H67 0.930 . S
C47 C46 1.401 . S
C47 C48 1.376 . S
C47 C56 1.511 . S
C48 C47 1.376 . S
C48 C49 1.392 . S
C48 H69 0.931 . S
C49 C48 1.392 . S
C49 C50 1.361 . S
C49 C51 1.500 . S
C50 C45 1.390 . S
C50 C49 1.361 . S
C50 H68 0.931 . S
C51 C49 1.500 . S
C51 C52 1.371 . S
C51 C53 1.365 . S
C52 C51 1.371 . S
C52 C62 1.386 . S
C52 H70 0.931 . S
C53 C51 1.365 . S
C53 C54 1.409 . S
C53 H71 0.929 . S
C54 C53 1.409 . S
C54 C55 1.380 . S
C54 H72 0.930 . S
C55 C54 1.380 . S
C55 C62 1.357 . S
C56 C47 1.511 . S
C56 C57 1.341 . S
C56 C58 1.371 . S
C57 C56 1.341 . S
C57 C61 1.394 . S
C57 H73 0.930 . S
C58 C56 1.371 . S
C58 C59 1.392 . S
C58 H74 0.931 . S
C59 C58 1.392 . S
C59 C60 1.331 . S
C59 H77 0.932 . S
C60 C59 1.331 . S
C60 C61 1.336 . S
C61 C57 1.394 . S
C61 C60 1.336 . S
C61 H76 0.929 . S
C62 C52 1.386 . S
C62 C55 1.357 . S
C62 H75 0.928 . S
H63 C39 0.931 . S
H64 C41 0.930 . S
H65 C43 0.929 . S
H66 C44 0.931 . S
H67 C46 0.930 . S
H68 C50 0.931 . S
H69 C48 0.931 . S
H70 C52 0.931 . S
H71 C53 0.929 . S
H72 C54 0.930 . S
H73 C57 0.930 . S
H74 C58 0.931 . S
H75 C62 0.928 . S
H76 C61 0.929 . S
H77 C59 0.932 . S
C78 C79 1.386 . S
C78 C80 1.397 . S
C78 H102 0.931 . S
C79 C78 1.386 . S
C79 C83 1.397 . S
C80 C78 1.397 . S
C80 C81 1.384 . S
C80 H103 0.930 1_455 S
C81 C80 1.384 . S
C81 C82 1.377 . S
C81 C84 1.481 1_455 S
C82 C81 1.377 . S
C82 C83 1.389 . S
C82 H104 0.929 . S
C83 C79 1.397 . S
C83 C82 1.389 . S
C83 H105 0.931 . S
C84 C81 1.481 1_655 S
C84 C85 1.387 . S
C84 C89 1.390 . S
C85 C84 1.387 . S
C85 C86 1.401 . S
C85 H106 0.930 . S
C86 C85 1.401 . S
C86 C87 1.376 . S
C86 C95 1.511 . S
C87 C86 1.376 . S
C87 C88 1.392 . S
C87 H108 0.931 . S
C88 C87 1.392 . S
C88 C89 1.361 . S
C88 C90 1.500 . S
C89 C84 1.390 . S
C89 C88 1.361 . S
C89 H107 0.931 1_655 S
C90 C88 1.500 . S
C90 C91 1.354 1_554 S
C90 C92 1.365 1_655 S
C91 C90 1.354 1_556 S
C91 C101 1.411 . S
C91 H109 0.925 1_556 S
C92 C90 1.365 1_455 S
C92 C93 1.409 1_554 S
C92 H110 0.929 . S
C93 C92 1.409 1_556 S
C93 C94 1.380 1_455 S
C93 H111 0.930 . S
C94 C93 1.380 1_655 S
C94 C101 1.357 . S
C95 C86 1.511 . S
C95 C96 1.341 . S
C95 C97 1.371 . S
C96 C95 1.341 . S
C96 C100 1.394 . S
C96 H112 0.930 . S
C97 C95 1.371 . S
C97 C98 1.392 . S
C97 H113 0.931 . S
C98 C97 1.392 . S
C98 C99 1.331 . S
C98 H116 0.932 1_554 S
C99 C98 1.331 . S
C99 C100 1.336 . S
C100 C96 1.394 . S
C100 C99 1.336 . S
C100 H115 0.929 . S
C101 C91 1.411 . S
C101 C94 1.357 . S
C101 H114 0.928 . S
H102 C78 0.931 . S
H103 C80 0.930 1_655 S
H104 C82 0.929 . S
H105 C83 0.931 . S
H106 C85 0.930 . S
H107 C89 0.931 1_455 S
H108 C87 0.931 . S
H109 C91 0.925 1_554 S
H110 C92 0.929 . S
H111 C93 0.930 . S
H112 C96 0.930 . S
H113 C97 0.931 . S
H114 C101 0.928 . S
H115 C100 0.929 . S
H116 C98 0.932 1_556 S
C117 C118 1.386 . S
C117 C119 1.397 . S
C117 H141 0.931 . S
C118 C117 1.386 . S
C118 C122 1.397 . S
C119 C117 1.397 . S
C119 C120 1.384 . S
C119 H142 0.930 . S
C120 C119 1.384 . S
C120 C121 1.377 . S
C120 C123 1.481 . S
C121 C120 1.377 . S
C121 C122 1.389 . S
C121 H143 0.929 . S
C122 C118 1.397 . S
C122 C121 1.389 . S
C122 H144 0.931 . S
C123 C120 1.481 . S
C123 C124 1.387 . S
C123 C128 1.390 . S
C124 C123 1.387 . S
C124 C125 1.401 . S
C124 H145 0.930 . S
C125 C124 1.401 . S
C125 C126 1.376 . S
C125 C134 1.511 . S
C126 C125 1.376 . S
C126 C127 1.392 . S
C126 H147 0.931 . S
C127 C126 1.392 . S
C127 C128 1.361 . S
C127 C129 1.500 . S
C128 C123 1.390 . S
C128 C127 1.361 . S
C128 H146 0.931 . S
C129 C127 1.500 . S
C129 C130 1.371 . S
C129 C131 1.365 . S
C130 C129 1.371 . S
C130 C140 1.386 . S
C130 H148 0.931 . S
C131 C129 1.365 . S
C131 C132 1.409 . S
C131 H149 0.929 . S
C132 C131 1.409 . S
C132 C133 1.380 . S
C132 H150 0.930 . S
C133 C132 1.380 . S
C133 C140 1.357 . S
C134 C125 1.511 . S
C134 C135 1.341 . S
C134 C136 1.371 . S
C135 C134 1.341 . S
C135 C139 1.394 . S
C135 H151 0.930 . S
C136 C134 1.371 . S
C136 C137 1.392 . S
C136 H152 0.931 . S
C137 C136 1.392 . S
C137 C138 1.331 . S
C137 H155 0.932 . S
C138 C137 1.331 . S
C138 C139 1.336 . S
C139 C135 1.394 . S
C139 C138 1.336 . S
C139 H154 0.929 . S
C140 C130 1.386 . S
C140 C133 1.357 . S
C140 H153 0.928 . S
H141 C117 0.931 . S
H142 C119 0.930 . S
H143 C121 0.929 . S
H144 C122 0.931 . S
H145 C124 0.930 . S
H146 C128 0.931 . S
H147 C126 0.931 . S
H148 C130 0.931 . S
H149 C131 0.929 . S
H150 C132 0.930 . S
H151 C135 0.930 . S
H152 C136 0.931 . S
H153 C140 0.928 . S
H154 C139 0.929 . S
H155 C137 0.932 . S
C156 C157 1.386 . S
C156 C158 1.397 . S
C156 H180 0.931 . S
C157 C156 1.386 . S
C157 C161 1.397 1_655 S
C158 C156 1.397 . S
C158 C159 1.384 1_655 S
C158 H181 0.930 . S
C159 C158 1.384 1_455 S
C159 C160 1.377 . S
C159 C162 1.481 . S
C160 C159 1.377 . S
C160 C161 1.389 . S
C160 H182 0.929 . S
C161 C157 1.397 1_455 S
C161 C160 1.389 . S
C161 H183 0.931 . S
C162 C159 1.481 . S
C162 C163 1.387 . S
C162 C167 1.390 . S
C163 C162 1.387 . S
C163 C164 1.401 . S
C163 H184 0.930 . S
C164 C163 1.401 . S
C164 C165 1.376 . S
C164 C173 1.511 . S
C165 C164 1.376 . S
C165 C166 1.392 . S
C165 H186 0.931 . S
C166 C165 1.392 . S
C166 C167 1.361 . S
C166 C168 1.500 1_565 S
C167 C162 1.390 . S
C167 C166 1.361 . S
C167 H185 0.931 1_565 S
C168 C166 1.500 1_545 S
C168 C169 1.371 . S
C168 C170 1.365 . S
C169 C168 1.371 . S
C169 C179 1.386 . S
C169 H187 0.931 . S
C170 C168 1.365 . S
C170 C171 1.409 . S
C170 H188 0.929 . S
C171 C170 1.409 . S
C171 C172 1.380 . S
C171 H189 0.930 . S
C172 C171 1.380 . S
C172 C179 1.357 . S
C173 C164 1.511 . S
C173 C174 1.341 . S
C173 C175 1.371 . S
C174 C173 1.341 . S
C174 C178 1.394 . S
C174 H190 0.930 . S
C175 C173 1.371 . S
C175 C176 1.392 . S
C175 H191 0.931 . S
C176 C175 1.392 . S
C176 C177 1.331 . S
C176 H194 0.932 . S
C177 C176 1.331 . S
C177 C178 1.336 . S
C178 C174 1.394 . S
C178 C177 1.336 . S
C178 H193 0.929 1_455 S
C179 C169 1.386 . S
C179 C172 1.357 . S
C179 H192 0.928 . S
H180 C156 0.931 . S
H181 C158 0.930 . S
H182 C160 0.929 . S
H183 C161 0.931 . S
H184 C163 0.930 . S
H185 C167 0.931 1_545 S
H186 C165 0.931 . S
H187 C169 0.931 . S
H188 C170 0.929 . S
H189 C171 0.930 . S
H190 C174 0.930 . S
H191 C175 0.931 . S
H192 C179 0.928 . S
H193 C178 0.929 1_655 S
H194 C176 0.932 . S
C195 C196 1.386 . S
C195 C197 1.397 . S
C195 H219 0.931 . S
C196 C195 1.386 . S
C196 C200 1.397 . S
C197 C195 1.397 . S
C197 C198 1.384 . S
C197 H220 0.930 . S
C198 C197 1.384 . S
C198 C199 1.377 . S
C198 C201 1.481 . S
C199 C198 1.377 . S
C199 C200 1.389 . S
C199 H221 0.929 . S
C200 C196 1.397 . S
C200 C199 1.389 . S
C200 H222 0.931 . S
C201 C198 1.481 . S
C201 C202 1.387 . S
C201 C206 1.390 . S
C202 C201 1.387 . S
C202 C203 1.401 . S
C202 H223 0.930 . S
C203 C202 1.401 . S
C203 C204 1.376 . S
C203 C212 1.511 . S
C204 C203 1.376 . S
C204 C205 1.392 . S
C204 H225 0.931 . S
C205 C204 1.392 . S
C205 C206 1.361 . S
C205 C207 1.500 . S
C206 C201 1.390 . S
C206 C205 1.361 . S
C206 H224 0.931 . S
C207 C205 1.500 . S
C207 C208 1.371 . S
C207 C209 1.365 . S
C208 C207 1.371 . S
C208 C218 1.386 . S
C208 H226 0.931 . S
C209 C207 1.365 . S
C209 C210 1.409 . S
C209 H227 0.929 . S
C210 C209 1.409 . S
C210 C211 1.380 . S
C210 H228 0.930 . S
C211 C210 1.380 . S
C211 C218 1.357 . S
C212 C203 1.511 . S
C212 C213 1.341 . S
C212 C214 1.371 . S
C213 C212 1.341 . S
C213 C217 1.394 . S
C213 H229 0.930 . S
C214 C212 1.371 . S
C214 C215 1.392 . S
C214 H230 0.931 . S
C215 C214 1.392 . S
C215 C216 1.331 . S
C215 H233 0.932 . S
C216 C215 1.331 . S
C216 C217 1.336 . S
C217 C213 1.394 . S
C217 C216 1.336 . S
C217 H232 0.929 . S
C218 C208 1.386 . S
C218 C211 1.357 . S
C218 H231 0.928 . S
H219 C195 0.931 . S
H220 C197 0.930 . S
H221 C199 0.929 . S
H222 C200 0.931 . S
H223 C202 0.930 . S
H224 C206 0.931 . S
H225 C204 0.931 . S
H226 C208 0.931 . S
H227 C209 0.929 . S
H228 C210 0.930 . S
H229 C213 0.930 . S
H230 C214 0.931 . S
H231 C218 0.928 . S
H232 C217 0.929 . S
H233 C215 0.932 . S
C234 C235 1.386 . S
C234 C236 1.397 . S
C234 H258 0.931 . S
C235 C234 1.386 . S
C235 C239 1.397 . S
C236 C234 1.397 . S
C236 C237 1.384 . S
C236 H259 0.930 . S
C237 C236 1.384 . S
C237 C238 1.377 . S
C237 C240 1.481 . S
C238 C237 1.377 . S
C238 C239 1.389 . S
C238 H260 0.929 . S
C239 C235 1.397 . S
C239 C238 1.389 . S
C239 H261 0.931 . S
C240 C237 1.481 . S
C240 C241 1.387 . S
C240 C245 1.390 . S
C241 C240 1.387 . S
C241 C242 1.401 . S
C241 H262 0.942 . S
C242 C241 1.401 . S
C242 C243 1.376 . S
C242 C251 1.513 . S
C243 C242 1.376 . S
C243 C244 1.392 . S
C243 H264 0.931 . S
C244 C243 1.392 . S
C244 C245 1.361 . S
C244 C246 1.500 . S
C245 C240 1.390 . S
C245 C244 1.361 . S
C245 H263 0.931 . S
C246 C244 1.500 . S
C246 C247 1.371 . S
C246 C248 1.365 . S
C247 C246 1.371 . S
C247 C257 1.386 . S
C247 H265 0.931 . S
C248 C246 1.365 . S
C248 C249 1.409 . S
C248 H266 0.929 . S
C249 C248 1.409 . S
C249 C250 1.380 . S
C249 H267 0.930 . S
C250 C249 1.380 . S
C250 C257 1.357 . S
C251 C242 1.513 . S
C251 C252 1.339 1_655 S
C251 C253 1.371 1_655 S
C252 C251 1.339 1_455 S
C252 C256 1.394 . S
C252 H268 0.930 . S
C253 C251 1.371 1_455 S
C253 C254 1.392 . S
C253 H269 0.931 1_455 S
C254 C253 1.392 . S
C254 C255 1.331 . S
C254 H272 0.932 . S
C255 C254 1.331 . S
C255 C256 1.336 . S
C256 C252 1.394 . S
C256 C255 1.336 . S
C256 H271 0.929 . S
C257 C247 1.386 . S
C257 C250 1.357 . S
C257 H270 0.928 . S
H258 C234 0.931 . S
H259 C236 0.930 . S
H260 C238 0.929 . S
H261 C239 0.931 . S
H262 C241 0.942 . S
H263 C245 0.931 . S
H264 C243 0.931 . S
H265 C247 0.931 . S
H266 C248 0.929 . S
H267 C249 0.930 . S
H268 C252 0.930 . S
H269 C253 0.931 1_655 S
H270 C257 0.928 . S
H271 C256 0.929 . S
H272 C254 0.932 . S
C273 C274 1.386 . S
C273 C275 1.397 . S
C273 H297 0.931 . S
C274 C273 1.386 . S
C274 C278 1.397 . S
C275 C273 1.397 . S
C275 C276 1.384 . S
C275 H298 0.930 . S
C276 C275 1.384 . S
C276 C277 1.377 . S
C276 C279 1.481 . S
C277 C276 1.377 . S
C277 C278 1.389 . S
C277 H299 0.929 . S
C278 C274 1.397 . S
C278 C277 1.389 . S
C278 H300 0.931 . S
C279 C276 1.481 . S
C279 C280 1.387 . S
C279 C284 1.390 . S
C280 C279 1.387 . S
C280 C281 1.401 . S
C280 H301 0.930 . S
C281 C280 1.401 . S
C281 C282 1.376 . S
C281 C290 1.511 . S
C282 C281 1.376 . S
C282 C283 1.392 . S
C282 H303 0.931 . S
C283 C282 1.392 . S
C283 C284 1.361 . S
C283 C285 1.500 . S
C284 C279 1.390 . S
C284 C283 1.361 . S
C284 H302 0.931 . S
C285 C283 1.500 . S
C285 C286 1.371 . S
C285 C287 1.365 . S
C286 C285 1.371 . S
C286 C296 1.386 . S
C286 H304 0.931 . S
C287 C285 1.365 . S
C287 C288 1.409 . S
C287 H305 0.929 . S
C288 C287 1.409 . S
C288 C289 1.380 . S
C288 H306 0.930 . S
C289 C288 1.380 . S
C289 C296 1.357 . S
C290 C281 1.511 . S
C290 C291 1.341 . S
C290 C292 1.371 . S
C291 C290 1.341 . S
C291 C295 1.394 . S
C291 H307 0.930 . S
C292 C290 1.371 . S
C292 C293 1.392 . S
C292 H308 0.931 . S
C293 C292 1.392 . S
C293 C294 1.331 . S
C293 H311 0.932 . S
C294 C293 1.331 . S
C294 C295 1.336 . S
C295 C291 1.394 . S
C295 C294 1.336 . S
C295 H310 0.929 . S
C296 C286 1.386 . S
C296 C289 1.357 . S
C296 H309 0.928 . S
H297 C273 0.931 . S
H298 C275 0.930 . S
H299 C277 0.929 . S
H300 C278 0.931 . S
H301 C280 0.930 . S
H302 C284 0.931 . S
H303 C282 0.931 . S
H304 C286 0.931 . S
H305 C287 0.929 . S
H306 C288 0.930 . S
H307 C291 0.930 . S
H308 C292 0.931 . S
H309 C296 0.928 . S
H310 C295 0.929 . S
H311 C293 0.932 . S
C312 C313 1.386 . S
C312 C314 1.397 . S
C312 H336 0.931 . S
C313 C312 1.386 . S
C313 C317 1.397 . S
C314 C312 1.397 . S
C314 C315 1.384 . S
C314 H337 0.930 . S
C315 C314 1.384 . S
C315 C316 1.377 . S
C315 C318 1.481 . S
C316 C315 1.377 . S
C316 C317 1.389 . S
C316 H338 0.929 . S
C317 C313 1.397 . S
C317 C316 1.389 . S
C317 H339 0.931 . S
C318 C315 1.481 . S
C318 C319 1.387 . S
C318 C323 1.390 . S
C319 C318 1.387 . S
C319 C320 1.401 . S
C319 H340 0.930 . S
C320 C319 1.401 . S
C320 C321 1.376 . S
C320 C329 1.511 . S
C321 C320 1.376 . S
C321 C322 1.392 . S
C321 H342 0.931 . S
C322 C321 1.392 . S
C322 C323 1.361 . S
C322 C324 1.500 . S
C323 C318 1.390 . S
C323 C322 1.361 . S
C323 H341 0.931 . S
C324 C322 1.500 . S
C324 C325 1.371 . S
C324 C326 1.365 . S
C325 C324 1.371 . S
C325 C335 1.386 . S
C325 H343 0.931 . S
C326 C324 1.365 . S
C326 C327 1.409 . S
C326 H344 0.929 . S
C327 C326 1.409 . S
C327 C328 1.380 . S
C327 H345 0.930 . S
C328 C327 1.380 . S
C328 C335 1.357 . S
C329 C320 1.511 . S
C329 C330 1.341 . S
C329 C331 1.371 . S
C330 C329 1.341 . S
C330 C334 1.394 . S
C330 H346 0.930 . S
C331 C329 1.371 . S
C331 C332 1.392 . S
C331 H347 0.931 . S
C332 C331 1.392 . S
C332 C333 1.331 . S
C332 H350 0.932 . S
C333 C332 1.331 . S
C333 C334 1.336 . S
C334 C330 1.394 . S
C334 C333 1.336 . S
C334 H349 0.929 . S
C335 C325 1.386 . S
C335 C328 1.357 . S
C335 H348 0.928 . S
H336 C312 0.931 . S
H337 C314 0.930 . S
H338 C316 0.929 . S
H339 C317 0.931 . S
H340 C319 0.930 . S
H341 C323 0.931 . S
H342 C321 0.931 . S
H343 C325 0.931 . S
H344 C326 0.929 . S
H345 C327 0.930 . S
H346 C330 0.930 . S
H347 C331 0.931 . S
H348 C335 0.928 . S
H349 C334 0.929 . S
H350 C332 0.932 . S
C351 C352 1.386 . S
C351 C353 1.397 . S
C351 H375 0.931 . S
C352 C351 1.386 . S
C352 C356 1.397 . S
C353 C351 1.397 . S
C353 C354 1.384 . S
C353 H376 0.930 . S
C354 C353 1.384 . S
C354 C355 1.377 . S
C354 C357 1.481 . S
C355 C354 1.377 . S
C355 C356 1.389 . S
C355 H377 0.929 . S
C356 C352 1.397 . S
C356 C355 1.389 . S
C356 H378 0.931 . S
C357 C354 1.481 . S
C357 C358 1.387 . S
C357 C362 1.390 . S
C358 C357 1.387 . S
C358 C359 1.401 . S
C358 H379 0.930 . S
C359 C358 1.401 . S
C359 C360 1.376 . S
C359 C368 1.516 . S
C360 C359 1.376 . S
C360 C361 1.392 . S
C360 H381 0.931 . S
C361 C360 1.392 . S
C361 C362 1.361 . S
C361 C363 1.500 . S
C362 C357 1.390 . S
C362 C361 1.361 . S
C362 H380 0.931 . S
C363 C361 1.500 . S
C363 C364 1.371 . S
C363 C365 1.365 . S
C364 C363 1.371 . S
C364 C374 1.386 . S
C364 H382 0.931 . S
C365 C363 1.365 . S
C365 C366 1.409 . S
C365 H383 0.929 . S
C366 C365 1.409 . S
C366 C367 1.380 . S
C366 H384 0.930 . S
C367 C366 1.380 . S
C367 C374 1.357 . S
C368 C359 1.516 . S
C368 C369 1.336 1_565 S
C368 C370 1.370 1_565 S
C369 C368 1.336 1_545 S
C369 C373 1.394 . S
C369 H385 0.930 . S
C370 C368 1.370 1_545 S
C370 C371 1.392 . S
C370 H386 0.931 1_545 S
C371 C370 1.392 . S
C371 C372 1.331 . S
C371 H389 0.932 . S
C372 C371 1.331 . S
C372 C373 1.336 . S
C373 C369 1.394 . S
C373 C372 1.336 . S
C373 H388 0.929 . S
C374 C364 1.386 . S
C374 C367 1.357 . S
C374 H387 0.928 . S
H375 C351 0.931 . S
H376 C353 0.930 . S
H377 C355 0.929 . S
H378 C356 0.931 . S
H379 C358 0.930 . S
H380 C362 0.931 . S
H381 C360 0.931 . S
H382 C364 0.931 . S
H383 C365 0.929 . S
H384 C366 0.930 . S
H385 C369 0.930 . S
H386 C370 0.931 1_565 S
H387 C374 0.928 . S
H388 C373 0.929 . S
H389 C371 0.932 . S
C390 C391 1.386 . S
C390 C392 1.397 . S
C390 H414 0.931 . S
C391 C390 1.386 . S
C391 C395 1.397 . S
C392 C390 1.397 . S
C392 C393 1.384 . S
C392 H415 0.930 . S
C393 C392 1.384 . S
C393 C394 1.377 . S
C393 C396 1.481 . S
C394 C393 1.377 . S
C394 C395 1.389 . S
C394 H416 0.929 . S
C395 C391 1.397 . S
C395 C394 1.389 . S
C395 H417 0.931 . S
C396 C393 1.481 . S
C396 C397 1.387 . S
C396 C401 1.390 . S
C397 C396 1.387 . S
C397 C398 1.401 . S
C397 H418 0.930 . S
C398 C397 1.401 . S
C398 C399 1.376 . S
C398 C407 1.511 . S
C399 C398 1.376 . S
C399 C400 1.392 . S
C399 H420 0.931 . S
C400 C399 1.392 . S
C400 C401 1.361 . S
C400 C402 1.500 . S
C401 C396 1.390 . S
C401 C400 1.361 . S
C401 H419 0.931 . S
C402 C400 1.500 . S
C402 C403 1.371 . S
C402 C404 1.365 . S
C403 C402 1.371 . S
C403 C413 1.386 . S
C403 H421 0.931 . S
C404 C402 1.365 . S
C404 C405 1.409 . S
C404 H422 0.929 . S
C405 C404 1.409 . S
C405 C406 1.380 . S
C405 H423 0.930 . S
C406 C405 1.380 . S
C406 C413 1.357 . S
C407 C398 1.511 . S
C407 C408 1.341 . S
C407 C409 1.371 . S
C408 C407 1.341 . S
C408 C412 1.394 . S
C408 H424 0.930 . S
C409 C407 1.371 . S
C409 C410 1.392 . S
C409 H425 0.931 . S
C410 C409 1.392 . S
C410 C411 1.331 . S
C410 H428 0.932 . S
C411 C410 1.331 . S
C411 C412 1.336 . S
C412 C408 1.394 . S
C412 C411 1.336 . S
C412 H427 0.929 . S
C413 C403 1.386 . S
C413 C406 1.357 . S
C413 H426 0.928 . S
H414 C390 0.931 . S
H415 C392 0.930 . S
H416 C394 0.929 . S
H417 C395 0.931 . S
H418 C397 0.930 . S
H419 C401 0.931 . S
H420 C399 0.931 . S
H421 C403 0.931 . S
H422 C404 0.929 . S
H423 C405 0.930 . S
H424 C408 0.930 . S
H425 C409 0.931 . S
H426 C413 0.928 . S
H427 C412 0.929 . S
H428 C410 0.932 . S
C429 C430 1.386 . S
C429 C431 1.397 . S
C429 H453 0.931 . S
C430 C429 1.386 . S
C430 C434 1.397 . S
C431 C429 1.397 . S
C431 C432 1.384 . S
C431 H454 0.930 . S
C432 C431 1.384 . S
C432 C433 1.377 . S
C432 C435 1.481 . S
C433 C432 1.377 . S
C433 C434 1.389 . S
C433 H455 0.929 . S
C434 C430 1.397 . S
C434 C433 1.389 . S
C434 H456 0.931 . S
C435 C432 1.481 . S
C435 C436 1.387 . S
C435 C440 1.390 . S
C436 C435 1.387 . S
C436 C437 1.401 . S
C436 H457 0.930 . S
C437 C436 1.401 . S
C437 C438 1.376 . S
C437 C446 1.511 . S
C438 C437 1.376 . S
C438 C439 1.392 . S
C438 H459 0.931 . S
C439 C438 1.392 . S
C439 C440 1.361 . S
C439 C441 1.500 . S
C440 C435 1.390 . S
C440 C439 1.361 . S
C440 H458 0.931 . S
C441 C439 1.500 . S
C441 C442 1.371 . S
C441 C443 1.365 . S
C442 C441 1.371 . S
C442 C452 1.386 . S
C442 H460 0.931 . S
C443 C441 1.365 . S
C443 C444 1.409 . S
C443 H461 0.929 . S
C444 C443 1.409 . S
C444 C445 1.380 . S
C444 H462 0.930 . S
C445 C444 1.380 . S
C445 C452 1.357 . S
C446 C437 1.511 . S
C446 C447 1.341 . S
C446 C448 1.371 . S
C447 C446 1.341 . S
C447 C451 1.394 . S
C447 H463 0.930 . S
C448 C446 1.371 . S
C448 C449 1.392 . S
C448 H464 0.931 . S
C449 C448 1.392 . S
C449 C450 1.331 . S
C449 H467 0.932 . S
C450 C449 1.331 . S
C450 C451 1.336 . S
C451 C447 1.394 . S
C451 C450 1.336 . S
C451 H466 0.929 . S
C452 C442 1.386 . S
C452 C445 1.357 . S
C452 H465 0.928 . S
H453 C429 0.931 . S
H454 C431 0.930 . S
H455 C433 0.929 . S
H456 C434 0.931 . S
H457 C436 0.930 . S
H458 C440 0.931 . S
H459 C438 0.931 . S
H460 C442 0.931 . S
H461 C443 0.929 . S
H462 C444 0.930 . S
H463 C447 0.930 . S
H464 C448 0.931 . S
H465 C452 0.928 . S
H466 C451 0.929 . S
H467 C449 0.932 . S
C468 C469 1.386 . S
C468 C470 1.397 . S
C468 H492 0.931 . S
C469 C468 1.386 . S
C469 C473 1.397 . S
C470 C468 1.397 . S
C470 C471 1.384 . S
C470 H493 0.930 . S
C471 C470 1.384 . S
C471 C472 1.377 . S
C471 C474 1.481 . S
C472 C471 1.377 . S
C472 C473 1.389 . S
C472 H494 0.929 . S
C473 C469 1.397 . S
C473 C472 1.389 . S
C473 H495 0.931 . S
C474 C471 1.481 . S
C474 C475 1.387 . S
C474 C479 1.390 . S
C475 C474 1.387 . S
C475 C476 1.401 . S
C475 H496 0.930 . S
C476 C475 1.401 . S
C476 C477 1.376 . S
C476 C485 1.511 . S
C477 C476 1.376 . S
C477 C478 1.392 . S
C477 H498 0.931 . S
C478 C477 1.392 . S
C478 C479 1.361 . S
C478 C480 1.500 . S
C479 C474 1.390 . S
C479 C478 1.361 . S
C479 H497 0.931 . S
C480 C478 1.500 . S
C480 C481 1.371 . S
C480 C482 1.365 . S
C481 C480 1.371 . S
C481 C491 1.386 . S
C481 H499 0.931 . S
C482 C480 1.365 . S
C482 C483 1.409 . S
C482 H500 0.929 . S
C483 C482 1.409 . S
C483 C484 1.380 . S
C483 H501 0.930 . S
C484 C483 1.380 . S
C484 C491 1.357 . S
C485 C476 1.511 . S
C485 C486 1.341 . S
C485 C487 1.371 . S
C486 C485 1.341 . S
C486 C490 1.394 . S
C486 H502 0.930 . S
C487 C485 1.371 . S
C487 C488 1.392 . S
C487 H503 0.931 . S
C488 C487 1.392 . S
C488 C489 1.331 . S
C488 H506 0.932 . S
C489 C488 1.331 . S
C489 C490 1.336 . S
C490 C486 1.394 . S
C490 C489 1.336 . S
C490 H505 0.929 . S
C491 C481 1.386 . S
C491 C484 1.357 . S
C491 H504 0.928 . S
H492 C468 0.931 . S
H493 C470 0.930 . S
H494 C472 0.929 . S
H495 C473 0.931 . S
H496 C475 0.930 . S
H497 C479 0.931 . S
H498 C477 0.931 . S
H499 C481 0.931 . S
H500 C482 0.929 . S
H501 C483 0.930 . S
H502 C486 0.930 . S
H503 C487 0.931 . S
H504 C491 0.928 . S
H505 C490 0.929 . S
H506 C488 0.932 . S
C507 C508 1.386 . S
C507 C509 1.397 . S
C507 H531 0.931 . S
C508 C507 1.386 . S
C508 C512 1.397 . S
C509 C507 1.397 . S
C509 C510 1.384 . S
C509 H532 0.930 . S
C510 C509 1.384 . S
C510 C511 1.377 . S
C510 C513 1.481 . S
C511 C510 1.377 . S
C511 C512 1.389 . S
C511 H533 0.929 . S
C512 C508 1.397 . S
C512 C511 1.389 . S
C512 H534 0.931 . S
C513 C510 1.481 . S
C513 C514 1.387 . S
C513 C518 1.390 . S
C514 C513 1.387 . S
C514 C515 1.401 . S
C514 H535 0.930 . S
C515 C514 1.401 . S
C515 C516 1.376 . S
C515 C524 1.535 . S
C516 C515 1.376 . S
C516 C517 1.392 . S
C516 H537 0.925 1_556 S
C517 C516 1.392 . S
C517 C518 1.361 . S
C517 C519 1.500 . S
C518 C513 1.390 . S
C518 C517 1.361 . S
C518 H536 0.931 . S
C519 C517 1.500 . S
C519 C520 1.371 . S
C519 C521 1.365 . S
C520 C519 1.371 . S
C520 C530 1.386 1_556 S
C520 H538 0.931 1_556 S
C521 C519 1.365 . S
C521 C522 1.409 . S
C521 H539 0.929 . S
C522 C521 1.409 . S
C522 C523 1.380 . S
C522 H540 0.930 . S
C523 C522 1.380 . S
C523 C530 1.357 1_556 S
C524 C515 1.535 . S
C524 C525 1.340 . S
C524 C526 1.350 1_556 S
C525 C524 1.340 . S
C525 C529 1.380 1_556 S
C525 H541 0.944 . S
C526 C524 1.350 1_554 S
C526 C527 1.392 . S
C526 H542 0.931 . S
C527 C526 1.392 . S
C527 C528 1.331 . S
C527 H545 0.932 . S
C528 C527 1.331 . S
C528 C529 1.336 . S
C529 C525 1.380 1_554 S
C529 C528 1.336 . S
C529 H544 0.929 . S
C530 C520 1.386 1_554 S
C530 C523 1.357 1_554 S
C530 H543 0.928 . S
H531 C507 0.931 . S
H532 C509 0.930 . S
H533 C511 0.929 . S
H534 C512 0.931 . S
H535 C514 0.930 . S
H536 C518 0.931 . S
H537 C516 0.925 1_554 S
H538 C520 0.931 1_554 S
H539 C521 0.929 . S
H540 C522 0.930 . S
H541 C525 0.944 . S
H542 C526 0.931 . S
H543 C530 0.928 . S
H544 C529 0.929 . S
H545 C527 0.932 . S
C546 C547 1.386 . S
C546 C548 1.397 . S
C546 H570 0.931 . S
C547 C546 1.386 . S
C547 C551 1.397 . S
C548 C546 1.397 . S
C548 C549 1.384 . S
C548 H571 0.930 . S
C549 C548 1.384 . S
C549 C550 1.377 . S
C549 C552 1.481 . S
C550 C549 1.377 . S
C550 C551 1.389 . S
C550 H572 0.929 . S
C551 C547 1.397 . S
C551 C550 1.389 . S
C551 H573 0.931 . S
C552 C549 1.481 . S
C552 C553 1.387 . S
C552 C557 1.390 . S
C553 C552 1.387 . S
C553 C554 1.401 . S
C553 H574 0.930 . S
C554 C553 1.401 . S
C554 C555 1.376 . S
C554 C563 1.511 . S
C555 C554 1.376 . S
C555 C556 1.392 . S
C555 H576 0.931 . S
C556 C555 1.392 . S
C556 C557 1.361 . S
C556 C558 1.500 . S
C557 C552 1.390 . S
C557 C556 1.361 . S
C557 H575 0.931 . S
C558 C556 1.500 . S
C558 C559 1.371 . S
C558 C560 1.365 . S
C559 C558 1.371 . S
C559 C569 1.386 . S
C559 H577 0.931 . S
C560 C558 1.365 . S
C560 C561 1.409 . S
C560 H578 0.929 . S
C561 C560 1.409 . S
C561 C562 1.380 . S
C561 H579 0.930 . S
C562 C561 1.380 . S
C562 C569 1.357 . S
C563 C554 1.511 . S
C563 C564 1.341 . S
C563 C565 1.371 . S
C564 C563 1.341 . S
C564 C568 1.394 . S
C564 H580 0.930 . S
C565 C563 1.371 . S
C565 C566 1.392 . S
C565 H581 0.931 . S
C566 C565 1.392 . S
C566 C567 1.331 . S
C566 H584 0.932 . S
C567 C566 1.331 . S
C567 C568 1.336 . S
C568 C564 1.394 . S
C568 C567 1.336 . S
C568 H583 0.929 . S
C569 C559 1.386 . S
C569 C562 1.357 . S
C569 H582 0.928 . S
H570 C546 0.931 . S
H571 C548 0.930 . S
H572 C550 0.929 . S
H573 C551 0.931 . S
H574 C553 0.930 . S
H575 C557 0.931 . S
H576 C555 0.931 . S
H577 C559 0.931 . S
H578 C560 0.929 . S
H579 C561 0.930 . S
H580 C564 0.930 . S
H581 C565 0.931 . S
H582 C569 0.928 . S
H583 C568 0.929 . S
H584 C566 0.932 . S
C585 C586 1.386 . S
C585 C587 1.397 1_554 S
C585 H609 0.931 . S
C586 C585 1.386 . S
C586 C590 1.397 . S
C587 C585 1.397 1_556 S
C587 C588 1.384 1_556 S
C587 H610 0.930 . S
C588 C587 1.384 1_554 S
C588 C589 1.377 . S
C588 C591 1.481 1_554 S
C589 C588 1.377 . S
C589 C590 1.389 . S
C589 H611 0.929 . S
C590 C586 1.397 . S
C590 C589 1.389 . S
C590 H612 0.931 . S
C591 C588 1.481 1_556 S
C591 C592 1.387 . S
C591 C596 1.390 . S
C592 C591 1.387 . S
C592 C593 1.401 . S
C592 H613 0.930 . S
C593 C592 1.401 . S
C593 C594 1.376 . S
C593 C602 1.511 . S
C594 C593 1.376 . S
C594 C595 1.392 . S
C594 H615 0.931 1_545 S
C595 C594 1.392 . S
C595 C596 1.361 . S
C595 C597 1.500 1_545 S
C596 C591 1.390 . S
C596 C595 1.361 . S
C596 H614 0.931 1_556 S
C597 C595 1.500 1_565 S
C597 C598 1.371 . S
C597 C599 1.365 1_556 S
C598 C597 1.371 . S
C598 C608 1.386 . S
C598 H616 0.931 . S
C599 C597 1.365 1_554 S
C599 C600 1.409 . S
C599 H617 0.921 1_565 S
C600 C599 1.409 . S
C600 C601 1.380 1_554 S
C600 H618 0.930 . S
C601 C600 1.380 1_556 S
C601 C608 1.357 . S
C602 C593 1.511 . S
C602 C603 1.341 . S
C602 C604 1.368 . S
C603 C602 1.341 . S
C603 C607 1.394 . S
C603 H619 0.930 . S
C604 C602 1.368 . S
C604 C605 1.393 1_545 S
C604 H620 0.934 1_545 S
C605 C604 1.393 1_565 S
C605 C606 1.331 1_565 S
C605 H623 0.932 . S
C606 C605 1.331 1_545 S
C606 C607 1.336 . S
C607 C603 1.394 . S
C607 C606 1.336 . S
C607 H622 0.929 . S
C608 C598 1.386 . S
C608 C601 1.357 . S
C608 H621 0.928 . S
H609 C585 0.931 . S
H610 C587 0.930 . S
H611 C589 0.929 . S
H612 C590 0.931 . S
H613 C592 0.930 . S
H614 C596 0.931 1_554 S
H615 C594 0.931 1_565 S
H616 C598 0.931 . S
H617 C599 0.921 1_545 S
H618 C600 0.930 . S
H619 C603 0.930 . S
H620 C604 0.934 1_565 S
H621 C608 0.928 . S
H622 C607 0.929 . S
H623 C605 0.932 . S
Mg624 O625 2.034 . S
Mg624 O631 1.986 1_554 S
Mg624 O633 2.114 . S
Mg624 O634 2.251 . S
Mg624 O637 2.010 . S
O625 Mg624 2.034 . S
O625 C628 1.245 1_554 S
O626 Mg627 2.028 . S
O626 C628 1.248 . S
Mg627 O626 2.028 . S
Mg627 O632 2.032 . S
Mg627 O634 2.079 1_556 S
C628 O625 1.245 1_556 S
C628 O626 1.248 . S
C629 O630 1.264 . S
C629 O637 1.249 . S
O630 C629 1.264 . S
O631 Mg624 1.986 1_556 S
O631 C635 1.246 . S
O632 Mg627 2.032 . S
O632 C635 1.259 . S
O633 Mg624 2.114 . S
O633 C636 1.252 . S
O634 Mg624 2.251 . S
O634 Mg627 2.079 1_554 S
O634 C636 1.273 . S
C635 O631 1.246 . S
C635 O632 1.259 . S
C636 O633 1.252 . S
C636 O634 1.273 . S
O637 Mg624 2.010 . S
O637 C629 1.249 . S
Mg638 O639 2.028 . S
Mg638 O645 1.986 . S
Mg638 O647 2.114 . S
Mg638 O648 2.251 . S
Mg638 O651 2.010 . S
O639 Mg638 2.028 . S
O639 C642 1.250 . S
O640 Mg641 2.028 . S
O640 C642 1.248 . S
Mg641 O640 2.028 . S
Mg641 O646 2.032 . S
Mg641 O648 2.079 . S
C642 O639 1.250 . S
C642 O640 1.248 . S
C643 O644 1.264 . S
C643 O651 1.249 . S
O644 C643 1.264 . S
O645 Mg638 1.986 . S
O645 C649 1.246 . S
O646 Mg641 2.032 . S
O646 C649 1.259 . S
O647 Mg638 2.114 . S
O647 C650 1.252 . S
O648 Mg638 2.251 . S
O648 Mg641 2.079 . S
O648 C650 1.273 . S
C649 O645 1.246 . S
C649 O646 1.259 . S
C650 O647 1.252 . S
C650 O648 1.273 . S
O651 Mg638 2.010 . S
O651 C643 1.249 . S
Mg652 O653 2.028 . S
Mg652 O659 1.986 1_554 S
Mg652 O661 2.114 . S
Mg652 O662 2.251 . S
Mg652 O665 2.010 . S
O653 Mg652 2.028 . S
O653 C656 1.251 1_554 S
O654 Mg655 2.028 . S
O654 C656 1.247 . S
Mg655 O654 2.028 . S
Mg655 O660 2.032 . S
Mg655 O662 2.079 1_556 S
C656 O653 1.251 1_556 S
C656 O654 1.247 . S
C657 O658 1.264 . S
C657 O665 1.249 . S
O658 C657 1.264 . S
O659 Mg652 1.986 1_556 S
O659 C663 1.246 . S
O660 Mg655 2.032 . S
O660 C663 1.259 . S
O661 Mg652 2.114 . S
O661 C664 1.252 . S
O662 Mg652 2.251 . S
O662 Mg655 2.079 1_554 S
O662 C664 1.273 . S
C663 O659 1.246 . S
C663 O660 1.259 . S
C664 O661 1.252 . S
C664 O662 1.273 . S
O665 Mg652 2.010 . S
O665 C657 1.249 . S
Mg666 O667 2.047 . S
Mg666 O673 1.986 . S
Mg666 O675 2.114 . S
Mg666 O676 2.251 . S
Mg666 O679 2.010 . S
O667 Mg666 2.047 . S
O667 C670 1.224 1_545 S
O668 Mg669 2.028 . S
O668 C670 1.248 . S
Mg669 O668 2.028 . S
Mg669 O674 2.032 . S
Mg669 O676 2.079 1_565 S
C670 O667 1.224 1_565 S
C670 O668 1.248 . S
C671 O672 1.264 . S
C671 O679 1.249 . S
O672 C671 1.264 . S
O673 Mg666 1.986 . S
O673 C677 1.246 . S
O674 Mg669 2.032 . S
O674 C677 1.259 1_565 S
O675 Mg666 2.114 . S
O675 C678 1.252 . S
O676 Mg666 2.251 . S
O676 Mg669 2.079 1_545 S
O676 C678 1.273 . S
C677 O673 1.246 . S
C677 O674 1.259 1_545 S
C678 O675 1.252 . S
C678 O676 1.273 . S
O679 Mg666 2.010 . S
O679 C671 1.249 . S
Mg680 O681 2.028 . S
Mg680 O687 1.986 . S
Mg680 O689 2.114 . S
Mg680 O690 2.251 . S
Mg680 O693 2.010 . S
O681 Mg680 2.028 . S
O681 C684 1.250 . S
O682 Mg683 2.028 . S
O682 C684 1.248 . S
Mg683 O682 2.028 . S
Mg683 O688 2.032 . S
Mg683 O690 2.079 . S
C684 O681 1.250 . S
C684 O682 1.248 . S
C685 O686 1.264 . S
C685 O693 1.249 . S
O686 C685 1.264 . S
O687 Mg680 1.986 . S
O687 C691 1.246 . S
O688 Mg683 2.032 . S
O688 C691 1.259 . S
O689 Mg680 2.114 . S
O689 C692 1.252 . S
O690 Mg680 2.251 . S
O690 Mg683 2.079 . S
O690 C692 1.273 . S
C691 O687 1.246 . S
C691 O688 1.259 . S
C692 O689 1.252 . S
C692 O690 1.273 . S
O693 Mg680 2.010 . S
O693 C685 1.249 . S
Mg694 O695 2.028 . S
Mg694 O701 1.986 . S
Mg694 O703 2.114 . S
Mg694 O704 2.251 . S
Mg694 O707 2.010 . S
O695 Mg694 2.028 . S
O695 C698 1.250 . S
O696 Mg697 2.028 . S
O696 C698 1.248 . S
Mg697 O696 2.028 . S
Mg697 O702 2.032 . S
Mg697 O704 2.079 . S
C698 O695 1.250 . S
C698 O696 1.248 . S
C699 O700 1.264 . S
C699 O707 1.249 . S
O700 C699 1.264 . S
O701 Mg694 1.986 . S
O701 C705 1.246 . S
O702 Mg697 2.032 . S
O702 C705 1.259 . S
O703 Mg694 2.114 . S
O703 C706 1.252 . S
O704 Mg694 2.251 . S
O704 Mg697 2.079 . S
O704 C706 1.273 . S
C705 O701 1.246 . S
C705 O702 1.259 . S
C706 O703 1.252 . S
C706 O704 1.273 . S
O707 Mg694 2.010 . S
O707 C699 1.249 . S
Mg708 O709 2.028 . S
Mg708 O715 1.986 . S
Mg708 O717 2.114 . S
Mg708 O718 2.251 . S
Mg708 O721 2.010 . S
O709 Mg708 2.028 . S
O709 C712 1.250 . S
O710 Mg711 2.028 . S
O710 C712 1.248 . S
Mg711 O710 2.028 . S
Mg711 O716 2.032 . S
Mg711 O718 2.079 . S
C712 O709 1.250 . S
C712 O710 1.248 . S
C713 O714 1.264 . S
C713 O721 1.249 . S
O714 C713 1.264 . S
O715 Mg708 1.986 . S
O715 C719 1.246 . S
O716 Mg711 2.032 . S
O716 C719 1.259 . S
O717 Mg708 2.114 . S
O717 C720 1.252 . S
O718 Mg708 2.251 . S
O718 Mg711 2.079 . S
O718 C720 1.273 . S
C719 O715 1.246 . S
C719 O716 1.259 . S
C720 O717 1.252 . S
C720 O718 1.273 . S
O721 Mg708 2.010 . S
O721 C713 1.249 . S
Mg722 O723 2.028 1_545 S
Mg722 O729 1.986 1_545 S
Mg722 O731 2.114 . S
Mg722 O732 2.251 . S
Mg722 O735 2.010 . S
O723 Mg722 2.028 1_565 S
O723 C726 1.250 . S
O724 Mg725 2.028 . S
O724 C726 1.248 . S
Mg725 O724 2.028 . S
Mg725 O730 2.032 . S
Mg725 O732 2.079 1_565 S
C726 O723 1.250 . S
C726 O724 1.248 . S
C727 O728 1.264 . S
C727 O735 1.249 . S
O728 C727 1.264 . S
O729 Mg722 1.986 1_565 S
O729 C733 1.246 . S
O730 Mg725 2.032 . S
O730 C733 1.259 . S
O731 Mg722 2.114 . S
O731 C734 1.252 . S
O732 Mg722 2.251 . S
O732 Mg725 2.079 1_545 S
O732 C734 1.273 . S
C733 O729 1.246 . S
C733 O730 1.259 . S
C734 O731 1.252 . S
C734 O732 1.273 . S
O735 Mg722 2.010 . S
O735 C727 1.249 . S
Mg736 O737 2.031 . S
Mg736 O743 1.986 . S
Mg736 O745 2.114 . S
Mg736 O746 2.251 . S
Mg736 O749 2.010 . S
O737 Mg736 2.031 . S
O737 C740 1.247 1_455 S
O738 Mg739 2.028 . S
O738 C740 1.248 . S
Mg739 O738 2.028 . S
Mg739 O744 2.032 . S
Mg739 O746 2.079 1_655 S
C740 O737 1.247 1_655 S
C740 O738 1.248 . S
C741 O742 1.264 . S
C741 O749 1.249 . S
O742 C741 1.264 . S
O743 Mg736 1.986 . S
O743 C747 1.246 . S
O744 Mg739 2.032 . S
O744 C747 1.259 1_655 S
O745 Mg736 2.114 . S
O745 C748 1.252 . S
O746 Mg736 2.251 . S
O746 Mg739 2.079 1_455 S
O746 C748 1.273 . S
C747 O743 1.246 . S
C747 O744 1.259 1_455 S
C748 O745 1.252 . S
C748 O746 1.273 . S
O749 Mg736 2.010 . S
O749 C741 1.249 . S
Mg750 O751 2.028 . S
Mg750 O757 1.986 . S
Mg750 O759 2.114 . S
Mg750 O760 2.251 . S
Mg750 O763 2.010 . S
O751 Mg750 2.028 . S
O751 C754 1.250 . S
O752 Mg753 2.028 . S
O752 C754 1.248 . S
Mg753 O752 2.028 . S
Mg753 O758 2.032 . S
Mg753 O760 2.079 . S
C754 O751 1.250 . S
C754 O752 1.248 . S
C755 O756 1.264 . S
C755 O763 1.249 . S
O756 C755 1.264 . S
O757 Mg750 1.986 . S
O757 C761 1.246 . S
O758 Mg753 2.032 . S
O758 C761 1.259 . S
O759 Mg750 2.114 . S
O759 C762 1.252 . S
O760 Mg750 2.251 . S
O760 Mg753 2.079 . S
O760 C762 1.273 . S
C761 O757 1.246 . S
C761 O758 1.259 . S
C762 O759 1.252 . S
C762 O760 1.273 . S
O763 Mg750 2.010 . S
O763 C755 1.249 . S
Mg764 O765 2.028 1_655 S
Mg764 O771 1.986 . S
Mg764 O773 2.114 . S
Mg764 O774 2.251 1_655 S
Mg764 O777 2.010 . S
O765 Mg764 2.028 1_455 S
O765 C768 1.250 . S
O766 Mg767 2.028 . S
O766 C768 1.248 . S
Mg767 O766 2.028 . S
Mg767 O772 2.032 . S
Mg767 O774 2.079 . S
C768 O765 1.250 . S
C768 O766 1.248 . S
C769 O770 1.264 . S
C769 O777 1.249 . S
O770 C769 1.264 . S
O771 Mg764 1.986 . S
O771 C775 1.246 1_655 S
O772 Mg767 2.032 . S
O772 C775 1.259 . S
O773 Mg764 2.114 . S
O773 C776 1.252 . S
O774 Mg764 2.251 1_455 S
O774 Mg767 2.079 . S
O774 C776 1.273 1_455 S
C775 O771 1.246 1_455 S
C775 O772 1.259 . S
C776 O773 1.252 . S
C776 O774 1.273 1_655 S
O777 Mg764 2.010 . S
O777 C769 1.249 . S
Mg778 O779 2.028 . S
Mg778 O785 1.986 . S
Mg778 O787 2.114 . S
Mg778 O788 2.251 . S
Mg778 O791 2.010 . S
O779 Mg778 2.028 . S
O779 C782 1.250 . S
O780 Mg781 2.028 . S
O780 C782 1.248 . S
Mg781 O780 2.028 . S
Mg781 O786 2.032 . S
Mg781 O788 2.079 . S
C782 O779 1.250 . S
C782 O780 1.248 . S
C783 O784 1.264 . S
C783 O791 1.249 . S
O784 C783 1.264 . S
O785 Mg778 1.986 . S
O785 C789 1.246 . S
O786 Mg781 2.032 . S
O786 C789 1.259 . S
O787 Mg778 2.114 . S
O787 C790 1.252 . S
O788 Mg778 2.251 . S
O788 Mg781 2.079 . S
O788 C790 1.273 . S
C789 O785 1.246 . S
C789 O786 1.259 . S
C790 O787 1.252 . S
C790 O788 1.273 . S
O791 Mg778 2.010 . S
O791 C783 1.249 . S
C792 C793 1.363 . S
C792 C798 1.379 . S
C792 N800 1.356 . S
C793 C792 1.363 . S
C793 C799 1.363 . S
C794 C795 1.363 . S
C794 C799 1.379 . S
C794 N801 1.356 . S
C795 C794 1.363 . S
C795 C798 1.363 . S
N796 C798 1.356 . S
N796 H808 0.984 . S
N796 H809 0.985 . S
N797 C799 1.356 . S
N797 H802 0.984 . S
N797 H803 0.985 . S
C798 C792 1.379 . S
C798 C795 1.363 . S
C798 N796 1.356 . S
C799 C793 1.363 . S
C799 C794 1.379 . S
C799 N797 1.356 . S
N800 C792 1.356 . S
N800 H806 0.984 . S
N800 H807 0.984 . S
N801 C794 1.356 . S
N801 H804 0.984 . S
N801 H805 0.985 . S
H802 N797 0.984 . S
H803 N797 0.985 . S
H804 N801 0.984 . S
H805 N801 0.985 . S
H806 N800 0.984 . S
H807 N800 0.984 . S
H808 N796 0.984 . S
H809 N796 0.985 . S
C810 C811 1.363 . S
C810 C816 1.379 . S
C810 N818 1.356 . S
C811 C810 1.363 . S
C811 C817 1.363 . S
C812 C813 1.363 . S
C812 C817 1.379 . S
C812 N819 1.356 . S
C813 C812 1.363 . S
C813 C816 1.363 . S
N814 C816 1.356 . S
N814 H826 0.984 . S
N814 H827 0.985 . S
N815 C817 1.356 . S
N815 H820 0.984 . S
N815 H821 0.985 . S
C816 C810 1.379 . S
C816 C813 1.363 . S
C816 N814 1.356 . S
C817 C811 1.363 . S
C817 C812 1.379 . S
C817 N815 1.356 . S
N818 C810 1.356 . S
N818 H824 0.984 . S
N818 H825 0.984 . S
N819 C812 1.356 . S
N819 H822 0.984 . S
N819 H823 0.985 . S
H820 N815 0.984 . S
H821 N815 0.985 . S
H822 N819 0.984 . S
H823 N819 0.985 . S
H824 N818 0.984 . S
H825 N818 0.984 . S
H826 N814 0.984 . S
H827 N814 0.985 . S
C828 C829 1.363 . S
C828 C834 1.379 . S
C828 N836 1.356 . S
C829 C828 1.363 . S
C829 C835 1.363 . S
C830 C831 1.363 . S
C830 C835 1.379 . S
C830 N837 1.356 . S
C831 C830 1.363 . S
C831 C834 1.363 . S
N832 C834 1.356 . S
N832 H844 0.984 . S
N832 H845 0.985 . S
N833 C835 1.356 . S
N833 H838 0.984 . S
N833 H839 0.985 . S
C834 C828 1.379 . S
C834 C831 1.363 . S
C834 N832 1.356 . S
C835 C829 1.363 . S
C835 C830 1.379 . S
C835 N833 1.356 . S
N836 C828 1.356 . S
N836 H842 0.984 . S
N836 H843 0.984 . S
N837 C830 1.356 . S
N837 H840 0.984 . S
N837 H841 0.985 . S
H838 N833 0.984 . S
H839 N833 0.985 . S
H840 N837 0.984 . S
H841 N837 0.985 . S
H842 N836 0.984 . S
H843 N836 0.984 . S
H844 N832 0.984 . S
H845 N832 0.985 . S
C846 C847 1.363 1_545 S
C846 C852 1.379 . S
C846 N854 1.356 . S
C847 C846 1.363 1_565 S
C847 C853 1.363 . S
C848 C849 1.363 1_565 S
C848 C853 1.379 . S
C848 N855 1.356 . S
C849 C848 1.363 1_545 S
C849 C852 1.363 . S
N850 C852 1.356 . S
N850 H862 0.984 . S
N850 H863 0.985 . S
N851 C853 1.356 . S
N851 H856 0.984 . S
N851 H857 0.985 . S
C852 C846 1.379 . S
C852 C849 1.363 . S
C852 N850 1.356 . S
C853 C847 1.363 . S
C853 C848 1.379 . S
C853 N851 1.356 . S
N854 C846 1.356 . S
N854 H860 0.984 . S
N854 H861 0.984 . S
N855 C848 1.356 . S
N855 H858 0.984 . S
N855 H859 0.985 . S
H856 N851 0.984 . S
H857 N851 0.985 . S
H858 N855 0.984 . S
H859 N855 0.985 . S
H860 N854 0.984 . S
H861 N854 0.984 . S
H862 N850 0.984 . S
H863 N850 0.985 . S
C864 C865 1.363 . S
C864 C870 1.379 . S
C864 N872 1.356 . S
C865 C864 1.363 . S
C865 C871 1.363 . S
C866 C867 1.363 . S
C866 C871 1.379 . S
C866 N873 1.356 . S
C867 C866 1.363 . S
C867 C870 1.363 . S
N868 C870 1.356 . S
N868 H880 0.984 . S
N868 H881 0.985 . S
N869 C871 1.356 . S
N869 H874 0.984 . S
N869 H875 0.985 . S
C870 C864 1.379 . S
C870 C867 1.363 . S
C870 N868 1.356 . S
C871 C865 1.363 . S
C871 C866 1.379 . S
C871 N869 1.356 . S
N872 C864 1.356 . S
N872 H878 0.984 . S
N872 H879 0.984 . S
N873 C866 1.356 . S
N873 H876 0.984 . S
N873 H877 0.985 . S
H874 N869 0.984 . S
H875 N869 0.985 . S
H876 N873 0.984 . S
H877 N873 0.985 . S
H878 N872 0.984 . S
H879 N872 0.984 . S
H880 N868 0.984 . S
H881 N868 0.985 . S
C882 C883 1.363 . S
C882 C888 1.379 . S
C882 N890 1.356 . S
C883 C882 1.363 . S
C883 C889 1.363 . S
C884 C885 1.363 . S
C884 C889 1.379 . S
C884 N891 1.356 . S
C885 C884 1.363 . S
C885 C888 1.363 . S
N886 C888 1.356 . S
N886 H898 0.984 . S
N886 H899 0.985 . S
N887 C889 1.356 . S
N887 H892 0.984 . S
N887 H893 0.985 . S
C888 C882 1.379 . S
C888 C885 1.363 . S
C888 N886 1.356 . S
C889 C883 1.363 . S
C889 C884 1.379 . S
C889 N887 1.356 . S
N890 C882 1.356 . S
N890 H896 0.984 . S
N890 H897 0.984 . S
N891 C884 1.356 . S
N891 H894 0.984 . S
N891 H895 0.985 . S
H892 N887 0.984 . S
H893 N887 0.985 . S
H894 N891 0.984 . S
H895 N891 0.985 . S
H896 N890 0.984 . S
H897 N890 0.984 . S
H898 N886 0.984 . S
H899 N886 0.985 . S
C900 C901 1.363 . S
C900 C906 1.379 . S
C900 N908 1.356 . S
C901 C900 1.363 . S
C901 C907 1.363 . S
C902 C903 1.363 . S
C902 C907 1.379 . S
C902 N909 1.356 . S
C903 C902 1.363 . S
C903 C906 1.363 . S
N904 C906 1.356 . S
N904 H916 0.984 . S
N904 H917 0.985 . S
N905 C907 1.356 . S
N905 H910 0.984 . S
N905 H911 0.985 . S
C906 C900 1.379 . S
C906 C903 1.363 . S
C906 N904 1.356 . S
C907 C901 1.363 . S
C907 C902 1.379 . S
C907 N905 1.356 . S
N908 C900 1.356 . S
N908 H914 0.984 . S
N908 H915 0.984 . S
N909 C902 1.356 . S
N909 H912 0.984 . S
N909 H913 0.985 . S
H910 N905 0.984 . S
H911 N905 0.985 . S
H912 N909 0.984 . S
H913 N909 0.985 . S
H914 N908 0.984 . S
H915 N908 0.984 . S
H916 N904 0.984 . S
H917 N904 0.985 . S
C918 C919 1.363 . S
C918 C924 1.379 . S
C918 N926 1.356 . S
C919 C918 1.363 . S
C919 C925 1.344 1_565 S
C920 C921 1.363 1_545 S
C920 C925 1.382 . S
C920 N927 1.356 . S
C921 C920 1.363 1_565 S
C921 C924 1.363 . S
N922 C924 1.356 . S
N922 H934 0.984 . S
N922 H935 0.985 . S
N923 C925 1.368 . S
N923 H928 0.984 . S
N923 H929 0.985 . S
C924 C918 1.379 . S
C924 C921 1.363 . S
C924 N922 1.356 . S
C925 C919 1.344 1_545 S
C925 C920 1.382 . S
C925 N923 1.368 . S
N926 C918 1.356 . S
N926 H932 0.984 . S
N926 H933 0.984 . S
N927 C920 1.356 . S
N927 H930 0.984 . S
N927 H931 0.985 . S
H928 N923 0.984 . S
H929 N923 0.985 . S
H930 N927 0.984 . S
H931 N927 0.985 . S
H932 N926 0.984 . S
H933 N926 0.984 . S
H934 N922 0.984 . S
H935 N922 0.985 . S
C936 C937 1.363 . S
C936 C942 1.379 . S
C936 N944 1.356 . S
C937 C936 1.363 . S
C937 C943 1.363 . S
C938 C939 1.363 . S
C938 C943 1.379 . S
C938 N945 1.356 . S
C939 C938 1.363 . S
C939 C942 1.363 . S
N940 C942 1.356 . S
N940 H952 0.984 . S
N940 H953 0.985 . S
N941 C943 1.356 . S
N941 H946 0.984 . S
N941 H947 0.985 . S
C942 C936 1.379 . S
C942 C939 1.363 . S
C942 N940 1.356 . S
C943 C937 1.363 . S
C943 C938 1.379 . S
C943 N941 1.356 . S
N944 C936 1.356 . S
N944 H950 0.984 . S
N944 H951 0.984 . S
N945 C938 1.356 . S
N945 H948 0.984 . S
N945 H949 0.985 . S
H946 N941 0.984 . S
H947 N941 0.985 . S
H948 N945 0.984 . S
H949 N945 0.985 . S
H950 N944 0.984 . S
H951 N944 0.984 . S
H952 N940 0.984 . S
H953 N940 0.985 . S
C954 C955 1.363 . S
C954 C960 1.379 . S
C954 N962 1.356 . S
C955 C954 1.363 . S
C955 C961 1.363 . S
C956 C957 1.363 . S
C956 C961 1.379 . S
C956 N963 1.356 . S
C957 C956 1.363 . S
C957 C960 1.363 . S
N958 C960 1.356 . S
N958 H970 0.984 . S
N958 H971 0.985 . S
N959 C961 1.356 . S
N959 H964 0.984 . S
N959 H965 0.985 . S
C960 C954 1.379 . S
C960 C957 1.363 . S
C960 N958 1.356 . S
C961 C955 1.363 . S
C961 C956 1.379 . S
C961 N959 1.356 . S
N962 C954 1.356 . S
N962 H968 0.984 . S
N962 H969 0.984 . S
N963 C956 1.356 . S
N963 H966 0.984 . S
N963 H967 0.985 . S
H964 N959 0.984 . S
H965 N959 0.985 . S
H966 N963 0.984 . S
H967 N963 0.985 . S
H968 N962 0.984 . S
H969 N962 0.984 . S
H970 N958 0.984 . S
H971 N958 0.985 . S
C972 C973 1.363 . S
C972 C978 1.379 . S
C972 N980 1.356 . S
C973 C972 1.363 . S
C973 C979 1.363 . S
C974 C975 1.363 . S
C974 C979 1.379 . S
C974 N981 1.356 . S
C975 C974 1.363 . S
C975 C978 1.363 . S
N976 C978 1.356 . S
N976 H988 0.984 . S
N976 H989 0.985 . S
N977 C979 1.356 . S
N977 H982 0.984 . S
N977 H983 0.985 . S
C978 C972 1.379 . S
C978 C975 1.363 . S
C978 N976 1.356 . S
C979 C973 1.363 . S
C979 C974 1.379 . S
C979 N977 1.356 . S
N980 C972 1.356 . S
N980 H986 0.984 . S
N980 H987 0.984 . S
N981 C974 1.356 . S
N981 H984 0.984 . S
N981 H985 0.985 . S
H982 N977 0.984 . S
H983 N977 0.985 . S
H984 N981 0.984 . S
H985 N981 0.985 . S
H986 N980 0.984 . S
H987 N980 0.984 . S
H988 N976 0.984 . S
H989 N976 0.985 . S
C990 C991 1.363 . S
C990 C996 1.379 . S
C990 N998 1.356 . S
C991 C990 1.363 . S
C991 C997 1.363 . S
C992 C993 1.363 . S
C992 C997 1.379 . S
C992 N999 1.356 . S
C993 C992 1.363 . S
C993 C996 1.363 . S
N994 C996 1.356 . S
N994 H1006 0.984 . S
N994 H1007 0.985 . S
N995 C997 1.356 . S
N995 H1000 0.984 . S
N995 H1001 0.985 . S
C996 C990 1.379 . S
C996 C993 1.363 . S
C996 N994 1.356 . S
C997 C991 1.363 . S
C997 C992 1.379 . S
C997 N995 1.356 . S
N998 C990 1.356 . S
N998 H1004 0.984 . S
N998 H1005 0.984 . S
N999 C992 1.356 . S
N999 H1002 0.984 . S
N999 H1003 0.985 . S
H1000 N995 0.984 . S
H1001 N995 0.985 . S
H1002 N999 0.984 . S
H1003 N999 0.985 . S
H1004 N998 0.984 . S
H1005 N998 0.984 . S
H1006 N994 0.984 . S
H1007 N994 0.985 . S
C1008 C1009 1.363 . S
C1008 C1014 1.379 . S
C1008 N1016 1.356 . S
C1009 C1008 1.363 . S
C1009 C1015 1.363 . S
C1010 C1011 1.363 . S
C1010 C1015 1.379 . S
C1010 N1017 1.356 . S
C1011 C1010 1.363 . S
C1011 C1014 1.363 . S
N1012 C1014 1.356 . S
N1012 H1024 0.984 . S
N1012 H1025 0.985 . S
N1013 C1015 1.356 . S
N1013 H1018 0.984 . S
N1013 H1019 0.985 . S
C1014 C1008 1.379 . S
C1014 C1011 1.363 . S
C1014 N1012 1.356 . S
C1015 C1009 1.363 . S
C1015 C1010 1.379 . S
C1015 N1013 1.356 . S
N1016 C1008 1.356 . S
N1016 H1022 0.984 . S
N1016 H1023 0.984 . S
N1017 C1010 1.356 . S
N1017 H1020 0.984 . S
N1017 H1021 0.985 . S
H1018 N1013 0.984 . S
H1019 N1013 0.985 . S
H1020 N1017 0.984 . S
H1021 N1017 0.985 . S
H1022 N1016 0.984 . S
H1023 N1016 0.984 . S
H1024 N1012 0.984 . S
H1025 N1012 0.985 . S
C1026 C1027 1.363 . S
C1026 C1032 1.379 . S
C1026 N1034 1.356 . S
C1027 C1026 1.363 . S
C1027 C1033 1.363 . S
C1028 C1029 1.363 . S
C1028 C1033 1.379 . S
C1028 N1035 1.356 1_455 S
C1029 C1028 1.363 . S
C1029 C1032 1.363 . S
N1030 C1032 1.356 . S
N1030 H1042 0.984 . S
N1030 H1043 0.985 . S
N1031 C1033 1.356 1_655 S
N1031 H1036 0.985 1_655 S
N1031 H1037 0.984 . S
C1032 C1026 1.379 . S
C1032 C1029 1.363 . S
C1032 N1030 1.356 . S
C1033 C1027 1.363 . S
C1033 C1028 1.379 . S
C1033 N1031 1.356 1_455 S
N1034 C1026 1.356 . S
N1034 H1040 0.984 . S
N1034 H1041 0.984 . S
N1035 C1028 1.356 1_655 S
N1035 H1038 0.984 . S
N1035 H1039 0.985 . S
H1036 N1031 0.985 1_455 S
H1037 N1031 0.984 . S
H1038 N1035 0.984 . S
H1039 N1035 0.985 . S
H1040 N1034 0.984 . S
H1041 N1034 0.984 . S
H1042 N1030 0.984 . S
H1043 N1030 0.985 . S
C1044 C1045 1.363 . S
C1044 C1050 1.379 . S
C1044 N1052 1.356 . S
C1045 C1044 1.363 . S
C1045 C1051 1.363 . S
C1046 C1047 1.363 . S
C1046 C1051 1.379 . S
C1046 N1053 1.356 . S
C1047 C1046 1.363 . S
C1047 C1050 1.363 . S
N1048 C1050 1.356 . S
N1048 H1060 0.984 . S
N1048 H1061 0.985 . S
N1049 C1051 1.356 . S
N1049 H1054 0.984 . S
N1049 H1055 0.985 . S
C1050 C1044 1.379 . S
C1050 C1047 1.363 . S
C1050 N1048 1.356 . S
C1051 C1045 1.363 . S
C1051 C1046 1.379 . S
C1051 N1049 1.356 . S
N1052 C1044 1.356 . S
N1052 H1058 0.984 . S
N1052 H1059 0.984 . S
N1053 C1046 1.356 . S
N1053 H1056 0.984 . S
N1053 H1057 0.985 . S
H1054 N1049 0.984 . S
H1055 N1049 0.985 . S
H1056 N1053 0.984 . S
H1057 N1053 0.985 . S
H1058 N1052 0.984 . S
H1059 N1052 0.984 . S
H1060 N1048 0.984 . S
H1061 N1048 0.985 . S
C1062 C1063 1.363 1_455 S
C1062 C1068 1.379 . S
C1062 N1070 1.356 . S
C1063 C1062 1.363 1_655 S
C1063 C1069 1.363 . S
C1064 C1065 1.363 . S
C1064 C1069 1.379 . S
C1064 N1071 1.356 . S
C1065 C1064 1.363 . S
C1065 C1068 1.363 1_655 S
N1066 C1068 1.356 . S
N1066 H1078 0.984 . S
N1066 H1079 0.985 . S
N1067 C1069 1.356 . S
N1067 H1072 0.984 . S
N1067 H1073 0.985 . S
C1068 C1062 1.379 . S
C1068 C1065 1.363 1_455 S
C1068 N1066 1.356 . S
C1069 C1063 1.363 . S
C1069 C1064 1.379 . S
C1069 N1067 1.356 . S
N1070 C1062 1.356 . S
N1070 H1076 0.984 . S
N1070 H1077 0.984 . S
N1071 C1064 1.356 . S
N1071 H1074 0.984 . S
N1071 H1075 0.985 . S
H1072 N1067 0.984 . S
H1073 N1067 0.985 . S
H1074 N1071 0.984 . S
H1075 N1071 0.985 . S
H1076 N1070 0.984 . S
H1077 N1070 0.984 . S
H1078 N1066 0.984 . S
H1079 N1066 0.985 . S
C1080 C1081 1.363 . S
C1080 C1086 1.379 . S
C1080 N1088 1.356 . S
C1081 C1080 1.363 . S
C1081 C1087 1.363 . S
C1082 C1083 1.363 . S
C1082 C1087 1.379 . S
C1082 N1089 1.356 . S
C1083 C1082 1.363 . S
C1083 C1086 1.363 . S
N1084 C1086 1.356 . S
N1084 H1096 0.984 . S
N1084 H1097 0.985 . S
N1085 C1087 1.356 . S
N1085 H1090 0.984 . S
N1085 H1091 0.985 . S
C1086 C1080 1.379 . S
C1086 C1083 1.363 . S
C1086 N1084 1.356 . S
C1087 C1081 1.363 . S
C1087 C1082 1.379 . S
C1087 N1085 1.356 . S
N1088 C1080 1.356 . S
N1088 H1094 0.984 . S
N1088 H1095 0.984 . S
N1089 C1082 1.356 . S
N1089 H1092 0.984 . S
N1089 H1093 0.985 . S
H1090 N1085 0.984 . S
H1091 N1085 0.985 . S
H1092 N1089 0.984 . S
H1093 N1089 0.985 . S
H1094 N1088 0.984 . S
H1095 N1088 0.984 . S
H1096 N1084 0.984 . S
H1097 N1084 0.985 . S
C1098 C1099 1.363 . S
C1098 C1104 1.379 . S
C1098 N1106 1.356 . S
C1099 C1098 1.363 . S
C1099 C1105 1.363 . S
C1100 C1101 1.363 . S
C1100 C1105 1.379 . S
C1100 N1107 1.356 . S
C1101 C1100 1.363 . S
C1101 C1104 1.363 . S
N1102 C1104 1.356 . S
N1102 H1114 0.984 . S
N1102 H1115 0.985 . S
N1103 C1105 1.356 . S
N1103 H1108 0.984 . S
N1103 H1109 0.985 . S
C1104 C1098 1.379 . S
C1104 C1101 1.363 . S
C1104 N1102 1.356 . S
C1105 C1099 1.363 . S
C1105 C1100 1.379 . S
C1105 N1103 1.356 . S
N1106 C1098 1.356 . S
N1106 H1112 0.984 . S
N1106 H1113 0.984 . S
N1107 C1100 1.356 . S
N1107 H1110 0.984 . S
N1107 H1111 0.985 . S
H1108 N1103 0.984 . S
H1109 N1103 0.985 . S
H1110 N1107 0.984 . S
H1111 N1107 0.985 . S
H1112 N1106 0.984 . S
H1113 N1106 0.984 . S
H1114 N1102 0.984 . S
H1115 N1102 0.985 . S
C1116 C1117 1.363 . S
C1116 C1122 1.379 . S
C1116 N1124 1.356 . S
C1117 C1116 1.363 . S
C1117 C1123 1.363 1_556 S
C1118 C1119 1.363 1_554 S
C1118 C1123 1.379 . S
C1118 N1125 1.356 . S
C1119 C1118 1.363 1_556 S
C1119 C1122 1.363 . S
N1120 C1122 1.356 . S
N1120 H1132 0.984 . S
N1120 H1133 0.985 . S
N1121 C1123 1.356 . S
N1121 H1126 0.984 . S
N1121 H1127 0.985 . S
C1122 C1116 1.379 . S
C1122 C1119 1.363 . S
C1122 N1120 1.356 . S
C1123 C1117 1.363 1_554 S
C1123 C1118 1.379 . S
C1123 N1121 1.356 . S
N1124 C1116 1.356 . S
N1124 H1130 0.984 . S
N1124 H1131 0.984 . S
N1125 C1118 1.356 . S
N1125 H1128 0.984 . S
N1125 H1129 0.985 . S
H1126 N1121 0.984 . S
H1127 N1121 0.985 . S
H1128 N1125 0.984 . S
H1129 N1125 0.985 . S
H1130 N1124 0.984 . S
H1131 N1124 0.984 . S
H1132 N1120 0.984 . S
H1133 N1120 0.985 . S
C1134 C1135 1.363 . S
C1134 C1140 1.379 . S
C1134 N1142 1.356 . S
C1135 C1134 1.363 . S
C1135 C1141 1.363 . S
C1136 C1137 1.363 . S
C1136 C1141 1.379 . S
C1136 N1143 1.356 . S
C1137 C1136 1.363 . S
C1137 C1140 1.363 . S
N1138 C1140 1.356 . S
N1138 H1150 0.984 . S
N1138 H1151 0.985 . S
N1139 C1141 1.356 . S
N1139 H1144 0.984 . S
N1139 H1145 0.985 . S
C1140 C1134 1.379 . S
C1140 C1137 1.363 . S
C1140 N1138 1.356 . S
C1141 C1135 1.363 . S
C1141 C1136 1.379 . S
C1141 N1139 1.356 . S
N1142 C1134 1.356 . S
N1142 H1148 0.984 . S
N1142 H1149 0.984 . S
N1143 C1136 1.356 . S
N1143 H1146 0.984 . S
N1143 H1147 0.985 . S
H1144 N1139 0.984 . S
H1145 N1139 0.985 . S
H1146 N1143 0.984 . S
H1147 N1143 0.985 . S
H1148 N1142 0.984 . S
H1149 N1142 0.984 . S
H1150 N1138 0.984 . S
H1151 N1138 0.985 . S
C1152 C1153 1.363 . S
C1152 C1158 1.379 . S
C1152 N1160 1.356 . S
C1153 C1152 1.363 . S
C1153 C1159 1.363 . S
C1154 C1155 1.363 . S
C1154 C1159 1.379 . S
C1154 N1161 1.356 . S
C1155 C1154 1.363 . S
C1155 C1158 1.363 . S
N1156 C1158 1.356 . S
N1156 H1168 0.984 . S
N1156 H1169 0.985 . S
N1157 C1159 1.356 . S
N1157 H1162 0.984 . S
N1157 H1163 0.985 . S
C1158 C1152 1.379 . S
C1158 C1155 1.363 . S
C1158 N1156 1.356 . S
C1159 C1153 1.363 . S
C1159 C1154 1.379 . S
C1159 N1157 1.356 . S
N1160 C1152 1.356 . S
N1160 H1166 0.984 . S
N1160 H1167 0.984 . S
N1161 C1154 1.356 . S
N1161 H1164 0.984 . S
N1161 H1165 0.985 . S
H1162 N1157 0.984 . S
H1163 N1157 0.985 . S
H1164 N1161 0.984 . S
H1165 N1161 0.985 . S
H1166 N1160 0.984 . S
H1167 N1160 0.984 . S
H1168 N1156 0.984 . S
H1169 N1156 0.985 . S
C1170 C1171 1.363 . S
C1170 C1176 1.379 . S
C1170 N1178 1.356 . S
C1171 C1170 1.363 . S
C1171 C1177 1.363 . S
C1172 C1173 1.363 . S
C1172 C1177 1.379 . S
C1172 N1179 1.356 . S
C1173 C1172 1.363 . S
C1173 C1176 1.363 . S
N1174 C1176 1.356 . S
N1174 H1186 0.984 . S
N1174 H1187 0.985 . S
N1175 C1177 1.356 . S
N1175 H1180 0.984 . S
N1175 H1181 0.985 . S
C1176 C1170 1.379 . S
C1176 C1173 1.363 . S
C1176 N1174 1.356 . S
C1177 C1171 1.363 . S
C1177 C1172 1.379 . S
C1177 N1175 1.356 . S
N1178 C1170 1.356 . S
N1178 H1184 0.984 . S
N1178 H1185 0.984 . S
N1179 C1172 1.356 . S
N1179 H1182 0.984 . S
N1179 H1183 0.985 . S
H1180 N1175 0.984 . S
H1181 N1175 0.985 . S
H1182 N1179 0.984 . S
H1183 N1179 0.985 . S
H1184 N1178 0.984 . S
H1185 N1178 0.984 . S
H1186 N1174 0.984 . S
H1187 N1174 0.985 . S
C1188 C1189 1.363 . S
C1188 C1194 1.379 . S
C1188 N1196 1.356 . S
C1189 C1188 1.363 . S
C1189 C1195 1.363 . S
C1190 C1191 1.363 . S
C1190 C1195 1.379 . S
C1190 N1197 1.356 . S
C1191 C1190 1.363 . S
C1191 C1194 1.363 . S
N1192 C1194 1.356 . S
N1192 H1204 0.984 . S
N1192 H1205 0.985 . S
N1193 C1195 1.356 . S
N1193 H1198 0.984 . S
N1193 H1199 0.985 . S
C1194 C1188 1.379 . S
C1194 C1191 1.363 . S
C1194 N1192 1.356 . S
C1195 C1189 1.363 . S
C1195 C1190 1.379 . S
C1195 N1193 1.356 . S
N1196 C1188 1.356 . S
N1196 H1202 0.984 . S
N1196 H1203 0.984 . S
N1197 C1190 1.356 . S
N1197 H1200 0.984 . S
N1197 H1201 0.985 . S
H1198 N1193 0.984 . S
H1199 N1193 0.985 . S
H1200 N1197 0.984 . S
H1201 N1197 0.985 . S
H1202 N1196 0.984 . S
H1203 N1196 0.984 . S
H1204 N1192 0.984 . S
H1205 N1192 0.985 . S
C1206 C1207 1.363 . S
C1206 C1212 1.379 . S
C1206 N1214 1.356 . S
C1207 C1206 1.363 . S
C1207 C1213 1.363 . S
C1208 C1209 1.363 . S
C1208 C1213 1.379 . S
C1208 N1215 1.356 . S
C1209 C1208 1.363 . S
C1209 C1212 1.363 . S
N1210 C1212 1.356 . S
N1210 H1222 0.984 . S
N1210 H1223 0.985 . S
N1211 C1213 1.356 . S
N1211 H1216 0.984 . S
N1211 H1217 0.985 . S
C1212 C1206 1.379 . S
C1212 C1209 1.363 . S
C1212 N1210 1.356 . S
C1213 C1207 1.363 . S
C1213 C1208 1.379 . S
C1213 N1211 1.356 . S
N1214 C1206 1.356 . S
N1214 H1220 0.984 . S
N1214 H1221 0.984 . S
N1215 C1208 1.356 . S
N1215 H1218 0.984 . S
N1215 H1219 0.985 . S
H1216 N1211 0.984 . S
H1217 N1211 0.985 . S
H1218 N1215 0.984 . S
H1219 N1215 0.985 . S
H1220 N1214 0.984 . S
H1221 N1214 0.984 . S
H1222 N1210 0.984 . S
H1223 N1210 0.985 . S
C1224 C1225 1.363 . S
C1224 C1230 1.379 . S
C1224 N1232 1.356 . S
C1225 C1224 1.363 . S
C1225 C1231 1.363 . S
C1226 C1227 1.363 . S
C1226 C1231 1.379 . S
C1226 N1233 1.356 . S
C1227 C1226 1.363 . S
C1227 C1230 1.363 . S
N1228 C1230 1.356 . S
N1228 H1240 0.984 . S
N1228 H1241 0.985 . S
N1229 C1231 1.356 . S
N1229 H1234 0.984 . S
N1229 H1235 0.985 . S
C1230 C1224 1.379 . S
C1230 C1227 1.363 . S
C1230 N1228 1.356 . S
C1231 C1225 1.363 . S
C1231 C1226 1.379 . S
C1231 N1229 1.356 . S
N1232 C1224 1.356 . S
N1232 H1238 0.984 . S
N1232 H1239 0.984 . S
N1233 C1226 1.356 . S
N1233 H1236 0.984 . S
N1233 H1237 0.985 . S
H1234 N1229 0.984 . S
H1235 N1229 0.985 . S
H1236 N1233 0.984 . S
H1237 N1233 0.985 . S
H1238 N1232 0.984 . S
H1239 N1232 0.984 . S
H1240 N1228 0.984 . S
H1241 N1228 0.985 . S
C1242 C1243 1.363 1_565 S
C1242 C1248 1.379 . S
C1242 N1250 1.356 . S
C1243 C1242 1.363 1_545 S
C1243 C1249 1.363 . S
C1244 C1245 1.363 . S
C1244 C1249 1.379 . S
C1244 N1251 1.356 . S
C1245 C1244 1.363 . S
C1245 C1248 1.363 1_545 S
N1246 C1248 1.356 . S
N1246 H1258 0.984 . S
N1246 H1259 0.985 . S
N1247 C1249 1.356 . S
N1247 H1252 0.984 . S
N1247 H1253 0.985 . S
C1248 C1242 1.379 . S
C1248 C1245 1.363 1_565 S
C1248 N1246 1.356 . S
C1249 C1243 1.363 . S
C1249 C1244 1.379 . S
C1249 N1247 1.356 . S
N1250 C1242 1.356 . S
N1250 H1256 0.984 . S
N1250 H1257 0.984 . S
N1251 C1244 1.356 . S
N1251 H1254 0.984 . S
N1251 H1255 0.985 . S
H1252 N1247 0.984 . S
H1253 N1247 0.985 . S
H1254 N1251 0.984 . S
H1255 N1251 0.985 . S
H1256 N1250 0.984 . S
H1257 N1250 0.984 . S
H1258 N1246 0.984 . S
H1259 N1246 0.985 . S
C1260 C1261 1.363 . S
C1260 C1266 1.379 . S
C1260 N1268 1.356 . S
C1261 C1260 1.363 . S
C1261 C1267 1.363 . S
C1262 C1263 1.363 . S
C1262 C1267 1.379 . S
C1262 N1269 1.356 . S
C1263 C1262 1.363 . S
C1263 C1266 1.363 . S
N1264 C1266 1.356 . S
N1264 H1276 0.984 . S
N1264 H1277 0.985 . S
N1265 C1267 1.356 . S
N1265 H1270 0.984 . S
N1265 H1271 0.985 . S
C1266 C1260 1.379 . S
C1266 C1263 1.363 . S
C1266 N1264 1.356 . S
C1267 C1261 1.363 . S
C1267 C1262 1.379 . S
C1267 N1265 1.356 . S
N1268 C1260 1.356 . S
N1268 H1274 0.984 . S
N1268 H1275 0.984 . S
N1269 C1262 1.356 . S
N1269 H1272 0.984 . S
N1269 H1273 0.985 . S
H1270 N1265 0.984 . S
H1271 N1265 0.985 . S
H1272 N1269 0.984 . S
H1273 N1269 0.985 . S
H1274 N1268 0.984 . S
H1275 N1268 0.984 . S
H1276 N1264 0.984 . S
H1277 N1264 0.985 . S
C1278 C1279 1.363 . S
C1278 C1284 1.379 . S
C1278 N1286 1.356 . S
C1279 C1278 1.363 . S
C1279 C1285 1.363 . S
C1280 C1281 1.363 . S
C1280 C1285 1.379 . S
C1280 N1287 1.356 . S
C1281 C1280 1.363 . S
C1281 C1284 1.363 . S
N1282 C1284 1.356 . S
N1282 H1294 0.984 . S
N1282 H1295 0.985 . S
N1283 C1285 1.356 . S
N1283 H1288 0.984 . S
N1283 H1289 0.985 . S
C1284 C1278 1.379 . S
C1284 C1281 1.363 . S
C1284 N1282 1.356 . S
C1285 C1279 1.363 . S
C1285 C1280 1.379 . S
C1285 N1283 1.356 . S
N1286 C1278 1.356 . S
N1286 H1292 0.984 . S
N1286 H1293 0.984 . S
N1287 C1280 1.356 . S
N1287 H1290 0.984 . S
N1287 H1291 0.985 . S
H1288 N1283 0.984 . S
H1289 N1283 0.985 . S
H1290 N1287 0.984 . S
H1291 N1287 0.985 . S
H1292 N1286 0.984 . S
H1293 N1286 0.984 . S
H1294 N1282 0.984 . S
H1295 N1282 0.985 . S
C1296 C1297 1.363 . S
C1296 C1302 1.379 . S
C1296 N1304 1.356 . S
C1297 C1296 1.363 . S
C1297 C1303 1.363 . S
C1298 C1299 1.363 . S
C1298 C1303 1.379 . S
C1298 N1305 1.356 . S
C1299 C1298 1.363 . S
C1299 C1302 1.363 . S
N1300 C1302 1.356 . S
N1300 H1312 0.984 . S
N1300 H1313 0.985 . S
N1301 C1303 1.356 . S
N1301 H1306 0.984 . S
N1301 H1307 0.985 . S
C1302 C1296 1.379 . S
C1302 C1299 1.363 . S
C1302 N1300 1.356 . S
C1303 C1297 1.363 . S
C1303 C1298 1.379 . S
C1303 N1301 1.356 . S
N1304 C1296 1.356 . S
N1304 H1310 0.984 . S
N1304 H1311 0.984 . S
N1305 C1298 1.356 . S
N1305 H1308 0.984 . S
N1305 H1309 0.985 . S
H1306 N1301 0.984 . S
H1307 N1301 0.985 . S
H1308 N1305 0.984 . S
H1309 N1305 0.985 . S
H1310 N1304 0.984 . S
H1311 N1304 0.984 . S
H1312 N1300 0.984 . S
H1313 N1300 0.985 . S
C1314 C1315 1.363 . S
C1314 C1320 1.379 . S
C1314 N1322 1.356 1_545 S
C1315 C1314 1.363 . S
C1315 C1321 1.363 . S
C1316 C1317 1.363 . S
C1316 C1321 1.379 . S
C1316 N1323 1.356 . S
C1317 C1316 1.363 . S
C1317 C1320 1.363 . S
N1318 C1320 1.356 1_565 S
N1318 H1330 0.984 . S
N1318 H1331 0.985 . S
N1319 C1321 1.356 . S
N1319 H1324 0.984 . S
N1319 H1325 0.985 . S
C1320 C1314 1.379 . S
C1320 C1317 1.363 . S
C1320 N1318 1.356 1_545 S
C1321 C1315 1.363 . S
C1321 C1316 1.379 . S
C1321 N1319 1.356 . S
N1322 C1314 1.356 1_565 S
N1322 H1328 0.984 . S
N1322 H1329 0.984 . S
N1323 C1316 1.356 . S
N1323 H1326 0.984 . S
N1323 H1327 0.985 . S
H1324 N1319 0.984 . S
H1325 N1319 0.985 . S
H1326 N1323 0.984 . S
H1327 N1323 0.985 . S
H1328 N1322 0.984 . S
H1329 N1322 0.984 . S
H1330 N1318 0.984 . S
H1331 N1318 0.985 . S
C1332 C1333 1.363 . S
C1332 C1338 1.379 . S
C1332 N1340 1.356 . S
C1333 C1332 1.363 . S
C1333 C1339 1.363 . S
C1334 C1335 1.363 . S
C1334 C1339 1.379 . S
C1334 N1341 1.356 . S
C1335 C1334 1.363 . S
C1335 C1338 1.363 . S
N1336 C1338 1.356 . S
N1336 H1348 0.984 . S
N1336 H1349 0.985 . S
N1337 C1339 1.356 . S
N1337 H1342 0.984 . S
N1337 H1343 0.985 . S
C1338 C1332 1.379 . S
C1338 C1335 1.363 . S
C1338 N1336 1.356 . S
C1339 C1333 1.363 . S
C1339 C1334 1.379 . S
C1339 N1337 1.356 . S
N1340 C1332 1.356 . S
N1340 H1346 0.984 . S
N1340 H1347 0.984 . S
N1341 C1334 1.356 . S
N1341 H1344 0.984 . S
N1341 H1345 0.985 . S
H1342 N1337 0.984 . S
H1343 N1337 0.985 . S
H1344 N1341 0.984 . S
H1345 N1341 0.985 . S
H1346 N1340 0.984 . S
H1347 N1340 0.984 . S
H1348 N1336 0.984 . S
H1349 N1336 0.985 . S
C1350 C1351 1.363 . S
C1350 C1356 1.379 . S
C1350 N1358 1.356 . S
C1351 C1350 1.363 . S
C1351 C1357 1.363 . S
C1352 C1353 1.363 . S
C1352 C1357 1.379 . S
C1352 N1359 1.356 . S
C1353 C1352 1.363 . S
C1353 C1356 1.363 . S
N1354 C1356 1.356 . S
N1354 H1366 0.984 . S
N1354 H1367 0.985 . S
N1355 C1357 1.356 . S
N1355 H1360 0.984 . S
N1355 H1361 0.985 . S
C1356 C1350 1.379 . S
C1356 C1353 1.363 . S
C1356 N1354 1.356 . S
C1357 C1351 1.363 . S
C1357 C1352 1.379 . S
C1357 N1355 1.356 . S
N1358 C1350 1.356 . S
N1358 H1364 0.984 . S
N1358 H1365 0.984 . S
N1359 C1352 1.356 . S
N1359 H1362 0.984 . S
N1359 H1363 0.985 . S
H1360 N1355 0.984 . S
H1361 N1355 0.985 . S
H1362 N1359 0.984 . S
H1363 N1359 0.985 . S
H1364 N1358 0.984 . S
H1365 N1358 0.984 . S
H1366 N1354 0.984 . S
H1367 N1354 0.985 . S
C1368 C1369 1.363 . S
C1368 C1374 1.379 . S
C1368 N1376 1.356 . S
C1369 C1368 1.363 . S
C1369 C1375 1.363 . S
C1370 C1371 1.363 . S
C1370 C1375 1.379 . S
C1370 N1377 1.356 . S
C1371 C1370 1.363 . S
C1371 C1374 1.363 . S
N1372 C1374 1.356 . S
N1372 H1384 0.984 . S
N1372 H1385 0.985 . S
N1373 C1375 1.356 . S
N1373 H1378 0.984 . S
N1373 H1379 0.985 . S
C1374 C1368 1.379 . S
C1374 C1371 1.363 . S
C1374 N1372 1.356 . S
C1375 C1369 1.363 . S
C1375 C1370 1.379 . S
C1375 N1373 1.356 . S
N1376 C1368 1.356 . S
N1376 H1382 0.984 . S
N1376 H1383 0.984 . S
N1377 C1370 1.356 . S
N1377 H1380 0.984 . S
N1377 H1381 0.985 . S
H1378 N1373 0.984 . S
H1379 N1373 0.985 . S
H1380 N1377 0.984 . S
H1381 N1377 0.985 . S
H1382 N1376 0.984 . S
H1383 N1376 0.984 . S
H1384 N1372 0.984 . S
H1385 N1372 0.985 . S
C1386 C1387 1.363 . S
C1386 C1392 1.379 . S
C1386 N1394 1.356 . S
C1387 C1386 1.363 . S
C1387 C1393 1.363 1_655 S
C1388 C1389 1.363 . S
C1388 C1393 1.379 . S
C1388 N1395 1.356 . S
C1389 C1388 1.363 . S
C1389 C1392 1.363 1_455 S
N1390 C1392 1.356 . S
N1390 H1402 0.984 . S
N1390 H1403 0.985 . S
N1391 C1393 1.356 . S
N1391 H1396 0.984 1_556 S
N1391 H1397 0.985 1_556 S
C1392 C1386 1.379 . S
C1392 C1389 1.363 1_655 S
C1392 N1390 1.356 . S
C1393 C1387 1.363 1_455 S
C1393 C1388 1.379 . S
C1393 N1391 1.356 . S
N1394 C1386 1.356 . S
N1394 H1400 0.984 . S
N1394 H1401 0.984 . S
N1395 C1388 1.356 . S
N1395 H1398 0.984 . S
N1395 H1399 0.985 . S
H1396 N1391 0.984 1_554 S
H1397 N1391 0.985 1_554 S
H1398 N1395 0.984 . S
H1399 N1395 0.985 . S
H1400 N1394 0.984 . S
H1401 N1394 0.984 . S
H1402 N1390 0.984 . S
H1403 N1390 0.985 . S
C1404 C1405 1.363 . S
C1404 C1410 1.379 . S
C1404 N1412 1.356 . S
C1405 C1404 1.363 . S
C1405 C1411 1.363 . S
C1406 C1407 1.363 . S
C1406 C1411 1.379 . S
C1406 N1413 1.356 . S
C1407 C1406 1.363 . S
C1407 C1410 1.363 . S
N1408 C1410 1.356 . S
N1408 H1420 0.984 . S
N1408 H1421 0.985 . S
N1409 C1411 1.356 . S
N1409 H1414 0.984 . S
N1409 H1415 0.985 . S
C1410 C1404 1.379 . S
C1410 C1407 1.363 . S
C1410 N1408 1.356 . S
C1411 C1405 1.363 . S
C1411 C1406 1.379 . S
C1411 N1409 1.356 . S
N1412 C1404 1.356 . S
N1412 H1418 0.984 . S
N1412 H1419 0.984 . S
N1413 C1406 1.356 . S
N1413 H1416 0.984 . S
N1413 H1417 0.985 . S
H1414 N1409 0.984 . S
H1415 N1409 0.985 . S
H1416 N1413 0.984 . S
H1417 N1413 0.985 . S
H1418 N1412 0.984 . S
H1419 N1412 0.984 . S
H1420 N1408 0.984 . S
H1421 N1408 0.985 . S
C1422 C1423 1.363 . S
C1422 C1428 1.379 . S
C1422 N1430 1.356 . S
C1423 C1422 1.363 . S
C1423 C1429 1.363 . S
C1424 C1425 1.363 . S
C1424 C1429 1.379 . S
C1424 N1431 1.356 1_455 S
C1425 C1424 1.363 . S
C1425 C1428 1.363 . S
N1426 C1428 1.356 . S
N1426 H1438 0.984 . S
N1426 H1439 0.985 . S
N1427 C1429 1.356 1_655 S
N1427 H1432 0.989 . S
N1427 H1433 0.985 . S
C1428 C1422 1.379 . S
C1428 C1425 1.363 . S
C1428 N1426 1.356 . S
C1429 C1423 1.363 . S
C1429 C1424 1.379 . S
C1429 N1427 1.356 1_455 S
N1430 C1422 1.356 . S
N1430 H1436 0.984 . S
N1430 H1437 0.984 . S
N1431 C1424 1.356 1_655 S
N1431 H1434 0.987 . S
N1431 H1435 0.985 . S
H1432 N1427 0.989 . S
H1433 N1427 0.985 . S
H1434 N1431 0.987 . S
H1435 N1431 0.985 . S
H1436 N1430 0.984 . S
H1437 N1430 0.984 . S
H1438 N1426 0.984 . S
H1439 N1426 0.985 . S
C1440 C1441 1.363 . S
C1440 C1446 1.379 . S
C1440 N1448 1.356 . S
C1441 C1440 1.363 . S
C1441 C1447 1.363 . S
C1442 C1443 1.363 . S
C1442 C1447 1.379 . S
C1442 N1449 1.356 . S
C1443 C1442 1.363 . S
C1443 C1446 1.363 . S
N1444 C1446 1.356 . S
N1444 H1456 0.984 . S
N1444 H1457 0.985 . S
N1445 C1447 1.356 . S
N1445 H1450 0.984 . S
N1445 H1451 0.985 . S
C1446 C1440 1.379 . S
C1446 C1443 1.363 . S
C1446 N1444 1.356 . S
C1447 C1441 1.363 . S
C1447 C1442 1.379 . S
C1447 N1445 1.356 . S
N1448 C1440 1.356 . S
N1448 H1454 0.984 . S
N1448 H1455 0.984 . S
N1449 C1442 1.356 . S
N1449 H1452 0.984 . S
N1449 H1453 0.985 . S
H1450 N1445 0.984 . S
H1451 N1445 0.985 . S
H1452 N1449 0.984 . S
H1453 N1449 0.985 . S
H1454 N1448 0.984 . S
H1455 N1448 0.984 . S
H1456 N1444 0.984 . S
H1457 N1444 0.985 . S
C1458 C1459 1.363 . S
C1458 C1464 1.379 . S
C1458 N1466 1.356 . S
C1459 C1458 1.363 . S
C1459 C1465 1.363 . S
C1460 C1461 1.363 . S
C1460 C1465 1.379 . S
C1460 N1467 1.356 . S
C1461 C1460 1.363 . S
C1461 C1464 1.363 . S
N1462 C1464 1.356 . S
N1462 H1474 0.984 . S
N1462 H1475 0.985 . S
N1463 C1465 1.356 . S
N1463 H1468 0.984 . S
N1463 H1469 1.005 . S
C1464 C1458 1.379 . S
C1464 C1461 1.363 . S
C1464 N1462 1.356 . S
C1465 C1459 1.363 . S
C1465 C1460 1.379 . S
C1465 N1463 1.356 . S
N1466 C1458 1.356 . S
N1466 H1472 0.984 . S
N1466 H1473 0.984 . S
N1467 C1460 1.356 . S
N1467 H1470 0.984 . S
N1467 H1471 0.985 . S
H1468 N1463 0.984 . S
H1469 N1463 1.005 . S
H1470 N1467 0.984 . S
H1471 N1467 0.985 . S
H1472 N1466 0.984 . S
H1473 N1466 0.984 . S
H1474 N1462 0.984 . S
H1475 N1462 0.985 . S
C1476 C1477 1.363 . S
C1476 C1482 1.379 . S
C1476 N1484 1.356 . S
C1477 C1476 1.363 . S
C1477 C1483 1.363 . S
C1478 C1479 1.363 . S
C1478 C1483 1.379 . S
C1478 N1485 1.356 . S
C1479 C1478 1.363 . S
C1479 C1482 1.363 . S
N1480 C1482 1.356 . S
N1480 H1492 0.984 . S
N1480 H1493 0.985 . S
N1481 C1483 1.356 . S
N1481 H1486 0.984 . S
N1481 H1487 0.985 . S
C1482 C1476 1.379 . S
C1482 C1479 1.363 . S
C1482 N1480 1.356 . S
C1483 C1477 1.363 . S
C1483 C1478 1.379 . S
C1483 N1481 1.356 . S
N1484 C1476 1.356 . S
N1484 H1490 0.984 . S
N1484 H1491 0.984 . S
N1485 C1478 1.356 . S
N1485 H1488 0.984 . S
N1485 H1489 0.985 . S
H1486 N1481 0.984 . S
H1487 N1481 0.985 . S
H1488 N1485 0.984 . S
H1489 N1485 0.985 . S
H1490 N1484 0.984 . S
H1491 N1484 0.984 . S
H1492 N1480 0.984 . S
H1493 N1480 0.985 . S
C1494 C1495 1.363 . S
C1494 C1500 1.379 . S
C1494 N1502 1.356 . S
C1495 C1494 1.363 . S
C1495 C1501 1.363 . S
C1496 C1497 1.363 . S
C1496 C1501 1.379 . S
C1496 N1503 1.356 . S
C1497 C1496 1.363 . S
C1497 C1500 1.363 . S
N1498 C1500 1.356 . S
N1498 H1510 0.984 . S
N1498 H1511 0.985 . S
N1499 C1501 1.356 . S
N1499 H1504 0.984 . S
N1499 H1505 0.985 . S
C1500 C1494 1.379 . S
C1500 C1497 1.363 . S
C1500 N1498 1.356 . S
C1501 C1495 1.363 . S
C1501 C1496 1.379 . S
C1501 N1499 1.356 . S
N1502 C1494 1.356 . S
N1502 H1508 0.984 . S
N1502 H1509 0.984 . S
N1503 C1496 1.356 . S
N1503 H1506 0.984 . S
N1503 H1507 0.985 . S
H1504 N1499 0.984 . S
H1505 N1499 0.985 . S
H1506 N1503 0.984 . S
H1507 N1503 0.985 . S
H1508 N1502 0.984 . S
H1509 N1502 0.984 . S
H1510 N1498 0.984 . S
H1511 N1498 0.985 . S
C1512 C1513 1.363 . S
C1512 C1518 1.379 . S
C1512 N1520 1.356 . S
C1513 C1512 1.363 . S
C1513 C1519 1.363 . S
C1514 C1515 1.363 . S
C1514 C1519 1.379 . S
C1514 N1521 1.356 . S
C1515 C1514 1.363 . S
C1515 C1518 1.363 . S
N1516 C1518 1.356 . S
N1516 H1528 0.984 . S
N1516 H1529 0.985 . S
N1517 C1519 1.356 . S
N1517 H1522 0.984 . S
N1517 H1523 0.985 . S
C1518 C1512 1.379 . S
C1518 C1515 1.363 . S
C1518 N1516 1.356 . S
C1519 C1513 1.363 . S
C1519 C1514 1.379 . S
C1519 N1517 1.356 . S
N1520 C1512 1.356 . S
N1520 H1526 0.984 . S
N1520 H1527 0.984 . S
N1521 C1514 1.356 . S
N1521 H1524 0.984 . S
N1521 H1525 0.985 . S
H1522 N1517 0.984 . S
H1523 N1517 0.985 . S
H1524 N1521 0.984 . S
H1525 N1521 0.985 . S
H1526 N1520 0.984 . S
H1527 N1520 0.984 . S
H1528 N1516 0.984 . S
H1529 N1516 0.985 . S
C1530 C1531 1.363 . S
C1530 C1536 1.379 . S
C1530 N1538 1.356 . S
C1531 C1530 1.363 . S
C1531 C1537 1.363 . S
C1532 C1533 1.363 . S
C1532 C1537 1.379 . S
C1532 N1539 1.356 . S
C1533 C1532 1.363 . S
C1533 C1536 1.363 . S
N1534 C1536 1.356 . S
N1534 H1546 0.984 . S
N1534 H1547 0.985 . S
N1535 C1537 1.356 . S
N1535 H1540 0.984 . S
N1535 H1541 0.985 . S
C1536 C1530 1.379 . S
C1536 C1533 1.363 . S
C1536 N1534 1.356 . S
C1537 C1531 1.363 . S
C1537 C1532 1.379 . S
C1537 N1535 1.356 . S
N1538 C1530 1.356 . S
N1538 H1544 0.984 . S
N1538 H1545 0.984 . S
N1539 C1532 1.356 . S
N1539 H1542 0.984 . S
N1539 H1543 0.985 . S
H1540 N1535 0.984 . S
H1541 N1535 0.985 . S
H1542 N1539 0.984 . S
H1543 N1539 0.985 . S
H1544 N1538 0.984 . S
H1545 N1538 0.984 . S
H1546 N1534 0.984 . S
H1547 N1534 0.985 . S
C1548 C1549 1.363 . S
C1548 C1554 1.379 . S
C1548 N1556 1.356 . S
C1549 C1548 1.363 . S
C1549 C1555 1.363 . S
C1550 C1551 1.363 . S
C1550 C1555 1.379 . S
C1550 N1557 1.356 . S
C1551 C1550 1.363 . S
C1551 C1554 1.363 . S
N1552 C1554 1.356 . S
N1552 H1564 0.984 . S
N1552 H1565 0.985 . S
N1553 C1555 1.356 . S
N1553 H1558 0.984 . S
N1553 H1559 0.985 . S
C1554 C1548 1.379 . S
C1554 C1551 1.363 . S
C1554 N1552 1.356 . S
C1555 C1549 1.363 . S
C1555 C1550 1.379 . S
C1555 N1553 1.356 . S
N1556 C1548 1.356 . S
N1556 H1562 0.984 . S
N1556 H1563 0.984 . S
N1557 C1550 1.356 . S
N1557 H1560 0.984 . S
N1557 H1561 0.985 . S
H1558 N1553 0.984 . S
H1559 N1553 0.985 . S
H1560 N1557 0.984 . S
H1561 N1557 0.985 . S
H1562 N1556 0.984 . S
H1563 N1556 0.984 . S
H1564 N1552 0.984 . S
H1565 N1552 0.985 . S
C1566 C1567 1.363 . S
C1566 C1572 1.379 . S
C1566 N1574 1.356 . S
C1567 C1566 1.363 . S
C1567 C1573 1.363 . S
C1568 C1569 1.363 . S
C1568 C1573 1.379 . S
C1568 N1575 1.356 . S
C1569 C1568 1.363 . S
C1569 C1572 1.363 . S
N1570 C1572 1.356 . S
N1570 H1582 0.984 . S
N1570 H1583 0.985 . S
N1571 C1573 1.356 . S
N1571 H1576 0.984 . S
N1571 H1577 0.985 . S
C1572 C1566 1.379 . S
C1572 C1569 1.363 . S
C1572 N1570 1.356 . S
C1573 C1567 1.363 . S
C1573 C1568 1.379 . S
C1573 N1571 1.356 . S
N1574 C1566 1.356 . S
N1574 H1580 0.984 . S
N1574 H1581 0.984 . S
N1575 C1568 1.356 . S
N1575 H1578 0.984 . S
N1575 H1579 0.985 . S
H1576 N1571 0.984 . S
H1577 N1571 0.985 . S
H1578 N1575 0.984 . S
H1579 N1575 0.985 . S
H1580 N1574 0.984 . S
H1581 N1574 0.984 . S
H1582 N1570 0.984 . S
H1583 N1570 0.985 . S
C1584 C1585 1.363 . S
C1584 C1590 1.379 . S
C1584 N1592 1.356 . S
C1585 C1584 1.363 . S
C1585 C1591 1.363 1_556 S
C1586 C1587 1.363 1_554 S
C1586 C1591 1.379 . S
C1586 N1593 1.356 . S
C1587 C1586 1.363 1_556 S
C1587 C1590 1.363 . S
N1588 C1590 1.356 . S
N1588 H1600 0.984 . S
N1588 H1601 0.985 . S
N1589 C1591 1.356 . S
N1589 H1594 0.984 . S
N1589 H1595 0.985 . S
C1590 C1584 1.379 . S
C1590 C1587 1.363 . S
C1590 N1588 1.356 . S
C1591 C1585 1.363 1_554 S
C1591 C1586 1.379 . S
C1591 N1589 1.356 . S
N1592 C1584 1.356 . S
N1592 H1598 0.984 . S
N1592 H1599 0.984 . S
N1593 C1586 1.356 . S
N1593 H1596 0.984 . S
N1593 H1597 0.985 . S
H1594 N1589 0.984 . S
H1595 N1589 0.985 . S
H1596 N1593 0.984 . S
H1597 N1593 0.985 . S
H1598 N1592 0.984 . S
H1599 N1592 0.984 . S
H1600 N1588 0.984 . S
H1601 N1588 0.985 . S
C1602 C1603 1.363 . S
C1602 C1608 1.379 . S
C1602 N1610 1.356 . S
C1603 C1602 1.363 . S
C1603 C1609 1.363 . S
C1604 C1605 1.363 . S
C1604 C1609 1.379 . S
C1604 N1611 1.356 . S
C1605 C1604 1.363 . S
C1605 C1608 1.363 . S
N1606 C1608 1.356 . S
N1606 H1618 0.984 . S
N1606 H1619 0.985 . S
N1607 C1609 1.356 . S
N1607 H1612 0.984 . S
N1607 H1613 0.985 . S
C1608 C1602 1.379 . S
C1608 C1605 1.363 . S
C1608 N1606 1.356 . S
C1609 C1603 1.363 . S
C1609 C1604 1.379 . S
C1609 N1607 1.356 . S
N1610 C1602 1.356 . S
N1610 H1616 0.984 . S
N1610 H1617 0.984 . S
N1611 C1604 1.356 . S
N1611 H1614 0.984 . S
N1611 H1615 0.985 . S
H1612 N1607 0.984 . S
H1613 N1607 0.985 . S
H1614 N1611 0.984 . S
H1615 N1611 0.985 . S
H1616 N1610 0.984 . S
H1617 N1610 0.984 . S
H1618 N1606 0.984 . S
H1619 N1606 0.985 . S
C1620 C1621 1.363 . S
C1620 C1626 1.379 . S
C1620 N1628 1.356 . S
C1621 C1620 1.363 . S
C1621 C1627 1.363 . S
C1622 C1623 1.363 . S
C1622 C1627 1.379 . S
C1622 N1629 1.356 1_554 S
C1623 C1622 1.363 . S
C1623 C1626 1.363 . S
N1624 C1626 1.356 . S
N1624 H1636 0.984 . S
N1624 H1637 0.985 . S
N1625 C1627 1.356 1_556 S
N1625 H1630 0.984 . S
N1625 H1631 0.985 . S
C1626 C1620 1.379 . S
C1626 C1623 1.363 . S
C1626 N1624 1.356 . S
C1627 C1621 1.363 . S
C1627 C1622 1.379 . S
C1627 N1625 1.356 1_554 S
N1628 C1620 1.356 . S
N1628 H1634 0.984 . S
N1628 H1635 0.984 . S
N1629 C1622 1.356 1_556 S
N1629 H1632 0.984 . S
N1629 H1633 0.985 . S
H1630 N1625 0.984 . S
H1631 N1625 0.985 . S
H1632 N1629 0.984 . S
H1633 N1629 0.985 . S
H1634 N1628 0.984 . S
H1635 N1628 0.984 . S
H1636 N1624 0.984 . S
H1637 N1624 0.985 . S
C1638 C1639 1.363 . S
C1638 C1644 1.379 . S
C1638 N1646 1.356 . S
C1639 C1638 1.363 . S
C1639 C1645 1.363 1_554 S
C1640 C1641 1.363 1_556 S
C1640 C1645 1.379 . S
C1640 N1647 1.356 . S
C1641 C1640 1.363 1_554 S
C1641 C1644 1.363 . S
N1642 C1644 1.356 . S
N1642 H1654 0.984 . S
N1642 H1655 0.985 . S
N1643 C1645 1.356 . S
N1643 H1648 0.984 . S
N1643 H1649 0.985 . S
C1644 C1638 1.379 . S
C1644 C1641 1.363 . S
C1644 N1642 1.356 . S
C1645 C1639 1.363 1_556 S
C1645 C1640 1.379 . S
C1645 N1643 1.356 . S
N1646 C1638 1.356 . S
N1646 H1652 0.984 . S
N1646 H1653 0.984 . S
N1647 C1640 1.356 . S
N1647 H1650 0.984 . S
N1647 H1651 0.985 . S
H1648 N1643 0.984 . S
H1649 N1643 0.985 . S
H1650 N1647 0.984 . S
H1651 N1647 0.985 . S
H1652 N1646 0.984 . S
H1653 N1646 0.984 . S
H1654 N1642 0.984 . S
H1655 N1642 0.985 . S
C795 C635 1.449 . S
C793 C211 1.470 . S
C813 C643 1.269 . S
C811 C255 1.535 . S
C829 C274 1.451 . S
C831 C663 1.429 . S
C849 C677 1.502 . S
C847 C157 1.521 . S
C867 C692 1.529 . S
C865 C391 1.529 . S
C885 C706 1.523 . S
C883 C484 1.516 . S
C901 C450 1.555 . S
C903 C720 1.554 . S
C921 C726 1.442 . S
C919 C352 1.488 . S
C937 C430 1.520 . S
C939 C740 1.484 . S
C957 C761 1.529 . S
C955 C367 1.551 . S
C973 C411 1.488 . S
C975 C741 1.257 . S
C993 C762 1.539 . S
C991 C469 1.535 . S
C1009 C294 1.486 . S
C1011 C769 1.211 . S
C1027 C177 1.513 . S
C1029 C775 1.496 . S
C1045 C196 1.510 . S
C1047 C768 1.461 . S
C1063 C235 1.484 . S
C1065 C776 1.487 . S
C1081 C133 1.503 . S
C1083 C670 1.459 . S
C1099 C567 1.493 . S
C1101 C671 1.250 . S
C1119 C628 1.498 . S
C1117 C601 1.551 . S
C1137 C649 1.450 . S
C1135 C328 1.476 . S
C1153 C172 1.490 . S
C1155 C684 1.453 . S
C1173 C734 1.526 . S
C1171 C445 1.526 . S
C1191 C685 1.233 . S
C1189 C372 1.473 . S
C1209 C713 1.251 . S
C1207 C489 1.551 . S
C1227 C719 1.449 . S
C1225 C562 1.470 . S
C1243 C606 1.535 . S
C1245 C727 1.269 . S
C1261 C313 1.451 . S
C1263 C691 1.429 . S
C1281 C705 1.502 . S
C1279 C508 1.521 . S
C1297 C118 1.529 . S
C1299 C664 1.529 . S
C1317 C678 1.523 . S
C1315 C16 1.516 . S
C1335 C636 1.554 . S
C1333 C60 1.555 . S
C1353 C642 1.442 . S
C1351 C79 1.488 . S
C1369 C40 1.520 . S
C1371 C754 1.484 . S
C1387 C94 1.551 . S
C1389 C747 1.529 . S
C1405 C138 1.488 . S
C1407 C755 1.257 . S
C1423 C1 1.535 . S
C1425 C748 1.539 . S
C1443 C783 1.211 . S
C1441 C333 1.485 . S
C1461 C789 1.496 . S
C1459 C528 1.513 . S
C1479 C782 1.461 . S
C1477 C547 1.509 . S
C1495 C586 1.484 . S
C1497 C790 1.487 . S
C1513 C406 1.503 . S
C1515 C698 1.459 . S
C1533 C699 1.250 . S
C1531 C216 1.493 . S
C1551 C712 1.498 . S
C1549 C250 1.551 . S
C1569 C733 1.450 . S
C1567 C289 1.477 . S
C1585 C523 1.490 . S
C1587 C656 1.452 . S
C1605 C650 1.526 . S
C1603 C55 1.525 . S
C1621 C99 1.473 . S
C1623 C657 1.233 . S
C1641 C629 1.251 . S
C1639 C21 1.551 . S
