# Generated by pormake.
# Topology pyr, (3,6)-cn, num edge types: 1
# Building blocks:
#     Node 0, Type 0, BuildingBlock: BETDAH_clean_linker_0, # of connection points: 3
#     Node 1, Type 0, BuildingBlock: BETDAH_clean_linker_0, # of connection points: 3
#     Node 2, Type 0, BuildingBlock: BETDAH_clean_linker_0, # of connection points: 3
#     Node 3, Type 0, BuildingBlock: BETDAH_clean_linker_0, # of connection points: 3
#     Node 4, Type 0, BuildingBlock: BETDAH_clean_linker_0, # of connection points: 3
#     Node 5, Type 0, BuildingBlock: BETDAH_clean_linker_0, # of connection points: 3
#     Node 6, Type 0, BuildingBlock: BETDAH_clean_linker_0, # of connection points: 3
#     Node 7, Type 0, BuildingBlock: BETDAH_clean_linker_0, # of connection points: 3
#     Node 8, Type 1, BuildingBlock: JUFBIX_clean_sbu_0, # of connection points: 6
#     Node 9, Type 1, BuildingBlock: JUFBIX_clean_sbu_0, # of connection points: 6
#     Node 10, Type 1, BuildingBlock: JUFBIX_clean_sbu_0, # of connection points: 6
#     Node 11, Type 1, BuildingBlock: JUFBIX_clean_sbu_0, # of connection points: 6
#     Edge 12, Type (0, 1), BuildingBlock: CIFDUS_clean_linker_0, # of connection points: 2
#     Edge 13, Type (0, 1), BuildingBlock: CIFDUS_clean_linker_0, # of connection points: 2
#     Edge 14, Type (0, 1), BuildingBlock: CIFDUS_clean_linker_0, # of connection points: 2
#     Edge 15, Type (0, 1), BuildingBlock: CIFDUS_clean_linker_0, # of connection points: 2
#     Edge 16, Type (0, 1), BuildingBlock: CIFDUS_clean_linker_0, # of connection points: 2
#     Edge 17, Type (0, 1), BuildingBlock: CIFDUS_clean_linker_0, # of connection points: 2
#     Edge 18, Type (0, 1), BuildingBlock: CIFDUS_clean_linker_0, # of connection points: 2
#     Edge 19, Type (0, 1), BuildingBlock: CIFDUS_clean_linker_0, # of connection points: 2
#     Edge 20, Type (0, 1), BuildingBlock: CIFDUS_clean_linker_0, # of connection points: 2
#     Edge 21, Type (0, 1), BuildingBlock: CIFDUS_clean_linker_0, # of connection points: 2
#     Edge 22, Type (0, 1), BuildingBlock: CIFDUS_clean_linker_0, # of connection points: 2
#     Edge 23, Type (0, 1), BuildingBlock: CIFDUS_clean_linker_0, # of connection points: 2
#     Edge 24, Type (0, 1), BuildingBlock: CIFDUS_clean_linker_0, # of connection points: 2
#     Edge 25, Type (0, 1), BuildingBlock: CIFDUS_clean_linker_0, # of connection points: 2
#     Edge 26, Type (0, 1), BuildingBlock: CIFDUS_clean_linker_0, # of connection points: 2
#     Edge 27, Type (0, 1), BuildingBlock: CIFDUS_clean_linker_0, # of connection points: 2
#     Edge 28, Type (0, 1), BuildingBlock: CIFDUS_clean_linker_0, # of connection points: 2
#     Edge 29, Type (0, 1), BuildingBlock: CIFDUS_clean_linker_0, # of connection points: 2
#     Edge 30, Type (0, 1), BuildingBlock: CIFDUS_clean_linker_0, # of connection points: 2
#     Edge 31, Type (0, 1), BuildingBlock: CIFDUS_clean_linker_0, # of connection points: 2
#     Edge 32, Type (0, 1), BuildingBlock: CIFDUS_clean_linker_0, # of connection points: 2
#     Edge 33, Type (0, 1), BuildingBlock: CIFDUS_clean_linker_0, # of connection points: 2
#     Edge 34, Type (0, 1), BuildingBlock: CIFDUS_clean_linker_0, # of connection points: 2
#     Edge 35, Type (0, 1), BuildingBlock: CIFDUS_clean_linker_0, # of connection points: 2
# Relax obj value: 0.141
# Max RMSD: 0.207
# Mean RMSD: 0.127
data_MOF--net-pry--node1-JUFBIX_clean_sbu_0--node2-BETDAH_clean_linker_0--edge1-CIFDUS_clean_linker_0
_symmetry_space_group_name_H-M    P1
_symmetry_Int_Tables_number       1
_symmetry_cell_setting            triclinic
loop_
_symmetry_equiv_pos_as_xyz
'x, y, z'
_cell_length_a     32.066478
_cell_length_b     30.076845
_cell_length_c     33.25773
_cell_angle_alpha  83.294801
_cell_angle_beta   88.764201
_cell_angle_gamma 96.636624
loop_
_atom_site_label
_atom_site_type_symbol
_atom_site_fract_x
_atom_site_fract_y
_atom_site_fract_z
_atom_type_partial_charge
H0 H 0.26489 0.13198 0.25715 0.0
H1 H 0.26278 0.22164 0.14703 0.0
H2 H 0.17908 0.23405 0.24636 0.0
C3 C 0.25251 0.16014 0.24007 0.0
C4 C 0.2198 0.18091 0.25759 0.0
C5 C 0.26804 0.1741 0.19985 0.0
C6 C 0.25096 0.20996 0.17769 0.0
C7 C 0.21924 0.23181 0.19388 0.0
C8 C 0.20347 0.21714 0.23382 0.0
N9 N 0.20495 0.26784 0.1677 0.0
C10 C 0.17524 0.29739 0.17367 0.0
H11 H 0.52077 0.86396 0.74412 0.0
H12 H 0.47653 0.99051 0.69974 0.0
H13 H 0.50307 0.89781 0.61693 0.0
C14 C 0.51212 0.88763 0.71948 0.0
C15 C 0.51352 0.87632 0.6797 0.0
C16 C 0.49933 0.92927 0.72731 0.0
C17 C 0.48647 0.95833 0.69471 0.0
C18 C 0.48778 0.94683 0.65505 0.0
C19 C 0.50228 0.90653 0.64765 0.0
N20 N 0.474 0.97511 0.62222 0.0
C21 C 0.43455 0.98966 0.62351 0.0
H22 H 0.74142 0.3424 0.98108 0.0
H23 H 0.75795 0.47359 0.91224 0.0
H24 H 0.64872 0.38195 0.89585 0.0
C25 C 0.73033 0.36695 0.95858 0.0
C26 C 0.69185 0.35668 0.93985 0.0
C27 C 0.7548 0.40872 0.94821 0.0
C28 C 0.74024 0.44053 0.91944 0.0
C29 C 0.70269 0.43091 0.90015 0.0
C30 C 0.67859 0.38875 0.9099 0.0
N31 N 0.68902 0.46595 0.87331 0.0
C32 C 0.66441 0.45985 0.84019 0.0
H33 H 0.9404 0.74625 0.50546 0.0
H34 H 0.05612 0.69182 0.4842 0.0
H35 H 0.93746 0.61455 0.46717 0.0
C36 C 0.95681 0.71868 0.49763 0.0
C37 C 0.93376 0.67948 0.48734 0.0
C38 C 1.00085 0.72326 0.49696 0.0
C39 C 0.02209 0.68781 0.4864 0.0
C40 C 0.99932 0.64896 0.47473 0.0
C41 C 0.95512 0.64448 0.47623 0.0
N42 N 0.02104 0.61701 0.45737 0.0
C43 C 1.0067 0.60025 0.42233 0.0
H44 H 0.95286 0.864 0.84403 0.0
H45 H 0.86312 0.8781 0.93938 0.0
H46 H 0.87468 0.97067 0.82964 0.0
C47 C 0.92855 0.8815 0.85595 0.0
C48 C 0.91651 0.9193 0.83185 0.0
C49 C 0.91065 0.86637 0.89529 0.0
C50 C 0.87681 0.88811 0.90917 0.0
C51 C 0.86317 0.92543 0.88494 0.0
C52 C 0.88365 0.94065 0.84693 0.0
N53 N 0.8342 0.95351 0.89934 0.0
C54 C 0.7977 0.94251 0.92437 0.0
H55 H 0.66672 0.11047 0.41926 0.0
H56 H 0.66839 0.16423 0.53353 0.0
H57 H 0.58102 0.20448 0.44358 0.0
C58 C 0.65373 0.13077 0.4402 0.0
C59 C 0.62098 0.15564 0.42782 0.0
C60 C 0.67169 0.13418 0.47787 0.0
C61 C 0.65522 0.16162 0.50404 0.0
C62 C 0.62278 0.18716 0.49196 0.0
C63 C 0.60595 0.18473 0.45336 0.0
N64 N 0.60794 0.2146 0.51968 0.0
C65 C 0.58954 0.25362 0.50875 0.0
H66 H 0.32412 0.76732 0.15598 0.0
H67 H 0.26396 0.65935 0.2407 0.0
H68 H 0.37981 0.73239 0.27088 0.0
C69 C 0.32414 0.74617 0.18468 0.0
C70 C 0.35665 0.75405 0.21187 0.0
C71 C 0.29054 0.71229 0.19487 0.0
C72 C 0.28954 0.686 0.23258 0.0
C73 C 0.3213 0.69294 0.26002 0.0
C74 C 0.35502 0.72706 0.24975 0.0
N75 N 0.31746 0.66461 0.29748 0.0
C76 C 0.34579 0.66467 0.32847 0.0
H77 H 0.1718 0.39335 0.61703 0.0
H78 H 0.122 0.50562 0.66128 0.0
H79 H 0.03916 0.38656 0.64459 0.0
C80 C 0.145 0.40853 0.62726 0.0
C81 C 0.10478 0.38422 0.62954 0.0
C82 C 0.15126 0.45227 0.63827 0.0
C83 C 0.11706 0.47211 0.65197 0.0
C84 C 0.0765 0.4483 0.65402 0.0
C85 C 0.0704 0.40496 0.64197 0.0
N86 N 0.04171 0.46647 0.66984 0.0
C87 C 0.04453 0.48753 0.70482 0.0
Co88 Co 0.02293 0.06382 0.52711 0.0
C89 C 0.05313 0.98079 0.52097 0.0
Co90 Co 0.084 0.0557 0.55414 0.0
C91 C 0.93797 0.08323 0.51731 0.0
C92 C 0.95977 0.05028 0.46854 0.0
N93 N 0.97195 0.06668 0.50304 0.0
N94 N 0.90496 0.07736 0.49331 0.0
C95 C 0.91846 0.05663 0.46257 0.0
H96 H 0.93716 0.09832 0.54528 0.0
H97 H 0.97954 0.03431 0.44922 0.0
C98 C 0.0535 0.13929 0.55935 0.0
N99 N 0.13462 0.05323 0.57959 0.0
C100 C 0.17093 0.03904 0.56781 0.0
C101 C 0.14226 0.06747 0.61597 0.0
N102 N 0.2009 0.04389 0.59559 0.0
C103 C 0.18275 0.06191 0.62581 0.0
C104 C 0.0914 0.09222 0.47155 0.0
O105 O 0.02223 0.12272 0.54105 0.0
O106 O 0.08332 0.1157 0.56754 0.0
O107 O 0.11323 0.07999 0.50178 0.0
O108 O 0.0516 0.08807 0.47673 0.0
O109 O 0.08431 0.99573 0.54052 0.0
H110 H 0.11985 0.08158 0.63407 0.0
H111 H 0.17508 0.02528 0.53954 0.0
O112 O 0.02392 1.00516 0.51293 0.0
O113 O 0.99407 0.03946 0.57769 0.0
O114 O 0.05406 0.03135 0.60575 0.0
C115 C 1.01404 0.02723 0.60894 0.0
H116 H 0.89991 0.04719 0.43742 0.0
H117 H 0.19783 0.07146 0.65282 0.0
Co118 Co 0.52041 0.04436 0.04889 0.0
C119 C 0.50611 0.9674 0.10687 0.0
Co120 Co 0.55356 0.04868 0.10611 0.0
C121 C 0.50274 0.02975 0.96501 0.0
C122 C 0.44724 0.03102 1.0015 0.0
N123 N 0.48957 0.03622 1.00264 0.0
N124 N 0.47029 0.02092 0.94065 0.0
C125 C 0.4354 0.02193 0.96362 0.0
H126 H 0.53544 0.03078 0.95578 0.0
H127 H 0.42598 0.0319 0.02697 0.0
C128 C 0.56794 0.12583 0.04811 0.0
N129 N 0.58361 0.05731 0.152 0.0
C130 C 0.56864 0.05616 0.19043 0.0
C131 C 0.6239 0.07611 0.15227 0.0
N132 N 0.59768 0.07464 0.21418 0.0
C133 C 0.63253 0.08711 0.19044 0.0
C134 C 0.601 0.01468 0.04635 0.0
O135 O 0.54328 0.10376 1.02608 0.0
O136 O 0.57557 0.1077 0.0832 0.0
O137 O 0.60037 0.02488 0.08246 0.0
O138 O 0.56863 0.01986 1.02533 0.0
O139 O 0.5308 0.98955 0.1288 0.0
H140 H 0.64473 0.08426 0.12575 0.0
H141 H 0.53623 0.04531 0.20008 0.0
O142 O 0.49819 0.98526 0.07171 0.0
O143 O 0.47262 0.06928 0.07418 0.0
O144 O 0.50728 0.07234 0.12963 0.0
C145 C 0.47412 0.07857 0.1107 0.0
H146 H 0.40345 0.0146 0.9543 0.0
H147 H 0.66152 0.10461 0.19967 0.0
Co148 Co 0.56783 0.589 0.55252 0.0
C149 C 0.49798 0.60007 0.5055 0.0
Co150 Co 0.50859 0.55245 0.57995 0.0
C151 C 0.65512 0.60812 0.52879 0.0
C152 C 0.62207 0.66532 0.51373 0.0
N153 N 0.61657 0.62178 0.52986 0.0
N154 N 0.68486 0.64152 0.51303 0.0
C155 C 0.66394 0.67758 0.50344 0.0
H156 H 0.66107 0.57433 0.54008 0.0
H157 H 0.59744 0.68709 0.51082 0.0
C158 C 0.57868 0.54152 0.62676 0.0
N159 N 0.46075 0.51834 0.60368 0.0
C160 C 0.4214 0.52877 0.60984 0.0
C161 C 0.46002 0.47538 0.62097 0.0
N162 N 0.3965 0.49398 0.63076 0.0
C163 C 0.42077 0.4604 0.63758 0.0
C164 C 0.55346 0.50324 0.53111 0.0
O165 O 0.59793 0.56746 0.59773 0.0
O166 O 0.53937 0.53091 0.62503 0.0
O167 O 0.52033 0.50262 0.5529 0.0
O168 O 0.5794 0.53884 0.52619 0.0
O169 O 0.47821 0.57448 0.53469 0.0
H170 H 0.48657 0.45618 0.62169 0.0
H171 H 0.4115 0.56135 0.59985 0.0
O172 O 0.53744 0.61035 0.50728 0.0
O173 O 0.55616 0.63888 0.57948 0.0
O174 O 0.49733 0.60237 0.60692 0.0
C175 C 0.52364 0.63777 0.60231 0.0
H176 H 0.67783 0.71106 0.49129 0.0
H177 H 0.41067 0.42703 0.65297 0.0
Co178 Co 0.04575 0.58422 1.02453 0.0
C179 C 0.96815 0.53009 1.02186 0.0
Co180 Co 1.00648 0.5741 0.08063 0.0
C181 C 0.07123 0.56571 0.94511 0.0
C182 C 0.10483 0.62656 0.96072 0.0
N183 N 0.07633 0.59159 0.97559 0.0
N184 N 0.09476 0.58341 0.9117 0.0
C185 C 0.11634 0.62151 0.92151 0.0
H186 H 0.04975 0.53499 0.94687 0.0
H187 H 0.11514 0.65504 0.97659 0.0
C188 C 0.08362 0.6276 0.08462 0.0
N189 N 0.9766 0.56719 0.12951 0.0
C190 C 0.99349 0.56019 0.16613 0.0
C191 C 0.93562 0.5698 0.13742 0.0
N192 N 0.96498 0.55864 0.19679 0.0
C193 C 0.92839 0.56475 0.17887 0.0
C194 C 0.06249 0.50856 0.07669 0.0
O195 O 0.09012 0.61882 0.04873 0.0
O196 O 0.04867 0.61265 0.10264 0.0
O197 O 0.03533 0.52202 0.09957 0.0
O198 O 0.07081 0.53048 0.04172 0.0
O199 O 0.96443 0.53563 0.05893 0.0
H200 H 0.91274 0.57586 0.11459 0.0
H201 H 0.02664 0.55812 0.17017 0.0
O202 O 1.00063 0.54916 1.00136 0.0
O203 O 0.02075 0.63806 1.00733 0.0
O204 O 0.97783 0.62623 0.06065 0.0
C205 C 0.99028 0.64982 0.02714 0.0
H206 H 0.13708 0.64529 0.9011 0.0
H207 H 0.89868 0.56602 0.19451 0.0
H208 H 0.13792 0.17292 0.2879 0.0
H209 H 0.26277 0.15088 0.3247 0.0
H210 H 0.23537 0.12198 0.39306 0.0
H211 H 0.17526 0.10205 0.44355 0.0
H212 H 0.05091 0.12499 0.40535 0.0
H213 H 0.07881 0.15445 0.33777 0.0
C214 C 0.15941 0.16234 0.31084 0.0
C215 C 0.20265 0.16428 0.30033 0.0
C216 C 0.14339 0.14562 0.35054 0.0
C217 C 0.22936 0.14943 0.33103 0.0
C218 C 0.21367 0.133 0.37052 0.0
C219 C 0.15426 0.1136 0.42051 0.0
C220 C 0.11073 0.11099 0.43027 0.0
C221 C 0.17062 0.1307 0.3808 0.0
C222 C 0.0844 0.12623 0.39943 0.0
C223 C 0.10037 0.14325 0.3604 0.0
H224 H 0.44212 0.9735 0.76379 0.0
H225 H 0.55806 0.91595 0.78497 0.0
H226 H 0.56008 0.94018 0.85258 0.0
H227 H 0.52876 0.97791 0.90597 0.0
H228 H 0.41404 0.03717 0.8832 0.0
H229 H 0.41223 0.01289 0.81578 0.0
C230 C 0.46813 0.96662 0.78293 0.0
C231 C 0.49988 0.94288 0.76908 0.0
C232 C 0.46946 0.98122 0.82156 0.0
C233 C 0.53282 0.93355 0.79489 0.0
C234 C 0.53422 0.94776 0.8335 0.0
C235 C 0.50371 0.98602 0.88604 0.0
C236 C 0.4715 1.00923 0.89977 0.0
C237 C 0.50276 0.97175 0.84715 0.0
C238 C 0.43893 0.01888 0.87367 0.0
C239 C 0.4379 1.00508 0.83503 0.0
H240 H 0.69902 0.49777 0.76968 0.0
H241 H 0.58277 0.43273 0.82735 0.0
H242 H 0.54572 0.45019 0.76454 0.0
H243 H 0.54608 0.48907 0.69506 0.0
H244 H 0.66276 0.55635 0.63872 0.0
H245 H 0.70015 0.53281 0.69915 0.0
C246 C 0.6657 0.48681 0.76806 0.0
C247 C 0.64339 0.46386 0.80243 0.0
C248 C 0.64478 0.49782 0.73235 0.0
C249 C 0.60031 0.45012 0.80077 0.0
C250 C 0.57923 0.46035 0.76505 0.0
C251 C 0.57974 0.49834 0.69589 0.0
C252 C 0.60151 0.52482 0.66254 0.0
C253 C 0.60104 0.48501 0.73092 0.0
C254 C 0.64515 0.53632 0.66405 0.0
C255 C 0.6666 0.52284 0.69858 0.0
H256 H 0.03895 0.55023 0.37022 0.0
H257 H 0.938 0.62922 0.389 0.0
H258 H 0.91334 0.62007 0.32099 0.0
H259 H 0.92428 0.59502 0.25431 0.0
H260 H 0.02576 0.5166 0.23503 0.0
H261 H 0.04647 0.51996 0.30489 0.0
C262 C 1.01121 0.56472 0.35943 0.0
C263 C 0.99005 0.5901 0.38415 0.0
C264 C 0.99761 0.5598 0.32012 0.0
C265 C 0.95443 0.60924 0.37024 0.0
C266 C 0.94047 0.60419 0.33137 0.0
C267 C 0.95037 0.57791 0.2656 0.0
C268 C 0.9737 0.55606 0.23929 0.0
C269 C 0.96228 0.58023 0.30576 0.0
C270 C 1.00776 0.53442 0.2544 0.0
C271 C 1.01955 0.53617 0.29441 0.0
H272 H 0.34442 0.15189 0.22856 0.0
H273 H 0.26723 0.14619 0.1244 0.0
H274 H 0.32268 0.11681 0.08754 0.0
H275 H 0.39483 0.09433 0.08348 0.0
H276 H 0.47204 0.10115 0.18779 0.0
H277 H 0.41577 0.12797 0.22505 0.0
C278 C 0.33949 0.14368 0.198 0.0
C279 C 0.30132 0.15159 0.17953 0.0
C280 C 0.37207 0.12713 0.17644 0.0
C281 C 0.29614 0.141 0.13955 0.0
C282 C 0.32801 0.1241 0.11829 0.0
C283 C 0.39942 0.1017 0.11432 0.0
C284 C 0.43826 0.0956 0.13232 0.0
C285 C 0.36646 0.11745 0.13612 0.0
C286 C 0.44296 0.10539 0.17261 0.0
C287 C 0.41054 0.12079 0.19425 0.0
H288 H 0.38623 1.00564 0.55997 0.0
H289 H 0.38843 0.99717 0.69008 0.0
H290 H 0.31495 0.01226 0.69306 0.0
H291 H 0.25042 0.02654 0.65867 0.0
H292 H 0.24814 0.03706 0.52819 0.0
H293 H 0.32112 0.02137 0.52525 0.0
C294 C 0.37046 1.00749 0.58883 0.0
C295 C 0.39218 1.00083 0.62477 0.0
C296 C 0.32831 0.01597 0.59019 0.0
C297 C 0.37195 1.00268 0.66214 0.0
C298 C 0.33007 0.0111 0.6638 0.0
C299 C 0.26586 0.02601 0.62949 0.0
C300 C 0.24364 0.03328 0.59369 0.0
C301 C 0.30796 0.0177 0.62801 0.0
C302 C 0.26416 0.03119 0.55627 0.0
C303 C 0.30606 0.02256 0.55453 0.0
H304 H 0.8295 0.44566 0.91245 0.0
H305 H 0.76883 0.40003 0.02932 0.0
H306 H 0.831 0.43118 0.06278 0.0
H307 H 0.89979 0.47756 0.05843 0.0
H308 H 0.96007 0.52343 0.94116 0.0
H309 H 0.90083 0.48607 0.90823 0.0
C310 C 0.83013 0.44219 0.94527 0.0
C311 C 0.79457 0.42099 0.96843 0.0
C312 C 0.86568 0.46064 0.96416 0.0
C313 C 0.79591 0.41604 1.01088 0.0
C314 C 0.8313 0.43418 0.02998 0.0
C315 C 0.90013 0.47909 1.02568 0.0
C316 C 0.9341 0.50378 1.0023 0.0
C317 C 0.86592 0.45753 1.00689 0.0
C318 C 0.93426 0.50493 0.95991 0.0
C319 C 0.90035 0.48361 0.94102 0.0
H320 H 0.876 0.61364 0.52454 0.0
H321 H 0.88847 0.73955 0.44628 0.0
H322 H 0.81207 0.73766 0.44546 0.0
H323 H 0.7423 0.70147 0.46851 0.0
H324 H 0.72976 0.57802 0.55088 0.0
H325 H 0.80537 0.57723 0.54774 0.0
C326 C 0.8618 0.64038 0.50712 0.0
C327 C 0.88754 0.67673 0.48565 0.0
C328 C 0.8179 0.6395 0.50742 0.0
C329 C 0.86907 0.71145 0.46333 0.0
C330 C 0.82549 0.71033 0.46279 0.0
C331 C 0.75583 0.67449 0.48612 0.0
C332 C 0.72975 0.64003 0.50998 0.0
C333 C 0.79961 0.67479 0.48512 0.0
C334 C 0.74845 0.60491 0.53181 0.0
C335 C 0.79197 0.60451 0.53031 0.0
H336 H 0.17408 0.3466 0.102 0.0
H337 H 0.11973 0.33177 0.22293 0.0
H338 H 0.07919 0.39547 0.20386 0.0
H339 H 0.05989 0.45658 0.152 0.0
H340 H 0.1164 0.46952 0.03147 0.0
H341 H 0.15497 0.4059 0.05107 0.0
C342 C 0.15323 0.35726 0.12419 0.0
C343 C 0.14983 0.33446 0.16378 0.0
C344 C 0.13031 0.39385 0.11296 0.0
C345 C 0.12284 0.34869 0.19224 0.0
C346 C 0.0997 0.38517 0.18125 0.0
C347 C 0.08052 0.44538 0.12999 0.0
C348 C 0.08492 0.46834 0.09008 0.0
C349 C 0.1032 0.40822 0.1416 0.0
C350 C 0.1121 0.45305 0.06228 0.0
C351 C 0.13434 0.41643 0.07347 0.0
H352 H 0.67522 0.31652 1.01675 0.0
H353 H 0.64723 0.29999 0.89274 0.0
H354 H 0.6041 0.22834 0.9151 0.0
H355 H 0.5767 0.16855 0.97019 0.0
H356 H 0.60747 0.18581 0.09365 0.0
H357 H 0.64721 0.2586 0.07112 0.0
C358 C 0.66005 0.29709 0.9945 0.0
C359 C 0.66489 0.31345 0.9531 0.0
C360 C 0.63569 0.25589 1.00751 0.0
C361 C 0.64398 0.28831 0.92484 0.0
C362 C 0.61943 0.24722 0.9376 0.0
C363 C 0.59179 0.18848 0.99213 0.0
C364 C 0.58913 0.17154 0.03355 0.0
C365 C 0.61528 0.23046 0.9789 0.0
C366 C 0.6091 0.19776 0.06156 0.0
C367 C 0.63192 0.23949 0.04874 0.0
H368 H 0.99513 0.80082 0.45092 0.0
H369 H 0.05637 0.74436 0.55549 0.0
H370 H 0.08326 0.82062 0.5701 0.0
H371 H 0.08136 0.90368 0.55714 0.0
H372 H 1.01622 0.95737 0.45354 0.0
H373 H 0.99919 0.88209 0.43418 0.0
C374 C 1.01497 0.80536 0.47653 0.0
C375 C 0.02356 0.76757 0.50238 0.0
C376 C 0.02926 0.84882 0.48501 0.0
C377 C 0.04949 0.77332 0.53528 0.0
C378 C 0.06455 0.81682 0.5437 0.0
C379 C 0.06421 0.89876 0.52995 0.0
C380 C 0.04958 0.93581 0.50705 0.0
C381 C 0.05354 0.85492 0.51942 0.0
C382 C 0.02726 0.92921 0.47194 0.0
C383 C 1.01751 0.88622 0.4608 0.0
H384 H 0.46485 0.79614 0.69082 0.0
H385 H 0.58682 0.85979 0.64598 0.0
H386 H 0.60167 0.79032 0.61953 0.0
H387 H 0.57759 0.71392 0.60452 0.0
H388 H 0.45437 0.6506 0.6472 0.0
H389 H 0.44222 0.71743 0.6791 0.0
C390 C 0.49498 0.79417 0.67607 0.0
C391 C 0.52504 0.8324 0.67068 0.0
C392 C 0.5027 0.75456 0.66002 0.0
C393 C 0.56363 0.83031 0.65079 0.0
C394 C 0.5719 0.79082 0.63545 0.0
C395 C 0.54811 0.71459 0.62093 0.0
C396 C 0.51679 0.67742 0.62312 0.0
C397 C 0.54129 0.75312 0.63906 0.0
C398 C 0.47894 0.6788 0.64484 0.0
C399 C 0.47197 0.71699 0.66314 0.0
H400 H 0.88651 0.9561 0.75919 0.0
H401 H 1.00157 0.92595 0.81546 0.0
H402 H 0.04144 0.95576 0.75296 0.0
H403 H 0.04456 0.99117 0.68151 0.0
H404 H 0.92943 0.0212 0.62531 0.0
H405 H 0.88959 0.99147 0.68788 0.0
C406 C 0.92032 0.95618 0.75797 0.0
C407 C 0.94053 0.93809 0.79254 0.0
C408 C 0.94349 0.97367 0.72152 0.0
C409 C 0.98457 0.93855 0.7896 0.0
C410 C 1.00766 0.95602 0.75371 0.0
C411 C 1.01077 0.99127 0.68288 0.0
C412 C 0.99039 1.00868 0.64819 0.0
C413 C 0.98759 0.97368 0.71933 0.0
C414 C 0.94637 1.00818 0.65107 0.0
C415 C 0.92335 0.99109 0.68707 0.0
H416 H 0.58011 0.08255 0.40028 0.0
H417 H 0.63095 0.22052 0.36339 0.0
H418 H 0.62575 0.20815 0.29202 0.0
H419 H 0.61606 0.15479 0.24096 0.0
H420 H 0.56423 0.01724 0.27766 0.0
H421 H 0.56022 0.03231 0.34855 0.0
C422 C 0.58862 0.11018 0.37645 0.0
C423 C 0.60572 0.15237 0.38667 0.0
C424 C 0.58626 0.10248 0.33574 0.0
C425 C 0.61719 0.18801 0.35594 0.0
C426 C 0.61476 0.18073 0.31526 0.0
C427 C 0.60357 0.12843 0.26462 0.0
C428 C 0.59127 0.08479 0.25475 0.0
C429 C 0.60095 0.13763 0.30493 0.0
C430 C 0.57416 0.05088 0.28506 0.0
C431 C 0.57192 0.05954 0.32538 0.0
H432 H 0.42994 0.67566 0.33676 0.0
H433 H 0.31157 0.63277 0.40128 0.0
H434 H 0.34806 0.60935 0.46266 0.0
H435 H 0.41359 0.59786 0.49699 0.0
H436 H 0.53247 0.64153 0.43299 0.0
H437 H 0.49608 0.66789 0.37264 0.0
C438 C 0.41241 0.66174 0.36453 0.0
C439 C 0.36839 0.65599 0.365 0.0
C440 C 0.43366 0.64815 0.39964 0.0
C441 C 0.34562 0.63765 0.40069 0.0
C442 C 0.36642 0.62409 0.43564 0.0
C443 C 0.43154 0.61321 0.46987 0.0
C444 C 0.47566 0.61734 0.46946 0.0
C445 C 0.41044 0.6286 0.43532 0.0
C446 C 0.49845 0.63779 0.43415 0.0
C447 C 0.47768 0.65289 0.39956 0.0
H448 H 0.11268 0.53011 0.73541 0.0
H449 H 0.98164 0.48271 0.76001 0.0
H450 H 0.98571 0.50787 0.82745 0.0
H451 H 0.02673 0.54276 0.87923 0.0
H452 H 0.15779 0.5909 0.85514 0.0
H453 H 0.15375 0.56638 0.78745 0.0
C454 C 0.0851 0.52576 0.7556 0.0
C455 C 0.04687 0.50506 0.74323 0.0
C456 C 0.0878 0.54022 0.79425 0.0
C457 C 1.01124 0.49898 0.76924 0.0
C458 C 1.01362 0.51317 0.8077 0.0
C459 C 0.05452 0.54739 0.85936 0.0
C460 C 0.09263 0.56818 0.87225 0.0
C461 C 0.0518 0.53357 0.82059 0.0
C462 C 0.12812 0.57504 0.84577 0.0
C463 C 0.12582 0.56098 0.80717 0.0
H464 H 0.78356 0.96713 0.99927 0.0
H465 H 0.72056 0.92894 0.89339 0.0
H466 H 0.65383 0.94717 0.92101 0.0
H467 H 0.61355 0.9784 0.97416 0.0
H468 H 0.67765 0.01544 0.08031 0.0
H469 H 0.74268 0.99351 0.05401 0.0
C470 C 0.755 0.96179 0.9827 0.0
C471 C 0.75703 0.94582 0.94457 0.0
C472 C 0.71661 0.97287 0.99872 0.0
C473 C 0.71983 0.94027 0.92312 0.0
C474 C 0.68163 0.95115 0.93881 0.0
C475 C 0.64166 0.98146 0.99166 0.0
C476 C 0.64011 0.99893 0.02937 0.0
C477 C 0.67961 0.96821 0.97638 0.0
C478 C 0.67726 1.00226 0.05135 0.0
C479 C 0.71481 0.98967 0.03627 0.0
H480 H 0.74268 0.17134 0.51002 0.0
H481 H 0.68755 0.04924 0.46597 0.0
H482 H 0.75538 0.01973 0.46867 0.0
H483 H 0.83159 0.03185 0.47736 0.0
H484 H 0.88661 0.15322 0.52215 0.0
H485 H 0.81739 0.17963 0.5261 0.0
C486 C 0.74523 0.13777 0.50208 0.0
C487 C 0.71027 0.11274 0.48736 0.0
C488 C 0.78436 0.12117 0.50341 0.0
C489 C 0.7142 0.06945 0.47679 0.0
C490 C 0.75294 0.05258 0.47828 0.0
C491 C 0.82823 0.06397 0.48811 0.0
C492 C 0.86396 0.09093 0.49889 0.0
C493 C 0.78846 0.07875 0.49033 0.0
C494 C 0.85938 0.13201 0.51368 0.0
C495 C 0.81991 0.14713 0.51579 0.0
H496 H 0.2069 0.70271 0.21189 0.0
H497 H 0.29743 0.70279 0.1142 0.0
H498 H 0.24082 0.68037 0.06965 0.0
H499 H 0.16594 0.65414 0.06068 0.0
H500 H 0.07645 0.65352 0.1598 0.0
H501 H 0.13219 0.6828 0.20136 0.0
C502 C 0.21417 0.698 0.18077 0.0
C503 C 0.25622 0.70381 0.16647 0.0
C504 C 0.18164 0.68478 0.15561 0.0
C505 C 0.26523 0.69852 0.12587 0.0
C506 C 0.23291 0.68547 0.10049 0.0
C507 C 0.15858 0.66104 0.09116 0.0
C508 C 0.11706 0.65119 0.10712 0.0
C509 C 0.19102 0.67756 0.11531 0.0
C510 C 0.1081 0.66045 0.1467 0.0
C511 C 0.13999 0.67714 0.17064 0.0
H512 H 0.21101 0.43398 0.69043 0.0
H513 H 0.18767 0.51979 0.58247 0.0
H514 H 0.2632 0.54531 0.57266 0.0
H515 H 0.33633 0.53452 0.59023 0.0
H516 H 0.3583 0.44703 0.69797 0.0
H517 H 0.28298 0.43101 0.7128 0.0
C518 C 0.22258 0.45919 0.66543 0.0
C519 C 0.1944 0.47524 0.63724 0.0
C520 C 0.26576 0.47278 0.6597 0.0
C521 C 0.20918 0.50748 0.60464 0.0
C522 C 0.25226 0.52169 0.59891 0.0
C523 C 0.32456 0.51285 0.6174 0.0
C524 C 0.35274 0.49124 0.64252 0.0
C525 C 0.28098 0.50337 0.62554 0.0
C526 C 0.33712 0.46315 0.67765 0.0
C527 C 0.29409 0.45409 0.68625 0.0
H528 H 0.87394 0.79606 0.95295 0.0
H529 H 0.99416 0.85633 0.89921 0.0
H530 H 0.02817 0.79592 0.93401 0.0
H531 H 0.02488 0.72388 0.97746 0.0
H532 H 0.90767 0.6652 0.03741 0.0
H533 H 0.87217 0.72668 1.0034 0.0
C534 C 0.90761 0.79631 0.94912 0.0
C535 C 0.93073 0.83053 0.92171 0.0
C536 C 0.9279 0.76138 0.97054 0.0
C537 C 0.97465 0.82993 0.91821 0.0
C538 C 0.99454 0.79537 0.93859 0.0
C539 C 0.99158 0.72461 0.9834 0.0
C540 C 0.96908 0.68953 1.00988 0.0
C541 C 0.97153 0.76049 0.96426 0.0
C542 C 0.92598 0.69164 1.01736 0.0
C543 C 0.90558 0.72683 0.99768 0.0
H544 H 0.39621 0.77903 0.13811 0.0
H545 H 0.39464 0.8138 0.26036 0.0
H546 H 0.44506 0.88037 0.23967 0.0
H547 H 0.48396 0.93311 0.1851 0.0
H548 H 0.47955 0.90062 0.06217 0.0
H549 H 0.43685 0.82925 0.08474 0.0
C550 C 0.40673 0.80117 0.16031 0.0
C551 C 0.39109 0.79156 0.20064 0.0
C552 C 0.43452 0.84016 0.14794 0.0
C553 C 0.4062 0.82007 0.22914 0.0
C554 C 0.43481 0.85844 0.21725 0.0
C555 C 0.47419 0.90998 0.16346 0.0
C556 C 0.4848 0.92212 0.12203 0.0
C557 C 0.44843 0.86943 0.17651 0.0
C558 C 0.47158 0.89212 0.09419 0.0
C559 C 0.44713 0.85132 0.10706 0.0
H560 H 0.04297 0.34199 0.58731 0.0
H561 H 0.15459 0.31915 0.65318 0.0
H562 H 0.14838 0.24165 0.63744 0.0
H563 H 0.11222 0.18072 0.60423 0.0
H564 H 0.99961 0.20201 0.53947 0.0
H565 H 1.00493 0.27949 0.55606 0.0
C566 C 0.06567 0.3199 0.59852 0.0
C567 C 0.09948 0.33658 0.62093 0.0
C568 C 0.06177 0.27508 0.58961 0.0
C569 C 0.12878 0.30754 0.63508 0.0
C570 C 0.12513 0.26308 0.62634 0.0
C571 C 0.08877 0.20224 0.59375 0.0
C572 C 0.05573 0.18567 0.57046 0.0
C573 C 0.09197 0.24662 0.60339 0.0
C574 C 0.02545 0.21395 0.5574 0.0
C575 C 0.02847 0.25829 0.56683 0.0
H576 H 0.63296 0.33386 0.48418 0.0
H577 H 0.51055 0.26871 0.52611 0.0
H578 H 0.48651 0.34215 0.53237 0.0
H579 H 0.50328 0.42362 0.53381 0.0
H580 H 0.62672 0.48878 0.49387 0.0
H581 H 0.64729 0.41682 0.47831 0.0
C582 C 0.60075 0.33609 0.49367 0.0
C583 C 0.57331 0.29652 0.50454 0.0
C584 C 0.58758 0.3783 0.49797 0.0
C585 C 0.53187 0.29913 0.51732 0.0
C586 C 0.5183 0.341 0.52115 0.0
C587 C 0.53449 0.42226 0.5211 0.0
C588 C 0.56357 0.46145 0.51551 0.0
C589 C 0.5463 0.38067 0.51277 0.0
C590 C 0.60375 0.45911 0.49868 0.0
C591 C 0.61563 0.41792 0.48991 0.0
loop_
_geom_bond_atom_site_label_1
_geom_bond_atom_site_label_2
_geom_bond_distance
_geom_bond_site_symmetry_2
_ccdc_geom_bond_type
H0 C3 0.929 . S
H1 C6 0.929 . S
H2 C8 0.930 . S
C3 H0 0.929 . S
C3 C4 1.398 . S
C3 C5 1.396 . S
C4 C3 1.398 . S
C4 C8 1.407 . S
C5 C3 1.396 . S
C5 C6 1.394 . S
C6 H1 0.929 . S
C6 C5 1.394 . S
C6 C7 1.382 . S
C7 C6 1.382 . S
C7 C8 1.392 . S
C7 N9 1.420 . S
C8 H2 0.930 . S
C8 C4 1.407 . S
C8 C7 1.392 . S
N9 C7 1.420 . S
N9 C10 1.244 . S
C10 N9 1.244 . S
H11 C14 0.929 . S
H12 C17 0.929 . S
H13 C19 0.930 . S
C14 H11 0.929 . S
C14 C15 1.398 . S
C14 C16 1.396 . S
C15 C14 1.398 . S
C15 C19 1.407 . S
C16 C14 1.396 . S
C16 C17 1.394 . S
C17 H12 0.929 . S
C17 C16 1.394 . S
C17 C18 1.382 . S
C18 C17 1.382 . S
C18 C19 1.392 . S
C18 N20 1.420 . S
C19 H13 0.930 . S
C19 C15 1.407 . S
C19 C18 1.392 . S
N20 C18 1.420 . S
N20 C21 1.244 . S
C21 N20 1.244 . S
H22 C25 0.929 . S
H23 C28 0.929 . S
H24 C30 0.930 . S
C25 H22 0.929 . S
C25 C26 1.398 . S
C25 C27 1.396 . S
C26 C25 1.398 . S
C26 C30 1.407 . S
C27 C25 1.396 . S
C27 C28 1.394 . S
C28 H23 0.929 . S
C28 C27 1.394 . S
C28 C29 1.382 . S
C29 C28 1.382 . S
C29 C30 1.392 . S
C29 N31 1.420 . S
C30 H24 0.930 . S
C30 C26 1.407 . S
C30 C29 1.392 . S
N31 C29 1.420 . S
N31 C32 1.244 . S
C32 N31 1.244 . S
H33 C36 0.929 . S
H34 C39 0.929 . S
H35 C41 0.930 . S
C36 H33 0.929 . S
C36 C37 1.398 . S
C36 C38 1.396 . S
C37 C36 1.398 . S
C37 C41 1.407 . S
C38 C36 1.396 . S
C38 C39 1.394 . S
C39 H34 0.929 . S
C39 C38 1.394 . S
C39 C40 1.382 . S
C40 C39 1.382 . S
C40 C41 1.392 . S
C40 N42 1.420 . S
C41 H35 0.930 . S
C41 C37 1.407 . S
C41 C40 1.392 . S
N42 C40 1.420 . S
N42 C43 1.244 . S
C43 N42 1.244 . S
H44 C47 0.929 . S
H45 C50 0.929 . S
H46 C52 0.930 . S
C47 H44 0.929 . S
C47 C48 1.398 . S
C47 C49 1.396 . S
C48 C47 1.398 . S
C48 C52 1.407 . S
C49 C47 1.396 . S
C49 C50 1.394 . S
C50 H45 0.929 . S
C50 C49 1.394 . S
C50 C51 1.382 . S
C51 C50 1.382 . S
C51 C52 1.392 . S
C51 N53 1.420 . S
C52 H46 0.930 . S
C52 C48 1.407 . S
C52 C51 1.392 . S
N53 C51 1.420 . S
N53 C54 1.244 . S
C54 N53 1.244 . S
H55 C58 0.929 . S
H56 C61 0.929 . S
H57 C63 0.930 . S
C58 H55 0.929 . S
C58 C59 1.398 . S
C58 C60 1.396 . S
C59 C58 1.398 . S
C59 C63 1.407 . S
C60 C58 1.396 . S
C60 C61 1.394 . S
C61 H56 0.929 . S
C61 C60 1.394 . S
C61 C62 1.382 . S
C62 C61 1.382 . S
C62 C63 1.392 . S
C62 N64 1.420 . S
C63 H57 0.930 . S
C63 C59 1.407 . S
C63 C62 1.392 . S
N64 C62 1.420 . S
N64 C65 1.244 . S
C65 N64 1.244 . S
H66 C69 0.929 . S
H67 C72 0.929 . S
H68 C74 0.930 . S
C69 H66 0.929 . S
C69 C70 1.398 . S
C69 C71 1.396 . S
C70 C69 1.398 . S
C70 C74 1.407 . S
C71 C69 1.396 . S
C71 C72 1.394 . S
C72 H67 0.929 . S
C72 C71 1.394 . S
C72 C73 1.382 . S
C73 C72 1.382 . S
C73 C74 1.392 . S
C73 N75 1.420 . S
C74 H68 0.930 . S
C74 C70 1.407 . S
C74 C73 1.392 . S
N75 C73 1.420 . S
N75 C76 1.244 . S
C76 N75 1.244 . S
H77 C80 0.929 . S
H78 C83 0.929 . S
H79 C85 0.930 . S
C80 H77 0.929 . S
C80 C81 1.398 . S
C80 C82 1.396 . S
C81 C80 1.398 . S
C81 C85 1.407 . S
C82 C80 1.396 . S
C82 C83 1.394 . S
C83 H78 0.929 . S
C83 C82 1.394 . S
C83 C84 1.382 . S
C84 C83 1.382 . S
C84 C85 1.392 . S
C84 N86 1.420 . S
C85 H79 0.930 . S
C85 C81 1.407 . S
C85 C84 1.392 . S
N86 C84 1.420 . S
N86 C87 1.244 . S
C87 N86 1.244 . S
Co88 N93 2.057 . S
Co88 O105 2.021 . S
Co88 O108 2.062 . S
Co88 O112 2.117 1_545 S
Co88 O113 2.020 . S
C89 O109 1.259 1_655 S
C89 O112 1.258 . S
Co90 N99 2.057 . S
Co90 O106 2.117 . S
Co90 O107 2.020 . S
Co90 O109 2.021 1_545 S
Co90 O114 2.062 . S
C91 N93 1.316 . S
C91 N94 1.347 . S
C91 H96 0.931 . S
C92 N93 1.375 . S
C92 C95 1.350 . S
C92 H97 0.930 1_545 S
N93 Co88 2.057 . S
N93 C91 1.316 . S
N93 C92 1.375 . S
N94 C91 1.347 . S
N94 C95 1.373 . S
C95 C92 1.350 . S
C95 N94 1.373 . S
C95 H116 0.931 . S
H96 C91 0.931 . S
H97 C92 0.930 1_565 S
C98 O105 1.259 1_455 S
C98 O106 1.258 . S
N99 Co90 2.057 . S
N99 C100 1.316 1_545 S
N99 C101 1.375 . S
C100 N99 1.316 1_565 S
C100 N102 1.347 . S
C100 H111 0.931 . S
C101 N99 1.375 . S
C101 C103 1.350 . S
C101 H110 0.930 . S
N102 C100 1.347 . S
N102 C103 1.373 1_565 S
C103 C101 1.350 . S
C103 N102 1.373 1_545 S
C103 H117 0.931 . S
C104 O107 1.256 . S
C104 O108 1.255 1_455 S
O105 Co88 2.021 . S
O105 C98 1.259 1_655 S
O106 Co90 2.117 . S
O106 C98 1.258 . S
O107 Co90 2.020 . S
O107 C104 1.256 . S
O108 Co88 2.062 . S
O108 C104 1.255 1_655 S
O109 C89 1.259 1_455 S
O109 Co90 2.021 1_565 S
H110 C101 0.930 . S
H111 C100 0.931 . S
O112 Co88 2.117 1_565 S
O112 C89 1.258 . S
O113 Co88 2.020 . S
O113 C115 1.256 . S
O114 Co90 2.062 . S
O114 C115 1.255 1_455 S
C115 O113 1.256 . S
C115 O114 1.255 1_655 S
H116 C95 0.931 . S
H117 C103 0.931 . S
Co118 N123 2.057 1_544 S
Co118 O135 2.021 1_554 S
Co118 O138 2.062 . S
Co118 O142 2.117 1_545 S
Co118 O143 2.020 . S
C119 O139 1.259 . S
C119 O142 1.258 . S
Co120 N129 2.057 . S
Co120 O136 2.117 . S
Co120 O137 2.020 . S
Co120 O139 2.021 1_545 S
Co120 O144 2.062 . S
C121 N123 1.316 1_545 S
C121 N124 1.347 1_545 S
C121 H126 0.931 . S
C122 N123 1.375 . S
C122 C125 1.350 . S
C122 H127 0.930 . S
N123 Co118 2.057 1_566 S
N123 C121 1.316 1_565 S
N123 C122 1.375 . S
N124 C121 1.347 1_565 S
N124 C125 1.373 . S
C125 C122 1.350 . S
C125 N124 1.373 . S
C125 H146 0.931 . S
H126 C121 0.931 . S
H127 C122 0.930 . S
C128 O135 1.259 1_554 S
C128 O136 1.258 . S
N129 Co120 2.057 . S
N129 C130 1.316 . S
N129 C131 1.375 . S
C130 N129 1.316 . S
C130 N132 1.347 . S
C130 H141 0.931 . S
C131 N129 1.375 . S
C131 C133 1.350 . S
C131 H140 0.930 . S
N132 C130 1.347 . S
N132 C133 1.373 . S
C133 C131 1.350 . S
C133 N132 1.373 . S
C133 H147 0.931 . S
C134 O137 1.256 . S
C134 O138 1.255 . S
O135 Co118 2.021 1_556 S
O135 C128 1.259 1_556 S
O136 Co120 2.117 . S
O136 C128 1.258 . S
O137 Co120 2.020 . S
O137 C134 1.256 . S
O138 Co118 2.062 . S
O138 C134 1.255 . S
O139 C119 1.259 . S
O139 Co120 2.021 1_565 S
H140 C131 0.930 . S
H141 C130 0.931 . S
O142 Co118 2.117 1_565 S
O142 C119 1.258 . S
O143 Co118 2.020 . S
O143 C145 1.256 . S
O144 Co120 2.062 . S
O144 C145 1.255 . S
C145 O143 1.256 . S
C145 O144 1.255 . S
H146 C125 0.931 . S
H147 C133 0.931 . S
Co148 N153 2.057 . S
Co148 O165 2.021 . S
Co148 O168 2.062 . S
Co148 O172 2.117 . S
Co148 O173 2.020 . S
C149 O169 1.259 . S
C149 O172 1.258 . S
Co150 N159 2.057 . S
Co150 O166 2.117 . S
Co150 O167 2.020 . S
Co150 O169 2.021 . S
Co150 O174 2.062 . S
C151 N153 1.316 . S
C151 N154 1.347 . S
C151 H156 0.931 . S
C152 N153 1.375 . S
C152 C155 1.350 . S
C152 H157 0.930 . S
N153 Co148 2.057 . S
N153 C151 1.316 . S
N153 C152 1.375 . S
N154 C151 1.347 . S
N154 C155 1.373 . S
C155 C152 1.350 . S
C155 N154 1.373 . S
C155 H176 0.931 . S
H156 C151 0.931 . S
H157 C152 0.930 . S
C158 O165 1.259 . S
C158 O166 1.258 . S
N159 Co150 2.057 . S
N159 C160 1.316 . S
N159 C161 1.375 . S
C160 N159 1.316 . S
C160 N162 1.347 . S
C160 H171 0.931 . S
C161 N159 1.375 . S
C161 C163 1.350 . S
C161 H170 0.930 . S
N162 C160 1.347 . S
N162 C163 1.373 . S
C163 C161 1.350 . S
C163 N162 1.373 . S
C163 H177 0.931 . S
C164 O167 1.256 . S
C164 O168 1.255 . S
O165 Co148 2.021 . S
O165 C158 1.259 . S
O166 Co150 2.117 . S
O166 C158 1.258 . S
O167 Co150 2.020 . S
O167 C164 1.256 . S
O168 Co148 2.062 . S
O168 C164 1.255 . S
O169 C149 1.259 . S
O169 Co150 2.021 . S
H170 C161 0.930 . S
H171 C160 0.931 . S
O172 Co148 2.117 . S
O172 C149 1.258 . S
O173 Co148 2.020 . S
O173 C175 1.256 . S
O174 Co150 2.062 . S
O174 C175 1.255 . S
C175 O173 1.256 . S
C175 O174 1.255 . S
H176 C155 0.931 . S
H177 C163 0.931 . S
Co178 N183 2.057 . S
Co178 O195 2.021 1_556 S
Co178 O198 2.062 1_556 S
Co178 O202 2.117 1_455 S
Co178 O203 2.020 . S
C179 O199 1.259 . S
C179 O202 1.258 1_554 S
Co180 N189 2.057 . S
Co180 O196 2.117 . S
Co180 O197 2.020 . S
Co180 O199 2.021 1_455 S
Co180 O204 2.062 . S
C181 N183 1.316 . S
C181 N184 1.347 . S
C181 H186 0.931 . S
C182 N183 1.375 . S
C182 C185 1.350 . S
C182 H187 0.930 1_455 S
N183 Co178 2.057 . S
N183 C181 1.316 . S
N183 C182 1.375 . S
N184 C181 1.347 . S
N184 C185 1.373 . S
C185 C182 1.350 . S
C185 N184 1.373 . S
C185 H206 0.931 . S
H186 C181 0.931 . S
H187 C182 0.930 1_655 S
C188 O195 1.259 . S
C188 O196 1.258 . S
N189 Co180 2.057 . S
N189 C190 1.316 1_455 S
N189 C191 1.375 . S
C190 N189 1.316 1_655 S
C190 N192 1.347 . S
C190 H201 0.931 . S
C191 N189 1.375 . S
C191 C193 1.350 . S
C191 H200 0.930 . S
N192 C190 1.347 . S
N192 C193 1.373 1_655 S
C193 C191 1.350 . S
C193 N192 1.373 1_455 S
C193 H207 0.931 . S
C194 O197 1.256 . S
C194 O198 1.255 . S
O195 Co178 2.021 1_554 S
O195 C188 1.259 . S
O196 Co180 2.117 . S
O196 C188 1.258 . S
O197 Co180 2.020 . S
O197 C194 1.256 . S
O198 Co178 2.062 1_554 S
O198 C194 1.255 . S
O199 C179 1.259 . S
O199 Co180 2.021 1_655 S
H200 C191 0.930 . S
H201 C190 0.931 . S
O202 Co178 2.117 1_655 S
O202 C179 1.258 1_556 S
O203 Co178 2.020 . S
O203 C205 1.234 1_556 S
O204 Co180 2.062 . S
O204 C205 1.282 . S
C205 O203 1.234 1_554 S
C205 O204 1.282 . S
H206 C185 0.931 . S
H207 C193 0.931 . S
H208 C214 0.930 . S
H209 C217 0.930 . S
H210 C218 0.930 . S
H211 C219 0.930 . S
H212 C222 0.930 . S
H213 C223 0.930 . S
C214 H208 0.930 . S
C214 C215 1.355 . S
C214 C216 1.415 . S
C215 C214 1.355 . S
C215 C217 1.419 . S
C216 C214 1.415 . S
C216 C221 1.425 . S
C216 C223 1.409 . S
C217 H209 0.930 . S
C217 C215 1.419 . S
C217 C218 1.362 . S
C218 H210 0.930 . S
C218 C217 1.362 . S
C218 C221 1.409 . S
C219 H211 0.930 . S
C219 C220 1.355 . S
C219 C221 1.415 . S
C220 C219 1.355 . S
C220 C222 1.419 . S
C221 C216 1.425 . S
C221 C218 1.409 . S
C221 C219 1.415 . S
C222 H212 0.930 . S
C222 C220 1.419 . S
C222 C223 1.362 . S
C223 H213 0.930 . S
C223 C216 1.409 . S
C223 C222 1.362 . S
H224 C230 0.930 . S
H225 C233 0.930 . S
H226 C234 0.930 1_545 S
H227 C235 0.930 1_545 S
H228 C238 0.930 . S
H229 C239 0.930 . S
C230 H224 0.930 . S
C230 C231 1.355 . S
C230 C232 1.415 . S
C231 C230 1.355 . S
C231 C233 1.419 . S
C232 C230 1.415 . S
C232 C237 1.425 . S
C232 C239 1.409 . S
C233 H225 0.930 . S
C233 C231 1.419 . S
C233 C234 1.362 . S
C234 H226 0.930 1_565 S
C234 C233 1.362 . S
C234 C237 1.409 . S
C235 H227 0.930 1_565 S
C235 C236 1.355 . S
C235 C237 1.415 . S
C236 C235 1.355 . S
C236 C238 1.419 . S
C237 C232 1.425 . S
C237 C234 1.409 . S
C237 C235 1.415 . S
C238 H228 0.930 . S
C238 C236 1.419 . S
C238 C239 1.362 . S
C239 H229 0.930 . S
C239 C232 1.409 . S
C239 C238 1.362 . S
H240 C246 0.930 . S
H241 C249 0.930 . S
H242 C250 0.930 . S
H243 C251 0.930 . S
H244 C254 0.930 . S
H245 C255 0.930 . S
C246 H240 0.930 . S
C246 C247 1.355 . S
C246 C248 1.415 . S
C247 C246 1.355 . S
C247 C249 1.419 . S
C248 C246 1.415 . S
C248 C253 1.425 . S
C248 C255 1.409 . S
C249 H241 0.930 . S
C249 C247 1.419 . S
C249 C250 1.362 . S
C250 H242 0.930 . S
C250 C249 1.362 . S
C250 C253 1.409 . S
C251 H243 0.930 . S
C251 C252 1.355 . S
C251 C253 1.415 . S
C252 C251 1.355 . S
C252 C254 1.419 . S
C253 C248 1.425 . S
C253 C250 1.409 . S
C253 C251 1.415 . S
C254 H244 0.930 . S
C254 C252 1.419 . S
C254 C255 1.362 . S
C255 H245 0.930 . S
C255 C248 1.409 . S
C255 C254 1.362 . S
H256 C262 0.930 1_455 S
H257 C265 0.930 . S
H258 C266 0.930 . S
H259 C267 0.930 . S
H260 C270 0.930 . S
H261 C271 0.930 . S
C262 H256 0.930 1_655 S
C262 C263 1.355 . S
C262 C264 1.415 . S
C263 C262 1.355 . S
C263 C265 1.419 . S
C264 C262 1.415 . S
C264 C269 1.425 . S
C264 C271 1.409 1_655 S
C265 H257 0.930 . S
C265 C263 1.419 . S
C265 C266 1.362 . S
C266 H258 0.930 . S
C266 C265 1.362 . S
C266 C269 1.409 . S
C267 H259 0.930 . S
C267 C268 1.355 . S
C267 C269 1.415 . S
C268 C267 1.355 . S
C268 C270 1.419 1_655 S
C269 C264 1.425 . S
C269 C266 1.409 . S
C269 C267 1.415 . S
C270 H260 0.930 . S
C270 C268 1.419 1_455 S
C270 C271 1.362 . S
C271 H261 0.930 . S
C271 C264 1.409 1_455 S
C271 C270 1.362 . S
H272 C278 0.930 . S
H273 C281 0.930 . S
H274 C282 0.930 . S
H275 C283 0.930 . S
H276 C286 0.930 . S
H277 C287 0.930 . S
C278 H272 0.930 . S
C278 C279 1.355 . S
C278 C280 1.415 . S
C279 C278 1.355 . S
C279 C281 1.419 . S
C280 C278 1.415 . S
C280 C285 1.425 . S
C280 C287 1.409 . S
C281 H273 0.930 . S
C281 C279 1.419 . S
C281 C282 1.362 . S
C282 H274 0.930 . S
C282 C281 1.362 . S
C282 C285 1.409 . S
C283 H275 0.930 . S
C283 C284 1.355 . S
C283 C285 1.415 . S
C284 C283 1.355 . S
C284 C286 1.419 . S
C285 C280 1.425 . S
C285 C282 1.409 . S
C285 C283 1.415 . S
C286 H276 0.930 . S
C286 C284 1.419 . S
C286 C287 1.362 . S
C287 H277 0.930 . S
C287 C280 1.409 . S
C287 C286 1.362 . S
H288 C294 0.930 1_545 S
H289 C297 0.930 . S
H290 C298 0.930 . S
H291 C299 0.930 . S
H292 C302 0.930 . S
H293 C303 0.930 . S
C294 H288 0.930 1_565 S
C294 C295 1.355 . S
C294 C296 1.415 . S
C295 C294 1.355 . S
C295 C297 1.419 . S
C296 C294 1.415 . S
C296 C301 1.425 . S
C296 C303 1.409 1_565 S
C297 H289 0.930 . S
C297 C295 1.419 . S
C297 C298 1.362 . S
C298 H290 0.930 . S
C298 C297 1.362 . S
C298 C301 1.409 . S
C299 H291 0.930 . S
C299 C300 1.355 . S
C299 C301 1.415 . S
C300 C299 1.355 . S
C300 C302 1.419 1_565 S
C301 C296 1.425 . S
C301 C298 1.409 . S
C301 C299 1.415 . S
C302 H292 0.930 . S
C302 C300 1.419 1_545 S
C302 C303 1.362 . S
C303 H293 0.930 . S
C303 C296 1.409 1_545 S
C303 C302 1.362 . S
H304 C310 0.930 . S
H305 C313 0.930 . S
H306 C314 0.933 . S
H307 C315 0.930 1_554 S
H308 C318 0.930 . S
H309 C319 0.930 . S
C310 H304 0.930 . S
C310 C311 1.355 . S
C310 C312 1.415 . S
C311 C310 1.355 . S
C311 C313 1.419 . S
C312 C310 1.415 . S
C312 C317 1.425 . S
C312 C319 1.409 . S
C313 H305 0.930 . S
C313 C311 1.419 . S
C313 C314 1.362 . S
C314 H306 0.933 . S
C314 C313 1.362 . S
C314 C317 1.409 . S
C315 H307 0.930 1_556 S
C315 C316 1.355 . S
C315 C317 1.415 . S
C316 C315 1.355 . S
C316 C318 1.419 . S
C317 C312 1.425 . S
C317 C314 1.409 . S
C317 C315 1.415 . S
C318 H308 0.930 . S
C318 C316 1.419 . S
C318 C319 1.362 . S
C319 H309 0.930 . S
C319 C312 1.409 . S
C319 C318 1.362 . S
H320 C326 0.930 . S
H321 C329 0.930 . S
H322 C330 0.930 . S
H323 C331 0.930 . S
H324 C334 0.930 . S
H325 C335 0.930 . S
C326 H320 0.930 . S
C326 C327 1.355 . S
C326 C328 1.415 . S
C327 C326 1.355 . S
C327 C329 1.419 . S
C328 C326 1.415 . S
C328 C333 1.425 . S
C328 C335 1.409 . S
C329 H321 0.930 . S
C329 C327 1.419 . S
C329 C330 1.362 . S
C330 H322 0.930 . S
C330 C329 1.362 . S
C330 C333 1.409 . S
C331 H323 0.930 . S
C331 C332 1.355 . S
C331 C333 1.415 . S
C332 C331 1.355 . S
C332 C334 1.419 . S
C333 C328 1.425 . S
C333 C330 1.409 . S
C333 C331 1.415 . S
C334 H324 0.930 . S
C334 C332 1.419 . S
C334 C335 1.362 . S
C335 H325 0.930 . S
C335 C328 1.409 . S
C335 C334 1.362 . S
H336 C342 0.930 . S
H337 C345 0.930 . S
H338 C346 0.930 . S
H339 C347 0.930 . S
H340 C350 0.930 . S
H341 C351 0.930 . S
C342 H336 0.930 . S
C342 C343 1.355 . S
C342 C344 1.415 . S
C343 C342 1.355 . S
C343 C345 1.419 . S
C344 C342 1.415 . S
C344 C349 1.425 . S
C344 C351 1.409 . S
C345 H337 0.930 . S
C345 C343 1.419 . S
C345 C346 1.362 . S
C346 H338 0.930 . S
C346 C345 1.362 . S
C346 C349 1.409 . S
C347 H339 0.930 . S
C347 C348 1.355 . S
C347 C349 1.415 . S
C348 C347 1.355 . S
C348 C350 1.419 . S
C349 C344 1.425 . S
C349 C346 1.409 . S
C349 C347 1.415 . S
C350 H340 0.930 . S
C350 C348 1.419 . S
C350 C351 1.362 . S
C351 H341 0.930 . S
C351 C344 1.409 . S
C351 C350 1.362 . S
H352 C358 0.914 1_554 S
H353 C361 0.930 . S
H354 C362 0.930 . S
H355 C363 0.930 . S
H356 C366 0.930 . S
H357 C367 0.930 . S
C358 H352 0.914 1_556 S
C358 C359 1.371 . S
C358 C360 1.414 1_556 S
C359 C358 1.371 . S
C359 C361 1.419 . S
C360 C358 1.414 1_554 S
C360 C365 1.425 1_554 S
C360 C367 1.409 . S
C361 H353 0.930 . S
C361 C359 1.419 . S
C361 C362 1.362 . S
C362 H354 0.930 . S
C362 C361 1.362 . S
C362 C365 1.409 . S
C363 H355 0.930 . S
C363 C364 1.355 1_556 S
C363 C365 1.415 . S
C364 C363 1.355 1_554 S
C364 C366 1.419 . S
C365 C360 1.425 1_556 S
C365 C362 1.409 . S
C365 C363 1.415 . S
C366 H356 0.930 . S
C366 C364 1.419 . S
C366 C367 1.362 . S
C367 H357 0.930 . S
C367 C360 1.409 . S
C367 C366 1.362 . S
H368 C374 0.930 . S
H369 C377 0.930 . S
H370 C378 0.930 . S
H371 C379 0.930 . S
H372 C382 0.930 1_455 S
H373 C383 0.930 . S
C374 H368 0.930 . S
C374 C375 1.355 . S
C374 C376 1.415 . S
C375 C374 1.355 . S
C375 C377 1.419 . S
C376 C374 1.415 . S
C376 C381 1.425 . S
C376 C383 1.409 . S
C377 H369 0.930 . S
C377 C375 1.419 . S
C377 C378 1.362 . S
C378 H370 0.930 . S
C378 C377 1.362 . S
C378 C381 1.409 . S
C379 H371 0.930 . S
C379 C380 1.355 . S
C379 C381 1.415 . S
C380 C379 1.355 . S
C380 C382 1.419 . S
C381 C376 1.425 . S
C381 C378 1.409 . S
C381 C379 1.415 . S
C382 H372 0.930 1_655 S
C382 C380 1.419 . S
C382 C383 1.362 . S
C383 H373 0.930 . S
C383 C376 1.409 . S
C383 C382 1.362 . S
H384 C390 0.930 . S
H385 C393 0.930 . S
H386 C394 0.930 . S
H387 C395 0.930 . S
H388 C398 0.930 . S
H389 C399 0.930 . S
C390 H384 0.930 . S
C390 C391 1.355 . S
C390 C392 1.415 . S
C391 C390 1.355 . S
C391 C393 1.419 . S
C392 C390 1.415 . S
C392 C397 1.425 . S
C392 C399 1.409 . S
C393 H385 0.930 . S
C393 C391 1.419 . S
C393 C394 1.362 . S
C394 H386 0.930 . S
C394 C393 1.362 . S
C394 C397 1.409 . S
C395 H387 0.930 . S
C395 C396 1.355 . S
C395 C397 1.415 . S
C396 C395 1.355 . S
C396 C398 1.419 . S
C397 C392 1.425 . S
C397 C394 1.409 . S
C397 C395 1.415 . S
C398 H388 0.930 . S
C398 C396 1.419 . S
C398 C399 1.362 . S
C399 H389 0.930 . S
C399 C392 1.409 . S
C399 C398 1.362 . S
H400 C406 0.930 . S
H401 C409 0.930 1_455 S
H402 C410 0.930 . S
H403 C411 0.935 . S
H404 C414 0.930 . S
H405 C415 0.930 . S
C406 H400 0.930 . S
C406 C407 1.355 . S
C406 C408 1.415 . S
C407 C406 1.355 . S
C407 C409 1.419 . S
C408 C406 1.415 . S
C408 C413 1.425 . S
C408 C415 1.409 . S
C409 H401 0.930 1_655 S
C409 C407 1.419 . S
C409 C410 1.362 1_655 S
C410 H402 0.930 . S
C410 C409 1.362 1_455 S
C410 C413 1.409 1_455 S
C411 H403 0.935 . S
C411 C412 1.351 1_455 S
C411 C413 1.413 1_455 S
C412 C411 1.351 1_655 S
C412 C414 1.419 . S
C413 C408 1.425 . S
C413 C410 1.409 1_655 S
C413 C411 1.413 1_655 S
C414 H404 0.930 . S
C414 C412 1.419 . S
C414 C415 1.362 . S
C415 H405 0.930 . S
C415 C408 1.409 . S
C415 C414 1.362 . S
H416 C422 0.930 . S
H417 C425 0.930 . S
H418 C426 0.930 . S
H419 C427 0.930 . S
H420 C430 0.930 . S
H421 C431 0.930 . S
C422 H416 0.930 . S
C422 C423 1.355 . S
C422 C424 1.415 . S
C423 C422 1.355 . S
C423 C425 1.419 . S
C424 C422 1.415 . S
C424 C429 1.425 . S
C424 C431 1.409 . S
C425 H417 0.930 . S
C425 C423 1.419 . S
C425 C426 1.362 . S
C426 H418 0.930 . S
C426 C425 1.362 . S
C426 C429 1.409 . S
C427 H419 0.930 . S
C427 C428 1.355 . S
C427 C429 1.415 . S
C428 C427 1.355 . S
C428 C430 1.419 . S
C429 C424 1.425 . S
C429 C426 1.409 . S
C429 C427 1.415 . S
C430 H420 0.930 . S
C430 C428 1.419 . S
C430 C431 1.362 . S
C431 H421 0.930 . S
C431 C424 1.409 . S
C431 C430 1.362 . S
H432 C438 0.930 . S
H433 C441 0.930 . S
H434 C442 0.930 . S
H435 C443 0.930 . S
H436 C446 0.930 . S
H437 C447 0.930 . S
C438 H432 0.930 . S
C438 C439 1.355 . S
C438 C440 1.415 . S
C439 C438 1.355 . S
C439 C441 1.419 . S
C440 C438 1.415 . S
C440 C445 1.425 . S
C440 C447 1.409 . S
C441 H433 0.930 . S
C441 C439 1.419 . S
C441 C442 1.362 . S
C442 H434 0.930 . S
C442 C441 1.362 . S
C442 C445 1.409 . S
C443 H435 0.930 . S
C443 C444 1.355 . S
C443 C445 1.415 . S
C444 C443 1.355 . S
C444 C446 1.419 . S
C445 C440 1.425 . S
C445 C442 1.409 . S
C445 C443 1.415 . S
C446 H436 0.930 . S
C446 C444 1.419 . S
C446 C447 1.362 . S
C447 H437 0.930 . S
C447 C440 1.409 . S
C447 C446 1.362 . S
H448 C454 0.930 . S
H449 C457 0.930 . S
H450 C458 0.930 . S
H451 C459 0.930 . S
H452 C462 0.930 . S
H453 C463 0.930 . S
C454 H448 0.930 . S
C454 C455 1.355 . S
C454 C456 1.415 . S
C455 C454 1.355 . S
C455 C457 1.419 . S
C456 C454 1.415 . S
C456 C461 1.425 . S
C456 C463 1.409 . S
C457 H449 0.930 . S
C457 C455 1.419 . S
C457 C458 1.362 . S
C458 H450 0.930 . S
C458 C457 1.362 . S
C458 C461 1.409 . S
C459 H451 0.930 . S
C459 C460 1.355 . S
C459 C461 1.415 . S
C460 C459 1.355 . S
C460 C462 1.419 . S
C461 C456 1.425 . S
C461 C458 1.409 . S
C461 C459 1.415 . S
C462 H452 0.930 . S
C462 C460 1.419 . S
C462 C463 1.362 . S
C463 H453 0.930 . S
C463 C456 1.409 . S
C463 C462 1.362 . S
H464 C470 0.930 1_554 S
H465 C473 0.930 . S
H466 C474 0.930 . S
H467 C475 0.930 . S
H468 C478 0.930 . S
H469 C479 0.930 . S
C470 H464 0.930 1_556 S
C470 C471 1.355 . S
C470 C472 1.415 1_556 S
C471 C470 1.355 . S
C471 C473 1.419 1_565 S
C472 C470 1.415 1_554 S
C472 C477 1.425 1_564 S
C472 C479 1.409 . S
C473 H465 0.930 . S
C473 C471 1.419 1_545 S
C473 C474 1.362 . S
C474 H466 0.930 . S
C474 C473 1.362 . S
C474 C477 1.409 . S
C475 H467 0.930 . S
C475 C476 1.355 1_556 S
C475 C477 1.415 . S
C476 C475 1.355 1_554 S
C476 C478 1.419 1_545 S
C477 C472 1.425 1_546 S
C477 C474 1.409 . S
C477 C475 1.415 . S
C478 H468 0.930 . S
C478 C476 1.419 1_565 S
C478 C479 1.362 . S
C479 H469 0.930 . S
C479 C472 1.409 . S
C479 C478 1.362 . S
H480 C486 0.930 . S
H481 C489 0.930 . S
H482 C490 0.930 . S
H483 C491 0.930 . S
H484 C494 0.930 . S
H485 C495 0.930 . S
C486 H480 0.930 . S
C486 C487 1.355 . S
C486 C488 1.415 . S
C487 C486 1.355 . S
C487 C489 1.419 . S
C488 C486 1.415 . S
C488 C493 1.425 . S
C488 C495 1.409 . S
C489 H481 0.930 . S
C489 C487 1.419 . S
C489 C490 1.362 . S
C490 H482 0.930 . S
C490 C489 1.362 . S
C490 C493 1.409 . S
C491 H483 0.930 . S
C491 C492 1.355 . S
C491 C493 1.415 . S
C492 C491 1.355 . S
C492 C494 1.419 . S
C493 C488 1.425 . S
C493 C490 1.409 . S
C493 C491 1.415 . S
C494 H484 0.930 . S
C494 C492 1.419 . S
C494 C495 1.362 . S
C495 H485 0.930 . S
C495 C488 1.409 . S
C495 C494 1.362 . S
H496 C502 0.930 . S
H497 C505 0.930 . S
H498 C506 0.930 . S
H499 C507 0.930 . S
H500 C510 0.930 . S
H501 C511 0.930 . S
C502 H496 0.930 . S
C502 C503 1.355 . S
C502 C504 1.415 . S
C503 C502 1.355 . S
C503 C505 1.419 . S
C504 C502 1.415 . S
C504 C509 1.425 . S
C504 C511 1.409 . S
C505 H497 0.930 . S
C505 C503 1.419 . S
C505 C506 1.362 . S
C506 H498 0.930 . S
C506 C505 1.362 . S
C506 C509 1.409 . S
C507 H499 0.930 . S
C507 C508 1.355 . S
C507 C509 1.415 . S
C508 C507 1.355 . S
C508 C510 1.419 . S
C509 C504 1.425 . S
C509 C506 1.409 . S
C509 C507 1.415 . S
C510 H500 0.930 . S
C510 C508 1.419 . S
C510 C511 1.362 . S
C511 H501 0.930 . S
C511 C504 1.409 . S
C511 C510 1.362 . S
H512 C518 0.930 . S
H513 C521 0.930 . S
H514 C522 0.930 . S
H515 C523 0.930 . S
H516 C526 0.930 . S
H517 C527 0.930 . S
C518 H512 0.930 . S
C518 C519 1.355 . S
C518 C520 1.415 . S
C519 C518 1.355 . S
C519 C521 1.419 . S
C520 C518 1.415 . S
C520 C525 1.425 . S
C520 C527 1.409 . S
C521 H513 0.930 . S
C521 C519 1.419 . S
C521 C522 1.362 . S
C522 H514 0.930 . S
C522 C521 1.362 . S
C522 C525 1.409 . S
C523 H515 0.930 . S
C523 C524 1.355 . S
C523 C525 1.415 . S
C524 C523 1.355 . S
C524 C526 1.419 . S
C525 C520 1.425 . S
C525 C522 1.409 . S
C525 C523 1.415 . S
C526 H516 0.930 . S
C526 C524 1.419 . S
C526 C527 1.362 . S
C527 H517 0.930 . S
C527 C520 1.409 . S
C527 C526 1.362 . S
H528 C534 0.930 . S
H529 C537 0.930 1_455 S
H530 C538 0.930 . S
H531 C539 0.930 . S
H532 C542 0.930 . S
H533 C543 0.930 . S
C534 H528 0.930 . S
C534 C535 1.355 . S
C534 C536 1.415 . S
C535 C534 1.355 . S
C535 C537 1.419 . S
C536 C534 1.415 . S
C536 C541 1.425 . S
C536 C543 1.409 . S
C537 H529 0.930 1_655 S
C537 C535 1.419 . S
C537 C538 1.362 1_655 S
C538 H530 0.930 . S
C538 C537 1.362 1_455 S
C538 C541 1.409 1_455 S
C539 H531 0.930 . S
C539 C540 1.355 1_455 S
C539 C541 1.415 1_455 S
C540 C539 1.355 1_655 S
C540 C542 1.419 . S
C541 C536 1.425 . S
C541 C538 1.409 1_655 S
C541 C539 1.415 1_655 S
C542 H532 0.930 . S
C542 C540 1.419 . S
C542 C543 1.362 . S
C543 H533 0.930 . S
C543 C536 1.409 . S
C543 C542 1.362 . S
H544 C550 0.930 . S
H545 C553 0.930 . S
H546 C554 0.930 . S
H547 C555 0.930 . S
H548 C558 0.930 . S
H549 C559 0.930 . S
C550 H544 0.930 . S
C550 C551 1.355 . S
C550 C552 1.415 . S
C551 C550 1.355 . S
C551 C553 1.419 . S
C552 C550 1.415 . S
C552 C557 1.425 . S
C552 C559 1.409 . S
C553 H545 0.930 . S
C553 C551 1.419 . S
C553 C554 1.362 . S
C554 H546 0.930 . S
C554 C553 1.362 . S
C554 C557 1.409 . S
C555 H547 0.930 . S
C555 C556 1.355 . S
C555 C557 1.415 . S
C556 C555 1.355 . S
C556 C558 1.419 . S
C557 C552 1.425 . S
C557 C554 1.409 . S
C557 C555 1.415 . S
C558 H548 0.930 . S
C558 C556 1.419 . S
C558 C559 1.362 . S
C559 H549 0.930 . S
C559 C552 1.409 . S
C559 C558 1.362 . S
H560 C566 0.930 . S
H561 C569 0.930 . S
H562 C570 0.930 . S
H563 C571 0.930 . S
H564 C574 0.930 . S
H565 C575 0.930 . S
C566 H560 0.930 . S
C566 C567 1.355 . S
C566 C568 1.415 . S
C567 C566 1.355 . S
C567 C569 1.419 . S
C568 C566 1.415 . S
C568 C573 1.425 . S
C568 C575 1.409 . S
C569 H561 0.930 . S
C569 C567 1.419 . S
C569 C570 1.362 . S
C570 H562 0.930 . S
C570 C569 1.362 . S
C570 C573 1.409 . S
C571 H563 0.930 . S
C571 C572 1.355 . S
C571 C573 1.415 . S
C572 C571 1.355 . S
C572 C574 1.419 . S
C573 C568 1.425 . S
C573 C570 1.409 . S
C573 C571 1.415 . S
C574 H564 0.930 . S
C574 C572 1.419 . S
C574 C575 1.362 . S
C575 H565 0.930 . S
C575 C568 1.409 . S
C575 C574 1.362 . S
H576 C582 0.930 . S
H577 C585 0.930 . S
H578 C586 0.930 . S
H579 C587 0.930 . S
H580 C590 0.930 . S
H581 C591 0.930 . S
C582 H576 0.930 . S
C582 C583 1.355 . S
C582 C584 1.415 . S
C583 C582 1.355 . S
C583 C585 1.419 . S
C584 C582 1.415 . S
C584 C589 1.425 . S
C584 C591 1.409 . S
C585 H577 0.930 . S
C585 C583 1.419 . S
C585 C586 1.362 . S
C586 H578 0.930 . S
C586 C585 1.362 . S
C586 C589 1.409 . S
C587 H579 0.930 . S
C587 C588 1.355 . S
C587 C589 1.415 . S
C588 C587 1.355 . S
C588 C590 1.419 . S
C589 C584 1.425 . S
C589 C586 1.409 . S
C589 C587 1.415 . S
C590 H580 0.930 . S
C590 C588 1.419 . S
C590 C591 1.362 . S
C591 H581 0.930 . S
C591 C584 1.409 . S
C591 C590 1.362 . S
C215 C4 2.277 . S
C220 C104 2.293 . S
C231 C16 1.392 . S
C236 N124 1.341 . S
C252 C158 1.614 . S
C247 C32 1.624 . S
C263 C43 1.131 . S
C268 N192 1.048 . S
C284 C145 2.694 . S
C279 C5 2.686 . S
C300 N102 0.896 . S
C295 C21 0.932 . S
C316 C179 1.858 1_556 S
C311 C27 1.852 . S
C332 N154 0.987 . S
C327 C37 0.939 . S
C343 C10 1.792 . S
C348 C194 1.806 . S
C364 C128 1.761 . S
C359 C26 1.722 . S
C375 C38 1.152 . S
C380 C89 1.161 . S
C391 C15 1.582 . S
C396 C175 1.586 . S
C412 C115 2.402 1_565 S
C407 C48 2.401 . S
C423 C59 1.163 . S
C428 N132 1.189 . S
C439 C76 1.894 . S
C444 C149 1.896 . S
C455 C87 1.048 . S
C460 N184 1.011 . S
C471 C54 2.102 . S
C476 C134 2.123 . S
C492 N94 1.455 . S
C487 C60 1.435 . S
C508 C188 1.894 . S
C503 C71 1.874 . S
C524 N162 0.959 . S
C519 C82 0.983 . S
C535 C49 2.032 . S
C540 C205 2.018 1_656 S
C556 C119 1.444 . S
C551 C70 1.426 . S
C572 C98 1.467 . S
C567 C81 1.445 . S
C583 C65 1.419 . S
C588 C164 1.419 . S
