# Generated by pormake.
# Topology pts, (4,4)-cn, num edge types: 1
# Building blocks:
#     Node 0, Type 0, BuildingBlock: NAHDIM_clean_linker_0, # of connection points: 4
#     Node 1, Type 0, BuildingBlock: NAHDIM_clean_linker_0, # of connection points: 4
#     Node 2, Type 1, BuildingBlock: UXUYUI_clean_sbu_0, # of connection points: 4
#     Node 3, Type 1, BuildingBlock: UXUYUI_clean_sbu_0, # of connection points: 4
#     Edge 4, Type (0, 1), BuildingBlock: EZIPEK_clean_linker_0, # of connection points: 2
#     Edge 5, Type (0, 1), BuildingBlock: EZIPEK_clean_linker_0, # of connection points: 2
#     Edge 6, Type (0, 1), BuildingBlock: EZIPEK_clean_linker_0, # of connection points: 2
#     Edge 7, Type (0, 1), BuildingBlock: EZIPEK_clean_linker_0, # of connection points: 2
#     Edge 8, Type (0, 1), BuildingBlock: EZIPEK_clean_linker_0, # of connection points: 2
#     Edge 9, Type (0, 1), BuildingBlock: EZIPEK_clean_linker_0, # of connection points: 2
#     Edge 10, Type (0, 1), BuildingBlock: EZIPEK_clean_linker_0, # of connection points: 2
#     Edge 11, Type (0, 1), BuildingBlock: EZIPEK_clean_linker_0, # of connection points: 2
# Relax obj value: 0.022
# Max RMSD: 0.066
# Mean RMSD: 0.065
data_MOF--net-pts--node1-UXUYUI_clean_sbu_0--node2-NAHDIM_clean_linker_0--edge1-EZIPEK_clean_linker_0
_symmetry_space_group_name_H-M    P1
_symmetry_Int_Tables_number       1
_symmetry_cell_setting            triclinic
loop_
_symmetry_equiv_pos_as_xyz
'x, y, z'
_cell_length_a     31.82803
_cell_length_b     31.861237
_cell_length_c     51.823148
_cell_angle_alpha  90.513176
_cell_angle_beta   89.514276
_cell_angle_gamma 89.991978
loop_
_atom_site_label
_atom_site_type_symbol
_atom_site_fract_x
_atom_site_fract_y
_atom_site_fract_z
_atom_type_partial_charge
C0 C 0.70567 0.11711 0.15669 0.0
C1 C 0.71964 0.07587 0.14356 0.0
C2 C 0.67732 0.06214 0.10605 0.0
C3 C 0.67658 0.02138 0.09596 0.0
C4 C 0.64061 0.00582 0.08367 0.0
C5 C 0.60511 0.03219 0.08099 0.0
C6 C 0.60601 0.07363 0.09106 0.0
C7 C 0.6423 0.08818 0.10349 0.0
C8 C 0.64068 0.96141 0.0733 0.0
C9 C 0.56887 0.10262 0.08835 0.0
C10 C 0.36886 0.87248 0.17607 0.0
C11 C 0.3717 0.91219 0.15966 0.0
C12 C 0.40877 0.92174 0.11877 0.0
C13 C 0.40878 0.96557 0.11685 0.0
C14 C 0.43764 0.98599 0.10059 0.0
C15 C 0.46713 0.96192 0.08616 0.0
C16 C 0.46677 0.91758 0.08795 0.0
C17 C 0.43695 0.89807 0.10389 0.0
C18 C 0.4366 0.0332 0.09878 0.0
C19 C 0.49819 0.89076 0.07332 0.0
C20 C 0.38449 0.92466 0.92212 0.0
C21 C 0.38336 0.96737 0.92882 0.0
C22 C 0.41772 0.98657 0.94099 0.0
C23 C 0.45384 0.96243 0.94649 0.0
C24 C 0.45551 0.91965 0.93895 0.0
C25 C 0.42088 0.90147 0.92657 0.0
C26 C 0.41545 0.03254 0.94806 0.0
C27 C 0.49364 0.89304 0.94426 0.0
C28 C 0.76248 0.0786 0.92576 0.0
C29 C 0.74681 0.04475 0.90682 0.0
C30 C 0.67056 0.04141 0.91355 0.0
C31 C 0.6366 0.06921 0.91422 0.0
C32 C 0.60004 0.06007 0.92846 0.0
C33 C 0.59714 0.0216 0.94177 0.0
C34 C 0.63062 0.99241 0.94011 0.0
C35 C 0.66706 0.00273 0.92616 0.0
C36 C 0.56485 0.09175 0.92968 0.0
C37 C 0.62804 0.95031 0.95321 0.0
C38 C 0.56748 0.01675 0.06708 0.0
C39 C 0.5347 0.99936 0.08156 0.0
C40 C 0.49898 0.98294 0.06962 0.0
C41 C 0.49547 0.98425 0.04244 0.0
C42 C 0.45971 0.96868 0.02979 0.0
C43 C 0.45749 0.9682 0.00297 0.0
C44 C 0.49087 0.98346 0.98776 0.0
C45 C 0.48968 0.98159 0.96047 0.0
C46 C 0.52409 0.99568 0.94599 0.0
C47 C 0.55976 0.01202 0.95802 0.0
C48 C 0.56089 0.01551 0.98523 0.0
C49 C 0.5957 0.03311 0.99789 0.0
C50 C 0.59758 0.03431 0.02469 0.0
C51 C 0.56488 0.01766 0.03986 0.0
C52 C 0.52886 0.00108 0.02751 0.0
C53 C 0.52668 0.00039 0.00015 0.0
C54 C 0.2891 0.86816 0.92262 0.0
C55 C 0.30935 0.91078 0.91677 0.0
O56 O 0.71262 0.07692 0.11725 0.0
O57 O 0.70551 0.05248 0.89997 0.0
O58 O 0.35152 0.90503 0.91082 0.0
O59 O 0.38143 0.90126 0.13439 0.0
H60 H 0.69895 0.05205 0.15271 0.0
H61 H 0.67086 0.11952 0.15637 0.0
H62 H 0.71845 0.14524 0.14699 0.0
H63 H 0.71555 0.11761 0.1772 0.0
H64 H 0.70428 0.00187 0.09767 0.0
H65 H 0.64364 0.11999 0.11098 0.0
H66 H 0.61275 0.94424 0.08065 0.0
H67 H 0.66945 0.94395 0.07874 0.0
H68 H 0.63869 0.96189 0.05193 0.0
H69 H 0.57493 0.13428 0.09667 0.0
H70 H 0.54107 0.0889 0.09823 0.0
H71 H 0.56095 0.10592 0.06764 0.0
H72 H 0.39905 0.92879 0.16792 0.0
H73 H 0.36288 0.88107 0.19661 0.0
H74 H 0.39906 0.85503 0.17491 0.0
H75 H 0.3435 0.85112 0.16957 0.0
H76 H 0.38577 0.98373 0.1276 0.0
H77 H 0.43622 0.86416 0.10536 0.0
H78 H 0.43554 0.04276 0.07823 0.0
H79 H 0.46575 0.04643 0.10718 0.0
H80 H 0.40917 0.04702 0.10918 0.0
H81 H 0.4971 0.85741 0.07937 0.0
H82 H 0.53052 0.9029 0.07623 0.0
H83 H 0.49149 0.89206 0.05236 0.0
H84 H 0.30689 0.92706 0.93555 0.0
H85 H 0.35603 0.98582 0.92415 0.0
H86 H 0.42164 0.86867 0.92085 0.0
H87 H 0.41672 0.03624 0.96936 0.0
H88 H 0.38622 0.04756 0.94106 0.0
H89 H 0.44297 0.04931 0.93981 0.0
H90 H 0.48907 0.85973 0.9384 0.0
H91 H 0.5011 0.8943 0.96515 0.0
H92 H 0.52116 0.90571 0.93359 0.0
H93 H 0.74939 0.01559 0.91815 0.0
H94 H 0.79635 0.07379 0.92984 0.0
H95 H 0.74483 0.0762 0.94428 0.0
H96 H 0.75798 0.11085 0.91851 0.0
H97 H 0.63928 0.09868 0.90405 0.0
H98 H 0.6922 0.98001 0.92489 0.0
H99 H 0.55736 0.09966 0.95013 0.0
H100 H 0.53614 0.07797 0.92102 0.0
H101 H 0.5728 0.12109 0.9193 0.0
H102 H 0.65393 0.92895 0.94708 0.0
H103 H 0.59756 0.93488 0.94894 0.0
H104 H 0.62981 0.9549 0.97442 0.0
H105 H 0.53742 0.99784 0.10239 0.0
H106 H 0.43319 0.95629 0.0405 0.0
H107 H 0.42942 0.95528 0.99432 0.0
H108 H 0.52359 0.99275 0.92512 0.0
H109 H 0.62204 0.04592 0.98721 0.0
H110 H 0.62531 0.04794 0.03334 0.0
H111 H 0.25538 0.87246 0.92776 0.0
H112 H 0.30504 0.85355 0.93929 0.0
H113 H 0.29141 0.846 0.90607 0.0
C114 C 0.11534 0.28402 0.60378 0.0
C115 C 0.09045 0.30415 0.62631 0.0
C116 C 0.05258 0.36263 0.60573 0.0
C117 C 0.01311 0.37538 0.59723 0.0
C118 C 0.00777 0.41351 0.58437 0.0
C119 C 0.04296 0.43965 0.58003 0.0
C120 C 0.08301 0.42731 0.58884 0.0
C121 C 0.08751 0.38884 0.60154 0.0
C122 C 0.96462 0.42575 0.57523 0.0
C123 C 0.12108 0.45475 0.58467 0.0
C124 C 0.91021 0.72859 0.63174 0.0
C125 C 0.95823 0.72325 0.63194 0.0
C126 C 0.98179 0.65385 0.61954 0.0
C127 C 0.02426 0.64336 0.61742 0.0
C128 C 0.03777 0.61198 0.6001 0.0
C129 C 0.00778 0.59013 0.58509 0.0
C130 C 0.96467 0.60076 0.58727 0.0
C131 C 0.95218 0.63277 0.60447 0.0
C132 C 0.08394 0.60157 0.59821 0.0
C133 C 0.93172 0.57751 0.57201 0.0
C134 C 0.03745 0.6798 0.41595 0.0
C135 C 0.07414 0.66963 0.4291 0.0
C136 C 0.07661 0.63325 0.44405 0.0
C137 C 0.04106 0.60687 0.44628 0.0
C138 C 0.00321 0.61786 0.43391 0.0
C139 C 0.00174 0.65426 0.41887 0.0
C140 C 0.11749 0.62247 0.45696 0.0
C141 C 0.96453 0.59074 0.43629 0.0
C142 C 0.10098 0.28388 0.42051 0.0
C143 C 0.07489 0.30711 0.4003 0.0
C144 C 0.08157 0.38175 0.41092 0.0
C145 C 0.11426 0.40931 0.4169 0.0
C146 C 0.10708 0.44523 0.43218 0.0
C147 C 0.06588 0.45422 0.44108 0.0
C148 C 0.03232 0.42735 0.43417 0.0
C149 C 0.04055 0.39126 0.41926 0.0
C150 C 0.14354 0.47332 0.43906 0.0
C151 C 0.98773 0.43681 0.44253 0.0
C152 C 0.03788 0.47978 0.56609 0.0
C153 C 0.02664 0.51542 0.58041 0.0
C154 C 0.02108 0.55421 0.56853 0.0
C155 C 0.02727 0.55785 0.54158 0.0
C156 C 0.02277 0.59654 0.52904 0.0
C157 C 0.02837 0.59958 0.50244 0.0
C158 C 0.03867 0.56404 0.48738 0.0
C159 C 0.04421 0.56665 0.46034 0.0
C160 C 0.05334 0.53047 0.4459 0.0
C161 C 0.05778 0.49154 0.45774 0.0
C162 C 0.05354 0.48845 0.48484 0.0
C163 C 0.05898 0.44996 0.49745 0.0
C164 C 0.05403 0.44705 0.52406 0.0
C165 C 0.04345 0.48253 0.53908 0.0
C166 C 0.03816 0.52174 0.5268 0.0
C167 C 0.04352 0.52476 0.49966 0.0
C168 C 0.01511 0.68954 0.3586 0.0
C169 C 0.01194 0.72312 0.38019 0.0
O170 O 0.05508 0.32493 0.61771 0.0
O171 O 0.09052 0.34717 0.39639 0.0
O172 O 0.03821 0.71418 0.40061 0.0
O173 O 0.9693 0.68235 0.63747 0.0
H174 H 0.11279 0.32676 0.63498 0.0
H175 H 0.12917 0.30877 0.5914 0.0
H176 H 0.09569 0.26386 0.59126 0.0
H177 H 0.1416 0.26487 0.61136 0.0
H178 H 0.98635 0.35503 0.60058 0.0
H179 H 0.11835 0.37971 0.60801 0.0
H180 H 0.95501 0.45582 0.58452 0.0
H181 H 0.94058 0.40154 0.57969 0.0
H182 H 0.96538 0.4308 0.55405 0.0
H183 H 0.14984 0.44143 0.59342 0.0
H184 H 0.1153 0.4864 0.59311 0.0
H185 H 0.12673 0.45873 0.56366 0.0
H186 H 0.96762 0.73107 0.61183 0.0
H187 H 0.89468 0.7154 0.64906 0.0
H188 H 0.89697 0.71227 0.61463 0.0
H189 H 0.9019 0.76236 0.63035 0.0
H190 H 0.04671 0.65969 0.6295 0.0
H191 H 0.91924 0.64056 0.60674 0.0
H192 H 0.08942 0.56988 0.60625 0.0
H193 H 0.10362 0.62453 0.60894 0.0
H194 H 0.09423 0.60085 0.57768 0.0
H195 H 0.89939 0.58846 0.57672 0.0
H196 H 0.93377 0.54335 0.57592 0.0
H197 H 0.93753 0.58187 0.55106 0.0
H198 H 0.97876 0.72162 0.38665 0.0
H199 H 0.10137 0.68977 0.42696 0.0
H200 H 0.97272 0.66233 0.40942 0.0
H201 H 0.11255 0.62069 0.47815 0.0
H202 H 0.14249 0.64592 0.45296 0.0
H203 H 0.1285 0.59114 0.45019 0.0
H204 H 0.93657 0.60534 0.42734 0.0
H205 H 0.95747 0.58467 0.45695 0.0
H206 H 0.97045 0.55994 0.42674 0.0
H207 H 0.04334 0.30847 0.4094 0.0
H208 H 0.08878 0.25148 0.423 0.0
H209 H 0.09834 0.30048 0.4394 0.0
H210 H 0.13475 0.28203 0.41537 0.0
H211 H 0.14568 0.40204 0.40998 0.0
H212 H 0.01469 0.3712 0.41377 0.0
H213 H 0.14501 0.47761 0.46032 0.0
H214 H 0.13883 0.50475 0.43048 0.0
H215 H 0.17406 0.4605 0.43203 0.0
H216 H 0.96469 0.41522 0.43341 0.0
H217 H 0.97943 0.4696 0.43756 0.0
H218 H 0.98493 0.43384 0.46379 0.0
H219 H 0.02188 0.51288 0.6011 0.0
H220 H 0.01482 0.62489 0.53968 0.0
H221 H 0.02434 0.63011 0.49379 0.0
H222 H 0.05695 0.53263 0.42511 0.0
H223 H 0.06712 0.42159 0.48689 0.0
H224 H 0.05845 0.41657 0.53268 0.0
H225 H 0.04804 0.68166 0.35346 0.0
H226 H 0.99875 0.70046 0.34103 0.0
H227 H 0.99962 0.66005 0.36476 0.0
Li228 Li 0.0536 0.06371 0.26568 0.0
Li229 Li 0.03997 0.98898 0.26536 0.0
Li230 Li 0.08549 0.0184 0.23187 0.0
Li231 Li 0.01 0.02922 0.23141 0.0
C232 C 0.13388 0.03337 0.275 0.0
N233 N 0.21359 0.06386 0.28443 0.0
C234 C 0.16125 0.01114 0.29078 0.0
C235 C 0.14706 0.0711 0.26398 0.0
C236 C 0.20142 0.02709 0.29534 0.0
C237 C 0.18747 0.08598 0.26899 0.0
C238 C 0.97474 0.0185 0.28844 0.0
C239 C 0.9193 0.97253 0.30288 0.0
N240 N 0.9292 0.98162 0.32779 0.0
C241 C 0.98416 0.02765 0.31417 0.0
C242 C 0.94188 0.99095 0.28271 0.0
C243 C 0.96083 0.0086 0.3338 0.0
C244 C 0.0456 0.14946 0.27884 0.0
N245 N 0.05992 0.11175 0.28712 0.0
C246 C 0.0806 0.14192 0.32741 0.0
C247 C 0.07729 0.10736 0.31083 0.0
C248 C 0.06599 0.18113 0.31936 0.0
C249 C 0.04866 0.18496 0.29471 0.0
H250 H 0.03128 0.15178 0.26006 0.0
H251 H 0.08797 0.07684 0.31699 0.0
C252 C 0.01275 0.90762 0.28091 0.0
N253 N 0.03392 0.94284 0.28809 0.0
C254 C 0.00965 0.87376 0.29773 0.0
C255 C 0.05022 0.91309 0.32895 0.0
C256 C 0.05245 0.94622 0.31156 0.0
C257 C 0.02877 0.87641 0.32193 0.0
H258 H 0.99862 0.90564 0.26209 0.0
H259 H 0.06914 0.97462 0.31669 0.0
C260 C 0.06405 0.09211 0.20491 0.0
N261 N 0.08364 0.13133 0.15901 0.0
C262 C 0.06242 0.0698 0.18164 0.0
C263 C 0.07619 0.13427 0.2049 0.0
C264 C 0.07226 0.09019 0.15862 0.0
C265 C 0.08583 0.15358 0.18148 0.0
C266 C 0.02285 0.95402 0.20819 0.0
C267 C 0.04468 0.94814 0.18491 0.0
C268 C 0.98216 0.93803 0.2109 0.0
C269 C 0.0252 0.9268 0.1646 0.0
C270 C 0.96376 0.91691 0.19013 0.0
N271 N 0.98547 0.9118 0.1676 0.0
C272 C 0.14938 0.96691 0.21467 0.0
C273 C 0.15902 0.03692 0.20059 0.0
C274 C 0.18737 0.95479 0.20331 0.0
N275 N 0.13596 0.00728 0.2131 0.0
C276 C 0.19712 0.02604 0.18868 0.0
C277 C 0.21174 0.9846 0.19029 0.0
H278 H 0.13068 0.94425 0.22512 0.0
H279 H 0.14845 0.06912 0.20028 0.0
C280 C 0.92665 0.05357 0.22365 0.0
N281 N 0.96079 0.03782 0.21088 0.0
C282 C 0.88875 0.05933 0.21079 0.0
C283 C 0.92191 0.03359 0.17161 0.0
C284 C 0.95921 0.0284 0.18522 0.0
C285 C 0.88623 0.04894 0.18455 0.0
H286 H 0.92872 0.06137 0.24394 0.0
H287 H 0.9865 0.01609 0.17529 0.0
O288 O 0.09471 0.01767 0.27007 0.0
O289 O 0.99826 0.03558 0.26897 0.0
O290 O 0.05538 0.07254 0.22773 0.0
O291 O 0.04148 0.97482 0.2283 0.0
H292 H 0.15155 0.98179 0.29936 0.0
H293 H 0.12645 0.08869 0.25162 0.0
H294 H 0.22295 0.0102 0.30751 0.0
H295 H 0.19809 0.1151 0.26057 0.0
H296 H 0.89398 0.95092 0.29873 0.0
H297 H 0.00956 0.04878 0.31894 0.0
H298 H 0.93411 0.98358 0.26291 0.0
H299 H 0.96799 0.01514 0.3538 0.0
H300 H 0.09401 0.1381 0.34639 0.0
H301 H 0.03699 0.21489 0.28807 0.0
H302 H 0.9931 0.84561 0.29183 0.0
H303 H 0.06539 0.9158 0.34752 0.0
H304 H 0.05469 0.03685 0.18144 0.0
H305 H 0.07849 0.15184 0.22279 0.0
H306 H 0.07119 0.07321 0.14046 0.0
H307 H 0.09524 0.1862 0.18119 0.0
H308 H 0.07622 0.96013 0.18244 0.0
H309 H 0.96466 0.94251 0.22866 0.0
H310 H 0.04166 0.92223 0.14645 0.0
H311 H 0.93215 0.90474 0.19189 0.0
H312 H 0.19793 0.92259 0.20491 0.0
H313 H 0.21544 0.04974 0.17883 0.0
H314 H 0.86162 0.07141 0.22121 0.0
H315 H 0.92075 0.02538 0.1513 0.0
Li316 Li 0.00415 0.02051 0.7821 0.0
Li317 Li 0.08446 0.00474 0.78369 0.0
Li318 Li 0.05258 0.05026 0.75123 0.0
Li319 Li 0.04133 0.97861 0.74879 0.0
C320 C 0.06422 0.09899 0.79282 0.0
N321 N 0.08825 0.18192 0.79771 0.0
C322 C 0.10572 0.11069 0.78762 0.0
C323 C 0.03501 0.1293 0.80075 0.0
C324 C 0.11722 0.15284 0.79012 0.0
C325 C 0.04777 0.17111 0.80306 0.0
C326 C 0.02494 0.92506 0.78713 0.0
C327 C 0.04375 0.85254 0.7932 0.0
N328 N 0.00394 0.84096 0.78697 0.0
C329 C 0.98415 0.91251 0.78096 0.0
C330 C 0.05499 0.89493 0.79343 0.0
C331 C 0.97418 0.86981 0.78092 0.0
C332 C 0.91748 0.01467 0.79214 0.0
N333 N 0.95488 0.02643 0.80243 0.0
C334 C 0.92154 0.04498 0.84239 0.0
C335 C 0.95764 0.0414 0.827 0.0
C336 C 0.88262 0.03307 0.83219 0.0
C337 C 0.88061 0.01795 0.80677 0.0
H338 H 0.91638 0.00265 0.77257 0.0
H339 H 0.98791 0.05027 0.83466 0.0
C340 C 0.16934 0.00509 0.8004 0.0
N341 N 0.12916 0.99453 0.80672 0.0
C342 C 0.2022 0.99545 0.81705 0.0
C343 C 0.15145 0.96557 0.84668 0.0
C344 C 0.11964 0.97563 0.82944 0.0
C345 C 0.19322 0.97514 0.84035 0.0
H346 H 0.17588 0.02029 0.78222 0.0
H347 H 0.08734 0.96784 0.83396 0.0
C348 C 0.97914 0.04759 0.7272 0.0
N349 N 0.94164 0.10042 0.69219 0.0
C350 C 0.99134 0.04645 0.70123 0.0
C351 C 0.94751 0.0753 0.73531 0.0
C352 C 0.9721 0.07348 0.68385 0.0
C353 C 0.92903 0.10184 0.71732 0.0
C354 C 0.11792 0.98214 0.72929 0.0
C355 C 0.10954 0.98455 0.70291 0.0
C356 C 0.1478 0.95352 0.73801 0.0
C357 C 0.13074 0.95781 0.68571 0.0
C358 C 0.16844 0.92741 0.72018 0.0
N359 N 0.1595 0.93003 0.69463 0.0
C360 C 0.0939 0.10183 0.71452 0.0
C361 C 0.03448 0.13315 0.7348 0.0
C362 C 0.09871 0.13649 0.69845 0.0
N363 N 0.06163 0.10044 0.73187 0.0
C364 C 0.03789 0.1682 0.71903 0.0
C365 C 0.0699 0.16965 0.70037 0.0
H366 H 0.11539 0.07569 0.7128 0.0
H367 H 0.0094 0.13157 0.74891 0.0
C368 C 0.99912 0.93094 0.7109 0.0
N369 N 0.03278 0.93049 0.7269 0.0
C370 C 0.98999 0.89604 0.69549 0.0
C371 C 0.05013 0.86061 0.71338 0.0
C372 C 0.05815 0.89621 0.7284 0.0
C373 C 0.01561 0.86044 0.69682 0.0
H374 H 0.9788 0.95804 0.71047 0.0
H375 H 0.08408 0.89608 0.74168 0.0
O376 O 0.05217 0.05807 0.78995 0.0
O377 O 0.03553 0.96663 0.78674 0.0
O378 O 0.99778 0.0215 0.74456 0.0
O379 O 0.09723 0.00786 0.74645 0.0
H380 H 0.12861 0.08755 0.78138 0.0
H381 H 0.00273 0.12067 0.80479 0.0
H382 H 0.14914 0.16244 0.78596 0.0
H383 H 0.02547 0.19499 0.80903 0.0
H384 H 0.06674 0.82883 0.79786 0.0
H385 H 0.96064 0.93545 0.7759 0.0
H386 H 0.08678 0.90414 0.79808 0.0
H387 H 0.94283 0.85959 0.77598 0.0
H388 H 0.92389 0.05664 0.86202 0.0
H389 H 0.85093 0.0084 0.79849 0.0
H390 H 0.23424 0.00321 0.81175 0.0
H391 H 0.14371 0.94991 0.86457 0.0
H392 H 0.01547 0.025 0.69457 0.0
H393 H 0.93788 0.07694 0.75535 0.0
H394 H 0.98139 0.07304 0.66372 0.0
H395 H 0.9048 0.12369 0.72337 0.0
H396 H 0.08679 0.00669 0.69579 0.0
H397 H 0.15445 0.95087 0.75834 0.0
H398 H 0.12432 0.95915 0.66527 0.0
H399 H 0.19139 0.9049 0.72669 0.0
H400 H 0.12383 0.13698 0.68422 0.0
H401 H 0.0153 0.19349 0.72095 0.0
H402 H 0.96284 0.89647 0.68302 0.0
H403 H 0.07015 0.83327 0.71494 0.0
C404 C 0.29199 0.92223 0.1515 0.0
C405 C 0.33068 0.93769 0.16188 0.0
C406 C 0.2908 0.98671 0.18953 0.0
C407 C 0.25279 0.97197 0.17879 0.0
N408 N 0.21807 0.9358 0.14407 0.0
N409 N 0.36479 0.99753 0.18235 0.0
C410 C 0.25374 0.94308 0.15792 0.0
C411 C 0.32953 0.97402 0.1782 0.0
N412 N 0.29085 0.88673 0.1365 0.0
N413 N 0.29027 0.01143 0.21122 0.0
H414 H 0.39312 0.99269 0.17262 0.0
H415 H 0.36421 0.02584 0.19258 0.0
H416 H 0.26265 0.02116 0.22043 0.0
H417 H 0.31739 0.01899 0.2214 0.0
H418 H 0.26295 0.8715 0.13176 0.0
H419 H 0.31714 0.87028 0.13009 0.0
H420 H 0.21778 0.91847 0.12693 0.0
H421 H 0.18961 0.95076 0.14826 0.0
C422 C 0.05577 0.23421 0.63956 0.0
C423 C 0.07737 0.27173 0.64661 0.0
C424 C 0.08817 0.24425 0.69017 0.0
C425 C 0.07168 0.20507 0.68205 0.0
N426 N 0.03997 0.16153 0.64928 0.0
N427 N 0.09268 0.31875 0.68215 0.0
C428 C 0.05521 0.19981 0.65687 0.0
C429 C 0.08739 0.27872 0.67301 0.0
N430 N 0.03299 0.2326 0.61732 0.0
N431 N 0.10606 0.24815 0.71397 0.0
H432 H 0.08701 0.34518 0.67097 0.0
H433 H 0.0966 0.32603 0.7016 0.0
H434 H 0.10683 0.22373 0.72724 0.0
H435 H 0.12316 0.27442 0.71974 0.0
H436 H 0.01325 0.20783 0.61237 0.0
H437 H 0.02958 0.25804 0.60508 0.0
H438 H 0.03302 0.1538 0.63023 0.0
H439 H 0.03669 0.13626 0.66178 0.0
C440 C 0.79817 0.09578 0.14468 0.0
C441 C 0.76594 0.06548 0.14876 0.0
C442 C 0.81617 0.02045 0.17129 0.0
C443 C 0.84592 0.05355 0.17072 0.0
N444 N 0.86582 0.12327 0.15781 0.0
N445 N 0.7516 0.99164 0.15428 0.0
C446 C 0.8373 0.09117 0.15738 0.0
C447 C 0.77703 0.0255 0.15866 0.0
N448 N 0.79249 0.12733 0.12737 0.0
N449 N 0.82479 0.98473 0.18471 0.0
H450 H 0.72498 0.99305 0.14276 0.0
H451 H 0.75956 0.961 0.15903 0.0
H452 H 0.8538 0.97907 0.19324 0.0
H453 H 0.80244 0.96184 0.18883 0.0
H454 H 0.81619 0.14792 0.12176 0.0
H455 H 0.76572 0.12996 0.11611 0.0
H456 H 0.85918 0.15345 0.15145 0.0
H457 H 0.89535 0.12066 0.16624 0.0
C458 C 0.01343 0.7791 0.64262 0.0
C459 C 0.9796 0.75332 0.65107 0.0
C460 C 0.97627 0.79284 0.69196 0.0
C461 C 0.0052 0.82225 0.68169 0.0
N462 N 0.05085 0.84501 0.64723 0.0
N463 N 0.94506 0.72385 0.68852 0.0
C464 C 0.02403 0.8156 0.65712 0.0
C465 C 0.96569 0.7566 0.67721 0.0
N466 N 0.03747 0.76695 0.62187 0.0
N467 N 0.95773 0.80037 0.71546 0.0
H468 H 0.93976 0.69534 0.67917 0.0
H469 H 0.9377 0.72274 0.70811 0.0
H470 H 0.966 0.82557 0.72737 0.0
H471 H 0.93223 0.78335 0.72248 0.0
H472 H 0.06467 0.78251 0.61608 0.0
H473 H 0.03375 0.73809 0.61254 0.0
H474 H 0.06138 0.84472 0.62816 0.0
H475 H 0.06036 0.87152 0.6576 0.0
C476 C 0.28274 0.91322 0.86996 0.0
C477 C 0.28588 0.93309 0.89481 0.0
C478 C 0.23601 0.9872 0.88005 0.0
C479 C 0.22748 0.96259 0.85792 0.0
N480 N 0.2395 0.9001 0.83251 0.0
N481 N 0.26421 0.99147 0.9229 0.0
C482 C 0.2502 0.92528 0.85295 0.0
C483 C 0.26252 0.971 0.89961 0.0
N484 N 0.31081 0.88307 0.86216 0.0
N485 N 0.21948 0.02675 0.8821 0.0
H486 H 0.28699 0.98696 0.9368 0.0
H487 H 0.24185 0.01353 0.92877 0.0
H488 H 0.19957 0.03937 0.86828 0.0
H489 H 0.22851 0.04847 0.89613 0.0
H490 H 0.31273 0.87204 0.84319 0.0
H491 H 0.33482 0.87137 0.87344 0.0
H492 H 0.25097 0.86971 0.82995 0.0
H493 H 0.2165 0.90812 0.81921 0.0
C494 C 0.03308 0.26936 0.36528 0.0
C495 C 0.07281 0.28271 0.37463 0.0
C496 C 0.10719 0.23717 0.34219 0.0
C497 C 0.068 0.21793 0.33705 0.0
N498 N 0.99334 0.21346 0.34522 0.0
N499 N 0.14784 0.28781 0.36482 0.0
C500 C 0.03076 0.23364 0.34882 0.0
C501 C 0.10975 0.26945 0.36104 0.0
N502 N 0.99785 0.29237 0.37074 0.0
N503 N 0.14256 0.22464 0.32909 0.0
H504 H 0.15301 0.3137 0.37681 0.0
H505 H 0.15301 0.3137 0.37681 0.0
H506 H 0.14221 0.20188 0.31449 0.0
H507 H 0.17209 0.23763 0.33262 0.0
H508 H 0.96862 0.28584 0.36275 0.0
H509 H 0.99906 0.32149 0.38003 0.0
H510 H 0.96623 0.22083 0.35574 0.0
H511 H 0.99014 0.187 0.33341 0.0
C512 C 0.78676 0.07662 0.86806 0.0
C513 C 0.77484 0.04085 0.88265 0.0
C514 C 0.82815 0.99854 0.85999 0.0
C515 C 0.84397 0.03545 0.84833 0.0
N516 N 0.83894 0.1097 0.84047 0.0
N517 N 0.76945 0.96535 0.88156 0.0
C518 C 0.82312 0.07448 0.85189 0.0
C519 C 0.79111 0.00092 0.87535 0.0
N520 N 0.76173 0.11147 0.86825 0.0
N521 N 0.84957 0.96151 0.85737 0.0
H522 H 0.73977 0.96626 0.89019 0.0
H523 H 0.77783 0.93551 0.87497 0.0
H524 H 0.87662 0.95821 0.84603 0.0
H525 H 0.84244 0.93486 0.86804 0.0
H526 H 0.76654 0.13719 0.85635 0.0
H527 H 0.73314 0.11286 0.87812 0.0
H528 H 0.82876 0.13998 0.84491 0.0
H529 H 0.86416 0.10895 0.82748 0.0
C530 C 0.05864 0.77432 0.35467 0.0
C531 C 0.02201 0.76714 0.36999 0.0
C532 C 0.99559 0.83688 0.35838 0.0
C533 C 0.02783 0.84006 0.33953 0.0
N534 N 0.09027 0.81213 0.31908 0.0
N535 N 0.96512 0.8012 0.39402 0.0
C536 C 0.05969 0.80907 0.33766 0.0
C537 C 0.99348 0.80103 0.3742 0.0
N538 N 0.09332 0.74957 0.35748 0.0
N539 N 0.96646 0.86811 0.36129 0.0
H540 H 0.96389 0.77862 0.40846 0.0
H541 H 0.96389 0.77862 0.40846 0.0
H542 H 0.96667 0.89529 0.3502 0.0
H543 H 0.94193 0.8665 0.37475 0.0
H544 H 0.12213 0.75572 0.34863 0.0
H545 H 0.09509 0.72587 0.37112 0.0
H546 H 0.1111 0.78789 0.31456 0.0
H547 H 0.09306 0.83785 0.30687 0.0
loop_
_geom_bond_atom_site_label_1
_geom_bond_atom_site_label_2
_geom_bond_distance
_geom_bond_site_symmetry_2
_ccdc_geom_bond_type
C0 C1 1.560 . S
C0 H61 0.959 . S
C0 H62 0.959 . S
C0 H63 0.960 . S
C1 C0 1.560 . S
C1 O56 1.426 . S
C1 H60 0.980 . S
C2 C3 1.407 1_545 S
C2 C7 1.418 . S
C2 O56 1.334 . S
C3 C2 1.407 1_565 S
C3 C4 1.360 . S
C3 H64 0.929 . S
C4 C3 1.360 . S
C4 C5 1.401 1_565 S
C4 C8 1.527 . S
C5 C4 1.401 1_545 S
C5 C6 1.405 . S
C5 C38 1.587 1_545 S
C6 C5 1.405 . S
C6 C7 1.332 . S
C6 C9 1.496 . S
C7 C2 1.418 . S
C7 C6 1.332 . S
C7 H65 0.929 . S
C8 C4 1.527 . S
C8 H66 0.959 . S
C8 H67 0.961 . S
C8 H68 0.961 . S
C9 C6 1.496 . S
C9 H69 0.960 . S
C9 H70 0.960 . S
C9 H71 0.961 . S
C10 C11 1.517 . S
C10 H73 0.969 . S
C10 H74 0.960 . S
C10 H75 0.959 . S
C11 C10 1.517 . S
C11 O59 1.468 . S
C11 H72 0.980 1_565 S
C12 C13 1.369 . S
C12 C17 1.367 . S
C12 O59 1.408 . S
C13 C12 1.369 . S
C13 C14 1.404 1_565 S
C13 H76 0.914 1_565 S
C14 C13 1.404 1_545 S
C14 C15 1.449 1_545 S
C14 C18 1.535 . S
C15 C14 1.449 1_565 S
C15 C16 1.384 . S
C15 C40 1.553 . S
C16 C15 1.384 . S
C16 C17 1.364 . S
C16 C19 1.450 . S
C17 C12 1.367 . S
C17 C16 1.364 . S
C17 H77 0.931 . S
C18 C14 1.535 . S
C18 H78 0.959 . S
C18 H79 0.961 . S
C18 H80 0.959 . S
C19 C16 1.450 . S
C19 H81 0.960 . S
C19 H82 0.960 . S
C19 H83 0.960 . S
C20 C21 1.309 1_565 S
C20 C25 1.304 . S
C20 O58 1.435 . S
C21 C20 1.309 1_545 S
C21 C22 1.476 . S
C21 H85 0.930 . S
C22 C21 1.476 . S
C22 C23 1.400 1_545 S
C22 C26 1.567 . S
C23 C22 1.400 1_565 S
C23 C24 1.373 . S
C23 C45 1.432 . S
C24 C23 1.373 . S
C24 C25 1.339 . S
C24 C27 1.530 . S
C25 C20 1.304 . S
C25 C24 1.339 . S
C25 H86 0.930 . S
C26 C22 1.567 . S
C26 H87 0.961 . S
C26 H88 0.960 . S
C26 H89 0.958 . S
C27 C24 1.530 . S
C27 H90 0.961 . S
C27 H91 0.960 . S
C27 H92 0.960 . S
C28 C29 1.530 . S
C28 H94 0.961 . S
C28 H95 0.961 . S
C28 H96 0.959 . S
C29 C28 1.530 . S
C29 O57 1.412 . S
C29 H93 0.980 . S
C30 C31 1.288 . S
C30 C35 1.377 1_545 S
C30 O57 1.393 . S
C31 C30 1.288 . S
C31 C32 1.369 . S
C31 H97 0.932 . S
C32 C31 1.369 . S
C32 C33 1.398 . S
C32 C36 1.527 . S
C33 C32 1.398 . S
C33 C34 1.380 1_545 S
C33 C47 1.497 . S
C34 C33 1.380 1_565 S
C34 C35 1.383 . S
C34 C37 1.603 . S
C35 C30 1.377 1_565 S
C35 C34 1.383 . S
C35 H98 0.929 . S
C36 C32 1.527 . S
C36 H99 0.961 . S
C36 H100 0.959 . S
C36 H101 0.959 . S
C37 C34 1.603 . S
C37 H102 0.960 . S
C37 H103 0.962 . S
C37 H104 0.961 . S
C38 C5 1.587 1_565 S
C38 C39 1.360 . S
C38 C51 1.412 . S
C39 C38 1.360 . S
C39 C40 1.365 . S
C39 H105 0.929 . S
C40 C15 1.553 . S
C40 C39 1.365 . S
C40 C41 1.404 . S
C41 C40 1.404 . S
C41 C42 1.395 . S
C41 C52 1.451 . S
C42 C41 1.395 . S
C42 C43 1.322 . S
C42 H106 0.930 . S
C43 C42 1.322 . S
C43 C44 1.459 1_554 S
C43 H107 0.929 1_554 S
C44 C43 1.459 1_556 S
C44 C45 1.445 . S
C44 C53 1.394 . S
C45 C23 1.432 . S
C45 C44 1.445 . S
C45 C46 1.370 . S
C46 C45 1.370 . S
C46 C47 1.438 1_565 S
C46 H108 0.930 . S
C47 C33 1.497 . S
C47 C46 1.438 1_545 S
C47 C48 1.360 1_545 S
C48 C47 1.360 1_565 S
C48 C49 1.403 1_565 S
C48 C53 1.444 . S
C49 C48 1.403 1_545 S
C49 C50 1.343 1_556 S
C49 H109 0.932 . S
C50 C49 1.343 1_554 S
C50 C51 1.453 1_545 S
C50 H110 0.932 . S
C51 C38 1.412 . S
C51 C50 1.453 1_565 S
C51 C52 1.331 . S
C52 C41 1.451 . S
C52 C51 1.331 . S
C52 C53 1.500 1_554 S
C53 C44 1.394 . S
C53 C48 1.444 . S
C53 C52 1.500 1_556 S
C54 C55 1.593 . S
C54 H111 0.962 . S
C54 H112 0.959 . S
C54 H113 0.958 . S
C55 C54 1.593 . S
C55 O58 1.476 . S
C55 H84 0.973 1_565 S
O56 C1 1.426 . S
O56 C2 1.334 . S
O57 C29 1.412 . S
O57 C30 1.393 . S
O58 C20 1.435 . S
O58 C55 1.476 . S
O59 C11 1.468 . S
O59 C12 1.408 . S
H60 C1 0.980 . S
H61 C0 0.959 . S
H62 C0 0.959 . S
H63 C0 0.960 . S
H64 C3 0.929 . S
H65 C7 0.929 . S
H66 C8 0.959 . S
H67 C8 0.961 . S
H68 C8 0.961 . S
H69 C9 0.960 . S
H70 C9 0.960 . S
H71 C9 0.961 . S
H72 C11 0.980 1_545 S
H73 C10 0.969 . S
H74 C10 0.960 . S
H75 C10 0.959 . S
H76 C13 0.914 1_545 S
H77 C17 0.931 . S
H78 C18 0.959 . S
H79 C18 0.961 . S
H80 C18 0.959 . S
H81 C19 0.960 . S
H82 C19 0.960 . S
H83 C19 0.960 . S
H84 C55 0.973 1_545 S
H85 C21 0.930 . S
H86 C25 0.930 . S
H87 C26 0.961 . S
H88 C26 0.960 . S
H89 C26 0.958 . S
H90 C27 0.961 . S
H91 C27 0.960 . S
H92 C27 0.960 . S
H93 C29 0.980 . S
H94 C28 0.961 . S
H95 C28 0.961 . S
H96 C28 0.959 . S
H97 C31 0.932 . S
H98 C35 0.929 . S
H99 C36 0.961 . S
H100 C36 0.959 . S
H101 C36 0.959 . S
H102 C37 0.960 . S
H103 C37 0.962 . S
H104 C37 0.961 . S
H105 C39 0.929 . S
H106 C42 0.930 . S
H107 C43 0.929 1_556 S
H108 C46 0.930 . S
H109 C49 0.932 . S
H110 C50 0.932 . S
H111 C54 0.962 . S
H112 C54 0.959 . S
H113 C54 0.958 . S
C114 C115 1.560 . S
C114 H175 0.959 . S
C114 H176 0.959 . S
C114 H177 0.960 . S
C115 C114 1.560 . S
C115 O170 1.426 . S
C115 H174 0.980 . S
C116 C117 1.407 . S
C116 C121 1.418 . S
C116 O170 1.334 . S
C117 C116 1.407 . S
C117 C118 1.360 . S
C117 H178 0.929 . S
C118 C117 1.360 . S
C118 C119 1.401 . S
C118 C122 1.527 1_455 S
C119 C118 1.401 . S
C119 C120 1.405 . S
C119 C152 1.587 . S
C120 C119 1.405 . S
C120 C121 1.332 . S
C120 C123 1.496 . S
C121 C116 1.418 . S
C121 C120 1.332 . S
C121 H179 0.929 . S
C122 C118 1.527 1_655 S
C122 H180 0.959 . S
C122 H181 0.961 . S
C122 H182 0.961 . S
C123 C120 1.496 . S
C123 H183 0.960 . S
C123 H184 0.960 . S
C123 H185 0.961 . S
C124 C125 1.517 . S
C124 H187 0.961 . S
C124 H188 0.960 1_455 S
C124 H189 0.959 . S
C125 C124 1.517 . S
C125 O173 1.468 1_455 S
C125 H186 0.980 . S
C126 C127 1.349 1_655 S
C126 C131 1.367 . S
C126 O173 1.408 . S
C127 C126 1.349 1_455 S
C127 C128 1.407 . S
C127 H190 0.930 . S
C128 C127 1.407 . S
C128 C129 1.449 . S
C128 C132 1.535 . S
C129 C128 1.449 . S
C129 C130 1.384 1_455 S
C129 C154 1.553 . S
C130 C129 1.384 1_655 S
C130 C131 1.364 . S
C130 C133 1.450 . S
C131 C126 1.367 . S
C131 C130 1.364 . S
C131 H191 0.931 . S
C132 C128 1.535 . S
C132 H192 0.959 . S
C132 H193 0.961 . S
C132 H194 0.959 . S
C133 C130 1.450 . S
C133 H195 0.960 . S
C133 H196 0.960 . S
C133 H197 0.960 . S
C134 C135 1.309 . S
C134 C139 1.304 1_455 S
C134 O172 1.435 . S
C135 C134 1.309 . S
C135 C136 1.476 . S
C135 H199 0.930 . S
C136 C135 1.476 . S
C136 C137 1.400 . S
C136 C140 1.567 . S
C137 C136 1.400 . S
C137 C138 1.373 1_455 S
C137 C159 1.432 . S
C138 C137 1.373 1_655 S
C138 C139 1.339 . S
C138 C141 1.530 . S
C139 C134 1.304 1_655 S
C139 C138 1.339 . S
C139 H200 0.930 . S
C140 C136 1.567 . S
C140 H201 0.961 . S
C140 H202 0.960 . S
C140 H203 0.958 . S
C141 C138 1.530 . S
C141 H204 0.961 . S
C141 H205 0.960 . S
C141 H206 0.960 . S
C142 C143 1.530 . S
C142 H208 0.961 . S
C142 H209 0.961 . S
C142 H210 0.959 . S
C143 C142 1.530 . S
C143 O171 1.412 . S
C143 H207 0.980 . S
C144 C145 1.288 . S
C144 C149 1.377 . S
C144 O171 1.393 . S
C145 C144 1.288 . S
C145 C146 1.369 . S
C145 H211 0.932 . S
C146 C145 1.369 . S
C146 C147 1.398 . S
C146 C150 1.527 . S
C147 C146 1.398 . S
C147 C148 1.380 . S
C147 C161 1.497 . S
C148 C147 1.380 . S
C148 C149 1.383 . S
C148 C151 1.603 1_455 S
C149 C144 1.377 . S
C149 C148 1.383 . S
C149 H212 0.929 . S
C150 C146 1.527 . S
C150 H213 0.961 . S
C150 H214 0.959 . S
C150 H215 0.959 . S
C151 C148 1.603 1_655 S
C151 H216 0.960 . S
C151 H217 0.962 . S
C151 H218 0.961 . S
C152 C119 1.587 . S
C152 C153 1.360 . S
C152 C165 1.412 . S
C153 C152 1.360 . S
C153 C154 1.365 . S
C153 H219 0.929 . S
C154 C129 1.553 . S
C154 C153 1.365 . S
C154 C155 1.404 . S
C155 C154 1.404 . S
C155 C156 1.395 . S
C155 C166 1.451 . S
C156 C155 1.395 . S
C156 C157 1.322 . S
C156 H220 0.930 . S
C157 C156 1.322 . S
C157 C158 1.459 . S
C157 H221 0.929 . S
C158 C157 1.459 . S
C158 C159 1.445 . S
C158 C167 1.395 . S
C159 C137 1.432 . S
C159 C158 1.445 . S
C159 C160 1.370 . S
C160 C159 1.370 . S
C160 C161 1.438 . S
C160 H222 0.930 . S
C161 C147 1.497 . S
C161 C160 1.438 . S
C161 C162 1.360 . S
C162 C161 1.360 . S
C162 C163 1.401 . S
C162 C167 1.446 . S
C163 C162 1.401 . S
C163 C164 1.347 . S
C163 H223 0.929 . S
C164 C163 1.347 . S
C164 C165 1.455 . S
C164 H224 0.930 . S
C165 C152 1.412 . S
C165 C164 1.455 . S
C165 C166 1.331 . S
C166 C155 1.451 . S
C166 C165 1.331 . S
C166 C167 1.497 . S
C167 C158 1.395 . S
C167 C162 1.446 . S
C167 C166 1.497 . S
C168 C169 1.582 . S
C168 H225 0.962 . S
C168 H226 0.959 . S
C168 H227 0.958 1_455 S
C169 C168 1.582 . S
C169 O172 1.458 . S
C169 H198 0.980 . S
O170 C115 1.426 . S
O170 C116 1.334 . S
O171 C143 1.412 . S
O171 C144 1.393 . S
O172 C134 1.435 . S
O172 C169 1.458 . S
O173 C125 1.468 1_655 S
O173 C126 1.408 . S
H174 C115 0.980 . S
H175 C114 0.959 . S
H176 C114 0.959 . S
H177 C114 0.960 . S
H178 C117 0.929 . S
H179 C121 0.929 . S
H180 C122 0.959 . S
H181 C122 0.961 . S
H182 C122 0.961 . S
H183 C123 0.960 . S
H184 C123 0.960 . S
H185 C123 0.961 . S
H186 C125 0.980 . S
H187 C124 0.961 . S
H188 C124 0.960 1_655 S
H189 C124 0.959 . S
H190 C127 0.930 . S
H191 C131 0.931 . S
H192 C132 0.959 . S
H193 C132 0.961 . S
H194 C132 0.959 . S
H195 C133 0.960 . S
H196 C133 0.960 . S
H197 C133 0.960 . S
H198 C169 0.980 . S
H199 C135 0.930 . S
H200 C139 0.930 . S
H201 C140 0.961 . S
H202 C140 0.960 . S
H203 C140 0.958 . S
H204 C141 0.961 . S
H205 C141 0.960 . S
H206 C141 0.960 . S
H207 C143 0.980 . S
H208 C142 0.961 . S
H209 C142 0.961 . S
H210 C142 0.959 . S
H211 C145 0.932 . S
H212 C149 0.929 . S
H213 C150 0.961 . S
H214 C150 0.959 . S
H215 C150 0.959 . S
H216 C151 0.960 . S
H217 C151 0.962 . S
H218 C151 0.961 . S
H219 C153 0.929 . S
H220 C156 0.930 . S
H221 C157 0.929 . S
H222 C160 0.930 . S
H223 C163 0.929 . S
H224 C164 0.930 . S
H225 C168 0.962 . S
H226 C168 0.959 . S
H227 C168 0.958 1_655 S
Li228 N245 1.990 . S
Li228 O288 1.956 . S
Li228 O289 1.969 . S
Li228 O290 1.961 . S
Li229 N253 1.990 . S
Li229 O288 1.970 1_565 S
Li229 O289 1.954 1_565 S
Li229 O291 1.961 . S
Li230 N275 1.990 . S
Li230 O288 1.961 . S
Li230 O290 1.956 . S
Li230 O291 1.970 1_545 S
Li231 N281 1.990 1_455 S
Li231 O289 1.961 . S
Li231 O290 1.970 . S
Li231 O291 1.956 1_545 S
C232 C234 1.348 1_545 S
C232 C235 1.356 . S
C232 O288 1.325 . S
N233 C236 1.314 1_545 S
N233 C237 1.279 . S
C234 C232 1.348 1_565 S
C234 C236 1.353 . S
C234 H292 0.929 . S
C235 C232 1.356 . S
C235 C237 1.358 . S
C235 H293 0.930 . S
C236 N233 1.314 1_565 S
C236 C234 1.353 . S
C236 H294 0.930 . S
C237 N233 1.279 . S
C237 C235 1.358 . S
C237 H295 0.930 . S
C238 C241 1.348 . S
C238 C242 1.356 1_545 S
C238 O289 1.327 1_655 S
C239 N240 1.279 1_565 S
C239 C242 1.358 . S
C239 H296 0.930 . S
N240 C239 1.279 1_545 S
N240 C243 1.314 . S
C241 C238 1.348 . S
C241 C243 1.353 . S
C241 H297 0.929 . S
C242 C238 1.356 1_565 S
C242 C239 1.358 . S
C242 H298 0.930 . S
C243 N240 1.314 . S
C243 C241 1.353 . S
C243 H299 0.930 . S
C244 N245 1.314 . S
C244 C249 1.353 . S
C244 H250 0.930 . S
N245 Li228 1.990 . S
N245 C244 1.314 . S
N245 C247 1.279 . S
C246 C247 1.358 . S
C246 C248 1.356 . S
C246 H300 0.930 . S
C247 N245 1.279 . S
C247 C246 1.358 . S
C247 H251 0.930 . S
C248 C246 1.356 . S
C248 C249 1.348 . S
C249 C244 1.353 . S
C249 C248 1.348 . S
C249 H301 0.929 . S
H250 C244 0.930 . S
H251 C247 0.930 . S
C252 N253 1.314 . S
C252 C254 1.353 . S
C252 H258 0.930 . S
N253 Li229 1.990 . S
N253 C252 1.314 . S
N253 C256 1.279 . S
C254 C252 1.353 . S
C254 C257 1.348 . S
C254 H302 0.929 . S
C255 C256 1.358 . S
C255 C257 1.356 . S
C255 H303 0.929 1_455 S
C256 N253 1.279 . S
C256 C255 1.358 . S
C256 H259 0.931 1_455 S
C257 C254 1.348 . S
C257 C255 1.356 . S
H258 C252 0.930 . S
H259 C256 0.931 1_655 S
C260 C262 1.348 . S
C260 C263 1.356 . S
C260 O290 1.325 . S
N261 C264 1.314 . S
N261 C265 1.279 . S
C262 C260 1.348 . S
C262 C264 1.353 . S
C262 H304 0.929 . S
C263 C260 1.356 . S
C263 C265 1.358 . S
C263 H305 0.930 . S
C264 N261 1.314 . S
C264 C262 1.353 . S
C264 H306 0.930 . S
C265 N261 1.279 . S
C265 C263 1.358 . S
C265 H307 0.930 . S
C266 C267 1.348 . S
C266 C268 1.356 . S
C266 O291 1.325 . S
C267 C266 1.348 . S
C267 C269 1.353 . S
C267 H308 0.929 . S
C268 C266 1.356 . S
C268 C270 1.358 . S
C268 H309 0.929 1_455 S
C269 C267 1.353 . S
C269 N271 1.314 . S
C269 H310 0.930 . S
C270 C268 1.358 . S
C270 N271 1.279 . S
C270 H311 0.931 1_455 S
N271 C269 1.314 . S
N271 C270 1.279 . S
C272 C274 1.353 . S
C272 N275 1.314 1_565 S
C272 H278 0.930 . S
C273 N275 1.279 . S
C273 C276 1.358 . S
C273 H279 0.930 . S
C274 C272 1.353 . S
C274 C277 1.348 1_565 S
C274 H312 0.929 . S
N275 Li230 1.990 . S
N275 C272 1.314 1_545 S
N275 C273 1.279 . S
C276 C273 1.358 . S
C276 C277 1.356 . S
C276 H313 0.930 . S
C277 C274 1.348 1_545 S
C277 C276 1.356 . S
H278 C272 0.930 . S
H279 C273 0.930 . S
C280 N281 1.314 . S
C280 C282 1.353 . S
C280 H286 0.930 . S
N281 Li231 1.990 1_655 S
N281 C280 1.314 . S
N281 C284 1.279 1_545 S
C282 C280 1.353 . S
C282 C285 1.348 . S
C282 H314 0.929 . S
C283 C284 1.358 . S
C283 C285 1.356 1_565 S
C283 H315 0.930 . S
C284 N281 1.279 1_565 S
C284 C283 1.358 . S
C284 H287 0.930 . S
C285 C282 1.348 . S
C285 C283 1.356 1_545 S
H286 C280 0.930 . S
H287 C284 0.930 . S
O288 Li228 1.956 . S
O288 Li229 1.970 1_545 S
O288 Li230 1.961 . S
O288 C232 1.325 . S
O289 Li228 1.969 . S
O289 Li229 1.954 1_545 S
O289 Li231 1.961 . S
O289 C238 1.327 1_455 S
O290 Li228 1.961 . S
O290 Li230 1.956 . S
O290 Li231 1.970 . S
O290 C260 1.325 . S
O291 Li229 1.961 . S
O291 Li230 1.970 1_565 S
O291 Li231 1.956 1_565 S
O291 C266 1.325 . S
H292 C234 0.929 . S
H293 C235 0.930 . S
H294 C236 0.930 . S
H295 C237 0.930 . S
H296 C239 0.930 . S
H297 C241 0.929 . S
H298 C242 0.930 . S
H299 C243 0.930 . S
H300 C246 0.930 . S
H301 C249 0.929 . S
H302 C254 0.929 . S
H303 C255 0.929 1_655 S
H304 C262 0.929 . S
H305 C263 0.930 . S
H306 C264 0.930 . S
H307 C265 0.930 . S
H308 C267 0.929 . S
H309 C268 0.929 1_655 S
H310 C269 0.930 . S
H311 C270 0.931 1_655 S
H312 C274 0.929 . S
H313 C276 0.930 . S
H314 C282 0.929 . S
H315 C283 0.930 . S
Li316 N333 2.012 . S
Li316 O376 1.938 1_655 S
Li316 O377 1.953 1_645 S
Li316 O378 1.963 . S
Li317 N341 1.990 . S
Li317 O376 1.970 . S
Li317 O377 1.956 1_545 S
Li317 O379 1.961 . S
Li318 N363 1.990 . S
Li318 O376 1.961 . S
Li318 O378 1.956 1_455 S
Li318 O379 1.970 . S
Li319 N369 1.990 . S
Li319 O377 1.961 . S
Li319 O378 1.970 1_465 S
Li319 O379 1.956 1_565 S
C320 C322 1.348 . S
C320 C323 1.356 . S
C320 O376 1.325 . S
N321 C324 1.314 . S
N321 C325 1.279 . S
C322 C320 1.348 . S
C322 C324 1.353 . S
C322 H380 0.929 . S
C323 C320 1.356 . S
C323 C325 1.358 . S
C323 H381 0.930 1_455 S
C324 N321 1.314 . S
C324 C322 1.353 . S
C324 H382 0.930 . S
C325 N321 1.279 . S
C325 C323 1.358 . S
C325 H383 0.930 1_455 S
C326 C329 1.348 . S
C326 C330 1.356 . S
C326 O377 1.325 . S
C327 N328 1.279 . S
C327 C330 1.358 . S
C327 H384 0.930 . S
N328 C327 1.279 . S
N328 C331 1.314 . S
C329 C326 1.348 . S
C329 C331 1.353 . S
C329 H385 0.934 . S
C330 C326 1.356 . S
C330 C327 1.358 . S
C330 H386 0.930 . S
C331 N328 1.314 . S
C331 C329 1.353 . S
C331 H387 0.930 . S
C332 N333 1.314 1_565 S
C332 C337 1.353 . S
C332 H338 0.930 . S
N333 Li316 2.012 . S
N333 C332 1.314 1_545 S
N333 C335 1.279 . S
C334 C335 1.358 . S
C334 C336 1.356 . S
C334 H388 0.930 . S
C335 N333 1.279 . S
C335 C334 1.358 . S
C335 H339 0.930 . S
C336 C334 1.356 . S
C336 C337 1.348 1_545 S
C337 C332 1.353 . S
C337 C336 1.348 1_565 S
C337 H389 0.929 . S
H338 C332 0.930 . S
H339 C335 0.930 . S
C340 N341 1.314 . S
C340 C342 1.353 . S
C340 H346 0.930 . S
N341 Li317 1.990 . S
N341 C340 1.314 . S
N341 C344 1.279 1_545 S
C342 C340 1.353 . S
C342 C345 1.348 . S
C342 H390 0.929 . S
C343 C344 1.358 . S
C343 C345 1.356 1_565 S
C343 H391 0.930 . S
C344 N341 1.279 1_565 S
C344 C343 1.358 . S
C344 H347 0.930 . S
C345 C342 1.348 . S
C345 C343 1.356 1_545 S
H346 C340 0.930 . S
H347 C344 0.930 . S
C348 C350 1.348 1_545 S
C348 C351 1.356 . S
C348 O378 1.325 . S
N349 C352 1.314 1_545 S
N349 C353 1.279 . S
C350 C348 1.348 1_565 S
C350 C352 1.353 . S
C350 H392 0.929 . S
C351 C348 1.356 . S
C351 C353 1.358 . S
C351 H393 0.930 . S
C352 N349 1.314 1_565 S
C352 C350 1.353 . S
C352 H394 0.930 . S
C353 N349 1.279 . S
C353 C351 1.358 . S
C353 H395 0.930 . S
C354 C355 1.348 . S
C354 C356 1.356 1_545 S
C354 O379 1.325 . S
C355 C354 1.348 . S
C355 C357 1.353 . S
C355 H396 0.929 . S
C356 C354 1.356 1_565 S
C356 C358 1.358 . S
C356 H397 0.930 . S
C357 C355 1.353 . S
C357 N359 1.314 . S
C357 H398 0.930 . S
C358 C356 1.358 . S
C358 N359 1.279 1_565 S
C358 H399 0.930 . S
N359 C357 1.314 . S
N359 C358 1.279 1_545 S
C360 C362 1.353 . S
C360 N363 1.314 . S
C360 H366 0.930 . S
C361 N363 1.279 . S
C361 C364 1.358 . S
C361 H367 0.930 1_455 S
C362 C360 1.353 . S
C362 C365 1.348 . S
C362 H400 0.929 . S
N363 Li318 1.990 . S
N363 C360 1.314 . S
N363 C361 1.279 . S
C364 C361 1.358 . S
C364 C365 1.356 . S
C364 H401 0.930 1_455 S
C365 C362 1.348 . S
C365 C364 1.356 . S
H366 C360 0.930 . S
H367 C361 0.930 1_655 S
C368 N369 1.314 . S
C368 C370 1.353 . S
C368 H374 0.930 . S
N369 Li319 1.990 . S
N369 C368 1.314 . S
N369 C372 1.279 . S
C370 C368 1.353 . S
C370 C373 1.348 . S
C370 H402 0.929 . S
C371 C372 1.358 . S
C371 C373 1.356 . S
C371 H403 0.930 . S
C372 N369 1.279 . S
C372 C371 1.358 . S
C372 H375 0.930 . S
C373 C370 1.348 . S
C373 C371 1.356 . S
H374 C368 0.930 . S
H375 C372 0.930 . S
O376 Li316 1.938 1_455 S
O376 Li317 1.970 . S
O376 Li318 1.961 . S
O376 C320 1.325 . S
O377 Li316 1.953 1_465 S
O377 Li317 1.956 1_565 S
O377 Li319 1.961 . S
O377 C326 1.325 . S
O378 Li316 1.963 . S
O378 Li318 1.956 1_655 S
O378 Li319 1.970 1_645 S
O378 C348 1.325 . S
O379 Li317 1.961 . S
O379 Li318 1.970 . S
O379 Li319 1.956 1_545 S
O379 C354 1.325 . S
H380 C322 0.929 . S
H381 C323 0.930 1_655 S
H382 C324 0.930 . S
H383 C325 0.930 1_655 S
H384 C327 0.930 . S
H385 C329 0.934 . S
H386 C330 0.930 . S
H387 C331 0.930 . S
H388 C334 0.930 . S
H389 C337 0.929 . S
H390 C342 0.929 . S
H391 C343 0.930 . S
H392 C350 0.929 . S
H393 C351 0.930 . S
H394 C352 0.930 . S
H395 C353 0.930 . S
H396 C355 0.929 . S
H397 C356 0.930 . S
H398 C357 0.930 . S
H399 C358 0.930 . S
H400 C362 0.929 . S
H401 C364 0.930 1_655 S
H402 C370 0.929 . S
H403 C371 0.930 . S
C404 C405 1.363 1_565 S
C404 C410 1.379 . S
C404 N412 1.356 . S
C405 C404 1.363 1_545 S
C405 C411 1.363 . S
C406 C407 1.363 . S
C406 C411 1.379 . S
C406 N413 1.356 . S
C407 C406 1.363 . S
C407 C410 1.363 1_545 S
N408 C410 1.356 . S
N408 H420 0.984 . S
N408 H421 0.985 . S
N409 C411 1.356 . S
N409 H414 0.984 . S
N409 H415 0.985 . S
C410 C404 1.379 . S
C410 C407 1.363 1_565 S
C410 N408 1.356 . S
C411 C405 1.363 . S
C411 C406 1.379 . S
C411 N409 1.356 . S
N412 C404 1.356 . S
N412 H418 0.984 . S
N412 H419 0.984 . S
N413 C406 1.356 . S
N413 H416 0.984 . S
N413 H417 0.985 . S
H414 N409 0.984 . S
H415 N409 0.985 . S
H416 N413 0.984 . S
H417 N413 0.985 . S
H418 N412 0.984 . S
H419 N412 0.984 . S
H420 N408 0.984 . S
H421 N408 0.985 . S
C422 C423 1.363 . S
C422 C428 1.379 . S
C422 N430 1.356 . S
C423 C422 1.363 . S
C423 C429 1.363 . S
C424 C425 1.363 . S
C424 C429 1.379 . S
C424 N431 1.356 . S
C425 C424 1.363 . S
C425 C428 1.363 . S
N426 C428 1.356 . S
N426 H438 0.984 . S
N426 H439 0.985 . S
N427 C429 1.356 . S
N427 H432 0.984 . S
N427 H433 0.985 . S
C428 C422 1.379 . S
C428 C425 1.363 . S
C428 N426 1.356 . S
C429 C423 1.363 . S
C429 C424 1.379 . S
C429 N427 1.356 . S
N430 C422 1.356 . S
N430 H436 0.984 . S
N430 H437 0.984 . S
N431 C424 1.356 . S
N431 H434 0.984 . S
N431 H435 0.985 . S
H432 N427 0.984 . S
H433 N427 0.985 . S
H434 N431 0.984 . S
H435 N431 0.985 . S
H436 N430 0.984 . S
H437 N430 0.984 . S
H438 N426 0.984 . S
H439 N426 0.985 . S
C440 C441 1.363 . S
C440 C446 1.379 . S
C440 N448 1.356 . S
C441 C440 1.363 . S
C441 C447 1.363 1_545 S
C442 C443 1.363 1_565 S
C442 C447 1.379 . S
C442 N449 1.356 . S
C443 C442 1.363 1_545 S
C443 C446 1.363 . S
N444 C446 1.356 . S
N444 H456 0.984 . S
N444 H457 0.985 . S
N445 C447 1.356 . S
N445 H450 0.984 . S
N445 H451 0.985 . S
C446 C440 1.379 . S
C446 C443 1.363 . S
C446 N444 1.356 . S
C447 C441 1.363 1_565 S
C447 C442 1.379 . S
C447 N445 1.356 . S
N448 C440 1.356 . S
N448 H454 0.984 . S
N448 H455 0.984 . S
N449 C442 1.356 . S
N449 H452 0.984 . S
N449 H453 0.985 . S
H450 N445 0.984 . S
H451 N445 0.985 . S
H452 N449 0.984 . S
H453 N449 0.985 . S
H454 N448 0.984 . S
H455 N448 0.984 . S
H456 N444 0.984 . S
H457 N444 0.985 . S
C458 C459 1.363 . S
C458 C464 1.379 . S
C458 N466 1.356 . S
C459 C458 1.363 . S
C459 C465 1.363 . S
C460 C461 1.363 . S
C460 C465 1.379 . S
C460 N467 1.356 . S
C461 C460 1.363 . S
C461 C464 1.363 . S
N462 C464 1.356 . S
N462 H474 0.984 . S
N462 H475 0.985 . S
N463 C465 1.356 . S
N463 H468 0.984 . S
N463 H469 0.985 . S
C464 C458 1.379 . S
C464 C461 1.363 . S
C464 N462 1.356 . S
C465 C459 1.363 . S
C465 C460 1.379 . S
C465 N463 1.356 . S
N466 C458 1.356 . S
N466 H472 0.984 . S
N466 H473 0.984 . S
N467 C460 1.356 . S
N467 H470 0.984 . S
N467 H471 0.985 . S
H468 N463 0.984 . S
H469 N463 0.985 . S
H470 N467 0.984 . S
H471 N467 0.985 . S
H472 N466 0.984 . S
H473 N466 0.984 . S
H474 N462 0.984 . S
H475 N462 0.985 . S
C476 C477 1.363 1_565 S
C476 C482 1.379 . S
C476 N484 1.356 . S
C477 C476 1.363 1_545 S
C477 C483 1.363 . S
C478 C479 1.363 . S
C478 C483 1.379 . S
C478 N485 1.356 . S
C479 C478 1.363 . S
C479 C482 1.363 1_545 S
N480 C482 1.356 . S
N480 H492 0.984 . S
N480 H493 0.985 . S
N481 C483 1.356 . S
N481 H486 0.984 . S
N481 H487 0.985 . S
C482 C476 1.379 . S
C482 C479 1.363 1_565 S
C482 N480 1.356 . S
C483 C477 1.363 . S
C483 C478 1.379 . S
C483 N481 1.356 . S
N484 C476 1.356 . S
N484 H490 0.984 . S
N484 H491 0.984 . S
N485 C478 1.356 . S
N485 H488 0.984 . S
N485 H489 0.985 . S
H486 N481 0.984 . S
H487 N481 0.985 . S
H488 N485 0.984 . S
H489 N485 0.985 . S
H490 N484 0.984 . S
H491 N484 0.984 . S
H492 N480 0.984 . S
H493 N480 0.985 . S
C494 C495 1.363 . S
C494 C500 1.379 . S
C494 N502 1.356 1_455 S
C495 C494 1.363 . S
C495 C501 1.363 . S
C496 C497 1.363 . S
C496 C501 1.379 . S
C496 N503 1.356 . S
C497 C496 1.363 . S
C497 C500 1.363 . S
N498 C500 1.356 1_655 S
N498 H510 0.984 . S
N498 H511 0.985 . S
N499 C501 1.356 . S
N499 H504 0.984 . S
N499 H505 0.985 . S
C500 C494 1.379 . S
C500 C497 1.363 . S
C500 N498 1.356 1_455 S
C501 C495 1.363 . S
C501 C496 1.379 . S
C501 N499 1.356 . S
N502 C494 1.356 1_655 S
N502 H508 0.984 . S
N502 H509 0.984 . S
N503 C496 1.356 . S
N503 H506 0.984 . S
N503 H507 0.985 . S
H504 N499 0.984 . S
H505 N499 0.985 . S
H506 N503 0.984 . S
H507 N503 0.985 . S
H508 N502 0.984 . S
H509 N502 0.984 . S
H510 N498 0.984 . S
H511 N498 0.985 . S
C512 C513 1.363 . S
C512 C518 1.379 . S
C512 N520 1.356 . S
C513 C512 1.363 . S
C513 C519 1.363 1_545 S
C514 C515 1.363 1_565 S
C514 C519 1.379 . S
C514 N521 1.356 . S
C515 C514 1.363 1_545 S
C515 C518 1.363 . S
N516 C518 1.356 . S
N516 H528 0.984 . S
N516 H529 0.985 . S
N517 C519 1.356 . S
N517 H522 0.984 . S
N517 H523 0.985 . S
C518 C512 1.379 . S
C518 C515 1.363 . S
C518 N516 1.356 . S
C519 C513 1.363 1_565 S
C519 C514 1.379 . S
C519 N517 1.356 . S
N520 C512 1.356 . S
N520 H526 0.984 . S
N520 H527 0.984 . S
N521 C514 1.356 . S
N521 H524 0.984 . S
N521 H525 0.985 . S
H522 N517 0.984 . S
H523 N517 0.985 . S
H524 N521 0.984 . S
H525 N521 0.985 . S
H526 N520 0.984 . S
H527 N520 0.984 . S
H528 N516 0.984 . S
H529 N516 0.985 . S
C530 C531 1.363 . S
C530 C536 1.379 . S
C530 N538 1.356 . S
C531 C530 1.363 . S
C531 C537 1.363 . S
C532 C533 1.363 . S
C532 C537 1.379 . S
C532 N539 1.356 1_455 S
C533 C532 1.363 . S
C533 C536 1.363 . S
N534 C536 1.356 . S
N534 H546 0.984 . S
N534 H547 0.985 . S
N535 C537 1.356 . S
N535 H540 0.984 . S
N535 H541 0.985 1_455 S
C536 C530 1.379 . S
C536 C533 1.363 . S
C536 N534 1.356 . S
C537 C531 1.363 . S
C537 C532 1.379 . S
C537 N535 1.356 . S
N538 C530 1.356 . S
N538 H544 0.984 . S
N538 H545 0.984 . S
N539 C532 1.356 1_655 S
N539 H542 0.984 1_655 S
N539 H543 0.985 . S
H540 N535 0.984 . S
H541 N535 0.985 1_655 S
H542 N539 0.984 1_455 S
H543 N539 0.985 . S
H544 N538 0.984 . S
H545 N538 0.984 . S
H546 N534 0.984 . S
H547 N534 0.985 . S
C407 C277 1.492 . S
C405 C11 0.909 1_545 S
C425 C365 1.347 . S
C423 C115 1.093 . S
C443 C285 1.343 . S
C441 C1 1.082 . S
C461 C373 1.488 . S
C459 C125 0.894 . S
C479 C345 1.571 . S
C477 C55 1.136 1_545 S
C497 C248 1.434 . S
C495 C143 1.118 . S
C515 C336 1.438 . S
C513 C29 1.111 . S
C531 C169 1.139 . S
C533 C257 1.574 . S
