# Generated by pormake.
# Topology pyr, (3,6)-cn, num edge types: 1
# Building blocks:
#     Node 0, Type 0, BuildingBlock: QEWDON_clean_linker_0, # of connection points: 3
#     Node 1, Type 0, BuildingBlock: QEWDON_clean_linker_0, # of connection points: 3
#     Node 2, Type 0, BuildingBlock: QEWDON_clean_linker_0, # of connection points: 3
#     Node 3, Type 0, BuildingBlock: QEWDON_clean_linker_0, # of connection points: 3
#     Node 4, Type 0, BuildingBlock: QEWDON_clean_linker_0, # of connection points: 3
#     Node 5, Type 0, BuildingBlock: QEWDON_clean_linker_0, # of connection points: 3
#     Node 6, Type 0, BuildingBlock: QEWDON_clean_linker_0, # of connection points: 3
#     Node 7, Type 0, BuildingBlock: QEWDON_clean_linker_0, # of connection points: 3
#     Node 8, Type 1, BuildingBlock: BETDIP_clean_sbu_0, # of connection points: 6
#     Node 9, Type 1, BuildingBlock: BETDIP_clean_sbu_0, # of connection points: 6
#     Node 10, Type 1, BuildingBlock: BETDIP_clean_sbu_0, # of connection points: 6
#     Node 11, Type 1, BuildingBlock: BETDIP_clean_sbu_0, # of connection points: 6
#     Edge 12, Type (0, 1), BuildingBlock: XUDNAN_clean_linker_2, # of connection points: 2
#     Edge 13, Type (0, 1), BuildingBlock: XUDNAN_clean_linker_2, # of connection points: 2
#     Edge 14, Type (0, 1), BuildingBlock: XUDNAN_clean_linker_2, # of connection points: 2
#     Edge 15, Type (0, 1), BuildingBlock: XUDNAN_clean_linker_2, # of connection points: 2
#     Edge 16, Type (0, 1), BuildingBlock: XUDNAN_clean_linker_2, # of connection points: 2
#     Edge 17, Type (0, 1), BuildingBlock: XUDNAN_clean_linker_2, # of connection points: 2
#     Edge 18, Type (0, 1), BuildingBlock: XUDNAN_clean_linker_2, # of connection points: 2
#     Edge 19, Type (0, 1), BuildingBlock: XUDNAN_clean_linker_2, # of connection points: 2
#     Edge 20, Type (0, 1), BuildingBlock: XUDNAN_clean_linker_2, # of connection points: 2
#     Edge 21, Type (0, 1), BuildingBlock: XUDNAN_clean_linker_2, # of connection points: 2
#     Edge 22, Type (0, 1), BuildingBlock: XUDNAN_clean_linker_2, # of connection points: 2
#     Edge 23, Type (0, 1), BuildingBlock: XUDNAN_clean_linker_2, # of connection points: 2
#     Edge 24, Type (0, 1), BuildingBlock: XUDNAN_clean_linker_2, # of connection points: 2
#     Edge 25, Type (0, 1), BuildingBlock: XUDNAN_clean_linker_2, # of connection points: 2
#     Edge 26, Type (0, 1), BuildingBlock: XUDNAN_clean_linker_2, # of connection points: 2
#     Edge 27, Type (0, 1), BuildingBlock: XUDNAN_clean_linker_2, # of connection points: 2
#     Edge 28, Type (0, 1), BuildingBlock: XUDNAN_clean_linker_2, # of connection points: 2
#     Edge 29, Type (0, 1), BuildingBlock: XUDNAN_clean_linker_2, # of connection points: 2
#     Edge 30, Type (0, 1), BuildingBlock: XUDNAN_clean_linker_2, # of connection points: 2
#     Edge 31, Type (0, 1), BuildingBlock: XUDNAN_clean_linker_2, # of connection points: 2
#     Edge 32, Type (0, 1), BuildingBlock: XUDNAN_clean_linker_2, # of connection points: 2
#     Edge 33, Type (0, 1), BuildingBlock: XUDNAN_clean_linker_2, # of connection points: 2
#     Edge 34, Type (0, 1), BuildingBlock: XUDNAN_clean_linker_2, # of connection points: 2
#     Edge 35, Type (0, 1), BuildingBlock: XUDNAN_clean_linker_2, # of connection points: 2
# Relax obj value: 0.167
# Max RMSD: 0.272
# Mean RMSD: 0.185
data_MOF--net-pyr--node1-BETDIP_clean_sbu_0--node2-QEWDON_clean_linker_0--edge1-XUDNAN_clean_linker_2
_symmetry_space_group_name_H-M    P1
_symmetry_Int_Tables_number       1
_symmetry_cell_setting            triclinic
loop_
_symmetry_equiv_pos_as_xyz
'x, y, z'
_cell_length_a     35.719875
_cell_length_b     40.663528
_cell_length_c     42.081404
_cell_angle_alpha  88.381957
_cell_angle_beta   93.737912
_cell_angle_gamma 114.46426
loop_
_atom_site_label
_atom_site_type_symbol
_atom_site_fract_x
_atom_site_fract_y
_atom_site_fract_z
_atom_type_partial_charge
H0 H 0.40231 0.2956 0.18799 0.0
C1 C 0.39227 0.29235 0.2121 0.0
C2 C 0.40047 0.26817 0.23273 0.0
C3 C 0.37184 0.31275 0.22244 0.0
H4 H 0.39407 0.24541 0.27991 0.0
C5 C 0.38805 0.26433 0.26398 0.0
C6 C 0.36669 0.28377 0.27452 0.0
C7 C 0.35824 0.30773 0.25358 0.0
C8 C 0.36655 0.34021 0.20087 0.0
H9 H 0.34253 0.32336 0.26191 0.0
C10 C 0.3286 0.34314 0.197 0.0
C11 C 0.32376 0.36867 0.1757 0.0
C12 C 0.39979 0.36344 0.18355 0.0
H13 H 0.4295 0.36212 0.18637 0.0
C14 C 0.39518 0.38878 0.16254 0.0
H15 H 0.30291 0.32544 0.21037 0.0
C16 C 0.35746 0.39134 0.15849 0.0
H17 H 0.35455 0.41079 0.14152 0.0
H18 H 0.42091 0.40639 0.1492 0.0
H19 H 0.19248 0.84229 0.76667 0.0
C20 C 0.21166 0.82843 0.76171 0.0
C21 C 0.23423 0.82011 0.78682 0.0
C22 C 0.21281 0.81779 0.7304 0.0
H23 H 0.27698 0.79611 0.79945 0.0
C24 C 0.25849 0.80165 0.78035 0.0
C25 C 0.26106 0.79221 0.74914 0.0
C26 C 0.23808 0.80015 0.72428 0.0
C27 C 0.18672 0.82377 0.70409 0.0
H28 H 0.23994 0.79262 0.70011 0.0
C29 C 0.18584 0.85782 0.69905 0.0
C30 C 0.1606 0.86284 0.67404 0.0
C31 C 0.16239 0.79496 0.68375 0.0
H32 H 0.16237 0.76846 0.68727 0.0
C33 C 0.13737 0.7999 0.65897 0.0
H34 H 0.20457 0.88024 0.71454 0.0
C35 C 0.13635 0.83357 0.65414 0.0
H36 H 0.11682 0.83686 0.63464 0.0
H37 H 0.11864 0.77754 0.64349 0.0
H38 H 0.69356 0.4709 0.89525 0.0
C39 C 0.68281 0.44284 0.90236 0.0
C40 C 0.70535 0.43219 0.92637 0.0
C41 C 0.6452 0.41764 0.88849 0.0
H42 H 0.7058 0.38681 0.9545 0.0
C43 C 0.68967 0.39546 0.93574 0.0
C44 C 0.6529 0.3696 0.92151 0.0
C45 C 0.63108 0.38109 0.89791 0.0
C46 C 0.61668 0.42969 0.8687 0.0
H47 H 0.60186 0.36169 0.88769 0.0
C48 C 0.62712 0.44938 0.83968 0.0
C49 C 0.59775 0.45898 0.82177 0.0
C50 C 0.57735 0.42073 0.87973 0.0
H51 H 0.56859 0.40613 0.90192 0.0
C52 C 0.54904 0.43082 0.86281 0.0
H53 H 0.65723 0.45622 0.83082 0.0
C54 C 0.55903 0.44973 0.8343 0.0
H55 H 0.53629 0.45765 0.82231 0.0
H56 H 0.51908 0.42404 0.87194 0.0
H57 H 0.93897 0.82205 0.37256 0.0
C58 C 0.91696 0.80268 0.38777 0.0
C59 C 0.90954 0.81409 0.41764 0.0
C60 C 0.89459 0.76668 0.37653 0.0
H61 H 0.87197 0.79668 0.45814 0.0
C62 C 0.87885 0.78846 0.43582 0.0
C63 C 0.85522 0.75285 0.42504 0.0
C64 C 0.86398 0.74225 0.39566 0.0
C65 C 0.8932 0.75739 0.34172 0.0
H66 H 0.8447 0.71559 0.38632 0.0
C67 C 0.91748 0.7412 0.32818 0.0
C68 C 0.91003 0.72983 0.29542 0.0
C69 C 0.8629 0.76251 0.32193 0.0
H70 H 0.84387 0.77447 0.33134 0.0
C71 C 0.8558 0.75165 0.29021 0.0
H72 H 0.94105 0.73692 0.34293 0.0
C73 C 0.87874 0.73536 0.2772 0.0
H74 H 0.87242 0.72758 0.25234 0.0
H75 H 0.83205 0.75576 0.27554 0.0
H76 H 0.68547 0.78168 0.96139 0.0
C77 C 0.6956 0.79635 0.93942 0.0
C78 C 0.73389 0.80129 0.92847 0.0
C79 C 0.67136 0.81188 0.92313 0.0
H80 H 0.77777 0.82672 0.89286 0.0
C81 C 0.74742 0.82141 0.90057 0.0
C82 C 0.72345 0.83697 0.8839 0.0
C83 C 0.6852 0.83163 0.89512 0.0
C84 C 0.63461 0.81167 0.93773 0.0
H85 H 0.6665 0.8436 0.88245 0.0
C86 C 0.63059 0.84433 0.94074 0.0
C87 C 0.59957 0.84637 0.95847 0.0
C88 C 0.6057 0.78014 0.95118 0.0
H89 H 0.6081 0.7546 0.94915 0.0
C90 C 0.57367 0.7815 0.96767 0.0
H91 H 0.65281 0.86853 0.93012 0.0
C92 C 0.57079 0.81438 0.97165 0.0
H93 H 0.54679 0.81478 0.98585 0.0
H94 H 0.55158 0.75712 0.97813 0.0
H95 H 0.79755 0.25871 0.46846 0.0
C96 C 0.80736 0.25943 0.44451 0.0
C97 C 0.84069 0.25076 0.43914 0.0
C98 C 0.78427 0.2658 0.41882 0.0
H99 H 0.87748 0.24381 0.4034 0.0
C100 C 0.85232 0.25107 0.40778 0.0
C101 C 0.82936 0.25733 0.38179 0.0
C102 C 0.7954 0.26481 0.3877 0.0
C103 C 0.74479 0.26777 0.42391 0.0
H104 H 0.7758 0.2677 0.36805 0.0
C105 C 0.74343 0.29627 0.44118 0.0
C106 C 0.70547 0.29813 0.44502 0.0
C107 C 0.70807 0.24084 0.41089 0.0
H108 H 0.70859 0.2186 0.3976 0.0
C109 C 0.67041 0.24228 0.415 0.0
H110 H 0.77181 0.31704 0.45124 0.0
C111 C 0.66902 0.27075 0.43182 0.0
H112 H 0.63943 0.27172 0.43388 0.0
H113 H 0.64222 0.22146 0.40483 0.0
H114 H 0.47017 0.81679 0.24925 0.0
C115 C 0.43791 0.79915 0.24465 0.0
C116 C 0.41463 0.80837 0.2204 0.0
C117 C 0.4205 0.76595 0.26155 0.0
H118 H 0.35546 0.79064 0.19505 0.0
C119 C 0.37333 0.78403 0.21384 0.0
C120 C 0.35553 0.75041 0.22934 0.0
C121 C 0.37924 0.74209 0.25381 0.0
C122 C 0.44749 0.75281 0.2821 0.0
H123 H 0.36645 0.71613 0.26569 0.0
C124 C 0.4391 0.74009 0.3139 0.0
C125 C 0.46451 0.72564 0.33115 0.0
C126 C 0.48125 0.75079 0.26831 0.0
H127 H 0.48818 0.75978 0.24404 0.0
C128 C 0.50574 0.73619 0.28509 0.0
H129 H 0.41347 0.7417 0.32512 0.0
C130 C 0.49743 0.72366 0.31612 0.0
H131 H 0.51744 0.71302 0.32878 0.0
H132 H 0.53143 0.73463 0.27395 0.0
H133 H 0.21574 0.46048 0.78173 0.0
C134 C 0.20088 0.4358 0.76812 0.0
C135 C 0.21738 0.4317 0.73926 0.0
C136 C 0.16643 0.40711 0.78072 0.0
H137 H 0.21245 0.39286 0.70364 0.0
C138 C 0.19809 0.39804 0.72355 0.0
C139 C 0.16167 0.36989 0.73349 0.0
C140 C 0.1465 0.37469 0.76248 0.0
C141 C 0.15642 0.40723 0.81533 0.0
H142 H 0.11974 0.3528 0.77149 0.0
C143 C 0.14766 0.43443 0.83044 0.0
C144 C 0.13889 0.43159 0.86369 0.0
C145 C 0.15717 0.37841 0.83416 0.0
H146 H 0.16431 0.35763 0.82402 0.0
C147 C 0.15016 0.3762 0.86637 0.0
H148 H 0.14679 0.45684 0.8164 0.0
C149 C 0.1415 0.4023 0.88093 0.0
H150 H 0.1376 0.39956 0.90629 0.0
H151 H 0.15182 0.35404 0.88037 0.0
Tb152 Tb 0.99432 0.06392 0.59665 0.0
Tb153 Tb 0.07147 0.11635 0.55856 0.0
C154 C 0.93077 0.01164 0.61347 0.0
C155 C 0.90922 0.99797 0.64274 0.0
C156 C 0.88122 0.96171 0.64426 0.0
C157 C 0.85975 0.94817 0.67164 0.0
C158 C 0.86591 0.97077 0.69796 0.0
C159 C 0.89433 1.00712 0.69641 0.0
C160 C 0.91593 0.0206 0.66902 0.0
C161 C 0.03913 0.12786 0.62667 0.0
C162 C 0.07939 0.0565 0.60525 0.0
C163 C 0.13372 0.17081 0.54314 0.0
C164 C 0.16471 0.18114 0.51919 0.0
C165 C 0.20257 0.21066 0.52517 0.0
C166 C 0.23103 0.22318 0.50159 0.0
C167 C 0.22191 0.20646 0.47156 0.0
C168 C 0.18427 0.17628 0.46593 0.0
C169 C 0.15592 0.16364 0.4896 0.0
C170 C 0.02816 0.05481 0.52591 0.0
C171 C 0.98527 0.12015 0.54964 0.0
O172 O 0.96666 1.01025 0.61239 0.0
O173 O 0.93088 0.04212 0.60232 0.0
O174 O 0.04425 0.1147 0.60164 0.0
O175 O 1.00645 0.1024 0.63764 0.0
O176 O 0.03919 0.04218 0.60861 0.0
O177 O 0.09913 0.08714 0.58962 0.0
O178 O 0.09604 0.16391 0.53213 0.0
O179 O 0.1352 0.14782 0.56515 0.0
O180 O 0.02152 0.06425 0.55263 0.0
O181 O 0.06051 0.08178 0.51629 0.0
O182 O 0.02568 0.13896 0.55207 0.0
O183 O 0.96767 0.08621 0.55907 0.0
H184 H 0.87574 0.94391 0.62413 0.0
H185 H 0.83776 0.92017 0.67199 0.0
H186 H 0.9001 0.02504 0.71645 0.0
H187 H 0.93768 0.04866 0.66829 0.0
H188 H 0.20971 0.22458 0.54783 0.0
H189 H 0.25961 0.24666 0.50654 0.0
H190 H 0.17667 0.16256 0.44316 0.0
H191 H 0.12682 0.14073 0.48457 0.0
Tb192 Tb 0.57847 0.11042 0.08323 0.0
Tb193 Tb 0.48705 0.07331 0.05687 0.0
C194 C 0.65308 0.15343 0.08968 0.0
C195 C 0.68509 0.16431 0.11575 0.0
C196 C 0.7162 0.1995 0.11641 0.0
C197 C 0.74605 0.21064 0.1417 0.0
C198 C 0.74529 0.1866 0.16657 0.0
C199 C 0.71434 0.15117 0.16553 0.0
C200 C 0.6844 0.14016 0.1404 0.0
C201 C 0.53753 0.04747 0.11293 0.0
C202 C 0.51308 0.12785 0.11643 0.0
C203 C 0.41077 0.03717 0.04877 0.0
C204 C 0.38372 1.00853 0.02664 0.0
C205 C 0.39152 0.97809 0.02106 0.0
C206 C 0.36604 0.95166 0.99943 0.0
C207 C 0.33263 0.95538 0.98274 0.0
C208 C 0.32485 0.98581 0.98837 0.0
C209 C 0.35008 0.01206 1.01028 0.0
C210 C 0.53642 0.12761 0.0224 0.0
C211 C 0.5512 0.05138 0.02919 0.0
O212 O 0.62274 0.16308 0.0926 0.0
O213 O 0.64027 0.12011 0.07963 0.0
O214 O 0.52603 0.06345 0.09117 0.0
O215 O 0.57569 0.06885 0.12034 0.0
O216 O 0.55212 0.13288 0.1167 0.0
O217 O 0.48416 0.10697 0.09547 0.0
O218 O 0.43434 0.02859 0.06944 0.0
O219 O 0.4302 0.06914 0.03612 0.0
O220 O 0.53746 0.12559 0.05251 0.0
O221 O 0.5057 0.09912 1.01089 0.0
O222 O 0.51227 0.03934 0.03633 0.0
O223 O 0.57943 0.08295 0.03957 0.0
H224 H 0.71709 0.21848 0.09756 0.0
H225 H 0.76955 0.23808 0.14194 0.0
H226 H 0.71246 0.13229 0.18469 0.0
H227 H 0.66039 0.11296 0.14048 0.0
H228 H 0.41752 0.97483 0.0331 0.0
H229 H 0.3731 0.92876 0.99516 0.0
H230 H 0.29922 0.98923 0.97585 0.0
H231 H 0.34359 0.03535 1.01423 0.0
Tb232 Tb 0.5499 0.63958 0.59748 0.0
Tb233 Tb 0.52183 0.56808 0.56912 0.0
C234 C 0.55085 0.69882 0.6138 0.0
C235 C 0.52655 0.70953 0.63487 0.0
C236 C 0.50448 0.72866 0.62167 0.0
C237 C 0.47695 0.73535 0.63958 0.0
C238 C 0.47139 0.72366 0.67142 0.0
C239 C 0.49471 0.70555 0.68499 0.0
C240 C 0.52182 0.69829 0.6668 0.0
C241 C 0.5786 0.59747 0.62971 0.0
C242 C 0.46242 0.57636 0.61642 0.0
C243 C 0.51847 0.50785 0.55297 0.0
C244 C 0.54863 0.49383 0.54461 0.0
C245 C 0.55442 0.46764 0.5642 0.0
C246 C 0.58215 0.45337 0.55662 0.0
C247 C 0.60441 0.4647 0.52904 0.0
C248 C 0.59917 0.49149 0.50975 0.0
C249 C 0.57162 0.50598 0.51748 0.0
C250 C 0.49736 0.61265 0.53495 0.0
C251 C 0.61046 0.6294 0.55336 0.0
O252 O 0.52983 0.68055 0.58874 0.0
O253 O 0.57581 0.68544 0.62694 0.0
O254 O 0.54261 0.58796 0.61669 0.0
O255 O 0.59897 0.63203 0.6258 0.0
O256 O 0.48972 0.61052 0.61908 0.0
O257 O 0.46827 0.55366 0.59762 0.0
O258 O 0.52118 0.51786 0.58258 0.0
O259 O 0.51168 0.53029 0.53301 0.0
O260 O 0.53165 0.6202 0.54999 0.0
O261 O 0.47577 0.5781 0.53764 0.0
O262 O 0.58725 0.59437 0.55692 0.0
O263 O 0.59891 0.65364 0.56446 0.0
H264 H 0.50736 0.73725 0.59699 0.0
H265 H 0.45899 0.74858 0.62793 0.0
H266 H 0.49174 0.69662 0.70954 0.0
H267 H 0.5383 0.68323 0.67752 0.0
H268 H 0.53727 0.45802 0.58537 0.0
H269 H 0.58594 0.43325 0.57231 0.0
H270 H 0.61541 0.50054 0.48813 0.0
H271 H 0.56803 0.52633 0.50198 0.0
Tb272 Tb 0.04173 0.62465 0.0582 0.0
Tb273 Tb 0.0217 0.55713 0.09551 0.0
C274 C 0.03368 0.67431 0.02565 0.0
C275 C 1.00154 0.68837 0.02133 0.0
C276 C 0.96569 0.66996 1.00179 0.0
C277 C 0.93564 0.6834 0.99725 0.0
C278 C 0.94073 0.71565 1.01198 0.0
C279 C 0.97637 0.73402 0.03169 0.0
C280 C 1.00662 0.72058 0.0362 0.0
C281 C 0.10562 0.62273 0.09264 0.0
C282 C 1.00321 0.61813 0.12669 0.0
C283 C 0.02459 0.50472 0.12719 0.0
C284 C 0.04736 0.48189 0.1269 0.0
C285 C 0.08269 0.49211 0.10956 0.0
C286 C 0.10657 0.4722 0.11224 0.0
C287 C 0.09549 0.44176 0.13231 0.0
C288 C 0.05912 0.43084 0.14863 0.0
C289 C 0.0353 0.45084 0.14597 0.0
C290 C 0.95788 0.56093 0.06227 0.0
C291 C 0.06384 0.5657 0.02761 0.0
O292 O 0.02349 0.64163 1.01505 0.0
O293 O 0.05452 0.6799 0.05324 0.0
O294 O 0.06872 0.61042 0.10013 0.0
O295 O 0.10809 0.64052 0.06618 0.0
O296 O 0.00981 0.63413 0.09832 0.0
O297 O 0.00852 0.58802 0.1321 0.0
O298 O 0.04688 0.53861 0.13448 0.0
O299 O 0.99794 0.50104 0.10324 0.0
O300 O 0.99425 0.57148 0.05384 0.0
O301 O 0.95589 0.54478 0.08952 0.0
O302 O 0.0533 0.54736 0.05478 0.0
O303 O 0.06046 0.5967 0.02319 0.0
H304 H 0.96069 0.6451 0.98986 0.0
H305 H 0.90824 0.6684 0.98228 0.0
H306 H 0.98126 0.75913 0.04309 0.0
H307 H 0.03406 0.73549 0.05116 0.0
H308 H 0.09245 0.51604 0.09469 0.0
H309 H 0.13412 0.48098 0.09903 0.0
H310 H 0.04998 0.40774 0.16448 0.0
H311 H 1.00815 0.44269 0.15958 0.0
H312 H 0.28896 0.26532 0.29403 0.0
H313 H 0.41437 0.28911 0.32893 0.0
H314 H 0.39141 0.27433 0.38375 0.0
H315 H 0.2582 0.29892 0.36375 0.0
H316 H 0.20706 0.26308 0.36179 0.0
H317 H 0.23412 0.27891 0.32592 0.0
H318 H 0.22401 0.21359 0.31354 0.0
H319 H 0.19735 0.19763 0.34951 0.0
H320 H 0.24188 0.18918 0.34268 0.0
H321 H 0.35441 0.25379 0.43399 0.0
H322 H 0.30568 0.22885 0.47655 0.0
H323 H 0.20404 0.21723 0.4088 0.0
C324 C 0.3116 0.26817 0.3134 0.0
C325 C 0.35342 0.2786 0.30751 0.0
C326 C 0.38219 0.28122 0.33316 0.0
C327 C 0.36946 0.27294 0.36429 0.0
C328 C 0.32784 0.26195 0.36927 0.0
C329 C 0.29932 0.25962 0.34459 0.0
C330 C 0.25611 0.24503 0.35613 0.0
C331 C 0.2378 0.27317 0.35164 0.0
C332 C 0.22821 0.20924 0.33947 0.0
C333 C 0.26477 0.23916 0.39104 0.0
C334 C 0.30636 0.24937 0.39818 0.0
C335 C 0.32178 0.24595 0.42877 0.0
C336 C 0.29392 0.23184 0.45278 0.0
C337 C 0.25113 0.22109 0.44597 0.0
C338 C 0.23654 0.22486 0.41465 0.0
H339 H 0.25048 0.88822 0.80657 0.0
H340 H 0.22199 0.77952 0.84101 0.0
H341 H 0.23548 0.80173 0.89646 0.0
H342 H 0.33391 0.93022 0.85769 0.0
H343 H 0.32557 0.97025 0.86416 0.0
H344 H 0.30589 0.94519 0.82779 0.0
H345 H 0.23224 0.9382 0.83812 0.0
H346 H 0.25177 0.96365 0.87447 0.0
H347 H 0.21021 0.91924 0.87529 0.0
H348 H 0.26252 0.83665 0.94674 0.0
H349 H 0.29917 0.88183 0.9888 0.0
H350 H 0.31027 0.96801 0.92188 0.0
C351 C 0.2455 0.86898 0.8259 0.0
C352 C 0.23482 0.83217 0.81972 0.0
C353 C 0.22998 0.80782 0.84543 0.0
C354 C 0.23743 0.82017 0.87693 0.0
C355 C 0.24948 0.8569 0.88226 0.0
C356 C 0.25308 0.88094 0.85749 0.0
C357 C 0.2709 0.91952 0.8694 0.0
C358 C 0.31147 0.94263 0.85384 0.0
C359 C 0.23939 0.93613 0.864 0.0
C360 C 0.27829 0.91352 0.90449 0.0
C361 C 0.26522 0.87718 0.91149 0.0
C362 C 0.27209 0.86514 0.94172 0.0
C363 C 0.29315 0.89093 0.96536 0.0
C364 C 0.30714 0.92828 0.95858 0.0
C365 C 0.29898 0.93958 0.92788 0.0
H366 H 0.54403 0.45075 0.769 0.0
H367 H 0.67027 0.51422 0.80371 0.0
H368 H 0.68061 0.55287 0.75568 0.0
H369 H 0.56155 0.45803 0.68323 0.0
H370 H 0.51381 0.46186 0.67264 0.0
H371 H 0.51804 0.43645 0.70744 0.0
H372 H 0.49512 0.47564 0.74211 0.0
H373 H 0.49093 0.5012 0.7075 0.0
H374 H 0.5232 0.52409 0.7418 0.0
H375 H 0.67491 0.58846 0.70614 0.0
H376 H 0.65434 0.6174 0.65999 0.0
H377 H 0.53075 0.53223 0.65838 0.0
C378 C 0.57407 0.47261 0.76658 0.0
C379 C 0.60633 0.47932 0.79062 0.0
C380 C 0.64517 0.508 0.78578 0.0
C381 C 0.65123 0.5303 0.75855 0.0
C382 C 0.61826 0.52364 0.73609 0.0
C383 C 0.58048 0.49528 0.73976 0.0
C384 C 0.5492 0.49516 0.71332 0.0
C385 C 0.53481 0.46083 0.69295 0.0
C386 C 0.51246 0.49927 0.72701 0.0
C387 C 0.57492 0.52843 0.69449 0.0
C388 C 0.61482 0.54423 0.70784 0.0
C389 C 0.64387 0.57604 0.69544 0.0
C390 C 0.63183 0.59234 0.66916 0.0
C391 C 0.59097 0.57713 0.65537 0.0
C392 C 0.56234 0.54437 0.66806 0.0
H393 H 0.88124 0.66479 0.26281 0.0
H394 H 0.99308 0.75986 0.28556 0.0
H395 H 0.02907 0.74106 0.24608 0.0
H396 H 0.9333 0.60324 0.24989 0.0
H397 H 0.89647 0.57934 0.21811 0.0
H398 H 0.88098 0.59887 0.24993 0.0
H399 H 0.85537 0.6343 0.20855 0.0
H400 H 0.87134 0.61537 0.17665 0.0
H401 H 0.89047 0.6637 0.18066 0.0
H402 H 0.0503 0.71539 0.1982 0.0
H403 H 0.05769 0.68156 0.15275 0.0
H404 H 0.93384 0.60015 0.16288 0.0
C405 C 0.91374 0.68104 0.2603 0.0
C406 C 0.93443 0.71369 0.27808 0.0
C407 C 0.97668 0.73444 0.27317 0.0
C408 C 0.99725 0.72407 0.25036 0.0
C409 C 0.97558 0.69241 0.23263 0.0
C410 C 0.93494 0.67069 0.23797 0.0
C411 C 0.91843 0.63818 0.2155 0.0
C412 C 0.90659 0.60281 0.23449 0.0
C413 C 0.88173 0.63789 0.19408 0.0
C414 C 0.95568 0.6453 0.19604 0.0
C415 C 0.98825 0.67695 0.20618 0.0
C416 C 0.02511 0.69032 0.19065 0.0
C417 C 0.02901 0.67094 0.16463 0.0
C418 C 0.99665 0.63795 0.15418 0.0
C419 C 0.95945 0.62499 0.17038 0.0
H420 H 0.38186 0.22762 0.17871 0.0
H421 H 0.46754 0.26108 0.26157 0.0
H422 H 0.50488 0.22696 0.24182 0.0
H423 H 0.37726 0.13699 0.17405 0.0
H424 H 0.37388 0.13658 0.13113 0.0
H425 H 0.35366 0.16298 0.15226 0.0
H426 H 0.39938 0.22033 0.12157 0.0
H427 H 0.4197 0.19411 0.10034 0.0
H428 H 0.45425 0.23351 0.12241 0.0
H429 H 0.53509 0.19229 0.21111 0.0
H430 H 0.55382 0.15697 0.17323 0.0
H431 H 0.44629 0.14446 0.11184 0.0
C432 C 0.40849 0.2277 0.19265 0.0
C433 C 0.42207 0.24697 0.22153 0.0
C434 C 0.45667 0.24624 0.23943 0.0
C435 C 0.47805 0.22707 0.22838 0.0
C436 C 0.46401 0.2085 0.19964 0.0
C437 C 0.4298 0.20839 0.18219 0.0
C438 C 0.42103 0.18637 0.15208 0.0
C439 C 0.37896 0.15379 0.15242 0.0
C440 C 0.42377 0.21 0.12235 0.0
C441 C 0.45603 0.17454 0.15504 0.0
C442 C 0.48058 0.18764 0.18256 0.0
C443 C 0.51584 0.18155 0.18966 0.0
C444 C 0.52629 0.16157 0.16798 0.0
C445 C 0.50131 0.14774 0.13976 0.0
C446 C 0.46563 0.15417 0.13345 0.0
H447 H 0.09193 0.87589 0.66804 0.0
H448 H 0.22494 0.9291 0.66698 0.0
H449 H 0.2202 0.98685 0.65198 0.0
H450 H 0.06935 0.91875 0.60127 0.0
H451 H 0.0253 0.92191 0.61713 0.0
H452 H 0.04005 0.88624 0.63018 0.0
H453 H 0.04482 0.90615 0.68893 0.0
H454 H 0.02989 0.94184 0.67601 0.0
H455 H 0.07702 0.95225 0.70004 0.0
H456 H 0.19895 0.03745 0.63151 0.0
H457 H 0.16377 0.076 0.61136 0.0
H458 H 0.04566 0.98797 0.62832 0.0
C459 C 0.12008 0.89983 0.66501 0.0
C460 C 0.15876 0.89823 0.66852 0.0
C461 C 0.19502 0.93002 0.66456 0.0
C462 C 0.19257 0.9628 0.65596 0.0
C463 C 0.15369 0.96326 0.65194 0.0
C464 C 0.11818 0.93258 0.6568 0.0
C465 C 0.08002 0.93944 0.65021 0.0
C466 C 0.05207 0.91516 0.62309 0.0
C467 C 0.05657 0.93465 0.68061 0.0
C468 C 0.09937 0.97854 0.64013 0.0
C469 C 0.14182 0.99209 0.6412 0.0
C470 C 0.16572 0.02722 0.63107 0.0
C471 C 0.14552 0.0489 0.61959 0.0
C472 C 0.10197 0.03527 0.61849 0.0
C473 C 0.07901 0.99969 0.62919 0.0
H474 H 0.77455 0.42282 0.95034 0.0
H475 H 0.72389 0.50332 0.94149 0.0
H476 H 0.78518 0.54645 0.97181 0.0
H477 H 0.81173 0.44263 0.03082 0.0
H478 H 0.85704 0.43447 0.0265 0.0
H479 H 0.81138 0.41133 1.00118 0.0
H480 H 0.85354 0.43579 0.95132 0.0
H481 H 0.89938 0.45907 0.97652 0.0
H482 H 0.88273 0.48378 0.94686 0.0
H483 H 0.85159 0.58048 1.006 0.0
H484 H 0.91493 0.60048 0.04206 0.0
H485 H 0.91936 0.49662 0.03122 0.0
C486 C 0.77603 0.44944 0.95469 0.0
C487 C 0.74391 0.45935 0.94309 0.0
C488 C 0.74807 0.49491 0.94926 0.0
C489 C 0.7828 0.51968 0.96677 0.0
C490 C 0.81334 0.50868 0.97825 0.0
C491 C 0.81016 0.47431 0.97248 0.0
C492 C 0.84593 0.46833 0.98892 0.0
C493 C 0.83059 0.43736 1.0133 0.0
C494 C 0.87193 0.46134 0.96444 0.0
C495 C 0.86951 0.50451 1.00523 0.0
C496 C 0.85056 0.52767 0.99851 0.0
C497 C 0.86661 0.56251 1.01131 0.0
C498 C 0.90255 0.5737 0.03171 0.0
C499 C 0.92178 0.55007 0.03924 0.0
C500 C 0.90516 0.51519 0.02567 0.0
H501 H 0.80022 0.76923 0.45807 0.0
H502 H 0.82841 0.67913 0.43414 0.0
H503 H 0.76986 0.63809 0.4644 0.0
H504 H 0.77249 0.74066 0.53867 0.0
H505 H 0.73193 0.75621 0.53734 0.0
H506 H 0.7757 0.77826 0.51352 0.0
H507 H 0.72692 0.7669 0.46282 0.0
H508 H 0.68301 0.74481 0.48647 0.0
H509 H 0.69036 0.72152 0.45325 0.0
H510 H 0.70696 0.60641 0.49765 0.0
H511 H 0.64625 0.58738 0.53013 0.0
H512 H 0.6605 0.69854 0.53375 0.0
C513 C 0.79466 0.74098 0.45945 0.0
C514 C 0.81958 0.72772 0.4436 0.0
C515 C 0.80993 0.69019 0.44564 0.0
C516 C 0.77675 0.66661 0.46301 0.0
C517 C 0.75315 0.68072 0.47841 0.0
C518 C 0.76176 0.7171 0.47678 0.0
C519 C 0.73164 0.72552 0.49531 0.0
C520 C 0.7543 0.75171 0.52285 0.0
C521 C 0.7065 0.74057 0.47314 0.0
C522 C 0.70465 0.68824 0.50769 0.0
C523 C 0.7175 0.66271 0.49765 0.0
C524 C 0.69687 0.6263 0.50568 0.0
C525 C 0.66229 0.61572 0.52424 0.0
C526 C 0.6484 0.64135 0.53484 0.0
C527 C 0.67028 0.67817 0.5264 0.0
H528 H 0.31109 0.43054 0.16957 0.0
H529 H 0.24594 0.31369 0.17069 0.0
H530 H 0.17986 0.31924 0.16001 0.0
H531 H 0.23477 0.4504 0.20661 0.0
H532 H 0.24303 0.48965 0.18217 0.0
H533 H 0.28458 0.4761 0.19121 0.0
H534 H 0.29386 0.47358 0.13084 0.0
H535 H 0.25216 0.48688 0.12163 0.0
H536 H 0.25048 0.44586 0.10507 0.0
H537 H 0.12093 0.33807 0.14767 0.0
H538 H 0.0743 0.36862 0.1359 0.0
H539 H 0.17925 0.4727 0.1421 0.0
C540 C 0.28298 0.40605 0.16747 0.0
C541 C 0.28371 0.37167 0.17093 0.0
C542 C 0.24611 0.34034 0.16852 0.0
C543 C 0.20847 0.34322 0.16224 0.0
C544 C 0.20903 0.3776 0.15846 0.0
C545 C 0.24535 0.40843 0.16112 0.0
C546 C 0.23788 0.44219 0.1557 0.0
C547 C 0.25082 0.46597 0.18571 0.0
C548 C 0.2599 0.46336 0.12658 0.0
C549 C 0.19166 0.42559 0.14938 0.0
C550 C 0.17546 0.38833 0.15113 0.0
C551 C 0.13331 0.36725 0.1463 0.0
C552 C 0.10708 0.3848 0.13971 0.0
C553 C 0.12318 0.423 0.1379 0.0
C554 C 0.16606 0.44346 0.14275 0.0
H555 H 0.64748 0.34058 0.98266 0.0
H556 H 0.62142 0.31013 0.88296 0.0
H557 H 0.59315 0.24578 0.89834 0.0
H558 H 0.67638 0.26698 1.00915 0.0
H559 H 0.65206 0.26061 0.04641 0.0
H560 H 0.67222 0.30457 0.02788 0.0
H561 H 0.60087 0.30668 0.02887 0.0
H562 H 0.58054 0.26283 0.04749 0.0
H563 H 0.55614 0.27046 1.0109 0.0
H564 H 0.56579 0.18488 0.92398 0.0
H565 H 0.53828 0.13101 0.95827 0.0
H566 H 0.58106 0.19903 0.04224 0.0
C567 C 0.63631 0.32036 0.96406 0.0
C568 C 0.6368 0.33063 0.93145 0.0
C569 C 0.62114 0.30316 0.90799 0.0
C570 C 0.60524 0.26645 0.91652 0.0
C571 C 0.605 0.2573 0.94872 0.0
C572 C 0.61999 0.28337 0.97221 0.0
C573 C 0.61437 0.26589 1.00511 0.0
C574 C 0.65625 0.27506 0.02321 0.0
C575 C 0.58631 0.27713 0.02421 0.0
C576 C 0.59353 0.22597 0.99641 0.0
C577 C 0.5888 0.22181 0.96368 0.0
C578 C 0.56949 0.18783 0.94961 0.0
C579 C 0.55396 0.15732 0.96935 0.0
C580 C 0.55757 0.16064 1.00295 0.0
C581 C 0.57822 0.19553 1.01666 0.0
H582 H 0.93125 0.84184 0.48001 0.0
H583 H 0.93351 0.87635 0.38119 0.0
H584 H 0.96088 0.93963 0.39886 0.0
H585 H 0.89745 0.90675 0.51042 0.0
H586 H 0.92848 0.91445 0.54729 0.0
H587 H 0.91074 0.8715 0.52739 0.0
H588 H 0.98579 0.87793 0.52648 0.0
H589 H 1.00368 0.9207 0.54666 0.0
H590 H 0.02407 0.91781 0.50927 0.0
H591 H 0.98729 0.99963 0.42672 0.0
H592 H 0.0142 0.05227 0.46249 0.0
H593 H 0.99271 0.98125 0.54452 0.0
C594 C 0.93731 0.86254 0.4619 0.0
C595 C 0.92999 0.85324 0.42882 0.0
C596 C 0.9393 0.88194 0.40646 0.0
C597 C 0.95451 0.91826 0.41635 0.0
C598 C 0.96042 0.92615 0.44889 0.0
C599 C 0.95237 0.89917 0.47142 0.0
C600 C 0.96145 0.91532 0.50499 0.0
C601 C 0.92219 0.90115 0.52362 0.0
C602 C 0.99579 0.90747 0.52291 0.0
C603 C 0.97588 0.95563 0.4978 0.0
C604 C 0.97492 0.961 0.46516 0.0
C605 C 0.98785 0.9956 0.45224 0.0
C606 C 1.00296 0.02546 0.47288 0.0
C607 C 1.0049 0.02123 0.50643 0.0
C608 C 0.99058 0.98555 0.51908 0.0
H609 H 0.32344 0.81793 0.70906 0.0
H610 H 0.26322 0.73039 0.77457 0.0
H611 H 0.31224 0.70377 0.76349 0.0
H612 H 0.34528 0.76686 0.65119 0.0
H613 H 0.3949 0.80208 0.64335 0.0
H614 H 0.35485 0.81357 0.65645 0.0
H615 H 0.40346 0.84966 0.70371 0.0
H616 H 0.44363 0.83815 0.6908 0.0
H617 H 0.42694 0.82756 0.73078 0.0
H618 H 0.36593 0.68559 0.74274 0.0
H619 H 0.42108 0.67812 0.71564 0.0
H620 H 0.44974 0.78122 0.66794 0.0
C621 C 0.32053 0.79304 0.72088 0.0
C622 C 0.28955 0.77583 0.74234 0.0
C623 C 0.28686 0.74372 0.75794 0.0
C624 C 0.31448 0.72851 0.75181 0.0
C625 C 0.34486 0.74623 0.73048 0.0
C626 C 0.34822 0.77795 0.7155 0.0
C627 C 0.3839 0.79205 0.69406 0.0
C628 C 0.36882 0.79372 0.6592 0.0
C629 C 0.41641 0.82904 0.70554 0.0
C630 C 0.39974 0.76299 0.69888 0.0
C631 C 0.37681 0.73671 0.71984 0.0
C632 C 0.38452 0.70629 0.72666 0.0
C633 C 0.41622 0.70247 0.71132 0.0
C634 C 0.44009 0.72912 0.68964 0.0
C635 C 0.43195 0.76004 0.68398 0.0
H636 H 0.765 0.82708 0.83494 0.0
H637 H 0.72031 0.90224 0.87127 0.0
H638 H 0.7509 0.94423 0.8272 0.0
H639 H 0.86183 0.89366 0.81221 0.0
H640 H 0.86278 0.87 0.77689 0.0
H641 H 0.83572 0.84508 0.81046 0.0
H642 H 0.76891 0.81528 0.77426 0.0
H643 H 0.79579 0.84005 0.74055 0.0
H644 H 0.74945 0.84348 0.75117 0.0
H645 H 0.78858 0.97905 0.78041 0.0
H646 H 0.82867 1.00326 0.73293 0.0
H647 H 0.8499 0.90592 0.7279 0.0
C648 C 0.76158 0.85234 0.83358 0.0
C649 C 0.74001 0.86125 0.85642 0.0
C650 C 0.73603 0.89451 0.85372 0.0
C651 C 0.75356 0.91867 0.82892 0.0
C652 C 0.77494 0.90917 0.80701 0.0
C653 C 0.77888 0.87676 0.80901 0.0
C654 C 0.80392 0.8733 0.78266 0.0
C655 C 0.8434 0.87035 0.79638 0.0
C656 C 0.77795 0.84112 0.76087 0.0
C657 C 0.81361 0.90892 0.76563 0.0
C658 C 0.79668 0.92925 0.78007 0.0
C659 C 0.80195 0.96337 0.76886 0.0
C660 C 0.82497 0.97698 0.74203 0.0
C661 C 0.84236 0.95648 0.72673 0.0
C662 C 0.83656 0.92204 0.73884 0.0
H663 H 0.82063 0.2929 0.32724 0.0
H664 H 0.85073 0.20435 0.36095 0.0
H665 H 0.84755 0.18489 0.30585 0.0
H666 H 0.74359 0.24269 0.27663 0.0
H667 H 0.75124 0.27601 0.24565 0.0
H668 H 0.7685 0.29019 0.28598 0.0
H669 H 0.84252 0.32774 0.2684 0.0
H670 H 0.82536 0.31381 0.22775 0.0
H671 H 0.86794 0.30623 0.24651 0.0
H672 H 0.82588 0.16653 0.24987 0.0
H673 H 0.78744 0.15107 0.19758 0.0
H674 H 0.76702 0.24887 0.20012 0.0
C675 C 0.8278 0.27007 0.32298 0.0
C676 C 0.83627 0.25045 0.34859 0.0
C677 C 0.84524 0.22057 0.34193 0.0
C678 C 0.84333 0.20913 0.31056 0.0
C679 C 0.8325 0.22781 0.28603 0.0
C680 C 0.82522 0.25789 0.29184 0.0
C681 C 0.80733 0.26945 0.26224 0.0
C682 C 0.76518 0.26955 0.26798 0.0
C683 C 0.83761 0.30651 0.25053 0.0
C684 C 0.80311 0.23977 0.23951 0.0
C685 C 0.81891 0.21662 0.2534 0.0
C686 C 0.81433 0.18492 0.23843 0.0
C687 C 0.79218 0.1762 0.20888 0.0
C688 C 0.77453 0.19891 0.19481 0.0
C689 C 0.78118 0.23157 0.20994 0.0
H690 H 0.43125 0.65715 0.3575 0.0
H691 H 0.49402 0.77047 0.382 0.0
H692 H 0.50612 0.75396 0.43758 0.0
H693 H 0.38193 0.62712 0.43624 0.0
H694 H 0.38778 0.58519 0.43568 0.0
H695 H 0.38038 0.60598 0.3988 0.0
H696 H 0.44722 0.60517 0.37935 0.0
H697 H 0.45522 0.58495 0.4163 0.0
H698 H 0.49485 0.62664 0.40308 0.0
H699 H 0.52293 0.72505 0.48734 0.0
H700 H 0.53217 0.68645 0.53049 0.0
H701 H 0.45086 0.59097 0.47763 0.0
C702 C 0.44588 0.6784 0.37497 0.0
C703 C 0.4607 0.71524 0.36558 0.0
C704 C 0.48131 0.74224 0.38883 0.0
C705 C 0.48871 0.73303 0.42041 0.0
C706 C 0.47476 0.69656 0.42873 0.0
C707 C 0.45269 0.6696 0.40694 0.0
C708 C 0.44215 0.63248 0.422 0.0
C709 C 0.39527 0.61145 0.42325 0.0
C710 C 0.46099 0.61106 0.40411 0.0
C711 C 0.46269 0.64276 0.45532 0.0
C712 C 0.4818 0.67991 0.45846 0.0
C713 C 0.50666 0.69598 0.48558 0.0
C714 C 0.51157 0.67372 0.51023 0.0
C715 C 0.49075 0.63558 0.50848 0.0
C716 C 0.46595 0.62002 0.48042 0.0
H717 H 0.08789 0.41801 0.91474 0.0
H718 H 0.165 0.50626 0.85566 0.0
H719 H 0.15371 0.54938 0.89024 0.0
H720 H 0.0157 0.45467 0.9346 0.0
H721 H 0.01215 0.43803 0.97494 0.0
H722 H 0.02348 0.41434 0.94403 0.0
H723 H 0.08961 0.41944 0.97663 0.0
H724 H 0.07866 0.44335 1.00755 0.0
H725 H 0.12736 0.46331 0.98925 0.0
H726 H 0.135 0.58359 0.93372 0.0
H727 H 0.11139 0.60479 0.97963 0.0
H728 H 0.05139 0.4945 1.01332 0.0
C729 C 0.10297 0.44639 0.90887 0.0
C730 C 0.12808 0.45823 0.88205 0.0
C731 C 0.14548 0.49587 0.87547 0.0
C732 C 0.13946 0.52074 0.89535 0.0
C733 C 0.11596 0.508 0.92212 0.0
C734 C 0.09796 0.47155 0.92879 0.0
C735 C 0.07521 0.46454 0.95953 0.0
C736 C 0.02889 0.44153 0.95287 0.0
C737 C 0.09382 0.44659 0.98473 0.0
C738 C 0.08322 0.50276 0.96947 0.0
C739 C 0.10647 0.52744 0.94737 0.0
C740 C 0.11696 0.5643 0.95102 0.0
C741 C 0.1033 0.57615 0.97742 0.0
C742 C 0.0796 0.55163 1.00069 0.0
C743 C 0.06983 0.51427 0.99649 0.0
H744 H 0.53239 0.86245 0.96605 0.0
H745 H 0.66627 0.9117 0.96684 0.0
H746 H 0.66655 0.97072 0.97712 0.0
H747 H 0.51356 0.9389 0.93303 0.0
H748 H 0.47317 0.93237 0.95931 0.0
H749 H 0.48226 0.89424 0.94726 0.0
H750 H 0.49118 0.87796 1.00647 0.0
H751 H 0.48176 0.9158 1.0186 0.0
H752 H 0.52835 0.91168 0.03274 0.0
H753 H 0.65379 0.02372 0.99052 0.0
H754 H 0.6291 0.06621 1.01213 0.0
H755 H 0.50405 0.98258 1.00725 0.0
C756 C 0.56182 0.88557 0.96822 0.0
C757 C 0.59921 0.88217 0.96464 0.0
C758 C 0.63696 0.9134 0.96801 0.0
C759 C 0.63756 0.94722 0.97411 0.0
C760 C 0.60028 0.94954 0.97735 0.0
C761 C 0.56311 0.91955 0.975 0.0
C762 C 0.52792 0.92899 0.98289 0.0
C763 C 0.49743 0.92329 0.95389 0.0
C764 C 0.50604 0.90733 1.0119 0.0
C765 C 0.55138 0.96876 0.99063 0.0
C766 C 0.59296 0.98014 0.98664 0.0
C767 C 0.62125 0.01527 0.99357 0.0
C768 C 0.60687 0.03922 1.00582 0.0
C769 C 0.56462 0.02778 1.0114 0.0
C770 C 0.53646 0.99229 1.00298 0.0
H771 H 0.92173 0.2613 0.45115 0.0
H772 H 0.79871 0.20198 0.48399 0.0
H773 H 0.82439 0.16597 0.51951 0.0
H774 H 0.94494 0.18801 0.4452 0.0
H775 H 0.99844 0.20992 0.45881 0.0
H776 H 0.97295 0.23609 0.44022 0.0
H777 H 0.9927 0.27779 0.48962 0.0
H778 H 0.01896 0.25212 0.50821 0.0
H779 H 0.97937 0.25821 0.52849 0.0
H780 H 0.85956 0.12973 0.54412 0.0
H781 H 0.90454 0.09941 0.56126 0.0
H782 H 1.00551 0.18167 0.51321 0.0
C783 C 0.90047 0.2414 0.46647 0.0
C784 C 0.85826 0.23478 0.46495 0.0
C785 C 0.83133 0.20827 0.4852 0.0
C786 C 0.84556 0.18739 0.50532 0.0
C787 C 0.88685 0.1935 0.50515 0.0
C788 C 0.91418 0.22026 0.48673 0.0
C789 C 0.95624 0.21926 0.4892 0.0
C790 C 0.96886 0.21293 0.45641 0.0
C791 C 0.98874 0.2539 0.50482 0.0
C792 C 0.94771 0.18685 0.51083 0.0
C793 C 0.90753 0.17257 0.51984 0.0
C794 C 0.89134 0.14105 0.53779 0.0
C795 C 0.91704 0.12383 0.54713 0.0
C796 C 0.95853 0.13825 0.5386 0.0
C797 C 0.97405 0.17029 0.52036 0.0
H798 H 0.2879 0.7616 0.20428 0.0
H799 H 0.32994 0.67655 0.22383 0.0
H800 H 0.26738 0.63322 0.19498 0.0
H801 H 0.17626 0.70605 0.20521 0.0
H802 H 0.1649 0.73032 0.1722 0.0
H803 H 0.20917 0.75304 0.19907 0.0
H804 H 0.25612 0.77152 0.15139 0.0
H805 H 0.21214 0.7487 0.12442 0.0
H806 H 0.25572 0.73707 0.12515 0.0
H807 H 0.20208 0.59977 0.15939 0.0
H808 H 0.1419 0.58067 0.1201 0.0
H809 H 0.14725 0.689 0.1197 0.0
C810 C 0.28406 0.73384 0.20286 0.0
C811 C 0.31439 0.72285 0.21665 0.0
C812 C 0.30718 0.6859 0.21429 0.0
C813 C 0.27173 0.661 0.1976 0.0
C814 C 0.24359 0.67326 0.18314 0.0
C815 C 0.24941 0.70888 0.18571 0.0
C816 C 0.21678 0.71619 0.16569 0.0
C817 C 0.19021 0.72704 0.18681 0.0
C818 C 0.23637 0.74507 0.14015 0.0
C819 C 0.19217 0.67937 0.15085 0.0
C820 C 0.20755 0.65469 0.16162 0.0
C821 C 0.18984 0.61893 0.15092 0.0
C822 C 0.15579 0.60829 0.1286 0.0
C823 C 0.14043 0.63348 0.11683 0.0
C824 C 0.15873 0.66934 0.12825 0.0
H825 H 0.24167 0.44166 0.67621 0.0
H826 H 0.28226 0.48951 0.77039 0.0
H827 H 0.34572 0.53412 0.74828 0.0
H828 H 0.34048 0.4458 0.65938 0.0
H829 H 0.33422 0.45368 0.6174 0.0
H830 H 0.28971 0.4287 0.63969 0.0
H831 H 0.25804 0.47341 0.62118 0.0
H832 H 0.30258 0.49871 0.59898 0.0
H833 H 0.28694 0.52108 0.62842 0.0
H834 H 0.40679 0.57417 0.71491 0.0
H835 H 0.4609 0.60036 0.67627 0.0
H836 H 0.38501 0.51995 0.60663 0.0
C837 C 0.26374 0.46079 0.69284 0.0
C838 C 0.25578 0.46097 0.72567 0.0
C839 C 0.2861 0.4883 0.74525 0.0
C840 C 0.32282 0.51387 0.73286 0.0
C841 C 0.32975 0.51186 0.70078 0.0
C842 C 0.30115 0.48557 0.68121 0.0
C843 C 0.31705 0.48711 0.64824 0.0
C844 C 0.32058 0.45172 0.64075 0.0
C845 C 0.28951 0.49558 0.6227 0.0
C846 C 0.35929 0.51838 0.65218 0.0
C847 C 0.36569 0.53287 0.68245 0.0
C848 C 0.402 0.5627 0.69131 0.0
C849 C 0.43259 0.57756 0.66905 0.0
C850 C 0.42753 0.56227 0.6383 0.0
C851 C 0.3901 0.53226 0.62991 0.0
H852 H 0.78021 0.76824 0.90656 0.0
H853 H 0.75052 0.80553 0.99311 0.0
H854 H 0.79954 0.78693 0.02429 0.0
H855 H 0.79248 0.69048 0.94099 0.0
H856 H 0.83493 0.69608 0.91723 0.0
H857 H 0.7962 0.71098 0.9021 0.0
H858 H 0.85288 0.77524 0.89333 0.0
H859 H 0.89176 0.76058 0.90854 0.0
H860 H 0.88772 0.79872 0.92629 0.0
H861 H 0.85424 0.76665 0.04565 0.0
H862 H 0.9081 0.74356 0.05571 0.0
H863 H 0.90226 0.72068 0.95497 0.0
C864 C 0.78393 0.77239 0.93209 0.0
C865 C 0.7614 0.78812 0.94744 0.0
C866 C 0.76695 0.79294 0.98092 0.0
C867 C 0.79493 0.78272 0.9988 0.0
C868 C 0.81702 0.76768 0.98284 0.0
C869 C 0.81165 0.76234 0.95026 0.0
C870 C 0.83955 0.74614 0.93877 0.0
C871 C 0.81427 0.7087 0.9239 0.0
C872 C 0.86977 0.7717 0.91536 0.0
C873 C 0.86159 0.74333 0.96994 0.0
C874 C 0.84829 0.75595 0.9951 0.0
C875 C 0.86479 0.75657 0.02615 0.0
C876 C 0.89549 0.74364 0.03161 0.0
C877 C 0.90914 0.7302 1.00616 0.0
C878 C 0.89198 0.73027 0.97497 0.0
H879 H 0.47194 0.87898 0.23619 0.0
H880 H 0.40068 0.81259 0.15591 0.0
H881 H 0.42228 0.86608 0.12157 0.0
H882 H 0.45543 0.95823 0.21639 0.0
H883 H 0.50733 0.99009 0.22697 0.0
H884 H 0.48641 0.94666 0.24635 0.0
H885 H 0.54734 0.93365 0.22949 0.0
H886 H 0.56868 0.97721 0.21035 0.0
H887 H 0.5585 0.93689 0.18806 0.0
H888 H 0.44617 0.92694 0.0962 0.0
H889 H 0.48055 0.99047 0.07931 0.0
H890 H 0.54374 0.01889 0.17264 0.0
C891 C 0.46125 0.87562 0.21133 0.0
C892 C 0.43309 0.84128 0.19937 0.0
C893 C 0.42057 0.83844 0.1664 0.0
C894 C 0.43299 0.86879 0.14642 0.0
C895 C 0.45916 0.90221 0.15915 0.0
C896 C 0.47415 0.90586 0.19058 0.0
C897 C 0.50336 0.94513 0.19748 0.0
C898 C 0.48715 0.96095 0.22334 0.0
C899 C 0.54707 0.94841 0.2069 0.0
C900 C 0.50176 0.96275 0.1652 0.0
C901 C 0.47551 0.93739 0.14365 0.0
C902 C 0.46719 0.94699 0.11277 0.0
C903 C 0.48663 0.98332 0.10341 0.0
C904 C 0.51479 1.00978 0.12454 0.0
C905 C 0.52247 0.99923 0.15589 0.0
H906 H 0.11672 0.29633 0.75089 0.0
H907 H 0.15834 0.36562 0.66823 0.0
H908 H 0.13491 0.31238 0.63401 0.0
H909 H 0.13949 0.22316 0.72662 0.0
H910 H 0.09304 0.18753 0.7399 0.0
H911 H 0.11381 0.23098 0.75919 0.0
H912 H 0.04439 0.23612 0.74788 0.0
H913 H 0.02328 0.19251 0.72885 0.0
H914 H 0.02218 0.23126 0.70764 0.0
H915 H 0.113 0.2517 0.60833 0.0
H916 H 0.08214 0.18777 0.59172 0.0
H917 H 0.04455 0.15533 0.68769 0.0
C918 C 0.12054 0.30046 0.72558 0.0
C919 C 0.14133 0.33598 0.71294 0.0
C920 C 0.14468 0.3393 0.67934 0.0
C921 C 0.13103 0.30898 0.65936 0.0
C922 C 0.11242 0.27469 0.67264 0.0
C923 C 0.10591 0.27011 0.7048 0.0
C924 C 0.08296 0.22985 0.71223 0.0
C925 C 0.10888 0.21714 0.73589 0.0
C926 C 0.04069 0.22197 0.7249 0.0
C927 C 0.07834 0.21284 0.6794 0.0
C928 C 0.09628 0.23939 0.65709 0.0
C929 C 0.09819 0.23073 0.62551 0.0
C930 C 0.08068 0.19418 0.61625 0.0
C931 C 0.06042 0.16629 0.6381 0.0
C932 C 0.05941 0.17596 0.67023 0.0
H933 H 0.64935 0.29624 0.48701 0.0
H934 H 0.7561 0.37011 0.43901 0.0
H935 H 0.74662 0.4219 0.46061 0.0
H936 H 0.58863 0.34218 0.46925 0.0
H937 H 0.56392 0.33303 0.5065 0.0
H938 H 0.58328 0.30232 0.49189 0.0
H939 H 0.62777 0.309 0.54454 0.0
H940 H 0.60836 0.33971 0.55941 0.0
H941 H 0.6631 0.35336 0.55808 0.0
H942 H 0.72004 0.4652 0.48197 0.0
H943 H 0.67951 0.49613 0.50198 0.0
H944 H 0.58878 0.39301 0.53358 0.0
C945 C 0.67116 0.32332 0.48146 0.0
C946 C 0.70348 0.32916 0.46138 0.0
C947 C 0.73147 0.365 0.45475 0.0
C948 C 0.72624 0.39457 0.46682 0.0
C949 C 0.69313 0.38779 0.48568 0.0
C950 C 0.66631 0.35299 0.49319 0.0
C951 C 0.63119 0.35268 0.51158 0.0
C952 C 0.58931 0.3313 0.49372 0.0
C953 C 0.63272 0.33781 0.54541 0.0
C954 C 0.64147 0.39264 0.51218 0.0
C955 C 0.67763 0.41257 0.4976 0.0
C956 C 0.69196 0.44989 0.49378 0.0
C957 C 0.66854 0.46717 0.50496 0.0
C958 C 0.631 0.44706 0.51949 0.0
C959 C 0.61778 0.40936 0.52333 0.0
loop_
_geom_bond_atom_site_label_1
_geom_bond_atom_site_label_2
_geom_bond_distance
_geom_bond_site_symmetry_2
_ccdc_geom_bond_type
H0 C1 0.949 . S
C1 H0 0.949 . S
C1 C2 1.395 . S
C1 C3 1.391 . S
C2 C1 1.395 . S
C2 C5 1.390 . S
C3 C1 1.391 . S
C3 C7 1.387 . S
C3 C8 1.491 . S
H4 C5 0.950 . S
C5 C2 1.390 . S
C5 H4 0.950 . S
C5 C6 1.378 . S
C6 C5 1.378 . S
C6 C7 1.409 . S
C7 C3 1.387 . S
C7 C6 1.409 . S
C7 H9 0.951 . S
C8 C3 1.491 . S
C8 C10 1.382 . S
C8 C12 1.404 . S
H9 C7 0.951 . S
C10 C8 1.382 . S
C10 C11 1.390 . S
C10 H15 0.949 . S
C11 C10 1.390 . S
C11 C16 1.399 . S
C12 C8 1.404 . S
C12 H13 0.950 . S
C12 C14 1.375 . S
H13 C12 0.950 . S
C14 C12 1.375 . S
C14 C16 1.382 . S
C14 H18 0.950 . S
H15 C10 0.949 . S
C16 C11 1.399 . S
C16 C14 1.382 . S
C16 H17 0.952 . S
H17 C16 0.952 . S
H18 C14 0.950 . S
H19 C20 0.949 . S
C20 H19 0.949 . S
C20 C21 1.395 . S
C20 C22 1.391 . S
C21 C20 1.395 . S
C21 C24 1.390 . S
C22 C20 1.391 . S
C22 C26 1.387 . S
C22 C27 1.491 . S
H23 C24 0.950 . S
C24 C21 1.390 . S
C24 H23 0.950 . S
C24 C25 1.378 . S
C25 C24 1.378 . S
C25 C26 1.409 . S
C26 C22 1.387 . S
C26 C25 1.409 . S
C26 H28 0.951 . S
C27 C22 1.491 . S
C27 C29 1.382 . S
C27 C31 1.404 . S
H28 C26 0.951 . S
C29 C27 1.382 . S
C29 C30 1.390 . S
C29 H34 0.949 . S
C30 C29 1.390 . S
C30 C35 1.402 . S
C31 C27 1.404 . S
C31 H32 0.950 . S
C31 C33 1.375 . S
H32 C31 0.950 . S
C33 C31 1.375 . S
C33 C35 1.388 . S
C33 H37 0.950 1_455 S
H34 C29 0.949 . S
C35 C30 1.402 . S
C35 C33 1.388 . S
C35 H36 0.943 1_455 S
H36 C35 0.943 1_655 S
H37 C33 0.950 1_655 S
H38 C39 0.949 . S
C39 H38 0.949 . S
C39 C40 1.395 . S
C39 C41 1.391 . S
C40 C39 1.395 . S
C40 C43 1.390 . S
C41 C39 1.391 . S
C41 C45 1.387 . S
C41 C46 1.491 . S
H42 C43 0.950 . S
C43 C40 1.390 . S
C43 H42 0.950 . S
C43 C44 1.378 . S
C44 C43 1.378 . S
C44 C45 1.409 . S
C45 C41 1.387 . S
C45 C44 1.409 . S
C45 H47 0.951 . S
C46 C41 1.491 . S
C46 C48 1.382 . S
C46 C50 1.404 . S
H47 C45 0.951 . S
C48 C46 1.382 . S
C48 C49 1.390 . S
C48 H53 0.949 . S
C49 C48 1.390 . S
C49 C54 1.399 . S
C50 C46 1.404 . S
C50 H51 0.950 . S
C50 C52 1.375 . S
H51 C50 0.950 . S
C52 C50 1.375 . S
C52 C54 1.382 . S
C52 H56 0.950 . S
H53 C48 0.949 . S
C54 C49 1.399 . S
C54 C52 1.382 . S
C54 H55 0.952 . S
H55 C54 0.952 . S
H56 C52 0.950 . S
H57 C58 0.949 . S
C58 H57 0.949 . S
C58 C59 1.395 . S
C58 C60 1.391 . S
C59 C58 1.395 . S
C59 C62 1.390 . S
C60 C58 1.391 . S
C60 C64 1.387 . S
C60 C65 1.491 . S
H61 C62 0.950 . S
C62 C59 1.390 . S
C62 H61 0.950 . S
C62 C63 1.378 . S
C63 C62 1.378 . S
C63 C64 1.409 . S
C64 C60 1.387 . S
C64 C63 1.409 . S
C64 H66 0.951 . S
C65 C60 1.491 . S
C65 C67 1.382 . S
C65 C69 1.404 . S
H66 C64 0.951 . S
C67 C65 1.382 . S
C67 C68 1.390 . S
C67 H72 0.949 . S
C68 C67 1.390 . S
C68 C73 1.399 . S
C69 C65 1.404 . S
C69 H70 0.950 . S
C69 C71 1.375 . S
H70 C69 0.950 . S
C71 C69 1.375 . S
C71 C73 1.382 . S
C71 H75 0.950 . S
H72 C67 0.949 . S
C73 C68 1.399 . S
C73 C71 1.382 . S
C73 H74 0.952 . S
H74 C73 0.952 . S
H75 C71 0.950 . S
H76 C77 0.949 . S
C77 H76 0.949 . S
C77 C78 1.395 . S
C77 C79 1.391 . S
C78 C77 1.395 . S
C78 C81 1.390 . S
C79 C77 1.391 . S
C79 C83 1.387 . S
C79 C84 1.491 . S
H80 C81 0.950 . S
C81 C78 1.390 . S
C81 H80 0.950 . S
C81 C82 1.378 . S
C82 C81 1.378 . S
C82 C83 1.409 . S
C83 C79 1.387 . S
C83 C82 1.409 . S
C83 H85 0.951 . S
C84 C79 1.491 . S
C84 C86 1.382 . S
C84 C88 1.404 . S
H85 C83 0.951 . S
C86 C84 1.382 . S
C86 C87 1.390 . S
C86 H91 0.949 . S
C87 C86 1.390 . S
C87 C92 1.399 . S
C88 C84 1.404 . S
C88 H89 0.950 . S
C88 C90 1.375 . S
H89 C88 0.950 . S
C90 C88 1.375 . S
C90 C92 1.382 . S
C90 H94 0.950 . S
H91 C86 0.949 . S
C92 C87 1.399 . S
C92 C90 1.382 . S
C92 H93 0.952 . S
H93 C92 0.952 . S
H94 C90 0.950 . S
H95 C96 0.949 . S
C96 H95 0.949 . S
C96 C97 1.395 . S
C96 C98 1.391 . S
C97 C96 1.395 . S
C97 C100 1.390 . S
C98 C96 1.391 . S
C98 C102 1.387 . S
C98 C103 1.491 . S
H99 C100 0.950 . S
C100 C97 1.390 . S
C100 H99 0.950 . S
C100 C101 1.378 . S
C101 C100 1.378 . S
C101 C102 1.409 . S
C102 C98 1.387 . S
C102 C101 1.409 . S
C102 H104 0.951 . S
C103 C98 1.491 . S
C103 C105 1.382 . S
C103 C107 1.404 . S
H104 C102 0.951 . S
C105 C103 1.382 . S
C105 C106 1.390 . S
C105 H110 0.949 . S
C106 C105 1.390 . S
C106 C111 1.399 . S
C107 C103 1.404 . S
C107 H108 0.950 . S
C107 C109 1.375 . S
H108 C107 0.950 . S
C109 C107 1.375 . S
C109 C111 1.382 . S
C109 H113 0.950 . S
H110 C105 0.949 . S
C111 C106 1.399 . S
C111 C109 1.382 . S
C111 H112 0.952 . S
H112 C111 0.952 . S
H113 C109 0.950 . S
H114 C115 0.949 . S
C115 H114 0.949 . S
C115 C116 1.395 . S
C115 C117 1.391 . S
C116 C115 1.395 . S
C116 C119 1.390 . S
C117 C115 1.391 . S
C117 C121 1.387 . S
C117 C122 1.491 . S
H118 C119 0.950 . S
C119 C116 1.390 . S
C119 H118 0.950 . S
C119 C120 1.378 . S
C120 C119 1.378 . S
C120 C121 1.409 . S
C121 C117 1.387 . S
C121 C120 1.409 . S
C121 H123 0.951 . S
C122 C117 1.491 . S
C122 C124 1.382 . S
C122 C126 1.404 . S
H123 C121 0.951 . S
C124 C122 1.382 . S
C124 C125 1.390 . S
C124 H129 0.949 . S
C125 C124 1.390 . S
C125 C130 1.399 . S
C126 C122 1.404 . S
C126 H127 0.950 . S
C126 C128 1.375 . S
H127 C126 0.950 . S
C128 C126 1.375 . S
C128 C130 1.382 . S
C128 H132 0.950 . S
H129 C124 0.949 . S
C130 C125 1.399 . S
C130 C128 1.382 . S
C130 H131 0.952 . S
H131 C130 0.952 . S
H132 C128 0.950 . S
H133 C134 0.949 . S
C134 H133 0.949 . S
C134 C135 1.395 . S
C134 C136 1.391 . S
C135 C134 1.395 . S
C135 C138 1.390 . S
C136 C134 1.391 . S
C136 C140 1.387 . S
C136 C141 1.491 . S
H137 C138 0.950 . S
C138 C135 1.390 . S
C138 H137 0.950 . S
C138 C139 1.378 . S
C139 C138 1.378 . S
C139 C140 1.409 . S
C140 C136 1.387 . S
C140 C139 1.409 . S
C140 H142 0.951 . S
C141 C136 1.491 . S
C141 C143 1.382 . S
C141 C145 1.404 . S
H142 C140 0.951 . S
C143 C141 1.382 . S
C143 C144 1.390 . S
C143 H148 0.949 . S
C144 C143 1.390 . S
C144 C149 1.399 . S
C145 C141 1.404 . S
C145 H146 0.950 . S
C145 C147 1.375 . S
H146 C145 0.950 . S
C147 C145 1.375 . S
C147 C149 1.382 . S
C147 H151 0.950 . S
H148 C143 0.949 . S
C149 C144 1.399 . S
C149 C147 1.382 . S
C149 H150 0.952 . S
H150 C149 0.952 . S
H151 C147 0.950 . S
Tb152 C154 2.809 1_545 S
Tb152 O172 2.484 1_545 S
Tb152 O173 2.440 . S
Tb152 O174 2.658 1_655 S
Tb152 O175 2.409 1_655 S
Tb152 O176 2.378 1_655 S
Tb152 O180 2.325 . S
Tb152 O183 2.341 . S
Tb153 C163 2.809 . S
Tb153 O174 2.325 . S
Tb153 O177 2.341 . S
Tb153 O178 2.484 . S
Tb153 O179 2.440 . S
Tb153 O180 2.658 1_455 S
Tb153 O181 2.409 . S
Tb153 O182 2.378 . S
C154 Tb152 2.809 1_565 S
C154 C155 1.514 . S
C154 O172 1.248 . S
C154 O173 1.266 1_565 S
C155 C154 1.514 . S
C155 C156 1.359 . S
C155 C160 1.348 . S
C156 C155 1.359 . S
C156 C157 1.380 . S
C156 H184 0.929 . S
C157 C156 1.380 . S
C157 C158 1.347 . S
C157 H185 0.931 . S
C158 C157 1.347 . S
C158 C159 1.369 . S
C159 C158 1.369 . S
C159 C160 1.408 . S
C159 H186 0.930 . S
C160 C155 1.348 . S
C160 C159 1.408 . S
C160 H187 0.930 . S
C161 O174 1.281 . S
C161 O175 1.254 . S
C162 O176 1.236 . S
C162 O177 1.266 . S
C163 Tb153 2.809 . S
C163 C164 1.514 . S
C163 O178 1.248 . S
C163 O179 1.266 . S
C164 C163 1.514 . S
C164 C165 1.359 . S
C164 C169 1.348 . S
C165 C164 1.359 . S
C165 C166 1.380 . S
C165 H188 0.929 . S
C166 C165 1.380 . S
C166 C167 1.347 . S
C166 H189 0.931 . S
C167 C166 1.347 . S
C167 C168 1.369 . S
C168 C167 1.369 . S
C168 C169 1.408 . S
C168 H190 0.930 . S
C169 C164 1.348 . S
C169 C168 1.408 . S
C169 H191 0.930 . S
C170 O180 1.281 1_565 S
C170 O181 1.254 1_665 S
C171 O182 1.236 1_655 S
C171 O183 1.266 . S
O172 Tb152 2.484 1_565 S
O172 C154 1.248 . S
O173 Tb152 2.440 . S
O173 C154 1.266 1_545 S
O174 Tb152 2.658 1_455 S
O174 Tb153 2.325 . S
O174 C161 1.281 . S
O175 Tb152 2.409 1_455 S
O175 C161 1.254 . S
O176 Tb152 2.378 1_455 S
O176 C162 1.236 . S
O177 Tb153 2.341 . S
O177 C162 1.266 . S
O178 Tb153 2.484 . S
O178 C163 1.248 . S
O179 Tb153 2.440 . S
O179 C163 1.266 . S
O180 Tb152 2.325 . S
O180 Tb153 2.658 1_655 S
O180 C170 1.281 1_545 S
O181 Tb153 2.409 . S
O181 C170 1.254 1_445 S
O182 Tb153 2.378 . S
O182 C171 1.236 1_455 S
O183 Tb152 2.341 . S
O183 C171 1.266 . S
H184 C156 0.929 . S
H185 C157 0.931 . S
H186 C159 0.930 . S
H187 C160 0.930 . S
H188 C165 0.929 . S
H189 C166 0.931 . S
H190 C168 0.930 . S
H191 C169 0.930 . S
Tb192 C194 2.809 . S
Tb192 O212 2.484 . S
Tb192 O213 2.440 . S
Tb192 O214 2.659 1_545 S
Tb192 O215 2.409 1_545 S
Tb192 O216 2.378 . S
Tb192 O220 2.325 . S
Tb192 O223 2.341 . S
Tb193 C203 2.809 1_545 S
Tb193 O214 2.325 1_545 S
Tb193 O217 2.341 . S
Tb193 O218 2.484 1_545 S
Tb193 O219 2.440 . S
Tb193 O220 2.658 . S
Tb193 O221 2.409 . S
Tb193 O222 2.378 . S
C194 Tb192 2.809 . S
C194 C195 1.514 . S
C194 O212 1.248 . S
C194 O213 1.266 . S
C195 C194 1.514 . S
C195 C196 1.359 . S
C195 C200 1.348 . S
C196 C195 1.359 . S
C196 C197 1.380 . S
C196 H224 0.929 . S
C197 C196 1.380 . S
C197 C198 1.347 . S
C197 H225 0.931 . S
C198 C197 1.347 . S
C198 C199 1.369 . S
C199 C198 1.369 . S
C199 C200 1.408 . S
C199 H226 0.930 . S
C200 C195 1.348 . S
C200 C199 1.408 . S
C200 H227 0.930 . S
C201 O214 1.280 . S
C201 O215 1.254 . S
C202 O216 1.236 . S
C202 O217 1.266 . S
C203 Tb193 2.809 1_565 S
C203 C204 1.514 1_554 S
C203 O218 1.248 . S
C203 O219 1.266 1_565 S
C204 C203 1.514 1_556 S
C204 C205 1.359 . S
C204 C209 1.348 . S
C205 C204 1.359 . S
C205 C206 1.380 . S
C205 H228 0.929 1_556 S
C206 C205 1.380 . S
C206 C207 1.347 . S
C206 H229 0.931 . S
C207 C206 1.347 . S
C207 C208 1.369 . S
C208 C207 1.369 . S
C208 C209 1.408 . S
C208 H230 0.930 . S
C209 C204 1.348 . S
C209 C208 1.408 . S
C209 H231 0.930 . S
C210 O220 1.281 . S
C210 O221 1.254 . S
C211 O222 1.236 1_565 S
C211 O223 1.266 1_565 S
O212 Tb192 2.484 . S
O212 C194 1.248 . S
O213 Tb192 2.440 . S
O213 C194 1.266 . S
O214 Tb192 2.659 1_565 S
O214 Tb193 2.325 1_565 S
O214 C201 1.280 . S
O215 Tb192 2.409 1_565 S
O215 C201 1.254 . S
O216 Tb192 2.378 . S
O216 C202 1.236 . S
O217 Tb193 2.341 . S
O217 C202 1.266 . S
O218 Tb193 2.484 1_565 S
O218 C203 1.248 . S
O219 Tb193 2.440 . S
O219 C203 1.266 1_545 S
O220 Tb192 2.325 . S
O220 Tb193 2.658 . S
O220 C210 1.281 . S
O221 Tb193 2.409 . S
O221 C210 1.254 . S
O222 Tb193 2.378 . S
O222 C211 1.236 1_545 S
O223 Tb192 2.341 . S
O223 C211 1.266 1_545 S
H224 C196 0.929 . S
H225 C197 0.931 . S
H226 C199 0.930 . S
H227 C200 0.930 . S
H228 C205 0.929 1_554 S
H229 C206 0.931 . S
H230 C208 0.930 . S
H231 C209 0.930 . S
Tb232 C234 2.809 . S
Tb232 O252 2.484 . S
Tb232 O253 2.440 . S
Tb232 O254 2.658 . S
Tb232 O255 2.409 . S
Tb232 O256 2.378 . S
Tb232 O260 2.325 . S
Tb232 O263 2.341 . S
Tb233 C243 2.809 . S
Tb233 O254 2.325 . S
Tb233 O257 2.341 . S
Tb233 O258 2.484 . S
Tb233 O259 2.440 . S
Tb233 O260 2.658 . S
Tb233 O261 2.409 . S
Tb233 O262 2.378 . S
C234 Tb232 2.809 . S
C234 C235 1.514 . S
C234 O252 1.248 . S
C234 O253 1.266 . S
C235 C234 1.514 . S
C235 C236 1.359 . S
C235 C240 1.348 . S
C236 C235 1.359 . S
C236 C237 1.380 . S
C236 H264 0.929 . S
C237 C236 1.380 . S
C237 C238 1.347 . S
C237 H265 0.931 . S
C238 C237 1.347 . S
C238 C239 1.369 . S
C239 C238 1.369 . S
C239 C240 1.408 . S
C239 H266 0.930 . S
C240 C235 1.348 . S
C240 C239 1.408 . S
C240 H267 0.930 . S
C241 O254 1.281 . S
C241 O255 1.254 . S
C242 O256 1.236 . S
C242 O257 1.266 . S
C243 Tb233 2.809 . S
C243 C244 1.514 . S
C243 O258 1.248 . S
C243 O259 1.266 . S
C244 C243 1.514 . S
C244 C245 1.359 . S
C244 C249 1.348 . S
C245 C244 1.359 . S
C245 C246 1.380 . S
C245 H268 0.929 . S
C246 C245 1.380 . S
C246 C247 1.347 . S
C246 H269 0.931 . S
C247 C246 1.347 . S
C247 C248 1.369 . S
C248 C247 1.369 . S
C248 C249 1.408 . S
C248 H270 0.930 . S
C249 C244 1.348 . S
C249 C248 1.408 . S
C249 H271 0.930 . S
C250 O260 1.281 . S
C250 O261 1.254 . S
C251 O262 1.236 . S
C251 O263 1.266 . S
O252 Tb232 2.484 . S
O252 C234 1.248 . S
O253 Tb232 2.440 . S
O253 C234 1.266 . S
O254 Tb232 2.658 . S
O254 Tb233 2.325 . S
O254 C241 1.281 . S
O255 Tb232 2.409 . S
O255 C241 1.254 . S
O256 Tb232 2.378 . S
O256 C242 1.236 . S
O257 Tb233 2.341 . S
O257 C242 1.266 . S
O258 Tb233 2.484 . S
O258 C243 1.248 . S
O259 Tb233 2.440 . S
O259 C243 1.266 . S
O260 Tb232 2.325 . S
O260 Tb233 2.658 . S
O260 C250 1.281 . S
O261 Tb233 2.409 . S
O261 C250 1.254 . S
O262 Tb233 2.378 . S
O262 C251 1.236 . S
O263 Tb232 2.341 . S
O263 C251 1.266 . S
H264 C236 0.929 . S
H265 C237 0.931 . S
H266 C239 0.930 . S
H267 C240 0.930 . S
H268 C245 0.929 . S
H269 C246 0.931 . S
H270 C248 0.930 . S
H271 C249 0.930 . S
Tb272 C274 2.809 . S
Tb272 O292 2.484 1_455 S
Tb272 O293 2.440 . S
Tb272 O294 2.658 1_556 S
Tb272 O295 2.409 1_556 S
Tb272 O296 2.378 1_556 S
Tb272 O300 2.325 1_556 S
Tb272 O303 2.341 . S
Tb273 C283 2.809 . S
Tb273 O294 2.325 . S
Tb273 O297 2.341 . S
Tb273 O298 2.484 . S
Tb273 O299 2.440 . S
Tb273 O300 2.658 . S
Tb273 O301 2.409 1_455 S
Tb273 O302 2.378 1_554 S
C274 Tb272 2.809 . S
C274 C275 1.514 1_455 S
C274 O292 1.248 1_455 S
C274 O293 1.266 . S
C275 C274 1.514 1_655 S
C275 C276 1.359 . S
C275 C280 1.348 1_655 S
C276 C275 1.359 . S
C276 C277 1.380 . S
C276 H304 0.929 . S
C277 C276 1.380 . S
C277 C278 1.347 . S
C277 H305 0.931 . S
C278 C277 1.347 . S
C278 C279 1.369 . S
C279 C278 1.369 . S
C279 C280 1.408 1_655 S
C279 H306 0.930 1_655 S
C280 C275 1.348 1_455 S
C280 C279 1.408 1_455 S
C280 H307 0.930 . S
C281 O294 1.281 . S
C281 O295 1.254 . S
C282 O296 1.236 . S
C282 O297 1.266 . S
C283 Tb273 2.809 . S
C283 C284 1.514 . S
C283 O298 1.248 . S
C283 O299 1.266 . S
C284 C283 1.514 . S
C284 C285 1.359 . S
C284 C289 1.348 . S
C285 C284 1.359 . S
C285 C286 1.380 . S
C285 H308 0.929 . S
C286 C285 1.380 . S
C286 C287 1.347 . S
C286 H309 0.931 . S
C287 C286 1.347 . S
C287 C288 1.369 . S
C288 C287 1.369 . S
C288 C289 1.408 . S
C288 H310 0.930 . S
C289 C284 1.348 . S
C289 C288 1.408 . S
C289 H311 0.930 . S
C290 O300 1.281 1_656 S
C290 O301 1.254 1_556 S
C291 O302 1.236 . S
C291 O303 1.266 . S
O292 Tb272 2.484 1_655 S
O292 C274 1.248 1_655 S
O293 Tb272 2.440 . S
O293 C274 1.266 . S
O294 Tb272 2.658 1_554 S
O294 Tb273 2.325 . S
O294 C281 1.281 . S
O295 Tb272 2.409 1_554 S
O295 C281 1.254 . S
O296 Tb272 2.378 1_554 S
O296 C282 1.236 . S
O297 Tb273 2.341 . S
O297 C282 1.266 . S
O298 Tb273 2.484 . S
O298 C283 1.248 . S
O299 Tb273 2.440 . S
O299 C283 1.266 . S
O300 Tb272 2.325 1_554 S
O300 Tb273 2.658 . S
O300 C290 1.281 1_454 S
O301 Tb273 2.409 1_655 S
O301 C290 1.254 1_554 S
O302 Tb273 2.378 1_556 S
O302 C291 1.236 . S
O303 Tb272 2.341 . S
O303 C291 1.266 . S
H304 C276 0.929 . S
H305 C277 0.931 . S
H306 C279 0.930 1_455 S
H307 C280 0.930 . S
H308 C285 0.929 . S
H309 C286 0.931 . S
H310 C288 0.930 . S
H311 C289 0.930 . S
H312 C324 0.930 . S
H313 C326 0.930 . S
H314 C327 0.930 . S
H315 C331 0.959 . S
H316 C331 0.959 . S
H317 C331 0.961 . S
H318 C332 0.960 . S
H319 C332 0.961 . S
H320 C332 0.959 . S
H321 C335 0.929 . S
H322 C336 0.931 . S
H323 C338 0.930 . S
C324 H312 0.930 . S
C324 C325 1.399 . S
C324 C329 1.399 . S
C325 C324 1.399 . S
C325 C326 1.376 . S
C326 H313 0.930 . S
C326 C325 1.376 . S
C326 C327 1.388 . S
C327 H314 0.930 . S
C327 C326 1.388 . S
C327 C328 1.390 . S
C328 C327 1.390 . S
C328 C329 1.394 . S
C328 C334 1.465 . S
C329 C324 1.399 . S
C329 C328 1.394 . S
C329 C330 1.516 . S
C330 C329 1.516 . S
C330 C331 1.502 . S
C330 C332 1.561 . S
C330 C333 1.526 . S
C331 H315 0.959 . S
C331 H316 0.959 . S
C331 H317 0.961 . S
C331 C330 1.502 . S
C332 H318 0.960 . S
C332 H319 0.961 . S
C332 H320 0.959 . S
C332 C330 1.561 . S
C333 C330 1.526 . S
C333 C334 1.396 . S
C333 C338 1.390 . S
C334 C328 1.465 . S
C334 C333 1.396 . S
C334 C335 1.399 . S
C335 H321 0.929 . S
C335 C334 1.399 . S
C335 C336 1.385 . S
C336 H322 0.931 . S
C336 C335 1.385 . S
C336 C337 1.389 . S
C337 C336 1.389 . S
C337 C338 1.387 . S
C338 H323 0.930 . S
C338 C333 1.390 . S
C338 C337 1.387 . S
H339 C351 0.930 . S
H340 C353 0.930 . S
H341 C354 0.930 . S
H342 C358 0.959 . S
H343 C358 0.959 . S
H344 C358 0.961 . S
H345 C359 0.960 . S
H346 C359 0.961 . S
H347 C359 0.959 . S
H348 C362 0.929 . S
H349 C363 0.931 . S
H350 C365 0.930 . S
C351 H339 0.930 . S
C351 C352 1.399 . S
C351 C356 1.399 . S
C352 C351 1.399 . S
C352 C353 1.376 . S
C353 H340 0.930 . S
C353 C352 1.376 . S
C353 C354 1.388 . S
C354 H341 0.930 . S
C354 C353 1.388 . S
C354 C355 1.390 . S
C355 C354 1.390 . S
C355 C356 1.394 . S
C355 C361 1.465 . S
C356 C351 1.399 . S
C356 C355 1.394 . S
C356 C357 1.516 . S
C357 C356 1.516 . S
C357 C358 1.502 . S
C357 C359 1.561 . S
C357 C360 1.526 . S
C358 H342 0.959 . S
C358 H343 0.959 . S
C358 H344 0.961 . S
C358 C357 1.502 . S
C359 H345 0.960 . S
C359 H346 0.961 . S
C359 H347 0.959 . S
C359 C357 1.561 . S
C360 C357 1.526 . S
C360 C361 1.396 . S
C360 C365 1.390 . S
C361 C355 1.465 . S
C361 C360 1.396 . S
C361 C362 1.399 . S
C362 H348 0.929 . S
C362 C361 1.399 . S
C362 C363 1.385 . S
C363 H349 0.931 . S
C363 C362 1.385 . S
C363 C364 1.389 . S
C364 C363 1.389 . S
C364 C365 1.387 . S
C365 H350 0.930 . S
C365 C360 1.390 . S
C365 C364 1.387 . S
H366 C378 0.930 . S
H367 C380 0.930 . S
H368 C381 0.930 . S
H369 C385 0.959 . S
H370 C385 0.959 . S
H371 C385 0.961 . S
H372 C386 0.960 . S
H373 C386 0.961 . S
H374 C386 0.959 . S
H375 C389 0.929 . S
H376 C390 0.931 . S
H377 C392 0.930 . S
C378 H366 0.930 . S
C378 C379 1.399 . S
C378 C383 1.399 . S
C379 C378 1.399 . S
C379 C380 1.376 . S
C380 H367 0.930 . S
C380 C379 1.376 . S
C380 C381 1.388 . S
C381 H368 0.930 . S
C381 C380 1.388 . S
C381 C382 1.390 . S
C382 C381 1.390 . S
C382 C383 1.394 . S
C382 C388 1.465 . S
C383 C378 1.399 . S
C383 C382 1.394 . S
C383 C384 1.516 . S
C384 C383 1.516 . S
C384 C385 1.502 . S
C384 C386 1.561 . S
C384 C387 1.526 . S
C385 H369 0.959 . S
C385 H370 0.959 . S
C385 H371 0.961 . S
C385 C384 1.502 . S
C386 H372 0.960 . S
C386 H373 0.961 . S
C386 H374 0.959 . S
C386 C384 1.561 . S
C387 C384 1.526 . S
C387 C388 1.396 . S
C387 C392 1.390 . S
C388 C382 1.465 . S
C388 C387 1.396 . S
C388 C389 1.399 . S
C389 H375 0.929 . S
C389 C388 1.399 . S
C389 C390 1.385 . S
C390 H376 0.931 . S
C390 C389 1.385 . S
C390 C391 1.389 . S
C391 C390 1.389 . S
C391 C392 1.387 . S
C392 H377 0.930 . S
C392 C387 1.390 . S
C392 C391 1.387 . S
H393 C405 0.930 . S
H394 C407 0.930 . S
H395 C408 0.930 . S
H396 C412 0.959 . S
H397 C412 0.959 . S
H398 C412 0.961 . S
H399 C413 0.960 . S
H400 C413 0.961 . S
H401 C413 0.959 . S
H402 C416 0.929 . S
H403 C417 0.931 . S
H404 C419 0.930 . S
C405 H393 0.930 . S
C405 C406 1.399 . S
C405 C410 1.399 . S
C406 C405 1.399 . S
C406 C407 1.376 . S
C407 H394 0.930 . S
C407 C406 1.376 . S
C407 C408 1.388 . S
C408 H395 0.930 . S
C408 C407 1.388 . S
C408 C409 1.390 . S
C409 C408 1.390 . S
C409 C410 1.394 . S
C409 C415 1.465 . S
C410 C405 1.399 . S
C410 C409 1.394 . S
C410 C411 1.516 . S
C411 C410 1.516 . S
C411 C412 1.502 . S
C411 C413 1.561 . S
C411 C414 1.526 . S
C412 H396 0.959 . S
C412 H397 0.959 . S
C412 H398 0.961 . S
C412 C411 1.502 . S
C413 H399 0.960 . S
C413 H400 0.961 . S
C413 H401 0.959 . S
C413 C411 1.561 . S
C414 C411 1.526 . S
C414 C415 1.396 . S
C414 C419 1.390 . S
C415 C409 1.465 . S
C415 C414 1.396 . S
C415 C416 1.399 . S
C416 H402 0.929 . S
C416 C415 1.399 . S
C416 C417 1.385 . S
C417 H403 0.931 . S
C417 C416 1.385 . S
C417 C418 1.389 . S
C418 C417 1.389 . S
C418 C419 1.387 . S
C419 H404 0.930 . S
C419 C414 1.390 . S
C419 C418 1.387 . S
H420 C432 0.930 . S
H421 C434 0.930 . S
H422 C435 0.930 . S
H423 C439 0.959 . S
H424 C439 0.959 . S
H425 C439 0.961 . S
H426 C440 0.960 . S
H427 C440 0.961 . S
H428 C440 0.959 . S
H429 C443 0.929 . S
H430 C444 0.931 . S
H431 C446 0.930 . S
C432 H420 0.930 . S
C432 C433 1.399 . S
C432 C437 1.399 . S
C433 C432 1.399 . S
C433 C434 1.376 . S
C434 H421 0.930 . S
C434 C433 1.376 . S
C434 C435 1.388 . S
C435 H422 0.930 . S
C435 C434 1.388 . S
C435 C436 1.390 . S
C436 C435 1.390 . S
C436 C437 1.394 . S
C436 C442 1.465 . S
C437 C432 1.399 . S
C437 C436 1.394 . S
C437 C438 1.516 . S
C438 C437 1.516 . S
C438 C439 1.502 . S
C438 C440 1.561 . S
C438 C441 1.526 . S
C439 H423 0.959 . S
C439 H424 0.959 . S
C439 H425 0.961 . S
C439 C438 1.502 . S
C440 H426 0.960 . S
C440 H427 0.961 . S
C440 H428 0.959 . S
C440 C438 1.561 . S
C441 C438 1.526 . S
C441 C442 1.396 . S
C441 C446 1.390 . S
C442 C436 1.465 . S
C442 C441 1.396 . S
C442 C443 1.399 . S
C443 H429 0.929 . S
C443 C442 1.399 . S
C443 C444 1.385 . S
C444 H430 0.931 . S
C444 C443 1.385 . S
C444 C445 1.389 . S
C445 C444 1.389 . S
C445 C446 1.387 . S
C446 H431 0.930 . S
C446 C441 1.390 . S
C446 C445 1.387 . S
H447 C459 0.930 1_655 S
H448 C461 0.930 . S
H449 C462 0.930 . S
H450 C466 0.959 . S
H451 C466 0.959 . S
H452 C466 0.961 . S
H453 C467 0.960 . S
H454 C467 0.961 . S
H455 C467 0.959 . S
H456 C470 0.929 . S
H457 C471 0.931 . S
H458 C473 0.930 1_655 S
C459 H447 0.930 1_455 S
C459 C460 1.399 . S
C459 C464 1.399 . S
C460 C459 1.399 . S
C460 C461 1.376 . S
C461 H448 0.930 . S
C461 C460 1.376 . S
C461 C462 1.388 . S
C462 H449 0.930 . S
C462 C461 1.388 . S
C462 C463 1.390 . S
C463 C462 1.390 . S
C463 C464 1.394 . S
C463 C469 1.465 . S
C464 C459 1.399 . S
C464 C463 1.394 . S
C464 C465 1.516 . S
C465 C464 1.516 . S
C465 C466 1.502 1_455 S
C465 C467 1.561 . S
C465 C468 1.526 . S
C466 H450 0.959 . S
C466 H451 0.959 . S
C466 H452 0.961 . S
C466 C465 1.502 1_655 S
C467 H453 0.960 . S
C467 H454 0.961 . S
C467 H455 0.959 . S
C467 C465 1.561 . S
C468 C465 1.526 . S
C468 C469 1.396 . S
C468 C473 1.390 . S
C469 C463 1.465 . S
C469 C468 1.396 . S
C469 C470 1.399 . S
C470 H456 0.929 . S
C470 C469 1.399 . S
C470 C471 1.385 . S
C471 H457 0.931 . S
C471 C470 1.385 . S
C471 C472 1.389 . S
C472 C471 1.389 . S
C472 C473 1.387 . S
C473 H458 0.930 1_455 S
C473 C468 1.390 . S
C473 C472 1.387 . S
H474 C486 0.930 . S
H475 C488 0.930 . S
H476 C489 0.930 . S
H477 C493 0.959 . S
H478 C493 0.959 . S
H479 C493 0.961 . S
H480 C494 0.960 . S
H481 C494 0.961 . S
H482 C494 0.959 . S
H483 C497 0.929 . S
H484 C498 0.916 1_554 S
H485 C500 0.930 . S
C486 H474 0.930 . S
C486 C487 1.399 . S
C486 C491 1.399 . S
C487 C486 1.399 . S
C487 C488 1.376 . S
C488 H475 0.930 . S
C488 C487 1.376 . S
C488 C489 1.388 . S
C489 H476 0.930 . S
C489 C488 1.388 . S
C489 C490 1.390 . S
C490 C489 1.390 . S
C490 C491 1.394 . S
C490 C496 1.465 . S
C491 C486 1.399 . S
C491 C490 1.394 . S
C491 C492 1.516 . S
C492 C491 1.516 . S
C492 C493 1.502 . S
C492 C494 1.561 . S
C492 C495 1.526 . S
C493 H477 0.959 . S
C493 H478 0.959 . S
C493 H479 0.961 . S
C493 C492 1.502 . S
C494 H480 0.960 . S
C494 H481 0.961 . S
C494 H482 0.959 . S
C494 C492 1.561 . S
C495 C492 1.526 . S
C495 C496 1.396 . S
C495 C500 1.390 . S
C496 C490 1.465 . S
C496 C495 1.396 . S
C496 C497 1.399 . S
C497 H483 0.929 . S
C497 C496 1.399 . S
C497 C498 1.385 . S
C498 H484 0.916 1_556 S
C498 C497 1.385 . S
C498 C499 1.389 . S
C499 C498 1.389 . S
C499 C500 1.387 . S
C500 H485 0.930 . S
C500 C495 1.390 . S
C500 C499 1.387 . S
H501 C513 0.930 . S
H502 C515 0.930 . S
H503 C516 0.930 . S
H504 C520 0.959 . S
H505 C520 0.959 . S
H506 C520 0.961 . S
H507 C521 0.960 . S
H508 C521 0.961 . S
H509 C521 0.959 . S
H510 C524 0.929 . S
H511 C525 0.931 . S
H512 C527 0.930 . S
C513 H501 0.930 . S
C513 C514 1.399 . S
C513 C518 1.399 . S
C514 C513 1.399 . S
C514 C515 1.376 . S
C515 H502 0.930 . S
C515 C514 1.376 . S
C515 C516 1.388 . S
C516 H503 0.930 . S
C516 C515 1.388 . S
C516 C517 1.390 . S
C517 C516 1.390 . S
C517 C518 1.394 . S
C517 C523 1.465 . S
C518 C513 1.399 . S
C518 C517 1.394 . S
C518 C519 1.516 . S
C519 C518 1.516 . S
C519 C520 1.502 . S
C519 C521 1.561 . S
C519 C522 1.526 . S
C520 H504 0.959 . S
C520 H505 0.959 . S
C520 H506 0.961 . S
C520 C519 1.502 . S
C521 H507 0.960 . S
C521 H508 0.961 . S
C521 H509 0.959 . S
C521 C519 1.561 . S
C522 C519 1.526 . S
C522 C523 1.396 . S
C522 C527 1.390 . S
C523 C517 1.465 . S
C523 C522 1.396 . S
C523 C524 1.399 . S
C524 H510 0.929 . S
C524 C523 1.399 . S
C524 C525 1.385 . S
C525 H511 0.931 . S
C525 C524 1.385 . S
C525 C526 1.389 . S
C526 C525 1.389 . S
C526 C527 1.387 . S
C527 H512 0.930 . S
C527 C522 1.390 . S
C527 C526 1.387 . S
H528 C540 0.930 . S
H529 C542 0.930 . S
H530 C543 0.930 . S
H531 C547 0.959 . S
H532 C547 0.959 . S
H533 C547 0.961 . S
H534 C548 0.960 . S
H535 C548 0.961 . S
H536 C548 0.959 . S
H537 C551 0.929 . S
H538 C552 0.931 . S
H539 C554 0.930 . S
C540 H528 0.930 . S
C540 C541 1.399 . S
C540 C545 1.399 . S
C541 C540 1.399 . S
C541 C542 1.376 . S
C542 H529 0.930 . S
C542 C541 1.376 . S
C542 C543 1.388 . S
C543 H530 0.930 . S
C543 C542 1.388 . S
C543 C544 1.390 . S
C544 C543 1.390 . S
C544 C545 1.394 . S
C544 C550 1.465 . S
C545 C540 1.399 . S
C545 C544 1.394 . S
C545 C546 1.516 . S
C546 C545 1.516 . S
C546 C547 1.502 . S
C546 C548 1.561 . S
C546 C549 1.526 . S
C547 H531 0.959 . S
C547 H532 0.959 . S
C547 H533 0.961 . S
C547 C546 1.502 . S
C548 H534 0.960 . S
C548 H535 0.961 . S
C548 H536 0.959 . S
C548 C546 1.561 . S
C549 C546 1.526 . S
C549 C550 1.396 . S
C549 C554 1.390 . S
C550 C544 1.465 . S
C550 C549 1.396 . S
C550 C551 1.399 . S
C551 H537 0.929 . S
C551 C550 1.399 . S
C551 C552 1.385 . S
C552 H538 0.931 . S
C552 C551 1.385 . S
C552 C553 1.389 . S
C553 C552 1.389 . S
C553 C554 1.387 . S
C554 H539 0.930 . S
C554 C549 1.390 . S
C554 C553 1.387 . S
H555 C567 0.930 . S
H556 C569 0.930 . S
H557 C570 0.930 . S
H558 C574 0.959 . S
H559 C574 0.959 . S
H560 C574 0.961 . S
H561 C575 0.960 . S
H562 C575 0.961 . S
H563 C575 0.978 . S
H564 C578 0.929 . S
H565 C579 0.931 . S
H566 C581 0.930 . S
C567 H555 0.930 . S
C567 C568 1.399 . S
C567 C572 1.399 . S
C568 C567 1.399 . S
C568 C569 1.376 . S
C569 H556 0.930 . S
C569 C568 1.376 . S
C569 C570 1.388 . S
C570 H557 0.930 . S
C570 C569 1.388 . S
C570 C571 1.390 . S
C571 C570 1.390 . S
C571 C572 1.394 . S
C571 C577 1.465 . S
C572 C567 1.399 . S
C572 C571 1.394 . S
C572 C573 1.516 1_556 S
C573 C572 1.516 1_554 S
C573 C574 1.502 . S
C573 C575 1.561 . S
C573 C576 1.526 1_554 S
C574 H558 0.959 . S
C574 H559 0.959 . S
C574 H560 0.961 . S
C574 C573 1.502 . S
C575 H561 0.960 . S
C575 H562 0.961 . S
C575 H563 0.978 . S
C575 C573 1.561 . S
C576 C573 1.526 1_556 S
C576 C577 1.396 . S
C576 C581 1.390 1_556 S
C577 C571 1.465 . S
C577 C576 1.396 . S
C577 C578 1.399 . S
C578 H564 0.929 . S
C578 C577 1.399 . S
C578 C579 1.385 . S
C579 H565 0.931 . S
C579 C578 1.385 . S
C579 C580 1.389 1_556 S
C580 C579 1.389 1_554 S
C580 C581 1.387 . S
C581 H566 0.930 . S
C581 C576 1.390 1_554 S
C581 C580 1.387 . S
H582 C594 0.930 . S
H583 C596 0.930 . S
H584 C597 0.930 . S
H585 C601 0.959 . S
H586 C601 0.959 . S
H587 C601 0.961 . S
H588 C602 0.960 . S
H589 C602 0.961 . S
H590 C602 0.959 . S
H591 C605 0.929 . S
H592 C606 0.931 . S
H593 C608 0.930 . S
C594 H582 0.930 . S
C594 C595 1.399 . S
C594 C599 1.399 . S
C595 C594 1.399 . S
C595 C596 1.376 . S
C596 H583 0.930 . S
C596 C595 1.376 . S
C596 C597 1.388 . S
C597 H584 0.930 . S
C597 C596 1.388 . S
C597 C598 1.390 . S
C598 C597 1.390 . S
C598 C599 1.394 . S
C598 C604 1.465 . S
C599 C594 1.399 . S
C599 C598 1.394 . S
C599 C600 1.516 . S
C600 C599 1.516 . S
C600 C601 1.502 . S
C600 C602 1.561 . S
C600 C603 1.526 . S
C601 H585 0.959 . S
C601 H586 0.959 . S
C601 H587 0.961 . S
C601 C600 1.502 . S
C602 H588 0.960 . S
C602 H589 0.961 . S
C602 H590 0.959 . S
C602 C600 1.561 . S
C603 C600 1.526 . S
C603 C604 1.396 . S
C603 C608 1.390 . S
C604 C598 1.465 . S
C604 C603 1.396 . S
C604 C605 1.399 . S
C605 H591 0.929 . S
C605 C604 1.399 . S
C605 C606 1.385 . S
C606 H592 0.931 . S
C606 C605 1.385 . S
C606 C607 1.389 . S
C607 C606 1.389 . S
C607 C608 1.387 . S
C608 H593 0.930 . S
C608 C603 1.390 . S
C608 C607 1.387 . S
H609 C621 0.930 . S
H610 C623 0.930 . S
H611 C624 0.930 . S
H612 C628 0.959 . S
H613 C628 0.959 . S
H614 C628 0.961 . S
H615 C629 0.960 . S
H616 C629 0.961 . S
H617 C629 0.959 . S
H618 C632 0.929 . S
H619 C633 0.931 . S
H620 C635 0.930 . S
C621 H609 0.930 . S
C621 C622 1.399 . S
C621 C626 1.399 . S
C622 C621 1.399 . S
C622 C623 1.376 . S
C623 H610 0.930 . S
C623 C622 1.376 . S
C623 C624 1.388 . S
C624 H611 0.930 . S
C624 C623 1.388 . S
C624 C625 1.390 . S
C625 C624 1.390 . S
C625 C626 1.394 . S
C625 C631 1.465 . S
C626 C621 1.399 . S
C626 C625 1.394 . S
C626 C627 1.516 . S
C627 C626 1.516 . S
C627 C628 1.502 . S
C627 C629 1.561 . S
C627 C630 1.526 . S
C628 H612 0.959 . S
C628 H613 0.959 . S
C628 H614 0.961 . S
C628 C627 1.502 . S
C629 H615 0.960 . S
C629 H616 0.961 . S
C629 H617 0.959 . S
C629 C627 1.561 . S
C630 C627 1.526 . S
C630 C631 1.396 . S
C630 C635 1.390 . S
C631 C625 1.465 . S
C631 C630 1.396 . S
C631 C632 1.399 . S
C632 H618 0.929 . S
C632 C631 1.399 . S
C632 C633 1.385 . S
C633 H619 0.931 . S
C633 C632 1.385 . S
C633 C634 1.389 . S
C634 C633 1.389 . S
C634 C635 1.387 . S
C635 H620 0.930 . S
C635 C630 1.390 . S
C635 C634 1.387 . S
H636 C648 0.930 . S
H637 C650 0.930 . S
H638 C651 0.930 . S
H639 C655 0.959 . S
H640 C655 0.959 . S
H641 C655 0.961 . S
H642 C656 0.960 . S
H643 C656 0.961 . S
H644 C656 0.959 . S
H645 C659 0.929 . S
H646 C660 0.931 . S
H647 C662 0.930 . S
C648 H636 0.930 . S
C648 C649 1.399 . S
C648 C653 1.399 . S
C649 C648 1.399 . S
C649 C650 1.376 . S
C650 H637 0.930 . S
C650 C649 1.376 . S
C650 C651 1.388 . S
C651 H638 0.930 . S
C651 C650 1.388 . S
C651 C652 1.390 . S
C652 C651 1.390 . S
C652 C653 1.394 . S
C652 C658 1.465 . S
C653 C648 1.399 . S
C653 C652 1.394 . S
C653 C654 1.516 . S
C654 C653 1.516 . S
C654 C655 1.502 . S
C654 C656 1.561 . S
C654 C657 1.526 . S
C655 H639 0.959 . S
C655 H640 0.959 . S
C655 H641 0.961 . S
C655 C654 1.502 . S
C656 H642 0.960 . S
C656 H643 0.961 . S
C656 H644 0.959 . S
C656 C654 1.561 . S
C657 C654 1.526 . S
C657 C658 1.396 . S
C657 C662 1.390 . S
C658 C652 1.465 . S
C658 C657 1.396 . S
C658 C659 1.399 . S
C659 H645 0.929 . S
C659 C658 1.399 . S
C659 C660 1.385 . S
C660 H646 0.931 . S
C660 C659 1.385 . S
C660 C661 1.389 . S
C661 C660 1.389 . S
C661 C662 1.387 . S
C662 H647 0.930 . S
C662 C657 1.390 . S
C662 C661 1.387 . S
H663 C675 0.930 . S
H664 C677 0.930 . S
H665 C678 0.930 . S
H666 C682 0.959 . S
H667 C682 0.959 . S
H668 C682 0.961 . S
H669 C683 0.960 . S
H670 C683 0.961 . S
H671 C683 0.959 . S
H672 C686 0.929 . S
H673 C687 0.931 . S
H674 C689 0.930 . S
C675 H663 0.930 . S
C675 C676 1.399 . S
C675 C680 1.399 . S
C676 C675 1.399 . S
C676 C677 1.376 . S
C677 H664 0.930 . S
C677 C676 1.376 . S
C677 C678 1.388 . S
C678 H665 0.930 . S
C678 C677 1.388 . S
C678 C679 1.390 . S
C679 C678 1.390 . S
C679 C680 1.394 . S
C679 C685 1.465 . S
C680 C675 1.399 . S
C680 C679 1.394 . S
C680 C681 1.516 . S
C681 C680 1.516 . S
C681 C682 1.502 . S
C681 C683 1.561 . S
C681 C684 1.526 . S
C682 H666 0.959 . S
C682 H667 0.959 . S
C682 H668 0.961 . S
C682 C681 1.502 . S
C683 H669 0.960 . S
C683 H670 0.961 . S
C683 H671 0.959 . S
C683 C681 1.561 . S
C684 C681 1.526 . S
C684 C685 1.396 . S
C684 C689 1.390 . S
C685 C679 1.465 . S
C685 C684 1.396 . S
C685 C686 1.399 . S
C686 H672 0.929 . S
C686 C685 1.399 . S
C686 C687 1.385 . S
C687 H673 0.931 . S
C687 C686 1.385 . S
C687 C688 1.389 . S
C688 C687 1.389 . S
C688 C689 1.387 . S
C689 H674 0.930 . S
C689 C684 1.390 . S
C689 C688 1.387 . S
H690 C702 0.930 . S
H691 C704 0.930 . S
H692 C705 0.930 . S
H693 C709 0.959 . S
H694 C709 0.959 . S
H695 C709 0.961 . S
H696 C710 0.960 . S
H697 C710 0.961 . S
H698 C710 0.959 . S
H699 C713 0.929 . S
H700 C714 0.931 . S
H701 C716 0.930 . S
C702 H690 0.930 . S
C702 C703 1.399 . S
C702 C707 1.399 . S
C703 C702 1.399 . S
C703 C704 1.376 . S
C704 H691 0.930 . S
C704 C703 1.376 . S
C704 C705 1.388 . S
C705 H692 0.930 . S
C705 C704 1.388 . S
C705 C706 1.390 . S
C706 C705 1.390 . S
C706 C707 1.394 . S
C706 C712 1.465 . S
C707 C702 1.399 . S
C707 C706 1.394 . S
C707 C708 1.516 . S
C708 C707 1.516 . S
C708 C709 1.502 . S
C708 C710 1.561 . S
C708 C711 1.526 . S
C709 H693 0.959 . S
C709 H694 0.959 . S
C709 H695 0.961 . S
C709 C708 1.502 . S
C710 H696 0.960 . S
C710 H697 0.961 . S
C710 H698 0.959 . S
C710 C708 1.561 . S
C711 C708 1.526 . S
C711 C712 1.396 . S
C711 C716 1.390 . S
C712 C706 1.465 . S
C712 C711 1.396 . S
C712 C713 1.399 . S
C713 H699 0.929 . S
C713 C712 1.399 . S
C713 C714 1.385 . S
C714 H700 0.931 . S
C714 C713 1.385 . S
C714 C715 1.389 . S
C715 C714 1.389 . S
C715 C716 1.387 . S
C716 H701 0.930 . S
C716 C711 1.390 . S
C716 C715 1.387 . S
H717 C729 0.930 . S
H718 C731 0.930 . S
H719 C732 0.930 . S
H720 C736 0.959 . S
H721 C736 0.959 . S
H722 C736 0.961 . S
H723 C737 0.960 . S
H724 C737 0.961 . S
H725 C737 0.959 . S
H726 C740 0.929 . S
H727 C741 0.931 . S
H728 C743 0.930 . S
C729 H717 0.930 . S
C729 C730 1.399 . S
C729 C734 1.399 . S
C730 C729 1.399 . S
C730 C731 1.376 . S
C731 H718 0.930 . S
C731 C730 1.376 . S
C731 C732 1.388 . S
C732 H719 0.930 . S
C732 C731 1.388 . S
C732 C733 1.390 . S
C733 C732 1.390 . S
C733 C734 1.394 . S
C733 C739 1.465 . S
C734 C729 1.399 . S
C734 C733 1.394 . S
C734 C735 1.516 . S
C735 C734 1.516 . S
C735 C736 1.502 . S
C735 C737 1.561 . S
C735 C738 1.526 . S
C736 H720 0.959 . S
C736 H721 0.959 . S
C736 H722 0.961 . S
C736 C735 1.502 . S
C737 H723 0.960 . S
C737 H724 0.961 . S
C737 H725 0.959 . S
C737 C735 1.561 . S
C738 C735 1.526 . S
C738 C739 1.396 . S
C738 C743 1.390 . S
C739 C733 1.465 . S
C739 C738 1.396 . S
C739 C740 1.399 . S
C740 H726 0.929 . S
C740 C739 1.399 . S
C740 C741 1.385 . S
C741 H727 0.931 . S
C741 C740 1.385 . S
C741 C742 1.389 . S
C742 C741 1.389 . S
C742 C743 1.387 . S
C743 H728 0.930 . S
C743 C738 1.390 . S
C743 C742 1.387 . S
H744 C756 0.930 . S
H745 C758 0.930 . S
H746 C759 0.930 1_554 S
H747 C763 0.959 . S
H748 C763 0.959 . S
H749 C763 0.961 . S
H750 C764 0.960 . S
H751 C764 0.961 . S
H752 C764 0.959 . S
H753 C767 0.929 . S
H754 C768 0.931 . S
H755 C770 0.930 1_556 S
C756 H744 0.930 . S
C756 C757 1.399 . S
C756 C761 1.399 . S
C757 C756 1.399 . S
C757 C758 1.376 . S
C758 H745 0.930 . S
C758 C757 1.376 . S
C758 C759 1.388 . S
C759 H746 0.930 1_556 S
C759 C758 1.388 . S
C759 C760 1.390 . S
C760 C759 1.390 . S
C760 C761 1.394 . S
C760 C766 1.465 1_556 S
C761 C756 1.399 . S
C761 C760 1.394 . S
C761 C762 1.516 . S
C762 C761 1.516 . S
C762 C763 1.502 . S
C762 C764 1.561 . S
C762 C765 1.526 . S
C763 H747 0.959 . S
C763 H748 0.959 . S
C763 H749 0.961 . S
C763 C762 1.502 . S
C764 H750 0.960 . S
C764 H751 0.961 . S
C764 H752 0.959 . S
C764 C762 1.561 . S
C765 C762 1.526 . S
C765 C766 1.396 1_556 S
C765 C770 1.390 1_556 S
C766 C760 1.465 1_554 S
C766 C765 1.396 1_554 S
C766 C767 1.399 . S
C767 H753 0.929 . S
C767 C766 1.399 . S
C767 C768 1.385 . S
C768 H754 0.931 . S
C768 C767 1.385 . S
C768 C769 1.389 . S
C769 C768 1.389 . S
C769 C770 1.387 . S
C770 H755 0.930 1_554 S
C770 C765 1.390 1_554 S
C770 C769 1.387 . S
H771 C783 0.930 1_455 S
H772 C785 0.930 . S
H773 C786 0.930 . S
H774 C790 0.959 . S
H775 C790 0.959 . S
H776 C790 0.961 . S
H777 C791 0.960 . S
H778 C791 0.961 . S
H779 C791 0.959 . S
H780 C794 0.929 . S
H781 C795 0.931 . S
H782 C797 0.930 . S
C783 H771 0.930 1_655 S
C783 C784 1.399 . S
C783 C788 1.399 . S
C784 C783 1.399 . S
C784 C785 1.376 . S
C785 H772 0.930 . S
C785 C784 1.376 . S
C785 C786 1.388 . S
C786 H773 0.930 . S
C786 C785 1.388 . S
C786 C787 1.390 . S
C787 C786 1.390 . S
C787 C788 1.394 . S
C787 C793 1.465 . S
C788 C783 1.399 . S
C788 C787 1.394 . S
C788 C789 1.516 1_655 S
C789 C788 1.516 1_455 S
C789 C790 1.502 . S
C789 C791 1.561 . S
C789 C792 1.526 1_455 S
C790 H774 0.959 . S
C790 H775 0.959 . S
C790 H776 0.961 . S
C790 C789 1.502 . S
C791 H777 0.960 . S
C791 H778 0.961 . S
C791 H779 0.959 . S
C791 C789 1.561 . S
C792 C789 1.526 1_655 S
C792 C793 1.396 . S
C792 C797 1.390 1_655 S
C793 C787 1.465 . S
C793 C792 1.396 . S
C793 C794 1.399 . S
C794 H780 0.929 . S
C794 C793 1.399 . S
C794 C795 1.385 . S
C795 H781 0.931 . S
C795 C794 1.385 . S
C795 C796 1.389 . S
C796 C795 1.389 . S
C796 C797 1.387 1_655 S
C797 H782 0.930 . S
C797 C792 1.390 1_455 S
C797 C796 1.387 1_455 S
H798 C810 0.930 . S
H799 C812 0.930 . S
H800 C813 0.930 . S
H801 C817 0.959 . S
H802 C817 0.959 . S
H803 C817 0.961 . S
H804 C818 0.960 . S
H805 C818 0.961 . S
H806 C818 0.959 . S
H807 C821 0.929 . S
H808 C822 0.931 . S
H809 C824 0.930 . S
C810 H798 0.930 . S
C810 C811 1.399 . S
C810 C815 1.399 . S
C811 C810 1.399 . S
C811 C812 1.376 . S
C812 H799 0.930 . S
C812 C811 1.376 . S
C812 C813 1.388 . S
C813 H800 0.930 . S
C813 C812 1.388 . S
C813 C814 1.390 . S
C814 C813 1.390 . S
C814 C815 1.394 . S
C814 C820 1.465 . S
C815 C810 1.399 . S
C815 C814 1.394 . S
C815 C816 1.516 . S
C816 C815 1.516 . S
C816 C817 1.502 . S
C816 C818 1.561 . S
C816 C819 1.526 . S
C817 H801 0.959 . S
C817 H802 0.959 . S
C817 H803 0.961 . S
C817 C816 1.502 . S
C818 H804 0.960 . S
C818 H805 0.961 . S
C818 H806 0.959 . S
C818 C816 1.561 . S
C819 C816 1.526 . S
C819 C820 1.396 . S
C819 C824 1.390 . S
C820 C814 1.465 . S
C820 C819 1.396 . S
C820 C821 1.399 . S
C821 H807 0.929 . S
C821 C820 1.399 . S
C821 C822 1.385 . S
C822 H808 0.931 . S
C822 C821 1.385 . S
C822 C823 1.389 . S
C823 C822 1.389 . S
C823 C824 1.387 . S
C824 H809 0.930 . S
C824 C819 1.390 . S
C824 C823 1.387 . S
H825 C837 0.930 . S
H826 C839 0.930 . S
H827 C840 0.930 . S
H828 C844 0.959 . S
H829 C844 0.959 . S
H830 C844 0.961 . S
H831 C845 0.960 . S
H832 C845 0.961 . S
H833 C845 0.959 . S
H834 C848 0.929 . S
H835 C849 0.931 . S
H836 C851 0.930 . S
C837 H825 0.930 . S
C837 C838 1.399 . S
C837 C842 1.399 . S
C838 C837 1.399 . S
C838 C839 1.376 . S
C839 H826 0.930 . S
C839 C838 1.376 . S
C839 C840 1.388 . S
C840 H827 0.930 . S
C840 C839 1.388 . S
C840 C841 1.390 . S
C841 C840 1.390 . S
C841 C842 1.394 . S
C841 C847 1.465 . S
C842 C837 1.399 . S
C842 C841 1.394 . S
C842 C843 1.516 . S
C843 C842 1.516 . S
C843 C844 1.502 . S
C843 C845 1.561 . S
C843 C846 1.526 . S
C844 H828 0.959 . S
C844 H829 0.959 . S
C844 H830 0.961 . S
C844 C843 1.502 . S
C845 H831 0.960 . S
C845 H832 0.961 . S
C845 H833 0.959 . S
C845 C843 1.561 . S
C846 C843 1.526 . S
C846 C847 1.396 . S
C846 C851 1.390 . S
C847 C841 1.465 . S
C847 C846 1.396 . S
C847 C848 1.399 . S
C848 H834 0.929 . S
C848 C847 1.399 . S
C848 C849 1.385 . S
C849 H835 0.931 . S
C849 C848 1.385 . S
C849 C850 1.389 . S
C850 C849 1.389 . S
C850 C851 1.387 . S
C851 H836 0.930 . S
C851 C846 1.390 . S
C851 C850 1.387 . S
H852 C864 0.930 . S
H853 C866 0.930 . S
H854 C867 0.930 . S
H855 C871 0.959 . S
H856 C871 0.959 . S
H857 C871 0.961 . S
H858 C872 0.960 . S
H859 C872 0.961 . S
H860 C872 0.959 . S
H861 C875 0.929 . S
H862 C876 0.931 . S
H863 C878 0.930 . S
C864 H852 0.930 . S
C864 C865 1.399 . S
C864 C869 1.399 . S
C865 C864 1.399 . S
C865 C866 1.376 . S
C866 H853 0.930 . S
C866 C865 1.376 . S
C866 C867 1.388 . S
C867 H854 0.930 . S
C867 C866 1.388 . S
C867 C868 1.390 . S
C868 C867 1.390 . S
C868 C869 1.394 . S
C868 C874 1.465 . S
C869 C864 1.399 . S
C869 C868 1.394 . S
C869 C870 1.516 . S
C870 C869 1.516 . S
C870 C871 1.502 . S
C870 C872 1.561 . S
C870 C873 1.526 . S
C871 H855 0.959 . S
C871 H856 0.959 . S
C871 H857 0.961 . S
C871 C870 1.502 . S
C872 H858 0.960 . S
C872 H859 0.961 . S
C872 H860 0.959 . S
C872 C870 1.561 . S
C873 C870 1.526 . S
C873 C874 1.396 . S
C873 C878 1.390 . S
C874 C868 1.465 . S
C874 C873 1.396 . S
C874 C875 1.399 . S
C875 H861 0.929 . S
C875 C874 1.399 . S
C875 C876 1.385 . S
C876 H862 0.931 . S
C876 C875 1.385 . S
C876 C877 1.389 . S
C877 C876 1.389 . S
C877 C878 1.387 . S
C878 H863 0.930 . S
C878 C873 1.390 . S
C878 C877 1.387 . S
H879 C891 0.930 . S
H880 C893 0.930 . S
H881 C894 0.930 . S
H882 C898 0.959 . S
H883 C898 0.959 . S
H884 C898 0.961 . S
H885 C899 0.960 . S
H886 C899 0.961 . S
H887 C899 0.959 . S
H888 C902 0.929 . S
H889 C903 0.931 . S
H890 C905 0.930 . S
C891 H879 0.930 . S
C891 C892 1.399 . S
C891 C896 1.399 . S
C892 C891 1.399 . S
C892 C893 1.376 . S
C893 H880 0.930 . S
C893 C892 1.376 . S
C893 C894 1.388 . S
C894 H881 0.930 . S
C894 C893 1.388 . S
C894 C895 1.390 . S
C895 C894 1.390 . S
C895 C896 1.394 . S
C895 C901 1.465 . S
C896 C891 1.399 . S
C896 C895 1.394 . S
C896 C897 1.516 . S
C897 C896 1.516 . S
C897 C898 1.502 . S
C897 C899 1.561 . S
C897 C900 1.526 . S
C898 H882 0.959 . S
C898 H883 0.959 . S
C898 H884 0.961 . S
C898 C897 1.502 . S
C899 H885 0.960 . S
C899 H886 0.961 . S
C899 H887 0.959 . S
C899 C897 1.561 . S
C900 C897 1.526 . S
C900 C901 1.396 . S
C900 C905 1.390 . S
C901 C895 1.465 . S
C901 C900 1.396 . S
C901 C902 1.399 . S
C902 H888 0.929 . S
C902 C901 1.399 . S
C902 C903 1.385 . S
C903 H889 0.931 . S
C903 C902 1.385 . S
C903 C904 1.389 . S
C904 C903 1.389 . S
C904 C905 1.387 . S
C905 H890 0.930 . S
C905 C900 1.390 . S
C905 C904 1.387 . S
H906 C918 0.930 . S
H907 C920 0.930 . S
H908 C921 0.930 . S
H909 C925 0.959 . S
H910 C925 0.959 . S
H911 C925 0.961 . S
H912 C926 0.960 . S
H913 C926 0.961 . S
H914 C926 0.959 . S
H915 C929 0.929 . S
H916 C930 0.931 . S
H917 C932 0.930 . S
C918 H906 0.930 . S
C918 C919 1.399 . S
C918 C923 1.399 . S
C919 C918 1.399 . S
C919 C920 1.376 . S
C920 H907 0.930 . S
C920 C919 1.376 . S
C920 C921 1.388 . S
C921 H908 0.930 . S
C921 C920 1.388 . S
C921 C922 1.390 . S
C922 C921 1.390 . S
C922 C923 1.394 . S
C922 C928 1.465 . S
C923 C918 1.399 . S
C923 C922 1.394 . S
C923 C924 1.516 . S
C924 C923 1.516 . S
C924 C925 1.502 . S
C924 C926 1.561 . S
C924 C927 1.526 . S
C925 H909 0.959 . S
C925 H910 0.959 . S
C925 H911 0.961 . S
C925 C924 1.502 . S
C926 H912 0.960 . S
C926 H913 0.961 . S
C926 H914 0.959 . S
C926 C924 1.561 . S
C927 C924 1.526 . S
C927 C928 1.396 . S
C927 C932 1.390 . S
C928 C922 1.465 . S
C928 C927 1.396 . S
C928 C929 1.399 . S
C929 H915 0.929 . S
C929 C928 1.399 . S
C929 C930 1.385 . S
C930 H916 0.931 . S
C930 C929 1.385 . S
C930 C931 1.389 . S
C931 C930 1.389 . S
C931 C932 1.387 . S
C932 H917 0.930 . S
C932 C927 1.390 . S
C932 C931 1.387 . S
H933 C945 0.930 . S
H934 C947 0.930 . S
H935 C948 0.930 . S
H936 C952 0.959 . S
H937 C952 0.959 . S
H938 C952 0.961 . S
H939 C953 0.960 . S
H940 C953 0.961 . S
H941 C953 0.959 . S
H942 C956 0.929 . S
H943 C957 0.931 . S
H944 C959 0.930 . S
C945 H933 0.930 . S
C945 C946 1.399 . S
C945 C950 1.399 . S
C946 C945 1.399 . S
C946 C947 1.376 . S
C947 H934 0.930 . S
C947 C946 1.376 . S
C947 C948 1.388 . S
C948 H935 0.930 . S
C948 C947 1.388 . S
C948 C949 1.390 . S
C949 C948 1.390 . S
C949 C950 1.394 . S
C949 C955 1.465 . S
C950 C945 1.399 . S
C950 C949 1.394 . S
C950 C951 1.516 . S
C951 C950 1.516 . S
C951 C952 1.502 . S
C951 C953 1.561 . S
C951 C954 1.526 . S
C952 H936 0.959 . S
C952 H937 0.959 . S
C952 H938 0.961 . S
C952 C951 1.502 . S
C953 H939 0.960 . S
C953 H940 0.961 . S
C953 H941 0.959 . S
C953 C951 1.561 . S
C954 C951 1.526 . S
C954 C955 1.396 . S
C954 C959 1.390 . S
C955 C949 1.465 . S
C955 C954 1.396 . S
C955 C956 1.399 . S
C956 H942 0.929 . S
C956 C955 1.399 . S
C956 C957 1.385 . S
C957 H943 0.931 . S
C957 C956 1.385 . S
C957 C958 1.389 . S
C958 C957 1.389 . S
C958 C959 1.387 . S
C959 H944 0.930 . S
C959 C954 1.390 . S
C959 C958 1.387 . S
C325 C6 1.450 . S
C337 C167 1.419 . S
C352 C21 1.433 . S
C364 C207 1.453 . S
C391 C241 1.784 . S
C379 C49 1.656 . S
C406 C68 2.379 . S
C418 C282 2.456 1_655 S
C445 C202 2.292 . S
C433 C2 2.225 . S
C472 C162 1.779 1_565 S
C460 C30 1.700 . S
C499 C290 1.450 . S
C487 C40 1.497 . S
C526 C251 1.690 . S
C514 C63 1.848 . S
C541 C11 1.255 . S
C553 C287 1.315 . S
C580 C210 2.261 . S
C568 C44 2.340 . S
C595 C59 1.983 . S
C607 C170 1.907 . S
C622 C25 2.039 . S
C634 C238 2.062 . S
C661 C158 1.573 . S
C649 C82 1.609 . S
C676 C101 1.121 . S
C688 C198 1.097 . S
C703 C125 1.901 . S
C715 C250 2.042 . S
C730 C144 2.116 . S
C742 C291 2.101 . S
C757 C87 1.237 . S
C769 C211 1.278 . S
C796 C171 2.736 . S
C784 C97 2.611 . S
C823 C281 1.532 . S
C811 C120 1.463 . S
C850 C242 1.665 . S
C838 C135 1.736 . S
C865 C78 1.874 . S
C877 C278 1.998 . S
C904 C201 1.539 . S
C892 C116 1.530 . S
C931 C161 2.547 . S
C919 C139 2.651 . S
C946 C106 1.267 . S
C958 C247 1.486 . S
