# Generated by pormake.
# Topology llj, (12,3)-cn, num edge types: 1
# Building blocks:
#     Node 0, Type 0, BuildingBlock: QEWDON_clean_sbu_0, # of connection points: 12
#     Node 1, Type 0, BuildingBlock: QEWDON_clean_sbu_0, # of connection points: 12
#     Node 2, Type 1, BuildingBlock: PAMTOO_clean_linker_0, # of connection points: 3
#     Node 3, Type 1, BuildingBlock: PAMTOO_clean_linker_0, # of connection points: 3
#     Node 4, Type 1, BuildingBlock: PAMTOO_clean_linker_0, # of connection points: 3
#     Node 5, Type 1, BuildingBlock: PAMTOO_clean_linker_0, # of connection points: 3
#     Node 6, Type 1, BuildingBlock: PAMTOO_clean_linker_0, # of connection points: 3
#     Node 7, Type 1, BuildingBlock: PAMTOO_clean_linker_0, # of connection points: 3
#     Node 8, Type 1, BuildingBlock: PAMTOO_clean_linker_0, # of connection points: 3
#     Node 9, Type 1, BuildingBlock: PAMTOO_clean_linker_0, # of connection points: 3
#     Edge 10, Type (0, 1), BuildingBlock: XUDNAN_clean_linker_2, # of connection points: 2
#     Edge 11, Type (0, 1), BuildingBlock: XUDNAN_clean_linker_2, # of connection points: 2
#     Edge 12, Type (0, 1), BuildingBlock: XUDNAN_clean_linker_2, # of connection points: 2
#     Edge 13, Type (0, 1), BuildingBlock: XUDNAN_clean_linker_2, # of connection points: 2
#     Edge 14, Type (0, 1), BuildingBlock: XUDNAN_clean_linker_2, # of connection points: 2
#     Edge 15, Type (0, 1), BuildingBlock: XUDNAN_clean_linker_2, # of connection points: 2
#     Edge 16, Type (0, 1), BuildingBlock: XUDNAN_clean_linker_2, # of connection points: 2
#     Edge 17, Type (0, 1), BuildingBlock: XUDNAN_clean_linker_2, # of connection points: 2
#     Edge 18, Type (0, 1), BuildingBlock: XUDNAN_clean_linker_2, # of connection points: 2
#     Edge 19, Type (0, 1), BuildingBlock: XUDNAN_clean_linker_2, # of connection points: 2
#     Edge 20, Type (0, 1), BuildingBlock: XUDNAN_clean_linker_2, # of connection points: 2
#     Edge 21, Type (0, 1), BuildingBlock: XUDNAN_clean_linker_2, # of connection points: 2
#     Edge 22, Type (0, 1), BuildingBlock: XUDNAN_clean_linker_2, # of connection points: 2
#     Edge 23, Type (0, 1), BuildingBlock: XUDNAN_clean_linker_2, # of connection points: 2
#     Edge 24, Type (0, 1), BuildingBlock: XUDNAN_clean_linker_2, # of connection points: 2
#     Edge 25, Type (0, 1), BuildingBlock: XUDNAN_clean_linker_2, # of connection points: 2
#     Edge 26, Type (0, 1), BuildingBlock: XUDNAN_clean_linker_2, # of connection points: 2
#     Edge 27, Type (0, 1), BuildingBlock: XUDNAN_clean_linker_2, # of connection points: 2
#     Edge 28, Type (0, 1), BuildingBlock: XUDNAN_clean_linker_2, # of connection points: 2
#     Edge 29, Type (0, 1), BuildingBlock: XUDNAN_clean_linker_2, # of connection points: 2
#     Edge 30, Type (0, 1), BuildingBlock: XUDNAN_clean_linker_2, # of connection points: 2
#     Edge 31, Type (0, 1), BuildingBlock: XUDNAN_clean_linker_2, # of connection points: 2
#     Edge 32, Type (0, 1), BuildingBlock: XUDNAN_clean_linker_2, # of connection points: 2
#     Edge 33, Type (0, 1), BuildingBlock: XUDNAN_clean_linker_2, # of connection points: 2
# Relax obj value: 0.010
# Max RMSD: 0.102
# Mean RMSD: 0.087
data_MOF--net-llj--node1-QEWDON_clean_sbu_0--node2-PAMTOO_clean_linker_0--edge1-XUDNAN_clean_linker_2
_symmetry_space_group_name_H-M    P1
_symmetry_Int_Tables_number       1
_symmetry_cell_setting            triclinic
loop_
_symmetry_equiv_pos_as_xyz
'x, y, z'
_cell_length_a     39.396623
_cell_length_b     39.421217
_cell_length_c     24.4205
_cell_angle_alpha  91.339487
_cell_angle_beta   90.421101
_cell_angle_gamma 90.066242
loop_
_atom_site_label
_atom_site_type_symbol
_atom_site_fract_x
_atom_site_fract_y
_atom_site_fract_z
_atom_type_partial_charge
Zn0 Zn 0.95237 0.08012 0.96099 0.0
Zn1 Zn 0.94876 0.07204 0.09084 0.0
O2 O 0.97838 0.06419 0.02593 0.0
H3 H 0.99445 0.04592 0.02147 0.0
C4 C 0.88931 0.03012 0.9035 0.0
O5 O 0.88438 0.03778 0.95549 0.0
Zn6 Zn 0.0354 0.91325 0.05577 0.0
Zn7 Zn 0.03959 0.93034 0.93005 0.0
O8 O 0.00645 0.92693 0.99237 0.0
H9 H 0.98258 0.92213 0.98705 0.0
Zn10 Zn 0.90877 0.96646 0.95168 0.0
O11 O 0.93592 0.98353 0.01648 0.0
Zn12 Zn 0.92514 0.95277 0.07757 0.0
H13 H 0.95721 0.99542 0.01304 0.0
Zn14 Zn 0.06592 0.04507 0.95572 0.0
O15 O 0.05051 0.01189 0.01267 0.0
H16 H 0.03401 0.9941 0.00605 0.0
Zn17 Zn 0.06207 0.03417 0.0848 0.0
C18 C 0.08706 0.99635 0.87205 0.0
O19 O 0.09124 0.97777 0.91555 0.0
O20 O 0.91419 0.11193 0.98398 0.0
O21 O 0.91214 0.10808 0.07479 0.0
O22 O 0.08065 0.89922 0.94121 0.0
O23 O 0.07449 0.88387 0.02774 0.0
O24 O 0.8755 0.92801 0.96899 0.0
O25 O 0.88685 0.91971 0.05723 0.0
C26 C 0.00914 0.07294 0.15632 0.0
O27 O 0.09864 0.08174 0.98561 0.0
O28 O 0.09798 0.07168 0.0747 0.0
O29 O 0.01754 0.92616 0.85357 0.0
C30 C 0.90146 0.12068 0.02996 0.0
O31 O 0.98175 0.09355 0.89571 0.0
C32 C 0.9757 0.90049 0.11448 0.0
O33 O 0.89919 0.0004 0.89013 0.0
C34 C 0.09001 0.88189 0.98202 0.0
O35 O 0.07581 0.02637 0.8779 0.0
C36 C 0.92023 0.01244 0.14642 0.0
O37 O 0.97881 0.0841 0.15662 0.0
O38 O 0.01872 0.05569 0.11445 0.0
C39 C 0.87016 0.91247 0.01336 0.0
O40 O 0.00521 0.888 0.10871 0.0
O41 O 0.96847 0.92707 0.08853 0.0
C42 C 0.07304 0.9665 0.12931 0.0
O43 O 0.91472 0.98067 0.14576 0.0
O44 O 0.92831 0.02637 0.10212 0.0
C45 C 0.10901 0.08831 0.03419 0.0
O46 O 0.07957 0.99801 0.13559 0.0
O47 O 0.05397 0.95716 0.08937 0.0
C48 C 0.00509 0.95045 0.82673 0.0
O49 O 0.0068 0.98153 0.84717 0.0
C50 C 0.0109 0.10526 0.90823 0.0
O51 O 0.01966 0.10813 0.96015 0.0
Zn52 Zn 0.45856 0.55662 0.45401 0.0
Zn53 Zn 0.46356 0.57136 0.5774 0.0
O54 O 0.49383 0.56151 0.51431 0.0
H55 H 0.51303 0.54639 0.51568 0.0
C56 C 0.40281 0.50669 0.38835 0.0
O57 O 0.39499 0.51165 0.44014 0.0
Zn58 Zn 0.55118 0.4289 0.59224 0.0
Zn59 Zn 0.5487 0.41824 0.45981 0.0
O60 O 0.52652 0.44253 0.52436 0.0
H61 H 0.51553 0.46429 0.52144 0.0
Zn62 Zn 0.43823 0.45357 0.44009 0.0
O63 O 0.44891 0.48125 0.50859 0.0
Zn64 Zn 0.43377 0.45416 0.57217 0.0
H65 H 0.46612 0.4987 0.50907 0.0
Zn66 Zn 0.56842 0.55425 0.48797 0.0
O67 O 0.58346 0.51627 0.53641 0.0
H68 H 0.59928 0.49856 0.5261 0.0
Zn69 Zn 0.58337 0.54432 0.60495 0.0
C70 C 0.56793 0.51245 0.38988 0.0
O71 O 0.5557 0.49059 0.42443 0.0
O72 O 0.41982 0.59071 0.46565 0.0
O73 O 0.42473 0.60291 0.55472 0.0
O74 O 0.58685 0.38541 0.4826 0.0
O75 O 0.58692 0.39298 0.57325 0.0
O76 O 0.40777 0.41286 0.45552 0.0
O77 O 0.39978 0.41764 0.54563 0.0
C78 C 0.52314 0.58411 0.64377 0.0
O79 O 0.59038 0.59918 0.51208 0.0
O80 O 0.61184 0.58737 0.59386 0.0
O81 O 0.51822 0.40376 0.39334 0.0
C82 C 0.41025 0.60715 0.50833 0.0
O83 O 0.47864 0.55283 0.37629 0.0
C84 C 0.48623 0.41702 0.64319 0.0
O85 O 0.42232 0.48224 0.37525 0.0
C86 C 0.5984 0.37842 0.52992 0.0
O87 O 0.57373 0.54266 0.40637 0.0
C88 C 0.42583 0.51577 0.63405 0.0
O89 O 0.49244 0.59332 0.63738 0.0
O90 O 0.53439 0.55925 0.61511 0.0
C91 C 0.39351 0.40324 0.49916 0.0
O92 O 0.51773 0.41076 0.64815 0.0
O93 O 0.47673 0.43332 0.60141 0.0
C94 C 0.59308 0.48178 0.66062 0.0
O95 O 0.4152 0.48533 0.63264 0.0
O96 O 0.44444 0.5257 0.59552 0.0
C97 C 0.60867 0.60736 0.55355 0.0
O98 O 0.6013 0.51306 0.66387 0.0
O99 O 0.57315 0.47233 0.62183 0.0
C100 C 0.50723 0.37347 0.39364 0.0
O101 O 0.51555 0.3543 0.43494 0.0
C102 C 0.49765 0.57793 0.36653 0.0
O103 O 0.50111 0.60197 0.40437 0.0
H104 H 0.40682 0.34919 0.01603 0.0
H105 H 0.33484 0.28369 0.09383 0.0
H106 H 0.32381 0.30401 0.92368 0.0
H107 H 0.25631 0.29514 0.97945 0.0
C108 C 0.26647 0.28239 0.01626 0.0
O109 O 0.29904 0.27124 0.00596 0.0
H110 H 0.26638 0.30129 0.0509 0.0
C111 C 0.38428 0.33343 0.01398 0.0
C112 C 0.3665 0.32932 0.96389 0.0
C113 C 0.37339 0.31682 0.06123 0.0
C114 C 0.34406 0.29644 0.05802 0.0
C115 C 0.32627 0.29215 0.00869 0.0
C116 C 0.33748 0.30839 0.96185 0.0
H117 H 0.6496 0.41611 0.01204 0.0
H118 H 0.69379 0.35781 0.14102 0.0
H119 H 0.70959 0.32782 0.97275 0.0
H120 H 0.68926 0.27628 0.06393 0.0
C121 C 0.71334 0.2823 0.08634 0.0
O122 O 0.72442 0.31465 0.07537 0.0
H123 H 0.70839 0.28054 0.13094 0.0
C124 C 0.66497 0.3949 0.02505 0.0
C125 C 0.67894 0.3727 0.98569 0.0
C126 C 0.66988 0.38963 0.08102 0.0
C127 C 0.68918 0.36181 0.09784 0.0
C128 C 0.70364 0.33969 0.05886 0.0
C129 C 0.69822 0.34489 0.00276 0.0
H130 H 0.6126 0.61942 0.99283 0.0
H131 H 0.6895 0.69226 0.95398 0.0
H132 H 0.6816 0.65684 0.11815 0.0
H133 H 0.71133 0.72496 0.12595 0.0
C134 C 0.70771 0.72829 0.08121 0.0
O135 O 0.71384 0.69765 0.05444 0.0
H136 H 0.68104 0.7368 0.07468 0.0
C137 C 0.63444 0.63451 0.00544 0.0
C138 C 0.64479 0.6355 0.0606 0.0
C139 C 0.6506 0.65457 0.96667 0.0
C140 C 0.67727 0.67616 0.98331 0.0
C141 C 0.68846 0.67662 0.03793 0.0
C142 C 0.6727 0.65593 0.07606 0.0
H143 H 0.37015 0.60203 0.01849 0.0
H144 H 0.28783 0.66041 0.0891 0.0
H145 H 0.30845 0.66574 0.91806 0.0
H146 H 0.30534 0.73101 0.98468 0.0
C147 C 0.28262 0.72462 0.00933 0.0
O148 O 0.27332 0.69127 -0.00042 0.0
H149 H 0.28949 0.72846 0.05335 0.0
C150 C 0.34895 0.61929 0.0148 0.0
C151 C 0.34067 0.63156 0.96284 0.0
C152 C 0.33012 0.62918 0.06135 0.0
C153 C 0.30327 0.65233 0.05475 0.0
C154 C 0.29631 0.66612 0.00369 0.0
C155 C 0.31436 0.65516 0.95758 0.0
H156 H 0.89004 0.87279 0.45632 0.0
H157 H 0.8441 0.822 0.59051 0.0
H158 H 0.81376 0.79583 0.42559 0.0
H159 H 0.7658 0.81982 0.54106 0.0
C160 C 0.77439 0.79479 0.55636 0.0
O161 O 0.80359 0.78419 0.53004 0.0
H162 H 0.77993 0.79832 0.60084 0.0
C163 C 0.87166 0.85471 0.47099 0.0
C164 C 0.85243 0.83486 0.43347 0.0
C165 C 0.86873 0.85041 0.52749 0.0
C166 C 0.84661 0.82563 0.54686 0.0
C167 C 0.82626 0.80657 0.51029 0.0
C168 C 0.82923 0.81105 0.45362 0.0
H169 H 0.13931 0.89578 0.48275 0.0
H170 H 0.2029 0.8431 0.59701 0.0
H171 H 0.20323 0.8141 0.4264 0.0
H172 H 0.19617 0.75991 0.51626 0.0
C173 C 0.21959 0.7686 0.53826 0.0
O174 O 0.2281 0.80111 0.52361 0.0
H175 H 0.21447 0.76842 0.58297 0.0
C176 C 0.15808 0.87651 0.49138 0.0
C177 C 0.17035 0.85615 0.44806 0.0
C178 C 0.16972 0.87253 0.54529 0.0
C179 C 0.19303 0.84647 0.55598 0.0
C180 C 0.20462 0.82514 0.51327 0.0
C181 C 0.19332 0.82999 0.45936 0.0
H182 H 0.1013 0.13532 0.53257 0.0
H183 H 0.16687 0.19597 0.43466 0.0
H184 H 0.1662 0.21183 0.6083 0.0
H185 H 0.1755 0.2739 0.54961 0.0
C186 C 0.18753 0.26346 0.51174 0.0
O187 O 0.19407 0.22942 0.51758 0.0
H188 H 0.16976 0.26727 0.47677 0.0
C189 C 0.11957 0.15576 0.52995 0.0
C190 C 0.13202 0.17226 0.57783 0.0
C191 C 0.13173 0.16439 0.47826 0.0
C192 C 0.15688 0.18938 0.47426 0.0
C193 C 0.16915 0.20616 0.52136 0.0
C194 C 0.15658 0.19795 0.57269 0.0
H195 H 0.90608 0.13663 0.5371 0.0
H196 H 0.83415 0.17372 0.41868 0.0
H197 H 0.81746 0.19195 0.58885 0.0
H198 H 0.76196 0.17169 0.51356 0.0
C199 C 0.76523 0.19396 0.48681 0.0
O200 O 0.79787 0.20657 0.49055 0.0
H201 H 0.76004 0.18532 0.44389 0.0
C202 C 0.88262 0.1494 0.52723 0.0
C203 C 0.86225 0.16187 0.57024 0.0
C204 C 0.8722 0.15155 0.47209 0.0
C205 C 0.84337 0.17126 0.46022 0.0
C206 C 0.82493 0.187 0.50246 0.0
C207 C 0.83381 0.1817 0.55715 0.0
H208 H 0.13515 0.13085 0.9578 0.0
H209 H 0.13949 0.109 0.13122 0.0
H210 H 0.18082 0.15572 0.14554 0.0
H211 H 0.22259 0.1519 0.94087 0.0
H212 H 0.21414 0.18568 0.8942 0.0
H213 H 0.18527 0.15036 0.89767 0.0
H214 H 0.13545 0.19155 0.91795 0.0
H215 H 0.16412 0.22698 0.91393 0.0
H216 H 0.13893 0.2216 0.97445 0.0
H217 H 0.22209 0.20503 0.14042 0.0
H218 H 0.25847 0.25385 0.11662 0.0
H219 H 0.22584 0.24359 0.94723 0.0
C220 C 0.14469 0.13577 -0.00111 0.0
C221 C 0.13403 0.11611 0.04338 0.0
C222 C 0.14728 0.12359 0.09643 0.0
C223 C 0.17078 0.15009 0.10497 0.0
C224 C 0.18064 0.16896 0.06012 0.0
C225 C 0.16787 0.16218 0.00818 0.0
C226 C 0.18195 0.18653 0.96696 0.0
C227 C 0.2022 0.16747 0.9223 0.0
C228 C 0.15341 0.20793 0.94186 0.0
C229 C 0.20491 0.208 0.0037 0.0
C230 C 0.20384 0.19749 0.05731 0.0
C231 C 0.22296 0.21355 0.09865 0.0
C232 C 0.24346 0.24121 0.08487 0.0
C233 C 0.24439 0.25267 0.03041 0.0
C234 C 0.22519 0.23553 0.98931 0.0
H235 H 0.86297 0.14504 0.11725 0.0
H236 H 0.87722 0.15427 0.94188 0.0
H237 H 0.82967 0.19403 0.93781 0.0
H238 H 0.77112 0.15062 0.11584 0.0
H239 H 0.76892 0.17608 0.17799 0.0
H240 H 0.8036 0.14696 0.1677 0.0
H241 H 0.84651 0.19604 0.18358 0.0
H242 H 0.81196 0.22533 0.19393 0.0
H243 H 0.8434 0.23337 0.14255 0.0
H244 H 0.78053 0.23173 0.95069 0.0
H245 H 0.73431 0.26953 0.98225 0.0
H246 H 0.75257 0.23962 0.14969 0.0
C247 C 0.85602 0.15541 0.07807 0.0
C248 C 0.87353 0.14586 0.02973 0.0
C249 C 0.86388 0.16044 0.97937 0.0
C250 C 0.83689 0.18323 0.97652 0.0
C251 C 0.8199 0.19171 0.02451 0.0
C252 C 0.82916 0.17866 0.07449 0.0
C253 C 0.80704 0.19318 0.11994 0.0
C254 C 0.78645 0.16502 0.14695 0.0
C255 C 0.82852 0.21318 0.1625 0.0
C256 C 0.78417 0.21644 0.08743 0.0
C257 C 0.79191 0.21479 0.03237 0.0
C258 C 0.77423 0.23343 0.99373 0.0
C259 C 0.74807 0.25473 0.01189 0.0
C260 C 0.74007 0.25743 0.06814 0.0
C261 C 0.75825 0.23792 0.1064 0.0
H262 H 0.85307 0.87078 0.0981 0.0
H263 H 0.82879 0.89212 0.92841 0.0
H264 H 0.78606 0.84657 0.92719 0.0
H265 H 0.84402 0.77971 0.08572 0.0
H266 H 0.82511 0.7756 0.15225 0.0
H267 H 0.85426 0.80977 0.14012 0.0
H268 H 0.80935 0.85335 0.1722 0.0
H269 H 0.77988 0.81948 0.18456 0.0
H270 H 0.76803 0.85333 0.1399 0.0
H271 H 0.74541 0.79968 0.94392 0.0
H272 H 0.70858 0.75421 0.97883 0.0
H273 H 0.75901 0.76266 0.13698 0.0
C274 C 0.83877 0.86591 0.06067 0.0
C275 C 0.84432 0.88515 0.01336 0.0
C276 C 0.82507 0.87783 0.96522 0.0
C277 C 0.80072 0.85194 0.96403 0.0
C278 C 0.79591 0.8335 0.01122 0.0
C279 C 0.81432 0.84008 0.05869 0.0
C280 C 0.80379 0.81664 0.10388 0.0
C281 C 0.83357 0.79408 0.12149 0.0
C282 C 0.78939 0.83692 0.15302 0.0
C283 C 0.77639 0.79607 0.07436 0.0
C284 C 0.77238 0.8062 0.0209 0.0
C285 C 0.74834 0.7914 0.98563 0.0
C286 C 0.72763 0.76566 0.00564 0.0
C287 C 0.73114 0.75504 0.06027 0.0
C288 C 0.75596 0.77031 0.09493 0.0
H289 H 0.12379 0.847 0.06202 0.0
H290 H 0.12159 0.86352 0.8868 0.0
H291 H 0.16996 0.8246 0.87468 0.0
H292 H 0.21417 0.84327 0.07645 0.0
H293 H 0.21348 0.81036 0.12645 0.0
H294 H 0.17833 0.8393 0.12136 0.0
H295 H 0.13705 0.78862 0.10758 0.0
H296 H 0.17204 0.75945 0.11253 0.0
H297 H 0.14455 0.75788 0.05319 0.0
H298 H 0.21833 0.78391 0.88128 0.0
H299 H 0.26494 0.74512 0.90706 0.0
H300 H 0.23561 0.75479 0.07743 0.0
C301 C 0.13342 0.84237 0.02109 0.0
C302 C 0.11903 0.85848 0.97536 0.0
C303 C 0.13245 0.85178 0.92251 0.0
C304 C 0.1598 0.82956 0.91514 0.0
C305 C 0.17341 0.81415 0.96103 0.0
C306 C 0.16074 0.82024 0.01298 0.0
C307 C 0.18027 0.80064 0.05545 0.0
C308 C 0.19759 0.82485 0.09739 0.0
C309 C 0.15709 0.77513 0.08384 0.0
C310 C 0.206 0.78275 0.01924 0.0
C311 C 0.20149 0.79079 0.96488 0.0
C312 C 0.22222 0.77748 0.9237 0.0
C313 C 0.24854 0.75559 0.93859 0.0
C314 C 0.25393 0.74756 0.9941 0.0
C315 C 0.23211 0.76092 0.03476 0.0
H316 H 0.66196 0.63002 0.62007 0.0
H317 H 0.59928 0.65771 0.48087 0.0
H318 H 0.63456 0.70803 0.46756 0.0
H319 H 0.67744 0.71782 0.67036 0.0
H320 H 0.7206 0.70911 0.69056 0.0
H321 H 0.68912 0.67592 0.69166 0.0
H322 H 0.72702 0.63838 0.62881 0.0
H323 H 0.75838 0.67159 0.62686 0.0
H324 H 0.74064 0.65431 0.56392 0.0
H325 H 0.67839 0.75265 0.46356 0.0
H326 H 0.72616 0.79295 0.47558 0.0
H327 H 0.76067 0.73851 0.61777 0.0
C328 C 0.65536 0.647 0.58745 0.0
C329 C 0.62789 0.63967 0.5514 0.0
C330 C 0.62025 0.66249 0.50893 0.0
C331 C 0.64016 0.69125 0.50089 0.0
C332 C 0.66759 0.6972 0.53584 0.0
C333 C 0.67506 0.67611 0.57876 0.0
C334 C 0.70653 0.68841 0.60954 0.0
C335 C 0.6979 0.69841 0.66906 0.0
C336 C 0.73481 0.66157 0.60711 0.0
C337 C 0.71568 0.71927 0.57655 0.0
C338 C 0.69283 0.72373 0.53418 0.0
C339 C 0.69624 0.74979 0.49702 0.0
C340 C 0.7234 0.77245 0.50399 0.0
C341 C 0.74654 0.76906 0.54802 0.0
C342 C 0.74296 0.7418 0.58421 0.0
H343 H 0.37296 0.63875 0.59036 0.0
H344 H 0.38423 0.63199 0.41366 0.0
H345 H 0.33687 0.67187 0.40252 0.0
H346 H 0.28146 0.6439 0.59072 0.0
H347 H 0.28021 0.67372 0.64779 0.0
H348 H 0.31493 0.64424 0.64139 0.0
H349 H 0.35736 0.69458 0.64611 0.0
H350 H 0.32264 0.72412 0.65156 0.0
H351 H 0.35332 0.72821 0.5977 0.0
H352 H 0.28827 0.71221 0.40979 0.0
H353 H 0.24142 0.75107 0.43586 0.0
H354 H 0.26182 0.73295 0.60739 0.0
C355 C 0.36553 0.64576 0.54937 0.0
C356 C 0.38215 0.63188 0.50285 0.0
C357 C 0.37159 0.64175 0.44992 0.0
C358 C 0.34479 0.66459 0.44311 0.0
C359 C 0.32881 0.67759 0.48964 0.0
C360 C 0.33875 0.66866 0.54176 0.0
C361 C 0.31712 0.68642 0.58479 0.0
C362 C 0.29724 0.66053 0.61814 0.0
C363 C 0.33892 0.70972 0.62224 0.0
C364 C 0.29362 0.70675 0.54864 0.0
C365 C 0.3008 0.70118 0.49387 0.0
C366 C 0.28241 0.71683 0.45254 0.0
C367 C 0.25592 0.73877 0.4676 0.0
C368 C 0.24811 0.74483 0.5234 0.0
C369 C 0.2673 0.72868 0.5644 0.0
H370 H 0.34631 0.38524 0.57579 0.0
H371 H 0.38093 0.36114 0.4109 0.0
H372 H 0.33329 0.32125 0.39794 0.0
H373 H 0.31555 0.29926 0.60678 0.0
H374 H 0.2796 0.31535 0.64446 0.0
H375 H 0.31833 0.33965 0.6427 0.0
H376 H 0.28474 0.39097 0.60627 0.0
H377 H 0.246 0.36676 0.60719 0.0
H378 H 0.25955 0.38589 0.54467 0.0
H379 H 0.27969 0.28771 0.39955 0.0
H380 H 0.22448 0.26028 0.418 0.0
H381 H 0.22454 0.3057 0.58139 0.0
C382 C 0.34428 0.37106 0.53739 0.0
C383 C 0.36736 0.37638 0.49438 0.0
C384 C 0.36354 0.35761 0.44445 0.0
C385 C 0.33657 0.33483 0.43665 0.0
C386 C 0.31371 0.33095 0.4792 0.0
C387 C 0.31742 0.34824 0.5288 0.0
C388 C 0.28834 0.34056 0.56686 0.0
C389 C 0.30123 0.32263 0.61824 0.0
C390 C 0.26849 0.37298 0.58211 0.0
C391 C 0.26742 0.31682 0.53043 0.0
C392 C 0.28262 0.31153 0.48012 0.0
C393 C 0.26764 0.29144 0.43891 0.0
C394 C 0.23632 0.27617 0.44952 0.0
C395 C 0.22036 0.28126 0.50072 0.0
C396 C 0.23622 0.30165 0.54176 0.0
H397 H 0.62837 0.34121 0.44703 0.0
H398 H 0.62852 0.35572 0.62397 0.0
H399 H 0.67125 0.31034 0.63214 0.0
H400 H 0.63582 0.25112 0.44555 0.0
H401 H 0.66327 0.24925 0.38683 0.0
H402 H 0.63335 0.28349 0.39473 0.0
H403 H 0.68215 0.32724 0.38772 0.0
H404 H 0.71223 0.29316 0.37953 0.0
H405 H 0.71814 0.32466 0.43347 0.0
H406 H 0.71321 0.2625 0.62112 0.0
H407 H 0.75207 0.21636 0.59116 0.0
H408 H 0.72454 0.23352 0.42193 0.0
C409 C 0.63746 0.33503 0.48755 0.0
C410 C 0.62501 0.35209 0.53486 0.0
C411 C 0.63763 0.34308 0.58707 0.0
C412 C 0.6619 0.3173 0.59217 0.0
C413 C 0.67337 0.30084 0.54471 0.0
C414 C 0.66167 0.30944 0.4934 0.0
C415 C 0.67787 0.28768 0.44887 0.0
C416 C 0.65097 0.26664 0.41715 0.0
C417 C 0.69885 0.30949 0.41012 0.0
C418 C 0.70042 0.26535 0.48316 0.0
C419 C 0.69746 0.27333 0.53836 0.0
C420 C 0.71571 0.25601 0.57804 0.0
C421 C 0.73757 0.22988 0.56078 0.0
C422 C 0.74081 0.22128 0.5045 0.0
C423 C 0.72218 0.23942 0.46527 0.0
H424 H 0.99395 0.10524 0.25418 0.0
H425 H 0.07722 0.05899 0.16504 0.0
H426 H 0.11669 0.07576 0.23825 0.0
H427 H 0.03899 0.17653 0.30721 0.0
H428 H 0.01924 0.17679 0.37357 0.0
H429 H 0.99667 0.15989 0.31467 0.0
H430 H 0.98801 0.10299 0.36309 0.0
H431 H 0.01019 0.1197 0.42262 0.0
H432 H 0.02423 0.08076 0.3899 0.0
H433 H 0.14813 0.10148 0.3169 0.0
H434 H 0.16904 0.13094 0.40109 0.0
H435 H 0.06573 0.15813 0.44358 0.0
C436 C 0.02047 0.09858 0.25006 0.0
C437 C 0.03253 0.08128 0.20261 0.0
C438 C 0.0673 0.07261 0.1997 0.0
C439 C 0.09002 0.08197 0.24157 0.0
C440 C 0.07749 0.09959 0.28694 0.0
C441 C 0.04349 0.10745 0.29202 0.0
C442 C 0.03683 0.12673 0.3453 0.0
C443 C 0.02207 0.16208 0.3345 0.0
C444 C 0.01344 0.10631 0.38245 0.0
C445 C 0.07261 0.12908 0.36851 0.0
C446 C 0.09562 0.11328 0.33398 0.0
C447 C 0.13039 0.11357 0.34476 0.0
C448 C 0.14204 0.13045 0.39233 0.0
C449 C 0.11893 0.14648 0.42855 0.0
C450 C 0.08378 0.14559 0.41669 0.0
H451 H 0.89915 0.07775 0.16825 0.0
H452 H 0.94375 0.98952 0.24261 0.0
H453 H 0.9424 0.01857 0.33315 0.0
H454 H 0.94325 0.14251 0.25915 0.0
H455 H 0.90648 0.16961 0.26071 0.0
H456 H 0.91476 0.14316 0.20109 0.0
H457 H 0.85469 0.11656 0.20904 0.0
H458 H 0.84671 0.14315 0.26838 0.0
H459 H 0.84242 0.09774 0.27246 0.0
H460 H 0.92865 0.05275 0.4149 0.0
H461 H 0.90553 0.09068 0.48499 0.0
H462 H 0.87533 0.16145 0.35912 0.0
C463 C 0.90938 0.06504 0.20349 0.0
C464 C 0.92137 0.03136 0.19897 0.0
C465 C 0.93389 0.01506 0.24586 0.0
C466 C 0.93364 0.03153 0.29713 0.0
C467 C 0.92111 0.06451 0.30058 0.0
C468 C 0.90952 0.08133 0.2551 0.0
C469 C 0.89512 0.11581 0.27117 0.0
C470 C 0.91618 0.14446 0.24657 0.0
C471 C 0.85751 0.11845 0.25429 0.0
C472 C 0.8993 0.11505 0.33297 0.0
C473 C 0.91452 0.08526 0.3487 0.0
C474 C 0.91776 0.07675 0.4033 0.0
C475 C 0.90473 0.09901 0.44314 0.0
C476 C 0.88907 0.13009 0.42871 0.0
C477 C 0.88706 0.13825 0.37246 0.0
H478 H 0.93883 0.93103 0.19452 0.0
H479 H 0.95869 0.83333 0.11742 0.0
H480 H 0.91949 0.80613 0.18233 0.0
H481 H 0.94011 0.90237 0.3276 0.0
H482 H 0.90807 0.93154 0.35193 0.0
H483 H 0.93384 0.94217 0.29459 0.0
H484 H 0.8783 0.9513 0.2377 0.0
H485 H 0.85287 0.93901 0.29501 0.0
H486 H 0.84827 0.91693 0.22987 0.0
H487 H 0.8841 0.78922 0.26337 0.0
H488 H 0.86008 0.78376 0.35606 0.0
H489 H 0.86133 0.89324 0.37718 0.0
C490 C 0.93356 0.90423 0.18972 0.0
C491 C 0.95065 0.8844 0.15005 0.0
C492 C 0.94528 0.84893 0.14725 0.0
C493 C 0.92292 0.83338 0.18364 0.0
C494 C 0.90633 0.85373 0.22258 0.0
C495 C 0.91159 0.88843 0.2259 0.0
C496 C 0.89447 0.90414 0.27555 0.0
C497 C 0.92066 0.92104 0.31468 0.0
C498 C 0.86683 0.92933 0.25849 0.0
C499 C 0.8793 0.87286 0.30043 0.0
C500 C 0.88605 0.844 0.26915 0.0
C501 C 0.87806 0.81172 0.28759 0.0
C502 C 0.86424 0.80884 0.34023 0.0
C503 C 0.85883 0.83808 0.37386 0.0
C504 C 0.86509 0.87043 0.3524 0.0
H505 H 0.1114 0.98211 0.21952 0.0
H506 H 0.06892 0.89611 0.12875 0.0
H507 H 0.09401 0.85731 0.19553 0.0
H508 H 0.19028 0.94173 0.26078 0.0
H509 H 0.19033 0.96259 0.32726 0.0
H510 H 0.17116 0.98302 0.26951 0.0
H511 H 0.11464 0.98904 0.32252 0.0
H512 H 0.13359 0.96879 0.38043 0.0
H513 H 0.09513 0.95181 0.35015 0.0
H514 H 0.12165 0.82811 0.27725 0.0
H515 H 0.14622 0.81235 0.36714 0.0
H516 H 0.17013 0.91806 0.40189 0.0
C517 C 0.10754 0.95511 0.21305 0.0
C518 C 0.08816 0.94226 0.16825 0.0
C519 C 0.08363 0.90672 0.16219 0.0
C520 C 0.09795 0.88441 0.20004 0.0
C521 C 0.11679 0.89807 0.24381 0.0
C522 C 0.1215 0.93268 0.25035 0.0
C523 C 0.14105 0.94145 0.3022 0.0
C524 C 0.17524 0.95818 0.28913 0.0
C525 C 0.11983 0.96409 0.3411 0.0
C526 C 0.14601 0.90642 0.32464 0.0
C527 C 0.13228 0.88156 0.2903 0.0
C528 C 0.13272 0.84737 0.30419 0.0
C529 C 0.14682 0.83861 0.35507 0.0
C530 C 0.15987 0.86402 0.39134 0.0
C531 C 0.16014 0.89813 0.37504 0.0
H532 H 0.10607 0.93141 0.84337 0.0
H533 H 0.09081 0.03167 0.77725 0.0
H534 H 0.11083 0.01075 0.68722 0.0
H535 H 0.1822 0.91086 0.76897 0.0
H536 H 0.17065 0.86686 0.75921 0.0
H537 H 0.15548 0.89061 0.81794 0.0
H538 H 0.09346 0.87404 0.78949 0.0
H539 H 0.10916 0.85117 0.7302 0.0
H540 H 0.07821 0.88437 0.72215 0.0
H541 H 0.136 0.98034 0.60682 0.0
H542 H 0.15911 0.94088 0.53725 0.0
H543 H 0.15465 0.859 0.65315 0.0
C544 C 0.10683 0.94894 0.80992 0.0
C545 C 0.09712 0.98323 0.81742 0.0
C546 C 0.0982 0.00531 0.77251 0.0
C547 C 0.10963 0.9937 0.72125 0.0
C548 C 0.11957 0.95992 0.71551 0.0
C549 C 0.11792 0.93772 0.75833 0.0
C550 C 0.12976 0.90255 0.74087 0.0
C551 C 0.16138 0.8921 0.7737 0.0
C552 C 0.10093 0.8765 0.74596 0.0
C553 C 0.13844 0.90851 0.68154 0.0
C554 C 0.13269 0.94188 0.66808 0.0
C555 C 0.14001 0.95399 0.61649 0.0
C556 C 0.15298 0.93124 0.57715 0.0
C557 C 0.15805 0.89654 0.58916 0.0
C558 C 0.15104 0.88526 0.64248 0.0
H559 H 0.99949 0.10599 0.79731 0.0
H560 H 0.07567 0.1286 0.92225 0.0
H561 H 0.11608 0.14474 0.85081 0.0
H562 H 0.05729 0.074 0.69166 0.0
H563 H 0.03349 0.09331 0.63733 0.0
H564 H 0.01223 0.08017 0.69837 0.0
H565 H 0.98864 0.14158 0.71195 0.0
H566 H 0.01037 0.15444 0.65129 0.0
H567 H 0.01795 0.17671 0.71554 0.0
H568 H 0.14802 0.15825 0.76623 0.0
H569 H 0.16833 0.17266 0.67483 0.0
H570 H 0.06871 0.14827 0.60639 0.0
C571 C 0.02475 0.1141 0.80964 0.0
C572 C 0.03474 0.11534 0.8653 0.0
C573 C 0.06779 0.12666 0.8798 0.0
C574 C 0.09086 0.13602 0.83956 0.0
C575 C 0.08023 0.13448 0.7851 0.0
C576 C 0.04788 0.12416 0.77008 0.0
C577 C 0.04224 0.12674 0.70898 0.0
C578 C 0.03594 0.09147 0.68253 0.0
C579 C 0.01308 0.15133 0.69622 0.0
C580 C 0.07625 0.14087 0.69225 0.0
C581 C 0.098 0.1444 0.73659 0.0
C582 C 0.1311 0.15604 0.7312 0.0
C583 C 0.14225 0.16458 0.679 0.0
C584 C 0.12008 0.16227 0.63292 0.0
C585 C 0.08662 0.15012 0.64013 0.0
H586 H 0.90563 0.02504 0.79479 0.0
H587 H 0.86121 0.09325 0.9164 0.0
H588 H 0.85415 0.13689 0.84611 0.0
H589 H 0.94982 0.08947 0.71772 0.0
H590 H 0.9412 0.06861 0.65261 0.0
H591 H 0.94536 0.04403 0.71357 0.0
H592 H 0.88573 0.01757 0.69582 0.0
H593 H 0.88174 0.04173 0.63457 0.0
H594 H 0.84977 0.0452 0.68685 0.0
H595 H 0.85169 0.17297 0.76148 0.0
H596 H 0.84828 0.19593 0.66846 0.0
H597 H 0.88933 0.10116 0.60269 0.0
C598 C 0.89459 0.04922 0.80683 0.0
C599 C 0.88448 0.056 0.86132 0.0
C600 C 0.86983 0.08783 0.87515 0.0
C601 C 0.8657 0.11275 0.83553 0.0
C602 C 0.87624 0.10535 0.78225 0.0
C603 C 0.89005 0.0742 0.76781 0.0
C604 C 0.89738 0.07172 0.70721 0.0
C605 C 0.93572 0.06824 0.69717 0.0
C606 C 0.87745 0.04233 0.6795 0.0
C607 C 0.88454 0.10592 0.68948 0.0
C608 C 0.87323 0.12533 0.73339 0.0
C609 C 0.86031 0.15789 0.7267 0.0
C610 C 0.85824 0.17062 0.6735 0.0
C611 C 0.8684 0.15055 0.62747 0.0
C612 C 0.88205 0.11787 0.63634 0.0
H613 H 0.99023 0.88798 0.78271 0.0
H614 H 0.97676 0.99557 0.75541 0.0
H615 H 0.94199 0.9818 0.67285 0.0
H616 H 0.99462 0.8606 0.63972 0.0
H617 H 0.97149 0.82199 0.65146 0.0
H618 H 0.99733 0.84072 0.70533 0.0
H619 H 0.94521 0.8421 0.76957 0.0
H620 H 0.91913 0.82367 0.71586 0.0
H621 H 0.90703 0.86338 0.74817 0.0
H622 H 0.90706 0.95565 0.59498 0.0
H623 H 0.8739 0.91952 0.52964 0.0
H624 H 0.90898 0.82962 0.61177 0.0
C625 C 0.98037 0.90876 0.75912 0.0
C626 C 0.98627 0.94288 0.77535 0.0
C627 C 0.97258 0.96924 0.74357 0.0
C628 C 0.95286 0.96166 0.69669 0.0
C629 C 0.9471 0.92765 0.68245 0.0
C630 C 0.9605 0.90167 0.71282 0.0
C631 C 0.94937 0.86725 0.69073 0.0
C632 C 0.98003 0.84642 0.67061 0.0
C633 C 0.92897 0.84799 0.73364 0.0
C634 C 0.9271 0.87781 0.64354 0.0
C635 C 0.92641 0.91271 0.6389 0.0
C636 C 0.9075 0.92832 0.59817 0.0
C637 C 0.88882 0.90766 0.56132 0.0
C638 C 0.88887 0.87191 0.56606 0.0
C639 C 0.90829 0.85691 0.60767 0.0
H640 H 0.56994 0.55782 0.71239 0.0
H641 H 0.52412 0.65248 0.66568 0.0
H642 H 0.55877 0.68312 0.73616 0.0
H643 H 0.56919 0.57097 0.84674 0.0
H644 H 0.60957 0.55296 0.86468 0.0
H645 H 0.58778 0.53824 0.8037 0.0
H646 H 0.63796 0.55408 0.7396 0.0
H647 H 0.66153 0.56414 0.80153 0.0
H648 H 0.65776 0.59489 0.74832 0.0
H649 H 0.59498 0.70218 0.81781 0.0
H650 H 0.62525 0.70689 0.90719 0.0
H651 H 0.64647 0.59915 0.89924 0.0
C652 C 0.56863 0.58512 0.71506 0.0
C653 C 0.54541 0.60292 0.68257 0.0
C654 C 0.54221 0.63849 0.68994 0.0
C655 C 0.56197 0.65609 0.72947 0.0
C656 C 0.58477 0.63766 0.76105 0.0
C657 C 0.58822 0.60292 0.75402 0.0
C658 C 0.6116 0.58832 0.79671 0.0
C659 C 0.59345 0.56101 0.82987 0.0
C660 C 0.64415 0.5745 0.77004 0.0
C661 C 0.61912 0.61981 0.83105 0.0
C662 C 0.60443 0.64829 0.80895 0.0
C663 C 0.60697 0.68011 0.835 0.0
C664 C 0.62426 0.68262 0.8855 0.0
C665 C 0.63814 0.65338 0.90951 0.0
C666 C 0.63617 0.62185 0.8813 0.0
H667 H 0.36413 0.53457 0.67558 0.0
H668 H 0.47256 0.54446 0.7012 0.0
H669 H 0.46275 0.57937 0.78498 0.0
H670 H 0.34162 0.62065 0.72734 0.0
H671 H 0.3032 0.60609 0.75883 0.0
H672 H 0.31909 0.58459 0.69833 0.0
H673 H 0.31931 0.52778 0.75005 0.0
H674 H 0.30378 0.54924 0.81068 0.0
H675 H 0.34251 0.52503 0.8137 0.0
H676 H 0.44126 0.60826 0.86978 0.0
H677 H 0.40931 0.63139 0.94911 0.0
H678 H 0.31459 0.60399 0.86799 0.0
C679 C 0.38563 0.54469 0.69855 0.0
C680 C 0.4191 0.53801 0.68157 0.0
C681 C 0.44682 0.55075 0.71277 0.0
C682 C 0.44146 0.57023 0.76055 0.0
C683 C 0.40814 0.57663 0.77634 0.0
C684 C 0.38066 0.56448 0.74617 0.0
C685 C 0.34749 0.57395 0.77344 0.0
C686 C 0.32661 0.59773 0.73733 0.0
C687 C 0.32709 0.5421 0.78782 0.0
C688 C 0.36066 0.59241 0.82437 0.0
C689 C 0.39572 0.59376 0.82513 0.0
C690 C 0.4138 0.60781 0.86938 0.0
C691 C 0.39553 0.62073 0.91422 0.0
C692 C 0.35964 0.61963 0.91417 0.0
C693 C 0.34204 0.60563 0.86844 0.0
H694 H 0.50171 0.38867 0.742 0.0
H695 H 0.41634 0.42077 0.64305 0.0
H696 H 0.37707 0.40414 0.71518 0.0
H697 H 0.46117 0.315 0.79477 0.0
H698 H 0.48047 0.31938 0.86172 0.0
H699 H 0.50207 0.33516 0.80276 0.0
H700 H 0.50611 0.39469 0.84952 0.0
H701 H 0.48439 0.37916 0.90859 0.0
H702 H 0.46798 0.41536 0.87328 0.0
H703 H 0.34685 0.38373 0.79824 0.0
H704 H 0.32767 0.35889 0.88446 0.0
H705 H 0.43238 0.33762 0.92856 0.0
C706 C 0.47476 0.39234 0.73542 0.0
C707 C 0.46224 0.40662 0.68654 0.0
C708 C 0.42677 0.41059 0.67989 0.0
C709 C 0.40415 0.40106 0.72086 0.0
C710 C 0.41736 0.38735 0.76849 0.0
C711 C 0.45183 0.38279 0.77591 0.0
C712 C 0.45934 0.36656 0.83038 0.0
C713 C 0.47678 0.33197 0.82188 0.0
C714 C 0.48072 0.39037 0.86764 0.0
C715 C 0.42366 0.36256 0.85223 0.0
C716 C 0.39987 0.3749 0.81599 0.0
C717 C 0.36524 0.37385 0.82687 0.0
C718 C 0.35459 0.35948 0.87586 0.0
C719 C 0.37843 0.34608 0.91338 0.0
C720 C 0.41347 0.34797 0.90127 0.0
H721 H 0.63799 0.49548 0.74429 0.0
H722 H 0.57967 0.41332 0.66963 0.0
H723 H 0.60254 0.37405 0.73699 0.0
H724 H 0.71243 0.44472 0.78425 0.0
H725 H 0.7178 0.46814 0.84802 0.0
H726 H 0.70024 0.48875 0.7891 0.0
H727 H 0.64781 0.50611 0.84516 0.0
H728 H 0.66435 0.48549 0.90443 0.0
H729 H 0.62287 0.47417 0.87809 0.0
H730 H 0.62843 0.3446 0.81776 0.0
H731 H 0.65058 0.32937 0.90925 0.0
H732 H 0.69065 0.43114 0.93213 0.0
C733 C 0.63026 0.46921 0.74147 0.0
C734 C 0.60713 0.45759 0.70068 0.0
C735 C 0.59757 0.42295 0.69939 0.0
C736 C 0.6106 0.40032 0.73769 0.0
C737 C 0.63328 0.4127 0.77729 0.0
C738 C 0.6429 0.44642 0.77957 0.0
C739 C 0.66517 0.45416 0.82902 0.0
C740 C 0.70104 0.46455 0.81153 0.0
C741 C 0.64904 0.48157 0.86642 0.0
C742 C 0.66539 0.41984 0.85544 0.0
C743 C 0.64759 0.39598 0.82435 0.0
C744 C 0.64281 0.36293 0.84212 0.0
C745 C 0.65559 0.35442 0.89385 0.0
C746 C 0.67237 0.37907 0.92721 0.0
C747 C 0.67813 0.4118 0.90699 0.0
H748 H 0.56687 0.4478 0.34631 0.0
H749 H 0.59807 0.55082 0.31227 0.0
H750 H 0.62407 0.53076 0.22609 0.0
H751 H 0.64179 0.40963 0.30461 0.0
H752 H 0.62258 0.372 0.27461 0.0
H753 H 0.60156 0.3947 0.32937 0.0
H754 H 0.54769 0.4011 0.26913 0.0
H755 H 0.56821 0.37783 0.21434 0.0
H756 H 0.55114 0.41942 0.20245 0.0
H757 H 0.65014 0.49945 0.1477 0.0
H758 H 0.67578 0.45837 0.08222 0.0
H759 H 0.63064 0.37527 0.16963 0.0
C760 C 0.57841 0.46626 0.32008 0.0
C761 C 0.57993 0.50097 0.33552 0.0
C762 C 0.59613 0.52419 0.30082 0.0
C763 C 0.61101 0.51304 0.2518 0.0
C764 C 0.60969 0.47857 0.23836 0.0
C765 C 0.59382 0.45548 0.27138 0.0
C766 C 0.59863 0.41946 0.24993 0.0
C767 C 0.61726 0.39769 0.29215 0.0
C768 C 0.56438 0.40352 0.23294 0.0
C769 C 0.62055 0.4259 0.2006 0.0
C770 C 0.62608 0.46022 0.19418 0.0
C771 C 0.64587 0.47252 0.15203 0.0
C772 C 0.66033 0.44908 0.1152 0.0
C773 C 0.65519 0.41382 0.12125 0.0
C774 C 0.63514 0.40212 0.16456 0.0
H775 H 0.5422 0.62711 0.33823 0.0
H776 H 0.49695 0.53264 0.27881 0.0
H777 H 0.53161 0.5354 0.19475 0.0
H778 H 0.54531 0.6678 0.20874 0.0
H779 H 0.58513 0.68858 0.22424 0.0
H780 H 0.55658 0.67852 0.27872 0.0
H781 H 0.60474 0.64511 0.32656 0.0
H782 H 0.63326 0.65473 0.27174 0.0
H783 H 0.62584 0.61124 0.2895 0.0
H784 H 0.57333 0.54825 0.1184 0.0
H785 H 0.61346 0.5728 0.05263 0.0
H786 H 0.6287 0.65949 0.1631 0.0
C787 C 0.53938 0.607 0.30755 0.0
C788 C 0.51695 0.57963 0.31508 0.0
C789 C 0.51402 0.55388 0.27382 0.0
C790 C 0.53359 0.55523 0.22601 0.0
C791 C 0.55592 0.58242 0.22042 0.0
C792 C 0.55859 0.60795 0.25996 0.0
C793 C 0.58397 0.63468 0.24431 0.0
C794 C 0.56671 0.66944 0.23865 0.0
C795 C 0.61371 0.63653 0.28548 0.0
C796 C 0.59521 0.62038 0.18954 0.0
C797 C 0.57916 0.59002 0.17661 0.0
C798 C 0.58574 0.5722 0.12789 0.0
C799 C 0.60851 0.58639 0.09078 0.0
C800 C 0.62422 0.61819 0.10248 0.0
C801 C 0.61771 0.63493 0.15305 0.0
H802 H 0.40487 0.49786 0.27656 0.0
H803 H 0.36897 0.5663 0.40539 0.0
H804 H 0.34797 0.60559 0.3358 0.0
H805 H 0.43071 0.56032 0.18105 0.0
H806 H 0.41521 0.53695 0.12164 0.0
H807 H 0.42888 0.51463 0.18143 0.0
H808 H 0.37053 0.48459 0.18602 0.0
H809 H 0.35665 0.50653 0.12601 0.0
H810 H 0.33231 0.50969 0.18814 0.0
H811 H 0.33463 0.63906 0.25299 0.0
H812 H 0.32229 0.66141 0.16217 0.0
H813 H 0.35883 0.56717 0.08709 0.0
C814 C 0.39279 0.52122 0.29014 0.0
C815 C 0.38935 0.5295 0.34641 0.0
C816 C 0.37265 0.55987 0.36253 0.0
C817 C 0.36057 0.58232 0.32336 0.0
C818 C 0.36478 0.57365 0.26828 0.0
C819 C 0.37985 0.54356 0.25158 0.0
C820 C 0.37939 0.5395 0.18978 0.0
C821 C 0.41571 0.53776 0.16716 0.0
C822 C 0.35847 0.50823 0.17142 0.0
C823 C 0.36192 0.57221 0.17447 0.0
C824 C 0.35426 0.59172 0.22035 0.0
C825 C 0.33974 0.62371 0.21667 0.0
C826 C 0.33244 0.636 0.16459 0.0
C827 C 0.33879 0.616 0.1166 0.0
C828 C 0.35378 0.58356 0.1222 0.0
H829 H 0.48238 0.4067 0.30341 0.0
H830 H 0.48437 0.30851 0.38058 0.0
H831 H 0.45057 0.28407 0.30425 0.0
H832 H 0.396 0.3999 0.25094 0.0
H833 H 0.40537 0.42086 0.18799 0.0
H834 H 0.42947 0.43106 0.24915 0.0
H835 H 0.48488 0.41691 0.19779 0.0
H836 H 0.46126 0.40599 0.13647 0.0
H837 H 0.4901 0.37567 0.16545 0.0
H838 H 0.41845 0.26949 0.21946 0.0
H839 H 0.38758 0.26584 0.13164 0.0
H840 H 0.40424 0.37356 0.10891 0.0
C841 C 0.47563 0.38008 0.30428 0.0
C842 C 0.48616 0.35949 0.34799 0.0
C843 C 0.47669 0.32481 0.34763 0.0
C844 C 0.45749 0.31065 0.30441 0.0
C845 C 0.44777 0.33149 0.26185 0.0
C846 C 0.45627 0.36549 0.26141 0.0
C847 C 0.44243 0.38209 0.21041 0.0
C848 C 0.41679 0.41013 0.22554 0.0
C849 C 0.4714 0.39596 0.17546 0.0
C850 C 0.42509 0.35194 0.18218 0.0
C851 C 0.42858 0.32309 0.21275 0.0
C852 C 0.41522 0.29196 0.19533 0.0
C853 C 0.39753 0.29021 0.14547 0.0
C854 C 0.39306 0.31945 0.11349 0.0
C855 C 0.40731 0.3507 0.13216 0.0
loop_
_geom_bond_atom_site_label_1
_geom_bond_atom_site_label_2
_geom_bond_distance
_geom_bond_site_symmetry_2
_ccdc_geom_bond_type
Zn0 O2 1.933 1_556 S
Zn0 O20 1.985 . S
Zn0 O31 1.955 . S
Zn1 O2 1.911 . S
Zn1 O21 1.970 . S
Zn1 O37 1.945 . S
Zn1 O44 1.981 . S
O2 Zn0 1.933 1_554 S
O2 Zn1 1.911 . S
O2 H3 0.841 1_655 S
H3 O2 0.841 1_455 S
C4 O5 1.246 . S
C4 O33 1.276 1_545 S
O5 C4 1.246 . S
Zn6 O8 1.911 . S
Zn6 O23 1.970 . S
Zn6 O40 1.945 . S
Zn6 O47 1.981 . S
Zn7 O8 1.933 1_556 S
Zn7 O22 1.985 . S
Zn7 O29 1.955 . S
O8 Zn6 1.911 . S
O8 Zn7 1.933 1_554 S
O8 H9 0.841 1_455 S
H9 O8 0.841 1_655 S
Zn10 O11 1.933 1_556 S
Zn10 O24 1.985 . S
Zn10 O33 1.955 . S
O11 Zn10 1.933 1_554 S
O11 Zn12 1.911 . S
O11 H13 0.841 1_565 S
Zn12 O11 1.911 . S
Zn12 O25 1.970 . S
Zn12 O41 1.981 . S
Zn12 O43 1.945 . S
H13 O11 0.841 1_545 S
Zn14 O15 1.933 1_556 S
Zn14 O27 1.985 . S
Zn14 O35 1.955 . S
O15 Zn14 1.933 1_554 S
O15 H16 0.841 1_545 S
O15 Zn17 1.911 . S
H16 O15 0.841 1_565 S
Zn17 O15 1.911 . S
Zn17 O28 1.970 . S
Zn17 O38 1.981 . S
Zn17 O46 1.945 . S
C18 O19 1.246 . S
C18 O35 1.276 1_565 S
O19 C18 1.246 . S
O20 Zn0 1.985 . S
O20 C30 1.245 1_556 S
O21 Zn1 1.970 . S
O21 C30 1.263 . S
O22 Zn7 1.985 . S
O22 C34 1.245 1_556 S
O23 Zn6 1.970 . S
O23 C34 1.263 . S
O24 Zn10 1.985 . S
O24 C39 1.245 1_556 S
O25 Zn12 1.970 . S
O25 C39 1.263 . S
C26 O37 1.262 1_455 S
C26 O38 1.245 . S
O27 Zn14 1.985 . S
O27 C45 1.245 1_556 S
O28 Zn17 1.970 . S
O28 C45 1.263 . S
O29 Zn7 1.955 . S
O29 C48 1.276 1_455 S
C30 O20 1.245 1_554 S
C30 O21 1.263 . S
O31 Zn0 1.955 . S
O31 C50 1.276 1_655 S
C32 O40 1.262 1_655 S
C32 O41 1.245 . S
O33 C4 1.276 1_565 S
O33 Zn10 1.955 . S
C34 O22 1.245 1_554 S
C34 O23 1.263 . S
O35 Zn14 1.955 . S
O35 C18 1.276 1_545 S
C36 O43 1.262 1_545 S
C36 O44 1.245 . S
O37 Zn1 1.945 . S
O37 C26 1.262 1_655 S
O38 Zn17 1.981 . S
O38 C26 1.245 . S
C39 O24 1.245 1_554 S
C39 O25 1.263 . S
O40 Zn6 1.945 . S
O40 C32 1.262 1_455 S
O41 Zn12 1.981 . S
O41 C32 1.245 . S
C42 O46 1.262 1_565 S
C42 O47 1.245 . S
O43 Zn12 1.945 . S
O43 C36 1.262 1_565 S
O44 Zn1 1.981 . S
O44 C36 1.245 . S
C45 O27 1.245 1_554 S
C45 O28 1.263 . S
O46 Zn17 1.945 . S
O46 C42 1.262 1_545 S
O47 Zn6 1.981 . S
O47 C42 1.245 . S
C48 O29 1.276 1_655 S
C48 O49 1.246 . S
O49 C48 1.246 . S
C50 O31 1.276 1_455 S
C50 O51 1.246 . S
O51 C50 1.246 . S
Zn52 O54 1.933 . S
Zn52 O72 1.985 . S
Zn52 O83 1.955 . S
Zn53 O54 1.911 . S
Zn53 O73 1.970 . S
Zn53 O89 1.945 . S
Zn53 O96 1.981 . S
O54 Zn52 1.933 . S
O54 Zn53 1.911 . S
O54 H55 0.841 . S
H55 O54 0.841 . S
C56 O57 1.246 . S
C56 O85 1.276 . S
O57 C56 1.246 . S
Zn58 O60 1.911 . S
Zn58 O75 1.970 . S
Zn58 O92 1.945 . S
Zn58 O99 1.981 . S
Zn59 O60 1.933 . S
Zn59 O74 1.985 . S
Zn59 O81 1.955 . S
O60 Zn58 1.911 . S
O60 Zn59 1.933 . S
O60 H61 0.841 . S
H61 O60 0.841 . S
Zn62 O63 1.933 . S
Zn62 O76 1.985 . S
Zn62 O85 1.955 . S
O63 Zn62 1.933 . S
O63 Zn64 1.911 . S
O63 H65 0.841 . S
Zn64 O63 1.911 . S
Zn64 O77 1.970 . S
Zn64 O93 1.981 . S
Zn64 O95 1.945 . S
H65 O63 0.841 . S
Zn66 O67 1.933 . S
Zn66 O79 1.985 . S
Zn66 O87 1.955 . S
O67 Zn66 1.933 . S
O67 H68 0.841 . S
O67 Zn69 1.911 . S
H68 O67 0.841 . S
Zn69 O67 1.911 . S
Zn69 O80 1.970 . S
Zn69 O90 1.981 . S
Zn69 O98 1.945 . S
C70 O71 1.246 . S
C70 O87 1.276 . S
O71 C70 1.246 . S
O72 Zn52 1.985 . S
O72 C82 1.245 . S
O73 Zn53 1.970 . S
O73 C82 1.263 . S
O74 Zn59 1.985 . S
O74 C86 1.245 . S
O75 Zn58 1.970 . S
O75 C86 1.263 . S
O76 Zn62 1.985 . S
O76 C91 1.245 . S
O77 Zn64 1.970 . S
O77 C91 1.263 . S
C78 O89 1.262 . S
C78 O90 1.245 . S
O79 Zn66 1.985 . S
O79 C97 1.245 . S
O80 Zn69 1.970 . S
O80 C97 1.263 . S
O81 Zn59 1.955 . S
O81 C100 1.276 . S
C82 O72 1.245 . S
C82 O73 1.263 . S
O83 Zn52 1.955 . S
O83 C102 1.276 . S
C84 O92 1.262 . S
C84 O93 1.245 . S
O85 C56 1.276 . S
O85 Zn62 1.955 . S
C86 O74 1.245 . S
C86 O75 1.263 . S
O87 Zn66 1.955 . S
O87 C70 1.276 . S
C88 O95 1.262 . S
C88 O96 1.245 . S
O89 Zn53 1.945 . S
O89 C78 1.262 . S
O90 Zn69 1.981 . S
O90 C78 1.245 . S
C91 O76 1.245 . S
C91 O77 1.263 . S
O92 Zn58 1.945 . S
O92 C84 1.262 . S
O93 Zn64 1.981 . S
O93 C84 1.245 . S
C94 O98 1.262 . S
C94 O99 1.245 . S
O95 Zn64 1.945 . S
O95 C88 1.262 . S
O96 Zn53 1.981 . S
O96 C88 1.245 . S
C97 O79 1.245 . S
C97 O80 1.263 . S
O98 Zn69 1.945 . S
O98 C94 1.262 . S
O99 Zn58 1.981 . S
O99 C94 1.245 . S
C100 O81 1.276 . S
C100 O101 1.246 . S
O101 C100 1.246 . S
C102 O83 1.276 . S
C102 O103 1.246 . S
O103 C102 1.246 . S
H104 C111 0.929 . S
H105 C114 0.930 . S
H106 C116 0.929 . S
H107 C108 0.969 . S
C108 H107 0.969 . S
C108 O109 1.550 1_554 S
C108 H110 0.973 . S
O109 C108 1.550 1_556 S
O109 C115 1.413 . S
H110 C108 0.973 . S
C111 H104 0.929 . S
C111 C112 1.400 1_554 S
C111 C113 1.364 . S
C112 C111 1.400 1_556 S
C112 C116 1.377 . S
C113 C111 1.364 . S
C113 C114 1.374 . S
C114 H105 0.930 . S
C114 C113 1.374 . S
C114 C115 1.376 1_554 S
C115 O109 1.413 . S
C115 C114 1.376 1_556 S
C115 C116 1.400 . S
C116 H106 0.929 . S
C116 C112 1.377 . S
C116 C115 1.400 . S
H117 C124 0.929 . S
H118 C127 0.930 . S
H119 C129 0.929 . S
H120 C121 0.969 . S
C121 H120 0.969 . S
C121 O122 1.550 1_554 S
C121 H123 0.973 . S
O122 C121 1.550 1_556 S
O122 C128 1.412 1_556 S
H123 C121 0.973 . S
C124 H117 0.929 . S
C124 C125 1.400 1_554 S
C124 C126 1.364 . S
C125 C124 1.400 1_556 S
C125 C129 1.377 . S
C126 C124 1.364 . S
C126 C127 1.374 . S
C127 H118 0.930 . S
C127 C126 1.374 . S
C127 C128 1.383 . S
C128 O122 1.412 1_554 S
C128 C127 1.383 . S
C128 C129 1.394 1_554 S
C129 H119 0.929 . S
C129 C125 1.377 . S
C129 C128 1.394 1_556 S
H130 C137 0.929 . S
H131 C140 0.930 . S
H132 C142 0.929 . S
H133 C134 0.969 . S
C134 H133 0.969 . S
C134 O135 1.550 1_556 S
C134 H136 0.973 . S
O135 C134 1.550 1_554 S
O135 C141 1.412 . S
H136 C134 0.973 . S
C137 H130 0.929 . S
C137 C138 1.400 . S
C137 C139 1.364 1_554 S
C138 C137 1.400 . S
C138 C142 1.377 . S
C139 C137 1.364 1_556 S
C139 C140 1.374 . S
C140 H131 0.930 . S
C140 C139 1.374 . S
C140 C141 1.383 1_556 S
C141 O135 1.412 . S
C141 C140 1.383 1_554 S
C141 C142 1.394 . S
C142 H132 0.929 . S
C142 C138 1.377 . S
C142 C141 1.394 . S
H143 C150 0.929 . S
H144 C153 0.930 . S
H145 C155 0.929 . S
H146 C147 0.969 . S
C147 H146 0.969 . S
C147 O148 1.550 1_554 S
C147 H149 0.973 . S
O148 C147 1.550 1_556 S
O148 C154 1.412 1_556 S
H149 C147 0.973 . S
C150 H143 0.929 . S
C150 C151 1.400 1_554 S
C150 C152 1.364 . S
C151 C150 1.400 1_556 S
C151 C155 1.377 . S
C152 C150 1.364 . S
C152 C153 1.374 . S
C153 H144 0.930 . S
C153 C152 1.374 . S
C153 C154 1.383 . S
C154 O148 1.412 1_554 S
C154 C153 1.383 . S
C154 C155 1.394 1_554 S
C155 H145 0.929 . S
C155 C151 1.377 . S
C155 C154 1.394 1_556 S
H156 C163 0.929 . S
H157 C166 0.930 . S
H158 C168 0.929 . S
H159 C160 0.969 . S
C160 H159 0.969 . S
C160 O161 1.550 . S
C160 H162 0.973 . S
O161 C160 1.550 . S
O161 C167 1.412 . S
H162 C160 0.973 . S
C163 H156 0.929 . S
C163 C164 1.400 . S
C163 C165 1.364 . S
C164 C163 1.400 . S
C164 C168 1.377 . S
C165 C163 1.364 . S
C165 C166 1.374 . S
C166 H157 0.930 . S
C166 C165 1.374 . S
C166 C167 1.383 . S
C167 O161 1.412 . S
C167 C166 1.383 . S
C167 C168 1.394 . S
C168 H158 0.929 . S
C168 C164 1.377 . S
C168 C167 1.394 . S
H169 C176 0.929 . S
H170 C179 0.930 . S
H171 C181 0.929 . S
H172 C173 0.969 . S
C173 H172 0.969 . S
C173 O174 1.550 . S
C173 H175 0.973 . S
O174 C173 1.550 . S
O174 C180 1.412 . S
H175 C173 0.973 . S
C176 H169 0.929 . S
C176 C177 1.400 . S
C176 C178 1.364 . S
C177 C176 1.400 . S
C177 C181 1.377 . S
C178 C176 1.364 . S
C178 C179 1.374 . S
C179 H170 0.930 . S
C179 C178 1.374 . S
C179 C180 1.383 . S
C180 O174 1.412 . S
C180 C179 1.383 . S
C180 C181 1.394 . S
C181 H171 0.929 . S
C181 C177 1.377 . S
C181 C180 1.394 . S
H182 C189 0.929 . S
H183 C192 0.930 . S
H184 C194 0.929 . S
H185 C186 0.969 . S
C186 H185 0.969 . S
C186 O187 1.550 . S
C186 H188 0.973 . S
O187 C186 1.550 . S
O187 C193 1.412 . S
H188 C186 0.973 . S
C189 H182 0.929 . S
C189 C190 1.400 . S
C189 C191 1.364 . S
C190 C189 1.400 . S
C190 C194 1.377 . S
C191 C189 1.364 . S
C191 C192 1.374 . S
C192 H183 0.930 . S
C192 C191 1.374 . S
C192 C193 1.383 . S
C193 O187 1.412 . S
C193 C192 1.383 . S
C193 C194 1.394 . S
C194 H184 0.929 . S
C194 C190 1.377 . S
C194 C193 1.394 . S
H195 C202 0.929 . S
H196 C205 0.930 . S
H197 C207 0.929 . S
H198 C199 0.969 . S
C199 H198 0.969 . S
C199 O200 1.550 . S
C199 H201 0.973 . S
O200 C199 1.550 . S
O200 C206 1.412 . S
H201 C199 0.973 . S
C202 H195 0.929 . S
C202 C203 1.400 . S
C202 C204 1.364 . S
C203 C202 1.400 . S
C203 C207 1.377 . S
C204 C202 1.364 . S
C204 C205 1.374 . S
C205 H196 0.930 . S
C205 C204 1.374 . S
C205 C206 1.383 . S
C206 O200 1.412 . S
C206 C205 1.383 . S
C206 C207 1.394 . S
C207 H197 0.929 . S
C207 C203 1.377 . S
C207 C206 1.394 . S
H208 C220 0.930 . S
H209 C222 0.930 . S
H210 C223 0.930 . S
H211 C227 0.959 . S
H212 C227 0.959 . S
H213 C227 0.961 . S
H214 C228 0.960 . S
H215 C228 0.961 . S
H216 C228 0.959 1_554 S
H217 C231 0.929 . S
H218 C232 0.931 . S
H219 C234 0.930 . S
C220 H208 0.930 . S
C220 C221 1.399 1_556 S
C220 C225 1.399 1_556 S
C221 C220 1.399 1_554 S
C221 C222 1.376 . S
C222 H209 0.930 . S
C222 C221 1.376 . S
C222 C223 1.388 . S
C223 H210 0.930 . S
C223 C222 1.388 . S
C223 C224 1.390 . S
C224 C223 1.390 . S
C224 C225 1.394 . S
C224 C230 1.465 . S
C225 C220 1.399 1_554 S
C225 C224 1.394 . S
C225 C226 1.516 1_554 S
C226 C225 1.516 1_556 S
C226 C227 1.502 . S
C226 C228 1.561 . S
C226 C229 1.515 1_556 S
C227 H211 0.959 . S
C227 H212 0.959 . S
C227 H213 0.961 . S
C227 C226 1.502 . S
C228 H214 0.960 . S
C228 H215 0.961 . S
C228 H216 0.959 1_556 S
C228 C226 1.561 . S
C229 C226 1.515 1_554 S
C229 C230 1.414 . S
C229 C234 1.385 1_554 S
C230 C224 1.465 . S
C230 C229 1.414 . S
C230 C231 1.399 . S
C231 H217 0.929 . S
C231 C230 1.399 . S
C231 C232 1.385 . S
C232 H218 0.931 . S
C232 C231 1.385 . S
C232 C233 1.389 . S
C233 C232 1.389 . S
C233 C234 1.387 1_554 S
C234 H219 0.930 . S
C234 C229 1.385 1_556 S
C234 C233 1.387 1_556 S
H235 C247 0.930 . S
H236 C249 0.930 . S
H237 C250 0.930 . S
H238 C254 0.959 . S
H239 C254 0.959 . S
H240 C254 0.961 . S
H241 C255 0.960 . S
H242 C255 0.961 . S
H243 C255 0.959 . S
H244 C258 0.929 . S
H245 C259 0.931 . S
H246 C261 0.930 . S
C247 H235 0.930 . S
C247 C248 1.399 . S
C247 C252 1.399 . S
C248 C247 1.399 . S
C248 C249 1.376 1_554 S
C249 H236 0.930 . S
C249 C248 1.376 1_556 S
C249 C250 1.388 . S
C250 H237 0.930 . S
C250 C249 1.388 . S
C250 C251 1.389 . S
C251 C250 1.389 . S
C251 C252 1.395 1_556 S
C251 C257 1.465 . S
C252 C247 1.399 . S
C252 C251 1.395 1_554 S
C252 C253 1.516 . S
C253 C252 1.516 . S
C253 C254 1.502 . S
C253 C255 1.561 . S
C253 C256 1.526 . S
C254 H238 0.959 . S
C254 H239 0.959 . S
C254 H240 0.961 . S
C254 C253 1.502 . S
C255 H241 0.960 . S
C255 H242 0.961 . S
C255 H243 0.959 . S
C255 C253 1.561 . S
C256 C253 1.526 . S
C256 C257 1.395 1_554 S
C256 C261 1.390 . S
C257 C251 1.465 . S
C257 C256 1.395 1_556 S
C257 C258 1.400 . S
C258 H244 0.929 . S
C258 C257 1.400 . S
C258 C259 1.385 . S
C259 H245 0.931 . S
C259 C258 1.385 . S
C259 C260 1.389 1_556 S
C260 C259 1.389 1_554 S
C260 C261 1.387 . S
C261 H246 0.930 . S
C261 C256 1.390 . S
C261 C260 1.387 . S
H262 C274 0.930 . S
H263 C276 0.930 . S
H264 C277 0.930 . S
H265 C281 0.959 . S
H266 C281 0.959 . S
H267 C281 0.961 . S
H268 C282 0.960 . S
H269 C282 0.961 . S
H270 C282 0.959 . S
H271 C285 0.929 . S
H272 C286 0.931 . S
H273 C288 0.930 . S
C274 H262 0.930 . S
C274 C275 1.399 . S
C274 C279 1.399 . S
C275 C274 1.399 . S
C275 C276 1.376 1_554 S
C276 H263 0.930 . S
C276 C275 1.376 1_556 S
C276 C277 1.388 . S
C277 H264 0.930 . S
C277 C276 1.388 . S
C277 C278 1.390 . S
C278 C277 1.390 . S
C278 C279 1.394 1_556 S
C278 C284 1.465 . S
C279 C274 1.399 . S
C279 C278 1.394 1_554 S
C279 C280 1.516 . S
C280 C279 1.516 . S
C280 C281 1.502 . S
C280 C282 1.561 . S
C280 C283 1.526 . S
C281 H265 0.959 . S
C281 H266 0.959 . S
C281 H267 0.961 . S
C281 C280 1.502 . S
C282 H268 0.960 . S
C282 H269 0.961 . S
C282 H270 0.959 . S
C282 C280 1.561 . S
C283 C280 1.526 . S
C283 C284 1.396 1_554 S
C283 C288 1.390 . S
C284 C278 1.465 . S
C284 C283 1.396 1_556 S
C284 C285 1.399 . S
C285 H271 0.929 . S
C285 C284 1.399 . S
C285 C286 1.385 . S
C286 H272 0.931 . S
C286 C285 1.385 . S
C286 C287 1.389 1_556 S
C287 C286 1.389 1_554 S
C287 C288 1.387 . S
C288 H273 0.930 . S
C288 C283 1.390 . S
C288 C287 1.387 . S
H289 C301 0.930 . S
H290 C303 0.930 . S
H291 C304 0.930 . S
H292 C308 0.959 . S
H293 C308 0.959 . S
H294 C308 0.961 . S
H295 C309 0.960 . S
H296 C309 0.961 . S
H297 C309 0.959 . S
H298 C312 0.929 . S
H299 C313 0.931 . S
H300 C315 0.930 . S
C301 H289 0.930 . S
C301 C302 1.399 . S
C301 C306 1.399 . S
C302 C301 1.399 . S
C302 C303 1.376 1_554 S
C303 H290 0.930 . S
C303 C302 1.376 1_556 S
C303 C304 1.388 . S
C304 H291 0.930 . S
C304 C303 1.388 . S
C304 C305 1.390 . S
C305 C304 1.390 . S
C305 C306 1.394 1_556 S
C305 C311 1.465 . S
C306 C301 1.399 . S
C306 C305 1.394 1_554 S
C306 C307 1.516 . S
C307 C306 1.516 . S
C307 C308 1.502 . S
C307 C309 1.561 . S
C307 C310 1.526 . S
C308 H292 0.959 . S
C308 H293 0.959 . S
C308 H294 0.961 . S
C308 C307 1.502 . S
C309 H295 0.960 . S
C309 H296 0.961 . S
C309 H297 0.959 . S
C309 C307 1.561 . S
C310 C307 1.526 . S
C310 C311 1.396 1_554 S
C310 C315 1.390 . S
C311 C305 1.465 . S
C311 C310 1.396 1_556 S
C311 C312 1.399 . S
C312 H298 0.929 . S
C312 C311 1.399 . S
C312 C313 1.385 . S
C313 H299 0.931 . S
C313 C312 1.385 . S
C313 C314 1.389 1_556 S
C314 C313 1.389 1_554 S
C314 C315 1.387 . S
C315 H300 0.930 . S
C315 C310 1.390 . S
C315 C314 1.387 . S
H316 C328 0.930 . S
H317 C330 0.930 . S
H318 C331 0.930 . S
H319 C335 0.959 . S
H320 C335 0.959 . S
H321 C335 0.961 . S
H322 C336 0.960 . S
H323 C336 0.961 . S
H324 C336 0.959 . S
H325 C339 0.929 . S
H326 C340 0.931 . S
H327 C342 0.930 . S
C328 H316 0.930 . S
C328 C329 1.399 . S
C328 C333 1.399 . S
C329 C328 1.399 . S
C329 C330 1.376 . S
C330 H317 0.930 . S
C330 C329 1.376 . S
C330 C331 1.388 . S
C331 H318 0.930 . S
C331 C330 1.388 . S
C331 C332 1.390 . S
C332 C331 1.390 . S
C332 C333 1.394 . S
C332 C338 1.465 . S
C333 C328 1.399 . S
C333 C332 1.394 . S
C333 C334 1.516 . S
C334 C333 1.516 . S
C334 C335 1.502 . S
C334 C336 1.561 . S
C334 C337 1.526 . S
C335 H319 0.959 . S
C335 H320 0.959 . S
C335 H321 0.961 . S
C335 C334 1.502 . S
C336 H322 0.960 . S
C336 H323 0.961 . S
C336 H324 0.959 . S
C336 C334 1.561 . S
C337 C334 1.526 . S
C337 C338 1.396 . S
C337 C342 1.390 . S
C338 C332 1.465 . S
C338 C337 1.396 . S
C338 C339 1.399 . S
C339 H325 0.929 . S
C339 C338 1.399 . S
C339 C340 1.385 . S
C340 H326 0.931 . S
C340 C339 1.385 . S
C340 C341 1.389 . S
C341 C340 1.389 . S
C341 C342 1.387 . S
C342 H327 0.930 . S
C342 C337 1.390 . S
C342 C341 1.387 . S
H343 C355 0.930 . S
H344 C357 0.930 . S
H345 C358 0.930 . S
H346 C362 0.959 . S
H347 C362 0.959 . S
H348 C362 0.961 . S
H349 C363 0.960 . S
H350 C363 0.961 . S
H351 C363 0.959 . S
H352 C366 0.929 . S
H353 C367 0.931 . S
H354 C369 0.930 . S
C355 H343 0.930 . S
C355 C356 1.399 . S
C355 C360 1.399 . S
C356 C355 1.399 . S
C356 C357 1.376 . S
C357 H344 0.930 . S
C357 C356 1.376 . S
C357 C358 1.388 . S
C358 H345 0.930 . S
C358 C357 1.388 . S
C358 C359 1.390 . S
C359 C358 1.390 . S
C359 C360 1.394 . S
C359 C365 1.465 . S
C360 C355 1.399 . S
C360 C359 1.394 . S
C360 C361 1.516 . S
C361 C360 1.516 . S
C361 C362 1.502 . S
C361 C363 1.561 . S
C361 C364 1.526 . S
C362 H346 0.959 . S
C362 H347 0.959 . S
C362 H348 0.961 . S
C362 C361 1.502 . S
C363 H349 0.960 . S
C363 H350 0.961 . S
C363 H351 0.959 . S
C363 C361 1.561 . S
C364 C361 1.526 . S
C364 C365 1.396 . S
C364 C369 1.390 . S
C365 C359 1.465 . S
C365 C364 1.396 . S
C365 C366 1.399 . S
C366 H352 0.929 . S
C366 C365 1.399 . S
C366 C367 1.385 . S
C367 H353 0.931 . S
C367 C366 1.385 . S
C367 C368 1.389 . S
C368 C367 1.389 . S
C368 C369 1.387 . S
C369 H354 0.930 . S
C369 C364 1.390 . S
C369 C368 1.387 . S
H370 C382 0.930 . S
H371 C384 0.930 . S
H372 C385 0.930 . S
H373 C389 0.959 . S
H374 C389 0.959 . S
H375 C389 0.961 . S
H376 C390 0.960 . S
H377 C390 0.961 . S
H378 C390 0.959 . S
H379 C393 0.929 . S
H380 C394 0.931 . S
H381 C396 0.930 . S
C382 H370 0.930 . S
C382 C383 1.399 . S
C382 C387 1.399 . S
C383 C382 1.399 . S
C383 C384 1.376 . S
C384 H371 0.930 . S
C384 C383 1.376 . S
C384 C385 1.388 . S
C385 H372 0.930 . S
C385 C384 1.388 . S
C385 C386 1.390 . S
C386 C385 1.390 . S
C386 C387 1.394 . S
C386 C392 1.465 . S
C387 C382 1.399 . S
C387 C386 1.394 . S
C387 C388 1.516 . S
C388 C387 1.516 . S
C388 C389 1.502 . S
C388 C390 1.561 . S
C388 C391 1.526 . S
C389 H373 0.959 . S
C389 H374 0.959 . S
C389 H375 0.961 . S
C389 C388 1.502 . S
C390 H376 0.960 . S
C390 H377 0.961 . S
C390 H378 0.959 . S
C390 C388 1.561 . S
C391 C388 1.526 . S
C391 C392 1.396 . S
C391 C396 1.390 . S
C392 C386 1.465 . S
C392 C391 1.396 . S
C392 C393 1.399 . S
C393 H379 0.929 . S
C393 C392 1.399 . S
C393 C394 1.385 . S
C394 H380 0.931 . S
C394 C393 1.385 . S
C394 C395 1.389 . S
C395 C394 1.389 . S
C395 C396 1.387 . S
C396 H381 0.930 . S
C396 C391 1.390 . S
C396 C395 1.387 . S
H397 C409 0.930 . S
H398 C411 0.930 . S
H399 C412 0.930 . S
H400 C416 0.959 . S
H401 C416 0.959 . S
H402 C416 0.961 . S
H403 C417 0.960 . S
H404 C417 0.961 . S
H405 C417 0.959 . S
H406 C420 0.929 . S
H407 C421 0.931 . S
H408 C423 0.930 . S
C409 H397 0.930 . S
C409 C410 1.399 . S
C409 C414 1.399 . S
C410 C409 1.399 . S
C410 C411 1.376 . S
C411 H398 0.930 . S
C411 C410 1.376 . S
C411 C412 1.388 . S
C412 H399 0.930 . S
C412 C411 1.388 . S
C412 C413 1.390 . S
C413 C412 1.390 . S
C413 C414 1.394 . S
C413 C419 1.465 . S
C414 C409 1.399 . S
C414 C413 1.394 . S
C414 C415 1.516 . S
C415 C414 1.516 . S
C415 C416 1.502 . S
C415 C417 1.561 . S
C415 C418 1.526 . S
C416 H400 0.959 . S
C416 H401 0.959 . S
C416 H402 0.961 . S
C416 C415 1.502 . S
C417 H403 0.960 . S
C417 H404 0.961 . S
C417 H405 0.959 . S
C417 C415 1.561 . S
C418 C415 1.526 . S
C418 C419 1.396 . S
C418 C423 1.390 . S
C419 C413 1.465 . S
C419 C418 1.396 . S
C419 C420 1.399 . S
C420 H406 0.929 . S
C420 C419 1.399 . S
C420 C421 1.385 . S
C421 H407 0.931 . S
C421 C420 1.385 . S
C421 C422 1.389 . S
C422 C421 1.389 . S
C422 C423 1.387 . S
C423 H408 0.930 . S
C423 C418 1.390 . S
C423 C422 1.387 . S
H424 C436 0.930 . S
H425 C438 0.930 . S
H426 C439 0.930 . S
H427 C443 0.959 1_455 S
H428 C443 0.959 . S
H429 C443 0.961 . S
H430 C444 0.960 . S
H431 C444 0.961 . S
H432 C444 0.959 . S
H433 C447 0.929 . S
H434 C448 0.931 . S
H435 C450 0.930 . S
C436 H424 0.930 . S
C436 C437 1.399 . S
C436 C441 1.399 . S
C437 C436 1.399 . S
C437 C438 1.376 . S
C438 H425 0.930 . S
C438 C437 1.376 . S
C438 C439 1.388 . S
C439 H426 0.930 . S
C439 C438 1.388 . S
C439 C440 1.390 . S
C440 C439 1.390 . S
C440 C441 1.394 . S
C440 C446 1.465 . S
C441 C436 1.399 . S
C441 C440 1.394 . S
C441 C442 1.516 . S
C442 C441 1.516 . S
C442 C443 1.502 1_455 S
C442 C444 1.561 . S
C442 C445 1.526 . S
C443 H427 0.959 1_655 S
C443 H428 0.959 . S
C443 H429 0.961 . S
C443 C442 1.502 1_655 S
C444 H430 0.960 . S
C444 H431 0.961 . S
C444 H432 0.959 . S
C444 C442 1.561 . S
C445 C442 1.526 . S
C445 C446 1.396 . S
C445 C450 1.390 . S
C446 C440 1.465 . S
C446 C445 1.396 . S
C446 C447 1.399 . S
C447 H433 0.929 . S
C447 C446 1.399 . S
C447 C448 1.385 . S
C448 H434 0.931 . S
C448 C447 1.385 . S
C448 C449 1.389 . S
C449 C448 1.389 . S
C449 C450 1.387 . S
C450 H435 0.930 . S
C450 C445 1.390 . S
C450 C449 1.387 . S
H451 C463 0.930 . S
H452 C465 0.930 1_565 S
H453 C466 0.930 . S
H454 C470 0.959 . S
H455 C470 0.959 . S
H456 C470 0.961 . S
H457 C471 0.960 . S
H458 C471 0.961 . S
H459 C471 0.959 . S
H460 C474 0.929 . S
H461 C475 0.931 . S
H462 C477 0.930 . S
C463 H451 0.930 . S
C463 C464 1.399 . S
C463 C468 1.399 . S
C464 C463 1.399 . S
C464 C465 1.376 . S
C465 H452 0.930 1_545 S
C465 C464 1.376 . S
C465 C466 1.388 . S
C466 H453 0.930 . S
C466 C465 1.388 . S
C466 C467 1.390 . S
C467 C466 1.390 . S
C467 C468 1.394 . S
C467 C473 1.465 . S
C468 C463 1.399 . S
C468 C467 1.394 . S
C468 C469 1.516 . S
C469 C468 1.516 . S
C469 C470 1.502 . S
C469 C471 1.561 . S
C469 C472 1.526 . S
C470 H454 0.959 . S
C470 H455 0.959 . S
C470 H456 0.961 . S
C470 C469 1.502 . S
C471 H457 0.960 . S
C471 H458 0.961 . S
C471 H459 0.959 . S
C471 C469 1.561 . S
C472 C469 1.526 . S
C472 C473 1.396 . S
C472 C477 1.390 . S
C473 C467 1.465 . S
C473 C472 1.396 . S
C473 C474 1.399 . S
C474 H460 0.929 . S
C474 C473 1.399 . S
C474 C475 1.385 . S
C475 H461 0.931 . S
C475 C474 1.385 . S
C475 C476 1.389 . S
C476 C475 1.389 . S
C476 C477 1.387 . S
C477 H462 0.930 . S
C477 C472 1.390 . S
C477 C476 1.387 . S
H478 C490 0.930 . S
H479 C492 0.930 . S
H480 C493 0.930 . S
H481 C497 0.959 . S
H482 C497 0.959 . S
H483 C497 0.961 . S
H484 C498 0.960 . S
H485 C498 0.961 . S
H486 C498 0.959 . S
H487 C501 0.929 . S
H488 C502 0.931 . S
H489 C504 0.930 . S
C490 H478 0.930 . S
C490 C491 1.399 . S
C490 C495 1.399 . S
C491 C490 1.399 . S
C491 C492 1.376 . S
C492 H479 0.930 . S
C492 C491 1.376 . S
C492 C493 1.388 . S
C493 H480 0.930 . S
C493 C492 1.388 . S
C493 C494 1.390 . S
C494 C493 1.390 . S
C494 C495 1.394 . S
C494 C500 1.465 . S
C495 C490 1.399 . S
C495 C494 1.394 . S
C495 C496 1.516 . S
C496 C495 1.516 . S
C496 C497 1.502 . S
C496 C498 1.561 . S
C496 C499 1.526 . S
C497 H481 0.959 . S
C497 H482 0.959 . S
C497 H483 0.961 . S
C497 C496 1.502 . S
C498 H484 0.960 . S
C498 H485 0.961 . S
C498 H486 0.959 . S
C498 C496 1.561 . S
C499 C496 1.526 . S
C499 C500 1.396 . S
C499 C504 1.390 . S
C500 C494 1.465 . S
C500 C499 1.396 . S
C500 C501 1.399 . S
C501 H487 0.929 . S
C501 C500 1.399 . S
C501 C502 1.385 . S
C502 H488 0.931 . S
C502 C501 1.385 . S
C502 C503 1.389 . S
C503 C502 1.389 . S
C503 C504 1.387 . S
C504 H489 0.930 . S
C504 C499 1.390 . S
C504 C503 1.387 . S
H505 C517 0.930 . S
H506 C519 0.930 . S
H507 C520 0.930 . S
H508 C524 0.959 . S
H509 C524 0.959 . S
H510 C524 0.975 . S
H511 C525 0.960 . S
H512 C525 0.961 . S
H513 C525 0.959 . S
H514 C528 0.929 . S
H515 C529 0.931 . S
H516 C531 0.930 . S
C517 H505 0.930 . S
C517 C518 1.399 . S
C517 C522 1.399 . S
C518 C517 1.399 . S
C518 C519 1.376 . S
C519 H506 0.930 . S
C519 C518 1.376 . S
C519 C520 1.388 . S
C520 H507 0.930 . S
C520 C519 1.388 . S
C520 C521 1.390 . S
C521 C520 1.390 . S
C521 C522 1.394 . S
C521 C527 1.465 . S
C522 C517 1.399 . S
C522 C521 1.394 . S
C522 C523 1.516 . S
C523 C522 1.516 . S
C523 C524 1.502 . S
C523 C525 1.561 1_565 S
C523 C526 1.526 . S
C524 H508 0.959 . S
C524 H509 0.959 . S
C524 H510 0.975 . S
C524 C523 1.502 . S
C525 H511 0.960 . S
C525 H512 0.961 . S
C525 H513 0.959 . S
C525 C523 1.561 1_545 S
C526 C523 1.526 . S
C526 C527 1.396 . S
C526 C531 1.390 . S
C527 C521 1.465 . S
C527 C526 1.396 . S
C527 C528 1.399 . S
C528 H514 0.929 . S
C528 C527 1.399 . S
C528 C529 1.385 . S
C529 H515 0.931 . S
C529 C528 1.385 . S
C529 C530 1.389 . S
C530 C529 1.389 . S
C530 C531 1.387 . S
C531 H516 0.930 . S
C531 C526 1.390 . S
C531 C530 1.387 . S
H532 C544 0.930 . S
H533 C546 0.930 1_545 S
H534 C547 0.930 1_545 S
H535 C551 0.959 . S
H536 C551 0.959 . S
H537 C551 0.961 . S
H538 C552 0.960 . S
H539 C552 0.961 . S
H540 C552 0.959 . S
H541 C555 0.929 . S
H542 C556 0.931 . S
H543 C558 0.930 . S
C544 H532 0.930 . S
C544 C545 1.399 . S
C544 C549 1.399 . S
C545 C544 1.399 . S
C545 C546 1.376 . S
C546 H533 0.930 1_565 S
C546 C545 1.376 . S
C546 C547 1.388 . S
C547 H534 0.930 1_565 S
C547 C546 1.388 . S
C547 C548 1.390 . S
C548 C547 1.390 . S
C548 C549 1.394 . S
C548 C554 1.465 . S
C549 C544 1.399 . S
C549 C548 1.394 . S
C549 C550 1.516 . S
C550 C549 1.516 . S
C550 C551 1.502 . S
C550 C552 1.561 . S
C550 C553 1.526 . S
C551 H535 0.959 . S
C551 H536 0.959 . S
C551 H537 0.961 . S
C551 C550 1.502 . S
C552 H538 0.960 . S
C552 H539 0.961 . S
C552 H540 0.959 . S
C552 C550 1.561 . S
C553 C550 1.526 . S
C553 C554 1.396 . S
C553 C558 1.390 . S
C554 C548 1.465 . S
C554 C553 1.396 . S
C554 C555 1.399 . S
C555 H541 0.929 . S
C555 C554 1.399 . S
C555 C556 1.385 . S
C556 H542 0.931 . S
C556 C555 1.385 . S
C556 C557 1.389 . S
C557 C556 1.389 . S
C557 C558 1.387 . S
C558 H543 0.930 . S
C558 C553 1.390 . S
C558 C557 1.387 . S
H559 C571 0.930 . S
H560 C573 0.930 . S
H561 C574 0.930 . S
H562 C578 0.959 . S
H563 C578 0.959 1_655 S
H564 C578 0.961 1_655 S
H565 C579 0.960 . S
H566 C579 0.961 . S
H567 C579 0.959 1_455 S
H568 C582 0.929 . S
H569 C583 0.931 . S
H570 C585 0.930 . S
C571 H559 0.930 . S
C571 C572 1.399 . S
C571 C576 1.399 . S
C572 C571 1.399 . S
C572 C573 1.376 . S
C573 H560 0.930 . S
C573 C572 1.376 . S
C573 C574 1.388 . S
C574 H561 0.930 . S
C574 C573 1.388 . S
C574 C575 1.390 . S
C575 C574 1.390 . S
C575 C576 1.394 . S
C575 C581 1.465 . S
C576 C571 1.399 . S
C576 C575 1.394 . S
C576 C577 1.516 . S
C577 C576 1.516 . S
C577 C578 1.502 . S
C577 C579 1.561 1_455 S
C577 C580 1.526 . S
C578 H562 0.959 . S
C578 H563 0.959 1_455 S
C578 H564 0.961 1_455 S
C578 C577 1.502 . S
C579 H565 0.960 . S
C579 H566 0.961 . S
C579 H567 0.959 1_655 S
C579 C577 1.561 1_655 S
C580 C577 1.526 . S
C580 C581 1.396 . S
C580 C585 1.390 . S
C581 C575 1.465 . S
C581 C580 1.396 . S
C581 C582 1.399 . S
C582 H568 0.929 . S
C582 C581 1.399 . S
C582 C583 1.385 . S
C583 H569 0.931 . S
C583 C582 1.385 . S
C583 C584 1.389 . S
C584 C583 1.389 . S
C584 C585 1.387 . S
C585 H570 0.930 . S
C585 C580 1.390 . S
C585 C584 1.387 . S
H586 C598 0.930 . S
H587 C600 0.930 . S
H588 C601 0.930 . S
H589 C605 0.959 . S
H590 C605 0.959 . S
H591 C605 0.961 1_565 S
H592 C606 0.960 . S
H593 C606 0.961 . S
H594 C606 0.958 1_545 S
H595 C609 0.929 . S
H596 C610 0.931 . S
H597 C612 0.930 . S
C598 H586 0.930 . S
C598 C599 1.399 . S
C598 C603 1.399 . S
C599 C598 1.399 . S
C599 C600 1.376 . S
C600 H587 0.930 . S
C600 C599 1.376 . S
C600 C601 1.388 . S
C601 H588 0.930 . S
C601 C600 1.388 . S
C601 C602 1.390 . S
C602 C601 1.390 . S
C602 C603 1.394 . S
C602 C608 1.465 . S
C603 C598 1.399 . S
C603 C602 1.394 . S
C603 C604 1.516 . S
C604 C603 1.516 . S
C604 C605 1.502 . S
C604 C606 1.561 1_545 S
C604 C607 1.526 . S
C605 H589 0.959 . S
C605 H590 0.959 . S
C605 H591 0.961 1_545 S
C605 C604 1.502 . S
C606 H592 0.960 . S
C606 H593 0.961 . S
C606 H594 0.958 1_565 S
C606 C604 1.561 1_565 S
C607 C604 1.526 . S
C607 C608 1.396 . S
C607 C612 1.390 . S
C608 C602 1.465 . S
C608 C607 1.396 . S
C608 C609 1.399 . S
C609 H595 0.929 . S
C609 C608 1.399 . S
C609 C610 1.385 . S
C610 H596 0.931 . S
C610 C609 1.385 . S
C610 C611 1.389 . S
C611 C610 1.389 . S
C611 C612 1.387 . S
C612 H597 0.930 . S
C612 C607 1.390 . S
C612 C611 1.387 . S
H613 C625 0.930 . S
H614 C627 0.930 . S
H615 C628 0.930 . S
H616 C632 0.959 . S
H617 C632 0.959 . S
H618 C632 0.961 . S
H619 C633 0.960 . S
H620 C633 0.961 . S
H621 C633 0.959 . S
H622 C636 0.929 . S
H623 C637 0.931 . S
H624 C639 0.930 . S
C625 H613 0.930 . S
C625 C626 1.399 . S
C625 C630 1.399 . S
C626 C625 1.399 . S
C626 C627 1.376 . S
C627 H614 0.930 . S
C627 C626 1.376 . S
C627 C628 1.388 . S
C628 H615 0.930 . S
C628 C627 1.388 . S
C628 C629 1.390 . S
C629 C628 1.390 . S
C629 C630 1.394 . S
C629 C635 1.465 . S
C630 C625 1.399 . S
C630 C629 1.394 . S
C630 C631 1.516 . S
C631 C630 1.516 . S
C631 C632 1.502 . S
C631 C633 1.561 . S
C631 C634 1.526 . S
C632 H616 0.959 . S
C632 H617 0.959 . S
C632 H618 0.961 . S
C632 C631 1.502 . S
C633 H619 0.960 . S
C633 H620 0.961 . S
C633 H621 0.959 . S
C633 C631 1.561 . S
C634 C631 1.526 . S
C634 C635 1.396 . S
C634 C639 1.390 . S
C635 C629 1.465 . S
C635 C634 1.396 . S
C635 C636 1.399 . S
C636 H622 0.929 . S
C636 C635 1.399 . S
C636 C637 1.385 . S
C637 H623 0.931 . S
C637 C636 1.385 . S
C637 C638 1.389 . S
C638 C637 1.389 . S
C638 C639 1.387 . S
C639 H624 0.930 . S
C639 C634 1.390 . S
C639 C638 1.387 . S
H640 C652 0.930 . S
H641 C654 0.930 . S
H642 C655 0.930 . S
H643 C659 0.959 . S
H644 C659 0.959 . S
H645 C659 0.961 . S
H646 C660 0.960 . S
H647 C660 0.961 . S
H648 C660 0.959 . S
H649 C663 0.929 . S
H650 C664 0.931 . S
H651 C666 0.930 . S
C652 H640 0.930 . S
C652 C653 1.399 . S
C652 C657 1.399 . S
C653 C652 1.399 . S
C653 C654 1.376 . S
C654 H641 0.930 . S
C654 C653 1.376 . S
C654 C655 1.388 . S
C655 H642 0.930 . S
C655 C654 1.388 . S
C655 C656 1.390 . S
C656 C655 1.390 . S
C656 C657 1.394 . S
C656 C662 1.465 . S
C657 C652 1.399 . S
C657 C656 1.394 . S
C657 C658 1.516 . S
C658 C657 1.516 . S
C658 C659 1.502 . S
C658 C660 1.561 . S
C658 C661 1.526 . S
C659 H643 0.959 . S
C659 H644 0.959 . S
C659 H645 0.961 . S
C659 C658 1.502 . S
C660 H646 0.960 . S
C660 H647 0.961 . S
C660 H648 0.959 . S
C660 C658 1.561 . S
C661 C658 1.526 . S
C661 C662 1.396 . S
C661 C666 1.390 . S
C662 C656 1.465 . S
C662 C661 1.396 . S
C662 C663 1.399 . S
C663 H649 0.929 . S
C663 C662 1.399 . S
C663 C664 1.385 . S
C664 H650 0.931 . S
C664 C663 1.385 . S
C664 C665 1.389 . S
C665 C664 1.389 . S
C665 C666 1.387 . S
C666 H651 0.930 . S
C666 C661 1.390 . S
C666 C665 1.387 . S
H667 C679 0.930 . S
H668 C681 0.930 . S
H669 C682 0.930 . S
H670 C686 0.959 . S
H671 C686 0.959 . S
H672 C686 0.961 . S
H673 C687 0.960 . S
H674 C687 0.961 . S
H675 C687 0.959 . S
H676 C690 0.929 . S
H677 C691 0.931 . S
H678 C693 0.930 . S
C679 H667 0.930 . S
C679 C680 1.399 . S
C679 C684 1.399 . S
C680 C679 1.399 . S
C680 C681 1.376 . S
C681 H668 0.930 . S
C681 C680 1.376 . S
C681 C682 1.388 . S
C682 H669 0.930 . S
C682 C681 1.388 . S
C682 C683 1.390 . S
C683 C682 1.390 . S
C683 C684 1.394 . S
C683 C689 1.465 . S
C684 C679 1.399 . S
C684 C683 1.394 . S
C684 C685 1.516 . S
C685 C684 1.516 . S
C685 C686 1.502 . S
C685 C687 1.561 . S
C685 C688 1.526 . S
C686 H670 0.959 . S
C686 H671 0.959 . S
C686 H672 0.961 . S
C686 C685 1.502 . S
C687 H673 0.960 . S
C687 H674 0.961 . S
C687 H675 0.959 . S
C687 C685 1.561 . S
C688 C685 1.526 . S
C688 C689 1.396 . S
C688 C693 1.390 . S
C689 C683 1.465 . S
C689 C688 1.396 . S
C689 C690 1.399 . S
C690 H676 0.929 . S
C690 C689 1.399 . S
C690 C691 1.385 . S
C691 H677 0.931 . S
C691 C690 1.385 . S
C691 C692 1.389 . S
C692 C691 1.389 . S
C692 C693 1.387 . S
C693 H678 0.930 . S
C693 C688 1.390 . S
C693 C692 1.387 . S
H694 C706 0.930 . S
H695 C708 0.930 . S
H696 C709 0.930 . S
H697 C713 0.959 . S
H698 C713 0.959 . S
H699 C713 0.961 . S
H700 C714 0.960 . S
H701 C714 0.961 . S
H702 C714 0.959 . S
H703 C717 0.929 . S
H704 C718 0.931 . S
H705 C720 0.930 . S
C706 H694 0.930 . S
C706 C707 1.399 . S
C706 C711 1.399 . S
C707 C706 1.399 . S
C707 C708 1.376 . S
C708 H695 0.930 . S
C708 C707 1.376 . S
C708 C709 1.388 . S
C709 H696 0.930 . S
C709 C708 1.388 . S
C709 C710 1.390 . S
C710 C709 1.390 . S
C710 C711 1.394 . S
C710 C716 1.465 . S
C711 C706 1.399 . S
C711 C710 1.394 . S
C711 C712 1.516 . S
C712 C711 1.516 . S
C712 C713 1.502 . S
C712 C714 1.561 . S
C712 C715 1.526 . S
C713 H697 0.959 . S
C713 H698 0.959 . S
C713 H699 0.961 . S
C713 C712 1.502 . S
C714 H700 0.960 . S
C714 H701 0.961 . S
C714 H702 0.959 . S
C714 C712 1.561 . S
C715 C712 1.526 . S
C715 C716 1.396 . S
C715 C720 1.390 . S
C716 C710 1.465 . S
C716 C715 1.396 . S
C716 C717 1.399 . S
C717 H703 0.929 . S
C717 C716 1.399 . S
C717 C718 1.385 . S
C718 H704 0.931 . S
C718 C717 1.385 . S
C718 C719 1.389 . S
C719 C718 1.389 . S
C719 C720 1.387 . S
C720 H705 0.930 . S
C720 C715 1.390 . S
C720 C719 1.387 . S
H721 C733 0.930 . S
H722 C735 0.930 . S
H723 C736 0.930 . S
H724 C740 0.959 . S
H725 C740 0.959 . S
H726 C740 0.961 . S
H727 C741 0.960 . S
H728 C741 0.961 . S
H729 C741 0.959 . S
H730 C744 0.929 . S
H731 C745 0.931 . S
H732 C747 0.930 . S
C733 H721 0.930 . S
C733 C734 1.399 . S
C733 C738 1.399 . S
C734 C733 1.399 . S
C734 C735 1.376 . S
C735 H722 0.930 . S
C735 C734 1.376 . S
C735 C736 1.388 . S
C736 H723 0.930 . S
C736 C735 1.388 . S
C736 C737 1.390 . S
C737 C736 1.390 . S
C737 C738 1.394 . S
C737 C743 1.465 . S
C738 C733 1.399 . S
C738 C737 1.394 . S
C738 C739 1.516 . S
C739 C738 1.516 . S
C739 C740 1.502 . S
C739 C741 1.561 . S
C739 C742 1.526 . S
C740 H724 0.959 . S
C740 H725 0.959 . S
C740 H726 0.961 . S
C740 C739 1.502 . S
C741 H727 0.960 . S
C741 H728 0.961 . S
C741 H729 0.959 . S
C741 C739 1.561 . S
C742 C739 1.526 . S
C742 C743 1.396 . S
C742 C747 1.390 . S
C743 C737 1.465 . S
C743 C742 1.396 . S
C743 C744 1.399 . S
C744 H730 0.929 . S
C744 C743 1.399 . S
C744 C745 1.385 . S
C745 H731 0.931 . S
C745 C744 1.385 . S
C745 C746 1.389 . S
C746 C745 1.389 . S
C746 C747 1.387 . S
C747 H732 0.930 . S
C747 C742 1.390 . S
C747 C746 1.387 . S
H748 C760 0.930 . S
H749 C762 0.930 . S
H750 C763 0.930 . S
H751 C767 0.959 . S
H752 C767 0.959 . S
H753 C767 0.961 . S
H754 C768 0.960 . S
H755 C768 0.961 . S
H756 C768 0.959 . S
H757 C771 0.929 . S
H758 C772 0.931 . S
H759 C774 0.930 . S
C760 H748 0.930 . S
C760 C761 1.399 . S
C760 C765 1.399 . S
C761 C760 1.399 . S
C761 C762 1.376 . S
C762 H749 0.930 . S
C762 C761 1.376 . S
C762 C763 1.388 . S
C763 H750 0.930 . S
C763 C762 1.388 . S
C763 C764 1.390 . S
C764 C763 1.390 . S
C764 C765 1.394 . S
C764 C770 1.465 . S
C765 C760 1.399 . S
C765 C764 1.394 . S
C765 C766 1.516 . S
C766 C765 1.516 . S
C766 C767 1.502 . S
C766 C768 1.561 . S
C766 C769 1.526 . S
C767 H751 0.959 . S
C767 H752 0.959 . S
C767 H753 0.961 . S
C767 C766 1.502 . S
C768 H754 0.960 . S
C768 H755 0.961 . S
C768 H756 0.959 . S
C768 C766 1.561 . S
C769 C766 1.526 . S
C769 C770 1.396 . S
C769 C774 1.390 . S
C770 C764 1.465 . S
C770 C769 1.396 . S
C770 C771 1.399 . S
C771 H757 0.929 . S
C771 C770 1.399 . S
C771 C772 1.385 . S
C772 H758 0.931 . S
C772 C771 1.385 . S
C772 C773 1.389 . S
C773 C772 1.389 . S
C773 C774 1.387 . S
C774 H759 0.930 . S
C774 C769 1.390 . S
C774 C773 1.387 . S
H775 C787 0.930 . S
H776 C789 0.930 . S
H777 C790 0.930 . S
H778 C794 0.959 . S
H779 C794 0.959 . S
H780 C794 0.961 . S
H781 C795 0.960 . S
H782 C795 0.961 . S
H783 C795 0.959 . S
H784 C798 0.929 . S
H785 C799 0.931 . S
H786 C801 0.930 . S
C787 H775 0.930 . S
C787 C788 1.399 . S
C787 C792 1.399 . S
C788 C787 1.399 . S
C788 C789 1.376 . S
C789 H776 0.930 . S
C789 C788 1.376 . S
C789 C790 1.388 . S
C790 H777 0.930 . S
C790 C789 1.388 . S
C790 C791 1.390 . S
C791 C790 1.390 . S
C791 C792 1.394 . S
C791 C797 1.465 . S
C792 C787 1.399 . S
C792 C791 1.394 . S
C792 C793 1.516 . S
C793 C792 1.516 . S
C793 C794 1.502 . S
C793 C795 1.561 . S
C793 C796 1.526 . S
C794 H778 0.959 . S
C794 H779 0.959 . S
C794 H780 0.961 . S
C794 C793 1.502 . S
C795 H781 0.960 . S
C795 H782 0.961 . S
C795 H783 0.959 . S
C795 C793 1.561 . S
C796 C793 1.526 . S
C796 C797 1.396 . S
C796 C801 1.390 . S
C797 C791 1.465 . S
C797 C796 1.396 . S
C797 C798 1.399 . S
C798 H784 0.929 . S
C798 C797 1.399 . S
C798 C799 1.385 . S
C799 H785 0.931 . S
C799 C798 1.385 . S
C799 C800 1.389 . S
C800 C799 1.389 . S
C800 C801 1.387 . S
C801 H786 0.930 . S
C801 C796 1.390 . S
C801 C800 1.387 . S
H802 C814 0.930 . S
H803 C816 0.930 . S
H804 C817 0.930 . S
H805 C821 0.959 . S
H806 C821 0.959 . S
H807 C821 0.961 . S
H808 C822 0.960 . S
H809 C822 0.961 . S
H810 C822 0.959 . S
H811 C825 0.929 . S
H812 C826 0.931 . S
H813 C828 0.930 . S
C814 H802 0.930 . S
C814 C815 1.399 . S
C814 C819 1.399 . S
C815 C814 1.399 . S
C815 C816 1.376 . S
C816 H803 0.930 . S
C816 C815 1.376 . S
C816 C817 1.388 . S
C817 H804 0.930 . S
C817 C816 1.388 . S
C817 C818 1.390 . S
C818 C817 1.390 . S
C818 C819 1.394 . S
C818 C824 1.465 . S
C819 C814 1.399 . S
C819 C818 1.394 . S
C819 C820 1.516 . S
C820 C819 1.516 . S
C820 C821 1.502 . S
C820 C822 1.561 . S
C820 C823 1.526 . S
C821 H805 0.959 . S
C821 H806 0.959 . S
C821 H807 0.961 . S
C821 C820 1.502 . S
C822 H808 0.960 . S
C822 H809 0.961 . S
C822 H810 0.959 . S
C822 C820 1.561 . S
C823 C820 1.526 . S
C823 C824 1.396 . S
C823 C828 1.390 . S
C824 C818 1.465 . S
C824 C823 1.396 . S
C824 C825 1.399 . S
C825 H811 0.929 . S
C825 C824 1.399 . S
C825 C826 1.385 . S
C826 H812 0.931 . S
C826 C825 1.385 . S
C826 C827 1.389 . S
C827 C826 1.389 . S
C827 C828 1.387 . S
C828 H813 0.930 . S
C828 C823 1.390 . S
C828 C827 1.387 . S
H829 C841 0.930 . S
H830 C843 0.930 . S
H831 C844 0.930 . S
H832 C848 0.959 . S
H833 C848 0.959 . S
H834 C848 0.961 . S
H835 C849 0.960 . S
H836 C849 0.961 . S
H837 C849 0.959 . S
H838 C852 0.929 . S
H839 C853 0.931 . S
H840 C855 0.930 . S
C841 H829 0.930 . S
C841 C842 1.399 . S
C841 C846 1.399 . S
C842 C841 1.399 . S
C842 C843 1.376 . S
C843 H830 0.930 . S
C843 C842 1.376 . S
C843 C844 1.388 . S
C844 H831 0.930 . S
C844 C843 1.388 . S
C844 C845 1.390 . S
C845 C844 1.390 . S
C845 C846 1.394 . S
C845 C851 1.465 . S
C846 C841 1.399 . S
C846 C845 1.394 . S
C846 C847 1.516 . S
C847 C846 1.516 . S
C847 C848 1.502 . S
C847 C849 1.561 . S
C847 C850 1.526 . S
C848 H832 0.959 . S
C848 H833 0.959 . S
C848 H834 0.961 . S
C848 C847 1.502 . S
C849 H835 0.960 . S
C849 H836 0.961 . S
C849 H837 0.959 . S
C849 C847 1.561 . S
C850 C847 1.526 . S
C850 C851 1.396 . S
C850 C855 1.390 . S
C851 C845 1.465 . S
C851 C850 1.396 . S
C851 C852 1.399 . S
C852 H838 0.929 . S
C852 C851 1.399 . S
C852 C853 1.385 . S
C853 H839 0.931 . S
C853 C852 1.385 . S
C853 C854 1.389 . S
C854 C853 1.389 . S
C854 C855 1.387 . S
C855 H840 0.930 . S
C855 C850 1.390 . S
C855 C854 1.387 . S
C221 C45 1.557 . S
C233 C108 1.468 . S
C248 C30 1.539 . S
C260 C121 1.527 . S
C275 C39 1.541 . S
C287 C134 1.520 1_554 S
C314 C147 1.534 . S
C302 C34 1.544 . S
C329 C97 1.574 . S
C341 C160 1.463 . S
C368 C173 1.533 . S
C356 C82 1.540 . S
C395 C186 1.518 . S
C383 C91 1.538 . S
C422 C199 1.569 . S
C410 C86 1.575 . S
C449 C191 1.523 . S
C437 C26 1.515 . S
C476 C204 1.540 . S
C464 C36 1.496 . S
C503 C164 1.530 . S
C491 C32 1.446 . S
C530 C177 1.471 . S
C518 C42 1.491 . S
C545 C18 1.607 . S
C557 C178 1.645 . S
C584 C190 1.620 . S
C572 C50 1.551 . S
C599 C4 1.526 . S
C611 C203 1.597 . S
C626 C48 1.618 . S
C638 C165 1.600 . S
C665 C139 1.569 . S
C653 C78 1.475 . S
C680 C88 1.443 . S
C692 C151 1.441 . S
C719 C112 1.538 . S
C707 C84 1.522 . S
C746 C125 1.488 . S
C734 C94 1.495 . S
C773 C126 1.638 . S
C761 C70 1.585 . S
C800 C138 1.594 . S
C788 C102 1.568 . S
C815 C56 1.613 . S
C827 C152 1.700 . S
C842 C100 1.509 . S
C854 C113 1.618 . S
