# Generated by pormake.
# Topology dag, (6,3)-cn, num edge types: 1
# Building blocks:
#     Node 0, Type 0, BuildingBlock: IZENUY_clean_sbu_0, # of connection points: 6
#     Node 1, Type 0, BuildingBlock: IZENUY_clean_sbu_0, # of connection points: 6
#     Node 2, Type 0, BuildingBlock: IZENUY_clean_sbu_0, # of connection points: 6
#     Node 3, Type 0, BuildingBlock: IZENUY_clean_sbu_0, # of connection points: 6
#     Node 4, Type 1, BuildingBlock: INOVEN_clean_linker_0, # of connection points: 3
#     Node 5, Type 1, BuildingBlock: INOVEN_clean_linker_0, # of connection points: 3
#     Node 6, Type 1, BuildingBlock: INOVEN_clean_linker_0, # of connection points: 3
#     Node 7, Type 1, BuildingBlock: INOVEN_clean_linker_0, # of connection points: 3
#     Node 8, Type 1, BuildingBlock: INOVEN_clean_linker_0, # of connection points: 3
#     Node 9, Type 1, BuildingBlock: INOVEN_clean_linker_0, # of connection points: 3
#     Node 10, Type 1, BuildingBlock: INOVEN_clean_linker_0, # of connection points: 3
#     Node 11, Type 1, BuildingBlock: INOVEN_clean_linker_0, # of connection points: 3
#     Edge 12, Type (0, 1), BuildingBlock: OJICUG_clean_linker_0, # of connection points: 2
#     Edge 13, Type (0, 1), BuildingBlock: OJICUG_clean_linker_0, # of connection points: 2
#     Edge 14, Type (0, 1), BuildingBlock: OJICUG_clean_linker_0, # of connection points: 2
#     Edge 15, Type (0, 1), BuildingBlock: OJICUG_clean_linker_0, # of connection points: 2
#     Edge 16, Type (0, 1), BuildingBlock: OJICUG_clean_linker_0, # of connection points: 2
#     Edge 17, Type (0, 1), BuildingBlock: OJICUG_clean_linker_0, # of connection points: 2
#     Edge 18, Type (0, 1), BuildingBlock: OJICUG_clean_linker_0, # of connection points: 2
#     Edge 19, Type (0, 1), BuildingBlock: OJICUG_clean_linker_0, # of connection points: 2
#     Edge 20, Type (0, 1), BuildingBlock: OJICUG_clean_linker_0, # of connection points: 2
#     Edge 21, Type (0, 1), BuildingBlock: OJICUG_clean_linker_0, # of connection points: 2
#     Edge 22, Type (0, 1), BuildingBlock: OJICUG_clean_linker_0, # of connection points: 2
#     Edge 23, Type (0, 1), BuildingBlock: OJICUG_clean_linker_0, # of connection points: 2
#     Edge 24, Type (0, 1), BuildingBlock: OJICUG_clean_linker_0, # of connection points: 2
#     Edge 25, Type (0, 1), BuildingBlock: OJICUG_clean_linker_0, # of connection points: 2
#     Edge 26, Type (0, 1), BuildingBlock: OJICUG_clean_linker_0, # of connection points: 2
#     Edge 27, Type (0, 1), BuildingBlock: OJICUG_clean_linker_0, # of connection points: 2
#     Edge 28, Type (0, 1), BuildingBlock: OJICUG_clean_linker_0, # of connection points: 2
#     Edge 29, Type (0, 1), BuildingBlock: OJICUG_clean_linker_0, # of connection points: 2
#     Edge 30, Type (0, 1), BuildingBlock: OJICUG_clean_linker_0, # of connection points: 2
#     Edge 31, Type (0, 1), BuildingBlock: OJICUG_clean_linker_0, # of connection points: 2
#     Edge 32, Type (0, 1), BuildingBlock: OJICUG_clean_linker_0, # of connection points: 2
#     Edge 33, Type (0, 1), BuildingBlock: OJICUG_clean_linker_0, # of connection points: 2
#     Edge 34, Type (0, 1), BuildingBlock: OJICUG_clean_linker_0, # of connection points: 2
#     Edge 35, Type (0, 1), BuildingBlock: OJICUG_clean_linker_0, # of connection points: 2
# Relax obj value: 0.096
# Max RMSD: 0.113
# Mean RMSD: 0.097
data_MOF--net-dag--node1-IZENUY_clean_sbu_0--node2-INOVEN_clean_linker_0--edge1-OJICUG_clean_linker_0
_symmetry_space_group_name_H-M    P1
_symmetry_Int_Tables_number       1
_symmetry_cell_setting            triclinic
loop_
_symmetry_equiv_pos_as_xyz
'x, y, z'
_cell_length_a     28.093815
_cell_length_b     30.211065
_cell_length_c     26.015828
_cell_angle_alpha  93.771548
_cell_angle_beta   90.11226
_cell_angle_gamma 90.013983
loop_
_atom_site_label
_atom_site_type_symbol
_atom_site_fract_x
_atom_site_fract_y
_atom_site_fract_z
_atom_type_partial_charge
Fe0 Fe 0.20854 0.87351 0.06485 0.0
Fe1 Fe 0.10739 0.89801 0.03519 0.0
O2 O 0.14993 0.85687 0.04631 0.0
Fe3 Fe 0.13392 0.79982 0.03858 0.0
O4 O 0.15105 0.79053 0.10448 0.0
O5 O 0.21904 0.82661 0.10426 0.0
O6 O 0.18745 0.90436 0.12297 0.0
C7 C 0.15667 0.93465 0.12207 0.0
C8 C 0.22635 0.80391 0.99453 0.0
O9 O 0.13209 0.93947 0.08217 0.0
C10 C 0.08531 0.83167 0.95741 0.0
O11 O 0.20889 0.92351 0.02811 0.0
O12 O 0.14272 0.91774 0.98324 0.0
O13 O 0.19259 0.78208 0.01325 0.0
O14 O 0.23327 0.84417 0.00843 0.0
C15 C 0.05408 0.84123 0.08872 0.0
O16 O 0.07384 0.86495 0.98645 0.0
O17 O 0.11522 0.80391 0.97174 0.0
C18 C 0.18485 0.93176 0.98866 0.0
O19 O 0.07026 0.87999 0.08631 0.0
O20 O 0.07241 0.80859 0.06254 0.0
C21 C 0.19092 0.80018 0.12463 0.0
Fe22 Fe 0.70767 0.62152 0.48341 0.0
Fe23 Fe 0.63504 0.69758 0.50576 0.0
O24 O 0.64948 0.64016 0.50064 0.0
Fe25 Fe 0.60555 0.60061 0.51291 0.0
O26 O 0.63964 0.58197 0.56648 0.0
O27 O 0.70609 0.57306 0.52276 0.0
O28 O 0.73309 0.65209 0.53879 0.0
C29 C 0.72714 0.69279 0.55104 0.0
C30 C 0.65409 0.56002 0.42824 0.0
O31 O 0.69395 0.71469 0.53122 0.0
C32 C 0.55505 0.65655 0.4554 0.0
O33 O 0.71985 0.66669 0.44177 0.0
O34 O 0.65298 0.70437 0.43971 0.0
O35 O 0.62955 0.55701 0.46842 0.0
O36 O 0.68591 0.5893 0.42632 0.0
C37 C 0.58453 0.66976 0.58743 0.0
O38 O 0.57354 0.68948 0.48107 0.0
O39 O 0.56988 0.61763 0.46007 0.0
C40 C 0.69274 0.69345 0.42038 0.0
O41 O 0.6157 0.69601 0.5726 0.0
O42 O 0.57223 0.63609 0.55943 0.0
C43 C 0.68136 0.5667 0.5623 0.0
Fe44 Fe 0.86389 0.19855 0.00216 0.0
Fe45 Fe 0.88448 0.10045 0.01443 0.0
O46 O 0.84402 0.14268 0.00146 0.0
Fe47 Fe 0.78371 0.12902 0.98794 0.0
O48 O 0.77542 0.17345 0.94409 0.0
O49 O 0.84678 0.20213 0.93538 0.0
O50 O 0.9244 0.18494 0.97931 0.0
C51 C 0.93998 0.15038 0.95478 0.0
C52 C 0.77444 0.20481 0.05053 0.0
O53 O 0.92113 0.11314 0.96031 0.0
C54 C 0.80767 0.07207 0.06666 0.0
O55 O 0.88219 0.19862 0.06933 0.0
O56 O 0.92029 0.1351 0.05936 0.0
O57 O 0.76421 0.16413 0.04325 0.0
O58 O 0.8072 0.22196 0.02508 0.0
C59 C 0.82958 0.06208 0.93299 0.0
O60 O 0.85016 0.08536 0.06939 0.0
O61 O 0.78149 0.08154 0.02918 0.0
C62 C 0.9095 0.16988 0.08631 0.0
O63 O 0.856 0.05808 0.97169 0.0
O64 O 0.79995 0.09329 0.93163 0.0
C65 C 0.80542 0.19404 0.91823 0.0
Fe66 Fe 0.38896 0.39162 0.5336 0.0
Fe67 Fe 0.28649 0.36808 0.55951 0.0
O68 O 0.34624 0.35164 0.54748 0.0
Fe69 Fe 0.36345 0.29521 0.54916 0.0
O70 O 0.42434 0.30701 0.5724 0.0
O71 O 0.42391 0.37914 0.58927 0.0
O72 O 0.36192 0.43631 0.57378 0.0
C73 C 0.33511 0.43475 0.61243 0.0
C74 C 0.41154 0.31948 0.46479 0.0
O75 O 0.30378 0.40502 0.61465 0.0
C76 C 0.27447 0.29099 0.49959 0.0
O77 O 0.35625 0.40636 0.4772 0.0
O78 O 0.28713 0.41394 0.5159 0.0
O79 O 0.38231 0.29259 0.4821 0.0
O80 O 0.42387 0.35424 0.49091 0.0
C81 C 0.30418 0.30397 0.63204 0.0
O82 O 0.26586 0.33209 0.50526 0.0
O83 O 0.306 0.27346 0.5264 0.0
C84 C 0.31429 0.42118 0.47847 0.0
O85 O 0.2756 0.32551 0.60528 0.0
O86 O 0.34545 0.29425 0.61588 0.0
C87 C 0.4408 0.34141 0.59654 0.0
H88 H 0.06044 0.20932 0.28046 0.0
H89 H 0.04454 0.08454 0.1934 0.0
H90 H 0.16442 0.10588 0.29485 0.0
N91 N 0.13868 0.1896 0.32886 0.0
N92 N 0.17349 0.17713 0.35381 0.0
C93 C 0.07292 0.17595 0.27024 0.0
C94 C 0.04711 0.14823 0.23535 0.0
C95 C 0.11464 0.1607 0.29254 0.0
C96 C 0.13165 0.11762 0.27847 0.0
C97 C 0.10618 0.08968 0.24302 0.0
C98 C 0.06373 0.10524 0.22212 0.0
H99 H 0.32375 0.60347 0.78357 0.0
H100 H 0.44489 0.5923 0.68315 0.0
H101 H 0.42417 0.71125 0.78049 0.0
N102 N 0.34209 0.68207 0.8247 0.0
N103 N 0.3509 0.72001 0.84406 0.0
C104 C 0.356 0.6173 0.76837 0.0
C105 C 0.38266 0.59253 0.7315 0.0
C106 C 0.37072 0.65974 0.78654 0.0
C107 C 0.41266 0.67825 0.76701 0.0
C108 C 0.43994 0.65335 0.73021 0.0
C109 C 0.42459 0.6108 0.71278 0.0
H110 H 0.73864 0.89779 0.20529 0.0
H111 H 0.87119 0.91689 0.12733 0.0
H112 H 0.8489 0.79787 0.20463 0.0
N113 N 0.76149 0.82032 0.24214 0.0
N114 N 0.77547 0.78406 0.25689 0.0
C115 C 0.77325 0.88551 0.19278 0.0
C116 C 0.80276 0.91168 0.16356 0.0
C117 C 0.7895 0.84421 0.20787 0.0
C118 C 0.83521 0.82901 0.19241 0.0
C119 C 0.86459 0.85534 0.16364 0.0
C120 C 0.84806 0.89628 0.14913 0.0
H121 H 0.75867 0.39766 0.70546 0.0
H122 H 0.62059 0.42222 0.64175 0.0
H123 H 0.64663 0.29981 0.71067 0.0
N124 N 0.73674 0.31971 0.7415 0.0
N125 N 0.72357 0.28265 0.75442 0.0
C126 C 0.72272 0.38672 0.69634 0.0
C127 C 0.69136 0.41457 0.67165 0.0
C128 C 0.70683 0.34522 0.71091 0.0
C129 C 0.65976 0.33141 0.69921 0.0
C130 C 0.62858 0.35951 0.67513 0.0
C131 C 0.64468 0.4007 0.66124 0.0
H132 H 0.56184 0.28237 0.26975 0.0
H133 H 0.54279 0.40535 0.35915 0.0
H134 H 0.66138 0.38942 0.25515 0.0
N135 N 0.63841 0.30493 0.22087 0.0
N136 N 0.67319 0.31799 0.19645 0.0
C137 C 0.57322 0.31606 0.28023 0.0
C138 C 0.54709 0.34249 0.31593 0.0
C139 C 0.61389 0.33292 0.25761 0.0
C140 C 0.62948 0.37645 0.272 0.0
C141 C 0.60369 0.40316 0.3084 0.0
C142 C 0.5623 0.38582 0.32973 0.0
H143 H 0.26118 0.1038 0.84745 0.0
H144 H 0.12638 0.07483 0.91516 0.0
H145 H 0.14372 0.19573 0.84007 0.0
N146 N 0.23483 0.17974 0.80985 0.0
N147 N 0.21941 0.21523 0.79445 0.0
C148 C 0.22494 0.11339 0.85702 0.0
C149 C 0.19572 0.08495 0.88339 0.0
C150 C 0.20651 0.1536 0.84126 0.0
C151 C 0.15882 0.16533 0.85286 0.0
C152 C 0.12972 0.13652 0.87866 0.0
C153 C 0.14869 0.09695 0.89441 0.0
H154 H 0.24369 0.59096 0.33445 0.0
H155 H 0.37872 0.57578 0.40959 0.0
H156 H 0.3496 0.69499 0.33518 0.0
N157 N 0.26257 0.66985 0.29851 0.0
N158 N 0.27404 0.70762 0.28622 0.0
C159 C 0.27814 0.60422 0.34626 0.0
C160 C 0.30943 0.5787 0.37438 0.0
C161 C 0.29228 0.64633 0.33167 0.0
C162 C 0.3376 0.66304 0.34673 0.0
C163 C 0.3687 0.63744 0.37441 0.0
C164 C 0.35438 0.5956 0.38819 0.0
H165 H 0.8206 0.8938 0.76136 0.0
H166 H 0.9435 0.91205 0.85839 0.0
H167 H 0.92649 0.79066 0.76368 0.0
N168 N 0.84241 0.81633 0.71983 0.0
N169 N 0.85221 0.77866 0.7004 0.0
C170 C 0.85407 0.88161 0.77574 0.0
C171 C 0.8803 0.90788 0.81161 0.0
C172 C 0.87061 0.83984 0.75763 0.0
C173 C 0.91378 0.82329 0.7768 0.0
C174 C 0.94066 0.84978 0.81282 0.0
C175 C 0.92369 0.89203 0.82954 0.0
C176 C 0.10524 0.9713 0.18835 0.0
C177 C 0.15029 0.96759 0.16555 0.0
H178 H 0.0565 0.01239 0.23269 0.0
C179 C 0.18392 0.00136 0.17594 0.0
H180 H 0.0787 0.94588 0.18022 0.0
C181 C 0.17101 0.04011 0.20536 0.0
C182 C 0.12433 0.04533 0.22442 0.0
H183 H 0.21859 -0.00053 0.15776 0.0
H184 H 0.19618 0.06728 0.20949 0.0
C185 C 0.09249 0.00954 0.21794 0.0
C186 C 0.56259 0.65052 0.67484 0.0
C187 C 0.55738 0.67932 0.6351 0.0
H188 H 0.52915 0.62083 0.73798 0.0
C189 C 0.51725 0.70705 0.6347 0.0
H190 H 0.59274 0.62815 0.67516 0.0
C191 C 0.48063 0.70276 0.67067 0.0
C192 C 0.4838 0.67054 0.70708 0.0
H193 H 0.51196 0.72859 0.6035 0.0
H194 H 0.44791 0.72118 0.66652 0.0
C195 C 0.5262 0.64629 0.71068 0.0
C196 C 0.81745 0.03238 0.14696 0.0
C197 C 0.79369 0.03642 0.09994 0.0
H198 H 0.83746 0.98907 0.20521 0.0
C199 C 0.76343 0.00188 0.0811 0.0
H200 H 0.84067 0.05854 0.16262 0.0
C201 C 0.76161 0.96199 0.10569 0.0
C202 C 0.78946 0.95657 0.14964 0.0
H203 H 0.74481 0.00399 0.04484 0.0
H204 H 0.74209 0.93416 0.08771 0.0
C205 C 0.81532 0.9928 0.1716 0.0
C206 C 0.49679 0.3728 0.66326 0.0
C207 C 0.4858 0.33921 0.62533 0.0
H208 H 0.55114 0.40488 0.70969 0.0
C209 C 0.52044 0.30713 0.61102 0.0
H210 H 0.47048 0.39716 0.67598 0.0
C211 C 0.56674 0.31137 0.63071 0.0
C212 C 0.57852 0.34757 0.6649 0.0
H213 H 0.51278 0.28078 0.58191 0.0
H214 H 0.594 0.28842 0.61635 0.0
C215 C 0.54276 0.37699 0.68284 0.0
C216 C 0.68088 0.49455 0.3716 0.0
C217 C 0.64608 0.52634 0.38573 0.0
H218 H 0.6946 0.42977 0.33564 0.0
C219 C 0.59959 0.52048 0.3669 0.0
H220 H 0.7168 0.49815 0.38652 0.0
C221 C 0.58703 0.48211 0.3374 0.0
C222 C 0.62044 0.44805 0.32734 0.0
H223 H 0.57212 0.54437 0.37782 0.0
H224 H 0.55028 0.47783 0.32537 0.0
C225 C 0.66809 0.45547 0.34259 0.0
C226 C 0.01764 0.18722 0.93616 0.0
C227 C 0.98558 0.15174 0.92686 0.0
H228 H 0.08942 0.21025 0.92765 0.0
C229 C -0.00053 0.11508 0.89447 0.0
H230 H 0.00783 0.21603 0.96083 0.0
C231 C 0.04552 0.11217 0.87517 0.0
C232 C 0.07885 0.14563 0.8883 0.0
H233 H 0.97559 0.08748 0.88606 0.0
H234 H 0.05598 0.08242 0.85242 0.0
C235 C 0.06417 0.1841 0.91705 0.0
C236 C 0.26873 0.48919 0.45727 0.0
C237 C 0.30191 0.45572 0.44285 0.0
H238 H 0.24457 0.5553 0.44558 0.0
C239 C 0.32896 0.45964 0.398 0.0
H240 H 0.24733 0.48713 0.49162 0.0
C241 C 0.32686 0.49827 0.37155 0.0
C242 C 0.29771 0.53371 0.38941 0.0
H243 H 0.35442 0.43428 0.38553 0.0
H244 H 0.35118 0.50206 0.33985 0.0
C245 C 0.26684 0.52811 0.43079 0.0
C246 C 0.02075 0.79405 0.90512 0.0
C247 C 0.05862 0.82449 0.90885 0.0
H248 H 0.95304 0.7778 0.87003 0.0
C249 C 0.06196 0.85683 0.87275 0.0
H250 H 0.01691 0.76956 0.93343 0.0
C251 C 0.02577 0.86147 0.83666 0.0
C252 C 0.98524 0.83419 0.83642 0.0
H253 H 0.09041 0.8811 0.87552 0.0
H254 H 0.02728 0.88911 0.81218 0.0
C255 C 0.98421 0.79883 0.86894 0.0
C256 C 0.80321 0.99258 0.885 0.0
C257 C 0.8346 0.02864 0.89019 0.0
H258 H 0.79332 0.92532 0.85495 0.0
C259 C 0.87773 0.02703 0.86323 0.0
H260 H 0.77024 0.99297 0.90655 0.0
C261 C 0.89134 0.9885 0.83474 0.0
C262 C 0.86175 0.95106 0.83264 0.0
H263 H 0.90233 0.05458 0.86718 0.0
H264 H 0.92607 0.98715 0.81664 0.0
C265 C 0.81661 0.95396 0.85593 0.0
C266 C 0.47678 0.28431 0.41347 0.0
C267 C 0.43555 0.31048 0.41555 0.0
H268 H 0.54528 0.27383 0.37838 0.0
C269 C 0.42712 0.34002 0.3772 0.0
H270 H 0.48433 0.26221 0.4436 0.0
C271 C 0.46203 0.34729 0.34079 0.0
C272 C 0.50556 0.32477 0.34217 0.0
H273 H 0.39579 0.36096 0.37885 0.0
H274 H 0.45676 0.37326 0.31452 0.0
C275 C 0.51168 0.29126 0.37655 0.0
C276 C 0.23009 0.00106 0.97414 0.0
C277 C 0.20149 0.9656 0.95463 0.0
H278 H 0.25182 0.06818 0.9649 0.0
C279 C 0.18314 0.96612 0.90449 0.0
H280 H 0.24483 0.00133 0.01267 0.0
C281 C 0.18839 0.00373 0.87678 0.0
C282 C 0.21136 0.0415 0.8992 0.0
H283 H 0.16161 0.93886 0.88831 0.0
H284 H 0.16968 0.00522 0.84045 0.0
C285 C 0.23468 0.03909 0.94663 0.0
C286 C 0.47353 0.68886 0.44651 0.0
C287 C 0.51033 0.66127 0.42665 0.0
H288 H 0.39847 0.70292 0.44475 0.0
C289 C 0.50134 0.63208 0.38351 0.0
H290 H 0.47958 0.71141 0.48 0.0
C291 C 0.45546 0.62728 0.36365 0.0
C292 C 0.41781 0.65179 0.3864 0.0
H293 H 0.5293 0.611 0.36706 0.0
H294 H 0.44877 0.60229 0.33266 0.0
C295 C 0.42728 0.68401 0.42649 0.0
C296 C 0.30697 0.50108 0.66643 0.0
C297 C 0.34202 0.46917 0.65405 0.0
H298 H 0.29264 0.56623 0.70089 0.0
C299 C 0.38819 0.47539 0.67362 0.0
H300 H 0.27133 0.49714 0.65082 0.0
C301 C 0.40033 0.51417 0.70227 0.0
C302 C 0.36669 0.54809 0.71094 0.0
H303 H 0.41576 0.45139 0.66385 0.0
H304 H 0.43682 0.51864 0.71514 0.0
C305 C 0.31928 0.54052 0.6948 0.0
C306 C 0.97297 0.80714 0.09527 0.0
C307 C 0.00825 0.83649 0.1154 0.0
H308 H 0.89855 0.79008 0.09537 0.0
C309 C 0.997 0.86643 0.15714 0.0
H310 H 0.98069 0.78387 0.0629 0.0
C311 C 0.95056 0.8699 0.17543 0.0
C312 C 0.91449 0.84331 0.15253 0.0
H313 H 0.02362 0.88886 0.1739 0.0
H314 H 0.9422 0.89523 0.20552 0.0
C315 C 0.92613 0.81066 0.11371 0.0
C316 C 0.67474 0.5327 0.64652 0.0
C317 C 0.69648 0.53349 0.59806 0.0
H318 H 0.65826 0.49372 0.70983 0.0
C319 C 0.72747 0.49885 0.5816 0.0
H320 H 0.65137 0.55932 0.66054 0.0
C321 C 0.73149 0.46131 0.61005 0.0
C322 C 0.70505 0.45846 0.65535 0.0
H323 H 0.74495 0.49879 0.54452 0.0
H324 H 0.75108 0.43281 0.59389 0.0
C325 C 0.6792 0.4955 0.67508 0.0
C326 C 0.92785 0.14479 0.17154 0.0
C327 C 0.93382 0.17707 0.13578 0.0
H328 H 0.95959 0.11077 0.23245 0.0
C329 C 0.97255 0.20631 0.14067 0.0
H330 H 0.8984 0.12164 0.16783 0.0
C331 C 0.00779 0.19997 0.17758 0.0
C332 C 0.00442 0.16419 0.20928 0.0
H333 H 0.97816 0.23076 0.11262 0.0
H334 H 0.03974 0.22007 0.17775 0.0
C335 C 0.96292 0.13838 0.20813 0.0
C336 C 0.18838 0.73684 0.18311 0.0
C337 C 0.20783 0.77754 0.17 0.0
H338 H 0.19444 0.6817 0.23096 0.0
C339 C 0.24619 0.79572 0.19903 0.0
H340 H 0.1588 0.72203 0.16145 0.0
C341 C 0.26605 0.77297 0.23868 0.0
C342 C 0.24837 0.73155 0.25016 0.0
H343 H 0.26167 0.82723 0.19038 0.0
H344 H 0.29655 0.787 0.25944 0.0
C345 C 0.20871 0.71378 0.22281 0.0
C346 C 0.75281 0.75995 0.6055 0.0
C347 C 0.76053 0.71555 0.58818 0.0
H348 H 0.77572 0.8151 0.65479 0.0
C349 C 0.79969 0.69282 0.60784 0.0
H350 H 0.72306 0.77845 0.59131 0.0
C351 C 0.83011 0.714 0.64438 0.0
C352 C 0.82182 0.75801 0.66217 0.0
H353 H 0.80672 0.65855 0.5953 0.0
H354 H 0.85983 0.6959 0.65928 0.0
C355 C 0.78301 0.78094 0.64209 0.0
C356 C 0.75956 0.27874 0.09634 0.0
C357 C 0.74685 0.23379 0.08735 0.0
H358 H 0.74535 0.34055 0.13892 0.0
C359 C 0.70871 0.21694 0.11491 0.0
H360 H 0.7889 0.29281 0.07593 0.0
C361 C 0.68397 0.24447 0.15084 0.0
C362 C 0.69714 0.2893 0.15987 0.0
H363 H 0.69815 0.18249 0.10899 0.0
H364 H 0.65483 0.23058 0.1717 0.0
C365 C 0.7349 0.30612 0.13233 0.0
C366 C 0.24281 0.29908 0.70057 0.0
C367 C 0.28611 0.28426 0.67864 0.0
H368 H 0.18823 0.28809 0.75578 0.0
C369 C 0.30994 0.24861 0.69951 0.0
H370 H 0.22386 0.32677 0.68575 0.0
C371 C 0.28931 0.22652 0.73946 0.0
C372 C 0.2448 0.2402 0.75938 0.0
H373 H 0.34345 0.23653 0.68356 0.0
H374 H 0.30732 0.19797 0.7534 0.0
C375 C 0.22251 0.27725 0.74069 0.0
C376 C 0.75137 0.69871 0.34904 0.0
C377 C 0.71059 0.71535 0.37489 0.0
H378 H 0.80329 0.7082 0.29051 0.0
C379 C 0.68895 0.75398 0.35831 0.0
H380 H 0.76871 0.66885 0.36041 0.0
C381 C 0.70905 0.77649 0.31819 0.0
C382 C 0.75084 0.76033 0.29385 0.0
H383 H 0.65746 0.76761 0.37737 0.0
H384 H 0.69269 0.80692 0.30723 0.0
C385 C 0.77111 0.72099 0.30894 0.0
C386 C 0.7483 0.1971 0.84547 0.0
C387 C 0.7891 0.214 0.87113 0.0
H388 H 0.69622 0.20635 0.7869 0.0
C389 C 0.81166 0.25166 0.85342 0.0
H390 H 0.73054 0.1678 0.85783 0.0
C391 C 0.79173 0.27373 0.81294 0.0
C392 C 0.74939 0.25788 0.78937 0.0
H393 H 0.84325 0.26531 0.87242 0.0
H394 H 0.80828 0.30394 0.80159 0.0
C395 C 0.72884 0.21882 0.80481 0.0
C396 C 0.20931 0.27896 0.43406 0.0
C397 C 0.24672 0.26202 0.46278 0.0
H398 H 0.15603 0.26509 0.37629 0.0
C399 C 0.25882 0.21685 0.45489 0.0
H400 H 0.19927 0.31358 0.43913 0.0
C401 C 0.23433 0.18934 0.41885 0.0
C402 C 0.19727 0.20619 0.39021 0.0
H403 H 0.28763 0.20269 0.47615 0.0
H404 H 0.24434 0.15474 0.41313 0.0
C405 C 0.18464 0.25123 0.39808 0.0
C406 C 0.29861 0.80454 0.93787 0.0
C407 C 0.25943 0.78157 0.95695 0.0
H408 H 0.35861 0.80211 0.88659 0.0
C409 C 0.25149 0.73741 0.9387 0.0
H410 H 0.30579 0.83864 0.95108 0.0
C411 C 0.2816 0.71687 0.90183 0.0
C412 C 0.32046 0.74006 0.88242 0.0
H413 H 0.22169 0.71876 0.95244 0.0
H414 H 0.27421 0.68285 0.88838 0.0
C415 C 0.32887 0.78384 0.90103 0.0
loop_
_geom_bond_atom_site_label_1
_geom_bond_atom_site_label_2
_geom_bond_distance
_geom_bond_site_symmetry_2
_ccdc_geom_bond_type
Fe0 O2 1.918 . S
Fe0 O5 1.997 . S
Fe0 O6 2.002 . S
Fe0 O11 1.976 . S
Fe0 O14 1.996 . S
Fe1 O2 1.918 . S
Fe1 O9 1.997 . S
Fe1 O12 1.996 1_554 S
Fe1 O16 1.976 1_554 S
Fe1 O19 2.002 . S
O2 Fe0 1.918 . S
O2 Fe1 1.918 . S
O2 Fe3 1.918 . S
Fe3 O2 1.918 . S
Fe3 O4 2.002 . S
Fe3 O13 1.976 1_554 S
Fe3 O17 1.996 1_554 S
Fe3 O20 1.997 . S
O4 Fe3 2.002 . S
O4 C21 1.295 . S
O5 Fe0 1.997 . S
O5 C21 1.235 . S
O6 Fe0 2.002 . S
O6 C7 1.295 . S
C7 O6 1.295 . S
C7 O9 1.235 . S
C8 O13 1.287 . S
C8 O14 1.255 1_556 S
O9 Fe1 1.997 . S
O9 C7 1.235 . S
C10 O16 1.287 . S
C10 O17 1.255 . S
O11 Fe0 1.976 . S
O11 C18 1.287 1_554 S
O12 Fe1 1.996 1_556 S
O12 C18 1.255 . S
O13 Fe3 1.976 1_556 S
O13 C8 1.287 . S
O14 Fe0 1.996 . S
O14 C8 1.255 1_554 S
C15 O19 1.295 . S
C15 O20 1.235 . S
O16 Fe1 1.976 1_556 S
O16 C10 1.287 . S
O17 Fe3 1.996 1_556 S
O17 C10 1.255 . S
C18 O11 1.287 1_556 S
C18 O12 1.255 . S
O19 Fe1 2.002 . S
O19 C15 1.295 . S
O20 Fe3 1.997 . S
O20 C15 1.235 . S
C21 O4 1.295 . S
C21 O5 1.235 . S
Fe22 O24 1.918 . S
Fe22 O27 1.997 . S
Fe22 O28 2.002 . S
Fe22 O33 1.976 . S
Fe22 O36 1.996 . S
Fe23 O24 1.918 . S
Fe23 O31 1.997 . S
Fe23 O34 1.996 . S
Fe23 O38 1.976 . S
Fe23 O41 2.002 . S
O24 Fe22 1.918 . S
O24 Fe23 1.918 . S
O24 Fe25 1.918 . S
Fe25 O24 1.918 . S
Fe25 O26 2.002 . S
Fe25 O35 1.976 . S
Fe25 O39 1.996 . S
Fe25 O42 1.997 . S
O26 Fe25 2.002 . S
O26 C43 1.295 . S
O27 Fe22 1.997 . S
O27 C43 1.235 . S
O28 Fe22 2.002 . S
O28 C29 1.295 . S
C29 O28 1.295 . S
C29 O31 1.235 . S
C30 O35 1.287 . S
C30 O36 1.255 . S
O31 Fe23 1.997 . S
O31 C29 1.235 . S
C32 O38 1.287 . S
C32 O39 1.255 . S
O33 Fe22 1.976 . S
O33 C40 1.287 . S
O34 Fe23 1.996 . S
O34 C40 1.255 . S
O35 Fe25 1.976 . S
O35 C30 1.287 . S
O36 Fe22 1.996 . S
O36 C30 1.255 . S
C37 O41 1.295 . S
C37 O42 1.235 . S
O38 Fe23 1.976 . S
O38 C32 1.287 . S
O39 Fe25 1.996 . S
O39 C32 1.255 . S
C40 O33 1.287 . S
C40 O34 1.255 . S
O41 Fe23 2.002 . S
O41 C37 1.295 . S
O42 Fe25 1.997 . S
O42 C37 1.235 . S
C43 O26 1.295 . S
C43 O27 1.235 . S
Fe44 O46 1.918 . S
Fe44 O49 1.997 1_554 S
Fe44 O50 2.002 1_554 S
Fe44 O55 1.976 . S
Fe44 O58 1.996 . S
Fe45 O46 1.918 . S
Fe45 O53 1.997 1_554 S
Fe45 O56 1.996 . S
Fe45 O60 1.976 . S
Fe45 O63 2.002 1_554 S
O46 Fe44 1.918 . S
O46 Fe45 1.918 . S
O46 Fe47 1.918 1_554 S
Fe47 O46 1.918 1_556 S
Fe47 O48 2.002 . S
Fe47 O57 1.976 1_556 S
Fe47 O61 1.996 1_556 S
Fe47 O64 1.997 . S
O48 Fe47 2.002 . S
O48 C65 1.295 . S
O49 Fe44 1.997 1_556 S
O49 C65 1.235 . S
O50 Fe44 2.002 1_556 S
O50 C51 1.295 . S
C51 O50 1.295 . S
C51 O53 1.235 . S
C52 O57 1.287 . S
C52 O58 1.255 . S
O53 Fe45 1.997 1_556 S
O53 C51 1.235 . S
C54 O60 1.287 . S
C54 O61 1.255 . S
O55 Fe44 1.976 . S
O55 C62 1.287 . S
O56 Fe45 1.996 . S
O56 C62 1.255 . S
O57 Fe47 1.976 1_554 S
O57 C52 1.287 . S
O58 Fe44 1.996 . S
O58 C52 1.255 . S
C59 O63 1.295 . S
C59 O64 1.235 . S
O60 Fe45 1.976 . S
O60 C54 1.287 . S
O61 Fe47 1.996 1_554 S
O61 C54 1.255 . S
C62 O55 1.287 . S
C62 O56 1.255 . S
O63 Fe45 2.002 1_556 S
O63 C59 1.295 . S
O64 Fe47 1.997 . S
O64 C59 1.235 . S
C65 O48 1.295 . S
C65 O49 1.235 . S
Fe66 O68 1.918 . S
Fe66 O71 1.997 . S
Fe66 O72 2.002 . S
Fe66 O77 1.976 . S
Fe66 O80 1.996 . S
Fe67 O68 1.918 . S
Fe67 O75 1.997 . S
Fe67 O78 1.996 . S
Fe67 O82 1.976 . S
Fe67 O85 2.002 . S
O68 Fe66 1.918 . S
O68 Fe67 1.918 . S
O68 Fe69 1.918 . S
Fe69 O68 1.918 . S
Fe69 O70 2.002 . S
Fe69 O79 1.976 . S
Fe69 O83 1.996 . S
Fe69 O86 1.997 . S
O70 Fe69 2.002 . S
O70 C87 1.295 . S
O71 Fe66 1.997 . S
O71 C87 1.235 . S
O72 Fe66 2.002 . S
O72 C73 1.295 . S
C73 O72 1.295 . S
C73 O75 1.235 . S
C74 O79 1.287 . S
C74 O80 1.255 . S
O75 Fe67 1.997 . S
O75 C73 1.235 . S
C76 O82 1.287 . S
C76 O83 1.255 . S
O77 Fe66 1.976 . S
O77 C84 1.287 . S
O78 Fe67 1.996 . S
O78 C84 1.255 . S
O79 Fe69 1.976 . S
O79 C74 1.287 . S
O80 Fe66 1.996 . S
O80 C74 1.255 . S
C81 O85 1.295 . S
C81 O86 1.235 . S
O82 Fe67 1.976 . S
O82 C76 1.287 . S
O83 Fe69 1.996 . S
O83 C76 1.255 . S
C84 O77 1.287 . S
C84 O78 1.255 . S
O85 Fe67 2.002 . S
O85 C81 1.295 . S
O86 Fe69 1.997 . S
O86 C81 1.235 . S
C87 O70 1.295 . S
C87 O71 1.235 . S
H88 C93 0.929 . S
H89 C98 0.931 . S
H90 C96 0.930 . S
N91 N92 1.234 . S
N91 C95 1.453 . S
N92 N91 1.234 . S
C93 H88 0.929 . S
C93 C94 1.373 . S
C93 C95 1.368 . S
C94 C93 1.373 . S
C94 C98 1.397 . S
C95 N91 1.453 . S
C95 C93 1.368 . S
C95 C96 1.373 . S
C96 H90 0.930 . S
C96 C95 1.373 . S
C96 C97 1.371 . S
C97 C96 1.371 . S
C97 C98 1.383 . S
C98 H89 0.931 . S
C98 C94 1.397 . S
C98 C97 1.383 . S
H99 C104 0.929 . S
H100 C109 0.931 . S
H101 C107 0.930 . S
N102 N103 1.234 . S
N102 C106 1.453 . S
N103 N102 1.234 . S
C104 H99 0.929 . S
C104 C105 1.373 . S
C104 C106 1.368 . S
C105 C104 1.373 . S
C105 C109 1.397 . S
C106 N102 1.453 . S
C106 C104 1.368 . S
C106 C107 1.373 . S
C107 H101 0.930 . S
C107 C106 1.373 . S
C107 C108 1.371 . S
C108 C107 1.371 . S
C108 C109 1.383 . S
C109 H100 0.931 . S
C109 C105 1.397 . S
C109 C108 1.383 . S
H110 C115 0.929 . S
H111 C120 0.931 . S
H112 C118 0.930 . S
N113 N114 1.234 . S
N113 C117 1.453 . S
N114 N113 1.234 . S
C115 H110 0.929 . S
C115 C116 1.373 . S
C115 C117 1.368 . S
C116 C115 1.373 . S
C116 C120 1.397 . S
C117 N113 1.453 . S
C117 C115 1.368 . S
C117 C118 1.373 . S
C118 H112 0.930 . S
C118 C117 1.373 . S
C118 C119 1.371 . S
C119 C118 1.371 . S
C119 C120 1.383 . S
C120 H111 0.931 . S
C120 C116 1.397 . S
C120 C119 1.383 . S
H121 C126 0.929 . S
H122 C131 0.931 . S
H123 C129 0.930 . S
N124 N125 1.234 . S
N124 C128 1.453 . S
N125 N124 1.234 . S
C126 H121 0.929 . S
C126 C127 1.373 . S
C126 C128 1.368 . S
C127 C126 1.373 . S
C127 C131 1.397 . S
C128 N124 1.453 . S
C128 C126 1.368 . S
C128 C129 1.373 . S
C129 H123 0.930 . S
C129 C128 1.373 . S
C129 C130 1.371 . S
C130 C129 1.371 . S
C130 C131 1.383 . S
C131 H122 0.931 . S
C131 C127 1.397 . S
C131 C130 1.383 . S
H132 C137 0.929 . S
H133 C142 0.931 . S
H134 C140 0.930 . S
N135 N136 1.234 . S
N135 C139 1.453 . S
N136 N135 1.234 . S
C137 H132 0.929 . S
C137 C138 1.373 . S
C137 C139 1.368 . S
C138 C137 1.373 . S
C138 C142 1.397 . S
C139 N135 1.453 . S
C139 C137 1.368 . S
C139 C140 1.373 . S
C140 H134 0.930 . S
C140 C139 1.373 . S
C140 C141 1.371 . S
C141 C140 1.371 . S
C141 C142 1.383 . S
C142 H133 0.931 . S
C142 C138 1.397 . S
C142 C141 1.383 . S
H143 C148 0.929 . S
H144 C153 0.931 . S
H145 C151 0.930 . S
N146 N147 1.234 . S
N146 C150 1.453 . S
N147 N146 1.234 . S
C148 H143 0.929 . S
C148 C149 1.373 . S
C148 C150 1.368 . S
C149 C148 1.373 . S
C149 C153 1.397 . S
C150 N146 1.453 . S
C150 C148 1.368 . S
C150 C151 1.373 . S
C151 H145 0.930 . S
C151 C150 1.373 . S
C151 C152 1.371 . S
C152 C151 1.371 . S
C152 C153 1.383 . S
C153 H144 0.931 . S
C153 C149 1.397 . S
C153 C152 1.383 . S
H154 C159 0.929 . S
H155 C164 0.931 . S
H156 C162 0.930 . S
N157 N158 1.234 . S
N157 C161 1.453 . S
N158 N157 1.234 . S
C159 H154 0.929 . S
C159 C160 1.373 . S
C159 C161 1.368 . S
C160 C159 1.373 . S
C160 C164 1.397 . S
C161 N157 1.453 . S
C161 C159 1.368 . S
C161 C162 1.373 . S
C162 H156 0.930 . S
C162 C161 1.373 . S
C162 C163 1.371 . S
C163 C162 1.371 . S
C163 C164 1.383 . S
C164 H155 0.931 . S
C164 C160 1.397 . S
C164 C163 1.383 . S
H165 C170 0.929 . S
H166 C175 0.931 . S
H167 C173 0.930 . S
N168 N169 1.234 . S
N168 C172 1.453 . S
N169 N168 1.234 . S
C170 H165 0.929 . S
C170 C171 1.373 . S
C170 C172 1.368 . S
C171 C170 1.373 . S
C171 C175 1.397 . S
C172 N168 1.453 . S
C172 C170 1.368 . S
C172 C173 1.373 . S
C173 H167 0.930 . S
C173 C172 1.373 . S
C173 C174 1.371 . S
C174 C173 1.371 . S
C174 C175 1.383 . S
C175 H166 0.931 . S
C175 C171 1.397 . S
C175 C174 1.383 . S
C176 C177 1.387 . S
C176 H180 0.950 . S
C176 C185 1.390 1_565 S
C177 C176 1.387 . S
C177 C179 1.387 1_565 S
H178 C185 0.950 . S
C179 C177 1.387 1_545 S
C179 C181 1.390 . S
C179 H183 0.950 . S
H180 C176 0.950 . S
C181 C179 1.390 . S
C181 C182 1.387 . S
C181 H184 0.950 . S
C182 C181 1.387 . S
C182 C185 1.387 . S
H183 C179 0.950 . S
H184 C181 0.950 . S
C185 C176 1.390 1_545 S
C185 H178 0.950 . S
C185 C182 1.387 . S
C186 C187 1.387 . S
C186 H190 0.950 . S
C186 C195 1.390 . S
C187 C186 1.387 . S
C187 C189 1.387 . S
H188 C195 0.950 . S
C189 C187 1.387 . S
C189 C191 1.390 . S
C189 H193 0.950 . S
H190 C186 0.950 . S
C191 C189 1.390 . S
C191 C192 1.387 . S
C191 H194 0.950 . S
C192 C191 1.387 . S
C192 C195 1.387 . S
H193 C189 0.950 . S
H194 C191 0.950 . S
C195 C186 1.390 . S
C195 H188 0.950 . S
C195 C192 1.387 . S
C196 C197 1.387 . S
C196 H200 0.950 . S
C196 C205 1.390 1_545 S
C197 C196 1.387 . S
C197 C199 1.387 1_545 S
H198 C205 0.950 . S
C199 C197 1.387 1_565 S
C199 C201 1.390 . S
C199 H203 0.950 . S
H200 C196 0.950 . S
C201 C199 1.390 . S
C201 C202 1.387 . S
C201 H204 0.950 . S
C202 C201 1.387 . S
C202 C205 1.387 . S
H203 C199 0.950 . S
H204 C201 0.950 . S
C205 C196 1.390 1_565 S
C205 H198 0.950 . S
C205 C202 1.387 . S
C206 C207 1.387 . S
C206 H210 0.950 . S
C206 C215 1.390 . S
C207 C206 1.387 . S
C207 C209 1.387 . S
H208 C215 0.950 . S
C209 C207 1.387 . S
C209 C211 1.390 . S
C209 H213 0.950 . S
H210 C206 0.950 . S
C211 C209 1.390 . S
C211 C212 1.387 . S
C211 H214 0.950 . S
C212 C211 1.387 . S
C212 C215 1.387 . S
H213 C209 0.950 . S
H214 C211 0.950 . S
C215 C206 1.390 . S
C215 H208 0.950 . S
C215 C212 1.387 . S
C216 C217 1.387 . S
C216 H220 0.950 . S
C216 C225 1.390 . S
C217 C216 1.387 . S
C217 C219 1.387 . S
H218 C225 0.950 . S
C219 C217 1.387 . S
C219 C221 1.390 . S
C219 H223 0.950 . S
H220 C216 0.950 . S
C221 C219 1.390 . S
C221 C222 1.387 . S
C221 H224 0.950 . S
C222 C221 1.387 . S
C222 C225 1.387 . S
H223 C219 0.950 . S
H224 C221 0.950 . S
C225 C216 1.390 . S
C225 H218 0.950 . S
C225 C222 1.387 . S
C226 C227 1.387 . S
C226 H230 0.950 . S
C226 C235 1.390 . S
C227 C226 1.387 . S
C227 C229 1.387 . S
H228 C235 0.950 . S
C229 C227 1.387 . S
C229 C231 1.390 . S
C229 H233 0.950 . S
H230 C226 0.950 . S
C231 C229 1.390 . S
C231 C232 1.387 . S
C231 H234 0.950 . S
C232 C231 1.387 . S
C232 C235 1.387 . S
H233 C229 0.950 . S
H234 C231 0.950 . S
C235 C226 1.390 . S
C235 H228 0.950 . S
C235 C232 1.387 . S
C236 C237 1.387 . S
C236 H240 0.950 . S
C236 C245 1.390 . S
C237 C236 1.387 . S
C237 C239 1.387 . S
H238 C245 0.950 . S
C239 C237 1.387 . S
C239 C241 1.390 . S
C239 H243 0.950 . S
H240 C236 0.950 . S
C241 C239 1.390 . S
C241 C242 1.387 . S
C241 H244 0.950 . S
C242 C241 1.387 . S
C242 C245 1.387 . S
H243 C239 0.950 . S
H244 C241 0.950 . S
C245 C236 1.390 . S
C245 H238 0.950 . S
C245 C242 1.387 . S
C246 C247 1.387 . S
C246 H250 0.950 . S
C246 C255 1.390 1_455 S
C247 C246 1.387 . S
C247 C249 1.387 . S
H248 C255 0.950 . S
C249 C247 1.387 . S
C249 C251 1.390 1_455 S
C249 H253 0.950 . S
H250 C246 0.950 . S
C251 C249 1.390 1_655 S
C251 C252 1.387 . S
C251 H254 0.950 . S
C252 C251 1.387 . S
C252 C255 1.387 . S
H253 C249 0.950 . S
H254 C251 0.950 . S
C255 C246 1.390 1_655 S
C255 H248 0.950 . S
C255 C252 1.387 . S
C256 C257 1.387 . S
C256 H260 0.950 . S
C256 C265 1.390 1_545 S
C257 C256 1.387 . S
C257 C259 1.387 . S
H258 C265 0.950 . S
C259 C257 1.387 . S
C259 C261 1.390 1_545 S
C259 H263 0.950 . S
H260 C256 0.950 . S
C261 C259 1.390 1_565 S
C261 C262 1.387 . S
C261 H264 0.950 . S
C262 C261 1.387 . S
C262 C265 1.387 . S
H263 C259 0.950 . S
H264 C261 0.950 . S
C265 C256 1.390 1_565 S
C265 H258 0.950 . S
C265 C262 1.387 . S
C266 C267 1.387 . S
C266 H270 0.950 . S
C266 C275 1.390 . S
C267 C266 1.387 . S
C267 C269 1.387 . S
H268 C275 0.950 . S
C269 C267 1.387 . S
C269 C271 1.390 . S
C269 H273 0.950 . S
H270 C266 0.950 . S
C271 C269 1.390 . S
C271 C272 1.387 . S
C271 H274 0.950 . S
C272 C271 1.387 . S
C272 C275 1.387 . S
H273 C269 0.950 . S
H274 C271 0.950 . S
C275 C266 1.390 . S
C275 H268 0.950 . S
C275 C272 1.387 . S
C276 C277 1.387 1_545 S
C276 H280 0.950 . S
C276 C285 1.390 . S
C277 C276 1.387 1_565 S
C277 C279 1.387 . S
H278 C285 0.950 . S
C279 C277 1.387 . S
C279 C281 1.390 1_565 S
C279 H283 0.950 . S
H280 C276 0.950 . S
C281 C279 1.390 1_545 S
C281 C282 1.387 . S
C281 H284 0.950 . S
C282 C281 1.387 . S
C282 C285 1.387 . S
H283 C279 0.950 . S
H284 C281 0.950 . S
C285 C276 1.390 . S
C285 H278 0.950 . S
C285 C282 1.387 . S
C286 C287 1.387 . S
C286 H290 0.950 . S
C286 C295 1.390 . S
C287 C286 1.387 . S
C287 C289 1.387 . S
H288 C295 0.950 . S
C289 C287 1.387 . S
C289 C291 1.390 . S
C289 H293 0.950 . S
H290 C286 0.950 . S
C291 C289 1.390 . S
C291 C292 1.387 . S
C291 H294 0.950 . S
C292 C291 1.387 . S
C292 C295 1.387 . S
H293 C289 0.950 . S
H294 C291 0.950 . S
C295 C286 1.390 . S
C295 H288 0.950 . S
C295 C292 1.387 . S
C296 C297 1.387 . S
C296 H300 0.950 . S
C296 C305 1.390 . S
C297 C296 1.387 . S
C297 C299 1.387 . S
H298 C305 0.950 . S
C299 C297 1.387 . S
C299 C301 1.390 . S
C299 H303 0.950 . S
H300 C296 0.950 . S
C301 C299 1.390 . S
C301 C302 1.387 . S
C301 H304 0.950 . S
C302 C301 1.387 . S
C302 C305 1.387 . S
H303 C299 0.950 . S
H304 C301 0.950 . S
C305 C296 1.390 . S
C305 H298 0.950 . S
C305 C302 1.387 . S
C306 C307 1.387 . S
C306 H310 0.950 . S
C306 C315 1.390 . S
C307 C306 1.387 . S
C307 C309 1.387 . S
H308 C315 0.950 . S
C309 C307 1.387 . S
C309 C311 1.390 . S
C309 H313 0.950 . S
H310 C306 0.950 . S
C311 C309 1.390 . S
C311 C312 1.387 . S
C311 H314 0.950 . S
C312 C311 1.387 . S
C312 C315 1.387 . S
H313 C309 0.950 . S
H314 C311 0.950 . S
C315 C306 1.390 . S
C315 H308 0.950 . S
C315 C312 1.387 . S
C316 C317 1.387 . S
C316 H320 0.950 . S
C316 C325 1.390 . S
C317 C316 1.387 . S
C317 C319 1.387 . S
H318 C325 0.950 . S
C319 C317 1.387 . S
C319 C321 1.390 . S
C319 H323 0.950 . S
H320 C316 0.950 . S
C321 C319 1.390 . S
C321 C322 1.387 . S
C321 H324 0.950 . S
C322 C321 1.387 . S
C322 C325 1.387 . S
H323 C319 0.950 . S
H324 C321 0.950 . S
C325 C316 1.390 . S
C325 H318 0.950 . S
C325 C322 1.387 . S
C326 C327 1.387 . S
C326 H330 0.950 . S
C326 C335 1.390 . S
C327 C326 1.387 . S
C327 C329 1.387 . S
H328 C335 0.950 . S
C329 C327 1.387 . S
C329 C331 1.390 1_655 S
C329 H333 0.950 . S
H330 C326 0.950 . S
C331 C329 1.390 1_455 S
C331 C332 1.387 . S
C331 H334 0.950 . S
C332 C331 1.387 . S
C332 C335 1.387 1_455 S
H333 C329 0.950 . S
H334 C331 0.950 . S
C335 C326 1.390 . S
C335 H328 0.950 . S
C335 C332 1.387 1_655 S
C336 C337 1.387 . S
C336 H340 0.950 . S
C336 C345 1.390 . S
C337 C336 1.387 . S
C337 C339 1.387 . S
H338 C345 0.950 . S
C339 C337 1.387 . S
C339 C341 1.390 . S
C339 H343 0.950 . S
H340 C336 0.950 . S
C341 C339 1.390 . S
C341 C342 1.387 . S
C341 H344 0.950 . S
C342 C341 1.387 . S
C342 C345 1.387 . S
H343 C339 0.950 . S
H344 C341 0.950 . S
C345 C336 1.390 . S
C345 H338 0.950 . S
C345 C342 1.387 . S
C346 C347 1.387 . S
C346 H350 0.950 . S
C346 C355 1.390 . S
C347 C346 1.387 . S
C347 C349 1.387 . S
H348 C355 0.950 . S
C349 C347 1.387 . S
C349 C351 1.390 . S
C349 H353 0.950 . S
H350 C346 0.950 . S
C351 C349 1.390 . S
C351 C352 1.387 . S
C351 H354 0.950 . S
C352 C351 1.387 . S
C352 C355 1.387 . S
H353 C349 0.950 . S
H354 C351 0.950 . S
C355 C346 1.390 . S
C355 H348 0.950 . S
C355 C352 1.387 . S
C356 C357 1.387 . S
C356 H360 0.950 . S
C356 C365 1.390 . S
C357 C356 1.387 . S
C357 C359 1.387 . S
H358 C365 0.950 . S
C359 C357 1.387 . S
C359 C361 1.390 . S
C359 H363 0.950 . S
H360 C356 0.950 . S
C361 C359 1.390 . S
C361 C362 1.387 . S
C361 H364 0.950 . S
C362 C361 1.387 . S
C362 C365 1.387 . S
H363 C359 0.950 . S
H364 C361 0.950 . S
C365 C356 1.390 . S
C365 H358 0.950 . S
C365 C362 1.387 . S
C366 C367 1.387 . S
C366 H370 0.950 . S
C366 C375 1.390 . S
C367 C366 1.387 . S
C367 C369 1.387 . S
H368 C375 0.950 . S
C369 C367 1.387 . S
C369 C371 1.390 . S
C369 H373 0.950 . S
H370 C366 0.950 . S
C371 C369 1.390 . S
C371 C372 1.387 . S
C371 H374 0.950 . S
C372 C371 1.387 . S
C372 C375 1.387 . S
H373 C369 0.950 . S
H374 C371 0.950 . S
C375 C366 1.390 . S
C375 H368 0.950 . S
C375 C372 1.387 . S
C376 C377 1.387 . S
C376 H380 0.950 . S
C376 C385 1.390 . S
C377 C376 1.387 . S
C377 C379 1.387 . S
H378 C385 0.950 . S
C379 C377 1.387 . S
C379 C381 1.390 . S
C379 H383 0.950 . S
H380 C376 0.950 . S
C381 C379 1.390 . S
C381 C382 1.387 . S
C381 H384 0.950 . S
C382 C381 1.387 . S
C382 C385 1.387 . S
H383 C379 0.950 . S
H384 C381 0.950 . S
C385 C376 1.390 . S
C385 H378 0.950 . S
C385 C382 1.387 . S
C386 C387 1.387 . S
C386 H390 0.950 . S
C386 C395 1.390 . S
C387 C386 1.387 . S
C387 C389 1.387 . S
H388 C395 0.950 . S
C389 C387 1.387 . S
C389 C391 1.390 . S
C389 H393 0.950 . S
H390 C386 0.950 . S
C391 C389 1.390 . S
C391 C392 1.387 . S
C391 H394 0.950 . S
C392 C391 1.387 . S
C392 C395 1.387 . S
H393 C389 0.950 . S
H394 C391 0.950 . S
C395 C386 1.390 . S
C395 H388 0.950 . S
C395 C392 1.387 . S
C396 C397 1.387 . S
C396 H400 0.950 . S
C396 C405 1.390 . S
C397 C396 1.387 . S
C397 C399 1.387 . S
H398 C405 0.950 . S
C399 C397 1.387 . S
C399 C401 1.390 . S
C399 H403 0.950 . S
H400 C396 0.950 . S
C401 C399 1.390 . S
C401 C402 1.387 . S
C401 H404 0.950 . S
C402 C401 1.387 . S
C402 C405 1.387 . S
H403 C399 0.950 . S
H404 C401 0.950 . S
C405 C396 1.390 . S
C405 H398 0.950 . S
C405 C402 1.387 . S
C406 C407 1.387 . S
C406 H410 0.950 . S
C406 C415 1.390 . S
C407 C406 1.387 . S
C407 C409 1.387 . S
H408 C415 0.950 . S
C409 C407 1.387 . S
C409 C411 1.390 . S
C409 H413 0.950 . S
H410 C406 0.950 . S
C411 C409 1.390 . S
C411 C412 1.387 . S
C411 H414 0.950 . S
C412 C411 1.387 . S
C412 C415 1.387 . S
H413 C409 0.950 . S
H414 C411 0.950 . S
C415 C406 1.390 . S
C415 H408 0.950 . S
C415 C412 1.387 . S
C177 C7 1.519 . S
C182 C97 1.443 . S
C187 C37 1.492 . S
C192 C108 1.390 . S
C197 C54 1.422 . S
C202 C116 1.352 . S
C212 C130 1.428 . S
C207 C87 1.440 . S
C222 C141 1.411 . S
C217 C30 1.494 . S
C227 C51 1.451 1_455 S
C232 C152 1.434 . S
C237 C84 1.455 . S
C242 C160 1.375 . S
C247 C10 1.466 . S
C252 C174 1.359 . S
C257 C59 1.386 . S
C262 C171 1.359 . S
C272 C138 1.233 . S
C267 C74 1.282 . S
C282 C149 1.366 . S
C277 C18 1.420 . S
C287 C32 1.452 . S
C292 C163 1.413 . S
C302 C105 1.353 . S
C297 C73 1.384 . S
C307 C15 1.452 1_655 S
C312 C119 1.431 . S
C322 C127 1.390 . S
C317 C43 1.433 . S
C332 C94 1.236 . S
C327 C62 1.286 . S
C342 N158 1.479 . S
C337 C21 1.524 . S
C352 N169 1.479 . S
C347 C29 1.474 . S
C357 C52 1.409 . S
C362 N136 1.397 . S
C372 N147 1.428 . S
C367 C81 1.476 . S
C382 N114 1.461 . S
C377 C40 1.498 . S
C387 C65 1.474 . S
C392 N125 1.426 . S
C402 N92 1.404 . S
C397 C76 1.416 . S
C412 N103 1.481 . S
C407 C8 1.489 . S
