# Generated by pormake.
# Topology nom, (4,4)-cn, num edge types: 1
# Building blocks:
#     Node 0, Type 0, BuildingBlock: MUDLON_clean_linker_0, # of connection points: 4
#     Node 1, Type 0, BuildingBlock: MUDLON_clean_linker_0, # of connection points: 4
#     Node 2, Type 0, BuildingBlock: MUDLON_clean_linker_0, # of connection points: 4
#     Node 3, Type 0, BuildingBlock: MUDLON_clean_linker_0, # of connection points: 4
#     Node 4, Type 0, BuildingBlock: MUDLON_clean_linker_0, # of connection points: 4
#     Node 5, Type 0, BuildingBlock: MUDLON_clean_linker_0, # of connection points: 4
#     Node 6, Type 1, BuildingBlock: NAHDIM_clean_sbu_0, # of connection points: 4
#     Node 7, Type 1, BuildingBlock: NAHDIM_clean_sbu_0, # of connection points: 4
#     Node 8, Type 1, BuildingBlock: NAHDIM_clean_sbu_0, # of connection points: 4
#     Node 9, Type 1, BuildingBlock: NAHDIM_clean_sbu_0, # of connection points: 4
#     Node 10, Type 1, BuildingBlock: NAHDIM_clean_sbu_0, # of connection points: 4
#     Node 11, Type 1, BuildingBlock: NAHDIM_clean_sbu_0, # of connection points: 4
#     Edge 12, Type (0, 1), BuildingBlock: XIVTED_clean_linker_0, # of connection points: 2
#     Edge 13, Type (0, 1), BuildingBlock: XIVTED_clean_linker_0, # of connection points: 2
#     Edge 14, Type (0, 1), BuildingBlock: XIVTED_clean_linker_0, # of connection points: 2
#     Edge 15, Type (0, 1), BuildingBlock: XIVTED_clean_linker_0, # of connection points: 2
#     Edge 16, Type (0, 1), BuildingBlock: XIVTED_clean_linker_0, # of connection points: 2
#     Edge 17, Type (0, 1), BuildingBlock: XIVTED_clean_linker_0, # of connection points: 2
#     Edge 18, Type (0, 1), BuildingBlock: XIVTED_clean_linker_0, # of connection points: 2
#     Edge 19, Type (0, 1), BuildingBlock: XIVTED_clean_linker_0, # of connection points: 2
#     Edge 20, Type (0, 1), BuildingBlock: XIVTED_clean_linker_0, # of connection points: 2
#     Edge 21, Type (0, 1), BuildingBlock: XIVTED_clean_linker_0, # of connection points: 2
#     Edge 22, Type (0, 1), BuildingBlock: XIVTED_clean_linker_0, # of connection points: 2
#     Edge 23, Type (0, 1), BuildingBlock: XIVTED_clean_linker_0, # of connection points: 2
#     Edge 24, Type (0, 1), BuildingBlock: XIVTED_clean_linker_0, # of connection points: 2
#     Edge 25, Type (0, 1), BuildingBlock: XIVTED_clean_linker_0, # of connection points: 2
#     Edge 26, Type (0, 1), BuildingBlock: XIVTED_clean_linker_0, # of connection points: 2
#     Edge 27, Type (0, 1), BuildingBlock: XIVTED_clean_linker_0, # of connection points: 2
#     Edge 28, Type (0, 1), BuildingBlock: XIVTED_clean_linker_0, # of connection points: 2
#     Edge 29, Type (0, 1), BuildingBlock: XIVTED_clean_linker_0, # of connection points: 2
#     Edge 30, Type (0, 1), BuildingBlock: XIVTED_clean_linker_0, # of connection points: 2
#     Edge 31, Type (0, 1), BuildingBlock: XIVTED_clean_linker_0, # of connection points: 2
#     Edge 32, Type (0, 1), BuildingBlock: XIVTED_clean_linker_0, # of connection points: 2
#     Edge 33, Type (0, 1), BuildingBlock: XIVTED_clean_linker_0, # of connection points: 2
#     Edge 34, Type (0, 1), BuildingBlock: XIVTED_clean_linker_0, # of connection points: 2
#     Edge 35, Type (0, 1), BuildingBlock: XIVTED_clean_linker_0, # of connection points: 2
# Relax obj value: 0.025
# Max RMSD: 0.122
# Mean RMSD: 0.105
data_MOF--net-nom--node1-NAHDIM_clean_sbu_0--node2-MUDLON_clean_linker_0--edge1-XIVTED_clean_linker_0
_symmetry_space_group_name_H-M    P1
_symmetry_Int_Tables_number       1
_symmetry_cell_setting            triclinic
loop_
_symmetry_equiv_pos_as_xyz
'x, y, z'
_cell_length_a     59.646903
_cell_length_b     62.041305
_cell_length_c     60.805598
_cell_angle_alpha  90.310878
_cell_angle_beta   90.410627
_cell_angle_gamma 121.32349
loop_
_atom_site_label
_atom_site_type_symbol
_atom_site_fract_x
_atom_site_fract_y
_atom_site_fract_z
_atom_type_partial_charge
H0 H 0.13495 0.52607 0.31077 0.0
N1 N 0.0975 0.53124 0.32825 0.0
H2 H 0.17178 0.55674 0.28861 0.0
H3 H 0.10293 0.57434 0.31079 0.0
H4 H 0.13994 0.60538 0.28897 0.0
H5 H 0.11267 0.57526 0.35059 0.0
H6 H 0.13274 0.58659 0.3871 0.0
H7 H 0.10037 0.50075 0.35702 0.0
H8 H 0.11921 0.51139 0.39419 0.0
H9 H 0.0671 0.48747 0.30821 0.0
H10 H 0.06644 0.55079 0.33681 0.0
H11 H 0.02017 0.46674 0.30016 0.0
H12 H 0.01939 0.53044 0.32842 0.0
H13 H 0.87704 0.39075 0.27966 0.0
H14 H 0.85611 0.38169 0.24321 0.0
H15 H 0.88665 0.46126 0.23432 0.0
H16 H 0.90747 0.47008 0.27074 0.0
H17 H 0.89413 0.47316 0.3065 0.0
H18 H 0.85718 0.46956 0.32697 0.0
H19 H 0.83744 0.39565 0.349 0.0
H20 H 0.8738 0.39909 0.32774 0.0
H21 H 0.94246 0.44344 0.27158 0.0
H22 H 0.98943 0.46992 0.27687 0.0
H23 H 0.97762 0.49354 0.34042 0.0
N24 N 0.90424 0.43524 0.30002 0.0
H25 H 0.93049 0.46775 0.335 0.0
C26 C 0.11636 0.54794 0.3125 0.0
C27 C 0.13569 0.54312 0.30564 0.0
C28 C 0.15675 0.56072 0.29315 0.0
C29 C 0.15893 0.58363 0.28732 0.0
C30 C 0.13873 0.58786 0.29313 0.0
C31 C 0.1176 0.57016 0.30568 0.0
C32 C 0.10541 0.5372 0.35097 0.0
C33 C 0.11379 0.56114 0.36005 0.0
C34 C 0.12514 0.56754 0.38108 0.0
C35 C 0.128 0.55004 0.39355 0.0
C36 C 0.11798 0.52558 0.38488 0.0
C37 C 0.10694 0.51933 0.36376 0.0
C38 C 0.07017 0.52053 0.32303 0.0
C39 C 0.05677 0.49697 0.3125 0.0
C40 C 0.03002 0.48528 0.3078 0.0
C41 C 0.01604 0.49702 0.3135 0.0
C42 C 0.02957 0.52085 0.32394 0.0
C43 C 0.05648 0.53257 0.32864 0.0
C44 C 0.89364 0.43095 0.27791 0.0
C45 C 0.87934 0.40618 0.26971 0.0
C46 C 0.86753 0.4011 0.24889 0.0
C47 C 0.86969 0.42077 0.23592 0.0
C48 C 0.88434 0.44568 0.24405 0.0
C49 C 0.89626 0.45076 0.26485 0.0
C50 C 0.8864 0.43613 0.31538 0.0
C51 C 0.88202 0.45634 0.31594 0.0
C52 C 0.86102 0.45433 0.32782 0.0
C53 C 0.8441 0.43213 0.33932 0.0
C54 C 0.84976 0.41278 0.33994 0.0
C55 C 0.87064 0.41477 0.32801 0.0
C56 C 0.93213 0.45401 0.30231 0.0
C57 C 0.94966 0.45493 0.28638 0.0
C58 C 0.97674 0.46987 0.28955 0.0
C59 C 0.98731 0.48382 0.30908 0.0
C60 C 0.9701 0.48337 0.32499 0.0
C61 C 0.94289 0.46849 0.32178 0.0
H62 H 0.49069 0.88716 0.48242 0.0
N63 N 0.48798 0.92434 0.46414 0.0
H64 H 0.45782 0.85345 0.50531 0.0
H65 H 0.44549 0.92329 0.48272 0.0
H66 H 0.41276 0.88994 0.50586 0.0
H67 H 0.44316 0.91566 0.44308 0.0
H68 H 0.4279 0.8971 0.40676 0.0
H69 H 0.513 0.9122 0.43539 0.0
H70 H 0.49713 0.89213 0.39926 0.0
H71 H 0.53607 0.95379 0.48008 0.0
H72 H 0.46852 0.95546 0.45689 0.0
H73 H 0.55974 0.99951 0.48604 0.0
H74 H 0.49157 0.00074 0.46336 0.0
H75 H 0.62923 0.14516 0.50901 0.0
H76 H 0.63526 0.1627 0.54626 0.0
H77 H 0.55196 0.11473 0.55725 0.0
H78 H 0.54614 0.09762 0.52 0.0
H79 H 0.5371 0.10935 0.48584 0.0
H80 H 0.52902 0.13956 0.46728 0.0
H81 H 0.60891 0.1794 0.44413 0.0
H82 H 0.61667 0.14891 0.46261 0.0
H83 H 0.58481 0.07655 0.51463 0.0
H84 H 0.56053 0.03117 0.50929 0.0
H85 H 0.52779 0.03943 0.44864 0.0
N86 N 0.58436 0.11192 0.48902 0.0
H87 H 0.55139 0.08469 0.45408 0.0
C88 C 0.47064 0.90769 0.48077 0.0
C89 C 0.47402 0.88815 0.48795 0.0
C90 C 0.45523 0.86895 0.50109 0.0
C91 C 0.43253 0.8689 0.50731 0.0
C92 C 0.42983 0.88925 0.50108 0.0
C93 C 0.4487 0.90848 0.48793 0.0
C94 C 0.4795 0.91562 0.4419 0.0
C95 C 0.45549 0.91132 0.43346 0.0
C96 C 0.44654 0.90027 0.41272 0.0
C97 C 0.46111 0.89283 0.4001 0.0
C98 C 0.48551 0.89787 0.40834 0.0
C99 C 0.49459 0.90923 0.42901 0.0
C100 C 0.50059 0.95109 0.46813 0.0
C101 C 0.52629 0.96399 0.47649 0.0
C102 C 0.53969 0.99007 0.47997 0.0
C103 C 0.52753 0.00381 0.4752 0.0
C104 C 0.50164 0.99079 0.46694 0.0
C105 C 0.48829 0.96472 0.46339 0.0
C106 C 0.58736 0.12021 0.5117 0.0
C107 C 0.61238 0.13831 0.51959 0.0
C108 C 0.61576 0.1482 0.54088 0.0
C109 C 0.59406 0.14016 0.55469 0.0
C110 C 0.56901 0.1216 0.54691 0.0
C111 C 0.56565 0.11175 0.52562 0.0
C112 C 0.57763 0.12697 0.47563 0.0
C113 C 0.55276 0.12441 0.47657 0.0
C114 C 0.54819 0.14174 0.46599 0.0
C115 C 0.56836 0.162 0.45434 0.0
C116 C 0.59282 0.16385 0.4527 0.0
C117 C 0.59736 0.14652 0.46328 0.0
C118 C 0.56884 0.08462 0.48574 0.0
C119 C 0.57185 0.06876 0.50045 0.0
C120 C 0.55824 0.04267 0.49721 0.0
C121 C 0.54183 0.03159 0.47873 0.0
C122 C 0.53959 0.04729 0.46345 0.0
C123 C 0.55315 0.07343 0.46671 0.0
H124 H 0.50589 0.63864 0.64178 0.0
N125 N 0.50195 0.59788 0.65936 0.0
H126 H 0.47417 0.64087 0.61771 0.0
H127 H 0.45835 0.55744 0.64034 0.0
H128 H 0.42663 0.55942 0.61608 0.0
H129 H 0.45572 0.56491 0.67966 0.0
H130 H 0.44277 0.56956 0.71638 0.0
H131 H 0.53135 0.6326 0.68945 0.0
H132 H 0.51872 0.6372 0.72667 0.0
H133 H 0.54699 0.61329 0.63943 0.0
H134 H 0.4819 0.54786 0.669 0.0
H135 H 0.56788 0.58906 0.63167 0.0
H136 H 0.50252 0.52344 0.66118 0.0
H137 H 0.63567 0.51996 0.60407 0.0
H138 H 0.63794 0.50553 0.56699 0.0
H139 H 0.55371 0.45547 0.56615 0.0
H140 H 0.5516 0.47024 0.60305 0.0
H141 H 0.54949 0.45883 0.64023 0.0
H142 H 0.5495 0.42375 0.65852 0.0
H143 H 0.63339 0.47029 0.66814 0.0
H144 H 0.63325 0.50528 0.6498 0.0
H145 H 0.58527 0.53322 0.60122 0.0
H146 H 0.56121 0.55412 0.60813 0.0
H147 H 0.54228 0.52237 0.67312 0.0
N148 N 0.59335 0.50372 0.62879 0.0
H149 H 0.56612 0.50109 0.66637 0.0
C150 C 0.48453 0.59801 0.6429 0.0
C151 C 0.48885 0.6213 0.63586 0.0
C152 C 0.47075 0.6225 0.62205 0.0
C153 C 0.4478 0.6003 0.61503 0.0
C154 C 0.44396 0.57686 0.62141 0.0
C155 C 0.46218 0.5757 0.6352 0.0
C156 C 0.4946 0.59855 0.68177 0.0
C157 C 0.46976 0.58057 0.68983 0.0
C158 C 0.46239 0.5832 0.71096 0.0
C159 C 0.47967 0.60382 0.72445 0.0
C160 C 0.50481 0.6213 0.71658 0.0
C161 C 0.51215 0.61863 0.69544 0.0
C162 C 0.51304 0.58255 0.65481 0.0
C163 C 0.53719 0.59366 0.64414 0.0
C164 C 0.54898 0.57974 0.63964 0.0
C165 C 0.53679 0.55429 0.64577 0.0
C166 C 0.51248 0.54307 0.65644 0.0
C167 C 0.50062 0.55703 0.66085 0.0
C168 C 0.59361 0.4961 0.60634 0.0
C169 C 0.61773 0.50609 0.59573 0.0
C170 C 0.61895 0.49788 0.57459 0.0
C171 C 0.596 0.47929 0.56375 0.0
C172 C 0.57173 0.46958 0.57425 0.0
C173 C 0.5705 0.47798 0.59532 0.0
C174 C 0.5915 0.48474 0.64362 0.0
C175 C 0.56778 0.46168 0.64673 0.0
C176 C 0.56778 0.44169 0.65728 0.0
C177 C 0.59149 0.44429 0.66453 0.0
C178 C 0.61487 0.46775 0.66254 0.0
C179 C 0.61481 0.48777 0.65224 0.0
C180 C 0.57654 0.51395 0.6326 0.0
C181 C 0.57531 0.52988 0.61677 0.0
C182 C 0.56182 0.54226 0.62083 0.0
C183 C 0.54963 0.53972 0.64109 0.0
C184 C 0.55095 0.52419 0.65713 0.0
C185 C 0.56456 0.5118 0.65311 0.0
H186 H 0.13236 0.62154 0.816 0.0
N187 N 0.09682 0.57994 0.79513 0.0
H188 H 0.16857 0.62714 0.83943 0.0
H189 H 0.10352 0.54201 0.8103 0.0
H190 H 0.13955 0.54739 0.83365 0.0
H191 H 0.10443 0.54647 0.77168 0.0
H192 H 0.12241 0.55264 0.73483 0.0
H193 H 0.10733 0.61722 0.76792 0.0
H194 H 0.12581 0.62382 0.731 0.0
H195 H 0.06666 0.59639 0.80958 0.0
H196 H 0.06492 0.52849 0.79074 0.0
H197 H 0.01965 0.57177 0.81684 0.0
H198 H 0.01824 0.50351 0.79891 0.0
H199 H 0.87164 0.49338 0.84428 0.0
H200 H 0.85306 0.47993 0.88093 0.0
H201 H 0.89728 0.44315 0.88956 0.0
H202 H 0.91548 0.45646 0.85277 0.0
H203 H 0.89466 0.43456 0.81909 0.0
H204 H 0.85928 0.39995 0.79766 0.0
H205 H 0.83656 0.45104 0.7727 0.0
H206 H 0.872 0.4855 0.79423 0.0
H207 H 0.94146 0.52058 0.84711 0.0
H208 H 0.98855 0.54268 0.84163 0.0
H209 H 0.97661 0.49493 0.78533 0.0
N210 N 0.90345 0.48237 0.82341 0.0
H211 H 0.92979 0.47211 0.79129 0.0
C212 C 0.11535 0.58151 0.8113 0.0
C213 C 0.13357 0.60523 0.8202 0.0
C214 C 0.15416 0.60834 0.83362 0.0
C215 C 0.15699 0.5877 0.83829 0.0
C216 C 0.13804 0.56368 0.83012 0.0
C217 C 0.11734 0.56058 0.81679 0.0
C218 C 0.10458 0.5815 0.77257 0.0
C219 C 0.10858 0.56318 0.76285 0.0
C220 C 0.11907 0.56683 0.74178 0.0
C221 C 0.12574 0.58881 0.73005 0.0
C222 C 0.12066 0.60657 0.73949 0.0
C223 C 0.11021 0.60291 0.76057 0.0
C224 C 0.06934 0.56438 0.79983 0.0
C225 C 0.05613 0.5761 0.80731 0.0
C226 C 0.02932 0.56194 0.81159 0.0
C227 C 0.01512 0.53556 0.80865 0.0
C228 C 0.02848 0.52378 0.80118 0.0
C229 C 0.05533 0.53806 0.79672 0.0
C230 C 0.89482 0.47593 0.84582 0.0
C231 C 0.8775 0.48267 0.85424 0.0
C232 C 0.86703 0.47505 0.87519 0.0
C233 C 0.87367 0.46044 0.88816 0.0
C234 C 0.89152 0.45411 0.87987 0.0
C235 C 0.902 0.46178 0.85889 0.0
C236 C 0.88578 0.46262 0.80834 0.0
C237 C 0.88226 0.43835 0.80882 0.0
C238 C 0.86201 0.41859 0.79658 0.0
C239 C 0.84499 0.42271 0.78362 0.0
C240 C 0.84948 0.44728 0.78232 0.0
C241 C 0.86965 0.46698 0.79462 0.0
C242 C 0.93154 0.49388 0.82028 0.0
C243 C 0.94891 0.51437 0.83387 0.0
C244 C 0.97593 0.52729 0.83053 0.0
C245 C 0.98645 0.52062 0.81302 0.0
C246 C 0.96925 0.50025 0.79927 0.0
C247 C 0.94217 0.48709 0.80275 0.0
H248 H 0.49383 0.13901 0.98248 0.0
N249 N 0.49891 0.10183 0.96706 0.0
H250 H 0.52606 0.17585 0.00394 0.0
H251 H 0.54347 0.1077 0.98669 0.0
H252 H 0.57595 0.14461 0.00783 0.0
H253 H 0.54526 0.11576 0.94659 0.0
H254 H 0.55725 0.1318 0.90946 0.0
H255 H 0.46826 0.10456 0.93668 0.0
H256 H 0.48002 0.12038 0.89906 0.0
H257 H 0.45411 0.07116 0.98691 0.0
H258 H 0.5217 0.07377 0.959 0.0
H259 H 0.4348 0.02627 0.99458 0.0
H260 H 0.50275 0.0291 0.96682 0.0
H261 H 0.36835 0.88561 0.01393 0.0
H262 H 0.36205 0.86616 0.05013 0.0
H263 H 0.44606 0.90743 0.0606 0.0
H264 H 0.45213 0.92686 0.02454 0.0
H265 H 0.46087 0.91971 0.98855 0.0
H266 H 0.46785 0.88901 0.96934 0.0
H267 H 0.38606 0.84729 0.94962 0.0
H268 H 0.37943 0.87828 0.96868 0.0
H269 H 0.41759 0.95226 0.02268 0.0
H270 H 0.44053 0.99747 0.01749 0.0
H271 H 0.46523 0.98847 0.95334 0.0
N272 N 0.41354 0.91638 0.99416 0.0
H273 H 0.4427 0.94326 0.95842 0.0
C274 C 0.51619 0.12069 0.98289 0.0
C275 C 0.51144 0.13987 0.98844 0.0
C276 C 0.52995 0.16095 0.00052 0.0
C277 C 0.5537 0.16327 0.0073 0.0
C278 C 0.55778 0.1433 0.00293 0.0
C279 C 0.53921 0.12218 0.99076 0.0
C280 C 0.50572 0.10889 0.94444 0.0
C281 C 0.53071 0.11627 0.9363 0.0
C282 C 0.53754 0.12542 0.91495 0.0
C283 C 0.51961 0.12744 0.90129 0.0
C284 C 0.49438 0.11935 0.90926 0.0
C285 C 0.48755 0.11014 0.93063 0.0
C286 C 0.48919 0.07583 0.97234 0.0
C287 C 0.46487 0.06208 0.98265 0.0
C288 C 0.45396 0.03649 0.9871 0.0
C289 C 0.46725 0.02411 0.98129 0.0
C290 C 0.4919 0.03803 0.97126 0.0
C291 C 0.50283 0.06368 0.96687 0.0
C292 C 0.41059 0.90748 0.01648 0.0
C293 C 0.38532 0.89068 0.02422 0.0
C294 C 0.38179 0.87967 0.04487 0.0
C295 C 0.40359 0.88516 0.05811 0.0
C296 C 0.42893 0.90257 0.05061 0.0
C297 C 0.43242 0.91369 0.03002 0.0
C298 C 0.41949 0.9012 0.98007 0.0
C299 C 0.44455 0.90415 0.97985 0.0
C300 C 0.44848 0.88652 0.96891 0.0
C301 C 0.42747 0.86556 0.95808 0.0
C302 C 0.40277 0.86334 0.95753 0.0
C303 C 0.39888 0.88099 0.96844 0.0
C304 C 0.4295 0.94372 0.99168 0.0
C305 C 0.42862 0.9598 0.00773 0.0
C306 C 0.44147 0.98582 0.00464 0.0
C307 C 0.45501 0.99662 0.98513 0.0
C308 C 0.4556 0.9808 0.96885 0.0
C309 C 0.4427 0.95472 0.9719 0.0
H310 H 0.50463 0.39024 0.13323 0.0
N311 N 0.50743 0.43029 0.15182 0.0
H312 H 0.53667 0.3893 0.10898 0.0
H313 H 0.54979 0.47157 0.13315 0.0
H314 H 0.58167 0.47082 0.10881 0.0
H315 H 0.55532 0.46145 0.17171 0.0
H316 H 0.56891 0.45652 0.20808 0.0
H317 H 0.47771 0.39736 0.18224 0.0
H318 H 0.49081 0.39293 0.2194 0.0
H319 H 0.46184 0.41603 0.13245 0.0
H320 H 0.5287 0.48016 0.16334 0.0
H321 H 0.44154 0.44112 0.12653 0.0
H322 H 0.50899 0.50559 0.15696 0.0
H323 H 0.37583 0.51927 0.10984 0.0
H324 H 0.3695 0.53277 0.07377 0.0
H325 H 0.45287 0.56969 0.06226 0.0
H326 H 0.45897 0.55639 0.09841 0.0
H327 H 0.46846 0.57471 0.13389 0.0
H328 H 0.47662 0.61251 0.15385 0.0
H329 H 0.39637 0.57226 0.17612 0.0
H330 H 0.38847 0.53461 0.15611 0.0
H331 H 0.42322 0.49802 0.10043 0.0
H332 H 0.44587 0.47537 0.10523 0.0
H333 H 0.47247 0.50909 0.1697 0.0
N334 N 0.42089 0.53062 0.12909 0.0
H335 H 0.45056 0.53241 0.16484 0.0
C336 C 0.52473 0.43082 0.13509 0.0
C337 C 0.52114 0.40786 0.12756 0.0
C338 C 0.53941 0.40739 0.11366 0.0
C339 C 0.56178 0.43001 0.10707 0.0
C340 C 0.56478 0.45308 0.11382 0.0
C341 C 0.54642 0.45352 0.12766 0.0
C342 C 0.51546 0.42947 0.17408 0.0
C343 C 0.54104 0.44647 0.18194 0.0
C344 C 0.54875 0.44376 0.20296 0.0
C345 C 0.53102 0.42422 0.21674 0.0
C346 C 0.50515 0.40788 0.20912 0.0
C347 C 0.49753 0.41048 0.18799 0.0
C348 C 0.49666 0.44609 0.14829 0.0
C349 C 0.47219 0.43559 0.13778 0.0
C350 C 0.46075 0.45003 0.13429 0.0
C351 C 0.47369 0.47543 0.1412 0.0
C352 C 0.49837 0.48602 0.15166 0.0
C353 C 0.50976 0.4715 0.1552 0.0
C354 C 0.41774 0.53679 0.10683 0.0
C355 C 0.39262 0.53001 0.09937 0.0
C356 C 0.38908 0.53768 0.07875 0.0
C357 C 0.41071 0.5524 0.06517 0.0
C358 C 0.43586 0.55872 0.07247 0.0
C359 C 0.43938 0.55106 0.0931 0.0
C360 C 0.42769 0.55186 0.14343 0.0
C361 C 0.45274 0.57397 0.14327 0.0
C362 C 0.45736 0.59556 0.15467 0.0
C363 C 0.4371 0.59544 0.16646 0.0
C364 C 0.4125 0.57292 0.16744 0.0
C365 C 0.40789 0.5514 0.15599 0.0
C366 C 0.43631 0.51866 0.13152 0.0
C367 C 0.43462 0.50143 0.11536 0.0
C368 C 0.44726 0.488 0.11826 0.0
C369 C 0.46128 0.49064 0.13774 0.0
C370 C 0.46249 0.50719 0.15421 0.0
C371 C 0.44993 0.52073 0.15129 0.0
C372 C 0.58125 0.32218 0.40995 0.0
O373 O 0.57386 0.33356 0.42381 0.0
O374 O 0.65115 0.38517 0.38361 0.0
Zn375 Zn 0.61325 0.37222 0.39063 0.0
O376 O 0.60959 0.38777 0.41863 0.0
C377 C 0.60841 0.39847 0.35368 0.0
O378 O 0.63302 0.41495 0.35879 0.0
O379 O 0.59686 0.33477 0.39458 0.0
C380 C 0.61346 0.40992 0.41979 0.0
O381 O 0.62063 0.42396 0.40214 0.0
C382 C 0.67172 0.40458 0.39118 0.0
O383 O 0.66961 0.41953 0.40526 0.0
O384 O 0.59581 0.3786 0.36506 0.0
C385 C 0.29022 0.69798 0.55254 0.0
O386 O 0.26624 0.68794 0.54464 0.0
O387 O 0.29566 0.63096 0.56704 0.0
Zn388 Zn 0.27311 0.64618 0.56379 0.0
O389 O 0.24974 0.63241 0.5369 0.0
C390 C 0.22969 0.6379 0.59095 0.0
O391 O 0.22236 0.64483 0.57327 0.0
O392 O 0.29707 0.68383 0.56159 0.0
C393 C 0.24292 0.61092 0.52876 0.0
O394 O 0.25171 0.59751 0.53783 0.0
C395 C 0.31651 0.63895 0.55603 0.0
O396 O 0.32294 0.65687 0.54159 0.0
O397 O 0.25075 0.63746 0.59064 0.0
C398 C 0.60204 0.29293 0.70307 0.0
O399 O 0.60884 0.2824 0.68781 0.0
O400 O 0.65047 0.28109 0.73843 0.0
Zn401 Zn 0.61195 0.26116 0.73028 0.0
O402 O 0.60568 0.23868 0.70393 0.0
C403 C 0.59614 0.22264 0.76209 0.0
O404 O 0.61343 0.21976 0.75132 0.0
O405 O 0.6009 0.28616 0.72294 0.0
C406 C 0.62134 0.23164 0.69814 0.0
O407 O 0.64265 0.2387 0.70992 0.0
C408 C 0.66756 0.29585 0.72477 0.0
O409 O 0.66001 0.29754 0.70485 0.0
O410 O 0.59169 0.23968 0.75604 0.0
C411 C 0.41759 0.70609 0.91196 0.0
O412 O 0.42832 0.69661 0.9245 0.0
O413 O 0.35081 0.63747 0.88449 0.0
Zn414 Zn 0.38929 0.65569 0.89221 0.0
O415 O 0.39504 0.64104 0.9197 0.0
C416 C 0.40408 0.6304 0.86138 0.0
O417 O 0.38644 0.61065 0.87226 0.0
O418 O 0.40119 0.6923 0.8971 0.0
C419 C 0.37872 0.61861 0.92564 0.0
O420 O 0.35749 0.60461 0.91365 0.0
C421 C 0.33551 0.641 0.89634 0.0
O422 O 0.34517 0.65604 0.9136 0.0
O423 O 0.40894 0.65219 0.86704 0.0
C424 C 0.69564 0.39494 0.0507 0.0
O425 O 0.69045 0.37865 0.03467 0.0
O426 O 0.71019 0.3475 0.05312 0.0
Zn427 Zn 0.73585 0.38407 0.06048 0.0
O428 O 0.75528 0.38881 0.08899 0.0
C429 C 0.76824 0.38708 0.02447 0.0
O430 O 0.75862 0.36326 0.02934 0.0
O431 O 0.71487 0.40084 0.06362 0.0
C432 C 0.77064 0.38071 0.09255 0.0
O433 O 0.77392 0.36772 0.07713 0.0
C434 C 0.7016 0.32863 0.06575 0.0
O435 O 0.7104 0.33189 0.0861 0.0
O436 O 0.7614 0.4 0.03572 0.0
C437 C 0.41992 0.74069 0.20887 0.0
O438 O 0.42805 0.76017 0.19587 0.0
O439 O 0.34723 0.73034 0.2345 0.0
Zn440 Zn 0.38461 0.75586 0.22662 0.0
O441 O 0.38705 0.77405 0.19862 0.0
C442 C 0.38723 0.78515 0.26418 0.0
O443 O 0.36178 0.77307 0.26057 0.0
O444 O 0.40253 0.73616 0.22308 0.0
C445 C 0.3777 0.78828 0.19679 0.0
O446 O 0.36528 0.79073 0.21347 0.0
C447 C 0.3264 0.72273 0.22316 0.0
O448 O 0.3278 0.73218 0.20359 0.0
O449 O 0.40152 0.78103 0.25153 0.0
H450 H 0.20928 0.59854 0.29838 0.0
H451 H 0.27678 0.70367 0.20568 0.0
H452 H 0.16412 0.61494 0.25317 0.0
H453 H 0.31814 0.69588 0.26069 0.0
H454 H 0.23532 0.66961 0.22068 0.0
H455 H 0.24947 0.63217 0.28228 0.0
C456 C 0.20782 0.60908 0.28487 0.0
C457 C 0.18329 0.60378 0.27699 0.0
C458 C 0.25351 0.67547 0.22943 0.0
C459 C 0.22944 0.64276 0.25862 0.0
C460 C 0.27716 0.69485 0.22088 0.0
C461 C 0.30099 0.70263 0.23192 0.0
C462 C 0.25381 0.6637 0.24902 0.0
C463 C 0.30031 0.69057 0.25158 0.0
C464 C 0.23082 0.62846 0.2758 0.0
C465 C 0.18265 0.61848 0.25978 0.0
N466 N 0.27717 0.6717 0.25942 0.0
N467 N 0.20543 0.63729 0.25109 0.0
H468 H 0.54305 0.18355 0.47334 0.0
H469 H 0.59372 0.29329 0.38469 0.0
H470 H 0.58571 0.18691 0.41513 0.0
H471 H 0.55269 0.29094 0.44369 0.0
H472 H 0.58613 0.25165 0.39325 0.0
H473 H 0.54138 0.21983 0.46035 0.0
C474 C 0.55168 0.19163 0.45763 0.0
C475 C 0.56471 0.18223 0.44538 0.0
C476 C 0.57858 0.26012 0.40424 0.0
C477 C 0.56328 0.22417 0.43059 0.0
C478 C 0.58288 0.28392 0.39935 0.0
C479 C 0.57409 0.29579 0.41363 0.0
C480 C 0.56546 0.24807 0.4236 0.0
C481 C 0.56 0.28262 0.43229 0.0
C482 C 0.55089 0.2125 0.4503 0.0
C483 C 0.57587 0.19378 0.4253 0.0
N484 N 0.55634 0.25958 0.43684 0.0
N485 N 0.57506 0.21424 0.41863 0.0
H486 H 0.39463 0.57234 0.62087 0.0
H487 H 0.3655 0.65598 0.53943 0.0
H488 H 0.45385 0.63211 0.58125 0.0
H489 H 0.30866 0.60128 0.58405 0.0
H490 H 0.39651 0.64342 0.55063 0.0
H491 H 0.36138 0.57842 0.60339 0.0
C492 C 0.4006 0.58646 0.60822 0.0
C493 C 0.42713 0.60186 0.60264 0.0
C494 C 0.37718 0.63403 0.55783 0.0
C495 C 0.38915 0.60923 0.58281 0.0
C496 C 0.35943 0.64116 0.55142 0.0
C497 C 0.33453 0.62986 0.56099 0.0
C498 C 0.36996 0.61544 0.57391 0.0
C499 C 0.32773 0.61069 0.57638 0.0
C500 C 0.38161 0.59006 0.59836 0.0
C501 C 0.4337 0.62009 0.58633 0.0
N502 N 0.3454 0.60421 0.58246 0.0
N503 N 0.41487 0.62339 0.5771 0.0
H504 H 0.81119 0.37638 0.80097 0.0
H505 H 0.70804 0.33294 0.70117 0.0
H506 H 0.8245 0.42033 0.74244 0.0
H507 H 0.6905 0.29572 0.76395 0.0
H508 H 0.75313 0.36162 0.71379 0.0
H509 H 0.7696 0.34308 0.78519 0.0
C510 C 0.80559 0.37885 0.78463 0.0
C511 C 0.8213 0.40125 0.77305 0.0
C512 C 0.73945 0.34708 0.72475 0.0
C513 C 0.77344 0.36334 0.75504 0.0
C514 C 0.7137 0.33066 0.71755 0.0
C515 C 0.69537 0.31205 0.73161 0.0
C516 C 0.74699 0.34483 0.74614 0.0
C517 C 0.70389 0.30993 0.75262 0.0
C518 C 0.78171 0.35991 0.77571 0.0
C519 C 0.81282 0.40353 0.75207 0.0
N520 N 0.72904 0.32621 0.75929 0.0
N521 N 0.7894 0.38488 0.74378 0.0
H522 H 0.45523 0.8457 0.97568 0.0
H523 H 0.39841 0.73124 0.88928 0.0
H524 H 0.40652 0.83822 0.9198 0.0
H525 H 0.44845 0.73958 0.94439 0.0
H526 H 0.4043 0.77226 0.89835 0.0
H527 H 0.45646 0.80914 0.96247 0.0
C528 C 0.44514 0.83665 0.96042 0.0
C529 C 0.43062 0.84502 0.94891 0.0
C530 C 0.41416 0.76522 0.90837 0.0
C531 C 0.43153 0.80272 0.9339 0.0
C532 C 0.4108 0.74177 0.9032 0.0
C533 C 0.42278 0.73182 0.9162 0.0
C534 C 0.42952 0.77885 0.92675 0.0
C535 C 0.43872 0.74641 0.93398 0.0
C536 C 0.44569 0.81561 0.95298 0.0
C537 C 0.4176 0.8322 0.92943 0.0
N538 N 0.44146 0.76909 0.93882 0.0
N539 N 0.41822 0.81161 0.92263 0.0
H540 H 0.61475 0.45908 0.11435 0.0
H541 H 0.64838 0.38014 0.03075 0.0
H542 H 0.55701 0.39914 0.07248 0.0
H543 H 0.70185 0.4306 0.08089 0.0
H544 H 0.6169 0.39227 0.04119 0.0
H545 H 0.64894 0.45439 0.09736 0.0
C546 C 0.6093 0.44523 0.10129 0.0
C547 C 0.58293 0.42936 0.09493 0.0
C548 C 0.63562 0.40084 0.04977 0.0
C549 C 0.62198 0.42361 0.07566 0.0
C550 C 0.65364 0.39398 0.04378 0.0
C551 C 0.67768 0.40415 0.05514 0.0
C552 C 0.64171 0.41807 0.06717 0.0
C553 C 0.68345 0.42208 0.07184 0.0
C554 C 0.62883 0.44242 0.09173 0.0
C555 C 0.57703 0.41151 0.07812 0.0
N556 N 0.66552 0.42833 0.07744 0.0
N557 N 0.59638 0.409 0.06917 0.0
H558 H 0.43583 0.84046 0.54026 0.0
H559 H 0.28369 0.73312 0.53105 0.0
H560 H 0.3797 0.84597 0.49922 0.0
H561 H 0.34138 0.72463 0.56684 0.0
H562 H 0.31738 0.77687 0.52344 0.0
H563 H 0.40025 0.80044 0.55437 0.0
C564 C 0.416 0.83337 0.53434 0.0
C565 C 0.41082 0.84652 0.51837 0.0
C566 C 0.32262 0.76549 0.5331 0.0
C567 C 0.36996 0.80071 0.53448 0.0
C568 C 0.30338 0.7405 0.53747 0.0
C569 C 0.30977 0.72508 0.54941 0.0
C570 C 0.34845 0.77515 0.54072 0.0
C571 C 0.33559 0.73573 0.55741 0.0
C572 C 0.39568 0.81054 0.54244 0.0
C573 C 0.38464 0.83663 0.51162 0.0
N574 N 0.35401 0.76004 0.55279 0.0
N575 N 0.36526 0.81422 0.51955 0.0
H576 H 0.56062 0.40848 0.69497 0.0
H577 H 0.61528 0.31926 0.66488 0.0
H578 H 0.62395 0.42905 0.64984 0.0
H579 H 0.58086 0.31495 0.72815 0.0
H580 H 0.61196 0.35578 0.65613 0.0
H581 H 0.56183 0.37062 0.70485 0.0
C582 C 0.57479 0.40505 0.68724 0.0
C583 C 0.59237 0.42196 0.67172 0.0
C584 C 0.60508 0.34682 0.67192 0.0
C585 C 0.59351 0.37879 0.68254 0.0
C586 C 0.60682 0.32586 0.67689 0.0
C587 C 0.59842 0.31407 0.69732 0.0
C588 C 0.59454 0.35596 0.68733 0.0
C589 C 0.58768 0.32357 0.71224 0.0
C590 C 0.57552 0.38357 0.6929 0.0
C591 C 0.61033 0.41669 0.66212 0.0
N592 N 0.58597 0.34397 0.70693 0.0
N593 N 0.6103 0.3955 0.66756 0.0
H594 H 0.18107 0.61701 0.87495 0.0
H595 H 0.30843 0.60671 0.86331 0.0
H596 H 0.1874 0.56804 0.82806 0.0
H597 H 0.29896 0.64934 0.9149 0.0
H598 H 0.26313 0.59046 0.8515 0.0
H599 H 0.22314 0.62722 0.89124 0.0
C600 C 0.19123 0.60826 0.8682 0.0
C601 C 0.18078 0.59176 0.85005 0.0
C602 C 0.27088 0.60322 0.86551 0.0
C603 C 0.22897 0.60342 0.86852 0.0
C604 C 0.29678 0.61255 0.87224 0.0
C605 C 0.30758 0.62959 0.89 0.0
C606 C 0.25571 0.61113 0.87651 0.0
C607 C 0.2915 0.63634 0.90105 0.0
C608 C 0.2152 0.61403 0.87754 0.0
C609 C 0.19461 0.58071 0.84213 0.0
N610 N 0.26644 0.62727 0.894 0.0
N611 N 0.2181 0.58693 0.85127 0.0
H612 H 0.56977 0.21079 0.99357 0.0
H613 H 0.68059 0.2827 0.08623 0.0
H614 H 0.58653 0.17077 0.04247 0.0
H615 H 0.67433 0.31742 0.027 0.0
H616 H 0.64433 0.24184 0.07268 0.0
H617 H 0.6057 0.25052 0.00823 0.0
C618 C 0.58085 0.21038 0.00759 0.0
C619 C 0.57501 0.18742 0.01692 0.0
C620 C 0.65103 0.25844 0.06268 0.0
C621 C 0.61661 0.23301 0.03364 0.0
C622 C 0.67167 0.28174 0.07039 0.0
C623 C 0.68051 0.30353 0.05774 0.0
C624 C 0.63902 0.25705 0.04232 0.0
C625 C 0.66825 0.30117 0.03733 0.0
C626 C 0.60156 0.23309 0.01583 0.0
C627 C 0.59045 0.18806 0.03476 0.0
N628 N 0.64811 0.27843 0.03034 0.0
N629 N 0.61054 0.21053 0.04262 0.0
H630 H 0.41988 0.60216 0.20619 0.0
H631 H 0.45224 0.74084 0.17687 0.0
H632 H 0.46203 0.64254 0.14838 0.0
H633 H 0.40698 0.69876 0.23298 0.0
H634 H 0.46167 0.70764 0.16909 0.0
H635 H 0.42055 0.63986 0.21909 0.0
C636 C 0.42948 0.61903 0.19631 0.0
C637 C 0.44067 0.6191 0.17607 0.0
C638 C 0.4499 0.70581 0.18323 0.0
C639 C 0.44149 0.66234 0.1907 0.0
C640 C 0.44453 0.72478 0.18771 0.0
C641 C 0.4285 0.72243 0.20544 0.0
C642 C 0.43912 0.68432 0.19656 0.0
C643 C 0.41919 0.70125 0.21898 0.0
C644 C 0.42992 0.64058 0.2037 0.0
C645 C 0.45327 0.64164 0.16413 0.0
N646 N 0.42443 0.68293 0.21414 0.0
N647 N 0.45307 0.66225 0.17151 0.0
H648 H 0.79572 0.38926 0.33711 0.0
H649 H 0.72047 0.44593 0.40094 0.0
H650 H 0.83557 0.46567 0.36236 0.0
H651 H 0.6824 0.37454 0.36604 0.0
H652 H 0.76318 0.45303 0.38949 0.0
H653 H 0.7545 0.38281 0.3507 0.0
C654 C 0.79589 0.40463 0.3458 0.0
C655 C 0.81925 0.42801 0.34872 0.0
C656 C 0.74543 0.43584 0.38437 0.0
C657 C 0.7717 0.42087 0.364 0.0
C658 C 0.72107 0.43176 0.3909 0.0
C659 C 0.6978 0.40961 0.38442 0.0
C660 C 0.74646 0.41755 0.37143 0.0
C661 C 0.69975 0.39193 0.3714 0.0
C662 C 0.77222 0.401 0.35338 0.0
C663 C 0.81801 0.44739 0.35964 0.0
N664 N 0.7236 0.39627 0.3654 0.0
N665 N 0.79461 0.44339 0.36691 0.0
H666 H 0.12907 0.5821 0.42573 0.0
H667 H 0.23005 0.56926 0.50363 0.0
H668 H 0.16155 0.53595 0.40968 0.0
H669 H 0.21499 0.62995 0.50993 0.0
H670 H 0.20067 0.55333 0.47161 0.0
H671 H 0.1563 0.59652 0.45912 0.0
C672 C 0.14186 0.57496 0.42918 0.0
C673 C 0.14294 0.55775 0.41475 0.0
C674 C 0.2038 0.57014 0.48 0.0
C675 C 0.1739 0.57397 0.45314 0.0
C676 C 0.22054 0.57922 0.49831 0.0
C677 C 0.22507 0.60103 0.50943 0.0
C678 C 0.19129 0.58281 0.47285 0.0
C679 C 0.21218 0.61315 0.50178 0.0
C680 C 0.15734 0.58315 0.44829 0.0
C681 C 0.15961 0.54886 0.42039 0.0
N682 N 0.19583 0.60384 0.48398 0.0
N683 N 0.1744 0.55708 0.43909 0.0
H684 H 0.63329 0.15271 0.58517 0.0
H685 H 0.57959 0.21446 0.66967 0.0
H686 H 0.56257 0.15437 0.5745 0.0
H687 H 0.65111 0.2142 0.68029 0.0
H688 H 0.57207 0.1907 0.63553 0.0
H689 H 0.63933 0.1737 0.62076 0.0
C690 C 0.61904 0.15749 0.5903 0.0
C691 C 0.59741 0.1518 0.5768 0.0
C692 C 0.58937 0.19576 0.64535 0.0
C693 C 0.60411 0.17568 0.61757 0.0
C694 C 0.59368 0.20933 0.66488 0.0
C695 C 0.61607 0.21642 0.67784 0.0
C696 C 0.60759 0.18922 0.63868 0.0
C697 C 0.63361 0.2092 0.67079 0.0
C698 C 0.62243 0.16937 0.61067 0.0
C699 C 0.57936 0.1581 0.58446 0.0
N700 N 0.62904 0.19606 0.65165 0.0
N701 N 0.58317 0.16978 0.60427 0.0
H702 H 0.45026 0.56839 0.75545 0.0
H703 H 0.44034 0.66691 0.8343 0.0
H704 H 0.48884 0.64821 0.74273 0.0
H705 H 0.3982 0.58652 0.84507 0.0
H706 H 0.46079 0.6608 0.8021 0.0
H707 H 0.43341 0.57503 0.78972 0.0
C708 C 0.45523 0.58732 0.75988 0.0
C709 C 0.47091 0.60775 0.74612 0.0
C710 C 0.44714 0.64451 0.81155 0.0
C711 C 0.4518 0.61552 0.78542 0.0
C712 C 0.43545 0.64798 0.82995 0.0
C713 C 0.41742 0.62718 0.84235 0.0
C714 C 0.44076 0.62005 0.80548 0.0
C715 C 0.4119 0.6031 0.83595 0.0
C716 C 0.44568 0.59112 0.77949 0.0
C717 C 0.47707 0.63193 0.7529 0.0
N718 N 0.42346 0.6002 0.81793 0.0
N719 N 0.46739 0.63512 0.772 0.0
H720 H 0.86349 0.48563 0.92 0.0
H721 H 0.78585 0.36447 0.99652 0.0
H722 H 0.85487 0.41348 0.90552 0.0
H723 H 0.79122 0.43552 0.00942 0.0
H724 H 0.8138 0.38303 0.96455 0.0
H725 H 0.83969 0.46851 0.95421 0.0
C726 C 0.85663 0.4662 0.92403 0.0
C727 C 0.86107 0.45093 0.90979 0.0
C728 C 0.80895 0.39459 0.97441 0.0
C729 C 0.83391 0.43124 0.94901 0.0
C730 C 0.79298 0.38401 0.99269 0.0
C731 C 0.78605 0.39842 0.00561 0.0
C732 C 0.81808 0.41979 0.96898 0.0
C733 C 0.79596 0.42367 -0.00012 0.0
C734 C 0.84313 0.45646 0.94361 0.0
C735 C 0.85213 0.42602 0.91607 0.0
N736 N 0.81139 0.43352 0.98194 0.0
N737 N 0.83885 0.41691 0.93514 0.0
H738 H 0.36782 0.87568 0.09044 0.0
H739 H 0.40761 0.79221 0.16141 0.0
H740 H 0.43085 0.86396 0.07348 0.0
H741 H 0.35625 0.81654 0.18544 0.0
H742 H 0.41414 0.81622 0.12795 0.0
H743 H 0.36119 0.85203 0.12435 0.0
C744 C 0.38026 0.86814 0.09387 0.0
C745 C 0.39995 0.87183 0.07916 0.0
C746 C 0.40146 0.81634 0.14054 0.0
C747 C 0.39246 0.84475 0.11781 0.0
C748 C 0.39764 0.80255 0.15964 0.0
C749 C 0.38137 0.80238 0.17628 0.0
C750 C 0.38877 0.82993 0.13795 0.0
C751 C 0.36902 0.81619 0.17307 0.0
C752 C 0.37654 0.85474 0.11324 0.0
C753 C 0.41566 0.86183 0.08449 0.0
N754 N 0.37293 0.82937 0.15424 0.0
N755 N 0.41149 0.84865 0.10332 0.0
H756 H 0.5169 0.37934 0.23675 0.0
H757 H 0.62619 0.44213 0.33082 0.0
H758 H 0.56575 0.46002 0.24633 0.0
H759 H 0.56181 0.36482 0.33328 0.0
H760 H 0.60568 0.44872 0.29871 0.0
H761 H 0.53395 0.37326 0.27123 0.0
C762 C 0.53093 0.39581 0.2462 0.0
C763 C 0.53993 0.42027 0.23847 0.0
C764 C 0.59596 0.43036 0.30636 0.0
C765 C 0.56003 0.41334 0.27778 0.0
C766 C 0.60771 0.42654 0.32463 0.0
C767 C 0.59573 0.40286 0.33469 0.0
C768 C 0.57223 0.41025 0.29789 0.0
C769 C 0.57172 0.38339 0.32603 0.0
C770 C 0.54078 0.39229 0.26584 0.0
C771 C 0.55858 0.44082 0.25133 0.0
N772 N 0.56086 0.38746 0.30801 0.0
N773 N 0.56814 0.43688 0.27024 0.0
H774 H 0.40994 0.85684 0.39064 0.0
H775 H 0.43938 0.81681 0.27463 0.0
H776 H 0.4871 0.89544 0.36193 0.0
H777 H 0.36146 0.79322 0.29707 0.0
H778 H 0.45773 0.84449 0.30701 0.0
H779 H 0.39222 0.83228 0.3569 0.0
C780 C 0.42316 0.86045 0.37715 0.0
C781 C 0.4501 0.87844 0.37918 0.0
C782 C 0.43663 0.83334 0.30475 0.0
C783 C 0.42988 0.84972 0.34052 0.0
C784 C 0.42614 0.81749 0.28632 0.0
C785 C 0.39884 0.80261 0.28318 0.0
C786 C 0.41967 0.83409 0.32022 0.0
C787 C 0.38262 0.80432 0.29881 0.0
C788 C 0.41301 0.84624 0.3579 0.0
C789 C 0.46627 0.88162 0.36125 0.0
N790 N 0.39328 0.81964 0.3167 0.0
N791 N 0.45593 0.86732 0.3427 0.0
H792 H 0.62409 0.50615 0.52798 0.0
H793 H 0.5918 0.38396 0.4577 0.0
H794 H 0.57168 0.4301 0.54996 0.0
H795 H 0.62736 0.45841 0.4299 0.0
H796 H 0.58659 0.40081 0.49243 0.0
H797 H 0.62784 0.48931 0.4926 0.0
C798 C 0.61337 0.48591 0.52533 0.0
C799 C 0.59755 0.46948 0.5419 0.0
C800 C 0.59546 0.41344 0.47871 0.0
C801 C 0.60179 0.45009 0.50157 0.0
C802 C 0.59853 0.40386 0.4589 0.0
C803 C 0.61007 0.41982 0.44087 0.0
C804 C 0.60422 0.43921 0.4806 0.0
C805 C 0.61833 0.44542 0.44336 0.0
C806 C 0.61541 0.47632 0.50513 0.0
C807 C 0.58388 0.44343 0.53755 0.0
N808 N 0.61536 0.45435 0.46289 0.0
N809 N 0.58644 0.43453 0.51785 0.0
H810 H 0.16545 0.58114 0.71915 0.0
H811 H 0.18491 0.63887 0.59846 0.0
H812 H 0.11789 0.60883 0.69262 0.0
H813 H 0.23729 0.61904 0.62894 0.0
H814 H 0.15831 0.62561 0.63172 0.0
H815 H 0.18978 0.59198 0.68489 0.0
C816 C 0.1599 0.58923 0.706 0.0
C817 C 0.13955 0.59405 0.70876 0.0
C818 C 0.17563 0.62417 0.6311 0.0
C819 C 0.16769 0.60693 0.66953 0.0
C820 C 0.19082 0.63174 0.61212 0.0
C821 C 0.21341 0.63013 0.61092 0.0
C822 C 0.18302 0.61483 0.64895 0.0
C823 C 0.2201 0.62071 0.62913 0.0
C824 C 0.17397 0.59563 0.6865 0.0
C825 C 0.13359 0.60502 0.69128 0.0
N826 N 0.20497 0.61341 0.64736 0.0
N827 N 0.14761 0.61111 0.67241 0.0
H828 H 0.50899 0.16105 0.88196 0.0
H829 H 0.60095 0.18435 0.77862 0.0
H830 H 0.54917 0.12091 0.87062 0.0
H831 H 0.56085 0.22467 0.78949 0.0
H832 H 0.58012 0.15931 0.8112 0.0
H833 H 0.52536 0.18255 0.84696 0.0
C834 C 0.52097 0.1565 0.87199 0.0
C835 C 0.52779 0.13919 0.8793 0.0
C836 C 0.57578 0.17356 0.80644 0.0
C837 C 0.54695 0.16407 0.83934 0.0
C838 C 0.58769 0.1879 0.78781 0.0
C839 C 0.58276 0.20675 0.78136 0.0
C840 C 0.55881 0.17809 0.81879 0.0
C841 C 0.5653 0.2104 0.7939 0.0
C842 C 0.53047 0.16893 0.85207 0.0
C843 C 0.54373 0.13437 0.86581 0.0
N844 N 0.55404 0.19627 0.81207 0.0
N845 N 0.55284 0.14681 0.84655 0.0
H846 H 0.44181 0.59927 0.04747 0.0
H847 H 0.34846 0.57122 0.94247 0.0
H848 H 0.37129 0.52733 0.03444 0.0
H849 H 0.42014 0.6425 0.95464 0.0
H850 H 0.35678 0.55463 0.97584 0.0
H851 H 0.43474 0.61511 0.01308 0.0
C852 C 0.42497 0.58671 0.03727 0.0
C853 C 0.40712 0.56191 0.04387 0.0
C854 C 0.37071 0.57389 0.97121 0.0
C855 C 0.39867 0.58008 0.00459 0.0
C856 C 0.36596 0.5834 0.95215 0.0
C857 C 0.38361 0.60831 0.94576 0.0
C858 C 0.39326 0.58941 0.98401 0.0
C859 C 0.40598 0.62319 0.95894 0.0
C860 C 0.42084 0.59583 0.0177 0.0
C861 C 0.38538 0.54666 0.03015 0.0
N862 N 0.41014 0.61352 0.97745 0.0
N863 N 0.38176 0.55601 0.01119 0.0
H864 H 0.8664 0.38807 0.20371 0.0
H865 H 0.7711 0.41012 0.12643 0.0
H866 H 0.84164 0.44054 0.21895 0.0
H867 H 0.80326 0.36469 0.10694 0.0
H868 H 0.79563 0.42017 0.161 0.0
H869 H 0.84232 0.37806 0.16873 0.0
C870 C 0.85587 0.39746 0.1997 0.0
C871 C 0.85603 0.41517 0.21427 0.0
C872 C 0.79736 0.40802 0.14918 0.0
C873 C 0.82849 0.40385 0.17427 0.0
C874 C 0.78329 0.4022 0.12942 0.0
C875 C 0.78512 0.38652 0.11373 0.0
C876 C 0.81333 0.39802 0.15338 0.0
C877 C 0.80127 0.37687 0.11854 0.0
C878 C 0.84224 0.39182 0.1797 0.0
C879 C 0.84231 0.42699 0.20812 0.0
N880 N 0.81474 0.38275 0.13796 0.0
N881 N 0.82903 0.42105 0.18864 0.0
loop_
_geom_bond_atom_site_label_1
_geom_bond_atom_site_label_2
_geom_bond_distance
_geom_bond_site_symmetry_2
_ccdc_geom_bond_type
H0 C27 0.929 . S
N1 C26 1.433 . S
N1 C32 1.435 . S
N1 C38 1.423 . S
H2 C28 0.930 . S
H3 C31 0.931 . S
H4 C30 0.929 . S
H5 C33 0.930 . S
H6 C34 0.932 . S
H7 C37 0.929 . S
H8 C36 0.931 . S
H9 C39 0.929 . S
H10 C43 0.932 . S
H11 C40 0.931 . S
H12 C42 0.929 . S
H13 C45 0.929 . S
H14 C46 0.930 . S
H15 C48 0.929 . S
H16 C49 0.931 . S
H17 C51 0.930 . S
H18 C52 0.932 . S
H19 C54 0.931 . S
H20 C55 0.929 . S
H21 C57 0.929 . S
H22 C58 0.931 . S
H23 C60 0.929 . S
N24 C44 1.433 . S
N24 C50 1.435 . S
N24 C56 1.423 . S
H25 C61 0.932 . S
C26 N1 1.433 . S
C26 C27 1.363 . S
C26 C31 1.370 . S
C27 H0 0.929 . S
C27 C26 1.363 . S
C27 C28 1.385 . S
C28 H2 0.930 . S
C28 C27 1.385 . S
C28 C29 1.357 . S
C29 C28 1.357 . S
C29 C30 1.406 . S
C30 H4 0.929 . S
C30 C29 1.406 . S
C30 C31 1.391 . S
C31 H3 0.931 . S
C31 C26 1.370 . S
C31 C30 1.391 . S
C32 N1 1.435 . S
C32 C33 1.358 . S
C32 C37 1.371 . S
C33 H5 0.930 . S
C33 C32 1.358 . S
C33 C34 1.405 . S
C34 H6 0.932 . S
C34 C33 1.405 . S
C34 C35 1.383 . S
C35 C34 1.383 . S
C35 C36 1.393 . S
C36 H8 0.931 . S
C36 C35 1.393 . S
C36 C37 1.382 . S
C37 H7 0.929 . S
C37 C32 1.371 . S
C37 C36 1.382 . S
C38 N1 1.423 . S
C38 C39 1.362 . S
C38 C43 1.388 . S
C39 H9 0.929 . S
C39 C38 1.362 . S
C39 C40 1.376 . S
C40 H11 0.931 . S
C40 C39 1.376 . S
C40 C41 1.396 . S
C41 C40 1.396 . S
C41 C42 1.348 . S
C41 C59 1.472 1_455 S
C42 H12 0.929 . S
C42 C41 1.348 . S
C42 C43 1.443 . S
C43 H10 0.932 . S
C43 C38 1.388 . S
C43 C42 1.443 . S
C44 N24 1.433 . S
C44 C45 1.363 . S
C44 C49 1.370 . S
C45 H13 0.929 . S
C45 C44 1.363 . S
C45 C46 1.385 . S
C46 H14 0.930 . S
C46 C45 1.385 . S
C46 C47 1.357 . S
C47 C46 1.357 . S
C47 C48 1.406 . S
C48 H15 0.929 . S
C48 C47 1.406 . S
C48 C49 1.391 . S
C49 H16 0.931 . S
C49 C44 1.370 . S
C49 C48 1.391 . S
C50 N24 1.435 . S
C50 C51 1.358 . S
C50 C55 1.371 . S
C51 H17 0.930 . S
C51 C50 1.358 . S
C51 C52 1.405 . S
C52 H18 0.932 . S
C52 C51 1.405 . S
C52 C53 1.383 . S
C53 C52 1.383 . S
C53 C54 1.393 . S
C54 H19 0.931 . S
C54 C53 1.393 . S
C54 C55 1.382 . S
C55 H20 0.929 . S
C55 C50 1.371 . S
C55 C54 1.382 . S
C56 N24 1.423 . S
C56 C57 1.362 . S
C56 C61 1.388 . S
C57 H21 0.929 . S
C57 C56 1.362 . S
C57 C58 1.376 . S
C58 H22 0.931 . S
C58 C57 1.376 . S
C58 C59 1.396 . S
C59 C41 1.472 1_655 S
C59 C58 1.396 . S
C59 C60 1.348 . S
C60 H23 0.929 . S
C60 C59 1.348 . S
C60 C61 1.443 . S
C61 H25 0.932 . S
C61 C56 1.388 . S
C61 C60 1.443 . S
H62 C89 0.929 . S
N63 C88 1.433 . S
N63 C94 1.435 . S
N63 C100 1.423 . S
H64 C90 0.930 . S
H65 C93 0.931 . S
H66 C92 0.929 . S
H67 C95 0.930 . S
H68 C96 0.932 . S
H69 C99 0.929 . S
H70 C98 0.931 . S
H71 C101 0.929 . S
H72 C105 0.932 . S
H73 C102 0.931 . S
H74 C104 0.929 1_545 S
H75 C107 0.929 . S
H76 C108 0.930 . S
H77 C110 0.929 . S
H78 C111 0.931 . S
H79 C113 0.930 . S
H80 C114 0.932 . S
H81 C116 0.931 . S
H82 C117 0.929 . S
H83 C119 0.929 . S
H84 C120 0.931 . S
H85 C122 0.929 . S
N86 C106 1.433 . S
N86 C112 1.435 . S
N86 C118 1.423 . S
H87 C123 0.932 . S
C88 N63 1.433 . S
C88 C89 1.363 . S
C88 C93 1.370 . S
C89 H62 0.929 . S
C89 C88 1.363 . S
C89 C90 1.385 . S
C90 H64 0.930 . S
C90 C89 1.385 . S
C90 C91 1.357 . S
C91 C90 1.357 . S
C91 C92 1.406 . S
C92 H66 0.929 . S
C92 C91 1.406 . S
C92 C93 1.391 . S
C93 H65 0.931 . S
C93 C88 1.370 . S
C93 C92 1.391 . S
C94 N63 1.435 . S
C94 C95 1.358 . S
C94 C99 1.371 . S
C95 H67 0.930 . S
C95 C94 1.358 . S
C95 C96 1.405 . S
C96 H68 0.932 . S
C96 C95 1.405 . S
C96 C97 1.383 . S
C97 C96 1.383 . S
C97 C98 1.393 . S
C98 H70 0.931 . S
C98 C97 1.393 . S
C98 C99 1.382 . S
C99 H69 0.929 . S
C99 C94 1.371 . S
C99 C98 1.382 . S
C100 N63 1.423 . S
C100 C101 1.362 . S
C100 C105 1.388 . S
C101 H71 0.929 . S
C101 C100 1.362 . S
C101 C102 1.376 . S
C102 H73 0.931 . S
C102 C101 1.376 . S
C102 C103 1.396 1_565 S
C103 C102 1.396 1_545 S
C103 C104 1.348 1_545 S
C103 C121 1.472 . S
C104 H74 0.929 1_565 S
C104 C103 1.348 1_565 S
C104 C105 1.443 . S
C105 H72 0.932 . S
C105 C100 1.388 . S
C105 C104 1.443 . S
C106 N86 1.433 . S
C106 C107 1.363 . S
C106 C111 1.370 . S
C107 H75 0.929 . S
C107 C106 1.363 . S
C107 C108 1.385 . S
C108 H76 0.930 . S
C108 C107 1.385 . S
C108 C109 1.357 . S
C109 C108 1.357 . S
C109 C110 1.406 . S
C110 H77 0.929 . S
C110 C109 1.406 . S
C110 C111 1.391 . S
C111 H78 0.931 . S
C111 C106 1.370 . S
C111 C110 1.391 . S
C112 N86 1.435 . S
C112 C113 1.358 . S
C112 C117 1.371 . S
C113 H79 0.930 . S
C113 C112 1.358 . S
C113 C114 1.405 . S
C114 H80 0.932 . S
C114 C113 1.405 . S
C114 C115 1.383 . S
C115 C114 1.383 . S
C115 C116 1.393 . S
C116 H81 0.931 . S
C116 C115 1.393 . S
C116 C117 1.382 . S
C117 H82 0.929 . S
C117 C112 1.371 . S
C117 C116 1.382 . S
C118 N86 1.423 . S
C118 C119 1.362 . S
C118 C123 1.388 . S
C119 H83 0.929 . S
C119 C118 1.362 . S
C119 C120 1.376 . S
C120 H84 0.931 . S
C120 C119 1.376 . S
C120 C121 1.396 . S
C121 C103 1.472 . S
C121 C120 1.396 . S
C121 C122 1.348 . S
C122 H85 0.929 . S
C122 C121 1.348 . S
C122 C123 1.443 . S
C123 H87 0.932 . S
C123 C118 1.388 . S
C123 C122 1.443 . S
H124 C151 0.929 . S
N125 C150 1.433 . S
N125 C156 1.435 . S
N125 C162 1.423 . S
H126 C152 0.930 . S
H127 C155 0.931 . S
H128 C154 0.929 . S
H129 C157 0.930 . S
H130 C158 0.932 . S
H131 C161 0.929 . S
H132 C160 0.931 . S
H133 C163 0.929 . S
H134 C167 0.932 . S
H135 C164 0.931 . S
H136 C166 0.929 . S
H137 C169 0.929 . S
H138 C170 0.930 . S
H139 C172 0.929 . S
H140 C173 0.931 . S
H141 C175 0.930 . S
H142 C176 0.932 . S
H143 C178 0.931 . S
H144 C179 0.929 . S
H145 C181 0.929 . S
H146 C182 0.931 . S
H147 C184 0.929 . S
N148 C168 1.433 . S
N148 C174 1.435 . S
N148 C180 1.423 . S
H149 C185 0.932 . S
C150 N125 1.433 . S
C150 C151 1.363 . S
C150 C155 1.370 . S
C151 H124 0.929 . S
C151 C150 1.363 . S
C151 C152 1.385 . S
C152 H126 0.930 . S
C152 C151 1.385 . S
C152 C153 1.357 . S
C153 C152 1.357 . S
C153 C154 1.406 . S
C154 H128 0.929 . S
C154 C153 1.406 . S
C154 C155 1.391 . S
C155 H127 0.931 . S
C155 C150 1.370 . S
C155 C154 1.391 . S
C156 N125 1.435 . S
C156 C157 1.358 . S
C156 C161 1.371 . S
C157 H129 0.930 . S
C157 C156 1.358 . S
C157 C158 1.405 . S
C158 H130 0.932 . S
C158 C157 1.405 . S
C158 C159 1.383 . S
C159 C158 1.383 . S
C159 C160 1.393 . S
C160 H132 0.931 . S
C160 C159 1.393 . S
C160 C161 1.382 . S
C161 H131 0.929 . S
C161 C156 1.371 . S
C161 C160 1.382 . S
C162 N125 1.423 . S
C162 C163 1.362 . S
C162 C167 1.388 . S
C163 H133 0.929 . S
C163 C162 1.362 . S
C163 C164 1.376 . S
C164 H135 0.931 . S
C164 C163 1.376 . S
C164 C165 1.396 . S
C165 C164 1.396 . S
C165 C166 1.348 . S
C165 C183 1.472 . S
C166 H136 0.929 . S
C166 C165 1.348 . S
C166 C167 1.443 . S
C167 H134 0.932 . S
C167 C162 1.388 . S
C167 C166 1.443 . S
C168 N148 1.433 . S
C168 C169 1.363 . S
C168 C173 1.370 . S
C169 H137 0.929 . S
C169 C168 1.363 . S
C169 C170 1.385 . S
C170 H138 0.930 . S
C170 C169 1.385 . S
C170 C171 1.357 . S
C171 C170 1.357 . S
C171 C172 1.406 . S
C172 H139 0.929 . S
C172 C171 1.406 . S
C172 C173 1.391 . S
C173 H140 0.931 . S
C173 C168 1.370 . S
C173 C172 1.391 . S
C174 N148 1.435 . S
C174 C175 1.358 . S
C174 C179 1.371 . S
C175 H141 0.930 . S
C175 C174 1.358 . S
C175 C176 1.405 . S
C176 H142 0.932 . S
C176 C175 1.405 . S
C176 C177 1.383 . S
C177 C176 1.383 . S
C177 C178 1.393 . S
C178 H143 0.931 . S
C178 C177 1.393 . S
C178 C179 1.382 . S
C179 H144 0.929 . S
C179 C174 1.371 . S
C179 C178 1.382 . S
C180 N148 1.423 . S
C180 C181 1.362 . S
C180 C185 1.388 . S
C181 H145 0.929 . S
C181 C180 1.362 . S
C181 C182 1.376 . S
C182 H146 0.931 . S
C182 C181 1.376 . S
C182 C183 1.396 . S
C183 C165 1.472 . S
C183 C182 1.396 . S
C183 C184 1.348 . S
C184 H147 0.929 . S
C184 C183 1.348 . S
C184 C185 1.443 . S
C185 H149 0.932 . S
C185 C180 1.388 . S
C185 C184 1.443 . S
H186 C213 0.929 . S
N187 C212 1.433 . S
N187 C218 1.435 . S
N187 C224 1.423 . S
H188 C214 0.930 . S
H189 C217 0.931 . S
H190 C216 0.929 . S
H191 C219 0.930 . S
H192 C220 0.932 . S
H193 C223 0.929 . S
H194 C222 0.931 . S
H195 C225 0.929 . S
H196 C229 0.932 . S
H197 C226 0.931 . S
H198 C228 0.929 . S
H199 C231 0.929 . S
H200 C232 0.930 . S
H201 C234 0.929 . S
H202 C235 0.931 . S
H203 C237 0.930 . S
H204 C238 0.932 . S
H205 C240 0.931 . S
H206 C241 0.929 . S
H207 C243 0.929 . S
H208 C244 0.931 . S
H209 C246 0.929 . S
N210 C230 1.433 . S
N210 C236 1.435 . S
N210 C242 1.423 . S
H211 C247 0.932 . S
C212 N187 1.433 . S
C212 C213 1.363 . S
C212 C217 1.370 . S
C213 H186 0.929 . S
C213 C212 1.363 . S
C213 C214 1.385 . S
C214 H188 0.930 . S
C214 C213 1.385 . S
C214 C215 1.357 . S
C215 C214 1.357 . S
C215 C216 1.406 . S
C216 H190 0.929 . S
C216 C215 1.406 . S
C216 C217 1.391 . S
C217 H189 0.931 . S
C217 C212 1.370 . S
C217 C216 1.391 . S
C218 N187 1.435 . S
C218 C219 1.358 . S
C218 C223 1.371 . S
C219 H191 0.930 . S
C219 C218 1.358 . S
C219 C220 1.405 . S
C220 H192 0.932 . S
C220 C219 1.405 . S
C220 C221 1.383 . S
C221 C220 1.383 . S
C221 C222 1.393 . S
C222 H194 0.931 . S
C222 C221 1.393 . S
C222 C223 1.382 . S
C223 H193 0.929 . S
C223 C218 1.371 . S
C223 C222 1.382 . S
C224 N187 1.423 . S
C224 C225 1.362 . S
C224 C229 1.388 . S
C225 H195 0.929 . S
C225 C224 1.362 . S
C225 C226 1.376 . S
C226 H197 0.931 . S
C226 C225 1.376 . S
C226 C227 1.396 . S
C227 C226 1.396 . S
C227 C228 1.348 . S
C227 C245 1.472 1_455 S
C228 H198 0.929 . S
C228 C227 1.348 . S
C228 C229 1.443 . S
C229 H196 0.932 . S
C229 C224 1.388 . S
C229 C228 1.443 . S
C230 N210 1.433 . S
C230 C231 1.363 . S
C230 C235 1.370 . S
C231 H199 0.929 . S
C231 C230 1.363 . S
C231 C232 1.385 . S
C232 H200 0.930 . S
C232 C231 1.385 . S
C232 C233 1.357 . S
C233 C232 1.357 . S
C233 C234 1.406 . S
C234 H201 0.929 . S
C234 C233 1.406 . S
C234 C235 1.391 . S
C235 H202 0.931 . S
C235 C230 1.370 . S
C235 C234 1.391 . S
C236 N210 1.435 . S
C236 C237 1.358 . S
C236 C241 1.371 . S
C237 H203 0.930 . S
C237 C236 1.358 . S
C237 C238 1.405 . S
C238 H204 0.932 . S
C238 C237 1.405 . S
C238 C239 1.383 . S
C239 C238 1.383 . S
C239 C240 1.393 . S
C240 H205 0.931 . S
C240 C239 1.393 . S
C240 C241 1.382 . S
C241 H206 0.929 . S
C241 C236 1.371 . S
C241 C240 1.382 . S
C242 N210 1.423 . S
C242 C243 1.362 . S
C242 C247 1.388 . S
C243 H207 0.929 . S
C243 C242 1.362 . S
C243 C244 1.376 . S
C244 H208 0.931 . S
C244 C243 1.376 . S
C244 C245 1.396 . S
C245 C227 1.472 1_655 S
C245 C244 1.396 . S
C245 C246 1.348 . S
C246 H209 0.929 . S
C246 C245 1.348 . S
C246 C247 1.443 . S
C247 H211 0.932 . S
C247 C242 1.388 . S
C247 C246 1.443 . S
H248 C275 0.929 . S
N249 C274 1.433 . S
N249 C280 1.435 . S
N249 C286 1.423 . S
H250 C276 0.930 . S
H251 C279 0.931 . S
H252 C278 0.929 . S
H253 C281 0.930 . S
H254 C282 0.932 . S
H255 C285 0.929 . S
H256 C284 0.931 . S
H257 C287 0.929 . S
H258 C291 0.932 . S
H259 C288 0.931 . S
H260 C290 0.929 . S
H261 C293 0.929 . S
H262 C294 0.930 . S
H263 C296 0.929 . S
H264 C297 0.931 . S
H265 C299 0.930 1_554 S
H266 C300 0.932 . S
H267 C302 0.931 . S
H268 C303 0.929 . S
H269 C305 0.929 . S
H270 C306 0.931 1_554 S
H271 C308 0.929 . S
N272 C292 1.433 . S
N272 C298 1.435 1_554 S
N272 C304 1.423 1_554 S
H273 C309 0.932 . S
C274 N249 1.433 . S
C274 C275 1.363 . S
C274 C279 1.370 . S
C275 H248 0.929 . S
C275 C274 1.363 . S
C275 C276 1.385 . S
C276 H250 0.930 . S
C276 C275 1.385 . S
C276 C277 1.357 1_556 S
C277 C276 1.357 1_554 S
C277 C278 1.406 . S
C278 H252 0.929 . S
C278 C277 1.406 . S
C278 C279 1.391 1_554 S
C279 H251 0.931 . S
C279 C274 1.370 . S
C279 C278 1.391 1_556 S
C280 N249 1.435 . S
C280 C281 1.358 . S
C280 C285 1.371 . S
C281 H253 0.930 . S
C281 C280 1.358 . S
C281 C282 1.405 . S
C282 H254 0.932 . S
C282 C281 1.405 . S
C282 C283 1.383 . S
C283 C282 1.383 . S
C283 C284 1.393 . S
C284 H256 0.931 . S
C284 C283 1.393 . S
C284 C285 1.382 . S
C285 H255 0.929 . S
C285 C280 1.371 . S
C285 C284 1.382 . S
C286 N249 1.423 . S
C286 C287 1.362 . S
C286 C291 1.388 . S
C287 H257 0.929 . S
C287 C286 1.362 . S
C287 C288 1.376 . S
C288 H259 0.931 . S
C288 C287 1.376 . S
C288 C289 1.396 . S
C289 C288 1.396 . S
C289 C290 1.348 . S
C289 C307 1.472 1_545 S
C290 H260 0.929 . S
C290 C289 1.348 . S
C290 C291 1.443 . S
C291 H258 0.932 . S
C291 C286 1.388 . S
C291 C290 1.443 . S
C292 N272 1.433 . S
C292 C293 1.363 . S
C292 C297 1.370 . S
C293 H261 0.929 . S
C293 C292 1.363 . S
C293 C294 1.385 . S
C294 H262 0.930 . S
C294 C293 1.385 . S
C294 C295 1.357 . S
C295 C294 1.357 . S
C295 C296 1.406 . S
C296 H263 0.929 . S
C296 C295 1.406 . S
C296 C297 1.391 . S
C297 H264 0.931 . S
C297 C292 1.370 . S
C297 C296 1.391 . S
C298 N272 1.435 1_556 S
C298 C299 1.358 . S
C298 C303 1.371 . S
C299 H265 0.930 1_556 S
C299 C298 1.358 . S
C299 C300 1.405 . S
C300 H266 0.932 . S
C300 C299 1.405 . S
C300 C301 1.383 . S
C301 C300 1.383 . S
C301 C302 1.393 . S
C302 H267 0.931 . S
C302 C301 1.393 . S
C302 C303 1.382 . S
C303 H268 0.929 . S
C303 C298 1.371 . S
C303 C302 1.382 . S
C304 N272 1.423 1_556 S
C304 C305 1.362 1_556 S
C304 C309 1.388 . S
C305 H269 0.929 . S
C305 C304 1.362 1_554 S
C305 C306 1.376 1_554 S
C306 H270 0.931 1_556 S
C306 C305 1.376 1_556 S
C306 C307 1.396 . S
C307 C289 1.472 1_565 S
C307 C306 1.396 . S
C307 C308 1.348 . S
C308 H271 0.929 . S
C308 C307 1.348 . S
C308 C309 1.443 . S
C309 H273 0.932 . S
C309 C304 1.388 . S
C309 C308 1.443 . S
H310 C337 0.929 . S
N311 C336 1.433 . S
N311 C342 1.435 . S
N311 C348 1.423 . S
H312 C338 0.930 . S
H313 C341 0.931 . S
H314 C340 0.929 . S
H315 C343 0.930 . S
H316 C344 0.932 . S
H317 C347 0.929 . S
H318 C346 0.931 . S
H319 C349 0.929 . S
H320 C353 0.932 . S
H321 C350 0.931 . S
H322 C352 0.929 . S
H323 C355 0.929 . S
H324 C356 0.930 . S
H325 C358 0.929 . S
H326 C359 0.931 . S
H327 C361 0.930 . S
H328 C362 0.932 . S
H329 C364 0.931 . S
H330 C365 0.929 . S
H331 C367 0.929 . S
H332 C368 0.931 . S
H333 C370 0.929 . S
N334 C354 1.433 . S
N334 C360 1.435 . S
N334 C366 1.423 . S
H335 C371 0.932 . S
C336 N311 1.433 . S
C336 C337 1.363 . S
C336 C341 1.370 . S
C337 H310 0.929 . S
C337 C336 1.363 . S
C337 C338 1.385 . S
C338 H312 0.930 . S
C338 C337 1.385 . S
C338 C339 1.357 . S
C339 C338 1.357 . S
C339 C340 1.406 . S
C340 H314 0.929 . S
C340 C339 1.406 . S
C340 C341 1.391 . S
C341 H313 0.931 . S
C341 C336 1.370 . S
C341 C340 1.391 . S
C342 N311 1.435 . S
C342 C343 1.358 . S
C342 C347 1.371 . S
C343 H315 0.930 . S
C343 C342 1.358 . S
C343 C344 1.405 . S
C344 H316 0.932 . S
C344 C343 1.405 . S
C344 C345 1.383 . S
C345 C344 1.383 . S
C345 C346 1.393 . S
C346 H318 0.931 . S
C346 C345 1.393 . S
C346 C347 1.382 . S
C347 H317 0.929 . S
C347 C342 1.371 . S
C347 C346 1.382 . S
C348 N311 1.423 . S
C348 C349 1.362 . S
C348 C353 1.388 . S
C349 H319 0.929 . S
C349 C348 1.362 . S
C349 C350 1.376 . S
C350 H321 0.931 . S
C350 C349 1.376 . S
C350 C351 1.396 . S
C351 C350 1.396 . S
C351 C352 1.348 . S
C351 C369 1.472 . S
C352 H322 0.929 . S
C352 C351 1.348 . S
C352 C353 1.443 . S
C353 H320 0.932 . S
C353 C348 1.388 . S
C353 C352 1.443 . S
C354 N334 1.433 . S
C354 C355 1.363 . S
C354 C359 1.370 . S
C355 H323 0.929 . S
C355 C354 1.363 . S
C355 C356 1.385 . S
C356 H324 0.930 . S
C356 C355 1.385 . S
C356 C357 1.357 . S
C357 C356 1.357 . S
C357 C358 1.406 . S
C358 H325 0.929 . S
C358 C357 1.406 . S
C358 C359 1.391 . S
C359 H326 0.931 . S
C359 C354 1.370 . S
C359 C358 1.391 . S
C360 N334 1.435 . S
C360 C361 1.358 . S
C360 C365 1.371 . S
C361 H327 0.930 . S
C361 C360 1.358 . S
C361 C362 1.405 . S
C362 H328 0.932 . S
C362 C361 1.405 . S
C362 C363 1.383 . S
C363 C362 1.383 . S
C363 C364 1.393 . S
C364 H329 0.931 . S
C364 C363 1.393 . S
C364 C365 1.382 . S
C365 H330 0.929 . S
C365 C360 1.371 . S
C365 C364 1.382 . S
C366 N334 1.423 . S
C366 C367 1.362 . S
C366 C371 1.388 . S
C367 H331 0.929 . S
C367 C366 1.362 . S
C367 C368 1.376 . S
C368 H332 0.931 . S
C368 C367 1.376 . S
C368 C369 1.396 . S
C369 C351 1.472 . S
C369 C368 1.396 . S
C369 C370 1.348 . S
C370 H333 0.929 . S
C370 C369 1.348 . S
C370 C371 1.443 . S
C371 H335 0.932 . S
C371 C366 1.388 . S
C371 C370 1.443 . S
C372 O373 1.160 . S
C372 O379 1.185 . S
O373 C372 1.160 . S
O374 Zn375 1.899 . S
O374 C382 1.284 . S
Zn375 O374 1.899 . S
Zn375 O376 2.032 . S
Zn375 O379 2.086 . S
Zn375 O384 1.977 . S
O376 Zn375 2.032 . S
O376 C380 1.278 . S
C377 O378 1.203 . S
C377 O384 1.267 . S
O378 C377 1.203 . S
O379 C372 1.185 . S
O379 Zn375 2.086 . S
C380 O376 1.278 . S
C380 O381 1.211 . S
O381 C380 1.211 . S
C382 O374 1.284 . S
C382 O383 1.273 . S
O383 C382 1.273 . S
O384 Zn375 1.977 . S
O384 C377 1.267 . S
C385 O386 1.160 . S
C385 O392 1.185 . S
O386 C385 1.160 . S
O387 Zn388 1.899 . S
O387 C395 1.284 . S
Zn388 O387 1.899 . S
Zn388 O389 2.032 . S
Zn388 O392 2.086 . S
Zn388 O397 1.977 . S
O389 Zn388 2.032 . S
O389 C393 1.278 . S
C390 O391 1.203 . S
C390 O397 1.267 . S
O391 C390 1.203 . S
O392 C385 1.185 . S
O392 Zn388 2.086 . S
C393 O389 1.278 . S
C393 O394 1.211 . S
O394 C393 1.211 . S
C395 O387 1.284 . S
C395 O396 1.273 . S
O396 C395 1.273 . S
O397 Zn388 1.977 . S
O397 C390 1.267 . S
C398 O399 1.160 . S
C398 O405 1.185 . S
O399 C398 1.160 . S
O400 Zn401 1.899 . S
O400 C408 1.284 . S
Zn401 O400 1.899 . S
Zn401 O402 2.032 . S
Zn401 O405 2.086 . S
Zn401 O410 1.977 . S
O402 Zn401 2.032 . S
O402 C406 1.278 . S
C403 O404 1.203 . S
C403 O410 1.267 . S
O404 C403 1.203 . S
O405 C398 1.185 . S
O405 Zn401 2.086 . S
C406 O402 1.278 . S
C406 O407 1.211 . S
O407 C406 1.211 . S
C408 O400 1.284 . S
C408 O409 1.273 . S
O409 C408 1.273 . S
O410 Zn401 1.977 . S
O410 C403 1.267 . S
C411 O412 1.160 . S
C411 O418 1.185 . S
O412 C411 1.160 . S
O413 Zn414 1.899 . S
O413 C421 1.284 . S
Zn414 O413 1.899 . S
Zn414 O415 2.032 . S
Zn414 O418 2.086 . S
Zn414 O423 1.977 . S
O415 Zn414 2.032 . S
O415 C419 1.278 . S
C416 O417 1.203 . S
C416 O423 1.267 . S
O417 C416 1.203 . S
O418 C411 1.185 . S
O418 Zn414 2.086 . S
C419 O415 1.278 . S
C419 O420 1.211 . S
O420 C419 1.211 . S
C421 O413 1.284 . S
C421 O422 1.273 . S
O422 C421 1.273 . S
O423 Zn414 1.977 . S
O423 C416 1.267 . S
C424 O425 1.160 . S
C424 O431 1.185 . S
O425 C424 1.160 . S
O426 Zn427 1.899 . S
O426 C434 1.284 . S
Zn427 O426 1.899 . S
Zn427 O428 2.032 . S
Zn427 O431 2.086 . S
Zn427 O436 1.977 . S
O428 Zn427 2.032 . S
O428 C432 1.278 . S
C429 O430 1.203 . S
C429 O436 1.267 . S
O430 C429 1.203 . S
O431 C424 1.185 . S
O431 Zn427 2.086 . S
C432 O428 1.278 . S
C432 O433 1.211 . S
O433 C432 1.211 . S
C434 O426 1.284 . S
C434 O435 1.273 . S
O435 C434 1.273 . S
O436 Zn427 1.977 . S
O436 C429 1.267 . S
C437 O438 1.160 . S
C437 O444 1.185 . S
O438 C437 1.160 . S
O439 Zn440 1.899 . S
O439 C447 1.284 . S
Zn440 O439 1.899 . S
Zn440 O441 2.032 . S
Zn440 O444 2.086 . S
Zn440 O449 1.977 . S
O441 Zn440 2.032 . S
O441 C445 1.278 . S
C442 O443 1.203 . S
C442 O449 1.267 . S
O443 C442 1.203 . S
O444 C437 1.185 . S
O444 Zn440 2.086 . S
C445 O441 1.278 . S
C445 O446 1.211 . S
O446 C445 1.211 . S
C447 O439 1.284 . S
C447 O448 1.273 . S
O448 C447 1.273 . S
O449 Zn440 1.977 . S
O449 C442 1.267 . S
H450 C456 0.930 . S
H451 C460 0.930 . S
H452 C465 0.929 . S
H453 C463 0.929 . S
H454 C458 0.929 . S
H455 C464 0.929 . S
C456 H450 0.930 . S
C456 C457 1.367 . S
C456 C464 1.378 . S
C457 C456 1.367 . S
C457 C465 1.433 . S
C458 H454 0.929 . S
C458 C460 1.378 . S
C458 C462 1.350 . S
C459 C462 1.463 . S
C459 C464 1.350 . S
C459 N467 1.427 . S
C460 H451 0.930 . S
C460 C458 1.378 . S
C460 C461 1.367 . S
C461 C460 1.367 . S
C461 C463 1.433 . S
C462 C458 1.350 . S
C462 C459 1.463 . S
C462 N466 1.427 . S
C463 H453 0.929 . S
C463 C461 1.433 . S
C463 N466 1.384 . S
C464 H455 0.929 . S
C464 C456 1.378 . S
C464 C459 1.350 . S
C465 H452 0.929 . S
C465 C457 1.433 . S
C465 N467 1.384 . S
N466 C462 1.427 . S
N466 C463 1.384 . S
N467 C459 1.427 . S
N467 C465 1.384 . S
H468 C474 0.930 . S
H469 C478 0.930 . S
H470 C483 0.929 . S
H471 C481 0.929 . S
H472 C476 0.929 . S
H473 C482 0.929 . S
C474 H468 0.930 . S
C474 C475 1.367 . S
C474 C482 1.378 . S
C475 C474 1.367 . S
C475 C483 1.433 . S
C476 H472 0.929 . S
C476 C478 1.378 . S
C476 C480 1.350 . S
C477 C480 1.463 . S
C477 C482 1.350 . S
C477 N485 1.427 . S
C478 H469 0.930 . S
C478 C476 1.378 . S
C478 C479 1.367 . S
C479 C478 1.367 . S
C479 C481 1.433 . S
C480 C476 1.350 . S
C480 C477 1.463 . S
C480 N484 1.427 . S
C481 H471 0.929 . S
C481 C479 1.433 . S
C481 N484 1.384 . S
C482 H473 0.929 . S
C482 C474 1.378 . S
C482 C477 1.350 . S
C483 H470 0.929 . S
C483 C475 1.433 . S
C483 N485 1.384 . S
N484 C480 1.427 . S
N484 C481 1.384 . S
N485 C477 1.427 . S
N485 C483 1.384 . S
H486 C492 0.930 . S
H487 C496 0.930 . S
H488 C501 0.929 . S
H489 C499 0.929 . S
H490 C494 0.929 . S
H491 C500 0.929 . S
C492 H486 0.930 . S
C492 C493 1.367 . S
C492 C500 1.378 . S
C493 C492 1.367 . S
C493 C501 1.433 . S
C494 H490 0.929 . S
C494 C496 1.378 . S
C494 C498 1.350 . S
C495 C498 1.463 . S
C495 C500 1.350 . S
C495 N503 1.427 . S
C496 H487 0.930 . S
C496 C494 1.378 . S
C496 C497 1.367 . S
C497 C496 1.367 . S
C497 C499 1.433 . S
C498 C494 1.350 . S
C498 C495 1.463 . S
C498 N502 1.427 . S
C499 H489 0.929 . S
C499 C497 1.433 . S
C499 N502 1.384 . S
C500 H491 0.929 . S
C500 C492 1.378 . S
C500 C495 1.350 . S
C501 H488 0.929 . S
C501 C493 1.433 . S
C501 N503 1.384 . S
N502 C498 1.427 . S
N502 C499 1.384 . S
N503 C495 1.427 . S
N503 C501 1.384 . S
H504 C510 0.930 . S
H505 C514 0.930 . S
H506 C519 0.929 . S
H507 C517 0.929 . S
H508 C512 0.929 . S
H509 C518 0.929 . S
C510 H504 0.930 . S
C510 C511 1.367 . S
C510 C518 1.378 . S
C511 C510 1.367 . S
C511 C519 1.433 . S
C512 H508 0.929 . S
C512 C514 1.378 . S
C512 C516 1.350 . S
C513 C516 1.463 . S
C513 C518 1.350 . S
C513 N521 1.427 . S
C514 H505 0.930 . S
C514 C512 1.378 . S
C514 C515 1.367 . S
C515 C514 1.367 . S
C515 C517 1.433 . S
C516 C512 1.350 . S
C516 C513 1.463 . S
C516 N520 1.427 . S
C517 H507 0.929 . S
C517 C515 1.433 . S
C517 N520 1.384 . S
C518 H509 0.929 . S
C518 C510 1.378 . S
C518 C513 1.350 . S
C519 H506 0.929 . S
C519 C511 1.433 . S
C519 N521 1.384 . S
N520 C516 1.427 . S
N520 C517 1.384 . S
N521 C513 1.427 . S
N521 C519 1.384 . S
H522 C528 0.930 . S
H523 C532 0.930 . S
H524 C537 0.929 . S
H525 C535 0.929 . S
H526 C530 0.929 . S
H527 C536 0.929 . S
C528 H522 0.930 . S
C528 C529 1.367 . S
C528 C536 1.378 . S
C529 C528 1.367 . S
C529 C537 1.433 . S
C530 H526 0.929 . S
C530 C532 1.378 . S
C530 C534 1.350 . S
C531 C534 1.463 . S
C531 C536 1.350 . S
C531 N539 1.427 . S
C532 H523 0.930 . S
C532 C530 1.378 . S
C532 C533 1.367 . S
C533 C532 1.367 . S
C533 C535 1.433 . S
C534 C530 1.350 . S
C534 C531 1.463 . S
C534 N538 1.427 . S
C535 H525 0.929 . S
C535 C533 1.433 . S
C535 N538 1.384 . S
C536 H527 0.929 . S
C536 C528 1.378 . S
C536 C531 1.350 . S
C537 H524 0.929 . S
C537 C529 1.433 . S
C537 N539 1.384 . S
N538 C534 1.427 . S
N538 C535 1.384 . S
N539 C531 1.427 . S
N539 C537 1.384 . S
H540 C546 0.930 . S
H541 C550 0.930 . S
H542 C555 0.929 . S
H543 C553 0.929 . S
H544 C548 0.929 . S
H545 C554 0.929 . S
C546 H540 0.930 . S
C546 C547 1.367 . S
C546 C554 1.378 . S
C547 C546 1.367 . S
C547 C555 1.433 . S
C548 H544 0.929 . S
C548 C550 1.378 . S
C548 C552 1.350 . S
C549 C552 1.463 . S
C549 C554 1.350 . S
C549 N557 1.427 . S
C550 H541 0.930 . S
C550 C548 1.378 . S
C550 C551 1.367 . S
C551 C550 1.367 . S
C551 C553 1.433 . S
C552 C548 1.350 . S
C552 C549 1.463 . S
C552 N556 1.427 . S
C553 H543 0.929 . S
C553 C551 1.433 . S
C553 N556 1.384 . S
C554 H545 0.929 . S
C554 C546 1.378 . S
C554 C549 1.350 . S
C555 H542 0.929 . S
C555 C547 1.433 . S
C555 N557 1.384 . S
N556 C552 1.427 . S
N556 C553 1.384 . S
N557 C549 1.427 . S
N557 C555 1.384 . S
H558 C564 0.930 . S
H559 C568 0.930 . S
H560 C573 0.929 . S
H561 C571 0.929 . S
H562 C566 0.929 . S
H563 C572 0.929 . S
C564 H558 0.930 . S
C564 C565 1.367 . S
C564 C572 1.378 . S
C565 C564 1.367 . S
C565 C573 1.433 . S
C566 H562 0.929 . S
C566 C568 1.378 . S
C566 C570 1.350 . S
C567 C570 1.463 . S
C567 C572 1.350 . S
C567 N575 1.427 . S
C568 H559 0.930 . S
C568 C566 1.378 . S
C568 C569 1.367 . S
C569 C568 1.367 . S
C569 C571 1.433 . S
C570 C566 1.350 . S
C570 C567 1.463 . S
C570 N574 1.427 . S
C571 H561 0.929 . S
C571 C569 1.433 . S
C571 N574 1.384 . S
C572 H563 0.929 . S
C572 C564 1.378 . S
C572 C567 1.350 . S
C573 H560 0.929 . S
C573 C565 1.433 . S
C573 N575 1.384 . S
N574 C570 1.427 . S
N574 C571 1.384 . S
N575 C567 1.427 . S
N575 C573 1.384 . S
H576 C582 0.930 . S
H577 C586 0.930 . S
H578 C591 0.929 . S
H579 C589 0.929 . S
H580 C584 0.929 . S
H581 C590 0.929 . S
C582 H576 0.930 . S
C582 C583 1.367 . S
C582 C590 1.378 . S
C583 C582 1.367 . S
C583 C591 1.433 . S
C584 H580 0.929 . S
C584 C586 1.378 . S
C584 C588 1.350 . S
C585 C588 1.463 . S
C585 C590 1.350 . S
C585 N593 1.427 . S
C586 H577 0.930 . S
C586 C584 1.378 . S
C586 C587 1.367 . S
C587 C586 1.367 . S
C587 C589 1.433 . S
C588 C584 1.350 . S
C588 C585 1.463 . S
C588 N592 1.427 . S
C589 H579 0.929 . S
C589 C587 1.433 . S
C589 N592 1.384 . S
C590 H581 0.929 . S
C590 C582 1.378 . S
C590 C585 1.350 . S
C591 H578 0.929 . S
C591 C583 1.433 . S
C591 N593 1.384 . S
N592 C588 1.427 . S
N592 C589 1.384 . S
N593 C585 1.427 . S
N593 C591 1.384 . S
H594 C600 0.930 . S
H595 C604 0.930 . S
H596 C609 0.929 . S
H597 C607 0.929 . S
H598 C602 0.929 . S
H599 C608 0.929 . S
C600 H594 0.930 . S
C600 C601 1.367 . S
C600 C608 1.378 . S
C601 C600 1.367 . S
C601 C609 1.433 . S
C602 H598 0.929 . S
C602 C604 1.378 . S
C602 C606 1.350 . S
C603 C606 1.463 . S
C603 C608 1.350 . S
C603 N611 1.427 . S
C604 H595 0.930 . S
C604 C602 1.378 . S
C604 C605 1.367 . S
C605 C604 1.367 . S
C605 C607 1.433 . S
C606 C602 1.350 . S
C606 C603 1.463 . S
C606 N610 1.427 . S
C607 H597 0.929 . S
C607 C605 1.433 . S
C607 N610 1.384 . S
C608 H599 0.929 . S
C608 C600 1.378 . S
C608 C603 1.350 . S
C609 H596 0.929 . S
C609 C601 1.433 . S
C609 N611 1.384 . S
N610 C606 1.427 . S
N610 C607 1.384 . S
N611 C603 1.427 . S
N611 C609 1.384 . S
H612 C618 0.930 1_556 S
H613 C622 0.930 . S
H614 C627 0.929 . S
H615 C625 0.929 . S
H616 C620 0.929 . S
H617 C626 0.929 . S
C618 H612 0.930 1_554 S
C618 C619 1.367 . S
C618 C626 1.378 . S
C619 C618 1.367 . S
C619 C627 1.433 . S
C620 H616 0.929 . S
C620 C622 1.378 . S
C620 C624 1.350 . S
C621 C624 1.463 . S
C621 C626 1.350 . S
C621 N629 1.427 . S
C622 H613 0.930 . S
C622 C620 1.378 . S
C622 C623 1.367 . S
C623 C622 1.367 . S
C623 C625 1.433 . S
C624 C620 1.350 . S
C624 C621 1.463 . S
C624 N628 1.427 . S
C625 H615 0.929 . S
C625 C623 1.433 . S
C625 N628 1.384 . S
C626 H617 0.929 . S
C626 C618 1.378 . S
C626 C621 1.350 . S
C627 H614 0.929 . S
C627 C619 1.433 . S
C627 N629 1.384 . S
N628 C624 1.427 . S
N628 C625 1.384 . S
N629 C621 1.427 . S
N629 C627 1.384 . S
H630 C636 0.930 . S
H631 C640 0.930 . S
H632 C645 0.929 . S
H633 C643 0.929 . S
H634 C638 0.929 . S
H635 C644 0.929 . S
C636 H630 0.930 . S
C636 C637 1.367 . S
C636 C644 1.378 . S
C637 C636 1.367 . S
C637 C645 1.433 . S
C638 H634 0.929 . S
C638 C640 1.378 . S
C638 C642 1.350 . S
C639 C642 1.463 . S
C639 C644 1.350 . S
C639 N647 1.427 . S
C640 H631 0.930 . S
C640 C638 1.378 . S
C640 C641 1.367 . S
C641 C640 1.367 . S
C641 C643 1.433 . S
C642 C638 1.350 . S
C642 C639 1.463 . S
C642 N646 1.427 . S
C643 H633 0.929 . S
C643 C641 1.433 . S
C643 N646 1.384 . S
C644 H635 0.929 . S
C644 C636 1.378 . S
C644 C639 1.350 . S
C645 H632 0.929 . S
C645 C637 1.433 . S
C645 N647 1.384 . S
N646 C642 1.427 . S
N646 C643 1.384 . S
N647 C639 1.427 . S
N647 C645 1.384 . S
H648 C654 0.930 . S
H649 C658 0.930 . S
H650 C663 0.929 . S
H651 C661 0.929 . S
H652 C656 0.929 . S
H653 C662 0.929 . S
C654 H648 0.930 . S
C654 C655 1.367 . S
C654 C662 1.378 . S
C655 C654 1.367 . S
C655 C663 1.433 . S
C656 H652 0.929 . S
C656 C658 1.378 . S
C656 C660 1.350 . S
C657 C660 1.463 . S
C657 C662 1.350 . S
C657 N665 1.427 . S
C658 H649 0.930 . S
C658 C656 1.378 . S
C658 C659 1.367 . S
C659 C658 1.367 . S
C659 C661 1.433 . S
C660 C656 1.350 . S
C660 C657 1.463 . S
C660 N664 1.427 . S
C661 H651 0.929 . S
C661 C659 1.433 . S
C661 N664 1.384 . S
C662 H653 0.929 . S
C662 C654 1.378 . S
C662 C657 1.350 . S
C663 H650 0.929 . S
C663 C655 1.433 . S
C663 N665 1.384 . S
N664 C660 1.427 . S
N664 C661 1.384 . S
N665 C657 1.427 . S
N665 C663 1.384 . S
H666 C672 0.930 . S
H667 C676 0.930 . S
H668 C681 0.929 . S
H669 C679 0.929 . S
H670 C674 0.929 . S
H671 C680 0.929 . S
C672 H666 0.930 . S
C672 C673 1.367 . S
C672 C680 1.378 . S
C673 C672 1.367 . S
C673 C681 1.433 . S
C674 H670 0.929 . S
C674 C676 1.378 . S
C674 C678 1.350 . S
C675 C678 1.463 . S
C675 C680 1.350 . S
C675 N683 1.427 . S
C676 H667 0.930 . S
C676 C674 1.378 . S
C676 C677 1.367 . S
C677 C676 1.367 . S
C677 C679 1.433 . S
C678 C674 1.350 . S
C678 C675 1.463 . S
C678 N682 1.427 . S
C679 H669 0.929 . S
C679 C677 1.433 . S
C679 N682 1.384 . S
C680 H671 0.929 . S
C680 C672 1.378 . S
C680 C675 1.350 . S
C681 H668 0.929 . S
C681 C673 1.433 . S
C681 N683 1.384 . S
N682 C678 1.427 . S
N682 C679 1.384 . S
N683 C675 1.427 . S
N683 C681 1.384 . S
H684 C690 0.930 . S
H685 C694 0.930 . S
H686 C699 0.929 . S
H687 C697 0.929 . S
H688 C692 0.929 . S
H689 C698 0.929 . S
C690 H684 0.930 . S
C690 C691 1.367 . S
C690 C698 1.378 . S
C691 C690 1.367 . S
C691 C699 1.433 . S
C692 H688 0.929 . S
C692 C694 1.378 . S
C692 C696 1.350 . S
C693 C696 1.463 . S
C693 C698 1.350 . S
C693 N701 1.427 . S
C694 H685 0.930 . S
C694 C692 1.378 . S
C694 C695 1.367 . S
C695 C694 1.367 . S
C695 C697 1.433 . S
C696 C692 1.350 . S
C696 C693 1.463 . S
C696 N700 1.427 . S
C697 H687 0.929 . S
C697 C695 1.433 . S
C697 N700 1.384 . S
C698 H689 0.929 . S
C698 C690 1.378 . S
C698 C693 1.350 . S
C699 H686 0.929 . S
C699 C691 1.433 . S
C699 N701 1.384 . S
N700 C696 1.427 . S
N700 C697 1.384 . S
N701 C693 1.427 . S
N701 C699 1.384 . S
H702 C708 0.930 . S
H703 C712 0.930 . S
H704 C717 0.929 . S
H705 C715 0.929 . S
H706 C710 0.929 . S
H707 C716 0.929 . S
C708 H702 0.930 . S
C708 C709 1.367 . S
C708 C716 1.378 . S
C709 C708 1.367 . S
C709 C717 1.433 . S
C710 H706 0.929 . S
C710 C712 1.378 . S
C710 C714 1.350 . S
C711 C714 1.463 . S
C711 C716 1.350 . S
C711 N719 1.427 . S
C712 H703 0.930 . S
C712 C710 1.378 . S
C712 C713 1.367 . S
C713 C712 1.367 . S
C713 C715 1.433 . S
C714 C710 1.350 . S
C714 C711 1.463 . S
C714 N718 1.427 . S
C715 H705 0.929 . S
C715 C713 1.433 . S
C715 N718 1.384 . S
C716 H707 0.929 . S
C716 C708 1.378 . S
C716 C711 1.350 . S
C717 H704 0.929 . S
C717 C709 1.433 . S
C717 N719 1.384 . S
N718 C714 1.427 . S
N718 C715 1.384 . S
N719 C711 1.427 . S
N719 C717 1.384 . S
H720 C726 0.930 . S
H721 C730 0.930 1_554 S
H722 C735 0.929 . S
H723 C733 0.942 . S
H724 C728 0.929 . S
H725 C734 0.929 . S
C726 H720 0.930 . S
C726 C727 1.367 . S
C726 C734 1.378 . S
C727 C726 1.367 . S
C727 C735 1.433 . S
C728 H724 0.929 . S
C728 C730 1.378 . S
C728 C732 1.350 . S
C729 C732 1.463 . S
C729 C734 1.350 . S
C729 N737 1.427 . S
C730 H721 0.930 1_556 S
C730 C728 1.378 . S
C730 C731 1.367 1_556 S
C731 C730 1.367 1_554 S
C731 C733 1.433 1_554 S
C732 C728 1.350 . S
C732 C729 1.463 . S
C732 N736 1.427 . S
C733 H723 0.942 . S
C733 C731 1.433 1_556 S
C733 N736 1.384 . S
C734 H725 0.929 . S
C734 C726 1.378 . S
C734 C729 1.350 . S
C735 H722 0.929 . S
C735 C727 1.433 . S
C735 N737 1.384 . S
N736 C732 1.427 . S
N736 C733 1.384 . S
N737 C729 1.427 . S
N737 C735 1.384 . S
H738 C744 0.930 . S
H739 C748 0.930 . S
H740 C753 0.929 . S
H741 C751 0.929 . S
H742 C746 0.929 . S
H743 C752 0.929 . S
C744 H738 0.930 . S
C744 C745 1.367 . S
C744 C752 1.378 . S
C745 C744 1.367 . S
C745 C753 1.433 . S
C746 H742 0.929 . S
C746 C748 1.378 . S
C746 C750 1.350 . S
C747 C750 1.463 . S
C747 C752 1.350 . S
C747 N755 1.427 . S
C748 H739 0.930 . S
C748 C746 1.378 . S
C748 C749 1.367 . S
C749 C748 1.367 . S
C749 C751 1.433 . S
C750 C746 1.350 . S
C750 C747 1.463 . S
C750 N754 1.427 . S
C751 H741 0.929 . S
C751 C749 1.433 . S
C751 N754 1.384 . S
C752 H743 0.929 . S
C752 C744 1.378 . S
C752 C747 1.350 . S
C753 H740 0.929 . S
C753 C745 1.433 . S
C753 N755 1.384 . S
N754 C750 1.427 . S
N754 C751 1.384 . S
N755 C747 1.427 . S
N755 C753 1.384 . S
H756 C762 0.930 . S
H757 C766 0.930 . S
H758 C771 0.929 . S
H759 C769 0.929 . S
H760 C764 0.929 . S
H761 C770 0.929 . S
C762 H756 0.930 . S
C762 C763 1.367 . S
C762 C770 1.378 . S
C763 C762 1.367 . S
C763 C771 1.433 . S
C764 H760 0.929 . S
C764 C766 1.378 . S
C764 C768 1.350 . S
C765 C768 1.463 . S
C765 C770 1.350 . S
C765 N773 1.427 . S
C766 H757 0.930 . S
C766 C764 1.378 . S
C766 C767 1.367 . S
C767 C766 1.367 . S
C767 C769 1.433 . S
C768 C764 1.350 . S
C768 C765 1.463 . S
C768 N772 1.427 . S
C769 H759 0.929 . S
C769 C767 1.433 . S
C769 N772 1.384 . S
C770 H761 0.929 . S
C770 C762 1.378 . S
C770 C765 1.350 . S
C771 H758 0.929 . S
C771 C763 1.433 . S
C771 N773 1.384 . S
N772 C768 1.427 . S
N772 C769 1.384 . S
N773 C765 1.427 . S
N773 C771 1.384 . S
H774 C780 0.930 . S
H775 C784 0.930 . S
H776 C789 0.929 . S
H777 C787 0.929 . S
H778 C782 0.929 . S
H779 C788 0.929 . S
C780 H774 0.930 . S
C780 C781 1.367 . S
C780 C788 1.378 . S
C781 C780 1.367 . S
C781 C789 1.433 . S
C782 H778 0.929 . S
C782 C784 1.378 . S
C782 C786 1.350 . S
C783 C786 1.463 . S
C783 C788 1.350 . S
C783 N791 1.427 . S
C784 H775 0.930 . S
C784 C782 1.378 . S
C784 C785 1.367 . S
C785 C784 1.367 . S
C785 C787 1.433 . S
C786 C782 1.350 . S
C786 C783 1.463 . S
C786 N790 1.427 . S
C787 H777 0.929 . S
C787 C785 1.433 . S
C787 N790 1.384 . S
C788 H779 0.929 . S
C788 C780 1.378 . S
C788 C783 1.350 . S
C789 H776 0.929 . S
C789 C781 1.433 . S
C789 N791 1.384 . S
N790 C786 1.427 . S
N790 C787 1.384 . S
N791 C783 1.427 . S
N791 C789 1.384 . S
H792 C798 0.930 . S
H793 C802 0.930 . S
H794 C807 0.929 . S
H795 C805 0.929 . S
H796 C800 0.929 . S
H797 C806 0.929 . S
C798 H792 0.930 . S
C798 C799 1.367 . S
C798 C806 1.378 . S
C799 C798 1.367 . S
C799 C807 1.433 . S
C800 H796 0.929 . S
C800 C802 1.378 . S
C800 C804 1.350 . S
C801 C804 1.463 . S
C801 C806 1.350 . S
C801 N809 1.427 . S
C802 H793 0.930 . S
C802 C800 1.378 . S
C802 C803 1.367 . S
C803 C802 1.367 . S
C803 C805 1.433 . S
C804 C800 1.350 . S
C804 C801 1.463 . S
C804 N808 1.427 . S
C805 H795 0.929 . S
C805 C803 1.433 . S
C805 N808 1.384 . S
C806 H797 0.929 . S
C806 C798 1.378 . S
C806 C801 1.350 . S
C807 H794 0.929 . S
C807 C799 1.433 . S
C807 N809 1.384 . S
N808 C804 1.427 . S
N808 C805 1.384 . S
N809 C801 1.427 . S
N809 C807 1.384 . S
H810 C816 0.930 . S
H811 C820 0.930 . S
H812 C825 0.929 . S
H813 C823 0.929 . S
H814 C818 0.929 . S
H815 C824 0.929 . S
C816 H810 0.930 . S
C816 C817 1.367 . S
C816 C824 1.378 . S
C817 C816 1.367 . S
C817 C825 1.433 . S
C818 H814 0.929 . S
C818 C820 1.378 . S
C818 C822 1.350 . S
C819 C822 1.463 . S
C819 C824 1.350 . S
C819 N827 1.427 . S
C820 H811 0.930 . S
C820 C818 1.378 . S
C820 C821 1.367 . S
C821 C820 1.367 . S
C821 C823 1.433 . S
C822 C818 1.350 . S
C822 C819 1.463 . S
C822 N826 1.427 . S
C823 H813 0.929 . S
C823 C821 1.433 . S
C823 N826 1.384 . S
C824 H815 0.929 . S
C824 C816 1.378 . S
C824 C819 1.350 . S
C825 H812 0.929 . S
C825 C817 1.433 . S
C825 N827 1.384 . S
N826 C822 1.427 . S
N826 C823 1.384 . S
N827 C819 1.427 . S
N827 C825 1.384 . S
H828 C834 0.930 . S
H829 C838 0.930 . S
H830 C843 0.929 . S
H831 C841 0.929 . S
H832 C836 0.929 . S
H833 C842 0.929 . S
C834 H828 0.930 . S
C834 C835 1.367 . S
C834 C842 1.378 . S
C835 C834 1.367 . S
C835 C843 1.433 . S
C836 H832 0.929 . S
C836 C838 1.378 . S
C836 C840 1.350 . S
C837 C840 1.463 . S
C837 C842 1.350 . S
C837 N845 1.427 . S
C838 H829 0.930 . S
C838 C836 1.378 . S
C838 C839 1.367 . S
C839 C838 1.367 . S
C839 C841 1.433 . S
C840 C836 1.350 . S
C840 C837 1.463 . S
C840 N844 1.427 . S
C841 H831 0.929 . S
C841 C839 1.433 . S
C841 N844 1.384 . S
C842 H833 0.929 . S
C842 C834 1.378 . S
C842 C837 1.350 . S
C843 H830 0.929 . S
C843 C835 1.433 . S
C843 N845 1.384 . S
N844 C840 1.427 . S
N844 C841 1.384 . S
N845 C837 1.427 . S
N845 C843 1.384 . S
H846 C852 0.930 . S
H847 C856 0.930 . S
H848 C861 0.929 . S
H849 C859 0.929 . S
H850 C854 0.929 . S
H851 C860 0.929 . S
C852 H846 0.930 . S
C852 C853 1.367 . S
C852 C860 1.378 . S
C853 C852 1.367 . S
C853 C861 1.433 . S
C854 H850 0.929 . S
C854 C856 1.378 . S
C854 C858 1.350 . S
C855 C858 1.463 . S
C855 C860 1.350 1_556 S
C855 N863 1.427 1_556 S
C856 H847 0.930 . S
C856 C854 1.378 . S
C856 C857 1.367 . S
C857 C856 1.367 . S
C857 C859 1.433 . S
C858 C854 1.350 . S
C858 C855 1.463 . S
C858 N862 1.427 . S
C859 H849 0.929 . S
C859 C857 1.433 . S
C859 N862 1.384 . S
C860 H851 0.929 . S
C860 C852 1.378 . S
C860 C855 1.350 1_554 S
C861 H848 0.929 . S
C861 C853 1.433 . S
C861 N863 1.384 . S
N862 C858 1.427 . S
N862 C859 1.384 . S
N863 C855 1.427 1_554 S
N863 C861 1.384 . S
H864 C870 0.930 . S
H865 C874 0.930 . S
H866 C879 0.929 . S
H867 C877 0.929 . S
H868 C872 0.929 . S
H869 C878 0.929 . S
C870 H864 0.930 . S
C870 C871 1.367 . S
C870 C878 1.378 . S
C871 C870 1.367 . S
C871 C879 1.433 . S
C872 H868 0.929 . S
C872 C874 1.378 . S
C872 C876 1.350 . S
C873 C876 1.463 . S
C873 C878 1.350 . S
C873 N881 1.427 . S
C874 H865 0.930 . S
C874 C872 1.378 . S
C874 C875 1.367 . S
C875 C874 1.367 . S
C875 C877 1.433 . S
C876 C872 1.350 . S
C876 C873 1.463 . S
C876 N880 1.427 . S
C877 H867 0.929 . S
C877 C875 1.433 . S
C877 N880 1.384 . S
C878 H869 0.929 . S
C878 C870 1.378 . S
C878 C873 1.350 . S
C879 H866 0.929 . S
C879 C871 1.433 . S
C879 N881 1.384 . S
N880 C876 1.427 . S
N880 C877 1.384 . S
N881 C873 1.427 . S
N881 C879 1.384 . S
C461 C447 1.647 . S
C457 C29 1.553 . S
C475 C115 1.529 . S
C479 C372 1.471 . S
C493 C153 1.561 . S
C497 C395 1.672 . S
C511 C239 1.403 . S
C515 C408 1.425 . S
C533 C411 1.554 . S
C529 C301 1.598 . S
C547 C339 1.721 . S
C551 C424 1.755 . S
C565 C91 1.492 . S
C569 C385 1.527 . S
C583 C177 1.568 . S
C587 C398 1.499 . S
C601 C215 1.434 . S
C605 C421 1.511 . S
C623 C434 1.943 . S
C619 C277 1.817 . S
C641 C437 1.519 . S
C637 C363 1.571 . S
C659 C382 1.563 . S
C655 C53 1.544 . S
C673 C35 1.536 . S
C677 C393 1.525 . S
C691 C109 1.365 . S
C695 C406 1.429 . S
C713 C416 1.424 . S
C709 C159 1.440 . S
C727 C233 1.573 . S
C731 C429 1.652 . S
C749 C445 1.501 . S
C745 C295 1.419 . S
C767 C377 1.301 . S
C763 C345 1.326 . S
C785 C442 1.388 . S
C781 C97 1.395 . S
C799 C171 1.396 . S
C803 C380 1.467 . S
C821 C390 1.506 . S
C817 C221 1.520 . S
C835 C283 1.370 . S
C839 C403 1.337 . S
C853 C357 1.382 . S
C857 C419 1.456 . S
C871 C47 1.584 . S
C875 C432 1.662 . S
