# Generated by pormake.
# Topology bwt, (3,3)-cn, num edge types: 1
# Building blocks:
#     Node 0, Type 0, BuildingBlock: WUSLED_clean_sbu_0, # of connection points: 3
#     Node 1, Type 0, BuildingBlock: WUSLED_clean_sbu_0, # of connection points: 3
#     Node 2, Type 0, BuildingBlock: WUSLED_clean_sbu_0, # of connection points: 3
#     Node 3, Type 0, BuildingBlock: WUSLED_clean_sbu_0, # of connection points: 3
#     Node 4, Type 0, BuildingBlock: WUSLED_clean_sbu_0, # of connection points: 3
#     Node 5, Type 0, BuildingBlock: WUSLED_clean_sbu_0, # of connection points: 3
#     Node 6, Type 0, BuildingBlock: WUSLED_clean_sbu_0, # of connection points: 3
#     Node 7, Type 0, BuildingBlock: WUSLED_clean_sbu_0, # of connection points: 3
#     Node 8, Type 0, BuildingBlock: WUSLED_clean_sbu_0, # of connection points: 3
#     Node 9, Type 0, BuildingBlock: WUSLED_clean_sbu_0, # of connection points: 3
#     Node 10, Type 0, BuildingBlock: WUSLED_clean_sbu_0, # of connection points: 3
#     Node 11, Type 0, BuildingBlock: WUSLED_clean_sbu_0, # of connection points: 3
#     Node 12, Type 0, BuildingBlock: WUSLED_clean_sbu_0, # of connection points: 3
#     Node 13, Type 0, BuildingBlock: WUSLED_clean_sbu_0, # of connection points: 3
#     Node 14, Type 0, BuildingBlock: WUSLED_clean_sbu_0, # of connection points: 3
#     Node 15, Type 0, BuildingBlock: WUSLED_clean_sbu_0, # of connection points: 3
#     Node 16, Type 0, BuildingBlock: WUSLED_clean_sbu_0, # of connection points: 3
#     Node 17, Type 0, BuildingBlock: WUSLED_clean_sbu_0, # of connection points: 3
#     Node 18, Type 0, BuildingBlock: WUSLED_clean_sbu_0, # of connection points: 3
#     Node 19, Type 0, BuildingBlock: WUSLED_clean_sbu_0, # of connection points: 3
#     Node 20, Type 0, BuildingBlock: WUSLED_clean_sbu_0, # of connection points: 3
#     Node 21, Type 0, BuildingBlock: WUSLED_clean_sbu_0, # of connection points: 3
#     Node 22, Type 0, BuildingBlock: WUSLED_clean_sbu_0, # of connection points: 3
#     Node 23, Type 0, BuildingBlock: WUSLED_clean_sbu_0, # of connection points: 3
#     Node 24, Type 1, BuildingBlock: BETDAH_clean_linker_0, # of connection points: 3
#     Node 25, Type 1, BuildingBlock: BETDAH_clean_linker_0, # of connection points: 3
#     Node 26, Type 1, BuildingBlock: BETDAH_clean_linker_0, # of connection points: 3
#     Node 27, Type 1, BuildingBlock: BETDAH_clean_linker_0, # of connection points: 3
#     Node 28, Type 1, BuildingBlock: BETDAH_clean_linker_0, # of connection points: 3
#     Node 29, Type 1, BuildingBlock: BETDAH_clean_linker_0, # of connection points: 3
#     Node 30, Type 1, BuildingBlock: BETDAH_clean_linker_0, # of connection points: 3
#     Node 31, Type 1, BuildingBlock: BETDAH_clean_linker_0, # of connection points: 3
#     Node 32, Type 1, BuildingBlock: BETDAH_clean_linker_0, # of connection points: 3
#     Node 33, Type 1, BuildingBlock: BETDAH_clean_linker_0, # of connection points: 3
#     Node 34, Type 1, BuildingBlock: BETDAH_clean_linker_0, # of connection points: 3
#     Node 35, Type 1, BuildingBlock: BETDAH_clean_linker_0, # of connection points: 3
#     Node 36, Type 1, BuildingBlock: BETDAH_clean_linker_0, # of connection points: 3
#     Node 37, Type 1, BuildingBlock: BETDAH_clean_linker_0, # of connection points: 3
#     Node 38, Type 1, BuildingBlock: BETDAH_clean_linker_0, # of connection points: 3
#     Node 39, Type 1, BuildingBlock: BETDAH_clean_linker_0, # of connection points: 3
#     Node 40, Type 1, BuildingBlock: BETDAH_clean_linker_0, # of connection points: 3
#     Node 41, Type 1, BuildingBlock: BETDAH_clean_linker_0, # of connection points: 3
#     Node 42, Type 1, BuildingBlock: BETDAH_clean_linker_0, # of connection points: 3
#     Node 43, Type 1, BuildingBlock: BETDAH_clean_linker_0, # of connection points: 3
#     Node 44, Type 1, BuildingBlock: BETDAH_clean_linker_0, # of connection points: 3
#     Node 45, Type 1, BuildingBlock: BETDAH_clean_linker_0, # of connection points: 3
#     Node 46, Type 1, BuildingBlock: BETDAH_clean_linker_0, # of connection points: 3
#     Node 47, Type 1, BuildingBlock: BETDAH_clean_linker_0, # of connection points: 3
#     Edge 48, Type (0, 1), BuildingBlock: TEMPAE_clean_linker_10, # of connection points: 2
#     Edge 49, Type (0, 1), BuildingBlock: TEMPAE_clean_linker_10, # of connection points: 2
#     Edge 50, Type (0, 1), BuildingBlock: TEMPAE_clean_linker_10, # of connection points: 2
#     Edge 51, Type (0, 1), BuildingBlock: TEMPAE_clean_linker_10, # of connection points: 2
#     Edge 52, Type (0, 1), BuildingBlock: TEMPAE_clean_linker_10, # of connection points: 2
#     Edge 53, Type (0, 1), BuildingBlock: TEMPAE_clean_linker_10, # of connection points: 2
#     Edge 54, Type (0, 1), BuildingBlock: TEMPAE_clean_linker_10, # of connection points: 2
#     Edge 55, Type (0, 1), BuildingBlock: TEMPAE_clean_linker_10, # of connection points: 2
#     Edge 56, Type (0, 1), BuildingBlock: TEMPAE_clean_linker_10, # of connection points: 2
#     Edge 57, Type (0, 1), BuildingBlock: TEMPAE_clean_linker_10, # of connection points: 2
#     Edge 58, Type (0, 1), BuildingBlock: TEMPAE_clean_linker_10, # of connection points: 2
#     Edge 59, Type (0, 1), BuildingBlock: TEMPAE_clean_linker_10, # of connection points: 2
#     Edge 60, Type (0, 1), BuildingBlock: TEMPAE_clean_linker_10, # of connection points: 2
#     Edge 61, Type (0, 1), BuildingBlock: TEMPAE_clean_linker_10, # of connection points: 2
#     Edge 62, Type (0, 1), BuildingBlock: TEMPAE_clean_linker_10, # of connection points: 2
#     Edge 63, Type (0, 1), BuildingBlock: TEMPAE_clean_linker_10, # of connection points: 2
#     Edge 64, Type (0, 1), BuildingBlock: TEMPAE_clean_linker_10, # of connection points: 2
#     Edge 65, Type (0, 1), BuildingBlock: TEMPAE_clean_linker_10, # of connection points: 2
#     Edge 66, Type (0, 1), BuildingBlock: TEMPAE_clean_linker_10, # of connection points: 2
#     Edge 67, Type (0, 1), BuildingBlock: TEMPAE_clean_linker_10, # of connection points: 2
#     Edge 68, Type (0, 1), BuildingBlock: TEMPAE_clean_linker_10, # of connection points: 2
#     Edge 69, Type (0, 1), BuildingBlock: TEMPAE_clean_linker_10, # of connection points: 2
#     Edge 70, Type (0, 1), BuildingBlock: TEMPAE_clean_linker_10, # of connection points: 2
#     Edge 71, Type (0, 1), BuildingBlock: TEMPAE_clean_linker_10, # of connection points: 2
#     Edge 72, Type (0, 1), BuildingBlock: TEMPAE_clean_linker_10, # of connection points: 2
#     Edge 73, Type (0, 1), BuildingBlock: TEMPAE_clean_linker_10, # of connection points: 2
#     Edge 74, Type (0, 1), BuildingBlock: TEMPAE_clean_linker_10, # of connection points: 2
#     Edge 75, Type (0, 1), BuildingBlock: TEMPAE_clean_linker_10, # of connection points: 2
#     Edge 76, Type (0, 1), BuildingBlock: TEMPAE_clean_linker_10, # of connection points: 2
#     Edge 77, Type (0, 1), BuildingBlock: TEMPAE_clean_linker_10, # of connection points: 2
#     Edge 78, Type (0, 1), BuildingBlock: TEMPAE_clean_linker_10, # of connection points: 2
#     Edge 79, Type (0, 1), BuildingBlock: TEMPAE_clean_linker_10, # of connection points: 2
#     Edge 80, Type (0, 1), BuildingBlock: TEMPAE_clean_linker_10, # of connection points: 2
#     Edge 81, Type (0, 1), BuildingBlock: TEMPAE_clean_linker_10, # of connection points: 2
#     Edge 82, Type (0, 1), BuildingBlock: TEMPAE_clean_linker_10, # of connection points: 2
#     Edge 83, Type (0, 1), BuildingBlock: TEMPAE_clean_linker_10, # of connection points: 2
#     Edge 84, Type (0, 1), BuildingBlock: TEMPAE_clean_linker_10, # of connection points: 2
#     Edge 85, Type (0, 1), BuildingBlock: TEMPAE_clean_linker_10, # of connection points: 2
#     Edge 86, Type (0, 1), BuildingBlock: TEMPAE_clean_linker_10, # of connection points: 2
#     Edge 87, Type (0, 1), BuildingBlock: TEMPAE_clean_linker_10, # of connection points: 2
#     Edge 88, Type (0, 1), BuildingBlock: TEMPAE_clean_linker_10, # of connection points: 2
#     Edge 89, Type (0, 1), BuildingBlock: TEMPAE_clean_linker_10, # of connection points: 2
#     Edge 90, Type (0, 1), BuildingBlock: TEMPAE_clean_linker_10, # of connection points: 2
#     Edge 91, Type (0, 1), BuildingBlock: TEMPAE_clean_linker_10, # of connection points: 2
#     Edge 92, Type (0, 1), BuildingBlock: TEMPAE_clean_linker_10, # of connection points: 2
#     Edge 93, Type (0, 1), BuildingBlock: TEMPAE_clean_linker_10, # of connection points: 2
#     Edge 94, Type (0, 1), BuildingBlock: TEMPAE_clean_linker_10, # of connection points: 2
#     Edge 95, Type (0, 1), BuildingBlock: TEMPAE_clean_linker_10, # of connection points: 2
#     Edge 96, Type (0, 1), BuildingBlock: TEMPAE_clean_linker_10, # of connection points: 2
#     Edge 97, Type (0, 1), BuildingBlock: TEMPAE_clean_linker_10, # of connection points: 2
#     Edge 98, Type (0, 1), BuildingBlock: TEMPAE_clean_linker_10, # of connection points: 2
#     Edge 99, Type (0, 1), BuildingBlock: TEMPAE_clean_linker_10, # of connection points: 2
#     Edge 100, Type (0, 1), BuildingBlock: TEMPAE_clean_linker_10, # of connection points: 2
#     Edge 101, Type (0, 1), BuildingBlock: TEMPAE_clean_linker_10, # of connection points: 2
#     Edge 102, Type (0, 1), BuildingBlock: TEMPAE_clean_linker_10, # of connection points: 2
#     Edge 103, Type (0, 1), BuildingBlock: TEMPAE_clean_linker_10, # of connection points: 2
#     Edge 104, Type (0, 1), BuildingBlock: TEMPAE_clean_linker_10, # of connection points: 2
#     Edge 105, Type (0, 1), BuildingBlock: TEMPAE_clean_linker_10, # of connection points: 2
#     Edge 106, Type (0, 1), BuildingBlock: TEMPAE_clean_linker_10, # of connection points: 2
#     Edge 107, Type (0, 1), BuildingBlock: TEMPAE_clean_linker_10, # of connection points: 2
#     Edge 108, Type (0, 1), BuildingBlock: TEMPAE_clean_linker_10, # of connection points: 2
#     Edge 109, Type (0, 1), BuildingBlock: TEMPAE_clean_linker_10, # of connection points: 2
#     Edge 110, Type (0, 1), BuildingBlock: TEMPAE_clean_linker_10, # of connection points: 2
#     Edge 111, Type (0, 1), BuildingBlock: TEMPAE_clean_linker_10, # of connection points: 2
#     Edge 112, Type (0, 1), BuildingBlock: TEMPAE_clean_linker_10, # of connection points: 2
#     Edge 113, Type (0, 1), BuildingBlock: TEMPAE_clean_linker_10, # of connection points: 2
#     Edge 114, Type (0, 1), BuildingBlock: TEMPAE_clean_linker_10, # of connection points: 2
#     Edge 115, Type (0, 1), BuildingBlock: TEMPAE_clean_linker_10, # of connection points: 2
#     Edge 116, Type (0, 1), BuildingBlock: TEMPAE_clean_linker_10, # of connection points: 2
#     Edge 117, Type (0, 1), BuildingBlock: TEMPAE_clean_linker_10, # of connection points: 2
#     Edge 118, Type (0, 1), BuildingBlock: TEMPAE_clean_linker_10, # of connection points: 2
#     Edge 119, Type (0, 1), BuildingBlock: TEMPAE_clean_linker_10, # of connection points: 2
# Relax obj value: 0.119
# Max RMSD: 0.173
# Mean RMSD: 0.085
data_MOF--net-bwt--node1-WUSLED_clean_sbu_0--node2-BETDAH_clean_linker_0--edge1-TEMPAE_clean_linker_10
_symmetry_space_group_name_H-M    P1
_symmetry_Int_Tables_number       1
_symmetry_cell_setting            triclinic
loop_
_symmetry_equiv_pos_as_xyz
'x, y, z'
_cell_length_a     69.446712
_cell_length_b     69.440194
_cell_length_c     69.477623
_cell_angle_alpha  95.130022
_cell_angle_beta   95.137278
_cell_angle_gamma 95.10768
loop_
_atom_site_label
_atom_site_type_symbol
_atom_site_fract_x
_atom_site_fract_y
_atom_site_fract_z
_atom_type_partial_charge
C0 C 0.33276 0.64526 0.36823 0.0
C1 C 0.34638 0.63774 0.38093 0.0
C2 C 0.37191 0.64526 0.36007 0.0
C3 C 0.36571 0.63765 0.37686 0.0
C4 C 0.35807 0.65277 0.34739 0.0
C5 C 0.33869 0.65273 0.35145 0.0
U6 U 0.29474 0.63034 0.40039 0.0
O7 O 0.27041 0.64487 0.41134 0.0
O8 O 0.26484 0.61643 0.39419 0.0
C9 C 0.25729 0.63125 0.40271 0.0
C10 C 0.31235 0.64475 0.37232 0.0
C11 C 0.23994 0.63751 0.39202 0.0
C12 C 0.22232 0.66175 0.37655 0.0
C13 C 0.23949 0.6562 0.38579 0.0
C14 C 0.20607 0.62995 0.37942 0.0
C15 C 0.20541 0.64866 0.37328 0.0
C16 C 0.22311 0.62448 0.38868 0.0
C17 C 0.31276 0.60389 0.44405 0.0
C18 C 0.30425 0.60425 0.47722 0.0
C19 C 0.31799 0.57636 0.46257 0.0
C20 C 0.31891 0.58531 0.44537 0.0
C21 C 0.31114 0.58593 0.47896 0.0
C22 C 0.30504 0.61312 0.46001 0.0
C23 C 0.31559 0.61375 0.4264 0.0
O24 O 0.30299 0.62728 0.37053 0.0
O25 O 0.30925 0.65531 0.38821 0.0
O26 O 0.31388 0.63252 0.42758 0.0
O27 O 0.30755 0.60444 0.40993 0.0
H28 H 0.34199 0.63177 0.39393 0.0
H29 H 0.37569 0.63134 0.3868 0.0
H30 H 0.3622 0.659 0.33447 0.0
H31 H 0.3283 0.65849 0.34146 0.0
H32 H 0.2223 0.67622 0.3719 0.0
H33 H 0.25229 0.66655 0.38817 0.0
H34 H 0.19324 0.61962 0.37746 0.0
H35 H 0.22307 0.61006 0.3935 0.0
H36 H 0.29889 0.61224 0.48936 0.0
H37 H 0.3229 0.56203 0.46301 0.0
H38 H 0.3248 0.57784 0.43319 0.0
H39 H 0.30009 0.62743 0.45944 0.0
C40 C 0.16802 0.34166 0.74874 0.0
C41 C 0.15692 0.3555 0.74072 0.0
C42 C 0.12743 0.33332 0.73922 0.0
C43 C 0.13689 0.35135 0.73599 0.0
C44 C 0.1386 0.31944 0.74709 0.0
C45 C 0.15866 0.32355 0.75172 0.0
U46 U 0.21087 0.37062 0.77971 0.0
O47 O 0.23807 0.36123 0.79312 0.0
O48 O 0.23901 0.38334 0.7724 0.0
C49 C 0.24896 0.37229 0.78315 0.0
C50 C 0.18922 0.34588 0.75416 0.0
C51 C 0.26498 0.36341 0.7743 0.0
C52 C 0.28076 0.35274 0.74592 0.0
C53 C 0.26424 0.3584 0.7542 0.0
C54 C 0.29857 0.35596 0.77784 0.0
C55 C 0.29827 0.35195 0.75761 0.0
C56 C 0.28209 0.36168 0.78608 0.0
C57 C 0.20167 0.41032 0.81821 0.0
C58 C 0.22447 0.43811 0.83103 0.0
C59 C 0.20087 0.42491 0.85122 0.0
C60 C 0.19346 0.41099 0.83595 0.0
C61 C 0.21654 0.43852 0.84895 0.0
C62 C 0.2172 0.42406 0.81583 0.0
C63 C 0.19435 0.39479 0.8027 0.0
O64 O 0.19727 0.36267 0.74993 0.0
O65 O 0.19557 0.34146 0.77147 0.0
O66 O 0.19725 0.37706 0.8067 0.0
O67 O 0.19791 0.39812 0.78496 0.0
H68 H 0.16364 0.36958 0.73812 0.0
H69 H 0.12885 0.36227 0.72963 0.0
H70 H 0.1318 0.30549 0.74999 0.0
H71 H 0.16686 0.31259 0.75782 0.0
H72 H 0.28001 0.3495 0.73031 0.0
H73 H 0.25113 0.35952 0.74483 0.0
H74 H 0.31185 0.35571 0.78723 0.0
H75 H 0.28296 0.36554 0.80161 0.0
H76 H 0.23672 0.44826 0.82897 0.0
H77 H 0.19443 0.42496 0.86486 0.0
H78 H 0.1815 0.40053 0.83809 0.0
H79 H 0.22395 0.42378 0.80235 0.0
C80 C 0.7391 0.0106 0.63867 0.0
C81 C 0.7534 0.01641 0.62678 0.0
C82 C 0.77872 0.00968 0.6511 0.0
C83 C 0.77303 0.01602 0.63296 0.0
C84 C 0.76432 0.00435 0.66318 0.0
C85 C 0.74464 0.00477 0.65697 0.0
U86 U 0.70161 0.00976 0.59611 0.0
O87 O 0.67482 0.99055 0.58722 0.0
O88 O 0.67359 0.0221 0.59234 0.0
C89 C 0.66373 0.00492 0.58855 0.0
C90 C 0.7185 0.00916 0.63128 0.0
C91 C 0.64644 0.00187 0.59907 0.0
C92 C 0.62895 0.98691 0.62356 0.0
C93 C 0.64571 0.9894 0.6139 0.0
C94 C 0.61364 0.00939 0.60375 0.0
C95 C 0.61284 0.99703 0.61866 0.0
C96 C 0.63028 0.01173 0.59402 0.0
C97 C 0.71726 0.01475 0.54626 0.0
C98 C 0.6953 0.00335 0.51757 0.0
C99 C 0.72446 0.02442 0.51475 0.0
C100 C 0.7293 0.02509 0.53481 0.0
C101 C 0.70755 0.01325 0.50583 0.0
C102 C 0.70002 0.00423 0.53757 0.0
C103 C 0.72265 0.01477 0.56719 0.0
O104 O 0.71245 0.02499 0.62469 0.0
O105 O 0.71259 0.99334 0.61968 0.0
O106 O 0.71926 0.9979 0.57408 0.0
O107 O 0.71718 0.02933 0.57813 0.0
H108 H 0.74936 0.02085 0.61253 0.0
H109 H 0.78377 0.02048 0.62344 0.0
H110 H 0.76823 0.99922 0.67714 0.0
H111 H 0.73374 1.00006 0.66624 0.0
H112 H 0.62872 0.97742 0.63511 0.0
H113 H 0.65807 0.98169 0.61809 0.0
H114 H 0.60135 0.0172 0.59956 0.0
H115 H 0.63055 0.02134 0.58256 0.0
H116 H 0.68236 0.99432 0.51126 0.0
H117 H 0.73407 0.03246 0.50622 0.0
H118 H 0.74254 0.03349 0.54135 0.0
H119 H 0.69041 0.9963 0.54621 0.0
C120 C 0.75375 0.99546 0.2628 0.0
C121 C 0.74246 0.01113 0.26076 0.0
C122 C 0.71514 0.9933 0.27318 0.0
C123 C 0.72337 0.01001 0.26576 0.0
C124 C 0.72663 0.97784 0.27565 0.0
C125 C 0.7457 0.97894 0.27062 0.0
U126 U 0.78337 0.98497 0.22116 0.0
O127 O 0.80829 0.00099 0.21036 0.0
O128 O 0.81054 0.97132 0.21849 0.0
C129 C 0.8196 0.98704 0.21299 0.0
C130 C 0.77323 0.99572 0.25555 0.0
C131 C 0.83933 0.99278 0.22261 0.0
C132 C 0.86323 0.01557 0.2427 0.0
C133 C 0.84402 0.01018 0.23477 0.0
C134 C 0.87305 0.98603 0.22682 0.0
C135 C 0.87801 0.00364 0.23859 0.0
C136 C 0.85396 0.98073 0.21887 0.0
C137 C 0.75359 0.96412 0.17369 0.0
C138 C 0.76807 0.95426 0.14429 0.0
C139 C 0.73329 0.95607 0.14332 0.0
C140 C 0.73523 0.96184 0.16321 0.0
C141 C 0.74971 0.95249 0.13361 0.0
C142 C 0.77001 0.96014 0.16422 0.0
C143 C 0.75531 0.97141 0.19428 0.0
O144 O 0.77925 0.97859 0.25103 0.0
O145 O 0.77675 0.00805 0.24268 0.0
O146 O 0.76112 0.99 0.1981 0.0
O147 O 0.76377 0.96048 0.20632 0.0
H148 H 0.74821 0.02414 0.25489 0.0
H149 H 0.71497 0.02215 0.26345 0.0
H150 H 0.72105 0.96492 0.28177 0.0
H151 H 0.75403 0.96669 0.27264 0.0
H152 H 0.86658 0.02924 0.25166 0.0
H153 H 0.83295 0.01972 0.23792 0.0
H154 H 0.88396 0.97628 0.22371 0.0
H155 H 0.85063 0.96721 0.20961 0.0
H156 H 0.78098 0.95177 0.13712 0.0
H157 H 0.71896 0.95463 0.13547 0.0
H158 H 0.72242 0.96483 0.17035 0.0
H159 H 0.78432 0.96193 0.17216 0.0
C160 C 0.37288 0.34595 0.64722 0.0
C161 C 0.38387 0.35941 0.63764 0.0
C162 C 0.36484 0.38508 0.64905 0.0
C163 C 0.3798 0.37881 0.63845 0.0
C164 C 0.354 0.37163 0.65876 0.0
C165 C 0.35796 0.35217 0.65781 0.0
U166 U 0.40455 0.30798 0.63042 0.0
O167 O 0.41628 0.28372 0.6446 0.0
O168 O 0.39817 0.27807 0.61671 0.0
C169 C 0.40734 0.27056 0.63121 0.0
C170 C 0.37699 0.32548 0.64605 0.0
C171 C 0.39731 0.25324 0.63816 0.0
C172 C 0.36794 0.23256 0.64187 0.0
C173 C 0.37695 0.25011 0.63702 0.0
C174 C 0.39949 0.2214 0.64974 0.0
C175 C 0.37912 0.21787 0.64801 0.0
C176 C 0.40846 0.23888 0.64484 0.0
C177 C 0.44728 0.32662 0.60344 0.0
C178 C 0.4721 0.30672 0.59283 0.0
C179 C 0.47236 0.34004 0.58494 0.0
C180 C 0.45576 0.34215 0.59458 0.0
C181 C 0.48076 0.32233 0.58399 0.0
C182 C 0.45544 0.30885 0.60247 0.0
C183 C 0.43002 0.32937 0.6137 0.0
O184 O 0.37467 0.31638 0.62845 0.0
O185 O 0.39318 0.32221 0.65597 0.0
O186 O 0.43186 0.32697 0.63231 0.0
O187 O 0.41348 0.32127 0.60464 0.0
H188 H 0.39552 0.35486 0.62945 0.0
H189 H 0.38837 0.38895 0.63089 0.0
H190 H 0.34222 0.37615 0.66676 0.0
H191 H 0.3493 0.34196 0.66521 0.0
H192 H 0.35222 0.23039 0.64058 0.0
H193 H 0.36803 0.26103 0.63198 0.0
H194 H 0.40855 0.21035 0.65417 0.0
H195 H 0.42418 0.24096 0.64575 0.0
H196 H 0.47816 0.29287 0.59225 0.0
H197 H 0.47887 0.35244 0.5786 0.0
H198 H 0.44964 0.35598 0.59526 0.0
H199 H 0.44899 0.29669 0.60922 0.0
C200 C 0.27046 0.74411 0.00079 0.0
C201 C 0.26646 0.73273 0.01593 0.0
C202 C 0.26075 0.7035 0.99328 0.0
C203 C 0.26177 0.71272 0.01227 0.0
C204 C 0.2635 0.71508 0.97793 0.0
C205 C 0.2685 0.73514 0.98166 0.0
U206 U 0.26752 0.79972 0.00777 0.0
O207 O 0.2885 0.82355 0.00154 0.0
O208 O 0.28287 0.8197 0.03162 0.0
C209 C 0.29118 0.83087 0.01981 0.0
C210 C 0.27877 0.76457 0.00545 0.0
C211 C 0.28873 0.85165 0.02333 0.0
C212 C 0.3024 0.88529 0.02602 0.0
C213 C 0.30455 0.86548 0.02264 0.0
C214 C 0.26857 0.87761 0.03097 0.0
C215 C 0.2844 0.89155 0.03025 0.0
C216 C 0.27069 0.85782 0.02743 0.0
C217 C 0.2125 0.79062 0.99189 0.0
C218 C 0.18057 0.77696 0.99848 0.0
C219 C 0.19053 0.77224 0.96601 0.0
C220 C 0.20843 0.78278 0.97239 0.0
C221 C 0.17638 0.76932 0.97897 0.0
C222 C 0.19838 0.78755 0.00483 0.0
C223 C 0.2306 0.80322 0.99864 0.0
O224 O 0.27928 0.7757 0.99109 0.0
O225 O 0.27406 0.77355 0.02158 0.0
O226 O 0.23805 0.80181 0.01649 0.0
O227 O 0.2438 0.80486 0.98628 0.0
H228 H 0.26777 0.73915 0.0308 0.0
H229 H 0.26018 0.70439 0.02459 0.0
H230 H 0.26255 0.70857 0.96309 0.0
H231 H 0.27153 0.74346 0.96963 0.0
H232 H 0.31486 0.89572 0.02548 0.0
H233 H 0.31857 0.86096 0.0195 0.0
H234 H 0.25447 0.88203 0.03392 0.0
H235 H 0.25825 0.84734 0.02786 0.0
H236 H 0.16984 0.77526 0.00875 0.0
H237 H 0.18772 0.76645 0.95091 0.0
H238 H 0.21891 0.78502 0.96197 0.0
H239 H 0.20094 0.79369 0.01983 0.0
C240 C 0.75791 0.16814 0.33512 0.0
C241 C 0.77213 0.15621 0.34111 0.0
C242 C 0.7499 0.12732 0.33046 0.0
C243 C 0.76821 0.13601 0.33872 0.0
C244 C 0.73577 0.13937 0.32424 0.0
C245 C 0.73976 0.15961 0.32656 0.0
U246 U 0.78666 0.21155 0.36361 0.0
O247 O 0.7986 0.23968 0.35504 0.0
O248 O 0.778 0.23875 0.37726 0.0
C249 C 0.78821 0.24963 0.36653 0.0
C250 C 0.76161 0.1894 0.33884 0.0
C251 C 0.77839 0.26535 0.35823 0.0
C252 C 0.74934 0.27848 0.34486 0.0
C253 C 0.75888 0.26261 0.35043 0.0
C254 C 0.77897 0.29972 0.35402 0.0
C255 C 0.75918 0.2973 0.34698 0.0
C256 C 0.78845 0.28389 0.35958 0.0
C257 C 0.82576 0.20267 0.40267 0.0
C258 C 0.84024 0.22859 0.4268 0.0
C259 C 0.85467 0.19809 0.42347 0.0
C260 C 0.8402 0.19099 0.40857 0.0
C261 C 0.85481 0.21696 0.43275 0.0
C262 C 0.82588 0.22154 0.41183 0.0
C263 C 0.81069 0.19518 0.38693 0.0
O264 O 0.75733 0.19658 0.3559 0.0
O265 O 0.77847 0.19689 0.33425 0.0
O266 O 0.81449 0.19917 0.36944 0.0
O267 O 0.79282 0.1979 0.39052 0.0
H268 H 0.78622 0.16254 0.34788 0.0
H269 H 0.77952 0.1272 0.34341 0.0
H270 H 0.72145 0.13319 0.31806 0.0
H271 H 0.72855 0.16861 0.32202 0.0
H272 H 0.73416 0.2761 0.33929 0.0
H273 H 0.75089 0.24836 0.3492 0.0
H274 H 0.78693 0.314 0.35612 0.0
H275 H 0.8035 0.28628 0.36563 0.0
H276 H 0.84017 0.2433 0.43344 0.0
H277 H 0.8657 0.1888 0.42779 0.0
H278 H 0.84031 0.1764 0.40163 0.0
H279 H 0.81493 0.23084 0.40734 0.0
C280 C 0.63491 0.73299 0.98795 0.0
C281 C 0.62598 0.74951 0.99403 0.0
C282 C 0.65106 0.77026 0.98148 0.0
C283 C 0.63402 0.76798 0.9909 0.0
C284 C 0.66023 0.75366 0.97584 0.0
C285 C 0.65217 0.73516 0.97902 0.0
U286 U 0.58973 0.70179 0.9956 0.0
O287 O 0.57606 0.6745 0.97972 0.0
O288 O 0.58464 0.67579 0.01104 0.0
C289 C 0.57794 0.66477 0.99505 0.0
C290 C 0.62536 0.71353 0.98944 0.0
C291 C 0.58657 0.64636 0.99211 0.0
C292 C 0.61327 0.6281 0.98341 0.0
C293 C 0.60501 0.64573 0.98548 0.0
C294 C 0.5846 0.61162 0.9944 0.0
C295 C 0.60322 0.61087 0.98804 0.0
C296 C 0.57636 0.62922 0.9964 0.0
C297 C 0.54402 0.72552 0.00395 0.0
C298 C 0.51475 0.70528 0.00846 0.0
C299 C 0.51262 0.73813 0.99978 0.0
C300 C 0.53282 0.74074 0.99996 0.0
C301 C 0.50332 0.7202 0.00356 0.0
C302 C 0.53493 0.70789 0.00856 0.0
C303 C 0.5648 0.7274 0.00131 0.0
O304 O 0.62028 0.71024 0.00673 0.0
O305 O 0.61164 0.70756 0.97537 0.0
O306 O 0.56884 0.72081 0.98397 0.0
O307 O 0.57637 0.72199 0.01544 0.0
H308 H 0.61254 0.74808 0.00084 0.0
H309 H 0.62676 0.78048 0.99567 0.0
H310 H 0.67325 0.75491 0.96836 0.0
H311 H 0.65913 0.72252 0.97406 0.0
H312 H 0.62755 0.62798 0.97832 0.0
H313 H 0.61307 0.65889 0.98208 0.0
H314 H 0.57662 0.5987 0.99841 0.0
H315 H 0.56213 0.62951 0.0016 0.0
H316 H 0.50804 0.69139 0.01166 0.0
H317 H 0.50425 0.74981 0.99569 0.0
H318 H 0.53963 0.75438 0.99621 0.0
H319 H 0.54339 0.69593 0.01157 0.0
C320 C 0.65106 0.37238 0.32921 0.0
C321 C 0.65202 0.38675 0.34494 0.0
C322 C 0.65215 0.36202 0.36769 0.0
C323 C 0.65266 0.38164 0.36398 0.0
C324 C 0.6515 0.3477 0.35189 0.0
C325 C 0.65099 0.35285 0.33283 0.0
U326 U 0.63467 0.40771 0.29497 0.0
O327 O 0.64839 0.42088 0.27133 0.0
O328 O 0.61972 0.4043 0.26539 0.0
C329 C 0.63433 0.41352 0.25809 0.0
C330 C 0.64898 0.37767 0.30909 0.0
C331 C 0.64049 0.404 0.24018 0.0
C332 C 0.65479 0.37776 0.22271 0.0
C333 C 0.6493 0.38657 0.24009 0.0
C334 C 0.64292 0.40387 0.20552 0.0
C335 C 0.65149 0.38624 0.20517 0.0
C336 C 0.63747 0.41263 0.22284 0.0
C337 C 0.61196 0.45076 0.32044 0.0
C338 C 0.59612 0.47569 0.30452 0.0
C339 C 0.6002 0.47735 0.33965 0.0
C340 C 0.60941 0.46028 0.33852 0.0
C341 C 0.59341 0.48529 0.32268 0.0
C342 C 0.60533 0.45854 0.30341 0.0
C343 C 0.62111 0.43251 0.31989 0.0
O344 O 0.63098 0.37706 0.30121 0.0
O345 O 0.65974 0.39337 0.30588 0.0
O346 O 0.63938 0.43359 0.3162 0.0
O347 O 0.61058 0.41722 0.31069 0.0
H348 H 0.65207 0.40195 0.3425 0.0
H349 H 0.65349 0.39305 0.37581 0.0
H350 H 0.65097 0.33246 0.35422 0.0
H351 H 0.65017 0.34155 0.32089 0.0
H352 H 0.6612 0.36412 0.22292 0.0
H353 H 0.65177 0.37973 0.25339 0.0
H354 H 0.64044 0.41096 0.19237 0.0
H355 H 0.63082 0.42616 0.22267 0.0
H356 H 0.59089 0.48126 0.29116 0.0
H357 H 0.59869 0.48446 0.35387 0.0
H358 H 0.61452 0.45448 0.35181 0.0
H359 H 0.60715 0.45128 0.28932 0.0
C360 C 0.01136 0.25923 0.75034 0.0
C361 C 0.02543 0.25541 0.73762 0.0
C362 C 0.00173 0.25641 0.70977 0.0
C363 C 0.02066 0.25388 0.71754 0.0
C364 C 0.98734 0.25883 0.72255 0.0
C365 C 0.99208 0.26017 0.74262 0.0
U366 U 0.01232 0.25531 0.80584 0.0
O367 O 0.037 0.26321 0.8282 0.0
O368 O 0.01139 0.27961 0.82812 0.0
C369 C 0.02786 0.27633 0.83756 0.0
C370 C 0.01764 0.26524 0.77106 0.0
C371 C 0.02714 0.27448 0.85838 0.0
C372 C 0.04169 0.28181 0.89162 0.0
C373 C 0.04244 0.28318 0.87173 0.0
C374 C 0.01035 0.26289 0.88492 0.0
C375 C 0.02552 0.27184 0.89839 0.0
C376 C 0.0112 0.2641 0.86506 0.0
C377 C 0.98078 0.20663 0.79594 0.0
C378 C 0.96512 0.17374 0.79257 0.0
C379 C 0.97587 0.18801 0.7643 0.0
C380 C 0.98245 0.2053 0.77589 0.0
C381 C 0.96773 0.17186 0.77269 0.0
C382 C 0.97161 0.19099 0.80409 0.0
C383 C 0.9906 0.22306 0.80894 0.0
O384 O 0.00449 0.27204 0.78159 0.0
O385 O 0.02913 0.25429 0.7803 0.0
O386 O 0.00965 0.2243 0.80985 0.0
O387 O 0.98351 0.23992 0.80793 0.0
H388 H 0.0404 0.25466 0.74318 0.0
H389 H 0.03201 0.25159 0.70811 0.0
H390 H 0.97266 0.26104 0.71713 0.0
H391 H 0.98085 0.26313 0.75203 0.0
H392 H 0.05352 0.28891 0.90172 0.0
H393 H 0.05488 0.29117 0.86679 0.0
H394 H 0.99785 0.2549 0.88975 0.0
H395 H 0.99935 0.25706 0.85493 0.0
H396 H 0.95872 0.16158 0.79935 0.0
H397 H 0.97818 0.18691 0.74904 0.0
H398 H 0.98964 0.21725 0.76941 0.0
H399 H 0.97026 0.19179 0.81956 0.0
C400 C 0.35244 0.75423 0.16491 0.0
C401 C 0.34504 0.76808 0.15339 0.0
C402 C 0.34222 0.74483 0.12462 0.0
C403 C 0.33993 0.76339 0.13348 0.0
C404 C 0.34972 0.73105 0.13612 0.0
C405 C 0.35468 0.73568 0.15606 0.0
U406 U 0.38184 0.78367 0.20887 0.0
O407 O 0.37258 0.79461 0.23703 0.0
O408 O 0.39516 0.77439 0.23594 0.0
C409 C 0.38388 0.7839 0.24681 0.0
C410 C 0.35752 0.75864 0.1861 0.0
C411 C 0.37511 0.77339 0.26192 0.0
C412 C 0.36725 0.74359 0.27673 0.0
C413 C 0.3733 0.753 0.261 0.0
C414 C 0.36381 0.77473 0.29409 0.0
C415 C 0.36287 0.75437 0.29366 0.0
C416 C 0.36993 0.78412 0.27841 0.0
C417 C 0.41994 0.8244 0.20288 0.0
C418 C 0.43951 0.8406 0.23144 0.0
C419 C 0.44242 0.85264 0.20004 0.0
C420 C 0.4285 0.8378 0.19149 0.0
C421 C 0.44798 0.8543 0.22016 0.0
C422 C 0.42559 0.82583 0.22289 0.0
C423 C 0.40498 0.8091 0.19401 0.0
O424 O 0.37491 0.7547 0.19278 0.0
O425 O 0.35263 0.77521 0.19402 0.0
O426 O 0.3871 0.81202 0.19741 0.0
O427 O 0.40907 0.79127 0.1962 0.0
H428 H 0.34316 0.78253 0.15972 0.0
H429 H 0.33437 0.77437 0.12495 0.0
H430 H 0.35146 0.71657 0.12975 0.0
H431 H 0.36021 0.72471 0.16462 0.0
H432 H 0.36685 0.72791 0.27596 0.0
H433 H 0.37716 0.74436 0.24842 0.0
H434 H 0.36023 0.78346 0.30674 0.0
H435 H 0.37118 0.79985 0.27941 0.0
H436 H 0.44364 0.84129 0.24691 0.0
H437 H 0.44849 0.86308 0.19099 0.0
H438 H 0.42425 0.83691 0.17602 0.0
H439 H 0.41914 0.81556 0.23191 0.0
C440 C 0.00219 0.6346 0.73812 0.0
C441 C 0.00805 0.62297 0.75265 0.0
C442 C 0.00368 0.64866 0.77762 0.0
C443 C 0.00888 0.62996 0.7722 0.0
C444 C 0.99826 0.66046 0.76297 0.0
C445 C 0.99749 0.65344 0.74336 0.0
U446 U 0.99563 0.59031 0.70231 0.0
O447 O 0.9758 0.58239 0.67575 0.0
O448 O 0.00736 0.58313 0.67447 0.0
C449 C 0.9901 0.58101 0.66466 0.0
C450 C 0.99953 0.62644 0.7177 0.0
C451 C 0.98863 0.59069 0.64668 0.0
C452 C 0.99687 0.59196 0.61358 0.0
C453 C 0.99758 0.58303 0.6308 0.0
C454 C 0.97781 0.61617 0.6277 0.0
C455 C 0.98709 0.60868 0.61189 0.0
C456 C 0.97866 0.6073 0.64504 0.0
C457 C 0.99507 0.54091 0.72126 0.0
C458 C 0.97914 0.51125 0.70342 0.0
C459 C 0.00531 0.50957 0.72857 0.0
C460 C 0.00721 0.52985 0.73206 0.0
C461 C 0.99109 0.50011 0.71437 0.0
C462 C 0.9812 0.53146 0.70672 0.0
C463 C 0.99718 0.56223 0.72501 0.0
O464 O 0.01412 0.61754 0.71158 0.0
O465 O 0.98254 0.61661 0.71243 0.0
O466 O 0.98135 0.57079 0.72102 0.0
O467 O 0.01274 0.57104 0.71899 0.0
H468 H 0.01161 0.60831 0.74887 0.0
H469 H 0.0134 0.62062 0.78309 0.0
H470 H 0.99399 0.67484 0.76667 0.0
H471 H 0.99275 0.66253 0.73231 0.0
H472 H 0.00399 0.58578 0.60156 0.0
H473 H 0.00526 0.57018 0.63177 0.0
H474 H 0.97032 0.62915 0.6268 0.0
H475 H 0.97171 0.6135 0.65716 0.0
H476 H 0.96824 0.50429 0.69222 0.0
H477 H 0.01465 0.50126 0.73722 0.0
H478 H 0.01809 0.53689 0.74322 0.0
H479 H 0.97188 0.53969 0.69795 0.0
C480 C 0.66259 0.35485 0.6288 0.0
C481 C 0.64859 0.36177 0.61599 0.0
C482 C 0.6235 0.35382 0.63709 0.0
C483 C 0.62923 0.36131 0.62012 0.0
C484 C 0.63753 0.34669 0.64976 0.0
C485 C 0.65695 0.34724 0.64566 0.0
U486 U 0.70036 0.3714 0.59686 0.0
O487 O 0.73 0.38608 0.60337 0.0
O488 O 0.72517 0.35781 0.58586 0.0
C489 C 0.73797 0.37158 0.59477 0.0
C490 C 0.68309 0.35621 0.62479 0.0
C491 C 0.7554 0.36542 0.60548 0.0
C492 C 0.77333 0.34096 0.62023 0.0
C493 C 0.75607 0.34657 0.61127 0.0
C494 C 0.7893 0.37304 0.61813 0.0
C495 C 0.79018 0.35412 0.62369 0.0
C496 C 0.77214 0.37858 0.60911 0.0
C497 C 0.68019 0.39694 0.55327 0.0
C498 C 0.6992 0.40956 0.52866 0.0
C499 C 0.66454 0.41224 0.5268 0.0
C500 C 0.66348 0.40302 0.54378 0.0
C501 C 0.68238 0.41556 0.51897 0.0
C502 C 0.69811 0.40033 0.54571 0.0
C503 C 0.6784 0.38695 0.57086 0.0
O504 O 0.68666 0.34595 0.60891 0.0
O505 O 0.69181 0.37396 0.62666 0.0
O506 O 0.68642 0.39656 0.58717 0.0
O507 O 0.6815 0.3685 0.56938 0.0
H508 H 0.65271 0.3677 0.60287 0.0
H509 H 0.6187 0.36675 0.61002 0.0
H510 H 0.63354 0.341 0.66303 0.0
H511 H 0.66756 0.34191 0.65574 0.0
H512 H 0.77349 0.32634 0.62449 0.0
H513 H 0.74336 0.3361 0.60868 0.0
H514 H 0.80206 0.38346 0.62028 0.0
H515 H 0.77203 0.39313 0.60464 0.0
H516 H 0.71318 0.41203 0.52308 0.0
H517 H 0.65127 0.41634 0.51954 0.0
H518 H 0.64951 0.40045 0.54941 0.0
H519 H 0.71117 0.39574 0.55292 0.0
C520 C 0.82494 0.65096 0.24829 0.0
C521 C 0.83779 0.64545 0.23478 0.0
C522 C 0.8654 0.65935 0.25738 0.0
C523 C 0.85785 0.64969 0.23925 0.0
C524 C 0.85244 0.66479 0.27087 0.0
C525 C 0.83238 0.66066 0.26633 0.0
U526 U 0.78158 0.62117 0.2193 0.0
O527 O 0.75414 0.6086 0.22848 0.0
O528 O 0.75372 0.63006 0.20709 0.0
C529 C 0.74356 0.61936 0.21799 0.0
C530 C 0.80383 0.64638 0.2439 0.0
C531 C 0.72839 0.62878 0.2277 0.0
C532 C 0.71619 0.64424 0.25635 0.0
C533 C 0.73151 0.63694 0.24709 0.0
C534 C 0.69476 0.63594 0.22672 0.0
C535 C 0.69755 0.64357 0.24633 0.0
C536 C 0.71003 0.62863 0.21753 0.0
C537 C 0.78876 0.58134 0.18027 0.0
C538 C 0.76426 0.55469 0.16835 0.0
C539 C 0.78861 0.56532 0.14767 0.0
C540 C 0.79688 0.57936 0.16251 0.0
C541 C 0.77214 0.55292 0.1504 0.0
C542 C 0.7724 0.56885 0.1831 0.0
C543 C 0.79695 0.59696 0.19533 0.0
O544 O 0.79658 0.65047 0.22677 0.0
O545 O 0.7969 0.6293 0.24842 0.0
O546 O 0.79448 0.59375 0.21335 0.0
O547 O 0.7937 0.61464 0.19146 0.0
H548 H 0.83231 0.63778 0.22082 0.0
H549 H 0.86747 0.64511 0.22866 0.0
H550 H 0.85781 0.67241 0.28487 0.0
H551 H 0.82267 0.66499 0.27694 0.0
H552 H 0.71884 0.65017 0.27141 0.0
H553 H 0.74565 0.63728 0.25516 0.0
H554 H 0.68056 0.63488 0.21865 0.0
H555 H 0.70734 0.62234 0.20258 0.0
H556 H 0.7514 0.54555 0.17075 0.0
H557 H 0.79501 0.56423 0.13401 0.0
H558 H 0.80945 0.58888 0.16002 0.0
H559 H 0.7657 0.57022 0.19658 0.0
C560 C 0.2618 0.00677 0.35555 0.0
C561 C 0.24616 0.00213 0.3663 0.0
C562 C 0.22369 0.0127 0.34138 0.0
C563 C 0.22727 0.00501 0.35926 0.0
C564 C 0.23941 0.01716 0.33056 0.0
C565 C 0.25834 0.0142 0.3376 0.0
U566 U 0.29618 1.00036 0.3989 0.0
O567 O 0.32139 0.98346 0.4027 0.0
O568 O 0.32487 0.01516 0.40971 0.0
C569 C 0.33352 0.99909 0.40784 0.0
C570 C 0.28176 0.00494 0.36363 0.0
C571 C 0.3516 1.00014 0.39827 0.0
C572 C 0.3729 0.01449 0.37636 0.0
C573 C 0.35525 0.01347 0.38465 0.0
C574 C 0.38327 0.98869 0.39495 0.0
C575 C 0.38707 0.00208 0.38142 0.0
C576 C 0.36572 0.98778 0.40333 0.0
C577 C 0.27639 0.99633 0.44735 0.0
C578 C 0.29825 0.99149 0.4754 0.0
C579 C 0.26703 0.00342 0.47983 0.0
C580 C 0.26279 0.00241 0.4597 0.0
C581 C 0.28498 0.99835 0.48791 0.0
C582 C 0.29403 0.99058 0.45528 0.0
C583 C 0.2729 0.99784 0.42643 0.0
O584 O 0.28934 0.01951 0.37619 0.0
O585 O 0.28487 0.98786 0.36941 0.0
O586 O 0.27654 0.98271 0.41504 0.0
O587 O 0.27985 0.01447 0.42092 0.0
H588 H 0.24862 0.9966 0.38033 0.0
H589 H 0.21554 0.00171 0.36807 0.0
H590 H 0.23708 0.02297 0.31667 0.0
H591 H 0.27028 0.01795 0.32918 0.0
H592 H 0.37539 0.02481 0.36582 0.0
H593 H 0.34451 0.02311 0.38046 0.0
H594 H 0.39399 0.97908 0.39926 0.0
H595 H 0.36321 0.97747 0.41388 0.0
H596 H 0.3121 0.98727 0.48115 0.0
H597 H 0.25661 0.00905 0.48902 0.0
H598 H 0.24918 0.00707 0.45379 0.0
H599 H 0.30477 0.98596 0.44592 0.0
C600 C 0.24821 0.00462 0.73621 0.0
C601 C 0.2564 0.02092 0.72813 0.0
C602 C 0.28698 0.00645 0.72644 0.0
C603 C 0.27557 0.02186 0.72339 0.0
C604 C 0.2785 0.98981 0.73376 0.0
C605 C 0.25933 0.98886 0.73848 0.0
U606 U 0.21903 0.01564 0.77814 0.0
O607 O 0.19211 0.02942 0.78117 0.0
O608 O 0.194 0.99958 0.78888 0.0
C609 C 0.18288 0.01373 0.78655 0.0
C610 C 0.22883 0.00473 0.74363 0.0
C611 C 0.16337 0.00808 0.7766 0.0
C612 C 0.14059 0.00451 0.74757 0.0
C613 C 0.15966 0.00798 0.7564 0.0
C614 C 0.12896 1.00033 0.77894 0.0
C615 C 0.12499 0.00108 0.75883 0.0
C616 C 0.14798 0.00384 0.78773 0.0
C617 C 0.24828 0.03633 0.82564 0.0
C618 C 0.23276 0.04546 0.85459 0.0
C619 C 0.26782 0.04574 0.85626 0.0
C620 C 0.26646 0.03974 0.83643 0.0
C621 C 0.25097 0.04843 0.8656 0.0
C622 C 0.23142 0.03939 0.83473 0.0
C623 C 0.24709 0.02901 0.80509 0.0
O624 O 0.22524 0.99246 0.75654 0.0
O625 O 0.22314 0.02199 0.74823 0.0
O626 O 0.2389 0.03997 0.7929 0.0
O627 O 0.24123 0.01044 0.80119 0.0
H628 H 0.24816 0.03319 0.72585 0.0
H629 H 0.28139 0.03465 0.7172 0.0
H630 H 0.28684 0.9777 0.7364 0.0
H631 H 0.25344 0.97598 0.74447 0.0
H632 H 0.13799 0.00532 0.73207 0.0
H633 H 0.17141 0.01118 0.74757 0.0
H634 H 0.1173 0.99741 0.78796 0.0
H635 H 0.15062 0.00375 0.80334 0.0
H636 H 0.21953 0.04721 0.86144 0.0
H637 H 0.28204 0.0481 0.86435 0.0
H638 H 0.2796 0.03748 0.82956 0.0
H639 H 0.21725 0.03674 0.82656 0.0
C640 C 0.6336 0.66107 0.35125 0.0
C641 C 0.61875 0.64648 0.34385 0.0
C642 C 0.64102 0.62165 0.34766 0.0
C643 C 0.62251 0.62698 0.34184 0.0
C644 C 0.65588 0.63627 0.35492 0.0
C645 C 0.65222 0.6558 0.35658 0.0
U646 U 0.60158 0.69838 0.37 0.0
O647 O 0.60844 0.72702 0.38681 0.0
O648 O 0.59156 0.72447 0.35822 0.0
C649 C 0.60021 0.73619 0.373 0.0
C650 C 0.62966 0.68161 0.35456 0.0
C651 C 0.61105 0.75417 0.36839 0.0
C652 C 0.62788 0.77335 0.3462 0.0
C653 C 0.61917 0.75551 0.35068 0.0
C654 C 0.6209 0.7885 0.37724 0.0
C655 C 0.6287 0.79008 0.35939 0.0
C656 C 0.61217 0.77074 0.38166 0.0
C657 C 0.55606 0.67967 0.39269 0.0
C658 C 0.54009 0.69218 0.42034 0.0
C659 C 0.52096 0.6742 0.39253 0.0
C660 C 0.53789 0.6718 0.38348 0.0
C661 C 0.52191 0.68433 0.41111 0.0
C662 C 0.55699 0.68995 0.4112 0.0
C663 C 0.57381 0.67651 0.38303 0.0
O664 O 0.61447 0.6867 0.34424 0.0
O665 O 0.631 0.6887 0.37287 0.0
O666 O 0.59048 0.68244 0.39324 0.0
O667 O 0.57343 0.68045 0.36484 0.0
H668 H 0.60415 0.65008 0.33998 0.0
H669 H 0.61082 0.616 0.3363 0.0
H670 H 0.67035 0.63257 0.35931 0.0
H671 H 0.66386 0.66678 0.36236 0.0
H672 H 0.63392 0.77405 0.33241 0.0
H673 H 0.61851 0.74288 0.3402 0.0
H674 H 0.62102 0.80113 0.38762 0.0
H675 H 0.60586 0.77006 0.39533 0.0
H676 H 0.54122 0.70021 0.43457 0.0
H677 H 0.50716 0.66781 0.38515 0.0
H678 H 0.5368 0.66365 0.36931 0.0
H679 H 0.57077 0.69622 0.41872 0.0
C680 C 0.70178 0.23035 0.0235 0.0
C681 C 0.70881 0.24327 0.03985 0.0
C682 C 0.69066 0.26853 0.02708 0.0
C683 C 0.70315 0.26212 0.0417 0.0
C684 C 0.68269 0.25512 0.01138 0.0
C685 C 0.68824 0.23623 0.00961 0.0
U686 U 0.74676 0.20439 0.02471 0.0
O687 O 0.7534 0.17507 0.03085 0.0
O688 O 0.75823 0.1852 0.00242 0.0
C689 C 0.75815 0.17059 0.0132 0.0
C690 C 0.71057 0.21206 0.01939 0.0
C691 C 0.74986 0.15159 0.00345 0.0
C692 C 0.7249 0.12429 0.99876 0.0
C693 C 0.73154 0.14313 0.00695 0.0
C694 C 0.75441 0.12258 0.98279 0.0
C695 C 0.73643 0.11369 0.98685 0.0
C696 C 0.76105 0.14133 0.99104 0.0
C697 C 0.79365 0.23475 0.04586 0.0
C698 C 0.82441 0.22118 0.05195 0.0
C699 C 0.82369 0.25597 0.05145 0.0
C700 C 0.80349 0.25341 0.04769 0.0
C701 C 0.83437 0.23988 0.05348 0.0
C702 C 0.80419 0.21862 0.04805 0.0
C703 C 0.77252 0.23239 0.04097 0.0
O704 O 0.72244 0.21261 0.0057 0.0
O705 O 0.71746 0.20385 0.03457 0.0
O706 O 0.76261 0.22044 0.05094 0.0
O707 O 0.76681 0.23022 0.0223 0.0
H708 H 0.71938 0.23914 0.05077 0.0
H709 H 0.7092 0.27174 0.05427 0.0
H710 H 0.67307 0.2593 0.99976 0.0
H711 H 0.68276 0.22655 0.99681 0.0
H712 H 0.71091 0.11788 0.002 0.0
H713 H 0.72257 0.15088 0.01636 0.0
H714 H 0.76376 0.11474 0.9739 0.0
H715 H 0.77523 0.14763 0.98817 0.0
H716 H 0.83231 0.20851 0.05324 0.0
H717 H 0.83097 0.27055 0.05273 0.0
H718 H 0.79556 0.266 0.046 0.0
H719 H 0.79681 0.20406 0.0465 0.0
C720 C 0.24473 0.83639 0.65504 0.0
C721 C 0.23154 0.84878 0.64776 0.0
C722 C 0.2537 0.87711 0.66078 0.0
C723 C 0.23595 0.86895 0.65066 0.0
C724 C 0.26684 0.86456 0.66802 0.0
C725 C 0.26237 0.8444 0.66518 0.0
U726 U 0.21613 0.79153 0.62755 0.0
O727 O 0.22537 0.76352 0.61666 0.0
O728 O 0.20393 0.76442 0.63807 0.0
C729 C 0.21492 0.75368 0.62804 0.0
C730 C 0.24043 0.81515 0.65182 0.0
C731 C 0.22449 0.7388 0.63823 0.0
C732 C 0.25348 0.72369 0.64856 0.0
C733 C 0.24481 0.7395 0.64161 0.0
C734 C 0.22165 0.70682 0.64996 0.0
C735 C 0.24199 0.70692 0.65226 0.0
C736 C 0.21301 0.72258 0.64296 0.0
C737 C 0.17784 0.79664 0.58626 0.0
C738 C 0.16519 0.76967 0.56245 0.0
C739 C 0.14717 0.79781 0.5668 0.0
C740 C 0.16163 0.80642 0.58108 0.0
C741 C 0.14877 0.77931 0.55738 0.0
C742 C 0.17954 0.77821 0.57683 0.0
C743 C 0.19257 0.80553 0.60183 0.0
O744 O 0.22322 0.80829 0.65606 0.0
O745 O 0.2452 0.80712 0.63528 0.0
O746 O 0.21065 0.80271 0.59917 0.0
O747 O 0.18833 0.80322 0.6196 0.0
H748 H 0.21785 0.84284 0.63981 0.0
H749 H 0.2254 0.87815 0.64507 0.0
H750 H 0.28077 0.87029 0.67558 0.0
H751 H 0.27278 0.83505 0.67078 0.0
H752 H 0.26918 0.7242 0.65003 0.0
H753 H 0.254 0.75189 0.63813 0.0
H754 H 0.21239 0.69427 0.65295 0.0
H755 H 0.19732 0.72176 0.64053 0.0
H756 H 0.16666 0.75527 0.55568 0.0
H757 H 0.13471 0.80558 0.56315 0.0
H758 H 0.16006 0.82063 0.58823 0.0
H759 H 0.19184 0.7703 0.58076 0.0
C760 C 0.35898 0.27013 0.02277 0.0
C761 C 0.36848 0.25347 0.01863 0.0
C762 C 0.34082 0.23308 0.02723 0.0
C763 C 0.35946 0.2351 0.02077 0.0
C764 C 0.33124 0.24984 0.03107 0.0
C765 C 0.34028 0.26822 0.02886 0.0
U766 U 0.40541 0.30168 0.01943 0.0
O767 O 0.41185 0.32692 0.00326 0.0
O768 O 0.41688 0.32985 0.03507 0.0
C769 C 0.41633 0.33879 0.01916 0.0
C770 C 0.36896 0.2895 0.02178 0.0
C771 C 0.40632 0.35652 0.01993 0.0
C772 C 0.37724 0.37281 0.02397 0.0
C773 C 0.38687 0.35599 0.024 0.0
C774 C 0.40648 0.39088 0.01598 0.0
C775 C 0.38688 0.39042 0.01977 0.0
C776 C 0.41611 0.37405 0.01606 0.0
C777 C 0.45251 0.27864 0.0171 0.0
C778 C 0.48233 0.29881 0.01439 0.0
C779 C 0.48354 0.2653 0.02133 0.0
C780 C 0.46329 0.263 0.02067 0.0
C781 C 0.49329 0.2833 0.01841 0.0
C782 C 0.4621 0.29651 0.0138 0.0
C783 C 0.43141 0.27659 0.0179 0.0
O784 O 0.38114 0.29593 0.03703 0.0
O785 O 0.37607 0.29233 0.00523 0.0
O786 O 0.42108 0.28105 0.00242 0.0
O787 O 0.42565 0.28394 0.03425 0.0
H788 H 0.38299 0.25471 0.01399 0.0
H789 H 0.36712 0.22249 0.01744 0.0
H790 H 0.31699 0.2488 0.03629 0.0
H791 H 0.33282 0.28097 0.03227 0.0
H792 H 0.36223 0.37203 0.02715 0.0
H793 H 0.37911 0.34252 0.02702 0.0
H794 H 0.41424 0.40413 0.01242 0.0
H795 H 0.43111 0.37465 0.01282 0.0
H796 H 0.48943 0.31291 0.01236 0.0
H797 H 0.4916 0.25306 0.02429 0.0
H798 H 0.45606 0.24913 0.02328 0.0
H799 H 0.45396 0.30878 0.01119 0.0
C800 C 0.35344 0.63711 0.65826 0.0
C801 C 0.35716 0.62301 0.64368 0.0
C802 C 0.35313 0.64585 0.61925 0.0
C803 C 0.35698 0.62731 0.62441 0.0
C804 C 0.34964 0.66002 0.63404 0.0
C805 C 0.34972 0.65565 0.65335 0.0
U806 U 0.36683 0.60309 0.69522 0.0
O807 O 0.3819 0.60815 0.72473 0.0
O808 O 0.35251 0.5929 0.71997 0.0
C809 C 0.36689 0.6006 0.73274 0.0
C810 C 0.35417 0.63261 0.67859 0.0
C811 C 0.36188 0.61158 0.75058 0.0
C812 C 0.33832 0.6244 0.77109 0.0
C813 C 0.34273 0.61556 0.75327 0.0
C814 C 0.37214 0.62581 0.78359 0.0
C815 C 0.35295 0.62936 0.78657 0.0
C816 C 0.37651 0.61696 0.76587 0.0
C817 C 0.38966 0.55786 0.6752 0.0
C818 C 0.40186 0.53363 0.695 0.0
C819 C 0.40442 0.53061 0.66034 0.0
C820 C 0.39546 0.5477 0.65874 0.0
C821 C 0.40771 0.52328 0.67847 0.0
C822 C 0.39291 0.55079 0.69337 0.0
C823 C 0.38068 0.576 0.67305 0.0
O824 O 0.34269 0.61736 0.68178 0.0
O825 O 0.37179 0.633 0.68735 0.0
O826 O 0.39113 0.5919 0.68095 0.0
O827 O 0.36227 0.57567 0.67616 0.0
H828 H 0.36013 0.6086 0.64721 0.0
H829 H 0.35962 0.61599 0.61353 0.0
H830 H 0.34694 0.67454 0.63076 0.0
H831 H 0.34698 0.66677 0.66446 0.0
H832 H 0.32338 0.62683 0.77292 0.0
H833 H 0.33108 0.61151 0.7418 0.0
H834 H 0.38384 0.62978 0.79502 0.0
H835 H 0.39136 0.61399 0.76423 0.0
H836 H 0.40436 0.52859 0.70923 0.0
H837 H 0.40836 0.52294 0.64723 0.0
H838 H 0.39302 0.55296 0.64459 0.0
H839 H 0.3886 0.55857 0.70626 0.0
C840 C 0.04483 0.76177 0.26901 0.0
C841 C 0.05795 0.76573 0.28573 0.0
C842 C 0.03953 0.74165 0.30192 0.0
C843 C 0.05537 0.75574 0.30202 0.0
C844 C 0.02659 0.73742 0.28496 0.0
C845 C 0.02926 0.74735 0.2686 0.0
U846 U 0.04241 0.77022 0.21461 0.0
O847 O 0.04742 0.74172 0.20054 0.0
O848 O 0.01764 0.74978 0.20156 0.0
C849 C 0.02899 0.73758 0.19402 0.0
C850 C 0.04728 0.77356 0.25269 0.0
C851 C 0.02503 0.73256 0.1729 0.0
C852 C 0.00444 0.71578 0.14519 0.0
C853 C 0.00884 0.71972 0.16531 0.0
C854 C 0.03253 0.73732 0.14008 0.0
C855 C 0.01619 0.72463 0.13232 0.0
C856 C 0.0368 0.74136 0.16011 0.0
C857 C 0.05718 0.8214 0.20473 0.0
C858 C 0.06209 0.85559 0.19989 0.0
C859 C 0.06362 0.84561 0.23251 0.0
C860 C 0.06018 0.82621 0.22488 0.0
C861 C 0.06414 0.86052 0.2201 0.0
C862 C 0.05853 0.83612 0.19225 0.0
C863 C 0.05079 0.80129 0.19699 0.0
O864 O 0.03129 0.77735 0.24271 0.0
O865 O 0.06111 0.76927 0.24177 0.0
O866 O 0.0633 0.78857 0.2004 0.0
O867 O 0.03308 0.79538 0.20056 0.0
H868 H 0.07003 0.77686 0.28631 0.0
H869 H 0.06547 0.75947 0.3149 0.0
H870 H 0.01436 0.7265 0.28434 0.0
H871 H 0.01901 0.74399 0.25579 0.0
H872 H 0.99166 0.70609 0.13973 0.0
H873 H 0.99947 0.71295 0.17496 0.0
H874 H 0.04216 0.74409 0.13067 0.0
H875 H 0.04927 0.75148 0.16559 0.0
H876 H 0.06226 0.86681 0.19001 0.0
H877 H 0.06533 0.849 0.24813 0.0
H878 H 0.05913 0.81498 0.23472 0.0
H879 H 0.05613 0.83262 0.17666 0.0
C880 C 0.66317 0.24655 0.81636 0.0
C881 C 0.65338 0.23854 0.83102 0.0
C882 C 0.67498 0.25904 0.85573 0.0
C883 C 0.65924 0.24473 0.85055 0.0
C884 C 0.68487 0.26679 0.84092 0.0
C885 C 0.67899 0.2606 0.82141 0.0
U886 U 0.63034 0.21509 0.77642 0.0
O887 O 0.61567 0.22279 0.74929 0.0
O888 O 0.63749 0.20178 0.74824 0.0
C889 C 0.6261 0.2123 0.73834 0.0
C890 C 0.65685 0.24062 0.79579 0.0
C891 C 0.63465 0.2221 0.72275 0.0
C892 C 0.64747 0.2514 0.70969 0.0
C893 C 0.6414 0.24192 0.72536 0.0
C894 C 0.6411 0.22113 0.68892 0.0
C895 C 0.64702 0.24117 0.69122 0.0
C896 C 0.63492 0.21171 0.70455 0.0
C897 C 0.59148 0.17728 0.7874 0.0
C898 C 0.57005 0.1599 0.76072 0.0
C899 C 0.56835 0.15065 0.79339 0.0
C900 C 0.58311 0.16536 0.80028 0.0
C901 C 0.56178 0.14763 0.77348 0.0
C902 C 0.58478 0.17455 0.76761 0.0
C903 C 0.60741 0.1923 0.79449 0.0
O904 O 0.66039 0.22301 0.78942 0.0
O905 O 0.63934 0.24479 0.7898 0.0
O906 O 0.60396 0.21011 0.7913 0.0
O907 O 0.62473 0.18812 0.79027 0.0
H908 H 0.64116 0.2276 0.82734 0.0
H909 H 0.65147 0.23828 0.86159 0.0
H910 H 0.69688 0.27798 0.84439 0.0
H911 H 0.68668 0.26694 0.81024 0.0
H912 H 0.65212 0.26681 0.71191 0.0
H913 H 0.64146 0.25018 0.73936 0.0
H914 H 0.64038 0.21291 0.67483 0.0
H915 H 0.62975 0.19641 0.70227 0.0
H916 H 0.56515 0.15814 0.74536 0.0
H917 H 0.56246 0.14131 0.80356 0.0
H918 H 0.58816 0.16726 0.8156 0.0
H919 H 0.59107 0.18366 0.75746 0.0
C920 C 1.0009 0.35975 0.28052 0.0
C921 C 0.9972 0.36952 0.26397 0.0
C922 C 0.99978 0.33991 0.24322 0.0
C923 C 0.99662 0.35968 0.24547 0.0
C924 C 0.00303 0.33008 0.25989 0.0
C925 C 0.0036 0.33995 0.27842 0.0
U926 U 0.00436 0.40753 0.31162 0.0
O927 O 0.99277 0.41611 0.33915 0.0
O928 O 0.02429 0.41859 0.33745 0.0
C929 C 0.01013 0.41943 0.34874 0.0
C930 C 0.00315 0.37047 0.29986 0.0
C931 C 0.0127 0.4094 0.36634 0.0
C932 C 0.00901 0.37999 0.38254 0.0
C933 C 0.00757 0.38934 0.3656 0.0
C934 C 0.02158 0.4105 0.40103 0.0
C935 C 0.01576 0.39053 0.40046 0.0
C936 C 0.01998 0.41989 0.38405 0.0
C937 C 1.00039 0.45418 0.28823 0.0
C938 C 0.99772 0.48435 0.30791 0.0
C939 C 0.00682 0.48503 0.27507 0.0
C940 C 0.0054 0.46474 0.27286 0.0
C941 C 0.00316 0.49503 0.29268 0.0
C942 C 0.99645 0.46408 0.30574 0.0
C943 C 1.00027 0.43296 0.28627 0.0
O944 O 0.01943 0.38188 0.30379 0.0
O945 O 0.98784 0.37881 0.30489 0.0
O946 O 0.98548 0.42343 0.29298 0.0
O947 O 0.01703 0.42652 0.29137 0.0
H948 H 0.99525 0.38487 0.26538 0.0
H949 H 0.99438 0.36774 0.23294 0.0
H950 H 0.00533 0.31481 0.25862 0.0
H951 H 0.00651 0.33223 0.29108 0.0
H952 H 0.00465 0.36454 0.3817 0.0
H953 H 0.00213 0.38099 0.35197 0.0
H954 H 0.02672 0.41894 0.41468 0.0
H955 H 0.02408 0.43538 0.38481 0.0
H956 H 0.99507 0.49169 0.32171 0.0
H957 H 0.01092 0.49292 0.26307 0.0
H958 H 0.00855 0.4573 0.25928 0.0
H959 H 0.99276 0.45614 0.31786 0.0
H960 H 0.30721 0.59102 0.61411 0.0
H961 H 0.32929 0.53732 0.62596 0.0
H962 H 0.31342 0.57572 0.67295 0.0
C963 C 0.31166 0.58134 0.62471 0.0
C964 C 0.30963 0.58599 0.64445 0.0
C965 C 0.31914 0.56417 0.61809 0.0
C966 C 0.32365 0.55066 0.63119 0.0
C967 C 0.32133 0.55476 0.65106 0.0
C968 C 0.31464 0.57251 0.65758 0.0
N969 N 0.32577 0.54153 0.66491 0.0
C970 C 0.33058 0.52279 0.66015 0.0
H971 H 0.30423 0.48717 0.96398 0.0
H972 H 0.27656 0.53981 0.97317 0.0
H973 H 0.31613 0.52261 0.01834 0.0
C974 C 0.30235 0.50032 0.97298 0.0
C975 C 0.31211 0.50359 0.99169 0.0
C976 C 0.28944 0.51321 0.96615 0.0
C977 C 0.28652 0.52981 0.97829 0.0
C978 C 0.29624 0.53321 0.99716 0.0
C979 C 0.30874 0.51994 0.0038 0.0
N980 N 0.29356 0.54958 0.01002 0.0
C981 C 0.2864 0.5664 0.00418 0.0
H982 H 0.66761 0.93262 0.3738 0.0
H983 H 0.70378 0.98015 0.35653 0.0
H984 H 0.6894 0.92818 0.31765 0.0
C985 C 0.67574 0.93905 0.36298 0.0
C986 C 0.67735 0.92806 0.3453 0.0
C987 C 0.68531 0.95785 0.36723 0.0
C988 C 0.6959 0.96593 0.35315 0.0
C989 C 0.69718 0.9554 0.33513 0.0
C990 C 0.68808 0.93641 0.3314 0.0
N991 N 0.70791 0.96345 0.3208 0.0
C992 C 0.71507 0.98293 0.32233 0.0
H993 H 0.73724 0.97572 0.99663 0.0
H994 H 0.71998 0.91553 0.97856 0.0
H995 H 0.70984 0.95873 0.93894 0.0
C996 C 0.73133 0.96437 0.98537 0.0
C997 C 0.72434 0.96951 0.96716 0.0
C998 C 0.72974 0.94497 0.98964 0.0
C999 C 0.72105 0.93052 0.97533 0.0
C1000 C 0.71377 0.93543 0.95699 0.0
C1001 C 0.71553 0.95493 0.953 0.0
N1002 N 0.70424 0.92113 0.94251 0.0
C1003 C 0.69862 0.90226 0.94636 0.0
H1004 H 0.60975 0.30294 0.57338 0.0
H1005 H 0.62225 0.32624 0.52022 0.0
H1006 H 0.6674 0.30301 0.55542 0.0
C1007 C 0.62006 0.30621 0.56299 0.0
C1008 C 0.63921 0.30161 0.56629 0.0
C1009 C 0.61395 0.31507 0.54653 0.0
C1010 C 0.62711 0.31946 0.533 0.0
C1011 C 0.64657 0.31516 0.53626 0.0
C1012 C 0.65251 0.30646 0.55303 0.0
N1013 N 0.66054 0.31919 0.52307 0.0
C1014 C 0.65636 0.32532 0.50478 0.0
H1015 H 0.04498 0.72108 0.99472 0.0
H1016 H 0.02806 0.70548 0.93405 0.0
H1017 H 0.98919 0.68967 0.97631 0.0
C1018 C 0.0343 0.71422 0.98324 0.0
C1019 C 0.01672 0.70517 0.98801 0.0
C1020 C 0.03849 0.71433 0.96389 0.0
C1021 C 0.02477 0.7054 0.94899 0.0
C1022 C 0.00677 0.69675 0.95348 0.0
C1023 C 0.00288 0.6967 0.97295 0.0
N1024 N 0.99232 0.68788 0.93883 0.0
C1025 C 0.99497 0.68577 0.9192 0.0
H1026 H 0.97442 0.30118 0.48955 0.0
H1027 H 0.95955 0.28913 0.54643 0.0
H1028 H 0.00582 0.33299 0.54017 0.0
C1029 C 0.97705 0.3037 0.50524 0.0
C1030 C 0.99168 0.31797 0.51348 0.0
C1031 C 0.96499 0.29357 0.5169 0.0
C1032 C 0.96879 0.29678 0.53725 0.0
C1033 C 0.98375 0.31091 0.54563 0.0
C1034 C 0.99477 0.3217 0.53368 0.0
N1035 N 0.98752 0.3155 0.56597 0.0
C1036 C 0.98232 0.30323 0.57974 0.0
H1037 H 0.37314 0.6899 0.92471 0.0
H1038 H 0.34862 0.70926 0.97666 0.0
H1039 H 0.31116 0.69055 0.92431 0.0
C1040 C 0.36052 0.69311 0.93209 0.0
C1041 C 0.34194 0.68967 0.92191 0.0
C1042 C 0.36302 0.70016 0.9518 0.0
C1043 C 0.34664 0.70355 0.96151 0.0
C1044 C 0.32786 0.70002 0.95167 0.0
C1045 C 0.32562 0.69307 0.9319 0.0
N1046 N 0.31108 0.70351 0.96127 0.0
C1047 C 0.31194 0.70929 0.98106 0.0
H1048 H 0.58199 0.61405 0.31115 0.0
H1049 H 0.52926 0.62673 0.33517 0.0
H1050 H 0.56068 0.66971 0.30553 0.0
C1051 C 0.57119 0.62411 0.31374 0.0
C1052 C 0.57311 0.64237 0.30671 0.0
C1053 C 0.5556 0.61847 0.32404 0.0
C1054 C 0.5414 0.63122 0.32732 0.0
C1055 C 0.54333 0.64991 0.32075 0.0
C1056 C 0.55932 0.65543 0.31069 0.0
N1057 N 0.52955 0.66351 0.32392 0.0
C1058 C 0.51139 0.65903 0.33025 0.0
H1059 H 0.99605 0.0431 0.71603 0.0
H1060 H 0.93568 0.02809 0.69658 0.0
H1061 H 0.9756 0.9841 0.69501 0.0
C1062 C 0.98436 0.03246 0.70956 0.0
C1063 C 0.98823 0.01311 0.70546 0.0
C1064 C 0.96548 0.03805 0.70637 0.0
C1065 C 0.95026 0.02387 0.69907 0.0
C1066 C 0.95389 0.00433 0.695 0.0
C1067 C 0.97286 0.99912 0.6982 0.0
N1068 N 0.93882 0.98956 0.68789 0.0
C1069 C 0.91939 0.99283 0.68479 0.0
H1070 H 0.49294 0.97149 0.29876 0.0
H1071 H 0.55424 0.96871 0.29666 0.0
H1072 H 0.53337 0.00803 0.33984 0.0
C1073 C 0.50776 0.97698 0.30403 0.0
C1074 C 0.51119 0.99102 0.32006 0.0
C1075 C 0.52313 0.9689 0.29552 0.0
C1076 C 0.54236 0.97515 0.30305 0.0
C1077 C 0.54605 0.98949 0.31899 0.0
C1078 C 0.53043 0.99719 0.32744 0.0
N1079 N 0.56515 0.99624 0.32729 0.0
C1080 C 0.58201 0.9921 0.31907 0.0
H1081 H 0.92919 0.3661 0.67301 0.0
H1082 H 0.9787 0.34385 0.70127 0.0
H1083 H 0.92721 0.3053 0.68145 0.0
C1084 C 0.93626 0.35385 0.6779 0.0
C1085 C 0.92597 0.33533 0.67581 0.0
C1086 C 0.95515 0.35698 0.68726 0.0
C1087 C 0.96407 0.34129 0.69412 0.0
C1088 C 0.95414 0.32251 0.6919 0.0
C1089 C 0.93496 0.3197 0.68302 0.0
N1090 N 0.9632 0.30632 0.69836 0.0
C1091 C 0.98296 0.30748 0.70443 0.0
H1092 H 0.69499 0.41624 0.3879 0.0
H1093 H 0.67236 0.46902 0.37313 0.0
H1094 H 0.69568 0.43221 0.32946 0.0
C1095 C 0.69206 0.42625 0.37712 0.0
C1096 C 0.69696 0.42222 0.35814 0.0
C1097 C 0.68342 0.44309 0.38255 0.0
C1098 C 0.67912 0.45606 0.3688 0.0
C1099 C 0.68328 0.45193 0.34945 0.0
C1100 C 0.69214 0.43504 0.34426 0.0
N1101 N 0.67883 0.46437 0.33485 0.0
C1102 C 0.67297 0.4829 0.33844 0.0
H1103 H 0.67887 0.50836 0.03952 0.0
H1104 H 0.69662 0.45052 0.03323 0.0
H1105 H 0.65764 0.46989 0.98878 0.0
C1106 C 0.67806 0.49416 0.03143 0.0
C1107 C 0.66668 0.49072 0.01357 0.0
C1108 C 0.68897 0.47984 0.03864 0.0
C1109 C 0.68826 0.46166 0.02776 0.0
C1110 C 0.67681 0.45805 0.00975 0.0
C1111 C 0.6664 0.47273 0.00263 0.0
N1112 N 0.67547 0.43992 0.99831 0.0
C1113 C 0.67972 0.42262 0.00554 0.0
H1114 H 0.32734 0.0768 0.61964 0.0
H1115 H 0.30131 0.02541 0.64061 0.0
H1116 H 0.3206 0.07584 0.6806 0.0
C1117 C 0.32279 0.06915 0.63165 0.0
C1118 C 0.32524 0.07869 0.65055 0.0
C1119 C 0.31418 0.04996 0.62801 0.0
C1120 C 0.3082 0.04012 0.64352 0.0
C1121 C 0.3104 0.04943 0.66254 0.0
C1122 C 0.31887 0.06871 0.66594 0.0
N1123 N 0.30394 0.03981 0.67836 0.0
C1124 C 0.29626 0.02045 0.67637 0.0
H1125 H 0.25773 0.02557 0.00341 0.0
H1126 H 0.26628 0.08672 0.02121 0.0
H1127 H 0.27469 0.04568 0.0634 0.0
C1128 C 0.26079 0.03739 0.01489 0.0
C1129 C 0.26567 0.0332 0.034 0.0
C1130 C 0.26093 0.05661 0.01015 0.0
C1131 C 0.26621 0.07187 0.02483 0.0
C1132 C 0.27126 0.06795 0.04408 0.0
C1133 C 0.27075 0.04863 0.04858 0.0
N1134 N 0.27736 0.08309 0.05908 0.0
C1135 C 0.28333 0.10191 0.05532 0.0
H1136 H 0.39509 0.69625 0.41615 0.0
H1137 H 0.37845 0.67352 0.46811 0.0
H1138 H 0.3345 0.68139 0.42229 0.0
C1139 C 0.38363 0.69069 0.42439 0.0
C1140 C 0.36417 0.6893 0.41657 0.0
C1141 C 0.38876 0.68486 0.44274 0.0
C1142 C 0.37429 0.6781 0.45395 0.0
C1143 C 0.35457 0.67725 0.44672 0.0
C1144 C 0.34965 0.68255 0.42795 0.0
N1145 N 0.33938 0.67111 0.45788 0.0
C1146 C 0.34222 0.66814 0.47744 0.0
H1147 H 0.976 0.25653 0.02954 0.0
H1148 H 0.98836 0.27021 0.09127 0.0
H1149 H 0.03371 0.27854 0.05363 0.0
C1150 C 0.98627 0.2612 0.04213 0.0
C1151 C 0.00561 0.26705 0.03941 0.0
C1152 C 0.97986 0.26234 0.06077 0.0
C1153 C 0.99316 0.2694 0.07685 0.0
C1154 C 0.01265 0.27522 0.07427 0.0
C1155 C 0.01873 0.27394 0.05557 0.0
N1156 N 0.02646 0.28262 0.09009 0.0
C1157 C 0.02152 0.28808 0.10858 0.0
H1158 H 0.03255 0.6909 0.51364 0.0
H1159 H 0.03662 0.69877 0.45346 0.0
H1160 H 0.98867 0.66241 0.47038 0.0
C1161 C 0.02661 0.68804 0.49858 0.0
C1162 C 0.00932 0.67587 0.49385 0.0
C1163 C 0.03663 0.69623 0.48416 0.0
C1164 C 0.0289 0.6925 0.46464 0.0
C1165 C 0.01156 0.68016 0.45965 0.0
C1166 C 0.00196 0.67191 0.4743 0.0
N1167 N 0.00347 0.67538 0.44013 0.0
C1168 C 0.01092 0.68297 0.4242 0.0
H1169 H 0.63305 0.31932 0.07707 0.0
H1170 H 0.6433 0.31079 0.01983 0.0
H1171 H 0.69086 0.32567 0.06762 0.0
C1172 C 0.64376 0.31875 0.06662 0.0
C1173 C 0.66306 0.32339 0.07255 0.0
C1174 C 0.638 0.31393 0.04738 0.0
C1175 C 0.65182 0.31382 0.03378 0.0
C1176 C 0.67407 0.31748 0.03684 0.0
C1177 C 0.677 0.32239 0.05898 0.0
N1178 N 0.69669 0.31617 0.01476 0.0
C1179 C 0.70142 0.3114 0.99531 0.0
H1180 H 0.41676 0.3914 0.70045 0.0
H1181 H 0.4697 0.38164 0.67527 0.0
H1182 H 0.43844 0.33534 0.70077 0.0
C1183 C 0.42772 0.38176 0.69701 0.0
C1184 C 0.4259 0.36272 0.70217 0.0
C1185 C 0.44334 0.38856 0.68728 0.0
C1186 C 0.4576 0.37625 0.68275 0.0
C1187 C 0.45581 0.35688 0.68754 0.0
C1188 C 0.4398 0.35019 0.69704 0.0
N1189 N 0.46964 0.34369 0.683 0.0
C1190 C 0.4874 0.34876 0.67606 0.0
H1191 H 0.01646 0.98723 0.26415 0.0
H1192 H 0.07549 0.00928 0.28265 0.0
H1193 H 0.02888 0.04361 0.2961 0.0
C1194 C 0.02688 0.99868 0.27147 0.0
C1195 C 0.02021 0.01563 0.27998 0.0
C1196 C 0.04678 0.99629 0.2723 0.0
C1197 C 0.06014 0.01108 0.28206 0.0
C1198 C 0.05373 0.0282 0.2907 0.0
C1199 C 0.03379 0.03046 0.2894 0.0
N1200 N 0.06698 0.04327 0.30088 0.0
C1201 C 0.08662 0.04128 0.3051 0.0
H1202 H 0.5126 0.02631 0.70666 0.0
H1203 H 0.4516 0.02971 0.71045 0.0
H1204 H 0.47096 0.98649 0.6701 0.0
C1205 C 0.49768 0.02043 0.70238 0.0
C1206 C 0.49371 0.00508 0.68764 0.0
C1207 C 0.48264 0.02934 0.71071 0.0
C1208 C 0.46323 0.02263 0.70428 0.0
C1209 C 0.45905 0.00694 0.68969 0.0
C1210 C 0.47431 0.99836 0.68148 0.0
N1211 N 0.43979 0.99968 0.68241 0.0
C1212 C 0.42314 0.00545 0.68994 0.0
H1213 H 0.06693 0.63148 0.32745 0.0
H1214 H 0.01453 0.65062 0.30147 0.0
H1215 H 0.06598 0.69072 0.3144 0.0
C1216 C 0.05894 0.64302 0.32224 0.0
C1217 C 0.06852 0.66174 0.32263 0.0
C1218 C 0.03956 0.63881 0.31431 0.0
C1219 C 0.02961 0.65375 0.30709 0.0
C1220 C 0.03905 0.67255 0.30704 0.0
C1221 C 0.0586 0.67634 0.31457 0.0
N1222 N 0.02924 0.68777 0.29948 0.0
C1223 C 0.00953 0.68563 0.29305 0.0
C1224 C 0.17515 0.64126 0.35038 0.0
C1225 C 0.18686 0.65439 0.36403 0.0
C1226 C 0.15658 0.64534 0.34319 0.0
C1227 C 0.1495 0.66303 0.34973 0.0
C1228 C 0.16164 0.67682 0.36271 0.0
C1229 C 0.18019 0.67233 0.36974 0.0
C1230 C 0.14419 0.63026 0.32927 0.0
C1231 C 0.15467 0.69589 0.36992 0.0
C1232 C 0.10338 0.67381 0.32048 0.0
C1233 C 0.08909 0.66539 0.33102 0.0
C1234 C 0.12322 0.67422 0.32694 0.0
C1235 C 0.1288 0.66605 0.34433 0.0
C1236 C 0.11433 0.65878 0.35565 0.0
C1237 C 0.09468 0.65856 0.34886 0.0
C1238 C 0.13818 0.68229 0.31456 0.0
C1239 C 0.11957 0.65009 0.37436 0.0
H1240 H 0.18036 0.62754 0.34561 0.0
H1241 H 0.18911 0.68252 0.38035 0.0
H1242 H 0.13145 0.62454 0.33633 0.0
H1243 H 0.13857 0.63689 0.31621 0.0
H1244 H 0.15231 0.61787 0.32455 0.0
H1245 H 0.16662 0.70602 0.3779 0.0
H1246 H 0.14807 0.70302 0.35763 0.0
H1247 H 0.14326 0.6932 0.37983 0.0
H1248 H 0.0991 0.67909 0.30666 0.0
H1249 H 0.08362 0.65235 0.3572 0.0
H1250 H 0.14511 0.67016 0.30737 0.0
H1251 H 0.14981 0.69186 0.32365 0.0
H1252 H 0.13165 0.69064 0.30316 0.0
H1253 H 0.12638 0.63644 0.37114 0.0
H1254 H 0.10669 0.64673 0.38231 0.0
H1255 H 0.13033 0.66016 0.38401 0.0
C1256 C 0.33024 0.33753 0.75695 0.0
C1257 C 0.31662 0.34897 0.74872 0.0
C1258 C 0.34857 0.3366 0.74996 0.0
C1259 C 0.35339 0.34746 0.73446 0.0
C1260 C 0.33941 0.35846 0.72568 0.0
C1261 C 0.32124 0.35905 0.73288 0.0
C1262 C 0.36307 0.32477 0.75975 0.0
C1263 C 0.344 0.37054 0.70936 0.0
C1264 C 0.40462 0.36808 0.72881 0.0
C1265 C 0.40913 0.35636 0.71265 0.0
C1266 C 0.38704 0.36449 0.73689 0.0
C1267 C 0.37348 0.34893 0.72845 0.0
C1268 C 0.37846 0.33632 0.71286 0.0
C1269 C 0.39639 0.34007 0.70529 0.0
C1270 C 0.38247 0.37814 0.75368 0.0
C1271 C 0.36436 0.31967 0.7034 0.0
H1272 H 0.32671 0.3296 0.76912 0.0
H1273 H 0.31096 0.36821 0.72666 0.0
H1274 H 0.36958 0.31542 0.7488 0.0
H1275 H 0.37508 0.33466 0.76789 0.0
H1276 H 0.3564 0.31545 0.77005 0.0
H1277 H 0.3307 0.3752 0.70176 0.0
H1278 H 0.35364 0.38373 0.7153 0.0
H1279 H 0.35183 0.36232 0.69866 0.0
H1280 H 0.41461 0.38054 0.73468 0.0
H1281 H 0.39997 0.33094 0.69293 0.0
H1282 H 0.37692 0.36983 0.76528 0.0
H1283 H 0.37093 0.38711 0.74863 0.0
H1284 H 0.39538 0.38803 0.75999 0.0
H1285 H 0.35976 0.3101 0.71445 0.0
H1286 H 0.37067 0.31083 0.69186 0.0
H1287 H 0.35111 0.32538 0.69687 0.0
C1288 C 0.58655 0.97694 0.63242 0.0
C1289 C 0.59534 0.99523 0.62933 0.0
C1290 C 0.56951 0.97525 0.6419 0.0
C1291 C 0.56132 0.99227 0.64857 0.0
C1292 C 0.57038 0.01076 0.64576 0.0
C1293 C 0.58723 0.01199 0.63612 0.0
C1294 C 0.56012 0.95532 0.6445 0.0
C1295 C 0.56224 0.02928 0.65287 0.0
C1296 C 0.50865 0.99512 0.65726 0.0
C1297 C 0.50995 0.99761 0.67761 0.0
C1298 C 0.52506 0.99177 0.64751 0.0
C1299 C 0.54318 0.99108 0.6584 0.0
C1300 C 0.54424 0.99207 0.6789 0.0
C1301 C 0.52758 0.99523 0.68826 0.0
C1302 C 0.52328 0.99054 0.62561 0.0
C1303 C 0.56327 0.99134 0.69103 0.0
H1304 H 0.59275 0.96396 0.62704 0.0
H1305 H 0.59418 0.02614 0.63396 0.0
H1306 H 0.5585 0.95401 0.66008 0.0
H1307 H 0.54532 0.95315 0.6367 0.0
H1308 H 0.56863 0.94355 0.63898 0.0
H1309 H 0.57128 0.04248 0.64985 0.0
H1310 H 0.54733 0.02964 0.64576 0.0
H1311 H 0.5612 0.02981 0.66875 0.0
H1312 H 0.49512 0.99703 0.64891 0.0
H1313 H 0.52856 0.99674 0.70399 0.0
H1314 H 0.53114 0.97851 0.61957 0.0
H1315 H 0.53 0.00424 0.62094 0.0
H1316 H 0.50789 0.98827 0.61929 0.0
H1317 H 0.56118 0.98956 0.70646 0.0
H1318 H 0.57265 0.00504 0.69047 0.0
H1319 H 0.57114 0.97923 0.68519 0.0
C1320 C 0.91352 0.00606 0.23437 0.0
C1321 C 0.89862 0.00941 0.24626 0.0
C1322 C 0.9331 0.00963 0.24167 0.0
C1323 C 0.938 0.01701 0.26133 0.0
C1324 C 0.9231 0.02142 0.27317 0.0
C1325 C 0.90355 0.01749 0.26551 0.0
C1326 C 0.94853 0.00472 0.22852 0.0
C1327 C 0.92777 0.02954 0.29412 0.0
C1328 C 0.98603 0.00165 0.28152 0.0
C1329 C 0.999 0.01754 0.27857 0.0
C1330 C 0.96597 0.00178 0.27707 0.0
C1331 C 0.95863 0.01831 0.26967 0.0
C1332 C 0.9715 0.03499 0.2681 0.0
C1333 C 0.99159 0.03439 0.27251 0.0
C1334 C 0.95279 0.98369 0.27902 0.0
C1335 C 0.9642 0.053 0.26059 0.0
H1336 H 0.90985 1.0003 0.21934 0.0
H1337 H 0.89214 0.0201 0.27481 0.0
H1338 H 0.95931 0.01748 0.2284 0.0
H1339 H 0.95644 0.99285 0.23409 0.0
H1340 H 0.94233 1.00003 0.21335 0.0
H1341 H 0.91483 0.03464 0.30056 0.0
H1342 H 0.93334 0.01815 0.30273 0.0
H1343 H 0.93934 0.04181 0.29543 0.0
H1344 H 0.99167 0.98876 0.28664 0.0
H1345 H 0.00154 0.04672 0.27022 0.0
H1346 H 0.94685 0.97692 0.26437 0.0
H1347 H 0.9403 0.98738 0.28704 0.0
H1348 H 0.96051 0.9728 0.28666 0.0
H1349 H 0.96005 0.05025 0.24472 0.0
H1350 H 0.9754 0.06565 0.26326 0.0
H1351 H 0.95105 0.05677 0.2675 0.0
C1352 C 0.37692 0.18855 0.66686 0.0
C1353 C 0.36974 0.19845 0.65139 0.0
C1354 C 0.36949 0.16944 0.669 0.0
C1355 C 0.35455 0.15994 0.65531 0.0
C1356 C 0.34674 0.17011 0.64011 0.0
C1357 C 0.35441 0.18921 0.63834 0.0
C1358 C 0.3781 0.15918 0.6855 0.0
C1359 C 0.33083 0.1605 0.62518 0.0
C1360 C 0.35034 0.10506 0.64449 0.0
C1361 C 0.33394 0.09924 0.65374 0.0
C1362 C 0.35751 0.12469 0.64542 0.0
C1363 C 0.34811 0.13893 0.65589 0.0
C1364 C 0.33204 0.13309 0.66595 0.0
C1365 C 0.32514 0.11329 0.66476 0.0
C1366 C 0.37478 0.13024 0.6346 0.0
C1367 C 0.32166 0.14781 0.67732 0.0
H1368 H 0.38858 0.19568 0.67716 0.0
H1369 H 0.34891 0.19662 0.62622 0.0
H1370 H 0.36643 0.15275 0.69355 0.0
H1371 H 0.38595 0.14708 0.67961 0.0
H1372 H 0.38841 0.16909 0.69584 0.0
H1373 H 0.32537 0.1708 0.61511 0.0
H1374 H 0.3364 0.14836 0.61651 0.0
H1375 H 0.31847 0.15424 0.63244 0.0
H1376 H 0.35739 0.09423 0.63621 0.0
H1377 H 0.31239 0.1089 0.67183 0.0
H1378 H 0.38629 0.13906 0.64456 0.0
H1379 H 0.37036 0.13931 0.62292 0.0
H1380 H 0.38103 0.11735 0.62796 0.0
H1381 H 0.33221 0.15756 0.68752 0.0
H1382 H 0.31055 0.14083 0.68571 0.0
H1383 H 0.31437 0.15702 0.66723 0.0
C1384 C 0.28901 0.92532 0.02054 0.0
C1385 C 0.28196 0.91257 0.03339 0.0
C1386 C 0.28611 0.94509 0.02275 0.0
C1387 C 0.27607 0.95232 0.0383 0.0
C1388 C 0.26929 0.93961 0.05159 0.0
C1389 C 0.27222 0.91983 0.04891 0.0
C1390 C 0.29339 0.95814 0.00814 0.0
C1391 C 0.25874 0.94685 0.06847 0.0
C1392 C 0.28309 0.0072 0.04886 0.0
C1393 C 0.26679 0.01266 0.03802 0.0
C1394 C 0.28581 0.98752 0.05 0.0
C1395 C 0.27197 0.97302 0.03997 0.0
C1396 C 0.25494 0.97847 0.02998 0.0
C1397 C 0.25252 0.99821 0.02922 0.0
C1398 C 0.30404 0.98227 0.061 0.0
C1399 C 0.2398 0.96347 0.01912 0.0
H1400 H 0.29636 0.91971 0.00841 0.0
H1401 H 0.26695 0.91003 0.05899 0.0
H1402 H 0.28096 0.96423 1.00046 0.0
H1403 H 0.30319 0.97055 0.01565 0.0
H1404 H 0.30135 0.95034 0.99717 0.0
H1405 H 0.25531 0.93532 0.07808 0.0
H1406 H 0.26767 0.95917 0.07722 0.0
H1407 H 0.24497 0.95235 0.063 0.0
H1408 H 0.29424 0.01828 0.0556 0.0
H1409 H 0.23973 0.00238 0.02109 0.0
H1410 H 0.31378 0.97642 0.05057 0.0
H1411 H 0.3005 0.97074 0.07055 0.0
H1412 H 0.31207 0.995 0.07001 0.0
H1413 H 0.24607 0.95599 0.00669 0.0
H1414 H 0.22668 0.97002 0.01344 0.0
H1415 H 0.23533 0.95226 0.02867 0.0
C1416 C 0.75746 0.33042 0.33531 0.0
C1417 C 0.74862 0.31465 0.34368 0.0
C1418 C 0.74889 0.34798 0.33486 0.0
C1419 C 0.73108 0.34981 0.34296 0.0
C1420 C 0.72152 0.33357 0.35031 0.0
C1421 C 0.73041 0.31621 0.35062 0.0
C1422 C 0.7594 0.36489 0.32664 0.0
C1423 C 0.70247 0.33488 0.35895 0.0
C1424 C 0.72104 0.39872 0.36674 0.0
C1425 C 0.70703 0.40458 0.3532 0.0
C1426 C 0.72928 0.38118 0.36331 0.0
C1427 C 0.72352 0.36916 0.34583 0.0
C1428 C 0.71004 0.37534 0.33172 0.0
C1429 C 0.70211 0.39307 0.33553 0.0
C1430 C 0.74377 0.37526 0.37868 0.0
C1431 C 0.70338 0.36293 0.31295 0.0
H1432 H 0.77137 0.32922 0.3296 0.0
H1433 H 0.72354 0.3042 0.35727 0.0
H1434 H 0.74932 0.37145 0.31638 0.0
H1435 H 0.76482 0.37629 0.33858 0.0
H1436 H 0.77193 0.36053 0.31898 0.0
H1437 H 0.69587 0.32047 0.36209 0.0
H1438 H 0.70483 0.34462 0.37269 0.0
H1439 H 0.69203 0.34128 0.34895 0.0
H1440 H 0.72547 0.40779 0.3802 0.0
H1441 H 0.69162 0.39762 0.32492 0.0
H1442 H 0.75742 0.3722 0.37234 0.0
H1443 H 0.73785 0.3617 0.38427 0.0
H1444 H 0.74731 0.38662 0.39112 0.0
H1445 H 0.69515 0.37099 0.30238 0.0
H1446 H 0.69381 0.35013 0.31599 0.0
H1447 H 0.71595 0.35744 0.30616 0.0
C1448 C 0.632 0.59234 0.99474 0.0
C1449 C 0.61251 0.59238 0.98745 0.0
C1450 C 0.64041 0.57487 0.99638 0.0
C1451 C 0.62903 0.55699 0.9907 0.0
C1452 C 0.60964 0.55692 0.98243 0.0
C1453 C 0.60161 0.57463 0.9809 0.0
C1454 C 0.66117 0.57555 0.00522 0.0
C1455 C 0.59709 0.53814 0.97611 0.0
C1456 C 0.65654 0.51203 0.98794 0.0
C1457 C 0.65524 0.50618 0.00661 0.0
C1458 C 0.64747 0.52819 0.98219 0.0
C1459 C 0.63683 0.53854 0.99542 0.0
C1460 C 0.63471 0.53205 0.01393 0.0
C1461 C 0.64398 0.51598 0.0193 0.0
C1462 C 0.65002 0.53469 0.96234 0.0
C1463 C 0.62331 0.54256 0.02839 0.0
H1464 H 0.64047 0.60595 1.00002 0.0
H1465 H 0.58664 0.57457 0.97493 0.0
H1466 H 0.66143 0.56984 0.01965 0.0
H1467 H 0.66954 0.56619 0.996 0.0
H1468 H 0.66859 0.59054 0.00711 0.0
H1469 H 0.58316 0.54056 0.96796 0.0
H1470 H 0.6049 0.52822 0.96687 0.0
H1471 H 0.5938 0.53068 0.98908 0.0
H1472 H 0.66532 0.5045 0.97816 0.0
H1473 H 0.64274 0.51126 0.03364 0.0
H1474 H 0.65929 0.54871 0.96388 0.0
H1475 H 0.63579 0.53716 0.95485 0.0
H1476 H 0.65689 0.52393 0.95307 0.0
H1477 H 0.63054 0.5574 0.03276 0.0
H1478 H 0.62204 0.53489 0.04165 0.0
H1479 H 0.6085 0.54412 0.02168 0.0
C1480 C 0.64332 0.37584 0.16969 0.0
C1481 C 0.65636 0.37656 0.18643 0.0
C1482 C 0.64746 0.36682 0.15186 0.0
C1483 C 0.66512 0.35822 0.15063 0.0
C1484 C 0.67843 0.35895 0.16742 0.0
C1485 C 0.67387 0.36806 0.18514 0.0
C1486 C 0.63277 0.36627 0.13436 0.0
C1487 C 0.69741 0.35002 0.16665 0.0
C1488 C 0.66139 0.31978 0.10789 0.0
C1489 C 0.66829 0.33057 0.09338 0.0
C1490 C 0.66167 0.32819 0.12706 0.0
C1491 C 0.66901 0.34789 0.13181 0.0
C1492 C 0.67753 0.35833 0.11756 0.0
C1493 C 0.67706 0.34952 0.09847 0.0
C1494 C 0.65258 0.31645 0.14176 0.0
C1495 C 0.68565 0.37929 0.12203 0.0
H1496 H 0.62962 0.38208 0.1706 0.0
H1497 H 0.68412 0.36873 0.19796 0.0
H1498 H 0.63959 0.37299 0.12242 0.0
H1499 H 0.62767 0.35098 0.12898 0.0
H1500 H 0.61994 0.37401 0.13765 0.0
H1501 H 0.70644 0.35227 0.18085 0.0
H1502 H 0.69458 0.33419 0.16229 0.0
H1503 H 0.70584 0.35638 0.15553 0.0
H1504 H 0.65469 0.30508 0.10395 0.0
H1505 H 0.68229 0.35791 0.08723 0.0
H1506 H 0.6384 0.32176 0.14461 0.0
H1507 H 0.6619 0.31824 0.15575 0.0
H1508 H 0.65007 0.30074 0.13661 0.0
H1509 H 0.6735 0.38856 0.12315 0.0
H1510 H 0.69452 0.38429 0.11056 0.0
H1511 H 0.69472 0.38148 0.13617 0.0
C1512 C 0.03984 0.26601 0.93151 0.0
C1513 C 0.02419 0.27111 0.91947 0.0
C1514 C 0.03849 0.26495 0.95145 0.0
C1515 C 0.02118 0.26936 0.95948 0.0
C1516 C 0.00546 0.27479 0.9474 0.0
C1517 C 0.00712 0.27549 0.92752 0.0
C1518 C 0.05545 0.25889 0.96385 0.0
C1519 C 0.98685 0.27984 0.95547 0.0
C1520 C 0.0069 0.25044 0.00621 0.0
C1521 C 0.01161 0.26695 0.0195 0.0
C1522 C 0.01077 0.25076 0.98677 0.0
C1523 C 0.01927 0.2681 0.98046 0.0
C1524 C 0.02461 0.28463 0.99397 0.0
C1525 C 0.02081 0.28381 0.01339 0.0
C1526 C 0.00513 0.23275 0.97286 0.0
C1527 C 0.03348 0.30344 0.98773 0.0
H1528 H 0.05299 0.26248 0.92525 0.0
H1529 H 0.99511 0.27969 0.91825 0.0
H1530 H 0.06038 0.27034 0.97589 0.0
H1531 H 0.05087 0.2455 0.97052 0.0
H1532 H 0.06793 0.2561 0.9554 0.0
H1533 H 0.9762 0.28425 0.94419 0.0
H1534 H 0.98005 0.26716 0.96188 0.0
H1535 H 0.99003 0.29189 0.96725 0.0
H1536 H 0.99992 0.23736 0.01101 0.0
H1537 H 0.02428 0.29664 0.02364 0.0
H1538 H 0.01757 0.22913 0.96472 0.0
H1539 H 0.99315 0.23547 0.96207 0.0
H1540 H 1.00026 0.22001 0.98041 0.0
H1541 H 0.0463 0.30085 0.97976 0.0
H1542 H 0.03803 0.3145 1.00024 0.0
H1543 H 0.02277 0.30943 0.97764 0.0
C1544 C 0.34746 0.72668 0.30984 0.0
C1545 C 0.35887 0.74457 0.3113 0.0
C1546 C 0.34515 0.71655 0.32625 0.0
C1547 C 0.35462 0.72442 0.34452 0.0
C1548 C 0.36549 0.74285 0.34622 0.0
C1549 C 0.3675 0.75265 0.32961 0.0
C1550 C 0.33336 0.69702 0.32371 0.0
C1551 C 0.37579 0.75182 0.36543 0.0
C1552 C 0.34371 0.70636 0.39287 0.0
C1553 C 0.3595 0.69555 0.39683 0.0
C1554 C 0.34118 0.7149 0.37532 0.0
C1555 C 0.3549 0.7128 0.36155 0.0
C1556 C 0.37019 0.701 0.36498 0.0
C1557 C 0.3721 0.69231 0.38239 0.0
C1558 C 0.32448 0.72709 0.37198 0.0
C1559 C 0.38522 0.69846 0.35075 0.0
H1560 H 0.34054 0.72043 0.29579 0.0
H1561 H 0.37656 0.76633 0.33089 0.0
H1562 H 0.34332 0.6855 0.32201 0.0
H1563 H 0.32534 0.69456 0.33652 0.0
H1564 H 0.3228 0.69552 0.31055 0.0
H1565 H 0.38239 0.76685 0.3646 0.0
H1566 H 0.36552 0.75213 0.37677 0.0
H1567 H 0.38747 0.74285 0.37015 0.0
H1568 H 0.33388 0.70901 0.40387 0.0
H1569 H 0.38399 0.68347 0.38498 0.0
H1570 H 0.31683 0.72305 0.35726 0.0
H1571 H 0.33014 0.74262 0.37278 0.0
H1572 H 0.31385 0.72543 0.3829 0.0
H1573 H 0.37803 0.69328 0.33607 0.0
H1574 H 0.39568 0.68807 0.35511 0.0
H1575 H 0.39352 0.71266 0.34965 0.0
C1576 C 0.00493 0.62235 0.58587 0.0
C1577 C 0.98735 0.61861 0.5939 0.0
C1578 C 0.00568 0.63169 0.56887 0.0
C1579 C 0.98837 0.6373 0.55956 0.0
C1580 C 0.97051 0.63347 0.56751 0.0
C1581 C 0.97023 0.62427 0.58472 0.0
C1582 C 0.02508 0.63573 0.56101 0.0
C1583 C 0.95176 0.63906 0.55784 0.0
C1584 C 0.99865 0.67726 0.52734 0.0
C1585 C 0.99993 0.66652 0.50949 0.0
C1586 C 0.99352 0.66805 0.54354 0.0
C1587 C 0.98937 0.64761 0.54177 0.0
C1588 C 0.98895 0.6369 0.52339 0.0
C1589 C 0.99432 0.64649 0.50744 0.0
C1590 C 0.9941 0.68002 0.56287 0.0
C1591 C 0.98431 0.61512 0.52086 0.0
H1592 H 0.01822 0.6182 0.59309 0.0
H1593 H 0.9566 0.62124 0.59086 0.0
H1594 H 0.02459 0.62868 0.54598 0.0
H1595 H 0.02834 0.65159 0.5604 0.0
H1596 H 0.03716 0.6304 0.57 0.0
H1597 H 0.93905 0.63473 0.56568 0.0
H1598 H 0.95271 0.65499 0.55706 0.0
H1599 H 0.94926 0.63209 0.5427 0.0
H1600 H 0.00257 0.69283 0.52888 0.0
H1601 H 0.99529 0.6381 0.49369 0.0
H1602 H 0.00695 0.67704 0.57242 0.0
H1603 H 0.98102 0.67603 0.57025 0.0
H1604 H 0.99506 0.69586 0.56131 0.0
H1605 H 0.98148 0.60942 0.50531 0.0
H1606 H 0.97144 0.61076 0.52843 0.0
H1607 H 0.99675 0.60816 0.52743 0.0
C1608 C 0.82068 0.36093 0.64646 0.0
C1609 C 0.80885 0.3482 0.63253 0.0
C1610 C 0.83911 0.35641 0.65366 0.0
C1611 C 0.84596 0.3387 0.64679 0.0
C1612 C 0.83381 0.32543 0.63328 0.0
C1613 C 0.8154 0.33033 0.62632 0.0
C1614 C 0.85152 0.37093 0.66816 0.0
C1615 C 0.84058 0.30642 0.6256 0.0
C1616 C 0.90094 0.34112 0.64938 0.0
C1617 C 0.90557 0.33302 0.66678 0.0
C1618 C 0.88156 0.34212 0.6422 0.0
C1619 C 0.86638 0.33491 0.65272 0.0
C1620 C 0.87095 0.32572 0.66973 0.0
C1621 C 0.89053 0.32482 0.67655 0.0
C1622 C 0.87739 0.35185 0.62389 0.0
C1623 C 0.85521 0.31784 0.68136 0.0
H1624 H 0.81561 0.37461 0.65158 0.0
H1625 H 0.80642 0.32046 0.61546 0.0
H1626 H 0.85655 0.36381 0.68112 0.0
H1627 H 0.86463 0.37652 0.66159 0.0
H1628 H 0.84362 0.38345 0.67295 0.0
H1629 H 0.82878 0.29691 0.61662 0.0
H1630 H 0.85272 0.3093 0.61657 0.0
H1631 H 0.84618 0.29849 0.63776 0.0
H1632 H 0.91257 0.3473 0.64171 0.0
H1633 H 0.89406 0.31867 0.69007 0.0
H1634 H 0.87108 0.3657 0.62749 0.0
H1635 H 0.86656 0.34252 0.6136 0.0
H1636 H 0.89069 0.35506 0.6165 0.0
H1637 H 0.84833 0.33009 0.6884 0.0
H1638 H 0.86096 0.3091 0.69281 0.0
H1639 H 0.84368 0.30868 0.67172 0.0
C1640 C 0.66622 0.659 0.24701 0.0
C1641 C 0.68062 0.64927 0.25647 0.0
C1642 C 0.64867 0.66159 0.25504 0.0
C1643 C 0.64547 0.65428 0.27298 0.0
C1644 C 0.6605 0.64573 0.28327 0.0
C1645 C 0.67788 0.64329 0.27488 0.0
C1646 C 0.63309 0.67097 0.24373 0.0
C1647 C 0.6577 0.63796 0.30255 0.0
C1648 C 0.6017 0.66482 0.30015 0.0
C1649 C 0.58985 0.6473 0.29557 0.0
C1650 C 0.61969 0.66771 0.29247 0.0
C1651 C 0.62563 0.65289 0.27958 0.0
C1652 C 0.61296 0.63585 0.27375 0.0
C1653 C 0.59526 0.6333 0.28179 0.0
C1654 C 0.63278 0.68605 0.29912 0.0
C1655 C 0.61853 0.61979 0.2598 0.0
H1656 H 0.6684 0.66402 0.23296 0.0
H1657 H 0.68886 0.63568 0.28228 0.0
H1658 H 0.62114 0.65974 0.23783 0.0
H1659 H 0.62681 0.68188 0.25334 0.0
H1660 H 0.63871 0.67818 0.23143 0.0
H1661 H 0.67146 0.63389 0.30981 0.0
H1662 H 0.65178 0.64894 0.31238 0.0
H1663 H 0.647 0.62491 0.30032 0.0
H1664 H 0.59738 0.67578 0.31052 0.0
H1665 H 0.58588 0.61993 0.27781 0.0
H1666 H 0.64005 0.69167 0.28689 0.0
H1667 H 0.64429 0.68281 0.31017 0.0
H1668 H 0.62467 0.69761 0.30577 0.0
H1669 H 0.62303 0.62573 0.24641 0.0
H1670 H 0.60643 0.60816 0.25566 0.0
H1671 H 0.6311 0.61317 0.26657 0.0
C1672 C 0.41652 0.0207 0.37132 0.0
C1673 C 0.40572 0.00286 0.37253 0.0
C1674 C 0.43443 0.02145 0.36333 0.0
C1675 C 0.44154 0.00396 0.35624 0.0
C1676 C 0.43059 0.98595 0.35729 0.0
C1677 C 0.41285 0.98562 0.36547 0.0
C1678 C 0.44579 0.04089 0.36259 0.0
C1679 C 0.43756 0.96698 0.34969 0.0
C1680 C 0.47763 0.00168 0.31857 0.0
C1681 C 0.49447 0.99786 0.32974 0.0
C1682 C 0.46052 0.0048 0.32718 0.0
C1683 C 0.4603 0.00426 0.34747 0.0
C1684 C 0.47763 0.00183 0.359 0.0
C1685 C 0.49452 0.9986 0.34998 0.0
C1686 C 0.44238 0.0074 0.31437 0.0
C1687 C 0.47802 0.00138 0.38071 0.0
H1688 H 0.41111 0.03404 0.37694 0.0
H1689 H 0.40442 0.97183 0.36617 0.0
H1690 H 0.46028 0.04122 0.37083 0.0
H1691 H 0.44826 0.04315 0.34736 0.0
H1692 H 0.43825 0.05314 0.36872 0.0
H1693 H 0.42727 0.95424 0.35155 0.0
H1694 H 0.43954 0.9671 0.33403 0.0
H1695 H 0.45189 0.96513 0.35738 0.0
H1696 H 0.47762 0.00149 0.30295 0.0
H1697 H 0.50743 0.99556 0.3587 0.0
H1698 H 0.43527 0.02 0.32033 0.0
H1699 H 0.43187 0.99433 0.31397 0.0
H1700 H 0.44545 0.00957 0.29926 0.0
H1701 H 0.47088 0.01372 0.38721 0.0
H1702 H 0.49307 0.00199 0.38784 0.0
H1703 H 0.46981 0.98779 0.38394 0.0
C1704 C 0.09094 0.00994 0.75933 0.0
C1705 C 0.10458 0.99978 0.74994 0.0
C1706 C 0.07188 0.00994 0.75082 0.0
C1707 C 0.06625 0.99952 0.73243 0.0
C1708 C 0.07977 0.98885 0.72304 0.0
C1709 C 0.09883 0.98916 0.73188 0.0
C1710 C 0.05794 0.02161 0.76128 0.0
C1711 C 0.07422 0.97746 0.70349 0.0
C1712 C 0.0116 0.99163 0.72005 0.0
C1713 C 0.00826 0.00768 0.70976 0.0
C1714 C 0.03057 0.98806 0.72659 0.0
C1715 C 0.04649 1.00087 0.72275 0.0
C1716 C 0.04324 0.0164 0.71136 0.0
C1717 C 0.02417 0.01959 0.70498 0.0
C1718 C 0.03346 0.97128 0.73859 0.0
C1719 C 0.05982 0.03036 0.70687 0.0
H1720 H 0.09535 0.01844 0.77312 0.0
H1721 H 0.10926 0.98113 0.72465 0.0
H1722 H 0.05358 0.03341 0.75255 0.0
H1723 H 0.04454 0.01224 0.76305 0.0
H1724 H 0.06436 0.02822 0.77586 0.0
H1725 H 0.08601 0.9689 0.69872 0.0
H1726 H 0.06097 0.9674 0.704 0.0
H1727 H 0.07075 0.98753 0.69244 0.0
H1728 H 0.99936 0.98243 0.72386 0.0
H1729 H 0.02166 0.03181 0.69672 0.0
H1730 H 0.03785 0.97694 0.75394 0.0
H1731 H 0.04529 0.96298 0.7335 0.0
H1732 H 0.02002 0.96121 0.73804 0.0
H1733 H 0.06632 0.03904 0.72046 0.0
H1734 H 0.05503 0.0405 0.69632 0.0
H1735 H 0.07139 0.02229 0.70091 0.0
C1736 C 0.63257 0.81558 0.3361 0.0
C1737 C 0.63707 0.80934 0.35451 0.0
C1738 C 0.63904 0.83439 0.33194 0.0
C1739 C 0.65026 0.84726 0.34653 0.0
C1740 C 0.65536 0.84081 0.36491 0.0
C1741 C 0.64874 0.82196 0.36865 0.0
C1742 C 0.63335 0.84071 0.31216 0.0
C1743 C 0.66739 0.85403 0.38085 0.0
C1744 C 0.68055 0.89282 0.33615 0.0
C1745 C 0.66911 0.90738 0.34238 0.0
C1746 C 0.67417 0.87307 0.33643 0.0
C1747 C 0.65594 0.86779 0.34311 0.0
C1748 C 0.64385 0.88241 0.34829 0.0
C1749 C 0.65057 0.90201 0.34784 0.0
C1750 C 0.68745 0.85793 0.33068 0.0
C1751 C 0.62424 0.87742 0.35534 0.0
H1752 H 0.62341 0.80598 0.32515 0.0
H1753 H 0.65254 0.81714 0.38279 0.0
H1754 H 0.62346 0.85234 0.31356 0.0
H1755 H 0.64637 0.84686 0.30582 0.0
H1756 H 0.62592 0.82854 0.30195 0.0
H1757 H 0.67076 0.84655 0.39405 0.0
H1758 H 0.68125 0.85965 0.37564 0.0
H1759 H 0.65948 0.86674 0.38492 0.0
H1760 H 0.69494 0.89687 0.33205 0.0
H1761 H 0.64156 0.91322 0.3524 0.0
H1762 H 0.67935 0.84602 0.32064 0.0
H1763 H 0.69312 0.85141 0.3438 0.0
H1764 H 0.69998 0.86416 0.3236 0.0
H1765 H 0.61553 0.8661 0.34507 0.0
H1766 H 0.61589 0.89029 0.35708 0.0
H1767 H 0.62622 0.87141 0.36958 0.0
C1768 C 0.72392 0.08018 0.99311 0.0
C1769 C 0.73072 0.09288 0.98008 0.0
C1770 C 0.72117 0.06006 0.98799 0.0
C1771 C 0.72525 0.05244 0.96935 0.0
C1772 C 0.73095 0.06526 0.95571 0.0
C1773 C 0.73371 0.08534 0.96127 0.0
C1774 C 0.71509 0.04689 0.003 0.0
C1775 C 0.73514 0.05771 0.93561 0.0
C1776 C 0.74255 0.00237 0.96972 0.0
C1777 C 0.72533 0.99038 0.96389 0.0
C1778 C 0.74295 0.02262 0.97048 0.0
C1779 C 0.72569 0.0311 0.96517 0.0
C1780 C 0.70859 0.01904 0.9579 0.0
C1781 C 0.7086 0.99874 0.95736 0.0
C1782 C 0.76154 0.03492 0.97819 0.0
C1783 C 0.68998 0.02754 0.95189 0.0
H1784 H 0.72176 0.08586 0.00772 0.0
H1785 H 0.7387 0.09513 0.95105 0.0
H1786 H 0.70267 0.03635 0.9968 0.0
H1787 H 0.72729 0.03843 0.00743 0.0
H1788 H 0.71087 0.05513 0.01617 0.0
H1789 H 0.73668 0.06951 0.92591 0.0
H1790 H 0.74884 0.05061 0.93657 0.0
H1791 H 0.7234 0.04659 0.92895 0.0
H1792 H 0.75556 0.99588 0.97454 0.0
H1793 H 0.69524 0.98951 0.95292 0.0
H1794 H 0.75963 0.04271 0.99245 0.0
H1795 H 0.7651 0.04605 0.96823 0.0
H1796 H 0.77404 0.02611 0.98012 0.0
H1797 H 0.68374 0.03358 0.96502 0.0
H1798 H 0.67902 0.01646 0.94371 0.0
H1799 H 0.6928 0.03963 0.9428 0.0
C1800 C 0.24333 0.67102 0.64653 0.0
C1801 C 0.25112 0.68893 0.65639 0.0
C1802 C 0.25295 0.65424 0.64807 0.0
C1803 C 0.27082 0.6553 0.65984 0.0
C1804 C 0.27822 0.67304 0.67073 0.0
C1805 C 0.26834 0.68969 0.66879 0.0
C1806 C 0.24474 0.63574 0.63587 0.0
C1807 C 0.29706 0.67465 0.68367 0.0
C1808 C 0.28955 0.60605 0.66573 0.0
C1809 C 0.30184 0.60471 0.65075 0.0
C1810 C 0.28028 0.62297 0.66982 0.0
C1811 C 0.28293 0.63867 0.65832 0.0
C1812 C 0.29594 0.63773 0.64382 0.0
C1813 C 0.30555 0.62105 0.64059 0.0
C1814 C 0.26691 0.62366 0.68577 0.0
C1815 C 0.29904 0.65396 0.63097 0.0
H1816 H 0.23021 0.67032 0.63668 0.0
H1817 H 0.27432 0.70342 0.67666 0.0
H1818 H 0.25437 0.63243 0.62434 0.0
H1819 H 0.24415 0.62333 0.64486 0.0
H1820 H 0.22991 0.63684 0.62885 0.0
H1821 H 0.29919 0.68834 0.69351 0.0
H1822 H 0.29751 0.66215 0.69255 0.0
H1823 H 0.3094 0.6743 0.6746 0.0
H1824 H 0.28646 0.59363 0.67373 0.0
H1825 H 0.31555 0.62063 0.62951 0.0
H1826 H 0.2516 0.62195 0.67928 0.0
H1827 H 0.26937 0.63791 0.69467 0.0
H1828 H 0.26896 0.61194 0.69544 0.0
H1829 H 0.28491 0.65786 0.62444 0.0
H1830 H 0.3079 0.64992 0.61899 0.0
H1831 H 0.30646 0.66709 0.63974 0.0
C1832 C 0.35743 0.40642 0.00897 0.0
C1833 C 0.3763 0.40801 0.0184 0.0
C1834 C 0.34762 0.42294 0.00645 0.0
C1835 C 0.35692 0.44153 0.01346 0.0
C1836 C 0.37577 0.44323 0.02343 0.0
C1837 C 0.38525 0.42643 0.02578 0.0
C1838 C 0.32752 0.42052 0.99571 0.0
C1839 C 0.3861 0.46282 0.03115 0.0
C1840 C 0.33865 0.48229 0.98637 0.0
C1841 C 0.32528 0.48941 0.99852 0.0
C1842 C 0.34969 0.46728 0.99151 0.0
C1843 C 0.34727 0.45915 0.00921 0.0
C1844 C 0.33447 0.46689 0.02197 0.0
C1845 C 0.32362 0.48199 0.01647 0.0
C1846 C 0.36332 0.45956 0.97758 0.0
C1847 C 0.33152 0.45859 0.04096 0.0
H1848 H 0.35052 0.39228 0.00298 0.0
H1849 H 0.39973 0.42773 0.03332 0.0
H1850 H 0.31724 0.42784 0.00453 0.0
H1851 H 0.32779 0.42751 0.98197 0.0
H1852 H 0.32189 0.40501 0.99217 0.0
H1853 H 0.40019 0.46157 0.03965 0.0
H1854 H 0.38888 0.47154 0.01889 0.0
H1855 H 0.37683 0.47094 0.04052 0.0
H1856 H 0.34015 0.48822 0.97261 0.0
H1857 H 0.31322 0.4874 0.02584 0.0
H1858 H 0.35796 0.44444 0.97179 0.0
H1859 H 0.37799 0.45917 0.98522 0.0
H1860 H 0.36464 0.46845 0.96516 0.0
H1861 H 0.32408 0.44366 0.03803 0.0
H1862 H 0.32263 0.46749 0.0501 0.0
H1863 H 0.34572 0.45753 0.04928 0.0
C1864 C 0.33541 0.6522 0.80752 0.0
C1865 C 0.34835 0.63783 0.80593 0.0
C1866 C 0.33189 0.66091 0.82579 0.0
C1867 C 0.34158 0.65518 0.84286 0.0
C1868 C 0.35418 0.64029 0.84136 0.0
C1869 C 0.35734 0.63178 0.82297 0.0
C1870 C 0.31826 0.67665 0.8268 0.0
C1871 C 0.36481 0.63372 0.85917 0.0
C1872 C 0.35298 0.68997 0.88859 0.0
C1873 C 0.33997 0.68232 0.90094 0.0
C1874 C 0.35309 0.68176 0.86941 0.0
C1875 C 0.33974 0.66556 0.86227 0.0
C1876 C 0.32585 0.65841 0.8743 0.0
C1877 C 0.32615 0.66686 0.89353 0.0
C1878 C 0.36813 0.68988 0.85711 0.0
C1879 C 0.31126 0.64128 0.86717 0.0
H1880 H 0.32846 0.65704 0.79446 0.0
H1881 H 0.367 0.62038 0.82193 0.0
H1882 H 0.30734 0.67349 0.83711 0.0
H1883 H 0.32656 0.69074 0.83233 0.0
H1884 H 0.31054 0.67822 0.8124 0.0
H1885 H 0.37344 0.62139 0.85557 0.0
H1886 H 0.37478 0.64596 0.86678 0.0
H1887 H 0.35433 0.62922 0.86945 0.0
H1888 H 0.36345 0.70218 0.89409 0.0
H1889 H 0.3161 0.66082 0.90299 0.0
H1890 H 0.36109 0.69315 0.84296 0.0
H1891 H 0.37841 0.6789 0.85401 0.0
H1892 H 0.37657 0.70334 0.86434 0.0
H1893 H 0.30393 0.64337 0.85276 0.0
H1894 H 0.30006 0.63893 0.8774 0.0
H1895 H 0.31887 0.62794 0.86536 0.0
C1896 C 0.00538 0.70185 0.10227 0.0
C1897 C 0.01174 0.72067 0.11088 0.0
C1898 C 0.00305 0.69772 0.08196 0.0
C1899 C 0.00749 0.71269 0.07005 0.0
C1900 C 0.01297 0.73188 0.07862 0.0
C1901 C 0.01483 0.73566 0.09889 0.0
C1902 C 0.99676 0.67716 0.07333 0.0
C1903 C 0.01792 0.74827 0.06645 0.0
C1904 C 0.02845 0.70129 0.02239 0.0
C1905 C 0.01323 0.70465 0.00878 0.0
C1906 C 0.02647 0.70316 0.04232 0.0
C1907 C 0.00866 0.70809 0.04888 0.0
C1908 C 0.99279 0.71022 0.0352 0.0
C1909 C 0.9953 0.70861 0.01527 0.0
C1910 C 0.0438 0.70082 0.0564 0.0
C1911 C 0.97345 0.71506 0.04163 0.0
H1912 H 0.00297 0.69015 0.11136 0.0
H1913 H 0.01919 0.75036 0.10538 0.0
H1914 H 0.98545 0.677 0.06096 0.0
H1915 H 0.00934 0.67057 0.06763 0.0
H1916 H 0.99099 0.66796 0.0842 0.0
H1917 H 0.02071 0.76257 0.07526 0.0
H1918 H 0.03109 0.74548 0.0591 0.0
H1919 H 0.00594 0.74909 0.05497 0.0
H1920 H 0.04217 0.69768 0.01745 0.0
H1921 H 0.98346 0.71121 0.00486 0.0
H1922 H 0.03984 0.69003 0.06657 0.0
H1923 H 0.0485 0.71485 0.06521 0.0
H1924 H 0.05631 0.69609 0.04891 0.0
H1925 H 0.96896 0.70563 0.05285 0.0
H1926 H 0.96187 0.71337 0.02932 0.0
H1927 H 0.97476 0.73031 0.04827 0.0
C1928 C 0.66185 0.24364 0.65976 0.0
C1929 C 0.65092 0.25157 0.67399 0.0
C1930 C 0.66335 0.25201 0.64221 0.0
C1931 C 0.65349 0.26855 0.63878 0.0
C1932 C 0.64328 0.27718 0.65351 0.0
C1933 C 0.64216 0.26861 0.67094 0.0
C1934 C 0.67457 0.24255 0.62696 0.0
C1935 C 0.63233 0.29465 0.65037 0.0
C1936 C 0.66113 0.29857 0.5964 0.0
C1937 C 0.64477 0.29155 0.58359 0.0
C1938 C 0.66475 0.29067 0.61417 0.0
C1939 C 0.6517 0.27541 0.61909 0.0
C1940 C 0.63578 0.26762 0.60568 0.0
C1941 C 0.63255 0.27575 0.5881 0.0
C1942 C 0.68188 0.29933 0.62809 0.0
C1943 C 0.62156 0.2513 0.61027 0.0
H1944 H 0.66883 0.23058 0.66216 0.0
H1945 H 0.63348 0.27468 0.68177 0.0
H1946 H 0.6643 0.23539 0.61473 0.0
H1947 H 0.68427 0.25363 0.621 0.0
H1948 H 0.68346 0.23145 0.63277 0.0
H1949 H 0.62839 0.30179 0.66424 0.0
H1950 H 0.64102 0.30545 0.64306 0.0
H1951 H 0.61875 0.29001 0.64079 0.0
H1952 H 0.67057 0.31077 0.59291 0.0
H1953 H 0.62007 0.27009 0.57804 0.0
H1954 H 0.68969 0.28774 0.63438 0.0
H1955 H 0.67664 0.30819 0.64028 0.0
H1956 H 0.69228 0.30877 0.62097 0.0
H1957 H 0.62938 0.23888 0.61459 0.0
H1958 H 0.6107 0.24607 0.59775 0.0
H1959 H 0.61369 0.25635 0.6227 0.0
C1960 C 0.99875 0.36948 0.42203 0.0
C1961 C 0.01553 0.38086 0.41857 0.0
C1962 C 0.99793 0.36027 0.43907 0.0
C1963 C 0.0144 0.36233 0.45295 0.0
C1964 C 0.03143 0.37378 0.44957 0.0
C1965 C 0.03175 0.38308 0.43242 0.0
C1966 C 0.97938 0.34837 0.44223 0.0
C1967 C 0.04931 0.37605 0.46393 0.0
C1968 C 1.00033 0.35023 0.50202 0.0
C1969 C 0.00201 0.33022 0.50064 0.0
C1970 C 0.00586 0.36138 0.48721 0.0
C1971 C 0.01343 0.35226 0.47086 0.0
C1972 C 0.01689 0.33244 0.47039 0.0
C1973 C 0.01093 0.32158 0.48523 0.0
C1974 C 0.0018 0.38243 0.4882 0.0
C1975 C 0.02531 0.32229 0.45341 0.0
H1976 H 0.98611 0.36801 0.41146 0.0
H1977 H 0.04476 0.39183 0.42968 0.0
H1978 H 0.98222 0.33304 0.44354 0.0
H1979 H 0.97395 0.35394 0.456 0.0
H1980 H 0.96777 0.34864 0.4302 0.0
H1981 H 0.06134 0.38557 0.45919 0.0
H1982 H 0.04577 0.38226 0.47831 0.0
H1983 H 0.05442 0.3616 0.46591 0.0
H1984 H 0.9933 0.35684 0.51391 0.0
H1985 H 0.01231 0.3061 0.48429 0.0
H1986 H 0.98887 0.38389 0.47802 0.0
H1987 H 0.01417 0.39162 0.48369 0.0
H1988 H 0.99889 0.38807 0.50302 0.0
H1989 H 0.01408 0.31963 0.44082 0.0
H1990 H 0.03028 0.3081 0.45683 0.0
H1991 H 0.03773 0.33148 0.44898 0.0
C1992 C 0.32758 0.56661 0.50364 0.0
C1993 C 0.31226 0.57757 0.49811 0.0
C1994 C 0.32995 0.56044 0.52235 0.0
C1995 C 0.31717 0.56594 0.53614 0.0
C1996 C 0.30139 0.57648 0.53056 0.0
C1997 C 0.29886 0.58171 0.51153 0.0
C1998 C 0.34686 0.5491 0.52774 0.0
C1999 C 0.28781 0.58325 0.545 0.0
C2000 C 0.31206 0.54627 0.58488 0.0
C2001 C 0.32247 0.56132 0.59736 0.0
C2002 C 0.31147 0.54667 0.56461 0.0
C2003 C 0.3213 0.5626 0.5569 0.0
C2004 C 0.33325 0.57681 0.56958 0.0
C2005 C 0.33368 0.57591 0.58962 0.0
C2006 C 0.29926 0.53081 0.55153 0.0
C2007 C 0.34416 0.59415 0.5625 0.0
H2008 H 0.33828 0.56348 0.49368 0.0
H2009 H 0.28662 0.5896 0.50741 0.0
H2010 H 0.35801 0.55861 0.5375 0.0
H2011 H 0.34208 0.53666 0.53573 0.0
H2012 H 0.3537 0.54351 0.51478 0.0
H2013 H 0.27584 0.59071 0.53818 0.0
H2014 H 0.28139 0.57075 0.55196 0.0
H2015 H 0.29609 0.59348 0.55666 0.0
H2016 H 0.30339 0.53496 0.59092 0.0
H2017 H 0.34183 0.58743 0.59936 0.0
H2018 H 0.30703 0.5262 0.53887 0.0
H2019 H 0.2856 0.53638 0.54585 0.0
H2020 H 0.29545 0.51793 0.55934 0.0
H2021 H 0.3477 0.59147 0.54733 0.0
H2022 H 0.3579 0.59859 0.57193 0.0
H2023 H 0.33511 0.60652 0.56343 0.0
C2024 C 0.23001 0.44557 0.88364 0.0
C2025 C 0.22536 0.45235 0.86557 0.0
C2026 C 0.23959 0.45804 0.89921 0.0
C2027 C 0.24445 0.47786 0.89674 0.0
C2028 C 0.23924 0.48495 0.8787 0.0
C2029 C 0.22989 0.47205 0.86325 0.0
C2030 C 0.24511 0.44983 0.91813 0.0
C2031 C 0.24389 0.50603 0.87563 0.0
C2032 C 0.25799 0.50862 0.94476 0.0
C2033 C 0.27821 0.50815 0.94686 0.0
C2034 C 0.2468 0.50003 0.92781 0.0
C2035 C 0.25608 0.49064 0.91276 0.0
C2036 C 0.2766 0.49148 0.91422 0.0
C2037 C 0.28741 0.50035 0.93119 0.0
C2038 C 0.22497 0.49978 0.92662 0.0
C2039 C 0.2871 0.48169 0.89852 0.0
H2040 H 0.22673 0.43031 0.88541 0.0
H2041 H 0.22615 0.47735 0.84932 0.0
H2042 H 0.26116 0.45135 0.92126 0.0
H2043 H 0.23912 0.45807 0.93027 0.0
H2044 H 0.23976 0.43423 0.91786 0.0
H2045 H 0.23738 0.50958 0.86133 0.0
H2046 H 0.23853 0.51554 0.88727 0.0
H2047 H 0.25986 0.50951 0.87644 0.0
H2048 H 0.25078 0.5146 0.95683 0.0
H2049 H 0.30308 0.50031 0.93261 0.0
H2050 H 0.21852 0.48504 0.92884 0.0
H2051 H 0.21906 0.50314 0.91207 0.0
H2052 H 0.22028 0.51034 0.93781 0.0
H2053 H 0.28404 0.46569 0.89818 0.0
H2054 H 0.30308 0.48542 0.90094 0.0
H2055 H 0.28185 0.48583 0.88407 0.0
C2056 C 0.71846 0.00813 0.47246 0.0
C2057 C 0.70335 0.01053 0.48432 0.0
C2058 C 0.71453 0.00244 0.45252 0.0
C2059 C 0.69501 0.9987 0.4443 0.0
C2060 C 0.67973 0.00236 0.45586 0.0
C2061 C 0.68409 0.00842 0.4757 0.0
C2062 C 0.73126 0.99908 0.44057 0.0
C2063 C 0.65873 0.99848 0.44764 0.0
C2064 C 0.68584 0.98869 0.38939 0.0
C2065 C 0.68578 0.96837 0.38693 0.0
C2066 C 0.68848 0.99886 0.40799 0.0
C2067 C 0.69068 0.98841 0.42449 0.0
C2068 C 0.68974 0.96788 0.42214 0.0
C2069 C 0.68755 0.95816 0.40343 0.0
C2070 C 0.68964 0.02077 0.40993 0.0
C2071 C 0.69174 0.95617 0.4394 0.0
H2072 H 0.73338 0.00959 0.4789 0.0
H2073 H 0.67233 0.01076 0.48462 0.0
H2074 H 0.73189 0.98324 0.43719 0.0
H2075 H 0.72917 0.00551 0.42656 0.0
H2076 H 0.74542 0.00537 0.44831 0.0
H2077 H 0.64875 0.0046 0.4577 0.0
H2078 H 0.65638 0.00467 0.43355 0.0
H2079 H 0.65481 0.98256 0.44492 0.0
H2080 H 0.68416 0.99671 0.37675 0.0
H2081 H 0.68794 0.94254 0.40178 0.0
H2082 H 0.70446 0.02683 0.41609 0.0
H2083 H 0.67937 0.02596 0.42012 0.0
H2084 H 0.68636 0.02663 0.39577 0.0
H2085 H 0.70656 0.95941 0.44705 0.0
H2086 H 0.6892 0.94027 0.43514 0.0
H2087 H 0.68128 0.9602 0.44989 0.0
C2088 C 0.73672 0.95953 0.10067 0.0
C2089 C 0.74773 0.94816 0.11221 0.0
C2090 C 0.73496 0.95619 0.0804 0.0
C2091 C 0.74435 0.94101 0.07141 0.0
C2092 C 0.7553 0.92928 0.08297 0.0
C2093 C 0.75698 0.93309 0.10329 0.0
C2094 C 0.72332 0.96919 0.0686 0.0
C2095 C 0.76531 0.91284 0.07386 0.0
C2096 C 0.72335 0.92826 0.01926 0.0
C2097 C 0.73573 0.94038 0.00964 0.0
C2098 C 0.72692 0.92695 0.03928 0.0
C2099 C 0.74311 0.93815 0.04987 0.0
C2100 C 0.75651 0.94908 0.03993 0.0
C2101 C 0.7527 0.94997 0.01991 0.0
C2102 C 0.71246 0.91486 0.04931 0.0
C2103 C 0.774 0.9612 0.05066 0.0
H2104 H 0.72981 0.97138 0.10752 0.0
H2105 H 0.76539 0.9242 0.11223 0.0
H2106 H 0.73279 0.97688 0.0591 0.0
H2107 H 0.71151 0.96034 0.05904 0.0
H2108 H 0.71674 0.9802 0.07787 0.0
H2109 H 0.77259 0.90457 0.08489 0.0
H2110 H 0.75463 0.90269 0.06419 0.0
H2111 H 0.77635 0.91863 0.06472 0.0
H2112 H 0.71019 0.9208 0.01144 0.0
H2113 H 0.76254 0.959 0.01243 0.0
H2114 H 0.70321 0.92456 0.05707 0.0
H2115 H 0.72 0.90671 0.06025 0.0
H2116 H 0.70287 0.90438 0.03883 0.0
H2117 H 0.76913 0.97388 0.05912 0.0
H2118 H 0.78433 0.96665 0.04061 0.0
H2119 H 0.78178 0.95269 0.06109 0.0
C2120 C 0.5017 0.32873 0.55714 0.0
C2121 C 0.49901 0.32056 0.57459 0.0
C2122 C 0.51951 0.3286 0.54904 0.0
C2123 C 0.53503 0.32028 0.55874 0.0
C2124 C 0.53224 0.31156 0.57608 0.0
C2125 C 0.51421 0.31163 0.58367 0.0
C2126 C 0.52188 0.33779 0.5304 0.0
C2127 C 0.54853 0.30277 0.58705 0.0
C2128 C 0.57935 0.3047 0.53586 0.0
C2129 C 0.59355 0.31934 0.54423 0.0
C2130 C 0.5598 0.30552 0.53923 0.0
C2131 C 0.55452 0.32128 0.55138 0.0
C2132 C 0.56866 0.33684 0.55858 0.0
C2133 C 0.58808 0.33563 0.55495 0.0
C2134 C 0.54519 0.28865 0.53131 0.0
C2135 C 0.56367 0.35389 0.57162 0.0
H2136 H 0.48988 0.33536 0.54987 0.0
H2137 H 0.51231 0.30547 0.59725 0.0
H2138 H 0.53284 0.3506 0.53319 0.0
H2139 H 0.52732 0.32739 0.51959 0.0
H2140 H 0.50805 0.34253 0.52401 0.0
H2141 H 0.54372 0.29581 0.59983 0.0
H2142 H 0.55453 0.29174 0.57734 0.0
H2143 H 0.56051 0.31423 0.59221 0.0
H2144 H 0.58377 0.29191 0.52795 0.0
H2145 H 0.59924 0.34668 0.56177 0.0
H2146 H 0.53148 0.29388 0.5253 0.0
H2147 H 0.54165 0.27976 0.54326 0.0
H2148 H 0.55082 0.27916 0.5198 0.0
H2149 H 0.55013 0.35945 0.56562 0.0
H2150 H 0.57551 0.36597 0.57363 0.0
H2151 H 0.56112 0.34915 0.5861 0.0
C2152 C 0.14656 0.76362 0.95518 0.0
C2153 C 0.15692 0.7591 0.97222 0.0
C2154 C 0.12722 0.75583 0.95 0.0
C2155 C 0.1181 0.7433 0.96217 0.0
C2156 C 0.12886 0.73787 0.97878 0.0
C2157 C 0.14813 0.74582 0.98358 0.0
C2158 C 0.11627 0.76185 0.93211 0.0
C2159 C 0.11971 0.72443 0.99209 0.0
C2160 C 0.06463 0.74177 0.96881 0.0
C2161 C 0.05767 0.7233 0.9598 0.0
C2162 C 0.08406 0.74902 0.96853 0.0
C2163 C 0.09683 0.73749 0.95899 0.0
C2164 C 0.08951 0.71948 0.94855 0.0
C2165 C 0.06993 0.71256 0.94908 0.0
C2166 C 0.09119 0.7684 0.97967 0.0
C2167 C 0.10263 0.70688 0.93803 0.0
H2168 H 0.15326 0.77395 0.94638 0.0
H2169 H 0.1562 0.74201 0.99656 0.0
H2170 H 0.10797 0.74906 0.92351 0.0
H2171 H 0.10565 0.77201 0.93652 0.0
H2172 H 0.12612 0.7692 0.9227 0.0
H2173 H 0.13046 0.72045 0.00352 0.0
H2174 H 0.1082 0.73158 0.99927 0.0
H2175 H 0.11272 0.71092 0.98363 0.0
H2176 H 0.05504 0.75017 0.97689 0.0
H2177 H 0.06455 0.69826 0.94212 0.0
H2178 H 0.09977 0.7776 0.97061 0.0
H2179 H 0.1009 0.76609 0.99266 0.0
H2180 H 0.07906 0.77641 0.98454 0.0
H2181 H 0.11231 0.7157 0.92961 0.0
H2182 H 0.09423 0.6951 0.92801 0.0
H2183 H 0.11201 0.70014 0.94878 0.0
C2184 C 0.89 0.22296 0.44512 0.0
C2185 C 0.87053 0.22491 0.44803 0.0
C2186 C 0.90512 0.23233 0.45835 0.0
C2187 C 0.90064 0.24381 0.47495 0.0
C2188 C 0.881 0.24487 0.47855 0.0
C2189 C 0.86617 0.2355 0.46498 0.0
C2190 C 0.92587 0.23097 0.45388 0.0
C2191 C 0.87562 0.25677 0.49618 0.0
C2192 C 0.94256 0.26254 0.51317 0.0
C2193 C 0.94764 0.28102 0.50745 0.0
C2194 C 0.92692 0.25032 0.50308 0.0
C2195 C 0.91629 0.25679 0.4869 0.0
C2196 C 0.92101 0.27568 0.48153 0.0
C2197 C 0.93645 0.28758 0.49196 0.0
C2198 C 0.92209 0.23037 0.50937 0.0
C2199 C 0.91007 0.28319 0.4644 0.0
H2200 H 0.89345 0.2149 0.43198 0.0
H2201 H 0.85112 0.23678 0.46743 0.0
H2202 H 0.93206 0.24526 0.45004 0.0
H2203 H 0.9349 0.22739 0.46682 0.0
H2204 H 0.92699 0.21985 0.44161 0.0
H2205 H 0.85999 0.25392 0.4983 0.0
H2206 H 0.88446 0.25366 0.50944 0.0
H2207 H 0.87873 0.27245 0.49451 0.0
H2208 H 0.95113 0.25743 0.52516 0.0
H2209 H 0.93994 0.30207 0.48781 0.0
H2210 H 0.92511 0.21916 0.49793 0.0
H2211 H 0.90639 0.22804 0.5113 0.0
H2212 H 0.93063 0.22815 0.52316 0.0
H2213 H 0.91149 0.27377 0.45094 0.0
H2214 H 0.91545 0.29834 0.4623 0.0
H2215 H 0.89437 0.28273 0.46641 0.0
C2216 C 0.47326 0.69907 0.99011 0.0
C2217 C 0.48182 0.71649 1.00039 0.0
C2218 C 0.45323 0.69627 0.98457 0.0
C2219 C 0.44148 0.71128 0.98936 0.0
C2220 C 0.44982 0.72846 0.00066 0.0
C2221 C 0.46993 0.73087 0.00603 0.0
C2222 C 0.44488 0.67771 0.97256 0.0
C2223 C 0.43769 0.74469 0.00621 0.0
C2224 C 0.39784 0.71331 0.95308 0.0
C2225 C 0.38284 0.70406 0.96213 0.0
C2226 C 0.41687 0.71622 0.96208 0.0
C2227 C 0.42101 0.70979 0.98065 0.0
C2228 C 0.40583 0.70101 0.99017 0.0
C2229 C 0.38689 0.69821 0.98076 0.0
C2230 C 0.43265 0.72574 0.95148 0.0
C2231 C 0.40969 0.69404 0.00999 0.0
H2232 H 0.48235 0.68797 0.98547 0.0
H2233 H 0.47643 0.74424 0.01423 0.0
H2234 H 0.43182 0.67133 0.97867 0.0
H2235 H 0.44027 0.68093 0.95757 0.0
H2236 H 0.45554 0.66671 0.97178 0.0
H2237 H 0.44585 0.75599 0.01696 0.0
H2238 H 0.43296 0.75167 0.99306 0.0
H2239 H 0.4244 0.73891 0.01235 0.0
H2240 H 0.3947 0.7182 0.93885 0.0
H2241 H 0.37536 0.69095 0.98778 0.0
H2242 H 0.44352 0.71536 0.94846 0.0
H2243 H 0.44037 0.73848 0.96067 0.0
H2244 H 0.42687 0.73063 0.9375 0.0
H2245 H 0.41862 0.68158 0.00893 0.0
H2246 H 0.39605 0.68936 0.01623 0.0
H2247 H 0.41807 0.70568 0.02014 0.0
C2248 C 0.57149 0.50754 0.33851 0.0
C2249 C 0.58396 0.50374 0.32406 0.0
C2250 C 0.56364 0.52546 0.34088 0.0
C2251 C 0.56829 0.53989 0.32847 0.0
C2252 C 0.5803 0.53591 0.31344 0.0
C2253 C 0.58801 0.51792 0.31145 0.0
C2254 C 0.55078 0.52913 0.35695 0.0
C2255 C 0.58548 0.55092 0.29982 0.0
C2256 C 0.54142 0.58407 0.32048 0.0
C2257 C 0.55464 0.59876 0.33045 0.0
C2258 C 0.54472 0.56444 0.32108 0.0
C2259 C 0.56171 0.55963 0.33173 0.0
C2260 C 0.57401 0.57442 0.34334 0.0
C2261 C 0.57022 0.59382 0.34264 0.0
C2262 C 0.53108 0.5491 0.30876 0.0
C2263 C 0.59238 0.57007 0.35479 0.0
H2264 H 0.56794 0.49654 0.34808 0.0
H2265 H 0.5978 0.51526 0.30041 0.0
H2266 H 0.55812 0.54072 0.36787 0.0
H2267 H 0.53699 0.53434 0.35109 0.0
H2268 H 0.54732 0.51592 0.36438 0.0
H2269 H 0.59445 0.54533 0.28849 0.0
H2270 H 0.57209 0.55566 0.29253 0.0
H2271 H 0.59362 0.56395 0.30817 0.0
H2272 H 0.5295 0.58796 0.31088 0.0
H2273 H 0.58043 0.6053 0.35028 0.0
H2274 H 0.52848 0.53599 0.31656 0.0
H2275 H 0.53773 0.54463 0.29533 0.0
H2276 H 0.5169 0.55455 0.30452 0.0
H2277 H 0.58975 0.55696 0.36257 0.0
H2278 H 0.59846 0.58245 0.36548 0.0
H2279 H 0.60345 0.56714 0.34463 0.0
C2280 C 0.95403 0.1502 0.74275 0.0
C2281 C 0.96405 0.15254 0.76137 0.0
C2282 C 0.9515 0.13196 0.73176 0.0
C2283 C 0.95954 0.11591 0.73949 0.0
C2284 C 0.96948 0.11822 0.75837 0.0
C2285 C 0.97151 0.13646 0.76909 0.0
C2286 C 0.94052 0.12994 0.71182 0.0
C2287 C 0.97854 0.10157 0.76707 0.0
C2288 C 0.94589 0.0628 0.72192 0.0
C2289 C 0.96184 0.05854 0.71179 0.0
C2290 C 0.94409 0.08184 0.72977 0.0
C2291 C 0.9587 0.09686 0.72767 0.0
C2292 C 0.97409 0.09288 0.71633 0.0
C2293 C 0.97536 0.07381 0.7084 0.0
C2294 C 0.92725 0.08558 0.74144 0.0
C2295 C 0.99003 0.10844 0.71378 0.0
H2296 H 0.94819 0.16262 0.7368 0.0
H2297 H 0.97954 0.1383 0.78336 0.0
H2298 H 0.95051 0.12654 0.70066 0.0
H2299 H 0.92893 0.11769 0.71054 0.0
H2300 H 0.93384 0.14338 0.70857 0.0
H2301 H 0.98545 0.10571 0.78209 0.0
H2302 H 0.96737 0.08917 0.76735 0.0
H2303 H 0.98975 0.09643 0.75795 0.0
H2304 H 0.93537 0.05112 0.72465 0.0
H2305 H 0.98745 0.07071 0.70016 0.0
H2306 H 0.92107 0.09915 0.7378 0.0
H2307 H 0.93243 0.08748 0.75714 0.0
H2308 H 0.91554 0.07339 0.73893 0.0
H2309 H 0.98379 0.12165 0.70921 0.0
H2310 H 0.99978 0.10349 0.7029 0.0
H2311 H 0.9989 0.11261 0.72787 0.0
C2312 C 0.45842 0.88043 0.24721 0.0
C2313 C 0.46198 0.87065 0.22953 0.0
C2314 C 0.47113 0.89612 0.25617 0.0
C2315 C 0.48785 0.90232 0.24723 0.0
C2316 C 0.49167 0.89243 0.22947 0.0
C2317 C 0.47867 0.87671 0.22081 0.0
C2318 C 0.46644 0.90632 0.27508 0.0
C2319 C 0.50935 0.89861 0.21955 0.0
C2320 C 0.50481 0.95473 0.26429 0.0
C2321 C 0.51837 0.9527 0.27999 0.0
C2322 C 0.49592 0.93845 0.25234 0.0
C2323 C 0.50066 0.9197 0.25629 0.0
C2324 C 0.51567 0.91774 0.271 0.0
C2325 C 0.5244 0.93433 0.2827 0.0
C2326 C 0.48016 0.94125 0.23669 0.0
C2327 C 0.52124 0.89802 0.27559 0.0
H2328 H 0.44541 0.87607 0.25389 0.0
H2329 H 0.48162 0.86909 0.20725 0.0
H2330 H 0.47879 0.90644 0.28639 0.0
H2331 H 0.46415 0.92167 0.27314 0.0
H2332 H 0.45321 0.8993 0.28044 0.0
H2333 H 0.51068 0.88892 0.20621 0.0
H2334 H 0.50859 0.91365 0.21553 0.0
H2335 H 0.52269 0.89868 0.22961 0.0
H2336 H 0.50023 0.96899 0.26215 0.0
H2337 H 0.5348 0.93274 0.29492 0.0
H2338 H 0.46578 0.93665 0.24146 0.0
H2339 H 0.48175 0.93213 0.22309 0.0
H2340 H 0.48031 0.95666 0.23351 0.0
H2341 H 0.50975 0.89082 0.28335 0.0
H2342 H 0.53521 0.89909 0.28493 0.0
H2343 H 0.52246 0.88861 0.26208 0.0
C2344 C 0.00396 0.4678 0.70805 0.0
C2345 C 0.98826 0.47866 0.71119 0.0
C2346 C 0.00109 0.44748 0.70413 0.0
C2347 C 0.98214 0.43793 0.70367 0.0
C2348 C 0.96635 0.44886 0.7073 0.0
C2349 C 0.9696 0.4691 0.71089 0.0
C2350 C 0.01819 0.4363 0.70008 0.0
C2351 C 0.94597 0.4392 0.70724 0.0
C2352 C 0.96547 0.38907 0.67586 0.0
C2353 C 0.96492 0.37696 0.69092 0.0
C2354 C 0.97234 0.40877 0.67964 0.0
C2355 C 0.97847 0.41655 0.69898 0.0
C2356 C 0.97888 0.40415 0.71408 0.0
C2357 C 0.97219 0.38443 0.70984 0.0
C2358 C 0.97203 0.42146 0.66308 0.0
C2359 C 0.98515 0.41192 0.7349 0.0
H2360 H 0.01837 0.47524 0.70817 0.0
H2361 H 0.95751 0.47752 0.71355 0.0
H2362 H 0.01952 0.42484 0.71012 0.0
H2363 H 0.01587 0.42892 0.6851 0.0
H2364 H 0.03207 0.44583 0.70161 0.0
H2365 H 0.93547 0.44973 0.71108 0.0
H2366 H 0.94099 0.43167 0.69264 0.0
H2367 H 0.94576 0.42803 0.71771 0.0
H2368 H 0.96004 0.3832 0.6612 0.0
H2369 H 0.97165 0.37507 0.7215 0.0
H2370 H 0.98604 0.43061 0.66359 0.0
H2371 H 0.96046 0.43138 0.66446 0.0
H2372 H 0.96924 0.41279 0.64871 0.0
H2373 H 0.99914 0.42118 0.73597 0.0
H2374 H 0.98677 0.4001 0.74452 0.0
H2375 H 0.97416 0.42115 0.74034 0.0
C2376 C 0.67221 0.4399 0.4963 0.0
C2377 C 0.68312 0.42437 0.50026 0.0
C2378 C 0.67134 0.44708 0.47799 0.0
C2379 C 0.68147 0.4384 0.46326 0.0
C2380 C 0.69317 0.4233 0.46743 0.0
C2381 C 0.69389 0.41651 0.48587 0.0
C2382 C 0.65905 0.46347 0.47424 0.0
C2383 C 0.70441 0.4138 0.45215 0.0
C2384 C 0.66476 0.43457 0.40974 0.0
C2385 C 0.67934 0.44659 0.40293 0.0
C2386 C 0.66421 0.43314 0.42966 0.0
C2387 C 0.67878 0.4438 0.443 0.0
C2388 C 0.69246 0.45734 0.43623 0.0
C2389 C 0.69263 0.45851 0.41615 0.0
C2390 C 0.64924 0.41869 0.43617 0.0
C2391 C 0.70795 0.46932 0.44997 0.0
H2392 H 0.66414 0.4463 0.50747 0.0
H2393 H 0.70229 0.40449 0.48878 0.0
H2394 H 0.66713 0.47468 0.46684 0.0
H2395 H 0.64588 0.45779 0.46446 0.0
H2396 H 0.65439 0.47044 0.48785 0.0
H2397 H 0.71315 0.40253 0.45784 0.0
H2398 H 0.69424 0.40694 0.43969 0.0
H2399 H 0.71433 0.42489 0.44652 0.0
H2400 H 0.65464 0.42522 0.39938 0.0
H2401 H 0.70404 0.46764 0.41076 0.0
H2402 H 0.64312 0.42475 0.44935 0.0
H2403 H 0.65633 0.40566 0.43986 0.0
H2404 H 0.63716 0.41414 0.42462 0.0
H2405 H 0.70189 0.47493 0.46337 0.0
H2406 H 0.71471 0.48177 0.44313 0.0
H2407 H 0.71951 0.46007 0.45431 0.0
C2408 C 0.75835 0.54526 0.11582 0.0
C2409 C 0.76242 0.539 0.13424 0.0
C2410 C 0.74749 0.53297 0.10084 0.0
C2411 C 0.74071 0.51385 0.10429 0.0
C2412 C 0.74553 0.50714 0.12259 0.0
C2413 C 0.7562 0.51986 0.13743 0.0
C2414 C 0.7425 0.54077 0.08159 0.0
C2415 C 0.73885 0.48677 0.12671 0.0
C2416 C 0.69444 0.49485 0.0729 0.0
C2417 C 0.70163 0.48475 0.05712 0.0
C2418 C 0.70692 0.50345 0.08891 0.0
C2419 C 0.7271 0.50172 0.08926 0.0
C2420 C 0.73425 0.49017 0.07413 0.0
C2421 C 0.72139 0.48184 0.05816 0.0
C2422 C 0.69865 0.51558 0.10473 0.0
C2423 C 0.75561 0.48771 0.07416 0.0
H2424 H 0.76295 0.5601 0.11336 0.0
H2425 H 0.75951 0.51492 0.1516 0.0
H2426 H 0.72656 0.54136 0.07915 0.0
H2427 H 0.74978 0.55557 0.0809 0.0
H2428 H 0.74677 0.53097 0.06955 0.0
H2429 H 0.74569 0.48307 0.14082 0.0
H2430 H 0.72286 0.48525 0.12707 0.0
H2431 H 0.74229 0.47606 0.11499 0.0
H2432 H 0.67909 0.49685 0.07227 0.0
H2433 H 0.72702 0.47408 0.04597 0.0
H2434 H 0.70376 0.53113 0.10428 0.0
H2435 H 0.7038 0.51146 0.11923 0.0
H2436 H 0.68251 0.51403 0.10317 0.0
H2437 H 0.76347 0.50144 0.07081 0.0
H2438 H 0.75838 0.47587 0.0632 0.0
H2439 H 0.76177 0.48452 0.08869 0.0
C2440 C 0.30907 0.01053 0.51631 0.0
C2441 C 0.29045 0.0019 0.50919 0.0
C2442 C 0.31376 0.01632 0.53615 0.0
C2443 C 0.29945 0.01356 0.54917 0.0
C2444 C 0.28097 0.00394 0.54227 0.0
C2445 C 0.2767 0.99819 0.52234 0.0
C2446 C 0.33367 0.02644 0.54298 0.0
C2447 C 0.26536 1.00064 0.55574 0.0
C2448 C 0.31474 0.02127 0.60345 0.0
C2449 C 0.3106 0.04049 0.60785 0.0
C2450 C 0.31112 0.0122 0.58442 0.0
C2451 C 0.30313 0.0226 0.56952 0.0
C2452 C 0.29883 0.04196 0.57393 0.0
C2453 C 0.30262 0.05066 0.59303 0.0
C2454 C 0.31598 0.99157 0.58021 0.0
C2455 C 0.29018 0.05351 0.55846 0.0
H2456 H 0.31973 0.01367 0.50626 0.0
H2457 H 0.26239 0.99123 0.51699 0.0
H2458 H 0.33245 0.04201 0.54734 0.0
H2459 H 0.34004 0.02009 0.55591 0.0
H2460 H 0.34381 0.02545 0.53151 0.0
H2461 H 0.25253 0.9912 0.54849 0.0
H2462 H 0.27115 0.99391 0.56867 0.0
H2463 H 0.26051 0.01481 0.56099 0.0
H2464 H 0.32103 0.01342 0.61487 0.0
H2465 H 0.29907 0.06539 0.59644 0.0
H2466 H 0.32701 0.99109 0.56962 0.0
H2467 H 0.30287 0.98224 0.57351 0.0
H2468 H 0.32168 0.98534 0.59351 0.0
H2469 H 0.30008 0.05484 0.54688 0.0
H2470 H 0.28751 0.06834 0.56435 0.0
H2471 H 0.27621 0.04584 0.55161 0.0
C2472 C 0.24145 0.06714 0.89532 0.0
C2473 C 0.25233 0.05309 0.88695 0.0
C2474 C 0.242 0.07083 0.91559 0.0
C2475 C 0.25352 0.06005 0.92767 0.0
C2476 C 0.2648 0.04612 0.91926 0.0
C2477 C 0.26409 0.04286 0.89902 0.0
C2478 C 0.22998 0.08593 0.92407 0.0
C2479 C 0.27715 0.03418 0.93163 0.0
C2480 C 0.26915 0.0736 0.98117 0.0
C2481 C 0.2568 0.06035 0.98957 0.0
C2482 C 0.26738 0.07472 0.96102 0.0
C2483 C 0.25302 0.06222 0.94908 0.0
C2484 C 0.23964 0.04987 0.95766 0.0
C2485 C 0.24165 0.04916 0.97781 0.0
C2486 C 0.28174 0.08828 0.95243 0.0
C2487 C 0.22406 0.03635 0.94546 0.0
H2488 H 0.23248 0.0752 0.88601 0.0
H2489 H 0.2723 0.0318 0.89261 0.0
H2490 H 0.21843 0.07882 0.93181 0.0
H2491 H 0.23917 0.09637 0.93488 0.0
H2492 H 0.22303 0.09412 0.91276 0.0
H2493 H 0.28559 0.02447 0.92283 0.0
H2494 H 0.28744 0.04386 0.94216 0.0
H2495 H 0.26776 0.02513 0.94013 0.0
H2496 H 0.28092 0.08227 0.99017 0.0
H2497 H 0.23182 0.03919 0.98432 0.0
H2498 H 0.27428 0.096 0.94107 0.0
H2499 H 0.29243 0.07974 0.94541 0.0
H2500 H 0.28979 0.0992 0.96364 0.0
H2501 H 0.21596 0.04434 0.93477 0.0
H2502 H 0.21357 0.02927 0.95443 0.0
H2503 H 0.23092 0.02485 0.93716 0.0
C2504 C 0.50324 0.68285 0.44033 0.0
C2505 C 0.50396 0.68651 0.42085 0.0
C2506 C 0.48595 0.68379 0.4493 0.0
C2507 C 0.469 0.6883 0.43845 0.0
C2508 C 0.46996 0.69302 0.41908 0.0
C2509 C 0.4874 0.69196 0.41051 0.0
C2510 C 0.4858 0.67946 0.47018 0.0
C2511 C 0.4526 0.69922 0.40728 0.0
C2512 C 0.41834 0.66764 0.44516 0.0
C2513 C 0.40957 0.68476 0.44889 0.0
C2514 C 0.43839 0.66825 0.44371 0.0
C2515 C 0.44979 0.68646 0.44634 0.0
C2516 C 0.44131 0.70336 0.45285 0.0
C2517 C 0.42113 0.70239 0.45363 0.0
C2518 C 0.44698 0.64949 0.4383 0.0
C2519 C 0.45316 0.72277 0.4575 0.0
H2520 H 0.51605 0.67871 0.44842 0.0
H2521 H 0.48808 0.69535 0.39564 0.0
H2522 H 0.47615 0.68867 0.47801 0.0
H2523 H 0.48028 0.66404 0.47064 0.0
H2524 H 0.50063 0.68178 0.47796 0.0
H2525 H 0.4548 0.69907 0.39164 0.0
H2526 H 0.43916 0.6898 0.40877 0.0
H2527 H 0.45022 0.71425 0.41262 0.0
H2528 H 0.40927 0.65401 0.44163 0.0
H2529 H 0.41426 0.71562 0.45661 0.0
H2530 H 0.45368 0.64421 0.45169 0.0
H2531 H 0.45845 0.65142 0.42831 0.0
H2532 H 0.4357 0.63799 0.43139 0.0
H2533 H 0.46838 0.72107 0.46295 0.0
H2534 H 0.44665 0.73205 0.46855 0.0
H2535 H 0.45339 0.73047 0.4442 0.0
C2536 C 0.86624 0.25459 0.04497 0.0
C2537 C 0.85589 0.24259 0.05646 0.0
C2538 C 0.88659 0.25712 0.04724 0.0
C2539 C 0.89685 0.24752 0.06146 0.0
C2540 C 0.8865 0.23553 0.07326 0.0
C2541 C 0.8661 0.23312 0.07055 0.0
C2542 C 0.89711 0.26987 0.03421 0.0
C2543 C 0.89696 0.22523 0.08869 0.0
C2544 C 0.94883 0.24084 0.05199 0.0
C2545 C 0.95903 0.25708 0.06306 0.0
C2546 C 0.92867 0.23707 0.05199 0.0
C2547 C 0.91845 0.24975 0.06347 0.0
C2548 C 0.92878 0.26553 0.07554 0.0
C2549 C 0.94896 0.26905 0.07514 0.0
C2550 C 0.91819 0.22008 0.03894 0.0
C2551 C 0.9184 0.27926 0.08811 0.0
H2552 H 0.8584 0.26173 0.03389 0.0
H2553 H 0.85811 0.22396 0.07956 0.0
H2554 H 0.90658 0.28171 0.0431 0.0
H2555 H 0.90662 0.26121 0.02562 0.0
H2556 H 0.88696 0.27646 0.02402 0.0
H2557 H 0.88676 0.21682 0.09698 0.0
H2558 H 0.9065 0.21515 0.08192 0.0
H2559 H 0.90642 0.23594 0.099 0.0
H2560 H 0.9566 0.23132 0.04291 0.0
H2561 H 0.9567 0.28169 0.08363 0.0
H2562 H 0.90879 0.22552 0.02725 0.0
H2563 H 0.90861 0.21104 0.04726 0.0
H2564 H 0.92839 0.21074 0.03212 0.0
H2565 H 0.90951 0.28795 0.07877 0.0
H2566 H 0.92868 0.2894 0.09827 0.0
H2567 H 0.90836 0.27103 0.09667 0.0
C2568 C 0.11358 0.76903 0.54761 0.0
C2569 C 0.13289 0.76952 0.54316 0.0
C2570 C 0.09857 0.75814 0.53536 0.0
C2571 C 0.10296 0.74761 0.51814 0.0
C2572 C 0.12229 0.74888 0.51305 0.0
C2573 C 0.13706 0.7597 0.52571 0.0
C2574 C 0.07819 0.75702 0.54144 0.0
C2575 C 0.12749 0.73813 0.49467 0.0
C2576 C 0.06892 0.70202 0.50356 0.0
C2577 C 0.05527 0.70839 0.49004 0.0
C2578 C 0.085 0.7144 0.51212 0.0
C2579 C 0.0877 0.7336 0.50684 0.0
C2580 C 0.07476 0.73969 0.49213 0.0
C2581 C 0.05861 0.72699 0.48391 0.0
C2582 C 0.09843 0.70727 0.5277 0.0
C2583 C 0.07737 0.75993 0.48587 0.0
H2584 H 0.1103 0.77646 0.56115 0.0
H2585 H 0.15196 0.76026 0.5221 0.0
H2586 H 0.0678 0.7604 0.52943 0.0
H2587 H 0.07378 0.74202 0.54478 0.0
H2588 H 0.07693 0.76718 0.55446 0.0
H2589 H 0.14254 0.74266 0.49151 0.0
H2590 H 0.12623 0.72229 0.49609 0.0
H2591 H 0.11726 0.74058 0.48212 0.0
H2592 H 0.06658 0.6875 0.50804 0.0
H2593 H 0.04809 0.73195 0.47344 0.0
H2594 H 0.09717 0.71556 0.54187 0.0
H2595 H 0.11375 0.70975 0.52445 0.0
H2596 H 0.09504 0.69156 0.52919 0.0
H2597 H 0.07363 0.77051 0.49755 0.0
H2598 H 0.06797 0.76142 0.47239 0.0
H2599 H 0.09273 0.76385 0.48341 0.0
C2600 C 0.52528 0.27956 0.0365 0.0
C2601 C 0.51482 0.28628 0.02066 0.0
C2602 C 0.54552 0.28348 0.03973 0.0
C2603 C 0.55554 0.29435 0.02677 0.0
C2604 C 0.54514 0.3007 0.01043 0.0
C2605 C 0.52486 0.29663 0.00761 0.0
C2606 C 0.55611 0.27655 0.05737 0.0
C2607 C 0.55537 0.31216 0.99622 0.0
C2608 C 0.60352 0.32187 0.04762 0.0
C2609 C 0.61688 0.30935 0.04121 0.0
C2610 C 0.58352 0.31733 0.04268 0.0
C2611 C 0.57675 0.29989 0.03096 0.0
C2612 C 0.5902 0.28743 0.02401 0.0
C2613 C 0.61014 0.29229 0.02928 0.0
C2614 C 0.56963 0.331 0.05035 0.0
C2615 C 0.58351 0.26877 0.0114 0.0
H2616 H 0.51756 0.27177 0.04677 0.0
H2617 H 0.51684 0.30166 0.99523 0.0
H2618 H 0.56799 0.26794 0.053 0.0
H2619 H 0.56287 0.28924 0.06729 0.0
H2620 H 0.54631 0.26749 0.0655 0.0
H2621 H 0.54534 0.31501 0.98364 0.0
H2622 H 0.56207 0.32629 0.00365 0.0
H2623 H 0.56727 0.30424 0.99073 0.0
H2624 H 0.60876 0.33521 0.05661 0.0
H2625 H 0.62047 0.28256 0.02439 0.0
H2626 H 0.56005 0.32347 0.05986 0.0
H2627 H 0.56015 0.33547 0.03816 0.0
H2628 H 0.57729 0.34425 0.05879 0.0
H2629 H 0.57493 0.25876 0.0197 0.0
H2630 H 0.59586 0.26132 0.00621 0.0
H2631 H 0.57386 0.27173 0.99862 0.0
C2632 C 0.43123 0.49969 0.66815 0.0
C2633 C 0.41659 0.5046 0.6799 0.0
C2634 C 0.43843 0.48141 0.66799 0.0
C2635 C 0.43093 0.46771 0.67996 0.0
C2636 C 0.41671 0.47279 0.6924 0.0
C2637 C 0.40972 0.49114 0.69222 0.0
C2638 C 0.45363 0.47653 0.65459 0.0
C2639 C 0.40835 0.45855 0.70539 0.0
C2640 C 0.42976 0.41331 0.66801 0.0
C2641 C 0.44395 0.40865 0.68195 0.0
C2642 C 0.42632 0.43267 0.66622 0.0
C2643 C 0.43714 0.44768 0.67894 0.0
C2644 C 0.45244 0.44307 0.69214 0.0
C2645 C 0.45566 0.42351 0.6935 0.0
C2646 C 0.40993 0.43676 0.65187 0.0
C2647 C 0.46442 0.45861 0.70584 0.0
H2648 H 0.43697 0.5101 0.65888 0.0
H2649 H 0.39822 0.49458 0.70113 0.0
H2650 H 0.46622 0.4713 0.66285 0.0
H2651 H 0.44748 0.4646 0.64345 0.0
H2652 H 0.45886 0.48919 0.64711 0.0
H2653 H 0.39759 0.46482 0.71441 0.0
H2654 H 0.40116 0.4454 0.69644 0.0
H2655 H 0.42016 0.4538 0.71516 0.0
H2656 H 0.42053 0.40169 0.65933 0.0
H2657 H 0.46641 0.41977 0.7045 0.0
H2658 H 0.41378 0.45007 0.64476 0.0
H2659 H 0.39702 0.4391 0.65973 0.0
H2660 H 0.40589 0.42445 0.64047 0.0
H2661 H 0.46919 0.47115 0.69799 0.0
H2662 H 0.47743 0.45307 0.7131 0.0
H2663 H 0.45541 0.46404 0.71718 0.0
C2664 C 0.05245 0.88627 0.24218 0.0
C2665 C 0.06492 0.88108 0.22823 0.0
C2666 C 0.05178 0.90571 0.24917 0.0
C2667 C 0.06403 0.92036 0.24215 0.0
C2668 C 0.0771 0.91519 0.22849 0.0
C2669 C 0.07727 0.89557 0.22153 0.0
C2670 C 0.03744 0.91063 0.26354 0.0
C2671 C 0.09058 0.9304 0.22094 0.0
C2672 C 0.0442 0.96941 0.24538 0.0
C2673 C 0.05332 0.97806 0.2633 0.0
C2674 C 0.04828 0.95099 0.23785 0.0
C2675 C 0.06207 0.94108 0.24832 0.0
C2676 C 0.07232 0.95027 0.26574 0.0
C2677 C 0.06773 0.96862 0.27311 0.0
C2678 C 0.03699 0.94169 0.21924 0.0
C2679 C 0.08735 0.94028 0.27715 0.0
H2680 H 0.04268 0.87512 0.24717 0.0
H2681 H 0.08701 0.89154 0.21083 0.0
H2682 H 0.04508 0.91917 0.27671 0.0
H2683 H 0.02676 0.91977 0.25704 0.0
H2684 H 0.02941 0.89747 0.26801 0.0
H2685 H 0.10097 0.92386 0.21163 0.0
H2686 H 0.08199 0.93993 0.21232 0.0
H2687 H 0.09892 0.93976 0.23323 0.0
H2688 H 0.03342 0.97685 0.23747 0.0
H2689 H 0.07482 0.97516 0.28698 0.0
H2690 H 0.02731 0.92901 0.22241 0.0
H2691 H 0.04701 0.93624 0.20891 0.0
H2692 H 0.02794 0.95192 0.21208 0.0
H2693 H 0.08002 0.92826 0.28411 0.0
H2694 H 0.096 0.95041 0.28868 0.0
H2695 H 0.09738 0.93383 0.2674 0.0
C2696 C 0.53073 0.12663 0.77581 0.0
C2697 C 0.54702 0.13122 0.76588 0.0
C2698 C 0.51712 0.11073 0.76893 0.0
C2699 C 0.51994 0.09914 0.75178 0.0
C2700 C 0.53619 0.1039 0.74156 0.0
C2701 C 0.54951 0.11983 0.74874 0.0
C2702 C 0.49993 0.10614 0.78015 0.0
C2703 C 0.53981 0.09187 0.72325 0.0
C2704 C 0.50204 0.04606 0.7403 0.0
C2705 C 0.48793 0.04676 0.72472 0.0
C2706 C 0.51146 0.06315 0.75047 0.0
C2707 C 0.50667 0.08136 0.74483 0.0
C2708 C 0.49111 0.08211 0.73033 0.0
C2709 C 0.48187 0.06473 0.72042 0.0
C2710 C 0.52781 0.06164 0.76595 0.0
C2711 C 0.48543 0.10123 0.72401 0.0
H2712 H 0.5286 0.1355 0.78895 0.0
H2713 H 0.56219 0.12307 0.74114 0.0
H2714 H 0.48623 0.10516 0.77044 0.0
H2715 H 0.50084 0.09178 0.78584 0.0
H2716 H 0.49919 0.11723 0.79255 0.0
H2717 H 0.55274 0.09795 0.71666 0.0
H2718 H 0.54206 0.07683 0.72653 0.0
H2719 H 0.52698 0.09096 0.71238 0.0
H2720 H 0.50665 0.03211 0.74366 0.0
H2721 H 0.47104 0.06529 0.70828 0.0
H2722 H 0.52687 0.07203 0.77883 0.0
H2723 H 0.54192 0.06541 0.76019 0.0
H2724 H 0.52776 0.04675 0.77063 0.0
H2725 H 0.48499 0.11196 0.73674 0.0
H2726 H 0.47105 0.09953 0.71531 0.0
H2727 H 0.49645 0.10725 0.71497 0.0
C2728 C 0.99237 0.52723 0.30416 0.0
C2729 C 0.00608 0.51652 0.29556 0.0
C2730 C 0.99549 0.54756 0.30763 0.0
C2731 C 0.01284 0.55727 0.30258 0.0
C2732 C 0.02665 0.54651 0.29376 0.0
C2733 C 0.02306 0.52627 0.29028 0.0
C2734 C 0.98034 0.55861 0.31681 0.0
C2735 C 0.04542 0.55633 0.28832 0.0
C2736 C 0.01898 0.61078 0.2953 0.0
C2737 C 0.03026 0.61852 0.31248 0.0
C2738 C 0.01215 0.59102 0.29235 0.0
C2739 C 0.01695 0.57866 0.30681 0.0
C2740 C 0.02744 0.58656 0.32459 0.0
C2741 C 0.03385 0.60642 0.32726 0.0
C2742 C 1.00075 0.58319 0.2733 0.0
C2743 C 0.03283 0.57384 0.34037 0.0
H2744 H 0.97916 0.5197 0.30811 0.0
H2745 H 0.03381 0.51799 0.28388 0.0
H2746 H 0.98662 0.56633 0.33095 0.0
H2747 H 0.97568 0.5698 0.30742 0.0
H2748 H 0.96734 0.54894 0.31925 0.0
H2749 H 0.05455 0.54586 0.28143 0.0
H2750 H 0.04229 0.56731 0.2781 0.0
H2751 H 0.0539 0.56411 0.30146 0.0
H2752 H 0.01622 0.61996 0.28372 0.0
H2753 H 0.04216 0.61239 0.34075 0.0
H2754 H 0.98781 0.57353 0.27582 0.0
H2755 H 0.00994 0.57439 0.26446 0.0
H2756 H 0.9959 0.595 0.2648 0.0
H2757 H 0.01982 0.56477 0.34373 0.0
H2758 H 0.03952 0.58246 0.35395 0.0
H2759 H 0.04332 0.56383 0.33528 0.0
C2760 C 0.3978 0.64374 0.33683 0.0
C2761 C 0.39274 0.64571 0.356 0.0
C2762 C 0.41732 0.64505 0.33284 0.0
C2763 C 0.43226 0.64793 0.34836 0.0
C2764 C 0.42733 0.6493 0.36771 0.0
C2765 C 0.40771 0.64844 0.3713 0.0
C2766 C 0.42197 0.6436 0.31197 0.0
C2767 C 0.44277 0.65161 0.38469 0.0
C2768 C 0.48342 0.63746 0.33778 0.0
C2769 C 0.4919 0.65611 0.33581 0.0
C2770 C 0.46403 0.63453 0.34209 0.0
C2771 C 0.453 0.65067 0.34434 0.0
C2772 C 0.46177 0.66959 0.34266 0.0
C2773 C 0.48116 0.67207 0.33838 0.0
C2774 C 0.45527 0.61419 0.34398 0.0
C2775 C 0.45055 0.68719 0.34492 0.0
H2776 H 0.3865 0.64116 0.32485 0.0
H2777 H 0.40418 0.65032 0.38619 0.0
H2778 H 0.43004 0.65736 0.30898 0.0
H2779 H 0.4315 0.63183 0.30932 0.0
H2780 H 0.40871 0.6407 0.30155 0.0
H2781 H 0.43668 0.65545 0.39858 0.0
H2782 H 0.44941 0.63775 0.38572 0.0
H2783 H 0.45456 0.6629 0.3827 0.0
H2784 H 0.49186 0.62516 0.33572 0.0
H2785 H 0.48785 0.68648 0.33677 0.0
H2786 H 0.44259 0.61028 0.33301 0.0
H2787 H 0.44991 0.61343 0.35849 0.0
H2788 H 0.46585 0.60325 0.34204 0.0
H2789 H 0.43941 0.68674 0.33236 0.0
H2790 H 0.4601 0.701 0.34569 0.0
H2791 H 0.44279 0.68715 0.35819 0.0
C2792 C 0.09789 0.31065 0.72623 0.0
C2793 C 0.106 0.32911 0.7345 0.0
C2794 C 0.07773 0.30661 0.72158 0.0
C2795 C 0.06536 0.32139 0.72515 0.0
C2796 C 0.07341 0.34002 0.73356 0.0
C2797 C 0.09358 0.34362 0.7382 0.0
C2798 C 0.06966 0.28654 0.71276 0.0
C2799 C 0.0607 0.35617 0.73763 0.0
C2800 C 0.01577 0.31746 0.69632 0.0
C2801 C 0.00365 0.31051 0.70968 0.0
C2802 C 0.03592 0.32089 0.70111 0.0
C2803 C 0.04401 0.3175 0.71981 0.0
C2804 C 0.03165 0.31075 0.73346 0.0
C2805 C 0.01154 0.30725 0.72818 0.0
C2806 C 0.04854 0.32828 0.68621 0.0
C2807 C 0.03966 0.30727 0.75364 0.0
H2808 H 0.10733 0.2994 0.72309 0.0
H2809 H 0.09962 0.35781 0.74492 0.0
H2810 H 0.05918 0.28016 0.72213 0.0
H2811 H 0.06163 0.28741 0.69837 0.0
H2812 H 0.0812 0.27661 0.71092 0.0
H2813 H 0.06921 0.36983 0.74424 0.0
H2814 H 0.05249 0.35917 0.72395 0.0
H2815 H 0.04988 0.35168 0.7476 0.0
H2816 H 0.00948 0.32025 0.68212 0.0
H2817 H 0.00198 0.30214 0.73855 0.0
H2818 H 0.05945 0.31797 0.68314 0.0
H2819 H 0.05662 0.34242 0.69198 0.0
H2820 H 0.03996 0.3302 0.67235 0.0
H2821 H 0.04813 0.29446 0.7528 0.0
H2822 H 0.02797 0.30467 0.76328 0.0
H2823 H 0.04969 0.31988 0.76037 0.0
C2824 C 0.80774 0.01376 0.67596 0.0
C2825 C 0.79953 0.00784 0.65693 0.0
C2826 C 0.82738 0.01185 0.68154 0.0
C2827 C 0.83902 0.0038 0.66776 0.0
C2828 C 0.8308 0.99779 0.64856 0.0
C2829 C 0.81117 0.99986 0.64339 0.0
C2830 C 0.83567 0.01845 0.70214 0.0
C2831 C 0.84271 0.98904 0.63347 0.0
C2832 C 0.89401 0.01342 0.67485 0.0
C2833 C 0.89922 0.99597 0.68139 0.0
C2834 C 0.87438 0.01639 0.67083 0.0
C2835 C 0.85979 0.00147 0.67336 0.0
C2836 C 0.86512 0.98393 0.68032 0.0
C2837 C 0.88486 0.98139 0.68426 0.0
C2838 C 0.86928 0.03528 0.66347 0.0
C2839 C 0.85 0.96769 0.68318 0.0
H2840 H 0.79886 0.02008 0.68643 0.0
H2841 H 0.80483 0.99493 0.62876 0.0
H2842 H 0.84142 0.00609 0.7091 0.0
H2843 H 0.84802 0.02976 0.70216 0.0
H2844 H 0.8247 0.02446 0.71107 0.0
H2845 H 0.83416 0.98528 0.61913 0.0
H2846 H 0.85539 0.99938 0.63165 0.0
H2847 H 0.84843 0.97569 0.63836 0.0
H2848 H 0.90528 0.02463 0.67266 0.0
H2849 H 0.88909 0.96792 0.68936 0.0
H2850 H 0.85899 0.04207 0.67268 0.0
H2851 H 0.86191 0.03245 0.64851 0.0
H2852 H 0.88229 0.04578 0.66329 0.0
H2853 H 0.83942 0.97317 0.69289 0.0
H2854 H 0.85652 0.95535 0.68951 0.0
H2855 H 0.84175 0.96224 0.66904 0.0
C2856 C 0.68756 0.00878 0.28744 0.0
C2857 C 0.6949 0.99221 0.27892 0.0
C2858 C 0.66894 0.00782 0.29383 0.0
C2859 C 0.65724 0.98985 0.2916 0.0
C2860 C 0.66442 0.97309 0.28289 0.0
C2861 C 0.68309 0.97448 0.27657 0.0
C2862 C 0.66193 0.02599 0.3033 0.0
C2863 C 0.6524 0.95365 0.28032 0.0
C2864 C 0.61615 0.98549 0.32405 0.0
C2865 C 0.60043 0.98966 0.31162 0.0
C2866 C 0.63469 0.98495 0.31757 0.0
C2867 C 0.63742 0.98874 0.29825 0.0
C2868 C 0.62133 0.99244 0.28553 0.0
C2869 C 0.60296 0.99288 0.29242 0.0
C2870 C 0.65142 0.9808 0.33152 0.0
C2871 C 0.62366 0.99652 0.26484 0.0
H2872 H 0.69662 0.02246 0.28975 0.0
H2873 H 0.68841 0.96164 0.26971 0.0
H2874 H 0.64772 0.02868 0.29592 0.0
H2875 H 0.65974 0.02407 0.31866 0.0
H2876 H 0.67235 0.03902 0.30296 0.0
H2877 H 0.64911 0.94918 0.2947 0.0
H2878 H 0.63832 0.95478 0.27181 0.0
H2879 H 0.65991 0.94209 0.27284 0.0
H2880 H 0.61403 0.98309 0.33896 0.0
H2881 H 0.59067 0.99619 0.28293 0.0
H2882 H 0.65853 0.96834 0.32526 0.0
H2883 H 0.64674 0.97742 0.34582 0.0
H2884 H 0.66248 0.99353 0.33386 0.0
H2885 H 0.60954 0.99807 0.25653 0.0
H2886 H 0.63064 0.98464 0.25727 0.0
H2887 H 0.63331 0.01013 0.26474 0.0
C2888 C 0.35533 0.41375 0.63242 0.0
C2889 C 0.36027 0.40554 0.64967 0.0
C2890 C 0.3502 0.43289 0.63278 0.0
C2891 C 0.35058 0.44424 0.65083 0.0
C2892 C 0.35601 0.43609 0.66828 0.0
C2893 C 0.36051 0.41673 0.6675 0.0
C2894 C 0.34396 0.44081 0.61391 0.0
C2895 C 0.35709 0.44786 0.68776 0.0
C2896 C 0.35417 0.4994 0.65285 0.0
C2897 C 0.33528 0.50308 0.65632 0.0
C2898 C 0.35923 0.48025 0.65036 0.0
C2899 C 0.34504 0.46453 0.65158 0.0
C2900 C 0.32572 0.4683 0.65444 0.0
C2901 C 0.32109 0.48761 0.65686 0.0
C2902 C 0.37988 0.47687 0.64715 0.0
C2903 C 0.31003 0.45197 0.65527 0.0
H2904 H 0.35502 0.40499 0.61865 0.0
H2905 H 0.36449 0.41038 0.68082 0.0
H2906 H 0.32887 0.44487 0.6141 0.0
H2907 H 0.35335 0.45419 0.61215 0.0
H2908 H 0.34457 0.43016 0.60112 0.0
H2909 H 0.36292 0.43987 0.6998 0.0
H2910 H 0.36644 0.46166 0.68765 0.0
H2911 H 0.3424 0.45171 0.6907 0.0
H2912 H 0.36505 0.51151 0.6524 0.0
H2913 H 0.30643 0.49061 0.65948 0.0
H2914 H 0.38033 0.46582 0.63469 0.0
H2915 H 0.38671 0.47113 0.66016 0.0
H2916 H 0.3886 0.49035 0.64444 0.0
H2917 H 0.30952 0.4413 0.64231 0.0
H2918 H 0.29546 0.45728 0.65599 0.0
H2919 H 0.31336 0.44417 0.66823 0.0
C2920 C 0.27082 0.67273 0.97705 0.0
C2921 C 0.25941 0.68186 0.99013 0.0
C2922 C 0.27328 0.6529 0.97701 0.0
C2923 C 0.26389 0.64183 0.9902 0.0
C2924 C 0.25094 0.6505 0.00217 0.0
C2925 C 0.24881 0.67039 0.00195 0.0
C2926 C 0.28723 0.64426 0.96398 0.0
C2927 C 0.24043 0.63913 0.01628 0.0
C2928 C 0.26521 0.5869 0.98627 0.0
C2929 C 0.28067 0.58515 1.00014 0.0
C2930 C 0.25952 0.60531 0.98273 0.0
C2931 C 0.26961 0.62214 0.99337 0.0
C2932 C 0.28536 0.62026 0.00731 0.0
C2933 C 0.29067 0.60173 0.01052 0.0
C2934 C 0.24273 0.60677 0.96775 0.0
C2935 C 0.29646 0.63781 0.019 0.0
H2936 H 0.27896 0.68126 0.9677 0.0
H2937 H 0.23945 0.67712 0.01168 0.0
H2938 H 0.30075 0.64191 0.97288 0.0
H2939 H 0.28092 0.62993 0.95672 0.0
H2940 H 0.29116 0.65389 0.95271 0.0
H2941 H 0.22889 0.64712 0.02248 0.0
H2942 H 0.23379 0.62488 0.00909 0.0
H2943 H 0.25098 0.63623 0.02839 0.0
H2944 H 0.25755 0.5739 0.9783 0.0
H2945 H 0.30263 0.60019 0.02126 0.0
H2946 H 0.23657 0.59233 0.96057 0.0
H2947 H 0.24753 0.61598 0.95647 0.0
H2948 H 0.23107 0.61389 0.97468 0.0
H2949 H 0.30228 0.64816 0.00917 0.0
H2950 H 0.30875 0.63388 0.02877 0.0
H2951 H 0.28654 0.64549 0.02797 0.0
C2952 C 0.73453 0.09587 0.31246 0.0
C2953 C 0.74542 0.10582 0.32894 0.0
C2954 C 0.72991 0.07565 0.31111 0.0
C2955 C 0.73635 0.0651 0.32659 0.0
C2956 C 0.74751 0.07501 0.34315 0.0
C2957 C 0.75184 0.09523 0.34416 0.0
C2958 C 0.71791 0.06561 0.29323 0.0
C2959 C 0.75471 0.06428 0.35993 0.0
C2960 C 0.70903 0.01641 0.33239 0.0
C2961 C 0.72101 0.00347 0.3242 0.0
C2962 C 0.71382 0.03654 0.33322 0.0
C2963 C 0.73105 0.04377 0.3257 0.0
C2964 C 0.74331 0.0306 0.3176 0.0
C2965 C 0.73817 0.01052 0.31708 0.0
C2966 C 0.70037 0.05006 0.34197 0.0
C2967 C 0.76173 0.0377 0.30935 0.0
H2968 H 0.72969 0.10388 0.30054 0.0
H2969 H 0.75998 0.10279 0.35709 0.0
H2970 H 0.72526 0.05331 0.28697 0.0
H2971 H 0.70369 0.05952 0.29727 0.0
H2972 H 0.71525 0.07562 0.28189 0.0
H2973 H 0.76372 0.07403 0.3715 0.0
H2974 H 0.74219 0.05719 0.36636 0.0
H2975 H 0.76347 0.05263 0.3547 0.0
H2976 H 0.69573 0.01078 0.33786 0.0
H2977 H 0.74743 1.00035 0.31086 0.0
H2978 H 0.69547 0.05991 0.3312 0.0
H2979 H 0.70822 0.05929 0.35461 0.0
H2980 H 0.68737 0.04208 0.34683 0.0
H2981 H 0.75823 0.04669 0.29732 0.0
H2982 H 0.76971 0.02556 0.30372 0.0
H2983 H 0.77144 0.04706 0.32067 0.0
C2984 C 0.67873 0.79559 0.97917 0.0
C2985 C 0.65872 0.7898 0.9768 0.0
C2986 C 0.68604 0.81392 0.97446 0.0
C2987 C 0.67301 0.82673 0.96721 0.0
C2988 C 0.6528 0.82099 0.96485 0.0
C2989 C 0.64591 0.8026 0.96964 0.0
C2990 C 0.70767 0.81958 0.97724 0.0
C2991 C 0.63845 0.83422 0.95712 0.0
C2992 C 0.68832 0.8809 0.97059 0.0
C2993 C 0.69268 0.88319 0.95162 0.0
C2994 C 0.68226 0.86251 0.97599 0.0
C2995 C 0.68044 0.84615 0.962 0.0
C2996 C 0.68504 0.84847 0.94281 0.0
C2997 C 0.69115 0.86706 0.93785 0.0
C2998 C 0.67753 0.86063 0.99658 0.0
C2999 C 0.68325 0.83139 0.9275 0.0
H3000 H 0.68868 0.78584 0.98487 0.0
H3001 H 0.63046 0.7981 0.96745 0.0
H3002 H 0.71302 0.82286 0.9632 0.0
H3003 H 0.71094 0.83299 0.98739 0.0
H3004 H 0.71584 0.80797 0.98306 0.0
H3005 H 0.62319 0.82763 0.95633 0.0
H3006 H 0.63986 0.84814 0.96654 0.0
H3007 H 0.64163 0.8377 0.94238 0.0
H3008 H 0.68953 0.89353 0.98116 0.0
H3009 H 0.69459 0.86901 0.92318 0.0
H3010 H 0.68605 0.84965 0.00309 0.0
H3011 H 0.66193 0.85551 0.9966 0.0
H3012 H 0.68062 0.87462 0.00591 0.0
H3013 H 0.69218 0.81998 0.9325 0.0
H3014 H 0.68793 0.83557 0.91344 0.0
H3015 H 0.66795 0.82488 0.92506 0.0
C3016 C 0.6632 0.34207 0.39427 0.0
C3017 C 0.65197 0.35652 0.38794 0.0
C3018 C 0.66333 0.33684 0.41334 0.0
C3019 C 0.65171 0.34609 0.42639 0.0
C3020 C 0.64003 0.36044 0.42002 0.0
C3021 C 0.64041 0.36559 0.40093 0.0
C3022 C 0.67608 0.32156 0.41959 0.0
C3023 C 0.62695 0.37013 0.43331 0.0
C3024 C 0.64036 0.32122 0.47134 0.0
C3025 C 0.65415 0.33128 0.48542 0.0
C3026 C 0.6392 0.32602 0.45205 0.0
C3027 C 0.65224 0.34116 0.44688 0.0
C3028 C 0.66608 0.35142 0.46126 0.0
C3029 C 0.6668 0.3464 0.48042 0.0
C3030 C 0.62436 0.31461 0.43715 0.0
C3031 C 0.68019 0.36766 0.45644 0.0
H3032 H 0.67216 0.335 0.38439 0.0
H3033 H 0.63138 0.37651 0.39607 0.0
H3034 H 0.6869 0.3279 0.43173 0.0
H3035 H 0.66717 0.3095 0.425 0.0
H3036 H 0.68397 0.31548 0.40757 0.0
H3037 H 0.61919 0.38142 0.42637 0.0
H3038 H 0.61598 0.35911 0.43755 0.0
H3039 H 0.63551 0.37687 0.44686 0.0
H3040 H 0.6307 0.3094 0.47535 0.0
H3041 H 0.67749 0.35408 0.49144 0.0
H3042 H 0.63186 0.30672 0.42588 0.0
H3043 H 0.61525 0.32457 0.42971 0.0
H3044 H 0.61474 0.30389 0.4437 0.0
H3045 H 0.68759 0.36306 0.44354 0.0
H3046 H 0.6914 0.37263 0.46871 0.0
H3047 H 0.6721 0.38013 0.45287 0.0
C3048 C 0.01116 0.26987 0.6794 0.0
C3049 C 0.99757 0.25892 0.6888 0.0
C3050 C 0.0067 0.27473 0.66049 0.0
C3051 C 0.9882 0.2684 0.6506 0.0
C3052 C 0.97471 0.25657 0.6596 0.0
C3053 C 0.97953 0.25203 0.67864 0.0
C3054 C 0.02153 0.28741 0.65146 0.0
C3055 C 0.95497 0.24927 0.64939 0.0
C3056 C 0.97344 0.3017 0.61284 0.0
C3057 C 0.97989 0.29249 0.59626 0.0
C3058 C 0.97476 0.29328 0.63045 0.0
C3059 C 0.98282 0.27529 0.63136 0.0
C3060 C 0.98805 0.26532 0.61419 0.0
C3061 C 0.98664 0.27416 0.59677 0.0
C3062 C 0.96886 0.30432 0.64833 0.0
C3063 C 0.99635 0.24598 0.61449 0.0
H3064 H 0.02501 0.27557 0.68718 0.0
H3065 H 0.96904 0.24332 0.68568 0.0
H3066 H 0.02415 0.28056 0.63701 0.0
H3067 H 0.0159 0.3016 0.64923 0.0
H3068 H 0.03563 0.29012 0.66062 0.0
H3069 H 0.94722 0.2382 0.65726 0.0
H3070 H 0.94596 0.26159 0.6482 0.0
H3071 H 0.95634 0.24286 0.63442 0.0
H3072 H 0.96834 0.31598 0.6123 0.0
H3073 H 0.9917 0.26719 0.58383 0.0
H3074 H 0.96086 0.31692 0.6448 0.0
H3075 H 0.98201 0.30976 0.65822 0.0
H3076 H 0.95958 0.29461 0.65629 0.0
H3077 H 0.01138 0.24818 0.62176 0.0
H3078 H 0.99678 0.23879 0.59961 0.0
H3079 H 0.9877 0.23613 0.62289 0.0
C3080 C 0.34913 0.73013 0.09195 0.0
C3081 C 0.33673 0.73984 0.10347 0.0
C3082 C 0.34415 0.7254 0.07194 0.0
C3083 C 0.32625 0.73035 0.06323 0.0
C3084 C 0.31363 0.74005 0.07482 0.0
C3085 C 0.31904 0.74473 0.09477 0.0
C3086 C 0.35812 0.71523 0.06007 0.0
C3087 C 0.29424 0.74516 0.06623 0.0
C3088 C 0.32287 0.73354 0.00869 0.0
C3089 C 0.31412 0.71506 0.00165 0.0
C3090 C 0.32644 0.73891 0.02876 0.0
C3091 C 0.32093 0.72548 0.04197 0.0
C3092 C 0.31137 0.70702 0.03474 0.0
C3093 C 0.30836 0.70191 0.01461 0.0
C3094 C 0.33663 0.75873 0.03581 0.0
C3095 C 0.30483 0.69239 0.0482 0.0
H3096 H 0.3629 0.72648 0.09857 0.0
H3097 H 0.30927 0.75198 0.10367 0.0
H3098 H 0.351 0.70106 0.05314 0.0
H3099 H 0.36221 0.72406 0.04825 0.0
H3100 H 0.37156 0.71262 0.06898 0.0
H3101 H 0.28663 0.75374 0.07692 0.0
H3102 H 0.29616 0.75361 0.05361 0.0
H3103 H 0.28488 0.7316 0.06094 0.0
H3104 H 0.32732 0.74362 0.9985 0.0
H3105 H 0.30167 0.68757 0.00901 0.0
H3106 H 0.35077 0.75713 0.04402 0.0
H3107 H 0.32783 0.76661 0.04589 0.0
H3108 H 0.33932 0.7677 0.02369 0.0
H3109 H 0.3176 0.68555 0.05422 0.0
H3110 H 0.29412 0.68076 0.04054 0.0
H3111 H 0.2982 0.69949 0.06058 0.0
C3112 C 0.01004 0.67446 0.80585 0.0
C3113 C 0.00311 0.65539 0.79847 0.0
C3114 C 0.00942 0.68084 0.82554 0.0
C3115 C 0.00168 0.66784 0.83811 0.0
C3116 C 0.99464 0.6486 0.83073 0.0
C3117 C 0.9954 0.64264 0.81102 0.0
C3118 C 0.01706 0.70146 0.83291 0.0
C3119 C 0.9862 0.63431 0.84363 0.0
C3120 C 0.01427 0.67579 0.89275 0.0
C3121 C 0.99732 0.68277 0.8988 0.0
C3122 C 0.01619 0.67148 0.87292 0.0
C3123 C 1.00074 0.67424 0.85899 0.0
C3124 C 0.98381 0.68187 0.86516 0.0
C3125 C 0.98229 0.68602 0.88509 0.0
C3126 C 0.03445 0.66336 0.86692 0.0
C3127 C 0.96705 0.68506 0.85077 0.0
H3128 H 0.01616 0.68434 0.79626 0.0
H3129 H 0.98968 0.628 0.80536 0.0
H3130 H 0.0054 0.70912 0.83924 0.0
H3131 H 0.02899 0.70146 0.84465 0.0
H3132 H 0.02259 0.70977 0.82126 0.0
H3133 H 0.98155 0.61981 0.83566 0.0
H3134 H 0.9971 0.63251 0.85586 0.0
H3135 H 0.97347 0.63994 0.84999 0.0
H3136 H 0.02585 0.67333 0.90354 0.0
H3137 H 0.9692 0.69145 0.88997 0.0
H3138 H 0.04073 0.67193 0.85586 0.0
H3139 H 0.0309 0.64822 0.86018 0.0
H3140 H 0.04562 0.66337 0.87941 0.0
H3141 H 0.97226 0.69405 0.83951 0.0
H3142 H 0.95552 0.69232 0.85784 0.0
H3143 H 0.96056 0.67089 0.84325 0.0
C3144 C 0.59318 0.33703 0.64732 0.0
C3145 C 0.60304 0.35381 0.64175 0.0
C3146 C 0.57395 0.33694 0.65212 0.0
C3147 C 0.56444 0.35415 0.65165 0.0
C3148 C 0.5743 0.37111 0.6459 0.0
C3149 C 0.59343 0.3707 0.64088 0.0
C3150 C 0.56383 0.31843 0.65778 0.0
C3151 C 0.56476 0.38978 0.64535 0.0
C3152 C 0.50922 0.34837 0.64994 0.0
C3153 C 0.50652 0.35204 0.66958 0.0
C3154 C 0.528 0.34963 0.64377 0.0
C3155 C 0.54435 0.35446 0.65766 0.0
C3156 C 0.54151 0.35875 0.67748 0.0
C3157 C 0.52257 0.35744 0.68321 0.0
C3158 C 0.53036 0.34511 0.62252 0.0
C3159 C 0.5585 0.36419 0.6927 0.0
H3160 H 0.60049 0.32389 0.64776 0.0
H3161 H 0.60107 0.38374 0.63671 0.0
H3162 H 0.5596 0.32081 0.67277 0.0
H3163 H 0.5503 0.31418 0.648 0.0
H3164 H 0.57312 0.30621 0.65708 0.0
H3165 H 0.57426 0.40159 0.6402 0.0
H3166 H 0.55101 0.38736 0.63565 0.0
H3167 H 0.56099 0.39467 0.66007 0.0
H3168 H 0.49669 0.34407 0.63947 0.0
H3169 H 0.52035 0.36019 0.69843 0.0
H3170 H 0.53674 0.33108 0.62041 0.0
H3171 H 0.54049 0.35637 0.6174 0.0
H3172 H 0.51628 0.34412 0.61339 0.0
H3173 H 0.56743 0.35177 0.69374 0.0
H3174 H 0.55379 0.36826 0.70726 0.0
H3175 H 0.56796 0.37655 0.68852 0.0
C3176 C 0.89849 0.67112 0.2488 0.0
C3177 C 0.88673 0.66357 0.2623 0.0
C3178 C 0.91866 0.67515 0.25329 0.0
C3179 C 0.9273 0.6714 0.27165 0.0
C3180 C 0.91551 0.66374 0.28531 0.0
C3181 C 0.89537 0.65998 0.28049 0.0
C3182 C 0.93071 0.68346 0.2384 0.0
C3183 C 0.9242 0.65938 0.30497 0.0
C3184 C 0.98114 0.66449 0.2774 0.0
C3185 C 0.989 0.68241 0.28695 0.0
C3186 C 0.96106 0.66073 0.27222 0.0
C3187 C 0.94869 0.67536 0.27657 0.0
C3188 C 0.95674 0.69363 0.28597 0.0
C3189 C 0.97686 0.69691 0.29111 0.0
C3190 C 0.95306 0.64102 0.26234 0.0
C3191 C 0.94408 0.70963 0.29077 0.0
H3192 H 0.89185 0.67412 0.2348 0.0
H3193 H 0.8864 0.65393 0.29088 0.0
H3194 H 0.93859 0.69759 0.24454 0.0
H3195 H 0.9418 0.67358 0.23465 0.0
H3196 H 0.92175 0.68571 0.22487 0.0
H3197 H 0.91303 0.6535 0.31396 0.0
H3198 H 0.93499 0.64866 0.30317 0.0
H3199 H 0.932 0.67277 0.31296 0.0
H3200 H 0.99067 0.65333 0.27415 0.0
H3201 H 0.98306 0.71075 0.2985 0.0
H3202 H 0.94508 0.64265 0.24811 0.0
H3203 H 0.94254 0.63397 0.27128 0.0
H3204 H 0.96465 0.63127 0.25995 0.0
H3205 H 0.93563 0.71302 0.27738 0.0
H3206 H 0.95267 0.72315 0.29766 0.0
H3207 H 0.93348 0.70477 0.3008 0.0
C3208 C 0.1878 0.00311 0.33608 0.0
C3209 C 0.20368 0.01664 0.33445 0.0
C3210 C 0.16873 0.0071 0.33061 0.0
C3211 C 0.16544 0.02507 0.32337 0.0
C3212 C 0.18142 0.03864 0.32135 0.0
C3213 C 0.20035 0.03425 0.32689 0.0
C3214 C 0.15208 0.99219 0.33284 0.0
C3215 C 0.17849 0.05797 0.31373 0.0
C3216 C 0.11672 0.02907 0.29512 0.0
C3217 C 0.10667 0.03801 0.30944 0.0
C3218 C 0.13596 0.02488 0.29939 0.0
C3219 C 0.14524 0.02986 0.31842 0.0
C3220 C 0.13509 0.03914 0.33285 0.0
C3221 C 0.11583 0.04307 0.32816 0.0
C3222 C 0.14627 0.01493 0.28365 0.0
C3223 C 0.14447 0.04467 0.35328 0.0
H3224 H 0.19031 0.98938 0.34168 0.0
H3225 H 0.21254 0.04486 0.32581 0.0
H3226 H 0.14249 0.99835 0.34325 0.0
H3227 H 0.14315 0.98837 0.31874 0.0
H3228 H 0.15713 0.97869 0.33813 0.0
H3229 H 0.19247 0.06661 0.31238 0.0
H3230 H 0.16996 0.05571 0.29929 0.0
H3231 H 0.17004 0.06653 0.32361 0.0
H3232 H 0.10946 0.02516 0.28064 0.0
H3233 H 0.10787 0.04993 0.33918 0.0
H3234 H 0.15043 1.00076 0.288 0.0
H3235 H 0.15986 0.02387 0.28161 0.0
H3236 H 0.13712 0.01234 0.26954 0.0
H3237 H 0.14852 0.03148 0.35993 0.0
H3238 H 0.13475 0.05221 0.36265 0.0
H3239 H 0.15805 0.05433 0.35303 0.0
C3240 C 0.31941 0.02538 0.72543 0.0
C3241 C 0.30758 0.0077 0.72188 0.0
C3242 C 0.33866 0.02686 0.72064 0.0
C3243 C 0.34632 0.01025 0.71221 0.0
C3244 C 0.33453 0.99237 0.70866 0.0
C3245 C 0.31536 0.99129 0.71361 0.0
C3246 C 0.35076 0.04622 0.72442 0.0
C3247 C 0.34205 0.97443 0.69929 0.0
C3248 C 0.39004 0.01446 0.6832 0.0
C3249 C 0.40459 0.00922 0.69638 0.0
C3250 C 0.3711 0.01574 0.68842 0.0
C3251 C 0.36674 0.01142 0.7072 0.0
C3252 C 0.38172 0.00688 0.72079 0.0
C3253 C 0.40054 0.00578 0.71517 0.0
C3254 C 0.35566 0.02061 0.6734 0.0
C3255 C 0.37768 0.00237 0.74099 0.0
H3256 H 0.31367 0.03809 0.73208 0.0
H3257 H 0.30626 0.9777 0.7104 0.0
H3258 H 0.36422 0.04481 0.73385 0.0
H3259 H 0.35521 0.051 0.71052 0.0
H3260 H 0.34279 0.05766 0.73147 0.0
H3261 H 0.34583 0.97703 0.6845 0.0
H3262 H 0.35548 0.97119 0.70776 0.0
H3263 H 0.33126 0.96149 0.69814 0.0
H3264 H 0.3933 0.01694 0.66859 0.0
H3265 H 0.41193 0.00163 0.72524 0.0
H3266 H 0.34497 0.02939 0.68005 0.0
H3267 H 0.34775 0.00692 0.6662 0.0
H3268 H 0.3621 0.02867 0.66203 0.0
H3269 H 0.37021 0.01413 0.74811 0.0
H3270 H 0.39117 1.00057 0.75025 0.0
H3271 H 0.36784 0.98876 0.74012 0.0
C3272 C 0.63892 0.58836 0.32982 0.0
C3273 C 0.64473 0.60087 0.34672 0.0
C3274 C 0.64288 0.56881 0.32868 0.0
C3275 C 0.65258 0.56154 0.34492 0.0
C3276 C 0.65805 0.57402 0.36215 0.0
C3277 C 0.65416 0.59355 0.3628 0.0
C3278 C 0.63705 0.55601 0.30998 0.0
C3279 C 0.66826 0.56681 0.37984 0.0
C3280 C 0.65011 0.50675 0.34727 0.0
C3281 C 0.66789 0.50262 0.3407 0.0
C3282 C 0.64491 0.52591 0.34882 0.0
C3283 C 0.65783 0.54114 0.3436 0.0
C3284 C 0.6759 0.53689 0.3371 0.0
C3285 C 0.68069 0.51763 0.33572 0.0
C3286 C 0.62555 0.52985 0.3558 0.0
C3287 C 0.69013 0.55268 0.33153 0.0
H3288 H 0.63165 0.59398 0.31735 0.0
H3289 H 0.6584 0.60312 0.37599 0.0
H3290 H 0.65012 0.55057 0.30413 0.0
H3291 H 0.62744 0.54314 0.31277 0.0
H3292 H 0.62944 0.5638 0.29875 0.0
H3293 H 0.6709 0.57818 0.39234 0.0
H3294 H 0.65948 0.55411 0.38427 0.0
H3295 H 0.68242 0.5619 0.37632 0.0
H3296 H 0.64029 0.495 0.35111 0.0
H3297 H 0.69443 0.51428 0.33061 0.0
H3298 H 0.61612 0.53455 0.34374 0.0
H3299 H 0.62742 0.54184 0.36769 0.0
H3300 H 0.61802 0.51685 0.36107 0.0
H3301 H 0.68328 0.56006 0.31955 0.0
H3302 H 0.70357 0.54696 0.32682 0.0
H3303 H 0.6942 0.56383 0.34404 0.0
C3304 C 0.70558 0.30836 0.04319 0.0
C3305 C 0.68785 0.28945 0.02702 0.0
C3306 C 0.70457 0.3359 0.04045 0.0
C3307 C 0.68583 0.34406 0.02183 0.0
C3308 C 0.66883 0.32538 0.00496 0.0
C3309 C 0.66973 0.29766 0.0076 0.0
C3310 C 0.7185 0.35059 0.05265 0.0
C3311 C 0.65575 0.33185 0.98912 0.0
C3312 C 0.66918 0.3945 0.02239 0.0
C3313 C 0.68254 0.40364 0.01144 0.0
C3314 C 0.67053 0.3752 0.02649 0.0
C3315 C 0.6855 0.36489 0.01927 0.0
C3316 C 0.6995 0.37447 0.00883 0.0
C3317 C 0.69774 0.39376 0.00494 0.0
C3318 C 0.65589 0.36589 0.03846 0.0
C3319 C 0.71592 0.36454 0.00072 0.0
H3320 H 0.71659 0.30393 0.05339 0.0
H3321 H 0.66028 0.28726 0.99775 0.0
H3322 H 0.72921 0.35689 0.04345 0.0
H3323 H 0.71052 0.36255 0.05865 0.0
H3324 H 0.7262 0.34373 0.06452 0.0
H3325 H 0.64971 0.31923 0.97876 0.0
H3326 H 0.64372 0.33883 0.9955 0.0
H3327 H 0.66399 0.34283 0.98158 0.0
H3328 H 0.65744 0.40233 0.0274 0.0
H3329 H 0.70801 0.40094 0.99637 0.0
H3330 H 0.66351 0.3595 0.05071 0.0
H3331 H 0.64669 0.354 0.02937 0.0
H3332 H 0.64628 0.37641 0.04443 0.0
H3333 H 0.72955 0.37447 0.00312 0.0
H3334 H 0.71253 0.36131 0.9848 0.0
H3335 H 0.71862 0.35088 0.0071 0.0
C3336 C 0.26827 0.90759 0.68109 0.0
C3337 C 0.25866 0.89858 0.66351 0.0
C3338 C 0.27372 0.9277 0.68359 0.0
C3339 C 0.26945 0.93913 0.66816 0.0
C3340 C 0.25936 0.93023 0.65055 0.0
C3341 C 0.25415 0.91008 0.64841 0.0
C3342 C 0.28449 0.93659 0.70259 0.0
C3343 C 0.25437 0.94194 0.63381 0.0
C3344 C 0.27084 0.99399 0.67911 0.0
C3345 C 0.28911 1.00015 0.67371 0.0
C3346 C 0.26426 0.97413 0.67755 0.0
C3347 C 0.2762 0.96027 0.67013 0.0
C3348 C 0.2946 0.96661 0.66437 0.0
C3349 C 0.3008 0.98654 0.66618 0.0
C3350 C 0.24463 0.96799 0.68396 0.0
C3351 C 0.3078 0.95234 0.65647 0.0
H3352 H 0.27155 0.89891 0.69295 0.0
H3353 H 0.24694 0.90326 0.6347 0.0
H3354 H 0.29968 0.94139 0.70022 0.0
H3355 H 0.27776 0.94958 0.7082 0.0
H3356 H 0.28478 0.92618 0.71384 0.0
H3357 H 0.24564 0.93301 0.62145 0.0
H3358 H 0.24609 0.95412 0.63869 0.0
H3359 H 0.2679 0.94839 0.62858 0.0
H3360 H 0.26178 0.00468 0.68473 0.0
H3361 H 0.3149 0.99148 0.66192 0.0
H3362 H 0.24629 0.95826 0.6957 0.0
H3363 H 0.23527 0.95966 0.67168 0.0
H3364 H 0.23715 0.9806 0.68938 0.0
H3365 H 0.31086 0.94178 0.66715 0.0
H3366 H 0.32182 0.95962 0.65308 0.0
H3367 H 0.30052 0.94395 0.64305 0.0
C3368 C 0.31187 0.2083 0.02518 0.0
C3369 C 0.33171 0.21362 0.03058 0.0
C3370 C 0.3031 0.19009 0.02866 0.0
C3371 C 0.31447 0.17689 0.03774 0.0
C3372 C 0.33452 0.18211 0.0431 0.0
C3373 C 0.34288 0.20041 0.03951 0.0
C3374 C 0.28168 0.18499 0.02269 0.0
C3375 C 0.34713 0.16843 0.05282 0.0
C3376 C 0.29037 0.13707 0.06411 0.0
C3377 C 0.29029 0.1209 0.05062 0.0
C3378 C 0.29787 0.15553 0.05994 0.0
C3379 C 0.30542 0.15766 0.04187 0.0
C3380 C 0.30501 0.14127 0.02809 0.0
C3381 C 0.29745 0.123 0.03268 0.0
C3382 C 0.29803 0.17266 0.07498 0.0
C3383 C 0.3129 0.14294 0.00869 0.0
H3384 H 0.3032 0.21834 0.01807 0.0
H3385 H 0.35815 0.20453 0.04402 0.0
H3386 H 0.27943 0.17161 0.01244 0.0
H3387 H 0.27403 0.18192 0.03559 0.0
H3388 H 0.27491 0.19683 0.01566 0.0
H3389 H 0.36255 0.17457 0.05576 0.0
H3390 H 0.34162 0.16509 0.06678 0.0
H3391 H 0.34649 0.15449 0.04353 0.0
H3392 H 0.28478 0.13525 0.07798 0.0
H3393 H 0.29736 0.11033 0.02234 0.0
H3394 H 0.29046 0.18436 0.06863 0.0
H3395 H 0.31323 0.17869 0.07967 0.0
H3396 H 0.29095 0.16868 0.08798 0.0
H3397 H 0.30591 0.15423 0.00102 0.0
H3398 H 0.31054 0.129 0.99922 0.0
H3399 H 0.32872 0.14754 0.01093 0.0
C3400 C 0.36484 0.64185 0.58592 0.0
C3401 C 0.35238 0.65015 0.59849 0.0
C3402 C 0.36352 0.64482 0.56613 0.0
C3403 C 0.34969 0.65673 0.55869 0.0
C3404 C 0.33734 0.66547 0.57129 0.0
C3405 C 0.3388 0.66206 0.59098 0.0
C3406 C 0.37665 0.6349 0.55306 0.0
C3407 C 0.32217 0.67797 0.56383 0.0
C3408 C 0.35732 0.67767 0.51081 0.0
C3409 C 0.3444 0.66517 0.49779 0.0
C3410 C 0.35915 0.67511 0.53072 0.0
C3411 C 0.3478 0.65965 0.53763 0.0
C3412 C 0.33465 0.64705 0.52435 0.0
C3413 C 0.33319 0.64998 0.50456 0.0
C3414 C 0.37309 0.68903 0.5444 0.0
C3415 C 0.32228 0.63018 0.53065 0.0
H3416 H 0.37567 0.63294 0.59153 0.0
H3417 H 0.32895 0.66844 0.60035 0.0
H3418 H 0.36775 0.62556 0.54111 0.0
H3419 H 0.3857 0.64591 0.54632 0.0
H3420 H 0.38638 0.62577 0.56099 0.0
H3421 H 0.31428 0.68447 0.57563 0.0
H3422 H 0.32903 0.68984 0.55631 0.0
H3423 H 0.31146 0.66906 0.55304 0.0
H3424 H 0.3659 0.68949 0.50543 0.0
H3425 H 0.32319 0.64044 0.49436 0.0
H3426 H 0.38407 0.68096 0.55199 0.0
H3427 H 0.3651 0.69628 0.55567 0.0
H3428 H 0.38075 0.70035 0.53675 0.0
H3429 H 0.31965 0.6322 0.54617 0.0
H3430 H 0.3297 0.6168 0.52819 0.0
H3431 H 0.30797 0.62784 0.52185 0.0
C3432 C 0.0517 0.7253 0.3308 0.0
C3433 C 0.03619 0.73187 0.31965 0.0
C3434 C 0.04868 0.71621 0.34769 0.0
C3435 C 0.02973 0.71386 0.35368 0.0
C3436 C 0.014 0.72026 0.34236 0.0
C3437 C 0.01745 0.72933 0.32559 0.0
C3438 C 0.06577 0.70924 0.35916 0.0
C3439 C 0.99352 0.71773 0.34807 0.0
C3440 C 0.01673 0.67803 0.38985 0.0
C3441 C 0.01718 0.69046 0.40689 0.0
C3442 C 0.02125 0.68535 0.37243 0.0
C3443 C 0.02637 0.70554 0.37223 0.0
C3444 C 0.02729 0.71803 0.38966 0.0
C3445 C 0.02263 0.7103 0.40684 0.0
C3446 C 0.02043 0.67151 0.35427 0.0
C3447 C 0.03268 0.73962 0.39004 0.0
H3448 H 0.06619 0.72707 0.32617 0.0
H3449 H 0.00551 0.7348 0.31731 0.0
H3450 H 0.06796 0.71714 0.37391 0.0
H3451 H 0.06285 0.69357 0.36094 0.0
H3452 H 0.07942 0.71141 0.35208 0.0
H3453 H 0.98283 0.72304 0.3374 0.0
H3454 H 0.98921 0.70216 0.34934 0.0
H3455 H 0.99278 0.72574 0.3625 0.0
H3456 H 0.01251 0.66264 0.39008 0.0
H3457 H 0.02289 0.7198 0.42015 0.0
H3458 H 0.03536 0.67043 0.35011 0.0
H3459 H 0.01185 0.67696 0.34201 0.0
H3460 H 0.01401 0.65669 0.35634 0.0
H3461 H 0.04688 0.7424 0.38413 0.0
H3462 H 0.0336 0.74717 0.40493 0.0
H3463 H 0.0217 0.74605 0.38064 0.0
C3464 C 0.66646 0.26996 0.88901 0.0
C3465 C 0.68072 0.26625 0.87645 0.0
C3466 C 0.67157 0.27723 0.90847 0.0
C3467 C 0.69143 0.28097 0.91557 0.0
C3468 C 0.70592 0.27715 0.90304 0.0
C3469 C 0.70039 0.26982 0.88363 0.0
C3470 C 0.65567 0.28109 0.92138 0.0
C3471 C 0.72723 0.28093 0.9101 0.0
C3472 C 0.70096 0.31677 0.96077 0.0
C3473 C 0.70233 0.30423 0.97535 0.0
C3474 C 0.69849 0.30943 0.94111 0.0
C3475 C 0.69689 0.28907 0.93611 0.0
C3476 C 0.69891 0.27642 0.95092 0.0
C3477 C 0.70172 0.28422 0.97042 0.0
C3478 C 0.69662 0.32341 0.92577 0.0
C3479 C 0.69704 0.25464 0.94626 0.0
H3480 H 0.65125 0.26752 0.88352 0.0
H3481 H 0.71148 0.26677 0.87408 0.0
H3482 H 0.65728 0.27285 0.9343 0.0
H3483 H 0.65687 0.29674 0.92671 0.0
H3484 H 0.64094 0.27698 0.91374 0.0
H3485 H 0.7367 0.27709 0.89856 0.0
H3486 H 0.73081 0.29651 0.91539 0.0
H3487 H 0.73064 0.27242 0.92253 0.0
H3488 H 0.70106 0.33222 0.96472 0.0
H3489 H 0.70259 0.27459 0.98186 0.0
H3490 H 0.68151 0.32172 0.9187 0.0
H3491 H 0.70633 0.32014 0.91431 0.0
H3492 H 0.7002 0.33877 0.93191 0.0
H3493 H 0.68199 0.24957 0.93999 0.0
H3494 H 0.70038 0.24694 0.95933 0.0
H3495 H 0.7069 0.25049 0.93522 0.0
C3496 C 0.0158 0.31819 0.22016 0.0
C3497 C 1.00085 0.32999 0.22355 0.0
C3498 C 0.01814 0.31017 0.20136 0.0
C3499 C 0.00522 0.31408 0.18556 0.0
C3500 C 0.98967 0.3254 0.18896 0.0
C3501 C 0.98767 0.33323 0.20792 0.0
C3502 C 0.03491 0.29817 0.19831 0.0
C3503 C 0.97555 0.32979 0.17248 0.0
C3504 C 0.02494 0.31285 0.13634 0.0
C3505 C 0.01695 0.29463 0.12772 0.0
C3506 C 0.02102 0.31945 0.15512 0.0
C3507 C 0.00883 0.30744 0.16538 0.0
C3508 C 1.00055 0.28904 0.15651 0.0
C3509 C 0.00474 0.28282 0.13767 0.0
C3510 C 0.03007 0.33918 0.16406 0.0
C3511 C 0.98748 0.27588 0.16699 0.0
H3512 H 0.02618 0.31582 0.23212 0.0
H3513 H 0.97593 0.34212 0.2105 0.0
H3514 H 0.02965 0.28407 0.18989 0.0
H3515 H 0.04534 0.30589 0.18974 0.0
H3516 H 0.04277 0.2953 0.21224 0.0
H3517 H 0.96344 0.33761 0.17772 0.0
H3518 H 0.98329 0.33888 0.1627 0.0
H3519 H 0.96936 0.31615 0.16372 0.0
H3520 H 0.03436 0.32189 0.12844 0.0
H3521 H 0.99859 0.26872 0.13078 0.0
H3522 H 0.03956 0.33758 0.17743 0.0
H3523 H 0.01859 0.34836 0.16834 0.0
H3524 H 0.03888 0.34686 0.15398 0.0
H3525 H 0.99561 0.27199 0.18034 0.0
H3526 H 0.98175 0.26229 0.15783 0.0
H3527 H 0.97505 0.28355 0.17156 0.0
loop_
_geom_bond_atom_site_label_1
_geom_bond_atom_site_label_2
_geom_bond_distance
_geom_bond_site_symmetry_2
_ccdc_geom_bond_type
C0 C1 1.264 . S
C0 C5 1.479 . S
C0 C10 1.465 . S
C1 C0 1.264 . S
C1 C3 1.339 . S
C1 H28 0.931 . S
C2 C3 1.395 . S
C2 C4 1.320 . S
C3 C1 1.339 . S
C3 C2 1.395 . S
C3 H29 0.929 . S
C4 C2 1.320 . S
C4 C5 1.405 . S
C4 H30 0.930 . S
C5 C0 1.479 . S
C5 C4 1.405 . S
C5 H31 0.931 . S
U6 O7 2.454 . S
U6 O8 2.458 . S
U6 C9 2.984 . S
U6 C10 2.847 . S
U6 C23 2.882 . S
U6 O24 2.441 . S
U6 O25 2.420 . S
U6 O26 2.455 . S
U6 O27 2.449 . S
O7 U6 2.454 . S
O7 C9 1.353 . S
O8 U6 2.458 . S
O8 C9 1.286 . S
C9 U6 2.984 . S
C9 O7 1.353 . S
C9 O8 1.286 . S
C9 C11 1.363 . S
C10 C0 1.465 . S
C10 U6 2.847 . S
C10 O24 1.249 . S
C10 O25 1.202 . S
C11 C9 1.363 . S
C11 C13 1.408 . S
C11 C16 1.342 . S
C12 C13 1.310 . S
C12 C15 1.461 . S
C12 H32 0.932 . S
C13 C11 1.408 . S
C13 C12 1.310 . S
C13 H33 0.930 . S
C14 C15 1.474 . S
C14 C16 1.285 . S
C14 H34 0.929 . S
C15 C12 1.461 . S
C15 C14 1.474 . S
C16 C11 1.342 . S
C16 C14 1.285 . S
C16 H35 0.930 . S
C17 C20 1.424 . S
C17 C22 1.245 . S
C17 C23 1.428 . S
C18 C21 1.260 . S
C18 C22 1.477 . S
C18 H36 0.932 . S
C19 C20 1.384 . S
C19 C21 1.479 . S
C19 H37 0.929 . S
C20 C17 1.424 . S
C20 C19 1.384 . S
C20 H38 0.928 . S
C21 C18 1.260 . S
C21 C19 1.479 . S
C22 C17 1.245 . S
C22 C18 1.477 . S
C22 H39 0.932 . S
C23 U6 2.882 . S
C23 C17 1.428 . S
C23 O26 1.301 . S
C23 O27 1.282 . S
O24 U6 2.441 . S
O24 C10 1.249 . S
O25 U6 2.420 . S
O25 C10 1.202 . S
O26 U6 2.455 . S
O26 C23 1.301 . S
O27 U6 2.449 . S
O27 C23 1.282 . S
H28 C1 0.931 . S
H29 C3 0.929 . S
H30 C4 0.930 . S
H31 C5 0.931 . S
H32 C12 0.932 . S
H33 C13 0.930 . S
H34 C14 0.929 . S
H35 C16 0.930 . S
H36 C18 0.932 . S
H37 C19 0.929 . S
H38 C20 0.928 . S
H39 C22 0.932 . S
C40 C41 1.264 . S
C40 C45 1.479 . S
C40 C50 1.465 . S
C41 C40 1.264 . S
C41 C43 1.339 . S
C41 H68 0.931 . S
C42 C43 1.395 . S
C42 C44 1.320 . S
C43 C41 1.339 . S
C43 C42 1.395 . S
C43 H69 0.929 . S
C44 C42 1.320 . S
C44 C45 1.405 . S
C44 H70 0.930 . S
C45 C40 1.479 . S
C45 C44 1.405 . S
C45 H71 0.931 . S
U46 O47 2.454 . S
U46 O48 2.458 . S
U46 C49 2.984 . S
U46 C50 2.847 . S
U46 C63 2.882 . S
U46 O64 2.441 . S
U46 O65 2.420 . S
U46 O66 2.455 . S
U46 O67 2.449 . S
O47 U46 2.454 . S
O47 C49 1.353 . S
O48 U46 2.458 . S
O48 C49 1.286 . S
C49 U46 2.984 . S
C49 O47 1.353 . S
C49 O48 1.286 . S
C49 C51 1.363 . S
C50 C40 1.465 . S
C50 U46 2.847 . S
C50 O64 1.249 . S
C50 O65 1.202 . S
C51 C49 1.363 . S
C51 C53 1.408 . S
C51 C56 1.342 . S
C52 C53 1.310 . S
C52 C55 1.461 . S
C52 H72 0.932 . S
C53 C51 1.408 . S
C53 C52 1.310 . S
C53 H73 0.930 . S
C54 C55 1.474 . S
C54 C56 1.285 . S
C54 H74 0.929 . S
C55 C52 1.461 . S
C55 C54 1.474 . S
C56 C51 1.342 . S
C56 C54 1.285 . S
C56 H75 0.930 . S
C57 C60 1.424 . S
C57 C62 1.245 . S
C57 C63 1.428 . S
C58 C61 1.260 . S
C58 C62 1.477 . S
C58 H76 0.932 . S
C59 C60 1.384 . S
C59 C61 1.479 . S
C59 H77 0.929 . S
C60 C57 1.424 . S
C60 C59 1.384 . S
C60 H78 0.928 . S
C61 C58 1.260 . S
C61 C59 1.479 . S
C62 C57 1.245 . S
C62 C58 1.477 . S
C62 H79 0.932 . S
C63 U46 2.882 . S
C63 C57 1.428 . S
C63 O66 1.301 . S
C63 O67 1.282 . S
O64 U46 2.441 . S
O64 C50 1.249 . S
O65 U46 2.420 . S
O65 C50 1.202 . S
O66 U46 2.455 . S
O66 C63 1.301 . S
O67 U46 2.449 . S
O67 C63 1.282 . S
H68 C41 0.931 . S
H69 C43 0.929 . S
H70 C44 0.930 . S
H71 C45 0.931 . S
H72 C52 0.932 . S
H73 C53 0.930 . S
H74 C54 0.929 . S
H75 C56 0.930 . S
H76 C58 0.932 . S
H77 C59 0.929 . S
H78 C60 0.928 . S
H79 C62 0.932 . S
C80 C81 1.264 . S
C80 C85 1.479 . S
C80 C90 1.465 . S
C81 C80 1.264 . S
C81 C83 1.339 . S
C81 H108 0.931 . S
C82 C83 1.395 . S
C82 C84 1.320 . S
C83 C81 1.339 . S
C83 C82 1.395 . S
C83 H109 0.929 . S
C84 C82 1.320 . S
C84 C85 1.405 . S
C84 H110 0.925 1_565 S
C85 C80 1.479 . S
C85 C84 1.405 . S
C85 H111 0.931 . S
U86 O87 2.454 . S
U86 O88 2.458 . S
U86 C89 2.984 . S
U86 C90 2.847 . S
U86 C103 2.882 . S
U86 O104 2.441 . S
U86 O105 2.420 . S
U86 O106 2.455 . S
U86 O107 2.449 . S
O87 U86 2.454 . S
O87 C89 1.353 . S
O88 U86 2.458 . S
O88 C89 1.286 . S
C89 U86 2.984 . S
C89 O87 1.353 . S
C89 O88 1.286 . S
C89 C91 1.363 . S
C90 C80 1.465 . S
C90 U86 2.847 . S
C90 O104 1.249 . S
C90 O105 1.202 . S
C91 C89 1.363 . S
C91 C93 1.408 . S
C91 C96 1.342 . S
C92 C93 1.310 . S
C92 C95 1.461 . S
C92 H112 0.932 . S
C93 C91 1.408 . S
C93 C92 1.310 . S
C93 H113 0.930 . S
C94 C95 1.473 1_545 S
C94 C96 1.284 1_545 S
C94 H114 0.932 . S
C95 C92 1.461 . S
C95 C94 1.473 1_565 S
C96 C91 1.342 . S
C96 C94 1.284 1_565 S
C96 H115 0.935 . S
C97 C100 1.424 . S
C97 C102 1.245 . S
C97 C103 1.428 . S
C98 C101 1.260 . S
C98 C102 1.477 . S
C98 H116 0.932 . S
C99 C100 1.384 . S
C99 C101 1.479 . S
C99 H117 0.929 . S
C100 C97 1.424 . S
C100 C99 1.384 . S
C100 H118 0.928 . S
C101 C98 1.260 . S
C101 C99 1.479 . S
C102 C97 1.245 . S
C102 C98 1.477 . S
C102 H119 0.932 . S
C103 U86 2.882 . S
C103 C97 1.428 . S
C103 O106 1.301 . S
C103 O107 1.282 . S
O104 U86 2.441 . S
O104 C90 1.249 . S
O105 U86 2.420 . S
O105 C90 1.202 . S
O106 U86 2.455 . S
O106 C103 1.301 . S
O107 U86 2.449 . S
O107 C103 1.282 . S
H108 C81 0.931 . S
H109 C83 0.929 . S
H110 C84 0.925 1_545 S
H111 C85 0.931 . S
H112 C92 0.932 . S
H113 C93 0.930 . S
H114 C94 0.932 . S
H115 C96 0.935 . S
H116 C98 0.932 . S
H117 C99 0.929 . S
H118 C100 0.928 . S
H119 C102 0.932 . S
C120 C121 1.264 . S
C120 C125 1.479 . S
C120 C130 1.465 . S
C121 C120 1.264 . S
C121 C123 1.339 . S
C121 H148 0.931 . S
C122 C123 1.395 . S
C122 C124 1.320 . S
C123 C121 1.339 . S
C123 C122 1.395 . S
C123 H149 0.929 . S
C124 C122 1.320 . S
C124 C125 1.405 . S
C124 H150 0.930 . S
C125 C120 1.479 . S
C125 C124 1.405 . S
C125 H151 0.931 . S
U126 O127 2.454 . S
U126 O128 2.458 . S
U126 C129 2.984 . S
U126 C130 2.847 . S
U126 C143 2.882 . S
U126 O144 2.441 . S
U126 O145 2.420 . S
U126 O146 2.455 . S
U126 O147 2.449 . S
O127 U126 2.454 . S
O127 C129 1.353 . S
O128 U126 2.458 . S
O128 C129 1.286 . S
C129 U126 2.984 . S
C129 O127 1.353 . S
C129 O128 1.286 . S
C129 C131 1.363 . S
C130 C120 1.465 . S
C130 U126 2.847 . S
C130 O144 1.249 . S
C130 O145 1.202 . S
C131 C129 1.363 . S
C131 C133 1.408 . S
C131 C136 1.342 . S
C132 C133 1.310 . S
C132 C135 1.461 . S
C132 H152 0.932 . S
C133 C131 1.408 . S
C133 C132 1.310 . S
C133 H153 0.930 . S
C134 C135 1.474 . S
C134 C136 1.285 . S
C134 H154 0.929 . S
C135 C132 1.461 . S
C135 C134 1.474 . S
C136 C131 1.342 . S
C136 C134 1.285 . S
C136 H155 0.930 . S
C137 C140 1.424 . S
C137 C142 1.245 . S
C137 C143 1.428 1_565 S
C138 C141 1.260 . S
C138 C142 1.477 . S
C138 H156 0.932 . S
C139 C140 1.384 . S
C139 C141 1.479 . S
C139 H157 0.929 . S
C140 C137 1.424 . S
C140 C139 1.384 . S
C140 H158 0.928 . S
C141 C138 1.260 . S
C141 C139 1.479 . S
C142 C137 1.245 . S
C142 C138 1.477 . S
C142 H159 0.932 . S
C143 U126 2.882 . S
C143 C137 1.428 1_545 S
C143 O146 1.301 . S
C143 O147 1.282 . S
O144 U126 2.441 . S
O144 C130 1.249 . S
O145 U126 2.420 . S
O145 C130 1.202 . S
O146 U126 2.455 . S
O146 C143 1.301 . S
O147 U126 2.449 . S
O147 C143 1.282 . S
H148 C121 0.931 . S
H149 C123 0.929 . S
H150 C124 0.930 . S
H151 C125 0.931 . S
H152 C132 0.932 . S
H153 C133 0.930 . S
H154 C134 0.929 . S
H155 C136 0.930 . S
H156 C138 0.932 . S
H157 C139 0.929 . S
H158 C140 0.928 . S
H159 C142 0.932 . S
C160 C161 1.264 . S
C160 C165 1.479 . S
C160 C170 1.465 . S
C161 C160 1.264 . S
C161 C163 1.339 . S
C161 H188 0.931 . S
C162 C163 1.395 . S
C162 C164 1.320 . S
C163 C161 1.339 . S
C163 C162 1.395 . S
C163 H189 0.929 . S
C164 C162 1.320 . S
C164 C165 1.405 . S
C164 H190 0.930 . S
C165 C160 1.479 . S
C165 C164 1.405 . S
C165 H191 0.931 . S
U166 O167 2.454 . S
U166 O168 2.458 . S
U166 C169 2.984 . S
U166 C170 2.847 . S
U166 C183 2.882 . S
U166 O184 2.441 . S
U166 O185 2.420 . S
U166 O186 2.455 . S
U166 O187 2.449 . S
O167 U166 2.454 . S
O167 C169 1.353 . S
O168 U166 2.458 . S
O168 C169 1.286 . S
C169 U166 2.984 . S
C169 O167 1.353 . S
C169 O168 1.286 . S
C169 C171 1.363 . S
C170 C160 1.465 . S
C170 U166 2.847 . S
C170 O184 1.249 . S
C170 O185 1.202 . S
C171 C169 1.363 . S
C171 C173 1.408 . S
C171 C176 1.342 . S
C172 C173 1.310 . S
C172 C175 1.461 . S
C172 H192 0.932 . S
C173 C171 1.408 . S
C173 C172 1.310 . S
C173 H193 0.930 . S
C174 C175 1.474 . S
C174 C176 1.285 . S
C174 H194 0.929 . S
C175 C172 1.461 . S
C175 C174 1.474 . S
C176 C171 1.342 . S
C176 C174 1.285 . S
C176 H195 0.930 . S
C177 C180 1.424 . S
C177 C182 1.245 . S
C177 C183 1.428 . S
C178 C181 1.260 . S
C178 C182 1.477 . S
C178 H196 0.932 . S
C179 C180 1.384 . S
C179 C181 1.479 . S
C179 H197 0.929 . S
C180 C177 1.424 . S
C180 C179 1.384 . S
C180 H198 0.928 . S
C181 C178 1.260 . S
C181 C179 1.479 . S
C182 C177 1.245 . S
C182 C178 1.477 . S
C182 H199 0.932 . S
C183 U166 2.882 . S
C183 C177 1.428 . S
C183 O186 1.301 . S
C183 O187 1.282 . S
O184 U166 2.441 . S
O184 C170 1.249 . S
O185 U166 2.420 . S
O185 C170 1.202 . S
O186 U166 2.455 . S
O186 C183 1.301 . S
O187 U166 2.449 . S
O187 C183 1.282 . S
H188 C161 0.931 . S
H189 C163 0.929 . S
H190 C164 0.930 . S
H191 C165 0.931 . S
H192 C172 0.932 . S
H193 C173 0.930 . S
H194 C174 0.929 . S
H195 C176 0.930 . S
H196 C178 0.932 . S
H197 C179 0.929 . S
H198 C180 0.928 . S
H199 C182 0.932 . S
C200 C201 1.264 . S
C200 C205 1.479 . S
C200 C210 1.465 . S
C201 C200 1.264 . S
C201 C203 1.339 . S
C201 H228 0.931 . S
C202 C203 1.395 . S
C202 C204 1.320 . S
C203 C201 1.339 . S
C203 C202 1.395 . S
C203 H229 0.929 . S
C204 C202 1.320 . S
C204 C205 1.405 . S
C204 H230 0.930 . S
C205 C200 1.479 . S
C205 C204 1.405 . S
C205 H231 0.931 . S
U206 O207 2.454 . S
U206 O208 2.458 . S
U206 C209 2.984 . S
U206 C210 2.847 . S
U206 C223 2.882 . S
U206 O224 2.441 . S
U206 O225 2.420 . S
U206 O226 2.455 . S
U206 O227 2.449 . S
O207 U206 2.454 . S
O207 C209 1.353 . S
O208 U206 2.458 . S
O208 C209 1.286 . S
C209 U206 2.984 . S
C209 O207 1.353 . S
C209 O208 1.286 . S
C209 C211 1.363 . S
C210 C200 1.465 . S
C210 U206 2.847 . S
C210 O224 1.249 . S
C210 O225 1.202 . S
C211 C209 1.363 . S
C211 C213 1.408 . S
C211 C216 1.342 . S
C212 C213 1.310 . S
C212 C215 1.461 . S
C212 H232 0.932 . S
C213 C211 1.408 . S
C213 C212 1.310 . S
C213 H233 0.930 . S
C214 C215 1.474 . S
C214 C216 1.285 . S
C214 H234 0.929 . S
C215 C212 1.461 . S
C215 C214 1.474 . S
C216 C211 1.342 . S
C216 C214 1.285 . S
C216 H235 0.930 . S
C217 C220 1.424 . S
C217 C222 1.245 . S
C217 C223 1.428 1_556 S
C218 C221 1.260 . S
C218 C222 1.477 . S
C218 H236 0.932 . S
C219 C220 1.384 . S
C219 C221 1.479 . S
C219 H237 0.929 . S
C220 C217 1.424 . S
C220 C219 1.384 . S
C220 H238 0.928 . S
C221 C218 1.260 . S
C221 C219 1.479 . S
C222 C217 1.245 . S
C222 C218 1.477 . S
C222 H239 0.932 . S
C223 U206 2.882 . S
C223 C217 1.428 1_554 S
C223 O226 1.301 . S
C223 O227 1.282 . S
O224 U206 2.441 . S
O224 C210 1.249 . S
O225 U206 2.420 . S
O225 C210 1.202 . S
O226 U206 2.455 . S
O226 C223 1.301 . S
O227 U206 2.449 . S
O227 C223 1.282 . S
H228 C201 0.931 . S
H229 C203 0.929 . S
H230 C204 0.930 . S
H231 C205 0.931 . S
H232 C212 0.932 . S
H233 C213 0.930 . S
H234 C214 0.929 . S
H235 C216 0.930 . S
H236 C218 0.932 . S
H237 C219 0.929 . S
H238 C220 0.928 . S
H239 C222 0.932 . S
C240 C241 1.264 . S
C240 C245 1.479 . S
C240 C250 1.465 . S
C241 C240 1.264 . S
C241 C243 1.339 . S
C241 H268 0.931 . S
C242 C243 1.395 . S
C242 C244 1.320 . S
C243 C241 1.339 . S
C243 C242 1.395 . S
C243 H269 0.929 . S
C244 C242 1.320 . S
C244 C245 1.405 . S
C244 H270 0.930 . S
C245 C240 1.479 . S
C245 C244 1.405 . S
C245 H271 0.931 . S
U246 O247 2.454 . S
U246 O248 2.458 . S
U246 C249 2.984 . S
U246 C250 2.847 . S
U246 C263 2.882 . S
U246 O264 2.441 . S
U246 O265 2.420 . S
U246 O266 2.455 . S
U246 O267 2.449 . S
O247 U246 2.454 . S
O247 C249 1.353 . S
O248 U246 2.458 . S
O248 C249 1.286 . S
C249 U246 2.984 . S
C249 O247 1.353 . S
C249 O248 1.286 . S
C249 C251 1.363 . S
C250 C240 1.465 . S
C250 U246 2.847 . S
C250 O264 1.249 . S
C250 O265 1.202 . S
C251 C249 1.363 . S
C251 C253 1.408 . S
C251 C256 1.342 . S
C252 C253 1.310 . S
C252 C255 1.461 . S
C252 H272 0.932 . S
C253 C251 1.408 . S
C253 C252 1.310 . S
C253 H273 0.930 . S
C254 C255 1.474 . S
C254 C256 1.285 . S
C254 H274 0.929 . S
C255 C252 1.461 . S
C255 C254 1.474 . S
C256 C251 1.342 . S
C256 C254 1.285 . S
C256 H275 0.930 . S
C257 C260 1.424 . S
C257 C262 1.245 . S
C257 C263 1.428 . S
C258 C261 1.260 . S
C258 C262 1.477 . S
C258 H276 0.932 . S
C259 C260 1.384 . S
C259 C261 1.479 . S
C259 H277 0.929 . S
C260 C257 1.424 . S
C260 C259 1.384 . S
C260 H278 0.928 . S
C261 C258 1.260 . S
C261 C259 1.479 . S
C262 C257 1.245 . S
C262 C258 1.477 . S
C262 H279 0.932 . S
C263 U246 2.882 . S
C263 C257 1.428 . S
C263 O266 1.301 . S
C263 O267 1.282 . S
O264 U246 2.441 . S
O264 C250 1.249 . S
O265 U246 2.420 . S
O265 C250 1.202 . S
O266 U246 2.455 . S
O266 C263 1.301 . S
O267 U246 2.449 . S
O267 C263 1.282 . S
H268 C241 0.931 . S
H269 C243 0.929 . S
H270 C244 0.930 . S
H271 C245 0.931 . S
H272 C252 0.932 . S
H273 C253 0.930 . S
H274 C254 0.929 . S
H275 C256 0.930 . S
H276 C258 0.932 . S
H277 C259 0.929 . S
H278 C260 0.928 . S
H279 C262 0.932 . S
C280 C281 1.264 . S
C280 C285 1.479 . S
C280 C290 1.465 . S
C281 C280 1.264 . S
C281 C283 1.339 . S
C281 H308 0.931 . S
C282 C283 1.395 . S
C282 C284 1.320 . S
C283 C281 1.339 . S
C283 C282 1.395 . S
C283 H309 0.929 . S
C284 C282 1.320 . S
C284 C285 1.405 . S
C284 H310 0.925 1_556 S
C285 C280 1.479 . S
C285 C284 1.405 . S
C285 H311 0.931 . S
U286 O287 2.454 . S
U286 O288 2.458 . S
U286 C289 2.984 . S
U286 C290 2.847 . S
U286 C303 2.882 . S
U286 O304 2.441 . S
U286 O305 2.420 . S
U286 O306 2.455 . S
U286 O307 2.449 . S
O287 U286 2.454 . S
O287 C289 1.353 . S
O288 U286 2.458 . S
O288 C289 1.286 . S
C289 U286 2.984 . S
C289 O287 1.353 . S
C289 O288 1.286 . S
C289 C291 1.363 . S
C290 C280 1.465 . S
C290 U286 2.847 . S
C290 O304 1.249 . S
C290 O305 1.202 . S
C291 C289 1.363 . S
C291 C293 1.408 . S
C291 C296 1.342 . S
C292 C293 1.310 . S
C292 C295 1.461 . S
C292 H312 0.932 . S
C293 C291 1.408 . S
C293 C292 1.310 . S
C293 H313 0.930 . S
C294 C295 1.473 1_554 S
C294 C296 1.284 1_554 S
C294 H314 0.932 . S
C295 C292 1.461 . S
C295 C294 1.473 1_556 S
C296 C291 1.342 . S
C296 C294 1.284 1_556 S
C296 H315 0.935 . S
C297 C300 1.424 . S
C297 C302 1.245 . S
C297 C303 1.428 . S
C298 C301 1.260 . S
C298 C302 1.477 . S
C298 H316 0.932 . S
C299 C300 1.384 . S
C299 C301 1.479 . S
C299 H317 0.929 . S
C300 C297 1.424 . S
C300 C299 1.384 . S
C300 H318 0.928 . S
C301 C298 1.260 . S
C301 C299 1.479 . S
C302 C297 1.245 . S
C302 C298 1.477 . S
C302 H319 0.932 . S
C303 U286 2.882 . S
C303 C297 1.428 . S
C303 O306 1.301 . S
C303 O307 1.282 . S
O304 U286 2.441 . S
O304 C290 1.249 . S
O305 U286 2.420 . S
O305 C290 1.202 . S
O306 U286 2.455 . S
O306 C303 1.301 . S
O307 U286 2.449 . S
O307 C303 1.282 . S
H308 C281 0.931 . S
H309 C283 0.929 . S
H310 C284 0.925 1_554 S
H311 C285 0.931 . S
H312 C292 0.932 . S
H313 C293 0.930 . S
H314 C294 0.932 . S
H315 C296 0.935 . S
H316 C298 0.932 . S
H317 C299 0.929 . S
H318 C300 0.928 . S
H319 C302 0.932 . S
C320 C321 1.264 . S
C320 C325 1.479 . S
C320 C330 1.465 . S
C321 C320 1.264 . S
C321 C323 1.339 . S
C321 H348 0.931 . S
C322 C323 1.395 . S
C322 C324 1.320 . S
C323 C321 1.339 . S
C323 C322 1.395 . S
C323 H349 0.929 . S
C324 C322 1.320 . S
C324 C325 1.405 . S
C324 H350 0.930 . S
C325 C320 1.479 . S
C325 C324 1.405 . S
C325 H351 0.931 . S
U326 O327 2.454 . S
U326 O328 2.458 . S
U326 C329 2.984 . S
U326 C330 2.847 . S
U326 C343 2.882 . S
U326 O344 2.441 . S
U326 O345 2.420 . S
U326 O346 2.455 . S
U326 O347 2.449 . S
O327 U326 2.454 . S
O327 C329 1.353 . S
O328 U326 2.458 . S
O328 C329 1.286 . S
C329 U326 2.984 . S
C329 O327 1.353 . S
C329 O328 1.286 . S
C329 C331 1.363 . S
C330 C320 1.465 . S
C330 U326 2.847 . S
C330 O344 1.249 . S
C330 O345 1.202 . S
C331 C329 1.363 . S
C331 C333 1.408 . S
C331 C336 1.342 . S
C332 C333 1.310 . S
C332 C335 1.461 . S
C332 H352 0.932 . S
C333 C331 1.408 . S
C333 C332 1.310 . S
C333 H353 0.930 . S
C334 C335 1.474 . S
C334 C336 1.285 . S
C334 H354 0.929 . S
C335 C332 1.461 . S
C335 C334 1.474 . S
C336 C331 1.342 . S
C336 C334 1.285 . S
C336 H355 0.930 . S
C337 C340 1.424 . S
C337 C342 1.245 . S
C337 C343 1.428 . S
C338 C341 1.260 . S
C338 C342 1.477 . S
C338 H356 0.932 . S
C339 C340 1.384 . S
C339 C341 1.479 . S
C339 H357 0.929 . S
C340 C337 1.424 . S
C340 C339 1.384 . S
C340 H358 0.928 . S
C341 C338 1.260 . S
C341 C339 1.479 . S
C342 C337 1.245 . S
C342 C338 1.477 . S
C342 H359 0.932 . S
C343 U326 2.882 . S
C343 C337 1.428 . S
C343 O346 1.301 . S
C343 O347 1.282 . S
O344 U326 2.441 . S
O344 C330 1.249 . S
O345 U326 2.420 . S
O345 C330 1.202 . S
O346 U326 2.455 . S
O346 C343 1.301 . S
O347 U326 2.449 . S
O347 C343 1.282 . S
H348 C321 0.931 . S
H349 C323 0.929 . S
H350 C324 0.930 . S
H351 C325 0.931 . S
H352 C332 0.932 . S
H353 C333 0.930 . S
H354 C334 0.929 . S
H355 C336 0.930 . S
H356 C338 0.932 . S
H357 C339 0.929 . S
H358 C340 0.928 . S
H359 C342 0.932 . S
C360 C361 1.264 . S
C360 C365 1.479 . S
C360 C370 1.465 . S
C361 C360 1.264 . S
C361 C363 1.339 . S
C361 H388 0.931 . S
C362 C363 1.395 . S
C362 C364 1.320 . S
C363 C361 1.339 . S
C363 C362 1.395 . S
C363 H389 0.929 . S
C364 C362 1.320 . S
C364 C365 1.405 . S
C364 H390 0.930 . S
C365 C360 1.479 . S
C365 C364 1.405 . S
C365 H391 0.931 . S
U366 O367 2.454 . S
U366 O368 2.458 . S
U366 C369 2.984 . S
U366 C370 2.847 . S
U366 C383 2.882 . S
U366 O384 2.441 . S
U366 O385 2.420 . S
U366 O386 2.455 . S
U366 O387 2.449 . S
O367 U366 2.454 . S
O367 C369 1.353 . S
O368 U366 2.458 . S
O368 C369 1.286 . S
C369 U366 2.984 . S
C369 O367 1.353 . S
C369 O368 1.286 . S
C369 C371 1.363 . S
C370 C360 1.465 . S
C370 U366 2.847 . S
C370 O384 1.249 . S
C370 O385 1.202 . S
C371 C369 1.363 . S
C371 C373 1.408 . S
C371 C376 1.342 . S
C372 C373 1.310 . S
C372 C375 1.461 . S
C372 H392 0.932 . S
C373 C371 1.408 . S
C373 C372 1.310 . S
C373 H393 0.930 . S
C374 C375 1.474 . S
C374 C376 1.285 . S
C374 H394 0.929 . S
C375 C372 1.461 . S
C375 C374 1.474 . S
C376 C371 1.342 . S
C376 C374 1.285 . S
C376 H395 0.930 . S
C377 C380 1.424 . S
C377 C382 1.245 . S
C377 C383 1.428 1_655 S
C378 C381 1.260 . S
C378 C382 1.477 . S
C378 H396 0.932 . S
C379 C380 1.384 . S
C379 C381 1.479 . S
C379 H397 0.929 . S
C380 C377 1.424 . S
C380 C379 1.384 . S
C380 H398 0.928 . S
C381 C378 1.260 . S
C381 C379 1.479 . S
C382 C377 1.245 . S
C382 C378 1.477 . S
C382 H399 0.932 . S
C383 U366 2.882 . S
C383 C377 1.428 1_455 S
C383 O386 1.301 . S
C383 O387 1.282 . S
O384 U366 2.441 . S
O384 C370 1.249 . S
O385 U366 2.420 . S
O385 C370 1.202 . S
O386 U366 2.455 . S
O386 C383 1.301 . S
O387 U366 2.449 . S
O387 C383 1.282 . S
H388 C361 0.931 . S
H389 C363 0.929 . S
H390 C364 0.930 . S
H391 C365 0.931 . S
H392 C372 0.932 . S
H393 C373 0.930 . S
H394 C374 0.929 . S
H395 C376 0.930 . S
H396 C378 0.932 . S
H397 C379 0.929 . S
H398 C380 0.928 . S
H399 C382 0.932 . S
C400 C401 1.264 . S
C400 C405 1.479 . S
C400 C410 1.465 . S
C401 C400 1.264 . S
C401 C403 1.339 . S
C401 H428 0.931 . S
C402 C403 1.395 . S
C402 C404 1.320 . S
C403 C401 1.339 . S
C403 C402 1.395 . S
C403 H429 0.929 . S
C404 C402 1.320 . S
C404 C405 1.405 . S
C404 H430 0.930 . S
C405 C400 1.479 . S
C405 C404 1.405 . S
C405 H431 0.931 . S
U406 O407 2.454 . S
U406 O408 2.458 . S
U406 C409 2.984 . S
U406 C410 2.847 . S
U406 C423 2.882 . S
U406 O424 2.441 . S
U406 O425 2.420 . S
U406 O426 2.455 . S
U406 O427 2.449 . S
O407 U406 2.454 . S
O407 C409 1.353 . S
O408 U406 2.458 . S
O408 C409 1.286 . S
C409 U406 2.984 . S
C409 O407 1.353 . S
C409 O408 1.286 . S
C409 C411 1.363 . S
C410 C400 1.465 . S
C410 U406 2.847 . S
C410 O424 1.249 . S
C410 O425 1.202 . S
C411 C409 1.363 . S
C411 C413 1.408 . S
C411 C416 1.342 . S
C412 C413 1.310 . S
C412 C415 1.461 . S
C412 H432 0.932 . S
C413 C411 1.408 . S
C413 C412 1.310 . S
C413 H433 0.930 . S
C414 C415 1.474 . S
C414 C416 1.285 . S
C414 H434 0.929 . S
C415 C412 1.461 . S
C415 C414 1.474 . S
C416 C411 1.342 . S
C416 C414 1.285 . S
C416 H435 0.930 . S
C417 C420 1.424 . S
C417 C422 1.245 . S
C417 C423 1.428 . S
C418 C421 1.260 . S
C418 C422 1.477 . S
C418 H436 0.932 . S
C419 C420 1.384 . S
C419 C421 1.479 . S
C419 H437 0.929 . S
C420 C417 1.424 . S
C420 C419 1.384 . S
C420 H438 0.928 . S
C421 C418 1.260 . S
C421 C419 1.479 . S
C422 C417 1.245 . S
C422 C418 1.477 . S
C422 H439 0.932 . S
C423 U406 2.882 . S
C423 C417 1.428 . S
C423 O426 1.301 . S
C423 O427 1.282 . S
O424 U406 2.441 . S
O424 C410 1.249 . S
O425 U406 2.420 . S
O425 C410 1.202 . S
O426 U406 2.455 . S
O426 C423 1.301 . S
O427 U406 2.449 . S
O427 C423 1.282 . S
H428 C401 0.931 . S
H429 C403 0.929 . S
H430 C404 0.930 . S
H431 C405 0.931 . S
H432 C412 0.932 . S
H433 C413 0.930 . S
H434 C414 0.929 . S
H435 C416 0.930 . S
H436 C418 0.932 . S
H437 C419 0.929 . S
H438 C420 0.928 . S
H439 C422 0.932 . S
C440 C441 1.264 . S
C440 C445 1.479 . S
C440 C450 1.465 . S
C441 C440 1.264 . S
C441 C443 1.339 . S
C441 H468 0.931 . S
C442 C443 1.395 . S
C442 C444 1.320 . S
C443 C441 1.339 . S
C443 C442 1.395 . S
C443 H469 0.929 . S
C444 C442 1.320 . S
C444 C445 1.405 . S
C444 H470 0.925 1_655 S
C445 C440 1.479 . S
C445 C444 1.405 . S
C445 H471 0.931 . S
U446 O447 2.454 . S
U446 O448 2.458 . S
U446 C449 2.984 . S
U446 C450 2.847 . S
U446 C463 2.882 . S
U446 O464 2.441 . S
U446 O465 2.420 . S
U446 O466 2.455 . S
U446 O467 2.449 . S
O447 U446 2.454 . S
O447 C449 1.353 . S
O448 U446 2.458 . S
O448 C449 1.286 . S
C449 U446 2.984 . S
C449 O447 1.353 . S
C449 O448 1.286 . S
C449 C451 1.363 . S
C450 C440 1.465 . S
C450 U446 2.847 . S
C450 O464 1.249 . S
C450 O465 1.202 . S
C451 C449 1.363 . S
C451 C453 1.408 . S
C451 C456 1.342 . S
C452 C453 1.310 . S
C452 C455 1.461 . S
C452 H472 0.932 . S
C453 C451 1.408 . S
C453 C452 1.310 . S
C453 H473 0.930 . S
C454 C455 1.473 1_455 S
C454 C456 1.284 1_455 S
C454 H474 0.932 . S
C455 C452 1.461 . S
C455 C454 1.473 1_655 S
C456 C451 1.342 . S
C456 C454 1.284 1_655 S
C456 H475 0.935 . S
C457 C460 1.424 . S
C457 C462 1.245 . S
C457 C463 1.428 . S
C458 C461 1.260 . S
C458 C462 1.477 . S
C458 H476 0.932 . S
C459 C460 1.384 . S
C459 C461 1.479 . S
C459 H477 0.929 . S
C460 C457 1.424 . S
C460 C459 1.384 . S
C460 H478 0.928 . S
C461 C458 1.260 . S
C461 C459 1.479 . S
C462 C457 1.245 . S
C462 C458 1.477 . S
C462 H479 0.932 . S
C463 U446 2.882 . S
C463 C457 1.428 . S
C463 O466 1.301 . S
C463 O467 1.282 . S
O464 U446 2.441 . S
O464 C450 1.249 . S
O465 U446 2.420 . S
O465 C450 1.202 . S
O466 U446 2.455 . S
O466 C463 1.301 . S
O467 U446 2.449 . S
O467 C463 1.282 . S
H468 C441 0.931 . S
H469 C443 0.929 . S
H470 C444 0.925 1_455 S
H471 C445 0.931 . S
H472 C452 0.932 . S
H473 C453 0.930 . S
H474 C454 0.932 . S
H475 C456 0.935 . S
H476 C458 0.932 . S
H477 C459 0.929 . S
H478 C460 0.928 . S
H479 C462 0.932 . S
C480 C481 1.264 . S
C480 C485 1.479 . S
C480 C490 1.465 . S
C481 C480 1.264 . S
C481 C483 1.339 . S
C481 H508 0.931 . S
C482 C483 1.395 . S
C482 C484 1.320 . S
C483 C481 1.339 . S
C483 C482 1.395 . S
C483 H509 0.929 . S
C484 C482 1.320 . S
C484 C485 1.405 . S
C484 H510 0.930 . S
C485 C480 1.479 . S
C485 C484 1.405 . S
C485 H511 0.931 . S
U486 O487 2.454 . S
U486 O488 2.458 . S
U486 C489 2.984 . S
U486 C490 2.847 . S
U486 C503 2.882 . S
U486 O504 2.441 . S
U486 O505 2.420 . S
U486 O506 2.455 . S
U486 O507 2.449 . S
O487 U486 2.454 . S
O487 C489 1.353 . S
O488 U486 2.458 . S
O488 C489 1.286 . S
C489 U486 2.984 . S
C489 O487 1.353 . S
C489 O488 1.286 . S
C489 C491 1.363 . S
C490 C480 1.465 . S
C490 U486 2.847 . S
C490 O504 1.249 . S
C490 O505 1.202 . S
C491 C489 1.363 . S
C491 C493 1.408 . S
C491 C496 1.342 . S
C492 C493 1.310 . S
C492 C495 1.461 . S
C492 H512 0.932 . S
C493 C491 1.408 . S
C493 C492 1.310 . S
C493 H513 0.930 . S
C494 C495 1.474 . S
C494 C496 1.285 . S
C494 H514 0.929 . S
C495 C492 1.461 . S
C495 C494 1.474 . S
C496 C491 1.342 . S
C496 C494 1.285 . S
C496 H515 0.930 . S
C497 C500 1.424 . S
C497 C502 1.245 . S
C497 C503 1.428 . S
C498 C501 1.260 . S
C498 C502 1.477 . S
C498 H516 0.932 . S
C499 C500 1.384 . S
C499 C501 1.479 . S
C499 H517 0.929 . S
C500 C497 1.424 . S
C500 C499 1.384 . S
C500 H518 0.928 . S
C501 C498 1.260 . S
C501 C499 1.479 . S
C502 C497 1.245 . S
C502 C498 1.477 . S
C502 H519 0.932 . S
C503 U486 2.882 . S
C503 C497 1.428 . S
C503 O506 1.301 . S
C503 O507 1.282 . S
O504 U486 2.441 . S
O504 C490 1.249 . S
O505 U486 2.420 . S
O505 C490 1.202 . S
O506 U486 2.455 . S
O506 C503 1.301 . S
O507 U486 2.449 . S
O507 C503 1.282 . S
H508 C481 0.931 . S
H509 C483 0.929 . S
H510 C484 0.930 . S
H511 C485 0.931 . S
H512 C492 0.932 . S
H513 C493 0.930 . S
H514 C494 0.929 . S
H515 C496 0.930 . S
H516 C498 0.932 . S
H517 C499 0.929 . S
H518 C500 0.928 . S
H519 C502 0.932 . S
C520 C521 1.264 . S
C520 C525 1.479 . S
C520 C530 1.465 . S
C521 C520 1.264 . S
C521 C523 1.339 . S
C521 H548 0.931 . S
C522 C523 1.395 . S
C522 C524 1.320 . S
C523 C521 1.339 . S
C523 C522 1.395 . S
C523 H549 0.929 . S
C524 C522 1.320 . S
C524 C525 1.405 . S
C524 H550 0.930 . S
C525 C520 1.479 . S
C525 C524 1.405 . S
C525 H551 0.931 . S
U526 O527 2.454 . S
U526 O528 2.458 . S
U526 C529 2.984 . S
U526 C530 2.847 . S
U526 C543 2.882 . S
U526 O544 2.441 . S
U526 O545 2.420 . S
U526 O546 2.455 . S
U526 O547 2.449 . S
O527 U526 2.454 . S
O527 C529 1.353 . S
O528 U526 2.458 . S
O528 C529 1.286 . S
C529 U526 2.984 . S
C529 O527 1.353 . S
C529 O528 1.286 . S
C529 C531 1.363 . S
C530 C520 1.465 . S
C530 U526 2.847 . S
C530 O544 1.249 . S
C530 O545 1.202 . S
C531 C529 1.363 . S
C531 C533 1.408 . S
C531 C536 1.342 . S
C532 C533 1.310 . S
C532 C535 1.461 . S
C532 H552 0.932 . S
C533 C531 1.408 . S
C533 C532 1.310 . S
C533 H553 0.930 . S
C534 C535 1.474 . S
C534 C536 1.285 . S
C534 H554 0.929 . S
C535 C532 1.461 . S
C535 C534 1.474 . S
C536 C531 1.342 . S
C536 C534 1.285 . S
C536 H555 0.930 . S
C537 C540 1.424 . S
C537 C542 1.245 . S
C537 C543 1.428 . S
C538 C541 1.260 . S
C538 C542 1.477 . S
C538 H556 0.932 . S
C539 C540 1.384 . S
C539 C541 1.479 . S
C539 H557 0.929 . S
C540 C537 1.424 . S
C540 C539 1.384 . S
C540 H558 0.928 . S
C541 C538 1.260 . S
C541 C539 1.479 . S
C542 C537 1.245 . S
C542 C538 1.477 . S
C542 H559 0.932 . S
C543 U526 2.882 . S
C543 C537 1.428 . S
C543 O546 1.301 . S
C543 O547 1.282 . S
O544 U526 2.441 . S
O544 C530 1.249 . S
O545 U526 2.420 . S
O545 C530 1.202 . S
O546 U526 2.455 . S
O546 C543 1.301 . S
O547 U526 2.449 . S
O547 C543 1.282 . S
H548 C521 0.931 . S
H549 C523 0.929 . S
H550 C524 0.930 . S
H551 C525 0.931 . S
H552 C532 0.932 . S
H553 C533 0.930 . S
H554 C534 0.929 . S
H555 C536 0.930 . S
H556 C538 0.932 . S
H557 C539 0.929 . S
H558 C540 0.928 . S
H559 C542 0.932 . S
C560 C561 1.264 . S
C560 C565 1.479 . S
C560 C570 1.465 . S
C561 C560 1.264 . S
C561 C563 1.339 . S
C561 H588 0.931 . S
C562 C563 1.395 . S
C562 C564 1.320 . S
C563 C561 1.339 . S
C563 C562 1.395 . S
C563 H589 0.929 . S
C564 C562 1.320 . S
C564 C565 1.405 . S
C564 H590 0.920 1_565 S
C565 C560 1.479 . S
C565 C564 1.405 . S
C565 H591 0.931 . S
U566 O567 2.454 . S
U566 O568 2.458 . S
U566 C569 2.984 . S
U566 C570 2.847 . S
U566 C583 2.882 . S
U566 O584 2.441 . S
U566 O585 2.420 . S
U566 O586 2.455 . S
U566 O587 2.449 . S
O567 U566 2.454 . S
O567 C569 1.353 . S
O568 U566 2.458 . S
O568 C569 1.286 . S
C569 U566 2.984 . S
C569 O567 1.353 . S
C569 O568 1.286 . S
C569 C571 1.363 . S
C570 C560 1.465 . S
C570 U566 2.847 . S
C570 O584 1.249 . S
C570 O585 1.202 . S
C571 C569 1.363 . S
C571 C573 1.408 . S
C571 C576 1.342 . S
C572 C573 1.310 . S
C572 C575 1.460 . S
C572 H592 0.932 . S
C573 C571 1.408 . S
C573 C572 1.310 . S
C573 H593 0.930 . S
C574 C575 1.475 1_545 S
C574 C576 1.286 1_545 S
C574 H594 0.930 . S
C575 C572 1.460 . S
C575 C574 1.475 1_565 S
C576 C571 1.342 . S
C576 C574 1.286 1_565 S
C576 H595 0.929 . S
C577 C580 1.424 . S
C577 C582 1.245 . S
C577 C583 1.428 . S
C578 C581 1.260 . S
C578 C582 1.477 . S
C578 H596 0.932 . S
C579 C580 1.384 . S
C579 C581 1.479 . S
C579 H597 0.929 . S
C580 C577 1.424 . S
C580 C579 1.384 . S
C580 H598 0.928 . S
C581 C578 1.260 . S
C581 C579 1.479 . S
C582 C577 1.245 . S
C582 C578 1.477 . S
C582 H599 0.932 . S
C583 U566 2.882 . S
C583 C577 1.428 . S
C583 O586 1.301 . S
C583 O587 1.282 . S
O584 U566 2.441 . S
O584 C570 1.249 . S
O585 U566 2.420 . S
O585 C570 1.202 . S
O586 U566 2.455 . S
O586 C583 1.301 . S
O587 U566 2.449 . S
O587 C583 1.282 . S
H588 C561 0.931 . S
H589 C563 0.929 . S
H590 C564 0.920 1_545 S
H591 C565 0.931 . S
H592 C572 0.932 . S
H593 C573 0.930 . S
H594 C574 0.930 . S
H595 C576 0.929 . S
H596 C578 0.932 . S
H597 C579 0.929 . S
H598 C580 0.928 . S
H599 C582 0.932 . S
C600 C601 1.264 . S
C600 C605 1.479 1_545 S
C600 C610 1.465 . S
C601 C600 1.264 . S
C601 C603 1.339 1_545 S
C601 H628 0.931 . S
C602 C603 1.395 . S
C602 C604 1.320 . S
C603 C601 1.339 1_565 S
C603 C602 1.395 . S
C603 H629 0.929 1_565 S
C604 C602 1.320 . S
C604 C605 1.405 . S
C604 H630 0.930 . S
C605 C600 1.479 1_565 S
C605 C604 1.405 . S
C605 H631 0.931 . S
U606 O607 2.454 1_545 S
U606 O608 2.458 . S
U606 C609 2.988 . S
U606 C610 2.847 . S
U606 C623 2.882 . S
U606 O624 2.441 . S
U606 O625 2.420 . S
U606 O626 2.455 . S
U606 O627 2.449 . S
O607 U606 2.454 1_565 S
O607 C609 1.350 1_565 S
O608 U606 2.458 . S
O608 C609 1.290 . S
C609 U606 2.988 . S
C609 O607 1.350 1_545 S
C609 O608 1.290 . S
C609 C611 1.361 1_545 S
C610 C600 1.465 . S
C610 U606 2.847 . S
C610 O624 1.249 . S
C610 O625 1.202 . S
C611 C609 1.361 1_565 S
C611 C613 1.408 . S
C611 C616 1.342 . S
C612 C613 1.310 . S
C612 C615 1.461 . S
C612 H632 0.932 . S
C613 C611 1.408 . S
C613 C612 1.310 . S
C613 H633 0.930 . S
C614 C615 1.474 . S
C614 C616 1.285 . S
C614 H634 0.929 . S
C615 C612 1.461 . S
C615 C614 1.474 . S
C616 C611 1.342 . S
C616 C614 1.285 . S
C616 H635 0.932 . S
C617 C620 1.424 . S
C617 C622 1.245 . S
C617 C623 1.428 . S
C618 C621 1.260 . S
C618 C622 1.477 . S
C618 H636 0.932 . S
C619 C620 1.384 . S
C619 C621 1.479 . S
C619 H637 0.929 . S
C620 C617 1.424 . S
C620 C619 1.384 . S
C620 H638 0.928 . S
C621 C618 1.260 . S
C621 C619 1.479 . S
C622 C617 1.245 . S
C622 C618 1.477 . S
C622 H639 0.932 . S
C623 U606 2.882 . S
C623 C617 1.428 . S
C623 O626 1.301 . S
C623 O627 1.282 . S
O624 U606 2.441 . S
O624 C610 1.249 . S
O625 U606 2.420 . S
O625 C610 1.202 . S
O626 U606 2.455 . S
O626 C623 1.301 . S
O627 U606 2.449 . S
O627 C623 1.282 . S
H628 C601 0.931 . S
H629 C603 0.929 1_545 S
H630 C604 0.930 . S
H631 C605 0.931 . S
H632 C612 0.932 . S
H633 C613 0.930 . S
H634 C614 0.929 . S
H635 C616 0.932 . S
H636 C618 0.932 . S
H637 C619 0.929 . S
H638 C620 0.928 . S
H639 C622 0.932 . S
C640 C641 1.264 . S
C640 C645 1.479 . S
C640 C650 1.465 . S
C641 C640 1.264 . S
C641 C643 1.339 . S
C641 H668 0.931 . S
C642 C643 1.395 . S
C642 C644 1.320 . S
C643 C641 1.339 . S
C643 C642 1.395 . S
C643 H669 0.929 . S
C644 C642 1.320 . S
C644 C645 1.405 . S
C644 H670 0.930 . S
C645 C640 1.479 . S
C645 C644 1.405 . S
C645 H671 0.931 . S
U646 O647 2.454 . S
U646 O648 2.458 . S
U646 C649 2.984 . S
U646 C650 2.847 . S
U646 C663 2.882 . S
U646 O664 2.441 . S
U646 O665 2.420 . S
U646 O666 2.455 . S
U646 O667 2.449 . S
O647 U646 2.454 . S
O647 C649 1.353 . S
O648 U646 2.458 . S
O648 C649 1.286 . S
C649 U646 2.984 . S
C649 O647 1.353 . S
C649 O648 1.286 . S
C649 C651 1.363 . S
C650 C640 1.465 . S
C650 U646 2.847 . S
C650 O664 1.249 . S
C650 O665 1.202 . S
C651 C649 1.363 . S
C651 C653 1.408 . S
C651 C656 1.342 . S
C652 C653 1.310 . S
C652 C655 1.461 . S
C652 H672 0.932 . S
C653 C651 1.408 . S
C653 C652 1.310 . S
C653 H673 0.930 . S
C654 C655 1.474 . S
C654 C656 1.285 . S
C654 H674 0.929 . S
C655 C652 1.461 . S
C655 C654 1.474 . S
C656 C651 1.342 . S
C656 C654 1.285 . S
C656 H675 0.930 . S
C657 C660 1.424 . S
C657 C662 1.245 . S
C657 C663 1.428 . S
C658 C661 1.260 . S
C658 C662 1.477 . S
C658 H676 0.932 . S
C659 C660 1.384 . S
C659 C661 1.479 . S
C659 H677 0.929 . S
C660 C657 1.424 . S
C660 C659 1.384 . S
C660 H678 0.928 . S
C661 C658 1.260 . S
C661 C659 1.479 . S
C662 C657 1.245 . S
C662 C658 1.477 . S
C662 H679 0.932 . S
C663 U646 2.882 . S
C663 C657 1.428 . S
C663 O666 1.301 . S
C663 O667 1.282 . S
O664 U646 2.441 . S
O664 C650 1.249 . S
O665 U646 2.420 . S
O665 C650 1.202 . S
O666 U646 2.455 . S
O666 C663 1.301 . S
O667 U646 2.449 . S
O667 C663 1.282 . S
H668 C641 0.931 . S
H669 C643 0.929 . S
H670 C644 0.930 . S
H671 C645 0.931 . S
H672 C652 0.932 . S
H673 C653 0.930 . S
H674 C654 0.929 . S
H675 C656 0.930 . S
H676 C658 0.932 . S
H677 C659 0.929 . S
H678 C660 0.928 . S
H679 C662 0.932 . S
C680 C681 1.264 . S
C680 C685 1.479 1_554 S
C680 C690 1.465 . S
C681 C680 1.264 . S
C681 C683 1.339 1_554 S
C681 H708 0.931 . S
C682 C683 1.395 . S
C682 C684 1.320 . S
C683 C681 1.339 1_556 S
C683 C682 1.395 . S
C683 H709 0.929 1_556 S
C684 C682 1.320 . S
C684 C685 1.405 . S
C684 H710 0.930 . S
C685 C680 1.479 1_556 S
C685 C684 1.405 . S
C685 H711 0.931 . S
U686 O687 2.454 1_554 S
U686 O688 2.458 . S
U686 C689 2.988 . S
U686 C690 2.847 . S
U686 C703 2.882 . S
U686 O704 2.441 . S
U686 O705 2.420 . S
U686 O706 2.455 . S
U686 O707 2.449 . S
O687 U686 2.454 1_556 S
O687 C689 1.350 1_556 S
O688 U686 2.458 . S
O688 C689 1.290 . S
C689 U686 2.988 . S
C689 O687 1.350 1_554 S
C689 O688 1.290 . S
C689 C691 1.361 1_554 S
C690 C680 1.465 . S
C690 U686 2.847 . S
C690 O704 1.249 . S
C690 O705 1.202 . S
C691 C689 1.361 1_556 S
C691 C693 1.408 . S
C691 C696 1.342 . S
C692 C693 1.310 . S
C692 C695 1.461 . S
C692 H712 0.932 . S
C693 C691 1.408 . S
C693 C692 1.310 . S
C693 H713 0.930 . S
C694 C695 1.474 . S
C694 C696 1.285 . S
C694 H714 0.929 . S
C695 C692 1.461 . S
C695 C694 1.474 . S
C696 C691 1.342 . S
C696 C694 1.285 . S
C696 H715 0.932 . S
C697 C700 1.424 . S
C697 C702 1.245 . S
C697 C703 1.428 . S
C698 C701 1.260 . S
C698 C702 1.477 . S
C698 H716 0.932 . S
C699 C700 1.384 . S
C699 C701 1.479 . S
C699 H717 0.929 . S
C700 C697 1.424 . S
C700 C699 1.384 . S
C700 H718 0.928 . S
C701 C698 1.260 . S
C701 C699 1.479 . S
C702 C697 1.245 . S
C702 C698 1.477 . S
C702 H719 0.932 . S
C703 U686 2.882 . S
C703 C697 1.428 . S
C703 O706 1.301 . S
C703 O707 1.282 . S
O704 U686 2.441 . S
O704 C690 1.249 . S
O705 U686 2.420 . S
O705 C690 1.202 . S
O706 U686 2.455 . S
O706 C703 1.301 . S
O707 U686 2.449 . S
O707 C703 1.282 . S
H708 C681 0.931 . S
H709 C683 0.929 1_554 S
H710 C684 0.930 . S
H711 C685 0.931 . S
H712 C692 0.932 . S
H713 C693 0.930 . S
H714 C694 0.929 . S
H715 C696 0.932 . S
H716 C698 0.932 . S
H717 C699 0.929 . S
H718 C700 0.928 . S
H719 C702 0.932 . S
C720 C721 1.264 . S
C720 C725 1.479 . S
C720 C730 1.465 . S
C721 C720 1.264 . S
C721 C723 1.339 . S
C721 H748 0.931 . S
C722 C723 1.395 . S
C722 C724 1.320 . S
C723 C721 1.339 . S
C723 C722 1.395 . S
C723 H749 0.929 . S
C724 C722 1.320 . S
C724 C725 1.405 . S
C724 H750 0.930 . S
C725 C720 1.479 . S
C725 C724 1.405 . S
C725 H751 0.931 . S
U726 O727 2.454 . S
U726 O728 2.458 . S
U726 C729 2.984 . S
U726 C730 2.847 . S
U726 C743 2.882 . S
U726 O744 2.441 . S
U726 O745 2.420 . S
U726 O746 2.455 . S
U726 O747 2.449 . S
O727 U726 2.454 . S
O727 C729 1.353 . S
O728 U726 2.458 . S
O728 C729 1.286 . S
C729 U726 2.984 . S
C729 O727 1.353 . S
C729 O728 1.286 . S
C729 C731 1.363 . S
C730 C720 1.465 . S
C730 U726 2.847 . S
C730 O744 1.249 . S
C730 O745 1.202 . S
C731 C729 1.363 . S
C731 C733 1.408 . S
C731 C736 1.342 . S
C732 C733 1.310 . S
C732 C735 1.461 . S
C732 H752 0.932 . S
C733 C731 1.408 . S
C733 C732 1.310 . S
C733 H753 0.930 . S
C734 C735 1.474 . S
C734 C736 1.285 . S
C734 H754 0.929 . S
C735 C732 1.461 . S
C735 C734 1.474 . S
C736 C731 1.342 . S
C736 C734 1.285 . S
C736 H755 0.930 . S
C737 C740 1.424 . S
C737 C742 1.245 . S
C737 C743 1.428 . S
C738 C741 1.260 . S
C738 C742 1.477 . S
C738 H756 0.932 . S
C739 C740 1.384 . S
C739 C741 1.479 . S
C739 H757 0.929 . S
C740 C737 1.424 . S
C740 C739 1.384 . S
C740 H758 0.928 . S
C741 C738 1.260 . S
C741 C739 1.479 . S
C742 C737 1.245 . S
C742 C738 1.477 . S
C742 H759 0.932 . S
C743 U726 2.882 . S
C743 C737 1.428 . S
C743 O746 1.301 . S
C743 O747 1.282 . S
O744 U726 2.441 . S
O744 C730 1.249 . S
O745 U726 2.420 . S
O745 C730 1.202 . S
O746 U726 2.455 . S
O746 C743 1.301 . S
O747 U726 2.449 . S
O747 C743 1.282 . S
H748 C721 0.931 . S
H749 C723 0.929 . S
H750 C724 0.930 . S
H751 C725 0.931 . S
H752 C732 0.932 . S
H753 C733 0.930 . S
H754 C734 0.929 . S
H755 C736 0.930 . S
H756 C738 0.932 . S
H757 C739 0.929 . S
H758 C740 0.928 . S
H759 C742 0.932 . S
C760 C761 1.264 . S
C760 C765 1.479 . S
C760 C770 1.465 . S
C761 C760 1.264 . S
C761 C763 1.339 . S
C761 H788 0.931 . S
C762 C763 1.395 . S
C762 C764 1.320 . S
C763 C761 1.339 . S
C763 C762 1.395 . S
C763 H789 0.929 . S
C764 C762 1.320 . S
C764 C765 1.405 . S
C764 H790 0.920 1_556 S
C765 C760 1.479 . S
C765 C764 1.405 . S
C765 H791 0.931 . S
U766 O767 2.454 . S
U766 O768 2.458 . S
U766 C769 2.984 . S
U766 C770 2.847 . S
U766 C783 2.882 . S
U766 O784 2.441 . S
U766 O785 2.420 . S
U766 O786 2.455 . S
U766 O787 2.449 . S
O767 U766 2.454 . S
O767 C769 1.353 . S
O768 U766 2.458 . S
O768 C769 1.286 . S
C769 U766 2.984 . S
C769 O767 1.353 . S
C769 O768 1.286 . S
C769 C771 1.363 . S
C770 C760 1.465 . S
C770 U766 2.847 . S
C770 O784 1.249 . S
C770 O785 1.202 . S
C771 C769 1.363 . S
C771 C773 1.408 . S
C771 C776 1.342 . S
C772 C773 1.310 . S
C772 C775 1.460 . S
C772 H792 0.932 . S
C773 C771 1.408 . S
C773 C772 1.310 . S
C773 H793 0.930 . S
C774 C775 1.475 1_554 S
C774 C776 1.286 1_554 S
C774 H794 0.930 . S
C775 C772 1.460 . S
C775 C774 1.475 1_556 S
C776 C771 1.342 . S
C776 C774 1.286 1_556 S
C776 H795 0.929 . S
C777 C780 1.424 . S
C777 C782 1.245 . S
C777 C783 1.428 . S
C778 C781 1.260 . S
C778 C782 1.477 . S
C778 H796 0.932 . S
C779 C780 1.384 . S
C779 C781 1.479 . S
C779 H797 0.929 . S
C780 C777 1.424 . S
C780 C779 1.384 . S
C780 H798 0.928 . S
C781 C778 1.260 . S
C781 C779 1.479 . S
C782 C777 1.245 . S
C782 C778 1.477 . S
C782 H799 0.932 . S
C783 U766 2.882 . S
C783 C777 1.428 . S
C783 O786 1.301 . S
C783 O787 1.282 . S
O784 U766 2.441 . S
O784 C770 1.249 . S
O785 U766 2.420 . S
O785 C770 1.202 . S
O786 U766 2.455 . S
O786 C783 1.301 . S
O787 U766 2.449 . S
O787 C783 1.282 . S
H788 C761 0.931 . S
H789 C763 0.929 . S
H790 C764 0.920 1_554 S
H791 C765 0.931 . S
H792 C772 0.932 . S
H793 C773 0.930 . S
H794 C774 0.930 . S
H795 C776 0.929 . S
H796 C778 0.932 . S
H797 C779 0.929 . S
H798 C780 0.928 . S
H799 C782 0.932 . S
C800 C801 1.264 . S
C800 C805 1.479 . S
C800 C810 1.465 . S
C801 C800 1.264 . S
C801 C803 1.339 . S
C801 H828 0.931 . S
C802 C803 1.395 . S
C802 C804 1.320 . S
C803 C801 1.339 . S
C803 C802 1.395 . S
C803 H829 0.929 . S
C804 C802 1.320 . S
C804 C805 1.405 . S
C804 H830 0.930 . S
C805 C800 1.479 . S
C805 C804 1.405 . S
C805 H831 0.931 . S
U806 O807 2.454 . S
U806 O808 2.458 . S
U806 C809 2.984 . S
U806 C810 2.847 . S
U806 C823 2.882 . S
U806 O824 2.441 . S
U806 O825 2.420 . S
U806 O826 2.455 . S
U806 O827 2.449 . S
O807 U806 2.454 . S
O807 C809 1.353 . S
O808 U806 2.458 . S
O808 C809 1.286 . S
C809 U806 2.984 . S
C809 O807 1.353 . S
C809 O808 1.286 . S
C809 C811 1.363 . S
C810 C800 1.465 . S
C810 U806 2.847 . S
C810 O824 1.249 . S
C810 O825 1.202 . S
C811 C809 1.363 . S
C811 C813 1.408 . S
C811 C816 1.342 . S
C812 C813 1.310 . S
C812 C815 1.461 . S
C812 H832 0.932 . S
C813 C811 1.408 . S
C813 C812 1.310 . S
C813 H833 0.930 . S
C814 C815 1.474 . S
C814 C816 1.285 . S
C814 H834 0.929 . S
C815 C812 1.461 . S
C815 C814 1.474 . S
C816 C811 1.342 . S
C816 C814 1.285 . S
C816 H835 0.930 . S
C817 C820 1.424 . S
C817 C822 1.245 . S
C817 C823 1.428 . S
C818 C821 1.260 . S
C818 C822 1.477 . S
C818 H836 0.932 . S
C819 C820 1.384 . S
C819 C821 1.479 . S
C819 H837 0.929 . S
C820 C817 1.424 . S
C820 C819 1.384 . S
C820 H838 0.928 . S
C821 C818 1.260 . S
C821 C819 1.479 . S
C822 C817 1.245 . S
C822 C818 1.477 . S
C822 H839 0.932 . S
C823 U806 2.882 . S
C823 C817 1.428 . S
C823 O826 1.301 . S
C823 O827 1.282 . S
O824 U806 2.441 . S
O824 C810 1.249 . S
O825 U806 2.420 . S
O825 C810 1.202 . S
O826 U806 2.455 . S
O826 C823 1.301 . S
O827 U806 2.449 . S
O827 C823 1.282 . S
H828 C801 0.931 . S
H829 C803 0.929 . S
H830 C804 0.930 . S
H831 C805 0.931 . S
H832 C812 0.932 . S
H833 C813 0.930 . S
H834 C814 0.929 . S
H835 C816 0.930 . S
H836 C818 0.932 . S
H837 C819 0.929 . S
H838 C820 0.928 . S
H839 C822 0.932 . S
C840 C841 1.264 . S
C840 C845 1.479 1_455 S
C840 C850 1.465 . S
C841 C840 1.264 . S
C841 C843 1.339 1_455 S
C841 H868 0.931 . S
C842 C843 1.395 . S
C842 C844 1.320 . S
C843 C841 1.339 1_655 S
C843 C842 1.395 . S
C843 H869 0.929 1_655 S
C844 C842 1.320 . S
C844 C845 1.405 . S
C844 H870 0.930 . S
C845 C840 1.479 1_655 S
C845 C844 1.405 . S
C845 H871 0.931 . S
U846 O847 2.454 1_455 S
U846 O848 2.458 . S
U846 C849 2.988 . S
U846 C850 2.847 . S
U846 C863 2.882 . S
U846 O864 2.441 . S
U846 O865 2.420 . S
U846 O866 2.455 . S
U846 O867 2.449 . S
O847 U846 2.454 1_655 S
O847 C849 1.350 1_655 S
O848 U846 2.458 . S
O848 C849 1.290 . S
C849 U846 2.988 . S
C849 O847 1.350 1_455 S
C849 O848 1.290 . S
C849 C851 1.361 1_455 S
C850 C840 1.465 . S
C850 U846 2.847 . S
C850 O864 1.249 . S
C850 O865 1.202 . S
C851 C849 1.361 1_655 S
C851 C853 1.408 . S
C851 C856 1.342 . S
C852 C853 1.310 . S
C852 C855 1.461 . S
C852 H872 0.932 . S
C853 C851 1.408 . S
C853 C852 1.310 . S
C853 H873 0.930 . S
C854 C855 1.474 . S
C854 C856 1.285 . S
C854 H874 0.929 . S
C855 C852 1.461 . S
C855 C854 1.474 . S
C856 C851 1.342 . S
C856 C854 1.285 . S
C856 H875 0.932 . S
C857 C860 1.424 . S
C857 C862 1.245 . S
C857 C863 1.428 . S
C858 C861 1.260 . S
C858 C862 1.477 . S
C858 H876 0.932 . S
C859 C860 1.384 . S
C859 C861 1.479 . S
C859 H877 0.929 . S
C860 C857 1.424 . S
C860 C859 1.384 . S
C860 H878 0.928 . S
C861 C858 1.260 . S
C861 C859 1.479 . S
C862 C857 1.245 . S
C862 C858 1.477 . S
C862 H879 0.932 . S
C863 U846 2.882 . S
C863 C857 1.428 . S
C863 O866 1.301 . S
C863 O867 1.282 . S
O864 U846 2.441 . S
O864 C850 1.249 . S
O865 U846 2.420 . S
O865 C850 1.202 . S
O866 U846 2.455 . S
O866 C863 1.301 . S
O867 U846 2.449 . S
O867 C863 1.282 . S
H868 C841 0.931 . S
H869 C843 0.929 1_455 S
H870 C844 0.930 . S
H871 C845 0.931 . S
H872 C852 0.932 . S
H873 C853 0.930 . S
H874 C854 0.929 . S
H875 C856 0.932 . S
H876 C858 0.932 . S
H877 C859 0.929 . S
H878 C860 0.928 . S
H879 C862 0.932 . S
C880 C881 1.264 . S
C880 C885 1.479 . S
C880 C890 1.465 . S
C881 C880 1.264 . S
C881 C883 1.339 . S
C881 H908 0.931 . S
C882 C883 1.395 . S
C882 C884 1.320 . S
C883 C881 1.339 . S
C883 C882 1.395 . S
C883 H909 0.929 . S
C884 C882 1.320 . S
C884 C885 1.405 . S
C884 H910 0.930 . S
C885 C880 1.479 . S
C885 C884 1.405 . S
C885 H911 0.931 . S
U886 O887 2.454 . S
U886 O888 2.458 . S
U886 C889 2.984 . S
U886 C890 2.847 . S
U886 C903 2.882 . S
U886 O904 2.441 . S
U886 O905 2.420 . S
U886 O906 2.455 . S
U886 O907 2.449 . S
O887 U886 2.454 . S
O887 C889 1.353 . S
O888 U886 2.458 . S
O888 C889 1.286 . S
C889 U886 2.984 . S
C889 O887 1.353 . S
C889 O888 1.286 . S
C889 C891 1.363 . S
C890 C880 1.465 . S
C890 U886 2.847 . S
C890 O904 1.249 . S
C890 O905 1.202 . S
C891 C889 1.363 . S
C891 C893 1.408 . S
C891 C896 1.342 . S
C892 C893 1.310 . S
C892 C895 1.461 . S
C892 H912 0.932 . S
C893 C891 1.408 . S
C893 C892 1.310 . S
C893 H913 0.930 . S
C894 C895 1.474 . S
C894 C896 1.285 . S
C894 H914 0.929 . S
C895 C892 1.461 . S
C895 C894 1.474 . S
C896 C891 1.342 . S
C896 C894 1.285 . S
C896 H915 0.930 . S
C897 C900 1.424 . S
C897 C902 1.245 . S
C897 C903 1.428 . S
C898 C901 1.260 . S
C898 C902 1.477 . S
C898 H916 0.932 . S
C899 C900 1.384 . S
C899 C901 1.479 . S
C899 H917 0.929 . S
C900 C897 1.424 . S
C900 C899 1.384 . S
C900 H918 0.928 . S
C901 C898 1.260 . S
C901 C899 1.479 . S
C902 C897 1.245 . S
C902 C898 1.477 . S
C902 H919 0.932 . S
C903 U886 2.882 . S
C903 C897 1.428 . S
C903 O906 1.301 . S
C903 O907 1.282 . S
O904 U886 2.441 . S
O904 C890 1.249 . S
O905 U886 2.420 . S
O905 C890 1.202 . S
O906 U886 2.455 . S
O906 C903 1.301 . S
O907 U886 2.449 . S
O907 C903 1.282 . S
H908 C881 0.931 . S
H909 C883 0.929 . S
H910 C884 0.930 . S
H911 C885 0.931 . S
H912 C892 0.932 . S
H913 C893 0.930 . S
H914 C894 0.929 . S
H915 C896 0.930 . S
H916 C898 0.932 . S
H917 C899 0.929 . S
H918 C900 0.928 . S
H919 C902 0.932 . S
C920 C921 1.264 . S
C920 C925 1.479 . S
C920 C930 1.465 . S
C921 C920 1.264 . S
C921 C923 1.339 . S
C921 H948 0.931 . S
C922 C923 1.395 . S
C922 C924 1.320 . S
C923 C921 1.339 . S
C923 C922 1.395 . S
C923 H949 0.929 . S
C924 C922 1.320 . S
C924 C925 1.405 . S
C924 H950 0.920 1_655 S
C925 C920 1.479 . S
C925 C924 1.405 . S
C925 H951 0.931 . S
U926 O927 2.454 . S
U926 O928 2.458 . S
U926 C929 2.984 . S
U926 C930 2.847 . S
U926 C943 2.882 . S
U926 O944 2.441 . S
U926 O945 2.420 . S
U926 O946 2.455 . S
U926 O947 2.449 . S
O927 U926 2.454 . S
O927 C929 1.353 . S
O928 U926 2.458 . S
O928 C929 1.286 . S
C929 U926 2.984 . S
C929 O927 1.353 . S
C929 O928 1.286 . S
C929 C931 1.363 . S
C930 C920 1.465 . S
C930 U926 2.847 . S
C930 O944 1.249 . S
C930 O945 1.202 . S
C931 C929 1.363 . S
C931 C933 1.408 . S
C931 C936 1.342 . S
C932 C933 1.310 . S
C932 C935 1.460 . S
C932 H952 0.932 . S
C933 C931 1.408 . S
C933 C932 1.310 . S
C933 H953 0.930 . S
C934 C935 1.475 1_455 S
C934 C936 1.286 1_455 S
C934 H954 0.930 . S
C935 C932 1.460 . S
C935 C934 1.475 1_655 S
C936 C931 1.342 . S
C936 C934 1.286 1_655 S
C936 H955 0.929 . S
C937 C940 1.424 . S
C937 C942 1.245 . S
C937 C943 1.428 . S
C938 C941 1.260 . S
C938 C942 1.477 . S
C938 H956 0.932 . S
C939 C940 1.384 . S
C939 C941 1.479 . S
C939 H957 0.929 . S
C940 C937 1.424 . S
C940 C939 1.384 . S
C940 H958 0.928 . S
C941 C938 1.260 . S
C941 C939 1.479 . S
C942 C937 1.245 . S
C942 C938 1.477 . S
C942 H959 0.932 . S
C943 U926 2.882 . S
C943 C937 1.428 . S
C943 O946 1.301 . S
C943 O947 1.282 . S
O944 U926 2.441 . S
O944 C930 1.249 . S
O945 U926 2.420 . S
O945 C930 1.202 . S
O946 U926 2.455 . S
O946 C943 1.301 . S
O947 U926 2.449 . S
O947 C943 1.282 . S
H948 C921 0.931 . S
H949 C923 0.929 . S
H950 C924 0.920 1_455 S
H951 C925 0.931 . S
H952 C932 0.932 . S
H953 C933 0.930 . S
H954 C934 0.930 . S
H955 C936 0.929 . S
H956 C938 0.932 . S
H957 C939 0.929 . S
H958 C940 0.928 . S
H959 C942 0.932 . S
H960 C963 0.929 . S
H961 C966 0.929 . S
H962 C968 0.930 . S
C963 H960 0.929 . S
C963 C964 1.398 . S
C963 C965 1.396 . S
C964 C963 1.398 . S
C964 C968 1.407 . S
C965 C963 1.396 . S
C965 C966 1.394 . S
C966 H961 0.929 . S
C966 C965 1.394 . S
C966 C967 1.382 . S
C967 C966 1.382 . S
C967 C968 1.392 . S
C967 N969 1.420 . S
C968 H962 0.930 . S
C968 C964 1.407 . S
C968 C967 1.392 . S
N969 C967 1.420 . S
N969 C970 1.244 . S
C970 N969 1.244 . S
H971 C974 0.929 . S
H972 C977 0.929 . S
H973 C979 0.930 . S
C974 H971 0.929 . S
C974 C975 1.398 1_556 S
C974 C976 1.396 . S
C975 C974 1.398 1_554 S
C975 C979 1.407 . S
C976 C974 1.396 . S
C976 C977 1.394 . S
C977 H972 0.929 . S
C977 C976 1.394 . S
C977 C978 1.382 1_556 S
C978 C977 1.382 1_554 S
C978 C979 1.392 . S
C978 N980 1.420 . S
C979 H973 0.930 . S
C979 C975 1.407 . S
C979 C978 1.392 . S
N980 C978 1.420 . S
N980 C981 1.244 . S
C981 N980 1.244 . S
H982 C985 0.929 . S
H983 C988 0.929 . S
H984 C990 0.930 . S
C985 H982 0.929 . S
C985 C986 1.398 . S
C985 C987 1.396 . S
C986 C985 1.398 . S
C986 C990 1.407 . S
C987 C985 1.396 . S
C987 C988 1.394 1_565 S
C988 H983 0.929 . S
C988 C987 1.394 1_545 S
C988 C989 1.382 . S
C989 C988 1.382 . S
C989 C990 1.392 1_545 S
C989 N991 1.420 . S
C990 H984 0.930 . S
C990 C986 1.407 . S
C990 C989 1.392 1_565 S
N991 C989 1.420 . S
N991 C992 1.244 . S
C992 N991 1.244 . S
H993 C996 0.929 . S
H994 C999 0.929 . S
H995 C1001 0.930 . S
C996 H993 0.929 . S
C996 C997 1.398 1_554 S
C996 C998 1.396 . S
C997 C996 1.398 1_556 S
C997 C1001 1.407 . S
C998 C996 1.396 . S
C998 C999 1.394 . S
C999 H994 0.929 . S
C999 C998 1.394 . S
C999 C1000 1.382 1_554 S
C1000 C999 1.382 1_556 S
C1000 C1001 1.392 . S
C1000 N1002 1.420 . S
C1001 H995 0.930 . S
C1001 C997 1.407 . S
C1001 C1000 1.392 . S
N1002 C1000 1.420 . S
N1002 C1003 1.244 . S
C1003 N1002 1.244 . S
H1004 C1007 0.929 . S
H1005 C1010 0.929 . S
H1006 C1012 0.930 . S
C1007 H1004 0.929 . S
C1007 C1008 1.398 . S
C1007 C1009 1.396 . S
C1008 C1007 1.398 . S
C1008 C1012 1.407 . S
C1009 C1007 1.396 . S
C1009 C1010 1.394 . S
C1010 H1005 0.929 . S
C1010 C1009 1.394 . S
C1010 C1011 1.382 . S
C1011 C1010 1.382 . S
C1011 C1012 1.392 . S
C1011 N1013 1.420 . S
C1012 H1006 0.930 . S
C1012 C1008 1.407 . S
C1012 C1011 1.392 . S
N1013 C1011 1.420 . S
N1013 C1014 1.244 . S
C1014 N1013 1.244 . S
H1015 C1018 0.929 . S
H1016 C1021 0.929 . S
H1017 C1023 0.930 . S
C1018 H1015 0.929 . S
C1018 C1019 1.398 1_455 S
C1018 C1020 1.396 . S
C1019 C1018 1.398 1_655 S
C1019 C1023 1.407 . S
C1020 C1018 1.396 . S
C1020 C1021 1.394 . S
C1021 H1016 0.929 . S
C1021 C1020 1.394 . S
C1021 C1022 1.382 1_455 S
C1022 C1021 1.382 1_655 S
C1022 C1023 1.392 . S
C1022 N1024 1.420 . S
C1023 H1017 0.930 . S
C1023 C1019 1.407 . S
C1023 C1022 1.392 . S
N1024 C1022 1.420 . S
N1024 C1025 1.244 . S
C1025 N1024 1.244 . S
H1026 C1029 0.929 . S
H1027 C1032 0.929 . S
H1028 C1034 0.930 . S
C1029 H1026 0.929 . S
C1029 C1030 1.398 1_655 S
C1029 C1031 1.396 . S
C1030 C1029 1.398 1_455 S
C1030 C1034 1.407 . S
C1031 C1029 1.396 . S
C1031 C1032 1.394 . S
C1032 H1027 0.929 . S
C1032 C1031 1.394 . S
C1032 C1033 1.382 1_655 S
C1033 C1032 1.382 1_455 S
C1033 C1034 1.392 . S
C1033 N1035 1.420 . S
C1034 H1028 0.930 . S
C1034 C1030 1.407 . S
C1034 C1033 1.392 . S
N1035 C1033 1.420 . S
N1035 C1036 1.244 . S
C1036 N1035 1.244 . S
H1037 C1040 0.929 . S
H1038 C1043 0.929 . S
H1039 C1045 0.930 . S
C1040 H1037 0.929 . S
C1040 C1041 1.398 . S
C1040 C1042 1.396 . S
C1041 C1040 1.398 . S
C1041 C1045 1.407 . S
C1042 C1040 1.396 . S
C1042 C1043 1.394 1_556 S
C1043 H1038 0.929 . S
C1043 C1042 1.394 1_554 S
C1043 C1044 1.382 . S
C1044 C1043 1.382 . S
C1044 C1045 1.392 1_554 S
C1044 N1046 1.420 . S
C1045 H1039 0.930 . S
C1045 C1041 1.407 . S
C1045 C1044 1.392 1_556 S
N1046 C1044 1.420 . S
N1046 C1047 1.244 . S
C1047 N1046 1.244 . S
H1048 C1051 0.929 . S
H1049 C1054 0.929 . S
H1050 C1056 0.930 . S
C1051 H1048 0.929 . S
C1051 C1052 1.398 . S
C1051 C1053 1.396 . S
C1052 C1051 1.398 . S
C1052 C1056 1.407 . S
C1053 C1051 1.396 . S
C1053 C1054 1.394 . S
C1054 H1049 0.929 . S
C1054 C1053 1.394 . S
C1054 C1055 1.382 . S
C1055 C1054 1.382 . S
C1055 C1056 1.392 . S
C1055 N1057 1.420 . S
C1056 H1050 0.930 . S
C1056 C1052 1.407 . S
C1056 C1055 1.392 . S
N1057 C1055 1.420 . S
N1057 C1058 1.244 . S
C1058 N1057 1.244 . S
H1059 C1062 0.929 . S
H1060 C1065 0.929 . S
H1061 C1067 0.930 . S
C1062 H1059 0.929 . S
C1062 C1063 1.398 1_545 S
C1062 C1064 1.396 . S
C1063 C1062 1.398 1_565 S
C1063 C1067 1.407 . S
C1064 C1062 1.396 . S
C1064 C1065 1.394 . S
C1065 H1060 0.929 . S
C1065 C1064 1.394 . S
C1065 C1066 1.382 1_545 S
C1066 C1065 1.382 1_565 S
C1066 C1067 1.392 . S
C1066 N1068 1.420 . S
C1067 H1061 0.930 . S
C1067 C1063 1.407 . S
C1067 C1066 1.392 . S
N1068 C1066 1.420 . S
N1068 C1069 1.244 . S
C1069 N1068 1.244 . S
H1070 C1073 0.929 . S
H1071 C1076 0.929 . S
H1072 C1078 0.930 . S
C1073 H1070 0.929 . S
C1073 C1074 1.398 1_565 S
C1073 C1075 1.396 . S
C1074 C1073 1.398 1_545 S
C1074 C1078 1.407 . S
C1075 C1073 1.396 . S
C1075 C1076 1.394 . S
C1076 H1071 0.929 . S
C1076 C1075 1.394 . S
C1076 C1077 1.382 1_565 S
C1077 C1076 1.382 1_545 S
C1077 C1078 1.392 . S
C1077 N1079 1.420 . S
C1078 H1072 0.930 . S
C1078 C1074 1.407 . S
C1078 C1077 1.392 . S
N1079 C1077 1.420 . S
N1079 C1080 1.244 . S
C1080 N1079 1.244 . S
H1081 C1084 0.929 . S
H1082 C1087 0.929 . S
H1083 C1089 0.930 . S
C1084 H1081 0.929 . S
C1084 C1085 1.398 . S
C1084 C1086 1.396 . S
C1085 C1084 1.398 . S
C1085 C1089 1.407 . S
C1086 C1084 1.396 . S
C1086 C1087 1.394 1_655 S
C1087 H1082 0.929 . S
C1087 C1086 1.394 1_455 S
C1087 C1088 1.382 . S
C1088 C1087 1.382 . S
C1088 C1089 1.392 1_455 S
C1088 N1090 1.420 . S
C1089 H1083 0.930 . S
C1089 C1085 1.407 . S
C1089 C1088 1.392 1_655 S
N1090 C1088 1.420 . S
N1090 C1091 1.244 . S
C1091 N1090 1.244 . S
H1092 C1095 0.929 . S
H1093 C1098 0.929 . S
H1094 C1100 0.930 . S
C1095 H1092 0.929 . S
C1095 C1096 1.398 . S
C1095 C1097 1.396 . S
C1096 C1095 1.398 . S
C1096 C1100 1.407 . S
C1097 C1095 1.396 . S
C1097 C1098 1.394 . S
C1098 H1093 0.929 . S
C1098 C1097 1.394 . S
C1098 C1099 1.382 . S
C1099 C1098 1.382 . S
C1099 C1100 1.392 . S
C1099 N1101 1.420 . S
C1100 H1094 0.930 . S
C1100 C1096 1.407 . S
C1100 C1099 1.392 . S
N1101 C1099 1.420 . S
N1101 C1102 1.244 . S
C1102 N1101 1.244 . S
H1103 C1106 0.929 . S
H1104 C1109 0.929 . S
H1105 C1111 0.930 . S
C1106 H1103 0.929 . S
C1106 C1107 1.398 1_554 S
C1106 C1108 1.396 . S
C1107 C1106 1.398 1_556 S
C1107 C1111 1.407 . S
C1108 C1106 1.396 . S
C1108 C1109 1.394 . S
C1109 H1104 0.929 . S
C1109 C1108 1.394 . S
C1109 C1110 1.382 1_554 S
C1110 C1109 1.382 1_556 S
C1110 C1111 1.392 . S
C1110 N1112 1.420 . S
C1111 H1105 0.930 . S
C1111 C1107 1.407 . S
C1111 C1110 1.392 . S
N1112 C1110 1.420 . S
N1112 C1113 1.244 . S
C1113 N1112 1.244 . S
H1114 C1117 0.929 . S
H1115 C1120 0.929 . S
H1116 C1122 0.930 . S
C1117 H1114 0.929 . S
C1117 C1118 1.398 . S
C1117 C1119 1.396 . S
C1118 C1117 1.398 . S
C1118 C1122 1.407 . S
C1119 C1117 1.396 . S
C1119 C1120 1.394 1_545 S
C1120 H1115 0.929 . S
C1120 C1119 1.394 1_565 S
C1120 C1121 1.382 . S
C1121 C1120 1.382 . S
C1121 C1122 1.392 1_565 S
C1121 N1123 1.420 . S
C1122 H1116 0.930 . S
C1122 C1118 1.407 . S
C1122 C1121 1.392 1_545 S
N1123 C1121 1.420 . S
N1123 C1124 1.244 . S
C1124 N1123 1.244 . S
H1125 C1128 0.929 . S
H1126 C1131 0.929 . S
H1127 C1133 0.930 . S
C1128 H1125 0.929 . S
C1128 C1129 1.398 1_556 S
C1128 C1130 1.396 . S
C1129 C1128 1.398 1_554 S
C1129 C1133 1.407 . S
C1130 C1128 1.396 . S
C1130 C1131 1.394 . S
C1131 H1126 0.929 . S
C1131 C1130 1.394 . S
C1131 C1132 1.382 1_556 S
C1132 C1131 1.382 1_554 S
C1132 C1133 1.392 . S
C1132 N1134 1.420 . S
C1133 H1127 0.930 . S
C1133 C1129 1.407 . S
C1133 C1132 1.392 . S
N1134 C1132 1.420 . S
N1134 C1135 1.244 . S
C1135 N1134 1.244 . S
H1136 C1139 0.929 . S
H1137 C1142 0.929 . S
H1138 C1144 0.930 . S
C1139 H1136 0.929 . S
C1139 C1140 1.398 . S
C1139 C1141 1.396 . S
C1140 C1139 1.398 . S
C1140 C1144 1.407 . S
C1141 C1139 1.396 . S
C1141 C1142 1.394 . S
C1142 H1137 0.929 . S
C1142 C1141 1.394 . S
C1142 C1143 1.382 . S
C1143 C1142 1.382 . S
C1143 C1144 1.392 . S
C1143 N1145 1.420 . S
C1144 H1138 0.930 . S
C1144 C1140 1.407 . S
C1144 C1143 1.392 . S
N1145 C1143 1.420 . S
N1145 C1146 1.244 . S
C1146 N1145 1.244 . S
H1147 C1150 0.929 . S
H1148 C1153 0.929 . S
H1149 C1155 0.930 . S
C1150 H1147 0.929 . S
C1150 C1151 1.398 1_655 S
C1150 C1152 1.396 . S
C1151 C1150 1.398 1_455 S
C1151 C1155 1.407 . S
C1152 C1150 1.396 . S
C1152 C1153 1.394 . S
C1153 H1148 0.929 . S
C1153 C1152 1.394 . S
C1153 C1154 1.382 1_655 S
C1154 C1153 1.382 1_455 S
C1154 C1155 1.392 . S
C1154 N1156 1.420 . S
C1155 H1149 0.930 . S
C1155 C1151 1.407 . S
C1155 C1154 1.392 . S
N1156 C1154 1.420 . S
N1156 C1157 1.244 . S
C1157 N1156 1.244 . S
H1158 C1161 0.929 . S
H1159 C1164 0.929 . S
H1160 C1166 0.930 . S
C1161 H1158 0.929 . S
C1161 C1162 1.398 1_455 S
C1161 C1163 1.396 . S
C1162 C1161 1.398 1_655 S
C1162 C1166 1.407 . S
C1163 C1161 1.396 . S
C1163 C1164 1.394 . S
C1164 H1159 0.929 . S
C1164 C1163 1.394 . S
C1164 C1165 1.382 1_455 S
C1165 C1164 1.382 1_655 S
C1165 C1166 1.392 . S
C1165 N1167 1.420 . S
C1166 H1160 0.930 . S
C1166 C1162 1.407 . S
C1166 C1165 1.392 . S
N1167 C1165 1.420 . S
N1167 C1168 1.244 . S
C1168 N1167 1.244 . S
H1169 C1172 0.929 . S
H1170 C1175 0.929 . S
H1171 C1177 0.930 . S
C1172 H1169 0.929 . S
C1172 C1173 1.398 . S
C1172 C1174 1.396 . S
C1173 C1172 1.398 . S
C1173 C1177 1.407 . S
C1174 C1172 1.396 . S
C1174 C1175 1.394 1_554 S
C1175 H1170 0.929 . S
C1175 C1174 1.394 1_556 S
C1175 C1176 1.382 . S
C1176 C1175 1.382 . S
C1176 C1177 1.392 1_556 S
C1176 N1178 1.420 . S
C1177 H1171 0.930 . S
C1177 C1173 1.407 . S
C1177 C1176 1.392 1_554 S
N1178 C1176 1.420 . S
N1178 C1179 1.244 . S
C1179 N1178 1.244 . S
H1180 C1183 0.929 . S
H1181 C1186 0.929 . S
H1182 C1188 0.930 . S
C1183 H1180 0.929 . S
C1183 C1184 1.398 . S
C1183 C1185 1.396 . S
C1184 C1183 1.398 . S
C1184 C1188 1.407 . S
C1185 C1183 1.396 . S
C1185 C1186 1.394 . S
C1186 H1181 0.929 . S
C1186 C1185 1.394 . S
C1186 C1187 1.382 . S
C1187 C1186 1.382 . S
C1187 C1188 1.392 . S
C1187 N1189 1.420 . S
C1188 H1182 0.930 . S
C1188 C1184 1.407 . S
C1188 C1187 1.392 . S
N1189 C1187 1.420 . S
N1189 C1190 1.244 . S
C1190 N1189 1.244 . S
H1191 C1194 0.929 . S
H1192 C1197 0.929 . S
H1193 C1199 0.930 . S
C1194 H1191 0.929 . S
C1194 C1195 1.398 1_565 S
C1194 C1196 1.396 . S
C1195 C1194 1.398 1_545 S
C1195 C1199 1.407 . S
C1196 C1194 1.396 . S
C1196 C1197 1.394 . S
C1197 H1192 0.929 . S
C1197 C1196 1.394 . S
C1197 C1198 1.382 1_565 S
C1198 C1197 1.382 1_545 S
C1198 C1199 1.392 . S
C1198 N1200 1.420 . S
C1199 H1193 0.930 . S
C1199 C1195 1.407 . S
C1199 C1198 1.392 . S
N1200 C1198 1.420 . S
N1200 C1201 1.244 . S
C1201 N1200 1.244 . S
H1202 C1205 0.929 . S
H1203 C1208 0.929 . S
H1204 C1210 0.930 . S
C1205 H1202 0.929 . S
C1205 C1206 1.398 1_545 S
C1205 C1207 1.396 . S
C1206 C1205 1.398 1_565 S
C1206 C1210 1.407 . S
C1207 C1205 1.396 . S
C1207 C1208 1.394 . S
C1208 H1203 0.929 . S
C1208 C1207 1.394 . S
C1208 C1209 1.382 1_545 S
C1209 C1208 1.382 1_565 S
C1209 C1210 1.392 . S
C1209 N1211 1.420 . S
C1210 H1204 0.930 . S
C1210 C1206 1.407 . S
C1210 C1209 1.392 . S
N1211 C1209 1.420 . S
N1211 C1212 1.244 . S
C1212 N1211 1.244 . S
H1213 C1216 0.929 . S
H1214 C1219 0.929 . S
H1215 C1221 0.930 . S
C1216 H1213 0.929 . S
C1216 C1217 1.398 . S
C1216 C1218 1.396 . S
C1217 C1216 1.398 . S
C1217 C1221 1.407 . S
C1218 C1216 1.396 . S
C1218 C1219 1.394 1_455 S
C1219 H1214 0.929 . S
C1219 C1218 1.394 1_655 S
C1219 C1220 1.382 . S
C1220 C1219 1.382 . S
C1220 C1221 1.392 1_655 S
C1220 N1222 1.420 . S
C1221 H1215 0.930 . S
C1221 C1217 1.407 . S
C1221 C1220 1.392 1_455 S
N1222 C1220 1.420 . S
N1222 C1223 1.244 . S
C1223 N1222 1.244 . S
C1224 C1225 1.391 . S
C1224 C1226 1.394 . S
C1224 H1240 0.931 . S
C1225 C1224 1.391 . S
C1225 C1229 1.376 . S
C1226 C1224 1.394 . S
C1226 C1227 1.369 . S
C1226 C1230 1.531 . S
C1227 C1226 1.369 . S
C1227 C1228 1.410 . S
C1227 C1235 1.503 . S
C1228 C1227 1.410 . S
C1228 C1229 1.392 . S
C1228 C1231 1.511 . S
C1229 C1225 1.376 . S
C1229 C1228 1.392 . S
C1229 H1241 0.929 . S
C1230 C1226 1.531 . S
C1230 H1242 0.960 . S
C1230 H1243 0.962 . S
C1230 H1244 0.960 . S
C1231 C1228 1.511 . S
C1231 H1245 0.961 . S
C1231 H1246 0.961 . S
C1231 H1247 0.961 . S
C1232 C1233 1.370 . S
C1232 C1234 1.363 . S
C1232 H1248 0.931 . S
C1233 C1232 1.370 . S
C1233 C1237 1.408 . S
C1234 C1232 1.363 . S
C1234 C1235 1.370 . S
C1234 C1238 1.524 . S
C1235 C1227 1.503 . S
C1235 C1234 1.370 . S
C1235 C1236 1.403 . S
C1236 C1235 1.403 . S
C1236 C1237 1.404 . S
C1236 C1239 1.539 . S
C1237 C1233 1.408 . S
C1237 C1236 1.404 . S
C1237 H1249 0.930 . S
C1238 C1234 1.524 . S
C1238 H1250 0.956 . S
C1238 H1251 0.961 . S
C1238 H1252 0.961 . S
C1239 C1236 1.539 . S
C1239 H1253 0.958 . S
C1239 H1254 0.961 . S
C1239 H1255 0.960 . S
H1240 C1224 0.931 . S
H1241 C1229 0.929 . S
H1242 C1230 0.960 . S
H1243 C1230 0.962 . S
H1244 C1230 0.960 . S
H1245 C1231 0.961 . S
H1246 C1231 0.961 . S
H1247 C1231 0.961 . S
H1248 C1232 0.931 . S
H1249 C1237 0.930 . S
H1250 C1238 0.956 . S
H1251 C1238 0.961 . S
H1252 C1238 0.961 . S
H1253 C1239 0.958 . S
H1254 C1239 0.961 . S
H1255 C1239 0.960 . S
C1256 C1257 1.391 . S
C1256 C1258 1.394 . S
C1256 H1272 0.931 . S
C1257 C1256 1.391 . S
C1257 C1261 1.376 . S
C1258 C1256 1.394 . S
C1258 C1259 1.369 . S
C1258 C1262 1.531 . S
C1259 C1258 1.369 . S
C1259 C1260 1.410 . S
C1259 C1267 1.503 . S
C1260 C1259 1.410 . S
C1260 C1261 1.392 . S
C1260 C1263 1.511 . S
C1261 C1257 1.376 . S
C1261 C1260 1.392 . S
C1261 H1273 0.929 . S
C1262 C1258 1.531 . S
C1262 H1274 0.960 . S
C1262 H1275 0.962 . S
C1262 H1276 0.960 . S
C1263 C1260 1.511 . S
C1263 H1277 0.961 . S
C1263 H1278 0.961 . S
C1263 H1279 0.961 . S
C1264 C1265 1.370 . S
C1264 C1266 1.363 . S
C1264 H1280 0.931 . S
C1265 C1264 1.370 . S
C1265 C1269 1.408 . S
C1266 C1264 1.363 . S
C1266 C1267 1.370 . S
C1266 C1270 1.524 . S
C1267 C1259 1.503 . S
C1267 C1266 1.370 . S
C1267 C1268 1.403 . S
C1268 C1267 1.403 . S
C1268 C1269 1.404 . S
C1268 C1271 1.539 . S
C1269 C1265 1.408 . S
C1269 C1268 1.404 . S
C1269 H1281 0.930 . S
C1270 C1266 1.524 . S
C1270 H1282 0.956 . S
C1270 H1283 0.961 . S
C1270 H1284 0.961 . S
C1271 C1268 1.539 . S
C1271 H1285 0.958 . S
C1271 H1286 0.961 . S
C1271 H1287 0.960 . S
H1272 C1256 0.931 . S
H1273 C1261 0.929 . S
H1274 C1262 0.960 . S
H1275 C1262 0.962 . S
H1276 C1262 0.960 . S
H1277 C1263 0.961 . S
H1278 C1263 0.961 . S
H1279 C1263 0.961 . S
H1280 C1264 0.931 . S
H1281 C1269 0.930 . S
H1282 C1270 0.956 . S
H1283 C1270 0.961 . S
H1284 C1270 0.961 . S
H1285 C1271 0.958 . S
H1286 C1271 0.961 . S
H1287 C1271 0.960 . S
C1288 C1289 1.391 1_565 S
C1288 C1290 1.394 . S
C1288 H1304 0.931 . S
C1289 C1288 1.391 1_545 S
C1289 C1293 1.376 . S
C1290 C1288 1.394 . S
C1290 C1291 1.369 . S
C1290 C1294 1.531 . S
C1291 C1290 1.369 . S
C1291 C1292 1.410 1_565 S
C1291 C1299 1.503 . S
C1292 C1291 1.410 1_545 S
C1292 C1293 1.392 . S
C1292 C1295 1.511 . S
C1293 C1289 1.376 . S
C1293 C1292 1.392 . S
C1293 H1305 0.929 . S
C1294 C1290 1.531 . S
C1294 H1306 0.960 . S
C1294 H1307 0.962 . S
C1294 H1308 0.960 . S
C1295 C1292 1.511 . S
C1295 H1309 0.961 . S
C1295 H1310 0.961 . S
C1295 H1311 0.961 . S
C1296 C1297 1.370 . S
C1296 C1298 1.363 . S
C1296 H1312 0.931 . S
C1297 C1296 1.370 . S
C1297 C1301 1.408 . S
C1298 C1296 1.363 . S
C1298 C1299 1.370 . S
C1298 C1302 1.524 . S
C1299 C1291 1.503 . S
C1299 C1298 1.370 . S
C1299 C1300 1.403 1_565 S
C1300 C1299 1.403 1_545 S
C1300 C1301 1.404 1_545 S
C1300 C1303 1.539 . S
C1301 C1297 1.408 . S
C1301 C1300 1.404 1_565 S
C1301 H1313 0.930 1_565 S
C1302 C1298 1.524 . S
C1302 H1314 0.956 . S
C1302 H1315 0.961 . S
C1302 H1316 0.961 . S
C1303 C1300 1.539 . S
C1303 H1317 0.958 . S
C1303 H1318 0.961 . S
C1303 H1319 0.960 . S
H1304 C1288 0.931 . S
H1305 C1293 0.929 . S
H1306 C1294 0.960 . S
H1307 C1294 0.962 . S
H1308 C1294 0.960 . S
H1309 C1295 0.961 . S
H1310 C1295 0.961 . S
H1311 C1295 0.961 . S
H1312 C1296 0.931 . S
H1313 C1301 0.930 1_545 S
H1314 C1302 0.956 . S
H1315 C1302 0.961 . S
H1316 C1302 0.961 . S
H1317 C1303 0.958 . S
H1318 C1303 0.961 . S
H1319 C1303 0.960 . S
C1320 C1321 1.391 . S
C1320 C1322 1.394 . S
C1320 H1336 0.931 . S
C1321 C1320 1.391 . S
C1321 C1325 1.376 . S
C1322 C1320 1.394 . S
C1322 C1323 1.369 . S
C1322 C1326 1.531 . S
C1323 C1322 1.369 . S
C1323 C1324 1.410 . S
C1323 C1331 1.503 . S
C1324 C1323 1.410 . S
C1324 C1325 1.392 . S
C1324 C1327 1.511 . S
C1325 C1321 1.376 . S
C1325 C1324 1.392 . S
C1325 H1337 0.929 . S
C1326 C1322 1.531 . S
C1326 H1338 0.960 . S
C1326 H1339 0.962 . S
C1326 H1340 0.960 . S
C1327 C1324 1.511 . S
C1327 H1341 0.961 . S
C1327 H1342 0.961 . S
C1327 H1343 0.961 . S
C1328 C1329 1.370 1_565 S
C1328 C1330 1.363 1_455 S
C1328 H1344 0.931 . S
C1329 C1328 1.370 1_545 S
C1329 C1333 1.408 . S
C1330 C1328 1.363 1_655 S
C1330 C1331 1.370 1_565 S
C1330 C1334 1.524 . S
C1331 C1323 1.503 . S
C1331 C1330 1.370 1_545 S
C1331 C1332 1.403 . S
C1332 C1331 1.403 . S
C1332 C1333 1.404 1_655 S
C1332 C1335 1.539 . S
C1333 C1329 1.408 . S
C1333 C1332 1.404 1_455 S
C1333 H1345 0.930 . S
C1334 C1330 1.524 . S
C1334 H1346 0.956 . S
C1334 H1347 0.961 . S
C1334 H1348 0.961 . S
C1335 C1332 1.539 . S
C1335 H1349 0.958 . S
C1335 H1350 0.961 1_655 S
C1335 H1351 0.960 . S
H1336 C1320 0.931 . S
H1337 C1325 0.929 . S
H1338 C1326 0.960 . S
H1339 C1326 0.962 . S
H1340 C1326 0.960 . S
H1341 C1327 0.961 . S
H1342 C1327 0.961 . S
H1343 C1327 0.961 . S
H1344 C1328 0.931 . S
H1345 C1333 0.930 . S
H1346 C1334 0.956 . S
H1347 C1334 0.961 . S
H1348 C1334 0.961 . S
H1349 C1335 0.958 . S
H1350 C1335 0.961 1_455 S
H1351 C1335 0.960 . S
C1352 C1353 1.391 . S
C1352 C1354 1.394 . S
C1352 H1368 0.931 . S
C1353 C1352 1.391 . S
C1353 C1357 1.376 . S
C1354 C1352 1.394 . S
C1354 C1355 1.369 . S
C1354 C1358 1.531 . S
C1355 C1354 1.369 . S
C1355 C1356 1.410 . S
C1355 C1363 1.503 . S
C1356 C1355 1.410 . S
C1356 C1357 1.392 . S
C1356 C1359 1.511 . S
C1357 C1353 1.376 . S
C1357 C1356 1.392 . S
C1357 H1369 0.929 . S
C1358 C1354 1.531 . S
C1358 H1370 0.960 . S
C1358 H1371 0.962 . S
C1358 H1372 0.960 . S
C1359 C1356 1.511 . S
C1359 H1373 0.961 . S
C1359 H1374 0.961 . S
C1359 H1375 0.961 . S
C1360 C1361 1.370 . S
C1360 C1362 1.363 . S
C1360 H1376 0.931 . S
C1361 C1360 1.370 . S
C1361 C1365 1.408 . S
C1362 C1360 1.363 . S
C1362 C1363 1.370 . S
C1362 C1366 1.524 . S
C1363 C1355 1.503 . S
C1363 C1362 1.370 . S
C1363 C1364 1.403 . S
C1364 C1363 1.403 . S
C1364 C1365 1.404 . S
C1364 C1367 1.539 . S
C1365 C1361 1.408 . S
C1365 C1364 1.404 . S
C1365 H1377 0.930 . S
C1366 C1362 1.524 . S
C1366 H1378 0.956 . S
C1366 H1379 0.961 . S
C1366 H1380 0.961 . S
C1367 C1364 1.539 . S
C1367 H1381 0.958 . S
C1367 H1382 0.961 . S
C1367 H1383 0.960 . S
H1368 C1352 0.931 . S
H1369 C1357 0.929 . S
H1370 C1358 0.960 . S
H1371 C1358 0.962 . S
H1372 C1358 0.960 . S
H1373 C1359 0.961 . S
H1374 C1359 0.961 . S
H1375 C1359 0.961 . S
H1376 C1360 0.931 . S
H1377 C1365 0.930 . S
H1378 C1366 0.956 . S
H1379 C1366 0.961 . S
H1380 C1366 0.961 . S
H1381 C1367 0.958 . S
H1382 C1367 0.961 . S
H1383 C1367 0.960 . S
C1384 C1385 1.385 1_556 S
C1384 C1386 1.389 . S
C1384 H1400 0.935 . S
C1385 C1384 1.385 1_554 S
C1385 C1389 1.376 . S
C1386 C1384 1.389 . S
C1386 C1387 1.338 1_556 S
C1386 C1390 1.571 . S
C1387 C1386 1.338 1_554 S
C1387 C1388 1.410 . S
C1387 C1395 1.503 . S
C1388 C1387 1.410 . S
C1388 C1389 1.392 . S
C1388 C1391 1.511 . S
C1389 C1385 1.376 . S
C1389 C1388 1.392 . S
C1389 H1401 0.929 . S
C1390 C1386 1.571 . S
C1390 H1402 0.960 . S
C1390 H1403 0.962 . S
C1390 H1404 0.960 . S
C1391 C1388 1.511 . S
C1391 H1405 0.961 . S
C1391 H1406 0.961 . S
C1391 H1407 0.961 . S
C1392 C1393 1.370 . S
C1392 C1394 1.363 1_545 S
C1392 H1408 0.931 . S
C1393 C1392 1.370 . S
C1393 C1397 1.408 1_554 S
C1394 C1392 1.363 1_565 S
C1394 C1395 1.370 . S
C1394 C1398 1.524 . S
C1395 C1387 1.503 . S
C1395 C1394 1.370 . S
C1395 C1396 1.403 1_554 S
C1396 C1395 1.403 1_556 S
C1396 C1397 1.404 1_565 S
C1396 C1399 1.539 . S
C1397 C1393 1.408 1_556 S
C1397 C1396 1.404 1_545 S
C1397 H1409 0.930 . S
C1398 C1394 1.524 . S
C1398 H1410 0.956 . S
C1398 H1411 0.961 . S
C1398 H1412 0.961 . S
C1399 C1396 1.539 . S
C1399 H1413 0.958 . S
C1399 H1414 0.961 . S
C1399 H1415 0.960 . S
H1400 C1384 0.935 . S
H1401 C1389 0.929 . S
H1402 C1390 0.960 . S
H1403 C1390 0.962 . S
H1404 C1390 0.960 . S
H1405 C1391 0.961 . S
H1406 C1391 0.961 . S
H1407 C1391 0.961 . S
H1408 C1392 0.931 . S
H1409 C1397 0.930 . S
H1410 C1398 0.956 . S
H1411 C1398 0.961 . S
H1412 C1398 0.961 . S
H1413 C1399 0.958 . S
H1414 C1399 0.961 . S
H1415 C1399 0.960 . S
C1416 C1417 1.391 . S
C1416 C1418 1.394 . S
C1416 H1432 0.931 . S
C1417 C1416 1.391 . S
C1417 C1421 1.376 . S
C1418 C1416 1.394 . S
C1418 C1419 1.369 . S
C1418 C1422 1.531 . S
C1419 C1418 1.369 . S
C1419 C1420 1.410 . S
C1419 C1427 1.503 . S
C1420 C1419 1.410 . S
C1420 C1421 1.392 . S
C1420 C1423 1.511 . S
C1421 C1417 1.376 . S
C1421 C1420 1.392 . S
C1421 H1433 0.929 . S
C1422 C1418 1.531 . S
C1422 H1434 0.960 . S
C1422 H1435 0.962 . S
C1422 H1436 0.960 . S
C1423 C1420 1.511 . S
C1423 H1437 0.961 . S
C1423 H1438 0.961 . S
C1423 H1439 0.961 . S
C1424 C1425 1.370 . S
C1424 C1426 1.363 . S
C1424 H1440 0.931 . S
C1425 C1424 1.370 . S
C1425 C1429 1.408 . S
C1426 C1424 1.363 . S
C1426 C1427 1.370 . S
C1426 C1430 1.524 . S
C1427 C1419 1.503 . S
C1427 C1426 1.370 . S
C1427 C1428 1.403 . S
C1428 C1427 1.403 . S
C1428 C1429 1.404 . S
C1428 C1431 1.539 . S
C1429 C1425 1.408 . S
C1429 C1428 1.404 . S
C1429 H1441 0.930 . S
C1430 C1426 1.524 . S
C1430 H1442 0.956 . S
C1430 H1443 0.961 . S
C1430 H1444 0.961 . S
C1431 C1428 1.539 . S
C1431 H1445 0.958 . S
C1431 H1446 0.961 . S
C1431 H1447 0.960 . S
H1432 C1416 0.931 . S
H1433 C1421 0.929 . S
H1434 C1422 0.960 . S
H1435 C1422 0.962 . S
H1436 C1422 0.960 . S
H1437 C1423 0.961 . S
H1438 C1423 0.961 . S
H1439 C1423 0.961 . S
H1440 C1424 0.931 . S
H1441 C1429 0.930 . S
H1442 C1430 0.956 . S
H1443 C1430 0.961 . S
H1444 C1430 0.961 . S
H1445 C1431 0.958 . S
H1446 C1431 0.961 . S
H1447 C1431 0.960 . S
C1448 C1449 1.391 . S
C1448 C1450 1.394 . S
C1448 H1464 0.931 . S
C1449 C1448 1.391 . S
C1449 C1453 1.376 1_554 S
C1450 C1448 1.394 . S
C1450 C1451 1.369 1_554 S
C1450 C1454 1.531 . S
C1451 C1450 1.369 1_556 S
C1451 C1452 1.410 . S
C1451 C1459 1.503 . S
C1452 C1451 1.410 . S
C1452 C1453 1.392 . S
C1452 C1455 1.511 . S
C1453 C1449 1.376 1_556 S
C1453 C1452 1.392 . S
C1453 H1465 0.929 . S
C1454 C1450 1.531 . S
C1454 H1466 0.960 . S
C1454 H1467 0.962 . S
C1454 H1468 0.960 . S
C1455 C1452 1.511 . S
C1455 H1469 0.961 . S
C1455 H1470 0.961 . S
C1455 H1471 0.961 . S
C1456 C1457 1.370 . S
C1456 C1458 1.363 . S
C1456 H1472 0.931 . S
C1457 C1456 1.370 . S
C1457 C1461 1.408 1_556 S
C1458 C1456 1.363 . S
C1458 C1459 1.370 . S
C1458 C1462 1.524 . S
C1459 C1451 1.503 . S
C1459 C1458 1.370 . S
C1459 C1460 1.403 1_556 S
C1460 C1459 1.403 1_554 S
C1460 C1461 1.404 . S
C1460 C1463 1.539 . S
C1461 C1457 1.408 1_554 S
C1461 C1460 1.404 . S
C1461 H1473 0.930 . S
C1462 C1458 1.524 . S
C1462 H1474 0.956 . S
C1462 H1475 0.961 . S
C1462 H1476 0.961 . S
C1463 C1460 1.539 . S
C1463 H1477 0.958 . S
C1463 H1478 0.961 . S
C1463 H1479 0.960 . S
H1464 C1448 0.931 . S
H1465 C1453 0.929 . S
H1466 C1454 0.960 . S
H1467 C1454 0.962 . S
H1468 C1454 0.960 . S
H1469 C1455 0.961 . S
H1470 C1455 0.961 . S
H1471 C1455 0.961 . S
H1472 C1456 0.931 . S
H1473 C1461 0.930 . S
H1474 C1462 0.956 . S
H1475 C1462 0.961 . S
H1476 C1462 0.961 . S
H1477 C1463 0.958 . S
H1478 C1463 0.961 . S
H1479 C1463 0.960 . S
C1480 C1481 1.391 . S
C1480 C1482 1.394 . S
C1480 H1496 0.931 . S
C1481 C1480 1.391 . S
C1481 C1485 1.376 . S
C1482 C1480 1.394 . S
C1482 C1483 1.369 . S
C1482 C1486 1.531 . S
C1483 C1482 1.369 . S
C1483 C1484 1.410 . S
C1483 C1491 1.503 . S
C1484 C1483 1.410 . S
C1484 C1485 1.392 . S
C1484 C1487 1.511 . S
C1485 C1481 1.376 . S
C1485 C1484 1.392 . S
C1485 H1497 0.929 . S
C1486 C1482 1.531 . S
C1486 H1498 0.960 . S
C1486 H1499 0.962 . S
C1486 H1500 0.960 . S
C1487 C1484 1.511 . S
C1487 H1501 0.961 . S
C1487 H1502 0.961 . S
C1487 H1503 0.961 . S
C1488 C1489 1.370 . S
C1488 C1490 1.363 . S
C1488 H1504 0.931 . S
C1489 C1488 1.370 . S
C1489 C1493 1.408 . S
C1490 C1488 1.363 . S
C1490 C1491 1.370 . S
C1490 C1494 1.524 . S
C1491 C1483 1.503 . S
C1491 C1490 1.370 . S
C1491 C1492 1.403 . S
C1492 C1491 1.403 . S
C1492 C1493 1.404 . S
C1492 C1495 1.539 . S
C1493 C1489 1.408 . S
C1493 C1492 1.404 . S
C1493 H1505 0.930 . S
C1494 C1490 1.524 . S
C1494 H1506 0.956 . S
C1494 H1507 0.961 . S
C1494 H1508 0.961 . S
C1495 C1492 1.539 . S
C1495 H1509 0.958 . S
C1495 H1510 0.961 . S
C1495 H1511 0.960 . S
H1496 C1480 0.931 . S
H1497 C1485 0.929 . S
H1498 C1486 0.960 . S
H1499 C1486 0.962 . S
H1500 C1486 0.960 . S
H1501 C1487 0.961 . S
H1502 C1487 0.961 . S
H1503 C1487 0.961 . S
H1504 C1488 0.931 . S
H1505 C1493 0.930 . S
H1506 C1494 0.956 . S
H1507 C1494 0.961 . S
H1508 C1494 0.961 . S
H1509 C1495 0.958 . S
H1510 C1495 0.961 . S
H1511 C1495 0.960 . S
C1512 C1513 1.391 . S
C1512 C1514 1.394 . S
C1512 H1528 0.931 . S
C1513 C1512 1.391 . S
C1513 C1517 1.376 1_455 S
C1514 C1512 1.394 . S
C1514 C1515 1.369 . S
C1514 C1518 1.531 . S
C1515 C1514 1.369 . S
C1515 C1516 1.410 1_455 S
C1515 C1523 1.503 . S
C1516 C1515 1.410 1_655 S
C1516 C1517 1.392 . S
C1516 C1519 1.511 . S
C1517 C1513 1.376 1_655 S
C1517 C1516 1.392 . S
C1517 H1529 0.929 . S
C1518 C1514 1.531 . S
C1518 H1530 0.960 . S
C1518 H1531 0.962 . S
C1518 H1532 0.960 . S
C1519 C1516 1.511 . S
C1519 H1533 0.961 . S
C1519 H1534 0.961 . S
C1519 H1535 0.961 . S
C1520 C1521 1.370 . S
C1520 C1522 1.363 1_554 S
C1520 H1536 0.931 . S
C1521 C1520 1.370 . S
C1521 C1525 1.408 . S
C1522 C1520 1.363 1_556 S
C1522 C1523 1.370 . S
C1522 C1526 1.524 . S
C1523 C1515 1.503 . S
C1523 C1522 1.370 . S
C1523 C1524 1.403 . S
C1524 C1523 1.403 . S
C1524 C1525 1.404 1_556 S
C1524 C1527 1.539 1_455 S
C1525 C1521 1.408 . S
C1525 C1524 1.404 1_554 S
C1525 H1537 0.930 1_455 S
C1526 C1522 1.524 . S
C1526 H1538 0.956 . S
C1526 H1539 0.961 . S
C1526 H1540 0.961 . S
C1527 C1524 1.539 1_655 S
C1527 H1541 0.962 . S
C1527 H1542 0.961 . S
C1527 H1543 0.960 . S
H1528 C1512 0.931 . S
H1529 C1517 0.929 . S
H1530 C1518 0.960 . S
H1531 C1518 0.962 . S
H1532 C1518 0.960 . S
H1533 C1519 0.961 . S
H1534 C1519 0.961 . S
H1535 C1519 0.961 . S
H1536 C1520 0.931 . S
H1537 C1525 0.930 1_655 S
H1538 C1526 0.956 . S
H1539 C1526 0.961 . S
H1540 C1526 0.961 . S
H1541 C1527 0.962 . S
H1542 C1527 0.961 . S
H1543 C1527 0.960 . S
C1544 C1545 1.391 . S
C1544 C1546 1.394 . S
C1544 H1560 0.931 . S
C1545 C1544 1.391 . S
C1545 C1549 1.376 . S
C1546 C1544 1.394 . S
C1546 C1547 1.369 . S
C1546 C1550 1.531 . S
C1547 C1546 1.369 . S
C1547 C1548 1.410 . S
C1547 C1555 1.503 . S
C1548 C1547 1.410 . S
C1548 C1549 1.392 . S
C1548 C1551 1.511 . S
C1549 C1545 1.376 . S
C1549 C1548 1.392 . S
C1549 H1561 0.929 . S
C1550 C1546 1.531 . S
C1550 H1562 0.960 . S
C1550 H1563 0.962 . S
C1550 H1564 0.960 . S
C1551 C1548 1.511 . S
C1551 H1565 0.961 . S
C1551 H1566 0.961 . S
C1551 H1567 0.961 . S
C1552 C1553 1.370 . S
C1552 C1554 1.363 . S
C1552 H1568 0.931 . S
C1553 C1552 1.370 . S
C1553 C1557 1.408 . S
C1554 C1552 1.363 . S
C1554 C1555 1.370 . S
C1554 C1558 1.524 . S
C1555 C1547 1.503 . S
C1555 C1554 1.370 . S
C1555 C1556 1.403 . S
C1556 C1555 1.403 . S
C1556 C1557 1.404 . S
C1556 C1559 1.539 . S
C1557 C1553 1.408 . S
C1557 C1556 1.404 . S
C1557 H1569 0.930 . S
C1558 C1554 1.524 . S
C1558 H1570 0.956 . S
C1558 H1571 0.961 . S
C1558 H1572 0.961 . S
C1559 C1556 1.539 . S
C1559 H1573 0.958 . S
C1559 H1574 0.961 . S
C1559 H1575 0.960 . S
H1560 C1544 0.931 . S
H1561 C1549 0.929 . S
H1562 C1550 0.960 . S
H1563 C1550 0.962 . S
H1564 C1550 0.960 . S
H1565 C1551 0.961 . S
H1566 C1551 0.961 . S
H1567 C1551 0.961 . S
H1568 C1552 0.931 . S
H1569 C1557 0.930 . S
H1570 C1558 0.956 . S
H1571 C1558 0.961 . S
H1572 C1558 0.961 . S
H1573 C1559 0.958 . S
H1574 C1559 0.961 . S
H1575 C1559 0.960 . S
C1576 C1577 1.391 1_655 S
C1576 C1578 1.394 . S
C1576 H1592 0.931 . S
C1577 C1576 1.391 1_455 S
C1577 C1581 1.376 . S
C1578 C1576 1.394 . S
C1578 C1579 1.369 . S
C1578 C1582 1.531 . S
C1579 C1578 1.369 . S
C1579 C1580 1.410 1_655 S
C1579 C1587 1.503 . S
C1580 C1579 1.410 1_455 S
C1580 C1581 1.392 . S
C1580 C1583 1.511 . S
C1581 C1577 1.376 . S
C1581 C1580 1.392 . S
C1581 H1593 0.929 . S
C1582 C1578 1.531 . S
C1582 H1594 0.960 . S
C1582 H1595 0.962 . S
C1582 H1596 0.960 . S
C1583 C1580 1.511 . S
C1583 H1597 0.961 . S
C1583 H1598 0.961 . S
C1583 H1599 0.961 . S
C1584 C1585 1.370 . S
C1584 C1586 1.363 . S
C1584 H1600 0.931 . S
C1585 C1584 1.370 . S
C1585 C1589 1.408 1_655 S
C1586 C1584 1.363 . S
C1586 C1587 1.370 . S
C1586 C1590 1.524 . S
C1587 C1579 1.503 . S
C1587 C1586 1.370 . S
C1587 C1588 1.403 1_655 S
C1588 C1587 1.403 1_455 S
C1588 C1589 1.404 . S
C1588 C1591 1.539 . S
C1589 C1585 1.408 1_455 S
C1589 C1588 1.404 . S
C1589 H1601 0.930 . S
C1590 C1586 1.524 . S
C1590 H1602 0.956 . S
C1590 H1603 0.961 . S
C1590 H1604 0.961 . S
C1591 C1588 1.539 . S
C1591 H1605 0.958 . S
C1591 H1606 0.961 . S
C1591 H1607 0.960 . S
H1592 C1576 0.931 . S
H1593 C1581 0.929 . S
H1594 C1582 0.960 . S
H1595 C1582 0.962 . S
H1596 C1582 0.960 . S
H1597 C1583 0.961 . S
H1598 C1583 0.961 . S
H1599 C1583 0.961 . S
H1600 C1584 0.931 . S
H1601 C1589 0.930 . S
H1602 C1590 0.956 . S
H1603 C1590 0.961 . S
H1604 C1590 0.961 . S
H1605 C1591 0.958 . S
H1606 C1591 0.961 . S
H1607 C1591 0.960 . S
C1608 C1609 1.391 . S
C1608 C1610 1.394 . S
C1608 H1624 0.931 . S
C1609 C1608 1.391 . S
C1609 C1613 1.376 . S
C1610 C1608 1.394 . S
C1610 C1611 1.369 . S
C1610 C1614 1.531 . S
C1611 C1610 1.369 . S
C1611 C1612 1.410 . S
C1611 C1619 1.503 . S
C1612 C1611 1.410 . S
C1612 C1613 1.392 . S
C1612 C1615 1.511 . S
C1613 C1609 1.376 . S
C1613 C1612 1.392 . S
C1613 H1625 0.929 . S
C1614 C1610 1.531 . S
C1614 H1626 0.960 . S
C1614 H1627 0.962 . S
C1614 H1628 0.960 . S
C1615 C1612 1.511 . S
C1615 H1629 0.961 . S
C1615 H1630 0.961 . S
C1615 H1631 0.961 . S
C1616 C1617 1.370 . S
C1616 C1618 1.363 . S
C1616 H1632 0.931 . S
C1617 C1616 1.370 . S
C1617 C1621 1.408 . S
C1618 C1616 1.363 . S
C1618 C1619 1.370 . S
C1618 C1622 1.524 . S
C1619 C1611 1.503 . S
C1619 C1618 1.370 . S
C1619 C1620 1.403 . S
C1620 C1619 1.403 . S
C1620 C1621 1.404 . S
C1620 C1623 1.539 . S
C1621 C1617 1.408 . S
C1621 C1620 1.404 . S
C1621 H1633 0.930 . S
C1622 C1618 1.524 . S
C1622 H1634 0.956 . S
C1622 H1635 0.961 . S
C1622 H1636 0.961 . S
C1623 C1620 1.539 . S
C1623 H1637 0.958 . S
C1623 H1638 0.961 . S
C1623 H1639 0.960 . S
H1624 C1608 0.931 . S
H1625 C1613 0.929 . S
H1626 C1614 0.960 . S
H1627 C1614 0.962 . S
H1628 C1614 0.960 . S
H1629 C1615 0.961 . S
H1630 C1615 0.961 . S
H1631 C1615 0.961 . S
H1632 C1616 0.931 . S
H1633 C1621 0.930 . S
H1634 C1622 0.956 . S
H1635 C1622 0.961 . S
H1636 C1622 0.961 . S
H1637 C1623 0.958 . S
H1638 C1623 0.961 . S
H1639 C1623 0.960 . S
C1640 C1641 1.391 . S
C1640 C1642 1.394 . S
C1640 H1656 0.931 . S
C1641 C1640 1.391 . S
C1641 C1645 1.376 . S
C1642 C1640 1.394 . S
C1642 C1643 1.369 . S
C1642 C1646 1.531 . S
C1643 C1642 1.369 . S
C1643 C1644 1.410 . S
C1643 C1651 1.503 . S
C1644 C1643 1.410 . S
C1644 C1645 1.392 . S
C1644 C1647 1.511 . S
C1645 C1641 1.376 . S
C1645 C1644 1.392 . S
C1645 H1657 0.929 . S
C1646 C1642 1.531 . S
C1646 H1658 0.960 . S
C1646 H1659 0.962 . S
C1646 H1660 0.960 . S
C1647 C1644 1.511 . S
C1647 H1661 0.961 . S
C1647 H1662 0.961 . S
C1647 H1663 0.961 . S
C1648 C1649 1.370 . S
C1648 C1650 1.363 . S
C1648 H1664 0.931 . S
C1649 C1648 1.370 . S
C1649 C1653 1.408 . S
C1650 C1648 1.363 . S
C1650 C1651 1.370 . S
C1650 C1654 1.524 . S
C1651 C1643 1.503 . S
C1651 C1650 1.370 . S
C1651 C1652 1.403 . S
C1652 C1651 1.403 . S
C1652 C1653 1.404 . S
C1652 C1655 1.539 . S
C1653 C1649 1.408 . S
C1653 C1652 1.404 . S
C1653 H1665 0.930 . S
C1654 C1650 1.524 . S
C1654 H1666 0.956 . S
C1654 H1667 0.961 . S
C1654 H1668 0.961 . S
C1655 C1652 1.539 . S
C1655 H1669 0.958 . S
C1655 H1670 0.961 . S
C1655 H1671 0.960 . S
H1656 C1640 0.931 . S
H1657 C1645 0.929 . S
H1658 C1646 0.960 . S
H1659 C1646 0.962 . S
H1660 C1646 0.960 . S
H1661 C1647 0.961 . S
H1662 C1647 0.961 . S
H1663 C1647 0.961 . S
H1664 C1648 0.931 . S
H1665 C1653 0.930 . S
H1666 C1654 0.956 . S
H1667 C1654 0.961 . S
H1668 C1654 0.961 . S
H1669 C1655 0.958 . S
H1670 C1655 0.961 . S
H1671 C1655 0.960 . S
C1672 C1673 1.439 . S
C1672 C1674 1.394 . S
C1672 H1688 0.931 . S
C1673 C1672 1.439 . S
C1673 C1677 1.336 1_545 S
C1674 C1672 1.394 . S
C1674 C1675 1.369 . S
C1674 C1678 1.531 . S
C1675 C1674 1.369 . S
C1675 C1676 1.410 1_545 S
C1675 C1683 1.503 . S
C1676 C1675 1.410 1_565 S
C1676 C1677 1.392 . S
C1676 C1679 1.511 . S
C1677 C1673 1.336 1_565 S
C1677 C1676 1.392 . S
C1677 H1689 0.929 . S
C1678 C1674 1.531 . S
C1678 H1690 0.960 . S
C1678 H1691 0.962 . S
C1678 H1692 0.960 . S
C1679 C1676 1.511 . S
C1679 H1693 0.961 . S
C1679 H1694 0.961 . S
C1679 H1695 0.961 . S
C1680 C1681 1.370 . S
C1680 C1682 1.363 . S
C1680 H1696 0.931 . S
C1681 C1680 1.370 . S
C1681 C1685 1.408 . S
C1682 C1680 1.363 . S
C1682 C1683 1.370 . S
C1682 C1686 1.524 1_545 S
C1683 C1675 1.503 . S
C1683 C1682 1.370 . S
C1683 C1684 1.403 . S
C1684 C1683 1.403 . S
C1684 C1685 1.404 . S
C1684 C1687 1.539 . S
C1685 C1681 1.408 . S
C1685 C1684 1.404 . S
C1685 H1697 0.930 . S
C1686 C1682 1.524 1_565 S
C1686 H1698 0.956 1_565 S
C1686 H1699 0.961 . S
C1686 H1700 0.961 . S
C1687 C1684 1.539 . S
C1687 H1701 0.958 . S
C1687 H1702 0.961 . S
C1687 H1703 0.960 . S
H1688 C1672 0.931 . S
H1689 C1677 0.929 . S
H1690 C1678 0.960 . S
H1691 C1678 0.962 . S
H1692 C1678 0.960 . S
H1693 C1679 0.961 . S
H1694 C1679 0.961 . S
H1695 C1679 0.961 . S
H1696 C1680 0.931 . S
H1697 C1685 0.930 . S
H1698 C1686 0.956 1_545 S
H1699 C1686 0.961 . S
H1700 C1686 0.961 . S
H1701 C1687 0.958 . S
H1702 C1687 0.961 . S
H1703 C1687 0.960 . S
C1704 C1705 1.391 . S
C1704 C1706 1.394 . S
C1704 H1720 0.931 1_565 S
C1705 C1704 1.391 . S
C1705 C1709 1.376 . S
C1706 C1704 1.394 . S
C1706 C1707 1.369 . S
C1706 C1710 1.531 1_565 S
C1707 C1706 1.369 . S
C1707 C1708 1.410 . S
C1707 C1715 1.503 . S
C1708 C1707 1.410 . S
C1708 C1709 1.392 . S
C1708 C1711 1.511 . S
C1709 C1705 1.376 . S
C1709 C1708 1.392 . S
C1709 H1721 0.929 . S
C1710 C1706 1.531 1_545 S
C1710 H1722 0.960 . S
C1710 H1723 0.962 1_545 S
C1710 H1724 0.960 . S
C1711 C1708 1.511 . S
C1711 H1725 0.961 . S
C1711 H1726 0.961 . S
C1711 H1727 0.961 . S
C1712 C1713 1.370 . S
C1712 C1714 1.363 1_655 S
C1712 H1728 0.931 . S
C1713 C1712 1.370 . S
C1713 C1717 1.408 1_565 S
C1714 C1712 1.363 1_455 S
C1714 C1715 1.370 . S
C1714 C1718 1.524 . S
C1715 C1707 1.503 . S
C1715 C1714 1.370 . S
C1715 C1716 1.403 1_565 S
C1716 C1715 1.403 1_545 S
C1716 C1717 1.404 1_455 S
C1716 C1719 1.539 . S
C1717 C1713 1.408 1_545 S
C1717 C1716 1.404 1_655 S
C1717 H1729 0.930 . S
C1718 C1714 1.524 . S
C1718 H1730 0.956 . S
C1718 H1731 0.961 . S
C1718 H1732 0.961 . S
C1719 C1716 1.539 . S
C1719 H1733 0.958 . S
C1719 H1734 0.961 . S
C1719 H1735 0.960 . S
H1720 C1704 0.931 1_545 S
H1721 C1709 0.929 . S
H1722 C1710 0.960 . S
H1723 C1710 0.962 1_565 S
H1724 C1710 0.960 . S
H1725 C1711 0.961 . S
H1726 C1711 0.961 . S
H1727 C1711 0.961 . S
H1728 C1712 0.931 . S
H1729 C1717 0.930 . S
H1730 C1718 0.956 . S
H1731 C1718 0.961 . S
H1732 C1718 0.961 . S
H1733 C1719 0.958 . S
H1734 C1719 0.961 . S
H1735 C1719 0.960 . S
C1736 C1737 1.391 . S
C1736 C1738 1.394 . S
C1736 H1752 0.931 . S
C1737 C1736 1.391 . S
C1737 C1741 1.376 . S
C1738 C1736 1.394 . S
C1738 C1739 1.369 . S
C1738 C1742 1.531 . S
C1739 C1738 1.369 . S
C1739 C1740 1.410 . S
C1739 C1747 1.503 . S
C1740 C1739 1.410 . S
C1740 C1741 1.392 . S
C1740 C1743 1.511 . S
C1741 C1737 1.376 . S
C1741 C1740 1.392 . S
C1741 H1753 0.929 . S
C1742 C1738 1.531 . S
C1742 H1754 0.960 . S
C1742 H1755 0.962 . S
C1742 H1756 0.960 . S
C1743 C1740 1.511 . S
C1743 H1757 0.961 . S
C1743 H1758 0.961 . S
C1743 H1759 0.961 . S
C1744 C1745 1.370 . S
C1744 C1746 1.363 . S
C1744 H1760 0.931 . S
C1745 C1744 1.370 . S
C1745 C1749 1.408 . S
C1746 C1744 1.363 . S
C1746 C1747 1.370 . S
C1746 C1750 1.524 . S
C1747 C1739 1.503 . S
C1747 C1746 1.370 . S
C1747 C1748 1.403 . S
C1748 C1747 1.403 . S
C1748 C1749 1.404 . S
C1748 C1751 1.539 . S
C1749 C1745 1.408 . S
C1749 C1748 1.404 . S
C1749 H1761 0.930 . S
C1750 C1746 1.524 . S
C1750 H1762 0.956 . S
C1750 H1763 0.961 . S
C1750 H1764 0.961 . S
C1751 C1748 1.539 . S
C1751 H1765 0.958 . S
C1751 H1766 0.961 . S
C1751 H1767 0.960 . S
H1752 C1736 0.931 . S
H1753 C1741 0.929 . S
H1754 C1742 0.960 . S
H1755 C1742 0.962 . S
H1756 C1742 0.960 . S
H1757 C1743 0.961 . S
H1758 C1743 0.961 . S
H1759 C1743 0.961 . S
H1760 C1744 0.931 . S
H1761 C1749 0.930 . S
H1762 C1750 0.956 . S
H1763 C1750 0.961 . S
H1764 C1750 0.961 . S
H1765 C1751 0.958 . S
H1766 C1751 0.961 . S
H1767 C1751 0.960 . S
C1768 C1769 1.391 . S
C1768 C1770 1.394 . S
C1768 H1784 0.931 1_556 S
C1769 C1768 1.391 . S
C1769 C1773 1.376 . S
C1770 C1768 1.394 . S
C1770 C1771 1.369 . S
C1770 C1774 1.531 1_556 S
C1771 C1770 1.369 . S
C1771 C1772 1.410 . S
C1771 C1779 1.503 . S
C1772 C1771 1.410 . S
C1772 C1773 1.392 . S
C1772 C1775 1.511 . S
C1773 C1769 1.376 . S
C1773 C1772 1.392 . S
C1773 H1785 0.929 . S
C1774 C1770 1.531 1_554 S
C1774 H1786 0.960 . S
C1774 H1787 0.962 . S
C1774 H1788 0.960 . S
C1775 C1772 1.511 . S
C1775 H1789 0.961 . S
C1775 H1790 0.961 . S
C1775 H1791 0.961 . S
C1776 C1777 1.370 . S
C1776 C1778 1.363 1_565 S
C1776 H1792 0.931 1_556 S
C1777 C1776 1.370 . S
C1777 C1781 1.408 . S
C1778 C1776 1.363 1_545 S
C1778 C1779 1.370 . S
C1778 C1782 1.524 1_556 S
C1779 C1771 1.503 . S
C1779 C1778 1.370 . S
C1779 C1780 1.421 . S
C1780 C1779 1.421 . S
C1780 C1781 1.373 1_545 S
C1780 C1783 1.551 . S
C1781 C1777 1.408 . S
C1781 C1780 1.373 1_565 S
C1781 H1793 0.930 . S
C1782 C1778 1.524 1_554 S
C1782 H1794 0.956 . S
C1782 H1795 0.961 . S
C1782 H1796 0.961 . S
C1783 C1780 1.551 . S
C1783 H1797 0.958 . S
C1783 H1798 0.961 1_545 S
C1783 H1799 0.960 . S
H1784 C1768 0.931 1_554 S
H1785 C1773 0.929 . S
H1786 C1774 0.960 . S
H1787 C1774 0.962 . S
H1788 C1774 0.960 . S
H1789 C1775 0.961 . S
H1790 C1775 0.961 . S
H1791 C1775 0.961 . S
H1792 C1776 0.931 1_554 S
H1793 C1781 0.930 . S
H1794 C1782 0.956 . S
H1795 C1782 0.961 . S
H1796 C1782 0.961 . S
H1797 C1783 0.958 . S
H1798 C1783 0.961 1_565 S
H1799 C1783 0.960 . S
C1800 C1801 1.391 . S
C1800 C1802 1.394 . S
C1800 H1816 0.931 . S
C1801 C1800 1.391 . S
C1801 C1805 1.376 . S
C1802 C1800 1.394 . S
C1802 C1803 1.369 . S
C1802 C1806 1.531 . S
C1803 C1802 1.369 . S
C1803 C1804 1.410 . S
C1803 C1811 1.503 . S
C1804 C1803 1.410 . S
C1804 C1805 1.392 . S
C1804 C1807 1.511 . S
C1805 C1801 1.376 . S
C1805 C1804 1.392 . S
C1805 H1817 0.929 . S
C1806 C1802 1.531 . S
C1806 H1818 0.960 . S
C1806 H1819 0.962 . S
C1806 H1820 0.960 . S
C1807 C1804 1.511 . S
C1807 H1821 0.961 . S
C1807 H1822 0.961 . S
C1807 H1823 0.961 . S
C1808 C1809 1.370 . S
C1808 C1810 1.363 . S
C1808 H1824 0.931 . S
C1809 C1808 1.370 . S
C1809 C1813 1.408 . S
C1810 C1808 1.363 . S
C1810 C1811 1.370 . S
C1810 C1814 1.524 . S
C1811 C1803 1.503 . S
C1811 C1810 1.370 . S
C1811 C1812 1.403 . S
C1812 C1811 1.403 . S
C1812 C1813 1.404 . S
C1812 C1815 1.539 . S
C1813 C1809 1.408 . S
C1813 C1812 1.404 . S
C1813 H1825 0.930 . S
C1814 C1810 1.524 . S
C1814 H1826 0.956 . S
C1814 H1827 0.961 . S
C1814 H1828 0.961 . S
C1815 C1812 1.539 . S
C1815 H1829 0.958 . S
C1815 H1830 0.961 . S
C1815 H1831 0.960 . S
H1816 C1800 0.931 . S
H1817 C1805 0.929 . S
H1818 C1806 0.960 . S
H1819 C1806 0.962 . S
H1820 C1806 0.960 . S
H1821 C1807 0.961 . S
H1822 C1807 0.961 . S
H1823 C1807 0.961 . S
H1824 C1808 0.931 . S
H1825 C1813 0.930 . S
H1826 C1814 0.956 . S
H1827 C1814 0.961 . S
H1828 C1814 0.961 . S
H1829 C1815 0.958 . S
H1830 C1815 0.961 . S
H1831 C1815 0.960 . S
C1832 C1833 1.391 1_556 S
C1832 C1834 1.394 . S
C1832 H1848 0.931 . S
C1833 C1832 1.391 1_554 S
C1833 C1837 1.376 . S
C1834 C1832 1.394 . S
C1834 C1835 1.369 1_556 S
C1834 C1838 1.531 . S
C1835 C1834 1.369 1_554 S
C1835 C1836 1.410 . S
C1835 C1843 1.503 . S
C1836 C1835 1.410 . S
C1836 C1837 1.392 . S
C1836 C1839 1.511 . S
C1837 C1833 1.376 . S
C1837 C1836 1.392 . S
C1837 H1849 0.929 . S
C1838 C1834 1.531 . S
C1838 H1850 0.960 . S
C1838 H1851 0.962 . S
C1838 H1852 0.960 . S
C1839 C1836 1.511 . S
C1839 H1853 0.961 . S
C1839 H1854 0.961 . S
C1839 H1855 0.961 . S
C1840 C1841 1.370 . S
C1840 C1842 1.364 . S
C1840 H1856 0.931 1_554 S
C1841 C1840 1.370 . S
C1841 C1845 1.408 . S
C1842 C1840 1.364 . S
C1842 C1843 1.381 . S
C1842 C1846 1.513 1_554 S
C1843 C1835 1.503 . S
C1843 C1842 1.381 . S
C1843 C1844 1.403 . S
C1844 C1843 1.403 . S
C1844 C1845 1.404 . S
C1844 C1847 1.539 . S
C1845 C1841 1.408 . S
C1845 C1844 1.404 . S
C1845 H1857 0.930 . S
C1846 C1842 1.513 1_556 S
C1846 H1858 0.956 . S
C1846 H1859 0.961 . S
C1846 H1860 0.961 . S
C1847 C1844 1.539 . S
C1847 H1861 0.958 . S
C1847 H1862 0.961 . S
C1847 H1863 0.960 . S
H1848 C1832 0.931 . S
H1849 C1837 0.929 . S
H1850 C1838 0.960 . S
H1851 C1838 0.962 . S
H1852 C1838 0.960 . S
H1853 C1839 0.961 . S
H1854 C1839 0.961 . S
H1855 C1839 0.961 . S
H1856 C1840 0.931 1_556 S
H1857 C1845 0.930 . S
H1858 C1846 0.956 . S
H1859 C1846 0.961 . S
H1860 C1846 0.961 . S
H1861 C1847 0.958 . S
H1862 C1847 0.961 . S
H1863 C1847 0.960 . S
C1864 C1865 1.391 . S
C1864 C1866 1.394 . S
C1864 H1880 0.931 . S
C1865 C1864 1.391 . S
C1865 C1869 1.376 . S
C1866 C1864 1.394 . S
C1866 C1867 1.369 . S
C1866 C1870 1.531 . S
C1867 C1866 1.369 . S
C1867 C1868 1.410 . S
C1867 C1875 1.503 . S
C1868 C1867 1.410 . S
C1868 C1869 1.392 . S
C1868 C1871 1.511 . S
C1869 C1865 1.376 . S
C1869 C1868 1.392 . S
C1869 H1881 0.929 . S
C1870 C1866 1.531 . S
C1870 H1882 0.960 . S
C1870 H1883 0.962 . S
C1870 H1884 0.960 . S
C1871 C1868 1.511 . S
C1871 H1885 0.961 . S
C1871 H1886 0.961 . S
C1871 H1887 0.961 . S
C1872 C1873 1.370 . S
C1872 C1874 1.363 . S
C1872 H1888 0.931 . S
C1873 C1872 1.370 . S
C1873 C1877 1.408 . S
C1874 C1872 1.363 . S
C1874 C1875 1.370 . S
C1874 C1878 1.524 . S
C1875 C1867 1.503 . S
C1875 C1874 1.370 . S
C1875 C1876 1.403 . S
C1876 C1875 1.403 . S
C1876 C1877 1.404 . S
C1876 C1879 1.539 . S
C1877 C1873 1.408 . S
C1877 C1876 1.404 . S
C1877 H1889 0.930 . S
C1878 C1874 1.524 . S
C1878 H1890 0.956 . S
C1878 H1891 0.961 . S
C1878 H1892 0.961 . S
C1879 C1876 1.539 . S
C1879 H1893 0.958 . S
C1879 H1894 0.961 . S
C1879 H1895 0.960 . S
H1880 C1864 0.931 . S
H1881 C1869 0.929 . S
H1882 C1870 0.960 . S
H1883 C1870 0.962 . S
H1884 C1870 0.960 . S
H1885 C1871 0.961 . S
H1886 C1871 0.961 . S
H1887 C1871 0.961 . S
H1888 C1872 0.931 . S
H1889 C1877 0.930 . S
H1890 C1878 0.956 . S
H1891 C1878 0.961 . S
H1892 C1878 0.961 . S
H1893 C1879 0.958 . S
H1894 C1879 0.961 . S
H1895 C1879 0.960 . S
C1896 C1897 1.391 . S
C1896 C1898 1.394 . S
C1896 H1912 0.931 1_655 S
C1897 C1896 1.391 . S
C1897 C1901 1.376 . S
C1898 C1896 1.394 . S
C1898 C1899 1.369 . S
C1898 C1902 1.531 1_655 S
C1899 C1898 1.369 . S
C1899 C1900 1.410 . S
C1899 C1907 1.503 . S
C1900 C1899 1.410 . S
C1900 C1901 1.392 . S
C1900 C1903 1.511 . S
C1901 C1897 1.376 . S
C1901 C1900 1.392 . S
C1901 H1913 0.929 . S
C1902 C1898 1.531 1_455 S
C1902 H1914 0.960 1_455 S
C1902 H1915 0.962 . S
C1902 H1916 0.960 . S
C1903 C1900 1.511 . S
C1903 H1917 0.961 . S
C1903 H1918 0.961 . S
C1903 H1919 0.961 . S
C1904 C1905 1.351 1_455 S
C1904 C1906 1.358 1_456 S
C1904 H1920 0.955 . S
C1905 C1904 1.351 1_655 S
C1905 C1909 1.408 . S
C1906 C1904 1.358 1_654 S
C1906 C1907 1.384 . S
C1906 C1910 1.513 1_655 S
C1907 C1899 1.503 . S
C1907 C1906 1.384 . S
C1907 C1908 1.432 . S
C1908 C1907 1.432 . S
C1908 C1909 1.355 1_554 S
C1908 C1911 1.559 . S
C1909 C1905 1.408 . S
C1909 C1908 1.355 1_556 S
C1909 H1921 0.930 . S
C1910 C1906 1.513 1_455 S
C1910 H1922 0.956 . S
C1910 H1923 0.961 . S
C1910 H1924 0.961 . S
C1911 C1908 1.559 . S
C1911 H1925 0.958 . S
C1911 H1926 0.961 1_554 S
C1911 H1927 0.960 . S
H1912 C1896 0.931 1_455 S
H1913 C1901 0.929 . S
H1914 C1902 0.960 1_655 S
H1915 C1902 0.962 . S
H1916 C1902 0.960 . S
H1917 C1903 0.961 . S
H1918 C1903 0.961 . S
H1919 C1903 0.961 . S
H1920 C1904 0.955 . S
H1921 C1909 0.930 . S
H1922 C1910 0.956 . S
H1923 C1910 0.961 . S
H1924 C1910 0.961 . S
H1925 C1911 0.958 . S
H1926 C1911 0.961 1_556 S
H1927 C1911 0.960 . S
C1928 C1929 1.391 . S
C1928 C1930 1.394 . S
C1928 H1944 0.931 . S
C1929 C1928 1.391 . S
C1929 C1933 1.376 . S
C1930 C1928 1.394 . S
C1930 C1931 1.369 . S
C1930 C1934 1.531 . S
C1931 C1930 1.369 . S
C1931 C1932 1.410 . S
C1931 C1939 1.503 . S
C1932 C1931 1.410 . S
C1932 C1933 1.392 . S
C1932 C1935 1.511 . S
C1933 C1929 1.376 . S
C1933 C1932 1.392 . S
C1933 H1945 0.929 . S
C1934 C1930 1.531 . S
C1934 H1946 0.960 . S
C1934 H1947 0.962 . S
C1934 H1948 0.960 . S
C1935 C1932 1.511 . S
C1935 H1949 0.961 . S
C1935 H1950 0.961 . S
C1935 H1951 0.961 . S
C1936 C1937 1.370 . S
C1936 C1938 1.363 . S
C1936 H1952 0.931 . S
C1937 C1936 1.370 . S
C1937 C1941 1.408 . S
C1938 C1936 1.363 . S
C1938 C1939 1.370 . S
C1938 C1942 1.524 . S
C1939 C1931 1.503 . S
C1939 C1938 1.370 . S
C1939 C1940 1.403 . S
C1940 C1939 1.403 . S
C1940 C1941 1.404 . S
C1940 C1943 1.539 . S
C1941 C1937 1.408 . S
C1941 C1940 1.404 . S
C1941 H1953 0.930 . S
C1942 C1938 1.524 . S
C1942 H1954 0.956 . S
C1942 H1955 0.961 . S
C1942 H1956 0.961 . S
C1943 C1940 1.539 . S
C1943 H1957 0.958 . S
C1943 H1958 0.961 . S
C1943 H1959 0.960 . S
H1944 C1928 0.931 . S
H1945 C1933 0.929 . S
H1946 C1934 0.960 . S
H1947 C1934 0.962 . S
H1948 C1934 0.960 . S
H1949 C1935 0.961 . S
H1950 C1935 0.961 . S
H1951 C1935 0.961 . S
H1952 C1936 0.931 . S
H1953 C1941 0.930 . S
H1954 C1942 0.956 . S
H1955 C1942 0.961 . S
H1956 C1942 0.961 . S
H1957 C1943 0.958 . S
H1958 C1943 0.961 . S
H1959 C1943 0.960 . S
C1960 C1961 1.365 1_655 S
C1960 C1962 1.394 . S
C1960 H1976 0.931 . S
C1961 C1960 1.365 1_455 S
C1961 C1965 1.407 . S
C1962 C1960 1.394 . S
C1962 C1963 1.369 1_655 S
C1962 C1966 1.531 . S
C1963 C1962 1.369 1_455 S
C1963 C1964 1.410 . S
C1963 C1971 1.503 . S
C1964 C1963 1.410 . S
C1964 C1965 1.392 . S
C1964 C1967 1.511 . S
C1965 C1961 1.407 . S
C1965 C1964 1.392 . S
C1965 H1977 0.929 . S
C1966 C1962 1.531 . S
C1966 H1978 0.960 . S
C1966 H1979 0.962 . S
C1966 H1980 0.960 . S
C1967 C1964 1.511 . S
C1967 H1981 0.961 . S
C1967 H1982 0.961 . S
C1967 H1983 0.961 . S
C1968 C1969 1.370 . S
C1968 C1970 1.363 . S
C1968 H1984 0.931 . S
C1969 C1968 1.370 . S
C1969 C1973 1.408 . S
C1970 C1968 1.363 . S
C1970 C1971 1.370 . S
C1970 C1974 1.524 1_455 S
C1971 C1963 1.503 . S
C1971 C1970 1.370 . S
C1971 C1972 1.403 . S
C1972 C1971 1.403 . S
C1972 C1973 1.404 . S
C1972 C1975 1.539 . S
C1973 C1969 1.408 . S
C1973 C1972 1.404 . S
C1973 H1985 0.930 . S
C1974 C1970 1.524 1_655 S
C1974 H1986 0.956 . S
C1974 H1987 0.961 1_655 S
C1974 H1988 0.961 . S
C1975 C1972 1.539 . S
C1975 H1989 0.958 . S
C1975 H1990 0.961 . S
C1975 H1991 0.960 . S
H1976 C1960 0.931 . S
H1977 C1965 0.929 . S
H1978 C1966 0.960 . S
H1979 C1966 0.962 . S
H1980 C1966 0.960 . S
H1981 C1967 0.961 . S
H1982 C1967 0.961 . S
H1983 C1967 0.961 . S
H1984 C1968 0.931 . S
H1985 C1973 0.930 . S
H1986 C1974 0.956 . S
H1987 C1974 0.961 1_455 S
H1988 C1974 0.961 . S
H1989 C1975 0.958 . S
H1990 C1975 0.961 . S
H1991 C1975 0.960 . S
C1992 C1993 1.391 . S
C1992 C1994 1.394 . S
C1992 H2008 0.931 . S
C1993 C1992 1.391 . S
C1993 C1997 1.376 . S
C1994 C1992 1.394 . S
C1994 C1995 1.369 . S
C1994 C1998 1.531 . S
C1995 C1994 1.369 . S
C1995 C1996 1.410 . S
C1995 C2003 1.503 . S
C1996 C1995 1.410 . S
C1996 C1997 1.392 . S
C1996 C1999 1.511 . S
C1997 C1993 1.376 . S
C1997 C1996 1.392 . S
C1997 H2009 0.929 . S
C1998 C1994 1.531 . S
C1998 H2010 0.960 . S
C1998 H2011 0.962 . S
C1998 H2012 0.960 . S
C1999 C1996 1.511 . S
C1999 H2013 0.961 . S
C1999 H2014 0.961 . S
C1999 H2015 0.961 . S
C2000 C2001 1.370 . S
C2000 C2002 1.363 . S
C2000 H2016 0.931 . S
C2001 C2000 1.370 . S
C2001 C2005 1.408 . S
C2002 C2000 1.363 . S
C2002 C2003 1.370 . S
C2002 C2006 1.524 . S
C2003 C1995 1.503 . S
C2003 C2002 1.370 . S
C2003 C2004 1.403 . S
C2004 C2003 1.403 . S
C2004 C2005 1.404 . S
C2004 C2007 1.539 . S
C2005 C2001 1.408 . S
C2005 C2004 1.404 . S
C2005 H2017 0.930 . S
C2006 C2002 1.524 . S
C2006 H2018 0.956 . S
C2006 H2019 0.961 . S
C2006 H2020 0.961 . S
C2007 C2004 1.539 . S
C2007 H2021 0.958 . S
C2007 H2022 0.961 . S
C2007 H2023 0.960 . S
H2008 C1992 0.931 . S
H2009 C1997 0.929 . S
H2010 C1998 0.960 . S
H2011 C1998 0.962 . S
H2012 C1998 0.960 . S
H2013 C1999 0.961 . S
H2014 C1999 0.961 . S
H2015 C1999 0.961 . S
H2016 C2000 0.931 . S
H2017 C2005 0.930 . S
H2018 C2006 0.956 . S
H2019 C2006 0.961 . S
H2020 C2006 0.961 . S
H2021 C2007 0.958 . S
H2022 C2007 0.961 . S
H2023 C2007 0.960 . S
C2024 C2025 1.391 . S
C2024 C2026 1.394 . S
C2024 H2040 0.931 . S
C2025 C2024 1.391 . S
C2025 C2029 1.376 . S
C2026 C2024 1.394 . S
C2026 C2027 1.369 . S
C2026 C2030 1.531 . S
C2027 C2026 1.369 . S
C2027 C2028 1.410 . S
C2027 C2035 1.503 . S
C2028 C2027 1.410 . S
C2028 C2029 1.392 . S
C2028 C2031 1.511 . S
C2029 C2025 1.376 . S
C2029 C2028 1.392 . S
C2029 H2041 0.929 . S
C2030 C2026 1.531 . S
C2030 H2042 0.960 . S
C2030 H2043 0.962 . S
C2030 H2044 0.960 . S
C2031 C2028 1.511 . S
C2031 H2045 0.961 . S
C2031 H2046 0.961 . S
C2031 H2047 0.961 . S
C2032 C2033 1.370 . S
C2032 C2034 1.363 . S
C2032 H2048 0.931 . S
C2033 C2032 1.370 . S
C2033 C2037 1.408 . S
C2034 C2032 1.363 . S
C2034 C2035 1.370 . S
C2034 C2038 1.524 . S
C2035 C2027 1.503 . S
C2035 C2034 1.370 . S
C2035 C2036 1.403 . S
C2036 C2035 1.403 . S
C2036 C2037 1.404 . S
C2036 C2039 1.539 . S
C2037 C2033 1.408 . S
C2037 C2036 1.404 . S
C2037 H2049 0.930 . S
C2038 C2034 1.524 . S
C2038 H2050 0.956 . S
C2038 H2051 0.961 . S
C2038 H2052 0.961 . S
C2039 C2036 1.539 . S
C2039 H2053 0.958 . S
C2039 H2054 0.961 . S
C2039 H2055 0.960 . S
H2040 C2024 0.931 . S
H2041 C2029 0.929 . S
H2042 C2030 0.960 . S
H2043 C2030 0.962 . S
H2044 C2030 0.960 . S
H2045 C2031 0.961 . S
H2046 C2031 0.961 . S
H2047 C2031 0.961 . S
H2048 C2032 0.931 . S
H2049 C2037 0.930 . S
H2050 C2038 0.956 . S
H2051 C2038 0.961 . S
H2052 C2038 0.961 . S
H2053 C2039 0.958 . S
H2054 C2039 0.961 . S
H2055 C2039 0.960 . S
C2056 C2057 1.391 . S
C2056 C2058 1.394 . S
C2056 H2072 0.931 . S
C2057 C2056 1.391 . S
C2057 C2061 1.376 . S
C2058 C2056 1.394 . S
C2058 C2059 1.369 . S
C2058 C2062 1.531 . S
C2059 C2058 1.369 . S
C2059 C2060 1.410 . S
C2059 C2067 1.503 . S
C2060 C2059 1.410 . S
C2060 C2061 1.392 . S
C2060 C2063 1.511 . S
C2061 C2057 1.376 . S
C2061 C2060 1.392 . S
C2061 H2073 0.932 . S
C2062 C2058 1.531 . S
C2062 H2074 0.960 . S
C2062 H2075 0.962 1_565 S
C2062 H2076 0.960 . S
C2063 C2060 1.511 . S
C2063 H2077 0.961 1_565 S
C2063 H2078 0.961 1_565 S
C2063 H2079 0.961 . S
C2064 C2065 1.370 1_545 S
C2064 C2066 1.363 . S
C2064 H2080 0.931 . S
C2065 C2064 1.370 1_565 S
C2065 C2069 1.408 . S
C2066 C2064 1.363 . S
C2066 C2067 1.370 1_545 S
C2066 C2070 1.524 . S
C2067 C2059 1.503 . S
C2067 C2066 1.370 1_565 S
C2067 C2068 1.403 . S
C2068 C2067 1.403 . S
C2068 C2069 1.404 . S
C2068 C2071 1.539 . S
C2069 C2065 1.408 . S
C2069 C2068 1.404 . S
C2069 H2081 0.930 . S
C2070 C2066 1.524 . S
C2070 H2082 0.956 . S
C2070 H2083 0.961 . S
C2070 H2084 0.961 . S
C2071 C2068 1.539 . S
C2071 H2085 0.958 . S
C2071 H2086 0.961 . S
C2071 H2087 0.960 . S
H2072 C2056 0.931 . S
H2073 C2061 0.932 . S
H2074 C2062 0.960 . S
H2075 C2062 0.962 1_545 S
H2076 C2062 0.960 . S
H2077 C2063 0.961 1_545 S
H2078 C2063 0.961 1_545 S
H2079 C2063 0.961 . S
H2080 C2064 0.931 . S
H2081 C2069 0.930 . S
H2082 C2070 0.956 . S
H2083 C2070 0.961 . S
H2084 C2070 0.961 . S
H2085 C2071 0.958 . S
H2086 C2071 0.961 . S
H2087 C2071 0.960 . S
C2088 C2089 1.391 . S
C2088 C2090 1.394 . S
C2088 H2104 0.931 . S
C2089 C2088 1.391 . S
C2089 C2093 1.376 . S
C2090 C2088 1.394 . S
C2090 C2091 1.369 . S
C2090 C2094 1.531 . S
C2091 C2090 1.369 . S
C2091 C2092 1.410 . S
C2091 C2099 1.503 . S
C2092 C2091 1.410 . S
C2092 C2093 1.392 . S
C2092 C2095 1.511 . S
C2093 C2089 1.376 . S
C2093 C2092 1.392 . S
C2093 H2105 0.929 . S
C2094 C2090 1.531 . S
C2094 H2106 0.960 . S
C2094 H2107 0.962 . S
C2094 H2108 0.960 1_565 S
C2095 C2092 1.511 . S
C2095 H2109 0.961 . S
C2095 H2110 0.961 . S
C2095 H2111 0.961 . S
C2096 C2097 1.370 . S
C2096 C2098 1.363 . S
C2096 H2112 0.931 . S
C2097 C2096 1.370 . S
C2097 C2101 1.408 . S
C2098 C2096 1.363 . S
C2098 C2099 1.370 . S
C2098 C2102 1.524 . S
C2099 C2091 1.503 . S
C2099 C2098 1.370 . S
C2099 C2100 1.403 . S
C2100 C2099 1.403 . S
C2100 C2101 1.404 . S
C2100 C2103 1.539 . S
C2101 C2097 1.408 . S
C2101 C2100 1.404 . S
C2101 H2113 0.930 . S
C2102 C2098 1.524 . S
C2102 H2114 0.956 . S
C2102 H2115 0.961 . S
C2102 H2116 0.961 . S
C2103 C2100 1.539 . S
C2103 H2117 0.958 . S
C2103 H2118 0.961 . S
C2103 H2119 0.960 . S
H2104 C2088 0.931 . S
H2105 C2093 0.929 . S
H2106 C2094 0.960 . S
H2107 C2094 0.962 . S
H2108 C2094 0.960 1_545 S
H2109 C2095 0.961 . S
H2110 C2095 0.961 . S
H2111 C2095 0.961 . S
H2112 C2096 0.931 . S
H2113 C2101 0.930 . S
H2114 C2102 0.956 . S
H2115 C2102 0.961 . S
H2116 C2102 0.961 . S
H2117 C2103 0.958 . S
H2118 C2103 0.961 . S
H2119 C2103 0.960 . S
C2120 C2121 1.391 . S
C2120 C2122 1.394 . S
C2120 H2136 0.931 . S
C2121 C2120 1.391 . S
C2121 C2125 1.376 . S
C2122 C2120 1.394 . S
C2122 C2123 1.369 . S
C2122 C2126 1.531 . S
C2123 C2122 1.369 . S
C2123 C2124 1.410 . S
C2123 C2131 1.503 . S
C2124 C2123 1.410 . S
C2124 C2125 1.392 . S
C2124 C2127 1.511 . S
C2125 C2121 1.376 . S
C2125 C2124 1.392 . S
C2125 H2137 0.929 . S
C2126 C2122 1.531 . S
C2126 H2138 0.960 . S
C2126 H2139 0.962 . S
C2126 H2140 0.960 . S
C2127 C2124 1.511 . S
C2127 H2141 0.961 . S
C2127 H2142 0.961 . S
C2127 H2143 0.961 . S
C2128 C2129 1.370 . S
C2128 C2130 1.363 . S
C2128 H2144 0.931 . S
C2129 C2128 1.370 . S
C2129 C2133 1.408 . S
C2130 C2128 1.363 . S
C2130 C2131 1.370 . S
C2130 C2134 1.524 . S
C2131 C2123 1.503 . S
C2131 C2130 1.370 . S
C2131 C2132 1.403 . S
C2132 C2131 1.403 . S
C2132 C2133 1.404 . S
C2132 C2135 1.539 . S
C2133 C2129 1.408 . S
C2133 C2132 1.404 . S
C2133 H2145 0.930 . S
C2134 C2130 1.524 . S
C2134 H2146 0.956 . S
C2134 H2147 0.961 . S
C2134 H2148 0.961 . S
C2135 C2132 1.539 . S
C2135 H2149 0.958 . S
C2135 H2150 0.961 . S
C2135 H2151 0.960 . S
H2136 C2120 0.931 . S
H2137 C2125 0.929 . S
H2138 C2126 0.960 . S
H2139 C2126 0.962 . S
H2140 C2126 0.960 . S
H2141 C2127 0.961 . S
H2142 C2127 0.961 . S
H2143 C2127 0.961 . S
H2144 C2128 0.931 . S
H2145 C2133 0.930 . S
H2146 C2134 0.956 . S
H2147 C2134 0.961 . S
H2148 C2134 0.961 . S
H2149 C2135 0.958 . S
H2150 C2135 0.961 . S
H2151 C2135 0.960 . S
C2152 C2153 1.391 . S
C2152 C2154 1.394 . S
C2152 H2168 0.931 . S
C2153 C2152 1.391 . S
C2153 C2157 1.376 . S
C2154 C2152 1.394 . S
C2154 C2155 1.369 . S
C2154 C2158 1.531 . S
C2155 C2154 1.369 . S
C2155 C2156 1.410 . S
C2155 C2163 1.503 . S
C2156 C2155 1.410 . S
C2156 C2157 1.392 . S
C2156 C2159 1.511 . S
C2157 C2153 1.376 . S
C2157 C2156 1.392 . S
C2157 H2169 0.929 . S
C2158 C2154 1.531 . S
C2158 H2170 0.960 . S
C2158 H2171 0.962 . S
C2158 H2172 0.960 . S
C2159 C2156 1.511 . S
C2159 H2173 0.961 1_556 S
C2159 H2174 0.961 . S
C2159 H2175 0.961 1_556 S
C2160 C2161 1.370 . S
C2160 C2162 1.363 . S
C2160 H2176 0.931 . S
C2161 C2160 1.370 . S
C2161 C2165 1.408 . S
C2162 C2160 1.363 . S
C2162 C2163 1.370 . S
C2162 C2166 1.524 . S
C2163 C2155 1.503 . S
C2163 C2162 1.370 . S
C2163 C2164 1.403 . S
C2164 C2163 1.403 . S
C2164 C2165 1.404 . S
C2164 C2167 1.539 . S
C2165 C2161 1.408 . S
C2165 C2164 1.404 . S
C2165 H2177 0.930 . S
C2166 C2162 1.524 . S
C2166 H2178 0.956 . S
C2166 H2179 0.961 . S
C2166 H2180 0.961 . S
C2167 C2164 1.539 . S
C2167 H2181 0.958 . S
C2167 H2182 0.961 . S
C2167 H2183 0.960 . S
H2168 C2152 0.931 . S
H2169 C2157 0.929 . S
H2170 C2158 0.960 . S
H2171 C2158 0.962 . S
H2172 C2158 0.960 . S
H2173 C2159 0.961 1_554 S
H2174 C2159 0.961 . S
H2175 C2159 0.961 1_554 S
H2176 C2160 0.931 . S
H2177 C2165 0.930 . S
H2178 C2166 0.956 . S
H2179 C2166 0.961 . S
H2180 C2166 0.961 . S
H2181 C2167 0.958 . S
H2182 C2167 0.961 . S
H2183 C2167 0.960 . S
C2184 C2185 1.391 . S
C2184 C2186 1.394 . S
C2184 H2200 0.931 . S
C2185 C2184 1.391 . S
C2185 C2189 1.376 . S
C2186 C2184 1.394 . S
C2186 C2187 1.369 . S
C2186 C2190 1.531 . S
C2187 C2186 1.369 . S
C2187 C2188 1.410 . S
C2187 C2195 1.503 . S
C2188 C2187 1.410 . S
C2188 C2189 1.392 . S
C2188 C2191 1.511 . S
C2189 C2185 1.376 . S
C2189 C2188 1.392 . S
C2189 H2201 0.929 . S
C2190 C2186 1.531 . S
C2190 H2202 0.960 . S
C2190 H2203 0.962 . S
C2190 H2204 0.960 . S
C2191 C2188 1.511 . S
C2191 H2205 0.961 . S
C2191 H2206 0.961 . S
C2191 H2207 0.961 . S
C2192 C2193 1.370 . S
C2192 C2194 1.363 . S
C2192 H2208 0.931 . S
C2193 C2192 1.370 . S
C2193 C2197 1.408 . S
C2194 C2192 1.363 . S
C2194 C2195 1.370 . S
C2194 C2198 1.524 . S
C2195 C2187 1.503 . S
C2195 C2194 1.370 . S
C2195 C2196 1.403 . S
C2196 C2195 1.403 . S
C2196 C2197 1.404 . S
C2196 C2199 1.539 . S
C2197 C2193 1.408 . S
C2197 C2196 1.404 . S
C2197 H2209 0.930 . S
C2198 C2194 1.524 . S
C2198 H2210 0.956 . S
C2198 H2211 0.961 . S
C2198 H2212 0.961 . S
C2199 C2196 1.539 . S
C2199 H2213 0.958 . S
C2199 H2214 0.961 . S
C2199 H2215 0.960 . S
H2200 C2184 0.931 . S
H2201 C2189 0.929 . S
H2202 C2190 0.960 . S
H2203 C2190 0.962 . S
H2204 C2190 0.960 . S
H2205 C2191 0.961 . S
H2206 C2191 0.961 . S
H2207 C2191 0.961 . S
H2208 C2192 0.931 . S
H2209 C2197 0.930 . S
H2210 C2198 0.956 . S
H2211 C2198 0.961 . S
H2212 C2198 0.961 . S
H2213 C2199 0.958 . S
H2214 C2199 0.961 . S
H2215 C2199 0.960 . S
C2216 C2217 1.391 1_556 S
C2216 C2218 1.394 . S
C2216 H2232 0.931 . S
C2217 C2216 1.391 1_554 S
C2217 C2221 1.376 . S
C2218 C2216 1.394 . S
C2218 C2219 1.369 1_556 S
C2218 C2222 1.531 . S
C2219 C2218 1.369 1_554 S
C2219 C2220 1.410 . S
C2219 C2227 1.503 . S
C2220 C2219 1.410 . S
C2220 C2221 1.392 . S
C2220 C2223 1.511 . S
C2221 C2217 1.376 . S
C2221 C2220 1.392 . S
C2221 H2233 0.929 . S
C2222 C2218 1.531 . S
C2222 H2234 0.960 . S
C2222 H2235 0.962 . S
C2222 H2236 0.960 . S
C2223 C2220 1.511 . S
C2223 H2237 0.961 . S
C2223 H2238 0.961 . S
C2223 H2239 0.961 . S
C2224 C2225 1.370 . S
C2224 C2226 1.363 . S
C2224 H2240 0.931 . S
C2225 C2224 1.370 . S
C2225 C2229 1.408 1_556 S
C2226 C2224 1.363 . S
C2226 C2227 1.370 1_556 S
C2226 C2230 1.524 . S
C2227 C2219 1.503 . S
C2227 C2226 1.370 1_554 S
C2227 C2228 1.403 . S
C2228 C2227 1.403 . S
C2228 C2229 1.404 . S
C2228 C2231 1.539 . S
C2229 C2225 1.408 1_554 S
C2229 C2228 1.404 . S
C2229 H2241 0.930 . S
C2230 C2226 1.524 . S
C2230 H2242 0.956 . S
C2230 H2243 0.961 . S
C2230 H2244 0.961 . S
C2231 C2228 1.539 . S
C2231 H2245 0.958 . S
C2231 H2246 0.961 . S
C2231 H2247 0.960 . S
H2232 C2216 0.931 . S
H2233 C2221 0.929 . S
H2234 C2222 0.960 . S
H2235 C2222 0.962 . S
H2236 C2222 0.960 . S
H2237 C2223 0.961 . S
H2238 C2223 0.961 . S
H2239 C2223 0.961 . S
H2240 C2224 0.931 . S
H2241 C2229 0.930 . S
H2242 C2230 0.956 . S
H2243 C2230 0.961 . S
H2244 C2230 0.961 . S
H2245 C2231 0.958 . S
H2246 C2231 0.961 . S
H2247 C2231 0.960 . S
C2248 C2249 1.391 . S
C2248 C2250 1.394 . S
C2248 H2264 0.931 . S
C2249 C2248 1.391 . S
C2249 C2253 1.376 . S
C2250 C2248 1.394 . S
C2250 C2251 1.369 . S
C2250 C2254 1.531 . S
C2251 C2250 1.369 . S
C2251 C2252 1.410 . S
C2251 C2259 1.503 . S
C2252 C2251 1.410 . S
C2252 C2253 1.392 . S
C2252 C2255 1.511 . S
C2253 C2249 1.376 . S
C2253 C2252 1.392 . S
C2253 H2265 0.929 . S
C2254 C2250 1.531 . S
C2254 H2266 0.960 . S
C2254 H2267 0.962 . S
C2254 H2268 0.960 . S
C2255 C2252 1.511 . S
C2255 H2269 0.961 . S
C2255 H2270 0.961 . S
C2255 H2271 0.961 . S
C2256 C2257 1.370 . S
C2256 C2258 1.363 . S
C2256 H2272 0.931 . S
C2257 C2256 1.370 . S
C2257 C2261 1.408 . S
C2258 C2256 1.363 . S
C2258 C2259 1.370 . S
C2258 C2262 1.524 . S
C2259 C2251 1.503 . S
C2259 C2258 1.370 . S
C2259 C2260 1.403 . S
C2260 C2259 1.403 . S
C2260 C2261 1.404 . S
C2260 C2263 1.539 . S
C2261 C2257 1.408 . S
C2261 C2260 1.404 . S
C2261 H2273 0.930 . S
C2262 C2258 1.524 . S
C2262 H2274 0.956 . S
C2262 H2275 0.961 . S
C2262 H2276 0.961 . S
C2263 C2260 1.539 . S
C2263 H2277 0.958 . S
C2263 H2278 0.961 . S
C2263 H2279 0.960 . S
H2264 C2248 0.931 . S
H2265 C2253 0.929 . S
H2266 C2254 0.960 . S
H2267 C2254 0.962 . S
H2268 C2254 0.960 . S
H2269 C2255 0.961 . S
H2270 C2255 0.961 . S
H2271 C2255 0.961 . S
H2272 C2256 0.931 . S
H2273 C2261 0.930 . S
H2274 C2262 0.956 . S
H2275 C2262 0.961 . S
H2276 C2262 0.961 . S
H2277 C2263 0.958 . S
H2278 C2263 0.961 . S
H2279 C2263 0.960 . S
C2280 C2281 1.391 . S
C2280 C2282 1.394 . S
C2280 H2296 0.931 . S
C2281 C2280 1.391 . S
C2281 C2285 1.376 . S
C2282 C2280 1.394 . S
C2282 C2283 1.369 . S
C2282 C2286 1.531 . S
C2283 C2282 1.369 . S
C2283 C2284 1.410 . S
C2283 C2291 1.503 . S
C2284 C2283 1.410 . S
C2284 C2285 1.392 . S
C2284 C2287 1.511 . S
C2285 C2281 1.376 . S
C2285 C2284 1.392 . S
C2285 H2297 0.929 . S
C2286 C2282 1.531 . S
C2286 H2298 0.960 . S
C2286 H2299 0.962 . S
C2286 H2300 0.960 . S
C2287 C2284 1.511 . S
C2287 H2301 0.961 . S
C2287 H2302 0.961 . S
C2287 H2303 0.930 1_655 S
C2288 C2289 1.370 . S
C2288 C2290 1.363 . S
C2288 H2304 0.931 . S
C2289 C2288 1.370 . S
C2289 C2293 1.408 . S
C2290 C2288 1.363 . S
C2290 C2291 1.370 . S
C2290 C2294 1.524 . S
C2291 C2283 1.503 . S
C2291 C2290 1.370 . S
C2291 C2292 1.403 . S
C2292 C2291 1.403 . S
C2292 C2293 1.404 . S
C2292 C2295 1.539 . S
C2293 C2289 1.408 . S
C2293 C2292 1.404 . S
C2293 H2305 0.930 . S
C2294 C2290 1.524 . S
C2294 H2306 0.956 . S
C2294 H2307 0.961 . S
C2294 H2308 0.961 . S
C2295 C2292 1.539 . S
C2295 H2309 0.958 . S
C2295 H2310 0.961 . S
C2295 H2311 0.960 . S
H2296 C2280 0.931 . S
H2297 C2285 0.929 . S
H2298 C2286 0.960 . S
H2299 C2286 0.962 . S
H2300 C2286 0.960 . S
H2301 C2287 0.961 . S
H2302 C2287 0.961 . S
H2303 C2287 0.930 1_455 S
H2304 C2288 0.931 . S
H2305 C2293 0.930 . S
H2306 C2294 0.956 . S
H2307 C2294 0.961 . S
H2308 C2294 0.961 . S
H2309 C2295 0.958 . S
H2310 C2295 0.961 . S
H2311 C2295 0.960 . S
C2312 C2313 1.391 . S
C2312 C2314 1.394 . S
C2312 H2328 0.931 . S
C2313 C2312 1.391 . S
C2313 C2317 1.376 . S
C2314 C2312 1.394 . S
C2314 C2315 1.369 . S
C2314 C2318 1.531 . S
C2315 C2314 1.369 . S
C2315 C2316 1.410 . S
C2315 C2323 1.503 . S
C2316 C2315 1.410 . S
C2316 C2317 1.392 . S
C2316 C2319 1.511 . S
C2317 C2313 1.376 . S
C2317 C2316 1.392 . S
C2317 H2329 0.929 . S
C2318 C2314 1.531 . S
C2318 H2330 0.960 . S
C2318 H2331 0.962 . S
C2318 H2332 0.960 . S
C2319 C2316 1.511 . S
C2319 H2333 0.961 . S
C2319 H2334 0.961 . S
C2319 H2335 0.961 . S
C2320 C2321 1.370 . S
C2320 C2322 1.363 . S
C2320 H2336 0.931 . S
C2321 C2320 1.370 . S
C2321 C2325 1.408 . S
C2322 C2320 1.363 . S
C2322 C2323 1.370 . S
C2322 C2326 1.524 . S
C2323 C2315 1.503 . S
C2323 C2322 1.370 . S
C2323 C2324 1.403 . S
C2324 C2323 1.403 . S
C2324 C2325 1.404 . S
C2324 C2327 1.539 . S
C2325 C2321 1.408 . S
C2325 C2324 1.404 . S
C2325 H2337 0.930 . S
C2326 C2322 1.524 . S
C2326 H2338 0.956 . S
C2326 H2339 0.961 . S
C2326 H2340 0.961 . S
C2327 C2324 1.539 . S
C2327 H2341 0.958 . S
C2327 H2342 0.961 . S
C2327 H2343 0.960 . S
H2328 C2312 0.931 . S
H2329 C2317 0.929 . S
H2330 C2318 0.960 . S
H2331 C2318 0.962 . S
H2332 C2318 0.960 . S
H2333 C2319 0.961 . S
H2334 C2319 0.961 . S
H2335 C2319 0.961 . S
H2336 C2320 0.931 . S
H2337 C2325 0.930 . S
H2338 C2326 0.956 . S
H2339 C2326 0.961 . S
H2340 C2326 0.961 . S
H2341 C2327 0.958 . S
H2342 C2327 0.961 . S
H2343 C2327 0.960 . S
C2344 C2345 1.379 1_455 S
C2344 C2346 1.394 . S
C2344 H2360 0.931 . S
C2345 C2344 1.379 1_655 S
C2345 C2349 1.388 . S
C2346 C2344 1.394 . S
C2346 C2347 1.369 1_455 S
C2346 C2350 1.531 . S
C2347 C2346 1.369 1_655 S
C2347 C2348 1.410 . S
C2347 C2355 1.503 . S
C2348 C2347 1.410 . S
C2348 C2349 1.392 . S
C2348 C2351 1.511 . S
C2349 C2345 1.388 . S
C2349 C2348 1.392 . S
C2349 H2361 0.929 . S
C2350 C2346 1.531 . S
C2350 H2362 0.960 . S
C2350 H2363 0.962 . S
C2350 H2364 0.960 . S
C2351 C2348 1.511 . S
C2351 H2365 0.961 . S
C2351 H2366 0.961 . S
C2351 H2367 0.961 . S
C2352 C2353 1.370 1_455 S
C2352 C2354 1.363 . S
C2352 H2368 0.931 . S
C2353 C2352 1.370 1_655 S
C2353 C2357 1.408 . S
C2354 C2352 1.363 . S
C2354 C2355 1.370 1_455 S
C2354 C2358 1.524 . S
C2355 C2347 1.503 . S
C2355 C2354 1.370 1_655 S
C2355 C2356 1.403 . S
C2356 C2355 1.403 . S
C2356 C2357 1.404 . S
C2356 C2359 1.539 . S
C2357 C2353 1.408 . S
C2357 C2356 1.404 . S
C2357 H2369 0.930 . S
C2358 C2354 1.524 . S
C2358 H2370 0.956 . S
C2358 H2371 0.961 1_455 S
C2358 H2372 0.961 . S
C2359 C2356 1.539 . S
C2359 H2373 0.956 1_655 S
C2359 H2374 0.961 . S
C2359 H2375 0.960 . S
H2360 C2344 0.931 . S
H2361 C2349 0.929 . S
H2362 C2350 0.960 . S
H2363 C2350 0.962 . S
H2364 C2350 0.960 . S
H2365 C2351 0.961 . S
H2366 C2351 0.961 . S
H2367 C2351 0.961 . S
H2368 C2352 0.931 . S
H2369 C2357 0.930 . S
H2370 C2358 0.956 . S
H2371 C2358 0.961 1_655 S
H2372 C2358 0.961 . S
H2373 C2359 0.956 1_455 S
H2374 C2359 0.961 . S
H2375 C2359 0.960 . S
C2376 C2377 1.391 . S
C2376 C2378 1.394 . S
C2376 H2392 0.931 . S
C2377 C2376 1.391 . S
C2377 C2381 1.376 . S
C2378 C2376 1.394 . S
C2378 C2379 1.369 . S
C2378 C2382 1.531 . S
C2379 C2378 1.369 . S
C2379 C2380 1.410 . S
C2379 C2387 1.503 . S
C2380 C2379 1.410 . S
C2380 C2381 1.392 . S
C2380 C2383 1.511 . S
C2381 C2377 1.376 . S
C2381 C2380 1.392 . S
C2381 H2393 0.929 . S
C2382 C2378 1.531 . S
C2382 H2394 0.960 . S
C2382 H2395 0.962 . S
C2382 H2396 0.960 . S
C2383 C2380 1.511 . S
C2383 H2397 0.961 . S
C2383 H2398 0.961 . S
C2383 H2399 0.961 . S
C2384 C2385 1.370 . S
C2384 C2386 1.363 . S
C2384 H2400 0.931 . S
C2385 C2384 1.370 . S
C2385 C2389 1.408 . S
C2386 C2384 1.363 . S
C2386 C2387 1.370 . S
C2386 C2390 1.524 . S
C2387 C2379 1.503 . S
C2387 C2386 1.370 . S
C2387 C2388 1.403 . S
C2388 C2387 1.403 . S
C2388 C2389 1.404 . S
C2388 C2391 1.539 . S
C2389 C2385 1.408 . S
C2389 C2388 1.404 . S
C2389 H2401 0.930 . S
C2390 C2386 1.524 . S
C2390 H2402 0.956 . S
C2390 H2403 0.961 . S
C2390 H2404 0.961 . S
C2391 C2388 1.539 . S
C2391 H2405 0.958 . S
C2391 H2406 0.961 . S
C2391 H2407 0.960 . S
H2392 C2376 0.931 . S
H2393 C2381 0.929 . S
H2394 C2382 0.960 . S
H2395 C2382 0.962 . S
H2396 C2382 0.960 . S
H2397 C2383 0.961 . S
H2398 C2383 0.961 . S
H2399 C2383 0.961 . S
H2400 C2384 0.931 . S
H2401 C2389 0.930 . S
H2402 C2390 0.956 . S
H2403 C2390 0.961 . S
H2404 C2390 0.961 . S
H2405 C2391 0.958 . S
H2406 C2391 0.961 . S
H2407 C2391 0.960 . S
C2408 C2409 1.391 . S
C2408 C2410 1.394 . S
C2408 H2424 0.931 . S
C2409 C2408 1.391 . S
C2409 C2413 1.376 . S
C2410 C2408 1.394 . S
C2410 C2411 1.369 . S
C2410 C2414 1.531 . S
C2411 C2410 1.369 . S
C2411 C2412 1.410 . S
C2411 C2419 1.503 . S
C2412 C2411 1.410 . S
C2412 C2413 1.392 . S
C2412 C2415 1.511 . S
C2413 C2409 1.376 . S
C2413 C2412 1.392 . S
C2413 H2425 0.929 . S
C2414 C2410 1.531 . S
C2414 H2426 0.960 . S
C2414 H2427 0.962 . S
C2414 H2428 0.960 . S
C2415 C2412 1.511 . S
C2415 H2429 0.961 . S
C2415 H2430 0.961 . S
C2415 H2431 0.961 . S
C2416 C2417 1.370 . S
C2416 C2418 1.363 . S
C2416 H2432 0.931 . S
C2417 C2416 1.370 . S
C2417 C2421 1.408 . S
C2418 C2416 1.363 . S
C2418 C2419 1.370 . S
C2418 C2422 1.524 . S
C2419 C2411 1.503 . S
C2419 C2418 1.370 . S
C2419 C2420 1.403 . S
C2420 C2419 1.403 . S
C2420 C2421 1.404 . S
C2420 C2423 1.539 . S
C2421 C2417 1.408 . S
C2421 C2420 1.404 . S
C2421 H2433 0.930 . S
C2422 C2418 1.524 . S
C2422 H2434 0.956 . S
C2422 H2435 0.961 . S
C2422 H2436 0.961 . S
C2423 C2420 1.539 . S
C2423 H2437 0.958 . S
C2423 H2438 0.961 . S
C2423 H2439 0.960 . S
H2424 C2408 0.931 . S
H2425 C2413 0.929 . S
H2426 C2414 0.960 . S
H2427 C2414 0.962 . S
H2428 C2414 0.960 . S
H2429 C2415 0.961 . S
H2430 C2415 0.961 . S
H2431 C2415 0.961 . S
H2432 C2416 0.931 . S
H2433 C2421 0.930 . S
H2434 C2422 0.956 . S
H2435 C2422 0.961 . S
H2436 C2422 0.961 . S
H2437 C2423 0.958 . S
H2438 C2423 0.961 . S
H2439 C2423 0.960 . S
C2440 C2441 1.391 . S
C2440 C2442 1.394 . S
C2440 H2456 0.931 . S
C2441 C2440 1.391 . S
C2441 C2445 1.376 1_545 S
C2442 C2440 1.394 . S
C2442 C2443 1.369 . S
C2442 C2446 1.531 . S
C2443 C2442 1.369 . S
C2443 C2444 1.410 1_545 S
C2443 C2451 1.503 . S
C2444 C2443 1.410 1_565 S
C2444 C2445 1.392 . S
C2444 C2447 1.511 . S
C2445 C2441 1.376 1_565 S
C2445 C2444 1.392 . S
C2445 H2457 0.929 . S
C2446 C2442 1.531 . S
C2446 H2458 0.960 . S
C2446 H2459 0.962 . S
C2446 H2460 0.960 . S
C2447 C2444 1.511 . S
C2447 H2461 0.961 . S
C2447 H2462 0.961 . S
C2447 H2463 0.961 . S
C2448 C2449 1.370 1_565 S
C2448 C2450 1.363 . S
C2448 H2464 0.931 . S
C2449 C2448 1.370 1_545 S
C2449 C2453 1.408 . S
C2450 C2448 1.363 . S
C2450 C2451 1.370 1_565 S
C2450 C2454 1.524 . S
C2451 C2443 1.503 . S
C2451 C2450 1.370 1_545 S
C2451 C2452 1.403 . S
C2452 C2451 1.403 . S
C2452 C2453 1.404 . S
C2452 C2455 1.539 . S
C2453 C2449 1.408 . S
C2453 C2452 1.404 . S
C2453 H2465 0.930 . S
C2454 C2450 1.524 . S
C2454 H2466 0.956 . S
C2454 H2467 0.961 . S
C2454 H2468 0.961 . S
C2455 C2452 1.539 . S
C2455 H2469 0.958 . S
C2455 H2470 0.961 . S
C2455 H2471 0.960 . S
H2456 C2440 0.931 . S
H2457 C2445 0.929 . S
H2458 C2446 0.960 . S
H2459 C2446 0.962 . S
H2460 C2446 0.960 . S
H2461 C2447 0.961 . S
H2462 C2447 0.961 . S
H2463 C2447 0.961 . S
H2464 C2448 0.931 . S
H2465 C2453 0.930 . S
H2466 C2454 0.956 . S
H2467 C2454 0.961 . S
H2468 C2454 0.961 . S
H2469 C2455 0.958 . S
H2470 C2455 0.961 . S
H2471 C2455 0.960 . S
C2472 C2473 1.391 . S
C2472 C2474 1.394 . S
C2472 H2488 0.931 . S
C2473 C2472 1.391 . S
C2473 C2477 1.376 . S
C2474 C2472 1.394 . S
C2474 C2475 1.369 . S
C2474 C2478 1.531 . S
C2475 C2474 1.369 . S
C2475 C2476 1.410 . S
C2475 C2483 1.503 . S
C2476 C2475 1.410 . S
C2476 C2477 1.392 . S
C2476 C2479 1.511 . S
C2477 C2473 1.376 . S
C2477 C2476 1.392 . S
C2477 H2489 0.929 . S
C2478 C2474 1.531 . S
C2478 H2490 0.960 . S
C2478 H2491 0.962 . S
C2478 H2492 0.960 . S
C2479 C2476 1.511 . S
C2479 H2493 0.961 1_545 S
C2479 H2494 0.961 . S
C2479 H2495 0.961 . S
C2480 C2481 1.370 . S
C2480 C2482 1.363 . S
C2480 H2496 0.931 . S
C2481 C2480 1.370 . S
C2481 C2485 1.408 . S
C2482 C2480 1.363 . S
C2482 C2483 1.370 . S
C2482 C2486 1.524 . S
C2483 C2475 1.503 . S
C2483 C2482 1.370 . S
C2483 C2484 1.403 . S
C2484 C2483 1.403 . S
C2484 C2485 1.404 . S
C2484 C2487 1.539 . S
C2485 C2481 1.408 . S
C2485 C2484 1.404 . S
C2485 H2497 0.930 . S
C2486 C2482 1.524 . S
C2486 H2498 0.956 . S
C2486 H2499 0.961 . S
C2486 H2500 0.961 . S
C2487 C2484 1.539 . S
C2487 H2501 0.958 . S
C2487 H2502 0.961 . S
C2487 H2503 0.960 . S
H2488 C2472 0.931 . S
H2489 C2477 0.929 . S
H2490 C2478 0.960 . S
H2491 C2478 0.962 . S
H2492 C2478 0.960 . S
H2493 C2479 0.961 1_565 S
H2494 C2479 0.961 . S
H2495 C2479 0.961 . S
H2496 C2480 0.931 . S
H2497 C2485 0.930 . S
H2498 C2486 0.956 . S
H2499 C2486 0.961 . S
H2500 C2486 0.961 . S
H2501 C2487 0.958 . S
H2502 C2487 0.961 . S
H2503 C2487 0.960 . S
C2504 C2505 1.391 . S
C2504 C2506 1.394 . S
C2504 H2520 0.931 . S
C2505 C2504 1.391 . S
C2505 C2509 1.376 . S
C2506 C2504 1.394 . S
C2506 C2507 1.369 . S
C2506 C2510 1.531 . S
C2507 C2506 1.369 . S
C2507 C2508 1.410 . S
C2507 C2515 1.503 . S
C2508 C2507 1.410 . S
C2508 C2509 1.392 . S
C2508 C2511 1.511 . S
C2509 C2505 1.376 . S
C2509 C2508 1.392 . S
C2509 H2521 0.929 . S
C2510 C2506 1.531 . S
C2510 H2522 0.960 . S
C2510 H2523 0.962 . S
C2510 H2524 0.960 . S
C2511 C2508 1.511 . S
C2511 H2525 0.961 . S
C2511 H2526 0.961 . S
C2511 H2527 0.961 . S
C2512 C2513 1.370 . S
C2512 C2514 1.363 . S
C2512 H2528 0.931 . S
C2513 C2512 1.370 . S
C2513 C2517 1.408 . S
C2514 C2512 1.363 . S
C2514 C2515 1.370 . S
C2514 C2518 1.524 . S
C2515 C2507 1.503 . S
C2515 C2514 1.370 . S
C2515 C2516 1.403 . S
C2516 C2515 1.403 . S
C2516 C2517 1.404 . S
C2516 C2519 1.539 . S
C2517 C2513 1.408 . S
C2517 C2516 1.404 . S
C2517 H2529 0.930 . S
C2518 C2514 1.524 . S
C2518 H2530 0.956 . S
C2518 H2531 0.961 . S
C2518 H2532 0.961 . S
C2519 C2516 1.539 . S
C2519 H2533 0.958 . S
C2519 H2534 0.961 . S
C2519 H2535 0.960 . S
H2520 C2504 0.931 . S
H2521 C2509 0.929 . S
H2522 C2510 0.960 . S
H2523 C2510 0.962 . S
H2524 C2510 0.960 . S
H2525 C2511 0.961 . S
H2526 C2511 0.961 . S
H2527 C2511 0.961 . S
H2528 C2512 0.931 . S
H2529 C2517 0.930 . S
H2530 C2518 0.956 . S
H2531 C2518 0.961 . S
H2532 C2518 0.961 . S
H2533 C2519 0.958 . S
H2534 C2519 0.961 . S
H2535 C2519 0.960 . S
C2536 C2537 1.391 . S
C2536 C2538 1.394 . S
C2536 H2552 0.931 . S
C2537 C2536 1.391 . S
C2537 C2541 1.376 . S
C2538 C2536 1.394 . S
C2538 C2539 1.369 . S
C2538 C2542 1.531 . S
C2539 C2538 1.369 . S
C2539 C2540 1.410 . S
C2539 C2547 1.503 . S
C2540 C2539 1.410 . S
C2540 C2541 1.392 . S
C2540 C2543 1.511 . S
C2541 C2537 1.376 . S
C2541 C2540 1.392 . S
C2541 H2553 0.929 . S
C2542 C2538 1.531 . S
C2542 H2554 0.960 . S
C2542 H2555 0.962 . S
C2542 H2556 0.956 . S
C2543 C2540 1.511 . S
C2543 H2557 0.961 . S
C2543 H2558 0.961 . S
C2543 H2559 0.961 . S
C2544 C2545 1.370 . S
C2544 C2546 1.363 . S
C2544 H2560 0.931 . S
C2545 C2544 1.370 . S
C2545 C2549 1.408 . S
C2546 C2544 1.363 . S
C2546 C2547 1.370 . S
C2546 C2550 1.524 . S
C2547 C2539 1.503 . S
C2547 C2546 1.370 . S
C2547 C2548 1.403 . S
C2548 C2547 1.403 . S
C2548 C2549 1.404 . S
C2548 C2551 1.539 . S
C2549 C2545 1.408 . S
C2549 C2548 1.404 . S
C2549 H2561 0.930 . S
C2550 C2546 1.524 . S
C2550 H2562 0.956 . S
C2550 H2563 0.961 . S
C2550 H2564 0.961 . S
C2551 C2548 1.539 . S
C2551 H2565 0.958 . S
C2551 H2566 0.961 . S
C2551 H2567 0.960 . S
H2552 C2536 0.931 . S
H2553 C2541 0.929 . S
H2554 C2542 0.960 . S
H2555 C2542 0.962 . S
H2556 C2542 0.956 . S
H2557 C2543 0.961 . S
H2558 C2543 0.961 . S
H2559 C2543 0.961 . S
H2560 C2544 0.931 . S
H2561 C2549 0.930 . S
H2562 C2550 0.956 . S
H2563 C2550 0.961 . S
H2564 C2550 0.961 . S
H2565 C2551 0.958 . S
H2566 C2551 0.961 . S
H2567 C2551 0.960 . S
C2568 C2569 1.391 . S
C2568 C2570 1.394 . S
C2568 H2584 0.931 . S
C2569 C2568 1.391 . S
C2569 C2573 1.376 . S
C2570 C2568 1.394 . S
C2570 C2571 1.369 . S
C2570 C2574 1.531 . S
C2571 C2570 1.369 . S
C2571 C2572 1.410 . S
C2571 C2579 1.503 . S
C2572 C2571 1.410 . S
C2572 C2573 1.392 . S
C2572 C2575 1.511 . S
C2573 C2569 1.376 . S
C2573 C2572 1.392 . S
C2573 H2585 0.929 . S
C2574 C2570 1.531 . S
C2574 H2586 0.960 . S
C2574 H2587 0.962 . S
C2574 H2588 0.960 . S
C2575 C2572 1.511 . S
C2575 H2589 0.961 . S
C2575 H2590 0.961 . S
C2575 H2591 0.961 . S
C2576 C2577 1.370 . S
C2576 C2578 1.363 . S
C2576 H2592 0.931 . S
C2577 C2576 1.370 . S
C2577 C2581 1.408 . S
C2578 C2576 1.363 . S
C2578 C2579 1.370 . S
C2578 C2582 1.524 . S
C2579 C2571 1.503 . S
C2579 C2578 1.370 . S
C2579 C2580 1.403 . S
C2580 C2579 1.403 . S
C2580 C2581 1.404 . S
C2580 C2583 1.539 . S
C2581 C2577 1.408 . S
C2581 C2580 1.404 . S
C2581 H2593 0.930 . S
C2582 C2578 1.524 . S
C2582 H2594 0.956 . S
C2582 H2595 0.961 . S
C2582 H2596 0.961 . S
C2583 C2580 1.539 . S
C2583 H2597 0.958 . S
C2583 H2598 0.961 . S
C2583 H2599 0.960 . S
H2584 C2568 0.931 . S
H2585 C2573 0.929 . S
H2586 C2574 0.960 . S
H2587 C2574 0.962 . S
H2588 C2574 0.960 . S
H2589 C2575 0.961 . S
H2590 C2575 0.961 . S
H2591 C2575 0.961 . S
H2592 C2576 0.931 . S
H2593 C2581 0.930 . S
H2594 C2582 0.956 . S
H2595 C2582 0.961 . S
H2596 C2582 0.961 . S
H2597 C2583 0.958 . S
H2598 C2583 0.961 . S
H2599 C2583 0.960 . S
C2600 C2601 1.391 1_554 S
C2600 C2602 1.394 . S
C2600 H2616 0.931 . S
C2601 C2600 1.391 1_556 S
C2601 C2605 1.376 . S
C2602 C2600 1.394 . S
C2602 C2603 1.369 1_554 S
C2602 C2606 1.531 . S
C2603 C2602 1.369 1_556 S
C2603 C2604 1.410 . S
C2603 C2611 1.503 . S
C2604 C2603 1.410 . S
C2604 C2605 1.392 . S
C2604 C2607 1.511 . S
C2605 C2601 1.376 . S
C2605 C2604 1.392 . S
C2605 H2617 0.929 . S
C2606 C2602 1.531 . S
C2606 H2618 0.960 . S
C2606 H2619 0.962 . S
C2606 H2620 0.960 . S
C2607 C2604 1.511 . S
C2607 H2621 0.961 . S
C2607 H2622 0.961 . S
C2607 H2623 0.961 . S
C2608 C2609 1.370 . S
C2608 C2610 1.363 . S
C2608 H2624 0.931 . S
C2609 C2608 1.370 . S
C2609 C2613 1.408 1_554 S
C2610 C2608 1.363 . S
C2610 C2611 1.370 1_554 S
C2610 C2614 1.524 . S
C2611 C2603 1.503 . S
C2611 C2610 1.370 1_556 S
C2611 C2612 1.403 . S
C2612 C2611 1.403 . S
C2612 C2613 1.404 . S
C2612 C2615 1.539 . S
C2613 C2609 1.408 1_556 S
C2613 C2612 1.404 . S
C2613 H2625 0.930 . S
C2614 C2610 1.524 . S
C2614 H2626 0.956 . S
C2614 H2627 0.961 . S
C2614 H2628 0.961 . S
C2615 C2612 1.539 . S
C2615 H2629 0.958 . S
C2615 H2630 0.961 . S
C2615 H2631 0.960 . S
H2616 C2600 0.931 . S
H2617 C2605 0.929 . S
H2618 C2606 0.960 . S
H2619 C2606 0.962 . S
H2620 C2606 0.960 . S
H2621 C2607 0.961 . S
H2622 C2607 0.961 . S
H2623 C2607 0.961 . S
H2624 C2608 0.931 . S
H2625 C2613 0.930 . S
H2626 C2614 0.956 . S
H2627 C2614 0.961 . S
H2628 C2614 0.961 . S
H2629 C2615 0.958 . S
H2630 C2615 0.961 . S
H2631 C2615 0.960 . S
C2632 C2633 1.391 . S
C2632 C2634 1.394 . S
C2632 H2648 0.931 . S
C2633 C2632 1.391 . S
C2633 C2637 1.376 . S
C2634 C2632 1.394 . S
C2634 C2635 1.369 . S
C2634 C2638 1.531 . S
C2635 C2634 1.369 . S
C2635 C2636 1.410 . S
C2635 C2643 1.503 . S
C2636 C2635 1.410 . S
C2636 C2637 1.392 . S
C2636 C2639 1.511 . S
C2637 C2633 1.376 . S
C2637 C2636 1.392 . S
C2637 H2649 0.929 . S
C2638 C2634 1.531 . S
C2638 H2650 0.960 . S
C2638 H2651 0.962 . S
C2638 H2652 0.960 . S
C2639 C2636 1.511 . S
C2639 H2653 0.961 . S
C2639 H2654 0.961 . S
C2639 H2655 0.961 . S
C2640 C2641 1.370 . S
C2640 C2642 1.363 . S
C2640 H2656 0.931 . S
C2641 C2640 1.370 . S
C2641 C2645 1.408 . S
C2642 C2640 1.363 . S
C2642 C2643 1.370 . S
C2642 C2646 1.524 . S
C2643 C2635 1.503 . S
C2643 C2642 1.370 . S
C2643 C2644 1.403 . S
C2644 C2643 1.403 . S
C2644 C2645 1.404 . S
C2644 C2647 1.539 . S
C2645 C2641 1.408 . S
C2645 C2644 1.404 . S
C2645 H2657 0.930 . S
C2646 C2642 1.524 . S
C2646 H2658 0.956 . S
C2646 H2659 0.961 . S
C2646 H2660 0.961 . S
C2647 C2644 1.539 . S
C2647 H2661 0.958 . S
C2647 H2662 0.961 . S
C2647 H2663 0.960 . S
H2648 C2632 0.931 . S
H2649 C2637 0.929 . S
H2650 C2638 0.960 . S
H2651 C2638 0.962 . S
H2652 C2638 0.960 . S
H2653 C2639 0.961 . S
H2654 C2639 0.961 . S
H2655 C2639 0.961 . S
H2656 C2640 0.931 . S
H2657 C2645 0.930 . S
H2658 C2646 0.956 . S
H2659 C2646 0.961 . S
H2660 C2646 0.961 . S
H2661 C2647 0.958 . S
H2662 C2647 0.961 . S
H2663 C2647 0.960 . S
C2664 C2665 1.391 . S
C2664 C2666 1.394 . S
C2664 H2680 0.931 . S
C2665 C2664 1.391 . S
C2665 C2669 1.376 . S
C2666 C2664 1.394 . S
C2666 C2667 1.369 . S
C2666 C2670 1.531 . S
C2667 C2666 1.369 . S
C2667 C2668 1.410 . S
C2667 C2675 1.503 . S
C2668 C2667 1.410 . S
C2668 C2669 1.392 . S
C2668 C2671 1.511 . S
C2669 C2665 1.376 . S
C2669 C2668 1.392 . S
C2669 H2681 0.929 . S
C2670 C2666 1.531 . S
C2670 H2682 0.960 . S
C2670 H2683 0.962 . S
C2670 H2684 0.974 . S
C2671 C2668 1.511 . S
C2671 H2685 0.961 . S
C2671 H2686 0.961 . S
C2671 H2687 0.961 . S
C2672 C2673 1.370 . S
C2672 C2674 1.363 . S
C2672 H2688 0.931 . S
C2673 C2672 1.370 . S
C2673 C2677 1.408 . S
C2674 C2672 1.363 . S
C2674 C2675 1.370 . S
C2674 C2678 1.524 . S
C2675 C2667 1.503 . S
C2675 C2674 1.370 . S
C2675 C2676 1.403 . S
C2676 C2675 1.403 . S
C2676 C2677 1.404 . S
C2676 C2679 1.539 . S
C2677 C2673 1.408 . S
C2677 C2676 1.404 . S
C2677 H2689 0.930 . S
C2678 C2674 1.524 . S
C2678 H2690 0.956 . S
C2678 H2691 0.961 . S
C2678 H2692 0.961 . S
C2679 C2676 1.539 . S
C2679 H2693 0.958 . S
C2679 H2694 0.961 . S
C2679 H2695 0.960 . S
H2680 C2664 0.931 . S
H2681 C2669 0.929 . S
H2682 C2670 0.960 . S
H2683 C2670 0.962 . S
H2684 C2670 0.974 . S
H2685 C2671 0.961 . S
H2686 C2671 0.961 . S
H2687 C2671 0.961 . S
H2688 C2672 0.931 . S
H2689 C2677 0.930 . S
H2690 C2678 0.956 . S
H2691 C2678 0.961 . S
H2692 C2678 0.961 . S
H2693 C2679 0.958 . S
H2694 C2679 0.961 . S
H2695 C2679 0.960 . S
C2696 C2697 1.391 . S
C2696 C2698 1.394 . S
C2696 H2712 0.931 . S
C2697 C2696 1.391 . S
C2697 C2701 1.376 . S
C2698 C2696 1.394 . S
C2698 C2699 1.369 . S
C2698 C2702 1.531 . S
C2699 C2698 1.369 . S
C2699 C2700 1.410 . S
C2699 C2707 1.503 . S
C2700 C2699 1.410 . S
C2700 C2701 1.392 . S
C2700 C2703 1.511 . S
C2701 C2697 1.376 . S
C2701 C2700 1.392 . S
C2701 H2713 0.929 . S
C2702 C2698 1.531 . S
C2702 H2714 0.960 . S
C2702 H2715 0.962 . S
C2702 H2716 0.960 . S
C2703 C2700 1.511 . S
C2703 H2717 0.961 . S
C2703 H2718 0.961 . S
C2703 H2719 0.961 . S
C2704 C2705 1.370 . S
C2704 C2706 1.363 . S
C2704 H2720 0.931 . S
C2705 C2704 1.370 . S
C2705 C2709 1.408 . S
C2706 C2704 1.363 . S
C2706 C2707 1.370 . S
C2706 C2710 1.524 . S
C2707 C2699 1.503 . S
C2707 C2706 1.370 . S
C2707 C2708 1.403 . S
C2708 C2707 1.403 . S
C2708 C2709 1.404 . S
C2708 C2711 1.539 . S
C2709 C2705 1.408 . S
C2709 C2708 1.404 . S
C2709 H2721 0.930 . S
C2710 C2706 1.524 . S
C2710 H2722 0.956 . S
C2710 H2723 0.961 . S
C2710 H2724 0.961 . S
C2711 C2708 1.539 . S
C2711 H2725 0.958 . S
C2711 H2726 0.961 . S
C2711 H2727 0.960 . S
H2712 C2696 0.931 . S
H2713 C2701 0.929 . S
H2714 C2702 0.960 . S
H2715 C2702 0.962 . S
H2716 C2702 0.960 . S
H2717 C2703 0.961 . S
H2718 C2703 0.961 . S
H2719 C2703 0.961 . S
H2720 C2704 0.931 . S
H2721 C2709 0.930 . S
H2722 C2710 0.956 . S
H2723 C2710 0.961 . S
H2724 C2710 0.961 . S
H2725 C2711 0.958 . S
H2726 C2711 0.961 . S
H2727 C2711 0.960 . S
C2728 C2729 1.391 1_655 S
C2728 C2730 1.394 . S
C2728 H2744 0.931 . S
C2729 C2728 1.391 1_455 S
C2729 C2733 1.376 . S
C2730 C2728 1.394 . S
C2730 C2731 1.369 1_655 S
C2730 C2734 1.531 . S
C2731 C2730 1.369 1_455 S
C2731 C2732 1.410 . S
C2731 C2739 1.503 . S
C2732 C2731 1.410 . S
C2732 C2733 1.392 . S
C2732 C2735 1.511 . S
C2733 C2729 1.376 . S
C2733 C2732 1.392 . S
C2733 H2745 0.929 . S
C2734 C2730 1.531 . S
C2734 H2746 0.960 . S
C2734 H2747 0.962 . S
C2734 H2748 0.960 . S
C2735 C2732 1.511 . S
C2735 H2749 0.961 . S
C2735 H2750 0.961 . S
C2735 H2751 0.961 . S
C2736 C2737 1.370 1_655 S
C2736 C2738 1.363 . S
C2736 H2752 0.931 . S
C2737 C2736 1.370 1_455 S
C2737 C2741 1.408 . S
C2738 C2736 1.363 . S
C2738 C2739 1.370 1_655 S
C2738 C2742 1.524 . S
C2739 C2731 1.503 . S
C2739 C2738 1.370 1_455 S
C2739 C2740 1.403 . S
C2740 C2739 1.403 . S
C2740 C2741 1.404 . S
C2740 C2743 1.539 . S
C2741 C2737 1.408 . S
C2741 C2740 1.404 . S
C2741 H2753 0.930 . S
C2742 C2738 1.524 . S
C2742 H2754 0.956 . S
C2742 H2755 0.961 . S
C2742 H2756 0.961 . S
C2743 C2740 1.539 . S
C2743 H2757 0.958 . S
C2743 H2758 0.961 . S
C2743 H2759 0.960 . S
H2744 C2728 0.931 . S
H2745 C2733 0.929 . S
H2746 C2734 0.960 . S
H2747 C2734 0.962 . S
H2748 C2734 0.960 . S
H2749 C2735 0.961 . S
H2750 C2735 0.961 . S
H2751 C2735 0.961 . S
H2752 C2736 0.931 . S
H2753 C2741 0.930 . S
H2754 C2742 0.956 . S
H2755 C2742 0.961 . S
H2756 C2742 0.961 . S
H2757 C2743 0.958 . S
H2758 C2743 0.961 . S
H2759 C2743 0.960 . S
C2760 C2761 1.391 . S
C2760 C2762 1.394 . S
C2760 H2776 0.931 . S
C2761 C2760 1.391 . S
C2761 C2765 1.376 . S
C2762 C2760 1.394 . S
C2762 C2763 1.369 . S
C2762 C2766 1.531 . S
C2763 C2762 1.369 . S
C2763 C2764 1.410 . S
C2763 C2771 1.503 . S
C2764 C2763 1.410 . S
C2764 C2765 1.392 . S
C2764 C2767 1.511 . S
C2765 C2761 1.376 . S
C2765 C2764 1.392 . S
C2765 H2777 0.929 . S
C2766 C2762 1.531 . S
C2766 H2778 0.960 . S
C2766 H2779 0.962 . S
C2766 H2780 0.960 . S
C2767 C2764 1.511 . S
C2767 H2781 0.961 . S
C2767 H2782 0.961 . S
C2767 H2783 0.961 . S
C2768 C2769 1.370 . S
C2768 C2770 1.363 . S
C2768 H2784 0.931 . S
C2769 C2768 1.370 . S
C2769 C2773 1.408 . S
C2770 C2768 1.363 . S
C2770 C2771 1.370 . S
C2770 C2774 1.524 . S
C2771 C2763 1.503 . S
C2771 C2770 1.370 . S
C2771 C2772 1.403 . S
C2772 C2771 1.403 . S
C2772 C2773 1.404 . S
C2772 C2775 1.539 . S
C2773 C2769 1.408 . S
C2773 C2772 1.404 . S
C2773 H2785 0.930 . S
C2774 C2770 1.524 . S
C2774 H2786 0.956 . S
C2774 H2787 0.961 . S
C2774 H2788 0.961 . S
C2775 C2772 1.539 . S
C2775 H2789 0.958 . S
C2775 H2790 0.961 . S
C2775 H2791 0.960 . S
H2776 C2760 0.931 . S
H2777 C2765 0.929 . S
H2778 C2766 0.960 . S
H2779 C2766 0.962 . S
H2780 C2766 0.960 . S
H2781 C2767 0.961 . S
H2782 C2767 0.961 . S
H2783 C2767 0.961 . S
H2784 C2768 0.931 . S
H2785 C2773 0.930 . S
H2786 C2774 0.956 . S
H2787 C2774 0.961 . S
H2788 C2774 0.961 . S
H2789 C2775 0.958 . S
H2790 C2775 0.961 . S
H2791 C2775 0.960 . S
C2792 C2793 1.391 . S
C2792 C2794 1.394 . S
C2792 H2808 0.931 . S
C2793 C2792 1.391 . S
C2793 C2797 1.376 . S
C2794 C2792 1.394 . S
C2794 C2795 1.369 . S
C2794 C2798 1.531 . S
C2795 C2794 1.369 . S
C2795 C2796 1.410 . S
C2795 C2803 1.503 . S
C2796 C2795 1.410 . S
C2796 C2797 1.392 . S
C2796 C2799 1.511 . S
C2797 C2793 1.376 . S
C2797 C2796 1.392 . S
C2797 H2809 0.929 . S
C2798 C2794 1.531 . S
C2798 H2810 0.960 . S
C2798 H2811 0.962 . S
C2798 H2812 0.960 . S
C2799 C2796 1.511 . S
C2799 H2813 0.961 . S
C2799 H2814 0.961 . S
C2799 H2815 0.961 . S
C2800 C2801 1.370 . S
C2800 C2802 1.363 . S
C2800 H2816 0.931 . S
C2801 C2800 1.370 . S
C2801 C2805 1.408 . S
C2802 C2800 1.363 . S
C2802 C2803 1.370 . S
C2802 C2806 1.524 . S
C2803 C2795 1.503 . S
C2803 C2802 1.370 . S
C2803 C2804 1.403 . S
C2804 C2803 1.403 . S
C2804 C2805 1.404 . S
C2804 C2807 1.539 . S
C2805 C2801 1.408 . S
C2805 C2804 1.404 . S
C2805 H2817 0.930 . S
C2806 C2802 1.524 . S
C2806 H2818 0.956 . S
C2806 H2819 0.961 . S
C2806 H2820 0.961 . S
C2807 C2804 1.539 . S
C2807 H2821 0.958 . S
C2807 H2822 0.961 . S
C2807 H2823 0.960 . S
H2808 C2792 0.931 . S
H2809 C2797 0.929 . S
H2810 C2798 0.960 . S
H2811 C2798 0.962 . S
H2812 C2798 0.960 . S
H2813 C2799 0.961 . S
H2814 C2799 0.961 . S
H2815 C2799 0.961 . S
H2816 C2800 0.931 . S
H2817 C2805 0.930 . S
H2818 C2806 0.956 . S
H2819 C2806 0.961 . S
H2820 C2806 0.961 . S
H2821 C2807 0.958 . S
H2822 C2807 0.961 . S
H2823 C2807 0.960 . S
C2824 C2825 1.391 1_545 S
C2824 C2826 1.394 1_545 S
C2824 H2840 0.931 . S
C2825 C2824 1.391 1_565 S
C2825 C2829 1.376 . S
C2826 C2824 1.394 1_565 S
C2826 C2827 1.369 . S
C2826 C2830 1.531 1_565 S
C2827 C2826 1.369 . S
C2827 C2828 1.410 . S
C2827 C2835 1.503 . S
C2828 C2827 1.410 . S
C2828 C2829 1.392 . S
C2828 C2831 1.511 . S
C2829 C2825 1.376 . S
C2829 C2828 1.392 . S
C2829 H2841 0.929 . S
C2830 C2826 1.531 1_545 S
C2830 H2842 0.960 1_545 S
C2830 H2843 0.962 . S
C2830 H2844 0.960 . S
C2831 C2828 1.511 . S
C2831 H2845 0.961 . S
C2831 H2846 0.961 . S
C2831 H2847 0.961 . S
C2832 C2833 1.368 1_545 S
C2832 C2834 1.364 . S
C2832 H2848 0.933 . S
C2833 C2832 1.368 1_565 S
C2833 C2837 1.408 . S
C2834 C2832 1.364 . S
C2834 C2835 1.370 1_545 S
C2834 C2838 1.524 . S
C2835 C2827 1.503 . S
C2835 C2834 1.370 1_565 S
C2835 C2836 1.403 . S
C2836 C2835 1.403 . S
C2836 C2837 1.404 . S
C2836 C2839 1.539 . S
C2837 C2833 1.408 . S
C2837 C2836 1.404 . S
C2837 H2849 0.930 . S
C2838 C2834 1.524 . S
C2838 H2850 0.956 . S
C2838 H2851 0.961 . S
C2838 H2852 0.961 . S
C2839 C2836 1.539 . S
C2839 H2853 0.958 . S
C2839 H2854 0.961 . S
C2839 H2855 0.960 . S
H2840 C2824 0.931 . S
H2841 C2829 0.929 . S
H2842 C2830 0.960 1_565 S
H2843 C2830 0.962 . S
H2844 C2830 0.960 . S
H2845 C2831 0.961 . S
H2846 C2831 0.961 . S
H2847 C2831 0.961 . S
H2848 C2832 0.933 . S
H2849 C2837 0.930 . S
H2850 C2838 0.956 . S
H2851 C2838 0.961 . S
H2852 C2838 0.961 . S
H2853 C2839 0.958 . S
H2854 C2839 0.961 . S
H2855 C2839 0.960 . S
C2856 C2857 1.391 . S
C2856 C2858 1.394 . S
C2856 H2872 0.931 . S
C2857 C2856 1.391 . S
C2857 C2861 1.376 1_545 S
C2858 C2856 1.394 . S
C2858 C2859 1.369 . S
C2858 C2862 1.531 . S
C2859 C2858 1.369 . S
C2859 C2860 1.410 1_545 S
C2859 C2867 1.503 . S
C2860 C2859 1.410 1_565 S
C2860 C2861 1.392 . S
C2860 C2863 1.511 . S
C2861 C2857 1.376 1_565 S
C2861 C2860 1.392 . S
C2861 H2873 0.929 . S
C2862 C2858 1.531 . S
C2862 H2874 0.960 . S
C2862 H2875 0.962 . S
C2862 H2876 0.960 . S
C2863 C2860 1.511 . S
C2863 H2877 0.961 . S
C2863 H2878 0.961 . S
C2863 H2879 0.961 . S
C2864 C2865 1.370 . S
C2864 C2866 1.363 . S
C2864 H2880 0.931 . S
C2865 C2864 1.370 . S
C2865 C2869 1.408 . S
C2866 C2864 1.363 . S
C2866 C2867 1.370 . S
C2866 C2870 1.524 . S
C2867 C2859 1.503 . S
C2867 C2866 1.370 . S
C2867 C2868 1.403 . S
C2868 C2867 1.403 . S
C2868 C2869 1.404 . S
C2868 C2871 1.539 1_545 S
C2869 C2865 1.408 . S
C2869 C2868 1.404 . S
C2869 H2881 0.930 1_545 S
C2870 C2866 1.524 . S
C2870 H2882 0.956 . S
C2870 H2883 0.961 . S
C2870 H2884 0.961 . S
C2871 C2868 1.539 1_565 S
C2871 H2885 0.958 1_565 S
C2871 H2886 0.961 . S
C2871 H2887 0.960 . S
H2872 C2856 0.931 . S
H2873 C2861 0.929 . S
H2874 C2862 0.960 . S
H2875 C2862 0.962 . S
H2876 C2862 0.960 . S
H2877 C2863 0.961 . S
H2878 C2863 0.961 . S
H2879 C2863 0.961 . S
H2880 C2864 0.931 . S
H2881 C2869 0.930 1_565 S
H2882 C2870 0.956 . S
H2883 C2870 0.961 . S
H2884 C2870 0.961 . S
H2885 C2871 0.958 1_545 S
H2886 C2871 0.961 . S
H2887 C2871 0.960 . S
C2888 C2889 1.391 . S
C2888 C2890 1.394 . S
C2888 H2904 0.931 . S
C2889 C2888 1.391 . S
C2889 C2893 1.376 . S
C2890 C2888 1.394 . S
C2890 C2891 1.369 . S
C2890 C2894 1.531 . S
C2891 C2890 1.369 . S
C2891 C2892 1.410 . S
C2891 C2899 1.503 . S
C2892 C2891 1.410 . S
C2892 C2893 1.392 . S
C2892 C2895 1.511 . S
C2893 C2889 1.376 . S
C2893 C2892 1.392 . S
C2893 H2905 0.929 . S
C2894 C2890 1.531 . S
C2894 H2906 0.960 . S
C2894 H2907 0.962 . S
C2894 H2908 0.960 . S
C2895 C2892 1.511 . S
C2895 H2909 0.961 . S
C2895 H2910 0.961 . S
C2895 H2911 0.961 . S
C2896 C2897 1.370 . S
C2896 C2898 1.363 . S
C2896 H2912 0.931 . S
C2897 C2896 1.370 . S
C2897 C2901 1.408 . S
C2898 C2896 1.363 . S
C2898 C2899 1.370 . S
C2898 C2902 1.524 . S
C2899 C2891 1.503 . S
C2899 C2898 1.370 . S
C2899 C2900 1.403 . S
C2900 C2899 1.403 . S
C2900 C2901 1.404 . S
C2900 C2903 1.539 . S
C2901 C2897 1.408 . S
C2901 C2900 1.404 . S
C2901 H2913 0.930 . S
C2902 C2898 1.524 . S
C2902 H2914 0.956 . S
C2902 H2915 0.961 . S
C2902 H2916 0.961 . S
C2903 C2900 1.539 . S
C2903 H2917 0.958 . S
C2903 H2918 0.961 . S
C2903 H2919 0.960 . S
H2904 C2888 0.931 . S
H2905 C2893 0.929 . S
H2906 C2894 0.960 . S
H2907 C2894 0.962 . S
H2908 C2894 0.960 . S
H2909 C2895 0.961 . S
H2910 C2895 0.961 . S
H2911 C2895 0.961 . S
H2912 C2896 0.931 . S
H2913 C2901 0.930 . S
H2914 C2902 0.956 . S
H2915 C2902 0.961 . S
H2916 C2902 0.961 . S
H2917 C2903 0.958 . S
H2918 C2903 0.961 . S
H2919 C2903 0.960 . S
C2920 C2921 1.391 . S
C2920 C2922 1.394 . S
C2920 H2936 0.931 . S
C2921 C2920 1.391 . S
C2921 C2925 1.376 . S
C2922 C2920 1.394 . S
C2922 C2923 1.369 . S
C2922 C2926 1.531 . S
C2923 C2922 1.369 . S
C2923 C2924 1.410 . S
C2923 C2931 1.503 . S
C2924 C2923 1.410 . S
C2924 C2925 1.392 . S
C2924 C2927 1.511 . S
C2925 C2921 1.376 . S
C2925 C2924 1.392 . S
C2925 H2937 0.929 . S
C2926 C2922 1.531 . S
C2926 H2938 0.960 . S
C2926 H2939 0.962 . S
C2926 H2940 0.960 . S
C2927 C2924 1.511 . S
C2927 H2941 0.961 1_554 S
C2927 H2942 0.961 1_554 S
C2927 H2943 0.961 . S
C2928 C2929 1.370 1_556 S
C2928 C2930 1.363 . S
C2928 H2944 0.931 . S
C2929 C2928 1.370 1_554 S
C2929 C2933 1.408 . S
C2930 C2928 1.363 . S
C2930 C2931 1.370 1_556 S
C2930 C2934 1.524 . S
C2931 C2923 1.503 . S
C2931 C2930 1.370 1_554 S
C2931 C2932 1.403 . S
C2932 C2931 1.403 . S
C2932 C2933 1.404 . S
C2932 C2935 1.539 . S
C2933 C2929 1.408 . S
C2933 C2932 1.404 . S
C2933 H2945 0.930 . S
C2934 C2930 1.524 . S
C2934 H2946 0.956 . S
C2934 H2947 0.961 . S
C2934 H2948 0.961 . S
C2935 C2932 1.539 . S
C2935 H2949 0.958 . S
C2935 H2950 0.961 . S
C2935 H2951 0.960 . S
H2936 C2920 0.931 . S
H2937 C2925 0.929 . S
H2938 C2926 0.960 . S
H2939 C2926 0.962 . S
H2940 C2926 0.960 . S
H2941 C2927 0.961 1_556 S
H2942 C2927 0.961 1_556 S
H2943 C2927 0.961 . S
H2944 C2928 0.931 . S
H2945 C2933 0.930 . S
H2946 C2934 0.956 . S
H2947 C2934 0.961 . S
H2948 C2934 0.961 . S
H2949 C2935 0.958 . S
H2950 C2935 0.961 . S
H2951 C2935 0.960 . S
C2952 C2953 1.391 . S
C2952 C2954 1.394 . S
C2952 H2968 0.931 . S
C2953 C2952 1.391 . S
C2953 C2957 1.376 . S
C2954 C2952 1.394 . S
C2954 C2955 1.369 . S
C2954 C2958 1.531 . S
C2955 C2954 1.369 . S
C2955 C2956 1.410 . S
C2955 C2963 1.503 . S
C2956 C2955 1.410 . S
C2956 C2957 1.392 . S
C2956 C2959 1.511 . S
C2957 C2953 1.376 . S
C2957 C2956 1.392 . S
C2957 H2969 0.929 . S
C2958 C2954 1.531 . S
C2958 H2970 0.960 . S
C2958 H2971 0.962 . S
C2958 H2972 0.960 . S
C2959 C2956 1.511 . S
C2959 H2973 0.961 . S
C2959 H2974 0.961 . S
C2959 H2975 0.961 . S
C2960 C2961 1.370 . S
C2960 C2962 1.363 . S
C2960 H2976 0.931 . S
C2961 C2960 1.370 . S
C2961 C2965 1.408 . S
C2962 C2960 1.363 . S
C2962 C2963 1.370 . S
C2962 C2966 1.524 . S
C2963 C2955 1.503 . S
C2963 C2962 1.370 . S
C2963 C2964 1.403 . S
C2964 C2963 1.403 . S
C2964 C2965 1.404 . S
C2964 C2967 1.539 . S
C2965 C2961 1.408 . S
C2965 C2964 1.404 . S
C2965 H2977 0.930 . S
C2966 C2962 1.524 . S
C2966 H2978 0.956 . S
C2966 H2979 0.961 . S
C2966 H2980 0.961 . S
C2967 C2964 1.539 . S
C2967 H2981 0.958 . S
C2967 H2982 0.961 . S
C2967 H2983 0.960 . S
H2968 C2952 0.931 . S
H2969 C2957 0.929 . S
H2970 C2958 0.960 . S
H2971 C2958 0.962 . S
H2972 C2958 0.960 . S
H2973 C2959 0.961 . S
H2974 C2959 0.961 . S
H2975 C2959 0.961 . S
H2976 C2960 0.931 . S
H2977 C2965 0.930 . S
H2978 C2966 0.956 . S
H2979 C2966 0.961 . S
H2980 C2966 0.961 . S
H2981 C2967 0.958 . S
H2982 C2967 0.961 . S
H2983 C2967 0.960 . S
C2984 C2985 1.391 1_554 S
C2984 C2986 1.394 . S
C2984 H3000 0.931 . S
C2985 C2984 1.391 1_556 S
C2985 C2989 1.376 . S
C2986 C2984 1.394 . S
C2986 C2987 1.369 1_554 S
C2986 C2990 1.531 . S
C2987 C2986 1.369 1_556 S
C2987 C2988 1.410 . S
C2987 C2995 1.503 . S
C2988 C2987 1.410 . S
C2988 C2989 1.392 . S
C2988 C2991 1.511 . S
C2989 C2985 1.376 . S
C2989 C2988 1.392 . S
C2989 H3001 0.929 . S
C2990 C2986 1.531 . S
C2990 H3002 0.960 . S
C2990 H3003 0.962 . S
C2990 H3004 0.960 . S
C2991 C2988 1.511 . S
C2991 H3005 0.961 . S
C2991 H3006 0.961 . S
C2991 H3007 0.961 . S
C2992 C2993 1.370 . S
C2992 C2994 1.363 . S
C2992 H3008 0.909 1_556 S
C2993 C2992 1.370 . S
C2993 C2997 1.408 . S
C2994 C2992 1.363 . S
C2994 C2995 1.370 . S
C2994 C2998 1.524 1_556 S
C2995 C2987 1.503 . S
C2995 C2994 1.370 . S
C2995 C2996 1.403 . S
C2996 C2995 1.403 . S
C2996 C2997 1.404 . S
C2996 C2999 1.539 . S
C2997 C2993 1.408 . S
C2997 C2996 1.404 . S
C2997 H3009 0.930 . S
C2998 C2994 1.524 1_554 S
C2998 H3010 0.956 . S
C2998 H3011 0.975 . S
C2998 H3012 0.961 . S
C2999 C2996 1.539 . S
C2999 H3013 0.958 . S
C2999 H3014 0.961 . S
C2999 H3015 0.960 . S
H3000 C2984 0.931 . S
H3001 C2989 0.929 . S
H3002 C2990 0.960 . S
H3003 C2990 0.962 . S
H3004 C2990 0.960 . S
H3005 C2991 0.961 . S
H3006 C2991 0.961 . S
H3007 C2991 0.961 . S
H3008 C2992 0.909 1_554 S
H3009 C2997 0.930 . S
H3010 C2998 0.956 . S
H3011 C2998 0.975 . S
H3012 C2998 0.961 . S
H3013 C2999 0.958 . S
H3014 C2999 0.961 . S
H3015 C2999 0.960 . S
C3016 C3017 1.391 . S
C3016 C3018 1.394 . S
C3016 H3032 0.931 . S
C3017 C3016 1.391 . S
C3017 C3021 1.376 . S
C3018 C3016 1.394 . S
C3018 C3019 1.369 . S
C3018 C3022 1.531 . S
C3019 C3018 1.369 . S
C3019 C3020 1.410 . S
C3019 C3027 1.503 . S
C3020 C3019 1.410 . S
C3020 C3021 1.392 . S
C3020 C3023 1.511 . S
C3021 C3017 1.376 . S
C3021 C3020 1.392 . S
C3021 H3033 0.929 . S
C3022 C3018 1.531 . S
C3022 H3034 0.960 . S
C3022 H3035 0.962 . S
C3022 H3036 0.960 . S
C3023 C3020 1.511 . S
C3023 H3037 0.961 . S
C3023 H3038 0.961 . S
C3023 H3039 0.961 . S
C3024 C3025 1.370 . S
C3024 C3026 1.363 . S
C3024 H3040 0.931 . S
C3025 C3024 1.370 . S
C3025 C3029 1.408 . S
C3026 C3024 1.363 . S
C3026 C3027 1.370 . S
C3026 C3030 1.524 . S
C3027 C3019 1.503 . S
C3027 C3026 1.370 . S
C3027 C3028 1.403 . S
C3028 C3027 1.403 . S
C3028 C3029 1.404 . S
C3028 C3031 1.539 . S
C3029 C3025 1.408 . S
C3029 C3028 1.404 . S
C3029 H3041 0.930 . S
C3030 C3026 1.524 . S
C3030 H3042 0.956 . S
C3030 H3043 0.961 . S
C3030 H3044 0.961 . S
C3031 C3028 1.539 . S
C3031 H3045 0.958 . S
C3031 H3046 0.961 . S
C3031 H3047 0.960 . S
H3032 C3016 0.931 . S
H3033 C3021 0.929 . S
H3034 C3022 0.960 . S
H3035 C3022 0.962 . S
H3036 C3022 0.960 . S
H3037 C3023 0.961 . S
H3038 C3023 0.961 . S
H3039 C3023 0.961 . S
H3040 C3024 0.931 . S
H3041 C3029 0.930 . S
H3042 C3030 0.956 . S
H3043 C3030 0.961 . S
H3044 C3030 0.961 . S
H3045 C3031 0.958 . S
H3046 C3031 0.961 . S
H3047 C3031 0.960 . S
C3048 C3049 1.391 . S
C3048 C3050 1.394 . S
C3048 H3064 0.931 . S
C3049 C3048 1.391 . S
C3049 C3053 1.376 . S
C3050 C3048 1.394 . S
C3050 C3051 1.369 . S
C3050 C3054 1.531 . S
C3051 C3050 1.369 . S
C3051 C3052 1.410 . S
C3051 C3059 1.503 . S
C3052 C3051 1.410 . S
C3052 C3053 1.392 . S
C3052 C3055 1.511 1_455 S
C3053 C3049 1.376 . S
C3053 C3052 1.392 . S
C3053 H3065 0.929 1_455 S
C3054 C3050 1.531 . S
C3054 H3066 0.960 . S
C3054 H3067 0.962 . S
C3054 H3068 0.960 . S
C3055 C3052 1.511 1_655 S
C3055 H3069 0.961 . S
C3055 H3070 0.961 . S
C3055 H3071 0.961 . S
C3056 C3057 1.370 1_655 S
C3056 C3058 1.363 . S
C3056 H3072 0.931 . S
C3057 C3056 1.370 1_455 S
C3057 C3061 1.408 . S
C3058 C3056 1.363 . S
C3058 C3059 1.357 1_655 S
C3058 C3062 1.538 . S
C3059 C3051 1.503 . S
C3059 C3058 1.357 1_455 S
C3059 C3060 1.403 . S
C3060 C3059 1.403 . S
C3060 C3061 1.404 . S
C3060 C3063 1.539 . S
C3061 C3057 1.408 . S
C3061 C3060 1.404 . S
C3061 H3073 0.930 . S
C3062 C3058 1.538 . S
C3062 H3074 0.956 . S
C3062 H3075 0.961 . S
C3062 H3076 0.961 . S
C3063 C3060 1.539 . S
C3063 H3077 0.958 . S
C3063 H3078 0.961 . S
C3063 H3079 0.960 . S
H3064 C3048 0.931 . S
H3065 C3053 0.929 1_655 S
H3066 C3054 0.960 . S
H3067 C3054 0.962 . S
H3068 C3054 0.960 . S
H3069 C3055 0.961 . S
H3070 C3055 0.961 . S
H3071 C3055 0.961 . S
H3072 C3056 0.931 . S
H3073 C3061 0.930 . S
H3074 C3062 0.956 . S
H3075 C3062 0.961 . S
H3076 C3062 0.961 . S
H3077 C3063 0.958 . S
H3078 C3063 0.961 . S
H3079 C3063 0.960 . S
C3080 C3081 1.391 . S
C3080 C3082 1.394 . S
C3080 H3096 0.931 . S
C3081 C3080 1.391 . S
C3081 C3085 1.376 . S
C3082 C3080 1.394 . S
C3082 C3083 1.369 . S
C3082 C3086 1.531 . S
C3083 C3082 1.369 . S
C3083 C3084 1.410 . S
C3083 C3091 1.503 . S
C3084 C3083 1.410 . S
C3084 C3085 1.392 . S
C3084 C3087 1.511 . S
C3085 C3081 1.376 . S
C3085 C3084 1.392 . S
C3085 H3097 0.929 . S
C3086 C3082 1.531 . S
C3086 H3098 0.960 . S
C3086 H3099 0.962 . S
C3086 H3100 0.960 . S
C3087 C3084 1.511 . S
C3087 H3101 0.961 . S
C3087 H3102 0.961 . S
C3087 H3103 0.961 . S
C3088 C3089 1.370 . S
C3088 C3090 1.363 . S
C3088 H3104 0.931 . S
C3089 C3088 1.370 . S
C3089 C3093 1.408 . S
C3090 C3088 1.363 . S
C3090 C3091 1.370 . S
C3090 C3094 1.524 . S
C3091 C3083 1.503 . S
C3091 C3090 1.370 . S
C3091 C3092 1.403 . S
C3092 C3091 1.403 . S
C3092 C3093 1.404 . S
C3092 C3095 1.539 . S
C3093 C3089 1.408 . S
C3093 C3092 1.404 . S
C3093 H3105 0.930 . S
C3094 C3090 1.524 . S
C3094 H3106 0.956 . S
C3094 H3107 0.961 . S
C3094 H3108 0.961 . S
C3095 C3092 1.539 . S
C3095 H3109 0.958 . S
C3095 H3110 0.961 . S
C3095 H3111 0.960 . S
H3096 C3080 0.931 . S
H3097 C3085 0.929 . S
H3098 C3086 0.960 . S
H3099 C3086 0.962 . S
H3100 C3086 0.960 . S
H3101 C3087 0.961 . S
H3102 C3087 0.961 . S
H3103 C3087 0.961 . S
H3104 C3088 0.931 . S
H3105 C3093 0.930 . S
H3106 C3094 0.956 . S
H3107 C3094 0.961 . S
H3108 C3094 0.961 . S
H3109 C3095 0.958 . S
H3110 C3095 0.961 . S
H3111 C3095 0.960 . S
C3112 C3113 1.391 1_455 S
C3112 C3114 1.394 . S
C3112 H3128 0.931 . S
C3113 C3112 1.391 1_655 S
C3113 C3117 1.376 . S
C3114 C3112 1.394 . S
C3114 C3115 1.369 1_455 S
C3114 C3118 1.531 . S
C3115 C3114 1.369 1_655 S
C3115 C3116 1.410 . S
C3115 C3123 1.503 . S
C3116 C3115 1.410 . S
C3116 C3117 1.392 . S
C3116 C3119 1.511 . S
C3117 C3113 1.376 . S
C3117 C3116 1.392 . S
C3117 H3129 0.929 . S
C3118 C3114 1.531 . S
C3118 H3130 0.960 . S
C3118 H3131 0.962 . S
C3118 H3132 0.960 . S
C3119 C3116 1.511 . S
C3119 H3133 0.961 . S
C3119 H3134 0.961 . S
C3119 H3135 0.961 . S
C3120 C3121 1.370 . S
C3120 C3122 1.363 . S
C3120 H3136 0.931 1_655 S
C3121 C3120 1.370 . S
C3121 C3125 1.408 . S
C3122 C3120 1.363 . S
C3122 C3123 1.370 . S
C3122 C3126 1.524 1_655 S
C3123 C3115 1.503 . S
C3123 C3122 1.370 . S
C3123 C3124 1.403 . S
C3124 C3123 1.403 . S
C3124 C3125 1.404 . S
C3124 C3127 1.539 . S
C3125 C3121 1.408 . S
C3125 C3124 1.404 . S
C3125 H3137 0.930 . S
C3126 C3122 1.524 1_455 S
C3126 H3138 0.956 . S
C3126 H3139 0.961 . S
C3126 H3140 0.961 . S
C3127 C3124 1.539 . S
C3127 H3141 0.958 . S
C3127 H3142 0.961 . S
C3127 H3143 0.960 . S
H3128 C3112 0.931 . S
H3129 C3117 0.929 . S
H3130 C3118 0.960 . S
H3131 C3118 0.962 . S
H3132 C3118 0.960 . S
H3133 C3119 0.961 . S
H3134 C3119 0.961 . S
H3135 C3119 0.961 . S
H3136 C3120 0.931 1_455 S
H3137 C3125 0.930 . S
H3138 C3126 0.956 . S
H3139 C3126 0.961 . S
H3140 C3126 0.961 . S
H3141 C3127 0.958 . S
H3142 C3127 0.961 . S
H3143 C3127 0.960 . S
C3144 C3145 1.391 . S
C3144 C3146 1.394 . S
C3144 H3160 0.931 . S
C3145 C3144 1.391 . S
C3145 C3149 1.376 . S
C3146 C3144 1.394 . S
C3146 C3147 1.369 . S
C3146 C3150 1.531 . S
C3147 C3146 1.369 . S
C3147 C3148 1.410 . S
C3147 C3155 1.503 . S
C3148 C3147 1.410 . S
C3148 C3149 1.392 . S
C3148 C3151 1.511 . S
C3149 C3145 1.376 . S
C3149 C3148 1.392 . S
C3149 H3161 0.929 . S
C3150 C3146 1.531 . S
C3150 H3162 0.960 . S
C3150 H3163 0.962 . S
C3150 H3164 0.960 . S
C3151 C3148 1.511 . S
C3151 H3165 0.961 . S
C3151 H3166 0.961 . S
C3151 H3167 0.961 . S
C3152 C3153 1.370 . S
C3152 C3154 1.363 . S
C3152 H3168 0.931 . S
C3153 C3152 1.370 . S
C3153 C3157 1.408 . S
C3154 C3152 1.363 . S
C3154 C3155 1.370 . S
C3154 C3158 1.524 . S
C3155 C3147 1.503 . S
C3155 C3154 1.370 . S
C3155 C3156 1.403 . S
C3156 C3155 1.403 . S
C3156 C3157 1.404 . S
C3156 C3159 1.539 . S
C3157 C3153 1.408 . S
C3157 C3156 1.404 . S
C3157 H3169 0.930 . S
C3158 C3154 1.524 . S
C3158 H3170 0.956 . S
C3158 H3171 0.961 . S
C3158 H3172 0.961 . S
C3159 C3156 1.539 . S
C3159 H3173 0.958 . S
C3159 H3174 0.961 . S
C3159 H3175 0.960 . S
H3160 C3144 0.931 . S
H3161 C3149 0.929 . S
H3162 C3150 0.960 . S
H3163 C3150 0.962 . S
H3164 C3150 0.960 . S
H3165 C3151 0.961 . S
H3166 C3151 0.961 . S
H3167 C3151 0.961 . S
H3168 C3152 0.931 . S
H3169 C3157 0.930 . S
H3170 C3158 0.956 . S
H3171 C3158 0.961 . S
H3172 C3158 0.961 . S
H3173 C3159 0.958 . S
H3174 C3159 0.961 . S
H3175 C3159 0.960 . S
C3176 C3177 1.391 . S
C3176 C3178 1.394 . S
C3176 H3192 0.931 . S
C3177 C3176 1.391 . S
C3177 C3181 1.376 . S
C3178 C3176 1.394 . S
C3178 C3179 1.369 . S
C3178 C3182 1.531 . S
C3179 C3178 1.369 . S
C3179 C3180 1.410 . S
C3179 C3187 1.503 . S
C3180 C3179 1.410 . S
C3180 C3181 1.392 . S
C3180 C3183 1.511 . S
C3181 C3177 1.376 . S
C3181 C3180 1.392 . S
C3181 H3193 0.929 . S
C3182 C3178 1.531 . S
C3182 H3194 0.960 . S
C3182 H3195 0.962 . S
C3182 H3196 0.960 . S
C3183 C3180 1.511 . S
C3183 H3197 0.961 . S
C3183 H3198 0.961 . S
C3183 H3199 0.961 . S
C3184 C3185 1.370 . S
C3184 C3186 1.363 . S
C3184 H3200 0.931 . S
C3185 C3184 1.370 . S
C3185 C3189 1.408 . S
C3186 C3184 1.363 . S
C3186 C3187 1.370 . S
C3186 C3190 1.524 . S
C3187 C3179 1.503 . S
C3187 C3186 1.370 . S
C3187 C3188 1.403 . S
C3188 C3187 1.403 . S
C3188 C3189 1.404 . S
C3188 C3191 1.539 . S
C3189 C3185 1.408 . S
C3189 C3188 1.404 . S
C3189 H3201 0.930 . S
C3190 C3186 1.524 . S
C3190 H3202 0.956 . S
C3190 H3203 0.961 . S
C3190 H3204 0.961 . S
C3191 C3188 1.539 . S
C3191 H3205 0.958 . S
C3191 H3206 0.961 . S
C3191 H3207 0.960 . S
H3192 C3176 0.931 . S
H3193 C3181 0.929 . S
H3194 C3182 0.960 . S
H3195 C3182 0.962 . S
H3196 C3182 0.960 . S
H3197 C3183 0.961 . S
H3198 C3183 0.961 . S
H3199 C3183 0.961 . S
H3200 C3184 0.931 . S
H3201 C3189 0.930 . S
H3202 C3190 0.956 . S
H3203 C3190 0.961 . S
H3204 C3190 0.961 . S
H3205 C3191 0.958 . S
H3206 C3191 0.961 . S
H3207 C3191 0.960 . S
C3208 C3209 1.391 1_565 S
C3208 C3210 1.394 . S
C3208 H3224 0.931 . S
C3209 C3208 1.391 1_545 S
C3209 C3213 1.376 . S
C3210 C3208 1.394 . S
C3210 C3211 1.369 1_565 S
C3210 C3214 1.531 . S
C3211 C3210 1.369 1_545 S
C3211 C3212 1.410 . S
C3211 C3219 1.503 . S
C3212 C3211 1.410 . S
C3212 C3213 1.392 . S
C3212 C3215 1.511 . S
C3213 C3209 1.376 . S
C3213 C3212 1.392 . S
C3213 H3225 0.929 . S
C3214 C3210 1.531 . S
C3214 H3226 0.960 . S
C3214 H3227 0.962 . S
C3214 H3228 0.960 . S
C3215 C3212 1.511 . S
C3215 H3229 0.961 . S
C3215 H3230 0.961 . S
C3215 H3231 0.961 . S
C3216 C3217 1.370 . S
C3216 C3218 1.367 . S
C3216 H3232 0.931 1_545 S
C3217 C3216 1.370 . S
C3217 C3221 1.408 . S
C3218 C3216 1.367 . S
C3218 C3219 1.379 . S
C3218 C3222 1.512 1_545 S
C3219 C3211 1.503 . S
C3219 C3218 1.379 . S
C3219 C3220 1.403 . S
C3220 C3219 1.403 . S
C3220 C3221 1.404 . S
C3220 C3223 1.539 . S
C3221 C3217 1.408 . S
C3221 C3220 1.404 . S
C3221 H3233 0.930 . S
C3222 C3218 1.512 1_565 S
C3222 H3234 0.956 . S
C3222 H3235 0.961 . S
C3222 H3236 0.961 . S
C3223 C3220 1.539 . S
C3223 H3237 0.958 . S
C3223 H3238 0.961 . S
C3223 H3239 0.960 . S
H3224 C3208 0.931 . S
H3225 C3213 0.929 . S
H3226 C3214 0.960 . S
H3227 C3214 0.962 . S
H3228 C3214 0.960 . S
H3229 C3215 0.961 . S
H3230 C3215 0.961 . S
H3231 C3215 0.961 . S
H3232 C3216 0.931 1_565 S
H3233 C3221 0.930 . S
H3234 C3222 0.956 . S
H3235 C3222 0.961 . S
H3236 C3222 0.961 . S
H3237 C3223 0.958 . S
H3238 C3223 0.961 . S
H3239 C3223 0.960 . S
C3240 C3241 1.391 1_545 S
C3240 C3242 1.394 . S
C3240 H3256 0.931 . S
C3241 C3240 1.391 1_565 S
C3241 C3245 1.376 . S
C3242 C3240 1.394 . S
C3242 C3243 1.369 1_545 S
C3242 C3246 1.531 . S
C3243 C3242 1.369 1_565 S
C3243 C3244 1.410 . S
C3243 C3251 1.503 . S
C3244 C3243 1.410 . S
C3244 C3245 1.392 . S
C3244 C3247 1.511 . S
C3245 C3241 1.376 . S
C3245 C3244 1.392 . S
C3245 H3257 0.929 . S
C3246 C3242 1.531 . S
C3246 H3258 0.960 . S
C3246 H3259 0.962 . S
C3246 H3260 0.960 . S
C3247 C3244 1.511 . S
C3247 H3261 0.961 . S
C3247 H3262 0.961 . S
C3247 H3263 0.961 . S
C3248 C3249 1.370 . S
C3248 C3250 1.363 . S
C3248 H3264 0.931 1_565 S
C3249 C3248 1.370 . S
C3249 C3253 1.408 . S
C3250 C3248 1.363 . S
C3250 C3251 1.370 . S
C3250 C3254 1.524 1_565 S
C3251 C3243 1.503 . S
C3251 C3250 1.370 . S
C3251 C3252 1.403 . S
C3252 C3251 1.403 . S
C3252 C3253 1.404 . S
C3252 C3255 1.539 . S
C3253 C3249 1.408 . S
C3253 C3252 1.404 . S
C3253 H3265 0.930 . S
C3254 C3250 1.524 1_545 S
C3254 H3266 0.956 . S
C3254 H3267 0.961 1_545 S
C3254 H3268 0.961 . S
C3255 C3252 1.539 . S
C3255 H3269 0.958 . S
C3255 H3270 0.961 . S
C3255 H3271 0.960 . S
H3256 C3240 0.931 . S
H3257 C3245 0.929 . S
H3258 C3246 0.960 . S
H3259 C3246 0.962 . S
H3260 C3246 0.960 . S
H3261 C3247 0.961 . S
H3262 C3247 0.961 . S
H3263 C3247 0.961 . S
H3264 C3248 0.931 1_545 S
H3265 C3253 0.930 . S
H3266 C3254 0.956 . S
H3267 C3254 0.961 1_565 S
H3268 C3254 0.961 . S
H3269 C3255 0.958 . S
H3270 C3255 0.961 . S
H3271 C3255 0.960 . S
C3272 C3273 1.391 . S
C3272 C3274 1.394 . S
C3272 H3288 0.931 . S
C3273 C3272 1.391 . S
C3273 C3277 1.376 . S
C3274 C3272 1.394 . S
C3274 C3275 1.369 . S
C3274 C3278 1.531 . S
C3275 C3274 1.369 . S
C3275 C3276 1.410 . S
C3275 C3283 1.503 . S
C3276 C3275 1.410 . S
C3276 C3277 1.392 . S
C3276 C3279 1.511 . S
C3277 C3273 1.376 . S
C3277 C3276 1.392 . S
C3277 H3289 0.929 . S
C3278 C3274 1.531 . S
C3278 H3290 0.960 . S
C3278 H3291 0.962 . S
C3278 H3292 0.960 . S
C3279 C3276 1.511 . S
C3279 H3293 0.961 . S
C3279 H3294 0.961 . S
C3279 H3295 0.961 . S
C3280 C3281 1.370 . S
C3280 C3282 1.363 . S
C3280 H3296 0.931 . S
C3281 C3280 1.370 . S
C3281 C3285 1.408 . S
C3282 C3280 1.363 . S
C3282 C3283 1.370 . S
C3282 C3286 1.524 . S
C3283 C3275 1.503 . S
C3283 C3282 1.370 . S
C3283 C3284 1.403 . S
C3284 C3283 1.403 . S
C3284 C3285 1.404 . S
C3284 C3287 1.539 . S
C3285 C3281 1.408 . S
C3285 C3284 1.404 . S
C3285 H3297 0.930 . S
C3286 C3282 1.524 . S
C3286 H3298 0.956 . S
C3286 H3299 0.961 . S
C3286 H3300 0.961 . S
C3287 C3284 1.539 . S
C3287 H3301 0.958 . S
C3287 H3302 0.961 . S
C3287 H3303 0.960 . S
H3288 C3272 0.931 . S
H3289 C3277 0.929 . S
H3290 C3278 0.960 . S
H3291 C3278 0.962 . S
H3292 C3278 0.960 . S
H3293 C3279 0.961 . S
H3294 C3279 0.961 . S
H3295 C3279 0.961 . S
H3296 C3280 0.931 . S
H3297 C3285 0.930 . S
H3298 C3286 0.956 . S
H3299 C3286 0.961 . S
H3300 C3286 0.961 . S
H3301 C3287 0.958 . S
H3302 C3287 0.961 . S
H3303 C3287 0.960 . S
C3304 C3305 1.391 . S
C3304 C3306 1.394 . S
C3304 H3320 0.931 . S
C3305 C3304 1.391 . S
C3305 C3309 1.376 . S
C3306 C3304 1.394 . S
C3306 C3307 1.369 . S
C3306 C3310 1.531 . S
C3307 C3306 1.369 . S
C3307 C3308 1.410 . S
C3307 C3315 1.503 . S
C3308 C3307 1.410 . S
C3308 C3309 1.392 . S
C3308 C3311 1.511 . S
C3309 C3305 1.376 . S
C3309 C3308 1.392 . S
C3309 H3321 0.929 . S
C3310 C3306 1.531 . S
C3310 H3322 0.960 . S
C3310 H3323 0.962 . S
C3310 H3324 0.960 . S
C3311 C3308 1.511 . S
C3311 H3325 0.961 . S
C3311 H3326 0.961 . S
C3311 H3327 0.961 . S
C3312 C3313 1.370 1_554 S
C3312 C3314 1.363 . S
C3312 H3328 0.931 . S
C3313 C3312 1.370 1_556 S
C3313 C3317 1.408 . S
C3314 C3312 1.363 . S
C3314 C3315 1.370 1_554 S
C3314 C3318 1.524 . S
C3315 C3307 1.503 . S
C3315 C3314 1.370 1_556 S
C3315 C3316 1.403 . S
C3316 C3315 1.403 . S
C3316 C3317 1.404 . S
C3316 C3319 1.539 . S
C3317 C3313 1.408 . S
C3317 C3316 1.404 . S
C3317 H3329 0.930 . S
C3318 C3314 1.524 . S
C3318 H3330 0.956 . S
C3318 H3331 0.961 . S
C3318 H3332 0.961 . S
C3319 C3316 1.539 . S
C3319 H3333 0.958 . S
C3319 H3334 0.961 . S
C3319 H3335 0.960 . S
H3320 C3304 0.931 . S
H3321 C3309 0.929 . S
H3322 C3310 0.960 . S
H3323 C3310 0.962 . S
H3324 C3310 0.960 . S
H3325 C3311 0.961 . S
H3326 C3311 0.961 . S
H3327 C3311 0.961 . S
H3328 C3312 0.931 . S
H3329 C3317 0.930 . S
H3330 C3318 0.956 . S
H3331 C3318 0.961 . S
H3332 C3318 0.961 . S
H3333 C3319 0.958 . S
H3334 C3319 0.961 . S
H3335 C3319 0.960 . S
C3336 C3337 1.391 . S
C3336 C3338 1.394 . S
C3336 H3352 0.931 . S
C3337 C3336 1.391 . S
C3337 C3341 1.376 . S
C3338 C3336 1.394 . S
C3338 C3339 1.369 . S
C3338 C3342 1.531 . S
C3339 C3338 1.369 . S
C3339 C3340 1.410 . S
C3339 C3347 1.503 . S
C3340 C3339 1.410 . S
C3340 C3341 1.392 . S
C3340 C3343 1.511 . S
C3341 C3337 1.376 . S
C3341 C3340 1.392 . S
C3341 H3353 0.929 . S
C3342 C3338 1.531 . S
C3342 H3354 0.960 . S
C3342 H3355 0.962 . S
C3342 H3356 0.960 . S
C3343 C3340 1.511 . S
C3343 H3357 0.961 . S
C3343 H3358 0.961 . S
C3343 H3359 0.961 . S
C3344 C3345 1.370 . S
C3344 C3346 1.363 . S
C3344 H3360 0.931 . S
C3345 C3344 1.370 . S
C3345 C3349 1.408 . S
C3346 C3344 1.363 . S
C3346 C3347 1.370 . S
C3346 C3350 1.524 . S
C3347 C3339 1.503 . S
C3347 C3346 1.370 . S
C3347 C3348 1.403 . S
C3348 C3347 1.403 . S
C3348 C3349 1.404 . S
C3348 C3351 1.539 . S
C3349 C3345 1.408 . S
C3349 C3348 1.404 . S
C3349 H3361 0.930 . S
C3350 C3346 1.524 . S
C3350 H3362 0.956 . S
C3350 H3363 0.961 . S
C3350 H3364 0.961 . S
C3351 C3348 1.539 . S
C3351 H3365 0.958 . S
C3351 H3366 0.961 . S
C3351 H3367 0.960 . S
H3352 C3336 0.931 . S
H3353 C3341 0.929 . S
H3354 C3342 0.960 . S
H3355 C3342 0.962 . S
H3356 C3342 0.960 . S
H3357 C3343 0.961 . S
H3358 C3343 0.961 . S
H3359 C3343 0.961 . S
H3360 C3344 0.931 . S
H3361 C3349 0.930 . S
H3362 C3350 0.956 . S
H3363 C3350 0.961 . S
H3364 C3350 0.961 . S
H3365 C3351 0.958 . S
H3366 C3351 0.961 . S
H3367 C3351 0.960 . S
C3368 C3369 1.379 1_556 S
C3368 C3370 1.394 . S
C3368 H3384 0.931 . S
C3369 C3368 1.379 1_554 S
C3369 C3373 1.392 . S
C3370 C3368 1.394 . S
C3370 C3371 1.369 1_556 S
C3370 C3374 1.531 . S
C3371 C3370 1.369 1_554 S
C3371 C3372 1.410 . S
C3371 C3379 1.503 . S
C3372 C3371 1.410 . S
C3372 C3373 1.392 . S
C3372 C3375 1.511 . S
C3373 C3369 1.392 . S
C3373 C3372 1.392 . S
C3373 H3385 0.929 . S
C3374 C3370 1.531 . S
C3374 H3386 0.960 . S
C3374 H3387 0.962 . S
C3374 H3388 0.960 . S
C3375 C3372 1.511 . S
C3375 H3389 0.961 . S
C3375 H3390 0.961 . S
C3375 H3391 0.961 . S
C3376 C3377 1.370 . S
C3376 C3378 1.363 . S
C3376 H3392 0.931 . S
C3377 C3376 1.370 . S
C3377 C3381 1.408 . S
C3378 C3376 1.363 . S
C3378 C3379 1.370 . S
C3378 C3382 1.524 . S
C3379 C3371 1.503 . S
C3379 C3378 1.370 . S
C3379 C3380 1.403 1_554 S
C3380 C3379 1.403 1_556 S
C3380 C3381 1.404 1_556 S
C3380 C3383 1.539 . S
C3381 C3377 1.408 . S
C3381 C3380 1.404 1_554 S
C3381 H3393 0.930 1_554 S
C3382 C3378 1.524 . S
C3382 H3394 0.956 . S
C3382 H3395 0.961 . S
C3382 H3396 0.961 . S
C3383 C3380 1.539 . S
C3383 H3397 0.958 . S
C3383 H3398 0.961 . S
C3383 H3399 0.960 . S
H3384 C3368 0.931 . S
H3385 C3373 0.929 . S
H3386 C3374 0.960 . S
H3387 C3374 0.962 . S
H3388 C3374 0.960 . S
H3389 C3375 0.961 . S
H3390 C3375 0.961 . S
H3391 C3375 0.961 . S
H3392 C3376 0.931 . S
H3393 C3381 0.930 1_556 S
H3394 C3382 0.956 . S
H3395 C3382 0.961 . S
H3396 C3382 0.961 . S
H3397 C3383 0.958 . S
H3398 C3383 0.961 . S
H3399 C3383 0.960 . S
C3400 C3401 1.391 . S
C3400 C3402 1.394 . S
C3400 H3416 0.931 . S
C3401 C3400 1.391 . S
C3401 C3405 1.376 . S
C3402 C3400 1.394 . S
C3402 C3403 1.369 . S
C3402 C3406 1.531 . S
C3403 C3402 1.369 . S
C3403 C3404 1.410 . S
C3403 C3411 1.503 . S
C3404 C3403 1.410 . S
C3404 C3405 1.392 . S
C3404 C3407 1.511 . S
C3405 C3401 1.376 . S
C3405 C3404 1.392 . S
C3405 H3417 0.929 . S
C3406 C3402 1.531 . S
C3406 H3418 0.960 . S
C3406 H3419 0.962 . S
C3406 H3420 0.960 . S
C3407 C3404 1.511 . S
C3407 H3421 0.961 . S
C3407 H3422 0.961 . S
C3407 H3423 0.961 . S
C3408 C3409 1.370 . S
C3408 C3410 1.363 . S
C3408 H3424 0.931 . S
C3409 C3408 1.370 . S
C3409 C3413 1.408 . S
C3410 C3408 1.363 . S
C3410 C3411 1.370 . S
C3410 C3414 1.524 . S
C3411 C3403 1.503 . S
C3411 C3410 1.370 . S
C3411 C3412 1.403 . S
C3412 C3411 1.403 . S
C3412 C3413 1.404 . S
C3412 C3415 1.539 . S
C3413 C3409 1.408 . S
C3413 C3412 1.404 . S
C3413 H3425 0.930 . S
C3414 C3410 1.524 . S
C3414 H3426 0.956 . S
C3414 H3427 0.961 . S
C3414 H3428 0.961 . S
C3415 C3412 1.539 . S
C3415 H3429 0.958 . S
C3415 H3430 0.961 . S
C3415 H3431 0.960 . S
H3416 C3400 0.931 . S
H3417 C3405 0.929 . S
H3418 C3406 0.960 . S
H3419 C3406 0.962 . S
H3420 C3406 0.960 . S
H3421 C3407 0.961 . S
H3422 C3407 0.961 . S
H3423 C3407 0.961 . S
H3424 C3408 0.931 . S
H3425 C3413 0.930 . S
H3426 C3414 0.956 . S
H3427 C3414 0.961 . S
H3428 C3414 0.961 . S
H3429 C3415 0.958 . S
H3430 C3415 0.961 . S
H3431 C3415 0.960 . S
C3432 C3433 1.391 1_455 S
C3432 C3434 1.394 . S
C3432 H3448 0.931 . S
C3433 C3432 1.391 1_655 S
C3433 C3437 1.376 . S
C3434 C3432 1.394 . S
C3434 C3435 1.369 1_455 S
C3434 C3438 1.531 . S
C3435 C3434 1.369 1_655 S
C3435 C3436 1.410 . S
C3435 C3443 1.503 . S
C3436 C3435 1.410 . S
C3436 C3437 1.392 . S
C3436 C3439 1.511 . S
C3437 C3433 1.376 . S
C3437 C3436 1.392 . S
C3437 H3449 0.929 . S
C3438 C3434 1.531 . S
C3438 H3450 0.960 . S
C3438 H3451 0.962 . S
C3438 H3452 0.960 . S
C3439 C3436 1.511 . S
C3439 H3453 0.961 . S
C3439 H3454 0.961 . S
C3439 H3455 0.961 . S
C3440 C3441 1.397 . S
C3440 C3442 1.364 . S
C3440 H3456 0.905 1_655 S
C3441 C3440 1.397 . S
C3441 C3445 1.408 . S
C3442 C3440 1.364 . S
C3442 C3443 1.370 . S
C3442 C3446 1.524 1_655 S
C3443 C3435 1.503 . S
C3443 C3442 1.370 . S
C3443 C3444 1.403 . S
C3444 C3443 1.403 . S
C3444 C3445 1.404 . S
C3444 C3447 1.539 . S
C3445 C3441 1.408 . S
C3445 C3444 1.404 . S
C3445 H3457 0.930 . S
C3446 C3442 1.524 1_455 S
C3446 H3458 0.956 . S
C3446 H3459 0.961 1_455 S
C3446 H3460 0.961 . S
C3447 C3444 1.539 . S
C3447 H3461 0.958 . S
C3447 H3462 0.961 . S
C3447 H3463 0.960 . S
H3448 C3432 0.931 . S
H3449 C3437 0.929 . S
H3450 C3438 0.960 . S
H3451 C3438 0.962 . S
H3452 C3438 0.960 . S
H3453 C3439 0.961 . S
H3454 C3439 0.961 . S
H3455 C3439 0.961 . S
H3456 C3440 0.905 1_455 S
H3457 C3445 0.930 . S
H3458 C3446 0.956 . S
H3459 C3446 0.961 1_655 S
H3460 C3446 0.961 . S
H3461 C3447 0.958 . S
H3462 C3447 0.961 . S
H3463 C3447 0.960 . S
C3464 C3465 1.391 . S
C3464 C3466 1.394 . S
C3464 H3480 0.931 . S
C3465 C3464 1.391 . S
C3465 C3469 1.376 . S
C3466 C3464 1.394 . S
C3466 C3467 1.369 . S
C3466 C3470 1.531 . S
C3467 C3466 1.369 . S
C3467 C3468 1.410 . S
C3467 C3475 1.503 . S
C3468 C3467 1.410 . S
C3468 C3469 1.392 . S
C3468 C3471 1.511 . S
C3469 C3465 1.376 . S
C3469 C3468 1.392 . S
C3469 H3481 0.929 . S
C3470 C3466 1.531 . S
C3470 H3482 0.960 . S
C3470 H3483 0.962 . S
C3470 H3484 0.960 . S
C3471 C3468 1.511 . S
C3471 H3485 0.961 . S
C3471 H3486 0.961 . S
C3471 H3487 0.961 . S
C3472 C3473 1.370 . S
C3472 C3474 1.363 . S
C3472 H3488 0.931 . S
C3473 C3472 1.370 . S
C3473 C3477 1.408 . S
C3474 C3472 1.363 . S
C3474 C3475 1.370 . S
C3474 C3478 1.524 . S
C3475 C3467 1.503 . S
C3475 C3474 1.370 . S
C3475 C3476 1.403 . S
C3476 C3475 1.403 . S
C3476 C3477 1.404 . S
C3476 C3479 1.539 . S
C3477 C3473 1.408 . S
C3477 C3476 1.404 . S
C3477 H3489 0.930 . S
C3478 C3474 1.524 . S
C3478 H3490 0.956 . S
C3478 H3491 0.961 . S
C3478 H3492 0.961 . S
C3479 C3476 1.539 . S
C3479 H3493 0.958 . S
C3479 H3494 0.961 . S
C3479 H3495 0.960 . S
H3480 C3464 0.931 . S
H3481 C3469 0.929 . S
H3482 C3470 0.960 . S
H3483 C3470 0.962 . S
H3484 C3470 0.960 . S
H3485 C3471 0.961 . S
H3486 C3471 0.961 . S
H3487 C3471 0.961 . S
H3488 C3472 0.931 . S
H3489 C3477 0.930 . S
H3490 C3478 0.956 . S
H3491 C3478 0.961 . S
H3492 C3478 0.961 . S
H3493 C3479 0.958 . S
H3494 C3479 0.961 . S
H3495 C3479 0.960 . S
C3496 C3497 1.389 . S
C3496 C3498 1.394 . S
C3496 H3512 0.931 . S
C3497 C3496 1.389 . S
C3497 C3501 1.377 1_455 S
C3498 C3496 1.394 . S
C3498 C3499 1.369 . S
C3498 C3502 1.531 . S
C3499 C3498 1.369 . S
C3499 C3500 1.410 1_455 S
C3499 C3507 1.503 . S
C3500 C3499 1.410 1_655 S
C3500 C3501 1.392 . S
C3500 C3503 1.511 . S
C3501 C3497 1.377 1_655 S
C3501 C3500 1.392 . S
C3501 H3513 0.929 . S
C3502 C3498 1.531 . S
C3502 H3514 0.960 . S
C3502 H3515 0.962 . S
C3502 H3516 0.960 . S
C3503 C3500 1.511 . S
C3503 H3517 0.961 . S
C3503 H3518 0.961 . S
C3503 H3519 0.961 . S
C3504 C3505 1.370 . S
C3504 C3506 1.363 . S
C3504 H3520 0.931 . S
C3505 C3504 1.370 . S
C3505 C3509 1.408 1_455 S
C3506 C3504 1.363 . S
C3506 C3507 1.370 . S
C3506 C3510 1.524 . S
C3507 C3499 1.503 . S
C3507 C3506 1.370 . S
C3507 C3508 1.403 1_455 S
C3508 C3507 1.403 1_655 S
C3508 C3509 1.404 . S
C3508 C3511 1.539 . S
C3509 C3505 1.408 1_655 S
C3509 C3508 1.404 . S
C3509 H3521 0.930 . S
C3510 C3506 1.524 . S
C3510 H3522 0.956 . S
C3510 H3523 0.961 . S
C3510 H3524 0.961 . S
C3511 C3508 1.539 . S
C3511 H3525 0.958 . S
C3511 H3526 0.961 . S
C3511 H3527 0.960 . S
H3512 C3496 0.931 . S
H3513 C3501 0.929 . S
H3514 C3502 0.960 . S
H3515 C3502 0.962 . S
H3516 C3502 0.960 . S
H3517 C3503 0.961 . S
H3518 C3503 0.961 . S
H3519 C3503 0.961 . S
H3520 C3504 0.931 . S
H3521 C3509 0.930 . S
H3522 C3510 0.956 . S
H3523 C3510 0.961 . S
H3524 C3510 0.961 . S
H3525 C3511 0.958 . S
H3526 C3511 0.961 . S
H3527 C3511 0.960 . S
C1233 C1217 1.755 . S
C1225 C15 1.813 . S
C1265 C1184 1.525 . S
C1257 C55 1.491 . S
C1297 C1206 0.765 . S
C1289 C95 0.846 1_545 S
C1329 C1195 1.499 . S
C1321 C135 1.504 . S
C1361 C1118 1.766 . S
C1353 C175 1.829 . S
C1385 C215 1.476 . S
C1393 C1129 1.483 . S
C1425 C1096 1.520 . S
C1417 C255 1.479 . S
C1449 C295 0.834 1_554 S
C1457 C1107 0.793 . S
C1489 C1173 1.768 . S
C1481 C335 1.822 . S
C1513 C375 1.515 . S
C1521 C1151 1.479 . S
C1545 C415 1.433 . S
C1553 C1140 1.512 . S
C1585 C1162 0.766 . S
C1577 C455 0.847 1_455 S
C1617 C1085 1.748 . S
C1609 C495 1.822 . S
C1641 C535 1.431 . S
C1649 C1052 1.515 . S
C1681 C1074 0.832 . S
C1673 C575 0.809 1_545 S
C1705 C615 1.500 . S
C1713 C1063 1.457 . S
C1745 C986 1.755 . S
C1737 C655 1.816 . S
C1777 C997 1.479 . S
C1769 C695 1.517 . S
C1801 C735 1.428 . S
C1809 C964 1.509 . S
C1833 C775 0.821 1_554 S
C1841 C975 0.813 . S
C1865 C815 1.822 . S
C1873 C1041 1.769 . S
C1897 C855 1.514 . S
C1905 C1019 1.481 . S
C1937 C1008 1.519 . S
C1929 C895 1.447 . S
C1961 C935 0.831 1_455 S
C1969 C1030 0.796 . S
C2001 C965 1.630 . S
C1993 C21 1.681 . S
C2033 C976 1.664 . S
C2025 C61 1.749 . S
C2057 C101 0.767 . S
C2065 C987 0.786 . S
C2089 C141 0.931 . S
C2097 C998 0.915 . S
C2129 C1009 1.636 . S
C2121 C181 1.676 . S
C2153 C221 0.900 . S
C2161 C1020 0.891 . S
C2193 C1031 1.667 . S
C2185 C261 1.744 . S
C2225 C1042 0.807 . S
C2217 C301 0.829 1_554 S
C2257 C1053 1.638 . S
C2249 C341 1.675 . S
C2281 C381 0.899 . S
C2289 C1064 0.889 . S
C2313 C421 1.726 . S
C2321 C1075 1.682 . S
C2345 C461 0.777 . S
C2353 C1086 0.793 . S
C2377 C501 1.621 . S
C2385 C1097 1.643 . S
C2409 C541 1.620 . S
C2417 C1108 1.685 . S
C2441 C581 0.810 1_545 S
C2449 C1119 0.791 . S
C2473 C621 0.911 . S
C2481 C1130 0.912 . S
C2505 C661 1.645 . S
C2513 C1141 1.633 . S
C2545 C1152 0.915 . S
C2537 C701 0.878 . S
C2577 C1163 1.696 . S
C2569 C741 1.574 . S
C2609 C1174 0.807 . S
C2601 C781 0.766 . S
C2641 C1185 1.645 . S
C2633 C821 1.619 . S
C2665 C861 0.884 . S
C2673 C1196 0.910 . S
C2697 C901 1.575 . S
C2705 C1207 1.678 . S
C2729 C941 0.825 1_455 S
C2737 C1218 0.787 . S
C2761 C2 1.647 . S
C2769 C1058 1.645 . S
C2801 C1091 1.761 . S
C2793 C42 1.787 . S
C2825 C82 1.505 . S
C2833 C1069 1.495 . S
C2865 C1080 1.564 . S
C2857 C122 1.517 . S
C2889 C162 1.658 . S
C2897 C970 1.633 . S
C2921 C202 1.524 . S
C2929 C981 1.572 . S
C2953 C242 1.797 . S
C2961 C992 1.750 . S
C2985 C282 1.511 . S
C2993 C1003 1.489 . S
C3025 C1014 1.636 . S
C3017 C322 1.646 . S
C3057 C1036 1.571 . S
C3049 C362 1.517 . S
C3081 C402 1.785 . S
C3089 C1047 1.754 . S
C3113 C442 1.511 . S
C3121 C1025 1.490 . S
C3153 C1190 1.636 . S
C3145 C482 1.616 . S
C3185 C1223 1.757 . S
C3177 C522 1.715 . S
C3209 C562 1.554 1_545 S
C3217 C1201 1.488 . S
C3249 C1212 1.575 . S
C3241 C602 1.524 . S
C3273 C642 1.639 . S
C3281 C1102 1.644 . S
C3305 C682 1.551 . S
C3313 C1113 1.576 . S
C3337 C722 1.695 . S
C3345 C1124 1.746 . S
C3377 C1135 1.468 . S
C3369 C762 1.542 1_554 S
C3409 C1146 1.644 . S
C3401 C802 1.644 . S
C3441 C1168 1.575 . S
C3433 C842 1.525 . S
C3465 C882 1.711 . S
C3473 C1179 1.738 . S
C3505 C1157 1.461 . S
C3497 C922 1.544 1_455 S
