# Generated by pormake.
# Topology zzz, (3,6)-cn, num edge types: 1
# Building blocks:
#     Node 0, Type 0, BuildingBlock: KAKCAD_clean_linker_0, # of connection points: 3
#     Node 1, Type 0, BuildingBlock: KAKCAD_clean_linker_0, # of connection points: 3
#     Node 2, Type 0, BuildingBlock: KAKCAD_clean_linker_0, # of connection points: 3
#     Node 3, Type 0, BuildingBlock: KAKCAD_clean_linker_0, # of connection points: 3
#     Node 4, Type 0, BuildingBlock: KAKCAD_clean_linker_0, # of connection points: 3
#     Node 5, Type 0, BuildingBlock: KAKCAD_clean_linker_0, # of connection points: 3
#     Node 6, Type 0, BuildingBlock: KAKCAD_clean_linker_0, # of connection points: 3
#     Node 7, Type 0, BuildingBlock: KAKCAD_clean_linker_0, # of connection points: 3
#     Node 8, Type 1, BuildingBlock: JUFBIX_clean_sbu_0, # of connection points: 6
#     Node 9, Type 1, BuildingBlock: JUFBIX_clean_sbu_0, # of connection points: 6
#     Node 10, Type 1, BuildingBlock: JUFBIX_clean_sbu_0, # of connection points: 6
#     Node 11, Type 1, BuildingBlock: JUFBIX_clean_sbu_0, # of connection points: 6
#     Edge 12, Type (0, 1), BuildingBlock: XIVTED_clean_linker_0, # of connection points: 2
#     Edge 13, Type (0, 1), BuildingBlock: XIVTED_clean_linker_0, # of connection points: 2
#     Edge 14, Type (0, 1), BuildingBlock: XIVTED_clean_linker_0, # of connection points: 2
#     Edge 15, Type (0, 1), BuildingBlock: XIVTED_clean_linker_0, # of connection points: 2
#     Edge 16, Type (0, 1), BuildingBlock: XIVTED_clean_linker_0, # of connection points: 2
#     Edge 17, Type (0, 1), BuildingBlock: XIVTED_clean_linker_0, # of connection points: 2
#     Edge 18, Type (0, 1), BuildingBlock: XIVTED_clean_linker_0, # of connection points: 2
#     Edge 19, Type (0, 1), BuildingBlock: XIVTED_clean_linker_0, # of connection points: 2
#     Edge 20, Type (0, 1), BuildingBlock: XIVTED_clean_linker_0, # of connection points: 2
#     Edge 21, Type (0, 1), BuildingBlock: XIVTED_clean_linker_0, # of connection points: 2
#     Edge 22, Type (0, 1), BuildingBlock: XIVTED_clean_linker_0, # of connection points: 2
#     Edge 23, Type (0, 1), BuildingBlock: XIVTED_clean_linker_0, # of connection points: 2
#     Edge 24, Type (0, 1), BuildingBlock: XIVTED_clean_linker_0, # of connection points: 2
#     Edge 25, Type (0, 1), BuildingBlock: XIVTED_clean_linker_0, # of connection points: 2
#     Edge 26, Type (0, 1), BuildingBlock: XIVTED_clean_linker_0, # of connection points: 2
#     Edge 27, Type (0, 1), BuildingBlock: XIVTED_clean_linker_0, # of connection points: 2
#     Edge 28, Type (0, 1), BuildingBlock: XIVTED_clean_linker_0, # of connection points: 2
#     Edge 29, Type (0, 1), BuildingBlock: XIVTED_clean_linker_0, # of connection points: 2
#     Edge 30, Type (0, 1), BuildingBlock: XIVTED_clean_linker_0, # of connection points: 2
#     Edge 31, Type (0, 1), BuildingBlock: XIVTED_clean_linker_0, # of connection points: 2
#     Edge 32, Type (0, 1), BuildingBlock: XIVTED_clean_linker_0, # of connection points: 2
#     Edge 33, Type (0, 1), BuildingBlock: XIVTED_clean_linker_0, # of connection points: 2
#     Edge 34, Type (0, 1), BuildingBlock: XIVTED_clean_linker_0, # of connection points: 2
#     Edge 35, Type (0, 1), BuildingBlock: XIVTED_clean_linker_0, # of connection points: 2
# Relax obj value: 0.288
# Max RMSD: 0.224
# Mean RMSD: 0.188
data_MOF--net-zzz--node1-JUFBIX_clean_sbu_0--node2-KAKCAD_clean_linker_0--edge1-XIVTED_clean_linker_0
_symmetry_space_group_name_H-M    P1
_symmetry_Int_Tables_number       1
_symmetry_cell_setting            triclinic
loop_
_symmetry_equiv_pos_as_xyz
'x, y, z'
_cell_length_a     57.929804
_cell_length_b     59.771327
_cell_length_c     22.931278
_cell_angle_alpha  82.847192
_cell_angle_beta   90.279768
_cell_angle_gamma 86.576549
loop_
_atom_site_label
_atom_site_type_symbol
_atom_site_fract_x
_atom_site_fract_y
_atom_site_fract_z
_atom_type_partial_charge
C0 C 0.83219 0.53044 0.12569 0.0
C1 C 0.85242 0.52012 0.15358 0.0
C2 C 0.81336 0.53694 0.15883 0.0
C3 C 0.81428 0.53297 0.22057 0.0
C4 C 0.83459 0.52255 0.24831 0.0
C5 C 0.85353 0.51637 0.21514 0.0
C6 C 0.79403 0.53925 0.25601 0.0
C7 C 0.77148 0.53614 0.23748 0.0
C8 C 0.75233 0.54095 0.27218 0.0
C9 C 0.75581 0.54868 0.32693 0.0
C10 C 0.7784 0.5518 0.34587 0.0
C11 C 0.79721 0.5475 0.30983 0.0
C12 C 0.78377 0.55681 0.40563 0.0
C13 C 0.79294 0.57745 0.41324 0.0
C14 C 0.78643 0.53876 0.45084 0.0
C15 C 0.80014 0.54054 0.50018 0.0
C16 C 0.81132 0.56052 0.50552 0.0
C17 C 0.72905 0.53731 0.24967 0.0
C18 C 0.71311 0.55568 0.23346 0.0
C19 C 0.72449 0.51602 0.23403 0.0
C20 C 0.70532 0.51347 0.19895 0.0
C21 C 0.69037 0.5322 0.17829 0.0
C22 C 0.69387 0.55315 0.19798 0.0
C23 C 0.80633 0.5794 0.46312 0.0
H24 H 0.83106 0.53379 0.0782 0.0
H25 H 0.79818 0.54525 0.13603 0.0
H26 H 0.83576 0.51879 0.29569 0.0
H27 H 0.86888 0.50825 0.23758 0.0
H28 H 0.76872 0.52957 0.19617 0.0
H29 H 0.81453 0.55002 0.32489 0.0
H30 H 0.74123 0.55172 0.35492 0.0
H31 H 0.79133 0.5915 0.37842 0.0
H32 H 0.77992 0.52253 0.44519 0.0
H33 H 0.80357 0.5255 0.53119 0.0
H34 H 0.71644 0.5723 0.24453 0.0
H35 H 0.73655 0.50161 0.24616 0.0
H36 H 0.81401 0.59528 0.46637 0.0
H37 H 0.6827 0.56792 0.18272 0.0
H38 H 0.70282 0.49701 0.18565 0.0
C39 C 0.04456 0.8216 0.06316 0.0
C40 C 0.0613 0.83622 0.07743 0.0
C41 C 0.03755 0.80442 0.1049 0.0
C42 C 0.04697 0.80152 0.16204 0.0
C43 C 0.06443 0.81541 0.17574 0.0
C44 C 0.07161 0.83252 0.13377 0.0
C45 C 0.03721 0.78523 0.20804 0.0
C46 C 0.03237 0.7636 0.19612 0.0
C47 C 0.02095 0.74887 0.23721 0.0
C48 C 0.01403 0.75604 0.29114 0.0
C49 C 0.01953 0.77756 0.30438 0.0
C50 C 0.0311 0.79191 0.26254 0.0
C51 C 0.01278 0.78623 0.36018 0.0
C52 C 0.98944 0.78856 0.37582 0.0
C53 C 0.02939 0.79594 0.39236 0.0
C54 C 0.02272 0.80912 0.4363 0.0
C55 C 0.99921 0.81299 0.44917 0.0
C56 C 0.01663 0.72626 0.22112 0.0
C57 C 0.99443 0.72132 0.20353 0.0
C58 C 0.03564 0.71178 0.21013 0.0
C59 C 0.03284 0.69377 0.17792 0.0
C60 C 0.01097 0.6899 0.15573 0.0
C61 C 0.9916 0.70317 0.17119 0.0
C62 C 0.9827 0.80187 0.41984 0.0
H63 H 0.03588 0.82414 0.02072 0.0
H64 H 0.02385 0.79415 0.09328 0.0
H65 H 0.0722 0.81332 0.2193 0.0
H66 H 0.08482 0.8432 0.14597 0.0
H67 H 0.03728 0.75823 0.15418 0.0
H68 H 0.03441 0.80883 0.2715 0.0
H69 H 0.00497 0.74485 0.3228 0.0
H70 H 0.97629 0.78137 0.35141 0.0
H71 H 0.04752 0.79443 0.38108 0.0
H72 H 0.03595 0.81749 0.45732 0.0
H73 H 0.97959 0.7325 0.21068 0.0
H74 H 0.05293 0.71539 0.22287 0.0
H75 H 0.96448 0.80418 0.42923 0.0
H76 H 0.97455 0.70063 0.15452 0.0
H77 H 0.04803 0.68363 0.16748 0.0
C78 C 0.6946 0.97713 0.07718 0.0
C79 C 0.67689 0.99312 0.08852 0.0
C80 C 0.71402 0.97292 0.11416 0.0
C81 C 0.71599 0.98447 0.16344 0.0
C82 C 0.6984 1.00052 0.17465 0.0
C83 C 0.67911 0.00486 0.13749 0.0
C84 C 0.73622 0.97978 0.20358 0.0
C85 C 0.75869 0.97936 0.18164 0.0
C86 C 0.77805 0.97633 0.21986 0.0
C87 C 0.77459 0.97272 0.28115 0.0
C88 C 0.75196 0.97288 0.30314 0.0
C89 C 0.73303 0.97645 0.26424 0.0
C90 C 0.74678 0.97023 0.36635 0.0
C91 C 0.74304 0.94866 0.39499 0.0
C92 C 0.73811 0.98928 0.39103 0.0
C93 C 0.72363 0.98687 0.43964 0.0
C94 C 0.71758 0.9653 0.46447 0.0
C95 C 0.80151 0.97773 0.19415 0.0
C96 C 0.81966 0.96172 0.21292 0.0
C97 C 0.80519 0.99431 0.14652 0.0
C98 C 0.82579 0.99392 0.11559 0.0
C99 C 0.84342 0.97721 0.13211 0.0
C100 C 0.84056 0.96153 0.18216 0.0
C101 C 0.72867 0.9462 0.44401 0.0
H102 H 0.69329 0.96753 0.04036 0.0
H103 H 0.72727 0.96032 0.10492 0.0
H104 H 0.6997 0.0099 0.21191 0.0
H105 H 0.66603 0.01759 0.14688 0.0
H106 H 0.76109 0.98188 0.13447 0.0
H107 H 0.71562 0.97659 0.28152 0.0
H108 H 0.78923 0.97046 0.31133 0.0
H109 H 0.74929 0.93374 0.37607 0.0
H110 H 0.74043 0.00608 0.36883 0.0
H111 H 0.71542 0.00202 0.45366 0.0
H112 H 0.81732 0.94876 0.24947 0.0
H113 H 0.79181 0.00727 0.13195 0.0
H114 H 0.72487 0.92933 0.46294 0.0
H115 H 0.85403 0.94854 0.19576 0.0
H116 H 0.82779 0.00646 0.07784 0.0
C117 C 0.4538 0.69791 0.40935 0.0
C118 C 0.47633 0.69481 0.4335 0.0
C119 C 0.44913 0.71263 0.35798 0.0
C120 C 0.46688 0.72448 0.32926 0.0
C121 C 0.48873 0.72339 0.35652 0.0
C122 C 0.49342 0.7087 0.40831 0.0
C123 C 0.46438 0.73244 0.26567 0.0
C124 C 0.46982 0.7542 0.24114 0.0
C125 C 0.46996 0.75981 0.17961 0.0
C126 C 0.46533 0.74328 0.14317 0.0
C127 C 0.45996 0.72148 0.16725 0.0
C128 C 0.45883 0.71658 0.22848 0.0
C129 C 0.45708 0.7033 0.12935 0.0
C130 C 0.44684 0.708 0.07297 0.0
C131 C 0.46528 0.68096 0.14907 0.0
C132 C 0.46323 0.66383 0.11377 0.0
C133 C 0.4535 0.66867 0.05729 0.0
C134 C 0.47505 0.78274 0.1522 0.0
C135 C 0.46204 0.80185 0.16636 0.0
C136 C 0.49144 0.78537 0.10737 0.0
C137 C 0.4941 0.80652 0.07554 0.0
C138 C 0.48021 0.82554 0.08725 0.0
C139 C 0.46451 0.82304 0.13403 0.0
C140 C 0.44532 0.69085 0.03697 0.0
H141 H 0.44013 0.68755 0.42691 0.0
H142 H 0.43214 0.71316 0.33766 0.0
H143 H 0.50274 0.73227 0.33504 0.0
H144 H 0.5108 0.70721 0.42649 0.0
H145 H 0.47425 0.76652 0.2696 0.0
H146 H 0.45452 0.69989 0.24778 0.0
H147 H 0.46629 0.7474 0.09592 0.0
H148 H 0.44007 0.72489 0.0565 0.0
H149 H 0.47396 0.67668 0.19124 0.0
H150 H 0.47013 0.64692 0.12976 0.0
H151 H 0.44916 0.8002 0.20047 0.0
H152 H 0.50189 0.77092 0.09609 0.0
H153 H 0.43784 0.6949 0.99326 0.0
H154 H 0.4534 0.83723 0.14413 0.0
H155 H 0.50683 0.80786 0.04105 0.0
C156 C 0.16009 0.5156 0.3758 0.0
C157 C 0.14274 0.50031 0.3889 0.0
C158 C 0.17958 0.50955 0.34446 0.0
C159 C 0.18202 0.48822 0.32488 0.0
C160 C 0.16473 0.47294 0.33751 0.0
C161 C 0.14537 0.47885 0.36959 0.0
C162 C 0.20214 0.48241 0.28916 0.0
C163 C 0.22451 0.4862 0.30711 0.0
C164 C 0.24362 0.48287 0.27081 0.0
C165 C 0.23999 0.47548 0.21553 0.0
C166 C 0.21747 0.47136 0.19775 0.0
C167 C 0.19881 0.47458 0.23507 0.0
C168 C 0.21189 0.46643 0.138 0.0
C169 C 0.20856 0.48453 0.09312 0.0
C170 C 0.20322 0.44556 0.13039 0.0
C171 C 0.18972 0.44337 0.08087 0.0
C172 C 0.18414 0.4622 0.03878 0.0
C173 C 0.26692 0.48764 0.292 0.0
C174 C 0.26943 0.50678 0.32077 0.0
C175 C 0.28597 0.47206 0.29033 0.0
C176 C 0.30656 0.47482 0.32049 0.0
C177 C 0.30845 0.49318 0.35309 0.0
C178 C 0.28974 0.50941 0.35129 0.0
C179 C 0.19476 0.48249 0.04409 0.0
H180 H 0.15849 0.53239 0.38897 0.0
H181 H 0.19253 0.52176 0.33433 0.0
H182 H 0.16632 0.45635 0.32303 0.0
H183 H 0.13263 0.46646 0.37987 0.0
H184 H 0.227 0.49175 0.34983 0.0
H185 H 0.18139 0.47222 0.22033 0.0
H186 H 0.25436 0.4735 0.18616 0.0
H187 H 0.21465 0.50093 0.09879 0.0
H188 H 0.20534 0.43146 0.16497 0.0
H189 H 0.18246 0.42729 0.07764 0.0
H190 H 0.25519 0.51932 0.32203 0.0
H191 H 0.28457 0.45716 0.26837 0.0
H192 H 0.19084 0.49749 0.01328 0.0
H193 H 0.29013 0.52365 0.37607 0.0
H194 H 0.32072 0.46222 0.31958 0.0
C195 C 0.93344 0.19878 0.45273 0.0
C196 C 0.94436 0.17705 0.45501 0.0
C197 C 0.93983 0.21622 0.41049 0.0
C198 C 0.95742 0.21228 0.37019 0.0
C199 C 0.96809 0.19045 0.37237 0.0
C200 C 0.96159 0.17307 0.41402 0.0
C201 C 0.96548 0.23088 0.32746 0.0
C202 C 0.9681 0.25236 0.34409 0.0
C203 C 0.97768 0.26946 0.30559 0.0
C204 C 0.98529 0.26468 0.24979 0.0
C205 C 0.98204 0.24333 0.23201 0.0
C206 C 0.97197 0.22678 0.27085 0.0
C207 C 0.98971 0.23691 0.17448 0.0
C208 C 0.9736 0.22866 0.13781 0.0
C209 C 0.01337 0.23373 0.16302 0.0
C210 C 0.0208 0.22075 0.11893 0.0
C211 C 0.00468 0.21072 0.0856 0.0
C212 C 0.97941 0.29198 0.32576 0.0
C213 C 0.95994 0.30217 0.35037 0.0
C214 C 0.0007 0.30196 0.32792 0.0
C215 C 0.00267 0.32108 0.35719 0.0
C216 C 0.98332 0.33065 0.38434 0.0
C217 C 0.96185 0.32118 0.37926 0.0
C218 C 0.98097 0.21576 0.09383 0.0
H219 H 0.92006 0.20229 0.48372 0.0
H220 H 0.93108 0.23279 0.40958 0.0
H221 H 0.98208 0.18689 0.34309 0.0
H222 H 0.97074 0.15665 0.41554 0.0
H223 H 0.9634 0.25566 0.38806 0.0
H224 H 0.96966 0.21032 0.25711 0.0
H225 H 0.99308 0.27756 0.22008 0.0
H226 H 0.95525 0.23069 0.14627 0.0
H227 H 0.02612 0.2397 0.19116 0.0
H228 H 0.03919 0.21757 0.11311 0.0
H229 H 0.94331 0.29483 0.34931 0.0
H230 H 0.01601 0.29433 0.30962 0.0
H231 H 0.96799 0.20827 0.06961 0.0
H232 H 0.94661 0.32774 0.40014 0.0
H233 H 0.01941 0.32807 0.35963 0.0
C234 C 0.30049 0.04787 0.47944 0.0
C235 C 0.32264 0.05319 0.45908 0.0
C236 C 0.28117 0.05209 0.44212 0.0
C237 C 0.28341 0.06224 0.3839 0.0
C238 C 0.3052 0.06926 0.3652 0.0
C239 C 0.32459 0.0645 0.40187 0.0
C240 C 0.26386 0.06324 0.34107 0.0
C241 C 0.24082 0.06665 0.35808 0.0
C242 C 0.22241 0.06477 0.319 0.0
C243 C 0.2272 0.06006 0.26137 0.0
C244 C 0.25024 0.05728 0.24365 0.0
C245 C 0.26827 0.05871 0.28357 0.0
C246 C 0.25683 0.05188 0.18478 0.0
C247 C 0.26573 0.02988 0.17954 0.0
C248 C 0.26188 0.06956 0.14142 0.0
C249 C 0.2777 0.06573 0.09723 0.0
C250 C 0.28883 0.04422 0.0965 0.0
C251 C 0.19849 0.06571 0.34157 0.0
C252 C 0.18448 0.04752 0.33851 0.0
C253 C 0.19093 0.08312 0.37406 0.0
C254 C 0.17048 0.08168 0.40598 0.0
C255 C 0.15726 0.06266 0.40664 0.0
C256 C 0.16409 0.04596 0.3709 0.0
C257 C 0.28166 0.02607 0.13579 0.0
H258 H 0.29806 0.03984 0.52376 0.0
H259 H 0.26473 0.04637 0.45826 0.0
H260 H 0.30751 0.0777 0.32121 0.0
H261 H 0.34121 0.06884 0.38401 0.0
H262 H 0.23711 0.06996 0.40258 0.0
H263 H 0.2859 0.05538 0.26985 0.0
H264 H 0.21322 0.05833 0.23101 0.0
H265 H 0.26239 0.01608 0.2132 0.0
H266 H 0.25561 0.08674 0.14548 0.0
H267 H 0.28301 0.08003 0.06767 0.0
H268 H 0.19006 0.03375 0.3143 0.0
H269 H 0.20136 0.09742 0.3767 0.0
H270 H 0.28987 0.0093 0.13586 0.0
H271 H 0.15448 0.03099 0.3706 0.0
H272 H 0.16546 0.09514 0.43174 0.0
C273 C 0.49861 0.32929 0.16175 0.0
C274 C 0.51547 0.33248 0.11804 0.0
C275 C 0.50287 0.31359 0.21166 0.0
C276 C 0.52393 0.30065 0.21857 0.0
C277 C 0.54001 0.30242 0.173 0.0
C278 C 0.53579 0.31816 0.12301 0.0
C279 C 0.53138 0.29036 0.27796 0.0
C280 C 0.53061 0.26713 0.29679 0.0
C281 C 0.53718 0.25848 0.35493 0.0
C282 C 0.54428 0.27332 0.39366 0.0
C283 C 0.5447 0.29655 0.37528 0.0
C284 C 0.53849 0.30482 0.31718 0.0
C285 C 0.54882 0.31272 0.41772 0.0
C286 C 0.53728 0.3109 0.47167 0.0
C287 C 0.56169 0.33168 0.40148 0.0
C288 C 0.56153 0.34929 0.43627 0.0
C289 C 0.54841 0.34825 0.48777 0.0
C290 C 0.53521 0.23437 0.37782 0.0
C291 C 0.5141 0.22421 0.37395 0.0
C292 C 0.55361 0.22224 0.41002 0.0
C293 C 0.55071 0.20075 0.43977 0.0
C294 C 0.52924 0.19103 0.43855 0.0
C295 C 0.51109 0.2028 0.40439 0.0
C296 C 0.53707 0.32851 0.50633 0.0
H297 H 0.48288 0.34012 0.15975 0.0
H298 H 0.49046 0.31279 0.24697 0.0
H299 H 0.55654 0.29286 0.17801 0.0
H300 H 0.54897 0.31995 0.08972 0.0
H301 H 0.52474 0.25596 0.26676 0.0
H302 H 0.53818 0.32283 0.30279 0.0
H303 H 0.54871 0.26686 0.43887 0.0
H304 H 0.52712 0.29657 0.48527 0.0
H305 H 0.57097 0.33338 0.36041 0.0
H306 H 0.57041 0.3643 0.42086 0.0
H307 H 0.49959 0.2333 0.34985 0.0
H308 H 0.57006 0.22972 0.4137 0.0
H309 H 0.52711 0.32713 0.54634 0.0
H310 H 0.49442 0.19562 0.40219 0.0
H311 H 0.56498 0.1922 0.46597 0.0
Co312 Co 0.01092 0.0207 0.8068 0.0
C313 C 0.97305 0.99719 0.84994 0.0
Co314 Co 0.99599 0.99951 0.74458 0.0
C315 C 0.02199 0.06111 0.85864 0.0
C316 C 0.03148 0.03057 0.91465 0.0
N317 N 0.02255 0.03832 0.86098 0.0
N318 N 0.03013 0.06781 0.9087 0.0
C319 C 0.03621 0.04855 0.94381 0.0
H320 H 0.01529 0.0726 0.82141 0.0
H321 H 0.03353 0.01297 0.93269 0.0
C322 C 0.03379 0.02304 0.70117 0.0
N323 N 0.98432 0.98196 0.69018 0.0
C324 C 0.9852 0.95919 0.69156 0.0
C325 C 0.97495 0.98989 0.63708 0.0
N326 N 0.97681 0.95269 0.64149 0.0
C327 C 0.97025 0.97206 0.60737 0.0
C328 C 0.97651 0.04339 0.73397 0.0
O329 O 0.0337 0.03035 0.75105 0.0
O330 O 0.01884 0.00936 0.68996 0.0
O331 O 0.97585 0.02455 0.71402 0.0
O332 O 0.9906 0.04529 0.77537 0.0
O333 O 0.9732 0.98995 0.79999 0.0
H334 H 0.97254 0.00754 0.61973 0.0
H335 H 0.99232 0.94758 0.72806 0.0
O336 O 0.98803 0.01077 0.86158 0.0
O337 O 0.03105 0.99568 0.83746 0.0
O338 O 0.01628 0.97489 0.77616 0.0
C339 C 0.03033 0.9768 0.81768 0.0
H340 H 0.04253 0.04746 0.98863 0.0
H341 H 0.96363 0.97334 0.56279 0.0
Co342 Co 0.4906 0.01852 0.79583 0.0
C343 C 0.49237 0.97196 0.82384 0.0
Co344 Co 0.51069 1.00033 0.7327 0.0
C345 C 0.45022 0.03 0.86062 0.0
C346 C 0.47836 0.04976 0.87918 0.0
N347 N 0.47246 0.03357 0.8468 0.0
N348 N 0.44206 0.0432 0.90034 0.0
C349 C 0.45973 0.0556 0.91253 0.0
H350 H 0.44034 0.0175 0.84306 0.0
H351 H 0.49517 0.05673 0.87893 0.0
C352 C 0.50906 0.04682 0.7045 0.0
N353 N 0.52884 0.98498 0.68237 0.0
C354 C 0.55142 0.98753 0.67078 0.0
C355 C 0.52312 0.96791 0.653 0.0
N356 N 0.56023 0.97259 0.63585 0.0
C357 C 0.54231 0.96029 0.62432 0.0
C358 C 0.46508 0.00789 0.70072 0.0
O359 O 0.49643 0.04658 0.74988 0.0
O360 O 0.51763 0.02825 0.69001 0.0
O361 O 0.48426 0.99978 0.68347 0.0
O362 O 0.46421 0.01629 0.74883 0.0
O363 O 0.5036 0.97234 0.77622 0.0
H364 H 0.50622 0.96112 0.65344 0.0
H365 H 0.56135 0.99973 0.68935 0.0
O366 O 0.48501 0.99051 0.84084 0.0
O367 O 0.51731 0.02051 0.84269 0.0
O368 O 0.53681 1.00128 0.78193 0.0
C369 C 0.53625 0.01113 0.82785 0.0
H370 H 0.45915 0.06803 0.9431 0.0
H371 H 0.54292 0.94664 0.59742 0.0
Co372 Co 0.51886 0.51402 0.77204 0.0
C373 C 0.50108 0.47726 0.84189 0.0
Co374 Co 0.48209 0.50883 0.75471 0.0
C375 C 0.55842 0.51887 0.8451 0.0
C376 C 0.56714 0.52123 0.75402 0.0
N377 N 0.54928 0.51824 0.79105 0.0
N378 N 0.5813 0.52205 0.84338 0.0
C379 C 0.58685 0.5235 0.78605 0.0
H380 H 0.54849 0.51665 0.88507 0.0
H381 H 0.5659 0.52171 0.70679 0.0
C382 C 0.49961 0.54579 0.68564 0.0
N383 N 0.45158 0.50484 0.73486 0.0
C384 C 0.44342 0.50206 0.68105 0.0
C385 C 0.43262 0.50582 0.76863 0.0
N386 N 0.42022 0.50149 0.67985 0.0
C387 C 0.41326 0.50398 0.7347 0.0
C388 C 0.48744 0.53807 0.83611 0.0
O389 O 0.51857 0.53928 0.71236 0.0
O390 O 0.48192 0.53446 0.6968 0.0
O391 O 0.47223 0.52814 0.81064 0.0
O392 O 0.50869 0.53386 0.82606 0.0
O393 O 0.48243 0.48329 0.81313 0.0
H394 H 0.43277 0.50826 0.81458 0.0
H395 H 0.45417 0.50141 0.64275 0.0
O396 O 0.51875 0.48876 0.83165 0.0
O397 O 0.52884 0.49417 0.71739 0.0
O398 O 0.49237 0.48963 0.69924 0.0
C399 C 0.51361 0.48498 0.69003 0.0
H400 H 0.60388 0.52627 0.76837 0.0
H401 H 0.39548 0.50456 0.749 0.0
Co402 Co 0.00144 0.5268 0.78093 0.0
C403 C 0.03616 0.49278 0.81594 0.0
Co404 Co 0.99371 0.49226 0.76314 0.0
C405 C 0.99988 0.56766 0.83942 0.0
C406 C 0.02861 0.56531 0.78176 0.0
N407 N 0.00949 0.55483 0.80013 0.0
N408 N 0.01232 0.58566 0.84631 0.0
C409 C 0.03034 0.58416 0.80971 0.0
H410 H 0.9844 0.56356 0.86362 0.0
H411 H 0.04118 0.55908 0.75204 0.0
C412 C 0.95903 0.52638 0.72809 0.0
N413 N 0.98561 0.46426 0.74346 0.0
C414 C 0.99462 0.45228 0.70162 0.0
C415 C 0.96626 0.45392 0.76068 0.0
N416 N 0.98138 0.43528 0.69138 0.0
C417 C 0.96361 0.4362 0.72883 0.0
C418 C 0.97808 0.50205 0.87075 0.0
O419 O 0.9728 0.5397 0.74715 0.0
O420 O 0.96505 0.50545 0.73074 0.0
O421 O 0.97957 0.48663 0.83729 0.0
O422 O 0.98692 0.52075 0.85476 0.0
O423 O 0.02255 0.47939 0.79641 0.0
H424 H 0.95396 0.45977 0.79159 0.0
H425 H 0.00964 0.4569 0.676 0.0
O426 O 0.02994 0.51364 0.81383 0.0
O427 O 0.01584 0.53233 0.70683 0.0
O428 O 0.00789 0.49842 0.68918 0.0
C429 C 0.01692 0.51699 0.67316 0.0
H430 H 0.04454 0.59521 0.80556 0.0
H431 H 0.94916 0.42546 0.73115 0.0
H432 H 0.15437 0.07318 0.51957 0.0
H433 H 0.03622 0.01317 0.588 0.0
H434 H 0.11572 0.04402 0.38945 0.0
H435 H 0.07053 0.04936 0.71154 0.0
H436 H 0.06503 0.0245 0.51467 0.0
H437 H 0.12354 0.06529 0.58961 0.0
C438 C 0.13925 0.06542 0.50528 0.0
C439 C 0.13771 0.05931 0.44819 0.0
C440 C 0.06624 0.03004 0.55772 0.0
C441 C 0.10245 0.0497 0.5292 0.0
C442 C 0.04981 0.02353 0.59976 0.0
C443 C 0.051 0.03024 0.65621 0.0
C444 C 0.08413 0.04329 0.57215 0.0
C445 C 0.06896 0.04375 0.66868 0.0
C446 C 0.12171 0.06075 0.54563 0.0
C447 C 0.11786 0.04879 0.43306 0.0
N448 N 0.08487 0.04974 0.62707 0.0
N449 N 0.10109 0.04424 0.47337 0.0
H450 H 0.49258 0.18073 0.50973 0.0
H451 H 0.54056 0.05401 0.61679 0.0
H452 H 0.55762 0.15226 0.45314 0.0
H453 H 0.4862 0.08834 0.70585 0.0
H454 H 0.54531 0.08886 0.55122 0.0
H455 H 0.48781 0.1458 0.57543 0.0
C456 C 0.50574 0.16703 0.51066 0.0
C457 C 0.52551 0.16939 0.47579 0.0
C458 C 0.53241 0.08881 0.58526 0.0
C459 C 0.52027 0.12945 0.5513 0.0
C460 C 0.52967 0.06891 0.62274 0.0
C461 C 0.51295 0.06825 0.66697 0.0
C462 C 0.51815 0.10819 0.59146 0.0
C463 C 0.49936 0.0881 0.67255 0.0
C464 C 0.50311 0.14719 0.54858 0.0
C465 C 0.54219 0.15122 0.47952 0.0
N466 N 0.50216 0.10722 0.63499 0.0
N467 N 0.53916 0.13201 0.51645 0.0
H468 H 0.32794 0.53137 0.38278 0.0
H469 H 0.42592 0.4719 0.60033 0.0
H470 H 0.33558 0.45846 0.41513 0.0
H471 H 0.38212 0.52793 0.64458 0.0
H472 H 0.40076 0.46961 0.51431 0.0
H473 H 0.35632 0.53337 0.46066 0.0
C474 C 0.33554 0.51575 0.40583 0.0
C475 C 0.32873 0.49468 0.39284 0.0
C476 C 0.39678 0.48241 0.54289 0.0
C477 C 0.36203 0.49707 0.48063 0.0
C478 C 0.41106 0.48374 0.59157 0.0
C479 C 0.40585 0.50001 0.62939 0.0
C480 C 0.3777 0.49795 0.53122 0.0
C481 C 0.38647 0.51503 0.6166 0.0
C482 C 0.35185 0.51698 0.45008 0.0
C483 C 0.34016 0.47512 0.42303 0.0
N484 N 0.37318 0.51379 0.56821 0.0
N485 N 0.3562 0.47678 0.46564 0.0
H486 H 0.95239 0.36663 0.39418 0.0
H487 H 0.02071 0.41691 0.64771 0.0
H488 H 0.0189 0.33738 0.45966 0.0
H489 H 0.94659 0.42293 0.62566 0.0
H490 H 0.02322 0.39327 0.56682 0.0
H491 H 0.95316 0.39349 0.46586 0.0
C492 C 0.96723 0.36587 0.42339 0.0
C493 C 0.98541 0.34934 0.42136 0.0
C494 C 0.00645 0.39983 0.57982 0.0
C495 C 0.98651 0.38045 0.50332 0.0
C496 C 0.00503 0.41331 0.62571 0.0
C497 C 0.9834 0.42163 0.64379 0.0
C498 C 0.98612 0.39514 0.55111 0.0
C499 C 0.96356 0.41653 0.61388 0.0
C500 C 0.96766 0.38128 0.46428 0.0
C501 C 0.0045 0.34978 0.45937 0.0
N502 N 0.96541 0.40372 0.569 0.0
N503 N 0.00449 0.36497 0.49907 0.0
H504 H 0.88917 0.9777 0.16342 0.0
H505 H 0.93338 0.97594 0.83323 0.0
H506 H 0.84414 0.97372 0.01537 0.0
H507 H 0.97222 0.00315 0.9664 0.0
H508 H 0.90296 0.9674 0.90482 0.0
H509 H 0.92236 0.97939 0.09661 0.0
C510 C 0.88638 0.97687 0.11702 0.0
C511 C 0.86399 0.97578 0.09455 0.0
C512 C 0.91822 0.97512 0.9184 0.0
C513 C 0.90154 0.97759 0.01843 0.0
C514 C 0.9356 0.97995 0.87762 0.0
C515 C 0.95526 0.99049 0.89369 0.0
C516 C 0.9206 0.98064 0.97583 0.0
C517 C 0.95724 0.99523 0.95195 0.0
C518 C 0.90522 0.97795 0.07897 0.0
C519 C 0.86116 0.97481 0.03415 0.0
N520 N 0.94009 0.99032 0.99091 0.0
N521 N 0.8797 0.97577 0.99817 0.0
H522 H 0.47642 0.86869 0.11874 0.0
H523 H 0.50174 0.92907 0.79625 0.0
H524 H 0.48643 0.83267 0.96792 0.0
H525 H 0.47574 0.9654 0.93596 0.0
H526 H 0.49818 0.89355 0.86009 0.0
H527 H 0.47799 0.90435 0.0541 0.0
C528 C 0.47886 0.86822 0.07212 0.0
C529 C 0.48142 0.84752 0.04902 0.0
C530 C 0.49314 0.90929 0.87669 0.0
C531 C 0.48352 0.88836 0.97481 0.0
C532 C 0.49517 0.92958 0.84025 0.0
C533 C 0.48903 0.95026 0.86075 0.0
C534 C 0.48512 0.90963 0.93434 0.0
C535 C 0.48063 0.94987 0.91823 0.0
C536 C 0.47983 0.88861 0.03525 0.0
C537 C 0.48486 0.8481 0.98817 0.0
N538 N 0.47906 0.92989 0.95312 0.0
N539 N 0.48587 0.86813 0.95335 0.0
H540 H 0.64528 0.55025 0.16707 0.0
H541 H 0.62708 0.50972 0.85093 0.0
H542 H 0.69617 0.51031 0.08153 0.0
H543 H 0.57077 0.53709 0.9479 0.0
H544 H 0.65308 0.51211 0.93355 0.0
H545 H 0.618 0.54775 0.08598 0.0
C546 C 0.65068 0.54091 0.13143 0.0
C547 C 0.67298 0.5303 0.13144 0.0
C548 C 0.63503 0.51757 0.93695 0.0
C549 C 0.64202 0.52751 0.03855 0.0
C550 C 0.6202 0.51634 0.88953 0.0
C551 C 0.59671 0.52325 0.89238 0.0
C552 C 0.62643 0.52594 0.98772 0.0
C553 C 0.5887 0.53138 0.94405 0.0
C554 C 0.6351 0.53943 0.08532 0.0
C555 C 0.67904 0.5184 0.0841 0.0
N556 N 0.60356 0.5326 0.98961 0.0
N557 N 0.66373 0.51742 0.03966 0.0
H558 H 0.97971 0.65709 0.14799 0.0
H559 H 0.0285 0.62756 0.83891 0.0
H560 H 0.03774 0.68753 0.05959 0.0
H561 H 0.98837 0.58103 0.9494 0.0
H562 H 0.02652 0.65305 0.91372 0.0
H563 H 0.97761 0.63201 0.07061 0.0
C564 C 0.99197 0.65848 0.11242 0.0
C565 C 0.00912 0.6742 0.11062 0.0
C566 C 0.01808 0.63728 0.92166 0.0
C567 C 0.00658 0.64602 0.02194 0.0
C568 C 0.01926 0.62263 0.8789 0.0
C569 C 0.00895 0.60183 0.88799 0.0
C570 C 0.00635 0.63132 0.97419 0.0
C571 C 0.9966 0.59683 0.94028 0.0
C572 C 0.9908 0.64418 0.06847 0.0
C573 C 0.02453 0.67538 0.06342 0.0
N574 N 0.99574 0.61142 0.9816 0.0
N575 N 0.02284 0.66159 0.02108 0.0
H576 H 0.93906 0.17991 0.57266 0.0
H577 H 0.97465 0.08636 0.76394 0.0
H578 H 0.93845 0.13263 0.44511 0.0
H579 H 0.9483 0.04648 0.63678 0.0
H580 H 0.95917 0.1204 0.70443 0.0
H581 H 0.93849 0.14844 0.65132 0.0
C582 C 0.93847 0.1629 0.56123 0.0
C583 C 0.93941 0.1588 0.50233 0.0
C584 C 0.95601 0.10428 0.69015 0.0
C585 C 0.93983 0.12259 0.59204 0.0
C586 C 0.96507 0.08473 0.72414 0.0
C587 C 0.96314 0.06355 0.7048 0.0
C588 C 0.94494 0.10263 0.63625 0.0
C589 C 0.95046 0.06248 0.65304 0.0
C590 C 0.93855 0.14486 0.60625 0.0
C591 C 0.93843 0.13647 0.49003 0.0
N592 N 0.94223 0.08178 0.62004 0.0
N593 N 0.93902 0.1192 0.53449 0.0
H594 H 0.36408 0.07379 0.46112 0.0
H595 H 0.42088 0.00204 0.73537 0.0
H596 H 0.32981 0.0154 0.54079 0.0
H597 H 0.46213 0.01962 0.58232 0.0
H598 H 0.38572 0.01158 0.67486 0.0
H599 H 0.39923 0.05952 0.51591 0.0
C600 C 0.36381 0.05797 0.48968 0.0
C601 C 0.34373 0.04579 0.49567 0.0
C602 C 0.4025 0.01299 0.65455 0.0
C603 C 0.38381 0.02994 0.55991 0.0
C604 C 0.42246 0.00754 0.68879 0.0
C605 C 0.44427 0.00989 0.66335 0.0
C606 C 0.40451 0.02161 0.59524 0.0
C607 C 0.44556 0.01732 0.60312 0.0
C608 C 0.38392 0.04993 0.52101 0.0
C609 C 0.34453 0.02573 0.53524 0.0
N610 N 0.42587 0.02338 0.57112 0.0
N611 N 0.36419 0.01855 0.56626 0.0
H612 H 0.50721 0.36513 0.52456 0.0
H613 H 0.55718 0.46746 0.66719 0.0
H614 H 0.57971 0.37804 0.51755 0.0
H615 H 0.48484 0.46173 0.62887 0.0
H616 H 0.56663 0.43453 0.61572 0.0
H617 H 0.49947 0.39961 0.56911 0.0
C618 C 0.52158 0.37511 0.53313 0.0
C619 C 0.54418 0.3686 0.51792 0.0
C620 C 0.54874 0.44068 0.61818 0.0
C621 C 0.53537 0.40846 0.56803 0.0
C622 C 0.54333 0.45948 0.64736 0.0
C623 C 0.52017 0.46725 0.65274 0.0
C624 C 0.53082 0.42955 0.59484 0.0
C625 C 0.50293 0.45628 0.62624 0.0
C626 C 0.51711 0.39496 0.55794 0.0
C627 C 0.56204 0.3825 0.52868 0.0
N628 N 0.5086 0.4379 0.59897 0.0
N629 N 0.55727 0.40179 0.55341 0.0
H630 H 0.14084 0.52581 0.48069 0.0
H631 H 0.017 0.4914 0.58244 0.0
H632 H 0.09776 0.48907 0.37638 0.0
H633 H 0.04977 0.54726 0.64387 0.0
H634 H 0.04572 0.49074 0.50492 0.0
H635 H 0.10745 0.53427 0.53998 0.0
C636 C 0.12433 0.51976 0.46959 0.0
C637 C 0.12224 0.50654 0.42351 0.0
C638 C 0.04637 0.5034 0.53471 0.0
C639 C 0.08398 0.51582 0.49235 0.0
C640 C 0.02999 0.50379 0.57894 0.0
C641 C 0.03116 0.51928 0.61994 0.0
C642 C 0.06426 0.51831 0.53222 0.0
C643 C 0.04828 0.535 0.61327 0.0
C644 C 0.10525 0.52457 0.50368 0.0
C645 C 0.10039 0.49887 0.41222 0.0
N646 N 0.06444 0.53386 0.57087 0.0
N647 N 0.08217 0.50341 0.44682 0.0
H648 H 0.06877 0.87885 0.10308 0.0
H649 H 0.03506 0.93461 0.78286 0.0
H650 H 0.06395 0.84029 0.95665 0.0
H651 H 0.05517 0.97284 0.92066 0.0
H652 H 0.05039 0.90004 0.84176 0.0
H653 H 0.06916 0.91324 0.03436 0.0
C654 C 0.06835 0.87748 0.05645 0.0
C655 C 0.06591 0.85657 0.03582 0.0
C656 C 0.05184 0.91603 0.8587 0.0
C657 C 0.06566 0.89618 0.95667 0.0
C658 C 0.04307 0.93579 0.82508 0.0
C659 C 0.04346 0.9566 0.84735 0.0
C660 C 0.06077 0.91706 0.91532 0.0
C661 C 0.05425 0.95713 0.90204 0.0
C662 C 0.06841 0.89723 0.01712 0.0
C663 C 0.06517 0.85607 0.97472 0.0
N664 N 0.0621 0.9376 0.93463 0.0
N665 N 0.06462 0.87561 0.93737 0.0
H666 H 0.6318 1.00087 0.12044 0.0
H667 H 0.58042 0.99908 0.7987 0.0
H668 H 0.67445 0.99506 0.96842 0.0
H669 H 0.54007 0.02217 0.93985 0.0
H670 H 0.61487 0.9962 0.86127 0.0
H671 H 0.59777 0.00747 0.0561 0.0
C672 C 0.63407 1.00118 0.0735 0.0
C673 C 0.65608 0.99739 0.04985 0.0
C674 C 0.59852 0.00204 0.87847 0.0
C675 C 0.61708 0.00456 0.97613 0.0
C676 C 0.57883 0.00365 0.84282 0.0
C677 C 0.55733 0.01079 0.86425 0.0
C678 C 0.5967 0.00737 0.93622 0.0
C679 C 0.55631 0.01659 0.92164 0.0
C680 C 0.6146 0.00487 0.03685 0.0
C681 C 0.65783 0.99754 0.98876 0.0
N682 N 0.57572 0.01458 0.95587 0.0
N683 N 0.63857 1.00097 0.95406 0.0
H684 H 0.47372 0.66917 0.95071 0.0
H685 H 0.44666 0.54504 0.89375 0.0
H686 H 0.43516 0.62739 0.07741 0.0
H687 H 0.5125 0.57339 0.85508 0.0
H688 H 0.43524 0.5779 0.94462 0.0
H689 H 0.48024 0.63701 0.89473 0.0
C690 C 0.46618 0.65336 0.96585 0.0
C691 C 0.45395 0.65076 0.01851 0.0
C692 C 0.45217 0.57674 0.92499 0.0
C693 C 0.46133 0.61419 0.95533 0.0
C694 C 0.4587 0.55809 0.89626 0.0
C695 C 0.48061 0.55646 0.87078 0.0
C696 C 0.46743 0.59404 0.92637 0.0
C697 C 0.49556 0.57385 0.87477 0.0
C698 C 0.47007 0.63504 0.93437 0.0
C699 C 0.44475 0.62989 0.03694 0.0
N700 N 0.4886 0.59203 0.90152 0.0
N701 N 0.44864 0.61228 0.00532 0.0
H702 H 0.8522 0.49611 0.06004 0.0
H703 H 0.94948 0.46819 0.9055 0.0
H704 H 0.89772 0.52911 0.1668 0.0
H705 H 0.97296 0.53047 0.95524 0.0
H706 H 0.9201 0.46826 0.98151 0.0
H707 H 0.88488 0.48714 0.99833 0.0
C708 C 0.86917 0.50123 0.07073 0.0
C709 C 0.87234 0.51337 0.11834 0.0
C710 C 0.9317 0.48189 0.97575 0.0
C711 C 0.90987 0.50285 0.04886 0.0
C712 C 0.94867 0.48172 0.93289 0.0
C713 C 0.96341 0.49959 0.92331 0.0
C714 C 0.92949 0.50004 0.00913 0.0
C715 C 0.96171 0.51655 0.96054 0.0
C716 C 0.88788 0.49584 0.03607 0.0
C717 C 0.89466 0.51959 0.13062 0.0
N718 N 0.94489 0.51645 0.0016 0.0
N719 N 0.91256 0.51456 0.09546 0.0
H720 H 0.98631 0.20217 0.97966 0.0
H721 H 0.05838 0.08324 0.9875 0.0
H722 H 0.03979 0.17778 0.10759 0.0
H723 H 0.00137 0.10425 0.86754 0.0
H724 H 0.05512 0.12012 0.02289 0.0
H725 H 0.99492 0.16895 0.92916 0.0
C726 C 1.00002 0.19 0.99687 0.0
C727 C 0.01218 0.19282 0.04845 0.0
C728 C 0.04341 0.11677 0.9885 0.0
C729 C 0.02217 0.15467 0.99053 0.0
C730 C 0.04521 0.09564 0.9684 0.0
C731 C 0.02995 0.09044 0.92494 0.0
C732 C 0.02613 0.13297 0.96528 0.0
C733 C 0.01355 0.10744 0.90095 0.0
C734 C 0.00495 0.17103 0.96788 0.0
C735 C 0.03004 0.17659 0.06784 0.0
N736 N 0.01193 0.12784 0.92185 0.0
N737 N 0.03431 0.15818 0.03928 0.0
H738 H 0.33014 0.02589 0.14064 0.0
H739 H 0.40122 0.03988 0.84513 0.0
H740 H 0.29749 0.05778 0.97955 0.0
H741 H 0.43151 0.04651 0.01364 0.0
H742 H 0.36276 0.03929 0.89049 0.0
H743 H 0.36736 0.02536 0.0911 0.0
C744 C 0.33075 0.03238 0.09444 0.0
C745 C 0.31068 0.04171 0.06391 0.0
C746 C 0.37786 0.04093 0.91731 0.0
C747 C 0.35328 0.0413 0.00724 0.0
C748 C 0.39971 0.04116 0.89166 0.0
C749 C 0.41944 0.0433 0.92586 0.0
C750 C 0.37592 0.04223 0.97777 0.0
C751 C 0.41667 0.04505 0.98582 0.0
C752 C 0.35202 0.0323 0.06647 0.0
C753 C 0.31257 0.05038 0.00446 0.0
N754 N 0.39533 0.04424 0.01004 0.0
N755 N 0.33354 0.04986 0.9778 0.0
H756 H 0.47656 0.35015 0.05459 0.0
H757 H 0.53887 0.45895 0.90676 0.0
H758 H 0.54888 0.36083 0.07802 0.0
H759 H 0.46752 0.4474 0.87204 0.0
H760 H 0.5424 0.42314 0.9708 0.0
H761 H 0.4726 0.38547 0.9875 0.0
C762 C 0.49163 0.35981 0.04534 0.0
C763 C 0.5131 0.35241 0.07197 0.0
C764 C 0.52594 0.42841 0.94929 0.0
C765 C 0.50865 0.39293 0.99548 0.0
C766 C 0.52387 0.44895 0.91284 0.0
C767 C 0.50285 0.45625 0.88391 0.0
C768 C 0.50684 0.41497 0.95717 0.0
C769 C 0.48405 0.44248 0.89349 0.0
C770 C 0.48936 0.37997 0.00701 0.0
C771 C 0.53207 0.36559 0.05793 0.0
N772 N 0.4865 0.4225 0.92926 0.0
N773 N 0.52936 0.3852 0.02102 0.0
H774 H 0.17938 0.4852 0.92656 0.0
H775 H 0.05022 0.45093 0.87322 0.0
H776 H 0.14455 0.43869 0.05096 0.0
H777 H 0.07472 0.51649 0.81319 0.0
H778 H 0.08833 0.43974 0.91963 0.0
H779 H 0.14447 0.48997 0.86488 0.0
C780 C 0.16459 0.47579 0.94082 0.0
C781 C 0.16498 0.46182 0.99496 0.0
C782 C 0.08533 0.45647 0.89569 0.0
C783 C 0.12511 0.46687 0.92347 0.0
C784 C 0.06369 0.46282 0.86918 0.0
C785 C 0.0593 0.48473 0.84002 0.0
C786 C 0.10274 0.47198 0.89156 0.0
C787 C 0.07732 0.49953 0.83599 0.0
C788 C 0.1447 0.47847 0.90535 0.0
C789 C 0.14535 0.44955 0.00971 0.0
N790 N 0.09823 0.49289 0.86142 0.0
N791 N 0.12618 0.45251 0.97446 0.0
H792 H 0.96228 0.84424 0.43461 0.0
H793 H 0.00627 0.91648 0.6799 0.0
H794 H 0.02017 0.82224 0.5512 0.0
H795 H 0.94829 0.93741 0.56299 0.0
H796 H 0.009 0.87997 0.64159 0.0
H797 H 0.95411 0.87614 0.48952 0.0
C798 C 0.97303 0.8458 0.47247 0.0
C799 C 0.99208 0.83049 0.48784 0.0
C800 C 0.99555 0.89249 0.62469 0.0
C801 C 0.9831 0.86755 0.55039 0.0
C802 C 0.99389 0.91332 0.64685 0.0
C803 C 0.97717 0.93022 0.62422 0.0
C804 C 0.98037 0.88847 0.5796 0.0
C805 C 0.96174 0.92512 0.58094 0.0
C806 C 0.96847 0.86422 0.50356 0.0
C807 C 0.00556 0.83379 0.53693 0.0
N808 N 0.96382 0.90484 0.55984 0.0
N809 N 0.00095 0.85203 0.56603 0.0
H810 H 0.70345 0.9914 0.55069 0.0
H811 H 0.58117 0.93616 0.59209 0.0
H812 H 0.68419 0.93458 0.46565 0.0
H813 H 0.59417 0.00239 0.63732 0.0
H814 H 0.62101 0.93208 0.55978 0.0
H815 H 0.66582 0.99186 0.59869 0.0
C816 C 0.6915 0.97884 0.54259 0.0
C817 C 0.69706 0.96308 0.50341 0.0
C818 C 0.61512 0.94746 0.57703 0.0
C819 C 0.65396 0.96348 0.55856 0.0
C820 C 0.59224 0.94992 0.59518 0.0
C821 C 0.58396 0.96976 0.61727 0.0
C822 C 0.63002 0.96488 0.58118 0.0
C823 C 0.59957 0.9867 0.62116 0.0
C824 C 0.67001 0.97913 0.57003 0.0
C825 C 0.68095 0.94694 0.49577 0.0
N826 N 0.62177 0.98389 0.60319 0.0
N827 N 0.66011 0.94769 0.52261 0.0
H828 H 0.51651 0.6675 0.44472 0.0
H829 H 0.45965 0.5696 0.6477 0.0
H830 H 0.44986 0.67658 0.52513 0.0
H831 H 0.53388 0.5722 0.63801 0.0
H832 H 0.45542 0.6072 0.59234 0.0
H833 H 0.52343 0.63179 0.50838 0.0
C834 C 0.5035 0.66234 0.47649 0.0
C835 C 0.48241 0.67516 0.47888 0.0
C836 C 0.47264 0.59955 0.6023 0.0
C837 C 0.49002 0.63374 0.55033 0.0
C838 C 0.4751 0.57797 0.63339 0.0
C839 C 0.49718 0.56768 0.64739 0.0
C840 C 0.49238 0.61089 0.5841 0.0
C841 C 0.51653 0.5795 0.62807 0.0
C842 C 0.50743 0.64178 0.51242 0.0
C843 C 0.46613 0.66714 0.52044 0.0
N844 N 0.51369 0.60047 0.59704 0.0
N845 N 0.47013 0.64683 0.55382 0.0
H846 H 0.81557 0.53729 0.61765 0.0
H847 H 0.94553 0.56856 0.67247 0.0
H848 H 0.85151 0.58308 0.49384 0.0
H849 H 0.92019 0.50301 0.72859 0.0
H850 H 0.90757 0.58057 0.62634 0.0
H851 H 0.85053 0.53142 0.67911 0.0
C852 C 0.83061 0.54633 0.60348 0.0
C853 C 0.8305 0.56039 0.54951 0.0
C854 C 0.91035 0.56365 0.64934 0.0
C855 C 0.87042 0.55412 0.62081 0.0
C856 C 0.93191 0.55683 0.67567 0.0
C857 C 0.93602 0.5347 0.70371 0.0
C858 C 0.89273 0.5484 0.65252 0.0
C859 C 0.91781 0.52013 0.70669 0.0
C860 C 0.85052 0.54301 0.63882 0.0
C861 C 0.85047 0.57217 0.53493 0.0
N862 N 0.89696 0.52724 0.68147 0.0
N863 N 0.86964 0.56863 0.57009 0.0
loop_
_geom_bond_atom_site_label_1
_geom_bond_atom_site_label_2
_geom_bond_distance
_geom_bond_site_symmetry_2
_ccdc_geom_bond_type
C0 C1 1.386 . S
C0 C2 1.397 . S
C0 H24 0.931 . S
C1 C0 1.386 . S
C1 C5 1.397 1_556 S
C2 C0 1.397 . S
C2 C3 1.384 1_556 S
C2 H25 0.930 . S
C3 C2 1.384 1_554 S
C3 C4 1.377 . S
C3 C6 1.481 . S
C4 C3 1.377 . S
C4 C5 1.389 . S
C4 H26 0.929 . S
C5 C1 1.397 1_554 S
C5 C4 1.389 . S
C5 H27 0.931 . S
C6 C3 1.481 . S
C6 C7 1.387 . S
C6 C11 1.390 . S
C7 C6 1.387 . S
C7 C8 1.401 . S
C7 H28 0.930 . S
C8 C7 1.401 . S
C8 C9 1.376 . S
C8 C17 1.511 . S
C9 C8 1.376 . S
C9 C10 1.392 . S
C9 H30 0.931 . S
C10 C9 1.392 . S
C10 C11 1.361 . S
C10 C12 1.500 . S
C11 C6 1.390 . S
C11 C10 1.361 . S
C11 H29 0.931 . S
C12 C10 1.500 . S
C12 C13 1.371 . S
C12 C14 1.365 . S
C13 C12 1.371 . S
C13 C23 1.386 . S
C13 H31 0.931 . S
C14 C12 1.365 . S
C14 C15 1.409 . S
C14 H32 0.929 . S
C15 C14 1.409 . S
C15 C16 1.380 . S
C15 H33 0.930 . S
C16 C15 1.380 . S
C16 C23 1.357 . S
C17 C8 1.511 . S
C17 C18 1.341 . S
C17 C19 1.371 . S
C18 C17 1.341 . S
C18 C22 1.394 . S
C18 H34 0.930 . S
C19 C17 1.371 . S
C19 C20 1.392 . S
C19 H35 0.931 . S
C20 C19 1.392 . S
C20 C21 1.331 . S
C20 H38 0.932 . S
C21 C20 1.331 . S
C21 C22 1.336 . S
C22 C18 1.394 . S
C22 C21 1.336 . S
C22 H37 0.929 1_554 S
C23 C13 1.386 . S
C23 C16 1.357 . S
C23 H36 0.928 . S
H24 C0 0.931 . S
H25 C2 0.930 . S
H26 C4 0.929 . S
H27 C5 0.931 . S
H28 C7 0.930 . S
H29 C11 0.931 . S
H30 C9 0.931 . S
H31 C13 0.931 . S
H32 C14 0.929 . S
H33 C15 0.930 . S
H34 C18 0.930 . S
H35 C19 0.931 . S
H36 C23 0.928 . S
H37 C22 0.929 1_556 S
H38 C20 0.932 . S
C39 C40 1.395 . S
C39 C41 1.397 . S
C39 H63 0.931 . S
C40 C39 1.395 . S
C40 C44 1.389 1_655 S
C41 C39 1.397 . S
C41 C42 1.389 1_556 S
C41 H64 0.930 . S
C42 C41 1.389 1_554 S
C42 C43 1.372 1_655 S
C42 C45 1.479 . S
C43 C42 1.372 1_455 S
C43 C44 1.389 1_554 S
C43 H65 0.929 . S
C44 C40 1.389 1_455 S
C44 C43 1.389 1_556 S
C44 H66 0.931 . S
C45 C42 1.479 . S
C45 C46 1.390 . S
C45 C50 1.390 . S
C46 C45 1.390 . S
C46 C47 1.401 . S
C46 H67 0.930 . S
C47 C46 1.401 . S
C47 C48 1.376 . S
C47 C56 1.515 . S
C48 C47 1.376 . S
C48 C49 1.389 . S
C48 H69 0.936 . S
C49 C48 1.389 . S
C49 C50 1.362 . S
C49 C51 1.499 1_655 S
C50 C45 1.390 . S
C50 C49 1.362 . S
C50 H68 0.931 . S
C51 C49 1.499 1_455 S
C51 C52 1.361 1_455 S
C51 C53 1.376 . S
C52 C51 1.361 1_655 S
C52 C62 1.386 . S
C52 H70 0.931 . S
C53 C51 1.376 . S
C53 C54 1.409 . S
C53 H71 0.929 . S
C54 C53 1.409 . S
C54 C55 1.379 . S
C54 H72 0.930 . S
C55 C54 1.379 . S
C55 C62 1.358 1_455 S
C56 C47 1.515 . S
C56 C57 1.341 . S
C56 C58 1.371 1_655 S
C57 C56 1.341 . S
C57 C61 1.394 . S
C57 H73 0.930 . S
C58 C56 1.371 1_455 S
C58 C59 1.392 . S
C58 H74 0.931 . S
C59 C58 1.392 . S
C59 C60 1.322 1_455 S
C59 H77 0.932 . S
C60 C59 1.322 1_655 S
C60 C61 1.344 . S
C61 C57 1.394 . S
C61 C60 1.344 . S
C61 H76 0.929 . S
C62 C52 1.386 . S
C62 C55 1.358 1_655 S
C62 H75 0.928 . S
H63 C39 0.931 . S
H64 C41 0.930 . S
H65 C43 0.929 . S
H66 C44 0.931 . S
H67 C46 0.930 . S
H68 C50 0.931 . S
H69 C48 0.936 . S
H70 C52 0.931 . S
H71 C53 0.929 . S
H72 C54 0.930 . S
H73 C57 0.930 . S
H74 C58 0.931 . S
H75 C62 0.928 . S
H76 C61 0.929 . S
H77 C59 0.932 . S
C78 C79 1.386 . S
C78 C80 1.397 . S
C78 H102 0.931 . S
C79 C78 1.386 . S
C79 C83 1.397 . S
C80 C78 1.397 . S
C80 C81 1.384 1_556 S
C80 H103 0.930 . S
C81 C80 1.384 1_554 S
C81 C82 1.377 . S
C81 C84 1.481 . S
C82 C81 1.377 . S
C82 C83 1.389 1_554 S
C82 H104 0.929 . S
C83 C79 1.397 . S
C83 C82 1.389 1_556 S
C83 H105 0.931 . S
C84 C81 1.481 . S
C84 C85 1.387 . S
C84 C89 1.390 . S
C85 C84 1.387 . S
C85 C86 1.401 . S
C85 H106 0.930 . S
C86 C85 1.401 . S
C86 C87 1.376 . S
C86 C95 1.511 . S
C87 C86 1.376 . S
C87 C88 1.392 . S
C87 H108 0.931 . S
C88 C87 1.392 . S
C88 C89 1.361 . S
C88 C90 1.500 . S
C89 C84 1.390 . S
C89 C88 1.361 . S
C89 H107 0.931 . S
C90 C88 1.500 . S
C90 C91 1.371 . S
C90 C92 1.365 . S
C91 C90 1.371 . S
C91 C101 1.386 . S
C91 H109 0.931 . S
C92 C90 1.365 . S
C92 C93 1.409 . S
C92 H110 0.929 . S
C93 C92 1.409 . S
C93 C94 1.380 . S
C93 H111 0.930 . S
C94 C93 1.380 . S
C94 C101 1.357 . S
C95 C86 1.511 . S
C95 C96 1.341 . S
C95 C97 1.371 . S
C96 C95 1.341 . S
C96 C100 1.394 . S
C96 H112 0.930 1_554 S
C97 C95 1.371 . S
C97 C98 1.392 . S
C97 H113 0.931 . S
C98 C97 1.392 . S
C98 C99 1.331 . S
C98 H116 0.932 . S
C99 C98 1.331 . S
C99 C100 1.336 . S
C100 C96 1.394 . S
C100 C99 1.336 . S
C100 H115 0.929 1_554 S
C101 C91 1.386 . S
C101 C94 1.357 . S
C101 H114 0.928 . S
H102 C78 0.931 . S
H103 C80 0.930 . S
H104 C82 0.929 . S
H105 C83 0.931 . S
H106 C85 0.930 . S
H107 C89 0.931 . S
H108 C87 0.931 . S
H109 C91 0.931 . S
H110 C92 0.929 . S
H111 C93 0.930 . S
H112 C96 0.930 1_556 S
H113 C97 0.931 . S
H114 C101 0.928 . S
H115 C100 0.929 1_556 S
H116 C98 0.932 . S
C117 C118 1.386 . S
C117 C119 1.397 . S
C117 H141 0.931 . S
C118 C117 1.386 . S
C118 C122 1.397 . S
C119 C117 1.397 . S
C119 C120 1.384 . S
C119 H142 0.930 . S
C120 C119 1.384 . S
C120 C121 1.377 . S
C120 C123 1.481 . S
C121 C120 1.377 . S
C121 C122 1.389 . S
C121 H143 0.929 . S
C122 C118 1.397 . S
C122 C121 1.389 . S
C122 H144 0.931 . S
C123 C120 1.481 . S
C123 C124 1.387 . S
C123 C128 1.390 . S
C124 C123 1.387 . S
C124 C125 1.401 . S
C124 H145 0.930 . S
C125 C124 1.401 . S
C125 C126 1.376 . S
C125 C134 1.511 . S
C126 C125 1.376 . S
C126 C127 1.392 . S
C126 H147 0.931 . S
C127 C126 1.392 . S
C127 C128 1.361 . S
C127 C129 1.500 . S
C128 C123 1.390 . S
C128 C127 1.361 . S
C128 H146 0.931 . S
C129 C127 1.500 . S
C129 C130 1.371 1_554 S
C129 C131 1.365 . S
C130 C129 1.371 1_556 S
C130 C140 1.386 . S
C130 H148 0.931 . S
C131 C129 1.365 . S
C131 C132 1.409 . S
C131 H149 0.929 . S
C132 C131 1.409 . S
C132 C133 1.380 1_554 S
C132 H150 0.930 . S
C133 C132 1.380 1_556 S
C133 C140 1.357 . S
C134 C125 1.511 . S
C134 C135 1.341 . S
C134 C136 1.371 . S
C135 C134 1.341 . S
C135 C139 1.394 . S
C135 H151 0.930 . S
C136 C134 1.371 . S
C136 C137 1.392 . S
C136 H152 0.931 . S
C137 C136 1.392 . S
C137 C138 1.331 . S
C137 H155 0.932 1_554 S
C138 C137 1.331 . S
C138 C139 1.336 . S
C139 C135 1.394 . S
C139 C138 1.336 . S
C139 H154 0.929 . S
C140 C130 1.386 . S
C140 C133 1.357 . S
C140 H153 0.928 . S
H141 C117 0.931 . S
H142 C119 0.930 . S
H143 C121 0.929 . S
H144 C122 0.931 . S
H145 C124 0.930 . S
H146 C128 0.931 . S
H147 C126 0.931 . S
H148 C130 0.931 . S
H149 C131 0.929 . S
H150 C132 0.930 . S
H151 C135 0.930 . S
H152 C136 0.931 . S
H153 C140 0.928 . S
H154 C139 0.929 . S
H155 C137 0.932 1_556 S
C156 C157 1.386 . S
C156 C158 1.397 . S
C156 H180 0.931 . S
C157 C156 1.386 . S
C157 C161 1.397 . S
C158 C156 1.397 . S
C158 C159 1.384 . S
C158 H181 0.930 . S
C159 C158 1.384 . S
C159 C160 1.377 . S
C159 C162 1.481 . S
C160 C159 1.377 . S
C160 C161 1.389 . S
C160 H182 0.929 . S
C161 C157 1.397 . S
C161 C160 1.389 . S
C161 H183 0.931 . S
C162 C159 1.481 . S
C162 C163 1.387 . S
C162 C167 1.390 . S
C163 C162 1.387 . S
C163 C164 1.401 . S
C163 H184 0.930 . S
C164 C163 1.401 . S
C164 C165 1.376 . S
C164 C173 1.511 . S
C165 C164 1.376 . S
C165 C166 1.392 . S
C165 H186 0.931 . S
C166 C165 1.392 . S
C166 C167 1.361 . S
C166 C168 1.500 . S
C167 C162 1.390 . S
C167 C166 1.361 . S
C167 H185 0.931 . S
C168 C166 1.500 . S
C168 C169 1.371 . S
C168 C170 1.365 . S
C169 C168 1.371 . S
C169 C179 1.386 . S
C169 H187 0.931 . S
C170 C168 1.365 . S
C170 C171 1.409 . S
C170 H188 0.929 . S
C171 C170 1.409 . S
C171 C172 1.380 . S
C171 H189 0.930 . S
C172 C171 1.380 . S
C172 C179 1.357 . S
C173 C164 1.511 . S
C173 C174 1.341 . S
C173 C175 1.371 . S
C174 C173 1.341 . S
C174 C178 1.394 . S
C174 H190 0.930 . S
C175 C173 1.371 . S
C175 C176 1.392 . S
C175 H191 0.931 . S
C176 C175 1.392 . S
C176 C177 1.331 . S
C176 H194 0.932 . S
C177 C176 1.331 . S
C177 C178 1.336 . S
C178 C174 1.394 . S
C178 C177 1.336 . S
C178 H193 0.929 . S
C179 C169 1.386 . S
C179 C172 1.357 . S
C179 H192 0.928 . S
H180 C156 0.931 . S
H181 C158 0.930 . S
H182 C160 0.929 . S
H183 C161 0.931 . S
H184 C163 0.930 . S
H185 C167 0.931 . S
H186 C165 0.931 . S
H187 C169 0.931 . S
H188 C170 0.929 . S
H189 C171 0.930 . S
H190 C174 0.930 . S
H191 C175 0.931 . S
H192 C179 0.928 . S
H193 C178 0.929 . S
H194 C176 0.932 . S
C195 C196 1.387 . S
C195 C197 1.397 . S
C195 H219 0.931 . S
C196 C195 1.387 . S
C196 C200 1.396 1_655 S
C197 C195 1.397 . S
C197 C198 1.382 . S
C197 H220 0.930 . S
C198 C197 1.382 . S
C198 C199 1.379 1_655 S
C198 C201 1.482 . S
C199 C198 1.379 1_455 S
C199 C200 1.389 . S
C199 H221 0.929 . S
C200 C196 1.396 1_455 S
C200 C199 1.389 . S
C200 H222 0.931 . S
C201 C198 1.482 . S
C201 C202 1.387 . S
C201 C206 1.390 . S
C202 C201 1.387 . S
C202 C203 1.403 . S
C202 H223 0.930 . S
C203 C202 1.403 . S
C203 C204 1.376 . S
C203 C212 1.511 . S
C204 C203 1.376 . S
C204 C205 1.393 1_655 S
C204 H225 0.932 . S
C205 C204 1.393 1_455 S
C205 C206 1.361 1_455 S
C205 C207 1.499 . S
C206 C201 1.390 . S
C206 C205 1.361 1_655 S
C206 H224 0.931 . S
C207 C205 1.499 . S
C207 C208 1.358 1_455 S
C207 C209 1.379 . S
C208 C207 1.358 1_655 S
C208 C218 1.386 . S
C208 H226 0.931 . S
C209 C207 1.379 . S
C209 C210 1.409 . S
C209 H227 0.929 . S
C210 C209 1.409 . S
C210 C211 1.384 . S
C210 H228 0.930 . S
C211 C210 1.384 . S
C211 C218 1.354 1_455 S
C212 C203 1.511 . S
C212 C213 1.341 . S
C212 C214 1.371 1_655 S
C213 C212 1.341 . S
C213 C217 1.394 . S
C213 H229 0.930 . S
C214 C212 1.371 1_455 S
C214 C215 1.392 . S
C214 H230 0.931 . S
C215 C214 1.392 . S
C215 C216 1.326 1_455 S
C215 H233 0.932 . S
C216 C215 1.326 1_655 S
C216 C217 1.342 . S
C217 C213 1.394 . S
C217 C216 1.342 . S
C217 H232 0.929 . S
C218 C208 1.386 . S
C218 C211 1.354 1_655 S
C218 H231 0.928 . S
H219 C195 0.931 . S
H220 C197 0.930 . S
H221 C199 0.929 . S
H222 C200 0.931 . S
H223 C202 0.930 . S
H224 C206 0.931 . S
H225 C204 0.932 . S
H226 C208 0.931 . S
H227 C209 0.929 . S
H228 C210 0.930 . S
H229 C213 0.930 . S
H230 C214 0.931 . S
H231 C218 0.928 . S
H232 C217 0.929 . S
H233 C215 0.932 . S
C234 C235 1.386 . S
C234 C236 1.397 . S
C234 H258 0.931 . S
C235 C234 1.386 . S
C235 C239 1.397 . S
C236 C234 1.397 . S
C236 C237 1.384 . S
C236 H259 0.930 . S
C237 C236 1.384 . S
C237 C238 1.377 . S
C237 C240 1.481 . S
C238 C237 1.377 . S
C238 C239 1.389 . S
C238 H260 0.929 . S
C239 C235 1.397 . S
C239 C238 1.389 . S
C239 H261 0.931 . S
C240 C237 1.481 . S
C240 C241 1.387 . S
C240 C245 1.390 . S
C241 C240 1.387 . S
C241 C242 1.401 . S
C241 H262 0.930 . S
C242 C241 1.401 . S
C242 C243 1.376 . S
C242 C251 1.511 . S
C243 C242 1.376 . S
C243 C244 1.392 . S
C243 H264 0.931 . S
C244 C243 1.392 . S
C244 C245 1.361 . S
C244 C246 1.500 . S
C245 C240 1.390 . S
C245 C244 1.361 . S
C245 H263 0.931 . S
C246 C244 1.500 . S
C246 C247 1.371 . S
C246 C248 1.365 . S
C247 C246 1.371 . S
C247 C257 1.386 . S
C247 H265 0.931 . S
C248 C246 1.365 . S
C248 C249 1.409 . S
C248 H266 0.929 . S
C249 C248 1.409 . S
C249 C250 1.380 . S
C249 H267 0.930 . S
C250 C249 1.380 . S
C250 C257 1.357 . S
C251 C242 1.511 . S
C251 C252 1.341 . S
C251 C253 1.371 . S
C252 C251 1.341 . S
C252 C256 1.394 . S
C252 H268 0.930 . S
C253 C251 1.371 . S
C253 C254 1.392 . S
C253 H269 0.931 . S
C254 C253 1.392 . S
C254 C255 1.331 . S
C254 H272 0.932 . S
C255 C254 1.331 . S
C255 C256 1.336 . S
C256 C252 1.394 . S
C256 C255 1.336 . S
C256 H271 0.929 . S
C257 C247 1.386 . S
C257 C250 1.357 . S
C257 H270 0.928 . S
H258 C234 0.931 . S
H259 C236 0.930 . S
H260 C238 0.929 . S
H261 C239 0.931 . S
H262 C241 0.930 . S
H263 C245 0.931 . S
H264 C243 0.931 . S
H265 C247 0.931 . S
H266 C248 0.929 . S
H267 C249 0.930 . S
H268 C252 0.930 . S
H269 C253 0.931 . S
H270 C257 0.928 . S
H271 C256 0.929 . S
H272 C254 0.932 . S
C273 C274 1.386 . S
C273 C275 1.397 . S
C273 H297 0.931 . S
C274 C273 1.386 . S
C274 C278 1.397 . S
C275 C273 1.397 . S
C275 C276 1.384 . S
C275 H298 0.930 . S
C276 C275 1.384 . S
C276 C277 1.377 . S
C276 C279 1.481 . S
C277 C276 1.377 . S
C277 C278 1.389 . S
C277 H299 0.929 . S
C278 C274 1.397 . S
C278 C277 1.389 . S
C278 H300 0.931 . S
C279 C276 1.481 . S
C279 C280 1.387 . S
C279 C284 1.390 . S
C280 C279 1.387 . S
C280 C281 1.401 . S
C280 H301 0.930 . S
C281 C280 1.401 . S
C281 C282 1.376 . S
C281 C290 1.511 . S
C282 C281 1.376 . S
C282 C283 1.392 . S
C282 H303 0.931 . S
C283 C282 1.392 . S
C283 C284 1.361 . S
C283 C285 1.500 . S
C284 C279 1.390 . S
C284 C283 1.361 . S
C284 H302 0.931 . S
C285 C283 1.500 . S
C285 C286 1.371 . S
C285 C287 1.365 . S
C286 C285 1.371 . S
C286 C296 1.386 . S
C286 H304 0.931 . S
C287 C285 1.365 . S
C287 C288 1.409 . S
C287 H305 0.929 . S
C288 C287 1.409 . S
C288 C289 1.380 . S
C288 H306 0.930 . S
C289 C288 1.380 . S
C289 C296 1.357 . S
C290 C281 1.511 . S
C290 C291 1.341 . S
C290 C292 1.371 . S
C291 C290 1.341 . S
C291 C295 1.394 . S
C291 H307 0.930 . S
C292 C290 1.371 . S
C292 C293 1.392 . S
C292 H308 0.931 . S
C293 C292 1.392 . S
C293 C294 1.331 . S
C293 H311 0.932 . S
C294 C293 1.331 . S
C294 C295 1.336 . S
C295 C291 1.394 . S
C295 C294 1.336 . S
C295 H310 0.929 . S
C296 C286 1.386 . S
C296 C289 1.357 . S
C296 H309 0.928 . S
H297 C273 0.931 . S
H298 C275 0.930 . S
H299 C277 0.929 . S
H300 C278 0.931 . S
H301 C280 0.930 . S
H302 C284 0.931 . S
H303 C282 0.931 . S
H304 C286 0.931 . S
H305 C287 0.929 . S
H306 C288 0.930 . S
H307 C291 0.930 . S
H308 C292 0.931 . S
H309 C296 0.928 . S
H310 C295 0.929 . S
H311 C293 0.932 . S
Co312 N317 2.057 . S
Co312 O329 2.021 . S
Co312 O332 2.062 1_455 S
Co312 O336 2.117 1_455 S
Co312 O337 2.020 1_545 S
C313 O333 1.259 1_545 S
C313 O336 1.258 . S
Co314 N323 2.057 . S
Co314 O330 2.117 1_665 S
Co314 O331 2.020 1_565 S
Co314 O333 2.021 . S
Co314 O338 2.062 1_655 S
C315 N317 1.316 . S
C315 N318 1.347 . S
C315 H320 0.931 . S
C316 N317 1.375 1_655 S
C316 C319 1.350 . S
C316 H321 0.930 . S
N317 Co312 2.057 . S
N317 C315 1.316 . S
N317 C316 1.375 1_455 S
N318 C315 1.347 . S
N318 C319 1.373 1_455 S
C319 C316 1.350 . S
C319 N318 1.373 1_655 S
C319 H340 0.931 . S
H320 C315 0.931 . S
H321 C316 0.930 . S
C322 O329 1.259 . S
C322 O330 1.258 . S
N323 Co314 2.057 . S
N323 C324 1.316 . S
N323 C325 1.375 1_655 S
C324 N323 1.316 . S
C324 N326 1.347 . S
C324 H335 0.931 . S
C325 N323 1.375 1_455 S
C325 C327 1.350 . S
C325 H334 0.930 . S
N326 C324 1.347 . S
N326 C327 1.373 1_655 S
C327 C325 1.350 . S
C327 N326 1.373 1_455 S
C327 H341 0.931 . S
C328 O331 1.256 . S
C328 O332 1.255 . S
O329 Co312 2.021 . S
O329 C322 1.259 . S
O330 Co314 2.117 1_445 S
O330 C322 1.258 . S
O331 Co314 2.020 1_545 S
O331 C328 1.256 . S
O332 Co312 2.062 1_655 S
O332 C328 1.255 . S
O333 C313 1.259 1_565 S
O333 Co314 2.021 . S
H334 C325 0.930 . S
H335 C324 0.931 . S
O336 Co312 2.117 1_655 S
O336 C313 1.258 . S
O337 Co312 2.020 1_565 S
O337 C339 1.256 . S
O338 Co314 2.062 1_455 S
O338 C339 1.255 . S
C339 O337 1.256 . S
C339 O338 1.255 . S
H340 C319 0.931 . S
H341 C327 0.931 . S
Co342 N347 2.057 . S
Co342 O359 2.021 . S
Co342 O362 2.062 . S
Co342 O366 2.117 1_545 S
Co342 O367 2.020 . S
C343 O363 1.259 . S
C343 O366 1.258 . S
Co344 N353 2.052 1_545 S
Co344 O360 2.117 . S
Co344 O361 2.020 . S
Co344 O363 2.021 1_545 S
Co344 O368 2.062 1_545 S
C345 N347 1.316 . S
C345 N348 1.347 . S
C345 H350 0.931 . S
C346 N347 1.375 . S
C346 C349 1.350 . S
C346 H351 0.930 1_545 S
N347 Co342 2.057 . S
N347 C345 1.316 . S
N347 C346 1.375 . S
N348 C345 1.347 . S
N348 C349 1.373 . S
C349 C346 1.350 . S
C349 N348 1.373 . S
C349 H370 0.933 . S
H350 C345 0.931 . S
H351 C346 0.930 1_565 S
C352 O359 1.259 . S
C352 O360 1.258 . S
N353 Co344 2.052 1_565 S
N353 C354 1.351 . S
N353 C355 1.346 1_565 S
C354 N353 1.351 . S
C354 N356 1.347 . S
C354 H365 0.931 . S
C355 N353 1.346 1_545 S
C355 C357 1.350 . S
C355 H364 0.930 . S
N356 C354 1.347 . S
N356 C357 1.373 1_565 S
C357 C355 1.350 . S
C357 N356 1.373 1_545 S
C357 H371 0.931 . S
C358 O361 1.256 . S
C358 O362 1.255 . S
O359 Co342 2.021 . S
O359 C352 1.259 . S
O360 Co344 2.117 . S
O360 C352 1.258 . S
O361 Co344 2.020 . S
O361 C358 1.256 . S
O362 Co342 2.062 . S
O362 C358 1.255 . S
O363 C343 1.259 . S
O363 Co344 2.021 1_565 S
H364 C355 0.930 . S
H365 C354 0.931 . S
O366 Co342 2.117 1_565 S
O366 C343 1.258 . S
O367 Co342 2.020 . S
O367 C369 1.256 . S
O368 Co344 2.062 1_565 S
O368 C369 1.255 1_565 S
C369 O367 1.256 . S
C369 O368 1.255 1_545 S
H370 C349 0.933 . S
H371 C357 0.931 . S
Co372 N377 2.057 . S
Co372 O389 2.021 . S
Co372 O392 2.062 . S
Co372 O396 2.117 . S
Co372 O397 2.020 . S
C373 O393 1.259 . S
C373 O396 1.258 . S
Co374 N383 2.057 . S
Co374 O390 2.117 . S
Co374 O391 2.020 . S
Co374 O393 2.021 . S
Co374 O398 2.062 . S
C375 N377 1.316 . S
C375 N378 1.347 . S
C375 H380 0.931 . S
C376 N377 1.375 . S
C376 C379 1.350 . S
C376 H381 0.930 . S
N377 Co372 2.057 . S
N377 C375 1.316 . S
N377 C376 1.375 . S
N378 C375 1.347 . S
N378 C379 1.373 . S
C379 C376 1.350 . S
C379 N378 1.373 . S
C379 H400 0.931 . S
H380 C375 0.931 . S
H381 C376 0.930 . S
C382 O389 1.259 . S
C382 O390 1.258 . S
N383 Co374 2.057 . S
N383 C384 1.316 . S
N383 C385 1.375 . S
C384 N383 1.316 . S
C384 N386 1.347 . S
C384 H395 0.931 . S
C385 N383 1.375 . S
C385 C387 1.350 . S
C385 H394 0.930 . S
N386 C384 1.347 . S
N386 C387 1.373 . S
C387 C385 1.350 . S
C387 N386 1.373 . S
C387 H401 0.931 . S
C388 O391 1.256 . S
C388 O392 1.255 . S
O389 Co372 2.021 . S
O389 C382 1.259 . S
O390 Co374 2.117 . S
O390 C382 1.258 . S
O391 Co374 2.020 . S
O391 C388 1.256 . S
O392 Co372 2.062 . S
O392 C388 1.255 . S
O393 C373 1.259 . S
O393 Co374 2.021 . S
H394 C385 0.930 . S
H395 C384 0.931 . S
O396 Co372 2.117 . S
O396 C373 1.258 . S
O397 Co372 2.020 . S
O397 C399 1.256 . S
O398 Co374 2.062 . S
O398 C399 1.255 . S
C399 O397 1.256 . S
C399 O398 1.255 . S
H400 C379 0.931 . S
H401 C387 0.931 . S
Co402 N407 2.057 . S
Co402 O419 2.021 1_455 S
Co402 O422 2.062 1_455 S
Co402 O426 2.117 . S
Co402 O427 2.020 . S
C403 O423 1.259 . S
C403 O426 1.258 . S
Co404 N413 2.057 . S
Co404 O420 2.117 . S
Co404 O421 2.020 . S
Co404 O423 2.021 1_655 S
Co404 O428 2.062 1_655 S
C405 N407 1.316 . S
C405 N408 1.347 . S
C405 H410 0.931 1_455 S
C406 N407 1.375 . S
C406 C409 1.350 . S
C406 H411 0.930 . S
N407 Co402 2.057 . S
N407 C405 1.316 . S
N407 C406 1.375 . S
N408 C405 1.347 . S
N408 C409 1.373 . S
C409 C406 1.350 . S
C409 N408 1.373 . S
C409 H430 0.931 . S
H410 C405 0.931 1_655 S
H411 C406 0.930 . S
C412 O419 1.259 . S
C412 O420 1.258 . S
N413 Co404 2.057 . S
N413 C414 1.316 . S
N413 C415 1.375 . S
C414 N413 1.316 . S
C414 N416 1.347 . S
C414 H425 0.931 1_655 S
C415 N413 1.375 . S
C415 C417 1.350 . S
C415 H424 0.930 . S
N416 C414 1.347 . S
N416 C417 1.373 . S
C417 C415 1.350 . S
C417 N416 1.373 . S
C417 H431 0.931 . S
C418 O421 1.256 . S
C418 O422 1.255 . S
O419 Co402 2.021 1_655 S
O419 C412 1.259 . S
O420 Co404 2.117 . S
O420 C412 1.258 . S
O421 Co404 2.020 . S
O421 C418 1.256 . S
O422 Co402 2.062 1_655 S
O422 C418 1.255 . S
O423 C403 1.259 . S
O423 Co404 2.021 1_455 S
H424 C415 0.930 . S
H425 C414 0.931 1_455 S
O426 Co402 2.117 . S
O426 C403 1.258 . S
O427 Co402 2.020 . S
O427 C429 1.256 . S
O428 Co404 2.062 1_455 S
O428 C429 1.255 . S
C429 O427 1.256 . S
C429 O428 1.255 . S
H430 C409 0.931 . S
H431 C417 0.931 . S
H432 C438 0.930 . S
H433 C442 0.930 1_565 S
H434 C447 0.929 . S
H435 C445 0.929 . S
H436 C440 0.929 . S
H437 C446 0.929 . S
C438 H432 0.930 . S
C438 C439 1.367 . S
C438 C446 1.378 . S
C439 C438 1.367 . S
C439 C447 1.433 . S
C440 H436 0.929 . S
C440 C442 1.378 . S
C440 C444 1.350 . S
C441 C444 1.463 . S
C441 C446 1.350 . S
C441 N449 1.427 . S
C442 H433 0.930 1_545 S
C442 C440 1.378 . S
C442 C443 1.367 . S
C443 C442 1.367 . S
C443 C445 1.433 . S
C444 C440 1.350 . S
C444 C441 1.463 . S
C444 N448 1.427 . S
C445 H435 0.929 . S
C445 C443 1.433 . S
C445 N448 1.384 . S
C446 H437 0.929 . S
C446 C438 1.378 . S
C446 C441 1.350 . S
C447 H434 0.929 . S
C447 C439 1.433 . S
C447 N449 1.384 . S
N448 C444 1.427 . S
N448 C445 1.384 . S
N449 C441 1.427 . S
N449 C447 1.384 . S
H450 C456 0.930 . S
H451 C460 0.930 . S
H452 C465 0.929 . S
H453 C463 0.929 . S
H454 C458 0.929 . S
H455 C464 0.929 . S
C456 H450 0.930 . S
C456 C457 1.367 . S
C456 C464 1.378 . S
C457 C456 1.367 . S
C457 C465 1.433 . S
C458 H454 0.929 . S
C458 C460 1.378 . S
C458 C462 1.350 . S
C459 C462 1.463 . S
C459 C464 1.350 . S
C459 N467 1.427 . S
C460 H451 0.930 . S
C460 C458 1.378 . S
C460 C461 1.367 . S
C461 C460 1.367 . S
C461 C463 1.433 . S
C462 C458 1.350 . S
C462 C459 1.463 . S
C462 N466 1.427 . S
C463 H453 0.929 . S
C463 C461 1.433 . S
C463 N466 1.384 . S
C464 H455 0.929 . S
C464 C456 1.378 . S
C464 C459 1.350 . S
C465 H452 0.929 . S
C465 C457 1.433 . S
C465 N467 1.384 . S
N466 C462 1.427 . S
N466 C463 1.384 . S
N467 C459 1.427 . S
N467 C465 1.384 . S
H468 C474 0.930 . S
H469 C478 0.930 . S
H470 C483 0.929 . S
H471 C481 0.929 . S
H472 C476 0.929 . S
H473 C482 0.929 . S
C474 H468 0.930 . S
C474 C475 1.367 . S
C474 C482 1.378 . S
C475 C474 1.367 . S
C475 C483 1.433 . S
C476 H472 0.929 . S
C476 C478 1.378 . S
C476 C480 1.350 . S
C477 C480 1.463 . S
C477 C482 1.350 . S
C477 N485 1.427 . S
C478 H469 0.930 . S
C478 C476 1.378 . S
C478 C479 1.367 . S
C479 C478 1.367 . S
C479 C481 1.433 . S
C480 C476 1.350 . S
C480 C477 1.463 . S
C480 N484 1.427 . S
C481 H471 0.929 . S
C481 C479 1.433 . S
C481 N484 1.384 . S
C482 H473 0.929 . S
C482 C474 1.378 . S
C482 C477 1.350 . S
C483 H470 0.929 . S
C483 C475 1.433 . S
C483 N485 1.384 . S
N484 C480 1.427 . S
N484 C481 1.384 . S
N485 C477 1.427 . S
N485 C483 1.384 . S
H486 C492 0.930 . S
H487 C496 0.930 . S
H488 C501 0.929 . S
H489 C499 0.929 . S
H490 C494 0.929 . S
H491 C500 0.929 . S
C492 H486 0.930 . S
C492 C493 1.367 . S
C492 C500 1.378 . S
C493 C492 1.367 . S
C493 C501 1.433 1_655 S
C494 H490 0.929 . S
C494 C496 1.378 . S
C494 C498 1.350 1_455 S
C495 C498 1.463 . S
C495 C500 1.350 . S
C495 N503 1.427 1_655 S
C496 H487 0.930 . S
C496 C494 1.378 . S
C496 C497 1.367 1_455 S
C497 C496 1.367 1_655 S
C497 C499 1.433 . S
C498 C494 1.350 1_655 S
C498 C495 1.463 . S
C498 N502 1.427 . S
C499 H489 0.929 . S
C499 C497 1.433 . S
C499 N502 1.384 . S
C500 H491 0.929 . S
C500 C492 1.378 . S
C500 C495 1.350 . S
C501 H488 0.929 . S
C501 C493 1.433 1_455 S
C501 N503 1.384 . S
N502 C498 1.427 . S
N502 C499 1.384 . S
N503 C495 1.427 1_455 S
N503 C501 1.384 . S
H504 C510 0.930 . S
H505 C514 0.930 . S
H506 C519 0.929 . S
H507 C517 0.929 . S
H508 C512 0.929 . S
H509 C518 0.929 . S
C510 H504 0.930 . S
C510 C511 1.367 . S
C510 C518 1.378 1_554 S
C511 C510 1.367 . S
C511 C519 1.433 1_554 S
C512 H508 0.929 . S
C512 C514 1.378 1_565 S
C512 C516 1.350 . S
C513 C516 1.463 . S
C513 C518 1.350 . S
C513 N521 1.427 . S
C514 H505 0.930 . S
C514 C512 1.378 1_545 S
C514 C515 1.367 1_545 S
C515 C514 1.367 1_565 S
C515 C517 1.433 . S
C516 C512 1.350 . S
C516 C513 1.463 . S
C516 N520 1.427 . S
C517 H507 0.929 . S
C517 C515 1.433 . S
C517 N520 1.384 . S
C518 H509 0.929 . S
C518 C510 1.378 1_556 S
C518 C513 1.350 . S
C519 H506 0.929 . S
C519 C511 1.433 1_556 S
C519 N521 1.384 . S
N520 C516 1.427 . S
N520 C517 1.384 . S
N521 C513 1.427 . S
N521 C519 1.384 . S
H522 C528 0.930 . S
H523 C532 0.930 . S
H524 C537 0.929 . S
H525 C535 0.929 . S
H526 C530 0.929 . S
H527 C536 0.929 . S
C528 H522 0.930 . S
C528 C529 1.367 . S
C528 C536 1.378 . S
C529 C528 1.367 . S
C529 C537 1.433 1_554 S
C530 H526 0.929 . S
C530 C532 1.378 . S
C530 C534 1.350 . S
C531 C534 1.463 . S
C531 C536 1.350 1_556 S
C531 N539 1.427 . S
C532 H523 0.930 . S
C532 C530 1.378 . S
C532 C533 1.367 . S
C533 C532 1.367 . S
C533 C535 1.433 . S
C534 C530 1.350 . S
C534 C531 1.463 . S
C534 N538 1.427 . S
C535 H525 0.929 . S
C535 C533 1.433 . S
C535 N538 1.384 . S
C536 H527 0.929 . S
C536 C528 1.378 . S
C536 C531 1.350 1_554 S
C537 H524 0.929 . S
C537 C529 1.433 1_556 S
C537 N539 1.384 . S
N538 C534 1.427 . S
N538 C535 1.384 . S
N539 C531 1.427 . S
N539 C537 1.384 . S
H540 C546 0.930 . S
H541 C550 0.930 . S
H542 C555 0.929 . S
H543 C553 0.929 . S
H544 C548 0.929 . S
H545 C554 0.929 . S
C546 H540 0.930 . S
C546 C547 1.367 1_556 S
C546 C554 1.378 . S
C547 C546 1.367 1_554 S
C547 C555 1.433 . S
C548 H544 0.929 . S
C548 C550 1.378 . S
C548 C552 1.350 . S
C549 C552 1.463 . S
C549 C554 1.350 . S
C549 N557 1.427 1_556 S
C550 H541 0.930 . S
C550 C548 1.378 . S
C550 C551 1.367 . S
C551 C550 1.367 . S
C551 C553 1.433 . S
C552 C548 1.350 . S
C552 C549 1.463 . S
C552 N556 1.427 . S
C553 H543 0.929 . S
C553 C551 1.433 . S
C553 N556 1.384 . S
C554 H545 0.929 . S
C554 C546 1.378 . S
C554 C549 1.350 . S
C555 H542 0.929 . S
C555 C547 1.433 . S
C555 N557 1.384 . S
N556 C552 1.427 . S
N556 C553 1.384 . S
N557 C549 1.427 1_554 S
N557 C555 1.384 . S
H558 C564 0.930 . S
H559 C568 0.930 . S
H560 C573 0.929 . S
H561 C571 0.929 . S
H562 C566 0.929 . S
H563 C572 0.929 . S
C564 H558 0.930 . S
C564 C565 1.344 1_655 S
C564 C572 1.378 1_554 S
C565 C564 1.344 1_455 S
C565 C573 1.458 . S
C566 H562 0.929 . S
C566 C568 1.378 . S
C566 C570 1.350 . S
C567 C570 1.463 . S
C567 C572 1.350 1_455 S
C567 N575 1.427 . S
C568 H559 0.930 . S
C568 C566 1.378 . S
C568 C569 1.367 . S
C569 C568 1.367 . S
C569 C571 1.433 1_455 S
C570 C566 1.350 . S
C570 C567 1.463 . S
C570 N574 1.427 1_455 S
C571 H561 0.929 . S
C571 C569 1.433 1_655 S
C571 N574 1.384 . S
C572 H563 0.929 . S
C572 C564 1.378 1_556 S
C572 C567 1.350 1_655 S
C573 H560 0.929 . S
C573 C565 1.458 . S
C573 N575 1.384 1_554 S
N574 C570 1.427 1_655 S
N574 C571 1.384 . S
N575 C567 1.427 . S
N575 C573 1.384 1_556 S
H576 C582 0.930 . S
H577 C586 0.930 . S
H578 C591 0.929 . S
H579 C589 0.930 1_455 S
H580 C584 0.929 . S
H581 C590 0.929 . S
C582 H576 0.930 . S
C582 C583 1.367 . S
C582 C590 1.378 . S
C583 C582 1.367 . S
C583 C591 1.433 1_455 S
C584 H580 0.929 . S
C584 C586 1.378 . S
C584 C588 1.350 . S
C585 C588 1.463 . S
C585 C590 1.350 1_655 S
C585 N593 1.427 . S
C586 H577 0.930 . S
C586 C584 1.378 . S
C586 C587 1.367 . S
C587 C586 1.367 . S
C587 C589 1.432 . S
C588 C584 1.350 . S
C588 C585 1.463 . S
C588 N592 1.427 1_655 S
C589 H579 0.930 1_655 S
C589 C587 1.432 . S
C589 N592 1.384 1_655 S
C590 H581 0.929 . S
C590 C582 1.378 . S
C590 C585 1.350 1_455 S
C591 H578 0.929 . S
C591 C583 1.433 1_655 S
C591 N593 1.384 . S
N592 C588 1.427 1_455 S
N592 C589 1.384 1_455 S
N593 C585 1.427 . S
N593 C591 1.384 . S
H594 C600 0.930 . S
H595 C604 0.930 1_565 S
H596 C609 0.929 . S
H597 C607 0.929 . S
H598 C602 0.929 . S
H599 C608 0.929 . S
C600 H594 0.930 . S
C600 C601 1.367 . S
C600 C608 1.378 . S
C601 C600 1.367 . S
C601 C609 1.433 . S
C602 H598 0.929 . S
C602 C604 1.378 . S
C602 C606 1.350 . S
C603 C606 1.463 . S
C603 C608 1.350 . S
C603 N611 1.427 . S
C604 H595 0.930 1_545 S
C604 C602 1.378 . S
C604 C605 1.367 . S
C605 C604 1.367 . S
C605 C607 1.433 . S
C606 C602 1.350 . S
C606 C603 1.463 . S
C606 N610 1.427 . S
C607 H597 0.929 . S
C607 C605 1.433 . S
C607 N610 1.384 . S
C608 H599 0.929 . S
C608 C600 1.378 . S
C608 C603 1.350 . S
C609 H596 0.929 . S
C609 C601 1.433 . S
C609 N611 1.384 . S
N610 C606 1.427 . S
N610 C607 1.384 . S
N611 C603 1.427 . S
N611 C609 1.384 . S
H612 C618 0.930 . S
H613 C622 0.930 . S
H614 C627 0.929 . S
H615 C625 0.929 . S
H616 C620 0.929 . S
H617 C626 0.929 . S
C618 H612 0.930 . S
C618 C619 1.367 . S
C618 C626 1.378 . S
C619 C618 1.367 . S
C619 C627 1.433 . S
C620 H616 0.929 . S
C620 C622 1.378 . S
C620 C624 1.350 . S
C621 C624 1.463 . S
C621 C626 1.350 . S
C621 N629 1.427 . S
C622 H613 0.930 . S
C622 C620 1.378 . S
C622 C623 1.367 . S
C623 C622 1.367 . S
C623 C625 1.433 . S
C624 C620 1.350 . S
C624 C621 1.463 . S
C624 N628 1.427 . S
C625 H615 0.929 . S
C625 C623 1.433 . S
C625 N628 1.384 . S
C626 H617 0.929 . S
C626 C618 1.378 . S
C626 C621 1.350 . S
C627 H614 0.929 . S
C627 C619 1.433 . S
C627 N629 1.384 . S
N628 C624 1.427 . S
N628 C625 1.384 . S
N629 C621 1.427 . S
N629 C627 1.384 . S
H630 C636 0.930 . S
H631 C640 0.930 . S
H632 C645 0.929 . S
H633 C643 0.929 . S
H634 C638 0.929 . S
H635 C644 0.929 . S
C636 H630 0.930 . S
C636 C637 1.367 . S
C636 C644 1.378 . S
C637 C636 1.367 . S
C637 C645 1.433 . S
C638 H634 0.929 . S
C638 C640 1.378 . S
C638 C642 1.350 . S
C639 C642 1.463 . S
C639 C644 1.350 . S
C639 N647 1.427 . S
C640 H631 0.930 . S
C640 C638 1.378 . S
C640 C641 1.367 . S
C641 C640 1.367 . S
C641 C643 1.433 . S
C642 C638 1.350 . S
C642 C639 1.463 . S
C642 N646 1.427 . S
C643 H633 0.929 . S
C643 C641 1.433 . S
C643 N646 1.384 . S
C644 H635 0.929 . S
C644 C636 1.378 . S
C644 C639 1.350 . S
C645 H632 0.929 . S
C645 C637 1.433 . S
C645 N647 1.384 . S
N646 C642 1.427 . S
N646 C643 1.384 . S
N647 C639 1.427 . S
N647 C645 1.384 . S
H648 C654 0.930 . S
H649 C658 0.930 . S
H650 C663 0.929 . S
H651 C661 0.929 . S
H652 C656 0.929 . S
H653 C662 0.929 . S
C654 H648 0.930 . S
C654 C655 1.367 . S
C654 C662 1.378 . S
C655 C654 1.367 . S
C655 C663 1.433 1_655 S
C656 H652 0.929 . S
C656 C658 1.378 . S
C656 C660 1.350 . S
C657 C660 1.463 . S
C657 C662 1.350 1_455 S
C657 N665 1.427 . S
C658 H649 0.930 . S
C658 C656 1.378 . S
C658 C659 1.367 . S
C659 C658 1.367 . S
C659 C661 1.433 1_455 S
C660 C656 1.350 . S
C660 C657 1.463 . S
C660 N664 1.427 1_455 S
C661 H651 0.929 . S
C661 C659 1.433 1_655 S
C661 N664 1.384 . S
C662 H653 0.929 . S
C662 C654 1.378 . S
C662 C657 1.350 1_655 S
C663 H650 0.929 . S
C663 C655 1.433 1_455 S
C663 N665 1.384 . S
N664 C660 1.427 1_655 S
N664 C661 1.384 . S
N665 C657 1.427 . S
N665 C663 1.384 . S
H666 C672 0.930 . S
H667 C676 0.930 . S
H668 C681 0.929 . S
H669 C679 0.929 . S
H670 C674 0.929 . S
H671 C680 0.929 . S
C672 H666 0.930 . S
C672 C673 1.367 . S
C672 C680 1.378 . S
C673 C672 1.367 . S
C673 C681 1.433 . S
C674 H670 0.929 . S
C674 C676 1.378 1_565 S
C674 C678 1.350 . S
C675 C678 1.463 . S
C675 C680 1.350 . S
C675 N683 1.427 . S
C676 H667 0.930 . S
C676 C674 1.378 1_545 S
C676 C677 1.367 . S
C677 C676 1.367 . S
C677 C679 1.433 1_545 S
C678 C674 1.350 . S
C678 C675 1.463 . S
C678 N682 1.427 . S
C679 H669 0.929 . S
C679 C677 1.433 1_565 S
C679 N682 1.384 . S
C680 H671 0.929 . S
C680 C672 1.378 . S
C680 C675 1.350 . S
C681 H668 0.929 . S
C681 C673 1.433 . S
C681 N683 1.384 . S
N682 C678 1.427 . S
N682 C679 1.384 . S
N683 C675 1.427 . S
N683 C681 1.384 . S
H684 C690 0.930 . S
H685 C694 0.930 . S
H686 C699 0.929 1_554 S
H687 C697 0.929 . S
H688 C692 0.929 . S
H689 C698 0.929 . S
C690 H684 0.930 . S
C690 C691 1.367 . S
C690 C698 1.378 . S
C691 C690 1.367 . S
C691 C699 1.433 . S
C692 H688 0.929 . S
C692 C694 1.378 . S
C692 C696 1.350 . S
C693 C696 1.463 . S
C693 C698 1.350 . S
C693 N701 1.427 . S
C694 H685 0.930 . S
C694 C692 1.378 . S
C694 C695 1.367 . S
C695 C694 1.367 . S
C695 C697 1.433 . S
C696 C692 1.350 . S
C696 C693 1.463 . S
C696 N700 1.427 . S
C697 H687 0.929 . S
C697 C695 1.433 . S
C697 N700 1.384 . S
C698 H689 0.929 . S
C698 C690 1.378 . S
C698 C693 1.350 . S
C699 H686 0.929 1_556 S
C699 C691 1.433 . S
C699 N701 1.384 . S
N700 C696 1.427 . S
N700 C697 1.384 . S
N701 C693 1.427 . S
N701 C699 1.384 . S
H702 C708 0.930 . S
H703 C712 0.930 . S
H704 C717 0.929 . S
H705 C715 0.929 . S
H706 C710 0.929 . S
H707 C716 0.929 . S
C708 H702 0.930 . S
C708 C709 1.367 . S
C708 C716 1.378 . S
C709 C708 1.367 . S
C709 C717 1.433 . S
C710 H706 0.929 . S
C710 C712 1.378 . S
C710 C714 1.350 . S
C711 C714 1.463 . S
C711 C716 1.350 . S
C711 N719 1.427 . S
C712 H703 0.930 . S
C712 C710 1.378 . S
C712 C713 1.367 . S
C713 C712 1.367 . S
C713 C715 1.433 . S
C714 C710 1.350 . S
C714 C711 1.463 . S
C714 N718 1.427 . S
C715 H705 0.929 . S
C715 C713 1.433 . S
C715 N718 1.384 . S
C716 H707 0.929 . S
C716 C708 1.378 . S
C716 C711 1.350 . S
C717 H704 0.929 . S
C717 C709 1.433 . S
C717 N719 1.384 . S
N718 C714 1.427 . S
N718 C715 1.384 . S
N719 C711 1.427 . S
N719 C717 1.384 . S
H720 C726 0.930 . S
H721 C730 0.930 . S
H722 C735 0.936 . S
H723 C733 0.929 . S
H724 C728 0.929 . S
H725 C734 0.929 1_556 S
C726 H720 0.930 . S
C726 C727 1.367 . S
C726 C734 1.378 . S
C727 C726 1.367 . S
C727 C735 1.428 1_455 S
C728 H724 0.929 . S
C728 C730 1.378 . S
C728 C732 1.350 . S
C729 C732 1.463 . S
C729 C734 1.350 . S
C729 N737 1.427 . S
C730 H721 0.930 . S
C730 C728 1.378 . S
C730 C731 1.367 1_554 S
C731 C730 1.367 1_556 S
C731 C733 1.433 . S
C732 C728 1.350 . S
C732 C729 1.463 . S
C732 N736 1.427 1_554 S
C733 H723 0.929 . S
C733 C731 1.433 . S
C733 N736 1.384 . S
C734 H725 0.929 1_554 S
C734 C726 1.378 . S
C734 C729 1.350 . S
C735 H722 0.936 . S
C735 C727 1.428 1_655 S
C735 N737 1.383 1_655 S
N736 C732 1.427 1_556 S
N736 C733 1.384 . S
N737 C729 1.427 . S
N737 C735 1.383 1_455 S
H738 C744 0.930 . S
H739 C748 0.930 1_556 S
H740 C753 0.929 . S
H741 C751 0.929 . S
H742 C746 0.929 . S
H743 C752 0.929 . S
C744 H738 0.930 . S
C744 C745 1.367 . S
C744 C752 1.378 . S
C745 C744 1.367 . S
C745 C753 1.433 . S
C746 H742 0.929 . S
C746 C748 1.378 . S
C746 C750 1.350 . S
C747 C750 1.463 . S
C747 C752 1.350 . S
C747 N755 1.427 . S
C748 H739 0.930 1_554 S
C748 C746 1.378 . S
C748 C749 1.367 1_554 S
C749 C748 1.367 1_556 S
C749 C751 1.433 1_556 S
C750 C746 1.350 . S
C750 C747 1.463 . S
C750 N754 1.427 . S
C751 H741 0.929 . S
C751 C749 1.433 1_554 S
C751 N754 1.384 . S
C752 H743 0.929 . S
C752 C744 1.378 . S
C752 C747 1.350 . S
C753 H740 0.929 . S
C753 C745 1.433 . S
C753 N755 1.384 . S
N754 C750 1.427 . S
N754 C751 1.384 . S
N755 C747 1.427 . S
N755 C753 1.384 . S
H756 C762 0.930 . S
H757 C766 0.930 . S
H758 C771 0.929 . S
H759 C769 0.929 . S
H760 C764 0.929 . S
H761 C770 0.929 1_556 S
C762 H756 0.930 . S
C762 C763 1.367 . S
C762 C770 1.378 . S
C763 C762 1.367 . S
C763 C771 1.433 . S
C764 H760 0.929 . S
C764 C766 1.378 1_554 S
C764 C768 1.350 1_554 S
C765 C768 1.463 1_554 S
C765 C770 1.350 . S
C765 N773 1.427 . S
C766 H757 0.930 . S
C766 C764 1.378 1_556 S
C766 C767 1.367 . S
C767 C766 1.367 . S
C767 C769 1.433 . S
C768 C764 1.350 1_556 S
C768 C765 1.463 1_556 S
C768 N772 1.427 . S
C769 H759 0.929 . S
C769 C767 1.433 . S
C769 N772 1.384 . S
C770 H761 0.929 1_554 S
C770 C762 1.378 . S
C770 C765 1.350 . S
C771 H758 0.929 . S
C771 C763 1.433 . S
C771 N773 1.384 . S
N772 C768 1.427 . S
N772 C769 1.384 . S
N773 C765 1.427 . S
N773 C771 1.384 . S
H774 C780 0.930 . S
H775 C784 0.930 . S
H776 C789 0.929 . S
H777 C787 0.929 . S
H778 C782 0.929 . S
H779 C788 0.929 1_556 S
C780 H774 0.930 . S
C780 C781 1.367 . S
C780 C788 1.378 . S
C781 C780 1.367 . S
C781 C789 1.433 . S
C782 H778 0.929 . S
C782 C784 1.378 1_554 S
C782 C786 1.350 1_554 S
C783 C786 1.463 1_554 S
C783 C788 1.350 . S
C783 N791 1.427 . S
C784 H775 0.930 . S
C784 C782 1.378 1_556 S
C784 C785 1.367 . S
C785 C784 1.367 . S
C785 C787 1.433 . S
C786 C782 1.350 1_556 S
C786 C783 1.463 1_556 S
C786 N790 1.427 . S
C787 H777 0.929 . S
C787 C785 1.433 . S
C787 N790 1.384 . S
C788 H779 0.929 1_554 S
C788 C780 1.378 . S
C788 C783 1.350 . S
C789 H776 0.929 . S
C789 C781 1.433 . S
C789 N791 1.384 . S
N790 C786 1.427 . S
N790 C787 1.384 . S
N791 C783 1.427 . S
N791 C789 1.384 . S
H792 C798 0.930 . S
H793 C802 0.930 . S
H794 C807 0.929 . S
H795 C805 0.929 . S
H796 C800 0.929 . S
H797 C806 0.929 . S
C798 H792 0.930 . S
C798 C799 1.367 . S
C798 C806 1.378 . S
C799 C798 1.367 . S
C799 C807 1.433 1_655 S
C800 H796 0.929 . S
C800 C802 1.378 . S
C800 C804 1.350 1_455 S
C801 C804 1.463 . S
C801 C806 1.350 . S
C801 N809 1.427 1_655 S
C802 H793 0.930 . S
C802 C800 1.378 . S
C802 C803 1.367 1_455 S
C803 C802 1.367 1_655 S
C803 C805 1.433 . S
C804 C800 1.350 1_655 S
C804 C801 1.463 . S
C804 N808 1.427 . S
C805 H795 0.929 . S
C805 C803 1.433 . S
C805 N808 1.384 . S
C806 H797 0.929 . S
C806 C798 1.378 . S
C806 C801 1.350 . S
C807 H794 0.929 . S
C807 C799 1.433 1_455 S
C807 N809 1.384 . S
N808 C804 1.427 . S
N808 C805 1.384 . S
N809 C801 1.427 1_455 S
N809 C807 1.384 . S
H810 C816 0.930 . S
H811 C820 0.930 . S
H812 C825 0.929 . S
H813 C823 0.929 . S
H814 C818 0.929 . S
H815 C824 0.929 . S
C816 H810 0.930 . S
C816 C817 1.367 . S
C816 C824 1.378 . S
C817 C816 1.367 . S
C817 C825 1.433 . S
C818 H814 0.929 . S
C818 C820 1.378 . S
C818 C822 1.350 . S
C819 C822 1.463 . S
C819 C824 1.350 . S
C819 N827 1.427 . S
C820 H811 0.930 . S
C820 C818 1.378 . S
C820 C821 1.367 . S
C821 C820 1.367 . S
C821 C823 1.433 . S
C822 C818 1.350 . S
C822 C819 1.463 . S
C822 N826 1.427 . S
C823 H813 0.929 . S
C823 C821 1.433 . S
C823 N826 1.384 . S
C824 H815 0.929 . S
C824 C816 1.378 . S
C824 C819 1.350 . S
C825 H812 0.929 . S
C825 C817 1.433 . S
C825 N827 1.384 . S
N826 C822 1.427 . S
N826 C823 1.384 . S
N827 C819 1.427 . S
N827 C825 1.384 . S
H828 C834 0.930 . S
H829 C838 0.930 . S
H830 C843 0.929 . S
H831 C841 0.929 . S
H832 C836 0.929 . S
H833 C842 0.929 . S
C834 H828 0.930 . S
C834 C835 1.367 . S
C834 C842 1.378 . S
C835 C834 1.367 . S
C835 C843 1.433 . S
C836 H832 0.929 . S
C836 C838 1.378 . S
C836 C840 1.350 . S
C837 C840 1.463 . S
C837 C842 1.350 . S
C837 N845 1.427 . S
C838 H829 0.930 . S
C838 C836 1.378 . S
C838 C839 1.367 . S
C839 C838 1.367 . S
C839 C841 1.433 . S
C840 C836 1.350 . S
C840 C837 1.463 . S
C840 N844 1.427 . S
C841 H831 0.929 . S
C841 C839 1.433 . S
C841 N844 1.384 . S
C842 H833 0.929 . S
C842 C834 1.378 . S
C842 C837 1.350 . S
C843 H830 0.929 . S
C843 C835 1.433 . S
C843 N845 1.384 . S
N844 C840 1.427 . S
N844 C841 1.384 . S
N845 C837 1.427 . S
N845 C843 1.384 . S
H846 C852 0.930 . S
H847 C856 0.930 . S
H848 C861 0.929 . S
H849 C859 0.929 . S
H850 C854 0.929 . S
H851 C860 0.929 . S
C852 H846 0.930 . S
C852 C853 1.367 . S
C852 C860 1.378 . S
C853 C852 1.367 . S
C853 C861 1.433 . S
C854 H850 0.929 . S
C854 C856 1.378 . S
C854 C858 1.350 . S
C855 C858 1.463 . S
C855 C860 1.350 . S
C855 N863 1.427 . S
C856 H847 0.930 . S
C856 C854 1.378 . S
C856 C857 1.367 . S
C857 C856 1.367 . S
C857 C859 1.433 . S
C858 C854 1.350 . S
C858 C855 1.463 . S
C858 N862 1.427 . S
C859 H849 0.929 . S
C859 C857 1.433 . S
C859 N862 1.384 . S
C860 H851 0.929 . S
C860 C852 1.378 . S
C860 C855 1.350 . S
C861 H848 0.929 . S
C861 C853 1.433 . S
C861 N863 1.384 . S
N862 C858 1.427 . S
N862 C859 1.384 . S
N863 C855 1.427 . S
N863 C861 1.384 . S
C439 C255 1.832 . S
C443 C322 1.864 . S
C461 C352 1.748 . S
C457 C294 1.715 . S
C479 N386 1.763 . S
C475 C177 1.734 . S
C497 N416 1.371 . S
C493 C216 1.416 . S
C515 C313 1.869 1_565 S
C511 C99 1.852 . S
C529 C138 1.728 . S
C533 C343 1.752 . S
C547 C21 1.756 . S
C551 N378 1.755 . S
C565 C60 1.418 1_455 S
C569 N408 1.362 . S
C587 C328 0.463 . S
C583 C196 0.500 1_455 S
C605 C358 0.679 . S
C601 C235 0.702 . S
C623 C399 0.537 . S
C619 C289 0.542 . S
C637 C157 0.633 . S
C641 C429 0.606 . S
C655 C40 0.505 . S
C659 C339 0.463 . S
C677 C369 0.680 . S
C673 C79 0.705 . S
C695 C388 0.555 . S
C691 C133 0.571 . S
C709 C1 0.620 . S
C713 C418 0.610 . S
C727 C211 1.648 . S
C731 N318 1.701 . S
C745 C250 1.772 . S
C749 N348 1.850 . S
C767 C373 1.901 . S
C763 C274 1.822 . S
C785 C403 2.146 . S
C781 C172 2.034 . S
C799 C55 1.635 1_655 S
C803 N326 1.700 . S
C821 N356 1.846 . S
C817 C94 1.761 . S
C839 C382 1.896 . S
C835 C118 1.813 . S
C853 C16 2.023 . S
C857 C412 2.146 . S
