# Generated by pormake.
# Topology zzz, (3,6)-cn, num edge types: 1
# Building blocks:
#     Node 0, Type 0, BuildingBlock: ESEHIV_clean_linker_0, # of connection points: 3
#     Node 1, Type 0, BuildingBlock: ESEHIV_clean_linker_0, # of connection points: 3
#     Node 2, Type 0, BuildingBlock: ESEHIV_clean_linker_0, # of connection points: 3
#     Node 3, Type 0, BuildingBlock: ESEHIV_clean_linker_0, # of connection points: 3
#     Node 4, Type 0, BuildingBlock: ESEHIV_clean_linker_0, # of connection points: 3
#     Node 5, Type 0, BuildingBlock: ESEHIV_clean_linker_0, # of connection points: 3
#     Node 6, Type 0, BuildingBlock: ESEHIV_clean_linker_0, # of connection points: 3
#     Node 7, Type 0, BuildingBlock: ESEHIV_clean_linker_0, # of connection points: 3
#     Node 8, Type 1, BuildingBlock: BETDAH_clean_sbu_0, # of connection points: 6
#     Node 9, Type 1, BuildingBlock: BETDAH_clean_sbu_0, # of connection points: 6
#     Node 10, Type 1, BuildingBlock: BETDAH_clean_sbu_0, # of connection points: 6
#     Node 11, Type 1, BuildingBlock: BETDAH_clean_sbu_0, # of connection points: 6
#     Edge 12, Type (0, 1), BuildingBlock: MIFKUJ_clean_linker_0, # of connection points: 2
#     Edge 13, Type (0, 1), BuildingBlock: MIFKUJ_clean_linker_0, # of connection points: 2
#     Edge 14, Type (0, 1), BuildingBlock: MIFKUJ_clean_linker_0, # of connection points: 2
#     Edge 15, Type (0, 1), BuildingBlock: MIFKUJ_clean_linker_0, # of connection points: 2
#     Edge 16, Type (0, 1), BuildingBlock: MIFKUJ_clean_linker_0, # of connection points: 2
#     Edge 17, Type (0, 1), BuildingBlock: MIFKUJ_clean_linker_0, # of connection points: 2
#     Edge 18, Type (0, 1), BuildingBlock: MIFKUJ_clean_linker_0, # of connection points: 2
#     Edge 19, Type (0, 1), BuildingBlock: MIFKUJ_clean_linker_0, # of connection points: 2
#     Edge 20, Type (0, 1), BuildingBlock: MIFKUJ_clean_linker_0, # of connection points: 2
#     Edge 21, Type (0, 1), BuildingBlock: MIFKUJ_clean_linker_0, # of connection points: 2
#     Edge 22, Type (0, 1), BuildingBlock: MIFKUJ_clean_linker_0, # of connection points: 2
#     Edge 23, Type (0, 1), BuildingBlock: MIFKUJ_clean_linker_0, # of connection points: 2
#     Edge 24, Type (0, 1), BuildingBlock: MIFKUJ_clean_linker_0, # of connection points: 2
#     Edge 25, Type (0, 1), BuildingBlock: MIFKUJ_clean_linker_0, # of connection points: 2
#     Edge 26, Type (0, 1), BuildingBlock: MIFKUJ_clean_linker_0, # of connection points: 2
#     Edge 27, Type (0, 1), BuildingBlock: MIFKUJ_clean_linker_0, # of connection points: 2
#     Edge 28, Type (0, 1), BuildingBlock: MIFKUJ_clean_linker_0, # of connection points: 2
#     Edge 29, Type (0, 1), BuildingBlock: MIFKUJ_clean_linker_0, # of connection points: 2
#     Edge 30, Type (0, 1), BuildingBlock: MIFKUJ_clean_linker_0, # of connection points: 2
#     Edge 31, Type (0, 1), BuildingBlock: MIFKUJ_clean_linker_0, # of connection points: 2
#     Edge 32, Type (0, 1), BuildingBlock: MIFKUJ_clean_linker_0, # of connection points: 2
#     Edge 33, Type (0, 1), BuildingBlock: MIFKUJ_clean_linker_0, # of connection points: 2
#     Edge 34, Type (0, 1), BuildingBlock: MIFKUJ_clean_linker_0, # of connection points: 2
#     Edge 35, Type (0, 1), BuildingBlock: MIFKUJ_clean_linker_0, # of connection points: 2
# Relax obj value: 0.441
# Max RMSD: 0.272
# Mean RMSD: 0.255
data_MOF--net-zzz--node1-BETDAH_clean_sbu_0--node2-ESEHIV_clean_linker_0--edge1-MIFKUJ_clean_linker_0
_symmetry_space_group_name_H-M    P1
_symmetry_Int_Tables_number       1
_symmetry_cell_setting            triclinic
loop_
_symmetry_equiv_pos_as_xyz
'x, y, z'
_cell_length_a     60.798353
_cell_length_b     60.73555
_cell_length_c     18.480292
_cell_angle_alpha  90.1887
_cell_angle_beta   89.642325
_cell_angle_gamma 89.903822
loop_
_atom_site_label
_atom_site_type_symbol
_atom_site_fract_x
_atom_site_fract_y
_atom_site_fract_z
_atom_type_partial_charge
H0 H 0.7867 0.48917 0.25829 0.0
H1 H 0.72352 0.49957 0.16286 0.0
H2 H 0.73548 0.52219 0.3803 0.0
C3 C 0.76991 0.49507 0.26305 0.0
C4 C 0.76291 0.50539 0.3276 0.0
C5 C 0.75591 0.49319 0.20334 0.0
C6 C 0.73451 0.50133 0.20857 0.0
C7 C 0.72693 0.51175 0.27159 0.0
C8 C 0.74121 0.51406 0.33146 0.0
H9 H 0.97281 0.77303 0.30817 0.0
H10 H 0.97542 0.70976 0.20576 0.0
H11 H 0.99991 0.71781 0.42303 0.0
C12 C 0.97595 0.75547 0.31148 0.0
C13 C 0.98532 0.74702 0.37479 0.0
C14 C 0.97279 0.74229 0.25012 0.0
C15 C 0.97778 0.71993 0.25349 0.0
C16 C 0.9876 0.71084 0.31494 0.0
C17 C 0.99176 0.7245 0.37601 0.0
H18 H 0.7532 0.97205 0.25006 0.0
H19 H 0.81844 0.9739 0.16027 0.0
H20 H 0.80545 1.00285 0.36924 0.0
C21 C 0.77053 0.97582 0.25536 0.0
C22 C 0.77772 0.98635 0.31882 0.0
C23 C 0.78491 0.97177 0.19702 0.0
C24 C 0.80706 0.97732 0.20434 0.0
C25 C 0.81459 0.98891 0.26487 0.0
C26 C 0.79984 0.99368 0.32254 0.0
H27 H 0.464 0.74968 0.28377 0.0
H28 H 0.51678 0.79469 0.32811 0.0
H29 H 0.46973 0.80951 0.16179 0.0
C30 C 0.47184 0.76543 0.27423 0.0
C31 C 0.46443 0.77893 0.21789 0.0
C32 C 0.49031 0.77103 0.31553 0.0
C33 C 0.50203 0.7905 0.2986 0.0
C34 C 0.49432 0.80454 0.24321 0.0
C35 C 0.4754 0.79877 0.2046 0.0
H36 H 0.25251 0.46575 0.09628 0.0
H37 H 0.31055 0.465 0.2273 0.0
H38 H 0.30165 0.51564 0.0667 0.0
C39 C 0.26879 0.47203 0.1084 0.0
C40 C 0.2759 0.49103 0.07287 0.0
C41 C 0.28086 0.46277 0.16509 0.0
C42 C 0.30133 0.47179 0.18249 0.0
C43 C 0.30922 0.49057 0.14649 0.0
C44 C 0.29623 0.50056 0.09226 0.0
H45 H 0.95643 0.25055 0.10584 0.0
H46 H 0.96538 0.31068 0.22236 0.0
H47 H 0.01266 0.29127 0.0591 0.0
C48 C 0.96531 0.26583 0.11266 0.0
C49 C 0.9846 0.26937 0.07192 0.0
C50 C 0.95841 0.28034 0.16733 0.0
C51 C 0.97051 0.29947 0.1796 0.0
C52 C 0.99 0.30363 0.14108 0.0
C53 C 0.99736 0.28836 0.08773 0.0
H54 H 0.28782 0.03818 0.12338 0.0
H55 H 0.22366 0.04811 0.21713 0.0
H56 H 0.23021 0.01961 0.00465 0.0
C57 C 0.27005 0.03794 0.11933 0.0
C58 C 0.26068 0.02982 0.05537 0.0
C59 C 0.25694 0.04418 0.17895 0.0
C60 C 0.23407 0.04318 0.17212 0.0
C61 C 0.22427 0.03377 0.11103 0.0
C62 C 0.23759 0.02717 0.05175 0.0
H63 H 0.49802 0.28535 0.15421 0.0
H64 H 0.49714 0.22871 0.0131 0.0
H65 H 0.50038 0.22053 0.24464 0.0
C66 C 0.49736 0.26763 0.14705 0.0
C67 C 0.49913 0.25389 0.20747 0.0
C68 C 0.49649 0.25889 0.07677 0.0
C69 C 0.49719 0.23572 0.06705 0.0
C70 C 0.49838 0.22181 0.12834 0.0
C71 C 0.49907 0.23114 0.19771 0.0
Ho72 Ho 0.03349 1.00636 0.74317 0.0
Ho73 Ho 1.00108 0.01749 0.61834 0.0
C74 C 0.0125 0.96658 0.64565 0.0
C75 C 0.0534 0.99094 0.85476 0.0
C76 C 0.04791 0.97215 0.90037 0.0
C77 C 0.02653 0.9636 0.89839 0.0
C78 C 0.02141 0.94455 0.93616 0.0
C79 C 0.03767 0.93355 0.97577 0.0
C80 C 0.05903 0.94233 0.97883 0.0
C81 C 0.06411 0.96165 0.9414 0.0
C82 C 0.05239 0.02065 0.61826 0.0
C83 C 0.01586 0.056 0.73129 0.0
C84 C 0.98435 0.03134 0.49965 0.0
C85 C 0.96867 0.04932 0.48955 0.0
C86 C 0.96248 0.05599 0.42016 0.0
C87 C 0.95023 0.07532 0.41145 0.0
C88 C 0.94437 0.08813 0.47212 0.0
C89 C 0.94947 0.0806 0.54168 0.0
C90 C 0.96148 0.06128 0.55033 0.0
C91 C 0.97796 0.01184 0.74451 0.0
O92 O 0.02126 0.97252 0.70852 0.0
O93 O 1.00562 0.98127 0.59808 0.0
O94 O 0.05905 0.98588 0.78835 0.0
O95 O 0.03937 0.00728 0.85808 0.0
O96 O 0.05947 0.02528 0.68257 0.0
O97 O 0.03607 0.00793 0.62363 0.0
O98 O 0.00928 0.05126 0.66463 0.0
O99 O 0.02362 0.04068 0.77506 0.0
O100 O 0.97663 0.01426 0.5347 0.0
O101 O 1.00367 0.0377 0.523 0.0
O102 O 0.96913 0.01659 0.68293 0.0
O103 O 0.99833 0.01028 0.73388 0.0
H104 H 0.01396 0.97124 0.8656 0.0
H105 H 1.00498 0.93783 0.9314 0.0
H106 H 0.07182 0.934 0.0088 0.0
H107 H 0.08073 0.96802 0.94274 0.0
H108 H 0.96798 0.04691 0.37282 0.0
H109 H 0.94669 0.08103 0.35728 0.0
H110 H 0.94519 0.09031 0.58905 0.0
H111 H 0.96615 0.0563 0.60434 0.0
Ho112 Ho 0.52189 0.02515 0.72265 0.0
Ho113 Ho 0.51129 0.99379 0.6082 0.0
C114 C 0.56108 1.00596 0.62048 0.0
C115 C 0.54142 0.04366 0.82926 0.0
C116 C 0.56293 0.0368 0.85714 0.0
C117 C 0.56748 0.01423 0.86492 0.0
C118 C 0.58898 0.00691 0.87287 0.0
C119 C 0.60646 0.02197 0.87334 0.0
C120 C 0.60185 0.04464 0.86939 0.0
C121 C 0.58021 0.05201 0.86126 0.0
C122 C 0.5078 0.04508 0.60065 0.0
C123 C 0.47157 0.01266 0.71319 0.0
C124 C 0.494 0.97202 0.50295 0.0
C125 C 0.47161 0.96352 0.49443 0.0
C126 C 0.46055 0.96748 0.42968 0.0
C127 C 0.43779 0.96512 0.42653 0.0
C128 C 0.42571 0.95858 0.48815 0.0
C129 C 0.43718 0.95255 0.55088 0.0
C130 C 0.45994 0.95522 0.55427 0.0
C131 C 0.52465 0.97438 0.73289 0.0
O132 O 0.55524 0.01158 0.68711 0.0
O133 O 0.54582 1.00113 0.57264 0.0
O134 O 0.54205 0.05168 0.76378 0.0
O135 O 0.5254 0.02957 0.83817 0.0
O136 O 0.50314 0.05166 0.66578 0.0
O137 O 0.5207 0.02872 0.60315 0.0
O138 O 0.47709 1.00271 0.65164 0.0
O139 O 0.48667 0.02155 0.755 0.0
O140 O 0.50597 0.96281 0.5529 0.0
O141 O 0.49528 0.99349 0.50423 0.0
O142 O 0.53044 0.96792 0.66867 0.0
O143 O 0.51173 0.99054 0.72745 0.0
H144 H 0.5546 1.00201 0.86031 0.0
H145 H 0.59197 0.98934 0.87471 0.0
H146 H 0.61501 0.05663 0.87069 0.0
H147 H 0.57709 0.06944 0.85424 0.0
H148 H 0.46927 0.97408 0.38327 0.0
H149 H 0.42961 0.97025 0.37752 0.0
H150 H 0.42847 0.94708 0.59884 0.0
H151 H 0.46814 0.95217 0.60515 0.0
Ho152 Ho 0.49589 0.52439 0.78871 0.0
Ho153 Ho 0.53081 0.51557 0.68785 0.0
C154 C 0.51399 0.56448 0.68441 0.0
C155 C 0.47006 0.54099 0.88602 0.0
C156 C 0.45659 0.56113 0.88707 0.0
C157 C 0.46514 0.58101 0.8606 0.0
C158 C 0.45212 0.59985 0.85895 0.0
C159 C 0.43022 0.59931 0.88383 0.0
C160 C 0.42159 0.57937 0.90999 0.0
C161 C 0.43468 0.56039 0.91128 0.0
C162 C 0.48044 0.5096 0.66011 0.0
C163 C 0.51091 0.4753 0.78214 0.0
C164 C 0.55781 0.49817 0.59581 0.0
C165 C 0.56132 0.47486 0.57791 0.0
C166 C 0.54319 0.46092 0.56856 0.0
C167 C 0.54617 0.43829 0.56363 0.0
C168 C 0.56729 0.42906 0.56865 0.0
C169 C 0.58558 0.44301 0.5752 0.0
C170 C 0.58258 0.46582 0.58011 0.0
C171 C 0.54531 0.53035 0.81797 0.0
O172 O 0.50224 0.55865 0.74191 0.0
O173 O 0.52595 0.54989 0.64898 0.0
O174 O 0.46382 0.5259 0.84017 0.0
O175 O 0.49141 0.54376 0.88595 0.0
O176 O 0.47313 0.50357 0.7229 0.0
O177 O 0.49581 0.52339 0.66829 0.0
O178 O 0.51875 0.48126 0.71823 0.0
O179 O 0.50396 0.49049 0.82792 0.0
O180 O 0.56341 0.50358 0.66145 0.0
O181 O 0.53884 0.50658 0.57744 0.0
O182 O 0.55204 0.53763 0.75593 0.0
O183 O 0.53056 0.51604 0.80802 0.0
H184 H 0.48198 0.58212 0.84174 0.0
H185 H 0.4595 0.61505 0.84031 0.0
H186 H 0.4048 0.5785 0.9297 0.0
H187 H 0.42773 0.54515 0.93128 0.0
H188 H 0.52657 0.46737 0.56741 0.0
H189 H 0.53181 0.42797 0.55652 0.0
H190 H 0.60204 0.43627 0.57865 0.0
H191 H 0.59674 0.47633 0.58819 0.0
Ho192 Ho 0.01215 0.49404 0.77292 0.0
Ho193 Ho 0.02353 0.52699 0.66715 0.0
C194 C 0.97343 0.51393 0.67056 0.0
C195 C 0.99295 0.47026 0.86962 0.0
C196 C 0.96968 0.46359 0.87202 0.0
C197 C 0.95309 0.4795 0.86401 0.0
C198 C 0.93149 0.47315 0.85175 0.0
C199 C 0.92591 0.45079 0.84778 0.0
C200 C 0.94217 0.43479 0.85958 0.0
C201 C 0.96401 0.44117 0.87106 0.0
C202 C 0.02701 0.47592 0.64662 0.0
C203 C 0.06193 0.50593 0.76558 0.0
C204 C 0.04187 0.54888 0.56329 0.0
C205 C 0.05921 0.54225 0.5117 0.0
C206 C 0.05804 0.52179 0.47621 0.0
C207 C 0.07593 0.51392 0.43647 0.0
C208 C 0.09543 0.5262 0.43185 0.0
C209 C 0.09628 0.54709 0.4647 0.0
C210 C 0.07824 0.55509 0.50416 0.0
C211 C 0.00905 0.54492 0.79434 0.0
O212 O 0.9784 0.50469 0.73303 0.0
O213 O 0.98902 0.52208 0.62894 0.0
O214 O 1.00422 0.46187 0.81593 0.0
O215 O 0.99694 0.49124 0.87867 0.0
O216 O 0.0324 0.46935 0.71071 0.0
O217 O 0.01403 0.49215 0.6525 0.0
O218 O 0.05666 0.51258 0.69969 0.0
O219 O 0.04632 0.50023 0.81155 0.0
O220 O 0.04804 0.55044 0.63056 0.0
O221 O 0.02305 0.5388 0.55699 0.0
O222 O 1.00453 0.55255 0.73083 0.0
O223 O 0.02182 0.52867 0.78725 0.0
H224 H 0.95684 0.49693 0.86453 0.0
H225 H 0.91909 0.48578 0.84502 0.0
H226 H 0.93811 0.41744 0.8579 0.0
H227 H 0.97657 0.42863 0.87661 0.0
H228 H 0.04371 0.51134 0.48179 0.0
H229 H 0.07491 0.49761 0.41307 0.0
H230 H 0.11112 0.55691 0.46173 0.0
H231 H 0.0795 0.57086 0.53142 0.0
H232 H 0.18894 0.0606 0.08905 0.0
H233 H 0.15364 0.05727 0.15286 0.0
H234 H 0.17241 0.99269 0.22704 0.0
H235 H 0.20714 0.99569 0.16054 0.0
H236 H 0.12962 0.99396 0.22211 0.0
H237 H 0.18519 0.0403 0.32547 0.0
H238 H 0.21181 0.0709 0.32844 0.0
H239 H 0.15965 0.11721 0.29149 0.0
H240 H 0.13272 0.08684 0.28818 0.0
H241 H 0.09514 0.03354 0.61136 0.0
H242 H 0.11949 0.03425 0.50648 0.0
H243 H 0.06573 0.01434 0.36957 0.0
H244 H 0.04153 0.01225 0.4763 0.0
H245 H 0.12335 0.05611 0.39579 0.0
H246 H 0.08503 0.98831 0.21623 0.0
H247 H 0.06326 0.95425 0.22859 0.0
H248 H 0.08835 0.94492 0.44304 0.0
H249 H 0.11049 0.97874 0.43153 0.0
C250 C 0.18489 0.04518 0.11524 0.0
C251 C 0.20062 0.02825 0.11873 0.0
C252 C 0.16488 0.04342 0.15304 0.0
C253 C 0.16054 0.02499 0.19693 0.0
C254 C 0.17526 0.00713 0.19405 0.0
C255 C 0.19508 0.00874 0.15524 0.0
C256 C 0.14262 0.02554 0.25308 0.0
C257 C 0.1281 0.00765 0.25967 0.0
C258 C 0.14088 0.04303 0.30384 0.0
C259 C 0.157 0.06131 0.30578 0.0
C260 C 0.17943 0.05701 0.31761 0.0
C261 C 0.19456 0.0743 0.31943 0.0
C262 C 0.18744 0.09597 0.30979 0.0
C263 C 0.16515 0.10041 0.29874 0.0
C264 C 0.14994 0.08317 0.29703 0.0
C265 C 0.08844 0.02932 0.55895 0.0
C266 C 0.06639 0.02277 0.55232 0.0
C267 C 0.10243 0.02979 0.49859 0.0
C268 C 0.09473 0.02411 0.42935 0.0
C269 C 0.0724 0.01828 0.4222 0.0
C270 C 0.05847 0.01731 0.48319 0.0
C271 C 0.11032 0.02438 0.36587 0.0
C272 C 0.12449 0.0425 0.35777 0.0
C273 C 0.1123 1.00663 0.31591 0.0
C274 C 0.09917 0.98621 0.32332 0.0
C275 C 0.08592 0.97896 0.26594 0.0
C276 C 0.07353 0.9597 0.2728 0.0
C277 C 0.07435 0.94748 0.33669 0.0
C278 C 0.08766 0.95444 0.39371 0.0
C279 C 0.10012 0.97367 0.38707 0.0
H280 H 0.06473 0.93259 0.34192 0.0
H281 H 0.19919 0.10934 0.31112 0.0
H282 H 0.46561 0.19177 0.10793 0.0
H283 H 0.46564 0.15471 0.16026 0.0
H284 H 0.53476 0.16122 0.20721 0.0
H285 H 0.53487 0.19752 0.15143 0.0
H286 H 0.52692 0.12001 0.19874 0.0
H287 H 0.49289 0.18031 0.32542 0.0
H288 H 0.46664 0.21096 0.34185 0.0
H289 H 0.41256 0.16596 0.32226 0.0
H290 H 0.43854 0.13508 0.30464 0.0
H291 H 0.49948 0.089 0.60019 0.0
H292 H 0.49681 0.11357 0.49698 0.0
H293 H 0.50514 0.05825 0.35188 0.0
H294 H 0.50968 0.0338 0.45631 0.0
H295 H 0.47163 0.12054 0.39717 0.0
H296 H 0.52692 0.07527 0.18794 0.0
H297 H 0.55732 0.04828 0.18699 0.0
H298 H 0.57666 0.06964 0.39898 0.0
H299 H 0.54705 0.09733 0.39985 0.0
C300 C 0.48106 0.18466 0.12512 0.0
C301 C 0.50026 0.19747 0.12516 0.0
C302 C 0.48102 0.16362 0.1565 0.0
C303 C 0.50003 0.15539 0.1905 0.0
C304 C 0.5198 0.16709 0.18218 0.0
C305 C 0.51992 0.18786 0.14955 0.0
C306 C 0.49879 0.13686 0.24386 0.0
C307 C 0.51467 0.11999 0.24167 0.0
C308 C 0.48328 0.137 0.30157 0.0
C309 C 0.46762 0.15545 0.31285 0.0
C310 C 0.47539 0.17698 0.32426 0.0
C311 C 0.46057 0.19439 0.33376 0.0
C312 C 0.43795 0.19042 0.33289 0.0
C313 C 0.4301 0.16902 0.32273 0.0
C314 C 0.44485 0.15156 0.31295 0.0
C315 C 0.50082 0.08203 0.5463 0.0
C316 C 0.50495 0.05945 0.53648 0.0
C317 C 0.49914 0.09614 0.48694 0.0
C318 C 0.50099 0.08803 0.41574 0.0
C319 C 0.50421 0.06521 0.40581 0.0
C320 C 0.50663 0.05115 0.46558 0.0
C321 C 0.50004 0.10379 0.35324 0.0
C322 C 0.48368 0.1202 0.35366 0.0
C323 C 0.51583 0.10382 0.29621 0.0
C324 C 0.53454 0.08813 0.29437 0.0
C325 C 0.53782 0.07436 0.23398 0.0
C326 C 0.55496 0.05897 0.23338 0.0
C327 C 0.56891 0.05721 0.2929 0.0
C328 C 0.56593 0.07104 0.35275 0.0
C329 C 0.54903 0.08664 0.3532 0.0
H330 H 0.58204 0.04514 0.29262 0.0
H331 H 0.42649 0.20391 0.34027 0.0
H332 H 0.35085 0.47866 0.10852 0.0
H333 H 0.38424 0.48558 0.17884 0.0
H334 H 0.3475 0.52864 0.32113 0.0
H335 H 0.31428 0.52209 0.24955 0.0
H336 H 0.38965 0.54256 0.31147 0.0
H337 H 0.35216 0.47444 0.35796 0.0
H338 H 0.3358 0.43872 0.32473 0.0
H339 H 0.39875 0.41568 0.24946 0.0
H340 H 0.41542 0.45145 0.28113 0.0
H341 H 0.44266 0.48631 0.64517 0.0
H342 H 0.41733 0.48612 0.54364 0.0
H343 H 0.46145 0.528 0.42298 0.0
H344 H 0.48668 0.52883 0.52647 0.0
H345 H 0.41772 0.47252 0.41331 0.0
H346 H 0.43136 0.56066 0.30796 0.0
H347 H 0.44446 0.59665 0.35266 0.0
H348 H 0.42362 0.58002 0.56806 0.0
H349 H 0.41013 0.54409 0.52445 0.0
C350 C 0.35021 0.4904 0.15277 0.0
C351 C 0.33012 0.50015 0.17293 0.0
C352 C 0.36922 0.49416 0.19353 0.0
C353 C 0.36838 0.50734 0.2563 0.0
C354 C 0.34867 0.51845 0.27303 0.0
C355 C 0.32969 0.51481 0.23189 0.0
C356 C 0.3869 0.50722 0.30931 0.0
C357 C 0.39594 0.52724 0.33318 0.0
C358 C 0.39488 0.48731 0.33928 0.0
C359 C 0.38498 0.46569 0.32116 0.0
C360 C 0.36249 0.4618 0.33391 0.0
C361 C 0.35316 0.44155 0.31537 0.0
C362 C 0.36622 0.42496 0.28484 0.0
C363 C 0.38865 0.42857 0.27298 0.0
C364 C 0.39805 0.44882 0.2912 0.0
C365 C 0.44709 0.49541 0.59693 0.0
C366 C 0.46662 0.50774 0.59422 0.0
C367 C 0.43256 0.49524 0.53857 0.0
C368 C 0.43718 0.50728 0.4755 0.0
C369 C 0.4572 0.5189 0.47136 0.0
C370 C 0.47172 0.51924 0.53033 0.0
C371 C 0.42062 0.50787 0.41573 0.0
C372 C 0.41181 0.48788 0.39072 0.0
C373 C 0.41245 0.52785 0.38649 0.0
C374 C 0.41999 0.54961 0.41303 0.0
C375 C 0.4295 0.56474 0.36479 0.0
C376 C 0.437 0.58511 0.38995 0.0
C377 C 0.43495 0.59058 0.46321 0.0
C378 C 0.42527 0.57574 0.51139 0.0
C379 C 0.4177 0.55537 0.48648 0.0
H380 H 0.44083 0.60633 0.48261 0.0
H381 H 0.35897 0.40928 0.27052 0.0
H382 H 0.02497 0.3046 0.23178 0.0
H383 H 0.03595 0.33614 0.30651 0.0
H384 H 0.99239 0.37815 0.18585 0.0
H385 H 0.98145 0.34658 0.11125 0.0
H386 H 0.02989 0.40072 0.23069 0.0
H387 H 0.97344 0.35585 0.33539 0.0
H388 H 0.95681 0.32089 0.3749 0.0
H389 H 0.00983 0.31084 0.52375 0.0
H390 H 0.02686 0.34576 0.48471 0.0
H391 H 0.00828 0.48113 0.51206 0.0
H392 H 0.00662 0.45388 0.41358 0.0
H393 H 0.04603 0.40912 0.53903 0.0
H394 H 0.04771 0.43616 0.637 0.0
H395 H 0.0108 0.38831 0.48878 0.0
H396 H 0.06804 0.43227 0.37932 0.0
H397 H 0.08594 0.46565 0.33266 0.0
H398 H 0.03099 0.47756 0.19299 0.0
H399 H 0.01297 0.44381 0.238 0.0
C400 C 0.01864 0.32079 0.21885 0.0
C401 C 1.00272 0.32322 0.16464 0.0
C402 C 0.02463 0.33877 0.26235 0.0
C403 C 0.01472 0.35953 0.25278 0.0
C404 C 1.00029 0.36238 0.19445 0.0
C405 C 0.99421 0.34437 0.15125 0.0
C406 C 0.01744 0.3774 0.30806 0.0
C407 C 0.02551 0.39807 0.28698 0.0
C408 C 0.01191 0.37404 0.38183 0.0
C409 C 1.00152 0.35329 0.40666 0.0
C410 C 0.98161 0.34612 0.3763 0.0
C411 C 0.97211 0.32632 0.39861 0.0
C412 C 0.98232 0.31357 0.45153 0.0
C413 C 1.00197 0.3207 0.48263 0.0
C414 C 0.01153 0.34053 0.46056 0.0
C415 C 0.01687 0.46561 0.5181 0.0
C416 C 0.02802 0.46082 0.58271 0.0
C417 C 0.01596 0.45001 0.46161 0.0
C418 C 0.02619 0.42928 0.46847 0.0
C419 C 0.03789 0.42485 0.53216 0.0
C420 C 0.03889 0.44042 0.58823 0.0
C421 C 0.02365 0.41167 0.41185 0.0
C422 C 0.01533 0.39102 0.43264 0.0
C423 C 0.02882 0.4151 0.33784 0.0
C424 C 0.03909 0.43574 0.31258 0.0
C425 C 0.05971 0.44213 0.33913 0.0
C426 C 0.06992 0.46107 0.31267 0.0
C427 C 0.05953 0.4739 0.26027 0.0
C428 C 0.03898 0.46767 0.23376 0.0
C429 C 0.02882 0.44857 0.2594 0.0
H430 H 0.06743 0.48858 0.23983 0.0
H431 H 0.97496 0.29821 0.46857 0.0
H432 H 0.82749 0.02765 0.20725 0.0
H433 H 0.86221 0.0329 0.14171 0.0
H434 H 0.88761 0.97318 0.23466 0.0
H435 H 0.85257 0.96755 0.29852 0.0
H436 H 0.91452 0.02799 0.17552 0.0
H437 H 0.88523 0.94914 0.12501 0.0
H438 H 0.85277 0.92528 0.1086 0.0
H439 H 0.82506 0.97221 0.96151 0.0
H440 H 0.857 0.99665 0.9793 0.0
H441 H 0.99337 1.00553 0.88417 0.0
H442 H 0.97112 1.00259 0.99586 0.0
H443 H 0.91214 0.01242 0.87128 0.0
H444 H 0.934 0.01466 0.76106 0.0
H445 H 0.90556 0.98031 0.95922 0.0
H446 H 0.93648 0.05302 0.97848 0.0
H447 H 0.96644 0.08023 0.98649 0.0
H448 H 0.9889 0.05038 0.18304 0.0
H449 H 0.95934 0.0227 0.17536 0.0
C450 C 0.84096 0.01639 0.21731 0.0
C451 C 0.83742 0.99739 0.25913 0.0
C452 C 0.86075 0.01926 0.17906 0.0
C453 C 0.87743 1.00328 0.18243 0.0
C454 C 0.87494 0.98568 0.23094 0.0
C455 C 0.85503 0.98264 0.26849 0.0
C456 C 0.89495 1.00276 0.12551 0.0
C457 C 0.9129 0.01727 0.12883 0.0
C458 C 0.89257 0.98926 0.06361 0.0
C459 C 0.87326 0.97479 0.05429 0.0
C460 C 0.87205 0.95446 0.09002 0.0
C461 C 0.85375 0.94086 0.08051 0.0
C462 C 0.83679 0.94728 0.03437 0.0
C463 C 0.83811 0.96732 0.99766 0.0
C464 C 0.85623 0.9811 0.00775 0.0
C465 C 0.97566 0.00684 0.88092 0.0
C466 C 0.96545 0.01006 0.81366 0.0
C467 C 0.96294 1.00537 0.94481 0.0
C468 C 0.93982 0.0073 0.94243 0.0
C469 C 0.92984 0.01069 0.87505 0.0
C470 C 0.94243 0.01203 0.81181 0.0
C471 C 0.92556 1.00543 0.00862 0.0
C472 C 0.90784 0.99063 0.00663 0.0
C473 C 0.92818 0.01888 0.07101 0.0
C474 C 0.94588 0.03559 0.07579 0.0
C475 C 0.94794 0.05212 0.02302 0.0
C476 C 0.96483 0.06765 0.02754 0.0
C477 C 0.97961 0.06699 0.08509 0.0
C478 C 0.97749 0.05083 0.13836 0.0
C479 C 0.96068 0.03521 0.13391 0.0
H480 H 0.99267 0.07903 0.08853 0.0
H481 H 0.82265 0.93672 0.02694 0.0
H482 H 0.52736 0.80715 0.14453 0.0
H483 H 0.53734 0.83969 0.07395 0.0
H484 H 0.4958 0.87981 0.21137 0.0
H485 H 0.48537 0.84699 0.28045 0.0
H486 H 0.48535 0.88699 0.07964 0.0
H487 H 0.55408 0.88603 0.20034 0.0
H488 H 0.58856 0.87047 0.24769 0.0
H489 H 0.60967 0.85443 0.03169 0.0
H490 H 0.57517 0.86962 0.98305 0.0
H491 H 0.50793 0.98213 0.86879 0.0
H492 H 0.50771 0.95697 0.97237 0.0
H493 H 0.54438 0.90921 0.84719 0.0
H494 H 0.54509 0.9345 0.74441 0.0
H495 H 0.55836 0.90914 0.98385 0.0
H496 H 0.48698 0.90729 0.86739 0.0
H497 H 0.45266 0.924 0.82274 0.0
H498 H 0.43691 0.94657 0.03736 0.0
H499 H 0.47132 0.93027 0.08307 0.0
C500 C 0.52122 0.82311 0.16166 0.0
C501 C 0.50606 0.82465 0.21914 0.0
C502 C 0.52681 0.84176 0.12097 0.0
C503 C 0.51744 0.86244 0.1371 0.0
C504 C 0.50331 0.86416 0.19752 0.0
C505 C 0.4976 0.84546 0.23782 0.0
C506 C 0.52032 0.88148 0.08636 0.0
C507 C 0.50141 0.89209 0.0601 0.0
C508 C 0.54116 0.88804 0.05912 0.0
C509 C 0.56193 0.87881 0.0881 0.0
C510 C 0.56599 0.87902 0.16296 0.0
C511 C 0.58556 0.8703 0.19003 0.0
C512 C 0.60128 0.86142 0.14275 0.0
C513 C 0.59747 0.8613 0.06826 0.0
C514 C 0.57792 0.86999 0.0409 0.0
C515 C 0.51616 0.96636 0.86371 0.0
C516 C 0.52631 0.96021 0.7981 0.0
C517 C 0.51594 0.95192 0.92289 0.0
C518 C 0.52565 0.93091 0.91747 0.0
C519 C 0.53668 0.92522 0.85297 0.0
C520 C 0.53701 0.93969 0.79402 0.0
C521 C 0.52341 0.91437 0.97705 0.0
C522 C 0.54239 0.90418 0.00449 0.0
C523 C 0.50265 0.90827 0.00589 0.0
C524 C 0.48182 0.91776 0.97848 0.0
C525 C 0.47626 0.91593 0.90495 0.0
C526 C 0.45679 0.92532 0.87947 0.0
C527 C 0.44265 0.93639 0.92718 0.0
C528 C 0.44791 0.93803 1.00048 0.0
C529 C 0.46738 0.92871 0.02619 0.0
H530 H 0.42759 0.94367 0.9075 0.0
H531 H 0.61642 0.85468 0.16382 0.0
H532 H 0.71216 0.55094 0.22124 0.0
H533 H 0.67606 0.55682 0.16675 0.0
H534 H 0.65391 0.49473 0.25285 0.0
H535 H 0.69017 0.48883 0.30667 0.0
H536 H 0.64951 0.49539 0.11081 0.0
H537 H 0.62916 0.54457 0.30177 0.0
H538 H 0.63325 0.57593 0.38561 0.0
H539 H 0.6361 0.6205 0.20592 0.0
H540 H 0.63233 0.58937 0.12088 0.0
H541 H 0.54591 0.5023 0.93422 0.0
H542 H 0.57264 0.50161 0.03324 0.0
H543 H 0.60333 0.56013 0.94848 0.0
H544 H 0.57685 0.56071 0.84901 0.0
H545 H 0.60077 0.5608 0.09927 0.0
H546 H 0.62381 0.51232 0.90933 0.0
H547 H 0.62142 0.48146 0.82293 0.0
H548 H 0.61614 0.43581 0.99893 0.0
H549 H 0.6175 0.46649 0.08656 0.0
C550 C 0.69916 0.53921 0.23219 0.0
C551 C 0.70383 0.51968 0.26978 0.0
C552 C 0.67852 0.54244 0.20025 0.0
C553 C 0.66212 0.52619 0.20517 0.0
C554 C 0.66621 0.50754 0.24805 0.0
C555 C 0.68683 0.50433 0.28002 0.0
C556 C 0.64225 0.52712 0.15765 0.0
C557 C 0.63853 0.50948 0.10978 0.0
C558 C 0.62831 0.54582 0.15394 0.0
C559 C 0.63064 0.56459 0.20489 0.0
C560 C 0.63085 0.56104 0.28007 0.0
C561 C 0.63307 0.57878 0.32783 0.0
C562 C 0.63498 0.60019 0.30111 0.0
C563 C 0.63463 0.6039 0.22655 0.0
C564 C 0.63243 0.58621 0.17854 0.0
C565 C 0.55813 0.51522 0.93737 0.0
C566 C 0.55933 0.53152 0.88355 0.0
C567 C 0.57347 0.51477 0.99388 0.0
C568 C 0.59017 0.53072 0.99817 0.0
C569 C 0.59064 0.54765 0.94654 0.0
C570 C 0.57551 0.54794 0.88956 0.0
C571 C 0.60803 0.529 0.05322 0.0
C572 C 0.6115 0.54654 0.10167 0.0
C573 C 0.62187 0.51025 0.05727 0.0
C574 C 0.62034 0.49179 0.00459 0.0
C575 C 0.62168 0.49575 0.9297 0.0
C576 C 0.62051 0.47828 0.88047 0.0
C577 C 0.61841 0.4567 0.90543 0.0
C578 C 0.61748 0.45256 0.9797 0.0
C579 C 0.61837 0.46999 0.02917 0.0
H580 H 0.61765 0.44317 0.86725 0.0
H581 H 0.63669 0.6139 0.33818 0.0
H582 H 0.96382 0.67379 0.34174 0.0
H583 H 0.96865 0.63877 0.27737 0.0
H584 H 0.03071 0.66174 0.19224 0.0
H585 H 0.02616 0.69621 0.25882 0.0
H586 H 0.96669 0.63463 0.14352 0.0
H587 H 0.06215 0.622 0.12125 0.0
H588 H 0.09453 0.62285 0.20093 0.0
H589 H 0.05301 0.61225 0.38629 0.0
H590 H 0.02041 0.61109 0.30773 0.0
H591 H 0.99211 0.58633 0.80896 0.0
H592 H 0.9896 0.60896 0.91799 0.0
H593 H 0.01709 0.55594 0.04344 0.0
H594 H 0.02044 0.53347 0.93306 0.0
H595 H 0.03427 0.59167 0.08968 0.0
H596 H 0.96065 0.57065 0.05195 0.0
H597 H 0.92623 0.56434 0.98524 0.0
H598 H 0.92044 0.63368 0.94487 0.0
H599 H 0.95502 0.64039 0.01042 0.0
C600 C 0.97913 0.67074 0.31309 0.0
C601 C 0.99488 0.68757 0.30704 0.0
C602 C 0.98171 0.65086 0.27483 0.0
C603 C 1.0 0.6474 0.22893 0.0
C604 C 0.01661 0.66353 0.22787 0.0
C605 C 0.01413 0.68329 0.26675 0.0
C606 C 1.00027 0.62875 0.17501 0.0
C607 C 0.98148 0.62517 0.13246 0.0
C608 C 0.01925 0.61574 0.16089 0.0
C609 C 0.0388 0.61665 0.20854 0.0
C610 C 0.05993 0.6198 0.17898 0.0
C611 C 0.07832 0.62035 0.22398 0.0
C612 C 0.07582 0.61767 0.29864 0.0
C613 C 0.05491 0.61442 0.32848 0.0
C614 C 0.03646 0.61388 0.28375 0.0
C615 C 0.99752 0.5794 0.85977 0.0
C616 C 0.00641 0.55803 0.86221 0.0
C617 C 0.99597 0.59237 0.9225 0.0
C618 C 1.00279 0.58419 0.98996 0.0
C619 C 0.01165 0.56276 0.9925 0.0
C620 C 0.01346 0.54984 0.92936 0.0
C621 C 1.00099 0.59827 0.05688 0.0
C622 C 0.01946 0.60101 0.10155 0.0
C623 C 0.98143 0.60988 0.07493 0.0
C624 C 0.96054 0.606 0.03572 0.0
C625 C 0.95212 0.58455 0.02846 0.0
C626 C 0.93257 0.5809 0.9909 0.0
C627 C 0.92118 0.59859 0.96074 0.0
C628 C 0.92929 0.61999 0.96824 0.0
C629 C 0.94886 0.62373 0.00568 0.0
H630 H 0.90604 0.59573 0.93165 0.0
H631 H 0.09009 0.61807 0.33336 0.0
H632 H 0.9596 0.28345 0.3146 0.0
H633 H 0.94247 0.25727 0.39594 0.0
H634 H 0.90336 0.23209 0.2208 0.0
H635 H 0.91933 0.25939 0.13955 0.0
H636 H 0.8908 0.22254 0.39546 0.0
H637 H 0.94819 0.20017 0.19007 0.0
H638 H 0.98021 0.21177 0.11682 0.0
H639 H 0.00916 0.24167 0.30422 0.0
H640 H 0.97751 0.22971 0.37883 0.0
H641 H 0.90865 0.10294 0.39617 0.0
H642 H 0.89983 0.14162 0.3684 0.0
H643 H 0.95558 0.16264 0.49385 0.0
H644 H 0.96385 0.12452 0.52393 0.0
H645 H 0.95654 0.17552 0.35196 0.0
H646 H 0.90731 0.17555 0.55482 0.0
H647 H 0.87629 0.16217 0.6289 0.0
H648 H 0.83167 0.17585 0.45547 0.0
H649 H 0.86252 0.18898 0.37978 0.0
C650 C 0.94615 0.27361 0.29427 0.0
C651 C 0.94144 0.27287 0.21987 0.0
C652 C 0.93632 0.25856 0.34119 0.0
C653 C 0.9222 0.2424 0.31362 0.0
C654 C 0.91438 0.24438 0.24283 0.0
C655 C 0.92378 0.25979 0.1962 0.0
C656 C 0.92289 0.22031 0.346 0.0
C657 C 0.90508 0.21216 0.38628 0.0
C658 C 0.94158 0.20692 0.33387 0.0
C659 C 0.96049 0.21429 0.28954 0.0
C660 C 0.96144 0.20919 0.21548 0.0
C661 C 0.97956 0.21569 0.17391 0.0
C662 C 0.9967 0.2275 0.20578 0.0
C663 C 0.99586 0.23258 0.27955 0.0
C664 C 0.97791 0.22584 0.32158 0.0
C665 C 0.91852 0.11597 0.41941 0.0
C666 C 0.93677 0.11094 0.46256 0.0
C667 C 0.91343 0.13794 0.40398 0.0
C668 C 0.92685 0.1549 0.43043 0.0
C669 C 0.9447 0.14979 0.47485 0.0
C670 C 0.94947 0.12804 0.49154 0.0
C671 C 0.92466 0.17758 0.40331 0.0
C672 C 0.94223 0.18579 0.3624 0.0
C673 C 0.90585 0.19083 0.41596 0.0
C674 C 0.88727 0.18302 0.46131 0.0
C675 C 0.89092 0.17549 0.53215 0.0
C676 C 0.87336 0.168 0.57452 0.0
C677 C 0.85203 0.1681 0.54684 0.0
C678 C 0.84821 0.17575 0.47679 0.0
C679 C 0.86573 0.18324 0.43415 0.0
H680 H 0.83845 0.1623 0.57973 0.0
H681 H 0.01064 0.23265 0.17337 0.0
H682 H 0.29718 0.06258 0.21262 0.0
H683 H 0.31886 0.05222 0.31747 0.0
H684 H 0.26127 0.02434 0.41831 0.0
H685 H 0.23993 0.03264 0.31227 0.0
H686 H 0.32351 0.04847 0.46738 0.0
H687 H 0.27118 0.97224 0.44226 0.0
H688 H 0.24289 0.95667 0.36152 0.0
H689 H 0.27416 0.98696 0.1783 0.0
H690 H 0.30281 1.00235 0.25779 0.0
H691 H 0.40045 0.97322 0.60169 0.0
H692 H 0.36354 0.9886 0.59464 0.0
H693 H 0.35975 0.96842 0.37105 0.0
H694 H 0.396 0.95179 0.37905 0.0
H695 H 0.32136 0.96785 0.42205 0.0
H696 H 0.38204 0.02266 0.43902 0.0
H697 H 0.4126 0.04003 0.50558 0.0
H698 H 0.36921 0.05381 0.68444 0.0
H699 H 0.33848 0.03639 0.61901 0.0
C700 C 0.28894 0.05467 0.25766 0.0
C701 C 0.2671 0.04728 0.25154 0.0
C702 C 0.30131 0.04916 0.31838 0.0
C703 C 0.29178 0.0367 0.37411 0.0
C704 C 0.26898 0.03353 0.3749 0.0
C705 C 0.25674 0.03843 0.31351 0.0
C706 C 0.30609 0.02188 0.41626 0.0
C707 C 0.32282 0.0308 0.45902 0.0
C708 C 0.30528 0.99882 0.40463 0.0
C709 C 0.28894 0.98856 0.35596 0.0
C710 C 0.27208 0.97539 0.38465 0.0
C711 C 0.25599 0.96663 0.33913 0.0
C712 C 0.25671 0.97087 0.26484 0.0
C713 C 0.27364 0.98368 0.23578 0.0
C714 C 0.28983 0.99237 0.28099 0.0
C715 C 0.39147 0.97129 0.5518 0.0
C716 C 0.40152 0.96192 0.49013 0.0
C717 C 0.37039 0.9803 0.54777 0.0
C718 C 0.35916 0.98039 0.48181 0.0
C719 C 0.36817 0.96887 0.42254 0.0
C720 C 0.38905 0.95954 0.42688 0.0
C721 C 0.33952 0.99446 0.47063 0.0
C722 C 0.32164 0.98538 0.43354 0.0
C723 C 0.3397 0.0174 0.48585 0.0
C724 C 0.35805 0.0282 0.52435 0.0
C725 C 0.37906 0.02945 0.49248 0.0
C726 C 0.39639 0.03929 0.52999 0.0
C727 C 0.39282 0.04812 0.59902 0.0
C728 C 0.37192 0.04709 0.63079 0.0
C729 C 0.35455 0.03723 0.59356 0.0
H730 H 0.40627 0.05565 0.62808 0.0
H731 H 0.24415 0.96421 0.22978 0.0
H732 H 0.47955 0.28888 0.2754 0.0
H733 H 0.49571 0.31075 0.37277 0.0
H734 H 0.54732 0.26259 0.39644 0.0
H735 H 0.53131 0.24063 0.29941 0.0
H736 H 0.53634 0.28912 0.52928 0.0
H737 H 0.55814 0.29501 0.27718 0.0
H738 H 0.54912 0.29699 0.14738 0.0
H739 H 0.51383 0.35733 0.18394 0.0
H740 H 0.52215 0.35539 0.31438 0.0
H741 H 0.59695 0.40519 0.48859 0.0
H742 H 0.59415 0.36602 0.45885 0.0
H743 H 0.53929 0.35997 0.60709 0.0
H744 H 0.543 0.39851 0.63981 0.0
H745 H 0.5605 0.35445 0.38904 0.0
H746 H 0.5253 0.30927 0.64529 0.0
H747 H 0.53418 0.30644 0.77511 0.0
H748 H 0.60116 0.32397 0.73033 0.0
H749 H 0.59295 0.32654 0.60023 0.0
C750 C 0.49386 0.28258 0.30325 0.0
C751 C 0.50449 0.2634 0.27887 0.0
C752 C 0.50293 0.29493 0.35924 0.0
C753 C 0.52287 0.28836 0.39053 0.0
C754 C 0.5319 0.26782 0.3729 0.0
C755 C 0.52276 0.25537 0.31714 0.0
C756 C 0.53676 0.30507 0.42548 0.0
C757 C 0.54178 0.30344 0.4992 0.0
C758 C 0.54464 0.32309 0.38469 0.0
C759 C 0.54063 0.32495 0.30564 0.0
C760 C 0.54839 0.30865 0.25759 0.0
C761 C 0.54338 0.30975 0.18393 0.0
C762 C 0.53087 0.32725 0.15748 0.0
C763 C 0.52349 0.34377 0.20455 0.0
C764 C 0.52834 0.34267 0.27836 0.0
C765 C 0.585 0.39521 0.51718 0.0
C766 C 0.56975 0.4049 0.56492 0.0
C767 C 0.58335 0.37286 0.50004 0.0
C768 C 0.56635 0.36006 0.53004 0.0
C769 C 0.55271 0.36929 0.58364 0.0
C770 C 0.55457 0.39147 0.60147 0.0
C771 C 0.5596 0.33927 0.49465 0.0
C772 C 0.55576 0.34003 0.41988 0.0
C773 C 0.5533 0.32037 0.53454 0.0
C774 C 0.55846 0.31818 0.61274 0.0
C775 C 0.54198 0.31233 0.66291 0.0
C776 C 0.54687 0.31085 0.73662 0.0
C777 C 0.56815 0.3151 0.76089 0.0
C778 C 0.58466 0.32075 0.71149 0.0
C779 C 0.5799 0.32224 0.63775 0.0
H780 H 0.57185 0.31399 0.81798 0.0
H781 H 0.52689 0.32798 0.10057 0.0
H782 H 0.27759 0.46737 0.31092 0.0
H783 H 0.24307 0.4611 0.37306 0.0
H784 H 0.22128 0.42007 0.19676 0.0
H785 H 0.2562 0.4261 0.13441 0.0
H786 H 0.20401 0.46142 0.19406 0.0
H787 H 0.20916 0.40474 0.36769 0.0
H788 H 0.22529 0.38281 0.46602 0.0
H789 H 0.22227 0.43886 0.60793 0.0
H790 H 0.20646 0.46126 0.51023 0.0
H791 H 0.099 0.50344 0.30474 0.0
H792 H 0.1297 0.48012 0.2657 0.0
H793 H 0.16795 0.50342 0.44652 0.0
H794 H 0.13668 0.52539 0.48839 0.0
H795 H 0.17118 0.46117 0.44 0.0
H796 H 0.17807 0.51938 0.26218 0.0
H797 H 0.16669 0.54391 0.16291 0.0
H798 H 0.1511 0.48782 0.03124 0.0
H799 H 0.16256 0.46291 0.12945 0.0
C800 C 0.26622 0.45565 0.28761 0.0
C801 C 0.26901 0.44816 0.21612 0.0
C802 C 0.24629 0.45207 0.32344 0.0
C803 C 0.22926 0.44087 0.28803 0.0
C804 C 0.23409 0.42913 0.22433 0.0
C805 C 0.25411 0.43258 0.18872 0.0
C806 C 0.20644 0.4483 0.30215 0.0
C807 C 0.1964 0.46069 0.2473 0.0
C808 C 0.19704 0.4481 0.37215 0.0
C809 C 0.20663 0.43473 0.43133 0.0
C810 C 0.21207 0.41246 0.41966 0.0
C811 C 0.22114 0.39993 0.47537 0.0
C812 C 0.22481 0.40943 0.54316 0.0
C813 C 0.2194 0.4315 0.55541 0.0
C814 C 0.21034 0.44412 0.49989 0.0
C815 C 0.11399 0.50352 0.33593 0.0
C816 C 0.11535 0.51591 0.40004 0.0
C817 C 0.13161 0.49039 0.31326 0.0
C818 C 0.15115 0.48993 0.35331 0.0
C819 C 0.15295 0.50331 0.41514 0.0
C820 C 0.1352 0.51614 0.43844 0.0
C821 C 0.1695 0.475 0.33282 0.0
C822 C 0.1785 0.4613 0.38633 0.0
C823 C 0.17837 0.47438 0.26191 0.0
C824 C 0.17083 0.4893 0.2036 0.0
C825 C 0.17202 0.51228 0.21229 0.0
C826 C 0.1657 0.52623 0.15603 0.0
C827 C 0.15817 0.5174 0.09082 0.0
C828 C 0.15701 0.4946 0.08166 0.0
C829 C 0.16344 0.48056 0.13754 0.0
H830 H 0.15325 0.5282 0.04736 0.0
H831 H 0.23183 0.3997 0.58621 0.0
H832 H 0.94383 0.77529 0.21675 0.0
H833 H 0.95165 0.8033 0.12658 0.0
H834 H 1.00219 0.76194 0.03321 0.0
H835 H 0.99495 0.73421 0.12441 0.0
H836 H 0.0187 0.79572 0.10825 0.0
H837 H 0.96654 0.78819 0.92168 0.0
H838 H 0.93041 0.78233 0.86516 0.0
H839 H 0.90568 0.84115 0.96647 0.0
H840 H 0.94155 0.84723 0.02454 0.0
H841 H 0.06124 0.89582 0.95941 0.0
H842 H 0.04857 0.85851 0.98542 0.0
H843 H 0.98954 0.88488 0.0839 0.0
H844 H 1.00217 0.92226 0.05787 0.0
H845 H 0.9799 0.85571 0.9804 0.0
H846 H 0.0277 0.85929 0.1836 0.0
H847 H 0.06211 0.86488 0.25087 0.0
H848 H 0.09321 0.81329 0.12791 0.0
H849 H 0.059 0.80752 0.05929 0.0
C850 C 0.95581 0.7717 0.17469 0.0
C851 C 0.96939 0.75305 0.1794 0.0
C852 C 0.96015 0.78765 0.12254 0.0
C853 C 0.97795 0.78489 0.07457 0.0
C854 C 0.98857 0.76443 0.07044 0.0
C855 C 0.98433 0.74853 0.1228 0.0
C856 C 0.98955 0.80472 0.04892 0.0
C857 C 0.01058 0.80856 0.07759 0.0
C858 C 0.97852 0.82172 0.01208 0.0
C859 C 0.95678 0.81812 0.97773 0.0
C860 C 0.95336 0.79979 0.93242 0.0
C861 C 0.93292 0.79645 0.89998 0.0
C862 C 0.91576 0.81135 0.91226 0.0
C863 C 0.919 0.82963 0.95696 0.0
C864 C 0.93941 0.83306 0.98954 0.0
C865 C 0.04594 0.89365 0.98883 0.0
C866 C 0.03258 0.9118 0.00635 0.0
C867 C 0.03867 0.87236 1.00334 0.0
C868 C 0.01802 0.86902 0.03577 0.0
C869 C 1.0054 0.88719 0.05797 0.0
C870 C 0.01264 0.90845 0.04339 0.0
C871 C 0.00875 0.84668 0.04091 0.0
C872 C 0.98831 0.84255 0.0085 0.0
C873 C 0.02012 0.82945 0.07542 0.0
C874 C 0.04088 0.83319 0.1155 0.0
C875 C 0.04196 0.84933 0.17017 0.0
C876 C 0.0614 0.85247 0.2088 0.0
C877 C 0.07987 0.83952 0.19346 0.0
C878 C 0.0789 0.82335 0.1396 0.0
C879 C 0.05948 0.82012 0.10088 0.0
H880 H 0.0949 0.84196 0.22346 0.0
H881 H 0.89995 0.80873 0.88708 0.0
H882 H 0.79878 0.98625 0.06411 0.0
H883 H 0.77798 0.98557 0.95318 0.0
H884 H 0.72868 0.94514 0.05556 0.0
H885 H 0.75067 0.94366 0.16528 0.0
H886 H 0.72592 0.94312 0.90557 0.0
H887 H 0.72958 0.99943 0.09845 0.0
H888 H 0.75088 0.02501 0.17466 0.0
H889 H 0.77565 0.05724 0.98436 0.0
H890 H 0.75472 0.03154 0.90709 0.0
H891 H 0.62272 0.98826 0.95396 0.0
H892 H 0.66015 0.974 0.95467 0.0
H893 H 0.67968 0.02281 0.79799 0.0
H894 H 0.64185 0.0369 0.79524 0.0
H895 H 0.7048 0.02197 0.92364 0.0
H896 H 0.68038 0.97255 0.74743 0.0
H897 H 0.65548 0.94624 0.68818 0.0
H898 H 0.66563 0.89995 0.85975 0.0
H899 H 0.69003 0.92618 0.92143 0.0
C900 C 0.78437 0.97585 0.06216 0.0
C901 C 0.7761 0.96552 0.12486 0.0
C902 C 0.77236 0.97563 0.99821 0.0
C903 C 0.75142 0.96608 0.99723 0.0
C904 C 0.7447 0.95294 0.05562 0.0
C905 C 0.75708 0.9525 0.11896 0.0
C906 C 0.73442 0.97493 0.94837 0.0
C907 C 0.72133 0.96036 0.90844 0.0
C908 C 0.72884 0.99759 0.95104 0.0
C909 C 0.74081 0.0135 0.99715 0.0
C910 C 0.73959 0.01198 0.07299 0.0
C911 C 0.75162 0.02645 0.11632 0.0
C912 C 0.76465 0.04272 0.08436 0.0
C913 C 0.76559 0.0446 0.00901 0.0
C914 C 0.75367 0.03008 0.96541 0.0
C915 C 0.63484 0.99574 0.91862 0.0
C916 C 0.62936 0.01375 0.87475 0.0
C917 C 0.65618 0.98749 0.91878 0.0
C918 C 0.67249 0.99712 0.87533 0.0
C919 C 0.66718 0.01507 0.83125 0.0
C920 C 0.64569 0.02326 0.83059 0.0
C921 C 0.69548 0.98996 0.88416 0.0
C922 C 0.70979 1.00491 0.91699 0.0
C923 C 0.70167 0.96758 0.8765 0.0
C924 C 0.68717 0.95145 0.83917 0.0
C925 C 0.67718 0.95685 0.77303 0.0
C926 C 0.66312 0.94193 0.73895 0.0
C927 C 0.65902 0.92142 0.77008 0.0
C928 C 0.6689 0.91582 0.83552 0.0
C929 C 0.68288 0.93072 0.87006 0.0
H930 H 0.64817 0.90988 0.74352 0.0
H931 H 0.77398 0.0539 0.11796 0.0
H932 H 0.42757 0.75426 0.24879 0.0
H933 H 0.40803 0.73092 0.16302 0.0
H934 H 0.44186 0.76243 0.98583 0.0
H935 H 0.46272 0.78448 0.07069 0.0
H936 H 0.38376 0.72821 0.03951 0.0
H937 H 0.46679 0.72256 0.8863 0.0
H938 H 0.50624 0.72991 0.90579 0.0
H939 H 0.49735 0.72145 0.13474 0.0
H940 H 0.45802 0.71344 0.11633 0.0
H941 H 0.42775 0.63235 0.78396 0.0
H942 H 0.41805 0.6706 0.81 0.0
H943 H 0.39472 0.6518 0.02175 0.0
H944 H 0.40482 0.61367 0.99689 0.0
H945 H 0.44371 0.68419 0.92696 0.0
H946 H 0.36199 0.69518 0.08729 0.0
H947 H 0.32342 0.68296 0.07981 0.0
H948 H 0.33018 0.67444 0.85002 0.0
H949 H 0.36868 0.68692 0.85583 0.0
C950 C 0.43062 0.7565 0.19149 0.0
C951 C 0.44743 0.77061 0.16705 0.0
C952 C 0.41912 0.74339 0.14243 0.0
C953 C 0.42403 0.74452 0.06831 0.0
C954 C 0.43816 0.76107 0.04307 0.0
C955 C 0.45004 0.77379 0.09203 0.0
C956 C 0.41869 0.72557 0.02112 0.0
C957 C 0.39677 0.71863 0.01413 0.0
C958 C 0.43574 0.71309 0.98821 0.0
C959 C 0.4594 0.71783 0.99997 0.0
C960 C 0.47329 0.72225 0.94074 0.0
C961 C 0.49563 0.72646 0.9516 0.0
C962 C 0.50427 0.72626 0.02151 0.0
C963 C 0.49062 0.72167 0.08066 0.0
C964 C 0.46831 0.71727 0.07002 0.0
C965 C 0.41983 0.63625 0.83512 0.0
C966 C 0.41764 0.62017 0.88925 0.0
C967 C 0.41406 0.65806 0.84953 0.0
C968 C 0.40583 0.66401 0.91793 0.0
C969 C 0.40085 0.6475 0.96834 0.0
C970 C 0.40673 0.62568 0.95412 0.0
C971 C 0.40874 0.6868 0.94403 0.0
C972 C 0.43046 0.69427 0.94872 0.0
C973 C 0.39156 0.69919 0.97624 0.0
C974 C 0.36831 0.69189 0.97212 0.0
C975 C 0.35523 0.69084 0.03506 0.0
C976 C 0.33337 0.68383 0.03113 0.0
C977 C 0.32437 0.67789 0.96451 0.0
C978 C 0.33719 0.67898 0.90163 0.0
C979 C 0.35905 0.68598 0.90525 0.0
H980 H 0.30745 0.67246 0.96159 0.0
H981 H 0.52155 0.72958 0.02982 0.0
H982 H 0.74965 0.50922 0.06714 0.0
H983 H 0.76586 0.49564 0.95412 0.0
H984 H 0.79679 0.44256 0.07049 0.0
H985 H 0.7802 0.45575 0.1832 0.0
H986 H 0.80834 0.49615 0.93491 0.0
H987 H 0.80738 0.39953 0.96718 0.0
H988 H 0.78016 0.37075 0.9953 0.0
H989 H 0.7278 0.41392 0.93168 0.0
H990 H 0.75469 0.44287 0.90197 0.0
H991 H 0.90041 0.42358 0.92893 0.0
H992 H 0.86029 0.42383 0.93264 0.0
H993 H 0.85909 0.4653 0.74373 0.0
H994 H 0.89923 0.4652 0.74007 0.0
H995 H 0.82153 0.4188 0.85903 0.0
H996 H 0.82771 0.50674 0.77693 0.0
H997 H 0.85481 0.53637 0.75636 0.0
H998 H 0.89436 0.51154 0.92987 0.0
H999 H 0.86758 0.48163 0.95056 0.0
C1000 C 0.75939 0.49428 0.06824 0.0
C1001 C 0.76387 0.48364 0.13408 0.0
C1002 C 0.76859 0.48653 1.00359 0.0
C1003 C 0.78232 0.46795 1.0036 0.0
C1004 C 0.78587 0.45666 0.06877 0.0
C1005 C 0.77672 0.46443 0.13343 0.0
C1006 C 0.79636 0.4628 0.94003 0.0
C1007 C 0.81062 0.47936 0.91596 0.0
C1008 C 0.79932 0.44096 0.91497 0.0
C1009 C 0.78312 0.42344 0.93238 0.0
C1010 C 0.79009 0.40286 0.95854 0.0
C1011 C 0.7747 0.38651 0.97494 0.0
C1012 C 0.75227 0.39051 0.96533 0.0
C1013 C 0.74518 0.41086 0.93925 0.0
C1014 C 0.76049 0.42726 0.92274 0.0
C1015 C 0.89154 0.43187 0.88622 0.0
C1016 C 0.90276 0.4448 0.83535 0.0
C1017 C 0.8686 0.43195 0.88809 0.0
C1018 C 0.85672 0.44495 0.83912 0.0
C1019 C 0.86792 0.45526 0.78203 0.0
C1020 C 0.89085 0.45534 0.78043 0.0
C1021 C 0.83417 0.45186 0.85939 0.0
C1022 C 0.81836 0.43572 0.87492 0.0
C1023 C 0.82964 0.47414 0.87686 0.0
C1024 C 0.84581 0.49194 0.86471 0.0
C1025 C 0.84223 0.50762 0.8104 0.0
C1026 C 0.85751 0.52445 0.79881 0.0
C1027 C 0.87627 0.52587 0.84195 0.0
C1028 C 0.87982 0.51043 0.89655 0.0
C1029 C 0.86465 0.49351 0.90809 0.0
H1030 H 0.88809 0.5389 0.83288 0.0
H1031 H 0.74038 0.37783 0.97808 0.0
H1032 H 0.95775 0.24572 0.98259 0.0
H1033 H 0.96541 0.21117 0.92366 0.0
H1034 H 0.03463 0.21922 0.96812 0.0
H1035 H 0.02622 0.25252 0.03844 0.0
H1036 H 0.98053 0.19469 0.82463 0.0
H1037 H 0.06346 0.17425 0.95702 0.0
H1038 H 0.08312 0.17995 0.07213 0.0
H1039 H 0.02147 0.18513 0.1856 0.0
H1040 H 1.0015 0.1795 0.07103 0.0
H1041 H 0.01293 0.09471 0.65401 0.0
H1042 H 0.01048 0.13238 0.70151 0.0
H1043 H 0.01089 0.10709 0.91953 0.0
H1044 H 0.01449 0.06975 0.87231 0.0
H1045 H 0.03285 0.14062 0.92586 0.0
H1046 H 0.96439 0.12639 0.82275 0.0
H1047 H 0.93463 0.11772 0.73765 0.0
H1048 H 0.95027 0.17537 0.61399 0.0
H1049 H 0.98114 0.18353 0.69504 0.0
C1050 C 0.97466 0.24008 0.9811 0.0
C1051 C 0.99118 0.25172 0.0183 0.0
C1052 C 0.97916 0.22019 0.94583 0.0
C1053 C 1.00065 0.21159 0.94227 0.0
C1054 C 0.01768 0.22447 0.97258 0.0
C1055 C 0.01296 0.24404 0.01134 0.0
C1056 C 1.00457 0.18917 0.90791 0.0
C1057 C 0.99197 0.18295 0.84734 0.0
C1058 C 0.01915 0.17321 0.93693 0.0
C1059 C 0.03104 0.17685 0.00553 0.0
C1060 C 0.05414 0.17669 0.00657 0.0
C1061 C 0.06532 0.17993 0.07163 0.0
C1062 C 0.05354 0.18309 0.13603 0.0
C1063 C 0.03056 0.18293 0.13556 0.0
C1064 C 0.0193 0.17979 0.0706 0.0
C1065 C 0.01258 0.09721 0.71211 0.0
C1066 C 0.01404 0.0791 0.7592 0.0
C1067 C 0.01105 0.11884 0.73939 0.0
C1068 C 0.01031 0.12293 0.81459 0.0
C1069 C 0.01166 0.10474 0.86143 0.0
C1070 C 0.01364 0.08322 0.83424 0.0
C1071 C 0.00806 0.14596 0.84482 0.0
C1072 C 0.02127 0.15236 0.90362 0.0
C1073 C 0.99267 0.16147 0.81788 0.0
C1074 C 0.97546 0.15537 0.76453 0.0
C1075 C 0.96197 0.13686 0.77615 0.0
C1076 C 0.94488 0.13201 0.72846 0.0
C1077 C 0.94069 0.14584 0.66991 0.0
C1078 C 0.95376 0.1644 0.65845 0.0
C1079 C 0.97119 0.16906 0.70496 0.0
H1080 H 0.92719 0.14226 0.6338 0.0
H1081 H 0.06222 0.18555 0.18637 0.0
H1082 H 0.28727 0.99382 0.05108 0.0
H1083 H 0.32033 0.98897 0.97625 0.0
H1084 H 0.3034 0.04713 0.85537 0.0
H1085 H 0.27037 0.05207 0.93112 0.0
H1086 H 0.33345 0.98419 0.83738 0.0
H1087 H 0.35032 0.07779 0.83357 0.0
H1088 H 0.34019 0.11101 0.90364 0.0
H1089 H 0.32985 0.07154 0.0932 0.0
H1090 H 0.34032 0.0382 0.02468 0.0
H1091 H 0.43402 1.00252 0.63585 0.0
H1092 H 0.39564 1.00409 0.67857 0.0
H1093 H 0.4176 0.02518 0.88871 0.0
H1094 H 0.4556 0.02445 0.84636 0.0
H1095 H 0.38373 0.04815 0.85484 0.0
H1096 H 0.40254 0.97178 0.83933 0.0
H1097 H 0.41375 0.93702 0.7805 0.0
H1098 H 0.35507 0.93762 0.65282 0.0
H1099 H 0.34388 0.97282 0.70853 0.0
C1100 C 0.29015 1.00504 0.00662 0.0
C1101 C 0.27606 0.02314 0.99624 0.0
C1102 C 0.30914 1.00233 0.96399 0.0
C1103 C 0.31466 0.01784 0.9106 0.0
C1104 C 0.2997 0.03503 0.89659 0.0
C1105 C 0.28065 0.03772 0.93927 0.0
C1106 C 0.33706 0.01738 0.87602 0.0
C1107 C 0.3444 0.99823 0.84033 0.0
C1108 C 0.35166 0.03546 0.8816 0.0
C1109 C 0.34582 0.05549 0.92369 0.0
C1110 C 0.34597 0.07624 0.89027 0.0
C1111 C 0.34018 0.09508 0.92973 0.0
C1112 C 0.33431 0.09338 1.00275 0.0
C1113 C 0.33434 0.07284 0.0366 0.0
C1114 C 0.3402 0.05397 0.99747 0.0
C1115 C 0.43068 0.0075 0.69118 0.0
C1116 C 0.44805 0.01336 0.73757 0.0
C1117 C 0.4087 0.00824 0.71563 0.0
C1118 C 0.40356 0.01446 0.78721 0.0
C1119 C 0.42092 0.02039 0.83319 0.0
C1120 C 0.44278 0.0199 0.80878 0.0
C1121 C 0.38029 0.01494 0.8151 0.0
C1122 C 0.37276 0.03415 0.85018 0.0
C1123 C 0.3658 0.99663 0.81034 0.0
C1124 C 0.3726 0.97532 0.77705 0.0
C1125 C 0.39218 0.96474 0.79786 0.0
C1126 C 0.39852 0.9449 0.76516 0.0
C1127 C 0.38519 0.93517 0.71282 0.0
C1128 C 0.36542 0.94519 0.69331 0.0
C1129 C 0.35912 0.96514 0.72522 0.0
H1130 H 0.39015 0.91983 0.68755 0.0
H1131 H 0.32978 0.10798 0.03313 0.0
H1132 H 0.46285 0.28496 0.03255 0.0
H1133 H 0.46597 0.31907 0.9629 0.0
H1134 H 0.53455 0.30521 0.92251 0.0
H1135 H 0.53134 0.27104 0.99256 0.0
H1136 H 0.52959 0.34513 0.97917 0.0
H1137 H 0.49566 0.3058 0.78497 0.0
H1138 H 0.46774 0.28304 0.72462 0.0
H1139 H 0.41847 0.33189 0.77099 0.0
H1140 H 0.44609 0.35488 0.83239 0.0
H1141 H 0.51577 0.439 0.69389 0.0
H1142 H 0.51367 0.4 0.72767 0.0
H1143 H 0.50111 0.41856 0.94931 0.0
H1144 H 0.50299 0.45748 0.91603 0.0
H1145 H 0.48134 0.37461 0.78698 0.0
H1146 H 0.52546 0.38048 0.06127 0.0
H1147 H 0.55264 0.404 0.12262 0.0
H1148 H 0.58097 0.42145 0.91727 0.0
H1149 H 0.55423 0.39772 0.85476 0.0
C1150 C 0.47831 0.2887 0.00587 0.0
C1151 C 0.49669 0.275 0.01624 0.0
C1152 C 0.48015 0.30832 0.96639 0.0
C1153 C 0.50049 0.31483 0.9368 0.0
C1154 C 0.51864 0.30059 0.94427 0.0
C1155 C 0.51674 0.28087 0.98343 0.0
C1156 C 0.50332 0.33746 0.90573 0.0
C1157 C 0.51904 0.35146 0.93696 0.0
C1158 C 0.48968 0.34594 0.85032 0.0
C1159 C 0.473 0.33205 0.81367 0.0
C1160 C 0.47888 0.31167 0.78273 0.0
C1161 C 0.46309 0.29872 0.74823 0.0
C1162 C 0.44133 0.306 0.74404 0.0
C1163 C 0.43533 0.32627 0.77426 0.0
C1164 C 0.45107 0.33928 0.80882 0.0
C1165 C 0.51266 0.43481 0.7499 0.0
C1166 C 0.5097 0.45149 0.80224 0.0
C1167 C 0.51139 0.41246 0.76908 0.0
C1168 C 0.50758 0.40619 0.84125 0.0
C1169 C 0.5044 0.42284 0.89343 0.0
C1170 C 0.50541 0.44516 0.8742 0.0
C1171 C 0.5071 0.38234 0.8622 0.0
C1172 C 0.49189 0.36816 0.82905 0.0
C1173 C 0.52103 0.37369 0.91643 0.0
C1174 C 0.53767 0.38751 0.95332 0.0
C1175 C 0.53758 0.38923 0.02922 0.0
C1176 C 0.5529 0.40261 0.06421 0.0
C1177 C 0.56846 0.4143 0.02388 0.0
C1178 C 0.56886 0.41247 0.94847 0.0
C1179 C 0.55361 0.39906 0.91321 0.0
H1180 H 0.58019 0.42474 0.05119 0.0
H1181 H 0.42912 0.29595 0.71731 0.0
H1182 H 0.26809 0.47978 0.93302 0.0
H1183 H 0.23352 0.48573 0.86827 0.0
H1184 H 0.21072 0.52803 0.04113 0.0
H1185 H 0.24552 0.52242 0.10473 0.0
H1186 H 0.19505 0.47219 0.91422 0.0
H1187 H 0.16968 0.56178 0.98169 0.0
H1188 H 0.18697 0.59809 0.99928 0.0
H1189 H 0.24107 0.57865 0.86278 0.0
H1190 H 0.22398 0.54232 0.84371 0.0
H1191 H 0.07908 0.4879 0.88894 0.0
H1192 H 0.11728 0.48836 0.9298 0.0
H1193 H 0.13633 0.52374 0.73764 0.0
H1194 H 0.09809 0.52323 0.69597 0.0
H1195 H 0.15489 0.54153 0.86356 0.0
H1196 H 0.14787 0.47108 0.74832 0.0
H1197 H 0.13118 0.43477 0.72559 0.0
H1198 H 0.14375 0.41582 0.94514 0.0
H1199 H 0.16028 0.45211 0.96949 0.0
C1200 C 0.25618 0.49131 0.95509 0.0
C1201 C 0.25983 0.50123 0.02274 0.0
C1202 C 0.23621 0.49439 0.91878 0.0
C1203 C 0.21934 0.50734 0.94951 0.0
C1204 C 0.22349 0.51829 0.01526 0.0
C1205 C 0.24353 0.5153 0.05135 0.0
C1206 C 0.19686 0.50761 0.91655 0.0
C1207 C 0.18638 0.4874 0.90291 0.0
C1208 C 0.18533 0.52737 0.90144 0.0
C1209 C 0.19563 0.54925 0.91185 0.0
C1210 C 0.18522 0.56527 0.95524 0.0
C1211 C 0.195 0.58586 0.9655 0.0
C1212 C 0.21514 0.59065 0.93234 0.0
C1213 C 0.22551 0.57489 0.88866 0.0
C1214 C 0.2158 0.55429 0.8782 0.0
C1215 C 0.09136 0.49571 0.85503 0.0
C1216 C 0.08542 0.50544 0.78886 0.0
C1217 C 0.11326 0.49595 0.87857 0.0
C1218 C 0.12979 0.50603 0.83683 0.0
C1219 C 0.12391 0.51588 0.77094 0.0
C1220 C 0.10203 0.51545 0.74694 0.0
C1221 C 0.15315 0.50613 0.86189 0.0
C1222 C 0.16368 0.52636 0.87452 0.0
C1223 C 0.16483 0.48639 0.87556 0.0
C1224 C 0.15504 0.46446 0.86099 0.0
C1225 C 0.14689 0.45925 0.79197 0.0
C1226 C 0.1375 0.43865 0.77874 0.0
C1227 C 0.13633 0.42303 0.83396 0.0
C1228 C 0.14462 0.42796 0.90246 0.0
C1229 C 0.15401 0.44855 0.916 0.0
H1230 H 0.12905 0.40708 0.82361 0.0
H1231 H 0.22269 0.60659 0.94038 0.0
H1232 H 0.95528 0.77271 0.4443 0.0
H1233 H 0.96233 0.80795 0.50421 0.0
H1234 H 0.03198 0.79521 0.49472 0.0
H1235 H 0.02498 0.75999 0.43239 0.0
H1236 H 1.0021 0.82094 0.63874 0.0
H1237 H 0.02726 0.82068 0.37852 0.0
H1238 H 0.01864 0.81086 0.25217 0.0
H1239 H 0.9592 0.84897 0.26452 0.0
H1240 H 0.96705 0.8583 0.39183 0.0
H1241 H 0.03599 0.93157 0.7001 0.0
H1242 H 0.0339 0.89277 0.66468 0.0
H1243 H 0.98203 0.90828 0.51477 0.0
H1244 H 0.98506 0.94719 0.54696 0.0
H1245 H 1.00426 0.87971 0.45288 0.0
H1246 H 0.97348 0.88158 0.68751 0.0
H1247 H 0.97255 0.89277 0.81582 0.0
H1248 H 0.02972 0.85329 0.85706 0.0
H1249 H 0.03125 0.84216 0.7285 0.0
C1250 C 0.97208 0.77695 0.45767 0.0
C1251 C 0.98955 0.76337 0.43397 0.0
C1252 C 0.97609 0.79722 0.49154 0.0
C1253 C 0.99768 0.8044 0.50355 0.0
C1254 C 0.01516 0.79002 0.48621 0.0
C1255 C 0.01114 0.76974 0.45127 0.0
C1256 C 1.00173 0.82789 0.52472 0.0
C1257 C 1.00313 0.83375 0.59815 0.0
C1258 C 1.00168 0.84485 0.4723 0.0
C1259 C 0.99761 0.83996 0.3949 0.0
C1260 C 0.01224 0.82675 0.35454 0.0
C1261 C 0.00747 0.82126 0.28279 0.0
C1262 C 0.98836 0.82927 0.25047 0.0
C1263 C 0.97398 0.84277 0.28973 0.0
C1264 C 0.97854 0.8481 0.3617 0.0
C1265 C 0.0241 0.92671 0.6597 0.0
C1266 C 0.01064 0.94263 0.62674 0.0
C1267 C 0.02281 0.90438 0.63955 0.0
C1268 C 0.00751 0.89713 0.58753 0.0
C1269 C 0.99408 0.91311 0.55471 0.0
C1270 C 0.99573 0.93548 0.57359 0.0
C1271 C 1.00539 0.87306 0.56745 0.0
C1272 C 1.00389 0.86702 0.494 0.0
C1273 C 1.00434 0.85605 0.62012 0.0
C1274 C 1.00266 0.86129 0.6983 0.0
C1275 C 0.98586 0.87528 0.72398 0.0
C1276 C 0.98525 0.88166 0.7966 0.0
C1277 C 1.0012 0.87395 0.84423 0.0
C1278 C 0.01749 0.8594 0.81985 0.0
C1279 C 0.01823 0.85302 0.74709 0.0
H1280 H 1.00089 0.87935 0.89988 0.0
H1281 H 0.98467 0.82511 0.195 0.0
H1282 H 0.76349 0.02583 0.37631 0.0
H1283 H 0.7297 0.03207 0.44754 0.0
H1284 H 0.71897 0.96195 0.45698 0.0
H1285 H 0.75271 0.95582 0.38766 0.0
H1286 H 0.69009 0.02431 0.40765 0.0
H1287 H 0.68853 0.94583 0.58151 0.0
H1288 H 0.71276 0.92413 0.66098 0.0
H1289 H 0.75129 0.98178 0.70496 0.0
H1290 H 0.72736 1.00375 0.62532 0.0
H1291 H 0.57909 0.99824 0.48596 0.0
H1292 H 0.61792 0.99777 0.45091 0.0
H1293 H 0.63624 0.01189 0.67121 0.0
H1294 H 0.59736 0.01225 0.70681 0.0
H1295 H 0.66323 0.98232 0.62008 0.0
H1296 H 0.63922 0.05186 0.53553 0.0
H1297 H 0.61769 0.07993 0.4707 0.0
H1298 H 0.63287 0.04845 0.2681 0.0
H1299 H 0.6543 0.02003 0.33174 0.0
C1300 C 0.75436 0.01177 0.39623 0.0
C1301 C 0.76093 0.99032 0.37699 0.0
C1302 C 0.73487 0.01532 0.4363 0.0
C1303 C 0.72159 0.9975 0.45845 0.0
C1304 C 0.72891 0.97605 0.44244 0.0
C1305 C 0.74827 0.97253 0.40246 0.0
C1306 C 0.69902 1.00115 0.49033 0.0
C1307 C 0.68431 0.01515 0.45429 0.0
C1308 C 0.69128 0.98968 0.55217 0.0
C1309 C 0.70625 0.97636 0.59732 0.0
C1310 C 0.70226 0.95381 0.60784 0.0
C1311 C 0.71596 0.94147 0.65275 0.0
C1312 C 0.73358 0.95156 0.6879 0.0
C1313 C 0.73767 0.97397 0.67758 0.0
C1314 C 0.72412 0.98634 0.63226 0.0
C1315 C 0.59133 1.00124 0.52718 0.0
C1316 C 0.58492 1.0053 0.59937 0.0
C1317 C 0.61364 1.00112 0.50683 0.0
C1318 C 0.63024 1.00511 0.55797 0.0
C1319 C 0.6239 0.00884 0.63039 0.0
C1320 C 0.60156 0.00907 0.65076 0.0
C1321 C 0.65412 1.00497 0.53591 0.0
C1322 C 0.66902 0.99154 0.5736 0.0
C1323 C 0.66218 0.01744 0.47662 0.0
C1324 C 0.64825 0.03373 0.4385 0.0
C1325 C 0.63774 0.05075 0.47725 0.0
C1326 C 0.62565 0.06679 0.44067 0.0
C1327 C 0.62403 0.06603 0.36532 0.0
C1328 C 0.63424 0.04907 0.32644 0.0
C1329 C 0.64636 0.03299 0.36272 0.0
H1330 H 0.61487 0.07859 0.33702 0.0
H1331 H 0.74402 0.94203 0.72325 0.0
H1332 H 0.5293 0.74835 0.32684 0.0
H1333 H 0.53592 0.71548 0.40103 0.0
H1334 H 0.47233 0.72381 0.50237 0.0
H1335 H 0.46596 0.7567 0.42953 0.0
H1336 H 0.49955 0.70775 0.5985 0.0
H1337 H 0.47936 0.68928 0.35732 0.0
H1338 H 0.48188 0.69007 0.22417 0.0
H1339 H 0.5466 0.66181 0.23287 0.0
H1340 H 0.54456 0.66111 0.36633 0.0
H1341 H 0.48178 0.59572 0.70724 0.0
H1342 H 0.47934 0.63257 0.65459 0.0
H1343 H 0.54176 0.62242 0.54701 0.0
H1344 H 0.54374 0.58532 0.59702 0.0
H1345 H 0.51551 0.64013 0.45645 0.0
H1346 H 0.532 0.65775 0.70888 0.0
H1347 H 0.52486 0.65699 0.84052 0.0
H1348 H 0.46125 0.68599 0.80767 0.0
H1349 H 0.46794 0.68676 0.67615 0.0
C1350 C 0.51714 0.7436 0.36691 0.0
C1351 C 0.49717 0.75516 0.37261 0.0
C1352 C 0.52076 0.72462 0.40865 0.0
C1353 C 0.50442 0.71677 0.45652 0.0
C1354 C 0.4852 0.72933 0.46597 0.0
C1355 C 0.48159 0.74822 0.42438 0.0
C1356 C 0.50639 0.69471 0.49226 0.0
C1357 C 0.50301 0.69296 0.56736 0.0
C1358 C 0.51067 0.67524 0.45204 0.0
C1359 C 0.51191 0.67538 0.37182 0.0
C1360 C 0.49419 0.68337 0.33086 0.0
C1361 C 0.49552 0.68379 0.25534 0.0
C1362 C 0.51443 0.67608 0.22007 0.0
C1363 C 0.53199 0.66783 0.26028 0.0
C1364 C 0.53075 0.6674 0.33587 0.0
C1365 C 0.4951 0.60144 0.67305 0.0
C1366 C 0.51302 0.58753 0.65678 0.0
C1367 C 0.49375 0.62264 0.64303 0.0
C1368 C 0.51056 0.6307 0.5974 0.0
C1369 C 0.52853 0.61681 0.58187 0.0
C1370 C 0.52969 0.59553 0.61077 0.0
C1371 C 0.50921 0.65311 0.56333 0.0
C1372 C 0.51246 0.65491 0.48806 0.0
C1373 C 0.50427 0.67253 0.60331 0.0
C1374 C 0.50043 0.67219 0.68264 0.0
C1375 C 0.51646 0.66387 0.7298 0.0
C1376 C 0.5125 0.66346 0.80444 0.0
C1377 C 0.4926 0.67141 0.83254 0.0
C1378 C 0.47665 0.67983 0.78605 0.0
C1379 C 0.48054 0.68031 0.71147 0.0
H1380 H 0.48955 0.67109 0.89031 0.0
H1381 H 0.51544 0.67644 0.16158 0.0
H1382 H 0.78807 0.47271 0.38504 0.0
H1383 H 0.82025 0.47646 0.46207 0.0
H1384 H 0.80763 0.54611 0.48301 0.0
H1385 H 0.77547 0.54238 0.40381 0.0
H1386 H 0.84806 0.54149 0.45065 0.0
H1387 H 0.80542 0.50985 0.63587 0.0
H1388 H 0.78075 0.48478 0.7025 0.0
H1389 H 0.82501 0.43094 0.66193 0.0
H1390 H 0.84987 0.45564 0.59443 0.0
H1391 H 0.93567 0.51179 0.75278 0.0
H1392 H 0.89751 0.51247 0.71144 0.0
H1393 H 0.92018 0.51726 0.49046 0.0
H1394 H 0.95823 0.51721 0.53188 0.0
H1395 H 0.87202 0.48949 0.64088 0.0
H1396 H 0.88554 0.54225 0.38091 0.0
H1397 H 0.90917 0.57276 0.33964 0.0
H1398 H 0.91922 0.59289 0.5599 0.0
H1399 H 0.89541 0.56269 0.60245 0.0
C1400 C 0.79183 0.48877 0.40739 0.0
C1401 C 0.77917 0.50726 0.38798 0.0
C1402 C 0.81027 0.4909 0.452 0.0
C1403 C 0.8166 0.51158 0.47911 0.0
C1404 C 0.80326 0.52994 0.46295 0.0
C1405 C 0.78469 0.52779 0.4182 0.0
C1406 C 0.83824 0.51416 0.51735 0.0
C1407 C 0.85317 0.53015 0.49254 0.0
C1408 C 0.84503 0.49991 0.57372 0.0
C1409 C 0.82945 0.48459 0.60968 0.0
C1410 C 0.80973 0.49259 0.64014 0.0
C1411 C 0.79576 0.47846 0.67839 0.0
C1412 C 0.80129 0.45627 0.68635 0.0
C1413 C 0.82072 0.44812 0.65556 0.0
C1414 C 0.83476 0.46218 0.61731 0.0
C1415 C 0.9325 0.51299 0.69542 0.0
C1416 C 0.95008 0.51455 0.64583 0.0
C1417 C 0.91058 0.51347 0.67169 0.0
C1418 C 0.9056 0.51551 0.59767 0.0
C1419 C 0.92326 0.51649 0.54803 0.0
C1420 C 0.94514 0.51633 0.57181 0.0
C1421 C 0.88209 0.51627 0.57219 0.0
C1422 C 0.86685 0.5009 0.59931 0.0
C1423 C 0.87471 0.5317 0.52006 0.0
C1424 C 0.88883 0.55008 0.49485 0.0
C1425 C 0.8927 0.55325 0.42051 0.0
C1426 C 0.90615 0.57048 0.3969 0.0
C1427 C 0.91574 0.58472 0.44713 0.0
C1428 C 0.91184 0.58181 0.52107 0.0
C1429 C 0.89839 0.56462 0.54496 0.0
H1430 H 0.92616 0.59803 0.42874 0.0
H1431 H 0.79056 0.44541 0.71653 0.0
loop_
_geom_bond_atom_site_label_1
_geom_bond_atom_site_label_2
_geom_bond_distance
_geom_bond_site_symmetry_2
_ccdc_geom_bond_type
H0 C3 0.931 . S
H1 C6 0.928 . S
H2 C8 0.930 . S
C3 H0 0.931 . S
C3 C4 1.413 . S
C3 C5 1.360 . S
C4 C3 1.413 . S
C4 C8 1.429 . S
C5 C3 1.360 . S
C5 C6 1.372 . S
C6 H1 0.928 . S
C6 C5 1.372 . S
C6 C7 1.404 . S
C7 C6 1.404 . S
C7 C8 1.391 . S
C8 H2 0.930 . S
C8 C4 1.429 . S
C8 C7 1.391 . S
H9 C12 0.931 . S
H10 C15 0.928 . S
H11 C17 0.930 . S
C12 H9 0.931 . S
C12 C13 1.413 . S
C12 C14 1.360 . S
C13 C12 1.413 . S
C13 C17 1.429 1_655 S
C14 C12 1.360 . S
C14 C15 1.372 . S
C15 H10 0.928 . S
C15 C14 1.372 . S
C15 C16 1.404 . S
C16 C15 1.404 . S
C16 C17 1.390 1_655 S
C17 H11 0.930 . S
C17 C13 1.429 1_455 S
C17 C16 1.390 1_455 S
H18 C21 0.931 . S
H19 C24 0.928 . S
H20 C26 0.930 . S
C21 H18 0.931 . S
C21 C22 1.413 . S
C21 C23 1.360 . S
C22 C21 1.413 . S
C22 C26 1.429 1_565 S
C23 C21 1.360 . S
C23 C24 1.372 . S
C24 H19 0.928 . S
C24 C23 1.372 . S
C24 C25 1.404 . S
C25 C24 1.404 . S
C25 C26 1.390 1_565 S
C26 H20 0.930 . S
C26 C22 1.429 1_545 S
C26 C25 1.390 1_545 S
H27 C30 0.931 . S
H28 C33 0.928 . S
H29 C35 0.930 . S
C30 H27 0.931 . S
C30 C31 1.413 . S
C30 C32 1.360 . S
C31 C30 1.413 . S
C31 C35 1.429 . S
C32 C30 1.360 . S
C32 C33 1.372 . S
C33 H28 0.928 . S
C33 C32 1.372 . S
C33 C34 1.404 . S
C34 C33 1.404 . S
C34 C35 1.391 . S
C35 H29 0.930 . S
C35 C31 1.429 . S
C35 C34 1.391 . S
H36 C39 0.931 . S
H37 C42 0.928 . S
H38 C44 0.930 . S
C39 H36 0.931 . S
C39 C40 1.413 1_554 S
C39 C41 1.360 . S
C40 C39 1.413 1_556 S
C40 C44 1.429 . S
C41 C39 1.360 . S
C41 C42 1.372 . S
C42 H37 0.928 . S
C42 C41 1.372 . S
C42 C43 1.404 . S
C43 C42 1.404 . S
C43 C44 1.391 1_554 S
C44 H38 0.930 . S
C44 C40 1.429 . S
C44 C43 1.391 1_556 S
H45 C48 0.931 . S
H46 C51 0.928 . S
H47 C53 0.930 . S
C48 H45 0.931 . S
C48 C49 1.413 1_554 S
C48 C50 1.360 . S
C49 C48 1.413 1_556 S
C49 C53 1.429 1_655 S
C50 C48 1.360 . S
C50 C51 1.372 . S
C51 H46 0.928 . S
C51 C50 1.372 . S
C51 C52 1.404 . S
C52 C51 1.404 . S
C52 C53 1.391 1_654 S
C53 H47 0.930 . S
C53 C49 1.429 1_455 S
C53 C52 1.391 1_456 S
H54 C57 0.931 . S
H55 C60 0.928 . S
H56 C62 0.930 . S
C57 H54 0.931 . S
C57 C58 1.413 1_554 S
C57 C59 1.360 . S
C58 C57 1.413 1_556 S
C58 C62 1.429 1_565 S
C59 C57 1.360 . S
C59 C60 1.372 . S
C60 H55 0.928 . S
C60 C59 1.372 . S
C60 C61 1.404 . S
C61 C60 1.404 . S
C61 C62 1.391 1_564 S
C62 H56 0.930 . S
C62 C58 1.429 1_545 S
C62 C61 1.391 1_546 S
H63 C66 0.931 . S
H64 C69 0.928 . S
H65 C71 0.930 . S
C66 H63 0.931 . S
C66 C67 1.413 . S
C66 C68 1.360 1_554 S
C67 C66 1.413 . S
C67 C71 1.429 . S
C68 C66 1.360 1_556 S
C68 C69 1.372 . S
C69 H64 0.928 . S
C69 C68 1.372 . S
C69 C70 1.404 1_556 S
C70 C69 1.404 1_554 S
C70 C71 1.391 . S
C71 H65 0.930 . S
C71 C67 1.429 . S
C71 C70 1.391 . S
Ho72 C75 2.811 . S
Ho72 O92 2.322 . S
Ho72 O94 2.378 . S
Ho72 O95 2.524 . S
Ho72 O96 2.381 . S
Ho72 O97 2.669 1_565 S
Ho72 O99 2.346 1_565 S
Ho72 O103 2.305 1_455 S
Ho73 C84 2.811 . S
Ho73 O93 2.346 1_545 S
Ho73 O97 2.305 1_655 S
Ho73 O98 2.322 . S
Ho73 O100 2.378 . S
Ho73 O101 2.524 . S
Ho73 O102 2.381 . S
Ho73 O103 2.669 1_545 S
C74 O92 1.259 1_655 S
C74 O93 1.268 . S
C75 Ho72 2.811 . S
C75 C76 1.488 . S
C75 O94 1.215 . S
C75 O95 1.289 . S
C76 C75 1.488 . S
C76 C77 1.348 . S
C76 C81 1.413 . S
C77 C76 1.348 . S
C77 C78 1.442 . S
C77 H104 0.930 1_455 S
C78 C77 1.442 . S
C78 C79 1.381 . S
C78 H105 0.931 1_455 S
C79 C78 1.381 . S
C79 C80 1.321 . S
C80 C79 1.321 . S
C80 C81 1.403 . S
C80 H106 0.934 . S
C81 C76 1.413 . S
C81 C80 1.403 . S
C81 H107 0.930 . S
C82 O96 1.296 . S
C82 O97 1.245 1_565 S
C83 O98 1.259 1_455 S
C83 O99 1.268 . S
C84 Ho73 2.811 . S
C84 C85 1.488 . S
C84 O100 1.215 . S
C84 O101 1.289 . S
C85 C84 1.488 . S
C85 C86 1.348 . S
C85 C90 1.413 . S
C86 C85 1.348 . S
C86 C87 1.442 . S
C86 H108 0.930 1_655 S
C87 C86 1.442 . S
C87 C88 1.381 . S
C87 H109 0.931 1_655 S
C88 C87 1.381 . S
C88 C89 1.321 . S
C89 C88 1.321 . S
C89 C90 1.403 . S
C89 H110 0.934 . S
C90 C85 1.413 . S
C90 C89 1.403 . S
C90 H111 0.930 . S
C91 O102 1.302 . S
C91 O103 1.241 1_545 S
O92 Ho72 2.322 . S
O92 C74 1.259 1_455 S
O93 Ho73 2.346 1_565 S
O93 C74 1.268 . S
O94 Ho72 2.378 . S
O94 C75 1.215 . S
O95 Ho72 2.524 . S
O95 C75 1.289 . S
O96 Ho72 2.381 . S
O96 C82 1.296 . S
O97 Ho72 2.669 1_545 S
O97 Ho73 2.305 1_455 S
O97 C82 1.245 1_545 S
O98 Ho73 2.322 . S
O98 C83 1.259 1_655 S
O99 Ho72 2.346 1_545 S
O99 C83 1.268 . S
O100 Ho73 2.378 . S
O100 C84 1.215 . S
O101 Ho73 2.524 . S
O101 C84 1.289 . S
O102 Ho73 2.381 . S
O102 C91 1.302 . S
O103 Ho72 2.305 1_655 S
O103 Ho73 2.669 1_565 S
O103 C91 1.241 1_565 S
H104 C77 0.930 1_655 S
H105 C78 0.931 1_655 S
H106 C80 0.934 . S
H107 C81 0.930 . S
H108 C86 0.930 1_455 S
H109 C87 0.931 1_455 S
H110 C89 0.934 . S
H111 C90 0.930 . S
Ho112 C115 2.811 . S
Ho112 O132 2.322 . S
Ho112 O134 2.378 . S
Ho112 O135 2.524 . S
Ho112 O136 2.381 . S
Ho112 O137 2.669 . S
Ho112 O139 2.346 . S
Ho112 O143 2.305 1_545 S
Ho113 C124 2.811 . S
Ho113 O133 2.346 . S
Ho113 O137 2.305 1_565 S
Ho113 O138 2.322 . S
Ho113 O140 2.378 . S
Ho113 O141 2.524 . S
Ho113 O142 2.381 . S
Ho113 O143 2.669 . S
C114 O132 1.259 1_565 S
C114 O133 1.268 . S
C115 Ho112 2.811 . S
C115 C116 1.488 . S
C115 O134 1.215 . S
C115 O135 1.289 . S
C116 C115 1.488 . S
C116 C117 1.348 . S
C116 C121 1.413 . S
C117 C116 1.348 . S
C117 C118 1.442 . S
C117 H144 0.930 1_545 S
C118 C117 1.442 . S
C118 C119 1.381 . S
C118 H145 0.931 1_545 S
C119 C118 1.381 . S
C119 C120 1.321 . S
C120 C119 1.321 . S
C120 C121 1.403 . S
C120 H146 0.934 . S
C121 C116 1.413 . S
C121 C120 1.403 . S
C121 H147 0.930 . S
C122 O136 1.275 . S
C122 O137 1.256 . S
C123 O138 1.259 1_545 S
C123 O139 1.268 . S
C124 Ho113 2.811 . S
C124 C125 1.488 . S
C124 O140 1.215 . S
C124 O141 1.289 . S
C125 C124 1.488 . S
C125 C126 1.348 . S
C125 C130 1.413 . S
C126 C125 1.348 . S
C126 C127 1.442 . S
C126 H148 0.930 1_565 S
C127 C126 1.442 . S
C127 C128 1.381 . S
C127 H149 0.931 1_565 S
C128 C127 1.381 . S
C128 C129 1.321 . S
C129 C128 1.321 . S
C129 C130 1.403 . S
C129 H150 0.934 . S
C130 C125 1.413 . S
C130 C129 1.403 . S
C130 H151 0.930 . S
C131 O142 1.275 . S
C131 O143 1.256 . S
O132 Ho112 2.322 . S
O132 C114 1.259 1_545 S
O133 Ho113 2.346 . S
O133 C114 1.268 . S
O134 Ho112 2.378 . S
O134 C115 1.215 . S
O135 Ho112 2.524 . S
O135 C115 1.289 . S
O136 Ho112 2.381 . S
O136 C122 1.275 . S
O137 Ho112 2.669 . S
O137 Ho113 2.305 1_545 S
O137 C122 1.256 . S
O138 Ho113 2.322 . S
O138 C123 1.259 1_565 S
O139 Ho112 2.346 . S
O139 C123 1.268 . S
O140 Ho113 2.378 . S
O140 C124 1.215 . S
O141 Ho113 2.524 . S
O141 C124 1.289 . S
O142 Ho113 2.381 . S
O142 C131 1.275 . S
O143 Ho112 2.305 1_565 S
O143 Ho113 2.669 . S
O143 C131 1.256 . S
H144 C117 0.930 1_565 S
H145 C118 0.931 1_565 S
H146 C120 0.934 . S
H147 C121 0.930 . S
H148 C126 0.930 1_545 S
H149 C127 0.931 1_545 S
H150 C129 0.934 . S
H151 C130 0.930 . S
Ho152 C155 2.811 . S
Ho152 O172 2.322 . S
Ho152 O174 2.378 . S
Ho152 O175 2.524 . S
Ho152 O176 2.381 . S
Ho152 O177 2.669 . S
Ho152 O179 2.346 . S
Ho152 O183 2.305 . S
Ho153 C164 2.811 . S
Ho153 O173 2.346 . S
Ho153 O177 2.305 . S
Ho153 O178 2.322 . S
Ho153 O180 2.378 . S
Ho153 O181 2.524 . S
Ho153 O182 2.381 . S
Ho153 O183 2.669 . S
C154 O172 1.259 . S
C154 O173 1.268 . S
C155 Ho152 2.811 . S
C155 C156 1.488 . S
C155 O174 1.215 . S
C155 O175 1.289 . S
C156 C155 1.488 . S
C156 C157 1.348 . S
C156 C161 1.413 . S
C157 C156 1.348 . S
C157 C158 1.442 . S
C157 H184 0.930 . S
C158 C157 1.442 . S
C158 C159 1.381 . S
C158 H185 0.931 . S
C159 C158 1.381 . S
C159 C160 1.321 . S
C160 C159 1.321 . S
C160 C161 1.403 . S
C160 H186 0.934 . S
C161 C156 1.413 . S
C161 C160 1.403 . S
C161 H187 0.930 . S
C162 O176 1.275 . S
C162 O177 1.256 . S
C163 O178 1.259 . S
C163 O179 1.268 . S
C164 Ho153 2.811 . S
C164 C165 1.488 . S
C164 O180 1.215 . S
C164 O181 1.289 . S
C165 C164 1.488 . S
C165 C166 1.348 . S
C165 C170 1.413 . S
C166 C165 1.348 . S
C166 C167 1.442 . S
C166 H188 0.930 . S
C167 C166 1.442 . S
C167 C168 1.381 . S
C167 H189 0.931 . S
C168 C167 1.381 . S
C168 C169 1.321 . S
C169 C168 1.321 . S
C169 C170 1.403 . S
C169 H190 0.934 . S
C170 C165 1.413 . S
C170 C169 1.403 . S
C170 H191 0.930 . S
C171 O182 1.275 . S
C171 O183 1.256 . S
O172 Ho152 2.322 . S
O172 C154 1.259 . S
O173 Ho153 2.346 . S
O173 C154 1.268 . S
O174 Ho152 2.378 . S
O174 C155 1.215 . S
O175 Ho152 2.524 . S
O175 C155 1.289 . S
O176 Ho152 2.381 . S
O176 C162 1.275 . S
O177 Ho152 2.669 . S
O177 Ho153 2.305 . S
O177 C162 1.256 . S
O178 Ho153 2.322 . S
O178 C163 1.259 . S
O179 Ho152 2.346 . S
O179 C163 1.268 . S
O180 Ho153 2.378 . S
O180 C164 1.215 . S
O181 Ho153 2.524 . S
O181 C164 1.289 . S
O182 Ho153 2.381 . S
O182 C171 1.275 . S
O183 Ho152 2.305 . S
O183 Ho153 2.669 . S
O183 C171 1.256 . S
H184 C157 0.930 . S
H185 C158 0.931 . S
H186 C160 0.934 . S
H187 C161 0.930 . S
H188 C166 0.930 . S
H189 C167 0.931 . S
H190 C169 0.934 . S
H191 C170 0.930 . S
Ho192 C195 2.811 . S
Ho192 O212 2.322 . S
Ho192 O214 2.378 . S
Ho192 O215 2.524 . S
Ho192 O216 2.381 . S
Ho192 O217 2.669 1_655 S
Ho192 O219 2.346 1_655 S
Ho192 O223 2.305 . S
Ho193 C204 2.811 . S
Ho193 O213 2.346 1_455 S
Ho193 O217 2.305 . S
Ho193 O218 2.322 . S
Ho193 O220 2.378 . S
Ho193 O221 2.524 . S
Ho193 O222 2.381 . S
Ho193 O223 2.669 1_455 S
C194 O212 1.259 . S
C194 O213 1.268 . S
C195 Ho192 2.811 . S
C195 C196 1.488 . S
C195 O214 1.215 . S
C195 O215 1.289 . S
C196 C195 1.488 . S
C196 C197 1.348 . S
C196 C201 1.413 . S
C197 C196 1.348 . S
C197 C198 1.442 . S
C197 H224 0.930 . S
C198 C197 1.442 . S
C198 C199 1.381 . S
C198 H225 0.931 . S
C199 C198 1.381 . S
C199 C200 1.321 . S
C200 C199 1.321 . S
C200 C201 1.403 . S
C200 H226 0.934 . S
C201 C196 1.413 . S
C201 C200 1.403 . S
C201 H227 0.930 . S
C202 O216 1.293 . S
C202 O217 1.246 1_655 S
C203 O218 1.259 . S
C203 O219 1.268 . S
C204 Ho193 2.811 . S
C204 C205 1.488 . S
C204 O220 1.215 . S
C204 O221 1.289 . S
C205 C204 1.488 . S
C205 C206 1.348 . S
C205 C210 1.413 . S
C206 C205 1.348 . S
C206 C207 1.442 . S
C206 H228 0.930 . S
C207 C206 1.442 . S
C207 C208 1.381 . S
C207 H229 0.931 . S
C208 C207 1.381 . S
C208 C209 1.321 . S
C209 C208 1.321 . S
C209 C210 1.403 . S
C209 H230 0.934 . S
C210 C205 1.413 . S
C210 C209 1.403 . S
C210 H231 0.930 . S
C211 O222 1.299 . S
C211 O223 1.243 1_455 S
O212 Ho192 2.322 . S
O212 C194 1.259 . S
O213 Ho193 2.346 1_655 S
O213 C194 1.268 . S
O214 Ho192 2.378 . S
O214 C195 1.215 . S
O215 Ho192 2.524 . S
O215 C195 1.289 . S
O216 Ho192 2.381 . S
O216 C202 1.293 . S
O217 Ho192 2.669 1_455 S
O217 Ho193 2.305 . S
O217 C202 1.246 1_455 S
O218 Ho193 2.322 . S
O218 C203 1.259 . S
O219 Ho192 2.346 1_455 S
O219 C203 1.268 . S
O220 Ho193 2.378 . S
O220 C204 1.215 . S
O221 Ho193 2.524 . S
O221 C204 1.289 . S
O222 Ho193 2.381 . S
O222 C211 1.299 . S
O223 Ho192 2.305 . S
O223 Ho193 2.669 1_655 S
O223 C211 1.243 1_655 S
H224 C197 0.930 . S
H225 C198 0.931 . S
H226 C200 0.934 . S
H227 C201 0.930 . S
H228 C206 0.930 . S
H229 C207 0.931 . S
H230 C209 0.934 . S
H231 C210 0.930 . S
H232 C250 0.951 . S
H233 C252 0.951 . S
H234 C254 0.950 . S
H235 C255 0.950 . S
H236 C257 0.950 . S
H237 C260 0.950 . S
H238 C261 0.950 . S
H239 C263 0.950 . S
H240 C264 0.950 . S
H241 C265 0.951 . S
H242 C267 0.951 . S
H243 C269 0.950 . S
H244 C270 0.950 . S
H245 C272 0.950 . S
H246 C275 0.950 . S
H247 C276 0.950 . S
H248 C278 0.950 . S
H249 C279 0.950 . S
C250 H232 0.951 . S
C250 C251 1.366 . S
C250 C252 1.388 . S
C251 C250 1.366 . S
C251 C255 1.384 1_545 S
C252 H233 0.951 . S
C252 C250 1.388 . S
C252 C253 1.366 . S
C253 C252 1.366 . S
C253 C254 1.414 1_545 S
C253 C256 1.499 . S
C254 H234 0.950 . S
C254 C253 1.414 1_565 S
C254 C255 1.374 . S
C255 H235 0.950 . S
C255 C251 1.384 1_565 S
C255 C254 1.374 . S
C256 C253 1.499 . S
C256 C257 1.373 1_545 S
C256 C258 1.389 . S
C257 H236 0.950 . S
C257 C256 1.373 1_565 S
C257 C273 1.377 . S
C258 C256 1.389 . S
C258 C259 1.524 . S
C258 C272 1.377 . S
C259 C258 1.524 . S
C259 C260 1.397 . S
C259 C264 1.363 . S
C260 H237 0.950 . S
C260 C259 1.397 . S
C260 C261 1.334 . S
C261 H238 0.950 . S
C261 C260 1.334 . S
C261 C262 1.287 . S
C262 C261 1.287 . S
C262 C263 1.524 . S
C262 H281 0.913 . S
C263 H239 0.950 . S
C263 C262 1.524 . S
C263 C264 1.415 . S
C264 H240 0.950 . S
C264 C259 1.363 . S
C264 C263 1.415 . S
C265 H241 0.951 . S
C265 C266 1.366 1_565 S
C265 C267 1.388 . S
C266 C265 1.366 1_545 S
C266 C270 1.385 . S
C267 H242 0.951 . S
C267 C265 1.388 . S
C267 C268 1.366 1_565 S
C268 C267 1.366 1_545 S
C268 C269 1.414 . S
C268 C271 1.499 1_545 S
C269 H243 0.950 . S
C269 C268 1.414 . S
C269 C270 1.374 . S
C270 H244 0.950 . S
C270 C266 1.385 . S
C270 C269 1.374 . S
C271 C268 1.499 1_565 S
C271 C272 1.372 1_565 S
C271 C273 1.390 . S
C272 H245 0.950 . S
C272 C258 1.377 . S
C272 C271 1.372 1_545 S
C273 C257 1.377 . S
C273 C271 1.390 . S
C273 C274 1.524 . S
C274 C273 1.524 . S
C274 C275 1.397 . S
C274 C279 1.363 . S
C275 H246 0.950 . S
C275 C274 1.397 . S
C275 C276 1.334 . S
C276 H247 0.950 . S
C276 C275 1.334 . S
C276 C277 1.287 . S
C277 C276 1.287 . S
C277 C278 1.524 . S
C277 H280 0.999 . S
C278 H248 0.950 . S
C278 C277 1.524 . S
C278 C279 1.415 . S
C279 H249 0.950 . S
C279 C274 1.363 . S
C279 C278 1.415 . S
H280 C277 0.999 . S
H281 C262 0.913 . S
H282 C300 0.951 . S
H283 C302 0.951 . S
H284 C304 0.950 . S
H285 C305 0.950 . S
H286 C307 0.950 . S
H287 C310 0.950 . S
H288 C311 0.950 . S
H289 C313 0.950 . S
H290 C314 0.950 . S
H291 C315 0.951 . S
H292 C317 0.951 . S
H293 C319 0.950 . S
H294 C320 0.950 . S
H295 C322 0.950 . S
H296 C325 0.950 . S
H297 C326 0.950 . S
H298 C328 0.950 . S
H299 C329 0.950 . S
C300 H282 0.951 . S
C300 C301 1.366 . S
C300 C302 1.388 . S
C301 C300 1.366 . S
C301 C305 1.385 . S
C302 H283 0.951 . S
C302 C300 1.388 . S
C302 C303 1.366 . S
C303 C302 1.366 . S
C303 C304 1.414 . S
C303 C306 1.499 . S
C304 H284 0.950 . S
C304 C303 1.414 . S
C304 C305 1.374 . S
C305 H285 0.950 . S
C305 C301 1.385 . S
C305 C304 1.374 . S
C306 C303 1.499 . S
C306 C307 1.373 . S
C306 C308 1.389 . S
C307 H286 0.950 . S
C307 C306 1.373 . S
C307 C323 1.377 . S
C308 C306 1.389 . S
C308 C309 1.524 . S
C308 C322 1.377 . S
C309 C308 1.524 . S
C309 C310 1.397 . S
C309 C314 1.363 . S
C310 H287 0.950 . S
C310 C309 1.397 . S
C310 C311 1.334 . S
C311 H288 0.950 . S
C311 C310 1.334 . S
C311 C312 1.287 . S
C312 C311 1.287 . S
C312 C313 1.524 . S
C312 H331 0.913 . S
C313 H289 0.950 . S
C313 C312 1.524 . S
C313 C314 1.415 . S
C314 H290 0.950 . S
C314 C309 1.363 . S
C314 C313 1.415 . S
C315 H291 0.951 . S
C315 C316 1.366 . S
C315 C317 1.388 . S
C316 C315 1.366 . S
C316 C320 1.385 . S
C317 H292 0.951 . S
C317 C315 1.388 . S
C317 C318 1.366 . S
C318 C317 1.366 . S
C318 C319 1.414 . S
C318 C321 1.499 . S
C319 H293 0.950 . S
C319 C318 1.414 . S
C319 C320 1.374 . S
C320 H294 0.950 . S
C320 C316 1.385 . S
C320 C319 1.374 . S
C321 C318 1.499 . S
C321 C322 1.373 . S
C321 C323 1.389 . S
C322 H295 0.950 . S
C322 C308 1.377 . S
C322 C321 1.373 . S
C323 C307 1.377 . S
C323 C321 1.389 . S
C323 C324 1.524 . S
C324 C323 1.524 . S
C324 C325 1.397 . S
C324 C329 1.363 . S
C325 H296 0.950 . S
C325 C324 1.397 . S
C325 C326 1.334 . S
C326 H297 0.950 . S
C326 C325 1.334 . S
C326 C327 1.287 . S
C327 C326 1.287 . S
C327 C328 1.524 . S
C327 H330 0.999 . S
C328 H298 0.950 . S
C328 C327 1.524 . S
C328 C329 1.415 . S
C329 H299 0.950 . S
C329 C324 1.363 . S
C329 C328 1.415 . S
H330 C327 0.999 . S
H331 C312 0.913 . S
H332 C350 0.951 . S
H333 C352 0.951 . S
H334 C354 0.950 . S
H335 C355 0.950 . S
H336 C357 0.950 . S
H337 C360 0.950 . S
H338 C361 0.950 . S
H339 C363 0.950 . S
H340 C364 0.950 . S
H341 C365 0.951 . S
H342 C367 0.951 . S
H343 C369 0.950 . S
H344 C370 0.950 . S
H345 C372 0.950 . S
H346 C375 0.950 . S
H347 C376 0.950 . S
H348 C378 0.950 . S
H349 C379 0.950 . S
C350 H332 0.951 . S
C350 C351 1.366 . S
C350 C352 1.388 . S
C351 C350 1.366 . S
C351 C355 1.385 . S
C352 H333 0.951 . S
C352 C350 1.388 . S
C352 C353 1.366 . S
C353 C352 1.366 . S
C353 C354 1.414 . S
C353 C356 1.499 . S
C354 H334 0.950 . S
C354 C353 1.414 . S
C354 C355 1.374 . S
C355 H335 0.950 . S
C355 C351 1.385 . S
C355 C354 1.374 . S
C356 C353 1.499 . S
C356 C357 1.373 . S
C356 C358 1.389 . S
C357 H336 0.950 . S
C357 C356 1.373 . S
C357 C373 1.377 . S
C358 C356 1.389 . S
C358 C359 1.524 . S
C358 C372 1.377 . S
C359 C358 1.524 . S
C359 C360 1.397 . S
C359 C364 1.363 . S
C360 H337 0.950 . S
C360 C359 1.397 . S
C360 C361 1.334 . S
C361 H338 0.950 . S
C361 C360 1.334 . S
C361 C362 1.287 . S
C362 C361 1.287 . S
C362 C363 1.524 . S
C362 H381 0.913 . S
C363 H339 0.950 . S
C363 C362 1.524 . S
C363 C364 1.415 . S
C364 H340 0.950 . S
C364 C359 1.363 . S
C364 C363 1.415 . S
C365 H341 0.951 . S
C365 C366 1.366 . S
C365 C367 1.388 . S
C366 C365 1.366 . S
C366 C370 1.385 . S
C367 H342 0.951 . S
C367 C365 1.388 . S
C367 C368 1.366 . S
C368 C367 1.366 . S
C368 C369 1.414 . S
C368 C371 1.499 . S
C369 H343 0.950 . S
C369 C368 1.414 . S
C369 C370 1.374 . S
C370 H344 0.950 . S
C370 C366 1.385 . S
C370 C369 1.374 . S
C371 C368 1.499 . S
C371 C372 1.373 . S
C371 C373 1.389 . S
C372 H345 0.950 . S
C372 C358 1.377 . S
C372 C371 1.373 . S
C373 C357 1.377 . S
C373 C371 1.389 . S
C373 C374 1.524 . S
C374 C373 1.524 . S
C374 C375 1.397 . S
C374 C379 1.363 . S
C375 H346 0.950 . S
C375 C374 1.397 . S
C375 C376 1.334 . S
C376 H347 0.950 . S
C376 C375 1.334 . S
C376 C377 1.287 . S
C377 C376 1.287 . S
C377 C378 1.524 . S
C377 H380 0.999 . S
C378 H348 0.950 . S
C378 C377 1.524 . S
C378 C379 1.415 . S
C379 H349 0.950 . S
C379 C374 1.363 . S
C379 C378 1.415 . S
H380 C377 0.999 . S
H381 C362 0.913 . S
H382 C400 0.951 . S
H383 C402 0.951 . S
H384 C404 0.950 . S
H385 C405 0.950 . S
H386 C407 0.950 . S
H387 C410 0.950 . S
H388 C411 0.950 . S
H389 C413 0.944 1_455 S
H390 C414 0.954 . S
H391 C415 0.951 . S
H392 C417 0.951 . S
H393 C419 0.950 . S
H394 C420 0.950 . S
H395 C422 0.950 . S
H396 C425 0.950 . S
H397 C426 0.950 . S
H398 C428 0.950 . S
H399 C429 0.950 1_655 S
C400 H382 0.951 . S
C400 C401 1.370 . S
C400 C402 1.388 . S
C401 C400 1.370 . S
C401 C405 1.380 1_455 S
C402 H383 0.951 . S
C402 C400 1.388 . S
C402 C403 1.356 1_455 S
C403 C402 1.356 1_655 S
C403 C404 1.423 . S
C403 C406 1.499 . S
C404 H384 0.950 . S
C404 C403 1.423 . S
C404 C405 1.374 . S
C405 H385 0.950 . S
C405 C401 1.380 1_655 S
C405 C404 1.374 . S
C406 C403 1.499 . S
C406 C407 1.367 1_655 S
C406 C408 1.394 . S
C407 H386 0.950 . S
C407 C406 1.367 1_455 S
C407 C423 1.377 . S
C408 C406 1.394 . S
C408 C409 1.524 . S
C408 C422 1.377 . S
C409 C408 1.524 . S
C409 C410 1.397 . S
C409 C414 1.361 1_655 S
C410 H387 0.950 . S
C410 C409 1.397 . S
C410 C411 1.334 . S
C411 H388 0.950 . S
C411 C410 1.334 . S
C411 C412 1.287 . S
C412 C411 1.287 . S
C412 C413 1.524 . S
C412 H431 0.913 . S
C413 H389 0.944 1_655 S
C413 C412 1.524 . S
C413 C414 1.414 1_655 S
C414 H390 0.954 . S
C414 C409 1.361 1_455 S
C414 C413 1.414 1_455 S
C415 H391 0.951 . S
C415 C416 1.366 1_655 S
C415 C417 1.388 . S
C416 C415 1.366 1_455 S
C416 C420 1.385 . S
C417 H392 0.951 . S
C417 C415 1.388 . S
C417 C418 1.366 1_655 S
C418 C417 1.366 1_455 S
C418 C419 1.414 . S
C418 C421 1.499 . S
C419 H393 0.950 . S
C419 C418 1.414 . S
C419 C420 1.374 . S
C420 H394 0.950 . S
C420 C416 1.385 . S
C420 C419 1.374 . S
C421 C418 1.499 . S
C421 C422 1.373 1_455 S
C421 C423 1.389 . S
C422 H395 0.950 . S
C422 C408 1.377 . S
C422 C421 1.373 1_655 S
C423 C407 1.377 . S
C423 C421 1.389 . S
C423 C424 1.524 . S
C424 C423 1.524 . S
C424 C425 1.397 . S
C424 C429 1.363 . S
C425 H396 0.950 . S
C425 C424 1.397 . S
C425 C426 1.334 . S
C426 H397 0.950 . S
C426 C425 1.334 . S
C426 C427 1.287 . S
C427 C426 1.287 . S
C427 C428 1.524 . S
C427 H430 0.999 . S
C428 H398 0.950 . S
C428 C427 1.524 . S
C428 C429 1.415 . S
C429 H399 0.950 1_455 S
C429 C424 1.363 . S
C429 C428 1.415 . S
H430 C427 0.999 . S
H431 C412 0.913 . S
H432 C450 0.951 . S
H433 C452 0.951 . S
H434 C454 0.950 . S
H435 C455 0.950 . S
H436 C457 0.950 . S
H437 C460 0.950 . S
H438 C461 0.950 . S
H439 C463 0.950 . S
H440 C464 0.950 1_545 S
H441 C465 0.951 . S
H442 C467 0.951 . S
H443 C469 0.950 . S
H444 C470 0.950 . S
H445 C472 0.950 . S
H446 C475 0.950 . S
H447 C476 0.950 . S
H448 C478 0.950 . S
H449 C479 0.919 1_565 S
C450 H432 0.951 . S
C450 C451 1.363 . S
C450 C452 1.388 . S
C451 C450 1.363 . S
C451 C455 1.388 1_545 S
C452 H433 0.951 . S
C452 C450 1.388 . S
C452 C453 1.366 1_545 S
C453 C452 1.366 1_565 S
C453 C454 1.414 . S
C453 C456 1.499 . S
C454 H434 0.950 . S
C454 C453 1.414 . S
C454 C455 1.374 . S
C455 H435 0.950 . S
C455 C451 1.388 1_565 S
C455 C454 1.374 . S
C456 C453 1.499 . S
C456 C457 1.373 1_565 S
C456 C458 1.389 . S
C457 H436 0.950 . S
C457 C456 1.373 1_545 S
C457 C473 1.377 . S
C458 C456 1.389 . S
C458 C459 1.524 . S
C458 C472 1.377 1_554 S
C459 C458 1.524 . S
C459 C460 1.397 . S
C459 C464 1.363 1_554 S
C460 H437 0.950 . S
C460 C459 1.397 . S
C460 C461 1.334 . S
C461 H438 0.950 . S
C461 C460 1.334 . S
C461 C462 1.287 1_554 S
C462 C461 1.287 1_556 S
C462 C463 1.524 . S
C462 H481 0.913 . S
C463 H439 0.950 . S
C463 C462 1.524 . S
C463 C464 1.415 . S
C464 H440 0.950 1_565 S
C464 C459 1.363 1_556 S
C464 C463 1.415 . S
C465 H441 0.951 . S
C465 C466 1.366 . S
C465 C467 1.388 . S
C466 C465 1.366 . S
C466 C470 1.385 1_565 S
C467 H442 0.951 . S
C467 C465 1.388 . S
C467 C468 1.364 . S
C468 C467 1.364 . S
C468 C469 1.415 1_565 S
C468 C471 1.490 1_566 S
C469 H443 0.950 . S
C469 C468 1.415 1_545 S
C469 C470 1.374 . S
C470 H444 0.950 . S
C470 C466 1.385 1_545 S
C470 C469 1.374 . S
C471 C468 1.490 1_544 S
C471 C472 1.365 1_544 S
C471 C473 1.405 . S
C472 H445 0.950 . S
C472 C458 1.377 1_556 S
C472 C471 1.365 1_566 S
C473 C457 1.377 . S
C473 C471 1.405 . S
C473 C474 1.524 . S
C474 C473 1.524 . S
C474 C475 1.397 . S
C474 C479 1.382 . S
C475 H446 0.950 . S
C475 C474 1.397 . S
C475 C476 1.334 . S
C476 H447 0.950 . S
C476 C475 1.334 . S
C476 C477 1.287 . S
C477 C476 1.287 . S
C477 C478 1.524 . S
C477 H480 0.999 . S
C478 H448 0.950 . S
C478 C477 1.524 . S
C478 C479 1.428 . S
C479 H449 0.919 1_545 S
C479 C474 1.382 . S
C479 C478 1.428 . S
H480 C477 0.999 . S
H481 C462 0.913 . S
H482 C500 0.951 . S
H483 C502 0.951 . S
H484 C504 0.950 . S
H485 C505 0.950 . S
H486 C507 0.950 . S
H487 C510 0.950 . S
H488 C511 0.950 . S
H489 C513 0.950 . S
H490 C514 0.950 1_556 S
H491 C515 0.951 . S
H492 C517 0.951 . S
H493 C519 0.950 . S
H494 C520 0.950 . S
H495 C522 0.950 1_556 S
H496 C525 0.950 . S
H497 C526 0.950 . S
H498 C528 0.950 . S
H499 C529 0.950 . S
C500 H482 0.951 . S
C500 C501 1.366 . S
C500 C502 1.388 . S
C501 C500 1.366 . S
C501 C505 1.385 . S
C502 H483 0.951 . S
C502 C500 1.388 . S
C502 C503 1.366 . S
C503 C502 1.366 . S
C503 C504 1.414 . S
C503 C506 1.499 . S
C504 H484 0.950 . S
C504 C503 1.414 . S
C504 C505 1.374 . S
C505 H485 0.950 . S
C505 C501 1.385 . S
C505 C504 1.374 . S
C506 C503 1.499 . S
C506 C507 1.373 . S
C506 C508 1.389 . S
C507 H486 0.950 . S
C507 C506 1.373 . S
C507 C523 1.377 . S
C508 C506 1.389 . S
C508 C509 1.524 . S
C508 C522 1.377 . S
C509 C508 1.524 . S
C509 C510 1.397 . S
C509 C514 1.363 . S
C510 H487 0.950 . S
C510 C509 1.397 . S
C510 C511 1.334 . S
C511 H488 0.950 . S
C511 C510 1.334 . S
C511 C512 1.287 . S
C512 C511 1.287 . S
C512 C513 1.524 . S
C512 H531 0.913 . S
C513 H489 0.950 . S
C513 C512 1.524 . S
C513 C514 1.415 . S
C514 H490 0.950 1_554 S
C514 C509 1.363 . S
C514 C513 1.415 . S
C515 H491 0.951 . S
C515 C516 1.366 . S
C515 C517 1.388 . S
C516 C515 1.366 . S
C516 C520 1.385 . S
C517 H492 0.951 . S
C517 C515 1.388 . S
C517 C518 1.366 . S
C518 C517 1.366 . S
C518 C519 1.414 . S
C518 C521 1.499 . S
C519 H493 0.950 . S
C519 C518 1.414 . S
C519 C520 1.374 . S
C520 H494 0.950 . S
C520 C516 1.385 . S
C520 C519 1.374 . S
C521 C518 1.499 . S
C521 C522 1.373 1_556 S
C521 C523 1.389 1_556 S
C522 H495 0.950 1_554 S
C522 C508 1.377 . S
C522 C521 1.373 1_554 S
C523 C507 1.377 . S
C523 C521 1.389 1_554 S
C523 C524 1.524 . S
C524 C523 1.524 . S
C524 C525 1.397 1_554 S
C524 C529 1.363 . S
C525 H496 0.950 . S
C525 C524 1.397 1_556 S
C525 C526 1.334 . S
C526 H497 0.950 . S
C526 C525 1.334 . S
C526 C527 1.287 . S
C527 C526 1.287 . S
C527 C528 1.524 1_556 S
C527 H530 0.999 . S
C528 H498 0.950 . S
C528 C527 1.524 1_554 S
C528 C529 1.415 . S
C529 H499 0.950 . S
C529 C524 1.363 . S
C529 C528 1.415 . S
H530 C527 0.999 . S
H531 C512 0.913 . S
H532 C550 0.951 . S
H533 C552 0.951 . S
H534 C554 0.950 . S
H535 C555 0.950 . S
H536 C557 0.950 . S
H537 C560 0.950 . S
H538 C561 0.950 . S
H539 C563 0.950 . S
H540 C564 0.950 . S
H541 C565 0.951 . S
H542 C567 0.951 . S
H543 C569 0.950 . S
H544 C570 0.950 . S
H545 C572 0.950 . S
H546 C575 0.950 . S
H547 C576 0.950 . S
H548 C578 0.950 . S
H549 C579 0.950 . S
C550 H532 0.951 . S
C550 C551 1.366 . S
C550 C552 1.388 . S
C551 C550 1.366 . S
C551 C555 1.385 . S
C552 H533 0.951 . S
C552 C550 1.388 . S
C552 C553 1.366 . S
C553 C552 1.366 . S
C553 C554 1.414 . S
C553 C556 1.499 . S
C554 H534 0.950 . S
C554 C553 1.414 . S
C554 C555 1.374 . S
C555 H535 0.950 . S
C555 C551 1.385 . S
C555 C554 1.374 . S
C556 C553 1.499 . S
C556 C557 1.373 . S
C556 C558 1.389 . S
C557 H536 0.950 . S
C557 C556 1.373 . S
C557 C573 1.377 . S
C558 C556 1.389 . S
C558 C559 1.524 . S
C558 C572 1.377 . S
C559 C558 1.524 . S
C559 C560 1.397 . S
C559 C564 1.363 . S
C560 H537 0.950 . S
C560 C559 1.397 . S
C560 C561 1.334 . S
C561 H538 0.950 . S
C561 C560 1.334 . S
C561 C562 1.287 . S
C562 C561 1.287 . S
C562 C563 1.524 . S
C562 H581 0.913 . S
C563 H539 0.950 . S
C563 C562 1.524 . S
C563 C564 1.415 . S
C564 H540 0.950 . S
C564 C559 1.363 . S
C564 C563 1.415 . S
C565 H541 0.951 . S
C565 C566 1.366 . S
C565 C567 1.388 . S
C566 C565 1.366 . S
C566 C570 1.385 . S
C567 H542 0.951 . S
C567 C565 1.388 . S
C567 C568 1.366 . S
C568 C567 1.366 . S
C568 C569 1.414 . S
C568 C571 1.499 . S
C569 H543 0.950 . S
C569 C568 1.414 . S
C569 C570 1.374 . S
C570 H544 0.950 . S
C570 C566 1.385 . S
C570 C569 1.374 . S
C571 C568 1.499 . S
C571 C572 1.373 1_556 S
C571 C573 1.389 1_556 S
C572 H545 0.950 . S
C572 C558 1.377 . S
C572 C571 1.373 1_554 S
C573 C557 1.377 . S
C573 C571 1.389 1_554 S
C573 C574 1.524 1_554 S
C574 C573 1.524 1_556 S
C574 C575 1.397 . S
C574 C579 1.363 . S
C575 H546 0.950 . S
C575 C574 1.397 . S
C575 C576 1.334 . S
C576 H547 0.950 . S
C576 C575 1.334 . S
C576 C577 1.287 . S
C577 C576 1.287 . S
C577 C578 1.524 . S
C577 H580 0.999 . S
C578 H548 0.950 . S
C578 C577 1.524 . S
C578 C579 1.415 . S
C579 H549 0.950 . S
C579 C574 1.363 . S
C579 C578 1.415 . S
H580 C577 0.999 . S
H581 C562 0.913 . S
H582 C600 0.951 . S
H583 C602 0.951 . S
H584 C604 0.950 . S
H585 C605 0.950 . S
H586 C607 0.950 . S
H587 C610 0.950 . S
H588 C611 0.950 . S
H589 C613 0.950 . S
H590 C614 0.950 . S
H591 C615 0.951 . S
H592 C617 0.951 . S
H593 C619 0.950 . S
H594 C620 0.950 . S
H595 C622 0.950 . S
H596 C625 0.950 . S
H597 C626 0.950 . S
H598 C628 0.950 . S
H599 C629 0.950 . S
C600 H582 0.951 . S
C600 C601 1.368 . S
C600 C602 1.388 . S
C601 C600 1.368 . S
C601 C605 1.382 1_655 S
C602 H583 0.951 . S
C602 C600 1.388 . S
C602 C603 1.359 1_655 S
C603 C602 1.359 1_455 S
C603 C604 1.420 . S
C603 C606 1.499 . S
C604 H584 0.950 . S
C604 C603 1.420 . S
C604 C605 1.374 . S
C605 H585 0.950 . S
C605 C601 1.382 1_455 S
C605 C604 1.374 . S
C606 C603 1.499 . S
C606 C607 1.356 1_455 S
C606 C608 1.405 . S
C607 H586 0.950 . S
C607 C606 1.356 1_655 S
C607 C623 1.377 1_554 S
C608 C606 1.405 . S
C608 C609 1.524 . S
C608 C622 1.377 . S
C609 C608 1.524 . S
C609 C610 1.397 . S
C609 C614 1.363 . S
C610 H587 0.950 . S
C610 C609 1.397 . S
C610 C611 1.334 . S
C611 H588 0.950 . S
C611 C610 1.334 . S
C611 C612 1.287 . S
C612 C611 1.287 . S
C612 C613 1.524 . S
C612 H631 0.913 . S
C613 H589 0.950 . S
C613 C612 1.524 . S
C613 C614 1.415 . S
C614 H590 0.950 . S
C614 C609 1.363 . S
C614 C613 1.415 . S
C615 H591 0.951 . S
C615 C616 1.366 1_455 S
C615 C617 1.388 . S
C616 C615 1.366 1_655 S
C616 C620 1.385 . S
C617 H592 0.951 . S
C617 C615 1.388 . S
C617 C618 1.366 1_455 S
C618 C617 1.366 1_655 S
C618 C619 1.414 . S
C618 C621 1.486 1_556 S
C619 H593 0.950 . S
C619 C618 1.414 . S
C619 C620 1.374 . S
C620 H594 0.950 . S
C620 C616 1.385 . S
C620 C619 1.374 . S
C621 C618 1.486 1_554 S
C621 C622 1.387 1_655 S
C621 C623 1.389 1_554 S
C622 H595 0.950 . S
C622 C608 1.377 . S
C622 C621 1.387 1_455 S
C623 C607 1.377 1_556 S
C623 C621 1.389 1_556 S
C623 C624 1.524 . S
C624 C623 1.524 . S
C624 C625 1.397 . S
C624 C629 1.363 . S
C625 H596 0.950 . S
C625 C624 1.397 . S
C625 C626 1.334 . S
C626 H597 0.950 . S
C626 C625 1.334 . S
C626 C627 1.287 . S
C627 C626 1.287 . S
C627 C628 1.524 . S
C627 H630 0.999 . S
C628 H598 0.950 . S
C628 C627 1.524 . S
C628 C629 1.415 . S
C629 H599 0.950 . S
C629 C624 1.363 . S
C629 C628 1.415 . S
H630 C627 0.999 . S
H631 C612 0.913 . S
H632 C650 0.951 . S
H633 C652 0.954 . S
H634 C654 0.950 . S
H635 C655 0.950 . S
H636 C657 0.950 . S
H637 C660 0.950 . S
H638 C661 0.950 . S
H639 C663 0.950 . S
H640 C664 0.950 . S
H641 C665 0.951 . S
H642 C667 0.951 . S
H643 C669 0.950 . S
H644 C670 0.950 . S
H645 C672 0.950 1_455 S
H646 C675 0.950 . S
H647 C676 0.950 . S
H648 C678 0.950 . S
H649 C679 0.950 . S
C650 H632 0.951 . S
C650 C651 1.366 . S
C650 C652 1.392 . S
C651 C650 1.366 . S
C651 C655 1.385 1_455 S
C652 H633 0.954 . S
C652 C650 1.392 . S
C652 C653 1.359 1_455 S
C653 C652 1.359 1_655 S
C653 C654 1.414 . S
C653 C656 1.499 . S
C654 H634 0.950 . S
C654 C653 1.414 . S
C654 C655 1.374 . S
C655 H635 0.950 . S
C655 C651 1.385 1_655 S
C655 C654 1.374 . S
C656 C653 1.499 . S
C656 C657 1.373 . S
C656 C658 1.389 1_655 S
C657 H636 0.950 . S
C657 C656 1.373 . S
C657 C673 1.377 . S
C658 C656 1.389 1_455 S
C658 C659 1.524 . S
C658 C672 1.377 1_455 S
C659 C658 1.524 . S
C659 C660 1.397 . S
C659 C664 1.363 . S
C660 H637 0.950 . S
C660 C659 1.397 . S
C660 C661 1.334 . S
C661 H638 0.950 . S
C661 C660 1.334 . S
C661 C662 1.287 . S
C662 C661 1.287 . S
C662 C663 1.524 . S
C662 H681 0.913 . S
C663 H639 0.950 . S
C663 C662 1.524 . S
C663 C664 1.415 . S
C664 H640 0.950 . S
C664 C659 1.363 . S
C664 C663 1.415 . S
C665 H641 0.951 . S
C665 C666 1.366 . S
C665 C667 1.388 . S
C666 C665 1.366 . S
C666 C670 1.385 . S
C667 H642 0.951 . S
C667 C665 1.388 . S
C667 C668 1.366 . S
C668 C667 1.366 . S
C668 C669 1.414 . S
C668 C671 1.499 . S
C669 H643 0.950 . S
C669 C668 1.414 . S
C669 C670 1.374 . S
C670 H644 0.950 . S
C670 C666 1.385 . S
C670 C669 1.374 . S
C671 C668 1.499 . S
C671 C672 1.373 . S
C671 C673 1.389 . S
C672 H645 0.950 1_655 S
C672 C658 1.377 1_655 S
C672 C671 1.373 . S
C673 C657 1.377 . S
C673 C671 1.389 . S
C673 C674 1.524 . S
C674 C673 1.524 . S
C674 C675 1.397 . S
C674 C679 1.363 . S
C675 H646 0.950 . S
C675 C674 1.397 . S
C675 C676 1.334 . S
C676 H647 0.950 . S
C676 C675 1.334 . S
C676 C677 1.287 . S
C677 C676 1.287 . S
C677 C678 1.524 . S
C677 H680 0.999 . S
C678 H648 0.950 . S
C678 C677 1.524 . S
C678 C679 1.415 . S
C679 H649 0.950 . S
C679 C674 1.363 . S
C679 C678 1.415 . S
H680 C677 0.999 . S
H681 C662 0.913 . S
H682 C700 0.951 . S
H683 C702 0.951 . S
H684 C704 0.950 . S
H685 C705 0.950 . S
H686 C707 0.950 1_545 S
H687 C710 0.950 . S
H688 C711 0.950 . S
H689 C713 0.945 1_556 S
H690 C714 0.950 . S
H691 C715 0.951 . S
H692 C717 0.951 . S
H693 C719 0.950 . S
H694 C720 0.950 . S
H695 C722 0.950 . S
H696 C725 0.950 . S
H697 C726 0.950 . S
H698 C728 0.950 . S
H699 C729 0.932 1_565 S
C700 H682 0.951 . S
C700 C701 1.366 . S
C700 C702 1.388 1_545 S
C701 C700 1.366 . S
C701 C705 1.385 1_545 S
C702 H683 0.951 . S
C702 C700 1.388 1_565 S
C702 C703 1.366 . S
C703 C702 1.366 . S
C703 C704 1.414 . S
C703 C706 1.499 . S
C704 H684 0.950 . S
C704 C703 1.414 . S
C704 C705 1.374 . S
C705 H685 0.950 . S
C705 C701 1.385 1_565 S
C705 C704 1.374 . S
C706 C703 1.499 . S
C706 C707 1.373 . S
C706 C708 1.389 . S
C707 H686 0.950 1_565 S
C707 C706 1.373 . S
C707 C723 1.377 . S
C708 C706 1.389 . S
C708 C709 1.524 . S
C708 C722 1.377 . S
C709 C708 1.524 . S
C709 C710 1.397 . S
C709 C714 1.363 . S
C710 H687 0.950 . S
C710 C709 1.397 . S
C710 C711 1.334 . S
C711 H688 0.950 . S
C711 C710 1.334 . S
C711 C712 1.287 . S
C712 C711 1.287 . S
C712 C713 1.524 . S
C712 H731 0.913 1_554 S
C713 H689 0.945 1_554 S
C713 C712 1.524 . S
C713 C714 1.415 . S
C714 H690 0.950 . S
C714 C709 1.363 . S
C714 C713 1.415 . S
C715 H691 0.951 . S
C715 C716 1.366 . S
C715 C717 1.388 . S
C716 C715 1.366 . S
C716 C720 1.385 . S
C717 H692 0.951 . S
C717 C715 1.388 . S
C717 C718 1.366 . S
C718 C717 1.366 . S
C718 C719 1.414 . S
C718 C721 1.499 . S
C719 H693 0.950 . S
C719 C718 1.414 . S
C719 C720 1.374 . S
C720 H694 0.950 . S
C720 C716 1.385 . S
C720 C719 1.374 . S
C721 C718 1.499 . S
C721 C722 1.373 . S
C721 C723 1.389 . S
C722 H695 0.950 . S
C722 C708 1.377 . S
C722 C721 1.373 . S
C723 C707 1.377 . S
C723 C721 1.389 . S
C723 C724 1.524 1_565 S
C724 C723 1.524 1_545 S
C724 C725 1.397 . S
C724 C729 1.363 . S
C725 H696 0.950 . S
C725 C724 1.397 . S
C725 C726 1.334 . S
C726 H697 0.950 . S
C726 C725 1.334 . S
C726 C727 1.287 . S
C727 C726 1.287 . S
C727 C728 1.524 . S
C727 H730 0.999 . S
C728 H698 0.950 . S
C728 C727 1.524 . S
C728 C729 1.415 . S
C729 H699 0.932 1_545 S
C729 C724 1.363 . S
C729 C728 1.415 . S
H730 C727 0.999 . S
H731 C712 0.913 1_556 S
H732 C750 0.951 . S
H733 C752 0.951 . S
H734 C754 0.950 . S
H735 C755 0.950 . S
H736 C757 0.950 . S
H737 C760 0.950 . S
H738 C761 0.950 . S
H739 C763 0.950 . S
H740 C764 0.950 . S
H741 C765 0.951 . S
H742 C767 0.951 . S
H743 C769 0.950 . S
H744 C770 0.950 . S
H745 C772 0.950 . S
H746 C775 0.950 . S
H747 C776 0.950 . S
H748 C778 0.950 . S
H749 C779 0.950 . S
C750 H732 0.951 . S
C750 C751 1.366 . S
C750 C752 1.388 . S
C751 C750 1.366 . S
C751 C755 1.385 . S
C752 H733 0.951 . S
C752 C750 1.388 . S
C752 C753 1.366 . S
C753 C752 1.366 . S
C753 C754 1.414 . S
C753 C756 1.499 . S
C754 H734 0.950 . S
C754 C753 1.414 . S
C754 C755 1.374 . S
C755 H735 0.950 . S
C755 C751 1.385 . S
C755 C754 1.374 . S
C756 C753 1.499 . S
C756 C757 1.373 . S
C756 C758 1.389 . S
C757 H736 0.950 . S
C757 C756 1.373 . S
C757 C773 1.377 . S
C758 C756 1.389 . S
C758 C759 1.524 . S
C758 C772 1.377 . S
C759 C758 1.524 . S
C759 C760 1.397 . S
C759 C764 1.363 . S
C760 H737 0.950 . S
C760 C759 1.397 . S
C760 C761 1.334 . S
C761 H738 0.950 . S
C761 C760 1.334 . S
C761 C762 1.287 . S
C762 C761 1.287 . S
C762 C763 1.524 . S
C762 H781 0.913 . S
C763 H739 0.950 . S
C763 C762 1.524 . S
C763 C764 1.415 . S
C764 H740 0.950 . S
C764 C759 1.363 . S
C764 C763 1.415 . S
C765 H741 0.951 . S
C765 C766 1.366 . S
C765 C767 1.388 . S
C766 C765 1.366 . S
C766 C770 1.385 . S
C767 H742 0.951 . S
C767 C765 1.388 . S
C767 C768 1.366 . S
C768 C767 1.366 . S
C768 C769 1.414 . S
C768 C771 1.499 . S
C769 H743 0.950 . S
C769 C768 1.414 . S
C769 C770 1.374 . S
C770 H744 0.950 . S
C770 C766 1.385 . S
C770 C769 1.374 . S
C771 C768 1.499 . S
C771 C772 1.373 . S
C771 C773 1.389 . S
C772 H745 0.950 . S
C772 C758 1.377 . S
C772 C771 1.373 . S
C773 C757 1.377 . S
C773 C771 1.389 . S
C773 C774 1.524 . S
C774 C773 1.524 . S
C774 C775 1.397 . S
C774 C779 1.363 . S
C775 H746 0.950 . S
C775 C774 1.397 . S
C775 C776 1.334 . S
C776 H747 0.950 . S
C776 C775 1.334 . S
C776 C777 1.287 . S
C777 C776 1.287 . S
C777 C778 1.524 . S
C777 H780 0.999 . S
C778 H748 0.950 . S
C778 C777 1.524 . S
C778 C779 1.415 . S
C779 H749 0.950 . S
C779 C774 1.363 . S
C779 C778 1.415 . S
H780 C777 0.999 . S
H781 C762 0.913 . S
H782 C800 0.951 . S
H783 C802 0.951 . S
H784 C804 0.950 . S
H785 C805 0.950 . S
H786 C807 0.950 . S
H787 C810 0.950 . S
H788 C811 0.950 . S
H789 C813 0.950 . S
H790 C814 0.950 . S
H791 C815 0.951 . S
H792 C817 0.951 . S
H793 C819 0.950 . S
H794 C820 0.950 . S
H795 C822 0.950 . S
H796 C825 0.950 . S
H797 C826 0.950 . S
H798 C828 0.950 . S
H799 C829 0.950 . S
C800 H782 0.951 . S
C800 C801 1.366 . S
C800 C802 1.388 . S
C801 C800 1.366 . S
C801 C805 1.385 . S
C802 H783 0.951 . S
C802 C800 1.388 . S
C802 C803 1.366 . S
C803 C802 1.366 . S
C803 C804 1.414 . S
C803 C806 1.499 . S
C804 H784 0.950 . S
C804 C803 1.414 . S
C804 C805 1.374 . S
C805 H785 0.950 . S
C805 C801 1.385 . S
C805 C804 1.374 . S
C806 C803 1.499 . S
C806 C807 1.373 . S
C806 C808 1.389 . S
C807 H786 0.950 . S
C807 C806 1.373 . S
C807 C823 1.377 . S
C808 C806 1.389 . S
C808 C809 1.524 . S
C808 C822 1.377 . S
C809 C808 1.524 . S
C809 C810 1.397 . S
C809 C814 1.363 . S
C810 H787 0.950 . S
C810 C809 1.397 . S
C810 C811 1.334 . S
C811 H788 0.950 . S
C811 C810 1.334 . S
C811 C812 1.287 . S
C812 C811 1.287 . S
C812 C813 1.524 . S
C812 H831 0.913 . S
C813 H789 0.950 . S
C813 C812 1.524 . S
C813 C814 1.415 . S
C814 H790 0.950 . S
C814 C809 1.363 . S
C814 C813 1.415 . S
C815 H791 0.951 . S
C815 C816 1.366 . S
C815 C817 1.388 . S
C816 C815 1.366 . S
C816 C820 1.385 . S
C817 H792 0.951 . S
C817 C815 1.388 . S
C817 C818 1.366 . S
C818 C817 1.366 . S
C818 C819 1.414 . S
C818 C821 1.499 . S
C819 H793 0.950 . S
C819 C818 1.414 . S
C819 C820 1.374 . S
C820 H794 0.950 . S
C820 C816 1.385 . S
C820 C819 1.374 . S
C821 C818 1.499 . S
C821 C822 1.373 . S
C821 C823 1.389 . S
C822 H795 0.950 . S
C822 C808 1.377 . S
C822 C821 1.373 . S
C823 C807 1.377 . S
C823 C821 1.389 . S
C823 C824 1.524 . S
C824 C823 1.524 . S
C824 C825 1.397 . S
C824 C829 1.363 . S
C825 H796 0.950 . S
C825 C824 1.397 . S
C825 C826 1.334 . S
C826 H797 0.950 . S
C826 C825 1.334 . S
C826 C827 1.287 . S
C827 C826 1.287 . S
C827 C828 1.524 . S
C827 H830 0.999 . S
C828 H798 0.950 . S
C828 C827 1.524 . S
C828 C829 1.415 . S
C829 H799 0.950 . S
C829 C824 1.363 . S
C829 C828 1.415 . S
H830 C827 0.999 . S
H831 C812 0.913 . S
H832 C850 0.951 . S
H833 C852 0.951 . S
H834 C854 0.950 . S
H835 C855 0.950 . S
H836 C857 0.950 . S
H837 C860 0.950 . S
H838 C861 0.950 . S
H839 C863 0.950 . S
H840 C864 0.950 . S
H841 C865 0.951 . S
H842 C867 0.951 . S
H843 C869 0.950 1_655 S
H844 C870 0.950 . S
H845 C872 0.950 1_655 S
H846 C875 0.950 . S
H847 C876 0.950 . S
H848 C878 0.950 . S
H849 C879 0.950 . S
C850 H832 0.951 . S
C850 C851 1.366 . S
C850 C852 1.388 . S
C851 C850 1.366 . S
C851 C855 1.385 1_655 S
C852 H833 0.951 . S
C852 C850 1.388 . S
C852 C853 1.366 1_655 S
C853 C852 1.366 1_455 S
C853 C854 1.414 . S
C853 C856 1.499 . S
C854 H834 0.950 . S
C854 C853 1.414 . S
C854 C855 1.374 . S
C855 H835 0.950 . S
C855 C851 1.385 1_455 S
C855 C854 1.374 . S
C856 C853 1.499 . S
C856 C857 1.373 . S
C856 C858 1.389 1_455 S
C857 H836 0.950 . S
C857 C856 1.373 . S
C857 C873 1.377 . S
C858 C856 1.389 1_655 S
C858 C859 1.524 . S
C858 C872 1.377 1_655 S
C859 C858 1.524 . S
C859 C860 1.397 . S
C859 C864 1.363 . S
C860 H837 0.950 . S
C860 C859 1.397 . S
C860 C861 1.334 . S
C861 H838 0.950 . S
C861 C860 1.334 . S
C861 C862 1.287 . S
C862 C861 1.287 . S
C862 C863 1.524 . S
C862 H881 0.913 . S
C863 H839 0.950 . S
C863 C862 1.524 . S
C863 C864 1.415 . S
C864 H840 0.950 . S
C864 C859 1.363 . S
C864 C863 1.415 . S
C865 H841 0.951 . S
C865 C866 1.366 . S
C865 C867 1.388 . S
C866 C865 1.366 . S
C866 C870 1.385 . S
C867 H842 0.951 . S
C867 C865 1.388 . S
C867 C868 1.366 1_556 S
C868 C867 1.366 1_554 S
C868 C869 1.414 . S
C868 C871 1.499 . S
C869 H843 0.950 1_455 S
C869 C868 1.414 . S
C869 C870 1.374 1_554 S
C870 H844 0.950 . S
C870 C866 1.385 . S
C870 C869 1.374 1_556 S
C871 C868 1.499 . S
C871 C872 1.373 . S
C871 C873 1.389 . S
C872 H845 0.950 1_455 S
C872 C858 1.377 1_455 S
C872 C871 1.373 . S
C873 C857 1.377 . S
C873 C871 1.389 . S
C873 C874 1.524 . S
C874 C873 1.524 . S
C874 C875 1.397 . S
C874 C879 1.363 . S
C875 H846 0.950 . S
C875 C874 1.397 . S
C875 C876 1.334 . S
C876 H847 0.950 . S
C876 C875 1.334 . S
C876 C877 1.287 . S
C877 C876 1.287 . S
C877 C878 1.524 . S
C877 H880 0.999 . S
C878 H848 0.950 . S
C878 C877 1.524 . S
C878 C879 1.415 . S
C879 H849 0.950 . S
C879 C874 1.363 . S
C879 C878 1.415 . S
H880 C877 0.999 . S
H881 C862 0.913 . S
H882 C900 0.951 . S
H883 C902 0.951 . S
H884 C904 0.950 . S
H885 C905 0.950 . S
H886 C907 0.950 . S
H887 C910 0.950 . S
H888 C911 0.950 . S
H889 C913 0.950 . S
H890 C914 0.950 . S
H891 C915 0.951 1_554 S
H892 C917 0.951 . S
H893 C919 0.950 . S
H894 C920 0.950 . S
H895 C922 0.950 . S
H896 C925 0.950 . S
H897 C926 0.950 . S
H898 C928 0.950 . S
H899 C929 0.950 . S
C900 H882 0.951 . S
C900 C901 1.366 1_545 S
C900 C902 1.388 . S
C901 C900 1.366 1_565 S
C901 C905 1.385 . S
C902 H883 0.951 . S
C902 C900 1.388 . S
C902 C903 1.366 . S
C903 C902 1.366 . S
C903 C904 1.414 1_545 S
C903 C906 1.499 . S
C904 H884 0.950 . S
C904 C903 1.414 1_565 S
C904 C905 1.374 . S
C905 H885 0.950 . S
C905 C901 1.385 . S
C905 C904 1.374 . S
C906 C903 1.499 . S
C906 C907 1.373 1_545 S
C906 C908 1.389 . S
C907 H886 0.950 . S
C907 C906 1.373 1_565 S
C907 C923 1.379 . S
C908 C906 1.389 . S
C908 C909 1.524 . S
C908 C922 1.377 . S
C909 C908 1.524 . S
C909 C910 1.397 . S
C909 C914 1.363 . S
C910 H887 0.950 . S
C910 C909 1.397 . S
C910 C911 1.334 . S
C911 H888 0.950 . S
C911 C910 1.334 . S
C911 C912 1.287 . S
C912 C911 1.287 . S
C912 C913 1.524 . S
C912 H931 0.913 . S
C913 H889 0.950 . S
C913 C912 1.524 . S
C913 C914 1.415 . S
C914 H890 0.950 . S
C914 C909 1.363 . S
C914 C913 1.415 . S
C915 H891 0.951 1_556 S
C915 C916 1.366 . S
C915 C917 1.388 1_556 S
C916 C915 1.366 . S
C916 C920 1.385 . S
C917 H892 0.951 . S
C917 C915 1.388 1_554 S
C917 C918 1.366 . S
C918 C917 1.366 . S
C918 C919 1.414 1_554 S
C918 C921 1.499 . S
C919 H893 0.950 . S
C919 C918 1.414 1_556 S
C919 C920 1.374 . S
C920 H894 0.950 . S
C920 C916 1.385 . S
C920 C919 1.374 . S
C921 C918 1.499 . S
C921 C922 1.373 . S
C921 C923 1.374 1_545 S
C922 H895 0.950 . S
C922 C908 1.377 . S
C922 C921 1.373 . S
C923 C907 1.379 . S
C923 C921 1.374 1_565 S
C923 C924 1.538 . S
C924 C923 1.538 . S
C924 C925 1.397 1_554 S
C924 C929 1.363 . S
C925 H896 0.950 . S
C925 C924 1.397 1_556 S
C925 C926 1.334 . S
C926 H897 0.950 . S
C926 C925 1.334 . S
C926 C927 1.287 . S
C927 C926 1.287 . S
C927 C928 1.524 1_556 S
C927 H930 0.999 . S
C928 H898 0.950 . S
C928 C927 1.524 1_554 S
C928 C929 1.415 . S
C929 H899 0.950 . S
C929 C924 1.363 . S
C929 C928 1.415 . S
H930 C927 0.999 . S
H931 C912 0.913 . S
H932 C950 0.951 . S
H933 C952 0.951 . S
H934 C954 0.950 . S
H935 C955 0.950 . S
H936 C957 0.950 . S
H937 C960 0.950 . S
H938 C961 0.950 . S
H939 C963 0.950 . S
H940 C964 0.950 . S
H941 C965 0.951 . S
H942 C967 0.951 . S
H943 C969 0.950 . S
H944 C970 0.950 . S
H945 C972 0.950 . S
H946 C975 0.950 . S
H947 C976 0.950 . S
H948 C978 0.950 . S
H949 C979 0.950 . S
C950 H932 0.951 . S
C950 C951 1.366 . S
C950 C952 1.388 . S
C951 C950 1.366 . S
C951 C955 1.385 . S
C952 H933 0.951 . S
C952 C950 1.388 . S
C952 C953 1.366 . S
C953 C952 1.366 . S
C953 C954 1.414 . S
C953 C956 1.499 . S
C954 H934 0.950 . S
C954 C953 1.414 . S
C954 C955 1.374 . S
C955 H935 0.950 . S
C955 C951 1.385 . S
C955 C954 1.374 . S
C956 C953 1.499 . S
C956 C957 1.373 . S
C956 C958 1.389 . S
C957 H936 0.950 . S
C957 C956 1.373 . S
C957 C973 1.377 . S
C958 C956 1.389 . S
C958 C959 1.524 . S
C958 C972 1.377 . S
C959 C958 1.524 . S
C959 C960 1.397 . S
C959 C964 1.363 . S
C960 H937 0.950 . S
C960 C959 1.397 . S
C960 C961 1.334 . S
C961 H938 0.950 . S
C961 C960 1.334 . S
C961 C962 1.287 . S
C962 C961 1.287 . S
C962 C963 1.524 . S
C962 H981 0.913 . S
C963 H939 0.950 . S
C963 C962 1.524 . S
C963 C964 1.415 . S
C964 H940 0.950 . S
C964 C959 1.363 . S
C964 C963 1.415 . S
C965 H941 0.951 . S
C965 C966 1.366 . S
C965 C967 1.388 . S
C966 C965 1.366 . S
C966 C970 1.385 1_556 S
C967 H942 0.951 . S
C967 C965 1.388 . S
C967 C968 1.366 1_556 S
C968 C967 1.366 1_554 S
C968 C969 1.414 . S
C968 C971 1.499 . S
C969 H943 0.950 . S
C969 C968 1.414 . S
C969 C970 1.374 . S
C970 H944 0.950 . S
C970 C966 1.385 1_554 S
C970 C969 1.374 . S
C971 C968 1.499 . S
C971 C972 1.373 . S
C971 C973 1.389 . S
C972 H945 0.950 . S
C972 C958 1.377 . S
C972 C971 1.373 . S
C973 C957 1.377 . S
C973 C971 1.389 . S
C973 C974 1.524 1_554 S
C974 C973 1.524 1_556 S
C974 C975 1.397 . S
C974 C979 1.363 . S
C975 H946 0.950 . S
C975 C974 1.397 . S
C975 C976 1.334 . S
C976 H947 0.950 . S
C976 C975 1.334 . S
C976 C977 1.287 . S
C977 C976 1.287 . S
C977 C978 1.524 . S
C977 H980 0.999 . S
C978 H948 0.950 . S
C978 C977 1.524 . S
C978 C979 1.415 . S
C979 H949 0.950 . S
C979 C974 1.363 . S
C979 C978 1.415 . S
H980 C977 0.999 . S
H981 C962 0.913 . S
H982 C1000 0.951 . S
H983 C1002 0.951 . S
H984 C1004 0.950 . S
H985 C1005 0.950 . S
H986 C1007 0.950 . S
H987 C1010 0.950 . S
H988 C1011 0.950 . S
H989 C1013 0.950 . S
H990 C1014 0.951 1_556 S
H991 C1015 0.951 . S
H992 C1017 0.951 . S
H993 C1019 0.950 . S
H994 C1020 0.950 . S
H995 C1022 0.950 . S
H996 C1025 0.950 . S
H997 C1026 0.950 . S
H998 C1028 0.950 . S
H999 C1029 0.950 . S
C1000 H982 0.951 . S
C1000 C1001 1.366 . S
C1000 C1002 1.388 . S
C1001 C1000 1.366 . S
C1001 C1005 1.385 . S
C1002 H983 0.951 . S
C1002 C1000 1.388 . S
C1002 C1003 1.366 . S
C1003 C1002 1.366 . S
C1003 C1004 1.414 . S
C1003 C1006 1.499 . S
C1004 H984 0.950 . S
C1004 C1003 1.414 . S
C1004 C1005 1.374 . S
C1005 H985 0.950 . S
C1005 C1001 1.385 . S
C1005 C1004 1.374 . S
C1006 C1003 1.499 . S
C1006 C1007 1.373 . S
C1006 C1008 1.389 . S
C1007 H986 0.950 . S
C1007 C1006 1.373 . S
C1007 C1023 1.377 . S
C1008 C1006 1.389 . S
C1008 C1009 1.524 . S
C1008 C1022 1.377 . S
C1009 C1008 1.524 . S
C1009 C1010 1.397 . S
C1009 C1014 1.362 . S
C1010 H987 0.950 . S
C1010 C1009 1.397 . S
C1010 C1011 1.334 . S
C1011 H988 0.950 . S
C1011 C1010 1.334 . S
C1011 C1012 1.287 . S
C1012 C1011 1.287 . S
C1012 C1013 1.524 1_554 S
C1012 H1031 0.913 . S
C1013 H989 0.950 . S
C1013 C1012 1.524 1_556 S
C1013 C1014 1.415 1_556 S
C1014 H990 0.951 1_554 S
C1014 C1009 1.362 . S
C1014 C1013 1.415 1_554 S
C1015 H991 0.951 . S
C1015 C1016 1.366 1_554 S
C1015 C1017 1.388 . S
C1016 C1015 1.366 1_556 S
C1016 C1020 1.385 . S
C1017 H992 0.951 . S
C1017 C1015 1.388 . S
C1017 C1018 1.366 . S
C1018 C1017 1.366 . S
C1018 C1019 1.414 1_554 S
C1018 C1021 1.499 . S
C1019 H993 0.950 . S
C1019 C1018 1.414 1_556 S
C1019 C1020 1.374 . S
C1020 H994 0.950 . S
C1020 C1016 1.385 . S
C1020 C1019 1.374 . S
C1021 C1018 1.499 . S
C1021 C1022 1.373 . S
C1021 C1023 1.389 . S
C1022 H995 0.950 . S
C1022 C1008 1.377 . S
C1022 C1021 1.373 . S
C1023 C1007 1.377 . S
C1023 C1021 1.389 . S
C1023 C1024 1.524 . S
C1024 C1023 1.524 . S
C1024 C1025 1.397 . S
C1024 C1029 1.363 . S
C1025 H996 0.950 . S
C1025 C1024 1.397 . S
C1025 C1026 1.334 . S
C1026 H997 0.950 . S
C1026 C1025 1.334 . S
C1026 C1027 1.287 . S
C1027 C1026 1.287 . S
C1027 C1028 1.524 . S
C1027 H1030 0.999 . S
C1028 H998 0.950 . S
C1028 C1027 1.524 . S
C1028 C1029 1.415 . S
C1029 H999 0.950 . S
C1029 C1024 1.363 . S
C1029 C1028 1.415 . S
H1030 C1027 0.999 . S
H1031 C1012 0.913 . S
H1032 C1050 0.952 1_554 S
H1033 C1052 0.952 . S
H1034 C1054 0.950 . S
H1035 C1055 0.950 . S
H1036 C1057 0.950 . S
H1037 C1060 0.950 . S
H1038 C1061 0.950 . S
H1039 C1063 0.950 . S
H1040 C1064 0.950 . S
H1041 C1065 0.951 . S
H1042 C1067 0.951 . S
H1043 C1069 0.950 . S
H1044 C1070 0.950 . S
H1045 C1072 0.950 . S
H1046 C1075 0.950 . S
H1047 C1076 0.950 . S
H1048 C1078 0.950 . S
H1049 C1079 0.950 . S
C1050 H1032 0.952 1_556 S
C1050 C1051 1.365 1_655 S
C1050 C1052 1.387 1_655 S
C1051 C1050 1.365 1_455 S
C1051 C1055 1.385 . S
C1052 H1033 0.952 . S
C1052 C1050 1.387 1_455 S
C1052 C1053 1.366 . S
C1053 C1052 1.366 . S
C1053 C1054 1.414 . S
C1053 C1056 1.499 . S
C1054 H1034 0.950 . S
C1054 C1053 1.414 . S
C1054 C1055 1.374 . S
C1055 H1035 0.950 . S
C1055 C1051 1.385 . S
C1055 C1054 1.374 . S
C1056 C1053 1.499 . S
C1056 C1057 1.373 1_455 S
C1056 C1058 1.389 . S
C1057 H1036 0.950 . S
C1057 C1056 1.373 1_655 S
C1057 C1073 1.377 . S
C1058 C1056 1.389 . S
C1058 C1059 1.524 . S
C1058 C1072 1.377 . S
C1059 C1058 1.524 . S
C1059 C1060 1.397 . S
C1059 C1064 1.363 1_556 S
C1060 H1037 0.950 . S
C1060 C1059 1.397 . S
C1060 C1061 1.334 . S
C1061 H1038 0.950 . S
C1061 C1060 1.334 . S
C1061 C1062 1.287 1_556 S
C1062 C1061 1.287 1_554 S
C1062 C1063 1.524 . S
C1062 H1081 0.913 . S
C1063 H1039 0.950 . S
C1063 C1062 1.524 . S
C1063 C1064 1.415 . S
C1064 H1040 0.950 . S
C1064 C1059 1.363 1_554 S
C1064 C1063 1.415 . S
C1065 H1041 0.951 . S
C1065 C1066 1.366 . S
C1065 C1067 1.388 . S
C1066 C1065 1.366 . S
C1066 C1070 1.385 . S
C1067 H1042 0.951 . S
C1067 C1065 1.388 . S
C1067 C1068 1.366 . S
C1068 C1067 1.366 . S
C1068 C1069 1.414 . S
C1068 C1071 1.499 . S
C1069 H1043 0.950 . S
C1069 C1068 1.414 . S
C1069 C1070 1.374 . S
C1070 H1044 0.950 . S
C1070 C1066 1.385 . S
C1070 C1069 1.374 . S
C1071 C1068 1.499 . S
C1071 C1072 1.373 . S
C1071 C1073 1.389 1_455 S
C1072 H1045 0.950 . S
C1072 C1058 1.377 . S
C1072 C1071 1.373 . S
C1073 C1057 1.377 . S
C1073 C1071 1.389 1_655 S
C1073 C1074 1.524 . S
C1074 C1073 1.524 . S
C1074 C1075 1.397 . S
C1074 C1079 1.363 . S
C1075 H1046 0.950 . S
C1075 C1074 1.397 . S
C1075 C1076 1.334 . S
C1076 H1047 0.950 . S
C1076 C1075 1.334 . S
C1076 C1077 1.287 . S
C1077 C1076 1.287 . S
C1077 C1078 1.524 . S
C1077 H1080 0.999 . S
C1078 H1048 0.950 . S
C1078 C1077 1.524 . S
C1078 C1079 1.415 . S
C1079 H1049 0.950 . S
C1079 C1074 1.363 . S
C1079 C1078 1.415 . S
H1080 C1077 0.999 . S
H1081 C1062 0.913 . S
H1082 C1100 0.951 1_554 S
H1083 C1102 0.951 . S
H1084 C1104 0.950 . S
H1085 C1105 0.950 . S
H1086 C1107 0.950 . S
H1087 C1110 0.950 . S
H1088 C1111 0.950 . S
H1089 C1113 0.950 . S
H1090 C1114 0.950 1_554 S
H1091 C1115 0.951 . S
H1092 C1117 0.951 . S
H1093 C1119 0.950 . S
H1094 C1120 0.950 . S
H1095 C1122 0.950 . S
H1096 C1125 0.950 . S
H1097 C1126 0.950 . S
H1098 C1128 0.950 . S
H1099 C1129 0.950 . S
C1100 H1082 0.951 1_556 S
C1100 C1101 1.366 . S
C1100 C1102 1.388 . S
C1101 C1100 1.366 . S
C1101 C1105 1.385 . S
C1102 H1083 0.951 . S
C1102 C1100 1.388 . S
C1102 C1103 1.366 . S
C1103 C1102 1.366 . S
C1103 C1104 1.414 . S
C1103 C1106 1.499 . S
C1104 H1084 0.950 . S
C1104 C1103 1.414 . S
C1104 C1105 1.374 . S
C1105 H1085 0.950 . S
C1105 C1101 1.385 . S
C1105 C1104 1.374 . S
C1106 C1103 1.499 . S
C1106 C1107 1.373 1_545 S
C1106 C1108 1.389 . S
C1107 H1086 0.950 . S
C1107 C1106 1.373 1_565 S
C1107 C1123 1.377 . S
C1108 C1106 1.389 . S
C1108 C1109 1.524 . S
C1108 C1122 1.377 . S
C1109 C1108 1.524 . S
C1109 C1110 1.397 . S
C1109 C1114 1.363 . S
C1110 H1087 0.950 . S
C1110 C1109 1.397 . S
C1110 C1111 1.334 . S
C1111 H1088 0.950 . S
C1111 C1110 1.334 . S
C1111 C1112 1.287 1_556 S
C1112 C1111 1.287 1_554 S
C1112 C1113 1.524 . S
C1112 H1131 0.913 . S
C1113 H1089 0.950 . S
C1113 C1112 1.524 . S
C1113 C1114 1.415 1_554 S
C1114 H1090 0.950 1_556 S
C1114 C1109 1.363 . S
C1114 C1113 1.415 1_556 S
C1115 H1091 0.951 . S
C1115 C1116 1.366 . S
C1115 C1117 1.388 . S
C1116 C1115 1.366 . S
C1116 C1120 1.385 . S
C1117 H1092 0.951 . S
C1117 C1115 1.388 . S
C1117 C1118 1.366 . S
C1118 C1117 1.366 . S
C1118 C1119 1.414 . S
C1118 C1121 1.499 . S
C1119 H1093 0.950 . S
C1119 C1118 1.414 . S
C1119 C1120 1.374 . S
C1120 H1094 0.950 . S
C1120 C1116 1.385 . S
C1120 C1119 1.374 . S
C1121 C1118 1.499 . S
C1121 C1122 1.373 . S
C1121 C1123 1.389 1_545 S
C1122 H1095 0.950 . S
C1122 C1108 1.377 . S
C1122 C1121 1.373 . S
C1123 C1107 1.377 . S
C1123 C1121 1.389 1_565 S
C1123 C1124 1.524 . S
C1124 C1123 1.524 . S
C1124 C1125 1.397 . S
C1124 C1129 1.363 . S
C1125 H1096 0.950 . S
C1125 C1124 1.397 . S
C1125 C1126 1.334 . S
C1126 H1097 0.950 . S
C1126 C1125 1.334 . S
C1126 C1127 1.287 . S
C1127 C1126 1.287 . S
C1127 C1128 1.524 . S
C1127 H1130 0.999 . S
C1128 H1098 0.950 . S
C1128 C1127 1.524 . S
C1128 C1129 1.415 . S
C1129 H1099 0.950 . S
C1129 C1124 1.363 . S
C1129 C1128 1.415 . S
H1130 C1127 0.999 . S
H1131 C1112 0.913 . S
H1132 C1150 0.951 . S
H1133 C1152 0.951 . S
H1134 C1154 0.950 . S
H1135 C1155 0.950 . S
H1136 C1157 0.950 . S
H1137 C1160 0.950 . S
H1138 C1161 0.950 . S
H1139 C1163 0.950 . S
H1140 C1164 0.950 . S
H1141 C1165 0.951 . S
H1142 C1167 0.951 . S
H1143 C1169 0.950 . S
H1144 C1170 0.950 . S
H1145 C1172 0.950 . S
H1146 C1175 0.950 . S
H1147 C1176 0.950 1_554 S
H1148 C1178 0.950 . S
H1149 C1179 0.950 . S
C1150 H1132 0.951 . S
C1150 C1151 1.366 . S
C1150 C1152 1.388 . S
C1151 C1150 1.366 . S
C1151 C1155 1.385 . S
C1152 H1133 0.951 . S
C1152 C1150 1.388 . S
C1152 C1153 1.366 . S
C1153 C1152 1.366 . S
C1153 C1154 1.414 . S
C1153 C1156 1.499 . S
C1154 H1134 0.950 . S
C1154 C1153 1.414 . S
C1154 C1155 1.374 . S
C1155 H1135 0.950 . S
C1155 C1151 1.385 . S
C1155 C1154 1.374 . S
C1156 C1153 1.499 . S
C1156 C1157 1.373 . S
C1156 C1158 1.389 . S
C1157 H1136 0.950 . S
C1157 C1156 1.373 . S
C1157 C1173 1.377 . S
C1158 C1156 1.389 . S
C1158 C1159 1.524 . S
C1158 C1172 1.377 . S
C1159 C1158 1.524 . S
C1159 C1160 1.397 . S
C1159 C1164 1.363 . S
C1160 H1137 0.950 . S
C1160 C1159 1.397 . S
C1160 C1161 1.334 . S
C1161 H1138 0.950 . S
C1161 C1160 1.334 . S
C1161 C1162 1.287 . S
C1162 C1161 1.287 . S
C1162 C1163 1.524 . S
C1162 H1181 0.913 . S
C1163 H1139 0.950 . S
C1163 C1162 1.524 . S
C1163 C1164 1.415 . S
C1164 H1140 0.950 . S
C1164 C1159 1.363 . S
C1164 C1163 1.415 . S
C1165 H1141 0.951 . S
C1165 C1166 1.366 . S
C1165 C1167 1.388 . S
C1166 C1165 1.366 . S
C1166 C1170 1.385 . S
C1167 H1142 0.951 . S
C1167 C1165 1.388 . S
C1167 C1168 1.366 . S
C1168 C1167 1.366 . S
C1168 C1169 1.414 . S
C1168 C1171 1.499 . S
C1169 H1143 0.950 . S
C1169 C1168 1.414 . S
C1169 C1170 1.374 . S
C1170 H1144 0.950 . S
C1170 C1166 1.385 . S
C1170 C1169 1.374 . S
C1171 C1168 1.499 . S
C1171 C1172 1.373 . S
C1171 C1173 1.389 . S
C1172 H1145 0.950 . S
C1172 C1158 1.377 . S
C1172 C1171 1.373 . S
C1173 C1157 1.377 . S
C1173 C1171 1.389 . S
C1173 C1174 1.524 . S
C1174 C1173 1.524 . S
C1174 C1175 1.397 . S
C1174 C1179 1.363 . S
C1175 H1146 0.950 . S
C1175 C1174 1.397 . S
C1175 C1176 1.334 . S
C1176 H1147 0.950 1_556 S
C1176 C1175 1.334 . S
C1176 C1177 1.287 . S
C1177 C1176 1.287 . S
C1177 C1178 1.524 . S
C1177 H1180 0.999 1_556 S
C1178 H1148 0.950 . S
C1178 C1177 1.524 . S
C1178 C1179 1.415 . S
C1179 H1149 0.950 . S
C1179 C1174 1.363 . S
C1179 C1178 1.415 . S
H1180 C1177 0.999 1_554 S
H1181 C1162 0.913 . S
H1182 C1200 0.951 . S
H1183 C1202 0.951 . S
H1184 C1204 0.950 . S
H1185 C1205 0.950 1_554 S
H1186 C1207 0.950 . S
H1187 C1210 0.950 . S
H1188 C1211 0.950 . S
H1189 C1213 0.950 . S
H1190 C1214 0.950 . S
H1191 C1215 0.951 . S
H1192 C1217 0.951 . S
H1193 C1219 0.950 . S
H1194 C1220 0.950 . S
H1195 C1222 0.950 . S
H1196 C1225 0.950 . S
H1197 C1226 0.950 . S
H1198 C1228 0.950 . S
H1199 C1229 0.950 1_554 S
C1200 H1182 0.951 . S
C1200 C1201 1.366 . S
C1200 C1202 1.388 . S
C1201 C1200 1.366 . S
C1201 C1205 1.385 . S
C1202 H1183 0.951 . S
C1202 C1200 1.388 . S
C1202 C1203 1.366 . S
C1203 C1202 1.366 . S
C1203 C1204 1.414 . S
C1203 C1206 1.499 . S
C1204 H1184 0.950 . S
C1204 C1203 1.414 . S
C1204 C1205 1.374 . S
C1205 H1185 0.950 1_556 S
C1205 C1201 1.385 . S
C1205 C1204 1.374 . S
C1206 C1203 1.499 . S
C1206 C1207 1.373 . S
C1206 C1208 1.389 . S
C1207 H1186 0.950 . S
C1207 C1206 1.373 . S
C1207 C1223 1.377 . S
C1208 C1206 1.389 . S
C1208 C1209 1.524 . S
C1208 C1222 1.377 . S
C1209 C1208 1.524 . S
C1209 C1210 1.397 . S
C1209 C1214 1.363 . S
C1210 H1187 0.950 . S
C1210 C1209 1.397 . S
C1210 C1211 1.334 . S
C1211 H1188 0.950 . S
C1211 C1210 1.334 . S
C1211 C1212 1.287 . S
C1212 C1211 1.287 . S
C1212 C1213 1.524 . S
C1212 H1231 0.913 . S
C1213 H1189 0.950 . S
C1213 C1212 1.524 . S
C1213 C1214 1.415 . S
C1214 H1190 0.950 . S
C1214 C1209 1.363 . S
C1214 C1213 1.415 . S
C1215 H1191 0.951 . S
C1215 C1216 1.366 . S
C1215 C1217 1.388 . S
C1216 C1215 1.366 . S
C1216 C1220 1.385 . S
C1217 H1192 0.951 . S
C1217 C1215 1.388 . S
C1217 C1218 1.366 . S
C1218 C1217 1.366 . S
C1218 C1219 1.414 . S
C1218 C1221 1.499 . S
C1219 H1193 0.950 . S
C1219 C1218 1.414 . S
C1219 C1220 1.374 . S
C1220 H1194 0.950 . S
C1220 C1216 1.385 . S
C1220 C1219 1.374 . S
C1221 C1218 1.499 . S
C1221 C1222 1.373 . S
C1221 C1223 1.389 . S
C1222 H1195 0.950 . S
C1222 C1208 1.377 . S
C1222 C1221 1.373 . S
C1223 C1207 1.377 . S
C1223 C1221 1.389 . S
C1223 C1224 1.524 . S
C1224 C1223 1.524 . S
C1224 C1225 1.397 . S
C1224 C1229 1.363 . S
C1225 H1196 0.950 . S
C1225 C1224 1.397 . S
C1225 C1226 1.334 . S
C1226 H1197 0.950 . S
C1226 C1225 1.334 . S
C1226 C1227 1.287 . S
C1227 C1226 1.287 . S
C1227 C1228 1.524 1_556 S
C1227 H1230 0.999 1_556 S
C1228 H1198 0.950 . S
C1228 C1227 1.524 1_554 S
C1228 C1229 1.415 1_554 S
C1229 H1199 0.950 1_556 S
C1229 C1224 1.363 . S
C1229 C1228 1.415 1_556 S
H1230 C1227 0.999 1_554 S
H1231 C1212 0.913 . S
H1232 C1250 0.951 . S
H1233 C1252 0.951 . S
H1234 C1254 0.950 . S
H1235 C1255 0.950 . S
H1236 C1257 0.950 . S
H1237 C1260 0.950 . S
H1238 C1261 0.950 . S
H1239 C1263 0.950 . S
H1240 C1264 0.950 . S
H1241 C1265 0.951 . S
H1242 C1267 0.951 . S
H1243 C1269 0.950 . S
H1244 C1270 0.950 . S
H1245 C1272 0.950 . S
H1246 C1275 0.950 1_655 S
H1247 C1276 0.950 . S
H1248 C1278 0.950 . S
H1249 C1279 0.950 . S
C1250 H1232 0.951 . S
C1250 C1251 1.366 . S
C1250 C1252 1.388 . S
C1251 C1250 1.366 . S
C1251 C1255 1.385 1_655 S
C1252 H1233 0.951 . S
C1252 C1250 1.388 . S
C1252 C1253 1.366 . S
C1253 C1252 1.366 . S
C1253 C1254 1.414 1_655 S
C1253 C1256 1.499 . S
C1254 H1234 0.950 . S
C1254 C1253 1.414 1_455 S
C1254 C1255 1.374 . S
C1255 H1235 0.950 . S
C1255 C1251 1.385 1_455 S
C1255 C1254 1.374 . S
C1256 C1253 1.499 . S
C1256 C1257 1.373 1_655 S
C1256 C1258 1.389 . S
C1257 H1236 0.950 . S
C1257 C1256 1.373 1_455 S
C1257 C1273 1.377 . S
C1258 C1256 1.389 . S
C1258 C1259 1.524 . S
C1258 C1272 1.377 . S
C1259 C1258 1.524 . S
C1259 C1260 1.397 . S
C1259 C1264 1.363 . S
C1260 H1237 0.950 . S
C1260 C1259 1.397 . S
C1260 C1261 1.334 . S
C1261 H1238 0.950 . S
C1261 C1260 1.334 . S
C1261 C1262 1.287 . S
C1262 C1261 1.287 . S
C1262 C1263 1.524 . S
C1262 H1281 0.913 . S
C1263 H1239 0.950 . S
C1263 C1262 1.524 . S
C1263 C1264 1.415 . S
C1264 H1240 0.950 . S
C1264 C1259 1.363 . S
C1264 C1263 1.415 . S
C1265 H1241 0.951 . S
C1265 C1266 1.366 1_455 S
C1265 C1267 1.388 . S
C1266 C1265 1.366 1_655 S
C1266 C1270 1.385 . S
C1267 H1242 0.951 . S
C1267 C1265 1.388 . S
C1267 C1268 1.366 1_455 S
C1268 C1267 1.366 1_655 S
C1268 C1269 1.414 . S
C1268 C1271 1.499 . S
C1269 H1243 0.950 . S
C1269 C1268 1.414 . S
C1269 C1270 1.374 . S
C1270 H1244 0.950 . S
C1270 C1266 1.385 . S
C1270 C1269 1.374 . S
C1271 C1268 1.499 . S
C1271 C1272 1.373 . S
C1271 C1273 1.389 1_655 S
C1272 H1245 0.950 . S
C1272 C1258 1.377 . S
C1272 C1271 1.373 . S
C1273 C1257 1.377 . S
C1273 C1271 1.389 1_455 S
C1273 C1274 1.524 . S
C1274 C1273 1.524 . S
C1274 C1275 1.397 . S
C1274 C1279 1.363 . S
C1275 H1246 0.950 1_455 S
C1275 C1274 1.397 . S
C1275 C1276 1.334 . S
C1276 H1247 0.950 . S
C1276 C1275 1.334 . S
C1276 C1277 1.287 . S
C1277 C1276 1.287 . S
C1277 C1278 1.524 . S
C1277 H1280 0.999 . S
C1278 H1248 0.950 . S
C1278 C1277 1.524 . S
C1278 C1279 1.415 . S
C1279 H1249 0.950 . S
C1279 C1274 1.363 . S
C1279 C1278 1.415 . S
H1280 C1277 0.999 . S
H1281 C1262 0.913 . S
H1282 C1300 0.951 . S
H1283 C1302 0.951 . S
H1284 C1304 0.950 . S
H1285 C1305 0.950 . S
H1286 C1307 0.950 . S
H1287 C1310 0.950 . S
H1288 C1311 0.950 . S
H1289 C1313 0.950 . S
H1290 C1314 0.950 . S
H1291 C1315 0.951 . S
H1292 C1317 0.951 . S
H1293 C1319 0.950 1_545 S
H1294 C1320 0.950 . S
H1295 C1322 0.950 . S
H1296 C1325 0.950 . S
H1297 C1326 0.950 . S
H1298 C1328 0.950 . S
H1299 C1329 0.950 . S
C1300 H1282 0.951 . S
C1300 C1301 1.357 1_545 S
C1300 C1302 1.388 . S
C1301 C1300 1.357 1_565 S
C1301 C1305 1.399 . S
C1302 H1283 0.951 . S
C1302 C1300 1.388 . S
C1302 C1303 1.366 1_545 S
C1303 C1302 1.366 1_565 S
C1303 C1304 1.414 . S
C1303 C1306 1.499 . S
C1304 H1284 0.950 . S
C1304 C1303 1.414 . S
C1304 C1305 1.374 . S
C1305 H1285 0.950 . S
C1305 C1301 1.399 . S
C1305 C1304 1.374 . S
C1306 C1303 1.499 . S
C1306 C1307 1.373 1_565 S
C1306 C1308 1.389 . S
C1307 H1286 0.950 . S
C1307 C1306 1.373 1_545 S
C1307 C1323 1.377 . S
C1308 C1306 1.389 . S
C1308 C1309 1.524 . S
C1308 C1322 1.377 . S
C1309 C1308 1.524 . S
C1309 C1310 1.397 . S
C1309 C1314 1.363 . S
C1310 H1287 0.950 . S
C1310 C1309 1.397 . S
C1310 C1311 1.334 . S
C1311 H1288 0.950 . S
C1311 C1310 1.334 . S
C1311 C1312 1.287 . S
C1312 C1311 1.287 . S
C1312 C1313 1.524 . S
C1312 H1331 0.913 . S
C1313 H1289 0.950 . S
C1313 C1312 1.524 . S
C1313 C1314 1.415 . S
C1314 H1290 0.950 . S
C1314 C1309 1.363 . S
C1314 C1313 1.415 . S
C1315 H1291 0.951 . S
C1315 C1316 1.366 . S
C1315 C1317 1.388 . S
C1316 C1315 1.366 . S
C1316 C1320 1.385 . S
C1317 H1292 0.951 . S
C1317 C1315 1.388 . S
C1317 C1318 1.366 . S
C1318 C1317 1.366 . S
C1318 C1319 1.414 . S
C1318 C1321 1.499 . S
C1319 H1293 0.950 1_565 S
C1319 C1318 1.414 . S
C1319 C1320 1.374 . S
C1320 H1294 0.950 . S
C1320 C1316 1.385 . S
C1320 C1319 1.374 . S
C1321 C1318 1.499 . S
C1321 C1322 1.373 . S
C1321 C1323 1.389 1_565 S
C1322 H1295 0.950 . S
C1322 C1308 1.377 . S
C1322 C1321 1.373 . S
C1323 C1307 1.377 . S
C1323 C1321 1.389 1_545 S
C1323 C1324 1.524 . S
C1324 C1323 1.524 . S
C1324 C1325 1.397 . S
C1324 C1329 1.363 . S
C1325 H1296 0.950 . S
C1325 C1324 1.397 . S
C1325 C1326 1.334 . S
C1326 H1297 0.950 . S
C1326 C1325 1.334 . S
C1326 C1327 1.287 . S
C1327 C1326 1.287 . S
C1327 C1328 1.524 . S
C1327 H1330 0.999 . S
C1328 H1298 0.950 . S
C1328 C1327 1.524 . S
C1328 C1329 1.415 . S
C1329 H1299 0.950 . S
C1329 C1324 1.363 . S
C1329 C1328 1.415 . S
H1330 C1327 0.999 . S
H1331 C1312 0.913 . S
H1332 C1350 0.951 . S
H1333 C1352 0.951 . S
H1334 C1354 0.950 . S
H1335 C1355 0.950 . S
H1336 C1357 0.950 . S
H1337 C1360 0.950 . S
H1338 C1361 0.950 . S
H1339 C1363 0.950 . S
H1340 C1364 0.950 . S
H1341 C1365 0.951 . S
H1342 C1367 0.951 . S
H1343 C1369 0.950 . S
H1344 C1370 0.950 . S
H1345 C1372 0.950 . S
H1346 C1375 0.950 . S
H1347 C1376 0.950 . S
H1348 C1378 0.950 . S
H1349 C1379 0.950 . S
C1350 H1332 0.951 . S
C1350 C1351 1.366 . S
C1350 C1352 1.388 . S
C1351 C1350 1.366 . S
C1351 C1355 1.385 . S
C1352 H1333 0.951 . S
C1352 C1350 1.388 . S
C1352 C1353 1.366 . S
C1353 C1352 1.366 . S
C1353 C1354 1.414 . S
C1353 C1356 1.499 . S
C1354 H1334 0.950 . S
C1354 C1353 1.414 . S
C1354 C1355 1.374 . S
C1355 H1335 0.950 . S
C1355 C1351 1.385 . S
C1355 C1354 1.374 . S
C1356 C1353 1.499 . S
C1356 C1357 1.373 . S
C1356 C1358 1.389 . S
C1357 H1336 0.950 . S
C1357 C1356 1.373 . S
C1357 C1373 1.377 . S
C1358 C1356 1.389 . S
C1358 C1359 1.524 . S
C1358 C1372 1.377 . S
C1359 C1358 1.524 . S
C1359 C1360 1.397 . S
C1359 C1364 1.363 . S
C1360 H1337 0.950 . S
C1360 C1359 1.397 . S
C1360 C1361 1.334 . S
C1361 H1338 0.950 . S
C1361 C1360 1.334 . S
C1361 C1362 1.287 . S
C1362 C1361 1.287 . S
C1362 C1363 1.524 . S
C1362 H1381 0.913 . S
C1363 H1339 0.950 . S
C1363 C1362 1.524 . S
C1363 C1364 1.415 . S
C1364 H1340 0.950 . S
C1364 C1359 1.363 . S
C1364 C1363 1.415 . S
C1365 H1341 0.951 . S
C1365 C1366 1.366 . S
C1365 C1367 1.388 . S
C1366 C1365 1.366 . S
C1366 C1370 1.385 . S
C1367 H1342 0.951 . S
C1367 C1365 1.388 . S
C1367 C1368 1.366 . S
C1368 C1367 1.366 . S
C1368 C1369 1.414 . S
C1368 C1371 1.499 . S
C1369 H1343 0.950 . S
C1369 C1368 1.414 . S
C1369 C1370 1.374 . S
C1370 H1344 0.950 . S
C1370 C1366 1.385 . S
C1370 C1369 1.374 . S
C1371 C1368 1.499 . S
C1371 C1372 1.373 . S
C1371 C1373 1.389 . S
C1372 H1345 0.950 . S
C1372 C1358 1.377 . S
C1372 C1371 1.373 . S
C1373 C1357 1.377 . S
C1373 C1371 1.389 . S
C1373 C1374 1.524 . S
C1374 C1373 1.524 . S
C1374 C1375 1.397 . S
C1374 C1379 1.363 . S
C1375 H1346 0.950 . S
C1375 C1374 1.397 . S
C1375 C1376 1.334 . S
C1376 H1347 0.950 . S
C1376 C1375 1.334 . S
C1376 C1377 1.287 . S
C1377 C1376 1.287 . S
C1377 C1378 1.524 . S
C1377 H1380 0.999 . S
C1378 H1348 0.950 . S
C1378 C1377 1.524 . S
C1378 C1379 1.415 . S
C1379 H1349 0.950 . S
C1379 C1374 1.363 . S
C1379 C1378 1.415 . S
H1380 C1377 0.999 . S
H1381 C1362 0.913 . S
H1382 C1400 0.951 . S
H1383 C1402 0.951 . S
H1384 C1404 0.950 . S
H1385 C1405 0.950 . S
H1386 C1407 0.950 . S
H1387 C1410 0.950 . S
H1388 C1411 0.950 . S
H1389 C1413 0.950 . S
H1390 C1414 0.950 . S
H1391 C1415 0.951 . S
H1392 C1417 0.951 . S
H1393 C1419 0.950 . S
H1394 C1420 0.950 . S
H1395 C1422 0.950 . S
H1396 C1425 0.950 . S
H1397 C1426 0.950 . S
H1398 C1428 0.950 . S
H1399 C1429 0.950 . S
C1400 H1382 0.951 . S
C1400 C1401 1.366 . S
C1400 C1402 1.388 . S
C1401 C1400 1.366 . S
C1401 C1405 1.385 . S
C1402 H1383 0.951 . S
C1402 C1400 1.388 . S
C1402 C1403 1.366 . S
C1403 C1402 1.366 . S
C1403 C1404 1.414 . S
C1403 C1406 1.499 . S
C1404 H1384 0.950 . S
C1404 C1403 1.414 . S
C1404 C1405 1.374 . S
C1405 H1385 0.950 . S
C1405 C1401 1.385 . S
C1405 C1404 1.374 . S
C1406 C1403 1.499 . S
C1406 C1407 1.373 . S
C1406 C1408 1.389 . S
C1407 H1386 0.950 . S
C1407 C1406 1.373 . S
C1407 C1423 1.377 . S
C1408 C1406 1.389 . S
C1408 C1409 1.524 . S
C1408 C1422 1.377 . S
C1409 C1408 1.524 . S
C1409 C1410 1.397 . S
C1409 C1414 1.363 . S
C1410 H1387 0.950 . S
C1410 C1409 1.397 . S
C1410 C1411 1.334 . S
C1411 H1388 0.950 . S
C1411 C1410 1.334 . S
C1411 C1412 1.287 . S
C1412 C1411 1.287 . S
C1412 C1413 1.524 . S
C1412 H1431 0.913 . S
C1413 H1389 0.950 . S
C1413 C1412 1.524 . S
C1413 C1414 1.415 . S
C1414 H1390 0.950 . S
C1414 C1409 1.363 . S
C1414 C1413 1.415 . S
C1415 H1391 0.951 . S
C1415 C1416 1.366 . S
C1415 C1417 1.388 . S
C1416 C1415 1.366 . S
C1416 C1420 1.385 . S
C1417 H1392 0.951 . S
C1417 C1415 1.388 . S
C1417 C1418 1.366 . S
C1418 C1417 1.366 . S
C1418 C1419 1.414 . S
C1418 C1421 1.499 . S
C1419 H1393 0.950 . S
C1419 C1418 1.414 . S
C1419 C1420 1.374 . S
C1420 H1394 0.950 . S
C1420 C1416 1.385 . S
C1420 C1419 1.374 . S
C1421 C1418 1.499 . S
C1421 C1422 1.373 . S
C1421 C1423 1.389 . S
C1422 H1395 0.950 . S
C1422 C1408 1.377 . S
C1422 C1421 1.373 . S
C1423 C1407 1.377 . S
C1423 C1421 1.389 . S
C1423 C1424 1.524 . S
C1424 C1423 1.524 . S
C1424 C1425 1.397 . S
C1424 C1429 1.363 . S
C1425 H1396 0.950 . S
C1425 C1424 1.397 . S
C1425 C1426 1.334 . S
C1426 H1397 0.950 . S
C1426 C1425 1.334 . S
C1426 C1427 1.287 . S
C1427 C1426 1.287 . S
C1427 C1428 1.524 . S
C1427 H1430 0.999 . S
C1428 H1398 0.950 . S
C1428 C1427 1.524 . S
C1428 C1429 1.415 . S
C1429 H1399 0.950 . S
C1429 C1424 1.363 . S
C1429 C1428 1.415 . S
H1430 C1427 0.999 . S
H1431 C1412 0.913 . S
C251 C61 1.644 1_545 S
C266 C82 1.723 1_545 S
C316 C122 1.731 . S
C301 C70 1.650 . S
C366 C162 1.732 . S
C351 C43 1.647 . S
C416 C202 1.731 1_455 S
C401 C52 1.649 1_455 S
C466 C91 1.726 1_565 S
C451 C25 1.650 1_545 S
C501 C34 1.655 . S
C516 C131 1.735 . S
C551 C7 1.646 . S
C566 C171 1.732 . S
C601 C16 1.648 . S
C616 C211 1.730 1_655 S
C666 C88 0.313 . S
C651 C50 0.267 1_455 S
C716 C128 0.317 . S
C701 C59 0.273 1_545 S
C766 C168 0.313 . S
C751 C67 0.260 . S
C801 C41 0.272 . S
C816 C208 0.311 . S
C851 C14 0.262 . S
C866 C79 0.309 . S
C916 C119 0.317 . S
C901 C23 0.263 . S
C966 C159 0.313 . S
C951 C31 0.268 . S
C1001 C5 0.258 . S
C1016 C199 0.322 . S
C1051 C49 1.786 1_455 S
C1066 C83 1.962 . S
C1101 C58 1.779 1_545 S
C1116 C123 1.961 . S
C1166 C163 1.960 . S
C1151 C68 1.775 . S
C1216 C203 1.963 . S
C1201 C40 1.776 . S
C1251 C13 1.786 . S
C1266 C74 1.975 . S
C1316 C114 1.961 . S
C1301 C22 1.777 . S
C1366 C154 1.959 . S
C1351 C32 1.778 . S
C1401 C4 1.780 . S
C1416 C194 1.968 . S
