# Generated by pormake.
# Topology zzz, (3,6)-cn, num edge types: 1
# Building blocks:
#     Node 0, Type 0, BuildingBlock: QEWDON_clean_linker_0, # of connection points: 3
#     Node 1, Type 0, BuildingBlock: QEWDON_clean_linker_0, # of connection points: 3
#     Node 2, Type 0, BuildingBlock: QEWDON_clean_linker_0, # of connection points: 3
#     Node 3, Type 0, BuildingBlock: QEWDON_clean_linker_0, # of connection points: 3
#     Node 4, Type 0, BuildingBlock: QEWDON_clean_linker_0, # of connection points: 3
#     Node 5, Type 0, BuildingBlock: QEWDON_clean_linker_0, # of connection points: 3
#     Node 6, Type 0, BuildingBlock: QEWDON_clean_linker_0, # of connection points: 3
#     Node 7, Type 0, BuildingBlock: QEWDON_clean_linker_0, # of connection points: 3
#     Node 8, Type 1, BuildingBlock: BETDIP_clean_sbu_0, # of connection points: 6
#     Node 9, Type 1, BuildingBlock: BETDIP_clean_sbu_0, # of connection points: 6
#     Node 10, Type 1, BuildingBlock: BETDIP_clean_sbu_0, # of connection points: 6
#     Node 11, Type 1, BuildingBlock: BETDIP_clean_sbu_0, # of connection points: 6
#     Edge 12, Type (0, 1), BuildingBlock: MIFKUJ_clean_linker_0, # of connection points: 2
#     Edge 13, Type (0, 1), BuildingBlock: MIFKUJ_clean_linker_0, # of connection points: 2
#     Edge 14, Type (0, 1), BuildingBlock: MIFKUJ_clean_linker_0, # of connection points: 2
#     Edge 15, Type (0, 1), BuildingBlock: MIFKUJ_clean_linker_0, # of connection points: 2
#     Edge 16, Type (0, 1), BuildingBlock: MIFKUJ_clean_linker_0, # of connection points: 2
#     Edge 17, Type (0, 1), BuildingBlock: MIFKUJ_clean_linker_0, # of connection points: 2
#     Edge 18, Type (0, 1), BuildingBlock: MIFKUJ_clean_linker_0, # of connection points: 2
#     Edge 19, Type (0, 1), BuildingBlock: MIFKUJ_clean_linker_0, # of connection points: 2
#     Edge 20, Type (0, 1), BuildingBlock: MIFKUJ_clean_linker_0, # of connection points: 2
#     Edge 21, Type (0, 1), BuildingBlock: MIFKUJ_clean_linker_0, # of connection points: 2
#     Edge 22, Type (0, 1), BuildingBlock: MIFKUJ_clean_linker_0, # of connection points: 2
#     Edge 23, Type (0, 1), BuildingBlock: MIFKUJ_clean_linker_0, # of connection points: 2
#     Edge 24, Type (0, 1), BuildingBlock: MIFKUJ_clean_linker_0, # of connection points: 2
#     Edge 25, Type (0, 1), BuildingBlock: MIFKUJ_clean_linker_0, # of connection points: 2
#     Edge 26, Type (0, 1), BuildingBlock: MIFKUJ_clean_linker_0, # of connection points: 2
#     Edge 27, Type (0, 1), BuildingBlock: MIFKUJ_clean_linker_0, # of connection points: 2
#     Edge 28, Type (0, 1), BuildingBlock: MIFKUJ_clean_linker_0, # of connection points: 2
#     Edge 29, Type (0, 1), BuildingBlock: MIFKUJ_clean_linker_0, # of connection points: 2
#     Edge 30, Type (0, 1), BuildingBlock: MIFKUJ_clean_linker_0, # of connection points: 2
#     Edge 31, Type (0, 1), BuildingBlock: MIFKUJ_clean_linker_0, # of connection points: 2
#     Edge 32, Type (0, 1), BuildingBlock: MIFKUJ_clean_linker_0, # of connection points: 2
#     Edge 33, Type (0, 1), BuildingBlock: MIFKUJ_clean_linker_0, # of connection points: 2
#     Edge 34, Type (0, 1), BuildingBlock: MIFKUJ_clean_linker_0, # of connection points: 2
#     Edge 35, Type (0, 1), BuildingBlock: MIFKUJ_clean_linker_0, # of connection points: 2
# Relax obj value: 0.132
# Max RMSD: 0.138
# Mean RMSD: 0.106
data_MOF--net-zzz--node1-BETDIP_clean_sbu_0--node2-QEWDON_clean_linker_0--edge1-MIFKUJ_clean_linker_0
_symmetry_space_group_name_H-M    P1
_symmetry_Int_Tables_number       1
_symmetry_cell_setting            triclinic
loop_
_symmetry_equiv_pos_as_xyz
'x, y, z'
_cell_length_a     72.261573
_cell_length_b     72.229632
_cell_length_c     16.691309
_cell_angle_alpha  89.970442
_cell_angle_beta   90.073773
_cell_angle_gamma 89.676044
loop_
_atom_site_label
_atom_site_type_symbol
_atom_site_fract_x
_atom_site_fract_y
_atom_site_fract_z
_atom_type_partial_charge
H0 H 0.74745 0.50668 0.16255 0.0
C1 C 0.75675 0.5075 0.21316 0.0
C2 C 0.7732 0.49721 0.20985 0.0
C3 C 0.75271 0.51906 0.27913 0.0
H4 H 0.79928 0.49139 0.26704 0.0
C5 C 0.78622 0.49878 0.2716 0.0
C6 C 0.78349 0.51098 0.3354 0.0
C7 C 0.76658 0.52091 0.33987 0.0
C8 C 0.73446 0.52955 0.28172 0.0
H9 H 0.76445 0.52982 0.39103 0.0
C10 C 0.7187 0.52383 0.23638 0.0
C11 C 0.70192 0.53404 0.2378 0.0
C12 C 0.73267 0.54575 0.32825 0.0
H13 H 0.74419 0.55129 0.36161 0.0
C14 C 0.71597 0.55553 0.33135 0.0
H15 H 0.7191 0.51136 0.20072 0.0
C16 C 0.70074 0.54975 0.28681 0.0
H17 H 0.68811 0.55789 0.28904 0.0
H18 H 0.71493 0.56791 0.36762 0.0
H19 H 0.03051 0.74723 0.21191 0.0
C20 C 0.02654 0.75789 0.25413 0.0
C21 C 0.03376 0.77567 0.24353 0.0
C22 C 0.01496 0.75384 0.31978 0.0
H23 H 0.03526 0.80338 0.29043 0.0
C24 C 0.02968 0.78962 0.2991 0.0
C25 C 0.01779 0.78647 0.36342 0.0
C26 C 1.01019 0.7686 0.3732 0.0
C27 C 1.00905 0.73408 0.3347 0.0
H28 H 1.00081 0.76629 0.42262 0.0
C29 C 1.00746 0.72075 0.27183 0.0
C30 C 1.00359 0.70186 0.28839 0.0
C31 C 1.00629 0.728 0.41389 0.0
H32 H 1.00789 0.7373 0.46416 0.0
C33 C 1.0022 0.70957 0.4304 0.0
H34 H 1.00906 0.72499 0.21009 0.0
C35 C 1.00101 0.69663 0.36881 0.0
H36 H 0.99851 0.68234 0.38487 0.0
H37 H 1.00037 0.70517 0.49188 0.0
H38 H 0.77126 0.99069 0.17406 0.0
C39 C 0.75996 0.99462 0.21305 0.0
C40 C 0.74213 0.98942 0.19103 0.0
C41 C 0.76314 1.00437 0.28488 0.0
H42 H 0.71339 0.98939 0.22203 0.0
C43 C 0.72712 0.99365 0.24059 0.0
C44 C 0.72938 1.00363 0.31184 0.0
C45 C 0.74756 1.00887 0.3343 0.0
C46 C 0.78277 1.00908 0.30803 0.0
H47 H 0.7494 0.01681 0.38865 0.0
C48 C 0.79695 1.01147 0.24957 0.0
C49 C 0.81572 0.01391 0.27193 0.0
C50 C 0.7878 1.00995 0.38934 0.0
H51 H 0.7777 1.00779 0.4362 0.0
C52 C 0.80615 0.01285 0.41186 0.0
H53 H 0.79349 1.01155 0.18653 0.0
C54 C 0.81997 0.01463 0.35415 0.0
H55 H 0.83413 0.01608 0.37443 0.0
H56 H 0.80977 0.01325 0.47478 0.0
H57 H 0.51333 0.78208 0.15539 0.0
C58 C 0.51074 0.77148 0.19956 0.0
C59 C 0.50571 0.75407 0.17148 0.0
C60 C 0.51257 0.77501 0.28226 0.0
H61 H 0.50069 0.72574 0.2011 0.0
C62 C 0.50366 0.73936 0.225 0.0
C63 C 0.50637 0.74162 0.30748 0.0
C64 C 0.5106 0.75965 0.33623 0.0
C65 C 0.51695 0.79456 0.30976 0.0
H66 H 0.51196 0.76153 0.40017 0.0
C67 C 0.51362 0.81037 0.25986 0.0
C68 C 0.51897 0.82847 0.28308 0.0
C69 C 0.52514 0.79766 0.38506 0.0
H70 H 0.5285 0.78635 0.42499 0.0
C71 C 0.52961 0.81551 0.41007 0.0
H72 H 0.50709 0.80876 0.20223 0.0
C73 C 0.5266 0.83071 0.36002 0.0
H74 H 0.53026 0.84428 0.38223 0.0
H75 H 0.53573 0.81757 0.4686 0.0
H76 H 0.27037 0.52568 0.21547 0.0
C77 C 0.25972 0.52219 0.17241 0.0
C78 C 0.24142 0.52156 0.19853 0.0
C79 C 0.26419 0.51897 0.09142 0.0
H80 H 0.21298 0.51887 0.16399 0.0
C81 C 0.22722 0.51826 0.14346 0.0
C82 C 0.23081 0.51508 0.06229 0.0
C83 C 0.24947 0.51551 0.03608 0.0
C84 C 0.2841 0.5206 0.06584 0.0
H85 H 0.25244 0.51297 0.97349 0.0
C86 C 0.29897 0.5162 0.11888 0.0
C87 C 0.31762 0.52016 0.09891 0.0
C88 C 0.2884 0.52817 0.99066 0.0
H89 H 0.27759 0.53208 0.94888 0.0
C90 C 0.3067 0.5317 0.96959 0.0
H91 H 0.29601 0.5097 0.1758 0.0
C92 C 0.3211 0.52802 0.02318 0.0
H93 H 0.33495 0.53186 0.00539 0.0
H94 H 0.30973 0.53786 0.91196 0.0
H95 H 0.01547 0.27398 0.21571 0.0
C96 C 0.01607 0.26461 0.16531 0.0
C97 C 0.02437 0.24728 0.17723 0.0
C98 C 1.00825 0.26943 0.09048 0.0
H99 H 0.03016 0.22046 0.12718 0.0
C100 C 0.02436 0.23412 0.11588 0.0
C101 C 0.01586 0.23778 0.04238 0.0
C102 C 1.0081 0.25556 0.02911 0.0
C103 C 0.99969 0.2885 0.0786 0.0
H104 H 1.00221 0.25833 0.9708 0.0
C105 C 1.0043 0.30399 0.12815 0.0
C106 C 0.99549 0.32149 0.11831 0.0
C107 C 0.98627 0.29129 0.01843 0.0
H108 H 0.98154 0.28011 0.98087 0.0
C109 C 0.97825 0.30863 0.00603 0.0
H110 H 0.01452 0.30255 0.17499 0.0
C111 C 0.98283 0.32355 0.0548 0.0
H112 H 0.97632 0.33677 0.04232 0.0
H113 H 0.96818 0.31049 0.95858 0.0
H114 H 0.24991 0.99941 0.25144 0.0
C115 C 0.26036 1.00284 0.20768 0.0
C116 C 0.2787 0.99794 0.22505 0.0
C117 C 0.25559 1.01109 0.1336 0.0
H118 H 0.30674 0.99713 0.18253 0.0
C119 C 0.29257 1.00095 0.16819 0.0
C120 C 0.28862 1.00899 0.09389 0.0
C121 C 0.2702 0.01461 0.07778 0.0
C122 C 0.23541 0.01466 0.11296 0.0
H123 H 0.26743 0.02132 0.02112 0.0
C124 C 0.22126 0.01607 0.17257 0.0
C125 C 0.20228 0.0175 0.15112 0.0
C126 C 0.22987 0.01542 0.03196 0.0
H127 H 0.23966 0.01373 0.98363 0.0
C128 C 0.21136 0.01776 0.01085 0.0
H129 H 0.22473 0.01568 0.23552 0.0
C130 C 0.19772 0.01874 0.06945 0.0
H131 H 0.18346 0.02039 0.05048 0.0
H132 H 0.20749 0.01843 0.94822 0.0
H133 H 0.51958 0.25634 0.22361 0.0
C134 C 0.51546 0.26695 0.18136 0.0
C135 C 0.5164 0.28541 0.20596 0.0
C136 C 0.50946 0.26232 0.10338 0.0
H137 H 0.51389 0.31388 0.17037 0.0
C138 C 0.51228 0.29959 0.15165 0.0
C139 C 0.50661 0.29587 0.07338 0.0
C140 C 0.50511 0.27713 0.0492 0.0
C141 C 0.50849 0.24216 0.07908 0.0
H142 H 0.50024 0.27428 0.9892 0.0
C143 C 0.50617 0.22762 0.13629 0.0
C144 C 0.50691 0.20872 0.1133 0.0
C145 C 0.51086 0.23716 0.99823 0.0
H146 H 0.51322 0.24747 0.95244 0.0
C147 C 0.51081 0.21863 0.97486 0.0
H148 H 0.50411 0.23083 0.19889 0.0
C149 C 0.50891 0.20458 0.03145 0.0
H150 H 0.50901 0.19038 0.01076 0.0
H151 H 0.51256 0.21511 0.91228 0.0
Tb152 Tb 0.01758 1.00702 0.78836 0.0
Tb153 Tb 1.00112 0.01644 0.63602 0.0
C154 C 0.0251 0.99079 0.9167 0.0
C155 C 0.03183 0.97163 0.92777 0.0
C156 C 0.0217 0.95666 0.89701 0.0
C157 C 0.02933 0.93893 0.89603 0.0
C158 C 0.04722 0.9357 0.92599 0.0
C159 C 0.05714 0.95051 0.9593 0.0
C160 C 0.04951 0.96836 0.95997 0.0
C161 C 0.0423 0.01631 0.679 0.0
C162 C 1.00738 0.97441 0.66178 0.0
C163 C 0.99667 0.03231 0.50456 0.0
C164 C 1.00544 0.04979 0.48146 0.0
C165 C 0.02348 0.05356 0.50835 0.0
C166 C 0.03044 0.07144 0.50507 0.0
C167 C 0.01958 0.08595 0.47416 0.0
C168 C 1.00199 0.0819 0.4422 0.0
C169 C 0.99493 0.06396 0.44639 0.0
C170 C 0.97627 1.00789 0.74653 0.0
C171 C 1.01146 0.0486 0.76094 0.0
O172 O 1.00817 0.99269 0.8895 0.0
O173 O 0.03669 1.00184 0.88057 0.0
O174 O 0.02804 1.00656 0.66797 0.0
O175 O 0.04337 0.02053 0.75423 0.0
O176 O 0.01378 0.97929 0.73324 0.0
O177 O 1.00173 0.98699 0.60987 0.0
O178 O 1.00798 0.01827 0.51432 0.0
O179 O 0.98481 0.03381 0.56341 0.0
O180 O 0.99079 0.01728 0.75663 0.0
O181 O 0.97485 1.00387 0.67103 0.0
O182 O 1.01043 0.0435 0.68474 0.0
O183 O 1.01168 0.03584 0.81761 0.0
H184 H 1.00803 0.95864 0.87162 0.0
H185 H 0.02115 0.9277 0.87195 0.0
H186 H 0.07092 0.94837 0.98329 0.0
H187 H 0.05763 0.97969 0.98346 0.0
H188 H 0.03183 0.04294 0.5368 0.0
H189 H 0.04393 0.07401 0.5309 0.0
H190 H 0.99346 0.09269 0.41602 0.0
H191 H 0.98095 0.06136 0.42593 0.0
Tb192 Tb 0.51277 0.02735 0.76699 0.0
Tb193 Tb 0.50136 1.00875 0.60953 0.0
C194 C 0.52982 0.03518 0.8924 0.0
C195 C 0.54899 0.02994 0.91386 0.0
C196 C 0.55281 1.01234 0.94608 0.0
C197 C 0.57088 1.00551 0.94756 0.0
C198 C 0.5855 0.01624 0.91804 0.0
C199 C 0.58193 0.0344 0.89208 0.0
C200 C 0.56384 0.0412 0.89013 0.0
C201 C 0.50166 0.05007 0.65146 0.0
C202 C 0.54375 0.0145 0.63864 0.0
C203 C 0.48604 1.00287 0.47862 0.0
C204 C 0.46906 0.99199 0.46716 0.0
C205 C 0.45428 0.99952 0.42314 0.0
C206 C 0.43651 0.99217 0.4311 0.0
C207 C 0.43332 0.97741 0.48405 0.0
C208 C 0.44824 0.96912 0.52396 0.0
C209 C 0.46601 0.97621 0.51484 0.0
C210 C 0.50528 0.98319 0.72538 0.0
C211 C 0.4708 0.01846 0.74403 0.0
O212 O 0.51794 0.02154 0.888 0.0
O213 O 0.5282 0.04666 0.83192 0.0
O214 O 0.51139 0.03558 0.64313 0.0
O215 O 0.49832 0.05241 0.72719 0.0
O216 O 0.53952 0.01832 0.71445 0.0
O217 O 0.53073 1.01217 0.58359 0.0
O218 O 0.48342 0.01818 0.51959 0.0
O219 O 0.5008 0.99363 0.50228 0.0
O220 O 0.50757 1.00039 0.72818 0.0
O221 O 0.50064 0.97968 0.65227 0.0
O222 O 0.47467 0.0152 0.66753 0.0
O223 O 0.48398 0.02182 0.79734 0.0
H224 H 0.54175 1.00344 0.9664 0.0
H225 H 0.57338 0.99164 0.97008 0.0
H226 H 0.59301 0.043 0.86957 0.0
H227 H 0.56139 0.0549 0.86575 0.0
H228 H 0.45623 1.01183 0.38707 0.0
H229 H 0.42506 0.99881 0.40022 0.0
H230 H 0.44602 0.95768 0.56479 0.0
H231 H 0.47709 0.97002 0.54933 0.0
Tb232 Tb 0.49987 0.52311 0.75192 0.0
Tb233 Tb 0.51713 0.51201 0.60603 0.0
C234 C 0.49183 0.54112 0.87516 0.0
C235 C 0.49298 0.56135 0.88626 0.0
C236 C 0.51027 0.57019 0.88847 0.0
C237 C 0.5114 0.58935 0.88007 0.0
C238 C 0.49531 0.60006 0.86914 0.0
C239 C 0.47798 0.59135 0.87206 0.0
C240 C 0.47683 0.57219 0.88097 0.0
C241 C 0.47572 0.51322 0.64017 0.0
C242 C 0.51 0.55373 0.62152 0.0
C243 C 0.52672 0.49484 0.4827 0.0
C244 C 0.53661 0.47709 0.4779 0.0
C245 C 0.53216 0.46445 0.4176 0.0
C246 C 0.53931 0.44646 0.4202 0.0
C247 C 0.5511 0.44083 0.48317 0.0
C248 C 0.55602 0.45379 0.54204 0.0
C249 C 0.54875 0.47173 0.53968 0.0
C250 C 0.54138 0.52143 0.71849 0.0
C251 C 0.50645 0.48088 0.73776 0.0
O252 O 0.50756 0.53227 0.86641 0.0
O253 O 0.47951 0.53574 0.82293 0.0
O254 O 0.49016 0.52269 0.62942 0.0
O255 O 0.47428 0.50946 0.71578 0.0
O256 O 0.50917 0.54969 0.69874 0.0
O257 O 0.50997 0.54017 0.56857 0.0
O258 O 0.51009 0.49378 0.51324 0.0
O259 O 0.53614 0.50864 0.51237 0.0
O260 O 0.52682 0.51213 0.72835 0.0
O261 O 0.54297 0.52511 0.64306 0.0
O262 O 0.51166 0.48482 0.6635 0.0
O263 O 0.50227 0.49429 0.78845 0.0
H264 H 0.52301 0.56229 0.89288 0.0
H265 H 0.52494 0.59571 0.88048 0.0
H266 H 0.46531 0.59921 0.86393 0.0
H267 H 0.46333 0.56574 0.87909 0.0
H268 H 0.52253 0.46824 0.37045 0.0
H269 H 0.53487 0.43675 0.37479 0.0
H270 H 0.56513 0.44998 0.59096 0.0
H271 H 0.55212 0.48121 0.5878 0.0
Tb272 Tb 1.00424 0.50454 0.7511 0.0
Tb273 Tb 0.01393 0.52517 0.59919 0.0
C274 C 0.98882 0.49297 0.8755 0.0
C275 C 0.96962 0.48692 0.88745 0.0
C276 C 0.95478 0.49786 0.86006 0.0
C277 C 0.93684 0.49095 0.86048 0.0
C278 C 0.93333 0.47295 0.88832 0.0
C279 C 0.9481 0.46218 0.9179 0.0
C280 C 0.96612 0.46911 0.91727 0.0
C281 C 0.01445 0.48354 0.6285 0.0
C282 C 0.97167 0.5169 0.62835 0.0
C283 C 0.02757 0.53145 0.465 0.0
C284 C 0.04457 0.54167 0.4469 0.0
C285 C 0.05721 0.53432 0.39181 0.0
C286 C 0.07526 0.54107 0.38868 0.0
C287 C 0.08095 0.55526 0.4409 0.0
C288 C 0.06791 0.5634 0.49236 0.0
C289 C 0.04988 0.55666 0.49537 0.0
C290 C 1.01168 0.54966 0.71856 0.0
C291 C 0.04552 0.51552 0.72919 0.0
O292 O 0.99129 0.5106 0.86042 0.0
O293 O 0.99857 0.48235 0.82806 0.0
O294 O 1.00422 0.49781 0.62569 0.0
O295 O 0.01926 0.48072 0.70234 0.0
O296 O 0.97659 0.509 0.69715 0.0
O297 O 0.98409 0.52377 0.5783 0.0
O298 O 0.03046 0.51596 0.50432 0.0
O299 O 0.01376 0.54119 0.49442 0.0
O300 O 1.00922 0.53239 0.72127 0.0
O301 O 0.01547 0.55367 0.64499 0.0
O302 O 0.04131 0.51908 0.65314 0.0
O303 O 0.03254 0.51167 0.78244 0.0
H304 H 0.95701 0.51164 0.8365 0.0
H305 H 0.92568 0.49977 0.83933 0.0
H306 H 0.94576 0.4483 0.94012 0.0
H307 H 0.9774 0.46039 0.938 0.0
H308 H 0.05348 0.52257 0.35491 0.0
H309 H 0.08505 0.53435 0.34901 0.0
H310 H 0.07184 0.57447 0.53255 0.0
H311 H 0.04044 0.56253 0.53885 0.0
H312 H 0.19985 0.03519 0.29844 0.0
H313 H 0.17327 0.03597 0.39028 0.0
H314 H 0.14323 0.99968 0.2324 0.0
H315 H 0.16956 0.99874 0.1415 0.0
H316 H 0.12139 0.0276 0.27677 0.0
H317 H 0.1622 0.98477 0.41316 0.0
H318 H 0.19139 0.97484 0.47728 0.0
H319 H 0.18649 0.01899 0.64827 0.0
H320 H 0.15739 0.02933 0.58446 0.0
H321 H 0.04639 1.00086 0.52917 0.0
H322 H 0.07369 1.00198 0.44199 0.0
H323 H 0.10159 0.03638 0.61478 0.0
H324 H 0.0745 0.035 0.70232 0.0
H325 H 0.12482 1.01106 0.56473 0.0
H326 H 0.08459 0.05415 0.43277 0.0
H327 H 0.05565 0.06518 0.36996 0.0
H328 H 0.05947 0.02208 0.19363 0.0
H329 H 0.08847 1.01078 0.25535 0.0
C330 C 0.18768 0.02719 0.28385 0.0
C331 C 0.18689 0.01707 0.2118 0.0
C332 C 0.17242 0.02767 0.33639 0.0
C333 C 0.15606 0.01792 0.31854 0.0
C334 C 0.15548 1.00752 0.24756 0.0
C335 C 0.17064 1.00702 0.19536 0.0
C336 C 0.1394 0.01861 0.37234 0.0
C337 C 0.12216 0.02378 0.33955 0.0
C338 C 0.14027 0.01417 0.45503 0.0
C339 C 0.15773 1.00794 0.49349 0.0
C340 C 0.16743 0.99244 0.46403 0.0
C341 C 0.18394 0.98673 0.50039 0.0
C342 C 0.19082 0.99631 0.56665 0.0
C343 C 0.18117 1.0116 0.59685 0.0
C344 C 0.16466 0.01739 0.56064 0.0
C345 C 0.0583 1.00876 0.54822 0.0
C346 C 0.05826 0.0178 0.62281 0.0
C347 C 0.07393 1.00946 0.49817 0.0
C348 C 0.08984 0.01938 0.52113 0.0
C349 C 0.08965 0.02857 0.59537 0.0
C350 C 0.07408 0.02782 0.64537 0.0
C351 C 0.10678 0.01988 0.46897 0.0
C352 C 0.12406 0.01495 0.50203 0.0
C353 C 0.10598 0.02471 0.3867 0.0
C354 C 0.08861 0.03152 0.34911 0.0
C355 C 0.0792 0.04695 0.38089 0.0
C356 C 0.0628 0.05326 0.34547 0.0
C357 C 0.05566 0.04427 0.2782 0.0
C358 C 0.065 0.02901 0.24585 0.0
C359 C 0.08145 0.02268 0.28086 0.0
H360 H 0.04294 0.04916 0.25097 0.0
H361 H 0.2036 0.99186 0.59473 0.0
H362 H 0.48514 0.20535 0.2495 0.0
H363 H 0.48315 0.17882 0.34115 0.0
H364 H 0.52486 0.15007 0.20421 0.0
H365 H 0.52708 0.17641 0.11359 0.0
H366 H 0.49715 0.12713 0.23621 0.0
H367 H 0.53399 0.16977 0.38991 0.0
H368 H 0.54086 0.19943 0.45643 0.0
H369 H 0.49278 0.1934 0.60488 0.0
H370 H 0.48548 0.16381 0.53845 0.0
H371 H 0.51915 0.05329 0.5057 0.0
H372 H 0.51916 0.08012 0.41563 0.0
H373 H 0.48092 0.10846 0.57219 0.0
H374 H 0.48146 0.08194 0.6635 0.0
H375 H 0.50548 0.13189 0.53028 0.0
H376 H 0.46868 0.08917 0.38079 0.0
H377 H 0.46124 0.05958 0.31491 0.0
H378 H 0.50794 0.06582 0.15856 0.0
H379 H 0.51582 0.09533 0.22431 0.0
C380 C 0.49406 0.19349 0.23942 0.0
C381 C 0.50615 0.19311 0.17321 0.0
C382 C 0.49287 0.17824 0.29191 0.0
C383 C 0.50385 0.16227 0.28 0.0
C384 C 0.51608 0.16203 0.21471 0.0
C385 C 0.51729 0.17719 0.16254 0.0
C386 C 0.50257 0.14568 0.33429 0.0
C387 C 0.49917 0.12818 0.30045 0.0
C388 C 0.50469 0.14691 0.41858 0.0
C389 C 0.50908 0.16468 0.4586 0.0
C390 C 0.5248 0.17484 0.43628 0.0
C391 C 0.52878 0.19163 0.47405 0.0
C392 C 0.51723 0.19833 0.53467 0.0
C393 C 0.50169 0.18822 0.55781 0.0
C394 C 0.49763 0.17143 0.52016 0.0
C395 C 0.51059 0.06516 0.52039 0.0
C396 C 0.50027 0.06543 0.5918 0.0
C397 C 0.51054 0.08055 0.46861 0.0
C398 C 0.49988 0.09647 0.48604 0.0
C399 C 0.48933 0.09652 0.55685 0.0
C400 C 0.48955 0.08126 0.60898 0.0
C401 C 0.50012 0.11325 0.43225 0.0
C402 C 0.50335 0.1308 0.46612 0.0
C403 C 0.49771 0.11208 0.34799 0.0
C404 C 0.49294 0.09439 0.308 0.0
C405 C 0.47744 0.08417 0.33273 0.0
C406 C 0.47313 0.06742 0.29536 0.0
C407 C 0.48414 0.0608 0.23271 0.0
C408 C 0.49944 0.07095 0.20716 0.0
C409 C 0.50383 0.0877 0.24442 0.0
H410 H 0.48078 0.04783 0.20386 0.0
H411 H 0.52034 0.21132 0.56385 0.0
H412 H 0.31737 0.52141 0.26543 0.0
H413 H 0.34341 0.51818 0.35735 0.0
H414 H 0.38031 0.51017 0.15733 0.0
H415 H 0.3542 0.51142 0.06592 0.0
H416 H 0.39281 0.49024 0.26423 0.0
H417 H 0.37387 0.55386 0.27182 0.0
H418 H 0.35246 0.58026 0.28939 0.0
H419 H 0.3428 0.56405 0.53326 0.0
H420 H 0.36399 0.53741 0.51683 0.0
H421 H 0.47553 0.51923 0.47736 0.0
H422 H 0.4487 0.51888 0.38615 0.0
H423 H 0.41292 0.50605 0.58463 0.0
H424 H 0.43961 0.50584 0.6752 0.0
H425 H 0.40033 0.53649 0.48112 0.0
H426 H 0.42174 0.473 0.4668 0.0
H427 H 0.44522 0.4487 0.44371 0.0
H428 H 0.45266 0.46786 0.20239 0.0
H429 H 0.4294 0.49248 0.22447 0.0
C430 C 0.33091 0.51855 0.2406 0.0
C431 C 0.33342 0.51701 0.15703 0.0
C432 C 0.346 0.51706 0.29368 0.0
C433 C 0.36419 0.51454 0.26499 0.0
C434 C 0.36661 0.51234 0.18195 0.0
C435 C 0.35152 0.51336 0.12911 0.0
C436 C 0.38069 0.5143 0.32059 0.0
C437 C 0.39445 0.50057 0.31078 0.0
C438 C 0.3831 0.52754 0.3827 0.0
C439 C 0.37036 0.54354 0.39281 0.0
C440 C 0.36708 0.55586 0.32902 0.0
C441 C 0.355 0.57087 0.3388 0.0
C442 C 0.34623 0.5738 0.41232 0.0
C443 C 0.34958 0.56174 0.4763 0.0
C444 C 0.36163 0.5467 0.46681 0.0
C445 C 0.46195 0.51621 0.50133 0.0
C446 C 0.45974 0.51252 0.58355 0.0
C447 C 0.44663 0.51602 0.4492 0.0
C448 C 0.42872 0.51247 0.47843 0.0
C449 C 0.42653 0.50887 0.56055 0.0
C450 C 0.44185 0.50869 0.61225 0.0
C451 C 0.41224 0.51259 0.42391 0.0
C452 C 0.39856 0.52626 0.43419 0.0
C453 C 0.41013 0.49961 0.36112 0.0
C454 C 0.42397 0.4847 0.34757 0.0
C455 C 0.4285 0.47214 0.40904 0.0
C456 C 0.44175 0.45828 0.39609 0.0
C457 C 0.45047 0.45677 0.3217 0.0
C458 C 0.44591 0.46907 0.26002 0.0
C459 C 0.43269 0.48297 0.2727 0.0
H460 H 0.46073 0.44604 0.3118 0.0
H461 H 0.33689 0.58543 0.41978 0.0
H462 H 0.02791 0.33185 0.1971 0.0
H463 H 0.03292 0.35913 0.28209 0.0
H464 H 0.97608 0.37561 0.24847 0.0
H465 H 0.97063 0.34815 0.16793 0.0
H466 H 1.00206 0.40485 0.22155 0.0
H467 H 0.98748 0.35802 0.41884 0.0
H468 H 0.99197 0.32817 0.48814 0.0
H469 H 0.0472 0.34386 0.55333 0.0
H470 H 0.04312 0.37372 0.48336 0.0
H471 H 0.98963 0.4772 0.50667 0.0
H472 H 0.98794 0.45007 0.4192 0.0
H473 H 0.03829 0.42861 0.52442 0.0
H474 H 0.03924 0.45517 0.61526 0.0
H475 H 0.01771 0.40159 0.51044 0.0
H476 H 0.03336 0.44835 0.32068 0.0
H477 H 0.03075 0.47795 0.24774 0.0
H478 H 0.97691 0.46266 0.16211 0.0
H479 H 0.97906 0.43308 0.2356 0.0
C480 C 0.01637 0.34107 0.2086 0.0
C481 C 0.9989 0.33768 0.17379 0.0
C482 C 0.01931 0.35681 0.25693 0.0
C483 C 1.00493 0.36963 0.27117 0.0
C484 C 0.9875 0.36615 0.23762 0.0
C485 C 0.98446 0.35037 0.19073 0.0
C486 C 1.0078 0.38671 0.32076 0.0
C487 C 1.00537 0.40417 0.28491 0.0
C488 C 0.01264 0.38592 0.40289 0.0
C489 C 0.01508 0.368 0.44504 0.0
C490 C 1.00065 0.35503 0.44728 0.0
C491 C 1.0031 0.33812 0.48682 0.0
C492 C 0.01988 0.33409 0.52489 0.0
C493 C 0.03422 0.34699 0.52368 0.0
C494 C 0.03184 0.36391 0.48412 0.0
C495 C 1.00047 0.46681 0.51028 0.0
C496 C 0.01464 0.46842 0.56766 0.0
C497 C 0.99957 0.45124 0.45979 0.0
C498 C 0.01314 0.43712 0.46345 0.0
C499 C 0.02755 0.43907 0.51976 0.0
C500 C 0.02819 0.45439 0.57148 0.0
C501 C 1.01197 0.42003 0.41157 0.0
C502 C 0.01463 0.40247 0.44695 0.0
C503 C 1.00768 0.42076 0.32845 0.0
C504 C 1.00631 0.43856 0.28432 0.0
C505 C 0.0209 0.45136 0.28681 0.0
C506 C 0.01951 0.46813 0.2453 0.0
C507 C 1.00366 0.4722 0.20049 0.0
C508 C 0.98917 0.4595 0.19697 0.0
C509 C 0.99047 0.44272 0.23851 0.0
H510 H 1.00261 0.48519 0.16834 0.0
H511 H 0.02175 0.321 0.5555 0.0
H512 H 0.81914 0.99515 0.12809 0.0
H513 H 0.84545 0.9948 0.0361 0.0
H514 H 0.87412 0.03364 0.18727 0.0
H515 H 0.84751 0.0349 0.2767 0.0
H516 H 0.88167 0.04197 0.04137 0.0
H517 H 0.88297 0.98472 0.18744 0.0
H518 H 0.8706 0.95521 0.23831 0.0
H519 H 0.86317 0.93587 0.99725 0.0
H520 H 0.87529 0.96537 0.94492 0.0
H521 H 0.97302 0.02478 0.89359 0.0
H522 H 0.94564 0.02606 0.98049 0.0
H523 H 0.91574 0.99204 0.81281 0.0
H524 H 0.94306 0.99067 0.72616 0.0
H525 H 0.90883 0.98128 0.96514 0.0
H526 H 0.90876 0.03895 0.82078 0.0
H527 H 0.92246 0.06816 0.77331 0.0
H528 H 0.92883 0.08654 0.01633 0.0
H529 H 0.91541 0.05731 0.06533 0.0
C530 C 0.83086 1.00391 0.14117 0.0
C531 C 0.8311 0.01488 0.21102 0.0
C532 C 0.84611 1.00349 0.08883 0.0
C533 C 0.86217 0.01382 0.10524 0.0
C534 C 0.8621 0.02536 0.17304 0.0
C535 C 0.84683 0.02592 0.2249 0.0
C536 C 0.87915 1.01238 0.05326 0.0
C537 C 0.88767 0.02867 0.02566 0.0
C538 C 0.88706 0.99509 0.03102 0.0
C539 C 0.87985 0.97732 0.06229 0.0
C540 C 0.87858 0.97422 0.14529 0.0
C541 C 0.87163 0.95749 0.17438 0.0
C542 C 0.86606 0.9437 0.12105 0.0
C543 C 0.86747 0.94658 0.03849 0.0
C544 C 0.87438 0.96329 0.00908 0.0
C545 C 0.96064 0.01747 0.87553 0.0
C546 C 0.96021 1.0077 0.80265 0.0
C547 C 0.94493 0.0183 0.92509 0.0
C548 C 0.92841 1.00936 0.90301 0.0
C549 C 0.92821 0.99912 0.83139 0.0
C550 C 0.94386 0.99837 0.78172 0.0
C551 C 0.91129 1.01084 0.95364 0.0
C552 C 0.90277 0.99456 0.9809 0.0
C553 C 0.90349 0.02813 0.9761 0.0
C554 C 0.91124 0.04586 0.94674 0.0
C555 C 0.91319 0.04917 0.86412 0.0
C556 C 0.92089 0.06574 0.83693 0.0
C557 C 0.92657 0.07917 0.89177 0.0
C558 C 0.92446 0.0761 0.97392 0.0
C559 C 0.91678 0.05955 0.00143 0.0
H560 H 0.93256 0.09197 0.8706 0.0
H561 H 0.86068 0.93075 0.14368 0.0
H562 H 0.54168 0.85906 0.27192 0.0
H563 H 0.53876 0.88596 0.18478 0.0
H564 H 0.49039 0.86235 0.07506 0.0
H565 H 0.49248 0.83569 0.16531 0.0
H566 H 0.51754 0.87623 0.96356 0.0
H567 H 0.48434 0.89671 0.19793 0.0
H568 H 0.48038 0.90316 0.34195 0.0
H569 H 0.52601 0.94093 0.33534 0.0
H570 H 0.53044 0.9345 0.19144 0.0
H571 H 0.48723 0.95068 0.72962 0.0
H572 H 0.48941 0.92588 0.82804 0.0
H573 H 0.52829 0.95806 0.96547 0.0
H574 H 0.52537 0.98351 0.86735 0.0
H575 H 0.50745 0.94 0.06566 0.0
H576 H 0.54173 0.92055 0.83787 0.0
H577 H 0.5479 0.91431 0.69512 0.0
H578 H 0.50389 0.87463 0.69037 0.0
H579 H 0.49728 0.88081 0.83289 0.0
C580 C 0.5301 0.85959 0.23081 0.0
C581 C 0.51721 0.84495 0.22733 0.0
C582 C 0.52857 0.87507 0.18023 0.0
C583 C 0.51429 0.87636 0.12342 0.0
C584 C 0.50157 0.86173 0.11833 0.0
C585 C 0.50289 0.84634 0.16994 0.0
C586 C 0.5129 0.8928 0.06858 0.0
C587 C 0.51506 0.89013 0.98581 0.0
C588 C 0.51046 0.91112 0.09751 0.0
C589 C 0.50785 0.91496 0.18407 0.0
C590 C 0.49365 0.90625 0.22734 0.0
C591 C 0.4913 0.90993 0.30893 0.0
C592 C 0.50297 0.92241 0.34783 0.0
C593 C 0.517 0.93125 0.30516 0.0
C594 C 0.51943 0.9276 0.22357 0.0
C595 C 0.49617 0.95258 0.78111 0.0
C596 C 0.50617 0.96908 0.79053 0.0
C597 C 0.49754 0.93825 0.83731 0.0
C598 C 0.50945 0.93964 0.9037 0.0
C599 C 0.51908 0.95643 0.91477 0.0
C600 C 0.5174 0.97103 0.85883 0.0
C601 C 0.51183 0.92345 0.95998 0.0
C602 C 0.50995 0.92613 0.0431 0.0
C603 C 0.51492 0.90513 0.93156 0.0
C604 C 0.51891 0.90126 0.84593 0.0
C605 C 0.53329 0.91057 0.80627 0.0
C606 C 0.53687 0.90704 0.7254 0.0
C607 C 0.52626 0.89412 0.68365 0.0
C608 C 0.51208 0.88466 0.72277 0.0
C609 C 0.50843 0.88815 0.80362 0.0
H610 H 0.52905 0.89141 0.62104 0.0
H611 H 0.50111 0.92525 0.41098 0.0
H612 H 0.66604 0.52827 0.28382 0.0
H613 H 0.63875 0.52424 0.19777 0.0
H614 H 0.67361 0.526 0.98865 0.0
H615 H 0.70102 0.52954 0.07481 0.0
H616 H 0.64156 0.55156 0.98919 0.0
H617 H 0.65639 0.48702 0.03017 0.0
H618 H 0.66291 0.45921 0.11137 0.0
H619 H 0.60962 0.46409 0.22319 0.0
H620 H 0.6029 0.49212 0.14347 0.0
H621 H 0.57669 0.53204 0.68657 0.0
H622 H 0.60329 0.53251 0.77636 0.0
H623 H 0.5689 0.51364 0.97075 0.0
H624 H 0.54224 0.51233 0.87913 0.0
H625 H 0.60035 0.49688 0.98305 0.0
H626 H 0.58448 0.56028 0.95055 0.0
H627 H 0.57667 0.58908 0.8784 0.0
H628 H 0.62992 0.58836 0.76455 0.0
H629 H 0.63796 0.55939 0.83511 0.0
C630 C 0.66791 0.52744 0.21954 0.0
C631 C 0.68572 0.5291 0.18617 0.0
C632 C 0.6523 0.52517 0.17038 0.0
C633 C 0.65405 0.52485 0.08655 0.0
C634 C 0.67186 0.52619 0.05309 0.0
C635 C 0.68755 0.52807 0.10238 0.0
C636 C 0.63725 0.52402 0.03399 0.0
C637 C 0.6327 0.5395 0.98688 0.0
C638 C 0.62519 0.50862 0.03348 0.0
C639 C 0.62923 0.49179 0.08149 0.0
C640 C 0.64614 0.48228 0.07267 0.0
C641 C 0.64986 0.46645 0.11829 0.0
C642 C 0.63671 0.45992 0.17258 0.0
C643 C 0.61981 0.46918 0.18121 0.0
C644 C 0.61603 0.48503 0.13578 0.0
C645 C 0.57472 0.52804 0.7485 0.0
C646 C 0.55726 0.52227 0.77567 0.0
C647 C 0.59 0.52841 0.80024 0.0
C648 C 0.58824 0.5235 0.88146 0.0
C649 C 0.57077 0.5176 0.90871 0.0
C650 C 0.55547 0.51695 0.85639 0.0
C651 C 0.60467 0.5244 0.93692 0.0
C652 C 0.60915 0.50899 0.98502 0.0
C653 C 0.61647 0.54006 0.93983 0.0
C654 C 0.61176 0.55756 0.89761 0.0
C655 C 0.59449 0.5662 0.90972 0.0
C656 C 0.59002 0.58256 0.86915 0.0
C657 C 0.60278 0.59052 0.81679 0.0
C658 C 0.62005 0.58216 0.80506 0.0
C659 C 0.62457 0.56577 0.84538 0.0
H660 H 0.59929 0.60319 0.78543 0.0
H661 H 0.63961 0.44766 0.20781 0.0
H662 H 0.98051 0.67168 0.27869 0.0
H663 H 0.98189 0.64575 0.18539 0.0
H664 H 0.02582 0.67251 0.05612 0.0
H665 H 0.02501 0.6984 0.15136 0.0
H666 H 0.99926 0.65658 0.95474 0.0
H667 H 0.03597 0.63795 0.18131 0.0
H668 H 0.04242 0.63192 0.32407 0.0
H669 H 0.99845 0.59221 0.33117 0.0
H670 H 0.99153 0.59823 0.18868 0.0
H671 H 0.02962 0.5822 0.72008 0.0
H672 H 0.02788 0.60716 0.81763 0.0
H673 H 0.99069 0.57471 0.96204 0.0
H674 H 0.99309 0.54909 0.86468 0.0
H675 H 0.01262 0.59342 0.05755 0.0
H676 H 0.97551 0.61138 0.83387 0.0
H677 H 0.96821 0.6171 0.6916 0.0
H678 H 1.01111 0.6579 0.67973 0.0
H679 H 0.01884 0.65224 0.8217 0.0
C680 C 0.99062 0.67212 0.23092 0.0
C681 C 1.00288 0.6872 0.22404 0.0
C682 C 0.99133 0.65719 0.17722 0.0
C683 C 1.00418 0.65689 0.11423 0.0
C684 C 0.01583 0.6723 0.10442 0.0
C685 C 0.01526 0.68721 0.15881 0.0
C686 C 1.00553 0.64041 0.05956 0.0
C687 C 1.00243 0.64282 0.97714 0.0
C688 C 1.00904 0.62225 0.08868 0.0
C689 C 0.0131 0.6187 0.1745 0.0
C690 C 0.02755 0.62807 0.21349 0.0
C691 C 0.03131 0.62463 0.29434 0.0
C692 C 0.02082 0.61173 0.33672 0.0
C693 C 1.00655 0.60223 0.2983 0.0
C694 C 1.0027 0.60565 0.21749 0.0
C695 C 0.02115 0.58026 0.77294 0.0
C696 C 1.01141 0.56365 0.78427 0.0
C697 C 0.02004 0.59468 0.82863 0.0
C698 C 1.00868 0.59326 0.8966 0.0
C699 C 0.99943 0.57635 0.90991 0.0
C700 C 1.00082 0.56165 0.85436 0.0
C701 C 1.00647 0.60955 0.95227 0.0
C702 C 1.00938 0.60714 0.03496 0.0
C703 C 1.00257 0.62771 0.92354 0.0
C704 C 0.99785 0.63127 0.8383 0.0
C705 C 0.98346 0.62149 0.8008 0.0
C706 C 0.97924 0.62473 0.72022 0.0
C707 C 0.98922 0.63782 0.67661 0.0
C708 C 1.0034 0.64775 0.71357 0.0
C709 C 1.0077 0.64455 0.79413 0.0
H710 H 0.98594 0.6403 0.61422 0.0
H711 H 0.02378 0.60906 0.39927 0.0
H712 H 1.00413 0.2392 0.30836 0.0
H713 H 0.01382 0.21789 0.41369 0.0
H714 H 0.07008 0.22039 0.32764 0.0
H715 H 0.0601 0.24116 0.21999 0.0
H716 H 0.05693 0.18828 0.3035 0.0
H717 H 0.059 0.22609 0.53185 0.0
H718 H 0.05022 0.24963 0.63175 0.0
H719 H 1.00156 0.21872 0.69115 0.0
H720 H 1.00973 0.19521 0.59034 0.0
H721 H 0.05506 0.0986 0.45463 0.0
H722 H 0.06552 0.13062 0.45689 0.0
H723 H 1.00965 0.14912 0.50253 0.0
H724 H 0.99933 0.11708 0.50692 0.0
H725 H 0.03397 0.17183 0.57384 0.0
H726 H 0.02559 0.1453 0.30419 0.0
H727 H 0.03195 0.12177 0.20038 0.0
H728 H 0.09021 0.13238 0.21963 0.0
H729 H 0.08413 0.156 0.32354 0.0
C730 C 0.01872 0.23598 0.31486 0.0
C731 C 0.03139 0.24156 0.25626 0.0
C732 C 0.02433 0.22385 0.37548 0.0
C733 C 0.04269 0.21733 0.37825 0.0
C734 C 0.05584 0.22516 0.32652 0.0
C735 C 0.05017 0.23703 0.26509 0.0
C736 C 0.04649 0.19905 0.41556 0.0
C737 C 0.05257 0.18491 0.36391 0.0
C738 C 0.04038 0.19442 0.49363 0.0
C739 C 0.03501 0.20884 0.55297 0.0
C740 C 0.04631 0.22439 0.56543 0.0
C741 C 0.04144 0.23773 0.62241 0.0
C742 C 0.02534 0.23568 0.66773 0.0
C743 C 0.01403 0.2203 0.656 0.0
C744 C 0.01879 0.20694 0.59892 0.0
C745 C 0.04506 0.10942 0.46733 0.0
C746 C 0.02624 0.10529 0.47871 0.0
C747 C 0.05107 0.12773 0.46836 0.0
C748 C 0.0383 0.14224 0.47841 0.0
C749 C 0.01974 0.13813 0.49452 0.0
C750 C 0.01378 0.11982 0.49515 0.0
C751 C 0.04346 0.16156 0.46014 0.0
C752 C 0.03905 0.17563 0.51499 0.0
C753 C 0.05075 0.1663 0.38445 0.0
C754 C 0.05444 0.15225 0.32181 0.0
C755 C 0.03975 0.14253 0.28639 0.0
C756 C 0.0433 0.12921 0.22759 0.0
C757 C 0.06148 0.12552 0.20372 0.0
C758 C 0.07614 0.1352 0.23844 0.0
C759 C 0.07266 0.14859 0.29711 0.0
H760 H 0.0642 0.11523 0.15805 0.0
H761 H 0.02164 0.24599 0.712 0.0
H762 H 0.29605 0.96515 0.24739 0.0
H763 H 0.31366 0.956 0.36433 0.0
H764 H 0.29139 1.00263 0.49555 0.0
H765 H 0.2741 1.01219 0.37552 0.0
H766 H 0.32557 1.00547 0.49977 0.0
H767 H 0.29054 0.95603 0.57898 0.0
H768 H 0.26978 0.92911 0.5752 0.0
H769 H 0.3117 0.89708 0.45604 0.0
H770 H 0.33263 0.92384 0.45771 0.0
H771 H 0.41642 0.98067 0.62829 0.0
H772 H 0.38314 0.97756 0.65557 0.0
H773 H 0.37434 0.95937 0.41272 0.0
H774 H 0.40741 0.96295 0.38456 0.0
H775 H 0.35006 0.94225 0.55088 0.0
H776 H 0.37391 1.00194 0.4265 0.0
H777 H 0.39531 0.02821 0.44207 0.0
H778 H 0.37238 0.03998 0.67398 0.0
H779 H 0.35095 0.01375 0.65937 0.0
C780 C 0.29435 0.97302 0.30219 0.0
C781 C 0.284 0.98948 0.30242 0.0
C782 C 0.30429 0.96767 0.36986 0.0
C783 C 0.30395 0.97858 0.43969 0.0
C784 C 0.29194 0.99398 0.4426 0.0
C785 C 0.28201 0.99941 0.37423 0.0
C786 C 0.3192 0.97622 0.49897 0.0
C787 C 0.33046 0.99164 0.51436 0.0
C788 C 0.32568 0.95835 0.52067 0.0
C789 C 0.31322 0.94202 0.51879 0.0
C790 C 0.29533 0.94329 0.55152 0.0
C791 C 0.28352 0.92804 0.5498 0.0
C792 C 0.28942 0.91139 0.5155 0.0
C793 C 0.30716 0.90997 0.48285 0.0
C794 C 0.31904 0.92517 0.48444 0.0
C795 C 0.40739 0.97548 0.58167 0.0
C796 C 0.41425 0.97213 0.5042 0.0
C797 C 0.38851 0.97362 0.59753 0.0
C798 C 0.37643 0.96814 0.5364 0.0
C799 C 0.38356 0.96335 0.46092 0.0
C800 C 0.40233 0.96557 0.44456 0.0
C801 C 0.35633 0.97122 0.54351 0.0
C802 C 0.34444 0.956 0.54084 0.0
C803 C 0.349 0.98929 0.53638 0.0
C804 C 0.361 1.00579 0.54243 0.0
C805 C 0.37345 1.01016 0.48071 0.0
C806 C 0.38558 0.02504 0.4893 0.0
C807 C 0.38523 0.03576 0.559 0.0
C808 C 0.37264 0.03169 0.61997 0.0
C809 C 0.36052 0.0168 0.61162 0.0
H810 H 0.39469 0.04721 0.56576 0.0
H811 H 0.28025 0.8996 0.51418 0.0
H812 H 0.49829 0.30845 0.30579 0.0
H813 H 0.51218 0.32621 0.41189 0.0
H814 H 0.56089 0.29118 0.40344 0.0
H815 H 0.54736 0.27436 0.28999 0.0
H816 H 0.52589 0.32908 0.54195 0.0
H817 H 0.59813 0.31635 0.43361 0.0
H818 H 0.6155 0.30235 0.32121 0.0
H819 H 0.57202 0.31787 0.15835 0.0
H820 H 0.55451 0.33204 0.26978 0.0
H821 H 0.55411 0.41965 0.61973 0.0
H822 H 0.55812 0.38608 0.6269 0.0
H823 H 0.56377 0.38387 0.36986 0.0
H824 H 0.56123 0.41733 0.36265 0.0
H825 H 0.582 0.35733 0.42483 0.0
H826 H 0.52265 0.38383 0.47966 0.0
H827 H 0.4974 0.40033 0.54862 0.0
H828 H 0.50126 0.36225 0.7451 0.0
H829 H 0.52777 0.34671 0.68162 0.0
C830 C 0.51179 0.30425 0.32783 0.0
C831 C 0.52209 0.29063 0.28784 0.0
C832 C 0.51976 0.31432 0.38946 0.0
C833 C 0.53805 0.31064 0.41392 0.0
C834 C 0.5471 0.29484 0.38337 0.0
C835 C 0.53928 0.28506 0.31929 0.0
C836 C 0.54808 0.32551 0.45773 0.0
C837 C 0.53839 0.33514 0.51759 0.0
C838 C 0.56454 0.33337 0.42684 0.0
C839 C 0.57498 0.32497 0.35988 0.0
C840 C 0.59233 0.31674 0.37375 0.0
C841 C 0.60218 0.3088 0.31028 0.0
C842 C 0.59483 0.30916 0.23275 0.0
C843 C 0.57767 0.31756 0.21842 0.0
C844 C 0.5678 0.32556 0.28162 0.0
C845 C 0.55696 0.41211 0.56502 0.0
C846 C 0.55691 0.42115 0.49016 0.0
C847 C 0.55914 0.39289 0.56939 0.0
C848 C 0.5608 0.38238 0.49907 0.0
C849 C 0.56241 0.39158 0.42523 0.0
C850 C 0.56063 0.41076 0.42092 0.0
C851 C 0.5581 0.36201 0.49931 0.0
C852 C 0.5698 0.35112 0.45132 0.0
C853 C 0.54228 0.35373 0.53436 0.0
C854 C 0.52771 0.36448 0.57698 0.0
C855 C 0.51866 0.37945 0.5392 0.0
C856 C 0.50414 0.3887 0.57759 0.0
C857 C 0.49799 0.38264 0.65234 0.0
C858 C 0.50646 0.3674 0.68892 0.0
C859 C 0.5214 0.3585 0.65219 0.0
H860 H 0.48649 0.38957 0.68133 0.0
H861 H 0.60247 0.30298 0.18375 0.0
H862 H 0.21995 0.50101 0.29605 0.0
H863 H 0.20012 0.51381 0.3986 0.0
H864 H 0.23174 0.56443 0.39671 0.0
H865 H 0.25079 0.55193 0.28787 0.0
H866 H 0.19305 0.52909 0.52471 0.0
H867 H 0.2038 0.60017 0.38929 0.0
H868 H 0.21881 0.61503 0.27301 0.0
H869 H 0.20928 0.56636 0.13134 0.0
H870 H 0.19406 0.55136 0.24651 0.0
H871 H 0.10135 0.56077 0.57717 0.0
H872 H 0.13503 0.56325 0.58695 0.0
H873 H 0.13896 0.56186 0.32908 0.0
H874 H 0.10544 0.56023 0.31879 0.0
H875 H 0.16474 0.58221 0.38081 0.0
H876 H 0.13835 0.52452 0.45277 0.0
H877 H 0.12165 0.50033 0.52649 0.0
H878 H 0.15857 0.50678 0.72558 0.0
H879 H 0.17422 0.53236 0.65718 0.0
C880 C 0.22311 0.51461 0.31968 0.0
C881 C 0.23625 0.52582 0.282 0.0
C882 C 0.21182 0.52196 0.37904 0.0
C883 C 0.21379 0.54053 0.40262 0.0
C884 C 0.22947 0.55035 0.3769 0.0
C885 C 0.2405 0.54314 0.31534 0.0
C886 C 0.19727 0.55017 0.43593 0.0
C887 C 0.18696 0.54101 0.49486 0.0
C888 C 0.18921 0.56558 0.39602 0.0
C889 C 0.19807 0.57463 0.32654 0.0
C890 C 0.2049 0.59271 0.33321 0.0
C891 C 0.21343 0.60114 0.26755 0.0
C892 C 0.21505 0.59162 0.19492 0.0
C893 C 0.20804 0.57371 0.1876 0.0
C894 C 0.19944 0.56526 0.25294 0.0
C895 C 0.10937 0.56168 0.52251 0.0
C896 C 0.10079 0.56009 0.447 0.0
C897 C 0.12861 0.563 0.52838 0.0
C898 C 0.13954 0.5625 0.45902 0.0
C899 C 0.13086 0.56229 0.38362 0.0
C900 C 0.11168 0.56113 0.37768 0.0
C901 C 0.15988 0.55984 0.46334 0.0
C902 C 0.17098 0.57078 0.41352 0.0
C903 C 0.16805 0.54479 0.50545 0.0
C904 C 0.1571 0.53092 0.55068 0.0
C905 C 0.1424 0.52141 0.51379 0.0
C906 C 0.13305 0.50744 0.55491 0.0
C907 C 0.13875 0.50229 0.63173 0.0
C908 C 0.1537 0.51121 0.66763 0.0
C909 C 0.16267 0.52562 0.62809 0.0
H910 H 0.13174 0.49123 0.663 0.0
H911 H 0.2217 0.59815 0.14428 0.0
H912 H 0.06761 0.79178 0.23586 0.0
H913 H 0.07755 0.812 0.12731 0.0
H914 H 0.033 0.79209 0.97933 0.0
H915 H 0.02281 0.77196 0.08853 0.0
H916 H 0.08011 0.81602 0.93458 0.0
H917 H 1.00952 0.81966 0.99468 0.0
H918 H 0.98404 0.81347 0.08941 0.0
H919 H 0.01593 0.83688 0.28123 0.0
H920 H 0.04173 0.84273 0.18783 0.0
H921 H 0.04629 0.91021 0.80484 0.0
H922 H 0.05226 0.87689 0.81711 0.0
H923 H 0.07107 0.8849 0.05958 0.0
H924 H 0.06497 0.91808 0.04844 0.0
H925 H 0.03549 0.86418 0.02474 0.0
H926 H 0.10079 0.86918 0.9525 0.0
H927 H 0.12599 0.87692 0.85901 0.0
H928 H 0.10426 0.83862 0.68665 0.0
H929 H 0.07879 0.83083 0.7788 0.0
C930 C 0.06058 0.79096 0.17859 0.0
C931 C 0.04421 0.78074 0.17086 0.0
C932 C 0.06636 0.8024 0.11632 0.0
C933 C 0.05577 0.80375 0.04613 0.0
C934 C 0.0413 0.79121 0.0333 0.0
C935 C 0.03547 0.77974 0.09579 0.0
C936 C 0.05565 0.82172 0.00429 0.0
C937 C 0.07014 0.8265 0.9524 0.0
C938 C 0.04275 0.8354 0.02835 0.0
C939 C 0.02754 0.83141 0.08479 0.0
C940 C 1.01111 0.8233 0.05727 0.0
C941 C 0.99664 0.81983 0.11067 0.0
C942 C 0.99839 0.82471 0.19136 0.0
C943 C 0.01461 0.83304 0.21883 0.0
C944 C 0.02919 0.83634 0.16583 0.0
C945 C 0.05214 0.90489 0.86004 0.0
C946 C 0.05483 0.91664 0.9263 0.0
C947 C 0.05573 0.88593 0.86648 0.0
C948 C 0.06209 0.87856 0.93906 0.0
C949 C 0.06634 0.89047 0.00278 0.0
C950 C 0.06282 0.9094 0.99639 0.0
C951 C 0.06007 0.85868 0.9557 0.0
C952 C 0.04513 0.85364 0.00397 0.0
C953 C 0.0724 0.84496 0.92704 0.0
C954 C 0.08778 0.84957 0.87219 0.0
C955 C 0.10128 0.86255 0.89437 0.0
C956 C 0.11565 0.86691 0.8417 0.0
C957 C 0.1167 0.85831 0.76685 0.0
C958 C 0.10342 0.84529 0.74461 0.0
C959 C 0.08903 0.84088 0.79707 0.0
H960 H 0.12782 0.86171 0.72615 0.0
H961 H 0.98713 0.82212 0.23245 0.0
H962 H 0.73294 0.95381 0.15834 0.0
H963 H 0.71167 0.94543 0.05073 0.0
H964 H 0.71922 0.99928 0.94394 0.0
H965 H 0.74098 1.00725 0.04944 0.0
H966 H 0.68395 0.9676 0.0818 0.0
H967 H 0.69469 1.00452 0.77195 0.0
H968 H 0.71742 1.00492 0.6622 0.0
H969 H 0.73766 0.95144 0.734 0.0
H970 H 0.71484 0.95051 0.84348 0.0
H971 H 0.61788 0.03222 0.964 0.0
H972 H 0.6487 0.01796 0.96494 0.0
H973 H 0.62627 0.96812 0.8626 0.0
H974 H 0.59544 0.98241 0.8594 0.0
H975 H 0.66683 0.98679 0.80631 0.0
H976 H 0.6291 0.95886 0.02025 0.0
H977 H 0.60676 0.96165 0.1313 0.0
H978 H 0.64299 0.99932 0.25272 0.0
H979 H 0.66539 0.99703 0.14159 0.0
C980 C 0.73108 0.96326 0.10849 0.0
C981 C 0.7382 0.98125 0.11225 0.0
C982 C 0.71894 0.95848 0.04687 0.0
C983 C 0.7134 0.97193 0.99064 0.0
C984 C 0.7232 0.98864 0.98648 0.0
C985 C 0.73561 0.99328 0.04726 0.0
C986 C 0.69404 0.97187 0.96127 0.0
C987 C 0.68026 0.9711 0.02057 0.0
C988 C 0.68913 0.97696 0.88203 0.0
C989 C 0.70302 0.97747 0.81643 0.0
C990 C 0.70388 0.99276 0.76419 0.0
C991 C 0.71681 0.9931 0.70198 0.0
C992 C 0.72898 0.97822 0.69115 0.0
C993 C 0.72825 0.96298 0.74258 0.0
C994 C 0.71534 0.96256 0.80489 0.0
C995 C 0.61961 0.01839 0.93991 0.0
C996 C 0.60431 1.0083 0.91262 0.0
C997 C 0.63717 1.01032 0.94023 0.0
C998 C 0.63965 0.99212 0.91289 0.0
C999 C 0.62459 0.9823 0.88223 0.0
C1000 C 0.607 0.99035 0.88198 0.0
C1001 C 0.65747 0.98279 0.9271 0.0
C1002 C 0.67071 0.98223 0.86587 0.0
C1003 C 0.66214 0.97674 0.00479 0.0
C1004 C 0.64882 0.97789 0.07225 0.0
C1005 C 0.63222 0.96787 0.07026 0.0
C1006 C 0.61956 0.96934 0.13328 0.0
C1007 C 0.62344 0.98069 0.19893 0.0
C1008 C 0.64 0.99056 0.20179 0.0
C1009 C 0.65268 0.98917 0.13882 0.0
H1010 H 0.61363 0.9818 0.24767 0.0
H1011 H 0.73896 0.97851 0.64289 0.0
H1012 H 0.47573 0.74011 0.09615 0.0
H1013 H 0.47637 0.7234 0.96962 0.0
H1014 H 0.53181 0.74279 0.92583 0.0
H1015 H 0.53129 0.75935 0.05391 0.0
H1016 H 0.48644 0.72145 0.8046 0.0
H1017 H 0.5562 0.70873 0.92063 0.0
H1018 H 0.57613 0.71464 0.03829 0.0
H1019 H 0.53008 0.70517 0.1952 0.0
H1020 H 0.50989 0.69939 0.07825 0.0
H1021 H 0.52074 0.61802 0.77665 0.0
H1022 H 0.52373 0.65142 0.75553 0.0
H1023 H 0.47707 0.66085 0.91094 0.0
H1024 H 0.47335 0.62765 0.9287 0.0
H1025 H 0.52627 0.67181 0.91868 0.0
H1026 H 0.46122 0.67264 0.79991 0.0
H1027 H 0.43988 0.66793 0.68731 0.0
H1028 H 0.47368 0.70233 0.53808 0.0
H1029 H 0.49612 0.70597 0.6482 0.0
C1030 C 0.4877 0.7415 0.05762 0.0
C1031 C 0.50365 0.75045 0.08514 0.0
C1032 C 0.488 0.73215 0.98483 0.0
C1033 C 0.50433 0.73149 0.9396 0.0
C1034 C 0.51915 0.74302 0.96054 0.0
C1035 C 0.51888 0.7524 0.03375 0.0
C1036 C 0.50756 0.71471 0.89117 0.0
C1037 C 0.49551 0.71066 0.82764 0.0
C1038 C 0.51952 0.70072 0.92084 0.0
C1039 C 0.53163 0.70372 0.99109 0.0
C1040 C 0.5504 0.70788 0.98032 0.0
C1041 C 0.56169 0.71127 0.04676 0.0
C1042 C 0.55434 0.71039 0.1241 0.0
C1043 C 0.53571 0.70597 0.13523 0.0
C1044 C 0.52435 0.70264 0.06897 0.0
C1045 C 0.51075 0.62721 0.80401 0.0
C1046 C 0.49663 0.62018 0.85323 0.0
C1047 C 0.51233 0.64624 0.79101 0.0
C1048 C 0.49997 0.65852 0.82803 0.0
C1049 C 0.48595 0.65154 0.87742 0.0
C1050 C 0.48406 0.63255 0.88872 0.0
C1051 C 0.50452 0.67827 0.83461 0.0
C1052 C 0.51805 0.68276 0.89132 0.0
C1053 C 0.49376 0.69247 0.79896 0.0
C1054 C 0.48077 0.68901 0.73186 0.0
C1055 C 0.46462 0.67853 0.74244 0.0
C1056 C 0.45221 0.67615 0.67897 0.0
C1057 C 0.45549 0.6847 0.60535 0.0
C1058 C 0.47123 0.69558 0.59493 0.0
C1059 C 0.48392 0.69758 0.65751 0.0
H1060 H 0.44579 0.68297 0.55647 0.0
H1061 H 0.56309 0.71308 0.17541 0.0
H1062 H 0.78577 0.46169 0.20191 0.0
H1063 H 0.8062 0.44984 0.09744 0.0
H1064 H 0.79358 0.49733 0.9505 0.0
H1065 H 0.77333 0.50946 0.05554 0.0
H1066 H 0.81192 0.44983 0.89657 0.0
H1067 H 0.82315 0.51669 0.9896 0.0
H1068 H 0.81932 0.54101 0.09235 0.0
H1069 H 0.83727 0.50295 0.27471 0.0
H1070 H 0.84082 0.47832 0.17295 0.0
H1071 H 0.90666 0.47614 0.7724 0.0
H1072 H 0.87335 0.47168 0.79053 0.0
H1073 H 0.8833 0.45003 0.02742 0.0
H1074 H 0.91647 0.45469 0.01062 0.0
H1075 H 0.86413 0.48503 0.01442 0.0
H1076 H 0.86363 0.42306 0.90218 0.0
H1077 H 0.86911 0.40027 0.79477 0.0
H1078 H 0.83195 0.43005 0.63983 0.0
H1079 H 0.82641 0.45315 0.746 0.0
C1080 C 0.78659 0.4691 0.14556 0.0
C1081 C 0.77843 0.48669 0.13736 0.0
C1082 C 0.7981 0.46222 0.08553 0.0
C1083 C 0.80156 0.47289 0.01709 0.0
C1084 C 0.791 0.48891 0.00302 0.0
C1085 C 0.77949 0.49587 0.06327 0.0
C1086 C 0.81994 0.47108 0.98 0.0
C1087 C 0.82336 0.45769 0.92092 0.0
C1088 C 0.83479 0.48124 0.01253 0.0
C1089 C 0.83203 0.4957 0.07415 0.0
C1090 C 0.82609 0.5135 0.05179 0.0
C1091 C 0.82397 0.52732 0.10974 0.0
C1092 C 0.82803 0.52351 0.18997 0.0
C1093 C 0.83412 0.50586 0.21253 0.0
C1094 C 0.8361 0.49195 0.15485 0.0
C1095 C 0.90175 0.46999 0.82757 0.0
C1096 C 0.91408 0.46614 0.89087 0.0
C1097 C 0.88277 0.46726 0.83729 0.0
C1098 C 0.87597 0.46061 0.91025 0.0
C1099 C 0.88839 0.45507 0.97045 0.0
C1100 C 0.90733 0.45777 0.9608 0.0
C1101 C 0.8564 0.46357 0.93133 0.0
C1102 C 0.85277 0.47729 0.98838 0.0
C1103 C 0.84158 0.45395 0.89524 0.0
C1104 C 0.84476 0.43994 0.83183 0.0
C1105 C 0.85676 0.42485 0.84499 0.0
C1106 C 0.85984 0.41184 0.78437 0.0
C1107 C 0.85093 0.41374 0.71045 0.0
C1108 C 0.83886 0.42861 0.69709 0.0
C1109 C 0.83573 0.44165 0.75752 0.0
H1110 H 0.85334 0.40366 0.66359 0.0
H1111 H 0.82656 0.53429 0.23447 0.0
H1112 H 0.98473 0.21903 0.99718 0.0
H1113 H 0.98353 0.18809 0.93609 0.0
H1114 H 0.04255 0.18948 0.89931 0.0
H1115 H 0.04378 0.22002 0.96292 0.0
H1116 H 0.99204 0.16956 0.80085 0.0
H1117 H 0.06149 0.14834 0.94377 0.0
H1118 H 0.08183 0.15984 0.0515 0.0
H1119 H 0.03457 0.18078 0.17883 0.0
H1120 H 0.01392 0.16902 0.0729 0.0
H1121 H 0.01452 0.07877 0.66059 0.0
H1122 H 0.01535 0.1116 0.69594 0.0
H1123 H 1.00979 0.09736 0.94574 0.0
H1124 H 1.00971 0.06449 0.9107 0.0
H1125 H 0.03269 0.12398 0.93865 0.0
H1126 H 0.97288 0.11509 0.82123 0.0
H1127 H 0.95059 0.10575 0.71704 0.0
H1128 H 0.97421 0.14494 0.55345 0.0
H1129 H 0.99691 0.15425 0.65615 0.0
C1130 C 0.99733 0.21298 0.97348 0.0
C1131 C 0.01433 0.22207 0.98431 0.0
C1132 C 0.99667 0.1952 0.9389 0.0
C1133 C 0.013 0.18608 0.91443 0.0
C1134 C 0.02977 0.1959 0.91903 0.0
C1135 C 0.03045 0.21351 0.95456 0.0
C1136 C 0.01282 0.16585 0.89189 0.0
C1137 C 1.00101 0.15963 0.8307 0.0
C1138 C 0.02411 0.1526 0.93192 0.0
C1139 C 0.0362 0.158 -0.00015 0.0
C1140 C 0.05542 0.15518 0.99525 0.0
C1141 C 0.06701 0.16182 0.05581 0.0
C1142 C 0.05951 0.17125 0.12135 0.0
C1143 C 0.04037 0.17363 0.12762 0.0
C1144 C 0.02872 0.16691 0.06753 0.0
C1145 C 0.01357 0.08258 0.72311 0.0
C1146 C 1.01207 0.0688 0.78258 0.0
C1147 C 0.01389 0.10149 0.74342 0.0
C1148 C 1.01234 0.10729 0.82383 0.0
C1149 C 1.01103 0.0935 0.88327 0.0
C1150 C 1.01092 0.07458 0.86304 0.0
C1151 C 1.01208 0.12758 0.8463 0.0
C1152 C 0.02378 0.13384 0.9081 0.0
C1153 C 1.00035 0.14077 0.80796 0.0
C1154 C 0.98671 0.13523 0.74615 0.0
C1155 C 0.97342 0.12161 0.76282 0.0
C1156 C 0.96071 0.11632 0.70402 0.0
C1157 C 0.96103 0.1247 0.62857 0.0
C1158 C 0.97401 0.13844 0.61188 0.0
C1159 C 0.98681 0.14371 0.67032 0.0
H1160 H 0.95118 0.12059 0.58311 0.0
H1161 H 0.06853 0.1766 0.16751 0.0
H1162 H 0.29989 0.03975 0.00796 0.0
H1163 H 0.32846 0.04302 0.92894 0.0
H1164 H 0.34159 0.98554 0.9718 0.0
H1165 H 0.3131 0.98219 0.04832 0.0
H1166 H 0.36271 0.0408 0.97297 0.0
H1167 H 0.36989 0.96741 0.82077 0.0
H1168 H 0.35004 0.94425 0.75549 0.0
H1169 H 0.30796 0.98549 0.71744 0.0
H1170 H 0.32761 1.009 0.78128 0.0
H1171 H 0.45679 0.0212 0.89697 0.0
H1172 H 0.42446 0.02097 0.93926 0.0
H1173 H 0.40713 0.01577 0.69297 0.0
H1174 H 0.43948 0.01536 0.65052 0.0
H1175 H 0.38601 0.99561 0.77338 0.0
H1176 H 0.4033 0.05816 0.80738 0.0
H1177 H 0.4224 0.08434 0.8529 0.0
H1178 H 0.41279 0.06914 0.09802 0.0
H1179 H 0.39382 0.04273 0.05396 0.0
C1180 C 0.30864 0.02773 0.99861 0.0
C1181 C 0.30416 1.01072 0.03467 0.0
C1182 C 0.32511 0.02963 0.95406 0.0
C1183 C 0.33736 0.01452 0.94368 0.0
C1184 C 0.33244 0.9974 0.9773 0.0
C1185 C 0.31611 0.99552 0.02166 0.0
C1186 C 0.35582 0.01674 0.90307 0.0
C1187 C 0.36769 0.03091 0.92902 0.0
C1188 C 0.36241 1.00422 0.84379 0.0
C1189 C 0.35021 0.98999 0.80703 0.0
C1190 C 0.3564 0.97158 0.7986 0.0
C1191 C 0.34517 0.95837 0.76182 0.0
C1192 C 0.32768 0.96336 0.73307 0.0
C1193 C 0.32143 0.9816 0.74059 0.0
C1194 C 0.33259 0.99486 0.77743 0.0
C1195 C 0.44614 0.02008 0.85157 0.0
C1196 C 0.45092 0.01848 0.7701 0.0
C1197 C 0.42752 0.02009 0.87589 0.0
C1198 C 0.41304 0.01884 0.8195 0.0
C1199 C 0.41783 0.01695 0.73812 0.0
C1200 C 0.43646 0.01676 0.71379 0.0
C1201 C 0.39305 0.01914 0.84566 0.0
C1202 C 0.38092 1.00549 0.81693 0.0
C1203 C 0.386 0.03244 0.90041 0.0
C1204 C 0.39725 0.04839 0.92732 0.0
C1205 C 0.40535 0.06035 0.87098 0.0
C1206 C 0.41614 0.07523 0.89653 0.0
C1207 C 0.41883 0.07838 0.97829 0.0
C1208 C 0.4107 0.06668 0.03471 0.0
C1209 C 0.3999 0.05177 0.00948 0.0
H1210 H 0.4272 0.0899 0.99795 0.0
H1211 H 0.31902 0.95311 0.70459 0.0
H1212 H 0.48363 0.32494 0.10419 0.0
H1213 H 0.48291 0.35507 0.03873 0.0
H1214 H 0.52053 0.33486 0.85796 0.0
H1215 H 0.52182 0.30461 0.92623 0.0
H1216 H 0.53195 0.3672 0.90343 0.0
H1217 H 0.47301 0.34575 0.81925 0.0
H1218 H 0.44194 0.33213 0.83218 0.0
H1219 H 0.42549 0.37646 0.98844 0.0
H1220 H 0.45655 0.39023 0.97724 0.0
H1221 H 0.52069 0.44978 0.66332 0.0
H1222 H 0.51988 0.41758 0.71007 0.0
H1223 H 0.48979 0.43475 0.92035 0.0
H1224 H 0.49071 0.46692 0.87455 0.0
H1225 H 0.47468 0.40345 0.85179 0.0
H1226 H 0.53518 0.42483 0.92858 0.0
H1227 H 0.56605 0.43804 0.90432 0.0
H1228 H 0.57942 0.3927 0.74817 0.0
H1229 H 0.54844 0.37941 0.77009 0.0
C1230 C 0.49142 0.32673 0.04933 0.0
C1231 C 0.50268 0.31223 0.02028 0.0
C1232 C 0.491 0.34408 0.01168 0.0
C1233 C 0.50159 0.3475 0.94267 0.0
C1234 C 0.51224 0.33275 0.91118 0.0
C1235 C 0.51275 0.31531 0.94945 0.0
C1236 C 0.50215 0.36665 0.90662 0.0
C1237 C 0.51937 0.37496 0.8911 0.0
C1238 C 0.48585 0.37715 0.89098 0.0
C1239 C 0.46716 0.36892 0.89802 0.0
C1240 C 0.46281 0.35252 0.85686 0.0
C1241 C 0.4452 0.34479 0.86379 0.0
C1242 C 0.43177 0.3534 0.91127 0.0
C1243 C 0.43591 0.36979 0.95177 0.0
C1244 C 0.45351 0.37758 0.94509 0.0
C1245 C 0.51388 0.44674 0.71953 0.0
C1246 C 0.5058 0.4611 0.76515 0.0
C1247 C 0.51347 0.42825 0.74637 0.0
C1248 C 0.50484 0.42359 0.81922 0.0
C1249 C 0.49654 0.43787 0.86406 0.0
C1250 C 0.49714 0.45635 0.83782 0.0
C1251 C 0.50442 0.40395 0.84924 0.0
C1252 C 0.48722 0.39562 0.86401 0.0
C1253 C 0.52072 0.39335 0.8627 0.0
C1254 C 0.53938 0.40127 0.85001 0.0
C1255 C 0.54462 0.41778 0.88833 0.0
C1256 C 0.56214 0.42527 0.87507 0.0
C1257 C 0.57465 0.41627 0.82435 0.0
C1258 C 0.56968 0.3997 0.78713 0.0
C1259 C 0.55214 0.39219 0.79988 0.0
H1260 H 0.58821 0.42209 0.81418 0.0
H1261 H 0.41813 0.34739 0.91655 0.0
H1262 H 0.20148 0.49241 0.08965 0.0
H1263 H 0.17156 0.49257 0.02396 0.0
H1264 H 0.19227 0.53028 0.84511 0.0
H1265 H 0.22223 0.53126 0.91568 0.0
H1266 H 0.16019 0.54165 0.87976 0.0
H1267 H 0.18059 0.48164 0.80843 0.0
H1268 H 0.19388 0.45035 0.82509 0.0
H1269 H 0.14973 0.43597 0.98501 0.0
H1270 H 0.1363 0.46726 0.97012 0.0
H1271 H 0.07615 0.52881 0.64876 0.0
H1272 H 0.10857 0.52839 0.69305 0.0
H1273 H 0.09248 0.50153 0.91265 0.0
H1274 H 0.06016 0.50206 0.8694 0.0
H1275 H 0.12294 0.48477 0.8445 0.0
H1276 H 0.10321 0.54732 0.90703 0.0
H1277 H 0.09042 0.57805 0.87288 0.0
H1278 H 0.13473 0.58675 0.7062 0.0
H1279 H 0.14759 0.5559 0.7382 0.0
C1280 C 0.19983 0.50061 0.03569 0.0
C1281 C 0.21439 0.5119 0.00847 0.0
C1282 C 0.1826 0.50056 0.99739 0.0
C1283 C 0.17936 0.51126 0.92834 0.0
C1284 C 0.19418 0.52189 0.89831 0.0
C1285 C 0.21148 0.52222 0.93793 0.0
C1286 C 0.1603 0.51189 0.89095 0.0
C1287 C 0.15226 0.52912 0.87097 0.0
C1288 C 0.14952 0.49569 0.87938 0.0
C1289 C 0.15755 0.47686 0.88875 0.0
C1290 C 0.1738 0.47185 0.84764 0.0
C1291 C 0.18134 0.4541 0.85667 0.0
C1292 C 0.17268 0.44119 0.90624 0.0
C1293 C 0.15643 0.44599 0.94671 0.0
C1294 C 0.14884 0.46372 0.93792 0.0
C1295 C 0.07949 0.52283 0.70657 0.0
C1296 C 0.06539 0.51549 0.75544 0.0
C1297 C 0.09809 0.52264 0.73198 0.0
C1298 C 0.10312 0.51497 0.8066 0.0
C1299 C 0.08908 0.50752 0.85492 0.0
C1300 C 0.07051 0.50791 0.83009 0.0
C1301 C 0.1229 0.51444 0.8347 0.0
C1302 C 0.13099 0.49724 0.85329 0.0
C1303 C 0.13383 0.53058 0.84279 0.0
C1304 C 0.12625 0.54921 0.82437 0.0
C1305 C 0.11014 0.55572 0.86259 0.0
C1306 C 0.10288 0.57316 0.84364 0.0
C1307 C 0.11172 0.58431 0.78715 0.0
C1308 C 0.12787 0.57807 0.74976 0.0
C1309 C 0.13515 0.56061 0.76827 0.0
H1310 H 0.10608 0.59781 0.77254 0.0
H1311 H 0.17854 0.42746 0.91316 0.0
H1312 H 0.04105 0.80313 0.46935 0.0
H1313 H 0.03741 0.83374 0.53123 0.0
H1314 H 0.98242 0.83809 0.43246 0.0
H1315 H 0.98596 0.80718 0.37201 0.0
H1316 H 1.00515 0.86852 0.3954 0.0
H1317 H 0.98799 0.83444 0.6345 0.0
H1318 H 0.99236 0.81146 0.74242 0.0
H1319 H 0.04315 0.83758 0.81125 0.0
H1320 H 0.03925 0.86052 0.70283 0.0
H1321 H 0.98432 0.95701 0.55541 0.0
H1322 H 0.98415 0.92442 0.51609 0.0
H1323 H 0.03077 0.91389 0.67164 0.0
H1324 H 0.03009 0.94627 0.71507 0.0
H1325 H 1.01185 0.88579 0.68134 0.0
H1326 H 0.0323 0.91801 0.44993 0.0
H1327 H 0.03196 0.941 0.34065 0.0
H1328 H 0.98117 0.91833 0.25108 0.0
H1329 H 0.98108 0.89535 0.3605 0.0
C1330 C 0.02791 0.81031 0.46356 0.0
C1331 C 0.01363 0.80253 0.41727 0.0
C1332 C 0.02588 0.82791 0.49852 0.0
C1333 C 1.00961 0.83837 0.48702 0.0
C1334 C 0.99509 0.83035 0.44281 0.0
C1335 C 0.99701 0.81258 0.40893 0.0
C1336 C 1.00842 0.85813 0.51531 0.0
C1337 C 1.00625 0.87228 0.45815 0.0
C1338 C 1.01082 0.86325 0.59665 0.0
C1339 C 0.01335 0.84918 0.66051 0.0
C1340 C 1.00017 0.83519 0.67223 0.0
C1341 C 1.00255 0.82218 0.73358 0.0
C1342 C 0.01802 0.82307 0.78377 0.0
C1343 C 0.03117 0.83693 0.77253 0.0
C1344 C 0.02887 0.84994 0.71123 0.0
C1345 C 0.99451 0.94774 0.58143 0.0
C1346 C 1.00724 0.95437 0.63834 0.0
C1347 C 0.99454 0.92901 0.55826 0.0
C1348 C 1.00776 0.9164 0.5889 0.0
C1349 C 0.02036 0.92305 0.6466 0.0
C1350 C 0.02001 0.94168 0.67144 0.0
C1351 C 1.00839 0.89641 0.56141 0.0
C1352 C 1.01059 0.88217 0.61853 0.0
C1353 C 1.00666 0.89121 0.47953 0.0
C1354 C 1.00657 0.9051 0.41399 0.0
C1355 C 0.02097 0.91802 0.40732 0.0
C1356 C 0.02087 0.93104 0.34529 0.0
C1357 C 1.00652 0.93116 0.2891 0.0
C1358 C 0.99226 0.91824 0.29475 0.0
C1359 C 0.99228 0.90522 0.35674 0.0
H1360 H 1.00648 0.94124 0.24108 0.0
H1361 H 0.01982 0.81304 0.83138 0.0
H1362 H 0.69682 0.01752 0.25374 0.0
H1363 H 0.6672 0.02037 0.32103 0.0
H1364 H 0.69265 1.00416 0.54436 0.0
H1365 H 0.72257 1.00035 0.47524 0.0
H1366 H 0.6614 0.98684 0.53188 0.0
H1367 H 0.67623 0.05051 0.50248 0.0
H1368 H 0.68634 0.07886 0.43313 0.0
H1369 H 0.64032 0.07481 0.27121 0.0
H1370 H 0.63007 0.0463 0.33892 0.0
H1371 H 0.57492 1.01092 0.73406 0.0
H1372 H 0.60751 1.01013 0.69198 0.0
H1373 H 0.59054 0.01561 0.44543 0.0
H1374 H 0.55809 0.01614 0.48671 0.0
H1375 H 0.61881 0.03982 0.4853 0.0
H1376 H 0.60418 0.97556 0.5214 0.0
H1377 H 0.59506 0.94736 0.59398 0.0
H1378 H 0.64224 0.95265 0.74873 0.0
H1379 H 0.65116 0.98139 0.6795 0.0
C1380 C 0.69626 0.01468 0.31743 0.0
C1381 C 0.71223 1.0086 0.35868 0.0
C1382 C 0.67919 0.01649 0.35632 0.0
C1383 C 0.67743 1.01274 0.43862 0.0
C1384 C 0.69348 1.00722 0.48095 0.0
C1385 C 0.71069 1.00525 0.44157 0.0
C1386 C 0.65866 0.01381 0.47828 0.0
C1387 C 0.65227 0.99864 0.52316 0.0
C1388 C 0.64639 0.029 0.46626 0.0
C1389 C 0.65245 0.0462 0.42555 0.0
C1390 C 0.66833 0.05561 0.4518 0.0
C1391 C 0.67407 0.07171 0.41281 0.0
C1392 C 0.66399 0.07861 0.34774 0.0
C1393 C 0.64811 0.06944 0.32162 0.0
C1394 C 0.64231 0.05333 0.36037 0.0
C1395 C 0.57811 1.0119 0.67082 0.0
C1396 C 0.56373 0.01357 0.6139 0.0
C1397 C 0.59681 1.01139 0.64676 0.0
C1398 C 0.60164 0.01278 0.56522 0.0
C1399 C 0.5873 0.01453 0.50861 0.0
C1400 C 0.56866 0.01475 0.53242 0.0
C1401 C 0.62151 0.01277 0.53805 0.0
C1402 C 0.62806 0.02815 0.49516 0.0
C1403 C 0.63395 0.99787 0.553 0.0
C1404 C 0.62813 0.98091 0.59631 0.0
C1405 C 0.61238 0.97099 0.5721 0.0
C1406 C 0.60725 0.95487 0.61261 0.0
C1407 C 0.61795 0.94832 0.67649 0.0
C1408 C 0.63383 0.95785 0.69986 0.0
C1409 C 0.63887 0.97411 0.66032 0.0
H1410 H 0.61402 0.93578 0.70748 0.0
H1411 H 0.66847 0.09108 0.31762 0.0
H1412 H 0.52976 0.72996 0.43006 0.0
H1413 H 0.53064 0.69935 0.4946 0.0
H1414 H 0.48218 0.68333 0.36094 0.0
H1415 H 0.48054 0.71401 0.30162 0.0
H1416 H 0.47908 0.66764 0.48962 0.0
H1417 H 0.53062 0.67007 0.31059 0.0
H1418 H 0.55962 0.68189 0.25261 0.0
H1419 H 0.58706 0.67484 0.47893 0.0
H1420 H 0.55822 0.66288 0.53828 0.0
H1421 H 0.49127 0.56945 0.4956 0.0
H1422 H 0.49046 0.60218 0.45497 0.0
H1423 H 0.52921 0.61538 0.64221 0.0
H1424 H 0.52892 0.58288 0.68725 0.0
H1425 H 0.53794 0.63223 0.49308 0.0
H1426 H 0.48721 0.62821 0.67175 0.0
H1427 H 0.45826 0.61695 0.73175 0.0
H1428 H 0.42929 0.62839 0.51229 0.0
H1429 H 0.45819 0.63959 0.45095 0.0
C1430 C 0.51902 0.72008 0.41618 0.0
C1431 C 0.50523 0.72455 0.35956 0.0
C1432 C 0.51973 0.70234 0.45195 0.0
C1433 C 0.50685 0.68847 0.43108 0.0
C1434 C 0.49249 0.69341 0.37814 0.0
C1435 C 0.49161 0.7111 0.3437 0.0
C1436 C 0.50817 0.66885 0.46292 0.0
C1437 C 0.49204 0.6601 0.49071 0.0
C1438 C 0.52495 0.65848 0.46425 0.0
C1439 C 0.54224 0.66579 0.42907 0.0
C1440 C 0.54281 0.67116 0.34812 0.0
C1441 C 0.55922 0.67786 0.31498 0.0
C1442 C 0.57513 0.67925 0.36217 0.0
C1443 C 0.57471 0.67381 0.44251 0.0
C1444 C 0.55836 0.66702 0.47589 0.0
C1445 C 0.49953 0.57935 0.52851 0.0
C1446 C 0.51011 0.57353 0.59486 0.0
C1447 C 0.49902 0.5981 0.50536 0.0
C1448 C 0.50957 0.61144 0.54627 0.0
C1449 C 0.52066 0.6055 0.61075 0.0
C1450 C 0.52056 0.58689 0.63612 0.0
C1451 C 0.50895 0.63151 0.52173 0.0
C1452 C 0.52515 0.64015 0.49428 0.0
C1453 C 0.49225 0.64188 0.52133 0.0
C1454 C 0.47496 0.63447 0.55648 0.0
C1455 C 0.47474 0.62809 0.63604 0.0
C1456 C 0.45831 0.62179 0.67038 0.0
C1457 C 0.44195 0.62186 0.62573 0.0
C1458 C 0.44199 0.62828 0.54672 0.0
C1459 C 0.4584 0.63462 0.51217 0.0
H1460 H 0.42923 0.61701 0.65243 0.0
H1461 H 0.58782 0.68446 0.33638 0.0
H1462 H 0.8007 0.48566 0.43249 0.0
H1463 H 0.83134 0.48835 0.49513 0.0
H1464 H 0.83444 0.54512 0.4174 0.0
H1465 H 0.80346 0.54263 0.3571 0.0
H1466 H 0.86504 0.51982 0.36694 0.0
H1467 H 0.83174 0.53908 0.60417 0.0
H1468 H 0.80922 0.53615 0.71426 0.0
H1469 H 0.83593 0.4861 0.7927 0.0
H1470 H 0.85826 0.48841 0.68152 0.0
H1471 H 0.95404 0.54006 0.52177 0.0
H1472 H 0.92137 0.54051 0.48353 0.0
H1473 H 0.9112 0.49421 0.64054 0.0
H1474 H 0.9437 0.49436 0.68176 0.0
H1475 H 0.88336 0.51444 0.65239 0.0
H1476 H 0.91442 0.49169 0.42222 0.0
H1477 H 0.93705 0.49067 0.31181 0.0
H1478 H 0.91468 0.54129 0.21639 0.0
H1479 H 0.89207 0.54275 0.32693 0.0
C1480 C 0.8076 0.49893 0.43162 0.0
C1481 C 0.79947 0.51404 0.39103 0.0
C1482 C 0.82521 0.50042 0.4669 0.0
C1483 C 0.83532 0.51693 0.46102 0.0
C1484 C 0.82693 0.53225 0.42318 0.0
C1485 C 0.80911 0.5309 0.38951 0.0
C1486 C 0.85514 0.51763 0.4879 0.0
C1487 C 0.86906 0.51899 0.42951 0.0
C1488 C 0.86049 0.51559 0.56914 0.0
C1489 C 0.84661 0.51385 0.63412 0.0
C1490 C 0.83265 0.52729 0.64412 0.0
C1491 C 0.81993 0.52575 0.70682 0.0
C1492 C 0.82111 0.5109 0.76034 0.0
C1493 C 0.83498 0.49753 0.75108 0.0
C1494 C 0.84766 0.49895 0.68823 0.0
C1495 C 0.94485 0.52997 0.54825 0.0
C1496 C 0.95162 0.51717 0.60494 0.0
C1497 C 0.92608 0.53014 0.5258 0.0
C1498 C 0.91355 0.51714 0.55747 0.0
C1499 C 0.92033 0.50445 0.61479 0.0
C1500 C 0.93903 0.50453 0.63842 0.0
C1501 C 0.8935 0.51684 0.53141 0.0
C1502 C 0.87948 0.5154 0.58973 0.0
C1503 C 0.88804 0.51817 0.4497 0.0
C1504 C 0.9017 0.51745 0.38345 0.0
C1505 C 0.91443 0.50269 0.37811 0.0
C1506 C 0.92723 0.50202 0.31542 0.0
C1507 C 0.92733 0.51594 0.25727 0.0
C1508 C 0.91461 0.53054 0.26159 0.0
C1509 C 0.90179 0.5313 0.32423 0.0
H1510 H 0.93724 0.51538 0.20874 0.0
H1511 H 0.81132 0.50977 0.80911 0.0
loop_
_geom_bond_atom_site_label_1
_geom_bond_atom_site_label_2
_geom_bond_distance
_geom_bond_site_symmetry_2
_ccdc_geom_bond_type
H0 C1 0.949 . S
C1 H0 0.949 . S
C1 C2 1.395 . S
C1 C3 1.391 . S
C2 C1 1.395 . S
C2 C5 1.390 . S
C3 C1 1.391 . S
C3 C7 1.387 . S
C3 C8 1.491 . S
H4 C5 0.950 . S
C5 C2 1.390 . S
C5 H4 0.950 . S
C5 C6 1.378 . S
C6 C5 1.378 . S
C6 C7 1.409 . S
C7 C3 1.387 . S
C7 C6 1.409 . S
C7 H9 0.951 . S
C8 C3 1.491 . S
C8 C10 1.382 . S
C8 C12 1.404 . S
H9 C7 0.951 . S
C10 C8 1.382 . S
C10 C11 1.390 . S
C10 H15 0.949 . S
C11 C10 1.390 . S
C11 C16 1.399 . S
C12 C8 1.404 . S
C12 H13 0.950 . S
C12 C14 1.375 . S
H13 C12 0.950 . S
C14 C12 1.375 . S
C14 C16 1.382 . S
C14 H18 0.950 . S
H15 C10 0.949 . S
C16 C11 1.399 . S
C16 C14 1.382 . S
C16 H17 0.952 . S
H17 C16 0.952 . S
H18 C14 0.950 . S
H19 C20 0.949 . S
C20 H19 0.949 . S
C20 C21 1.395 . S
C20 C22 1.391 . S
C21 C20 1.395 . S
C21 C24 1.390 1_655 S
C22 C20 1.391 . S
C22 C26 1.387 . S
C22 C27 1.491 . S
H23 C24 0.950 . S
C24 C21 1.390 1_455 S
C24 H23 0.950 . S
C24 C25 1.377 1_455 S
C25 C24 1.377 1_655 S
C25 C26 1.413 . S
C26 C22 1.387 . S
C26 C25 1.413 . S
C26 H28 0.951 . S
C27 C22 1.491 . S
C27 C29 1.407 . S
C27 C31 1.404 . S
H28 C26 0.951 . S
C29 C27 1.407 . S
C29 C30 1.403 . S
C29 H34 0.913 1_655 S
C30 C29 1.403 . S
C30 C35 1.399 . S
C31 C27 1.404 . S
C31 H32 0.950 . S
C31 C33 1.375 . S
H32 C31 0.950 . S
C33 C31 1.375 . S
C33 C35 1.382 . S
C33 H37 0.950 . S
H34 C29 0.913 1_455 S
C35 C30 1.399 . S
C35 C33 1.382 . S
C35 H36 0.952 . S
H36 C35 0.952 . S
H37 C33 0.950 . S
H38 C39 0.949 . S
C39 H38 0.949 . S
C39 C40 1.395 . S
C39 C41 1.391 . S
C40 C39 1.395 . S
C40 C43 1.390 1_565 S
C41 C39 1.391 . S
C41 C45 1.387 . S
C41 C46 1.491 . S
H42 C43 0.950 . S
C43 C40 1.390 1_545 S
C43 H42 0.950 . S
C43 C44 1.377 1_545 S
C44 C43 1.377 1_565 S
C44 C45 1.413 . S
C45 C41 1.387 . S
C45 C44 1.413 . S
C45 H47 0.951 . S
C46 C41 1.491 . S
C46 C48 1.407 . S
C46 C50 1.404 . S
H47 C45 0.951 . S
C48 C46 1.407 . S
C48 C49 1.403 . S
C48 H53 0.913 1_565 S
C49 C48 1.403 . S
C49 C54 1.399 . S
C50 C46 1.404 . S
C50 H51 0.950 . S
C50 C52 1.375 . S
H51 C50 0.950 . S
C52 C50 1.375 . S
C52 C54 1.382 . S
C52 H56 0.950 . S
H53 C48 0.913 1_545 S
C54 C49 1.399 . S
C54 C52 1.382 . S
C54 H55 0.952 . S
H55 C54 0.952 . S
H56 C52 0.950 . S
H57 C58 0.949 . S
C58 H57 0.949 . S
C58 C59 1.395 . S
C58 C60 1.391 . S
C59 C58 1.395 . S
C59 C62 1.390 . S
C60 C58 1.391 . S
C60 C64 1.387 . S
C60 C65 1.491 . S
H61 C62 0.950 . S
C62 C59 1.390 . S
C62 H61 0.950 . S
C62 C63 1.378 . S
C63 C62 1.378 . S
C63 C64 1.409 . S
C64 C60 1.387 . S
C64 C63 1.409 . S
C64 H66 0.951 . S
C65 C60 1.491 . S
C65 C67 1.382 . S
C65 C69 1.404 . S
H66 C64 0.951 . S
C67 C65 1.382 . S
C67 C68 1.390 . S
C67 H72 0.949 . S
C68 C67 1.390 . S
C68 C73 1.399 . S
C69 C65 1.404 . S
C69 H70 0.950 . S
C69 C71 1.375 . S
H70 C69 0.950 . S
C71 C69 1.375 . S
C71 C73 1.382 . S
C71 H75 0.950 . S
H72 C67 0.949 . S
C73 C68 1.399 . S
C73 C71 1.382 . S
C73 H74 0.952 . S
H74 C73 0.952 . S
H75 C71 0.950 . S
H76 C77 0.949 . S
C77 H76 0.949 . S
C77 C78 1.395 . S
C77 C79 1.391 . S
C78 C77 1.395 . S
C78 C81 1.389 . S
C79 C77 1.391 . S
C79 C83 1.387 1_554 S
C79 C84 1.491 . S
H80 C81 0.950 1_556 S
C81 C78 1.389 . S
C81 H80 0.950 1_554 S
C81 C82 1.379 1_554 S
C82 C81 1.379 1_556 S
C82 C83 1.409 . S
C83 C79 1.387 1_556 S
C83 C82 1.409 . S
C83 H85 0.951 . S
C84 C79 1.491 . S
C84 C86 1.382 . S
C84 C88 1.404 1_554 S
H85 C83 0.951 . S
C86 C84 1.382 . S
C86 C87 1.390 . S
C86 H91 0.949 . S
C87 C86 1.390 . S
C87 C92 1.399 . S
C88 C84 1.404 1_556 S
C88 H89 0.950 . S
C88 C90 1.375 . S
H89 C88 0.950 . S
C90 C88 1.375 . S
C90 C92 1.382 1_556 S
C90 H94 0.950 . S
H91 C86 0.949 . S
C92 C87 1.399 . S
C92 C90 1.382 1_554 S
C92 H93 0.952 . S
H93 C92 0.952 . S
H94 C90 0.950 . S
H95 C96 0.949 . S
C96 H95 0.949 . S
C96 C97 1.395 1_655 S
C96 C98 1.391 . S
C97 C96 1.395 1_455 S
C97 C100 1.390 . S
C98 C96 1.391 . S
C98 C102 1.387 1_554 S
C98 C103 1.491 . S
H99 C100 0.950 . S
C100 C97 1.390 . S
C100 H99 0.950 . S
C100 C101 1.378 1_454 S
C101 C100 1.378 1_656 S
C101 C102 1.410 . S
C102 C98 1.387 1_556 S
C102 C101 1.410 . S
C102 H104 0.951 . S
C103 C98 1.491 . S
C103 C105 1.400 . S
C103 C107 1.404 1_554 S
H104 C102 0.951 . S
C105 C103 1.400 . S
C105 C106 1.399 . S
C105 H110 0.922 1_655 S
C106 C105 1.399 . S
C106 C111 1.399 . S
C107 C103 1.404 1_556 S
C107 H108 0.950 . S
C107 C109 1.375 . S
H108 C107 0.950 . S
C109 C107 1.375 . S
C109 C111 1.382 1_556 S
C109 H113 0.950 . S
H110 C105 0.922 1_455 S
C111 C106 1.399 . S
C111 C109 1.382 1_554 S
C111 H112 0.952 . S
H112 C111 0.952 . S
H113 C109 0.950 . S
H114 C115 0.949 . S
C115 H114 0.949 . S
C115 C116 1.395 1_565 S
C115 C117 1.391 . S
C116 C115 1.395 1_545 S
C116 C119 1.395 . S
C117 C115 1.391 . S
C117 C121 1.387 1_554 S
C117 C122 1.491 . S
H118 C119 0.950 1_556 S
C119 C116 1.395 . S
C119 H118 0.950 1_554 S
C119 C120 1.372 1_544 S
C120 C119 1.372 1_566 S
C120 C121 1.410 . S
C121 C117 1.387 1_556 S
C121 C120 1.410 . S
C121 H123 0.951 . S
C122 C117 1.491 . S
C122 C124 1.400 . S
C122 C126 1.404 1_554 S
H123 C121 0.951 . S
C124 C122 1.400 . S
C124 C125 1.399 . S
C124 H129 0.922 1_565 S
C125 C124 1.399 . S
C125 C130 1.399 . S
C126 C122 1.404 1_556 S
C126 H127 0.950 . S
C126 C128 1.375 . S
H127 C126 0.950 . S
C128 C126 1.375 . S
C128 C130 1.382 1_556 S
C128 H132 0.950 . S
H129 C124 0.922 1_545 S
C130 C125 1.399 . S
C130 C128 1.382 1_554 S
C130 H131 0.952 . S
H131 C130 0.952 . S
H132 C128 0.950 . S
H133 C134 0.949 . S
C134 H133 0.949 . S
C134 C135 1.395 . S
C134 C136 1.391 . S
C135 C134 1.395 . S
C135 C138 1.384 1_554 S
C136 C134 1.391 . S
C136 C140 1.387 1_554 S
C136 C141 1.491 . S
H137 C138 0.950 . S
C138 C135 1.384 1_556 S
C138 H137 0.950 . S
C138 C139 1.384 . S
C139 C138 1.384 . S
C139 C140 1.409 . S
C140 C136 1.387 1_556 S
C140 C139 1.409 . S
C140 H142 0.951 . S
C141 C136 1.491 . S
C141 C143 1.382 . S
C141 C145 1.404 1_554 S
H142 C140 0.951 . S
C143 C141 1.382 . S
C143 C144 1.390 . S
C143 H148 0.949 . S
C144 C143 1.390 . S
C144 C149 1.399 . S
C145 C141 1.404 1_556 S
C145 H146 0.950 . S
C145 C147 1.375 . S
H146 C145 0.950 . S
C147 C145 1.375 . S
C147 C149 1.382 1_556 S
C147 H151 0.950 . S
H148 C143 0.949 . S
C149 C144 1.399 . S
C149 C147 1.382 1_554 S
C149 H150 0.952 . S
H150 C149 0.952 . S
H151 C147 0.950 . S
Tb152 C154 2.809 . S
Tb152 O172 2.484 1_455 S
Tb152 O173 2.440 . S
Tb152 O174 2.658 1_565 S
Tb152 O175 2.409 . S
Tb152 O176 2.378 . S
Tb152 O180 2.325 1_455 S
Tb152 O183 2.341 1_565 S
Tb153 C163 2.809 . S
Tb153 O174 2.325 1_655 S
Tb153 O177 2.341 1_545 S
Tb153 O178 2.484 1_655 S
Tb153 O179 2.440 . S
Tb153 O180 2.658 1_545 S
Tb153 O181 2.409 . S
Tb153 O182 2.378 . S
C154 Tb152 2.809 . S
C154 C155 1.514 . S
C154 O172 1.248 1_455 S
C154 O173 1.266 . S
C155 C154 1.514 . S
C155 C156 1.353 1_455 S
C155 C160 1.348 . S
C156 C155 1.353 1_655 S
C156 C157 1.378 1_655 S
C156 H184 0.935 . S
C157 C156 1.378 1_455 S
C157 C158 1.403 . S
C157 H185 0.879 1_455 S
C158 C157 1.403 . S
C158 C159 1.369 . S
C159 C158 1.369 . S
C159 C160 1.408 . S
C159 H186 0.930 . S
C160 C155 1.348 . S
C160 C159 1.408 . S
C160 H187 0.930 . S
C161 O174 1.265 1_565 S
C161 O175 1.278 . S
C162 O176 1.236 1_655 S
C162 O177 1.266 . S
C163 Tb153 2.809 . S
C163 C164 1.514 . S
C163 O178 1.248 1_655 S
C163 O179 1.266 . S
C164 C163 1.514 . S
C164 C165 1.341 1_655 S
C164 C169 1.348 . S
C165 C164 1.341 1_455 S
C165 C166 1.378 1_455 S
C165 H188 0.948 . S
C166 C165 1.378 1_655 S
C166 C167 1.390 . S
C166 H189 0.891 1_655 S
C167 C166 1.390 . S
C167 C168 1.369 . S
C168 C167 1.369 . S
C168 C169 1.408 . S
C168 H190 0.930 . S
C169 C164 1.348 . S
C169 C168 1.408 . S
C169 H191 0.930 . S
C170 O180 1.260 1_545 S
C170 O181 1.285 . S
C171 O182 1.236 1_455 S
C171 O183 1.266 . S
O172 Tb152 2.484 1_655 S
O172 C154 1.248 1_655 S
O173 Tb152 2.440 . S
O173 C154 1.266 . S
O174 Tb152 2.658 1_545 S
O174 Tb153 2.325 1_455 S
O174 C161 1.265 1_545 S
O175 Tb152 2.409 . S
O175 C161 1.278 . S
O176 Tb152 2.378 . S
O176 C162 1.236 1_455 S
O177 Tb153 2.341 1_565 S
O177 C162 1.266 . S
O178 Tb153 2.484 1_455 S
O178 C163 1.248 1_455 S
O179 Tb153 2.440 . S
O179 C163 1.266 . S
O180 Tb152 2.325 1_655 S
O180 Tb153 2.658 1_565 S
O180 C170 1.260 1_565 S
O181 Tb153 2.409 . S
O181 C170 1.285 . S
O182 Tb153 2.378 . S
O182 C171 1.236 1_655 S
O183 Tb152 2.341 1_545 S
O183 C171 1.266 . S
H184 C156 0.935 . S
H185 C157 0.879 1_655 S
H186 C159 0.930 . S
H187 C160 0.930 . S
H188 C165 0.948 . S
H189 C166 0.891 1_455 S
H190 C168 0.930 . S
H191 C169 0.930 . S
Tb192 C194 2.809 . S
Tb192 O212 2.484 1_545 S
Tb192 O213 2.440 . S
Tb192 O214 2.658 . S
Tb192 O215 2.409 . S
Tb192 O216 2.378 . S
Tb192 O220 2.325 1_545 S
Tb192 O223 2.341 . S
Tb193 C203 2.809 . S
Tb193 O214 2.325 1_565 S
Tb193 O217 2.341 . S
Tb193 O218 2.484 1_565 S
Tb193 O219 2.440 . S
Tb193 O220 2.658 . S
Tb193 O221 2.409 . S
Tb193 O222 2.378 . S
C194 Tb192 2.809 . S
C194 C195 1.514 . S
C194 O212 1.248 1_545 S
C194 O213 1.266 . S
C195 C194 1.514 . S
C195 C196 1.348 1_545 S
C195 C200 1.348 . S
C196 C195 1.348 1_565 S
C196 C197 1.378 1_565 S
C196 H224 0.940 . S
C197 C196 1.378 1_545 S
C197 C198 1.396 . S
C197 H225 0.885 1_545 S
C198 C197 1.396 . S
C198 C199 1.369 . S
C199 C198 1.369 . S
C199 C200 1.408 . S
C199 H226 0.930 . S
C200 C195 1.348 . S
C200 C199 1.408 . S
C200 H227 0.930 . S
C201 O214 1.281 . S
C201 O215 1.254 . S
C202 O216 1.236 1_565 S
C202 O217 1.266 . S
C203 Tb193 2.809 . S
C203 C204 1.514 . S
C203 O218 1.248 1_565 S
C203 O219 1.266 . S
C204 C203 1.514 . S
C204 C205 1.336 1_565 S
C204 C209 1.348 . S
C205 C204 1.336 1_545 S
C205 C206 1.378 1_545 S
C205 H228 0.954 . S
C206 C205 1.378 1_565 S
C206 C207 1.383 . S
C206 H229 0.897 1_565 S
C207 C206 1.383 . S
C207 C208 1.369 . S
C208 C207 1.369 . S
C208 C209 1.408 . S
C208 H230 0.930 . S
C209 C204 1.348 . S
C209 C208 1.408 . S
C209 H231 0.930 . S
C210 O220 1.281 . S
C210 O221 1.254 . S
C211 O222 1.236 1_545 S
C211 O223 1.266 . S
O212 Tb192 2.484 1_565 S
O212 C194 1.248 1_565 S
O213 Tb192 2.440 . S
O213 C194 1.266 . S
O214 Tb192 2.658 . S
O214 Tb193 2.325 1_545 S
O214 C201 1.281 . S
O215 Tb192 2.409 . S
O215 C201 1.254 . S
O216 Tb192 2.378 . S
O216 C202 1.236 1_545 S
O217 Tb193 2.341 . S
O217 C202 1.266 . S
O218 Tb193 2.484 1_545 S
O218 C203 1.248 1_545 S
O219 Tb193 2.440 . S
O219 C203 1.266 . S
O220 Tb192 2.325 1_565 S
O220 Tb193 2.658 . S
O220 C210 1.281 . S
O221 Tb193 2.409 . S
O221 C210 1.254 . S
O222 Tb193 2.378 . S
O222 C211 1.236 1_565 S
O223 Tb192 2.341 . S
O223 C211 1.266 . S
H224 C196 0.940 . S
H225 C197 0.885 1_565 S
H226 C199 0.930 . S
H227 C200 0.930 . S
H228 C205 0.954 . S
H229 C206 0.897 1_545 S
H230 C208 0.930 . S
H231 C209 0.930 . S
Tb232 C234 2.809 . S
Tb232 O252 2.484 . S
Tb232 O253 2.440 . S
Tb232 O254 2.658 . S
Tb232 O255 2.409 . S
Tb232 O256 2.378 . S
Tb232 O260 2.325 . S
Tb232 O263 2.341 . S
Tb233 C243 2.809 . S
Tb233 O254 2.325 . S
Tb233 O257 2.341 . S
Tb233 O258 2.484 . S
Tb233 O259 2.440 . S
Tb233 O260 2.658 . S
Tb233 O261 2.409 . S
Tb233 O262 2.378 . S
C234 Tb232 2.809 . S
C234 C235 1.514 . S
C234 O252 1.248 . S
C234 O253 1.266 . S
C235 C234 1.514 . S
C235 C236 1.359 . S
C235 C240 1.348 . S
C236 C235 1.359 . S
C236 C237 1.380 . S
C236 H264 0.929 . S
C237 C236 1.380 . S
C237 C238 1.347 . S
C237 H265 0.931 . S
C238 C237 1.347 . S
C238 C239 1.369 . S
C239 C238 1.369 . S
C239 C240 1.408 . S
C239 H266 0.930 . S
C240 C235 1.348 . S
C240 C239 1.408 . S
C240 H267 0.930 . S
C241 O254 1.281 . S
C241 O255 1.254 . S
C242 O256 1.236 . S
C242 O257 1.266 . S
C243 Tb233 2.809 . S
C243 C244 1.514 . S
C243 O258 1.248 . S
C243 O259 1.266 . S
C244 C243 1.514 . S
C244 C245 1.359 . S
C244 C249 1.348 . S
C245 C244 1.359 . S
C245 C246 1.380 . S
C245 H268 0.929 . S
C246 C245 1.380 . S
C246 C247 1.347 . S
C246 H269 0.931 . S
C247 C246 1.347 . S
C247 C248 1.369 . S
C248 C247 1.369 . S
C248 C249 1.408 . S
C248 H270 0.930 . S
C249 C244 1.348 . S
C249 C248 1.408 . S
C249 H271 0.930 . S
C250 O260 1.281 . S
C250 O261 1.254 . S
C251 O262 1.236 . S
C251 O263 1.266 . S
O252 Tb232 2.484 . S
O252 C234 1.248 . S
O253 Tb232 2.440 . S
O253 C234 1.266 . S
O254 Tb232 2.658 . S
O254 Tb233 2.325 . S
O254 C241 1.281 . S
O255 Tb232 2.409 . S
O255 C241 1.254 . S
O256 Tb232 2.378 . S
O256 C242 1.236 . S
O257 Tb233 2.341 . S
O257 C242 1.266 . S
O258 Tb233 2.484 . S
O258 C243 1.248 . S
O259 Tb233 2.440 . S
O259 C243 1.266 . S
O260 Tb232 2.325 . S
O260 Tb233 2.658 . S
O260 C250 1.281 . S
O261 Tb233 2.409 . S
O261 C250 1.254 . S
O262 Tb233 2.378 . S
O262 C251 1.236 . S
O263 Tb232 2.341 . S
O263 C251 1.266 . S
H264 C236 0.929 . S
H265 C237 0.931 . S
H266 C239 0.930 . S
H267 C240 0.930 . S
H268 C245 0.929 . S
H269 C246 0.931 . S
H270 C248 0.930 . S
H271 C249 0.930 . S
Tb272 C274 2.809 . S
Tb272 O292 2.484 . S
Tb272 O293 2.440 . S
Tb272 O294 2.658 1_655 S
Tb272 O295 2.409 . S
Tb272 O296 2.378 . S
Tb272 O300 2.325 . S
Tb272 O303 2.341 1_655 S
Tb273 C283 2.809 . S
Tb273 O294 2.325 . S
Tb273 O297 2.341 1_455 S
Tb273 O298 2.484 . S
Tb273 O299 2.440 . S
Tb273 O300 2.658 1_455 S
Tb273 O301 2.409 . S
Tb273 O302 2.378 . S
C274 Tb272 2.809 . S
C274 C275 1.514 . S
C274 O292 1.248 . S
C274 O293 1.266 . S
C275 C274 1.514 . S
C275 C276 1.359 . S
C275 C280 1.348 . S
C276 C275 1.359 . S
C276 C277 1.380 . S
C276 H304 0.929 . S
C277 C276 1.380 . S
C277 C278 1.347 . S
C277 H305 0.931 . S
C278 C277 1.347 . S
C278 C279 1.369 . S
C279 C278 1.369 . S
C279 C280 1.408 . S
C279 H306 0.930 . S
C280 C275 1.348 . S
C280 C279 1.408 . S
C280 H307 0.930 . S
C281 O294 1.267 1_655 S
C281 O295 1.274 . S
C282 O296 1.236 . S
C282 O297 1.266 . S
C283 Tb273 2.809 . S
C283 C284 1.514 . S
C283 O298 1.248 . S
C283 O299 1.266 . S
C284 C283 1.514 . S
C284 C285 1.359 . S
C284 C289 1.348 . S
C285 C284 1.359 . S
C285 C286 1.380 . S
C285 H308 0.929 . S
C286 C285 1.380 . S
C286 C287 1.347 . S
C286 H309 0.931 . S
C287 C286 1.347 . S
C287 C288 1.369 . S
C288 C287 1.369 . S
C288 C289 1.408 . S
C288 H310 0.930 . S
C289 C284 1.348 . S
C289 C288 1.408 . S
C289 H311 0.930 . S
C290 O300 1.262 1_455 S
C290 O301 1.281 . S
C291 O302 1.236 . S
C291 O303 1.266 . S
O292 Tb272 2.484 . S
O292 C274 1.248 . S
O293 Tb272 2.440 . S
O293 C274 1.266 . S
O294 Tb272 2.658 1_455 S
O294 Tb273 2.325 . S
O294 C281 1.267 1_455 S
O295 Tb272 2.409 . S
O295 C281 1.274 . S
O296 Tb272 2.378 . S
O296 C282 1.236 . S
O297 Tb273 2.341 1_655 S
O297 C282 1.266 . S
O298 Tb273 2.484 . S
O298 C283 1.248 . S
O299 Tb273 2.440 . S
O299 C283 1.266 . S
O300 Tb272 2.325 . S
O300 Tb273 2.658 1_655 S
O300 C290 1.262 1_655 S
O301 Tb273 2.409 . S
O301 C290 1.281 . S
O302 Tb273 2.378 . S
O302 C291 1.236 . S
O303 Tb272 2.341 1_455 S
O303 C291 1.266 . S
H304 C276 0.929 . S
H305 C277 0.931 . S
H306 C279 0.930 . S
H307 C280 0.930 . S
H308 C285 0.929 . S
H309 C286 0.931 . S
H310 C288 0.930 . S
H311 C289 0.930 . S
H312 C330 0.951 . S
H313 C332 0.951 . S
H314 C334 0.950 . S
H315 C335 0.950 . S
H316 C337 0.950 . S
H317 C340 0.950 1_565 S
H318 C341 0.971 . S
H319 C343 0.950 . S
H320 C344 0.950 . S
H321 C345 0.951 . S
H322 C347 0.951 . S
H323 C349 0.950 . S
H324 C350 0.950 . S
H325 C352 0.950 . S
H326 C355 0.950 1_545 S
H327 C356 0.950 1_545 S
H328 C358 0.950 . S
H329 C359 0.950 . S
C330 H312 0.951 . S
C330 C331 1.368 . S
C330 C332 1.388 . S
C331 C330 1.368 . S
C331 C335 1.382 1_545 S
C332 H313 0.951 . S
C332 C330 1.388 . S
C332 C333 1.372 1_545 S
C333 C332 1.372 1_565 S
C333 C334 1.408 . S
C333 C336 1.498 . S
C334 H314 0.950 . S
C334 C333 1.408 . S
C334 C335 1.374 . S
C335 H315 0.950 . S
C335 C331 1.382 1_565 S
C335 C334 1.374 . S
C336 C333 1.498 . S
C336 C337 1.386 . S
C336 C338 1.376 1_565 S
C337 H316 0.950 . S
C337 C336 1.386 . S
C337 C353 1.377 . S
C338 C336 1.376 1_545 S
C338 C339 1.524 . S
C338 C352 1.377 . S
C339 C338 1.524 . S
C339 C340 1.397 . S
C339 C344 1.363 . S
C340 H317 0.950 1_545 S
C340 C339 1.397 . S
C340 C341 1.334 . S
C341 H318 0.971 . S
C341 C340 1.334 . S
C341 C342 1.287 . S
C342 C341 1.287 . S
C342 C343 1.524 . S
C342 H361 0.913 . S
C343 H319 0.950 . S
C343 C342 1.524 . S
C343 C344 1.415 . S
C344 H320 0.950 . S
C344 C339 1.363 . S
C344 C343 1.415 . S
C345 H321 0.951 . S
C345 C346 1.339 1_565 S
C345 C347 1.388 . S
C346 C345 1.339 1_545 S
C346 C350 1.412 . S
C347 H322 0.951 . S
C347 C345 1.388 . S
C347 C348 1.330 1_565 S
C348 C347 1.330 1_545 S
C348 C349 1.450 . S
C348 C351 1.500 . S
C349 H323 0.950 . S
C349 C348 1.450 . S
C349 C350 1.374 . S
C350 H324 0.950 . S
C350 C346 1.412 . S
C350 C349 1.374 . S
C351 C348 1.500 . S
C351 C352 1.373 . S
C351 C353 1.389 1_545 S
C352 H325 0.950 . S
C352 C338 1.377 . S
C352 C351 1.373 . S
C353 C337 1.377 . S
C353 C351 1.389 1_565 S
C353 C354 1.524 . S
C354 C353 1.524 . S
C354 C355 1.397 . S
C354 C359 1.363 . S
C355 H326 0.950 1_565 S
C355 C354 1.397 . S
C355 C356 1.334 . S
C356 H327 0.950 1_565 S
C356 C355 1.334 . S
C356 C357 1.287 . S
C357 C356 1.287 . S
C357 C358 1.524 . S
C357 H360 0.999 . S
C358 H328 0.950 . S
C358 C357 1.524 . S
C358 C359 1.415 . S
C359 H329 0.950 . S
C359 C354 1.363 . S
C359 C358 1.415 . S
H360 C357 0.999 . S
H361 C342 0.913 . S
H362 C380 0.951 . S
H363 C382 0.951 . S
H364 C384 0.950 . S
H365 C385 0.950 . S
H366 C387 0.950 . S
H367 C390 0.950 . S
H368 C391 0.950 . S
H369 C393 0.950 . S
H370 C394 0.950 . S
H371 C395 0.951 . S
H372 C397 0.951 . S
H373 C399 0.950 . S
H374 C400 0.950 . S
H375 C402 0.950 . S
H376 C405 0.950 . S
H377 C406 0.950 . S
H378 C408 0.950 . S
H379 C409 0.950 . S
C380 H362 0.951 . S
C380 C381 1.366 . S
C380 C382 1.388 . S
C381 C380 1.366 . S
C381 C385 1.385 . S
C382 H363 0.951 . S
C382 C380 1.388 . S
C382 C383 1.366 . S
C383 C382 1.366 . S
C383 C384 1.414 . S
C383 C386 1.499 . S
C384 H364 0.950 . S
C384 C383 1.414 . S
C384 C385 1.374 . S
C385 H365 0.950 . S
C385 C381 1.385 . S
C385 C384 1.374 . S
C386 C383 1.499 . S
C386 C387 1.373 . S
C386 C388 1.389 . S
C387 H366 0.950 . S
C387 C386 1.373 . S
C387 C403 1.377 . S
C388 C386 1.389 . S
C388 C389 1.524 . S
C388 C402 1.377 . S
C389 C388 1.524 . S
C389 C390 1.397 . S
C389 C394 1.363 . S
C390 H367 0.950 . S
C390 C389 1.397 . S
C390 C391 1.334 . S
C391 H368 0.950 . S
C391 C390 1.334 . S
C391 C392 1.287 . S
C392 C391 1.287 . S
C392 C393 1.524 . S
C392 H411 0.913 . S
C393 H369 0.950 . S
C393 C392 1.524 . S
C393 C394 1.415 . S
C394 H370 0.950 . S
C394 C389 1.363 . S
C394 C393 1.415 . S
C395 H371 0.951 . S
C395 C396 1.366 . S
C395 C397 1.388 . S
C396 C395 1.366 . S
C396 C400 1.385 . S
C397 H372 0.951 . S
C397 C395 1.388 . S
C397 C398 1.366 . S
C398 C397 1.366 . S
C398 C399 1.414 . S
C398 C401 1.499 . S
C399 H373 0.950 . S
C399 C398 1.414 . S
C399 C400 1.374 . S
C400 H374 0.950 . S
C400 C396 1.385 . S
C400 C399 1.374 . S
C401 C398 1.499 . S
C401 C402 1.373 . S
C401 C403 1.389 . S
C402 H375 0.950 . S
C402 C388 1.377 . S
C402 C401 1.373 . S
C403 C387 1.377 . S
C403 C401 1.389 . S
C403 C404 1.524 . S
C404 C403 1.524 . S
C404 C405 1.397 . S
C404 C409 1.363 . S
C405 H376 0.950 . S
C405 C404 1.397 . S
C405 C406 1.334 . S
C406 H377 0.950 . S
C406 C405 1.334 . S
C406 C407 1.287 . S
C407 C406 1.287 . S
C407 C408 1.524 . S
C407 H410 0.999 . S
C408 H378 0.950 . S
C408 C407 1.524 . S
C408 C409 1.415 . S
C409 H379 0.950 . S
C409 C404 1.363 . S
C409 C408 1.415 . S
H410 C407 0.999 . S
H411 C392 0.913 . S
H412 C430 0.951 . S
H413 C432 0.951 . S
H414 C434 0.950 . S
H415 C435 0.950 . S
H416 C437 0.950 . S
H417 C440 0.950 . S
H418 C441 0.950 . S
H419 C443 0.950 . S
H420 C444 0.950 . S
H421 C445 0.951 . S
H422 C447 0.951 . S
H423 C449 0.950 . S
H424 C450 0.950 . S
H425 C452 0.950 . S
H426 C455 0.950 . S
H427 C456 0.950 . S
H428 C458 0.950 . S
H429 C459 0.950 . S
C430 H412 0.951 . S
C430 C431 1.366 . S
C430 C432 1.388 . S
C431 C430 1.366 . S
C431 C435 1.385 . S
C432 H413 0.951 . S
C432 C430 1.388 . S
C432 C433 1.366 . S
C433 C432 1.366 . S
C433 C434 1.414 . S
C433 C436 1.499 . S
C434 H414 0.950 . S
C434 C433 1.414 . S
C434 C435 1.374 . S
C435 H415 0.950 . S
C435 C431 1.385 . S
C435 C434 1.374 . S
C436 C433 1.499 . S
C436 C437 1.373 . S
C436 C438 1.389 . S
C437 H416 0.950 . S
C437 C436 1.373 . S
C437 C453 1.377 . S
C438 C436 1.389 . S
C438 C439 1.524 . S
C438 C452 1.377 . S
C439 C438 1.524 . S
C439 C440 1.397 . S
C439 C444 1.363 . S
C440 H417 0.950 . S
C440 C439 1.397 . S
C440 C441 1.334 . S
C441 H418 0.950 . S
C441 C440 1.334 . S
C441 C442 1.287 . S
C442 C441 1.287 . S
C442 C443 1.524 . S
C442 H461 0.913 . S
C443 H419 0.950 . S
C443 C442 1.524 . S
C443 C444 1.415 . S
C444 H420 0.950 . S
C444 C439 1.363 . S
C444 C443 1.415 . S
C445 H421 0.951 . S
C445 C446 1.366 . S
C445 C447 1.388 . S
C446 C445 1.366 . S
C446 C450 1.385 . S
C447 H422 0.951 . S
C447 C445 1.388 . S
C447 C448 1.366 . S
C448 C447 1.366 . S
C448 C449 1.414 . S
C448 C451 1.499 . S
C449 H423 0.950 . S
C449 C448 1.414 . S
C449 C450 1.374 . S
C450 H424 0.950 . S
C450 C446 1.385 . S
C450 C449 1.374 . S
C451 C448 1.499 . S
C451 C452 1.373 . S
C451 C453 1.389 . S
C452 H425 0.950 . S
C452 C438 1.377 . S
C452 C451 1.373 . S
C453 C437 1.377 . S
C453 C451 1.389 . S
C453 C454 1.524 . S
C454 C453 1.524 . S
C454 C455 1.397 . S
C454 C459 1.363 . S
C455 H426 0.950 . S
C455 C454 1.397 . S
C455 C456 1.334 . S
C456 H427 0.950 . S
C456 C455 1.334 . S
C456 C457 1.287 . S
C457 C456 1.287 . S
C457 C458 1.524 . S
C457 H460 0.999 . S
C458 H428 0.950 . S
C458 C457 1.524 . S
C458 C459 1.415 . S
C459 H429 0.950 . S
C459 C454 1.363 . S
C459 C458 1.415 . S
H460 C457 0.999 . S
H461 C442 0.913 . S
H462 C480 0.951 . S
H463 C482 0.951 . S
H464 C484 0.950 . S
H465 C485 0.950 . S
H466 C487 0.950 . S
H467 C490 0.940 1_655 S
H468 C491 0.950 1_655 S
H469 C493 0.950 . S
H470 C494 0.950 . S
H471 C495 0.951 . S
H472 C497 0.951 . S
H473 C499 0.950 . S
H474 C500 0.950 . S
H475 C502 0.950 . S
H476 C505 0.978 . S
H477 C506 0.950 1_455 S
H478 C508 0.950 . S
H479 C509 0.950 . S
C480 H462 0.951 . S
C480 C481 1.368 . S
C480 C482 1.388 . S
C481 C480 1.368 . S
C481 C485 1.382 1_455 S
C482 H463 0.951 . S
C482 C480 1.388 . S
C482 C483 1.369 1_455 S
C483 C482 1.369 1_655 S
C483 C484 1.411 . S
C483 C486 1.498 . S
C484 H464 0.950 . S
C484 C483 1.411 . S
C484 C485 1.374 . S
C485 H465 0.950 . S
C485 C481 1.382 1_655 S
C485 C484 1.374 . S
C486 C483 1.498 . S
C486 C487 1.385 . S
C486 C488 1.377 1_655 S
C487 H466 0.950 . S
C487 C486 1.385 . S
C487 C503 1.377 . S
C488 C486 1.377 1_455 S
C488 C489 1.524 . S
C488 C502 1.377 . S
C489 C488 1.524 . S
C489 C490 1.404 . S
C489 C494 1.363 . S
C490 H467 0.940 1_455 S
C490 C489 1.404 . S
C490 C491 1.336 . S
C491 H468 0.950 1_455 S
C491 C490 1.336 . S
C491 C492 1.287 . S
C492 C491 1.287 . S
C492 C493 1.524 . S
C492 H511 0.913 . S
C493 H469 0.950 . S
C493 C492 1.524 . S
C493 C494 1.415 . S
C494 H470 0.950 . S
C494 C489 1.363 . S
C494 C493 1.415 . S
C495 H471 0.951 . S
C495 C496 1.334 1_655 S
C495 C497 1.388 . S
C496 C495 1.334 1_455 S
C496 C500 1.418 . S
C497 H472 0.951 . S
C497 C495 1.388 . S
C497 C498 1.322 1_655 S
C498 C497 1.322 1_455 S
C498 C499 1.458 . S
C498 C501 1.501 . S
C499 H473 0.950 . S
C499 C498 1.458 . S
C499 C500 1.374 . S
C500 H474 0.950 . S
C500 C496 1.418 . S
C500 C499 1.374 . S
C501 C498 1.501 . S
C501 C502 1.373 . S
C501 C503 1.389 1_455 S
C502 H475 0.950 . S
C502 C488 1.377 . S
C502 C501 1.373 . S
C503 C487 1.377 . S
C503 C501 1.389 1_655 S
C503 C504 1.524 . S
C504 C503 1.524 . S
C504 C505 1.375 1_655 S
C504 C509 1.363 . S
C505 H476 0.978 . S
C505 C504 1.375 1_455 S
C505 C506 1.328 1_455 S
C506 H477 0.950 1_655 S
C506 C505 1.328 1_655 S
C506 C507 1.287 . S
C507 C506 1.287 . S
C507 C508 1.524 . S
C507 H510 0.999 . S
C508 H478 0.950 . S
C508 C507 1.524 . S
C508 C509 1.415 . S
C509 H479 0.950 . S
C509 C504 1.363 . S
C509 C508 1.415 . S
H510 C507 0.999 . S
H511 C492 0.913 . S
H512 C530 0.951 . S
H513 C532 0.951 . S
H514 C534 0.950 . S
H515 C535 0.950 . S
H516 C537 0.950 . S
H517 C540 0.950 . S
H518 C541 0.950 . S
H519 C543 0.950 . S
H520 C544 0.950 1_556 S
H521 C545 0.951 . S
H522 C547 0.951 . S
H523 C549 0.950 . S
H524 C550 0.950 . S
H525 C552 0.950 . S
H526 C555 0.950 . S
H527 C556 0.950 . S
H528 C558 0.950 . S
H529 C559 0.950 . S
C530 H512 0.951 . S
C530 C531 1.366 1_565 S
C530 C532 1.388 . S
C531 C530 1.366 1_545 S
C531 C535 1.384 . S
C532 H513 0.951 . S
C532 C530 1.388 . S
C532 C533 1.390 . S
C533 C532 1.390 . S
C533 C534 1.388 1_565 S
C533 C536 1.499 . S
C534 H514 0.950 . S
C534 C533 1.388 1_545 S
C534 C535 1.374 . S
C535 H515 0.950 . S
C535 C531 1.384 . S
C535 C534 1.374 . S
C536 C533 1.499 . S
C536 C537 1.340 1_565 S
C536 C538 1.422 . S
C537 H516 0.950 . S
C537 C536 1.340 1_545 S
C537 C553 1.377 . S
C538 C536 1.422 . S
C538 C539 1.524 . S
C538 C552 1.377 1_554 S
C539 C538 1.524 . S
C539 C540 1.397 . S
C539 C544 1.363 . S
C540 H517 0.950 . S
C540 C539 1.397 . S
C540 C541 1.334 . S
C541 H518 0.950 . S
C541 C540 1.334 . S
C541 C542 1.287 . S
C542 C541 1.287 . S
C542 C543 1.524 . S
C542 H561 0.913 . S
C543 H519 0.950 . S
C543 C542 1.524 . S
C543 C544 1.415 . S
C544 H520 0.950 1_554 S
C544 C539 1.363 . S
C544 C543 1.415 . S
C545 H521 0.951 . S
C545 C546 1.356 1_545 S
C545 C547 1.388 . S
C546 C545 1.356 1_565 S
C546 C550 1.394 . S
C547 H522 0.951 . S
C547 C545 1.388 . S
C547 C548 1.381 . S
C548 C547 1.381 . S
C548 C549 1.398 1_545 S
C548 C551 1.499 . S
C549 H523 0.950 . S
C549 C548 1.398 1_565 S
C549 C550 1.374 . S
C550 H524 0.950 . S
C550 C546 1.394 . S
C550 C549 1.374 . S
C551 C548 1.499 . S
C551 C552 1.357 1_545 S
C551 C553 1.405 1_556 S
C552 H525 0.950 . S
C552 C538 1.377 1_556 S
C552 C551 1.357 1_565 S
C553 C537 1.377 . S
C553 C551 1.405 1_554 S
C553 C554 1.524 1_554 S
C554 C553 1.524 1_556 S
C554 C555 1.397 . S
C554 C559 1.363 1_556 S
C555 H526 0.950 . S
C555 C554 1.397 . S
C555 C556 1.334 . S
C556 H527 0.950 . S
C556 C555 1.334 . S
C556 C557 1.287 . S
C557 C556 1.287 . S
C557 C558 1.524 1_556 S
C557 H560 0.999 . S
C558 H528 0.950 . S
C558 C557 1.524 1_554 S
C558 C559 1.415 . S
C559 H529 0.950 . S
C559 C554 1.363 1_554 S
C559 C558 1.415 . S
H560 C557 0.999 . S
H561 C542 0.913 . S
H562 C580 0.951 . S
H563 C582 0.951 . S
H564 C584 0.950 . S
H565 C585 0.950 . S
H566 C587 0.950 1_556 S
H567 C590 0.950 . S
H568 C591 0.950 . S
H569 C593 0.950 . S
H570 C594 0.950 . S
H571 C595 0.951 . S
H572 C597 0.951 . S
H573 C599 0.950 . S
H574 C600 0.950 . S
H575 C602 0.950 . S
H576 C605 0.950 . S
H577 C606 0.950 . S
H578 C608 0.950 . S
H579 C609 0.950 . S
C580 H562 0.951 . S
C580 C581 1.366 . S
C580 C582 1.388 . S
C581 C580 1.366 . S
C581 C585 1.385 . S
C582 H563 0.951 . S
C582 C580 1.388 . S
C582 C583 1.366 . S
C583 C582 1.366 . S
C583 C584 1.414 . S
C583 C586 1.499 . S
C584 H564 0.950 . S
C584 C583 1.414 . S
C584 C585 1.374 . S
C585 H565 0.950 . S
C585 C581 1.385 . S
C585 C584 1.374 . S
C586 C583 1.499 . S
C586 C587 1.373 . S
C586 C588 1.389 . S
C587 H566 0.950 1_554 S
C587 C586 1.373 . S
C587 C603 1.377 1_554 S
C588 C586 1.389 . S
C588 C589 1.524 . S
C588 C602 1.377 . S
C589 C588 1.524 . S
C589 C590 1.397 . S
C589 C594 1.363 . S
C590 H567 0.950 . S
C590 C589 1.397 . S
C590 C591 1.334 . S
C591 H568 0.950 . S
C591 C590 1.334 . S
C591 C592 1.287 . S
C592 C591 1.287 . S
C592 C593 1.524 . S
C592 H611 0.913 . S
C593 H569 0.950 . S
C593 C592 1.524 . S
C593 C594 1.415 . S
C594 H570 0.950 . S
C594 C589 1.363 . S
C594 C593 1.415 . S
C595 H571 0.951 . S
C595 C596 1.366 . S
C595 C597 1.388 . S
C596 C595 1.366 . S
C596 C600 1.385 . S
C597 H572 0.951 . S
C597 C595 1.388 . S
C597 C598 1.366 . S
C598 C597 1.366 . S
C598 C599 1.414 . S
C598 C601 1.499 . S
C599 H573 0.950 . S
C599 C598 1.414 . S
C599 C600 1.374 . S
C600 H574 0.950 . S
C600 C596 1.385 . S
C600 C599 1.374 . S
C601 C598 1.499 . S
C601 C602 1.373 1_556 S
C601 C603 1.389 . S
C602 H575 0.950 . S
C602 C588 1.377 . S
C602 C601 1.373 1_554 S
C603 C587 1.377 1_556 S
C603 C601 1.389 . S
C603 C604 1.524 . S
C604 C603 1.524 . S
C604 C605 1.397 . S
C604 C609 1.363 . S
C605 H576 0.950 . S
C605 C604 1.397 . S
C605 C606 1.334 . S
C606 H577 0.950 . S
C606 C605 1.334 . S
C606 C607 1.287 . S
C607 C606 1.287 . S
C607 C608 1.524 . S
C607 H610 0.999 . S
C608 H578 0.950 . S
C608 C607 1.524 . S
C608 C609 1.415 . S
C609 H579 0.950 . S
C609 C604 1.363 . S
C609 C608 1.415 . S
H610 C607 0.999 . S
H611 C592 0.913 . S
H612 C630 0.951 . S
H613 C632 0.951 . S
H614 C634 0.950 . S
H615 C635 0.950 . S
H616 C637 0.950 . S
H617 C640 0.950 . S
H618 C641 0.950 . S
H619 C643 0.950 . S
H620 C644 0.950 . S
H621 C645 0.951 . S
H622 C647 0.951 . S
H623 C649 0.950 1_554 S
H624 C650 0.950 . S
H625 C652 0.950 . S
H626 C655 0.950 . S
H627 C656 0.950 . S
H628 C658 0.950 . S
H629 C659 0.950 . S
C630 H612 0.951 . S
C630 C631 1.366 . S
C630 C632 1.388 . S
C631 C630 1.366 . S
C631 C635 1.385 . S
C632 H613 0.951 . S
C632 C630 1.388 . S
C632 C633 1.366 . S
C633 C632 1.366 . S
C633 C634 1.414 . S
C633 C636 1.499 . S
C634 H614 0.950 . S
C634 C633 1.414 . S
C634 C635 1.374 . S
C635 H615 0.950 . S
C635 C631 1.385 . S
C635 C634 1.374 . S
C636 C633 1.499 . S
C636 C637 1.373 . S
C636 C638 1.389 . S
C637 H616 0.950 . S
C637 C636 1.373 . S
C637 C653 1.377 1_554 S
C638 C636 1.389 . S
C638 C639 1.524 . S
C638 C652 1.377 . S
C639 C638 1.524 . S
C639 C640 1.397 . S
C639 C644 1.363 . S
C640 H617 0.950 . S
C640 C639 1.397 . S
C640 C641 1.334 . S
C641 H618 0.950 . S
C641 C640 1.334 . S
C641 C642 1.287 . S
C642 C641 1.287 . S
C642 C643 1.524 . S
C642 H661 0.913 . S
C643 H619 0.950 . S
C643 C642 1.524 . S
C643 C644 1.415 . S
C644 H620 0.950 . S
C644 C639 1.363 . S
C644 C643 1.415 . S
C645 H621 0.951 . S
C645 C646 1.366 . S
C645 C647 1.388 . S
C646 C645 1.366 . S
C646 C650 1.385 . S
C647 H622 0.951 . S
C647 C645 1.388 . S
C647 C648 1.366 . S
C648 C647 1.366 . S
C648 C649 1.414 . S
C648 C651 1.499 . S
C649 H623 0.950 1_556 S
C649 C648 1.414 . S
C649 C650 1.374 . S
C650 H624 0.950 . S
C650 C646 1.385 . S
C650 C649 1.374 . S
C651 C648 1.499 . S
C651 C652 1.373 1_556 S
C651 C653 1.389 . S
C652 H625 0.950 . S
C652 C638 1.377 . S
C652 C651 1.373 1_554 S
C653 C637 1.377 1_556 S
C653 C651 1.389 . S
C653 C654 1.524 . S
C654 C653 1.524 . S
C654 C655 1.397 . S
C654 C659 1.363 . S
C655 H626 0.950 . S
C655 C654 1.397 . S
C655 C656 1.334 . S
C656 H627 0.950 . S
C656 C655 1.334 . S
C656 C657 1.287 . S
C657 C656 1.287 . S
C657 C658 1.524 . S
C657 H660 0.999 . S
C658 H628 0.950 . S
C658 C657 1.524 . S
C658 C659 1.415 . S
C659 H629 0.950 . S
C659 C654 1.363 . S
C659 C658 1.415 . S
H660 C657 0.999 . S
H661 C642 0.913 . S
H662 C680 0.951 . S
H663 C682 0.951 . S
H664 C684 0.950 . S
H665 C685 0.950 . S
H666 C687 0.950 1_556 S
H667 C690 0.950 . S
H668 C691 0.950 . S
H669 C693 0.950 . S
H670 C694 0.950 . S
H671 C695 0.951 . S
H672 C697 0.951 . S
H673 C699 0.950 . S
H674 C700 0.950 . S
H675 C702 0.950 . S
H676 C705 0.950 . S
H677 C706 0.950 . S
H678 C708 0.950 . S
H679 C709 0.950 . S
C680 H662 0.951 . S
C680 C681 1.369 . S
C680 C682 1.388 . S
C681 C680 1.369 . S
C681 C685 1.382 1_655 S
C682 H663 0.951 . S
C682 C680 1.388 . S
C682 C683 1.352 1_655 S
C683 C682 1.352 1_455 S
C683 C684 1.427 . S
C683 C686 1.498 . S
C684 H664 0.950 . S
C684 C683 1.427 . S
C684 C685 1.374 . S
C685 H665 0.950 . S
C685 C681 1.382 1_455 S
C685 C684 1.374 . S
C686 C683 1.498 . S
C686 C687 1.376 . S
C686 C688 1.385 1_455 S
C687 H666 0.950 1_554 S
C687 C686 1.376 . S
C687 C703 1.376 1_554 S
C688 C686 1.385 1_655 S
C688 C689 1.523 1_655 S
C688 C702 1.381 . S
C689 C688 1.523 1_455 S
C689 C690 1.396 . S
C689 C694 1.363 1_455 S
C690 H667 0.950 . S
C690 C689 1.396 . S
C690 C691 1.334 . S
C691 H668 0.950 . S
C691 C690 1.334 . S
C691 C692 1.287 . S
C692 C691 1.287 . S
C692 C693 1.524 1_455 S
C692 H711 0.913 . S
C693 H669 0.950 . S
C693 C692 1.524 1_655 S
C693 C694 1.415 . S
C694 H670 0.950 . S
C694 C689 1.363 1_655 S
C694 C693 1.415 . S
C695 H671 0.951 . S
C695 C696 1.340 1_455 S
C695 C697 1.388 . S
C696 C695 1.340 1_655 S
C696 C700 1.411 . S
C697 H672 0.951 . S
C697 C695 1.388 . S
C697 C698 1.366 1_455 S
C698 C697 1.366 1_655 S
C698 C699 1.414 . S
C698 C701 1.499 . S
C699 H673 0.950 . S
C699 C698 1.414 . S
C699 C700 1.374 . S
C700 H674 0.950 . S
C700 C696 1.411 . S
C700 C699 1.374 . S
C701 C698 1.499 . S
C701 C702 1.373 1_556 S
C701 C703 1.390 1_655 S
C702 H675 0.950 . S
C702 C688 1.381 . S
C702 C701 1.373 1_554 S
C703 C687 1.376 1_556 S
C703 C701 1.390 1_455 S
C703 C704 1.523 1_455 S
C704 C703 1.523 1_655 S
C704 C705 1.442 . S
C704 C709 1.325 1_655 S
C705 H676 0.950 . S
C705 C704 1.442 . S
C705 C706 1.334 . S
C706 H677 0.950 . S
C706 C705 1.334 . S
C706 C707 1.287 . S
C707 C706 1.287 . S
C707 C708 1.524 1_655 S
C707 H710 0.999 . S
C708 H678 0.950 . S
C708 C707 1.524 1_455 S
C708 C709 1.415 . S
C709 H679 0.950 . S
C709 C704 1.325 1_455 S
C709 C708 1.415 . S
H710 C707 0.999 . S
H711 C692 0.913 . S
H712 C730 0.951 . S
H713 C732 0.951 . S
H714 C734 0.950 . S
H715 C735 0.950 . S
H716 C737 0.980 . S
H717 C740 0.950 1_455 S
H718 C741 0.950 . S
H719 C743 0.950 . S
H720 C744 0.950 . S
H721 C745 0.951 1_455 S
H722 C747 0.959 . S
H723 C749 0.950 . S
H724 C750 0.950 . S
H725 C752 0.950 . S
H726 C755 0.950 . S
H727 C756 0.950 . S
H728 C758 0.950 . S
H729 C759 0.950 . S
C730 H712 0.951 . S
C730 C731 1.320 1_655 S
C730 C732 1.388 . S
C731 C730 1.320 1_455 S
C731 C735 1.425 . S
C732 H713 0.951 . S
C732 C730 1.388 . S
C732 C733 1.366 . S
C733 C732 1.366 . S
C733 C734 1.414 1_655 S
C733 C736 1.499 . S
C734 H714 0.950 . S
C734 C733 1.414 1_455 S
C734 C735 1.374 . S
C735 H715 0.950 . S
C735 C731 1.425 . S
C735 C734 1.374 . S
C736 C733 1.499 . S
C736 C737 1.355 1_655 S
C736 C738 1.389 . S
C737 H716 0.980 . S
C737 C736 1.355 1_455 S
C737 C753 1.368 1_455 S
C738 C736 1.389 . S
C738 C739 1.524 . S
C738 C752 1.377 . S
C739 C738 1.524 . S
C739 C740 1.397 . S
C739 C744 1.363 . S
C740 H717 0.950 1_655 S
C740 C739 1.397 . S
C740 C741 1.334 . S
C741 H718 0.950 . S
C741 C740 1.334 . S
C741 C742 1.287 . S
C742 C741 1.287 . S
C742 C743 1.524 . S
C742 H761 0.913 . S
C743 H719 0.950 . S
C743 C742 1.524 . S
C743 C744 1.415 . S
C744 H720 0.950 . S
C744 C739 1.363 . S
C744 C743 1.415 . S
C745 H721 0.951 1_655 S
C745 C746 1.366 . S
C745 C747 1.387 1_655 S
C746 C745 1.366 . S
C746 C750 1.385 . S
C747 H722 0.959 . S
C747 C745 1.387 1_455 S
C747 C748 1.359 1_455 S
C748 C747 1.359 1_655 S
C748 C749 1.414 . S
C748 C751 1.499 . S
C749 H723 0.950 . S
C749 C748 1.414 . S
C749 C750 1.374 . S
C750 H724 0.950 . S
C750 C746 1.385 . S
C750 C749 1.374 . S
C751 C748 1.499 . S
C751 C752 1.373 . S
C751 C753 1.389 . S
C752 H725 0.950 . S
C752 C738 1.377 . S
C752 C751 1.373 . S
C753 C737 1.368 1_655 S
C753 C751 1.389 . S
C753 C754 1.524 1_655 S
C754 C753 1.524 1_455 S
C754 C755 1.397 1_455 S
C754 C759 1.363 . S
C755 H726 0.950 . S
C755 C754 1.397 1_655 S
C755 C756 1.334 . S
C756 H727 0.950 . S
C756 C755 1.334 . S
C756 C757 1.287 1_655 S
C757 C756 1.287 1_455 S
C757 C758 1.524 . S
C757 H760 0.999 . S
C758 H728 0.950 . S
C758 C757 1.524 . S
C758 C759 1.415 . S
C759 H729 0.950 . S
C759 C754 1.363 . S
C759 C758 1.415 . S
H760 C757 0.999 . S
H761 C742 0.913 . S
H762 C780 0.954 1_545 S
H763 C782 0.951 . S
H764 C784 0.950 . S
H765 C785 0.949 . S
H766 C787 0.950 . S
H767 C790 0.950 . S
H768 C791 0.950 . S
H769 C793 0.950 1_556 S
H770 C794 0.950 . S
H771 C795 0.951 . S
H772 C797 0.951 . S
H773 C799 0.950 . S
H774 C800 0.950 . S
H775 C802 0.950 . S
H776 C805 0.950 . S
H777 C806 0.950 . S
H778 C808 0.950 . S
H779 C809 0.950 . S
C780 H762 0.954 1_565 S
C780 C781 1.363 1_565 S
C780 C782 1.390 . S
C781 C780 1.363 1_545 S
C781 C785 1.380 1_545 S
C782 H763 0.951 . S
C782 C780 1.390 . S
C782 C783 1.366 . S
C783 C782 1.366 . S
C783 C784 1.414 . S
C783 C786 1.499 . S
C784 H764 0.950 . S
C784 C783 1.414 . S
C784 C785 1.382 . S
C785 H765 0.949 . S
C785 C781 1.380 1_565 S
C785 C784 1.382 . S
C786 C783 1.499 . S
C786 C787 1.373 1_565 S
C786 C788 1.389 . S
C787 H766 0.950 . S
C787 C786 1.373 1_545 S
C787 C803 1.377 . S
C788 C786 1.389 . S
C788 C789 1.524 . S
C788 C802 1.377 . S
C789 C788 1.524 . S
C789 C790 1.397 . S
C789 C794 1.363 . S
C790 H767 0.950 . S
C790 C789 1.397 . S
C790 C791 1.334 . S
C791 H768 0.950 . S
C791 C790 1.334 . S
C791 C792 1.287 . S
C792 C791 1.287 . S
C792 C793 1.524 . S
C792 H811 0.913 1_554 S
C793 H769 0.950 1_554 S
C793 C792 1.524 . S
C793 C794 1.415 . S
C794 H770 0.950 . S
C794 C789 1.363 . S
C794 C793 1.415 . S
C795 H771 0.951 . S
C795 C796 1.366 . S
C795 C797 1.388 . S
C796 C795 1.366 . S
C796 C800 1.385 . S
C797 H772 0.951 . S
C797 C795 1.388 . S
C797 C798 1.366 . S
C798 C797 1.366 . S
C798 C799 1.414 . S
C798 C801 1.499 . S
C799 H773 0.950 . S
C799 C798 1.414 . S
C799 C800 1.374 . S
C800 H774 0.950 . S
C800 C796 1.385 . S
C800 C799 1.374 . S
C801 C798 1.499 . S
C801 C802 1.373 . S
C801 C803 1.389 1_565 S
C802 H775 0.950 . S
C802 C788 1.377 . S
C802 C801 1.373 . S
C803 C787 1.377 . S
C803 C801 1.389 1_545 S
C803 C804 1.524 . S
C804 C803 1.524 . S
C804 C805 1.397 . S
C804 C809 1.363 . S
C805 H776 0.950 . S
C805 C804 1.397 . S
C805 C806 1.334 . S
C806 H777 0.950 . S
C806 C805 1.334 . S
C806 C807 1.287 . S
C807 C806 1.287 . S
C807 C808 1.524 . S
C807 H810 0.999 . S
C808 H778 0.950 . S
C808 C807 1.524 . S
C808 C809 1.415 . S
C809 H779 0.950 . S
C809 C804 1.363 . S
C809 C808 1.415 . S
H810 C807 0.999 . S
H811 C792 0.913 1_556 S
H812 C830 0.951 . S
H813 C832 0.951 . S
H814 C834 0.950 . S
H815 C835 0.950 . S
H816 C837 0.950 . S
H817 C840 0.950 . S
H818 C841 0.950 . S
H819 C843 0.950 . S
H820 C844 0.950 . S
H821 C845 0.951 . S
H822 C847 0.951 . S
H823 C849 0.950 . S
H824 C850 0.950 . S
H825 C852 0.950 . S
H826 C855 0.950 . S
H827 C856 0.950 . S
H828 C858 0.950 . S
H829 C859 0.950 . S
C830 H812 0.951 . S
C830 C831 1.366 . S
C830 C832 1.388 . S
C831 C830 1.366 . S
C831 C835 1.385 . S
C832 H813 0.951 . S
C832 C830 1.388 . S
C832 C833 1.366 . S
C833 C832 1.366 . S
C833 C834 1.414 . S
C833 C836 1.499 . S
C834 H814 0.950 . S
C834 C833 1.414 . S
C834 C835 1.374 . S
C835 H815 0.950 . S
C835 C831 1.385 . S
C835 C834 1.374 . S
C836 C833 1.499 . S
C836 C837 1.373 . S
C836 C838 1.389 . S
C837 H816 0.950 . S
C837 C836 1.373 . S
C837 C853 1.377 . S
C838 C836 1.389 . S
C838 C839 1.524 . S
C838 C852 1.377 . S
C839 C838 1.524 . S
C839 C840 1.397 . S
C839 C844 1.363 . S
C840 H817 0.950 . S
C840 C839 1.397 . S
C840 C841 1.334 . S
C841 H818 0.950 . S
C841 C840 1.334 . S
C841 C842 1.287 1_554 S
C842 C841 1.287 1_556 S
C842 C843 1.524 . S
C842 H861 0.913 . S
C843 H819 0.950 . S
C843 C842 1.524 . S
C843 C844 1.415 1_556 S
C844 H820 0.950 . S
C844 C839 1.363 . S
C844 C843 1.415 1_554 S
C845 H821 0.951 . S
C845 C846 1.366 . S
C845 C847 1.388 . S
C846 C845 1.366 . S
C846 C850 1.385 . S
C847 H822 0.951 . S
C847 C845 1.388 . S
C847 C848 1.366 . S
C848 C847 1.366 . S
C848 C849 1.414 . S
C848 C851 1.499 . S
C849 H823 0.950 . S
C849 C848 1.414 . S
C849 C850 1.374 . S
C850 H824 0.950 . S
C850 C846 1.385 . S
C850 C849 1.374 . S
C851 C848 1.499 . S
C851 C852 1.373 . S
C851 C853 1.389 . S
C852 H825 0.950 . S
C852 C838 1.377 . S
C852 C851 1.373 . S
C853 C837 1.377 . S
C853 C851 1.389 . S
C853 C854 1.524 . S
C854 C853 1.524 . S
C854 C855 1.397 . S
C854 C859 1.363 . S
C855 H826 0.950 . S
C855 C854 1.397 . S
C855 C856 1.334 . S
C856 H827 0.950 . S
C856 C855 1.334 . S
C856 C857 1.287 . S
C857 C856 1.287 . S
C857 C858 1.524 . S
C857 H860 0.999 . S
C858 H828 0.950 . S
C858 C857 1.524 . S
C858 C859 1.415 . S
C859 H829 0.950 . S
C859 C854 1.363 . S
C859 C858 1.415 . S
H860 C857 0.999 . S
H861 C842 0.913 . S
H862 C880 0.951 . S
H863 C882 0.951 . S
H864 C884 0.950 . S
H865 C885 0.950 . S
H866 C887 0.950 . S
H867 C890 0.950 . S
H868 C891 0.950 . S
H869 C893 0.950 . S
H870 C894 0.950 . S
H871 C895 0.951 . S
H872 C897 0.951 . S
H873 C899 0.950 . S
H874 C900 0.950 . S
H875 C902 0.950 . S
H876 C905 0.950 . S
H877 C906 0.950 . S
H878 C908 0.950 . S
H879 C909 0.950 . S
C880 H862 0.951 . S
C880 C881 1.366 . S
C880 C882 1.388 . S
C881 C880 1.366 . S
C881 C885 1.385 . S
C882 H863 0.951 . S
C882 C880 1.388 . S
C882 C883 1.366 . S
C883 C882 1.366 . S
C883 C884 1.414 . S
C883 C886 1.499 . S
C884 H864 0.950 . S
C884 C883 1.414 . S
C884 C885 1.374 . S
C885 H865 0.950 . S
C885 C881 1.385 . S
C885 C884 1.374 . S
C886 C883 1.499 . S
C886 C887 1.373 . S
C886 C888 1.389 . S
C887 H866 0.950 . S
C887 C886 1.373 . S
C887 C903 1.377 . S
C888 C886 1.389 . S
C888 C889 1.524 . S
C888 C902 1.377 . S
C889 C888 1.524 . S
C889 C890 1.397 . S
C889 C894 1.363 . S
C890 H867 0.950 . S
C890 C889 1.397 . S
C890 C891 1.334 . S
C891 H868 0.950 . S
C891 C890 1.334 . S
C891 C892 1.287 1_554 S
C892 C891 1.287 1_556 S
C892 C893 1.524 . S
C892 H911 0.913 . S
C893 H869 0.950 . S
C893 C892 1.524 . S
C893 C894 1.415 1_556 S
C894 H870 0.950 . S
C894 C889 1.363 . S
C894 C893 1.415 1_554 S
C895 H871 0.951 . S
C895 C896 1.366 . S
C895 C897 1.388 . S
C896 C895 1.366 . S
C896 C900 1.385 . S
C897 H872 0.951 . S
C897 C895 1.388 . S
C897 C898 1.366 . S
C898 C897 1.366 . S
C898 C899 1.414 . S
C898 C901 1.499 . S
C899 H873 0.950 . S
C899 C898 1.414 . S
C899 C900 1.374 . S
C900 H874 0.950 . S
C900 C896 1.385 . S
C900 C899 1.374 . S
C901 C898 1.499 . S
C901 C902 1.373 . S
C901 C903 1.389 . S
C902 H875 0.950 . S
C902 C888 1.377 . S
C902 C901 1.373 . S
C903 C887 1.377 . S
C903 C901 1.389 . S
C903 C904 1.524 . S
C904 C903 1.524 . S
C904 C905 1.397 . S
C904 C909 1.363 . S
C905 H876 0.950 . S
C905 C904 1.397 . S
C905 C906 1.334 . S
C906 H877 0.950 . S
C906 C905 1.334 . S
C906 C907 1.287 . S
C907 C906 1.287 . S
C907 C908 1.524 . S
C907 H910 0.999 . S
C908 H878 0.950 . S
C908 C907 1.524 . S
C908 C909 1.415 . S
C909 H879 0.950 . S
C909 C904 1.363 . S
C909 C908 1.415 . S
H910 C907 0.999 . S
H911 C892 0.913 . S
H912 C930 0.951 . S
H913 C932 0.951 . S
H914 C934 0.950 . S
H915 C935 0.950 . S
H916 C937 0.950 . S
H917 C940 0.950 . S
H918 C941 0.950 . S
H919 C943 0.950 . S
H920 C944 0.950 . S
H921 C945 0.951 . S
H922 C947 0.951 . S
H923 C949 0.950 . S
H924 C950 0.950 . S
H925 C952 0.951 1_655 S
H926 C955 0.950 . S
H927 C956 0.950 . S
H928 C958 0.950 . S
H929 C959 0.950 . S
C930 H912 0.951 . S
C930 C931 1.359 1_455 S
C930 C932 1.388 . S
C931 C930 1.359 1_655 S
C931 C935 1.388 . S
C932 H913 0.951 . S
C932 C930 1.388 . S
C932 C933 1.366 . S
C933 C932 1.366 . S
C933 C934 1.417 . S
C933 C936 1.499 . S
C934 H914 0.950 . S
C934 C933 1.417 . S
C934 C935 1.371 1_455 S
C935 H915 0.950 . S
C935 C931 1.388 . S
C935 C934 1.371 1_655 S
C936 C933 1.499 . S
C936 C937 1.373 . S
C936 C938 1.389 1_455 S
C937 H916 0.950 . S
C937 C936 1.373 . S
C937 C953 1.377 . S
C938 C936 1.389 1_655 S
C938 C939 1.524 . S
C938 C952 1.377 1_655 S
C939 C938 1.524 . S
C939 C940 1.397 . S
C939 C944 1.363 . S
C940 H917 0.950 . S
C940 C939 1.397 . S
C940 C941 1.334 . S
C941 H918 0.950 . S
C941 C940 1.334 . S
C941 C942 1.287 . S
C942 C941 1.287 . S
C942 C943 1.524 . S
C942 H961 0.913 . S
C943 H919 0.950 . S
C943 C942 1.524 . S
C943 C944 1.415 . S
C944 H920 0.950 . S
C944 C939 1.363 . S
C944 C943 1.415 . S
C945 H921 0.951 . S
C945 C946 1.366 . S
C945 C947 1.388 . S
C946 C945 1.366 . S
C946 C950 1.385 1_556 S
C947 H922 0.951 . S
C947 C945 1.388 . S
C947 C948 1.366 1_556 S
C948 C947 1.366 1_554 S
C948 C949 1.414 . S
C948 C951 1.499 . S
C949 H923 0.950 . S
C949 C948 1.414 . S
C949 C950 1.374 . S
C950 H924 0.950 . S
C950 C946 1.385 1_554 S
C950 C949 1.374 . S
C951 C948 1.499 . S
C951 C952 1.372 . S
C951 C953 1.389 . S
C952 H925 0.951 1_455 S
C952 C938 1.377 1_455 S
C952 C951 1.372 . S
C953 C937 1.377 . S
C953 C951 1.389 . S
C953 C954 1.524 . S
C954 C953 1.524 . S
C954 C955 1.397 . S
C954 C959 1.363 1_554 S
C955 H926 0.950 . S
C955 C954 1.397 . S
C955 C956 1.334 1_554 S
C956 H927 0.950 . S
C956 C955 1.334 1_556 S
C956 C957 1.287 . S
C957 C956 1.287 . S
C957 C958 1.524 . S
C957 H960 0.999 . S
C958 H928 0.950 . S
C958 C957 1.524 . S
C958 C959 1.415 . S
C959 H929 0.950 . S
C959 C954 1.363 1_556 S
C959 C958 1.415 . S
H960 C957 0.999 . S
H961 C942 0.913 . S
H962 C980 0.951 . S
H963 C982 0.963 . S
H964 C984 0.950 . S
H965 C985 0.950 . S
H966 C987 0.950 . S
H967 C990 0.950 . S
H968 C991 0.950 . S
H969 C993 0.950 . S
H970 C994 0.950 . S
H971 C995 0.951 . S
H972 C997 0.951 . S
H973 C999 0.950 . S
H974 C1000 0.950 . S
H975 C1002 0.950 . S
H976 C1005 0.950 . S
H977 C1006 0.950 . S
H978 C1008 0.950 . S
H979 C1009 0.939 1_545 S
C980 H962 0.951 . S
C980 C981 1.373 . S
C980 C982 1.398 . S
C981 C980 1.373 . S
C981 C985 1.373 1_565 S
C982 H963 0.963 . S
C982 C980 1.398 . S
C982 C983 1.347 1_565 S
C983 C982 1.347 1_545 S
C983 C984 1.414 . S
C983 C986 1.499 . S
C984 H964 0.950 . S
C984 C983 1.414 . S
C984 C985 1.374 . S
C985 H965 0.950 . S
C985 C981 1.373 1_545 S
C985 C984 1.374 . S
C986 C983 1.499 . S
C986 C987 1.373 1_545 S
C986 C988 1.389 . S
C987 H966 0.950 . S
C987 C986 1.373 1_565 S
C987 C1003 1.374 1_565 S
C988 C986 1.389 . S
C988 C989 1.524 . S
C988 C1002 1.377 . S
C989 C988 1.524 . S
C989 C990 1.397 . S
C989 C994 1.363 1_554 S
C990 H967 0.950 . S
C990 C989 1.397 . S
C990 C991 1.334 . S
C991 H968 0.950 . S
C991 C990 1.334 . S
C991 C992 1.287 . S
C992 C991 1.287 . S
C992 C993 1.524 1_554 S
C992 H1011 0.913 1_554 S
C993 H969 0.950 . S
C993 C992 1.524 1_556 S
C993 C994 1.415 . S
C994 H970 0.950 . S
C994 C989 1.363 1_556 S
C994 C993 1.415 . S
C995 H971 0.951 . S
C995 C996 1.366 1_554 S
C995 C997 1.388 . S
C996 C995 1.366 1_556 S
C996 C1000 1.385 . S
C997 H972 0.951 . S
C997 C995 1.388 . S
C997 C998 1.366 . S
C998 C997 1.366 . S
C998 C999 1.414 1_554 S
C998 C1001 1.499 . S
C999 H973 0.950 . S
C999 C998 1.414 1_556 S
C999 C1000 1.374 . S
C1000 H974 0.950 . S
C1000 C996 1.385 . S
C1000 C999 1.374 . S
C1001 C998 1.499 . S
C1001 C1002 1.373 . S
C1001 C1003 1.423 . S
C1002 H975 0.950 . S
C1002 C988 1.377 . S
C1002 C1001 1.373 . S
C1003 C987 1.374 1_545 S
C1003 C1001 1.423 . S
C1003 C1004 1.492 1_545 S
C1004 C1003 1.492 1_565 S
C1004 C1005 1.397 . S
C1004 C1009 1.363 . S
C1005 H976 0.950 . S
C1005 C1004 1.397 . S
C1005 C1006 1.334 . S
C1006 H977 0.950 . S
C1006 C1005 1.334 . S
C1006 C1007 1.287 . S
C1007 C1006 1.287 . S
C1007 C1008 1.524 . S
C1007 H1010 0.999 . S
C1008 H978 0.950 . S
C1008 C1007 1.524 . S
C1008 C1009 1.415 . S
C1009 H979 0.939 1_565 S
C1009 C1004 1.363 . S
C1009 C1008 1.415 . S
H1010 C1007 0.999 . S
H1011 C992 0.913 1_556 S
H1012 C1030 0.951 . S
H1013 C1032 0.951 . S
H1014 C1034 0.950 . S
H1015 C1035 0.950 . S
H1016 C1037 0.950 . S
H1017 C1040 0.950 . S
H1018 C1041 0.950 . S
H1019 C1043 0.950 . S
H1020 C1044 0.950 . S
H1021 C1045 0.951 . S
H1022 C1047 0.951 . S
H1023 C1049 0.950 . S
H1024 C1050 0.950 . S
H1025 C1052 0.950 . S
H1026 C1055 0.950 1_554 S
H1027 C1056 0.950 . S
H1028 C1058 0.950 . S
H1029 C1059 0.950 . S
C1030 H1012 0.951 . S
C1030 C1031 1.366 . S
C1030 C1032 1.388 . S
C1031 C1030 1.366 . S
C1031 C1035 1.385 . S
C1032 H1013 0.951 . S
C1032 C1030 1.388 . S
C1032 C1033 1.366 . S
C1033 C1032 1.366 . S
C1033 C1034 1.414 . S
C1033 C1036 1.499 . S
C1034 H1014 0.950 . S
C1034 C1033 1.414 . S
C1034 C1035 1.374 . S
C1035 H1015 0.950 . S
C1035 C1031 1.385 . S
C1035 C1034 1.374 . S
C1036 C1033 1.499 . S
C1036 C1037 1.373 . S
C1036 C1038 1.389 . S
C1037 H1016 0.950 . S
C1037 C1036 1.373 . S
C1037 C1053 1.377 . S
C1038 C1036 1.389 . S
C1038 C1039 1.524 . S
C1038 C1052 1.377 . S
C1039 C1038 1.524 . S
C1039 C1040 1.397 . S
C1039 C1044 1.363 . S
C1040 H1017 0.950 . S
C1040 C1039 1.397 . S
C1040 C1041 1.334 . S
C1041 H1018 0.950 . S
C1041 C1040 1.334 . S
C1041 C1042 1.287 . S
C1042 C1041 1.287 . S
C1042 C1043 1.524 . S
C1042 H1061 0.913 . S
C1043 H1019 0.950 . S
C1043 C1042 1.524 . S
C1043 C1044 1.415 . S
C1044 H1020 0.950 . S
C1044 C1039 1.363 . S
C1044 C1043 1.415 . S
C1045 H1021 0.951 . S
C1045 C1046 1.366 . S
C1045 C1047 1.388 . S
C1046 C1045 1.366 . S
C1046 C1050 1.385 1_556 S
C1047 H1022 0.951 . S
C1047 C1045 1.388 . S
C1047 C1048 1.366 1_556 S
C1048 C1047 1.366 1_554 S
C1048 C1049 1.414 . S
C1048 C1051 1.499 . S
C1049 H1023 0.950 . S
C1049 C1048 1.414 . S
C1049 C1050 1.374 . S
C1050 H1024 0.950 . S
C1050 C1046 1.385 1_554 S
C1050 C1049 1.374 . S
C1051 C1048 1.499 . S
C1051 C1052 1.373 . S
C1051 C1053 1.389 . S
C1052 H1025 0.950 . S
C1052 C1038 1.377 . S
C1052 C1051 1.373 . S
C1053 C1037 1.377 . S
C1053 C1051 1.389 . S
C1053 C1054 1.524 1_554 S
C1054 C1053 1.524 1_556 S
C1054 C1055 1.397 . S
C1054 C1059 1.363 . S
C1055 H1026 0.950 1_556 S
C1055 C1054 1.397 . S
C1055 C1056 1.334 . S
C1056 H1027 0.950 . S
C1056 C1055 1.334 . S
C1056 C1057 1.287 . S
C1057 C1056 1.287 . S
C1057 C1058 1.524 . S
C1057 H1060 0.999 . S
C1058 H1028 0.950 . S
C1058 C1057 1.524 . S
C1058 C1059 1.415 . S
C1059 H1029 0.950 . S
C1059 C1054 1.363 . S
C1059 C1058 1.415 . S
H1060 C1057 0.999 . S
H1061 C1042 0.913 . S
H1062 C1080 0.951 . S
H1063 C1082 0.951 . S
H1064 C1084 0.950 . S
H1065 C1085 0.950 . S
H1066 C1087 0.950 . S
H1067 C1090 0.950 . S
H1068 C1091 0.950 . S
H1069 C1093 0.950 . S
H1070 C1094 0.950 . S
H1071 C1095 0.951 . S
H1072 C1097 0.951 . S
H1073 C1099 0.950 . S
H1074 C1100 0.950 . S
H1075 C1102 0.950 . S
H1076 C1105 0.950 . S
H1077 C1106 0.950 . S
H1078 C1108 0.950 . S
H1079 C1109 0.950 . S
C1080 H1062 0.951 . S
C1080 C1081 1.366 . S
C1080 C1082 1.388 . S
C1081 C1080 1.366 . S
C1081 C1085 1.385 . S
C1082 H1063 0.951 . S
C1082 C1080 1.388 . S
C1082 C1083 1.366 . S
C1083 C1082 1.366 . S
C1083 C1084 1.414 . S
C1083 C1086 1.499 . S
C1084 H1064 0.950 . S
C1084 C1083 1.414 . S
C1084 C1085 1.374 . S
C1085 H1065 0.950 . S
C1085 C1081 1.385 . S
C1085 C1084 1.374 . S
C1086 C1083 1.499 . S
C1086 C1087 1.373 . S
C1086 C1088 1.389 . S
C1087 H1066 0.950 . S
C1087 C1086 1.373 . S
C1087 C1103 1.377 . S
C1088 C1086 1.389 . S
C1088 C1089 1.524 . S
C1088 C1102 1.377 . S
C1089 C1088 1.524 . S
C1089 C1090 1.397 . S
C1089 C1094 1.363 . S
C1090 H1067 0.950 . S
C1090 C1089 1.397 . S
C1090 C1091 1.334 . S
C1091 H1068 0.950 . S
C1091 C1090 1.334 . S
C1091 C1092 1.287 . S
C1092 C1091 1.287 . S
C1092 C1093 1.524 . S
C1092 H1111 0.913 . S
C1093 H1069 0.950 . S
C1093 C1092 1.524 . S
C1093 C1094 1.415 . S
C1094 H1070 0.950 . S
C1094 C1089 1.363 . S
C1094 C1093 1.415 . S
C1095 H1071 0.951 . S
C1095 C1096 1.366 . S
C1095 C1097 1.388 . S
C1096 C1095 1.366 . S
C1096 C1100 1.385 1_556 S
C1097 H1072 0.951 . S
C1097 C1095 1.388 . S
C1097 C1098 1.366 1_556 S
C1098 C1097 1.366 1_554 S
C1098 C1099 1.414 . S
C1098 C1101 1.499 . S
C1099 H1073 0.950 . S
C1099 C1098 1.414 . S
C1099 C1100 1.374 . S
C1100 H1074 0.950 . S
C1100 C1096 1.385 1_554 S
C1100 C1099 1.374 . S
C1101 C1098 1.499 . S
C1101 C1102 1.373 . S
C1101 C1103 1.389 . S
C1102 H1075 0.950 . S
C1102 C1088 1.377 . S
C1102 C1101 1.373 . S
C1103 C1087 1.377 . S
C1103 C1101 1.389 . S
C1103 C1104 1.524 . S
C1104 C1103 1.524 . S
C1104 C1105 1.397 . S
C1104 C1109 1.363 1_554 S
C1105 H1076 0.950 . S
C1105 C1104 1.397 . S
C1105 C1106 1.334 1_554 S
C1106 H1077 0.950 . S
C1106 C1105 1.334 1_556 S
C1106 C1107 1.287 . S
C1107 C1106 1.287 . S
C1107 C1108 1.524 . S
C1107 H1110 0.999 . S
C1108 H1078 0.950 . S
C1108 C1107 1.524 . S
C1108 C1109 1.415 . S
C1109 H1079 0.950 . S
C1109 C1104 1.363 1_556 S
C1109 C1108 1.415 . S
H1110 C1107 0.999 . S
H1111 C1092 0.913 . S
H1112 C1130 0.960 . S
H1113 C1132 0.947 1_655 S
H1114 C1134 0.950 . S
H1115 C1135 0.950 . S
H1116 C1137 0.950 . S
H1117 C1140 0.950 . S
H1118 C1141 0.950 . S
H1119 C1143 0.950 . S
H1120 C1144 0.950 . S
H1121 C1145 0.951 . S
H1122 C1147 0.951 . S
H1123 C1149 0.960 . S
H1124 C1150 0.950 . S
H1125 C1152 0.950 . S
H1126 C1155 0.950 . S
H1127 C1156 0.950 . S
H1128 C1158 0.950 . S
H1129 C1159 0.950 . S
C1130 H1112 0.960 . S
C1130 C1131 1.361 1_655 S
C1130 C1132 1.386 1_655 S
C1131 C1130 1.361 1_455 S
C1131 C1135 1.392 . S
C1132 H1113 0.947 1_455 S
C1132 C1130 1.386 1_455 S
C1132 C1133 1.367 . S
C1133 C1132 1.367 . S
C1133 C1134 1.414 . S
C1133 C1136 1.499 . S
C1134 H1114 0.950 . S
C1134 C1133 1.414 . S
C1134 C1135 1.374 . S
C1135 H1115 0.950 . S
C1135 C1131 1.392 . S
C1135 C1134 1.374 . S
C1136 C1133 1.499 . S
C1136 C1137 1.373 1_455 S
C1136 C1138 1.389 . S
C1137 H1116 0.950 . S
C1137 C1136 1.373 1_655 S
C1137 C1153 1.377 . S
C1138 C1136 1.389 . S
C1138 C1139 1.524 . S
C1138 C1152 1.377 . S
C1139 C1138 1.524 . S
C1139 C1140 1.397 . S
C1139 C1144 1.363 1_556 S
C1140 H1117 0.950 . S
C1140 C1139 1.397 . S
C1140 C1141 1.334 . S
C1141 H1118 0.950 . S
C1141 C1140 1.334 . S
C1141 C1142 1.287 1_556 S
C1142 C1141 1.287 1_554 S
C1142 C1143 1.524 . S
C1142 H1161 0.913 . S
C1143 H1119 0.950 . S
C1143 C1142 1.524 . S
C1143 C1144 1.415 . S
C1144 H1120 0.950 . S
C1144 C1139 1.363 1_554 S
C1144 C1143 1.415 . S
C1145 H1121 0.951 . S
C1145 C1146 1.366 . S
C1145 C1147 1.388 . S
C1146 C1145 1.366 . S
C1146 C1150 1.385 . S
C1147 H1122 0.951 . S
C1147 C1145 1.388 . S
C1147 C1148 1.366 . S
C1148 C1147 1.366 . S
C1148 C1149 1.414 . S
C1148 C1151 1.499 . S
C1149 H1123 0.960 . S
C1149 C1148 1.414 . S
C1149 C1150 1.374 . S
C1150 H1124 0.950 . S
C1150 C1146 1.385 . S
C1150 C1149 1.374 . S
C1151 C1148 1.499 . S
C1151 C1152 1.373 . S
C1151 C1153 1.389 1_455 S
C1152 H1125 0.950 . S
C1152 C1138 1.377 . S
C1152 C1151 1.373 . S
C1153 C1137 1.377 . S
C1153 C1151 1.389 1_655 S
C1153 C1154 1.524 . S
C1154 C1153 1.524 . S
C1154 C1155 1.397 . S
C1154 C1159 1.363 . S
C1155 H1126 0.950 . S
C1155 C1154 1.397 . S
C1155 C1156 1.334 . S
C1156 H1127 0.950 . S
C1156 C1155 1.334 . S
C1156 C1157 1.287 . S
C1157 C1156 1.287 . S
C1157 C1158 1.524 . S
C1157 H1160 0.999 . S
C1158 H1128 0.950 . S
C1158 C1157 1.524 . S
C1158 C1159 1.415 . S
C1159 H1129 0.950 . S
C1159 C1154 1.363 . S
C1159 C1158 1.415 . S
H1160 C1157 0.999 . S
H1161 C1142 0.913 . S
H1162 C1180 0.951 . S
H1163 C1182 0.951 . S
H1164 C1184 0.950 . S
H1165 C1185 0.950 . S
H1166 C1187 0.950 . S
H1167 C1190 0.950 . S
H1168 C1191 0.950 . S
H1169 C1193 0.950 . S
H1170 C1194 0.950 . S
H1171 C1195 0.951 . S
H1172 C1197 0.951 . S
H1173 C1199 0.950 . S
H1174 C1200 0.945 1_565 S
H1175 C1202 0.950 . S
H1176 C1205 0.950 . S
H1177 C1206 0.950 . S
H1178 C1208 0.950 . S
H1179 C1209 0.950 . S
C1180 H1162 0.951 . S
C1180 C1181 1.353 1_565 S
C1180 C1182 1.388 . S
C1181 C1180 1.353 1_545 S
C1181 C1185 1.400 . S
C1182 H1163 0.951 . S
C1182 C1180 1.388 . S
C1182 C1183 1.366 1_565 S
C1183 C1182 1.366 1_545 S
C1183 C1184 1.414 . S
C1183 C1186 1.499 . S
C1184 H1164 0.950 . S
C1184 C1183 1.414 . S
C1184 C1185 1.374 . S
C1185 H1165 0.950 . S
C1185 C1181 1.400 . S
C1185 C1184 1.374 . S
C1186 C1183 1.499 . S
C1186 C1187 1.373 . S
C1186 C1188 1.389 1_545 S
C1187 H1166 0.950 . S
C1187 C1186 1.373 . S
C1187 C1203 1.377 . S
C1188 C1186 1.389 1_565 S
C1188 C1189 1.524 . S
C1188 C1202 1.377 . S
C1189 C1188 1.524 . S
C1189 C1190 1.397 . S
C1189 C1194 1.363 . S
C1190 H1167 0.950 . S
C1190 C1189 1.397 . S
C1190 C1191 1.334 . S
C1191 H1168 0.950 . S
C1191 C1190 1.334 . S
C1191 C1192 1.287 . S
C1192 C1191 1.287 . S
C1192 C1193 1.524 . S
C1192 H1211 0.913 . S
C1193 H1169 0.950 . S
C1193 C1192 1.524 . S
C1193 C1194 1.415 . S
C1194 H1170 0.950 . S
C1194 C1189 1.363 . S
C1194 C1193 1.415 . S
C1195 H1171 0.951 . S
C1195 C1196 1.366 . S
C1195 C1197 1.388 . S
C1196 C1195 1.366 . S
C1196 C1200 1.391 . S
C1197 H1172 0.951 . S
C1197 C1195 1.388 . S
C1197 C1198 1.366 . S
C1198 C1197 1.366 . S
C1198 C1199 1.414 1_545 S
C1198 C1201 1.499 . S
C1199 H1173 0.950 . S
C1199 C1198 1.414 1_565 S
C1199 C1200 1.373 1_565 S
C1200 H1174 0.945 1_545 S
C1200 C1196 1.391 . S
C1200 C1199 1.373 1_545 S
C1201 C1198 1.499 . S
C1201 C1202 1.373 1_545 S
C1201 C1203 1.389 . S
C1202 H1175 0.950 . S
C1202 C1188 1.377 . S
C1202 C1201 1.373 1_565 S
C1203 C1187 1.377 . S
C1203 C1201 1.389 . S
C1203 C1204 1.524 . S
C1204 C1203 1.524 . S
C1204 C1205 1.397 . S
C1204 C1209 1.363 . S
C1205 H1176 0.950 . S
C1205 C1204 1.397 . S
C1205 C1206 1.334 . S
C1206 H1177 0.950 . S
C1206 C1205 1.334 . S
C1206 C1207 1.287 . S
C1207 C1206 1.287 . S
C1207 C1208 1.524 . S
C1207 H1210 0.999 . S
C1208 H1178 0.950 . S
C1208 C1207 1.524 . S
C1208 C1209 1.415 . S
C1209 H1179 0.950 . S
C1209 C1204 1.363 . S
C1209 C1208 1.415 . S
H1210 C1207 0.999 . S
H1211 C1192 0.913 . S
H1212 C1230 0.951 . S
H1213 C1232 0.951 . S
H1214 C1234 0.950 . S
H1215 C1235 0.950 . S
H1216 C1237 0.950 . S
H1217 C1240 0.950 . S
H1218 C1241 0.950 . S
H1219 C1243 0.950 . S
H1220 C1244 0.950 . S
H1221 C1245 0.951 . S
H1222 C1247 0.951 . S
H1223 C1249 0.950 . S
H1224 C1250 0.950 . S
H1225 C1252 0.950 . S
H1226 C1255 0.950 . S
H1227 C1256 0.950 . S
H1228 C1258 0.950 . S
H1229 C1259 0.950 . S
C1230 H1212 0.951 . S
C1230 C1231 1.366 . S
C1230 C1232 1.388 . S
C1231 C1230 1.366 . S
C1231 C1235 1.385 . S
C1232 H1213 0.951 . S
C1232 C1230 1.388 . S
C1232 C1233 1.366 . S
C1233 C1232 1.366 . S
C1233 C1234 1.414 . S
C1233 C1236 1.499 . S
C1234 H1214 0.950 . S
C1234 C1233 1.414 . S
C1234 C1235 1.374 . S
C1235 H1215 0.950 . S
C1235 C1231 1.385 . S
C1235 C1234 1.374 . S
C1236 C1233 1.499 . S
C1236 C1237 1.373 . S
C1236 C1238 1.389 . S
C1237 H1216 0.950 . S
C1237 C1236 1.373 . S
C1237 C1253 1.377 . S
C1238 C1236 1.389 . S
C1238 C1239 1.524 . S
C1238 C1252 1.377 . S
C1239 C1238 1.524 . S
C1239 C1240 1.397 . S
C1239 C1244 1.363 . S
C1240 H1217 0.950 . S
C1240 C1239 1.397 . S
C1240 C1241 1.334 . S
C1241 H1218 0.950 . S
C1241 C1240 1.334 . S
C1241 C1242 1.287 . S
C1242 C1241 1.287 . S
C1242 C1243 1.524 . S
C1242 H1261 0.913 . S
C1243 H1219 0.950 . S
C1243 C1242 1.524 . S
C1243 C1244 1.415 . S
C1244 H1220 0.950 . S
C1244 C1239 1.363 . S
C1244 C1243 1.415 . S
C1245 H1221 0.951 . S
C1245 C1246 1.366 . S
C1245 C1247 1.388 . S
C1246 C1245 1.366 . S
C1246 C1250 1.385 . S
C1247 H1222 0.951 . S
C1247 C1245 1.388 . S
C1247 C1248 1.366 . S
C1248 C1247 1.366 . S
C1248 C1249 1.414 . S
C1248 C1251 1.499 . S
C1249 H1223 0.950 . S
C1249 C1248 1.414 . S
C1249 C1250 1.374 . S
C1250 H1224 0.950 . S
C1250 C1246 1.385 . S
C1250 C1249 1.374 . S
C1251 C1248 1.499 . S
C1251 C1252 1.373 . S
C1251 C1253 1.389 . S
C1252 H1225 0.950 . S
C1252 C1238 1.377 . S
C1252 C1251 1.373 . S
C1253 C1237 1.377 . S
C1253 C1251 1.389 . S
C1253 C1254 1.524 . S
C1254 C1253 1.524 . S
C1254 C1255 1.397 . S
C1254 C1259 1.363 . S
C1255 H1226 0.950 . S
C1255 C1254 1.397 . S
C1255 C1256 1.334 . S
C1256 H1227 0.950 . S
C1256 C1255 1.334 . S
C1256 C1257 1.287 . S
C1257 C1256 1.287 . S
C1257 C1258 1.524 . S
C1257 H1260 0.999 . S
C1258 H1228 0.950 . S
C1258 C1257 1.524 . S
C1258 C1259 1.415 . S
C1259 H1229 0.950 . S
C1259 C1254 1.363 . S
C1259 C1258 1.415 . S
H1260 C1257 0.999 . S
H1261 C1242 0.913 . S
H1262 C1280 0.951 . S
H1263 C1282 0.951 . S
H1264 C1284 0.950 . S
H1265 C1285 0.950 . S
H1266 C1287 0.950 . S
H1267 C1290 0.950 . S
H1268 C1291 0.950 . S
H1269 C1293 0.950 . S
H1270 C1294 0.950 . S
H1271 C1295 0.951 . S
H1272 C1297 0.951 . S
H1273 C1299 0.950 . S
H1274 C1300 0.950 . S
H1275 C1302 0.950 . S
H1276 C1305 0.950 . S
H1277 C1306 0.950 . S
H1278 C1308 0.950 . S
H1279 C1309 0.950 . S
C1280 H1262 0.951 . S
C1280 C1281 1.366 . S
C1280 C1282 1.388 . S
C1281 C1280 1.366 . S
C1281 C1285 1.385 . S
C1282 H1263 0.951 . S
C1282 C1280 1.388 . S
C1282 C1283 1.366 . S
C1283 C1282 1.366 . S
C1283 C1284 1.414 . S
C1283 C1286 1.499 . S
C1284 H1264 0.950 . S
C1284 C1283 1.414 . S
C1284 C1285 1.374 . S
C1285 H1265 0.950 . S
C1285 C1281 1.385 . S
C1285 C1284 1.374 . S
C1286 C1283 1.499 . S
C1286 C1287 1.373 . S
C1286 C1288 1.389 . S
C1287 H1266 0.950 . S
C1287 C1286 1.373 . S
C1287 C1303 1.377 . S
C1288 C1286 1.389 . S
C1288 C1289 1.524 . S
C1288 C1302 1.377 . S
C1289 C1288 1.524 . S
C1289 C1290 1.397 . S
C1289 C1294 1.363 . S
C1290 H1267 0.950 . S
C1290 C1289 1.397 . S
C1290 C1291 1.334 . S
C1291 H1268 0.950 . S
C1291 C1290 1.334 . S
C1291 C1292 1.287 . S
C1292 C1291 1.287 . S
C1292 C1293 1.524 . S
C1292 H1311 0.913 . S
C1293 H1269 0.950 . S
C1293 C1292 1.524 . S
C1293 C1294 1.415 . S
C1294 H1270 0.950 . S
C1294 C1289 1.363 . S
C1294 C1293 1.415 . S
C1295 H1271 0.951 . S
C1295 C1296 1.366 . S
C1295 C1297 1.388 . S
C1296 C1295 1.366 . S
C1296 C1300 1.385 . S
C1297 H1272 0.951 . S
C1297 C1295 1.388 . S
C1297 C1298 1.366 . S
C1298 C1297 1.366 . S
C1298 C1299 1.414 . S
C1298 C1301 1.499 . S
C1299 H1273 0.950 . S
C1299 C1298 1.414 . S
C1299 C1300 1.374 . S
C1300 H1274 0.950 . S
C1300 C1296 1.385 . S
C1300 C1299 1.374 . S
C1301 C1298 1.499 . S
C1301 C1302 1.373 . S
C1301 C1303 1.389 . S
C1302 H1275 0.950 . S
C1302 C1288 1.377 . S
C1302 C1301 1.373 . S
C1303 C1287 1.377 . S
C1303 C1301 1.389 . S
C1303 C1304 1.524 . S
C1304 C1303 1.524 . S
C1304 C1305 1.397 . S
C1304 C1309 1.363 . S
C1305 H1276 0.950 . S
C1305 C1304 1.397 . S
C1305 C1306 1.334 . S
C1306 H1277 0.950 . S
C1306 C1305 1.334 . S
C1306 C1307 1.287 . S
C1307 C1306 1.287 . S
C1307 C1308 1.524 . S
C1307 H1310 0.999 . S
C1308 H1278 0.950 . S
C1308 C1307 1.524 . S
C1308 C1309 1.415 . S
C1309 H1279 0.950 . S
C1309 C1304 1.363 . S
C1309 C1308 1.415 . S
H1310 C1307 0.999 . S
H1311 C1292 0.913 . S
H1312 C1330 0.951 . S
H1313 C1332 0.951 . S
H1314 C1334 0.950 . S
H1315 C1335 0.950 . S
H1316 C1337 0.950 . S
H1317 C1340 0.950 . S
H1318 C1341 0.950 . S
H1319 C1343 0.950 . S
H1320 C1344 0.950 . S
H1321 C1345 0.951 . S
H1322 C1347 0.951 . S
H1323 C1349 0.950 . S
H1324 C1350 0.950 . S
H1325 C1352 0.950 . S
H1326 C1355 0.950 . S
H1327 C1356 0.950 1_455 S
H1328 C1358 0.950 . S
H1329 C1359 0.950 . S
C1330 H1312 0.951 . S
C1330 C1331 1.330 1_455 S
C1330 C1332 1.388 . S
C1331 C1330 1.330 1_655 S
C1331 C1335 1.423 . S
C1332 H1313 0.951 . S
C1332 C1330 1.388 . S
C1332 C1333 1.366 1_455 S
C1333 C1332 1.366 1_655 S
C1333 C1334 1.414 . S
C1333 C1336 1.499 . S
C1334 H1314 0.950 . S
C1334 C1333 1.414 . S
C1334 C1335 1.374 . S
C1335 H1315 0.950 . S
C1335 C1331 1.423 . S
C1335 C1334 1.374 . S
C1336 C1333 1.499 . S
C1336 C1337 1.373 . S
C1336 C1338 1.389 1_655 S
C1337 H1316 0.950 . S
C1337 C1336 1.373 . S
C1337 C1353 1.377 . S
C1338 C1336 1.389 1_455 S
C1338 C1339 1.524 . S
C1338 C1352 1.377 . S
C1339 C1338 1.524 . S
C1339 C1340 1.397 1_455 S
C1339 C1344 1.363 . S
C1340 H1317 0.950 . S
C1340 C1339 1.397 1_655 S
C1340 C1341 1.334 . S
C1341 H1318 0.950 . S
C1341 C1340 1.334 . S
C1341 C1342 1.287 1_655 S
C1342 C1341 1.287 1_455 S
C1342 C1343 1.524 . S
C1342 H1361 0.913 . S
C1343 H1319 0.950 . S
C1343 C1342 1.524 . S
C1343 C1344 1.415 . S
C1344 H1320 0.950 . S
C1344 C1339 1.363 . S
C1344 C1343 1.415 . S
C1345 H1321 0.951 . S
C1345 C1346 1.366 . S
C1345 C1347 1.388 . S
C1346 C1345 1.366 . S
C1346 C1350 1.385 1_655 S
C1347 H1322 0.951 . S
C1347 C1345 1.388 . S
C1347 C1348 1.366 . S
C1348 C1347 1.366 . S
C1348 C1349 1.414 1_655 S
C1348 C1351 1.499 . S
C1349 H1323 0.950 . S
C1349 C1348 1.414 1_455 S
C1349 C1350 1.374 . S
C1350 H1324 0.950 . S
C1350 C1346 1.385 1_455 S
C1350 C1349 1.374 . S
C1351 C1348 1.499 . S
C1351 C1352 1.373 1_655 S
C1351 C1353 1.389 . S
C1352 H1325 0.950 . S
C1352 C1338 1.377 . S
C1352 C1351 1.373 1_455 S
C1353 C1337 1.377 . S
C1353 C1351 1.389 . S
C1353 C1354 1.524 . S
C1354 C1353 1.524 . S
C1354 C1355 1.397 1_655 S
C1354 C1359 1.363 . S
C1355 H1326 0.950 . S
C1355 C1354 1.397 1_455 S
C1355 C1356 1.334 1_455 S
C1356 H1327 0.950 1_655 S
C1356 C1355 1.334 1_655 S
C1356 C1357 1.287 . S
C1357 C1356 1.287 . S
C1357 C1358 1.524 . S
C1357 H1360 0.999 . S
C1358 H1328 0.950 . S
C1358 C1357 1.524 . S
C1358 C1359 1.415 . S
C1359 H1329 0.950 . S
C1359 C1354 1.363 . S
C1359 C1358 1.415 . S
H1360 C1357 0.999 . S
H1361 C1342 0.913 . S
H1362 C1380 0.951 . S
H1363 C1382 0.951 . S
H1364 C1384 0.950 . S
H1365 C1385 0.950 . S
H1366 C1387 0.950 . S
H1367 C1390 0.950 . S
H1368 C1391 0.950 . S
H1369 C1393 0.950 . S
H1370 C1394 0.950 . S
H1371 C1395 0.951 . S
H1372 C1397 0.951 . S
H1373 C1399 0.940 1_545 S
H1374 C1400 0.951 . S
H1375 C1402 0.950 . S
H1376 C1405 0.950 . S
H1377 C1406 0.950 . S
H1378 C1408 0.950 . S
H1379 C1409 0.950 . S
C1380 H1362 0.951 . S
C1380 C1381 1.360 1_545 S
C1380 C1382 1.388 . S
C1381 C1380 1.360 1_565 S
C1381 C1385 1.391 . S
C1382 H1363 0.951 . S
C1382 C1380 1.388 . S
C1382 C1383 1.357 1_545 S
C1383 C1382 1.357 1_565 S
C1383 C1384 1.426 . S
C1383 C1386 1.502 . S
C1384 H1364 0.950 . S
C1384 C1383 1.426 . S
C1384 C1385 1.374 . S
C1385 H1365 0.950 . S
C1385 C1381 1.391 . S
C1385 C1384 1.374 . S
C1386 C1383 1.502 . S
C1386 C1387 1.373 . S
C1386 C1388 1.389 1_565 S
C1387 H1366 0.950 . S
C1387 C1386 1.373 . S
C1387 C1403 1.377 . S
C1388 C1386 1.389 1_545 S
C1388 C1389 1.524 . S
C1388 C1402 1.377 . S
C1389 C1388 1.524 . S
C1389 C1390 1.397 . S
C1389 C1394 1.363 . S
C1390 H1367 0.950 . S
C1390 C1389 1.397 . S
C1390 C1391 1.334 . S
C1391 H1368 0.950 . S
C1391 C1390 1.334 . S
C1391 C1392 1.287 . S
C1392 C1391 1.287 . S
C1392 C1393 1.524 . S
C1392 H1411 0.913 . S
C1393 H1369 0.950 . S
C1393 C1392 1.524 . S
C1393 C1394 1.415 . S
C1394 H1370 0.950 . S
C1394 C1389 1.363 . S
C1394 C1393 1.415 . S
C1395 H1371 0.951 . S
C1395 C1396 1.366 . S
C1395 C1397 1.388 . S
C1396 C1395 1.366 . S
C1396 C1400 1.385 . S
C1397 H1372 0.951 . S
C1397 C1395 1.388 . S
C1397 C1398 1.366 . S
C1398 C1397 1.366 . S
C1398 C1399 1.414 . S
C1398 C1401 1.499 . S
C1399 H1373 0.940 1_565 S
C1399 C1398 1.414 . S
C1399 C1400 1.374 . S
C1400 H1374 0.951 . S
C1400 C1396 1.385 . S
C1400 C1399 1.374 . S
C1401 C1398 1.499 . S
C1401 C1402 1.373 1_565 S
C1401 C1403 1.389 . S
C1402 H1375 0.950 . S
C1402 C1388 1.377 . S
C1402 C1401 1.373 1_545 S
C1403 C1387 1.377 . S
C1403 C1401 1.389 . S
C1403 C1404 1.524 . S
C1404 C1403 1.524 . S
C1404 C1405 1.397 . S
C1404 C1409 1.363 . S
C1405 H1376 0.950 . S
C1405 C1404 1.397 . S
C1405 C1406 1.334 . S
C1406 H1377 0.950 . S
C1406 C1405 1.334 . S
C1406 C1407 1.287 . S
C1407 C1406 1.287 . S
C1407 C1408 1.524 . S
C1407 H1410 0.999 . S
C1408 H1378 0.950 . S
C1408 C1407 1.524 . S
C1408 C1409 1.415 . S
C1409 H1379 0.950 . S
C1409 C1404 1.363 . S
C1409 C1408 1.415 . S
H1410 C1407 0.999 . S
H1411 C1392 0.913 . S
H1412 C1430 0.951 . S
H1413 C1432 0.951 . S
H1414 C1434 0.950 . S
H1415 C1435 0.950 . S
H1416 C1437 0.950 . S
H1417 C1440 0.950 . S
H1418 C1441 0.950 . S
H1419 C1443 0.950 . S
H1420 C1444 0.950 . S
H1421 C1445 0.951 . S
H1422 C1447 0.951 . S
H1423 C1449 0.950 . S
H1424 C1450 0.950 . S
H1425 C1452 0.950 . S
H1426 C1455 0.950 . S
H1427 C1456 0.950 . S
H1428 C1458 0.950 . S
H1429 C1459 0.950 . S
C1430 H1412 0.951 . S
C1430 C1431 1.366 . S
C1430 C1432 1.388 . S
C1431 C1430 1.366 . S
C1431 C1435 1.385 . S
C1432 H1413 0.951 . S
C1432 C1430 1.388 . S
C1432 C1433 1.366 . S
C1433 C1432 1.366 . S
C1433 C1434 1.414 . S
C1433 C1436 1.499 . S
C1434 H1414 0.950 . S
C1434 C1433 1.414 . S
C1434 C1435 1.374 . S
C1435 H1415 0.950 . S
C1435 C1431 1.385 . S
C1435 C1434 1.374 . S
C1436 C1433 1.499 . S
C1436 C1437 1.373 . S
C1436 C1438 1.389 . S
C1437 H1416 0.950 . S
C1437 C1436 1.373 . S
C1437 C1453 1.377 . S
C1438 C1436 1.389 . S
C1438 C1439 1.524 . S
C1438 C1452 1.377 . S
C1439 C1438 1.524 . S
C1439 C1440 1.397 . S
C1439 C1444 1.363 . S
C1440 H1417 0.950 . S
C1440 C1439 1.397 . S
C1440 C1441 1.334 . S
C1441 H1418 0.950 . S
C1441 C1440 1.334 . S
C1441 C1442 1.287 . S
C1442 C1441 1.287 . S
C1442 C1443 1.524 . S
C1442 H1461 0.913 . S
C1443 H1419 0.950 . S
C1443 C1442 1.524 . S
C1443 C1444 1.415 . S
C1444 H1420 0.950 . S
C1444 C1439 1.363 . S
C1444 C1443 1.415 . S
C1445 H1421 0.951 . S
C1445 C1446 1.366 . S
C1445 C1447 1.388 . S
C1446 C1445 1.366 . S
C1446 C1450 1.385 . S
C1447 H1422 0.951 . S
C1447 C1445 1.388 . S
C1447 C1448 1.366 . S
C1448 C1447 1.366 . S
C1448 C1449 1.414 . S
C1448 C1451 1.499 . S
C1449 H1423 0.950 . S
C1449 C1448 1.414 . S
C1449 C1450 1.374 . S
C1450 H1424 0.950 . S
C1450 C1446 1.385 . S
C1450 C1449 1.374 . S
C1451 C1448 1.499 . S
C1451 C1452 1.373 . S
C1451 C1453 1.389 . S
C1452 H1425 0.950 . S
C1452 C1438 1.377 . S
C1452 C1451 1.373 . S
C1453 C1437 1.377 . S
C1453 C1451 1.389 . S
C1453 C1454 1.524 . S
C1454 C1453 1.524 . S
C1454 C1455 1.397 . S
C1454 C1459 1.363 . S
C1455 H1426 0.950 . S
C1455 C1454 1.397 . S
C1455 C1456 1.334 . S
C1456 H1427 0.950 . S
C1456 C1455 1.334 . S
C1456 C1457 1.287 . S
C1457 C1456 1.287 . S
C1457 C1458 1.524 . S
C1457 H1460 0.999 . S
C1458 H1428 0.950 . S
C1458 C1457 1.524 . S
C1458 C1459 1.415 . S
C1459 H1429 0.950 . S
C1459 C1454 1.363 . S
C1459 C1458 1.415 . S
H1460 C1457 0.999 . S
H1461 C1442 0.913 . S
H1462 C1480 0.951 . S
H1463 C1482 0.951 . S
H1464 C1484 0.950 . S
H1465 C1485 0.950 . S
H1466 C1487 0.950 . S
H1467 C1490 0.950 . S
H1468 C1491 0.950 . S
H1469 C1493 0.950 . S
H1470 C1494 0.950 . S
H1471 C1495 0.951 . S
H1472 C1497 0.951 . S
H1473 C1499 0.950 . S
H1474 C1500 0.950 . S
H1475 C1502 0.950 . S
H1476 C1505 0.950 . S
H1477 C1506 0.950 . S
H1478 C1508 0.950 . S
H1479 C1509 0.950 . S
C1480 H1462 0.951 . S
C1480 C1481 1.366 . S
C1480 C1482 1.388 . S
C1481 C1480 1.366 . S
C1481 C1485 1.385 . S
C1482 H1463 0.951 . S
C1482 C1480 1.388 . S
C1482 C1483 1.366 . S
C1483 C1482 1.366 . S
C1483 C1484 1.414 . S
C1483 C1486 1.499 . S
C1484 H1464 0.950 . S
C1484 C1483 1.414 . S
C1484 C1485 1.374 . S
C1485 H1465 0.950 . S
C1485 C1481 1.385 . S
C1485 C1484 1.374 . S
C1486 C1483 1.499 . S
C1486 C1487 1.373 . S
C1486 C1488 1.389 . S
C1487 H1466 0.950 . S
C1487 C1486 1.373 . S
C1487 C1503 1.377 . S
C1488 C1486 1.389 . S
C1488 C1489 1.524 . S
C1488 C1502 1.377 . S
C1489 C1488 1.524 . S
C1489 C1490 1.397 . S
C1489 C1494 1.363 . S
C1490 H1467 0.950 . S
C1490 C1489 1.397 . S
C1490 C1491 1.334 . S
C1491 H1468 0.950 . S
C1491 C1490 1.334 . S
C1491 C1492 1.287 . S
C1492 C1491 1.287 . S
C1492 C1493 1.524 . S
C1492 H1511 0.913 . S
C1493 H1469 0.950 . S
C1493 C1492 1.524 . S
C1493 C1494 1.415 . S
C1494 H1470 0.950 . S
C1494 C1489 1.363 . S
C1494 C1493 1.415 . S
C1495 H1471 0.951 . S
C1495 C1496 1.366 . S
C1495 C1497 1.388 . S
C1496 C1495 1.366 . S
C1496 C1500 1.385 . S
C1497 H1472 0.951 . S
C1497 C1495 1.388 . S
C1497 C1498 1.366 . S
C1498 C1497 1.366 . S
C1498 C1499 1.414 . S
C1498 C1501 1.499 . S
C1499 H1473 0.950 . S
C1499 C1498 1.414 . S
C1499 C1500 1.374 . S
C1500 H1474 0.950 . S
C1500 C1496 1.385 . S
C1500 C1499 1.374 . S
C1501 C1498 1.499 . S
C1501 C1502 1.373 . S
C1501 C1503 1.389 . S
C1502 H1475 0.950 . S
C1502 C1488 1.377 . S
C1502 C1501 1.373 . S
C1503 C1487 1.377 . S
C1503 C1501 1.389 . S
C1503 C1504 1.524 . S
C1504 C1503 1.524 . S
C1504 C1505 1.397 . S
C1504 C1509 1.363 . S
C1505 H1476 0.950 . S
C1505 C1504 1.397 . S
C1505 C1506 1.334 . S
C1506 H1477 0.950 . S
C1506 C1505 1.334 . S
C1506 C1507 1.287 . S
C1507 C1506 1.287 . S
C1507 C1508 1.524 . S
C1507 H1510 0.999 . S
C1508 H1478 0.950 . S
C1508 C1507 1.524 . S
C1508 C1509 1.415 . S
C1509 H1479 0.950 . S
C1509 C1504 1.363 . S
C1509 C1508 1.415 . S
H1510 C1507 0.999 . S
H1511 C1492 0.913 . S
C331 C125 1.800 1_545 S
C346 C161 1.831 1_545 S
C396 C201 1.841 . S
C381 C144 1.800 . S
C446 C241 1.843 . S
C431 C87 1.808 . S
C496 C281 1.838 1_455 S
C481 C106 1.802 1_455 S
C546 C170 1.837 1_565 S
C531 C49 1.809 1_545 S
C581 C68 1.802 . S
C596 C210 1.847 . S
C631 C11 1.803 . S
C646 C250 1.843 . S
C681 C30 1.803 . S
C696 C290 1.839 1_655 S
C746 C167 0.371 . S
C731 C97 0.458 . S
C796 C207 0.377 . S
C781 C116 0.464 . S
C846 C247 0.381 . S
C831 C135 0.470 . S
C881 C78 0.468 . S
C896 C287 0.371 . S
C931 C21 0.461 . S
C946 C158 0.371 . S
C996 C198 0.377 . S
C981 C40 0.462 . S
C1046 C238 0.379 . S
C1031 C59 0.469 . S
C1081 C2 0.465 . S
C1096 C278 0.380 . S
C1131 C101 1.934 1_455 S
C1146 C171 2.096 . S
C1181 C120 1.926 1_545 S
C1196 C211 2.095 . S
C1246 C251 2.091 . S
C1231 C139 1.923 . S
C1296 C291 2.099 . S
C1281 C82 1.923 . S
C1331 C25 1.933 . S
C1346 C162 2.112 . S
C1396 C202 2.095 . S
C1381 C44 1.926 . S
C1446 C242 2.091 . S
C1431 C63 1.922 . S
C1481 C6 1.929 . S
C1496 C282 2.106 . S
