# Generated by pormake.
# Topology ctn, (3,4)-cn, num edge types: 1
# Building blocks:
#     Node 0, Type 0, BuildingBlock: BELTOD_clean_linker_0, # of connection points: 3
#     Node 1, Type 0, BuildingBlock: BELTOD_clean_linker_0, # of connection points: 3
#     Node 2, Type 0, BuildingBlock: BELTOD_clean_linker_0, # of connection points: 3
#     Node 3, Type 0, BuildingBlock: BELTOD_clean_linker_0, # of connection points: 3
#     Node 4, Type 0, BuildingBlock: BELTOD_clean_linker_0, # of connection points: 3
#     Node 5, Type 0, BuildingBlock: BELTOD_clean_linker_0, # of connection points: 3
#     Node 6, Type 0, BuildingBlock: BELTOD_clean_linker_0, # of connection points: 3
#     Node 7, Type 0, BuildingBlock: BELTOD_clean_linker_0, # of connection points: 3
#     Node 8, Type 0, BuildingBlock: BELTOD_clean_linker_0, # of connection points: 3
#     Node 9, Type 0, BuildingBlock: BELTOD_clean_linker_0, # of connection points: 3
#     Node 10, Type 0, BuildingBlock: BELTOD_clean_linker_0, # of connection points: 3
#     Node 11, Type 0, BuildingBlock: BELTOD_clean_linker_0, # of connection points: 3
#     Node 12, Type 0, BuildingBlock: BELTOD_clean_linker_0, # of connection points: 3
#     Node 13, Type 0, BuildingBlock: BELTOD_clean_linker_0, # of connection points: 3
#     Node 14, Type 0, BuildingBlock: BELTOD_clean_linker_0, # of connection points: 3
#     Node 15, Type 0, BuildingBlock: BELTOD_clean_linker_0, # of connection points: 3
#     Node 16, Type 1, BuildingBlock: AZAVOO_clean_sbu_0, # of connection points: 4
#     Node 17, Type 1, BuildingBlock: AZAVOO_clean_sbu_0, # of connection points: 4
#     Node 18, Type 1, BuildingBlock: AZAVOO_clean_sbu_0, # of connection points: 4
#     Node 19, Type 1, BuildingBlock: AZAVOO_clean_sbu_0, # of connection points: 4
#     Node 20, Type 1, BuildingBlock: AZAVOO_clean_sbu_0, # of connection points: 4
#     Node 21, Type 1, BuildingBlock: AZAVOO_clean_sbu_0, # of connection points: 4
#     Node 22, Type 1, BuildingBlock: AZAVOO_clean_sbu_0, # of connection points: 4
#     Node 23, Type 1, BuildingBlock: AZAVOO_clean_sbu_0, # of connection points: 4
#     Node 24, Type 1, BuildingBlock: AZAVOO_clean_sbu_0, # of connection points: 4
#     Node 25, Type 1, BuildingBlock: AZAVOO_clean_sbu_0, # of connection points: 4
#     Node 26, Type 1, BuildingBlock: AZAVOO_clean_sbu_0, # of connection points: 4
#     Node 27, Type 1, BuildingBlock: AZAVOO_clean_sbu_0, # of connection points: 4
#     Edge 28, Type (0, 1), BuildingBlock: AJUNOK_clean_linker_0, # of connection points: 2
#     Edge 29, Type (0, 1), BuildingBlock: AJUNOK_clean_linker_0, # of connection points: 2
#     Edge 30, Type (0, 1), BuildingBlock: AJUNOK_clean_linker_0, # of connection points: 2
#     Edge 31, Type (0, 1), BuildingBlock: AJUNOK_clean_linker_0, # of connection points: 2
#     Edge 32, Type (0, 1), BuildingBlock: AJUNOK_clean_linker_0, # of connection points: 2
#     Edge 33, Type (0, 1), BuildingBlock: AJUNOK_clean_linker_0, # of connection points: 2
#     Edge 34, Type (0, 1), BuildingBlock: AJUNOK_clean_linker_0, # of connection points: 2
#     Edge 35, Type (0, 1), BuildingBlock: AJUNOK_clean_linker_0, # of connection points: 2
#     Edge 36, Type (0, 1), BuildingBlock: AJUNOK_clean_linker_0, # of connection points: 2
#     Edge 37, Type (0, 1), BuildingBlock: AJUNOK_clean_linker_0, # of connection points: 2
#     Edge 38, Type (0, 1), BuildingBlock: AJUNOK_clean_linker_0, # of connection points: 2
#     Edge 39, Type (0, 1), BuildingBlock: AJUNOK_clean_linker_0, # of connection points: 2
#     Edge 40, Type (0, 1), BuildingBlock: AJUNOK_clean_linker_0, # of connection points: 2
#     Edge 41, Type (0, 1), BuildingBlock: AJUNOK_clean_linker_0, # of connection points: 2
#     Edge 42, Type (0, 1), BuildingBlock: AJUNOK_clean_linker_0, # of connection points: 2
#     Edge 43, Type (0, 1), BuildingBlock: AJUNOK_clean_linker_0, # of connection points: 2
#     Edge 44, Type (0, 1), BuildingBlock: AJUNOK_clean_linker_0, # of connection points: 2
#     Edge 45, Type (0, 1), BuildingBlock: AJUNOK_clean_linker_0, # of connection points: 2
#     Edge 46, Type (0, 1), BuildingBlock: AJUNOK_clean_linker_0, # of connection points: 2
#     Edge 47, Type (0, 1), BuildingBlock: AJUNOK_clean_linker_0, # of connection points: 2
#     Edge 48, Type (0, 1), BuildingBlock: AJUNOK_clean_linker_0, # of connection points: 2
#     Edge 49, Type (0, 1), BuildingBlock: AJUNOK_clean_linker_0, # of connection points: 2
#     Edge 50, Type (0, 1), BuildingBlock: AJUNOK_clean_linker_0, # of connection points: 2
#     Edge 51, Type (0, 1), BuildingBlock: AJUNOK_clean_linker_0, # of connection points: 2
#     Edge 52, Type (0, 1), BuildingBlock: AJUNOK_clean_linker_0, # of connection points: 2
#     Edge 53, Type (0, 1), BuildingBlock: AJUNOK_clean_linker_0, # of connection points: 2
#     Edge 54, Type (0, 1), BuildingBlock: AJUNOK_clean_linker_0, # of connection points: 2
#     Edge 55, Type (0, 1), BuildingBlock: AJUNOK_clean_linker_0, # of connection points: 2
#     Edge 56, Type (0, 1), BuildingBlock: AJUNOK_clean_linker_0, # of connection points: 2
#     Edge 57, Type (0, 1), BuildingBlock: AJUNOK_clean_linker_0, # of connection points: 2
#     Edge 58, Type (0, 1), BuildingBlock: AJUNOK_clean_linker_0, # of connection points: 2
#     Edge 59, Type (0, 1), BuildingBlock: AJUNOK_clean_linker_0, # of connection points: 2
#     Edge 60, Type (0, 1), BuildingBlock: AJUNOK_clean_linker_0, # of connection points: 2
#     Edge 61, Type (0, 1), BuildingBlock: AJUNOK_clean_linker_0, # of connection points: 2
#     Edge 62, Type (0, 1), BuildingBlock: AJUNOK_clean_linker_0, # of connection points: 2
#     Edge 63, Type (0, 1), BuildingBlock: AJUNOK_clean_linker_0, # of connection points: 2
#     Edge 64, Type (0, 1), BuildingBlock: AJUNOK_clean_linker_0, # of connection points: 2
#     Edge 65, Type (0, 1), BuildingBlock: AJUNOK_clean_linker_0, # of connection points: 2
#     Edge 66, Type (0, 1), BuildingBlock: AJUNOK_clean_linker_0, # of connection points: 2
#     Edge 67, Type (0, 1), BuildingBlock: AJUNOK_clean_linker_0, # of connection points: 2
#     Edge 68, Type (0, 1), BuildingBlock: AJUNOK_clean_linker_0, # of connection points: 2
#     Edge 69, Type (0, 1), BuildingBlock: AJUNOK_clean_linker_0, # of connection points: 2
#     Edge 70, Type (0, 1), BuildingBlock: AJUNOK_clean_linker_0, # of connection points: 2
#     Edge 71, Type (0, 1), BuildingBlock: AJUNOK_clean_linker_0, # of connection points: 2
#     Edge 72, Type (0, 1), BuildingBlock: AJUNOK_clean_linker_0, # of connection points: 2
#     Edge 73, Type (0, 1), BuildingBlock: AJUNOK_clean_linker_0, # of connection points: 2
#     Edge 74, Type (0, 1), BuildingBlock: AJUNOK_clean_linker_0, # of connection points: 2
#     Edge 75, Type (0, 1), BuildingBlock: AJUNOK_clean_linker_0, # of connection points: 2
# Relax obj value: 0.002
# Max RMSD: 0.041
# Mean RMSD: 0.025
data_MOF--net-ctn--node1-AZAVOO_clean_sbu_0--node2-BELTOD_clean_linker_0--edge1-AJUNOK_clean_linker_0
_symmetry_space_group_name_H-M    P1
_symmetry_Int_Tables_number       1
_symmetry_cell_setting            triclinic
loop_
_symmetry_equiv_pos_as_xyz
'x, y, z'
_cell_length_a     47.228188
_cell_length_b     48.486144
_cell_length_c     48.065318
_cell_angle_alpha  89.487716
_cell_angle_beta   93.267964
_cell_angle_gamma 94.617056
loop_
_atom_site_label
_atom_site_type_symbol
_atom_site_fract_x
_atom_site_fract_y
_atom_site_fract_z
_atom_type_partial_charge
P0 P 0.07406 0.0424 0.05246 0.0
H1 H 0.05466 0.99059 0.08031 0.0
H2 H 0.01555 0.97943 0.11089 0.0
H3 H 0.98542 0.06011 0.09457 0.0
H4 H 0.02359 0.07065 0.06334 0.0
H5 H 0.13367 0.03206 0.05033 0.0
H6 H 0.1578 0.99355 0.03326 0.0
H7 H 0.07698 0.95421 0.00221 0.0
H8 H 0.05271 0.99264 0.02038 0.0
H9 H 0.08306 0.1024 0.05463 0.0
H10 H 0.04824 0.04081 -0.00482 0.0
O11 O 0.09636 0.05642 0.07761 0.0
H12 H 0.07041 0.13899 0.02232 0.0
H13 H 0.03531 0.07774 0.96255 0.0
C14 C 0.04182 0.03125 0.06907 0.0
C15 C 0.03904 0.00548 0.08253 0.0
C16 C 0.01689 -0.00073 0.1003 0.0
C17 C -0.00237 0.01907 0.1055 0.0
C18 C -0.0003 0.04431 0.09087 0.0
C19 C 0.02164 0.05036 0.07295 0.0
C20 C 0.09133 0.01481 0.03731 0.0
C21 C 0.12106 0.01515 0.03991 0.0
C22 C 0.1349 0.99322 0.02988 0.0
C23 C 0.11929 0.97059 0.01677 0.0
C24 C 0.08954 0.97101 0.01286 0.0
C25 C 0.07565 0.99299 0.02308 0.0
C26 C 0.0671 0.06888 0.02708 0.0
C27 C 0.07305 0.09671 0.03445 0.0
C28 C 0.06559 0.11764 0.01607 0.0
C29 C 0.05193 0.11117 0.98996 0.0
C30 C 0.04614 0.08325 0.98243 0.0
C31 C 0.05353 0.0622 0.00101 0.0
P32 P 0.32877 0.70228 0.20982 0.0
H33 H 0.35727 0.72695 0.16233 0.0
H34 H 0.34122 0.75783 0.12519 0.0
H35 H 0.26654 0.7707 0.16953 0.0
H36 H 0.28257 0.73949 0.20678 0.0
H37 H 0.34957 0.66983 0.25608 0.0
H38 H 0.37901 0.68142 0.29843 0.0
H39 H 0.38133 0.76801 0.27615 0.0
H40 H 0.35182 0.75621 0.23346 0.0
H41 H 0.29122 0.66648 0.17367 0.0
H42 H 0.29432 0.69338 0.25916 0.0
O43 O 0.34917 0.68206 0.19315 0.0
H44 H 0.2504 0.63383 0.18238 0.0
H45 H 0.25405 0.66014 0.26821 0.0
C46 C 0.32077 0.73051 0.18694 0.0
C47 C 0.33777 0.73686 0.16444 0.0
C48 C 0.32865 0.75451 0.14327 0.0
C49 C 0.30256 0.76627 0.1445 0.0
C50 C 0.28676 0.76184 0.16824 0.0
C51 C 0.29584 0.744 0.1894 0.0
C52 C 0.34823 0.71218 0.24189 0.0
C53 C 0.35605 0.69136 0.2605 0.0
C54 C 0.37275 0.698 0.28473 0.0
C55 C 0.38208 0.72564 0.29075 0.0
C56 C 0.37426 0.74655 0.27202 0.0
C57 C 0.35735 0.73985 0.24774 0.0
C58 C 0.29627 0.68169 0.21595 0.0
C59 C 0.28293 0.66553 0.19425 0.0
C60 C 0.25962 0.64696 0.19922 0.0
C61 C 0.24919 0.64434 0.226 0.0
C62 C 0.26145 0.6619 0.2473 0.0
C63 C 0.28474 0.68062 0.24224 0.0
P64 P 0.98743 0.49563 0.03052 0.0
H65 H 0.01074 0.47652 0.97952 0.0
H66 H 0.01231 0.43071 0.95949 0.0
H67 H 0.95872 0.39598 0.02309 0.0
H68 H 0.95935 0.4416 0.04441 0.0
H69 H 0.9734 0.55056 0.045 0.0
H70 H 0.92855 0.57243 0.04599 0.0
H71 H 0.88221 0.49488 0.02301 0.0
H72 H 0.92697 0.47311 0.02182 0.0
H73 H 0.03881 0.46874 0.0447 0.0
H74 H 0.98097 0.51512 0.08823 0.0
O75 O 0.00687 0.51807 0.01145 0.0
H76 H 0.07048 0.46834 0.08659 0.0
H77 H 0.01317 0.51524 0.13021 0.0
C78 C 0.98459 0.46255 0.01329 0.0
C79 C -0.00084 0.45911 0.98909 0.0
C80 C -4e-05 0.43285 0.97755 0.0
C81 C 0.98602 0.40952 0.98988 0.0
C82 C 0.97046 0.4133 0.01352 0.0
C83 C 0.97031 0.43947 0.02545 0.0
C84 C 0.95369 0.51011 0.03368 0.0
C85 C 0.95359 0.53815 0.04047 0.0
C86 C 0.92799 0.55066 0.04091 0.0
C87 C 0.90194 0.5353 0.03468 0.0
C88 C 0.90198 0.50708 0.0283 0.0
C89 C 0.92768 0.4946 0.02768 0.0
C90 C 0.0075 0.49194 0.06323 0.0
C91 C 0.03266 0.47846 0.06339 0.0
C92 C 0.05084 0.47837 0.08728 0.0
C93 C 0.04443 0.49209 0.11147 0.0
C94 C 0.01856 0.50451 0.11181 0.0
C95 C 0.00025 0.50455 0.08776 0.0
P96 P 0.68783 0.8324 0.18912 0.0
H97 H 0.73723 0.85008 0.15825 0.0
H98 H 0.77943 0.88169 0.16901 0.0
H99 H 0.75083 0.8941 0.25135 0.0
H100 H 0.70872 0.8625 0.2406 0.0
H101 H 0.67282 0.81044 0.13318 0.0
H102 H 0.68749 0.77117 0.10806 0.0
H103 H 0.73687 0.74701 0.18157 0.0
H104 H 0.72458 0.78829 0.20544 0.0
H105 H 0.65141 0.86462 0.22061 0.0
H106 H 0.67775 0.78139 0.22307 0.0
O107 O 0.66833 0.85082 0.16696 0.0
H108 H 0.62396 0.85447 0.26177 0.0
H109 H 0.65048 0.7713 0.26381 0.0
C110 C 0.71988 0.85374 0.19862 0.0
C111 C 0.74016 0.85938 0.17872 0.0
C112 C 0.76422 0.87745 0.18486 0.0
C113 C 0.76822 0.89053 0.21091 0.0
C114 C 0.74801 0.88464 0.23095 0.0
C115 C 0.72401 0.86641 0.22484 0.0
C116 C 0.69733 0.80214 0.17132 0.0
C117 C 0.68694 0.79681 0.14387 0.0
C118 C 0.69518 0.77408 0.12958 0.0
C119 C 0.71356 0.75579 0.14261 0.0
C120 C 0.72342 0.76096 0.17044 0.0
C121 C 0.71597 0.7843 0.18436 0.0
C122 C 0.66679 0.82387 0.21866 0.0
C123 C 0.65114 0.84413 0.2298 0.0
C124 C 0.63537 0.8383 0.25322 0.0
C125 C 0.635 0.81205 0.26585 0.0
C126 C 0.65055 0.79177 0.25456 0.0
C127 C 0.66625 0.7976 0.23117 0.0
P128 P 0.05841 0.96131 0.45642 0.0
H129 H 0.1202 0.9717 0.45682 0.0
H130 H 0.153 0.00978 0.47424 0.0
H131 H 0.08336 0.04743 0.5094 0.0
H132 H 0.05025 0.00936 0.49099 0.0
H133 H 0.01224 0.91771 0.45183 0.0
H134 H -0.001 0.87791 0.48115 0.0
H135 H 0.06669 0.90408 0.54148 0.0
H136 H 0.07921 0.94484 0.51259 0.0
H137 H 0.05781 0.99357 0.40551 0.0
H138 H -0.0032 0.96471 0.46485 0.0
O139 O 0.07587 0.94497 0.43316 0.0
H140 H 0.01922 0.00807 0.37402 0.0
H141 H 0.95794 0.97808 0.43265 0.0
C142 C 0.08274 0.98786 0.47239 0.0
C143 C 0.11194 0.98797 0.46848 0.0
C144 C 0.13078 0.00966 0.47873 0.0
C145 C 0.12085 0.03152 0.49346 0.0
C146 C 0.09162 0.03092 0.49806 0.0
C147 C 0.07272 0.00918 0.48766 0.0
C148 C 0.04592 0.93498 0.48053 0.0
C149 C 0.02346 0.91569 0.47192 0.0
C150 C 0.01599 0.89283 0.48859 0.0
C151 C 0.03152 0.8883 0.51373 0.0
C152 C 0.05412 0.90748 0.52238 0.0
C153 C 0.06119 0.93077 0.50593 0.0
C154 C 0.03011 0.97709 0.43699 0.0
C155 C 0.03614 0.9907 0.41194 0.0
C156 C 0.01413 -0.00089 0.39404 0.0
C157 C 0.98568 0.99385 0.40085 0.0
C158 C 0.97974 0.98211 0.42691 0.0
C159 C 0.00192 0.97422 0.44513 0.0
P160 P 0.22151 0.72925 0.74206 0.0
H161 H 0.2429 0.78262 0.7665 0.0
H162 H 0.24302 0.80105 0.81365 0.0
H163 H 0.19472 0.72678 0.83959 0.0
H164 H 0.19493 0.70823 0.79226 0.0
H165 H 0.28208 0.7222 0.74151 0.0
H166 H 0.30973 0.68168 0.74525 0.0
H167 H 0.23274 0.62931 0.75584 0.0
H168 H 0.20504 0.67015 0.75237 0.0
H169 H 0.16801 0.75547 0.74447 0.0
H170 H 0.19982 0.68912 0.6993 0.0
O171 O 0.23943 0.75216 0.72218 0.0
H172 H 0.12374 0.75095 0.71537 0.0
H173 H 0.15513 0.68356 0.67112 0.0
C174 C 0.21898 0.744 0.77597 0.0
C175 C 0.23198 0.77042 0.78219 0.0
C176 C 0.23181 0.78108 0.8091 0.0
C177 C 0.21865 0.76546 0.83022 0.0
C178 C 0.20499 0.73927 0.82368 0.0
C179 C 0.20511 0.72865 0.79673 0.0
C180 C 0.24143 0.69909 0.74587 0.0
C181 C 0.2711 0.70203 0.74467 0.0
C182 C 0.28692 0.67891 0.74705 0.0
C183 C 0.27336 0.65239 0.75087 0.0
C184 C 0.24366 0.64952 0.75275 0.0
C185 C 0.22786 0.67279 0.75068 0.0
C186 C 0.18692 0.72206 0.72468 0.0
C187 C 0.16507 0.73923 0.72901 0.0
C188 C 0.13967 0.73655 0.71241 0.0
C189 C 0.13572 0.71663 0.69115 0.0
C190 C 0.15748 0.69907 0.68735 0.0
C191 C 0.18294 0.70201 0.7037 0.0
P192 P 0.98868 0.48642 0.48474 0.0
H193 H 0.04694 0.49163 0.46806 0.0
H194 H 0.06813 0.49422 0.42285 0.0
H195 H 0.98431 0.49031 0.38154 0.0
H196 H 0.96306 0.48774 0.42711 0.0
H197 H -0.00203 0.50748 0.54132 0.0
H198 H 0.99421 0.55277 0.56185 0.0
H199 H 0.96729 0.58451 0.48118 0.0
H200 H 0.97213 0.53913 0.46048 0.0
H201 H 0.97345 0.42859 0.49775 0.0
H202 H 0.92963 0.49946 0.47018 0.0
O203 O 0.0115 0.47029 0.50573 0.0
H204 H 0.92815 0.40111 0.49972 0.0
H205 H 0.88393 0.47159 0.47109 0.0
C206 C 0.00343 0.489 0.45096 0.0
C207 C 0.03305 0.4912 0.44932 0.0
C208 C 0.04516 0.49262 0.42347 0.0
C209 C 0.02787 0.49228 0.39869 0.0
C210 C -0.00187 0.4907 0.40033 0.0
C211 C 0.98599 0.4891 0.42633 0.0
C212 C 0.98568 0.52006 0.49933 0.0
C213 C 0.9914 0.52419 0.52798 0.0
C214 C 0.98893 0.55003 0.53977 0.0
C215 C 0.9801 0.57214 0.5232 0.0
C216 C 0.97426 0.56789 0.49444 0.0
C217 C 0.97695 0.542 0.48261 0.0
C218 C 0.95492 0.46619 0.48425 0.0
C219 C 0.95406 0.43825 0.49201 0.0
C220 C 0.92809 0.42248 0.49298 0.0
C221 C 0.90235 0.43421 0.48585 0.0
C222 C 0.9033 0.46212 0.47736 0.0
C223 C 0.92942 0.478 0.47661 0.0
P224 P 0.82316 0.80149 0.80566 0.0
H225 H 0.86086 0.83208 0.76865 0.0
H226 H 0.88596 0.81872 0.7283 0.0
H227 H 0.84805 0.73507 0.73542 0.0
H228 H 0.82268 0.74865 0.77559 0.0
H229 H 0.79779 0.84495 0.83449 0.0
H230 H 0.75914 0.87387 0.82161 0.0
H231 H 0.74275 0.82914 0.74426 0.0
H232 H 0.78224 0.8007 0.75703 0.0
H233 H 0.85134 0.77411 0.8525 0.0
H234 H 0.77032 0.76508 0.80602 0.0
O235 O 0.84694 0.82195 0.82451 0.0
H236 H 0.83412 0.73955 0.88605 0.0
H237 H 0.75309 0.72991 0.8393 0.0
C238 C 0.84034 0.79125 0.77537 0.0
C239 C 0.85801 0.81084 0.76156 0.0
C240 C 0.87248 0.80316 0.73865 0.0
C241 C 0.8694 0.77573 0.72909 0.0
C242 C 0.85094 0.75632 0.74247 0.0
C243 C 0.83651 0.76404 0.76546 0.0
C244 C 0.79332 0.82124 0.79638 0.0
C245 C 0.78581 0.84128 0.8148 0.0
C246 C 0.76336 0.8575 0.80761 0.0
C247 C 0.74763 0.85362 0.78202 0.0
C248 C 0.75452 0.83266 0.76408 0.0
C249 C 0.77713 0.81651 0.77127 0.0
C250 C 0.81187 0.7726 0.82721 0.0
C251 C 0.83001 0.76428 0.84922 0.0
C252 C 0.82025 0.74424 0.86822 0.0
C253 C 0.79225 0.73193 0.86527 0.0
C254 C 0.7747 0.73916 0.84216 0.0
C255 C 0.7845 0.75927 0.82318 0.0
P256 P 0.31874 0.29965 0.30506 0.0
H257 H 0.35904 0.32875 0.26939 0.0
H258 H 0.38338 0.31473 0.22878 0.0
H259 H 0.33946 0.2333 0.23301 0.0
H260 H 0.31494 0.24753 0.27344 0.0
H261 H 0.29249 0.34188 0.33478 0.0
H262 H 0.25403 0.37109 0.32214 0.0
H263 H 0.23879 0.32834 0.24356 0.0
H264 H 0.27806 0.29957 0.25614 0.0
H265 H 0.34769 0.27406 0.35261 0.0
H266 H 0.26707 0.26169 0.30585 0.0
O267 O 0.34262 0.32056 0.3233 0.0
H268 H 0.3316 0.23946 0.38657 0.0
H269 H 0.25102 0.22627 0.33945 0.0
C270 C 0.33551 0.28907 0.27463 0.0
C271 C 0.35464 0.30788 0.26156 0.0
C272 C 0.36858 0.29986 0.23843 0.0
C273 C 0.36331 0.27295 0.22774 0.0
C274 C 0.3437 0.25427 0.24061 0.0
C275 C 0.32981 0.26232 0.26383 0.0
C276 C 0.28856 0.31909 0.29611 0.0
C277 C 0.28075 0.33865 0.3149 0.0
C278 C 0.25842 0.35506 0.30782 0.0
C279 C 0.24311 0.35189 0.28192 0.0
C280 C 0.25022 0.33132 0.26362 0.0
C281 C 0.27271 0.31496 0.27073 0.0
C282 C 0.30832 0.27087 0.32713 0.0
C283 C 0.3267 0.26347 0.34936 0.0
C284 C 0.3176 0.24337 0.36859 0.0
C285 C 0.29005 0.23 0.36566 0.0
C286 C 0.2723 0.23632 0.34233 0.0
C287 C 0.28141 0.25657 0.32317 0.0
P288 P 0.49142 0.00506 0.5272 0.0
H289 H 0.48737 0.98916 0.46852 0.0
H290 H 0.48582 0.94432 0.44517 0.0
H291 H 0.48666 0.90318 0.52525 0.0
H292 H 0.48743 0.94791 0.54839 0.0
H293 H 0.47584 0.05062 0.56029 0.0
H294 H 0.43116 0.07196 0.56458 0.0
H295 H 0.38765 0.00931 0.51084 0.0
H296 H 0.43263 0.9883 0.50619 0.0
H297 H 0.55232 0.01564 0.5397 0.0
H298 H 0.47845 0.98921 0.5847 0.0
O299 O 0.50792 0.02796 0.50624 0.0
H300 H 0.58254 0.01217 0.58224 0.0
H301 H 0.50884 0.98471 0.62743 0.0
C302 C 0.48822 0.9719 0.51021 0.0
C303 C 0.48719 0.97047 0.48103 0.0
C304 C 0.48646 0.94487 0.46771 0.0
C305 C 0.48672 0.92028 0.48341 0.0
C306 C 0.48654 0.92178 0.51261 0.0
C307 C 0.48716 0.94737 0.52588 0.0
C308 C 0.4575 0.01768 0.53328 0.0
C309 C 0.4566 0.04121 0.54979 0.0
C310 C 0.43106 0.05339 0.55221 0.0
C311 C 0.40593 0.04242 0.5379 0.0
C312 C 0.40676 0.01846 0.52177 0.0
C313 C 0.43241 0.00627 0.51935 0.0
C314 C 0.51311 0.00322 0.55917 0.0
C315 C 0.54257 0.00924 0.55881 0.0
C316 C 0.55986 0.00702 0.58313 0.0
C317 C 0.54809 -0.00165 0.60831 0.0
C318 C 0.51849 0.99203 0.60855 0.0
C319 C 0.50114 0.99447 0.58414 0.0
P320 P 0.18401 0.33607 0.68863 0.0
H321 H 0.23179 0.35616 0.65672 0.0
H322 H 0.27417 0.38749 0.66748 0.0
H323 H 0.24648 0.39897 0.75035 0.0
H324 H 0.20402 0.3675 0.73951 0.0
H325 H 0.15445 0.29679 0.64904 0.0
H326 H 0.16964 0.25655 0.6249 0.0
H327 H 0.25097 0.26607 0.6709 0.0
H328 H 0.23566 0.30604 0.69519 0.0
H329 H 0.13553 0.36028 0.71125 0.0
H330 H 0.1871 0.29253 0.73115 0.0
O331 O 0.16383 0.35206 0.66495 0.0
H332 H 0.10499 0.34627 0.74927 0.0
H333 H 0.15676 0.27857 0.76931 0.0
C334 C 0.21498 0.35919 0.69741 0.0
C335 C 0.23486 0.36535 0.67724 0.0
C336 C 0.25903 0.38324 0.68339 0.0
C337 C 0.26354 0.39568 0.70971 0.0
C338 C 0.24334 0.38987 0.7298 0.0
C339 C 0.2192 0.37173 0.72367 0.0
C340 C 0.1943 0.30494 0.67314 0.0
C341 C 0.17547 0.29008 0.65407 0.0
C342 C 0.18403 0.267 0.64049 0.0
C343 C 0.21156 0.25852 0.64585 0.0
C344 C 0.22976 0.27248 0.66618 0.0
C345 C 0.22109 0.29538 0.6799 0.0
C346 C 0.16321 0.32711 0.71809 0.0
C347 C 0.14039 0.34251 0.72392 0.0
C348 C 0.12308 0.33462 0.74575 0.0
C349 C 0.12851 0.31131 0.76218 0.0
C350 C 0.15197 0.29647 0.75678 0.0
C351 C 0.16931 0.30443 0.73502 0.0
P352 P 0.8306 0.20416 0.70996 0.0
H353 H 0.85853 0.23321 0.6644 0.0
H354 H 0.8416 0.26579 0.62933 0.0
H355 H 0.76498 0.27118 0.67316 0.0
H356 H 0.78207 0.23854 0.70838 0.0
H357 H 0.84448 0.17155 0.75891 0.0
H358 H 0.87419 0.18161 0.8014 0.0
H359 H 0.8891 0.26662 0.77496 0.0
H360 H 0.85927 0.25636 0.73218 0.0
H361 H 0.79942 0.16324 0.67383 0.0
H362 H 0.79132 0.19669 0.75556 0.0
O363 O 0.8526 0.18625 0.69261 0.0
H364 H 0.75889 0.12969 0.68073 0.0
H365 H 0.75131 0.16254 0.76298 0.0
C366 C 0.82126 0.23307 0.68862 0.0
C367 C 0.83837 0.24182 0.66684 0.0
C368 C 0.82871 0.26042 0.64682 0.0
C369 C 0.80193 0.27078 0.64847 0.0
C370 C 0.7858 0.26365 0.67154 0.0
C371 C 0.79547 0.24491 0.69155 0.0
C372 C 0.84902 0.21337 0.74278 0.0
C373 C 0.85352 0.19254 0.76255 0.0
C374 C 0.87049 0.1983 0.78684 0.0
C375 C 0.88357 0.22501 0.79168 0.0
C376 C 0.87907 0.24591 0.77181 0.0
C377 C 0.86191 0.24012 0.74748 0.0
C378 C 0.79893 0.18173 0.71456 0.0
C379 C 0.78884 0.1634 0.69324 0.0
C380 C 0.76565 0.14433 0.69715 0.0
C381 C 0.75205 0.14338 0.72245 0.0
C382 C 0.76116 0.16295 0.74316 0.0
C383 C 0.7843 0.18218 0.73912 0.0
P384 P 0.57128 0.54748 0.54761 0.0
H385 H 0.57 0.54889 0.60816 0.0
H386 H 0.53269 0.53679 0.6401 0.0
H387 H 0.4768 0.5054 0.5714 0.0
H388 H 0.51471 0.51741 0.53918 0.0
H389 H 0.62204 0.52199 0.56797 0.0
H390 H 0.64705 0.48377 0.55138 0.0
H391 H 0.585 0.47216 0.4821 0.0
H392 H 0.55972 0.51059 0.49909 0.0
H393 H 0.51705 0.57367 0.54005 0.0
H394 H 0.5944 0.57087 0.49689 0.0
O395 O 0.5956 0.5682 0.56554 0.0
H396 H 0.50185 0.60976 0.50858 0.0
H397 H 0.58006 0.60857 0.46638 0.0
C398 C 0.5449 0.53461 0.57121 0.0
C399 C 0.5499 0.53915 0.59987 0.0
C400 C 0.52858 0.53212 0.61816 0.0
C401 C 0.50177 0.52049 0.60815 0.0
C402 C 0.49717 0.5147 0.57956 0.0
C403 C 0.51878 0.52142 0.56123 0.0
C404 C 0.5893 0.51938 0.53451 0.0
C405 C 0.61387 0.5114 0.54909 0.0
C406 C 0.62823 0.4896 0.53954 0.0
C407 C 0.61808 0.47505 0.51538 0.0
C408 C 0.59322 0.48291 0.50088 0.0
C409 C 0.57885 0.50489 0.51047 0.0
C410 C 0.55668 0.56901 0.52052 0.0
C411 C 0.5305 0.58018 0.52337 0.0
C412 C 0.522 0.60131 0.50562 0.0
C413 C 0.54005 0.61251 0.48542 0.0
C414 C 0.56562 0.60035 0.48168 0.0
C415 C 0.57385 0.57879 0.49912 0.0
P416 P 0.5631 0.45565 0.95837 0.0
H417 H 0.62495 0.46676 0.9594 0.0
H418 H 0.65688 0.5063 0.97514 0.0
H419 H 0.58595 0.54413 0.00761 0.0
H420 H 0.55379 0.50467 0.99091 0.0
H421 H 0.52172 0.40831 0.95245 0.0
H422 H 0.50724 0.37051 0.98376 0.0
H423 H 0.56278 0.40793 0.04974 0.0
H424 H 0.57677 0.44638 0.01842 0.0
H425 H 0.56398 0.48901 0.90811 0.0
H426 H 0.50043 0.45496 0.96261 0.0
O427 O 0.58126 0.43825 0.93652 0.0
H428 H 0.52635 0.50207 0.87455 0.0
H429 H 0.46279 0.46692 0.92842 0.0
C430 C 0.58691 0.48305 0.97356 0.0
C431 C 0.61621 0.48346 0.97001 0.0
C432 C 0.63453 0.50603 0.97918 0.0
C433 C 0.62388 0.52857 0.99216 0.0
C434 C 0.59467 0.52738 -0.00298 0.0
C435 C 0.57631 0.50481 0.9877 0.0
C436 C 0.54974 0.43055 0.98327 0.0
C437 C 0.53012 0.40893 0.97391 0.0
C438 C 0.52186 0.38732 0.99178 0.0
C439 C 0.53374 0.38648 0.01917 0.0
C440 C 0.5532 0.40828 0.02873 0.0
C441 C 0.56112 0.43023 0.01088 0.0
C442 C 0.53507 0.47025 0.93743 0.0
C443 C 0.54196 0.48472 0.91305 0.0
C444 C 0.52049 0.49225 0.89396 0.0
C445 C 0.49179 0.48518 0.89887 0.0
C446 C 0.48483 0.47235 0.92416 0.0
C447 C 0.50636 0.4653 0.94354 0.0
P448 P 0.71968 0.23204 0.24849 0.0
H449 H 0.75639 0.27765 0.27308 0.0
H450 H 0.76027 0.29874 0.31914 0.0
H451 H 0.69043 0.24306 0.34461 0.0
H452 H 0.68617 0.2222 0.29786 0.0
H453 H 0.72746 0.19204 0.20556 0.0
H454 H 0.7583 0.15398 0.20361 0.0
H455 H 0.78268 0.16485 0.29094 0.0
H456 H 0.75153 0.20277 0.29296 0.0
H457 H 0.68211 0.27301 0.22873 0.0
H458 H 0.67824 0.184 0.23502 0.0
O459 O 0.73821 0.25313 0.22732 0.0
H460 H 0.63722 0.2698 0.20046 0.0
H461 H 0.63327 0.18076 0.20639 0.0
C462 C 0.72091 0.24842 0.28205 0.0
C463 C 0.74162 0.27013 0.28837 0.0
C464 C 0.74392 0.28213 0.31474 0.0
C465 C 0.7258 0.27236 0.33546 0.0
C466 C 0.70454 0.25105 0.32892 0.0
C467 C 0.70219 0.23906 0.30236 0.0
C468 C 0.73695 0.20013 0.24941 0.0
C469 C 0.73879 0.18575 0.2245 0.0
C470 C 0.75657 0.16416 0.22334 0.0
C471 C 0.77312 0.15674 0.24705 0.0
C472 C 0.77008 0.17012 0.2724 0.0
C473 C 0.75226 0.19181 0.27353 0.0
C474 C 0.6838 0.22876 0.23338 0.0
C475 C 0.67133 0.25279 0.22445 0.0
C476 C 0.64573 0.25097 0.20833 0.0
C477 C 0.63214 0.22503 0.20098 0.0
C478 C 0.64346 0.20097 0.21178 0.0
C479 C 0.66921 0.20282 0.22794 0.0
P480 P 0.48379 0.98835 0.97869 0.0
H481 H 0.49559 0.9451 0.9407 0.0
H482 H 0.51776 0.94581 0.8959 0.0
H483 H 0.5213 0.0351 0.89515 0.0
H484 H 0.49769 0.03419 0.93903 0.0
H485 H 0.43699 0.01498 0.00364 0.0
H486 H 0.43515 0.0599 0.026 0.0
H487 H 0.52345 0.08039 0.01037 0.0
H488 H 0.52537 0.03532 0.9882 0.0
H489 H 0.46768 0.93931 0.01177 0.0
H490 H 0.42786 0.98956 0.94873 0.0
O491 O 0.50891 0.97364 -0.00189 0.0
H492 H 0.42415 0.90866 0.01277 0.0
H493 H 0.38375 0.95878 0.94998 0.0
C494 C 0.49545 0.98956 0.94354 0.0
C495 C 0.5007 0.96481 0.93064 0.0
C496 C 0.51368 0.96526 0.90518 0.0
C497 C 0.52209 0.99056 0.89234 0.0
C498 C 0.51527 0.01527 0.90456 0.0
C499 C 0.50197 0.01477 0.92988 0.0
C500 C 0.48118 0.02203 0.99356 0.0
C501 C 0.4559 0.02916 0.00466 0.0
C502 C 0.45489 0.05476 0.01766 0.0
C503 C 0.47908 0.07365 0.01962 0.0
C504 C 0.50439 0.06636 0.00871 0.0
C505 C 0.50547 0.04068 -0.00398 0.0
C506 C 0.45109 0.96656 0.97995 0.0
C507 C 0.44957 0.94381 -0.00185 0.0
C508 C 0.42469 0.92628 -0.00127 0.0
C509 C 0.40077 0.93128 0.98128 0.0
C510 C 0.40197 0.95453 0.9636 0.0
C511 C 0.42709 0.97197 0.9628 0.0
Mg512 Mg 0.23302 0.83855 0.0006 0.0
O513 O 0.27755 0.86036 0.99336 0.0
O514 O 0.30686 0.82645 0.9931 0.0
Mg515 Mg 0.28306 0.7846 0.00113 0.0
C516 C 0.30231 0.852 0.99087 0.0
C517 C 0.18488 0.87673 -0.00159 0.0
O518 O 0.21031 0.8797 0.98869 0.0
O519 O 0.22937 0.82272 0.95545 0.0
O520 O 0.25806 0.78822 0.9592 0.0
O521 O 0.24133 0.84133 0.0471 0.0
O522 O 0.25132 0.80621 0.02176 0.0
C523 C 0.24044 0.80219 0.94503 0.0
C524 C 0.252 0.81765 0.04583 0.0
O525 O 0.20983 0.87854 0.98936 0.0
Mg526 Mg 0.15084 0.50187 0.27096 0.0
O527 O 0.12458 0.49937 0.22847 0.0
O528 O 0.15719 0.50178 0.19646 0.0
Mg529 Mg 0.20217 0.50608 0.21627 0.0
C530 C 0.13131 0.49997 0.20301 0.0
C531 C 0.09313 0.50514 0.29976 0.0
O532 O 0.09455 0.52905 0.28664 0.0
O533 O 0.1633 0.4571 0.2671 0.0
O534 O 0.19638 0.46297 0.23573 0.0
O535 O 0.15303 0.54857 0.27016 0.0
O536 O 0.18472 0.52392 0.25262 0.0
C537 C 0.18241 0.44768 0.2528 0.0
C538 C 0.1761 0.54789 0.25698 0.0
O539 O 0.112 0.48848 0.29584 0.0
Mg540 Mg 0.76991 0.65185 0.027 0.0
O541 O 0.72891 0.62255 0.02041 0.0
O542 O 0.69347 0.65016 0.01326 0.0
Mg543 Mg 0.71008 0.69553 0.01825 0.0
C544 C 0.70259 0.62607 0.01491 0.0
C545 C 0.80117 0.59685 0.03633 0.0
O546 O 0.78413 0.59372 0.05699 0.0
O547 O 0.76808 0.66335 0.98077 0.0
O548 O 0.73411 0.69291 0.97814 0.0
O549 O 0.7663 0.65394 0.07348 0.0
O550 O 0.74661 0.68178 0.04287 0.0
C551 C 0.75358 0.68059 0.96706 0.0
C552 C 0.75076 0.6744 0.06837 0.0
O553 O 0.7991 0.61748 0.02003 0.0
Mg554 Mg 0.89803 0.03167 0.24126 0.0
O555 O 0.86724 0.99263 0.23461 0.0
O556 O 0.89323 0.95644 0.23165 0.0
Mg557 Mg 0.9402 0.97162 0.23699 0.0
C558 C 0.86918 0.96672 0.23146 0.0
C559 C 0.86201 0.08066 0.23805 0.0
O560 O 0.88362 0.08703 0.22253 0.0
O561 O 0.9075 0.02024 0.28714 0.0
O562 O 0.93402 0.98452 0.28192 0.0
O563 O 0.9021 0.03663 0.19504 0.0
O564 O 0.93037 0.01298 0.22233 0.0
C565 C 0.92235 0.00123 0.29727 0.0
C566 C 0.92359 0.02166 0.1977 0.0
O567 O 0.86102 0.05748 0.25073 0.0
Mg568 Mg 0.26767 0.15368 0.5297 0.0
O569 O 0.22655 0.12512 0.52345 0.0
O570 O 0.19068 0.1519 0.51548 0.0
Mg571 Mg 0.20827 0.19732 0.51833 0.0
C572 C 0.20014 0.12802 0.51816 0.0
C573 C 0.30978 0.10939 0.5458 0.0
O574 O 0.30693 0.12096 0.56999 0.0
O575 O 0.26717 0.16372 0.48298 0.0
O576 O 0.23253 0.19251 0.4788 0.0
O577 O 0.26174 0.15724 0.57578 0.0
O578 O 0.2456 0.18573 0.54367 0.0
C579 C 0.25237 0.18012 0.46842 0.0
C580 C 0.24813 0.17874 0.56943 0.0
O581 O 0.29517 0.11742 0.52465 0.0
Mg582 Mg 0.40168 0.5292 0.74221 0.0
O583 O 0.36827 0.49218 0.73505 0.0
O584 O 0.39183 0.45486 0.72874 0.0
Mg585 Mg 0.43958 0.46737 0.73155 0.0
C586 C 0.36857 0.46629 0.73045 0.0
C587 C 0.3445 0.56082 0.74217 0.0
O588 O 0.36716 0.55739 0.75835 0.0
O589 O 0.41332 0.51455 0.78656 0.0
O590 O 0.43763 0.47807 0.77786 0.0
O591 O 0.40331 0.53708 0.69611 0.0
O592 O 0.43105 0.50992 0.71989 0.0
C593 C 0.42785 0.49459 0.79482 0.0
C594 C 0.42356 0.52058 0.69629 0.0
O595 O 0.36689 0.55698 0.7574 0.0
Mg596 Mg 0.73142 0.34413 0.50573 0.0
O597 O 0.7759 0.36701 0.5002 0.0
O598 O 0.80662 0.33411 0.50124 0.0
Mg599 Mg 0.78353 0.29181 0.50835 0.0
C600 C 0.80112 0.35941 0.49879 0.0
C601 C 0.68155 0.37991 0.49557 0.0
O602 O 0.66963 0.35508 0.50057 0.0
O603 O 0.73021 0.32863 0.46039 0.0
O604 O 0.7614 0.29631 0.46526 0.0
O605 O 0.73797 0.34711 0.5523 0.0
O606 O 0.7502 0.31241 0.52763 0.0
C607 C 0.74382 0.30959 0.45031 0.0
C608 C 0.74994 0.32407 0.55154 0.0
O609 O 0.70847 0.38282 0.49424 0.0
Mg610 Mg 0.65352 0.00221 0.76921 0.0
O611 O 0.6259 -0.00191 0.72779 0.0
O612 O 0.6568 -0.00162 0.69417 0.0
Mg613 Mg 0.70241 0.00526 0.71236 0.0
C614 C 0.63136 -0.00329 0.70209 0.0
C615 C 0.59503 0.00334 0.79826 0.0
O616 O 0.59319 0.02571 0.78285 0.0
O617 O 0.66657 0.95763 0.76606 0.0
O618 O 0.69851 0.96285 0.73349 0.0
O619 O 0.65513 0.04889 0.76698 0.0
O620 O 0.68614 0.02374 0.74899 0.0
C621 C 0.68536 0.948 0.75151 0.0
C622 C 0.6777 0.04781 0.75309 0.0
O623 O 0.61595 0.98877 0.79569 0.0
Mg624 Mg 0.03265 0.25954 0.90762 0.0
O625 O 0.99076 0.24902 0.8821 0.0
O626 O 0.95836 0.23352 0.91168 0.0
Mg627 Mg 0.97997 0.23159 0.95561 0.0
C628 C 0.96536 0.24007 0.88706 0.0
C629 C 0.05553 0.26904 0.84923 0.0
O630 O 0.0465 0.24269 0.84863 0.0
O631 O 0.01478 0.29806 0.92485 0.0
O632 O 0.98668 0.27909 0.95712 0.0
O633 O 0.04587 0.21641 0.90331 0.0
O634 O 0.02142 0.22996 0.93758 0.0
C635 C -0.00137 0.30018 0.94506 0.0
C636 C 0.03307 0.21032 0.9259 0.0
O637 O 0.05158 0.28299 0.87075 0.0
Mg638 Mg 0.52975 0.76517 0.40639 0.0
O639 O 0.48758 0.75437 0.38147 0.0
O640 O 0.45478 0.74088 0.4114 0.0
Mg641 Mg 0.47619 0.74265 0.45543 0.0
C642 C 0.46211 0.74586 0.38658 0.0
C643 C 0.57477 0.7821 0.36555 0.0
O644 O 0.58841 0.76899 0.38554 0.0
O645 O 0.51357 0.80547 0.42079 0.0
O646 O 0.48298 0.79022 0.45232 0.0
O647 O 0.54089 0.72135 0.40443 0.0
O648 O 0.51783 0.73809 0.4383 0.0
C649 C 0.4962 0.81002 0.43935 0.0
C650 C 0.52833 0.71721 0.42752 0.0
O651 O 0.54856 0.78524 0.36788 0.0
Mg652 Mg 0.97199 0.72911 0.59164 0.0
O653 O 0.01502 0.72319 0.61548 0.0
O654 O 0.0453 0.71317 0.58372 0.0
Mg655 Mg 0.02263 0.71266 0.54056 0.0
C656 C 0.03974 0.71741 0.60894 0.0
C657 C 0.92829 0.74156 0.63321 0.0
O658 O 0.91357 0.7264 0.61406 0.0
O659 O 0.98952 0.77148 0.57623 0.0
O660 O 0.01923 0.75964 0.54456 0.0
O661 O 0.95909 0.68407 0.59499 0.0
O662 O 0.98197 0.70281 0.55994 0.0
C663 C 0.0073 0.77792 0.55772 0.0
C664 C 0.97134 0.6808 0.57198 0.0
O665 O 0.95468 0.74743 0.63021 0.0
Mg666 Mg 0.4722 0.22728 0.09574 0.0
O667 O 0.51466 0.22204 0.12119 0.0
O668 O 0.54662 0.21484 0.08994 0.0
Mg669 Mg 0.52568 0.21391 0.04618 0.0
C670 C 0.54003 0.21816 0.11501 0.0
C671 C 0.42513 0.23915 0.13359 0.0
O672 O 0.412 0.22599 0.11218 0.0
O673 O 0.4895 0.27069 0.08235 0.0
O674 O 0.521 0.26025 0.05171 0.0
O675 O 0.46026 0.18156 0.09641 0.0
O676 O 0.48433 0.20296 0.06357 0.0
C677 C 0.5083 0.27786 0.06499 0.0
C678 C 0.47335 0.18011 0.07358 0.0
O679 O 0.45205 0.24376 0.13377 0.0
C680 C 0.23225 0.75747 0.88029 0.0
C681 C 0.22176 0.77514 0.85954 0.0
C682 C 0.23774 0.76643 0.90777 0.0
C683 C 0.2328 0.79344 0.91583 0.0
H684 H 0.23707 0.73672 0.8751 0.0
H685 H 0.24618 0.75199 0.92279 0.0
S686 S 0.20379 0.84734 0.86957 0.0
N687 N 0.20543 0.82053 0.84891 0.0
N688 N 0.21569 0.8375 0.90079 0.0
C689 C 0.22151 0.81114 0.89542 0.0
C690 C 0.21611 0.802 0.86724 0.0
C691 C 0.06232 0.47575 0.36611 0.0
C692 C 0.04135 0.49373 0.37145 0.0
C693 C 0.0778 0.47861 0.34207 0.0
C694 C 0.07321 0.49983 0.3225 0.0
H695 H 0.06727 0.45969 0.38101 0.0
H696 H 0.09433 0.46476 0.33949 0.0
S697 S 0.0191 0.5511 0.32585 0.0
N698 N 0.01557 0.53244 0.35453 0.0
N699 N 0.04458 0.53796 0.30929 0.0
C700 C 0.05134 0.51718 0.327 0.0
C701 C 0.03544 0.5141 0.35145 0.0
C702 C 0.75485 0.72108 0.89921 0.0
C703 C 0.7804 0.71459 0.88816 0.0
C704 C 0.74551 0.70865 0.92379 0.0
C705 C 0.76136 0.6892 0.93847 0.0
H706 H 0.74272 0.73707 0.88969 0.0
H707 H 0.72632 0.71539 0.93196 0.0
S708 S 0.82745 0.66175 0.91551 0.0
N709 N 0.81959 0.68499 0.89158 0.0
N710 N 0.80229 0.66165 0.93802 0.0
C711 C 0.78592 0.68102 0.92647 0.0
C712 C 0.79542 0.69376 0.90135 0.0
C713 C 0.96031 0.02262 0.36543 0.0
C714 C 0.96283 -0.00301 0.37892 0.0
C715 C 0.94406 0.02446 0.34017 0.0
C716 C 0.93046 0.00061 0.32735 0.0
H717 H 0.9724 0.04102 0.37358 0.0
H718 H 0.94432 0.04421 0.32943 0.0
S719 S 0.9281 0.92919 0.35565 0.0
N720 N 0.9481 0.94782 0.37901 0.0
N721 N 0.91832 0.95118 0.33117 0.0
C722 C 0.93118 0.97527 0.34163 0.0
C723 C 0.94719 0.97348 0.36755 0.0
C724 C 0.20796 0.21057 0.62563 0.0
C725 C 0.22222 0.23717 0.62819 0.0
C726 C 0.21701 0.19095 0.60735 0.0
C727 C 0.24016 0.1977 0.59081 0.0
H728 H 0.18959 0.20504 0.63762 0.0
H729 H 0.20536 0.17081 0.60549 0.0
S730 S 0.28431 0.26435 0.58952 0.0
N731 N 0.26066 0.26894 0.61272 0.0
N732 N 0.27719 0.23238 0.57813 0.0
C733 C 0.25462 0.22404 0.59335 0.0
C734 C 0.24578 0.24374 0.61214 0.0
C735 C 0.48366 0.50188 0.65294 0.0
C736 C 0.47865 0.51608 0.62777 0.0
C737 C 0.46461 0.50187 0.67421 0.0
C738 C 0.43987 0.51632 0.67132 0.0
H739 H 0.5031 0.49165 0.65666 0.0
H740 H 0.47025 0.49166 0.69363 0.0
S741 S 0.41569 0.55454 0.6082 0.0
N742 N 0.4462 0.54317 0.60012 0.0
N743 N 0.41024 0.54321 0.64011 0.0
C744 C 0.43371 0.52916 0.64551 0.0
C745 C 0.45313 0.52901 0.62374 0.0
C746 C 0.78803 0.27344 0.59792 0.0
C747 C 0.78944 0.28575 0.62434 0.0
C748 C 0.77527 0.28606 0.57471 0.0
C749 C 0.76369 0.31177 0.57678 0.0
H750 H 0.7963 0.25347 0.59526 0.0
H751 H 0.77416 0.27518 0.55509 0.0
S752 S 0.76254 0.35289 0.64151 0.0
N753 N 0.77845 0.32506 0.65154 0.0
N754 N 0.75475 0.34926 0.60773 0.0
C755 C 0.76514 0.32447 0.60316 0.0
C756 C 0.77793 0.31135 0.62696 0.0
C757 C 0.59267 0.98273 0.63183 0.0
C758 C 0.56714 0.99549 0.63379 0.0
C759 C 0.61265 0.98227 0.65443 0.0
C760 C 0.60791 0.99431 0.68012 0.0
H761 H 0.59755 0.97347 0.61242 0.0
H762 H 0.6323 0.97284 0.65153 0.0
S763 S 0.54394 0.02931 0.69667 0.0
N764 N 0.53779 0.0198 0.66382 0.0
N765 N 0.5752 0.01839 0.7066 0.0
C766 C 0.5819 0.00602 0.68286 0.0
C767 C 0.56157 0.00673 0.65965 0.0
C768 C 0.93097 0.24242 0.8135 0.0
C769 C 0.90324 0.23039 0.8166 0.0
C770 C 0.95072 0.24564 0.83638 0.0
C771 C 0.94352 0.23709 0.86339 0.0
H772 H 0.93772 0.24872 0.79307 0.0
H773 H 0.97192 0.25466 0.8327 0.0
S774 S 0.87266 0.20613 0.88271 0.0
N775 N 0.86894 0.21123 0.84874 0.0
N776 N 0.90586 0.21711 0.89183 0.0
C777 C 0.91549 0.22566 0.86682 0.0
C778 C 0.89545 0.22233 0.84344 0.0
C779 C 0.46957 0.87035 0.47752 0.0
C780 C 0.48782 0.89305 0.46967 0.0
C781 C 0.47177 0.8439 0.46676 0.0
C782 C 0.49243 0.83895 0.44773 0.0
H783 H 0.45364 0.87296 0.49243 0.0
H784 H 0.45747 0.8271 0.47397 0.0
S785 S 0.54497 0.89185 0.4199 0.0
N786 N 0.52688 0.90917 0.44131 0.0
N787 N 0.53093 0.85958 0.42077 0.0
C788 C 0.51025 0.86175 0.43899 0.0
C789 C 0.50797 0.88873 0.45002 0.0
C790 C 0.09811 0.27383 0.78449 0.0
C791 C 0.10912 0.30162 0.78411 0.0
C792 C 0.08018 0.26383 0.80515 0.0
C793 C 0.07267 0.28114 0.82646 0.0
H794 H 0.1034 0.25966 0.76863 0.0
H795 H 0.07258 0.24215 0.80458 0.0
S796 S 0.09574 0.35586 0.83454 0.0
N797 N 0.11113 0.3465 0.8065 0.0
N798 N 0.07737 0.32781 0.84546 0.0
C799 C 0.08322 0.30917 0.82606 0.0
C800 C 0.10143 0.31937 0.80486 0.0
C801 C 0.53779 0.64114 0.44157 0.0
C802 C 0.53379 0.63845 0.47029 0.0
C803 C 0.53486 0.6664 0.42762 0.0
C804 C 0.52773 0.68994 0.44183 0.0
H805 H 0.54374 0.62371 0.42989 0.0
H806 H 0.53882 0.66762 0.40565 0.0
S807 S 0.51537 0.69393 0.51726 0.0
N808 N 0.52264 0.66165 0.51251 0.0
N809 N 0.51655 0.70878 0.48629 0.0
C810 C 0.52291 0.68731 0.4704 0.0
C811 C 0.52609 0.66167 0.48462 0.0
C812 C 0.87036 0.75284 0.68273 0.0
C813 C 0.88506 0.76742 0.70496 0.0
C814 C 0.88455 0.74483 0.65966 0.0
C815 C 0.91408 0.75095 0.65788 0.0
H816 H 0.84761 0.74781 0.68303 0.0
H817 H 0.87212 0.73371 0.64309 0.0
S818 S 0.96259 0.78773 0.71141 0.0
N819 N 0.93089 0.78698 0.72434 0.0
N820 N 0.95764 0.77206 0.68095 0.0
C821 C 0.92909 0.76544 0.68012 0.0
C822 C 0.91457 0.77365 0.70362 0.0
C823 C 0.04698 0.84291 0.53073 0.0
C824 C 0.02602 0.86191 0.52895 0.0
C825 C 0.04095 0.81603 0.54094 0.0
C826 C 0.0139 0.80736 0.55023 0.0
H827 H 0.06778 0.84843 0.52293 0.0
H828 H 0.05745 0.80174 0.54101 0.0
S829 S 0.95238 0.85024 0.55175 0.0
N830 N 0.97769 0.87092 0.53839 0.0
N831 N 0.96646 0.82059 0.55836 0.0
C832 C 0.9932 0.82669 0.54986 0.0
C833 C -0.00078 0.85391 0.53895 0.0
C834 C 0.11432 0.71471 0.64239 0.0
C835 C 0.11042 0.7159 0.67112 0.0
C836 C 0.09135 0.71492 0.62274 0.0
C837 C 0.0633 0.71647 0.63083 0.0
H838 H 0.13548 0.71416 0.6349 0.0
H839 H 0.09584 0.71427 0.60091 0.0
S840 S 0.04136 0.71871 0.70374 0.0
N841 N 0.07625 0.71759 0.70691 0.0
N842 N 0.03291 0.71844 0.66992 0.0
C843 C 0.05899 0.71743 0.65958 0.0
C844 C 0.08254 0.71709 0.67969 0.0
C845 C 0.98924 0.62384 0.52343 0.0
C846 C 0.9773 0.5996 0.53589 0.0
C847 C 0.98737 0.6499 0.53531 0.0
C848 C 0.97353 0.65282 0.5602 0.0
H849 H 0.00043 0.62264 0.50447 0.0
H850 H -0.00321 0.66787 0.52474 0.0
S851 S 0.93714 0.59575 0.60016 0.0
N852 N 0.94988 0.5802 0.57372 0.0
N853 N 0.9468 0.62899 0.59639 0.0
C854 C 0.96123 0.6287 0.57273 0.0
C855 C 0.96304 0.60217 0.56053 0.0
C856 C 0.82079 0.90236 0.21224 0.0
C857 C 0.79349 0.91023 0.21698 0.0
C858 C 0.84499 0.92068 0.21724 0.0
C859 C 0.84292 0.94779 0.2269 0.0
H860 H 0.82348 0.88179 0.20473 0.0
H861 H 0.86549 0.91352 0.21316 0.0
S862 S 0.77595 0.97856 0.24216 0.0
N863 N 0.76552 0.94685 0.23162 0.0
N864 N 0.81095 0.98143 0.24105 0.0
C865 C 0.81562 0.9559 0.23172 0.0
C866 C 0.79097 0.93709 0.2268 0.0
C867 C 0.7969 0.11388 0.26204 0.0
C868 C 0.79554 0.13722 0.24456 0.0
C869 C 0.81827 0.09551 0.25973 0.0
C870 C 0.83931 0.10008 0.24015 0.0
H871 H 0.7812 0.10968 0.27742 0.0
H872 H 0.81838 0.07773 0.27353 0.0
S873 S 0.84563 0.15919 0.19041 0.0
N874 N 0.81738 0.16444 0.20771 0.0
N875 N 0.85739 0.13031 0.20326 0.0
C876 C 0.83821 0.12363 0.22278 0.0
C877 C 0.8164 0.14208 0.22501 0.0
C878 C 0.34867 0.92013 0.9879 0.0
C879 C 0.37514 0.91149 0.98115 0.0
C880 C 0.32497 0.90092 0.99036 0.0
C881 C 0.32691 0.8724 0.98603 0.0
H882 H 0.34653 0.94174 0.99219 0.0
H883 H 0.30523 0.90842 -0.00359 0.0
S884 S 0.39096 0.84013 0.96427 0.0
N885 N 0.40146 0.87326 0.96777 0.0
N886 N 0.35726 0.83716 0.97203 0.0
C887 C 0.35311 0.86385 0.97798 0.0
C888 C 0.37711 0.88338 0.97563 0.0
C889 C 0.22494 0.38535 0.24675 0.0
C890 C 0.22246 0.37228 0.27281 0.0
C891 C 0.20998 0.40841 0.23963 0.0
C892 C 0.19192 0.41949 0.25827 0.0
H893 H 0.23996 0.37889 0.23239 0.0
H894 H 0.21391 0.41853 0.21987 0.0
S895 S 0.17399 0.38959 0.32706 0.0
N896 N 0.19741 0.36946 0.31568 0.0
N897 N 0.16954 0.41317 0.30252 0.0
C898 C 0.18731 0.40513 0.28341 0.0
C899 C 0.20261 0.38154 0.29067 0.0
C900 C 0.13319 0.08271 0.49599 0.0
C901 C 0.14067 0.05575 0.50218 0.0
C902 C 0.15233 0.10585 0.50174 0.0
C903 C 0.17985 0.10305 0.51388 0.0
H904 H 0.11267 0.08595 0.48579 0.0
H905 H 0.14563 0.12606 0.49594 0.0
S906 S 0.20878 0.03697 0.53676 0.0
N907 N 0.1766 0.02762 0.52314 0.0
N908 N 0.21278 0.07098 0.53364 0.0
C909 C 0.18727 0.07619 0.52099 0.0
C910 C 0.16768 0.05262 0.51521 0.0
C911 C 0.73798 0.09286 0.72328 0.0
C912 C 0.73103 0.11992 0.72833 0.0
C913 C 0.72011 0.06992 0.7306 0.0
C914 C 0.69433 0.07294 0.74319 0.0
H915 H 0.75799 0.08928 0.7145 0.0
H916 H 0.72722 0.04966 0.72712 0.0
S917 S 0.66529 0.13961 0.75901 0.0
N918 N 0.69597 0.14872 0.7453 0.0
N919 N 0.6621 0.10542 0.75916 0.0
C920 C 0.68663 0.09996 0.74761 0.0
C921 C 0.70504 0.12346 0.74022 0.0
C922 C 0.37088 0.06528 0.56523 0.0
C923 C 0.37937 0.05675 0.53932 0.0
C924 C 0.34768 0.08133 0.56708 0.0
C925 C 0.33201 0.08965 0.54306 0.0
H926 H 0.38261 0.05991 0.58428 0.0
H927 H 0.34251 0.0878 0.58756 0.0
S928 S 0.34503 0.0719 0.47009 0.0
N929 N 0.36991 0.05715 0.48908 0.0
N930 N 0.3261 0.08707 0.49246 0.0
C931 C 0.33965 0.08041 0.51701 0.0
C932 C 0.36335 0.06403 0.51516 0.0
C933 C 0.66301 0.45405 0.50459 0.0
C934 C 0.63325 0.45125 0.50627 0.0
C935 C 0.67833 0.43115 0.49954 0.0
C936 C 0.66452 0.40443 0.49625 0.0
H937 H 0.67465 0.47404 0.50792 0.0
H938 H 0.70129 0.43429 0.49941 0.0
S939 S 0.58654 0.38642 0.49683 0.0
N940 N 0.59036 0.42003 0.50278 0.0
N941 N 0.61893 0.37699 0.49308 0.0
C942 C 0.63458 0.40162 0.49657 0.0
C943 C 0.619 0.425 0.50162 0.0
C944 C 0.70843 0.29324 0.37851 0.0
C945 C 0.73065 0.28302 0.36432 0.0
C946 C 0.71296 0.30295 0.40605 0.0
C947 C 0.73972 0.30223 0.4204 0.0
H948 H 0.68745 0.29371 0.36825 0.0
H949 H 0.69523 0.31024 0.41641 0.0
S950 S 0.80491 0.27784 0.3922 0.0
N951 N 0.78034 0.2731 0.36652 0.0
N952 N 0.78893 0.29129 0.41792 0.0
C953 C 0.76214 0.2924 0.4062 0.0
C954 C 0.75759 0.28279 0.37827 0.0
C955 C 0.53317 0.00914 0.84478 0.0
C956 C 0.53939 0.99142 0.86728 0.0
C957 C 0.55066 0.01206 0.82209 0.0
C958 C 0.57511 -0.00264 0.82091 0.0
H959 H 0.51481 0.02116 0.84487 0.0
H960 H 0.54522 0.02641 0.80561 0.0
S961 S 0.60088 0.94821 0.87459 0.0
N962 N 0.57186 0.95901 0.88699 0.0
N963 N 0.60428 0.96394 0.84423 0.0
C964 C 0.58113 0.97896 0.84293 0.0
C965 C 0.56342 0.97614 0.86611 0.0
C966 C 0.25248 0.21811 0.39918 0.0
C967 C 0.27867 0.21264 0.3888 0.0
C968 C 0.24337 0.20598 0.42397 0.0
C969 C 0.26009 0.18791 0.43961 0.0
H970 H 0.2396 0.23315 0.38897 0.0
H971 H 0.22361 0.21199 0.43155 0.0
S972 S 0.32817 0.16308 0.4187 0.0
N973 N 0.31946 0.18511 0.39386 0.0
N974 N 0.30259 0.16246 0.44079 0.0
C975 C 0.28534 0.18058 0.4283 0.0
C976 C 0.2946 0.19298 0.40291 0.0
C977 C 0.46613 0.51401 0.86372 0.0
C978 C 0.46991 0.48801 0.87596 0.0
C979 C 0.44986 0.51627 0.83853 0.0
C980 C 0.43756 0.49254 0.82446 0.0
H981 H 0.47692 0.53254 0.873 0.0
H982 H 0.44881 0.53651 0.82896 0.0
S983 S 0.43924 0.42 0.84907 0.0
N984 N 0.45813 0.43837 0.8734 0.0
N985 N 0.42832 0.44255 0.82568 0.0
C986 C 0.43987 0.46663 0.83732 0.0
C987 C 0.45588 0.46438 0.86319 0.0
C988 C 0.70339 0.71762 0.10746 0.0
C989 C 0.72277 0.73206 0.12666 0.0
C990 C 0.71224 0.69777 0.08951 0.0
C991 C 0.74055 0.69087 0.09075 0.0
H992 H 0.6813 0.72223 0.10566 0.0
H993 H 0.69698 0.68824 0.07408 0.0
S994 S 0.79979 0.72151 0.13723 0.0
N995 N 0.77197 0.73767 0.14542 0.0
N996 N 0.78785 0.69902 0.11289 0.0
C997 C 0.75986 0.70386 0.11069 0.0
C998 C 0.75115 0.72473 0.12841 0.0
C999 C 0.94941 0.02274 0.12419 0.0
C1000 C 0.97752 0.01516 0.12825 0.0
C1001 C 0.93157 0.02347 0.14652 0.0
C1002 C 0.94111 0.01661 0.1738 0.0
H1003 H 0.94143 0.02898 0.10371 0.0
H1004 H 0.91045 0.03033 0.14248 0.0
S1005 S 0.01279 0.99482 0.19547 0.0
N1006 N 0.01388 0.0002 0.1616 0.0
N1007 N 0.98041 0.00114 0.20337 0.0
C1008 C 0.9688 0.00786 0.17792 0.0
C1009 C 0.98697 0.00723 0.15521 0.0
C1010 C 0.28365 0.80733 0.11958 0.0
C1011 C 0.29006 0.77955 0.11939 0.0
C1012 C 0.2715 0.81965 0.09563 0.0
C1013 C 0.26512 0.80446 0.07086 0.0
H1014 H 0.28825 0.81961 0.13825 0.0
H1015 H 0.26713 0.8412 0.09656 0.0
S1016 S 0.27522 0.72998 0.06118 0.0
N1017 N 0.28778 0.73676 0.09333 0.0
N1018 N 0.26429 0.75937 0.04872 0.0
C1019 C 0.27084 0.77639 0.07087 0.0
C1020 C 0.28346 0.76407 0.09505 0.0
C1021 C 0.05955 0.48701 0.16234 0.0
C1022 C 0.06602 0.49537 0.13516 0.0
C1023 C 0.08057 0.48887 0.1844 0.0
C1024 C 0.10875 0.4992 0.17999 0.0
H1025 H 0.0383 0.47841 0.16642 0.0
H1026 H 0.07483 0.48165 0.20487 0.0
S1027 S 0.13523 0.52726 0.11314 0.0
N1028 N 0.10163 0.51668 0.10556 0.0
N1029 N 0.141 0.52026 0.14654 0.0
C1030 C 0.11501 0.50862 0.15299 0.0
C1031 C 0.0937 0.50669 0.13072 0.0
C1032 C 0.42724 0.74777 0.31327 0.0
C1033 C 0.40108 0.73226 0.31586 0.0
C1034 C 0.44667 0.75221 0.33626 0.0
C1035 C 0.44059 0.74154 0.36285 0.0
H1036 H 0.43311 0.75587 0.29313 0.0
H1037 H 0.4667 0.76399 0.33305 0.0
S1038 S 0.37393 0.70085 0.38075 0.0
N1039 N 0.36937 0.70726 0.34708 0.0
N1040 N 0.40571 0.71548 0.39037 0.0
C1041 C 0.41405 0.72658 0.36579 0.0
C1042 C 0.39438 0.72195 0.3423 0.0
C1043 C 0.98727 0.37667 0.9497 0.0
C1044 C 0.98873 0.38131 0.97871 0.0
C1045 C 0.99069 0.35043 0.93878 0.0
C1046 C 0.99512 0.3278 0.9565 0.0
H1047 H 0.98333 0.3934 0.93528 0.0
H1048 H 0.98944 0.34775 0.91638 0.0
S1049 S 0.00335 0.32916 0.03368 0.0
N1050 N -0.00263 0.3612 0.02471 0.0
N1051 N 0.00232 0.31181 0.00421 0.0
C1052 C -0.00321 0.3321 0.98543 0.0
C1053 C 0.99393 0.35885 -0.00347 0.0
C1054 C 0.63302 0.79394 0.31453 0.0
C1055 C 0.61921 0.80584 0.29127 0.0
C1056 C 0.61856 0.78693 0.33853 0.0
C1057 C 0.5896 0.79138 0.34025 0.0
H1058 H 0.65526 0.79 0.31419 0.0
H1059 H 0.63023 0.77764 0.35575 0.0
S1060 S 0.54367 0.82193 0.28474 0.0
N1061 N 0.57503 0.8218 0.27121 0.0
N1062 N 0.54768 0.80874 0.31638 0.0
C1063 C 0.57558 0.80361 0.31718 0.0
C1064 C 0.59042 0.81082 0.29271 0.0
C1065 C 0.02836 0.15494 0.9818 0.0
C1066 C 0.04353 0.13395 0.97125 0.0
C1067 C 0.0236 0.1788 0.96622 0.0
C1068 C 0.03398 0.18274 0.93947 0.0
H1069 H 0.02088 0.1533 0.0027 0.0
H1070 H 0.01283 0.19478 0.97587 0.0
S1071 S 0.07279 0.1326 0.9014 0.0
N1072 N 0.0672 0.11754 0.93177 0.0
N1073 N 0.05823 0.16241 0.90223 0.0
C1074 C 0.04781 0.16115 0.92802 0.0
C1075 C 0.05256 0.13673 0.94396 0.0
C1076 C 0.40831 0.26905 0.20326 0.0
C1077 C 0.37853 0.26441 0.20341 0.0
C1078 C 0.42318 0.26091 0.18063 0.0
C1079 C 0.40883 0.24793 0.15716 0.0
H1080 H 0.42029 0.27873 0.22096 0.0
H1081 H 0.44613 0.26474 0.18166 0.0
S1082 S 0.3305 0.23269 0.14672 0.0
N1083 N 0.33503 0.24718 0.17776 0.0
N1084 N 0.3627 0.23174 0.13528 0.0
C1085 C 0.37891 0.24354 0.15695 0.0
C1086 C 0.36384 0.25178 0.18005 0.0
C1087 C 0.4997 0.35127 0.04065 0.0
C1088 C 0.52792 0.36125 0.0362 0.0
C1089 C 0.49348 0.32486 0.05211 0.0
C1090 C 0.51527 0.30741 0.05879 0.0
H1091 H 0.48227 0.36354 0.0342 0.0
H1092 H 0.47143 0.31741 0.05404 0.0
S1093 S 0.59268 0.32464 0.0533 0.0
N1094 N 0.57787 0.35244 0.04133 0.0
N1095 N 0.56617 0.30267 0.06228 0.0
C1096 C 0.54361 0.31771 0.05576 0.0
C1097 C 0.54995 0.34469 0.04461 0.0
C1098 C 0.5815 0.21059 0.18473 0.0
C1099 C 0.60849 0.22325 0.17929 0.0
C1100 C 0.55911 0.20925 0.16401 0.0
C1101 C 0.56332 0.21988 0.13706 0.0
H1102 H 0.57763 0.20198 0.20517 0.0
H1103 H 0.53855 0.19949 0.16896 0.0
S1104 S 0.6302 0.25508 0.11257 0.0
N1105 N 0.63815 0.24667 0.14528 0.0
N1106 N 0.59651 0.24391 0.1064 0.0
C1107 C 0.59033 0.23246 0.13149 0.0
C1108 C 0.61281 0.23419 0.15258 0.0
C1109 C 0.46885 0.10255 0.06031 0.0
C1110 C 0.47797 0.10092 0.03308 0.0
C1111 C 0.4678 0.1282 0.07338 0.0
C1112 C 0.47566 0.1532 0.05963 0.0
H1113 H 0.46272 0.08382 0.07168 0.0
H1114 H 0.46073 0.12839 0.09442 0.0
S1115 S 0.49885 0.15994 0.98708 0.0
N1116 N 0.4938 0.12625 0.9923 0.0
N1117 N 0.49134 0.17445 0.01642 0.0
C1118 C 0.4844 0.15175 0.03215 0.0
C1119 C 0.48569 0.12563 0.019 0.0
C1120 C 0.31641 0.40461 0.71117 0.0
C1121 C 0.2898 0.41399 0.71617 0.0
C1122 C 0.34159 0.42156 0.7162 0.0
C1123 C 0.34126 0.44878 0.72621 0.0
H1124 H 0.31781 0.38391 0.70333 0.0
H1125 H 0.36146 0.41322 0.71183 0.0
S1126 S 0.27668 0.48323 0.74245 0.0
N1127 N 0.26433 0.4521 0.73162 0.0
N1128 N 0.31161 0.48417 0.74108 0.0
C1129 C 0.31466 0.45838 0.73142 0.0
C1130 C 0.28898 0.44094 0.72646 0.0
C1131 C 0.2831 0.60606 0.73261 0.0
C1132 C 0.29021 0.62778 0.75156 0.0
C1133 C 0.30058 0.58415 0.73066 0.0
C1134 C 0.32561 0.58293 0.74775 0.0
H1135 H 0.26449 0.60657 0.7184 0.0
H1136 H 0.29482 0.56834 0.71509 0.0
S1137 S 0.35205 0.63356 0.80284 0.0
N1138 N 0.32278 0.64589 0.78913 0.0
N1139 N 0.3556 0.60476 0.78575 0.0
C1140 C 0.3323 0.60397 0.76774 0.0
C1141 C 0.31459 0.62638 0.76953 0.0
C1142 C 0.87283 0.38974 0.47663 0.0
C1143 C 0.87494 0.41685 0.48715 0.0
C1144 C 0.84858 0.37174 0.47995 0.0
C1145 C 0.82519 0.38009 0.4937 0.0
H1146 H 0.89029 0.38217 0.46604 0.0
H1147 H 0.84832 0.35092 0.47187 0.0
S1148 S 0.81946 0.44914 0.5245 0.0
N1149 N 0.85125 0.45137 0.5116 0.0
N1150 N 0.80525 0.4176 0.51721 0.0
C1151 C 0.82646 0.40746 0.50342 0.0
C1152 C 0.85141 0.42581 0.50029 0.0
C1153 C 0.72855 0.88606 0.74635 0.0
C1154 C 0.72667 0.87363 0.77277 0.0
C1155 C 0.71323 0.90877 0.7389 0.0
C1156 C 0.69539 0.92014 0.75757 0.0
H1157 H 0.74337 0.87936 0.7319 0.0
H1158 H 0.71667 0.91841 0.71882 0.0
S1159 S 0.67899 0.89181 0.82738 0.0
N1160 N 0.70243 0.87163 0.81612 0.0
N1161 N 0.67386 0.91473 0.80234 0.0
C1162 C 0.69139 0.90639 0.78315 0.0
C1163 C 0.70705 0.88314 0.79073 0.0
C1164 C 0.67004 0.55146 0.01256 0.0
C1165 C 0.64306 0.55376 -0.00091 0.0
C1166 C 0.68908 0.57487 0.01776 0.0
C1167 C 0.68189 0.60155 0.00971 0.0
H1168 H 0.67653 0.53137 0.01912 0.0
H1169 H 0.70958 0.57198 0.02818 0.0
S1170 S 0.61435 0.61847 0.9722 0.0
N1171 N 0.61061 0.58463 0.97671 0.0
N1172 N 0.64594 0.62859 0.98671 0.0
C1173 C 0.65489 0.60407 -0.00382 0.0
C1174 C 0.63562 0.58023 0.99084 0.0
C1175 C 0.23417 0.59405 0.2247 0.0
C1176 C 0.22847 0.62082 0.23241 0.0
C1177 C 0.21673 0.57089 0.23224 0.0
C1178 C 0.19253 0.57338 0.24755 0.0
H1179 H 0.25293 0.59082 0.21356 0.0
H1180 H 0.22295 0.55086 0.22655 0.0
S1181 S 0.1675 0.63928 0.27181 0.0
N1182 N 0.19656 0.64889 0.25549 0.0
N1183 N 0.16334 0.6052 0.26952 0.0
C1184 C 0.18612 0.60018 0.25484 0.0
C1185 C 0.20419 0.6239 0.24736 0.0
C1186 C 0.87263 0.57347 0.01804 0.0
C1187 C 0.87503 0.54921 0.03391 0.0
C1188 C 0.84819 0.58803 0.01808 0.0
C1189 C 0.82524 0.57912 0.03433 0.0
H1190 H 0.88996 0.58143 0.00563 0.0
H1191 H 0.84773 0.6069 0.0059 0.0
S1192 S 0.82058 0.51594 0.07865 0.0
N1193 N 0.85213 0.5162 0.06546 0.0
N1194 N 0.80612 0.54358 0.0658 0.0
C1195 C 0.82708 0.5544 0.04974 0.0
C1196 C 0.85195 0.53943 0.04945 0.0
C1197 C 0.16006 0.94972 -0.00449 0.0
C1198 C 0.1342 0.94612 0.00891 0.0
C1199 C 0.17627 0.92728 0.991 0.0
C1200 C 0.16712 0.9004 -0.00025 0.0
H1201 H 0.16812 0.97017 0.98898 0.0
H1202 H 0.19635 0.93119 0.9813 0.0
S1203 S 0.10107 0.87964 0.03521 0.0
N1204 N 0.10029 0.91335 0.03051 0.0
N1205 N 0.13048 0.87126 0.02153 0.0
C1206 C 0.14098 0.89639 0.01224 0.0
C1207 C 0.12455 0.91918 0.01694 0.0
loop_
_geom_bond_atom_site_label_1
_geom_bond_atom_site_label_2
_geom_bond_distance
_geom_bond_site_symmetry_2
_ccdc_geom_bond_type
P0 O11 1.490 . S
P0 C14 1.812 . S
P0 C20 1.803 . S
P0 C26 1.819 . S
H1 C15 0.941 . S
H2 C16 0.939 . S
H3 C18 0.940 . S
H4 C19 0.940 . S
H5 C21 0.939 . S
H6 C22 0.942 . S
H7 C24 0.940 . S
H8 C25 0.939 . S
H9 C27 0.941 . S
H10 C31 0.939 1_556 S
O11 P0 1.490 . S
H12 C28 0.939 . S
H13 C30 0.940 . S
C14 P0 1.812 . S
C14 C15 1.389 . S
C14 C19 1.391 . S
C15 H1 0.941 . S
C15 C14 1.389 . S
C15 C16 1.397 . S
C16 H2 0.939 . S
C16 C15 1.397 . S
C16 C17 1.378 1_455 S
C17 C16 1.378 1_655 S
C17 C18 1.378 . S
C18 H3 0.940 . S
C18 C17 1.378 . S
C18 C19 1.396 1_655 S
C19 H4 0.940 . S
C19 C14 1.391 . S
C19 C18 1.396 1_455 S
C20 P0 1.803 . S
C20 C21 1.378 . S
C20 C25 1.400 . S
C21 H5 0.939 . S
C21 C20 1.378 . S
C21 C22 1.361 . S
C22 H6 0.942 . S
C22 C21 1.361 . S
C22 C23 1.369 1_545 S
C23 C22 1.369 1_565 S
C23 C24 1.404 . S
C24 H7 0.940 . S
C24 C23 1.404 . S
C24 C25 1.389 1_565 S
C25 H8 0.939 . S
C25 C20 1.400 . S
C25 C24 1.389 1_545 S
C26 P0 1.819 . S
C26 C27 1.391 . S
C26 C31 1.391 . S
C27 H9 0.941 . S
C27 C26 1.391 . S
C27 C28 1.396 . S
C28 H12 0.939 . S
C28 C27 1.396 . S
C28 C29 1.397 1_554 S
C29 C28 1.397 1_556 S
C29 C30 1.385 . S
C30 H13 0.940 . S
C30 C29 1.385 . S
C30 C31 1.388 1_556 S
C31 H10 0.939 1_554 S
C31 C26 1.391 . S
C31 C30 1.388 1_554 S
P32 O43 1.490 . S
P32 C46 1.812 . S
P32 C52 1.803 . S
P32 C58 1.819 . S
H33 C47 0.941 . S
H34 C48 0.939 . S
H35 C50 0.940 . S
H36 C51 0.940 . S
H37 C53 0.939 . S
H38 C54 0.942 . S
H39 C56 0.940 . S
H40 C57 0.939 . S
H41 C59 0.941 . S
H42 C63 0.939 . S
O43 P32 1.490 . S
H44 C60 0.939 . S
H45 C62 0.940 . S
C46 P32 1.812 . S
C46 C47 1.389 . S
C46 C51 1.391 . S
C47 H33 0.941 . S
C47 C46 1.389 . S
C47 C48 1.397 . S
C48 H34 0.939 . S
C48 C47 1.397 . S
C48 C49 1.378 . S
C49 C48 1.378 . S
C49 C50 1.378 . S
C50 H35 0.940 . S
C50 C49 1.378 . S
C50 C51 1.396 . S
C51 H36 0.940 . S
C51 C46 1.391 . S
C51 C50 1.396 . S
C52 P32 1.803 . S
C52 C53 1.378 . S
C52 C57 1.400 . S
C53 H37 0.939 . S
C53 C52 1.378 . S
C53 C54 1.361 . S
C54 H38 0.942 . S
C54 C53 1.361 . S
C54 C55 1.369 . S
C55 C54 1.369 . S
C55 C56 1.404 . S
C56 H39 0.940 . S
C56 C55 1.404 . S
C56 C57 1.389 . S
C57 H40 0.939 . S
C57 C52 1.400 . S
C57 C56 1.389 . S
C58 P32 1.819 . S
C58 C59 1.391 . S
C58 C63 1.391 . S
C59 H41 0.941 . S
C59 C58 1.391 . S
C59 C60 1.396 . S
C60 H44 0.939 . S
C60 C59 1.396 . S
C60 C61 1.397 . S
C61 C60 1.397 . S
C61 C62 1.385 . S
C62 H45 0.940 . S
C62 C61 1.385 . S
C62 C63 1.388 . S
C63 H42 0.939 . S
C63 C58 1.391 . S
C63 C62 1.388 . S
P64 O75 1.490 . S
P64 C78 1.811 . S
P64 C84 1.803 1_455 S
P64 C90 1.819 . S
H65 C79 0.941 . S
H66 C80 0.939 . S
H67 C82 0.940 . S
H68 C83 0.940 . S
H69 C85 0.939 . S
H70 C86 0.942 . S
H71 C88 0.940 . S
H72 C89 0.939 . S
H73 C91 0.941 . S
H74 C95 0.947 . S
O75 P64 1.490 . S
H76 C92 0.939 . S
H77 C94 0.940 1_655 S
C78 P64 1.811 . S
C78 C79 1.396 1_554 S
C78 C83 1.386 1_455 S
C79 H65 0.941 . S
C79 C78 1.396 1_556 S
C79 C80 1.397 . S
C80 H66 0.939 . S
C80 C79 1.397 . S
C80 C81 1.378 1_455 S
C81 C80 1.378 1_655 S
C81 C82 1.378 1_556 S
C82 H67 0.940 . S
C82 C81 1.378 1_554 S
C82 C83 1.396 . S
C83 H68 0.940 . S
C83 C78 1.386 1_655 S
C83 C82 1.396 . S
C84 P64 1.803 1_655 S
C84 C85 1.378 . S
C84 C89 1.400 . S
C85 H69 0.939 . S
C85 C84 1.378 . S
C85 C86 1.361 . S
C86 H70 0.942 . S
C86 C85 1.361 . S
C86 C87 1.369 . S
C87 C86 1.369 . S
C87 C88 1.404 . S
C88 H71 0.940 . S
C88 C87 1.404 . S
C88 C89 1.389 . S
C89 H72 0.939 . S
C89 C84 1.400 . S
C89 C88 1.389 . S
C90 P64 1.819 . S
C90 C91 1.391 . S
C90 C95 1.386 1_455 S
C91 H73 0.941 . S
C91 C90 1.391 . S
C91 C92 1.396 . S
C92 H76 0.939 . S
C92 C91 1.396 . S
C92 C93 1.397 . S
C93 C92 1.397 . S
C93 C94 1.385 . S
C94 H77 0.940 1_455 S
C94 C93 1.385 . S
C94 C95 1.386 1_455 S
C95 H74 0.947 . S
C95 C90 1.386 1_655 S
C95 C94 1.386 1_655 S
P96 O107 1.490 . S
P96 C110 1.812 . S
P96 C116 1.803 . S
P96 C122 1.819 . S
H97 C111 0.941 . S
H98 C112 0.939 . S
H99 C114 0.940 . S
H100 C115 0.940 . S
H101 C117 0.939 . S
H102 C118 0.942 . S
H103 C120 0.940 . S
H104 C121 0.939 . S
H105 C123 0.941 . S
H106 C127 0.939 . S
O107 P96 1.490 . S
H108 C124 0.939 . S
H109 C126 0.940 . S
C110 P96 1.812 . S
C110 C111 1.389 . S
C110 C115 1.391 . S
C111 H97 0.941 . S
C111 C110 1.389 . S
C111 C112 1.397 . S
C112 H98 0.939 . S
C112 C111 1.397 . S
C112 C113 1.378 . S
C113 C112 1.378 . S
C113 C114 1.378 . S
C114 H99 0.940 . S
C114 C113 1.378 . S
C114 C115 1.396 . S
C115 H100 0.940 . S
C115 C110 1.391 . S
C115 C114 1.396 . S
C116 P96 1.803 . S
C116 C117 1.378 . S
C116 C121 1.400 . S
C117 H101 0.939 . S
C117 C116 1.378 . S
C117 C118 1.361 . S
C118 H102 0.942 . S
C118 C117 1.361 . S
C118 C119 1.369 . S
C119 C118 1.369 . S
C119 C120 1.404 . S
C120 H103 0.940 . S
C120 C119 1.404 . S
C120 C121 1.389 . S
C121 H104 0.939 . S
C121 C116 1.400 . S
C121 C120 1.389 . S
C122 P96 1.819 . S
C122 C123 1.391 . S
C122 C127 1.391 . S
C123 H105 0.941 . S
C123 C122 1.391 . S
C123 C124 1.396 . S
C124 H108 0.939 . S
C124 C123 1.396 . S
C124 C125 1.397 . S
C125 C124 1.397 . S
C125 C126 1.385 . S
C126 H109 0.940 . S
C126 C125 1.385 . S
C126 C127 1.388 . S
C127 H106 0.939 . S
C127 C122 1.391 . S
C127 C126 1.388 . S
P128 O139 1.490 . S
P128 C142 1.812 . S
P128 C148 1.803 . S
P128 C154 1.819 . S
H129 C143 0.941 . S
H130 C144 0.939 . S
H131 C146 0.940 . S
H132 C147 0.940 . S
H133 C149 0.939 . S
H134 C150 0.942 . S
H135 C152 0.940 . S
H136 C153 0.939 . S
H137 C155 0.941 . S
H138 C159 0.939 . S
O139 P128 1.490 . S
H140 C156 0.939 . S
H141 C158 0.940 . S
C142 P128 1.812 . S
C142 C143 1.389 . S
C142 C147 1.391 1_565 S
C143 H129 0.941 . S
C143 C142 1.389 . S
C143 C144 1.397 1_565 S
C144 H130 0.939 . S
C144 C143 1.397 1_545 S
C144 C145 1.378 . S
C145 C144 1.378 . S
C145 C146 1.378 . S
C146 H131 0.940 . S
C146 C145 1.378 . S
C146 C147 1.396 . S
C147 H132 0.940 . S
C147 C142 1.391 1_545 S
C147 C146 1.396 . S
C148 P128 1.803 . S
C148 C149 1.378 . S
C148 C153 1.400 . S
C149 H133 0.939 . S
C149 C148 1.378 . S
C149 C150 1.361 . S
C150 H134 0.942 . S
C150 C149 1.361 . S
C150 C151 1.369 . S
C151 C150 1.369 . S
C151 C152 1.404 . S
C152 H135 0.940 . S
C152 C151 1.404 . S
C152 C153 1.389 . S
C153 H136 0.939 . S
C153 C148 1.400 . S
C153 C152 1.389 . S
C154 P128 1.819 . S
C154 C155 1.391 . S
C154 C159 1.391 . S
C155 H137 0.941 . S
C155 C154 1.391 . S
C155 C156 1.396 . S
C156 H140 0.939 . S
C156 C155 1.396 . S
C156 C157 1.420 . S
C157 C156 1.420 . S
C157 C158 1.380 1_455 S
C158 H141 0.940 . S
C158 C157 1.380 1_655 S
C158 C159 1.388 1_655 S
C159 H138 0.939 . S
C159 C154 1.391 . S
C159 C158 1.388 1_455 S
P160 O171 1.490 . S
P160 C174 1.812 . S
P160 C180 1.803 . S
P160 C186 1.819 . S
H161 C175 0.941 . S
H162 C176 0.939 . S
H163 C178 0.940 . S
H164 C179 0.940 . S
H165 C181 0.939 . S
H166 C182 0.942 . S
H167 C184 0.940 . S
H168 C185 0.939 . S
H169 C187 0.941 . S
H170 C191 0.939 . S
O171 P160 1.490 . S
H172 C188 0.939 . S
H173 C190 0.940 . S
C174 P160 1.812 . S
C174 C175 1.389 . S
C174 C179 1.391 . S
C175 H161 0.941 . S
C175 C174 1.389 . S
C175 C176 1.397 . S
C176 H162 0.939 . S
C176 C175 1.397 . S
C176 C177 1.378 . S
C177 C176 1.378 . S
C177 C178 1.378 . S
C178 H163 0.940 . S
C178 C177 1.378 . S
C178 C179 1.396 . S
C179 H164 0.940 . S
C179 C174 1.391 . S
C179 C178 1.396 . S
C180 P160 1.803 . S
C180 C181 1.378 . S
C180 C185 1.400 . S
C181 H165 0.939 . S
C181 C180 1.378 . S
C181 C182 1.361 . S
C182 H166 0.942 . S
C182 C181 1.361 . S
C182 C183 1.369 . S
C183 C182 1.369 . S
C183 C184 1.404 . S
C184 H167 0.940 . S
C184 C183 1.404 . S
C184 C185 1.389 . S
C185 H168 0.939 . S
C185 C180 1.400 . S
C185 C184 1.389 . S
C186 P160 1.819 . S
C186 C187 1.391 . S
C186 C191 1.391 . S
C187 H169 0.941 . S
C187 C186 1.391 . S
C187 C188 1.396 . S
C188 H172 0.939 . S
C188 C187 1.396 . S
C188 C189 1.397 . S
C189 C188 1.397 . S
C189 C190 1.385 . S
C190 H173 0.940 . S
C190 C189 1.385 . S
C190 C191 1.388 . S
C191 H170 0.939 . S
C191 C186 1.391 . S
C191 C190 1.388 . S
P192 O203 1.490 1_655 S
P192 C206 1.812 1_655 S
P192 C212 1.803 . S
P192 C218 1.819 . S
H193 C207 0.941 . S
H194 C208 0.939 . S
H195 C210 0.940 . S
H196 C211 0.940 . S
H197 C213 0.939 . S
H198 C214 0.942 . S
H199 C216 0.940 . S
H200 C217 0.939 . S
H201 C219 0.941 . S
H202 C223 0.939 . S
O203 P192 1.490 1_455 S
H204 C220 0.939 . S
H205 C222 0.940 . S
C206 P192 1.812 1_455 S
C206 C207 1.389 . S
C206 C211 1.391 1_455 S
C207 H193 0.941 . S
C207 C206 1.389 . S
C207 C208 1.397 . S
C208 H194 0.939 . S
C208 C207 1.397 . S
C208 C209 1.378 . S
C209 C208 1.378 . S
C209 C210 1.378 1_455 S
C210 H195 0.940 . S
C210 C209 1.378 1_655 S
C210 C211 1.396 . S
C211 H196 0.940 . S
C211 C206 1.391 1_655 S
C211 C210 1.396 . S
C212 P192 1.803 . S
C212 C213 1.378 . S
C212 C217 1.400 . S
C213 H197 0.939 . S
C213 C212 1.378 . S
C213 C214 1.361 . S
C214 H198 0.942 . S
C214 C213 1.361 . S
C214 C215 1.369 . S
C215 C214 1.369 . S
C215 C216 1.404 . S
C216 H199 0.940 . S
C216 C215 1.404 . S
C216 C217 1.389 . S
C217 H200 0.939 . S
C217 C212 1.400 . S
C217 C216 1.389 . S
C218 P192 1.819 . S
C218 C219 1.391 . S
C218 C223 1.391 . S
C219 H201 0.941 . S
C219 C218 1.391 . S
C219 C220 1.396 . S
C220 H204 0.939 . S
C220 C219 1.396 . S
C220 C221 1.397 . S
C221 C220 1.397 . S
C221 C222 1.385 . S
C222 H205 0.940 . S
C222 C221 1.385 . S
C222 C223 1.388 . S
C223 H202 0.939 . S
C223 C218 1.391 . S
C223 C222 1.388 . S
P224 O235 1.490 . S
P224 C238 1.812 . S
P224 C244 1.803 . S
P224 C250 1.819 . S
H225 C239 0.941 . S
H226 C240 0.939 . S
H227 C242 0.940 . S
H228 C243 0.940 . S
H229 C245 0.939 . S
H230 C246 0.942 . S
H231 C248 0.940 . S
H232 C249 0.939 . S
H233 C251 0.941 . S
H234 C255 0.939 . S
O235 P224 1.490 . S
H236 C252 0.939 . S
H237 C254 0.940 . S
C238 P224 1.812 . S
C238 C239 1.389 . S
C238 C243 1.391 . S
C239 H225 0.941 . S
C239 C238 1.389 . S
C239 C240 1.397 . S
C240 H226 0.939 . S
C240 C239 1.397 . S
C240 C241 1.378 . S
C241 C240 1.378 . S
C241 C242 1.378 . S
C242 H227 0.940 . S
C242 C241 1.378 . S
C242 C243 1.396 . S
C243 H228 0.940 . S
C243 C238 1.391 . S
C243 C242 1.396 . S
C244 P224 1.803 . S
C244 C245 1.378 . S
C244 C249 1.400 . S
C245 H229 0.939 . S
C245 C244 1.378 . S
C245 C246 1.361 . S
C246 H230 0.942 . S
C246 C245 1.361 . S
C246 C247 1.369 . S
C247 C246 1.369 . S
C247 C248 1.404 . S
C248 H231 0.940 . S
C248 C247 1.404 . S
C248 C249 1.389 . S
C249 H232 0.939 . S
C249 C244 1.400 . S
C249 C248 1.389 . S
C250 P224 1.819 . S
C250 C251 1.391 . S
C250 C255 1.391 . S
C251 H233 0.941 . S
C251 C250 1.391 . S
C251 C252 1.396 . S
C252 H236 0.939 . S
C252 C251 1.396 . S
C252 C253 1.397 . S
C253 C252 1.397 . S
C253 C254 1.385 . S
C254 H237 0.940 . S
C254 C253 1.385 . S
C254 C255 1.388 . S
C255 H234 0.939 . S
C255 C250 1.391 . S
C255 C254 1.388 . S
P256 O267 1.490 . S
P256 C270 1.812 . S
P256 C276 1.803 . S
P256 C282 1.819 . S
H257 C271 0.941 . S
H258 C272 0.939 . S
H259 C274 0.940 . S
H260 C275 0.940 . S
H261 C277 0.939 . S
H262 C278 0.942 . S
H263 C280 0.940 . S
H264 C281 0.939 . S
H265 C283 0.941 . S
H266 C287 0.939 . S
O267 P256 1.490 . S
H268 C284 0.939 . S
H269 C286 0.940 . S
C270 P256 1.812 . S
C270 C271 1.389 . S
C270 C275 1.391 . S
C271 H257 0.941 . S
C271 C270 1.389 . S
C271 C272 1.397 . S
C272 H258 0.939 . S
C272 C271 1.397 . S
C272 C273 1.378 . S
C273 C272 1.378 . S
C273 C274 1.378 . S
C274 H259 0.940 . S
C274 C273 1.378 . S
C274 C275 1.396 . S
C275 H260 0.940 . S
C275 C270 1.391 . S
C275 C274 1.396 . S
C276 P256 1.803 . S
C276 C277 1.378 . S
C276 C281 1.400 . S
C277 H261 0.939 . S
C277 C276 1.378 . S
C277 C278 1.361 . S
C278 H262 0.942 . S
C278 C277 1.361 . S
C278 C279 1.369 . S
C279 C278 1.369 . S
C279 C280 1.404 . S
C280 H263 0.940 . S
C280 C279 1.404 . S
C280 C281 1.389 . S
C281 H264 0.939 . S
C281 C276 1.400 . S
C281 C280 1.389 . S
C282 P256 1.819 . S
C282 C283 1.391 . S
C282 C287 1.391 . S
C283 H265 0.941 . S
C283 C282 1.391 . S
C283 C284 1.396 . S
C284 H268 0.939 . S
C284 C283 1.396 . S
C284 C285 1.397 . S
C285 C284 1.397 . S
C285 C286 1.385 . S
C286 H269 0.940 . S
C286 C285 1.385 . S
C286 C287 1.388 . S
C287 H266 0.939 . S
C287 C282 1.391 . S
C287 C286 1.388 . S
P288 O299 1.490 1_565 S
P288 C302 1.812 . S
P288 C308 1.803 1_565 S
P288 C314 1.819 . S
H289 C303 0.941 . S
H290 C304 0.939 . S
H291 C306 0.940 . S
H292 C307 0.940 . S
H293 C309 0.939 . S
H294 C310 0.942 . S
H295 C312 0.940 . S
H296 C313 0.939 . S
H297 C315 0.941 . S
H298 C319 0.939 . S
O299 P288 1.490 1_545 S
H300 C316 0.939 . S
H301 C318 0.940 . S
C302 P288 1.812 . S
C302 C303 1.389 . S
C302 C307 1.391 . S
C303 H289 0.941 . S
C303 C302 1.389 . S
C303 C304 1.397 . S
C304 H290 0.939 . S
C304 C303 1.397 . S
C304 C305 1.378 . S
C305 C304 1.378 . S
C305 C306 1.378 . S
C306 H291 0.940 . S
C306 C305 1.378 . S
C306 C307 1.396 . S
C307 H292 0.940 . S
C307 C302 1.391 . S
C307 C306 1.396 . S
C308 P288 1.803 1_545 S
C308 C309 1.378 . S
C308 C313 1.400 1_545 S
C309 H293 0.939 . S
C309 C308 1.378 . S
C309 C310 1.361 . S
C310 H294 0.942 . S
C310 C309 1.361 . S
C310 C311 1.369 . S
C311 C310 1.369 . S
C311 C312 1.404 1_545 S
C312 H295 0.940 . S
C312 C311 1.404 1_565 S
C312 C313 1.389 . S
C313 H296 0.939 . S
C313 C308 1.400 1_565 S
C313 C312 1.389 . S
C314 P288 1.819 . S
C314 C315 1.391 . S
C314 C319 1.391 . S
C315 H297 0.941 . S
C315 C314 1.391 . S
C315 C316 1.396 . S
C316 H300 0.939 . S
C316 C315 1.396 . S
C316 C317 1.397 . S
C317 C316 1.397 . S
C317 C318 1.385 . S
C318 H301 0.940 . S
C318 C317 1.385 . S
C318 C319 1.388 . S
C319 H298 0.939 . S
C319 C314 1.391 . S
C319 C318 1.388 . S
P320 O331 1.490 . S
P320 C334 1.812 . S
P320 C340 1.803 . S
P320 C346 1.819 . S
H321 C335 0.941 . S
H322 C336 0.939 . S
H323 C338 0.940 . S
H324 C339 0.940 . S
H325 C341 0.939 . S
H326 C342 0.942 . S
H327 C344 0.940 . S
H328 C345 0.939 . S
H329 C347 0.941 . S
H330 C351 0.939 . S
O331 P320 1.490 . S
H332 C348 0.939 . S
H333 C350 0.940 . S
C334 P320 1.812 . S
C334 C335 1.389 . S
C334 C339 1.391 . S
C335 H321 0.941 . S
C335 C334 1.389 . S
C335 C336 1.397 . S
C336 H322 0.939 . S
C336 C335 1.397 . S
C336 C337 1.378 . S
C337 C336 1.378 . S
C337 C338 1.378 . S
C338 H323 0.940 . S
C338 C337 1.378 . S
C338 C339 1.396 . S
C339 H324 0.940 . S
C339 C334 1.391 . S
C339 C338 1.396 . S
C340 P320 1.803 . S
C340 C341 1.378 . S
C340 C345 1.400 . S
C341 H325 0.939 . S
C341 C340 1.378 . S
C341 C342 1.361 . S
C342 H326 0.942 . S
C342 C341 1.361 . S
C342 C343 1.369 . S
C343 C342 1.369 . S
C343 C344 1.404 . S
C344 H327 0.940 . S
C344 C343 1.404 . S
C344 C345 1.389 . S
C345 H328 0.939 . S
C345 C340 1.400 . S
C345 C344 1.389 . S
C346 P320 1.819 . S
C346 C347 1.391 . S
C346 C351 1.391 . S
C347 H329 0.941 . S
C347 C346 1.391 . S
C347 C348 1.396 . S
C348 H332 0.939 . S
C348 C347 1.396 . S
C348 C349 1.397 . S
C349 C348 1.397 . S
C349 C350 1.385 . S
C350 H333 0.940 . S
C350 C349 1.385 . S
C350 C351 1.388 . S
C351 H330 0.939 . S
C351 C346 1.391 . S
C351 C350 1.388 . S
P352 O363 1.490 . S
P352 C366 1.812 . S
P352 C372 1.803 . S
P352 C378 1.819 . S
H353 C367 0.941 . S
H354 C368 0.939 . S
H355 C370 0.940 . S
H356 C371 0.940 . S
H357 C373 0.939 . S
H358 C374 0.942 . S
H359 C376 0.940 . S
H360 C377 0.939 . S
H361 C379 0.941 . S
H362 C383 0.939 . S
O363 P352 1.490 . S
H364 C380 0.939 . S
H365 C382 0.940 . S
C366 P352 1.812 . S
C366 C367 1.389 . S
C366 C371 1.391 . S
C367 H353 0.941 . S
C367 C366 1.389 . S
C367 C368 1.397 . S
C368 H354 0.939 . S
C368 C367 1.397 . S
C368 C369 1.378 . S
C369 C368 1.378 . S
C369 C370 1.378 . S
C370 H355 0.940 . S
C370 C369 1.378 . S
C370 C371 1.396 . S
C371 H356 0.940 . S
C371 C366 1.391 . S
C371 C370 1.396 . S
C372 P352 1.803 . S
C372 C373 1.378 . S
C372 C377 1.400 . S
C373 H357 0.939 . S
C373 C372 1.378 . S
C373 C374 1.361 . S
C374 H358 0.942 . S
C374 C373 1.361 . S
C374 C375 1.369 . S
C375 C374 1.369 . S
C375 C376 1.404 . S
C376 H359 0.940 . S
C376 C375 1.404 . S
C376 C377 1.389 . S
C377 H360 0.939 . S
C377 C372 1.400 . S
C377 C376 1.389 . S
C378 P352 1.819 . S
C378 C379 1.391 . S
C378 C383 1.391 . S
C379 H361 0.941 . S
C379 C378 1.391 . S
C379 C380 1.396 . S
C380 H364 0.939 . S
C380 C379 1.396 . S
C380 C381 1.397 . S
C381 C380 1.397 . S
C381 C382 1.385 . S
C382 H365 0.940 . S
C382 C381 1.385 . S
C382 C383 1.388 . S
C383 H362 0.939 . S
C383 C378 1.391 . S
C383 C382 1.388 . S
P384 O395 1.490 . S
P384 C398 1.812 . S
P384 C404 1.803 . S
P384 C410 1.819 . S
H385 C399 0.941 . S
H386 C400 0.939 . S
H387 C402 0.940 . S
H388 C403 0.940 . S
H389 C405 0.939 . S
H390 C406 0.942 . S
H391 C408 0.940 . S
H392 C409 0.939 . S
H393 C411 0.941 . S
H394 C415 0.939 . S
O395 P384 1.490 . S
H396 C412 0.939 . S
H397 C414 0.940 . S
C398 P384 1.812 . S
C398 C399 1.389 . S
C398 C403 1.391 . S
C399 H385 0.941 . S
C399 C398 1.389 . S
C399 C400 1.397 . S
C400 H386 0.939 . S
C400 C399 1.397 . S
C400 C401 1.378 . S
C401 C400 1.378 . S
C401 C402 1.378 . S
C402 H387 0.940 . S
C402 C401 1.378 . S
C402 C403 1.396 . S
C403 H388 0.940 . S
C403 C398 1.391 . S
C403 C402 1.396 . S
C404 P384 1.803 . S
C404 C405 1.378 . S
C404 C409 1.400 . S
C405 H389 0.939 . S
C405 C404 1.378 . S
C405 C406 1.361 . S
C406 H390 0.942 . S
C406 C405 1.361 . S
C406 C407 1.369 . S
C407 C406 1.369 . S
C407 C408 1.404 . S
C408 H391 0.940 . S
C408 C407 1.404 . S
C408 C409 1.389 . S
C409 H392 0.939 . S
C409 C404 1.400 . S
C409 C408 1.389 . S
C410 P384 1.819 . S
C410 C411 1.391 . S
C410 C415 1.391 . S
C411 H393 0.941 . S
C411 C410 1.391 . S
C411 C412 1.396 . S
C412 H396 0.939 . S
C412 C411 1.396 . S
C412 C413 1.397 . S
C413 C412 1.397 . S
C413 C414 1.385 . S
C414 H397 0.940 . S
C414 C413 1.385 . S
C414 C415 1.388 . S
C415 H394 0.939 . S
C415 C410 1.391 . S
C415 C414 1.388 . S
P416 O427 1.490 . S
P416 C430 1.812 . S
P416 C436 1.803 . S
P416 C442 1.819 . S
H417 C431 0.941 . S
H418 C432 0.939 . S
H419 C434 0.940 . S
H420 C435 0.940 . S
H421 C437 0.939 . S
H422 C438 0.942 . S
H423 C440 0.940 . S
H424 C441 0.939 . S
H425 C443 0.941 . S
H426 C447 0.939 . S
O427 P416 1.490 . S
H428 C444 0.939 . S
H429 C446 0.940 . S
C430 P416 1.812 . S
C430 C431 1.389 . S
C430 C435 1.391 . S
C431 H417 0.941 . S
C431 C430 1.389 . S
C431 C432 1.397 . S
C432 H418 0.939 . S
C432 C431 1.397 . S
C432 C433 1.378 . S
C433 C432 1.378 . S
C433 C434 1.378 . S
C434 H419 0.940 . S
C434 C433 1.378 . S
C434 C435 1.396 . S
C435 H420 0.940 . S
C435 C430 1.391 . S
C435 C434 1.396 . S
C436 P416 1.803 . S
C436 C437 1.378 . S
C436 C441 1.400 1_556 S
C437 H421 0.939 . S
C437 C436 1.378 . S
C437 C438 1.361 . S
C438 H422 0.942 . S
C438 C437 1.361 . S
C438 C439 1.369 1_556 S
C439 C438 1.369 1_554 S
C439 C440 1.404 . S
C440 H423 0.940 . S
C440 C439 1.404 . S
C440 C441 1.389 . S
C441 H424 0.939 . S
C441 C436 1.400 1_554 S
C441 C440 1.389 . S
C442 P416 1.819 . S
C442 C443 1.391 . S
C442 C447 1.391 . S
C443 H425 0.941 . S
C443 C442 1.391 . S
C443 C444 1.396 . S
C444 H428 0.939 . S
C444 C443 1.396 . S
C444 C445 1.397 . S
C445 C444 1.397 . S
C445 C446 1.385 . S
C446 H429 0.940 . S
C446 C445 1.385 . S
C446 C447 1.388 . S
C447 H426 0.939 . S
C447 C442 1.391 . S
C447 C446 1.388 . S
P448 O459 1.490 . S
P448 C462 1.812 . S
P448 C468 1.803 . S
P448 C474 1.819 . S
H449 C463 0.941 . S
H450 C464 0.939 . S
H451 C466 0.940 . S
H452 C467 0.940 . S
H453 C469 0.939 . S
H454 C470 0.942 . S
H455 C472 0.940 . S
H456 C473 0.939 . S
H457 C475 0.941 . S
H458 C479 0.939 . S
O459 P448 1.490 . S
H460 C476 0.939 . S
H461 C478 0.940 . S
C462 P448 1.812 . S
C462 C463 1.389 . S
C462 C467 1.391 . S
C463 H449 0.941 . S
C463 C462 1.389 . S
C463 C464 1.397 . S
C464 H450 0.939 . S
C464 C463 1.397 . S
C464 C465 1.378 . S
C465 C464 1.378 . S
C465 C466 1.378 . S
C466 H451 0.940 . S
C466 C465 1.378 . S
C466 C467 1.396 . S
C467 H452 0.940 . S
C467 C462 1.391 . S
C467 C466 1.396 . S
C468 P448 1.803 . S
C468 C469 1.378 . S
C468 C473 1.400 . S
C469 H453 0.939 . S
C469 C468 1.378 . S
C469 C470 1.361 . S
C470 H454 0.942 . S
C470 C469 1.361 . S
C470 C471 1.369 . S
C471 C470 1.369 . S
C471 C472 1.404 . S
C472 H455 0.940 . S
C472 C471 1.404 . S
C472 C473 1.389 . S
C473 H456 0.939 . S
C473 C468 1.400 . S
C473 C472 1.389 . S
C474 P448 1.819 . S
C474 C475 1.391 . S
C474 C479 1.391 . S
C475 H457 0.941 . S
C475 C474 1.391 . S
C475 C476 1.396 . S
C476 H460 0.939 . S
C476 C475 1.396 . S
C476 C477 1.397 . S
C477 C476 1.397 . S
C477 C478 1.385 . S
C478 H461 0.940 . S
C478 C477 1.385 . S
C478 C479 1.388 . S
C479 H458 0.939 . S
C479 C474 1.391 . S
C479 C478 1.388 . S
P480 O491 1.490 1_545 S
P480 C494 1.812 1_554 S
P480 C500 1.803 . S
P480 C506 1.819 1_544 S
H481 C495 0.941 . S
H482 C496 0.939 . S
H483 C498 0.940 . S
H484 C499 0.940 . S
H485 C501 0.939 . S
H486 C502 0.942 . S
H487 C504 0.940 1_556 S
H488 C505 0.939 . S
H489 C507 0.941 . S
H490 C511 0.948 . S
O491 P480 1.490 1_565 S
H492 C508 0.939 . S
H493 C510 0.926 1_545 S
C494 P480 1.812 1_556 S
C494 C495 1.389 . S
C494 C499 1.391 . S
C495 H481 0.941 . S
C495 C494 1.389 . S
C495 C496 1.397 . S
C496 H482 0.939 . S
C496 C495 1.397 . S
C496 C497 1.378 . S
C497 C496 1.378 . S
C497 C498 1.378 . S
C498 H483 0.940 . S
C498 C497 1.378 . S
C498 C499 1.396 . S
C499 H484 0.940 . S
C499 C494 1.391 . S
C499 C498 1.396 . S
C500 P480 1.803 . S
C500 C501 1.378 . S
C500 C505 1.400 1_554 S
C501 H485 0.939 . S
C501 C500 1.378 . S
C501 C502 1.361 . S
C502 H486 0.942 . S
C502 C501 1.361 . S
C502 C503 1.369 . S
C503 C502 1.369 . S
C503 C504 1.404 . S
C504 H487 0.940 1_554 S
C504 C503 1.404 . S
C504 C505 1.389 1_554 S
C505 H488 0.939 . S
C505 C500 1.400 1_556 S
C505 C504 1.389 1_556 S
C506 P480 1.819 1_566 S
C506 C507 1.391 . S
C506 C511 1.387 1_566 S
C507 H489 0.941 . S
C507 C506 1.391 . S
C507 C508 1.396 . S
C508 H492 0.939 . S
C508 C507 1.396 . S
C508 C509 1.397 . S
C509 C508 1.397 . S
C509 C510 1.407 . S
C510 H493 0.926 1_565 S
C510 C509 1.407 . S
C510 C511 1.376 1_566 S
C511 H490 0.948 . S
C511 C506 1.387 1_544 S
C511 C510 1.376 1_544 S
Mg512 O513 2.028 . S
Mg512 O519 1.986 1_554 S
Mg512 O521 2.114 . S
Mg512 O522 2.251 . S
Mg512 O525 2.010 . S
O513 Mg512 2.028 . S
O513 C516 1.248 1_554 S
O514 Mg515 2.028 . S
O514 C516 1.249 . S
Mg515 O514 2.028 . S
Mg515 O520 2.032 . S
Mg515 O522 2.079 1_556 S
C516 O513 1.248 1_556 S
C516 O514 1.249 . S
C517 O518 1.264 . S
C517 O525 1.249 . S
O518 C517 1.264 . S
O519 Mg512 1.986 1_556 S
O519 C523 1.246 . S
O520 Mg515 2.032 . S
O520 C523 1.259 . S
O521 Mg512 2.114 . S
O521 C524 1.252 . S
O522 Mg512 2.251 . S
O522 Mg515 2.079 1_554 S
O522 C524 1.273 . S
C523 O519 1.246 . S
C523 O520 1.259 . S
C524 O521 1.252 . S
C524 O522 1.273 . S
O525 Mg512 2.010 . S
O525 C517 1.249 . S
Mg526 O527 2.028 . S
Mg526 O533 1.986 . S
Mg526 O535 2.114 . S
Mg526 O536 2.251 . S
Mg526 O539 2.010 . S
O527 Mg526 2.028 . S
O527 C530 1.250 . S
O528 Mg529 2.028 . S
O528 C530 1.248 . S
Mg529 O528 2.028 . S
Mg529 O534 2.032 . S
Mg529 O536 2.079 . S
C530 O527 1.250 . S
C530 O528 1.248 . S
C531 O532 1.264 . S
C531 O539 1.249 . S
O532 C531 1.264 . S
O533 Mg526 1.986 . S
O533 C537 1.246 . S
O534 Mg529 2.032 . S
O534 C537 1.259 . S
O535 Mg526 2.114 . S
O535 C538 1.252 . S
O536 Mg526 2.251 . S
O536 Mg529 2.079 . S
O536 C538 1.273 . S
C537 O533 1.246 . S
C537 O534 1.259 . S
C538 O535 1.252 . S
C538 O536 1.273 . S
O539 Mg526 2.010 . S
O539 C531 1.249 . S
Mg540 O541 2.028 . S
Mg540 O547 1.986 1_554 S
Mg540 O549 2.114 . S
Mg540 O550 2.251 . S
Mg540 O553 2.010 . S
O541 Mg540 2.028 . S
O541 C544 1.250 . S
O542 Mg543 2.028 . S
O542 C544 1.248 1_556 S
Mg543 O542 2.028 . S
Mg543 O548 2.032 . S
Mg543 O550 2.079 1_556 S
C544 O541 1.250 . S
C544 O542 1.248 1_554 S
C545 O546 1.264 . S
C545 O553 1.249 . S
O546 C545 1.264 . S
O547 Mg540 1.986 1_556 S
O547 C551 1.246 . S
O548 Mg543 2.032 . S
O548 C551 1.259 . S
O549 Mg540 2.114 . S
O549 C552 1.252 . S
O550 Mg540 2.251 . S
O550 Mg543 2.079 1_554 S
O550 C552 1.273 . S
C551 O547 1.246 . S
C551 O548 1.259 . S
C552 O549 1.252 . S
C552 O550 1.273 . S
O553 Mg540 2.010 . S
O553 C545 1.249 . S
Mg554 O555 2.028 1_545 S
Mg554 O561 1.986 . S
Mg554 O563 2.114 . S
Mg554 O564 2.251 . S
Mg554 O567 2.010 . S
O555 Mg554 2.028 1_565 S
O555 C558 1.250 . S
O556 Mg557 2.028 . S
O556 C558 1.248 . S
Mg557 O556 2.028 . S
Mg557 O562 2.032 . S
Mg557 O564 2.079 1_565 S
C558 O555 1.250 . S
C558 O556 1.248 . S
C559 O560 1.264 . S
C559 O567 1.249 . S
O560 C559 1.264 . S
O561 Mg554 1.986 . S
O561 C565 1.246 . S
O562 Mg557 2.032 . S
O562 C565 1.259 1_565 S
O563 Mg554 2.114 . S
O563 C566 1.252 . S
O564 Mg554 2.251 . S
O564 Mg557 2.079 1_545 S
O564 C566 1.273 . S
C565 O561 1.246 . S
C565 O562 1.259 1_545 S
C566 O563 1.252 . S
C566 O564 1.273 . S
O567 Mg554 2.010 . S
O567 C559 1.249 . S
Mg568 O569 2.028 . S
Mg568 O575 1.986 . S
Mg568 O577 2.114 . S
Mg568 O578 2.251 . S
Mg568 O581 2.010 . S
O569 Mg568 2.028 . S
O569 C572 1.250 . S
O570 Mg571 2.028 . S
O570 C572 1.248 . S
Mg571 O570 2.028 . S
Mg571 O576 2.032 . S
Mg571 O578 2.079 . S
C572 O569 1.250 . S
C572 O570 1.248 . S
C573 O574 1.264 . S
C573 O581 1.249 . S
O574 C573 1.264 . S
O575 Mg568 1.986 . S
O575 C579 1.246 . S
O576 Mg571 2.032 . S
O576 C579 1.259 . S
O577 Mg568 2.114 . S
O577 C580 1.252 . S
O578 Mg568 2.251 . S
O578 Mg571 2.079 . S
O578 C580 1.273 . S
C579 O575 1.246 . S
C579 O576 1.259 . S
C580 O577 1.252 . S
C580 O578 1.273 . S
O581 Mg568 2.010 . S
O581 C573 1.249 . S
Mg582 O583 2.028 . S
Mg582 O589 1.986 . S
Mg582 O591 2.114 . S
Mg582 O592 2.251 . S
Mg582 O595 2.010 . S
O583 Mg582 2.028 . S
O583 C586 1.250 . S
O584 Mg585 2.028 . S
O584 C586 1.248 . S
Mg585 O584 2.028 . S
Mg585 O590 2.032 . S
Mg585 O592 2.079 . S
C586 O583 1.250 . S
C586 O584 1.248 . S
C587 O588 1.264 . S
C587 O595 1.249 . S
O588 C587 1.264 . S
O589 Mg582 1.986 . S
O589 C593 1.246 . S
O590 Mg585 2.032 . S
O590 C593 1.259 . S
O591 Mg582 2.114 . S
O591 C594 1.252 . S
O592 Mg582 2.251 . S
O592 Mg585 2.079 . S
O592 C594 1.273 . S
C593 O589 1.246 . S
C593 O590 1.259 . S
C594 O591 1.252 . S
C594 O592 1.273 . S
O595 Mg582 2.010 . S
O595 C587 1.249 . S
Mg596 O597 2.028 . S
Mg596 O603 1.986 . S
Mg596 O605 2.114 . S
Mg596 O606 2.251 . S
Mg596 O609 2.010 . S
O597 Mg596 2.028 . S
O597 C600 1.250 . S
O598 Mg599 2.028 . S
O598 C600 1.248 . S
Mg599 O598 2.028 . S
Mg599 O604 2.032 . S
Mg599 O606 2.079 . S
C600 O597 1.250 . S
C600 O598 1.248 . S
C601 O602 1.264 . S
C601 O609 1.249 . S
O602 C601 1.264 . S
O603 Mg596 1.986 . S
O603 C607 1.246 . S
O604 Mg599 2.032 . S
O604 C607 1.259 . S
O605 Mg596 2.114 . S
O605 C608 1.252 . S
O606 Mg596 2.251 . S
O606 Mg599 2.079 . S
O606 C608 1.273 . S
C607 O603 1.246 . S
C607 O604 1.259 . S
C608 O605 1.252 . S
C608 O606 1.273 . S
O609 Mg596 2.010 . S
O609 C601 1.249 . S
Mg610 O611 2.028 1_545 S
Mg610 O617 1.986 1_545 S
Mg610 O619 2.114 . S
Mg610 O620 2.251 . S
Mg610 O623 2.010 . S
O611 Mg610 2.028 1_565 S
O611 C614 1.250 . S
O612 Mg613 2.028 . S
O612 C614 1.248 . S
Mg613 O612 2.028 . S
Mg613 O618 2.032 . S
Mg613 O620 2.079 1_565 S
C614 O611 1.250 . S
C614 O612 1.248 . S
C615 O616 1.264 . S
C615 O623 1.249 . S
O616 C615 1.264 . S
O617 Mg610 1.986 1_565 S
O617 C621 1.246 . S
O618 Mg613 2.032 . S
O618 C621 1.259 . S
O619 Mg610 2.114 . S
O619 C622 1.252 . S
O620 Mg610 2.251 . S
O620 Mg613 2.079 1_545 S
O620 C622 1.273 . S
C621 O617 1.246 . S
C621 O618 1.259 . S
C622 O619 1.252 . S
C622 O620 1.273 . S
O623 Mg610 2.010 . S
O623 C615 1.249 . S
Mg624 O625 2.028 . S
Mg624 O631 1.986 . S
Mg624 O633 2.114 . S
Mg624 O634 2.251 . S
Mg624 O637 2.010 . S
O625 Mg624 2.028 . S
O625 C628 1.250 1_455 S
O626 Mg627 2.028 . S
O626 C628 1.248 . S
Mg627 O626 2.028 . S
Mg627 O632 2.032 . S
Mg627 O634 2.079 1_655 S
C628 O625 1.250 1_655 S
C628 O626 1.248 . S
C629 O630 1.264 . S
C629 O637 1.249 . S
O630 C629 1.264 . S
O631 Mg624 1.986 . S
O631 C635 1.246 . S
O632 Mg627 2.032 . S
O632 C635 1.259 1_655 S
O633 Mg624 2.114 . S
O633 C636 1.252 . S
O634 Mg624 2.251 . S
O634 Mg627 2.079 1_455 S
O634 C636 1.273 . S
C635 O631 1.246 . S
C635 O632 1.259 1_455 S
C636 O633 1.252 . S
C636 O634 1.273 . S
O637 Mg624 2.010 . S
O637 C629 1.249 . S
Mg638 O639 2.028 . S
Mg638 O645 1.986 . S
Mg638 O647 2.114 . S
Mg638 O648 2.251 . S
Mg638 O651 2.010 . S
O639 Mg638 2.028 . S
O639 C642 1.250 . S
O640 Mg641 2.028 . S
O640 C642 1.248 . S
Mg641 O640 2.028 . S
Mg641 O646 2.032 . S
Mg641 O648 2.079 . S
C642 O639 1.250 . S
C642 O640 1.248 . S
C643 O644 1.264 . S
C643 O651 1.249 . S
O644 C643 1.264 . S
O645 Mg638 1.986 . S
O645 C649 1.246 . S
O646 Mg641 2.032 . S
O646 C649 1.259 . S
O647 Mg638 2.114 . S
O647 C650 1.252 . S
O648 Mg638 2.251 . S
O648 Mg641 2.079 . S
O648 C650 1.273 . S
C649 O645 1.246 . S
C649 O646 1.259 . S
C650 O647 1.252 . S
C650 O648 1.273 . S
O651 Mg638 2.010 . S
O651 C643 1.249 . S
Mg652 O653 2.028 1_655 S
Mg652 O659 1.994 . S
Mg652 O661 2.114 . S
Mg652 O662 2.251 1_655 S
Mg652 O665 2.010 . S
O653 Mg652 2.028 1_455 S
O653 C656 1.250 . S
O654 Mg655 2.028 . S
O654 C656 1.248 . S
Mg655 O654 2.028 . S
Mg655 O660 2.032 . S
Mg655 O662 2.079 . S
C656 O653 1.250 . S
C656 O654 1.248 . S
C657 O658 1.264 . S
C657 O665 1.249 . S
O658 C657 1.264 . S
O659 Mg652 1.994 . S
O659 C663 1.223 1_655 S
O660 Mg655 2.032 . S
O660 C663 1.259 . S
O661 Mg652 2.114 . S
O661 C664 1.252 . S
O662 Mg652 2.251 1_455 S
O662 Mg655 2.079 . S
O662 C664 1.273 1_455 S
C663 O659 1.223 1_455 S
C663 O660 1.259 . S
C664 O661 1.252 . S
C664 O662 1.273 1_655 S
O665 Mg652 2.010 . S
O665 C657 1.249 . S
Mg666 O667 2.028 . S
Mg666 O673 1.986 . S
Mg666 O675 2.114 . S
Mg666 O676 2.251 . S
Mg666 O679 2.010 . S
O667 Mg666 2.028 . S
O667 C670 1.250 . S
O668 Mg669 2.028 . S
O668 C670 1.248 . S
Mg669 O668 2.028 . S
Mg669 O674 2.032 . S
Mg669 O676 2.079 . S
C670 O667 1.250 . S
C670 O668 1.248 . S
C671 O672 1.264 . S
C671 O679 1.249 . S
O672 C671 1.264 . S
O673 Mg666 1.986 . S
O673 C677 1.246 . S
O674 Mg669 2.032 . S
O674 C677 1.259 . S
O675 Mg666 2.114 . S
O675 C678 1.252 . S
O676 Mg666 2.251 . S
O676 Mg669 2.079 . S
O676 C678 1.273 . S
C677 O673 1.246 . S
C677 O674 1.259 . S
C678 O675 1.252 . S
C678 O676 1.273 . S
O679 Mg666 2.010 . S
O679 C671 1.249 . S
C680 C681 1.369 . S
C680 C682 1.419 . S
C680 H684 0.930 . S
C681 C680 1.369 . S
C681 C690 1.429 . S
C682 C680 1.419 . S
C682 C683 1.363 . S
C682 H685 0.929 . S
C683 C682 1.363 . S
C683 C689 1.428 . S
H684 C680 0.930 . S
H685 C682 0.929 . S
S686 N687 1.613 . S
S686 N688 1.610 . S
N687 S686 1.613 . S
N687 C690 1.350 . S
N688 S686 1.610 . S
N688 C689 1.351 . S
C689 C683 1.428 . S
C689 N688 1.351 . S
C689 C690 1.434 . S
C690 C681 1.429 . S
C690 N687 1.350 . S
C690 C689 1.434 . S
C691 C692 1.369 . S
C691 C693 1.419 . S
C691 H695 0.930 . S
C692 C691 1.369 . S
C692 C701 1.429 . S
C693 C691 1.419 . S
C693 C694 1.363 . S
C693 H696 0.929 . S
C694 C693 1.363 . S
C694 C700 1.428 . S
H695 C691 0.930 . S
H696 C693 0.929 . S
S697 N698 1.613 . S
S697 N699 1.610 . S
N698 S697 1.613 . S
N698 C701 1.350 . S
N699 S697 1.610 . S
N699 C700 1.351 . S
C700 C694 1.428 . S
C700 N699 1.351 . S
C700 C701 1.434 . S
C701 C692 1.429 . S
C701 N698 1.350 . S
C701 C700 1.434 . S
C702 C703 1.369 . S
C702 C704 1.419 . S
C702 H706 0.930 . S
C703 C702 1.369 . S
C703 C712 1.429 . S
C704 C702 1.419 . S
C704 C705 1.363 . S
C704 H707 0.929 . S
C705 C704 1.363 . S
C705 C711 1.428 . S
H706 C702 0.930 . S
H707 C704 0.929 . S
S708 N709 1.613 . S
S708 N710 1.610 . S
N709 S708 1.613 . S
N709 C712 1.350 . S
N710 S708 1.610 . S
N710 C711 1.351 . S
C711 C705 1.428 . S
C711 N710 1.351 . S
C711 C712 1.434 . S
C712 C703 1.429 . S
C712 N709 1.350 . S
C712 C711 1.434 . S
C713 C714 1.369 1_545 S
C713 C715 1.419 . S
C713 H717 0.930 . S
C714 C713 1.369 1_565 S
C714 C723 1.429 . S
C715 C713 1.419 . S
C715 C716 1.363 . S
C715 H718 0.929 . S
C716 C715 1.363 . S
C716 C722 1.428 1_545 S
H717 C713 0.930 . S
H718 C715 0.929 . S
S719 N720 1.613 . S
S719 N721 1.610 . S
N720 S719 1.613 . S
N720 C723 1.350 . S
N721 S719 1.610 . S
N721 C722 1.351 . S
C722 C716 1.428 1_565 S
C722 N721 1.351 . S
C722 C723 1.434 . S
C723 C714 1.429 . S
C723 N720 1.350 . S
C723 C722 1.434 . S
C724 C725 1.369 . S
C724 C726 1.419 . S
C724 H728 0.930 . S
C725 C724 1.369 . S
C725 C734 1.429 . S
C726 C724 1.419 . S
C726 C727 1.363 . S
C726 H729 0.929 . S
C727 C726 1.363 . S
C727 C733 1.428 . S
H728 C724 0.930 . S
H729 C726 0.929 . S
S730 N731 1.613 . S
S730 N732 1.610 . S
N731 S730 1.613 . S
N731 C734 1.350 . S
N732 S730 1.610 . S
N732 C733 1.351 . S
C733 C727 1.428 . S
C733 N732 1.351 . S
C733 C734 1.434 . S
C734 C725 1.429 . S
C734 N731 1.350 . S
C734 C733 1.434 . S
C735 C736 1.369 . S
C735 C737 1.419 . S
C735 H739 0.930 . S
C736 C735 1.369 . S
C736 C745 1.429 . S
C737 C735 1.419 . S
C737 C738 1.363 . S
C737 H740 0.929 . S
C738 C737 1.363 . S
C738 C744 1.428 . S
H739 C735 0.930 . S
H740 C737 0.929 . S
S741 N742 1.613 . S
S741 N743 1.610 . S
N742 S741 1.613 . S
N742 C745 1.350 . S
N743 S741 1.610 . S
N743 C744 1.351 . S
C744 C738 1.428 . S
C744 N743 1.351 . S
C744 C745 1.434 . S
C745 C736 1.429 . S
C745 N742 1.350 . S
C745 C744 1.434 . S
C746 C747 1.369 . S
C746 C748 1.419 . S
C746 H750 0.930 . S
C747 C746 1.369 . S
C747 C756 1.429 . S
C748 C746 1.419 . S
C748 C749 1.363 . S
C748 H751 0.929 . S
C749 C748 1.363 . S
C749 C755 1.428 . S
H750 C746 0.930 . S
H751 C748 0.929 . S
S752 N753 1.613 . S
S752 N754 1.610 . S
N753 S752 1.613 . S
N753 C756 1.350 . S
N754 S752 1.610 . S
N754 C755 1.351 . S
C755 C749 1.428 . S
C755 N754 1.351 . S
C755 C756 1.434 . S
C756 C747 1.429 . S
C756 N753 1.350 . S
C756 C755 1.434 . S
C757 C758 1.369 . S
C757 C759 1.419 . S
C757 H761 0.930 . S
C758 C757 1.369 . S
C758 C767 1.426 1_565 S
C759 C757 1.419 . S
C759 C760 1.363 . S
C759 H762 0.929 . S
C760 C759 1.363 . S
C760 C766 1.428 1_565 S
H761 C757 0.930 . S
H762 C759 0.929 . S
S763 N764 1.613 . S
S763 N765 1.610 . S
N764 S763 1.613 . S
N764 C767 1.352 . S
N765 S763 1.610 . S
N765 C766 1.351 . S
C766 C760 1.428 1_545 S
C766 N765 1.351 . S
C766 C767 1.434 . S
C767 C758 1.426 1_545 S
C767 N764 1.352 . S
C767 C766 1.434 . S
C768 C769 1.369 . S
C768 C770 1.419 . S
C768 H772 0.930 . S
C769 C768 1.369 . S
C769 C778 1.429 . S
C770 C768 1.419 . S
C770 C771 1.363 . S
C770 H773 0.929 . S
C771 C770 1.363 . S
C771 C777 1.428 . S
H772 C768 0.930 . S
H773 C770 0.929 . S
S774 N775 1.613 . S
S774 N776 1.610 . S
N775 S774 1.613 . S
N775 C778 1.350 . S
N776 S774 1.610 . S
N776 C777 1.351 . S
C777 C771 1.428 . S
C777 N776 1.351 . S
C777 C778 1.434 . S
C778 C769 1.429 . S
C778 N775 1.350 . S
C778 C777 1.434 . S
C779 C780 1.369 . S
C779 C781 1.419 . S
C779 H783 0.930 . S
C780 C779 1.369 . S
C780 C789 1.429 . S
C781 C779 1.419 . S
C781 C782 1.363 . S
C781 H784 0.929 . S
C782 C781 1.363 . S
C782 C788 1.428 . S
H783 C779 0.930 . S
H784 C781 0.929 . S
S785 N786 1.613 . S
S785 N787 1.610 . S
N786 S785 1.613 . S
N786 C789 1.350 . S
N787 S785 1.610 . S
N787 C788 1.351 . S
C788 C782 1.428 . S
C788 N787 1.351 . S
C788 C789 1.434 . S
C789 C780 1.429 . S
C789 N786 1.350 . S
C789 C788 1.434 . S
C790 C791 1.369 . S
C790 C792 1.419 . S
C790 H794 0.930 . S
C791 C790 1.369 . S
C791 C800 1.429 . S
C792 C790 1.419 . S
C792 C793 1.363 . S
C792 H795 0.929 . S
C793 C792 1.363 . S
C793 C799 1.428 . S
H794 C790 0.930 . S
H795 C792 0.929 . S
S796 N797 1.613 . S
S796 N798 1.610 . S
N797 S796 1.613 . S
N797 C800 1.350 . S
N798 S796 1.610 . S
N798 C799 1.351 . S
C799 C793 1.428 . S
C799 N798 1.351 . S
C799 C800 1.434 . S
C800 C791 1.429 . S
C800 N797 1.350 . S
C800 C799 1.434 . S
C801 C802 1.369 . S
C801 C803 1.419 . S
C801 H805 0.930 . S
C802 C801 1.369 . S
C802 C811 1.429 . S
C803 C801 1.419 . S
C803 C804 1.363 . S
C803 H806 0.929 . S
C804 C803 1.363 . S
C804 C810 1.428 . S
H805 C801 0.930 . S
H806 C803 0.929 . S
S807 N808 1.613 . S
S807 N809 1.610 . S
N808 S807 1.613 . S
N808 C811 1.350 . S
N809 S807 1.610 . S
N809 C810 1.351 . S
C810 C804 1.428 . S
C810 N809 1.351 . S
C810 C811 1.434 . S
C811 C802 1.429 . S
C811 N808 1.350 . S
C811 C810 1.434 . S
C812 C813 1.369 . S
C812 C814 1.419 . S
C812 H816 0.930 . S
C813 C812 1.369 . S
C813 C822 1.429 . S
C814 C812 1.419 . S
C814 C815 1.363 . S
C814 H817 0.929 . S
C815 C814 1.363 . S
C815 C821 1.428 . S
H816 C812 0.930 . S
H817 C814 0.929 . S
S818 N819 1.613 . S
S818 N820 1.610 . S
N819 S818 1.613 . S
N819 C822 1.350 . S
N820 S818 1.610 . S
N820 C821 1.351 . S
C821 C815 1.428 . S
C821 N820 1.351 . S
C821 C822 1.434 . S
C822 C813 1.429 . S
C822 N819 1.350 . S
C822 C821 1.434 . S
C823 C824 1.369 . S
C823 C825 1.419 . S
C823 H827 0.930 . S
C824 C823 1.369 . S
C824 C833 1.429 . S
C825 C823 1.419 . S
C825 C826 1.363 . S
C825 H828 0.929 . S
C826 C825 1.363 . S
C826 C832 1.428 . S
H827 C823 0.930 . S
H828 C825 0.929 . S
S829 N830 1.613 . S
S829 N831 1.610 . S
N830 S829 1.613 . S
N830 C833 1.350 . S
N831 S829 1.610 . S
N831 C832 1.351 . S
C832 C826 1.428 . S
C832 N831 1.351 . S
C832 C833 1.434 . S
C833 C824 1.429 . S
C833 N830 1.350 . S
C833 C832 1.434 . S
C834 C835 1.369 . S
C834 C836 1.419 . S
C834 H838 0.930 . S
C835 C834 1.369 . S
C835 C844 1.429 . S
C836 C834 1.419 . S
C836 C837 1.363 . S
C836 H839 0.929 . S
C837 C836 1.363 . S
C837 C843 1.428 . S
H838 C834 0.930 . S
H839 C836 0.929 . S
S840 N841 1.613 . S
S840 N842 1.610 . S
N841 S840 1.613 . S
N841 C844 1.350 . S
N842 S840 1.610 . S
N842 C843 1.351 . S
C843 C837 1.428 . S
C843 N842 1.351 . S
C843 C844 1.434 . S
C844 C835 1.429 . S
C844 N841 1.350 . S
C844 C843 1.434 . S
C845 C846 1.369 1_455 S
C845 C847 1.419 . S
C845 H849 0.930 . S
C846 C845 1.369 1_655 S
C846 C855 1.429 . S
C847 C845 1.419 . S
C847 C848 1.363 1_455 S
C847 H850 0.929 . S
C848 C847 1.363 1_655 S
C848 C854 1.428 . S
H849 C845 0.930 . S
H850 C847 0.929 . S
S851 N852 1.613 . S
S851 N853 1.610 . S
N852 S851 1.613 . S
N852 C855 1.350 . S
N853 S851 1.610 . S
N853 C854 1.351 . S
C854 C848 1.428 . S
C854 N853 1.351 . S
C854 C855 1.434 . S
C855 C846 1.429 . S
C855 N852 1.350 . S
C855 C854 1.434 . S
C856 C857 1.369 . S
C856 C858 1.419 . S
C856 H860 0.930 . S
C857 C856 1.369 . S
C857 C866 1.429 . S
C858 C856 1.419 . S
C858 C859 1.363 . S
C858 H861 0.929 . S
C859 C858 1.363 . S
C859 C865 1.428 . S
H860 C856 0.930 . S
H861 C858 0.929 . S
S862 N863 1.613 . S
S862 N864 1.610 . S
N863 S862 1.613 . S
N863 C866 1.350 . S
N864 S862 1.610 . S
N864 C865 1.351 . S
C865 C859 1.428 . S
C865 N864 1.351 . S
C865 C866 1.434 . S
C866 C857 1.429 . S
C866 N863 1.350 . S
C866 C865 1.434 . S
C867 C868 1.369 . S
C867 C869 1.419 . S
C867 H871 0.930 . S
C868 C867 1.369 . S
C868 C877 1.429 . S
C869 C867 1.419 . S
C869 C870 1.363 . S
C869 H872 0.929 . S
C870 C869 1.363 . S
C870 C876 1.428 . S
H871 C867 0.930 . S
H872 C869 0.929 . S
S873 N874 1.613 . S
S873 N875 1.610 . S
N874 S873 1.613 . S
N874 C877 1.350 . S
N875 S873 1.610 . S
N875 C876 1.351 . S
C876 C870 1.428 . S
C876 N875 1.351 . S
C876 C877 1.434 . S
C877 C868 1.429 . S
C877 N874 1.350 . S
C877 C876 1.434 . S
C878 C879 1.369 1_554 S
C878 C880 1.419 . S
C878 H882 0.930 . S
C879 C878 1.369 1_556 S
C879 C888 1.429 . S
C880 C878 1.419 . S
C880 C881 1.363 1_554 S
C880 H883 0.929 . S
C881 C880 1.363 1_556 S
C881 C887 1.428 . S
H882 C878 0.930 . S
H883 C880 0.929 . S
S884 N885 1.613 . S
S884 N886 1.610 . S
N885 S884 1.613 . S
N885 C888 1.350 . S
N886 S884 1.610 . S
N886 C887 1.351 . S
C887 C881 1.428 . S
C887 N886 1.351 . S
C887 C888 1.434 . S
C888 C879 1.429 . S
C888 N885 1.350 . S
C888 C887 1.434 . S
C889 C890 1.369 . S
C889 C891 1.419 . S
C889 H893 0.930 . S
C890 C889 1.369 . S
C890 C899 1.429 . S
C891 C889 1.419 . S
C891 C892 1.363 . S
C891 H894 0.929 . S
C892 C891 1.363 . S
C892 C898 1.428 . S
H893 C889 0.930 . S
H894 C891 0.929 . S
S895 N896 1.613 . S
S895 N897 1.610 . S
N896 S895 1.613 . S
N896 C899 1.350 . S
N897 S895 1.610 . S
N897 C898 1.351 . S
C898 C892 1.428 . S
C898 N897 1.351 . S
C898 C899 1.434 . S
C899 C890 1.429 . S
C899 N896 1.350 . S
C899 C898 1.434 . S
C900 C901 1.369 . S
C900 C902 1.419 . S
C900 H904 0.930 . S
C901 C900 1.369 . S
C901 C910 1.429 . S
C902 C900 1.419 . S
C902 C903 1.363 . S
C902 H905 0.929 . S
C903 C902 1.363 . S
C903 C909 1.428 . S
H904 C900 0.930 . S
H905 C902 0.929 . S
S906 N907 1.613 . S
S906 N908 1.610 . S
N907 S906 1.613 . S
N907 C910 1.350 . S
N908 S906 1.610 . S
N908 C909 1.351 . S
C909 C903 1.428 . S
C909 N908 1.351 . S
C909 C910 1.434 . S
C910 C901 1.429 . S
C910 N907 1.350 . S
C910 C909 1.434 . S
C911 C912 1.369 . S
C911 C913 1.419 . S
C911 H915 0.930 . S
C912 C911 1.369 . S
C912 C921 1.429 . S
C913 C911 1.419 . S
C913 C914 1.363 . S
C913 H916 0.929 . S
C914 C913 1.363 . S
C914 C920 1.428 . S
H915 C911 0.930 . S
H916 C913 0.929 . S
S917 N918 1.613 . S
S917 N919 1.610 . S
N918 S917 1.613 . S
N918 C921 1.350 . S
N919 S917 1.610 . S
N919 C920 1.351 . S
C920 C914 1.428 . S
C920 N919 1.351 . S
C920 C921 1.434 . S
C921 C912 1.429 . S
C921 N918 1.350 . S
C921 C920 1.434 . S
C922 C923 1.369 . S
C922 C924 1.419 . S
C922 H926 0.930 . S
C923 C922 1.369 . S
C923 C932 1.429 . S
C924 C922 1.419 . S
C924 C925 1.363 . S
C924 H927 0.929 . S
C925 C924 1.363 . S
C925 C931 1.428 . S
H926 C922 0.930 . S
H927 C924 0.929 . S
S928 N929 1.613 . S
S928 N930 1.610 . S
N929 S928 1.613 . S
N929 C932 1.350 . S
N930 S928 1.610 . S
N930 C931 1.351 . S
C931 C925 1.428 . S
C931 N930 1.351 . S
C931 C932 1.434 . S
C932 C923 1.429 . S
C932 N929 1.350 . S
C932 C931 1.434 . S
C933 C934 1.369 . S
C933 C935 1.419 . S
C933 H937 0.930 . S
C934 C933 1.369 . S
C934 C943 1.429 . S
C935 C933 1.419 . S
C935 C936 1.363 . S
C935 H938 0.929 . S
C936 C935 1.363 . S
C936 C942 1.428 . S
H937 C933 0.930 . S
H938 C935 0.929 . S
S939 N940 1.613 . S
S939 N941 1.610 . S
N940 S939 1.613 . S
N940 C943 1.350 . S
N941 S939 1.610 . S
N941 C942 1.351 . S
C942 C936 1.428 . S
C942 N941 1.351 . S
C942 C943 1.434 . S
C943 C934 1.429 . S
C943 N940 1.350 . S
C943 C942 1.434 . S
C944 C945 1.369 . S
C944 C946 1.419 . S
C944 H948 0.930 . S
C945 C944 1.369 . S
C945 C954 1.429 . S
C946 C944 1.419 . S
C946 C947 1.363 . S
C946 H949 0.929 . S
C947 C946 1.363 . S
C947 C953 1.428 . S
H948 C944 0.930 . S
H949 C946 0.929 . S
S950 N951 1.613 . S
S950 N952 1.610 . S
N951 S950 1.613 . S
N951 C954 1.350 . S
N952 S950 1.610 . S
N952 C953 1.351 . S
C953 C947 1.428 . S
C953 N952 1.351 . S
C953 C954 1.434 . S
C954 C945 1.429 . S
C954 N951 1.350 . S
C954 C953 1.434 . S
C955 C956 1.369 . S
C955 C957 1.419 . S
C955 H959 0.930 . S
C956 C955 1.369 . S
C956 C965 1.429 . S
C957 C955 1.419 . S
C957 C958 1.363 . S
C957 H960 0.929 . S
C958 C957 1.363 . S
C958 C964 1.428 . S
H959 C955 0.930 . S
H960 C957 0.929 . S
S961 N962 1.613 . S
S961 N963 1.610 . S
N962 S961 1.613 . S
N962 C965 1.350 . S
N963 S961 1.610 . S
N963 C964 1.351 . S
C964 C958 1.428 . S
C964 N963 1.351 . S
C964 C965 1.434 . S
C965 C956 1.429 . S
C965 N962 1.350 . S
C965 C964 1.434 . S
C966 C967 1.369 . S
C966 C968 1.419 . S
C966 H970 0.930 . S
C967 C966 1.369 . S
C967 C976 1.429 . S
C968 C966 1.419 . S
C968 C969 1.363 . S
C968 H971 0.929 . S
C969 C968 1.363 . S
C969 C975 1.428 . S
H970 C966 0.930 . S
H971 C968 0.929 . S
S972 N973 1.613 . S
S972 N974 1.610 . S
N973 S972 1.613 . S
N973 C976 1.350 . S
N974 S972 1.610 . S
N974 C975 1.351 . S
C975 C969 1.428 . S
C975 N974 1.351 . S
C975 C976 1.434 . S
C976 C967 1.429 . S
C976 N973 1.350 . S
C976 C975 1.434 . S
C977 C978 1.369 . S
C977 C979 1.419 . S
C977 H981 0.930 . S
C978 C977 1.369 . S
C978 C987 1.429 . S
C979 C977 1.419 . S
C979 C980 1.363 . S
C979 H982 0.929 . S
C980 C979 1.363 . S
C980 C986 1.428 . S
H981 C977 0.930 . S
H982 C979 0.929 . S
S983 N984 1.613 . S
S983 N985 1.610 . S
N984 S983 1.613 . S
N984 C987 1.350 . S
N985 S983 1.610 . S
N985 C986 1.351 . S
C986 C980 1.428 . S
C986 N985 1.351 . S
C986 C987 1.434 . S
C987 C978 1.429 . S
C987 N984 1.350 . S
C987 C986 1.434 . S
C988 C989 1.369 . S
C988 C990 1.419 . S
C988 H992 0.930 . S
C989 C988 1.369 . S
C989 C998 1.429 . S
C990 C988 1.419 . S
C990 C991 1.363 . S
C990 H993 0.929 . S
C991 C990 1.363 . S
C991 C997 1.428 . S
H992 C988 0.930 . S
H993 C990 0.929 . S
S994 N995 1.613 . S
S994 N996 1.610 . S
N995 S994 1.613 . S
N995 C998 1.350 . S
N996 S994 1.610 . S
N996 C997 1.351 . S
C997 C991 1.428 . S
C997 N996 1.351 . S
C997 C998 1.434 . S
C998 C989 1.429 . S
C998 N995 1.350 . S
C998 C997 1.434 . S
C999 C1000 1.369 . S
C999 C1001 1.419 . S
C999 H1003 0.930 . S
C1000 C999 1.369 . S
C1000 C1009 1.429 . S
C1001 C999 1.419 . S
C1001 C1002 1.363 . S
C1001 H1004 0.940 . S
C1002 C1001 1.363 . S
C1002 C1008 1.428 . S
H1003 C999 0.930 . S
H1004 C1001 0.940 . S
S1005 N1006 1.613 . S
S1005 N1007 1.610 1_455 S
N1006 S1005 1.613 . S
N1006 C1009 1.350 1_455 S
N1007 S1005 1.610 1_655 S
N1007 C1008 1.351 . S
C1008 C1002 1.428 . S
C1008 N1007 1.351 . S
C1008 C1009 1.434 . S
C1009 C1000 1.429 . S
C1009 N1006 1.350 1_655 S
C1009 C1008 1.434 . S
C1010 C1011 1.369 . S
C1010 C1012 1.419 . S
C1010 H1014 0.930 . S
C1011 C1010 1.369 . S
C1011 C1020 1.429 . S
C1012 C1010 1.419 . S
C1012 C1013 1.363 . S
C1012 H1015 0.929 . S
C1013 C1012 1.363 . S
C1013 C1019 1.428 . S
H1014 C1010 0.930 . S
H1015 C1012 0.929 . S
S1016 N1017 1.613 . S
S1016 N1018 1.610 . S
N1017 S1016 1.613 . S
N1017 C1020 1.350 . S
N1018 S1016 1.610 . S
N1018 C1019 1.351 . S
C1019 C1013 1.428 . S
C1019 N1018 1.351 . S
C1019 C1020 1.434 . S
C1020 C1011 1.429 . S
C1020 N1017 1.350 . S
C1020 C1019 1.434 . S
C1021 C1022 1.369 . S
C1021 C1023 1.419 . S
C1021 H1025 0.930 . S
C1022 C1021 1.369 . S
C1022 C1031 1.429 . S
C1023 C1021 1.419 . S
C1023 C1024 1.363 . S
C1023 H1026 0.929 . S
C1024 C1023 1.363 . S
C1024 C1030 1.428 . S
H1025 C1021 0.930 . S
H1026 C1023 0.929 . S
S1027 N1028 1.613 . S
S1027 N1029 1.610 . S
N1028 S1027 1.613 . S
N1028 C1031 1.350 . S
N1029 S1027 1.610 . S
N1029 C1030 1.351 . S
C1030 C1024 1.428 . S
C1030 N1029 1.351 . S
C1030 C1031 1.434 . S
C1031 C1022 1.429 . S
C1031 N1028 1.350 . S
C1031 C1030 1.434 . S
C1032 C1033 1.369 . S
C1032 C1034 1.419 . S
C1032 H1036 0.930 . S
C1033 C1032 1.369 . S
C1033 C1042 1.429 . S
C1034 C1032 1.419 . S
C1034 C1035 1.363 . S
C1034 H1037 0.929 . S
C1035 C1034 1.363 . S
C1035 C1041 1.428 . S
H1036 C1032 0.930 . S
H1037 C1034 0.929 . S
S1038 N1039 1.613 . S
S1038 N1040 1.610 . S
N1039 S1038 1.613 . S
N1039 C1042 1.350 . S
N1040 S1038 1.610 . S
N1040 C1041 1.351 . S
C1041 C1035 1.428 . S
C1041 N1040 1.351 . S
C1041 C1042 1.434 . S
C1042 C1033 1.429 . S
C1042 N1039 1.350 . S
C1042 C1041 1.434 . S
C1043 C1044 1.379 . S
C1043 C1045 1.419 . S
C1043 H1047 0.930 . S
C1044 C1043 1.379 . S
C1044 C1053 1.428 1_455 S
C1045 C1043 1.419 . S
C1045 C1046 1.363 . S
C1045 H1048 0.929 . S
C1046 C1045 1.363 . S
C1046 C1052 1.428 . S
H1047 C1043 0.930 . S
H1048 C1045 0.929 . S
S1049 N1050 1.613 . S
S1049 N1051 1.613 1_554 S
N1050 S1049 1.613 . S
N1050 C1053 1.350 1_554 S
N1051 S1049 1.613 1_556 S
N1051 C1052 1.351 1_655 S
C1052 C1046 1.428 . S
C1052 N1051 1.351 1_455 S
C1052 C1053 1.434 1_455 S
C1053 C1044 1.428 1_655 S
C1053 N1050 1.350 1_556 S
C1053 C1052 1.434 1_655 S
C1054 C1055 1.369 . S
C1054 C1056 1.419 . S
C1054 H1058 0.930 . S
C1055 C1054 1.369 . S
C1055 C1064 1.429 . S
C1056 C1054 1.419 . S
C1056 C1057 1.363 . S
C1056 H1059 0.929 . S
C1057 C1056 1.363 . S
C1057 C1063 1.428 . S
H1058 C1054 0.930 . S
H1059 C1056 0.929 . S
S1060 N1061 1.613 . S
S1060 N1062 1.610 . S
N1061 S1060 1.613 . S
N1061 C1064 1.350 . S
N1062 S1060 1.610 . S
N1062 C1063 1.351 . S
C1063 C1057 1.428 . S
C1063 N1062 1.351 . S
C1063 C1064 1.434 . S
C1064 C1055 1.429 . S
C1064 N1061 1.350 . S
C1064 C1063 1.434 . S
C1065 C1066 1.369 . S
C1065 C1067 1.419 . S
C1065 H1069 0.930 . S
C1066 C1065 1.369 . S
C1066 C1075 1.429 . S
C1067 C1065 1.419 . S
C1067 C1068 1.363 . S
C1067 H1070 0.929 . S
C1068 C1067 1.363 . S
C1068 C1074 1.428 . S
H1069 C1065 0.930 . S
H1070 C1067 0.929 . S
S1071 N1072 1.613 . S
S1071 N1073 1.610 . S
N1072 S1071 1.613 . S
N1072 C1075 1.350 . S
N1073 S1071 1.610 . S
N1073 C1074 1.351 . S
C1074 C1068 1.428 . S
C1074 N1073 1.351 . S
C1074 C1075 1.434 . S
C1075 C1066 1.429 . S
C1075 N1072 1.350 . S
C1075 C1074 1.434 . S
C1076 C1077 1.369 . S
C1076 C1078 1.419 . S
C1076 H1080 0.930 . S
C1077 C1076 1.369 . S
C1077 C1086 1.429 . S
C1078 C1076 1.419 . S
C1078 C1079 1.363 . S
C1078 H1081 0.929 . S
C1079 C1078 1.363 . S
C1079 C1085 1.428 . S
H1080 C1076 0.930 . S
H1081 C1078 0.929 . S
S1082 N1083 1.613 . S
S1082 N1084 1.610 . S
N1083 S1082 1.613 . S
N1083 C1086 1.350 . S
N1084 S1082 1.610 . S
N1084 C1085 1.351 . S
C1085 C1079 1.428 . S
C1085 N1084 1.351 . S
C1085 C1086 1.434 . S
C1086 C1077 1.429 . S
C1086 N1083 1.350 . S
C1086 C1085 1.434 . S
C1087 C1088 1.369 . S
C1087 C1089 1.419 . S
C1087 H1091 0.930 . S
C1088 C1087 1.369 . S
C1088 C1097 1.429 . S
C1089 C1087 1.419 . S
C1089 C1090 1.363 . S
C1089 H1092 0.929 . S
C1090 C1089 1.363 . S
C1090 C1096 1.428 . S
H1091 C1087 0.930 . S
H1092 C1089 0.929 . S
S1093 N1094 1.613 . S
S1093 N1095 1.610 . S
N1094 S1093 1.613 . S
N1094 C1097 1.350 . S
N1095 S1093 1.610 . S
N1095 C1096 1.351 . S
C1096 C1090 1.428 . S
C1096 N1095 1.351 . S
C1096 C1097 1.434 . S
C1097 C1088 1.429 . S
C1097 N1094 1.350 . S
C1097 C1096 1.434 . S
C1098 C1099 1.369 . S
C1098 C1100 1.419 . S
C1098 H1102 0.930 . S
C1099 C1098 1.369 . S
C1099 C1108 1.429 . S
C1100 C1098 1.419 . S
C1100 C1101 1.363 . S
C1100 H1103 0.929 . S
C1101 C1100 1.363 . S
C1101 C1107 1.428 . S
H1102 C1098 0.930 . S
H1103 C1100 0.929 . S
S1104 N1105 1.613 . S
S1104 N1106 1.610 . S
N1105 S1104 1.613 . S
N1105 C1108 1.350 . S
N1106 S1104 1.610 . S
N1106 C1107 1.351 . S
C1107 C1101 1.428 . S
C1107 N1106 1.351 . S
C1107 C1108 1.434 . S
C1108 C1099 1.429 . S
C1108 N1105 1.350 . S
C1108 C1107 1.434 . S
C1109 C1110 1.369 . S
C1109 C1111 1.419 . S
C1109 H1113 0.930 . S
C1110 C1109 1.369 . S
C1110 C1119 1.429 . S
C1111 C1109 1.419 . S
C1111 C1112 1.363 . S
C1111 H1114 0.929 . S
C1112 C1111 1.363 . S
C1112 C1118 1.428 . S
H1113 C1109 0.930 . S
H1114 C1111 0.929 . S
S1115 N1116 1.613 . S
S1115 N1117 1.610 . S
N1116 S1115 1.613 . S
N1116 C1119 1.350 . S
N1117 S1115 1.610 . S
N1117 C1118 1.351 . S
C1118 C1112 1.428 . S
C1118 N1117 1.351 . S
C1118 C1119 1.434 . S
C1119 C1110 1.429 . S
C1119 N1116 1.350 . S
C1119 C1118 1.434 . S
C1120 C1121 1.369 . S
C1120 C1122 1.419 . S
C1120 H1124 0.930 . S
C1121 C1120 1.369 . S
C1121 C1130 1.429 . S
C1122 C1120 1.419 . S
C1122 C1123 1.363 . S
C1122 H1125 0.929 . S
C1123 C1122 1.363 . S
C1123 C1129 1.428 . S
H1124 C1120 0.930 . S
H1125 C1122 0.929 . S
S1126 N1127 1.613 . S
S1126 N1128 1.610 . S
N1127 S1126 1.613 . S
N1127 C1130 1.350 . S
N1128 S1126 1.610 . S
N1128 C1129 1.351 . S
C1129 C1123 1.428 . S
C1129 N1128 1.351 . S
C1129 C1130 1.434 . S
C1130 C1121 1.429 . S
C1130 N1127 1.350 . S
C1130 C1129 1.434 . S
C1131 C1132 1.369 . S
C1131 C1133 1.419 . S
C1131 H1135 0.930 . S
C1132 C1131 1.369 . S
C1132 C1141 1.429 . S
C1133 C1131 1.419 . S
C1133 C1134 1.363 . S
C1133 H1136 0.929 . S
C1134 C1133 1.363 . S
C1134 C1140 1.428 . S
H1135 C1131 0.930 . S
H1136 C1133 0.929 . S
S1137 N1138 1.613 . S
S1137 N1139 1.610 . S
N1138 S1137 1.613 . S
N1138 C1141 1.350 . S
N1139 S1137 1.610 . S
N1139 C1140 1.351 . S
C1140 C1134 1.428 . S
C1140 N1139 1.351 . S
C1140 C1141 1.434 . S
C1141 C1132 1.429 . S
C1141 N1138 1.350 . S
C1141 C1140 1.434 . S
C1142 C1143 1.369 . S
C1142 C1144 1.419 . S
C1142 H1146 0.930 . S
C1143 C1142 1.369 . S
C1143 C1152 1.429 . S
C1144 C1142 1.419 . S
C1144 C1145 1.363 . S
C1144 H1147 0.929 . S
C1145 C1144 1.363 . S
C1145 C1151 1.428 . S
H1146 C1142 0.930 . S
H1147 C1144 0.929 . S
S1148 N1149 1.613 . S
S1148 N1150 1.610 . S
N1149 S1148 1.613 . S
N1149 C1152 1.350 . S
N1150 S1148 1.610 . S
N1150 C1151 1.351 . S
C1151 C1145 1.428 . S
C1151 N1150 1.351 . S
C1151 C1152 1.434 . S
C1152 C1143 1.429 . S
C1152 N1149 1.350 . S
C1152 C1151 1.434 . S
C1153 C1154 1.369 . S
C1153 C1155 1.419 . S
C1153 H1157 0.930 . S
C1154 C1153 1.369 . S
C1154 C1163 1.429 . S
C1155 C1153 1.419 . S
C1155 C1156 1.363 . S
C1155 H1158 0.929 . S
C1156 C1155 1.363 . S
C1156 C1162 1.428 . S
H1157 C1153 0.930 . S
H1158 C1155 0.929 . S
S1159 N1160 1.613 . S
S1159 N1161 1.610 . S
N1160 S1159 1.613 . S
N1160 C1163 1.350 . S
N1161 S1159 1.610 . S
N1161 C1162 1.351 . S
C1162 C1156 1.428 . S
C1162 N1161 1.351 . S
C1162 C1163 1.434 . S
C1163 C1154 1.429 . S
C1163 N1160 1.350 . S
C1163 C1162 1.434 . S
C1164 C1165 1.369 . S
C1164 C1166 1.419 1_556 S
C1164 H1168 0.930 . S
C1165 C1164 1.369 . S
C1165 C1174 1.429 . S
C1166 C1164 1.419 1_554 S
C1166 C1167 1.362 1_554 S
C1166 H1169 0.929 . S
C1167 C1166 1.362 1_556 S
C1167 C1173 1.433 . S
H1168 C1164 0.930 . S
H1169 C1166 0.929 . S
S1170 N1171 1.613 . S
S1170 N1172 1.610 . S
N1171 S1170 1.613 . S
N1171 C1174 1.350 . S
N1172 S1170 1.610 . S
N1172 C1173 1.351 . S
C1173 C1167 1.433 . S
C1173 N1172 1.351 . S
C1173 C1174 1.434 . S
C1174 C1165 1.429 . S
C1174 N1171 1.350 . S
C1174 C1173 1.434 . S
C1175 C1176 1.369 . S
C1175 C1177 1.419 . S
C1175 H1179 0.930 . S
C1176 C1175 1.369 . S
C1176 C1185 1.429 . S
C1177 C1175 1.419 . S
C1177 C1178 1.363 . S
C1177 H1180 0.929 . S
C1178 C1177 1.363 . S
C1178 C1184 1.428 . S
H1179 C1175 0.930 . S
H1180 C1177 0.929 . S
S1181 N1182 1.613 . S
S1181 N1183 1.610 . S
N1182 S1181 1.613 . S
N1182 C1185 1.350 . S
N1183 S1181 1.610 . S
N1183 C1184 1.351 . S
C1184 C1178 1.428 . S
C1184 N1183 1.351 . S
C1184 C1185 1.434 . S
C1185 C1176 1.429 . S
C1185 N1182 1.350 . S
C1185 C1184 1.434 . S
C1186 C1187 1.369 . S
C1186 C1188 1.419 . S
C1186 H1190 0.930 . S
C1187 C1186 1.369 . S
C1187 C1196 1.429 . S
C1188 C1186 1.419 . S
C1188 C1189 1.363 . S
C1188 H1191 0.929 . S
C1189 C1188 1.363 . S
C1189 C1195 1.428 . S
H1190 C1186 0.930 . S
H1191 C1188 0.929 . S
S1192 N1193 1.613 . S
S1192 N1194 1.610 . S
N1193 S1192 1.613 . S
N1193 C1196 1.350 . S
N1194 S1192 1.610 . S
N1194 C1195 1.351 . S
C1195 C1189 1.428 . S
C1195 N1194 1.351 . S
C1195 C1196 1.434 . S
C1196 C1187 1.429 . S
C1196 N1193 1.350 . S
C1196 C1195 1.434 . S
C1197 C1198 1.369 . S
C1197 C1199 1.419 . S
C1197 H1201 0.930 . S
C1198 C1197 1.369 . S
C1198 C1207 1.429 . S
C1199 C1197 1.419 . S
C1199 C1200 1.363 . S
C1199 H1202 0.930 . S
C1200 C1199 1.363 . S
C1200 C1206 1.428 . S
H1201 C1197 0.930 . S
H1202 C1199 0.930 . S
S1203 N1204 1.613 . S
S1203 N1205 1.610 . S
N1204 S1203 1.613 . S
N1204 C1207 1.350 . S
N1205 S1203 1.610 . S
N1205 C1206 1.351 . S
C1206 C1200 1.428 . S
C1206 N1205 1.351 . S
C1206 C1207 1.434 . S
C1207 C1198 1.429 . S
C1207 N1204 1.350 . S
C1207 C1206 1.434 . S
C683 C523 1.433 . S
C681 C177 1.433 . S
C694 C531 1.287 . S
C692 C209 1.542 . S
C703 C253 1.371 . S
C705 C551 1.403 . S
C716 C565 1.506 . S
C714 C157 1.469 1_655 S
C727 C580 1.533 . S
C725 C343 1.500 . S
C738 C594 1.507 . S
C736 C401 1.455 . S
C747 C369 1.536 . S
C749 C608 1.566 . S
C760 C614 1.437 . S
C758 C317 1.458 . S
C769 C375 1.497 . S
C771 C628 1.491 . S
C782 C649 1.548 . S
C780 C305 1.547 . S
C791 C349 1.467 . S
C793 C629 1.266 . S
C804 C650 1.535 . S
C802 C413 1.469 . S
C813 C241 1.424 . S
C815 C657 1.203 . S
C824 C151 1.450 . S
C826 C663 1.474 . S
C835 C189 1.491 . S
C837 C656 1.462 . S
C846 C215 1.470 . S
C848 C664 1.483 . S
C857 C113 1.465 . S
C859 C558 1.452 . S
C868 C471 1.466 . S
C870 C559 1.246 . S
C881 C516 1.507 . S
C879 C509 1.538 . S
C892 C537 1.451 . S
C890 C279 1.426 . S
C901 C145 1.429 . S
C903 C572 1.422 . S
C914 C622 1.560 . S
C912 C381 1.524 . S
C925 C573 1.239 . S
C923 C311 1.460 . S
C936 C601 1.253 . S
C934 C407 1.478 . S
C947 C607 1.430 . S
C945 C465 1.434 . S
C956 C497 1.538 . S
C958 C615 1.277 . S
C967 C285 1.374 . S
C969 C579 1.402 . S
C980 C593 1.506 . S
C978 C445 1.485 . S
C989 C119 1.501 . S
C991 C552 1.533 . S
C1002 C566 1.508 . S
C1000 C17 1.452 . S
C1013 C524 1.566 . S
C1011 C49 1.533 . S
C1024 C530 1.432 . S
C1022 C93 1.457 . S
C1033 C55 1.496 . S
C1035 C642 1.492 . S
C1044 C81 1.546 1_455 S
C1046 C635 1.545 . S
C1055 C125 1.462 . S
C1057 C643 1.278 . S
C1066 C29 1.473 . S
C1068 C636 1.534 . S
C1079 C671 1.190 . S
C1077 C273 1.433 . S
C1090 C677 1.473 . S
C1088 C439 1.448 . S
C1101 C670 1.460 . S
C1099 C477 1.489 . S
C1110 C503 1.471 . S
C1112 C678 1.483 . S
C1121 C337 1.464 . S
C1123 C586 1.453 . S
C1134 C587 1.244 . S
C1132 C183 1.466 . S
C1145 C600 1.506 . S
C1143 C221 1.533 . S
C1156 C621 1.451 . S
C1154 C247 1.428 . S
C1165 C433 1.432 . S
C1167 C544 1.415 1_556 S
C1178 C538 1.560 . S
C1176 C61 1.522 . S
C1187 C87 1.462 . S
C1189 C545 1.241 . S
C1200 C517 1.252 . S
C1198 C23 1.479 . S
