# Generated by pormake.
# Topology pyr, (3,6)-cn, num edge types: 1
# Building blocks:
#     Node 0, Type 0, BuildingBlock: BETDIP_clean_linker_0, # of connection points: 3
#     Node 1, Type 0, BuildingBlock: BETDIP_clean_linker_0, # of connection points: 3
#     Node 2, Type 0, BuildingBlock: BETDIP_clean_linker_0, # of connection points: 3
#     Node 3, Type 0, BuildingBlock: BETDIP_clean_linker_0, # of connection points: 3
#     Node 4, Type 0, BuildingBlock: BETDIP_clean_linker_0, # of connection points: 3
#     Node 5, Type 0, BuildingBlock: BETDIP_clean_linker_0, # of connection points: 3
#     Node 6, Type 0, BuildingBlock: BETDIP_clean_linker_0, # of connection points: 3
#     Node 7, Type 0, BuildingBlock: BETDIP_clean_linker_0, # of connection points: 3
#     Node 8, Type 1, BuildingBlock: BETFAJ_clean_sbu_0, # of connection points: 6
#     Node 9, Type 1, BuildingBlock: BETFAJ_clean_sbu_0, # of connection points: 6
#     Node 10, Type 1, BuildingBlock: BETFAJ_clean_sbu_0, # of connection points: 6
#     Node 11, Type 1, BuildingBlock: BETFAJ_clean_sbu_0, # of connection points: 6
#     Edge 12, Type (0, 1), BuildingBlock: KIFKEQ_clean_linker_1, # of connection points: 2
#     Edge 13, Type (0, 1), BuildingBlock: KIFKEQ_clean_linker_1, # of connection points: 2
#     Edge 14, Type (0, 1), BuildingBlock: KIFKEQ_clean_linker_1, # of connection points: 2
#     Edge 15, Type (0, 1), BuildingBlock: KIFKEQ_clean_linker_1, # of connection points: 2
#     Edge 16, Type (0, 1), BuildingBlock: KIFKEQ_clean_linker_1, # of connection points: 2
#     Edge 17, Type (0, 1), BuildingBlock: KIFKEQ_clean_linker_1, # of connection points: 2
#     Edge 18, Type (0, 1), BuildingBlock: KIFKEQ_clean_linker_1, # of connection points: 2
#     Edge 19, Type (0, 1), BuildingBlock: KIFKEQ_clean_linker_1, # of connection points: 2
#     Edge 20, Type (0, 1), BuildingBlock: KIFKEQ_clean_linker_1, # of connection points: 2
#     Edge 21, Type (0, 1), BuildingBlock: KIFKEQ_clean_linker_1, # of connection points: 2
#     Edge 22, Type (0, 1), BuildingBlock: KIFKEQ_clean_linker_1, # of connection points: 2
#     Edge 23, Type (0, 1), BuildingBlock: KIFKEQ_clean_linker_1, # of connection points: 2
#     Edge 24, Type (0, 1), BuildingBlock: KIFKEQ_clean_linker_1, # of connection points: 2
#     Edge 25, Type (0, 1), BuildingBlock: KIFKEQ_clean_linker_1, # of connection points: 2
#     Edge 26, Type (0, 1), BuildingBlock: KIFKEQ_clean_linker_1, # of connection points: 2
#     Edge 27, Type (0, 1), BuildingBlock: KIFKEQ_clean_linker_1, # of connection points: 2
#     Edge 28, Type (0, 1), BuildingBlock: KIFKEQ_clean_linker_1, # of connection points: 2
#     Edge 29, Type (0, 1), BuildingBlock: KIFKEQ_clean_linker_1, # of connection points: 2
#     Edge 30, Type (0, 1), BuildingBlock: KIFKEQ_clean_linker_1, # of connection points: 2
#     Edge 31, Type (0, 1), BuildingBlock: KIFKEQ_clean_linker_1, # of connection points: 2
#     Edge 32, Type (0, 1), BuildingBlock: KIFKEQ_clean_linker_1, # of connection points: 2
#     Edge 33, Type (0, 1), BuildingBlock: KIFKEQ_clean_linker_1, # of connection points: 2
#     Edge 34, Type (0, 1), BuildingBlock: KIFKEQ_clean_linker_1, # of connection points: 2
#     Edge 35, Type (0, 1), BuildingBlock: KIFKEQ_clean_linker_1, # of connection points: 2
# Relax obj value: 0.127
# Max RMSD: 0.169
# Mean RMSD: 0.137
data_MOF--net-pyr--node1-BETFAJ_clean_sbu_0--node2-BETDIP_clean_linker_0--edge1-KIFKEQ_clean_linker_1
_symmetry_space_group_name_H-M    P1
_symmetry_Int_Tables_number       1
_symmetry_cell_setting            triclinic
loop_
_symmetry_equiv_pos_as_xyz
'x, y, z'
_cell_length_a     38.84015
_cell_length_b     40.161277
_cell_length_c     37.464276
_cell_angle_alpha  91.27307
_cell_angle_beta   87.520609
_cell_angle_gamma 107.40499
loop_
_atom_site_label
_atom_site_type_symbol
_atom_site_fract_x
_atom_site_fract_y
_atom_site_fract_z
_atom_type_partial_charge
H0 H 0.31675 0.32825 0.21662 0.0
H1 H 0.39661 0.29717 0.15315 0.0
H2 H 0.3432 0.23575 0.24365 0.0
H3 H 0.36299 0.38849 0.19357 0.0
C4 C 0.35292 0.37512 0.16887 0.0
C5 C 0.33303 0.31078 0.21197 0.0
C6 C 0.32682 0.28121 0.23342 0.0
C7 C 0.3586 0.3168 0.18333 0.0
C8 C 0.37827 0.29315 0.17636 0.0
C9 C 0.37336 0.26391 0.19824 0.0
C10 C 0.34786 0.25852 0.22705 0.0
N11 N 0.36206 0.34439 0.15907 0.0
H12 H 0.25376 0.90445 0.69095 0.0
H13 H 0.28542 0.87712 0.58558 0.0
H14 H 0.32579 0.84139 0.67728 0.0
H15 H 0.23073 0.88458 0.57226 0.0
C16 C 0.22985 0.90683 0.5889 0.0
C17 C 0.26817 0.89045 0.674 0.0
C18 C 0.28974 0.87238 0.68909 0.0
C19 C 0.26564 0.89156 0.63691 0.0
C20 C 0.28566 0.87517 0.61433 0.0
C21 C 0.30759 0.85753 0.62914 0.0
C22 C 0.30903 0.8556 0.66628 0.0
N23 N 0.2443 0.91112 0.6234 0.0
H24 H 0.70776 0.4298 0.87085 0.0
H25 H 0.61841 0.33609 0.86461 0.0
H26 H 0.70397 0.34184 0.93588 0.0
H27 H 0.61357 0.35583 0.80899 0.0
C28 C 0.62346 0.38413 0.8099 0.0
C29 C 0.69466 0.40325 0.8793 0.0
C30 C 0.70971 0.38853 0.90618 0.0
C31 C 0.66255 0.38427 0.8631 0.0
C32 C 0.64416 0.35018 0.87533 0.0
C33 C 0.65833 0.33486 0.90265 0.0
C34 C 0.69166 0.35406 0.91672 0.0
N35 N 0.64927 0.40102 0.83565 0.0
H36 H 0.80455 0.64731 0.36534 0.0
H37 H 0.89142 0.74327 0.35261 0.0
H38 H 0.8085 0.73475 0.43479 0.0
H39 H 0.90498 0.71901 0.30148 0.0
C40 C 0.89141 0.69116 0.301 0.0
C41 C 0.81778 0.67397 0.37356 0.0
C42 C 0.80265 0.6889 0.40198 0.0
C43 C 0.84934 0.69327 0.35494 0.0
C44 C 0.86656 0.72808 0.36581 0.0
C45 C 0.85215 0.743 0.39512 0.0
C46 C 0.81998 0.7233 0.41257 0.0
N47 N 0.86272 0.67606 0.3262 0.0
H48 H 0.63576 0.78674 0.95002 0.0
H49 H 0.70851 0.75068 0.881 0.0
H50 H 0.68525 0.84539 0.8565 0.0
H51 H 0.66493 0.69228 0.90776 0.0
C52 C 0.6766 0.70659 0.93148 0.0
C53 C 0.65265 0.78975 0.9258 0.0
C54 C 0.65745 0.81889 0.90379 0.0
C55 C 0.67045 0.76481 0.91749 0.0
C56 C 0.69385 0.76931 0.88713 0.0
C57 C 0.69966 0.79851 0.86527 0.0
C58 C 0.6808 0.8228 0.87334 0.0
N59 N 0.6667 0.73688 0.94144 0.0
H60 H 0.84794 0.26833 0.36713 0.0
H61 H 0.82425 0.30255 0.47271 0.0
H62 H 0.74986 0.29482 0.38967 0.0
H63 H 0.87827 0.30086 0.48564 0.0
C64 C 0.8849 0.28253 0.46688 0.0
C65 C 0.83073 0.2782 0.38533 0.0
C66 C 0.79744 0.28031 0.37419 0.0
C67 C 0.84098 0.28635 0.42066 0.0
C68 C 0.81768 0.29724 0.44503 0.0
C69 C 0.7846 0.29993 0.43398 0.0
C70 C 0.77511 0.29208 0.39845 0.0
N71 N 0.87292 0.27968 0.43137 0.0
H72 H 0.31931 0.66149 0.24031 0.0
H73 H 0.41324 0.75132 0.24532 0.0
H74 H 0.32978 0.74918 0.17262 0.0
H75 H 0.41829 0.73086 0.30028 0.0
C76 C 0.40555 0.70284 0.30039 0.0
C77 C 0.33414 0.68746 0.2313 0.0
C78 C 0.32072 0.70287 0.20377 0.0
C79 C 0.36683 0.70495 0.24738 0.0
C80 C 0.38721 0.73829 0.23455 0.0
C81 C 0.37455 0.75423 0.2066 0.0
C82 C 0.34083 0.73648 0.19245 0.0
N83 N 0.37845 0.6874 0.27533 0.0
H84 H 0.11484 0.33337 0.7494 0.0
H85 H 0.20865 0.42366 0.75126 0.0
H86 H 0.20128 0.34368 0.67106 0.0
H87 H 0.19138 0.42437 0.81013 0.0
C88 C 0.16213 0.41724 0.80986 0.0
C89 C 0.14111 0.34793 0.73826 0.0
C90 C 0.15642 0.33423 0.70888 0.0
C91 C 0.15995 0.37985 0.7542 0.0
C92 C 0.19418 0.39881 0.73961 0.0
C93 C 0.20966 0.38592 0.70965 0.0
C94 C 0.19038 0.35358 0.69469 0.0
N95 N 0.14331 0.39248 0.78415 0.0
Sm96 Sm 1.00731 0.06517 0.50499 0.0
Sm97 Sm 0.98418 1.02975 0.57742 0.0
C98 C 0.01692 0.09655 0.44249 0.0
C99 C 0.04734 0.12244 0.42465 0.0
C100 C 0.04191 0.13939 0.39411 0.0
C101 C 0.07129 0.16243 0.37583 0.0
C102 C 0.1066 0.16871 0.38776 0.0
C103 C 0.11163 0.15231 0.41908 0.0
C104 C 0.08225 0.12948 0.4374 0.0
C105 C 0.05814 0.04017 0.53428 0.0
C106 C 0.03695 0.10854 0.57737 0.0
C107 C 0.96796 0.99077 0.63535 0.0
C108 C 0.94579 0.95627 0.64794 0.0
C109 C 0.95838 0.94008 0.67512 0.0
C110 C 0.93482 0.91182 0.6934 0.0
C111 C 0.89808 0.89968 0.68517 0.0
C112 C 0.88644 0.91407 0.65574 0.0
C113 C 0.91014 0.94198 0.63717 0.0
C114 C 0.94803 0.07565 0.55849 0.0
C115 C 0.95415 0.9839 0.50528 0.0
O116 O 1.0021 0.10767 0.47055 0.0
O117 O 0.02158 0.066 0.44715 0.0
O118 O 0.02475 1.0251 0.53447 0.0
O119 O 0.06627 0.0693 0.51701 0.0
O120 O 0.02496 0.11088 0.54528 0.0
O121 O 0.03121 0.07787 0.59269 0.0
O122 O 0.9968 0.99281 0.61503 0.0
O123 O 0.95021 1.01191 0.62585 0.0
O124 O 0.95589 0.05342 0.53812 0.0
O125 O 0.95851 0.07357 0.59051 0.0
O126 O 0.95341 0.98497 0.54061 0.0
O127 O 0.9719 1.01124 0.48583 0.0
H128 H 0.01506 0.13441 0.3841 0.0
H129 H 0.06638 0.17506 0.35216 0.0
H130 H 0.13841 0.15614 0.42881 0.0
H131 H 0.08689 0.11667 0.46107 0.0
H132 H 0.98588 0.95057 0.68363 0.0
H133 H 0.94498 0.90073 0.71524 0.0
H134 H 0.85842 0.90564 0.64859 0.0
H135 H 0.89987 0.95387 0.616 0.0
Sm136 Sm 0.55173 0.0537 0.07353 0.0
Sm137 Sm 0.48703 1.03314 1.0338 0.0
C138 C 0.61895 0.07531 0.09517 0.0
C139 C 0.64382 0.10531 0.11272 0.0
C140 C 0.63825 0.13824 0.1132 0.0
C141 C 0.6606 0.16564 0.13287 0.0
C142 C 0.68857 0.16033 0.15255 0.0
C143 C 0.69466 0.1275 0.15078 0.0
C144 C 0.67248 0.10028 0.13099 0.0
C145 C 0.5017 0.99449 0.10129 0.0
C146 C 0.49175 0.08731 0.10159 0.0
C147 C 0.41987 1.01084 1.01191 0.0
C148 C 0.39877 0.98372 0.98813 0.0
C149 C 0.36121 0.97651 0.98816 0.0
C150 C 0.34122 0.95338 0.96295 0.0
C151 C 0.35863 0.93731 0.93723 0.0
C152 C 0.3962 0.94343 0.93855 0.0
C153 C 0.41609 0.96639 0.96387 0.0
C154 C 0.53735 0.09216 1.00601 0.0
C155 C 0.54701 0.99965 1.00484 0.0
O156 O 0.61009 0.07996 0.0628 0.0
O157 O 0.5917 0.05697 0.11501 0.0
O158 O 0.50999 1.0002 0.06853 0.0
O159 O 0.51959 1.02066 0.12055 0.0
O160 O 0.52702 0.09409 0.09866 0.0
O161 O 0.47074 0.0611 0.08346 0.0
O162 O 0.42997 1.0002 0.04127 0.0
O163 O 0.44538 1.03575 0.99637 0.0
O164 O 0.52888 0.08659 1.03877 0.0
O165 O 0.51963 0.06585 0.98675 0.0
O166 O 0.51191 0.99427 1.00604 0.0
O167 O 0.568 1.02419 1.0249 0.0
H168 H 0.61613 0.14249 0.09917 0.0
H169 H 0.65542 0.19068 0.1334 0.0
H170 H 0.71542 0.12221 0.16609 0.0
H171 H 0.67698 0.07491 0.13093 0.0
H172 H 0.34749 0.98958 1.00697 0.0
H173 H 0.31229 0.94886 0.96294 0.0
H174 H 0.4106 0.93194 0.91888 0.0
H175 H 0.44514 0.97166 0.96363 0.0
Sm176 Sm 0.50461 0.50958 0.53369 0.0
Sm177 Sm 0.50945 0.5694 0.58097 0.0
C178 C 0.51863 0.45745 0.49785 0.0
C179 C 0.54558 0.43931 0.50319 0.0
C180 C 0.57703 0.45615 0.52138 0.0
C181 C 0.60294 0.43922 0.52636 0.0
C182 C 0.59786 0.40514 0.51322 0.0
C183 C 0.56583 0.38796 0.49589 0.0
C184 C 0.53984 0.40498 0.49092 0.0
C185 C 0.44027 0.50453 0.5701 0.0
C186 C 0.53691 0.51033 0.61468 0.0
C187 C 0.4985 0.62286 0.61681 0.0
C188 C 0.48462 0.65161 0.60704 0.0
C189 C 0.4511 0.64492 0.59111 0.0
C190 C 0.43819 0.6724 0.58215 0.0
C191 C 0.4587 0.70718 0.58852 0.0
C192 C 0.49284 0.71378 0.60329 0.0
C193 C 0.50556 0.68623 0.61264 0.0
C194 C 0.57306 0.57352 0.54339 0.0
C195 C 0.4779 0.56981 0.49938 0.0
O196 O 0.5316 0.49004 0.48813 0.0
O197 O 0.49308 0.45273 0.52272 0.0
O198 O 0.47104 0.51475 0.58354 0.0
O199 O 0.44292 0.49624 0.53661 0.0
O200 O 0.53809 0.50017 0.5809 0.0
O201 O 0.52242 0.53524 0.62348 0.0
O202 O 0.47537 0.59155 0.61743 0.0
O203 O 0.52988 0.62351 0.60233 0.0
O204 O 0.54202 0.5643 0.53074 0.0
O205 O 0.57137 0.58085 0.57722 0.0
O206 O 0.48028 0.58269 0.53236 0.0
O207 O 0.4882 0.54198 0.49145 0.0
H208 H 0.58181 0.48261 0.53136 0.0
H209 H 0.62718 0.45295 0.54009 0.0
H210 H 0.56141 0.36183 0.48512 0.0
H211 H 0.51556 0.39155 0.4771 0.0
H212 H 0.43455 0.61846 0.58594 0.0
H213 H 0.41158 0.66624 0.57134 0.0
H214 H 0.50962 0.74024 0.608 0.0
H215 H 0.53174 0.69196 0.62437 0.0
Sm216 Sm 0.01643 0.51145 0.06859 0.0
Sm217 Sm 0.0146 0.58395 1.03542 0.0
C218 C 0.03311 0.45301 0.07608 0.0
C219 C 0.06771 0.44543 0.07908 0.0
C220 C 0.07227 0.41432 0.06506 0.0
C221 C 0.10496 0.40689 0.06868 0.0
C222 C 0.13362 0.43048 0.08647 0.0
C223 C 0.12896 0.4619 0.09993 0.0
C224 C 0.09648 0.46935 0.09611 0.0
C225 C 0.97729 0.54397 0.11391 0.0
C226 C 0.08377 0.58285 0.08445 0.0
C227 C 1.00711 0.64577 1.02242 0.0
C228 C 0.97477 0.65668 1.01718 0.0
C229 C 0.94105 0.63673 1.03138 0.0
C230 C 0.90985 0.64552 1.02448 0.0
C231 C 0.91168 0.67412 1.00276 0.0
C232 C 0.94553 0.69418 0.98868 0.0
C233 C 0.97687 0.68556 0.99595 0.0
C234 C 0.04145 0.54126 0.99106 0.0
C235 C 0.94592 0.51419 1.02392 0.0
O236 O 0.02708 0.46395 0.04491 0.0
O237 O 0.02379 0.4703 0.103 0.0
O238 O 0.99203 0.55354 0.08382 0.0
O239 O 0.98226 0.51424 0.12107 0.0
O240 O 0.06994 0.54864 0.0881 0.0
O241 O 0.0681 0.60168 0.06578 0.0
O242 O 1.01055 0.63536 0.05458 0.0
O243 O 0.01456 0.62557 0.9973 0.0
O244 O 0.04717 0.54642 1.02399 0.0
O245 O 0.02294 0.56087 0.98003 0.0
O246 O 0.95639 0.54867 1.02752 0.0
O247 O 0.96609 0.49477 1.03383 0.0
H248 H 0.0505 0.3957 0.05151 0.0
H249 H 0.10777 0.38268 0.05754 0.0
H250 H 0.15009 0.48046 0.11428 0.0
H251 H 0.0937 0.49364 0.107 0.0
H252 H 0.93869 0.61385 0.04719 0.0
H253 H 0.88411 0.62922 1.03517 0.0
H254 H 0.94771 0.71642 0.97193 0.0
H255 H 1.00262 0.70104 0.98448 0.0
H256 H 0.32393 0.25532 0.3011 0.0
H257 H 0.25874 0.28469 0.22419 0.0
H258 H 0.27021 0.23224 0.34 0.0
H259 H 0.20554 0.26277 0.26347 0.0
H260 H 0.11678 0.17095 0.31515 0.0
H261 H 0.17008 0.20323 0.28035 0.0
H262 H 0.22225 0.24739 0.37732 0.0
H263 H 0.16847 0.21538 0.41238 0.0
C264 C 0.29827 0.25732 0.29276 0.0
C265 C 0.2956 0.27168 0.25949 0.0
C266 C 0.26758 0.2444 0.31516 0.0
C267 C 0.23361 0.24544 0.30463 0.0
C268 C 0.23126 0.2612 0.2721 0.0
C269 C 0.26188 0.27415 0.24979 0.0
C270 C 0.13923 0.18811 0.3291 0.0
C271 C 0.13826 0.19055 0.3666 0.0
C272 C 0.16986 0.20659 0.30912 0.0
C273 C 0.20037 0.22788 0.3261 0.0
C274 C 0.19928 0.23089 0.36353 0.0
C275 C 0.1685 0.21251 0.38357 0.0
H276 H 0.35149 0.87824 0.72425 0.0
H277 H 0.23826 0.86867 0.74287 0.0
H278 H 0.36031 0.88403 0.78798 0.0
H279 H 0.24764 0.87572 0.8071 0.0
H280 H 0.30669 0.9528 0.8998 0.0
H281 H 0.28339 0.92814 0.84278 0.0
H282 H 0.34332 0.85357 0.84721 0.0
H283 H 0.36621 0.87777 0.90493 0.0
C284 C 0.32824 0.87654 0.74193 0.0
C285 C 0.29414 0.87304 0.72832 0.0
C286 C 0.33335 0.87986 0.77855 0.0
C287 C 0.30462 0.88018 0.80246 0.0
C288 C 0.27025 0.87568 0.78915 0.0
C289 C 0.26501 0.87193 0.75241 0.0
C290 C 0.31391 0.93032 0.88938 0.0
C291 C 0.33879 0.9176 0.90668 0.0
C292 C 0.30053 0.91621 0.85662 0.0
C293 C 0.31195 0.88927 0.84042 0.0
C294 C 0.33455 0.87471 0.85895 0.0
C295 C 0.34773 0.88865 0.89187 0.0
H296 H 0.63899 0.45572 0.80202 0.0
H297 H 0.58215 0.35742 0.75337 0.0
H298 H 0.61977 0.4868 0.75484 0.0
H299 H 0.56277 0.38828 0.7064 0.0
H300 H 0.56319 0.4539 0.60786 0.0
H301 H 0.58527 0.42479 0.65441 0.0
H302 H 0.56606 0.4984 0.73263 0.0
H303 H 0.54419 0.52767 0.68604 0.0
C304 C 0.6224 0.44071 0.78128 0.0
C305 C 0.61218 0.40399 0.7815 0.0
C306 C 0.61119 0.45854 0.75425 0.0
C307 C 0.58971 0.44019 0.7265 0.0
C308 C 0.57967 0.40346 0.72685 0.0
C309 C 0.59061 0.38569 0.75397 0.0
C310 C 0.56377 0.46403 0.63493 0.0
C311 C 0.55173 0.49322 0.643 0.0
C312 C 0.57628 0.44714 0.66179 0.0
C313 C 0.57743 0.45901 0.69756 0.0
C314 C 0.56597 0.48859 0.70547 0.0
C315 C 0.55319 0.50532 0.67866 0.0
H316 H 0.86416 0.62021 0.28979 0.0
H317 H 0.94313 0.71243 0.248 0.0
H318 H 0.88261 0.58483 0.2434 0.0
H319 H 0.96216 0.67692 0.20178 0.0
H320 H 0.9655 0.60715 0.10374 0.0
H321 H 0.94349 0.64263 0.1478 0.0
H322 H 0.93249 0.56307 0.22688 0.0
H323 H 0.95411 0.52781 0.18267 0.0
C324 C 0.88554 0.63298 0.27073 0.0
C325 C 0.90225 0.66921 0.27266 0.0
C326 C 0.89628 0.61261 0.24415 0.0
C327 C 0.924 0.62788 0.21873 0.0
C328 C 0.94044 0.66423 0.22053 0.0
C329 C 0.92972 0.68459 0.24718 0.0
C330 C 0.95837 0.59735 0.13048 0.0
C331 C 0.96184 0.56484 0.13968 0.0
C332 C 0.94585 0.6177 0.15587 0.0
C333 C 0.93629 0.60589 0.19112 0.0
C334 C 0.93913 0.57296 0.2 0.0
C335 C 0.9517 0.55274 0.17464 0.0
H336 H 0.34705 0.19267 0.20344 0.0
H337 H 0.44328 0.27521 0.1724 0.0
H338 H 0.37721 0.14957 0.18672 0.0
H339 H 0.4726 0.23173 0.15297 0.0
H340 H 0.52555 0.14533 0.14132 0.0
H341 H 0.49831 0.18737 0.16948 0.0
H342 H 0.3939 0.12617 0.13323 0.0
H343 H 0.42066 0.08388 0.10662 0.0
C344 C 0.37479 0.20176 0.19339 0.0
C345 C 0.39266 0.2376 0.18934 0.0
C346 C 0.39195 0.17689 0.1832 0.0
C347 C 0.42725 0.18704 0.16804 0.0
C348 C 0.44552 0.22288 0.1648 0.0
C349 C 0.42848 0.24786 0.17545 0.0
C350 C 0.49669 0.14065 0.13991 0.0
C351 C 0.47531 0.11123 0.12172 0.0
C352 C 0.48111 0.1649 0.15578 0.0
C353 C 0.44387 0.1603 0.15361 0.0
C354 C 0.42252 0.13038 0.1361 0.0
C355 C 0.43798 0.10612 0.12056 0.0
H356 H 0.23 0.97039 0.6165 0.0
H357 H 0.17974 0.89247 0.53812 0.0
H358 H 0.18964 1.00426 0.60238 0.0
H359 H 0.139 0.92632 0.52425 0.0
H360 H 0.04443 0.97227 0.55221 0.0
H361 H 0.08824 0.94137 0.56323 0.0
H362 H 0.17524 1.0369 0.54787 0.0
H363 H 0.13128 0.06795 0.53629 0.0
C364 C 0.21042 0.96062 0.59613 0.0
C365 C 0.2076 0.92869 0.57856 0.0
C366 C 0.18753 0.98009 0.58795 0.0
C367 C 0.16118 0.96769 0.56246 0.0
C368 C 0.15896 0.93619 0.54426 0.0
C369 C 0.18225 0.91698 0.55205 0.0
C370 C 0.0729 0.98671 0.55129 0.0
C371 C 0.08461 1.02243 0.54329 0.0
C372 C 0.0979 0.96898 0.55732 0.0
C373 C 0.13499 0.98676 0.556 0.0
C374 C 0.14672 1.0227 0.54896 0.0
C375 C 0.12167 0.04038 0.54237 0.0
H376 H 0.76975 0.43774 0.87656 0.0
H377 H 0.72786 0.38604 0.97621 0.0
H378 H 0.8257 0.46919 0.90534 0.0
H379 H 0.78426 0.41627 1.00412 0.0
H380 H 0.90672 0.44492 1.02604 0.0
H381 H 0.84974 0.41604 0.99783 0.0
H382 H 0.84831 0.51458 0.95539 0.0
H383 H 0.90516 0.5437 0.984 0.0
C384 C 0.77216 0.43313 0.90456 0.0
C385 C 0.74398 0.40883 0.92373 0.0
C386 C 0.80442 0.45113 0.92103 0.0
C387 C 0.80962 0.44503 0.95697 0.0
C388 C 0.78142 0.42116 0.97624 0.0
C389 C 0.74904 0.40362 0.96002 0.0
C390 C 0.89427 0.46052 1.01082 0.0
C391 C 0.91063 0.49671 1.00745 0.0
C392 C 0.86149 0.44395 0.99474 0.0
C393 C 0.84443 0.46297 0.97429 0.0
C394 C 0.86084 0.49912 0.97072 0.0
C395 C 0.89333 0.51583 0.98735 0.0
H396 H 0.74037 0.70643 0.41018 0.0
H397 H 0.78838 0.62649 0.43612 0.0
H398 H 0.6845 0.67464 0.44271 0.0
H399 H 0.73266 0.59503 0.46959 0.0
H400 H 0.64242 0.58777 0.56451 0.0
H401 H 0.69816 0.61249 0.52838 0.0
H402 H 0.63524 0.61186 0.43612 0.0
H403 H 0.57963 0.58632 0.47185 0.0
C404 C 0.73885 0.682 0.42283 0.0
C405 C 0.76854 0.66882 0.42066 0.0
C406 C 0.70693 0.66379 0.44128 0.0
C407 C 0.70433 0.6324 0.4586 0.0
C408 C 0.73404 0.6192 0.4565 0.0
C409 C 0.76575 0.63705 0.4373 0.0
C410 C 0.64058 0.59246 0.5364 0.0
C411 C 0.60674 0.58529 0.52102 0.0
C412 C 0.67242 0.60648 0.51575 0.0
C413 C 0.67091 0.61423 0.47955 0.0
C414 C 0.63709 0.60629 0.46401 0.0
C415 C 0.60534 0.59158 0.48443 0.0
H416 H 0.30896 0.33889 0.11644 0.0
H417 H 0.33113 0.43229 0.18178 0.0
H418 H 0.25751 0.35259 0.09192 0.0
H419 H 0.27976 0.44605 0.15722 0.0
H420 H 0.20288 0.4748 0.08398 0.0
H421 H 0.25791 0.46218 0.09983 0.0
H422 H 0.19704 0.35443 0.11763 0.0
H423 H 0.1418 0.36706 0.10271 0.0
C424 C 0.30314 0.36258 0.12521 0.0
C425 C 0.324 0.38461 0.15102 0.0
C426 C 0.27357 0.37029 0.11132 0.0
C427 C 0.26459 0.40035 0.12269 0.0
C428 C 0.28624 0.4229 0.14765 0.0
C429 C 0.31553 0.415 0.16179 0.0
C430 C 0.20114 0.44841 0.09135 0.0
C431 C 0.16775 0.42203 0.09239 0.0
C432 C 0.23272 0.4412 0.1003 0.0
C433 C 0.23174 0.40738 0.11012 0.0
C434 C 0.19869 0.38068 0.10979 0.0
C435 C 0.16703 0.38794 0.10115 0.0
H436 H 0.61523 0.27624 0.8679 0.0
H437 H 0.65609 0.31216 0.97178 0.0
H438 H 0.58519 0.2187 0.89255 0.0
H439 H 0.62925 0.25443 0.99539 0.0
H440 H 0.5528 0.15535 0.04059 0.0
H441 H 0.57888 0.21317 1.0155 0.0
H442 H 0.59097 0.16665 0.91226 0.0
H443 H 0.56261 0.10886 0.93731 0.0
C444 C 0.61798 0.27203 0.89593 0.0
C445 C 0.63869 0.29926 0.91749 0.0
C446 C 0.60114 0.23862 0.91008 0.0
C447 C 0.60468 0.23119 0.9462 0.0
C448 C 0.6251 0.25863 0.96768 0.0
C449 C 0.64133 0.29199 0.95376 0.0
C450 C 0.56112 0.1575 1.01254 0.0
C451 C 0.55563 0.12742 0.991 0.0
C452 C 0.57641 0.19085 0.99801 0.0
C453 C 0.58749 0.19525 0.96154 0.0
C454 C 0.58234 0.16487 0.94018 0.0
C455 C 0.56638 0.13152 0.95464 0.0
H456 H 0.87301 0.76159 0.46274 0.0
H457 H 0.87175 0.80494 0.35878 0.0
H458 H 0.89732 0.81995 0.48773 0.0
H459 H 0.89463 0.86393 0.38392 0.0
H460 H 0.96543 0.96491 0.43599 0.0
H461 H 0.94286 0.90746 0.40823 0.0
H462 H 0.88054 0.86885 0.50515 0.0
H463 H 0.90449 0.9258 0.53328 0.0
C464 C 0.878 0.78379 0.44523 0.0
C465 C 0.87045 0.77873 0.40884 0.0
C466 C 0.89156 0.81738 0.45962 0.0
C467 C 0.89744 0.84708 0.43816 0.0
C468 C 0.89078 0.8419 0.40139 0.0
C469 C 0.87765 0.80809 0.38687 0.0
C470 C 0.94663 0.94423 0.45127 0.0
C471 C 0.93692 0.95005 0.48697 0.0
C472 C 0.93357 0.91115 0.43526 0.0
C473 C 0.91009 0.88301 0.4544 0.0
C474 C 0.89933 0.88937 0.4897 0.0
C475 C 0.91278 0.92227 0.50582 0.0
H476 H 0.37889 0.886 0.61542 0.0
H477 H 0.28935 0.7949 0.59475 0.0
H478 H 0.42116 0.85507 0.59328 0.0
H479 H 0.33143 0.7635 0.57312 0.0
H480 H 0.41592 0.71445 0.53427 0.0
H481 H 0.38191 0.75664 0.53164 0.0
H482 H 0.4324 0.80728 0.62704 0.0
H483 H 0.46525 0.765 0.63041 0.0
C484 C 0.36837 0.85973 0.60483 0.0
C485 C 0.33119 0.84259 0.60663 0.0
C486 C 0.39243 0.84201 0.5924 0.0
C487 C 0.37958 0.80677 0.58198 0.0
C488 C 0.3421 0.79073 0.5807 0.0
C489 C 0.31801 0.80856 0.5931 0.0
C490 C 0.41997 0.73481 0.55449 0.0
C491 C 0.44301 0.73604 0.58282 0.0
C492 C 0.40068 0.75904 0.5528 0.0
C493 C 0.40451 0.7852 0.5791 0.0
C494 C 0.42933 0.7878 0.60598 0.0
C495 C 0.44824 0.76346 0.6079 0.0
H496 H 0.76747 0.79216 0.86746 0.0
H497 H 0.69574 0.82072 0.7973 0.0
H498 H 0.81599 0.80868 0.82183 0.0
H499 H 0.74471 0.83807 0.75186 0.0
H500 H 0.83586 0.84778 0.66879 0.0
H501 H 0.78714 0.81693 0.71046 0.0
H502 H 0.85062 0.86728 0.79914 0.0
H503 H 0.89851 0.89874 0.75804 0.0
C504 C 0.76187 0.80136 0.84203 0.0
C505 C 0.72781 0.80528 0.836 0.0
C506 C 0.78975 0.81106 0.81603 0.0
C507 C 0.78419 0.8248 0.78338 0.0
C508 C 0.7497 0.82727 0.77666 0.0
C509 C 0.7218 0.81772 0.80279 0.0
C510 C 0.83953 0.85208 0.69718 0.0
C511 C 0.87116 0.87597 0.70992 0.0
C512 C 0.81165 0.83435 0.721 0.0
C513 C 0.81504 0.83982 0.75801 0.0
C514 C 0.84739 0.86215 0.77078 0.0
C515 C 0.87502 0.8801 0.74708 0.0
H516 H 0.83443 0.29127 0.30903 0.0
H517 H 0.7303 0.23939 0.35891 0.0
H518 H 0.81088 0.26932 0.25048 0.0
H519 H 0.70703 0.2179 0.30118 0.0
H520 H 0.66199 0.20328 0.1957 0.0
H521 H 0.69134 0.23884 0.24538 0.0
H522 H 0.78921 0.21209 0.21891 0.0
H523 H 0.76041 0.17783 0.16782 0.0
C524 C 0.8066 0.27528 0.30747 0.0
C525 C 0.78408 0.26745 0.33846 0.0
C526 C 0.79312 0.26283 0.27405 0.0
C527 C 0.75693 0.24244 0.27119 0.0
C528 C 0.7347 0.23444 0.3023 0.0
C529 C 0.74809 0.24671 0.33545 0.0
C530 C 0.69015 0.2059 0.19958 0.0
C531 C 0.70866 0.18722 0.17808 0.0
C532 C 0.70683 0.22596 0.22837 0.0
C533 C 0.74228 0.22756 0.23651 0.0
C534 C 0.76183 0.21127 0.21336 0.0
C535 C 0.74518 0.19133 0.18435 0.0
H536 H 0.44981 0.72739 0.35542 0.0
H537 H 0.38229 0.63126 0.31097 0.0
H538 H 0.46578 0.69498 0.4032 0.0
H539 H 0.39801 0.59863 0.359 0.0
H540 H 0.46628 0.54988 0.42897 0.0
H541 H 0.44791 0.58089 0.38145 0.0
H542 H 0.4414 0.66199 0.45665 0.0
H543 H 0.46005 0.63119 0.50405 0.0
C544 C 0.43827 0.69927 0.35592 0.0
C545 C 0.41472 0.68205 0.32931 0.0
C546 C 0.44725 0.68063 0.38352 0.0
C547 C 0.43316 0.64401 0.38533 0.0
C548 C 0.40971 0.62672 0.35849 0.0
C549 C 0.4005 0.64547 0.33096 0.0
C550 C 0.46077 0.57424 0.43549 0.0
C551 C 0.46481 0.5879 0.47057 0.0
C552 C 0.45002 0.59202 0.40815 0.0
C553 C 0.44321 0.62419 0.41489 0.0
C554 C 0.44685 0.63761 0.4501 0.0
C555 C 0.45736 0.61973 0.47748 0.0
H556 H 0.08908 0.40887 0.81844 0.0
H557 H 0.19147 0.45934 0.86519 0.0
H558 H 0.05865 0.43547 0.86425 0.0
H559 H 0.1612 0.48623 0.91083 0.0
H560 H 0.09143 0.50753 1.0055 0.0
H561 H 0.11911 0.47447 0.96337 0.0
H562 H 0.0548 0.49358 0.87939 0.0
H563 H 0.02711 0.52602 0.92136 0.0
C564 C 0.10509 0.42553 0.83857 0.0
C565 C 0.14273 0.43208 0.83814 0.0
C566 C 0.08767 0.44092 0.86479 0.0
C567 C 0.10743 0.4631 0.89131 0.0
C568 C 0.14502 0.46901 0.89118 0.0
C569 C 0.16242 0.45379 0.86486 0.0
C570 C 0.08307 0.50436 0.9781 0.0
C571 C 0.05718 0.51948 0.96672 0.0
C572 C 0.09905 0.48561 0.95388 0.0
C573 C 0.08926 0.48135 0.91786 0.0
C574 C 0.06274 0.49589 0.90692 0.0
C575 C 0.04701 0.51473 0.93097 0.0
H576 H 0.58882 0.80999 0.93177 0.0
H577 H 0.68637 0.88987 0.89874 0.0
H578 H 0.56185 0.85496 0.95211 0.0
H579 H 0.65871 0.93466 0.9171 0.0
H580 H 0.51234 0.94353 0.96324 0.0
H581 H 0.53814 0.90086 0.93434 0.0
H582 H 0.64315 0.9583 0.97207 0.0
H583 H 0.61774 1.00124 0.99988 0.0
C584 C 0.60442 0.83712 0.92857 0.0
C585 C 0.63986 0.84622 0.91377 0.0
C586 C 0.58875 0.86293 0.93977 0.0
C587 C 0.60812 0.8985 0.93634 0.0
C588 C 0.64316 0.90756 0.9206 0.0
C589 C 0.65888 0.88179 0.90961 0.0
C590 C 0.54104 0.94729 0.96489 0.0
C591 C 0.56294 0.97575 0.984 0.0
C592 C 0.55577 0.92267 0.94857 0.0
C593 C 0.5927 0.92598 0.95102 0.0
C594 C 0.61471 0.9551 0.96917 0.0
C595 C 0.60005 0.97969 0.98534 0.0
H596 H 0.91548 0.23913 0.42873 0.0
H597 H 0.88529 0.26422 0.53588 0.0
H598 H 0.93275 0.19024 0.4513 0.0
H599 H 0.90079 0.21429 0.55852 0.0
H600 H 0.9583 0.13805 0.59245 0.0
H601 H 0.94714 0.19015 0.57011 0.0
H602 H 0.90535 0.13389 0.47373 0.0
H603 H 0.91843 0.08235 0.49557 0.0
C604 C 0.9126 0.23414 0.45717 0.0
C605 C 0.89893 0.25524 0.48065 0.0
C606 C 0.92216 0.20593 0.47009 0.0
C607 C 0.91771 0.19792 0.5067 0.0
C608 C 0.905 0.21982 0.53024 0.0
C609 C 0.896 0.24838 0.51734 0.0
C610 C 0.94652 0.13685 0.56658 0.0
C611 C 0.93896 0.10623 0.54574 0.0
C612 C 0.94004 0.16669 0.55377 0.0
C613 C 0.9253 0.16635 0.52009 0.0
C614 C 0.91737 0.13539 0.49948 0.0
C615 C 0.92442 0.10571 0.51209 0.0
H616 H 0.3045 0.70334 0.13301 0.0
H617 H 0.25771 0.65957 0.23462 0.0
H618 H 0.24761 0.67519 0.1049 0.0
H619 H 0.20095 0.63063 0.20606 0.0
H620 H 0.11835 0.55557 0.13323 0.0
H621 H 0.17497 0.58386 0.1619 0.0
H622 H 0.18488 0.67853 0.1046 0.0
H623 H 0.12813 0.65018 0.07566 0.0
C624 C 0.28207 0.68796 0.14954 0.0
C625 C 0.28594 0.68416 0.18636 0.0
C626 C 0.24936 0.67172 0.13328 0.0
C627 C 0.21952 0.65076 0.15317 0.0
C628 C 0.22344 0.64634 0.18982 0.0
C629 C 0.25612 0.66289 0.20621 0.0
C630 C 0.13252 0.58241 0.12659 0.0
C631 C 0.1185 0.60048 0.10193 0.0
C632 C 0.16497 0.59873 0.14331 0.0
C633 C 0.1846 0.63352 0.13565 0.0
C634 C 0.17069 0.6516 0.11092 0.0
C635 C 0.138 0.63537 0.09443 0.0
H636 H 0.2386 0.45739 0.7021 0.0
H637 H 0.26258 0.36035 0.67975 0.0
H638 H 0.29519 0.48917 0.67068 0.0
H639 H 0.3176 0.39209 0.64679 0.0
H640 H 0.37685 0.45971 0.54882 0.0
H641 H 0.32232 0.43327 0.58544 0.0
H642 H 0.37116 0.49363 0.67664 0.0
H643 H 0.42664 0.51959 0.64014 0.0
C644 C 0.25593 0.44279 0.69096 0.0
C645 C 0.24549 0.40608 0.69318 0.0
C646 C 0.28823 0.46106 0.67281 0.0
C647 C 0.3104 0.44296 0.65607 0.0
C648 C 0.30067 0.40656 0.65913 0.0
C649 C 0.26892 0.38841 0.67779 0.0
C650 C 0.37597 0.46763 0.57658 0.0
C651 C 0.40612 0.49159 0.59167 0.0
C652 C 0.34478 0.45241 0.59752 0.0
C653 C 0.34271 0.46135 0.6338 0.0
C654 C 0.37218 0.4864 0.64868 0.0
C655 C 0.40382 0.50116 0.62785 0.0
H656 H 0.71301 0.66418 0.90252 0.0
H657 H 0.71586 0.73775 0.98896 0.0
H658 H 0.77051 0.65787 0.92039 0.0
H659 H 0.77343 0.73143 1.00691 0.0
H660 H 0.85517 0.67689 0.04764 0.0
H661 H 0.79784 0.68503 1.03156 0.0
H662 H 0.83501 0.69636 0.92092 0.0
H663 H 0.89212 0.68791 0.93693 0.0
C664 C 0.72587 0.6788 0.92548 0.0
C665 C 0.7101 0.70145 0.94431 0.0
C666 C 0.75887 0.67542 0.93553 0.0
C667 C 0.77656 0.69437 0.96487 0.0
C668 C 0.76032 0.71642 0.98427 0.0
C669 C 0.72745 0.72009 0.97396 0.0
C670 C 0.85108 0.68124 1.01992 0.0
C671 C 0.87806 0.68172 0.99352 0.0
C672 C 0.8184 0.68611 1.01077 0.0
C673 C 0.81191 0.69111 0.97498 0.0
C674 C 0.83914 0.69218 0.94868 0.0
C675 C 0.87195 0.6877 0.95787 0.0
H676 H 0.3794 0.77571 0.13684 0.0
H677 H 0.41899 0.81224 0.24098 0.0
H678 H 0.40821 0.83283 0.11252 0.0
H679 H 0.45094 0.8691 0.21575 0.0
H680 H 0.47537 0.97854 0.16965 0.0
H681 H 0.44612 0.92112 0.19505 0.0
H682 H 0.45933 0.87342 0.09273 0.0
H683 H 0.48636 0.93099 0.06722 0.0
C684 C 0.39437 0.79589 0.15474 0.0
C685 C 0.39598 0.78906 0.1913 0.0
C686 C 0.4117 0.82887 0.14044 0.0
C687 C 0.4322 0.8563 0.16186 0.0
C688 C 0.43492 0.84919 0.19825 0.0
C689 C 0.41698 0.81618 0.21275 0.0
C690 C 0.47169 0.9557 0.1526 0.0
C691 C 0.483 0.95939 0.11636 0.0
C692 C 0.45522 0.92256 0.16726 0.0
C693 C 0.45011 0.89197 0.14627 0.0
C694 C 0.46179 0.89595 0.10992 0.0
C695 C 0.4776 0.92912 0.09515 0.0
H696 H 0.08601 0.30992 0.68885 0.0
H697 H 0.18414 0.28076 0.6917 0.0
H698 H 0.05658 0.25478 0.65819 0.0
H699 H 0.15488 0.22584 0.66111 0.0
H700 H 0.0776 0.11601 0.63685 0.0
H701 H 0.10512 0.16959 0.67061 0.0
H702 H 0.06324 0.22815 0.59755 0.0
H703 H 0.0359 0.17481 0.56375 0.0
C704 C 0.10114 0.29158 0.68327 0.0
C705 C 0.13742 0.29975 0.69258 0.0
C706 C 0.08442 0.26015 0.66546 0.0
C707 C 0.10344 0.23596 0.65708 0.0
C708 C 0.13939 0.24376 0.66734 0.0
C709 C 0.15622 0.27532 0.68466 0.0
C710 C 0.07435 0.14033 0.62793 0.0
C711 C 0.05472 0.14109 0.59744 0.0
C712 C 0.09019 0.17104 0.64724 0.0
C713 C 0.08628 0.20315 0.63685 0.0
C714 C 0.06646 0.20383 0.6065 0.0
C715 C 0.05108 0.17325 0.58691 0.0
H716 H 0.71232 0.26896 0.44263 0.0
H717 H 0.79942 0.35434 0.48195 0.0
H718 H 0.66862 0.29282 0.47334 0.0
H719 H 0.75555 0.37763 0.51442 0.0
H720 H 0.66935 0.43536 0.49817 0.0
H721 H 0.71626 0.40701 0.4914 0.0
H722 H 0.63992 0.30938 0.52513 0.0
H723 H 0.59251 0.33796 0.53117 0.0
C724 C 0.72209 0.29248 0.4586 0.0
C725 C 0.75915 0.31039 0.45911 0.0
C726 C 0.69704 0.30594 0.47668 0.0
C727 C 0.70854 0.3375 0.49592 0.0
C728 C 0.74583 0.35364 0.49919 0.0
C729 C 0.77096 0.3402 0.48088 0.0
C730 C 0.66277 0.40806 0.50505 0.0
C731 C 0.62719 0.38875 0.51475 0.0
C732 C 0.68977 0.39177 0.50137 0.0
C733 C 0.68185 0.3558 0.50746 0.0
C734 C 0.64676 0.337 0.51962 0.0
C735 C 0.61962 0.35329 0.52303 0.0
loop_
_geom_bond_atom_site_label_1
_geom_bond_atom_site_label_2
_geom_bond_distance
_geom_bond_site_symmetry_2
_ccdc_geom_bond_type
H0 C5 0.930 . S
H1 C8 0.930 . S
H2 C10 0.930 . S
H3 C4 1.016 . S
C4 H3 1.016 . S
C4 N11 1.286 . S
C5 H0 0.930 . S
C5 C6 1.397 . S
C5 C7 1.361 . S
C6 C5 1.397 . S
C6 C10 1.390 . S
C7 C5 1.361 . S
C7 C8 1.393 . S
C7 N11 1.413 . S
C8 H1 0.930 . S
C8 C7 1.393 . S
C8 C9 1.399 . S
C9 C8 1.399 . S
C9 C10 1.381 . S
C10 H2 0.930 . S
C10 C6 1.390 . S
C10 C9 1.381 . S
N11 C4 1.286 . S
N11 C7 1.413 . S
H12 C17 0.930 . S
H13 C20 0.930 . S
H14 C22 0.930 . S
H15 C16 1.016 . S
C16 H15 1.016 . S
C16 N23 1.286 . S
C17 H12 0.930 . S
C17 C18 1.397 . S
C17 C19 1.361 . S
C18 C17 1.397 . S
C18 C22 1.390 . S
C19 C17 1.361 . S
C19 C20 1.393 . S
C19 N23 1.413 . S
C20 H13 0.930 . S
C20 C19 1.393 . S
C20 C21 1.399 . S
C21 C20 1.399 . S
C21 C22 1.381 . S
C22 H14 0.930 . S
C22 C18 1.390 . S
C22 C21 1.381 . S
N23 C16 1.286 . S
N23 C19 1.413 . S
H24 C29 0.930 . S
H25 C32 0.930 . S
H26 C34 0.930 . S
H27 C28 1.016 . S
C28 H27 1.016 . S
C28 N35 1.286 . S
C29 H24 0.930 . S
C29 C30 1.397 . S
C29 C31 1.361 . S
C30 C29 1.397 . S
C30 C34 1.390 . S
C31 C29 1.361 . S
C31 C32 1.393 . S
C31 N35 1.413 . S
C32 H25 0.930 . S
C32 C31 1.393 . S
C32 C33 1.399 . S
C33 C32 1.399 . S
C33 C34 1.381 . S
C34 H26 0.930 . S
C34 C30 1.390 . S
C34 C33 1.381 . S
N35 C28 1.286 . S
N35 C31 1.413 . S
H36 C41 0.930 . S
H37 C44 0.930 . S
H38 C46 0.930 . S
H39 C40 1.016 . S
C40 H39 1.016 . S
C40 N47 1.286 . S
C41 H36 0.930 . S
C41 C42 1.397 . S
C41 C43 1.361 . S
C42 C41 1.397 . S
C42 C46 1.390 . S
C43 C41 1.361 . S
C43 C44 1.393 . S
C43 N47 1.413 . S
C44 H37 0.930 . S
C44 C43 1.393 . S
C44 C45 1.399 . S
C45 C44 1.399 . S
C45 C46 1.381 . S
C46 H38 0.930 . S
C46 C42 1.390 . S
C46 C45 1.381 . S
N47 C40 1.286 . S
N47 C43 1.413 . S
H48 C53 0.930 . S
H49 C56 0.930 . S
H50 C58 0.930 . S
H51 C52 1.016 . S
C52 H51 1.016 . S
C52 N59 1.286 . S
C53 H48 0.930 . S
C53 C54 1.397 . S
C53 C55 1.361 . S
C54 C53 1.397 . S
C54 C58 1.390 . S
C55 C53 1.361 . S
C55 C56 1.393 . S
C55 N59 1.413 . S
C56 H49 0.930 . S
C56 C55 1.393 . S
C56 C57 1.399 . S
C57 C56 1.399 . S
C57 C58 1.381 . S
C58 H50 0.930 . S
C58 C54 1.390 . S
C58 C57 1.381 . S
N59 C52 1.286 . S
N59 C55 1.413 . S
H60 C65 0.930 . S
H61 C68 0.930 . S
H62 C70 0.930 . S
H63 C64 1.016 . S
C64 H63 1.016 . S
C64 N71 1.286 . S
C65 H60 0.930 . S
C65 C66 1.397 . S
C65 C67 1.361 . S
C66 C65 1.397 . S
C66 C70 1.390 . S
C67 C65 1.361 . S
C67 C68 1.393 . S
C67 N71 1.413 . S
C68 H61 0.930 . S
C68 C67 1.393 . S
C68 C69 1.399 . S
C69 C68 1.399 . S
C69 C70 1.381 . S
C70 H62 0.930 . S
C70 C66 1.390 . S
C70 C69 1.381 . S
N71 C64 1.286 . S
N71 C67 1.413 . S
H72 C77 0.930 . S
H73 C80 0.930 . S
H74 C82 0.930 . S
H75 C76 1.016 . S
C76 H75 1.016 . S
C76 N83 1.286 . S
C77 H72 0.930 . S
C77 C78 1.397 . S
C77 C79 1.361 . S
C78 C77 1.397 . S
C78 C82 1.390 . S
C79 C77 1.361 . S
C79 C80 1.393 . S
C79 N83 1.413 . S
C80 H73 0.930 . S
C80 C79 1.393 . S
C80 C81 1.399 . S
C81 C80 1.399 . S
C81 C82 1.381 . S
C82 H74 0.930 . S
C82 C78 1.390 . S
C82 C81 1.381 . S
N83 C76 1.286 . S
N83 C79 1.413 . S
H84 C89 0.930 . S
H85 C92 0.930 . S
H86 C94 0.930 . S
H87 C88 1.016 . S
C88 H87 1.016 . S
C88 N95 1.286 . S
C89 H84 0.930 . S
C89 C90 1.397 . S
C89 C91 1.361 . S
C90 C89 1.397 . S
C90 C94 1.390 . S
C91 C89 1.361 . S
C91 C92 1.393 . S
C91 N95 1.413 . S
C92 H85 0.930 . S
C92 C91 1.393 . S
C92 C93 1.399 . S
C93 C92 1.399 . S
C93 C94 1.381 . S
C94 H86 0.930 . S
C94 C90 1.390 . S
C94 C93 1.381 . S
N95 C88 1.286 . S
N95 C91 1.413 . S
Sm96 C98 2.846 . S
Sm96 O116 2.543 . S
Sm96 O117 2.450 . S
Sm96 O118 2.681 1_545 S
Sm96 O119 2.464 1_545 S
Sm96 O120 2.396 . S
Sm96 O124 2.386 1_455 S
Sm96 O127 2.408 1_445 S
Sm97 C107 2.850 . S
Sm97 O118 2.389 1_655 S
Sm97 O121 2.404 1_665 S
Sm97 O122 2.548 . S
Sm97 O123 2.452 . S
Sm97 O124 2.678 1_565 S
Sm97 O125 2.460 1_565 S
Sm97 O126 2.399 . S
C98 Sm96 2.846 . S
C98 C99 1.506 . S
C98 O116 1.261 . S
C98 O117 1.242 . S
C99 C98 1.506 . S
C99 C100 1.358 . S
C99 C104 1.382 . S
C100 C99 1.358 . S
C100 C101 1.385 . S
C100 H128 0.930 . S
C101 C100 1.385 . S
C101 C102 1.395 . S
C101 H129 0.929 . S
C102 C101 1.395 . S
C102 C103 1.335 . S
C103 C102 1.335 . S
C103 C104 1.398 . S
C103 H130 0.930 . S
C104 C99 1.382 . S
C104 C103 1.398 . S
C104 H131 0.929 . S
C105 O118 1.271 . S
C105 O119 1.251 . S
C106 O120 1.252 . S
C106 O121 1.272 . S
C107 Sm97 2.850 . S
C107 C108 1.506 . S
C107 O122 1.261 . S
C107 O123 1.242 . S
C108 C107 1.506 . S
C108 C109 1.358 . S
C108 C113 1.382 . S
C109 C108 1.358 . S
C109 C110 1.385 . S
C109 H132 0.930 . S
C110 C109 1.385 . S
C110 C111 1.395 . S
C110 H133 0.929 . S
C111 C110 1.395 . S
C111 C112 1.335 . S
C112 C111 1.335 . S
C112 C113 1.398 . S
C112 H134 0.930 . S
C113 C108 1.382 . S
C113 C112 1.398 . S
C113 H135 0.929 . S
C114 O124 1.271 . S
C114 O125 1.251 . S
C115 O126 1.252 . S
C115 O127 1.272 . S
O116 Sm96 2.543 . S
O116 C98 1.261 . S
O117 Sm96 2.450 . S
O117 C98 1.242 . S
O118 Sm96 2.681 1_565 S
O118 Sm97 2.389 1_455 S
O118 C105 1.271 . S
O119 Sm96 2.464 1_565 S
O119 C105 1.251 . S
O120 Sm96 2.396 . S
O120 C106 1.252 . S
O121 Sm97 2.404 1_445 S
O121 C106 1.272 . S
O122 Sm97 2.548 . S
O122 C107 1.261 . S
O123 Sm97 2.452 . S
O123 C107 1.242 . S
O124 Sm96 2.386 1_655 S
O124 Sm97 2.678 1_545 S
O124 C114 1.271 . S
O125 Sm97 2.460 1_545 S
O125 C114 1.251 . S
O126 Sm97 2.399 . S
O126 C115 1.252 . S
O127 Sm96 2.408 1_665 S
O127 C115 1.272 . S
H128 C100 0.930 . S
H129 C101 0.929 . S
H130 C103 0.930 . S
H131 C104 0.929 . S
H132 C109 0.930 . S
H133 C110 0.929 . S
H134 C112 0.930 . S
H135 C113 0.929 . S
Sm136 C138 2.846 . S
Sm136 O156 2.543 . S
Sm136 O157 2.450 . S
Sm136 O158 2.681 1_545 S
Sm136 O159 2.464 1_545 S
Sm136 O160 2.396 . S
Sm136 O164 2.391 . S
Sm136 O167 2.408 1_544 S
Sm137 C147 2.846 1_545 S
Sm137 O158 2.386 1_546 S
Sm137 O161 2.408 1_556 S
Sm137 O162 2.543 1_545 S
Sm137 O163 2.449 1_545 S
Sm137 O164 2.679 1_556 S
Sm137 O165 2.464 . S
Sm137 O166 2.396 1_545 S
C138 Sm136 2.846 . S
C138 C139 1.506 . S
C138 O156 1.261 . S
C138 O157 1.242 . S
C139 C138 1.506 . S
C139 C140 1.358 . S
C139 C144 1.382 . S
C140 C139 1.358 . S
C140 C141 1.385 . S
C140 H168 0.930 . S
C141 C140 1.385 . S
C141 C142 1.395 . S
C141 H169 0.929 . S
C142 C141 1.395 . S
C142 C143 1.335 . S
C143 C142 1.335 . S
C143 C144 1.398 . S
C143 H170 0.930 . S
C144 C139 1.382 . S
C144 C143 1.398 . S
C144 H171 0.929 . S
C145 O158 1.271 . S
C145 O159 1.251 . S
C146 O160 1.252 . S
C146 O161 1.272 . S
C147 Sm137 2.846 1_565 S
C147 C148 1.506 . S
C147 O162 1.261 . S
C147 O163 1.273 . S
C148 C147 1.506 . S
C148 C149 1.358 . S
C148 C153 1.382 . S
C149 C148 1.358 . S
C149 C150 1.385 . S
C149 H172 0.930 . S
C150 C149 1.385 . S
C150 C151 1.395 . S
C150 H173 0.929 . S
C151 C150 1.395 . S
C151 C152 1.335 . S
C152 C151 1.335 . S
C152 C153 1.398 . S
C152 H174 0.930 . S
C153 C148 1.382 . S
C153 C152 1.398 . S
C153 H175 0.929 . S
C154 O164 1.266 1_556 S
C154 O165 1.251 . S
C155 O166 1.252 . S
C155 O167 1.272 . S
O156 Sm136 2.543 . S
O156 C138 1.261 . S
O157 Sm136 2.450 . S
O157 C138 1.242 . S
O158 Sm136 2.681 1_565 S
O158 Sm137 2.386 1_564 S
O158 C145 1.271 . S
O159 Sm136 2.464 1_565 S
O159 C145 1.251 . S
O160 Sm136 2.396 . S
O160 C146 1.252 . S
O161 Sm137 2.408 1_554 S
O161 C146 1.272 . S
O162 Sm137 2.543 1_565 S
O162 C147 1.261 . S
O163 Sm137 2.449 1_565 S
O163 C147 1.273 . S
O164 Sm136 2.391 . S
O164 Sm137 2.679 1_554 S
O164 C154 1.266 1_554 S
O165 Sm137 2.464 . S
O165 C154 1.251 . S
O166 Sm137 2.396 1_565 S
O166 C155 1.252 . S
O167 Sm136 2.408 1_566 S
O167 C155 1.272 . S
H168 C140 0.930 . S
H169 C141 0.929 . S
H170 C143 0.930 . S
H171 C144 0.929 . S
H172 C149 0.930 . S
H173 C150 0.929 . S
H174 C152 0.930 . S
H175 C153 0.929 . S
Sm176 C178 2.846 . S
Sm176 O196 2.543 . S
Sm176 O197 2.450 . S
Sm176 O198 2.681 . S
Sm176 O199 2.464 . S
Sm176 O200 2.396 . S
Sm176 O204 2.386 . S
Sm176 O207 2.408 . S
Sm177 C187 2.846 . S
Sm177 O198 2.386 . S
Sm177 O201 2.408 . S
Sm177 O202 2.543 . S
Sm177 O203 2.450 . S
Sm177 O204 2.681 . S
Sm177 O205 2.464 . S
Sm177 O206 2.396 . S
C178 Sm176 2.846 . S
C178 C179 1.506 . S
C178 O196 1.261 . S
C178 O197 1.242 . S
C179 C178 1.506 . S
C179 C180 1.358 . S
C179 C184 1.382 . S
C180 C179 1.358 . S
C180 C181 1.385 . S
C180 H208 0.930 . S
C181 C180 1.385 . S
C181 C182 1.395 . S
C181 H209 0.929 . S
C182 C181 1.395 . S
C182 C183 1.335 . S
C183 C182 1.335 . S
C183 C184 1.398 . S
C183 H210 0.930 . S
C184 C179 1.382 . S
C184 C183 1.398 . S
C184 H211 0.929 . S
C185 O198 1.271 . S
C185 O199 1.251 . S
C186 O200 1.252 . S
C186 O201 1.272 . S
C187 Sm177 2.846 . S
C187 C188 1.506 . S
C187 O202 1.261 . S
C187 O203 1.242 . S
C188 C187 1.506 . S
C188 C189 1.358 . S
C188 C193 1.382 . S
C189 C188 1.358 . S
C189 C190 1.385 . S
C189 H212 0.930 . S
C190 C189 1.385 . S
C190 C191 1.395 . S
C190 H213 0.929 . S
C191 C190 1.395 . S
C191 C192 1.335 . S
C192 C191 1.335 . S
C192 C193 1.398 . S
C192 H214 0.930 . S
C193 C188 1.382 . S
C193 C192 1.398 . S
C193 H215 0.929 . S
C194 O204 1.271 . S
C194 O205 1.251 . S
C195 O206 1.252 . S
C195 O207 1.272 . S
O196 Sm176 2.543 . S
O196 C178 1.261 . S
O197 Sm176 2.450 . S
O197 C178 1.242 . S
O198 Sm176 2.681 . S
O198 Sm177 2.386 . S
O198 C185 1.271 . S
O199 Sm176 2.464 . S
O199 C185 1.251 . S
O200 Sm176 2.396 . S
O200 C186 1.252 . S
O201 Sm177 2.408 . S
O201 C186 1.272 . S
O202 Sm177 2.543 . S
O202 C187 1.261 . S
O203 Sm177 2.450 . S
O203 C187 1.242 . S
O204 Sm176 2.386 . S
O204 Sm177 2.681 . S
O204 C194 1.271 . S
O205 Sm177 2.464 . S
O205 C194 1.251 . S
O206 Sm177 2.396 . S
O206 C195 1.252 . S
O207 Sm176 2.408 . S
O207 C195 1.272 . S
H208 C180 0.930 . S
H209 C181 0.929 . S
H210 C183 0.930 . S
H211 C184 0.929 . S
H212 C189 0.930 . S
H213 C190 0.929 . S
H214 C192 0.930 . S
H215 C193 0.929 . S
Sm216 C218 2.846 . S
Sm216 O236 2.543 . S
Sm216 O237 2.450 . S
Sm216 O238 2.681 1_455 S
Sm216 O239 2.464 1_455 S
Sm216 O240 2.396 . S
Sm216 O244 2.386 1_554 S
Sm216 O247 2.408 1_454 S
Sm217 C227 2.846 1_455 S
Sm217 O238 2.386 1_456 S
Sm217 O241 2.408 1_556 S
Sm217 O242 2.543 1_455 S
Sm217 O243 2.450 1_455 S
Sm217 O244 2.681 . S
Sm217 O245 2.464 . S
Sm217 O246 2.396 1_455 S
C218 Sm216 2.846 . S
C218 C219 1.506 . S
C218 O236 1.261 . S
C218 O237 1.242 . S
C219 C218 1.506 . S
C219 C220 1.358 . S
C219 C224 1.382 . S
C220 C219 1.358 . S
C220 C221 1.385 . S
C220 H248 0.930 . S
C221 C220 1.385 . S
C221 C222 1.395 . S
C221 H249 0.929 . S
C222 C221 1.395 . S
C222 C223 1.335 . S
C223 C222 1.335 . S
C223 C224 1.398 . S
C223 H250 0.930 . S
C224 C219 1.382 . S
C224 C223 1.398 . S
C224 H251 0.929 . S
C225 O238 1.271 . S
C225 O239 1.251 . S
C226 O240 1.252 . S
C226 O241 1.272 . S
C227 Sm217 2.846 1_655 S
C227 C228 1.506 . S
C227 O242 1.261 . S
C227 O243 1.242 . S
C228 C227 1.506 . S
C228 C229 1.358 . S
C228 C233 1.382 . S
C229 C228 1.358 . S
C229 C230 1.385 . S
C229 H252 0.930 . S
C230 C229 1.385 . S
C230 C231 1.395 . S
C230 H253 0.929 . S
C231 C230 1.395 . S
C231 C232 1.335 . S
C232 C231 1.335 . S
C232 C233 1.398 . S
C232 H254 0.930 . S
C233 C228 1.382 . S
C233 C232 1.398 . S
C233 H255 0.929 . S
C234 O244 1.271 . S
C234 O245 1.251 . S
C235 O246 1.252 . S
C235 O247 1.272 . S
O236 Sm216 2.543 . S
O236 C218 1.261 . S
O237 Sm216 2.450 . S
O237 C218 1.242 . S
O238 Sm216 2.681 1_655 S
O238 Sm217 2.386 1_654 S
O238 C225 1.271 . S
O239 Sm216 2.464 1_655 S
O239 C225 1.251 . S
O240 Sm216 2.396 . S
O240 C226 1.252 . S
O241 Sm217 2.408 1_554 S
O241 C226 1.272 . S
O242 Sm217 2.543 1_655 S
O242 C227 1.261 . S
O243 Sm217 2.450 1_655 S
O243 C227 1.242 . S
O244 Sm216 2.386 1_556 S
O244 Sm217 2.681 . S
O244 C234 1.271 . S
O245 Sm217 2.464 . S
O245 C234 1.251 . S
O246 Sm217 2.396 1_655 S
O246 C235 1.252 . S
O247 Sm216 2.408 1_656 S
O247 C235 1.272 . S
H248 C220 0.930 . S
H249 C221 0.929 . S
H250 C223 0.930 . S
H251 C224 0.929 . S
H252 C229 0.930 . S
H253 C230 0.929 . S
H254 C232 0.930 . S
H255 C233 0.929 . S
H256 C264 0.950 . S
H257 C269 0.950 . S
H258 C266 0.950 . S
H259 C268 0.950 . S
H260 C270 0.950 . S
H261 C272 0.950 . S
H262 C274 0.950 . S
H263 C275 0.950 . S
C264 H256 0.950 . S
C264 C265 1.386 . S
C264 C266 1.391 . S
C265 C264 1.386 . S
C265 C269 1.393 . S
C266 H258 0.950 . S
C266 C264 1.391 . S
C266 C267 1.400 . S
C267 C266 1.400 . S
C267 C268 1.398 . S
C267 C273 1.491 . S
C268 H259 0.950 . S
C268 C267 1.398 . S
C268 C269 1.391 . S
C269 H257 0.950 . S
C269 C265 1.393 . S
C269 C268 1.391 . S
C270 H260 0.950 . S
C270 C271 1.386 . S
C270 C272 1.391 . S
C271 C270 1.386 . S
C271 C275 1.393 . S
C272 H261 0.950 . S
C272 C270 1.391 . S
C272 C273 1.400 . S
C273 C267 1.491 . S
C273 C272 1.400 . S
C273 C274 1.398 . S
C274 H262 0.950 . S
C274 C273 1.398 . S
C274 C275 1.391 . S
C275 H263 0.950 . S
C275 C271 1.393 . S
C275 C274 1.391 . S
H276 C284 0.950 . S
H277 C289 0.950 . S
H278 C286 0.950 . S
H279 C288 0.950 . S
H280 C290 0.950 . S
H281 C292 0.950 . S
H282 C294 0.950 . S
H283 C295 0.950 . S
C284 H276 0.950 . S
C284 C285 1.386 . S
C284 C286 1.391 . S
C285 C284 1.386 . S
C285 C289 1.393 . S
C286 H278 0.950 . S
C286 C284 1.391 . S
C286 C287 1.400 . S
C287 C286 1.400 . S
C287 C288 1.398 . S
C287 C293 1.491 . S
C288 H279 0.950 . S
C288 C287 1.398 . S
C288 C289 1.391 . S
C289 H277 0.950 . S
C289 C285 1.393 . S
C289 C288 1.391 . S
C290 H280 0.950 . S
C290 C291 1.386 . S
C290 C292 1.391 . S
C291 C290 1.386 . S
C291 C295 1.393 . S
C292 H281 0.950 . S
C292 C290 1.391 . S
C292 C293 1.400 . S
C293 C287 1.491 . S
C293 C292 1.400 . S
C293 C294 1.398 . S
C294 H282 0.950 . S
C294 C293 1.398 . S
C294 C295 1.391 . S
C295 H283 0.950 . S
C295 C291 1.393 . S
C295 C294 1.391 . S
H296 C304 0.950 . S
H297 C309 0.950 . S
H298 C306 0.950 . S
H299 C308 0.950 . S
H300 C310 0.950 . S
H301 C312 0.950 . S
H302 C314 0.950 . S
H303 C315 0.950 . S
C304 H296 0.950 . S
C304 C305 1.386 . S
C304 C306 1.391 . S
C305 C304 1.386 . S
C305 C309 1.393 . S
C306 H298 0.950 . S
C306 C304 1.391 . S
C306 C307 1.400 . S
C307 C306 1.400 . S
C307 C308 1.398 . S
C307 C313 1.491 . S
C308 H299 0.950 . S
C308 C307 1.398 . S
C308 C309 1.391 . S
C309 H297 0.950 . S
C309 C305 1.393 . S
C309 C308 1.391 . S
C310 H300 0.950 . S
C310 C311 1.386 . S
C310 C312 1.391 . S
C311 C310 1.386 . S
C311 C315 1.393 . S
C312 H301 0.950 . S
C312 C310 1.391 . S
C312 C313 1.400 . S
C313 C307 1.491 . S
C313 C312 1.400 . S
C313 C314 1.398 . S
C314 H302 0.950 . S
C314 C313 1.398 . S
C314 C315 1.391 . S
C315 H303 0.950 . S
C315 C311 1.393 . S
C315 C314 1.391 . S
H316 C324 0.950 . S
H317 C329 0.950 . S
H318 C326 0.950 . S
H319 C328 0.950 . S
H320 C330 0.950 . S
H321 C332 0.950 . S
H322 C334 0.950 . S
H323 C335 0.945 1_455 S
C324 H316 0.950 . S
C324 C325 1.386 . S
C324 C326 1.391 . S
C325 C324 1.386 . S
C325 C329 1.393 . S
C326 H318 0.950 . S
C326 C324 1.391 . S
C326 C327 1.400 . S
C327 C326 1.400 . S
C327 C328 1.398 . S
C327 C333 1.491 . S
C328 H319 0.950 . S
C328 C327 1.398 . S
C328 C329 1.391 . S
C329 H317 0.950 . S
C329 C325 1.393 . S
C329 C328 1.391 . S
C330 H320 0.950 . S
C330 C331 1.386 . S
C330 C332 1.391 . S
C331 C330 1.386 . S
C331 C335 1.393 . S
C332 H321 0.950 . S
C332 C330 1.391 . S
C332 C333 1.400 . S
C333 C327 1.491 . S
C333 C332 1.400 . S
C333 C334 1.398 . S
C334 H322 0.950 . S
C334 C333 1.398 . S
C334 C335 1.391 . S
C335 H323 0.945 1_655 S
C335 C331 1.393 . S
C335 C334 1.391 . S
H336 C344 0.950 . S
H337 C349 0.950 . S
H338 C346 0.950 . S
H339 C348 0.950 . S
H340 C350 0.950 . S
H341 C352 0.950 . S
H342 C354 0.950 . S
H343 C355 0.950 . S
C344 H336 0.950 . S
C344 C345 1.386 . S
C344 C346 1.391 . S
C345 C344 1.386 . S
C345 C349 1.393 . S
C346 H338 0.950 . S
C346 C344 1.391 . S
C346 C347 1.400 . S
C347 C346 1.400 . S
C347 C348 1.398 . S
C347 C353 1.491 . S
C348 H339 0.950 . S
C348 C347 1.398 . S
C348 C349 1.391 . S
C349 H337 0.950 . S
C349 C345 1.393 . S
C349 C348 1.391 . S
C350 H340 0.950 . S
C350 C351 1.386 . S
C350 C352 1.391 . S
C351 C350 1.386 . S
C351 C355 1.393 . S
C352 H341 0.950 . S
C352 C350 1.391 . S
C352 C353 1.400 . S
C353 C347 1.491 . S
C353 C352 1.400 . S
C353 C354 1.398 . S
C354 H342 0.950 . S
C354 C353 1.398 . S
C354 C355 1.391 . S
C355 H343 0.950 . S
C355 C351 1.393 . S
C355 C354 1.391 . S
H356 C364 0.950 . S
H357 C369 0.950 . S
H358 C366 0.950 . S
H359 C368 0.950 . S
H360 C370 0.950 . S
H361 C372 0.950 . S
H362 C374 0.950 . S
H363 C375 0.950 . S
C364 H356 0.950 . S
C364 C365 1.386 . S
C364 C366 1.391 . S
C365 C364 1.386 . S
C365 C369 1.393 . S
C366 H358 0.950 . S
C366 C364 1.391 . S
C366 C367 1.400 . S
C367 C366 1.400 . S
C367 C368 1.398 . S
C367 C373 1.491 . S
C368 H359 0.950 . S
C368 C367 1.398 . S
C368 C369 1.391 . S
C369 H357 0.950 . S
C369 C365 1.393 . S
C369 C368 1.391 . S
C370 H360 0.950 . S
C370 C371 1.386 . S
C370 C372 1.391 . S
C371 C370 1.386 . S
C371 C375 1.393 . S
C372 H361 0.950 . S
C372 C370 1.391 . S
C372 C373 1.400 . S
C373 C367 1.491 . S
C373 C372 1.400 . S
C373 C374 1.398 . S
C374 H362 0.950 . S
C374 C373 1.398 . S
C374 C375 1.391 . S
C375 H363 0.950 . S
C375 C371 1.393 . S
C375 C374 1.391 . S
H376 C384 0.950 . S
H377 C389 0.950 . S
H378 C386 0.950 . S
H379 C388 0.950 . S
H380 C390 0.914 1_554 S
H381 C392 0.950 . S
H382 C394 0.950 . S
H383 C395 0.950 . S
C384 H376 0.950 . S
C384 C385 1.386 . S
C384 C386 1.391 . S
C385 C384 1.386 . S
C385 C389 1.393 . S
C386 H378 0.950 . S
C386 C384 1.391 . S
C386 C387 1.400 . S
C387 C386 1.400 . S
C387 C388 1.398 . S
C387 C393 1.491 . S
C388 H379 0.950 . S
C388 C387 1.398 . S
C388 C389 1.391 . S
C389 H377 0.950 . S
C389 C385 1.393 . S
C389 C388 1.391 . S
C390 H380 0.914 1_556 S
C390 C391 1.386 . S
C390 C392 1.391 . S
C391 C390 1.386 . S
C391 C395 1.393 . S
C392 H381 0.950 . S
C392 C390 1.391 . S
C392 C393 1.400 . S
C393 C387 1.491 . S
C393 C392 1.400 . S
C393 C394 1.398 . S
C394 H382 0.950 . S
C394 C393 1.398 . S
C394 C395 1.391 . S
C395 H383 0.950 . S
C395 C391 1.393 . S
C395 C394 1.391 . S
H396 C404 0.950 . S
H397 C409 0.950 . S
H398 C406 0.950 . S
H399 C408 0.950 . S
H400 C410 0.950 . S
H401 C412 0.950 . S
H402 C414 0.950 . S
H403 C415 0.950 . S
C404 H396 0.950 . S
C404 C405 1.386 . S
C404 C406 1.391 . S
C405 C404 1.386 . S
C405 C409 1.393 . S
C406 H398 0.950 . S
C406 C404 1.391 . S
C406 C407 1.400 . S
C407 C406 1.400 . S
C407 C408 1.398 . S
C407 C413 1.491 . S
C408 H399 0.950 . S
C408 C407 1.398 . S
C408 C409 1.391 . S
C409 H397 0.950 . S
C409 C405 1.393 . S
C409 C408 1.391 . S
C410 H400 0.950 . S
C410 C411 1.386 . S
C410 C412 1.391 . S
C411 C410 1.386 . S
C411 C415 1.393 . S
C412 H401 0.950 . S
C412 C410 1.391 . S
C412 C413 1.400 . S
C413 C407 1.491 . S
C413 C412 1.400 . S
C413 C414 1.398 . S
C414 H402 0.950 . S
C414 C413 1.398 . S
C414 C415 1.391 . S
C415 H403 0.950 . S
C415 C411 1.393 . S
C415 C414 1.391 . S
H416 C424 0.950 . S
H417 C429 0.950 . S
H418 C426 0.950 . S
H419 C428 0.950 . S
H420 C430 0.950 . S
H421 C432 0.950 . S
H422 C434 0.950 . S
H423 C435 0.950 . S
C424 H416 0.950 . S
C424 C425 1.386 . S
C424 C426 1.391 . S
C425 C424 1.386 . S
C425 C429 1.393 . S
C426 H418 0.950 . S
C426 C424 1.391 . S
C426 C427 1.400 . S
C427 C426 1.400 . S
C427 C428 1.398 . S
C427 C433 1.491 . S
C428 H419 0.950 . S
C428 C427 1.398 . S
C428 C429 1.391 . S
C429 H417 0.950 . S
C429 C425 1.393 . S
C429 C428 1.391 . S
C430 H420 0.950 . S
C430 C431 1.386 . S
C430 C432 1.391 . S
C431 C430 1.386 . S
C431 C435 1.393 . S
C432 H421 0.950 . S
C432 C430 1.391 . S
C432 C433 1.400 . S
C433 C427 1.491 . S
C433 C432 1.400 . S
C433 C434 1.398 . S
C434 H422 0.950 . S
C434 C433 1.398 . S
C434 C435 1.391 . S
C435 H423 0.950 . S
C435 C431 1.393 . S
C435 C434 1.391 . S
H436 C444 0.950 . S
H437 C449 0.950 . S
H438 C446 0.950 . S
H439 C448 0.950 . S
H440 C450 0.950 . S
H441 C452 0.950 . S
H442 C454 0.950 . S
H443 C455 0.950 . S
C444 H436 0.950 . S
C444 C445 1.386 . S
C444 C446 1.391 . S
C445 C444 1.386 . S
C445 C449 1.393 . S
C446 H438 0.950 . S
C446 C444 1.391 . S
C446 C447 1.400 . S
C447 C446 1.400 . S
C447 C448 1.398 . S
C447 C453 1.491 . S
C448 H439 0.950 . S
C448 C447 1.398 . S
C448 C449 1.391 . S
C449 H437 0.950 . S
C449 C445 1.393 . S
C449 C448 1.391 . S
C450 H440 0.950 . S
C450 C451 1.386 . S
C450 C452 1.391 . S
C451 C450 1.386 . S
C451 C455 1.393 . S
C452 H441 0.950 . S
C452 C450 1.391 . S
C452 C453 1.400 . S
C453 C447 1.491 . S
C453 C452 1.400 . S
C453 C454 1.398 . S
C454 H442 0.950 . S
C454 C453 1.398 . S
C454 C455 1.391 . S
C455 H443 0.950 . S
C455 C451 1.393 . S
C455 C454 1.391 . S
H456 C464 0.950 . S
H457 C469 0.950 . S
H458 C466 0.950 . S
H459 C468 0.950 . S
H460 C470 0.950 . S
H461 C472 0.950 . S
H462 C474 0.950 . S
H463 C475 0.950 . S
C464 H456 0.950 . S
C464 C465 1.386 . S
C464 C466 1.391 . S
C465 C464 1.386 . S
C465 C469 1.393 . S
C466 H458 0.950 . S
C466 C464 1.391 . S
C466 C467 1.400 . S
C467 C466 1.400 . S
C467 C468 1.398 . S
C467 C473 1.491 . S
C468 H459 0.950 . S
C468 C467 1.398 . S
C468 C469 1.391 . S
C469 H457 0.950 . S
C469 C465 1.393 . S
C469 C468 1.391 . S
C470 H460 0.950 . S
C470 C471 1.386 . S
C470 C472 1.391 . S
C471 C470 1.386 . S
C471 C475 1.393 . S
C472 H461 0.950 . S
C472 C470 1.391 . S
C472 C473 1.400 . S
C473 C467 1.491 . S
C473 C472 1.400 . S
C473 C474 1.398 . S
C474 H462 0.950 . S
C474 C473 1.398 . S
C474 C475 1.391 . S
C475 H463 0.950 . S
C475 C471 1.393 . S
C475 C474 1.391 . S
H476 C484 0.950 . S
H477 C489 0.950 . S
H478 C486 0.950 . S
H479 C488 0.950 . S
H480 C490 0.950 . S
H481 C492 0.950 . S
H482 C494 0.950 . S
H483 C495 0.950 . S
C484 H476 0.950 . S
C484 C485 1.386 . S
C484 C486 1.391 . S
C485 C484 1.386 . S
C485 C489 1.393 . S
C486 H478 0.950 . S
C486 C484 1.391 . S
C486 C487 1.400 . S
C487 C486 1.400 . S
C487 C488 1.398 . S
C487 C493 1.491 . S
C488 H479 0.950 . S
C488 C487 1.398 . S
C488 C489 1.391 . S
C489 H477 0.950 . S
C489 C485 1.393 . S
C489 C488 1.391 . S
C490 H480 0.950 . S
C490 C491 1.386 . S
C490 C492 1.391 . S
C491 C490 1.386 . S
C491 C495 1.393 . S
C492 H481 0.950 . S
C492 C490 1.391 . S
C492 C493 1.400 . S
C493 C487 1.491 . S
C493 C492 1.400 . S
C493 C494 1.398 . S
C494 H482 0.950 . S
C494 C493 1.398 . S
C494 C495 1.391 . S
C495 H483 0.950 . S
C495 C491 1.393 . S
C495 C494 1.391 . S
H496 C504 0.950 . S
H497 C509 0.950 . S
H498 C506 0.950 . S
H499 C508 0.950 . S
H500 C510 0.950 . S
H501 C512 0.950 . S
H502 C514 0.950 . S
H503 C515 0.950 . S
C504 H496 0.950 . S
C504 C505 1.386 . S
C504 C506 1.391 . S
C505 C504 1.386 . S
C505 C509 1.393 . S
C506 H498 0.950 . S
C506 C504 1.391 . S
C506 C507 1.400 . S
C507 C506 1.400 . S
C507 C508 1.398 . S
C507 C513 1.491 . S
C508 H499 0.950 . S
C508 C507 1.398 . S
C508 C509 1.391 . S
C509 H497 0.950 . S
C509 C505 1.393 . S
C509 C508 1.391 . S
C510 H500 0.950 . S
C510 C511 1.386 . S
C510 C512 1.391 . S
C511 C510 1.386 . S
C511 C515 1.393 . S
C512 H501 0.950 . S
C512 C510 1.391 . S
C512 C513 1.400 . S
C513 C507 1.491 . S
C513 C512 1.400 . S
C513 C514 1.398 . S
C514 H502 0.950 . S
C514 C513 1.398 . S
C514 C515 1.391 . S
C515 H503 0.950 . S
C515 C511 1.393 . S
C515 C514 1.391 . S
H516 C524 0.950 . S
H517 C529 0.950 . S
H518 C526 0.950 . S
H519 C528 0.950 . S
H520 C530 0.950 . S
H521 C532 0.950 . S
H522 C534 0.950 . S
H523 C535 0.950 . S
C524 H516 0.950 . S
C524 C525 1.386 . S
C524 C526 1.391 . S
C525 C524 1.386 . S
C525 C529 1.393 . S
C526 H518 0.950 . S
C526 C524 1.391 . S
C526 C527 1.400 . S
C527 C526 1.400 . S
C527 C528 1.398 . S
C527 C533 1.491 . S
C528 H519 0.950 . S
C528 C527 1.398 . S
C528 C529 1.391 . S
C529 H517 0.950 . S
C529 C525 1.393 . S
C529 C528 1.391 . S
C530 H520 0.950 . S
C530 C531 1.386 . S
C530 C532 1.391 . S
C531 C530 1.386 . S
C531 C535 1.393 . S
C532 H521 0.950 . S
C532 C530 1.391 . S
C532 C533 1.400 . S
C533 C527 1.491 . S
C533 C532 1.400 . S
C533 C534 1.398 . S
C534 H522 0.950 . S
C534 C533 1.398 . S
C534 C535 1.391 . S
C535 H523 0.950 . S
C535 C531 1.393 . S
C535 C534 1.391 . S
H536 C544 0.950 . S
H537 C549 0.950 . S
H538 C546 0.950 . S
H539 C548 0.950 . S
H540 C550 0.950 . S
H541 C552 0.950 . S
H542 C554 0.950 . S
H543 C555 0.950 . S
C544 H536 0.950 . S
C544 C545 1.386 . S
C544 C546 1.391 . S
C545 C544 1.386 . S
C545 C549 1.393 . S
C546 H538 0.950 . S
C546 C544 1.391 . S
C546 C547 1.400 . S
C547 C546 1.400 . S
C547 C548 1.398 . S
C547 C553 1.491 . S
C548 H539 0.950 . S
C548 C547 1.398 . S
C548 C549 1.391 . S
C549 H537 0.950 . S
C549 C545 1.393 . S
C549 C548 1.391 . S
C550 H540 0.950 . S
C550 C551 1.386 . S
C550 C552 1.391 . S
C551 C550 1.386 . S
C551 C555 1.393 . S
C552 H541 0.950 . S
C552 C550 1.391 . S
C552 C553 1.400 . S
C553 C547 1.491 . S
C553 C552 1.400 . S
C553 C554 1.398 . S
C554 H542 0.950 . S
C554 C553 1.398 . S
C554 C555 1.391 . S
C555 H543 0.950 . S
C555 C551 1.393 . S
C555 C554 1.391 . S
H556 C564 0.950 . S
H557 C569 0.950 . S
H558 C566 0.950 . S
H559 C568 0.950 . S
H560 C570 0.950 . S
H561 C572 0.950 . S
H562 C574 0.950 . S
H563 C575 0.950 . S
C564 H556 0.950 . S
C564 C565 1.386 . S
C564 C566 1.391 . S
C565 C564 1.386 . S
C565 C569 1.393 . S
C566 H558 0.950 . S
C566 C564 1.391 . S
C566 C567 1.400 . S
C567 C566 1.400 . S
C567 C568 1.398 . S
C567 C573 1.491 . S
C568 H559 0.950 . S
C568 C567 1.398 . S
C568 C569 1.391 . S
C569 H557 0.950 . S
C569 C565 1.393 . S
C569 C568 1.391 . S
C570 H560 0.950 . S
C570 C571 1.386 . S
C570 C572 1.391 . S
C571 C570 1.386 . S
C571 C575 1.393 . S
C572 H561 0.950 . S
C572 C570 1.391 . S
C572 C573 1.400 . S
C573 C567 1.491 . S
C573 C572 1.400 . S
C573 C574 1.398 . S
C574 H562 0.950 . S
C574 C573 1.398 . S
C574 C575 1.391 . S
C575 H563 0.950 . S
C575 C571 1.393 . S
C575 C574 1.391 . S
H576 C584 0.950 . S
H577 C589 0.950 . S
H578 C586 0.950 . S
H579 C588 0.950 . S
H580 C590 0.950 . S
H581 C592 0.950 . S
H582 C594 0.950 . S
H583 C595 0.950 . S
C584 H576 0.950 . S
C584 C585 1.386 . S
C584 C586 1.391 . S
C585 C584 1.386 . S
C585 C589 1.393 . S
C586 H578 0.950 . S
C586 C584 1.391 . S
C586 C587 1.400 . S
C587 C586 1.400 . S
C587 C588 1.398 . S
C587 C593 1.491 . S
C588 H579 0.950 . S
C588 C587 1.398 . S
C588 C589 1.391 . S
C589 H577 0.950 . S
C589 C585 1.393 . S
C589 C588 1.391 . S
C590 H580 0.950 . S
C590 C591 1.386 . S
C590 C592 1.391 . S
C591 C590 1.386 . S
C591 C595 1.393 . S
C592 H581 0.950 . S
C592 C590 1.391 . S
C592 C593 1.400 . S
C593 C587 1.491 . S
C593 C592 1.400 . S
C593 C594 1.398 . S
C594 H582 0.950 . S
C594 C593 1.398 . S
C594 C595 1.391 . S
C595 H583 0.950 . S
C595 C591 1.393 . S
C595 C594 1.391 . S
H596 C604 0.950 . S
H597 C609 0.950 . S
H598 C606 0.950 . S
H599 C608 0.950 . S
H600 C610 0.950 . S
H601 C612 0.950 . S
H602 C614 0.950 . S
H603 C615 0.950 . S
C604 H596 0.950 . S
C604 C605 1.386 . S
C604 C606 1.391 . S
C605 C604 1.386 . S
C605 C609 1.393 . S
C606 H598 0.950 . S
C606 C604 1.391 . S
C606 C607 1.400 . S
C607 C606 1.400 . S
C607 C608 1.398 . S
C607 C613 1.491 . S
C608 H599 0.950 . S
C608 C607 1.398 . S
C608 C609 1.391 . S
C609 H597 0.950 . S
C609 C605 1.393 . S
C609 C608 1.391 . S
C610 H600 0.950 . S
C610 C611 1.386 . S
C610 C612 1.391 . S
C611 C610 1.386 . S
C611 C615 1.393 . S
C612 H601 0.950 . S
C612 C610 1.391 . S
C612 C613 1.400 . S
C613 C607 1.491 . S
C613 C612 1.400 . S
C613 C614 1.398 . S
C614 H602 0.950 . S
C614 C613 1.398 . S
C614 C615 1.391 . S
C615 H603 0.950 . S
C615 C611 1.393 . S
C615 C614 1.391 . S
H616 C624 0.950 . S
H617 C629 0.950 . S
H618 C626 0.950 . S
H619 C628 0.950 . S
H620 C630 0.950 . S
H621 C632 0.950 . S
H622 C634 0.950 . S
H623 C635 0.950 . S
C624 H616 0.950 . S
C624 C625 1.386 . S
C624 C626 1.391 . S
C625 C624 1.386 . S
C625 C629 1.393 . S
C626 H618 0.950 . S
C626 C624 1.391 . S
C626 C627 1.400 . S
C627 C626 1.400 . S
C627 C628 1.398 . S
C627 C633 1.491 . S
C628 H619 0.950 . S
C628 C627 1.398 . S
C628 C629 1.391 . S
C629 H617 0.950 . S
C629 C625 1.393 . S
C629 C628 1.391 . S
C630 H620 0.950 . S
C630 C631 1.386 . S
C630 C632 1.391 . S
C631 C630 1.386 . S
C631 C635 1.393 . S
C632 H621 0.950 . S
C632 C630 1.391 . S
C632 C633 1.400 . S
C633 C627 1.491 . S
C633 C632 1.400 . S
C633 C634 1.398 . S
C634 H622 0.950 . S
C634 C633 1.398 . S
C634 C635 1.391 . S
C635 H623 0.950 . S
C635 C631 1.393 . S
C635 C634 1.391 . S
H636 C644 0.950 . S
H637 C649 0.950 . S
H638 C646 0.950 . S
H639 C648 0.950 . S
H640 C650 0.950 . S
H641 C652 0.950 . S
H642 C654 0.950 . S
H643 C655 0.950 . S
C644 H636 0.950 . S
C644 C645 1.386 . S
C644 C646 1.391 . S
C645 C644 1.386 . S
C645 C649 1.393 . S
C646 H638 0.950 . S
C646 C644 1.391 . S
C646 C647 1.400 . S
C647 C646 1.400 . S
C647 C648 1.398 . S
C647 C653 1.491 . S
C648 H639 0.950 . S
C648 C647 1.398 . S
C648 C649 1.391 . S
C649 H637 0.950 . S
C649 C645 1.393 . S
C649 C648 1.391 . S
C650 H640 0.950 . S
C650 C651 1.386 . S
C650 C652 1.391 . S
C651 C650 1.386 . S
C651 C655 1.393 . S
C652 H641 0.950 . S
C652 C650 1.391 . S
C652 C653 1.400 . S
C653 C647 1.491 . S
C653 C652 1.400 . S
C653 C654 1.398 . S
C654 H642 0.950 . S
C654 C653 1.398 . S
C654 C655 1.391 . S
C655 H643 0.950 . S
C655 C651 1.393 . S
C655 C654 1.391 . S
H656 C664 0.950 . S
H657 C669 0.950 . S
H658 C666 0.950 . S
H659 C668 0.950 . S
H660 C670 0.950 . S
H661 C672 0.950 . S
H662 C674 0.950 . S
H663 C675 0.950 . S
C664 H656 0.950 . S
C664 C665 1.386 . S
C664 C666 1.391 . S
C665 C664 1.386 . S
C665 C669 1.393 . S
C666 H658 0.950 . S
C666 C664 1.391 . S
C666 C667 1.400 . S
C667 C666 1.400 . S
C667 C668 1.398 . S
C667 C673 1.491 . S
C668 H659 0.950 . S
C668 C667 1.398 . S
C668 C669 1.391 . S
C669 H657 0.950 . S
C669 C665 1.393 . S
C669 C668 1.391 . S
C670 H660 0.950 . S
C670 C671 1.386 . S
C670 C672 1.391 . S
C671 C670 1.386 . S
C671 C675 1.393 . S
C672 H661 0.950 . S
C672 C670 1.391 . S
C672 C673 1.400 . S
C673 C667 1.491 . S
C673 C672 1.400 . S
C673 C674 1.398 . S
C674 H662 0.950 . S
C674 C673 1.398 . S
C674 C675 1.391 . S
C675 H663 0.950 . S
C675 C671 1.393 . S
C675 C674 1.391 . S
H676 C684 0.950 . S
H677 C689 0.950 . S
H678 C686 0.950 . S
H679 C688 0.950 . S
H680 C690 0.950 . S
H681 C692 0.950 . S
H682 C694 0.950 . S
H683 C695 0.950 . S
C684 H676 0.950 . S
C684 C685 1.386 . S
C684 C686 1.391 . S
C685 C684 1.386 . S
C685 C689 1.393 . S
C686 H678 0.950 . S
C686 C684 1.391 . S
C686 C687 1.400 . S
C687 C686 1.400 . S
C687 C688 1.398 . S
C687 C693 1.491 . S
C688 H679 0.950 . S
C688 C687 1.398 . S
C688 C689 1.391 . S
C689 H677 0.950 . S
C689 C685 1.393 . S
C689 C688 1.391 . S
C690 H680 0.950 . S
C690 C691 1.386 . S
C690 C692 1.391 . S
C691 C690 1.386 . S
C691 C695 1.393 . S
C692 H681 0.950 . S
C692 C690 1.391 . S
C692 C693 1.400 . S
C693 C687 1.491 . S
C693 C692 1.400 . S
C693 C694 1.398 . S
C694 H682 0.950 . S
C694 C693 1.398 . S
C694 C695 1.391 . S
C695 H683 0.950 . S
C695 C691 1.393 . S
C695 C694 1.391 . S
H696 C704 0.950 . S
H697 C709 0.950 . S
H698 C706 0.950 . S
H699 C708 0.950 . S
H700 C710 0.950 . S
H701 C712 0.950 . S
H702 C714 0.950 . S
H703 C715 0.950 . S
C704 H696 0.950 . S
C704 C705 1.386 . S
C704 C706 1.391 . S
C705 C704 1.386 . S
C705 C709 1.393 . S
C706 H698 0.950 . S
C706 C704 1.391 . S
C706 C707 1.400 . S
C707 C706 1.400 . S
C707 C708 1.398 . S
C707 C713 1.491 . S
C708 H699 0.950 . S
C708 C707 1.398 . S
C708 C709 1.391 . S
C709 H697 0.950 . S
C709 C705 1.393 . S
C709 C708 1.391 . S
C710 H700 0.950 . S
C710 C711 1.386 . S
C710 C712 1.391 . S
C711 C710 1.386 . S
C711 C715 1.393 . S
C712 H701 0.950 . S
C712 C710 1.391 . S
C712 C713 1.400 . S
C713 C707 1.491 . S
C713 C712 1.400 . S
C713 C714 1.398 . S
C714 H702 0.950 . S
C714 C713 1.398 . S
C714 C715 1.391 . S
C715 H703 0.950 . S
C715 C711 1.393 . S
C715 C714 1.391 . S
H716 C724 0.950 . S
H717 C729 0.950 . S
H718 C726 0.950 . S
H719 C728 0.950 . S
H720 C730 0.950 . S
H721 C732 0.950 . S
H722 C734 0.950 . S
H723 C735 0.950 . S
C724 H716 0.950 . S
C724 C725 1.386 . S
C724 C726 1.391 . S
C725 C724 1.386 . S
C725 C729 1.393 . S
C726 H718 0.950 . S
C726 C724 1.391 . S
C726 C727 1.400 . S
C727 C726 1.400 . S
C727 C728 1.398 . S
C727 C733 1.491 . S
C728 H719 0.950 . S
C728 C727 1.398 . S
C728 C729 1.391 . S
C729 H717 0.950 . S
C729 C725 1.393 . S
C729 C728 1.391 . S
C730 H720 0.950 . S
C730 C731 1.386 . S
C730 C732 1.391 . S
C731 C730 1.386 . S
C731 C735 1.393 . S
C732 H721 0.950 . S
C732 C730 1.391 . S
C732 C733 1.400 . S
C733 C727 1.491 . S
C733 C732 1.400 . S
C733 C734 1.398 . S
C734 H722 0.950 . S
C734 C733 1.398 . S
C734 C735 1.391 . S
C735 H723 0.950 . S
C735 C731 1.393 . S
C735 C734 1.391 . S
C265 C6 1.058 . S
C271 C102 1.067 . S
C285 C18 1.256 . S
C291 C151 1.247 . S
C311 C186 2.582 . S
C305 C28 2.627 . S
C325 C40 1.796 . S
C331 C225 1.756 . S
C351 C146 2.344 . S
C345 C9 2.242 . S
C371 C105 0.845 . S
C365 C16 0.839 . S
C391 C235 1.887 . S
C385 C30 1.921 . S
C411 C194 1.288 . S
C405 C42 1.324 . S
C425 C4 1.458 . S
C431 C222 1.495 . S
C451 C154 2.499 . S
C445 C33 2.586 . S
C465 C45 2.077 . S
C471 C115 2.062 . S
C485 C21 1.013 . S
C491 C191 1.039 . S
C511 C111 1.080 . S
C505 C57 1.086 . S
C525 C66 1.273 . S
C531 C142 1.258 . S
C545 C76 2.678 . S
C551 C195 2.620 . S
C565 C88 1.730 . S
C571 C234 1.691 . S
C585 C54 2.217 . S
C591 C155 2.329 . S
C611 C114 0.921 . S
C605 C64 0.964 . S
C631 C226 1.791 . S
C625 C78 1.842 . S
C651 C185 1.331 . S
C645 C93 1.364 . S
C665 C52 1.416 . S
C671 C231 1.495 . S
C691 C145 2.491 . S
C685 C81 2.577 . S
C711 C106 2.044 . S
C705 C90 2.055 . S
C725 C69 1.031 . S
C731 C182 1.038 . S
