# Generated by pormake.
# Topology ctn, (3,4)-cn, num edge types: 1
# Building blocks:
#     Node 0, Type 0, BuildingBlock: BETDIP_clean_linker_0, # of connection points: 3
#     Node 1, Type 0, BuildingBlock: BETDIP_clean_linker_0, # of connection points: 3
#     Node 2, Type 0, BuildingBlock: BETDIP_clean_linker_0, # of connection points: 3
#     Node 3, Type 0, BuildingBlock: BETDIP_clean_linker_0, # of connection points: 3
#     Node 4, Type 0, BuildingBlock: BETDIP_clean_linker_0, # of connection points: 3
#     Node 5, Type 0, BuildingBlock: BETDIP_clean_linker_0, # of connection points: 3
#     Node 6, Type 0, BuildingBlock: BETDIP_clean_linker_0, # of connection points: 3
#     Node 7, Type 0, BuildingBlock: BETDIP_clean_linker_0, # of connection points: 3
#     Node 8, Type 0, BuildingBlock: BETDIP_clean_linker_0, # of connection points: 3
#     Node 9, Type 0, BuildingBlock: BETDIP_clean_linker_0, # of connection points: 3
#     Node 10, Type 0, BuildingBlock: BETDIP_clean_linker_0, # of connection points: 3
#     Node 11, Type 0, BuildingBlock: BETDIP_clean_linker_0, # of connection points: 3
#     Node 12, Type 0, BuildingBlock: BETDIP_clean_linker_0, # of connection points: 3
#     Node 13, Type 0, BuildingBlock: BETDIP_clean_linker_0, # of connection points: 3
#     Node 14, Type 0, BuildingBlock: BETDIP_clean_linker_0, # of connection points: 3
#     Node 15, Type 0, BuildingBlock: BETDIP_clean_linker_0, # of connection points: 3
#     Node 16, Type 1, BuildingBlock: QUQFOY_clean_sbu_1, # of connection points: 4
#     Node 17, Type 1, BuildingBlock: QUQFOY_clean_sbu_1, # of connection points: 4
#     Node 18, Type 1, BuildingBlock: QUQFOY_clean_sbu_1, # of connection points: 4
#     Node 19, Type 1, BuildingBlock: QUQFOY_clean_sbu_1, # of connection points: 4
#     Node 20, Type 1, BuildingBlock: QUQFOY_clean_sbu_1, # of connection points: 4
#     Node 21, Type 1, BuildingBlock: QUQFOY_clean_sbu_1, # of connection points: 4
#     Node 22, Type 1, BuildingBlock: QUQFOY_clean_sbu_1, # of connection points: 4
#     Node 23, Type 1, BuildingBlock: QUQFOY_clean_sbu_1, # of connection points: 4
#     Node 24, Type 1, BuildingBlock: QUQFOY_clean_sbu_1, # of connection points: 4
#     Node 25, Type 1, BuildingBlock: QUQFOY_clean_sbu_1, # of connection points: 4
#     Node 26, Type 1, BuildingBlock: QUQFOY_clean_sbu_1, # of connection points: 4
#     Node 27, Type 1, BuildingBlock: QUQFOY_clean_sbu_1, # of connection points: 4
#     Edge 28, Type (0, 1), BuildingBlock: XIVTED_clean_linker_0, # of connection points: 2
#     Edge 29, Type (0, 1), BuildingBlock: XIVTED_clean_linker_0, # of connection points: 2
#     Edge 30, Type (0, 1), BuildingBlock: XIVTED_clean_linker_0, # of connection points: 2
#     Edge 31, Type (0, 1), BuildingBlock: XIVTED_clean_linker_0, # of connection points: 2
#     Edge 32, Type (0, 1), BuildingBlock: XIVTED_clean_linker_0, # of connection points: 2
#     Edge 33, Type (0, 1), BuildingBlock: XIVTED_clean_linker_0, # of connection points: 2
#     Edge 34, Type (0, 1), BuildingBlock: XIVTED_clean_linker_0, # of connection points: 2
#     Edge 35, Type (0, 1), BuildingBlock: XIVTED_clean_linker_0, # of connection points: 2
#     Edge 36, Type (0, 1), BuildingBlock: XIVTED_clean_linker_0, # of connection points: 2
#     Edge 37, Type (0, 1), BuildingBlock: XIVTED_clean_linker_0, # of connection points: 2
#     Edge 38, Type (0, 1), BuildingBlock: XIVTED_clean_linker_0, # of connection points: 2
#     Edge 39, Type (0, 1), BuildingBlock: XIVTED_clean_linker_0, # of connection points: 2
#     Edge 40, Type (0, 1), BuildingBlock: XIVTED_clean_linker_0, # of connection points: 2
#     Edge 41, Type (0, 1), BuildingBlock: XIVTED_clean_linker_0, # of connection points: 2
#     Edge 42, Type (0, 1), BuildingBlock: XIVTED_clean_linker_0, # of connection points: 2
#     Edge 43, Type (0, 1), BuildingBlock: XIVTED_clean_linker_0, # of connection points: 2
#     Edge 44, Type (0, 1), BuildingBlock: XIVTED_clean_linker_0, # of connection points: 2
#     Edge 45, Type (0, 1), BuildingBlock: XIVTED_clean_linker_0, # of connection points: 2
#     Edge 46, Type (0, 1), BuildingBlock: XIVTED_clean_linker_0, # of connection points: 2
#     Edge 47, Type (0, 1), BuildingBlock: XIVTED_clean_linker_0, # of connection points: 2
#     Edge 48, Type (0, 1), BuildingBlock: XIVTED_clean_linker_0, # of connection points: 2
#     Edge 49, Type (0, 1), BuildingBlock: XIVTED_clean_linker_0, # of connection points: 2
#     Edge 50, Type (0, 1), BuildingBlock: XIVTED_clean_linker_0, # of connection points: 2
#     Edge 51, Type (0, 1), BuildingBlock: XIVTED_clean_linker_0, # of connection points: 2
#     Edge 52, Type (0, 1), BuildingBlock: XIVTED_clean_linker_0, # of connection points: 2
#     Edge 53, Type (0, 1), BuildingBlock: XIVTED_clean_linker_0, # of connection points: 2
#     Edge 54, Type (0, 1), BuildingBlock: XIVTED_clean_linker_0, # of connection points: 2
#     Edge 55, Type (0, 1), BuildingBlock: XIVTED_clean_linker_0, # of connection points: 2
#     Edge 56, Type (0, 1), BuildingBlock: XIVTED_clean_linker_0, # of connection points: 2
#     Edge 57, Type (0, 1), BuildingBlock: XIVTED_clean_linker_0, # of connection points: 2
#     Edge 58, Type (0, 1), BuildingBlock: XIVTED_clean_linker_0, # of connection points: 2
#     Edge 59, Type (0, 1), BuildingBlock: XIVTED_clean_linker_0, # of connection points: 2
#     Edge 60, Type (0, 1), BuildingBlock: XIVTED_clean_linker_0, # of connection points: 2
#     Edge 61, Type (0, 1), BuildingBlock: XIVTED_clean_linker_0, # of connection points: 2
#     Edge 62, Type (0, 1), BuildingBlock: XIVTED_clean_linker_0, # of connection points: 2
#     Edge 63, Type (0, 1), BuildingBlock: XIVTED_clean_linker_0, # of connection points: 2
#     Edge 64, Type (0, 1), BuildingBlock: XIVTED_clean_linker_0, # of connection points: 2
#     Edge 65, Type (0, 1), BuildingBlock: XIVTED_clean_linker_0, # of connection points: 2
#     Edge 66, Type (0, 1), BuildingBlock: XIVTED_clean_linker_0, # of connection points: 2
#     Edge 67, Type (0, 1), BuildingBlock: XIVTED_clean_linker_0, # of connection points: 2
#     Edge 68, Type (0, 1), BuildingBlock: XIVTED_clean_linker_0, # of connection points: 2
#     Edge 69, Type (0, 1), BuildingBlock: XIVTED_clean_linker_0, # of connection points: 2
#     Edge 70, Type (0, 1), BuildingBlock: XIVTED_clean_linker_0, # of connection points: 2
#     Edge 71, Type (0, 1), BuildingBlock: XIVTED_clean_linker_0, # of connection points: 2
#     Edge 72, Type (0, 1), BuildingBlock: XIVTED_clean_linker_0, # of connection points: 2
#     Edge 73, Type (0, 1), BuildingBlock: XIVTED_clean_linker_0, # of connection points: 2
#     Edge 74, Type (0, 1), BuildingBlock: XIVTED_clean_linker_0, # of connection points: 2
#     Edge 75, Type (0, 1), BuildingBlock: XIVTED_clean_linker_0, # of connection points: 2
# Relax obj value: 0.095
# Max RMSD: 0.194
# Mean RMSD: 0.141
data_MOF--net-ctn--node1-QUQFOY_clean_sbu_1--node2-BETDIP_clean_linker_0--edge1-XIVTED_clean_linker_0
_symmetry_space_group_name_H-M    P1
_symmetry_Int_Tables_number       1
_symmetry_cell_setting            triclinic
loop_
_symmetry_equiv_pos_as_xyz
'x, y, z'
_cell_length_a     52.527732
_cell_length_b     52.626289
_cell_length_c     58.340197
_cell_angle_alpha  96.702895
_cell_angle_beta   93.887076
_cell_angle_gamma 97.75634
loop_
_atom_site_label
_atom_site_type_symbol
_atom_site_fract_x
_atom_site_fract_y
_atom_site_fract_z
_atom_type_partial_charge
H0 H 0.9958 0.07826 0.08645 0.0
H1 H 0.05488 0.05284 0.04583 0.0
H2 H 0.02866 0.0102 0.10019 0.0
H3 H 0.06304 0.09647 0.0426 0.0
C4 C 0.04325 0.09959 0.03875 0.0
C5 C 0.00945 0.06488 0.08295 0.0
C6 C 0.01035 0.04394 0.09579 0.0
C7 C 0.02575 0.06848 0.06523 0.0
C8 C 0.04272 0.0506 0.05991 0.0
C9 C 0.04375 0.02941 0.07234 0.0
C10 C 0.02779 0.02643 0.09047 0.0
N11 N 0.02355 0.08925 0.05202 0.0
H12 H 0.28108 0.7122 0.21235 0.0
H13 H 0.35084 0.76575 0.22872 0.0
H14 H 0.33764 0.69888 0.26473 0.0
H15 H 0.31966 0.79367 0.21745 0.0
C16 C 0.3119 0.7816 0.20145 0.0
C17 C 0.29956 0.71775 0.22235 0.0
C18 C 0.30723 0.70297 0.23941 0.0
C19 C 0.31498 0.74043 0.21862 0.0
C20 C 0.33878 0.74829 0.23173 0.0
C21 C 0.34708 0.73342 0.24855 0.0
C22 C 0.33117 0.71078 0.25219 0.0
N23 N 0.30632 0.7544 0.20099 0.0
H24 H 0.91508 0.47933 0.03284 0.0
H25 H 0.96415 0.45474 0.085 0.0
H26 H 0.94319 0.53077 0.09516 0.0
H27 H 0.95306 0.41621 0.06734 0.0
C28 C 0.94624 0.41747 0.04961 0.0
C29 C 0.92549 0.48324 0.04983 0.0
C30 C 0.92755 0.50785 0.06284 0.0
C31 C 0.93775 0.46363 0.05798 0.0
C32 C 0.95299 0.46889 0.07918 0.0
C33 C 0.95524 0.49315 0.09254 0.0
C34 C 0.94201 0.5123 0.0845 0.0
N35 N 0.93586 0.4396 0.04353 0.0
H36 H 0.77075 0.70484 0.22568 0.0
H37 H 0.78048 0.77088 0.27814 0.0
H38 H 0.7743 0.78122 0.20603 0.0
H39 H 0.77926 0.71607 0.30728 0.0
C40 C 0.7683 0.72414 0.29416 0.0
C41 C 0.77232 0.72557 0.2304 0.0
C42 C 0.77214 0.74192 0.2131 0.0
C43 C 0.77414 0.73581 0.25385 0.0
C44 C 0.77739 0.76283 0.26006 0.0
C45 C 0.77798 0.77944 0.24283 0.0
C46 C 0.77432 0.76864 0.21948 0.0
N47 N 0.77401 0.71847 0.27078 0.0
H48 H 0.04397 0.95167 0.43319 0.0
H49 H 0.11678 0.98056 0.4719 0.0
H50 H 0.08513 0.02528 0.42297 0.0
H51 H 0.11518 0.93943 0.4807 0.0
C52 C 0.09467 0.93469 0.48232 0.0
C53 C 0.06084 0.96629 0.43687 0.0
C54 C 0.06233 0.9888 0.42602 0.0
C55 C 0.08036 0.96303 0.45337 0.0
C56 C 0.10192 0.98232 0.45864 0.0
C57 C 0.10376 0.00481 0.44771 0.0
C58 C 0.08382 0.00798 0.43151 0.0
N59 N 0.07636 0.94148 0.46591 0.0
H60 H 0.23941 0.79741 0.8072 0.0
H61 H 0.27921 0.74393 0.7675 0.0
H62 H 0.28877 0.75213 0.84178 0.0
H63 H 0.24847 0.74521 0.74032 0.0
C64 C 0.24064 0.76325 0.74325 0.0
C65 C 0.25294 0.78357 0.80672 0.0
C66 C 0.26333 0.77624 0.82737 0.0
C67 C 0.25841 0.77202 0.78514 0.0
C68 C 0.27499 0.75315 0.78407 0.0
C69 C 0.28565 0.7455 0.80448 0.0
C70 C 0.28006 0.75749 0.82602 0.0
N71 N 0.24563 0.77895 0.76503 0.0
H72 H 0.95948 0.64154 0.45979 0.0
H73 H 0.92095 0.56532 0.43315 0.0
H74 H 0.91146 0.59738 0.50235 0.0
H75 H 0.93201 0.57467 0.39953 0.0
C76 C 0.94963 0.58836 0.40285 0.0
C77 C 0.94644 0.62436 0.46197 0.0
C78 C 0.93618 0.62189 0.48336 0.0
C79 C 0.94098 0.60426 0.4436 0.0
C80 C 0.92481 0.58152 0.44669 0.0
C81 C 0.91417 0.57899 0.46784 0.0
C82 C 0.91993 0.5992 0.48607 0.0
N83 N 0.95374 0.60675 0.42307 0.0
H84 H 0.82383 0.89924 0.80717 0.0
H85 H 0.86877 0.85233 0.84372 0.0
H86 H 0.79602 0.86849 0.86752 0.0
H87 H 0.90215 0.88658 0.8287 0.0
C88 C 0.89308 0.87861 0.81161 0.0
C89 C 0.82613 0.88796 0.82138 0.0
C90 C 0.8075 0.88594 0.83748 0.0
C91 C 0.84832 0.87628 0.82383 0.0
C92 C 0.85171 0.86171 0.84216 0.0
C93 C 0.8328 0.85843 0.85792 0.0
C94 C 0.81091 0.87103 0.85567 0.0
N95 N 0.86616 0.87785 0.80672 0.0
H96 H 0.2995 0.37183 0.30308 0.0
H97 H 0.33893 0.32474 0.34457 0.0
H98 H 0.26662 0.34636 0.36363 0.0
H99 H 0.35857 0.31508 0.31402 0.0
C100 C 0.35873 0.33067 0.3034 0.0
C101 C 0.30015 0.36101 0.31777 0.0
C102 C 0.28065 0.3611 0.33313 0.0
C103 C 0.32085 0.34738 0.32131 0.0
C104 C 0.32236 0.33413 0.3408 0.0
C105 C 0.30278 0.33337 0.35605 0.0
C106 C 0.28201 0.34706 0.35216 0.0
N107 N 0.33988 0.34768 0.30506 0.0
H108 H 0.49247 0.02972 0.51105 0.0
H109 H 0.54059 0.00356 0.56296 0.0
H110 H 0.49272 0.06085 0.5829 0.0
H111 H 0.53167 0.9668 0.53971 0.0
C112 C 0.53275 0.97258 0.52249 0.0
C113 C 0.49933 0.03062 0.5291 0.0
C114 C 0.4902 0.04748 0.54622 0.0
C115 C 0.51686 0.01422 0.53508 0.0
C116 C 0.52659 0.01574 0.55827 0.0
C117 C 0.51808 0.03252 0.57566 0.0
C118 C 0.49975 0.04824 0.5695 0.0
N119 N 0.52396 0.99593 0.51759 0.0
H120 H 0.23101 0.24974 0.73675 0.0
H121 H 0.25376 0.32355 0.77859 0.0
H122 H 0.27 0.31351 0.70725 0.0
H123 H 0.24627 0.30139 0.80814 0.0
C124 C 0.23005 0.28674 0.80152 0.0
C125 C 0.24035 0.26963 0.73871 0.0
C126 C 0.25079 0.27992 0.71975 0.0
C127 C 0.24117 0.28518 0.76007 0.0
C128 C 0.25304 0.31119 0.76235 0.0
C129 C 0.264 0.32147 0.74348 0.0
C130 C 0.26237 0.30571 0.72219 0.0
N131 N 0.22836 0.27461 0.77828 0.0
H132 H 0.74765 0.24533 0.72488 0.0
H133 H 0.82629 0.28141 0.72705 0.0
H134 H 0.80654 0.2199 0.76792 0.0
H135 H 0.80308 0.31664 0.71728 0.0
C136 C 0.79072 0.30454 0.70339 0.0
C137 C 0.76758 0.2468 0.73169 0.0
C138 C 0.77472 0.23043 0.7476 0.0
C139 C 0.7859 0.26542 0.72451 0.0
C140 C 0.81188 0.26765 0.73314 0.0
C141 C 0.81947 0.25104 0.74867 0.0
C142 C 0.80073 0.23271 0.75592 0.0
N143 N 0.77787 0.2801 0.70718 0.0
H144 H 0.53387 0.60482 0.5775 0.0
H145 H 0.59389 0.57873 0.53865 0.0
H146 H 0.56855 0.53925 0.5952 0.0
H147 H 0.6029 0.62135 0.53479 0.0
C148 C 0.58352 0.62574 0.53114 0.0
C149 C 0.54793 0.59171 0.57481 0.0
C150 C 0.5488 0.57128 0.58826 0.0
C151 C 0.56483 0.59509 0.55749 0.0
C152 C 0.58219 0.57734 0.55312 0.0
C153 C 0.58376 0.55708 0.56662 0.0
C154 C 0.56714 0.55441 0.58432 0.0
N155 N 0.56316 0.61564 0.54389 0.0
H156 H 0.54557 0.47133 0.93672 0.0
H157 H 0.61852 0.49866 0.97595 0.0
H158 H 0.59661 0.5342 0.91649 0.0
H159 H 0.61172 0.46056 0.99033 0.0
C160 C 0.59096 0.45738 0.99111 0.0
C161 C 0.56391 0.48395 0.93908 0.0
C162 C 0.56919 0.50281 0.92428 0.0
C163 C 0.58161 0.48207 0.95766 0.0
C164 C 0.60494 0.49921 0.96129 0.0
C165 C 0.61057 0.51778 0.94624 0.0
C166 C 0.59266 0.51941 0.92777 0.0
N167 N 0.57431 0.46429 0.97338 0.0
H168 H 0.72132 0.27343 0.29835 0.0
H169 H 0.7488 0.21015 0.2591 0.0
H170 H 0.7623 0.22158 0.33332 0.0
H171 H 0.71662 0.2157 0.23308 0.0
C172 C 0.71396 0.2359 0.23546 0.0
C173 C 0.73178 0.25702 0.298 0.0
C174 C 0.7413 0.24921 0.31874 0.0
C175 C 0.7343 0.24314 0.27656 0.0
C176 C 0.74681 0.22108 0.27562 0.0
C177 C 0.75657 0.21293 0.29616 0.0
C178 C 0.75403 0.22733 0.31755 0.0
N179 N 0.72324 0.25175 0.25652 0.0
H180 H 0.45604 0.1264 0.96333 0.0
H181 H 0.41135 0.05081 0.95178 0.0
H182 H 0.39435 0.107 0.00595 0.0
H183 H 0.42712 0.04987 0.91613 0.0
C184 C 0.44668 0.05964 0.9207 0.0
C185 C 0.44012 0.11287 0.96754 0.0
C186 C 0.42544 0.11992 0.98585 0.0
C187 C 0.43493 0.08825 0.95492 0.0
C188 C 0.41495 0.07027 0.96082 0.0
C189 C 0.40008 0.07704 0.97909 0.0
C190 C 0.40511 0.10205 0.99126 0.0
N191 N 0.45168 0.08156 0.93785 0.0
O192 O 0.24247 0.85781 -0.00252 0.0
Cd193 Cd 0.25346 0.88161 0.02812 0.0
Cd194 Cd 0.21593 0.90848 0.01101 0.0
O195 O 0.21389 0.8801 0.98316 0.0
O196 O 0.27624 0.86115 0.04457 0.0
O197 O 0.24146 0.87372 0.05902 0.0
C198 C 0.26125 0.86176 0.06112 0.0
C199 C 0.1777 0.92218 0.02244 0.0
C200 C 0.22659 0.86118 0.98109 0.0
C201 C 0.2702 0.93635 0.01968 0.0
O202 O 0.24674 0.93746 0.01361 0.0
O203 O 0.27694 0.91576 0.02597 0.0
O204 O 0.18641 0.92662 0.00299 0.0
O205 O 0.19043 0.90921 0.03547 0.0
O206 O 0.17022 0.5554 0.29216 0.0
Cd207 Cd 0.1435 0.52586 0.30039 0.0
Cd208 Cd 0.11434 0.54298 0.26323 0.0
O209 O 0.15082 0.55937 0.2583 0.0
O210 O 0.16334 0.50901 0.323 0.0
O211 O 0.14784 0.48937 0.28829 0.0
C212 C 0.16087 0.48883 0.30778 0.0
C213 C 0.08621 0.5318 0.22974 0.0
C214 C 0.17037 0.56452 0.27292 0.0
C215 C 0.09587 0.5488 0.31091 0.0
O216 O 0.09624 0.55682 0.29125 0.0
O217 O 0.11148 0.53389 0.31697 0.0
O218 O 0.09429 0.55549 0.23788 0.0
O219 O 0.09453 0.514 0.24043 0.0
O220 O 0.80989 0.72861 0.98472 0.0
Cd221 Cd 0.79531 0.70043 0.00426 0.0
Cd222 Cd 0.8213 0.67125 0.97582 0.0
O223 O 0.83217 0.70497 0.9621 0.0
O224 O 0.7798 0.71904 0.03016 0.0
O225 O 0.81149 0.69611 0.03561 0.0
C226 C 0.79494 0.70973 0.04426 0.0
C227 C 0.84969 0.64741 0.99258 0.0
C228 C 0.82449 0.72646 0.96826 0.0
C229 C 0.76507 0.65422 0.97424 0.0
O230 O 0.78568 0.65063 0.96502 0.0
O231 O 0.76509 0.67282 0.99017 0.0
O232 O 0.84592 0.64614 0.97035 0.0
O233 O 0.83856 0.66366 0.00534 0.0
O234 O 0.9168 0.00262 0.29235 0.0
Cd235 Cd 0.88975 0.00307 0.26509 0.0
Cd236 Cd 0.86285 0.01779 0.30131 0.0
O237 O 0.89688 0.01922 0.32135 0.0
O238 O 0.90898 0.99151 0.23853 0.0
O239 O 0.89595 0.02975 0.24278 0.0
C240 C 0.90768 0.01331 0.23097 0.0
C241 C 0.84395 0.0548 0.29881 0.0
C242 C 0.91653 0.01056 0.31374 0.0
C243 C 0.84176 0.96781 0.27392 0.0
O244 O 0.84059 0.98208 0.29282 0.0
O245 O 0.85859 0.97419 0.26019 0.0
O246 O 0.84152 0.04212 0.3164 0.0
O247 O 0.85746 0.04644 0.28256 0.0
O248 O 0.29031 0.2216 0.49737 0.0
Cd249 Cd 0.27783 0.19521 0.51906 0.0
Cd250 Cd 0.31078 0.16608 0.49615 0.0
O251 O 0.3145 0.19731 0.4776 0.0
O252 O 0.25829 0.21453 0.54137 0.0
O253 O 0.29236 0.19693 0.55219 0.0
C254 C 0.27376 0.20954 0.5578 0.0
C255 C 0.34779 0.14847 0.50643 0.0
C256 C 0.30472 0.21813 0.481 0.0
C257 C 0.25494 0.1432 0.49416 0.0
O258 O 0.27757 0.13975 0.48947 0.0
O259 O 0.25096 0.16432 0.50521 0.0
O260 O 0.33754 0.14521 0.48542 0.0
O261 O 0.33734 0.16247 0.5218 0.0
O262 O 0.44207 0.52469 0.77946 0.0
Cd263 Cd 0.41789 0.52708 0.75074 0.0
Cd264 Cd 0.3896 0.54815 0.78401 0.0
O265 O 0.42125 0.54516 0.80574 0.0
O266 O 0.43815 0.51555 0.72494 0.0
O267 O 0.4268 0.55457 0.72983 0.0
C268 C 0.43844 0.53795 0.71813 0.0
C269 C 0.37338 0.58733 0.78759 0.0
C270 C 0.44023 0.53379 0.80032 0.0
C271 C 0.36579 0.49797 0.75667 0.0
O272 O 0.36392 0.51485 0.77366 0.0
O273 O 0.38513 0.5003 0.74475 0.0
O274 O 0.36981 0.57135 0.8026 0.0
O275 O 0.38632 0.58102 0.77025 0.0
O276 O 0.75011 0.35457 0.48419 0.0
Cd277 Cd 0.76529 0.38056 0.51271 0.0
Cd278 Cd 0.73051 0.40819 0.49556 0.0
O279 O 0.72059 0.37654 0.47098 0.0
O280 O 0.78241 0.35969 0.53361 0.0
O281 O 0.75038 0.38104 0.54354 0.0
C282 C 0.76701 0.36622 0.54883 0.0
C283 C 0.69897 0.43075 0.51077 0.0
C284 C 0.73202 0.35671 0.46924 0.0
C285 C 0.78704 0.42991 0.49738 0.0
O286 O 0.76378 0.43175 0.49132 0.0
O287 O 0.79254 0.41088 0.5073 0.0
O288 O 0.7047 0.43141 0.48973 0.0
O289 O 0.71028 0.41605 0.52313 0.0
O290 O 0.66486 0.06828 0.80687 0.0
Cd291 Cd 0.64708 0.03335 0.8145 0.0
Cd292 Cd 0.60939 0.04023 0.77638 0.0
O293 O 0.63604 0.0732 0.77897 0.0
O294 O 0.6729 0.02008 0.83474 0.0
O295 O 0.658 0.00046 0.79983 0.0
C296 C 0.67291 0.0012 0.81853 0.0
C297 C 0.5883 0.03085 0.73913 0.0
C298 C 0.65691 0.08129 0.79154 0.0
C299 C 0.59141 0.0314 0.82396 0.0
O300 O 0.58621 0.03297 0.80264 0.0
O301 O 0.61453 0.03233 0.83229 0.0
O302 O 0.58309 0.04924 0.75376 0.0
O303 O 0.60525 0.01702 0.74575 0.0
O304 O 0.97892 0.27066 0.91676 0.0
Cd305 Cd 0.99004 0.24083 0.89549 0.0
Cd306 Cd 0.02206 0.27816 0.88348 0.0
O307 O 0.01471 0.29706 0.91481 0.0
O308 O 0.97724 0.20925 0.90927 0.0
O309 O 0.01872 0.22345 0.90803 0.0
C310 C 0.001 0.20711 0.91474 0.0
C311 C 0.0644 0.27679 0.87474 0.0
C312 C 0.9938 0.2915 0.92403 0.0
C313 C 0.97837 0.25441 0.849 0.0
O314 O 0.99433 0.27471 0.85584 0.0
O315 O 0.97596 0.236 0.86133 0.0
O316 O 0.05411 0.29768 0.87443 0.0
O317 O 0.05065 0.25656 0.88038 0.0
O318 O 0.55561 0.81138 0.40624 0.0
Cd319 Cd 0.54948 0.77511 0.38757 0.0
Cd320 Cd 0.57055 0.80473 0.35603 0.0
O321 O 0.57092 0.83612 0.38082 0.0
O322 O 0.53476 0.75409 0.41107 0.0
O323 O 0.57158 0.74854 0.39652 0.0
C324 C 0.55459 0.74221 0.41062 0.0
C325 C 0.60853 0.79067 0.34558 0.0
C326 C 0.56387 0.83357 0.40093 0.0
C327 C 0.51834 0.77577 0.3418 0.0
O328 O 0.5366 0.79144 0.33595 0.0
O329 O 0.52027 0.76701 0.36116 0.0
O330 O 0.59971 0.80911 0.33614 0.0
O331 O 0.59573 0.78034 0.36116 0.0
O332 O 0.00441 0.79425 0.68413 0.0
Cd333 Cd 0.02665 0.78034 0.65923 0.0
Cd334 Cd 0.0105 0.81656 0.6358 0.0
O335 O -0.00237 0.82857 0.66745 0.0
O336 O 0.0523 0.76166 0.674 0.0
O337 O 0.06288 0.79776 0.65846 0.0
C338 C 0.06991 0.7792 0.66895 0.0
C339 C 0.03131 0.84663 0.6146 0.0
C340 C 0.99551 0.81555 0.68442 0.0
C341 C 0.99418 0.7612 0.61547 0.0
O342 O 0.9909 0.78458 0.61477 0.0
O343 O 0.0088 0.75531 0.63161 0.0
O344 O 0.00692 0.84494 0.61684 0.0
O345 O 0.04436 0.83201 0.62556 0.0
O346 O 0.49189 0.30553 0.17507 0.0
Cd347 Cd 0.51505 0.29508 0.14923 0.0
Cd348 Cd 0.48688 0.32688 0.12721 0.0
O349 O 0.47189 0.33377 0.1585 0.0
O350 O 0.53516 0.27075 0.16349 0.0
O351 O 0.5535 0.30745 0.15309 0.0
C352 C 0.55583 0.28619 0.16154 0.0
C353 C 0.50921 0.35935 0.10987 0.0
C354 C 0.4761 0.32187 0.17578 0.0
C355 C 0.48144 0.27351 0.10467 0.0
O356 O 0.47152 0.29421 0.10528 0.0
O357 O 0.49934 0.27129 0.11973 0.0
O358 O 0.48439 0.35658 0.10971 0.0
O359 O 0.52154 0.34422 0.12095 0.0
H360 H 0.25543 0.75183 0.86611 0.0
H361 H 0.20836 0.87206 0.93886 0.0
H362 H 0.25327 0.82559 0.84084 0.0
H363 H 0.24401 0.81461 0.97143 0.0
H364 H 0.2148 0.84985 0.90095 0.0
H365 H 0.24282 0.77023 0.90331 0.0
C366 C 0.25253 0.77192 0.86834 0.0
C367 C 0.2557 0.7872 0.8502 0.0
C368 C 0.22092 0.84198 0.91642 0.0
C369 C 0.24029 0.80797 0.89257 0.0
C370 C 0.21705 0.85448 0.93806 0.0
C371 C 0.22587 0.84529 0.95836 0.0
C372 C 0.23336 0.81995 0.91507 0.0
C373 C 0.23711 0.82247 0.95622 0.0
C374 C 0.24507 0.78228 0.88954 0.0
C375 C 0.2508 0.8129 0.85408 0.0
N376 N 0.24065 0.81062 0.93494 0.0
N377 N 0.24331 0.82244 0.87481 0.0
H378 H 0.99079 0.6235 0.39543 0.0
H379 H 0.07178 0.51962 0.34093 0.0
H380 H 0.95747 0.5434 0.37875 0.0
H381 H 0.07446 0.59336 0.31499 0.0
H382 H 0.03581 0.52992 0.36341 0.0
H383 H 0.02764 0.61458 0.37343 0.0
C384 C 0.99127 0.60409 0.3871 0.0
C385 C 0.97121 0.58409 0.38875 0.0
C386 C 0.04446 0.54383 0.35287 0.0
C387 C 0.01321 0.57377 0.36441 0.0
C388 C 0.06502 0.5381 0.34024 0.0
C389 C 0.07596 0.55568 0.32611 0.0
C390 C 0.03535 0.56755 0.35179 0.0
C391 C 0.06639 0.57927 0.32563 0.0
C392 C 0.01217 0.59906 0.3746 0.0
C393 C 0.97259 0.55929 0.37768 0.0
N394 N 0.04668 0.58464 0.33844 0.0
N395 N 0.99346 0.5547 0.36619 0.0
H396 H 0.85083 0.81176 0.85331 0.0
H397 H 0.81156 0.77535 0.97631 0.0
H398 H 0.81997 0.86418 0.9031 0.0
H399 H 0.85065 0.7275 0.92922 0.0
H400 H 0.81671 0.80922 0.951 0.0
H401 H 0.85302 0.78185 0.88194 0.0
C402 C 0.84484 0.8172 0.87038 0.0
C403 C 0.83522 0.84064 0.87575 0.0
C404 C 0.82439 0.79141 0.94633 0.0
C405 C 0.83717 0.80598 0.9086 0.0
C406 C 0.82149 0.77205 0.9608 0.0
C407 C 0.83047 0.74839 0.95479 0.0
C408 C 0.83619 0.78706 0.92562 0.0
C409 C 0.84328 0.74532 0.93451 0.0
C410 C 0.84595 0.79997 0.88671 0.0
C411 C 0.82718 0.84621 0.89805 0.0
N412 N 0.84552 0.76431 0.92057 0.0
N413 N 0.82821 0.82895 0.9136 0.0
H414 H 0.03674 0.03062 0.42644 0.0
H415 H 0.9547 0.98099 0.30614 0.0
H416 H 0.0397 0.95593 0.38828 0.0
H417 H 0.92902 0.03498 0.35806 0.0
H418 H 0.99049 0.97602 0.33344 0.0
H419 H 0.00138 0.03681 0.39888 0.0
C420 C 0.02997 0.0156 0.41218 0.0
C421 C 0.04104 0.99274 0.40953 0.0
C422 C 0.97702 0.98896 0.33882 0.0
C423 C 0.00098 -0.00026 0.37804 0.0
C424 C 0.95668 0.99194 0.32323 0.0
C425 C 0.93882 0.00841 0.32987 0.0
C426 C 0.97979 0.00284 0.36108 0.0
C427 C 0.94229 0.022 0.35229 0.0
C428 C 0.00978 0.01908 0.39659 0.0
C429 C 0.03152 0.97375 0.39094 0.0
N430 N 0.96248 0.01901 0.3671 0.0
N431 N 0.01211 0.97775 0.37577 0.0
H432 H 0.22209 0.28567 0.68098 0.0
H433 H 0.30034 0.1996 0.59732 0.0
H434 H 0.27776 0.24056 0.70668 0.0
H435 H 0.23722 0.23747 0.57387 0.0
H436 H 0.29198 0.213 0.6375 0.0
H437 H 0.22603 0.26602 0.64156 0.0
C438 C 0.23473 0.27113 0.67823 0.0
C439 C 0.24947 0.26445 0.69689 0.0
C440 C 0.27992 0.21825 0.62352 0.0
C441 C 0.25481 0.24248 0.65192 0.0
C442 C 0.28477 0.21074 0.60061 0.0
C443 C 0.26957 0.21758 0.58222 0.0
C444 C 0.25981 0.23276 0.62799 0.0
C445 C 0.24953 0.23186 0.58747 0.0
C446 C 0.23714 0.26004 0.65577 0.0
C447 C 0.2659 0.24588 0.69261 0.0
N448 N 0.24533 0.23903 0.60982 0.0
N449 N 0.26838 0.2357 0.67047 0.0
H450 H 0.52314 0.5253 0.59715 0.0
H451 H 0.45157 0.58541 0.70316 0.0
H452 H 0.53193 0.60732 0.6197 0.0
H453 H 0.45677 0.50426 0.68667 0.0
H454 H 0.47674 0.59442 0.67025 0.0
H455 H 0.49447 0.51783 0.62748 0.0
C456 C 0.51913 0.54177 0.60857 0.0
C457 C 0.53028 0.56695 0.60606 0.0
C458 C 0.47224 0.57466 0.67385 0.0
C459 C 0.49705 0.55855 0.64081 0.0
C460 C 0.45783 0.56951 0.69255 0.0
C461 C 0.4522 0.54407 0.69773 0.0
C462 C 0.48079 0.55417 0.66021 0.0
C463 C 0.4608 0.52419 0.68345 0.0
C464 C 0.50262 0.5375 0.62584 0.0
C465 C 0.52374 0.58759 0.62099 0.0
N466 N 0.47464 0.52967 0.66542 0.0
N467 N 0.50764 0.58293 0.63784 0.0
H468 H 0.79632 0.35467 0.69458 0.0
H469 H 0.78273 0.32143 0.55888 0.0
H470 H 0.77417 0.27636 0.6615 0.0
H471 H 0.75546 0.38984 0.59048 0.0
H472 H 0.7871 0.3065 0.59695 0.0
H473 H 0.7886 0.37027 0.65685 0.0
C474 C 0.78979 0.34084 0.67939 0.0
C475 C 0.78572 0.31428 0.68106 0.0
C476 C 0.78006 0.32472 0.5955 0.0
C477 C 0.77746 0.33177 0.63823 0.0
C478 C 0.77765 0.33328 0.57386 0.0
C479 C 0.76867 0.35684 0.57162 0.0
C480 C 0.77411 0.34016 0.61509 0.0
C481 C 0.76229 0.37146 0.59154 0.0
C482 C 0.7853 0.34971 0.65801 0.0
C483 C 0.77732 0.29703 0.66096 0.0
N484 N 0.76544 0.36303 0.6126 0.0
N485 N 0.77374 0.30607 0.6403 0.0
H486 H 0.49095 0.03601 0.61437 0.0
H487 H 0.6057 0.00733 0.7 0.0
H488 H 0.56711 0.02862 0.59313 0.0
H489 H 0.54369 0.04677 0.72389 0.0
H490 H 0.58785 0.00685 0.65994 0.0
H491 H 0.50681 0.03337 0.6543 0.0
C492 C 0.51103 0.03409 0.61806 0.0
C493 C 0.52767 0.0325 0.60025 0.0
C494 C 0.57811 0.01544 0.67401 0.0
C495 C 0.54564 0.02863 0.64579 0.0
C496 C 0.58814 0.01551 0.69682 0.0
C497 C 0.57621 0.02723 0.71521 0.0
C498 C 0.55584 0.02681 0.66969 0.0
C499 C 0.55358 0.03771 0.71017 0.0
C500 C 0.51998 0.03234 0.64083 0.0
C501 C 0.5534 0.02945 0.60614 0.0
N502 N 0.54411 0.03727 0.68787 0.0
N503 N 0.56155 0.02746 0.62836 0.0
H504 H 0.85458 0.29413 0.76449 0.0
H505 H 0.94923 0.21175 0.82448 0.0
H506 H 0.84673 0.21086 0.75265 0.0
H507 H 0.96595 0.29461 0.82661 0.0
H508 H 0.91416 0.21106 0.79475 0.0
H509 H 0.8977 0.29509 0.78374 0.0
C510 C 0.8621 0.27609 0.7656 0.0
C511 C 0.84686 0.25236 0.75741 0.0
C512 C 0.9257 0.22938 0.80143 0.0
C513 C 0.89593 0.25326 0.77956 0.0
C514 C 0.94575 0.22977 0.81844 0.0
C515 C 0.96031 0.2533 0.82825 0.0
C516 C 0.91984 0.25275 0.79445 0.0
C517 C 0.9551 0.27604 0.81959 0.0
C518 C 0.88667 0.27664 0.77665 0.0
C519 C 0.85755 0.22956 0.7593 0.0
N520 N 0.93497 0.27526 0.80346 0.0
N521 N 0.88125 0.23057 0.77043 0.0
H522 H 0.54927 0.92745 0.52841 0.0
H523 H 0.56407 0.88459 0.39424 0.0
H524 H 0.53495 0.97597 0.47563 0.0
H525 H 0.56396 0.8341 0.44748 0.0
H526 H 0.55965 0.92065 0.42389 0.0
H527 H 0.56103 0.89537 0.49898 0.0
C528 C 0.5487 0.93134 0.51055 0.0
C529 C 0.54093 0.95419 0.50437 0.0
C530 C 0.56081 0.90169 0.42901 0.0
C531 C 0.55427 0.91753 0.47047 0.0
C532 C 0.56346 0.88118 0.41216 0.0
C533 C 0.56413 0.8563 0.4184 0.0
C534 C 0.55912 0.89718 0.45217 0.0
C535 C 0.5632 0.85288 0.44183 0.0
C536 C 0.5554 0.91303 0.49374 0.0
C537 C 0.54069 0.95845 0.48105 0.0
N538 N 0.56066 0.87303 0.45779 0.0
N539 N 0.54714 0.94015 0.46484 0.0
H540 H 0.22091 0.31701 0.84005 0.0
H541 H 0.08589 0.23463 0.85766 0.0
H542 H 0.18918 0.24727 0.79522 0.0
H543 H 0.10279 0.31735 0.87586 0.0
H544 H 0.12844 0.23489 0.84251 0.0
H545 H 0.18216 0.31297 0.86134 0.0
C546 C 0.20591 0.30068 0.83491 0.0
C547 C 0.20803 0.28262 0.81576 0.0
C548 C 0.12284 0.2529 0.85005 0.0
C549 C 0.16399 0.27777 0.84001 0.0
C550 C 0.0987 0.25276 0.85878 0.0
C551 C 0.09081 0.27604 0.86783 0.0
C552 C 0.13929 0.2764 0.85085 0.0
C553 C 0.10806 0.29902 0.8688 0.0
C554 C 0.18384 0.29845 0.84697 0.0
C555 C 0.18814 0.26177 0.80976 0.0
N556 N 0.13151 0.29863 0.86041 0.0
N557 N 0.16686 0.25993 0.82184 0.0
H558 H 0.61837 0.6455 0.50339 0.0
H559 H 0.51963 0.72194 0.43846 0.0
H560 H 0.5385 0.64312 0.51718 0.0
H561 H 0.59729 0.71879 0.41957 0.0
H562 H 0.52622 0.69273 0.46707 0.0
H563 H 0.61125 0.67236 0.47265 0.0
C564 C 0.59934 0.65069 0.49993 0.0
C565 C 0.57903 0.64219 0.51284 0.0
C566 C 0.54181 0.69828 0.45661 0.0
C567 C 0.57068 0.67279 0.47774 0.0
C568 C 0.53806 0.71498 0.44023 0.0
C569 C 0.55799 0.72291 0.42664 0.0
C570 C 0.56574 0.68951 0.4596 0.0
C571 C 0.58141 0.71317 0.42967 0.0
C572 C 0.59526 0.66593 0.48236 0.0
C573 C 0.55472 0.64931 0.50767 0.0
N574 N 0.5847 0.69709 0.44595 0.0
N575 N 0.55125 0.66426 0.49055 0.0
H576 H 0.9432 0.89666 0.80665 0.0
H577 H 0.96476 0.78647 0.71014 0.0
H578 H 0.87903 0.84079 0.77522 0.0
H579 H 0.99484 0.86542 0.70333 0.0
H580 H 0.93997 0.80221 0.74171 0.0
H581 H 0.96949 0.88165 0.77574 0.0
C582 C 0.93474 0.88126 0.79325 0.0
C583 C 0.90898 0.87007 0.79319 0.0
C584 C 0.95215 0.81598 0.73332 0.0
C585 C 0.93882 0.85248 0.75869 0.0
C586 C 0.96634 0.80708 0.71549 0.0
C587 C 0.98171 0.82474 0.70417 0.0
C588 C 0.95404 0.84262 0.74027 0.0
C589 C 0.98302 0.85126 0.71159 0.0
C590 C 0.94963 0.87281 0.77572 0.0
C591 C 0.89877 0.85009 0.77562 0.0
N592 N 0.96949 0.85946 0.7294 0.0
N593 N 0.91384 0.84168 0.75916 0.0
H594 H 0.04541 0.92545 0.49513 0.0
H595 H 0.08109 0.8515 0.60194 0.0
H596 H 0.12388 0.9162 0.51529 0.0
H597 H 0.00808 0.87869 0.58931 0.0
H598 H 0.09774 0.87426 0.57045 0.0
H599 H 0.03156 0.90648 0.52908 0.0
C600 C 0.05975 0.9193 0.50666 0.0
C601 C 0.08585 0.92227 0.50237 0.0
C602 C 0.07818 0.87543 0.57479 0.0
C603 C 0.07008 0.90061 0.54147 0.0
C604 C 0.0687 0.86254 0.59279 0.0
C605 C 0.0431 0.86305 0.59815 0.0
C606 C 0.06183 0.88867 0.56202 0.0
C607 C 0.02788 0.87759 0.58571 0.0
C608 C 0.05184 0.90861 0.52617 0.0
C609 C 0.10355 0.91412 0.51802 0.0
N610 N 0.03739 0.88959 0.56813 0.0
N611 N 0.09534 0.90352 0.53689 0.0
H612 H 0.21349 0.72806 0.70972 0.0
H613 H 0.11011 0.81904 0.6766 0.0
H614 H 0.21875 0.80742 0.74045 0.0
H615 H 0.09181 0.7365 0.67588 0.0
H616 H 0.15481 0.81643 0.69057 0.0
H617 H 0.17363 0.73268 0.68715 0.0
C618 C 0.20646 0.74656 0.71138 0.0
C619 C 0.21908 0.76725 0.72716 0.0
C620 C 0.14099 0.79892 0.68709 0.0
C621 C 0.17387 0.7727 0.70147 0.0
C622 C 0.1156 0.80037 0.67909 0.0
C623 C 0.09728 0.77798 0.67537 0.0
C624 C 0.14807 0.77486 0.69085 0.0
C625 C 0.1053 0.75426 0.67885 0.0
C626 C 0.18374 0.74915 0.69863 0.0
C627 C 0.20932 0.79088 0.72868 0.0
N628 N 0.13011 0.75331 0.6864 0.0
N629 N 0.18714 0.79295 0.71608 0.0
H630 H 0.94992 0.61605 0.52814 0.0
H631 H 0.96936 0.76727 0.57396 0.0
H632 H 0.9384 0.67437 0.48378 0.0
H633 H 0.99237 0.70896 0.61409 0.0
H634 H 0.95346 0.73338 0.54186 0.0
H635 H 0.96131 0.64985 0.56089 0.0
C636 C 0.94962 0.636 0.52534 0.0
C637 C 0.94316 0.64244 0.50324 0.0
C638 C 0.96188 0.72804 0.55774 0.0
C639 C 0.95641 0.68129 0.54064 0.0
C640 C 0.97084 0.74734 0.57611 0.0
C641 C 0.98234 0.74094 0.5967 0.0
C642 C 0.96432 0.7022 0.56007 0.0
C643 C 0.9838 0.71481 0.5985 0.0
C644 C 0.95626 0.6553 0.54403 0.0
C645 C 0.94349 0.66863 0.50052 0.0
N646 N 0.97498 0.69644 0.5804 0.0
N647 N 0.95 0.68714 0.51905 0.0
H648 H 0.76226 0.81179 0.2785 0.0
H649 H 0.8327 0.93775 0.23227 0.0
H650 H 0.80926 0.81217 0.22055 0.0
H651 H 0.81464 0.93935 0.30348 0.0
H652 H 0.81355 0.89259 0.2249 0.0
H653 H 0.7732 0.85926 0.28607 0.0
C654 C 0.77479 0.82176 0.26739 0.0
C655 C 0.78447 0.80796 0.2486 0.0
C656 C 0.81356 0.90284 0.24212 0.0
C657 C 0.79646 0.86186 0.25684 0.0
C658 C 0.8244 0.92868 0.24632 0.0
C659 C 0.82569 0.94222 0.26863 0.0
C660 C 0.80401 0.89024 0.26035 0.0
C661 C 0.8142 0.92953 0.28606 0.0
C662 C 0.78086 0.84877 0.27164 0.0
C663 C 0.80061 0.8219 0.23477 0.0
N664 N 0.80409 0.90403 0.28164 0.0
N665 N 0.80593 0.84796 0.23909 0.0
H666 H 0.74988 0.17545 0.32474 0.0
H667 H 0.84679 0.0878 0.26552 0.0
H668 H 0.79081 0.19569 0.26623 0.0
H669 H 0.81209 0.07477 0.32892 0.0
H670 H 0.8251 0.12609 0.26391 0.0
H671 H 0.77102 0.13708 0.32489 0.0
C672 C 0.76345 0.1719 0.31198 0.0
C673 C 0.76877 0.189 0.29561 0.0
C674 C 0.82228 0.11482 0.27815 0.0
C675 C 0.79291 0.14472 0.29547 0.0
C676 C 0.83463 0.09298 0.27908 0.0
C677 C 0.83127 0.07808 0.2974 0.0
C678 C 0.80639 0.12169 0.2956 0.0
C679 C 0.81531 0.08567 0.31449 0.0
C680 C 0.77545 0.14988 0.312 0.0
C681 C 0.78604 0.18298 0.27911 0.0
N682 N 0.80347 0.10689 0.31315 0.0
N683 N 0.79758 0.16136 0.2795 0.0
H684 H 0.35072 0.08174 0.98941 0.0
H685 H 0.32269 0.93842 0.02384 0.0
H686 H 0.40586 0.0279 0.98661 0.0
H687 H 0.26274 0.98479 0.01049 0.0
H688 H 0.35474 0.97377 0.01604 0.0
H689 H 0.31934 0.04875 0.00243 0.0
C690 C 0.35618 0.06298 0.99158 0.0
C691 C 0.38075 0.05737 0.98671 0.0
C692 C 0.33457 0.97625 0.01495 0.0
C693 C 0.34522 0.01978 0.0017 0.0
C694 C 0.31627 0.95613 0.01952 0.0
C695 C 0.28996 0.95856 0.0176 0.0
C696 C 0.32654 -0.001 0.00855 0.0
C697 C 0.2828 0.98199 0.01198 0.0
C698 C 0.33831 0.04419 -0.00105 0.0
C699 C 0.38694 0.03282 0.98978 0.0
N700 N 0.30099 0.00127 0.00753 0.0
N701 N 0.36929 0.01492 0.99709 0.0
H702 H 0.25291 0.36506 0.2924 0.0
H703 H 0.18293 0.47943 0.349 0.0
H704 H 0.25979 0.3921 0.36559 0.0
H705 H 0.16911 0.4478 0.27688 0.0
H706 H 0.2088 0.44549 0.35568 0.0
H707 H 0.22027 0.39326 0.28652 0.0
C708 C 0.24749 0.37688 0.30724 0.0
C709 C 0.25926 0.3764 0.3295 0.0
C710 C 0.19995 0.44577 0.33842 0.0
C711 C 0.22185 0.40863 0.32291 0.0
C712 C 0.18516 0.46518 0.33458 0.0
C713 C 0.17402 0.46657 0.3123 0.0
C714 C 0.20392 0.42771 0.31979 0.0
C715 C 0.17741 0.44748 0.29432 0.0
C716 C 0.22875 0.39285 0.30389 0.0
C717 C 0.25115 0.39175 0.34815 0.0
N718 N 0.19232 0.42898 0.2984 0.0
N719 N 0.23314 0.40739 0.3444 0.0
H720 H 0.10305 0.05674 0.45739 0.0
H721 H 0.2564 0.09315 0.47559 0.0
H722 H 0.15495 -0.00023 0.45222 0.0
H723 H 0.20353 0.14621 0.49575 0.0
H724 H 0.21966 0.05932 0.46368 0.0
H725 H 0.14 0.09058 0.46805 0.0
C726 C 0.12227 0.0514 0.45836 0.0
C727 C 0.12602 0.02547 0.45391 0.0
C728 C 0.21615 0.07837 0.47073 0.0
C729 C 0.16831 0.06399 0.46621 0.0
C730 C 0.23708 0.09771 0.47748 0.0
C731 C 0.23303 0.12254 0.48672 0.0
C732 C 0.191 0.08398 0.47306 0.0
C733 C 0.20759 0.12733 0.4888 0.0
C734 C 0.14332 0.07068 0.46459 0.0
C735 C 0.15127 0.01954 0.45571 0.0
N736 N 0.18754 0.10824 0.48197 0.0
N737 N 0.1715 0.03869 0.46167 0.0
H738 H 0.734 0.20017 0.72124 0.0
H739 H 0.70027 0.10796 0.81701 0.0
H740 H 0.77128 0.21471 0.79075 0.0
H741 H 0.64973 0.10944 0.75576 0.0
H742 H 0.72762 0.14608 0.8074 0.0
H743 H 0.70373 0.16589 0.73323 0.0
C744 C 0.73567 0.19641 0.73909 0.0
C745 C 0.75534 0.21037 0.75497 0.0
C746 C 0.71041 0.13814 0.7962 0.0
C747 C 0.721 0.17066 0.76867 0.0
C748 C 0.69483 0.11637 0.80165 0.0
C749 C 0.67273 0.1054 0.78712 0.0
C750 C 0.70401 0.14879 0.77596 0.0
C751 C 0.66658 0.11718 0.76747 0.0
C752 C 0.71843 0.17671 0.7459 0.0
C753 C 0.75677 0.20417 0.77778 0.0
N754 N 0.68225 0.13807 0.76236 0.0
N755 N 0.73996 0.18466 0.7839 0.0
H756 H 0.44928 0.0342 0.51318 0.0
H757 H 0.37945 0.15648 0.54698 0.0
H758 H 0.48421 0.09675 0.56513 0.0
H759 H 0.36669 0.11052 0.47984 0.0
H760 H 0.41518 0.13281 0.5567 0.0
H761 H 0.41593 0.05992 0.50331 0.0
C762 C 0.4502 0.05344 0.52237 0.0
C763 C 0.46988 0.06329 0.53994 0.0
C764 C 0.40458 0.12809 0.53981 0.0
C765 C 0.43103 0.09262 0.52908 0.0
C766 C 0.3842 0.14151 0.53429 0.0
C767 C 0.37008 0.13545 0.51258 0.0
C768 C 0.41049 0.10824 0.52366 0.0
C769 C 0.37706 0.1159 0.49676 0.0
C770 C 0.43098 0.06806 0.51681 0.0
C771 C 0.46934 0.08814 0.55167 0.0
N772 N 0.39661 0.10288 0.50268 0.0
N773 N 0.45016 0.1019 0.54612 0.0
H774 H 0.63251 0.5669 0.55245 0.0
H775 H 0.6699 0.42567 0.54802 0.0
H776 H 0.57748 0.50457 0.56945 0.0
H777 H 0.68897 0.47559 0.49612 0.0
H778 H 0.64215 0.45643 0.56414 0.0
H779 H 0.66064 0.53552 0.54027 0.0
C780 C 0.62626 0.54667 0.55364 0.0
C781 C 0.60223 0.53841 0.56158 0.0
C782 C 0.65246 0.46045 0.54921 0.0
C783 C 0.6349 0.50255 0.54834 0.0
C784 C 0.66823 0.44303 0.54005 0.0
C785 C 0.68154 0.44806 0.52064 0.0
C786 C 0.65079 0.48325 0.53923 0.0
C787 C 0.67883 0.47083 0.51096 0.0
C788 C 0.64244 0.52883 0.54681 0.0
C789 C 0.59579 0.51194 0.56354 0.0
N790 N 0.66397 0.48769 0.52049 0.0
N791 N 0.61203 0.49489 0.55689 0.0
H792 H 0.73282 0.22979 0.35995 0.0
H793 H 0.70901 0.36354 0.42748 0.0
H794 H 0.74046 0.30142 0.32979 0.0
H795 H 0.74437 0.30755 0.46241 0.0
H796 H 0.70838 0.33576 0.39075 0.0
H797 H 0.72671 0.25392 0.39712 0.0
C798 C 0.73337 0.25054 0.36105 0.0
C799 C 0.73735 0.26352 0.34153 0.0
C800 C 0.71594 0.32946 0.40654 0.0
C801 C 0.72925 0.2909 0.38385 0.0
C802 C 0.71611 0.34515 0.42753 0.0
C803 C 0.72699 0.33793 0.44801 0.0
C804 C 0.7263 0.30624 0.40609 0.0
C805 C 0.73602 0.31393 0.44698 0.0
C806 C 0.72961 0.26419 0.38224 0.0
C807 C 0.73705 0.29038 0.34408 0.0
N808 N 0.73558 0.29892 0.4263 0.0
N809 N 0.73298 0.30313 0.3648 0.0
H810 H 0.44256 0.02797 0.87988 0.0
H811 H 0.59505 0.0407 0.87133 0.0
H812 H 0.49864 0.07305 0.93148 0.0
H813 H 0.53957 0.01994 0.81174 0.0
H814 H 0.55953 0.04387 0.89606 0.0
H815 H 0.47788 0.01657 0.85696 0.0
C816 C 0.46231 0.03532 0.88639 0.0
C817 C 0.46775 0.05173 0.90734 0.0
C818 C 0.55518 0.03842 0.87758 0.0
C819 C 0.50799 0.03861 0.88162 0.0
C820 C 0.57541 0.03647 0.86348 0.0
C821 C 0.57026 0.03035 0.83941 0.0
C822 C 0.52965 0.03395 0.86756 0.0
C823 C 0.54443 0.02504 0.83019 0.0
C824 C 0.48238 0.02887 0.87336 0.0
C825 C 0.4936 0.06066 0.91521 0.0
N826 N 0.52506 0.02708 0.84427 0.0
N827 N 0.51278 0.05401 0.90231 0.0
H828 H 0.28984 0.3451 0.4007 0.0
H829 H 0.33042 0.21516 0.44172 0.0
H830 H 0.31848 0.28588 0.3561 0.0
H831 H 0.28653 0.26478 0.48229 0.0
H832 H 0.33149 0.24446 0.41228 0.0
H833 H 0.29258 0.31875 0.43252 0.0
C834 C 0.29661 0.32656 0.39755 0.0
C835 C 0.30403 0.31777 0.37568 0.0
C836 C 0.32174 0.24902 0.42768 0.0
C837 C 0.30761 0.28779 0.41206 0.0
C838 C 0.32123 0.23235 0.44458 0.0
C839 C 0.30818 0.23737 0.46445 0.0
C840 C 0.30916 0.27095 0.43063 0.0
C841 C 0.29669 0.26004 0.46718 0.0
C842 C 0.29832 0.31162 0.41576 0.0
C843 C 0.31299 0.29372 0.37273 0.0
N844 N 0.29732 0.27593 0.45039 0.0
N845 N 0.31454 0.27964 0.39069 0.0
H846 H 0.5445 0.46717 0.88919 0.0
H847 H 0.45119 0.5609 0.84357 0.0
H848 H 0.54959 0.54699 0.91844 0.0
H849 H 0.47308 0.49768 0.79873 0.0
H850 H 0.48238 0.55299 0.87412 0.0
H851 H 0.51289 0.47473 0.85855 0.0
C852 C 0.53882 0.4862 0.88916 0.0
C853 C 0.54961 0.50655 0.90614 0.0
C854 C 0.48037 0.54094 0.85754 0.0
C855 C 0.51365 0.51524 0.87163 0.0
C856 C 0.46259 0.5454 0.84015 0.0
C857 C 0.45965 0.52999 0.81859 0.0
C858 C 0.49491 0.52062 0.85346 0.0
C859 C 0.4749 0.51015 0.81506 0.0
C860 C 0.52099 0.49054 0.8717 0.0
C861 C 0.54179 0.53091 0.90546 0.0
N862 N 0.49176 0.50589 0.83241 0.0
N863 N 0.52415 0.53457 0.88852 0.0
H864 H 0.74077 0.75238 0.17739 0.0
H865 H 0.8215 0.69049 0.07907 0.0
H866 H 0.80312 0.70976 0.19247 0.0
H867 H 0.76108 0.73652 0.06663 0.0
H868 H 0.8138 0.69468 0.12026 0.0
H869 H 0.74559 0.74283 0.13611 0.0
C870 C 0.75524 0.74065 0.17191 0.0
C871 C 0.77166 0.73194 0.18827 0.0
C872 C 0.80226 0.70385 0.10848 0.0
C873 C 0.77769 0.7213 0.14108 0.0
C874 C 0.80675 0.70159 0.08501 0.0
C875 C 0.79199 0.71328 0.0694 0.0
C876 C 0.78286 0.71782 0.11631 0.0
C877 C 0.773 0.72726 0.07801 0.0
C878 C 0.7581 0.7353 0.14837 0.0
C879 C 0.79 0.7167 0.18033 0.0
N880 N 0.769 0.72911 0.10082 0.0
N881 N 0.79275 0.71209 0.15725 0.0
H882 H 0.98407 -0.00169 0.10517 0.0
H883 H 0.91925 0.06031 0.21476 0.0
H884 H 0.99613 0.08028 0.12852 0.0
H885 H 0.92397 0.979 0.19875 0.0
H886 H 0.94232 0.06858 0.18046 0.0
H887 H 0.95692 0.99148 0.13674 0.0
C888 C 0.98112 0.01489 0.11701 0.0
C889 C 0.99274 0.03987 0.11435 0.0
C890 C 0.93815 0.04895 0.18447 0.0
C891 C 0.96122 0.0322 0.15047 0.0
C892 C 0.92493 0.04422 0.20394 0.0
C893 C 0.91985 0.01896 0.20968 0.0
C894 C 0.94603 0.02821 0.1706 0.0
C895 C 0.92765 -0.00119 0.19512 0.0
C896 C 0.96547 0.01099 0.13498 0.0
C897 C 0.98752 0.06069 0.12987 0.0
N898 N 0.94034 0.00388 0.17632 0.0
N899 N 0.97224 0.05638 0.14736 0.0
H900 H 0.30246 0.83116 0.20041 0.0
H901 H 0.28824 0.82157 0.06374 0.0
H902 H 0.30284 0.75943 0.1564 0.0
H903 H 0.24781 0.87357 0.10537 0.0
H904 H 0.29973 0.8019 0.0982 0.0
H905 H 0.28828 0.85073 0.16627 0.0
C906 C 0.29957 0.81961 0.18356 0.0
C907 C 0.30368 0.7937 0.18114 0.0
C908 C 0.28824 0.81753 0.09977 0.0
C909 C 0.28796 0.81584 0.14233 0.0
C910 C 0.28174 0.82881 0.08016 0.0
C911 C 0.26702 0.84918 0.08176 0.0
C912 C 0.28048 0.82706 0.12125 0.0
C913 C 0.25905 0.85778 0.10344 0.0
C914 C 0.29138 0.83069 0.16421 0.0
C915 C 0.29971 0.77944 0.15903 0.0
N916 N 0.26614 0.84685 0.12248 0.0
N917 N 0.29228 0.79078 0.14042 0.0
H918 H 0.96287 0.46177 0.12618 0.0
H919 H 0.07139 0.56511 0.20088 0.0
H920 H 0.98852 0.53753 0.10758 0.0
H921 H 0.05799 0.4849 0.21205 0.0
H922 H 0.03876 0.55588 0.16823 0.0
H923 H 0.99506 0.47056 0.15951 0.0
C924 C 0.97521 0.48027 0.12912 0.0
C925 C 0.973 0.49893 0.114 0.0
C926 C 0.04297 0.54024 0.17774 0.0
C927 C 0.0097 0.50912 0.15217 0.0
C928 C 0.06162 0.54548 0.19641 0.0
C929 C 0.06742 0.52572 0.20921 0.0
C930 C 0.0298 0.51505 0.17184 0.0
C931 C 0.05416 0.50067 0.20258 0.0
C932 C 0.99355 0.48525 0.14815 0.0
C933 C 0.98924 0.5227 0.11889 0.0
N934 N 0.03584 0.49605 0.18436 0.0
N935 N 0.00691 0.52707 0.13751 0.0
H936 H 0.35805 0.73137 0.29472 0.0
H937 H 0.50734 0.78804 0.29799 0.0
H938 H 0.39362 0.75308 0.23393 0.0
H939 H 0.47355 0.74794 0.35157 0.0
H940 H 0.46567 0.7785 0.27486 0.0
H941 H 0.40002 0.74111 0.31671 0.0
C942 C 0.37472 0.73811 0.28596 0.0
C943 C 0.37232 0.74113 0.26236 0.0
C944 C 0.46749 0.77172 0.29164 0.0
C945 C 0.42052 0.75267 0.28759 0.0
C946 C 0.49124 0.77713 0.30485 0.0
C947 C 0.49396 0.76882 0.32679 0.0
C948 C 0.44629 0.75814 0.30057 0.0
C949 C 0.47243 0.75475 0.33478 0.0
C950 C 0.39869 0.74374 0.29855 0.0
C951 C 0.39453 0.75061 0.25211 0.0
N952 N 0.44952 0.75 0.32174 0.0
N953 N 0.41776 0.756 0.26479 0.0
H954 H 0.92121 0.40346 0.00627 0.0
H955 H 0.02586 0.32392 0.95685 0.0
H956 H 0.98314 0.3864 0.05175 0.0
H957 H 0.94543 0.29959 0.93422 0.0
H958 H 0.01327 0.35358 0.98839 0.0
H959 H 0.9322 0.37136 0.97583 0.0
C960 C 0.93707 0.39292 0.00981 0.0
C961 C 0.9514 0.39746 0.03142 0.0
C962 C -0.00154 0.34165 0.9765 0.0
C963 C 0.96426 0.36151 0.99682 0.0
C964 C 0.00558 0.32491 0.95851 0.0
C965 C 0.98661 0.30935 0.94304 0.0
C966 C 0.97226 0.3433 0.97852 0.0
C967 C 0.9606 0.31121 0.94593 0.0
C968 C 0.94324 0.37463 0.99255 0.0
C969 C 0.97167 0.38329 0.03527 0.0
N970 N 0.95414 0.32816 0.96321 0.0
N971 N 0.97779 0.36614 0.01798 0.0
H972 H 0.72666 0.73459 0.26623 0.0
H973 H 0.63983 0.76323 0.36923 0.0
H974 H 0.75578 0.73744 0.33764 0.0
H975 H 0.63163 0.79704 0.30568 0.0
H976 H 0.67937 0.74787 0.35674 0.0
H977 H 0.68872 0.75217 0.27915 0.0
C978 C 0.72547 0.73935 0.28461 0.0
C979 C 0.74493 0.73523 0.30092 0.0
C980 C 0.66891 0.75873 0.34561 0.0
C981 C 0.70073 0.75415 0.31573 0.0
C982 C 0.64634 0.76739 0.35265 0.0
C983 C 0.6325 0.78145 0.33847 0.0
C984 C 0.67734 0.76371 0.32403 0.0
C985 C 0.64181 0.78637 0.31719 0.0
C986 C 0.70358 0.74918 0.29196 0.0
C987 C 0.74138 0.74064 0.32452 0.0
N988 N 0.66354 0.77731 0.31051 0.0
N989 N 0.71965 0.74968 0.33125 0.0
H990 H 0.07725 0.12439 0.0129 0.0
H991 H 0.96771 0.17185 0.93288 0.0
H992 H 0.99585 0.10839 0.02099 0.0
H993 H 0.04886 0.19926 0.93202 0.0
H994 H 0.97809 0.14438 0.96203 0.0
H995 H 0.06757 0.14853 0.98066 0.0
C996 C 0.05736 0.12604 0.00789 0.0
C997 C 0.03735 0.11457 0.01966 0.0
C998 C 0.99366 0.15627 0.95539 0.0
C999 C 0.0261 0.14181 0.98277 0.0
C1000 C 0.98776 0.17189 0.93862 0.0
C1001 C 0.00745 0.18801 0.93008 0.0
C1002 C 0.01944 0.15671 0.9637 0.0
C1003 C 0.03307 0.18718 0.93817 0.0
C1004 C 0.05184 0.13975 0.9895 0.0
C1005 C 0.01189 0.11708 0.01248 0.0
N1006 N 0.03833 0.1719 0.95464 0.0
N1007 N 0.007 0.13042 0.99447 0.0
H1008 H 0.36369 0.3636 0.27 0.0
H1009 H 0.47838 0.2981 0.21503 0.0
H1010 H 0.39654 0.3011 0.29684 0.0
H1011 H 0.44024 0.35463 0.1834 0.0
H1012 H 0.45156 0.30238 0.24738 0.0
H1013 H 0.39437 0.36377 0.24024 0.0
C1014 C 0.37744 0.34999 0.26969 0.0
C1015 C 0.37757 0.33217 0.28578 0.0
C1016 C 0.44913 0.31394 0.23342 0.0
C1017 C 0.41265 0.3323 0.25189 0.0
C1018 C 0.4645 0.31156 0.21494 0.0
C1019 C 0.46145 0.32589 0.19636 0.0
C1020 C 0.43054 0.33078 0.23336 0.0
C1021 C 0.44318 0.34309 0.19728 0.0
C1022 C 0.39493 0.35009 0.2527 0.0
C1023 C 0.3958 0.31505 0.28465 0.0
N1024 N 0.42832 0.34495 0.21542 0.0
N1025 N 0.41257 0.31548 0.26794 0.0
H1026 H 0.61658 0.43618 0.02455 0.0
H1027 H 0.48841 0.39404 0.08578 0.0
H1028 H 0.5406 0.45049 0.00154 0.0
H1029 H 0.5605 0.3665 0.10192 0.0
H1030 H 0.50926 0.4202 0.0587 0.0
H1031 H 0.5981 0.41512 0.05632 0.0
C1032 C 0.59604 0.43488 0.02623 0.0
C1033 C 0.58006 0.44482 0.01033 0.0
C1034 C 0.52061 0.40858 0.06826 0.0
C1035 C 0.55892 0.42118 0.04655 0.0
C1036 C 0.50873 0.3937 0.08382 0.0
C1037 C 0.52268 0.37786 0.09598 0.0
C1038 C 0.54665 0.40764 0.06474 0.0
C1039 C 0.549 0.37835 0.09282 0.0
C1040 C 0.58554 0.42293 0.04431 0.0
C1041 C 0.55363 0.44286 0.01326 0.0
N1042 N 0.56012 0.39285 0.07734 0.0
N1043 N 0.5439 0.43125 0.031 0.0
H1044 H 0.70429 0.28547 0.23256 0.0
H1045 H 0.56715 0.23816 0.16618 0.0
H1046 H 0.67929 0.2062 0.20322 0.0
H1047 H 0.6021 0.31802 0.17286 0.0
H1048 H 0.60825 0.22636 0.17993 0.0
H1049 H 0.66773 0.29835 0.21074 0.0
C1050 C 0.69126 0.27081 0.22129 0.0
C1051 C 0.69453 0.24465 0.21986 0.0
C1052 C 0.60706 0.24644 0.1782 0.0
C1053 C 0.65264 0.25923 0.19514 0.0
C1054 C 0.58355 0.25323 0.1705 0.0
C1055 C 0.58119 0.27915 0.16861 0.0
C1056 C 0.62834 0.26575 0.18449 0.0
C1057 C 0.60313 0.29782 0.17416 0.0
C1058 C 0.67046 0.2782 0.20881 0.0
C1059 C 0.6773 0.22653 0.20486 0.0
N1060 N 0.62577 0.2908 0.18219 0.0
N1061 N 0.65683 0.23409 0.19335 0.0
H1062 H 0.39464 0.15483 0.00264 0.0
H1063 H 0.50667 0.23301 0.09189 0.0
H1064 H 0.4738 0.14095 0.00389 0.0
H1065 H 0.43721 0.26491 0.07504 0.0
H1066 H 0.49305 0.19724 0.06138 0.0
H1067 H 0.40808 0.19385 0.03056 0.0
C1068 C 0.41483 0.16014 0.00866 0.0
C1069 C 0.43317 0.14474 0.00096 0.0
C1070 C 0.4808 0.2121 0.06425 0.0
C1071 C 0.44851 0.18887 0.03285 0.0
C1072 C 0.48848 0.23247 0.08178 0.0
C1073 C 0.473 0.25193 0.08606 0.0
C1074 C 0.45726 0.2109 0.05101 0.0
C1075 C 0.44972 0.25029 0.07227 0.0
C1076 C 0.42247 0.18238 0.02447 0.0
C1077 C 0.45909 0.15243 0.00917 0.0
N1078 N 0.44241 0.22995 0.05541 0.0
N1079 N 0.46594 0.17382 0.02482 0.0
H1080 H 0.25038 0.36553 0.76721 0.0
H1081 H 0.3646 0.458 0.72214 0.0
H1082 H 0.30823 0.33911 0.72476 0.0
H1083 H 0.32451 0.4829 0.78111 0.0
H1084 H 0.338 0.41592 0.71827 0.0
H1085 H 0.27261 0.40996 0.7691 0.0
C1086 C 0.26777 0.369 0.75839 0.0
C1087 C 0.27734 0.34851 0.74567 0.0
C1088 C 0.3349 0.43063 0.73199 0.0
C1089 C 0.30238 0.3992 0.74735 0.0
C1090 C 0.35 0.45475 0.73415 0.0
C1091 C 0.34703 0.47396 0.75218 0.0
C1092 C 0.31659 0.42556 0.74792 0.0
C1093 C 0.32759 0.4686 0.76706 0.0
C1094 C 0.2803 0.39436 0.75935 0.0
C1095 C 0.29978 0.35425 0.73436 0.0
N1096 N 0.31319 0.44477 0.76471 0.0
N1097 N 0.31142 0.379 0.7354 0.0
H1098 H 0.28372 0.70647 0.83168 0.0
H1099 H 0.37722 0.6261 0.75962 0.0
H1100 H 0.32209 0.73433 0.77437 0.0
H1101 H 0.34485 0.60455 0.82186 0.0
H1102 H 0.35778 0.66603 0.76448 0.0
H1103 H 0.30687 0.6694 0.82841 0.0
C1104 C 0.2973 0.70501 0.81859 0.0
C1105 C 0.30097 0.72366 0.80332 0.0
C1106 C 0.35506 0.65258 0.77709 0.0
C1107 C 0.32723 0.68069 0.7991 0.0
C1108 C 0.3661 0.62978 0.77431 0.0
C1109 C 0.36255 0.61191 0.7903 0.0
C1110 C 0.34031 0.6574 0.79593 0.0
C1111 C 0.34804 0.6177 0.80905 0.0
C1112 C 0.3104 0.68367 0.8166 0.0
C1113 C 0.3184 0.72029 0.78634 0.0
N1114 N 0.3374 0.63985 0.81128 0.0
N1115 N 0.33081 0.69915 0.78462 0.0
H1116 H 0.87337 0.55399 0.43876 0.0
H1117 H 0.83705 0.44146 0.51688 0.0
H1118 H 0.91591 0.55011 0.50387 0.0
H1119 H 0.78352 0.46419 0.46631 0.0
H1120 H 0.86978 0.47647 0.50872 0.0
H1121 H 0.84383 0.51577 0.44487 0.0
C1122 C 0.87658 0.54492 0.45425 0.0
C1123 C 0.89694 0.55522 0.47091 0.0
C1124 C 0.85085 0.47366 0.49943 0.0
C1125 C 0.86331 0.51167 0.47804 0.0
C1126 C 0.83225 0.45369 0.50401 0.0
C1127 C 0.80751 0.45008 0.49238 0.0
C1128 C 0.84469 0.48971 0.48287 0.0
C1129 C 0.80227 0.46645 0.47586 0.0
C1130 C 0.85968 0.52324 0.45779 0.0
C1131 C 0.9002 0.54288 0.49076 0.0
N1132 N 0.8207 0.48551 0.47158 0.0
N1133 N 0.88352 0.52169 0.4938 0.0
H1134 H 0.78636 0.9138 0.87198 0.0
H1135 H 0.68307 0.96257 0.78599 0.0
H1136 H 0.77707 0.8898 0.79823 0.0
H1137 H 0.70184 0.99493 0.85756 0.0
H1138 H 0.71354 0.93183 0.79093 0.0
H1139 H 0.75119 0.93939 0.86782 0.0
C1140 C 0.7767 0.91367 0.85495 0.0
C1141 C 0.78479 0.8998 0.8354 0.0
C1142 C 0.71087 0.94559 0.80556 0.0
C1143 C 0.74469 0.92929 0.83046 0.0
C1144 C 0.69346 0.9631 0.80276 0.0
C1145 C 0.69004 0.98146 0.82134 0.0
C1146 C 0.72483 0.94638 0.82712 0.0
C1147 C 0.70399 0.98125 0.8427 0.0
C1148 C 0.75675 0.92843 0.85255 0.0
C1149 C 0.77173 0.90055 0.81371 0.0
N1150 N 0.72079 0.96406 0.84498 0.0
N1151 N 0.7524 0.91513 0.81181 0.0
H1152 H 0.62918 0.54776 0.98672 0.0
H1153 H 0.7551 0.61575 0.93745 0.0
H1154 H 0.6453 0.53128 0.91542 0.0
H1155 H 0.72176 0.64903 -0.00245 0.0
H1156 H 0.71762 0.58183 0.93029 0.0
H1157 H 0.66665 0.58165 0.99281 0.0
C1158 C 0.64083 0.55112 0.97245 0.0
C1159 C 0.63428 0.53679 0.95056 0.0
C1160 C 0.7185 0.5967 0.94493 0.0
C1161 C 0.67684 0.57551 0.95729 0.0
C1162 C 0.73982 0.61606 0.94901 0.0
C1163 C 0.74155 0.63523 0.96813 0.0
C1164 C 0.69906 0.59635 0.9603 0.0
C1165 C 0.72121 0.63469 0.98256 0.0
C1166 C 0.662 0.57058 0.97584 0.0
C1167 C 0.64974 0.54207 0.93252 0.0
N1168 N 0.70092 0.61541 0.97847 0.0
N1169 N 0.67041 0.561 0.93629 0.0
H1170 H 0.29801 0.68753 0.28176 0.0
H1171 H 0.18082 0.57935 0.23091 0.0
H1172 H 0.27676 0.66599 0.20856 0.0
H1173 H 0.21139 0.58952 0.3025 0.0
H1174 H 0.21641 0.61058 0.22246 0.0
H1175 H 0.26731 0.6512 0.2898 0.0
C1176 C 0.28715 0.67497 0.26734 0.0
C1177 C 0.28989 0.67995 0.24442 0.0
C1178 C 0.21549 0.60587 0.23999 0.0
C1179 C 0.25435 0.63858 0.25359 0.0
C1180 C 0.1951 0.58808 0.24486 0.0
C1181 C 0.193 0.58198 0.26751 0.0
C1182 C 0.23382 0.61793 0.25793 0.0
C1183 C 0.21223 0.59371 0.28482 0.0
C1184 C 0.26953 0.6543 0.27198 0.0
C1185 C 0.27496 0.66322 0.2265 0.0
N1186 N 0.23173 0.61136 0.27971 0.0
N1187 N 0.25772 0.64342 0.23148 0.0
H1188 H 0.88285 0.50433 0.03415 0.0
H1189 H 0.87442 0.65231 0.03619 0.0
H1190 H 0.9452 0.5603 0.06951 0.0
H1191 H 0.85645 0.5997 0.9729 0.0
H1192 H 0.89419 0.61868 0.05399 0.0
H1193 H 0.86577 0.53912 0.01666 0.0
C1194 C 0.89307 0.52379 0.03826 0.0
C1195 C 0.91575 0.52911 0.0533 0.0
C1196 C 0.88606 0.61473 0.03616 0.0
C1197 C 0.89553 0.56912 0.0339 0.0
C1198 C 0.87485 0.63381 0.02602 0.0
C1199 C 0.86398 0.62877 0.00303 0.0
C1200 C 0.88554 0.59033 0.0234 0.0
C1201 C 0.86486 0.60445 0.99061 0.0
C1202 C 0.88316 0.54363 0.02833 0.0
C1203 C 0.92747 0.55508 0.05841 0.0
N1204 N 0.8751 0.58597 0.00106 0.0
N1205 N 0.91714 0.57413 0.04884 0.0
H1206 H 0.07511 0.00645 0.10087 0.0
H1207 H 0.14185 0.94011 0.99524 0.0
H1208 H 0.05147 0.00817 0.02883 0.0
H1209 H 0.16135 0.9296 0.06623 0.0
H1210 H 0.10688 0.96294 0.00761 0.0
H1211 H 0.10506 0.97637 0.08909 0.0
C1212 C 0.07605 0.00033 0.0826 0.0
C1213 C 0.06102 0.01011 0.06579 0.0
C1214 C 0.1186 0.95549 0.02053 0.0
C1215 C 0.09526 0.97589 0.05223 0.0
C1216 C 0.13861 0.94242 0.01346 0.0
C1217 C 0.15465 0.93311 0.02976 0.0
C1218 C 0.11469 0.95964 0.04417 0.0
C1219 C 0.14941 0.9365 0.05311 0.0
C1220 C 0.09318 0.98322 0.0759 0.0
C1221 C 0.0631 0.00162 0.04238 0.0
N1222 N 0.13003 0.94979 0.05969 0.0
N1223 N 0.07998 0.98516 0.03632 0.0
loop_
_geom_bond_atom_site_label_1
_geom_bond_atom_site_label_2
_geom_bond_distance
_geom_bond_site_symmetry_2
_ccdc_geom_bond_type
H0 C5 0.930 . S
H1 C8 0.930 . S
H2 C10 0.930 . S
H3 C4 1.016 . S
C4 H3 1.016 . S
C4 N11 1.286 . S
C5 H0 0.930 . S
C5 C6 1.397 . S
C5 C7 1.361 . S
C6 C5 1.397 . S
C6 C10 1.390 . S
C7 C5 1.361 . S
C7 C8 1.393 . S
C7 N11 1.413 . S
C8 H1 0.930 . S
C8 C7 1.393 . S
C8 C9 1.399 . S
C9 C8 1.399 . S
C9 C10 1.381 . S
C10 H2 0.930 . S
C10 C6 1.390 . S
C10 C9 1.381 . S
N11 C4 1.286 . S
N11 C7 1.413 . S
H12 C17 0.930 . S
H13 C20 0.930 . S
H14 C22 0.930 . S
H15 C16 1.016 . S
C16 H15 1.016 . S
C16 N23 1.286 . S
C17 H12 0.930 . S
C17 C18 1.397 . S
C17 C19 1.361 . S
C18 C17 1.397 . S
C18 C22 1.390 . S
C19 C17 1.361 . S
C19 C20 1.393 . S
C19 N23 1.413 . S
C20 H13 0.930 . S
C20 C19 1.393 . S
C20 C21 1.399 . S
C21 C20 1.399 . S
C21 C22 1.381 . S
C22 H14 0.930 . S
C22 C18 1.390 . S
C22 C21 1.381 . S
N23 C16 1.286 . S
N23 C19 1.413 . S
H24 C29 0.930 . S
H25 C32 0.930 . S
H26 C34 0.930 . S
H27 C28 1.016 . S
C28 H27 1.016 . S
C28 N35 1.286 . S
C29 H24 0.930 . S
C29 C30 1.397 . S
C29 C31 1.361 . S
C30 C29 1.397 . S
C30 C34 1.390 . S
C31 C29 1.361 . S
C31 C32 1.393 . S
C31 N35 1.413 . S
C32 H25 0.930 . S
C32 C31 1.393 . S
C32 C33 1.399 . S
C33 C32 1.399 . S
C33 C34 1.381 . S
C34 H26 0.930 . S
C34 C30 1.390 . S
C34 C33 1.381 . S
N35 C28 1.286 . S
N35 C31 1.413 . S
H36 C41 0.930 . S
H37 C44 0.930 . S
H38 C46 0.930 . S
H39 C40 1.016 . S
C40 H39 1.016 . S
C40 N47 1.286 . S
C41 H36 0.930 . S
C41 C42 1.397 . S
C41 C43 1.361 . S
C42 C41 1.397 . S
C42 C46 1.390 . S
C43 C41 1.361 . S
C43 C44 1.393 . S
C43 N47 1.413 . S
C44 H37 0.930 . S
C44 C43 1.393 . S
C44 C45 1.399 . S
C45 C44 1.399 . S
C45 C46 1.381 . S
C46 H38 0.930 . S
C46 C42 1.390 . S
C46 C45 1.381 . S
N47 C40 1.286 . S
N47 C43 1.413 . S
H48 C53 0.930 . S
H49 C56 0.930 . S
H50 C58 0.930 1_545 S
H51 C52 1.016 . S
C52 H51 1.016 . S
C52 N59 1.286 . S
C53 H48 0.930 . S
C53 C54 1.397 . S
C53 C55 1.361 . S
C54 C53 1.397 . S
C54 C58 1.390 . S
C55 C53 1.361 . S
C55 C56 1.393 . S
C55 N59 1.413 . S
C56 H49 0.930 . S
C56 C55 1.393 . S
C56 C57 1.399 . S
C57 C56 1.399 . S
C57 C58 1.381 . S
C58 H50 0.930 1_565 S
C58 C54 1.390 . S
C58 C57 1.381 . S
N59 C52 1.286 . S
N59 C55 1.413 . S
H60 C65 0.930 . S
H61 C68 0.930 . S
H62 C70 0.930 . S
H63 C64 1.016 . S
C64 H63 1.016 . S
C64 N71 1.286 . S
C65 H60 0.930 . S
C65 C66 1.397 . S
C65 C67 1.361 . S
C66 C65 1.397 . S
C66 C70 1.390 . S
C67 C65 1.361 . S
C67 C68 1.393 . S
C67 N71 1.413 . S
C68 H61 0.930 . S
C68 C67 1.393 . S
C68 C69 1.399 . S
C69 C68 1.399 . S
C69 C70 1.381 . S
C70 H62 0.930 . S
C70 C66 1.390 . S
C70 C69 1.381 . S
N71 C64 1.286 . S
N71 C67 1.413 . S
H72 C77 0.930 . S
H73 C80 0.930 . S
H74 C82 0.930 . S
H75 C76 1.016 . S
C76 H75 1.016 . S
C76 N83 1.286 . S
C77 H72 0.930 . S
C77 C78 1.397 . S
C77 C79 1.361 . S
C78 C77 1.397 . S
C78 C82 1.390 . S
C79 C77 1.361 . S
C79 C80 1.393 . S
C79 N83 1.413 . S
C80 H73 0.930 . S
C80 C79 1.393 . S
C80 C81 1.399 . S
C81 C80 1.399 . S
C81 C82 1.381 . S
C82 H74 0.930 . S
C82 C78 1.390 . S
C82 C81 1.381 . S
N83 C76 1.286 . S
N83 C79 1.413 . S
H84 C89 0.930 . S
H85 C92 0.930 . S
H86 C94 0.930 . S
H87 C88 1.016 . S
C88 H87 1.016 . S
C88 N95 1.286 . S
C89 H84 0.930 . S
C89 C90 1.397 . S
C89 C91 1.361 . S
C90 C89 1.397 . S
C90 C94 1.390 . S
C91 C89 1.361 . S
C91 C92 1.393 . S
C91 N95 1.413 . S
C92 H85 0.930 . S
C92 C91 1.393 . S
C92 C93 1.399 . S
C93 C92 1.399 . S
C93 C94 1.381 . S
C94 H86 0.930 . S
C94 C90 1.390 . S
C94 C93 1.381 . S
N95 C88 1.286 . S
N95 C91 1.413 . S
H96 C101 0.930 . S
H97 C104 0.930 . S
H98 C106 0.930 . S
H99 C100 1.016 . S
C100 H99 1.016 . S
C100 N107 1.286 . S
C101 H96 0.930 . S
C101 C102 1.397 . S
C101 C103 1.361 . S
C102 C101 1.397 . S
C102 C106 1.390 . S
C103 C101 1.361 . S
C103 C104 1.393 . S
C103 N107 1.413 . S
C104 H97 0.930 . S
C104 C103 1.393 . S
C104 C105 1.399 . S
C105 C104 1.399 . S
C105 C106 1.381 . S
C106 H98 0.930 . S
C106 C102 1.390 . S
C106 C105 1.381 . S
N107 C100 1.286 . S
N107 C103 1.413 . S
H108 C113 0.930 . S
H109 C116 0.930 . S
H110 C118 0.930 . S
H111 C112 1.016 . S
C112 H111 1.016 . S
C112 N119 1.286 . S
C113 H108 0.930 . S
C113 C114 1.397 . S
C113 C115 1.361 . S
C114 C113 1.397 . S
C114 C118 1.390 . S
C115 C113 1.361 . S
C115 C116 1.393 . S
C115 N119 1.413 . S
C116 H109 0.930 . S
C116 C115 1.393 . S
C116 C117 1.399 . S
C117 C116 1.399 . S
C117 C118 1.381 . S
C118 H110 0.930 . S
C118 C114 1.390 . S
C118 C117 1.381 . S
N119 C112 1.286 . S
N119 C115 1.413 . S
H120 C125 0.930 . S
H121 C128 0.930 . S
H122 C130 0.930 . S
H123 C124 1.016 . S
C124 H123 1.016 . S
C124 N131 1.286 . S
C125 H120 0.930 . S
C125 C126 1.397 . S
C125 C127 1.361 . S
C126 C125 1.397 . S
C126 C130 1.390 . S
C127 C125 1.361 . S
C127 C128 1.393 . S
C127 N131 1.413 . S
C128 H121 0.930 . S
C128 C127 1.393 . S
C128 C129 1.399 . S
C129 C128 1.399 . S
C129 C130 1.381 . S
C130 H122 0.930 . S
C130 C126 1.390 . S
C130 C129 1.381 . S
N131 C124 1.286 . S
N131 C127 1.413 . S
H132 C137 0.930 . S
H133 C140 0.930 . S
H134 C142 0.930 . S
H135 C136 1.016 . S
C136 H135 1.016 . S
C136 N143 1.286 . S
C137 H132 0.930 . S
C137 C138 1.397 . S
C137 C139 1.361 . S
C138 C137 1.397 . S
C138 C142 1.390 . S
C139 C137 1.361 . S
C139 C140 1.393 . S
C139 N143 1.413 . S
C140 H133 0.930 . S
C140 C139 1.393 . S
C140 C141 1.399 . S
C141 C140 1.399 . S
C141 C142 1.381 . S
C142 H134 0.930 . S
C142 C138 1.390 . S
C142 C141 1.381 . S
N143 C136 1.286 . S
N143 C139 1.413 . S
H144 C149 0.930 . S
H145 C152 0.930 . S
H146 C154 0.930 . S
H147 C148 1.016 . S
C148 H147 1.016 . S
C148 N155 1.286 . S
C149 H144 0.930 . S
C149 C150 1.397 . S
C149 C151 1.361 . S
C150 C149 1.397 . S
C150 C154 1.390 . S
C151 C149 1.361 . S
C151 C152 1.393 . S
C151 N155 1.413 . S
C152 H145 0.930 . S
C152 C151 1.393 . S
C152 C153 1.399 . S
C153 C152 1.399 . S
C153 C154 1.381 . S
C154 H146 0.930 . S
C154 C150 1.390 . S
C154 C153 1.381 . S
N155 C148 1.286 . S
N155 C151 1.413 . S
H156 C161 0.930 . S
H157 C164 0.930 . S
H158 C166 0.930 . S
H159 C160 1.016 . S
C160 H159 1.016 . S
C160 N167 1.286 . S
C161 H156 0.930 . S
C161 C162 1.397 . S
C161 C163 1.361 . S
C162 C161 1.397 . S
C162 C166 1.390 . S
C163 C161 1.361 . S
C163 C164 1.393 . S
C163 N167 1.413 . S
C164 H157 0.930 . S
C164 C163 1.393 . S
C164 C165 1.399 . S
C165 C164 1.399 . S
C165 C166 1.381 . S
C166 H158 0.930 . S
C166 C162 1.390 . S
C166 C165 1.381 . S
N167 C160 1.286 . S
N167 C163 1.413 . S
H168 C173 0.930 . S
H169 C176 0.930 . S
H170 C178 0.930 . S
H171 C172 1.016 . S
C172 H171 1.016 . S
C172 N179 1.286 . S
C173 H168 0.930 . S
C173 C174 1.397 . S
C173 C175 1.361 . S
C174 C173 1.397 . S
C174 C178 1.390 . S
C175 C173 1.361 . S
C175 C176 1.393 . S
C175 N179 1.413 . S
C176 H169 0.930 . S
C176 C175 1.393 . S
C176 C177 1.399 . S
C177 C176 1.399 . S
C177 C178 1.381 . S
C178 H170 0.930 . S
C178 C174 1.390 . S
C178 C177 1.381 . S
N179 C172 1.286 . S
N179 C175 1.413 . S
H180 C185 0.930 . S
H181 C188 0.930 . S
H182 C190 0.930 . S
H183 C184 1.016 . S
C184 H183 1.016 . S
C184 N191 1.286 . S
C185 H180 0.930 . S
C185 C186 1.397 . S
C185 C187 1.361 . S
C186 C185 1.397 . S
C186 C190 1.390 . S
C187 C185 1.361 . S
C187 C188 1.393 . S
C187 N191 1.413 . S
C188 H181 0.930 . S
C188 C187 1.393 . S
C188 C189 1.399 . S
C189 C188 1.399 . S
C189 C190 1.381 . S
C190 H182 0.930 . S
C190 C186 1.390 . S
C190 C189 1.381 . S
N191 C184 1.286 . S
N191 C187 1.413 . S
O192 Cd193 2.223 . S
O192 C200 1.315 . S
Cd193 O192 2.223 . S
Cd193 O196 2.297 . S
Cd193 O197 2.439 . S
Cd193 O203 2.240 . S
Cd194 O195 2.240 . S
Cd194 O202 2.223 . S
Cd194 O204 2.297 . S
Cd194 O205 2.439 . S
O195 Cd194 2.240 . S
O195 C200 1.279 . S
O196 Cd193 2.297 . S
O196 C198 1.247 . S
O197 Cd193 2.439 . S
O197 C198 1.208 . S
C198 O196 1.247 . S
C198 O197 1.208 . S
C199 O204 1.247 . S
C199 O205 1.208 . S
C200 O192 1.315 . S
C200 O195 1.279 . S
C201 O202 1.315 . S
C201 O203 1.279 . S
O202 Cd194 2.223 . S
O202 C201 1.315 . S
O203 Cd193 2.240 . S
O203 C201 1.279 . S
O204 Cd194 2.297 . S
O204 C199 1.247 . S
O205 Cd194 2.439 . S
O205 C199 1.208 . S
O206 Cd207 2.223 . S
O206 C214 1.315 . S
Cd207 O206 2.223 . S
Cd207 O210 2.297 . S
Cd207 O211 2.439 . S
Cd207 O217 2.240 . S
Cd208 O209 2.240 . S
Cd208 O216 2.223 . S
Cd208 O218 2.297 . S
Cd208 O219 2.439 . S
O209 Cd208 2.240 . S
O209 C214 1.279 . S
O210 Cd207 2.297 . S
O210 C212 1.247 . S
O211 Cd207 2.439 . S
O211 C212 1.208 . S
C212 O210 1.247 . S
C212 O211 1.208 . S
C213 O218 1.247 . S
C213 O219 1.208 . S
C214 O206 1.315 . S
C214 O209 1.279 . S
C215 O216 1.315 . S
C215 O217 1.279 . S
O216 Cd208 2.223 . S
O216 C215 1.315 . S
O217 Cd207 2.240 . S
O217 C215 1.279 . S
O218 Cd208 2.297 . S
O218 C213 1.247 . S
O219 Cd208 2.439 . S
O219 C213 1.208 . S
O220 Cd221 2.223 1_556 S
O220 C228 1.315 . S
Cd221 O220 2.223 1_554 S
Cd221 O224 2.297 . S
Cd221 O225 2.439 . S
Cd221 O231 2.240 . S
Cd222 O223 2.240 . S
Cd222 O230 2.223 . S
Cd222 O232 2.297 1_556 S
Cd222 O233 2.439 1_556 S
O223 Cd222 2.240 . S
O223 C228 1.279 . S
O224 Cd221 2.297 . S
O224 C226 1.247 . S
O225 Cd221 2.439 . S
O225 C226 1.208 . S
C226 O224 1.247 . S
C226 O225 1.208 . S
C227 O232 1.247 . S
C227 O233 1.208 . S
C228 O220 1.315 . S
C228 O223 1.279 . S
C229 O230 1.315 . S
C229 O231 1.279 1_556 S
O230 Cd222 2.223 . S
O230 C229 1.315 . S
O231 Cd221 2.240 . S
O231 C229 1.279 1_554 S
O232 Cd222 2.297 1_554 S
O232 C227 1.247 . S
O233 Cd222 2.439 1_554 S
O233 C227 1.208 . S
O234 Cd235 2.223 . S
O234 C242 1.315 . S
Cd235 O234 2.223 . S
Cd235 O238 2.297 . S
Cd235 O239 2.439 . S
Cd235 O245 2.240 . S
Cd236 O237 2.240 . S
Cd236 O244 2.223 . S
Cd236 O246 2.297 . S
Cd236 O247 2.439 . S
O237 Cd236 2.240 . S
O237 C242 1.279 . S
O238 Cd235 2.297 . S
O238 C240 1.247 . S
O239 Cd235 2.439 . S
O239 C240 1.208 . S
C240 O238 1.247 . S
C240 O239 1.208 . S
C241 O246 1.247 . S
C241 O247 1.208 . S
C242 O234 1.315 . S
C242 O237 1.279 . S
C243 O244 1.315 . S
C243 O245 1.279 . S
O244 Cd236 2.223 . S
O244 C243 1.315 . S
O245 Cd235 2.240 . S
O245 C243 1.279 . S
O246 Cd236 2.297 . S
O246 C241 1.247 . S
O247 Cd236 2.439 . S
O247 C241 1.208 . S
O248 Cd249 2.223 . S
O248 C256 1.315 . S
Cd249 O248 2.223 . S
Cd249 O252 2.297 . S
Cd249 O253 2.439 . S
Cd249 O259 2.240 . S
Cd250 O251 2.240 . S
Cd250 O258 2.223 . S
Cd250 O260 2.297 . S
Cd250 O261 2.439 . S
O251 Cd250 2.240 . S
O251 C256 1.279 . S
O252 Cd249 2.297 . S
O252 C254 1.247 . S
O253 Cd249 2.439 . S
O253 C254 1.208 . S
C254 O252 1.247 . S
C254 O253 1.208 . S
C255 O260 1.247 . S
C255 O261 1.208 . S
C256 O248 1.315 . S
C256 O251 1.279 . S
C257 O258 1.315 . S
C257 O259 1.279 . S
O258 Cd250 2.223 . S
O258 C257 1.315 . S
O259 Cd249 2.240 . S
O259 C257 1.279 . S
O260 Cd250 2.297 . S
O260 C255 1.247 . S
O261 Cd250 2.439 . S
O261 C255 1.208 . S
O262 Cd263 2.223 . S
O262 C270 1.315 . S
Cd263 O262 2.223 . S
Cd263 O266 2.297 . S
Cd263 O267 2.439 . S
Cd263 O273 2.240 . S
Cd264 O265 2.240 . S
Cd264 O272 2.223 . S
Cd264 O274 2.297 . S
Cd264 O275 2.439 . S
O265 Cd264 2.240 . S
O265 C270 1.279 . S
O266 Cd263 2.297 . S
O266 C268 1.247 . S
O267 Cd263 2.439 . S
O267 C268 1.208 . S
C268 O266 1.247 . S
C268 O267 1.208 . S
C269 O274 1.247 . S
C269 O275 1.208 . S
C270 O262 1.315 . S
C270 O265 1.279 . S
C271 O272 1.315 . S
C271 O273 1.279 . S
O272 Cd264 2.223 . S
O272 C271 1.315 . S
O273 Cd263 2.240 . S
O273 C271 1.279 . S
O274 Cd264 2.297 . S
O274 C269 1.247 . S
O275 Cd264 2.439 . S
O275 C269 1.208 . S
O276 Cd277 2.223 . S
O276 C284 1.315 . S
Cd277 O276 2.223 . S
Cd277 O280 2.297 . S
Cd277 O281 2.439 . S
Cd277 O287 2.240 . S
Cd278 O279 2.240 . S
Cd278 O286 2.223 . S
Cd278 O288 2.297 . S
Cd278 O289 2.439 . S
O279 Cd278 2.240 . S
O279 C284 1.279 . S
O280 Cd277 2.297 . S
O280 C282 1.247 . S
O281 Cd277 2.439 . S
O281 C282 1.208 . S
C282 O280 1.247 . S
C282 O281 1.208 . S
C283 O288 1.247 . S
C283 O289 1.208 . S
C284 O276 1.315 . S
C284 O279 1.279 . S
C285 O286 1.315 . S
C285 O287 1.279 . S
O286 Cd278 2.223 . S
O286 C285 1.315 . S
O287 Cd277 2.240 . S
O287 C285 1.279 . S
O288 Cd278 2.297 . S
O288 C283 1.247 . S
O289 Cd278 2.439 . S
O289 C283 1.208 . S
O290 Cd291 2.223 1_545 S
O290 C298 1.315 . S
Cd291 O290 2.223 1_565 S
Cd291 O294 2.297 . S
Cd291 O295 2.439 . S
Cd291 O301 2.240 1_565 S
Cd292 O293 2.240 . S
Cd292 O300 2.223 . S
Cd292 O302 2.297 . S
Cd292 O303 2.439 1_545 S
O293 Cd292 2.240 . S
O293 C298 1.279 . S
O294 Cd291 2.297 . S
O294 C296 1.247 . S
O295 Cd291 2.439 . S
O295 C296 1.208 . S
C296 O294 1.247 . S
C296 O295 1.208 . S
C297 O302 1.247 1_565 S
C297 O303 1.208 . S
C298 O290 1.315 . S
C298 O293 1.279 . S
C299 O300 1.315 . S
C299 O301 1.279 . S
O300 Cd292 2.223 . S
O300 C299 1.315 . S
O301 Cd291 2.240 1_545 S
O301 C299 1.279 . S
O302 Cd292 2.297 . S
O302 C297 1.247 1_545 S
O303 Cd292 2.439 1_565 S
O303 C297 1.208 . S
O304 Cd305 2.223 . S
O304 C312 1.315 . S
Cd305 O304 2.223 . S
Cd305 O308 2.297 1_655 S
Cd305 O309 2.439 1_655 S
Cd305 O315 2.240 . S
Cd306 O307 2.240 . S
Cd306 O314 2.223 1_455 S
Cd306 O316 2.297 . S
Cd306 O317 2.439 . S
O307 Cd306 2.240 . S
O307 C312 1.279 1_455 S
O308 Cd305 2.297 1_455 S
O308 C310 1.247 . S
O309 Cd305 2.439 1_455 S
O309 C310 1.208 . S
C310 O308 1.247 . S
C310 O309 1.208 . S
C311 O316 1.247 . S
C311 O317 1.208 . S
C312 O304 1.315 . S
C312 O307 1.279 1_655 S
C313 O314 1.315 . S
C313 O315 1.279 . S
O314 Cd306 2.223 1_655 S
O314 C313 1.315 . S
O315 Cd305 2.240 . S
O315 C313 1.279 . S
O316 Cd306 2.297 . S
O316 C311 1.247 . S
O317 Cd306 2.439 . S
O317 C311 1.208 . S
O318 Cd319 2.223 . S
O318 C326 1.315 . S
Cd319 O318 2.223 . S
Cd319 O322 2.297 . S
Cd319 O323 2.439 . S
Cd319 O329 2.240 . S
Cd320 O321 2.240 . S
Cd320 O328 2.223 . S
Cd320 O330 2.297 . S
Cd320 O331 2.439 . S
O321 Cd320 2.240 . S
O321 C326 1.279 . S
O322 Cd319 2.297 . S
O322 C324 1.247 . S
O323 Cd319 2.439 . S
O323 C324 1.208 . S
C324 O322 1.247 . S
C324 O323 1.208 . S
C325 O330 1.247 . S
C325 O331 1.208 . S
C326 O318 1.315 . S
C326 O321 1.279 . S
C327 O328 1.315 . S
C327 O329 1.279 . S
O328 Cd320 2.223 . S
O328 C327 1.315 . S
O329 Cd319 2.240 . S
O329 C327 1.279 . S
O330 Cd320 2.297 . S
O330 C325 1.247 . S
O331 Cd320 2.439 . S
O331 C325 1.208 . S
O332 Cd333 2.223 1_655 S
O332 C340 1.315 . S
Cd333 O332 2.223 1_455 S
Cd333 O336 2.297 . S
Cd333 O337 2.439 . S
Cd333 O343 2.240 . S
Cd334 O335 2.240 . S
Cd334 O342 2.223 1_455 S
Cd334 O344 2.297 . S
Cd334 O345 2.439 . S
O335 Cd334 2.240 . S
O335 C340 1.279 1_455 S
O336 Cd333 2.297 . S
O336 C338 1.247 . S
O337 Cd333 2.439 . S
O337 C338 1.208 . S
C338 O336 1.247 . S
C338 O337 1.208 . S
C339 O344 1.247 . S
C339 O345 1.208 . S
C340 O332 1.315 . S
C340 O335 1.279 1_655 S
C341 O342 1.315 . S
C341 O343 1.279 1_655 S
O342 Cd334 2.223 1_655 S
O342 C341 1.315 . S
O343 Cd333 2.240 . S
O343 C341 1.279 1_455 S
O344 Cd334 2.297 . S
O344 C339 1.247 . S
O345 Cd334 2.439 . S
O345 C339 1.208 . S
O346 Cd347 2.223 . S
O346 C354 1.315 . S
Cd347 O346 2.223 . S
Cd347 O350 2.297 . S
Cd347 O351 2.439 . S
Cd347 O357 2.240 . S
Cd348 O349 2.240 . S
Cd348 O356 2.223 . S
Cd348 O358 2.297 . S
Cd348 O359 2.439 . S
O349 Cd348 2.240 . S
O349 C354 1.279 . S
O350 Cd347 2.297 . S
O350 C352 1.247 . S
O351 Cd347 2.439 . S
O351 C352 1.208 . S
C352 O350 1.247 . S
C352 O351 1.208 . S
C353 O358 1.247 . S
C353 O359 1.208 . S
C354 O346 1.315 . S
C354 O349 1.279 . S
C355 O356 1.315 . S
C355 O357 1.279 . S
O356 Cd348 2.223 . S
O356 C355 1.315 . S
O357 Cd347 2.240 . S
O357 C355 1.279 . S
O358 Cd348 2.297 . S
O358 C353 1.247 . S
O359 Cd348 2.439 . S
O359 C353 1.208 . S
H360 C366 0.930 . S
H361 C370 0.930 . S
H362 C375 0.929 . S
H363 C373 0.929 1_554 S
H364 C368 0.929 . S
H365 C374 0.929 . S
C366 H360 0.930 . S
C366 C367 1.367 . S
C366 C374 1.378 . S
C367 C366 1.367 . S
C367 C375 1.433 . S
C368 H364 0.929 . S
C368 C370 1.378 . S
C368 C372 1.350 . S
C369 C372 1.463 . S
C369 C374 1.350 . S
C369 N377 1.427 . S
C370 H361 0.930 . S
C370 C368 1.378 . S
C370 C371 1.367 . S
C371 C370 1.367 . S
C371 C373 1.433 . S
C372 C368 1.350 . S
C372 C369 1.463 . S
C372 N376 1.427 . S
C373 H363 0.929 1_556 S
C373 C371 1.433 . S
C373 N376 1.384 . S
C374 H365 0.929 . S
C374 C366 1.378 . S
C374 C369 1.350 . S
C375 H362 0.929 . S
C375 C367 1.433 . S
C375 N377 1.384 . S
N376 C372 1.427 . S
N376 C373 1.384 . S
N377 C369 1.427 . S
N377 C375 1.384 . S
H378 C384 0.930 . S
H379 C388 0.930 . S
H380 C393 0.929 . S
H381 C391 0.929 . S
H382 C386 0.929 . S
H383 C392 0.929 . S
C384 H378 0.930 . S
C384 C385 1.367 . S
C384 C392 1.378 1_655 S
C385 C384 1.367 . S
C385 C393 1.433 . S
C386 H382 0.929 . S
C386 C388 1.378 . S
C386 C390 1.350 . S
C387 C390 1.463 . S
C387 C392 1.350 . S
C387 N395 1.427 1_455 S
C388 H379 0.930 . S
C388 C386 1.378 . S
C388 C389 1.367 . S
C389 C388 1.367 . S
C389 C391 1.433 . S
C390 C386 1.350 . S
C390 C387 1.463 . S
C390 N394 1.427 . S
C391 H381 0.929 . S
C391 C389 1.433 . S
C391 N394 1.384 . S
C392 H383 0.929 . S
C392 C384 1.378 1_455 S
C392 C387 1.350 . S
C393 H380 0.929 . S
C393 C385 1.433 . S
C393 N395 1.384 . S
N394 C390 1.427 . S
N394 C391 1.384 . S
N395 C387 1.427 1_655 S
N395 C393 1.384 . S
H396 C402 0.930 . S
H397 C406 0.930 . S
H398 C411 0.929 . S
H399 C409 0.929 . S
H400 C404 0.929 . S
H401 C410 0.929 . S
C402 H396 0.930 . S
C402 C403 1.367 . S
C402 C410 1.378 . S
C403 C402 1.367 . S
C403 C411 1.433 . S
C404 H400 0.929 . S
C404 C406 1.378 . S
C404 C408 1.350 . S
C405 C408 1.463 . S
C405 C410 1.350 . S
C405 N413 1.427 . S
C406 H397 0.930 . S
C406 C404 1.378 . S
C406 C407 1.367 . S
C407 C406 1.367 . S
C407 C409 1.433 . S
C408 C404 1.350 . S
C408 C405 1.463 . S
C408 N412 1.427 . S
C409 H399 0.929 . S
C409 C407 1.433 . S
C409 N412 1.384 . S
C410 H401 0.929 . S
C410 C402 1.378 . S
C410 C405 1.350 . S
C411 H398 0.929 . S
C411 C403 1.433 . S
C411 N413 1.384 . S
N412 C408 1.427 . S
N412 C409 1.384 . S
N413 C405 1.427 . S
N413 C411 1.384 . S
H414 C420 0.930 . S
H415 C424 0.930 . S
H416 C429 0.929 . S
H417 C427 0.929 . S
H418 C422 0.929 1_565 S
H419 C428 0.929 . S
C420 H414 0.930 . S
C420 C421 1.367 1_545 S
C420 C428 1.378 . S
C421 C420 1.367 1_565 S
C421 C429 1.433 . S
C422 H418 0.929 1_545 S
C422 C424 1.378 1_455 S
C422 C426 1.350 . S
C423 C426 1.463 . S
C423 C428 1.350 . S
C423 N431 1.427 1_545 S
C424 H415 0.930 . S
C424 C422 1.378 1_655 S
C424 C425 1.367 . S
C425 C424 1.367 . S
C425 C427 1.433 1_655 S
C426 C422 1.350 . S
C426 C423 1.463 . S
C426 N430 1.427 . S
C427 H417 0.929 . S
C427 C425 1.433 1_455 S
C427 N430 1.384 . S
C428 H419 0.929 . S
C428 C420 1.378 . S
C428 C423 1.350 . S
C429 H416 0.929 . S
C429 C421 1.433 . S
C429 N431 1.384 . S
N430 C426 1.427 . S
N430 C427 1.384 . S
N431 C423 1.427 1_565 S
N431 C429 1.384 . S
H432 C438 0.930 . S
H433 C442 0.930 . S
H434 C447 0.929 . S
H435 C445 0.929 . S
H436 C440 0.929 . S
H437 C446 0.929 . S
C438 H432 0.930 . S
C438 C439 1.367 . S
C438 C446 1.378 . S
C439 C438 1.367 . S
C439 C447 1.433 . S
C440 H436 0.929 . S
C440 C442 1.378 . S
C440 C444 1.350 . S
C441 C444 1.463 . S
C441 C446 1.350 . S
C441 N449 1.427 . S
C442 H433 0.930 . S
C442 C440 1.378 . S
C442 C443 1.367 . S
C443 C442 1.367 . S
C443 C445 1.433 . S
C444 C440 1.350 . S
C444 C441 1.463 . S
C444 N448 1.427 . S
C445 H435 0.929 . S
C445 C443 1.433 . S
C445 N448 1.384 . S
C446 H437 0.929 . S
C446 C438 1.378 . S
C446 C441 1.350 . S
C447 H434 0.929 . S
C447 C439 1.433 . S
C447 N449 1.384 . S
N448 C444 1.427 . S
N448 C445 1.384 . S
N449 C441 1.427 . S
N449 C447 1.384 . S
H450 C456 0.930 . S
H451 C460 0.930 . S
H452 C465 0.929 . S
H453 C463 0.929 . S
H454 C458 0.929 . S
H455 C464 0.929 . S
C456 H450 0.930 . S
C456 C457 1.367 . S
C456 C464 1.378 . S
C457 C456 1.367 . S
C457 C465 1.433 . S
C458 H454 0.929 . S
C458 C460 1.378 . S
C458 C462 1.350 . S
C459 C462 1.463 . S
C459 C464 1.350 . S
C459 N467 1.427 . S
C460 H451 0.930 . S
C460 C458 1.378 . S
C460 C461 1.367 . S
C461 C460 1.367 . S
C461 C463 1.433 . S
C462 C458 1.350 . S
C462 C459 1.463 . S
C462 N466 1.427 . S
C463 H453 0.929 . S
C463 C461 1.433 . S
C463 N466 1.384 . S
C464 H455 0.929 . S
C464 C456 1.378 . S
C464 C459 1.350 . S
C465 H452 0.929 . S
C465 C457 1.433 . S
C465 N467 1.384 . S
N466 C462 1.427 . S
N466 C463 1.384 . S
N467 C459 1.427 . S
N467 C465 1.384 . S
H468 C474 0.930 . S
H469 C478 0.930 . S
H470 C483 0.929 . S
H471 C481 0.929 . S
H472 C476 0.929 . S
H473 C482 0.929 . S
C474 H468 0.930 . S
C474 C475 1.367 . S
C474 C482 1.378 . S
C475 C474 1.367 . S
C475 C483 1.433 . S
C476 H472 0.929 . S
C476 C478 1.378 . S
C476 C480 1.350 . S
C477 C480 1.463 . S
C477 C482 1.350 . S
C477 N485 1.427 . S
C478 H469 0.930 . S
C478 C476 1.378 . S
C478 C479 1.367 . S
C479 C478 1.367 . S
C479 C481 1.433 . S
C480 C476 1.350 . S
C480 C477 1.463 . S
C480 N484 1.427 . S
C481 H471 0.929 . S
C481 C479 1.433 . S
C481 N484 1.384 . S
C482 H473 0.929 . S
C482 C474 1.378 . S
C482 C477 1.350 . S
C483 H470 0.929 . S
C483 C475 1.433 . S
C483 N485 1.384 . S
N484 C480 1.427 . S
N484 C481 1.384 . S
N485 C477 1.427 . S
N485 C483 1.384 . S
H486 C492 0.930 . S
H487 C496 0.930 . S
H488 C501 0.929 . S
H489 C499 0.929 . S
H490 C494 0.929 . S
H491 C500 0.929 . S
C492 H486 0.930 . S
C492 C493 1.367 . S
C492 C500 1.378 . S
C493 C492 1.367 . S
C493 C501 1.433 . S
C494 H490 0.929 . S
C494 C496 1.378 . S
C494 C498 1.350 . S
C495 C498 1.463 . S
C495 C500 1.350 . S
C495 N503 1.427 . S
C496 H487 0.930 . S
C496 C494 1.378 . S
C496 C497 1.367 . S
C497 C496 1.367 . S
C497 C499 1.433 . S
C498 C494 1.350 . S
C498 C495 1.463 . S
C498 N502 1.427 . S
C499 H489 0.929 . S
C499 C497 1.433 . S
C499 N502 1.384 . S
C500 H491 0.929 . S
C500 C492 1.378 . S
C500 C495 1.350 . S
C501 H488 0.929 . S
C501 C493 1.433 . S
C501 N503 1.384 . S
N502 C498 1.427 . S
N502 C499 1.384 . S
N503 C495 1.427 . S
N503 C501 1.384 . S
H504 C510 0.930 . S
H505 C514 0.930 . S
H506 C519 0.929 . S
H507 C517 0.929 . S
H508 C512 0.929 . S
H509 C518 0.929 . S
C510 H504 0.930 . S
C510 C511 1.367 . S
C510 C518 1.378 . S
C511 C510 1.367 . S
C511 C519 1.433 . S
C512 H508 0.929 . S
C512 C514 1.378 . S
C512 C516 1.350 . S
C513 C516 1.463 . S
C513 C518 1.350 . S
C513 N521 1.427 . S
C514 H505 0.930 . S
C514 C512 1.378 . S
C514 C515 1.367 . S
C515 C514 1.367 . S
C515 C517 1.433 . S
C516 C512 1.350 . S
C516 C513 1.463 . S
C516 N520 1.427 . S
C517 H507 0.929 . S
C517 C515 1.433 . S
C517 N520 1.384 . S
C518 H509 0.929 . S
C518 C510 1.378 . S
C518 C513 1.350 . S
C519 H506 0.929 . S
C519 C511 1.433 . S
C519 N521 1.384 . S
N520 C516 1.427 . S
N520 C517 1.384 . S
N521 C513 1.427 . S
N521 C519 1.384 . S
H522 C528 0.930 . S
H523 C532 0.930 . S
H524 C537 0.929 . S
H525 C535 0.929 . S
H526 C530 0.929 . S
H527 C536 0.929 . S
C528 H522 0.930 . S
C528 C529 1.367 . S
C528 C536 1.378 . S
C529 C528 1.367 . S
C529 C537 1.433 . S
C530 H526 0.929 . S
C530 C532 1.378 . S
C530 C534 1.350 . S
C531 C534 1.463 . S
C531 C536 1.350 . S
C531 N539 1.427 . S
C532 H523 0.930 . S
C532 C530 1.378 . S
C532 C533 1.367 . S
C533 C532 1.367 . S
C533 C535 1.433 . S
C534 C530 1.350 . S
C534 C531 1.463 . S
C534 N538 1.427 . S
C535 H525 0.929 . S
C535 C533 1.433 . S
C535 N538 1.384 . S
C536 H527 0.929 . S
C536 C528 1.378 . S
C536 C531 1.350 . S
C537 H524 0.929 . S
C537 C529 1.433 . S
C537 N539 1.384 . S
N538 C534 1.427 . S
N538 C535 1.384 . S
N539 C531 1.427 . S
N539 C537 1.384 . S
H540 C546 0.930 . S
H541 C550 0.930 . S
H542 C555 0.929 . S
H543 C553 0.929 . S
H544 C548 0.929 . S
H545 C554 0.929 . S
C546 H540 0.930 . S
C546 C547 1.367 . S
C546 C554 1.378 . S
C547 C546 1.367 . S
C547 C555 1.433 . S
C548 H544 0.929 . S
C548 C550 1.378 . S
C548 C552 1.350 . S
C549 C552 1.463 . S
C549 C554 1.350 . S
C549 N557 1.427 . S
C550 H541 0.930 . S
C550 C548 1.378 . S
C550 C551 1.367 . S
C551 C550 1.367 . S
C551 C553 1.433 . S
C552 C548 1.350 . S
C552 C549 1.463 . S
C552 N556 1.427 . S
C553 H543 0.929 . S
C553 C551 1.433 . S
C553 N556 1.384 . S
C554 H545 0.929 . S
C554 C546 1.378 . S
C554 C549 1.350 . S
C555 H542 0.929 . S
C555 C547 1.433 . S
C555 N557 1.384 . S
N556 C552 1.427 . S
N556 C553 1.384 . S
N557 C549 1.427 . S
N557 C555 1.384 . S
H558 C564 0.930 . S
H559 C568 0.930 . S
H560 C573 0.929 . S
H561 C571 0.929 . S
H562 C566 0.929 . S
H563 C572 0.929 . S
C564 H558 0.930 . S
C564 C565 1.367 . S
C564 C572 1.378 . S
C565 C564 1.367 . S
C565 C573 1.433 . S
C566 H562 0.929 . S
C566 C568 1.378 . S
C566 C570 1.350 . S
C567 C570 1.463 . S
C567 C572 1.350 . S
C567 N575 1.427 . S
C568 H559 0.930 . S
C568 C566 1.378 . S
C568 C569 1.367 . S
C569 C568 1.367 . S
C569 C571 1.433 . S
C570 C566 1.350 . S
C570 C567 1.463 . S
C570 N574 1.427 . S
C571 H561 0.929 . S
C571 C569 1.433 . S
C571 N574 1.384 . S
C572 H563 0.929 . S
C572 C564 1.378 . S
C572 C567 1.350 . S
C573 H560 0.929 . S
C573 C565 1.433 . S
C573 N575 1.384 . S
N574 C570 1.427 . S
N574 C571 1.384 . S
N575 C567 1.427 . S
N575 C573 1.384 . S
H576 C582 0.930 . S
H577 C586 0.930 . S
H578 C591 0.929 . S
H579 C589 0.929 . S
H580 C584 0.929 . S
H581 C590 0.929 . S
C582 H576 0.930 . S
C582 C583 1.367 . S
C582 C590 1.378 . S
C583 C582 1.367 . S
C583 C591 1.433 . S
C584 H580 0.929 . S
C584 C586 1.378 . S
C584 C588 1.350 . S
C585 C588 1.463 . S
C585 C590 1.350 . S
C585 N593 1.427 . S
C586 H577 0.930 . S
C586 C584 1.378 . S
C586 C587 1.367 . S
C587 C586 1.367 . S
C587 C589 1.433 . S
C588 C584 1.350 . S
C588 C585 1.463 . S
C588 N592 1.427 . S
C589 H579 0.929 . S
C589 C587 1.433 . S
C589 N592 1.384 . S
C590 H581 0.929 . S
C590 C582 1.378 . S
C590 C585 1.350 . S
C591 H578 0.929 . S
C591 C583 1.433 . S
C591 N593 1.384 . S
N592 C588 1.427 . S
N592 C589 1.384 . S
N593 C585 1.427 . S
N593 C591 1.384 . S
H594 C600 0.930 . S
H595 C604 0.930 . S
H596 C609 0.929 . S
H597 C607 0.929 . S
H598 C602 0.929 . S
H599 C608 0.929 . S
C600 H594 0.930 . S
C600 C601 1.367 . S
C600 C608 1.378 . S
C601 C600 1.367 . S
C601 C609 1.433 . S
C602 H598 0.929 . S
C602 C604 1.378 . S
C602 C606 1.350 . S
C603 C606 1.463 . S
C603 C608 1.350 . S
C603 N611 1.427 . S
C604 H595 0.930 . S
C604 C602 1.378 . S
C604 C605 1.367 . S
C605 C604 1.367 . S
C605 C607 1.433 . S
C606 C602 1.350 . S
C606 C603 1.463 . S
C606 N610 1.427 . S
C607 H597 0.929 . S
C607 C605 1.433 . S
C607 N610 1.384 . S
C608 H599 0.929 . S
C608 C600 1.378 . S
C608 C603 1.350 . S
C609 H596 0.929 . S
C609 C601 1.433 . S
C609 N611 1.384 . S
N610 C606 1.427 . S
N610 C607 1.384 . S
N611 C603 1.427 . S
N611 C609 1.384 . S
H612 C618 0.930 . S
H613 C622 0.930 . S
H614 C627 0.929 . S
H615 C625 0.929 . S
H616 C620 0.929 . S
H617 C626 0.929 . S
C618 H612 0.930 . S
C618 C619 1.367 . S
C618 C626 1.378 . S
C619 C618 1.367 . S
C619 C627 1.433 . S
C620 H616 0.929 . S
C620 C622 1.378 . S
C620 C624 1.350 . S
C621 C624 1.463 . S
C621 C626 1.350 . S
C621 N629 1.427 . S
C622 H613 0.930 . S
C622 C620 1.378 . S
C622 C623 1.367 . S
C623 C622 1.367 . S
C623 C625 1.433 . S
C624 C620 1.350 . S
C624 C621 1.463 . S
C624 N628 1.427 . S
C625 H615 0.929 . S
C625 C623 1.433 . S
C625 N628 1.384 . S
C626 H617 0.929 . S
C626 C618 1.378 . S
C626 C621 1.350 . S
C627 H614 0.929 . S
C627 C619 1.433 . S
C627 N629 1.384 . S
N628 C624 1.427 . S
N628 C625 1.384 . S
N629 C621 1.427 . S
N629 C627 1.384 . S
H630 C636 0.930 . S
H631 C640 0.930 . S
H632 C645 0.929 . S
H633 C643 0.929 . S
H634 C638 0.929 . S
H635 C644 0.929 . S
C636 H630 0.930 . S
C636 C637 1.367 . S
C636 C644 1.378 . S
C637 C636 1.367 . S
C637 C645 1.433 . S
C638 H634 0.929 . S
C638 C640 1.378 . S
C638 C642 1.350 . S
C639 C642 1.463 . S
C639 C644 1.350 . S
C639 N647 1.427 . S
C640 H631 0.930 . S
C640 C638 1.378 . S
C640 C641 1.367 . S
C641 C640 1.367 . S
C641 C643 1.433 . S
C642 C638 1.350 . S
C642 C639 1.463 . S
C642 N646 1.427 . S
C643 H633 0.929 . S
C643 C641 1.433 . S
C643 N646 1.384 . S
C644 H635 0.929 . S
C644 C636 1.378 . S
C644 C639 1.350 . S
C645 H632 0.929 . S
C645 C637 1.433 . S
C645 N647 1.384 . S
N646 C642 1.427 . S
N646 C643 1.384 . S
N647 C639 1.427 . S
N647 C645 1.384 . S
H648 C654 0.930 . S
H649 C658 0.930 . S
H650 C663 0.929 . S
H651 C661 0.929 . S
H652 C656 0.929 . S
H653 C662 0.929 . S
C654 H648 0.930 . S
C654 C655 1.367 . S
C654 C662 1.378 . S
C655 C654 1.367 . S
C655 C663 1.433 . S
C656 H652 0.929 . S
C656 C658 1.378 . S
C656 C660 1.350 . S
C657 C660 1.463 . S
C657 C662 1.350 . S
C657 N665 1.427 . S
C658 H649 0.930 . S
C658 C656 1.378 . S
C658 C659 1.367 1_565 S
C659 C658 1.367 1_545 S
C659 C661 1.433 . S
C660 C656 1.350 . S
C660 C657 1.463 . S
C660 N664 1.427 . S
C661 H651 0.929 . S
C661 C659 1.433 . S
C661 N664 1.384 1_545 S
C662 H653 0.929 . S
C662 C654 1.378 . S
C662 C657 1.350 . S
C663 H650 0.929 . S
C663 C655 1.433 . S
C663 N665 1.384 . S
N664 C660 1.427 . S
N664 C661 1.384 1_565 S
N665 C657 1.427 . S
N665 C663 1.384 . S
H666 C672 0.930 . S
H667 C676 0.930 . S
H668 C681 0.929 . S
H669 C679 0.929 . S
H670 C674 0.929 . S
H671 C680 0.929 . S
C672 H666 0.930 . S
C672 C673 1.367 . S
C672 C680 1.378 . S
C673 C672 1.367 . S
C673 C681 1.433 . S
C674 H670 0.929 . S
C674 C676 1.378 . S
C674 C678 1.350 . S
C675 C678 1.463 . S
C675 C680 1.350 . S
C675 N683 1.427 . S
C676 H667 0.930 . S
C676 C674 1.378 . S
C676 C677 1.367 . S
C677 C676 1.367 . S
C677 C679 1.433 . S
C678 C674 1.350 . S
C678 C675 1.463 . S
C678 N682 1.427 . S
C679 H669 0.929 . S
C679 C677 1.433 . S
C679 N682 1.384 . S
C680 H671 0.929 . S
C680 C672 1.378 . S
C680 C675 1.350 . S
C681 H668 0.929 . S
C681 C673 1.433 . S
C681 N683 1.384 . S
N682 C678 1.427 . S
N682 C679 1.384 . S
N683 C675 1.427 . S
N683 C681 1.384 . S
H684 C690 0.930 . S
H685 C694 0.930 1_556 S
H686 C699 0.929 . S
H687 C697 0.929 . S
H688 C692 0.929 . S
H689 C698 0.929 1_554 S
C690 H684 0.930 . S
C690 C691 1.367 . S
C690 C698 1.378 . S
C691 C690 1.367 . S
C691 C699 1.433 . S
C692 H688 0.929 . S
C692 C694 1.378 1_556 S
C692 C696 1.350 1_565 S
C693 C696 1.463 . S
C693 C698 1.350 . S
C693 N701 1.427 . S
C694 H685 0.930 1_554 S
C694 C692 1.378 1_554 S
C694 C695 1.367 . S
C695 C694 1.367 . S
C695 C697 1.433 1_565 S
C696 C692 1.350 1_545 S
C696 C693 1.463 . S
C696 N700 1.427 1_556 S
C697 H687 0.929 . S
C697 C695 1.433 1_545 S
C697 N700 1.384 . S
C698 H689 0.929 1_556 S
C698 C690 1.378 . S
C698 C693 1.350 . S
C699 H686 0.929 . S
C699 C691 1.433 . S
C699 N701 1.384 . S
N700 C696 1.427 1_554 S
N700 C697 1.384 . S
N701 C693 1.427 . S
N701 C699 1.384 . S
H702 C708 0.930 . S
H703 C712 0.930 . S
H704 C717 0.929 . S
H705 C715 0.929 . S
H706 C710 0.929 . S
H707 C716 0.929 . S
C708 H702 0.930 . S
C708 C709 1.367 . S
C708 C716 1.378 . S
C709 C708 1.367 . S
C709 C717 1.433 . S
C710 H706 0.929 . S
C710 C712 1.378 . S
C710 C714 1.350 . S
C711 C714 1.463 . S
C711 C716 1.350 . S
C711 N719 1.427 . S
C712 H703 0.930 . S
C712 C710 1.378 . S
C712 C713 1.367 . S
C713 C712 1.367 . S
C713 C715 1.433 . S
C714 C710 1.350 . S
C714 C711 1.463 . S
C714 N718 1.427 . S
C715 H705 0.929 . S
C715 C713 1.433 . S
C715 N718 1.384 . S
C716 H707 0.929 . S
C716 C708 1.378 . S
C716 C711 1.350 . S
C717 H704 0.929 . S
C717 C709 1.433 . S
C717 N719 1.384 . S
N718 C714 1.427 . S
N718 C715 1.384 . S
N719 C711 1.427 . S
N719 C717 1.384 . S
H720 C726 0.930 . S
H721 C730 0.930 . S
H722 C735 0.929 1_565 S
H723 C733 0.929 . S
H724 C728 0.929 . S
H725 C734 0.929 . S
C726 H720 0.930 . S
C726 C727 1.367 . S
C726 C734 1.378 . S
C727 C726 1.367 . S
C727 C735 1.433 . S
C728 H724 0.929 . S
C728 C730 1.378 . S
C728 C732 1.350 . S
C729 C732 1.463 . S
C729 C734 1.350 . S
C729 N737 1.427 . S
C730 H721 0.930 . S
C730 C728 1.378 . S
C730 C731 1.367 . S
C731 C730 1.367 . S
C731 C733 1.433 . S
C732 C728 1.350 . S
C732 C729 1.463 . S
C732 N736 1.427 . S
C733 H723 0.929 . S
C733 C731 1.433 . S
C733 N736 1.384 . S
C734 H725 0.929 . S
C734 C726 1.378 . S
C734 C729 1.350 . S
C735 H722 0.929 1_545 S
C735 C727 1.433 . S
C735 N737 1.384 . S
N736 C732 1.427 . S
N736 C733 1.384 . S
N737 C729 1.427 . S
N737 C735 1.384 . S
H738 C744 0.930 . S
H739 C748 0.930 . S
H740 C753 0.929 . S
H741 C751 0.929 . S
H742 C746 0.929 . S
H743 C752 0.929 . S
C744 H738 0.930 . S
C744 C745 1.367 . S
C744 C752 1.378 . S
C745 C744 1.367 . S
C745 C753 1.433 . S
C746 H742 0.929 . S
C746 C748 1.378 . S
C746 C750 1.350 . S
C747 C750 1.463 . S
C747 C752 1.350 . S
C747 N755 1.427 . S
C748 H739 0.930 . S
C748 C746 1.378 . S
C748 C749 1.367 . S
C749 C748 1.367 . S
C749 C751 1.433 . S
C750 C746 1.350 . S
C750 C747 1.463 . S
C750 N754 1.427 . S
C751 H741 0.929 . S
C751 C749 1.433 . S
C751 N754 1.384 . S
C752 H743 0.929 . S
C752 C744 1.378 . S
C752 C747 1.350 . S
C753 H740 0.929 . S
C753 C745 1.433 . S
C753 N755 1.384 . S
N754 C750 1.427 . S
N754 C751 1.384 . S
N755 C747 1.427 . S
N755 C753 1.384 . S
H756 C762 0.930 . S
H757 C766 0.930 . S
H758 C771 0.929 . S
H759 C769 0.929 . S
H760 C764 0.929 . S
H761 C770 0.929 . S
C762 H756 0.930 . S
C762 C763 1.367 . S
C762 C770 1.378 1_565 S
C763 C762 1.367 . S
C763 C771 1.433 1_565 S
C764 H760 0.929 . S
C764 C766 1.378 . S
C764 C768 1.350 . S
C765 C768 1.463 . S
C765 C770 1.350 . S
C765 N773 1.427 . S
C766 H757 0.930 . S
C766 C764 1.378 . S
C766 C767 1.367 . S
C767 C766 1.367 . S
C767 C769 1.433 . S
C768 C764 1.350 . S
C768 C765 1.463 . S
C768 N772 1.427 . S
C769 H759 0.929 . S
C769 C767 1.433 . S
C769 N772 1.384 . S
C770 H761 0.929 . S
C770 C762 1.378 1_545 S
C770 C765 1.350 . S
C771 H758 0.929 . S
C771 C763 1.433 1_545 S
C771 N773 1.384 . S
N772 C768 1.427 . S
N772 C769 1.384 . S
N773 C765 1.427 . S
N773 C771 1.384 . S
H774 C780 0.930 . S
H775 C784 0.930 . S
H776 C789 0.929 . S
H777 C787 0.929 . S
H778 C782 0.929 . S
H779 C788 0.929 . S
C780 H774 0.930 . S
C780 C781 1.367 . S
C780 C788 1.378 . S
C781 C780 1.367 . S
C781 C789 1.433 . S
C782 H778 0.929 . S
C782 C784 1.378 . S
C782 C786 1.350 . S
C783 C786 1.463 . S
C783 C788 1.350 . S
C783 N791 1.427 . S
C784 H775 0.930 . S
C784 C782 1.378 . S
C784 C785 1.367 . S
C785 C784 1.367 . S
C785 C787 1.433 . S
C786 C782 1.350 . S
C786 C783 1.463 . S
C786 N790 1.427 . S
C787 H777 0.929 . S
C787 C785 1.433 . S
C787 N790 1.384 . S
C788 H779 0.929 . S
C788 C780 1.378 . S
C788 C783 1.350 . S
C789 H776 0.929 . S
C789 C781 1.433 . S
C789 N791 1.384 . S
N790 C786 1.427 . S
N790 C787 1.384 . S
N791 C783 1.427 . S
N791 C789 1.384 . S
H792 C798 0.930 . S
H793 C802 0.930 . S
H794 C807 0.929 . S
H795 C805 0.929 . S
H796 C800 0.929 . S
H797 C806 0.929 . S
C798 H792 0.930 . S
C798 C799 1.367 . S
C798 C806 1.378 . S
C799 C798 1.367 . S
C799 C807 1.433 . S
C800 H796 0.929 . S
C800 C802 1.378 . S
C800 C804 1.350 . S
C801 C804 1.463 . S
C801 C806 1.350 . S
C801 N809 1.427 . S
C802 H793 0.930 . S
C802 C800 1.378 . S
C802 C803 1.367 . S
C803 C802 1.367 . S
C803 C805 1.433 . S
C804 C800 1.350 . S
C804 C801 1.463 . S
C804 N808 1.427 . S
C805 H795 0.929 . S
C805 C803 1.433 . S
C805 N808 1.384 . S
C806 H797 0.929 . S
C806 C798 1.378 . S
C806 C801 1.350 . S
C807 H794 0.929 . S
C807 C799 1.433 . S
C807 N809 1.384 . S
N808 C804 1.427 . S
N808 C805 1.384 . S
N809 C801 1.427 . S
N809 C807 1.384 . S
H810 C816 0.930 . S
H811 C820 0.930 . S
H812 C825 0.929 . S
H813 C823 0.929 . S
H814 C818 0.929 . S
H815 C824 0.929 . S
C816 H810 0.930 . S
C816 C817 1.367 . S
C816 C824 1.378 . S
C817 C816 1.367 . S
C817 C825 1.433 . S
C818 H814 0.929 . S
C818 C820 1.378 . S
C818 C822 1.350 . S
C819 C822 1.463 . S
C819 C824 1.350 . S
C819 N827 1.427 . S
C820 H811 0.930 . S
C820 C818 1.378 . S
C820 C821 1.367 . S
C821 C820 1.367 . S
C821 C823 1.433 . S
C822 C818 1.350 . S
C822 C819 1.463 . S
C822 N826 1.427 . S
C823 H813 0.929 . S
C823 C821 1.433 . S
C823 N826 1.384 . S
C824 H815 0.929 . S
C824 C816 1.378 . S
C824 C819 1.350 . S
C825 H812 0.929 . S
C825 C817 1.433 . S
C825 N827 1.384 . S
N826 C822 1.427 . S
N826 C823 1.384 . S
N827 C819 1.427 . S
N827 C825 1.384 . S
H828 C834 0.930 . S
H829 C838 0.930 . S
H830 C843 0.929 . S
H831 C841 0.929 . S
H832 C836 0.929 . S
H833 C842 0.929 . S
C834 H828 0.930 . S
C834 C835 1.367 . S
C834 C842 1.378 . S
C835 C834 1.367 . S
C835 C843 1.433 . S
C836 H832 0.929 . S
C836 C838 1.378 . S
C836 C840 1.350 . S
C837 C840 1.463 . S
C837 C842 1.350 . S
C837 N845 1.427 . S
C838 H829 0.930 . S
C838 C836 1.378 . S
C838 C839 1.367 . S
C839 C838 1.367 . S
C839 C841 1.433 . S
C840 C836 1.350 . S
C840 C837 1.463 . S
C840 N844 1.427 . S
C841 H831 0.929 . S
C841 C839 1.433 . S
C841 N844 1.384 . S
C842 H833 0.929 . S
C842 C834 1.378 . S
C842 C837 1.350 . S
C843 H830 0.929 . S
C843 C835 1.433 . S
C843 N845 1.384 . S
N844 C840 1.427 . S
N844 C841 1.384 . S
N845 C837 1.427 . S
N845 C843 1.384 . S
H846 C852 0.930 . S
H847 C856 0.930 . S
H848 C861 0.929 . S
H849 C859 0.929 . S
H850 C854 0.929 . S
H851 C860 0.929 . S
C852 H846 0.930 . S
C852 C853 1.367 . S
C852 C860 1.378 . S
C853 C852 1.367 . S
C853 C861 1.433 . S
C854 H850 0.929 . S
C854 C856 1.378 . S
C854 C858 1.350 . S
C855 C858 1.463 . S
C855 C860 1.350 . S
C855 N863 1.427 . S
C856 H847 0.930 . S
C856 C854 1.378 . S
C856 C857 1.367 . S
C857 C856 1.367 . S
C857 C859 1.433 . S
C858 C854 1.350 . S
C858 C855 1.463 . S
C858 N862 1.427 . S
C859 H849 0.929 . S
C859 C857 1.433 . S
C859 N862 1.384 . S
C860 H851 0.929 . S
C860 C852 1.378 . S
C860 C855 1.350 . S
C861 H848 0.929 . S
C861 C853 1.433 . S
C861 N863 1.384 . S
N862 C858 1.427 . S
N862 C859 1.384 . S
N863 C855 1.427 . S
N863 C861 1.384 . S
H864 C870 0.930 . S
H865 C874 0.930 . S
H866 C879 0.929 . S
H867 C877 0.929 . S
H868 C872 0.929 . S
H869 C878 0.929 . S
C870 H864 0.930 . S
C870 C871 1.367 . S
C870 C878 1.378 . S
C871 C870 1.367 . S
C871 C879 1.433 . S
C872 H868 0.929 . S
C872 C874 1.378 . S
C872 C876 1.350 . S
C873 C876 1.463 . S
C873 C878 1.350 . S
C873 N881 1.427 . S
C874 H865 0.930 . S
C874 C872 1.378 . S
C874 C875 1.367 . S
C875 C874 1.367 . S
C875 C877 1.433 . S
C876 C872 1.350 . S
C876 C873 1.463 . S
C876 N880 1.427 . S
C877 H867 0.929 . S
C877 C875 1.433 . S
C877 N880 1.384 . S
C878 H869 0.929 . S
C878 C870 1.378 . S
C878 C873 1.350 . S
C879 H866 0.929 . S
C879 C871 1.433 . S
C879 N881 1.384 . S
N880 C876 1.427 . S
N880 C877 1.384 . S
N881 C873 1.427 . S
N881 C879 1.384 . S
H882 C888 0.930 . S
H883 C892 0.930 . S
H884 C897 0.929 . S
H885 C895 0.929 . S
H886 C890 0.929 . S
H887 C896 0.929 . S
C888 H882 0.930 . S
C888 C889 1.367 . S
C888 C896 1.378 . S
C889 C888 1.367 . S
C889 C897 1.433 . S
C890 H886 0.929 . S
C890 C892 1.378 . S
C890 C894 1.350 . S
C891 C894 1.463 . S
C891 C896 1.350 . S
C891 N899 1.427 . S
C892 H883 0.930 . S
C892 C890 1.378 . S
C892 C893 1.367 . S
C893 C892 1.367 . S
C893 C895 1.433 . S
C894 C890 1.350 . S
C894 C891 1.463 . S
C894 N898 1.427 . S
C895 H885 0.929 . S
C895 C893 1.433 . S
C895 N898 1.384 . S
C896 H887 0.929 . S
C896 C888 1.378 . S
C896 C891 1.350 . S
C897 H884 0.929 . S
C897 C889 1.433 . S
C897 N899 1.384 . S
N898 C894 1.427 . S
N898 C895 1.384 . S
N899 C891 1.427 . S
N899 C897 1.384 . S
H900 C906 0.930 . S
H901 C910 0.930 . S
H902 C915 0.929 . S
H903 C913 0.929 . S
H904 C908 0.929 . S
H905 C914 0.929 . S
C906 H900 0.930 . S
C906 C907 1.367 . S
C906 C914 1.378 . S
C907 C906 1.367 . S
C907 C915 1.433 . S
C908 H904 0.929 . S
C908 C910 1.378 . S
C908 C912 1.350 . S
C909 C912 1.463 . S
C909 C914 1.350 . S
C909 N917 1.427 . S
C910 H901 0.930 . S
C910 C908 1.378 . S
C910 C911 1.367 . S
C911 C910 1.367 . S
C911 C913 1.433 . S
C912 C908 1.350 . S
C912 C909 1.463 . S
C912 N916 1.427 . S
C913 H903 0.929 . S
C913 C911 1.433 . S
C913 N916 1.384 . S
C914 H905 0.929 . S
C914 C906 1.378 . S
C914 C909 1.350 . S
C915 H902 0.929 . S
C915 C907 1.433 . S
C915 N917 1.384 . S
N916 C912 1.427 . S
N916 C913 1.384 . S
N917 C909 1.427 . S
N917 C915 1.384 . S
H918 C924 0.930 . S
H919 C928 0.930 . S
H920 C933 0.929 . S
H921 C931 0.929 . S
H922 C926 0.929 . S
H923 C932 0.929 . S
C924 H918 0.930 . S
C924 C925 1.367 . S
C924 C932 1.378 . S
C925 C924 1.367 . S
C925 C933 1.433 . S
C926 H922 0.929 . S
C926 C928 1.378 . S
C926 C930 1.350 1_455 S
C927 C930 1.463 . S
C927 C932 1.350 . S
C927 N935 1.427 . S
C928 H919 0.930 . S
C928 C926 1.378 . S
C928 C929 1.367 . S
C929 C928 1.367 . S
C929 C931 1.433 . S
C930 C926 1.350 1_655 S
C930 C927 1.463 . S
C930 N934 1.427 1_655 S
C931 H921 0.929 . S
C931 C929 1.433 . S
C931 N934 1.384 . S
C932 H923 0.929 . S
C932 C924 1.378 . S
C932 C927 1.350 . S
C933 H920 0.929 . S
C933 C925 1.433 . S
C933 N935 1.384 . S
N934 C930 1.427 1_455 S
N934 C931 1.384 . S
N935 C927 1.427 . S
N935 C933 1.384 . S
H936 C942 0.930 . S
H937 C946 0.930 . S
H938 C951 0.929 . S
H939 C949 0.929 . S
H940 C944 0.929 . S
H941 C950 0.929 . S
C942 H936 0.930 . S
C942 C943 1.367 . S
C942 C950 1.378 . S
C943 C942 1.367 . S
C943 C951 1.433 . S
C944 H940 0.929 . S
C944 C946 1.378 . S
C944 C948 1.350 . S
C945 C948 1.463 . S
C945 C950 1.350 . S
C945 N953 1.427 . S
C946 H937 0.930 . S
C946 C944 1.378 . S
C946 C947 1.367 . S
C947 C946 1.367 . S
C947 C949 1.433 . S
C948 C944 1.350 . S
C948 C945 1.463 . S
C948 N952 1.427 . S
C949 H939 0.929 . S
C949 C947 1.433 . S
C949 N952 1.384 . S
C950 H941 0.929 . S
C950 C942 1.378 . S
C950 C945 1.350 . S
C951 H938 0.929 . S
C951 C943 1.433 . S
C951 N953 1.384 . S
N952 C948 1.427 . S
N952 C949 1.384 . S
N953 C945 1.427 . S
N953 C951 1.384 . S
H954 C960 0.930 . S
H955 C964 0.930 1_455 S
H956 C969 0.929 . S
H957 C967 0.929 . S
H958 C962 0.929 . S
H959 C968 0.929 . S
C960 H954 0.930 . S
C960 C961 1.367 1_556 S
C960 C968 1.378 . S
C961 C960 1.367 1_554 S
C961 C969 1.433 . S
C962 H958 0.929 . S
C962 C964 1.378 . S
C962 C966 1.350 . S
C963 C966 1.463 . S
C963 C968 1.350 . S
C963 N971 1.427 1_556 S
C964 H955 0.930 1_655 S
C964 C962 1.378 . S
C964 C965 1.367 . S
C965 C964 1.367 . S
C965 C967 1.433 . S
C966 C962 1.350 . S
C966 C963 1.463 . S
C966 N970 1.427 . S
C967 H957 0.929 . S
C967 C965 1.433 . S
C967 N970 1.384 . S
C968 H959 0.929 . S
C968 C960 1.378 . S
C968 C963 1.350 . S
C969 H956 0.929 . S
C969 C961 1.433 . S
C969 N971 1.384 . S
N970 C966 1.427 . S
N970 C967 1.384 . S
N971 C963 1.427 1_554 S
N971 C969 1.384 . S
H972 C978 0.930 . S
H973 C982 0.930 . S
H974 C987 0.929 . S
H975 C985 0.929 . S
H976 C980 0.929 . S
H977 C986 0.929 . S
C978 H972 0.930 . S
C978 C979 1.367 . S
C978 C986 1.378 . S
C979 C978 1.367 . S
C979 C987 1.433 . S
C980 H976 0.929 . S
C980 C982 1.378 . S
C980 C984 1.350 . S
C981 C984 1.463 . S
C981 C986 1.350 . S
C981 N989 1.427 . S
C982 H973 0.930 . S
C982 C980 1.378 . S
C982 C983 1.367 . S
C983 C982 1.367 . S
C983 C985 1.433 . S
C984 C980 1.350 . S
C984 C981 1.463 . S
C984 N988 1.427 . S
C985 H975 0.929 . S
C985 C983 1.433 . S
C985 N988 1.384 . S
C986 H977 0.929 . S
C986 C978 1.378 . S
C986 C981 1.350 . S
C987 H974 0.929 . S
C987 C979 1.433 . S
C987 N989 1.384 . S
N988 C984 1.427 . S
N988 C985 1.384 . S
N989 C981 1.427 . S
N989 C987 1.384 . S
H990 C996 0.930 . S
H991 C1000 0.930 . S
H992 C1005 0.929 . S
H993 C1003 0.929 . S
H994 C998 0.929 . S
H995 C1004 0.929 . S
C996 H990 0.930 . S
C996 C997 1.367 . S
C996 C1004 1.378 . S
C997 C996 1.367 . S
C997 C1005 1.433 . S
C998 H994 0.929 . S
C998 C1000 1.378 . S
C998 C1002 1.350 . S
C999 C1002 1.463 1_554 S
C999 C1004 1.350 . S
C999 N1007 1.427 . S
C1000 H991 0.930 . S
C1000 C998 1.378 . S
C1000 C1001 1.367 . S
C1001 C1000 1.367 . S
C1001 C1003 1.433 . S
C1002 C998 1.350 . S
C1002 C999 1.463 1_556 S
C1002 N1006 1.427 . S
C1003 H993 0.929 . S
C1003 C1001 1.433 . S
C1003 N1006 1.384 . S
C1004 H995 0.929 . S
C1004 C996 1.378 . S
C1004 C999 1.350 . S
C1005 H992 0.929 . S
C1005 C997 1.433 . S
C1005 N1007 1.384 . S
N1006 C1002 1.427 . S
N1006 C1003 1.384 . S
N1007 C999 1.427 . S
N1007 C1005 1.384 . S
H1008 C1014 0.930 . S
H1009 C1018 0.930 . S
H1010 C1023 0.929 . S
H1011 C1021 0.929 . S
H1012 C1016 0.929 . S
H1013 C1022 0.929 . S
C1014 H1008 0.930 . S
C1014 C1015 1.367 . S
C1014 C1022 1.378 . S
C1015 C1014 1.367 . S
C1015 C1023 1.433 . S
C1016 H1012 0.929 . S
C1016 C1018 1.378 . S
C1016 C1020 1.350 . S
C1017 C1020 1.463 . S
C1017 C1022 1.350 . S
C1017 N1025 1.427 . S
C1018 H1009 0.930 . S
C1018 C1016 1.378 . S
C1018 C1019 1.367 . S
C1019 C1018 1.367 . S
C1019 C1021 1.433 . S
C1020 C1016 1.350 . S
C1020 C1017 1.463 . S
C1020 N1024 1.427 . S
C1021 H1011 0.929 . S
C1021 C1019 1.433 . S
C1021 N1024 1.384 . S
C1022 H1013 0.929 . S
C1022 C1014 1.378 . S
C1022 C1017 1.350 . S
C1023 H1010 0.929 . S
C1023 C1015 1.433 . S
C1023 N1025 1.384 . S
N1024 C1020 1.427 . S
N1024 C1021 1.384 . S
N1025 C1017 1.427 . S
N1025 C1023 1.384 . S
H1026 C1032 0.930 . S
H1027 C1036 0.930 . S
H1028 C1041 0.929 . S
H1029 C1039 0.929 . S
H1030 C1034 0.929 . S
H1031 C1040 0.929 . S
C1032 H1026 0.930 . S
C1032 C1033 1.367 . S
C1032 C1040 1.378 . S
C1033 C1032 1.367 . S
C1033 C1041 1.433 . S
C1034 H1030 0.929 . S
C1034 C1036 1.378 . S
C1034 C1038 1.350 . S
C1035 C1038 1.463 . S
C1035 C1040 1.350 1_554 S
C1035 N1043 1.427 . S
C1036 H1027 0.930 . S
C1036 C1034 1.378 . S
C1036 C1037 1.367 . S
C1037 C1036 1.367 . S
C1037 C1039 1.433 . S
C1038 C1034 1.350 . S
C1038 C1035 1.463 . S
C1038 N1042 1.427 . S
C1039 H1029 0.929 . S
C1039 C1037 1.433 . S
C1039 N1042 1.384 . S
C1040 H1031 0.929 . S
C1040 C1032 1.378 . S
C1040 C1035 1.350 1_556 S
C1041 H1028 0.929 . S
C1041 C1033 1.433 . S
C1041 N1043 1.384 1_556 S
N1042 C1038 1.427 . S
N1042 C1039 1.384 . S
N1043 C1035 1.427 . S
N1043 C1041 1.384 1_554 S
H1044 C1050 0.930 . S
H1045 C1054 0.930 . S
H1046 C1059 0.929 . S
H1047 C1057 0.929 . S
H1048 C1052 0.929 . S
H1049 C1058 0.929 . S
C1050 H1044 0.930 . S
C1050 C1051 1.367 . S
C1050 C1058 1.378 . S
C1051 C1050 1.367 . S
C1051 C1059 1.433 . S
C1052 H1048 0.929 . S
C1052 C1054 1.378 . S
C1052 C1056 1.350 . S
C1053 C1056 1.463 . S
C1053 C1058 1.350 . S
C1053 N1061 1.427 . S
C1054 H1045 0.930 . S
C1054 C1052 1.378 . S
C1054 C1055 1.367 . S
C1055 C1054 1.367 . S
C1055 C1057 1.433 . S
C1056 C1052 1.350 . S
C1056 C1053 1.463 . S
C1056 N1060 1.427 . S
C1057 H1047 0.929 . S
C1057 C1055 1.433 . S
C1057 N1060 1.384 . S
C1058 H1049 0.929 . S
C1058 C1050 1.378 . S
C1058 C1053 1.350 . S
C1059 H1046 0.929 . S
C1059 C1051 1.433 . S
C1059 N1061 1.384 . S
N1060 C1056 1.427 . S
N1060 C1057 1.384 . S
N1061 C1053 1.427 . S
N1061 C1059 1.384 . S
H1062 C1068 0.930 . S
H1063 C1072 0.930 . S
H1064 C1077 0.929 . S
H1065 C1075 0.929 . S
H1066 C1070 0.929 . S
H1067 C1076 0.930 . S
C1068 H1062 0.930 . S
C1068 C1069 1.367 . S
C1068 C1076 1.355 1_556 S
C1069 C1068 1.367 . S
C1069 C1077 1.433 . S
C1070 H1066 0.929 . S
C1070 C1072 1.378 . S
C1070 C1074 1.350 . S
C1071 C1074 1.463 . S
C1071 C1076 1.373 . S
C1071 N1079 1.427 . S
C1072 H1063 0.930 . S
C1072 C1070 1.378 . S
C1072 C1073 1.367 . S
C1073 C1072 1.367 . S
C1073 C1075 1.433 . S
C1074 C1070 1.350 . S
C1074 C1071 1.463 . S
C1074 N1078 1.427 . S
C1075 H1065 0.929 . S
C1075 C1073 1.433 . S
C1075 N1078 1.384 . S
C1076 H1067 0.930 . S
C1076 C1068 1.355 1_554 S
C1076 C1071 1.373 . S
C1077 H1064 0.929 . S
C1077 C1069 1.433 . S
C1077 N1079 1.384 1_556 S
N1078 C1074 1.427 . S
N1078 C1075 1.384 . S
N1079 C1071 1.427 . S
N1079 C1077 1.384 1_554 S
H1080 C1086 0.930 . S
H1081 C1090 0.930 . S
H1082 C1095 0.929 . S
H1083 C1093 0.929 . S
H1084 C1088 0.929 . S
H1085 C1094 0.929 . S
C1086 H1080 0.930 . S
C1086 C1087 1.367 . S
C1086 C1094 1.378 . S
C1087 C1086 1.367 . S
C1087 C1095 1.433 . S
C1088 H1084 0.929 . S
C1088 C1090 1.378 . S
C1088 C1092 1.350 . S
C1089 C1092 1.463 . S
C1089 C1094 1.350 . S
C1089 N1097 1.427 . S
C1090 H1081 0.930 . S
C1090 C1088 1.378 . S
C1090 C1091 1.367 . S
C1091 C1090 1.367 . S
C1091 C1093 1.433 . S
C1092 C1088 1.350 . S
C1092 C1089 1.463 . S
C1092 N1096 1.427 . S
C1093 H1083 0.929 . S
C1093 C1091 1.433 . S
C1093 N1096 1.384 . S
C1094 H1085 0.929 . S
C1094 C1086 1.378 . S
C1094 C1089 1.350 . S
C1095 H1082 0.929 . S
C1095 C1087 1.433 . S
C1095 N1097 1.384 . S
N1096 C1092 1.427 . S
N1096 C1093 1.384 . S
N1097 C1089 1.427 . S
N1097 C1095 1.384 . S
H1098 C1104 0.930 . S
H1099 C1108 0.930 . S
H1100 C1113 0.929 . S
H1101 C1111 0.929 . S
H1102 C1106 0.929 . S
H1103 C1112 0.929 . S
C1104 H1098 0.930 . S
C1104 C1105 1.367 . S
C1104 C1112 1.378 . S
C1105 C1104 1.367 . S
C1105 C1113 1.433 . S
C1106 H1102 0.929 . S
C1106 C1108 1.378 . S
C1106 C1110 1.350 . S
C1107 C1110 1.463 . S
C1107 C1112 1.350 . S
C1107 N1115 1.427 . S
C1108 H1099 0.930 . S
C1108 C1106 1.378 . S
C1108 C1109 1.367 . S
C1109 C1108 1.367 . S
C1109 C1111 1.433 . S
C1110 C1106 1.350 . S
C1110 C1107 1.463 . S
C1110 N1114 1.427 . S
C1111 H1101 0.929 . S
C1111 C1109 1.433 . S
C1111 N1114 1.384 . S
C1112 H1103 0.929 . S
C1112 C1104 1.378 . S
C1112 C1107 1.350 . S
C1113 H1100 0.929 . S
C1113 C1105 1.433 . S
C1113 N1115 1.384 . S
N1114 C1110 1.427 . S
N1114 C1111 1.384 . S
N1115 C1107 1.427 . S
N1115 C1113 1.384 . S
H1116 C1122 0.930 . S
H1117 C1126 0.930 . S
H1118 C1131 0.929 . S
H1119 C1129 0.929 . S
H1120 C1124 0.929 . S
H1121 C1130 0.929 . S
C1122 H1116 0.930 . S
C1122 C1123 1.367 . S
C1122 C1130 1.378 . S
C1123 C1122 1.367 . S
C1123 C1131 1.433 . S
C1124 H1120 0.929 . S
C1124 C1126 1.378 . S
C1124 C1128 1.350 . S
C1125 C1128 1.463 . S
C1125 C1130 1.350 . S
C1125 N1133 1.427 . S
C1126 H1117 0.930 . S
C1126 C1124 1.378 . S
C1126 C1127 1.367 . S
C1127 C1126 1.367 . S
C1127 C1129 1.433 . S
C1128 C1124 1.350 . S
C1128 C1125 1.463 . S
C1128 N1132 1.427 . S
C1129 H1119 0.929 . S
C1129 C1127 1.433 . S
C1129 N1132 1.384 . S
C1130 H1121 0.929 . S
C1130 C1122 1.378 . S
C1130 C1125 1.350 . S
C1131 H1118 0.929 . S
C1131 C1123 1.433 . S
C1131 N1133 1.384 . S
N1132 C1128 1.427 . S
N1132 C1129 1.384 . S
N1133 C1125 1.427 . S
N1133 C1131 1.384 . S
H1134 C1140 0.930 . S
H1135 C1144 0.930 . S
H1136 C1149 0.929 . S
H1137 C1147 0.929 . S
H1138 C1142 0.929 . S
H1139 C1148 0.929 . S
C1140 H1134 0.930 . S
C1140 C1141 1.367 . S
C1140 C1148 1.378 . S
C1141 C1140 1.367 . S
C1141 C1149 1.433 . S
C1142 H1138 0.929 . S
C1142 C1144 1.378 . S
C1142 C1146 1.350 . S
C1143 C1146 1.463 . S
C1143 C1148 1.350 . S
C1143 N1151 1.427 . S
C1144 H1135 0.930 . S
C1144 C1142 1.378 . S
C1144 C1145 1.367 . S
C1145 C1144 1.367 . S
C1145 C1147 1.433 . S
C1146 C1142 1.350 . S
C1146 C1143 1.463 . S
C1146 N1150 1.427 . S
C1147 H1137 0.929 . S
C1147 C1145 1.433 . S
C1147 N1150 1.384 . S
C1148 H1139 0.929 . S
C1148 C1140 1.378 . S
C1148 C1143 1.350 . S
C1149 H1136 0.929 . S
C1149 C1141 1.433 . S
C1149 N1151 1.384 . S
N1150 C1146 1.427 . S
N1150 C1147 1.384 . S
N1151 C1143 1.427 . S
N1151 C1149 1.384 . S
H1152 C1158 0.930 . S
H1153 C1162 0.930 . S
H1154 C1167 0.929 . S
H1155 C1165 0.929 1_554 S
H1156 C1160 0.929 . S
H1157 C1166 0.929 . S
C1158 H1152 0.930 . S
C1158 C1159 1.367 . S
C1158 C1166 1.378 . S
C1159 C1158 1.367 . S
C1159 C1167 1.433 . S
C1160 H1156 0.929 . S
C1160 C1162 1.378 . S
C1160 C1164 1.350 . S
C1161 C1164 1.463 . S
C1161 C1166 1.350 . S
C1161 N1169 1.427 . S
C1162 H1153 0.930 . S
C1162 C1160 1.378 . S
C1162 C1163 1.367 . S
C1163 C1162 1.367 . S
C1163 C1165 1.433 . S
C1164 C1160 1.350 . S
C1164 C1161 1.463 . S
C1164 N1168 1.427 . S
C1165 H1155 0.929 1_556 S
C1165 C1163 1.433 . S
C1165 N1168 1.384 . S
C1166 H1157 0.929 . S
C1166 C1158 1.378 . S
C1166 C1161 1.350 . S
C1167 H1154 0.929 . S
C1167 C1159 1.433 . S
C1167 N1169 1.384 . S
N1168 C1164 1.427 . S
N1168 C1165 1.384 . S
N1169 C1161 1.427 . S
N1169 C1167 1.384 . S
H1170 C1176 0.930 . S
H1171 C1180 0.930 . S
H1172 C1185 0.929 . S
H1173 C1183 0.929 . S
H1174 C1178 0.929 . S
H1175 C1184 0.929 . S
C1176 H1170 0.930 . S
C1176 C1177 1.367 . S
C1176 C1184 1.378 . S
C1177 C1176 1.367 . S
C1177 C1185 1.433 . S
C1178 H1174 0.929 . S
C1178 C1180 1.378 . S
C1178 C1182 1.350 . S
C1179 C1182 1.463 . S
C1179 C1184 1.350 . S
C1179 N1187 1.427 . S
C1180 H1171 0.930 . S
C1180 C1178 1.378 . S
C1180 C1181 1.367 . S
C1181 C1180 1.367 . S
C1181 C1183 1.433 . S
C1182 C1178 1.350 . S
C1182 C1179 1.463 . S
C1182 N1186 1.427 . S
C1183 H1173 0.929 . S
C1183 C1181 1.433 . S
C1183 N1186 1.384 . S
C1184 H1175 0.929 . S
C1184 C1176 1.378 . S
C1184 C1179 1.350 . S
C1185 H1172 0.929 . S
C1185 C1177 1.433 . S
C1185 N1187 1.384 . S
N1186 C1182 1.427 . S
N1186 C1183 1.384 . S
N1187 C1179 1.427 . S
N1187 C1185 1.384 . S
H1188 C1194 0.930 . S
H1189 C1198 0.930 . S
H1190 C1203 0.929 . S
H1191 C1201 0.929 . S
H1192 C1196 0.929 . S
H1193 C1202 0.929 . S
C1194 H1188 0.930 . S
C1194 C1195 1.367 . S
C1194 C1202 1.378 . S
C1195 C1194 1.367 . S
C1195 C1203 1.433 . S
C1196 H1192 0.929 . S
C1196 C1198 1.378 . S
C1196 C1200 1.350 . S
C1197 C1200 1.463 . S
C1197 C1202 1.350 . S
C1197 N1205 1.427 . S
C1198 H1189 0.930 . S
C1198 C1196 1.378 . S
C1198 C1199 1.367 . S
C1199 C1198 1.367 . S
C1199 C1201 1.433 . S
C1200 C1196 1.350 . S
C1200 C1197 1.463 . S
C1200 N1204 1.427 . S
C1201 H1191 0.929 . S
C1201 C1199 1.433 . S
C1201 N1204 1.384 . S
C1202 H1193 0.929 . S
C1202 C1194 1.378 . S
C1202 C1197 1.350 . S
C1203 H1190 0.929 . S
C1203 C1195 1.433 . S
C1203 N1205 1.384 . S
N1204 C1200 1.427 . S
N1204 C1201 1.384 . S
N1205 C1197 1.427 . S
N1205 C1203 1.384 . S
H1206 C1212 0.930 . S
H1207 C1216 0.930 1_565 S
H1208 C1221 0.929 . S
H1209 C1219 0.929 . S
H1210 C1214 0.929 . S
H1211 C1220 0.929 . S
C1212 H1206 0.930 . S
C1212 C1213 1.367 . S
C1212 C1220 1.378 . S
C1213 C1212 1.367 . S
C1213 C1221 1.433 . S
C1214 H1210 0.929 . S
C1214 C1216 1.378 . S
C1214 C1218 1.350 . S
C1215 C1218 1.463 . S
C1215 C1220 1.350 . S
C1215 N1223 1.427 . S
C1216 H1207 0.930 1_545 S
C1216 C1214 1.378 . S
C1216 C1217 1.367 . S
C1217 C1216 1.367 . S
C1217 C1219 1.433 . S
C1218 C1214 1.350 . S
C1218 C1215 1.463 . S
C1218 N1222 1.427 . S
C1219 H1209 0.929 . S
C1219 C1217 1.433 . S
C1219 N1222 1.384 . S
C1220 H1211 0.929 . S
C1220 C1212 1.378 . S
C1220 C1215 1.350 . S
C1221 H1208 0.929 . S
C1221 C1213 1.433 . S
C1221 N1223 1.384 . S
N1222 C1218 1.427 . S
N1222 C1219 1.384 . S
N1223 C1215 1.427 . S
N1223 C1221 1.384 . S
C371 C200 1.832 1_556 S
C367 C66 1.843 . S
C389 C215 1.422 . S
C385 C76 1.436 . S
C403 C93 2.066 . S
C407 C228 2.048 . S
C425 C242 1.435 . S
C421 C54 1.433 . S
C443 C254 1.653 . S
C439 C126 1.750 . S
C461 C268 1.580 . S
C457 C150 1.592 . S
C475 C136 1.376 . S
C479 C282 1.374 . S
C497 C297 1.646 . S
C493 C117 1.716 . S
C511 C141 1.388 . S
C515 C313 1.369 . S
C533 C326 1.371 . S
C529 C112 1.359 . S
C547 C124 1.655 . S
C551 C311 1.595 . S
C569 C324 1.350 . S
C565 C148 1.331 . S
C583 C88 1.628 . S
C587 C340 1.620 . S
C601 C52 1.594 . S
C605 C339 1.587 . S
C619 C64 1.460 . S
C623 C338 1.428 . S
C637 C78 1.336 . S
C641 C341 1.309 . S
C655 C45 1.945 . S
C659 C243 1.932 . S
C673 C177 1.769 . S
C677 C241 1.732 . S
C695 C201 1.344 . S
C691 C189 1.368 . S
C713 C212 1.809 . S
C709 C102 1.845 . S
C727 C57 1.643 1_545 S
C731 C257 1.628 . S
C749 C298 1.883 . S
C745 C138 1.881 . S
C767 C255 1.822 . S
C763 C114 1.851 . S
C785 C283 1.585 . S
C781 C153 1.592 . S
C803 C284 1.833 . S
C799 C174 1.843 . S
C817 C184 1.435 . S
C821 C299 1.428 . S
C835 C105 2.063 . S
C839 C256 2.052 . S
C857 C270 1.439 . S
C853 C162 1.441 . S
C871 C42 1.750 . S
C875 C226 1.651 . S
C893 C240 1.580 1_455 S
C889 C6 1.592 . S
C911 C198 1.374 . S
C907 C16 1.376 . S
C929 C213 1.641 . S
C925 C33 1.715 . S
C943 C21 1.388 . S
C947 C327 1.363 . S
C961 C28 1.359 . S
C965 C312 1.363 . S
C979 C40 1.658 . S
C983 C325 1.594 . S
C997 C4 1.344 . S
C1001 C310 1.356 . S
C1019 C354 1.617 . S
C1015 C100 1.630 . S
C1037 C353 1.579 . S
C1033 C160 1.594 . S
C1055 C352 1.415 . S
C1051 C172 1.462 . S
C1069 C186 1.344 . S
C1073 C355 1.322 . S
C1087 C129 1.945 . S
C1091 C271 1.932 . S
C1109 C269 1.734 . S
C1105 C69 1.768 . S
C1127 C285 1.343 . S
C1123 C81 1.376 . S
C1145 C296 1.808 . S
C1141 C90 1.842 . S
C1159 C165 1.645 . S
C1163 C229 1.633 . S
C1181 C214 1.881 . S
C1177 C18 1.883 . S
C1195 C30 1.851 . S
C1199 C227 1.822 . S
C1217 C199 1.576 1_545 S
C1213 C9 1.595 . S
