# Generated by pormake.
# Topology llk, (3,12)-cn, num edge types: 1
# Building blocks:
#     Node 0, Type 0, BuildingBlock: BETDIP_clean_linker_0, # of connection points: 3
#     Node 1, Type 0, BuildingBlock: BETDIP_clean_linker_0, # of connection points: 3
#     Node 2, Type 0, BuildingBlock: BETDIP_clean_linker_0, # of connection points: 3
#     Node 3, Type 0, BuildingBlock: BETDIP_clean_linker_0, # of connection points: 3
#     Node 4, Type 0, BuildingBlock: BETDIP_clean_linker_0, # of connection points: 3
#     Node 5, Type 0, BuildingBlock: BETDIP_clean_linker_0, # of connection points: 3
#     Node 6, Type 0, BuildingBlock: BETDIP_clean_linker_0, # of connection points: 3
#     Node 7, Type 0, BuildingBlock: BETDIP_clean_linker_0, # of connection points: 3
#     Node 8, Type 0, BuildingBlock: BETDIP_clean_linker_0, # of connection points: 3
#     Node 9, Type 0, BuildingBlock: BETDIP_clean_linker_0, # of connection points: 3
#     Node 10, Type 0, BuildingBlock: BETDIP_clean_linker_0, # of connection points: 3
#     Node 11, Type 0, BuildingBlock: BETDIP_clean_linker_0, # of connection points: 3
#     Node 12, Type 0, BuildingBlock: BETDIP_clean_linker_0, # of connection points: 3
#     Node 13, Type 0, BuildingBlock: BETDIP_clean_linker_0, # of connection points: 3
#     Node 14, Type 0, BuildingBlock: BETDIP_clean_linker_0, # of connection points: 3
#     Node 15, Type 0, BuildingBlock: BETDIP_clean_linker_0, # of connection points: 3
#     Node 16, Type 0, BuildingBlock: BETDIP_clean_linker_0, # of connection points: 3
#     Node 17, Type 0, BuildingBlock: BETDIP_clean_linker_0, # of connection points: 3
#     Node 18, Type 0, BuildingBlock: BETDIP_clean_linker_0, # of connection points: 3
#     Node 19, Type 0, BuildingBlock: BETDIP_clean_linker_0, # of connection points: 3
#     Node 20, Type 0, BuildingBlock: BETDIP_clean_linker_0, # of connection points: 3
#     Node 21, Type 0, BuildingBlock: BETDIP_clean_linker_0, # of connection points: 3
#     Node 22, Type 0, BuildingBlock: BETDIP_clean_linker_0, # of connection points: 3
#     Node 23, Type 0, BuildingBlock: BETDIP_clean_linker_0, # of connection points: 3
#     Node 24, Type 1, BuildingBlock: EZIPEK_clean_sbu_0, # of connection points: 12
#     Node 25, Type 1, BuildingBlock: EZIPEK_clean_sbu_0, # of connection points: 12
#     Node 26, Type 1, BuildingBlock: EZIPEK_clean_sbu_0, # of connection points: 12
#     Node 27, Type 1, BuildingBlock: EZIPEK_clean_sbu_0, # of connection points: 12
#     Node 28, Type 1, BuildingBlock: EZIPEK_clean_sbu_0, # of connection points: 12
#     Node 29, Type 1, BuildingBlock: EZIPEK_clean_sbu_0, # of connection points: 12
#     Edge 30, Type (0, 1), BuildingBlock: XIVTED_clean_linker_0, # of connection points: 2
#     Edge 31, Type (0, 1), BuildingBlock: XIVTED_clean_linker_0, # of connection points: 2
#     Edge 32, Type (0, 1), BuildingBlock: XIVTED_clean_linker_0, # of connection points: 2
#     Edge 33, Type (0, 1), BuildingBlock: XIVTED_clean_linker_0, # of connection points: 2
#     Edge 34, Type (0, 1), BuildingBlock: XIVTED_clean_linker_0, # of connection points: 2
#     Edge 35, Type (0, 1), BuildingBlock: XIVTED_clean_linker_0, # of connection points: 2
#     Edge 36, Type (0, 1), BuildingBlock: XIVTED_clean_linker_0, # of connection points: 2
#     Edge 37, Type (0, 1), BuildingBlock: XIVTED_clean_linker_0, # of connection points: 2
#     Edge 38, Type (0, 1), BuildingBlock: XIVTED_clean_linker_0, # of connection points: 2
#     Edge 39, Type (0, 1), BuildingBlock: XIVTED_clean_linker_0, # of connection points: 2
#     Edge 40, Type (0, 1), BuildingBlock: XIVTED_clean_linker_0, # of connection points: 2
#     Edge 41, Type (0, 1), BuildingBlock: XIVTED_clean_linker_0, # of connection points: 2
#     Edge 42, Type (0, 1), BuildingBlock: XIVTED_clean_linker_0, # of connection points: 2
#     Edge 43, Type (0, 1), BuildingBlock: XIVTED_clean_linker_0, # of connection points: 2
#     Edge 44, Type (0, 1), BuildingBlock: XIVTED_clean_linker_0, # of connection points: 2
#     Edge 45, Type (0, 1), BuildingBlock: XIVTED_clean_linker_0, # of connection points: 2
#     Edge 46, Type (0, 1), BuildingBlock: XIVTED_clean_linker_0, # of connection points: 2
#     Edge 47, Type (0, 1), BuildingBlock: XIVTED_clean_linker_0, # of connection points: 2
#     Edge 48, Type (0, 1), BuildingBlock: XIVTED_clean_linker_0, # of connection points: 2
#     Edge 49, Type (0, 1), BuildingBlock: XIVTED_clean_linker_0, # of connection points: 2
#     Edge 50, Type (0, 1), BuildingBlock: XIVTED_clean_linker_0, # of connection points: 2
#     Edge 51, Type (0, 1), BuildingBlock: XIVTED_clean_linker_0, # of connection points: 2
#     Edge 52, Type (0, 1), BuildingBlock: XIVTED_clean_linker_0, # of connection points: 2
#     Edge 53, Type (0, 1), BuildingBlock: XIVTED_clean_linker_0, # of connection points: 2
#     Edge 54, Type (0, 1), BuildingBlock: XIVTED_clean_linker_0, # of connection points: 2
#     Edge 55, Type (0, 1), BuildingBlock: XIVTED_clean_linker_0, # of connection points: 2
#     Edge 56, Type (0, 1), BuildingBlock: XIVTED_clean_linker_0, # of connection points: 2
#     Edge 57, Type (0, 1), BuildingBlock: XIVTED_clean_linker_0, # of connection points: 2
#     Edge 58, Type (0, 1), BuildingBlock: XIVTED_clean_linker_0, # of connection points: 2
#     Edge 59, Type (0, 1), BuildingBlock: XIVTED_clean_linker_0, # of connection points: 2
#     Edge 60, Type (0, 1), BuildingBlock: XIVTED_clean_linker_0, # of connection points: 2
#     Edge 61, Type (0, 1), BuildingBlock: XIVTED_clean_linker_0, # of connection points: 2
#     Edge 62, Type (0, 1), BuildingBlock: XIVTED_clean_linker_0, # of connection points: 2
#     Edge 63, Type (0, 1), BuildingBlock: XIVTED_clean_linker_0, # of connection points: 2
#     Edge 64, Type (0, 1), BuildingBlock: XIVTED_clean_linker_0, # of connection points: 2
#     Edge 65, Type (0, 1), BuildingBlock: XIVTED_clean_linker_0, # of connection points: 2
#     Edge 66, Type (0, 1), BuildingBlock: XIVTED_clean_linker_0, # of connection points: 2
#     Edge 67, Type (0, 1), BuildingBlock: XIVTED_clean_linker_0, # of connection points: 2
#     Edge 68, Type (0, 1), BuildingBlock: XIVTED_clean_linker_0, # of connection points: 2
#     Edge 69, Type (0, 1), BuildingBlock: XIVTED_clean_linker_0, # of connection points: 2
#     Edge 70, Type (0, 1), BuildingBlock: XIVTED_clean_linker_0, # of connection points: 2
#     Edge 71, Type (0, 1), BuildingBlock: XIVTED_clean_linker_0, # of connection points: 2
#     Edge 72, Type (0, 1), BuildingBlock: XIVTED_clean_linker_0, # of connection points: 2
#     Edge 73, Type (0, 1), BuildingBlock: XIVTED_clean_linker_0, # of connection points: 2
#     Edge 74, Type (0, 1), BuildingBlock: XIVTED_clean_linker_0, # of connection points: 2
#     Edge 75, Type (0, 1), BuildingBlock: XIVTED_clean_linker_0, # of connection points: 2
#     Edge 76, Type (0, 1), BuildingBlock: XIVTED_clean_linker_0, # of connection points: 2
#     Edge 77, Type (0, 1), BuildingBlock: XIVTED_clean_linker_0, # of connection points: 2
#     Edge 78, Type (0, 1), BuildingBlock: XIVTED_clean_linker_0, # of connection points: 2
#     Edge 79, Type (0, 1), BuildingBlock: XIVTED_clean_linker_0, # of connection points: 2
#     Edge 80, Type (0, 1), BuildingBlock: XIVTED_clean_linker_0, # of connection points: 2
#     Edge 81, Type (0, 1), BuildingBlock: XIVTED_clean_linker_0, # of connection points: 2
#     Edge 82, Type (0, 1), BuildingBlock: XIVTED_clean_linker_0, # of connection points: 2
#     Edge 83, Type (0, 1), BuildingBlock: XIVTED_clean_linker_0, # of connection points: 2
#     Edge 84, Type (0, 1), BuildingBlock: XIVTED_clean_linker_0, # of connection points: 2
#     Edge 85, Type (0, 1), BuildingBlock: XIVTED_clean_linker_0, # of connection points: 2
#     Edge 86, Type (0, 1), BuildingBlock: XIVTED_clean_linker_0, # of connection points: 2
#     Edge 87, Type (0, 1), BuildingBlock: XIVTED_clean_linker_0, # of connection points: 2
#     Edge 88, Type (0, 1), BuildingBlock: XIVTED_clean_linker_0, # of connection points: 2
#     Edge 89, Type (0, 1), BuildingBlock: XIVTED_clean_linker_0, # of connection points: 2
#     Edge 90, Type (0, 1), BuildingBlock: XIVTED_clean_linker_0, # of connection points: 2
#     Edge 91, Type (0, 1), BuildingBlock: XIVTED_clean_linker_0, # of connection points: 2
#     Edge 92, Type (0, 1), BuildingBlock: XIVTED_clean_linker_0, # of connection points: 2
#     Edge 93, Type (0, 1), BuildingBlock: XIVTED_clean_linker_0, # of connection points: 2
#     Edge 94, Type (0, 1), BuildingBlock: XIVTED_clean_linker_0, # of connection points: 2
#     Edge 95, Type (0, 1), BuildingBlock: XIVTED_clean_linker_0, # of connection points: 2
#     Edge 96, Type (0, 1), BuildingBlock: XIVTED_clean_linker_0, # of connection points: 2
#     Edge 97, Type (0, 1), BuildingBlock: XIVTED_clean_linker_0, # of connection points: 2
#     Edge 98, Type (0, 1), BuildingBlock: XIVTED_clean_linker_0, # of connection points: 2
#     Edge 99, Type (0, 1), BuildingBlock: XIVTED_clean_linker_0, # of connection points: 2
#     Edge 100, Type (0, 1), BuildingBlock: XIVTED_clean_linker_0, # of connection points: 2
#     Edge 101, Type (0, 1), BuildingBlock: XIVTED_clean_linker_0, # of connection points: 2
# Relax obj value: 0.074
# Max RMSD: 0.173
# Mean RMSD: 0.134
data_MOF--net-llk--node1-EZIPEK_clean_sbu_0--node2-BETDIP_clean_linker_0--edge1-XIVTED_clean_linker_0
_symmetry_space_group_name_H-M    P1
_symmetry_Int_Tables_number       1
_symmetry_cell_setting            triclinic
loop_
_symmetry_equiv_pos_as_xyz
'x, y, z'
_cell_length_a     47.087986
_cell_length_b     47.403735
_cell_length_c     47.671045
_cell_angle_alpha  89.985088
_cell_angle_beta   89.964322
_cell_angle_gamma 89.993028
loop_
_atom_site_label
_atom_site_type_symbol
_atom_site_fract_x
_atom_site_fract_y
_atom_site_fract_z
_atom_type_partial_charge
H0 H 0.01012 0.25 0.22067 0.0
H1 H 0.0024 0.25791 0.31032 0.0
H2 H 0.00689 0.33221 0.25898 0.0
H3 H 0.05087 0.21528 0.28156 0.0
C4 C 0.02929 0.20782 0.28477 0.0
C5 C 0.00828 0.26318 0.23914 0.0
C6 C 0.0091 0.29286 0.2366 0.0
C7 C 0.00654 0.25065 0.266 0.0
C8 C 0.00436 0.26773 0.28987 0.0
C9 C 0.00381 0.29714 0.28742 0.0
C10 C 0.00651 0.30941 0.26084 0.0
N11 N 0.00693 0.22092 0.26952 0.0
H12 H 0.79931 0.00464 0.25936 0.0
H13 H 0.70931 0.99045 0.26835 0.0
H14 H 0.75993 0.00793 0.34089 0.0
H15 H 0.72971 0.95262 0.23277 0.0
C16 C 0.73233 0.97172 0.22038 0.0
C17 C 0.78059 0.00325 0.27249 0.0
C18 C 0.78283 0.00725 0.30178 0.0
C19 C 0.75396 0.99703 0.26034 0.0
C20 C 0.7298 0.99512 0.27757 0.0
C21 C 0.7319 0.99888 0.30656 0.0
C22 C 0.75834 0.00505 0.31838 0.0
N23 N 0.75115 0.99274 0.2309 0.0
H24 H 0.01641 0.79548 0.25934 0.0
H25 H 0.01303 0.70521 0.26999 0.0
H26 H 0.00592 0.75943 0.3416 0.0
H27 H 0.05801 0.72154 0.23672 0.0
C28 C 0.03968 0.72491 0.22325 0.0
C29 C 0.01366 0.77724 0.27276 0.0
C30 C 0.01138 0.78067 0.30212 0.0
C31 C 0.01442 0.7498 0.26113 0.0
C32 C 0.01193 0.72624 0.27884 0.0
C33 C 0.00918 0.72957 0.30784 0.0
C34 C 0.00832 0.75676 0.31912 0.0
N35 N 0.01936 0.74541 0.23198 0.0
H36 H 0.21247 0.01871 0.26126 0.0
H37 H 0.30258 0.0037 0.265 0.0
H38 H 0.25248 0.99948 0.34011 0.0
H39 H 0.28679 0.05587 0.23737 0.0
C40 C 0.28226 0.03867 0.22295 0.0
C41 C 0.23119 0.01299 0.27317 0.0
C42 C 0.22932 0.00889 0.30242 0.0
C43 C 0.25788 0.01172 0.25979 0.0
C44 C 0.28218 0.00496 0.27546 0.0
C45 C 0.28039 1.00018 0.30436 0.0
C46 C 0.25392 1.00216 0.31756 0.0
N47 N 0.26101 0.0189 0.23101 0.0
H48 H 0.01025 0.75646 0.80634 0.0
H49 H 0.00333 0.74949 0.71658 0.0
H50 H 0.00762 0.67465 0.76713 0.0
H51 H 0.05129 0.79245 0.74654 0.0
C52 C 0.02962 0.79944 0.74289 0.0
C53 C 0.00864 0.74346 0.78772 0.0
C54 C 0.0096 0.71377 0.78998 0.0
C55 C 0.00706 0.75626 0.761 0.0
C56 C 0.00518 0.73945 0.73692 0.0
C57 C 0.00472 0.71002 0.73905 0.0
C58 C 0.00725 0.69747 0.76552 0.0
N59 N 0.00725 0.78601 0.75784 0.0
H60 H 0.21129 0.00571 0.76862 0.0
H61 H 0.30063 0.98842 0.75833 0.0
H62 H 0.24918 0.00578 0.68634 0.0
H63 H 0.27974 0.95211 0.79532 0.0
C64 C 0.27809 0.97164 0.80718 0.0
C65 C 0.2297 0.00335 0.75519 0.0
C66 C 0.22704 0.00674 0.72586 0.0
C67 C 0.25635 0.99653 0.76701 0.0
C68 C 0.28009 0.99343 0.74939 0.0
C69 C 0.27754 0.99661 0.72036 0.0
C70 C 0.2511 0.0033 0.70887 0.0
N71 N 0.25968 0.99295 0.7965 0.0
H72 H 0.01948 0.21105 0.76501 0.0
H73 H 0.0029 0.30014 0.75865 0.0
H74 H 1.00037 0.24836 0.68488 0.0
H75 H 0.0556 0.28612 0.78641 0.0
C76 C 0.03853 0.28179 0.80119 0.0
C77 C 0.0135 0.22921 0.75255 0.0
C78 C 0.00966 0.22649 0.7233 0.0
C79 C 0.01166 0.25609 0.76519 0.0
C80 C 0.0046 0.27962 0.74876 0.0
C81 C 1.00027 0.27702 0.71985 0.0
C82 C 0.00274 0.25041 0.70741 0.0
N83 N 0.01874 0.26028 0.79389 0.0
H84 H 0.75878 1.00094 0.80572 0.0
H85 H 0.7516 1.00027 0.71569 0.0
H86 H 0.67783 0.0154 0.76617 0.0
H87 H 0.78208 0.95327 0.73458 0.0
C88 C 0.79603 0.97133 0.73744 0.0
C89 C 0.74597 0.00323 0.78699 0.0
C90 C 0.71673 0.00959 0.78921 0.0
C91 C 0.75844 0.99929 0.76034 0.0
C92 C 0.74179 0.00243 0.73614 0.0
C93 C 0.71284 0.00866 0.73806 0.0
C94 C 0.70053 0.01193 0.76459 0.0
N95 N 0.78763 0.99205 0.75745 0.0
H96 H 0.21159 0.24829 0.0144 0.0
H97 H 0.30155 0.25665 0.99979 0.0
H98 H 0.25175 0.32982 0.01872 0.0
H99 H 0.28008 0.2212 0.96151 0.0
C100 C 0.27792 0.20897 0.98071 0.0
C101 C 0.23042 0.26134 0.01313 0.0
C102 C 0.22848 0.29071 0.01761 0.0
C103 C 0.25684 0.24899 0.00652 0.0
C104 C 0.28118 0.26606 0.00475 0.0
C105 C 0.2794 0.29516 0.00902 0.0
C106 C 0.25311 0.30721 0.01554 0.0
N107 N 0.25918 0.21947 1.00168 0.0
H108 H 0.21167 0.7567 1.00413 0.0
H109 H 0.3027 0.75026 0.00969 0.0
H110 H 0.25241 0.67562 0.9987 0.0
H111 H 0.27263 0.78941 0.05453 0.0
C112 C 0.27552 0.79806 0.0336 0.0
C113 C 0.23073 0.7439 1.00405 0.0
C114 C 0.22883 0.71446 1.00048 0.0
C115 C 0.25743 0.7567 0.00787 0.0
C116 C 0.28216 0.74017 0.00756 0.0
C117 C 0.2805 0.71099 1.00337 0.0
C118 C 0.25381 0.69838 1.00042 0.0
N119 N 0.25976 0.78633 0.01106 0.0
H120 H 0.76167 0.20808 0.99986 0.0
H121 H 0.75448 0.29867 1.00258 0.0
H122 H 0.67989 0.24726 0.0099 0.0
H123 H 0.78801 0.27892 0.95716 0.0
C124 C 0.80083 0.27619 0.97594 0.0
C125 C 0.74881 0.22684 1.0025 0.0
C126 C 0.71908 0.22459 0.00473 0.0
C127 C 0.76158 0.25369 1.00149 0.0
C128 C 0.74467 0.27803 1.00382 0.0
C129 C 0.7152 0.27586 0.00662 0.0
C130 C 0.70274 0.2491 0.00758 0.0
N131 N 0.79113 0.25656 0.99636 0.0
H132 H 0.76108 0.7977 0.02495 0.0
H133 H 0.7546 0.707 0.02362 0.0
H134 H 0.67954 0.75769 0.01632 0.0
H135 H 0.78821 0.72822 0.06872 0.0
C136 C 0.80089 0.73038 0.04976 0.0
C137 C 0.74835 0.7788 0.02271 0.0
C138 C 0.71856 0.78078 0.02075 0.0
C139 C 0.76137 0.75203 0.02396 0.0
C140 C 0.74462 0.72755 0.02217 0.0
C141 C 0.71512 0.72947 0.01969 0.0
C142 C 0.70242 0.75609 0.01843 0.0
N143 N 0.79099 0.74938 0.02885 0.0
H144 H 0.51092 0.75012 0.72083 0.0
H145 H 0.50387 0.75579 0.8107 0.0
H146 H 0.5063 0.83133 0.76111 0.0
H147 H 0.55237 0.71417 0.78169 0.0
C148 C 0.53071 0.70685 0.78474 0.0
C149 C 0.50899 0.76284 0.73961 0.0
C150 C 0.50925 0.79259 0.73773 0.0
C151 C 0.50773 0.74965 0.76618 0.0
C152 C 0.50546 0.76611 0.79046 0.0
C153 C 0.5043 0.79553 0.78871 0.0
C154 C 0.50649 0.80849 0.7624 0.0
N155 N 0.50865 0.71985 0.76899 0.0
H156 H 0.29952 0.48926 0.76124 0.0
H157 H 0.20947 0.50388 0.76724 0.0
H158 H 0.26125 0.50777 0.84117 0.0
H159 H 0.22419 0.4524 0.73912 0.0
C160 C 0.2288 0.4694 0.72446 0.0
C161 C 0.28106 0.49483 0.77363 0.0
C162 C 0.2836 0.49871 0.80287 0.0
C163 C 0.25405 0.49609 0.7609 0.0
C164 C 0.23011 0.50262 0.77721 0.0
C165 C 0.23253 0.50713 0.80611 0.0
C166 C 0.25932 0.50523 0.81864 0.0
N167 N 0.25026 0.48909 0.73215 0.0
H168 H 0.51017 0.29656 0.76081 0.0
H169 H 0.50256 0.20619 0.76621 0.0
H170 H 0.50638 0.25572 0.84146 0.0
H171 H 0.55074 0.23578 0.72416 0.0
C172 C 0.52901 0.23275 0.71708 0.0
C173 C 0.50831 0.27763 0.7734 0.0
C174 C 0.50901 0.27938 0.803 0.0
C175 C 0.50666 0.25096 0.7602 0.0
C176 C 0.50445 0.22649 0.77652 0.0
C177 C 0.50368 0.22816 0.80579 0.0
C178 C 0.50627 0.25452 0.81874 0.0
N179 N 0.507 0.24823 0.73055 0.0
H180 H 0.71182 0.49849 0.75906 0.0
H181 H 0.80172 0.51368 0.76719 0.0
H182 H 0.75185 0.49624 0.84029 0.0
H183 H 0.77922 0.55195 0.7318 0.0
C184 C 0.77765 0.53258 0.71965 0.0
C185 C 0.73063 0.50008 0.77203 0.0
C186 C 0.72863 0.49626 0.80136 0.0
C187 C 0.75708 0.50653 0.75963 0.0
C188 C 0.78135 0.50879 0.77661 0.0
C189 C 0.7795 0.50523 0.80564 0.0
C190 C 0.75323 0.49885 0.81773 0.0
N191 N 0.75957 0.51095 0.7302 0.0
H192 H 0.51106 0.25492 0.30614 0.0
H193 H 0.50319 0.24916 0.21634 0.0
H194 H 0.50709 0.17367 0.26595 0.0
H195 H 0.55198 0.2914 0.24681 0.0
C196 C 0.53034 0.29852 0.24321 0.0
C197 C 0.50912 0.24219 0.28737 0.0
C198 C 0.50976 0.21247 0.28922 0.0
C199 C 0.50742 0.25534 0.26084 0.0
C200 C 0.5051 0.23886 0.23656 0.0
C201 C 0.50429 0.20943 0.23835 0.0
C202 C 0.50696 0.19651 0.26462 0.0
N203 N 0.50791 0.28512 0.25808 0.0
H204 H 0.71259 0.50325 0.26755 0.0
H205 H 0.80376 0.50136 0.26027 0.0
H206 H 0.75275 0.51737 0.18759 0.0
H207 H 0.78452 0.455 0.29023 0.0
C208 C 0.78134 0.47282 0.30426 0.0
C209 C 0.73159 0.50538 0.25489 0.0
C210 C 0.72944 0.51183 0.22604 0.0
C211 C 0.75852 0.50108 0.26716 0.0
C212 C 0.78307 0.50389 0.25066 0.0
C213 C 0.78116 0.51022 0.22208 0.0
C214 C 0.75435 0.51389 0.21002 0.0
N215 N 0.76129 0.49371 0.29597 0.0
H216 H 0.50777 0.7104 0.26644 0.0
H217 H 0.50833 0.80093 0.2586 0.0
H218 H 0.49576 0.74958 0.18573 0.0
H219 H 0.55427 0.78299 0.28977 0.0
C220 C 0.53622 0.77949 0.30359 0.0
C221 C 0.50586 0.72914 0.25356 0.0
C222 C 0.50041 0.72666 0.22448 0.0
C223 C 0.5093 0.75609 0.26581 0.0
C224 C 0.50659 0.78027 0.24903 0.0
C225 C 0.50125 0.77809 0.22028 0.0
C226 C 0.49854 0.75131 0.20824 0.0
N227 N 0.51556 0.75933 0.29487 0.0
H228 H 0.26051 0.50367 0.30659 0.0
H229 H 0.25099 0.49206 0.21745 0.0
H230 H 0.17779 0.50862 0.26818 0.0
H231 H 0.28654 0.45229 0.23791 0.0
C232 C 0.29904 0.4715 0.23975 0.0
C233 C 0.2471 0.50294 0.28816 0.0
C234 C 0.21747 0.50709 0.29069 0.0
C235 C 0.25925 0.49735 0.26163 0.0
C236 C 0.24173 0.49631 0.23783 0.0
C237 C 0.21243 0.5003 0.2401 0.0
C238 C 0.20056 0.50573 0.26647 0.0
N239 N 0.28896 0.49264 0.25852 0.0
H240 H 0.71265 0.75063 0.49882 0.0
H241 H 0.80252 0.75516 0.51469 0.0
H242 H 0.75153 0.83007 0.51953 0.0
H243 H 0.78676 0.72835 0.46162 0.0
C244 C 0.78269 0.71352 0.47858 0.0
C245 C 0.73116 0.76271 0.50496 0.0
C246 C 0.72893 0.79201 0.50945 0.0
C247 C 0.75796 0.74956 0.5063 0.0
C248 C 0.78201 0.76548 0.51348 0.0
C249 C 0.77987 0.79446 0.51859 0.0
C250 C 0.75326 0.80744 0.51662 0.0
N251 N 0.76147 0.72085 0.49854 0.0
H252 H 0.71076 0.25725 0.51323 0.0
H253 H 0.80185 0.24927 0.51375 0.0
H254 H 0.75009 0.17663 0.49815 0.0
H255 H 0.7832 0.27889 0.56057 0.0
C256 C 0.77995 0.29328 0.54309 0.0
C257 C 0.72961 0.24439 0.51075 0.0
C258 C 0.72713 0.21544 0.50419 0.0
C259 C 0.75668 0.25649 0.51473 0.0
C260 C 0.78106 0.23975 0.51145 0.0
C261 C 0.77885 0.21107 0.505 0.0
C262 C 0.75189 0.19915 0.50168 0.0
N263 N 0.75976 0.28535 0.52232 0.0
H264 H 0.2607 0.70854 0.51597 0.0
H265 H 0.25243 0.7979 0.50143 0.0
H266 H 0.17878 0.74872 0.52113 0.0
H267 H 0.28763 0.77525 0.46211 0.0
C268 C 0.29994 0.77394 0.48137 0.0
C269 C 0.2476 0.72729 0.51487 0.0
C270 C 0.21806 0.72545 0.51964 0.0
C271 C 0.26005 0.75349 0.50813 0.0
C272 C 0.24294 0.77772 0.50655 0.0
C273 C 0.21368 0.77606 0.51112 0.0
C274 C 0.20152 0.74998 0.51777 0.0
N275 N 0.2897 0.75573 0.50286 0.0
H276 H 0.25944 0.2967 0.51511 0.0
H277 H 0.25296 0.20612 0.5151 0.0
H278 H 0.17953 0.2564 0.49719 0.0
H279 H 0.2815 0.22551 0.56326 0.0
C280 C 0.29596 0.22845 0.5457 0.0
C281 C 0.24692 0.27778 0.5121 0.0
C282 C 0.21799 0.27979 0.50463 0.0
C283 C 0.25941 0.2511 0.51638 0.0
C284 C 0.24312 0.22661 0.5125 0.0
C285 C 0.21444 0.22836 0.50511 0.0
C286 C 0.2021 0.25495 0.50143 0.0
N287 N 0.28822 0.24857 0.5249 0.0
C288 C 0.0069 0.93543 0.58252 0.0
C289 C 0.00584 0.93408 0.44549 0.0
C290 C 0.00605 0.07172 0.5813 0.0
C291 C 0.00731 0.07038 0.44417 0.0
C292 C 0.93702 0.07142 0.51179 0.0
C293 C 0.93703 0.93448 0.51524 0.0
C294 C 0.07458 0.07093 0.51139 0.0
C295 C 0.07434 0.93468 0.51273 0.0
C296 C 0.07451 0.00279 0.4455 0.0
C297 C 0.93752 0.00336 0.44428 0.0
C298 C 0.07325 0.00465 0.5828 0.0
C299 C 0.93617 0.00275 0.58129 0.0
Eu300 Eu 0.00557 0.94941 0.51392 0.0
O301 O 0.98016 0.97732 0.48849 0.0
O302 O 0.03068 0.97801 0.53881 0.0
Eu303 Eu 0.95154 0.00295 0.51294 0.0
Eu304 Eu 0.05956 0.00292 0.51403 0.0
O305 O 0.98011 0.97821 0.53816 0.0
O306 O 0.0311 0.97763 0.48913 0.0
Eu307 Eu 0.005 0.00353 0.5662 0.0
Eu308 Eu 0.0059 1.00224 0.46061 0.0
O309 O 0.97992 0.02851 0.53774 0.0
O310 O 0.98055 0.02781 0.48818 0.0
O311 O 0.03086 0.02754 0.48877 0.0
O312 O 0.03066 0.02845 0.53823 0.0
Eu313 Eu 0.00564 0.05664 0.51282 0.0
O314 O 0.00607 0.92608 0.55602 0.0
O315 O 0.0063 0.92547 0.47226 0.0
O316 O 0.00721 0.0804 0.55457 0.0
O317 O 0.00543 0.07977 0.47061 0.0
O318 O 0.92821 0.04465 0.51164 0.0
O319 O 0.92813 0.96123 0.51451 0.0
O320 O 0.08329 0.04425 0.51338 0.0
O321 O 0.08332 0.96137 0.51369 0.0
O322 O 0.04755 1.0012 0.43716 0.0
O323 O 0.96467 0.0028 0.43636 0.0
O324 O 0.04607 0.00413 0.5906 0.0
O325 O 0.9632 0.00324 0.58967 0.0
O326 O 0.04765 0.07969 0.51057 0.0
O327 O 0.96393 0.08014 0.51278 0.0
O328 O 0.04733 0.92622 0.51284 0.0
O329 O 0.96398 0.92587 0.5147 0.0
O330 O 0.00523 0.96087 0.43702 0.0
O331 O 0.00814 0.04332 0.43649 0.0
O332 O 0.00667 0.96246 0.5903 0.0
O333 O 0.0045 0.04493 0.58967 0.0
O334 O 0.9274 0.00258 0.55457 0.0
O335 O 0.92824 0.00346 0.47085 0.0
O336 O 0.08264 0.0045 0.55626 0.0
O337 O 0.08329 0.00404 0.47219 0.0
C338 C 0.50307 0.93539 0.08122 0.0
C339 C 0.50622 0.072 0.08029 0.0
C340 C 0.50407 0.93459 0.94547 0.0
C341 C 0.50408 0.07101 0.9446 0.0
C342 C 0.57477 0.00316 0.94496 0.0
C343 C 0.57532 1.00142 0.08063 0.0
C344 C 0.43598 0.00252 0.94574 0.0
C345 C 0.43709 0.00594 0.0815 0.0
C346 C 0.43745 0.0724 0.01235 0.0
C347 C 0.57588 0.07034 0.01186 0.0
C348 C 0.43574 0.93606 0.01528 0.0
C349 C 0.57427 0.93447 0.01317 0.0
Eu350 Eu 0.50612 0.00349 0.06621 0.0
O351 O 0.53145 0.02835 0.03781 0.0
O352 O 0.48054 0.9786 0.0382 0.0
Eu353 Eu 0.55924 0.00258 0.0128 0.0
Eu354 Eu 0.45221 0.00402 0.01354 0.0
O355 O 0.53072 0.97779 0.03796 0.0
O356 O 0.48118 0.02886 0.038 0.0
Eu357 Eu 0.50505 0.94963 0.0132 0.0
Eu358 Eu 0.50644 0.05678 0.01262 0.0
O359 O 0.53046 0.97763 0.98792 0.0
O360 O 0.53108 0.02792 0.98769 0.0
O361 O 0.48081 0.02847 0.9881 0.0
O362 O 0.48012 0.97841 0.9884 0.0
Eu363 Eu 0.50542 0.00298 0.95974 0.0
O364 O 0.50444 0.96213 0.08986 0.0
O365 O 0.50634 0.04525 0.08902 0.0
O366 O 0.50448 0.96136 0.93682 0.0
O367 O 0.50434 0.04424 0.93599 0.0
O368 O 0.58323 1.00222 0.97164 0.0
O369 O 0.58361 1.00207 0.05385 0.0
O370 O 0.42781 0.0037 0.97254 0.0
O371 O 0.42844 0.00519 0.05487 0.0
O372 O 0.46454 0.0809 0.01171 0.0
O373 O 0.54903 0.07957 0.01101 0.0
O374 O 0.46244 0.9266 0.01325 0.0
O375 O 0.54723 0.9258 0.01435 0.0
O376 O 0.46291 1.00184 0.93674 0.0
O377 O 0.54774 0.00386 0.93624 0.0
O378 O 0.46417 0.0056 0.08999 0.0
O379 O 0.54835 1.00161 0.08948 0.0
O380 O 0.50657 0.08064 0.05366 0.0
O381 O 0.50496 0.07977 0.97118 0.0
O382 O 0.50305 0.92664 0.05462 0.0
O383 O 0.50465 0.92586 0.97207 0.0
O384 O 0.58286 0.96122 0.01203 0.0
O385 O 0.58391 0.04341 0.01308 0.0
O386 O 0.42789 0.96307 0.01603 0.0
O387 O 0.42873 0.04565 0.01347 0.0
C388 C 0.0054 0.43332 0.08018 0.0
C389 C 0.00634 0.43435 0.94454 0.0
C390 C 0.00725 0.57111 0.08139 0.0
C391 C 0.00734 0.57209 0.94553 0.0
C392 C 0.93776 0.57229 0.01428 0.0
C393 C 0.93617 0.43513 0.0114 0.0
C394 C 0.07486 0.57096 0.01214 0.0
C395 C 0.07331 0.43312 0.01365 0.0
C396 C 0.07463 0.50395 0.94512 0.0
C397 C 0.93743 0.50596 0.94491 0.0
C398 C 0.07439 0.50046 0.08098 0.0
C399 C 0.9372 0.50405 0.08086 0.0
Eu400 Eu 0.00496 0.44962 0.01249 0.0
O401 O 0.9801 0.47825 0.98757 0.0
O402 O 0.03053 0.47746 0.03755 0.0
Eu403 Eu 0.95199 0.50353 0.01288 0.0
Eu404 Eu 0.05971 0.50224 0.01309 0.0
O405 O 0.98001 0.47787 0.03784 0.0
O406 O 0.03097 0.47762 0.98781 0.0
Eu407 Eu 0.00576 0.50237 0.06614 0.0
Eu408 Eu 0.00598 0.50307 0.95969 0.0
O409 O 0.98085 0.52791 0.03808 0.0
O410 O 0.98092 0.52829 0.98804 0.0
O411 O 0.03113 0.52754 0.98843 0.0
O412 O 0.03138 0.52754 0.03822 0.0
Eu413 Eu 0.00623 0.55614 0.01333 0.0
O414 O 0.00446 0.4252 0.05339 0.0
O415 O 0.00494 0.42589 0.97121 0.0
O416 O 0.0061 0.57966 0.05473 0.0
O417 O 0.00638 0.58037 0.97228 0.0
O418 O 0.9286 0.54559 0.01476 0.0
O419 O 0.9276 0.46204 0.01102 0.0
O420 O 0.08356 0.54408 0.01184 0.0
O421 O 0.08265 0.45981 0.01411 0.0
O422 O 0.04772 0.50366 0.93645 0.0
O423 O 0.9643 0.50415 0.93617 0.0
O424 O 0.04736 0.50023 0.08928 0.0
O425 O 0.96409 0.5031 0.08958 0.0
O426 O 0.04795 0.57959 0.01322 0.0
O427 O 0.96486 0.58036 0.01321 0.0
O428 O 0.04617 0.42519 0.01259 0.0
O429 O 0.96307 0.42643 0.0124 0.0
O430 O 0.00713 0.46124 0.93598 0.0
O431 O 0.00762 0.54527 0.93672 0.0
O432 O 0.00613 0.46009 0.08913 0.0
O433 O 0.00778 0.54419 0.08991 0.0
O434 O 0.92848 0.50411 0.05422 0.0
O435 O 0.92878 0.50633 0.97157 0.0
O436 O 0.08345 0.50196 0.05448 0.0
O437 O 0.08336 0.50321 0.97175 0.0
C438 C 0.50793 0.43514 0.08342 0.0
C439 C 0.50595 0.57154 0.08219 0.0
C440 C 0.5074 0.43401 0.94632 0.0
C441 C 0.5095 0.57046 0.94513 0.0
C442 C 0.57563 0.50028 0.94587 0.0
C443 C 0.57513 0.50411 0.08309 0.0
C444 C 0.43858 0.50189 0.94563 0.0
C445 C 0.438 0.5025 0.08252 0.0
C446 C 0.43838 0.57125 0.01262 0.0
C447 C 0.57575 0.5709 0.01467 0.0
C448 C 0.43813 0.43453 0.0124 0.0
C449 C 0.57564 0.4344 0.01464 0.0
Eu450 Eu 0.50676 0.50325 0.06707 0.0
O451 O 0.5321 0.52808 0.03878 0.0
O452 O 0.48137 0.47772 0.03942 0.0
Eu453 Eu 0.56098 0.50268 0.01444 0.0
Eu454 Eu 0.45308 0.5028 0.01411 0.0
O455 O 0.53219 0.47776 0.03939 0.0
O456 O 0.48155 0.52818 0.03876 0.0
Eu457 Eu 0.5068 0.44912 0.01486 0.0
Eu458 Eu 0.50688 0.55638 0.01371 0.0
O459 O 0.53209 0.47752 0.98992 0.0
O460 O 0.53239 0.52768 0.98927 0.0
O461 O 0.48162 0.52783 0.98895 0.0
O462 O 0.48189 0.47754 0.9897 0.0
Eu463 Eu 0.50711 0.50237 0.96136 0.0
O464 O 0.50825 0.46218 0.09118 0.0
O465 O 0.50722 0.54474 0.09066 0.0
O466 O 0.50641 0.46082 0.93785 0.0
O467 O 0.50967 0.54343 0.93737 0.0
O468 O 0.58458 0.50048 0.97254 0.0
O469 O 0.5843 0.50444 0.05648 0.0
O470 O 0.42966 0.50137 0.97229 0.0
O471 O 0.42913 0.50176 0.05583 0.0
O472 O 0.46528 0.57997 0.01309 0.0
O473 O 0.54874 0.5794 0.01527 0.0
O474 O 0.46498 0.42561 0.01362 0.0
O475 O 0.54861 0.42597 0.01437 0.0
O476 O 0.46563 0.50302 0.93738 0.0
O477 O 0.54861 0.50113 0.93763 0.0
O478 O 0.46506 0.50351 0.09077 0.0
O479 O 0.54804 0.50329 0.09114 0.0
O480 O 0.50515 0.58013 0.05542 0.0
O481 O 0.50786 0.57982 0.9716 0.0
O482 O 0.50671 0.42579 0.05694 0.0
O483 O 0.50806 0.42541 0.97309 0.0
O484 O 0.58466 0.46108 0.0154 0.0
O485 O 0.58471 0.54422 0.01347 0.0
O486 O 0.4296 0.46137 0.01255 0.0
O487 O 0.4296 0.54446 0.01281 0.0
C488 C 0.00289 0.43413 0.58135 0.0
C489 C 0.00499 0.43493 0.4456 0.0
C490 C 0.00421 0.57052 0.58233 0.0
C491 C 0.0072 0.57155 0.44671 0.0
C492 C 0.93705 0.5714 0.5126 0.0
C493 C 0.93607 0.43484 0.51366 0.0
C494 C 0.07558 0.57025 0.51625 0.0
C495 C 0.07464 0.43426 0.51342 0.0
C496 C 0.07549 0.50416 0.44652 0.0
C497 C 0.93688 0.50279 0.4455 0.0
C498 C 0.07427 0.5006 0.58238 0.0
C499 C 0.93583 0.50312 0.58122 0.0
Eu500 Eu 0.0054 0.4492 0.5135 0.0
O501 O 0.98057 0.47797 0.48855 0.0
O502 O 0.03053 0.47719 0.53896 0.0
Eu503 Eu 0.95207 0.50303 0.51347 0.0
Eu504 Eu 0.05929 0.50234 0.51433 0.0
O505 O 0.98024 0.47768 0.53839 0.0
O506 O 0.03093 0.47766 0.48881 0.0
Eu507 Eu 0.00519 0.50232 0.56711 0.0
Eu508 Eu 0.00602 0.5032 0.46066 0.0
O509 O 0.98046 0.52779 0.53885 0.0
O510 O 0.98093 0.52826 0.48903 0.0
O511 O 0.03114 0.52781 0.48942 0.0
O512 O 0.03095 0.52752 0.53945 0.0
Eu513 Eu 0.00616 0.55624 0.51449 0.0
O514 O 0.00392 0.42555 0.5547 0.0
O515 O 0.00476 0.42597 0.47213 0.0
O516 O 0.00456 0.57954 0.55582 0.0
O517 O 0.0084 0.57975 0.47345 0.0
O518 O 0.92844 0.5446 0.51372 0.0
O519 O 0.92783 0.46176 0.51279 0.0
O520 O 0.08372 0.54336 0.5147 0.0
O521 O 0.08313 0.46104 0.51459 0.0
O522 O 0.04851 0.5048 0.43768 0.0
O523 O 0.96394 0.50221 0.43691 0.0
O524 O 0.04716 0.50037 0.59086 0.0
O525 O 0.96275 0.50363 0.5902 0.0
O526 O 0.04866 0.57933 0.51691 0.0
O527 O 0.96411 0.58003 0.51226 0.0
O528 O 0.04762 0.42549 0.51255 0.0
O529 O 0.96302 0.42588 0.51422 0.0
O530 O 0.0058 0.46178 0.43719 0.0
O531 O 0.00539 0.54498 0.43765 0.0
O532 O 0.00327 0.46082 0.59015 0.0
O533 O 0.00479 0.54365 0.59066 0.0
O534 O 0.92767 0.50234 0.55443 0.0
O535 O 0.92832 0.50368 0.47218 0.0
O536 O 0.08295 0.50182 0.55574 0.0
O537 O 0.08376 0.50262 0.47327 0.0
C538 C 0.50565 0.93497 0.58234 0.0
C539 C 0.50572 0.93315 0.44643 0.0
C540 C 0.50499 0.07278 0.58037 0.0
C541 C 0.50474 0.07109 0.44481 0.0
C542 C 0.43528 0.07126 0.51391 0.0
C543 C 0.43582 0.93383 0.51319 0.0
C544 C 0.57251 0.07186 0.51117 0.0
C545 C 0.57287 0.93411 0.51381 0.0
C546 C 0.57341 1.00053 0.44569 0.0
C547 C 0.43619 1.00042 0.44511 0.0
C548 C 0.57296 0.00628 0.58117 0.0
C549 C 0.43561 1.00074 0.58123 0.0
Eu550 Eu 0.50435 0.94964 0.51428 0.0
O551 O 0.47944 0.97759 0.48868 0.0
O552 O 0.52965 0.97823 0.53898 0.0
Eu553 Eu 0.45047 0.00257 0.51321 0.0
Eu554 Eu 0.55812 0.00293 0.51347 0.0
O555 O 0.47904 0.97821 0.53879 0.0
O556 O 0.52955 0.97766 0.48895 0.0
Eu557 Eu 0.50418 0.00373 0.56674 0.0
Eu558 Eu 0.50472 1.00227 0.46006 0.0
O559 O 0.47876 0.02817 0.53805 0.0
O560 O 0.47893 0.0275 0.48781 0.0
O561 O 0.52967 0.02772 0.4881 0.0
O562 O 0.52927 0.02815 0.53791 0.0
Eu563 Eu 0.50402 0.05606 0.51266 0.0
O564 O 0.50423 0.92625 0.55576 0.0
O565 O 0.50445 0.92517 0.47329 0.0
O566 O 0.50582 0.08046 0.55345 0.0
O567 O 0.5035 0.07964 0.47143 0.0
O568 O 0.42645 0.04442 0.5144 0.0
O569 O 0.4268 0.96057 0.51194 0.0
O570 O 0.58151 0.04506 0.51105 0.0
O571 O 0.58176 0.96092 0.51329 0.0
O572 O 0.54658 1.00153 0.43677 0.0
O573 O 0.46315 1.00106 0.43654 0.0
O574 O 0.54599 0.00659 0.58974 0.0
O575 O 0.46245 0.00236 0.59 0.0
O576 O 0.54547 0.08014 0.51212 0.0
O577 O 0.4623 0.07966 0.51295 0.0
O578 O 0.54585 0.92576 0.5146 0.0
O579 O 0.46286 0.92567 0.51475 0.0
O580 O 0.50628 0.95989 0.43736 0.0
O581 O 0.50573 0.04417 0.4363 0.0
O582 O 0.5064 0.96197 0.59064 0.0
O583 O 0.50331 0.04618 0.58973 0.0
O584 O 0.427 1.00043 0.55455 0.0
O585 O 0.42726 1.00115 0.47169 0.0
O586 O 0.58186 0.00438 0.55466 0.0
O587 O 0.58183 1.00079 0.47239 0.0
H588 H 0.17276 0.21731 0.46662 0.0
H589 H 0.1291 0.06835 0.53091 0.0
H590 H 0.21557 0.18091 0.53814 0.0
H591 H 0.07057 0.12269 0.4868 0.0
H592 H 0.16565 0.10491 0.52686 0.0
H593 H 0.13985 0.17754 0.46657 0.0
C594 C 0.17531 0.20092 0.48225 0.0
C595 C 0.19669 0.20267 0.50269 0.0
C596 C 0.1448 0.10871 0.51808 0.0
C597 C 0.15943 0.15699 0.5024 0.0
C598 C 0.12399 0.08792 0.52031 0.0
C599 C 0.09676 0.09265 0.50933 0.0
C600 C 0.13838 0.1341 0.50436 0.0
C601 C 0.0912 0.11835 0.49585 0.0
C602 C 0.15658 0.17824 0.48215 0.0
C603 C 0.19949 0.1804 0.52193 0.0
N604 N 0.1119 0.13811 0.49365 0.0
N605 N 0.18093 0.15849 0.52141 0.0
H606 H 0.78913 0.16835 0.4677 0.0
H607 H 0.94002 0.126 0.53018 0.0
H608 H 0.82689 0.21248 0.53764 0.0
H609 H 0.88421 0.06686 0.48887 0.0
H610 H 0.90308 0.16221 0.52631 0.0
H611 H 0.82886 0.1353 0.4681 0.0
C612 C 0.80579 0.17115 0.48311 0.0
C613 C 0.80444 0.19298 0.50296 0.0
C614 C 0.89903 0.14128 0.51813 0.0
C615 C 0.85012 0.15554 0.50313 0.0
C616 C 0.92004 0.12067 0.52026 0.0
C617 C 0.91503 0.09338 0.50999 0.0
C618 C 0.87314 0.13461 0.5052 0.0
C619 C 0.8888 0.08755 0.49736 0.0
C620 C 0.82845 0.15233 0.48325 0.0
C621 C 0.82709 0.19606 0.52188 0.0
N622 N 0.86884 0.10806 0.49521 0.0
N623 N 0.84899 0.17742 0.52159 0.0
H624 H 0.7864 0.839 0.55471 0.0
H625 H 0.94162 0.87892 0.50062 0.0
H626 H 0.83163 0.79008 0.49264 0.0
H627 H 0.88306 0.93956 0.53569 0.0
H628 H 0.90529 0.84238 0.50537 0.0
H629 H 0.82614 0.8721 0.55627 0.0
C630 C 0.80477 0.83508 0.54158 0.0
C631 C 0.80551 0.81195 0.52321 0.0
C632 C 0.90048 0.86369 0.51204 0.0
C633 C 0.85103 0.84952 0.52516 0.0
C634 C 0.92115 0.88454 0.50936 0.0
C635 C 0.91522 0.91235 0.51755 0.0
C636 C 0.87389 0.87067 0.52334 0.0
C637 C 0.88837 0.91846 0.52876 0.0
C638 C 0.8274 0.85396 0.54252 0.0
C639 C 0.83016 0.80752 0.50721 0.0
N640 N 0.86867 0.89774 0.53138 0.0
N641 N 0.85189 0.82629 0.50841 0.0
H642 H 0.22324 0.82928 0.53176 0.0
H643 H 0.06683 0.88082 0.49443 0.0
H644 H 0.16273 0.78022 0.48442 0.0
H645 H 0.1311 0.93759 0.52596 0.0
H646 H 0.10213 0.84365 0.49156 0.0
H647 H 0.19058 0.86955 0.53006 0.0
C648 C 0.20323 0.8271 0.52077 0.0
C649 C 0.19545 0.80131 0.50854 0.0
C650 C 0.10862 0.86424 0.49902 0.0
C651 C 0.15808 0.84693 0.50679 0.0
C652 C 0.08839 0.88547 0.50086 0.0
C653 C 0.09598 0.91231 0.51069 0.0
C654 C 0.13667 0.86969 0.5073 0.0
C655 C 0.12436 0.91717 0.51829 0.0
C656 C 0.1846 0.85 0.5199 0.0
C657 C 0.16927 0.79952 0.49468 0.0
N658 N 0.14371 0.89594 0.51663 0.0
N659 N 0.15146 0.82195 0.49437 0.0
H660 H 0.47057 0.16316 0.23196 0.0
H661 H 0.52188 0.1276 0.0764 0.0
H662 H 0.53037 0.2155 0.18715 0.0
H663 H 0.48678 0.06627 0.1338 0.0
H664 H 0.51876 0.16339 0.11339 0.0
H665 H 0.46927 0.13096 0.19215 0.0
C666 C 0.4834 0.16789 0.21368 0.0
C667 C 0.501 0.19174 0.21302 0.0
C668 C 0.51176 0.14208 0.11777 0.0
C669 C 0.49938 0.15516 0.16731 0.0
C670 C 0.51348 0.12169 0.09672 0.0
C671 C 0.50477 0.09389 0.10214 0.0
C672 C 0.50087 0.13462 0.14415 0.0
C673 C 0.49407 0.08734 0.12881 0.0
C674 C 0.4826 0.14955 0.19097 0.0
C675 C 0.51654 0.19731 0.1885 0.0
N676 N 0.49237 0.10759 0.14879 0.0
N677 N 0.51553 0.17898 0.1666 0.0
H678 H 0.82866 0.47661 0.2239 0.0
H679 H 0.88448 0.5271 0.07588 0.0
H680 H 0.79224 0.54735 0.17949 0.0
H681 H 0.93984 0.48572 0.13523 0.0
H682 H 0.84821 0.53085 0.11227 0.0
H683 H 0.86844 0.47669 0.19088 0.0
C684 C 0.8292 0.49241 0.2075 0.0
C685 C 0.80689 0.5118 0.20426 0.0
C686 C 0.86835 0.52106 0.11734 0.0
C687 C 0.85185 0.51148 0.16617 0.0
C688 C 0.88894 0.51868 0.09655 0.0
C689 C 0.91511 0.50598 0.10258 0.0
C690 C 0.87381 0.51023 0.1442 0.0
C691 C 0.91992 0.49573 0.12978 0.0
C692 C 0.85182 0.49233 0.18861 0.0
C693 C 0.8086 0.53157 0.18239 0.0
N694 N 0.89931 0.49786 0.14961 0.0
N695 N 0.83051 0.53068 0.16397 0.0
H696 H 0.53344 0.82639 0.22281 0.0
H697 H 0.4796 0.8832 0.07605 0.0
H698 H 0.46445 0.78793 0.17697 0.0
H699 H 0.52176 0.93757 0.13559 0.0
H700 H 0.47703 0.84645 0.11173 0.0
H701 H 0.53195 0.86648 0.19051 0.0
C702 C 0.51775 0.82651 0.20621 0.0
C703 C 0.49923 0.8036 0.20241 0.0
C704 C 0.48669 0.86647 0.11705 0.0
C705 C 0.49788 0.84902 0.16519 0.0
C706 C 0.48836 0.88738 0.09665 0.0
C707 C 0.50102 0.91339 0.10289 0.0
C708 C 0.49815 0.87144 0.14375 0.0
C709 C 0.51174 0.9178 0.13 0.0
C710 C 0.51702 0.84933 0.18774 0.0
C711 C 0.47958 0.80479 0.18031 0.0
N712 N 0.5103 0.89687 0.14944 0.0
N713 N 0.47962 0.82697 0.16237 0.0
H714 H 0.22149 0.52239 0.18758 0.0
H715 H 0.06667 0.48131 0.13426 0.0
H716 H 0.16143 0.47337 0.23565 0.0
H717 H 0.13096 0.51482 0.07879 0.0
H718 H 0.10142 0.47932 0.17175 0.0
H719 H 0.1892 0.52043 0.14734 0.0
C720 C 0.20163 0.51103 0.18959 0.0
C721 C 0.19395 0.49829 0.21508 0.0
C722 C 0.10804 0.48702 0.15138 0.0
C723 C 0.15696 0.49623 0.1694 0.0
C724 C 0.08813 0.48832 0.12995 0.0
C725 C 0.09587 0.49849 0.10338 0.0
C726 C 0.13592 0.49616 0.14641 0.0
C727 C 0.12411 0.50686 0.09898 0.0
C728 C 0.18321 0.51 0.16667 0.0
C729 C 0.16792 0.48402 0.21661 0.0
N730 N 0.14314 0.50572 0.1204 0.0
N731 N 0.15031 0.48352 0.19415 0.0
H732 H 0.53082 0.7892 0.83964 0.0
H733 H 0.48382 0.94083 0.89238 0.0
H734 H 0.47068 0.84186 0.79568 0.0
H735 H 0.51981 0.87895 0.9486 0.0
H736 H 0.4812 0.90509 0.85586 0.0
H737 H 0.52856 0.82157 0.87965 0.0
C738 C 0.51688 0.80735 0.83855 0.0
C739 C 0.50122 0.81311 0.81416 0.0
C740 C 0.48955 0.89925 0.87622 0.0
C741 C 0.49894 0.85025 0.85946 0.0
C742 C 0.49126 0.91971 0.89702 0.0
C743 C 0.50223 0.91287 0.92349 0.0
C744 C 0.49921 0.87181 0.88176 0.0
C745 C 0.51119 0.88506 0.92845 0.0
C746 C 0.5157 0.82583 0.8613 0.0
C747 C 0.48365 0.837 0.81379 0.0
N748 N 0.50971 0.86553 0.90764 0.0
N749 N 0.48321 0.85484 0.83597 0.0
H750 H 0.22618 0.54259 0.85111 0.0
H751 H 0.07039 0.48905 0.88987 0.0
H752 H 0.18085 0.48085 0.8018 0.0
H753 H 0.12873 0.52399 0.95051 0.0
H754 H 0.10712 0.49335 0.8538 0.0
H755 H 0.18644 0.5439 0.88406 0.0
C756 C 0.20781 0.52945 0.8471 0.0
C757 C 0.20702 0.5113 0.82385 0.0
C758 C 0.1118 0.50008 0.87501 0.0
C759 C 0.16146 0.51298 0.86124 0.0
C760 C 0.09089 0.49767 0.89558 0.0
C761 C 0.09663 0.50598 0.92326 0.0
C762 C 0.13842 0.51124 0.88213 0.0
C763 C 0.12354 0.517 0.92951 0.0
C764 C 0.18517 0.53025 0.86588 0.0
C765 C 0.18235 0.49528 0.81932 0.0
N766 N 0.14344 0.51937 0.90906 0.0
N767 N 0.1606 0.49636 0.83798 0.0
H768 H 0.52984 0.17676 0.79931 0.0
H769 H 0.48401 0.12449 0.95075 0.0
H770 H 0.47026 0.22135 0.85202 0.0
H771 H 0.51939 0.0676 0.88919 0.0
H772 H 0.48114 0.16106 0.91505 0.0
H773 H 0.52771 0.13662 0.83166 0.0
C774 C 0.51604 0.17795 0.81746 0.0
C775 C 0.50053 0.20255 0.82326 0.0
C776 C 0.4894 0.14054 0.90927 0.0
C777 C 0.49839 0.15713 0.86037 0.0
C778 C 0.49125 0.11971 0.92971 0.0
C779 C 0.5021 0.09303 0.92293 0.0
C780 C 0.49881 0.13481 0.88192 0.0
C781 C 0.51083 0.08791 0.89524 0.0
C782 C 0.51493 0.15513 0.83594 0.0
C783 C 0.48312 0.20306 0.84714 0.0
N784 N 0.50923 0.10874 0.87572 0.0
N785 N 0.48275 0.18081 0.86496 0.0
H786 H 0.83317 0.48424 0.79729 0.0
H787 H 0.88303 0.52445 0.95163 0.0
H788 H 0.78323 0.53382 0.85507 0.0
H789 H 0.94108 0.49245 0.88902 0.0
H790 H 0.84604 0.52699 0.91622 0.0
H791 H 0.87328 0.48674 0.82995 0.0
C792 C 0.83078 0.4959 0.81669 0.0
C793 C 0.80477 0.5085 0.82372 0.0
C794 C 0.8669 0.51954 0.91014 0.0
C795 C 0.8502 0.51115 0.86112 0.0
C796 C 0.88802 0.5179 0.93042 0.0
C797 C 0.91516 0.50804 0.92331 0.0
C798 C 0.8728 0.51099 0.88256 0.0
C799 C 0.92044 0.50019 0.89539 0.0
C800 C 0.85359 0.49723 0.83532 0.0
C801 C 0.80271 0.52324 0.84914 0.0
N802 N 0.89933 0.50164 0.87601 0.0
N803 N 0.82504 0.52396 0.867 0.0
H804 H 0.72259 0.67912 0.99184 0.0
H805 H 0.56883 0.62441 0.03395 0.0
H806 H 0.66673 0.7218 0.0498 0.0
H807 H 0.63196 0.56828 0.99912 0.0
H808 H 0.60423 0.66148 0.03641 0.0
H809 H 0.68987 0.6387 0.99165 0.0
C810 C 0.70359 0.67988 0.00464 0.0
C811 C 0.69703 0.704 0.02044 0.0
C812 C 0.61045 0.64104 0.02832 0.0
C813 C 0.65973 0.65832 0.02013 0.0
C814 C 0.59016 0.61988 0.02671 0.0
C815 C 0.59743 0.59324 0.0162 0.0
C816 C 0.63823 0.63572 0.0191 0.0
C817 C 0.62552 0.58855 0.00744 0.0
C818 C 0.68497 0.65691 1.00448 0.0
C819 C 0.67221 0.70396 0.03669 0.0
N820 N 0.64496 0.60972 0.00891 0.0
N821 N 0.65439 0.6816 0.03593 0.0
H822 H 0.29135 0.66781 0.96718 0.0
H823 H 0.44167 0.6259 0.03085 0.0
H824 H 0.32839 0.71368 0.03633 0.0
H825 H 0.38526 0.56664 0.99053 0.0
H826 H 0.40485 0.66229 0.02691 0.0
H827 H 0.33098 0.63482 0.96867 0.0
C828 C 0.30787 0.67096 0.98268 0.0
C829 C 0.30629 0.69318 1.00206 0.0
C830 C 0.40065 0.64129 0.01898 0.0
C831 C 0.35187 0.65573 1.00353 0.0
C832 C 0.42158 0.62058 0.02113 0.0
C833 C 0.41639 0.59324 0.01106 0.0
C834 C 0.37469 0.63464 0.00621 0.0
C835 C 0.39002 0.58738 0.99879 0.0
C836 C 0.33047 0.65216 0.98346 0.0
C837 C 0.32876 0.6968 0.02106 0.0
N838 N 0.37019 0.60799 0.99656 0.0
N839 N 0.35065 0.67809 0.02145 0.0
H840 H 0.33289 0.28596 0.02997 0.0
H841 H 0.38397 0.44187 0.99374 0.0
H842 H 0.28355 0.34569 0.98206 0.0
H843 H 0.44123 0.37813 0.02534 0.0
H844 H 0.3468 0.40653 0.99027 0.0
H845 H 0.37318 0.31869 0.02865 0.0
C846 C 0.33067 0.30581 0.01892 0.0
C847 C 0.30477 0.31335 0.00644 0.0
C848 C 0.36751 0.40019 0.99787 0.0
C849 C 0.35041 0.35083 0.00515 0.0
C850 C 0.38873 0.42043 1.00005 0.0
C851 C 0.4157 0.41298 0.01006 0.0
C852 C 0.37314 0.37229 0.00599 0.0
C853 C 0.42071 0.38476 0.01752 0.0
C854 C 0.35358 0.32449 0.01827 0.0
C855 C 0.30293 0.33934 0.99251 0.0
N856 N 0.39951 0.36541 0.01553 0.0
N857 N 0.32536 0.35722 0.99244 0.0
H858 H 0.72287 0.32596 0.0349 0.0
H859 H 0.56838 0.38086 0.99559 0.0
H860 H 0.66612 0.28361 0.97761 0.0
H861 H 0.63202 0.43684 0.02965 0.0
H862 H 0.60368 0.34374 0.9926 0.0
H863 H 0.69002 0.36626 0.03605 0.0
C864 C 0.70364 0.32524 0.02245 0.0
C865 C 0.69691 0.30123 0.00654 0.0
C866 C 0.61003 0.36414 1.00067 0.0
C867 C 0.65944 0.3468 0.00797 0.0
C868 C 0.58979 0.38534 1.00259 0.0
C869 C 0.59723 0.41197 0.01303 0.0
C870 C 0.63794 0.36941 0.00949 0.0
C871 C 0.62544 0.41658 0.02143 0.0
C872 C 0.68495 0.34814 0.02317 0.0
C873 C 0.67177 0.30134 0.99079 0.0
N874 N 0.64484 0.39538 0.01964 0.0
N875 N 0.65389 0.32364 0.99208 0.0
H876 H 0.03068 0.71635 0.68779 0.0
H877 H 0.98474 0.56389 0.63574 0.0
H878 H 0.97229 0.66271 0.73294 0.0
H879 H 0.01984 0.62615 0.57936 0.0
H880 H 0.98254 0.59947 0.6725 0.0
H881 H 0.02864 0.68365 0.64805 0.0
C882 C 0.01718 0.6979 0.68921 0.0
C883 C 0.00193 0.69202 0.71384 0.0
C884 C 0.9906 0.60541 0.65205 0.0
C885 C 0.99989 0.65448 0.66882 0.0
C886 C 0.99206 0.58505 0.63111 0.0
C887 C 0.00262 0.59207 0.60451 0.0
C888 C 1.00009 0.63292 0.64649 0.0
C889 C 0.01149 0.61991 0.59959 0.0
C890 C 0.01613 0.67922 0.66661 0.0
C891 C 0.98494 0.66771 0.71463 0.0
N892 N 0.01023 0.63934 0.6205 0.0
N893 N 0.9846 0.64972 0.69257 0.0
H894 H 0.2802 0.9682 0.67067 0.0
H895 H 0.44014 0.01298 0.63725 0.0
H896 H 0.33131 0.01748 0.72764 0.0
H897 H 0.38072 0.98324 0.57485 0.0
H898 H 0.40296 0.00894 0.67282 0.0
H899 H 0.31974 0.96718 0.63764 0.0
C900 C 0.29981 0.97876 0.67623 0.0
C901 C 0.3024 0.99331 0.70171 0.0
C902 C 0.39814 0.00329 0.65133 0.0
C903 C 0.34773 0.99205 0.66415 0.0
C904 C 0.41933 0.00554 0.63102 0.0
C905 C 0.41348 0.99858 0.60299 0.0
C906 C 0.37106 0.99377 0.64357 0.0
C907 C 0.38613 0.98912 0.59613 0.0
C908 C 0.32236 0.97813 0.65741 0.0
C909 C 0.32848 0.00601 0.7082 0.0
N910 N 0.36595 0.98697 0.6163 0.0
N911 N 0.35015 0.00526 0.68941 0.0
H912 H 0.96495 0.28273 0.67447 0.0
H913 H 0.01752 0.43816 0.63666 0.0
H914 H 0.02597 0.32867 0.72435 0.0
H915 H 0.98265 0.38044 0.57562 0.0
H916 H 0.01318 0.40153 0.6725 0.0
H917 H 0.9633 0.32224 0.64158 0.0
C918 C 0.97785 0.30118 0.67861 0.0
C919 C 0.99588 0.30224 0.70203 0.0
C920 C 0.00645 0.39696 0.65126 0.0
C921 C 0.99381 0.3475 0.66472 0.0
C922 C 0.00887 0.41782 0.63082 0.0
C923 C 0.00061 0.41222 0.6031 0.0
C924 C 0.99537 0.3705 0.64397 0.0
C925 C 0.9896 0.3855 0.59667 0.0
C926 C 0.97685 0.32368 0.65987 0.0
C927 C 0.0116 0.32696 0.70672 0.0
N928 N 0.98724 0.36561 0.617 0.0
N929 N 0.01033 0.34857 0.6881 0.0
H930 H 0.71518 0.97614 0.69043 0.0
H931 H 0.56759 0.03035 0.63275 0.0
H932 H 0.66977 0.046 0.72755 0.0
H933 H 0.62799 0.98768 0.57935 0.0
H934 H 0.60363 0.03331 0.66934 0.0
H935 H 0.68282 0.97773 0.65038 0.0
C936 C 0.69868 0.99206 0.69002 0.0
C937 C 0.69501 0.01079 0.71255 0.0
C938 C 0.60905 0.02345 0.64955 0.0
C939 C 0.65767 0.01223 0.66717 0.0
C940 C 0.58844 0.02156 0.62876 0.0
C941 C 0.59482 0.0086 0.60308 0.0
C942 C 0.63606 0.01192 0.64481 0.0
C943 C 0.62226 0.99788 0.59887 0.0
C944 C 0.68017 0.99284 0.66722 0.0
C945 C 0.673 0.03071 0.71099 0.0
N946 N 0.64188 0.99952 0.61969 0.0
N947 N 0.65497 0.0307 0.68884 0.0
H948 H 0.97125 0.34446 0.29288 0.0
H949 H 0.02021 0.37925 0.44927 0.0
H950 H 0.02944 0.29138 0.33886 0.0
H951 H 0.98658 0.44125 0.39176 0.0
H952 H 0.01761 0.34379 0.41199 0.0
H953 H 0.97007 0.37704 0.33239 0.0
C954 C 0.98379 0.33966 0.31132 0.0
C955 C 0.00084 0.31541 0.31242 0.0
C956 C 0.01082 0.36517 0.40763 0.0
C957 C 0.99927 0.35243 0.35783 0.0
C958 C 0.01221 0.38537 0.42885 0.0
C959 C 0.00373 0.41325 0.42352 0.0
C960 C 0.0005 0.37289 0.38111 0.0
C961 C 0.99363 0.42008 0.3967 0.0
C962 C 0.98304 0.35822 0.33387 0.0
C963 C 0.01599 0.30982 0.33716 0.0
N964 N 0.99223 0.4 0.37652 0.0
N965 N 0.01498 0.32833 0.3589 0.0
H966 H 0.67839 0.02023 0.29805 0.0
H967 H 0.6279 0.98261 0.45299 0.0
H968 H 0.72804 0.9714 0.35667 0.0
H969 H 0.57012 0.0135 0.38965 0.0
H970 H 0.66515 0.97976 0.4178 0.0
H971 H 0.63829 0.01859 0.33081 0.0
C972 C 0.68073 0.00891 0.31766 0.0
C973 C 0.70666 0.99624 0.32486 0.0
C974 C 0.64431 0.98706 0.41152 0.0
C975 C 0.66122 0.99461 0.36239 0.0
C976 C 0.62304 0.98888 0.43166 0.0
C977 C 0.59589 0.99848 0.42428 0.0
C978 C 0.63853 0.99515 0.38378 0.0
C979 C 0.59077 0.00595 0.39623 0.0
C980 C 0.65792 0.00809 0.33635 0.0
C981 C 0.70864 0.982 0.35057 0.0
N982 N 0.612 0.00432 0.37698 0.0
N983 N 0.6863 0.98177 0.36849 0.0
H984 H 0.98125 0.67892 0.30169 0.0
H985 H 0.02572 0.62549 0.45375 0.0
H986 H 0.03818 0.72381 0.35689 0.0
H987 H 0.99102 0.56906 0.39138 0.0
H988 H 0.0267 0.66296 0.41905 0.0
H989 H 0.98151 0.63908 0.33461 0.0
C990 C 0.99386 0.68034 0.32063 0.0
C991 C 0.00938 0.70485 0.32679 0.0
C992 C 0.01896 0.64237 0.41287 0.0
C993 C 0.00955 0.65975 0.36438 0.0
C994 C 0.01825 0.62096 0.43274 0.0
C995 C 0.00821 0.5941 0.42547 0.0
C996 C 0.00933 0.63705 0.38554 0.0
C997 C 0.99904 0.58946 0.39782 0.0
C998 C 0.99395 0.65768 0.33937 0.0
C999 C 0.0253 0.70565 0.35163 0.0
N1000 N 0.99966 0.61083 0.37882 0.0
N1001 N 0.02483 0.68352 0.36956 0.0
H1002 H 0.3321 0.0263 0.29933 0.0
H1003 H 0.38243 0.97963 0.45051 0.0
H1004 H 0.28742 0.96408 0.3487 0.0
H1005 H 0.44028 0.01542 0.38983 0.0
H1006 H 0.34645 0.97567 0.41392 0.0
H1007 H 0.37192 0.02343 0.33198 0.0
C1008 C 0.33086 0.01162 0.3167 0.0
C1009 C 0.30623 0.99563 0.32148 0.0
C1010 C 0.36708 0.98424 0.40858 0.0
C1011 C 0.35136 0.99288 0.35924 0.0
C1012 C 0.38752 0.98675 0.42951 0.0
C1013 C 0.41429 0.99807 0.42321 0.0
C1014 C 0.3733 0.9935 0.3813 0.0
C1015 C 0.41989 0.00658 0.39556 0.0
C1016 C 0.35353 0.01016 0.33543 0.0
C1017 C 0.30572 0.97727 0.34458 0.0
N1018 N 0.39944 0.00436 0.37562 0.0
N1019 N 0.32779 0.97668 0.36283 0.0
H1020 H 0.06624 0.16817 0.30286 0.0
H1021 H 0.98257 0.12306 0.44008 0.0
H1022 H 0.9815 0.19924 0.31742 0.0
H1023 H 0.03709 0.06525 0.39552 0.0
H1024 H 0.98607 0.15616 0.40024 0.0
H1025 H 0.06013 0.13472 0.34164 0.0
C1026 C 0.04624 0.16773 0.31411 0.0
C1027 C 0.02421 0.18616 0.3067 0.0
C1028 C 0.99716 0.13617 0.39929 0.0
C1029 C 0.01741 0.14865 0.3517 0.0
C1030 C 0.99536 0.11741 0.42204 0.0
C1031 C 0.0095 0.09133 0.42108 0.0
C1032 C 0.01385 0.12907 0.37586 0.0
C1033 C 0.02566 0.08501 0.3971 0.0
C1034 C 0.04279 0.14871 0.33623 0.0
C1035 C 0.99883 0.18503 0.32219 0.0
N1036 N 0.02761 0.10381 0.37563 0.0
N1037 N 0.99621 0.16679 0.34422 0.0
H1038 H 0.79484 0.04835 0.33985 0.0
H1039 H 0.94244 0.98305 0.3907 0.0
H1040 H 0.83247 0.97669 0.2984 0.0
H1041 H 0.88429 0.02689 0.44544 0.0
H1042 H 0.9078 0.98702 0.35248 0.0
H1043 H 0.83406 0.04859 0.37339 0.0
C1044 C 0.81177 0.03306 0.33742 0.0
C1045 C 0.81025 0.01228 0.31646 0.0
C1046 C 0.90269 0.99575 0.37285 0.0
C1047 C 0.85512 0.01229 0.35504 0.0
C1048 C 0.9224 0.99353 0.39469 0.0
C1049 C 0.9162 0.00457 0.42139 0.0
C1050 C 0.87681 0.00964 0.37754 0.0
C1051 C 0.88986 0.01784 0.42533 0.0
C1052 C 0.83398 0.03305 0.35674 0.0
C1053 C 0.83287 0.99311 0.31417 0.0
N1054 N 0.87125 0.02017 0.40361 0.0
N1055 N 0.85429 0.99338 0.33345 0.0
H1056 H 0.97777 0.82833 0.29816 0.0
H1057 H 0.02882 0.88103 0.44801 0.0
H1058 H 0.05099 0.79456 0.34068 0.0
H1059 H 0.98548 0.93781 0.39168 0.0
H1060 H 0.03251 0.8466 0.40991 0.0
H1061 H 0.97695 0.86773 0.33207 0.0
C1062 C 0.99412 0.82969 0.31407 0.0
C1063 C 0.01447 0.80823 0.31667 0.0
C1064 C 0.02222 0.86662 0.40588 0.0
C1065 C 0.01301 0.85223 0.35594 0.0
C1066 C 0.01988 0.88617 0.42771 0.0
C1067 C 0.00685 0.91235 0.42306 0.0
C1068 C 0.01099 0.873 0.37927 0.0
C1069 C 0.99585 0.91792 0.39615 0.0
C1070 C 0.99348 0.85193 0.33357 0.0
C1071 C 0.03491 0.81067 0.338 0.0
N1072 N 0.99798 0.89835 0.37532 0.0
N1073 N 0.03337 0.83191 0.35703 0.0
H1074 H 0.2212 0.04514 0.34555 0.0
H1075 H 0.06967 0.98466 0.39108 0.0
H1076 H 0.17787 0.98166 0.29708 0.0
H1077 H 0.12856 0.02428 0.44816 0.0
H1078 H 0.10484 0.98904 0.35345 0.0
H1079 H 0.1823 0.04481 0.37942 0.0
C1080 C 0.20311 0.03153 0.34178 0.0
C1081 C 0.20277 0.01327 0.3186 0.0
C1082 C 0.11003 0.99673 0.37421 0.0
C1083 C 0.1583 0.01246 0.35756 0.0
C1084 C 0.08999 0.99427 0.39574 0.0
C1085 C 0.09619 0.00405 0.42292 0.0
C1086 C 0.1363 0.00948 0.37974 0.0
C1087 C 0.12291 0.01622 0.42766 0.0
C1088 C 0.18106 0.03116 0.36125 0.0
C1089 C 0.17884 0.99612 0.31462 0.0
N1090 N 0.14188 0.01872 0.40627 0.0
N1091 N 0.15759 0.99592 0.33411 0.0
H1092 H 0.06605 0.83958 0.72483 0.0
H1093 H 0.98361 0.88205 0.5862 0.0
H1094 H 0.9822 0.80662 0.70948 0.0
H1095 H 0.03558 0.94141 0.6316 0.0
H1096 H 0.98732 0.84909 0.62617 0.0
H1097 H 0.0598 0.87252 0.68567 0.0
C1098 C 0.04622 0.83948 0.71332 0.0
C1099 C 0.02447 0.8207 0.72062 0.0
C1100 C 0.99781 0.86939 0.62726 0.0
C1101 C 0.01753 0.85762 0.67521 0.0
C1102 C 0.99589 0.88806 0.60445 0.0
C1103 C 0.00925 0.91453 0.60562 0.0
C1104 C 0.01385 0.877 0.65095 0.0
C1105 C 0.02477 0.92133 0.62985 0.0
C1106 C 0.04269 0.85821 0.69098 0.0
C1107 C 0.9993 0.82113 0.70479 0.0
N1108 N 0.02687 0.90264 0.65137 0.0
N1109 N 0.99661 0.83912 0.68257 0.0
H1110 H 0.21583 0.04827 0.68807 0.0
H1111 H 0.06749 0.98539 0.63665 0.0
H1112 H 0.17677 0.97734 0.72946 0.0
H1113 H 0.12696 0.02729 0.58178 0.0
H1114 H 0.10183 0.98917 0.67508 0.0
H1115 H 0.17676 0.04917 0.65434 0.0
C1116 C 0.19856 0.03335 0.6905 0.0
C1117 C 0.19964 0.01255 0.71148 0.0
C1118 C 0.1073 0.99753 0.65463 0.0
C1119 C 0.15501 0.01326 0.67266 0.0
C1120 C 0.08776 0.9954 0.63266 0.0
C1121 C 0.09441 0.00591 0.60585 0.0
C1122 C 0.13348 0.01084 0.64999 0.0
C1123 C 0.12102 0.01864 0.60197 0.0
C1124 C 0.17647 0.03368 0.67105 0.0
C1125 C 0.17669 0.99379 0.7137 0.0
N1126 N 0.13948 0.02091 0.62383 0.0
N1127 N 0.15539 0.99438 0.6943 0.0
H1128 H 0.04764 0.21759 0.6816 0.0
H1129 H 0.98699 0.06714 0.63549 0.0
H1130 H 0.98184 0.17554 0.72851 0.0
H1131 H 0.02803 0.12534 0.57884 0.0
H1132 H 0.9908 0.10222 0.67305 0.0
H1133 H 0.048 0.17865 0.64806 0.0
C1134 C 0.03371 0.19974 0.68516 0.0
C1135 C 0.01462 0.19977 0.70779 0.0
C1136 C 0.99895 0.10726 0.6524 0.0
C1137 C 0.01455 0.15529 0.66914 0.0
C1138 C 0.99683 0.08728 0.63092 0.0
C1139 C 0.00717 0.09331 0.60386 0.0
C1140 C 0.01195 0.13332 0.647 0.0
C1141 C 0.01957 0.11981 0.59923 0.0
C1142 C 0.03371 0.17768 0.66585 0.0
C1143 C 0.99699 0.1762 0.71143 0.0
N1144 N 0.02176 0.13873 0.6206 0.0
N1145 N 0.99719 0.15493 0.69211 0.0
H1146 H 0.80061 0.94414 0.68792 0.0
H1147 H 0.94043 0.02183 0.63537 0.0
H1148 H 0.83814 0.0122 0.73501 0.0
H1149 H 0.88252 0.98009 0.57886 0.0
H1150 H 0.90592 0.01594 0.6734 0.0
H1151 H 0.83336 0.95383 0.64927 0.0
C1152 C 0.81587 0.9611 0.69013 0.0
C1153 C 0.8167 0.97736 0.71469 0.0
C1154 C 0.90069 0.00828 0.65263 0.0
C1155 C 0.85442 0.98851 0.67052 0.0
C1156 C 0.9204 0.01154 0.6309 0.0
C1157 C 0.9144 1.00137 0.60383 0.0
C1158 C 0.87499 0.99424 0.64747 0.0
C1159 C 0.88801 0.98838 0.59931 0.0
C1160 C 0.83443 0.96673 0.66799 0.0
C1161 C 0.8368 0.99917 0.71642 0.0
N1162 N 0.86945 0.98489 0.62096 0.0
N1163 N 0.85505 0.00398 0.69469 0.0
H1164 H 0.28055 0.99945 0.17984 0.0
H1165 H 0.44199 0.02682 0.1349 0.0
H1166 H 0.33352 0.06335 0.21726 0.0
H1167 H 0.38094 0.99075 0.0777 0.0
H1168 H 0.40402 0.03344 0.16934 0.0
H1169 H 0.31855 0.98969 0.14557 0.0
C1170 C 0.30012 0.0114 0.18081 0.0
C1171 C 0.30394 0.03231 0.20129 0.0
C1172 C 0.39897 0.02399 0.14927 0.0
C1173 C 0.34743 0.02097 0.16275 0.0
C1174 C 0.42068 0.02003 0.12966 0.0
C1175 C 0.41467 0.00833 0.10329 0.0
C1176 C 0.37106 0.01581 0.14271 0.0
C1177 C 0.38653 1.00009 0.09767 0.0
C1178 C 0.32174 0.00585 0.1613 0.0
C1179 C 0.3297 0.04716 0.20169 0.0
N1180 N 0.36578 0.00392 0.11723 0.0
N1181 N 0.35049 0.0411 0.18288 0.0
H1182 H 0.0488 0.3325 0.2245 0.0
H1183 H 0.98544 0.37896 0.07609 0.0
H1184 H 0.9781 0.28837 0.18753 0.0
H1185 H 0.02804 0.43561 0.13306 0.0
H1186 H 0.98867 0.34143 0.11153 0.0
H1187 H 0.04889 0.36525 0.18499 0.0
C1188 C 0.03361 0.32939 0.20771 0.0
C1189 C 0.01322 0.30783 0.20943 0.0
C1190 C 0.99728 0.36209 0.11619 0.0
C1191 C 0.01305 0.34556 0.16413 0.0
C1192 C 0.99551 0.38352 0.09601 0.0
C1193 C 0.0064 0.41058 0.10164 0.0
C1194 C 0.0106 0.36755 0.14195 0.0
C1195 C 0.01912 0.41523 0.12785 0.0
C1196 C 0.03353 0.34825 0.18529 0.0
C1197 C 0.9942 0.30466 0.18697 0.0
N1198 N 0.02102 0.39392 0.14689 0.0
N1199 N 0.99439 0.32352 0.16529 0.0
H1200 H 0.73093 0.01391 0.18007 0.0
H1201 H 0.57169 0.97907 0.13351 0.0
H1202 H 0.68309 0.9437 0.21283 0.0
H1203 H 0.6308 0.01896 0.07678 0.0
H1204 H 0.61013 0.97329 0.16761 0.0
H1205 H 0.69238 0.02289 0.14615 0.0
C1206 C 0.71235 1.00045 0.18012 0.0
C1207 C 0.71016 0.97797 0.19916 0.0
C1208 C 0.61464 0.98341 0.14772 0.0
C1209 C 0.66603 0.98839 0.16107 0.0
C1210 C 0.59267 0.98688 0.12832 0.0
C1211 C 0.59802 0.99941 0.10217 0.0
C1212 C 0.64211 0.99298 0.14123 0.0
C1213 C 0.62576 0.00896 0.09658 0.0
C1214 C 0.69044 0.00553 0.1608 0.0
C1215 C 0.68565 0.96116 0.19839 0.0
N1216 N 0.64675 0.00564 0.11597 0.0
N1217 N 0.6645 0.96682 0.17986 0.0
H1218 H 0.06608 0.67477 0.21791 0.0
H1219 H 0.9897 0.6262 0.07741 0.0
H1220 H 0.9989 0.72421 0.18112 0.0
H1221 H 0.02903 0.56756 0.13473 0.0
H1222 H 0.99568 0.66379 0.11224 0.0
H1223 H 0.05617 0.63692 0.18454 0.0
C1224 C 0.04925 0.67767 0.20268 0.0
C1225 C 0.0333 0.70265 0.20226 0.0
C1226 C 0.00279 0.64265 0.11723 0.0
C1227 C 0.02194 0.65938 0.16376 0.0
C1228 C 0.9995 0.62117 0.09735 0.0
C1229 C 0.00895 0.59361 0.10309 0.0
C1230 C 0.01615 0.63673 0.14287 0.0
C1231 C 0.02131 0.58839 0.12938 0.0
C1232 C 0.04351 0.65598 0.18375 0.0
C1233 C 0.01167 0.70526 0.18216 0.0
N1234 N 0.02483 0.60978 0.14812 0.0
N1235 N 0.00675 0.68394 0.16352 0.0
H1236 H 0.3266 0.94224 0.81418 0.0
H1237 H 0.38144 0.02249 0.94972 0.0
H1238 H 0.28204 0.0148 0.84634 0.0
H1239 H 0.43798 0.97869 0.89332 0.0
H1240 H 0.34293 0.0169 0.91552 0.0
H1241 H 0.36558 0.95172 0.84668 0.0
C1242 C 0.32501 0.96016 0.82821 0.0
C1243 C 0.30108 0.97776 0.82759 0.0
C1244 C 0.36382 0.00873 0.91059 0.0
C1245 C 0.3456 0.98861 0.86508 0.0
C1246 C 0.3858 0.01179 0.93011 0.0
C1247 C 0.41302 1.00099 0.92442 0.0
C1248 C 0.36889 0.9942 0.88543 0.0
C1249 C 0.41742 0.98747 0.89858 0.0
C1250 C 0.34734 0.96564 0.84662 0.0
C1251 C 0.30015 1.00075 0.84613 0.0
N1252 N 0.39553 0.98417 0.88022 0.0
N1253 N 0.32203 0.00539 0.86435 0.0
H1254 H 0.06371 0.33262 0.80576 0.0
H1255 H 0.98994 0.37887 0.94879 0.0
H1256 H 0.99981 0.28095 0.84521 0.0
H1257 H 0.02738 0.43826 0.89093 0.0
H1258 H 0.99618 0.34143 0.91386 0.0
H1259 H 0.05407 0.36999 0.83972 0.0
C1260 C 0.04768 0.32912 0.82171 0.0
C1261 C 0.03255 0.30366 0.82269 0.0
C1262 C 0.00282 0.3627 0.90878 0.0
C1263 C 0.02146 0.34642 0.86184 0.0
C1264 C 0.99937 0.38411 0.92872 0.0
C1265 C 0.0082 0.41185 0.92285 0.0
C1266 C 0.01568 0.36889 0.88293 0.0
C1267 C 0.02013 0.41729 0.8964 0.0
C1268 C 0.04208 0.35054 0.84098 0.0
C1269 C 0.01193 0.30028 0.84372 0.0
N1270 N 0.02377 0.39599 0.87758 0.0
N1271 N 0.00711 0.32138 0.86263 0.0
H1272 H 0.67946 0.05084 0.80435 0.0
H1273 H 0.62858 0.98123 0.94813 0.0
H1274 H 0.71869 0.97496 0.83581 0.0
H1275 H 0.57307 0.02776 0.89297 0.0
H1276 H 0.66654 0.98475 0.91292 0.0
H1277 H 0.64612 0.04985 0.84357 0.0
C1278 C 0.68138 0.03421 0.81983 0.0
C1279 C 0.70165 0.01269 0.81654 0.0
C1280 C 0.64603 0.99415 0.9086 0.0
C1281 C 0.6634 0.01148 0.8616 0.0
C1282 C 0.62437 0.99221 0.92864 0.0
C1283 C 0.59753 0.00415 0.92343 0.0
C1284 C 0.64105 0.00872 0.88347 0.0
C1285 C 0.59329 0.01803 0.89778 0.0
C1286 C 0.6622 0.03357 0.84209 0.0
C1287 C 0.70342 0.99195 0.83752 0.0
N1288 N 0.61486 0.02012 0.87888 0.0
N1289 N 0.68433 0.9917 0.8591 0.0
H1290 H 0.97939 0.71952 0.83943 0.0
H1291 H 0.02918 0.56845 0.89247 0.0
H1292 H 0.04792 0.6726 0.80171 0.0
H1293 H 0.98904 0.62713 0.94923 0.0
H1294 H 0.0324 0.60584 0.85736 0.0
H1295 H 0.98005 0.68647 0.87944 0.0
C1296 C 0.99498 0.70272 0.83989 0.0
C1297 C 0.01341 0.6986 0.81709 0.0
C1298 C 0.02296 0.6106 0.87753 0.0
C1299 C 0.01374 0.66045 0.86211 0.0
C1300 C 0.02091 0.58916 0.89752 0.0
C1301 C 0.00881 0.59459 0.92386 0.0
C1302 C 0.01241 0.63767 0.8836 0.0
C1303 C 0.99867 0.62202 0.92924 0.0
C1304 C 0.99519 0.68374 0.86255 0.0
C1305 C 0.03302 0.6763 0.81864 0.0
N1306 N 0.00047 0.64249 0.90921 0.0
N1307 N 0.03237 0.65789 0.84043 0.0
H1308 H 0.21685 0.32943 0.05824 0.0
H1309 H 0.06839 0.37899 0.99411 0.0
H1310 H 0.17854 0.28675 0.98794 0.0
H1311 H 0.12645 0.43463 0.03702 0.0
H1312 H 0.10315 0.3407 0.99839 0.0
H1313 H 0.17732 0.36282 0.05875 0.0
C1314 C 0.19974 0.32673 0.04328 0.0
C1315 C 0.20115 0.3055 0.02277 0.0
C1316 C 0.10821 0.36129 0.00686 0.0
C1317 C 0.15593 0.34381 0.02314 0.0
C1318 C 0.08843 0.38316 1.00446 0.0
C1319 C 0.0946 0.41014 0.01512 0.0
C1320 C 0.13409 0.36625 0.02053 0.0
C1321 C 0.12091 0.41431 0.02824 0.0
C1322 C 0.17734 0.34593 0.04345 0.0
C1323 C 0.17826 0.30277 1.00411 0.0
N1324 N 0.1396 0.39256 0.03072 0.0
N1325 N 0.15667 0.32195 1.00452 0.0
H1326 H 0.18109 0.71921 0.03349 0.0
H1327 H 0.12755 0.5675 0.98823 0.0
H1328 H 0.21474 0.67429 0.96217 0.0
H1329 H 0.07156 0.62553 0.03081 0.0
H1330 H 0.16208 0.6056 0.98248 0.0
H1331 H 0.14142 0.68544 0.03538 0.0
C1332 C 0.17972 0.70273 0.01781 0.0
C1333 C 0.20138 0.69929 0.99787 0.0
C1334 C 0.1422 0.61 0.99303 0.0
C1335 C 0.15689 0.6603 1.00047 0.0
C1336 C 0.12262 0.58819 0.99658 0.0
C1337 C 0.09667 0.59334 0.01004 0.0
C1338 C 0.13603 0.63706 1.00345 0.0
C1339 C 0.09129 0.62069 0.02018 0.0
C1340 C 0.15729 0.68333 0.01906 0.0
C1341 C 0.19872 0.6774 0.97819 0.0
N1342 N 0.1109 0.64151 0.01687 0.0
N1343 N 0.17724 0.65847 0.98029 0.0
H1344 H 0.28082 0.17007 0.02387 0.0
H1345 H 0.44058 0.12497 0.98856 0.0
H1346 H 0.3272 0.20196 0.9526 0.0
H1347 H 0.38285 0.06928 0.03194 0.0
H1348 H 0.40171 0.15881 0.9824 0.0
H1349 H 0.32044 0.13758 0.03377 0.0
C1350 C 0.29932 0.17022 0.01036 0.0
C1351 C 0.30078 0.18856 0.98731 0.0
C1352 C 0.39764 0.13923 0.9934 0.0
C1353 C 0.34612 0.15212 0.99876 0.0
C1354 C 0.41985 0.12001 0.9971 0.0
C1355 C 0.41493 0.09419 0.01065 0.0
C1356 C 0.37043 0.13283 1.00375 0.0
C1357 C 0.38752 0.08882 0.02112 0.0
C1358 C 0.32185 0.15173 0.01598 0.0
C1359 C 0.32521 0.18799 0.97047 0.0
N1360 N 0.36631 0.10798 0.01751 0.0
N1361 N 0.34697 0.17023 0.97661 0.0
H1362 H 0.84023 0.27821 0.01881 0.0
H1363 H 0.88321 0.43846 0.98779 0.0
H1364 H 0.8068 0.32612 0.94937 0.0
H1365 H 0.9396 0.38072 0.03021 0.0
H1366 H 0.84949 0.3997 0.9808 0.0
H1367 H 0.87218 0.31777 0.02989 0.0
C1368 C 0.83965 0.29702 0.00594 0.0
C1369 C 0.82104 0.29895 0.98307 0.0
C1370 C 0.8692 0.39561 0.99178 0.0
C1371 C 0.85686 0.3442 0.99587 0.0
C1372 C 0.88833 0.41774 0.99595 0.0
C1373 C 0.91432 0.41277 0.00943 0.0
C1374 C 0.8759 0.36843 1.00155 0.0
C1375 C 0.91992 0.38542 0.01944 0.0
C1376 C 0.85782 0.31953 0.01224 0.0
C1377 C 0.82102 0.32378 0.96707 0.0
N1378 N 0.90087 0.36427 0.01532 0.0
N1379 N 0.83852 0.3455 0.97386 0.0
H1380 H 0.67892 0.79341 0.05969 0.0
H1381 H 0.62806 0.93841 0.99169 0.0
H1382 H 0.72143 0.82845 0.98757 0.0
H1383 H 0.57254 0.8817 0.03657 0.0
H1384 H 0.66639 0.90357 0.99539 0.0
H1385 H 0.64475 0.83209 0.05831 0.0
C1386 C 0.68137 0.80969 0.0439 0.0
C1387 C 0.70287 0.80772 0.02359 0.0
C1388 C 0.6458 0.89881 1.00435 0.0
C1389 C 0.66358 0.85185 0.02166 0.0
C1390 C 0.62392 0.91862 1.00231 0.0
C1391 C 0.59702 0.91292 0.01385 0.0
C1392 C 0.64093 0.87336 0.01854 0.0
C1393 C 0.59283 0.88691 0.02721 0.0
C1394 C 0.66171 0.83156 0.04295 0.0
C1395 C 0.7052 0.82933 1.00363 0.0
N1396 N 0.61462 0.86821 0.02938 0.0
N1397 N 0.68556 0.8505 1.00299 0.0
H1398 H 0.80696 0.68133 0.07783 0.0
H1399 H 0.94211 0.62648 0.99492 0.0
H1400 H 0.84039 0.72698 0.00689 0.0
H1401 H 0.88491 0.5703 0.03834 0.0
H1402 H 0.90821 0.66508 1.00181 0.0
H1403 H 0.83887 0.64209 0.06705 0.0
C1404 C 0.82116 0.6831 0.06002 0.0
C1405 C 0.82111 0.70738 0.04324 0.0
C1406 C 0.90301 0.64425 0.00959 0.0
C1407 C 0.85778 0.66264 0.03086 0.0
C1408 C 0.92235 0.62222 0.00578 0.0
C1409 C 0.91636 0.59512 0.01616 0.0
C1410 C 0.87776 0.6393 0.02442 0.0
C1411 C 0.89035 0.5908 0.02989 0.0
C1412 C 0.8392 0.66064 0.05378 0.0
C1413 C 0.83979 0.70859 0.02034 0.0
N1414 N 0.87217 0.61274 0.03393 0.0
N1415 N 0.8576 0.68657 0.01491 0.0
H1416 H 0.30599 0.80911 0.98547 0.0
H1417 H 0.38866 0.94034 0.04774 0.0
H1418 H 0.29688 0.8344 0.07187 0.0
H1419 H 0.42984 0.88479 0.98872 0.0
H1420 H 0.34924 0.90695 0.05139 0.0
H1421 H 0.34602 0.84222 0.98061 0.0
C1422 C 0.31216 0.82192 1.00326 0.0
C1423 C 0.29805 0.81931 0.02908 0.0
C1424 C 0.36692 0.90206 0.03767 0.0
C1425 C 0.34341 0.85698 0.02361 0.0
C1426 C 0.38935 0.9211 0.03549 0.0
C1427 C 0.41253 0.91525 0.01792 0.0
C1428 C 0.36725 0.87727 0.02165 0.0
C1429 C 0.41242 0.88994 1.00264 0.0
C1430 C 0.3351 0.84053 1.00054 0.0
C1431 C 0.30716 0.83597 0.0516 0.0
N1432 N 0.38991 0.87193 0.00461 0.0
N1433 N 0.32909 0.8543 0.0483 0.0
H1434 H 0.67939 0.2122 0.96587 0.0
H1435 H 0.63025 0.06563 0.03189 0.0
H1436 H 0.72283 0.17639 0.03703 0.0
H1437 H 0.57411 0.12315 0.98885 0.0
H1438 H 0.6686 0.10049 0.02799 0.0
H1439 H 0.64589 0.17296 0.96666 0.0
C1440 C 0.68217 0.19565 0.98133 0.0
C1441 C 0.7037 0.19755 1.00156 0.0
C1442 C 0.64787 0.10539 0.01946 0.0
C1443 C 0.66521 0.15278 1.00282 0.0
C1444 C 0.62599 0.08556 0.0216 0.0
C1445 C 0.5989 0.09155 0.0107 0.0
C1446 C 0.64276 0.13108 0.00579 0.0
C1447 C 0.59455 0.11773 0.99773 0.0
C1448 C 0.66292 0.17344 0.98192 0.0
C1449 C 0.70651 0.17557 0.02106 0.0
N1450 N 0.6163 0.13642 0.99547 0.0
N1451 N 0.68723 0.15409 0.0214 0.0
H1452 H 0.48192 0.69856 0.8161 0.0
H1453 H 0.54145 0.56519 0.89807 0.0
H1454 H 0.56758 0.66838 0.80532 0.0
H1455 H 0.48399 0.62271 0.93921 0.0
H1456 H 0.54536 0.59806 0.85876 0.0
H1457 H 0.47619 0.66607 0.8562 0.0
C1458 C 0.49933 0.68481 0.82189 0.0
C1459 C 0.52521 0.68589 0.80726 0.0
C1460 C 0.53191 0.60353 0.87638 0.0
C1461 C 0.51876 0.64889 0.85277 0.0
C1462 C 0.5296 0.58477 0.89881 0.0
C1463 C 0.51242 0.59126 0.92201 0.0
C1464 C 0.51642 0.6288 0.87666 0.0
C1465 C 0.49765 0.61703 0.92183 0.0
C1466 C 0.49614 0.66655 0.84489 0.0
C1467 C 0.54725 0.66803 0.81595 0.0
N1468 N 0.49974 0.63479 0.89934 0.0
N1469 N 0.54346 0.65012 0.83792 0.0
H1470 H 0.33517 0.52546 0.7959 0.0
H1471 H 0.38434 0.48149 0.94949 0.0
H1472 H 0.29259 0.46274 0.84607 0.0
H1473 H 0.44325 0.5183 0.89049 0.0
H1474 H 0.34927 0.47757 0.912 0.0
H1475 H 0.375 0.52489 0.82951 0.0
C1476 C 0.33457 0.51109 0.81356 0.0
C1477 C 0.31056 0.49427 0.81838 0.0
C1478 C 0.3699 0.48644 0.9072 0.0
C1479 C 0.35528 0.49408 0.8571 0.0
C1480 C 0.38987 0.48891 0.92869 0.0
C1481 C 0.41679 0.5003 0.9232 0.0
C1482 C 0.37664 0.4958 0.88 0.0
C1483 C 0.42278 0.5093 0.89568 0.0
C1484 C 0.35711 0.51093 0.83283 0.0
C1485 C 0.31063 0.47623 0.84176 0.0
N1486 N 0.4028 0.50705 0.87514 0.0
N1487 N 0.33237 0.47691 0.8604 0.0
H1488 H 0.47925 0.32949 0.79807 0.0
H1489 H 0.52877 0.38029 0.94961 0.0
H1490 H 0.54692 0.29004 0.84463 0.0
H1491 H 0.4886 0.43794 0.89186 0.0
H1492 H 0.53172 0.34525 0.91207 0.0
H1493 H 0.47979 0.36894 0.83183 0.0
C1494 C 0.49463 0.32945 0.81495 0.0
C1495 C 0.51287 0.30632 0.8187 0.0
C1496 C 0.5223 0.36559 0.90757 0.0
C1497 C 0.51303 0.35071 0.85772 0.0
C1498 C 0.52041 0.38554 0.9291 0.0
C1499 C 0.50842 0.41213 0.92395 0.0
C1500 C 0.51171 0.37198 0.88072 0.0
C1501 C 0.49816 0.41776 0.89677 0.0
C1502 C 0.49476 0.35179 0.83435 0.0
C1503 C 0.5322 0.30724 0.84116 0.0
N1504 N 0.49984 0.39781 0.87623 0.0
N1505 N 0.53147 0.32873 0.85997 0.0
H1506 H 0.67852 0.52579 0.79669 0.0
H1507 H 0.62929 0.47784 0.94855 0.0
H1508 H 0.71723 0.45659 0.84122 0.0
H1509 H 0.57093 0.51812 0.89139 0.0
H1510 H 0.66357 0.47326 0.91014 0.0
H1511 H 0.63917 0.52525 0.83069 0.0
C1512 C 0.67832 0.50998 0.8131 0.0
C1513 C 0.7013 0.49139 0.8163 0.0
C1514 C 0.6432 0.48303 0.906 0.0
C1515 C 0.65711 0.49134 0.85571 0.0
C1516 C 0.62375 0.48589 0.92799 0.0
C1517 C 0.59721 0.49841 0.92323 0.0
C1518 C 0.63633 0.49323 0.87913 0.0
C1519 C 0.5911 0.50822 0.89601 0.0
C1520 C 0.65606 0.50988 0.83267 0.0
C1521 C 0.70012 0.47156 0.83821 0.0
N1522 N 0.61058 0.50564 0.87505 0.0
N1523 N 0.67876 0.4724 0.85733 0.0
H1524 H 0.56696 0.33847 0.22514 0.0
H1525 H 0.4843 0.3819 0.087 0.0
H1526 H 0.48283 0.3061 0.21003 0.0
H1527 H 0.5366 0.44088 0.13253 0.0
H1528 H 0.48794 0.34879 0.12684 0.0
H1529 H 0.56073 0.37161 0.18614 0.0
C1530 C 0.54708 0.33855 0.21371 0.0
C1531 C 0.52525 0.31987 0.22103 0.0
C1532 C 0.49851 0.36905 0.12799 0.0
C1533 C 0.51832 0.357 0.17581 0.0
C1534 C 0.49663 0.38781 0.10525 0.0
C1535 C 0.51012 0.41421 0.10649 0.0
C1536 C 0.51465 0.3765 0.15166 0.0
C1537 C 0.5257 0.42086 0.13073 0.0
C1538 C 0.54356 0.35738 0.19147 0.0
C1539 C 0.50001 0.32052 0.20532 0.0
N1540 N 0.52776 0.40208 0.15216 0.0
N1541 N 0.49732 0.3386 0.18319 0.0
H1542 H 0.71419 0.5535 0.18974 0.0
H1543 H 0.57079 0.48263 0.13622 0.0
H1544 H 0.6826 0.47687 0.22722 0.0
H1545 H 0.62783 0.52875 0.0822 0.0
H1546 H 0.60542 0.48659 0.17445 0.0
H1547 H 0.67524 0.55222 0.15596 0.0
C1548 C 0.69866 0.53669 0.19122 0.0
C1549 C 0.70187 0.51502 0.2111 0.0
C1550 C 0.6103 0.49579 0.15422 0.0
C1551 C 0.65723 0.51346 0.17236 0.0
C1552 C 0.5906 0.49358 0.13238 0.0
C1553 C 0.5965 0.50528 0.10589 0.0
C1554 C 0.63577 0.51042 0.14976 0.0
C1555 C 0.62251 0.51919 0.10215 0.0
C1556 C 0.67661 0.53588 0.17178 0.0
C1557 C 0.68091 0.49399 0.21228 0.0
N1558 N 0.64106 0.52158 0.1239 0.0
N1559 N 0.65954 0.49356 0.19295 0.0
H1560 H 0.53517 0.67971 0.22741 0.0
H1561 H 0.48197 0.62415 0.07953 0.0
H1562 H 0.45992 0.71137 0.18661 0.0
H1563 H 0.52672 0.56857 0.13596 0.0
H1564 H 0.47834 0.659 0.11725 0.0
H1565 H 0.53581 0.63994 0.19406 0.0
C1566 C 0.51842 0.67794 0.21195 0.0
C1567 C 0.49765 0.69908 0.20961 0.0
C1568 C 0.48892 0.63914 0.1214 0.0
C1569 C 0.49884 0.65441 0.17095 0.0
C1570 C 0.49121 0.61934 0.09978 0.0
C1571 C 0.50466 0.59338 0.10454 0.0
C1572 C 0.50063 0.63327 0.1479 0.0
C1573 C 0.51603 0.58826 0.13139 0.0
C1574 C 0.51896 0.65543 0.19276 0.0
C1575 C 0.47662 0.69583 0.18892 0.0
N1576 N 0.51398 0.6081 0.15199 0.0
N1577 N 0.47805 0.67432 0.17016 0.0
H1578 H 0.30488 0.44277 0.19123 0.0
H1579 H 0.44208 0.5227 0.13622 0.0
H1580 H 0.33909 0.51425 0.23571 0.0
H1581 H 0.38469 0.47902 0.08067 0.0
H1582 H 0.40767 0.51713 0.17443 0.0
H1583 H 0.33722 0.45246 0.15226 0.0
C1584 C 0.31932 0.4605 0.1928 0.0
C1585 C 0.31934 0.47772 0.21672 0.0
C1586 C 0.40254 0.50899 0.15382 0.0
C1587 C 0.35664 0.48882 0.1722 0.0
C1588 C 0.42219 0.51205 0.132 0.0
C1589 C 0.41631 0.50123 0.10515 0.0
C1590 C 0.37705 0.49447 0.14899 0.0
C1591 C 0.3901 0.48779 0.10094 0.0
C1592 C 0.33764 0.4661 0.17047 0.0
C1593 C 0.33839 0.50048 0.21762 0.0
N1594 N 0.37161 0.48448 0.12269 0.0
N1595 N 0.3565 0.50524 0.19574 0.0
H1596 H 0.82614 0.56216 0.7131 0.0
H1597 H 0.88134 0.48324 0.57694 0.0
H1598 H 0.78173 0.48992 0.68009 0.0
H1599 H 0.93781 0.5263 0.6339 0.0
H1600 H 0.84276 0.48855 0.61113 0.0
H1601 H 0.86528 0.55299 0.68062 0.0
C1602 C 0.82462 0.54439 0.69888 0.0
C1603 C 0.8007 0.52678 0.69924 0.0
C1604 C 0.86366 0.49661 0.61619 0.0
C1605 C 0.84535 0.51627 0.66182 0.0
C1606 C 0.88567 0.49371 0.59668 0.0
C1607 C 0.91288 0.5044 0.60254 0.0
C1608 C 0.86869 0.51086 0.6415 0.0
C1609 C 0.91726 0.51762 0.62853 0.0
C1610 C 0.84703 0.53908 0.68049 0.0
C1611 C 0.79984 0.50397 0.68048 0.0
N1612 N 0.89532 0.52077 0.64688 0.0
N1613 N 0.82179 0.49949 0.66231 0.0
H1614 H 0.47959 0.78665 0.68798 0.0
H1615 H 0.52696 0.93913 0.63568 0.0
H1616 H 0.54638 0.83508 0.72673 0.0
H1617 H 0.48771 0.87985 0.57899 0.0
H1618 H 0.53036 0.90185 0.67095 0.0
H1619 H 0.47969 0.82012 0.64831 0.0
C1620 C 0.49467 0.8039 0.68784 0.0
C1621 C 0.51278 0.80826 0.71082 0.0
C1622 C 0.52107 0.89695 0.65076 0.0
C1623 C 0.51245 0.84691 0.66617 0.0
C1624 C 0.51891 0.91833 0.63067 0.0
C1625 C 0.50704 0.91269 0.60428 0.0
C1626 C 0.51086 0.86973 0.64472 0.0
C1627 C 0.49717 0.88514 0.599 0.0
C1628 C 0.49456 0.82312 0.66537 0.0
C1629 C 0.53174 0.83115 0.70966 0.0
N1630 N 0.4991 0.86475 0.61908 0.0
N1631 N 0.53078 0.84976 0.68804 0.0
H1632 H 0.23066 0.50808 0.68081 0.0
H1633 H 0.06941 0.47983 0.63586 0.0
H1634 H 0.17762 0.44458 0.7189 0.0
H1635 H 0.13043 0.51592 0.57854 0.0
H1636 H 0.10732 0.4735 0.67034 0.0
H1637 H 0.19279 0.51736 0.64631 0.0
C1638 C 0.2111 0.49612 0.68188 0.0
C1639 C 0.20723 0.47547 0.70263 0.0
C1640 C 0.11238 0.48289 0.65024 0.0
C1641 C 0.16388 0.48626 0.6638 0.0
C1642 C 0.0907 0.48668 0.63059 0.0
C1643 C 0.0967 0.49833 0.60418 0.0
C1644 C 0.14027 0.49116 0.64367 0.0
C1645 C 0.12483 0.50664 0.59855 0.0
C1646 C 0.18955 0.50138 0.66224 0.0
C1647 C 0.18148 0.46059 0.70314 0.0
N1648 N 0.14555 0.50297 0.61813 0.0
N1649 N 0.16077 0.46638 0.68418 0.0
H1650 H 0.56507 0.2147 0.6768 0.0
H1651 H 0.48119 0.07658 0.63329 0.0
H1652 H 0.48102 0.19995 0.70946 0.0
H1653 H 0.53389 0.12214 0.57473 0.0
H1654 H 0.48503 0.11659 0.66625 0.0
H1655 H 0.55828 0.17585 0.64355 0.0
C1656 C 0.54507 0.2034 0.67676 0.0
C1657 C 0.52344 0.21079 0.69557 0.0
C1658 C 0.49562 0.11772 0.64611 0.0
C1659 C 0.51587 0.16566 0.65827 0.0
C1660 C 0.49362 0.09488 0.62742 0.0
C1661 C 0.50717 0.09606 0.60118 0.0
C1662 C 0.51194 0.14145 0.63877 0.0
C1663 C 0.52291 0.12037 0.59461 0.0
C1664 C 0.54123 0.18123 0.65785 0.0
C1665 C 0.49805 0.19521 0.69494 0.0
N1666 N 0.52509 0.14189 0.61333 0.0
N1667 N 0.49506 0.17311 0.67679 0.0
H1668 H 0.83129 0.44544 0.30945 0.0
H1669 H 0.88179 0.52114 0.44956 0.0
H1670 H 0.78274 0.51289 0.34662 0.0
H1671 H 0.94007 0.48076 0.39234 0.0
H1672 H 0.84376 0.51543 0.41495 0.0
H1673 H 0.86966 0.4546 0.34274 0.0
C1674 C 0.82869 0.46214 0.32476 0.0
C1675 C 0.80382 0.47841 0.32532 0.0
C1676 C 0.86492 0.50803 0.40992 0.0
C1677 C 0.84766 0.48895 0.36364 0.0
C1678 C 0.88665 0.51118 0.42968 0.0
C1679 C 0.91422 0.50136 0.42389 0.0
C1680 C 0.87061 0.49445 0.38438 0.0
C1681 C 0.91923 0.48878 0.39769 0.0
C1682 C 0.85067 0.46746 0.34363 0.0
C1683 C 0.80159 0.49987 0.34548 0.0
N1684 N 0.89758 0.48541 0.37906 0.0
N1685 N 0.82319 0.50441 0.36402 0.0
H1686 H 0.56323 0.82926 0.30931 0.0
H1687 H 0.48874 0.8778 0.45112 0.0
H1688 H 0.49611 0.77997 0.34648 0.0
H1689 H 0.52726 0.93624 0.39301 0.0
H1690 H 0.4945 0.84002 0.41635 0.0
H1691 H 0.55414 0.86675 0.34328 0.0
C1692 C 0.54659 0.82631 0.32475 0.0
C1693 C 0.5304 0.80148 0.32507 0.0
C1694 C 0.50149 0.86116 0.4112 0.0
C1695 C 0.51998 0.84438 0.36431 0.0
C1696 C 0.49834 0.88274 0.43105 0.0
C1697 C 0.50756 0.91033 0.42504 0.0
C1698 C 0.51451 0.86701 0.38534 0.0
C1699 C 0.51969 0.91541 0.39859 0.0
C1700 C 0.54133 0.8478 0.34405 0.0
C1701 C 0.50905 0.79882 0.34549 0.0
N1702 N 0.52307 0.89395 0.37991 0.0
N1703 N 0.50458 0.81995 0.36448 0.0
H1704 H 0.22314 0.47678 0.33981 0.0
H1705 H 0.07209 0.52715 0.39395 0.0
H1706 H 0.17745 0.54665 0.30353 0.0
H1707 H 0.13083 0.48576 0.44992 0.0
H1708 H 0.10988 0.53107 0.35902 0.0
H1709 H 0.19022 0.47761 0.38 0.0
C1710 C 0.20669 0.49274 0.34064 0.0
C1711 C 0.20285 0.51146 0.31811 0.0
C1712 C 0.11456 0.52121 0.37898 0.0
C1713 C 0.1647 0.51193 0.3634 0.0
C1714 C 0.09289 0.51874 0.39887 0.0
C1715 C 0.09821 0.50604 0.42492 0.0
C1716 C 0.14174 0.51045 0.38486 0.0
C1717 C 0.12578 0.49579 0.43014 0.0
C1718 C 0.18776 0.49303 0.36342 0.0
C1719 C 0.18094 0.53151 0.32019 0.0
N1720 N 0.14645 0.49798 0.4102 0.0
N1721 N 0.16248 0.53089 0.34207 0.0
H1722 H 0.54853 0.17159 0.30028 0.0
H1723 H 0.48481 0.12535 0.4486 0.0
H1724 H 0.47927 0.21693 0.33856 0.0
H1725 H 0.52737 0.06839 0.39183 0.0
H1726 H 0.48842 0.16281 0.41324 0.0
H1727 H 0.54819 0.13832 0.33935 0.0
C1728 C 0.53355 0.17482 0.31725 0.0
C1729 C 0.51368 0.19689 0.31604 0.0
C1730 C 0.49693 0.1421 0.40859 0.0
C1731 C 0.51303 0.15862 0.36083 0.0
C1732 C 0.49493 0.1207 0.42872 0.0
C1733 C 0.50575 0.0936 0.42315 0.0
C1734 C 0.51034 0.13657 0.38289 0.0
C1735 C 0.51852 0.08883 0.39698 0.0
C1736 C 0.53323 0.15568 0.33942 0.0
C1737 C 0.49496 0.20024 0.33872 0.0
N1738 N 0.52062 0.11012 0.37795 0.0
N1739 N 0.4949 0.18111 0.36015 0.0
H1740 H 0.72101 0.83546 0.47351 0.0
H1741 H 0.56782 0.8791 0.53097 0.0
H1742 H 0.67708 0.78579 0.53559 0.0
H1743 H 0.62719 0.93736 0.49342 0.0
H1744 H 0.60336 0.84154 0.5269 0.0
H1745 H 0.68164 0.86893 0.4732 0.0
C1746 C 0.70271 0.83135 0.48669 0.0
C1747 C 0.7023 0.80798 0.50476 0.0
C1748 C 0.60855 0.86255 0.51959 0.0
C1749 C 0.65731 0.84645 0.50483 0.0
C1750 C 0.58832 0.88402 0.52187 0.0
C1751 C 0.59458 0.9115 0.5126 0.0
C1752 C 0.63505 0.86847 0.50752 0.0
C1753 C 0.6215 0.91661 0.50108 0.0
C1754 C 0.68038 0.85058 0.48669 0.0
C1755 C 0.6781 0.80353 0.52132 0.0
N1756 N 0.64065 0.89528 0.49874 0.0
N1757 N 0.65658 0.8228 0.52118 0.0
H1758 H 0.68048 0.21796 0.53916 0.0
H1759 H 0.6252 0.0695 0.487 0.0
H1760 H 0.71112 0.17832 0.46354 0.0
H1761 H 0.56892 0.12595 0.53122 0.0
H1762 H 0.65975 0.10786 0.48274 0.0
H1763 H 0.64055 0.18439 0.5399 0.0
C1764 C 0.67841 0.20273 0.52235 0.0
C1765 C 0.69935 0.2007 0.50146 0.0
C1766 C 0.63979 0.11185 0.49332 0.0
C1767 C 0.65456 0.16182 0.50275 0.0
C1768 C 0.62019 0.0899 0.49598 0.0
C1769 C 0.59415 0.09452 0.50948 0.0
C1770 C 0.63361 0.1385 0.50475 0.0
C1771 C 0.5887 0.12151 0.52052 0.0
C1772 C 0.65583 0.18342 0.52294 0.0
C1773 C 0.69574 0.18032 0.48033 0.0
N1774 N 0.60837 0.14245 0.51814 0.0
N1775 N 0.67419 0.16139 0.48181 0.0
H1776 H 0.8336 0.70872 0.45309 0.0
H1777 H 0.88145 0.56725 0.52922 0.0
H1778 H 0.7824 0.67014 0.51754 0.0
H1779 H 0.9409 0.62486 0.49084 0.0
H1780 H 0.84358 0.60197 0.52231 0.0
H1781 H 0.87163 0.67513 0.46318 0.0
C1782 C 0.83035 0.69303 0.46931 0.0
C1783 C 0.80486 0.69216 0.48449 0.0
C1784 C 0.86496 0.60706 0.51561 0.0
C1785 C 0.84828 0.65356 0.49612 0.0
C1786 C 0.8866 0.58724 0.51945 0.0
C1787 C 0.91444 0.59311 0.51053 0.0
C1788 C 0.87105 0.63274 0.50228 0.0
C1789 C 0.91982 0.61945 0.49816 0.0
C1790 C 0.85213 0.674 0.47517 0.0
C1791 C 0.80176 0.67152 0.50537 0.0
N1792 N 0.89828 0.63814 0.49414 0.0
N1793 N 0.82319 0.65286 0.51047 0.0
H1794 H 0.3064 0.82189 0.45145 0.0
H1795 H 0.43955 0.88055 0.53493 0.0
H1796 H 0.33848 0.77938 0.52484 0.0
H1797 H 0.38354 0.9348 0.48779 0.0
H1798 H 0.40584 0.84168 0.52888 0.0
H1799 H 0.33793 0.86169 0.46123 0.0
C1800 C 0.32022 0.82092 0.46959 0.0
C1801 C 0.31989 0.79734 0.48735 0.0
C1802 C 0.40084 0.86215 0.52008 0.0
C1803 C 0.35615 0.84276 0.49859 0.0
C1804 C 0.42008 0.88434 0.52343 0.0
C1805 C 0.41437 0.91098 0.51178 0.0
C1806 C 0.37597 0.86642 0.50446 0.0
C1807 C 0.38873 0.91468 0.49724 0.0
C1808 C 0.33805 0.84372 0.47525 0.0
C1809 C 0.33809 0.7972 0.51064 0.0
N1810 N 0.37065 0.89256 0.49369 0.0
N1811 N 0.3557 0.81951 0.51549 0.0
H1812 H 0.18143 0.29568 0.46323 0.0
H1813 H 0.12793 0.43732 0.53601 0.0
H1814 H 0.21901 0.32568 0.54013 0.0
H1815 H 0.07348 0.38263 0.48766 0.0
H1816 H 0.16633 0.40256 0.53176 0.0
H1817 H 0.14757 0.33468 0.46479 0.0
C1818 C 0.18289 0.31082 0.4802 0.0
C1819 C 0.2028 0.30716 0.50184 0.0
C1820 C 0.14596 0.39823 0.52214 0.0
C1821 C 0.16404 0.35187 0.50369 0.0
C1822 C 0.12405 0.41799 0.52452 0.0
C1823 C 0.09741 0.41277 0.51226 0.0
C1824 C 0.14141 0.37339 0.50684 0.0
C1825 C 0.09355 0.38738 0.49767 0.0
C1826 C 0.16343 0.33292 0.48115 0.0
C1827 C 0.20403 0.32769 0.52304 0.0
N1828 N 0.11538 0.36874 0.49518 0.0
N1829 N 0.18468 0.3491 0.52359 0.0
H1830 H 0.30028 0.17868 0.57293 0.0
H1831 H 0.4396 0.12556 0.49488 0.0
H1832 H 0.33835 0.2261 0.50551 0.0
H1833 H 0.38187 0.06889 0.53697 0.0
H1834 H 0.40536 0.16391 0.50116 0.0
H1835 H 0.33291 0.13971 0.56328 0.0
C1836 C 0.31565 0.1809 0.55615 0.0
C1837 C 0.31668 0.20562 0.54002 0.0
C1838 C 0.40011 0.14304 0.50882 0.0
C1839 C 0.35416 0.16113 0.5289 0.0
C1840 C 0.41966 0.12113 0.50533 0.0
C1841 C 0.41363 0.09394 0.5155 0.0
C1842 C 0.37454 0.13791 0.52305 0.0
C1843 C 0.38736 0.08944 0.52869 0.0
C1844 C 0.33412 0.15859 0.55054 0.0
C1845 C 0.33687 0.20738 0.51843 0.0
N1846 N 0.36894 0.11127 0.53237 0.0
N1847 N 0.35499 0.18547 0.5136 0.0
H1848 H 0.82992 0.29822 0.57028 0.0
H1849 H 0.88087 0.43953 0.49584 0.0
H1850 H 0.78128 0.33633 0.50371 0.0
H1851 H 0.93891 0.38126 0.53524 0.0
H1852 H 0.8426 0.40495 0.50154 0.0
H1853 H 0.86834 0.33172 0.56135 0.0
C1854 C 0.82731 0.31378 0.55383 0.0
C1855 C 0.80242 0.31454 0.53772 0.0
C1856 C 0.86376 0.39969 0.50873 0.0
C1857 C 0.8463 0.35309 0.52744 0.0
C1858 C 0.88562 0.41943 0.50559 0.0
C1859 C 0.9132 0.41332 0.51512 0.0
C1860 C 0.86934 0.37386 0.52201 0.0
C1861 C 0.91807 0.38685 0.52744 0.0
C1862 C 0.84931 0.33277 0.54864 0.0
C1863 C 0.80016 0.33504 0.51658 0.0
N1864 N 0.89631 0.36826 0.5308 0.0
N1865 N 0.82179 0.35368 0.51216 0.0
H1866 H 0.17884 0.71401 0.56018 0.0
H1867 H 0.13018 0.56576 0.49687 0.0
H1868 H 0.22222 0.67566 0.49022 0.0
H1869 H 0.07366 0.62304 0.53975 0.0
H1870 H 0.1684 0.60063 0.50098 0.0
H1871 H 0.14545 0.67458 0.5609 0.0
C1872 C 0.18168 0.69695 0.54532 0.0
C1873 C 0.20312 0.6983 0.52485 0.0
C1874 C 0.14763 0.60549 0.5095 0.0
C1875 C 0.1648 0.65315 0.52549 0.0
C1876 C 0.1258 0.58564 0.5072 0.0
C1877 C 0.09859 0.59154 0.51789 0.0
C1878 C 0.14242 0.63122 0.52307 0.0
C1879 C 0.09418 0.61768 0.53097 0.0
C1880 C 0.16248 0.67458 0.54562 0.0
C1881 C 0.20603 0.67544 0.50636 0.0
N1882 N 0.11589 0.63647 0.53333 0.0
N1883 N 0.18686 0.65388 0.50691 0.0
loop_
_geom_bond_atom_site_label_1
_geom_bond_atom_site_label_2
_geom_bond_distance
_geom_bond_site_symmetry_2
_ccdc_geom_bond_type
H0 C5 0.933 . S
H1 C8 0.929 1_655 S
H2 C10 0.930 . S
H3 C4 1.016 . S
C4 H3 1.016 . S
C4 N11 1.286 1_455 S
C5 H0 0.933 . S
C5 C6 1.393 1_655 S
C5 C7 1.362 . S
C6 C5 1.393 1_455 S
C6 C10 1.390 . S
C7 C5 1.362 . S
C7 C8 1.392 1_655 S
C7 N11 1.413 . S
C8 H1 0.929 1_455 S
C8 C7 1.392 1_455 S
C8 C9 1.402 . S
C9 C8 1.402 . S
C9 C10 1.381 . S
C10 H2 0.930 . S
C10 C6 1.390 . S
C10 C9 1.381 . S
N11 C4 1.286 1_655 S
N11 C7 1.413 . S
H12 C17 0.930 . S
H13 C20 0.930 . S
H14 C22 0.930 . S
H15 C16 1.020 . S
C16 H15 1.020 . S
C16 N23 1.280 1_565 S
C17 H12 0.930 . S
C17 C18 1.397 . S
C17 C19 1.361 . S
C18 C17 1.397 . S
C18 C22 1.390 1_545 S
C19 C17 1.361 . S
C19 C20 1.393 . S
C19 N23 1.413 . S
C20 H13 0.930 . S
C20 C19 1.393 . S
C20 C21 1.399 . S
C21 C20 1.399 . S
C21 C22 1.381 1_545 S
C22 H14 0.930 . S
C22 C18 1.390 1_565 S
C22 C21 1.381 1_565 S
N23 C16 1.280 1_545 S
N23 C19 1.413 . S
H24 C29 0.934 . S
H25 C32 0.928 1_655 S
H26 C34 0.930 . S
H27 C28 1.016 . S
C28 H27 1.016 . S
C28 N35 1.286 1_455 S
C29 H24 0.934 . S
C29 C30 1.392 1_655 S
C29 C31 1.363 . S
C30 C29 1.392 1_455 S
C30 C34 1.390 . S
C31 C29 1.363 . S
C31 C32 1.390 1_655 S
C31 N35 1.413 . S
C32 H25 0.928 1_455 S
C32 C31 1.390 1_455 S
C32 C33 1.405 . S
C33 C32 1.405 . S
C33 C34 1.381 . S
C34 H26 0.930 . S
C34 C30 1.390 . S
C34 C33 1.381 . S
N35 C28 1.286 1_655 S
N35 C31 1.413 . S
H36 C41 0.930 . S
H37 C44 0.930 . S
H38 C46 0.930 . S
H39 C40 1.016 . S
C40 H39 1.016 . S
C40 N47 1.286 1_545 S
C41 H36 0.930 . S
C41 C42 1.404 . S
C41 C43 1.361 . S
C42 C41 1.404 . S
C42 C46 1.386 1_565 S
C43 C41 1.361 . S
C43 C44 1.393 . S
C43 N47 1.413 . S
C44 H37 0.930 . S
C44 C43 1.393 . S
C44 C45 1.399 . S
C45 C44 1.399 . S
C45 C46 1.380 1_565 S
C46 H38 0.930 . S
C46 C42 1.386 1_545 S
C46 C45 1.380 1_545 S
N47 C40 1.286 1_565 S
N47 C43 1.413 . S
H48 C53 0.935 . S
H49 C56 0.930 1_655 S
H50 C58 0.930 . S
H51 C52 1.016 . S
C52 H51 1.016 . S
C52 N59 1.286 1_455 S
C53 H48 0.935 . S
C53 C54 1.391 1_655 S
C53 C55 1.363 . S
C54 C53 1.391 1_455 S
C54 C58 1.390 . S
C55 C53 1.363 . S
C55 C56 1.393 1_655 S
C55 N59 1.413 . S
C56 H49 0.930 1_455 S
C56 C55 1.393 1_455 S
C56 C57 1.400 . S
C57 C56 1.400 . S
C57 C58 1.381 . S
C58 H50 0.930 . S
C58 C54 1.390 . S
C58 C57 1.381 . S
N59 C52 1.286 1_655 S
N59 C55 1.413 . S
H60 C65 0.930 . S
H61 C68 0.930 . S
H62 C70 0.930 . S
H63 C64 1.026 . S
C64 H63 1.026 . S
C64 N71 1.272 1_565 S
C65 H60 0.930 . S
C65 C66 1.397 . S
C65 C67 1.361 . S
C66 C65 1.397 . S
C66 C70 1.390 1_545 S
C67 C65 1.361 . S
C67 C68 1.393 . S
C67 N71 1.413 . S
C68 H61 0.930 . S
C68 C67 1.393 . S
C68 C69 1.404 . S
C69 C68 1.404 . S
C69 C70 1.378 1_545 S
C70 H62 0.930 . S
C70 C66 1.390 1_565 S
C70 C69 1.378 1_565 S
N71 C64 1.272 1_545 S
N71 C67 1.413 . S
H72 C77 0.936 . S
H73 C80 0.928 1_655 S
H74 C82 0.930 . S
H75 C76 1.016 . S
C76 H75 1.016 . S
C76 N83 1.286 1_455 S
C77 H72 0.936 . S
C77 C78 1.390 1_655 S
C77 C79 1.363 . S
C78 C77 1.390 1_455 S
C78 C82 1.390 . S
C79 C77 1.363 . S
C79 C80 1.391 1_655 S
C79 N83 1.413 . S
C80 H73 0.928 1_455 S
C80 C79 1.391 1_455 S
C80 C81 1.403 . S
C81 C80 1.403 . S
C81 C82 1.381 . S
C82 H74 0.930 . S
C82 C78 1.390 . S
C82 C81 1.381 . S
N83 C76 1.286 1_655 S
N83 C79 1.413 . S
H84 C89 0.930 . S
H85 C92 0.930 . S
H86 C94 0.930 . S
H87 C88 1.026 . S
C88 H87 1.026 . S
C88 N95 1.272 1_565 S
C89 H84 0.930 . S
C89 C90 1.397 . S
C89 C91 1.361 . S
C90 C89 1.397 . S
C90 C94 1.390 1_545 S
C91 C89 1.361 . S
C91 C92 1.393 . S
C91 N95 1.413 . S
C92 H85 0.930 . S
C92 C91 1.393 . S
C92 C93 1.404 . S
C93 C92 1.404 . S
C93 C94 1.378 1_545 S
C94 H86 0.930 . S
C94 C90 1.390 1_565 S
C94 C93 1.378 1_565 S
N95 C88 1.272 1_545 S
N95 C91 1.413 . S
H96 C101 0.930 . S
H97 C104 0.930 . S
H98 C106 0.930 . S
H99 C100 1.018 1_556 S
C100 H99 1.018 1_554 S
C100 N107 1.286 . S
C101 H96 0.930 . S
C101 C102 1.397 . S
C101 C103 1.361 . S
C102 C101 1.397 . S
C102 C106 1.390 . S
C103 C101 1.361 . S
C103 C104 1.393 . S
C103 N107 1.413 . S
C104 H97 0.930 . S
C104 C103 1.393 . S
C104 C105 1.399 . S
C105 C104 1.399 . S
C105 C106 1.381 . S
C106 H98 0.930 . S
C106 C102 1.390 . S
C106 C105 1.381 . S
N107 C100 1.286 . S
N107 C103 1.413 . S
H108 C113 0.926 1_556 S
H109 C116 0.930 . S
H110 C118 0.930 . S
H111 C112 1.016 . S
C112 H111 1.016 . S
C112 N119 1.286 1_554 S
C113 H108 0.926 1_554 S
C113 C114 1.397 . S
C113 C115 1.363 . S
C114 C113 1.397 . S
C114 C118 1.390 . S
C115 C113 1.363 . S
C115 C116 1.396 . S
C115 N119 1.409 1_554 S
C116 H109 0.930 . S
C116 C115 1.396 . S
C116 C117 1.399 . S
C117 C116 1.399 . S
C117 C118 1.381 . S
C118 H110 0.930 . S
C118 C114 1.390 . S
C118 C117 1.381 . S
N119 C112 1.286 1_556 S
N119 C115 1.409 1_556 S
H120 C125 0.930 . S
H121 C128 0.930 . S
H122 C130 0.930 . S
H123 C124 1.016 . S
C124 H123 1.016 . S
C124 N131 1.286 . S
C125 H120 0.930 . S
C125 C126 1.397 . S
C125 C127 1.361 . S
C126 C125 1.397 . S
C126 C130 1.390 . S
C127 C125 1.361 . S
C127 C128 1.393 . S
C127 N131 1.413 . S
C128 H121 0.930 . S
C128 C127 1.393 . S
C128 C129 1.399 . S
C129 C128 1.399 . S
C129 C130 1.381 . S
C130 H122 0.930 . S
C130 C126 1.390 . S
C130 C129 1.381 . S
N131 C124 1.286 . S
N131 C127 1.413 . S
H132 C137 0.926 1_556 S
H133 C140 0.930 . S
H134 C142 0.930 . S
H135 C136 1.016 . S
C136 H135 1.016 . S
C136 N143 1.286 1_554 S
C137 H132 0.926 1_554 S
C137 C138 1.397 . S
C137 C139 1.361 . S
C138 C137 1.397 . S
C138 C142 1.390 . S
C139 C137 1.361 . S
C139 C140 1.393 . S
C139 N143 1.413 1_554 S
C140 H133 0.930 . S
C140 C139 1.393 . S
C140 C141 1.399 . S
C141 C140 1.399 . S
C141 C142 1.381 . S
C142 H134 0.930 . S
C142 C138 1.390 . S
C142 C141 1.381 . S
N143 C136 1.286 1_556 S
N143 C139 1.413 1_556 S
H144 C149 0.930 . S
H145 C152 0.930 . S
H146 C154 0.930 . S
H147 C148 1.016 . S
C148 H147 1.016 . S
C148 N155 1.286 . S
C149 H144 0.930 . S
C149 C150 1.397 . S
C149 C151 1.361 . S
C150 C149 1.397 . S
C150 C154 1.390 . S
C151 C149 1.361 . S
C151 C152 1.393 . S
C151 N155 1.413 . S
C152 H145 0.930 . S
C152 C151 1.393 . S
C152 C153 1.399 . S
C153 C152 1.399 . S
C153 C154 1.381 . S
C154 H146 0.930 . S
C154 C150 1.390 . S
C154 C153 1.381 . S
N155 C148 1.286 . S
N155 C151 1.413 . S
H156 C161 0.930 . S
H157 C164 0.930 . S
H158 C166 0.930 . S
H159 C160 1.016 . S
C160 H159 1.016 . S
C160 N167 1.286 . S
C161 H156 0.930 . S
C161 C162 1.397 . S
C161 C163 1.361 . S
C162 C161 1.397 . S
C162 C166 1.390 . S
C163 C161 1.361 . S
C163 C164 1.393 . S
C163 N167 1.413 . S
C164 H157 0.930 . S
C164 C163 1.393 . S
C164 C165 1.399 . S
C165 C164 1.399 . S
C165 C166 1.381 . S
C166 H158 0.930 . S
C166 C162 1.390 . S
C166 C165 1.381 . S
N167 C160 1.286 . S
N167 C163 1.413 . S
H168 C173 0.930 . S
H169 C176 0.930 . S
H170 C178 0.930 . S
H171 C172 1.016 . S
C172 H171 1.016 . S
C172 N179 1.286 . S
C173 H168 0.930 . S
C173 C174 1.397 . S
C173 C175 1.361 . S
C174 C173 1.397 . S
C174 C178 1.390 . S
C175 C173 1.361 . S
C175 C176 1.393 . S
C175 N179 1.413 . S
C176 H169 0.930 . S
C176 C175 1.393 . S
C176 C177 1.399 . S
C177 C176 1.399 . S
C177 C178 1.381 . S
C178 H170 0.930 . S
C178 C174 1.390 . S
C178 C177 1.381 . S
N179 C172 1.286 . S
N179 C175 1.413 . S
H180 C185 0.930 . S
H181 C188 0.930 . S
H182 C190 0.930 . S
H183 C184 1.016 . S
C184 H183 1.016 . S
C184 N191 1.286 . S
C185 H180 0.930 . S
C185 C186 1.397 . S
C185 C187 1.361 . S
C186 C185 1.397 . S
C186 C190 1.390 . S
C187 C185 1.361 . S
C187 C188 1.393 . S
C187 N191 1.413 . S
C188 H181 0.930 . S
C188 C187 1.393 . S
C188 C189 1.399 . S
C189 C188 1.399 . S
C189 C190 1.381 . S
C190 H182 0.930 . S
C190 C186 1.390 . S
C190 C189 1.381 . S
N191 C184 1.286 . S
N191 C187 1.413 . S
H192 C197 0.930 . S
H193 C200 0.930 . S
H194 C202 0.930 . S
H195 C196 1.016 . S
C196 H195 1.016 . S
C196 N203 1.286 . S
C197 H192 0.930 . S
C197 C198 1.397 . S
C197 C199 1.361 . S
C198 C197 1.397 . S
C198 C202 1.390 . S
C199 C197 1.361 . S
C199 C200 1.393 . S
C199 N203 1.413 . S
C200 H193 0.930 . S
C200 C199 1.393 . S
C200 C201 1.399 . S
C201 C200 1.399 . S
C201 C202 1.381 . S
C202 H194 0.930 . S
C202 C198 1.390 . S
C202 C201 1.381 . S
N203 C196 1.286 . S
N203 C199 1.413 . S
H204 C209 0.930 . S
H205 C212 0.930 . S
H206 C214 0.930 . S
H207 C208 1.016 . S
C208 H207 1.016 . S
C208 N215 1.286 . S
C209 H204 0.930 . S
C209 C210 1.397 . S
C209 C211 1.361 . S
C210 C209 1.397 . S
C210 C214 1.390 . S
C211 C209 1.361 . S
C211 C212 1.393 . S
C211 N215 1.413 . S
C212 H205 0.930 . S
C212 C211 1.393 . S
C212 C213 1.399 . S
C213 C212 1.399 . S
C213 C214 1.381 . S
C214 H206 0.930 . S
C214 C210 1.390 . S
C214 C213 1.381 . S
N215 C208 1.286 . S
N215 C211 1.413 . S
H216 C221 0.930 . S
H217 C224 0.930 . S
H218 C226 0.930 . S
H219 C220 1.016 . S
C220 H219 1.016 . S
C220 N227 1.286 . S
C221 H216 0.930 . S
C221 C222 1.397 . S
C221 C223 1.361 . S
C222 C221 1.397 . S
C222 C226 1.390 . S
C223 C221 1.361 . S
C223 C224 1.393 . S
C223 N227 1.413 . S
C224 H217 0.930 . S
C224 C223 1.393 . S
C224 C225 1.399 . S
C225 C224 1.399 . S
C225 C226 1.381 . S
C226 H218 0.930 . S
C226 C222 1.390 . S
C226 C225 1.381 . S
N227 C220 1.286 . S
N227 C223 1.413 . S
H228 C233 0.930 . S
H229 C236 0.930 . S
H230 C238 0.930 . S
H231 C232 1.016 . S
C232 H231 1.016 . S
C232 N239 1.286 . S
C233 H228 0.930 . S
C233 C234 1.397 . S
C233 C235 1.361 . S
C234 C233 1.397 . S
C234 C238 1.390 . S
C235 C233 1.361 . S
C235 C236 1.393 . S
C235 N239 1.413 . S
C236 H229 0.930 . S
C236 C235 1.393 . S
C236 C237 1.399 . S
C237 C236 1.399 . S
C237 C238 1.381 . S
C238 H230 0.930 . S
C238 C234 1.390 . S
C238 C237 1.381 . S
N239 C232 1.286 . S
N239 C235 1.413 . S
H240 C245 0.930 . S
H241 C248 0.930 . S
H242 C250 0.930 . S
H243 C244 1.016 . S
C244 H243 1.016 . S
C244 N251 1.286 . S
C245 H240 0.930 . S
C245 C246 1.397 . S
C245 C247 1.361 . S
C246 C245 1.397 . S
C246 C250 1.390 . S
C247 C245 1.361 . S
C247 C248 1.393 . S
C247 N251 1.413 . S
C248 H241 0.930 . S
C248 C247 1.393 . S
C248 C249 1.399 . S
C249 C248 1.399 . S
C249 C250 1.381 . S
C250 H242 0.930 . S
C250 C246 1.390 . S
C250 C249 1.381 . S
N251 C244 1.286 . S
N251 C247 1.413 . S
H252 C257 0.930 . S
H253 C260 0.930 . S
H254 C262 0.930 . S
H255 C256 1.016 . S
C256 H255 1.016 . S
C256 N263 1.286 . S
C257 H252 0.930 . S
C257 C258 1.397 . S
C257 C259 1.361 . S
C258 C257 1.397 . S
C258 C262 1.390 . S
C259 C257 1.361 . S
C259 C260 1.393 . S
C259 N263 1.413 . S
C260 H253 0.930 . S
C260 C259 1.393 . S
C260 C261 1.399 . S
C261 C260 1.399 . S
C261 C262 1.381 . S
C262 H254 0.930 . S
C262 C258 1.390 . S
C262 C261 1.381 . S
N263 C256 1.286 . S
N263 C259 1.413 . S
H264 C269 0.930 . S
H265 C272 0.930 . S
H266 C274 0.930 . S
H267 C268 1.016 . S
C268 H267 1.016 . S
C268 N275 1.286 . S
C269 H264 0.930 . S
C269 C270 1.397 . S
C269 C271 1.361 . S
C270 C269 1.397 . S
C270 C274 1.390 . S
C271 C269 1.361 . S
C271 C272 1.393 . S
C271 N275 1.413 . S
C272 H265 0.930 . S
C272 C271 1.393 . S
C272 C273 1.399 . S
C273 C272 1.399 . S
C273 C274 1.381 . S
C274 H266 0.930 . S
C274 C270 1.390 . S
C274 C273 1.381 . S
N275 C268 1.286 . S
N275 C271 1.413 . S
H276 C281 0.930 . S
H277 C284 0.930 . S
H278 C286 0.930 . S
H279 C280 1.016 . S
C280 H279 1.016 . S
C280 N287 1.286 . S
C281 H276 0.930 . S
C281 C282 1.397 . S
C281 C283 1.361 . S
C282 C281 1.397 . S
C282 C286 1.390 . S
C283 C281 1.361 . S
C283 C284 1.393 . S
C283 N287 1.413 . S
C284 H277 0.930 . S
C284 C283 1.393 . S
C284 C285 1.399 . S
C285 C284 1.399 . S
C285 C286 1.381 . S
C286 H278 0.930 . S
C286 C282 1.390 . S
C286 C285 1.381 . S
N287 C280 1.286 . S
N287 C283 1.413 . S
C288 O314 1.283 . S
C288 O332 1.283 . S
C289 O315 1.283 . S
C289 O330 1.283 . S
C290 O316 1.283 . S
C290 O333 1.283 . S
C291 O317 1.283 . S
C291 O331 1.283 . S
C292 O318 1.283 . S
C292 O327 1.283 . S
C293 O319 1.283 . S
C293 O329 1.283 . S
C294 O320 1.283 . S
C294 O326 1.283 . S
C295 O321 1.283 . S
C295 O328 1.283 . S
C296 O322 1.283 . S
C296 O337 1.283 . S
C297 O323 1.283 . S
C297 O335 1.283 . S
C298 O324 1.283 . S
C298 O336 1.283 . S
C299 O325 1.283 . S
C299 O334 1.283 . S
Eu300 O301 2.370 1_455 S
Eu300 O302 2.370 . S
Eu300 O305 2.370 1_455 S
Eu300 O306 2.370 . S
Eu300 O314 2.363 . S
Eu300 O315 2.363 . S
Eu300 O328 2.363 . S
Eu300 O329 2.363 1_455 S
O301 Eu300 2.370 1_655 S
O301 Eu303 2.367 1_565 S
O301 Eu308 2.366 1_665 S
O302 Eu300 2.370 . S
O302 Eu304 2.367 1_565 S
O302 Eu307 2.368 1_565 S
Eu303 O301 2.367 1_545 S
Eu303 O305 2.367 1_545 S
Eu303 O309 2.373 . S
Eu303 O310 2.373 . S
Eu303 O318 2.368 . S
Eu303 O319 2.358 1_545 S
Eu303 O334 2.363 . S
Eu303 O335 2.363 . S
Eu304 O302 2.367 1_545 S
Eu304 O306 2.367 1_545 S
Eu304 O311 2.373 . S
Eu304 O312 2.373 . S
Eu304 O320 2.368 . S
Eu304 O321 2.358 1_545 S
Eu304 O336 2.363 . S
Eu304 O337 2.363 . S
O305 Eu300 2.370 1_655 S
O305 Eu303 2.367 1_565 S
O305 Eu307 2.368 1_665 S
O306 Eu300 2.370 . S
O306 Eu304 2.367 1_565 S
O306 Eu308 2.366 1_565 S
Eu307 O302 2.368 1_545 S
Eu307 O305 2.368 1_445 S
Eu307 O309 2.372 1_455 S
Eu307 O312 2.372 . S
Eu307 O324 2.363 . S
Eu307 O325 2.363 1_455 S
Eu307 O332 2.359 1_545 S
Eu307 O333 2.367 . S
Eu308 O301 2.366 1_445 S
Eu308 O306 2.366 1_545 S
Eu308 O310 2.374 1_455 S
Eu308 O311 2.374 . S
Eu308 O322 2.363 . S
Eu308 O323 2.363 1_455 S
Eu308 O330 2.356 1_545 S
Eu308 O331 2.370 . S
O309 Eu303 2.373 . S
O309 Eu307 2.372 1_655 S
O309 Eu313 2.370 1_655 S
O310 Eu303 2.373 . S
O310 Eu308 2.374 1_655 S
O310 Eu313 2.370 1_655 S
O311 Eu304 2.373 . S
O311 Eu308 2.374 . S
O311 Eu313 2.370 . S
O312 Eu304 2.373 . S
O312 Eu307 2.372 . S
O312 Eu313 2.370 . S
Eu313 O309 2.370 1_455 S
Eu313 O310 2.370 1_455 S
Eu313 O311 2.370 . S
Eu313 O312 2.370 . S
Eu313 O316 2.363 . S
Eu313 O317 2.363 . S
Eu313 O326 2.363 . S
Eu313 O327 2.363 1_455 S
O314 C288 1.283 . S
O314 Eu300 2.363 . S
O315 C289 1.283 . S
O315 Eu300 2.363 . S
O316 C290 1.283 . S
O316 Eu313 2.363 . S
O317 C291 1.283 . S
O317 Eu313 2.363 . S
O318 C292 1.283 . S
O318 Eu303 2.368 . S
O319 C293 1.283 . S
O319 Eu303 2.358 1_565 S
O320 C294 1.283 . S
O320 Eu304 2.368 . S
O321 C295 1.283 . S
O321 Eu304 2.358 1_565 S
O322 C296 1.283 . S
O322 Eu308 2.363 . S
O323 C297 1.283 . S
O323 Eu308 2.363 1_655 S
O324 C298 1.283 . S
O324 Eu307 2.363 . S
O325 C299 1.283 . S
O325 Eu307 2.363 1_655 S
O326 C294 1.283 . S
O326 Eu313 2.363 . S
O327 C292 1.283 . S
O327 Eu313 2.363 1_655 S
O328 C295 1.283 . S
O328 Eu300 2.363 . S
O329 C293 1.283 . S
O329 Eu300 2.363 1_655 S
O330 C289 1.283 . S
O330 Eu308 2.356 1_565 S
O331 C291 1.283 . S
O331 Eu308 2.370 . S
O332 C288 1.283 . S
O332 Eu307 2.359 1_565 S
O333 C290 1.283 . S
O333 Eu307 2.367 . S
O334 C299 1.283 . S
O334 Eu303 2.363 . S
O335 C297 1.283 . S
O335 Eu303 2.363 . S
O336 C298 1.283 . S
O336 Eu304 2.363 . S
O337 C296 1.283 . S
O337 Eu304 2.363 . S
C338 O364 1.283 . S
C338 O382 1.283 . S
C339 O365 1.283 . S
C339 O380 1.283 . S
C340 O366 1.283 . S
C340 O383 1.283 . S
C341 O367 1.283 . S
C341 O381 1.283 . S
C342 O368 1.283 . S
C342 O377 1.283 . S
C343 O369 1.283 . S
C343 O379 1.283 . S
C344 O370 1.283 . S
C344 O376 1.283 . S
C345 O371 1.283 . S
C345 O378 1.283 . S
C346 O372 1.283 . S
C346 O387 1.283 . S
C347 O373 1.283 . S
C347 O385 1.283 . S
C348 O374 1.283 . S
C348 O386 1.283 . S
C349 O375 1.283 . S
C349 O384 1.283 . S
Eu350 O351 2.374 . S
Eu350 O352 2.366 1_545 S
Eu350 O355 2.366 1_545 S
Eu350 O356 2.374 . S
Eu350 O364 2.356 1_545 S
Eu350 O365 2.370 . S
Eu350 O378 2.363 . S
Eu350 O379 2.363 . S
O351 Eu350 2.374 . S
O351 Eu353 2.373 . S
O351 Eu358 2.370 . S
O352 Eu350 2.366 1_565 S
O352 Eu354 2.367 1_565 S
O352 Eu357 2.370 . S
Eu353 O351 2.373 . S
Eu353 O355 2.367 1_545 S
Eu353 O359 2.367 1_544 S
Eu353 O360 2.373 1_554 S
Eu353 O368 2.363 1_554 S
Eu353 O369 2.363 . S
Eu353 O384 2.358 1_545 S
Eu353 O385 2.368 . S
Eu354 O352 2.367 1_545 S
Eu354 O356 2.373 . S
Eu354 O361 2.373 1_554 S
Eu354 O362 2.367 1_544 S
Eu354 O370 2.363 1_554 S
Eu354 O371 2.363 . S
Eu354 O386 2.358 1_545 S
Eu354 O387 2.368 . S
O355 Eu350 2.366 1_565 S
O355 Eu353 2.367 1_565 S
O355 Eu357 2.370 . S
O356 Eu350 2.374 . S
O356 Eu354 2.373 . S
O356 Eu358 2.370 . S
Eu357 O352 2.370 . S
Eu357 O355 2.370 . S
Eu357 O359 2.370 1_554 S
Eu357 O362 2.370 1_554 S
Eu357 O374 2.363 . S
Eu357 O375 2.363 . S
Eu357 O382 2.363 . S
Eu357 O383 2.363 1_554 S
Eu358 O351 2.370 . S
Eu358 O356 2.370 . S
Eu358 O360 2.370 1_554 S
Eu358 O361 2.370 1_554 S
Eu358 O372 2.363 . S
Eu358 O373 2.363 . S
Eu358 O380 2.363 . S
Eu358 O381 2.363 1_554 S
O359 Eu353 2.367 1_566 S
O359 Eu357 2.370 1_556 S
O359 Eu363 2.368 1_565 S
O360 Eu353 2.373 1_556 S
O360 Eu358 2.370 1_556 S
O360 Eu363 2.372 . S
O361 Eu354 2.373 1_556 S
O361 Eu358 2.370 1_556 S
O361 Eu363 2.372 . S
O362 Eu354 2.367 1_566 S
O362 Eu357 2.370 1_556 S
O362 Eu363 2.368 1_565 S
Eu363 O359 2.368 1_545 S
Eu363 O360 2.372 . S
Eu363 O361 2.372 . S
Eu363 O362 2.368 1_545 S
Eu363 O366 2.360 1_545 S
Eu363 O367 2.366 . S
Eu363 O376 2.363 . S
Eu363 O377 2.363 . S
O364 C338 1.283 . S
O364 Eu350 2.356 1_565 S
O365 C339 1.283 . S
O365 Eu350 2.370 . S
O366 C340 1.283 . S
O366 Eu363 2.360 1_565 S
O367 C341 1.283 . S
O367 Eu363 2.366 . S
O368 C342 1.283 . S
O368 Eu353 2.363 1_556 S
O369 C343 1.283 . S
O369 Eu353 2.363 . S
O370 C344 1.283 . S
O370 Eu354 2.363 1_556 S
O371 C345 1.283 . S
O371 Eu354 2.363 . S
O372 C346 1.283 . S
O372 Eu358 2.363 . S
O373 C347 1.283 . S
O373 Eu358 2.363 . S
O374 C348 1.283 . S
O374 Eu357 2.363 . S
O375 C349 1.283 . S
O375 Eu357 2.363 . S
O376 C344 1.283 . S
O376 Eu363 2.363 . S
O377 C342 1.283 . S
O377 Eu363 2.363 . S
O378 C345 1.283 . S
O378 Eu350 2.363 . S
O379 C343 1.283 . S
O379 Eu350 2.363 . S
O380 C339 1.283 . S
O380 Eu358 2.363 . S
O381 C341 1.283 . S
O381 Eu358 2.363 1_556 S
O382 C338 1.283 . S
O382 Eu357 2.363 . S
O383 C340 1.283 . S
O383 Eu357 2.363 1_556 S
O384 C349 1.283 . S
O384 Eu353 2.358 1_565 S
O385 C347 1.283 . S
O385 Eu353 2.368 . S
O386 C348 1.283 . S
O386 Eu354 2.358 1_565 S
O387 C346 1.283 . S
O387 Eu354 2.368 . S
C388 O414 1.283 . S
C388 O432 1.283 . S
C389 O415 1.283 . S
C389 O430 1.283 . S
C390 O416 1.283 . S
C390 O433 1.283 . S
C391 O417 1.283 . S
C391 O431 1.283 . S
C392 O418 1.283 . S
C392 O427 1.283 . S
C393 O419 1.283 . S
C393 O429 1.283 . S
C394 O420 1.283 . S
C394 O426 1.283 . S
C395 O421 1.283 . S
C395 O428 1.283 . S
C396 O422 1.283 . S
C396 O437 1.283 . S
C397 O423 1.283 . S
C397 O435 1.283 . S
C398 O424 1.283 . S
C398 O436 1.283 . S
C399 O425 1.283 . S
C399 O434 1.283 . S
Eu400 O401 2.370 1_454 S
Eu400 O402 2.370 . S
Eu400 O405 2.370 1_455 S
Eu400 O406 2.370 1_554 S
Eu400 O414 2.363 . S
Eu400 O415 2.363 1_554 S
Eu400 O428 2.363 . S
Eu400 O429 2.363 1_455 S
O401 Eu400 2.370 1_656 S
O401 Eu403 2.370 1_556 S
O401 Eu408 2.370 1_655 S
O402 Eu400 2.370 . S
O402 Eu404 2.370 . S
O402 Eu407 2.370 . S
Eu403 O401 2.370 1_554 S
Eu403 O405 2.370 . S
Eu403 O409 2.370 . S
Eu403 O410 2.370 1_554 S
Eu403 O418 2.363 . S
Eu403 O419 2.363 . S
Eu403 O434 2.363 . S
Eu403 O435 2.363 1_554 S
Eu404 O402 2.370 . S
Eu404 O406 2.370 1_554 S
Eu404 O411 2.370 1_554 S
Eu404 O412 2.370 . S
Eu404 O420 2.363 . S
Eu404 O421 2.363 . S
Eu404 O436 2.363 . S
Eu404 O437 2.363 1_554 S
O405 Eu400 2.370 1_655 S
O405 Eu403 2.370 . S
O405 Eu407 2.370 1_655 S
O406 Eu400 2.370 1_556 S
O406 Eu404 2.370 1_556 S
O406 Eu408 2.370 . S
Eu407 O402 2.370 . S
Eu407 O405 2.370 1_455 S
Eu407 O409 2.370 1_455 S
Eu407 O412 2.370 . S
Eu407 O424 2.363 . S
Eu407 O425 2.363 1_455 S
Eu407 O432 2.363 . S
Eu407 O433 2.363 . S
Eu408 O401 2.370 1_455 S
Eu408 O406 2.370 . S
Eu408 O410 2.370 1_455 S
Eu408 O411 2.370 . S
Eu408 O422 2.363 . S
Eu408 O423 2.363 1_455 S
Eu408 O430 2.363 . S
Eu408 O431 2.363 . S
O409 Eu403 2.370 . S
O409 Eu407 2.370 1_655 S
O409 Eu413 2.370 1_655 S
O410 Eu403 2.370 1_556 S
O410 Eu408 2.370 1_655 S
O410 Eu413 2.370 1_656 S
O411 Eu404 2.370 1_556 S
O411 Eu408 2.370 . S
O411 Eu413 2.370 1_556 S
O412 Eu404 2.370 . S
O412 Eu407 2.370 . S
O412 Eu413 2.370 . S
Eu413 O409 2.370 1_455 S
Eu413 O410 2.370 1_454 S
Eu413 O411 2.370 1_554 S
Eu413 O412 2.370 . S
Eu413 O416 2.363 . S
Eu413 O417 2.363 1_554 S
Eu413 O426 2.363 . S
Eu413 O427 2.363 1_455 S
O414 C388 1.283 . S
O414 Eu400 2.363 . S
O415 C389 1.283 . S
O415 Eu400 2.363 1_556 S
O416 C390 1.283 . S
O416 Eu413 2.363 . S
O417 C391 1.283 . S
O417 Eu413 2.363 1_556 S
O418 C392 1.283 . S
O418 Eu403 2.363 . S
O419 C393 1.283 . S
O419 Eu403 2.363 . S
O420 C394 1.283 . S
O420 Eu404 2.363 . S
O421 C395 1.283 . S
O421 Eu404 2.363 . S
O422 C396 1.283 . S
O422 Eu408 2.363 . S
O423 C397 1.283 . S
O423 Eu408 2.363 1_655 S
O424 C398 1.283 . S
O424 Eu407 2.363 . S
O425 C399 1.283 . S
O425 Eu407 2.363 1_655 S
O426 C394 1.283 . S
O426 Eu413 2.363 . S
O427 C392 1.283 . S
O427 Eu413 2.363 1_655 S
O428 C395 1.283 . S
O428 Eu400 2.363 . S
O429 C393 1.283 . S
O429 Eu400 2.363 1_655 S
O430 C389 1.283 . S
O430 Eu408 2.363 . S
O431 C391 1.283 . S
O431 Eu408 2.363 . S
O432 C388 1.283 . S
O432 Eu407 2.363 . S
O433 C390 1.283 . S
O433 Eu407 2.363 . S
O434 C399 1.283 . S
O434 Eu403 2.363 . S
O435 C397 1.283 . S
O435 Eu403 2.363 1_556 S
O436 C398 1.283 . S
O436 Eu404 2.363 . S
O437 C396 1.283 . S
O437 Eu404 2.363 1_556 S
C438 O464 1.283 . S
C438 O482 1.283 . S
C439 O465 1.283 . S
C439 O480 1.283 . S
C440 O466 1.283 . S
C440 O483 1.283 . S
C441 O467 1.283 . S
C441 O481 1.283 . S
C442 O468 1.283 . S
C442 O477 1.283 . S
C443 O469 1.283 . S
C443 O479 1.283 . S
C444 O470 1.283 . S
C444 O476 1.283 . S
C445 O471 1.283 . S
C445 O478 1.283 . S
C446 O472 1.283 . S
C446 O487 1.283 . S
C447 O473 1.283 . S
C447 O485 1.283 . S
C448 O474 1.283 . S
C448 O486 1.283 . S
C449 O475 1.283 . S
C449 O484 1.283 . S
Eu450 O451 2.370 . S
Eu450 O452 2.370 . S
Eu450 O455 2.370 . S
Eu450 O456 2.370 . S
Eu450 O464 2.363 . S
Eu450 O465 2.363 . S
Eu450 O478 2.363 . S
Eu450 O479 2.363 . S
O451 Eu450 2.370 . S
O451 Eu453 2.370 . S
O451 Eu458 2.370 . S
O452 Eu450 2.370 . S
O452 Eu454 2.370 . S
O452 Eu457 2.370 . S
Eu453 O451 2.370 . S
Eu453 O455 2.370 . S
Eu453 O459 2.370 1_554 S
Eu453 O460 2.370 1_554 S
Eu453 O468 2.363 1_554 S
Eu453 O469 2.363 . S
Eu453 O484 2.363 . S
Eu453 O485 2.363 . S
Eu454 O452 2.370 . S
Eu454 O456 2.370 . S
Eu454 O461 2.370 1_554 S
Eu454 O462 2.370 1_554 S
Eu454 O470 2.363 1_554 S
Eu454 O471 2.363 . S
Eu454 O486 2.363 . S
Eu454 O487 2.363 . S
O455 Eu450 2.370 . S
O455 Eu453 2.370 . S
O455 Eu457 2.370 . S
O456 Eu450 2.370 . S
O456 Eu454 2.370 . S
O456 Eu458 2.370 . S
Eu457 O452 2.370 . S
Eu457 O455 2.370 . S
Eu457 O459 2.370 1_554 S
Eu457 O462 2.370 1_554 S
Eu457 O474 2.363 . S
Eu457 O475 2.363 . S
Eu457 O482 2.363 . S
Eu457 O483 2.363 1_554 S
Eu458 O451 2.370 . S
Eu458 O456 2.370 . S
Eu458 O460 2.370 1_554 S
Eu458 O461 2.370 1_554 S
Eu458 O472 2.363 . S
Eu458 O473 2.363 . S
Eu458 O480 2.363 . S
Eu458 O481 2.363 1_554 S
O459 Eu453 2.370 1_556 S
O459 Eu457 2.370 1_556 S
O459 Eu463 2.370 . S
O460 Eu453 2.370 1_556 S
O460 Eu458 2.370 1_556 S
O460 Eu463 2.370 . S
O461 Eu454 2.370 1_556 S
O461 Eu458 2.370 1_556 S
O461 Eu463 2.370 . S
O462 Eu454 2.370 1_556 S
O462 Eu457 2.370 1_556 S
O462 Eu463 2.370 . S
Eu463 O459 2.370 . S
Eu463 O460 2.370 . S
Eu463 O461 2.370 . S
Eu463 O462 2.370 . S
Eu463 O466 2.363 . S
Eu463 O467 2.363 . S
Eu463 O476 2.363 . S
Eu463 O477 2.363 . S
O464 C438 1.283 . S
O464 Eu450 2.363 . S
O465 C439 1.283 . S
O465 Eu450 2.363 . S
O466 C440 1.283 . S
O466 Eu463 2.363 . S
O467 C441 1.283 . S
O467 Eu463 2.363 . S
O468 C442 1.283 . S
O468 Eu453 2.363 1_556 S
O469 C443 1.283 . S
O469 Eu453 2.363 . S
O470 C444 1.283 . S
O470 Eu454 2.363 1_556 S
O471 C445 1.283 . S
O471 Eu454 2.363 . S
O472 C446 1.283 . S
O472 Eu458 2.363 . S
O473 C447 1.283 . S
O473 Eu458 2.363 . S
O474 C448 1.283 . S
O474 Eu457 2.363 . S
O475 C449 1.283 . S
O475 Eu457 2.363 . S
O476 C444 1.283 . S
O476 Eu463 2.363 . S
O477 C442 1.283 . S
O477 Eu463 2.363 . S
O478 C445 1.283 . S
O478 Eu450 2.363 . S
O479 C443 1.283 . S
O479 Eu450 2.363 . S
O480 C439 1.283 . S
O480 Eu458 2.363 . S
O481 C441 1.283 . S
O481 Eu458 2.363 1_556 S
O482 C438 1.283 . S
O482 Eu457 2.363 . S
O483 C440 1.283 . S
O483 Eu457 2.363 1_556 S
O484 C449 1.283 . S
O484 Eu453 2.363 . S
O485 C447 1.283 . S
O485 Eu453 2.363 . S
O486 C448 1.283 . S
O486 Eu454 2.363 . S
O487 C446 1.283 . S
O487 Eu454 2.363 . S
C488 O514 1.283 . S
C488 O532 1.283 . S
C489 O515 1.283 . S
C489 O530 1.283 . S
C490 O516 1.283 . S
C490 O533 1.283 . S
C491 O517 1.283 . S
C491 O531 1.283 . S
C492 O518 1.283 . S
C492 O527 1.283 . S
C493 O519 1.283 . S
C493 O529 1.283 . S
C494 O520 1.283 . S
C494 O526 1.283 . S
C495 O521 1.283 . S
C495 O528 1.283 . S
C496 O522 1.283 . S
C496 O537 1.283 . S
C497 O523 1.283 . S
C497 O535 1.283 . S
C498 O524 1.283 . S
C498 O536 1.283 . S
C499 O525 1.283 . S
C499 O534 1.283 . S
Eu500 O501 2.370 1_455 S
Eu500 O502 2.370 . S
Eu500 O505 2.370 1_455 S
Eu500 O506 2.370 . S
Eu500 O514 2.363 . S
Eu500 O515 2.363 . S
Eu500 O528 2.363 . S
Eu500 O529 2.363 1_455 S
O501 Eu500 2.370 1_655 S
O501 Eu503 2.370 . S
O501 Eu508 2.370 1_655 S
O502 Eu500 2.370 . S
O502 Eu504 2.370 . S
O502 Eu507 2.370 . S
Eu503 O501 2.370 . S
Eu503 O505 2.370 . S
Eu503 O509 2.370 . S
Eu503 O510 2.370 . S
Eu503 O518 2.363 . S
Eu503 O519 2.363 . S
Eu503 O534 2.363 . S
Eu503 O535 2.363 . S
Eu504 O502 2.370 . S
Eu504 O506 2.370 . S
Eu504 O511 2.370 . S
Eu504 O512 2.370 . S
Eu504 O520 2.363 . S
Eu504 O521 2.363 . S
Eu504 O536 2.363 . S
Eu504 O537 2.363 . S
O505 Eu500 2.370 1_655 S
O505 Eu503 2.370 . S
O505 Eu507 2.370 1_655 S
O506 Eu500 2.370 . S
O506 Eu504 2.370 . S
O506 Eu508 2.370 . S
Eu507 O502 2.370 . S
Eu507 O505 2.370 1_455 S
Eu507 O509 2.370 1_455 S
Eu507 O512 2.370 . S
Eu507 O524 2.363 . S
Eu507 O525 2.363 1_455 S
Eu507 O532 2.363 . S
Eu507 O533 2.363 . S
Eu508 O501 2.370 1_455 S
Eu508 O506 2.370 . S
Eu508 O510 2.370 1_455 S
Eu508 O511 2.370 . S
Eu508 O522 2.363 . S
Eu508 O523 2.363 1_455 S
Eu508 O530 2.363 . S
Eu508 O531 2.363 . S
O509 Eu503 2.370 . S
O509 Eu507 2.370 1_655 S
O509 Eu513 2.370 1_655 S
O510 Eu503 2.370 . S
O510 Eu508 2.370 1_655 S
O510 Eu513 2.370 1_655 S
O511 Eu504 2.370 . S
O511 Eu508 2.370 . S
O511 Eu513 2.370 . S
O512 Eu504 2.370 . S
O512 Eu507 2.370 . S
O512 Eu513 2.370 . S
Eu513 O509 2.370 1_455 S
Eu513 O510 2.370 1_455 S
Eu513 O511 2.370 . S
Eu513 O512 2.370 . S
Eu513 O516 2.363 . S
Eu513 O517 2.363 . S
Eu513 O526 2.363 . S
Eu513 O527 2.363 1_455 S
O514 C488 1.283 . S
O514 Eu500 2.363 . S
O515 C489 1.283 . S
O515 Eu500 2.363 . S
O516 C490 1.283 . S
O516 Eu513 2.363 . S
O517 C491 1.283 . S
O517 Eu513 2.363 . S
O518 C492 1.283 . S
O518 Eu503 2.363 . S
O519 C493 1.283 . S
O519 Eu503 2.363 . S
O520 C494 1.283 . S
O520 Eu504 2.363 . S
O521 C495 1.283 . S
O521 Eu504 2.363 . S
O522 C496 1.283 . S
O522 Eu508 2.363 . S
O523 C497 1.283 . S
O523 Eu508 2.363 1_655 S
O524 C498 1.283 . S
O524 Eu507 2.363 . S
O525 C499 1.283 . S
O525 Eu507 2.363 1_655 S
O526 C494 1.283 . S
O526 Eu513 2.363 . S
O527 C492 1.283 . S
O527 Eu513 2.363 1_655 S
O528 C495 1.283 . S
O528 Eu500 2.363 . S
O529 C493 1.283 . S
O529 Eu500 2.363 1_655 S
O530 C489 1.283 . S
O530 Eu508 2.363 . S
O531 C491 1.283 . S
O531 Eu508 2.363 . S
O532 C488 1.283 . S
O532 Eu507 2.363 . S
O533 C490 1.283 . S
O533 Eu507 2.363 . S
O534 C499 1.283 . S
O534 Eu503 2.363 . S
O535 C497 1.283 . S
O535 Eu503 2.363 . S
O536 C498 1.283 . S
O536 Eu504 2.363 . S
O537 C496 1.283 . S
O537 Eu504 2.363 . S
C538 O564 1.283 . S
C538 O582 1.283 . S
C539 O565 1.283 . S
C539 O580 1.283 . S
C540 O566 1.283 . S
C540 O583 1.283 . S
C541 O567 1.283 . S
C541 O581 1.283 . S
C542 O568 1.283 . S
C542 O577 1.283 . S
C543 O569 1.283 . S
C543 O579 1.283 . S
C544 O570 1.283 . S
C544 O576 1.283 . S
C545 O571 1.283 . S
C545 O578 1.283 . S
C546 O572 1.283 . S
C546 O587 1.283 . S
C547 O573 1.283 . S
C547 O585 1.283 . S
C548 O574 1.283 . S
C548 O586 1.283 . S
C549 O575 1.283 . S
C549 O584 1.283 . S
Eu550 O551 2.370 . S
Eu550 O552 2.370 . S
Eu550 O555 2.370 . S
Eu550 O556 2.370 . S
Eu550 O564 2.363 . S
Eu550 O565 2.363 . S
Eu550 O578 2.363 . S
Eu550 O579 2.363 . S
O551 Eu550 2.370 . S
O551 Eu553 2.367 1_565 S
O551 Eu558 2.366 1_565 S
O552 Eu550 2.370 . S
O552 Eu554 2.367 1_565 S
O552 Eu557 2.368 1_565 S
Eu553 O551 2.367 1_545 S
Eu553 O555 2.367 1_545 S
Eu553 O559 2.373 . S
Eu553 O560 2.373 . S
Eu553 O568 2.368 . S
Eu553 O569 2.357 1_545 S
Eu553 O584 2.363 . S
Eu553 O585 2.363 . S
Eu554 O552 2.367 1_545 S
Eu554 O556 2.367 1_545 S
Eu554 O561 2.373 . S
Eu554 O562 2.373 . S
Eu554 O570 2.369 . S
Eu554 O571 2.357 1_545 S
Eu554 O586 2.363 . S
Eu554 O587 2.363 . S
O555 Eu550 2.370 . S
O555 Eu553 2.367 1_565 S
O555 Eu557 2.368 1_565 S
O556 Eu550 2.370 . S
O556 Eu554 2.367 1_565 S
O556 Eu558 2.366 1_565 S
Eu557 O552 2.368 1_545 S
Eu557 O555 2.368 1_545 S
Eu557 O559 2.373 . S
Eu557 O562 2.373 . S
Eu557 O574 2.363 . S
Eu557 O575 2.363 . S
Eu557 O582 2.359 1_545 S
Eu557 O583 2.367 . S
Eu558 O551 2.366 1_545 S
Eu558 O556 2.366 1_545 S
Eu558 O560 2.374 . S
Eu558 O561 2.374 . S
Eu558 O572 2.363 . S
Eu558 O573 2.363 . S
Eu558 O580 2.356 1_545 S
Eu558 O581 2.370 . S
O559 Eu553 2.373 . S
O559 Eu557 2.373 . S
O559 Eu563 2.370 . S
O560 Eu553 2.373 . S
O560 Eu558 2.374 . S
O560 Eu563 2.370 . S
O561 Eu554 2.373 . S
O561 Eu558 2.374 . S
O561 Eu563 2.370 . S
O562 Eu554 2.373 . S
O562 Eu557 2.373 . S
O562 Eu563 2.370 . S
Eu563 O559 2.370 . S
Eu563 O560 2.370 . S
Eu563 O561 2.370 . S
Eu563 O562 2.370 . S
Eu563 O566 2.363 . S
Eu563 O567 2.363 . S
Eu563 O576 2.363 . S
Eu563 O577 2.363 . S
O564 C538 1.283 . S
O564 Eu550 2.363 . S
O565 C539 1.283 . S
O565 Eu550 2.363 . S
O566 C540 1.283 . S
O566 Eu563 2.363 . S
O567 C541 1.283 . S
O567 Eu563 2.363 . S
O568 C542 1.283 . S
O568 Eu553 2.368 . S
O569 C543 1.283 . S
O569 Eu553 2.357 1_565 S
O570 C544 1.283 . S
O570 Eu554 2.369 . S
O571 C545 1.283 . S
O571 Eu554 2.357 1_565 S
O572 C546 1.283 . S
O572 Eu558 2.363 . S
O573 C547 1.283 . S
O573 Eu558 2.363 . S
O574 C548 1.283 . S
O574 Eu557 2.363 . S
O575 C549 1.283 . S
O575 Eu557 2.363 . S
O576 C544 1.283 . S
O576 Eu563 2.363 . S
O577 C542 1.283 . S
O577 Eu563 2.363 . S
O578 C545 1.283 . S
O578 Eu550 2.363 . S
O579 C543 1.283 . S
O579 Eu550 2.363 . S
O580 C539 1.283 . S
O580 Eu558 2.356 1_565 S
O581 C541 1.283 . S
O581 Eu558 2.370 . S
O582 C538 1.283 . S
O582 Eu557 2.359 1_565 S
O583 C540 1.283 . S
O583 Eu557 2.367 . S
O584 C549 1.283 . S
O584 Eu553 2.363 . S
O585 C547 1.283 . S
O585 Eu553 2.363 . S
O586 C548 1.283 . S
O586 Eu554 2.363 . S
O587 C546 1.283 . S
O587 Eu554 2.363 . S
H588 C594 0.930 . S
H589 C598 0.930 . S
H590 C603 0.929 . S
H591 C601 0.929 . S
H592 C596 0.929 . S
H593 C602 0.929 . S
C594 H588 0.930 . S
C594 C595 1.367 . S
C594 C602 1.378 . S
C595 C594 1.367 . S
C595 C603 1.433 . S
C596 H592 0.929 . S
C596 C598 1.378 . S
C596 C600 1.350 . S
C597 C600 1.463 . S
C597 C602 1.350 . S
C597 N605 1.427 . S
C598 H589 0.930 . S
C598 C596 1.378 . S
C598 C599 1.367 . S
C599 C598 1.367 . S
C599 C601 1.433 . S
C600 C596 1.350 . S
C600 C597 1.463 . S
C600 N604 1.427 . S
C601 H591 0.929 . S
C601 C599 1.433 . S
C601 N604 1.384 . S
C602 H593 0.929 . S
C602 C594 1.378 . S
C602 C597 1.350 . S
C603 H590 0.929 . S
C603 C595 1.433 . S
C603 N605 1.384 . S
N604 C600 1.427 . S
N604 C601 1.384 . S
N605 C597 1.427 . S
N605 C603 1.384 . S
H606 C612 0.930 . S
H607 C616 0.930 . S
H608 C621 0.929 . S
H609 C619 0.929 . S
H610 C614 0.929 . S
H611 C620 0.929 . S
C612 H606 0.930 . S
C612 C613 1.367 . S
C612 C620 1.378 . S
C613 C612 1.367 . S
C613 C621 1.433 . S
C614 H610 0.929 . S
C614 C616 1.378 . S
C614 C618 1.350 . S
C615 C618 1.463 . S
C615 C620 1.350 . S
C615 N623 1.427 . S
C616 H607 0.930 . S
C616 C614 1.378 . S
C616 C617 1.367 . S
C617 C616 1.367 . S
C617 C619 1.433 . S
C618 C614 1.350 . S
C618 C615 1.463 . S
C618 N622 1.427 . S
C619 H609 0.929 . S
C619 C617 1.433 . S
C619 N622 1.384 . S
C620 H611 0.929 . S
C620 C612 1.378 . S
C620 C615 1.350 . S
C621 H608 0.929 . S
C621 C613 1.433 . S
C621 N623 1.384 . S
N622 C618 1.427 . S
N622 C619 1.384 . S
N623 C615 1.427 . S
N623 C621 1.384 . S
H624 C630 0.930 . S
H625 C634 0.930 . S
H626 C639 0.929 . S
H627 C637 0.929 . S
H628 C632 0.929 . S
H629 C638 0.929 . S
C630 H624 0.930 . S
C630 C631 1.367 . S
C630 C638 1.378 . S
C631 C630 1.367 . S
C631 C639 1.433 . S
C632 H628 0.929 . S
C632 C634 1.378 . S
C632 C636 1.350 . S
C633 C636 1.463 . S
C633 C638 1.350 . S
C633 N641 1.427 . S
C634 H625 0.930 . S
C634 C632 1.378 . S
C634 C635 1.367 . S
C635 C634 1.367 . S
C635 C637 1.433 . S
C636 C632 1.350 . S
C636 C633 1.463 . S
C636 N640 1.427 . S
C637 H627 0.929 . S
C637 C635 1.433 . S
C637 N640 1.384 . S
C638 H629 0.929 . S
C638 C630 1.378 . S
C638 C633 1.350 . S
C639 H626 0.929 . S
C639 C631 1.433 . S
C639 N641 1.384 . S
N640 C636 1.427 . S
N640 C637 1.384 . S
N641 C633 1.427 . S
N641 C639 1.384 . S
H642 C648 0.930 . S
H643 C652 0.930 . S
H644 C657 0.929 . S
H645 C655 0.929 . S
H646 C650 0.929 . S
H647 C656 0.929 . S
C648 H642 0.930 . S
C648 C649 1.367 . S
C648 C656 1.378 . S
C649 C648 1.367 . S
C649 C657 1.433 . S
C650 H646 0.929 . S
C650 C652 1.378 . S
C650 C654 1.350 . S
C651 C654 1.463 . S
C651 C656 1.350 . S
C651 N659 1.427 . S
C652 H643 0.930 . S
C652 C650 1.378 . S
C652 C653 1.367 . S
C653 C652 1.367 . S
C653 C655 1.433 . S
C654 C650 1.350 . S
C654 C651 1.463 . S
C654 N658 1.427 . S
C655 H645 0.929 . S
C655 C653 1.433 . S
C655 N658 1.384 . S
C656 H647 0.929 . S
C656 C648 1.378 . S
C656 C651 1.350 . S
C657 H644 0.929 . S
C657 C649 1.433 . S
C657 N659 1.384 . S
N658 C654 1.427 . S
N658 C655 1.384 . S
N659 C651 1.427 . S
N659 C657 1.384 . S
H660 C666 0.930 . S
H661 C670 0.930 . S
H662 C675 0.929 . S
H663 C673 0.929 . S
H664 C668 0.929 . S
H665 C674 0.929 . S
C666 H660 0.930 . S
C666 C667 1.367 . S
C666 C674 1.378 . S
C667 C666 1.367 . S
C667 C675 1.433 . S
C668 H664 0.929 . S
C668 C670 1.378 . S
C668 C672 1.350 . S
C669 C672 1.463 . S
C669 C674 1.350 . S
C669 N677 1.427 . S
C670 H661 0.930 . S
C670 C668 1.378 . S
C670 C671 1.367 . S
C671 C670 1.367 . S
C671 C673 1.433 . S
C672 C668 1.350 . S
C672 C669 1.463 . S
C672 N676 1.427 . S
C673 H663 0.929 . S
C673 C671 1.433 . S
C673 N676 1.384 . S
C674 H665 0.929 . S
C674 C666 1.378 . S
C674 C669 1.350 . S
C675 H662 0.929 . S
C675 C667 1.433 . S
C675 N677 1.384 . S
N676 C672 1.427 . S
N676 C673 1.384 . S
N677 C669 1.427 . S
N677 C675 1.384 . S
H678 C684 0.930 . S
H679 C688 0.930 . S
H680 C693 0.929 . S
H681 C691 0.929 . S
H682 C686 0.929 . S
H683 C692 0.929 . S
C684 H678 0.930 . S
C684 C685 1.367 . S
C684 C692 1.378 . S
C685 C684 1.367 . S
C685 C693 1.433 . S
C686 H682 0.929 . S
C686 C688 1.378 . S
C686 C690 1.350 . S
C687 C690 1.463 . S
C687 C692 1.350 . S
C687 N695 1.427 . S
C688 H679 0.930 . S
C688 C686 1.378 . S
C688 C689 1.367 . S
C689 C688 1.367 . S
C689 C691 1.433 . S
C690 C686 1.350 . S
C690 C687 1.463 . S
C690 N694 1.427 . S
C691 H681 0.929 . S
C691 C689 1.433 . S
C691 N694 1.384 . S
C692 H683 0.929 . S
C692 C684 1.378 . S
C692 C687 1.350 . S
C693 H680 0.929 . S
C693 C685 1.433 . S
C693 N695 1.384 . S
N694 C690 1.427 . S
N694 C691 1.384 . S
N695 C687 1.427 . S
N695 C693 1.384 . S
H696 C702 0.930 . S
H697 C706 0.930 . S
H698 C711 0.929 . S
H699 C709 0.929 . S
H700 C704 0.929 . S
H701 C710 0.929 . S
C702 H696 0.930 . S
C702 C703 1.367 . S
C702 C710 1.378 . S
C703 C702 1.367 . S
C703 C711 1.433 . S
C704 H700 0.929 . S
C704 C706 1.378 . S
C704 C708 1.350 . S
C705 C708 1.463 . S
C705 C710 1.350 . S
C705 N713 1.427 . S
C706 H697 0.930 . S
C706 C704 1.378 . S
C706 C707 1.367 . S
C707 C706 1.367 . S
C707 C709 1.433 . S
C708 C704 1.350 . S
C708 C705 1.463 . S
C708 N712 1.427 . S
C709 H699 0.929 . S
C709 C707 1.433 . S
C709 N712 1.384 . S
C710 H701 0.929 . S
C710 C702 1.378 . S
C710 C705 1.350 . S
C711 H698 0.929 . S
C711 C703 1.433 . S
C711 N713 1.384 . S
N712 C708 1.427 . S
N712 C709 1.384 . S
N713 C705 1.427 . S
N713 C711 1.384 . S
H714 C720 0.930 . S
H715 C724 0.930 . S
H716 C729 0.929 . S
H717 C727 0.929 . S
H718 C722 0.929 . S
H719 C728 0.929 . S
C720 H714 0.930 . S
C720 C721 1.367 . S
C720 C728 1.378 . S
C721 C720 1.367 . S
C721 C729 1.433 . S
C722 H718 0.929 . S
C722 C724 1.378 . S
C722 C726 1.350 . S
C723 C726 1.463 . S
C723 C728 1.350 . S
C723 N731 1.427 . S
C724 H715 0.930 . S
C724 C722 1.378 . S
C724 C725 1.367 . S
C725 C724 1.367 . S
C725 C727 1.433 . S
C726 C722 1.350 . S
C726 C723 1.463 . S
C726 N730 1.427 . S
C727 H717 0.929 . S
C727 C725 1.433 . S
C727 N730 1.384 . S
C728 H719 0.929 . S
C728 C720 1.378 . S
C728 C723 1.350 . S
C729 H716 0.929 . S
C729 C721 1.433 . S
C729 N731 1.384 . S
N730 C726 1.427 . S
N730 C727 1.384 . S
N731 C723 1.427 . S
N731 C729 1.384 . S
H732 C738 0.930 . S
H733 C742 0.930 . S
H734 C747 0.929 . S
H735 C745 0.929 . S
H736 C740 0.929 . S
H737 C746 0.929 . S
C738 H732 0.930 . S
C738 C739 1.367 . S
C738 C746 1.378 . S
C739 C738 1.367 . S
C739 C747 1.433 . S
C740 H736 0.929 . S
C740 C742 1.378 . S
C740 C744 1.350 . S
C741 C744 1.463 . S
C741 C746 1.350 . S
C741 N749 1.427 . S
C742 H733 0.930 . S
C742 C740 1.378 . S
C742 C743 1.367 . S
C743 C742 1.367 . S
C743 C745 1.433 . S
C744 C740 1.350 . S
C744 C741 1.463 . S
C744 N748 1.427 . S
C745 H735 0.929 . S
C745 C743 1.433 . S
C745 N748 1.384 . S
C746 H737 0.929 . S
C746 C738 1.378 . S
C746 C741 1.350 . S
C747 H734 0.929 . S
C747 C739 1.433 . S
C747 N749 1.384 . S
N748 C744 1.427 . S
N748 C745 1.384 . S
N749 C741 1.427 . S
N749 C747 1.384 . S
H750 C756 0.930 . S
H751 C760 0.930 . S
H752 C765 0.929 . S
H753 C763 0.929 . S
H754 C758 0.929 . S
H755 C764 0.929 . S
C756 H750 0.930 . S
C756 C757 1.367 . S
C756 C764 1.378 . S
C757 C756 1.367 . S
C757 C765 1.433 . S
C758 H754 0.929 . S
C758 C760 1.378 . S
C758 C762 1.350 . S
C759 C762 1.463 . S
C759 C764 1.350 . S
C759 N767 1.427 . S
C760 H751 0.930 . S
C760 C758 1.378 . S
C760 C761 1.367 . S
C761 C760 1.367 . S
C761 C763 1.433 . S
C762 C758 1.350 . S
C762 C759 1.463 . S
C762 N766 1.427 . S
C763 H753 0.929 . S
C763 C761 1.433 . S
C763 N766 1.384 . S
C764 H755 0.929 . S
C764 C756 1.378 . S
C764 C759 1.350 . S
C765 H752 0.929 . S
C765 C757 1.433 . S
C765 N767 1.384 . S
N766 C762 1.427 . S
N766 C763 1.384 . S
N767 C759 1.427 . S
N767 C765 1.384 . S
H768 C774 0.930 . S
H769 C778 0.930 . S
H770 C783 0.929 . S
H771 C781 0.929 . S
H772 C776 0.929 . S
H773 C782 0.929 . S
C774 H768 0.930 . S
C774 C775 1.367 . S
C774 C782 1.378 . S
C775 C774 1.367 . S
C775 C783 1.433 . S
C776 H772 0.929 . S
C776 C778 1.378 . S
C776 C780 1.350 . S
C777 C780 1.463 . S
C777 C782 1.350 . S
C777 N785 1.427 . S
C778 H769 0.930 . S
C778 C776 1.378 . S
C778 C779 1.367 . S
C779 C778 1.367 . S
C779 C781 1.433 . S
C780 C776 1.350 . S
C780 C777 1.463 . S
C780 N784 1.427 . S
C781 H771 0.929 . S
C781 C779 1.433 . S
C781 N784 1.384 . S
C782 H773 0.929 . S
C782 C774 1.378 . S
C782 C777 1.350 . S
C783 H770 0.929 . S
C783 C775 1.433 . S
C783 N785 1.384 . S
N784 C780 1.427 . S
N784 C781 1.384 . S
N785 C777 1.427 . S
N785 C783 1.384 . S
H786 C792 0.930 . S
H787 C796 0.930 . S
H788 C801 0.929 . S
H789 C799 0.929 . S
H790 C794 0.929 . S
H791 C800 0.929 . S
C792 H786 0.930 . S
C792 C793 1.367 . S
C792 C800 1.378 . S
C793 C792 1.367 . S
C793 C801 1.433 . S
C794 H790 0.929 . S
C794 C796 1.378 . S
C794 C798 1.350 . S
C795 C798 1.463 . S
C795 C800 1.350 . S
C795 N803 1.427 . S
C796 H787 0.930 . S
C796 C794 1.378 . S
C796 C797 1.367 . S
C797 C796 1.367 . S
C797 C799 1.433 . S
C798 C794 1.350 . S
C798 C795 1.463 . S
C798 N802 1.427 . S
C799 H789 0.929 . S
C799 C797 1.433 . S
C799 N802 1.384 . S
C800 H791 0.929 . S
C800 C792 1.378 . S
C800 C795 1.350 . S
C801 H788 0.929 . S
C801 C793 1.433 . S
C801 N803 1.384 . S
N802 C798 1.427 . S
N802 C799 1.384 . S
N803 C795 1.427 . S
N803 C801 1.384 . S
H804 C810 0.930 . S
H805 C814 0.930 . S
H806 C819 0.929 . S
H807 C817 0.929 . S
H808 C812 0.929 . S
H809 C818 0.929 . S
C810 H804 0.930 . S
C810 C811 1.367 1_556 S
C810 C818 1.378 . S
C811 C810 1.367 1_554 S
C811 C819 1.433 . S
C812 H808 0.929 . S
C812 C814 1.378 . S
C812 C816 1.350 . S
C813 C816 1.463 . S
C813 C818 1.350 1_554 S
C813 N821 1.427 . S
C814 H805 0.930 . S
C814 C812 1.378 . S
C814 C815 1.367 . S
C815 C814 1.367 . S
C815 C817 1.433 1_554 S
C816 C812 1.350 . S
C816 C813 1.463 . S
C816 N820 1.427 1_554 S
C817 H807 0.929 . S
C817 C815 1.433 1_556 S
C817 N820 1.384 . S
C818 H809 0.929 . S
C818 C810 1.378 . S
C818 C813 1.350 1_556 S
C819 H806 0.929 . S
C819 C811 1.433 . S
C819 N821 1.384 . S
N820 C816 1.427 1_556 S
N820 C817 1.384 . S
N821 C813 1.427 . S
N821 C819 1.384 . S
H822 C828 0.930 . S
H823 C832 0.930 . S
H824 C837 0.929 . S
H825 C835 0.929 . S
H826 C830 0.929 . S
H827 C836 0.929 . S
C828 H822 0.930 . S
C828 C829 1.367 . S
C828 C836 1.378 . S
C829 C828 1.367 . S
C829 C837 1.433 . S
C830 H826 0.929 . S
C830 C832 1.378 . S
C830 C834 1.350 . S
C831 C834 1.463 . S
C831 C836 1.350 . S
C831 N839 1.427 . S
C832 H823 0.930 . S
C832 C830 1.378 . S
C832 C833 1.367 . S
C833 C832 1.367 . S
C833 C835 1.433 . S
C834 C830 1.350 . S
C834 C831 1.463 . S
C834 N838 1.427 . S
C835 H825 0.929 . S
C835 C833 1.433 . S
C835 N838 1.384 . S
C836 H827 0.929 . S
C836 C828 1.378 . S
C836 C831 1.350 . S
C837 H824 0.929 . S
C837 C829 1.433 . S
C837 N839 1.384 . S
N838 C834 1.427 . S
N838 C835 1.384 . S
N839 C831 1.427 . S
N839 C837 1.384 . S
H840 C846 0.930 . S
H841 C850 0.930 . S
H842 C855 0.929 . S
H843 C853 0.929 . S
H844 C848 0.929 . S
H845 C854 0.929 . S
C846 H840 0.930 . S
C846 C847 1.367 . S
C846 C854 1.378 . S
C847 C846 1.367 . S
C847 C855 1.433 1_554 S
C848 H844 0.929 . S
C848 C850 1.378 . S
C848 C852 1.350 1_556 S
C849 C852 1.463 . S
C849 C854 1.350 . S
C849 N857 1.427 1_554 S
C850 H841 0.930 . S
C850 C848 1.378 . S
C850 C851 1.367 1_556 S
C851 C850 1.367 1_554 S
C851 C853 1.433 . S
C852 C848 1.350 1_554 S
C852 C849 1.463 . S
C852 N856 1.427 . S
C853 H843 0.929 . S
C853 C851 1.433 . S
C853 N856 1.384 . S
C854 H845 0.929 . S
C854 C846 1.378 . S
C854 C849 1.350 . S
C855 H842 0.929 . S
C855 C847 1.433 1_556 S
C855 N857 1.384 . S
N856 C852 1.427 . S
N856 C853 1.384 . S
N857 C849 1.427 1_556 S
N857 C855 1.384 . S
H858 C864 0.930 . S
H859 C868 0.930 . S
H860 C873 0.929 . S
H861 C871 0.929 . S
H862 C866 0.929 . S
H863 C872 0.929 . S
C864 H858 0.930 . S
C864 C865 1.367 . S
C864 C872 1.378 . S
C865 C864 1.367 . S
C865 C873 1.433 1_554 S
C866 H862 0.929 . S
C866 C868 1.378 . S
C866 C870 1.350 1_556 S
C867 C870 1.463 . S
C867 C872 1.350 . S
C867 N875 1.427 1_554 S
C868 H859 0.930 . S
C868 C866 1.378 . S
C868 C869 1.367 1_556 S
C869 C868 1.367 1_554 S
C869 C871 1.433 . S
C870 C866 1.350 1_554 S
C870 C867 1.463 . S
C870 N874 1.427 . S
C871 H861 0.929 . S
C871 C869 1.433 . S
C871 N874 1.384 . S
C872 H863 0.929 . S
C872 C864 1.378 . S
C872 C867 1.350 . S
C873 H860 0.929 . S
C873 C865 1.433 1_556 S
C873 N875 1.384 . S
N874 C870 1.427 . S
N874 C871 1.384 . S
N875 C867 1.427 1_556 S
N875 C873 1.384 . S
H876 C882 0.930 . S
H877 C886 0.930 . S
H878 C891 0.929 . S
H879 C889 0.929 . S
H880 C884 0.929 . S
H881 C890 0.929 . S
C882 H876 0.930 . S
C882 C883 1.367 . S
C882 C890 1.378 . S
C883 C882 1.367 . S
C883 C891 1.433 . S
C884 H880 0.929 . S
C884 C886 1.378 . S
C884 C888 1.350 . S
C885 C888 1.463 . S
C885 C890 1.350 . S
C885 N893 1.427 . S
C886 H877 0.930 . S
C886 C884 1.378 . S
C886 C887 1.367 . S
C887 C886 1.367 . S
C887 C889 1.433 . S
C888 C884 1.350 . S
C888 C885 1.463 . S
C888 N892 1.427 . S
C889 H879 0.929 . S
C889 C887 1.433 . S
C889 N892 1.384 . S
C890 H881 0.929 . S
C890 C882 1.378 . S
C890 C885 1.350 . S
C891 H878 0.929 . S
C891 C883 1.433 . S
C891 N893 1.384 . S
N892 C888 1.427 . S
N892 C889 1.384 . S
N893 C885 1.427 . S
N893 C891 1.384 . S
H894 C900 0.930 . S
H895 C904 0.930 . S
H896 C909 0.929 . S
H897 C907 0.929 . S
H898 C902 0.929 . S
H899 C908 0.929 . S
C900 H894 0.930 . S
C900 C901 1.368 . S
C900 C908 1.378 . S
C901 C900 1.368 . S
C901 C909 1.432 1_565 S
C902 H898 0.929 . S
C902 C904 1.378 . S
C902 C906 1.359 . S
C903 C906 1.462 1_565 S
C903 C908 1.352 . S
C903 N911 1.425 1_565 S
C904 H895 0.930 . S
C904 C902 1.378 . S
C904 C905 1.375 . S
C905 C904 1.375 . S
C905 C907 1.425 1_545 S
C906 C902 1.359 . S
C906 C903 1.462 1_545 S
C906 N910 1.418 1_545 S
C907 H897 0.929 . S
C907 C905 1.425 1_565 S
C907 N910 1.384 . S
C908 H899 0.929 . S
C908 C900 1.378 . S
C908 C903 1.352 . S
C909 H896 0.929 . S
C909 C901 1.432 1_545 S
C909 N911 1.384 . S
N910 C906 1.418 1_565 S
N910 C907 1.384 . S
N911 C903 1.425 1_545 S
N911 C909 1.384 . S
H912 C918 0.930 . S
H913 C922 0.930 . S
H914 C927 0.929 . S
H915 C925 0.929 . S
H916 C920 0.929 . S
H917 C926 0.929 . S
C918 H912 0.930 . S
C918 C919 1.367 1_655 S
C918 C926 1.378 . S
C919 C918 1.367 1_455 S
C919 C927 1.433 . S
C920 H916 0.929 . S
C920 C922 1.378 . S
C920 C924 1.350 . S
C921 C924 1.463 . S
C921 C926 1.350 1_455 S
C921 N929 1.427 . S
C922 H913 0.930 . S
C922 C920 1.378 . S
C922 C923 1.367 . S
C923 C922 1.367 . S
C923 C925 1.433 1_455 S
C924 C920 1.350 . S
C924 C921 1.463 . S
C924 N928 1.427 1_455 S
C925 H915 0.929 . S
C925 C923 1.433 1_655 S
C925 N928 1.384 . S
C926 H917 0.929 . S
C926 C918 1.378 . S
C926 C921 1.350 1_655 S
C927 H914 0.929 . S
C927 C919 1.433 . S
C927 N929 1.384 . S
N928 C924 1.427 1_655 S
N928 C925 1.384 . S
N929 C921 1.427 . S
N929 C927 1.384 . S
H930 C936 0.930 . S
H931 C940 0.930 . S
H932 C945 0.929 . S
H933 C943 0.929 . S
H934 C938 0.929 . S
H935 C944 0.929 . S
C936 H930 0.930 . S
C936 C937 1.374 . S
C936 C944 1.378 . S
C937 C936 1.374 . S
C937 C945 1.426 1_565 S
C938 H934 0.929 . S
C938 C940 1.378 . S
C938 C942 1.375 . S
C939 C942 1.461 1_565 S
C939 C944 1.362 . S
C939 N947 1.415 1_565 S
C940 H931 0.930 . S
C940 C938 1.378 . S
C940 C941 1.387 . S
C941 C940 1.387 . S
C941 C943 1.413 1_545 S
C942 C938 1.375 . S
C942 C939 1.461 1_545 S
C942 N946 1.403 1_545 S
C943 H933 0.929 . S
C943 C941 1.413 1_565 S
C943 N946 1.384 . S
C944 H935 0.929 . S
C944 C936 1.378 . S
C944 C939 1.362 . S
C945 H932 0.929 . S
C945 C937 1.426 1_545 S
C945 N947 1.384 . S
N946 C942 1.403 1_565 S
N946 C943 1.384 . S
N947 C939 1.415 1_545 S
N947 C945 1.384 . S
H948 C954 0.930 . S
H949 C958 0.930 . S
H950 C963 0.929 . S
H951 C961 0.929 . S
H952 C956 0.929 . S
H953 C962 0.929 . S
C954 H948 0.930 . S
C954 C955 1.367 1_655 S
C954 C962 1.378 . S
C955 C954 1.367 1_455 S
C955 C963 1.433 . S
C956 H952 0.929 . S
C956 C958 1.378 . S
C956 C960 1.350 . S
C957 C960 1.463 . S
C957 C962 1.350 1_455 S
C957 N965 1.427 . S
C958 H949 0.930 . S
C958 C956 1.378 . S
C958 C959 1.367 . S
C959 C958 1.367 . S
C959 C961 1.433 1_455 S
C960 C956 1.350 . S
C960 C957 1.463 . S
C960 N964 1.427 1_455 S
C961 H951 0.929 . S
C961 C959 1.433 1_655 S
C961 N964 1.384 . S
C962 H953 0.929 . S
C962 C954 1.378 . S
C962 C957 1.350 1_655 S
C963 H950 0.929 . S
C963 C955 1.433 . S
C963 N965 1.384 . S
N964 C960 1.427 1_655 S
N964 C961 1.384 . S
N965 C957 1.427 . S
N965 C963 1.384 . S
H966 C972 0.930 . S
H967 C976 0.930 . S
H968 C981 0.929 . S
H969 C979 0.929 . S
H970 C974 0.929 . S
H971 C980 0.929 . S
C972 H966 0.930 . S
C972 C973 1.379 . S
C972 C980 1.378 . S
C973 C972 1.379 . S
C973 C981 1.421 1_545 S
C974 H970 0.929 . S
C974 C976 1.378 . S
C974 C978 1.349 . S
C975 C978 1.462 1_545 S
C975 C980 1.364 . S
C975 N983 1.414 1_545 S
C976 H967 0.930 . S
C976 C974 1.378 . S
C976 C977 1.368 1_565 S
C977 C976 1.368 1_545 S
C977 C979 1.432 . S
C978 C974 1.349 . S
C978 C975 1.462 1_565 S
C978 N982 1.428 1_565 S
C979 H969 0.929 . S
C979 C977 1.432 . S
C979 N982 1.384 . S
C980 H971 0.929 . S
C980 C972 1.378 . S
C980 C975 1.364 . S
C981 H968 0.929 . S
C981 C973 1.421 1_565 S
C981 N983 1.384 . S
N982 C978 1.428 1_545 S
N982 C979 1.384 . S
N983 C975 1.414 1_565 S
N983 C981 1.384 . S
H984 C990 0.930 . S
H985 C994 0.930 . S
H986 C999 0.929 . S
H987 C997 0.929 . S
H988 C992 0.929 . S
H989 C998 0.929 . S
C990 H984 0.930 . S
C990 C991 1.367 1_655 S
C990 C998 1.378 . S
C991 C990 1.367 1_455 S
C991 C999 1.433 . S
C992 H988 0.929 . S
C992 C994 1.378 . S
C992 C996 1.350 . S
C993 C996 1.463 . S
C993 C998 1.350 1_455 S
C993 N1001 1.427 . S
C994 H985 0.930 . S
C994 C992 1.378 . S
C994 C995 1.367 . S
C995 C994 1.367 . S
C995 C997 1.433 1_455 S
C996 C992 1.350 . S
C996 C993 1.463 . S
C996 N1000 1.427 1_455 S
C997 H987 0.929 . S
C997 C995 1.433 1_655 S
C997 N1000 1.384 . S
C998 H989 0.929 . S
C998 C990 1.378 . S
C998 C993 1.350 1_655 S
C999 H986 0.929 . S
C999 C991 1.433 . S
C999 N1001 1.384 . S
N1000 C996 1.427 1_655 S
N1000 C997 1.384 . S
N1001 C993 1.427 . S
N1001 C999 1.384 . S
H1002 C1008 0.930 . S
H1003 C1012 0.930 . S
H1004 C1017 0.929 . S
H1005 C1015 0.929 . S
H1006 C1010 0.929 . S
H1007 C1016 0.929 . S
C1008 H1002 0.930 . S
C1008 C1009 1.367 . S
C1008 C1016 1.378 . S
C1009 C1008 1.367 . S
C1009 C1017 1.433 1_545 S
C1010 H1006 0.929 . S
C1010 C1012 1.378 . S
C1010 C1014 1.367 . S
C1011 C1014 1.462 1_545 S
C1011 C1016 1.350 . S
C1011 N1019 1.427 1_545 S
C1012 H1003 0.930 . S
C1012 C1010 1.378 . S
C1012 C1013 1.375 . S
C1013 C1012 1.375 . S
C1013 C1015 1.425 1_565 S
C1014 C1010 1.367 . S
C1014 C1011 1.462 1_565 S
C1014 N1018 1.410 1_565 S
C1015 H1005 0.929 . S
C1015 C1013 1.425 1_545 S
C1015 N1018 1.384 . S
C1016 H1007 0.929 . S
C1016 C1008 1.378 . S
C1016 C1011 1.350 . S
C1017 H1004 0.929 . S
C1017 C1009 1.433 1_565 S
C1017 N1019 1.384 . S
N1018 C1014 1.410 1_545 S
N1018 C1015 1.384 . S
N1019 C1011 1.427 1_565 S
N1019 C1017 1.384 . S
H1020 C1026 0.930 . S
H1021 C1030 0.930 . S
H1022 C1035 0.929 . S
H1023 C1033 0.929 . S
H1024 C1028 0.929 . S
H1025 C1034 0.929 . S
C1026 H1020 0.930 . S
C1026 C1027 1.367 . S
C1026 C1034 1.378 . S
C1027 C1026 1.367 . S
C1027 C1035 1.433 1_455 S
C1028 H1024 0.929 . S
C1028 C1030 1.378 . S
C1028 C1032 1.350 1_655 S
C1029 C1032 1.463 . S
C1029 C1034 1.350 . S
C1029 N1037 1.427 1_455 S
C1030 H1021 0.930 . S
C1030 C1028 1.378 . S
C1030 C1031 1.367 1_655 S
C1031 C1030 1.367 1_455 S
C1031 C1033 1.433 . S
C1032 C1028 1.350 1_455 S
C1032 C1029 1.463 . S
C1032 N1036 1.427 . S
C1033 H1023 0.929 . S
C1033 C1031 1.433 . S
C1033 N1036 1.384 . S
C1034 H1025 0.929 . S
C1034 C1026 1.378 . S
C1034 C1029 1.350 . S
C1035 H1022 0.929 . S
C1035 C1027 1.433 1_655 S
C1035 N1037 1.384 . S
N1036 C1032 1.427 . S
N1036 C1033 1.384 . S
N1037 C1029 1.427 1_655 S
N1037 C1035 1.384 . S
H1038 C1044 0.930 . S
H1039 C1048 0.930 . S
H1040 C1053 0.929 . S
H1041 C1051 0.929 . S
H1042 C1046 0.929 . S
H1043 C1052 0.929 . S
C1044 H1038 0.930 . S
C1044 C1045 1.367 . S
C1044 C1052 1.378 . S
C1045 C1044 1.367 . S
C1045 C1053 1.433 1_545 S
C1046 H1042 0.929 . S
C1046 C1048 1.378 . S
C1046 C1050 1.366 . S
C1047 C1050 1.462 1_545 S
C1047 C1052 1.350 . S
C1047 N1055 1.427 1_545 S
C1048 H1039 0.930 . S
C1048 C1046 1.378 . S
C1048 C1049 1.375 . S
C1049 C1048 1.375 . S
C1049 C1051 1.425 1_565 S
C1050 C1046 1.366 . S
C1050 C1047 1.462 1_565 S
C1050 N1054 1.411 1_565 S
C1051 H1041 0.929 . S
C1051 C1049 1.425 1_545 S
C1051 N1054 1.384 . S
C1052 H1043 0.929 . S
C1052 C1044 1.378 . S
C1052 C1047 1.350 . S
C1053 H1040 0.929 . S
C1053 C1045 1.433 1_565 S
C1053 N1055 1.384 . S
N1054 C1050 1.411 1_545 S
N1054 C1051 1.384 . S
N1055 C1047 1.427 1_565 S
N1055 C1053 1.384 . S
H1056 C1062 0.930 . S
H1057 C1066 0.930 . S
H1058 C1071 0.929 . S
H1059 C1069 0.929 . S
H1060 C1064 0.929 . S
H1061 C1070 0.929 . S
C1062 H1056 0.930 . S
C1062 C1063 1.367 1_655 S
C1062 C1070 1.378 . S
C1063 C1062 1.367 1_455 S
C1063 C1071 1.433 . S
C1064 H1060 0.929 . S
C1064 C1066 1.378 . S
C1064 C1068 1.350 . S
C1065 C1068 1.463 . S
C1065 C1070 1.350 1_455 S
C1065 N1073 1.427 . S
C1066 H1057 0.930 . S
C1066 C1064 1.378 . S
C1066 C1067 1.367 . S
C1067 C1066 1.367 . S
C1067 C1069 1.433 1_455 S
C1068 C1064 1.350 . S
C1068 C1065 1.463 . S
C1068 N1072 1.427 1_455 S
C1069 H1059 0.929 . S
C1069 C1067 1.433 1_655 S
C1069 N1072 1.384 . S
C1070 H1061 0.929 . S
C1070 C1062 1.378 . S
C1070 C1065 1.350 1_655 S
C1071 H1058 0.929 . S
C1071 C1063 1.433 . S
C1071 N1073 1.384 . S
N1072 C1068 1.427 1_655 S
N1072 C1069 1.384 . S
N1073 C1065 1.427 . S
N1073 C1071 1.384 . S
H1074 C1080 0.930 . S
H1075 C1084 0.930 . S
H1076 C1089 0.929 . S
H1077 C1087 0.929 . S
H1078 C1082 0.929 . S
H1079 C1088 0.929 . S
C1080 H1074 0.930 . S
C1080 C1081 1.367 . S
C1080 C1088 1.378 . S
C1081 C1080 1.367 . S
C1081 C1089 1.433 1_545 S
C1082 H1078 0.929 . S
C1082 C1084 1.378 . S
C1082 C1086 1.364 . S
C1083 C1086 1.462 1_545 S
C1083 C1088 1.350 . S
C1083 N1091 1.427 1_545 S
C1084 H1075 0.930 . S
C1084 C1082 1.378 . S
C1084 C1085 1.374 . S
C1085 C1084 1.374 . S
C1085 C1087 1.426 1_565 S
C1086 C1082 1.364 . S
C1086 C1083 1.462 1_565 S
C1086 N1090 1.413 1_565 S
C1087 H1077 0.929 . S
C1087 C1085 1.426 1_545 S
C1087 N1090 1.384 . S
C1088 H1079 0.929 . S
C1088 C1080 1.378 . S
C1088 C1083 1.350 . S
C1089 H1076 0.929 . S
C1089 C1081 1.433 1_565 S
C1089 N1091 1.384 . S
N1090 C1086 1.413 1_545 S
N1090 C1087 1.384 . S
N1091 C1083 1.427 1_565 S
N1091 C1089 1.384 . S
H1092 C1098 0.930 . S
H1093 C1102 0.930 . S
H1094 C1107 0.929 . S
H1095 C1105 0.929 . S
H1096 C1100 0.929 . S
H1097 C1106 0.929 . S
C1098 H1092 0.930 . S
C1098 C1099 1.367 . S
C1098 C1106 1.378 . S
C1099 C1098 1.367 . S
C1099 C1107 1.433 1_455 S
C1100 H1096 0.929 . S
C1100 C1102 1.378 . S
C1100 C1104 1.350 1_655 S
C1101 C1104 1.463 . S
C1101 C1106 1.350 . S
C1101 N1109 1.427 1_455 S
C1102 H1093 0.930 . S
C1102 C1100 1.378 . S
C1102 C1103 1.367 1_655 S
C1103 C1102 1.367 1_455 S
C1103 C1105 1.433 . S
C1104 C1100 1.350 1_455 S
C1104 C1101 1.463 . S
C1104 N1108 1.427 . S
C1105 H1095 0.929 . S
C1105 C1103 1.433 . S
C1105 N1108 1.384 . S
C1106 H1097 0.929 . S
C1106 C1098 1.378 . S
C1106 C1101 1.350 . S
C1107 H1094 0.929 . S
C1107 C1099 1.433 1_655 S
C1107 N1109 1.384 . S
N1108 C1104 1.427 . S
N1108 C1105 1.384 . S
N1109 C1101 1.427 1_655 S
N1109 C1107 1.384 . S
H1110 C1116 0.930 . S
H1111 C1120 0.930 . S
H1112 C1125 0.929 . S
H1113 C1123 0.929 . S
H1114 C1118 0.929 . S
H1115 C1124 0.929 . S
C1116 H1110 0.930 . S
C1116 C1117 1.367 . S
C1116 C1124 1.378 . S
C1117 C1116 1.367 . S
C1117 C1125 1.434 1_565 S
C1118 H1114 0.929 . S
C1118 C1120 1.378 . S
C1118 C1122 1.351 . S
C1119 C1122 1.462 1_565 S
C1119 C1124 1.350 . S
C1119 N1127 1.428 1_565 S
C1120 H1111 0.930 . S
C1120 C1118 1.378 . S
C1120 C1121 1.368 . S
C1121 C1120 1.368 . S
C1121 C1123 1.432 1_545 S
C1122 C1118 1.351 . S
C1122 C1119 1.462 1_545 S
C1122 N1126 1.426 1_545 S
C1123 H1113 0.929 . S
C1123 C1121 1.432 1_565 S
C1123 N1126 1.384 . S
C1124 H1115 0.929 . S
C1124 C1116 1.378 . S
C1124 C1119 1.350 . S
C1125 H1112 0.929 . S
C1125 C1117 1.434 1_545 S
C1125 N1127 1.384 . S
N1126 C1122 1.426 1_565 S
N1126 C1123 1.384 . S
N1127 C1119 1.428 1_545 S
N1127 C1125 1.384 . S
H1128 C1134 0.930 . S
H1129 C1138 0.930 . S
H1130 C1143 0.929 . S
H1131 C1141 0.929 . S
H1132 C1136 0.929 . S
H1133 C1142 0.929 . S
C1134 H1128 0.930 . S
C1134 C1135 1.367 . S
C1134 C1142 1.378 . S
C1135 C1134 1.367 . S
C1135 C1143 1.433 1_455 S
C1136 H1132 0.929 . S
C1136 C1138 1.378 . S
C1136 C1140 1.350 1_655 S
C1137 C1140 1.463 . S
C1137 C1142 1.350 . S
C1137 N1145 1.427 1_455 S
C1138 H1129 0.930 . S
C1138 C1136 1.378 . S
C1138 C1139 1.367 1_655 S
C1139 C1138 1.367 1_455 S
C1139 C1141 1.433 . S
C1140 C1136 1.350 1_455 S
C1140 C1137 1.463 . S
C1140 N1144 1.427 . S
C1141 H1131 0.929 . S
C1141 C1139 1.433 . S
C1141 N1144 1.384 . S
C1142 H1133 0.929 . S
C1142 C1134 1.378 . S
C1142 C1137 1.350 . S
C1143 H1130 0.929 . S
C1143 C1135 1.433 1_655 S
C1143 N1145 1.384 . S
N1144 C1140 1.427 . S
N1144 C1141 1.384 . S
N1145 C1137 1.427 1_655 S
N1145 C1143 1.384 . S
H1146 C1152 0.930 . S
H1147 C1156 0.930 . S
H1148 C1161 0.929 . S
H1149 C1159 0.929 . S
H1150 C1154 0.929 . S
H1151 C1160 0.929 . S
C1152 H1146 0.930 . S
C1152 C1153 1.382 . S
C1152 C1160 1.378 . S
C1153 C1152 1.382 . S
C1153 C1161 1.418 1_565 S
C1154 H1150 0.929 . S
C1154 C1156 1.378 . S
C1154 C1158 1.379 . S
C1155 C1158 1.461 1_565 S
C1155 C1160 1.372 . S
C1155 N1163 1.405 1_565 S
C1156 H1147 0.930 . S
C1156 C1154 1.378 . S
C1156 C1157 1.389 . S
C1157 C1156 1.389 . S
C1157 C1159 1.411 1_545 S
C1158 C1154 1.379 . S
C1158 C1155 1.461 1_545 S
C1158 N1162 1.399 1_545 S
C1159 H1149 0.929 . S
C1159 C1157 1.411 1_565 S
C1159 N1162 1.384 . S
C1160 H1151 0.929 . S
C1160 C1152 1.378 . S
C1160 C1155 1.372 . S
C1161 H1148 0.929 . S
C1161 C1153 1.418 1_545 S
C1161 N1163 1.384 . S
N1162 C1158 1.399 1_565 S
N1162 C1159 1.384 . S
N1163 C1155 1.405 1_545 S
N1163 C1161 1.384 . S
H1164 C1170 0.930 . S
H1165 C1174 0.930 . S
H1166 C1179 0.929 . S
H1167 C1177 0.929 . S
H1168 C1172 0.929 . S
H1169 C1178 0.929 . S
C1170 H1164 0.930 . S
C1170 C1171 1.368 . S
C1170 C1178 1.378 . S
C1171 C1170 1.368 . S
C1171 C1179 1.432 1_565 S
C1172 H1168 0.929 . S
C1172 C1174 1.378 . S
C1172 C1176 1.350 . S
C1173 C1176 1.462 1_565 S
C1173 C1178 1.365 . S
C1173 N1181 1.412 1_565 S
C1174 H1165 0.930 . S
C1174 C1172 1.378 . S
C1174 C1175 1.399 . S
C1175 C1174 1.399 . S
C1175 C1177 1.401 1_545 S
C1176 C1172 1.350 . S
C1176 C1173 1.462 1_545 S
C1176 N1180 1.427 1_545 S
C1177 H1167 0.929 . S
C1177 C1175 1.401 1_565 S
C1177 N1180 1.384 . S
C1178 H1169 0.929 . S
C1178 C1170 1.378 . S
C1178 C1173 1.365 . S
C1179 H1166 0.929 . S
C1179 C1171 1.432 1_545 S
C1179 N1181 1.384 . S
N1180 C1176 1.427 1_565 S
N1180 C1177 1.384 . S
N1181 C1173 1.412 1_545 S
N1181 C1179 1.384 . S
H1182 C1188 0.930 . S
H1183 C1192 0.944 . S
H1184 C1197 0.929 . S
H1185 C1195 0.929 . S
H1186 C1190 0.929 . S
H1187 C1196 0.929 . S
C1188 H1182 0.930 . S
C1188 C1189 1.367 . S
C1188 C1196 1.378 . S
C1189 C1188 1.367 . S
C1189 C1197 1.433 1_455 S
C1190 H1186 0.929 . S
C1190 C1192 1.379 . S
C1190 C1194 1.350 1_655 S
C1191 C1194 1.463 . S
C1191 C1196 1.350 . S
C1191 N1199 1.427 1_455 S
C1192 H1183 0.944 . S
C1192 C1190 1.379 . S
C1192 C1193 1.353 1_655 S
C1193 C1192 1.353 1_455 S
C1193 C1195 1.433 . S
C1194 C1190 1.350 1_455 S
C1194 C1191 1.463 . S
C1194 N1198 1.427 . S
C1195 H1185 0.929 . S
C1195 C1193 1.433 . S
C1195 N1198 1.384 . S
C1196 H1187 0.929 . S
C1196 C1188 1.378 . S
C1196 C1191 1.350 . S
C1197 H1184 0.929 . S
C1197 C1189 1.433 1_655 S
C1197 N1199 1.384 . S
N1198 C1194 1.427 . S
N1198 C1195 1.384 . S
N1199 C1191 1.427 1_655 S
N1199 C1197 1.384 . S
H1200 C1206 0.930 . S
H1201 C1210 0.930 . S
H1202 C1215 0.929 . S
H1203 C1213 0.929 . S
H1204 C1208 0.929 . S
H1205 C1214 0.929 . S
C1206 H1200 0.930 . S
C1206 C1207 1.364 1_565 S
C1206 C1214 1.378 . S
C1207 C1206 1.364 1_545 S
C1207 C1215 1.436 . S
C1208 H1204 0.929 . S
C1208 C1210 1.378 . S
C1208 C1212 1.355 . S
C1209 C1212 1.462 . S
C1209 C1214 1.349 1_545 S
C1209 N1217 1.428 . S
C1210 H1201 0.930 . S
C1210 C1208 1.378 . S
C1210 C1211 1.371 . S
C1211 C1210 1.371 . S
C1211 C1213 1.430 1_545 S
C1212 C1208 1.355 . S
C1212 C1209 1.462 . S
C1212 N1216 1.422 1_545 S
C1213 H1203 0.929 . S
C1213 C1211 1.430 1_565 S
C1213 N1216 1.384 . S
C1214 H1205 0.929 . S
C1214 C1206 1.378 . S
C1214 C1209 1.349 1_565 S
C1215 H1202 0.929 . S
C1215 C1207 1.436 . S
C1215 N1217 1.384 . S
N1216 C1212 1.422 1_565 S
N1216 C1213 1.384 . S
N1217 C1209 1.428 . S
N1217 C1215 1.384 . S
H1218 C1224 0.930 . S
H1219 C1228 0.930 . S
H1220 C1233 0.929 . S
H1221 C1231 0.929 . S
H1222 C1226 0.929 . S
H1223 C1232 0.929 . S
C1224 H1218 0.930 . S
C1224 C1225 1.367 . S
C1224 C1232 1.378 . S
C1225 C1224 1.367 . S
C1225 C1233 1.433 1_455 S
C1226 H1222 0.929 . S
C1226 C1228 1.378 . S
C1226 C1230 1.350 1_655 S
C1227 C1230 1.463 . S
C1227 C1232 1.350 . S
C1227 N1235 1.427 1_455 S
C1228 H1219 0.930 . S
C1228 C1226 1.378 . S
C1228 C1229 1.367 1_655 S
C1229 C1228 1.367 1_455 S
C1229 C1231 1.433 . S
C1230 C1226 1.350 1_455 S
C1230 C1227 1.463 . S
C1230 N1234 1.427 . S
C1231 H1221 0.929 . S
C1231 C1229 1.433 . S
C1231 N1234 1.384 . S
C1232 H1223 0.929 . S
C1232 C1224 1.378 . S
C1232 C1227 1.350 . S
C1233 H1220 0.929 . S
C1233 C1225 1.433 1_655 S
C1233 N1235 1.384 . S
N1234 C1230 1.427 . S
N1234 C1231 1.384 . S
N1235 C1227 1.427 1_655 S
N1235 C1233 1.384 . S
H1236 C1242 0.930 . S
H1237 C1246 0.930 . S
H1238 C1251 0.929 . S
H1239 C1249 0.929 . S
H1240 C1244 0.929 . S
H1241 C1250 0.929 . S
C1242 H1236 0.930 . S
C1242 C1243 1.380 . S
C1242 C1250 1.378 . S
C1243 C1242 1.380 . S
C1243 C1251 1.420 1_565 S
C1244 H1240 0.929 . S
C1244 C1246 1.378 . S
C1244 C1248 1.385 . S
C1245 C1248 1.460 1_565 S
C1245 C1250 1.371 . S
C1245 N1253 1.406 1_565 S
C1246 H1237 0.930 . S
C1246 C1244 1.378 . S
C1246 C1247 1.394 . S
C1247 C1246 1.394 . S
C1247 C1249 1.406 1_545 S
C1248 C1244 1.385 . S
C1248 C1245 1.460 1_545 S
C1248 N1252 1.392 1_545 S
C1249 H1239 0.929 . S
C1249 C1247 1.406 1_565 S
C1249 N1252 1.384 . S
C1250 H1241 0.929 . S
C1250 C1242 1.378 . S
C1250 C1245 1.371 . S
C1251 H1238 0.929 . S
C1251 C1243 1.420 1_545 S
C1251 N1253 1.384 . S
N1252 C1248 1.392 1_565 S
N1252 C1249 1.384 . S
N1253 C1245 1.406 1_545 S
N1253 C1251 1.384 . S
H1254 C1260 0.930 . S
H1255 C1264 0.930 . S
H1256 C1269 0.929 . S
H1257 C1267 0.929 . S
H1258 C1262 0.929 . S
H1259 C1268 0.929 . S
C1260 H1254 0.930 . S
C1260 C1261 1.367 . S
C1260 C1268 1.378 . S
C1261 C1260 1.367 . S
C1261 C1269 1.433 1_455 S
C1262 H1258 0.929 . S
C1262 C1264 1.378 . S
C1262 C1266 1.350 1_655 S
C1263 C1266 1.463 . S
C1263 C1268 1.350 . S
C1263 N1271 1.427 1_455 S
C1264 H1255 0.930 . S
C1264 C1262 1.378 . S
C1264 C1265 1.367 1_655 S
C1265 C1264 1.367 1_455 S
C1265 C1267 1.433 . S
C1266 C1262 1.350 1_455 S
C1266 C1263 1.463 . S
C1266 N1270 1.427 . S
C1267 H1257 0.929 . S
C1267 C1265 1.433 . S
C1267 N1270 1.384 . S
C1268 H1259 0.929 . S
C1268 C1260 1.378 . S
C1268 C1263 1.350 . S
C1269 H1256 0.929 . S
C1269 C1261 1.433 1_655 S
C1269 N1271 1.384 . S
N1270 C1266 1.427 . S
N1270 C1267 1.384 . S
N1271 C1263 1.427 1_655 S
N1271 C1269 1.384 . S
H1272 C1278 0.930 . S
H1273 C1282 0.930 . S
H1274 C1287 0.929 . S
H1275 C1285 0.929 . S
H1276 C1280 0.929 . S
H1277 C1286 0.929 . S
C1278 H1272 0.930 . S
C1278 C1279 1.382 . S
C1278 C1286 1.378 . S
C1279 C1278 1.382 . S
C1279 C1287 1.418 1_545 S
C1280 H1276 0.929 . S
C1280 C1282 1.378 . S
C1280 C1284 1.370 . S
C1281 C1284 1.461 1_545 S
C1281 C1286 1.375 . S
C1281 N1289 1.402 1_545 S
C1282 H1273 0.930 . S
C1282 C1280 1.378 . S
C1282 C1283 1.377 . S
C1283 C1282 1.377 . S
C1283 C1285 1.423 1_565 S
C1284 C1280 1.370 . S
C1284 C1281 1.461 1_565 S
C1284 N1288 1.407 1_565 S
C1285 H1275 0.929 . S
C1285 C1283 1.423 1_545 S
C1285 N1288 1.384 . S
C1286 H1277 0.929 . S
C1286 C1278 1.378 . S
C1286 C1281 1.375 . S
C1287 H1274 0.929 . S
C1287 C1279 1.418 1_565 S
C1287 N1289 1.384 . S
N1288 C1284 1.407 1_545 S
N1288 C1285 1.384 . S
N1289 C1281 1.402 1_565 S
N1289 C1287 1.384 . S
H1290 C1296 0.930 . S
H1291 C1300 0.930 . S
H1292 C1305 0.929 . S
H1293 C1303 0.929 . S
H1294 C1298 0.929 . S
H1295 C1304 0.929 . S
C1296 H1290 0.930 . S
C1296 C1297 1.367 1_655 S
C1296 C1304 1.378 . S
C1297 C1296 1.367 1_455 S
C1297 C1305 1.433 . S
C1298 H1294 0.929 . S
C1298 C1300 1.378 . S
C1298 C1302 1.350 . S
C1299 C1302 1.463 . S
C1299 C1304 1.350 1_455 S
C1299 N1307 1.427 . S
C1300 H1291 0.930 . S
C1300 C1298 1.378 . S
C1300 C1301 1.367 . S
C1301 C1300 1.367 . S
C1301 C1303 1.433 1_455 S
C1302 C1298 1.350 . S
C1302 C1299 1.463 . S
C1302 N1306 1.427 1_455 S
C1303 H1293 0.929 . S
C1303 C1301 1.433 1_655 S
C1303 N1306 1.384 . S
C1304 H1295 0.929 . S
C1304 C1296 1.378 . S
C1304 C1299 1.350 1_655 S
C1305 H1292 0.929 . S
C1305 C1297 1.433 . S
C1305 N1307 1.384 . S
N1306 C1302 1.427 1_655 S
N1306 C1303 1.384 . S
N1307 C1299 1.427 . S
N1307 C1305 1.384 . S
H1308 C1314 0.930 . S
H1309 C1318 0.930 . S
H1310 C1323 0.929 . S
H1311 C1321 0.929 . S
H1312 C1316 0.929 . S
H1313 C1322 0.929 . S
C1314 H1308 0.930 . S
C1314 C1315 1.367 . S
C1314 C1322 1.378 . S
C1315 C1314 1.367 . S
C1315 C1323 1.433 . S
C1316 H1312 0.929 . S
C1316 C1318 1.378 . S
C1316 C1320 1.350 . S
C1317 C1320 1.463 . S
C1317 C1322 1.350 . S
C1317 N1325 1.427 . S
C1318 H1309 0.930 . S
C1318 C1316 1.378 . S
C1318 C1319 1.367 . S
C1319 C1318 1.367 . S
C1319 C1321 1.433 . S
C1320 C1316 1.350 . S
C1320 C1317 1.463 . S
C1320 N1324 1.427 . S
C1321 H1311 0.929 . S
C1321 C1319 1.433 . S
C1321 N1324 1.384 . S
C1322 H1313 0.929 . S
C1322 C1314 1.378 . S
C1322 C1317 1.350 . S
C1323 H1310 0.929 . S
C1323 C1315 1.433 . S
C1323 N1325 1.384 . S
N1324 C1320 1.427 . S
N1324 C1321 1.384 . S
N1325 C1317 1.427 . S
N1325 C1323 1.384 . S
H1326 C1332 0.930 . S
H1327 C1336 0.930 . S
H1328 C1341 0.929 . S
H1329 C1339 0.929 . S
H1330 C1334 0.929 . S
H1331 C1340 0.929 . S
C1332 H1326 0.930 . S
C1332 C1333 1.367 . S
C1332 C1340 1.378 . S
C1333 C1332 1.367 . S
C1333 C1341 1.433 1_554 S
C1334 H1330 0.929 . S
C1334 C1336 1.378 . S
C1334 C1338 1.350 1_556 S
C1335 C1338 1.463 . S
C1335 C1340 1.350 . S
C1335 N1343 1.427 1_554 S
C1336 H1327 0.930 . S
C1336 C1334 1.378 . S
C1336 C1337 1.367 1_556 S
C1337 C1336 1.367 1_554 S
C1337 C1339 1.433 . S
C1338 C1334 1.350 1_554 S
C1338 C1335 1.463 . S
C1338 N1342 1.427 . S
C1339 H1329 0.929 . S
C1339 C1337 1.433 . S
C1339 N1342 1.384 . S
C1340 H1331 0.929 . S
C1340 C1332 1.378 . S
C1340 C1335 1.350 . S
C1341 H1328 0.929 . S
C1341 C1333 1.433 1_556 S
C1341 N1343 1.384 . S
N1342 C1338 1.427 . S
N1342 C1339 1.384 . S
N1343 C1335 1.427 1_556 S
N1343 C1341 1.384 . S
H1344 C1350 0.930 . S
H1345 C1354 0.930 . S
H1346 C1359 0.929 . S
H1347 C1357 0.929 . S
H1348 C1352 0.929 . S
H1349 C1358 0.929 . S
C1350 H1344 0.930 . S
C1350 C1351 1.367 . S
C1350 C1358 1.378 . S
C1351 C1350 1.367 . S
C1351 C1359 1.433 1_554 S
C1352 H1348 0.929 . S
C1352 C1354 1.378 . S
C1352 C1356 1.350 1_556 S
C1353 C1356 1.463 . S
C1353 C1358 1.350 . S
C1353 N1361 1.427 1_554 S
C1354 H1345 0.930 . S
C1354 C1352 1.378 . S
C1354 C1355 1.367 1_556 S
C1355 C1354 1.367 1_554 S
C1355 C1357 1.433 . S
C1356 C1352 1.350 1_554 S
C1356 C1353 1.463 . S
C1356 N1360 1.427 . S
C1357 H1347 0.929 . S
C1357 C1355 1.433 . S
C1357 N1360 1.384 . S
C1358 H1349 0.929 . S
C1358 C1350 1.378 . S
C1358 C1353 1.350 . S
C1359 H1346 0.929 . S
C1359 C1351 1.433 1_556 S
C1359 N1361 1.384 . S
N1360 C1356 1.427 . S
N1360 C1357 1.384 . S
N1361 C1353 1.427 1_556 S
N1361 C1359 1.384 . S
H1362 C1368 0.930 . S
H1363 C1372 0.930 . S
H1364 C1377 0.929 . S
H1365 C1375 0.929 . S
H1366 C1370 0.929 . S
H1367 C1376 0.929 . S
C1368 H1362 0.930 . S
C1368 C1369 1.367 . S
C1368 C1376 1.378 . S
C1369 C1368 1.367 . S
C1369 C1377 1.433 1_554 S
C1370 H1366 0.929 . S
C1370 C1372 1.378 . S
C1370 C1374 1.350 1_556 S
C1371 C1374 1.463 . S
C1371 C1376 1.350 . S
C1371 N1379 1.427 1_554 S
C1372 H1363 0.930 . S
C1372 C1370 1.378 . S
C1372 C1373 1.367 1_556 S
C1373 C1372 1.367 1_554 S
C1373 C1375 1.433 . S
C1374 C1370 1.350 1_554 S
C1374 C1371 1.463 . S
C1374 N1378 1.427 . S
C1375 H1365 0.929 . S
C1375 C1373 1.433 . S
C1375 N1378 1.384 . S
C1376 H1367 0.929 . S
C1376 C1368 1.378 . S
C1376 C1371 1.350 . S
C1377 H1364 0.929 . S
C1377 C1369 1.433 1_556 S
C1377 N1379 1.384 . S
N1378 C1374 1.427 . S
N1378 C1375 1.384 . S
N1379 C1371 1.427 1_556 S
N1379 C1377 1.384 . S
H1380 C1386 0.930 . S
H1381 C1390 0.930 . S
H1382 C1395 0.924 1_556 S
H1383 C1393 0.929 . S
H1384 C1388 0.939 . S
H1385 C1394 0.929 . S
C1386 H1380 0.930 . S
C1386 C1387 1.367 . S
C1386 C1394 1.378 . S
C1387 C1386 1.367 . S
C1387 C1395 1.440 . S
C1388 H1384 0.939 . S
C1388 C1390 1.379 . S
C1388 C1392 1.340 1_556 S
C1389 C1392 1.463 . S
C1389 C1394 1.350 . S
C1389 N1397 1.428 . S
C1390 H1381 0.930 . S
C1390 C1388 1.379 . S
C1390 C1391 1.367 1_556 S
C1391 C1390 1.367 1_554 S
C1391 C1393 1.433 . S
C1392 C1388 1.340 1_554 S
C1392 C1389 1.463 . S
C1392 N1396 1.427 . S
C1393 H1383 0.929 . S
C1393 C1391 1.433 . S
C1393 N1396 1.384 . S
C1394 H1385 0.929 . S
C1394 C1386 1.378 . S
C1394 C1389 1.350 . S
C1395 H1382 0.924 1_554 S
C1395 C1387 1.440 . S
C1395 N1397 1.383 . S
N1396 C1392 1.427 . S
N1396 C1393 1.384 . S
N1397 C1389 1.428 . S
N1397 C1395 1.383 . S
H1398 C1404 0.930 . S
H1399 C1408 0.930 . S
H1400 C1413 0.929 . S
H1401 C1411 0.929 . S
H1402 C1406 0.929 . S
H1403 C1412 0.929 . S
C1404 H1398 0.930 . S
C1404 C1405 1.367 . S
C1404 C1412 1.378 . S
C1405 C1404 1.367 . S
C1405 C1413 1.433 1_554 S
C1406 H1402 0.929 . S
C1406 C1408 1.378 . S
C1406 C1410 1.350 1_556 S
C1407 C1410 1.463 . S
C1407 C1412 1.350 . S
C1407 N1415 1.427 1_554 S
C1408 H1399 0.930 . S
C1408 C1406 1.378 . S
C1408 C1409 1.367 1_556 S
C1409 C1408 1.367 1_554 S
C1409 C1411 1.433 . S
C1410 C1406 1.350 1_554 S
C1410 C1407 1.463 . S
C1410 N1414 1.427 . S
C1411 H1401 0.929 . S
C1411 C1409 1.433 . S
C1411 N1414 1.384 . S
C1412 H1403 0.929 . S
C1412 C1404 1.378 . S
C1412 C1407 1.350 . S
C1413 H1400 0.929 . S
C1413 C1405 1.433 1_556 S
C1413 N1415 1.384 . S
N1414 C1410 1.427 . S
N1414 C1411 1.384 . S
N1415 C1407 1.427 1_556 S
N1415 C1413 1.384 . S
H1416 C1422 0.930 . S
H1417 C1426 0.930 . S
H1418 C1431 0.929 . S
H1419 C1429 0.929 . S
H1420 C1424 0.929 . S
H1421 C1430 0.929 . S
C1422 H1416 0.930 . S
C1422 C1423 1.367 1_556 S
C1422 C1430 1.378 . S
C1423 C1422 1.367 1_554 S
C1423 C1431 1.433 . S
C1424 H1420 0.929 . S
C1424 C1426 1.378 . S
C1424 C1428 1.350 . S
C1425 C1428 1.463 . S
C1425 C1430 1.350 1_554 S
C1425 N1433 1.427 . S
C1426 H1417 0.930 . S
C1426 C1424 1.378 . S
C1426 C1427 1.367 . S
C1427 C1426 1.367 . S
C1427 C1429 1.433 1_554 S
C1428 C1424 1.350 . S
C1428 C1425 1.463 . S
C1428 N1432 1.427 1_554 S
C1429 H1419 0.929 . S
C1429 C1427 1.433 1_556 S
C1429 N1432 1.384 . S
C1430 H1421 0.929 . S
C1430 C1422 1.378 . S
C1430 C1425 1.350 1_556 S
C1431 H1418 0.929 . S
C1431 C1423 1.433 . S
C1431 N1433 1.384 . S
N1432 C1428 1.427 1_556 S
N1432 C1429 1.384 . S
N1433 C1425 1.427 . S
N1433 C1431 1.384 . S
H1434 C1440 0.930 . S
H1435 C1444 0.930 . S
H1436 C1449 0.929 . S
H1437 C1447 0.929 . S
H1438 C1442 0.929 . S
H1439 C1448 0.929 . S
C1440 H1434 0.930 . S
C1440 C1441 1.367 1_556 S
C1440 C1448 1.378 . S
C1441 C1440 1.367 1_554 S
C1441 C1449 1.433 . S
C1442 H1438 0.929 . S
C1442 C1444 1.378 . S
C1442 C1446 1.350 . S
C1443 C1446 1.463 . S
C1443 C1448 1.350 1_554 S
C1443 N1451 1.427 . S
C1444 H1435 0.930 . S
C1444 C1442 1.378 . S
C1444 C1445 1.367 . S
C1445 C1444 1.367 . S
C1445 C1447 1.433 1_554 S
C1446 C1442 1.350 . S
C1446 C1443 1.463 . S
C1446 N1450 1.427 1_554 S
C1447 H1437 0.929 . S
C1447 C1445 1.433 1_556 S
C1447 N1450 1.384 . S
C1448 H1439 0.929 . S
C1448 C1440 1.378 . S
C1448 C1443 1.350 1_556 S
C1449 H1436 0.929 . S
C1449 C1441 1.433 . S
C1449 N1451 1.384 . S
N1450 C1446 1.427 1_556 S
N1450 C1447 1.384 . S
N1451 C1443 1.427 . S
N1451 C1449 1.384 . S
H1452 C1458 0.930 . S
H1453 C1462 0.930 . S
H1454 C1467 0.929 . S
H1455 C1465 0.929 . S
H1456 C1460 0.929 . S
H1457 C1466 0.929 . S
C1458 H1452 0.930 . S
C1458 C1459 1.367 . S
C1458 C1466 1.378 . S
C1459 C1458 1.367 . S
C1459 C1467 1.433 . S
C1460 H1456 0.929 . S
C1460 C1462 1.378 . S
C1460 C1464 1.350 . S
C1461 C1464 1.463 . S
C1461 C1466 1.350 . S
C1461 N1469 1.427 . S
C1462 H1453 0.930 . S
C1462 C1460 1.378 . S
C1462 C1463 1.367 . S
C1463 C1462 1.367 . S
C1463 C1465 1.433 . S
C1464 C1460 1.350 . S
C1464 C1461 1.463 . S
C1464 N1468 1.427 . S
C1465 H1455 0.929 . S
C1465 C1463 1.433 . S
C1465 N1468 1.384 . S
C1466 H1457 0.929 . S
C1466 C1458 1.378 . S
C1466 C1461 1.350 . S
C1467 H1454 0.929 . S
C1467 C1459 1.433 . S
C1467 N1469 1.384 . S
N1468 C1464 1.427 . S
N1468 C1465 1.384 . S
N1469 C1461 1.427 . S
N1469 C1467 1.384 . S
H1470 C1476 0.930 . S
H1471 C1480 0.930 . S
H1472 C1485 0.929 . S
H1473 C1483 0.929 . S
H1474 C1478 0.929 . S
H1475 C1484 0.929 . S
C1476 H1470 0.930 . S
C1476 C1477 1.367 . S
C1476 C1484 1.378 . S
C1477 C1476 1.367 . S
C1477 C1485 1.433 . S
C1478 H1474 0.929 . S
C1478 C1480 1.378 . S
C1478 C1482 1.350 . S
C1479 C1482 1.463 . S
C1479 C1484 1.350 . S
C1479 N1487 1.427 . S
C1480 H1471 0.930 . S
C1480 C1478 1.378 . S
C1480 C1481 1.367 . S
C1481 C1480 1.367 . S
C1481 C1483 1.433 . S
C1482 C1478 1.350 . S
C1482 C1479 1.463 . S
C1482 N1486 1.427 . S
C1483 H1473 0.929 . S
C1483 C1481 1.433 . S
C1483 N1486 1.384 . S
C1484 H1475 0.929 . S
C1484 C1476 1.378 . S
C1484 C1479 1.350 . S
C1485 H1472 0.929 . S
C1485 C1477 1.433 . S
C1485 N1487 1.384 . S
N1486 C1482 1.427 . S
N1486 C1483 1.384 . S
N1487 C1479 1.427 . S
N1487 C1485 1.384 . S
H1488 C1494 0.930 . S
H1489 C1498 0.930 . S
H1490 C1503 0.929 . S
H1491 C1501 0.929 . S
H1492 C1496 0.929 . S
H1493 C1502 0.929 . S
C1494 H1488 0.930 . S
C1494 C1495 1.367 . S
C1494 C1502 1.378 . S
C1495 C1494 1.367 . S
C1495 C1503 1.433 . S
C1496 H1492 0.929 . S
C1496 C1498 1.378 . S
C1496 C1500 1.350 . S
C1497 C1500 1.463 . S
C1497 C1502 1.350 . S
C1497 N1505 1.427 . S
C1498 H1489 0.930 . S
C1498 C1496 1.378 . S
C1498 C1499 1.367 . S
C1499 C1498 1.367 . S
C1499 C1501 1.433 . S
C1500 C1496 1.350 . S
C1500 C1497 1.463 . S
C1500 N1504 1.427 . S
C1501 H1491 0.929 . S
C1501 C1499 1.433 . S
C1501 N1504 1.384 . S
C1502 H1493 0.929 . S
C1502 C1494 1.378 . S
C1502 C1497 1.350 . S
C1503 H1490 0.929 . S
C1503 C1495 1.433 . S
C1503 N1505 1.384 . S
N1504 C1500 1.427 . S
N1504 C1501 1.384 . S
N1505 C1497 1.427 . S
N1505 C1503 1.384 . S
H1506 C1512 0.930 . S
H1507 C1516 0.930 . S
H1508 C1521 0.929 . S
H1509 C1519 0.929 . S
H1510 C1514 0.929 . S
H1511 C1520 0.929 . S
C1512 H1506 0.930 . S
C1512 C1513 1.367 . S
C1512 C1520 1.378 . S
C1513 C1512 1.367 . S
C1513 C1521 1.433 . S
C1514 H1510 0.929 . S
C1514 C1516 1.378 . S
C1514 C1518 1.350 . S
C1515 C1518 1.463 . S
C1515 C1520 1.350 . S
C1515 N1523 1.427 . S
C1516 H1507 0.930 . S
C1516 C1514 1.378 . S
C1516 C1517 1.367 . S
C1517 C1516 1.367 . S
C1517 C1519 1.433 . S
C1518 C1514 1.350 . S
C1518 C1515 1.463 . S
C1518 N1522 1.427 . S
C1519 H1509 0.929 . S
C1519 C1517 1.433 . S
C1519 N1522 1.384 . S
C1520 H1511 0.929 . S
C1520 C1512 1.378 . S
C1520 C1515 1.350 . S
C1521 H1508 0.929 . S
C1521 C1513 1.433 . S
C1521 N1523 1.384 . S
N1522 C1518 1.427 . S
N1522 C1519 1.384 . S
N1523 C1515 1.427 . S
N1523 C1521 1.384 . S
H1524 C1530 0.930 . S
H1525 C1534 0.930 . S
H1526 C1539 0.929 . S
H1527 C1537 0.929 . S
H1528 C1532 0.929 . S
H1529 C1538 0.929 . S
C1530 H1524 0.930 . S
C1530 C1531 1.367 . S
C1530 C1538 1.378 . S
C1531 C1530 1.367 . S
C1531 C1539 1.433 . S
C1532 H1528 0.929 . S
C1532 C1534 1.378 . S
C1532 C1536 1.350 . S
C1533 C1536 1.463 . S
C1533 C1538 1.350 . S
C1533 N1541 1.427 . S
C1534 H1525 0.930 . S
C1534 C1532 1.378 . S
C1534 C1535 1.367 . S
C1535 C1534 1.367 . S
C1535 C1537 1.433 . S
C1536 C1532 1.350 . S
C1536 C1533 1.463 . S
C1536 N1540 1.427 . S
C1537 H1527 0.929 . S
C1537 C1535 1.433 . S
C1537 N1540 1.384 . S
C1538 H1529 0.929 . S
C1538 C1530 1.378 . S
C1538 C1533 1.350 . S
C1539 H1526 0.929 . S
C1539 C1531 1.433 . S
C1539 N1541 1.384 . S
N1540 C1536 1.427 . S
N1540 C1537 1.384 . S
N1541 C1533 1.427 . S
N1541 C1539 1.384 . S
H1542 C1548 0.930 . S
H1543 C1552 0.930 . S
H1544 C1557 0.929 . S
H1545 C1555 0.929 . S
H1546 C1550 0.929 . S
H1547 C1556 0.929 . S
C1548 H1542 0.930 . S
C1548 C1549 1.367 . S
C1548 C1556 1.378 . S
C1549 C1548 1.367 . S
C1549 C1557 1.433 . S
C1550 H1546 0.929 . S
C1550 C1552 1.378 . S
C1550 C1554 1.350 . S
C1551 C1554 1.463 . S
C1551 C1556 1.350 . S
C1551 N1559 1.427 . S
C1552 H1543 0.930 . S
C1552 C1550 1.378 . S
C1552 C1553 1.367 . S
C1553 C1552 1.367 . S
C1553 C1555 1.433 . S
C1554 C1550 1.350 . S
C1554 C1551 1.463 . S
C1554 N1558 1.427 . S
C1555 H1545 0.929 . S
C1555 C1553 1.433 . S
C1555 N1558 1.384 . S
C1556 H1547 0.929 . S
C1556 C1548 1.378 . S
C1556 C1551 1.350 . S
C1557 H1544 0.929 . S
C1557 C1549 1.433 . S
C1557 N1559 1.384 . S
N1558 C1554 1.427 . S
N1558 C1555 1.384 . S
N1559 C1551 1.427 . S
N1559 C1557 1.384 . S
H1560 C1566 0.930 . S
H1561 C1570 0.930 . S
H1562 C1575 0.929 . S
H1563 C1573 0.929 . S
H1564 C1568 0.929 . S
H1565 C1574 0.929 . S
C1566 H1560 0.930 . S
C1566 C1567 1.367 . S
C1566 C1574 1.378 . S
C1567 C1566 1.367 . S
C1567 C1575 1.433 . S
C1568 H1564 0.929 . S
C1568 C1570 1.378 . S
C1568 C1572 1.350 . S
C1569 C1572 1.463 . S
C1569 C1574 1.350 . S
C1569 N1577 1.427 . S
C1570 H1561 0.930 . S
C1570 C1568 1.378 . S
C1570 C1571 1.367 . S
C1571 C1570 1.367 . S
C1571 C1573 1.433 . S
C1572 C1568 1.350 . S
C1572 C1569 1.463 . S
C1572 N1576 1.427 . S
C1573 H1563 0.929 . S
C1573 C1571 1.433 . S
C1573 N1576 1.384 . S
C1574 H1565 0.929 . S
C1574 C1566 1.378 . S
C1574 C1569 1.350 . S
C1575 H1562 0.929 . S
C1575 C1567 1.433 . S
C1575 N1577 1.384 . S
N1576 C1572 1.427 . S
N1576 C1573 1.384 . S
N1577 C1569 1.427 . S
N1577 C1575 1.384 . S
H1578 C1584 0.930 . S
H1579 C1588 0.930 . S
H1580 C1593 0.929 . S
H1581 C1591 0.929 . S
H1582 C1586 0.929 . S
H1583 C1592 0.929 . S
C1584 H1578 0.930 . S
C1584 C1585 1.367 . S
C1584 C1592 1.378 . S
C1585 C1584 1.367 . S
C1585 C1593 1.433 . S
C1586 H1582 0.929 . S
C1586 C1588 1.378 . S
C1586 C1590 1.350 . S
C1587 C1590 1.463 . S
C1587 C1592 1.350 . S
C1587 N1595 1.427 . S
C1588 H1579 0.930 . S
C1588 C1586 1.378 . S
C1588 C1589 1.367 . S
C1589 C1588 1.367 . S
C1589 C1591 1.433 . S
C1590 C1586 1.350 . S
C1590 C1587 1.463 . S
C1590 N1594 1.427 . S
C1591 H1581 0.929 . S
C1591 C1589 1.433 . S
C1591 N1594 1.384 . S
C1592 H1583 0.929 . S
C1592 C1584 1.378 . S
C1592 C1587 1.350 . S
C1593 H1580 0.929 . S
C1593 C1585 1.433 . S
C1593 N1595 1.384 . S
N1594 C1590 1.427 . S
N1594 C1591 1.384 . S
N1595 C1587 1.427 . S
N1595 C1593 1.384 . S
H1596 C1602 0.930 . S
H1597 C1606 0.930 . S
H1598 C1611 0.929 . S
H1599 C1609 0.929 . S
H1600 C1604 0.929 . S
H1601 C1610 0.929 . S
C1602 H1596 0.930 . S
C1602 C1603 1.367 . S
C1602 C1610 1.378 . S
C1603 C1602 1.367 . S
C1603 C1611 1.433 . S
C1604 H1600 0.929 . S
C1604 C1606 1.378 . S
C1604 C1608 1.350 . S
C1605 C1608 1.463 . S
C1605 C1610 1.350 . S
C1605 N1613 1.427 . S
C1606 H1597 0.930 . S
C1606 C1604 1.378 . S
C1606 C1607 1.367 . S
C1607 C1606 1.367 . S
C1607 C1609 1.433 . S
C1608 C1604 1.350 . S
C1608 C1605 1.463 . S
C1608 N1612 1.427 . S
C1609 H1599 0.929 . S
C1609 C1607 1.433 . S
C1609 N1612 1.384 . S
C1610 H1601 0.929 . S
C1610 C1602 1.378 . S
C1610 C1605 1.350 . S
C1611 H1598 0.929 . S
C1611 C1603 1.433 . S
C1611 N1613 1.384 . S
N1612 C1608 1.427 . S
N1612 C1609 1.384 . S
N1613 C1605 1.427 . S
N1613 C1611 1.384 . S
H1614 C1620 0.930 . S
H1615 C1624 0.930 . S
H1616 C1629 0.929 . S
H1617 C1627 0.929 . S
H1618 C1622 0.929 . S
H1619 C1628 0.929 . S
C1620 H1614 0.930 . S
C1620 C1621 1.367 . S
C1620 C1628 1.378 . S
C1621 C1620 1.367 . S
C1621 C1629 1.433 . S
C1622 H1618 0.929 . S
C1622 C1624 1.378 . S
C1622 C1626 1.350 . S
C1623 C1626 1.463 . S
C1623 C1628 1.350 . S
C1623 N1631 1.427 . S
C1624 H1615 0.930 . S
C1624 C1622 1.378 . S
C1624 C1625 1.367 . S
C1625 C1624 1.367 . S
C1625 C1627 1.433 . S
C1626 C1622 1.350 . S
C1626 C1623 1.463 . S
C1626 N1630 1.427 . S
C1627 H1617 0.929 . S
C1627 C1625 1.433 . S
C1627 N1630 1.384 . S
C1628 H1619 0.929 . S
C1628 C1620 1.378 . S
C1628 C1623 1.350 . S
C1629 H1616 0.929 . S
C1629 C1621 1.433 . S
C1629 N1631 1.384 . S
N1630 C1626 1.427 . S
N1630 C1627 1.384 . S
N1631 C1623 1.427 . S
N1631 C1629 1.384 . S
H1632 C1638 0.930 . S
H1633 C1642 0.930 . S
H1634 C1647 0.929 . S
H1635 C1645 0.929 . S
H1636 C1640 0.929 . S
H1637 C1646 0.929 . S
C1638 H1632 0.930 . S
C1638 C1639 1.367 . S
C1638 C1646 1.378 . S
C1639 C1638 1.367 . S
C1639 C1647 1.433 . S
C1640 H1636 0.929 . S
C1640 C1642 1.378 . S
C1640 C1644 1.350 . S
C1641 C1644 1.463 . S
C1641 C1646 1.350 . S
C1641 N1649 1.427 . S
C1642 H1633 0.930 . S
C1642 C1640 1.378 . S
C1642 C1643 1.367 . S
C1643 C1642 1.367 . S
C1643 C1645 1.433 . S
C1644 C1640 1.350 . S
C1644 C1641 1.463 . S
C1644 N1648 1.427 . S
C1645 H1635 0.929 . S
C1645 C1643 1.433 . S
C1645 N1648 1.384 . S
C1646 H1637 0.929 . S
C1646 C1638 1.378 . S
C1646 C1641 1.350 . S
C1647 H1634 0.929 . S
C1647 C1639 1.433 . S
C1647 N1649 1.384 . S
N1648 C1644 1.427 . S
N1648 C1645 1.384 . S
N1649 C1641 1.427 . S
N1649 C1647 1.384 . S
H1650 C1656 0.930 . S
H1651 C1660 0.930 . S
H1652 C1665 0.929 . S
H1653 C1663 0.929 . S
H1654 C1658 0.929 . S
H1655 C1664 0.929 . S
C1656 H1650 0.930 . S
C1656 C1657 1.367 . S
C1656 C1664 1.378 . S
C1657 C1656 1.367 . S
C1657 C1665 1.433 . S
C1658 H1654 0.929 . S
C1658 C1660 1.378 . S
C1658 C1662 1.350 . S
C1659 C1662 1.463 . S
C1659 C1664 1.350 . S
C1659 N1667 1.427 . S
C1660 H1651 0.930 . S
C1660 C1658 1.378 . S
C1660 C1661 1.367 . S
C1661 C1660 1.367 . S
C1661 C1663 1.433 . S
C1662 C1658 1.350 . S
C1662 C1659 1.463 . S
C1662 N1666 1.427 . S
C1663 H1653 0.929 . S
C1663 C1661 1.433 . S
C1663 N1666 1.384 . S
C1664 H1655 0.929 . S
C1664 C1656 1.378 . S
C1664 C1659 1.350 . S
C1665 H1652 0.929 . S
C1665 C1657 1.433 . S
C1665 N1667 1.384 . S
N1666 C1662 1.427 . S
N1666 C1663 1.384 . S
N1667 C1659 1.427 . S
N1667 C1665 1.384 . S
H1668 C1674 0.930 . S
H1669 C1678 0.930 . S
H1670 C1683 0.929 . S
H1671 C1681 0.929 . S
H1672 C1676 0.929 . S
H1673 C1682 0.929 . S
C1674 H1668 0.930 . S
C1674 C1675 1.367 . S
C1674 C1682 1.378 . S
C1675 C1674 1.367 . S
C1675 C1683 1.433 . S
C1676 H1672 0.929 . S
C1676 C1678 1.378 . S
C1676 C1680 1.350 . S
C1677 C1680 1.463 . S
C1677 C1682 1.350 . S
C1677 N1685 1.427 . S
C1678 H1669 0.930 . S
C1678 C1676 1.378 . S
C1678 C1679 1.367 . S
C1679 C1678 1.367 . S
C1679 C1681 1.433 . S
C1680 C1676 1.350 . S
C1680 C1677 1.463 . S
C1680 N1684 1.427 . S
C1681 H1671 0.929 . S
C1681 C1679 1.433 . S
C1681 N1684 1.384 . S
C1682 H1673 0.929 . S
C1682 C1674 1.378 . S
C1682 C1677 1.350 . S
C1683 H1670 0.929 . S
C1683 C1675 1.433 . S
C1683 N1685 1.384 . S
N1684 C1680 1.427 . S
N1684 C1681 1.384 . S
N1685 C1677 1.427 . S
N1685 C1683 1.384 . S
H1686 C1692 0.930 . S
H1687 C1696 0.930 . S
H1688 C1701 0.929 . S
H1689 C1699 0.929 . S
H1690 C1694 0.929 . S
H1691 C1700 0.929 . S
C1692 H1686 0.930 . S
C1692 C1693 1.367 . S
C1692 C1700 1.378 . S
C1693 C1692 1.367 . S
C1693 C1701 1.433 . S
C1694 H1690 0.929 . S
C1694 C1696 1.378 . S
C1694 C1698 1.350 . S
C1695 C1698 1.463 . S
C1695 C1700 1.350 . S
C1695 N1703 1.427 . S
C1696 H1687 0.930 . S
C1696 C1694 1.378 . S
C1696 C1697 1.367 . S
C1697 C1696 1.367 . S
C1697 C1699 1.433 . S
C1698 C1694 1.350 . S
C1698 C1695 1.463 . S
C1698 N1702 1.427 . S
C1699 H1689 0.929 . S
C1699 C1697 1.433 . S
C1699 N1702 1.384 . S
C1700 H1691 0.929 . S
C1700 C1692 1.378 . S
C1700 C1695 1.350 . S
C1701 H1688 0.929 . S
C1701 C1693 1.433 . S
C1701 N1703 1.384 . S
N1702 C1698 1.427 . S
N1702 C1699 1.384 . S
N1703 C1695 1.427 . S
N1703 C1701 1.384 . S
H1704 C1710 0.930 . S
H1705 C1714 0.930 . S
H1706 C1719 0.929 . S
H1707 C1717 0.929 . S
H1708 C1712 0.929 . S
H1709 C1718 0.929 . S
C1710 H1704 0.930 . S
C1710 C1711 1.367 . S
C1710 C1718 1.378 . S
C1711 C1710 1.367 . S
C1711 C1719 1.433 . S
C1712 H1708 0.929 . S
C1712 C1714 1.378 . S
C1712 C1716 1.350 . S
C1713 C1716 1.463 . S
C1713 C1718 1.350 . S
C1713 N1721 1.427 . S
C1714 H1705 0.930 . S
C1714 C1712 1.378 . S
C1714 C1715 1.367 . S
C1715 C1714 1.367 . S
C1715 C1717 1.433 . S
C1716 C1712 1.350 . S
C1716 C1713 1.463 . S
C1716 N1720 1.427 . S
C1717 H1707 0.929 . S
C1717 C1715 1.433 . S
C1717 N1720 1.384 . S
C1718 H1709 0.929 . S
C1718 C1710 1.378 . S
C1718 C1713 1.350 . S
C1719 H1706 0.929 . S
C1719 C1711 1.433 . S
C1719 N1721 1.384 . S
N1720 C1716 1.427 . S
N1720 C1717 1.384 . S
N1721 C1713 1.427 . S
N1721 C1719 1.384 . S
H1722 C1728 0.930 . S
H1723 C1732 0.930 . S
H1724 C1737 0.929 . S
H1725 C1735 0.929 . S
H1726 C1730 0.929 . S
H1727 C1736 0.929 . S
C1728 H1722 0.930 . S
C1728 C1729 1.367 . S
C1728 C1736 1.378 . S
C1729 C1728 1.367 . S
C1729 C1737 1.433 . S
C1730 H1726 0.929 . S
C1730 C1732 1.378 . S
C1730 C1734 1.350 . S
C1731 C1734 1.463 . S
C1731 C1736 1.350 . S
C1731 N1739 1.427 . S
C1732 H1723 0.930 . S
C1732 C1730 1.378 . S
C1732 C1733 1.367 . S
C1733 C1732 1.367 . S
C1733 C1735 1.433 . S
C1734 C1730 1.350 . S
C1734 C1731 1.463 . S
C1734 N1738 1.427 . S
C1735 H1725 0.929 . S
C1735 C1733 1.433 . S
C1735 N1738 1.384 . S
C1736 H1727 0.929 . S
C1736 C1728 1.378 . S
C1736 C1731 1.350 . S
C1737 H1724 0.929 . S
C1737 C1729 1.433 . S
C1737 N1739 1.384 . S
N1738 C1734 1.427 . S
N1738 C1735 1.384 . S
N1739 C1731 1.427 . S
N1739 C1737 1.384 . S
H1740 C1746 0.930 . S
H1741 C1750 0.930 . S
H1742 C1755 0.929 . S
H1743 C1753 0.929 . S
H1744 C1748 0.929 . S
H1745 C1754 0.929 . S
C1746 H1740 0.930 . S
C1746 C1747 1.367 . S
C1746 C1754 1.378 . S
C1747 C1746 1.367 . S
C1747 C1755 1.433 . S
C1748 H1744 0.929 . S
C1748 C1750 1.378 . S
C1748 C1752 1.350 . S
C1749 C1752 1.463 . S
C1749 C1754 1.350 . S
C1749 N1757 1.427 . S
C1750 H1741 0.930 . S
C1750 C1748 1.378 . S
C1750 C1751 1.367 . S
C1751 C1750 1.367 . S
C1751 C1753 1.433 . S
C1752 C1748 1.350 . S
C1752 C1749 1.463 . S
C1752 N1756 1.427 . S
C1753 H1743 0.929 . S
C1753 C1751 1.433 . S
C1753 N1756 1.384 . S
C1754 H1745 0.929 . S
C1754 C1746 1.378 . S
C1754 C1749 1.350 . S
C1755 H1742 0.929 . S
C1755 C1747 1.433 . S
C1755 N1757 1.384 . S
N1756 C1752 1.427 . S
N1756 C1753 1.384 . S
N1757 C1749 1.427 . S
N1757 C1755 1.384 . S
H1758 C1764 0.930 . S
H1759 C1768 0.930 . S
H1760 C1773 0.929 . S
H1761 C1771 0.929 . S
H1762 C1766 0.929 . S
H1763 C1772 0.929 . S
C1764 H1758 0.930 . S
C1764 C1765 1.367 . S
C1764 C1772 1.378 . S
C1765 C1764 1.367 . S
C1765 C1773 1.433 . S
C1766 H1762 0.929 . S
C1766 C1768 1.378 . S
C1766 C1770 1.350 . S
C1767 C1770 1.463 . S
C1767 C1772 1.350 . S
C1767 N1775 1.427 . S
C1768 H1759 0.930 . S
C1768 C1766 1.378 . S
C1768 C1769 1.367 . S
C1769 C1768 1.367 . S
C1769 C1771 1.433 . S
C1770 C1766 1.350 . S
C1770 C1767 1.463 . S
C1770 N1774 1.427 . S
C1771 H1761 0.929 . S
C1771 C1769 1.433 . S
C1771 N1774 1.384 . S
C1772 H1763 0.929 . S
C1772 C1764 1.378 . S
C1772 C1767 1.350 . S
C1773 H1760 0.929 . S
C1773 C1765 1.433 . S
C1773 N1775 1.384 . S
N1774 C1770 1.427 . S
N1774 C1771 1.384 . S
N1775 C1767 1.427 . S
N1775 C1773 1.384 . S
H1776 C1782 0.930 . S
H1777 C1786 0.930 . S
H1778 C1791 0.929 . S
H1779 C1789 0.929 . S
H1780 C1784 0.929 . S
H1781 C1790 0.929 . S
C1782 H1776 0.930 . S
C1782 C1783 1.367 . S
C1782 C1790 1.378 . S
C1783 C1782 1.367 . S
C1783 C1791 1.433 . S
C1784 H1780 0.929 . S
C1784 C1786 1.378 . S
C1784 C1788 1.350 . S
C1785 C1788 1.463 . S
C1785 C1790 1.350 . S
C1785 N1793 1.427 . S
C1786 H1777 0.930 . S
C1786 C1784 1.378 . S
C1786 C1787 1.367 . S
C1787 C1786 1.367 . S
C1787 C1789 1.433 . S
C1788 C1784 1.350 . S
C1788 C1785 1.463 . S
C1788 N1792 1.427 . S
C1789 H1779 0.929 . S
C1789 C1787 1.433 . S
C1789 N1792 1.384 . S
C1790 H1781 0.929 . S
C1790 C1782 1.378 . S
C1790 C1785 1.350 . S
C1791 H1778 0.929 . S
C1791 C1783 1.433 . S
C1791 N1793 1.384 . S
N1792 C1788 1.427 . S
N1792 C1789 1.384 . S
N1793 C1785 1.427 . S
N1793 C1791 1.384 . S
H1794 C1800 0.930 . S
H1795 C1804 0.930 . S
H1796 C1809 0.929 . S
H1797 C1807 0.929 . S
H1798 C1802 0.929 . S
H1799 C1808 0.929 . S
C1800 H1794 0.930 . S
C1800 C1801 1.367 . S
C1800 C1808 1.378 . S
C1801 C1800 1.367 . S
C1801 C1809 1.433 . S
C1802 H1798 0.929 . S
C1802 C1804 1.378 . S
C1802 C1806 1.350 . S
C1803 C1806 1.463 . S
C1803 C1808 1.350 . S
C1803 N1811 1.427 . S
C1804 H1795 0.930 . S
C1804 C1802 1.378 . S
C1804 C1805 1.367 . S
C1805 C1804 1.367 . S
C1805 C1807 1.433 . S
C1806 C1802 1.350 . S
C1806 C1803 1.463 . S
C1806 N1810 1.427 . S
C1807 H1797 0.929 . S
C1807 C1805 1.433 . S
C1807 N1810 1.384 . S
C1808 H1799 0.929 . S
C1808 C1800 1.378 . S
C1808 C1803 1.350 . S
C1809 H1796 0.929 . S
C1809 C1801 1.433 . S
C1809 N1811 1.384 . S
N1810 C1806 1.427 . S
N1810 C1807 1.384 . S
N1811 C1803 1.427 . S
N1811 C1809 1.384 . S
H1812 C1818 0.930 . S
H1813 C1822 0.930 . S
H1814 C1827 0.929 . S
H1815 C1825 0.929 . S
H1816 C1820 0.929 . S
H1817 C1826 0.929 . S
C1818 H1812 0.930 . S
C1818 C1819 1.367 . S
C1818 C1826 1.378 . S
C1819 C1818 1.367 . S
C1819 C1827 1.433 . S
C1820 H1816 0.929 . S
C1820 C1822 1.378 . S
C1820 C1824 1.350 . S
C1821 C1824 1.463 . S
C1821 C1826 1.350 . S
C1821 N1829 1.427 . S
C1822 H1813 0.930 . S
C1822 C1820 1.378 . S
C1822 C1823 1.367 . S
C1823 C1822 1.367 . S
C1823 C1825 1.433 . S
C1824 C1820 1.350 . S
C1824 C1821 1.463 . S
C1824 N1828 1.427 . S
C1825 H1815 0.929 . S
C1825 C1823 1.433 . S
C1825 N1828 1.384 . S
C1826 H1817 0.929 . S
C1826 C1818 1.378 . S
C1826 C1821 1.350 . S
C1827 H1814 0.929 . S
C1827 C1819 1.433 . S
C1827 N1829 1.384 . S
N1828 C1824 1.427 . S
N1828 C1825 1.384 . S
N1829 C1821 1.427 . S
N1829 C1827 1.384 . S
H1830 C1836 0.930 . S
H1831 C1840 0.930 . S
H1832 C1845 0.929 . S
H1833 C1843 0.929 . S
H1834 C1838 0.929 . S
H1835 C1844 0.929 . S
C1836 H1830 0.930 . S
C1836 C1837 1.367 . S
C1836 C1844 1.378 . S
C1837 C1836 1.367 . S
C1837 C1845 1.433 . S
C1838 H1834 0.929 . S
C1838 C1840 1.378 . S
C1838 C1842 1.350 . S
C1839 C1842 1.463 . S
C1839 C1844 1.350 . S
C1839 N1847 1.427 . S
C1840 H1831 0.930 . S
C1840 C1838 1.378 . S
C1840 C1841 1.367 . S
C1841 C1840 1.367 . S
C1841 C1843 1.433 . S
C1842 C1838 1.350 . S
C1842 C1839 1.463 . S
C1842 N1846 1.427 . S
C1843 H1833 0.929 . S
C1843 C1841 1.433 . S
C1843 N1846 1.384 . S
C1844 H1835 0.929 . S
C1844 C1836 1.378 . S
C1844 C1839 1.350 . S
C1845 H1832 0.929 . S
C1845 C1837 1.433 . S
C1845 N1847 1.384 . S
N1846 C1842 1.427 . S
N1846 C1843 1.384 . S
N1847 C1839 1.427 . S
N1847 C1845 1.384 . S
H1848 C1854 0.930 . S
H1849 C1858 0.930 . S
H1850 C1863 0.929 . S
H1851 C1861 0.929 . S
H1852 C1856 0.929 . S
H1853 C1862 0.929 . S
C1854 H1848 0.930 . S
C1854 C1855 1.367 . S
C1854 C1862 1.378 . S
C1855 C1854 1.367 . S
C1855 C1863 1.433 . S
C1856 H1852 0.929 . S
C1856 C1858 1.378 . S
C1856 C1860 1.350 . S
C1857 C1860 1.463 . S
C1857 C1862 1.350 . S
C1857 N1865 1.427 . S
C1858 H1849 0.930 . S
C1858 C1856 1.378 . S
C1858 C1859 1.367 . S
C1859 C1858 1.367 . S
C1859 C1861 1.433 . S
C1860 C1856 1.350 . S
C1860 C1857 1.463 . S
C1860 N1864 1.427 . S
C1861 H1851 0.929 . S
C1861 C1859 1.433 . S
C1861 N1864 1.384 . S
C1862 H1853 0.929 . S
C1862 C1854 1.378 . S
C1862 C1857 1.350 . S
C1863 H1850 0.929 . S
C1863 C1855 1.433 . S
C1863 N1865 1.384 . S
N1864 C1860 1.427 . S
N1864 C1861 1.384 . S
N1865 C1857 1.427 . S
N1865 C1863 1.384 . S
H1866 C1872 0.930 . S
H1867 C1876 0.930 . S
H1868 C1881 0.929 . S
H1869 C1879 0.929 . S
H1870 C1874 0.929 . S
H1871 C1880 0.929 . S
C1872 H1866 0.930 . S
C1872 C1873 1.367 . S
C1872 C1880 1.378 . S
C1873 C1872 1.367 . S
C1873 C1881 1.433 . S
C1874 H1870 0.929 . S
C1874 C1876 1.378 . S
C1874 C1878 1.350 . S
C1875 C1878 1.463 . S
C1875 C1880 1.350 . S
C1875 N1883 1.427 . S
C1876 H1867 0.930 . S
C1876 C1874 1.378 . S
C1876 C1877 1.367 . S
C1877 C1876 1.367 . S
C1877 C1879 1.433 . S
C1878 C1874 1.350 . S
C1878 C1875 1.463 . S
C1878 N1882 1.427 . S
C1879 H1869 0.929 . S
C1879 C1877 1.433 . S
C1879 N1882 1.384 . S
C1880 H1871 0.929 . S
C1880 C1872 1.378 . S
C1880 C1875 1.350 . S
C1881 H1868 0.929 . S
C1881 C1873 1.433 . S
C1881 N1883 1.384 . S
N1882 C1878 1.427 . S
N1882 C1879 1.384 . S
N1883 C1875 1.427 . S
N1883 C1881 1.384 . S
C599 C294 1.498 . S
C595 C285 1.496 . S
C613 C261 1.399 . S
C617 C292 1.401 . S
C635 C293 1.401 . S
C631 C249 1.400 . S
C649 C273 1.497 . S
C653 C295 1.497 . S
C671 C339 1.550 . S
C667 C201 1.550 . S
C689 C399 1.479 . S
C685 C213 1.481 . S
C703 C225 1.541 . S
C707 C338 1.540 . S
C725 C398 1.380 . S
C721 C237 1.380 . S
C739 C153 1.447 . S
C743 C340 1.446 . S
C761 C396 1.468 . S
C757 C165 1.465 . S
C775 C177 1.450 . S
C779 C341 1.448 . S
C793 C189 1.565 . S
C797 C397 1.565 . S
C815 C447 1.497 . S
C811 C141 1.496 . S
C829 C117 1.400 . S
C833 C446 1.401 . S
C847 C105 1.400 . S
C851 C448 1.401 . S
C869 C449 1.497 . S
C865 C129 1.496 . S
C883 C57 1.551 . S
C887 C490 1.549 . S
C901 C69 1.480 1_565 S
C905 C549 1.481 . S
C919 C81 1.539 . S
C923 C488 1.541 . S
C937 C93 1.380 1_565 S
C941 C548 1.379 . S
C959 C489 1.447 . S
C955 C9 1.446 . S
C977 C546 1.467 . S
C973 C21 1.468 . S
C991 C33 1.449 . S
C995 C491 1.449 . S
C1013 C547 1.565 1_565 S
C1009 C45 1.565 1_545 S
C1031 C291 1.423 . S
C1027 C4 1.317 . S
C1045 C18 1.526 . S
C1049 C297 1.572 1_565 S
C1063 C30 1.635 . S
C1067 C289 1.671 . S
C1081 C42 1.671 1_545 S
C1085 C296 1.713 1_565 S
C1099 C52 1.326 . S
C1103 C288 1.434 . S
C1121 C298 1.663 . S
C1117 C66 1.619 1_565 S
C1135 C78 1.640 . S
C1139 C290 1.684 . S
C1157 C299 1.290 . S
C1153 C88 1.174 . S
C1175 C345 1.443 . S
C1171 C40 1.341 1_565 S
C1189 C6 1.608 . S
C1193 C388 1.652 . S
C1211 C343 1.468 . S
C1207 C16 1.370 1_545 S
C1229 C390 1.404 . S
C1225 C28 1.282 . S
C1243 C64 1.264 . S
C1247 C344 1.378 . S
C1265 C389 1.497 . S
C1261 C76 1.384 . S
C1283 C342 1.652 1_565 S
C1279 C90 1.610 . S
C1301 C391 1.766 . S
C1297 C54 1.733 . S
C1319 C395 1.566 . S
C1315 C102 1.517 . S
C1333 C114 1.528 . S
C1337 C394 1.567 . S
C1355 C346 1.328 . S
C1351 C100 1.231 . S
C1373 C393 1.362 . S
C1369 C124 1.260 . S
C1387 C138 1.621 . S
C1391 C349 1.665 . S
C1405 C136 1.251 . S
C1409 C392 1.360 . S
C1427 C348 1.326 . S
C1423 C112 1.221 . S
C1445 C347 1.665 . S
C1441 C126 1.626 . S
C1463 C441 1.420 . S
C1459 C148 1.302 . S
C1481 C444 1.573 . S
C1477 C162 1.533 . S
C1495 C174 1.635 . S
C1499 C440 1.671 . S
C1517 C442 1.713 . S
C1513 C186 1.675 . S
C1535 C438 1.434 . S
C1531 C196 1.328 . S
C1549 C210 1.621 . S
C1553 C443 1.663 . S
C1567 C222 1.649 . S
C1571 C439 1.685 . S
C1589 C445 1.290 . S
C1585 C232 1.176 . S
C1607 C499 1.442 . S
C1603 C184 1.328 . S
C1621 C150 1.616 . S
C1625 C538 1.653 . S
C1643 C498 1.468 . S
C1639 C160 1.370 . S
C1661 C540 1.406 . S
C1657 C172 1.301 . S
C1679 C497 1.378 . S
C1675 C208 1.263 . S
C1693 C220 1.379 . S
C1697 C539 1.496 . S
C1715 C496 1.653 . S
C1711 C234 1.615 . S
C1733 C541 1.766 . S
C1729 C198 1.731 . S
C1751 C545 1.566 . S
C1747 C246 1.518 . S
C1765 C258 1.527 . S
C1769 C544 1.566 . S
C1787 C492 1.327 . S
C1783 C244 1.221 . S
C1801 C268 1.256 . S
C1805 C543 1.362 . S
C1823 C495 1.664 . S
C1819 C282 1.622 . S
C1841 C542 1.359 . S
C1837 C280 1.247 . S
C1859 C493 1.325 . S
C1855 C256 1.211 . S
C1873 C270 1.625 . S
C1877 C494 1.665 . S
