# Generated by pormake.
# Topology pyr, (3,6)-cn, num edge types: 1
# Building blocks:
#     Node 0, Type 0, BuildingBlock: CUQRIR_clean_linker_1, # of connection points: 3
#     Node 1, Type 0, BuildingBlock: CUQRIR_clean_linker_1, # of connection points: 3
#     Node 2, Type 0, BuildingBlock: CUQRIR_clean_linker_1, # of connection points: 3
#     Node 3, Type 0, BuildingBlock: CUQRIR_clean_linker_1, # of connection points: 3
#     Node 4, Type 0, BuildingBlock: CUQRIR_clean_linker_1, # of connection points: 3
#     Node 5, Type 0, BuildingBlock: CUQRIR_clean_linker_1, # of connection points: 3
#     Node 6, Type 0, BuildingBlock: CUQRIR_clean_linker_1, # of connection points: 3
#     Node 7, Type 0, BuildingBlock: CUQRIR_clean_linker_1, # of connection points: 3
#     Node 8, Type 1, BuildingBlock: BETDIP_clean_sbu_0, # of connection points: 6
#     Node 9, Type 1, BuildingBlock: BETDIP_clean_sbu_0, # of connection points: 6
#     Node 10, Type 1, BuildingBlock: BETDIP_clean_sbu_0, # of connection points: 6
#     Node 11, Type 1, BuildingBlock: BETDIP_clean_sbu_0, # of connection points: 6
#     Edge 12, Type (0, 1), BuildingBlock: CIFDUS_clean_linker_0, # of connection points: 2
#     Edge 13, Type (0, 1), BuildingBlock: CIFDUS_clean_linker_0, # of connection points: 2
#     Edge 14, Type (0, 1), BuildingBlock: CIFDUS_clean_linker_0, # of connection points: 2
#     Edge 15, Type (0, 1), BuildingBlock: CIFDUS_clean_linker_0, # of connection points: 2
#     Edge 16, Type (0, 1), BuildingBlock: CIFDUS_clean_linker_0, # of connection points: 2
#     Edge 17, Type (0, 1), BuildingBlock: CIFDUS_clean_linker_0, # of connection points: 2
#     Edge 18, Type (0, 1), BuildingBlock: CIFDUS_clean_linker_0, # of connection points: 2
#     Edge 19, Type (0, 1), BuildingBlock: CIFDUS_clean_linker_0, # of connection points: 2
#     Edge 20, Type (0, 1), BuildingBlock: CIFDUS_clean_linker_0, # of connection points: 2
#     Edge 21, Type (0, 1), BuildingBlock: CIFDUS_clean_linker_0, # of connection points: 2
#     Edge 22, Type (0, 1), BuildingBlock: CIFDUS_clean_linker_0, # of connection points: 2
#     Edge 23, Type (0, 1), BuildingBlock: CIFDUS_clean_linker_0, # of connection points: 2
#     Edge 24, Type (0, 1), BuildingBlock: CIFDUS_clean_linker_0, # of connection points: 2
#     Edge 25, Type (0, 1), BuildingBlock: CIFDUS_clean_linker_0, # of connection points: 2
#     Edge 26, Type (0, 1), BuildingBlock: CIFDUS_clean_linker_0, # of connection points: 2
#     Edge 27, Type (0, 1), BuildingBlock: CIFDUS_clean_linker_0, # of connection points: 2
#     Edge 28, Type (0, 1), BuildingBlock: CIFDUS_clean_linker_0, # of connection points: 2
#     Edge 29, Type (0, 1), BuildingBlock: CIFDUS_clean_linker_0, # of connection points: 2
#     Edge 30, Type (0, 1), BuildingBlock: CIFDUS_clean_linker_0, # of connection points: 2
#     Edge 31, Type (0, 1), BuildingBlock: CIFDUS_clean_linker_0, # of connection points: 2
#     Edge 32, Type (0, 1), BuildingBlock: CIFDUS_clean_linker_0, # of connection points: 2
#     Edge 33, Type (0, 1), BuildingBlock: CIFDUS_clean_linker_0, # of connection points: 2
#     Edge 34, Type (0, 1), BuildingBlock: CIFDUS_clean_linker_0, # of connection points: 2
#     Edge 35, Type (0, 1), BuildingBlock: CIFDUS_clean_linker_0, # of connection points: 2
# Relax obj value: 0.240
# Max RMSD: 0.296
# Mean RMSD: 0.175
data_MOF--net-pyr--node1-BETDIP_clean_sbu_0--node2-CUQRIR_clean_linker_1--edge1-CIFDUS_clean_linker_0
_symmetry_space_group_name_H-M    P1
_symmetry_Int_Tables_number       1
_symmetry_cell_setting            triclinic
loop_
_symmetry_equiv_pos_as_xyz
'x, y, z'
_cell_length_a     28.928915
_cell_length_b     30.724612
_cell_length_c     29.295487
_cell_angle_alpha  87.553577
_cell_angle_beta   93.694381
_cell_angle_gamma 109.36003
loop_
_atom_site_label
_atom_site_type_symbol
_atom_site_fract_x
_atom_site_fract_y
_atom_site_fract_z
_atom_type_partial_charge
C0 C 0.4408 0.45108 0.29879 0.0
N1 N 0.45908 0.41675 0.31114 0.0
N2 N 0.44414 0.46134 0.25339 0.0
C3 C 0.41059 0.46805 0.32933 0.0
C4 C 0.46953 0.43464 0.23945 0.0
N5 N 0.47841 0.40753 0.27426 0.0
C6 C 0.47801 0.42924 0.19019 0.0
H7 H 0.37103 0.45188 0.3195 0.0
H8 H 0.41991 0.50597 0.3251 0.0
H9 H 0.41724 0.45962 0.36586 0.0
H10 H 0.51723 0.43368 0.18651 0.0
H11 H 0.46782 0.45493 0.16764 0.0
H12 H 0.45612 0.39386 0.17926 0.0
C13 C 0.14466 0.80152 0.78463 0.0
N14 N 0.13344 0.83741 0.80027 0.0
N15 N 0.16354 0.78038 0.81885 0.0
C16 C 0.14416 0.79107 0.7348 0.0
C17 C 0.15951 0.80276 0.85652 0.0
N18 N 0.1427 0.83826 0.84528 0.0
C19 C 0.18156 0.79571 0.90311 0.0
H20 H 0.13236 0.75322 0.73034 0.0
H21 H 0.18181 0.80618 0.72254 0.0
H22 H 0.11903 0.80534 0.71375 0.0
H23 H 0.21534 0.82533 0.91072 0.0
H24 H 0.19071 0.76331 0.90499 0.0
H25 H 0.1553 0.79419 0.92959 0.0
C26 C 0.59586 0.4044 0.90541 0.0
N27 N 0.62699 0.39772 0.93975 0.0
N28 N 0.61696 0.4439 0.88096 0.0
C29 C 0.54452 0.37224 0.89586 0.0
C30 C 0.66227 0.46132 0.90212 0.0
N31 N 0.6685 0.43377 0.93828 0.0
C32 C 0.70054 0.50526 0.88682 0.0
H33 H 0.53045 0.378 0.86078 0.0
H34 H 0.52027 0.37835 0.92091 0.0
H35 H 0.54324 0.33581 0.90016 0.0
H36 H 0.69537 0.53488 0.90363 0.0
H37 H 0.69702 0.51102 0.8494 0.0
H38 H 0.73811 0.50454 0.89582 0.0
C39 C 0.85458 0.7337 0.38122 0.0
N40 N 0.89796 0.76582 0.36998 0.0
N41 N 0.83579 0.74676 0.41743 0.0
C42 C 0.82917 0.69 0.35555 0.0
C43 C 0.86901 0.7883 0.4281 0.0
N44 N 0.90706 0.80027 0.39972 0.0
C45 C 0.86579 0.81659 0.46805 0.0
H46 H 0.78907 0.67788 0.36007 0.0
H47 H 0.84403 0.6627 0.36893 0.0
H48 H 0.83568 0.69537 0.3185 0.0
H49 H 0.82882 0.80631 0.48143 0.0
H50 H 0.87702 0.85375 0.45813 0.0
H51 H 0.89111 0.81215 0.49655 0.0
C52 C 0.59548 0.85282 0.96131 0.0
N53 N 0.62629 0.83691 0.93941 0.0
N54 N 0.5815 0.88394 0.93475 0.0
C55 C 0.58273 0.84181 1.01042 0.0
C56 C 0.60368 0.88499 0.89515 0.0
N57 N 0.63123 0.85684 0.89797 0.0
C58 C 0.6049 0.91935 0.85658 0.0
H59 H 0.58878 0.80933 1.02258 0.0
H60 H 0.54378 0.83839 1.01423 0.0
H61 H 0.60569 0.87062 1.0321 0.0
H62 H 0.64236 0.94496 0.85544 0.0
H63 H 0.57811 0.93752 0.86064 0.0
H64 H 0.59614 0.90142 0.82349 0.0
C65 C 0.93995 0.39242 0.53188 0.0
N66 N 0.95013 0.36944 0.4976 0.0
N67 N 0.91423 0.42008 0.51582 0.0
C68 C 0.94948 0.38335 0.58186 0.0
C69 C 0.91189 0.41486 0.46988 0.0
N70 N 0.93218 0.3831 0.45884 0.0
C71 C 0.87938 0.43226 0.4369 0.0
H72 H 0.91978 0.35261 0.594 0.0
H73 H 0.95055 0.41333 0.60226 0.0
H74 H 0.98468 0.37626 0.58732 0.0
H75 H 0.88413 0.46873 0.44381 0.0
H76 H 0.84043 0.41135 0.44148 0.0
H77 H 0.88798 0.42983 0.40093 0.0
C78 C 0.34811 0.72265 0.30005 0.0
N79 N 0.388 0.75596 0.31842 0.0
N80 N 0.32429 0.74032 0.26683 0.0
C81 C 0.33228 0.67255 0.315 0.0
C82 C 0.35062 0.78589 0.26582 0.0
N83 N 0.38921 0.79597 0.29737 0.0
C84 C 0.33851 0.82104 0.234 0.0
H85 H 0.36318 0.65905 0.31299 0.0
H86 H 0.30075 0.65097 0.29352 0.0
H87 H 0.32224 0.66935 0.35121 0.0
H88 H 0.3265 0.84467 0.25422 0.0
H89 H 0.30873 0.80533 0.20812 0.0
H90 H 0.37167 0.84199 0.21621 0.0
C91 C 0.11347 0.39894 0.80451 0.0
N92 N 0.13859 0.39881 0.7666 0.0
N93 N 0.12915 0.44116 0.82433 0.0
C94 C 0.07161 0.35856 0.82062 0.0
C95 C 0.16497 0.46659 0.7969 0.0
N96 N 0.1703 0.44142 0.76156 0.0
C97 C 0.19753 0.51514 0.80696 0.0
H98 H 0.05145 0.33721 0.79144 0.0
H99 H 0.04583 0.37024 0.83928 0.0
H100 H 0.08654 0.33665 0.84419 0.0
H101 H 0.20068 0.52151 0.84421 0.0
H102 H 0.18139 0.53982 0.78928 0.0
H103 H 0.2348 0.52183 0.79469 0.0
Tb104 Tb 1.00064 0.08098 0.59752 0.0
Tb105 Tb 0.10072 0.10348 0.57211 0.0
C106 C 0.9125 1.04454 0.61743 0.0
C107 C 0.88279 1.00823 0.64855 0.0
C108 C 0.85651 0.96363 0.6331 0.0
C109 C 0.82453 0.93127 0.66177 0.0
C110 C 0.81819 0.94307 0.70629 0.0
C111 C 0.84527 0.98746 0.7217 0.0
C112 C 0.87703 1.0195 0.69332 0.0
C113 C 0.05792 0.16376 0.62643 0.0
C114 C 0.067 1.03461 0.65597 0.0
C115 C 0.19248 0.13307 0.56618 0.0
C116 C 0.22445 0.16672 0.53503 0.0
C117 C 0.27072 0.16453 0.52631 0.0
C118 C 0.30016 0.19576 0.49515 0.0
C119 C 0.28339 0.22932 0.47232 0.0
C120 C 0.23749 0.23194 0.48219 0.0
C121 C 0.20823 0.20083 0.513 0.0
C122 C 0.03737 1.03595 0.52186 0.0
C123 C 0.0338 0.14995 0.51769 0.0
O124 O 0.9309 1.03203 0.58249 0.0
O125 O 0.94344 0.08085 0.6371 0.0
O126 O 0.06906 0.12705 0.62677 0.0
O127 O 1.01331 0.15413 0.60979 0.0
O128 O 0.02442 1.04175 0.65208 0.0
O129 O 0.10192 1.05434 0.62749 0.0
O130 O 0.16898 0.15008 0.59329 0.0
O131 O 0.16392 0.09496 0.54765 0.0
O132 O 0.03799 1.04189 0.5645 0.0
O133 O 0.073 0.07009 0.50588 0.0
O134 O 0.07898 0.15656 0.53421 0.0
O135 O 0.99784 0.11294 0.53025 0.0
H136 H 0.85975 0.95409 0.59858 0.0
H137 H 0.80424 0.89736 0.64886 0.0
H138 H 0.84042 0.99838 0.75521 0.0
H139 H 0.89588 1.05374 0.7062 0.0
H140 H 0.28372 0.13832 0.54307 0.0
H141 H 0.33527 0.19285 0.48798 0.0
H142 H 0.22394 0.25795 0.46578 0.0
H143 H 0.17275 0.20331 0.51936 0.0
Tb144 Tb 0.56488 0.12544 0.15643 0.0
Tb145 Tb 0.4597 0.10169 0.15088 0.0
C146 C 0.6566 0.16431 0.16113 0.0
C147 C 0.6944 0.18196 0.19797 0.0
C148 C 0.72723 0.22711 0.19436 0.0
C149 C 0.76057 0.24611 0.23064 0.0
C150 C 0.76178 0.2201 0.27111 0.0
C151 C 0.73033 0.1741 0.27372 0.0
C152 C 0.69671 0.15528 0.23763 0.0
C153 C 0.51908 1.04862 0.20451 0.0
C154 C 0.51297 0.17041 0.22357 0.0
C155 C 0.36783 1.06392 0.14883 0.0
C156 C 0.32725 1.04268 0.11529 0.0
C157 C 0.2964 0.99739 0.12337 0.0
C158 C 0.25883 0.97564 0.09137 0.0
C159 C 0.25117 0.99895 1.05072 0.0
C160 C 0.28089 1.04505 1.04361 0.0
C161 C 0.31873 1.06667 1.07549 0.0
C162 C 0.50605 0.17985 0.10527 0.0
C163 C 0.50982 1.05924 0.08032 0.0
O164 O 0.62529 0.18651 0.15389 0.0
O165 O 0.6352 0.11968 0.16003 0.0
O166 O 0.50844 0.0854 0.20137 0.0
O167 O 0.55842 1.05548 0.18293 0.0
O168 O 0.55259 0.1765 0.20066 0.0
O169 O 0.47458 0.13322 0.21691 0.0
O170 O 0.39883 1.04164 0.15832 0.0
O171 O 0.38986 0.10838 0.14478 0.0
O172 O 0.51652 0.14295 0.10627 0.0
O173 O 0.46711 0.17238 0.12774 0.0
O174 O 0.47007 1.05326 0.10288 0.0
O175 O 0.55038 0.09362 0.09019 0.0
H176 H 0.72597 0.24821 0.164 0.0
H177 H 0.78379 0.28182 0.22773 0.0
H178 H 0.73087 0.15295 0.30416 0.0
H179 H 0.67182 0.12027 0.24129 0.0
H180 H 0.30213 0.97839 0.15402 0.0
H181 H 0.23721 0.9399 0.09763 0.0
H182 H 0.27559 1.06412 1.0129 0.0
H183 H 0.34169 0.10184 1.06853 0.0
Tb184 Tb 0.49618 0.62855 0.60765 0.0
Tb185 Tb 0.50705 0.54887 0.56698 0.0
C186 C 0.48364 0.70067 0.63185 0.0
C187 C 0.44285 0.70456 0.65739 0.0
C188 C 0.39434 0.68877 0.63854 0.0
C189 C 0.35528 0.68797 0.66444 0.0
C190 C 0.36368 0.70274 0.70985 0.0
C191 C 0.4122 0.71859 0.7287 0.0
C192 C 0.45139 0.71966 0.70265 0.0
C193 C 0.52668 0.57353 0.6663 0.0
C194 C 0.40701 0.53812 0.61439 0.0
C195 C 0.52532 0.47637 0.55454 0.0
C196 C 0.57401 0.47137 0.55083 0.0
C197 C 0.59115 0.44538 0.58414 0.0
C198 C 0.63981 0.44612 0.58544 0.0
C199 C 0.67233 0.47268 0.55322 0.0
C200 C 0.65472 0.49791 0.5193 0.0
C201 C 0.60624 0.49745 0.51822 0.0
C202 C 0.48209 0.60453 0.50525 0.0
C203 C 0.59312 0.63961 0.55653 0.0
O204 O 0.47212 0.68463 0.59054 0.0
O205 O 0.51312 0.6822 0.65461 0.0
O206 O 0.54091 0.58596 0.62646 0.0
O207 O 0.4947 0.59277 0.67467 0.0
O208 O 0.42094 0.58352 0.6156 0.0
O209 O 0.43585 0.51728 0.59844 0.0
O210 O 0.51776 0.4887 0.5948 0.0
O211 O 0.51015 0.49907 0.52136 0.0
O212 O 0.4654 0.59449 0.54499 0.0
O213 O 0.50898 0.57937 0.49851 0.0
O214 O 0.58227 0.59461 0.56203 0.0
O215 O 0.56227 0.66013 0.56868 0.0
H216 H 0.38624 0.67644 0.60387 0.0
H217 H 0.31855 0.67645 0.64852 0.0
H218 H 0.41992 0.72986 0.76373 0.0
H219 H 0.48831 0.73141 0.71818 0.0
H220 H 0.56733 0.42574 0.6102 0.0
H221 H 0.65219 0.42669 0.61238 0.0
H222 H 0.67839 0.51808 0.49342 0.0
H223 H 0.5945 0.51848 0.49247 0.0
Tb224 Tb 0.99822 0.63948 1.06378 0.0
Tb225 Tb 1.01127 0.55924 0.12743 0.0
C226 C 0.9617 0.68805 1.01204 0.0
C227 C 0.91655 0.69981 1.00537 0.0
C228 C 0.88677 0.69895 1.0416 0.0
C229 C 0.84251 0.70788 1.03303 0.0
C230 C 0.82732 0.71712 0.9881 0.0
C231 C 0.85738 0.71774 0.95212 0.0
C232 C 0.90157 0.70923 0.96074 0.0
C233 C 0.08917 0.65015 0.09605 0.0
C234 C 0.97585 0.63686 0.17098 0.0
C235 C 0.05378 0.51564 0.17957 0.0
C236 C 0.10541 0.518 0.18557 0.0
C237 C 0.14139 0.55028 0.16018 0.0
C238 C 0.19055 0.55266 0.16588 0.0
C239 C 0.20403 0.52159 0.1959 0.0
C240 C 0.16785 0.4889 0.22086 0.0
C241 C 0.11892 0.48739 0.21601 0.0
C242 C 0.92025 0.53669 0.08813 0.0
C243 C 0.03747 0.56545 1.022 0.0
O244 O 0.95628 0.64488 1.00459 0.0
O245 O 0.99104 0.70435 1.04795 0.0
O246 O 0.04974 0.63044 0.115 0.0
O247 O 0.07856 0.6693 1.05818 0.0
O248 O 0.97274 0.65544 0.12925 0.0
O249 O 0.98966 0.59952 0.17764 0.0
O250 O 0.04435 0.55214 0.19189 0.0
O251 O 0.03195 0.50041 0.14007 0.0
O252 O 0.95596 0.57327 0.08567 0.0
O253 O 0.93527 0.50959 0.11606 0.0
O254 O 0.0471 0.55254 1.06448 0.0
O255 O 1.01355 0.59537 1.01401 0.0
H256 H 0.89748 0.69102 0.07625 0.0
H257 H 0.81991 0.70705 1.06135 0.0
H258 H 0.84708 0.72551 0.9173 0.0
H259 H 0.92399 0.70966 0.93235 0.0
H260 H 0.13125 0.57313 0.13552 0.0
H261 H 0.21775 0.57782 0.14598 0.0
H262 H 0.17754 0.46461 0.24421 0.0
H263 H 0.0916 0.46206 0.23565 0.0
H264 H 0.36625 0.36472 0.30815 0.0
H265 H 0.50177 0.39187 0.38887 0.0
H266 H 0.45961 0.33385 0.4468 0.0
H267 H 0.38216 0.27752 0.47474 0.0
H268 H 0.24858 0.25036 0.38944 0.0
H269 H 0.29195 0.30637 0.3326 0.0
C270 C 0.38627 0.35789 0.3387 0.0
C271 C 0.43646 0.38238 0.34505 0.0
C272 C 0.36215 0.32462 0.37064 0.0
C273 C 0.46293 0.37318 0.38383 0.0
C274 C 0.43883 0.34015 0.41662 0.0
C275 C 0.36285 0.28358 0.44345 0.0
C276 C 0.312 0.26052 0.43671 0.0
C277 C 0.38822 0.31585 0.41047 0.0
C278 C 0.28738 0.26853 0.39596 0.0
C279 C 0.31213 0.30036 0.36334 0.0
H280 H 0.10468 0.84983 0.92313 0.0
H281 H 0.21576 0.91644 0.82852 0.0
H282 H 0.25444 0.97818 0.88192 0.0
H283 H 0.26561 1.0044 0.96013 0.0
H284 H 0.1591 0.93527 1.05864 0.0
H285 H 0.11004 0.88293 0.99974 0.0
C286 C 0.13634 0.87886 0.914 0.0
C287 C 0.1568 0.8794 0.87176 0.0
C288 C 0.16003 0.91288 0.94612 0.0
C289 C 0.19844 0.91637 0.86016 0.0
C290 C 0.22111 0.95115 0.89109 0.0
C291 C 0.23086 0.97896 0.96851 0.0
C292 C 0.21638 0.97343 1.01384 0.0
C293 C 0.20346 0.94863 0.93484 0.0
C294 C 0.17156 0.93967 1.02413 0.0
C295 C 0.14343 0.90982 0.99047 0.0
H296 H 0.64048 0.46215 0.79194 0.0
H297 H 0.54156 0.47511 0.88996 0.0
H298 H 0.5041 0.51534 0.83236 0.0
H299 H 0.50083 0.54906 0.75441 0.0
H300 H 0.60024 0.53711 0.65599 0.0
H301 H 0.63604 0.49482 0.71279 0.0
C302 C 0.61083 0.47399 0.80057 0.0
C303 C 0.59409 0.46598 0.84549 0.0
C304 C 0.58962 0.49751 0.76704 0.0
C305 C 0.55508 0.48086 0.85585 0.0
C306 C 0.53379 0.50401 0.82287 0.0
C307 C 0.53031 0.53718 0.74531 0.0
C308 C 0.5478 0.54659 0.70074 0.0
C309 C 0.55094 0.5129 0.77841 0.0
C310 C 0.58596 0.5306 0.68982 0.0
C311 C 0.60654 0.50636 0.72245 0.0
H312 H 0.9408 0.70073 0.36732 0.0
H313 H 0.91407 0.8114 0.28775 0.0
H314 H 0.93608 0.78217 0.21826 0.0
H315 H 0.95493 0.71944 0.17831 0.0
H316 H 0.97597 0.60647 0.26009 0.0
H317 H 0.96337 0.64128 0.32909 0.0
C318 C 0.94173 0.71954 0.33504 0.0
C319 C 0.92722 0.75936 0.33354 0.0
C320 C 0.95172 0.70081 0.29477 0.0
C321 C 0.92681 0.78198 0.29076 0.0
C322 C 0.93831 0.76441 0.25065 0.0
C323 C 0.95675 0.70231 0.21116 0.0
C324 C 0.96615 0.65956 0.21296 0.0
C325 C 0.94937 0.72288 0.25184 0.0
C326 C 0.96858 0.6388 0.25656 0.0
C327 C 0.9616 0.65897 0.29655 0.0
H328 H 0.42582 0.31713 0.28369 0.0
H329 H 0.56783 0.4104 0.25076 0.0
H330 H 0.59473 0.34449 0.23619 0.0
H331 H 0.57465 0.26004 0.22824 0.0
H332 H 0.43439 0.16869 0.27053 0.0
H333 H 0.41129 0.23449 0.28986 0.0
C334 C 0.46343 0.32333 0.27585 0.0
C335 C 0.49521 0.36865 0.26951 0.0
C336 C 0.47905 0.28554 0.26966 0.0
C337 C 0.54288 0.37568 0.25597 0.0
C338 C 0.55823 0.33807 0.24791 0.0
C339 C 0.53965 0.25446 0.24297 0.0
C340 C 0.50608 0.20935 0.24719 0.0
C341 C 0.52633 0.29271 0.25417 0.0
C342 C 0.46087 0.20291 0.26642 0.0
C343 C 0.44734 0.24058 0.27717 0.0
H344 H 0.06084 0.87365 0.80024 0.0
H345 H 0.19751 0.88848 0.74064 0.0
H346 H 0.1904 0.95307 0.69258 0.0
H347 H 0.14404 1.00302 0.66548 0.0
H348 H 1.00578 0.98842 0.72291 0.0
H349 H 1.0149 0.92656 0.77428 0.0
C350 C 0.08873 0.89122 0.77655 0.0
C351 C 0.12882 0.87583 0.77272 0.0
C352 C 0.08425 0.92838 0.74896 0.0
C353 C 0.16552 0.89898 0.74272 0.0
C354 C 0.1617 0.9361 0.71569 0.0
C355 C 0.11601 0.98672 0.68947 0.0
C356 C 0.07428 1.00034 0.69021 0.0
C357 C 0.12098 0.95073 0.71814 0.0
C358 C 0.03833 0.9786 0.72155 0.0
C359 C 0.04341 0.9431 0.75086 0.0
H360 H 0.71645 0.51448 0.98043 0.0
H361 H 0.71906 0.37617 0.96769 0.0
H362 H 0.79438 0.39469 1.01643 0.0
H363 H 0.86345 0.45205 1.05848 0.0
H364 H 0.86885 0.59385 1.05873 0.0
H365 H 0.78826 0.57316 1.01732 0.0
C366 C 0.73372 0.48845 0.9878 0.0
C367 C 0.71123 0.44361 0.97039 0.0
C368 C 0.77936 0.50051 1.01295 0.0
C369 C 0.73397 0.4103 0.98149 0.0
C370 C 0.77785 0.42126 1.00878 0.0
C371 C 0.84687 0.47837 1.04949 0.0
C372 C 0.87197 0.52445 1.06193 0.0
C373 C 0.80133 0.46642 1.02413 0.0
C374 C 0.85038 0.55827 1.04949 0.0
C375 C 0.80418 0.54633 1.02599 0.0
H376 H 0.75781 0.77222 0.43414 0.0
H377 H 0.81766 0.66167 0.45552 0.0
H378 H 0.74771 0.61806 0.50052 0.0
H379 H 0.67053 0.61254 0.53585 0.0
H380 H 0.61468 0.72662 0.5194 0.0
H381 H 0.68273 0.76831 0.47222 0.0
C382 C 0.75567 0.7388 0.44918 0.0
C383 C 0.7931 0.72039 0.44202 0.0
C384 C 0.71645 0.71491 0.47662 0.0
C385 C 0.7893 0.6765 0.46059 0.0
C386 C 0.74953 0.65178 0.48662 0.0
C387 C 0.67345 0.64671 0.52232 0.0
C388 C 0.63744 0.6664 0.53158 0.0
C389 C 0.71311 0.67085 0.49534 0.0
C390 C 0.64195 0.71069 0.51345 0.0
C391 C 0.68074 0.7345 0.48607 0.0
H392 H 0.42522 0.54182 0.2475 0.0
H393 H 0.37252 0.40111 0.20332 0.0
H394 H 0.29403 0.40903 0.17728 0.0
H395 H 0.23627 0.4519 0.17771 0.0
H396 H 0.28608 0.59194 0.22368 0.0
H397 H 0.36935 0.58856 0.23908 0.0
C398 C 0.39691 0.51357 0.23086 0.0
C399 C 0.40479 0.47113 0.22688 0.0
C400 C 0.35089 0.51787 0.2176 0.0
C401 C 0.36776 0.43442 0.20572 0.0
C402 C 0.32252 0.43867 0.1916 0.0
C403 C 0.26563 0.48178 0.19058 0.0
C404 C 0.25531 0.5218 0.20026 0.0
C405 C 0.31306 0.47955 0.19906 0.0
C406 C 0.29345 0.56068 0.21629 0.0
C407 C 0.34092 0.55871 0.22507 0.0
H408 H 0.57947 0.38332 1.01834 0.0
H409 H 0.64617 0.31935 0.92664 0.0
H410 H 0.61829 0.24647 0.97096 0.0
H411 H 0.56971 0.19884 1.0339 0.0
H412 H 0.49874 0.26292 0.12223 0.0
H413 H 0.5332 0.33678 0.08215 0.0
C414 C 0.58885 0.35367 1.00891 0.0
C415 C 0.61658 0.35731 0.97025 0.0
C416 C 0.57118 0.31132 1.03391 0.0
C417 C 0.62651 0.3179 0.9572 0.0
C418 C 0.61006 0.27606 0.98234 0.0
C419 C 0.56223 0.22908 1.04458 0.0
C420 C 0.53129 0.22489 0.08113 0.0
C421 C 0.58169 0.27197 1.02054 0.0
C422 C 0.52194 0.26468 0.09412 0.0
C423 C 0.54177 0.30721 1.07117 0.0
H424 H 0.97377 0.82423 0.46999 0.0
H425 H 0.927 0.87576 0.34313 0.0
H426 H 0.96708 0.95538 0.36839 0.0
H427 H 1.00402 1.01039 0.43251 0.0
H428 H 0.03501 0.95481 0.56412 0.0
H429 H 1.0112 0.87777 0.53246 0.0
C430 C 0.97418 0.85303 0.44711 0.0
C431 C 0.94789 0.84347 0.40418 0.0
C432 C 0.99248 0.89845 0.4641 0.0
C433 C 0.94789 0.88149 0.37561 0.0
C434 C 0.96965 0.92721 0.39081 0.0
C435 C 1.00565 0.98139 0.45417 0.0
C436 C 1.02117 0.98882 0.50101 0.0
C437 C 0.99002 0.93614 0.43592 0.0
C438 C 0.02279 0.9505 0.52834 0.0
C439 C 1.00953 0.90626 0.51006 0.0
H440 H 0.16284 0.69997 0.78474 0.0
H441 H 0.25748 0.83091 0.83518 0.0
H442 H 0.32919 0.81544 0.8108 0.0
H443 H 0.36339 0.77034 0.76579 0.0
H444 H 0.27047 0.63972 0.71237 0.0
H445 H 0.19967 0.64947 0.74661 0.0
C446 C 0.1994 0.72429 0.79123 0.0
C447 C 0.20516 0.76609 0.81224 0.0
C448 C 0.24054 0.71577 0.77566 0.0
C449 C 0.25248 0.79799 0.82008 0.0
C450 C 0.29339 0.78945 0.8056 0.0
C451 C 0.32802 0.7433 0.76262 0.0
C452 C 0.3222 0.70472 0.73608 0.0
C453 C 0.28767 0.74919 0.7821 0.0
C454 C 0.27576 0.67036 0.73183 0.0
C455 C 0.23529 0.67578 0.75155 0.0
H456 H 0.627 0.83793 0.8088 0.0
H457 H 0.72677 0.89161 0.92409 0.0
H458 H 0.79606 0.91393 0.87491 0.0
H459 H 0.82637 0.92891 0.79815 0.0
H460 H 0.72534 0.88662 0.68079 0.0
H461 H 0.65893 0.84828 0.73115 0.0
C462 C 0.66414 0.8538 0.8229 0.0
C463 C 0.67206 0.86259 0.8699 0.0
C464 C 0.70348 0.86904 0.79385 0.0
C465 C 0.72008 0.88337 0.88821 0.0
C466 C 0.75958 0.89671 0.85998 0.0
C467 C 0.78989 0.91104 0.78351 0.0
C468 C 0.78074 0.91149 0.73578 0.0
C469 C 0.75145 0.89129 0.81259 0.0
C470 C 0.73357 0.88688 0.71738 0.0
C471 C 0.69538 0.86536 0.7462 0.0
H472 H 0.85014 0.31253 0.45847 0.0
H473 H 0.96933 0.38778 0.37561 0.0
H474 H 0.92856 0.34055 0.30925 0.0
H475 H 0.85554 0.28129 0.27464 0.0
H476 H 0.7353 0.20941 0.3593 0.0
H477 H 0.78049 0.25076 0.4258 0.0
C478 C 0.8674 0.31758 0.42598 0.0
C479 C 0.91236 0.35275 0.42131 0.0
C480 C 0.84356 0.29098 0.38866 0.0
C481 C 0.9347 0.36038 0.37939 0.0
C482 C 0.91132 0.3336 0.34175 0.0
C483 C 0.83939 0.2746 0.3077 0.0
C484 C 0.79208 0.24223 0.31191 0.0
C485 C 0.86518 0.29936 0.34583 0.0
C486 C 0.77189 0.2335 0.35511 0.0
C487 C 0.79748 0.25745 0.39315 0.0
H488 H 0.45761 0.71588 0.32217 0.0
H489 H 0.37495 0.7708 0.40608 0.0
H490 H 0.39591 0.72899 0.47339 0.0
H491 H 0.43011 0.66815 0.50656 0.0
H492 H 0.51187 0.61403 0.41931 0.0
H493 H 0.49837 0.66267 0.35617 0.0
C494 C 0.44623 0.72045 0.35569 0.0
C495 C 0.41593 0.74775 0.35907 0.0
C496 C 0.45677 0.69459 0.39378 0.0
C497 C 0.39973 0.75151 0.4026 0.0
C498 C 0.41081 0.72656 0.44097 0.0
C499 C 0.44533 0.66731 0.47394 0.0
C500 C 0.47178 0.63657 0.46832 0.0
C501 C 0.43796 0.69651 0.43678 0.0
C502 C 0.49104 0.63656 0.42527 0.0
C503 C 0.48359 0.66478 0.38876 0.0
H504 H 0.09922 0.5156 0.83007 0.0
H505 H 0.1201 0.40213 0.90982 0.0
H506 H 0.09496 0.43016 0.97832 0.0
H507 H 0.06763 0.48833 1.01644 0.0
H508 H 0.04562 0.60068 0.93457 0.0
H509 H 0.07089 0.57239 0.86728 0.0
C510 C 0.09832 0.49703 0.86247 0.0
C511 C 0.11167 0.45662 0.86449 0.0
C512 C 0.08377 0.51351 0.90187 0.0
C513 C 0.10968 0.43292 0.90691 0.0
C514 C 0.09555 0.44923 0.94627 0.0
C515 C 0.0685 0.50676 0.98395 0.0
C516 C 0.05455 0.54703 0.98134 0.0
C517 C 0.08264 0.48972 0.94439 0.0
C518 C 0.05578 0.56976 0.93834 0.0
C519 C 0.07034 0.55352 0.89947 0.0
H520 H 0.4971 0.88417 0.96858 0.0
H521 H 0.64483 0.96947 0.94273 0.0
H522 H 0.63317 1.03402 0.98052 0.0
H523 H 0.58423 1.06349 1.02719 0.0
H524 H 0.43761 0.97789 1.05817 0.0
H525 H 0.44508 0.91641 1.01178 0.0
C526 C 0.52619 0.9172 0.97088 0.0
C527 C 0.57151 0.92255 0.9527 0.0
C528 C 0.51953 0.95387 0.99377 0.0
C529 C 0.60942 0.96516 0.95592 0.0
C530 C 0.60287 1.00184 0.97776 0.0
C531 C 0.55356 1.03168 1.02337 0.0
C532 C 0.51065 1.02518 1.04647 0.0
C533 C 0.55851 0.99626 0.99766 0.0
C534 C 0.47117 0.98379 1.04082 0.0
C535 C 0.4755 0.94849 1.0145 0.0
H536 H 0.02692 0.34941 0.46912 0.0
H537 H 0.89054 0.29192 0.53518 0.0
H538 H 0.90074 0.21599 0.53973 0.0
H539 H 0.95015 0.16738 0.52866 0.0
H540 H 0.09132 0.22508 0.47017 0.0
H541 H 0.07725 0.29927 0.4574 0.0
C542 C 1.00001 0.32011 0.48485 0.0
C543 C 0.9588 0.32599 0.50298 0.0
C544 C 1.00657 0.27668 0.48778 0.0
C545 C 0.92326 0.28805 0.52247 0.0
C546 C 0.92879 0.2447 0.52447 0.0
C547 C 0.97739 0.19575 0.51199 0.0
C548 C 1.0214 0.19057 0.49972 0.0
C549 C 0.97042 0.23871 0.50753 0.0
C550 C 0.05683 0.22812 0.4793 0.0
C551 C 0.04905 0.27063 0.47256 0.0
H552 H 0.30921 0.73116 0.17543 0.0
H553 H 0.23692 0.69773 0.30234 0.0
H554 H 0.15764 0.66321 0.26057 0.0
H555 H 0.10831 0.64776 0.18785 0.0
H556 H 0.17928 0.68601 1.06028 0.0
H557 H 0.25955 0.71394 0.10198 0.0
C558 C 0.27594 0.71613 0.19367 0.0
C559 C 0.27856 0.71713 0.24179 0.0
C560 C 0.23036 0.69774 0.16925 0.0
C561 C 0.23553 0.69725 0.26533 0.0
C562 C 0.19032 0.67779 0.24144 0.0
C563 C 0.14139 0.6619 0.16915 0.0
C564 C 0.13793 0.66482 0.12099 0.0
C565 C 0.18716 0.67862 0.1934 0.0
C566 C 0.18106 0.6835 0.0973 0.0
C567 C 0.2269 0.69941 0.12116 0.0
H568 H 0.23784 0.40578 0.73349 0.0
H569 H 0.17938 0.51689 0.70797 0.0
H570 H 0.24661 0.55652 0.65884 0.0
H571 H 0.32643 0.56313 0.62854 0.0
H572 H 0.38291 0.44998 0.64967 0.0
H573 H 0.31236 0.40761 0.69402 0.0
C574 C 0.2392 0.43801 0.71613 0.0
C575 C 0.20402 0.45875 0.7251 0.0
C576 C 0.27808 0.46057 0.68732 0.0
C577 C 0.20643 0.50064 0.70232 0.0
C578 C 0.24496 0.52336 0.67422 0.0
C579 C 0.323 0.52891 0.64225 0.0
C580 C 0.36038 0.51007 0.63579 0.0
C581 C 0.28181 0.50432 0.66742 0.0
C582 C 0.35485 0.46546 0.65376 0.0
C583 C 0.31447 0.44118 0.67943 0.0
H584 H 0.64199 0.76374 0.90593 0.0
H585 H 0.68422 0.85898 1.01672 0.0
H586 H 0.74666 0.82585 1.04529 0.0
H587 H 0.79545 0.77586 1.0336 0.0
H588 H 0.75689 0.68347 0.92005 0.0
H589 H 0.68724 0.70937 0.89742 0.0
C590 C 0.66432 0.77632 0.93685 0.0
C591 C 0.65785 0.81283 0.95984 0.0
C592 C 0.70137 0.75817 0.95205 0.0
C593 C 0.68738 0.82975 0.99944 0.0
C594 C 0.72361 0.81131 1.01535 0.0
C595 C 0.77113 0.76068 1.00454 0.0
C596 C 0.78143 0.7281 0.97836 0.0
C597 C 0.73168 0.77624 0.99133 0.0
C598 C 0.75 0.7091 0.94038 0.0
C599 C 0.71017 0.72381 0.92747 0.0
H600 H 0.38259 0.87834 0.31816 0.0
H601 H 0.48198 0.81403 0.27243 0.0
H602 H 0.53378 0.88851 0.24142 0.0
H603 H 0.54338 0.96943 0.21628 0.0
H604 H 0.43914 1.03152 0.25648 0.0
H605 H 0.39605 0.96082 0.29908 0.0
C606 C 0.41663 0.88109 0.30289 0.0
C607 C 0.4284 0.84036 0.29797 0.0
C608 C 0.44427 0.92357 0.28228 0.0
C609 C 0.47242 0.84461 0.27763 0.0
C610 C 0.50139 0.88717 0.25884 0.0
C611 C 0.51151 0.9677 0.23476 0.0
C612 C 0.49448 1.00606 0.23274 0.0
C613 C 0.48648 0.92644 0.25906 0.0
C614 C 0.45308 1.00284 0.25705 0.0
C615 C 0.42847 0.9623 0.28164 0.0
H616 H 0.16101 0.31944 0.77319 0.0
H617 H 0.08719 0.39479 0.68623 0.0
H618 H 0.05679 0.32947 0.63424 0.0
H619 H 0.04713 0.24871 0.61574 0.0
H620 H 0.12491 0.1744 0.69987 0.0
H621 H 0.15812 0.24089 0.75009 0.0
C622 C 0.13895 0.32164 0.74241 0.0
C623 C 0.1265 0.36211 0.73343 0.0
C624 C 0.12207 0.28382 0.71224 0.0
C625 C 0.09759 0.36435 0.69359 0.0
C626 C 0.08002 0.32682 0.66403 0.0
C627 C 0.0718 0.24721 0.64482 0.0
C628 C 0.08313 0.20616 0.65404 0.0
C629 C 0.0914 0.28605 0.67327 0.0
C630 C 0.11552 0.20527 0.69173 0.0
C631 C 0.13437 0.24337 0.72066 0.0
H632 H 0.89439 0.49904 0.52304 0.0
H633 H 0.84237 0.35358 0.55595 0.0
H634 H 0.76385 0.35826 0.57601 0.0
H635 H 0.70588 0.40066 0.57199 0.0
H636 H 0.75525 0.54589 0.53623 0.0
H637 H 0.83818 0.54424 0.52822 0.0
C638 C 0.8662 0.4689 0.53598 0.0
C639 C 0.87433 0.42626 0.53874 0.0
C640 C 0.82008 0.47145 0.54536 0.0
C641 C 0.83746 0.38704 0.55487 0.0
C642 C 0.79219 0.38953 0.56548 0.0
C643 C 0.73492 0.43229 0.56359 0.0
C644 C 0.72399 0.47312 0.55395 0.0
C645 C 0.78247 0.43113 0.55913 0.0
C646 C 0.76225 0.51362 0.5426 0.0
C647 C 0.80984 0.51283 0.53839 0.0
loop_
_geom_bond_atom_site_label_1
_geom_bond_atom_site_label_2
_geom_bond_distance
_geom_bond_site_symmetry_2
_ccdc_geom_bond_type
C0 N1 1.317 . S
C0 N2 1.348 . S
C0 C3 1.485 . S
N1 C0 1.317 . S
N1 N5 1.370 . S
N2 C0 1.348 . S
N2 C4 1.346 . S
C3 C0 1.485 . S
C3 H7 0.960 . S
C3 H8 0.961 . S
C3 H9 0.960 . S
C4 N2 1.346 . S
C4 N5 1.307 . S
C4 C6 1.486 . S
N5 N1 1.370 . S
N5 C4 1.307 . S
C6 C4 1.486 . S
C6 H10 0.960 . S
C6 H11 0.960 . S
C6 H12 0.959 . S
H7 C3 0.960 . S
H8 C3 0.961 . S
H9 C3 0.960 . S
H10 C6 0.960 . S
H11 C6 0.960 . S
H12 C6 0.959 . S
C13 N14 1.317 . S
C13 N15 1.348 . S
C13 C16 1.485 . S
N14 C13 1.317 . S
N14 N18 1.370 . S
N15 C13 1.348 . S
N15 C17 1.346 . S
C16 C13 1.485 . S
C16 H20 0.960 . S
C16 H21 0.961 . S
C16 H22 0.960 . S
C17 N15 1.346 . S
C17 N18 1.307 . S
C17 C19 1.486 . S
N18 N14 1.370 . S
N18 C17 1.307 . S
C19 C17 1.486 . S
C19 H23 0.960 . S
C19 H24 0.960 . S
C19 H25 0.959 . S
H20 C16 0.960 . S
H21 C16 0.961 . S
H22 C16 0.960 . S
H23 C19 0.960 . S
H24 C19 0.960 . S
H25 C19 0.959 . S
C26 N27 1.317 . S
C26 N28 1.348 . S
C26 C29 1.485 . S
N27 C26 1.317 . S
N27 N31 1.370 . S
N28 C26 1.348 . S
N28 C30 1.346 . S
C29 C26 1.485 . S
C29 H33 0.960 . S
C29 H34 0.961 . S
C29 H35 0.960 . S
C30 N28 1.346 . S
C30 N31 1.307 . S
C30 C32 1.486 . S
N31 N27 1.370 . S
N31 C30 1.307 . S
C32 C30 1.486 . S
C32 H36 0.960 . S
C32 H37 0.960 . S
C32 H38 0.959 . S
H33 C29 0.960 . S
H34 C29 0.961 . S
H35 C29 0.960 . S
H36 C32 0.960 . S
H37 C32 0.960 . S
H38 C32 0.959 . S
C39 N40 1.317 . S
C39 N41 1.348 . S
C39 C42 1.485 . S
N40 C39 1.317 . S
N40 N44 1.370 . S
N41 C39 1.348 . S
N41 C43 1.346 . S
C42 C39 1.485 . S
C42 H46 0.960 . S
C42 H47 0.961 . S
C42 H48 0.960 . S
C43 N41 1.346 . S
C43 N44 1.307 . S
C43 C45 1.486 . S
N44 N40 1.370 . S
N44 C43 1.307 . S
C45 C43 1.486 . S
C45 H49 0.960 . S
C45 H50 0.960 . S
C45 H51 0.959 . S
H46 C42 0.960 . S
H47 C42 0.961 . S
H48 C42 0.960 . S
H49 C45 0.960 . S
H50 C45 0.960 . S
H51 C45 0.959 . S
C52 N53 1.317 . S
C52 N54 1.348 . S
C52 C55 1.485 . S
N53 C52 1.317 . S
N53 N57 1.370 . S
N54 C52 1.348 . S
N54 C56 1.346 . S
C55 C52 1.485 . S
C55 H59 0.960 . S
C55 H60 0.961 . S
C55 H61 0.960 . S
C56 N54 1.346 . S
C56 N57 1.307 . S
C56 C58 1.486 . S
N57 N53 1.370 . S
N57 C56 1.307 . S
C58 C56 1.486 . S
C58 H62 0.960 . S
C58 H63 0.960 . S
C58 H64 0.959 . S
H59 C55 0.960 . S
H60 C55 0.961 . S
H61 C55 0.960 . S
H62 C58 0.960 . S
H63 C58 0.960 . S
H64 C58 0.959 . S
C65 N66 1.317 . S
C65 N67 1.348 . S
C65 C68 1.485 . S
N66 C65 1.317 . S
N66 N70 1.370 . S
N67 C65 1.348 . S
N67 C69 1.346 . S
C68 C65 1.485 . S
C68 H72 0.960 . S
C68 H73 0.961 . S
C68 H74 0.960 . S
C69 N67 1.346 . S
C69 N70 1.307 . S
C69 C71 1.486 . S
N70 N66 1.370 . S
N70 C69 1.307 . S
C71 C69 1.486 . S
C71 H75 0.960 . S
C71 H76 0.960 . S
C71 H77 0.959 . S
H72 C68 0.960 . S
H73 C68 0.961 . S
H74 C68 0.960 . S
H75 C71 0.960 . S
H76 C71 0.960 . S
H77 C71 0.959 . S
C78 N79 1.317 . S
C78 N80 1.348 . S
C78 C81 1.485 . S
N79 C78 1.317 . S
N79 N83 1.370 . S
N80 C78 1.348 . S
N80 C82 1.346 . S
C81 C78 1.485 . S
C81 H85 0.960 . S
C81 H86 0.961 . S
C81 H87 0.960 . S
C82 N80 1.346 . S
C82 N83 1.307 . S
C82 C84 1.486 . S
N83 N79 1.370 . S
N83 C82 1.307 . S
C84 C82 1.486 . S
C84 H88 0.960 . S
C84 H89 0.960 . S
C84 H90 0.959 . S
H85 C81 0.960 . S
H86 C81 0.961 . S
H87 C81 0.960 . S
H88 C84 0.960 . S
H89 C84 0.960 . S
H90 C84 0.959 . S
C91 N92 1.317 . S
C91 N93 1.348 . S
C91 C94 1.485 . S
N92 C91 1.317 . S
N92 N96 1.370 . S
N93 C91 1.348 . S
N93 C95 1.346 . S
C94 C91 1.485 . S
C94 H98 0.960 . S
C94 H99 0.961 . S
C94 H100 0.960 . S
C95 N93 1.346 . S
C95 N96 1.307 . S
C95 C97 1.486 . S
N96 N92 1.370 . S
N96 C95 1.307 . S
C97 C95 1.486 . S
C97 H101 0.960 . S
C97 H102 0.960 . S
C97 H103 0.959 . S
H98 C94 0.960 . S
H99 C94 0.961 . S
H100 C94 0.960 . S
H101 C97 0.960 . S
H102 C97 0.960 . S
H103 C97 0.959 . S
Tb104 C106 2.809 1_545 S
Tb104 O124 2.484 1_545 S
Tb104 O125 2.440 1_545 S
Tb104 O126 2.658 1_655 S
Tb104 O127 2.409 1_655 S
Tb104 O128 2.378 1_645 S
Tb104 O132 2.325 1_645 S
Tb104 O135 2.341 . S
Tb105 C115 2.809 . S
Tb105 O126 2.325 . S
Tb105 O129 2.341 1_545 S
Tb105 O130 2.484 . S
Tb105 O131 2.440 . S
Tb105 O132 2.658 1_545 S
Tb105 O133 2.409 1_545 S
Tb105 O134 2.378 . S
C106 Tb104 2.809 1_565 S
C106 C107 1.514 . S
C106 O124 1.248 . S
C106 O125 1.266 . S
C107 C106 1.514 . S
C107 C108 1.359 . S
C107 C112 1.348 . S
C108 C107 1.359 . S
C108 C109 1.380 . S
C108 H136 0.929 . S
C109 C108 1.380 . S
C109 C110 1.347 . S
C109 H137 0.931 . S
C110 C109 1.347 . S
C110 C111 1.369 . S
C111 C110 1.369 . S
C111 C112 1.408 . S
C111 H138 0.930 . S
C112 C107 1.348 . S
C112 C111 1.408 . S
C112 H139 0.930 . S
C113 O126 1.281 . S
C113 O127 1.254 . S
C114 O128 1.236 . S
C114 O129 1.266 . S
C115 Tb105 2.809 . S
C115 C116 1.514 . S
C115 O130 1.248 . S
C115 O131 1.266 . S
C116 C115 1.514 . S
C116 C117 1.359 . S
C116 C121 1.348 . S
C117 C116 1.359 . S
C117 C118 1.380 . S
C117 H140 0.929 . S
C118 C117 1.380 . S
C118 C119 1.347 . S
C118 H141 0.931 . S
C119 C118 1.347 . S
C119 C120 1.369 . S
C120 C119 1.369 . S
C120 C121 1.408 . S
C120 H142 0.930 . S
C121 C116 1.348 . S
C121 C120 1.408 . S
C121 H143 0.930 . S
C122 O132 1.281 . S
C122 O133 1.254 . S
C123 O134 1.236 . S
C123 O135 1.266 1_455 S
O124 Tb104 2.484 1_565 S
O124 C106 1.248 . S
O125 Tb104 2.440 1_565 S
O125 C106 1.266 . S
O126 Tb104 2.658 1_455 S
O126 Tb105 2.325 . S
O126 C113 1.281 . S
O127 Tb104 2.409 1_455 S
O127 C113 1.254 . S
O128 Tb104 2.378 1_465 S
O128 C114 1.236 . S
O129 Tb105 2.341 1_565 S
O129 C114 1.266 . S
O130 Tb105 2.484 . S
O130 C115 1.248 . S
O131 Tb105 2.440 . S
O131 C115 1.266 . S
O132 Tb104 2.325 1_465 S
O132 Tb105 2.658 1_565 S
O132 C122 1.281 . S
O133 Tb105 2.409 1_565 S
O133 C122 1.254 . S
O134 Tb105 2.378 . S
O134 C123 1.236 . S
O135 Tb104 2.341 . S
O135 C123 1.266 1_655 S
H136 C108 0.929 . S
H137 C109 0.931 . S
H138 C111 0.930 . S
H139 C112 0.930 . S
H140 C117 0.929 . S
H141 C118 0.931 . S
H142 C120 0.930 . S
H143 C121 0.930 . S
Tb144 C146 2.809 . S
Tb144 O164 2.484 . S
Tb144 O165 2.440 . S
Tb144 O166 2.658 1_545 S
Tb144 O167 2.409 1_545 S
Tb144 O168 2.378 . S
Tb144 O172 2.325 . S
Tb144 O175 2.341 1_545 S
Tb145 C155 2.809 1_544 S
Tb145 O166 2.325 1_545 S
Tb145 O169 2.341 . S
Tb145 O170 2.484 1_545 S
Tb145 O171 2.440 1_554 S
Tb145 O172 2.658 . S
Tb145 O173 2.409 1_554 S
Tb145 O174 2.374 1_545 S
C146 Tb144 2.809 . S
C146 C147 1.514 . S
C146 O164 1.248 . S
C146 O165 1.266 . S
C147 C146 1.514 . S
C147 C148 1.359 . S
C147 C152 1.348 . S
C148 C147 1.359 . S
C148 C149 1.380 . S
C148 H176 0.929 . S
C149 C148 1.380 . S
C149 C150 1.347 . S
C149 H177 0.931 . S
C150 C149 1.347 . S
C150 C151 1.369 . S
C151 C150 1.369 . S
C151 C152 1.408 . S
C151 H178 0.930 . S
C152 C147 1.348 . S
C152 C151 1.408 . S
C152 H179 0.930 . S
C153 O166 1.281 . S
C153 O167 1.254 . S
C154 O168 1.236 . S
C154 O169 1.266 . S
C155 Tb145 2.809 1_566 S
C155 C156 1.514 . S
C155 O170 1.248 1_556 S
C155 O171 1.266 1_565 S
C156 C155 1.514 . S
C156 C157 1.359 . S
C156 C161 1.348 . S
C157 C156 1.359 . S
C157 C158 1.380 . S
C157 H180 0.929 . S
C158 C157 1.380 . S
C158 C159 1.347 . S
C158 H181 0.931 . S
C159 C158 1.347 . S
C159 C160 1.369 . S
C160 C159 1.369 . S
C160 C161 1.408 . S
C160 H182 0.930 . S
C161 C156 1.348 . S
C161 C160 1.408 . S
C161 H183 0.930 . S
C162 O172 1.281 . S
C162 O173 1.254 1_554 S
C163 O174 1.240 . S
C163 O175 1.266 . S
O164 Tb144 2.484 . S
O164 C146 1.248 . S
O165 Tb144 2.440 . S
O165 C146 1.266 . S
O166 Tb144 2.658 1_565 S
O166 Tb145 2.325 1_565 S
O166 C153 1.281 . S
O167 Tb144 2.409 1_565 S
O167 C153 1.254 . S
O168 Tb144 2.378 . S
O168 C154 1.236 . S
O169 Tb145 2.341 . S
O169 C154 1.266 . S
O170 Tb145 2.484 1_565 S
O170 C155 1.248 1_554 S
O171 Tb145 2.440 1_556 S
O171 C155 1.266 1_545 S
O172 Tb144 2.325 . S
O172 Tb145 2.658 . S
O172 C162 1.281 . S
O173 Tb145 2.409 1_556 S
O173 C162 1.254 1_556 S
O174 Tb145 2.374 1_565 S
O174 C163 1.240 . S
O175 Tb144 2.341 1_565 S
O175 C163 1.266 . S
H176 C148 0.929 . S
H177 C149 0.931 . S
H178 C151 0.930 . S
H179 C152 0.930 . S
H180 C157 0.929 . S
H181 C158 0.931 . S
H182 C160 0.930 . S
H183 C161 0.930 . S
Tb184 C186 2.809 . S
Tb184 O204 2.484 . S
Tb184 O205 2.440 . S
Tb184 O206 2.658 . S
Tb184 O207 2.409 . S
Tb184 O208 2.378 . S
Tb184 O212 2.325 . S
Tb184 O215 2.341 . S
Tb185 C195 2.809 . S
Tb185 O206 2.325 . S
Tb185 O209 2.341 . S
Tb185 O210 2.484 . S
Tb185 O211 2.440 . S
Tb185 O212 2.658 . S
Tb185 O213 2.409 . S
Tb185 O214 2.378 . S
C186 Tb184 2.809 . S
C186 C187 1.514 . S
C186 O204 1.248 . S
C186 O205 1.266 . S
C187 C186 1.514 . S
C187 C188 1.359 . S
C187 C192 1.348 . S
C188 C187 1.359 . S
C188 C189 1.380 . S
C188 H216 0.929 . S
C189 C188 1.380 . S
C189 C190 1.347 . S
C189 H217 0.931 . S
C190 C189 1.347 . S
C190 C191 1.369 . S
C191 C190 1.369 . S
C191 C192 1.408 . S
C191 H218 0.930 . S
C192 C187 1.348 . S
C192 C191 1.408 . S
C192 H219 0.930 . S
C193 O206 1.281 . S
C193 O207 1.254 . S
C194 O208 1.236 . S
C194 O209 1.266 . S
C195 Tb185 2.809 . S
C195 C196 1.514 . S
C195 O210 1.248 . S
C195 O211 1.266 . S
C196 C195 1.514 . S
C196 C197 1.359 . S
C196 C201 1.348 . S
C197 C196 1.359 . S
C197 C198 1.380 . S
C197 H220 0.929 . S
C198 C197 1.380 . S
C198 C199 1.347 . S
C198 H221 0.931 . S
C199 C198 1.347 . S
C199 C200 1.369 . S
C200 C199 1.369 . S
C200 C201 1.408 . S
C200 H222 0.930 . S
C201 C196 1.348 . S
C201 C200 1.408 . S
C201 H223 0.930 . S
C202 O212 1.281 . S
C202 O213 1.254 . S
C203 O214 1.236 . S
C203 O215 1.266 . S
O204 Tb184 2.484 . S
O204 C186 1.248 . S
O205 Tb184 2.440 . S
O205 C186 1.266 . S
O206 Tb184 2.658 . S
O206 Tb185 2.325 . S
O206 C193 1.281 . S
O207 Tb184 2.409 . S
O207 C193 1.254 . S
O208 Tb184 2.378 . S
O208 C194 1.236 . S
O209 Tb185 2.341 . S
O209 C194 1.266 . S
O210 Tb185 2.484 . S
O210 C195 1.248 . S
O211 Tb185 2.440 . S
O211 C195 1.266 . S
O212 Tb184 2.325 . S
O212 Tb185 2.658 . S
O212 C202 1.281 . S
O213 Tb185 2.409 . S
O213 C202 1.254 . S
O214 Tb185 2.378 . S
O214 C203 1.236 . S
O215 Tb184 2.341 . S
O215 C203 1.266 . S
H216 C188 0.929 . S
H217 C189 0.931 . S
H218 C191 0.930 . S
H219 C192 0.930 . S
H220 C197 0.929 . S
H221 C198 0.931 . S
H222 C200 0.930 . S
H223 C201 0.930 . S
Tb224 C226 2.809 . S
Tb224 O244 2.484 . S
Tb224 O245 2.440 . S
Tb224 O246 2.658 1_656 S
Tb224 O247 2.409 1_656 S
Tb224 O248 2.378 1_556 S
Tb224 O252 2.325 . S
Tb224 O255 2.341 1_655 S
Tb225 C235 2.809 . S
Tb225 O246 2.325 . S
Tb225 O249 2.341 1_455 S
Tb225 O250 2.484 . S
Tb225 O251 2.440 . S
Tb225 O252 2.658 1_454 S
Tb225 O253 2.409 1_455 S
Tb225 O254 2.378 1_554 S
C226 Tb224 2.809 . S
C226 C227 1.514 . S
C226 O244 1.248 . S
C226 O245 1.266 . S
C227 C226 1.514 . S
C227 C228 1.359 . S
C227 C232 1.348 . S
C228 C227 1.359 . S
C228 C229 1.380 . S
C228 H256 0.929 . S
C229 C228 1.380 . S
C229 C230 1.347 . S
C229 H257 0.931 . S
C230 C229 1.347 . S
C230 C231 1.369 . S
C231 C230 1.369 . S
C231 C232 1.408 . S
C231 H258 0.930 . S
C232 C227 1.348 . S
C232 C231 1.408 . S
C232 H259 0.930 . S
C233 O246 1.281 . S
C233 O247 1.254 . S
C234 O248 1.236 . S
C234 O249 1.266 . S
C235 Tb225 2.809 . S
C235 C236 1.514 . S
C235 O250 1.248 . S
C235 O251 1.266 . S
C236 C235 1.514 . S
C236 C237 1.359 . S
C236 C241 1.348 . S
C237 C236 1.359 . S
C237 C238 1.380 . S
C237 H260 0.929 . S
C238 C237 1.380 . S
C238 C239 1.347 . S
C238 H261 0.931 . S
C239 C238 1.347 . S
C239 C240 1.369 . S
C240 C239 1.369 . S
C240 C241 1.408 . S
C240 H262 0.930 . S
C241 C236 1.348 . S
C241 C240 1.408 . S
C241 H263 0.930 . S
C242 O252 1.281 . S
C242 O253 1.254 1_556 S
C243 O254 1.236 . S
C243 O255 1.266 . S
O244 Tb224 2.484 . S
O244 C226 1.248 . S
O245 Tb224 2.440 . S
O245 C226 1.266 . S
O246 Tb224 2.658 1_454 S
O246 Tb225 2.325 . S
O246 C233 1.281 . S
O247 Tb224 2.409 1_454 S
O247 C233 1.254 . S
O248 Tb224 2.378 1_554 S
O248 C234 1.236 . S
O249 Tb225 2.341 1_655 S
O249 C234 1.266 . S
O250 Tb225 2.484 . S
O250 C235 1.248 . S
O251 Tb225 2.440 . S
O251 C235 1.266 . S
O252 Tb224 2.325 . S
O252 Tb225 2.658 1_656 S
O252 C242 1.281 . S
O253 Tb225 2.409 1_655 S
O253 C242 1.254 1_554 S
O254 Tb225 2.378 1_556 S
O254 C243 1.236 . S
O255 Tb224 2.341 1_455 S
O255 C243 1.266 . S
H256 C228 0.929 . S
H257 C229 0.931 . S
H258 C231 0.930 . S
H259 C232 0.930 . S
H260 C237 0.929 . S
H261 C238 0.931 . S
H262 C240 0.930 . S
H263 C241 0.930 . S
H264 C270 0.930 . S
H265 C273 0.930 . S
H266 C274 0.930 . S
H267 C275 0.930 . S
H268 C278 0.930 . S
H269 C279 0.930 . S
C270 H264 0.930 . S
C270 C271 1.355 . S
C270 C272 1.415 . S
C271 C270 1.355 . S
C271 C273 1.419 . S
C272 C270 1.415 . S
C272 C277 1.425 . S
C272 C279 1.409 . S
C273 H265 0.930 . S
C273 C271 1.419 . S
C273 C274 1.362 . S
C274 H266 0.930 . S
C274 C273 1.362 . S
C274 C277 1.409 . S
C275 H267 0.930 . S
C275 C276 1.355 . S
C275 C277 1.415 . S
C276 C275 1.355 . S
C276 C278 1.419 . S
C277 C272 1.425 . S
C277 C274 1.409 . S
C277 C275 1.415 . S
C278 H268 0.930 . S
C278 C276 1.419 . S
C278 C279 1.362 . S
C279 H269 0.930 . S
C279 C272 1.409 . S
C279 C278 1.362 . S
H280 C286 0.930 . S
H281 C289 0.930 . S
H282 C290 0.930 . S
H283 C291 0.930 . S
H284 C294 0.930 . S
H285 C295 0.930 . S
C286 H280 0.930 . S
C286 C287 1.355 . S
C286 C288 1.415 . S
C287 C286 1.355 . S
C287 C289 1.419 . S
C288 C286 1.415 . S
C288 C293 1.425 . S
C288 C295 1.409 . S
C289 H281 0.930 . S
C289 C287 1.419 . S
C289 C290 1.362 . S
C290 H282 0.930 . S
C290 C289 1.362 . S
C290 C293 1.409 . S
C291 H283 0.930 . S
C291 C292 1.355 . S
C291 C293 1.415 . S
C292 C291 1.355 . S
C292 C294 1.419 . S
C293 C288 1.425 . S
C293 C290 1.409 . S
C293 C291 1.415 . S
C294 H284 0.930 . S
C294 C292 1.419 . S
C294 C295 1.362 . S
C295 H285 0.930 . S
C295 C288 1.409 . S
C295 C294 1.362 . S
H296 C302 0.930 . S
H297 C305 0.930 . S
H298 C306 0.930 . S
H299 C307 0.930 . S
H300 C310 0.930 . S
H301 C311 0.930 . S
C302 H296 0.930 . S
C302 C303 1.355 . S
C302 C304 1.415 . S
C303 C302 1.355 . S
C303 C305 1.419 . S
C304 C302 1.415 . S
C304 C309 1.425 . S
C304 C311 1.409 . S
C305 H297 0.930 . S
C305 C303 1.419 . S
C305 C306 1.362 . S
C306 H298 0.930 . S
C306 C305 1.362 . S
C306 C309 1.409 . S
C307 H299 0.930 . S
C307 C308 1.355 . S
C307 C309 1.415 . S
C308 C307 1.355 . S
C308 C310 1.419 . S
C309 C304 1.425 . S
C309 C306 1.409 . S
C309 C307 1.415 . S
C310 H300 0.930 . S
C310 C308 1.419 . S
C310 C311 1.362 . S
C311 H301 0.930 . S
C311 C304 1.409 . S
C311 C310 1.362 . S
H312 C318 0.930 . S
H313 C321 0.930 . S
H314 C322 0.930 . S
H315 C323 0.930 . S
H316 C326 0.930 . S
H317 C327 0.930 . S
C318 H312 0.930 . S
C318 C319 1.355 . S
C318 C320 1.415 . S
C319 C318 1.355 . S
C319 C321 1.419 . S
C320 C318 1.415 . S
C320 C325 1.425 . S
C320 C327 1.409 . S
C321 H313 0.930 . S
C321 C319 1.419 . S
C321 C322 1.362 . S
C322 H314 0.930 . S
C322 C321 1.362 . S
C322 C325 1.409 . S
C323 H315 0.930 . S
C323 C324 1.355 . S
C323 C325 1.415 . S
C324 C323 1.355 . S
C324 C326 1.419 . S
C325 C320 1.425 . S
C325 C322 1.409 . S
C325 C323 1.415 . S
C326 H316 0.930 . S
C326 C324 1.419 . S
C326 C327 1.362 . S
C327 H317 0.930 . S
C327 C320 1.409 . S
C327 C326 1.362 . S
H328 C334 0.930 . S
H329 C337 0.930 . S
H330 C338 0.930 . S
H331 C339 0.930 . S
H332 C342 0.930 . S
H333 C343 0.930 . S
C334 H328 0.930 . S
C334 C335 1.355 . S
C334 C336 1.415 . S
C335 C334 1.355 . S
C335 C337 1.419 . S
C336 C334 1.415 . S
C336 C341 1.425 . S
C336 C343 1.409 . S
C337 H329 0.930 . S
C337 C335 1.419 . S
C337 C338 1.362 . S
C338 H330 0.930 . S
C338 C337 1.362 . S
C338 C341 1.409 . S
C339 H331 0.930 . S
C339 C340 1.355 . S
C339 C341 1.415 . S
C340 C339 1.355 . S
C340 C342 1.419 . S
C341 C336 1.425 . S
C341 C338 1.409 . S
C341 C339 1.415 . S
C342 H332 0.930 . S
C342 C340 1.419 . S
C342 C343 1.362 . S
C343 H333 0.930 . S
C343 C336 1.409 . S
C343 C342 1.362 . S
H344 C350 0.930 . S
H345 C353 0.930 . S
H346 C354 0.930 . S
H347 C355 0.930 . S
H348 C358 0.930 . S
H349 C359 0.930 . S
C350 H344 0.930 . S
C350 C351 1.355 . S
C350 C352 1.415 . S
C351 C350 1.355 . S
C351 C353 1.419 . S
C352 C350 1.415 . S
C352 C357 1.425 . S
C352 C359 1.409 . S
C353 H345 0.930 . S
C353 C351 1.419 . S
C353 C354 1.362 . S
C354 H346 0.930 . S
C354 C353 1.362 . S
C354 C357 1.409 . S
C355 H347 0.930 . S
C355 C356 1.355 . S
C355 C357 1.415 . S
C356 C355 1.355 . S
C356 C358 1.419 . S
C357 C352 1.425 . S
C357 C354 1.409 . S
C357 C355 1.415 . S
C358 H348 0.930 . S
C358 C356 1.419 . S
C358 C359 1.362 . S
C359 H349 0.930 . S
C359 C352 1.409 . S
C359 C358 1.362 . S
H360 C366 0.930 . S
H361 C369 0.930 . S
H362 C370 0.930 . S
H363 C371 0.930 . S
H364 C374 0.930 1_554 S
H365 C375 0.930 . S
C366 H360 0.930 . S
C366 C367 1.355 . S
C366 C368 1.415 . S
C367 C366 1.355 . S
C367 C369 1.419 . S
C368 C366 1.415 . S
C368 C373 1.425 . S
C368 C375 1.409 . S
C369 H361 0.930 . S
C369 C367 1.419 . S
C369 C370 1.362 . S
C370 H362 0.930 . S
C370 C369 1.362 . S
C370 C373 1.409 . S
C371 H363 0.930 . S
C371 C372 1.355 . S
C371 C373 1.415 . S
C372 C371 1.355 . S
C372 C374 1.419 . S
C373 C368 1.425 . S
C373 C370 1.409 . S
C373 C371 1.415 . S
C374 H364 0.930 1_556 S
C374 C372 1.419 . S
C374 C375 1.362 . S
C375 H365 0.930 . S
C375 C368 1.409 . S
C375 C374 1.362 . S
H376 C382 0.930 . S
H377 C385 0.930 . S
H378 C386 0.930 . S
H379 C387 0.930 . S
H380 C390 0.930 . S
H381 C391 0.930 . S
C382 H376 0.930 . S
C382 C383 1.355 . S
C382 C384 1.415 . S
C383 C382 1.355 . S
C383 C385 1.419 . S
C384 C382 1.415 . S
C384 C389 1.425 . S
C384 C391 1.409 . S
C385 H377 0.930 . S
C385 C383 1.419 . S
C385 C386 1.362 . S
C386 H378 0.930 . S
C386 C385 1.362 . S
C386 C389 1.409 . S
C387 H379 0.930 . S
C387 C388 1.355 . S
C387 C389 1.415 . S
C388 C387 1.355 . S
C388 C390 1.419 . S
C389 C384 1.425 . S
C389 C386 1.409 . S
C389 C387 1.415 . S
C390 H380 0.930 . S
C390 C388 1.419 . S
C390 C391 1.362 . S
C391 H381 0.930 . S
C391 C384 1.409 . S
C391 C390 1.362 . S
H392 C398 0.930 . S
H393 C401 0.930 . S
H394 C402 0.930 . S
H395 C403 0.930 . S
H396 C406 0.930 . S
H397 C407 0.930 . S
C398 H392 0.930 . S
C398 C399 1.355 . S
C398 C400 1.415 . S
C399 C398 1.355 . S
C399 C401 1.419 . S
C400 C398 1.415 . S
C400 C405 1.425 . S
C400 C407 1.409 . S
C401 H393 0.930 . S
C401 C399 1.419 . S
C401 C402 1.362 . S
C402 H394 0.930 . S
C402 C401 1.362 . S
C402 C405 1.409 . S
C403 H395 0.930 . S
C403 C404 1.355 . S
C403 C405 1.415 . S
C404 C403 1.355 . S
C404 C406 1.419 . S
C405 C400 1.425 . S
C405 C402 1.409 . S
C405 C403 1.415 . S
C406 H396 0.930 . S
C406 C404 1.419 . S
C406 C407 1.362 . S
C407 H397 0.930 . S
C407 C400 1.409 . S
C407 C406 1.362 . S
H408 C414 0.930 . S
H409 C417 0.930 . S
H410 C418 0.930 . S
H411 C419 0.930 . S
H412 C422 0.930 . S
H413 C423 0.930 . S
C414 H408 0.930 . S
C414 C415 1.355 . S
C414 C416 1.415 . S
C415 C414 1.355 . S
C415 C417 1.419 . S
C416 C414 1.415 . S
C416 C421 1.425 . S
C416 C423 1.409 . S
C417 H409 0.930 . S
C417 C415 1.419 . S
C417 C418 1.362 . S
C418 H410 0.930 . S
C418 C417 1.362 . S
C418 C421 1.409 . S
C419 H411 0.930 . S
C419 C420 1.355 . S
C419 C421 1.415 . S
C420 C419 1.355 . S
C420 C422 1.419 . S
C421 C416 1.425 . S
C421 C418 1.409 . S
C421 C419 1.415 . S
C422 H412 0.930 . S
C422 C420 1.419 . S
C422 C423 1.362 . S
C423 H413 0.930 . S
C423 C416 1.409 . S
C423 C422 1.362 . S
H424 C430 0.930 . S
H425 C433 0.930 . S
H426 C434 0.930 . S
H427 C435 0.930 . S
H428 C438 0.930 1_455 S
H429 C439 0.930 1_455 S
C430 H424 0.930 . S
C430 C431 1.355 . S
C430 C432 1.415 . S
C431 C430 1.355 . S
C431 C433 1.419 . S
C432 C430 1.415 . S
C432 C437 1.425 . S
C432 C439 1.409 . S
C433 H425 0.930 . S
C433 C431 1.419 . S
C433 C434 1.362 . S
C434 H426 0.930 . S
C434 C433 1.362 . S
C434 C437 1.409 . S
C435 H427 0.930 . S
C435 C436 1.355 . S
C435 C437 1.415 . S
C436 C435 1.355 . S
C436 C438 1.419 . S
C437 C432 1.425 . S
C437 C434 1.409 . S
C437 C435 1.415 . S
C438 H428 0.930 1_655 S
C438 C436 1.419 . S
C438 C439 1.362 . S
C439 H429 0.930 1_655 S
C439 C432 1.409 . S
C439 C438 1.362 . S
H440 C446 0.930 . S
H441 C449 0.930 . S
H442 C450 0.930 . S
H443 C451 0.930 . S
H444 C454 0.930 . S
H445 C455 0.930 . S
C446 H440 0.930 . S
C446 C447 1.355 . S
C446 C448 1.415 . S
C447 C446 1.355 . S
C447 C449 1.419 . S
C448 C446 1.415 . S
C448 C453 1.425 . S
C448 C455 1.409 . S
C449 H441 0.930 . S
C449 C447 1.419 . S
C449 C450 1.362 . S
C450 H442 0.930 . S
C450 C449 1.362 . S
C450 C453 1.409 . S
C451 H443 0.930 . S
C451 C452 1.355 . S
C451 C453 1.415 . S
C452 C451 1.355 . S
C452 C454 1.419 . S
C453 C448 1.425 . S
C453 C450 1.409 . S
C453 C451 1.415 . S
C454 H444 0.930 . S
C454 C452 1.419 . S
C454 C455 1.362 . S
C455 H445 0.930 . S
C455 C448 1.409 . S
C455 C454 1.362 . S
H456 C462 0.930 . S
H457 C465 0.930 . S
H458 C466 0.930 . S
H459 C467 0.930 . S
H460 C470 0.930 . S
H461 C471 0.930 . S
C462 H456 0.930 . S
C462 C463 1.355 . S
C462 C464 1.415 . S
C463 C462 1.355 . S
C463 C465 1.419 . S
C464 C462 1.415 . S
C464 C469 1.425 . S
C464 C471 1.409 . S
C465 H457 0.930 . S
C465 C463 1.419 . S
C465 C466 1.362 . S
C466 H458 0.930 . S
C466 C465 1.362 . S
C466 C469 1.409 . S
C467 H459 0.930 . S
C467 C468 1.355 . S
C467 C469 1.415 . S
C468 C467 1.355 . S
C468 C470 1.419 . S
C469 C464 1.425 . S
C469 C466 1.409 . S
C469 C467 1.415 . S
C470 H460 0.930 . S
C470 C468 1.419 . S
C470 C471 1.362 . S
C471 H461 0.930 . S
C471 C464 1.409 . S
C471 C470 1.362 . S
H472 C478 0.930 . S
H473 C481 0.930 . S
H474 C482 0.930 . S
H475 C483 0.930 . S
H476 C486 0.930 . S
H477 C487 0.930 . S
C478 H472 0.930 . S
C478 C479 1.355 . S
C478 C480 1.415 . S
C479 C478 1.355 . S
C479 C481 1.419 . S
C480 C478 1.415 . S
C480 C485 1.425 . S
C480 C487 1.409 . S
C481 H473 0.930 . S
C481 C479 1.419 . S
C481 C482 1.362 . S
C482 H474 0.930 . S
C482 C481 1.362 . S
C482 C485 1.409 . S
C483 H475 0.930 . S
C483 C484 1.355 . S
C483 C485 1.415 . S
C484 C483 1.355 . S
C484 C486 1.419 . S
C485 C480 1.425 . S
C485 C482 1.409 . S
C485 C483 1.415 . S
C486 H476 0.930 . S
C486 C484 1.419 . S
C486 C487 1.362 . S
C487 H477 0.930 . S
C487 C480 1.409 . S
C487 C486 1.362 . S
H488 C494 0.930 . S
H489 C497 0.930 . S
H490 C498 0.930 . S
H491 C499 0.930 . S
H492 C502 0.930 . S
H493 C503 0.930 . S
C494 H488 0.930 . S
C494 C495 1.355 . S
C494 C496 1.415 . S
C495 C494 1.355 . S
C495 C497 1.419 . S
C496 C494 1.415 . S
C496 C501 1.425 . S
C496 C503 1.409 . S
C497 H489 0.930 . S
C497 C495 1.419 . S
C497 C498 1.362 . S
C498 H490 0.930 . S
C498 C497 1.362 . S
C498 C501 1.409 . S
C499 H491 0.930 . S
C499 C500 1.355 . S
C499 C501 1.415 . S
C500 C499 1.355 . S
C500 C502 1.419 . S
C501 C496 1.425 . S
C501 C498 1.409 . S
C501 C499 1.415 . S
C502 H492 0.930 . S
C502 C500 1.419 . S
C502 C503 1.362 . S
C503 H493 0.930 . S
C503 C496 1.409 . S
C503 C502 1.362 . S
H504 C510 0.930 . S
H505 C513 0.930 . S
H506 C514 0.930 . S
H507 C515 0.930 . S
H508 C518 0.930 . S
H509 C519 0.930 . S
C510 H504 0.930 . S
C510 C511 1.355 . S
C510 C512 1.415 . S
C511 C510 1.355 . S
C511 C513 1.419 . S
C512 C510 1.415 . S
C512 C517 1.425 . S
C512 C519 1.409 . S
C513 H505 0.930 . S
C513 C511 1.419 . S
C513 C514 1.362 . S
C514 H506 0.930 . S
C514 C513 1.362 . S
C514 C517 1.409 . S
C515 H507 0.930 . S
C515 C516 1.355 . S
C515 C517 1.415 . S
C516 C515 1.355 . S
C516 C518 1.419 . S
C517 C512 1.425 . S
C517 C514 1.409 . S
C517 C515 1.415 . S
C518 H508 0.930 . S
C518 C516 1.419 . S
C518 C519 1.362 . S
C519 H509 0.930 . S
C519 C512 1.409 . S
C519 C518 1.362 . S
H520 C526 0.930 . S
H521 C529 0.930 . S
H522 C530 0.930 1_554 S
H523 C531 0.930 . S
H524 C534 0.930 . S
H525 C535 0.930 . S
C526 H520 0.930 . S
C526 C527 1.355 . S
C526 C528 1.415 . S
C527 C526 1.355 . S
C527 C529 1.419 . S
C528 C526 1.415 . S
C528 C533 1.425 . S
C528 C535 1.409 . S
C529 H521 0.930 . S
C529 C527 1.419 . S
C529 C530 1.362 . S
C530 H522 0.930 1_556 S
C530 C529 1.362 . S
C530 C533 1.409 . S
C531 H523 0.930 . S
C531 C532 1.355 1_554 S
C531 C533 1.415 1_554 S
C532 C531 1.355 1_556 S
C532 C534 1.419 . S
C533 C528 1.425 . S
C533 C530 1.409 . S
C533 C531 1.415 1_556 S
C534 H524 0.930 . S
C534 C532 1.419 . S
C534 C535 1.362 . S
C535 H525 0.930 . S
C535 C528 1.409 . S
C535 C534 1.362 . S
H536 C542 0.930 . S
H537 C545 0.930 . S
H538 C546 0.930 . S
H539 C547 0.930 . S
H540 C550 0.930 . S
H541 C551 0.928 1_455 S
C542 H536 0.930 . S
C542 C543 1.355 . S
C542 C544 1.415 . S
C543 C542 1.355 . S
C543 C545 1.419 . S
C544 C542 1.415 . S
C544 C549 1.425 . S
C544 C551 1.409 . S
C545 H537 0.930 . S
C545 C543 1.419 . S
C545 C546 1.362 . S
C546 H538 0.930 . S
C546 C545 1.362 . S
C546 C549 1.409 . S
C547 H539 0.930 . S
C547 C548 1.355 . S
C547 C549 1.415 . S
C548 C547 1.355 . S
C548 C550 1.419 1_655 S
C549 C544 1.425 . S
C549 C546 1.409 . S
C549 C547 1.415 . S
C550 H540 0.930 . S
C550 C548 1.419 1_455 S
C550 C551 1.362 1_455 S
C551 H541 0.928 1_655 S
C551 C544 1.409 . S
C551 C550 1.362 1_655 S
H552 C558 0.930 . S
H553 C561 0.930 . S
H554 C562 0.930 . S
H555 C563 0.930 . S
H556 C566 0.930 . S
H557 C567 0.930 . S
C558 H552 0.930 . S
C558 C559 1.355 . S
C558 C560 1.415 . S
C559 C558 1.355 . S
C559 C561 1.419 . S
C560 C558 1.415 . S
C560 C565 1.425 . S
C560 C567 1.409 . S
C561 H553 0.930 . S
C561 C559 1.419 . S
C561 C562 1.362 . S
C562 H554 0.930 . S
C562 C561 1.362 . S
C562 C565 1.409 . S
C563 H555 0.930 . S
C563 C564 1.355 . S
C563 C565 1.415 . S
C564 C563 1.355 . S
C564 C566 1.419 . S
C565 C560 1.425 . S
C565 C562 1.409 . S
C565 C563 1.415 . S
C566 H556 0.930 . S
C566 C564 1.419 . S
C566 C567 1.362 . S
C567 H557 0.930 . S
C567 C560 1.409 . S
C567 C566 1.362 . S
H568 C574 0.930 . S
H569 C577 0.930 . S
H570 C578 0.930 . S
H571 C579 0.930 . S
H572 C582 0.930 . S
H573 C583 0.930 . S
C574 H568 0.930 . S
C574 C575 1.355 . S
C574 C576 1.415 . S
C575 C574 1.355 . S
C575 C577 1.419 . S
C576 C574 1.415 . S
C576 C581 1.425 . S
C576 C583 1.409 . S
C577 H569 0.930 . S
C577 C575 1.419 . S
C577 C578 1.362 . S
C578 H570 0.930 . S
C578 C577 1.362 . S
C578 C581 1.409 . S
C579 H571 0.930 . S
C579 C580 1.355 . S
C579 C581 1.415 . S
C580 C579 1.355 . S
C580 C582 1.419 . S
C581 C576 1.425 . S
C581 C578 1.409 . S
C581 C579 1.415 . S
C582 H572 0.930 . S
C582 C580 1.419 . S
C582 C583 1.362 . S
C583 H573 0.930 . S
C583 C576 1.409 . S
C583 C582 1.362 . S
H584 C590 0.930 . S
H585 C593 0.930 . S
H586 C594 0.930 . S
H587 C595 0.930 . S
H588 C598 0.930 . S
H589 C599 0.930 . S
C590 H584 0.930 . S
C590 C591 1.355 . S
C590 C592 1.415 . S
C591 C590 1.355 . S
C591 C593 1.419 . S
C592 C590 1.415 . S
C592 C597 1.425 . S
C592 C599 1.409 . S
C593 H585 0.930 . S
C593 C591 1.419 . S
C593 C594 1.362 . S
C594 H586 0.930 . S
C594 C593 1.362 . S
C594 C597 1.409 . S
C595 H587 0.930 . S
C595 C596 1.355 . S
C595 C597 1.415 . S
C596 C595 1.355 . S
C596 C598 1.419 . S
C597 C592 1.425 . S
C597 C594 1.409 . S
C597 C595 1.415 . S
C598 H588 0.930 . S
C598 C596 1.419 . S
C598 C599 1.362 . S
C599 H589 0.930 . S
C599 C592 1.409 . S
C599 C598 1.362 . S
H600 C606 0.930 . S
H601 C609 0.930 . S
H602 C610 0.930 . S
H603 C611 0.930 . S
H604 C614 0.930 . S
H605 C615 0.930 . S
C606 H600 0.930 . S
C606 C607 1.355 . S
C606 C608 1.415 . S
C607 C606 1.355 . S
C607 C609 1.419 . S
C608 C606 1.415 . S
C608 C613 1.425 . S
C608 C615 1.409 . S
C609 H601 0.930 . S
C609 C607 1.419 . S
C609 C610 1.362 . S
C610 H602 0.930 . S
C610 C609 1.362 . S
C610 C613 1.409 . S
C611 H603 0.930 . S
C611 C612 1.355 . S
C611 C613 1.415 . S
C612 C611 1.355 . S
C612 C614 1.419 . S
C613 C608 1.425 . S
C613 C610 1.409 . S
C613 C611 1.415 . S
C614 H604 0.930 . S
C614 C612 1.419 . S
C614 C615 1.362 . S
C615 H605 0.930 . S
C615 C608 1.409 . S
C615 C614 1.362 . S
H616 C622 0.930 . S
H617 C625 0.930 . S
H618 C626 0.930 . S
H619 C627 0.930 . S
H620 C630 0.930 . S
H621 C631 0.930 . S
C622 H616 0.930 . S
C622 C623 1.355 . S
C622 C624 1.415 . S
C623 C622 1.355 . S
C623 C625 1.419 . S
C624 C622 1.415 . S
C624 C629 1.425 . S
C624 C631 1.409 . S
C625 H617 0.930 . S
C625 C623 1.419 . S
C625 C626 1.362 . S
C626 H618 0.930 . S
C626 C625 1.362 . S
C626 C629 1.409 . S
C627 H619 0.930 . S
C627 C628 1.355 . S
C627 C629 1.415 . S
C628 C627 1.355 . S
C628 C630 1.419 . S
C629 C624 1.425 . S
C629 C626 1.409 . S
C629 C627 1.415 . S
C630 H620 0.930 . S
C630 C628 1.419 . S
C630 C631 1.362 . S
C631 H621 0.930 . S
C631 C624 1.409 . S
C631 C630 1.362 . S
H632 C638 0.930 . S
H633 C641 0.930 . S
H634 C642 0.930 . S
H635 C643 0.930 . S
H636 C646 0.930 . S
H637 C647 0.930 . S
C638 H632 0.930 . S
C638 C639 1.355 . S
C638 C640 1.415 . S
C639 C638 1.355 . S
C639 C641 1.419 . S
C640 C638 1.415 . S
C640 C645 1.425 . S
C640 C647 1.409 . S
C641 H633 0.930 . S
C641 C639 1.419 . S
C641 C642 1.362 . S
C642 H634 0.930 . S
C642 C641 1.362 . S
C642 C645 1.409 . S
C643 H635 0.930 . S
C643 C644 1.355 . S
C643 C645 1.415 . S
C644 C643 1.355 . S
C644 C646 1.419 . S
C645 C640 1.425 . S
C645 C642 1.409 . S
C645 C643 1.415 . S
C646 H636 0.930 . S
C646 C644 1.419 . S
C646 C647 1.362 . S
C647 H637 0.930 . S
C647 C640 1.409 . S
C647 C646 1.362 . S
C271 N1 0.997 . S
C276 C119 1.066 . S
C287 N18 1.077 . S
C292 C159 1.106 . S
C308 C193 1.959 . S
C303 N28 1.974 . S
C319 N40 2.821 . S
C324 C234 2.800 . S
C340 C154 1.636 . S
C335 N5 1.643 . S
C356 C114 1.739 . S
C351 N14 1.613 . S
C372 C242 1.711 . S
C367 N31 1.727 . S
C388 C203 1.596 . S
C383 N41 1.651 . S
C399 N2 1.162 . S
C404 C239 1.166 . S
C420 C162 2.199 1_556 S
C415 N27 2.289 . S
C431 N44 2.470 . S
C436 C122 2.495 1_655 S
C447 N15 1.168 . S
C452 C190 1.204 . S
C468 C110 1.586 . S
C463 N57 1.631 . S
C479 N70 0.874 . S
C484 C150 0.939 . S
C495 N79 2.217 . S
C500 C202 2.268 . S
C511 N93 2.582 . S
C516 C243 2.499 . S
C527 N54 1.273 . S
C532 C163 1.350 1_556 S
C548 C123 2.284 1_655 S
C543 N66 2.229 . S
C564 C233 1.340 . S
C559 N80 1.338 . S
C580 C194 1.735 . S
C575 N96 1.828 . S
C591 N53 1.271 . S
C596 C230 1.326 . S
C612 C153 1.811 . S
C607 N83 1.767 . S
C628 C113 2.451 . S
C623 N92 2.629 . S
C639 N67 1.523 . S
C644 C199 1.569 . S
