# Generated by pormake.
# Topology ctn, (3,4)-cn, num edge types: 1
# Building blocks:
#     Node 0, Type 0, BuildingBlock: BETDAH_clean_linker_0, # of connection points: 3
#     Node 1, Type 0, BuildingBlock: BETDAH_clean_linker_0, # of connection points: 3
#     Node 2, Type 0, BuildingBlock: BETDAH_clean_linker_0, # of connection points: 3
#     Node 3, Type 0, BuildingBlock: BETDAH_clean_linker_0, # of connection points: 3
#     Node 4, Type 0, BuildingBlock: BETDAH_clean_linker_0, # of connection points: 3
#     Node 5, Type 0, BuildingBlock: BETDAH_clean_linker_0, # of connection points: 3
#     Node 6, Type 0, BuildingBlock: BETDAH_clean_linker_0, # of connection points: 3
#     Node 7, Type 0, BuildingBlock: BETDAH_clean_linker_0, # of connection points: 3
#     Node 8, Type 0, BuildingBlock: BETDAH_clean_linker_0, # of connection points: 3
#     Node 9, Type 0, BuildingBlock: BETDAH_clean_linker_0, # of connection points: 3
#     Node 10, Type 0, BuildingBlock: BETDAH_clean_linker_0, # of connection points: 3
#     Node 11, Type 0, BuildingBlock: BETDAH_clean_linker_0, # of connection points: 3
#     Node 12, Type 0, BuildingBlock: BETDAH_clean_linker_0, # of connection points: 3
#     Node 13, Type 0, BuildingBlock: BETDAH_clean_linker_0, # of connection points: 3
#     Node 14, Type 0, BuildingBlock: BETDAH_clean_linker_0, # of connection points: 3
#     Node 15, Type 0, BuildingBlock: BETDAH_clean_linker_0, # of connection points: 3
#     Node 16, Type 1, BuildingBlock: NAHDIM_clean_sbu_0, # of connection points: 4
#     Node 17, Type 1, BuildingBlock: NAHDIM_clean_sbu_0, # of connection points: 4
#     Node 18, Type 1, BuildingBlock: NAHDIM_clean_sbu_0, # of connection points: 4
#     Node 19, Type 1, BuildingBlock: NAHDIM_clean_sbu_0, # of connection points: 4
#     Node 20, Type 1, BuildingBlock: NAHDIM_clean_sbu_0, # of connection points: 4
#     Node 21, Type 1, BuildingBlock: NAHDIM_clean_sbu_0, # of connection points: 4
#     Node 22, Type 1, BuildingBlock: NAHDIM_clean_sbu_0, # of connection points: 4
#     Node 23, Type 1, BuildingBlock: NAHDIM_clean_sbu_0, # of connection points: 4
#     Node 24, Type 1, BuildingBlock: NAHDIM_clean_sbu_0, # of connection points: 4
#     Node 25, Type 1, BuildingBlock: NAHDIM_clean_sbu_0, # of connection points: 4
#     Node 26, Type 1, BuildingBlock: NAHDIM_clean_sbu_0, # of connection points: 4
#     Node 27, Type 1, BuildingBlock: NAHDIM_clean_sbu_0, # of connection points: 4
#     Edge 28, Type (0, 1), BuildingBlock: UVAHIK_clean_linker_0, # of connection points: 2
#     Edge 29, Type (0, 1), BuildingBlock: UVAHIK_clean_linker_0, # of connection points: 2
#     Edge 30, Type (0, 1), BuildingBlock: UVAHIK_clean_linker_0, # of connection points: 2
#     Edge 31, Type (0, 1), BuildingBlock: UVAHIK_clean_linker_0, # of connection points: 2
#     Edge 32, Type (0, 1), BuildingBlock: UVAHIK_clean_linker_0, # of connection points: 2
#     Edge 33, Type (0, 1), BuildingBlock: UVAHIK_clean_linker_0, # of connection points: 2
#     Edge 34, Type (0, 1), BuildingBlock: UVAHIK_clean_linker_0, # of connection points: 2
#     Edge 35, Type (0, 1), BuildingBlock: UVAHIK_clean_linker_0, # of connection points: 2
#     Edge 36, Type (0, 1), BuildingBlock: UVAHIK_clean_linker_0, # of connection points: 2
#     Edge 37, Type (0, 1), BuildingBlock: UVAHIK_clean_linker_0, # of connection points: 2
#     Edge 38, Type (0, 1), BuildingBlock: UVAHIK_clean_linker_0, # of connection points: 2
#     Edge 39, Type (0, 1), BuildingBlock: UVAHIK_clean_linker_0, # of connection points: 2
#     Edge 40, Type (0, 1), BuildingBlock: UVAHIK_clean_linker_0, # of connection points: 2
#     Edge 41, Type (0, 1), BuildingBlock: UVAHIK_clean_linker_0, # of connection points: 2
#     Edge 42, Type (0, 1), BuildingBlock: UVAHIK_clean_linker_0, # of connection points: 2
#     Edge 43, Type (0, 1), BuildingBlock: UVAHIK_clean_linker_0, # of connection points: 2
#     Edge 44, Type (0, 1), BuildingBlock: UVAHIK_clean_linker_0, # of connection points: 2
#     Edge 45, Type (0, 1), BuildingBlock: UVAHIK_clean_linker_0, # of connection points: 2
#     Edge 46, Type (0, 1), BuildingBlock: UVAHIK_clean_linker_0, # of connection points: 2
#     Edge 47, Type (0, 1), BuildingBlock: UVAHIK_clean_linker_0, # of connection points: 2
#     Edge 48, Type (0, 1), BuildingBlock: UVAHIK_clean_linker_0, # of connection points: 2
#     Edge 49, Type (0, 1), BuildingBlock: UVAHIK_clean_linker_0, # of connection points: 2
#     Edge 50, Type (0, 1), BuildingBlock: UVAHIK_clean_linker_0, # of connection points: 2
#     Edge 51, Type (0, 1), BuildingBlock: UVAHIK_clean_linker_0, # of connection points: 2
#     Edge 52, Type (0, 1), BuildingBlock: UVAHIK_clean_linker_0, # of connection points: 2
#     Edge 53, Type (0, 1), BuildingBlock: UVAHIK_clean_linker_0, # of connection points: 2
#     Edge 54, Type (0, 1), BuildingBlock: UVAHIK_clean_linker_0, # of connection points: 2
#     Edge 55, Type (0, 1), BuildingBlock: UVAHIK_clean_linker_0, # of connection points: 2
#     Edge 56, Type (0, 1), BuildingBlock: UVAHIK_clean_linker_0, # of connection points: 2
#     Edge 57, Type (0, 1), BuildingBlock: UVAHIK_clean_linker_0, # of connection points: 2
#     Edge 58, Type (0, 1), BuildingBlock: UVAHIK_clean_linker_0, # of connection points: 2
#     Edge 59, Type (0, 1), BuildingBlock: UVAHIK_clean_linker_0, # of connection points: 2
#     Edge 60, Type (0, 1), BuildingBlock: UVAHIK_clean_linker_0, # of connection points: 2
#     Edge 61, Type (0, 1), BuildingBlock: UVAHIK_clean_linker_0, # of connection points: 2
#     Edge 62, Type (0, 1), BuildingBlock: UVAHIK_clean_linker_0, # of connection points: 2
#     Edge 63, Type (0, 1), BuildingBlock: UVAHIK_clean_linker_0, # of connection points: 2
#     Edge 64, Type (0, 1), BuildingBlock: UVAHIK_clean_linker_0, # of connection points: 2
#     Edge 65, Type (0, 1), BuildingBlock: UVAHIK_clean_linker_0, # of connection points: 2
#     Edge 66, Type (0, 1), BuildingBlock: UVAHIK_clean_linker_0, # of connection points: 2
#     Edge 67, Type (0, 1), BuildingBlock: UVAHIK_clean_linker_0, # of connection points: 2
#     Edge 68, Type (0, 1), BuildingBlock: UVAHIK_clean_linker_0, # of connection points: 2
#     Edge 69, Type (0, 1), BuildingBlock: UVAHIK_clean_linker_0, # of connection points: 2
#     Edge 70, Type (0, 1), BuildingBlock: UVAHIK_clean_linker_0, # of connection points: 2
#     Edge 71, Type (0, 1), BuildingBlock: UVAHIK_clean_linker_0, # of connection points: 2
#     Edge 72, Type (0, 1), BuildingBlock: UVAHIK_clean_linker_0, # of connection points: 2
#     Edge 73, Type (0, 1), BuildingBlock: UVAHIK_clean_linker_0, # of connection points: 2
#     Edge 74, Type (0, 1), BuildingBlock: UVAHIK_clean_linker_0, # of connection points: 2
#     Edge 75, Type (0, 1), BuildingBlock: UVAHIK_clean_linker_0, # of connection points: 2
# Relax obj value: 0.048
# Max RMSD: 0.161
# Mean RMSD: 0.102
data_MOF--net-ctn--node1-NAHDIM_clean_sbu_0--node2-BETDAH_clean_linker_0--edge1-UVAHIK_clean_linker_0
_symmetry_space_group_name_H-M    P1
_symmetry_Int_Tables_number       1
_symmetry_cell_setting            triclinic
loop_
_symmetry_equiv_pos_as_xyz
'x, y, z'
_cell_length_a     70.034263
_cell_length_b     70.24489
_cell_length_c     70.600212
_cell_angle_alpha  99.583972
_cell_angle_beta   90.393964
_cell_angle_gamma 96.659662
loop_
_atom_site_label
_atom_site_type_symbol
_atom_site_fract_x
_atom_site_fract_y
_atom_site_fract_z
_atom_type_partial_charge
H0 H 0.06994 0.04611 0.0899 0.0
H1 H 0.06078 0.04374 0.0291 0.0
H2 H 0.01772 0.06255 0.06837 0.0
C3 C 0.06104 0.04821 0.07798 0.0
C4 C 0.04313 0.05504 0.08162 0.0
C5 C 0.06744 0.04361 0.0591 0.0
C6 C 0.05632 0.04744 0.04378 0.0
C7 C 0.03854 0.0546 0.04729 0.0
C8 C 0.03189 0.05797 0.06605 0.0
N9 N 0.02613 0.05645 0.03198 0.0
C10 C 0.03126 0.0684 0.0186 0.0
H11 H 0.318 0.70428 0.2497 0.0
H12 H 0.3555 0.741 0.21931 0.0
H13 H 0.29794 0.72069 0.19765 0.0
C14 C 0.32041 0.71245 0.23801 0.0
C15 C 0.30582 0.71138 0.22401 0.0
C16 C 0.33845 0.72299 0.23645 0.0
C17 C 0.34168 0.73272 0.22073 0.0
C18 C 0.32705 0.73239 0.20702 0.0
C19 C 0.30911 0.72155 0.20857 0.0
N20 N 0.33116 0.74256 0.19152 0.0
C21 C 0.31768 0.75142 0.18264 0.0
H22 H 0.02089 0.45354 0.03632 0.0
H23 H 0.0198 0.51552 0.04488 0.0
H24 H 0.99741 0.4805 0.9922 0.0
C25 C 0.01704 0.46636 0.03126 0.0
C26 C 0.00872 0.46461 0.01273 0.0
C27 C 0.02088 0.48461 0.04314 0.0
C28 C 0.01637 0.50123 0.03625 0.0
C29 C 0.00779 0.49967 0.01805 0.0
C30 C 0.00387 0.48143 0.00636 0.0
N31 N 0.00447 0.51673 0.01105 0.0
C32 C 0.98608 0.52193 0.00962 0.0
H33 H 0.78496 0.82712 0.19941 0.0
H34 H 0.72943 0.8006 0.21351 0.0
H35 H 0.74946 0.85934 0.23921 0.0
C36 C 0.77191 0.8278 0.20753 0.0
C37 C 0.76915 0.84509 0.21981 0.0
C38 C 0.75764 0.81167 0.20503 0.0
C39 C 0.74051 0.81292 0.21526 0.0
C40 C 0.73762 0.83023 0.22754 0.0
C41 C 0.75182 0.84618 0.22954 0.0
N42 N 0.72047 0.8324 0.23782 0.0
C43 C 0.70819 0.81717 0.24284 0.0
H44 H 0.0638 0.00987 0.46927 0.0
H45 H 0.06587 0.98255 0.5194 0.0
H46 H 0.01162 0.98478 0.49176 0.0
C47 C 0.05653 0.00212 0.47971 0.0
C48 C 0.03644 0.99764 0.47835 0.0
C49 C 0.06731 0.99696 0.49458 0.0
C50 C 0.05774 0.98672 0.50797 0.0
C51 C 0.03762 0.98223 0.50678 0.0
C52 C 0.02715 0.98796 0.49221 0.0
N53 N 0.02729 0.97243 0.52023 0.0
C54 C 0.03513 0.96055 0.5313 0.0
H55 H 0.25014 0.71418 0.84826 0.0
H56 H 0.20526 0.73612 0.81922 0.0
H57 H 0.23692 0.69236 0.78855 0.0
C58 C 0.24138 0.71393 0.83548 0.0
C59 C 0.24507 0.70158 0.81851 0.0
C60 C 0.22708 0.72649 0.83593 0.0
C61 C 0.21635 0.72656 0.819 0.0
C62 C 0.21998 0.71422 0.80188 0.0
C63 C 0.23434 0.70192 0.80176 0.0
N64 N 0.20962 0.71372 0.78442 0.0
C65 C 0.19388 0.72364 0.78249 0.0
H66 H 0.9657 0.55489 0.50734 0.0
H67 H 0.01866 0.55447 0.47651 0.0
H68 H 0.98106 0.50144 0.47572 0.0
C69 C 0.97545 0.54726 0.49784 0.0
C70 C 0.97116 0.52717 0.49179 0.0
C71 C 0.99271 0.55727 0.4927 0.0
C72 C 0.00537 0.54695 0.48068 0.0
C73 C 0.00108 0.52677 0.47452 0.0
C74 C 0.98421 0.51701 0.48042 0.0
N75 N 0.01362 0.51565 0.46289 0.0
C76 C 0.02672 0.52306 0.4505 0.0
H77 H 0.82636 0.75543 0.81155 0.0
H78 H 0.79762 0.78673 0.77446 0.0
H79 H 0.76875 0.76876 0.82302 0.0
C80 C 0.81379 0.76177 0.80772 0.0
C81 C 0.79766 0.76113 0.81942 0.0
C82 C 0.81396 0.77087 0.79136 0.0
C83 C 0.79786 0.7799 0.78711 0.0
C84 C 0.7816 0.77913 0.79865 0.0
C85 C 0.78154 0.76957 0.81449 0.0
N86 N 0.76466 0.78702 0.79436 0.0
C87 C 0.76422 0.80291 0.78508 0.0
H88 H 0.32148 0.2605 0.31029 0.0
H89 H 0.2957 0.30044 0.28076 0.0
H90 H 0.26758 0.28026 0.32867 0.0
C91 C 0.30979 0.26899 0.30864 0.0
C92 C 0.29462 0.26909 0.32159 0.0
C93 C 0.31026 0.28015 0.29377 0.0
C94 C 0.29554 0.29191 0.29221 0.0
C95 C 0.28021 0.29195 0.30496 0.0
C96 C 0.27976 0.2804 0.3193 0.0
N97 N 0.26465 0.30298 0.30368 0.0
C98 C 0.26424 0.31774 0.29287 0.0
H99 H 0.51987 0.95052 0.54026 0.0
H100 H 0.51865 0.01248 0.55045 0.0
H101 H 0.49538 0.97852 0.49754 0.0
C102 C 0.51586 0.9635 0.53565 0.0
C103 C 0.50722 0.96217 0.51733 0.0
C104 C 0.51984 0.98152 0.54789 0.0
C105 C 0.51513 0.99835 0.54156 0.0
C106 C 0.50609 0.9972 0.52362 0.0
C107 C 0.50206 0.97916 0.51155 0.0
N108 N 0.50251 0.01455 0.5173 0.0
C109 C 0.48399 0.01877 0.5142 0.0
H110 H 0.27585 0.32183 0.69278 0.0
H111 H 0.23231 0.28522 0.71729 0.0
H112 H 0.25783 0.33904 0.75047 0.0
C113 C 0.2667 0.31905 0.70457 0.0
C114 C 0.26797 0.33274 0.72157 0.0
C115 C 0.25389 0.30178 0.70279 0.0
C116 C 0.24228 0.29837 0.71842 0.0
C117 C 0.2438 0.3119 0.73562 0.0
C118 C 0.25663 0.32886 0.73705 0.0
N119 N 0.23318 0.3089 0.7521 0.0
C120 C 0.21674 0.29585 0.75226 0.0
H121 H 0.81393 0.19796 0.74263 0.0
H122 H 0.83582 0.23306 0.70117 0.0
H123 H 0.78714 0.18978 0.68646 0.0
C124 C 0.81285 0.20234 0.72868 0.0
C125 C 0.79861 0.19247 0.71538 0.0
C126 C 0.82653 0.21682 0.72365 0.0
C127 C 0.82531 0.222 0.70528 0.0
C128 C 0.81096 0.21226 0.69195 0.0
C129 C 0.79799 0.19735 0.69695 0.0
N130 N 0.80987 0.21627 0.673 0.0
C131 C 0.81249 0.23487 0.66848 0.0
H132 H 0.57292 0.54043 0.59689 0.0
H133 H 0.56771 0.54659 0.53743 0.0
H134 H 0.52301 0.56186 0.57622 0.0
C135 C 0.56486 0.54435 0.58526 0.0
C136 C 0.54713 0.55152 0.58899 0.0
C137 C 0.5723 0.54208 0.56666 0.0
C138 C 0.56233 0.54836 0.55189 0.0
C139 C 0.54464 0.55572 0.55552 0.0
C140 C 0.537 0.55685 0.57386 0.0
N141 N 0.53353 0.56094 0.54078 0.0
C142 C 0.5413 0.57036 0.52631 0.0
H143 H 0.55787 0.51242 0.97234 0.0
H144 H 0.5664 0.49524 0.02727 0.0
H145 H 0.51009 0.48606 0.00059 0.0
C146 C 0.55215 0.50606 0.9844 0.0
C147 C 0.53251 0.49928 0.98441 0.0
C148 C 0.56449 0.50506 0.99989 0.0
C149 C 0.55721 0.49588 0.01504 0.0
C150 C 0.53759 0.48886 0.01509 0.0
C151 C 0.52532 0.49084 0.99998 0.0
N152 N 0.52952 0.48165 0.03117 0.0
C153 C 0.53504 0.46529 0.03732 0.0
H154 H 0.75429 0.22605 0.34384 0.0
H155 H 0.69925 0.23397 0.32077 0.0
H156 H 0.72703 0.1841 0.29737 0.0
C157 C 0.74234 0.22111 0.33369 0.0
C158 C 0.74265 0.20384 0.32053 0.0
C159 C 0.72675 0.23207 0.33389 0.0
C160 C 0.71128 0.22556 0.3207 0.0
C161 C 0.7115 0.20826 0.3074 0.0
C162 C 0.7271 0.19752 0.3075 0.0
N163 N 0.6963 0.20103 0.29378 0.0
C164 C 0.68147 0.21137 0.2897 0.0
H165 H 0.46029 0.04787 0.01849 0.0
H166 H 0.51168 0.04952 0.98518 0.0
H167 H 0.47441 0.99609 0.9825 0.0
C168 C 0.46961 0.04075 0.0081 0.0
C169 C 0.46508 0.02085 0.00092 0.0
C170 C 0.48646 0.05127 0.00267 0.0
C171 C 0.49871 0.04161 0.98957 0.0
C172 C 0.49432 0.02164 0.98241 0.0
C173 C 0.4777 0.01143 0.98828 0.0
N174 N 0.50642 0.01108 0.96968 0.0
C175 C 0.51971 0.01919 0.95789 0.0
C176 C 0.22463 0.92755 0.03219 0.0
O177 O 0.23675 0.9281 0.01811 0.0
O178 O 0.24113 0.8787 0.01493 0.0
Zn179 Zn 0.24719 0.89812 0.03935 0.0
O180 O 0.27219 0.91453 0.03625 0.0
C181 C 0.23803 0.87007 0.06509 0.0
O182 O 0.2226 0.86481 0.0539 0.0
O183 O 0.22616 0.91555 0.04361 0.0
C184 C 0.28819 0.90794 0.03777 0.0
O185 O 0.28826 0.89025 0.04152 0.0
C186 C 0.24694 0.86201 0.0127 0.0
O187 O 0.25716 0.85732 0.02652 0.0
O188 O 0.25001 0.88414 0.06187 0.0
C189 C 0.18958 0.48785 0.25551 0.0
O190 O 0.19853 0.50517 0.26222 0.0
O191 O 0.14165 0.51374 0.27218 0.0
Zn192 Zn 0.15746 0.50918 0.24835 0.0
O193 O 0.17513 0.53336 0.24554 0.0
C194 C 0.1258 0.51274 0.22358 0.0
O195 O 0.12307 0.52699 0.23752 0.0
O196 O 0.17238 0.48633 0.24903 0.0
C197 C 0.17261 0.55003 0.25469 0.0
O198 O 0.15857 0.55156 0.26688 0.0
C199 C 0.14871 0.51483 0.28902 0.0
O200 O 0.16697 0.51282 0.29118 0.0
O201 O 0.13963 0.50283 0.22515 0.0
C202 C 0.81378 0.61243 0.99916 0.0
O203 O 0.80269 0.60869 0.98358 0.0
O204 O 0.78836 0.65156 0.98717 0.0
Zn205 Zn 0.78586 0.63818 0.01047 0.0
O206 O 0.76276 0.61789 0.00709 0.0
C207 C 0.79551 0.66475 0.04664 0.0
O208 O 0.81287 0.65964 0.04394 0.0
O209 O 0.8095 0.62495 0.01315 0.0
C210 C 0.74651 0.62248 0.0026 0.0
O211 O 0.74527 0.64033 0.99981 0.0
C212 C 0.78326 0.66837 0.98724 0.0
O213 O 0.77606 0.6774 0.00289 0.0
O214 O 0.78218 0.65753 0.03435 0.0
C215 C 0.8952 0.08226 0.3087 0.0
O216 O 0.90063 0.07471 0.32338 0.0
O217 O 0.93331 0.05181 0.30974 0.0
Zn218 Zn 0.91842 0.0551 0.2861 0.0
O219 O 0.90144 0.03033 0.27564 0.0
C220 C 0.95238 0.05471 0.26282 0.0
O221 O 0.95776 0.04342 0.27444 0.0
O222 O 0.90131 0.07635 0.2921 0.0
C223 C 0.90774 0.0139 0.2718 0.0
O224 O 0.92607 0.01276 0.2748 0.0
C225 C 0.92647 0.03992 0.32042 0.0
O226 O 0.90939 0.03018 0.31618 0.0
O227 O 0.93643 0.06162 0.2654 0.0
C228 C 0.31166 0.10654 0.49332 0.0
O229 O 0.30004 0.10116 0.47821 0.0
O230 O 0.28679 0.14734 0.48014 0.0
Zn231 Zn 0.28422 0.13357 0.50314 0.0
O232 O 0.2611 0.11323 0.49906 0.0
C233 C 0.28646 0.17051 0.53008 0.0
O234 O 0.29624 0.1778 0.51661 0.0
O235 O 0.30789 0.12045 0.50618 0.0
C236 C 0.25361 0.10686 0.51348 0.0
O237 O 0.2613 0.11356 0.53068 0.0
C238 C 0.27509 0.15916 0.47722 0.0
O239 O 0.26117 0.16228 0.48932 0.0
O240 O 0.28044 0.15247 0.52742 0.0
C241 C 0.38701 0.56791 0.80778 0.0
O242 O 0.38599 0.55434 0.81861 0.0
O243 O 0.42792 0.54055 0.81177 0.0
Zn244 Zn 0.41437 0.5449 0.78776 0.0
O245 O 0.3963 0.52112 0.77669 0.0
C246 C 0.4495 0.54422 0.76612 0.0
O247 O 0.45419 0.53285 0.77798 0.0
O248 O 0.39855 0.5671 0.79395 0.0
C249 C 0.40182 0.50602 0.7668 0.0
O250 O 0.42018 0.50561 0.76333 0.0
C251 C 0.42234 0.52626 0.82013 0.0
O252 O 0.40735 0.51409 0.81308 0.0
O253 O 0.43349 0.55111 0.76788 0.0
C254 C 0.73398 0.43254 0.53355 0.0
O255 O 0.74585 0.43463 0.5195 0.0
O256 O 0.74896 0.38464 0.51114 0.0
Zn257 Zn 0.75691 0.40238 0.53624 0.0
O258 O 0.78141 0.4197 0.53282 0.0
C259 C 0.77246 0.3728 0.55226 0.0
O260 O 0.78023 0.37064 0.53526 0.0
O261 O 0.73587 0.4193 0.54347 0.0
C262 C 0.79619 0.42174 0.54386 0.0
O263 O 0.79579 0.41267 0.5587 0.0
C264 C 0.76005 0.38284 0.49693 0.0
O265 O 0.77722 0.39281 0.49851 0.0
O266 O 0.76125 0.38582 0.55639 0.0
C267 C 0.68006 0.96936 0.75067 0.0
O268 O 0.6878 0.98289 0.74134 0.0
O269 O 0.63362 1.00034 0.77954 0.0
Zn270 Zn 0.64966 0.9942 0.75616 0.0
O271 O 0.66863 0.01736 0.75335 0.0
C272 C 0.61989 0.99942 0.73025 0.0
O273 O 0.61793 0.01417 0.74394 0.0
O274 O 0.66378 0.97108 0.75822 0.0
C275 C 0.66826 0.03431 0.76294 0.0
O276 O 0.65515 0.03727 0.77597 0.0
C277 C 0.64045 0.00109 0.79642 0.0
O278 O 0.65826 0.99751 0.79862 0.0
O279 O 0.63253 0.98829 0.7324 0.0
C280 C 0.01057 0.2135 0.9023 0.0
O281 O 0.99482 0.22202 0.90461 0.0
O282 O 0.99663 0.23523 0.85865 0.0
Zn283 Zn 0.0202 0.24104 0.87622 0.0
O284 O 0.01822 0.26588 0.89479 0.0
C285 C 0.0423 0.2478 0.84289 0.0
O286 O 0.02533 0.24948 0.83576 0.0
O287 O 0.02311 0.2191 0.89084 0.0
C288 C 0.01835 0.28177 0.88839 0.0
O289 O 0.02018 0.28166 0.86986 0.0
C290 C 0.9805 0.24095 0.86343 0.0
O291 O 0.97843 0.24992 0.88103 0.0
O292 O 0.04366 0.24442 0.85998 0.0
C293 C 0.53767 0.70252 0.39444 0.0
O294 O 0.53468 0.69716 0.37582 0.0
O295 O 0.5099 0.7318 0.36828 0.0
Zn296 Zn 0.53352 0.74045 0.38533 0.0
O297 O 0.52957 0.76566 0.40242 0.0
C298 C 0.55452 0.74662 0.35135 0.0
O299 O 0.53707 0.74612 0.34419 0.0
O300 O 0.53772 0.72034 0.40174 0.0
C301 C 0.52813 0.7809 0.39525 0.0
O302 O 0.52975 0.78013 0.37662 0.0
C303 C 0.49307 0.73344 0.37447 0.0
O304 O 0.49091 0.73998 0.39278 0.0
O305 O 0.55665 0.74457 0.36879 0.0
C306 C 0.03126 0.79658 0.6254 0.0
O307 O 0.04019 0.78137 0.61931 0.0
O308 O 0.98714 0.77286 0.66369 0.0
Zn309 Zn 0.01171 0.77085 0.64908 0.0
O310 O 0.00836 0.74759 0.62753 0.0
C311 C 0.03642 0.77776 0.68365 0.0
O312 O 0.02623 0.79214 0.6893 0.0
O313 O 0.01864 0.79549 0.63816 0.0
C314 C 0.02239 0.73783 0.62314 0.0
O315 O 0.03883 0.7431 0.63271 0.0
C316 C 0.98033 0.75909 0.67219 0.0
O317 O 0.98932 0.74353 0.67096 0.0
O318 O 0.03276 0.76724 0.66728 0.0
C319 C 0.51039 0.29234 0.12005 0.0
O320 O 0.50133 0.27627 0.11021 0.0
O321 O 0.48203 0.27382 0.16523 0.0
Zn322 Zn 0.5068 0.27004 0.15113 0.0
O323 O 0.50355 0.24525 0.13157 0.0
C324 C 0.52469 0.25838 0.18363 0.0
O325 O 0.50734 0.24947 0.18507 0.0
O326 O 0.51426 0.29307 0.1378 0.0
C327 C 0.51822 0.23741 0.12519 0.0
O328 O 0.5354 0.24562 0.13153 0.0
C329 C 0.46936 0.25963 0.16661 0.0
O330 O 0.47223 0.24203 0.15836 0.0
O331 O 0.52792 0.26831 0.17024 0.0
C332 C 0.22491 0.73337 0.87177 0.0
C333 C 0.22411 0.73987 0.85403 0.0
C334 C 0.2249 0.74641 0.88898 0.0
C335 C 0.21416 0.79486 0.91151 0.0
H336 H 0.2561 0.79176 0.9466 0.0
C337 C 0.23561 0.85403 0.97819 0.0
C338 C 0.24236 0.84797 0.99475 0.0
C339 C 0.23198 0.84078 0.96107 0.0
C340 C 0.24409 0.79267 0.93718 0.0
H341 H 0.22153 0.76502 0.84047 0.0
H342 H 0.22119 0.78783 0.87069 0.0
H343 H 0.25122 0.76856 0.91687 0.0
H344 H 0.2499 0.82317 0.00655 0.0
H345 H 0.24301 0.8 0.97701 0.0
H346 H 0.20686 0.81885 0.93197 0.0
C347 C 0.22191 0.7726 0.87118 0.0
C348 C 0.24135 0.77938 0.92009 0.0
C349 C 0.22206 0.75953 0.8539 0.0
C350 C 0.24494 0.82834 0.99398 0.0
C351 C 0.24109 0.81507 0.97697 0.0
C352 C 0.21676 0.80807 0.92877 0.0
C353 C 0.22391 0.76623 0.88886 0.0
C354 C 0.22636 0.78031 0.90709 0.0
C355 C 0.23481 0.82115 0.96021 0.0
C356 C 0.23178 0.80712 0.94184 0.0
H357 H 0.22604 0.71823 0.87237 0.0
H358 H 0.22608 0.74105 0.90242 0.0
H359 H 0.20244 0.79583 0.90175 0.0
H360 H 0.23353 0.86909 0.97834 0.0
H361 H 0.22739 0.84606 0.94842 0.0
C362 C 0.0324 0.5318 0.41859 0.0
C363 C 0.03972 0.52778 0.43581 0.0
C364 C 0.04447 0.53336 0.4031 0.0
C365 C 0.09553 0.53895 0.38904 0.0
H366 H 0.0751 0.5099 0.34015 0.0
C367 C 0.14376 0.51805 0.32451 0.0
C368 C 0.13647 0.51837 0.30598 0.0
C369 C 0.13208 0.52104 0.34048 0.0
C370 C 0.08096 0.51835 0.3536 0.0
H371 H 0.06512 0.52272 0.45089 0.0
H372 H 0.08638 0.52545 0.42381 0.0
H373 H 0.05461 0.51276 0.36791 0.0
H374 H 0.1113 0.5225 0.28975 0.0
H375 H 0.09105 0.52797 0.31758 0.0
H376 H 0.12197 0.54437 0.37472 0.0
C377 C 0.07144 0.52765 0.42224 0.0
C378 C 0.06919 0.52 0.36953 0.0
C379 C 0.05932 0.52605 0.43772 0.0
C380 C 0.11733 0.52201 0.3038 0.0
C381 C 0.10568 0.52506 0.31976 0.0
C382 C 0.10731 0.53735 0.37306 0.0
C383 C 0.06405 0.53085 0.4046 0.0
C384 C 0.07636 0.5302 0.38748 0.0
C385 C 0.11286 0.52448 0.33829 0.0
C386 C 0.1002 0.5269 0.35517 0.0
H387 H 0.01723 0.53305 0.41688 0.0
H388 H 0.0384 0.5361 0.3898 0.0
H389 H 0.10142 0.54708 0.40263 0.0
H390 H 0.15843 0.51526 0.3267 0.0
H391 H 0.13802 0.52022 0.35448 0.0
C392 C 0.78969 0.76039 0.85389 0.0
C393 C 0.79748 0.75166 0.83676 0.0
C394 C 0.78871 0.75122 0.87 0.0
C395 C 0.80873 0.71328 0.89197 0.0
H396 H 0.76231 0.71468 0.92156 0.0
C397 C 0.79333 0.66831 0.95315 0.0
C398 C 0.78528 0.67765 0.96986 0.0
C399 C 0.79513 0.6771 0.93676 0.0
C400 C 0.77546 0.71432 0.91358 0.0
H401 H 0.81052 0.72648 0.8232 0.0
H402 H 0.80877 0.7104 0.85139 0.0
H403 H 0.76508 0.73044 0.89332 0.0
H404 H 0.77291 0.70363 0.98246 0.0
H405 H 0.77614 0.71896 0.95397 0.0
H406 H 0.81907 0.69709 0.91227 0.0
C407 C 0.80361 0.72447 0.8524 0.0
C408 C 0.77705 0.72337 0.89738 0.0
C409 C 0.80461 0.73368 0.83624 0.0
C410 C 0.77912 0.69599 0.96982 0.0
C411 C 0.78087 0.70474 0.95344 0.0
C412 C 0.80712 0.70419 0.90818 0.0
C413 C 0.79547 0.73306 0.86942 0.0
C414 C 0.79375 0.72307 0.88644 0.0
C415 C 0.78885 0.6954 0.93669 0.0
C416 C 0.7905 0.7047 0.91923 0.0
H417 H 0.78441 0.77441 0.85487 0.0
H418 H 0.78274 0.75845 0.88299 0.0
H419 H 0.82187 0.71296 0.88399 0.0
H420 H 0.79821 0.65416 0.95268 0.0
H421 H 0.80116 0.66943 0.92403 0.0
C422 C 0.00939 0.9903 0.45369 0.0
C423 C 0.02514 0.00302 0.46252 0.0
C424 C 0.9987 0.99529 0.43887 0.0
C425 C 0.00161 0.02529 0.40113 0.0
H426 H 0.94591 0.01782 0.40188 0.0
C427 C 0.95455 0.04907 0.3437 0.0
C428 C 0.93768 0.03678 0.33723 0.0
C429 C 0.96517 0.04589 0.35949 0.0
C430 C 0.96145 0.01977 0.40129 0.0
H431 H 0.04181 0.03111 0.4627 0.0
H432 H 0.02338 0.03956 0.43646 0.0
H433 H 0.96461 0.01028 0.42832 0.0
H434 H 0.91883 0.01142 0.34212 0.0
H435 H 0.93755 0.00555 0.36923 0.0
H436 H 0.99854 0.03428 0.37389 0.0
C437 C 0.01941 0.0257 0.44106 0.0
C438 C 0.97214 0.01551 0.4165 0.0
C439 C 0.02999 0.02082 0.45604 0.0
C440 C 0.93168 0.02125 0.34684 0.0
C441 C 0.94238 0.01796 0.36249 0.0
C442 C 0.99092 0.02937 0.38581 0.0
C443 C 0.00362 0.01301 0.43238 0.0
C444 C 0.99232 0.01813 0.41652 0.0
C445 C 0.95925 0.03025 0.36905 0.0
C446 C 0.97069 0.02655 0.38564 0.0
H447 H 0.00545 0.97632 0.45803 0.0
H448 H 0.98677 0.9851 0.43225 0.0
H449 H 0.01717 0.02726 0.4007 0.0
H450 H 0.95951 0.06124 0.33665 0.0
H451 H 0.97793 0.05582 0.3643 0.0
C452 C 0.25523 0.29324 0.66684 0.0
C453 C 0.25333 0.28718 0.68481 0.0
C454 C 0.25676 0.27979 0.65013 0.0
C455 C 0.27003 0.23016 0.6342 0.0
H456 H 0.25105 0.23813 0.58473 0.0
C457 C 0.27465 0.17526 0.56379 0.0
C458 C 0.28185 0.18328 0.54793 0.0
C459 C 0.27006 0.18731 0.58056 0.0
C460 C 0.25649 0.23578 0.59845 0.0
H461 H 0.25073 0.26199 0.6991 0.0
H462 H 0.25255 0.23842 0.66986 0.0
H463 H 0.24375 0.25979 0.61382 0.0
H464 H 0.28974 0.21023 0.53718 0.0
H465 H 0.2815 0.23124 0.56641 0.0
H466 H 0.28256 0.20596 0.61871 0.0
C467 C 0.25343 0.25368 0.66875 0.0
C468 C 0.25237 0.24822 0.61514 0.0
C469 C 0.25209 0.26719 0.68552 0.0
C470 C 0.28428 0.2036 0.54917 0.0
C471 C 0.27944 0.21563 0.56584 0.0
C472 C 0.27394 0.21758 0.61753 0.0
C473 C 0.25617 0.25984 0.65088 0.0
C474 C 0.25931 0.24574 0.63323 0.0
C475 C 0.27232 0.20761 0.58171 0.0
C476 C 0.26742 0.22042 0.59947 0.0
H477 H 0.25588 0.30848 0.66568 0.0
H478 H 0.25903 0.28517 0.63672 0.0
H479 H 0.27593 0.22796 0.64778 0.0
H480 H 0.27261 0.15966 0.5633 0.0
H481 H 0.26449 0.18075 0.59254 0.0
C482 C 0.54081 0.53824 0.61961 0.0
C483 C 0.5389 0.55282 0.60849 0.0
C484 C 0.53266 0.53918 0.63769 0.0
C485 C 0.49344 0.55856 0.66537 0.0
H486 H 0.52128 0.54784 0.70934 0.0
C487 C 0.45863 0.56224 0.7392 0.0
C488 C 0.46187 0.54769 0.74987 0.0
C489 C 0.46939 0.56465 0.723 0.0
C490 C 0.51323 0.55067 0.69717 0.0
H491 H 0.52729 0.58007 0.60798 0.0
H492 H 0.51265 0.58139 0.63938 0.0
H493 H 0.53748 0.54847 0.6789 0.0
H494 H 0.4792 0.52448 0.75218 0.0
H495 H 0.49757 0.52825 0.72361 0.0
H496 H 0.46901 0.56009 0.68324 0.0
C497 C 0.52044 0.56924 0.634 0.0
C498 C 0.52255 0.55109 0.67977 0.0
C499 C 0.52876 0.56842 0.61599 0.0
C500 C 0.47642 0.53589 0.74429 0.0
C501 C 0.48703 0.53813 0.72795 0.0
C502 C 0.48407 0.55793 0.68268 0.0
C503 C 0.52224 0.55458 0.64498 0.0
C504 C 0.5127 0.55495 0.66368 0.0
C505 C 0.48348 0.55238 0.71694 0.0
C506 C 0.4938 0.55388 0.69879 0.0
H507 H 0.5482 0.52582 0.61417 0.0
H508 H 0.53404 0.52754 0.64575 0.0
H509 H 0.48543 0.5613 0.65312 0.0
H510 H 0.44765 0.5717 0.74326 0.0
H511 H 0.46653 0.57605 0.71515 0.0
C512 C 0.80048 0.26652 0.66925 0.0
C513 C 0.81253 0.25289 0.6613 0.0
C514 C 0.79789 0.28236 0.66022 0.0
C515 C 0.81708 0.30982 0.62224 0.0
H516 H 0.76393 0.31884 0.61638 0.0
C517 C 0.79127 0.34778 0.56225 0.0
C518 C 0.77759 0.36091 0.56659 0.0
C519 C 0.79642 0.33668 0.57571 0.0
C520 C 0.77888 0.31675 0.61812 0.0
H521 H 0.83174 0.24498 0.63823 0.0
H522 H 0.82726 0.27256 0.62232 0.0
H523 H 0.77204 0.29632 0.63709 0.0
H524 H 0.75864 0.37269 0.58854 0.0
H525 H 0.76763 0.35318 0.61208 0.0
H526 H 0.82381 0.32988 0.60282 0.0
C527 C 0.82001 0.27138 0.63564 0.0
C528 C 0.78355 0.30385 0.63004 0.0
C529 C 0.82257 0.25557 0.6447 0.0
C530 C 0.76918 0.36267 0.58472 0.0
C531 C 0.77429 0.35146 0.59819 0.0
C532 C 0.81239 0.32268 0.61029 0.0
C533 C 0.80726 0.28471 0.64303 0.0
C534 C 0.80267 0.29998 0.63199 0.0
C535 C 0.788 0.33836 0.59383 0.0
C536 C 0.79319 0.32603 0.60782 0.0
H537 H 0.79249 0.26453 0.68201 0.0
H538 H 0.78819 0.29249 0.66643 0.0
H539 H 0.83198 0.30742 0.62367 0.0
H540 H 0.79804 0.34604 0.54842 0.0
H541 H 0.80679 0.3265 0.57177 0.0
C542 C 0.54434 0.97168 0.56946 0.0
C543 C 0.52934 0.98283 0.56706 0.0
C544 C 0.55329 0.97298 0.58745 0.0
C545 C 0.56242 0.00544 0.63391 0.0
H546 H 0.57425 0.95884 0.65199 0.0
C547 C 0.59358 0.00812 0.71026 0.0
C548 C 0.60824 0.99646 0.7122 0.0
C549 C 0.58312 0.00594 0.69294 0.0
C550 C 0.57124 0.97202 0.64708 0.0
H551 H 0.51183 0.00389 0.58184 0.0
H552 H 0.52762 0.00631 0.61321 0.0
H553 H 0.55774 0.95612 0.62095 0.0
H554 H 0.62328 0.97319 0.69751 0.0
H555 H 0.60528 0.96961 0.66722 0.0
H556 H 0.57616 0.02139 0.65982 0.0
C557 C 0.53254 0.99669 0.60109 0.0
C558 C 0.56176 0.97045 0.6293 0.0
C559 C 0.52352 0.99532 0.58312 0.0
C560 C 0.61202 0.98237 0.69652 0.0
C561 C 0.60163 0.98024 0.67917 0.0
C562 C 0.57199 0.00703 0.65163 0.0
C563 C 0.54753 0.98553 0.60346 0.0
C564 C 0.55729 0.98715 0.6225 0.0
C565 C 0.58714 0.9921 0.67712 0.0
C566 C 0.57656 0.99034 0.65843 0.0
H567 H 0.54943 0.96218 0.55735 0.0
H568 H 0.56499 0.96442 0.58876 0.0
H569 H 0.55942 0.0186 0.62894 0.0
H570 H 0.59021 0.01904 0.72209 0.0
H571 H 0.57185 0.01509 0.69198 0.0
C572 C 0.84001 0.23039 0.75676 0.0
C573 C 0.843 0.22483 0.73704 0.0
C574 C 0.85556 0.23464 0.76989 0.0
C575 C 0.90377 0.22126 0.7756 0.0
H576 H 0.9082 0.26251 0.81988 0.0
C577 C 0.9683 0.23331 0.82925 0.0
C578 C 0.96481 0.23906 0.84883 0.0
C579 C 0.95385 0.23261 0.81532 0.0
C580 C 0.90705 0.25076 0.80772 0.0
H581 H 0.86465 0.2202 0.71552 0.0
H582 H 0.89187 0.22771 0.73847 0.0
H583 H 0.88253 0.26075 0.79585 0.0
H584 H 0.94325 0.24821 0.86917 0.0
H585 H 0.91785 0.24643 0.84494 0.0
H586 H 0.92783 0.21086 0.78761 0.0
C587 C 0.87747 0.22867 0.74376 0.0
C588 C 0.8924 0.24984 0.7939 0.0
C589 C 0.86192 0.22459 0.73061 0.0
C590 C 0.94643 0.24379 0.85419 0.0
C591 C 0.93191 0.24293 0.84027 0.0
C592 C 0.91829 0.22207 0.78946 0.0
C593 C 0.87441 0.23324 0.76358 0.0
C594 C 0.89058 0.23505 0.77772 0.0
C595 C 0.93547 0.23746 0.82064 0.0
C596 C 0.9201 0.23679 0.80575 0.0
H597 H 0.82556 0.23076 0.76209 0.0
H598 H 0.85273 0.23805 0.78506 0.0
H599 H 0.90251 0.20946 0.76347 0.0
H600 H 0.98235 0.22973 0.8246 0.0
H601 H 0.95723 0.22861 0.80035 0.0
C602 C 0.49959 0.92575 0.51077 0.0
C603 C 0.50496 0.94325 0.50393 0.0
C604 C 0.49985 0.90784 0.49875 0.0
C605 C 0.50085 0.884 0.44807 0.0
H606 H 0.52741 0.84643 0.46911 0.0
C607 C 0.52524 0.8166 0.40022 0.0
C608 C 0.5243 0.79917 0.40765 0.0
C609 C 0.52159 0.83386 0.41188 0.0
C610 C 0.51967 0.85658 0.46306 0.0
H611 H 0.51413 0.95556 0.47879 0.0
H612 H 0.51426 0.92431 0.45774 0.0
H613 H 0.52231 0.8769 0.4894 0.0
H614 H 0.51849 0.78612 0.43309 0.0
H615 H 0.51173 0.81609 0.45331 0.0
H616 H 0.49814 0.86368 0.42173 0.0
C617 C 0.50982 0.92448 0.47243 0.0
C618 C 0.51677 0.87408 0.47471 0.0
C619 C 0.50968 0.9424 0.48449 0.0
C620 C 0.51949 0.79934 0.42696 0.0
C621 C 0.5157 0.81656 0.43859 0.0
C622 C 0.50362 0.86642 0.43644 0.0
C623 C 0.50533 0.90701 0.47955 0.0
C624 C 0.50744 0.88804 0.46732 0.0
C625 C 0.51677 0.83408 0.43123 0.0
C626 C 0.5132 0.85254 0.44374 0.0
H627 H 0.49551 0.92587 0.52556 0.0
H628 H 0.49599 0.89462 0.50455 0.0
H629 H 0.49345 0.89441 0.44203 0.0
H630 H 0.52897 0.81699 0.38542 0.0
H631 H 0.52287 0.8471 0.40579 0.0
C632 C 0.19821 0.27537 0.77214 0.0
C633 C 0.19903 0.28481 0.75616 0.0
C634 C 0.1805 0.26792 0.77851 0.0
C635 C 0.1299 0.27693 0.77794 0.0
H636 H 0.12241 0.23187 0.80336 0.0
C637 C 0.05816 0.2546 0.81264 0.0
C638 C 0.0596 0.24982 0.83112 0.0
C639 C 0.07448 0.25674 0.80156 0.0
C640 C 0.12433 0.24454 0.79637 0.0
H641 H 0.18252 0.29338 0.73368 0.0
H642 H 0.15138 0.27993 0.74446 0.0
H643 H 0.15206 0.23827 0.7863 0.0
H644 H 0.07931 0.24331 0.85235 0.0
H645 H 0.10781 0.24717 0.83304 0.0
H646 H 0.10232 0.28337 0.78825 0.0
C647 C 0.16433 0.27845 0.75229 0.0
C648 C 0.1413 0.2482 0.78658 0.0
C649 C 0.1821 0.28595 0.74598 0.0
C650 C 0.0777 0.24701 0.83818 0.0
C651 C 0.09401 0.24908 0.82706 0.0
C652 C 0.11292 0.27323 0.78765 0.0
C653 C 0.16328 0.26987 0.76898 0.0
C654 C 0.14442 0.26463 0.77751 0.0
C655 C 0.0926 0.25408 0.80867 0.0
C656 C 0.11007 0.25716 0.79724 0.0
H657 H 0.21119 0.27464 0.78032 0.0
H658 H 0.18026 0.26166 0.79153 0.0
H659 H 0.13194 0.28992 0.77145 0.0
H660 H 0.04443 0.25679 0.80673 0.0
H661 H 0.0729 0.26042 0.78737 0.0
C662 C 0.55165 0.60207 0.51719 0.0
C663 C 0.54662 0.58202 0.5118 0.0
C664 C 0.55382 0.61406 0.50323 0.0
C665 C 0.53693 0.61544 0.45405 0.0
H666 H 0.57316 0.66226 0.45953 0.0
C667 C 0.53962 0.66813 0.39903 0.0
C668 C 0.54086 0.68802 0.4068 0.0
C669 C 0.54231 0.65443 0.41078 0.0
C670 C 0.5629 0.64928 0.45786 0.0
H671 H 0.54045 0.5584 0.48793 0.0
H672 H 0.54462 0.57926 0.4633 0.0
H673 H 0.57525 0.63935 0.48172 0.0
H674 H 0.54616 0.70912 0.43302 0.0
H675 H 0.55075 0.68523 0.45349 0.0
H676 H 0.52441 0.6255 0.43037 0.0
C677 C 0.54668 0.58585 0.47828 0.0
C678 C 0.56409 0.63614 0.47056 0.0
C679 C 0.54448 0.57389 0.4923 0.0
C680 C 0.54509 0.69391 0.42655 0.0
C681 C 0.54787 0.68023 0.43828 0.0
C682 C 0.53577 0.62853 0.44131 0.0
C683 C 0.55093 0.60615 0.48361 0.0
C684 C 0.55093 0.6192 0.469 0.0
C685 C 0.54641 0.66032 0.43056 0.0
C686 C 0.54856 0.64575 0.44325 0.0
H687 H 0.55311 0.60859 0.53225 0.0
H688 H 0.55683 0.62961 0.5079 0.0
H689 H 0.52634 0.60272 0.4526 0.0
H690 H 0.53644 0.66309 0.38386 0.0
H691 H 0.54127 0.63921 0.40437 0.0
C692 C 0.83787 0.78665 0.7704 0.0
C693 C 0.83076 0.77034 0.77853 0.0
C694 C 0.85391 0.78605 0.75865 0.0
C695 C 0.8962 0.75954 0.74806 0.0
H696 H 0.89755 0.781 0.70086 0.0
C697 C 0.95511 0.74525 0.69276 0.0
C698 C 0.96284 0.76073 0.68379 0.0
C699 C 0.93892 0.7469 0.70411 0.0
C700 C 0.89751 0.77515 0.71411 0.0
H701 H 0.83454 0.74039 0.78002 0.0
H702 H 0.86246 0.73943 0.75973 0.0
H703 H 0.86949 0.78325 0.72112 0.0
H704 H 0.95949 0.79009 0.67962 0.0
H705 H 0.93135 0.79305 0.69961 0.0
H706 H 0.92417 0.75148 0.74117 0.0
C707 C 0.8559 0.7528 0.76272 0.0
C708 C 0.88142 0.77644 0.72572 0.0
C709 C 0.83989 0.75337 0.77438 0.0
C710 C 0.95388 0.77786 0.68629 0.0
C711 C 0.93768 0.77952 0.69768 0.0
C712 C 0.91228 0.7583 0.73651 0.0
C713 C 0.86319 0.76916 0.75481 0.0
C714 C 0.88052 0.76849 0.74274 0.0
C715 C 0.93006 0.7641 0.70682 0.0
C716 C 0.91308 0.76593 0.7193 0.0
H717 H 0.83129 0.8 0.77342 0.0
H718 H 0.85927 0.79895 0.75289 0.0
H719 H 0.89613 0.7536 0.76127 0.0
H720 H 0.96158 0.73181 0.69107 0.0
H721 H 0.93325 0.73461 0.71065 0.0
C722 C 0.03246 0.94621 0.56069 0.0
C723 C 0.04042 0.94663 0.54262 0.0
C724 C 0.03514 0.93107 0.57062 0.0
C725 C 0.04463 0.87997 0.56127 0.0
H726 H 0.04831 0.88666 0.61687 0.0
C727 C 0.04761 0.81503 0.60136 0.0
C728 C 0.03537 0.81456 0.61702 0.0
C729 C 0.05086 0.83172 0.59292 0.0
C730 C 0.04721 0.88457 0.60133 0.0
H731 H 0.05782 0.93229 0.52077 0.0
H732 H 0.06289 0.90583 0.53826 0.0
H733 H 0.05017 0.91521 0.60111 0.0
H734 H 0.01726 0.83143 0.63635 0.0
H735 H 0.0229 0.86051 0.62159 0.0
H736 H 0.04139 0.84935 0.56151 0.0
C737 C 0.0544 0.91701 0.54474 0.0
C738 C 0.04828 0.90091 0.5923 0.0
C739 C 0.05167 0.93219 0.5348 0.0
C740 C 0.02676 0.83129 0.62429 0.0
C741 C 0.0301 0.84801 0.61592 0.0
C742 C 0.04364 0.86365 0.5703 0.0
C743 C 0.0458 0.91605 0.56259 0.0
C744 C 0.04668 0.89881 0.57216 0.0
C745 C 0.04204 0.84836 0.60002 0.0
C746 C 0.04461 0.86575 0.59044 0.0
H747 H 0.02354 0.95718 0.5668 0.0
H748 H 0.02809 0.93067 0.58418 0.0
H749 H 0.04302 0.87778 0.54576 0.0
H750 H 0.05451 0.80241 0.59543 0.0
H751 H 0.06028 0.83161 0.58081 0.0
C752 C 0.15883 0.72402 0.7818 0.0
C753 C 0.17721 0.73239 0.77794 0.0
C754 C 0.14252 0.73062 0.77479 0.0
C755 C 0.1255 0.77037 0.75271 0.0
H756 H 0.08745 0.72921 0.72762 0.0
C757 C 0.05648 0.78523 0.71422 0.0
C758 C 0.05183 0.77351 0.69625 0.0
C759 C 0.07098 0.781 0.72607 0.0
C760 C 0.09795 0.74088 0.73454 0.0
H761 H 0.19336 0.75437 0.76444 0.0
H762 H 0.1649 0.76595 0.75204 0.0
H763 H 0.11422 0.7211 0.74568 0.0
H764 H 0.05883 0.74819 0.67663 0.0
H765 H 0.08407 0.74094 0.6972 0.0
H766 H 0.1095 0.79007 0.74093 0.0
C767 C 0.16292 0.75453 0.76067 0.0
C768 C 0.11317 0.73625 0.74511 0.0
C769 C 0.17921 0.7479 0.76769 0.0
C770 C 0.06199 0.7575 0.6904 0.0
C771 C 0.07639 0.75325 0.70225 0.0
C772 C 0.1102 0.775 0.74216 0.0
C773 C 0.1444 0.74563 0.76373 0.0
C774 C 0.12729 0.7509 0.75409 0.0
C775 C 0.08103 0.76491 0.72024 0.0
C776 C 0.09645 0.76026 0.73268 0.0
H777 H 0.15709 0.71194 0.78964 0.0
H778 H 0.12846 0.72364 0.77761 0.0
H779 H 0.13605 0.782 0.7596 0.0
H780 H 0.04892 0.79766 0.71916 0.0
H781 H 0.07414 0.79018 0.73991 0.0
C782 C 0.0165 0.58464 0.5091 0.0
C783 C 0.99793 0.57806 0.50129 0.0
C784 C 0.02059 0.60329 0.51988 0.0
C785 C 0.00192 0.65118 0.53302 0.0
H786 H 0.0303 0.65295 0.58075 0.0
C787 C 0.00288 0.7146 0.59726 0.0
C788 C 0.02038 0.7207 0.60756 0.0
C789 C 0.00104 0.69813 0.58287 0.0
C790 C 0.02258 0.65281 0.56737 0.0
H791 H 0.96948 0.58643 0.49752 0.0
H792 H 0.97647 0.61876 0.51662 0.0
H793 H 0.02608 0.62301 0.55748 0.0
H794 H 0.04979 0.71447 0.6105 0.0
H795 H 0.04662 0.68592 0.5854 0.0
H796 H 0.99813 0.68097 0.54321 0.0
C797 C 0.98793 0.60959 0.51438 0.0
C798 C 0.0202 0.63563 0.55397 0.0
C799 C 0.98386 0.59096 0.50357 0.0
C800 C 0.03606 0.71013 0.60295 0.0
C801 C 0.03422 0.69369 0.58861 0.0
C802 C 0.00428 0.66839 0.54647 0.0
C803 C 0.0062 0.61578 0.52312 0.0
C804 C 0.00975 0.63455 0.53667 0.0
C805 C 0.01666 0.6874 0.57849 0.0
C806 C 0.01455 0.66936 0.56385 0.0
H807 H 0.02765 0.57505 0.50771 0.0
H808 H 0.03491 0.60773 0.52612 0.0
H809 H 0.99397 0.65091 0.51975 0.0
H810 H 0.99052 0.72242 0.60045 0.0
H811 H 0.98726 0.69355 0.57547 0.0
C812 C 0.7795 0.881 0.2237 0.0
C813 C 0.78436 0.86199 0.22263 0.0
C814 C 0.79367 0.89696 0.22733 0.0
C815 C 0.84235 0.91162 0.24878 0.0
H816 H 0.84013 0.95662 0.22398 0.0
C817 C 0.901 0.97779 0.26153 0.0
C818 C 0.89442 0.99619 0.2646 0.0
C819 C 0.88828 0.96105 0.25515 0.0
C820 C 0.84086 0.94421 0.23111 0.0
H821 H 0.80797 0.84484 0.22427 0.0
H822 H 0.83277 0.87271 0.23021 0.0
H823 H 0.81673 0.92794 0.21477 0.0
H824 H 0.86934 0.01145 0.26318 0.0
H825 H 0.84719 0.98225 0.25216 0.0
H826 H 0.86639 0.92795 0.26522 0.0
C827 C 0.81796 0.87527 0.22849 0.0
C828 C 0.82746 0.92778 0.22585 0.0
C829 C 0.80377 0.85929 0.22487 0.0
C830 C 0.8749 0.9975 0.26095 0.0
C831 C 0.86221 0.98078 0.25451 0.0
C832 C 0.85578 0.92803 0.25401 0.0
C833 C 0.81304 0.8943 0.22994 0.0
C834 C 0.82793 0.91136 0.23475 0.0
C835 C 0.86874 0.96236 0.25162 0.0
C836 C 0.85507 0.94458 0.24537 0.0
H837 H 0.76471 0.88356 0.2218 0.0
H838 H 0.78936 0.91142 0.22854 0.0
H839 H 0.84295 0.89933 0.25613 0.0
H840 H 0.91595 0.97628 0.26417 0.0
H841 H 0.89378 0.94708 0.25287 0.0
C842 C 0.76713 0.18886 0.33756 0.0
C843 C 0.75924 0.19246 0.32032 0.0
C844 C 0.78271 0.17806 0.33731 0.0
C845 C 0.82276 0.16232 0.30739 0.0
H846 H 0.82163 0.12134 0.33815 0.0
C847 C 0.87423 0.1035 0.29513 0.0
C848 C 0.88123 0.09671 0.31117 0.0
C849 C 0.86033 0.11636 0.29722 0.0
C850 C 0.82234 0.13293 0.32971 0.0
H851 H 0.76166 0.18783 0.28934 0.0
H852 H 0.78879 0.16887 0.28888 0.0
H853 H 0.79543 0.14157 0.34002 0.0
H854 H 0.87943 0.0985 0.34206 0.0
H855 H 0.85533 0.12122 0.34575 0.0
H856 H 0.84962 0.15371 0.29703 0.0
C857 C 0.78298 0.17447 0.30259 0.0
C858 C 0.8073 0.14449 0.33076 0.0
C859 C 0.76733 0.18514 0.30284 0.0
C860 C 0.87428 0.10338 0.32941 0.0
C861 C 0.86038 0.11631 0.3315 0.0
C862 C 0.83784 0.15084 0.30641 0.0
C863 C 0.79082 0.17078 0.31982 0.0
C864 C 0.80724 0.15915 0.31944 0.0
C865 C 0.85312 0.12283 0.3154 0.0
C866 C 0.8377 0.13584 0.31738 0.0
H867 H 0.76109 0.19419 0.35124 0.0
H868 H 0.78853 0.17556 0.35081 0.0
H869 H 0.82327 0.17373 0.29874 0.0
H870 H 0.87923 0.09861 0.28086 0.0
H871 H 0.85487 0.12084 0.28447 0.0
C872 C 0.42965 0.0179 0.00697 0.0
C873 C 0.44716 0.00988 0.00648 0.0
C874 C 0.41262 0.0072 0.0113 0.0
C875 C 0.39109 0.95666 0.01133 0.0
H876 H 0.35261 0.98115 0.04277 0.0
C877 C 0.32412 0.91239 0.03613 0.0
C878 C 0.30648 0.91993 0.03508 0.0
C879 C 0.34138 0.92356 0.03329 0.0
C880 C 0.36314 0.97415 0.03381 0.0
H881 H 0.46062 0.98462 0.01087 0.0
H882 H 0.43096 0.96599 0.01853 0.0
H883 H 0.38264 0.00038 0.0369 0.0
H884 H 0.29316 0.9452 0.03036 0.0
H885 H 0.32328 0.96464 0.02529 0.0
H886 H 0.37161 0.93045 0.0082 0.0
C887 C 0.43031 0.9804 0.01517 0.0
C888 C 0.38035 0.98516 0.03045 0.0
C889 C 0.44731 0.99108 0.0108 0.0
C890 C 0.3065 0.93896 0.03129 0.0
C891 C 0.32377 0.95015 0.02849 0.0
C892 C 0.37392 0.94565 0.01472 0.0
C893 C 0.41272 0.98825 0.01529 0.0
C894 C 0.39452 0.97655 0.01915 0.0
C895 C 0.3414 0.94255 0.02938 0.0
C896 C 0.35973 0.95427 0.02597 0.0
H897 H 0.42903 0.03227 0.00348 0.0
H898 H 0.3993 0.0136 0.01103 0.0
H899 H 0.40154 0.94964 0.00227 0.0
H900 H 0.32463 0.89782 0.03908 0.0
H901 H 0.35474 0.91738 0.03431 0.0
C902 C 0.24588 0.33166 0.26992 0.0
C903 C 0.26078 0.33392 0.28373 0.0
C904 C 0.23995 0.34793 0.26362 0.0
C905 C 0.2527 0.40072 0.26339 0.0
H906 H 0.19743 0.40143 0.2643 0.0
C907 C 0.21687 0.47134 0.26582 0.0
C908 C 0.19911 0.47017 0.25603 0.0
C909 C 0.2254 0.45451 0.26702 0.0
C910 C 0.21287 0.40141 0.26362 0.0
H911 H 0.28171 0.35446 0.30141 0.0
H912 H 0.27142 0.38306 0.2904 0.0
H913 H 0.211 0.37233 0.26936 0.0
H914 H 0.17673 0.45043 0.23925 0.0
H915 H 0.19175 0.4212 0.241 0.0
H916 H 0.25453 0.42993 0.25783 0.0
C917 C 0.26443 0.36878 0.28422 0.0
C918 C 0.22066 0.38468 0.26653 0.0
C919 C 0.27032 0.35247 0.29054 0.0
C920 C 0.19032 0.45185 0.24706 0.0
C921 C 0.1989 0.43506 0.24815 0.0
C922 C 0.24488 0.41747 0.26037 0.0
C923 C 0.24879 0.36674 0.27111 0.0
C924 C 0.24067 0.38416 0.2666 0.0
C925 C 0.21642 0.43612 0.25836 0.0
C926 C 0.22486 0.41808 0.26062 0.0
H927 H 0.23827 0.31741 0.26463 0.0
H928 H 0.22805 0.34585 0.25332 0.0
H929 H 0.26816 0.40072 0.26321 0.0
H930 H 0.22401 0.48523 0.27292 0.0
H931 H 0.23877 0.45589 0.2752 0.0
C932 C 0.09689 0.0115 0.51456 0.0
C933 C 0.08834 0.00332 0.49651 0.0
C934 C 0.11608 0.01984 0.51605 0.0
C935 C 0.15199 0.04368 0.48764 0.0
H936 H 0.18766 0.03961 0.52861 0.0
C937 C 0.22891 0.08383 0.49268 0.0
C938 C 0.23606 0.09265 0.51108 0.0
C939 C 0.21196 0.07094 0.49047 0.0
C940 C 0.17781 0.04104 0.51718 0.0
H941 H 0.09367 0.99624 0.46607 0.0
H942 H 0.1271 0.01096 0.46867 0.0
H943 H 0.15617 0.02019 0.52573 0.0
H944 H 0.23113 0.09467 0.54162 0.0
H945 H 0.20138 0.07262 0.53777 0.0
H946 H 0.17321 0.06492 0.47938 0.0
C947 C 0.11884 0.01121 0.48161 0.0
C948 C 0.15981 0.02986 0.51551 0.0
C949 C 0.09971 0.0028 0.48013 0.0
C950 C 0.22605 0.08808 0.52723 0.0
C951 C 0.20903 0.0753 0.52502 0.0
C952 C 0.1699 0.05495 0.48938 0.0
C953 C 0.12711 0.02023 0.49952 0.0
C954 C 0.14667 0.03115 0.50078 0.0
C955 C 0.20168 0.06667 0.5066 0.0
C956 C 0.18301 0.05389 0.50425 0.0
H957 H 0.0885 0.01232 0.52744 0.0
H958 H 0.12201 0.02681 0.53004 0.0
H959 H 0.14206 0.04526 0.47634 0.0
H960 H 0.23637 0.08693 0.47995 0.0
H961 H 0.20692 0.06431 0.47608 0.0
C962 C 0.77553 0.17896 0.73815 0.0
C963 C 0.78488 0.17656 0.72052 0.0
C964 C 0.76267 0.1639 0.74302 0.0
C965 C 0.73325 0.11784 0.72153 0.0
H966 H 0.73218 0.1083 0.77409 0.0
C967 C 0.69369 0.04822 0.74272 0.0
C968 C 0.68197 0.05067 0.75882 0.0
C969 C 0.70613 0.06382 0.73836 0.0
C970 C 0.73222 0.11092 0.75939 0.0
H971 H 0.78843 0.15643 0.69434 0.0
H972 H 0.76632 0.13001 0.70294 0.0
H973 H 0.75415 0.13508 0.7658 0.0
H974 H 0.67438 0.07134 0.78318 0.0
H975 H 0.69632 0.09857 0.77563 0.0
H976 H 0.71157 0.09341 0.71511 0.0
C977 C 0.76848 0.14367 0.71283 0.0
C978 C 0.74475 0.12628 0.75463 0.0
C979 C 0.7812 0.15878 0.7079 0.0
C980 C 0.6832 0.06899 0.77066 0.0
C981 C 0.69581 0.08456 0.76639 0.0
C982 C 0.72086 0.10239 0.72626 0.0
C983 C 0.75901 0.14604 0.73043 0.0
C984 C 0.74546 0.12991 0.73562 0.0
C985 C 0.70727 0.08215 0.75011 0.0
C986 C 0.72026 0.09874 0.74522 0.0
H987 H 0.77799 0.19259 0.74806 0.0
H988 H 0.75542 0.16636 0.75655 0.0
H989 H 0.7331 0.12043 0.70683 0.0
H990 H 0.6931 0.0343 0.73331 0.0
H991 H 0.71497 0.06151 0.72584 0.0
C992 C 0.45382 0.01854 0.49579 0.0
C993 C 0.46546 0.02534 0.51228 0.0
C994 C 0.43634 0.02594 0.49367 0.0
C995 C 0.4002 0.05319 0.52122 0.0
H996 H 0.38721 0.06607 0.47177 0.0
C997 C 0.34101 0.10183 0.51176 0.0
C998 C 0.32881 0.09645 0.49538 0.0
C999 C 0.35714 0.09223 0.51371 0.0
C1000 C 0.3905 0.06234 0.48561 0.0
H1001 H 0.46838 0.04488 0.53952 0.0
H1002 H 0.438 0.058 0.53586 0.0
H1003 H 0.41608 0.05052 0.4754 0.0
H1004 H 0.32399 0.07673 0.46822 0.0
H1005 H 0.35208 0.05995 0.47169 0.0
H1006 H 0.37474 0.06522 0.53148 0.0
C1007 C 0.44203 0.04679 0.52466 0.0
C1008 C 0.40704 0.05339 0.48769 0.0
C1009 C 0.45945 0.03938 0.52674 0.0
C1010 C 0.33311 0.08127 0.481 0.0
C1011 C 0.34927 0.07171 0.48294 0.0
C1012 C 0.38369 0.06216 0.51915 0.0
C1013 C 0.43031 0.04027 0.50804 0.0
C1014 C 0.41218 0.04884 0.50556 0.0
C1015 C 0.36147 0.07706 0.49932 0.0
C1016 C 0.37872 0.06698 0.50136 0.0
H1017 H 0.45832 0.00769 0.48448 0.0
H1018 H 0.42757 0.02044 0.4808 0.0
H1019 H 0.40355 0.04959 0.5351 0.0
H1020 H 0.33814 0.11348 0.52309 0.0
H1021 H 0.36639 0.09689 0.52639 0.0
C1022 C 0.59229 0.51582 0.57137 0.0
C1023 C 0.58979 0.53203 0.5627 0.0
C1024 C 0.60871 0.50639 0.56819 0.0
C1025 C 0.64745 0.49763 0.53445 0.0
H1026 H 0.67232 0.4825 0.57798 0.0
C1027 C 0.71719 0.4605 0.52706 0.0
C1028 C 0.71842 0.44516 0.53735 0.0
C1029 C 0.7023 0.47219 0.53029 0.0
C1030 C 0.66544 0.48643 0.56564 0.0
H1031 H 0.60254 0.55078 0.54353 0.0
H1032 H 0.63129 0.53402 0.53773 0.0
H1033 H 0.64491 0.501 0.58309 0.0
H1034 H 0.70497 0.43009 0.55913 0.0
H1035 H 0.67883 0.45026 0.56455 0.0
H1036 H 0.66773 0.48271 0.51694 0.0
C1037 C 0.62044 0.52874 0.54707 0.0
C1038 C 0.64977 0.49709 0.56858 0.0
C1039 C 0.60398 0.5383 0.55036 0.0
C1040 C 0.70449 0.44184 0.55102 0.0
C1041 C 0.68956 0.45349 0.5542 0.0
C1042 C 0.66309 0.48686 0.53149 0.0
C1043 C 0.62303 0.51279 0.55611 0.0
C1044 C 0.64046 0.50261 0.553 0.0
C1045 C 0.68825 0.46878 0.54385 0.0
C1046 C 0.67215 0.48095 0.54703 0.0
H1047 H 0.58142 0.51023 0.58053 0.0
H1048 H 0.61006 0.49388 0.57501 0.0
H1049 H 0.64045 0.50151 0.52215 0.0
H1050 H 0.72774 0.46351 0.51648 0.0
H1051 H 0.7019 0.484 0.52226 0.0
C1052 C 0.74342 0.26361 0.35132 0.0
C1053 C 0.72678 0.25014 0.34816 0.0
C1054 C 0.74428 0.27966 0.36603 0.0
C1055 C 0.72403 0.2951 0.41286 0.0
H1056 H 0.75049 0.34553 0.40762 0.0
C1057 C 0.73556 0.3586 0.47705 0.0
C1058 C 0.75395 0.36924 0.479 0.0
C1059 C 0.73008 0.34538 0.46028 0.0
C1060 C 0.74316 0.3315 0.40935 0.0
H1061 H 0.69777 0.24322 0.35748 0.0
H1062 H 0.69924 0.27143 0.38328 0.0
H1063 H 0.74441 0.32027 0.37932 0.0
H1064 H 0.78093 0.37446 0.46474 0.0
H1065 H 0.77153 0.35126 0.43571 0.0
H1066 H 0.72327 0.30609 0.44295 0.0
C1067 C 0.71165 0.26945 0.37441 0.0
C1068 C 0.73964 0.31706 0.39313 0.0
C1069 C 0.71074 0.25343 0.35956 0.0
C1070 C 0.76665 0.36655 0.46372 0.0
C1071 C 0.76119 0.35333 0.44699 0.0
C1072 C 0.72761 0.30953 0.4291 0.0
C1073 C 0.72854 0.28258 0.37797 0.0
C1074 C 0.73035 0.29859 0.39476 0.0
C1075 C 0.74288 0.3425 0.44509 0.0
C1076 C 0.73754 0.32778 0.42759 0.0
H1077 H 0.75593 0.26152 0.34263 0.0
H1078 H 0.75756 0.28939 0.36849 0.0
H1079 H 0.71705 0.28095 0.41463 0.0
H1080 H 0.72539 0.3604 0.48853 0.0
H1081 H 0.7158 0.33743 0.4592 0.0
C1082 C 0.52608 0.02897 0.92651 0.0
C1083 C 0.533 0.0241 0.9435 0.0
C1084 C 0.53822 0.03016 0.911 0.0
C1085 C 0.5892 0.03215 0.89635 0.0
H1086 H 0.56696 0.00411 0.84776 0.0
C1087 C 0.63547 0.00563 0.83196 0.0
C1088 C 0.62852 0.00615 0.81335 0.0
C1089 C 0.62409 0.01012 0.84791 0.0
C1090 C 0.57336 0.01228 0.86111 0.0
H1091 H 0.55784 0.01722 0.9582 0.0
H1092 H 0.5792 0.01929 0.93113 0.0
H1093 H 0.54681 0.00898 0.87564 0.0
H1094 H 0.60429 0.01225 0.79696 0.0
H1095 H 0.58456 0.02031 0.82477 0.0
H1096 H 0.61585 0.03519 0.88181 0.0
C1097 C 0.56454 0.02247 0.92974 0.0
C1098 C 0.56177 0.0151 0.87712 0.0
C1099 C 0.55236 0.02126 0.94523 0.0
C1100 C 0.61003 0.01154 0.81108 0.0
C1101 C 0.59868 0.01609 0.82703 0.0
C1102 C 0.6008 0.02938 0.88029 0.0
C1103 C 0.55746 0.02639 0.91226 0.0
C1104 C 0.56958 0.02489 0.89498 0.0
C1105 C 0.6055 0.0153 0.84564 0.0
C1106 C 0.59305 0.01922 0.86252 0.0
H1107 H 0.51109 0.03105 0.92492 0.0
H1108 H 0.5324 0.03347 0.89783 0.0
H1109 H 0.5956 0.03993 0.90986 0.0
H1110 H 0.64964 0.00152 0.83421 0.0
H1111 H 0.62971 0.00909 0.86199 0.0
C1112 C 0.30035 0.23888 0.33481 0.0
C1113 C 0.29408 0.25746 0.33749 0.0
C1114 C 0.29901 0.22777 0.34959 0.0
C1115 C 0.27109 0.22073 0.3918 0.0
H1116 H 0.31423 0.19703 0.40833 0.0
C1117 C 0.26797 0.18625 0.46033 0.0
C1118 C 0.27744 0.16977 0.46078 0.0
C1119 C 0.27032 0.19647 0.44497 0.0
C1120 C 0.30191 0.20325 0.40371 0.0
H1121 H 0.28229 0.27916 0.35826 0.0
H1122 H 0.27939 0.25952 0.38365 0.0
H1123 H 0.3179 0.21545 0.38186 0.0
H1124 H 0.29665 0.15093 0.44536 0.0
H1125 H 0.30022 0.16832 0.41821 0.0
H1126 H 0.25486 0.20827 0.41314 0.0
C1127 C 0.2852 0.25354 0.37006 0.0
C1128 C 0.30409 0.21387 0.38859 0.0
C1129 C 0.28679 0.26474 0.35544 0.0
C1130 C 0.28924 0.16365 0.44547 0.0
C1131 C 0.29138 0.17372 0.42995 0.0
C1132 C 0.26881 0.20989 0.40669 0.0
C1133 C 0.29115 0.2349 0.36725 0.0
C1134 C 0.28875 0.2229 0.38266 0.0
C1135 C 0.28196 0.19031 0.4295 0.0
C1136 C 0.28426 0.2012 0.41305 0.0
H1137 H 0.30584 0.23267 0.32115 0.0
H1138 H 0.30362 0.21338 0.34704 0.0
H1139 H 0.25894 0.2273 0.38731 0.0
H1140 H 0.25894 0.19146 0.47199 0.0
H1141 H 0.26316 0.20939 0.44541 0.0
C1142 C 0.50502 0.48703 0.96071 0.0
C1143 C 0.51951 0.50186 0.96854 0.0
C1144 C 0.49324 0.48942 0.9454 0.0
C1145 C 0.47725 0.52722 0.91993 0.0
H1146 H 0.46573 0.48429 0.87772 0.0
C1147 C 0.4475 0.53722 0.84632 0.0
C1148 C 0.4326 0.52332 0.83761 0.0
C1149 C 0.45715 0.5344 0.86284 0.0
C1150 C 0.46864 0.49634 0.8895 0.0
H1151 H 0.53255 0.53108 0.96683 0.0
H1152 H 0.51247 0.53501 0.93988 0.0
H1153 H 0.48403 0.47968 0.9058 0.0
H1154 H 0.41619 0.49554 0.8394 0.0
H1155 H 0.4331 0.49063 0.8682 0.0
H1156 H 0.46216 0.54397 0.90344 0.0
C1157 C 0.51002 0.5216 0.94564 0.0
C1158 C 0.47909 0.4937 0.90561 0.0
C1159 C 0.52173 0.51923 0.96093 0.0
C1160 C 0.4276 0.50653 0.84575 0.0
C1161 C 0.43734 0.50366 0.86219 0.0
C1162 C 0.4669 0.52988 0.90379 0.0
C1163 C 0.49568 0.5067 0.93762 0.0
C1164 C 0.48366 0.50916 0.92095 0.0
C1165 C 0.4522 0.51758 0.87093 0.0
C1166 C 0.46262 0.51452 0.88834 0.0
H1167 H 0.50301 0.47345 0.9662 0.0
H1168 H 0.48219 0.47774 0.93969 0.0
H1169 H 0.4802 0.53933 0.93164 0.0
H1170 H 0.45172 0.55031 0.8404 0.0
H1171 H 0.4687 0.54528 0.86912 0.0
C1172 C 0.74579 0.78494 0.17785 0.0
C1173 C 0.76052 0.794 0.19106 0.0
C1174 C 0.74924 0.76963 0.16336 0.0
C1175 C 0.78922 0.74998 0.13594 0.0
H1176 H 0.75142 0.70551 0.11858 0.0
C1177 C 0.80589 0.68638 0.07784 0.0
C1178 C 0.79142 0.67876 0.06384 0.0
C1179 C 0.80201 0.69964 0.09402 0.0
C1180 C 0.76206 0.71794 0.12315 0.0
H1181 H 0.79004 0.79335 0.20014 0.0
H1182 H 0.79602 0.76661 0.17496 0.0
H1183 H 0.74464 0.72966 0.14603 0.0
H1184 H 0.76148 0.6791 0.0559 0.0
H1185 H 0.7548 0.70238 0.08399 0.0
H1186 H 0.80656 0.73844 0.113 0.0
C1187 C 0.78194 0.7716 0.17551 0.0
C1188 C 0.75818 0.73176 0.13889 0.0
C1189 C 0.77851 0.78689 0.18996 0.0
C1190 C 0.77296 0.68464 0.06643 0.0
C1191 C 0.76908 0.6979 0.08261 0.0
C1192 C 0.79309 0.73619 0.12022 0.0
C1193 C 0.76748 0.76305 0.1618 0.0
C1194 C 0.7717 0.74797 0.14545 0.0
C1195 C 0.78357 0.7056 0.09658 0.0
C1196 C 0.77955 0.72003 0.11359 0.0
H1197 H 0.73185 0.79021 0.1782 0.0
H1198 H 0.73783 0.76348 0.15293 0.0
H1199 H 0.79981 0.76248 0.14038 0.0
H1200 H 0.82024 0.6821 0.07633 0.0
H1201 H 0.81344 0.70509 0.10463 0.0
C1202 C 0.03892 0.04489 0.11397 0.0
C1203 C 0.0357 0.05792 0.10147 0.0
C1204 C 0.03144 0.04712 0.13238 0.0
C1205 C 0.99209 0.06658 0.15978 0.0
H1206 H 0.02225 0.06017 0.20407 0.0
C1207 C 0.95949 0.07194 0.23488 0.0
C1208 C 0.96397 0.05815 0.24602 0.0
C1209 C 0.96957 0.07423 0.21823 0.0
C1210 C 0.01357 0.06182 0.19183 0.0
H1211 H 0.02238 0.08378 0.09881 0.0
H1212 H 0.00893 0.08736 0.13089 0.0
H1213 H 0.03738 0.05978 0.173 0.0
H1214 H 0.98281 0.03626 0.24865 0.0
H1215 H 2e-05 0.03987 0.2194 0.0
H1216 H 0.96811 0.06791 0.17828 0.0
C1217 C 0.01726 0.07543 0.12632 0.0
C1218 C 0.02227 0.06167 0.17406 0.0
C1219 C 0.02491 0.07332 0.10794 0.0
C1220 C 0.97905 0.04706 0.24042 0.0
C1221 C 0.98901 0.04922 0.22368 0.0
C1222 C 0.98334 0.06655 0.17749 0.0
C1223 C 0.0204 0.0623 0.13868 0.0
C1224 C 0.01157 0.06384 0.15782 0.0
C1225 C 0.98423 0.06267 0.21224 0.0
C1226 C 0.99391 0.06397 0.19371 0.0
H1227 H 0.04679 0.03261 0.10938 0.0
H1228 H 0.03383 0.03659 0.14148 0.0
H1229 H 0.98343 0.06804 0.14744 0.0
H1230 H 0.94806 0.08084 0.23889 0.0
H1231 H 0.96575 0.085 0.20999 0.0
C1232 C 0.28911 0.75483 0.16318 0.0
C1233 C 0.30616 0.76304 0.17331 0.0
C1234 C 0.27881 0.76623 0.15326 0.0
C1235 C 0.2741 0.81771 0.14909 0.0
H1236 H 0.25528 0.7957 0.0974 0.0
C1237 C 0.25861 0.86457 0.09239 0.0
C1238 C 0.24256 0.85845 0.07989 0.0
C1239 C 0.26381 0.85292 0.10535 0.0
C1240 C 0.26017 0.80199 0.11192 0.0
H1241 H 0.32594 0.7892 0.18139 0.0
H1242 H 0.30825 0.80907 0.16396 0.0
H1243 H 0.26891 0.77511 0.11727 0.0
H1244 H 0.2191 0.83546 0.07153 0.0
H1245 H 0.22826 0.8151 0.09416 0.0
H1246 H 0.26589 0.84473 0.14349 0.0
C1247 C 0.30248 0.79406 0.16383 0.0
C1248 C 0.26797 0.79017 0.12334 0.0
C1249 C 0.31269 0.78269 0.17372 0.0
C1250 C 0.23156 0.84061 0.08096 0.0
C1251 C 0.23686 0.82888 0.09384 0.0
C1252 C 0.2664 0.82953 0.13765 0.0
C1253 C 0.28547 0.78597 0.15335 0.0
C1254 C 0.27536 0.79798 0.14194 0.0
C1255 C 0.25316 0.83482 0.10603 0.0
C1256 C 0.25966 0.82188 0.11882 0.0
H1257 H 0.2839 0.73962 0.16274 0.0
H1258 H 0.26568 0.75958 0.14548 0.0
H1259 H 0.27929 0.82412 0.16349 0.0
H1260 H 0.26741 0.87822 0.09194 0.0
H1261 H 0.27658 0.85782 0.1144 0.0
C1262 C 0.02415 0.49925 0.07816 0.0
C1263 C 0.03018 0.48645 0.06246 0.0
C1264 C 0.03326 0.50143 0.09619 0.0
C1265 C 0.0641 0.47758 0.12537 0.0
H1266 H 0.07746 0.52975 0.15366 0.0
C1267 C 0.11725 0.49447 0.19045 0.0
C1268 C 0.11342 0.50873 0.20596 0.0
C1269 C 0.10601 0.4912 0.17353 0.0
C1270 C 0.07359 0.51506 0.14611 0.0
H1271 H 0.0506 0.46596 0.05344 0.0
H1272 H 0.0664 0.46967 0.08492 0.0
H1273 H 0.05973 0.525 0.1231 0.0
H1274 H 0.0945 0.53045 0.216 0.0
H1275 H 0.07474 0.52454 0.18658 0.0
H1276 H 0.07802 0.46763 0.14833 0.0
C1277 C 0.05445 0.47784 0.08333 0.0
C1278 C 0.06344 0.51235 0.12857 0.0
C1279 C 0.04538 0.4757 0.06528 0.0
C1280 C 0.0979 0.51943 0.20429 0.0
C1281 C 0.08664 0.51612 0.18738 0.0
C1282 C 0.0742 0.48029 0.14294 0.0
C1283 C 0.04858 0.49081 0.09895 0.0
C1284 C 0.0587 0.49359 0.11794 0.0
C1285 C 0.09065 0.50206 0.17174 0.0
C1286 C 0.0792 0.49907 0.15345 0.0
H1287 H 0.01229 0.50752 0.07654 0.0
H1288 H 0.02823 0.51134 0.10801 0.0
H1289 H 0.06041 0.46292 0.11765 0.0
H1290 H 0.12912 0.48601 0.19124 0.0
H1291 H 0.10967 0.48044 0.16169 0.0
C1292 C 0.34993 0.72599 0.27069 0.0
C1293 C 0.35396 0.72341 0.25101 0.0
C1294 C 0.36445 0.72609 0.28439 0.0
C1295 C 0.41211 0.71004 0.29023 0.0
H1296 H 0.41633 0.74914 0.33631 0.0
C1297 C 0.47903 0.72485 0.34099 0.0
C1298 C 0.47637 0.72972 0.36085 0.0
C1299 C 0.46352 0.72279 0.32798 0.0
C1300 C 0.41518 0.73792 0.32368 0.0
H1301 H 0.37635 0.71874 0.23027 0.0
H1302 H 0.40177 0.71914 0.25422 0.0
H1303 H 0.39045 0.74832 0.31284 0.0
H1304 H 0.45517 0.73564 0.38265 0.0
H1305 H 0.42803 0.73175 0.35994 0.0
H1306 H 0.43686 0.69965 0.30104 0.0
C1307 C 0.38734 0.72095 0.25903 0.0
C1308 C 0.40037 0.73749 0.3102 0.0
C1309 C 0.37284 0.72095 0.24533 0.0
C1310 C 0.45774 0.73197 0.36744 0.0
C1311 C 0.4422 0.72987 0.35441 0.0
C1312 C 0.42689 0.71042 0.30374 0.0
C1313 C 0.3833 0.72352 0.27871 0.0
C1314 C 0.39875 0.72364 0.29327 0.0
C1315 C 0.44495 0.7255 0.33451 0.0
C1316 C 0.42869 0.72446 0.32057 0.0
H1317 H 0.33555 0.72807 0.27551 0.0
H1318 H 0.36086 0.72795 0.29943 0.0
H1319 H 0.41105 0.69899 0.27747 0.0
H1320 H 0.4932 0.72306 0.33542 0.0
H1321 H 0.46621 0.71966 0.31276 0.0
C1322 C 0.00057 0.4282 0.00693 0.0
C1323 C 0.0063 0.44544 0.99974 0.0
C1324 C -4e-05 0.41009 0.99505 0.0
C1325 C 0.99824 0.38608 0.94429 0.0
H1326 H 0.02282 0.34636 0.96392 0.0
C1327 C 0.01804 0.31787 0.89461 0.0
C1328 C 0.016 0.3001 0.90147 0.0
C1329 C 0.01565 0.3352 0.90681 0.0
C1330 C 0.01562 0.35715 0.95829 0.0
H1331 H 0.01556 0.45705 0.97423 0.0
H1332 H 0.01416 0.42551 0.95348 0.0
H1333 H 0.02 0.37721 0.98475 0.0
H1334 H 0.00968 0.28658 0.92654 0.0
H1335 H 0.00518 0.31677 0.94778 0.0
H1336 H 0.99383 0.36607 0.91784 0.0
C1337 C 0.01004 0.42603 0.9683 0.0
C1338 C 0.01403 0.37485 0.97024 0.0
C1339 C 0.01079 0.44413 0.98021 0.0
C1340 C 0.01147 0.30004 0.92083 0.0
C1341 C 0.00897 0.31738 0.93303 0.0
C1342 C 0.99972 0.36834 0.93237 0.0
C1343 C 0.00491 0.4088 0.97566 0.0
C1344 C 0.0055 0.38959 0.96331 0.0
C1345 C 0.01104 0.33519 0.92617 0.0
C1346 C 0.00864 0.35372 0.93915 0.0
H1347 H 0.99669 0.42867 0.02181 0.0
H1348 H 0.99567 0.39707 0.00105 0.0
H1349 H 0.99136 0.39706 0.93862 0.0
H1350 H 0.02161 0.31846 0.8798 0.0
H1351 H 0.0177 0.34866 0.90111 0.0
C1352 C 0.67559 0.80015 0.24374 0.0
C1353 C 0.69463 0.80382 0.25076 0.0
C1354 C 0.6616 0.79004 0.25355 0.0
C1355 C 0.65155 0.78158 0.30249 0.0
H1356 H 0.60843 0.74631 0.27794 0.0
C1357 C 0.59018 0.75012 0.34659 0.0
C1358 C 0.57142 0.75 0.33933 0.0
C1359 C 0.60608 0.75389 0.33532 0.0
C1360 C 0.62033 0.75623 0.285 0.0
H1361 H 0.71446 0.79948 0.27282 0.0
H1362 H 0.69007 0.78154 0.28994 0.0
H1363 H 0.63493 0.75725 0.25854 0.0
H1364 H 0.55466 0.75346 0.31443 0.0
H1365 H 0.5823 0.76037 0.29497 0.0
H1366 H 0.63679 0.78107 0.32883 0.0
C1367 C 0.68582 0.78654 0.27701 0.0
C1368 C 0.63552 0.76245 0.27389 0.0
C1369 C 0.69979 0.79662 0.26716 0.0
C1370 C 0.5689 0.75342 0.32047 0.0
C1371 C 0.58478 0.75723 0.30924 0.0
C1372 C 0.63636 0.77541 0.31358 0.0
C1373 C 0.66647 0.78359 0.2706 0.0
C1374 C 0.65118 0.77541 0.28248 0.0
C1375 C 0.60357 0.75766 0.31656 0.0
C1376 C 0.62042 0.76289 0.30494 0.0
H1377 H 0.67136 0.80586 0.2312 0.0
H1378 H 0.6468 0.78821 0.24834 0.0
H1379 H 0.66324 0.79182 0.30952 0.0
H1380 H 0.59261 0.74742 0.36103 0.0
H1381 H 0.62034 0.75387 0.34132 0.0
C1382 C 0.02577 0.07571 0.9863 0.0
C1383 C 0.03348 0.08161 0.00498 0.0
C1384 C 0.02517 0.08923 0.9739 0.0
C1385 C 0.04427 0.13884 0.96637 0.0
H1386 H 0.99553 0.13645 0.93912 0.0
C1387 C 0.03144 0.18982 0.91203 0.0
C1388 C 0.01389 0.19781 0.91319 0.0
C1389 C 0.03467 0.17522 0.92253 0.0
C1390 C 0.00921 0.13736 0.94669 0.0
H1391 H 0.04702 0.10582 0.02549 0.0
H1392 H 0.04605 0.1296 0.00384 0.0
H1393 H 0.00046 0.11168 0.95847 0.0
H1394 H 0.98594 0.19664 0.92629 0.0
H1395 H 0.99158 0.17119 0.94459 0.0
H1396 H 0.05283 0.16482 0.95488 0.0
C1397 C 0.04067 0.11455 0.99859 0.0
C1398 C 0.01212 0.12303 0.95759 0.0
C1399 C 0.04122 0.101 0.01099 0.0
C1400 C 0.99961 0.19079 0.92502 0.0
C1401 C 0.0028 0.17612 0.93544 0.0
C1402 C 0.04138 0.15315 0.95536 0.0
C1403 C 0.03222 0.1089 0.98005 0.0
C1404 C 0.02964 0.12366 0.96767 0.0
C1405 C 0.02037 0.16818 0.93434 0.0
C1406 C 0.02375 0.15266 0.94553 0.0
H1407 H 0.01961 0.06078 0.9815 0.0
H1408 H 0.01882 0.08436 0.95964 0.0
H1409 H 0.05797 0.13968 0.97386 0.0
H1410 H 0.04276 0.19488 0.90305 0.0
H1411 H 0.04829 0.16927 0.92122 0.0
C1412 C 0.33536 0.29598 0.27415 0.0
C1413 C 0.32592 0.27906 0.27967 0.0
C1414 C 0.35029 0.2948 0.26107 0.0
C1415 C 0.37024 0.26093 0.22277 0.0
H1416 H 0.41786 0.29521 0.23428 0.0
C1417 C 0.43956 0.24672 0.18198 0.0
C1418 C 0.45209 0.2627 0.17824 0.0
C1419 C 0.42365 0.24948 0.19352 0.0
C1420 C 0.40457 0.28572 0.23066 0.0
H1421 H 0.32442 0.24764 0.27546 0.0
H1422 H 0.35043 0.24557 0.25269 0.0
H1423 H 0.39094 0.29882 0.25581 0.0
H1424 H 0.4575 0.29418 0.18341 0.0
H1425 H 0.42951 0.29905 0.20321 0.0
H1426 H 0.38373 0.24784 0.19762 0.0
C1427 C 0.34632 0.25975 0.25846 0.0
C1428 C 0.38915 0.28778 0.24303 0.0
C1429 C 0.33155 0.26094 0.27164 0.0
C1430 C 0.44819 0.28155 0.18608 0.0
C1431 C 0.43219 0.28433 0.19754 0.0
C1432 C 0.38559 0.25895 0.21033 0.0
C1433 C 0.35591 0.27665 0.25307 0.0
C1434 C 0.3719 0.27525 0.23935 0.0
C1435 C 0.41977 0.26832 0.20151 0.0
C1436 C 0.40305 0.27116 0.21422 0.0
H1437 H 0.3314 0.31015 0.28017 0.0
H1438 H 0.35734 0.30806 0.2571 0.0
H1439 H 0.35702 0.25125 0.21938 0.0
H1440 H 0.44219 0.23198 0.17626 0.0
H1441 H 0.41462 0.23679 0.1965 0.0
C1442 C 0.5326 0.42965 0.03186 0.0
C1443 C 0.53768 0.44745 0.04398 0.0
C1444 C 0.53227 0.41223 0.03903 0.0
C1445 C 0.54778 0.3903 0.08006 0.0
H1446 H 0.50186 0.354 0.06603 0.0
C1447 C 0.52406 0.32721 0.1213 0.0
C1448 C 0.51564 0.30949 0.11063 0.0
C1449 C 0.52841 0.34353 0.11245 0.0
C1450 C 0.51493 0.36379 0.06989 0.0
H1451 H 0.54686 0.46142 0.07275 0.0
H1452 H 0.54633 0.43094 0.08543 0.0
H1453 H 0.5072 0.38319 0.05158 0.0
H1454 H 0.50565 0.2949 0.08216 0.0
H1455 H 0.51346 0.32323 0.06671 0.0
H1456 H 0.55539 0.37092 0.09855 0.0
C1457 C 0.54283 0.4303 0.07035 0.0
C1458 C 0.518 0.38055 0.06158 0.0
C1459 C 0.54311 0.44773 0.06315 0.0
C1460 C 0.512 0.30836 0.09085 0.0
C1461 C 0.51639 0.32464 0.082 0.0
C1462 C 0.54474 0.37347 0.08835 0.0
C1463 C 0.53695 0.41237 0.05848 0.0
C1464 C 0.5344 0.39407 0.06663 0.0
C1465 C 0.52448 0.34249 0.09271 0.0
C1466 C 0.5282 0.36007 0.08345 0.0
H1467 H 0.52826 0.42923 0.01702 0.0
H1468 H 0.52794 0.39867 0.02945 0.0
H1469 H 0.56065 0.40033 0.08411 0.0
H1470 H 0.52704 0.32859 0.13658 0.0
H1471 H 0.53442 0.35709 0.12119 0.0
C1472 C 0.66862 0.23263 0.26968 0.0
C1473 C 0.66565 0.22023 0.28325 0.0
C1474 C 0.65294 0.23909 0.26132 0.0
C1475 C 0.60162 0.22392 0.25 0.0
H1476 H 0.60229 0.27528 0.23649 0.0
C1477 C 0.53649 0.24596 0.21228 0.0
C1478 C 0.54038 0.25625 0.19701 0.0
C1479 C 0.55135 0.24318 0.22446 0.0
C1480 C 0.60195 0.26084 0.24004 0.0
H1481 H 0.64447 0.20518 0.29936 0.0
H1482 H 0.61693 0.21665 0.285 0.0
H1483 H 0.62903 0.26797 0.2554 0.0
H1484 H 0.5629 0.27201 0.1828 0.0
H1485 H 0.58887 0.26689 0.20391 0.0
H1486 H 0.5748 0.2166 0.23438 0.0
C1487 C 0.63127 0.22128 0.2806 0.0
C1488 C 0.61725 0.25666 0.2509 0.0
C1489 C 0.64697 0.21485 0.28893 0.0
C1490 C 0.55941 0.26403 0.19444 0.0
C1491 C 0.57429 0.2612 0.20662 0.0
C1492 C 0.58637 0.22808 0.23914 0.0
C1493 C 0.63404 0.23313 0.26637 0.0
C1494 C 0.61731 0.23811 0.2559 0.0
C1495 C 0.57046 0.25056 0.22166 0.0
C1496 C 0.58639 0.24653 0.23391 0.0
H1497 H 0.683 0.23675 0.26501 0.0
H1498 H 0.65558 0.24802 0.25028 0.0
H1499 H 0.60137 0.20937 0.25326 0.0
H1500 H 0.52198 0.2399 0.21476 0.0
H1501 H 0.54784 0.23519 0.23609 0.0
C1502 C 0.4771 0.08452 0.01475 0.0
C1503 C 0.49148 0.07204 0.01151 0.0
C1504 C 0.4813 0.10336 0.02503 0.0
C1505 C 0.51629 0.13222 0.06105 0.0
H1506 H 0.4904 0.17529 0.05028 0.0
C1507 C 0.53212 0.20967 0.10516 0.0
C1508 C 0.51603 0.21926 0.11085 0.0
C1509 C 0.53007 0.1924 0.09183 0.0
C1510 C 0.49765 0.16336 0.05353 0.0
H1511 H 0.52179 0.06993 0.01589 0.0
H1512 H 0.52926 0.10302 0.03334 0.0
H1513 H 0.48565 0.14424 0.0284 0.0
H1514 H 0.48517 0.21832 0.10682 0.0
H1515 H 0.48161 0.18816 0.08356 0.0
H1516 H 0.52822 0.15134 0.08621 0.0
C1517 C 0.51461 0.09808 0.02827 0.0
C1518 C 0.49493 0.14556 0.041 0.0
C1519 C 0.51038 0.07918 0.01804 0.0
C1520 C 0.49787 0.21129 0.10276 0.0
C1521 C 0.49584 0.19409 0.08933 0.0
C1522 C 0.51908 0.15005 0.07351 0.0
C1523 C 0.50003 0.11027 0.03224 0.0
C1524 C 0.50403 0.12968 0.04472 0.0
C1525 C 0.5119 0.18439 0.08379 0.0
C1526 C 0.50963 0.16576 0.07001 0.0
H1527 H 0.46244 0.07959 0.00967 0.0
H1528 H 0.46966 0.11224 0.0279 0.0
H1529 H 0.52327 0.12025 0.06459 0.0
H1530 H 0.54632 0.21542 0.11108 0.0
H1531 H 0.54275 0.18538 0.08772 0.0
C1532 C 0.30034 0.35093 0.71745 0.0
C1533 C 0.28125 0.35105 0.72345 0.0
C1534 C 0.31312 0.36806 0.72054 0.0
C1535 C 0.32038 0.41574 0.75213 0.0
H1536 H 0.35808 0.42899 0.71503 0.0
C1537 C 0.36819 0.48913 0.76407 0.0
C1538 C 0.38777 0.48878 0.76002 0.0
C1539 C 0.35501 0.47263 0.7584 0.0
C1540 C 0.34773 0.42539 0.72559 0.0
H1541 H 0.26032 0.36931 0.73644 0.0
H1542 H 0.28254 0.39917 0.74172 0.0
H1543 H 0.33528 0.39956 0.70704 0.0
H1544 H 0.40881 0.47092 0.74648 0.0
H1545 H 0.38579 0.44202 0.73675 0.0
H1546 H 0.33284 0.4414 0.77074 0.0
C1547 C 0.28778 0.38581 0.73504 0.0
C1548 C 0.33469 0.40855 0.72102 0.0
C1549 C 0.27504 0.36872 0.732 0.0
C1550 C 0.39383 0.47167 0.74984 0.0
C1551 C 0.38062 0.45514 0.74416 0.0
C1552 C 0.33339 0.43254 0.75669 0.0
C1553 C 0.30704 0.38563 0.72965 0.0
C1554 C 0.32085 0.40356 0.73424 0.0
C1555 C 0.3611 0.45538 0.74856 0.0
C1556 C 0.3472 0.43758 0.74348 0.0
H1557 H 0.30556 0.33749 0.71097 0.0
H1558 H 0.32792 0.36741 0.71638 0.0
H1559 H 0.31017 0.41212 0.7628 0.0
H1560 H 0.36302 0.50211 0.7718 0.0
H1561 H 0.34001 0.47338 0.76175 0.0
C1562 C 0.26178 0.67771 0.83329 0.0
C1563 C 0.26021 0.68842 0.81833 0.0
C1564 C 0.27605 0.66535 0.83318 0.0
C1565 C 0.32309 0.65614 0.81299 0.0
H1566 H 0.30962 0.60436 0.82477 0.0
C1567 C 0.37341 0.59625 0.79776 0.0
C1568 C 0.37392 0.58318 0.81077 0.0
C1569 C 0.36022 0.60988 0.79983 0.0
C1570 C 0.31372 0.61887 0.82174 0.0
H1571 H 0.2725 0.69475 0.79165 0.0
H1572 H 0.29735 0.67302 0.79136 0.0
H1573 H 0.28518 0.62653 0.82609 0.0
H1574 H 0.3614 0.5746 0.83653 0.0
H1575 H 0.33862 0.59862 0.84035 0.0
H1576 H 0.35163 0.64853 0.80864 0.0
C1577 C 0.28759 0.67428 0.80323 0.0
C1578 C 0.29968 0.63156 0.82246 0.0
C1579 C 0.27325 0.68655 0.80328 0.0
C1580 C 0.3613 0.58438 0.82619 0.0
C1581 C 0.34815 0.59807 0.82831 0.0
C1582 C 0.33716 0.6435 0.81236 0.0
C1583 C 0.28912 0.66352 0.81816 0.0
C1584 C 0.30418 0.65027 0.81794 0.0
C1585 C 0.3473 0.61083 0.81502 0.0
C1586 C 0.33261 0.62465 0.81659 0.0
H1587 H 0.25184 0.67873 0.845 0.0
H1588 H 0.27696 0.65735 0.84495 0.0
H1589 H 0.32706 0.67059 0.80972 0.0
H1590 H 0.3829 0.5957 0.78568 0.0
H1591 H 0.35981 0.6193 0.78919 0.0
C1592 C 0.9354 0.52333 0.4947 0.0
C1593 C 0.95317 0.51675 0.49766 0.0
C1594 C 0.91837 0.51333 0.49997 0.0
C1595 C 0.89866 0.46562 0.51275 0.0
H1596 H 0.85629 0.49396 0.53135 0.0
C1597 C 0.83175 0.43099 0.54751 0.0
C1598 C 0.81399 0.4335 0.53948 0.0
C1599 C 0.84871 0.44145 0.54273 0.0
C1600 C 0.86801 0.4859 0.5261 0.0
H1601 H 0.96726 0.49495 0.50884 0.0
H1602 H 0.93769 0.47788 0.51878 0.0
H1603 H 0.88614 0.5117 0.52279 0.0
H1604 H 0.79998 0.44924 0.52051 0.0
H1605 H 0.82968 0.46789 0.51252 0.0
H1606 H 0.88056 0.43988 0.5167 0.0
C1607 C 0.9367 0.49034 0.51179 0.0
C1608 C 0.88509 0.49601 0.52107 0.0
C1609 C 0.95368 0.50016 0.50621 0.0
C1610 C 0.81347 0.44697 0.52688 0.0
C1611 C 0.83041 0.45769 0.52238 0.0
C1612 C 0.8817 0.45557 0.5181 0.0
C1613 C 0.91878 0.49671 0.50864 0.0
C1614 C 0.90063 0.486 0.51424 0.0
C1615 C 0.84819 0.45487 0.53011 0.0
C1616 C 0.86622 0.46561 0.52473 0.0
H1617 H 0.93466 0.53601 0.48797 0.0
H1618 H 0.90488 0.51849 0.49696 0.0
H1619 H 0.91009 0.45732 0.50718 0.0
H1620 H 0.83261 0.42067 0.55722 0.0
H1621 H 0.86226 0.43912 0.54896 0.0
C1622 C 0.74978 0.81824 0.76048 0.0
C1623 C 0.76064 0.82003 0.77754 0.0
C1624 C 0.74321 0.83464 0.755 0.0
C1625 C 0.74837 0.88874 0.76511 0.0
H1626 H 0.69444 0.8814 0.74954 0.0
C1627 C 0.70867 0.95091 0.74497 0.0
C1628 C 0.69018 0.95229 0.75233 0.0
C1629 C 0.71823 0.9348 0.74653 0.0
C1630 C 0.70949 0.88371 0.75392 0.0
H1631 H 0.77379 0.83997 0.80203 0.0
H1632 H 0.76233 0.86871 0.79257 0.0
H1633 H 0.71031 0.85347 0.75439 0.0
H1634 H 0.66725 0.9378 0.76714 0.0
H1635 H 0.68393 0.90977 0.76993 0.0
H1636 H 0.74732 0.91913 0.76523 0.0
C1637 C 0.75906 0.85482 0.78321 0.0
C1638 C 0.71868 0.86765 0.75645 0.0
C1639 C 0.76561 0.83841 0.78866 0.0
C1640 C 0.68146 0.93718 0.76127 0.0
C1641 C 0.69097 0.92105 0.76276 0.0
C1642 C 0.73918 0.90482 0.76252 0.0
C1643 C 0.74734 0.85305 0.76658 0.0
C1644 C 0.73817 0.86999 0.76229 0.0
C1645 C 0.70947 0.91966 0.75541 0.0
C1646 C 0.71956 0.90251 0.75715 0.0
H1647 H 0.74569 0.80408 0.75182 0.0
H1648 H 0.73445 0.83281 0.74198 0.0
H1649 H 0.76342 0.89102 0.76948 0.0
H1650 H 0.71581 0.96228 0.73798 0.0
H1651 H 0.73239 0.93408 0.74058 0.0
C1652 C 0.58766 0.53361 0.9953 0.0
C1653 C 0.58442 0.51514 0.00066 0.0
C1654 C 0.60622 0.54307 0.99501 0.0
C1655 C 0.65535 0.54604 0.01428 0.0
H1656 H 0.66753 0.57273 0.97119 0.0
C1657 C 0.7298 0.58972 0.00629 0.0
C1658 C 0.72908 0.60816 0.00118 0.0
C1659 C 0.71312 0.57651 0.0055 0.0
C1660 C 0.66434 0.56543 0.98336 0.0
H1661 H 0.59817 0.49239 0.01063 0.0
H1662 H 0.63094 0.50913 0.01023 0.0
H1663 H 0.63671 0.55282 0.97147 0.0
H1664 H 0.71034 0.62707 0.99105 0.0
H1665 H 0.68136 0.60409 0.98969 0.0
H1666 H 0.68296 0.55902 0.02629 0.0
C1667 C 0.61895 0.51616 0.00616 0.0
C1668 C 0.64669 0.55402 0.98352 0.0
C1669 C 0.60023 0.50661 0.0064 0.0
C1670 C 0.71141 0.61299 0.99506 0.0
C1671 C 0.69481 0.59977 0.99416 0.0
C1672 C 0.67309 0.5575 0.01411 0.0
C1673 C 0.62212 0.53438 1.00016 0.0
C1674 C 0.64179 0.54458 0.99919 0.0
C1675 C 0.69545 0.5814 0.99942 0.0
C1676 C 0.67756 0.56767 0.99884 0.0
H1677 H 0.57576 0.54086 0.99134 0.0
H1678 H 0.60811 0.55732 0.99085 0.0
H1679 H 0.65195 0.53902 0.02658 0.0
H1680 H 0.74319 0.58555 0.01108 0.0
H1681 H 0.71408 0.56241 0.00951 0.0
C1682 C 0.2826 0.68267 0.2101 0.0
C1683 C 0.28789 0.69827 0.22505 0.0
C1684 C 0.26792 0.66807 0.21258 0.0
C1685 C 0.24352 0.64685 0.25202 0.0
H1686 H 0.21155 0.61595 0.21036 0.0
C1687 C 0.18457 0.58543 0.26356 0.0
C1688 C 0.18486 0.56763 0.25112 0.0
C1689 C 0.19593 0.60214 0.26008 0.0
C1690 C 0.22046 0.62444 0.2221 0.0
H1691 H 0.28128 0.71171 0.25372 0.0
H1692 H 0.25503 0.68679 0.25779 0.0
H1693 H 0.23238 0.64467 0.20453 0.0
H1694 H 0.19713 0.55346 0.22513 0.0
H1695 H 0.21683 0.58275 0.21897 0.0
H1696 H 0.2314 0.62669 0.2696 0.0
C1697 C 0.26261 0.68532 0.2444 0.0
C1698 C 0.23243 0.64087 0.21877 0.0
C1699 C 0.27748 0.69972 0.24203 0.0
C1700 C 0.19665 0.56693 0.23504 0.0
C1701 C 0.20781 0.58372 0.23141 0.0
C1702 C 0.23138 0.6306 0.25538 0.0
C1703 C 0.25809 0.66893 0.22999 0.0
C1704 C 0.24427 0.6522 0.23366 0.0
C1705 C 0.20761 0.60146 0.24394 0.0
C1706 C 0.21988 0.61913 0.24043 0.0
H1707 H 0.2906 0.68115 0.19696 0.0
H1708 H 0.26503 0.65563 0.20121 0.0
H1709 H 0.25273 0.65486 0.26376 0.0
H1710 H 0.17563 0.58645 0.27607 0.0
H1711 H 0.19543 0.61566 0.26991 0.0
C1712 C 0.96169 0.54152 0.02463 0.0
C1713 C 0.96763 0.52894 0.00886 0.0
C1714 C 0.94435 0.54938 0.02365 0.0
C1715 C 0.9098 0.56058 0.98862 0.0
H1716 H 0.87685 0.5673 0.03257 0.0
C1717 C 0.83574 0.58853 0.98472 0.0
C1718 C 0.83098 0.6022 1.00033 0.0
C1719 C 0.85198 0.57888 0.98574 0.0
C1720 C 0.88599 0.56569 0.02024 0.0
H1721 H 0.96045 0.51428 0.97985 0.0
H1722 H 0.92986 0.5278 0.97808 0.0
H1723 H 0.90571 0.55122 0.03439 0.0
H1724 H 0.83956 0.61645 0.0293 0.0
H1725 H 0.86799 0.59971 0.03102 0.0
H1726 H 0.89015 0.57514 0.97451 0.0
C1727 C 0.93862 0.53184 0.99114 0.0
C1728 C 0.90252 0.55646 0.02127 0.0
C1729 C 0.956 0.524 0.99216 0.0
C1730 C 0.8428 0.60597 0.01702 0.0
C1731 C 0.85903 0.59629 0.01806 0.0
C1732 C 0.89326 0.56979 0.98759 0.0
C1733 C 0.93267 0.54477 0.00683 0.0
C1734 C 0.91468 0.55389 0.0055 0.0
C1735 C 0.86383 0.58265 0.00241 0.0
C1736 C 0.88122 0.57253 0.00341 0.0
H1737 H 0.97063 0.54556 0.0376 0.0
H1738 H 0.94035 0.55947 0.03589 0.0
H1739 H 0.91901 0.55913 0.97633 0.0
H1740 H 0.82692 0.58523 0.97166 0.0
H1741 H 0.85515 0.56829 0.97352 0.0
C1742 C 0.08791 0.01862 0.0663 0.0
C1743 C 0.08477 0.03322 0.05558 0.0
C1744 C 0.10406 0.00875 0.06341 0.0
C1745 C 0.14025 0.99477 0.02826 0.0
H1746 H 0.16738 0.98464 0.07296 0.0
C1747 C 0.20823 0.95444 0.02241 0.0
C1748 C 0.20945 0.94073 0.03467 0.0
C1749 C 0.19391 0.96689 0.02472 0.0
C1750 C 0.15987 0.98718 0.06032 0.0
H1751 H 0.09608 0.04855 0.03308 0.0
H1752 H 0.12441 0.031 0.02785 0.0
H1753 H 0.14097 0.00453 0.07723 0.0
H1754 H 0.19651 0.92931 0.05891 0.0
H1755 H 0.17141 0.95082 0.06278 0.0
H1756 H 0.15896 0.97709 0.01135 0.0
C1757 C 0.11426 0.02735 0.03857 0.0
C1758 C 0.14477 0.99862 0.06277 0.0
C1759 C 0.09806 0.03738 0.04155 0.0
C1760 C 0.19603 0.93975 0.04927 0.0
C1761 C 0.18171 0.95218 0.05157 0.0
C1762 C 0.15536 0.98324 0.0258 0.0
C1763 C 0.11749 0.01304 0.04961 0.0
C1764 C 0.13459 0.0023 0.04679 0.0
C1765 C 0.18048 0.96593 0.03934 0.0
C1766 C 0.16515 0.97907 0.04182 0.0
H1767 H 0.0777 0.01458 0.07682 0.0
H1768 H 0.10586 0.99747 0.07181 0.0
H1769 H 0.13257 0.9972 0.01568 0.0
H1770 H 0.21838 0.95562 0.01104 0.0
H1771 H 0.19351 0.97744 0.01519 0.0
loop_
_geom_bond_atom_site_label_1
_geom_bond_atom_site_label_2
_geom_bond_distance
_geom_bond_site_symmetry_2
_ccdc_geom_bond_type
H0 C3 0.929 . S
H1 C6 0.929 . S
H2 C8 0.930 . S
C3 H0 0.929 . S
C3 C4 1.398 . S
C3 C5 1.396 . S
C4 C3 1.398 . S
C4 C8 1.407 . S
C5 C3 1.396 . S
C5 C6 1.394 . S
C6 H1 0.929 . S
C6 C5 1.394 . S
C6 C7 1.382 . S
C7 C6 1.382 . S
C7 C8 1.392 . S
C7 N9 1.420 . S
C8 H2 0.930 . S
C8 C4 1.407 . S
C8 C7 1.392 . S
N9 C7 1.420 . S
N9 C10 1.244 . S
C10 N9 1.244 . S
H11 C14 0.929 . S
H12 C17 0.929 . S
H13 C19 0.930 . S
C14 H11 0.929 . S
C14 C15 1.398 . S
C14 C16 1.396 . S
C15 C14 1.398 . S
C15 C19 1.407 . S
C16 C14 1.396 . S
C16 C17 1.394 . S
C17 H12 0.929 . S
C17 C16 1.394 . S
C17 C18 1.382 . S
C18 C17 1.382 . S
C18 C19 1.392 . S
C18 N20 1.420 . S
C19 H13 0.930 . S
C19 C15 1.407 . S
C19 C18 1.392 . S
N20 C18 1.420 . S
N20 C21 1.244 . S
C21 N20 1.244 . S
H22 C25 0.929 . S
H23 C28 0.929 . S
H24 C30 0.930 . S
C25 H22 0.929 . S
C25 C26 1.398 1_455 S
C25 C27 1.396 . S
C26 C25 1.398 1_655 S
C26 C30 1.407 . S
C27 C25 1.396 . S
C27 C28 1.394 1_455 S
C28 H23 0.929 . S
C28 C27 1.394 1_655 S
C28 C29 1.382 . S
C29 C28 1.382 . S
C29 C30 1.392 . S
C29 N31 1.420 . S
C30 H24 0.930 . S
C30 C26 1.407 . S
C30 C29 1.392 . S
N31 C29 1.420 . S
N31 C32 1.244 . S
C32 N31 1.244 . S
H33 C36 0.929 . S
H34 C39 0.929 . S
H35 C41 0.930 . S
C36 H33 0.929 . S
C36 C37 1.398 . S
C36 C38 1.396 . S
C37 C36 1.398 . S
C37 C41 1.407 . S
C38 C36 1.396 . S
C38 C39 1.394 . S
C39 H34 0.929 . S
C39 C38 1.394 . S
C39 C40 1.382 . S
C40 C39 1.382 . S
C40 C41 1.392 . S
C40 N42 1.420 . S
C41 H35 0.930 . S
C41 C37 1.407 . S
C41 C40 1.392 . S
N42 C40 1.420 . S
N42 C43 1.244 . S
C43 N42 1.244 . S
H44 C47 0.929 1_545 S
H45 C50 0.929 . S
H46 C52 0.930 . S
C47 H44 0.929 1_565 S
C47 C48 1.398 . S
C47 C49 1.396 . S
C48 C47 1.398 . S
C48 C52 1.407 . S
C49 C47 1.396 . S
C49 C50 1.394 . S
C50 H45 0.929 . S
C50 C49 1.394 . S
C50 C51 1.382 . S
C51 C50 1.382 . S
C51 C52 1.392 . S
C51 N53 1.420 . S
C52 H46 0.930 . S
C52 C48 1.407 . S
C52 C51 1.392 . S
N53 C51 1.420 . S
N53 C54 1.244 . S
C54 N53 1.244 . S
H55 C58 0.929 . S
H56 C61 0.929 . S
H57 C63 0.930 . S
C58 H55 0.929 . S
C58 C59 1.398 . S
C58 C60 1.396 . S
C59 C58 1.398 . S
C59 C63 1.407 . S
C60 C58 1.396 . S
C60 C61 1.394 . S
C61 H56 0.929 . S
C61 C60 1.394 . S
C61 C62 1.382 . S
C62 C61 1.382 . S
C62 C63 1.392 . S
C62 N64 1.420 . S
C63 H57 0.930 . S
C63 C59 1.407 . S
C63 C62 1.392 . S
N64 C62 1.420 . S
N64 C65 1.244 . S
C65 N64 1.244 . S
H66 C69 0.929 . S
H67 C72 0.929 1_455 S
H68 C74 0.930 . S
C69 H66 0.929 . S
C69 C70 1.398 . S
C69 C71 1.396 . S
C70 C69 1.398 . S
C70 C74 1.407 . S
C71 C69 1.396 . S
C71 C72 1.394 . S
C72 H67 0.929 1_655 S
C72 C71 1.394 . S
C72 C73 1.382 . S
C73 C72 1.382 . S
C73 C74 1.392 . S
C73 N75 1.420 1_655 S
C74 H68 0.930 . S
C74 C70 1.407 . S
C74 C73 1.392 . S
N75 C73 1.420 1_455 S
N75 C76 1.244 . S
C76 N75 1.244 . S
H77 C80 0.929 . S
H78 C83 0.929 . S
H79 C85 0.930 . S
C80 H77 0.929 . S
C80 C81 1.398 . S
C80 C82 1.396 . S
C81 C80 1.398 . S
C81 C85 1.407 . S
C82 C80 1.396 . S
C82 C83 1.394 . S
C83 H78 0.929 . S
C83 C82 1.394 . S
C83 C84 1.382 . S
C84 C83 1.382 . S
C84 C85 1.392 . S
C84 N86 1.420 . S
C85 H79 0.930 . S
C85 C81 1.407 . S
C85 C84 1.392 . S
N86 C84 1.420 . S
N86 C87 1.244 . S
C87 N86 1.244 . S
H88 C91 0.929 . S
H89 C94 0.929 . S
H90 C96 0.930 . S
C91 H88 0.929 . S
C91 C92 1.398 . S
C91 C93 1.396 . S
C92 C91 1.398 . S
C92 C96 1.407 . S
C93 C91 1.396 . S
C93 C94 1.394 . S
C94 H89 0.929 . S
C94 C93 1.394 . S
C94 C95 1.382 . S
C95 C94 1.382 . S
C95 C96 1.392 . S
C95 N97 1.420 . S
C96 H90 0.930 . S
C96 C92 1.407 . S
C96 C95 1.392 . S
N97 C95 1.420 . S
N97 C98 1.244 . S
C98 N97 1.244 . S
H99 C102 0.929 . S
H100 C105 0.929 1_545 S
H101 C107 0.930 . S
C102 H99 0.929 . S
C102 C103 1.398 . S
C102 C104 1.396 . S
C103 C102 1.398 . S
C103 C107 1.407 . S
C104 C102 1.396 . S
C104 C105 1.394 . S
C105 H100 0.929 1_565 S
C105 C104 1.394 . S
C105 C106 1.382 . S
C106 C105 1.382 . S
C106 C107 1.392 . S
C106 N108 1.420 1_565 S
C107 H101 0.930 . S
C107 C103 1.407 . S
C107 C106 1.392 . S
N108 C106 1.420 1_545 S
N108 C109 1.244 . S
C109 N108 1.244 . S
H110 C113 0.929 . S
H111 C116 0.929 . S
H112 C118 0.930 . S
C113 H110 0.929 . S
C113 C114 1.398 . S
C113 C115 1.396 . S
C114 C113 1.398 . S
C114 C118 1.407 . S
C115 C113 1.396 . S
C115 C116 1.394 . S
C116 H111 0.929 . S
C116 C115 1.394 . S
C116 C117 1.382 . S
C117 C116 1.382 . S
C117 C118 1.392 . S
C117 N119 1.420 . S
C118 H112 0.930 . S
C118 C114 1.407 . S
C118 C117 1.392 . S
N119 C117 1.420 . S
N119 C120 1.244 . S
C120 N119 1.244 . S
H121 C124 0.929 . S
H122 C127 0.929 . S
H123 C129 0.930 . S
C124 H121 0.929 . S
C124 C125 1.398 . S
C124 C126 1.396 . S
C125 C124 1.398 . S
C125 C129 1.407 . S
C126 C124 1.396 . S
C126 C127 1.394 . S
C127 H122 0.929 . S
C127 C126 1.394 . S
C127 C128 1.382 . S
C128 C127 1.382 . S
C128 C129 1.392 . S
C128 N130 1.420 . S
C129 H123 0.930 . S
C129 C125 1.407 . S
C129 C128 1.392 . S
N130 C128 1.420 . S
N130 C131 1.244 . S
C131 N130 1.244 . S
H132 C135 0.929 . S
H133 C138 0.929 . S
H134 C140 0.930 . S
C135 H132 0.929 . S
C135 C136 1.398 . S
C135 C137 1.396 . S
C136 C135 1.398 . S
C136 C140 1.407 . S
C137 C135 1.396 . S
C137 C138 1.394 . S
C138 H133 0.929 . S
C138 C137 1.394 . S
C138 C139 1.382 . S
C139 C138 1.382 . S
C139 C140 1.392 . S
C139 N141 1.420 . S
C140 H134 0.930 . S
C140 C136 1.407 . S
C140 C139 1.392 . S
N141 C139 1.420 . S
N141 C142 1.244 . S
C142 N141 1.244 . S
H143 C146 0.929 . S
H144 C149 0.929 1_554 S
H145 C151 0.930 . S
C146 H143 0.929 . S
C146 C147 1.398 . S
C146 C148 1.396 . S
C147 C146 1.398 . S
C147 C151 1.407 . S
C148 C146 1.396 . S
C148 C149 1.394 . S
C149 H144 0.929 1_556 S
C149 C148 1.394 . S
C149 C150 1.382 . S
C150 C149 1.382 . S
C150 C151 1.392 . S
C150 N152 1.420 1_556 S
C151 H145 0.930 . S
C151 C147 1.407 . S
C151 C150 1.392 . S
N152 C150 1.420 1_554 S
N152 C153 1.244 . S
C153 N152 1.244 . S
H154 C157 0.929 . S
H155 C160 0.929 . S
H156 C162 0.930 . S
C157 H154 0.929 . S
C157 C158 1.398 . S
C157 C159 1.396 . S
C158 C157 1.398 . S
C158 C162 1.407 . S
C159 C157 1.396 . S
C159 C160 1.394 . S
C160 H155 0.929 . S
C160 C159 1.394 . S
C160 C161 1.382 . S
C161 C160 1.382 . S
C161 C162 1.392 . S
C161 N163 1.420 . S
C162 H156 0.930 . S
C162 C158 1.407 . S
C162 C161 1.392 . S
N163 C161 1.420 . S
N163 C164 1.244 . S
C164 N163 1.244 . S
H165 C168 0.929 . S
H166 C171 0.929 . S
H167 C173 0.930 . S
C168 H165 0.929 . S
C168 C169 1.398 . S
C168 C170 1.396 . S
C169 C168 1.398 . S
C169 C173 1.407 . S
C170 C168 1.396 . S
C170 C171 1.394 . S
C171 H166 0.929 . S
C171 C170 1.394 . S
C171 C172 1.382 . S
C172 C171 1.382 . S
C172 C173 1.392 . S
C172 N174 1.420 . S
C173 H167 0.930 . S
C173 C169 1.407 . S
C173 C172 1.392 . S
N174 C172 1.420 . S
N174 C175 1.244 . S
C175 N174 1.244 . S
C176 O177 1.160 . S
C176 O183 1.185 . S
O177 C176 1.160 . S
O178 Zn179 1.899 . S
O178 C186 1.284 . S
Zn179 O178 1.899 . S
Zn179 O180 2.032 . S
Zn179 O183 2.086 . S
Zn179 O188 1.977 . S
O180 Zn179 2.032 . S
O180 C184 1.278 . S
C181 O182 1.203 . S
C181 O188 1.267 . S
O182 C181 1.203 . S
O183 C176 1.185 . S
O183 Zn179 2.086 . S
C184 O180 1.278 . S
C184 O185 1.211 . S
O185 C184 1.211 . S
C186 O178 1.284 . S
C186 O187 1.273 . S
O187 C186 1.273 . S
O188 Zn179 1.977 . S
O188 C181 1.267 . S
C189 O190 1.160 . S
C189 O196 1.185 . S
O190 C189 1.160 . S
O191 Zn192 1.899 . S
O191 C199 1.284 . S
Zn192 O191 1.899 . S
Zn192 O193 2.032 . S
Zn192 O196 2.086 . S
Zn192 O201 1.977 . S
O193 Zn192 2.032 . S
O193 C197 1.278 . S
C194 O195 1.203 . S
C194 O201 1.267 . S
O195 C194 1.203 . S
O196 C189 1.185 . S
O196 Zn192 2.086 . S
C197 O193 1.278 . S
C197 O198 1.211 . S
O198 C197 1.211 . S
C199 O191 1.284 . S
C199 O200 1.273 . S
O200 C199 1.273 . S
O201 Zn192 1.977 . S
O201 C194 1.267 . S
C202 O203 1.153 . S
C202 O209 1.190 1_556 S
O203 C202 1.153 . S
O204 Zn205 1.899 1_556 S
O204 C212 1.284 . S
Zn205 O204 1.899 1_554 S
Zn205 O206 2.032 1_554 S
Zn205 O209 2.086 . S
Zn205 O214 1.977 . S
O206 Zn205 2.032 1_556 S
O206 C210 1.286 . S
C207 O208 1.203 . S
C207 O214 1.267 . S
O208 C207 1.203 . S
O209 C202 1.190 1_554 S
O209 Zn205 2.086 . S
C210 O206 1.286 . S
C210 O211 1.199 1_556 S
O211 C210 1.199 1_554 S
C212 O204 1.284 . S
C212 O213 1.273 . S
O213 C212 1.273 . S
O214 Zn205 1.977 . S
O214 C207 1.267 . S
C215 O216 1.160 . S
C215 O222 1.185 . S
O216 C215 1.160 . S
O217 Zn218 1.899 . S
O217 C225 1.284 . S
Zn218 O217 1.899 . S
Zn218 O219 2.032 . S
Zn218 O222 2.086 . S
Zn218 O227 1.977 . S
O219 Zn218 2.032 . S
O219 C223 1.278 . S
C220 O221 1.203 . S
C220 O227 1.267 . S
O221 C220 1.203 . S
O222 C215 1.185 . S
O222 Zn218 2.086 . S
C223 O219 1.278 . S
C223 O224 1.211 1_545 S
O224 C223 1.211 1_565 S
C225 O217 1.284 . S
C225 O226 1.273 . S
O226 C225 1.273 . S
O227 Zn218 1.977 . S
O227 C220 1.267 . S
C228 O229 1.160 . S
C228 O235 1.185 . S
O229 C228 1.160 . S
O230 Zn231 1.899 . S
O230 C238 1.284 . S
Zn231 O230 1.899 . S
Zn231 O232 2.032 . S
Zn231 O235 2.086 . S
Zn231 O240 1.977 . S
O232 Zn231 2.032 . S
O232 C236 1.278 . S
C233 O234 1.203 . S
C233 O240 1.267 . S
O234 C233 1.203 . S
O235 C228 1.185 . S
O235 Zn231 2.086 . S
C236 O232 1.278 . S
C236 O237 1.211 . S
O237 C236 1.211 . S
C238 O230 1.284 . S
C238 O239 1.273 . S
O239 C238 1.273 . S
O240 Zn231 1.977 . S
O240 C233 1.267 . S
C241 O242 1.160 . S
C241 O248 1.185 . S
O242 C241 1.160 . S
O243 Zn244 1.899 . S
O243 C251 1.284 . S
Zn244 O243 1.899 . S
Zn244 O245 2.032 . S
Zn244 O248 2.086 . S
Zn244 O253 1.977 . S
O245 Zn244 2.032 . S
O245 C249 1.278 . S
C246 O247 1.203 . S
C246 O253 1.267 . S
O247 C246 1.203 . S
O248 C241 1.185 . S
O248 Zn244 2.086 . S
C249 O245 1.278 . S
C249 O250 1.211 . S
O250 C249 1.211 . S
C251 O243 1.284 . S
C251 O252 1.273 . S
O252 C251 1.273 . S
O253 Zn244 1.977 . S
O253 C246 1.267 . S
C254 O255 1.160 . S
C254 O261 1.185 . S
O255 C254 1.160 . S
O256 Zn257 1.899 . S
O256 C264 1.284 . S
Zn257 O256 1.899 . S
Zn257 O258 2.032 . S
Zn257 O261 2.086 . S
Zn257 O266 1.977 . S
O258 Zn257 2.032 . S
O258 C262 1.278 . S
C259 O260 1.203 . S
C259 O266 1.267 . S
O260 C259 1.203 . S
O261 C254 1.185 . S
O261 Zn257 2.086 . S
C262 O258 1.278 . S
C262 O263 1.211 . S
O263 C262 1.211 . S
C264 O256 1.284 . S
C264 O265 1.273 . S
O265 C264 1.273 . S
O266 Zn257 1.977 . S
O266 C259 1.267 . S
C267 O268 1.160 . S
C267 O274 1.185 . S
O268 C267 1.160 . S
O269 Zn270 1.899 . S
O269 C277 1.284 1_565 S
Zn270 O269 1.899 . S
Zn270 O271 2.032 1_565 S
Zn270 O274 2.086 . S
Zn270 O279 1.977 . S
O271 Zn270 2.032 1_545 S
O271 C275 1.278 . S
C272 O273 1.203 1_565 S
C272 O279 1.267 . S
O273 C272 1.203 1_545 S
O274 C267 1.185 . S
O274 Zn270 2.086 . S
C275 O271 1.278 . S
C275 O276 1.211 . S
O276 C275 1.211 . S
C277 O269 1.284 1_545 S
C277 O278 1.273 . S
O278 C277 1.273 . S
O279 Zn270 1.977 . S
O279 C272 1.267 . S
C280 O281 1.160 . S
C280 O287 1.185 . S
O281 C280 1.160 . S
O282 Zn283 1.899 . S
O282 C290 1.284 1_455 S
Zn283 O282 1.899 . S
Zn283 O284 2.032 . S
Zn283 O287 2.086 . S
Zn283 O292 1.977 . S
O284 Zn283 2.032 . S
O284 C288 1.278 . S
C285 O286 1.203 . S
C285 O292 1.267 . S
O286 C285 1.203 . S
O287 C280 1.185 . S
O287 Zn283 2.086 . S
C288 O284 1.278 . S
C288 O289 1.211 . S
O289 C288 1.211 . S
C290 O282 1.284 1_655 S
C290 O291 1.273 . S
O291 C290 1.273 . S
O292 Zn283 1.977 . S
O292 C285 1.267 . S
C293 O294 1.160 . S
C293 O300 1.185 . S
O294 C293 1.160 . S
O295 Zn296 1.899 . S
O295 C303 1.284 . S
Zn296 O295 1.899 . S
Zn296 O297 2.032 . S
Zn296 O300 2.086 . S
Zn296 O305 1.977 . S
O297 Zn296 2.032 . S
O297 C301 1.278 . S
C298 O299 1.203 . S
C298 O305 1.267 . S
O299 C298 1.203 . S
O300 C293 1.185 . S
O300 Zn296 2.086 . S
C301 O297 1.278 . S
C301 O302 1.211 . S
O302 C301 1.211 . S
C303 O295 1.284 . S
C303 O304 1.273 . S
O304 C303 1.273 . S
O305 Zn296 1.977 . S
O305 C298 1.267 . S
C306 O307 1.125 1_455 S
C306 O313 1.185 . S
O307 C306 1.125 1_655 S
O308 Zn309 1.899 1_655 S
O308 C316 1.284 . S
Zn309 O308 1.899 1_455 S
Zn309 O310 2.032 . S
Zn309 O313 2.086 . S
Zn309 O318 1.977 . S
O310 Zn309 2.032 . S
O310 C314 1.278 . S
C311 O312 1.203 . S
C311 O318 1.267 . S
O312 C311 1.203 . S
O313 C306 1.185 . S
O313 Zn309 2.086 . S
C314 O310 1.278 . S
C314 O315 1.211 . S
O315 C314 1.211 . S
C316 O308 1.284 . S
C316 O317 1.273 . S
O317 C316 1.273 . S
O318 Zn309 1.977 . S
O318 C311 1.267 . S
C319 O320 1.160 . S
C319 O326 1.185 . S
O320 C319 1.160 . S
O321 Zn322 1.899 . S
O321 C329 1.284 . S
Zn322 O321 1.899 . S
Zn322 O323 2.032 . S
Zn322 O326 2.086 . S
Zn322 O331 1.977 . S
O323 Zn322 2.032 . S
O323 C327 1.278 . S
C324 O325 1.203 . S
C324 O331 1.267 . S
O325 C324 1.203 . S
O326 C319 1.185 . S
O326 Zn322 2.086 . S
C327 O323 1.278 . S
C327 O328 1.211 . S
O328 C327 1.211 . S
C329 O321 1.284 . S
C329 O330 1.273 . S
O330 C329 1.273 . S
O331 Zn322 1.977 . S
O331 C324 1.267 . S
C332 C333 1.349 . S
C332 C334 1.327 . S
C332 H357 0.950 . S
C333 C332 1.349 . S
C333 C349 1.349 . S
C334 C332 1.327 . S
C334 C353 1.429 . S
C334 H358 0.950 . S
C335 C352 1.574 . S
C335 C354 1.368 . S
C335 H359 0.949 . S
H336 C340 0.949 . S
C337 C338 1.349 . S
C337 C339 1.327 . S
C337 H360 0.950 . S
C338 C337 1.349 . S
C338 C350 1.349 . S
C339 C337 1.327 . S
C339 C355 1.429 . S
C339 H361 0.950 . S
C340 H336 0.949 . S
C340 C348 1.574 . S
C340 C356 1.368 . S
H341 C349 0.950 . S
H342 C347 0.950 . S
H343 C348 0.949 . S
H344 C350 0.950 1_554 S
H345 C351 0.950 . S
H346 C352 0.949 . S
C347 H342 0.950 . S
C347 C349 1.327 . S
C347 C353 1.429 . S
C348 C340 1.574 . S
C348 H343 0.949 . S
C348 C354 1.368 . S
C349 C333 1.349 . S
C349 H341 0.950 . S
C349 C347 1.327 . S
C350 C338 1.349 . S
C350 H344 0.950 1_556 S
C350 C351 1.327 . S
C351 H345 0.950 . S
C351 C350 1.327 . S
C351 C355 1.429 . S
C352 C335 1.574 . S
C352 H346 0.949 . S
C352 C356 1.368 . S
C353 C334 1.429 . S
C353 C347 1.429 . S
C353 C354 1.523 . S
C354 C335 1.368 . S
C354 C348 1.368 . S
C354 C353 1.523 . S
C355 C339 1.429 . S
C355 C351 1.429 . S
C355 C356 1.523 . S
C356 C340 1.368 . S
C356 C352 1.368 . S
C356 C355 1.523 . S
H357 C332 0.950 . S
H358 C334 0.950 . S
H359 C335 0.949 . S
H360 C337 0.950 . S
H361 C339 0.950 . S
C362 C363 1.349 . S
C362 C364 1.327 . S
C362 H387 0.950 . S
C363 C362 1.349 . S
C363 C379 1.349 . S
C364 C362 1.327 . S
C364 C383 1.429 . S
C364 H388 0.950 . S
C365 C382 1.574 . S
C365 C384 1.368 . S
C365 H389 0.949 . S
H366 C370 0.949 . S
C367 C368 1.349 . S
C367 C369 1.327 . S
C367 H390 0.950 . S
C368 C367 1.349 . S
C368 C380 1.349 . S
C369 C367 1.327 . S
C369 C385 1.429 . S
C369 H391 0.950 . S
C370 H366 0.949 . S
C370 C378 1.574 . S
C370 C386 1.368 . S
H371 C379 0.950 . S
H372 C377 0.950 . S
H373 C378 0.949 . S
H374 C380 0.950 . S
H375 C381 0.950 . S
H376 C382 0.949 . S
C377 H372 0.950 . S
C377 C379 1.327 . S
C377 C383 1.429 . S
C378 C370 1.574 . S
C378 H373 0.949 . S
C378 C384 1.368 . S
C379 C363 1.349 . S
C379 H371 0.950 . S
C379 C377 1.327 . S
C380 C368 1.349 . S
C380 H374 0.950 . S
C380 C381 1.327 . S
C381 H375 0.950 . S
C381 C380 1.327 . S
C381 C385 1.429 . S
C382 C365 1.574 . S
C382 H376 0.949 . S
C382 C386 1.368 . S
C383 C364 1.429 . S
C383 C377 1.429 . S
C383 C384 1.523 . S
C384 C365 1.368 . S
C384 C378 1.368 . S
C384 C383 1.523 . S
C385 C369 1.429 . S
C385 C381 1.429 . S
C385 C386 1.523 . S
C386 C370 1.368 . S
C386 C382 1.368 . S
C386 C385 1.523 . S
H387 C362 0.950 . S
H388 C364 0.950 . S
H389 C365 0.949 . S
H390 C367 0.950 . S
H391 C369 0.950 . S
C392 C393 1.349 . S
C392 C394 1.327 . S
C392 H417 0.950 . S
C393 C392 1.349 . S
C393 C409 1.349 . S
C394 C392 1.327 . S
C394 C413 1.429 . S
C394 H418 0.950 . S
C395 C412 1.574 . S
C395 C414 1.368 . S
C395 H419 0.949 . S
H396 C400 0.949 . S
C397 C398 1.349 . S
C397 C399 1.327 . S
C397 H420 0.950 . S
C398 C397 1.349 . S
C398 C410 1.349 . S
C399 C397 1.327 . S
C399 C415 1.429 . S
C399 H421 0.950 . S
C400 H396 0.949 . S
C400 C408 1.574 . S
C400 C416 1.368 . S
H401 C409 0.950 . S
H402 C407 0.950 . S
H403 C408 0.949 . S
H404 C410 0.950 . S
H405 C411 0.950 . S
H406 C412 0.949 . S
C407 H402 0.950 . S
C407 C409 1.327 . S
C407 C413 1.429 . S
C408 C400 1.574 . S
C408 H403 0.949 . S
C408 C414 1.368 . S
C409 C393 1.349 . S
C409 H401 0.950 . S
C409 C407 1.327 . S
C410 C398 1.349 . S
C410 H404 0.950 . S
C410 C411 1.327 . S
C411 H405 0.950 . S
C411 C410 1.327 . S
C411 C415 1.429 . S
C412 C395 1.574 . S
C412 H406 0.949 . S
C412 C416 1.368 . S
C413 C394 1.429 . S
C413 C407 1.429 . S
C413 C414 1.523 . S
C414 C395 1.368 . S
C414 C408 1.368 . S
C414 C413 1.523 . S
C415 C399 1.429 . S
C415 C411 1.429 . S
C415 C416 1.523 . S
C416 C400 1.368 . S
C416 C412 1.368 . S
C416 C415 1.523 . S
H417 C392 0.950 . S
H418 C394 0.950 . S
H419 C395 0.949 . S
H420 C397 0.950 . S
H421 C399 0.950 . S
C422 C423 1.349 . S
C422 C424 1.327 . S
C422 H447 0.950 . S
C423 C422 1.349 . S
C423 C439 1.349 1_565 S
C424 C422 1.327 . S
C424 C443 1.429 . S
C424 H448 0.950 . S
C425 C442 1.574 1_455 S
C425 C444 1.368 . S
C425 H449 0.949 . S
H426 C430 0.949 . S
C427 C428 1.349 . S
C427 C429 1.327 . S
C427 H450 0.950 . S
C428 C427 1.349 . S
C428 C440 1.349 . S
C429 C427 1.327 . S
C429 C445 1.429 . S
C429 H451 0.950 . S
C430 H426 0.949 . S
C430 C438 1.556 1_655 S
C430 C446 1.368 1_565 S
H431 C439 0.950 . S
H432 C437 0.950 . S
H433 C438 0.959 . S
H434 C440 0.950 1_565 S
H435 C441 0.950 1_565 S
H436 C442 0.949 . S
C437 H432 0.950 . S
C437 C439 1.327 . S
C437 C443 1.429 1_545 S
C438 C430 1.556 1_455 S
C438 H433 0.959 . S
C438 C444 1.376 1_565 S
C439 C423 1.349 1_545 S
C439 H431 0.950 . S
C439 C437 1.327 . S
C440 C428 1.349 . S
C440 H434 0.950 1_545 S
C440 C441 1.327 . S
C441 H435 0.950 1_545 S
C441 C440 1.327 . S
C441 C445 1.429 . S
C442 C425 1.574 1_655 S
C442 H436 0.949 . S
C442 C446 1.368 . S
C443 C424 1.429 . S
C443 C437 1.429 1_565 S
C443 C444 1.523 1_565 S
C444 C425 1.368 . S
C444 C438 1.376 1_545 S
C444 C443 1.523 1_545 S
C445 C429 1.429 . S
C445 C441 1.429 . S
C445 C446 1.523 . S
C446 C430 1.368 1_545 S
C446 C442 1.368 . S
C446 C445 1.523 . S
H447 C422 0.950 . S
H448 C424 0.950 . S
H449 C425 0.949 . S
H450 C427 0.950 . S
H451 C429 0.950 . S
C452 C453 1.349 . S
C452 C454 1.327 . S
C452 H477 0.950 . S
C453 C452 1.349 . S
C453 C469 1.349 . S
C454 C452 1.327 . S
C454 C473 1.429 . S
C454 H478 0.950 . S
C455 C472 1.574 . S
C455 C474 1.368 . S
C455 H479 0.949 . S
H456 C460 0.949 . S
C457 C458 1.349 . S
C457 C459 1.327 . S
C457 H480 0.950 . S
C458 C457 1.349 . S
C458 C470 1.349 . S
C459 C457 1.327 . S
C459 C475 1.429 . S
C459 H481 0.950 . S
C460 H456 0.949 . S
C460 C468 1.574 . S
C460 C476 1.368 . S
H461 C469 0.950 . S
H462 C467 0.950 . S
H463 C468 0.949 . S
H464 C470 0.950 . S
H465 C471 0.950 . S
H466 C472 0.949 . S
C467 H462 0.950 . S
C467 C469 1.327 . S
C467 C473 1.429 . S
C468 C460 1.574 . S
C468 H463 0.949 . S
C468 C474 1.368 . S
C469 C453 1.349 . S
C469 H461 0.950 . S
C469 C467 1.327 . S
C470 C458 1.349 . S
C470 H464 0.950 . S
C470 C471 1.327 . S
C471 H465 0.950 . S
C471 C470 1.327 . S
C471 C475 1.429 . S
C472 C455 1.574 . S
C472 H466 0.949 . S
C472 C476 1.368 . S
C473 C454 1.429 . S
C473 C467 1.429 . S
C473 C474 1.523 . S
C474 C455 1.368 . S
C474 C468 1.368 . S
C474 C473 1.523 . S
C475 C459 1.429 . S
C475 C471 1.429 . S
C475 C476 1.523 . S
C476 C460 1.368 . S
C476 C472 1.368 . S
C476 C475 1.523 . S
H477 C452 0.950 . S
H478 C454 0.950 . S
H479 C455 0.949 . S
H480 C457 0.950 . S
H481 C459 0.950 . S
C482 C483 1.349 . S
C482 C484 1.327 . S
C482 H507 0.950 . S
C483 C482 1.349 . S
C483 C499 1.349 . S
C484 C482 1.327 . S
C484 C503 1.429 . S
C484 H508 0.950 . S
C485 C502 1.574 . S
C485 C504 1.368 . S
C485 H509 0.949 . S
H486 C490 0.949 . S
C487 C488 1.349 . S
C487 C489 1.327 . S
C487 H510 0.950 . S
C488 C487 1.349 . S
C488 C500 1.349 . S
C489 C487 1.327 . S
C489 C505 1.429 . S
C489 H511 0.950 . S
C490 H486 0.949 . S
C490 C498 1.574 . S
C490 C506 1.368 . S
H491 C499 0.950 . S
H492 C497 0.950 . S
H493 C498 0.949 . S
H494 C500 0.950 . S
H495 C501 0.950 . S
H496 C502 0.949 . S
C497 H492 0.950 . S
C497 C499 1.327 . S
C497 C503 1.429 . S
C498 C490 1.574 . S
C498 H493 0.949 . S
C498 C504 1.368 . S
C499 C483 1.349 . S
C499 H491 0.950 . S
C499 C497 1.327 . S
C500 C488 1.349 . S
C500 H494 0.950 . S
C500 C501 1.327 . S
C501 H495 0.950 . S
C501 C500 1.327 . S
C501 C505 1.429 . S
C502 C485 1.574 . S
C502 H496 0.949 . S
C502 C506 1.368 . S
C503 C484 1.429 . S
C503 C497 1.429 . S
C503 C504 1.523 . S
C504 C485 1.368 . S
C504 C498 1.368 . S
C504 C503 1.523 . S
C505 C489 1.429 . S
C505 C501 1.429 . S
C505 C506 1.523 . S
C506 C490 1.368 . S
C506 C502 1.368 . S
C506 C505 1.523 . S
H507 C482 0.950 . S
H508 C484 0.950 . S
H509 C485 0.949 . S
H510 C487 0.950 . S
H511 C489 0.950 . S
C512 C513 1.349 . S
C512 C514 1.327 . S
C512 H537 0.950 . S
C513 C512 1.349 . S
C513 C529 1.349 . S
C514 C512 1.327 . S
C514 C533 1.429 . S
C514 H538 0.950 . S
C515 C532 1.574 . S
C515 C534 1.368 . S
C515 H539 0.949 . S
H516 C520 0.949 . S
C517 C518 1.349 . S
C517 C519 1.327 . S
C517 H540 0.950 . S
C518 C517 1.349 . S
C518 C530 1.349 . S
C519 C517 1.327 . S
C519 C535 1.429 . S
C519 H541 0.950 . S
C520 H516 0.949 . S
C520 C528 1.574 . S
C520 C536 1.368 . S
H521 C529 0.950 . S
H522 C527 0.950 . S
H523 C528 0.949 . S
H524 C530 0.950 . S
H525 C531 0.950 . S
H526 C532 0.949 . S
C527 H522 0.950 . S
C527 C529 1.327 . S
C527 C533 1.429 . S
C528 C520 1.574 . S
C528 H523 0.949 . S
C528 C534 1.368 . S
C529 C513 1.349 . S
C529 H521 0.950 . S
C529 C527 1.327 . S
C530 C518 1.349 . S
C530 H524 0.950 . S
C530 C531 1.327 . S
C531 H525 0.950 . S
C531 C530 1.327 . S
C531 C535 1.429 . S
C532 C515 1.574 . S
C532 H526 0.949 . S
C532 C536 1.368 . S
C533 C514 1.429 . S
C533 C527 1.429 . S
C533 C534 1.523 . S
C534 C515 1.368 . S
C534 C528 1.368 . S
C534 C533 1.523 . S
C535 C519 1.429 . S
C535 C531 1.429 . S
C535 C536 1.523 . S
C536 C520 1.368 . S
C536 C532 1.368 . S
C536 C535 1.523 . S
H537 C512 0.950 . S
H538 C514 0.950 . S
H539 C515 0.949 . S
H540 C517 0.950 . S
H541 C519 0.950 . S
C542 C543 1.349 . S
C542 C544 1.327 . S
C542 H567 0.950 . S
C543 C542 1.349 . S
C543 C559 1.349 1_565 S
C544 C542 1.327 . S
C544 C563 1.429 . S
C544 H568 0.950 . S
C545 C562 1.574 . S
C545 C564 1.368 1_545 S
C545 H569 0.949 . S
H546 C550 0.949 . S
C547 C548 1.349 1_545 S
C547 C549 1.327 . S
C547 H570 0.950 . S
C548 C547 1.349 1_565 S
C548 C560 1.349 . S
C549 C547 1.327 . S
C549 C565 1.429 1_545 S
C549 H571 0.950 . S
C550 H546 0.949 . S
C550 C558 1.574 . S
C550 C566 1.368 . S
H551 C559 0.950 . S
H552 C557 0.950 . S
H553 C558 0.949 . S
H554 C560 0.950 . S
H555 C561 0.950 . S
H556 C562 0.949 . S
C557 H552 0.950 . S
C557 C559 1.327 . S
C557 C563 1.429 1_545 S
C558 C550 1.574 . S
C558 H553 0.949 . S
C558 C564 1.368 . S
C559 C543 1.349 1_545 S
C559 H551 0.950 . S
C559 C557 1.327 . S
C560 C548 1.349 . S
C560 H554 0.950 . S
C560 C561 1.327 . S
C561 H555 0.950 . S
C561 C560 1.327 . S
C561 C565 1.429 . S
C562 C545 1.574 . S
C562 H556 0.949 . S
C562 C566 1.368 1_545 S
C563 C544 1.429 . S
C563 C557 1.429 1_565 S
C563 C564 1.523 . S
C564 C545 1.368 1_565 S
C564 C558 1.368 . S
C564 C563 1.523 . S
C565 C549 1.429 1_565 S
C565 C561 1.429 . S
C565 C566 1.523 . S
C566 C550 1.368 . S
C566 C562 1.368 1_565 S
C566 C565 1.523 . S
H567 C542 0.950 . S
H568 C544 0.950 . S
H569 C545 0.949 . S
H570 C547 0.950 . S
H571 C549 0.950 . S
C572 C573 1.349 . S
C572 C574 1.327 . S
C572 H597 0.950 . S
C573 C572 1.349 . S
C573 C589 1.349 . S
C574 C572 1.327 . S
C574 C593 1.429 . S
C574 H598 0.950 . S
C575 C592 1.574 . S
C575 C594 1.368 . S
C575 H599 0.949 . S
H576 C580 0.949 . S
C577 C578 1.349 . S
C577 C579 1.327 . S
C577 H600 0.950 . S
C578 C577 1.349 . S
C578 C590 1.349 . S
C579 C577 1.327 . S
C579 C595 1.429 . S
C579 H601 0.950 . S
C580 H576 0.949 . S
C580 C588 1.574 . S
C580 C596 1.368 . S
H581 C589 0.950 . S
H582 C587 0.950 . S
H583 C588 0.949 . S
H584 C590 0.950 . S
H585 C591 0.950 . S
H586 C592 0.949 . S
C587 H582 0.950 . S
C587 C589 1.327 . S
C587 C593 1.429 . S
C588 C580 1.574 . S
C588 H583 0.949 . S
C588 C594 1.368 . S
C589 C573 1.349 . S
C589 H581 0.950 . S
C589 C587 1.327 . S
C590 C578 1.349 . S
C590 H584 0.950 . S
C590 C591 1.327 . S
C591 H585 0.950 . S
C591 C590 1.327 . S
C591 C595 1.429 . S
C592 C575 1.574 . S
C592 H586 0.949 . S
C592 C596 1.368 . S
C593 C574 1.429 . S
C593 C587 1.429 . S
C593 C594 1.523 . S
C594 C575 1.368 . S
C594 C588 1.368 . S
C594 C593 1.523 . S
C595 C579 1.429 . S
C595 C591 1.429 . S
C595 C596 1.523 . S
C596 C580 1.368 . S
C596 C592 1.368 . S
C596 C595 1.523 . S
H597 C572 0.950 . S
H598 C574 0.950 . S
H599 C575 0.949 . S
H600 C577 0.950 . S
H601 C579 0.950 . S
C602 C603 1.349 . S
C602 C604 1.327 . S
C602 H627 0.950 . S
C603 C602 1.349 . S
C603 C619 1.349 . S
C604 C602 1.327 . S
C604 C623 1.429 . S
C604 H628 0.950 . S
C605 C622 1.574 . S
C605 C624 1.368 . S
C605 H629 0.949 . S
H606 C610 0.949 . S
C607 C608 1.349 . S
C607 C609 1.327 . S
C607 H630 0.950 . S
C608 C607 1.349 . S
C608 C620 1.349 . S
C609 C607 1.327 . S
C609 C625 1.429 . S
C609 H631 0.950 . S
C610 H606 0.949 . S
C610 C618 1.574 . S
C610 C626 1.368 . S
H611 C619 0.950 . S
H612 C617 0.950 . S
H613 C618 0.949 . S
H614 C620 0.950 . S
H615 C621 0.950 . S
H616 C622 0.949 . S
C617 H612 0.950 . S
C617 C619 1.327 . S
C617 C623 1.429 . S
C618 C610 1.574 . S
C618 H613 0.949 . S
C618 C624 1.368 . S
C619 C603 1.349 . S
C619 H611 0.950 . S
C619 C617 1.327 . S
C620 C608 1.349 . S
C620 H614 0.950 . S
C620 C621 1.327 . S
C621 H615 0.950 . S
C621 C620 1.327 . S
C621 C625 1.429 . S
C622 C605 1.574 . S
C622 H616 0.949 . S
C622 C626 1.368 . S
C623 C604 1.429 . S
C623 C617 1.429 . S
C623 C624 1.523 . S
C624 C605 1.368 . S
C624 C618 1.368 . S
C624 C623 1.523 . S
C625 C609 1.429 . S
C625 C621 1.429 . S
C625 C626 1.523 . S
C626 C610 1.368 . S
C626 C622 1.368 . S
C626 C625 1.523 . S
H627 C602 0.950 . S
H628 C604 0.950 . S
H629 C605 0.949 . S
H630 C607 0.950 . S
H631 C609 0.950 . S
C632 C633 1.349 . S
C632 C634 1.327 . S
C632 H657 0.950 . S
C633 C632 1.349 . S
C633 C649 1.349 . S
C634 C632 1.327 . S
C634 C653 1.429 . S
C634 H658 0.950 . S
C635 C652 1.574 . S
C635 C654 1.368 . S
C635 H659 0.949 . S
H636 C640 0.949 . S
C637 C638 1.349 . S
C637 C639 1.327 . S
C637 H660 0.950 . S
C638 C637 1.349 . S
C638 C650 1.349 . S
C639 C637 1.327 . S
C639 C655 1.429 . S
C639 H661 0.950 . S
C640 H636 0.949 . S
C640 C648 1.574 . S
C640 C656 1.368 . S
H641 C649 0.950 . S
H642 C647 0.950 . S
H643 C648 0.949 . S
H644 C650 0.950 . S
H645 C651 0.950 . S
H646 C652 0.949 . S
C647 H642 0.950 . S
C647 C649 1.327 . S
C647 C653 1.429 . S
C648 C640 1.574 . S
C648 H643 0.949 . S
C648 C654 1.368 . S
C649 C633 1.349 . S
C649 H641 0.950 . S
C649 C647 1.327 . S
C650 C638 1.349 . S
C650 H644 0.950 . S
C650 C651 1.327 . S
C651 H645 0.950 . S
C651 C650 1.327 . S
C651 C655 1.429 . S
C652 C635 1.574 . S
C652 H646 0.949 . S
C652 C656 1.368 . S
C653 C634 1.429 . S
C653 C647 1.429 . S
C653 C654 1.523 . S
C654 C635 1.368 . S
C654 C648 1.368 . S
C654 C653 1.523 . S
C655 C639 1.429 . S
C655 C651 1.429 . S
C655 C656 1.523 . S
C656 C640 1.368 . S
C656 C652 1.368 . S
C656 C655 1.523 . S
H657 C632 0.950 . S
H658 C634 0.950 . S
H659 C635 0.949 . S
H660 C637 0.950 . S
H661 C639 0.950 . S
C662 C663 1.349 . S
C662 C664 1.327 . S
C662 H687 0.950 . S
C663 C662 1.349 . S
C663 C679 1.349 . S
C664 C662 1.327 . S
C664 C683 1.429 . S
C664 H688 0.950 . S
C665 C682 1.574 . S
C665 C684 1.368 . S
C665 H689 0.949 . S
H666 C670 0.949 . S
C667 C668 1.349 . S
C667 C669 1.327 . S
C667 H690 0.950 . S
C668 C667 1.349 . S
C668 C680 1.349 . S
C669 C667 1.327 . S
C669 C685 1.429 . S
C669 H691 0.950 . S
C670 H666 0.949 . S
C670 C678 1.574 . S
C670 C686 1.368 . S
H671 C679 0.950 . S
H672 C677 0.950 . S
H673 C678 0.949 . S
H674 C680 0.950 . S
H675 C681 0.950 . S
H676 C682 0.949 . S
C677 H672 0.950 . S
C677 C679 1.327 . S
C677 C683 1.429 . S
C678 C670 1.574 . S
C678 H673 0.949 . S
C678 C684 1.368 . S
C679 C663 1.349 . S
C679 H671 0.950 . S
C679 C677 1.327 . S
C680 C668 1.349 . S
C680 H674 0.950 . S
C680 C681 1.327 . S
C681 H675 0.950 . S
C681 C680 1.327 . S
C681 C685 1.429 . S
C682 C665 1.574 . S
C682 H676 0.949 . S
C682 C686 1.368 . S
C683 C664 1.429 . S
C683 C677 1.429 . S
C683 C684 1.523 . S
C684 C665 1.368 . S
C684 C678 1.368 . S
C684 C683 1.523 . S
C685 C669 1.429 . S
C685 C681 1.429 . S
C685 C686 1.523 . S
C686 C670 1.368 . S
C686 C682 1.368 . S
C686 C685 1.523 . S
H687 C662 0.950 . S
H688 C664 0.950 . S
H689 C665 0.949 . S
H690 C667 0.950 . S
H691 C669 0.950 . S
C692 C693 1.349 . S
C692 C694 1.327 . S
C692 H717 0.950 . S
C693 C692 1.349 . S
C693 C709 1.349 . S
C694 C692 1.327 . S
C694 C713 1.429 . S
C694 H718 0.950 . S
C695 C712 1.574 . S
C695 C714 1.368 . S
C695 H719 0.949 . S
H696 C700 0.949 . S
C697 C698 1.349 . S
C697 C699 1.327 . S
C697 H720 0.950 . S
C698 C697 1.349 . S
C698 C710 1.349 . S
C699 C697 1.327 . S
C699 C715 1.429 . S
C699 H721 0.950 . S
C700 H696 0.949 . S
C700 C708 1.574 . S
C700 C716 1.368 . S
H701 C709 0.950 . S
H702 C707 0.950 . S
H703 C708 0.949 . S
H704 C710 0.950 . S
H705 C711 0.950 . S
H706 C712 0.949 . S
C707 H702 0.950 . S
C707 C709 1.327 . S
C707 C713 1.429 . S
C708 C700 1.574 . S
C708 H703 0.949 . S
C708 C714 1.368 . S
C709 C693 1.349 . S
C709 H701 0.950 . S
C709 C707 1.327 . S
C710 C698 1.349 . S
C710 H704 0.950 . S
C710 C711 1.327 . S
C711 H705 0.950 . S
C711 C710 1.327 . S
C711 C715 1.429 . S
C712 C695 1.574 . S
C712 H706 0.949 . S
C712 C716 1.368 . S
C713 C694 1.429 . S
C713 C707 1.429 . S
C713 C714 1.523 . S
C714 C695 1.368 . S
C714 C708 1.368 . S
C714 C713 1.523 . S
C715 C699 1.429 . S
C715 C711 1.429 . S
C715 C716 1.523 . S
C716 C700 1.368 . S
C716 C712 1.368 . S
C716 C715 1.523 . S
H717 C692 0.950 . S
H718 C694 0.950 . S
H719 C695 0.949 . S
H720 C697 0.950 . S
H721 C699 0.950 . S
C722 C723 1.349 . S
C722 C724 1.327 . S
C722 H747 0.950 . S
C723 C722 1.349 . S
C723 C739 1.349 . S
C724 C722 1.327 . S
C724 C743 1.429 . S
C724 H748 0.950 . S
C725 C742 1.574 . S
C725 C744 1.368 . S
C725 H749 0.949 . S
H726 C730 0.949 . S
C727 C728 1.349 . S
C727 C729 1.327 . S
C727 H750 0.950 1_455 S
C728 C727 1.349 . S
C728 C740 1.349 . S
C729 C727 1.327 . S
C729 C745 1.429 . S
C729 H751 0.950 . S
C730 H726 0.949 . S
C730 C738 1.574 . S
C730 C746 1.368 . S
H731 C739 0.950 . S
H732 C737 0.950 . S
H733 C738 0.949 . S
H734 C740 0.950 . S
H735 C741 0.950 . S
H736 C742 0.949 . S
C737 H732 0.950 . S
C737 C739 1.327 . S
C737 C743 1.429 . S
C738 C730 1.574 . S
C738 H733 0.949 . S
C738 C744 1.368 . S
C739 C723 1.349 . S
C739 H731 0.950 . S
C739 C737 1.327 . S
C740 C728 1.349 . S
C740 H734 0.950 . S
C740 C741 1.327 . S
C741 H735 0.950 . S
C741 C740 1.327 . S
C741 C745 1.429 . S
C742 C725 1.574 . S
C742 H736 0.949 . S
C742 C746 1.368 . S
C743 C724 1.429 . S
C743 C737 1.429 . S
C743 C744 1.523 . S
C744 C725 1.368 . S
C744 C738 1.368 . S
C744 C743 1.523 . S
C745 C729 1.429 . S
C745 C741 1.429 . S
C745 C746 1.523 . S
C746 C730 1.368 . S
C746 C742 1.368 . S
C746 C745 1.523 . S
H747 C722 0.950 . S
H748 C724 0.950 . S
H749 C725 0.949 . S
H750 C727 0.950 1_655 S
H751 C729 0.950 . S
C752 C753 1.349 . S
C752 C754 1.327 . S
C752 H777 0.950 . S
C753 C752 1.349 . S
C753 C769 1.349 . S
C754 C752 1.327 . S
C754 C773 1.429 . S
C754 H778 0.950 . S
C755 C772 1.574 . S
C755 C774 1.368 . S
C755 H779 0.949 . S
H756 C760 0.949 . S
C757 C758 1.349 . S
C757 C759 1.327 . S
C757 H780 0.950 . S
C758 C757 1.349 . S
C758 C770 1.349 . S
C759 C757 1.327 . S
C759 C775 1.429 . S
C759 H781 0.950 . S
C760 H756 0.949 . S
C760 C768 1.574 . S
C760 C776 1.368 . S
H761 C769 0.950 . S
H762 C767 0.950 . S
H763 C768 0.949 . S
H764 C770 0.950 . S
H765 C771 0.950 . S
H766 C772 0.949 . S
C767 H762 0.950 . S
C767 C769 1.327 . S
C767 C773 1.429 . S
C768 C760 1.574 . S
C768 H763 0.949 . S
C768 C774 1.368 . S
C769 C753 1.349 . S
C769 H761 0.950 . S
C769 C767 1.327 . S
C770 C758 1.349 . S
C770 H764 0.950 . S
C770 C771 1.327 . S
C771 H765 0.950 . S
C771 C770 1.327 . S
C771 C775 1.429 . S
C772 C755 1.574 . S
C772 H766 0.949 . S
C772 C776 1.368 . S
C773 C754 1.429 . S
C773 C767 1.429 . S
C773 C774 1.523 . S
C774 C755 1.368 . S
C774 C768 1.368 . S
C774 C773 1.523 . S
C775 C759 1.429 . S
C775 C771 1.429 . S
C775 C776 1.523 . S
C776 C760 1.368 . S
C776 C772 1.368 . S
C776 C775 1.523 . S
H777 C752 0.950 . S
H778 C754 0.950 . S
H779 C755 0.949 . S
H780 C757 0.950 . S
H781 C759 0.950 . S
C782 C783 1.349 . S
C782 C784 1.327 1_655 S
C782 H807 0.950 1_655 S
C783 C782 1.349 . S
C783 C799 1.349 . S
C784 C782 1.327 1_455 S
C784 C803 1.410 1_455 S
C784 H808 0.969 . S
C785 C802 1.574 . S
C785 C804 1.368 . S
C785 H809 0.949 . S
H786 C790 0.949 . S
C787 C788 1.349 1_655 S
C787 C789 1.327 . S
C787 H810 0.950 . S
C788 C787 1.349 1_455 S
C788 C800 1.349 . S
C789 C787 1.327 . S
C789 C805 1.436 . S
C789 H811 0.950 . S
C790 H786 0.949 . S
C790 C798 1.574 . S
C790 C806 1.368 1_455 S
H791 C799 0.950 . S
H792 C797 0.950 . S
H793 C798 0.949 . S
H794 C800 0.950 . S
H795 C801 0.950 . S
H796 C802 0.949 . S
C797 H792 0.950 . S
C797 C799 1.327 . S
C797 C803 1.429 . S
C798 C790 1.574 . S
C798 H793 0.949 . S
C798 C804 1.368 1_455 S
C799 C783 1.349 . S
C799 H791 0.950 . S
C799 C797 1.327 . S
C800 C788 1.349 . S
C800 H794 0.950 . S
C800 C801 1.327 . S
C801 H795 0.950 . S
C801 C800 1.327 . S
C801 C805 1.421 1_455 S
C802 C785 1.574 . S
C802 H796 0.949 . S
C802 C806 1.368 . S
C803 C784 1.410 1_655 S
C803 C797 1.429 . S
C803 C804 1.523 . S
C804 C785 1.368 . S
C804 C798 1.368 1_655 S
C804 C803 1.523 . S
C805 C789 1.436 . S
C805 C801 1.421 1_655 S
C805 C806 1.523 . S
C806 C790 1.368 1_655 S
C806 C802 1.368 . S
C806 C805 1.523 . S
H807 C782 0.950 1_455 S
H808 C784 0.969 . S
H809 C785 0.949 . S
H810 C787 0.950 . S
H811 C789 0.950 . S
C812 C813 1.349 . S
C812 C814 1.327 . S
C812 H837 0.950 . S
C813 C812 1.349 . S
C813 C829 1.349 . S
C814 C812 1.327 . S
C814 C833 1.429 . S
C814 H838 0.950 . S
C815 C832 1.574 . S
C815 C834 1.368 . S
C815 H839 0.949 . S
H816 C820 0.949 . S
C817 C818 1.349 . S
C817 C819 1.327 . S
C817 H840 0.950 . S
C818 C817 1.349 . S
C818 C830 1.349 . S
C819 C817 1.327 . S
C819 C835 1.429 . S
C819 H841 0.950 . S
C820 H816 0.949 . S
C820 C828 1.574 . S
C820 C836 1.368 . S
H821 C829 0.950 . S
H822 C827 0.950 . S
H823 C828 0.949 . S
H824 C830 0.950 1_545 S
H825 C831 0.950 . S
H826 C832 0.949 . S
C827 H822 0.950 . S
C827 C829 1.327 . S
C827 C833 1.429 . S
C828 C820 1.574 . S
C828 H823 0.949 . S
C828 C834 1.368 . S
C829 C813 1.349 . S
C829 H821 0.950 . S
C829 C827 1.327 . S
C830 C818 1.349 . S
C830 H824 0.950 1_565 S
C830 C831 1.327 . S
C831 H825 0.950 . S
C831 C830 1.327 . S
C831 C835 1.429 . S
C832 C815 1.574 . S
C832 H826 0.949 . S
C832 C836 1.368 . S
C833 C814 1.429 . S
C833 C827 1.429 . S
C833 C834 1.523 . S
C834 C815 1.368 . S
C834 C828 1.368 . S
C834 C833 1.523 . S
C835 C819 1.429 . S
C835 C831 1.429 . S
C835 C836 1.523 . S
C836 C820 1.368 . S
C836 C832 1.368 . S
C836 C835 1.523 . S
H837 C812 0.950 . S
H838 C814 0.950 . S
H839 C815 0.949 . S
H840 C817 0.950 . S
H841 C819 0.950 . S
C842 C843 1.349 . S
C842 C844 1.327 . S
C842 H867 0.950 . S
C843 C842 1.349 . S
C843 C859 1.349 . S
C844 C842 1.327 . S
C844 C863 1.429 . S
C844 H868 0.950 . S
C845 C862 1.574 . S
C845 C864 1.368 . S
C845 H869 0.949 . S
H846 C850 0.949 . S
C847 C848 1.349 . S
C847 C849 1.327 . S
C847 H870 0.950 . S
C848 C847 1.349 . S
C848 C860 1.349 . S
C849 C847 1.327 . S
C849 C865 1.429 . S
C849 H871 0.950 . S
C850 H846 0.949 . S
C850 C858 1.574 . S
C850 C866 1.368 . S
H851 C859 0.950 . S
H852 C857 0.950 . S
H853 C858 0.949 . S
H854 C860 0.950 . S
H855 C861 0.950 . S
H856 C862 0.949 . S
C857 H852 0.950 . S
C857 C859 1.327 . S
C857 C863 1.429 . S
C858 C850 1.574 . S
C858 H853 0.949 . S
C858 C864 1.368 . S
C859 C843 1.349 . S
C859 H851 0.950 . S
C859 C857 1.327 . S
C860 C848 1.349 . S
C860 H854 0.950 . S
C860 C861 1.327 . S
C861 H855 0.950 . S
C861 C860 1.327 . S
C861 C865 1.429 . S
C862 C845 1.574 . S
C862 H856 0.949 . S
C862 C866 1.368 . S
C863 C844 1.429 . S
C863 C857 1.429 . S
C863 C864 1.523 . S
C864 C845 1.368 . S
C864 C858 1.368 . S
C864 C863 1.523 . S
C865 C849 1.429 . S
C865 C861 1.429 . S
C865 C866 1.523 . S
C866 C850 1.368 . S
C866 C862 1.368 . S
C866 C865 1.523 . S
H867 C842 0.950 . S
H868 C844 0.950 . S
H869 C845 0.949 . S
H870 C847 0.950 . S
H871 C849 0.950 . S
C872 C873 1.349 . S
C872 C874 1.327 . S
C872 H897 0.950 . S
C873 C872 1.349 . S
C873 C889 1.349 1_545 S
C874 C872 1.327 . S
C874 C893 1.429 1_545 S
C874 H898 0.950 . S
C875 C892 1.574 . S
C875 C894 1.368 . S
C875 H899 0.949 . S
H876 C880 0.949 . S
C877 C878 1.349 . S
C877 C879 1.327 . S
C877 H900 0.950 . S
C878 C877 1.349 . S
C878 C890 1.349 . S
C879 C877 1.327 . S
C879 C895 1.429 . S
C879 H901 0.950 . S
C880 H876 0.949 . S
C880 C888 1.574 . S
C880 C896 1.368 . S
H881 C889 0.950 . S
H882 C887 0.950 . S
H883 C888 0.949 1_545 S
H884 C890 0.950 . S
H885 C891 0.950 . S
H886 C892 0.949 . S
C887 H882 0.950 . S
C887 C889 1.327 . S
C887 C893 1.429 . S
C888 C880 1.574 . S
C888 H883 0.949 1_565 S
C888 C894 1.368 . S
C889 C873 1.349 1_565 S
C889 H881 0.950 . S
C889 C887 1.327 . S
C890 C878 1.349 . S
C890 H884 0.950 . S
C890 C891 1.327 . S
C891 H885 0.950 . S
C891 C890 1.327 . S
C891 C895 1.429 . S
C892 C875 1.574 . S
C892 H886 0.949 . S
C892 C896 1.368 . S
C893 C874 1.429 1_565 S
C893 C887 1.429 . S
C893 C894 1.523 1_556 S
C894 C875 1.368 . S
C894 C888 1.368 . S
C894 C893 1.523 1_554 S
C895 C879 1.429 . S
C895 C891 1.429 . S
C895 C896 1.523 . S
C896 C880 1.368 . S
C896 C892 1.368 . S
C896 C895 1.523 . S
H897 C872 0.950 . S
H898 C874 0.950 . S
H899 C875 0.949 . S
H900 C877 0.950 . S
H901 C879 0.950 . S
C902 C903 1.349 . S
C902 C904 1.327 . S
C902 H927 0.950 . S
C903 C902 1.349 . S
C903 C919 1.349 . S
C904 C902 1.327 . S
C904 C923 1.429 . S
C904 H928 0.950 . S
C905 C922 1.574 . S
C905 C924 1.368 . S
C905 H929 0.949 . S
H906 C910 0.949 . S
C907 C908 1.349 . S
C907 C909 1.327 . S
C907 H930 0.950 . S
C908 C907 1.349 . S
C908 C920 1.349 . S
C909 C907 1.327 . S
C909 C925 1.429 . S
C909 H931 0.950 . S
C910 H906 0.949 . S
C910 C918 1.574 . S
C910 C926 1.368 . S
H911 C919 0.950 . S
H912 C917 0.950 . S
H913 C918 0.949 . S
H914 C920 0.950 . S
H915 C921 0.950 . S
H916 C922 0.949 . S
C917 H912 0.950 . S
C917 C919 1.327 . S
C917 C923 1.429 . S
C918 C910 1.574 . S
C918 H913 0.949 . S
C918 C924 1.368 . S
C919 C903 1.349 . S
C919 H911 0.950 . S
C919 C917 1.327 . S
C920 C908 1.349 . S
C920 H914 0.950 . S
C920 C921 1.327 . S
C921 H915 0.950 . S
C921 C920 1.327 . S
C921 C925 1.429 . S
C922 C905 1.574 . S
C922 H916 0.949 . S
C922 C926 1.368 . S
C923 C904 1.429 . S
C923 C917 1.429 . S
C923 C924 1.523 . S
C924 C905 1.368 . S
C924 C918 1.368 . S
C924 C923 1.523 . S
C925 C909 1.429 . S
C925 C921 1.429 . S
C925 C926 1.523 . S
C926 C910 1.368 . S
C926 C922 1.368 . S
C926 C925 1.523 . S
H927 C902 0.950 . S
H928 C904 0.950 . S
H929 C905 0.949 . S
H930 C907 0.950 . S
H931 C909 0.950 . S
C932 C933 1.349 . S
C932 C934 1.327 . S
C932 H957 0.950 . S
C933 C932 1.349 . S
C933 C949 1.349 . S
C934 C932 1.327 . S
C934 C953 1.429 . S
C934 H958 0.950 . S
C935 C952 1.574 . S
C935 C954 1.368 . S
C935 H959 0.949 . S
H936 C940 0.949 . S
C937 C938 1.349 . S
C937 C939 1.327 . S
C937 H960 0.950 . S
C938 C937 1.349 . S
C938 C950 1.349 . S
C939 C937 1.327 . S
C939 C955 1.429 . S
C939 H961 0.950 . S
C940 H936 0.949 . S
C940 C948 1.574 . S
C940 C956 1.368 . S
H941 C949 0.950 . S
H942 C947 0.950 . S
H943 C948 0.949 . S
H944 C950 0.950 . S
H945 C951 0.950 . S
H946 C952 0.949 . S
C947 H942 0.950 . S
C947 C949 1.327 . S
C947 C953 1.429 . S
C948 C940 1.574 . S
C948 H943 0.949 . S
C948 C954 1.368 . S
C949 C933 1.349 . S
C949 H941 0.950 . S
C949 C947 1.327 . S
C950 C938 1.349 . S
C950 H944 0.950 . S
C950 C951 1.327 . S
C951 H945 0.950 . S
C951 C950 1.327 . S
C951 C955 1.429 . S
C952 C935 1.574 . S
C952 H946 0.949 . S
C952 C956 1.368 . S
C953 C934 1.429 . S
C953 C947 1.429 . S
C953 C954 1.523 . S
C954 C935 1.368 . S
C954 C948 1.368 . S
C954 C953 1.523 . S
C955 C939 1.429 . S
C955 C951 1.429 . S
C955 C956 1.523 . S
C956 C940 1.368 . S
C956 C952 1.368 . S
C956 C955 1.523 . S
H957 C932 0.950 . S
H958 C934 0.950 . S
H959 C935 0.949 . S
H960 C937 0.950 . S
H961 C939 0.950 . S
C962 C963 1.349 . S
C962 C964 1.327 . S
C962 H987 0.950 . S
C963 C962 1.349 . S
C963 C979 1.349 . S
C964 C962 1.327 . S
C964 C983 1.429 . S
C964 H988 0.950 . S
C965 C982 1.574 . S
C965 C984 1.368 . S
C965 H989 0.949 . S
H966 C970 0.949 . S
C967 C968 1.349 . S
C967 C969 1.327 . S
C967 H990 0.950 . S
C968 C967 1.349 . S
C968 C980 1.349 . S
C969 C967 1.327 . S
C969 C985 1.429 . S
C969 H991 0.950 . S
C970 H966 0.949 . S
C970 C978 1.574 . S
C970 C986 1.368 . S
H971 C979 0.950 . S
H972 C977 0.950 . S
H973 C978 0.949 . S
H974 C980 0.950 . S
H975 C981 0.950 . S
H976 C982 0.949 . S
C977 H972 0.950 . S
C977 C979 1.327 . S
C977 C983 1.429 . S
C978 C970 1.574 . S
C978 H973 0.949 . S
C978 C984 1.368 . S
C979 C963 1.349 . S
C979 H971 0.950 . S
C979 C977 1.327 . S
C980 C968 1.349 . S
C980 H974 0.950 . S
C980 C981 1.327 . S
C981 H975 0.950 . S
C981 C980 1.327 . S
C981 C985 1.429 . S
C982 C965 1.574 . S
C982 H976 0.949 . S
C982 C986 1.368 . S
C983 C964 1.429 . S
C983 C977 1.429 . S
C983 C984 1.523 . S
C984 C965 1.368 . S
C984 C978 1.368 . S
C984 C983 1.523 . S
C985 C969 1.429 . S
C985 C981 1.429 . S
C985 C986 1.523 . S
C986 C970 1.368 . S
C986 C982 1.368 . S
C986 C985 1.523 . S
H987 C962 0.950 . S
H988 C964 0.950 . S
H989 C965 0.949 . S
H990 C967 0.950 . S
H991 C969 0.950 . S
C992 C993 1.349 . S
C992 C994 1.327 . S
C992 H1017 0.950 . S
C993 C992 1.349 . S
C993 C1009 1.349 . S
C994 C992 1.327 . S
C994 C1013 1.429 . S
C994 H1018 0.950 . S
C995 C1012 1.574 . S
C995 C1014 1.368 . S
C995 H1019 0.949 . S
H996 C1000 0.949 . S
C997 C998 1.349 . S
C997 C999 1.327 . S
C997 H1020 0.950 . S
C998 C997 1.349 . S
C998 C1010 1.349 . S
C999 C997 1.327 . S
C999 C1015 1.429 . S
C999 H1021 0.950 . S
C1000 H996 0.949 . S
C1000 C1008 1.574 . S
C1000 C1016 1.368 . S
H1001 C1009 0.950 . S
H1002 C1007 0.950 . S
H1003 C1008 0.949 . S
H1004 C1010 0.950 . S
H1005 C1011 0.950 . S
H1006 C1012 0.949 . S
C1007 H1002 0.950 . S
C1007 C1009 1.327 . S
C1007 C1013 1.429 . S
C1008 C1000 1.574 . S
C1008 H1003 0.949 . S
C1008 C1014 1.368 . S
C1009 C993 1.349 . S
C1009 H1001 0.950 . S
C1009 C1007 1.327 . S
C1010 C998 1.349 . S
C1010 H1004 0.950 . S
C1010 C1011 1.327 . S
C1011 H1005 0.950 . S
C1011 C1010 1.327 . S
C1011 C1015 1.429 . S
C1012 C995 1.574 . S
C1012 H1006 0.949 . S
C1012 C1016 1.368 . S
C1013 C994 1.429 . S
C1013 C1007 1.429 . S
C1013 C1014 1.523 . S
C1014 C995 1.368 . S
C1014 C1008 1.368 . S
C1014 C1013 1.523 . S
C1015 C999 1.429 . S
C1015 C1011 1.429 . S
C1015 C1016 1.523 . S
C1016 C1000 1.368 . S
C1016 C1012 1.368 . S
C1016 C1015 1.523 . S
H1017 C992 0.950 . S
H1018 C994 0.950 . S
H1019 C995 0.949 . S
H1020 C997 0.950 . S
H1021 C999 0.950 . S
C1022 C1023 1.349 . S
C1022 C1024 1.327 . S
C1022 H1047 0.950 . S
C1023 C1022 1.349 . S
C1023 C1039 1.349 . S
C1024 C1022 1.327 . S
C1024 C1043 1.429 . S
C1024 H1048 0.950 . S
C1025 C1042 1.574 . S
C1025 C1044 1.368 . S
C1025 H1049 0.949 . S
H1026 C1030 0.949 . S
C1027 C1028 1.349 . S
C1027 C1029 1.327 . S
C1027 H1050 0.950 . S
C1028 C1027 1.349 . S
C1028 C1040 1.349 . S
C1029 C1027 1.327 . S
C1029 C1045 1.429 . S
C1029 H1051 0.950 . S
C1030 H1026 0.949 . S
C1030 C1038 1.574 . S
C1030 C1046 1.368 . S
H1031 C1039 0.950 . S
H1032 C1037 0.950 . S
H1033 C1038 0.949 . S
H1034 C1040 0.950 . S
H1035 C1041 0.950 . S
H1036 C1042 0.949 . S
C1037 H1032 0.950 . S
C1037 C1039 1.327 . S
C1037 C1043 1.429 . S
C1038 C1030 1.574 . S
C1038 H1033 0.949 . S
C1038 C1044 1.368 . S
C1039 C1023 1.349 . S
C1039 H1031 0.950 . S
C1039 C1037 1.327 . S
C1040 C1028 1.349 . S
C1040 H1034 0.950 . S
C1040 C1041 1.327 . S
C1041 H1035 0.950 . S
C1041 C1040 1.327 . S
C1041 C1045 1.429 . S
C1042 C1025 1.574 . S
C1042 H1036 0.949 . S
C1042 C1046 1.368 . S
C1043 C1024 1.429 . S
C1043 C1037 1.429 . S
C1043 C1044 1.523 . S
C1044 C1025 1.368 . S
C1044 C1038 1.368 . S
C1044 C1043 1.523 . S
C1045 C1029 1.429 . S
C1045 C1041 1.429 . S
C1045 C1046 1.523 . S
C1046 C1030 1.368 . S
C1046 C1042 1.368 . S
C1046 C1045 1.523 . S
H1047 C1022 0.950 . S
H1048 C1024 0.950 . S
H1049 C1025 0.949 . S
H1050 C1027 0.950 . S
H1051 C1029 0.950 . S
C1052 C1053 1.349 . S
C1052 C1054 1.327 . S
C1052 H1077 0.950 . S
C1053 C1052 1.349 . S
C1053 C1069 1.349 . S
C1054 C1052 1.327 . S
C1054 C1073 1.429 . S
C1054 H1078 0.950 . S
C1055 C1072 1.574 . S
C1055 C1074 1.368 . S
C1055 H1079 0.949 . S
H1056 C1060 0.949 . S
C1057 C1058 1.349 . S
C1057 C1059 1.327 . S
C1057 H1080 0.950 . S
C1058 C1057 1.349 . S
C1058 C1070 1.349 . S
C1059 C1057 1.327 . S
C1059 C1075 1.429 . S
C1059 H1081 0.950 . S
C1060 H1056 0.949 . S
C1060 C1068 1.574 . S
C1060 C1076 1.368 . S
H1061 C1069 0.950 . S
H1062 C1067 0.950 . S
H1063 C1068 0.949 . S
H1064 C1070 0.950 . S
H1065 C1071 0.950 . S
H1066 C1072 0.949 . S
C1067 H1062 0.950 . S
C1067 C1069 1.327 . S
C1067 C1073 1.429 . S
C1068 C1060 1.574 . S
C1068 H1063 0.949 . S
C1068 C1074 1.368 . S
C1069 C1053 1.349 . S
C1069 H1061 0.950 . S
C1069 C1067 1.327 . S
C1070 C1058 1.349 . S
C1070 H1064 0.950 . S
C1070 C1071 1.327 . S
C1071 H1065 0.950 . S
C1071 C1070 1.327 . S
C1071 C1075 1.429 . S
C1072 C1055 1.574 . S
C1072 H1066 0.949 . S
C1072 C1076 1.368 . S
C1073 C1054 1.429 . S
C1073 C1067 1.429 . S
C1073 C1074 1.523 . S
C1074 C1055 1.368 . S
C1074 C1068 1.368 . S
C1074 C1073 1.523 . S
C1075 C1059 1.429 . S
C1075 C1071 1.429 . S
C1075 C1076 1.523 . S
C1076 C1060 1.368 . S
C1076 C1072 1.368 . S
C1076 C1075 1.523 . S
H1077 C1052 0.950 . S
H1078 C1054 0.950 . S
H1079 C1055 0.949 . S
H1080 C1057 0.950 . S
H1081 C1059 0.950 . S
C1082 C1083 1.349 . S
C1082 C1084 1.327 . S
C1082 H1107 0.950 . S
C1083 C1082 1.349 . S
C1083 C1099 1.349 . S
C1084 C1082 1.327 . S
C1084 C1103 1.429 . S
C1084 H1108 0.952 1_545 S
C1085 C1102 1.574 . S
C1085 C1104 1.368 . S
C1085 H1109 0.949 . S
H1086 C1090 0.949 1_565 S
C1087 C1088 1.349 . S
C1087 C1089 1.327 . S
C1087 H1110 0.950 . S
C1088 C1087 1.349 . S
C1088 C1100 1.349 1_545 S
C1089 C1087 1.327 . S
C1089 C1105 1.429 . S
C1089 H1111 0.950 . S
C1090 H1086 0.949 1_545 S
C1090 C1098 1.574 . S
C1090 C1106 1.368 . S
H1091 C1099 0.950 . S
H1092 C1097 0.950 . S
H1093 C1098 0.949 1_565 S
H1094 C1100 0.950 . S
H1095 C1101 0.950 . S
H1096 C1102 0.949 . S
C1097 H1092 0.950 . S
C1097 C1099 1.327 . S
C1097 C1103 1.429 . S
C1098 C1090 1.574 . S
C1098 H1093 0.949 1_545 S
C1098 C1104 1.368 . S
C1099 C1083 1.349 . S
C1099 H1091 0.950 . S
C1099 C1097 1.327 . S
C1100 C1088 1.349 1_565 S
C1100 H1094 0.950 . S
C1100 C1101 1.327 . S
C1101 H1095 0.950 . S
C1101 C1100 1.327 . S
C1101 C1105 1.429 1_565 S
C1102 C1085 1.574 . S
C1102 H1096 0.949 . S
C1102 C1106 1.368 . S
C1103 C1084 1.429 . S
C1103 C1097 1.429 . S
C1103 C1104 1.523 . S
C1104 C1085 1.368 . S
C1104 C1098 1.368 . S
C1104 C1103 1.523 . S
C1105 C1089 1.429 . S
C1105 C1101 1.429 1_545 S
C1105 C1106 1.523 . S
C1106 C1090 1.368 . S
C1106 C1102 1.368 . S
C1106 C1105 1.523 . S
H1107 C1082 0.950 . S
H1108 C1084 0.952 1_565 S
H1109 C1085 0.949 . S
H1110 C1087 0.950 . S
H1111 C1089 0.950 . S
C1112 C1113 1.349 . S
C1112 C1114 1.327 . S
C1112 H1137 0.950 . S
C1113 C1112 1.349 . S
C1113 C1129 1.349 . S
C1114 C1112 1.327 . S
C1114 C1133 1.429 . S
C1114 H1138 0.950 . S
C1115 C1132 1.574 . S
C1115 C1134 1.368 . S
C1115 H1139 0.949 . S
H1116 C1120 0.949 . S
C1117 C1118 1.349 . S
C1117 C1119 1.327 . S
C1117 H1140 0.950 . S
C1118 C1117 1.349 . S
C1118 C1130 1.349 . S
C1119 C1117 1.327 . S
C1119 C1135 1.429 . S
C1119 H1141 0.950 . S
C1120 H1116 0.949 . S
C1120 C1128 1.574 . S
C1120 C1136 1.368 . S
H1121 C1129 0.950 . S
H1122 C1127 0.950 . S
H1123 C1128 0.949 . S
H1124 C1130 0.950 . S
H1125 C1131 0.950 . S
H1126 C1132 0.949 . S
C1127 H1122 0.950 . S
C1127 C1129 1.327 . S
C1127 C1133 1.429 . S
C1128 C1120 1.574 . S
C1128 H1123 0.949 . S
C1128 C1134 1.368 . S
C1129 C1113 1.349 . S
C1129 H1121 0.950 . S
C1129 C1127 1.327 . S
C1130 C1118 1.349 . S
C1130 H1124 0.950 . S
C1130 C1131 1.327 . S
C1131 H1125 0.950 . S
C1131 C1130 1.327 . S
C1131 C1135 1.429 . S
C1132 C1115 1.574 . S
C1132 H1126 0.949 . S
C1132 C1136 1.368 . S
C1133 C1114 1.429 . S
C1133 C1127 1.429 . S
C1133 C1134 1.523 . S
C1134 C1115 1.368 . S
C1134 C1128 1.368 . S
C1134 C1133 1.523 . S
C1135 C1119 1.429 . S
C1135 C1131 1.429 . S
C1135 C1136 1.523 . S
C1136 C1120 1.368 . S
C1136 C1132 1.368 . S
C1136 C1135 1.523 . S
H1137 C1112 0.950 . S
H1138 C1114 0.950 . S
H1139 C1115 0.949 . S
H1140 C1117 0.950 . S
H1141 C1119 0.950 . S
C1142 C1143 1.349 . S
C1142 C1144 1.327 . S
C1142 H1167 0.950 . S
C1143 C1142 1.349 . S
C1143 C1159 1.349 . S
C1144 C1142 1.327 . S
C1144 C1163 1.429 . S
C1144 H1168 0.950 . S
C1145 C1162 1.574 . S
C1145 C1164 1.368 . S
C1145 H1169 0.949 . S
H1146 C1150 0.949 . S
C1147 C1148 1.349 . S
C1147 C1149 1.327 . S
C1147 H1170 0.950 . S
C1148 C1147 1.349 . S
C1148 C1160 1.349 . S
C1149 C1147 1.327 . S
C1149 C1165 1.429 . S
C1149 H1171 0.950 . S
C1150 H1146 0.949 . S
C1150 C1158 1.574 . S
C1150 C1166 1.368 . S
H1151 C1159 0.950 . S
H1152 C1157 0.950 . S
H1153 C1158 0.949 . S
H1154 C1160 0.950 . S
H1155 C1161 0.950 . S
H1156 C1162 0.949 . S
C1157 H1152 0.950 . S
C1157 C1159 1.327 . S
C1157 C1163 1.429 . S
C1158 C1150 1.574 . S
C1158 H1153 0.949 . S
C1158 C1164 1.368 . S
C1159 C1143 1.349 . S
C1159 H1151 0.950 . S
C1159 C1157 1.327 . S
C1160 C1148 1.349 . S
C1160 H1154 0.950 . S
C1160 C1161 1.327 . S
C1161 H1155 0.950 . S
C1161 C1160 1.327 . S
C1161 C1165 1.429 . S
C1162 C1145 1.574 . S
C1162 H1156 0.949 . S
C1162 C1166 1.368 . S
C1163 C1144 1.429 . S
C1163 C1157 1.429 . S
C1163 C1164 1.523 . S
C1164 C1145 1.368 . S
C1164 C1158 1.368 . S
C1164 C1163 1.523 . S
C1165 C1149 1.429 . S
C1165 C1161 1.429 . S
C1165 C1166 1.523 . S
C1166 C1150 1.368 . S
C1166 C1162 1.368 . S
C1166 C1165 1.523 . S
H1167 C1142 0.950 . S
H1168 C1144 0.950 . S
H1169 C1145 0.949 . S
H1170 C1147 0.950 . S
H1171 C1149 0.950 . S
C1172 C1173 1.349 . S
C1172 C1174 1.327 . S
C1172 H1197 0.950 . S
C1173 C1172 1.349 . S
C1173 C1189 1.349 . S
C1174 C1172 1.327 . S
C1174 C1193 1.429 . S
C1174 H1198 0.950 . S
C1175 C1192 1.574 . S
C1175 C1194 1.368 . S
C1175 H1199 0.949 . S
H1176 C1180 0.949 . S
C1177 C1178 1.349 . S
C1177 C1179 1.327 . S
C1177 H1200 0.950 . S
C1178 C1177 1.349 . S
C1178 C1190 1.349 . S
C1179 C1177 1.327 . S
C1179 C1195 1.429 . S
C1179 H1201 0.950 . S
C1180 H1176 0.949 . S
C1180 C1188 1.574 . S
C1180 C1196 1.368 . S
H1181 C1189 0.950 . S
H1182 C1187 0.950 . S
H1183 C1188 0.949 . S
H1184 C1190 0.950 . S
H1185 C1191 0.950 . S
H1186 C1192 0.949 . S
C1187 H1182 0.950 . S
C1187 C1189 1.327 . S
C1187 C1193 1.429 . S
C1188 C1180 1.574 . S
C1188 H1183 0.949 . S
C1188 C1194 1.368 . S
C1189 C1173 1.349 . S
C1189 H1181 0.950 . S
C1189 C1187 1.327 . S
C1190 C1178 1.349 . S
C1190 H1184 0.950 . S
C1190 C1191 1.327 . S
C1191 H1185 0.950 . S
C1191 C1190 1.327 . S
C1191 C1195 1.429 . S
C1192 C1175 1.574 . S
C1192 H1186 0.949 . S
C1192 C1196 1.368 . S
C1193 C1174 1.429 . S
C1193 C1187 1.429 . S
C1193 C1194 1.523 . S
C1194 C1175 1.368 . S
C1194 C1188 1.368 . S
C1194 C1193 1.523 . S
C1195 C1179 1.429 . S
C1195 C1191 1.429 . S
C1195 C1196 1.523 . S
C1196 C1180 1.368 . S
C1196 C1192 1.368 . S
C1196 C1195 1.523 . S
H1197 C1172 0.950 . S
H1198 C1174 0.950 . S
H1199 C1175 0.949 . S
H1200 C1177 0.950 . S
H1201 C1179 0.950 . S
C1202 C1203 1.349 . S
C1202 C1204 1.327 . S
C1202 H1227 0.950 . S
C1203 C1202 1.349 . S
C1203 C1219 1.349 . S
C1204 C1202 1.327 . S
C1204 C1223 1.429 . S
C1204 H1228 0.950 . S
C1205 C1222 1.574 . S
C1205 C1224 1.368 1_655 S
C1205 H1229 0.949 . S
H1206 C1210 0.949 . S
C1207 C1208 1.349 . S
C1207 C1209 1.327 . S
C1207 H1230 0.950 . S
C1208 C1207 1.349 . S
C1208 C1220 1.349 . S
C1209 C1207 1.327 . S
C1209 C1225 1.429 . S
C1209 H1231 0.950 . S
C1210 H1206 0.949 . S
C1210 C1218 1.574 . S
C1210 C1226 1.368 1_455 S
H1211 C1219 0.950 . S
H1212 C1217 0.950 . S
H1213 C1218 0.949 . S
H1214 C1220 0.950 . S
H1215 C1221 0.950 . S
H1216 C1222 0.949 . S
C1217 H1212 0.950 . S
C1217 C1219 1.327 . S
C1217 C1223 1.429 . S
C1218 C1210 1.574 . S
C1218 H1213 0.949 . S
C1218 C1224 1.368 . S
C1219 C1203 1.349 . S
C1219 H1211 0.950 . S
C1219 C1217 1.327 . S
C1220 C1208 1.349 . S
C1220 H1214 0.950 . S
C1220 C1221 1.327 . S
C1221 H1215 0.950 . S
C1221 C1220 1.327 . S
C1221 C1225 1.429 . S
C1222 C1205 1.574 . S
C1222 H1216 0.949 . S
C1222 C1226 1.368 . S
C1223 C1204 1.429 . S
C1223 C1217 1.429 . S
C1223 C1224 1.523 . S
C1224 C1205 1.368 1_455 S
C1224 C1218 1.368 . S
C1224 C1223 1.523 . S
C1225 C1209 1.429 . S
C1225 C1221 1.429 . S
C1225 C1226 1.523 . S
C1226 C1210 1.368 1_655 S
C1226 C1222 1.368 . S
C1226 C1225 1.523 . S
H1227 C1202 0.950 . S
H1228 C1204 0.950 . S
H1229 C1205 0.949 . S
H1230 C1207 0.950 . S
H1231 C1209 0.950 . S
C1232 C1233 1.349 . S
C1232 C1234 1.327 . S
C1232 H1257 0.950 . S
C1233 C1232 1.349 . S
C1233 C1249 1.349 . S
C1234 C1232 1.327 . S
C1234 C1253 1.429 . S
C1234 H1258 0.950 . S
C1235 C1252 1.574 . S
C1235 C1254 1.368 . S
C1235 H1259 0.949 . S
H1236 C1240 0.949 . S
C1237 C1238 1.349 . S
C1237 C1239 1.327 . S
C1237 H1260 0.950 . S
C1238 C1237 1.349 . S
C1238 C1250 1.349 . S
C1239 C1237 1.327 . S
C1239 C1255 1.429 . S
C1239 H1261 0.950 . S
C1240 H1236 0.949 . S
C1240 C1248 1.574 . S
C1240 C1256 1.368 . S
H1241 C1249 0.950 . S
H1242 C1247 0.950 . S
H1243 C1248 0.949 . S
H1244 C1250 0.950 . S
H1245 C1251 0.950 . S
H1246 C1252 0.949 . S
C1247 H1242 0.950 . S
C1247 C1249 1.327 . S
C1247 C1253 1.429 . S
C1248 C1240 1.574 . S
C1248 H1243 0.949 . S
C1248 C1254 1.368 . S
C1249 C1233 1.349 . S
C1249 H1241 0.950 . S
C1249 C1247 1.327 . S
C1250 C1238 1.349 . S
C1250 H1244 0.950 . S
C1250 C1251 1.327 . S
C1251 H1245 0.950 . S
C1251 C1250 1.327 . S
C1251 C1255 1.429 . S
C1252 C1235 1.574 . S
C1252 H1246 0.949 . S
C1252 C1256 1.368 . S
C1253 C1234 1.429 . S
C1253 C1247 1.429 . S
C1253 C1254 1.523 . S
C1254 C1235 1.368 . S
C1254 C1248 1.368 . S
C1254 C1253 1.523 . S
C1255 C1239 1.429 . S
C1255 C1251 1.429 . S
C1255 C1256 1.523 . S
C1256 C1240 1.368 . S
C1256 C1252 1.368 . S
C1256 C1255 1.523 . S
H1257 C1232 0.950 . S
H1258 C1234 0.950 . S
H1259 C1235 0.949 . S
H1260 C1237 0.950 . S
H1261 C1239 0.950 . S
C1262 C1263 1.349 . S
C1262 C1264 1.327 . S
C1262 H1287 0.950 . S
C1263 C1262 1.349 . S
C1263 C1279 1.349 . S
C1264 C1262 1.327 . S
C1264 C1283 1.429 . S
C1264 H1288 0.950 . S
C1265 C1282 1.574 . S
C1265 C1284 1.368 . S
C1265 H1289 0.949 . S
H1266 C1270 0.949 . S
C1267 C1268 1.349 . S
C1267 C1269 1.327 . S
C1267 H1290 0.950 . S
C1268 C1267 1.349 . S
C1268 C1280 1.349 . S
C1269 C1267 1.327 . S
C1269 C1285 1.429 . S
C1269 H1291 0.950 . S
C1270 H1266 0.949 . S
C1270 C1278 1.574 . S
C1270 C1286 1.368 . S
H1271 C1279 0.950 . S
H1272 C1277 0.950 . S
H1273 C1278 0.949 . S
H1274 C1280 0.950 . S
H1275 C1281 0.950 . S
H1276 C1282 0.949 . S
C1277 H1272 0.950 . S
C1277 C1279 1.327 . S
C1277 C1283 1.429 . S
C1278 C1270 1.574 . S
C1278 H1273 0.949 . S
C1278 C1284 1.368 . S
C1279 C1263 1.349 . S
C1279 H1271 0.950 . S
C1279 C1277 1.327 . S
C1280 C1268 1.349 . S
C1280 H1274 0.950 . S
C1280 C1281 1.327 . S
C1281 H1275 0.950 . S
C1281 C1280 1.327 . S
C1281 C1285 1.429 . S
C1282 C1265 1.574 . S
C1282 H1276 0.949 . S
C1282 C1286 1.368 . S
C1283 C1264 1.429 . S
C1283 C1277 1.429 . S
C1283 C1284 1.523 . S
C1284 C1265 1.368 . S
C1284 C1278 1.368 . S
C1284 C1283 1.523 . S
C1285 C1269 1.429 . S
C1285 C1281 1.429 . S
C1285 C1286 1.523 . S
C1286 C1270 1.368 . S
C1286 C1282 1.368 . S
C1286 C1285 1.523 . S
H1287 C1262 0.950 . S
H1288 C1264 0.950 . S
H1289 C1265 0.949 . S
H1290 C1267 0.950 . S
H1291 C1269 0.950 . S
C1292 C1293 1.349 . S
C1292 C1294 1.327 . S
C1292 H1317 0.950 . S
C1293 C1292 1.349 . S
C1293 C1309 1.349 . S
C1294 C1292 1.327 . S
C1294 C1313 1.429 . S
C1294 H1318 0.950 . S
C1295 C1312 1.574 . S
C1295 C1314 1.368 . S
C1295 H1319 0.949 . S
H1296 C1300 0.949 . S
C1297 C1298 1.349 . S
C1297 C1299 1.327 . S
C1297 H1320 0.950 . S
C1298 C1297 1.349 . S
C1298 C1310 1.349 . S
C1299 C1297 1.327 . S
C1299 C1315 1.429 . S
C1299 H1321 0.950 . S
C1300 H1296 0.949 . S
C1300 C1308 1.574 . S
C1300 C1316 1.368 . S
H1301 C1309 0.950 . S
H1302 C1307 0.950 . S
H1303 C1308 0.949 . S
H1304 C1310 0.950 . S
H1305 C1311 0.950 . S
H1306 C1312 0.949 . S
C1307 H1302 0.950 . S
C1307 C1309 1.327 . S
C1307 C1313 1.429 . S
C1308 C1300 1.574 . S
C1308 H1303 0.949 . S
C1308 C1314 1.368 . S
C1309 C1293 1.349 . S
C1309 H1301 0.950 . S
C1309 C1307 1.327 . S
C1310 C1298 1.349 . S
C1310 H1304 0.950 . S
C1310 C1311 1.327 . S
C1311 H1305 0.950 . S
C1311 C1310 1.327 . S
C1311 C1315 1.429 . S
C1312 C1295 1.574 . S
C1312 H1306 0.949 . S
C1312 C1316 1.368 . S
C1313 C1294 1.429 . S
C1313 C1307 1.429 . S
C1313 C1314 1.523 . S
C1314 C1295 1.368 . S
C1314 C1308 1.368 . S
C1314 C1313 1.523 . S
C1315 C1299 1.429 . S
C1315 C1311 1.429 . S
C1315 C1316 1.523 . S
C1316 C1300 1.368 . S
C1316 C1312 1.368 . S
C1316 C1315 1.523 . S
H1317 C1292 0.950 . S
H1318 C1294 0.950 . S
H1319 C1295 0.949 . S
H1320 C1297 0.950 . S
H1321 C1299 0.950 . S
C1322 C1323 1.349 . S
C1322 C1324 1.327 . S
C1322 H1347 0.950 . S
C1323 C1322 1.349 . S
C1323 C1339 1.349 1_554 S
C1324 C1322 1.327 . S
C1324 C1343 1.426 1_654 S
C1324 H1348 0.950 . S
C1325 C1342 1.574 . S
C1325 C1344 1.368 . S
C1325 H1349 0.949 . S
H1326 C1330 0.949 . S
C1327 C1328 1.349 . S
C1327 C1329 1.327 . S
C1327 H1350 0.950 . S
C1328 C1327 1.349 . S
C1328 C1340 1.349 . S
C1329 C1327 1.327 . S
C1329 C1345 1.429 . S
C1329 H1351 0.950 . S
C1330 H1326 0.949 . S
C1330 C1338 1.574 . S
C1330 C1346 1.368 . S
H1331 C1339 0.950 . S
H1332 C1337 0.954 . S
H1333 C1338 0.921 1_554 S
H1334 C1340 0.950 . S
H1335 C1341 0.950 . S
H1336 C1342 0.949 . S
C1337 H1332 0.954 . S
C1337 C1339 1.321 1_455 S
C1337 C1343 1.430 . S
C1338 C1330 1.574 . S
C1338 H1333 0.921 1_556 S
C1338 C1344 1.368 . S
C1339 C1323 1.349 1_556 S
C1339 H1331 0.950 . S
C1339 C1337 1.321 1_655 S
C1340 C1328 1.349 . S
C1340 H1334 0.950 . S
C1340 C1341 1.327 . S
C1341 H1335 0.950 . S
C1341 C1340 1.327 . S
C1341 C1345 1.429 . S
C1342 C1325 1.574 . S
C1342 H1336 0.949 . S
C1342 C1346 1.368 . S
C1343 C1324 1.426 1_456 S
C1343 C1337 1.430 . S
C1343 C1344 1.527 . S
C1344 C1325 1.368 . S
C1344 C1338 1.368 . S
C1344 C1343 1.527 . S
C1345 C1329 1.429 . S
C1345 C1341 1.429 . S
C1345 C1346 1.523 . S
C1346 C1330 1.368 . S
C1346 C1342 1.368 . S
C1346 C1345 1.523 . S
H1347 C1322 0.950 . S
H1348 C1324 0.950 . S
H1349 C1325 0.949 . S
H1350 C1327 0.950 . S
H1351 C1329 0.950 . S
C1352 C1353 1.349 . S
C1352 C1354 1.327 . S
C1352 H1377 0.950 . S
C1353 C1352 1.349 . S
C1353 C1369 1.349 . S
C1354 C1352 1.327 . S
C1354 C1373 1.429 . S
C1354 H1378 0.950 . S
C1355 C1372 1.574 . S
C1355 C1374 1.368 . S
C1355 H1379 0.949 . S
H1356 C1360 0.949 . S
C1357 C1358 1.349 . S
C1357 C1359 1.327 . S
C1357 H1380 0.950 . S
C1358 C1357 1.349 . S
C1358 C1370 1.349 . S
C1359 C1357 1.327 . S
C1359 C1375 1.429 . S
C1359 H1381 0.950 . S
C1360 H1356 0.949 . S
C1360 C1368 1.574 . S
C1360 C1376 1.368 . S
H1361 C1369 0.950 . S
H1362 C1367 0.950 . S
H1363 C1368 0.949 . S
H1364 C1370 0.950 . S
H1365 C1371 0.950 . S
H1366 C1372 0.949 . S
C1367 H1362 0.950 . S
C1367 C1369 1.327 . S
C1367 C1373 1.429 . S
C1368 C1360 1.574 . S
C1368 H1363 0.949 . S
C1368 C1374 1.368 . S
C1369 C1353 1.349 . S
C1369 H1361 0.950 . S
C1369 C1367 1.327 . S
C1370 C1358 1.349 . S
C1370 H1364 0.950 . S
C1370 C1371 1.327 . S
C1371 H1365 0.950 . S
C1371 C1370 1.327 . S
C1371 C1375 1.429 . S
C1372 C1355 1.574 . S
C1372 H1366 0.949 . S
C1372 C1376 1.368 . S
C1373 C1354 1.429 . S
C1373 C1367 1.429 . S
C1373 C1374 1.523 . S
C1374 C1355 1.368 . S
C1374 C1368 1.368 . S
C1374 C1373 1.523 . S
C1375 C1359 1.429 . S
C1375 C1371 1.429 . S
C1375 C1376 1.523 . S
C1376 C1360 1.368 . S
C1376 C1372 1.368 . S
C1376 C1375 1.523 . S
H1377 C1352 0.950 . S
H1378 C1354 0.950 . S
H1379 C1355 0.949 . S
H1380 C1357 0.950 . S
H1381 C1359 0.950 . S
C1382 C1383 1.349 . S
C1382 C1384 1.331 1_554 S
C1382 H1407 0.950 . S
C1383 C1382 1.349 . S
C1383 C1399 1.349 . S
C1384 C1382 1.331 1_556 S
C1384 C1403 1.427 . S
C1384 H1408 0.947 . S
C1385 C1402 1.574 . S
C1385 C1404 1.368 . S
C1385 H1409 0.949 . S
H1386 C1390 0.949 . S
C1387 C1388 1.349 . S
C1387 C1389 1.327 . S
C1387 H1410 0.950 . S
C1388 C1387 1.349 . S
C1388 C1400 1.349 . S
C1389 C1387 1.327 . S
C1389 C1405 1.429 . S
C1389 H1411 0.950 . S
C1390 H1386 0.949 . S
C1390 C1398 1.574 . S
C1390 C1406 1.368 . S
H1391 C1399 0.950 . S
H1392 C1397 0.950 . S
H1393 C1398 0.949 . S
H1394 C1400 0.950 . S
H1395 C1401 0.950 . S
H1396 C1402 0.949 . S
C1397 H1392 0.950 . S
C1397 C1399 1.327 . S
C1397 C1403 1.429 1_554 S
C1398 C1390 1.574 . S
C1398 H1393 0.949 . S
C1398 C1404 1.368 . S
C1399 C1383 1.349 . S
C1399 H1391 0.950 . S
C1399 C1397 1.327 . S
C1400 C1388 1.349 . S
C1400 H1394 0.950 . S
C1400 C1401 1.327 . S
C1401 H1395 0.950 . S
C1401 C1400 1.327 . S
C1401 C1405 1.429 . S
C1402 C1385 1.574 . S
C1402 H1396 0.949 . S
C1402 C1406 1.368 . S
C1403 C1384 1.427 . S
C1403 C1397 1.429 1_556 S
C1403 C1404 1.523 . S
C1404 C1385 1.368 . S
C1404 C1398 1.368 . S
C1404 C1403 1.523 . S
C1405 C1389 1.429 . S
C1405 C1401 1.429 . S
C1405 C1406 1.523 . S
C1406 C1390 1.368 . S
C1406 C1402 1.368 . S
C1406 C1405 1.523 . S
H1407 C1382 0.950 . S
H1408 C1384 0.947 . S
H1409 C1385 0.949 . S
H1410 C1387 0.950 . S
H1411 C1389 0.950 . S
C1412 C1413 1.349 . S
C1412 C1414 1.327 . S
C1412 H1437 0.950 . S
C1413 C1412 1.349 . S
C1413 C1429 1.349 . S
C1414 C1412 1.327 . S
C1414 C1433 1.429 . S
C1414 H1438 0.950 . S
C1415 C1432 1.574 . S
C1415 C1434 1.368 . S
C1415 H1439 0.949 . S
H1416 C1420 0.949 . S
C1417 C1418 1.349 . S
C1417 C1419 1.327 . S
C1417 H1440 0.950 . S
C1418 C1417 1.349 . S
C1418 C1430 1.349 . S
C1419 C1417 1.327 . S
C1419 C1435 1.429 . S
C1419 H1441 0.950 . S
C1420 H1416 0.949 . S
C1420 C1428 1.574 . S
C1420 C1436 1.368 . S
H1421 C1429 0.950 . S
H1422 C1427 0.950 . S
H1423 C1428 0.949 . S
H1424 C1430 0.950 . S
H1425 C1431 0.950 . S
H1426 C1432 0.949 . S
C1427 H1422 0.950 . S
C1427 C1429 1.327 . S
C1427 C1433 1.429 . S
C1428 C1420 1.574 . S
C1428 H1423 0.949 . S
C1428 C1434 1.368 . S
C1429 C1413 1.349 . S
C1429 H1421 0.950 . S
C1429 C1427 1.327 . S
C1430 C1418 1.349 . S
C1430 H1424 0.950 . S
C1430 C1431 1.327 . S
C1431 H1425 0.950 . S
C1431 C1430 1.327 . S
C1431 C1435 1.429 . S
C1432 C1415 1.574 . S
C1432 H1426 0.949 . S
C1432 C1436 1.368 . S
C1433 C1414 1.429 . S
C1433 C1427 1.429 . S
C1433 C1434 1.523 . S
C1434 C1415 1.368 . S
C1434 C1428 1.368 . S
C1434 C1433 1.523 . S
C1435 C1419 1.429 . S
C1435 C1431 1.429 . S
C1435 C1436 1.523 . S
C1436 C1420 1.368 . S
C1436 C1432 1.368 . S
C1436 C1435 1.523 . S
H1437 C1412 0.950 . S
H1438 C1414 0.950 . S
H1439 C1415 0.949 . S
H1440 C1417 0.950 . S
H1441 C1419 0.950 . S
C1442 C1443 1.349 . S
C1442 C1444 1.327 . S
C1442 H1467 0.950 . S
C1443 C1442 1.349 . S
C1443 C1459 1.349 . S
C1444 C1442 1.327 . S
C1444 C1463 1.429 . S
C1444 H1468 0.950 . S
C1445 C1462 1.574 . S
C1445 C1464 1.368 . S
C1445 H1469 0.949 . S
H1446 C1450 0.949 . S
C1447 C1448 1.349 . S
C1447 C1449 1.327 . S
C1447 H1470 0.950 . S
C1448 C1447 1.349 . S
C1448 C1460 1.349 . S
C1449 C1447 1.327 . S
C1449 C1465 1.429 . S
C1449 H1471 0.950 . S
C1450 H1446 0.949 . S
C1450 C1458 1.574 . S
C1450 C1466 1.368 . S
H1451 C1459 0.950 . S
H1452 C1457 0.950 . S
H1453 C1458 0.949 . S
H1454 C1460 0.950 . S
H1455 C1461 0.950 . S
H1456 C1462 0.949 . S
C1457 H1452 0.950 . S
C1457 C1459 1.327 . S
C1457 C1463 1.429 . S
C1458 C1450 1.574 . S
C1458 H1453 0.949 . S
C1458 C1464 1.368 . S
C1459 C1443 1.349 . S
C1459 H1451 0.950 . S
C1459 C1457 1.327 . S
C1460 C1448 1.349 . S
C1460 H1454 0.950 . S
C1460 C1461 1.327 . S
C1461 H1455 0.950 . S
C1461 C1460 1.327 . S
C1461 C1465 1.429 . S
C1462 C1445 1.574 . S
C1462 H1456 0.949 . S
C1462 C1466 1.368 . S
C1463 C1444 1.429 . S
C1463 C1457 1.429 . S
C1463 C1464 1.523 . S
C1464 C1445 1.368 . S
C1464 C1458 1.368 . S
C1464 C1463 1.523 . S
C1465 C1449 1.429 . S
C1465 C1461 1.429 . S
C1465 C1466 1.523 . S
C1466 C1450 1.368 . S
C1466 C1462 1.368 . S
C1466 C1465 1.523 . S
H1467 C1442 0.950 . S
H1468 C1444 0.950 . S
H1469 C1445 0.949 . S
H1470 C1447 0.950 . S
H1471 C1449 0.950 . S
C1472 C1473 1.349 . S
C1472 C1474 1.327 . S
C1472 H1497 0.950 . S
C1473 C1472 1.349 . S
C1473 C1489 1.349 . S
C1474 C1472 1.327 . S
C1474 C1493 1.429 . S
C1474 H1498 0.950 . S
C1475 C1492 1.574 . S
C1475 C1494 1.368 . S
C1475 H1499 0.949 . S
H1476 C1480 0.949 . S
C1477 C1478 1.349 . S
C1477 C1479 1.327 . S
C1477 H1500 0.950 . S
C1478 C1477 1.349 . S
C1478 C1490 1.349 . S
C1479 C1477 1.327 . S
C1479 C1495 1.429 . S
C1479 H1501 0.950 . S
C1480 H1476 0.949 . S
C1480 C1488 1.574 . S
C1480 C1496 1.368 . S
H1481 C1489 0.950 . S
H1482 C1487 0.950 . S
H1483 C1488 0.949 . S
H1484 C1490 0.950 . S
H1485 C1491 0.950 . S
H1486 C1492 0.949 . S
C1487 H1482 0.950 . S
C1487 C1489 1.327 . S
C1487 C1493 1.429 . S
C1488 C1480 1.574 . S
C1488 H1483 0.949 . S
C1488 C1494 1.368 . S
C1489 C1473 1.349 . S
C1489 H1481 0.950 . S
C1489 C1487 1.327 . S
C1490 C1478 1.349 . S
C1490 H1484 0.950 . S
C1490 C1491 1.327 . S
C1491 H1485 0.950 . S
C1491 C1490 1.327 . S
C1491 C1495 1.429 . S
C1492 C1475 1.574 . S
C1492 H1486 0.949 . S
C1492 C1496 1.368 . S
C1493 C1474 1.429 . S
C1493 C1487 1.429 . S
C1493 C1494 1.523 . S
C1494 C1475 1.368 . S
C1494 C1488 1.368 . S
C1494 C1493 1.523 . S
C1495 C1479 1.429 . S
C1495 C1491 1.429 . S
C1495 C1496 1.523 . S
C1496 C1480 1.368 . S
C1496 C1492 1.368 . S
C1496 C1495 1.523 . S
H1497 C1472 0.950 . S
H1498 C1474 0.950 . S
H1499 C1475 0.949 . S
H1500 C1477 0.950 . S
H1501 C1479 0.950 . S
C1502 C1503 1.349 . S
C1502 C1504 1.327 1_556 S
C1502 H1527 0.950 . S
C1503 C1502 1.349 . S
C1503 C1519 1.349 1_556 S
C1504 C1502 1.327 1_554 S
C1504 C1523 1.429 . S
C1504 H1528 0.950 . S
C1505 C1522 1.574 . S
C1505 C1524 1.368 . S
C1505 H1529 0.949 . S
H1506 C1510 0.949 . S
C1507 C1508 1.349 . S
C1507 C1509 1.327 . S
C1507 H1530 0.950 . S
C1508 C1507 1.349 . S
C1508 C1520 1.349 . S
C1509 C1507 1.327 . S
C1509 C1525 1.429 . S
C1509 H1531 0.950 . S
C1510 H1506 0.949 . S
C1510 C1518 1.574 . S
C1510 C1526 1.368 . S
H1511 C1519 0.950 . S
H1512 C1517 0.950 . S
H1513 C1518 0.949 . S
H1514 C1520 0.950 . S
H1515 C1521 0.950 . S
H1516 C1522 0.949 . S
C1517 H1512 0.950 . S
C1517 C1519 1.327 . S
C1517 C1523 1.429 . S
C1518 C1510 1.574 . S
C1518 H1513 0.949 . S
C1518 C1524 1.368 . S
C1519 C1503 1.349 1_554 S
C1519 H1511 0.950 . S
C1519 C1517 1.327 . S
C1520 C1508 1.349 . S
C1520 H1514 0.950 . S
C1520 C1521 1.327 . S
C1521 H1515 0.950 . S
C1521 C1520 1.327 . S
C1521 C1525 1.429 . S
C1522 C1505 1.574 . S
C1522 H1516 0.949 . S
C1522 C1526 1.368 . S
C1523 C1504 1.429 . S
C1523 C1517 1.429 . S
C1523 C1524 1.523 . S
C1524 C1505 1.368 . S
C1524 C1518 1.368 . S
C1524 C1523 1.523 . S
C1525 C1509 1.429 . S
C1525 C1521 1.429 . S
C1525 C1526 1.523 . S
C1526 C1510 1.368 . S
C1526 C1522 1.368 . S
C1526 C1525 1.523 . S
H1527 C1502 0.950 . S
H1528 C1504 0.950 . S
H1529 C1505 0.949 . S
H1530 C1507 0.950 . S
H1531 C1509 0.950 . S
C1532 C1533 1.349 . S
C1532 C1534 1.327 . S
C1532 H1557 0.950 . S
C1533 C1532 1.349 . S
C1533 C1549 1.349 . S
C1534 C1532 1.327 . S
C1534 C1553 1.429 . S
C1534 H1558 0.950 . S
C1535 C1552 1.574 . S
C1535 C1554 1.368 . S
C1535 H1559 0.949 . S
H1536 C1540 0.949 . S
C1537 C1538 1.349 . S
C1537 C1539 1.327 . S
C1537 H1560 0.950 . S
C1538 C1537 1.349 . S
C1538 C1550 1.349 . S
C1539 C1537 1.327 . S
C1539 C1555 1.429 . S
C1539 H1561 0.950 . S
C1540 H1536 0.949 . S
C1540 C1548 1.574 . S
C1540 C1556 1.368 . S
H1541 C1549 0.950 . S
H1542 C1547 0.950 . S
H1543 C1548 0.949 . S
H1544 C1550 0.950 . S
H1545 C1551 0.950 . S
H1546 C1552 0.949 . S
C1547 H1542 0.950 . S
C1547 C1549 1.327 . S
C1547 C1553 1.429 . S
C1548 C1540 1.574 . S
C1548 H1543 0.949 . S
C1548 C1554 1.368 . S
C1549 C1533 1.349 . S
C1549 H1541 0.950 . S
C1549 C1547 1.327 . S
C1550 C1538 1.349 . S
C1550 H1544 0.950 . S
C1550 C1551 1.327 . S
C1551 H1545 0.950 . S
C1551 C1550 1.327 . S
C1551 C1555 1.429 . S
C1552 C1535 1.574 . S
C1552 H1546 0.949 . S
C1552 C1556 1.368 . S
C1553 C1534 1.429 . S
C1553 C1547 1.429 . S
C1553 C1554 1.523 . S
C1554 C1535 1.368 . S
C1554 C1548 1.368 . S
C1554 C1553 1.523 . S
C1555 C1539 1.429 . S
C1555 C1551 1.429 . S
C1555 C1556 1.523 . S
C1556 C1540 1.368 . S
C1556 C1552 1.368 . S
C1556 C1555 1.523 . S
H1557 C1532 0.950 . S
H1558 C1534 0.950 . S
H1559 C1535 0.949 . S
H1560 C1537 0.950 . S
H1561 C1539 0.950 . S
C1562 C1563 1.349 . S
C1562 C1564 1.327 . S
C1562 H1587 0.950 . S
C1563 C1562 1.349 . S
C1563 C1579 1.349 . S
C1564 C1562 1.327 . S
C1564 C1583 1.429 . S
C1564 H1588 0.950 . S
C1565 C1582 1.574 . S
C1565 C1584 1.368 . S
C1565 H1589 0.949 . S
H1566 C1570 0.949 . S
C1567 C1568 1.349 . S
C1567 C1569 1.327 . S
C1567 H1590 0.950 . S
C1568 C1567 1.349 . S
C1568 C1580 1.349 . S
C1569 C1567 1.327 . S
C1569 C1585 1.429 . S
C1569 H1591 0.950 . S
C1570 H1566 0.949 . S
C1570 C1578 1.574 . S
C1570 C1586 1.368 . S
H1571 C1579 0.950 . S
H1572 C1577 0.950 . S
H1573 C1578 0.949 . S
H1574 C1580 0.950 . S
H1575 C1581 0.950 . S
H1576 C1582 0.949 . S
C1577 H1572 0.950 . S
C1577 C1579 1.327 . S
C1577 C1583 1.429 . S
C1578 C1570 1.574 . S
C1578 H1573 0.949 . S
C1578 C1584 1.368 . S
C1579 C1563 1.349 . S
C1579 H1571 0.950 . S
C1579 C1577 1.327 . S
C1580 C1568 1.349 . S
C1580 H1574 0.950 . S
C1580 C1581 1.327 . S
C1581 H1575 0.950 . S
C1581 C1580 1.327 . S
C1581 C1585 1.429 . S
C1582 C1565 1.574 . S
C1582 H1576 0.949 . S
C1582 C1586 1.368 . S
C1583 C1564 1.429 . S
C1583 C1577 1.429 . S
C1583 C1584 1.523 . S
C1584 C1565 1.368 . S
C1584 C1578 1.368 . S
C1584 C1583 1.523 . S
C1585 C1569 1.429 . S
C1585 C1581 1.429 . S
C1585 C1586 1.523 . S
C1586 C1570 1.368 . S
C1586 C1582 1.368 . S
C1586 C1585 1.523 . S
H1587 C1562 0.950 . S
H1588 C1564 0.950 . S
H1589 C1565 0.949 . S
H1590 C1567 0.950 . S
H1591 C1569 0.950 . S
C1592 C1593 1.349 . S
C1592 C1594 1.327 . S
C1592 H1617 0.950 . S
C1593 C1592 1.349 . S
C1593 C1609 1.349 . S
C1594 C1592 1.327 . S
C1594 C1613 1.429 . S
C1594 H1618 0.950 . S
C1595 C1612 1.574 . S
C1595 C1614 1.368 . S
C1595 H1619 0.949 . S
H1596 C1600 0.949 . S
C1597 C1598 1.349 . S
C1597 C1599 1.327 . S
C1597 H1620 0.950 . S
C1598 C1597 1.349 . S
C1598 C1610 1.349 . S
C1599 C1597 1.327 . S
C1599 C1615 1.429 . S
C1599 H1621 0.950 . S
C1600 H1596 0.949 . S
C1600 C1608 1.574 . S
C1600 C1616 1.368 . S
H1601 C1609 0.950 . S
H1602 C1607 0.950 . S
H1603 C1608 0.949 . S
H1604 C1610 0.950 . S
H1605 C1611 0.950 . S
H1606 C1612 0.949 . S
C1607 H1602 0.950 . S
C1607 C1609 1.327 . S
C1607 C1613 1.429 . S
C1608 C1600 1.574 . S
C1608 H1603 0.949 . S
C1608 C1614 1.368 . S
C1609 C1593 1.349 . S
C1609 H1601 0.950 . S
C1609 C1607 1.327 . S
C1610 C1598 1.349 . S
C1610 H1604 0.950 . S
C1610 C1611 1.327 . S
C1611 H1605 0.950 . S
C1611 C1610 1.327 . S
C1611 C1615 1.429 . S
C1612 C1595 1.574 . S
C1612 H1606 0.949 . S
C1612 C1616 1.368 . S
C1613 C1594 1.429 . S
C1613 C1607 1.429 . S
C1613 C1614 1.523 . S
C1614 C1595 1.368 . S
C1614 C1608 1.368 . S
C1614 C1613 1.523 . S
C1615 C1599 1.429 . S
C1615 C1611 1.429 . S
C1615 C1616 1.523 . S
C1616 C1600 1.368 . S
C1616 C1612 1.368 . S
C1616 C1615 1.523 . S
H1617 C1592 0.950 . S
H1618 C1594 0.950 . S
H1619 C1595 0.949 . S
H1620 C1597 0.950 . S
H1621 C1599 0.950 . S
C1622 C1623 1.349 . S
C1622 C1624 1.327 . S
C1622 H1647 0.950 . S
C1623 C1622 1.349 . S
C1623 C1639 1.349 . S
C1624 C1622 1.327 . S
C1624 C1643 1.429 . S
C1624 H1648 0.950 . S
C1625 C1642 1.574 . S
C1625 C1644 1.368 . S
C1625 H1649 0.949 . S
H1626 C1630 0.949 . S
C1627 C1628 1.349 . S
C1627 C1629 1.327 . S
C1627 H1650 0.950 . S
C1628 C1627 1.349 . S
C1628 C1640 1.349 . S
C1629 C1627 1.327 . S
C1629 C1645 1.429 . S
C1629 H1651 0.950 . S
C1630 H1626 0.949 . S
C1630 C1638 1.574 . S
C1630 C1646 1.368 . S
H1631 C1639 0.950 . S
H1632 C1637 0.950 . S
H1633 C1638 0.949 . S
H1634 C1640 0.950 . S
H1635 C1641 0.950 . S
H1636 C1642 0.949 . S
C1637 H1632 0.950 . S
C1637 C1639 1.327 . S
C1637 C1643 1.429 . S
C1638 C1630 1.574 . S
C1638 H1633 0.949 . S
C1638 C1644 1.368 . S
C1639 C1623 1.349 . S
C1639 H1631 0.950 . S
C1639 C1637 1.327 . S
C1640 C1628 1.349 . S
C1640 H1634 0.950 . S
C1640 C1641 1.327 . S
C1641 H1635 0.950 . S
C1641 C1640 1.327 . S
C1641 C1645 1.429 . S
C1642 C1625 1.574 . S
C1642 H1636 0.949 . S
C1642 C1646 1.368 . S
C1643 C1624 1.429 . S
C1643 C1637 1.429 . S
C1643 C1644 1.523 . S
C1644 C1625 1.368 . S
C1644 C1638 1.368 . S
C1644 C1643 1.523 . S
C1645 C1629 1.429 . S
C1645 C1641 1.429 . S
C1645 C1646 1.523 . S
C1646 C1630 1.368 . S
C1646 C1642 1.368 . S
C1646 C1645 1.523 . S
H1647 C1622 0.950 . S
H1648 C1624 0.950 . S
H1649 C1625 0.949 . S
H1650 C1627 0.950 . S
H1651 C1629 0.950 . S
C1652 C1653 1.349 . S
C1652 C1654 1.327 . S
C1652 H1677 0.950 . S
C1653 C1652 1.349 . S
C1653 C1669 1.349 1_556 S
C1654 C1652 1.327 . S
C1654 C1673 1.429 . S
C1654 H1678 0.950 . S
C1655 C1672 1.574 . S
C1655 C1674 1.368 1_554 S
C1655 H1679 0.949 . S
H1656 C1660 0.949 . S
C1657 C1658 1.349 1_554 S
C1657 C1659 1.327 . S
C1657 H1680 0.950 . S
C1658 C1657 1.349 1_556 S
C1658 C1670 1.349 . S
C1659 C1657 1.327 . S
C1659 C1675 1.429 1_554 S
C1659 H1681 0.950 . S
C1660 H1656 0.949 . S
C1660 C1668 1.574 . S
C1660 C1676 1.368 . S
H1661 C1669 0.950 . S
H1662 C1667 0.950 . S
H1663 C1668 0.949 . S
H1664 C1670 0.950 . S
H1665 C1671 0.950 . S
H1666 C1672 0.949 . S
C1667 H1662 0.950 . S
C1667 C1669 1.327 . S
C1667 C1673 1.429 1_554 S
C1668 C1660 1.574 . S
C1668 H1663 0.949 . S
C1668 C1674 1.368 . S
C1669 C1653 1.349 1_554 S
C1669 H1661 0.950 . S
C1669 C1667 1.327 . S
C1670 C1658 1.349 . S
C1670 H1664 0.950 . S
C1670 C1671 1.327 . S
C1671 H1665 0.950 . S
C1671 C1670 1.327 . S
C1671 C1675 1.429 . S
C1672 C1655 1.574 . S
C1672 H1666 0.949 . S
C1672 C1676 1.368 1_554 S
C1673 C1654 1.429 . S
C1673 C1667 1.429 1_556 S
C1673 C1674 1.523 . S
C1674 C1655 1.368 1_556 S
C1674 C1668 1.368 . S
C1674 C1673 1.523 . S
C1675 C1659 1.429 1_556 S
C1675 C1671 1.429 . S
C1675 C1676 1.523 . S
C1676 C1660 1.368 . S
C1676 C1672 1.368 1_556 S
C1676 C1675 1.523 . S
H1677 C1652 0.950 . S
H1678 C1654 0.950 . S
H1679 C1655 0.949 . S
H1680 C1657 0.950 . S
H1681 C1659 0.950 . S
C1682 C1683 1.349 . S
C1682 C1684 1.327 . S
C1682 H1707 0.950 . S
C1683 C1682 1.349 . S
C1683 C1699 1.349 . S
C1684 C1682 1.327 . S
C1684 C1703 1.429 . S
C1684 H1708 0.950 . S
C1685 C1702 1.574 . S
C1685 C1704 1.368 . S
C1685 H1709 0.949 . S
H1686 C1690 0.949 . S
C1687 C1688 1.349 . S
C1687 C1689 1.327 . S
C1687 H1710 0.950 . S
C1688 C1687 1.349 . S
C1688 C1700 1.349 . S
C1689 C1687 1.327 . S
C1689 C1705 1.429 . S
C1689 H1711 0.950 . S
C1690 H1686 0.949 . S
C1690 C1698 1.574 . S
C1690 C1706 1.368 . S
H1691 C1699 0.950 . S
H1692 C1697 0.950 . S
H1693 C1698 0.949 . S
H1694 C1700 0.950 . S
H1695 C1701 0.950 . S
H1696 C1702 0.949 . S
C1697 H1692 0.950 . S
C1697 C1699 1.327 . S
C1697 C1703 1.429 . S
C1698 C1690 1.574 . S
C1698 H1693 0.949 . S
C1698 C1704 1.368 . S
C1699 C1683 1.349 . S
C1699 H1691 0.950 . S
C1699 C1697 1.327 . S
C1700 C1688 1.349 . S
C1700 H1694 0.950 . S
C1700 C1701 1.327 . S
C1701 H1695 0.950 . S
C1701 C1700 1.327 . S
C1701 C1705 1.429 . S
C1702 C1685 1.574 . S
C1702 H1696 0.949 . S
C1702 C1706 1.368 . S
C1703 C1684 1.429 . S
C1703 C1697 1.429 . S
C1703 C1704 1.523 . S
C1704 C1685 1.368 . S
C1704 C1698 1.368 . S
C1704 C1703 1.523 . S
C1705 C1689 1.429 . S
C1705 C1701 1.429 . S
C1705 C1706 1.523 . S
C1706 C1690 1.368 . S
C1706 C1702 1.368 . S
C1706 C1705 1.523 . S
H1707 C1682 0.950 . S
H1708 C1684 0.950 . S
H1709 C1685 0.949 . S
H1710 C1687 0.950 . S
H1711 C1689 0.950 . S
C1712 C1713 1.349 . S
C1712 C1714 1.327 . S
C1712 H1737 0.950 . S
C1713 C1712 1.349 . S
C1713 C1729 1.349 . S
C1714 C1712 1.327 . S
C1714 C1733 1.429 . S
C1714 H1738 0.950 . S
C1715 C1732 1.561 1_554 S
C1715 C1734 1.422 . S
C1715 H1739 0.913 1_554 S
H1716 C1720 0.949 . S
C1717 C1718 1.349 1_556 S
C1717 C1719 1.327 . S
C1717 H1740 0.950 . S
C1718 C1717 1.349 1_554 S
C1718 C1730 1.349 . S
C1719 C1717 1.327 . S
C1719 C1735 1.429 1_556 S
C1719 H1741 0.950 . S
C1720 H1716 0.949 . S
C1720 C1728 1.574 . S
C1720 C1736 1.368 . S
H1721 C1729 0.976 . S
H1722 C1727 0.950 1_556 S
H1723 C1728 0.949 . S
H1724 C1730 0.950 . S
H1725 C1731 0.950 . S
H1726 C1732 0.949 . S
C1727 H1722 0.950 1_554 S
C1727 C1729 1.327 . S
C1727 C1733 1.429 . S
C1728 C1720 1.574 . S
C1728 H1723 0.949 . S
C1728 C1734 1.368 . S
C1729 C1713 1.349 . S
C1729 H1721 0.976 . S
C1729 C1727 1.327 . S
C1730 C1718 1.349 . S
C1730 H1724 0.950 . S
C1730 C1731 1.327 . S
C1731 H1725 0.950 . S
C1731 C1730 1.327 . S
C1731 C1735 1.429 . S
C1732 C1715 1.561 1_556 S
C1732 H1726 0.949 . S
C1732 C1736 1.368 1_556 S
C1733 C1714 1.429 . S
C1733 C1727 1.429 . S
C1733 C1734 1.523 . S
C1734 C1715 1.422 . S
C1734 C1728 1.368 . S
C1734 C1733 1.523 . S
C1735 C1719 1.429 1_554 S
C1735 C1731 1.429 . S
C1735 C1736 1.523 . S
C1736 C1720 1.368 . S
C1736 C1732 1.368 1_554 S
C1736 C1735 1.523 . S
H1737 C1712 0.950 . S
H1738 C1714 0.950 . S
H1739 C1715 0.913 1_556 S
H1740 C1717 0.950 . S
H1741 C1719 0.950 . S
C1742 C1743 1.349 . S
C1742 C1744 1.327 . S
C1742 H1767 0.950 . S
C1743 C1742 1.349 . S
C1743 C1759 1.349 . S
C1744 C1742 1.327 . S
C1744 C1763 1.429 . S
C1744 H1768 0.950 . S
C1745 C1762 1.574 1_545 S
C1745 C1764 1.368 1_545 S
C1745 H1769 0.949 . S
H1746 C1750 0.949 . S
C1747 C1748 1.349 . S
C1747 C1749 1.327 . S
C1747 H1770 0.950 . S
C1748 C1747 1.349 . S
C1748 C1760 1.349 . S
C1749 C1747 1.327 . S
C1749 C1765 1.429 . S
C1749 H1771 0.950 . S
C1750 H1746 0.949 . S
C1750 C1758 1.574 . S
C1750 C1766 1.368 . S
H1751 C1759 0.950 . S
H1752 C1757 0.950 . S
H1753 C1758 0.949 . S
H1754 C1760 0.950 . S
H1755 C1761 0.950 . S
H1756 C1762 0.949 . S
C1757 H1752 0.950 . S
C1757 C1759 1.327 . S
C1757 C1763 1.429 . S
C1758 C1750 1.574 . S
C1758 H1753 0.949 . S
C1758 C1764 1.368 . S
C1759 C1743 1.349 . S
C1759 H1751 0.950 . S
C1759 C1757 1.327 . S
C1760 C1748 1.349 . S
C1760 H1754 0.950 . S
C1760 C1761 1.327 . S
C1761 H1755 0.950 . S
C1761 C1760 1.327 . S
C1761 C1765 1.429 . S
C1762 C1745 1.574 1_565 S
C1762 H1756 0.949 . S
C1762 C1766 1.368 . S
C1763 C1744 1.429 . S
C1763 C1757 1.429 . S
C1763 C1764 1.523 1_545 S
C1764 C1745 1.368 1_565 S
C1764 C1758 1.368 . S
C1764 C1763 1.523 1_565 S
C1765 C1749 1.429 . S
C1765 C1761 1.429 . S
C1765 C1766 1.523 . S
C1766 C1750 1.368 . S
C1766 C1762 1.368 . S
C1766 C1765 1.523 . S
H1767 C1742 0.950 . S
H1768 C1744 0.950 . S
H1769 C1745 0.949 . S
H1770 C1747 0.950 . S
H1771 C1749 0.950 . S
C338 C186 1.507 1_556 S
C333 C60 1.521 . S
C368 C199 1.379 . S
C363 C76 1.382 . S
C393 C81 1.631 . S
C398 C212 1.610 . S
C428 C225 1.608 . S
C423 C48 1.642 . S
C458 C233 1.465 . S
C453 C115 1.478 . S
C488 C246 1.544 . S
C483 C136 1.560 . S
C513 C131 1.350 . S
C518 C259 1.309 . S
C548 C272 1.486 . S
C543 C104 1.506 . S
C573 C126 1.428 . S
C578 C290 1.404 . S
C608 C301 1.405 . S
C603 C103 1.443 . S
C633 C120 1.360 . S
C638 C285 1.334 . S
C668 C293 1.398 . S
C663 C142 1.410 . S
C693 C82 1.452 . S
C698 C316 1.444 . S
C723 C54 1.848 . S
C728 C306 1.820 . S
C753 C65 1.439 . S
C758 C311 1.424 . S
C783 C71 1.291 . S
C788 C314 1.277 . S
C813 C37 1.525 . S
C818 C223 1.510 1_565 S
C843 C158 1.965 . S
C848 C215 1.958 . S
C878 C184 1.439 . S
C873 C169 1.453 . S
C908 C189 1.173 . S
C903 C98 1.197 . S
C933 C49 1.784 1_545 S
C938 C236 1.753 . S
C968 C275 1.429 . S
C963 C125 1.464 . S
C998 C228 1.354 . S
C993 C109 1.361 . S
C1028 C254 1.756 . S
C1023 C137 1.801 . S
C1058 C264 1.507 . S
C1053 C159 1.521 . S
C1083 C175 1.383 . S
C1088 C277 1.379 . S
C1113 C92 1.631 . S
C1118 C238 1.610 . S
C1148 C251 1.608 . S
C1143 C147 1.642 . S
C1173 C38 1.478 . S
C1178 C207 1.465 . S
C1208 C220 1.544 . S
C1203 C4 1.560 . S
C1238 C181 1.309 . S
C1233 C21 1.350 . S
C1268 C194 1.487 . S
C1263 C27 1.506 . S
C1293 C16 1.428 . S
C1298 C303 1.404 . S
C1323 C26 1.443 . S
C1328 C288 1.405 . S
C1353 C43 1.360 . S
C1358 C298 1.334 . S
C1383 C10 1.409 . S
C1388 C280 1.398 . S
C1418 C329 1.444 . S
C1413 C93 1.451 . S
C1448 C319 1.820 . S
C1443 C153 1.848 . S
C1478 C324 1.424 . S
C1473 C164 1.439 . S
C1503 C170 1.291 . S
C1508 C327 1.278 . S
C1533 C114 1.525 . S
C1538 C249 1.510 . S
C1568 C241 1.958 . S
C1563 C59 1.965 . S
C1598 C262 1.439 . S
C1593 C70 1.453 . S
C1628 C267 1.173 . S
C1623 C87 1.197 . S
C1653 C148 1.784 . S
C1658 C210 1.755 . S
C1688 C197 1.429 . S
C1683 C15 1.464 . S
C1713 C32 1.361 . S
C1718 C202 1.356 1_554 S
C1748 C176 1.756 . S
C1743 C5 1.801 . S
