# Generated by pormake.
# Topology pyr, (3,6)-cn, num edge types: 1
# Building blocks:
#     Node 0, Type 0, BuildingBlock: ESEHIV_clean_linker_0, # of connection points: 3
#     Node 1, Type 0, BuildingBlock: ESEHIV_clean_linker_0, # of connection points: 3
#     Node 2, Type 0, BuildingBlock: ESEHIV_clean_linker_0, # of connection points: 3
#     Node 3, Type 0, BuildingBlock: ESEHIV_clean_linker_0, # of connection points: 3
#     Node 4, Type 0, BuildingBlock: ESEHIV_clean_linker_0, # of connection points: 3
#     Node 5, Type 0, BuildingBlock: ESEHIV_clean_linker_0, # of connection points: 3
#     Node 6, Type 0, BuildingBlock: ESEHIV_clean_linker_0, # of connection points: 3
#     Node 7, Type 0, BuildingBlock: ESEHIV_clean_linker_0, # of connection points: 3
#     Node 8, Type 1, BuildingBlock: INOVEN_clean_sbu_0, # of connection points: 6
#     Node 9, Type 1, BuildingBlock: INOVEN_clean_sbu_0, # of connection points: 6
#     Node 10, Type 1, BuildingBlock: INOVEN_clean_sbu_0, # of connection points: 6
#     Node 11, Type 1, BuildingBlock: INOVEN_clean_sbu_0, # of connection points: 6
#     Edge 12, Type (0, 1), BuildingBlock: XUDNAN_clean_linker_2, # of connection points: 2
#     Edge 13, Type (0, 1), BuildingBlock: XUDNAN_clean_linker_2, # of connection points: 2
#     Edge 14, Type (0, 1), BuildingBlock: XUDNAN_clean_linker_2, # of connection points: 2
#     Edge 15, Type (0, 1), BuildingBlock: XUDNAN_clean_linker_2, # of connection points: 2
#     Edge 16, Type (0, 1), BuildingBlock: XUDNAN_clean_linker_2, # of connection points: 2
#     Edge 17, Type (0, 1), BuildingBlock: XUDNAN_clean_linker_2, # of connection points: 2
#     Edge 18, Type (0, 1), BuildingBlock: XUDNAN_clean_linker_2, # of connection points: 2
#     Edge 19, Type (0, 1), BuildingBlock: XUDNAN_clean_linker_2, # of connection points: 2
#     Edge 20, Type (0, 1), BuildingBlock: XUDNAN_clean_linker_2, # of connection points: 2
#     Edge 21, Type (0, 1), BuildingBlock: XUDNAN_clean_linker_2, # of connection points: 2
#     Edge 22, Type (0, 1), BuildingBlock: XUDNAN_clean_linker_2, # of connection points: 2
#     Edge 23, Type (0, 1), BuildingBlock: XUDNAN_clean_linker_2, # of connection points: 2
#     Edge 24, Type (0, 1), BuildingBlock: XUDNAN_clean_linker_2, # of connection points: 2
#     Edge 25, Type (0, 1), BuildingBlock: XUDNAN_clean_linker_2, # of connection points: 2
#     Edge 26, Type (0, 1), BuildingBlock: XUDNAN_clean_linker_2, # of connection points: 2
#     Edge 27, Type (0, 1), BuildingBlock: XUDNAN_clean_linker_2, # of connection points: 2
#     Edge 28, Type (0, 1), BuildingBlock: XUDNAN_clean_linker_2, # of connection points: 2
#     Edge 29, Type (0, 1), BuildingBlock: XUDNAN_clean_linker_2, # of connection points: 2
#     Edge 30, Type (0, 1), BuildingBlock: XUDNAN_clean_linker_2, # of connection points: 2
#     Edge 31, Type (0, 1), BuildingBlock: XUDNAN_clean_linker_2, # of connection points: 2
#     Edge 32, Type (0, 1), BuildingBlock: XUDNAN_clean_linker_2, # of connection points: 2
#     Edge 33, Type (0, 1), BuildingBlock: XUDNAN_clean_linker_2, # of connection points: 2
#     Edge 34, Type (0, 1), BuildingBlock: XUDNAN_clean_linker_2, # of connection points: 2
#     Edge 35, Type (0, 1), BuildingBlock: XUDNAN_clean_linker_2, # of connection points: 2
# Relax obj value: 0.132
# Max RMSD: 0.141
# Mean RMSD: 0.064
data_MOF--net-pyr--node1-INOVEN_clean_sbu_0--node2-ESEHIV_clean_linker_0--edge1-XUDNAN_clean_linker_2
_symmetry_space_group_name_H-M    P1
_symmetry_Int_Tables_number       1
_symmetry_cell_setting            triclinic
loop_
_symmetry_equiv_pos_as_xyz
'x, y, z'
_cell_length_a     35.940475
_cell_length_b     38.720775
_cell_length_c     35.586197
_cell_angle_alpha  91.860329
_cell_angle_beta   88.799821
_cell_angle_gamma 100.93054
loop_
_atom_site_label
_atom_site_type_symbol
_atom_site_fract_x
_atom_site_fract_y
_atom_site_fract_z
_atom_type_partial_charge
H0 H 0.3302 0.322 0.26852 0.0
H1 H 0.41061 0.25459 0.26794 0.0
H2 H 0.38509 0.29975 0.16478 0.0
C3 C 0.35327 0.31223 0.25415 0.0
C4 C 0.35758 0.31609 0.21513 0.0
C5 C 0.36924 0.28703 0.27172 0.0
C6 C 0.39888 0.27419 0.25345 0.0
C7 C 0.40524 0.278 0.21444 0.0
C8 C 0.38369 0.29888 0.19516 0.0
H9 H 0.20672 0.89124 0.65587 0.0
H10 H 0.28824 0.82739 0.67553 0.0
H11 H 0.20603 0.7962 0.58882 0.0
C12 C 0.21736 0.86712 0.65017 0.0
C13 C 0.20222 0.84356 0.62109 0.0
C14 C 0.24803 0.8609 0.66987 0.0
C15 C 0.26269 0.83078 0.6615 0.0
C16 C 0.24722 0.80682 0.63308 0.0
C17 C 0.21686 0.81335 0.61239 0.0
H18 H 0.7026 0.33123 0.89205 0.0
H19 H 0.69892 0.41422 0.81474 0.0
H20 H 0.60846 0.32297 0.81648 0.0
C21 C 0.68836 0.34217 0.87012 0.0
C22 C 0.65353 0.32201 0.85648 0.0
C23 C 0.70581 0.3754 0.85595 0.0
C24 C 0.68682 0.38878 0.8258 0.0
C25 C 0.65149 0.37076 0.81048 0.0
C26 C 0.63511 0.33739 0.82711 0.0
H27 H 0.82619 0.72313 0.3959 0.0
H28 H 0.9234 0.72206 0.32532 0.0
H29 H 0.83307 0.62958 0.32966 0.0
C30 C 0.84232 0.70832 0.37772 0.0
C31 C 0.82684 0.6725 0.36901 0.0
C32 C 0.87873 0.72564 0.36622 0.0
C33 C 0.8962 0.70881 0.33604 0.0
C34 C 0.87906 0.67465 0.32002 0.0
C35 C 0.84523 0.65616 0.33882 0.0
H36 H 0.61426 0.80521 0.79186 0.0
H37 H 0.69964 0.74317 0.77766 0.0
H38 H 0.66018 0.76562 0.8891 0.0
C39 C 0.63165 0.78856 0.80399 0.0
C40 C 0.63147 0.78503 0.84324 0.0
C41 C 0.65977 0.77784 0.78123 0.0
C42 C 0.6799 0.754 0.7958 0.0
C43 C 0.68182 0.75035 0.83486 0.0
C44 C 0.65756 0.76632 0.85889 0.0
H45 H 0.74274 0.23369 0.39721 0.0
H46 H 0.84775 0.20128 0.37227 0.0
H47 H 0.83294 0.25759 0.47532 0.0
C48 C 0.77262 0.23579 0.40267 0.0
C49 C 0.78776 0.25359 0.43556 0.0
C50 C 0.79439 0.2183 0.3785 0.0
C51 C 0.83136 0.21716 0.38893 0.0
C52 C 0.84209 0.22651 0.42613 0.0
C53 C 0.82309 0.24879 0.44742 0.0
H54 H 0.33596 0.72705 0.15671 0.0
H55 H 0.33368 0.64567 0.23681 0.0
H56 H 0.42332 0.73867 0.23998 0.0
C57 C 0.34826 0.71742 0.18091 0.0
C58 C 0.38202 0.73787 0.19603 0.0
C59 C 0.33011 0.68448 0.19495 0.0
C60 C 0.34695 0.67108 0.22636 0.0
C61 C 0.38068 0.69006 0.24429 0.0
C62 C 0.39738 0.72384 0.22828 0.0
H63 H 0.11063 0.34335 0.73395 0.0
H64 H 0.20013 0.34604 0.65055 0.0
H65 H 0.2027 0.43311 0.72967 0.0
C66 C 0.13781 0.35599 0.72259 0.0
C67 C 0.15554 0.38972 0.73822 0.0
C68 C 0.15378 0.33941 0.69098 0.0
C69 C 0.18838 0.3575 0.67521 0.0
C70 C 0.20683 0.39109 0.68885 0.0
C71 C 0.18977 0.40682 0.72008 0.0
Gd72 Gd 0.03443 0.04298 0.49329 0.0
Gd73 Gd 0.99851 1.02171 0.56996 0.0
C74 C 0.04488 0.10247 0.56502 0.0
C75 C 0.0571 0.07783 0.43463 0.0
C76 C 0.09002 0.10639 0.42947 0.0
C77 C 0.12628 0.10255 0.44071 0.0
C78 C 0.08551 0.13769 0.41293 0.0
C79 C 0.1537 0.15766 0.41212 0.0
C80 C 0.11727 0.16324 0.40422 0.0
C81 C 0.15789 0.128 0.43198 0.0
C82 C 0.08074 1.01896 0.53961 0.0
C83 C 0.98695 0.96228 0.49629 0.0
C84 C 0.96955 0.99193 0.62997 0.0
C85 C 0.93722 0.96266 0.6337 0.0
C86 C 0.90429 0.96185 0.61279 0.0
C87 C 0.93877 0.93554 0.65842 0.0
C88 C 0.87248 0.91144 0.64708 0.0
C89 C 0.90644 0.90993 0.66511 0.0
C90 C 0.87209 0.93648 0.61961 0.0
C91 C 0.95486 0.04669 0.52299 0.0
O92 O 0.04398 0.09585 0.52792 0.0
O93 O 0.03309 0.07612 0.58829 0.0
O94 O 0.06478 0.04663 0.44023 0.0
O95 O 0.02982 0.08546 0.45646 0.0
O96 O 0.08307 1.01607 0.50336 0.0
O97 O 0.05645 0.03697 0.54913 0.0
O98 O 0.98319 0.96973 0.53317 0.0
O99 O 1.00338 0.98772 0.47362 0.0
O100 O 0.96149 1.0214 0.61851 0.0
O101 O 0.9999 0.98409 0.61387 0.0
O102 O 0.95581 0.0547 0.55853 0.0
O103 O 0.97673 1.02639 0.51397 0.0
H104 H 0.13055 0.07906 0.45442 0.0
H105 H 0.05768 0.1415 0.40494 0.0
H106 H 0.11365 0.18572 0.38831 0.0
H107 H 0.18588 0.12295 0.43759 0.0
H108 H 0.9027 0.9819 0.59265 0.0
H109 H 0.9643 0.93525 0.67397 0.0
H110 H 0.90706 0.89094 0.68667 0.0
H111 H 0.84595 0.93822 0.60576 0.0
Gd112 Gd 0.54406 0.03167 0.04467 0.0
Gd113 Gd 0.48395 0.0336 1.00591 0.0
C114 C 0.48465 0.07585 0.0818 0.0
C115 C 0.60658 0.05904 0.07543 0.0
C116 C 0.61283 0.07264 0.11387 0.0
C117 C 0.59671 0.05276 0.14446 0.0
C118 C 0.63202 0.10731 0.1199 0.0
C119 C 0.62604 0.09938 0.18694 0.0
C120 C 0.63837 0.12077 0.15636 0.0
C121 C 0.60352 0.06604 0.18094 0.0
C122 C 0.4956 0.97477 0.0764 0.0
C123 C 0.54123 0.98306 0.97357 0.0
C124 C 0.42552 1.02116 0.96334 0.0
C125 C 0.41881 1.00137 0.92788 0.0
C126 C 0.40798 1.01864 0.89729 0.0
C127 C 0.42826 0.96792 0.92265 0.0
C128 C 0.41677 0.96981 0.856 0.0
C129 C 0.42703 0.9521 0.88681 0.0
C130 C 0.40707 1.00309 0.86166 0.0
C131 C 0.53712 0.09284 0.98854 0.0
O132 O 0.51884 0.06898 0.08269 0.0
O133 O 0.46172 0.06118 0.05539 0.0
O134 O 0.59607 1.02489 0.07056 0.0
O135 O 0.5873 0.07719 0.05575 0.0
O136 O 0.52959 0.98818 0.087 0.0
O137 O 0.48664 0.99309 0.04946 0.0
O138 O 0.5089 0.99388 0.96943 0.0
O139 O 0.56331 0.99599 1.00131 0.0
O140 O 0.45181 0.04911 0.96114 0.0
O141 O 0.42804 1.00345 0.99338 0.0
O142 O 0.50281 0.09284 1.00025 0.0
O143 O 0.54284 0.061 0.99036 0.0
H144 H 0.58008 1.02655 0.14034 0.0
H145 H 0.6431 0.12352 0.09645 0.0
H146 H 0.65585 0.14662 0.16056 0.0
H147 H 0.59367 0.04939 0.2044 0.0
H148 H 0.40092 0.04456 0.90088 0.0
H149 H 0.43717 0.95431 0.94598 0.0
H150 H 0.4338 0.92608 0.88316 0.0
H151 H 0.39748 1.01673 0.83872 0.0
Gd152 Gd 0.5149 0.49781 0.50179 0.0
Gd153 Gd 0.51512 0.56023 0.55207 0.0
C154 C 0.54616 0.49492 0.59109 0.0
C155 C 0.54096 0.45206 0.46148 0.0
C156 C 0.55788 0.42387 0.47641 0.0
C157 C 0.53782 0.3891 0.47489 0.0
C158 C 0.59201 0.43203 0.49634 0.0
C159 C 0.58738 0.37067 0.50986 0.0
C160 C 0.60649 0.40564 0.51311 0.0
C161 C 0.55245 0.36265 0.49162 0.0
C162 C 0.449 0.48387 0.54506 0.0
C163 C 0.48379 0.56446 0.46394 0.0
C164 C 0.48476 0.60553 0.58799 0.0
C165 C 0.47373 0.63651 0.57192 0.0
C166 C 0.49915 0.66885 0.57106 0.0
C167 C 0.43793 0.63352 0.55556 0.0
C168 C 0.44921 0.69641 0.54853 0.0
C169 C 0.42615 0.66321 0.54298 0.0
C170 C 0.48707 0.69866 0.55883 0.0
C171 C 0.58243 0.57611 0.51245 0.0
O172 O 0.54328 0.48021 0.55618 0.0
O173 O 0.53511 0.52577 0.59667 0.0
O174 O 0.50462 0.44947 0.468 0.0
O175 O 0.56014 0.48394 0.46721 0.0
O176 O 0.45814 0.46281 0.51893 0.0
O177 O 0.47523 0.51092 0.54537 0.0
O178 O 0.49152 0.57968 0.49782 0.0
O179 O 0.49007 0.53166 0.45815 0.0
O180 O 0.52118 0.60566 0.59026 0.0
O181 O 0.4651 0.57534 0.57613 0.0
O182 O 0.5708 0.59494 0.53938 0.0
O183 O 0.55773 0.54752 0.50859 0.0
H184 H 0.51116 0.38232 0.46029 0.0
H185 H 0.60798 0.4587 0.49858 0.0
H186 H 0.63419 0.41215 0.52586 0.0
H187 H 0.53802 0.33556 0.4879 0.0
H188 H 0.52747 0.67163 0.58205 0.0
H189 H 0.41804 0.6087 0.5545 0.0
H190 H 0.39681 0.6608 0.53493 0.0
H191 H 0.5053 0.72413 0.56303 0.0
Gd192 Gd 0.02052 0.49893 0.04999 0.0
Gd193 Gd 1.0125 0.5653 1.00739 0.0
C194 C 0.08714 0.57219 0.06049 0.0
C195 C 0.05446 0.44841 0.06751 0.0
C196 C 0.08726 0.44357 0.09061 0.0
C197 C 0.08248 0.43419 0.12848 0.0
C198 C 0.12345 0.44542 0.07373 0.0
C199 C 0.14768 0.42418 0.1303 0.0
C200 C 0.15329 0.43603 0.09337 0.0
C201 C 0.11235 0.42473 0.14809 0.0
C202 C 0.98815 0.5437 0.0995 0.0
C203 C 0.94779 0.49157 0.99323 0.0
C204 C 0.97705 0.6156 0.99346 0.0
C205 C 0.94456 0.62073 0.97047 0.0
C206 C 0.94437 0.61632 0.93112 0.0
C207 C 0.91288 0.63052 0.98869 0.0
C208 C 0.88322 0.63529 0.9286 0.0
C209 C 0.88256 0.63762 0.96808 0.0
C210 C 0.91401 0.6235 0.91044 0.0
C211 C 0.04413 0.52272 0.95578 0.0
O212 O 0.07482 0.53823 0.06715 0.0
O213 O 0.06786 0.58919 0.03799 0.0
O214 O 0.02308 0.45369 0.0844 0.0
O215 O 0.06285 0.46734 0.0377 0.0
O216 O 0.99316 0.51226 0.10719 0.0
O217 O 0.99919 0.54755 0.06513 0.0
O218 O 0.96064 0.52549 0.98709 0.0
O219 O 0.96593 0.47445 1.01693 0.0
O220 O 1.00917 0.61239 0.97662 0.0
O221 O 0.96817 0.59427 1.02133 0.0
O222 O 0.03768 0.55416 0.95038 0.0
O223 O 0.0349 0.51603 0.99056 0.0
H224 H 0.05524 0.43272 0.14254 0.0
H225 H 0.12833 0.45256 0.04462 0.0
H226 H 0.17994 0.4357 0.07869 0.0
H227 H 0.10722 0.41618 0.17673 0.0
H228 H 0.96795 0.60808 0.91625 0.0
H229 H 0.91204 0.63369 1.01904 0.0
H230 H 0.85962 0.64682 0.98309 0.0
H231 H 0.91518 0.62079 0.88007 0.0
H232 H 0.33451 0.29804 0.34111 0.0
H233 H 0.34118 0.22038 0.25138 0.0
H234 H 0.28728 0.18097 0.27853 0.0
H235 H 0.30592 0.23052 0.41554 0.0
H236 H 0.27444 0.25549 0.43924 0.0
H237 H 0.31597 0.2779 0.41466 0.0
H238 H 0.27367 0.31004 0.37576 0.0
H239 H 0.23197 0.28729 0.39974 0.0
H240 H 0.23523 0.28465 0.34914 0.0
H241 H 0.23037 0.15277 0.30819 0.0
H242 H 0.17524 0.13035 0.34826 0.0
H243 H 0.20336 0.22175 0.42343 0.0
C244 C 0.32529 0.27221 0.32819 0.0
C245 C 0.34283 0.26192 0.29472 0.0
C246 C 0.32927 0.22838 0.27774 0.0
C247 C 0.29823 0.20589 0.29262 0.0
C248 C 0.28113 0.21689 0.32489 0.0
C249 C 0.29438 0.24864 0.34333 0.0
C250 C 0.2698 0.25297 0.37792 0.0
C251 C 0.29291 0.25429 0.41398 0.0
C252 C 0.25159 0.28568 0.37546 0.0
C253 C 0.2403 0.21917 0.37482 0.0
C254 C 0.24769 0.19922 0.34364 0.0
C255 C 0.22452 0.16762 0.33318 0.0
C256 C 0.19332 0.1552 0.35592 0.0
C257 C 0.1857 0.17422 0.38874 0.0
C258 C 0.20906 0.20684 0.39839 0.0
H259 H 0.26131 0.8513 0.74195 0.0
H260 H 0.28461 0.9272 0.65373 0.0
H261 H 0.34012 0.95941 0.68886 0.0
H262 H 0.29161 0.90867 0.82274 0.0
H263 H 0.3113 0.87454 0.84386 0.0
H264 H 0.27179 0.86299 0.81287 0.0
H265 H 0.31171 0.82481 0.77353 0.0
H266 H 0.35235 0.83893 0.80288 0.0
H267 H 0.35626 0.84549 0.75293 0.0
H268 H 0.39606 0.979 0.73088 0.0
H269 H 0.4362 0.9961 0.78637 0.0
H270 H 0.377 0.90417 0.84377 0.0
C271 C 0.27719 0.87561 0.73098 0.0
C272 C 0.26908 0.88713 0.69567 0.0
C273 C 0.2905 0.9185 0.68125 0.0
C274 C 0.32242 0.93634 0.70049 0.0
C275 C 0.33205 0.92194 0.7335 0.0
C276 C 0.30937 0.89295 0.74914 0.0
C277 C 0.32607 0.88187 0.78414 0.0
C278 C 0.29859 0.88209 0.8179 0.0
C279 C 0.33725 0.84563 0.778 0.0
C280 C 0.36066 0.91059 0.78734 0.0
C281 C 0.36449 0.93262 0.75706 0.0
C282 C 0.39324 0.96212 0.75483 0.0
C283 C 0.41608 0.97142 0.78622 0.0
C284 C 0.40878 0.95181 0.81935 0.0
C285 C 0.38324 0.91945 0.81868 0.0
H286 H 0.66851 0.38555 0.7313 0.0
H287 H 0.58643 0.39879 0.81878 0.0
H288 H 0.55362 0.43061 0.77465 0.0
H289 H 0.67137 0.47014 0.68575 0.0
H290 H 0.6742 0.45308 0.63826 0.0
H291 H 0.69235 0.43191 0.6764 0.0
H292 H 0.64965 0.37294 0.65725 0.0
H293 H 0.63193 0.39436 0.61904 0.0
H294 H 0.59935 0.37078 0.65278 0.0
H295 H 0.52995 0.46535 0.72011 0.0
H296 H 0.5148 0.49257 0.66208 0.0
H297 H 0.60633 0.454 0.60347 0.0
C298 C 0.64342 0.39485 0.74129 0.0
C299 C 0.63059 0.38871 0.77992 0.0
C300 C 0.59744 0.40211 0.7903 0.0
C301 C 0.57843 0.42066 0.76497 0.0
C302 C 0.59157 0.42608 0.72765 0.0
C303 C 0.62314 0.41301 0.71555 0.0
C304 C 0.63041 0.42181 0.67332 0.0
C305 C 0.66941 0.44564 0.66812 0.0
C306 C 0.62768 0.3879 0.64919 0.0
C307 C 0.59821 0.44163 0.66346 0.0
C308 C 0.57666 0.44422 0.69578 0.0
C309 C 0.54662 0.4627 0.69487 0.0
C310 C 0.53807 0.47841 0.6611 0.0
C311 C 0.55823 0.47588 0.62645 0.0
C312 C 0.58914 0.45662 0.62835 0.0
H313 H 0.88476 0.60338 0.29576 0.0
H314 H 0.91367 0.71093 0.2589 0.0
H315 H 0.94179 0.69036 0.20065 0.0
H316 H 0.97078 0.576 0.25848 0.0
H317 H 0.94739 0.53239 0.24393 0.0
H318 H 0.92825 0.55507 0.2826 0.0
H319 H 0.86406 0.5468 0.24909 0.0
H320 H 0.88303 0.52418 0.21025 0.0
H321 H 0.86243 0.56216 0.20198 0.0
H322 H 0.96723 0.657 0.1423 0.0
H323 H 0.98985 0.61614 0.09578 0.0
H324 H 0.9488 0.5295 0.169 0.0
C325 C 0.89686 0.6228 0.27554 0.0
C326 C 0.89654 0.65956 0.28357 0.0
C327 C 0.9134 0.68303 0.25519 0.0
C328 C 0.92949 0.67138 0.22125 0.0
C329 C 0.92957 0.6355 0.2145 0.0
C330 C 0.91387 0.61149 0.24115 0.0
C331 C 0.91868 0.57439 0.22713 0.0
C332 C 0.9427 0.55851 0.25468 0.0
C333 C 0.87974 0.55045 0.22181 0.0
C334 C 0.9396 0.58121 0.18888 0.0
C335 C 0.9451 0.61671 0.18189 0.0
C336 C 0.96299 0.62924 0.14804 0.0
C337 C 0.97578 0.60555 0.12125 0.0
C338 C 0.97157 0.56892 0.12755 0.0
C339 C 0.95291 0.55707 0.16243 0.0
H340 H 0.39275 0.24287 0.14456 0.0
H341 H 0.46884 0.25656 0.23948 0.0
H342 H 0.49431 0.20482 0.21745 0.0
H343 H 0.37052 0.1534 0.13567 0.0
H344 H 0.37517 0.14942 0.08524 0.0
H345 H 0.3639 0.189 0.1066 0.0
H346 H 0.42207 0.22654 0.07376 0.0
H347 H 0.43304 0.18711 0.05146 0.0
H348 H 0.46825 0.21574 0.07907 0.0
H349 H 0.50653 0.14776 0.18967 0.0
H350 H 0.51428 0.0957 0.15061 0.0
H351 H 0.43499 0.12089 0.0702 0.0
C352 C 0.41563 0.23589 0.16014 0.0
C353 C 0.4277 0.25354 0.19464 0.0
C354 C 0.45795 0.24306 0.21373 0.0
C355 C 0.47279 0.21362 0.2014 0.0
C356 C 0.45858 0.19562 0.16876 0.0
C357 C 0.43193 0.20716 0.14743 0.0
C358 C 0.42313 0.18376 0.11233 0.0
C359 C 0.38064 0.16796 0.10986 0.0
C360 C 0.43746 0.20451 0.07706 0.0
C361 C 0.44651 0.1557 0.11904 0.0
C362 C 0.46711 0.16343 0.15159 0.0
C363 C 0.49091 0.1417 0.16386 0.0
C364 C 0.4949 0.112 0.14162 0.0
C365 C 0.47495 0.10392 0.10757 0.0
C366 C 0.45 0.1259 0.09648 0.0
H367 H 0.21953 0.89461 0.57296 0.0
H368 H 0.12619 0.82098 0.62082 0.0
H369 H 0.08288 0.86191 0.60905 0.0
H370 H 0.19729 0.96263 0.62476 0.0
H371 H 0.21218 0.99657 0.59119 0.0
H372 H 0.23427 0.95854 0.59085 0.0
H373 H 0.21653 0.94234 0.52101 0.0
H374 H 0.19813 0.98239 0.52021 0.0
H375 H 0.16848 0.94114 0.50659 0.0
H376 H 0.05226 0.91089 0.59231 0.0
H377 H 0.03501 0.96304 0.56739 0.0
H378 H 0.15164 1.01228 0.55333 0.0
C379 C 0.1894 0.88627 0.57837 0.0
C380 C 0.17545 0.85492 0.59696 0.0
C381 C 0.13657 0.84476 0.6056 0.0
C382 C 0.11222 0.86813 0.59987 0.0
C383 C 0.12811 0.90113 0.58641 0.0
C384 C 0.16565 0.91012 0.5754 0.0
C385 C 0.17712 0.94868 0.5674 0.0
C386 C 0.20698 0.9677 0.59521 0.0
C387 C 0.19085 0.95393 0.52636 0.0
C388 C 0.13969 0.95978 0.57418 0.0
C389 C 0.11188 0.93186 0.58512 0.0
C390 C 0.07386 0.93365 0.5862 0.0
C391 C 0.06399 0.96407 0.57348 0.0
C392 C 0.09175 0.99289 0.56271 0.0
C393 C 0.13017 0.99126 0.56408 0.0
H394 H 0.73888 0.37507 0.9292 0.0
H395 H 0.76353 0.42139 0.81975 0.0
H396 H 0.82509 0.45274 0.8428 0.0
H397 H 0.78492 0.45165 0.98515 0.0
H398 H 0.80394 0.42658 1.01928 0.0
H399 H 0.76108 0.4075 0.99498 0.0
H400 H 0.79141 0.35498 0.97258 0.0
H401 H 0.83441 0.37401 0.99672 0.0
H402 H 0.836 0.363 0.94718 0.0
H403 H 0.88548 0.48066 0.87731 0.0
H404 H 0.93818 0.50298 0.9198 0.0
H405 H 0.88006 0.43903 1.00889 0.0
C406 C 0.75708 0.39156 0.90968 0.0
C407 C 0.74454 0.39526 0.8719 0.0
C408 C 0.77047 0.41791 0.84863 0.0
C409 C 0.80628 0.43587 0.86156 0.0
C410 C 0.81736 0.43159 0.89839 0.0
C411 C 0.79354 0.40995 0.92229 0.0
C412 C 0.81291 0.41042 0.96078 0.0
C413 C 0.7893 0.42489 0.9919 0.0
C414 C 0.81904 0.37339 0.96986 0.0
C415 C 0.85123 0.43565 0.95477 0.0
C416 C 0.85276 0.44742 0.91835 0.0
C417 C 0.88428 0.4714 0.90575 0.0
C418 C 0.91447 0.48409 0.93048 0.0
C419 C 0.91455 0.47319 0.96829 0.0
C420 C 0.88202 0.44797 0.9803 0.0
H421 H 0.76308 0.61252 0.35752 0.0
H422 H 0.81421 0.68835 0.4434 0.0
H423 H 0.75877 0.67305 0.48306 0.0
H424 H 0.66456 0.61237 0.37159 0.0
H425 H 0.64755 0.56552 0.37334 0.0
H426 H 0.69077 0.58242 0.34798 0.0
H427 H 0.72685 0.54492 0.38726 0.0
H428 H 0.6836 0.52779 0.41262 0.0
H429 H 0.7251 0.54889 0.43782 0.0
H430 H 0.69679 0.65616 0.51265 0.0
H431 H 0.63529 0.62924 0.53786 0.0
H432 H 0.61995 0.5534 0.44391 0.0
C433 C 0.76274 0.62593 0.38463 0.0
C434 C 0.79314 0.65474 0.39464 0.0
C435 C 0.79112 0.66914 0.43197 0.0
C436 C 0.75947 0.66002 0.45576 0.0
C437 C 0.72962 0.63384 0.44431 0.0
C438 C 0.73134 0.61543 0.41067 0.0
C439 C 0.69609 0.58523 0.40913 0.0
C440 C 0.67339 0.58648 0.37335 0.0
C441 C 0.70864 0.54958 0.41181 0.0
C442 C 0.67307 0.59244 0.44493 0.0
C443 C 0.69408 0.62055 0.46458 0.0
C444 C 0.68042 0.63366 0.49786 0.0
C445 C 0.64478 0.61787 0.51203 0.0
C446 C 0.62155 0.58853 0.49376 0.0
C447 C 0.63642 0.57543 0.4593 0.0
H448 H 0.35214 0.37889 0.18034 0.0
H449 H 0.28851 0.27662 0.21073 0.0
H450 H 0.22893 0.29541 0.19637 0.0
H451 H 0.2866 0.43092 0.21463 0.0
H452 H 0.29147 0.46036 0.17586 0.0
H453 H 0.33026 0.43951 0.18771 0.0
H454 H 0.33223 0.41361 0.11997 0.0
H455 H 0.29393 0.43495 0.10768 0.0
H456 H 0.28964 0.38812 0.09999 0.0
H457 H 0.17657 0.32574 0.18595 0.0
H458 H 0.13216 0.36169 0.16479 0.0
H459 H 0.22678 0.44388 0.13373 0.0
C460 C 0.32569 0.36025 0.18266 0.0
C461 C 0.32486 0.32613 0.19635 0.0
C462 C 0.28969 0.30262 0.19978 0.0
C463 C 0.25568 0.3132 0.19217 0.0
C464 C 0.25711 0.34719 0.18006 0.0
C465 C 0.29103 0.3701 0.17394 0.0
C466 C 0.28364 0.40461 0.15897 0.0
C467 C 0.2989 0.43568 0.18591 0.0
C468 C 0.30088 0.41068 0.11929 0.0
C469 C 0.24038 0.39735 0.1582 0.0
C470 C 0.22605 0.36428 0.17143 0.0
C471 C 0.18731 0.35151 0.17496 0.0
C472 C 0.16225 0.37238 0.16321 0.0
C473 C 0.17574 0.40566 0.14754 0.0
C474 C 0.21553 0.41848 0.14542 0.0
H475 H 0.58018 0.28591 0.8848 0.0
H476 H 0.69563 0.27065 0.86649 0.0
H477 H 0.67975 0.21318 0.89646 0.0
H478 H 0.56644 0.2455 0.97636 0.0
H479 H 0.51789 0.22428 0.96902 0.0
H480 H 0.53737 0.26398 0.94479 0.0
H481 H 0.51877 0.23224 0.88105 0.0
H482 H 0.49914 0.19249 0.90517 0.0
H483 H 0.5349 0.19189 0.86902 0.0
H484 H 0.65092 0.15422 0.93051 0.0
H485 H 0.61296 0.10369 0.96395 0.0
H486 H 0.51585 0.15494 0.96334 0.0
C487 C 0.60212 0.27039 0.88652 0.0
C488 C 0.63975 0.28425 0.87242 0.0
C489 C 0.66684 0.26204 0.87658 0.0
C490 C 0.65796 0.22874 0.89381 0.0
C491 C 0.62127 0.21629 0.90774 0.0
C492 C 0.59365 0.23652 0.90423 0.0
C493 C 0.55651 0.21687 0.92233 0.0
C494 C 0.54379 0.23898 0.95507 0.0
C495 C 0.52547 0.20785 0.89263 0.0
C496 C 0.56755 0.18299 0.93673 0.0
C497 C 0.60509 0.18305 0.92767 0.0
C498 C 0.6215 0.15435 0.93754 0.0
C499 C 0.59951 0.1253 0.95674 0.0
C500 C 0.56087 0.12422 0.96699 0.0
C501 C 0.54515 0.15413 0.9565 0.0
H502 H 0.93021 0.79115 0.34634 0.0
H503 H 0.87057 0.73784 0.44191 0.0
H504 H 0.8892 0.79055 0.48125 0.0
H505 H 1.01036 0.83797 0.40677 0.0
H506 H 0.01846 0.87762 0.38023 0.0
H507 H 1.00001 0.8358 0.35732 0.0
H508 H 0.94272 0.86035 0.33448 0.0
H509 H 0.96096 0.90217 0.35737 0.0
H510 H 0.91367 0.87925 0.36829 0.0
H511 H 0.91158 0.84968 0.51239 0.0
H512 H 0.94096 0.90938 0.53374 0.0
H513 H 0.99234 0.92907 0.42308 0.0
C514 C 0.92118 0.79037 0.37554 0.0
C515 C 0.8968 0.75935 0.38957 0.0
C516 C 0.88717 0.76062 0.42871 0.0
C517 C 0.8981 0.79083 0.452 0.0
C518 C 0.9205 0.8208 0.43725 0.0
C519 C 0.93285 0.82086 0.40018 0.0
C520 C 0.9587 0.85686 0.39305 0.0
C521 C 0.9993 0.85177 0.38376 0.0
C522 C 0.94307 0.87578 0.3614 0.0
C523 C 0.95733 0.87703 0.43118 0.0
C524 C 0.93517 0.85517 0.45614 0.0
C525 C 0.92922 0.86685 0.49301 0.0
C526 C 0.94629 0.90129 0.50503 0.0
C527 C 0.96951 0.92508 0.48074 0.0
C528 C 0.97487 0.91225 0.44288 0.0
H529 H 0.27254 0.79104 0.56253 0.0
H530 H 0.27073 0.7621 0.67957 0.0
H531 H 0.32976 0.73982 0.66913 0.0
H532 H 0.30808 0.70886 0.52865 0.0
H533 H 0.33492 0.73174 0.49056 0.0
H534 H 0.2915 0.74439 0.50683 0.0
H535 H 0.32798 0.80827 0.51699 0.0
H536 H 0.37186 0.79553 0.50237 0.0
H537 H 0.36813 0.81678 0.54773 0.0
H538 H 0.39434 0.73677 0.6513 0.0
H539 H 0.44812 0.71729 0.62008 0.0
H540 H 0.40285 0.73317 0.51098 0.0
C541 C 0.2834 0.77815 0.58533 0.0
C542 C 0.26814 0.77913 0.62218 0.0
C543 C 0.28275 0.76197 0.65138 0.0
C544 C 0.31651 0.74996 0.64594 0.0
C545 C 0.33339 0.7532 0.6105 0.0
C546 C 0.31616 0.7641 0.57992 0.0
C547 C 0.33947 0.76146 0.54425 0.0
C548 C 0.31719 0.73501 0.5159 0.0
C549 C 0.35261 0.79768 0.52683 0.0
C550 C 0.37266 0.74803 0.56022 0.0
C551 C 0.36917 0.7457 0.59881 0.0
C552 C 0.3971 0.73717 0.62097 0.0
C553 C 0.42796 0.72698 0.60292 0.0
C554 C 0.42936 0.72366 0.5632 0.0
C555 C 0.40243 0.73588 0.54137 0.0
H556 H 0.70252 0.76238 0.7183 0.0
H557 H 0.66344 0.84898 0.77865 0.0
H558 H 0.71053 0.89066 0.74604 0.0
H559 H 0.79661 0.79544 0.72761 0.0
H560 H 0.81251 0.78282 0.68169 0.0
H561 H 0.76992 0.7581 0.70225 0.0
H562 H 0.73145 0.76828 0.6443 0.0
H563 H 0.77418 0.79231 0.62302 0.0
H564 H 0.73307 0.81245 0.62894 0.0
H565 H 0.76772 0.9229 0.71938 0.0
H566 H 0.829 0.946 0.68902 0.0
H567 H 0.8359 0.84135 0.64562 0.0
C568 C 0.70296 0.7901 0.72379 0.0
C569 C 0.67861 0.80172 0.75143 0.0
C570 C 0.68043 0.83852 0.75728 0.0
C571 C 0.70777 0.86287 0.73917 0.0
C572 C 0.73302 0.85041 0.71474 0.0
C573 C 0.73058 0.81508 0.70606 0.0
C574 C 0.76375 0.80922 0.68094 0.0
C575 C 0.78707 0.78497 0.69924 0.0
C576 C 0.74978 0.7947 0.64198 0.0
C577 C 0.78587 0.84668 0.67874 0.0
C578 C 0.7671 0.86978 0.69835 0.0
C579 C 0.7822 0.90541 0.70285 0.0
C580 C 0.81695 0.91823 0.68571 0.0
C581 C 0.83631 0.8955 0.66457 0.0
C582 C 0.82102 0.85915 0.66125 0.0
H583 H 0.73807 0.23204 0.33413 0.0
H584 H 0.80564 0.15247 0.35401 0.0
H585 H 0.76577 0.11175 0.31025 0.0
H586 H 0.64933 0.16713 0.33741 0.0
H587 H 0.62682 0.19077 0.3046 0.0
H588 H 0.66254 0.21432 0.33565 0.0
H589 H 0.701 0.24238 0.27811 0.0
H590 H 0.66534 0.21903 0.24715 0.0
H591 H 0.71405 0.21428 0.24066 0.0
H592 H 0.71825 0.07958 0.26606 0.0
H593 H 0.66995 0.05997 0.21806 0.0
H594 H 0.62964 0.15836 0.23226 0.0
C595 C 0.74466 0.20608 0.32944 0.0
C596 C 0.77529 0.19578 0.34747 0.0
C597 C 0.78309 0.16162 0.33993 0.0
C598 C 0.76007 0.13793 0.31574 0.0
C599 C 0.72885 0.14847 0.30045 0.0
C600 C 0.72105 0.18166 0.30705 0.0
C601 C 0.68486 0.18602 0.28854 0.0
C602 C 0.65408 0.18979 0.31832 0.0
C603 C 0.69176 0.21725 0.262 0.0
C604 C 0.67534 0.15103 0.26763 0.0
C605 C 0.70036 0.12934 0.27605 0.0
C606 C 0.6981 0.09599 0.25966 0.0
C607 C 0.67038 0.08497 0.23281 0.0
C608 C 0.64595 0.10754 0.22235 0.0
C609 C 0.64768 0.14056 0.24058 0.0
H610 H 0.38444 0.61854 0.26638 0.0
H611 H 0.41713 0.72701 0.30582 0.0
H612 H 0.44439 0.70698 0.36226 0.0
H613 H 0.36137 0.58007 0.36001 0.0
H614 H 0.3807 0.54106 0.34982 0.0
H615 H 0.36258 0.56308 0.31232 0.0
H616 H 0.42663 0.56845 0.27695 0.0
H617 H 0.44494 0.54646 0.31436 0.0
H618 H 0.46953 0.58917 0.30026 0.0
H619 H 0.46771 0.6749 0.41834 0.0
H620 H 0.48783 0.63606 0.4639 0.0
H621 H 0.44574 0.54566 0.39112 0.0
C622 C 0.39724 0.63834 0.28678 0.0
C623 C 0.39802 0.67531 0.27983 0.0
C624 C 0.41581 0.69905 0.30847 0.0
C625 C 0.43148 0.68766 0.34143 0.0
C626 C 0.4304 0.65168 0.34706 0.0
C627 C 0.41394 0.62722 0.32025 0.0
C628 C 0.41768 0.59005 0.33333 0.0
C629 C 0.37823 0.56719 0.3392 0.0
C630 C 0.44108 0.57247 0.3045 0.0
C631 C 0.43876 0.59735 0.37136 0.0
C632 C 0.44521 0.6333 0.37865 0.0
C633 C 0.4629 0.64687 0.4122 0.0
C634 C 0.47443 0.62405 0.43848 0.0
C635 C 0.4695 0.5868 0.43255 0.0
C636 C 0.45099 0.57363 0.39762 0.0
H637 H 0.15439 0.38948 0.81987 0.0
H638 H 0.11112 0.43798 0.72627 0.0
H639 H 0.0789 0.47318 0.77087 0.0
H640 H 0.07023 0.3862 0.88251 0.0
H641 H 0.09655 0.39736 0.92518 0.0
H642 H 0.11646 0.37512 0.8866 0.0
H643 H 0.17575 0.4244 0.88613 0.0
H644 H 0.15611 0.44676 0.92477 0.0
H645 H 0.17036 0.46945 0.88186 0.0
H646 H 0.05039 0.50405 0.82504 0.0
H647 H 0.02939 0.52998 0.8833 0.0
H648 H 0.08912 0.46529 0.94832 0.0
C649 C 0.13788 0.40733 0.80872 0.0
C650 C 0.13537 0.4101 0.76842 0.0
C651 C 0.11367 0.43453 0.75613 0.0
C652 C 0.09511 0.4549 0.78163 0.0
C653 C 0.09789 0.45149 0.82058 0.0
C654 C 0.11888 0.42844 0.83435 0.0
C655 C 0.11729 0.431 0.87804 0.0
C656 C 0.09906 0.39529 0.89404 0.0
C657 C 0.15726 0.44364 0.89363 0.0
C658 C 0.09199 0.45879 0.88658 0.0
C659 C 0.08144 0.46991 0.85247 0.0
C660 C 0.05867 0.49532 0.85166 0.0
C661 C 0.04668 0.5101 0.88564 0.0
C662 C 0.05663 0.50041 0.9219 0.0
C663 C 0.07986 0.47364 0.92193 0.0
H664 H 0.65397 0.83022 0.90447 0.0
H665 H 0.55849 0.79193 0.83187 0.0
H666 H 0.52786 0.84052 0.85454 0.0
H667 H 0.59345 0.8565 0.98357 0.0
H668 H 0.62902 0.89391 0.99729 0.0
H669 H 0.64296 0.85528 0.97619 0.0
H670 H 0.68122 0.89395 0.92532 0.0
H671 H 0.66665 0.93254 0.94571 0.0
H672 H 0.65757 0.92064 0.8969 0.0
H673 H 0.51133 0.89714 0.87821 0.0
H674 H 0.50153 0.9504 0.91366 0.0
H675 H 0.60313 0.94971 0.97714 0.0
C676 C 0.62599 0.83126 0.89442 0.0
C677 C 0.6089 0.80726 0.86598 0.0
C678 C 0.57239 0.81005 0.85335 0.0
C679 C 0.55484 0.83777 0.86584 0.0
C680 C 0.57335 0.86207 0.89212 0.0
C681 C 0.60736 0.85843 0.90746 0.0
C682 C 0.62015 0.88775 0.93656 0.0
C683 C 0.62147 0.87245 0.97573 0.0
C684 C 0.65868 0.91003 0.92543 0.0
C685 C 0.58845 0.90873 0.93439 0.0
C686 C 0.56217 0.89362 0.90805 0.0
C687 C 0.53117 0.90868 0.89967 0.0
C688 C 0.52581 0.93905 0.91998 0.0
C689 C 0.55085 0.95398 0.94886 0.0
C690 C 0.58314 0.93889 0.95551 0.0
H691 H 0.90998 0.22387 0.45846 0.0
H692 H 0.7961 0.16541 0.43939 0.0
H693 H 0.81579 0.11047 0.45574 0.0
H694 H 0.96259 0.16709 0.42555 0.0
H695 H 0.99618 0.16981 0.46298 0.0
H696 H 0.97367 0.20656 0.45472 0.0
H697 H 0.94703 0.20678 0.52296 0.0
H698 H 0.97171 0.17183 0.5327 0.0
H699 H 0.9216 0.16629 0.54198 0.0
H700 H 0.84946 0.06191 0.46249 0.0
H701 H 0.89043 1.02276 0.48578 0.0
H702 H 0.9801 0.11303 0.50549 0.0
C703 C 0.88926 0.1996 0.45886 0.0
C704 C 0.85237 0.19794 0.44631 0.0
C705 C 0.82503 0.16633 0.44803 0.0
C706 C 0.83583 0.13516 0.45698 0.0
C707 C 0.87344 0.13684 0.4657 0.0
C708 C 0.89913 0.1683 0.46929 0.0
C709 C 0.937 0.16249 0.4821 0.0
C710 C 0.96925 0.17737 0.45466 0.0
C711 C 0.94479 0.17775 0.52229 0.0
C712 C 0.92931 0.1229 0.48153 0.0
C713 C 0.8925 0.10862 0.47181 0.0
C714 C 0.87829 0.07256 0.47066 0.0
C715 C 0.90166 0.05062 0.48322 0.0
C716 C 0.93783 0.06557 0.4967 0.0
C717 C 0.95265 0.10151 0.4942 0.0
H718 H 0.24983 0.67056 0.21029 0.0
H719 H 0.33322 0.65227 0.12608 0.0
H720 H 0.28184 0.62424 0.08376 0.0
H721 H 0.18062 0.58827 0.19171 0.0
H722 H 0.13957 0.60844 0.19805 0.0
H723 H 0.18265 0.62647 0.22251 0.0
H724 H 0.18254 0.68698 0.1941 0.0
H725 H 0.13967 0.66897 0.16927 0.0
H726 H 0.18104 0.69043 0.14379 0.0
H727 H 0.22045 0.59897 0.04817 0.0
H728 H 0.15577 0.57588 1.02497 0.0
H729 H 0.10858 0.60793 0.13051 0.0
C730 C 0.25733 0.65998 0.18326 0.0
C731 C 0.29659 0.66326 0.17235 0.0
C732 C 0.30414 0.64981 0.13593 0.0
C733 C 0.2748 0.6339 0.11137 0.0
C734 C 0.23683 0.63127 0.12269 0.0
C735 C 0.22787 0.64375 0.15796 0.0
C736 C 0.18434 0.63776 0.16255 0.0
C737 C 0.17101 0.61381 0.19569 0.0
C738 C 0.17112 0.67314 0.16775 0.0
C739 C 0.17039 0.61948 0.1249 0.0
C740 C 0.2014 0.61652 0.10221 0.0
C741 C 0.1962 0.60117 0.06599 0.0
C742 C 0.15901 0.58812 0.05281 0.0
C743 C 0.12631 0.58991 0.07527 0.0
C744 C 0.13253 0.6061 0.1121 0.0
H745 H 0.28352 0.38279 0.68621 0.0
H746 H 0.20778 0.44442 0.63984 0.0
H747 H 0.26041 0.4753 0.60011 0.0
H748 H 0.36741 0.45585 0.68788 0.0
H749 H 0.40066 0.4275 0.67645 0.0
H750 H 0.35742 0.41066 0.70184 0.0
H751 H 0.34026 0.36103 0.65122 0.0
H752 H 0.38345 0.37775 0.62581 0.0
H753 H 0.33852 0.37227 0.60258 0.0
H754 H 0.32307 0.50023 0.56394 0.0
H755 H 0.38733 0.51471 0.53492 0.0
H756 H 0.42397 0.43715 0.603 0.0
C757 C 0.27809 0.40306 0.66799 0.0
C758 C 0.24093 0.41127 0.66689 0.0
C759 C 0.2356 0.43782 0.64204 0.0
C760 C 0.26557 0.45552 0.61911 0.0
C761 C 0.30171 0.44707 0.62102 0.0
C762 C 0.30815 0.4215 0.64505 0.0
C763 C 0.34986 0.41766 0.6418 0.0
C764 C 0.37003 0.42854 0.67922 0.0
C765 C 0.3532 0.37993 0.62962 0.0
C766 C 0.36549 0.44388 0.61128 0.0
C767 C 0.33734 0.46106 0.60016 0.0
C768 C 0.34512 0.4869 0.57284 0.0
C769 C 0.38202 0.49524 0.55653 0.0
C770 C 0.41141 0.47776 0.5668 0.0
C771 C 0.40256 0.45151 0.59464 0.0
H772 H 0.68635 0.6998 0.88903 0.0
H773 H 0.75424 0.77135 0.8115 0.0
H774 H 0.8088 0.74379 0.82163 0.0
H775 H 0.76434 0.70479 0.95528 0.0
H776 H 0.75111 0.65955 0.96867 0.0
H777 H 0.71543 0.68285 0.95358 0.0
H778 H 0.69461 0.63419 0.90266 0.0
H779 H 0.73067 0.61104 0.91718 0.0
H780 H 0.72903 0.62336 0.86892 0.0
H781 H 0.85518 0.70829 0.83625 0.0
H782 H 0.89756 0.6757 0.86699 0.0
H783 H 0.80519 0.62951 0.9413 0.0
C784 C 0.71286 0.70982 0.87466 0.0
C785 C 0.71542 0.73696 0.84835 0.0
C786 C 0.75098 0.7498 0.83074 0.0
C787 C 0.78228 0.73427 0.83617 0.0
C788 C 0.7785 0.70662 0.86062 0.0
C789 C 0.74536 0.69518 0.88074 0.0
C790 C 0.75109 0.66709 0.90795 0.0
C791 C 0.74515 0.6793 0.9488 0.0
C792 C 0.72478 0.63183 0.8986 0.0
C793 C 0.79253 0.66506 0.89983 0.0
C794 C 0.80709 0.68749 0.87159 0.0
C795 C 0.84434 0.69072 0.85863 0.0
C796 C 0.86817 0.67172 0.8761 0.0
C797 C 0.85501 0.64994 0.90668 0.0
C798 C 0.81628 0.64605 0.91814 0.0
H799 H 0.41214 0.81067 0.22036 0.0
H800 H 0.3955 0.74321 0.12012 0.0
H801 H 0.41848 0.79427 0.08097 0.0
H802 H 0.384 0.88724 0.17639 0.0
H803 H 0.41827 0.91987 0.20072 0.0
H804 H 0.40012 0.87829 0.22204 0.0
H805 H 0.46823 0.86745 0.22901 0.0
H806 H 0.48659 0.90908 0.20798 0.0
H807 H 0.49909 0.86927 0.18821 0.0
H808 H 0.44079 0.85499 0.04989 0.0
H809 H 0.46719 0.91621 0.03208 0.0
H810 H 0.47638 0.94749 0.14998 0.0
C811 C 0.41381 0.80638 0.19023 0.0
C812 C 0.40128 0.77144 0.17415 0.0
C813 C 0.40405 0.76865 0.13413 0.0
C814 C 0.41727 0.79799 0.11121 0.0
C815 C 0.42848 0.83164 0.1276 0.0
C816 C 0.42734 0.83606 0.16635 0.0
C817 C 0.44133 0.87558 0.17626 0.0
C818 C 0.40903 0.89117 0.19499 0.0
C819 C 0.47588 0.88064 0.2019 0.0
C820 C 0.45198 0.89216 0.13748 0.0
C821 C 0.44305 0.86627 0.10976 0.0
C822 C 0.44809 0.87513 0.07171 0.0
C823 C 0.46303 0.9105 0.06164 0.0
C824 C 0.47427 0.93789 0.08897 0.0
C825 C 0.46841 0.9279 0.12777 0.0
H826 H 0.15092 0.26627 0.70304 0.0
H827 H 0.10985 0.33669 0.62885 0.0
H828 H 0.07955 0.28564 0.5894 0.0
H829 H 0.16963 0.2038 0.62767 0.0
H830 H 0.15565 0.16527 0.65544 0.0
H831 H 0.1746 0.2071 0.67802 0.0
H832 H 0.11467 0.20182 0.72048 0.0
H833 H 0.09565 0.15994 0.69814 0.0
H834 H 0.06862 0.19473 0.69922 0.0
H835 H 0.05618 0.22557 0.55449 0.0
H836 H 0.03678 0.16373 0.53231 0.0
H837 H 0.08674 0.12904 0.63065 0.0
C838 C 0.13498 0.27094 0.67886 0.0
C839 C 0.13243 0.3063 0.6699 0.0
C840 C 0.112 0.31047 0.63713 0.0
C841 C 0.09476 0.28134 0.61423 0.0
C842 C 0.09775 0.24712 0.62371 0.0
C843 C 0.11718 0.24171 0.65549 0.0
C844 C 0.11614 0.20198 0.65898 0.0
C845 C 0.1564 0.19407 0.65481 0.0
C846 C 0.09767 0.18885 0.69645 0.0
C847 C 0.09178 0.18583 0.62544 0.0
C848 C 0.08258 0.21259 0.60479 0.0
C849 C 0.06274 0.20466 0.57114 0.0
C850 C 0.0516 0.16905 0.55865 0.0
C851 C 0.05874 0.14054 0.57985 0.0
C852 C 0.07953 0.14959 0.61391 0.0
H853 H 0.73901 0.29042 0.40864 0.0
H854 H 0.78089 0.26018 0.51395 0.0
H855 H 0.73034 0.28453 0.54829 0.0
H856 H 0.70004 0.36195 0.43275 0.0
H857 H 0.65822 0.34711 0.40514 0.0
H858 H 0.70179 0.33358 0.39182 0.0
H859 H 0.66792 0.26809 0.39387 0.0
H860 H 0.62416 0.28136 0.4079 0.0
H861 H 0.64364 0.25165 0.43633 0.0
H862 H 0.67563 0.31802 0.56859 0.0
H863 H 0.62156 0.34988 0.57194 0.0
H864 H 0.60769 0.33494 0.45178 0.0
C865 C 0.7377 0.28845 0.43896 0.0
C866 C 0.76357 0.27306 0.45841 0.0
C867 C 0.76154 0.27228 0.49827 0.0
C868 C 0.73256 0.28543 0.51794 0.0
C869 C 0.70534 0.29727 0.49695 0.0
C870 C 0.70746 0.2977 0.45821 0.0
C871 C 0.67316 0.30675 0.44088 0.0
C872 C 0.68395 0.33929 0.41627 0.0
C873 C 0.65092 0.27508 0.41843 0.0
C874 C 0.65213 0.31421 0.47604 0.0
C875 C 0.67102 0.30921 0.50837 0.0
C876 C 0.65969 0.32053 0.54368 0.0
C877 C 0.62906 0.33837 0.54546 0.0
C878 C 0.61002 0.34338 0.51228 0.0
C879 C 0.62064 0.32968 0.47771 0.0
loop_
_geom_bond_atom_site_label_1
_geom_bond_atom_site_label_2
_geom_bond_distance
_geom_bond_site_symmetry_2
_ccdc_geom_bond_type
H0 C3 0.931 . S
H1 C6 0.928 . S
H2 C8 0.930 . S
C3 H0 0.931 . S
C3 C4 1.413 . S
C3 C5 1.360 . S
C4 C3 1.413 . S
C4 C8 1.429 . S
C5 C3 1.360 . S
C5 C6 1.372 . S
C6 H1 0.928 . S
C6 C5 1.372 . S
C6 C7 1.404 . S
C7 C6 1.404 . S
C7 C8 1.391 . S
C8 H2 0.930 . S
C8 C4 1.429 . S
C8 C7 1.391 . S
H9 C12 0.931 . S
H10 C15 0.928 . S
H11 C17 0.930 . S
C12 H9 0.931 . S
C12 C13 1.413 . S
C12 C14 1.360 . S
C13 C12 1.413 . S
C13 C17 1.429 . S
C14 C12 1.360 . S
C14 C15 1.372 . S
C15 H10 0.928 . S
C15 C14 1.372 . S
C15 C16 1.404 . S
C16 C15 1.404 . S
C16 C17 1.391 . S
C17 H11 0.930 . S
C17 C13 1.429 . S
C17 C16 1.391 . S
H18 C21 0.931 . S
H19 C24 0.928 . S
H20 C26 0.930 . S
C21 H18 0.931 . S
C21 C22 1.413 . S
C21 C23 1.360 . S
C22 C21 1.413 . S
C22 C26 1.429 . S
C23 C21 1.360 . S
C23 C24 1.372 . S
C24 H19 0.928 . S
C24 C23 1.372 . S
C24 C25 1.404 . S
C25 C24 1.404 . S
C25 C26 1.391 . S
C26 H20 0.930 . S
C26 C22 1.429 . S
C26 C25 1.391 . S
H27 C30 0.931 . S
H28 C33 0.928 . S
H29 C35 0.930 . S
C30 H27 0.931 . S
C30 C31 1.413 . S
C30 C32 1.360 . S
C31 C30 1.413 . S
C31 C35 1.429 . S
C32 C30 1.360 . S
C32 C33 1.372 . S
C33 H28 0.928 . S
C33 C32 1.372 . S
C33 C34 1.404 . S
C34 C33 1.404 . S
C34 C35 1.391 . S
C35 H29 0.930 . S
C35 C31 1.429 . S
C35 C34 1.391 . S
H36 C39 0.931 . S
H37 C42 0.928 . S
H38 C44 0.930 . S
C39 H36 0.931 . S
C39 C40 1.413 . S
C39 C41 1.360 . S
C40 C39 1.413 . S
C40 C44 1.429 . S
C41 C39 1.360 . S
C41 C42 1.372 . S
C42 H37 0.928 . S
C42 C41 1.372 . S
C42 C43 1.404 . S
C43 C42 1.404 . S
C43 C44 1.391 . S
C44 H38 0.930 . S
C44 C40 1.429 . S
C44 C43 1.391 . S
H45 C48 0.931 . S
H46 C51 0.928 . S
H47 C53 0.930 . S
C48 H45 0.931 . S
C48 C49 1.413 . S
C48 C50 1.360 . S
C49 C48 1.413 . S
C49 C53 1.429 . S
C50 C48 1.360 . S
C50 C51 1.372 . S
C51 H46 0.928 . S
C51 C50 1.372 . S
C51 C52 1.404 . S
C52 C51 1.404 . S
C52 C53 1.391 . S
C53 H47 0.930 . S
C53 C49 1.429 . S
C53 C52 1.391 . S
H54 C57 0.931 . S
H55 C60 0.928 . S
H56 C62 0.930 . S
C57 H54 0.931 . S
C57 C58 1.413 . S
C57 C59 1.360 . S
C58 C57 1.413 . S
C58 C62 1.429 . S
C59 C57 1.360 . S
C59 C60 1.372 . S
C60 H55 0.928 . S
C60 C59 1.372 . S
C60 C61 1.404 . S
C61 C60 1.404 . S
C61 C62 1.391 . S
C62 H56 0.930 . S
C62 C58 1.429 . S
C62 C61 1.391 . S
H63 C66 0.931 . S
H64 C69 0.928 . S
H65 C71 0.930 . S
C66 H63 0.931 . S
C66 C67 1.413 . S
C66 C68 1.360 . S
C67 C66 1.413 . S
C67 C71 1.429 . S
C68 C66 1.360 . S
C68 C69 1.372 . S
C69 H64 0.928 . S
C69 C68 1.372 . S
C69 C70 1.404 . S
C70 C69 1.404 . S
C70 C71 1.391 . S
C71 H65 0.930 . S
C71 C67 1.429 . S
C71 C70 1.391 . S
Gd72 C75 2.818 . S
Gd72 O92 2.377 . S
Gd72 O94 2.448 . S
Gd72 O95 2.506 . S
Gd72 O96 2.435 1_545 S
Gd72 O97 2.717 1_545 S
Gd72 O99 2.395 1_445 S
Gd72 O103 2.327 1_455 S
Gd73 C84 2.818 . S
Gd73 O93 2.395 1_665 S
Gd73 O97 2.327 1_655 S
Gd73 O98 2.377 . S
Gd73 O100 2.448 . S
Gd73 O101 2.506 . S
Gd73 O102 2.435 1_565 S
Gd73 O103 2.717 1_565 S
C74 O92 1.240 . S
C74 O93 1.240 . S
C75 Gd72 2.818 . S
C75 C76 1.510 . S
C75 O94 1.249 . S
C75 O95 1.252 . S
C76 C75 1.510 . S
C76 C77 1.404 . S
C76 C78 1.352 . S
C77 C76 1.404 . S
C77 C81 1.389 . S
C77 H104 0.930 . S
C78 C76 1.352 . S
C78 C80 1.374 . S
C78 H105 0.931 . S
C79 C80 1.359 . S
C79 C81 1.364 . S
C80 C78 1.374 . S
C80 C79 1.359 . S
C80 H106 0.931 . S
C81 C77 1.389 . S
C81 C79 1.364 . S
C81 H107 0.931 . S
C82 O96 1.256 . S
C82 O97 1.257 . S
C83 O98 1.240 . S
C83 O99 1.240 . S
C84 Gd73 2.818 . S
C84 C85 1.510 . S
C84 O100 1.249 . S
C84 O101 1.252 . S
C85 C84 1.510 . S
C85 C86 1.404 . S
C85 C87 1.352 . S
C86 C85 1.404 . S
C86 C90 1.389 . S
C86 H108 0.930 . S
C87 C85 1.352 . S
C87 C89 1.374 . S
C87 H109 0.931 . S
C88 C89 1.359 . S
C88 C90 1.364 . S
C89 C87 1.374 . S
C89 C88 1.359 . S
C89 H110 0.931 . S
C90 C86 1.389 . S
C90 C88 1.364 . S
C90 H111 0.931 . S
C91 O102 1.256 . S
C91 O103 1.257 . S
O92 Gd72 2.377 . S
O92 C74 1.240 . S
O93 Gd73 2.395 1_445 S
O93 C74 1.240 . S
O94 Gd72 2.448 . S
O94 C75 1.249 . S
O95 Gd72 2.506 . S
O95 C75 1.252 . S
O96 Gd72 2.435 1_565 S
O96 C82 1.256 . S
O97 Gd72 2.717 1_565 S
O97 Gd73 2.327 1_455 S
O97 C82 1.257 . S
O98 Gd73 2.377 . S
O98 C83 1.240 . S
O99 Gd72 2.395 1_665 S
O99 C83 1.240 . S
O100 Gd73 2.448 . S
O100 C84 1.249 . S
O101 Gd73 2.506 . S
O101 C84 1.252 . S
O102 Gd73 2.435 1_545 S
O102 C91 1.256 . S
O103 Gd72 2.327 1_655 S
O103 Gd73 2.717 1_545 S
O103 C91 1.257 . S
H104 C77 0.930 . S
H105 C78 0.931 . S
H106 C80 0.931 . S
H107 C81 0.931 . S
H108 C86 0.930 . S
H109 C87 0.931 . S
H110 C89 0.931 . S
H111 C90 0.931 . S
Gd112 C115 2.803 1_565 S
Gd112 O132 2.359 1_565 S
Gd112 O134 2.446 1_565 S
Gd112 O135 2.481 1_565 S
Gd112 O136 2.457 . S
Gd112 O137 2.728 . S
Gd112 O139 2.414 1_554 S
Gd112 O143 2.306 1_564 S
Gd113 C124 2.818 1_545 S
Gd113 O133 2.395 1_556 S
Gd113 O137 2.327 1_546 S
Gd113 O138 2.377 1_545 S
Gd113 O140 2.448 1_545 S
Gd113 O141 2.506 1_545 S
Gd113 O142 2.435 . S
Gd113 O143 2.717 . S
C114 O132 1.240 . S
C114 O133 1.240 . S
C115 Gd112 2.803 1_545 S
C115 C116 1.510 . S
C115 O134 1.249 . S
C115 O135 1.252 . S
C116 C115 1.510 . S
C116 C117 1.404 . S
C116 C118 1.352 . S
C117 C116 1.404 . S
C117 C121 1.389 . S
C117 H144 0.930 . S
C118 C116 1.352 . S
C118 C120 1.374 . S
C118 H145 0.931 . S
C119 C120 1.359 . S
C119 C121 1.364 . S
C120 C118 1.374 . S
C120 C119 1.359 . S
C120 H146 0.931 . S
C121 C117 1.389 . S
C121 C119 1.364 . S
C121 H147 0.931 . S
C122 O136 1.256 . S
C122 O137 1.257 . S
C123 O138 1.240 . S
C123 O139 1.240 . S
C124 Gd113 2.818 1_565 S
C124 C125 1.510 . S
C124 O140 1.249 . S
C124 O141 1.252 . S
C125 C124 1.510 . S
C125 C126 1.404 . S
C125 C127 1.352 . S
C126 C125 1.404 . S
C126 C130 1.389 . S
C126 H148 0.930 . S
C127 C125 1.352 . S
C127 C129 1.374 . S
C127 H149 0.931 . S
C128 C129 1.359 . S
C128 C130 1.364 . S
C129 C127 1.374 . S
C129 C128 1.359 . S
C129 H150 0.931 . S
C130 C126 1.389 . S
C130 C128 1.364 . S
C130 H151 0.931 . S
C131 O142 1.256 . S
C131 O143 1.257 . S
O132 Gd112 2.359 1_545 S
O132 C114 1.240 . S
O133 Gd113 2.395 1_554 S
O133 C114 1.240 . S
O134 Gd112 2.446 1_545 S
O134 C115 1.249 . S
O135 Gd112 2.481 1_545 S
O135 C115 1.252 . S
O136 Gd112 2.457 . S
O136 C122 1.256 . S
O137 Gd112 2.728 . S
O137 Gd113 2.327 1_564 S
O137 C122 1.257 . S
O138 Gd113 2.377 1_565 S
O138 C123 1.240 . S
O139 Gd112 2.414 1_556 S
O139 C123 1.240 . S
O140 Gd113 2.448 1_565 S
O140 C124 1.249 . S
O141 Gd113 2.506 1_565 S
O141 C124 1.252 . S
O142 Gd113 2.435 . S
O142 C131 1.256 . S
O143 Gd112 2.306 1_546 S
O143 Gd113 2.717 . S
O143 C131 1.257 . S
H144 C117 0.930 . S
H145 C118 0.931 . S
H146 C120 0.931 . S
H147 C121 0.931 . S
H148 C126 0.930 . S
H149 C127 0.931 . S
H150 C129 0.931 . S
H151 C130 0.931 . S
Gd152 C155 2.818 . S
Gd152 O172 2.377 . S
Gd152 O174 2.448 . S
Gd152 O175 2.506 . S
Gd152 O176 2.435 . S
Gd152 O177 2.717 . S
Gd152 O179 2.395 . S
Gd152 O183 2.327 . S
Gd153 C164 2.818 . S
Gd153 O173 2.395 . S
Gd153 O177 2.327 . S
Gd153 O178 2.377 . S
Gd153 O180 2.448 . S
Gd153 O181 2.506 . S
Gd153 O182 2.435 . S
Gd153 O183 2.717 . S
C154 O172 1.240 . S
C154 O173 1.240 . S
C155 Gd152 2.818 . S
C155 C156 1.510 . S
C155 O174 1.249 . S
C155 O175 1.252 . S
C156 C155 1.510 . S
C156 C157 1.404 . S
C156 C158 1.352 . S
C157 C156 1.404 . S
C157 C161 1.389 . S
C157 H184 0.930 . S
C158 C156 1.352 . S
C158 C160 1.374 . S
C158 H185 0.931 . S
C159 C160 1.359 . S
C159 C161 1.364 . S
C160 C158 1.374 . S
C160 C159 1.359 . S
C160 H186 0.931 . S
C161 C157 1.389 . S
C161 C159 1.364 . S
C161 H187 0.931 . S
C162 O176 1.256 . S
C162 O177 1.257 . S
C163 O178 1.240 . S
C163 O179 1.240 . S
C164 Gd153 2.818 . S
C164 C165 1.510 . S
C164 O180 1.249 . S
C164 O181 1.252 . S
C165 C164 1.510 . S
C165 C166 1.404 . S
C165 C167 1.352 . S
C166 C165 1.404 . S
C166 C170 1.389 . S
C166 H188 0.930 . S
C167 C165 1.352 . S
C167 C169 1.374 . S
C167 H189 0.931 . S
C168 C169 1.359 . S
C168 C170 1.364 . S
C169 C167 1.374 . S
C169 C168 1.359 . S
C169 H190 0.931 . S
C170 C166 1.389 . S
C170 C168 1.364 . S
C170 H191 0.931 . S
C171 O182 1.256 . S
C171 O183 1.257 . S
O172 Gd152 2.377 . S
O172 C154 1.240 . S
O173 Gd153 2.395 . S
O173 C154 1.240 . S
O174 Gd152 2.448 . S
O174 C155 1.249 . S
O175 Gd152 2.506 . S
O175 C155 1.252 . S
O176 Gd152 2.435 . S
O176 C162 1.256 . S
O177 Gd152 2.717 . S
O177 Gd153 2.327 . S
O177 C162 1.257 . S
O178 Gd153 2.377 . S
O178 C163 1.240 . S
O179 Gd152 2.395 . S
O179 C163 1.240 . S
O180 Gd153 2.448 . S
O180 C164 1.249 . S
O181 Gd153 2.506 . S
O181 C164 1.252 . S
O182 Gd153 2.435 . S
O182 C171 1.256 . S
O183 Gd152 2.327 . S
O183 Gd153 2.717 . S
O183 C171 1.257 . S
H184 C157 0.930 . S
H185 C158 0.931 . S
H186 C160 0.931 . S
H187 C161 0.931 . S
H188 C166 0.930 . S
H189 C167 0.931 . S
H190 C169 0.931 . S
H191 C170 0.931 . S
Gd192 C195 2.818 . S
Gd192 O212 2.377 . S
Gd192 O214 2.448 . S
Gd192 O215 2.506 . S
Gd192 O216 2.435 1_455 S
Gd192 O217 2.717 1_455 S
Gd192 O219 2.395 1_454 S
Gd192 O223 2.327 1_554 S
Gd193 C204 2.818 . S
Gd193 O213 2.395 1_656 S
Gd193 O217 2.327 1_556 S
Gd193 O218 2.377 . S
Gd193 O220 2.448 . S
Gd193 O221 2.506 . S
Gd193 O222 2.435 1_655 S
Gd193 O223 2.717 1_655 S
C194 O212 1.240 . S
C194 O213 1.240 . S
C195 Gd192 2.818 . S
C195 C196 1.510 . S
C195 O214 1.249 . S
C195 O215 1.252 . S
C196 C195 1.510 . S
C196 C197 1.404 . S
C196 C198 1.352 . S
C197 C196 1.404 . S
C197 C201 1.389 . S
C197 H224 0.930 . S
C198 C196 1.352 . S
C198 C200 1.374 . S
C198 H225 0.931 . S
C199 C200 1.359 . S
C199 C201 1.364 . S
C200 C198 1.374 . S
C200 C199 1.359 . S
C200 H226 0.931 . S
C201 C197 1.389 . S
C201 C199 1.364 . S
C201 H227 0.931 . S
C202 O216 1.256 . S
C202 O217 1.257 . S
C203 O218 1.240 . S
C203 O219 1.240 . S
C204 Gd193 2.818 . S
C204 C205 1.510 . S
C204 O220 1.249 . S
C204 O221 1.252 . S
C205 C204 1.510 . S
C205 C206 1.404 . S
C205 C207 1.352 . S
C206 C205 1.404 . S
C206 C210 1.389 . S
C206 H228 0.930 . S
C207 C205 1.352 . S
C207 C209 1.374 . S
C207 H229 0.931 . S
C208 C209 1.359 . S
C208 C210 1.364 . S
C209 C207 1.374 . S
C209 C208 1.359 . S
C209 H230 0.931 . S
C210 C206 1.389 . S
C210 C208 1.364 . S
C210 H231 0.931 . S
C211 O222 1.256 . S
C211 O223 1.257 . S
O212 Gd192 2.377 . S
O212 C194 1.240 . S
O213 Gd193 2.395 1_454 S
O213 C194 1.240 . S
O214 Gd192 2.448 . S
O214 C195 1.249 . S
O215 Gd192 2.506 . S
O215 C195 1.252 . S
O216 Gd192 2.435 1_655 S
O216 C202 1.256 . S
O217 Gd192 2.717 1_655 S
O217 Gd193 2.327 1_554 S
O217 C202 1.257 . S
O218 Gd193 2.377 . S
O218 C203 1.240 . S
O219 Gd192 2.395 1_656 S
O219 C203 1.240 . S
O220 Gd193 2.448 . S
O220 C204 1.249 . S
O221 Gd193 2.506 . S
O221 C204 1.252 . S
O222 Gd193 2.435 1_455 S
O222 C211 1.256 . S
O223 Gd192 2.327 1_556 S
O223 Gd193 2.717 1_455 S
O223 C211 1.257 . S
H224 C197 0.930 . S
H225 C198 0.931 . S
H226 C200 0.931 . S
H227 C201 0.931 . S
H228 C206 0.930 . S
H229 C207 0.931 . S
H230 C209 0.931 . S
H231 C210 0.931 . S
H232 C244 0.930 . S
H233 C246 0.930 . S
H234 C247 0.930 . S
H235 C251 0.959 . S
H236 C251 0.959 . S
H237 C251 0.961 . S
H238 C252 0.960 . S
H239 C252 0.961 . S
H240 C252 0.959 . S
H241 C255 0.929 . S
H242 C256 0.931 . S
H243 C258 0.930 . S
C244 H232 0.930 . S
C244 C245 1.399 . S
C244 C249 1.399 . S
C245 C244 1.399 . S
C245 C246 1.376 . S
C246 H233 0.930 . S
C246 C245 1.376 . S
C246 C247 1.388 . S
C247 H234 0.930 . S
C247 C246 1.388 . S
C247 C248 1.390 . S
C248 C247 1.390 . S
C248 C249 1.394 . S
C248 C254 1.465 . S
C249 C244 1.399 . S
C249 C248 1.394 . S
C249 C250 1.516 . S
C250 C249 1.516 . S
C250 C251 1.502 . S
C250 C252 1.561 . S
C250 C253 1.526 . S
C251 H235 0.959 . S
C251 H236 0.959 . S
C251 H237 0.961 . S
C251 C250 1.502 . S
C252 H238 0.960 . S
C252 H239 0.961 . S
C252 H240 0.959 . S
C252 C250 1.561 . S
C253 C250 1.526 . S
C253 C254 1.396 . S
C253 C258 1.390 . S
C254 C248 1.465 . S
C254 C253 1.396 . S
C254 C255 1.399 . S
C255 H241 0.929 . S
C255 C254 1.399 . S
C255 C256 1.385 . S
C256 H242 0.931 . S
C256 C255 1.385 . S
C256 C257 1.389 . S
C257 C256 1.389 . S
C257 C258 1.387 . S
C258 H243 0.930 . S
C258 C253 1.390 . S
C258 C257 1.387 . S
H259 C271 0.930 . S
H260 C273 0.930 . S
H261 C274 0.930 . S
H262 C278 0.959 . S
H263 C278 0.959 . S
H264 C278 0.961 . S
H265 C279 0.960 . S
H266 C279 0.961 . S
H267 C279 0.959 . S
H268 C282 0.929 . S
H269 C283 0.931 . S
H270 C285 0.930 . S
C271 H259 0.930 . S
C271 C272 1.399 . S
C271 C276 1.399 . S
C272 C271 1.399 . S
C272 C273 1.376 . S
C273 H260 0.930 . S
C273 C272 1.376 . S
C273 C274 1.388 . S
C274 H261 0.930 . S
C274 C273 1.388 . S
C274 C275 1.390 . S
C275 C274 1.390 . S
C275 C276 1.394 . S
C275 C281 1.465 . S
C276 C271 1.399 . S
C276 C275 1.394 . S
C276 C277 1.516 . S
C277 C276 1.516 . S
C277 C278 1.502 . S
C277 C279 1.561 . S
C277 C280 1.526 . S
C278 H262 0.959 . S
C278 H263 0.959 . S
C278 H264 0.961 . S
C278 C277 1.502 . S
C279 H265 0.960 . S
C279 H266 0.961 . S
C279 H267 0.959 . S
C279 C277 1.561 . S
C280 C277 1.526 . S
C280 C281 1.396 . S
C280 C285 1.390 . S
C281 C275 1.465 . S
C281 C280 1.396 . S
C281 C282 1.399 . S
C282 H268 0.929 . S
C282 C281 1.399 . S
C282 C283 1.385 . S
C283 H269 0.931 . S
C283 C282 1.385 . S
C283 C284 1.389 . S
C284 C283 1.389 . S
C284 C285 1.387 . S
C285 H270 0.930 . S
C285 C280 1.390 . S
C285 C284 1.387 . S
H286 C298 0.930 . S
H287 C300 0.930 . S
H288 C301 0.930 . S
H289 C305 0.959 . S
H290 C305 0.959 . S
H291 C305 0.961 . S
H292 C306 0.960 . S
H293 C306 0.961 . S
H294 C306 0.959 . S
H295 C309 0.929 . S
H296 C310 0.931 . S
H297 C312 0.930 . S
C298 H286 0.930 . S
C298 C299 1.399 . S
C298 C303 1.399 . S
C299 C298 1.399 . S
C299 C300 1.376 . S
C300 H287 0.930 . S
C300 C299 1.376 . S
C300 C301 1.388 . S
C301 H288 0.930 . S
C301 C300 1.388 . S
C301 C302 1.390 . S
C302 C301 1.390 . S
C302 C303 1.394 . S
C302 C308 1.465 . S
C303 C298 1.399 . S
C303 C302 1.394 . S
C303 C304 1.516 . S
C304 C303 1.516 . S
C304 C305 1.502 . S
C304 C306 1.561 . S
C304 C307 1.526 . S
C305 H289 0.959 . S
C305 H290 0.959 . S
C305 H291 0.961 . S
C305 C304 1.502 . S
C306 H292 0.960 . S
C306 H293 0.961 . S
C306 H294 0.959 . S
C306 C304 1.561 . S
C307 C304 1.526 . S
C307 C308 1.396 . S
C307 C312 1.390 . S
C308 C302 1.465 . S
C308 C307 1.396 . S
C308 C309 1.399 . S
C309 H295 0.929 . S
C309 C308 1.399 . S
C309 C310 1.385 . S
C310 H296 0.931 . S
C310 C309 1.385 . S
C310 C311 1.389 . S
C311 C310 1.389 . S
C311 C312 1.387 . S
C312 H297 0.930 . S
C312 C307 1.390 . S
C312 C311 1.387 . S
H313 C325 0.930 . S
H314 C327 0.930 . S
H315 C328 0.930 . S
H316 C332 0.959 . S
H317 C332 0.959 . S
H318 C332 0.961 . S
H319 C333 0.960 . S
H320 C333 0.961 . S
H321 C333 0.959 . S
H322 C336 0.929 . S
H323 C337 0.931 . S
H324 C339 0.930 . S
C325 H313 0.930 . S
C325 C326 1.399 . S
C325 C330 1.399 . S
C326 C325 1.399 . S
C326 C327 1.376 . S
C327 H314 0.930 . S
C327 C326 1.376 . S
C327 C328 1.388 . S
C328 H315 0.930 . S
C328 C327 1.388 . S
C328 C329 1.390 . S
C329 C328 1.390 . S
C329 C330 1.394 . S
C329 C335 1.465 . S
C330 C325 1.399 . S
C330 C329 1.394 . S
C330 C331 1.516 . S
C331 C330 1.516 . S
C331 C332 1.502 . S
C331 C333 1.561 . S
C331 C334 1.526 . S
C332 H316 0.959 . S
C332 H317 0.959 . S
C332 H318 0.961 . S
C332 C331 1.502 . S
C333 H319 0.960 . S
C333 H320 0.961 . S
C333 H321 0.959 . S
C333 C331 1.561 . S
C334 C331 1.526 . S
C334 C335 1.396 . S
C334 C339 1.390 . S
C335 C329 1.465 . S
C335 C334 1.396 . S
C335 C336 1.399 . S
C336 H322 0.929 . S
C336 C335 1.399 . S
C336 C337 1.385 . S
C337 H323 0.931 . S
C337 C336 1.385 . S
C337 C338 1.389 . S
C338 C337 1.389 . S
C338 C339 1.387 . S
C339 H324 0.930 . S
C339 C334 1.390 . S
C339 C338 1.387 . S
H340 C352 0.930 . S
H341 C354 0.930 . S
H342 C355 0.930 . S
H343 C359 0.959 . S
H344 C359 0.959 . S
H345 C359 0.961 . S
H346 C360 0.960 . S
H347 C360 0.961 . S
H348 C360 0.959 . S
H349 C363 0.929 . S
H350 C364 0.931 . S
H351 C366 0.930 . S
C352 H340 0.930 . S
C352 C353 1.399 . S
C352 C357 1.399 . S
C353 C352 1.399 . S
C353 C354 1.376 . S
C354 H341 0.930 . S
C354 C353 1.376 . S
C354 C355 1.388 . S
C355 H342 0.930 . S
C355 C354 1.388 . S
C355 C356 1.390 . S
C356 C355 1.390 . S
C356 C357 1.394 . S
C356 C362 1.465 . S
C357 C352 1.399 . S
C357 C356 1.394 . S
C357 C358 1.516 . S
C358 C357 1.516 . S
C358 C359 1.502 . S
C358 C360 1.561 . S
C358 C361 1.526 . S
C359 H343 0.959 . S
C359 H344 0.959 . S
C359 H345 0.961 . S
C359 C358 1.502 . S
C360 H346 0.960 . S
C360 H347 0.961 . S
C360 H348 0.959 . S
C360 C358 1.561 . S
C361 C358 1.526 . S
C361 C362 1.396 . S
C361 C366 1.390 . S
C362 C356 1.465 . S
C362 C361 1.396 . S
C362 C363 1.399 . S
C363 H349 0.929 . S
C363 C362 1.399 . S
C363 C364 1.385 . S
C364 H350 0.931 . S
C364 C363 1.385 . S
C364 C365 1.389 . S
C365 C364 1.389 . S
C365 C366 1.387 . S
C366 H351 0.930 . S
C366 C361 1.390 . S
C366 C365 1.387 . S
H367 C379 0.930 . S
H368 C381 0.930 . S
H369 C382 0.930 . S
H370 C386 0.959 . S
H371 C386 0.959 . S
H372 C386 0.961 . S
H373 C387 0.960 . S
H374 C387 0.961 . S
H375 C387 0.959 . S
H376 C390 0.929 . S
H377 C391 0.931 . S
H378 C393 0.930 . S
C379 H367 0.930 . S
C379 C380 1.399 . S
C379 C384 1.399 . S
C380 C379 1.399 . S
C380 C381 1.376 . S
C381 H368 0.930 . S
C381 C380 1.376 . S
C381 C382 1.388 . S
C382 H369 0.930 . S
C382 C381 1.388 . S
C382 C383 1.390 . S
C383 C382 1.390 . S
C383 C384 1.394 . S
C383 C389 1.465 . S
C384 C379 1.399 . S
C384 C383 1.394 . S
C384 C385 1.516 . S
C385 C384 1.516 . S
C385 C386 1.502 . S
C385 C387 1.561 . S
C385 C388 1.526 . S
C386 H370 0.959 . S
C386 H371 0.959 . S
C386 H372 0.961 . S
C386 C385 1.502 . S
C387 H373 0.960 . S
C387 H374 0.961 . S
C387 H375 0.959 . S
C387 C385 1.561 . S
C388 C385 1.526 . S
C388 C389 1.396 . S
C388 C393 1.390 . S
C389 C383 1.465 . S
C389 C388 1.396 . S
C389 C390 1.399 . S
C390 H376 0.929 . S
C390 C389 1.399 . S
C390 C391 1.385 . S
C391 H377 0.931 . S
C391 C390 1.385 . S
C391 C392 1.389 . S
C392 C391 1.389 . S
C392 C393 1.387 . S
C393 H378 0.930 . S
C393 C388 1.390 . S
C393 C392 1.387 . S
H394 C406 0.930 . S
H395 C408 0.930 . S
H396 C409 0.930 . S
H397 C413 0.959 . S
H398 C413 0.959 . S
H399 C413 0.961 . S
H400 C414 0.960 . S
H401 C414 0.961 . S
H402 C414 0.959 . S
H403 C417 0.929 . S
H404 C418 0.931 . S
H405 C420 0.930 . S
C406 H394 0.930 . S
C406 C407 1.399 . S
C406 C411 1.399 . S
C407 C406 1.399 . S
C407 C408 1.376 . S
C408 H395 0.930 . S
C408 C407 1.376 . S
C408 C409 1.388 . S
C409 H396 0.930 . S
C409 C408 1.388 . S
C409 C410 1.390 . S
C410 C409 1.390 . S
C410 C411 1.394 . S
C410 C416 1.465 . S
C411 C406 1.399 . S
C411 C410 1.394 . S
C411 C412 1.516 . S
C412 C411 1.516 . S
C412 C413 1.502 . S
C412 C414 1.561 . S
C412 C415 1.526 . S
C413 H397 0.959 . S
C413 H398 0.959 . S
C413 H399 0.961 . S
C413 C412 1.502 . S
C414 H400 0.960 . S
C414 H401 0.961 . S
C414 H402 0.959 . S
C414 C412 1.561 . S
C415 C412 1.526 . S
C415 C416 1.396 . S
C415 C420 1.390 . S
C416 C410 1.465 . S
C416 C415 1.396 . S
C416 C417 1.399 . S
C417 H403 0.929 . S
C417 C416 1.399 . S
C417 C418 1.385 . S
C418 H404 0.931 . S
C418 C417 1.385 . S
C418 C419 1.389 . S
C419 C418 1.389 . S
C419 C420 1.387 . S
C420 H405 0.930 . S
C420 C415 1.390 . S
C420 C419 1.387 . S
H421 C433 0.930 . S
H422 C435 0.930 . S
H423 C436 0.930 . S
H424 C440 0.959 . S
H425 C440 0.959 . S
H426 C440 0.961 . S
H427 C441 0.960 . S
H428 C441 0.961 . S
H429 C441 0.959 . S
H430 C444 0.929 . S
H431 C445 0.931 . S
H432 C447 0.930 . S
C433 H421 0.930 . S
C433 C434 1.399 . S
C433 C438 1.399 . S
C434 C433 1.399 . S
C434 C435 1.376 . S
C435 H422 0.930 . S
C435 C434 1.376 . S
C435 C436 1.388 . S
C436 H423 0.930 . S
C436 C435 1.388 . S
C436 C437 1.390 . S
C437 C436 1.390 . S
C437 C438 1.394 . S
C437 C443 1.465 . S
C438 C433 1.399 . S
C438 C437 1.394 . S
C438 C439 1.516 . S
C439 C438 1.516 . S
C439 C440 1.502 . S
C439 C441 1.561 . S
C439 C442 1.526 . S
C440 H424 0.959 . S
C440 H425 0.959 . S
C440 H426 0.961 . S
C440 C439 1.502 . S
C441 H427 0.960 . S
C441 H428 0.961 . S
C441 H429 0.959 . S
C441 C439 1.561 . S
C442 C439 1.526 . S
C442 C443 1.396 . S
C442 C447 1.390 . S
C443 C437 1.465 . S
C443 C442 1.396 . S
C443 C444 1.399 . S
C444 H430 0.929 . S
C444 C443 1.399 . S
C444 C445 1.385 . S
C445 H431 0.931 . S
C445 C444 1.385 . S
C445 C446 1.389 . S
C446 C445 1.389 . S
C446 C447 1.387 . S
C447 H432 0.930 . S
C447 C442 1.390 . S
C447 C446 1.387 . S
H448 C460 0.930 . S
H449 C462 0.930 . S
H450 C463 0.930 . S
H451 C467 0.959 . S
H452 C467 0.959 . S
H453 C467 0.961 . S
H454 C468 0.960 . S
H455 C468 0.961 . S
H456 C468 0.959 . S
H457 C471 0.929 . S
H458 C472 0.931 . S
H459 C474 0.930 . S
C460 H448 0.930 . S
C460 C461 1.399 . S
C460 C465 1.399 . S
C461 C460 1.399 . S
C461 C462 1.376 . S
C462 H449 0.930 . S
C462 C461 1.376 . S
C462 C463 1.388 . S
C463 H450 0.930 . S
C463 C462 1.388 . S
C463 C464 1.390 . S
C464 C463 1.390 . S
C464 C465 1.394 . S
C464 C470 1.465 . S
C465 C460 1.399 . S
C465 C464 1.394 . S
C465 C466 1.516 . S
C466 C465 1.516 . S
C466 C467 1.502 . S
C466 C468 1.561 . S
C466 C469 1.526 . S
C467 H451 0.959 . S
C467 H452 0.959 . S
C467 H453 0.961 . S
C467 C466 1.502 . S
C468 H454 0.960 . S
C468 H455 0.961 . S
C468 H456 0.959 . S
C468 C466 1.561 . S
C469 C466 1.526 . S
C469 C470 1.396 . S
C469 C474 1.390 . S
C470 C464 1.465 . S
C470 C469 1.396 . S
C470 C471 1.399 . S
C471 H457 0.929 . S
C471 C470 1.399 . S
C471 C472 1.385 . S
C472 H458 0.931 . S
C472 C471 1.385 . S
C472 C473 1.389 . S
C473 C472 1.389 . S
C473 C474 1.387 . S
C474 H459 0.930 . S
C474 C469 1.390 . S
C474 C473 1.387 . S
H475 C487 0.930 . S
H476 C489 0.930 . S
H477 C490 0.930 . S
H478 C494 0.959 . S
H479 C494 0.959 . S
H480 C494 0.961 . S
H481 C495 0.960 . S
H482 C495 0.961 . S
H483 C495 0.959 . S
H484 C498 0.929 . S
H485 C499 0.931 . S
H486 C501 0.930 . S
C487 H475 0.930 . S
C487 C488 1.399 . S
C487 C492 1.399 . S
C488 C487 1.399 . S
C488 C489 1.376 . S
C489 H476 0.930 . S
C489 C488 1.376 . S
C489 C490 1.388 . S
C490 H477 0.930 . S
C490 C489 1.388 . S
C490 C491 1.390 . S
C491 C490 1.390 . S
C491 C492 1.394 . S
C491 C497 1.465 . S
C492 C487 1.399 . S
C492 C491 1.394 . S
C492 C493 1.516 . S
C493 C492 1.516 . S
C493 C494 1.502 . S
C493 C495 1.561 . S
C493 C496 1.526 . S
C494 H478 0.959 . S
C494 H479 0.959 . S
C494 H480 0.961 . S
C494 C493 1.502 . S
C495 H481 0.960 . S
C495 H482 0.961 . S
C495 H483 0.959 . S
C495 C493 1.561 . S
C496 C493 1.526 . S
C496 C497 1.396 . S
C496 C501 1.390 . S
C497 C491 1.465 . S
C497 C496 1.396 . S
C497 C498 1.399 . S
C498 H484 0.929 . S
C498 C497 1.399 . S
C498 C499 1.385 . S
C499 H485 0.931 . S
C499 C498 1.385 . S
C499 C500 1.389 . S
C500 C499 1.389 . S
C500 C501 1.387 . S
C501 H486 0.930 . S
C501 C496 1.390 . S
C501 C500 1.387 . S
H502 C514 0.930 . S
H503 C516 0.930 . S
H504 C517 0.930 . S
H505 C521 0.959 . S
H506 C521 0.959 . S
H507 C521 0.961 . S
H508 C522 0.960 . S
H509 C522 0.961 . S
H510 C522 0.959 . S
H511 C525 0.929 . S
H512 C526 0.931 . S
H513 C528 0.930 . S
C514 H502 0.930 . S
C514 C515 1.399 . S
C514 C519 1.399 . S
C515 C514 1.399 . S
C515 C516 1.376 . S
C516 H503 0.930 . S
C516 C515 1.376 . S
C516 C517 1.388 . S
C517 H504 0.930 . S
C517 C516 1.388 . S
C517 C518 1.390 . S
C518 C517 1.390 . S
C518 C519 1.394 . S
C518 C524 1.465 . S
C519 C514 1.399 . S
C519 C518 1.394 . S
C519 C520 1.516 . S
C520 C519 1.516 . S
C520 C521 1.502 . S
C520 C522 1.561 . S
C520 C523 1.526 . S
C521 H505 0.959 . S
C521 H506 0.959 . S
C521 H507 0.961 . S
C521 C520 1.502 . S
C522 H508 0.960 . S
C522 H509 0.961 . S
C522 H510 0.959 . S
C522 C520 1.561 . S
C523 C520 1.526 . S
C523 C524 1.396 . S
C523 C528 1.390 . S
C524 C518 1.465 . S
C524 C523 1.396 . S
C524 C525 1.399 . S
C525 H511 0.929 . S
C525 C524 1.399 . S
C525 C526 1.385 . S
C526 H512 0.931 . S
C526 C525 1.385 . S
C526 C527 1.389 . S
C527 C526 1.389 . S
C527 C528 1.387 . S
C528 H513 0.930 . S
C528 C523 1.390 . S
C528 C527 1.387 . S
H529 C541 0.930 . S
H530 C543 0.930 . S
H531 C544 0.930 . S
H532 C548 0.959 . S
H533 C548 0.959 . S
H534 C548 0.961 . S
H535 C549 0.960 . S
H536 C549 0.961 . S
H537 C549 0.959 . S
H538 C552 0.929 . S
H539 C553 0.931 . S
H540 C555 0.930 . S
C541 H529 0.930 . S
C541 C542 1.399 . S
C541 C546 1.399 . S
C542 C541 1.399 . S
C542 C543 1.376 . S
C543 H530 0.930 . S
C543 C542 1.376 . S
C543 C544 1.388 . S
C544 H531 0.930 . S
C544 C543 1.388 . S
C544 C545 1.390 . S
C545 C544 1.390 . S
C545 C546 1.394 . S
C545 C551 1.465 . S
C546 C541 1.399 . S
C546 C545 1.394 . S
C546 C547 1.516 . S
C547 C546 1.516 . S
C547 C548 1.502 . S
C547 C549 1.561 . S
C547 C550 1.526 . S
C548 H532 0.959 . S
C548 H533 0.959 . S
C548 H534 0.961 . S
C548 C547 1.502 . S
C549 H535 0.960 . S
C549 H536 0.961 . S
C549 H537 0.959 . S
C549 C547 1.561 . S
C550 C547 1.526 . S
C550 C551 1.396 . S
C550 C555 1.390 . S
C551 C545 1.465 . S
C551 C550 1.396 . S
C551 C552 1.399 . S
C552 H538 0.929 . S
C552 C551 1.399 . S
C552 C553 1.385 . S
C553 H539 0.931 . S
C553 C552 1.385 . S
C553 C554 1.389 . S
C554 C553 1.389 . S
C554 C555 1.387 . S
C555 H540 0.930 . S
C555 C550 1.390 . S
C555 C554 1.387 . S
H556 C568 0.930 . S
H557 C570 0.930 . S
H558 C571 0.930 . S
H559 C575 0.959 . S
H560 C575 0.959 . S
H561 C575 0.961 . S
H562 C576 0.960 . S
H563 C576 0.961 . S
H564 C576 0.959 . S
H565 C579 0.929 . S
H566 C580 0.931 . S
H567 C582 0.930 . S
C568 H556 0.930 . S
C568 C569 1.399 . S
C568 C573 1.399 . S
C569 C568 1.399 . S
C569 C570 1.376 . S
C570 H557 0.930 . S
C570 C569 1.376 . S
C570 C571 1.388 . S
C571 H558 0.930 . S
C571 C570 1.388 . S
C571 C572 1.390 . S
C572 C571 1.390 . S
C572 C573 1.394 . S
C572 C578 1.465 . S
C573 C568 1.399 . S
C573 C572 1.394 . S
C573 C574 1.516 . S
C574 C573 1.516 . S
C574 C575 1.502 . S
C574 C576 1.561 . S
C574 C577 1.526 . S
C575 H559 0.959 . S
C575 H560 0.959 . S
C575 H561 0.961 . S
C575 C574 1.502 . S
C576 H562 0.960 . S
C576 H563 0.961 . S
C576 H564 0.959 . S
C576 C574 1.561 . S
C577 C574 1.526 . S
C577 C578 1.396 . S
C577 C582 1.390 . S
C578 C572 1.465 . S
C578 C577 1.396 . S
C578 C579 1.399 . S
C579 H565 0.929 . S
C579 C578 1.399 . S
C579 C580 1.385 . S
C580 H566 0.931 . S
C580 C579 1.385 . S
C580 C581 1.389 . S
C581 C580 1.389 . S
C581 C582 1.387 . S
C582 H567 0.930 . S
C582 C577 1.390 . S
C582 C581 1.387 . S
H583 C595 0.930 . S
H584 C597 0.930 . S
H585 C598 0.930 . S
H586 C602 0.959 . S
H587 C602 0.959 . S
H588 C602 0.961 . S
H589 C603 0.960 . S
H590 C603 0.961 . S
H591 C603 0.959 . S
H592 C606 0.929 . S
H593 C607 0.931 . S
H594 C609 0.930 . S
C595 H583 0.930 . S
C595 C596 1.399 . S
C595 C600 1.399 . S
C596 C595 1.399 . S
C596 C597 1.376 . S
C597 H584 0.930 . S
C597 C596 1.376 . S
C597 C598 1.388 . S
C598 H585 0.930 . S
C598 C597 1.388 . S
C598 C599 1.390 . S
C599 C598 1.390 . S
C599 C600 1.394 . S
C599 C605 1.465 . S
C600 C595 1.399 . S
C600 C599 1.394 . S
C600 C601 1.516 . S
C601 C600 1.516 . S
C601 C602 1.502 . S
C601 C603 1.561 . S
C601 C604 1.526 . S
C602 H586 0.959 . S
C602 H587 0.959 . S
C602 H588 0.961 . S
C602 C601 1.502 . S
C603 H589 0.960 . S
C603 H590 0.961 . S
C603 H591 0.959 . S
C603 C601 1.561 . S
C604 C601 1.526 . S
C604 C605 1.396 . S
C604 C609 1.390 . S
C605 C599 1.465 . S
C605 C604 1.396 . S
C605 C606 1.399 . S
C606 H592 0.929 . S
C606 C605 1.399 . S
C606 C607 1.385 . S
C607 H593 0.931 . S
C607 C606 1.385 . S
C607 C608 1.389 . S
C608 C607 1.389 . S
C608 C609 1.387 . S
C609 H594 0.930 . S
C609 C604 1.390 . S
C609 C608 1.387 . S
H610 C622 0.930 . S
H611 C624 0.930 . S
H612 C625 0.930 . S
H613 C629 0.959 . S
H614 C629 0.959 . S
H615 C629 0.961 . S
H616 C630 0.960 . S
H617 C630 0.961 . S
H618 C630 0.959 . S
H619 C633 0.929 . S
H620 C634 0.931 . S
H621 C636 0.930 . S
C622 H610 0.930 . S
C622 C623 1.399 . S
C622 C627 1.399 . S
C623 C622 1.399 . S
C623 C624 1.376 . S
C624 H611 0.930 . S
C624 C623 1.376 . S
C624 C625 1.388 . S
C625 H612 0.930 . S
C625 C624 1.388 . S
C625 C626 1.390 . S
C626 C625 1.390 . S
C626 C627 1.394 . S
C626 C632 1.465 . S
C627 C622 1.399 . S
C627 C626 1.394 . S
C627 C628 1.516 . S
C628 C627 1.516 . S
C628 C629 1.502 . S
C628 C630 1.561 . S
C628 C631 1.526 . S
C629 H613 0.959 . S
C629 H614 0.959 . S
C629 H615 0.961 . S
C629 C628 1.502 . S
C630 H616 0.960 . S
C630 H617 0.961 . S
C630 H618 0.959 . S
C630 C628 1.561 . S
C631 C628 1.526 . S
C631 C632 1.396 . S
C631 C636 1.390 . S
C632 C626 1.465 . S
C632 C631 1.396 . S
C632 C633 1.399 . S
C633 H619 0.929 . S
C633 C632 1.399 . S
C633 C634 1.385 . S
C634 H620 0.931 . S
C634 C633 1.385 . S
C634 C635 1.389 . S
C635 C634 1.389 . S
C635 C636 1.387 . S
C636 H621 0.930 . S
C636 C631 1.390 . S
C636 C635 1.387 . S
H637 C649 0.930 . S
H638 C651 0.930 . S
H639 C652 0.930 . S
H640 C656 0.959 . S
H641 C656 0.959 . S
H642 C656 0.961 . S
H643 C657 0.960 . S
H644 C657 0.961 . S
H645 C657 0.959 . S
H646 C660 0.929 . S
H647 C661 0.931 . S
H648 C663 0.930 . S
C649 H637 0.930 . S
C649 C650 1.399 . S
C649 C654 1.399 . S
C650 C649 1.399 . S
C650 C651 1.376 . S
C651 H638 0.930 . S
C651 C650 1.376 . S
C651 C652 1.388 . S
C652 H639 0.930 . S
C652 C651 1.388 . S
C652 C653 1.390 . S
C653 C652 1.390 . S
C653 C654 1.394 . S
C653 C659 1.465 . S
C654 C649 1.399 . S
C654 C653 1.394 . S
C654 C655 1.516 . S
C655 C654 1.516 . S
C655 C656 1.502 . S
C655 C657 1.561 . S
C655 C658 1.526 . S
C656 H640 0.959 . S
C656 H641 0.959 . S
C656 H642 0.961 . S
C656 C655 1.502 . S
C657 H643 0.960 . S
C657 H644 0.961 . S
C657 H645 0.959 . S
C657 C655 1.561 . S
C658 C655 1.526 . S
C658 C659 1.396 . S
C658 C663 1.390 . S
C659 C653 1.465 . S
C659 C658 1.396 . S
C659 C660 1.399 . S
C660 H646 0.929 . S
C660 C659 1.399 . S
C660 C661 1.385 . S
C661 H647 0.931 . S
C661 C660 1.385 . S
C661 C662 1.389 . S
C662 C661 1.389 . S
C662 C663 1.387 . S
C663 H648 0.930 . S
C663 C658 1.390 . S
C663 C662 1.387 . S
H664 C676 0.930 . S
H665 C678 0.930 . S
H666 C679 0.930 . S
H667 C683 0.959 . S
H668 C683 0.959 . S
H669 C683 0.961 . S
H670 C684 0.960 . S
H671 C684 0.961 . S
H672 C684 0.959 . S
H673 C687 0.929 . S
H674 C688 0.931 . S
H675 C690 0.930 . S
C676 H664 0.930 . S
C676 C677 1.399 . S
C676 C681 1.399 . S
C677 C676 1.399 . S
C677 C678 1.376 . S
C678 H665 0.930 . S
C678 C677 1.376 . S
C678 C679 1.388 . S
C679 H666 0.930 . S
C679 C678 1.388 . S
C679 C680 1.390 . S
C680 C679 1.390 . S
C680 C681 1.394 . S
C680 C686 1.465 . S
C681 C676 1.399 . S
C681 C680 1.394 . S
C681 C682 1.516 . S
C682 C681 1.516 . S
C682 C683 1.502 . S
C682 C684 1.561 . S
C682 C685 1.526 . S
C683 H667 0.959 . S
C683 H668 0.959 . S
C683 H669 0.961 . S
C683 C682 1.502 . S
C684 H670 0.960 . S
C684 H671 0.961 . S
C684 H672 0.959 . S
C684 C682 1.561 . S
C685 C682 1.526 . S
C685 C686 1.396 . S
C685 C690 1.390 . S
C686 C680 1.465 . S
C686 C685 1.396 . S
C686 C687 1.399 . S
C687 H673 0.929 . S
C687 C686 1.399 . S
C687 C688 1.385 . S
C688 H674 0.931 . S
C688 C687 1.385 . S
C688 C689 1.389 . S
C689 C688 1.389 . S
C689 C690 1.387 . S
C690 H675 0.930 . S
C690 C685 1.390 . S
C690 C689 1.387 . S
H691 C703 0.930 . S
H692 C705 0.930 . S
H693 C706 0.930 . S
H694 C710 0.959 . S
H695 C710 0.959 . S
H696 C710 0.961 . S
H697 C711 0.960 . S
H698 C711 0.961 . S
H699 C711 0.959 . S
H700 C714 0.929 . S
H701 C715 0.931 1_565 S
H702 C717 0.930 . S
C703 H691 0.930 . S
C703 C704 1.399 . S
C703 C708 1.399 . S
C704 C703 1.399 . S
C704 C705 1.376 . S
C705 H692 0.930 . S
C705 C704 1.376 . S
C705 C706 1.388 . S
C706 H693 0.930 . S
C706 C705 1.388 . S
C706 C707 1.390 . S
C707 C706 1.390 . S
C707 C708 1.394 . S
C707 C713 1.465 . S
C708 C703 1.399 . S
C708 C707 1.394 . S
C708 C709 1.516 . S
C709 C708 1.516 . S
C709 C710 1.502 . S
C709 C711 1.561 . S
C709 C712 1.526 . S
C710 H694 0.959 . S
C710 H695 0.959 . S
C710 H696 0.961 . S
C710 C709 1.502 . S
C711 H697 0.960 . S
C711 H698 0.961 . S
C711 H699 0.959 . S
C711 C709 1.561 . S
C712 C709 1.526 . S
C712 C713 1.396 . S
C712 C717 1.390 . S
C713 C707 1.465 . S
C713 C712 1.396 . S
C713 C714 1.399 . S
C714 H700 0.929 . S
C714 C713 1.399 . S
C714 C715 1.385 . S
C715 H701 0.931 1_545 S
C715 C714 1.385 . S
C715 C716 1.389 . S
C716 C715 1.389 . S
C716 C717 1.387 . S
C717 H702 0.930 . S
C717 C712 1.390 . S
C717 C716 1.387 . S
H718 C730 0.930 . S
H719 C732 0.930 . S
H720 C733 0.930 . S
H721 C737 0.959 . S
H722 C737 0.959 . S
H723 C737 0.961 . S
H724 C738 0.960 . S
H725 C738 0.961 . S
H726 C738 0.959 . S
H727 C741 0.929 . S
H728 C742 0.931 . S
H729 C744 0.930 . S
C730 H718 0.930 . S
C730 C731 1.399 . S
C730 C735 1.399 . S
C731 C730 1.399 . S
C731 C732 1.376 . S
C732 H719 0.930 . S
C732 C731 1.376 . S
C732 C733 1.388 . S
C733 H720 0.930 . S
C733 C732 1.388 . S
C733 C734 1.390 . S
C734 C733 1.390 . S
C734 C735 1.394 . S
C734 C740 1.465 . S
C735 C730 1.399 . S
C735 C734 1.394 . S
C735 C736 1.516 . S
C736 C735 1.516 . S
C736 C737 1.502 . S
C736 C738 1.561 . S
C736 C739 1.526 . S
C737 H721 0.959 . S
C737 H722 0.959 . S
C737 H723 0.961 . S
C737 C736 1.502 . S
C738 H724 0.960 . S
C738 H725 0.961 . S
C738 H726 0.959 . S
C738 C736 1.561 . S
C739 C736 1.526 . S
C739 C740 1.396 . S
C739 C744 1.390 . S
C740 C734 1.465 . S
C740 C739 1.396 . S
C740 C741 1.399 . S
C741 H727 0.929 . S
C741 C740 1.399 . S
C741 C742 1.385 . S
C742 H728 0.931 . S
C742 C741 1.385 . S
C742 C743 1.389 . S
C743 C742 1.389 . S
C743 C744 1.387 . S
C744 H729 0.930 . S
C744 C739 1.390 . S
C744 C743 1.387 . S
H745 C757 0.930 . S
H746 C759 0.930 . S
H747 C760 0.930 . S
H748 C764 0.959 . S
H749 C764 0.959 . S
H750 C764 0.961 . S
H751 C765 0.960 . S
H752 C765 0.961 . S
H753 C765 0.959 . S
H754 C768 0.929 . S
H755 C769 0.931 . S
H756 C771 0.930 . S
C757 H745 0.930 . S
C757 C758 1.399 . S
C757 C762 1.399 . S
C758 C757 1.399 . S
C758 C759 1.376 . S
C759 H746 0.930 . S
C759 C758 1.376 . S
C759 C760 1.388 . S
C760 H747 0.930 . S
C760 C759 1.388 . S
C760 C761 1.390 . S
C761 C760 1.390 . S
C761 C762 1.394 . S
C761 C767 1.465 . S
C762 C757 1.399 . S
C762 C761 1.394 . S
C762 C763 1.516 . S
C763 C762 1.516 . S
C763 C764 1.502 . S
C763 C765 1.561 . S
C763 C766 1.526 . S
C764 H748 0.959 . S
C764 H749 0.959 . S
C764 H750 0.961 . S
C764 C763 1.502 . S
C765 H751 0.960 . S
C765 H752 0.961 . S
C765 H753 0.959 . S
C765 C763 1.561 . S
C766 C763 1.526 . S
C766 C767 1.396 . S
C766 C771 1.390 . S
C767 C761 1.465 . S
C767 C766 1.396 . S
C767 C768 1.399 . S
C768 H754 0.929 . S
C768 C767 1.399 . S
C768 C769 1.385 . S
C769 H755 0.931 . S
C769 C768 1.385 . S
C769 C770 1.389 . S
C770 C769 1.389 . S
C770 C771 1.387 . S
C771 H756 0.930 . S
C771 C766 1.390 . S
C771 C770 1.387 . S
H772 C784 0.930 . S
H773 C786 0.930 . S
H774 C787 0.930 . S
H775 C791 0.959 . S
H776 C791 0.959 . S
H777 C791 0.961 . S
H778 C792 0.960 . S
H779 C792 0.961 . S
H780 C792 0.959 . S
H781 C795 0.929 . S
H782 C796 0.931 . S
H783 C798 0.930 . S
C784 H772 0.930 . S
C784 C785 1.399 . S
C784 C789 1.399 . S
C785 C784 1.399 . S
C785 C786 1.376 . S
C786 H773 0.930 . S
C786 C785 1.376 . S
C786 C787 1.388 . S
C787 H774 0.930 . S
C787 C786 1.388 . S
C787 C788 1.390 . S
C788 C787 1.390 . S
C788 C789 1.394 . S
C788 C794 1.465 . S
C789 C784 1.399 . S
C789 C788 1.394 . S
C789 C790 1.516 . S
C790 C789 1.516 . S
C790 C791 1.502 . S
C790 C792 1.561 . S
C790 C793 1.526 . S
C791 H775 0.959 . S
C791 H776 0.959 . S
C791 H777 0.961 . S
C791 C790 1.502 . S
C792 H778 0.960 . S
C792 H779 0.961 . S
C792 H780 0.959 . S
C792 C790 1.561 . S
C793 C790 1.526 . S
C793 C794 1.396 . S
C793 C798 1.390 . S
C794 C788 1.465 . S
C794 C793 1.396 . S
C794 C795 1.399 . S
C795 H781 0.929 . S
C795 C794 1.399 . S
C795 C796 1.385 . S
C796 H782 0.931 . S
C796 C795 1.385 . S
C796 C797 1.389 . S
C797 C796 1.389 . S
C797 C798 1.387 . S
C798 H783 0.930 . S
C798 C793 1.390 . S
C798 C797 1.387 . S
H799 C811 0.930 . S
H800 C813 0.930 . S
H801 C814 0.930 . S
H802 C818 0.959 . S
H803 C818 0.959 . S
H804 C818 0.961 . S
H805 C819 0.960 . S
H806 C819 0.961 . S
H807 C819 0.959 . S
H808 C822 0.929 . S
H809 C823 0.931 . S
H810 C825 0.930 . S
C811 H799 0.930 . S
C811 C812 1.399 . S
C811 C816 1.399 . S
C812 C811 1.399 . S
C812 C813 1.376 . S
C813 H800 0.930 . S
C813 C812 1.376 . S
C813 C814 1.388 . S
C814 H801 0.930 . S
C814 C813 1.388 . S
C814 C815 1.390 . S
C815 C814 1.390 . S
C815 C816 1.394 . S
C815 C821 1.465 . S
C816 C811 1.399 . S
C816 C815 1.394 . S
C816 C817 1.516 . S
C817 C816 1.516 . S
C817 C818 1.502 . S
C817 C819 1.561 . S
C817 C820 1.526 . S
C818 H802 0.959 . S
C818 H803 0.959 . S
C818 H804 0.961 . S
C818 C817 1.502 . S
C819 H805 0.960 . S
C819 H806 0.961 . S
C819 H807 0.959 . S
C819 C817 1.561 . S
C820 C817 1.526 . S
C820 C821 1.396 . S
C820 C825 1.390 . S
C821 C815 1.465 . S
C821 C820 1.396 . S
C821 C822 1.399 . S
C822 H808 0.929 . S
C822 C821 1.399 . S
C822 C823 1.385 . S
C823 H809 0.931 . S
C823 C822 1.385 . S
C823 C824 1.389 . S
C824 C823 1.389 . S
C824 C825 1.387 . S
C825 H810 0.930 . S
C825 C820 1.390 . S
C825 C824 1.387 . S
H826 C838 0.930 . S
H827 C840 0.930 . S
H828 C841 0.930 . S
H829 C845 0.959 . S
H830 C845 0.959 . S
H831 C845 0.961 . S
H832 C846 0.960 . S
H833 C846 0.961 . S
H834 C846 0.959 . S
H835 C849 0.929 . S
H836 C850 0.931 . S
H837 C852 0.930 . S
C838 H826 0.930 . S
C838 C839 1.399 . S
C838 C843 1.399 . S
C839 C838 1.399 . S
C839 C840 1.376 . S
C840 H827 0.930 . S
C840 C839 1.376 . S
C840 C841 1.388 . S
C841 H828 0.930 . S
C841 C840 1.388 . S
C841 C842 1.390 . S
C842 C841 1.390 . S
C842 C843 1.394 . S
C842 C848 1.465 . S
C843 C838 1.399 . S
C843 C842 1.394 . S
C843 C844 1.516 . S
C844 C843 1.516 . S
C844 C845 1.502 . S
C844 C846 1.561 . S
C844 C847 1.526 . S
C845 H829 0.959 . S
C845 H830 0.959 . S
C845 H831 0.961 . S
C845 C844 1.502 . S
C846 H832 0.960 . S
C846 H833 0.961 . S
C846 H834 0.959 . S
C846 C844 1.561 . S
C847 C844 1.526 . S
C847 C848 1.396 . S
C847 C852 1.390 . S
C848 C842 1.465 . S
C848 C847 1.396 . S
C848 C849 1.399 . S
C849 H835 0.929 . S
C849 C848 1.399 . S
C849 C850 1.385 . S
C850 H836 0.931 . S
C850 C849 1.385 . S
C850 C851 1.389 . S
C851 C850 1.389 . S
C851 C852 1.387 . S
C852 H837 0.930 . S
C852 C847 1.390 . S
C852 C851 1.387 . S
H853 C865 0.930 . S
H854 C867 0.930 . S
H855 C868 0.930 . S
H856 C872 0.959 . S
H857 C872 0.959 . S
H858 C872 0.961 . S
H859 C873 0.960 . S
H860 C873 0.961 . S
H861 C873 0.959 . S
H862 C876 0.929 . S
H863 C877 0.931 . S
H864 C879 0.930 . S
C865 H853 0.930 . S
C865 C866 1.399 . S
C865 C870 1.399 . S
C866 C865 1.399 . S
C866 C867 1.376 . S
C867 H854 0.930 . S
C867 C866 1.376 . S
C867 C868 1.388 . S
C868 H855 0.930 . S
C868 C867 1.388 . S
C868 C869 1.390 . S
C869 C868 1.390 . S
C869 C870 1.394 . S
C869 C875 1.465 . S
C870 C865 1.399 . S
C870 C869 1.394 . S
C870 C871 1.516 . S
C871 C870 1.516 . S
C871 C872 1.502 . S
C871 C873 1.561 . S
C871 C874 1.526 . S
C872 H856 0.959 . S
C872 H857 0.959 . S
C872 H858 0.961 . S
C872 C871 1.502 . S
C873 H859 0.960 . S
C873 H860 0.961 . S
C873 H861 0.959 . S
C873 C871 1.561 . S
C874 C871 1.526 . S
C874 C875 1.396 . S
C874 C879 1.390 . S
C875 C869 1.465 . S
C875 C874 1.396 . S
C875 C876 1.399 . S
C876 H862 0.929 . S
C876 C875 1.399 . S
C876 C877 1.385 . S
C877 H863 0.931 . S
C877 C876 1.385 . S
C877 C878 1.389 . S
C878 C877 1.389 . S
C878 C879 1.387 . S
C879 H864 0.930 . S
C879 C874 1.390 . S
C879 C878 1.387 . S
C245 C5 0.969 . S
C257 C79 1.010 . S
C272 C14 0.942 . S
C284 C128 0.929 . S
C311 C154 2.445 . S
C299 C25 2.497 . S
C326 C34 2.428 . S
C338 C202 2.394 . S
C365 C114 2.032 . S
C353 C7 1.966 . S
C392 C82 0.833 . S
C380 C13 0.828 . S
C419 C203 1.896 . S
C407 C23 1.948 . S
C446 C171 1.635 . S
C434 C31 1.679 . S
C461 C4 1.381 . S
C473 C199 1.453 . S
C500 C131 2.332 . S
C488 C22 2.386 . S
C515 C32 2.333 . S
C527 C83 2.337 . S
C542 C16 0.835 . S
C554 C168 0.870 . S
C581 C88 0.991 . S
C569 C41 1.014 . S
C596 C50 0.984 . S
C608 C119 0.914 . S
C623 C61 2.492 . S
C635 C163 2.449 . S
C650 C67 2.441 . S
C662 C211 2.369 . S
C677 C40 1.973 . S
C689 C123 2.050 . S
C716 C91 0.743 . S
C704 C52 0.741 . S
C743 C194 1.937 . S
C731 C59 1.947 . S
C770 C162 1.661 . S
C758 C70 1.676 . S
C785 C43 1.396 . S
C797 C208 1.458 . S
C824 C122 2.333 . S
C812 C58 2.397 . S
C851 C74 2.315 . S
C839 C68 2.320 . S
C866 C49 0.891 . S
C878 C159 0.908 . S
