# Generated by pormake.
# Topology rtl, (3,6)-cn, num edge types: 1
# Building blocks:
#     Node 0, Type 0, BuildingBlock: VETTIZ_charged_linker_0, # of connection points: 3
#     Node 1, Type 0, BuildingBlock: VETTIZ_charged_linker_0, # of connection points: 3
#     Node 2, Type 0, BuildingBlock: VETTIZ_charged_linker_0, # of connection points: 3
#     Node 3, Type 0, BuildingBlock: VETTIZ_charged_linker_0, # of connection points: 3
#     Node 4, Type 1, BuildingBlock: VOLQOD_clean_sbu_1, # of connection points: 6
#     Node 5, Type 1, BuildingBlock: VOLQOD_clean_sbu_1, # of connection points: 6
#     Edge 6, Type (0, 1), BuildingBlock: UVAHIK_clean_linker_0, # of connection points: 2
#     Edge 7, Type (0, 1), BuildingBlock: UVAHIK_clean_linker_0, # of connection points: 2
#     Edge 8, Type (0, 1), BuildingBlock: UVAHIK_clean_linker_0, # of connection points: 2
#     Edge 9, Type (0, 1), BuildingBlock: UVAHIK_clean_linker_0, # of connection points: 2
#     Edge 10, Type (0, 1), BuildingBlock: UVAHIK_clean_linker_0, # of connection points: 2
#     Edge 11, Type (0, 1), BuildingBlock: UVAHIK_clean_linker_0, # of connection points: 2
#     Edge 12, Type (0, 1), BuildingBlock: UVAHIK_clean_linker_0, # of connection points: 2
#     Edge 13, Type (0, 1), BuildingBlock: UVAHIK_clean_linker_0, # of connection points: 2
#     Edge 14, Type (0, 1), BuildingBlock: UVAHIK_clean_linker_0, # of connection points: 2
#     Edge 15, Type (0, 1), BuildingBlock: UVAHIK_clean_linker_0, # of connection points: 2
#     Edge 16, Type (0, 1), BuildingBlock: UVAHIK_clean_linker_0, # of connection points: 2
#     Edge 17, Type (0, 1), BuildingBlock: UVAHIK_clean_linker_0, # of connection points: 2
# Relax obj value: 0.081
# Max RMSD: 0.157
# Mean RMSD: 0.091
data_MOF--net-rtl--node1-VOLQOD_clean_sbu_1--node2-VETTIZ_charged_linker_0--edge1-UVAHIK_clean_linker_0
_symmetry_space_group_name_H-M    P1
_symmetry_Int_Tables_number       1
_symmetry_cell_setting            triclinic
loop_
_symmetry_equiv_pos_as_xyz
'x, y, z'
_cell_length_a     54.733185
_cell_length_b     47.267287
_cell_length_c     35.81414
_cell_angle_alpha  90.060787
_cell_angle_beta   90.306686
_cell_angle_gamma 90.06207
loop_
_atom_site_label
_atom_site_type_symbol
_atom_site_fract_x
_atom_site_fract_y
_atom_site_fract_z
_atom_type_partial_charge
C0 C 0.08891 0.74253 0.88763 0.0
C1 C 0.07025 0.76298 0.88587 0.0
C2 C 0.05818 0.77068 0.91907 0.0
C3 C 0.08457 0.73974 0.95493 0.0
C4 C 0.0958 0.73134 0.92232 0.0
C5 C 0.11645 0.71103 0.92945 0.0
H6 H 0.1919 0.64635 0.0527 0.0
C7 C 0.09731 0.72594 0.98646 0.0
C8 C 0.11592 0.70895 0.97177 0.0
H9 H 0.19459 0.64462 0.93213 0.0
H10 H 0.15734 0.6717 0.92871 0.0
H11 H 0.17825 0.71103 0.05929 0.0
H12 H 0.13204 0.63709 0.05925 0.0
H13 H 0.12101 0.66054 0.09337 0.0
H14 H 0.15137 0.64605 0.09817 0.0
H15 H 0.17755 0.68658 0.09761 0.0
H16 H 0.15622 0.71544 0.09428 0.0
C17 C 0.14036 0.72486 0.91517 0.0
C18 C 0.10995 0.68246 0.91063 0.0
C19 C 0.07494 0.75312 0.11877 0.0
C20 C 0.08453 0.74597 0.15401 0.0
C21 C 0.10312 0.72536 0.15617 0.0
C22 C 0.11245 0.71277 0.12371 0.0
C23 C 0.10324 0.721 0.08863 0.0
C24 C 0.08446 0.74045 0.08674 0.0
C25 C 0.07698 0.747 0.0473 0.0
C26 C 0.09453 0.72849 0.02567 0.0
C27 C 0.11001 0.71344 0.04992 0.0
C28 C 0.08158 0.77897 0.04032 0.0
C29 C 0.05009 0.73744 0.04185 0.0
C30 C 0.18419 0.65147 0.02563 0.0
C31 C 0.1962 0.64355 0.99263 0.0
C32 C 0.18579 0.65083 0.9579 0.0
C33 C 0.16416 0.66654 0.95598 0.0
C34 C 0.15294 0.67545 0.98916 0.0
C35 C 0.16271 0.66752 0.02325 0.0
C36 C 0.14857 0.67955 0.05551 0.0
C37 C 0.12886 0.69615 0.03512 0.0
C38 C 0.13162 0.69376 0.99626 0.0
C39 C 0.16592 0.69907 0.07821 0.0
C40 C 0.13774 0.65466 0.07811 0.0
H41 H 0.05556 0.76632 0.97769 0.0
H42 H 0.09837 0.73582 0.86267 0.0
H43 H 0.09 0.67813 0.91248 0.0
H44 H 0.11874 0.66419 0.92442 0.0
H45 H 0.11489 0.68255 0.8806 0.0
H46 H 0.14003 0.74819 0.91938 0.0
H47 H 0.14291 0.72086 0.88488 0.0
H48 H 0.1568 0.71775 0.93043 0.0
H49 H 0.06095 0.76917 0.11588 0.0
H50 H 0.11062 0.71915 0.18298 0.0
H51 H 0.12678 0.6975 0.12713 0.0
H52 H 0.098 0.78645 0.05594 0.0
H53 H 0.0658 0.79191 0.04962 0.0
H54 H 0.08553 0.78397 0.01088 0.0
H55 H 0.04607 0.71825 0.05872 0.0
H56 H 0.04589 0.73117 0.01277 0.0
H57 H 0.03718 0.75425 0.05065 0.0
H58 H 0.04396 0.7866 0.91879 0.0
C59 C 0.06513 0.75908 0.95344 0.0
C60 C 0.58869 0.75877 0.62589 0.0
C61 C 0.56757 0.7417 0.627 0.0
C62 C 0.55318 0.73916 0.59431 0.0
C63 C 0.58236 0.76709 0.55969 0.0
C64 C 0.59553 0.77147 0.59215 0.0
C65 C 0.61734 0.7903 0.58597 0.0
H66 H 0.69153 0.85933 0.4658 0.0
C67 C 0.59532 0.78123 0.52887 0.0
C68 C 0.61554 0.79545 0.54414 0.0
H69 H 0.6972 0.85473 0.58606 0.0
H70 H 0.65985 0.82766 0.58855 0.0
H71 H 0.67764 0.79565 0.45491 0.0
H72 H 0.63169 0.86938 0.46147 0.0
H73 H 0.62095 0.848 0.42456 0.0
H74 H 0.65142 0.86246 0.42262 0.0
H75 H 0.67473 0.82005 0.41682 0.0
H76 H 0.65388 0.79083 0.42254 0.0
C77 C 0.64062 0.77343 0.59654 0.0
C78 C 0.61368 0.81788 0.60873 0.0
C79 C 0.57137 0.7583 0.39536 0.0
C80 C 0.58167 0.76508 0.3606 0.0
C81 C 0.60095 0.7849 0.35942 0.0
C82 C 0.61043 0.79679 0.39238 0.0
C83 C 0.6007 0.78862 0.427 0.0
C84 C 0.58113 0.77017 0.42796 0.0
C85 C 0.5732 0.76357 0.46711 0.0
C86 C 0.59179 0.78038 0.4896 0.0
C87 C 0.60792 0.79493 0.46602 0.0
C88 C 0.57594 0.73126 0.47319 0.0
C89 C 0.54685 0.77488 0.4725 0.0
C90 C 0.68445 0.85286 0.49266 0.0
C91 C 0.69726 0.85913 0.52579 0.0
C92 C 0.68773 0.84992 0.56018 0.0
C93 C 0.66602 0.83427 0.56156 0.0
C94 C 0.65378 0.82744 0.52817 0.0
C95 C 0.66289 0.83691 0.49449 0.0
C96 C 0.64786 0.82674 0.4618 0.0
C97 C 0.62793 0.8102 0.48151 0.0
C98 C 0.63162 0.81054 0.52036 0.0
C99 C 0.66424 0.80745 0.43742 0.0
C100 C 0.63747 0.85289 0.44117 0.0
H101 H 0.54901 0.74839 0.53681 0.0
H102 H 0.60018 0.76152 0.65032 0.0
H103 H 0.59394 0.82289 0.61202 0.0
H104 H 0.62142 0.83667 0.5947 0.0
H105 H 0.62173 0.81603 0.63716 0.0
H106 H 0.63924 0.75123 0.58636 0.0
H107 H 0.64322 0.77276 0.62731 0.0
H108 H 0.65737 0.78194 0.58376 0.0
H109 H 0.55673 0.74297 0.39745 0.0
H110 H 0.60896 0.7909 0.33299 0.0
H111 H 0.62534 0.8114 0.3897 0.0
H112 H 0.59371 0.72371 0.462 0.0
H113 H 0.56114 0.71947 0.45861 0.0
H114 H 0.57585 0.72499 0.50278 0.0
H115 H 0.54252 0.79221 0.45253 0.0
H116 H 0.54419 0.78443 0.50044 0.0
H117 H 0.53308 0.7579 0.46812 0.0
H118 H 0.5363 0.72719 0.59443 0.0
C119 C 0.56047 0.75167 0.56079 0.0
C120 C 0.91652 0.26714 0.12976 0.0
C121 C 0.93646 0.24857 0.13302 0.0
C122 C 0.95032 0.24212 0.10113 0.0
C123 C 0.92289 0.27008 0.06287 0.0
C124 C 0.91025 0.27787 0.09453 0.0
C125 C 0.88952 0.29775 0.08583 0.0
H126 H 0.81465 0.35661 0.95706 0.0
C127 C 0.9105 0.28281 0.03028 0.0
C128 C 0.89121 0.29952 0.04353 0.0
H129 H 0.81283 0.36691 0.07692 0.0
H130 H 0.84998 0.33965 0.08303 0.0
H131 H 0.87175 0.36795 0.94914 0.0
H132 H 0.83059 0.29051 0.95684 0.0
H133 H 0.85181 0.28701 0.92042 0.0
H134 H 0.82879 0.31402 0.91756 0.0
H135 H 0.8554 0.35377 0.9098 0.0
H136 H 0.88641 0.34324 0.92031 0.0
C137 C 0.89494 0.32662 0.10479 0.0
C138 C 0.86545 0.28359 0.0986 0.0
C139 C 0.93299 0.24982 0.89999 0.0
C140 C 0.92325 0.25548 0.86434 0.0
C141 C 0.90485 0.27623 0.86082 0.0
C142 C 0.89562 0.29012 0.89234 0.0
C143 C 0.90476 0.28318 0.9279 0.0
C144 C 0.92357 0.26388 0.93116 0.0
C145 C 0.93128 0.25939 0.97108 0.0
C146 C 0.91362 0.27877 0.99131 0.0
C147 C 0.89793 0.29237 0.96591 0.0
C148 C 0.95816 0.26933 0.97558 0.0
C149 C 0.92695 0.22783 0.98072 0.0
C150 C 0.8223 0.35292 0.98459 0.0
C151 C 0.81073 0.36358 0.0166 0.0
C152 C 0.82147 0.35892 0.0519 0.0
C153 C 0.84293 0.34296 0.05539 0.0
C154 C 0.8538 0.33156 0.02326 0.0
C155 C 0.84384 0.33723 0.98854 0.0
C156 C 0.85839 0.32425 0.95742 0.0
C157 C 0.87857 0.30956 0.97924 0.0
C158 C 0.87551 0.3135 0.01782 0.0
C159 C 0.86845 0.34838 0.93256 0.0
C160 C 0.84165 0.3029 0.93663 0.0
H161 H 0.95455 0.24654 0.0427 0.0
H162 H 0.90586 0.27281 0.15404 0.0
H163 H 0.86491 0.26104 0.08968 0.0
H164 H 0.84899 0.29341 0.08646 0.0
H165 H 0.86383 0.28416 0.1295 0.0
H166 H 0.91489 0.32988 0.10917 0.0
H167 H 0.88604 0.32812 0.13252 0.0
H168 H 0.88913 0.34476 0.08735 0.0
H169 H 0.94701 0.23393 0.9039 0.0
H170 H 0.89738 0.28154 0.83366 0.0
H171 H 0.88138 0.30533 0.88785 0.0
H172 H 0.96297 0.28567 0.95451 0.0
H173 H 0.97109 0.25144 0.97214 0.0
H174 H 0.96159 0.2797 0.00284 0.0
H175 H 0.90899 0.22058 0.96956 0.0
H176 H 0.92633 0.22361 0.01093 0.0
H177 H 0.94134 0.21425 0.9683 0.0
H178 H 0.96576 0.22786 0.10308 0.0
C179 C 0.94366 0.2528 0.06609 0.0
C180 C 0.41637 0.24553 0.38995 0.0
C181 C 0.4348 0.26629 0.3895 0.0
C182 C 0.44796 0.27212 0.4225 0.0
C183 C 0.42216 0.23994 0.45682 0.0
C184 C 0.41029 0.23266 0.42402 0.0
C185 C 0.39001 0.21167 0.43069 0.0
H186 H 0.31411 0.14851 0.55372 0.0
C187 C 0.40978 0.22563 0.488 0.0
C188 C 0.39111 0.20864 0.47301 0.0
H189 H 0.31361 0.14098 0.43347 0.0
H190 H 0.35094 0.16832 0.43007 0.0
H191 H 0.37202 0.13782 0.56352 0.0
H192 H 0.32917 0.21411 0.55727 0.0
H193 H 0.35009 0.21758 0.5944 0.0
H194 H 0.32758 0.18991 0.5958 0.0
H195 H 0.35412 0.14997 0.60217 0.0
H196 H 0.38505 0.16212 0.59501 0.0
C197 C 0.39653 0.18366 0.41059 0.0
C198 C 0.36573 0.2252 0.41736 0.0
C199 C 0.42956 0.25675 0.62005 0.0
C200 C 0.41908 0.25072 0.65481 0.0
C201 C 0.40141 0.22911 0.65729 0.0
C202 C 0.39325 0.21493 0.62505 0.0
C203 C 0.40282 0.22256 0.59005 0.0
C204 C 0.42121 0.24253 0.58824 0.0
C205 C 0.4292 0.24827 0.54896 0.0
C206 C 0.41229 0.22877 0.52724 0.0
C207 C 0.39667 0.21402 0.55133 0.0
C208 C 0.45635 0.2393 0.5453 0.0
C209 C 0.42414 0.27997 0.54059 0.0
C210 C 0.32207 0.15279 0.52668 0.0
C211 C 0.31079 0.14299 0.49379 0.0
C212 C 0.32198 0.14837 0.45916 0.0
C213 C 0.34353 0.1644 0.45724 0.0
C214 C 0.35396 0.17519 0.49027 0.0
C215 C 0.34363 0.16861 0.52431 0.0
C216 C 0.3576 0.18113 0.55659 0.0
C217 C 0.37785 0.19666 0.53631 0.0
C218 C 0.37537 0.19355 0.4974 0.0
C219 C 0.36765 0.15665 0.58092 0.0
C220 C 0.34034 0.20168 0.57745 0.0
H221 H 0.45221 0.26485 0.4803 0.0
H222 H 0.4061 0.24054 0.36485 0.0
H223 H 0.36447 0.24749 0.42714 0.0
H224 H 0.34939 0.21452 0.42833 0.0
H225 H 0.3645 0.22528 0.38639 0.0
H226 H 0.41667 0.18076 0.40886 0.0
H227 H 0.38915 0.18329 0.38165 0.0
H228 H 0.38993 0.16482 0.42582 0.0
H229 H 0.44346 0.27296 0.61746 0.0
H230 H 0.39314 0.22409 0.68389 0.0
H231 H 0.37925 0.19926 0.62845 0.0
H232 H 0.46106 0.22207 0.56522 0.0
H233 H 0.46885 0.25732 0.55112 0.0
H234 H 0.46054 0.23039 0.51746 0.0
H235 H 0.40676 0.2869 0.55371 0.0
H236 H 0.4217 0.28463 0.51068 0.0
H237 H 0.439 0.29361 0.55182 0.0
H238 H 0.46257 0.28761 0.42253 0.0
C239 C 0.44189 0.2589 0.45601 0.0
O240 O 0.94298 0.00475 0.50421 0.0
Zn241 Zn 0.97442 0.02728 0.50484 0.0
O242 O 0.00312 0.00257 0.5054 0.0
Zn243 Zn 0.02328 0.01084 0.54958 0.0
Zn244 Zn 0.9925 0.96316 0.50722 0.0
Zn245 Zn 0.02209 0.00875 0.45989 0.0
O246 O 0.05739 0.02214 0.53461 0.0
O247 O 0.05627 0.02173 0.47258 0.0
O248 O 0.97408 0.05232 0.55023 0.0
O249 O 0.00878 0.04269 0.57995 0.0
O250 O 0.02609 0.97673 0.58331 0.0
O251 O 0.00512 0.94363 0.55303 0.0
O252 O 0.00473 0.94117 0.46307 0.0
O253 O 0.97461 0.05302 0.46007 0.0
O254 O 0.02483 0.97291 0.42944 0.0
O255 O 0.0068 0.03884 0.42755 0.0
C256 C 0.93862 0.97832 0.50632 0.0
C257 C 0.06773 0.02579 0.50318 0.0
C258 C 0.01804 0.9515 0.58079 0.0
C259 C 0.98895 0.05665 0.5771 0.0
C260 C 0.01721 0.94773 0.43447 0.0
C261 C 0.98835 0.05492 0.43161 0.0
O262 O 0.95587 0.96031 0.50807 0.0
O263 O 0.564 0.50701 0.00925 0.0
Zn264 Zn 0.53269 0.52958 0.00888 0.0
O265 O 0.50403 0.50465 0.00995 0.0
Zn266 Zn 0.48426 0.51032 0.96497 0.0
Zn267 Zn 0.51459 0.46511 0.01144 0.0
Zn268 Zn 0.48455 0.51344 0.05424 0.0
O269 O 0.45012 0.52246 0.97805 0.0
O270 O 0.45032 0.52515 0.03996 0.0
O271 O 0.53224 0.55423 0.96285 0.0
O272 O 0.49897 0.54026 0.93215 0.0
O273 O 0.4811 0.4746 0.93478 0.0
O274 O 0.50119 0.44263 0.96816 0.0
O275 O 0.50282 0.44598 0.0581 0.0
O276 O 0.53336 0.55583 0.05318 0.0
O277 O 0.48215 0.47939 0.08804 0.0
O278 O 0.49933 0.5456 0.08378 0.0
C279 C 0.56845 0.48055 0.00925 0.0
C280 C 0.4393 0.52756 0.00872 0.0
C281 C 0.4884 0.44932 0.93974 0.0
C282 C 0.5178 0.55598 0.93493 0.0
C283 C 0.49015 0.45413 0.08581 0.0
C284 C 0.51879 0.56014 0.08018 0.0
O285 O 0.55127 0.46235 0.00975 0.0
C286 C 0.28238 0.10349 0.47555 0.0
C287 C 0.28679 0.12855 0.49556 0.0
C288 C 0.25951 0.09029 0.47709 0.0
C289 C 0.20178 0.08942 0.5321 0.0
H290 H 0.17539 0.05391 0.44302 0.0
C291 C 0.10857 0.03252 0.53393 0.0
C292 C 0.09352 0.03521 0.50222 0.0
C293 C 0.13282 0.04178 0.53318 0.0
C294 C 0.18235 0.06397 0.46809 0.0
H295 H 0.27068 0.15983 0.53215 0.0
H296 H 0.23068 0.13748 0.53399 0.0
H297 H 0.21598 0.07475 0.44154 0.0
H298 H 0.09213 0.0498 0.44486 0.0
H299 H 0.13405 0.06691 0.44394 0.0
H300 H 0.16771 0.08006 0.55808 0.0
C301 C 0.24498 0.12732 0.51809 0.0
C302 C 0.20586 0.07555 0.46741 0.0
C303 C 0.26789 0.14025 0.51693 0.0
C304 C 0.10329 0.04725 0.4697 0.0
C305 C 0.12744 0.0569 0.46911 0.0
C306 C 0.17817 0.07818 0.53264 0.0
C307 C 0.24046 0.10211 0.49828 0.0
C308 C 0.21583 0.08862 0.49935 0.0
C309 C 0.14253 0.05436 0.50087 0.0
C310 C 0.16806 0.06543 0.50058 0.0
H311 H 0.29672 0.09393 0.45906 0.0
H312 H 0.25686 0.07069 0.46192 0.0
H313 H 0.20895 0.09883 0.55747 0.0
H314 H 0.10166 0.02306 0.55931 0.0
H315 H 0.14397 0.03891 0.55794 0.0
C316 C 0.22421 0.60589 0.01754 0.0
C317 C 0.22028 0.62932 0.99421 0.0
C318 C 0.24714 0.59285 0.01902 0.0
C319 C 0.30599 0.58832 0.96734 0.0
H320 H 0.33054 0.55938 0.06152 0.0
C321 C 0.39889 0.53173 0.97616 0.0
C322 C 0.41346 0.53671 0.00789 0.0
C323 C 0.37464 0.54085 0.97498 0.0
C324 C 0.32409 0.56759 0.03504 0.0
H325 H 0.23728 0.65801 0.95502 0.0
H326 H 0.27733 0.63599 0.95835 0.0
H327 H 0.28996 0.58017 0.05858 0.0
H328 H 0.41401 0.55514 0.06335 0.0
H329 H 0.37204 0.57206 0.06081 0.0
H330 H 0.34051 0.57722 0.94419 0.0
C331 C 0.26265 0.6269 0.97456 0.0
C332 C 0.3006 0.57914 0.03322 0.0
C333 C 0.2397 0.63965 0.97272 0.0
C334 C 0.4032 0.55084 0.03856 0.0
C335 C 0.37904 0.56037 0.03717 0.0
C336 C 0.32956 0.57714 0.96927 0.0
C337 C 0.26669 0.60325 0.99758 0.0
C338 C 0.2913 0.58984 -0.00062 0.0
C339 C 0.36445 0.55562 0.00527 0.0
C340 C 0.339 0.56672 0.00316 0.0
H341 H 0.20946 0.59745 0.03425 0.0
H342 H 0.24944 0.57446 0.03668 0.0
H343 H 0.29935 0.59585 0.94062 0.0
H344 H 0.40618 0.5206 0.95222 0.0
H345 H 0.36387 0.53622 0.95027 0.0
C346 C 0.74117 0.86319 0.54438 0.0
C347 C 0.72109 0.87398 0.5245 0.0
C348 C 0.76387 0.87659 0.5427 0.0
C349 C 0.79967 0.92769 0.48621 0.0
H350 H 0.8422 0.92633 0.57316 0.0
C351 C 0.89362 0.98554 0.49597 0.0
C352 C 0.91304 0.96822 0.50783 0.0
C353 C 0.86948 0.97583 0.49785 0.0
C354 C 0.8305 0.92681 0.54867 0.0
H355 H 0.70883 0.90741 0.48763 0.0
H356 H 0.74836 0.93145 0.48548 0.0
H357 H 0.80107 0.90693 0.57744 0.0
H358 H 0.92234 0.92724 0.53117 0.0
H359 H 0.88024 0.91063 0.53509 0.0
H360 H 0.82926 0.94813 0.45782 0.0
C361 C 0.74677 0.91223 0.50171 0.0
C362 C 0.80697 0.91556 0.55099 0.0
C363 C 0.72409 0.89857 0.50303 0.0
C364 C 0.90782 0.94108 0.5217 0.0
C365 C 0.88372 0.93161 0.52417 0.0
C366 C 0.82313 0.93935 0.48408 0.0
C367 C 0.76699 0.90136 0.52146 0.0
C368 C 0.79138 0.91533 0.5196 0.0
C369 C 0.86434 0.94887 0.51229 0.0
C370 C 0.83888 0.93855 0.51512 0.0
H371 H 0.73947 0.84398 0.56064 0.0
H372 H 0.77908 0.86713 0.55754 0.0
H373 H 0.78835 0.92761 0.46132 0.0
H374 H 0.89706 0.00653 0.48506 0.0
H375 H 0.85481 0.98955 0.48861 0.0
C376 C 0.76794 0.36629 0.99229 0.0
C377 C 0.78697 0.37835 0.01338 0.0
C378 C 0.74509 0.37933 0.9905 0.0
C379 C 0.70672 0.4323 0.03976 0.0
H380 H 0.66682 0.42551 0.95036 0.0
C381 C 0.61331 0.48865 0.01946 0.0
C382 C 0.59408 0.47065 0.00849 0.0
C383 C 0.63746 0.47901 0.01925 0.0
C384 C 0.67779 0.42751 0.97551 0.0
H385 H 0.79733 0.41381 0.04835 0.0
H386 H 0.75766 0.43725 0.04425 0.0
H387 H 0.70824 0.40661 0.95069 0.0
H388 H 0.58517 0.42862 0.9881 0.0
H389 H 0.6274 0.41207 0.98701 0.0
H390 H 0.67619 0.45376 0.06411 0.0
C391 C 0.76009 0.41728 0.02992 0.0
C392 C 0.70148 0.41655 0.97584 0.0
C393 C 0.78286 0.40397 0.03215 0.0
C394 C 0.59955 0.44297 0.99685 0.0
C395 C 0.62371 0.43353 0.996 0.0
C396 C 0.68315 0.44366 0.03917 0.0
C397 C 0.74081 0.405 0.00933 0.0
C398 C 0.71615 0.41838 0.00817 0.0
C399 C 0.64286 0.4514 0.00737 0.0
C400 C 0.66836 0.44099 0.00723 0.0
H401 H 0.77053 0.34631 0.97799 0.0
H402 H 0.73064 0.36884 0.97504 0.0
H403 H 0.71725 0.43376 0.06536 0.0
H404 H 0.60967 0.51006 0.02868 0.0
H405 H 0.65195 0.49321 0.02801 0.0
C406 C 0.09306 0.77059 0.21494 0.0
C407 C 0.07616 0.76147 0.18775 0.0
C408 C 0.08569 0.7883 0.24407 0.0
C409 C 0.04009 0.84228 0.26393 0.0
H410 H 0.06145 0.83452 0.36684 0.0
C411 C 0.03281 0.93269 0.37178 0.0
C412 C 0.02329 0.92549 0.40689 0.0
C413 C 0.03863 0.91163 0.34591 0.0
C414 C 0.05526 0.83685 0.33823 0.0
H415 H 0.03792 0.76226 0.17139 0.0
H416 H 0.02521 0.79354 0.22187 0.0
H417 H 0.07231 0.79814 0.3211 0.0
H418 H 0.01261 0.89045 0.44244 0.0
H419 H 0.02302 0.85373 0.3973 0.0
H420 H 0.02328 0.88109 0.28086 0.0
C421 C 0.04421 0.78726 0.22029 0.0
C422 C 0.06159 0.81616 0.31207 0.0
C423 C 0.05152 0.76939 0.19139 0.0
C424 C 0.01984 0.89675 0.4156 0.0
C425 C 0.02593 0.87569 0.38988 0.0
C426 C 0.03401 0.8631 0.28995 0.0
C427 C 0.06132 0.79738 0.24645 0.0
C428 C 0.05405 0.81869 0.27467 0.0
C429 C 0.03531 0.88293 0.35475 0.0
C430 C 0.04157 0.86062 0.32733 0.0
H431 H 0.11222 0.76518 0.21277 0.0
H432 H 0.0993 0.79594 0.26372 0.0
H433 H 0.03426 0.84494 0.23519 0.0
H434 H 0.03568 0.95461 0.36418 0.0
H435 H 0.04603 0.91778 0.31912 0.0
C436 C 0.55047 0.69845 0.65816 0.0
C437 C 0.56109 0.72551 0.66127 0.0
C438 C 0.54482 0.68277 0.68992 0.0
C439 C 0.5632 0.67017 0.78513 0.0
H440 H 0.49889 0.63675 0.79581 0.0
C441 C 0.53826 0.60012 0.91195 0.0
C442 C 0.52276 0.57693 0.90524 0.0
C443 C 0.54234 0.62027 0.88408 0.0
C444 C 0.51705 0.64557 0.79308 0.0
H445 H 0.5739 0.75719 0.70084 0.0
H446 H 0.5649 0.72903 0.75636 0.0
H447 H 0.50704 0.66835 0.74363 0.0
H448 H 0.49983 0.55631 0.8638 0.0
H449 H 0.50767 0.59062 0.81488 0.0
H450 H 0.5737 0.64645 0.8334 0.0
C451 C 0.56081 0.72032 0.72904 0.0
C452 C 0.52161 0.66385 0.76334 0.0
C453 C 0.56606 0.73632 0.6972 0.0
C454 C 0.51169 0.5741 0.86998 0.0
C455 C 0.51605 0.59396 0.84198 0.0
C456 C 0.55878 0.65149 0.8146 0.0
C457 C 0.55007 0.69346 0.7256 0.0
C458 C 0.54478 0.67606 0.75888 0.0
C459 C 0.53128 0.61746 0.84869 0.0
C460 C 0.53571 0.63864 0.81868 0.0
H461 H 0.54697 0.68896 0.63114 0.0
H462 H 0.53689 0.6619 0.68656 0.0
H463 H 0.58129 0.67917 0.78203 0.0
H464 H 0.54692 0.60301 0.93896 0.0
H465 H 0.5539 0.63824 0.89051 0.0
C466 C 0.92315 0.21909 0.18692 0.0
C467 C 0.94173 0.23409 0.16872 0.0
C468 C 0.92851 0.20248 0.21811 0.0
C469 C 0.98097 0.16668 0.26425 0.0
H470 H 0.93262 0.1516 0.34033 0.0
C471 C 0.99209 0.07379 0.36663 0.0
C472 C 0.98308 0.07667 0.40305 0.0
C473 C 0.9873 0.09447 0.33974 0.0
C474 C 0.94654 0.15582 0.31971 0.0
H475 H 0.98018 0.24477 0.16972 0.0
H476 H 0.98947 0.21686 0.22532 0.0
H477 H 0.92431 0.18695 0.2929 0.0
H478 H 0.96234 0.10371 0.44011 0.0
H479 H 0.95482 0.14035 0.39377 0.0
H480 H 0.00365 0.1365 0.29198 0.0
C481 C 0.97089 0.21698 0.21483 0.0
C482 C 0.94159 0.17585 0.29203 0.0
C483 C 0.96558 0.23318 0.18318 0.0
C484 C 0.96932 0.10076 0.41213 0.0
C485 C 0.96491 0.12171 0.38544 0.0
C486 C 0.9861 0.14702 0.29229 0.0
C487 C 0.95253 0.20085 0.23222 0.0
C488 C 0.95856 0.18124 0.26354 0.0
C489 C 0.97378 0.11884 0.34881 0.0
C490 C 0.9688 0.14094 0.32008 0.0
H491 H 0.90465 0.21917 0.17597 0.0
H492 H 0.91392 0.19005 0.23016 0.0
H493 H 0.99443 0.16986 0.24262 0.0
H494 H 0.0026 0.05534 0.35872 0.0
H495 H 0.99398 0.09108 0.31169 0.0
C496 C 0.43124 0.25703 0.72217 0.0
C497 C 0.42509 0.26878 0.68736 0.0
C498 C 0.4373 0.27466 0.75233 0.0
C499 C 0.42868 0.34694 0.78739 0.0
H500 H 0.48933 0.33561 0.84174 0.0
C501 C 0.47002 0.43468 0.87854 0.0
C502 C 0.48134 0.4272 0.91241 0.0
C503 C 0.46266 0.41387 0.85318 0.0
C504 C 0.47214 0.33884 0.82727 0.0
H505 H 0.41969 0.30794 0.65697 0.0
H506 H 0.43004 0.33856 0.70943 0.0
H507 H 0.47655 0.30116 0.79455 0.0
H508 H 0.4939 0.3919 0.94611 0.0
H509 H 0.48062 0.35555 0.90209 0.0
H510 H 0.42409 0.38447 0.81984 0.0
C511 C 0.43034 0.31585 0.71349 0.0
C512 C 0.46486 0.3191 0.80027 0.0
C513 C 0.42464 0.29833 0.6834 0.0
C514 C 0.48531 0.3984 0.92019 0.0
C515 C 0.47779 0.37755 0.89489 0.0
C516 C 0.43582 0.3665 0.81452 0.0
C517 C 0.4368 0.30424 0.74821 0.0
C518 C 0.4433 0.3233 0.77957 0.0
C519 C 0.46623 0.38504 0.86117 0.0
C520 C 0.45789 0.36303 0.83426 0.0
H521 H 0.43174 0.2343 0.72585 0.0
H522 H 0.44214 0.26522 0.77889 0.0
H523 H 0.41178 0.35044 0.77221 0.0
H524 H 0.46685 0.45666 0.8715 0.0
H525 H 0.45431 0.42046 0.82713 0.0
C526 C 0.59075 0.73993 0.30045 0.0
C527 C 0.57353 0.74972 0.32645 0.0
C528 C 0.58358 0.72222 0.27107 0.0
C529 C 0.53704 0.66946 0.24875 0.0
H530 H 0.56185 0.67514 0.14785 0.0
C531 C 0.50659 0.5919 0.13303 0.0
C532 C 0.52435 0.58287 0.10746 0.0
C533 C 0.51168 0.61373 0.15825 0.0
C534 C 0.55498 0.67305 0.17601 0.0
H535 H 0.535 0.75005 0.34041 0.0
H536 H 0.52259 0.71881 0.28943 0.0
H537 H 0.57221 0.71163 0.19359 0.0
H538 H 0.56152 0.58959 0.08863 0.0
H539 H 0.57063 0.62706 0.13324 0.0
H540 H 0.52041 0.63057 0.23179 0.0
C541 C 0.54168 0.72458 0.29214 0.0
C542 C 0.56083 0.69404 0.20212 0.0
C543 C 0.54881 0.74244 0.32134 0.0
C544 C 0.54737 0.59611 0.10781 0.0
C545 C 0.55253 0.61777 0.13325 0.0
C546 C 0.53136 0.64837 0.22278 0.0
C547 C 0.55907 0.71379 0.2672 0.0
C548 C 0.55197 0.69241 0.23879 0.0
C549 C 0.53474 0.62692 0.15875 0.0
C550 C 0.54033 0.64981 0.1861 0.0
H551 H 0.60998 0.74478 0.30378 0.0
H552 H 0.59742 0.71406 0.25245 0.0
H553 H 0.53029 0.66738 0.27699 0.0
H554 H 0.48859 0.58233 0.13332 0.0
H555 H 0.4974 0.62049 0.17705 0.0
C556 C 0.9139 0.22945 0.8048 0.0
C557 C 0.93113 0.23852 0.83151 0.0
C558 C 0.92076 0.21145 0.77576 0.0
C559 C 0.97447 0.18251 0.7254 0.0
H560 H 0.92923 0.12209 0.70046 0.0
C561 C 0.00019 0.0864 0.63281 0.0
C562 C 0.98295 0.07832 0.60553 0.0
C563 C 0.99436 0.10684 0.65959 0.0
C564 C 0.94195 0.139 0.70686 0.0
H565 H 0.96939 0.23665 0.84753 0.0
H566 H 0.98117 0.2045 0.7976 0.0
H567 H 0.91827 0.15656 0.748 0.0
H568 H 0.94607 0.08554 0.58503 0.0
H569 H 0.93596 0.121 0.63179 0.0
H570 H 0.99833 0.16441 0.68456 0.0
C571 C 0.96239 0.21158 0.79885 0.0
C572 C 0.93565 0.15885 0.73402 0.0
C573 C 0.95556 0.22976 0.82778 0.0
C574 C 0.95979 0.09119 0.60563 0.0
C575 C 0.95393 0.11143 0.63254 0.0
C576 C 0.98085 0.16249 0.69837 0.0
C577 C 0.94498 0.20184 0.77281 0.0
C578 C 0.95177 0.18093 0.74356 0.0
C579 C 0.97112 0.11944 0.65983 0.0
C580 C 0.9646 0.14059 0.68874 0.0
H581 H 0.89488 0.23547 0.80695 0.0
H582 H 0.90695 0.2048 0.75583 0.0
H583 H 0.98721 0.19942 0.73172 0.0
H584 H 0.01821 0.07695 0.63351 0.0
H585 H 0.00791 0.11244 0.68049 0.0
C586 C 0.44352 0.27165 0.32094 0.0
C587 C 0.43917 0.28385 0.35603 0.0
C588 C 0.44904 0.28884 0.29024 0.0
C589 C 0.47137 0.36127 0.26873 0.0
H590 H 0.44742 0.3453 0.16883 0.0
C591 C 0.47523 0.44311 0.1502 0.0
C592 C 0.48439 0.43369 0.11579 0.0
C593 C 0.46996 0.42382 0.17856 0.0
C594 C 0.45437 0.34984 0.19658 0.0
H595 H 0.43565 0.32335 0.38623 0.0
H596 H 0.44451 0.35324 0.33289 0.0
H597 H 0.43732 0.31314 0.22 0.0
H598 H 0.49481 0.39652 0.08397 0.0
H599 H 0.48531 0.36283 0.13352 0.0
H600 H 0.4879 0.39827 0.24551 0.0
C601 C 0.44468 0.33051 0.32906 0.0
C602 C 0.44867 0.33141 0.22584 0.0
C603 C 0.43947 0.31341 0.35962 0.0
C604 C 0.48789 0.40449 0.11022 0.0
C605 C 0.48231 0.38517 0.13845 0.0
C606 C 0.47681 0.37977 0.23965 0.0
C607 C 0.45002 0.31849 0.29413 0.0
C608 C 0.45689 0.33709 0.26238 0.0
C609 C 0.47346 0.39468 0.17296 0.0
C610 C 0.4682 0.3744 0.20337 0.0
H611 H 0.44335 0.24888 0.31755 0.0
H612 H 0.45315 0.27888 0.26377 0.0
H613 H 0.47857 0.36594 0.29628 0.0
H614 H 0.47231 0.46543 0.1554 0.0
H615 H 0.46295 0.43168 0.20482 0.0
C616 C 0.04051 0.78596 0.84155 0.0
C617 C 0.06459 0.77788 0.85033 0.0
C618 C 0.03563 0.80265 0.81023 0.0
C619 C 0.06621 0.85333 0.74742 0.0
H620 H 0.00657 0.84582 0.68939 0.0
C621 C 0.03472 0.93957 0.64423 0.0
C622 C 0.02376 0.9308 0.61059 0.0
C623 C 0.03987 0.91997 0.67237 0.0
C624 C 0.02345 0.84805 0.70504 0.0
H625 H 0.10231 0.78034 0.83215 0.0
H626 H 0.09366 0.80842 0.77685 0.0
H627 H 0.01551 0.8118 0.73859 0.0
H628 H 0.00988 0.89446 0.57997 0.0
H629 H 0.01934 0.86029 0.62865 0.0
H630 H 0.07447 0.88913 0.71332 0.0
C631 C 0.0786 0.80242 0.79467 0.0
C632 C 0.02843 0.82872 0.73357 0.0
C633 C 0.08351 0.78591 0.82613 0.0
C634 C 0.01819 0.90199 0.60565 0.0
C635 C 0.02349 0.88238 0.63367 0.0
C636 C 0.06131 0.87253 0.71876 0.0
C637 C 0.05468 0.81151 0.78677 0.0
C638 C 0.04981 0.83122 0.75527 0.0
C639 C 0.03434 0.89112 0.66742 0.0
C640 C 0.03979 0.87027 0.69738 0.0
H641 H 0.02545 0.7798 0.85927 0.0
H642 H 0.017 0.80939 0.80516 0.0
H643 H 0.08269 0.85618 0.76388 0.0
H644 H 0.03912 0.96162 0.64903 0.0
H645 H 0.04787 0.92753 0.69825 0.0
loop_
_geom_bond_atom_site_label_1
_geom_bond_atom_site_label_2
_geom_bond_distance
_geom_bond_site_symmetry_2
_ccdc_geom_bond_type
C0 C1 1.391 . S
C0 C4 1.391 . S
C0 H42 0.948 . S
C1 C0 1.391 . S
C1 C2 1.391 . S
C2 C1 1.391 . S
C2 H58 0.947 . S
C2 C59 1.392 . S
C3 C4 1.391 . S
C3 C7 1.397 . S
C3 C59 1.419 . S
C4 C0 1.391 . S
C4 C3 1.391 . S
C4 C5 1.399 . S
C5 C4 1.399 . S
C5 C8 1.396 . S
C5 C17 1.453 . S
C5 C18 1.684 . S
H6 C30 0.948 . S
C7 C3 1.397 . S
C7 C8 1.394 . S
C7 C26 1.723 1_556 S
C8 C5 1.396 . S
C8 C7 1.394 . S
C8 C38 1.723 1_556 S
H9 C32 0.947 . S
H10 C33 0.948 . S
H11 C39 0.982 . S
H12 C40 0.979 . S
H13 C40 0.980 . S
H14 C40 0.983 . S
H15 C39 0.979 . S
H16 C39 0.977 . S
C17 C5 1.453 . S
C17 H46 0.982 . S
C17 H47 0.979 . S
C17 H48 0.977 . S
C18 C5 1.684 . S
C18 H43 0.979 . S
C18 H44 0.980 . S
C18 H45 0.983 . S
C19 C20 1.391 . S
C19 C24 1.391 . S
C19 H49 0.948 . S
C20 C19 1.391 . S
C20 C21 1.391 . S
C21 C20 1.391 . S
C21 C22 1.392 . S
C21 H50 0.947 . S
C22 C21 1.392 . S
C22 C23 1.419 . S
C22 H51 0.948 . S
C23 C22 1.419 . S
C23 C24 1.391 . S
C23 C27 1.397 . S
C24 C19 1.391 . S
C24 C23 1.391 . S
C24 C25 1.399 . S
C25 C24 1.399 . S
C25 C26 1.396 . S
C25 C28 1.453 . S
C25 C29 1.684 . S
C26 C7 1.723 1_554 S
C26 C25 1.396 . S
C26 C27 1.394 . S
C27 C23 1.397 . S
C27 C26 1.394 . S
C27 C37 1.723 . S
C28 C25 1.453 . S
C28 H52 0.982 . S
C28 H53 0.979 . S
C28 H54 0.977 . S
C29 C25 1.684 . S
C29 H55 0.979 . S
C29 H56 0.980 . S
C29 H57 0.983 . S
C30 H6 0.948 . S
C30 C31 1.391 . S
C30 C35 1.391 . S
C31 C30 1.391 . S
C31 C32 1.391 1_554 S
C32 H9 0.947 . S
C32 C31 1.391 1_556 S
C32 C33 1.392 . S
C33 H10 0.948 . S
C33 C32 1.392 . S
C33 C34 1.419 . S
C34 C33 1.419 . S
C34 C35 1.391 1_556 S
C34 C38 1.397 1_556 S
C35 C30 1.391 . S
C35 C34 1.391 1_554 S
C35 C36 1.399 . S
C36 C35 1.399 . S
C36 C37 1.396 . S
C36 C39 1.453 . S
C36 C40 1.684 . S
C37 C27 1.723 . S
C37 C36 1.396 . S
C37 C38 1.394 . S
C38 C8 1.723 1_554 S
C38 C34 1.397 1_554 S
C38 C37 1.394 . S
C39 H11 0.982 . S
C39 H15 0.979 . S
C39 H16 0.977 . S
C39 C36 1.453 . S
C40 H12 0.979 . S
C40 H13 0.980 . S
C40 H14 0.983 . S
C40 C36 1.684 . S
H41 C59 0.948 . S
H42 C0 0.948 . S
H43 C18 0.979 . S
H44 C18 0.980 . S
H45 C18 0.983 . S
H46 C17 0.982 . S
H47 C17 0.979 . S
H48 C17 0.977 . S
H49 C19 0.948 . S
H50 C21 0.947 . S
H51 C22 0.948 . S
H52 C28 0.982 . S
H53 C28 0.979 . S
H54 C28 0.977 . S
H55 C29 0.979 . S
H56 C29 0.980 . S
H57 C29 0.983 . S
H58 C2 0.947 . S
C59 C2 1.392 . S
C59 C3 1.419 . S
C59 H41 0.948 . S
C60 C61 1.391 . S
C60 C64 1.391 . S
C60 H102 0.948 . S
C61 C60 1.391 . S
C61 C62 1.391 . S
C62 C61 1.391 . S
C62 H118 0.947 . S
C62 C119 1.392 . S
C63 C64 1.391 . S
C63 C67 1.397 . S
C63 C119 1.419 . S
C64 C60 1.391 . S
C64 C63 1.391 . S
C64 C65 1.399 . S
C65 C64 1.399 . S
C65 C68 1.396 . S
C65 C77 1.453 . S
C65 C78 1.684 . S
H66 C90 0.948 . S
C67 C63 1.397 . S
C67 C68 1.394 . S
C67 C86 1.723 . S
C68 C65 1.396 . S
C68 C67 1.394 . S
C68 C98 1.723 . S
H69 C92 0.947 . S
H70 C93 0.948 . S
H71 C99 0.982 . S
H72 C100 0.979 . S
H73 C100 0.980 . S
H74 C100 0.983 . S
H75 C99 0.979 . S
H76 C99 0.977 . S
C77 C65 1.453 . S
C77 H106 0.982 . S
C77 H107 0.979 . S
C77 H108 0.977 . S
C78 C65 1.684 . S
C78 H103 0.979 . S
C78 H104 0.980 . S
C78 H105 0.983 . S
C79 C80 1.391 . S
C79 C84 1.391 . S
C79 H109 0.948 . S
C80 C79 1.391 . S
C80 C81 1.391 . S
C81 C80 1.391 . S
C81 C82 1.392 . S
C81 H110 0.947 . S
C82 C81 1.392 . S
C82 C83 1.419 . S
C82 H111 0.948 . S
C83 C82 1.419 . S
C83 C84 1.391 . S
C83 C87 1.397 . S
C84 C79 1.391 . S
C84 C83 1.391 . S
C84 C85 1.399 . S
C85 C84 1.399 . S
C85 C86 1.396 . S
C85 C88 1.453 . S
C85 C89 1.684 . S
C86 C67 1.723 . S
C86 C85 1.396 . S
C86 C87 1.394 . S
C87 C83 1.397 . S
C87 C86 1.394 . S
C87 C97 1.723 . S
C88 C85 1.453 . S
C88 H112 0.982 . S
C88 H113 0.979 . S
C88 H114 0.977 . S
C89 C85 1.684 . S
C89 H115 0.979 . S
C89 H116 0.980 . S
C89 H117 0.983 . S
C90 H66 0.948 . S
C90 C91 1.391 . S
C90 C95 1.391 . S
C91 C90 1.391 . S
C91 C92 1.391 . S
C92 H69 0.947 . S
C92 C91 1.391 . S
C92 C93 1.392 . S
C93 H70 0.948 . S
C93 C92 1.392 . S
C93 C94 1.419 . S
C94 C93 1.419 . S
C94 C95 1.391 . S
C94 C98 1.397 . S
C95 C90 1.391 . S
C95 C94 1.391 . S
C95 C96 1.399 . S
C96 C95 1.399 . S
C96 C97 1.396 . S
C96 C99 1.453 . S
C96 C100 1.684 . S
C97 C87 1.723 . S
C97 C96 1.396 . S
C97 C98 1.394 . S
C98 C68 1.723 . S
C98 C94 1.397 . S
C98 C97 1.394 . S
C99 H71 0.982 . S
C99 H75 0.979 . S
C99 H76 0.977 . S
C99 C96 1.453 . S
C100 H72 0.979 . S
C100 H73 0.980 . S
C100 H74 0.983 . S
C100 C96 1.684 . S
H101 C119 0.948 . S
H102 C60 0.948 . S
H103 C78 0.979 . S
H104 C78 0.980 . S
H105 C78 0.983 . S
H106 C77 0.982 . S
H107 C77 0.979 . S
H108 C77 0.977 . S
H109 C79 0.948 . S
H110 C81 0.947 . S
H111 C82 0.948 . S
H112 C88 0.982 . S
H113 C88 0.979 . S
H114 C88 0.977 . S
H115 C89 0.979 . S
H116 C89 0.980 . S
H117 C89 0.983 . S
H118 C62 0.947 . S
C119 C62 1.392 . S
C119 C63 1.419 . S
C119 H101 0.948 . S
C120 C121 1.391 . S
C120 C124 1.391 . S
C120 H162 0.948 . S
C121 C120 1.391 . S
C121 C122 1.391 . S
C122 C121 1.391 . S
C122 H178 0.947 . S
C122 C179 1.392 . S
C123 C124 1.391 . S
C123 C127 1.397 . S
C123 C179 1.419 . S
C124 C120 1.391 . S
C124 C123 1.391 . S
C124 C125 1.399 . S
C125 C124 1.399 . S
C125 C128 1.396 . S
C125 C137 1.453 . S
C125 C138 1.684 . S
H126 C150 0.948 . S
C127 C123 1.397 . S
C127 C128 1.394 . S
C127 C146 1.723 1_554 S
C128 C125 1.396 . S
C128 C127 1.394 . S
C128 C158 1.723 . S
H129 C152 0.947 . S
H130 C153 0.948 . S
H131 C159 0.982 . S
H132 C160 0.979 . S
H133 C160 0.980 . S
H134 C160 0.983 . S
H135 C159 0.979 . S
H136 C159 0.977 . S
C137 C125 1.453 . S
C137 H166 0.982 . S
C137 H167 0.979 . S
C137 H168 0.977 . S
C138 C125 1.684 . S
C138 H163 0.979 . S
C138 H164 0.980 . S
C138 H165 0.983 . S
C139 C140 1.391 . S
C139 C144 1.391 . S
C139 H169 0.948 . S
C140 C139 1.391 . S
C140 C141 1.391 . S
C141 C140 1.391 . S
C141 C142 1.392 . S
C141 H170 0.947 . S
C142 C141 1.392 . S
C142 C143 1.419 . S
C142 H171 0.948 . S
C143 C142 1.419 . S
C143 C144 1.391 . S
C143 C147 1.397 . S
C144 C139 1.391 . S
C144 C143 1.391 . S
C144 C145 1.399 . S
C145 C144 1.399 . S
C145 C146 1.396 . S
C145 C148 1.453 . S
C145 C149 1.684 . S
C146 C127 1.723 1_556 S
C146 C145 1.396 . S
C146 C147 1.394 . S
C147 C143 1.397 . S
C147 C146 1.394 . S
C147 C157 1.723 . S
C148 C145 1.453 . S
C148 H172 0.982 . S
C148 H173 0.979 . S
C148 H174 0.977 1_556 S
C149 C145 1.684 . S
C149 H175 0.979 . S
C149 H176 0.980 1_556 S
C149 H177 0.983 . S
C150 H126 0.948 . S
C150 C151 1.391 1_556 S
C150 C155 1.391 . S
C151 C150 1.391 1_554 S
C151 C152 1.391 . S
C152 H129 0.947 . S
C152 C151 1.391 . S
C152 C153 1.392 . S
C153 H130 0.948 . S
C153 C152 1.392 . S
C153 C154 1.419 . S
C154 C153 1.419 . S
C154 C155 1.391 1_554 S
C154 C158 1.397 . S
C155 C150 1.391 . S
C155 C154 1.391 1_556 S
C155 C156 1.399 . S
C156 C155 1.399 . S
C156 C157 1.396 . S
C156 C159 1.453 . S
C156 C160 1.684 . S
C157 C147 1.723 . S
C157 C156 1.396 . S
C157 C158 1.394 1_556 S
C158 C128 1.723 . S
C158 C154 1.397 . S
C158 C157 1.394 1_554 S
C159 H131 0.982 . S
C159 H135 0.979 . S
C159 H136 0.977 . S
C159 C156 1.453 . S
C160 H132 0.979 . S
C160 H133 0.980 . S
C160 H134 0.983 . S
C160 C156 1.684 . S
H161 C179 0.948 . S
H162 C120 0.948 . S
H163 C138 0.979 . S
H164 C138 0.980 . S
H165 C138 0.983 . S
H166 C137 0.982 . S
H167 C137 0.979 . S
H168 C137 0.977 . S
H169 C139 0.948 . S
H170 C141 0.947 . S
H171 C142 0.948 . S
H172 C148 0.982 . S
H173 C148 0.979 . S
H174 C148 0.977 1_554 S
H175 C149 0.979 . S
H176 C149 0.980 1_554 S
H177 C149 0.983 . S
H178 C122 0.947 . S
C179 C122 1.392 . S
C179 C123 1.419 . S
C179 H161 0.948 . S
C180 C181 1.391 . S
C180 C184 1.391 . S
C180 H222 0.948 . S
C181 C180 1.391 . S
C181 C182 1.391 . S
C182 C181 1.391 . S
C182 H238 0.947 . S
C182 C239 1.392 . S
C183 C184 1.391 . S
C183 C187 1.397 . S
C183 C239 1.419 . S
C184 C180 1.391 . S
C184 C183 1.391 . S
C184 C185 1.399 . S
C185 C184 1.399 . S
C185 C188 1.396 . S
C185 C197 1.453 . S
C185 C198 1.684 . S
H186 C210 0.948 . S
C187 C183 1.397 . S
C187 C188 1.394 . S
C187 C206 1.723 . S
C188 C185 1.396 . S
C188 C187 1.394 . S
C188 C218 1.723 . S
H189 C212 0.947 . S
H190 C213 0.948 . S
H191 C219 0.982 . S
H192 C220 0.979 . S
H193 C220 0.980 . S
H194 C220 0.983 . S
H195 C219 0.979 . S
H196 C219 0.977 . S
C197 C185 1.453 . S
C197 H226 0.982 . S
C197 H227 0.979 . S
C197 H228 0.977 . S
C198 C185 1.684 . S
C198 H223 0.979 . S
C198 H224 0.980 . S
C198 H225 0.983 . S
C199 C200 1.391 . S
C199 C204 1.391 . S
C199 H229 0.948 . S
C200 C199 1.391 . S
C200 C201 1.391 . S
C201 C200 1.391 . S
C201 C202 1.392 . S
C201 H230 0.947 . S
C202 C201 1.392 . S
C202 C203 1.419 . S
C202 H231 0.948 . S
C203 C202 1.419 . S
C203 C204 1.391 . S
C203 C207 1.397 . S
C204 C199 1.391 . S
C204 C203 1.391 . S
C204 C205 1.399 . S
C205 C204 1.399 . S
C205 C206 1.396 . S
C205 C208 1.453 . S
C205 C209 1.684 . S
C206 C187 1.723 . S
C206 C205 1.396 . S
C206 C207 1.394 . S
C207 C203 1.397 . S
C207 C206 1.394 . S
C207 C217 1.723 . S
C208 C205 1.453 . S
C208 H232 0.982 . S
C208 H233 0.979 . S
C208 H234 0.977 . S
C209 C205 1.684 . S
C209 H235 0.979 . S
C209 H236 0.980 . S
C209 H237 0.983 . S
C210 H186 0.948 . S
C210 C211 1.391 . S
C210 C215 1.391 . S
C211 C210 1.391 . S
C211 C212 1.391 . S
C212 H189 0.947 . S
C212 C211 1.391 . S
C212 C213 1.392 . S
C213 H190 0.948 . S
C213 C212 1.392 . S
C213 C214 1.419 . S
C214 C213 1.419 . S
C214 C215 1.391 . S
C214 C218 1.397 . S
C215 C210 1.391 . S
C215 C214 1.391 . S
C215 C216 1.399 . S
C216 C215 1.399 . S
C216 C217 1.396 . S
C216 C219 1.453 . S
C216 C220 1.684 . S
C217 C207 1.723 . S
C217 C216 1.396 . S
C217 C218 1.394 . S
C218 C188 1.723 . S
C218 C214 1.397 . S
C218 C217 1.394 . S
C219 H191 0.982 . S
C219 H195 0.979 . S
C219 H196 0.977 . S
C219 C216 1.453 . S
C220 H192 0.979 . S
C220 H193 0.980 . S
C220 H194 0.983 . S
C220 C216 1.684 . S
H221 C239 0.948 . S
H222 C180 0.948 . S
H223 C198 0.979 . S
H224 C198 0.980 . S
H225 C198 0.983 . S
H226 C197 0.982 . S
H227 C197 0.979 . S
H228 C197 0.977 . S
H229 C199 0.948 . S
H230 C201 0.947 . S
H231 C202 0.948 . S
H232 C208 0.982 . S
H233 C208 0.979 . S
H234 C208 0.977 . S
H235 C209 0.979 . S
H236 C209 0.980 . S
H237 C209 0.983 . S
H238 C182 0.947 . S
C239 C182 1.392 . S
C239 C183 1.419 . S
C239 H221 0.948 . S
O240 Zn241 1.953 1_565 S
O240 C256 1.225 . S
Zn241 O240 1.953 1_545 S
Zn241 O242 1.949 1_655 S
Zn241 O248 1.919 . S
Zn241 O253 1.924 . S
O242 Zn241 1.949 1_455 S
O242 Zn243 1.923 . S
O242 Zn244 1.950 1_445 S
O242 Zn245 1.945 . S
Zn243 O242 1.923 . S
Zn243 O246 1.933 . S
Zn243 O249 1.941 . S
Zn243 O250 1.965 1_545 S
Zn244 O242 1.950 1_665 S
Zn244 O251 1.938 1_655 S
Zn244 O252 1.906 1_655 S
Zn244 O262 1.953 . S
Zn245 O242 1.945 . S
Zn245 O247 1.932 . S
Zn245 O254 1.977 1_545 S
Zn245 O255 1.910 1_455 S
O246 Zn243 1.933 . S
O246 C257 1.226 . S
O247 Zn245 1.932 . S
O247 C257 1.307 . S
O248 Zn241 1.919 . S
O248 C259 1.253 . S
O249 Zn243 1.941 . S
O249 C259 1.283 1_455 S
O250 Zn243 1.965 1_565 S
O250 C258 1.303 . S
O251 Zn244 1.938 1_455 S
O251 C258 1.247 . S
O252 Zn244 1.906 1_455 S
O252 C260 1.304 . S
O253 Zn241 1.924 . S
O253 C261 1.311 . S
O254 Zn245 1.977 1_565 S
O254 C260 1.272 . S
O255 Zn245 1.910 1_655 S
O255 C261 1.231 . S
C256 O240 1.225 . S
C256 O262 1.298 . S
C257 O246 1.226 . S
C257 O247 1.307 . S
C258 O250 1.303 . S
C258 O251 1.247 . S
C259 O248 1.253 . S
C259 O249 1.283 1_655 S
C260 O252 1.304 . S
C260 O254 1.272 . S
C261 O253 1.311 . S
C261 O255 1.231 . S
O262 Zn244 1.953 . S
O262 C256 1.298 . S
O263 Zn264 1.952 1_556 S
O263 C279 1.220 1_556 S
Zn264 O263 1.952 1_554 S
Zn264 O265 1.949 . S
Zn264 O271 1.919 1_554 S
Zn264 O276 1.924 . S
O265 Zn264 1.949 . S
O265 Zn266 1.923 1_554 S
O265 Zn267 1.950 . S
O265 Zn268 1.945 . S
Zn266 O265 1.923 1_556 S
Zn266 O269 1.933 . S
Zn266 O272 1.941 . S
Zn266 O273 1.965 . S
Zn267 O265 1.950 . S
Zn267 O274 1.938 1_554 S
Zn267 O275 1.906 . S
Zn267 O285 1.953 . S
Zn268 O265 1.945 . S
Zn268 O270 1.932 . S
Zn268 O277 1.977 . S
Zn268 O278 1.910 . S
O269 Zn266 1.933 . S
O269 C280 1.226 1_556 S
O270 Zn268 1.932 . S
O270 C280 1.307 . S
O271 Zn264 1.919 1_556 S
O271 C282 1.253 . S
O272 Zn266 1.941 . S
O272 C282 1.283 . S
O273 Zn266 1.965 . S
O273 C281 1.303 . S
O274 Zn267 1.938 1_556 S
O274 C281 1.247 . S
O275 Zn267 1.906 . S
O275 C283 1.304 . S
O276 Zn264 1.924 . S
O276 C284 1.311 . S
O277 Zn268 1.977 . S
O277 C283 1.272 . S
O278 Zn268 1.910 . S
O278 C284 1.231 . S
C279 O263 1.220 1_554 S
C279 O285 1.298 . S
C280 O269 1.226 1_554 S
C280 O270 1.307 . S
C281 O273 1.303 . S
C281 O274 1.247 . S
C282 O271 1.253 . S
C282 O272 1.283 . S
C283 O275 1.304 . S
C283 O277 1.272 . S
C284 O276 1.311 . S
C284 O278 1.231 . S
O285 Zn267 1.953 . S
O285 C279 1.298 . S
C286 C287 1.349 . S
C286 C288 1.327 . S
C286 H311 0.950 . S
C287 C286 1.349 . S
C287 C303 1.349 . S
C288 C286 1.327 . S
C288 C307 1.429 . S
C288 H312 0.950 . S
C289 C306 1.574 . S
C289 C308 1.368 . S
C289 H313 0.949 . S
H290 C294 0.949 . S
C291 C292 1.349 . S
C291 C293 1.327 . S
C291 H314 0.950 . S
C292 C291 1.349 . S
C292 C304 1.349 . S
C293 C291 1.327 . S
C293 C309 1.429 . S
C293 H315 0.950 . S
C294 H290 0.949 . S
C294 C302 1.574 . S
C294 C310 1.368 . S
H295 C303 0.950 . S
H296 C301 0.950 . S
H297 C302 0.949 . S
H298 C304 0.950 . S
H299 C305 0.950 . S
H300 C306 0.949 . S
C301 H296 0.950 . S
C301 C303 1.327 . S
C301 C307 1.429 . S
C302 C294 1.574 . S
C302 H297 0.949 . S
C302 C308 1.368 . S
C303 C287 1.349 . S
C303 H295 0.950 . S
C303 C301 1.327 . S
C304 C292 1.349 . S
C304 H298 0.950 . S
C304 C305 1.327 . S
C305 H299 0.950 . S
C305 C304 1.327 . S
C305 C309 1.429 . S
C306 C289 1.574 . S
C306 H300 0.949 . S
C306 C310 1.368 . S
C307 C288 1.429 . S
C307 C301 1.429 . S
C307 C308 1.523 . S
C308 C289 1.368 . S
C308 C302 1.368 . S
C308 C307 1.523 . S
C309 C293 1.429 . S
C309 C305 1.429 . S
C309 C310 1.523 . S
C310 C294 1.368 . S
C310 C306 1.368 . S
C310 C309 1.523 . S
H311 C286 0.950 . S
H312 C288 0.950 . S
H313 C289 0.949 . S
H314 C291 0.950 . S
H315 C293 0.950 . S
C316 C317 1.349 . S
C316 C318 1.327 . S
C316 H341 0.950 . S
C317 C316 1.349 . S
C317 C333 1.349 1_554 S
C318 C316 1.327 . S
C318 C337 1.429 . S
C318 H342 0.950 . S
C319 C336 1.574 . S
C319 C338 1.368 1_556 S
C319 H343 0.949 . S
H320 C324 0.949 . S
C321 C322 1.349 1_556 S
C321 C323 1.327 . S
C321 H344 0.950 . S
C322 C321 1.349 1_554 S
C322 C334 1.349 . S
C323 C321 1.327 . S
C323 C339 1.429 1_556 S
C323 H345 0.950 . S
C324 H320 0.949 . S
C324 C332 1.574 . S
C324 C340 1.368 . S
H325 C333 0.950 . S
H326 C331 0.950 . S
H327 C332 0.949 . S
H328 C334 0.950 . S
H329 C335 0.950 . S
H330 C336 0.949 . S
C331 H326 0.950 . S
C331 C333 1.327 . S
C331 C337 1.429 1_556 S
C332 C324 1.574 . S
C332 H327 0.949 . S
C332 C338 1.368 . S
C333 C317 1.349 1_556 S
C333 H325 0.950 . S
C333 C331 1.327 . S
C334 C322 1.349 . S
C334 H328 0.950 . S
C334 C335 1.327 . S
C335 H329 0.950 . S
C335 C334 1.327 . S
C335 C339 1.429 . S
C336 C319 1.574 . S
C336 H330 0.949 . S
C336 C340 1.368 1_556 S
C337 C318 1.429 . S
C337 C331 1.429 1_554 S
C337 C338 1.523 . S
C338 C319 1.368 1_554 S
C338 C332 1.368 . S
C338 C337 1.523 . S
C339 C323 1.429 1_554 S
C339 C335 1.429 . S
C339 C340 1.523 . S
C340 C324 1.368 . S
C340 C336 1.368 1_554 S
C340 C339 1.523 . S
H341 C316 0.950 . S
H342 C318 0.950 . S
H343 C319 0.949 . S
H344 C321 0.950 . S
H345 C323 0.950 . S
C346 C347 1.349 . S
C346 C348 1.327 . S
C346 H371 0.950 . S
C347 C346 1.349 . S
C347 C363 1.349 . S
C348 C346 1.327 . S
C348 C367 1.429 . S
C348 H372 0.950 . S
C349 C366 1.574 . S
C349 C368 1.368 . S
C349 H373 0.949 . S
H350 C354 0.949 . S
C351 C352 1.349 . S
C351 C353 1.327 . S
C351 H374 0.950 . S
C352 C351 1.349 . S
C352 C364 1.349 . S
C353 C351 1.327 . S
C353 C369 1.429 . S
C353 H375 0.950 . S
C354 H350 0.949 . S
C354 C362 1.574 . S
C354 C370 1.368 . S
H355 C363 0.950 . S
H356 C361 0.950 . S
H357 C362 0.949 . S
H358 C364 0.950 . S
H359 C365 0.950 . S
H360 C366 0.949 . S
C361 H356 0.950 . S
C361 C363 1.327 . S
C361 C367 1.429 . S
C362 C354 1.574 . S
C362 H357 0.949 . S
C362 C368 1.368 . S
C363 C347 1.349 . S
C363 H355 0.950 . S
C363 C361 1.327 . S
C364 C352 1.349 . S
C364 H358 0.950 . S
C364 C365 1.327 . S
C365 H359 0.950 . S
C365 C364 1.327 . S
C365 C369 1.429 . S
C366 C349 1.574 . S
C366 H360 0.949 . S
C366 C370 1.368 . S
C367 C348 1.429 . S
C367 C361 1.429 . S
C367 C368 1.523 . S
C368 C349 1.368 . S
C368 C362 1.368 . S
C368 C367 1.523 . S
C369 C353 1.429 . S
C369 C365 1.429 . S
C369 C370 1.523 . S
C370 C354 1.368 . S
C370 C366 1.368 . S
C370 C369 1.523 . S
H371 C346 0.950 . S
H372 C348 0.950 . S
H373 C349 0.949 . S
H374 C351 0.950 . S
H375 C353 0.950 . S
C376 C377 1.349 1_556 S
C376 C378 1.327 . S
C376 H401 0.950 . S
C377 C376 1.349 1_554 S
C377 C393 1.349 . S
C378 C376 1.327 . S
C378 C397 1.429 1_556 S
C378 H402 0.950 . S
C379 C396 1.574 . S
C379 C398 1.368 . S
C379 H403 0.949 . S
H380 C384 0.949 . S
C381 C382 1.349 . S
C381 C383 1.327 . S
C381 H404 0.950 . S
C382 C381 1.349 . S
C382 C394 1.349 1_554 S
C383 C381 1.327 . S
C383 C399 1.429 . S
C383 H405 0.950 . S
C384 H380 0.949 . S
C384 C392 1.574 . S
C384 C400 1.368 1_556 S
H385 C393 0.950 . S
H386 C391 0.950 . S
H387 C392 0.949 . S
H388 C394 0.950 . S
H389 C395 0.950 . S
H390 C396 0.949 . S
C391 H386 0.950 . S
C391 C393 1.327 . S
C391 C397 1.429 . S
C392 C384 1.574 . S
C392 H387 0.949 . S
C392 C398 1.368 1_556 S
C393 C377 1.349 . S
C393 H385 0.950 . S
C393 C391 1.327 . S
C394 C382 1.349 1_556 S
C394 H388 0.950 . S
C394 C395 1.327 . S
C395 H389 0.950 . S
C395 C394 1.327 . S
C395 C399 1.429 1_556 S
C396 C379 1.574 . S
C396 H390 0.949 . S
C396 C400 1.368 . S
C397 C378 1.429 1_554 S
C397 C391 1.429 . S
C397 C398 1.523 . S
C398 C379 1.368 . S
C398 C392 1.368 1_554 S
C398 C397 1.523 . S
C399 C383 1.429 . S
C399 C395 1.429 1_554 S
C399 C400 1.523 . S
C400 C384 1.368 1_554 S
C400 C396 1.368 . S
C400 C399 1.523 . S
H401 C376 0.950 . S
H402 C378 0.950 . S
H403 C379 0.949 . S
H404 C381 0.950 . S
H405 C383 0.950 . S
C406 C407 1.349 . S
C406 C408 1.327 . S
C406 H431 0.950 . S
C407 C406 1.349 . S
C407 C423 1.349 . S
C408 C406 1.327 . S
C408 C427 1.429 . S
C408 H432 0.950 . S
C409 C426 1.574 . S
C409 C428 1.368 . S
C409 H433 0.949 . S
H410 C414 0.949 . S
C411 C412 1.349 . S
C411 C413 1.327 . S
C411 H434 0.950 . S
C412 C411 1.349 . S
C412 C424 1.349 . S
C413 C411 1.327 . S
C413 C429 1.429 . S
C413 H435 0.950 . S
C414 H410 0.949 . S
C414 C422 1.574 . S
C414 C430 1.368 . S
H415 C423 0.950 . S
H416 C421 0.950 . S
H417 C422 0.949 . S
H418 C424 0.950 . S
H419 C425 0.950 . S
H420 C426 0.949 . S
C421 H416 0.950 . S
C421 C423 1.327 . S
C421 C427 1.429 . S
C422 C414 1.574 . S
C422 H417 0.949 . S
C422 C428 1.368 . S
C423 C407 1.349 . S
C423 H415 0.950 . S
C423 C421 1.327 . S
C424 C412 1.349 . S
C424 H418 0.950 . S
C424 C425 1.327 . S
C425 H419 0.950 . S
C425 C424 1.327 . S
C425 C429 1.429 . S
C426 C409 1.574 . S
C426 H420 0.949 . S
C426 C430 1.368 . S
C427 C408 1.429 . S
C427 C421 1.429 . S
C427 C428 1.523 . S
C428 C409 1.368 . S
C428 C422 1.368 . S
C428 C427 1.523 . S
C429 C413 1.429 . S
C429 C425 1.429 . S
C429 C430 1.523 . S
C430 C414 1.368 . S
C430 C426 1.368 . S
C430 C429 1.523 . S
H431 C406 0.950 . S
H432 C408 0.950 . S
H433 C409 0.949 . S
H434 C411 0.950 . S
H435 C413 0.950 . S
C436 C437 1.349 . S
C436 C438 1.327 . S
C436 H461 0.950 . S
C437 C436 1.349 . S
C437 C453 1.349 . S
C438 C436 1.327 . S
C438 C457 1.429 . S
C438 H462 0.950 . S
C439 C456 1.574 . S
C439 C458 1.368 . S
C439 H463 0.949 . S
H440 C444 0.949 . S
C441 C442 1.349 . S
C441 C443 1.327 . S
C441 H464 0.950 . S
C442 C441 1.349 . S
C442 C454 1.349 . S
C443 C441 1.327 . S
C443 C459 1.429 . S
C443 H465 0.950 . S
C444 H440 0.949 . S
C444 C452 1.574 . S
C444 C460 1.368 . S
H445 C453 0.950 . S
H446 C451 0.950 . S
H447 C452 0.949 . S
H448 C454 0.950 . S
H449 C455 0.950 . S
H450 C456 0.949 . S
C451 H446 0.950 . S
C451 C453 1.327 . S
C451 C457 1.429 . S
C452 C444 1.574 . S
C452 H447 0.949 . S
C452 C458 1.368 . S
C453 C437 1.349 . S
C453 H445 0.950 . S
C453 C451 1.327 . S
C454 C442 1.349 . S
C454 H448 0.950 . S
C454 C455 1.327 . S
C455 H449 0.950 . S
C455 C454 1.327 . S
C455 C459 1.429 . S
C456 C439 1.574 . S
C456 H450 0.949 . S
C456 C460 1.368 . S
C457 C438 1.429 . S
C457 C451 1.429 . S
C457 C458 1.523 . S
C458 C439 1.368 . S
C458 C452 1.368 . S
C458 C457 1.523 . S
C459 C443 1.429 . S
C459 C455 1.429 . S
C459 C460 1.523 . S
C460 C444 1.368 . S
C460 C456 1.368 . S
C460 C459 1.523 . S
H461 C436 0.950 . S
H462 C438 0.950 . S
H463 C439 0.949 . S
H464 C441 0.950 . S
H465 C443 0.950 . S
C466 C467 1.349 . S
C466 C468 1.327 . S
C466 H491 0.950 . S
C467 C466 1.349 . S
C467 C483 1.349 . S
C468 C466 1.327 . S
C468 C487 1.429 . S
C468 H492 0.950 . S
C469 C486 1.574 . S
C469 C488 1.368 . S
C469 H493 0.949 . S
H470 C474 0.949 . S
C471 C472 1.349 . S
C471 C473 1.327 . S
C471 H494 0.950 . S
C472 C471 1.349 . S
C472 C484 1.349 . S
C473 C471 1.327 . S
C473 C489 1.429 . S
C473 H495 0.950 . S
C474 H470 0.949 . S
C474 C482 1.574 . S
C474 C490 1.368 . S
H475 C483 0.950 . S
H476 C481 0.950 . S
H477 C482 0.949 . S
H478 C484 0.950 . S
H479 C485 0.950 . S
H480 C486 0.949 . S
C481 H476 0.950 . S
C481 C483 1.327 . S
C481 C487 1.429 . S
C482 C474 1.574 . S
C482 H477 0.949 . S
C482 C488 1.368 . S
C483 C467 1.349 . S
C483 H475 0.950 . S
C483 C481 1.327 . S
C484 C472 1.349 . S
C484 H478 0.950 . S
C484 C485 1.327 . S
C485 H479 0.950 . S
C485 C484 1.327 . S
C485 C489 1.429 . S
C486 C469 1.574 . S
C486 H480 0.949 . S
C486 C490 1.368 . S
C487 C468 1.429 . S
C487 C481 1.429 . S
C487 C488 1.523 . S
C488 C469 1.368 . S
C488 C482 1.368 . S
C488 C487 1.523 . S
C489 C473 1.429 . S
C489 C485 1.429 . S
C489 C490 1.523 . S
C490 C474 1.368 . S
C490 C486 1.368 . S
C490 C489 1.523 . S
H491 C466 0.950 . S
H492 C468 0.950 . S
H493 C469 0.949 . S
H494 C471 0.950 . S
H495 C473 0.950 . S
C496 C497 1.349 . S
C496 C498 1.327 . S
C496 H521 0.950 . S
C497 C496 1.349 . S
C497 C513 1.349 . S
C498 C496 1.327 . S
C498 C517 1.429 . S
C498 H522 0.950 . S
C499 C516 1.574 . S
C499 C518 1.368 . S
C499 H523 0.949 . S
H500 C504 0.949 . S
C501 C502 1.349 . S
C501 C503 1.327 . S
C501 H524 0.950 . S
C502 C501 1.349 . S
C502 C514 1.349 . S
C503 C501 1.327 . S
C503 C519 1.429 . S
C503 H525 0.950 . S
C504 H500 0.949 . S
C504 C512 1.574 . S
C504 C520 1.368 . S
H505 C513 0.950 . S
H506 C511 0.950 . S
H507 C512 0.949 . S
H508 C514 0.950 . S
H509 C515 0.950 . S
H510 C516 0.949 . S
C511 H506 0.950 . S
C511 C513 1.327 . S
C511 C517 1.429 . S
C512 C504 1.574 . S
C512 H507 0.949 . S
C512 C518 1.368 . S
C513 C497 1.349 . S
C513 H505 0.950 . S
C513 C511 1.327 . S
C514 C502 1.349 . S
C514 H508 0.950 . S
C514 C515 1.327 . S
C515 H509 0.950 . S
C515 C514 1.327 . S
C515 C519 1.429 . S
C516 C499 1.574 . S
C516 H510 0.949 . S
C516 C520 1.368 . S
C517 C498 1.429 . S
C517 C511 1.429 . S
C517 C518 1.523 . S
C518 C499 1.368 . S
C518 C512 1.368 . S
C518 C517 1.523 . S
C519 C503 1.429 . S
C519 C515 1.429 . S
C519 C520 1.523 . S
C520 C504 1.368 . S
C520 C516 1.368 . S
C520 C519 1.523 . S
H521 C496 0.950 . S
H522 C498 0.950 . S
H523 C499 0.949 . S
H524 C501 0.950 . S
H525 C503 0.950 . S
C526 C527 1.349 . S
C526 C528 1.327 . S
C526 H551 0.950 . S
C527 C526 1.349 . S
C527 C543 1.349 . S
C528 C526 1.327 . S
C528 C547 1.429 . S
C528 H552 0.950 . S
C529 C546 1.574 . S
C529 C548 1.368 . S
C529 H553 0.949 . S
H530 C534 0.949 . S
C531 C532 1.349 . S
C531 C533 1.327 . S
C531 H554 0.950 . S
C532 C531 1.349 . S
C532 C544 1.349 . S
C533 C531 1.327 . S
C533 C549 1.429 . S
C533 H555 0.950 . S
C534 H530 0.949 . S
C534 C542 1.574 . S
C534 C550 1.368 . S
H535 C543 0.950 . S
H536 C541 0.950 . S
H537 C542 0.949 . S
H538 C544 0.950 . S
H539 C545 0.950 . S
H540 C546 0.949 . S
C541 H536 0.950 . S
C541 C543 1.327 . S
C541 C547 1.429 . S
C542 C534 1.574 . S
C542 H537 0.949 . S
C542 C548 1.368 . S
C543 C527 1.349 . S
C543 H535 0.950 . S
C543 C541 1.327 . S
C544 C532 1.349 . S
C544 H538 0.950 . S
C544 C545 1.327 . S
C545 H539 0.950 . S
C545 C544 1.327 . S
C545 C549 1.429 . S
C546 C529 1.574 . S
C546 H540 0.949 . S
C546 C550 1.368 . S
C547 C528 1.429 . S
C547 C541 1.429 . S
C547 C548 1.523 . S
C548 C529 1.368 . S
C548 C542 1.368 . S
C548 C547 1.523 . S
C549 C533 1.429 . S
C549 C545 1.429 . S
C549 C550 1.523 . S
C550 C534 1.368 . S
C550 C546 1.368 . S
C550 C549 1.523 . S
H551 C526 0.950 . S
H552 C528 0.950 . S
H553 C529 0.949 . S
H554 C531 0.950 . S
H555 C533 0.950 . S
C556 C557 1.349 . S
C556 C558 1.327 . S
C556 H581 0.950 . S
C557 C556 1.349 . S
C557 C573 1.349 . S
C558 C556 1.327 . S
C558 C577 1.429 . S
C558 H582 0.950 . S
C559 C576 1.574 . S
C559 C578 1.368 . S
C559 H583 0.949 . S
H560 C564 0.949 . S
C561 C562 1.349 1_455 S
C561 C563 1.327 1_455 S
C561 H584 0.950 . S
C562 C561 1.349 1_655 S
C562 C574 1.349 . S
C563 C561 1.327 1_655 S
C563 C579 1.429 . S
C563 H585 0.950 1_655 S
C564 H560 0.949 . S
C564 C572 1.574 . S
C564 C580 1.368 . S
H565 C573 0.950 . S
H566 C571 0.950 . S
H567 C572 0.949 . S
H568 C574 0.950 . S
H569 C575 0.950 . S
H570 C576 0.949 . S
C571 H566 0.950 . S
C571 C573 1.327 . S
C571 C577 1.429 . S
C572 C564 1.574 . S
C572 H567 0.949 . S
C572 C578 1.368 . S
C573 C557 1.349 . S
C573 H565 0.950 . S
C573 C571 1.327 . S
C574 C562 1.349 . S
C574 H568 0.950 . S
C574 C575 1.327 . S
C575 H569 0.950 . S
C575 C574 1.327 . S
C575 C579 1.429 . S
C576 C559 1.574 . S
C576 H570 0.949 . S
C576 C580 1.368 . S
C577 C558 1.429 . S
C577 C571 1.429 . S
C577 C578 1.523 . S
C578 C559 1.368 . S
C578 C572 1.368 . S
C578 C577 1.523 . S
C579 C563 1.429 . S
C579 C575 1.429 . S
C579 C580 1.523 . S
C580 C564 1.368 . S
C580 C576 1.368 . S
C580 C579 1.523 . S
H581 C556 0.950 . S
H582 C558 0.950 . S
H583 C559 0.949 . S
H584 C561 0.950 . S
H585 C563 0.950 1_455 S
C586 C587 1.349 . S
C586 C588 1.327 . S
C586 H611 0.950 . S
C587 C586 1.349 . S
C587 C603 1.349 . S
C588 C586 1.327 . S
C588 C607 1.429 . S
C588 H612 0.950 . S
C589 C606 1.574 . S
C589 C608 1.368 . S
C589 H613 0.949 . S
H590 C594 0.949 . S
C591 C592 1.349 . S
C591 C593 1.327 . S
C591 H614 0.950 . S
C592 C591 1.349 . S
C592 C604 1.349 . S
C593 C591 1.327 . S
C593 C609 1.429 . S
C593 H615 0.950 . S
C594 H590 0.949 . S
C594 C602 1.574 . S
C594 C610 1.368 . S
H595 C603 0.950 . S
H596 C601 0.950 . S
H597 C602 0.949 . S
H598 C604 0.950 . S
H599 C605 0.950 . S
H600 C606 0.949 . S
C601 H596 0.950 . S
C601 C603 1.327 . S
C601 C607 1.429 . S
C602 C594 1.574 . S
C602 H597 0.949 . S
C602 C608 1.368 . S
C603 C587 1.349 . S
C603 H595 0.950 . S
C603 C601 1.327 . S
C604 C592 1.349 . S
C604 H598 0.950 . S
C604 C605 1.327 . S
C605 H599 0.950 . S
C605 C604 1.327 . S
C605 C609 1.429 . S
C606 C589 1.574 . S
C606 H600 0.949 . S
C606 C610 1.368 . S
C607 C588 1.429 . S
C607 C601 1.429 . S
C607 C608 1.523 . S
C608 C589 1.368 . S
C608 C602 1.368 . S
C608 C607 1.523 . S
C609 C593 1.429 . S
C609 C605 1.429 . S
C609 C610 1.523 . S
C610 C594 1.368 . S
C610 C606 1.368 . S
C610 C609 1.523 . S
H611 C586 0.950 . S
H612 C588 0.950 . S
H613 C589 0.949 . S
H614 C591 0.950 . S
H615 C593 0.950 . S
C616 C617 1.349 . S
C616 C618 1.327 . S
C616 H641 0.950 . S
C617 C616 1.349 . S
C617 C633 1.349 . S
C618 C616 1.327 . S
C618 C637 1.429 . S
C618 H642 0.950 . S
C619 C636 1.574 . S
C619 C638 1.368 . S
C619 H643 0.949 . S
H620 C624 0.949 . S
C621 C622 1.349 . S
C621 C623 1.327 . S
C621 H644 0.950 . S
C622 C621 1.349 . S
C622 C634 1.349 . S
C623 C621 1.327 . S
C623 C639 1.429 . S
C623 H645 0.950 . S
C624 H620 0.949 . S
C624 C632 1.574 . S
C624 C640 1.368 . S
H625 C633 0.950 . S
H626 C631 0.950 . S
H627 C632 0.949 . S
H628 C634 0.950 1_655 S
H629 C635 0.950 1_655 S
H630 C636 0.949 . S
C631 H626 0.950 . S
C631 C633 1.327 . S
C631 C637 1.429 . S
C632 C624 1.574 . S
C632 H627 0.949 . S
C632 C638 1.368 . S
C633 C617 1.349 . S
C633 H625 0.950 . S
C633 C631 1.327 . S
C634 C622 1.349 . S
C634 H628 0.950 1_455 S
C634 C635 1.327 . S
C635 H629 0.950 1_455 S
C635 C634 1.327 . S
C635 C639 1.429 . S
C636 C619 1.574 . S
C636 H630 0.949 . S
C636 C640 1.368 . S
C637 C618 1.429 . S
C637 C631 1.429 . S
C637 C638 1.523 . S
C638 C619 1.368 . S
C638 C632 1.368 . S
C638 C637 1.523 . S
C639 C623 1.429 . S
C639 C635 1.429 . S
C639 C640 1.523 . S
C640 C624 1.368 . S
C640 C636 1.368 . S
C640 C639 1.523 . S
H641 C616 0.950 . S
H642 C618 0.950 . S
H643 C619 0.949 . S
H644 C621 0.950 . S
H645 C623 0.950 . S
C292 C257 1.630 . S
C287 C211 1.556 . S
C317 C31 1.611 . S
C322 C280 1.630 . S
C347 C91 1.632 . S
C352 C256 1.652 . S
C377 C151 1.576 . S
C382 C279 1.652 . S
C412 C260 1.587 . S
C407 C20 1.635 . S
C442 C282 1.615 . S
C437 C61 1.604 . S
C467 C121 1.552 . S
C472 C261 1.593 . S
C497 C200 1.579 . S
C502 C281 1.591 . S
C532 C284 1.593 . S
C527 C80 1.649 . S
C562 C259 1.615 . S
C557 C140 1.602 . S
C592 C283 1.587 . S
C587 C181 1.538 . S
C617 C1 1.582 . S
C622 C258 1.590 . S
