# Generated by pormake.
# Topology ftw, (4,12)-cn, num edge types: 1
# Building blocks:
#     Node 0, Type 0, BuildingBlock: MIFKUJ_clean_linker_1, # of connection points: 4
#     Node 1, Type 0, BuildingBlock: MIFKUJ_clean_linker_1, # of connection points: 4
#     Node 2, Type 0, BuildingBlock: MIFKUJ_clean_linker_1, # of connection points: 4
#     Node 3, Type 1, BuildingBlock: EZIPEK_clean_sbu_0, # of connection points: 12
#     Edge 4, Type (0, 1), BuildingBlock: UVAHIK_clean_linker_0, # of connection points: 2
#     Edge 5, Type (0, 1), BuildingBlock: UVAHIK_clean_linker_0, # of connection points: 2
#     Edge 6, Type (0, 1), BuildingBlock: UVAHIK_clean_linker_0, # of connection points: 2
#     Edge 7, Type (0, 1), BuildingBlock: UVAHIK_clean_linker_0, # of connection points: 2
#     Edge 8, Type (0, 1), BuildingBlock: UVAHIK_clean_linker_0, # of connection points: 2
#     Edge 9, Type (0, 1), BuildingBlock: UVAHIK_clean_linker_0, # of connection points: 2
#     Edge 10, Type (0, 1), BuildingBlock: UVAHIK_clean_linker_0, # of connection points: 2
#     Edge 11, Type (0, 1), BuildingBlock: UVAHIK_clean_linker_0, # of connection points: 2
#     Edge 12, Type (0, 1), BuildingBlock: UVAHIK_clean_linker_0, # of connection points: 2
#     Edge 13, Type (0, 1), BuildingBlock: UVAHIK_clean_linker_0, # of connection points: 2
#     Edge 14, Type (0, 1), BuildingBlock: UVAHIK_clean_linker_0, # of connection points: 2
#     Edge 15, Type (0, 1), BuildingBlock: UVAHIK_clean_linker_0, # of connection points: 2
# Relax obj value: 0.048
# Max RMSD: 0.168
# Mean RMSD: 0.128
data_MOF--net-ftw--node1-EZIPEK_clean_sbu_0--node2-MIFKUJ_clean_linker_1--edge1-UVAHIK_clean_linker_0
_symmetry_space_group_name_H-M    P1
_symmetry_Int_Tables_number       1
_symmetry_cell_setting            triclinic
loop_
_symmetry_equiv_pos_as_xyz
'x, y, z'
_cell_length_a     33.511637
_cell_length_b     35.96252
_cell_length_c     34.315949
_cell_angle_alpha  90.009723
_cell_angle_beta   90.021578
_cell_angle_gamma 90.06831
loop_
_atom_site_label
_atom_site_type_symbol
_atom_site_fract_x
_atom_site_fract_y
_atom_site_fract_z
_atom_type_partial_charge
H0 H 0.05037 0.56871 0.57751 0.0
H1 H 0.05075 0.62005 0.62396 0.0
H2 H 0.93971 0.66011 0.57599 0.0
H3 H 0.93938 0.60836 0.52944 0.0
H4 H -0.00059 0.51528 0.57653 0.0
H5 H 0.03881 0.60798 0.48117 0.0
H6 H 0.03913 0.65976 0.43469 0.0
H7 H 0.92776 0.62053 0.38644 0.0
H8 H 0.92749 0.56915 0.43284 0.0
H9 H 0.92696 0.46184 0.43282 0.0
H10 H 0.92676 0.41045 0.3864 0.0
H11 H 0.03762 0.37044 0.43483 0.0
H12 H 0.0378 0.42225 0.4813 0.0
H13 H 0.9777 0.51531 0.43402 0.0
H14 H 0.93844 0.42247 0.52915 0.0
H15 H 0.93812 0.37061 0.57555 0.0
H16 H 0.04916 0.41009 0.62427 0.0
H17 H 0.04948 0.46152 0.57791 0.0
C18 C -0.00512 0.58441 0.54971 0.0
C19 C 0.02624 0.58871 0.5766 0.0
C20 C 0.0263 0.61805 0.60342 0.0
C21 C -0.00501 0.64407 0.60421 0.0
C22 C 0.96444 0.64076 0.57616 0.0
C23 C 0.96429 0.61118 0.54933 0.0
C24 C -0.00775 0.54972 0.52566 0.0
C25 C -0.00464 0.51528 0.54517 0.0
C26 C 0.98528 0.54974 0.48485 0.0
C27 C 0.98308 0.58443 0.46078 0.0
C28 C 0.01396 0.61098 0.46123 0.0
C29 C 0.01419 0.64059 0.43444 0.0
C30 C 0.98373 0.64415 0.40634 0.0
C31 C 0.95215 0.61833 0.40702 0.0
C32 C 0.95184 0.58898 0.43382 0.0
C33 C 0.98235 0.44617 0.46083 0.0
C34 C 0.95109 0.44184 0.43383 0.0
C35 C 0.95113 0.41248 0.40704 0.0
C36 C 0.98244 0.38645 0.40641 0.0
C37 C 0.01289 0.3898 0.43456 0.0
C38 C 0.01295 0.41941 0.46133 0.0
C39 C 0.98489 0.48086 0.48488 0.0
C40 C 0.98176 0.5153 0.46538 0.0
C41 C -0.00816 0.48084 0.52569 0.0
C42 C -0.00598 0.44614 0.54977 0.0
C43 C 0.96322 0.41951 0.54917 0.0
C44 C 0.96299 0.38986 0.57591 0.0
C45 C -0.00665 0.38635 0.60412 0.0
C46 C 0.02485 0.41225 0.60359 0.0
C47 C 0.02518 0.44163 0.57683 0.0
H48 H 0.44158 0.06622 0.44492 0.0
H49 H 0.40106 0.06992 0.38553 0.0
H50 H 0.41667 0.95197 0.3674 0.0
H51 H 0.45651 0.94823 0.42681 0.0
H52 H 0.42261 0.02996 0.5085 0.0
H53 H 0.53486 0.03773 0.43404 0.0
H54 H 0.58544 0.03132 0.3833 0.0
H55 H 0.59252 0.91346 0.40594 0.0
H56 H 0.54176 0.91993 0.45743 0.0
H57 H 0.52106 0.92043 0.58254 0.0
H58 H 0.55749 0.9074 0.64294 0.0
H59 H 0.55914 0.02487 0.66942 0.0
H60 H 0.52354 0.03778 0.60895 0.0
H61 H 0.55069 0.96233 0.52306 0.0
H62 H 0.43881 0.97078 0.6121 0.0
H63 H 0.40141 0.99542 0.66728 0.0
H64 H 0.40437 0.10503 0.61593 0.0
H65 H 0.44326 0.0805 0.56111 0.0
C66 C 0.45181 1.00695 0.44022 0.0
C67 C 0.43676 0.04134 0.42775 0.0
C68 C 0.41401 0.04348 0.39378 0.0
C69 C 0.40576 1.01116 0.37228 0.0
C70 C 0.42255 0.97718 0.38375 0.0
C71 C 0.44542 0.97508 0.41748 0.0
C72 C 0.47117 1.00324 0.47859 0.0
C73 C 0.45094 0.0157 0.5117 0.0
C74 C 0.50792 0.98476 0.48276 0.0
C75 C 0.53459 0.97925 0.44922 0.0
C76 C 0.54665 1.01036 0.42761 0.0
C77 C 0.57557 1.00677 0.39889 0.0
C78 C 0.59259 0.97197 0.39122 0.0
C79 C 0.57944 0.94046 0.41157 0.0
C80 C 0.55074 0.94416 0.44083 0.0
C81 C 0.51953 0.98003 0.59149 0.0
C82 C 0.52885 0.94326 0.60171 0.0
C83 C 0.54942 0.93583 0.63614 0.0
C84 C 0.56077 0.9651 0.66082 0.0
C85 C 0.54998 1.00173 0.65127 0.0
C86 C 0.5298 1.00917 0.61669 0.0
C87 C 0.50156 0.98801 0.55319 0.0
C88 C 0.52217 0.97628 0.51994 0.0
C89 C 0.4662 1.00904 0.549 0.0
C90 C 0.44416 0.02389 0.58279 0.0
C91 C 0.43228 1.00026 0.6131 0.0
C92 C 0.41107 0.01438 0.64462 0.0
C93 C 0.40067 0.05219 0.6459 0.0
C94 C 0.41242 0.07587 0.61557 0.0
C95 C 0.43428 0.06183 0.58429 0.0
H96 H 0.55191 0.57795 0.94259 0.0
H97 H 0.59642 0.63219 0.94331 0.0
H98 H 0.5672 0.65145 0.06416 0.0
H99 H 0.52211 0.59761 0.06311 0.0
H100 H 0.56148 0.51555 0.99315 0.0
H101 H 0.46534 0.60572 0.95757 0.0
H102 H 0.42258 0.66062 0.95844 0.0
H103 H 0.37397 0.62584 0.06928 0.0
H104 H 0.41805 0.5718 0.06899 0.0
H105 H 0.42004 0.46041 0.07019 0.0
H106 H 0.37456 0.40732 0.0723 0.0
H107 H 0.41563 0.37271 0.95862 0.0
H108 H 0.46108 0.42602 0.9566 0.0
H109 H 0.41619 0.516 0.02006 0.0
H110 H 0.51491 0.42477 0.0548 0.0
H111 H 0.55929 0.37085 0.05187 0.0
H112 H 0.60175 0.40702 0.9392 0.0
H113 H 0.55729 0.46074 0.9422 0.0
C114 C 0.53373 0.58399 1.00274 0.0
C115 C 0.5547 0.59422 0.96903 0.0
C116 C 0.57991 0.62516 0.96943 0.0
C117 C 0.58514 0.64578 1.00382 0.0
C118 C 0.56366 0.63584 0.03737 0.0
C119 C 0.53787 0.60531 0.03675 0.0
C120 C 0.50977 0.54951 1.00332 0.0
C121 C 0.52955 0.51553 0.99843 0.0
C122 C 0.46845 0.54977 0.01119 0.0
C123 C 0.44518 0.58478 0.01339 0.0
C124 C 0.44623 0.61039 0.98254 0.0
C125 C 0.42136 0.64153 0.98282 0.0
C126 C 0.39468 0.64751 0.01382 0.0
C127 C 0.39447 0.62232 0.04518 0.0
C128 C 0.41944 0.59125 0.04491 0.0
C129 C 0.44399 0.44716 0.01328 0.0
C130 C 0.41953 0.44119 0.04588 0.0
C131 C 0.39348 0.41094 0.04699 0.0
C132 C 0.39133 0.38607 0.01548 0.0
C133 C 0.41692 0.39125 0.98347 0.0
C134 C 0.44292 0.42166 0.9823 0.0
C135 C 0.46795 0.48171 0.0105 0.0
C136 C 0.44814 0.51584 0.01489 0.0
C137 C 0.50924 0.48154 1.00202 0.0
C138 C 0.53269 0.44674 0.99865 0.0
C139 C 0.53313 0.42065 0.02909 0.0
C140 C 0.55853 0.38987 0.02741 0.0
C141 C 0.58421 0.38489 0.99543 0.0
C142 C 0.58275 0.41043 0.96448 0.0
C143 C 0.55728 0.44105 0.9661 0.0
C144 C 0.9851 0.10592 0.90992 0.0
C145 C 0.98844 0.10598 0.10069 0.0
C146 C 0.98854 0.92472 0.90993 0.0
C147 C -0.00878 0.92482 0.10073 0.0
C148 C 0.08658 0.92675 1.00511 0.0
C149 C 0.08385 0.10631 1.0035 0.0
C150 C 0.89282 0.92454 1.0051 0.0
C151 C 0.89008 0.10405 1.00713 0.0
C152 C 0.89419 1.01008 0.10102 0.0
C153 C 0.08664 0.01936 0.09701 0.0
C154 C 0.88976 0.01319 0.91382 0.0
C155 C 0.08283 0.01897 0.90997 0.0
Eu156 Eu 0.98717 0.08645 1.00532 0.0
O157 O 0.02339 0.0491 0.03924 0.0
O158 O 0.95197 0.04833 0.97108 0.0
Eu159 Eu 0.06262 0.01625 1.00392 0.0
Eu160 Eu 0.9139 0.01459 1.00693 0.0
O161 O 0.02185 0.04895 0.97006 0.0
O162 O 0.95334 0.04853 0.04116 0.0
Eu163 Eu 0.98672 0.01534 0.93116 0.0
Eu164 Eu -0.01004 0.01541 0.07934 0.0
O165 O 0.0232 0.98226 0.96961 0.0
O166 O 0.02469 0.98227 0.03962 0.0
O167 O 0.95476 0.98174 0.04057 0.0
O168 O 0.95328 0.98176 0.97153 0.0
Eu169 Eu -0.01056 0.94423 1.00536 0.0
O170 O 0.98685 0.11741 0.94706 0.0
O171 O 0.98722 0.11747 0.06354 0.0
O172 O -0.01075 0.91325 0.9471 0.0
O173 O -0.01009 0.91329 0.06359 0.0
O174 O 0.09758 0.96243 1.00453 0.0
O175 O 0.09579 0.07096 1.0023 0.0
O176 O 0.88075 0.95986 1.00437 0.0
O177 O 0.87904 0.06843 0.00887 0.0
O178 O 0.93201 0.01281 0.11269 0.0
O179 O 0.0494 0.01694 0.11041 0.0
O180 O 0.92705 1.01215 0.90025 0.0
O181 O 0.04499 0.01907 0.89783 0.0
O182 O 0.93064 0.91298 1.00638 0.0
O183 O 0.04898 0.91442 1.0054 0.0
O184 O 0.92766 0.11631 1.00522 0.0
O185 O 0.04598 0.11776 1.00513 0.0
O186 O -0.01042 0.07043 0.11215 0.0
O187 O -0.00802 0.9604 0.11217 0.0
O188 O 0.98396 0.07036 0.89846 0.0
O189 O 0.98783 0.96027 0.89841 0.0
O190 O 0.09495 0.01707 0.94683 0.0
O191 O 0.09753 0.01973 0.05973 0.0
O192 O 0.87913 0.01522 0.9511 0.0
O193 O 0.88152 1.01016 0.06423 0.0
C194 C 0.97388 0.36583 0.33661 0.0
C195 C 0.98396 0.35712 0.3754 0.0
C196 C 0.97525 0.33871 0.30731 0.0
C197 C 0.9732 0.23679 0.2912 0.0
H198 H 0.01518 0.2622 0.18936 0.0
C199 C -0.00435 0.12507 0.17114 0.0
C200 C 0.98855 0.13493 0.13202 0.0
C201 C -0.00431 0.152 0.2007 0.0
C202 C 0.00281 0.25463 0.2174 0.0
H203 H 0.00334 0.31261 0.4135 0.0
H204 H 0.00578 0.26522 0.36232 0.0
H205 H 0.01427 0.30888 0.24085 0.0
H206 H 0.97571 0.18142 0.09377 0.0
H207 H 0.97498 0.22812 0.14524 0.0
H208 H 0.96116 0.18275 0.26774 0.0
C209 C -0.00339 0.29314 0.35466 0.0
C210 C 0.0024 0.28149 0.24707 0.0
C211 C -0.00444 0.32041 0.38398 0.0
C212 C 0.98151 0.17263 0.12341 0.0
C213 C 0.98132 0.19957 0.15306 0.0
C214 C 0.97336 0.20998 0.26147 0.0
C215 C 0.98654 0.30193 0.31586 0.0
C216 C 0.98756 0.273 0.28441 0.0
C217 C 0.98841 0.1897 0.19222 0.0
C218 C 0.98817 0.21844 0.22404 0.0
H219 H 0.96532 0.39386 0.32871 0.0
H220 H 0.96693 0.34651 0.27793 0.0
H221 H 0.961 0.22933 0.31936 0.0
H222 H 0.00152 0.09645 0.1791 0.0
H223 H 0.00201 0.14319 0.23023 0.0
C224 C 0.66069 0.99027 0.37158 0.0
C225 C 0.62607 0.96968 0.36395 0.0
C226 C 0.69126 0.9916 0.34427 0.0
C227 C 0.7298 0.94783 0.25438 0.0
H228 H 0.77721 0.04532 0.23938 0.0
C229 C 0.82729 0.98785 0.12234 0.0
C230 C 0.86373 1.00523 0.13135 0.0
C231 C 0.79891 0.9819 0.15131 0.0
C232 C 0.76442 0.01792 0.24354 0.0
H233 H 0.59606 0.93338 0.3231 0.0
H234 H 0.64929 0.9365 0.27424 0.0
H235 H 0.72639 0.03677 0.2892 0.0
H236 H 0.89899 0.03034 0.17745 0.0
H237 H 0.84883 0.02047 0.22805 0.0
H238 H 0.76731 0.92951 0.20763 0.0
C239 C 0.65323 0.95102 0.30162 0.0
C240 C 0.7355 0.01291 0.27212 0.0
C241 C 0.62279 0.94929 0.32934 0.0
C242 C 0.87117 0.01683 0.16974 0.0
C243 C 0.84253 1.01132 0.19859 0.0
C244 C 0.75847 0.95299 0.22542 0.0
C245 C 0.6874 0.97285 0.30854 0.0
C246 C 0.71807 0.97777 0.27804 0.0
C247 C 0.80633 0.99366 0.18958 0.0
C248 C 0.77605 0.98804 0.21999 0.0
H249 H 0.66373 1.00587 0.39845 0.0
H250 H 0.71763 1.00787 0.35088 0.0
H251 H 0.71719 0.92037 0.25852 0.0
H252 H 0.82091 0.9783 0.09305 0.0
H253 H 0.771 0.96847 0.14375 0.0
C254 C 0.97504 0.66496 0.33659 0.0
C255 C 0.98549 0.67351 0.37534 0.0
C256 C 0.97665 0.6921 0.30731 0.0
C257 C 0.97633 0.79414 0.29137 0.0
H258 H 0.01673 0.76818 0.18909 0.0
C259 C -0.00048 0.90562 0.17105 0.0
C260 C -0.00834 0.89585 0.13204 0.0
C261 C -0.00049 0.87869 0.20062 0.0
C262 C 0.00481 0.77591 0.21726 0.0
H263 H 0.00578 0.71778 0.41337 0.0
H264 H 0.00866 0.76518 0.36224 0.0
H265 H 0.0154 0.72148 0.24052 0.0
H266 H 0.97739 0.84953 0.09398 0.0
H267 H 0.97664 0.80284 0.14544 0.0
H268 H 0.96519 0.84839 0.26809 0.0
C269 C -0.001 0.73737 0.35459 0.0
C270 C 0.00415 0.74903 0.2469 0.0
C271 C -0.0023 0.71009 0.38389 0.0
C272 C 0.98386 0.85823 0.12353 0.0
C273 C 0.98363 0.8313 0.15317 0.0
C274 C 0.97676 0.82098 0.26166 0.0
C275 C 0.98855 0.72875 0.31583 0.0
C276 C -0.01014 0.75771 0.2844 0.0
C277 C -0.00859 0.84108 0.19225 0.0
C278 C -0.009 0.81233 0.22408 0.0
H279 H 0.96601 0.63704 0.32869 0.0
H280 H 0.96802 0.68441 0.27798 0.0
H281 H 0.96457 0.80177 0.31964 0.0
H282 H 0.00599 0.93417 0.1789 0.0
H283 H 0.00639 0.88741 0.23006 0.0
C284 C 0.34404 0.98672 0.3419 0.0
C285 C 0.37596 1.01192 0.34085 0.0
C286 C 0.31412 0.98836 0.31393 0.0
C287 C 0.26868 0.05171 0.24235 0.0
H288 H 0.2181 0.96066 0.20685 0.0
C289 C 0.15429 0.04069 0.11638 0.0
C290 C 0.11895 0.02162 0.12568 0.0
C291 C 0.18596 0.04137 0.14263 0.0
C292 C 0.23191 0.98623 0.21678 0.0
H293 H 0.40232 0.05826 0.30987 0.0
H294 H 0.35036 0.06049 0.25973 0.0
H295 H 0.27552 0.95723 0.25027 0.0
H296 H 0.08848 0.98883 0.16958 0.0
H297 H 0.14461 0.9893 0.21531 0.0
H298 H 0.22536 0.08046 0.20765 0.0
C299 C 0.34805 0.03995 0.28269 0.0
C300 C 0.26465 0.98436 0.24163 0.0
C301 C 0.37784 0.0386 0.31112 0.0
C302 C 0.11543 1.00378 0.16187 0.0
C303 C 0.14743 1.00389 0.18783 0.0
C304 C 0.23627 0.05352 0.21692 0.0
C305 C 0.31573 0.01497 0.28402 0.0
C306 C 0.28301 0.01708 0.25519 0.0
C307 C 0.18294 0.02246 0.17818 0.0
C308 C 0.21742 0.0208 0.20447 0.0
H309 H 0.34158 0.9664 0.3651 0.0
H310 H 0.28918 0.96932 0.31642 0.0
H311 H 0.28178 0.07742 0.25268 0.0
H312 H 0.15752 0.05495 0.08874 0.0
H313 H 0.21322 0.05574 0.13471 0.0
C314 C 0.00406 0.66467 0.67395 0.0
C315 C -0.00639 0.67338 0.63527 0.0
C316 C 0.003 0.69178 0.70328 0.0
C317 C 0.96173 0.78572 0.72706 0.0
H318 H 0.04164 0.78315 0.80875 0.0
C319 C 0.98087 0.90539 0.83956 0.0
C320 C 0.98852 0.89571 0.87865 0.0
C321 C 0.98095 0.87838 0.81007 0.0
C322 C 0.01881 0.7841 0.78643 0.0
H323 H 0.97384 0.7179 0.59741 0.0
H324 H 0.97254 0.76537 0.64835 0.0
H325 H 0.04318 0.73681 0.75701 0.0
H326 H 0.00224 0.84944 0.91694 0.0
H327 H 0.00244 0.80247 0.86554 0.0
H328 H 0.93775 0.83339 0.7564 0.0
C329 C 0.98094 0.7373 0.65623 0.0
C330 C 0.01962 0.75739 0.75664 0.0
C331 C 0.98178 0.71005 0.62687 0.0
C332 C -0.00379 0.85811 0.88729 0.0
C333 C -0.00341 0.83112 0.8577 0.0
C334 C 0.96107 0.81258 0.75676 0.0
C335 C -0.00836 0.72862 0.69494 0.0
C336 C -0.00899 0.75764 0.7265 0.0
C337 C -0.01106 0.84085 0.81864 0.0
C338 C -0.01045 0.81212 0.78695 0.0
H339 H 0.01252 0.6366 0.6818 0.0
H340 H 0.01057 0.68357 0.73272 0.0
H341 H 0.93875 0.78665 0.70491 0.0
H342 H 0.97468 0.93394 0.83158 0.0
H343 H 0.97534 0.88707 0.78036 0.0
C344 C 0.33741 0.08187 0.66716 0.0
C345 C 0.37399 0.06534 0.67695 0.0
C346 C 0.30735 0.08487 0.69507 0.0
C347 C 0.27581 0.02942 0.77664 0.0
H348 H 0.19269 0.1032 0.7903 0.0
C349 C 0.15387 0.01312 0.8908 0.0
C350 C 0.11468 0.02313 0.88084 0.0
C351 C 0.18525 0.02078 0.86569 0.0
C352 C 0.21554 0.08226 0.7863 0.0
H353 H 0.41009 0.04346 0.72396 0.0
H354 H 0.35775 0.0493 0.77305 0.0
H355 H 0.25108 0.11786 0.75002 0.0
H356 H 0.07738 0.04817 0.83634 0.0
H357 H 0.13276 0.06104 0.7917 0.0
H358 H 0.24036 0.99351 0.81192 0.0
C359 C 0.35191 0.05902 0.74372 0.0
C360 C 0.24897 0.09076 0.76364 0.0
C361 C 0.38179 0.05577 0.7158 0.0
C362 C 0.10729 0.03994 0.84461 0.0
C363 C 0.13893 0.04772 0.81935 0.0
C364 C 0.24253 0.02092 0.799 0.0
C365 C 0.31374 0.07148 0.73299 0.0
C366 C 0.27949 0.06443 0.7589 0.0
C367 C 0.1782 0.03847 0.82993 0.0
C368 C 0.2122 0.04728 0.80427 0.0
H369 H 0.33081 0.08935 0.63727 0.0
H370 H 0.27817 0.09455 0.68607 0.0
H371 H 0.29827 1.00814 0.77245 0.0
H372 H 0.16054 0.99996 0.91845 0.0
H373 H 0.21525 0.01367 0.87478 0.0
C374 C 0.00159 0.36562 0.67392 0.0
C375 C -0.00846 0.35699 0.63509 0.0
C376 C -9e-05 0.33848 0.7032 0.0
C377 C 0.00101 0.23654 0.7193 0.0
H378 H 0.9589 0.26222 0.821 0.0
C379 C 0.97763 0.12498 0.83946 0.0
C380 C 0.98469 0.13488 0.87858 0.0
C381 C 0.97773 0.15187 0.80986 0.0
C382 C 0.9713 0.25457 0.793 0.0
H383 H 0.9719 0.31259 0.59691 0.0
H384 H 0.96895 0.26517 0.64804 0.0
H385 H 0.9604 0.30886 0.76951 0.0
H386 H -0.00239 0.18142 0.9168 0.0
H387 H -0.00144 0.22805 0.86529 0.0
H388 H 0.01252 0.18245 0.74281 0.0
C389 C 0.97832 0.29305 0.65575 0.0
C390 C 0.97205 0.28141 0.76333 0.0
C391 C 0.97967 0.32033 0.62645 0.0
C392 C -0.0082 0.1726 0.88716 0.0
C393 C -0.00787 0.1995 0.85748 0.0
C394 C 0.00051 0.20974 0.74904 0.0
C395 C 0.98835 0.30176 0.69459 0.0
C396 C 0.98695 0.27283 0.72604 0.0
C397 C 0.98514 0.18959 0.8183 0.0
C398 C 0.98566 0.21829 0.78643 0.0
H399 H 0.01037 0.3936 0.68187 0.0
H400 H 0.00821 0.34624 0.7326 0.0
H401 H 0.01323 0.229 0.69118 0.0
H402 H 0.97177 0.09634 0.83151 0.0
H403 H 0.97149 0.14302 0.78033 0.0
C404 C 0.62374 0.93863 0.68705 0.0
C405 C 0.58837 0.95858 0.69349 0.0
C406 C 0.65443 0.93975 0.71441 0.0
C407 C 0.69218 1.0054 0.7859 0.0
H408 H 0.76933 0.92811 0.80875 0.0
C409 C 0.81905 0.02391 0.89591 0.0
C410 C 0.8568 1.01001 0.88585 0.0
C411 C 0.78623 0.01694 0.87226 0.0
C412 C 0.74816 0.94997 0.80216 0.0
H413 H 0.55536 0.99196 0.73493 0.0
H414 H 0.60884 0.99339 0.78329 0.0
H415 H 0.70888 0.91271 0.77211 0.0
H416 H 0.89028 0.97892 0.84271 0.0
H417 H 0.8324 0.96682 0.80091 0.0
H418 H 0.73137 0.04267 0.81569 0.0
C419 C 0.61326 0.97775 0.75666 0.0
C420 C 0.71355 0.94114 0.78149 0.0
C421 C 0.58267 0.97682 0.72918 0.0
C422 C 0.86149 0.99014 0.85094 0.0
C423 C 0.82842 0.98287 0.82734 0.0
C424 C 0.72661 0.01416 0.80658 0.0
C425 C 0.65009 0.96073 0.74865 0.0
C426 C 0.68525 0.96882 0.77318 0.0
C427 C 0.79047 0.9958 0.83818 0.0
C428 C 0.7549 0.98657 0.81486 0.0
H429 H 0.62895 0.92459 0.65959 0.0
H430 H 0.68254 0.92653 0.70735 0.0
H431 H 0.67147 0.02755 0.779 0.0
H432 H 0.81464 0.0395 0.92259 0.0
H433 H 0.75725 0.02704 0.88137 0.0
C434 C 0.32147 0.36407 0.02666 0.0
C435 C 0.36078 0.35623 0.01511 0.0
C436 C 0.29218 0.33652 0.02551 0.0
C437 C 0.26828 0.24602 0.98019 0.0
H438 H 0.18883 0.24127 0.06223 0.0
C439 C 0.15524 0.12541 0.99498 0.0
C440 C 0.11551 0.13507 1.00351 0.0
C441 C 0.18538 0.15222 0.99593 0.0
C442 C 0.2106 0.2425 0.03893 0.0
H443 H 0.40039 0.31326 0.99368 0.0
H444 H 0.34924 0.26476 0.99215 0.0
H445 H 0.24183 0.28762 0.06572 0.0
H446 H 0.07639 0.18067 0.01952 0.0
H447 H 0.12915 0.22742 0.02115 0.0
H448 H 0.2371 0.20056 0.95367 0.0
C449 C 0.34093 0.29245 1.00149 0.0
C450 C 0.24095 0.26905 0.04089 0.0
C451 C 0.37024 0.32015 1.00245 0.0
C452 C 0.10662 0.17224 0.01274 0.0
C453 C 0.13686 0.19899 0.01395 0.0
C454 C 0.23802 0.21932 0.97836 0.0
C455 C 0.30152 0.30036 0.01294 0.0
C456 C 0.27003 0.27128 0.01143 0.0
C457 C 0.17655 0.18922 1.00566 0.0
C458 C 0.20876 0.21742 1.00761 0.0
H459 H 0.3131 0.39182 0.03582 0.0
H460 H 0.262 0.34379 0.03377 0.0
H461 H 0.28982 0.24733 0.95671 0.0
H462 H 0.16322 0.09709 0.98762 0.0
H463 H 0.21575 0.14382 0.98973 0.0
C464 C 0.35607 0.69885 0.04624 0.0
C465 C 0.36556 0.67861 0.01244 0.0
C466 C 0.32695 0.72663 0.04522 0.0
C467 C 0.23919 0.75663 0.98844 0.0
H468 H 0.25213 0.84882 0.04569 0.0
C469 C 0.10984 0.86049 0.0091 0.0
C470 C 0.11885 0.89856 1.0057 0.0
C471 C 0.14031 0.83402 0.00995 0.0
C472 C 0.24818 0.82333 0.0293 0.0
H473 H 0.35197 0.6719 0.951 0.0
H474 H 0.30199 0.72091 0.94903 0.0
H475 H 0.30556 0.80282 0.04628 0.0
H476 H 0.16728 0.93848 1.00028 0.0
H477 H 0.22018 0.89228 1.00133 0.0
H478 H 0.18218 0.77738 0.97085 0.0
C479 C 0.31669 0.71499 0.97645 0.0
C480 C 0.27862 0.7968 0.03 0.0
C481 C 0.34575 0.68724 0.97747 0.0
C482 C 0.15911 0.90946 1.00311 0.0
C483 C 0.18955 0.88297 1.00393 0.0
C484 C 0.20878 0.78313 0.98774 0.0
C485 C 0.30664 0.73476 0.01038 0.0
C486 C 0.27448 0.76315 0.00955 0.0
C487 C 0.18052 0.84495 1.00738 0.0
C488 C 0.2129 0.81679 0.00817 0.0
H489 H 0.37104 0.69312 0.07355 0.0
H490 H 0.31971 0.74115 0.07194 0.0
H491 H 0.23483 0.7308 0.97277 0.0
H492 H 0.07924 0.851 0.01136 0.0
H493 H 0.13236 0.80498 0.01316 0.0
C494 C 0.60379 0.31837 1.00726 0.0
C495 C 0.61408 0.35449 0.99529 0.0
C496 C 0.63247 0.29014 1.0078 0.0
C497 C 0.73228 0.26578 0.9685 0.0
H498 H 0.73458 0.19612 0.05472 0.0
C499 C 0.86639 0.1696 0.99774 0.0
C500 C 0.85787 0.13226 1.00665 0.0
C501 C 0.83584 0.19594 0.99611 0.0
C502 C 0.73407 0.21517 0.03028 0.0
H503 H 0.66263 0.38954 0.97534 0.0
H504 H 0.71262 0.34062 0.97666 0.0
H505 H 0.68234 0.24328 0.05185 0.0
H506 H 0.81039 0.09354 0.02137 0.0
H507 H 0.75723 0.13963 0.01861 0.0
H508 H 0.7844 0.23801 0.94731 0.0
C509 C 0.68226 0.33372 0.9847 0.0
C510 C 0.70408 0.24211 0.02855 0.0
C511 C 0.6536 0.36181 0.98397 0.0
C512 C 0.81811 0.12201 0.01435 0.0
C513 C 0.78761 0.14844 0.01299 0.0
C514 C 0.76236 0.23901 0.97036 0.0
C515 C 0.67209 0.29752 0.99659 0.0
C516 C 0.70298 0.2679 0.99775 0.0
C517 C 0.79613 0.18562 1.00361 0.0
C518 C 0.7637 0.21356 1.00137 0.0
H519 H 0.57347 0.31186 0.01585 0.0
H520 H 0.62351 0.26246 0.01664 0.0
H521 H 0.7319 0.28471 0.94396 0.0
H522 H 0.89661 0.17854 0.99158 0.0
H523 H 0.84335 0.2245 0.98924 0.0
C524 C 0.64481 0.67594 0.03365 0.0
C525 C 0.61474 0.6762 1.00522 0.0
C526 C 0.67433 0.70335 0.0338 0.0
C527 C 0.72019 0.77554 0.9701 0.0
H528 H 0.76713 0.8085 0.06753 0.0
C529 C 0.82489 0.90296 0.98559 0.0
C530 C 0.86135 0.89588 1.00441 0.0
C531 C 0.79479 0.8761 0.98523 0.0
C532 C 0.75435 0.79934 0.04015 0.0
H533 H 0.591 0.70556 0.95533 0.0
H534 H 0.64143 0.75459 0.95649 0.0
H535 H 0.71294 0.76319 0.06849 0.0
H536 H 0.89488 0.85543 0.0379 0.0
H537 H 0.84156 0.80872 0.03813 0.0
H538 H 0.76093 0.81299 0.9421 0.0
C539 C 0.64323 0.73259 0.97794 0.0
C540 C 0.72345 0.77325 0.04059 0.0
C541 C 0.61413 0.70473 0.97738 0.0
C542 C 0.86713 0.8615 0.023 0.0
C543 C 0.83666 0.83493 0.02333 0.0
C544 C 0.75057 0.80216 0.96977 0.0
C545 C 0.67403 0.73204 1.00589 0.0
C546 C 0.70611 0.76077 1.00554 0.0
C547 C 0.80032 0.84202 1.00437 0.0
C548 C 0.76804 0.81405 1.00476 0.0
H549 H 0.64615 0.65387 0.0551 0.0
H550 H 0.6979 0.70143 0.05528 0.0
H551 H 0.70828 0.76615 0.94247 0.0
H552 H 0.81975 0.92916 0.97083 0.0
H553 H 0.76692 0.88217 0.97054 0.0
loop_
_geom_bond_atom_site_label_1
_geom_bond_atom_site_label_2
_geom_bond_distance
_geom_bond_site_symmetry_2
_ccdc_geom_bond_type
H0 C19 0.949 . S
H1 C20 0.950 . S
H2 C22 0.950 . S
H3 C23 0.950 . S
H4 C25 0.950 . S
H5 C28 0.950 . S
H6 C29 0.950 . S
H7 C31 0.951 . S
H8 C32 0.949 . S
H9 C34 0.949 . S
H10 C35 0.950 . S
H11 C37 0.950 . S
H12 C38 0.950 . S
H13 C40 0.950 . S
H14 C43 0.950 . S
H15 C44 0.950 . S
H16 C46 0.951 . S
H17 C47 0.949 . S
C18 C19 1.376 . S
C18 C23 1.386 1_455 S
C18 C24 1.483 . S
C19 H0 0.949 . S
C19 C18 1.376 . S
C19 C20 1.397 . S
C20 H1 0.950 . S
C20 C19 1.397 . S
C20 C21 1.391 . S
C21 C20 1.391 . S
C21 C22 1.405 1_455 S
C22 H2 0.950 . S
C22 C21 1.405 1_655 S
C22 C23 1.367 . S
C23 H3 0.950 . S
C23 C18 1.386 1_655 S
C23 C22 1.367 . S
C24 C18 1.483 . S
C24 C25 1.382 . S
C24 C26 1.403 1_455 S
C25 H4 0.950 . S
C25 C24 1.382 . S
C25 C41 1.411 . S
C26 C24 1.403 1_655 S
C26 C27 1.489 . S
C26 C40 1.411 . S
C27 C26 1.489 . S
C27 C28 1.383 1_655 S
C27 C32 1.382 . S
C28 H5 0.950 . S
C28 C27 1.383 1_455 S
C28 C29 1.395 . S
C29 H6 0.950 . S
C29 C28 1.395 . S
C29 C30 1.288 1_455 S
C30 C29 1.288 1_655 S
C30 C31 1.392 . S
C31 H7 0.951 . S
C31 C30 1.392 . S
C31 C32 1.392 . S
C32 H8 0.949 . S
C32 C27 1.382 . S
C32 C31 1.392 . S
C33 C34 1.376 . S
C33 C38 1.386 1_655 S
C33 C39 1.483 . S
C34 H9 0.949 . S
C34 C33 1.376 . S
C34 C35 1.397 . S
C35 H10 0.950 . S
C35 C34 1.397 . S
C35 C36 1.391 . S
C36 C35 1.391 . S
C36 C37 1.405 1_655 S
C37 H11 0.950 . S
C37 C36 1.405 1_455 S
C37 C38 1.367 . S
C38 H12 0.950 . S
C38 C33 1.386 1_455 S
C38 C37 1.367 . S
C39 C33 1.483 . S
C39 C40 1.382 . S
C39 C41 1.403 1_655 S
C40 H13 0.950 . S
C40 C26 1.411 . S
C40 C39 1.382 . S
C41 C25 1.411 . S
C41 C39 1.403 1_455 S
C41 C42 1.489 . S
C42 C41 1.489 . S
C42 C43 1.383 1_455 S
C42 C47 1.382 . S
C43 H14 0.950 . S
C43 C42 1.383 1_655 S
C43 C44 1.395 . S
C44 H15 0.950 . S
C44 C43 1.395 . S
C44 C45 1.288 1_655 S
C45 C44 1.288 1_455 S
C45 C46 1.392 . S
C46 H16 0.951 . S
C46 C45 1.392 . S
C46 C47 1.392 . S
C47 H17 0.949 . S
C47 C42 1.382 . S
C47 C46 1.392 . S
H48 C67 0.949 . S
H49 C68 0.950 . S
H50 C70 0.950 . S
H51 C71 0.950 . S
H52 C73 0.950 . S
H53 C76 0.950 . S
H54 C77 0.950 . S
H55 C79 0.951 . S
H56 C80 0.949 . S
H57 C82 0.949 . S
H58 C83 0.950 . S
H59 C85 0.950 . S
H60 C86 0.950 . S
H61 C88 0.950 . S
H62 C91 0.950 . S
H63 C92 0.950 . S
H64 C94 0.951 . S
H65 C95 0.949 . S
C66 C67 1.376 . S
C66 C71 1.386 1_545 S
C66 C72 1.483 . S
C67 H48 0.949 . S
C67 C66 1.376 . S
C67 C68 1.397 . S
C68 H49 0.950 . S
C68 C67 1.397 . S
C68 C69 1.391 . S
C69 C68 1.391 . S
C69 C70 1.405 1_545 S
C70 H50 0.950 . S
C70 C69 1.405 1_565 S
C70 C71 1.367 . S
C71 H51 0.950 . S
C71 C66 1.386 1_565 S
C71 C70 1.367 . S
C72 C66 1.483 . S
C72 C73 1.382 . S
C72 C74 1.403 1_545 S
C73 H52 0.950 . S
C73 C72 1.382 . S
C73 C89 1.411 . S
C74 C72 1.403 1_565 S
C74 C75 1.489 . S
C74 C88 1.411 . S
C75 C74 1.489 . S
C75 C76 1.383 1_565 S
C75 C80 1.382 . S
C76 H53 0.950 . S
C76 C75 1.383 1_545 S
C76 C77 1.395 . S
C77 H54 0.950 . S
C77 C76 1.395 . S
C77 C78 1.288 1_545 S
C78 C77 1.288 1_565 S
C78 C79 1.392 . S
C79 H55 0.951 . S
C79 C78 1.392 . S
C79 C80 1.392 . S
C80 H56 0.949 . S
C80 C75 1.382 . S
C80 C79 1.392 . S
C81 C82 1.376 . S
C81 C86 1.386 1_565 S
C81 C87 1.483 . S
C82 H57 0.949 . S
C82 C81 1.376 . S
C82 C83 1.397 . S
C83 H58 0.950 . S
C83 C82 1.397 . S
C83 C84 1.391 . S
C84 C83 1.391 . S
C84 C85 1.405 1_565 S
C85 H59 0.950 . S
C85 C84 1.405 1_545 S
C85 C86 1.367 . S
C86 H60 0.950 . S
C86 C81 1.386 1_545 S
C86 C85 1.367 . S
C87 C81 1.483 . S
C87 C88 1.382 . S
C87 C89 1.403 1_565 S
C88 H61 0.950 . S
C88 C74 1.411 . S
C88 C87 1.382 . S
C89 C73 1.411 . S
C89 C87 1.403 1_545 S
C89 C90 1.489 . S
C90 C89 1.489 . S
C90 C91 1.383 1_545 S
C90 C95 1.382 . S
C91 H62 0.950 . S
C91 C90 1.383 1_565 S
C91 C92 1.395 . S
C92 H63 0.950 . S
C92 C91 1.395 . S
C92 C93 1.288 1_565 S
C93 C92 1.288 1_545 S
C93 C94 1.392 . S
C94 H64 0.951 . S
C94 C93 1.392 . S
C94 C95 1.392 . S
C95 H65 0.949 . S
C95 C90 1.382 . S
C95 C94 1.392 . S
H96 C115 0.949 . S
H97 C116 0.950 . S
H98 C118 0.950 . S
H99 C119 0.950 . S
H100 C121 0.950 . S
H101 C124 0.950 . S
H102 C125 0.950 . S
H103 C127 0.951 . S
H104 C128 0.949 . S
H105 C130 0.949 . S
H106 C131 0.950 . S
H107 C133 0.950 . S
H108 C134 0.950 . S
H109 C136 0.950 . S
H110 C139 0.950 . S
H111 C140 0.950 . S
H112 C142 0.951 . S
H113 C143 0.949 . S
C114 C115 1.376 . S
C114 C119 1.386 1_556 S
C114 C120 1.483 . S
C115 H96 0.949 . S
C115 C114 1.376 . S
C115 C116 1.397 . S
C116 H97 0.950 . S
C116 C115 1.397 . S
C116 C117 1.391 . S
C117 C116 1.391 . S
C117 C118 1.405 1_556 S
C118 H98 0.950 . S
C118 C117 1.405 1_554 S
C118 C119 1.367 . S
C119 H99 0.950 . S
C119 C114 1.386 1_554 S
C119 C118 1.367 . S
C120 C114 1.483 . S
C120 C121 1.382 . S
C120 C122 1.403 1_556 S
C121 H100 0.950 . S
C121 C120 1.382 . S
C121 C137 1.411 . S
C122 C120 1.403 1_554 S
C122 C123 1.489 . S
C122 C136 1.411 . S
C123 C122 1.489 . S
C123 C124 1.383 1_554 S
C123 C128 1.382 . S
C124 H101 0.950 . S
C124 C123 1.383 1_556 S
C124 C125 1.395 . S
C125 H102 0.950 . S
C125 C124 1.395 . S
C125 C126 1.288 1_556 S
C126 C125 1.288 1_554 S
C126 C127 1.392 . S
C127 H103 0.951 . S
C127 C126 1.392 . S
C127 C128 1.392 . S
C128 H104 0.949 . S
C128 C123 1.382 . S
C128 C127 1.392 . S
C129 C130 1.376 . S
C129 C134 1.386 1_554 S
C129 C135 1.483 . S
C130 H105 0.949 . S
C130 C129 1.376 . S
C130 C131 1.397 . S
C131 H106 0.950 . S
C131 C130 1.397 . S
C131 C132 1.391 . S
C132 C131 1.391 . S
C132 C133 1.405 1_554 S
C133 H107 0.950 . S
C133 C132 1.405 1_556 S
C133 C134 1.367 . S
C134 H108 0.950 . S
C134 C129 1.386 1_556 S
C134 C133 1.367 . S
C135 C129 1.483 . S
C135 C136 1.382 . S
C135 C137 1.403 1_554 S
C136 H109 0.950 . S
C136 C122 1.411 . S
C136 C135 1.382 . S
C137 C121 1.411 . S
C137 C135 1.403 1_556 S
C137 C138 1.489 . S
C138 C137 1.489 . S
C138 C139 1.383 1_556 S
C138 C143 1.382 . S
C139 H110 0.950 . S
C139 C138 1.383 1_554 S
C139 C140 1.395 . S
C140 H111 0.950 . S
C140 C139 1.395 . S
C140 C141 1.288 1_554 S
C141 C140 1.288 1_556 S
C141 C142 1.392 . S
C142 H112 0.951 . S
C142 C141 1.392 . S
C142 C143 1.392 . S
C143 H113 0.949 . S
C143 C138 1.382 . S
C143 C142 1.392 . S
C144 O170 1.283 . S
C144 O188 1.283 . S
C145 O171 1.283 . S
C145 O186 1.283 . S
C146 O172 1.283 . S
C146 O189 1.283 . S
C147 O173 1.283 . S
C147 O187 1.283 . S
C148 O174 1.283 . S
C148 O183 1.283 . S
C149 O175 1.283 . S
C149 O185 1.283 . S
C150 O176 1.283 . S
C150 O182 1.283 . S
C151 O177 1.283 . S
C151 O184 1.283 . S
C152 O178 1.283 . S
C152 O193 1.283 . S
C153 O179 1.283 . S
C153 O191 1.283 . S
C154 O180 1.283 . S
C154 O192 1.283 . S
C155 O181 1.283 . S
C155 O190 1.283 . S
Eu156 O157 2.370 . S
Eu156 O158 2.370 1_454 S
Eu156 O161 2.370 1_554 S
Eu156 O162 2.370 1_455 S
Eu156 O170 2.363 1_554 S
Eu156 O171 2.363 . S
Eu156 O184 2.363 1_455 S
Eu156 O185 2.363 . S
O157 Eu156 2.370 . S
O157 Eu159 2.371 . S
O157 Eu164 2.371 . S
O158 Eu156 2.370 1_656 S
O158 Eu160 2.370 1_556 S
O158 Eu163 2.370 1_655 S
Eu159 O157 2.371 . S
Eu159 O161 2.370 1_554 S
Eu159 O165 2.370 1_544 S
Eu159 O166 2.370 1_545 S
Eu159 O174 2.363 1_545 S
Eu159 O175 2.363 . S
Eu159 O190 2.363 1_554 S
Eu159 O191 2.363 . S
Eu160 O158 2.370 1_554 S
Eu160 O162 2.370 . S
Eu160 O167 2.370 1_545 S
Eu160 O168 2.371 1_544 S
Eu160 O176 2.363 1_545 S
Eu160 O177 2.363 . S
Eu160 O192 2.363 1_554 S
Eu160 O193 2.363 . S
O161 Eu156 2.370 1_556 S
O161 Eu159 2.370 1_556 S
O161 Eu163 2.370 . S
O162 Eu156 2.370 1_655 S
O162 Eu160 2.370 . S
O162 Eu164 2.370 1_655 S
Eu163 O158 2.370 1_455 S
Eu163 O161 2.370 . S
Eu163 O165 2.370 1_545 S
Eu163 O168 2.371 1_445 S
Eu163 O180 2.363 1_455 S
Eu163 O181 2.363 . S
Eu163 O188 2.363 . S
Eu163 O189 2.363 1_545 S
Eu164 O157 2.371 . S
Eu164 O162 2.370 1_455 S
Eu164 O166 2.370 1_545 S
Eu164 O167 2.370 1_445 S
Eu164 O178 2.363 1_455 S
Eu164 O179 2.363 . S
Eu164 O186 2.363 . S
Eu164 O187 2.363 1_545 S
O165 Eu159 2.370 1_566 S
O165 Eu163 2.370 1_565 S
O165 Eu169 2.370 1_556 S
O166 Eu159 2.370 1_565 S
O166 Eu164 2.370 1_565 S
O166 Eu169 2.370 . S
O167 Eu160 2.370 1_565 S
O167 Eu164 2.370 1_665 S
O167 Eu169 2.370 1_655 S
O168 Eu160 2.371 1_566 S
O168 Eu163 2.371 1_665 S
O168 Eu169 2.370 1_656 S
Eu169 O165 2.370 1_554 S
Eu169 O166 2.370 . S
Eu169 O167 2.370 1_455 S
Eu169 O168 2.370 1_454 S
Eu169 O172 2.363 1_554 S
Eu169 O173 2.363 . S
Eu169 O182 2.363 1_455 S
Eu169 O183 2.363 . S
O170 C144 1.283 . S
O170 Eu156 2.363 1_556 S
O171 C145 1.283 . S
O171 Eu156 2.363 . S
O172 C146 1.283 . S
O172 Eu169 2.363 1_556 S
O173 C147 1.283 . S
O173 Eu169 2.363 . S
O174 C148 1.283 . S
O174 Eu159 2.363 1_565 S
O175 C149 1.283 . S
O175 Eu159 2.363 . S
O176 C150 1.283 . S
O176 Eu160 2.363 1_565 S
O177 C151 1.283 . S
O177 Eu160 2.363 . S
O178 C152 1.283 . S
O178 Eu164 2.363 1_655 S
O179 C153 1.283 . S
O179 Eu164 2.363 . S
O180 C154 1.283 . S
O180 Eu163 2.363 1_655 S
O181 C155 1.283 . S
O181 Eu163 2.363 . S
O182 C150 1.283 . S
O182 Eu169 2.363 1_655 S
O183 C148 1.283 . S
O183 Eu169 2.363 . S
O184 C151 1.283 . S
O184 Eu156 2.363 1_655 S
O185 C149 1.283 . S
O185 Eu156 2.363 . S
O186 C145 1.283 . S
O186 Eu164 2.363 . S
O187 C147 1.283 . S
O187 Eu164 2.363 1_565 S
O188 C144 1.283 . S
O188 Eu163 2.363 . S
O189 C146 1.283 . S
O189 Eu163 2.363 1_565 S
O190 C155 1.283 . S
O190 Eu159 2.363 1_556 S
O191 C153 1.283 . S
O191 Eu159 2.363 . S
O192 C154 1.283 . S
O192 Eu160 2.363 1_556 S
O193 C152 1.283 . S
O193 Eu160 2.363 . S
C194 C195 1.349 . S
C194 C196 1.327 . S
C194 H219 0.950 . S
C195 C194 1.349 . S
C195 C211 1.349 1_455 S
C196 C194 1.327 . S
C196 C215 1.429 . S
C196 H220 0.950 . S
C197 C214 1.574 . S
C197 C216 1.368 1_655 S
C197 H221 0.949 . S
H198 C202 0.949 . S
C199 C200 1.348 1_655 S
C199 C201 1.327 . S
C199 H222 0.950 . S
C200 C199 1.348 1_455 S
C200 C212 1.349 . S
C201 C199 1.327 . S
C201 C217 1.428 1_655 S
C201 H223 0.950 . S
C202 H198 0.949 . S
C202 C210 1.574 . S
C202 C218 1.369 . S
H203 C211 0.950 . S
H204 C209 0.950 . S
H205 C210 0.949 . S
H206 C212 0.950 . S
H207 C213 0.950 . S
H208 C214 0.949 . S
C209 H204 0.950 . S
C209 C211 1.327 . S
C209 C215 1.428 1_655 S
C210 C202 1.574 . S
C210 H205 0.949 . S
C210 C216 1.368 . S
C211 C195 1.349 1_655 S
C211 H203 0.950 . S
C211 C209 1.327 . S
C212 C200 1.349 . S
C212 H206 0.950 . S
C212 C213 1.327 . S
C213 H207 0.950 . S
C213 C212 1.327 . S
C213 C217 1.429 . S
C214 C197 1.574 . S
C214 H208 0.949 . S
C214 C218 1.368 1_655 S
C215 C196 1.429 . S
C215 C209 1.428 1_455 S
C215 C216 1.523 . S
C216 C197 1.368 1_455 S
C216 C210 1.368 . S
C216 C215 1.523 . S
C217 C201 1.428 1_455 S
C217 C213 1.429 . S
C217 C218 1.523 . S
C218 C202 1.369 . S
C218 C214 1.368 1_455 S
C218 C217 1.523 . S
H219 C194 0.950 . S
H220 C196 0.950 . S
H221 C197 0.949 . S
H222 C199 0.950 . S
H223 C201 0.950 . S
C224 C225 1.349 . S
C224 C226 1.327 . S
C224 H249 0.950 . S
C225 C224 1.349 . S
C225 C241 1.349 1_545 S
C226 C224 1.327 . S
C226 C245 1.428 . S
C226 H250 0.950 . S
C227 C244 1.574 . S
C227 C246 1.368 1_565 S
C227 H251 0.949 . S
H228 C232 0.949 . S
C229 C230 1.349 1_565 S
C229 C231 1.327 . S
C229 H252 0.950 . S
C230 C229 1.349 1_545 S
C230 C242 1.349 . S
C231 C229 1.327 . S
C231 C247 1.429 1_565 S
C231 H253 0.950 . S
C232 H228 0.949 . S
C232 C240 1.574 . S
C232 C248 1.368 . S
H233 C241 0.950 . S
H234 C239 0.950 . S
H235 C240 0.949 . S
H236 C242 0.950 . S
H237 C243 0.950 . S
H238 C244 0.949 . S
C239 H234 0.950 . S
C239 C241 1.327 . S
C239 C245 1.429 1_565 S
C240 C232 1.574 . S
C240 H235 0.949 . S
C240 C246 1.368 . S
C241 C225 1.349 1_565 S
C241 H233 0.950 . S
C241 C239 1.327 . S
C242 C230 1.349 . S
C242 H236 0.950 . S
C242 C243 1.327 . S
C243 H237 0.950 . S
C243 C242 1.327 . S
C243 C247 1.428 . S
C244 C227 1.574 . S
C244 H238 0.949 . S
C244 C248 1.368 1_565 S
C245 C226 1.428 . S
C245 C239 1.429 1_545 S
C245 C246 1.523 . S
C246 C227 1.368 1_545 S
C246 C240 1.368 . S
C246 C245 1.523 . S
C247 C231 1.429 1_545 S
C247 C243 1.428 . S
C247 C248 1.523 . S
C248 C232 1.368 . S
C248 C244 1.368 1_545 S
C248 C247 1.523 . S
H249 C224 0.950 . S
H250 C226 0.950 . S
H251 C227 0.949 . S
H252 C229 0.950 . S
H253 C231 0.950 . S
C254 C255 1.349 . S
C254 C256 1.327 . S
C254 H279 0.950 . S
C255 C254 1.349 . S
C255 C271 1.349 1_455 S
C256 C254 1.327 . S
C256 C275 1.429 . S
C256 H280 0.950 . S
C257 C274 1.574 . S
C257 C276 1.368 1_655 S
C257 H281 0.949 . S
H258 C262 0.949 . S
C259 C260 1.349 1_655 S
C259 C261 1.327 . S
C259 H282 0.950 . S
C260 C259 1.349 1_455 S
C260 C272 1.349 . S
C261 C259 1.327 . S
C261 C277 1.429 1_655 S
C261 H283 0.950 . S
C262 H258 0.949 . S
C262 C270 1.574 . S
C262 C278 1.368 . S
H263 C271 0.950 . S
H264 C269 0.950 . S
H265 C270 0.949 . S
H266 C272 0.950 . S
H267 C273 0.950 . S
H268 C274 0.949 . S
C269 H264 0.950 . S
C269 C271 1.327 . S
C269 C275 1.429 1_655 S
C270 C262 1.574 . S
C270 H265 0.949 . S
C270 C276 1.368 . S
C271 C255 1.349 1_655 S
C271 H263 0.950 . S
C271 C269 1.327 . S
C272 C260 1.349 . S
C272 H266 0.950 . S
C272 C273 1.327 . S
C273 H267 0.950 . S
C273 C272 1.327 . S
C273 C277 1.429 . S
C274 C257 1.574 . S
C274 H268 0.949 . S
C274 C278 1.368 1_655 S
C275 C256 1.429 . S
C275 C269 1.429 1_455 S
C275 C276 1.523 . S
C276 C257 1.368 1_455 S
C276 C270 1.368 . S
C276 C275 1.523 . S
C277 C261 1.429 1_455 S
C277 C273 1.429 . S
C277 C278 1.523 . S
C278 C262 1.368 . S
C278 C274 1.368 1_455 S
C278 C277 1.523 . S
H279 C254 0.950 . S
H280 C256 0.950 . S
H281 C257 0.949 . S
H282 C259 0.950 . S
H283 C261 0.950 . S
C284 C285 1.349 1_565 S
C284 C286 1.327 . S
C284 H309 0.950 . S
C285 C284 1.349 1_545 S
C285 C301 1.349 . S
C286 C284 1.327 . S
C286 C305 1.428 1_565 S
C286 H310 0.950 . S
C287 C304 1.574 . S
C287 C306 1.369 . S
C287 H311 0.949 . S
H288 C292 0.949 . S
C289 C290 1.350 . S
C289 C291 1.327 . S
C289 H312 0.950 . S
C290 C289 1.350 . S
C290 C302 1.348 1_545 S
C291 C289 1.327 . S
C291 C307 1.429 . S
C291 H313 0.950 . S
C292 H288 0.949 . S
C292 C300 1.574 . S
C292 C308 1.368 1_565 S
H293 C301 0.950 . S
H294 C299 0.950 . S
H295 C300 0.949 . S
H296 C302 0.950 . S
H297 C303 0.950 . S
H298 C304 0.949 . S
C299 H294 0.950 . S
C299 C301 1.327 . S
C299 C305 1.429 . S
C300 C292 1.574 . S
C300 H295 0.949 . S
C300 C306 1.368 1_565 S
C301 C285 1.349 . S
C301 H293 0.950 . S
C301 C299 1.327 . S
C302 C290 1.348 1_565 S
C302 H296 0.950 . S
C302 C303 1.327 . S
C303 H297 0.950 . S
C303 C302 1.327 . S
C303 C307 1.428 1_565 S
C304 C287 1.574 . S
C304 H298 0.949 . S
C304 C308 1.369 . S
C305 C286 1.428 1_545 S
C305 C299 1.429 . S
C305 C306 1.523 . S
C306 C287 1.369 . S
C306 C300 1.368 1_545 S
C306 C305 1.523 . S
C307 C291 1.429 . S
C307 C303 1.428 1_545 S
C307 C308 1.523 . S
C308 C292 1.368 1_545 S
C308 C304 1.369 . S
C308 C307 1.523 . S
H309 C284 0.950 . S
H310 C286 0.950 . S
H311 C287 0.949 . S
H312 C289 0.950 . S
H313 C291 0.950 . S
C314 C315 1.349 . S
C314 C316 1.327 . S
C314 H339 0.950 . S
C315 C314 1.349 . S
C315 C331 1.349 1_455 S
C316 C314 1.327 . S
C316 C335 1.428 . S
C316 H340 0.950 . S
C317 C334 1.574 . S
C317 C336 1.368 1_655 S
C317 H341 0.949 . S
H318 C322 0.949 . S
C319 C320 1.349 1_655 S
C319 C321 1.327 . S
C319 H342 0.950 . S
C320 C319 1.349 1_455 S
C320 C332 1.348 . S
C321 C319 1.327 . S
C321 C337 1.429 1_655 S
C321 H343 0.950 . S
C322 H318 0.949 . S
C322 C330 1.574 . S
C322 C338 1.368 . S
H323 C331 0.950 . S
H324 C329 0.950 . S
H325 C330 0.949 . S
H326 C332 0.950 . S
H327 C333 0.950 . S
H328 C334 0.949 . S
C329 H324 0.950 . S
C329 C331 1.327 . S
C329 C335 1.429 1_655 S
C330 C322 1.574 . S
C330 H325 0.949 . S
C330 C336 1.368 . S
C331 C315 1.349 1_655 S
C331 H323 0.950 . S
C331 C329 1.327 . S
C332 C320 1.348 . S
C332 H326 0.950 . S
C332 C333 1.327 . S
C333 H327 0.950 . S
C333 C332 1.327 . S
C333 C337 1.428 . S
C334 C317 1.574 . S
C334 H328 0.949 . S
C334 C338 1.369 1_655 S
C335 C316 1.428 . S
C335 C329 1.429 1_455 S
C335 C336 1.523 . S
C336 C317 1.368 1_455 S
C336 C330 1.368 . S
C336 C335 1.523 . S
C337 C321 1.429 1_455 S
C337 C333 1.428 . S
C337 C338 1.523 . S
C338 C322 1.368 . S
C338 C334 1.369 1_455 S
C338 C337 1.523 . S
H339 C314 0.950 . S
H340 C316 0.950 . S
H341 C317 0.949 . S
H342 C319 0.950 . S
H343 C321 0.950 . S
C344 C345 1.349 . S
C344 C346 1.327 . S
C344 H369 0.950 . S
C345 C344 1.349 . S
C345 C361 1.349 1_545 S
C346 C344 1.327 . S
C346 C365 1.428 . S
C346 H370 0.950 . S
C347 C364 1.574 . S
C347 C366 1.368 1_565 S
C347 H371 0.949 . S
H348 C352 0.949 . S
C349 C350 1.349 1_565 S
C349 C351 1.327 . S
C349 H372 0.950 . S
C350 C349 1.349 1_545 S
C350 C362 1.349 . S
C351 C349 1.327 . S
C351 C367 1.429 1_565 S
C351 H373 0.950 . S
C352 H348 0.949 . S
C352 C360 1.574 . S
C352 C368 1.368 . S
H353 C361 0.950 . S
H354 C359 0.950 . S
H355 C360 0.949 . S
H356 C362 0.950 . S
H357 C363 0.950 . S
H358 C364 0.949 . S
C359 H354 0.950 . S
C359 C361 1.327 . S
C359 C365 1.429 1_565 S
C360 C352 1.574 . S
C360 H355 0.949 . S
C360 C366 1.368 . S
C361 C345 1.349 1_565 S
C361 H353 0.950 . S
C361 C359 1.327 . S
C362 C350 1.349 . S
C362 H356 0.950 . S
C362 C363 1.327 . S
C363 H357 0.950 . S
C363 C362 1.327 . S
C363 C367 1.429 . S
C364 C347 1.574 . S
C364 H358 0.949 . S
C364 C368 1.368 1_565 S
C365 C346 1.428 . S
C365 C359 1.429 1_545 S
C365 C366 1.523 . S
C366 C347 1.368 1_545 S
C366 C360 1.368 . S
C366 C365 1.523 . S
C367 C351 1.429 1_545 S
C367 C363 1.429 . S
C367 C368 1.523 . S
C368 C352 1.368 . S
C368 C364 1.368 1_545 S
C368 C367 1.523 . S
H369 C344 0.950 . S
H370 C346 0.950 . S
H371 C347 0.949 . S
H372 C349 0.950 . S
H373 C351 0.950 . S
C374 C375 1.349 1_655 S
C374 C376 1.327 . S
C374 H399 0.950 . S
C375 C374 1.349 1_455 S
C375 C391 1.349 . S
C376 C374 1.327 . S
C376 C395 1.429 1_655 S
C376 H400 0.950 . S
C377 C394 1.574 . S
C377 C396 1.368 . S
C377 H401 0.949 . S
H378 C382 0.949 . S
C379 C380 1.349 . S
C379 C381 1.327 . S
C379 H402 0.950 . S
C380 C379 1.349 . S
C380 C392 1.349 1_455 S
C381 C379 1.327 . S
C381 C397 1.429 . S
C381 H403 0.950 . S
C382 H378 0.949 . S
C382 C390 1.574 . S
C382 C398 1.368 1_655 S
H383 C391 0.950 . S
H384 C389 0.950 . S
H385 C390 0.949 . S
H386 C392 0.950 . S
H387 C393 0.950 . S
H388 C394 0.949 . S
C389 H384 0.950 . S
C389 C391 1.327 . S
C389 C395 1.429 . S
C390 C382 1.574 . S
C390 H385 0.949 . S
C390 C396 1.368 1_655 S
C391 C375 1.349 . S
C391 H383 0.950 . S
C391 C389 1.327 . S
C392 C380 1.349 1_655 S
C392 H386 0.950 . S
C392 C393 1.327 . S
C393 H387 0.950 . S
C393 C392 1.327 . S
C393 C397 1.429 1_655 S
C394 C377 1.574 . S
C394 H388 0.949 . S
C394 C398 1.368 . S
C395 C376 1.429 1_455 S
C395 C389 1.429 . S
C395 C396 1.523 . S
C396 C377 1.368 . S
C396 C390 1.368 1_455 S
C396 C395 1.523 . S
C397 C381 1.429 . S
C397 C393 1.429 1_455 S
C397 C398 1.523 . S
C398 C382 1.368 1_455 S
C398 C394 1.368 . S
C398 C397 1.523 . S
H399 C374 0.950 . S
H400 C376 0.950 . S
H401 C377 0.949 . S
H402 C379 0.950 . S
H403 C381 0.950 . S
C404 C405 1.349 1_565 S
C404 C406 1.327 . S
C404 H429 0.950 . S
C405 C404 1.349 1_545 S
C405 C421 1.349 . S
C406 C404 1.327 . S
C406 C425 1.429 1_565 S
C406 H430 0.950 . S
C407 C424 1.574 . S
C407 C426 1.368 . S
C407 H431 0.949 . S
H408 C412 0.949 . S
C409 C410 1.348 . S
C409 C411 1.327 . S
C409 H432 0.950 . S
C410 C409 1.348 . S
C410 C422 1.350 1_545 S
C411 C409 1.327 . S
C411 C427 1.428 . S
C411 H433 0.950 . S
C412 H408 0.949 . S
C412 C420 1.574 . S
C412 C428 1.369 1_565 S
H413 C421 0.950 . S
H414 C419 0.950 . S
H415 C420 0.949 . S
H416 C422 0.950 . S
H417 C423 0.950 . S
H418 C424 0.949 . S
C419 H414 0.950 . S
C419 C421 1.327 . S
C419 C425 1.428 . S
C420 C412 1.574 . S
C420 H415 0.949 . S
C420 C426 1.369 1_565 S
C421 C405 1.349 . S
C421 H413 0.950 . S
C421 C419 1.327 . S
C422 C410 1.350 1_565 S
C422 H416 0.950 . S
C422 C423 1.327 . S
C423 H417 0.950 . S
C423 C422 1.327 . S
C423 C427 1.429 1_565 S
C424 C407 1.574 . S
C424 H418 0.949 . S
C424 C428 1.368 . S
C425 C406 1.429 1_545 S
C425 C419 1.428 . S
C425 C426 1.523 . S
C426 C407 1.368 . S
C426 C420 1.369 1_545 S
C426 C425 1.523 . S
C427 C411 1.428 . S
C427 C423 1.429 1_545 S
C427 C428 1.523 . S
C428 C412 1.369 1_545 S
C428 C424 1.368 . S
C428 C427 1.523 . S
H429 C404 0.950 . S
H430 C406 0.950 . S
H431 C407 0.949 . S
H432 C409 0.950 . S
H433 C411 0.950 . S
C434 C435 1.349 . S
C434 C436 1.327 . S
C434 H459 0.950 . S
C435 C434 1.349 . S
C435 C451 1.349 1_554 S
C436 C434 1.327 . S
C436 C455 1.429 . S
C436 H460 0.950 . S
C437 C454 1.574 . S
C437 C456 1.368 1_556 S
C437 H461 0.949 . S
H438 C442 0.949 . S
C439 C440 1.348 1_556 S
C439 C441 1.327 . S
C439 H462 0.950 . S
C440 C439 1.348 1_554 S
C440 C452 1.350 . S
C441 C439 1.327 . S
C441 C457 1.428 1_556 S
C441 H463 0.950 . S
C442 H438 0.949 . S
C442 C450 1.574 . S
C442 C458 1.369 . S
H443 C451 0.950 . S
H444 C449 0.950 . S
H445 C450 0.949 . S
H446 C452 0.950 . S
H447 C453 0.950 . S
H448 C454 0.949 . S
C449 H444 0.950 . S
C449 C451 1.327 . S
C449 C455 1.428 1_556 S
C450 C442 1.574 . S
C450 H445 0.949 . S
C450 C456 1.369 . S
C451 C435 1.349 1_556 S
C451 H443 0.950 . S
C451 C449 1.327 . S
C452 C440 1.350 . S
C452 H446 0.950 . S
C452 C453 1.327 . S
C453 H447 0.950 . S
C453 C452 1.327 . S
C453 C457 1.429 . S
C454 C437 1.574 . S
C454 H448 0.949 . S
C454 C458 1.368 1_556 S
C455 C436 1.429 . S
C455 C449 1.428 1_554 S
C455 C456 1.523 . S
C456 C437 1.368 1_554 S
C456 C450 1.369 . S
C456 C455 1.523 . S
C457 C441 1.428 1_554 S
C457 C453 1.429 . S
C457 C458 1.523 . S
C458 C442 1.369 . S
C458 C454 1.368 1_554 S
C458 C457 1.523 . S
H459 C434 0.950 . S
H460 C436 0.950 . S
H461 C437 0.949 . S
H462 C439 0.950 . S
H463 C441 0.950 . S
C464 C465 1.349 . S
C464 C466 1.327 . S
C464 H489 0.950 . S
C465 C464 1.349 . S
C465 C481 1.349 1_554 S
C466 C464 1.327 . S
C466 C485 1.429 . S
C466 H490 0.950 . S
C467 C484 1.574 . S
C467 C486 1.368 1_556 S
C467 H491 0.949 . S
H468 C472 0.949 . S
C469 C470 1.349 1_556 S
C469 C471 1.327 . S
C469 H492 0.950 . S
C470 C469 1.349 1_554 S
C470 C482 1.349 . S
C471 C469 1.327 . S
C471 C487 1.428 1_556 S
C471 H493 0.950 . S
C472 H468 0.949 . S
C472 C480 1.574 . S
C472 C488 1.368 . S
H473 C481 0.950 . S
H474 C479 0.950 . S
H475 C480 0.949 . S
H476 C482 0.950 . S
H477 C483 0.950 . S
H478 C484 0.949 . S
C479 H474 0.950 . S
C479 C481 1.327 . S
C479 C485 1.429 1_556 S
C480 C472 1.574 . S
C480 H475 0.949 . S
C480 C486 1.368 . S
C481 C465 1.349 1_556 S
C481 H473 0.950 . S
C481 C479 1.327 . S
C482 C470 1.349 . S
C482 H476 0.950 . S
C482 C483 1.327 . S
C483 H477 0.950 . S
C483 C482 1.327 . S
C483 C487 1.429 . S
C484 C467 1.574 . S
C484 H478 0.949 . S
C484 C488 1.368 1_556 S
C485 C466 1.429 . S
C485 C479 1.429 1_554 S
C485 C486 1.523 . S
C486 C467 1.368 1_554 S
C486 C480 1.368 . S
C486 C485 1.523 . S
C487 C471 1.428 1_554 S
C487 C483 1.429 . S
C487 C488 1.523 . S
C488 C472 1.368 . S
C488 C484 1.368 1_554 S
C488 C487 1.523 . S
H489 C464 0.950 . S
H490 C466 0.950 . S
H491 C467 0.949 . S
H492 C469 0.950 . S
H493 C471 0.950 . S
C494 C495 1.349 . S
C494 C496 1.327 . S
C494 H519 0.950 . S
C495 C494 1.349 . S
C495 C511 1.349 1_554 S
C496 C494 1.327 . S
C496 C515 1.429 . S
C496 H520 0.950 . S
C497 C514 1.574 . S
C497 C516 1.368 1_556 S
C497 H521 0.949 . S
H498 C502 0.949 . S
C499 C500 1.349 1_556 S
C499 C501 1.327 . S
C499 H522 0.950 . S
C500 C499 1.349 1_554 S
C500 C512 1.349 . S
C501 C499 1.327 . S
C501 C517 1.429 1_556 S
C501 H523 0.950 . S
C502 H498 0.949 . S
C502 C510 1.574 . S
C502 C518 1.368 . S
H503 C511 0.950 . S
H504 C509 0.950 . S
H505 C510 0.949 . S
H506 C512 0.950 . S
H507 C513 0.950 . S
H508 C514 0.949 . S
C509 H504 0.950 . S
C509 C511 1.327 . S
C509 C515 1.429 1_556 S
C510 C502 1.574 . S
C510 H505 0.949 . S
C510 C516 1.368 . S
C511 C495 1.349 1_556 S
C511 H503 0.950 . S
C511 C509 1.327 . S
C512 C500 1.349 . S
C512 H506 0.950 . S
C512 C513 1.327 . S
C513 H507 0.950 . S
C513 C512 1.327 . S
C513 C517 1.428 . S
C514 C497 1.574 . S
C514 H508 0.949 . S
C514 C518 1.368 1_556 S
C515 C496 1.429 . S
C515 C509 1.429 1_554 S
C515 C516 1.523 . S
C516 C497 1.368 1_554 S
C516 C510 1.368 . S
C516 C515 1.523 . S
C517 C501 1.429 1_554 S
C517 C513 1.428 . S
C517 C518 1.523 . S
C518 C502 1.368 . S
C518 C514 1.368 1_554 S
C518 C517 1.523 . S
H519 C494 0.950 . S
H520 C496 0.950 . S
H521 C497 0.949 . S
H522 C499 0.950 . S
H523 C501 0.950 . S
C524 C525 1.349 . S
C524 C526 1.327 . S
C524 H549 0.950 . S
C525 C524 1.349 . S
C525 C541 1.349 1_554 S
C526 C524 1.327 . S
C526 C545 1.428 . S
C526 H550 0.950 . S
C527 C544 1.574 . S
C527 C546 1.369 1_556 S
C527 H551 0.949 . S
H528 C532 0.949 . S
C529 C530 1.350 1_556 S
C529 C531 1.327 . S
C529 H552 0.950 . S
C530 C529 1.350 1_554 S
C530 C542 1.348 . S
C531 C529 1.327 . S
C531 C547 1.429 1_556 S
C531 H553 0.950 . S
C532 H528 0.949 . S
C532 C540 1.574 . S
C532 C548 1.368 . S
H533 C541 0.950 . S
H534 C539 0.950 . S
H535 C540 0.949 . S
H536 C542 0.950 . S
H537 C543 0.950 . S
H538 C544 0.949 . S
C539 H534 0.950 . S
C539 C541 1.327 . S
C539 C545 1.429 1_556 S
C540 C532 1.574 . S
C540 H535 0.949 . S
C540 C546 1.368 . S
C541 C525 1.349 1_556 S
C541 H533 0.950 . S
C541 C539 1.327 . S
C542 C530 1.348 . S
C542 H536 0.950 . S
C542 C543 1.327 . S
C543 H537 0.950 . S
C543 C542 1.327 . S
C543 C547 1.428 . S
C544 C527 1.574 . S
C544 H538 0.949 . S
C544 C548 1.369 1_556 S
C545 C526 1.428 . S
C545 C539 1.429 1_554 S
C545 C546 1.523 . S
C546 C527 1.369 1_554 S
C546 C540 1.368 . S
C546 C545 1.523 . S
C547 C531 1.429 1_554 S
C547 C543 1.428 . S
C547 C548 1.523 . S
C548 C532 1.368 . S
C548 C544 1.369 1_554 S
C548 C547 1.523 . S
H549 C524 0.950 . S
H550 C526 0.950 . S
H551 C527 0.949 . S
H552 C529 0.950 . S
H553 C531 0.950 . S
C200 C145 1.919 . S
C195 C36 1.908 1_455 S
C230 C152 1.192 . S
C225 C78 1.179 1_545 S
C260 C147 1.917 . S
C255 C30 1.896 1_455 S
C290 C153 1.194 . S
C285 C69 1.186 . S
C315 C21 1.913 . S
C320 C146 1.924 . S
C350 C155 1.192 . S
C345 C93 1.180 . S
C375 C45 1.896 . S
C380 C144 1.918 . S
C405 C84 1.190 1_545 S
C410 C154 1.199 . S
C435 C132 1.539 . S
C440 C149 1.537 . S
C465 C126 1.526 . S
C470 C148 1.540 . S
C500 C151 1.540 . S
C495 C141 1.526 1_554 S
C530 C150 1.541 . S
C525 C117 1.543 1_554 S
