# Generated by pormake.
# Topology pyr, (3,6)-cn, num edge types: 1
# Building blocks:
#     Node 0, Type 0, BuildingBlock: KAKCAD_clean_linker_0, # of connection points: 3
#     Node 1, Type 0, BuildingBlock: KAKCAD_clean_linker_0, # of connection points: 3
#     Node 2, Type 0, BuildingBlock: KAKCAD_clean_linker_0, # of connection points: 3
#     Node 3, Type 0, BuildingBlock: KAKCAD_clean_linker_0, # of connection points: 3
#     Node 4, Type 0, BuildingBlock: KAKCAD_clean_linker_0, # of connection points: 3
#     Node 5, Type 0, BuildingBlock: KAKCAD_clean_linker_0, # of connection points: 3
#     Node 6, Type 0, BuildingBlock: KAKCAD_clean_linker_0, # of connection points: 3
#     Node 7, Type 0, BuildingBlock: KAKCAD_clean_linker_0, # of connection points: 3
#     Node 8, Type 1, BuildingBlock: VOLQOD_clean_sbu_1, # of connection points: 6
#     Node 9, Type 1, BuildingBlock: VOLQOD_clean_sbu_1, # of connection points: 6
#     Node 10, Type 1, BuildingBlock: VOLQOD_clean_sbu_1, # of connection points: 6
#     Node 11, Type 1, BuildingBlock: VOLQOD_clean_sbu_1, # of connection points: 6
#     Edge 12, Type (0, 1), BuildingBlock: XUDNAN_clean_linker_2, # of connection points: 2
#     Edge 13, Type (0, 1), BuildingBlock: XUDNAN_clean_linker_2, # of connection points: 2
#     Edge 14, Type (0, 1), BuildingBlock: XUDNAN_clean_linker_2, # of connection points: 2
#     Edge 15, Type (0, 1), BuildingBlock: XUDNAN_clean_linker_2, # of connection points: 2
#     Edge 16, Type (0, 1), BuildingBlock: XUDNAN_clean_linker_2, # of connection points: 2
#     Edge 17, Type (0, 1), BuildingBlock: XUDNAN_clean_linker_2, # of connection points: 2
#     Edge 18, Type (0, 1), BuildingBlock: XUDNAN_clean_linker_2, # of connection points: 2
#     Edge 19, Type (0, 1), BuildingBlock: XUDNAN_clean_linker_2, # of connection points: 2
#     Edge 20, Type (0, 1), BuildingBlock: XUDNAN_clean_linker_2, # of connection points: 2
#     Edge 21, Type (0, 1), BuildingBlock: XUDNAN_clean_linker_2, # of connection points: 2
#     Edge 22, Type (0, 1), BuildingBlock: XUDNAN_clean_linker_2, # of connection points: 2
#     Edge 23, Type (0, 1), BuildingBlock: XUDNAN_clean_linker_2, # of connection points: 2
#     Edge 24, Type (0, 1), BuildingBlock: XUDNAN_clean_linker_2, # of connection points: 2
#     Edge 25, Type (0, 1), BuildingBlock: XUDNAN_clean_linker_2, # of connection points: 2
#     Edge 26, Type (0, 1), BuildingBlock: XUDNAN_clean_linker_2, # of connection points: 2
#     Edge 27, Type (0, 1), BuildingBlock: XUDNAN_clean_linker_2, # of connection points: 2
#     Edge 28, Type (0, 1), BuildingBlock: XUDNAN_clean_linker_2, # of connection points: 2
#     Edge 29, Type (0, 1), BuildingBlock: XUDNAN_clean_linker_2, # of connection points: 2
#     Edge 30, Type (0, 1), BuildingBlock: XUDNAN_clean_linker_2, # of connection points: 2
#     Edge 31, Type (0, 1), BuildingBlock: XUDNAN_clean_linker_2, # of connection points: 2
#     Edge 32, Type (0, 1), BuildingBlock: XUDNAN_clean_linker_2, # of connection points: 2
#     Edge 33, Type (0, 1), BuildingBlock: XUDNAN_clean_linker_2, # of connection points: 2
#     Edge 34, Type (0, 1), BuildingBlock: XUDNAN_clean_linker_2, # of connection points: 2
#     Edge 35, Type (0, 1), BuildingBlock: XUDNAN_clean_linker_2, # of connection points: 2
# Relax obj value: 0.035
# Max RMSD: 0.119
# Mean RMSD: 0.043
data_MOF--net-pry--node1-VOLQOD_clean_sbu_1--node2-KAKCAD_clean_linker_0--edge1-XUDNAN_clean_linker_2
_symmetry_space_group_name_H-M    P1
_symmetry_Int_Tables_number       1
_symmetry_cell_setting            triclinic
loop_
_symmetry_equiv_pos_as_xyz
'x, y, z'
_cell_length_a     45.586994
_cell_length_b     45.539494
_cell_length_c     45.733813
_cell_angle_alpha  90.376379
_cell_angle_beta   89.874497
_cell_angle_gamma 90.237714
loop_
_atom_site_label
_atom_site_type_symbol
_atom_site_fract_x
_atom_site_fract_y
_atom_site_fract_z
_atom_type_partial_charge
C0 C 0.06763 0.08342 0.21614 0.0
C1 C 0.08399 0.07488 0.24065 0.0
C2 C 0.08142 0.09662 0.19224 0.0
C3 C 0.11189 0.10145 0.1923 0.0
C4 C 0.12829 0.09264 0.21669 0.0
C5 C 0.11449 0.07953 0.2406 0.0
C6 C 0.12651 0.11626 0.16732 0.0
C7 C 0.11398 0.14121 0.15478 0.0
C8 C 0.12775 0.15587 0.13143 0.0
C9 C 0.1553 0.14572 0.1216 0.0
C10 C 0.16868 0.12116 0.13454 0.0
C11 C 0.15349 0.1061 0.15671 0.0
C12 C 0.19905 0.11192 0.12629 0.0
C13 C 0.20983 0.1148 0.09755 0.0
C14 C 0.21785 0.10043 0.14767 0.0
C15 C 0.24626 0.09177 0.14062 0.0
C16 C 0.25738 0.09523 0.11213 0.0
C17 C 0.11343 0.18212 0.11819 0.0
C18 C 0.08265 0.18418 0.11727 0.0
C19 C 0.1301 0.20569 0.10718 0.0
C20 C 0.11636 0.23062 0.09594 0.0
C21 C 0.08554 0.23312 0.09612 0.0
C22 C 0.06897 0.20942 0.10697 0.0
C23 C 0.2387 0.10673 0.0906 0.0
H24 H 0.04406 0.08039 0.21562 0.0
H25 H 0.06824 0.10298 0.17367 0.0
H26 H 0.15176 0.09634 0.21752 0.0
H27 H 0.12775 0.07292 0.25903 0.0
H28 H 0.0938 0.1497 0.16398 0.0
H29 H 0.16266 0.08633 0.16594 0.0
H30 H 0.16653 0.15716 0.10419 0.0
H31 H 0.19601 0.12319 0.08032 0.0
H32 H 0.21087 0.0984 0.17021 0.0
H33 H 0.25946 0.0823 0.15775 0.0
H34 H 0.06884 0.16633 0.12473 0.0
H35 H 0.15382 0.20531 0.10769 0.0
H36 H 0.24643 0.10994 0.06845 0.0
H37 H 0.0453 0.21033 0.10814 0.0
H38 H 0.13009 0.24791 0.08721 0.0
C39 C 0.39658 0.93679 0.74331 0.0
C40 C 0.42658 0.93055 0.74688 0.0
C41 C 0.38119 0.92611 0.71903 0.0
C42 C 0.39549 0.90943 0.6973 0.0
C43 C 0.42559 0.90368 0.70064 0.0
C44 C 0.44077 0.9137 0.72522 0.0
C45 C 0.37921 0.89787 0.67136 0.0
C46 C 0.35595 0.91382 0.65905 0.0
C47 C 0.34078 0.90298 0.63454 0.0
C48 C 0.34925 0.87613 0.62198 0.0
C49 C 0.37234 0.85988 0.63389 0.0
C50 C 0.38697 0.87072 0.65869 0.0
C51 C 0.38116 0.83154 0.62042 0.0
C52 C 0.35982 0.81099 0.61168 0.0
C53 C 0.41094 0.82502 0.61581 0.0
C54 C 0.41917 0.79871 0.60224 0.0
C55 C 0.39777 0.77835 0.59306 0.0
C56 C 0.31571 0.91936 0.62221 0.0
C57 C 0.29322 0.92972 0.64057 0.0
C58 C 0.31349 0.92367 0.59191 0.0
C59 C 0.28904 0.93766 0.58014 0.0
C60 C 0.26618 0.94733 0.59841 0.0
C61 C 0.26859 0.94341 0.62877 0.0
C62 C 0.36802 0.78468 0.59824 0.0
H63 H 0.38487 0.95006 0.75916 0.0
H64 H 0.35797 0.93072 0.71757 0.0
H65 H 0.43765 0.89146 0.68421 0.0
H66 H 0.46365 0.90782 0.72727 0.0
H67 H 0.34994 0.93503 0.66802 0.0
H68 H 0.40402 0.85753 0.66844 0.0
H69 H 0.33772 0.8678 0.60293 0.0
H70 H 0.33673 0.81518 0.61542 0.0
H71 H 0.42786 0.84059 0.6221 0.0
H72 H 0.44224 0.79465 0.59831 0.0
H73 H 0.29431 0.92651 0.664 0.0
H74 H 0.33062 0.91606 0.57729 0.0
H75 H 0.35101 0.76919 0.59203 0.0
H76 H 0.25137 0.95085 0.64336 0.0
H77 H 0.28764 0.94019 0.55665 0.0
C78 C 0.70906 0.45716 0.93211 0.0
C79 C 0.73366 0.43914 0.93612 0.0
C80 C 0.68268 0.44533 0.92198 0.0
C81 C 0.68022 0.4152 0.91571 0.0
C82 C 0.70423 0.39682 0.92137 0.0
C83 C 0.73076 0.40871 0.93147 0.0
C84 C 0.65334 0.40361 0.90139 0.0
C85 C 0.64136 0.41867 0.87756 0.0
C86 C 0.61577 0.40859 0.86355 0.0
C87 C 0.60227 0.38278 0.87386 0.0
C88 C 0.61451 0.36683 0.89704 0.0
C89 C 0.64004 0.37747 0.91076 0.0
C90 C 0.60118 0.33848 0.90611 0.0
C91 C 0.57061 0.33552 0.90901 0.0
C92 C 0.61895 0.31385 0.91085 0.0
C93 C 0.60642 0.28673 0.91786 0.0
C94 C 0.57581 0.28362 0.92044 0.0
C95 C 0.60412 0.42437 0.83747 0.0
C96 C 0.60746 0.45499 0.8348 0.0
C97 C 0.59063 0.40885 0.8144 0.0
C98 C 0.58123 0.4234 0.78933 0.0
C99 C 0.58577 0.45382 0.7861 0.0
C100 C 0.59882 0.46942 0.80937 0.0
C101 C 0.55807 0.30842 0.91615 0.0
H102 H 0.71043 0.4806 0.93609 0.0
H103 H 0.66435 0.45992 0.91838 0.0
H104 H 0.70296 0.37352 0.91664 0.0
H105 H 0.74938 0.3943 0.93421 0.0
H106 H 0.65277 0.43783 0.86935 0.0
H107 H 0.6493 0.36565 0.92903 0.0
H108 H 0.58247 0.37466 0.8635 0.0
H109 H 0.55637 0.35421 0.90585 0.0
H110 H 0.64255 0.31533 0.90835 0.0
H111 H 0.62074 0.26803 0.92054 0.0
H112 H 0.61706 0.46798 0.85226 0.0
H113 H 0.58788 0.38525 0.81523 0.0
H114 H 0.53446 0.30694 0.91846 0.0
H115 H 0.60307 0.49275 0.80785 0.0
H116 H 0.57055 0.41056 0.77241 0.0
C117 C 0.90854 0.58457 0.2786 0.0
C118 C 0.93915 0.58144 0.27701 0.0
C119 C 0.89505 0.59288 0.30483 0.0
C120 C 0.91184 0.59817 0.33012 0.0
C121 C 0.94234 0.59388 0.32879 0.0
C122 C 0.95584 0.58564 0.30253 0.0
C123 C 0.89777 0.61013 0.35704 0.0
C124 C 0.86994 0.60014 0.36593 0.0
C125 C 0.85489 0.61379 0.38921 0.0
C126 C 0.86861 0.63719 0.40413 0.0
C127 C 0.8967 0.64698 0.39606 0.0
C128 C 0.91116 0.63329 0.37258 0.0
C129 C 0.91003 0.67286 0.4109 0.0
C130 C 0.89313 0.69805 0.41631 0.0
C131 C 0.93968 0.67282 0.41928 0.0
C132 C 0.95218 0.69755 0.43277 0.0
C133 C 0.9353 0.72286 0.4378 0.0
C134 C 0.82417 0.60515 0.39673 0.0
C135 C 0.80442 0.59645 0.37469 0.0
C136 C 0.8138 0.60708 0.4257 0.0
C137 C 0.78427 0.6018 0.43221 0.0
C138 C 0.76438 0.59382 0.41003 0.0
C139 C 0.77508 0.59053 0.38131 0.0
C140 C 0.90562 0.72275 0.42958 0.0
H141 H 0.8951 0.58186 0.25926 0.0
H142 H 0.87156 0.59639 0.30494 0.0
H143 H 0.95585 0.59732 0.34797 0.0
H144 H 0.97943 0.58291 0.30213 0.0
H145 H 0.85994 0.58179 0.35446 0.0
H146 H 0.9322 0.64181 0.36541 0.0
H147 H 0.85716 0.64843 0.42166 0.0
H148 H 0.87031 0.69888 0.40981 0.0
H149 H 0.95317 0.65364 0.41549 0.0
H150 H 0.97515 0.69709 0.43872 0.0
H151 H 0.81129 0.59499 0.35206 0.0
H152 H 0.82838 0.61309 0.44342 0.0
H153 H 0.89199 0.74182 0.43345 0.0
H154 H 0.76075 0.58367 0.36368 0.0
H155 H 0.77699 0.60479 0.45457 0.0
C156 C 0.93808 0.92282 0.79933 0.0
C157 C 0.94019 0.95351 0.79717 0.0
C158 C 0.932 0.90963 0.82609 0.0
C159 C 0.92784 0.92677 0.85143 0.0
C160 C 0.93048 0.95746 0.84947 0.0
C161 C 0.93664 0.9707 0.82261 0.0
C162 C 0.91898 0.91243 0.87917 0.0
C163 C 0.93156 0.88563 0.88713 0.0
C164 C 0.91987 0.86886 0.9101 0.0
C165 C 0.89651 0.88047 0.92665 0.0
C166 C 0.88436 0.90795 0.91976 0.0
C167 C 0.89572 0.92368 0.89588 0.0
C168 C 0.85822 0.91932 0.93568 0.0
C169 C 0.83491 0.90045 0.94315 0.0
C170 C 0.85558 0.94947 0.94192 0.0
C171 C 0.82992 0.96063 0.95441 0.0
C172 C 0.80628 0.9419 0.96113 0.0
C173 C 0.93014 0.83816 0.91454 0.0
C174 C 0.93761 0.8207 0.89018 0.0
C175 C 0.93144 0.82557 0.94254 0.0
C176 C 0.9394 0.79608 0.94592 0.0
C177 C 0.94633 0.77862 0.92137 0.0
C178 C 0.94592 0.79156 0.89358 0.0
C179 C 0.80929 0.91161 0.95578 0.0
H180 H 0.94005 0.90893 0.78012 0.0
H181 H 0.92947 0.88598 0.82668 0.0
H182 H 0.92759 0.97121 0.86867 0.0
H183 H 0.93845 0.9944 0.82172 0.0
H184 H 0.95002 0.87736 0.87464 0.0
H185 H 0.88526 0.94387 0.88918 0.0
H186 H 0.88711 0.86772 0.94427 0.0
H187 H 0.83603 0.87717 0.93837 0.0
H188 H 0.87324 0.96456 0.93672 0.0
H189 H 0.82831 0.9841 0.95795 0.0
H190 H 0.93634 0.82922 0.86817 0.0
H191 H 0.92614 0.83841 0.96183 0.0
H192 H 0.79169 0.89648 0.96106 0.0
H193 H 0.95173 0.77906 0.8742 0.0
H194 H 0.93935 0.78679 0.96765 0.0
C195 C 0.57201 0.07651 0.31329 0.0
C196 C 0.57887 0.09709 0.29143 0.0
C197 C 0.58041 0.0816 0.34233 0.0
C198 C 0.59538 0.10751 0.34994 0.0
C199 C 0.60267 0.12775 0.32813 0.0
C200 C 0.59476 0.12249 0.2992 0.0
C201 C 0.60353 0.11398 0.3805 0.0
C202 C 0.62211 0.09509 0.3958 0.0
C203 C 0.63345 0.10343 0.42322 0.0
C204 C 0.62481 0.13037 0.43573 0.0
C205 C 0.60623 0.14941 0.42051 0.0
C206 C 0.59555 0.14094 0.39302 0.0
C207 C 0.6002 0.17926 0.43194 0.0
C208 C 0.59146 0.18362 0.46107 0.0
C209 C 0.60379 0.20372 0.4137 0.0
C210 C 0.59886 0.23203 0.42438 0.0
C211 C 0.59003 0.23653 0.45352 0.0
C212 C 0.65741 0.08613 0.43655 0.0
C213 C 0.65672 0.05527 0.43628 0.0
C214 C 0.68258 0.10058 0.44711 0.0
C215 C 0.70696 0.08461 0.45602 0.0
C216 C 0.7068 0.05377 0.45466 0.0
C217 C 0.68117 0.03923 0.44529 0.0
C218 C 0.58624 0.21197 0.47172 0.0
H219 H 0.55966 0.05679 0.30812 0.0
H220 H 0.57466 0.06569 0.35891 0.0
H221 H 0.61473 0.14762 0.33348 0.0
H222 H 0.6013 0.13838 0.2829 0.0
H223 H 0.62947 0.07501 0.38531 0.0
H224 H 0.5815 0.15569 0.38095 0.0
H225 H 0.63375 0.13722 0.45664 0.0
H226 H 0.58835 0.16509 0.4755 0.0
H227 H 0.61103 0.20099 0.39127 0.0
H228 H 0.60254 0.25042 0.40992 0.0
H229 H 0.63752 0.04354 0.42849 0.0
H230 H 0.68411 0.12432 0.44704 0.0
H231 H 0.57899 0.21459 0.49414 0.0
H232 H 0.68023 0.01548 0.44434 0.0
H233 H 0.72648 0.09658 0.46254 0.0
C234 C 0.28978 0.59671 0.09547 0.0
C235 C 0.29057 0.5917 0.06515 0.0
C236 C 0.31481 0.6062 0.11027 0.0
C237 C 0.34123 0.611 0.09513 0.0
C238 C 0.34198 0.60658 0.06471 0.0
C239 C 0.3169 0.5968 0.04986 0.0
C240 C 0.36773 0.62045 0.11148 0.0
C241 C 0.37483 0.60664 0.1378 0.0
C242 C 0.39733 0.61748 0.15592 0.0
C243 C 0.41398 0.6417 0.14627 0.0
C244 C 0.40799 0.65509 0.11924 0.0
C245 C 0.38469 0.64433 0.10207 0.0
C246 C 0.42508 0.68113 0.10939 0.0
C247 C 0.43265 0.7037 0.12915 0.0
C248 C 0.43318 0.68402 0.07987 0.0
C249 C 0.44808 0.70903 0.07024 0.0
C250 C 0.45534 0.73178 0.0899 0.0
C251 C 0.4019 0.60453 0.18551 0.0
C252 C 0.37781 0.5934 0.2013 0.0
C253 C 0.42984 0.60356 0.19855 0.0
C254 C 0.43338 0.59235 0.22681 0.0
C255 C 0.40914 0.58142 0.24254 0.0
C256 C 0.38147 0.58156 0.22903 0.0
C257 C 0.44761 0.72873 0.11952 0.0
H258 H 0.26994 0.59266 0.10791 0.0
H259 H 0.31348 0.60981 0.13368 0.0
H260 H 0.36208 0.61012 0.05253 0.0
H261 H 0.31807 0.59325 0.02644 0.0
H262 H 0.36233 0.58745 0.14425 0.0
H263 H 0.37887 0.65536 0.08198 0.0
H264 H 0.4313 0.65051 0.15994 0.0
H265 H 0.42646 0.70235 0.15198 0.0
H266 H 0.42793 0.66693 0.06413 0.0
H267 H 0.45336 0.71077 0.04722 0.0
H268 H 0.35578 0.59423 0.19259 0.0
H269 H 0.44903 0.61149 0.18703 0.0
H270 H 0.45313 0.74568 0.13531 0.0
H271 H 0.36231 0.5727 0.23993 0.0
H272 H 0.45503 0.59286 0.23647 0.0
C273 C 0.07902 0.28533 0.56574 0.0
C274 C 0.04834 0.28666 0.56264 0.0
C275 C 0.09481 0.30955 0.57601 0.0
C276 C 0.08032 0.33557 0.58383 0.0
C277 C 0.04982 0.33731 0.58021 0.0
C278 C 0.034 0.31317 0.56948 0.0
C279 C 0.09698 0.35983 0.59778 0.0
C280 C 0.12385 0.36906 0.58587 0.0
C281 C 0.14182 0.38904 0.60104 0.0
C282 C 0.13238 0.40015 0.62815 0.0
C283 C 0.10582 0.39072 0.64067 0.0
C284 C 0.0879 0.37104 0.62499 0.0
C285 C 0.0989 0.39817 0.67158 0.0
C286 C 0.12113 0.397 0.69279 0.0
C287 C 0.07008 0.40462 0.68051 0.0
C288 C 0.06361 0.4093 0.71012 0.0
C289 C 0.08581 0.40734 0.73131 0.0
C290 C 0.17197 0.39558 0.59062 0.0
C291 C 0.19018 0.37269 0.58083 0.0
C292 C 0.18365 0.42411 0.59295 0.0
C293 C 0.21321 0.4294 0.58672 0.0
C294 C 0.2317 0.40625 0.57815 0.0
C295 C 0.21973 0.37797 0.57468 0.0
C296 C 0.11468 0.40161 0.72223 0.0
H297 H 0.09085 0.2652 0.56142 0.0
H298 H 0.11827 0.30746 0.57908 0.0
H299 H 0.0382 0.35723 0.58599 0.0
H300 H 0.01049 0.3152 0.56692 0.0
H301 H 0.13112 0.36004 0.56509 0.0
H302 H 0.06799 0.36263 0.63496 0.0
H303 H 0.14655 0.41492 0.64036 0.0
H304 H 0.14347 0.3916 0.68679 0.0
H305 H 0.05253 0.40576 0.66464 0.0
H306 H 0.04114 0.4136 0.71651 0.0
H307 H 0.18194 0.35041 0.57912 0.0
H308 H 0.17007 0.4422 0.60027 0.0
H309 H 0.13234 0.40041 0.73798 0.0
H310 H 0.23335 0.35978 0.56771 0.0
H311 H 0.22182 0.45141 0.58975 0.0
O312 O 0.96936 0.06944 0.52972 0.0
Zn313 Zn 0.96036 0.02633 0.53133 0.0
O314 O 0.99026 0.00331 0.51107 0.0
Zn315 Zn 0.97209 0.98305 0.47805 0.0
Zn316 Zn 0.02097 0.02967 0.49655 0.0
Zn317 Zn 0.00704 0.97441 0.53801 0.0
O318 O 0.97729 0.93972 0.48148 0.0
O319 O 0.99945 0.93259 0.524 0.0
O320 O 0.92017 0.01963 0.51439 0.0
O321 O 0.92861 0.98988 0.47676 0.0
O322 O 0.98935 0.99587 0.43964 0.0
O323 O 0.02369 0.02805 0.45259 0.0
O324 O 0.06045 0.01846 0.51271 0.0
O325 O 0.95871 0.01591 0.57374 0.0
O326 O 0.05083 0.98011 0.54101 0.0
O327 O 0.99039 0.97943 0.57886 0.0
C328 C 0.99111 0.08426 0.52031 0.0
C329 C 0.98774 0.92259 0.50066 0.0
C330 C 0.00974 0.01382 0.43295 0.0
C331 C 0.911 0.0046 0.49267 0.0
C332 C 0.06893 0.99837 0.52997 0.0
C333 C 0.97158 0.99712 0.58963 0.0
O334 O 0.01275 0.0718 0.50776 0.0
O335 O 0.50285 0.06771 0.97953 0.0
Zn336 Zn 0.49151 0.02639 0.99184 0.0
O337 O 0.52321 0.00905 0.01488 0.0
Zn338 Zn 0.54158 0.9776 0.99291 0.0
Zn339 Zn 0.55246 0.0386 0.02393 0.0
Zn340 Zn 0.5081 0.9938 0.05158 0.0
O341 O 0.53148 0.93841 0.0107 0.0
O342 O 0.50797 0.9494 0.05194 0.0
O343 O 0.48535 0.00341 0.95428 0.0
O344 O 0.52666 0.97749 0.95158 0.0
O345 O 0.58569 0.98156 0.99272 0.0
O346 O 0.59331 0.02379 0.01604 0.0
O347 O 0.55011 0.04965 0.06616 0.0
O348 O 0.45389 0.02974 0.01569 0.0
O349 O 0.52972 0.01041 0.08664 0.0
O350 O 0.46713 0.00844 0.05721 0.0
C351 C 0.52519 0.0839 0.98456 0.0
C352 C 0.51822 0.93053 0.03395 0.0
C353 C 0.60306 0.00091 0.0032 0.0
C354 C 0.50302 0.98687 0.9402 0.0
C355 C 0.54256 0.03523 0.08871 0.0
C356 C 0.44837 0.02212 0.04192 0.0
O357 O 0.546 0.07514 0.00078 0.0
O358 O 0.53408 0.53492 0.57231 0.0
Zn359 Zn 0.52242 0.54468 0.53057 0.0
O360 O 0.49992 0.51229 0.51225 0.0
Zn361 Zn 0.51741 0.49925 0.47495 0.0
Zn362 Zn 0.49824 0.47949 0.53909 0.0
Zn363 Zn 0.46018 0.52492 0.50475 0.0
O364 O 0.49042 0.50552 0.44008 0.0
O365 O 0.45131 0.52396 0.46226 0.0
O366 O 0.5591 0.5529 0.50645 0.0
O367 O 0.55313 0.52385 0.46738 0.0
O368 O 0.53048 0.45646 0.47678 0.0
O369 O 0.52036 0.44562 0.52305 0.0
O370 O 0.45678 0.46601 0.54687 0.0
O371 O 0.49794 0.58198 0.53284 0.0
O372 O 0.43018 0.4996 0.52438 0.0
O373 O 0.45449 0.56647 0.51698 0.0
C374 C 0.53024 0.51186 0.58752 0.0
C375 C 0.4646 0.51608 0.43908 0.0
C376 C 0.53119 0.43881 0.49832 0.0
C377 C 0.56744 0.54338 0.48148 0.0
C378 C 0.43198 0.47659 0.53986 0.0
C379 C 0.47105 0.58669 0.52694 0.0
O380 O 0.51691 0.48949 0.57729 0.0
O381 O 0.98541 0.50781 0.067 0.0
Zn382 Zn 0.98665 0.48507 0.02852 0.0
O383 O 0.01553 0.5032 0.00207 0.0
Zn384 Zn 0.99758 0.51063 0.96442 0.0
Zn385 Zn 0.03017 0.54044 0.01803 0.0
Zn386 Zn 0.04831 0.47657 0.99638 0.0
O387 O 0.01621 0.48765 0.93153 0.0
O388 O 0.04989 0.4619 0.95494 0.0
O389 O 0.94579 0.48398 0.01047 0.0
O390 O 0.95503 0.50055 0.96579 0.0
O391 O 0.99832 0.55329 0.95496 0.0
O392 O 0.01558 0.57535 0.99477 0.0
O393 O 0.07459 0.54167 0.01805 0.0
O394 O 0.99843 0.4432 0.03763 0.0
O395 O 0.08682 0.49659 0.00398 0.0
O396 O 0.04455 0.44095 0.02174 0.0
C397 C 0.99895 0.53072 0.07606 0.0
C398 C 0.03648 0.46851 0.93154 0.0
C399 C 0.00435 0.57656 0.9693 0.0
C400 C 0.93722 0.49086 0.9849 0.0
C401 C 0.09397 0.52244 0.01205 0.0
C402 C 0.02274 0.42968 0.03507 0.0
O403 O 0.0166 0.54475 0.05957 0.0
H404 H 0.0942 0.0867 0.29861 0.0
H405 H 0.04047 0.03309 0.24081 0.0
H406 H 0.01569 0.01138 0.28371 0.0
H407 H 0.10415 0.03203 0.35443 0.0
H408 H 0.10234 0.05826 0.38406 0.0
H409 H 0.11578 0.06946 0.34878 0.0
H410 H 0.07688 0.11077 0.3473 0.0
H411 H 0.0633 0.09968 0.38255 0.0
H412 H 0.03865 0.10157 0.35187 0.0
H413 H 0.99681 0.99561 0.333 0.0
H414 H 0.98484 0.98728 0.38494 0.0
H415 H 0.05142 0.05103 0.41028 0.0
C416 C 0.07744 0.07016 0.29496 0.0
C417 C 0.06929 0.06155 0.26636 0.0
C418 C 0.04686 0.04024 0.26252 0.0
C419 C 0.03279 0.02767 0.28674 0.0
C420 C 0.04138 0.03669 0.31462 0.0
C421 C 0.06317 0.05745 0.31883 0.0
C422 C 0.0681 0.06358 0.35102 0.0
C423 C 0.09945 0.05533 0.3601 0.0
C424 C 0.06131 0.09581 0.35862 0.0
C425 C 0.04567 0.04299 0.36428 0.0
C426 C 0.0305 0.02765 0.34294 0.0
C427 C 0.00857 0.00748 0.34991 0.0
C428 C 0.00193 0.0029 0.3795 0.0
C429 C 0.01717 0.01847 0.40177 0.0
C430 C 0.03935 0.03871 0.39387 0.0
H431 H 0.40583 0.9387 0.80328 0.0
H432 H 0.48471 0.94712 0.75024 0.0
H433 H 0.51258 0.96148 0.79401 0.0
H434 H 0.42116 0.00345 0.84819 0.0
H435 H 0.4056 0.9874 0.88067 0.0
H436 H 0.39185 0.97691 0.84519 0.0
H437 H 0.40208 0.9223 0.85686 0.0
H438 H 0.41609 0.93262 0.89227 0.0
H439 H 0.4385 0.91144 0.86748 0.0
H440 H 0.53268 0.97174 0.84386 0.0
H441 H 0.5425 0.98304 0.89587 0.0
H442 H 0.44979 0.97387 0.91545 0.0
C443 C 0.42882 0.94403 0.80057 0.0
C444 C 0.443 0.94119 0.7731 0.0
C445 C 0.47333 0.94812 0.77101 0.0
C446 C 0.48939 0.9566 0.79575 0.0
C447 C 0.47477 0.95873 0.8224 0.0
C448 C 0.44508 0.95321 0.8249 0.0
C449 C 0.43453 0.95796 0.85601 0.0
C450 C 0.41195 0.98292 0.8576 0.0
C451 C 0.42207 0.92937 0.8689 0.0
C452 C 0.46305 0.96668 0.87065 0.0
C453 C 0.48605 0.9666 0.8509 0.0
C454 C 0.51481 0.97231 0.85947 0.0
C455 C 0.52019 0.97853 0.88901 0.0
C456 C 0.49685 0.97954 0.90943 0.0
C457 C 0.46792 0.97364 0.9001 0.0
H458 H 0.58571 0.43103 0.72999 0.0
H459 H 0.56701 0.5111 0.77878 0.0
H460 H 0.55502 0.53601 0.73272 0.0
H461 H 0.61527 0.46347 0.66517 0.0
H462 H 0.59753 0.43759 0.64096 0.0
H463 H 0.60728 0.42676 0.67747 0.0
H464 H 0.55336 0.41159 0.68771 0.0
H465 H 0.54352 0.42209 0.65116 0.0
H466 H 0.52447 0.43785 0.68203 0.0
H467 H 0.54491 0.5523 0.68057 0.0
H468 H 0.53193 0.55646 0.62808 0.0
H469 H 0.55212 0.46429 0.61539 0.0
C470 C 0.57878 0.45369 0.73134 0.0
C471 C 0.57767 0.46897 0.75837 0.0
C472 C 0.56889 0.49888 0.7585 0.0
C473 C 0.56183 0.51327 0.73239 0.0
C474 C 0.5632 0.49742 0.70627 0.0
C475 C 0.57102 0.46816 0.70568 0.0
C476 C 0.56885 0.45539 0.67515 0.0
C477 C 0.59903 0.44521 0.66404 0.0
C478 C 0.5462 0.43025 0.67395 0.0
C479 C 0.55836 0.482 0.65865 0.0
C480 C 0.55577 0.50624 0.67679 0.0
C481 C 0.54674 0.53342 0.6662 0.0
C482 C 0.53956 0.53564 0.63641 0.0
C483 C 0.5409 0.51066 0.6179 0.0
C484 C 0.55072 0.48368 0.62918 0.0
H485 H 0.92229 0.54282 0.23343 0.0
H486 H 0.9886 0.60786 0.25571 0.0
H487 H 0.01159 0.60089 0.20732 0.0
H488 H 0.97029 0.4944 0.19162 0.0
H489 H 0.94264 0.48556 0.16481 0.0
H490 H 0.93204 0.49469 0.20174 0.0
H491 H 0.8984 0.53589 0.18229 0.0
H492 H 0.90897 0.52697 0.14534 0.0
H493 H 0.9137 0.56388 0.15903 0.0
H494 H 0.02579 0.58911 0.15597 0.0
H495 H 0.03192 0.57154 0.10533 0.0
H496 H 0.95672 0.51361 0.11593 0.0
C497 C 0.9417 0.55552 0.22814 0.0
C498 C 0.95375 0.57578 0.24845 0.0
C499 C 0.97927 0.59186 0.24074 0.0
C500 C 0.99237 0.5882 0.21323 0.0
C501 C 0.97979 0.56829 0.19368 0.0
C502 C 0.95516 0.55204 0.20079 0.0
C503 C 0.94588 0.5324 0.17552 0.0
C504 C 0.94784 0.49983 0.18393 0.0
C505 C 0.9149 0.54027 0.16492 0.0
C506 C 0.96896 0.54042 0.153 0.0
C507 C 0.98824 0.5612 0.16398 0.0
C508 C 0.01096 0.57269 0.14716 0.0
C509 C 0.01418 0.56261 0.11835 0.0
C510 C 0.99484 0.54113 0.10658 0.0
C511 C 0.97197 0.52989 0.12429 0.0
H512 H 0.28077 0.07238 0.06056 0.0
H513 H 0.30505 0.10042 0.14838 0.0
H514 H 0.35518 0.08315 0.13986 0.0
H515 H 0.32515 0.00871 0.05584 0.0
H516 H 0.33632 0.01421 0.01844 0.0
H517 H 0.30161 0.02823 0.03107 0.0
H518 H 0.31627 0.08051 0.01437 0.0
H519 H 0.35091 0.06661 0.00138 0.0
H520 H 0.35009 0.09657 0.02731 0.0
H521 H 0.40131 0.05998 0.12389 0.0
H522 H 0.44388 0.03864 0.09855 0.0
H523 H 0.39288 0.03051 0.0188 0.0
C524 C 0.29664 0.07532 0.0779 0.0
C525 C 0.28841 0.08709 0.10551 0.0
C526 C 0.31017 0.09044 0.12746 0.0
C527 C 0.33892 0.08094 0.12277 0.0
C528 C 0.34599 0.06877 0.09573 0.0
C529 C 0.32579 0.06654 0.07338 0.0
C530 C 0.33978 0.05353 0.04605 0.0
C531 C 0.32482 0.02444 0.03735 0.0
C532 C 0.33923 0.07563 0.02078 0.0
C533 C 0.37083 0.04848 0.05681 0.0
C534 C 0.37363 0.0571 0.0857 0.0
C535 C 0.39957 0.05347 0.10116 0.0
C536 C 0.42355 0.04111 0.08661 0.0
C537 C 0.42167 0.03297 0.05672 0.0
C538 C 0.39493 0.03674 0.0416 0.0
H539 H 0.20909 0.93397 0.61133 0.0
H540 H 0.263 0.98979 0.55642 0.0
H541 H 0.21827 0.01014 0.5338 0.0
H542 H 0.15592 0.91647 0.55734 0.0
H543 H 0.12534 0.91657 0.5824 0.0
H544 H 0.16148 0.90765 0.5953 0.0
H545 H 0.15793 0.9489 0.63446 0.0
H546 H 0.12171 0.95788 0.62174 0.0
H547 H 0.14975 0.98587 0.6233 0.0
H548 H 0.16761 0.02365 0.5167 0.0
H549 H 0.11494 0.02844 0.50533 0.0
H550 H 0.09443 0.9629 0.57096 0.0
C551 C 0.21144 0.95081 0.59487 0.0
C552 C 0.23944 0.96048 0.58571 0.0
C553 C 0.24171 0.98205 0.56364 0.0
C554 C 0.21646 0.99379 0.55079 0.0
C555 C 0.18917 0.98361 0.56018 0.0
C556 C 0.18652 0.96257 0.58168 0.0
C557 C 0.15472 0.9545 0.58703 0.0
C558 C 0.14905 0.92187 0.58009 0.0
C559 C 0.14549 0.96226 0.6185 0.0
C560 C 0.13988 0.9742 0.56508 0.0
C561 C 0.16009 0.99096 0.54995 0.0
C562 C 0.15158 0.01067 0.52844 0.0
C563 C 0.12159 0.01323 0.52215 0.0
C564 C 0.1005 0.99602 0.53719 0.0
C565 C 0.10994 0.97634 0.55899 0.0
H566 H 0.77619 0.42035 0.97476 0.0
H567 H 0.7572 0.4878 0.91092 0.0
H568 H 0.80596 0.50961 0.91903 0.0
H569 H 0.81876 0.46751 0.02454 0.0
H570 H 0.84481 0.43918 0.0331 0.0
H571 H 0.80762 0.42948 0.02369 0.0
H572 H 0.82673 0.39545 0.98229 0.0
H573 H 0.86394 0.40504 0.99156 0.0
H574 H 0.85092 0.41025 0.95478 0.0
H575 H 0.85724 0.52206 0.93071 0.0
H576 H 0.90859 0.52574 0.94683 0.0
H577 H 0.89539 0.45145 0.00449 0.0
C578 C 0.78229 0.43981 0.96266 0.0
C579 C 0.76273 0.45256 0.94242 0.0
C580 C 0.77152 0.478 0.92697 0.0
C581 C 0.79925 0.49048 0.9313 0.0
C582 C 0.81798 0.47739 0.95128 0.0
C583 C 0.80995 0.45276 0.96689 0.0
C584 C 0.8348 0.44278 0.98648 0.0
C585 C 0.82596 0.44487 0.01888 0.0
C586 C 0.84468 0.41153 0.97828 0.0
C587 C 0.85816 0.46536 0.97894 0.0
C588 C 0.84783 0.48506 0.95857 0.0
C589 C 0.86553 0.507 0.9469 0.0
C590 C 0.89469 0.50882 0.95611 0.0
C591 C 0.90588 0.48897 0.97699 0.0
C592 C 0.88725 0.46717 0.98883 0.0
H593 H 0.73854 0.57195 0.46034 0.0
H594 H 0.71756 0.60712 0.37475 0.0
H595 H 0.66513 0.59925 0.38456 0.0
H596 H 0.68338 0.51735 0.46327 0.0
H597 H 0.67505 0.52281 0.50146 0.0
H598 H 0.71122 0.53103 0.48783 0.0
H599 H 0.70722 0.58405 0.50831 0.0
H600 H 0.671 0.57599 0.52204 0.0
H601 H 0.67662 0.6066 0.49784 0.0
H602 H 0.61541 0.58448 0.40191 0.0
H603 H 0.57095 0.56671 0.42747 0.0
H604 H 0.62308 0.54639 0.50379 0.0
C605 C 0.72302 0.57847 0.44376 0.0
C606 C 0.73253 0.58979 0.41653 0.0
C607 C 0.71118 0.59759 0.39543 0.0
C608 C 0.68121 0.59353 0.40091 0.0
C609 C 0.67275 0.5822 0.42782 0.0
C610 C 0.69293 0.57513 0.44907 0.0
C611 C 0.67787 0.56347 0.47625 0.0
C612 C 0.68745 0.53178 0.48256 0.0
C613 C 0.68352 0.58374 0.50267 0.0
C614 C 0.64609 0.56466 0.46671 0.0
C615 C 0.64371 0.57537 0.43859 0.0
C616 C 0.61689 0.57659 0.42412 0.0
C617 C 0.59184 0.56645 0.43873 0.0
C618 C 0.59374 0.5558 0.46763 0.0
C619 C 0.62111 0.55518 0.48193 0.0
H620 H 0.10661 0.2904 0.09681 0.0
H621 H 0.03068 0.23826 0.07084 0.0
H622 H 0.00516 0.28329 0.05666 0.0
H623 H 0.06943 0.35414 0.12286 0.0
H624 H 0.09535 0.37962 0.10723 0.0
H625 H 0.10716 0.34351 0.11777 0.0
H626 H 0.12679 0.33383 0.06536 0.0
H627 H 0.11538 0.37003 0.05478 0.0
H628 H 0.1026 0.33836 0.0346 0.0
H629 H 0.98707 0.3344 0.04647 0.0
H630 H 0.9809 0.38678 0.03376 0.0
H631 H 0.07066 0.40431 0.06001 0.0
C632 C 0.0848 0.2881 0.08782 0.0
C633 C 0.07068 0.26037 0.08569 0.0
C634 C 0.04187 0.25903 0.07391 0.0
C635 C 0.02714 0.28457 0.0655 0.0
C636 C 0.04163 0.31138 0.06829 0.0
C637 C 0.07005 0.31324 0.07852 0.0
C638 C 0.08147 0.34449 0.07735 0.0
C639 C 0.08877 0.35612 0.10814 0.0
C640 C 0.10813 0.3468 0.05679 0.0
C641 C 0.05499 0.35989 0.06483 0.0
C642 C 0.03201 0.3405 0.06035 0.0
C643 C 0.00498 0.34975 0.04965 0.0
C644 C 0.00161 0.3795 0.04268 0.0
C645 C 0.02534 0.39938 0.04584 0.0
C646 C 0.05224 0.38945 0.05727 0.0
H647 H 0.59593 0.24197 0.95864 0.0
H648 H 0.52573 0.25919 0.89716 0.0
H649 H 0.50433 0.21044 0.90753 0.0
H650 H 0.6053 0.16634 0.93943 0.0
H651 H 0.61291 0.15502 0.97632 0.0
H652 H 0.62189 0.19176 0.96493 0.0
H653 H 0.5907 0.21295 0.00753 0.0
H654 H 0.58164 0.17627 0.01906 0.0
H655 H 0.55283 0.20199 0.01115 0.0
H656 H 0.49118 0.15905 0.92404 0.0
H657 H 0.4875 0.10938 0.94532 0.0
H658 H 0.56724 0.12588 0.99469 0.0
C659 C 0.57614 0.2355 0.9472 0.0
C660 C 0.5625 0.25452 0.92712 0.0
C661 C 0.53637 0.24524 0.91298 0.0
C662 C 0.52413 0.2175 0.91858 0.0
C663 C 0.53829 0.19926 0.93835 0.0
C664 C 0.56372 0.20791 0.95243 0.0
C665 C 0.57496 0.18407 0.97234 0.0
C666 C 0.60557 0.17369 0.96266 0.0
C667 C 0.57502 0.19445 0.00442 0.0
C668 C 0.55198 0.16057 0.96713 0.0
C669 C 0.53093 0.16973 0.94756 0.0
C670 C 0.50754 0.15165 0.93941 0.0
C671 C 0.50564 0.12348 0.95161 0.0
C672 C 0.52709 0.11363 0.97165 0.0
C673 C 0.55049 0.13259 0.97939 0.0
H674 H 0.9286 0.77936 0.4197 0.0
H675 H 0.97175 0.72685 0.48552 0.0
H676 H 0.99174 0.77219 0.50836 0.0
H677 H 0.98581 0.83419 0.41238 0.0
H678 H 0.96014 0.86374 0.40749 0.0
H679 H 0.95054 0.82705 0.39598 0.0
H680 H 0.90368 0.8291 0.42819 0.0
H681 H 0.91315 0.86575 0.4398 0.0
H682 H 0.90697 0.83755 0.46661 0.0
H683 H 0.00465 0.82424 0.52536 0.0
H684 H 0.01053 0.87773 0.53387 0.0
H685 H 0.95884 0.89472 0.45619 0.0
C686 C 0.94224 0.77737 0.43894 0.0
C687 C 0.94853 0.74965 0.45095 0.0
C688 C 0.96684 0.74791 0.47587 0.0
C689 C 0.97818 0.77352 0.48903 0.0
C690 C 0.97117 0.80058 0.4768 0.0
C691 C 0.95377 0.80256 0.45218 0.0
C692 C 0.94902 0.8341 0.44341 0.0
C693 C 0.96217 0.84011 0.41302 0.0
C694 C 0.91627 0.84208 0.44459 0.0
C695 C 0.96613 0.84969 0.46716 0.0
C696 C 0.97882 0.83012 0.48625 0.0
C697 C 0.99498 0.83974 0.51039 0.0
C698 C 0.99816 0.87014 0.51508 0.0
C699 C 0.98526 0.89049 0.49567 0.0
C700 C 0.9692 0.87988 0.47139 0.0
H701 H 0.4441 0.74166 0.60522 0.0
H702 H 0.37065 0.75282 0.54602 0.0
H703 H 0.38308 0.70615 0.52156 0.0
H704 H 0.49406 0.70936 0.5509 0.0
H705 H 0.50999 0.68433 0.57672 0.0
H706 H 0.49609 0.71928 0.58907 0.0
H707 H 0.46247 0.6928 0.62637 0.0
H708 H 0.47621 0.65781 0.61412 0.0
H709 H 0.43733 0.66486 0.61367 0.0
H710 H 0.40115 0.65745 0.50552 0.0
H711 H 0.42477 0.60952 0.49772 0.0
H712 H 0.48821 0.63023 0.56556 0.0
C713 C 0.43091 0.73453 0.58681 0.0
C714 C 0.40625 0.75083 0.57768 0.0
C715 C 0.38931 0.74048 0.55377 0.0
C716 C 0.39634 0.71412 0.53956 0.0
C717 C 0.42054 0.69847 0.54931 0.0
C718 C 0.43772 0.70829 0.57223 0.0
C719 C 0.46208 0.68673 0.57878 0.0
C720 C 0.49235 0.70077 0.57355 0.0
C721 C 0.45934 0.67485 0.61009 0.0
C722 C 0.45555 0.66305 0.55624 0.0
C723 C 0.43149 0.6704 0.5395 0.0
C724 C 0.4202 0.65156 0.51825 0.0
C725 C 0.43371 0.62434 0.51409 0.0
C726 C 0.45838 0.61623 0.53097 0.0
C727 C 0.46965 0.63604 0.55208 0.0
H728 H 0.97624 0.93525 0.75241 0.0
H729 H 0.91295 0.00244 0.77587 0.0
H730 H 0.91622 0.02248 0.72597 0.0
H731 H 0.02073 0.98022 0.70282 0.0
H732 H 0.02668 0.95021 0.67764 0.0
H733 H 0.02156 0.94301 0.71601 0.0
H734 H 0.97862 0.90762 0.70362 0.0
H735 H 0.98345 0.91485 0.66527 0.0
H736 H 0.94824 0.92076 0.68227 0.0
H737 H 0.9232 0.03266 0.67269 0.0
H738 H 0.93478 0.03359 0.62008 0.0
H739 H 0.99286 0.95905 0.63098 0.0
C740 C 0.96323 0.95432 0.74715 0.0
C741 C 0.9444 0.96733 0.76812 0.0
C742 C 0.9279 0.99239 0.76037 0.0
C743 C 0.92946 0.00383 0.73201 0.0
C744 C 0.94769 0.99002 0.71172 0.0
C745 C 0.96446 0.96595 0.71897 0.0
C746 C 0.98127 0.95438 0.69274 0.0
C747 C 0.01453 0.95713 0.6976 0.0
C748 C 0.97235 0.92252 0.68556 0.0
C749 C 0.97086 0.97534 0.66945 0.0
C750 C 0.95164 0.99582 0.68091 0.0
C751 C 0.93842 0.01691 0.66351 0.0
C752 C 0.94508 0.01716 0.63359 0.0
C753 C 0.96477 0.9964 0.62131 0.0
C754 C 0.97782 0.97529 0.63964 0.0
H755 H 0.57622 0.0451 0.2599 0.0
H756 H 0.55991 0.1388 0.25309 0.0
H757 H 0.54884 0.13261 0.20087 0.0
H758 H 0.60965 0.03469 0.19127 0.0
H759 H 0.5924 0.99984 0.18345 0.0
H760 H 0.59846 0.01106 0.22078 0.0
H761 H 0.54312 0.00449 0.2321 0.0
H762 H 0.53691 0.99293 0.19485 0.0
H763 H 0.51644 0.02321 0.21003 0.0
H764 H 0.54391 0.11757 0.14914 0.0
H765 H 0.53941 0.09332 0.10103 0.0
H766 H 0.55407 0.0086 0.14132 0.0
C767 C 0.56979 0.06425 0.24761 0.0
C768 C 0.56953 0.09255 0.26061 0.0
C769 C 0.56117 0.11702 0.24354 0.0
C770 C 0.55458 0.11373 0.21388 0.0
C771 C 0.55581 0.08575 0.20165 0.0
C772 C 0.56262 0.06131 0.21797 0.0
C773 C 0.56218 0.03371 0.19923 0.0
C774 C 0.59248 0.01897 0.19865 0.0
C775 C 0.53823 0.01232 0.20968 0.0
C776 C 0.55463 0.04665 0.16975 0.0
C777 C 0.55131 0.07675 0.17172 0.0
C778 C 0.54601 0.09397 0.14731 0.0
C779 C 0.54371 0.08002 0.1201 0.0
C780 C 0.54629 0.04914 0.1176 0.0
C781 C 0.5517 0.03222 0.14276 0.0
H782 H 0.45613 0.55272 0.26834 0.0
H783 H 0.36923 0.58729 0.28712 0.0
H784 H 0.37259 0.56902 0.33721 0.0
H785 H 0.45223 0.48818 0.31472 0.0
H786 H 0.4895 0.49171 0.32738 0.0
H787 H 0.47967 0.50481 0.29162 0.0
H788 H 0.49993 0.55645 0.30478 0.0
H789 H 0.51006 0.54344 0.34044 0.0
H790 H 0.48658 0.57498 0.33709 0.0
H791 H 0.38492 0.5487 0.38518 0.0
H792 H 0.40787 0.53224 0.43064 0.0
H793 H 0.48862 0.51374 0.38336 0.0
C794 C 0.43779 0.55652 0.28292 0.0
C795 C 0.41206 0.57087 0.27322 0.0
C796 C 0.38873 0.57541 0.29334 0.0
C797 C 0.39046 0.56526 0.32204 0.0
C798 C 0.41585 0.55097 0.33068 0.0
C799 C 0.43932 0.54695 0.31197 0.0
C800 C 0.46488 0.53287 0.32778 0.0
C801 C 0.47198 0.50259 0.31458 0.0
C802 C 0.49196 0.55315 0.32751 0.0
C803 C 0.45212 0.53007 0.35833 0.0
C804 C 0.42362 0.54022 0.35921 0.0
C805 C 0.40723 0.54066 0.38485 0.0
C806 C 0.42054 0.53125 0.4106 0.0
C807 C 0.45014 0.52177 0.41069 0.0
C808 C 0.46592 0.52062 0.38401 0.0
H809 H 0.05061 0.44838 0.75835 0.0
H810 H 0.10599 0.37316 0.77564 0.0
H811 H 0.09772 0.37962 0.82855 0.0
H812 H 0.07423 0.49177 0.81818 0.0
H813 H 0.03866 0.50696 0.82627 0.0
H814 H 0.04744 0.49556 0.78953 0.0
H815 H 0.00191 0.4613 0.78885 0.0
H816 H 0.99291 0.47271 0.82558 0.0
H817 H 0.99744 0.43427 0.81715 0.0
H818 H 0.0861 0.3957 0.87926 0.0
H819 H 0.07066 0.41975 0.92514 0.0
H820 H 0.0217 0.484 0.87541 0.0
C821 C 0.06058 0.433 0.77327 0.0
C822 C 0.0791 0.41038 0.76291 0.0
C823 C 0.09209 0.39092 0.78313 0.0
C824 C 0.08737 0.39428 0.8132 0.0
C825 C 0.06944 0.41708 0.82272 0.0
C826 C 0.05607 0.43602 0.80343 0.0
C827 C 0.0386 0.45927 0.8196 0.0
C828 C 0.05045 0.49021 0.813 0.0
C829 C 0.00576 0.45672 0.81236 0.0
C830 C 0.04463 0.45065 0.85096 0.0
C831 C 0.0624 0.4262 0.8522 0.0
C832 C 0.07195 0.4147 0.87863 0.0
C833 C 0.06313 0.4286 0.90457 0.0
C834 C 0.04489 0.45371 0.9039 0.0
C835 C 0.0354 0.46468 0.87667 0.0
H836 H 0.75021 0.92499 0.94659 0.0
H837 H 0.79868 0.98665 0.00109 0.0
H838 H 0.75202 0.00857 0.01768 0.0
H839 H 0.69427 0.97373 0.92433 0.0
H840 H 0.66538 0.94663 0.92566 0.0
H841 H 0.70255 0.93547 0.91841 0.0
H842 H 0.70039 0.89955 0.9621 0.0
H843 H 0.66313 0.91045 0.96937 0.0
H844 H 0.69033 0.91319 0.99781 0.0
H845 H 0.70003 0.02473 0.02712 0.0
H846 H 0.64658 0.03263 0.0303 0.0
H847 H 0.63229 0.95915 0.97091 0.0
C848 C 0.75109 0.94277 0.9624 0.0
C849 C 0.77821 0.9541 0.97248 0.0
C850 C 0.77824 0.97782 0.99272 0.0
C851 C 0.75184 0.99033 0.00241 0.0
C852 C 0.72557 0.97877 0.99179 0.0
C853 C 0.725 0.95538 0.97241 0.0
C854 C 0.69386 0.94716 0.96418 0.0
C855 C 0.68873 0.95099 0.93119 0.0
C856 C 0.6865 0.91572 0.97396 0.0
C857 C 0.67699 0.96968 0.98186 0.0
C858 C 0.69567 0.98776 0.99757 0.0
C859 C 0.68518 0.0106 0.01504 0.0
C860 C 0.65477 0.01496 0.01662 0.0
C861 C 0.63517 0.99648 0.00092 0.0
C862 C 0.6466 0.97358 0.98332 0.0
H863 H 0.74754 0.06445 0.49765 0.0
H864 H 0.72867 0.00675 0.42406 0.0
H865 H 0.77748 0.98426 0.42911 0.0
H866 H 0.81881 0.08041 0.47757 0.0
H867 H 0.83354 0.08157 0.51411 0.0
H868 H 0.79547 0.08973 0.50811 0.0
H869 H 0.78025 0.04917 0.5447 0.0
H870 H 0.81836 0.04104 0.55106 0.0
H871 H 0.79359 0.01229 0.53953 0.0
H872 H 0.83039 0.97269 0.43785 0.0
H873 H 0.88282 0.97148 0.45096 0.0
H874 H 0.86751 0.03759 0.51812 0.0
C875 C 0.75346 0.04673 0.4829 0.0
C876 C 0.73418 0.0373 0.46054 0.0
C877 C 0.74278 0.014 0.44173 0.0
C878 C 0.77056 0.00119 0.44431 0.0
C879 C 0.78939 0.01177 0.46592 0.0
C880 C 0.7811 0.03381 0.4851 0.0
C881 C 0.80621 0.04289 0.50482 0.0
C882 C 0.81396 0.07558 0.5009 0.0
C883 C 0.79918 0.03592 0.53693 0.0
C884 C 0.83022 0.02323 0.49307 0.0
C885 C 0.82 0.00521 0.47087 0.0
C886 C 0.83855 0.98636 0.45551 0.0
C887 C 0.86834 0.98595 0.46303 0.0
C888 C 0.87932 0.00439 0.48562 0.0
C889 C 0.85982 0.02302 0.50093 0.0
H890 H 0.23364 0.60971 0.07186 0.0
H891 H 0.28785 0.54693 0.02501 0.0
H892 H 0.24332 0.52413 0.00385 0.0
H893 H 0.17779 0.56062 0.09141 0.0
H894 H 0.14818 0.58628 0.08686 0.0
H895 H 0.1843 0.59945 0.09601 0.0
H896 H 0.18415 0.63314 0.05056 0.0
H897 H 0.1479 0.62021 0.04135 0.0
H898 H 0.17719 0.61743 0.01495 0.0
H899 H 0.19293 0.50515 0.99201 0.0
H900 H 0.14029 0.49315 0.98766 0.0
H901 H 0.11889 0.56891 0.04164 0.0
C902 C 0.23615 0.59136 0.05688 0.0
C903 C 0.26418 0.58007 0.05003 0.0
C904 C 0.2666 0.55614 0.03025 0.0
C905 C 0.24144 0.54298 0.01826 0.0
C906 C 0.2141 0.55423 0.02603 0.0
C907 C 0.21132 0.57811 0.04461 0.0
C908 C 0.17939 0.58526 0.05036 0.0
C909 C 0.17199 0.58274 0.0831 0.0
C910 C 0.17171 0.61582 0.03859 0.0
C911 C 0.16463 0.56122 0.03268 0.0
C912 C 0.18504 0.5436 0.01878 0.0
C913 C 0.17674 0.51903 0.00246 0.0
C914 C 0.14678 0.51231 0.00026 0.0
C915 C 0.12545 0.53017 0.0142 0.0
C916 C 0.13462 0.55505 0.03043 0.0
H917 H 0.25899 0.45234 0.55067 0.0
H918 H 0.27651 0.37174 0.59753 0.0
H919 H 0.32974 0.38083 0.59289 0.0
H920 H 0.31945 0.44678 0.5 0.0
H921 H 0.32686 0.48569 0.5003 0.0
H922 H 0.29018 0.47243 0.50684 0.0
H923 H 0.28872 0.50106 0.55601 0.0
H924 H 0.32544 0.51432 0.54967 0.0
H925 H 0.31691 0.49485 0.58282 0.0
H926 H 0.38103 0.39936 0.5842 0.0
H927 H 0.42674 0.42517 0.57053 0.0
H928 H 0.37538 0.49376 0.52971 0.0
C929 C 0.27403 0.43664 0.56 0.0
C930 C 0.26363 0.41128 0.57436 0.0
C931 C 0.28401 0.39109 0.58604 0.0
C932 C 0.31426 0.39616 0.58371 0.0
C933 C 0.32376 0.42148 0.56959 0.0
C934 C 0.30427 0.44132 0.55782 0.0
C935 C 0.32016 0.46682 0.54376 0.0
C936 C 0.31379 0.46798 0.51077 0.0
C937 C 0.31234 0.49598 0.55898 0.0
C938 C 0.35164 0.45828 0.54959 0.0
C939 C 0.35327 0.4321 0.56454 0.0
C940 C 0.38005 0.41987 0.57243 0.0
C941 C 0.40589 0.43472 0.56462 0.0
C942 C 0.40471 0.46149 0.54903 0.0
C943 C 0.37712 0.47335 0.5416 0.0
H944 H 0.97783 0.7505 0.96469 0.0
H945 H 0.92891 0.7343 0.88468 0.0
H946 H 0.94111 0.68194 0.88725 0.0
H947 H 0.03534 0.69793 0.95191 0.0
H948 H 0.03714 0.68606 0.98939 0.0
H949 H 0.02567 0.72289 0.9811 0.0
H950 H 0.97733 0.71466 0.00985 0.0
H951 H 0.98876 0.6779 0.01843 0.0
H952 H 0.95411 0.68386 0.00054 0.0
H953 H 0.95845 0.63194 0.89756 0.0
H954 H 0.97658 0.58552 0.91741 0.0
H955 H 0.01239 0.63236 0.99251 0.0
C956 C 0.96952 0.73593 0.94782 0.0
C957 C 0.95287 0.74678 0.92415 0.0
C958 C 0.94245 0.72683 0.90255 0.0
C959 C 0.9491 0.69695 0.90389 0.0
C960 C 0.96591 0.68713 0.92714 0.0
C961 C 0.97572 0.70582 0.94895 0.0
C962 C 0.99253 0.68907 0.97206 0.0
C963 C 0.02457 0.69962 0.9737 0.0
C964 C 0.97726 0.69152 0.00199 0.0
C965 C 0.99048 0.6581 0.95976 0.0
C966 C 0.97525 0.65769 0.93369 0.0
C967 C 0.97036 0.63189 0.91801 0.0
C968 C 0.98085 0.60561 0.9295 0.0
C969 C 0.99591 0.60516 0.95661 0.0
C970 C 0.00102 0.63191 0.97175 0.0
H971 H 0.44466 0.78901 0.10624 0.0
H972 H 0.49975 0.73583 0.04945 0.0
H973 H 0.52272 0.78083 0.02997 0.0
H974 H 0.43197 0.84652 0.0564 0.0
H975 H 0.43344 0.87539 0.0835 0.0
H976 H 0.42205 0.839 0.0938 0.0
H977 H 0.4626 0.83775 0.13339 0.0
H978 H 0.47405 0.87422 0.1233 0.0
H979 H 0.50019 0.84463 0.12312 0.0
H980 H 0.53803 0.83157 0.01503 0.0
H981 H 0.54556 0.88451 0.00652 0.0
H982 H 0.48168 0.9046 0.07428 0.0
C983 C 0.46191 0.78675 0.09009 0.0
C984 C 0.47033 0.75881 0.07935 0.0
C985 C 0.49262 0.75696 0.05775 0.0
C986 C 0.50594 0.78239 0.04668 0.0
C987 C 0.49689 0.80953 0.05754 0.0
C988 C 0.47553 0.81188 0.07889 0.0
C989 C 0.46936 0.84373 0.08637 0.0
C990 C 0.4373 0.85161 0.0796 0.0
C991 C 0.47702 0.85047 0.11845 0.0
C992 C 0.49038 0.85893 0.06565 0.0
C993 C 0.50606 0.8388 0.04924 0.0
C994 C 0.52606 0.84755 0.02792 0.0
C995 C 0.53012 0.87769 0.0232 0.0
C996 C 0.51432 0.89877 0.0398 0.0
C997 C 0.49433 0.88911 0.06142 0.0
H998 H 0.06446 0.24281 0.52407 0.0
H999 H 0.99442 0.26898 0.5832 0.0
H1000 H 0.9692 0.22199 0.5738 0.0
H1001 H 0.01954 0.19867 0.47261 0.0
H1002 H 0.04763 0.1712 0.4686 0.0
H1003 H 0.05765 0.20887 0.47587 0.0
H1004 H 0.08711 0.19251 0.52131 0.0
H1005 H 0.07711 0.15489 0.51428 0.0
H1006 H 0.069 0.17139 0.5493 0.0
H1007 H 0.95433 0.17025 0.56255 0.0
H1008 H 0.95131 0.11741 0.55089 0.0
H1009 H 0.03253 0.12389 0.50144 0.0
C1010 C 0.04367 0.23889 0.53485 0.0
C1011 C 0.03144 0.25985 0.55428 0.0
C1012 C 0.00403 0.25372 0.56771 0.0
C1013 C 0.98956 0.22695 0.56264 0.0
C1014 C 0.00274 0.20649 0.54411 0.0
C1015 C 0.02915 0.21216 0.53036 0.0
C1016 C 0.04008 0.18546 0.51378 0.0
C1017 C 0.04128 0.19142 0.48075 0.0
C1018 C 0.07009 0.17548 0.52538 0.0
C1019 C 0.01615 0.16359 0.52114 0.0
C1020 C 0.99456 0.1763 0.53822 0.0
C1021 C 0.97091 0.16013 0.54889 0.0
C1022 C 0.96945 0.13009 0.54219 0.0
C1023 C 0.99169 0.11643 0.52524 0.0
C1024 C 0.0151 0.13363 0.51432 0.0
H1025 H 0.56483 0.2832 0.4251 0.0
H1026 H 0.60426 0.25839 0.5077 0.0
H1027 H 0.59543 0.30823 0.52698 0.0
H1028 H 0.59503 0.35763 0.42387 0.0
H1029 H 0.56255 0.37303 0.40773 0.0
H1030 H 0.57238 0.33546 0.40008 0.0
H1031 H 0.52125 0.31814 0.41805 0.0
H1032 H 0.51125 0.35561 0.42572 0.0
H1033 H 0.50895 0.32848 0.45416 0.0
H1034 H 0.58018 0.35934 0.53821 0.0
H1035 H 0.55999 0.4094 0.54067 0.0
H1036 H 0.53309 0.40257 0.4499 0.0
C1037 C 0.57204 0.28832 0.4471 0.0
C1038 C 0.58514 0.26674 0.46492 0.0
C1039 C 0.59372 0.27431 0.49378 0.0
C1040 C 0.58906 0.30265 0.50484 0.0
C1041 C 0.57608 0.32329 0.4867 0.0
C1042 C 0.56782 0.31659 0.45841 0.0
C1043 C 0.55377 0.34275 0.44371 0.0
C1044 C 0.57203 0.35281 0.41728 0.0
C1045 C 0.52192 0.33582 0.4349 0.0
C1046 C 0.55504 0.36508 0.46837 0.0
C1047 C 0.56802 0.3533 0.49294 0.0
C1048 C 0.57029 0.36895 0.51905 0.0
C1049 C 0.55868 0.3973 0.52023 0.0
C1050 C 0.54519 0.40983 0.49541 0.0
C1051 C 0.54376 0.39366 0.46901 0.0
loop_
_geom_bond_atom_site_label_1
_geom_bond_atom_site_label_2
_geom_bond_distance
_geom_bond_site_symmetry_2
_ccdc_geom_bond_type
C0 C1 1.386 . S
C0 C2 1.397 . S
C0 H24 0.931 . S
C1 C0 1.386 . S
C1 C5 1.397 . S
C2 C0 1.397 . S
C2 C3 1.384 . S
C2 H25 0.930 . S
C3 C2 1.384 . S
C3 C4 1.377 . S
C3 C6 1.481 . S
C4 C3 1.377 . S
C4 C5 1.389 . S
C4 H26 0.929 . S
C5 C1 1.397 . S
C5 C4 1.389 . S
C5 H27 0.931 . S
C6 C3 1.481 . S
C6 C7 1.387 . S
C6 C11 1.390 . S
C7 C6 1.387 . S
C7 C8 1.401 . S
C7 H28 0.930 . S
C8 C7 1.401 . S
C8 C9 1.376 . S
C8 C17 1.511 . S
C9 C8 1.376 . S
C9 C10 1.392 . S
C9 H30 0.931 . S
C10 C9 1.392 . S
C10 C11 1.361 . S
C10 C12 1.500 . S
C11 C6 1.390 . S
C11 C10 1.361 . S
C11 H29 0.931 . S
C12 C10 1.500 . S
C12 C13 1.371 . S
C12 C14 1.365 . S
C13 C12 1.371 . S
C13 C23 1.386 . S
C13 H31 0.931 . S
C14 C12 1.365 . S
C14 C15 1.409 . S
C14 H32 0.929 . S
C15 C14 1.409 . S
C15 C16 1.380 . S
C15 H33 0.930 . S
C16 C15 1.380 . S
C16 C23 1.357 . S
C17 C8 1.511 . S
C17 C18 1.341 . S
C17 C19 1.371 . S
C18 C17 1.341 . S
C18 C22 1.394 . S
C18 H34 0.930 . S
C19 C17 1.371 . S
C19 C20 1.392 . S
C19 H35 0.931 . S
C20 C19 1.392 . S
C20 C21 1.331 . S
C20 H38 0.932 . S
C21 C20 1.331 . S
C21 C22 1.336 . S
C22 C18 1.394 . S
C22 C21 1.336 . S
C22 H37 0.929 . S
C23 C13 1.386 . S
C23 C16 1.357 . S
C23 H36 0.928 . S
H24 C0 0.931 . S
H25 C2 0.930 . S
H26 C4 0.929 . S
H27 C5 0.931 . S
H28 C7 0.930 . S
H29 C11 0.931 . S
H30 C9 0.931 . S
H31 C13 0.931 . S
H32 C14 0.929 . S
H33 C15 0.930 . S
H34 C18 0.930 . S
H35 C19 0.931 . S
H36 C23 0.928 . S
H37 C22 0.929 . S
H38 C20 0.932 . S
C39 C40 1.386 . S
C39 C41 1.397 . S
C39 H63 0.931 . S
C40 C39 1.386 . S
C40 C44 1.397 . S
C41 C39 1.397 . S
C41 C42 1.384 . S
C41 H64 0.930 . S
C42 C41 1.384 . S
C42 C43 1.377 . S
C42 C45 1.481 . S
C43 C42 1.377 . S
C43 C44 1.389 . S
C43 H65 0.929 . S
C44 C40 1.397 . S
C44 C43 1.389 . S
C44 H66 0.931 . S
C45 C42 1.481 . S
C45 C46 1.387 . S
C45 C50 1.390 . S
C46 C45 1.387 . S
C46 C47 1.401 . S
C46 H67 0.930 . S
C47 C46 1.401 . S
C47 C48 1.376 . S
C47 C56 1.511 . S
C48 C47 1.376 . S
C48 C49 1.392 . S
C48 H69 0.931 . S
C49 C48 1.392 . S
C49 C50 1.361 . S
C49 C51 1.500 . S
C50 C45 1.390 . S
C50 C49 1.361 . S
C50 H68 0.931 . S
C51 C49 1.500 . S
C51 C52 1.371 . S
C51 C53 1.365 . S
C52 C51 1.371 . S
C52 C62 1.386 . S
C52 H70 0.931 . S
C53 C51 1.365 . S
C53 C54 1.409 . S
C53 H71 0.929 . S
C54 C53 1.409 . S
C54 C55 1.380 . S
C54 H72 0.930 . S
C55 C54 1.380 . S
C55 C62 1.357 . S
C56 C47 1.511 . S
C56 C57 1.341 . S
C56 C58 1.371 . S
C57 C56 1.341 . S
C57 C61 1.394 . S
C57 H73 0.930 . S
C58 C56 1.371 . S
C58 C59 1.392 . S
C58 H74 0.931 . S
C59 C58 1.392 . S
C59 C60 1.331 . S
C59 H77 0.932 . S
C60 C59 1.331 . S
C60 C61 1.336 . S
C61 C57 1.394 . S
C61 C60 1.336 . S
C61 H76 0.929 . S
C62 C52 1.386 . S
C62 C55 1.357 . S
C62 H75 0.928 . S
H63 C39 0.931 . S
H64 C41 0.930 . S
H65 C43 0.929 . S
H66 C44 0.931 . S
H67 C46 0.930 . S
H68 C50 0.931 . S
H69 C48 0.931 . S
H70 C52 0.931 . S
H71 C53 0.929 . S
H72 C54 0.930 . S
H73 C57 0.930 . S
H74 C58 0.931 . S
H75 C62 0.928 . S
H76 C61 0.929 . S
H77 C59 0.932 . S
C78 C79 1.386 . S
C78 C80 1.397 . S
C78 H102 0.931 . S
C79 C78 1.386 . S
C79 C83 1.397 . S
C80 C78 1.397 . S
C80 C81 1.384 . S
C80 H103 0.930 . S
C81 C80 1.384 . S
C81 C82 1.377 . S
C81 C84 1.481 . S
C82 C81 1.377 . S
C82 C83 1.389 . S
C82 H104 0.929 . S
C83 C79 1.397 . S
C83 C82 1.389 . S
C83 H105 0.931 . S
C84 C81 1.481 . S
C84 C85 1.387 . S
C84 C89 1.390 . S
C85 C84 1.387 . S
C85 C86 1.401 . S
C85 H106 0.930 . S
C86 C85 1.401 . S
C86 C87 1.376 . S
C86 C95 1.511 . S
C87 C86 1.376 . S
C87 C88 1.392 . S
C87 H108 0.931 . S
C88 C87 1.392 . S
C88 C89 1.361 . S
C88 C90 1.500 . S
C89 C84 1.390 . S
C89 C88 1.361 . S
C89 H107 0.931 . S
C90 C88 1.500 . S
C90 C91 1.371 . S
C90 C92 1.365 . S
C91 C90 1.371 . S
C91 C101 1.386 . S
C91 H109 0.931 . S
C92 C90 1.365 . S
C92 C93 1.409 . S
C92 H110 0.929 . S
C93 C92 1.409 . S
C93 C94 1.380 . S
C93 H111 0.930 . S
C94 C93 1.380 . S
C94 C101 1.357 . S
C95 C86 1.511 . S
C95 C96 1.341 . S
C95 C97 1.371 . S
C96 C95 1.341 . S
C96 C100 1.394 . S
C96 H112 0.930 . S
C97 C95 1.371 . S
C97 C98 1.392 . S
C97 H113 0.931 . S
C98 C97 1.392 . S
C98 C99 1.331 . S
C98 H116 0.932 . S
C99 C98 1.331 . S
C99 C100 1.336 . S
C100 C96 1.394 . S
C100 C99 1.336 . S
C100 H115 0.929 . S
C101 C91 1.386 . S
C101 C94 1.357 . S
C101 H114 0.928 . S
H102 C78 0.931 . S
H103 C80 0.930 . S
H104 C82 0.929 . S
H105 C83 0.931 . S
H106 C85 0.930 . S
H107 C89 0.931 . S
H108 C87 0.931 . S
H109 C91 0.931 . S
H110 C92 0.929 . S
H111 C93 0.930 . S
H112 C96 0.930 . S
H113 C97 0.931 . S
H114 C101 0.928 . S
H115 C100 0.929 . S
H116 C98 0.932 . S
C117 C118 1.386 . S
C117 C119 1.397 . S
C117 H141 0.931 . S
C118 C117 1.386 . S
C118 C122 1.397 . S
C119 C117 1.397 . S
C119 C120 1.384 . S
C119 H142 0.930 . S
C120 C119 1.384 . S
C120 C121 1.377 . S
C120 C123 1.481 . S
C121 C120 1.377 . S
C121 C122 1.389 . S
C121 H143 0.929 . S
C122 C118 1.397 . S
C122 C121 1.389 . S
C122 H144 0.931 . S
C123 C120 1.481 . S
C123 C124 1.387 . S
C123 C128 1.390 . S
C124 C123 1.387 . S
C124 C125 1.401 . S
C124 H145 0.930 . S
C125 C124 1.401 . S
C125 C126 1.376 . S
C125 C134 1.511 . S
C126 C125 1.376 . S
C126 C127 1.392 . S
C126 H147 0.931 . S
C127 C126 1.392 . S
C127 C128 1.361 . S
C127 C129 1.500 . S
C128 C123 1.390 . S
C128 C127 1.361 . S
C128 H146 0.931 . S
C129 C127 1.500 . S
C129 C130 1.371 . S
C129 C131 1.365 . S
C130 C129 1.371 . S
C130 C140 1.386 . S
C130 H148 0.931 . S
C131 C129 1.365 . S
C131 C132 1.409 . S
C131 H149 0.929 . S
C132 C131 1.409 . S
C132 C133 1.380 . S
C132 H150 0.930 . S
C133 C132 1.380 . S
C133 C140 1.357 . S
C134 C125 1.511 . S
C134 C135 1.341 . S
C134 C136 1.371 . S
C135 C134 1.341 . S
C135 C139 1.394 . S
C135 H151 0.930 . S
C136 C134 1.371 . S
C136 C137 1.392 . S
C136 H152 0.931 . S
C137 C136 1.392 . S
C137 C138 1.331 . S
C137 H155 0.932 . S
C138 C137 1.331 . S
C138 C139 1.336 . S
C139 C135 1.394 . S
C139 C138 1.336 . S
C139 H154 0.929 . S
C140 C130 1.386 . S
C140 C133 1.357 . S
C140 H153 0.928 . S
H141 C117 0.931 . S
H142 C119 0.930 . S
H143 C121 0.929 . S
H144 C122 0.931 . S
H145 C124 0.930 . S
H146 C128 0.931 . S
H147 C126 0.931 . S
H148 C130 0.931 . S
H149 C131 0.929 . S
H150 C132 0.930 . S
H151 C135 0.930 . S
H152 C136 0.931 . S
H153 C140 0.928 . S
H154 C139 0.929 . S
H155 C137 0.932 . S
C156 C157 1.386 . S
C156 C158 1.397 . S
C156 H180 0.931 . S
C157 C156 1.386 . S
C157 C161 1.397 . S
C158 C156 1.397 . S
C158 C159 1.384 . S
C158 H181 0.930 . S
C159 C158 1.384 . S
C159 C160 1.377 . S
C159 C162 1.481 . S
C160 C159 1.377 . S
C160 C161 1.389 . S
C160 H182 0.929 . S
C161 C157 1.397 . S
C161 C160 1.389 . S
C161 H183 0.931 1_565 S
C162 C159 1.481 . S
C162 C163 1.387 . S
C162 C167 1.390 . S
C163 C162 1.387 . S
C163 C164 1.401 . S
C163 H184 0.930 . S
C164 C163 1.401 . S
C164 C165 1.376 . S
C164 C173 1.511 . S
C165 C164 1.376 . S
C165 C166 1.392 . S
C165 H186 0.931 . S
C166 C165 1.392 . S
C166 C167 1.361 . S
C166 C168 1.500 . S
C167 C162 1.390 . S
C167 C166 1.361 . S
C167 H185 0.931 . S
C168 C166 1.500 . S
C168 C169 1.371 . S
C168 C170 1.365 . S
C169 C168 1.371 . S
C169 C179 1.386 . S
C169 H187 0.931 . S
C170 C168 1.365 . S
C170 C171 1.409 . S
C170 H188 0.929 . S
C171 C170 1.409 . S
C171 C172 1.380 . S
C171 H189 0.930 1_565 S
C172 C171 1.380 . S
C172 C179 1.357 . S
C173 C164 1.511 . S
C173 C174 1.341 . S
C173 C175 1.371 . S
C174 C173 1.341 . S
C174 C178 1.394 . S
C174 H190 0.930 . S
C175 C173 1.371 . S
C175 C176 1.392 . S
C175 H191 0.931 . S
C176 C175 1.392 . S
C176 C177 1.331 . S
C176 H194 0.932 . S
C177 C176 1.331 . S
C177 C178 1.336 . S
C178 C174 1.394 . S
C178 C177 1.336 . S
C178 H193 0.929 . S
C179 C169 1.386 . S
C179 C172 1.357 . S
C179 H192 0.928 . S
H180 C156 0.931 . S
H181 C158 0.930 . S
H182 C160 0.929 . S
H183 C161 0.931 1_545 S
H184 C163 0.930 . S
H185 C167 0.931 . S
H186 C165 0.931 . S
H187 C169 0.931 . S
H188 C170 0.929 . S
H189 C171 0.930 1_545 S
H190 C174 0.930 . S
H191 C175 0.931 . S
H192 C179 0.928 . S
H193 C178 0.929 . S
H194 C176 0.932 . S
C195 C196 1.386 . S
C195 C197 1.397 . S
C195 H219 0.931 . S
C196 C195 1.386 . S
C196 C200 1.397 . S
C197 C195 1.397 . S
C197 C198 1.384 . S
C197 H220 0.930 . S
C198 C197 1.384 . S
C198 C199 1.377 . S
C198 C201 1.481 . S
C199 C198 1.377 . S
C199 C200 1.389 . S
C199 H221 0.929 . S
C200 C196 1.397 . S
C200 C199 1.389 . S
C200 H222 0.931 . S
C201 C198 1.481 . S
C201 C202 1.387 . S
C201 C206 1.390 . S
C202 C201 1.387 . S
C202 C203 1.401 . S
C202 H223 0.930 . S
C203 C202 1.401 . S
C203 C204 1.376 . S
C203 C212 1.511 . S
C204 C203 1.376 . S
C204 C205 1.392 . S
C204 H225 0.931 . S
C205 C204 1.392 . S
C205 C206 1.361 . S
C205 C207 1.500 . S
C206 C201 1.390 . S
C206 C205 1.361 . S
C206 H224 0.931 . S
C207 C205 1.500 . S
C207 C208 1.371 . S
C207 C209 1.365 . S
C208 C207 1.371 . S
C208 C218 1.386 . S
C208 H226 0.931 . S
C209 C207 1.365 . S
C209 C210 1.409 . S
C209 H227 0.929 . S
C210 C209 1.409 . S
C210 C211 1.380 . S
C210 H228 0.930 . S
C211 C210 1.380 . S
C211 C218 1.357 . S
C212 C203 1.511 . S
C212 C213 1.341 . S
C212 C214 1.371 . S
C213 C212 1.341 . S
C213 C217 1.394 . S
C213 H229 0.930 . S
C214 C212 1.371 . S
C214 C215 1.392 . S
C214 H230 0.931 . S
C215 C214 1.392 . S
C215 C216 1.331 . S
C215 H233 0.932 . S
C216 C215 1.331 . S
C216 C217 1.336 . S
C217 C213 1.394 . S
C217 C216 1.336 . S
C217 H232 0.929 . S
C218 C208 1.386 . S
C218 C211 1.357 . S
C218 H231 0.928 . S
H219 C195 0.931 . S
H220 C197 0.930 . S
H221 C199 0.929 . S
H222 C200 0.931 . S
H223 C202 0.930 . S
H224 C206 0.931 . S
H225 C204 0.931 . S
H226 C208 0.931 . S
H227 C209 0.929 . S
H228 C210 0.930 . S
H229 C213 0.930 . S
H230 C214 0.931 . S
H231 C218 0.928 . S
H232 C217 0.929 . S
H233 C215 0.932 . S
C234 C235 1.386 . S
C234 C236 1.397 . S
C234 H258 0.931 . S
C235 C234 1.386 . S
C235 C239 1.397 . S
C236 C234 1.397 . S
C236 C237 1.384 . S
C236 H259 0.930 . S
C237 C236 1.384 . S
C237 C238 1.377 . S
C237 C240 1.481 . S
C238 C237 1.377 . S
C238 C239 1.389 . S
C238 H260 0.929 . S
C239 C235 1.397 . S
C239 C238 1.389 . S
C239 H261 0.931 . S
C240 C237 1.481 . S
C240 C241 1.387 . S
C240 C245 1.390 . S
C241 C240 1.387 . S
C241 C242 1.401 . S
C241 H262 0.930 . S
C242 C241 1.401 . S
C242 C243 1.376 . S
C242 C251 1.511 . S
C243 C242 1.376 . S
C243 C244 1.392 . S
C243 H264 0.931 . S
C244 C243 1.392 . S
C244 C245 1.361 . S
C244 C246 1.500 . S
C245 C240 1.390 . S
C245 C244 1.361 . S
C245 H263 0.931 . S
C246 C244 1.500 . S
C246 C247 1.371 . S
C246 C248 1.365 . S
C247 C246 1.371 . S
C247 C257 1.386 . S
C247 H265 0.931 . S
C248 C246 1.365 . S
C248 C249 1.409 . S
C248 H266 0.929 . S
C249 C248 1.409 . S
C249 C250 1.380 . S
C249 H267 0.930 . S
C250 C249 1.380 . S
C250 C257 1.357 . S
C251 C242 1.511 . S
C251 C252 1.341 . S
C251 C253 1.371 . S
C252 C251 1.341 . S
C252 C256 1.394 . S
C252 H268 0.930 . S
C253 C251 1.371 . S
C253 C254 1.392 . S
C253 H269 0.931 . S
C254 C253 1.392 . S
C254 C255 1.331 . S
C254 H272 0.932 . S
C255 C254 1.331 . S
C255 C256 1.336 . S
C256 C252 1.394 . S
C256 C255 1.336 . S
C256 H271 0.929 . S
C257 C247 1.386 . S
C257 C250 1.357 . S
C257 H270 0.928 . S
H258 C234 0.931 . S
H259 C236 0.930 . S
H260 C238 0.929 . S
H261 C239 0.931 . S
H262 C241 0.930 . S
H263 C245 0.931 . S
H264 C243 0.931 . S
H265 C247 0.931 . S
H266 C248 0.929 . S
H267 C249 0.930 . S
H268 C252 0.930 . S
H269 C253 0.931 . S
H270 C257 0.928 . S
H271 C256 0.929 . S
H272 C254 0.932 . S
C273 C274 1.386 . S
C273 C275 1.397 . S
C273 H297 0.931 . S
C274 C273 1.386 . S
C274 C278 1.397 . S
C275 C273 1.397 . S
C275 C276 1.384 . S
C275 H298 0.930 . S
C276 C275 1.384 . S
C276 C277 1.377 . S
C276 C279 1.481 . S
C277 C276 1.377 . S
C277 C278 1.389 . S
C277 H299 0.929 . S
C278 C274 1.397 . S
C278 C277 1.389 . S
C278 H300 0.931 . S
C279 C276 1.481 . S
C279 C280 1.387 . S
C279 C284 1.390 . S
C280 C279 1.387 . S
C280 C281 1.401 . S
C280 H301 0.930 . S
C281 C280 1.401 . S
C281 C282 1.376 . S
C281 C290 1.511 . S
C282 C281 1.376 . S
C282 C283 1.392 . S
C282 H303 0.931 . S
C283 C282 1.392 . S
C283 C284 1.361 . S
C283 C285 1.500 . S
C284 C279 1.390 . S
C284 C283 1.361 . S
C284 H302 0.931 . S
C285 C283 1.500 . S
C285 C286 1.371 . S
C285 C287 1.365 . S
C286 C285 1.371 . S
C286 C296 1.386 . S
C286 H304 0.931 . S
C287 C285 1.365 . S
C287 C288 1.409 . S
C287 H305 0.929 . S
C288 C287 1.409 . S
C288 C289 1.380 . S
C288 H306 0.930 . S
C289 C288 1.380 . S
C289 C296 1.357 . S
C290 C281 1.511 . S
C290 C291 1.341 . S
C290 C292 1.371 . S
C291 C290 1.341 . S
C291 C295 1.394 . S
C291 H307 0.930 . S
C292 C290 1.371 . S
C292 C293 1.392 . S
C292 H308 0.931 . S
C293 C292 1.392 . S
C293 C294 1.331 . S
C293 H311 0.932 . S
C294 C293 1.331 . S
C294 C295 1.336 . S
C295 C291 1.394 . S
C295 C294 1.336 . S
C295 H310 0.929 . S
C296 C286 1.386 . S
C296 C289 1.357 . S
C296 H309 0.928 . S
H297 C273 0.931 . S
H298 C275 0.930 . S
H299 C277 0.929 . S
H300 C278 0.931 . S
H301 C280 0.930 . S
H302 C284 0.931 . S
H303 C282 0.931 . S
H304 C286 0.931 . S
H305 C287 0.929 . S
H306 C288 0.930 . S
H307 C291 0.930 . S
H308 C292 0.931 . S
H309 C296 0.928 . S
H310 C295 0.929 . S
H311 C293 0.932 . S
O312 Zn313 1.953 . S
O312 C328 1.225 1_655 S
Zn313 O312 1.953 . S
Zn313 O314 1.949 1_655 S
Zn313 O320 1.919 . S
Zn313 O325 1.924 . S
O314 Zn313 1.949 1_455 S
O314 Zn315 1.923 1_445 S
O314 Zn316 1.950 . S
O314 Zn317 1.945 1_545 S
Zn315 O314 1.923 1_665 S
Zn315 O318 1.933 . S
Zn315 O321 1.941 1_565 S
Zn315 O322 1.965 1_665 S
Zn316 O314 1.950 . S
Zn316 O323 1.938 . S
Zn316 O324 1.929 . S
Zn316 O334 1.953 . S
Zn317 O314 1.945 1_565 S
Zn317 O319 1.932 1_455 S
Zn317 O326 1.977 . S
Zn317 O327 1.910 1_455 S
O318 Zn315 1.933 . S
O318 C329 1.226 . S
O319 Zn317 1.932 1_655 S
O319 C329 1.307 . S
O320 Zn313 1.919 . S
O320 C331 1.253 . S
O321 Zn315 1.941 1_545 S
O321 C331 1.283 . S
O322 Zn315 1.965 1_445 S
O322 C330 1.303 . S
O323 Zn316 1.938 . S
O323 C330 1.247 . S
O324 Zn316 1.929 . S
O324 C332 1.271 1_545 S
O325 Zn313 1.924 . S
O325 C333 1.329 . S
O326 Zn317 1.977 . S
O326 C332 1.272 . S
O327 Zn317 1.910 1_655 S
O327 C333 1.212 1_565 S
C328 O312 1.225 1_455 S
C328 O334 1.298 . S
C329 O318 1.226 . S
C329 O319 1.307 . S
C330 O322 1.303 . S
C330 O323 1.247 . S
C331 O320 1.253 . S
C331 O321 1.283 . S
C332 O324 1.271 1_565 S
C332 O326 1.272 . S
C333 O325 1.329 . S
C333 O327 1.212 1_545 S
O334 Zn316 1.953 . S
O334 C328 1.298 . S
O335 Zn336 1.953 . S
O335 C351 1.225 . S
Zn336 O335 1.953 . S
Zn336 O337 1.949 1_556 S
Zn336 O343 1.919 . S
Zn336 O348 1.924 1_556 S
O337 Zn336 1.949 1_554 S
O337 Zn338 1.923 1_545 S
O337 Zn339 1.950 . S
O337 Zn340 1.937 1_545 S
Zn338 O337 1.923 1_565 S
Zn338 O341 1.933 . S
Zn338 O344 1.941 1_554 S
Zn338 O345 1.965 1_554 S
Zn339 O337 1.950 . S
Zn339 O346 1.938 . S
Zn339 O347 1.906 . S
Zn339 O357 1.953 . S
Zn340 O337 1.937 1_565 S
Zn340 O342 1.966 . S
Zn340 O349 1.968 1_565 S
Zn340 O350 1.892 1_565 S
O341 Zn338 1.933 . S
O341 C352 1.226 . S
O342 Zn340 1.966 . S
O342 C352 1.307 . S
O343 Zn336 1.919 . S
O343 C354 1.253 1_545 S
O344 Zn338 1.941 1_556 S
O344 C354 1.283 . S
O345 Zn338 1.965 1_556 S
O345 C353 1.303 . S
O346 Zn339 1.938 . S
O346 C353 1.247 1_544 S
O347 Zn339 1.906 . S
O347 C355 1.304 . S
O348 Zn336 1.924 1_554 S
O348 C356 1.311 . S
O349 Zn340 1.968 1_545 S
O349 C355 1.272 . S
O350 Zn340 1.892 1_545 S
O350 C356 1.231 . S
C351 O335 1.225 . S
C351 O357 1.298 1_556 S
C352 O341 1.226 . S
C352 O342 1.307 . S
C353 O345 1.303 . S
C353 O346 1.247 1_566 S
C354 O343 1.253 1_565 S
C354 O344 1.283 . S
C355 O347 1.304 . S
C355 O349 1.272 . S
C356 O348 1.311 . S
C356 O350 1.231 . S
O357 Zn339 1.953 . S
O357 C351 1.298 1_554 S
O358 Zn359 1.953 . S
O358 C374 1.225 . S
Zn359 O358 1.953 . S
Zn359 O360 1.949 . S
Zn359 O366 1.919 . S
Zn359 O371 1.924 . S
O360 Zn359 1.949 . S
O360 Zn361 1.923 . S
O360 Zn362 1.950 . S
O360 Zn363 1.945 . S
Zn361 O360 1.923 . S
Zn361 O364 1.933 . S
Zn361 O367 1.941 . S
Zn361 O368 1.965 . S
Zn362 O360 1.950 . S
Zn362 O369 1.938 . S
Zn362 O370 1.906 . S
Zn362 O380 1.953 . S
Zn363 O360 1.945 . S
Zn363 O365 1.932 . S
Zn363 O372 1.977 . S
Zn363 O373 1.910 . S
O364 Zn361 1.933 . S
O364 C375 1.226 . S
O365 Zn363 1.932 . S
O365 C375 1.307 . S
O366 Zn359 1.919 . S
O366 C377 1.253 . S
O367 Zn361 1.941 . S
O367 C377 1.283 . S
O368 Zn361 1.965 . S
O368 C376 1.303 . S
O369 Zn362 1.938 . S
O369 C376 1.247 . S
O370 Zn362 1.906 . S
O370 C378 1.304 . S
O371 Zn359 1.924 . S
O371 C379 1.311 . S
O372 Zn363 1.977 . S
O372 C378 1.272 . S
O373 Zn363 1.910 . S
O373 C379 1.231 . S
C374 O358 1.225 . S
C374 O380 1.298 . S
C375 O364 1.226 . S
C375 O365 1.307 . S
C376 O368 1.303 . S
C376 O369 1.247 . S
C377 O366 1.253 . S
C377 O367 1.283 . S
C378 O370 1.304 . S
C378 O372 1.272 . S
C379 O371 1.311 . S
C379 O373 1.231 . S
O380 Zn362 1.953 . S
O380 C374 1.298 . S
O381 Zn382 1.953 . S
O381 C397 1.225 . S
Zn382 O381 1.953 . S
Zn382 O383 1.949 1_655 S
Zn382 O389 1.919 . S
Zn382 O394 1.924 . S
O383 Zn382 1.949 1_455 S
O383 Zn384 1.923 1_454 S
O383 Zn385 1.950 . S
O383 Zn386 1.945 1_554 S
Zn384 O383 1.923 1_656 S
Zn384 O387 1.933 1_655 S
Zn384 O390 1.941 . S
Zn384 O391 1.965 . S
Zn385 O383 1.950 . S
Zn385 O392 1.938 . S
Zn385 O393 1.906 . S
Zn385 O403 1.953 . S
Zn386 O383 1.945 1_556 S
Zn386 O388 1.932 . S
Zn386 O395 1.977 1_556 S
Zn386 O396 1.910 1_556 S
O387 Zn384 1.933 1_455 S
O387 C398 1.226 . S
O388 Zn386 1.932 . S
O388 C398 1.307 . S
O389 Zn382 1.919 . S
O389 C400 1.253 1_554 S
O390 Zn384 1.941 . S
O390 C400 1.283 . S
O391 Zn384 1.965 . S
O391 C399 1.303 . S
O392 Zn385 1.938 . S
O392 C399 1.247 1_454 S
O393 Zn385 1.906 . S
O393 C401 1.304 . S
O394 Zn382 1.924 . S
O394 C402 1.311 1_655 S
O395 Zn386 1.977 1_554 S
O395 C401 1.272 . S
O396 Zn386 1.910 1_554 S
O396 C402 1.231 . S
C397 O381 1.225 . S
C397 O403 1.298 1_655 S
C398 O387 1.226 . S
C398 O388 1.307 . S
C399 O391 1.303 . S
C399 O392 1.247 1_656 S
C400 O389 1.253 1_556 S
C400 O390 1.283 . S
C401 O393 1.304 . S
C401 O395 1.272 . S
C402 O394 1.311 1_455 S
C402 O396 1.231 . S
O403 Zn385 1.953 . S
O403 C397 1.298 1_455 S
H404 C416 0.930 . S
H405 C418 0.930 . S
H406 C419 0.930 . S
H407 C423 0.959 . S
H408 C423 0.959 . S
H409 C423 0.961 . S
H410 C424 0.960 . S
H411 C424 0.961 . S
H412 C424 0.959 . S
H413 C427 0.929 . S
H414 C428 0.931 . S
H415 C430 0.930 . S
C416 H404 0.930 . S
C416 C417 1.399 . S
C416 C421 1.399 . S
C417 C416 1.399 . S
C417 C418 1.376 . S
C418 H405 0.930 . S
C418 C417 1.376 . S
C418 C419 1.388 . S
C419 H406 0.930 . S
C419 C418 1.388 . S
C419 C420 1.390 . S
C420 C419 1.390 . S
C420 C421 1.394 . S
C420 C426 1.465 . S
C421 C416 1.399 . S
C421 C420 1.394 . S
C421 C422 1.516 . S
C422 C421 1.516 . S
C422 C423 1.502 . S
C422 C424 1.561 . S
C422 C425 1.526 . S
C423 H407 0.959 . S
C423 H408 0.959 . S
C423 H409 0.961 . S
C423 C422 1.502 . S
C424 H410 0.960 . S
C424 H411 0.961 . S
C424 H412 0.959 . S
C424 C422 1.561 . S
C425 C422 1.526 . S
C425 C426 1.396 . S
C425 C430 1.390 . S
C426 C420 1.465 . S
C426 C425 1.396 . S
C426 C427 1.399 . S
C427 H413 0.929 . S
C427 C426 1.399 . S
C427 C428 1.385 . S
C428 H414 0.931 . S
C428 C427 1.385 . S
C428 C429 1.389 . S
C429 C428 1.389 . S
C429 C430 1.387 . S
C430 H415 0.930 . S
C430 C425 1.390 . S
C430 C429 1.387 . S
H431 C443 0.930 . S
H432 C445 0.930 . S
H433 C446 0.930 . S
H434 C450 0.959 . S
H435 C450 0.959 . S
H436 C450 0.961 . S
H437 C451 0.960 . S
H438 C451 0.961 . S
H439 C451 0.959 . S
H440 C454 0.929 . S
H441 C455 0.931 . S
H442 C457 0.930 . S
C443 H431 0.930 . S
C443 C444 1.399 . S
C443 C448 1.399 . S
C444 C443 1.399 . S
C444 C445 1.376 . S
C445 H432 0.930 . S
C445 C444 1.376 . S
C445 C446 1.388 . S
C446 H433 0.930 . S
C446 C445 1.388 . S
C446 C447 1.390 . S
C447 C446 1.390 . S
C447 C448 1.394 . S
C447 C453 1.465 . S
C448 C443 1.399 . S
C448 C447 1.394 . S
C448 C449 1.516 . S
C449 C448 1.516 . S
C449 C450 1.502 . S
C449 C451 1.561 . S
C449 C452 1.526 . S
C450 H434 0.959 . S
C450 H435 0.959 . S
C450 H436 0.961 . S
C450 C449 1.502 . S
C451 H437 0.960 . S
C451 H438 0.961 . S
C451 H439 0.959 . S
C451 C449 1.561 . S
C452 C449 1.526 . S
C452 C453 1.396 . S
C452 C457 1.390 . S
C453 C447 1.465 . S
C453 C452 1.396 . S
C453 C454 1.399 . S
C454 H440 0.929 . S
C454 C453 1.399 . S
C454 C455 1.385 . S
C455 H441 0.931 . S
C455 C454 1.385 . S
C455 C456 1.389 . S
C456 C455 1.389 . S
C456 C457 1.387 . S
C457 H442 0.930 . S
C457 C452 1.390 . S
C457 C456 1.387 . S
H458 C470 0.930 . S
H459 C472 0.930 . S
H460 C473 0.930 . S
H461 C477 0.959 . S
H462 C477 0.959 . S
H463 C477 0.961 . S
H464 C478 0.960 . S
H465 C478 0.961 . S
H466 C478 0.959 . S
H467 C481 0.929 . S
H468 C482 0.931 . S
H469 C484 0.930 . S
C470 H458 0.930 . S
C470 C471 1.399 . S
C470 C475 1.399 . S
C471 C470 1.399 . S
C471 C472 1.376 . S
C472 H459 0.930 . S
C472 C471 1.376 . S
C472 C473 1.388 . S
C473 H460 0.930 . S
C473 C472 1.388 . S
C473 C474 1.390 . S
C474 C473 1.390 . S
C474 C475 1.394 . S
C474 C480 1.465 . S
C475 C470 1.399 . S
C475 C474 1.394 . S
C475 C476 1.516 . S
C476 C475 1.516 . S
C476 C477 1.502 . S
C476 C478 1.561 . S
C476 C479 1.526 . S
C477 H461 0.959 . S
C477 H462 0.959 . S
C477 H463 0.961 . S
C477 C476 1.502 . S
C478 H464 0.960 . S
C478 H465 0.961 . S
C478 H466 0.959 . S
C478 C476 1.561 . S
C479 C476 1.526 . S
C479 C480 1.396 . S
C479 C484 1.390 . S
C480 C474 1.465 . S
C480 C479 1.396 . S
C480 C481 1.399 . S
C481 H467 0.929 . S
C481 C480 1.399 . S
C481 C482 1.385 . S
C482 H468 0.931 . S
C482 C481 1.385 . S
C482 C483 1.389 . S
C483 C482 1.389 . S
C483 C484 1.387 . S
C484 H469 0.930 . S
C484 C479 1.390 . S
C484 C483 1.387 . S
H485 C497 0.930 . S
H486 C499 0.930 . S
H487 C500 0.930 . S
H488 C504 0.959 1_455 S
H489 C504 0.959 1_455 S
H490 C504 0.961 . S
H491 C505 0.960 . S
H492 C505 0.961 . S
H493 C505 0.959 . S
H494 C508 0.929 . S
H495 C509 0.931 . S
H496 C511 0.930 . S
C497 H485 0.930 . S
C497 C498 1.399 . S
C497 C502 1.399 . S
C498 C497 1.399 . S
C498 C499 1.376 . S
C499 H486 0.930 . S
C499 C498 1.376 . S
C499 C500 1.388 . S
C500 H487 0.930 . S
C500 C499 1.388 . S
C500 C501 1.390 . S
C501 C500 1.390 . S
C501 C502 1.394 . S
C501 C507 1.465 . S
C502 C497 1.399 . S
C502 C501 1.394 . S
C502 C503 1.516 . S
C503 C502 1.516 . S
C503 C504 1.502 . S
C503 C505 1.561 . S
C503 C506 1.526 . S
C504 H488 0.959 1_655 S
C504 H489 0.959 1_655 S
C504 H490 0.961 . S
C504 C503 1.502 . S
C505 H491 0.960 . S
C505 H492 0.961 . S
C505 H493 0.959 . S
C505 C503 1.561 . S
C506 C503 1.526 . S
C506 C507 1.396 . S
C506 C511 1.390 . S
C507 C501 1.465 . S
C507 C506 1.396 . S
C507 C508 1.399 . S
C508 H494 0.929 . S
C508 C507 1.399 . S
C508 C509 1.385 . S
C509 H495 0.931 . S
C509 C508 1.385 . S
C509 C510 1.389 . S
C510 C509 1.389 . S
C510 C511 1.387 . S
C511 H496 0.930 . S
C511 C506 1.390 . S
C511 C510 1.387 . S
H512 C524 0.930 . S
H513 C526 0.930 . S
H514 C527 0.930 . S
H515 C531 0.959 . S
H516 C531 0.959 . S
H517 C531 0.961 . S
H518 C532 0.960 . S
H519 C532 0.961 1_556 S
H520 C532 0.959 . S
H521 C535 0.929 . S
H522 C536 0.931 . S
H523 C538 0.930 . S
C524 H512 0.930 . S
C524 C525 1.399 . S
C524 C529 1.399 . S
C525 C524 1.399 . S
C525 C526 1.376 . S
C526 H513 0.930 . S
C526 C525 1.376 . S
C526 C527 1.388 . S
C527 H514 0.930 . S
C527 C526 1.388 . S
C527 C528 1.390 . S
C528 C527 1.390 . S
C528 C529 1.394 . S
C528 C534 1.465 . S
C529 C524 1.399 . S
C529 C528 1.394 . S
C529 C530 1.516 . S
C530 C529 1.516 . S
C530 C531 1.502 . S
C530 C532 1.561 . S
C530 C533 1.526 . S
C531 H515 0.959 . S
C531 H516 0.959 . S
C531 H517 0.961 . S
C531 C530 1.502 . S
C532 H518 0.960 . S
C532 H519 0.961 1_554 S
C532 H520 0.959 . S
C532 C530 1.561 . S
C533 C530 1.526 . S
C533 C534 1.396 . S
C533 C538 1.390 . S
C534 C528 1.465 . S
C534 C533 1.396 . S
C534 C535 1.399 . S
C535 H521 0.929 . S
C535 C534 1.399 . S
C535 C536 1.385 . S
C536 H522 0.931 . S
C536 C535 1.385 . S
C536 C537 1.389 . S
C537 C536 1.389 . S
C537 C538 1.387 . S
C538 H523 0.930 . S
C538 C533 1.390 . S
C538 C537 1.387 . S
H539 C551 0.930 . S
H540 C553 0.930 . S
H541 C554 0.930 . S
H542 C558 0.959 . S
H543 C558 0.959 . S
H544 C558 0.961 . S
H545 C559 0.960 . S
H546 C559 0.961 . S
H547 C559 0.959 . S
H548 C562 0.929 . S
H549 C563 0.931 . S
H550 C565 0.930 . S
C551 H539 0.930 . S
C551 C552 1.399 . S
C551 C556 1.399 . S
C552 C551 1.399 . S
C552 C553 1.376 . S
C553 H540 0.930 . S
C553 C552 1.376 . S
C553 C554 1.388 . S
C554 H541 0.930 . S
C554 C553 1.388 . S
C554 C555 1.390 . S
C555 C554 1.390 . S
C555 C556 1.394 . S
C555 C561 1.465 . S
C556 C551 1.399 . S
C556 C555 1.394 . S
C556 C557 1.516 . S
C557 C556 1.516 . S
C557 C558 1.502 . S
C557 C559 1.561 . S
C557 C560 1.526 . S
C558 H542 0.959 . S
C558 H543 0.959 . S
C558 H544 0.961 . S
C558 C557 1.502 . S
C559 H545 0.960 . S
C559 H546 0.961 . S
C559 H547 0.959 . S
C559 C557 1.561 . S
C560 C557 1.526 . S
C560 C561 1.396 . S
C560 C565 1.390 . S
C561 C555 1.465 . S
C561 C560 1.396 . S
C561 C562 1.399 . S
C562 H548 0.929 . S
C562 C561 1.399 . S
C562 C563 1.385 . S
C563 H549 0.931 . S
C563 C562 1.385 . S
C563 C564 1.389 . S
C564 C563 1.389 . S
C564 C565 1.387 . S
C565 H550 0.930 . S
C565 C560 1.390 . S
C565 C564 1.387 . S
H566 C578 0.930 . S
H567 C580 0.930 . S
H568 C581 0.930 . S
H569 C585 0.959 . S
H570 C585 0.959 . S
H571 C585 0.961 . S
H572 C586 0.960 . S
H573 C586 0.961 . S
H574 C586 0.959 . S
H575 C589 0.929 . S
H576 C590 0.931 . S
H577 C592 0.930 . S
C578 H566 0.930 . S
C578 C579 1.399 . S
C578 C583 1.399 . S
C579 C578 1.399 . S
C579 C580 1.376 . S
C580 H567 0.930 . S
C580 C579 1.376 . S
C580 C581 1.388 . S
C581 H568 0.930 . S
C581 C580 1.388 . S
C581 C582 1.390 . S
C582 C581 1.390 . S
C582 C583 1.394 . S
C582 C588 1.465 . S
C583 C578 1.399 . S
C583 C582 1.394 . S
C583 C584 1.516 . S
C584 C583 1.516 . S
C584 C585 1.502 1_556 S
C584 C586 1.561 . S
C584 C587 1.526 . S
C585 H569 0.959 . S
C585 H570 0.959 . S
C585 H571 0.961 . S
C585 C584 1.502 1_554 S
C586 H572 0.960 . S
C586 H573 0.961 . S
C586 H574 0.959 . S
C586 C584 1.561 . S
C587 C584 1.526 . S
C587 C588 1.396 . S
C587 C592 1.390 . S
C588 C582 1.465 . S
C588 C587 1.396 . S
C588 C589 1.399 . S
C589 H575 0.929 . S
C589 C588 1.399 . S
C589 C590 1.385 . S
C590 H576 0.931 . S
C590 C589 1.385 . S
C590 C591 1.389 . S
C591 C590 1.389 . S
C591 C592 1.387 . S
C592 H577 0.930 . S
C592 C587 1.390 . S
C592 C591 1.387 . S
H593 C605 0.930 . S
H594 C607 0.930 . S
H595 C608 0.930 . S
H596 C612 0.959 . S
H597 C612 0.959 . S
H598 C612 0.961 . S
H599 C613 0.960 . S
H600 C613 0.961 . S
H601 C613 0.959 . S
H602 C616 0.929 . S
H603 C617 0.931 . S
H604 C619 0.930 . S
C605 H593 0.930 . S
C605 C606 1.399 . S
C605 C610 1.399 . S
C606 C605 1.399 . S
C606 C607 1.376 . S
C607 H594 0.930 . S
C607 C606 1.376 . S
C607 C608 1.388 . S
C608 H595 0.930 . S
C608 C607 1.388 . S
C608 C609 1.390 . S
C609 C608 1.390 . S
C609 C610 1.394 . S
C609 C615 1.465 . S
C610 C605 1.399 . S
C610 C609 1.394 . S
C610 C611 1.516 . S
C611 C610 1.516 . S
C611 C612 1.502 . S
C611 C613 1.561 . S
C611 C614 1.526 . S
C612 H596 0.959 . S
C612 H597 0.959 . S
C612 H598 0.961 . S
C612 C611 1.502 . S
C613 H599 0.960 . S
C613 H600 0.961 . S
C613 H601 0.959 . S
C613 C611 1.561 . S
C614 C611 1.526 . S
C614 C615 1.396 . S
C614 C619 1.390 . S
C615 C609 1.465 . S
C615 C614 1.396 . S
C615 C616 1.399 . S
C616 H602 0.929 . S
C616 C615 1.399 . S
C616 C617 1.385 . S
C617 H603 0.931 . S
C617 C616 1.385 . S
C617 C618 1.389 . S
C618 C617 1.389 . S
C618 C619 1.387 . S
C619 H604 0.930 . S
C619 C614 1.390 . S
C619 C618 1.387 . S
H620 C632 0.930 . S
H621 C634 0.930 . S
H622 C635 0.930 . S
H623 C639 0.959 . S
H624 C639 0.959 . S
H625 C639 0.961 . S
H626 C640 0.960 . S
H627 C640 0.961 . S
H628 C640 0.959 . S
H629 C643 0.929 . S
H630 C644 0.931 . S
H631 C646 0.930 . S
C632 H620 0.930 . S
C632 C633 1.399 . S
C632 C637 1.399 . S
C633 C632 1.399 . S
C633 C634 1.376 . S
C634 H621 0.930 . S
C634 C633 1.376 . S
C634 C635 1.388 . S
C635 H622 0.930 . S
C635 C634 1.388 . S
C635 C636 1.390 . S
C636 C635 1.390 . S
C636 C637 1.394 . S
C636 C642 1.465 . S
C637 C632 1.399 . S
C637 C636 1.394 . S
C637 C638 1.516 . S
C638 C637 1.516 . S
C638 C639 1.502 . S
C638 C640 1.561 . S
C638 C641 1.526 . S
C639 H623 0.959 . S
C639 H624 0.959 . S
C639 H625 0.961 . S
C639 C638 1.502 . S
C640 H626 0.960 . S
C640 H627 0.961 . S
C640 H628 0.959 . S
C640 C638 1.561 . S
C641 C638 1.526 . S
C641 C642 1.396 . S
C641 C646 1.390 . S
C642 C636 1.465 . S
C642 C641 1.396 . S
C642 C643 1.399 . S
C643 H629 0.929 . S
C643 C642 1.399 . S
C643 C644 1.385 . S
C644 H630 0.931 . S
C644 C643 1.385 . S
C644 C645 1.389 . S
C645 C644 1.389 . S
C645 C646 1.387 . S
C646 H631 0.930 . S
C646 C641 1.390 . S
C646 C645 1.387 . S
H647 C659 0.930 . S
H648 C661 0.930 . S
H649 C662 0.930 . S
H650 C666 0.959 1_556 S
H651 C666 0.959 . S
H652 C666 0.961 . S
H653 C667 0.960 . S
H654 C667 0.961 . S
H655 C667 0.959 . S
H656 C670 0.929 . S
H657 C671 0.931 . S
H658 C673 0.930 1_554 S
C659 H647 0.930 . S
C659 C660 1.399 . S
C659 C664 1.399 . S
C660 C659 1.399 . S
C660 C661 1.376 . S
C661 H648 0.930 . S
C661 C660 1.376 . S
C661 C662 1.388 . S
C662 H649 0.930 . S
C662 C661 1.388 . S
C662 C663 1.390 . S
C663 C662 1.390 . S
C663 C664 1.394 . S
C663 C669 1.465 . S
C664 C659 1.399 . S
C664 C663 1.394 . S
C664 C665 1.516 . S
C665 C664 1.516 . S
C665 C666 1.502 1_556 S
C665 C667 1.561 1_556 S
C665 C668 1.526 . S
C666 H650 0.959 1_554 S
C666 H651 0.959 . S
C666 H652 0.961 . S
C666 C665 1.502 1_554 S
C667 H653 0.960 . S
C667 H654 0.961 . S
C667 H655 0.959 . S
C667 C665 1.561 1_554 S
C668 C665 1.526 . S
C668 C669 1.396 . S
C668 C673 1.390 . S
C669 C663 1.465 . S
C669 C668 1.396 . S
C669 C670 1.399 . S
C670 H656 0.929 . S
C670 C669 1.399 . S
C670 C671 1.385 . S
C671 H657 0.931 . S
C671 C670 1.385 . S
C671 C672 1.389 . S
C672 C671 1.389 . S
C672 C673 1.387 . S
C673 H658 0.930 1_556 S
C673 C668 1.390 . S
C673 C672 1.387 . S
H674 C686 0.930 . S
H675 C688 0.930 . S
H676 C689 0.930 . S
H677 C693 0.959 . S
H678 C693 0.959 . S
H679 C693 0.961 . S
H680 C694 0.960 . S
H681 C694 0.961 . S
H682 C694 0.959 . S
H683 C697 0.929 . S
H684 C698 0.931 . S
H685 C700 0.930 . S
C686 H674 0.930 . S
C686 C687 1.399 . S
C686 C691 1.399 . S
C687 C686 1.399 . S
C687 C688 1.376 . S
C688 H675 0.930 . S
C688 C687 1.376 . S
C688 C689 1.388 . S
C689 H676 0.930 . S
C689 C688 1.388 . S
C689 C690 1.390 . S
C690 C689 1.390 . S
C690 C691 1.394 . S
C690 C696 1.465 . S
C691 C686 1.399 . S
C691 C690 1.394 . S
C691 C692 1.516 . S
C692 C691 1.516 . S
C692 C693 1.502 . S
C692 C694 1.561 . S
C692 C695 1.526 . S
C693 H677 0.959 . S
C693 H678 0.959 . S
C693 H679 0.961 . S
C693 C692 1.502 . S
C694 H680 0.960 . S
C694 H681 0.961 . S
C694 H682 0.959 . S
C694 C692 1.561 . S
C695 C692 1.526 . S
C695 C696 1.396 . S
C695 C700 1.390 . S
C696 C690 1.465 . S
C696 C695 1.396 . S
C696 C697 1.399 . S
C697 H683 0.929 . S
C697 C696 1.399 . S
C697 C698 1.385 . S
C698 H684 0.931 . S
C698 C697 1.385 . S
C698 C699 1.389 . S
C699 C698 1.389 . S
C699 C700 1.387 . S
C700 H685 0.930 . S
C700 C695 1.390 . S
C700 C699 1.387 . S
H701 C713 0.930 . S
H702 C715 0.930 . S
H703 C716 0.930 . S
H704 C720 0.959 . S
H705 C720 0.959 . S
H706 C720 0.961 . S
H707 C721 0.960 . S
H708 C721 0.961 . S
H709 C721 0.959 . S
H710 C724 0.929 . S
H711 C725 0.931 . S
H712 C727 0.930 . S
C713 H701 0.930 . S
C713 C714 1.399 . S
C713 C718 1.399 . S
C714 C713 1.399 . S
C714 C715 1.376 . S
C715 H702 0.930 . S
C715 C714 1.376 . S
C715 C716 1.388 . S
C716 H703 0.930 . S
C716 C715 1.388 . S
C716 C717 1.390 . S
C717 C716 1.390 . S
C717 C718 1.394 . S
C717 C723 1.465 . S
C718 C713 1.399 . S
C718 C717 1.394 . S
C718 C719 1.516 . S
C719 C718 1.516 . S
C719 C720 1.502 . S
C719 C721 1.561 . S
C719 C722 1.526 . S
C720 H704 0.959 . S
C720 H705 0.959 . S
C720 H706 0.961 . S
C720 C719 1.502 . S
C721 H707 0.960 . S
C721 H708 0.961 . S
C721 H709 0.959 . S
C721 C719 1.561 . S
C722 C719 1.526 . S
C722 C723 1.396 . S
C722 C727 1.390 . S
C723 C717 1.465 . S
C723 C722 1.396 . S
C723 C724 1.399 . S
C724 H710 0.929 . S
C724 C723 1.399 . S
C724 C725 1.385 . S
C725 H711 0.931 . S
C725 C724 1.385 . S
C725 C726 1.389 . S
C726 C725 1.389 . S
C726 C727 1.387 . S
C727 H712 0.930 . S
C727 C722 1.390 . S
C727 C726 1.387 . S
H728 C740 0.930 . S
H729 C742 0.930 . S
H730 C743 0.930 . S
H731 C747 0.959 . S
H732 C747 0.959 . S
H733 C747 0.961 . S
H734 C748 0.960 . S
H735 C748 0.961 . S
H736 C748 0.959 . S
H737 C751 0.929 . S
H738 C752 0.931 . S
H739 C754 0.930 . S
C740 H728 0.930 . S
C740 C741 1.399 . S
C740 C745 1.399 . S
C741 C740 1.399 . S
C741 C742 1.376 1_565 S
C742 H729 0.930 . S
C742 C741 1.376 1_545 S
C742 C743 1.388 . S
C743 H730 0.930 . S
C743 C742 1.388 . S
C743 C744 1.390 . S
C744 C743 1.390 . S
C744 C745 1.394 1_545 S
C744 C750 1.465 . S
C745 C740 1.399 . S
C745 C744 1.394 1_565 S
C745 C746 1.516 . S
C746 C745 1.516 . S
C746 C747 1.502 1_655 S
C746 C748 1.561 . S
C746 C749 1.526 . S
C747 H731 0.959 . S
C747 H732 0.959 . S
C747 H733 0.961 . S
C747 C746 1.502 1_455 S
C748 H734 0.960 . S
C748 H735 0.961 . S
C748 H736 0.959 . S
C748 C746 1.561 . S
C749 C746 1.526 . S
C749 C750 1.396 1_565 S
C749 C754 1.390 . S
C750 C744 1.465 . S
C750 C749 1.396 1_545 S
C750 C751 1.399 . S
C751 H737 0.929 . S
C751 C750 1.399 . S
C751 C752 1.385 . S
C752 H738 0.931 . S
C752 C751 1.385 . S
C752 C753 1.389 . S
C753 C752 1.389 . S
C753 C754 1.387 1_545 S
C754 H739 0.930 . S
C754 C749 1.390 . S
C754 C753 1.387 1_565 S
H755 C767 0.930 1_565 S
H756 C769 0.930 . S
H757 C770 0.930 . S
H758 C774 0.959 . S
H759 C774 0.959 . S
H760 C774 0.961 . S
H761 C775 0.960 . S
H762 C775 0.961 . S
H763 C775 0.959 . S
H764 C778 0.929 . S
H765 C779 0.931 . S
H766 C781 0.951 . S
C767 H755 0.930 1_545 S
C767 C768 1.399 . S
C767 C772 1.399 . S
C768 C767 1.399 . S
C768 C769 1.376 . S
C769 H756 0.930 . S
C769 C768 1.376 . S
C769 C770 1.388 . S
C770 H757 0.930 . S
C770 C769 1.388 . S
C770 C771 1.390 . S
C771 C770 1.390 . S
C771 C772 1.394 . S
C771 C777 1.465 . S
C772 C767 1.399 . S
C772 C771 1.394 . S
C772 C773 1.516 1_545 S
C773 C772 1.516 1_565 S
C773 C774 1.502 . S
C773 C775 1.561 . S
C773 C776 1.526 1_565 S
C774 H758 0.959 . S
C774 H759 0.959 . S
C774 H760 0.961 . S
C774 C773 1.502 . S
C775 H761 0.960 . S
C775 H762 0.961 . S
C775 H763 0.959 . S
C775 C773 1.561 . S
C776 C773 1.526 1_545 S
C776 C777 1.396 . S
C776 C781 1.384 1_545 S
C777 C771 1.465 . S
C777 C776 1.396 . S
C777 C778 1.399 . S
C778 H764 0.929 . S
C778 C777 1.399 . S
C778 C779 1.385 . S
C779 H765 0.931 . S
C779 C778 1.385 . S
C779 C780 1.389 . S
C780 C779 1.389 . S
C780 C781 1.372 1_545 S
C781 H766 0.951 . S
C781 C776 1.384 1_565 S
C781 C780 1.372 1_565 S
H782 C794 0.930 . S
H783 C796 0.930 . S
H784 C797 0.930 . S
H785 C801 0.959 . S
H786 C801 0.959 . S
H787 C801 0.961 . S
H788 C802 0.960 . S
H789 C802 0.961 . S
H790 C802 0.959 . S
H791 C805 0.929 . S
H792 C806 0.931 . S
H793 C808 0.930 . S
C794 H782 0.930 . S
C794 C795 1.399 . S
C794 C799 1.399 . S
C795 C794 1.399 . S
C795 C796 1.376 . S
C796 H783 0.930 . S
C796 C795 1.376 . S
C796 C797 1.388 . S
C797 H784 0.930 . S
C797 C796 1.388 . S
C797 C798 1.390 . S
C798 C797 1.390 . S
C798 C799 1.394 . S
C798 C804 1.465 . S
C799 C794 1.399 . S
C799 C798 1.394 . S
C799 C800 1.516 . S
C800 C799 1.516 . S
C800 C801 1.502 . S
C800 C802 1.561 . S
C800 C803 1.526 . S
C801 H785 0.959 . S
C801 H786 0.959 . S
C801 H787 0.961 . S
C801 C800 1.502 . S
C802 H788 0.960 . S
C802 H789 0.961 . S
C802 H790 0.959 . S
C802 C800 1.561 . S
C803 C800 1.526 . S
C803 C804 1.396 . S
C803 C808 1.390 . S
C804 C798 1.465 . S
C804 C803 1.396 . S
C804 C805 1.399 . S
C805 H791 0.929 . S
C805 C804 1.399 . S
C805 C806 1.385 . S
C806 H792 0.931 . S
C806 C805 1.385 . S
C806 C807 1.389 . S
C807 C806 1.389 . S
C807 C808 1.387 . S
C808 H793 0.930 . S
C808 C803 1.390 . S
C808 C807 1.387 . S
H809 C821 0.930 . S
H810 C823 0.930 . S
H811 C824 0.930 . S
H812 C828 0.959 . S
H813 C828 0.959 . S
H814 C828 0.961 . S
H815 C829 0.960 . S
H816 C829 0.961 . S
H817 C829 0.940 1_655 S
H818 C832 0.929 . S
H819 C833 0.931 . S
H820 C835 0.930 . S
C821 H809 0.930 . S
C821 C822 1.399 . S
C821 C826 1.399 . S
C822 C821 1.399 . S
C822 C823 1.376 . S
C823 H810 0.930 . S
C823 C822 1.376 . S
C823 C824 1.388 . S
C824 H811 0.930 . S
C824 C823 1.388 . S
C824 C825 1.390 . S
C825 C824 1.390 . S
C825 C826 1.394 . S
C825 C831 1.465 . S
C826 C821 1.399 . S
C826 C825 1.394 . S
C826 C827 1.516 . S
C827 C826 1.516 . S
C827 C828 1.502 . S
C827 C829 1.561 . S
C827 C830 1.526 . S
C828 H812 0.959 . S
C828 H813 0.959 . S
C828 H814 0.961 . S
C828 C827 1.502 . S
C829 H815 0.960 . S
C829 H816 0.961 . S
C829 H817 0.940 1_455 S
C829 C827 1.561 . S
C830 C827 1.526 . S
C830 C831 1.396 . S
C830 C835 1.390 . S
C831 C825 1.465 . S
C831 C830 1.396 . S
C831 C832 1.399 . S
C832 H818 0.929 . S
C832 C831 1.399 . S
C832 C833 1.385 . S
C833 H819 0.931 . S
C833 C832 1.385 . S
C833 C834 1.389 . S
C834 C833 1.389 . S
C834 C835 1.387 . S
C835 H820 0.930 . S
C835 C830 1.390 . S
C835 C834 1.387 . S
H836 C848 0.930 . S
H837 C850 0.930 . S
H838 C851 0.930 . S
H839 C855 0.959 . S
H840 C855 0.959 . S
H841 C855 0.961 . S
H842 C856 0.960 . S
H843 C856 0.961 . S
H844 C856 0.959 . S
H845 C859 0.929 . S
H846 C860 0.931 . S
H847 C862 0.930 . S
C848 H836 0.930 . S
C848 C849 1.399 . S
C848 C853 1.399 . S
C849 C848 1.399 . S
C849 C850 1.376 1_565 S
C850 H837 0.930 . S
C850 C849 1.376 1_545 S
C850 C851 1.388 . S
C851 H838 0.930 . S
C851 C850 1.388 . S
C851 C852 1.390 . S
C852 C851 1.390 . S
C852 C853 1.394 1_545 S
C852 C858 1.465 . S
C853 C848 1.399 . S
C853 C852 1.394 1_565 S
C853 C854 1.516 . S
C854 C853 1.516 . S
C854 C855 1.502 . S
C854 C856 1.561 1_556 S
C854 C857 1.526 . S
C855 H839 0.959 . S
C855 H840 0.959 . S
C855 H841 0.961 . S
C855 C854 1.502 . S
C856 H842 0.960 . S
C856 H843 0.961 . S
C856 H844 0.959 . S
C856 C854 1.561 1_554 S
C857 C854 1.526 . S
C857 C858 1.396 1_565 S
C857 C862 1.390 . S
C858 C852 1.465 . S
C858 C857 1.396 1_545 S
C858 C859 1.399 . S
C859 H845 0.929 . S
C859 C858 1.399 . S
C859 C860 1.385 . S
C860 H846 0.931 . S
C860 C859 1.385 . S
C860 C861 1.389 1_545 S
C861 C860 1.389 1_565 S
C861 C862 1.387 . S
C862 H847 0.930 . S
C862 C857 1.390 . S
C862 C861 1.387 . S
H863 C875 0.930 . S
H864 C877 0.930 1_565 S
H865 C878 0.930 . S
H866 C882 0.959 . S
H867 C882 0.959 . S
H868 C882 0.961 . S
H869 C883 0.960 . S
H870 C883 0.961 . S
H871 C883 0.959 . S
H872 C886 0.929 . S
H873 C887 0.931 . S
H874 C889 0.930 . S
C875 H863 0.930 . S
C875 C876 1.399 . S
C875 C880 1.399 . S
C876 C875 1.399 . S
C876 C877 1.376 . S
C877 H864 0.930 1_545 S
C877 C876 1.376 . S
C877 C878 1.388 1_545 S
C878 H865 0.930 . S
C878 C877 1.388 1_565 S
C878 C879 1.390 1_565 S
C879 C878 1.390 1_545 S
C879 C880 1.394 . S
C879 C885 1.465 . S
C880 C875 1.399 . S
C880 C879 1.394 . S
C880 C881 1.516 . S
C881 C880 1.516 . S
C881 C882 1.502 . S
C881 C883 1.561 . S
C881 C884 1.526 . S
C882 H866 0.959 . S
C882 H867 0.959 . S
C882 H868 0.961 . S
C882 C881 1.502 . S
C883 H869 0.960 . S
C883 H870 0.961 . S
C883 H871 0.959 . S
C883 C881 1.561 . S
C884 C881 1.526 . S
C884 C885 1.396 . S
C884 C889 1.390 . S
C885 C879 1.465 . S
C885 C884 1.396 . S
C885 C886 1.399 1_545 S
C886 H872 0.929 . S
C886 C885 1.399 1_565 S
C886 C887 1.385 . S
C887 H873 0.931 . S
C887 C886 1.385 . S
C887 C888 1.389 1_565 S
C888 C887 1.389 1_545 S
C888 C889 1.387 . S
C889 H874 0.930 . S
C889 C884 1.390 . S
C889 C888 1.387 . S
H890 C902 0.930 . S
H891 C904 0.930 . S
H892 C905 0.930 . S
H893 C909 0.959 . S
H894 C909 0.959 . S
H895 C909 0.961 . S
H896 C910 0.960 . S
H897 C910 0.961 . S
H898 C910 0.959 . S
H899 C913 0.929 . S
H900 C914 0.931 . S
H901 C916 0.930 . S
C902 H890 0.930 . S
C902 C903 1.399 . S
C902 C907 1.399 . S
C903 C902 1.399 . S
C903 C904 1.376 . S
C904 H891 0.930 . S
C904 C903 1.376 . S
C904 C905 1.388 . S
C905 H892 0.930 . S
C905 C904 1.388 . S
C905 C906 1.390 . S
C906 C905 1.390 . S
C906 C907 1.394 . S
C906 C912 1.465 . S
C907 C902 1.399 . S
C907 C906 1.394 . S
C907 C908 1.516 . S
C908 C907 1.516 . S
C908 C909 1.502 . S
C908 C910 1.561 1_554 S
C908 C911 1.526 . S
C909 H893 0.959 . S
C909 H894 0.959 . S
C909 H895 0.961 . S
C909 C908 1.502 . S
C910 H896 0.960 . S
C910 H897 0.961 . S
C910 H898 0.959 . S
C910 C908 1.561 1_556 S
C911 C908 1.526 . S
C911 C912 1.396 . S
C911 C916 1.390 . S
C912 C906 1.465 . S
C912 C911 1.396 . S
C912 C913 1.399 . S
C913 H899 0.929 . S
C913 C912 1.399 . S
C913 C914 1.385 . S
C914 H900 0.931 . S
C914 C913 1.385 . S
C914 C915 1.389 . S
C915 C914 1.389 . S
C915 C916 1.387 . S
C916 H901 0.930 . S
C916 C911 1.390 . S
C916 C915 1.387 . S
H917 C929 0.930 . S
H918 C931 0.930 . S
H919 C932 0.930 . S
H920 C936 0.959 . S
H921 C936 0.959 . S
H922 C936 0.961 . S
H923 C937 0.960 . S
H924 C937 0.961 . S
H925 C937 0.959 . S
H926 C940 0.929 . S
H927 C941 0.931 . S
H928 C943 0.930 . S
C929 H917 0.930 . S
C929 C930 1.399 . S
C929 C934 1.399 . S
C930 C929 1.399 . S
C930 C931 1.376 . S
C931 H918 0.930 . S
C931 C930 1.376 . S
C931 C932 1.388 . S
C932 H919 0.930 . S
C932 C931 1.388 . S
C932 C933 1.390 . S
C933 C932 1.390 . S
C933 C934 1.394 . S
C933 C939 1.465 . S
C934 C929 1.399 . S
C934 C933 1.394 . S
C934 C935 1.516 . S
C935 C934 1.516 . S
C935 C936 1.502 . S
C935 C937 1.561 . S
C935 C938 1.526 . S
C936 H920 0.959 . S
C936 H921 0.959 . S
C936 H922 0.961 . S
C936 C935 1.502 . S
C937 H923 0.960 . S
C937 H924 0.961 . S
C937 H925 0.959 . S
C937 C935 1.561 . S
C938 C935 1.526 . S
C938 C939 1.396 . S
C938 C943 1.390 . S
C939 C933 1.465 . S
C939 C938 1.396 . S
C939 C940 1.399 . S
C940 H926 0.929 . S
C940 C939 1.399 . S
C940 C941 1.385 . S
C941 H927 0.931 . S
C941 C940 1.385 . S
C941 C942 1.389 . S
C942 C941 1.389 . S
C942 C943 1.387 . S
C943 H928 0.930 . S
C943 C938 1.390 . S
C943 C942 1.387 . S
H944 C956 0.930 1_554 S
H945 C958 0.930 . S
H946 C959 0.930 . S
H947 C963 0.959 . S
H948 C963 0.959 . S
H949 C963 0.961 . S
H950 C964 0.960 . S
H951 C964 0.961 . S
H952 C964 0.959 . S
H953 C967 0.929 . S
H954 C968 0.931 . S
H955 C970 0.930 . S
C956 H944 0.930 1_556 S
C956 C957 1.399 . S
C956 C961 1.399 . S
C957 C956 1.399 . S
C957 C958 1.376 . S
C958 H945 0.930 . S
C958 C957 1.376 . S
C958 C959 1.388 . S
C959 H946 0.930 . S
C959 C958 1.388 . S
C959 C960 1.390 . S
C960 C959 1.390 . S
C960 C961 1.394 . S
C960 C966 1.465 . S
C961 C956 1.399 . S
C961 C960 1.394 . S
C961 C962 1.516 1_556 S
C962 C961 1.516 1_554 S
C962 C963 1.502 1_655 S
C962 C964 1.561 . S
C962 C965 1.526 1_554 S
C963 H947 0.959 . S
C963 H948 0.959 . S
C963 H949 0.961 . S
C963 C962 1.502 1_455 S
C964 H950 0.960 . S
C964 H951 0.961 . S
C964 H952 0.959 . S
C964 C962 1.561 . S
C965 C962 1.526 1_556 S
C965 C966 1.396 . S
C965 C970 1.390 1_556 S
C966 C960 1.465 . S
C966 C965 1.396 . S
C966 C967 1.399 . S
C967 H953 0.929 . S
C967 C966 1.399 . S
C967 C968 1.385 . S
C968 H954 0.931 . S
C968 C967 1.385 . S
C968 C969 1.389 . S
C969 C968 1.389 . S
C969 C970 1.387 1_556 S
C970 H955 0.930 . S
C970 C965 1.390 1_554 S
C970 C969 1.387 1_554 S
H971 C983 0.930 . S
H972 C985 0.930 . S
H973 C986 0.930 . S
H974 C990 0.959 . S
H975 C990 0.959 . S
H976 C990 0.961 . S
H977 C991 0.960 . S
H978 C991 0.961 . S
H979 C991 0.959 . S
H980 C994 0.929 1_556 S
H981 C995 0.931 . S
H982 C997 0.930 . S
C983 H971 0.930 . S
C983 C984 1.399 . S
C983 C988 1.399 . S
C984 C983 1.399 . S
C984 C985 1.376 . S
C985 H972 0.930 . S
C985 C984 1.376 . S
C985 C986 1.388 . S
C986 H973 0.930 . S
C986 C985 1.388 . S
C986 C987 1.390 . S
C987 C986 1.390 . S
C987 C988 1.394 . S
C987 C993 1.465 . S
C988 C983 1.399 . S
C988 C987 1.394 . S
C988 C989 1.516 . S
C989 C988 1.516 . S
C989 C990 1.502 . S
C989 C991 1.561 . S
C989 C992 1.526 . S
C990 H974 0.959 . S
C990 H975 0.959 . S
C990 H976 0.961 . S
C990 C989 1.502 . S
C991 H977 0.960 . S
C991 H978 0.961 . S
C991 H979 0.959 . S
C991 C989 1.561 . S
C992 C989 1.526 . S
C992 C993 1.396 . S
C992 C997 1.390 . S
C993 C987 1.465 . S
C993 C992 1.396 . S
C993 C994 1.399 . S
C994 H980 0.929 1_554 S
C994 C993 1.399 . S
C994 C995 1.385 . S
C995 H981 0.931 . S
C995 C994 1.385 . S
C995 C996 1.389 . S
C996 C995 1.389 . S
C996 C997 1.387 . S
C997 H982 0.930 . S
C997 C992 1.390 . S
C997 C996 1.387 . S
H998 C1010 0.930 . S
H999 C1012 0.930 . S
H1000 C1013 0.930 . S
H1001 C1017 0.959 1_655 S
H1002 C1017 0.959 . S
H1003 C1017 0.961 . S
H1004 C1018 0.960 . S
H1005 C1018 0.961 . S
H1006 C1018 0.959 . S
H1007 C1021 0.929 . S
H1008 C1022 0.931 . S
H1009 C1024 0.930 . S
C1010 H998 0.930 . S
C1010 C1011 1.399 . S
C1010 C1015 1.399 . S
C1011 C1010 1.399 . S
C1011 C1012 1.376 . S
C1012 H999 0.930 . S
C1012 C1011 1.376 . S
C1012 C1013 1.388 . S
C1013 H1000 0.930 . S
C1013 C1012 1.388 . S
C1013 C1014 1.390 . S
C1014 C1013 1.390 . S
C1014 C1015 1.394 . S
C1014 C1020 1.465 . S
C1015 C1010 1.399 . S
C1015 C1014 1.394 . S
C1015 C1016 1.516 . S
C1016 C1015 1.516 . S
C1016 C1017 1.502 . S
C1016 C1018 1.561 . S
C1016 C1019 1.526 . S
C1017 H1001 0.959 1_455 S
C1017 H1002 0.959 . S
C1017 H1003 0.961 . S
C1017 C1016 1.502 . S
C1018 H1004 0.960 . S
C1018 H1005 0.961 . S
C1018 H1006 0.959 . S
C1018 C1016 1.561 . S
C1019 C1016 1.526 . S
C1019 C1020 1.396 . S
C1019 C1024 1.390 . S
C1020 C1014 1.465 . S
C1020 C1019 1.396 . S
C1020 C1021 1.399 . S
C1021 H1007 0.929 . S
C1021 C1020 1.399 . S
C1021 C1022 1.385 . S
C1022 H1008 0.931 . S
C1022 C1021 1.385 . S
C1022 C1023 1.389 . S
C1023 C1022 1.389 . S
C1023 C1024 1.387 . S
C1024 H1009 0.930 . S
C1024 C1019 1.390 . S
C1024 C1023 1.387 . S
H1025 C1037 0.930 . S
H1026 C1039 0.930 . S
H1027 C1040 0.930 . S
H1028 C1044 0.959 . S
H1029 C1044 0.959 . S
H1030 C1044 0.961 . S
H1031 C1045 0.960 . S
H1032 C1045 0.961 . S
H1033 C1045 0.959 . S
H1034 C1048 0.929 . S
H1035 C1049 0.931 . S
H1036 C1051 0.930 . S
C1037 H1025 0.930 . S
C1037 C1038 1.399 . S
C1037 C1042 1.399 . S
C1038 C1037 1.399 . S
C1038 C1039 1.376 . S
C1039 H1026 0.930 . S
C1039 C1038 1.376 . S
C1039 C1040 1.388 . S
C1040 H1027 0.930 . S
C1040 C1039 1.388 . S
C1040 C1041 1.390 . S
C1041 C1040 1.390 . S
C1041 C1042 1.394 . S
C1041 C1047 1.465 . S
C1042 C1037 1.399 . S
C1042 C1041 1.394 . S
C1042 C1043 1.516 . S
C1043 C1042 1.516 . S
C1043 C1044 1.502 . S
C1043 C1045 1.561 . S
C1043 C1046 1.526 . S
C1044 H1028 0.959 . S
C1044 H1029 0.959 . S
C1044 H1030 0.961 . S
C1044 C1043 1.502 . S
C1045 H1031 0.960 . S
C1045 H1032 0.961 . S
C1045 H1033 0.959 . S
C1045 C1043 1.561 . S
C1046 C1043 1.526 . S
C1046 C1047 1.396 . S
C1046 C1051 1.390 . S
C1047 C1041 1.465 . S
C1047 C1046 1.396 . S
C1047 C1048 1.399 . S
C1048 H1034 0.929 . S
C1048 C1047 1.399 . S
C1048 C1049 1.385 . S
C1049 H1035 0.931 . S
C1049 C1048 1.385 . S
C1049 C1050 1.389 . S
C1050 C1049 1.389 . S
C1050 C1051 1.387 . S
C1051 H1036 0.930 . S
C1051 C1046 1.390 . S
C1051 C1050 1.387 . S
C417 C1 1.621 . S
C429 C330 1.574 . S
C444 C40 1.607 . S
C456 C354 1.540 . S
C483 C374 1.433 . S
C471 C99 1.451 . S
C498 C118 1.403 . S
C510 C397 1.457 . S
C537 C356 1.693 . S
C525 C16 1.697 . S
C564 C332 1.621 . S
C552 C60 1.681 . S
C591 C400 1.612 . S
C579 C79 1.623 . S
C618 C377 1.576 . S
C606 C138 1.562 . S
C633 C21 1.398 . S
C645 C402 1.321 . S
C672 C351 1.663 . S
C660 C94 1.643 . S
C687 C133 1.625 . S
C699 C329 1.631 . S
C714 C55 1.383 . S
C726 C379 1.315 . S
C753 C333 1.737 . S
C741 C157 1.690 . S
C768 C196 1.649 . S
C780 C355 1.637 . S
C795 C255 1.772 . S
C807 C375 1.827 . S
C822 C289 1.784 . S
C834 C398 1.824 . S
C849 C172 1.653 . S
C861 C353 1.609 . S
C888 C331 1.659 . S
C876 C216 1.633 . S
C915 C401 1.506 . S
C903 C235 1.569 . S
C942 C378 1.546 . S
C930 C294 1.511 . S
C957 C177 1.883 . S
C969 C399 1.912 . S
C996 C352 1.607 . S
C984 C250 1.629 . S
C1023 C328 1.631 . S
C1011 C274 1.548 . S
C1038 C211 1.896 . S
C1050 C376 1.903 . S
