# Generated by pormake.
# Topology zzz, (3,6)-cn, num edge types: 1
# Building blocks:
#     Node 0, Type 0, BuildingBlock: BETDAH_clean_linker_0, # of connection points: 3
#     Node 1, Type 0, BuildingBlock: BETDAH_clean_linker_0, # of connection points: 3
#     Node 2, Type 0, BuildingBlock: BETDAH_clean_linker_0, # of connection points: 3
#     Node 3, Type 0, BuildingBlock: BETDAH_clean_linker_0, # of connection points: 3
#     Node 4, Type 0, BuildingBlock: BETDAH_clean_linker_0, # of connection points: 3
#     Node 5, Type 0, BuildingBlock: BETDAH_clean_linker_0, # of connection points: 3
#     Node 6, Type 0, BuildingBlock: BETDAH_clean_linker_0, # of connection points: 3
#     Node 7, Type 0, BuildingBlock: BETDAH_clean_linker_0, # of connection points: 3
#     Node 8, Type 1, BuildingBlock: HISSIN_clean_sbu_0, # of connection points: 6
#     Node 9, Type 1, BuildingBlock: HISSIN_clean_sbu_0, # of connection points: 6
#     Node 10, Type 1, BuildingBlock: HISSIN_clean_sbu_0, # of connection points: 6
#     Node 11, Type 1, BuildingBlock: HISSIN_clean_sbu_0, # of connection points: 6
#     Edge 12, Type (0, 1), BuildingBlock: ZUJKAS_clean_linker_0, # of connection points: 2
#     Edge 13, Type (0, 1), BuildingBlock: ZUJKAS_clean_linker_0, # of connection points: 2
#     Edge 14, Type (0, 1), BuildingBlock: ZUJKAS_clean_linker_0, # of connection points: 2
#     Edge 15, Type (0, 1), BuildingBlock: ZUJKAS_clean_linker_0, # of connection points: 2
#     Edge 16, Type (0, 1), BuildingBlock: ZUJKAS_clean_linker_0, # of connection points: 2
#     Edge 17, Type (0, 1), BuildingBlock: ZUJKAS_clean_linker_0, # of connection points: 2
#     Edge 18, Type (0, 1), BuildingBlock: ZUJKAS_clean_linker_0, # of connection points: 2
#     Edge 19, Type (0, 1), BuildingBlock: ZUJKAS_clean_linker_0, # of connection points: 2
#     Edge 20, Type (0, 1), BuildingBlock: ZUJKAS_clean_linker_0, # of connection points: 2
#     Edge 21, Type (0, 1), BuildingBlock: ZUJKAS_clean_linker_0, # of connection points: 2
#     Edge 22, Type (0, 1), BuildingBlock: ZUJKAS_clean_linker_0, # of connection points: 2
#     Edge 23, Type (0, 1), BuildingBlock: ZUJKAS_clean_linker_0, # of connection points: 2
#     Edge 24, Type (0, 1), BuildingBlock: ZUJKAS_clean_linker_0, # of connection points: 2
#     Edge 25, Type (0, 1), BuildingBlock: ZUJKAS_clean_linker_0, # of connection points: 2
#     Edge 26, Type (0, 1), BuildingBlock: ZUJKAS_clean_linker_0, # of connection points: 2
#     Edge 27, Type (0, 1), BuildingBlock: ZUJKAS_clean_linker_0, # of connection points: 2
#     Edge 28, Type (0, 1), BuildingBlock: ZUJKAS_clean_linker_0, # of connection points: 2
#     Edge 29, Type (0, 1), BuildingBlock: ZUJKAS_clean_linker_0, # of connection points: 2
#     Edge 30, Type (0, 1), BuildingBlock: ZUJKAS_clean_linker_0, # of connection points: 2
#     Edge 31, Type (0, 1), BuildingBlock: ZUJKAS_clean_linker_0, # of connection points: 2
#     Edge 32, Type (0, 1), BuildingBlock: ZUJKAS_clean_linker_0, # of connection points: 2
#     Edge 33, Type (0, 1), BuildingBlock: ZUJKAS_clean_linker_0, # of connection points: 2
#     Edge 34, Type (0, 1), BuildingBlock: ZUJKAS_clean_linker_0, # of connection points: 2
#     Edge 35, Type (0, 1), BuildingBlock: ZUJKAS_clean_linker_0, # of connection points: 2
# Relax obj value: 0.219
# Max RMSD: 0.169
# Mean RMSD: 0.092
data_MOF--net-zzz--node1-HISSIN_clean_sbu_0--node2-BETDAH_clean_linker_0--edge1-ZUJKAS_clean_linker_0
_symmetry_space_group_name_H-M    P1
_symmetry_Int_Tables_number       1
_symmetry_cell_setting            triclinic
loop_
_symmetry_equiv_pos_as_xyz
'x, y, z'
_cell_length_a     65.033839
_cell_length_b     65.202177
_cell_length_c     21.163653
_cell_angle_alpha  90.144026
_cell_angle_beta   91.75788
_cell_angle_gamma 90.498192
loop_
_atom_site_label
_atom_site_type_symbol
_atom_site_fract_x
_atom_site_fract_y
_atom_site_fract_z
_atom_type_partial_charge
H0 H 0.80628 0.51239 0.22658 0.0
H1 H 0.7448 0.52302 0.15612 0.0
H2 H 0.76434 0.54625 0.33941 0.0
C3 C 0.79104 0.51838 0.23373 0.0
C4 C 0.78717 0.52906 0.28972 0.0
C5 C 0.77586 0.51603 0.18562 0.0
C6 C 0.7565 0.52485 0.19326 0.0
C7 C 0.75226 0.53585 0.24869 0.0
C8 C 0.76767 0.53791 0.29663 0.0
N9 N 0.73273 0.54498 0.25744 0.0
C10 C 0.71656 0.54413 0.21266 0.0
H11 H 0.9792 0.81143 0.22734 0.0
H12 H 0.99367 0.75275 0.1499 0.0
H13 H 0.01561 0.76906 0.33814 0.0
C14 C 0.98591 0.79637 0.23373 0.0
C15 C 0.99704 0.792 0.28989 0.0
C16 C 0.98483 0.78236 0.18337 0.0
C17 C 0.9944 0.76331 0.18953 0.0
C18 C 1.00533 0.75819 0.24554 0.0
C19 C 1.00684 0.77275 0.29539 0.0
N20 N 0.0153 0.73884 0.25202 0.0
C21 C 0.01496 0.72358 0.20519 0.0
H22 H 0.72555 0.98267 0.20419 0.0
H23 H 0.7839 0.99362 0.12126 0.0
H24 H 0.76498 0.03103 0.27758 0.0
C25 C 0.74008 0.99097 0.20448 0.0
C26 C 0.74325 1.00735 0.24688 0.0
C27 C 0.75458 0.98606 0.15924 0.0
C28 C 0.77306 0.99719 0.15746 0.0
C29 C 0.77719 0.01327 0.20052 0.0
C30 C 0.7622 0.01825 0.24557 0.0
N31 N 0.79576 0.02513 0.19754 0.0
C32 C 0.81096 0.02252 0.1524 0.0
H33 H 0.50435 0.73095 0.18016 0.0
H34 H 0.5094 0.79279 0.11223 0.0
H35 H 0.54134 0.77499 0.28462 0.0
C36 C 0.51028 0.74645 0.18569 0.0
C37 C 0.52323 0.75109 0.23807 0.0
C38 C 0.505 0.76138 0.14035 0.0
C39 C 0.51337 0.78123 0.14699 0.0
C40 C 0.52665 0.78622 0.19867 0.0
C41 C 0.53118 0.77117 0.2447 0.0
N42 N 0.53577 0.8061 0.20524 0.0
C43 C 0.53424 0.82147 0.15948 0.0
H44 H 0.23726 0.50234 0.09686 0.0
H45 H 0.30115 0.50595 0.15219 0.0
H46 H 0.28306 0.48881 0.96104 0.0
C47 C 0.25328 0.50045 0.08541 0.0
C48 C 0.25822 0.49491 0.02381 0.0
C49 C 0.26868 0.50457 0.13153 0.0
C50 C 0.28937 0.5027 0.11623 0.0
C51 C 0.29474 0.4966 0.05499 0.0
C52 C 0.27905 0.49314 0.00853 0.0
N53 N 0.31567 0.49385 0.03908 0.0
C54 C 0.33211 0.49525 0.0829 0.0
H55 H 0.06663 0.24366 0.07885 0.0
H56 H 0.05253 0.30131 0.16437 0.0
H57 H 0.02607 0.28542 0.98095 0.0
C58 C 0.0595 0.25862 0.07535 0.0
C59 C 0.04671 0.26297 0.02272 0.0
C60 C 0.06137 0.27222 0.12667 0.0
C61 C 0.05124 0.29108 0.12399 0.0
C62 C 0.03874 0.29622 0.07109 0.0
C63 C 0.03624 0.28189 0.02089 0.0
N64 N 0.02793 0.31521 0.06858 0.0
C65 C 0.02876 0.33009 0.11655 0.0
H66 H 0.31654 0.01024 0.15158 0.0
H67 H 0.25646 0.02034 0.22229 0.0
H68 H 0.27266 0.04563 0.042 0.0
C69 C 0.30137 0.01683 0.14507 0.0
C70 C 0.29656 0.02794 0.08981 0.0
C71 C 0.287 0.01404 0.19248 0.0
C72 C 0.26738 0.02251 0.18524 0.0
C73 C 0.26205 0.03413 0.13148 0.0
C74 C 0.27677 0.03686 0.08384 0.0
N75 N 0.24212 0.04316 0.12442 0.0
C76 C 0.22648 0.04175 0.16869 0.0
H77 H 0.54374 0.31151 0.07521 0.0
H78 H 0.5268 0.25666 0.17286 0.0
H79 H 0.49086 0.27655 0.00988 0.0
C80 C 0.53398 0.29799 0.07822 0.0
C81 C 0.51721 0.29561 0.03555 0.0
C82 C 0.53737 0.28413 0.12792 0.0
C83 C 0.52419 0.26717 0.13396 0.0
C84 C 0.50753 0.26412 0.09081 0.0
C85 C 0.50394 0.27859 0.0423 0.0
N86 N 0.49391 0.24699 0.09588 0.0
C87 C 0.49628 0.23139 0.14056 0.0
Eu88 Eu 1.00424 0.0365 0.60158 0.0
Eu89 Eu 0.03238 0.01773 0.71552 0.0
C90 C 0.026 0.06647 0.70843 0.0
C91 C 0.98953 0.07572 0.48666 0.0
C92 C 0.99521 0.09129 0.52999 0.0
C93 C 1.00284 0.0965 0.4019 0.0
C94 C 1.00533 0.10889 0.50996 0.0
C95 C 0.99285 0.07872 0.42217 0.0
C96 C 1.00983 0.11134 0.44609 0.0
C97 C 0.98454 0.05513 0.51027 0.0
O98 O 1.00114 0.02307 0.75716 0.0
O99 O 0.9808 0.02266 0.6671 0.0
C100 C 0.98283 0.0219 0.72915 0.0
O101 O 1.00891 1.00342 0.57301 0.0
O102 O 0.04123 0.01502 0.81558 0.0
O103 O 0.05612 0.99627 0.74655 0.0
O104 O 0.01551 0.9904 0.67145 0.0
C105 C 1.0111 0.98765 0.61101 0.0
O106 O 0.03708 0.04476 0.57694 0.0
O107 O 0.05372 0.01976 0.63308 0.0
O108 O 0.0391 0.05186 0.72352 0.0
O109 O 0.99864 0.04149 0.50056 0.0
O110 O 0.9778 0.05422 0.56767 0.0
O111 O 1.01001 0.06277 0.67045 0.0
C112 C 0.04463 0.97951 0.83683 0.0
C113 C 0.0266 0.97963 0.87189 0.0
C114 C 0.0431 0.94225 0.8343 0.0
C115 C 0.01655 0.9613 0.88591 0.0
C116 C 0.05324 0.9606 0.82057 0.0
C117 C 0.02426 0.94247 0.8651 0.0
C118 C 0.05182 0.99844 0.80594 0.0
C119 C 0.05343 0.03341 0.58755 0.0
H120 H 0.99295 0.08937 0.58002 0.0
H121 H 1.00618 0.09809 0.3523 0.0
H122 H 1.01027 0.12027 0.54475 0.0
H123 H 0.98888 0.06679 0.38811 0.0
H124 H 0.01953 0.9939 0.88544 0.0
H125 H 0.04947 0.92799 0.81773 0.0
H126 H 1.00237 0.96192 0.91138 0.0
H127 H 0.06707 0.96005 0.79335 0.0
Eu128 Eu 0.52785 0.04098 0.70613 0.0
Eu129 Eu 0.5058 0.0119 0.59789 0.0
C130 C 0.52342 0.99222 0.72809 0.0
C131 C 0.56855 0.05005 0.82509 0.0
C132 C 0.56604 0.03572 0.87392 0.0
C133 C 0.60397 0.039 0.81602 0.0
C134 C 0.58202 0.02256 0.89151 0.0
C135 C 0.58801 0.0522 0.79853 0.0
C136 C 0.60088 0.02354 0.86097 0.0
C137 C 0.5503 0.05921 0.79294 0.0
O138 O 0.48194 0.01659 0.67315 0.0
O139 O 0.49391 0.04619 0.72066 0.0
C140 C 0.47919 0.03245 0.71064 0.0
O141 O 0.52023 0.06396 0.62984 0.0
O142 O 0.50363 0.98251 0.54765 0.0
O143 O 0.48187 1.00661 0.52571 0.0
O144 O 0.50321 0.04362 0.55557 0.0
C145 C 0.51039 0.06156 0.5751 0.0
O146 O 0.55337 0.02498 0.65384 0.0
O147 O 0.53693 0.01952 0.55858 0.0
O148 O 0.52085 0.98973 0.66682 0.0
O149 O 0.55213 0.06293 0.73278 0.0
O150 O 0.53261 0.0506 0.80445 0.0
O151 O 0.5232 0.01051 0.75367 0.0
C152 C 0.4693 0.97279 0.52234 0.0
C153 C 0.45414 0.97582 0.56707 0.0
C154 C 0.44906 0.94477 0.4766 0.0
C155 C 0.43606 0.96413 0.56447 0.0
C156 C 0.46705 0.95669 0.47873 0.0
C157 C 0.43291 0.94903 0.51744 0.0
C158 C 0.48653 0.98737 0.5179 0.0
C159 C 0.55405 0.02175 0.59254 0.0
H160 H 0.55133 0.03374 0.89589 0.0
H161 H 0.61834 0.04021 0.79169 0.0
H162 H 0.57938 0.01119 0.92766 0.0
H163 H 0.59051 0.06311 0.76096 0.0
H164 H 0.45574 0.98802 0.60171 0.0
H165 H 0.44735 0.93296 0.44071 0.0
H166 H 0.42401 0.96807 0.59642 0.0
H167 H 0.47877 0.95394 0.44449 0.0
Eu168 Eu 0.50451 0.53521 0.69798 0.0
Eu169 Eu 0.54039 0.51748 0.6083 0.0
C170 C 0.55108 0.53414 0.74567 0.0
C171 C 0.46548 0.57137 0.76262 0.0
C172 C 0.47431 0.58769 0.72974 0.0
C173 C 0.43897 0.5942 0.79858 0.0
C174 C 0.46606 0.6073 0.73332 0.0
C175 C 0.44744 0.57457 0.79556 0.0
C176 C 0.44861 0.61098 0.7693 0.0
C177 C 0.47584 0.55147 0.76531 0.0
O178 O 0.53314 0.49131 0.67406 0.0
O179 O 0.50143 0.50081 0.7086 0.0
C180 C 0.51596 0.48706 0.70275 0.0
O181 O 0.49146 0.5337 0.59823 0.0
O182 O 0.57168 0.50598 0.60395 0.0
O183 O 0.55321 0.50922 0.51771 0.0
O184 O 0.51017 0.50678 0.56319 0.0
C185 C 0.4938 0.51842 0.55873 0.0
O186 O 0.5194 0.56348 0.65618 0.0
O187 O 0.53416 0.54912 0.56958 0.0
O188 O 0.55542 0.53656 0.68608 0.0
O189 O 0.47196 0.53905 0.71797 0.0
O190 O 0.4954 0.55228 0.78084 0.0
O191 O 0.53239 0.52882 0.76091 0.0
C192 C 0.57611 0.48135 0.52513 0.0
C193 C 0.56128 0.46571 0.5186 0.0
C194 C 0.60278 0.45692 0.50155 0.0
C195 C 0.56711 0.44586 0.50269 0.0
C196 C 0.59689 0.47684 0.51703 0.0
C197 C 0.58794 0.4412 0.49383 0.0
C198 C 0.57018 0.50213 0.54357 0.0
C199 C 0.52776 0.56525 0.60054 0.0
H200 H 0.48815 0.58545 0.70356 0.0
H201 H 0.4253 0.59635 0.82567 0.0
H202 H 0.47418 0.61973 0.71084 0.0
H203 H 0.44029 0.56205 0.82058 0.0
H204 H 0.54517 0.46885 0.52551 0.0
H205 H 0.61895 0.45383 0.49582 0.0
H206 H 0.5552 0.43429 0.49597 0.0
H207 H 0.60856 0.48871 0.52292 0.0
Eu208 Eu 0.03147 0.54028 0.61698 0.0
Eu209 Eu 1.01131 0.50929 0.71873 0.0
C210 C 0.0605 0.51492 0.71655 0.0
C211 C 0.07273 0.56328 0.52369 0.0
C212 C 0.08489 0.54737 0.54826 0.0
C213 C 0.1026 0.57745 0.4729 0.0
C214 C 0.10573 0.54648 0.53551 0.0
C215 C 0.08166 0.57842 0.48626 0.0
C216 C 0.11481 0.56137 0.49715 0.0
C217 C 0.05101 0.56411 0.53991 0.0
O218 O 0.02173 0.53781 0.7728 0.0
O219 O 0.01713 0.56019 0.69132 0.0
C220 C 0.01897 0.55664 0.75232 0.0
O221 O 0.99833 0.53703 0.5829 0.0
O222 O 0.99624 0.50416 0.80784 0.0
O223 O 1.00163 0.47843 0.74616 0.0
O224 O 0.98469 0.52725 0.67687 0.0
C225 C 0.98241 0.53386 0.61851 0.0
O226 O 0.03783 0.50805 0.58286 0.0
O227 O 1.00918 0.49352 0.62313 0.0
O228 O 0.04524 0.50223 0.72796 0.0
O229 O 0.03978 0.54844 0.521 0.0
O230 O 0.04789 0.56884 0.59868 0.0
O231 O 0.05758 0.53188 0.68432 0.0
C232 C 0.9704 0.47896 0.7993 0.0
C233 C 0.9552 0.49097 0.76945 0.0
C234 C 0.94375 0.45698 0.84079 0.0
C235 C 0.93443 0.4864 0.77662 0.0
C236 C 0.9646 0.4617 0.83392 0.0
C237 C 0.9284 0.46957 0.81342 0.0
C238 C 0.99216 0.48493 0.79565 0.0
C239 C 0.02407 0.49318 0.58261 0.0
H240 H 0.07825 0.53559 0.57749 0.0
H241 H 0.10911 0.58903 0.44265 0.0
H242 H 0.11473 0.5341 0.55582 0.0
H243 H 0.07246 0.59087 0.46725 0.0
H244 H 0.95938 0.5043 0.74221 0.0
H245 H 0.93966 0.44373 0.86863 0.0
H246 H 0.92316 0.49667 0.75566 0.0
H247 H 0.97616 0.45214 0.85671 0.0
H248 H 0.22209 0.01779 0.27301 0.0
H249 H 0.19283 0.01694 0.34404 0.0
H250 H 0.16292 0.06403 0.233 0.0
H251 H 0.19204 0.06468 0.16178 0.0
H252 H 0.17632 0.04689 0.41923 0.0
H253 H 0.11738 0.02142 0.24071 0.0
H254 H 0.14457 0.02048 0.22653 0.0
H255 H 0.13093 0.04426 0.21864 0.0
C256 C 0.20923 0.02791 0.26377 0.0
C257 C 0.20929 0.04124 0.21171 0.0
C258 C 0.19249 0.02744 0.30445 0.0
C259 C 0.17533 0.04017 0.29366 0.0
C260 C 0.17561 0.05369 0.24188 0.0
H261 H 0.0586 0.05884 0.48487 0.0
H262 H 0.08816 0.06107 0.41583 0.0
C263 C 0.19235 0.05416 0.20133 0.0
C264 C 0.15739 0.03957 0.33697 0.0
H265 H 0.10518 0.03189 0.3402 0.0
C266 C 0.16079 0.0435 0.40187 0.0
C267 C 0.13698 0.03524 0.31483 0.0
C268 C 0.1322 0.02992 0.24651 0.0
C269 C 0.14451 0.04359 0.44459 0.0
C270 C 0.12411 0.03921 0.42248 0.0
C271 C 0.1207 0.03532 0.35755 0.0
C272 C 0.1062 0.03822 0.4659 0.0
C273 C 0.14929 0.04891 0.51291 0.0
C274 C 0.10618 0.02453 0.51719 0.0
C275 C 0.08928 0.02325 0.55691 0.0
C276 C 0.07177 0.03553 0.54643 0.0
C277 C 0.07177 0.0492 0.49492 0.0
C278 C 0.08871 0.05046 0.45512 0.0
H279 H 0.16395 0.0577 0.51852 0.0
H280 H 0.13677 0.05807 0.53324 0.0
H281 H 0.15092 0.03455 0.54056 0.0
H282 H 0.11914 0.01452 0.52603 0.0
H283 H 0.0899 0.01239 0.59555 0.0
H284 H 0.51158 0.233 0.26108 0.0
H285 H 0.51429 0.20438 0.33643 0.0
H286 H 0.487 0.16359 0.19598 0.0
H287 H 0.4846 0.19211 0.12062 0.0
H288 H 0.48384 0.17952 0.38477 0.0
H289 H 0.53833 0.1325 0.25114 0.0
H290 H 0.5334 0.15904 0.23256 0.0
H291 H 0.51567 0.13932 0.20569 0.0
C292 C 0.50631 0.21786 0.24643 0.0
C293 C 0.49804 0.2146 0.18519 0.0
C294 C 0.50781 0.20155 0.28943 0.0
C295 C 0.50117 0.1817 0.27168 0.0
C296 C 0.49267 0.1786 0.21045 0.0
H297 H 0.49316 0.06276 0.45497 0.0
H298 H 0.49051 0.0922 0.38386 0.0
C299 C 0.49119 0.1949 0.16754 0.0
C300 C 0.50268 0.16434 0.31743 0.0
H301 H 0.52258 0.11634 0.33814 0.0
C302 C 0.49243 0.16577 0.37476 0.0
C303 C 0.51389 0.14635 0.30451 0.0
C304 C 0.52612 0.14423 0.24543 0.0
C305 C 0.49264 0.14954 0.41861 0.0
C306 C 0.50367 0.13148 0.40534 0.0
C307 C 0.51404 0.13012 0.34824 0.0
C308 C 0.50469 0.1138 0.44994 0.0
C309 C 0.4806 0.15167 0.47805 0.0
C310 C 0.51362 0.11605 0.51087 0.0
C311 C 0.51517 0.09921 0.5518 0.0
C312 C 0.50789 0.07968 0.53268 0.0
C313 C 0.49887 0.07752 0.47163 0.0
C314 C 0.49738 0.09436 0.43072 0.0
H315 H 0.46891 0.16395 0.47372 0.0
H316 H 0.47273 0.13704 0.48965 0.0
H317 H 0.49132 0.15571 0.51806 0.0
H318 H 0.51974 0.13077 0.52646 0.0
H319 H 0.52232 0.10151 0.5982 0.0
H320 H 0.33069 0.488 0.20826 0.0
H321 H 0.35918 0.49111 0.28671 0.0
H322 H 0.40022 0.50812 0.13888 0.0
H323 H 0.37157 0.50542 0.06069 0.0
H324 H 0.39621 0.47104 0.2972 0.0
H325 H 0.4093 0.55453 0.2655 0.0
H326 H 0.3867 0.54145 0.23373 0.0
H327 H 0.41066 0.53988 0.19385 0.0
C328 C 0.34579 0.49249 0.19278 0.0
C329 C 0.34902 0.49667 0.12887 0.0
C330 C 0.36207 0.49419 0.23748 0.0
C331 C 0.38182 0.50016 0.21896 0.0
C332 C 0.38506 0.50393 0.1546 0.0
H333 H 0.49388 0.49033 0.46119 0.0
H334 H 0.46739 0.48516 0.37749 0.0
C335 C 0.36876 0.50228 0.10995 0.0
C336 C 0.39892 0.50242 0.26705 0.0
H337 H 0.4334 0.53705 0.33137 0.0
C338 C 0.40436 0.48546 0.30465 0.0
C339 C 0.40942 0.52131 0.27732 0.0
C340 C 0.40364 0.5404 0.24095 0.0
C341 C 0.42 0.48685 0.352 0.0
C342 C 0.43077 0.50564 0.3614 0.0
C343 C 0.4253 0.52259 0.32382 0.0
C344 C 0.447 0.50844 0.41208 0.0
C345 C 0.42442 0.46836 0.39276 0.0
C346 C 0.44463 0.52352 0.45866 0.0
C347 C 0.45979 0.52663 0.50608 0.0
C348 C 0.47778 0.51475 0.50813 0.0
C349 C 0.48019 0.49966 0.46132 0.0
C350 C 0.46499 0.4966 0.41361 0.0
H351 H 0.4116 0.45699 0.3901 0.0
H352 H 0.43848 0.46074 0.37627 0.0
H353 H 0.42715 0.47291 0.44295 0.0
H354 H 0.43095 0.53288 0.45852 0.0
H355 H 0.45733 0.53839 0.54122 0.0
H356 H 1.00217 0.33457 0.2116 0.0
H357 H 1.00192 0.36216 0.29108 0.0
H358 H 0.05601 0.38896 0.21065 0.0
H359 H 0.05604 0.36152 0.13077 0.0
H360 H 0.0306 0.37414 0.38288 0.0
H361 H 0.01777 0.43779 0.21343 0.0
H362 H 0.01458 0.41121 0.19093 0.0
H363 H 0.03987 0.42257 0.19722 0.0
C364 C 0.01397 0.34639 0.21104 0.0
C365 C 0.02906 0.34603 0.16502 0.0
C366 C 0.01384 0.36215 0.25646 0.0
C367 C 0.02872 0.37797 0.25649 0.0
C368 C 0.04406 0.3773 0.211 0.0
H369 H 0.05219 0.48756 0.48954 0.0
H370 H 0.0536 0.45949 0.41259 0.0
C371 C 0.04418 0.36153 0.1656 0.0
C372 C 0.02828 0.39497 0.30434 0.0
H373 H 0.02534 0.44718 0.32001 0.0
C374 C 0.02937 0.3901 0.36904 0.0
C375 C 0.0267 0.41589 0.2867 0.0
C376 C 0.02446 0.42223 0.21834 0.0
C377 C 0.02929 0.40544 0.4162 0.0
C378 C 0.02768 0.42635 0.39854 0.0
C379 C 0.02663 0.43122 0.33385 0.0
C380 C 0.02689 0.44336 0.44629 0.0
C381 C 0.03142 0.3991 0.48458 0.0
C382 C 1.01127 0.44394 0.49077 0.0
C383 C 1.01042 0.45999 0.53496 0.0
C384 C 0.02511 0.47602 0.5357 0.0
C385 C 0.04064 0.47551 0.49074 0.0
C386 C 0.04146 0.45943 0.44651 0.0
H387 H 0.03828 0.38362 0.48959 0.0
H388 H 0.0411 0.41022 0.51226 0.0
H389 H 0.01596 0.39857 0.50531 0.0
H390 H 0.99953 0.43206 0.49092 0.0
H391 H 0.99815 0.45986 0.5684 0.0
H392 H 0.8077 0.02334 0.02388 0.0
H393 H 0.83584 0.02173 0.94873 0.0
H394 H 0.87982 0.0172 0.10461 0.0
H395 H 0.85171 0.01857 0.17934 0.0
H396 H 0.86899 0.04727 0.93273 0.0
H397 H 0.89748 0.96999 0.99525 0.0
H398 H 0.87305 0.97935 0.02079 0.0
H399 H 0.89652 0.98682 0.06225 0.0
C400 C 0.82338 0.02182 0.04189 0.0
C401 C 0.82752 0.0209 0.10739 0.0
C402 C 0.83949 0.02095 0.99893 0.0
C403 C 0.8601 0.01898 0.02049 0.0
C404 C 0.86414 0.01819 0.08623 0.0
H405 H 0.98157 0.0179 0.85819 0.0
H406 H 0.95155 0.01708 0.9248 0.0
C407 C 0.84805 0.01908 0.12908 0.0
C408 C 0.87738 0.01839 0.97466 0.0
H409 H 0.91914 0.99044 0.93148 0.0
C410 C 0.87983 0.03474 0.93215 0.0
C411 C 0.89168 1.00208 0.97337 0.0
C412 C 0.88948 0.98346 0.01489 0.0
C413 C 0.89638 0.03556 0.89036 0.0
C414 C 0.91084 0.01938 0.88973 0.0
C415 C 0.90822 1.00291 0.93166 0.0
C416 C 0.92913 0.01953 0.84764 0.0
C417 C 0.8986 0.05416 0.84881 0.0
C418 C 0.9268 0.02079 0.78134 0.0
C419 C 0.94409 0.02128 0.74273 0.0
C420 C 0.9642 0.02043 0.76932 0.0
C421 C 0.96643 0.01871 0.83561 0.0
C422 C 0.94918 0.0182 0.87404 0.0
H423 H 0.8897 0.06736 0.86635 0.0
H424 H 0.91499 0.0589 0.84588 0.0
H425 H 0.8927 0.05041 0.80038 0.0
H426 H 0.91159 0.02134 0.75924 0.0
H427 H 0.94166 0.0225 0.69204 0.0
H428 H 0.56446 0.84855 0.13459 0.0
H429 H 0.56298 0.87706 0.05886 0.0
H430 H 0.50079 0.85962 1.00428 0.0
H431 H 0.50222 0.83128 0.08073 0.0
H432 H 0.5562 0.87746 0.92884 0.0
H433 H 0.495 0.92023 0.04836 0.0
H434 H 0.50864 0.8993 0.08567 0.0
H435 H 0.48817 0.8942 0.02864 0.0
C436 C 0.5505 0.85088 0.10634 0.0
C437 C 0.53342 0.83791 0.11344 0.0
C438 C 0.54967 0.86711 0.06305 0.0
C439 C 0.53167 0.87073 0.02638 0.0
C440 C 0.5147 0.85744 0.03282 0.0
H441 H 0.52069 0.95132 0.69609 0.0
H442 H 0.52329 0.92169 0.76679 0.0
C443 C 0.51555 0.8412 0.07618 0.0
C444 C 0.53072 0.8884 0.9817 0.0
H445 H 0.50491 0.93278 0.94872 0.0
C446 C 0.54497 0.88955 0.93317 0.0
C447 C 0.51628 0.90437 0.98778 0.0
C448 C 0.50127 0.90465 0.04073 0.0
C449 C 0.54501 0.90605 0.89028 0.0
C450 C 0.53022 0.92173 0.89541 0.0
C451 C 0.51613 0.92069 0.94434 0.0
C452 C 0.52936 0.93964 0.85161 0.0
C453 C 0.56119 0.90678 0.84075 0.0
C454 C 0.53165 0.95965 0.87558 0.0
C455 C 0.53008 0.97663 0.83535 0.0
C456 C 0.52604 0.97402 0.77003 0.0
C457 C 0.52392 0.95393 0.74598 0.0
C458 C 0.52549 0.93694 0.78637 0.0
H459 H 0.57433 0.8966 0.85286 0.0
H460 H 0.55428 0.90158 0.7948 0.0
H461 H 0.56713 0.92265 0.83473 0.0
H462 H 0.53462 0.96216 0.92567 0.0
H463 H 0.53188 0.99182 0.85571 0.0
H464 H 0.67647 0.53681 0.23402 0.0
H465 H 0.64801 0.53527 0.15483 0.0
H466 H 0.69063 0.54851 0.00774 0.0
H467 H 0.71908 0.54972 0.08689 0.0
H468 H 0.63375 0.56511 0.07182 0.0
H469 H 0.66091 0.49755 0.93929 0.0
H470 H 0.67143 0.5046 0.01628 0.0
H471 H 0.6796 0.51789 0.94692 0.0
C472 C 0.67967 0.53929 0.18467 0.0
C473 C 0.69982 0.54327 0.16608 0.0
C474 C 0.66346 0.53845 0.13955 0.0
C475 C 0.66719 0.54146 0.07514 0.0
C476 C 0.68741 0.54569 0.05687 0.0
H477 H 0.59163 0.54387 0.72977 0.0
H478 H 0.61918 0.54636 0.81071 0.0
C479 C 0.70361 0.54651 0.10201 0.0
C480 C 0.64991 0.54056 0.02734 0.0
H481 H 0.63281 0.51574 0.89302 0.0
C482 C 0.63348 0.55424 0.0329 0.0
C483 C 0.64955 0.52638 0.97653 0.0
C484 C 0.66621 0.51063 0.96953 0.0
C485 C 0.61697 0.55442 0.98837 0.0
C486 C 0.61668 0.54032 0.93739 0.0
C487 C 0.63306 0.52659 0.93197 0.0
C488 C 0.5996 0.53956 0.88889 0.0
C489 C 0.60021 0.57005 0.99544 0.0
C490 C 0.57938 0.53484 0.90577 0.0
C491 C 0.56354 0.53342 0.85951 0.0
C492 C 0.56761 0.53659 0.79532 0.0
C493 C 0.58788 0.5414 0.77868 0.0
C494 C 0.60369 0.54279 0.82493 0.0
H495 H 0.60526 0.58294 0.02686 0.0
H496 H 0.59528 0.57638 0.94878 0.0
H497 H 0.58668 0.56257 0.01659 0.0
H498 H 0.5759 0.53188 0.95464 0.0
H499 H 0.54816 0.52956 0.87403 0.0
H500 H 0.04346 0.71719 0.11672 0.0
H501 H 0.04378 0.68949 0.03759 0.0
H502 H 0.98695 0.66551 0.10847 0.0
H503 H 0.98654 0.69337 0.18688 0.0
H504 H 0.04533 0.64801 0.05287 0.0
H505 H 0.97352 0.66785 0.9203 0.0
H506 H 0.98594 0.68517 0.97643 0.0
H507 H 0.96997 0.6645 1.00341 0.0
C508 C 0.03099 0.70605 0.11493 0.0
C509 C 0.01492 0.70742 0.1575 0.0
C510 C 0.03118 0.6902 0.06983 0.0
C511 C 0.01524 0.67547 0.0661 0.0
C512 C 0.99921 0.67686 0.10912 0.0
H513 H 0.02148 0.55516 0.88221 0.0
H514 H 0.02066 0.58373 0.95725 0.0
C515 C 0.99903 0.69271 0.15422 0.0
C516 C 0.01571 0.65836 0.0186 0.0
H517 H 0.98813 0.63546 0.89684 0.0
C518 C 0.03283 0.64533 0.01868 0.0
C519 C 0.99958 0.65491 0.97309 0.0
C520 C 0.9813 0.66895 0.96768 0.0
C521 C 0.03409 0.62885 0.9757 0.0
C522 C 0.01761 0.62493 0.93176 0.0
C523 C 1.00068 0.63821 0.93082 0.0
C524 C 0.01778 0.60734 0.8859 0.0
C525 C 0.0533 0.61603 0.97703 0.0
C526 C 0.0158 0.61083 0.82045 0.0
C527 C 0.0161 0.59445 0.77725 0.0
C528 C 0.01827 0.57407 0.79835 0.0
C529 C 0.01993 0.57059 0.86398 0.0
C530 C 0.01961 0.58699 0.90712 0.0
H531 H 0.06653 0.62433 1.00006 0.0
H532 H 0.05051 0.60185 1.00449 0.0
H533 H 0.05757 0.61154 0.92855 0.0
H534 H 0.01426 0.62632 0.80262 0.0
H535 H 0.01473 0.5978 0.72721 0.0
H536 H 0.0992 0.25512 0.15067 0.0
H537 H 0.10634 0.23008 0.2346 0.0
H538 H 0.04872 0.24503 0.31867 0.0
H539 H 0.04222 0.27064 0.23778 0.0
H540 H 0.07432 0.22819 0.40477 0.0
H541 H 0.07225 0.18112 0.18365 0.0
H542 H 0.09376 0.1982 0.19587 0.0
H543 H 0.0684 0.20837 0.18148 0.0
C544 C 0.08868 0.25377 0.18917 0.0
C545 C 0.06993 0.26436 0.18718 0.0
C546 C 0.09266 0.23936 0.23672 0.0
C547 C 0.07756 0.23498 0.28087 0.0
C548 C 0.06047 0.2479 0.28451 0.0
H549 H 1.00279 0.13746 0.34784 0.0
H550 H 0.0245 0.16613 0.31547 0.0
C551 C 0.05674 0.26261 0.23811 0.0
C552 C 0.07645 0.21474 0.31228 0.0
H553 H 0.06405 0.16499 0.27648 0.0
C554 C 0.07259 0.2142 0.37722 0.0
C555 C 0.07413 0.19649 0.27591 0.0
C556 C 0.07722 0.19595 0.20539 0.0
C557 C 0.06446 0.19653 0.40535 0.0
C558 C 0.06076 0.17886 0.3677 0.0
C559 C 0.06673 0.17873 0.3047 0.0
C560 C 0.04794 0.16153 0.38901 0.0
C561 C 0.05828 0.1975 0.47344 0.0
C562 C 0.05395 0.14946 0.44093 0.0
C563 C 0.0414 0.13324 0.45986 0.0
C564 C 0.02285 0.12871 0.42653 0.0
C565 C 0.01703 0.14062 0.37409 0.0
C566 C 0.02942 0.15696 0.35571 0.0
H567 H 0.05924 0.21334 0.49284 0.0
H568 H 0.04232 0.19166 0.47827 0.0
H569 H 0.06867 0.18767 0.50258 0.0
H570 H 0.06837 0.15243 0.46634 0.0
H571 H 0.04637 0.124 0.49989 0.0
H572 H 0.26645 0.98185 0.2456 0.0
H573 H 0.27863 0.96033 0.33434 0.0
H574 H 0.33299 0.99846 0.35552 0.0
H575 H 0.3209 0.01985 0.2681 0.0
H576 H 0.31423 0.9381 0.33427 0.0
H577 H 0.31792 0.99028 0.53809 0.0
H578 H 0.3016 0.99518 0.46911 0.0
H579 H 0.32821 1.00335 0.47159 0.0
C580 C 0.28076 0.98583 0.27042 0.0
C581 C 0.29285 1.00239 0.25003 0.0
C582 C 0.28766 0.97357 0.32092 0.0
C583 C 0.30651 0.97802 0.35231 0.0
C584 C 0.31814 0.99503 0.3332 0.0
H585 H 0.41445 0.94193 0.40209 0.0
H586 H 0.37812 0.93878 0.37866 0.0
C587 C 0.31137 1.0071 0.2827 0.0
C588 C 0.31587 0.96374 0.39893 0.0
H589 H 0.34779 0.96688 0.52878 0.0
C590 C 0.32097 0.944 0.37825 0.0
C591 C 0.324 0.97094 0.45762 0.0
C592 C 0.3174 0.99103 0.48562 0.0
C593 C 0.33658 0.93285 0.40945 0.0
C594 C 0.34752 0.94198 0.46118 0.0
C595 C 0.3399 0.96003 0.48794 0.0
C596 C 0.36926 0.93673 0.47638 0.0
C597 C 0.34236 0.91223 0.38342 0.0
C598 C 0.37675 0.9359 0.53927 0.0
C599 C 0.39788 0.93775 0.55304 0.0
C600 C 0.41181 0.94073 0.50412 0.0
C601 C 0.40437 0.93942 0.44117 0.0
C602 C 0.38338 0.9375 0.42753 0.0
H603 H 0.32831 0.90343 0.36865 0.0
H604 H 0.3516 0.91443 0.34071 0.0
H605 H 0.35137 0.9031 0.41859 0.0
H606 H 0.36617 0.93536 0.5778 0.0
H607 H 0.40313 0.93827 0.60208 0.0
H608 H 0.53141 0.28814 0.2536 0.0
H609 H 0.5533 0.30781 0.32797 0.0
H610 H 0.60025 0.31207 0.18891 0.0
H611 H 0.57807 0.29288 0.11355 0.0
H612 H 0.59462 0.31075 0.38137 0.0
H613 H 0.57661 0.37017 0.19921 0.0
H614 H 0.56445 0.34525 0.19746 0.0
H615 H 0.59054 0.34823 0.17313 0.0
C616 C 0.54675 0.29252 0.23985 0.0
C617 C 0.55297 0.28937 0.17768 0.0
C618 C 0.55926 0.30375 0.28238 0.0
C619 C 0.57815 0.3118 0.26326 0.0
C620 C 0.58555 0.30628 0.20404 0.0
H621 H 0.61683 0.43086 0.40796 0.0
H622 H 0.62204 0.3973 0.36032 0.0
C623 C 0.57292 0.29531 0.16116 0.0
C624 C 0.58757 0.32913 0.29923 0.0
H625 H 0.59155 0.38124 0.29418 0.0
C626 C 0.59437 0.32615 0.3621 0.0
C627 C 0.58714 0.34921 0.27392 0.0
C628 C 0.57918 0.35356 0.20746 0.0
C629 C 0.60008 0.34288 0.40108 0.0
C630 C 0.59853 0.36301 0.37666 0.0
C631 C 0.59286 0.3658 0.31281 0.0
C632 C 0.59977 0.38158 0.4172 0.0
C633 C 0.60726 0.33883 0.46827 0.0
C634 C 0.58611 0.38377 0.4668 0.0
C635 C 0.58331 0.40291 0.49479 0.0
C636 C 0.5938 0.42033 0.47291 0.0
C637 C 0.60854 0.4178 0.42629 0.0
C638 C 0.61152 0.3986 0.39883 0.0
H639 H 0.61522 0.32386 0.47205 0.0
H640 H 0.61783 0.3511 0.48643 0.0
H641 H 0.59371 0.3381 0.49883 0.0
H642 H 0.57653 0.37104 0.481 0.0
H643 H 0.57216 0.40422 0.53155 0.0
H644 H 0.24109 0.48687 0.20848 0.0
H645 H 0.22524 0.50261 0.29954 0.0
H646 H 0.26651 0.55452 0.28738 0.0
H647 H 0.28234 0.53883 0.1952 0.0
H648 H 0.2391 0.5202 0.42068 0.0
H649 H 0.20803 0.57744 0.24747 0.0
H650 H 0.22003 0.55419 0.22152 0.0
H651 H 0.23545 0.57447 0.25615 0.0
C652 C 0.2471 0.50141 0.22619 0.0
C653 C 0.26268 0.51181 0.19449 0.0
C654 C 0.23814 0.51033 0.27834 0.0
C655 C 0.24453 0.52983 0.29946 0.0
C656 C 0.26127 0.53953 0.27127 0.0
H657 H 0.14411 0.59188 0.48887 0.0
H658 H 0.17983 0.58823 0.45644 0.0
C659 C 0.27034 0.53052 0.219 0.0
C660 C 0.23149 0.54078 0.34421 0.0
H661 H 0.19128 0.57399 0.34257 0.0
C662 C 0.22902 0.53241 0.4045 0.0
C663 C 0.21849 0.55682 0.3231 0.0
C664 C 0.22046 0.56631 0.25852 0.0
C665 C 0.21276 0.53849 0.44214 0.0
C666 C 0.19847 0.55295 0.41806 0.0
C667 C 0.20219 0.5628 0.36066 0.0
C668 C 0.17791 0.55527 0.44512 0.0
C669 C 0.21043 0.5286 0.50587 0.0
C670 C 0.16497 0.53801 0.44853 0.0
C671 C 0.14465 0.54006 0.46616 0.0
C672 C 0.13672 0.55945 0.48055 0.0
C673 C 0.14973 0.57676 0.47763 0.0
C674 C 0.17017 0.57468 0.45978 0.0
H675 H 0.22569 0.5247 0.52743 0.0
H676 H 0.20224 0.53874 0.53878 0.0
H677 H 0.20152 0.51409 0.49994 0.0
H678 H 0.17035 0.52299 0.43511 0.0
H679 H 0.13494 0.52648 0.46645 0.0
H680 H 0.9469 0.79826 0.15531 0.0
H681 H 0.93816 0.81961 0.0635 0.0
H682 H 0.99677 0.80523 0.9843 0.0
H683 H 1.00482 0.7832 0.07353 0.0
H684 H 0.95857 0.85194 0.05632 0.0
H685 H 0.96692 0.8162 0.825 0.0
H686 H 0.96292 0.80086 0.89463 0.0
H687 H 0.9886 0.80811 0.87221 0.0
C688 C 0.95735 0.79889 0.11645 0.0
C689 C 0.97658 0.78933 0.12142 0.0
C690 C 0.95238 0.81105 0.06402 0.0
C691 C 0.9668 0.81419 0.01674 0.0
C692 C 0.98507 0.80279 0.01883 0.0
H693 H 0.03876 0.90472 0.89926 0.0
H694 H 0.0187 0.87367 0.91904 0.0
C695 C 0.98981 0.79028 0.07043 0.0
C696 C 0.96576 0.83282 0.97662 0.0
H697 H 0.98409 0.85107 0.83805 0.0
C698 C 0.96324 0.8517 0.00758 0.0
C699 C 0.97169 0.83275 0.91281 0.0
C700 C 0.97243 0.8133 0.87436 0.0
C701 C 0.96904 0.87018 0.97951 0.0
C702 C 0.97755 0.86972 0.91901 0.0
C703 C 0.97792 0.85124 0.88509 0.0
C704 C 0.98929 0.88749 0.89616 0.0
C705 C 0.96797 0.88983 0.01716 0.0
C706 C 0.97931 0.90534 0.87582 0.0
C707 C 0.99074 0.92311 0.86448 0.0
C708 C 0.01229 0.92329 0.87363 0.0
C709 C 0.02223 0.90507 0.89154 0.0
C710 C 1.01081 0.88732 0.90263 0.0
H711 H 0.96143 0.88741 0.06448 0.0
H712 H 0.9836 0.89667 0.02358 0.0
H713 H 0.95825 0.90107 0.99099 0.0
H714 H 0.96269 0.90567 0.87066 0.0
H715 H 0.98267 0.93679 0.84924 0.0
H716 H 0.73926 0.94691 0.1668 0.0
H717 H 0.716 0.9311 0.08743 0.0
H718 H 0.73055 0.97959 0.95701 0.0
H719 H 0.75427 0.99454 0.03444 0.0
H720 H 0.68463 0.95194 0.07029 0.0
H721 H 0.71047 0.93984 0.83122 0.0
H722 H 0.72858 0.93975 0.89773 0.0
H723 H 0.72268 0.96328 0.85598 0.0
C724 C 0.73835 0.95338 0.11971 0.0
C725 C 0.74816 0.97214 0.10693 0.0
C726 C 0.72507 0.94435 0.0743 0.0
C727 C 0.72112 0.95426 0.01628 0.0
C728 C 0.73336 0.9713 1.00061 0.0
H729 H 0.64238 0.02983 0.87379 0.0
H730 H 0.66877 1.0045 0.89875 0.0
C731 C 0.74692 0.98005 0.04544 0.0
C732 C 0.70086 0.95156 0.98271 0.0
H733 H 0.67895 0.96326 0.83908 0.0
C734 C 0.68326 0.95337 0.01932 0.0
C735 C 0.69868 0.95303 0.91617 0.0
C736 C 0.7162 0.94861 0.87335 0.0
C737 C 0.66455 0.96003 0.9925 0.0
C738 C 0.66347 0.96483 0.9275 0.0
C739 C 0.68005 0.96007 0.88934 0.0
C740 C 0.64751 0.97886 0.90267 0.0
C741 C 0.64688 0.9643 0.03516 0.0
C742 C 0.62686 0.97271 0.89602 0.0
C743 C 0.61169 0.9872 0.88185 0.0
C744 C 0.61699 1.00803 0.87424 0.0
C745 C 0.6378 0.01392 0.87896 0.0
C746 C 0.6529 0.99946 0.89295 0.0
H747 H 0.65042 0.96001 0.08507 0.0
H748 H 0.64304 0.98085 0.03355 0.0
H749 H 0.63306 0.95552 0.01844 0.0
H750 H 0.62245 0.95685 0.90332 0.0
H751 H 0.59582 0.98211 0.87711 0.0
H752 H 0.4711 0.73622 0.13896 0.0
H753 H 0.45358 0.72104 0.04705 0.0
H754 H 0.48857 0.75988 0.92451 0.0
H755 H 0.50764 0.77387 0.01642 0.0
H756 H 0.43066 0.73107 0.94684 0.0
H757 H 0.5073 0.70532 0.86721 0.0
H758 H 0.50436 0.71783 0.94218 0.0
H759 H 0.50354 0.7325 0.87021 0.0
C760 C 0.47521 0.74151 0.0925 0.0
C761 C 0.49138 0.75567 0.08512 0.0
C762 C 0.4649 0.73303 0.03987 0.0
C763 C 0.47022 0.73881 0.97864 0.0
C764 C 0.48471 0.75466 0.97121 0.0
H765 H 0.4493 0.64461 0.69045 0.0
H766 H 0.44897 0.68058 0.72355 0.0
C767 C 0.49543 0.76284 0.02398 0.0
C768 C 0.46237 0.72625 0.92431 0.0
H769 H 0.47842 0.69014 0.82021 0.0
C770 C 0.44108 0.72246 0.91804 0.0
C771 C 0.47595 0.71506 0.88625 0.0
C772 C 0.49905 0.71771 0.89183 0.0
C773 C 0.43321 0.70659 0.87911 0.0
C774 C 0.44696 0.69443 0.84528 0.0
C775 C 0.46794 0.69959 0.84631 0.0
C776 C 0.44108 0.67398 0.81992 0.0
C777 C 0.41042 0.70218 0.87729 0.0
C778 C 0.43607 0.65844 0.86261 0.0
C779 C 0.4368 0.63789 0.84449 0.0
C780 C 0.44249 0.63246 0.78308 0.0
C781 C 0.44539 0.6482 0.73858 0.0
C782 C 0.44495 0.66879 0.7571 0.0
H783 H 0.40152 0.71624 0.88716 0.0
H784 H 0.40524 0.69582 0.83068 0.0
H785 H 0.40692 0.69071 0.91421 0.0
H786 H 0.43347 0.66208 0.9117 0.0
H787 H 0.43468 0.62635 0.88043 0.0
H788 H 0.76678 0.5273 0.06315 0.0
H789 H 0.78128 0.51286 0.9675 0.0
H790 H 0.8121 0.46669 0.0804 0.0
H791 H 0.79682 0.48028 0.17482 0.0
H792 H 0.82011 0.51478 0.95057 0.0
H793 H 0.7996 0.4333 0.92804 0.0
H794 H 0.78541 0.45045 0.97735 0.0
H795 H 0.8082 0.43779 0.00801 0.0
C796 C 0.77596 0.51355 0.06707 0.0
C797 C 0.78095 0.5051 0.12659 0.0
C798 C 0.78429 0.50534 0.01239 0.0
C799 C 0.79769 0.48856 0.0164 0.0
C800 C 0.80143 0.47928 0.07538 0.0
H801 H 0.91253 0.45798 0.92611 0.0
H802 H 0.87681 0.45946 0.95665 0.0
C803 C 0.79298 0.48732 0.12973 0.0
C804 C 0.81091 0.48322 0.9629 0.0
H805 H 0.83542 0.44239 0.89872 0.0
C806 C 0.8229 0.49899 0.93729 0.0
C807 C 0.81456 0.46266 0.94502 0.0
C808 C 0.80103 0.44518 0.96569 0.0
C809 C 0.83975 0.49461 0.90004 0.0
C810 C 0.84471 0.47393 0.8881 0.0
C811 C 0.83168 0.45823 0.90868 0.0
C812 C 0.86508 0.46859 0.86435 0.0
C813 C 0.85325 0.51203 0.87835 0.0
C814 C 0.87013 0.47245 0.80158 0.0
C815 C 0.89061 0.47139 0.78359 0.0
C816 C 0.90635 0.46667 0.82836 0.0
C817 C 0.9009 0.46144 0.89012 0.0
C818 C 0.88045 0.46234 0.90781 0.0
H819 H 0.84769 0.52723 0.89392 0.0
H820 H 0.86924 0.50998 0.89705 0.0
H821 H 0.85368 0.51196 0.82597 0.0
H822 H 0.8584 0.47723 0.7674 0.0
H823 H 0.89422 0.4751 0.7353 0.0
H824 H 1.01034 0.24443 0.98445 0.0
H825 H 1.00612 0.21218 0.92446 0.0
H826 H 0.07138 0.21103 0.89536 0.0
H827 H 0.07565 0.24305 0.95557 0.0
H828 H 0.0442 0.19916 0.7842 0.0
H829 H 0.02824 0.15674 1.00538 0.0
H830 H 0.01325 0.17934 0.98963 0.0
H831 H 0.0404 0.18176 1.00592 0.0
C832 C 0.02367 0.23761 0.96362 0.0
C833 C 0.04331 0.2464 0.97435 0.0
C834 C 0.02129 0.21904 0.92997 0.0
C835 C 0.03847 0.20898 0.90594 0.0
C836 C 0.0579 0.2184 0.91345 0.0
H837 H 0.05481 0.08031 0.79784 0.0
H838 H 0.05816 0.11483 0.84408 0.0
C839 C 0.06031 0.23678 0.94762 0.0
C840 C 0.03653 0.18814 0.87631 0.0
H841 H 0.02729 0.13762 0.91056 0.0
C842 C 0.0404 0.18573 0.81175 0.0
C843 C 0.03193 0.17049 0.91236 0.0
C844 C 0.02834 0.17202 0.98229 0.0
C845 C 0.03948 0.16627 0.78226 0.0
C846 C 0.03458 0.14866 0.81814 0.0
C847 C 0.031 0.15105 0.88289 0.0
C848 C 0.03283 0.12769 0.78916 0.0
C849 C 0.0441 0.16465 0.71301 0.0
C850 C 0.01739 0.12325 0.74324 0.0
C851 C 0.01533 0.10351 0.71712 0.0
C852 C 0.02874 0.0876 0.73581 0.0
C853 C 0.04426 0.0921 0.78183 0.0
C854 C 0.04618 0.11186 0.80847 0.0
H855 H 0.0521 0.17858 0.69572 0.0
H856 H 0.05375 0.15106 0.70388 0.0
H857 H 0.02945 0.1628 0.68521 0.0
H858 H 1.00665 0.13501 0.72821 0.0
H859 H 1.00303 0.10074 0.68256 0.0
H860 H 0.32191 0.99794 0.04675 0.0
H861 H 0.35151 1.00144 0.9794 0.0
H862 H 0.33785 0.06533 0.95117 0.0
H863 H 0.30815 0.06205 0.02029 0.0
H864 H 0.35007 0.04176 0.83627 0.0
H865 H 0.40512 0.03303 0.03976 0.0
H866 H 0.38532 0.01365 0.03371 0.0
H867 H 0.37852 0.03977 0.04937 0.0
C868 C 0.3251 0.01281 0.02639 0.0
C869 C 0.31268 0.0298 0.04023 0.0
C870 C 0.34212 0.01476 0.98766 0.0
C871 C 0.34729 0.03373 0.96094 0.0
C872 C 0.33433 0.05053 0.97152 0.0
H873 H 0.46908 0.05969 0.8047 0.0
H874 H 0.43708 0.06141 0.86279 0.0
C875 C 0.31724 0.04861 0.01082 0.0
C876 C 0.36656 0.03584 0.92386 0.0
H877 H 0.41902 0.03144 0.93749 0.0
C878 C 0.36514 0.03965 0.8585 0.0
C879 C 0.38636 0.03327 0.95256 0.0
C880 C 0.38907 0.02987 0.02279 0.0
C881 C 0.38282 0.04032 0.82113 0.0
C882 C 0.40257 0.03699 0.84952 0.0
C883 C 0.40399 0.03384 0.91523 0.0
C884 C 0.42189 0.03643 0.81205 0.0
C885 C 0.38019 0.04473 0.75147 0.0
C886 C 0.42433 0.02174 0.7641 0.0
C887 C 0.44271 0.02065 0.73091 0.0
C888 C 0.45927 0.03424 0.74452 0.0
C889 C 0.45675 0.04902 0.79236 0.0
C890 C 0.43839 0.05 0.82588 0.0
H891 H 0.36529 0.05233 0.74026 0.0
H892 H 0.39288 0.05464 0.73482 0.0
H893 H 0.38044 0.03007 0.72476 0.0
H894 H 0.41213 0.01078 0.75307 0.0
H895 H 0.44397 1.00897 0.69483 0.0
H896 H 0.48148 0.31658 0.01039 0.0
H897 H 0.47725 0.34747 0.9449 0.0
H898 H 0.54033 0.34302 0.88986 0.0
H899 H 0.54456 0.31225 0.95461 0.0
H900 H 0.50081 0.38396 0.96391 0.0
H901 H 0.50965 0.35408 0.72108 0.0
H902 H 0.50356 0.3377 0.78677 0.0
H903 H 0.52962 0.34611 0.77589 0.0
C904 C 0.49424 0.32187 0.98283 0.0
C905 C 0.51333 0.31193 0.98745 0.0
C906 C 0.49186 0.33961 0.94584 0.0
C907 C 0.50842 0.34752 0.91195 0.0
C908 C 0.52722 0.33709 0.91458 0.0
H909 H 0.54361 0.45554 0.70688 0.0
H910 H 0.53998 0.42204 0.75675 0.0
C911 C 0.52965 0.31952 0.95185 0.0
C912 C 0.50678 0.36754 0.87822 0.0
H913 H 0.51334 0.39033 0.73478 0.0
C914 C 0.50324 0.38535 0.91362 0.0
C915 C 0.51012 0.36938 0.8127 0.0
C916 C 0.51327 0.35079 0.77168 0.0
C917 C 0.50379 0.40496 0.88594 0.0
C918 C 0.50749 0.40685 0.82052 0.0
C919 C 0.51054 0.38897 0.78486 0.0
C920 C 0.50918 0.42724 0.7888 0.0
C921 C 0.50135 0.42351 0.92776 0.0
C922 C 0.49296 0.44135 0.78903 0.0
C923 C 0.49503 0.46069 0.76078 0.0
C924 C 0.51331 0.46629 0.73101 0.0
C925 C 0.52932 0.45189 0.72947 0.0
C926 C 0.52726 0.43264 0.75795 0.0
H927 H 0.50401 0.41977 0.97852 0.0
H928 H 0.51217 0.43597 0.9149 0.0
H929 H 0.48543 0.42934 0.92177 0.0
H930 H 0.47865 0.43743 0.81107 0.0
H931 H 0.4823 0.47126 0.76249 0.0
H932 H 0.25001 0.51692 0.91628 0.0
H933 H 0.21723 0.51743 0.85509 0.0
H934 H 0.19479 0.46699 0.96581 0.0
H935 H 0.22721 0.46688 0.02784 0.0
H936 H 0.19298 0.4898 0.78323 0.0
H937 H 0.15379 0.5118 1.00211 0.0
H938 H 0.18142 0.51153 0.99729 0.0
H939 H 0.16735 0.48802 0.00888 0.0
C940 C 0.23827 0.5056 0.92617 0.0
C941 C 0.24108 0.49187 0.9767 0.0
C942 C 0.21951 0.50597 0.89154 0.0
C943 C 0.20332 0.4926 0.90696 0.0
C944 C 0.20682 0.4778 0.95409 0.0
H945 H 0.07298 0.48392 0.79663 0.0
H946 H 0.10783 0.47741 0.83892 0.0
C947 C 0.22541 0.47758 0.98902 0.0
C948 C 0.1824 0.49503 0.87724 0.0
H949 H 0.1324 0.50477 0.91208 0.0
C950 C 0.17974 0.4931 0.81135 0.0
C951 C 0.16509 0.49949 0.91387 0.0
C952 C 0.16702 0.50304 0.98435 0.0
C953 C 0.16021 0.49511 0.78138 0.0
C954 C 0.14292 0.49938 0.81819 0.0
C955 C 0.1456 0.50131 0.88396 0.0
C956 C 0.12199 0.50261 0.78953 0.0
C957 C 0.15819 0.49235 0.71067 0.0
C958 C 0.1183 0.51903 0.74808 0.0
C959 C 0.09841 0.52285 0.72414 0.0
C960 C 0.08168 0.51037 0.74117 0.0
C961 C 0.08545 0.49382 0.78236 0.0
C962 C 0.10538 0.49008 0.80658 0.0
H963 H 0.17145 0.4839 0.6918 0.0
H964 H 0.14378 0.48396 0.69718 0.0
H965 H 0.15768 0.50765 0.68782 0.0
H966 H 0.13075 0.52918 0.73523 0.0
H967 H 0.09616 0.53576 0.69265 0.0
H968 H 0.03214 0.80611 0.35309 0.0
H969 H 0.03584 0.83711 0.41913 0.0
H970 H 0.9705 0.84709 0.40032 0.0
H971 H 0.96671 0.81607 0.33613 0.0
H972 H 0.02771 0.87615 0.38394 0.0
H973 H 0.97947 0.85738 0.58651 0.0
H974 H 0.98768 0.83812 0.53153 0.0
H975 H 0.96568 0.85378 0.5126 0.0
C976 C 0.0185 0.81457 0.36472 0.0
C977 C 0.99912 0.8085 0.33935 0.0
C978 C 0.02064 0.83244 0.40201 0.0
C979 C 1.00343 0.84451 0.41553 0.0
C980 C 0.98401 0.83799 0.39205 0.0
H981 H 1.00055 0.97578 0.48948 0.0
H982 H 0.99935 0.94113 0.44511 0.0
C983 C 0.98187 0.82024 0.35483 0.0
C984 C 1.00581 0.86466 0.44968 0.0
H985 H 0.98686 0.89315 0.57077 0.0
C986 C 0.01892 0.87974 0.4252 0.0
C987 C 0.99459 0.8695 0.50412 0.0
C988 C 0.98124 0.85376 0.53563 0.0
C989 C 0.02057 0.89955 0.45201 0.0
C990 C 1.00846 0.90475 0.50425 0.0
C991 C 0.99593 0.88943 0.5302 0.0
C992 C 1.0085 0.92596 0.53223 0.0
C993 C 0.03548 0.91465 0.42427 0.0
C994 C 0.0132 0.92917 0.59688 0.0
C995 C 0.01367 0.94908 0.62274 0.0
C996 C 1.00934 0.96632 0.58467 0.0
C997 C 1.00413 0.96299 0.52033 0.0
C998 C 1.00361 0.9431 0.49463 0.0
H999 H 0.04784 0.90672 0.39885 0.0
H1000 H 0.02711 0.92454 0.38969 0.0
H1001 H 0.04272 0.92462 0.46146 0.0
H1002 H 0.01689 0.91629 0.62725 0.0
H1003 H 0.01775 0.95094 0.67245 0.0
H1004 H 0.70328 0.01337 0.20969 0.0
H1005 H 0.67328 0.01712 0.27504 0.0
H1006 H 0.71265 0.01803 0.44257 0.0
H1007 H 0.74303 0.01413 0.37662 0.0
H1008 H 0.66096 0.98898 0.36556 0.0
H1009 H 0.67313 0.06588 0.47471 0.0
H1010 H 0.68665 0.05776 0.4058 0.0
H1011 H 0.69428 0.04839 0.4826 0.0
C1012 C 0.70567 0.01462 0.26045 0.0
C1013 C 0.72568 0.0133 0.28774 0.0
C1014 C 0.68841 0.01675 0.2979 0.0
C1015 C 0.69048 0.01787 0.36406 0.0
C1016 C 0.71051 0.01747 0.39166 0.0
H1017 H 0.59315 0.02446 0.64716 0.0
H1018 H 0.62629 0.02298 0.59501 0.0
C1019 C 0.72793 0.01528 0.3539 0.0
C1020 C 0.67148 0.01806 0.40304 0.0
H1021 H 0.64413 0.04691 0.50647 0.0
C1022 C 0.65735 1.00167 0.39643 0.0
C1023 C 0.66664 0.03446 0.44394 0.0
C1024 C 0.68084 0.05274 0.45213 0.0
C1025 C 0.63872 1.00122 0.42894 0.0
C1026 C 0.63353 0.01791 0.46838 0.0
C1027 C 0.64787 0.03412 0.47618 0.0
C1028 C 0.61317 0.01896 0.50055 0.0
C1029 C 0.62494 0.98258 0.42135 0.0
C1030 C 0.59448 0.01749 0.46535 0.0
C1031 C 0.57546 0.01819 0.49514 0.0
C1032 C 0.57446 0.0206 0.56117 0.0
C1033 C 0.59318 0.02242 0.59635 0.0
C1034 C 0.61223 0.02166 0.56645 0.0
H1035 H 0.63375 0.96887 0.40725 0.0
H1036 H 0.61699 0.97905 0.46577 0.0
H1037 H 0.61312 0.98551 0.38358 0.0
H1038 H 0.59456 0.01597 0.4144 0.0
H1039 H 0.5615 0.01699 0.46609 0.0
H1040 H 0.53658 0.71247 0.21329 0.0
H1041 H 0.53977 0.68358 0.28628 0.0
H1042 H 0.52408 0.723 0.44105 0.0
H1043 H 0.52064 0.75209 0.3676 0.0
H1044 H 0.56433 0.67758 0.39884 0.0
H1045 H 0.48052 0.67617 0.44475 0.0
H1046 H 0.49105 0.69025 0.37972 0.0
H1047 H 0.49383 0.70012 0.45879 0.0
C1048 C 0.53398 0.71505 0.26299 0.0
C1049 C 0.52817 0.73454 0.28458 0.0
C1050 C 0.53585 0.69852 0.3047 0.0
C1051 C 0.53182 0.70098 0.36901 0.0
C1052 C 0.52694 0.72064 0.39143 0.0
H1053 H 0.51797 0.60287 0.65055 0.0
H1054 H 0.52016 0.63653 0.59991 0.0
C1055 C 0.52519 0.73729 0.34959 0.0
C1056 C 0.53206 0.68271 0.41132 0.0
H1057 H 0.50072 0.65068 0.49356 0.0
C1058 C 0.55045 0.67179 0.41998 0.0
C1059 C 0.51398 0.67513 0.43906 0.0
C1060 C 0.49365 0.68587 0.42999 0.0
C1061 C 0.55121 0.65345 0.45497 0.0
C1062 C 0.53297 0.64546 0.48081 0.0
C1063 C 0.5147 0.65671 0.47371 0.0
C1064 C 0.53227 0.62504 0.51267 0.0
C1065 C 0.57164 0.64291 0.46416 0.0
C1066 C 0.53811 0.60723 0.48051 0.0
C1067 C 0.53693 0.58797 0.50937 0.0
C1068 C 0.52964 0.58593 0.57103 0.0
C1069 C 0.52368 0.60377 0.60312 0.0
C1070 C 0.52492 0.62308 0.57418 0.0
H1071 H 0.58468 0.65391 0.46029 0.0
H1072 H 0.57288 0.63525 0.51091 0.0
H1073 H 0.5732 0.63111 0.42678 0.0
H1074 H 0.54329 0.60817 0.43245 0.0
H1075 H 0.54147 0.57463 0.48279 0.0
H1076 H 0.81392 0.49951 0.33043 0.0
H1077 H 0.8446 0.50364 0.39802 0.0
H1078 H 0.82925 0.56692 0.43091 0.0
H1079 H 0.79884 0.56312 0.36001 0.0
H1080 H 0.86824 0.56412 0.40219 0.0
H1081 H 0.85389 0.5059 0.58417 0.0
H1082 H 0.85186 0.49442 0.50726 0.0
H1083 H 0.834 0.51408 0.52877 0.0
C1084 C 0.81695 0.51431 0.35226 0.0
C1085 C 0.80396 0.53104 0.3392 0.0
C1086 C 0.83442 0.51658 0.39179 0.0
C1087 C 0.83919 0.53551 0.42061 0.0
C1088 C 0.82587 0.55211 0.40956 0.0
H1089 H 0.94664 0.53729 0.68271 0.0
H1090 H 0.91163 0.54043 0.63863 0.0
C1091 C 0.80838 0.54988 0.36943 0.0
C1092 C 0.85894 0.53818 0.45771 0.0
H1093 H 0.88958 0.51528 0.57048 0.0
C1094 C 0.87276 0.55363 0.43971 0.0
C1095 C 0.86484 0.52482 0.50762 0.0
C1096 C 0.85024 0.50905 0.5335 0.0
C1097 C 0.89257 0.55543 0.46793 0.0
C1098 C 0.89907 0.54097 0.5141 0.0
C1099 C 0.88488 0.52617 0.5343 0.0
C1100 C 0.92059 0.54049 0.54092 0.0
C1101 C 0.90623 0.57293 0.44799 0.0
C1102 C 0.93745 0.53946 0.50099 0.0
C1103 C 0.95755 0.53797 0.52616 0.0
C1104 C 0.96125 0.537 0.59189 0.0
C1105 C 0.94438 0.53799 0.63185 0.0
C1106 C 0.9243 0.53977 0.60666 0.0
H1107 H 0.89698 0.58621 0.43121 0.0
H1108 H 0.91669 0.57815 0.48735 0.0
H1109 H 0.91566 0.56784 0.40816 0.0
H1110 H 0.93506 0.53928 0.45015 0.0
H1111 H 0.97013 0.53694 0.49397 0.0
loop_
_geom_bond_atom_site_label_1
_geom_bond_atom_site_label_2
_geom_bond_distance
_geom_bond_site_symmetry_2
_ccdc_geom_bond_type
H0 C3 0.929 . S
H1 C6 0.929 . S
H2 C8 0.930 . S
C3 H0 0.929 . S
C3 C4 1.398 . S
C3 C5 1.396 . S
C4 C3 1.398 . S
C4 C8 1.407 . S
C5 C3 1.396 . S
C5 C6 1.394 . S
C6 H1 0.929 . S
C6 C5 1.394 . S
C6 C7 1.382 . S
C7 C6 1.382 . S
C7 C8 1.392 . S
C7 N9 1.420 . S
C8 H2 0.930 . S
C8 C4 1.407 . S
C8 C7 1.392 . S
N9 C7 1.420 . S
N9 C10 1.244 . S
C10 N9 1.244 . S
H11 C14 0.929 . S
H12 C17 0.929 . S
H13 C19 0.930 . S
C14 H11 0.929 . S
C14 C15 1.398 . S
C14 C16 1.396 . S
C15 C14 1.398 . S
C15 C19 1.407 . S
C16 C14 1.396 . S
C16 C17 1.394 . S
C17 H12 0.929 . S
C17 C16 1.394 . S
C17 C18 1.382 . S
C18 C17 1.382 . S
C18 C19 1.392 . S
C18 N20 1.420 . S
C19 H13 0.930 . S
C19 C15 1.407 . S
C19 C18 1.392 . S
N20 C18 1.420 . S
N20 C21 1.244 . S
C21 N20 1.244 . S
H22 C25 0.929 . S
H23 C28 0.929 . S
H24 C30 0.930 . S
C25 H22 0.929 . S
C25 C26 1.398 . S
C25 C27 1.396 . S
C26 C25 1.398 . S
C26 C30 1.407 . S
C27 C25 1.396 . S
C27 C28 1.394 . S
C28 H23 0.929 . S
C28 C27 1.394 . S
C28 C29 1.382 . S
C29 C28 1.382 . S
C29 C30 1.392 . S
C29 N31 1.420 . S
C30 H24 0.930 . S
C30 C26 1.407 . S
C30 C29 1.392 . S
N31 C29 1.420 . S
N31 C32 1.244 . S
C32 N31 1.244 . S
H33 C36 0.929 . S
H34 C39 0.929 . S
H35 C41 0.930 . S
C36 H33 0.929 . S
C36 C37 1.398 . S
C36 C38 1.396 . S
C37 C36 1.398 . S
C37 C41 1.407 . S
C38 C36 1.396 . S
C38 C39 1.394 . S
C39 H34 0.929 . S
C39 C38 1.394 . S
C39 C40 1.382 . S
C40 C39 1.382 . S
C40 C41 1.392 . S
C40 N42 1.420 . S
C41 H35 0.930 . S
C41 C37 1.407 . S
C41 C40 1.392 . S
N42 C40 1.420 . S
N42 C43 1.244 . S
C43 N42 1.244 . S
H44 C47 0.929 . S
H45 C50 0.929 . S
H46 C52 0.930 1_556 S
C47 H44 0.929 . S
C47 C48 1.398 . S
C47 C49 1.396 . S
C48 C47 1.398 . S
C48 C52 1.407 . S
C49 C47 1.396 . S
C49 C50 1.394 . S
C50 H45 0.929 . S
C50 C49 1.394 . S
C50 C51 1.382 . S
C51 C50 1.382 . S
C51 C52 1.392 . S
C51 N53 1.420 . S
C52 H46 0.930 1_554 S
C52 C48 1.407 . S
C52 C51 1.392 . S
N53 C51 1.420 . S
N53 C54 1.244 . S
C54 N53 1.244 . S
H55 C58 0.929 . S
H56 C61 0.929 . S
H57 C63 0.930 . S
C58 H55 0.929 . S
C58 C59 1.398 1_554 S
C58 C60 1.396 . S
C59 C58 1.398 1_556 S
C59 C63 1.407 . S
C60 C58 1.396 . S
C60 C61 1.394 . S
C61 H56 0.929 . S
C61 C60 1.394 . S
C61 C62 1.382 . S
C62 C61 1.382 . S
C62 C63 1.392 1_554 S
C62 N64 1.420 . S
C63 H57 0.930 . S
C63 C59 1.407 . S
C63 C62 1.392 1_556 S
N64 C62 1.420 . S
N64 C65 1.244 . S
C65 N64 1.244 . S
H66 C69 0.929 . S
H67 C72 0.929 . S
H68 C74 0.930 . S
C69 H66 0.929 . S
C69 C70 1.398 . S
C69 C71 1.396 1_556 S
C70 C69 1.398 . S
C70 C74 1.407 . S
C71 C69 1.396 1_554 S
C71 C72 1.394 . S
C72 H67 0.929 . S
C72 C71 1.394 . S
C72 C73 1.382 . S
C73 C72 1.382 . S
C73 C74 1.392 1_554 S
C73 N75 1.420 . S
C74 H68 0.930 . S
C74 C70 1.407 . S
C74 C73 1.392 1_556 S
N75 C73 1.420 . S
N75 C76 1.244 . S
C76 N75 1.244 . S
H77 C80 0.929 . S
H78 C83 0.929 . S
H79 C85 0.930 1_556 S
C80 H77 0.929 . S
C80 C81 1.398 1_554 S
C80 C82 1.396 . S
C81 C80 1.398 1_556 S
C81 C85 1.407 1_556 S
C82 C80 1.396 . S
C82 C83 1.394 . S
C83 H78 0.929 . S
C83 C82 1.394 . S
C83 C84 1.382 . S
C84 C83 1.382 . S
C84 C85 1.392 . S
C84 N86 1.420 . S
C85 H79 0.930 1_554 S
C85 C81 1.407 1_554 S
C85 C84 1.392 . S
N86 C84 1.420 . S
N86 C87 1.244 . S
C87 N86 1.244 . S
Eu88 C97 2.828 . S
Eu88 O99 2.392 . S
Eu88 O101 2.418 1_545 S
Eu88 O106 2.373 1_655 S
Eu88 O109 2.488 . S
Eu88 O110 2.471 1_655 S
Eu88 O111 2.349 1_655 S
Eu89 O98 2.371 1_465 S
Eu89 O102 2.488 . S
Eu89 O103 2.471 . S
Eu89 O104 2.349 . S
Eu89 O107 2.392 1_565 S
Eu89 O108 2.418 1_565 S
Eu89 C118 2.828 . S
C90 O108 1.244 . S
C90 O111 1.265 . S
C91 C92 1.379 . S
C91 C95 1.373 1_455 S
C91 C97 1.505 1_455 S
C92 C91 1.379 . S
C92 C94 1.369 . S
C92 H120 0.930 . S
C93 C95 1.383 . S
C93 C96 1.382 1_655 S
C93 H121 0.930 . S
C94 C92 1.369 . S
C94 C96 1.392 . S
C94 H122 0.930 . S
C95 C91 1.373 1_655 S
C95 C93 1.383 . S
C95 H123 0.931 . S
C96 C93 1.382 1_455 S
C96 C94 1.392 . S
C97 Eu88 2.828 . S
C97 C91 1.505 1_655 S
C97 O109 1.249 . S
C97 O110 1.244 1_655 S
O98 Eu89 2.371 1_645 S
O98 C100 1.260 . S
O99 Eu88 2.392 . S
O99 C100 1.242 . S
C100 O98 1.260 . S
C100 O99 1.242 . S
O101 Eu88 2.418 1_565 S
O101 C105 1.244 . S
O102 Eu89 2.488 . S
O102 C118 1.249 . S
O103 Eu89 2.471 . S
O103 C118 1.244 . S
O104 Eu89 2.349 . S
O104 C105 1.265 1_455 S
C105 O101 1.244 . S
C105 O104 1.265 1_655 S
O106 Eu88 2.373 1_455 S
O106 C119 1.258 . S
O107 Eu89 2.392 1_545 S
O107 C119 1.242 . S
O108 Eu89 2.418 1_545 S
O108 C90 1.244 . S
O109 Eu88 2.488 . S
O109 C97 1.249 . S
O110 Eu88 2.471 1_455 S
O110 C97 1.244 1_455 S
O111 Eu88 2.349 1_455 S
O111 C90 1.265 . S
C112 C113 1.379 . S
C112 C116 1.373 . S
C112 C118 1.505 . S
C113 C112 1.379 . S
C113 C115 1.369 1_455 S
C113 H124 0.930 1_455 S
C114 C116 1.383 . S
C114 C117 1.382 . S
C114 H125 0.930 1_556 S
C115 C113 1.369 1_655 S
C115 C117 1.392 1_655 S
C115 H126 0.930 . S
C116 C112 1.373 . S
C116 C114 1.383 . S
C116 H127 0.931 . S
C117 C114 1.382 . S
C117 C115 1.392 1_455 S
C118 Eu89 2.828 . S
C118 O102 1.249 . S
C118 O103 1.244 . S
C118 C112 1.505 . S
C119 O106 1.258 . S
C119 O107 1.242 . S
H120 C92 0.930 . S
H121 C93 0.930 . S
H122 C94 0.930 . S
H123 C95 0.931 . S
H124 C113 0.930 1_655 S
H125 C114 0.930 1_554 S
H126 C115 0.930 . S
H127 C116 0.931 . S
Eu128 C137 2.828 . S
Eu128 O139 2.392 . S
Eu128 O141 2.418 . S
Eu128 O146 2.373 . S
Eu128 O149 2.488 . S
Eu128 O150 2.471 . S
Eu128 O151 2.349 1_545 S
Eu129 O138 2.373 1_565 S
Eu129 O142 2.488 . S
Eu129 O143 2.471 1_565 S
Eu129 O144 2.349 1_565 S
Eu129 O147 2.392 . S
Eu129 O148 2.418 . S
Eu129 C158 2.828 . S
C130 O148 1.244 . S
C130 O151 1.265 . S
C131 C132 1.379 . S
C131 C135 1.373 . S
C131 C137 1.505 . S
C132 C131 1.379 . S
C132 C134 1.369 . S
C132 H160 0.930 1_545 S
C133 C135 1.383 . S
C133 C136 1.382 . S
C133 H161 0.930 . S
C134 C132 1.369 . S
C134 C136 1.392 . S
C134 H162 0.930 1_545 S
C135 C131 1.373 . S
C135 C133 1.383 . S
C135 H163 0.931 . S
C136 C133 1.382 . S
C136 C134 1.392 . S
C137 Eu128 2.828 . S
C137 C131 1.505 . S
C137 O149 1.249 . S
C137 O150 1.244 . S
O138 Eu129 2.373 1_545 S
O138 C140 1.258 . S
O139 Eu128 2.392 . S
O139 C140 1.242 . S
C140 O138 1.258 . S
C140 O139 1.242 . S
O141 Eu128 2.418 . S
O141 C145 1.244 . S
O142 Eu129 2.488 . S
O142 C158 1.249 . S
O143 Eu129 2.471 1_545 S
O143 C158 1.244 1_545 S
O144 Eu129 2.349 1_545 S
O144 C145 1.265 . S
C145 O141 1.244 . S
C145 O144 1.265 . S
O146 Eu128 2.373 . S
O146 C159 1.228 1_545 S
O147 Eu129 2.392 . S
O147 C159 1.261 . S
O148 Eu129 2.418 . S
O148 C130 1.244 . S
O149 Eu128 2.488 . S
O149 C137 1.249 . S
O150 Eu128 2.471 . S
O150 C137 1.244 . S
O151 Eu128 2.349 1_565 S
O151 C130 1.265 . S
C152 C153 1.379 1_565 S
C152 C156 1.373 . S
C152 C158 1.505 . S
C153 C152 1.379 1_545 S
C153 C155 1.369 . S
C153 H164 0.930 . S
C154 C156 1.383 . S
C154 C157 1.382 1_565 S
C154 H165 0.930 . S
C155 C153 1.369 . S
C155 C157 1.392 . S
C155 H166 0.930 . S
C156 C152 1.373 . S
C156 C154 1.383 . S
C156 H167 0.931 . S
C157 C154 1.382 1_545 S
C157 C155 1.392 . S
C158 Eu129 2.828 . S
C158 O142 1.249 . S
C158 O143 1.244 1_565 S
C158 C152 1.505 . S
C159 O146 1.228 1_565 S
C159 O147 1.261 . S
H160 C132 0.930 1_565 S
H161 C133 0.930 . S
H162 C134 0.930 1_565 S
H163 C135 0.931 . S
H164 C153 0.930 . S
H165 C154 0.930 . S
H166 C155 0.930 . S
H167 C156 0.931 . S
Eu168 C177 2.828 . S
Eu168 O179 2.392 . S
Eu168 O181 2.418 . S
Eu168 O186 2.373 . S
Eu168 O189 2.488 . S
Eu168 O190 2.471 . S
Eu168 O191 2.349 . S
Eu169 O178 2.373 . S
Eu169 O182 2.488 . S
Eu169 O183 2.471 . S
Eu169 O184 2.349 . S
Eu169 O187 2.392 . S
Eu169 O188 2.418 . S
Eu169 C198 2.828 . S
C170 O188 1.244 . S
C170 O191 1.265 . S
C171 C172 1.379 . S
C171 C175 1.373 . S
C171 C177 1.505 . S
C172 C171 1.379 . S
C172 C174 1.369 . S
C172 H200 0.930 . S
C173 C175 1.383 . S
C173 C176 1.382 . S
C173 H201 0.930 . S
C174 C172 1.369 . S
C174 C176 1.392 . S
C174 H202 0.930 . S
C175 C171 1.373 . S
C175 C173 1.383 . S
C175 H203 0.931 . S
C176 C173 1.382 . S
C176 C174 1.392 . S
C177 Eu168 2.828 . S
C177 C171 1.505 . S
C177 O189 1.249 . S
C177 O190 1.244 . S
O178 Eu169 2.373 . S
O178 C180 1.258 . S
O179 Eu168 2.392 . S
O179 C180 1.242 . S
C180 O178 1.258 . S
C180 O179 1.242 . S
O181 Eu168 2.418 . S
O181 C185 1.244 . S
O182 Eu169 2.488 . S
O182 C198 1.249 . S
O183 Eu169 2.471 . S
O183 C198 1.244 . S
O184 Eu169 2.349 . S
O184 C185 1.265 . S
C185 O181 1.244 . S
C185 O184 1.265 . S
O186 Eu168 2.373 . S
O186 C199 1.258 . S
O187 Eu169 2.392 . S
O187 C199 1.242 . S
O188 Eu169 2.418 . S
O188 C170 1.244 . S
O189 Eu168 2.488 . S
O189 C177 1.249 . S
O190 Eu168 2.471 . S
O190 C177 1.244 . S
O191 Eu168 2.349 . S
O191 C170 1.265 . S
C192 C193 1.379 . S
C192 C196 1.373 . S
C192 C198 1.505 . S
C193 C192 1.379 . S
C193 C195 1.369 . S
C193 H204 0.930 . S
C194 C196 1.383 . S
C194 C197 1.382 . S
C194 H205 0.930 . S
C195 C193 1.369 . S
C195 C197 1.392 . S
C195 H206 0.930 . S
C196 C192 1.373 . S
C196 C194 1.383 . S
C196 H207 0.931 . S
C197 C194 1.382 . S
C197 C195 1.392 . S
C198 Eu169 2.828 . S
C198 O182 1.249 . S
C198 O183 1.244 . S
C198 C192 1.505 . S
C199 O186 1.258 . S
C199 O187 1.242 . S
H200 C172 0.930 . S
H201 C173 0.930 . S
H202 C174 0.930 . S
H203 C175 0.931 . S
H204 C193 0.930 . S
H205 C194 0.930 . S
H206 C195 0.930 . S
H207 C196 0.931 . S
Eu208 C217 2.828 . S
Eu208 O219 2.392 . S
Eu208 O221 2.418 1_455 S
Eu208 O226 2.373 . S
Eu208 O229 2.488 . S
Eu208 O230 2.471 . S
Eu208 O231 2.349 . S
Eu209 O218 2.373 . S
Eu209 O222 2.488 . S
Eu209 O223 2.471 . S
Eu209 O224 2.349 . S
Eu209 O227 2.392 1_655 S
Eu209 O228 2.418 1_655 S
Eu209 C238 2.828 . S
C210 O228 1.244 . S
C210 O231 1.265 . S
C211 C212 1.379 . S
C211 C215 1.373 . S
C211 C217 1.505 . S
C212 C211 1.379 . S
C212 C214 1.369 . S
C212 H240 0.930 . S
C213 C215 1.383 . S
C213 C216 1.382 . S
C213 H241 0.930 . S
C214 C212 1.369 . S
C214 C216 1.392 . S
C214 H242 0.930 . S
C215 C211 1.373 . S
C215 C213 1.383 . S
C215 H243 0.931 . S
C216 C213 1.382 . S
C216 C214 1.392 . S
C217 Eu208 2.828 . S
C217 C211 1.505 . S
C217 O229 1.249 . S
C217 O230 1.244 . S
O218 Eu209 2.373 . S
O218 C220 1.258 1_655 S
O219 Eu208 2.392 . S
O219 C220 1.242 . S
C220 O218 1.258 1_455 S
C220 O219 1.242 . S
O221 Eu208 2.418 1_655 S
O221 C225 1.244 . S
O222 Eu209 2.488 . S
O222 C238 1.249 . S
O223 Eu209 2.471 . S
O223 C238 1.244 . S
O224 Eu209 2.349 . S
O224 C225 1.265 . S
C225 O221 1.244 . S
C225 O224 1.265 . S
O226 Eu208 2.373 . S
O226 C239 1.258 . S
O227 Eu209 2.392 1_455 S
O227 C239 1.242 . S
O228 Eu209 2.418 1_455 S
O228 C210 1.244 . S
O229 Eu208 2.488 . S
O229 C217 1.249 . S
O230 Eu208 2.471 . S
O230 C217 1.244 . S
O231 Eu208 2.349 . S
O231 C210 1.265 . S
C232 C233 1.379 . S
C232 C236 1.373 . S
C232 C238 1.505 . S
C233 C232 1.379 . S
C233 C235 1.369 . S
C233 H244 0.930 . S
C234 C236 1.383 . S
C234 C237 1.382 . S
C234 H245 0.930 . S
C235 C233 1.369 . S
C235 C237 1.392 . S
C235 H246 0.930 . S
C236 C232 1.373 . S
C236 C234 1.383 . S
C236 H247 0.931 . S
C237 C234 1.382 . S
C237 C235 1.392 . S
C238 Eu209 2.828 . S
C238 O222 1.249 . S
C238 O223 1.244 . S
C238 C232 1.505 . S
C239 O226 1.258 . S
C239 O227 1.242 . S
H240 C212 0.930 . S
H241 C213 0.930 . S
H242 C214 0.930 . S
H243 C215 0.931 . S
H244 C233 0.930 . S
H245 C234 0.930 . S
H246 C235 0.930 . S
H247 C236 0.931 . S
H248 C256 0.929 . S
H249 C258 0.930 . S
H250 C260 0.930 . S
H251 C263 0.929 . S
H252 C266 0.930 . S
H253 C268 0.960 1_565 S
H254 C268 0.960 1_565 S
H255 C268 0.960 . S
C256 H248 0.929 . S
C256 C257 1.377 . S
C256 C258 1.384 . S
C257 C256 1.377 . S
C257 C263 1.390 . S
C258 H249 0.930 . S
C258 C256 1.384 . S
C258 C259 1.372 . S
C259 C258 1.372 . S
C259 C260 1.400 . S
C259 C264 1.490 . S
C260 H250 0.930 . S
C260 C259 1.400 . S
C260 C263 1.386 . S
H261 C277 0.930 . S
H262 C278 0.931 . S
C263 H251 0.929 . S
C263 C257 1.390 . S
C263 C260 1.386 . S
C264 C259 1.490 . S
C264 C266 1.395 . S
C264 C267 1.403 . S
H265 C271 0.930 . S
C266 H252 0.930 . S
C266 C264 1.395 . S
C266 C269 1.403 . S
C267 C264 1.403 . S
C267 C268 1.524 . S
C267 C271 1.400 . S
C268 H253 0.960 1_545 S
C268 H254 0.960 1_545 S
C268 H255 0.960 . S
C268 C267 1.524 . S
C269 C266 1.403 . S
C269 C270 1.392 . S
C269 C273 1.495 . S
C270 C269 1.392 . S
C270 C271 1.385 . S
C270 C272 1.478 . S
C271 H265 0.930 . S
C271 C267 1.400 . S
C271 C270 1.385 . S
C272 C270 1.478 . S
C272 C274 1.381 . S
C272 C278 1.383 . S
C273 C269 1.495 . S
C273 H279 0.959 . S
C273 H280 0.961 . S
C273 H281 0.960 . S
C274 C272 1.381 . S
C274 C275 1.394 . S
C274 H282 0.930 . S
C275 C274 1.394 . S
C275 C276 1.383 . S
C275 H283 0.929 . S
C276 C275 1.383 . S
C276 C277 1.377 . S
C277 H261 0.930 . S
C277 C276 1.377 . S
C277 C278 1.379 . S
C278 H262 0.931 . S
C278 C272 1.383 . S
C278 C277 1.379 . S
H279 C273 0.959 . S
H280 C273 0.961 . S
H281 C273 0.960 . S
H282 C274 0.930 . S
H283 C275 0.929 . S
H284 C292 0.929 . S
H285 C294 0.930 . S
H286 C296 0.930 . S
H287 C299 0.929 . S
H288 C302 0.930 . S
H289 C304 0.960 . S
H290 C304 0.960 . S
H291 C304 0.960 . S
C292 H284 0.929 . S
C292 C293 1.377 . S
C292 C294 1.384 . S
C293 C292 1.377 . S
C293 C299 1.390 . S
C294 H285 0.930 . S
C294 C292 1.384 . S
C294 C295 1.372 . S
C295 C294 1.372 . S
C295 C296 1.400 . S
C295 C300 1.490 . S
C296 H286 0.930 . S
C296 C295 1.400 . S
C296 C299 1.386 . S
H297 C313 0.930 . S
H298 C314 0.931 . S
C299 H287 0.929 . S
C299 C293 1.390 . S
C299 C296 1.386 . S
C300 C295 1.490 . S
C300 C302 1.395 . S
C300 C303 1.403 . S
H301 C307 0.930 . S
C302 H288 0.930 . S
C302 C300 1.395 . S
C302 C305 1.403 . S
C303 C300 1.403 . S
C303 C304 1.524 . S
C303 C307 1.400 . S
C304 H289 0.960 . S
C304 H290 0.960 . S
C304 H291 0.960 . S
C304 C303 1.524 . S
C305 C302 1.403 . S
C305 C306 1.392 . S
C305 C309 1.495 . S
C306 C305 1.392 . S
C306 C307 1.385 . S
C306 C308 1.478 . S
C307 H301 0.930 . S
C307 C303 1.400 . S
C307 C306 1.385 . S
C308 C306 1.478 . S
C308 C310 1.381 . S
C308 C314 1.383 . S
C309 C305 1.495 . S
C309 H315 0.959 . S
C309 H316 0.961 . S
C309 H317 0.960 . S
C310 C308 1.381 . S
C310 C311 1.394 . S
C310 H318 0.930 . S
C311 C310 1.394 . S
C311 C312 1.383 . S
C311 H319 0.929 . S
C312 C311 1.383 . S
C312 C313 1.377 . S
C313 H297 0.930 . S
C313 C312 1.377 . S
C313 C314 1.379 . S
C314 H298 0.931 . S
C314 C308 1.383 . S
C314 C313 1.379 . S
H315 C309 0.959 . S
H316 C309 0.961 . S
H317 C309 0.960 . S
H318 C310 0.930 . S
H319 C311 0.929 . S
H320 C328 0.929 . S
H321 C330 0.930 . S
H322 C332 0.930 . S
H323 C335 0.929 . S
H324 C338 0.930 . S
H325 C340 0.960 . S
H326 C340 0.960 . S
H327 C340 0.960 . S
C328 H320 0.929 . S
C328 C329 1.377 . S
C328 C330 1.384 . S
C329 C328 1.377 . S
C329 C335 1.390 . S
C330 H321 0.930 . S
C330 C328 1.384 . S
C330 C331 1.372 . S
C331 C330 1.372 . S
C331 C332 1.400 . S
C331 C336 1.490 . S
C332 H322 0.930 . S
C332 C331 1.400 . S
C332 C335 1.386 . S
H333 C349 0.930 . S
H334 C350 0.931 . S
C335 H323 0.929 . S
C335 C329 1.390 . S
C335 C332 1.386 . S
C336 C331 1.490 . S
C336 C338 1.395 . S
C336 C339 1.403 . S
H337 C343 0.930 . S
C338 H324 0.930 . S
C338 C336 1.395 . S
C338 C341 1.403 . S
C339 C336 1.403 . S
C339 C340 1.524 . S
C339 C343 1.400 . S
C340 H325 0.960 . S
C340 H326 0.960 . S
C340 H327 0.960 . S
C340 C339 1.524 . S
C341 C338 1.403 . S
C341 C342 1.392 . S
C341 C345 1.495 . S
C342 C341 1.392 . S
C342 C343 1.385 . S
C342 C344 1.478 . S
C343 H337 0.930 . S
C343 C339 1.400 . S
C343 C342 1.385 . S
C344 C342 1.478 . S
C344 C346 1.381 . S
C344 C350 1.383 . S
C345 C341 1.495 . S
C345 H351 0.959 . S
C345 H352 0.961 . S
C345 H353 0.960 . S
C346 C344 1.381 . S
C346 C347 1.394 . S
C346 H354 0.930 . S
C347 C346 1.394 . S
C347 C348 1.383 . S
C347 H355 0.929 . S
C348 C347 1.383 . S
C348 C349 1.377 . S
C349 H333 0.930 . S
C349 C348 1.377 . S
C349 C350 1.379 . S
C350 H334 0.931 . S
C350 C344 1.383 . S
C350 C349 1.379 . S
H351 C345 0.959 . S
H352 C345 0.961 . S
H353 C345 0.960 . S
H354 C346 0.930 . S
H355 C347 0.929 . S
H356 C364 0.929 . S
H357 C366 0.930 . S
H358 C368 0.930 . S
H359 C371 0.929 . S
H360 C374 0.930 . S
H361 C376 0.960 . S
H362 C376 0.960 . S
H363 C376 0.960 . S
C364 H356 0.929 . S
C364 C365 1.377 . S
C364 C366 1.384 . S
C365 C364 1.377 . S
C365 C371 1.390 . S
C366 H357 0.930 . S
C366 C364 1.384 . S
C366 C367 1.372 . S
C367 C366 1.372 . S
C367 C368 1.400 . S
C367 C372 1.490 . S
C368 H358 0.930 . S
C368 C367 1.400 . S
C368 C371 1.386 . S
H369 C385 0.930 . S
H370 C386 0.931 . S
C371 H359 0.929 . S
C371 C365 1.390 . S
C371 C368 1.386 . S
C372 C367 1.490 . S
C372 C374 1.395 . S
C372 C375 1.403 . S
H373 C379 0.930 . S
C374 H360 0.930 . S
C374 C372 1.395 . S
C374 C377 1.403 . S
C375 C372 1.403 . S
C375 C376 1.524 . S
C375 C379 1.400 . S
C376 H361 0.960 . S
C376 H362 0.960 . S
C376 H363 0.960 . S
C376 C375 1.524 . S
C377 C374 1.403 . S
C377 C378 1.392 . S
C377 C381 1.495 1_455 S
C378 C377 1.392 . S
C378 C379 1.385 . S
C378 C380 1.478 . S
C379 H373 0.930 . S
C379 C375 1.400 . S
C379 C378 1.385 . S
C380 C378 1.478 . S
C380 C382 1.381 . S
C380 C386 1.383 . S
C381 C377 1.495 1_655 S
C381 H387 0.959 . S
C381 H388 0.961 1_655 S
C381 H389 0.960 . S
C382 C380 1.381 . S
C382 C383 1.394 . S
C382 H390 0.930 1_455 S
C383 C382 1.394 . S
C383 C384 1.383 . S
C383 H391 0.929 1_455 S
C384 C383 1.383 . S
C384 C385 1.377 . S
C385 H369 0.930 . S
C385 C384 1.377 . S
C385 C386 1.379 . S
C386 H370 0.931 . S
C386 C380 1.383 . S
C386 C385 1.379 . S
H387 C381 0.959 . S
H388 C381 0.961 1_455 S
H389 C381 0.960 . S
H390 C382 0.930 1_655 S
H391 C383 0.929 1_655 S
H392 C400 0.929 . S
H393 C402 0.930 . S
H394 C404 0.930 . S
H395 C407 0.929 . S
H396 C410 0.930 . S
H397 C412 0.960 . S
H398 C412 0.960 . S
H399 C412 0.960 . S
C400 H392 0.929 . S
C400 C401 1.377 . S
C400 C402 1.384 . S
C401 C400 1.377 . S
C401 C407 1.390 . S
C402 H393 0.930 . S
C402 C400 1.384 . S
C402 C403 1.372 . S
C403 C402 1.372 . S
C403 C404 1.400 . S
C403 C408 1.490 . S
C404 H394 0.930 . S
C404 C403 1.400 . S
C404 C407 1.386 . S
H405 C421 0.930 . S
H406 C422 0.931 . S
C407 H395 0.929 . S
C407 C401 1.390 . S
C407 C404 1.386 . S
C408 C403 1.490 . S
C408 C410 1.395 1_554 S
C408 C411 1.403 . S
H409 C415 0.930 . S
C410 H396 0.930 . S
C410 C408 1.395 1_556 S
C410 C413 1.403 . S
C411 C408 1.403 . S
C411 C412 1.524 . S
C411 C415 1.400 1_554 S
C412 H397 0.960 . S
C412 H398 0.960 . S
C412 H399 0.960 . S
C412 C411 1.524 . S
C413 C410 1.403 . S
C413 C414 1.392 . S
C413 C417 1.495 1_565 S
C414 C413 1.392 . S
C414 C415 1.385 . S
C414 C416 1.478 . S
C415 H409 0.930 . S
C415 C411 1.400 1_556 S
C415 C414 1.385 . S
C416 C414 1.478 . S
C416 C418 1.381 . S
C416 C422 1.383 1_565 S
C417 C413 1.495 1_545 S
C417 H423 0.959 . S
C417 H424 0.961 . S
C417 H425 0.961 1_545 S
C418 C416 1.381 . S
C418 C419 1.394 . S
C418 H426 0.930 . S
C419 C418 1.394 . S
C419 C420 1.381 . S
C419 H427 0.929 . S
C420 C419 1.381 . S
C420 C421 1.379 1_565 S
C421 H405 0.930 . S
C421 C420 1.379 1_545 S
C421 C422 1.379 . S
C422 H406 0.931 . S
C422 C416 1.383 1_545 S
C422 C421 1.379 . S
H423 C417 0.959 . S
H424 C417 0.961 . S
H425 C417 0.961 1_565 S
H426 C418 0.930 . S
H427 C419 0.929 . S
H428 C436 0.929 . S
H429 C438 0.930 . S
H430 C440 0.930 . S
H431 C443 0.929 . S
H432 C446 0.930 . S
H433 C448 0.960 . S
H434 C448 0.960 . S
H435 C448 0.960 . S
C436 H428 0.929 . S
C436 C437 1.377 . S
C436 C438 1.384 . S
C437 C436 1.377 . S
C437 C443 1.390 . S
C438 H429 0.930 . S
C438 C436 1.384 . S
C438 C439 1.372 . S
C439 C438 1.372 . S
C439 C440 1.400 . S
C439 C444 1.490 . S
C440 H430 0.930 . S
C440 C439 1.400 . S
C440 C443 1.386 . S
H441 C457 0.930 . S
H442 C458 0.931 . S
C443 H431 0.929 . S
C443 C437 1.390 . S
C443 C440 1.386 . S
C444 C439 1.490 . S
C444 C446 1.395 1_554 S
C444 C447 1.403 . S
H445 C451 0.930 . S
C446 H432 0.930 . S
C446 C444 1.395 1_556 S
C446 C449 1.403 . S
C447 C444 1.403 . S
C447 C448 1.524 . S
C447 C451 1.400 1_554 S
C448 H433 0.960 . S
C448 H434 0.960 . S
C448 H435 0.960 . S
C448 C447 1.524 . S
C449 C446 1.403 . S
C449 C450 1.392 . S
C449 C453 1.495 . S
C450 C449 1.392 . S
C450 C451 1.385 . S
C450 C452 1.478 . S
C451 H445 0.930 . S
C451 C447 1.400 1_556 S
C451 C450 1.385 . S
C452 C450 1.478 . S
C452 C454 1.381 . S
C452 C458 1.383 . S
C453 C449 1.495 . S
C453 H459 0.959 . S
C453 H460 0.961 . S
C453 H461 0.960 . S
C454 C452 1.381 . S
C454 C455 1.394 . S
C454 H462 0.930 . S
C455 C454 1.394 . S
C455 C456 1.383 . S
C455 H463 0.929 . S
C456 C455 1.383 . S
C456 C457 1.377 . S
C457 H441 0.930 . S
C457 C456 1.377 . S
C457 C458 1.379 . S
C458 H442 0.931 . S
C458 C452 1.383 . S
C458 C457 1.379 . S
H459 C453 0.959 . S
H460 C453 0.961 . S
H461 C453 0.960 . S
H462 C454 0.930 . S
H463 C455 0.929 . S
H464 C472 0.929 . S
H465 C474 0.930 . S
H466 C476 0.930 . S
H467 C479 0.929 . S
H468 C482 0.930 . S
H469 C484 0.960 . S
H470 C484 0.960 . S
H471 C484 0.960 . S
C472 H464 0.929 . S
C472 C473 1.377 . S
C472 C474 1.384 . S
C473 C472 1.377 . S
C473 C479 1.390 . S
C474 H465 0.930 . S
C474 C472 1.384 . S
C474 C475 1.372 . S
C475 C474 1.372 . S
C475 C476 1.400 . S
C475 C480 1.490 1_554 S
C476 H466 0.930 . S
C476 C475 1.400 . S
C476 C479 1.386 . S
H477 C493 0.930 . S
H478 C494 0.931 . S
C479 H467 0.929 . S
C479 C473 1.390 . S
C479 C476 1.386 . S
C480 C475 1.490 1_556 S
C480 C482 1.395 1_556 S
C480 C483 1.403 . S
H481 C487 0.930 . S
C482 H468 0.930 . S
C482 C480 1.395 1_554 S
C482 C485 1.403 1_554 S
C483 C480 1.403 . S
C483 C484 1.524 . S
C483 C487 1.400 . S
C484 H469 0.960 . S
C484 H470 0.960 . S
C484 H471 0.960 . S
C484 C483 1.524 . S
C485 C482 1.403 1_556 S
C485 C486 1.392 . S
C485 C489 1.495 . S
C486 C485 1.392 . S
C486 C487 1.385 . S
C486 C488 1.478 . S
C487 H481 0.930 . S
C487 C483 1.400 . S
C487 C486 1.385 . S
C488 C486 1.478 . S
C488 C490 1.381 . S
C488 C494 1.383 . S
C489 C485 1.495 . S
C489 H495 0.959 1_556 S
C489 H496 0.961 . S
C489 H497 0.960 . S
C490 C488 1.381 . S
C490 C491 1.394 . S
C490 H498 0.930 . S
C491 C490 1.394 . S
C491 C492 1.383 . S
C491 H499 0.929 . S
C492 C491 1.383 . S
C492 C493 1.377 . S
C493 H477 0.930 . S
C493 C492 1.377 . S
C493 C494 1.379 . S
C494 H478 0.931 . S
C494 C488 1.383 . S
C494 C493 1.379 . S
H495 C489 0.959 1_554 S
H496 C489 0.961 . S
H497 C489 0.960 . S
H498 C490 0.930 . S
H499 C491 0.929 . S
H500 C508 0.929 . S
H501 C510 0.930 1_455 S
H502 C512 0.930 . S
H503 C515 0.929 . S
H504 C518 0.930 . S
H505 C520 0.960 . S
H506 C520 0.960 . S
H507 C520 0.960 . S
C508 H500 0.929 . S
C508 C509 1.377 . S
C508 C510 1.384 . S
C509 C508 1.377 . S
C509 C515 1.390 . S
C510 H501 0.930 1_655 S
C510 C508 1.384 . S
C510 C511 1.372 . S
C511 C510 1.372 . S
C511 C512 1.400 . S
C511 C516 1.490 . S
C512 H502 0.930 . S
C512 C511 1.400 . S
C512 C515 1.386 . S
H513 C529 0.930 . S
H514 C530 0.931 . S
C515 H503 0.929 . S
C515 C509 1.390 . S
C515 C512 1.386 . S
C516 C511 1.490 . S
C516 C518 1.395 . S
C516 C519 1.403 1_554 S
H517 C523 0.930 . S
C518 H504 0.930 . S
C518 C516 1.395 . S
C518 C521 1.403 . S
C519 C516 1.403 1_556 S
C519 C520 1.524 . S
C519 C523 1.400 . S
C520 H505 0.960 . S
C520 H506 0.960 . S
C520 H507 0.960 . S
C520 C519 1.524 . S
C521 C518 1.403 . S
C521 C522 1.392 1_554 S
C521 C525 1.495 1_655 S
C522 C521 1.392 1_556 S
C522 C523 1.385 . S
C522 C524 1.478 . S
C523 H517 0.930 . S
C523 C519 1.400 . S
C523 C522 1.385 . S
C524 C522 1.478 . S
C524 C526 1.381 1_655 S
C524 C530 1.383 . S
C525 C521 1.495 1_455 S
C525 H531 0.959 . S
C525 H532 0.961 1_455 S
C525 H533 0.960 . S
C526 C524 1.381 1_455 S
C526 C527 1.394 . S
C526 H534 0.930 . S
C527 C526 1.394 . S
C527 C528 1.383 1_455 S
C527 H535 0.929 . S
C528 C527 1.383 1_655 S
C528 C529 1.377 . S
C529 H513 0.930 . S
C529 C528 1.377 . S
C529 C530 1.379 . S
C530 H514 0.931 . S
C530 C524 1.383 . S
C530 C529 1.379 . S
H531 C525 0.959 . S
H532 C525 0.961 1_655 S
H533 C525 0.960 . S
H534 C526 0.930 . S
H535 C527 0.929 . S
H536 C544 0.929 . S
H537 C546 0.930 . S
H538 C548 0.930 . S
H539 C551 0.929 . S
H540 C554 0.930 . S
H541 C556 0.960 1_655 S
H542 C556 0.960 . S
H543 C556 0.970 . S
C544 H536 0.929 . S
C544 C545 1.377 . S
C544 C546 1.384 . S
C545 C544 1.377 . S
C545 C551 1.390 . S
C546 H537 0.930 . S
C546 C544 1.384 . S
C546 C547 1.372 . S
C547 C546 1.372 . S
C547 C548 1.400 . S
C547 C552 1.490 . S
C548 H538 0.930 . S
C548 C547 1.400 . S
C548 C551 1.386 . S
H549 C565 0.930 1_655 S
H550 C566 0.931 . S
C551 H539 0.929 . S
C551 C545 1.390 . S
C551 C548 1.386 . S
C552 C547 1.490 . S
C552 C554 1.395 . S
C552 C555 1.403 . S
H553 C559 0.930 . S
C554 H540 0.930 . S
C554 C552 1.395 . S
C554 C557 1.403 . S
C555 C552 1.403 . S
C555 C556 1.524 . S
C555 C559 1.400 . S
C556 H541 0.960 1_455 S
C556 H542 0.960 . S
C556 H543 0.970 . S
C556 C555 1.524 . S
C557 C554 1.403 . S
C557 C558 1.392 . S
C557 C561 1.495 . S
C558 C557 1.392 . S
C558 C559 1.385 . S
C558 C560 1.478 . S
C559 H553 0.930 . S
C559 C555 1.400 . S
C559 C558 1.385 . S
C560 C558 1.478 . S
C560 C562 1.381 . S
C560 C566 1.383 . S
C561 C557 1.495 . S
C561 H567 0.959 . S
C561 H568 0.961 . S
C561 H569 0.960 . S
C562 C560 1.381 . S
C562 C563 1.394 . S
C562 H570 0.930 . S
C563 C562 1.394 . S
C563 C564 1.383 . S
C563 H571 0.929 . S
C564 C563 1.383 . S
C564 C565 1.377 . S
C565 H549 0.930 1_455 S
C565 C564 1.377 . S
C565 C566 1.379 . S
C566 H550 0.931 . S
C566 C560 1.383 . S
C566 C565 1.379 . S
H567 C561 0.959 . S
H568 C561 0.961 . S
H569 C561 0.960 . S
H570 C562 0.930 . S
H571 C563 0.929 . S
H572 C580 0.929 . S
H573 C582 0.930 . S
H574 C584 0.930 . S
H575 C587 0.929 . S
H576 C590 0.930 . S
H577 C592 0.960 . S
H578 C592 0.960 . S
H579 C592 0.960 . S
C580 H572 0.929 . S
C580 C581 1.377 . S
C580 C582 1.384 . S
C581 C580 1.377 . S
C581 C587 1.390 . S
C582 H573 0.930 . S
C582 C580 1.384 . S
C582 C583 1.372 . S
C583 C582 1.372 . S
C583 C584 1.400 . S
C583 C588 1.490 . S
C584 H574 0.930 . S
C584 C583 1.400 . S
C584 C587 1.386 . S
H585 C601 0.929 1_565 S
H586 C602 0.931 . S
C587 H575 0.929 . S
C587 C581 1.390 . S
C587 C584 1.386 . S
C588 C583 1.490 . S
C588 C590 1.395 . S
C588 C591 1.403 . S
H589 C595 0.930 . S
C590 H576 0.930 . S
C590 C588 1.395 . S
C590 C593 1.403 . S
C591 C588 1.403 . S
C591 C592 1.524 . S
C591 C595 1.400 . S
C592 H577 0.960 . S
C592 H578 0.960 . S
C592 H579 0.960 . S
C592 C591 1.524 . S
C593 C590 1.403 . S
C593 C594 1.392 . S
C593 C597 1.495 1_545 S
C594 C593 1.392 . S
C594 C595 1.385 . S
C594 C596 1.478 . S
C595 H589 0.930 . S
C595 C591 1.400 . S
C595 C594 1.385 . S
C596 C594 1.478 . S
C596 C598 1.381 . S
C596 C602 1.383 . S
C597 C593 1.495 1_565 S
C597 H603 0.959 . S
C597 H604 0.961 . S
C597 H605 0.960 . S
C598 C596 1.381 . S
C598 C599 1.394 . S
C598 H606 0.930 . S
C599 C598 1.394 . S
C599 C600 1.383 . S
C599 H607 0.929 . S
C600 C599 1.383 . S
C600 C601 1.377 . S
C601 H585 0.929 1_545 S
C601 C600 1.377 . S
C601 C602 1.380 . S
C602 H586 0.931 . S
C602 C596 1.383 . S
C602 C601 1.380 . S
H603 C597 0.959 . S
H604 C597 0.961 . S
H605 C597 0.960 . S
H606 C598 0.930 . S
H607 C599 0.929 . S
H608 C616 0.929 . S
H609 C618 0.930 . S
H610 C620 0.930 . S
H611 C623 0.929 . S
H612 C626 0.930 . S
H613 C628 0.960 . S
H614 C628 0.960 . S
H615 C628 0.960 . S
C616 H608 0.929 . S
C616 C617 1.377 . S
C616 C618 1.384 . S
C617 C616 1.377 . S
C617 C623 1.390 . S
C618 H609 0.930 . S
C618 C616 1.384 . S
C618 C619 1.372 . S
C619 C618 1.372 . S
C619 C620 1.400 . S
C619 C624 1.490 . S
C620 H610 0.930 . S
C620 C619 1.400 . S
C620 C623 1.386 . S
H621 C637 0.930 . S
H622 C638 0.931 . S
C623 H611 0.929 . S
C623 C617 1.390 . S
C623 C620 1.386 . S
C624 C619 1.490 . S
C624 C626 1.395 . S
C624 C627 1.403 . S
H625 C631 0.930 . S
C626 H612 0.930 . S
C626 C624 1.395 . S
C626 C629 1.403 . S
C627 C624 1.403 . S
C627 C628 1.524 . S
C627 C631 1.400 . S
C628 H613 0.960 . S
C628 H614 0.960 . S
C628 H615 0.960 . S
C628 C627 1.524 . S
C629 C626 1.403 . S
C629 C630 1.392 . S
C629 C633 1.495 . S
C630 C629 1.392 . S
C630 C631 1.385 . S
C630 C632 1.478 . S
C631 H625 0.930 . S
C631 C627 1.400 . S
C631 C630 1.385 . S
C632 C630 1.478 . S
C632 C634 1.381 . S
C632 C638 1.383 . S
C633 C629 1.495 . S
C633 H639 0.959 . S
C633 H640 0.961 . S
C633 H641 0.960 . S
C634 C632 1.381 . S
C634 C635 1.394 . S
C634 H642 0.930 . S
C635 C634 1.394 . S
C635 C636 1.383 . S
C635 H643 0.929 . S
C636 C635 1.383 . S
C636 C637 1.377 . S
C637 H621 0.930 . S
C637 C636 1.377 . S
C637 C638 1.379 . S
C638 H622 0.931 . S
C638 C632 1.383 . S
C638 C637 1.379 . S
H639 C633 0.959 . S
H640 C633 0.961 . S
H641 C633 0.960 . S
H642 C634 0.930 . S
H643 C635 0.929 . S
H644 C652 0.929 . S
H645 C654 0.930 . S
H646 C656 0.930 . S
H647 C659 0.929 . S
H648 C662 0.930 . S
H649 C664 0.960 . S
H650 C664 0.960 . S
H651 C664 0.960 . S
C652 H644 0.929 . S
C652 C653 1.377 . S
C652 C654 1.384 . S
C653 C652 1.377 . S
C653 C659 1.390 . S
C654 H645 0.930 . S
C654 C652 1.384 . S
C654 C655 1.372 . S
C655 C654 1.372 . S
C655 C656 1.400 . S
C655 C660 1.490 . S
C656 H646 0.930 . S
C656 C655 1.400 . S
C656 C659 1.386 . S
H657 C673 0.930 . S
H658 C674 0.931 . S
C659 H647 0.929 . S
C659 C653 1.390 . S
C659 C656 1.386 . S
C660 C655 1.490 . S
C660 C662 1.395 . S
C660 C663 1.403 . S
H661 C667 0.930 . S
C662 H648 0.930 . S
C662 C660 1.395 . S
C662 C665 1.403 . S
C663 C660 1.403 . S
C663 C664 1.524 . S
C663 C667 1.400 . S
C664 H649 0.960 . S
C664 H650 0.960 . S
C664 H651 0.960 . S
C664 C663 1.524 . S
C665 C662 1.403 . S
C665 C666 1.392 . S
C665 C669 1.495 . S
C666 C665 1.392 . S
C666 C667 1.385 . S
C666 C668 1.478 . S
C667 H661 0.930 . S
C667 C663 1.400 . S
C667 C666 1.385 . S
C668 C666 1.478 . S
C668 C670 1.381 . S
C668 C674 1.383 . S
C669 C665 1.495 . S
C669 H675 0.959 . S
C669 H676 0.961 . S
C669 H677 0.960 . S
C670 C668 1.381 . S
C670 C671 1.394 . S
C670 H678 0.930 . S
C671 C670 1.394 . S
C671 C672 1.383 . S
C671 H679 0.929 . S
C672 C671 1.383 . S
C672 C673 1.377 . S
C673 H657 0.930 . S
C673 C672 1.377 . S
C673 C674 1.379 . S
C674 H658 0.931 . S
C674 C668 1.383 . S
C674 C673 1.379 . S
H675 C669 0.959 . S
H676 C669 0.961 . S
H677 C669 0.960 . S
H678 C670 0.930 . S
H679 C671 0.929 . S
H680 C688 0.929 . S
H681 C690 0.930 . S
H682 C692 0.930 . S
H683 C695 0.929 . S
H684 C698 0.930 . S
H685 C700 0.960 . S
H686 C700 0.960 . S
H687 C700 0.960 . S
C688 H680 0.929 . S
C688 C689 1.377 . S
C688 C690 1.384 . S
C689 C688 1.377 . S
C689 C695 1.390 . S
C690 H681 0.930 . S
C690 C688 1.384 . S
C690 C691 1.372 . S
C691 C690 1.372 . S
C691 C692 1.400 . S
C691 C696 1.490 . S
C692 H682 0.930 . S
C692 C691 1.400 . S
C692 C695 1.386 . S
H693 C709 0.930 . S
H694 C710 0.931 . S
C695 H683 0.929 . S
C695 C689 1.390 . S
C695 C692 1.386 . S
C696 C691 1.490 . S
C696 C698 1.395 . S
C696 C699 1.403 . S
H697 C703 0.930 . S
C698 H684 0.930 . S
C698 C696 1.395 . S
C698 C701 1.403 . S
C699 C696 1.403 . S
C699 C700 1.524 1_655 S
C699 C703 1.400 1_655 S
C700 H685 0.960 . S
C700 H686 0.960 . S
C700 H687 0.960 . S
C700 C699 1.524 1_455 S
C701 C698 1.403 . S
C701 C702 1.392 . S
C701 C705 1.495 . S
C702 C701 1.392 . S
C702 C703 1.385 1_655 S
C702 C704 1.478 . S
C703 H697 0.930 . S
C703 C699 1.400 1_455 S
C703 C702 1.385 1_455 S
C704 C702 1.478 . S
C704 C706 1.381 1_554 S
C704 C710 1.375 1_655 S
C705 C701 1.495 . S
C705 H711 0.959 . S
C705 H712 0.961 . S
C705 H713 0.960 1_554 S
C706 C704 1.381 1_556 S
C706 C707 1.394 . S
C706 H714 0.930 . S
C707 C706 1.394 . S
C707 C708 1.383 1_655 S
C707 H715 0.929 . S
C708 C707 1.383 1_455 S
C708 C709 1.377 1_556 S
C709 H693 0.930 . S
C709 C708 1.377 1_554 S
C709 C710 1.387 . S
C710 H694 0.931 . S
C710 C704 1.375 1_455 S
C710 C709 1.387 . S
H711 C705 0.959 . S
H712 C705 0.961 . S
H713 C705 0.960 1_556 S
H714 C706 0.930 . S
H715 C707 0.929 . S
H716 C724 0.929 . S
H717 C726 0.930 . S
H718 C728 0.930 1_545 S
H719 C731 0.929 1_545 S
H720 C734 0.930 . S
H721 C736 0.960 1_556 S
H722 C736 0.960 1_565 S
H723 C736 0.960 . S
C724 H716 0.929 . S
C724 C725 1.377 . S
C724 C726 1.384 . S
C725 C724 1.377 . S
C725 C731 1.390 . S
C726 H717 0.930 . S
C726 C724 1.384 . S
C726 C727 1.372 . S
C727 C726 1.372 . S
C727 C728 1.400 . S
C727 C732 1.490 . S
C728 H718 0.930 1_565 S
C728 C727 1.400 . S
C728 C731 1.386 . S
H729 C745 0.930 . S
H730 C746 0.931 . S
C731 H719 0.929 1_565 S
C731 C725 1.390 . S
C731 C728 1.386 . S
C732 C727 1.490 . S
C732 C734 1.395 . S
C732 C735 1.382 1_565 S
H733 C739 0.930 1_556 S
C734 H720 0.930 . S
C734 C732 1.395 . S
C734 C737 1.403 . S
C735 C732 1.382 1_545 S
C735 C736 1.536 . S
C735 C739 1.409 . S
C736 H721 0.960 1_554 S
C736 H722 0.960 1_545 S
C736 H723 0.960 . S
C736 C735 1.536 . S
C737 C734 1.403 . S
C737 C738 1.392 . S
C737 C741 1.495 . S
C738 C737 1.392 . S
C738 C739 1.385 1_565 S
C738 C740 1.478 1_564 S
C739 H733 0.930 1_554 S
C739 C735 1.409 . S
C739 C738 1.385 1_545 S
C740 C738 1.478 1_546 S
C740 C742 1.381 1_545 S
C740 C746 1.383 . S
C741 C737 1.495 . S
C741 H747 0.959 . S
C741 H748 0.961 . S
C741 H749 0.960 . S
C742 C740 1.381 1_565 S
C742 C743 1.394 . S
C742 H750 0.930 . S
C743 C742 1.394 . S
C743 C744 1.383 1_565 S
C743 H751 0.929 . S
C744 C743 1.383 1_545 S
C744 C745 1.377 . S
C745 H729 0.930 . S
C745 C744 1.377 . S
C745 C746 1.379 . S
C746 H730 0.931 . S
C746 C740 1.383 . S
C746 C745 1.379 . S
H747 C741 0.959 . S
H748 C741 0.961 . S
H749 C741 0.960 . S
H750 C742 0.930 . S
H751 C743 0.929 . S
H752 C760 0.929 . S
H753 C762 0.930 . S
H754 C764 0.930 . S
H755 C767 0.929 . S
H756 C770 0.930 . S
H757 C772 0.960 . S
H758 C772 0.960 . S
H759 C772 0.960 . S
C760 H752 0.929 . S
C760 C761 1.377 . S
C760 C762 1.384 . S
C761 C760 1.377 . S
C761 C767 1.390 . S
C762 H753 0.930 . S
C762 C760 1.384 . S
C762 C763 1.372 . S
C763 C762 1.372 . S
C763 C764 1.400 . S
C763 C768 1.490 . S
C764 H754 0.930 . S
C764 C763 1.400 . S
C764 C767 1.386 . S
H765 C781 0.930 . S
H766 C782 0.931 . S
C767 H755 0.929 . S
C767 C761 1.390 . S
C767 C764 1.386 . S
C768 C763 1.490 . S
C768 C770 1.395 . S
C768 C771 1.403 . S
H769 C775 0.930 1_556 S
C770 H756 0.930 . S
C770 C768 1.395 . S
C770 C773 1.403 1_554 S
C771 C768 1.403 . S
C771 C772 1.524 . S
C771 C775 1.400 . S
C772 H757 0.960 . S
C772 H758 0.960 . S
C772 H759 0.960 . S
C772 C771 1.524 . S
C773 C770 1.403 1_556 S
C773 C774 1.392 . S
C773 C777 1.495 . S
C774 C773 1.392 . S
C774 C775 1.385 1_556 S
C774 C776 1.478 . S
C775 H769 0.930 1_554 S
C775 C771 1.400 . S
C775 C774 1.385 1_554 S
C776 C774 1.478 . S
C776 C778 1.381 . S
C776 C782 1.383 . S
C777 C773 1.495 . S
C777 H783 0.959 . S
C777 H784 0.961 . S
C777 H785 0.960 . S
C778 C776 1.381 . S
C778 C779 1.394 . S
C778 H786 0.930 . S
C779 C778 1.394 . S
C779 C780 1.383 . S
C779 H787 0.929 . S
C780 C779 1.383 . S
C780 C781 1.377 . S
C781 H765 0.930 . S
C781 C780 1.377 . S
C781 C782 1.379 . S
C782 H766 0.931 . S
C782 C776 1.383 . S
C782 C781 1.379 . S
H783 C777 0.959 . S
H784 C777 0.961 . S
H785 C777 0.960 . S
H786 C778 0.930 . S
H787 C779 0.929 . S
H788 C796 0.929 . S
H789 C798 0.930 . S
H790 C800 0.930 . S
H791 C803 0.929 . S
H792 C806 0.930 . S
H793 C808 0.960 . S
H794 C808 0.960 . S
H795 C808 0.960 . S
C796 H788 0.929 . S
C796 C797 1.377 . S
C796 C798 1.384 . S
C797 C796 1.377 . S
C797 C803 1.390 . S
C798 H789 0.930 . S
C798 C796 1.384 . S
C798 C799 1.372 . S
C799 C798 1.372 . S
C799 C800 1.400 . S
C799 C804 1.490 . S
C800 H790 0.930 . S
C800 C799 1.400 . S
C800 C803 1.386 . S
H801 C817 0.930 . S
H802 C818 0.931 . S
C803 H791 0.929 . S
C803 C797 1.390 . S
C803 C800 1.386 . S
C804 C799 1.490 . S
C804 C806 1.395 . S
C804 C807 1.403 . S
H805 C811 0.930 . S
C806 H792 0.930 . S
C806 C804 1.395 . S
C806 C809 1.403 . S
C807 C804 1.403 . S
C807 C808 1.524 . S
C807 C811 1.400 . S
C808 H793 0.960 . S
C808 H794 0.960 . S
C808 H795 0.960 . S
C808 C807 1.524 . S
C809 C806 1.403 . S
C809 C810 1.392 . S
C809 C813 1.495 1_554 S
C810 C809 1.392 . S
C810 C811 1.385 . S
C810 C812 1.478 1_554 S
C811 H805 0.930 . S
C811 C807 1.400 . S
C811 C810 1.385 . S
C812 C810 1.478 1_556 S
C812 C814 1.381 . S
C812 C818 1.383 1_556 S
C813 C809 1.495 1_556 S
C813 H819 0.959 . S
C813 H820 0.961 . S
C813 H821 0.960 . S
C814 C812 1.381 . S
C814 C815 1.394 . S
C814 H822 0.930 . S
C815 C814 1.394 . S
C815 C816 1.383 . S
C815 H823 0.929 . S
C816 C815 1.383 . S
C816 C817 1.377 1_556 S
C817 H801 0.930 . S
C817 C816 1.377 1_554 S
C817 C818 1.379 . S
C818 H802 0.931 . S
C818 C812 1.383 1_554 S
C818 C817 1.379 . S
H819 C813 0.959 . S
H820 C813 0.961 . S
H821 C813 0.960 . S
H822 C814 0.930 . S
H823 C815 0.929 . S
H824 C832 0.929 . S
H825 C834 0.930 . S
H826 C836 0.930 . S
H827 C839 0.929 . S
H828 C842 0.930 . S
H829 C844 0.960 . S
H830 C844 0.960 . S
H831 C844 0.960 . S
C832 H824 0.929 . S
C832 C833 1.377 . S
C832 C834 1.384 . S
C833 C832 1.377 . S
C833 C839 1.390 . S
C834 H825 0.930 . S
C834 C832 1.384 . S
C834 C835 1.372 . S
C835 C834 1.372 . S
C835 C836 1.400 . S
C835 C840 1.490 . S
C836 H826 0.930 . S
C836 C835 1.400 . S
C836 C839 1.386 . S
H837 C853 0.930 . S
H838 C854 0.931 . S
C839 H827 0.929 . S
C839 C833 1.390 . S
C839 C836 1.386 . S
C840 C835 1.490 . S
C840 C842 1.395 . S
C840 C843 1.403 . S
H841 C847 0.930 . S
C842 H828 0.930 . S
C842 C840 1.395 . S
C842 C845 1.403 . S
C843 C840 1.403 . S
C843 C844 1.524 . S
C843 C847 1.400 . S
C844 H829 0.960 . S
C844 H830 0.960 . S
C844 H831 0.960 . S
C844 C843 1.524 . S
C845 C842 1.403 . S
C845 C846 1.392 . S
C845 C849 1.495 1_455 S
C846 C845 1.392 . S
C846 C847 1.385 . S
C846 C848 1.478 . S
C847 H841 0.930 . S
C847 C843 1.400 . S
C847 C846 1.385 . S
C848 C846 1.478 . S
C848 C850 1.381 . S
C848 C854 1.383 . S
C849 C845 1.495 1_655 S
C849 H855 0.959 . S
C849 H856 0.961 . S
C849 H857 0.960 . S
C850 C848 1.381 . S
C850 C851 1.394 . S
C850 H858 0.930 . S
C851 C850 1.394 . S
C851 C852 1.383 . S
C851 H859 0.929 . S
C852 C851 1.383 . S
C852 C853 1.377 . S
C853 H837 0.930 . S
C853 C852 1.377 . S
C853 C854 1.379 . S
C854 H838 0.931 . S
C854 C848 1.383 . S
C854 C853 1.379 . S
H855 C849 0.959 . S
H856 C849 0.961 . S
H857 C849 0.960 . S
H858 C850 0.930 . S
H859 C851 0.929 . S
H860 C868 0.929 . S
H861 C870 0.930 . S
H862 C872 0.930 . S
H863 C875 0.929 . S
H864 C878 0.930 . S
H865 C880 0.960 . S
H866 C880 0.960 . S
H867 C880 0.960 . S
C868 H860 0.929 . S
C868 C869 1.377 . S
C868 C870 1.384 . S
C869 C868 1.377 . S
C869 C875 1.390 . S
C870 H861 0.930 . S
C870 C868 1.384 . S
C870 C871 1.372 . S
C871 C870 1.372 . S
C871 C872 1.400 . S
C871 C876 1.490 . S
C872 H862 0.930 . S
C872 C871 1.400 . S
C872 C875 1.386 . S
H873 C889 0.930 . S
H874 C890 0.931 . S
C875 H863 0.929 . S
C875 C869 1.390 . S
C875 C872 1.386 . S
C876 C871 1.490 . S
C876 C878 1.395 . S
C876 C879 1.403 . S
H877 C883 0.930 . S
C878 H864 0.930 . S
C878 C876 1.395 . S
C878 C881 1.403 . S
C879 C876 1.403 . S
C879 C880 1.524 . S
C879 C883 1.400 . S
C880 H865 0.960 . S
C880 H866 0.960 . S
C880 H867 0.960 . S
C880 C879 1.524 . S
C881 C878 1.403 . S
C881 C882 1.392 . S
C881 C885 1.495 . S
C882 C881 1.392 . S
C882 C883 1.385 . S
C882 C884 1.478 . S
C883 H877 0.930 . S
C883 C879 1.400 . S
C883 C882 1.385 . S
C884 C882 1.478 . S
C884 C886 1.381 . S
C884 C890 1.383 . S
C885 C881 1.495 . S
C885 H891 0.959 . S
C885 H892 0.961 . S
C885 H893 0.960 . S
C886 C884 1.381 . S
C886 C887 1.394 . S
C886 H894 0.930 . S
C887 C886 1.394 . S
C887 C888 1.383 . S
C887 H895 0.929 . S
C888 C887 1.383 . S
C888 C889 1.377 . S
C889 H873 0.930 . S
C889 C888 1.377 . S
C889 C890 1.379 . S
C890 H874 0.931 . S
C890 C884 1.383 . S
C890 C889 1.379 . S
H891 C885 0.959 . S
H892 C885 0.961 . S
H893 C885 0.960 . S
H894 C886 0.930 . S
H895 C887 0.929 . S
H896 C904 0.929 . S
H897 C906 0.930 . S
H898 C908 0.930 . S
H899 C911 0.929 . S
H900 C914 0.930 . S
H901 C916 0.960 . S
H902 C916 0.960 . S
H903 C916 0.960 . S
C904 H896 0.929 . S
C904 C905 1.377 . S
C904 C906 1.384 . S
C905 C904 1.377 . S
C905 C911 1.390 . S
C906 H897 0.930 . S
C906 C904 1.384 . S
C906 C907 1.372 . S
C907 C906 1.372 . S
C907 C908 1.400 . S
C907 C912 1.490 . S
C908 H898 0.930 . S
C908 C907 1.400 . S
C908 C911 1.386 . S
H909 C925 0.930 . S
H910 C926 0.931 . S
C911 H899 0.929 . S
C911 C905 1.390 . S
C911 C908 1.386 . S
C912 C907 1.490 . S
C912 C914 1.395 . S
C912 C915 1.403 . S
H913 C919 0.930 . S
C914 H900 0.930 . S
C914 C912 1.395 . S
C914 C917 1.403 . S
C915 C912 1.403 . S
C915 C916 1.524 . S
C915 C919 1.400 . S
C916 H901 0.960 . S
C916 H902 0.960 . S
C916 H903 0.960 . S
C916 C915 1.524 . S
C917 C914 1.403 . S
C917 C918 1.392 . S
C917 C921 1.495 . S
C918 C917 1.392 . S
C918 C919 1.385 . S
C918 C920 1.478 . S
C919 H913 0.930 . S
C919 C915 1.400 . S
C919 C918 1.385 . S
C920 C918 1.478 . S
C920 C922 1.381 . S
C920 C926 1.383 . S
C921 C917 1.495 . S
C921 H927 0.959 . S
C921 H928 0.961 . S
C921 H929 0.960 . S
C922 C920 1.381 . S
C922 C923 1.394 . S
C922 H930 0.930 . S
C923 C922 1.394 . S
C923 C924 1.383 . S
C923 H931 0.929 . S
C924 C923 1.383 . S
C924 C925 1.377 . S
C925 H909 0.930 . S
C925 C924 1.377 . S
C925 C926 1.379 . S
C926 H910 0.931 . S
C926 C920 1.383 . S
C926 C925 1.379 . S
H927 C921 0.959 . S
H928 C921 0.961 . S
H929 C921 0.960 . S
H930 C922 0.930 . S
H931 C923 0.929 . S
H932 C940 0.929 . S
H933 C942 0.930 . S
H934 C944 0.930 . S
H935 C947 0.929 1_554 S
H936 C950 0.930 . S
H937 C952 0.960 . S
H938 C952 0.960 . S
H939 C952 0.960 1_554 S
C940 H932 0.929 . S
C940 C941 1.377 . S
C940 C942 1.384 . S
C941 C940 1.377 . S
C941 C947 1.390 . S
C942 H933 0.930 . S
C942 C940 1.384 . S
C942 C943 1.372 . S
C943 C942 1.372 . S
C943 C944 1.400 . S
C943 C948 1.490 . S
C944 H934 0.930 . S
C944 C943 1.400 . S
C944 C947 1.386 . S
H945 C961 0.930 . S
H946 C962 0.931 . S
C947 H935 0.929 1_556 S
C947 C941 1.390 . S
C947 C944 1.386 . S
C948 C943 1.490 . S
C948 C950 1.395 . S
C948 C951 1.403 . S
H949 C955 0.930 . S
C950 H936 0.930 . S
C950 C948 1.395 . S
C950 C953 1.403 . S
C951 C948 1.403 . S
C951 C952 1.524 . S
C951 C955 1.400 . S
C952 H937 0.960 . S
C952 H938 0.960 . S
C952 H939 0.960 1_556 S
C952 C951 1.524 . S
C953 C950 1.403 . S
C953 C954 1.392 . S
C953 C957 1.495 . S
C954 C953 1.392 . S
C954 C955 1.385 . S
C954 C956 1.478 . S
C955 H949 0.930 . S
C955 C951 1.400 . S
C955 C954 1.385 . S
C956 C954 1.478 . S
C956 C958 1.381 . S
C956 C962 1.383 . S
C957 C953 1.495 . S
C957 H963 0.959 . S
C957 H964 0.961 . S
C957 H965 0.960 . S
C958 C956 1.381 . S
C958 C959 1.394 . S
C958 H966 0.930 . S
C959 C958 1.394 . S
C959 C960 1.383 . S
C959 H967 0.929 . S
C960 C959 1.383 . S
C960 C961 1.377 . S
C961 H945 0.930 . S
C961 C960 1.377 . S
C961 C962 1.379 . S
C962 H946 0.931 . S
C962 C956 1.383 . S
C962 C961 1.379 . S
H963 C957 0.959 . S
H964 C957 0.961 . S
H965 C957 0.960 . S
H966 C958 0.930 . S
H967 C959 0.929 . S
H968 C976 0.929 . S
H969 C978 0.930 1_455 S
H970 C980 0.930 . S
H971 C983 0.929 . S
H972 C986 0.930 1_455 S
H973 C988 0.960 . S
H974 C988 0.960 . S
H975 C988 0.960 . S
C976 H968 0.929 . S
C976 C977 1.377 . S
C976 C978 1.384 . S
C977 C976 1.377 . S
C977 C983 1.390 . S
C978 H969 0.930 1_655 S
C978 C976 1.384 . S
C978 C979 1.372 . S
C979 C978 1.372 . S
C979 C980 1.400 . S
C979 C984 1.490 . S
C980 H970 0.930 . S
C980 C979 1.400 . S
C980 C983 1.386 . S
H981 C997 0.930 . S
H982 C998 0.931 . S
C983 H971 0.929 . S
C983 C977 1.390 . S
C983 C980 1.386 . S
C984 C979 1.490 . S
C984 C986 1.395 . S
C984 C987 1.403 . S
H985 C991 0.930 . S
C986 H972 0.930 1_655 S
C986 C984 1.395 . S
C986 C989 1.403 . S
C987 C984 1.403 . S
C987 C988 1.524 . S
C987 C991 1.400 . S
C988 H973 0.960 . S
C988 H974 0.960 . S
C988 H975 0.960 . S
C988 C987 1.524 . S
C989 C986 1.403 . S
C989 C990 1.392 . S
C989 C993 1.495 1_655 S
C990 C989 1.392 . S
C990 C991 1.385 . S
C990 C992 1.478 . S
C991 H985 0.930 . S
C991 C987 1.400 . S
C991 C990 1.385 . S
C992 C990 1.478 . S
C992 C994 1.381 1_655 S
C992 C998 1.383 . S
C993 C989 1.495 1_455 S
C993 H999 0.959 . S
C993 H1000 0.961 . S
C993 H1001 0.960 . S
C994 C992 1.381 1_455 S
C994 C995 1.394 . S
C994 H1002 0.930 . S
C995 C994 1.394 . S
C995 C996 1.383 1_455 S
C995 H1003 0.929 . S
C996 C995 1.383 1_655 S
C996 C997 1.377 . S
C997 H981 0.930 . S
C997 C996 1.377 . S
C997 C998 1.379 . S
C998 H982 0.931 . S
C998 C992 1.383 . S
C998 C997 1.379 . S
H999 C993 0.959 . S
H1000 C993 0.961 . S
H1001 C993 0.960 . S
H1002 C994 0.930 . S
H1003 C995 0.929 . S
H1004 C1012 0.929 . S
H1005 C1014 0.930 . S
H1006 C1016 0.930 . S
H1007 C1019 0.929 . S
H1008 C1022 0.930 . S
H1009 C1024 0.960 . S
H1010 C1024 0.960 . S
H1011 C1024 0.960 . S
C1012 H1004 0.929 . S
C1012 C1013 1.377 . S
C1012 C1014 1.384 . S
C1013 C1012 1.377 . S
C1013 C1019 1.390 . S
C1014 H1005 0.930 . S
C1014 C1012 1.384 . S
C1014 C1015 1.372 . S
C1015 C1014 1.372 . S
C1015 C1016 1.400 . S
C1015 C1020 1.490 . S
C1016 H1006 0.930 . S
C1016 C1015 1.400 . S
C1016 C1019 1.386 . S
H1017 C1033 0.930 . S
H1018 C1034 0.931 . S
C1019 H1007 0.929 . S
C1019 C1013 1.390 . S
C1019 C1016 1.386 . S
C1020 C1015 1.490 . S
C1020 C1022 1.395 . S
C1020 C1023 1.447 . S
H1021 C1027 0.890 1_545 S
C1022 H1008 0.930 . S
C1022 C1020 1.395 . S
C1022 C1025 1.403 . S
C1023 C1020 1.447 . S
C1023 C1024 1.481 1_565 S
C1023 C1027 1.400 . S
C1024 H1009 0.960 . S
C1024 H1010 0.960 . S
C1024 H1011 0.960 . S
C1024 C1023 1.481 1_545 S
C1025 C1022 1.403 . S
C1025 C1026 1.392 . S
C1025 C1029 1.495 . S
C1026 C1025 1.392 . S
C1026 C1027 1.424 . S
C1026 C1028 1.478 . S
C1027 H1021 0.890 1_565 S
C1027 C1023 1.400 . S
C1027 C1026 1.424 . S
C1028 C1026 1.478 . S
C1028 C1030 1.381 . S
C1028 C1034 1.383 . S
C1029 C1025 1.495 . S
C1029 H1035 0.959 . S
C1029 H1036 0.961 . S
C1029 H1037 0.960 . S
C1030 C1028 1.381 . S
C1030 C1031 1.394 . S
C1030 H1038 0.930 . S
C1031 C1030 1.394 . S
C1031 C1032 1.383 . S
C1031 H1039 0.929 . S
C1032 C1031 1.383 . S
C1032 C1033 1.377 . S
C1033 H1017 0.930 . S
C1033 C1032 1.377 . S
C1033 C1034 1.379 . S
C1034 H1018 0.931 . S
C1034 C1028 1.383 . S
C1034 C1033 1.379 . S
H1035 C1029 0.959 . S
H1036 C1029 0.961 . S
H1037 C1029 0.960 . S
H1038 C1030 0.930 . S
H1039 C1031 0.929 . S
H1040 C1048 0.929 . S
H1041 C1050 0.930 . S
H1042 C1052 0.930 . S
H1043 C1055 0.929 . S
H1044 C1058 0.930 . S
H1045 C1060 0.960 . S
H1046 C1060 0.960 . S
H1047 C1060 0.960 . S
C1048 H1040 0.929 . S
C1048 C1049 1.377 . S
C1048 C1050 1.384 . S
C1049 C1048 1.377 . S
C1049 C1055 1.390 . S
C1050 H1041 0.930 . S
C1050 C1048 1.384 . S
C1050 C1051 1.372 . S
C1051 C1050 1.372 . S
C1051 C1052 1.400 . S
C1051 C1056 1.490 . S
C1052 H1042 0.930 . S
C1052 C1051 1.400 . S
C1052 C1055 1.386 . S
H1053 C1069 0.930 . S
H1054 C1070 0.931 . S
C1055 H1043 0.929 . S
C1055 C1049 1.390 . S
C1055 C1052 1.386 . S
C1056 C1051 1.490 . S
C1056 C1058 1.395 . S
C1056 C1059 1.403 . S
H1057 C1063 0.930 . S
C1058 H1044 0.930 . S
C1058 C1056 1.395 . S
C1058 C1061 1.403 . S
C1059 C1056 1.403 . S
C1059 C1060 1.524 . S
C1059 C1063 1.400 . S
C1060 H1045 0.960 . S
C1060 H1046 0.960 . S
C1060 H1047 0.960 . S
C1060 C1059 1.524 . S
C1061 C1058 1.403 . S
C1061 C1062 1.392 . S
C1061 C1065 1.495 . S
C1062 C1061 1.392 . S
C1062 C1063 1.385 . S
C1062 C1064 1.478 . S
C1063 H1057 0.930 . S
C1063 C1059 1.400 . S
C1063 C1062 1.385 . S
C1064 C1062 1.478 . S
C1064 C1066 1.381 . S
C1064 C1070 1.383 . S
C1065 C1061 1.495 . S
C1065 H1071 0.959 . S
C1065 H1072 0.961 . S
C1065 H1073 0.960 . S
C1066 C1064 1.381 . S
C1066 C1067 1.394 . S
C1066 H1074 0.930 . S
C1067 C1066 1.394 . S
C1067 C1068 1.383 . S
C1067 H1075 0.929 . S
C1068 C1067 1.383 . S
C1068 C1069 1.377 . S
C1069 H1053 0.930 . S
C1069 C1068 1.377 . S
C1069 C1070 1.379 . S
C1070 H1054 0.931 . S
C1070 C1064 1.383 . S
C1070 C1069 1.379 . S
H1071 C1065 0.959 . S
H1072 C1065 0.961 . S
H1073 C1065 0.960 . S
H1074 C1066 0.930 . S
H1075 C1067 0.929 . S
H1076 C1084 0.929 . S
H1077 C1086 0.930 . S
H1078 C1088 0.930 . S
H1079 C1091 0.929 . S
H1080 C1094 0.930 . S
H1081 C1096 0.960 . S
H1082 C1096 0.960 . S
H1083 C1096 0.960 . S
C1084 H1076 0.929 . S
C1084 C1085 1.377 . S
C1084 C1086 1.384 . S
C1085 C1084 1.377 . S
C1085 C1091 1.390 . S
C1086 H1077 0.930 . S
C1086 C1084 1.384 . S
C1086 C1087 1.372 . S
C1087 C1086 1.372 . S
C1087 C1088 1.400 . S
C1087 C1092 1.490 . S
C1088 H1078 0.930 . S
C1088 C1087 1.400 . S
C1088 C1091 1.386 . S
H1089 C1105 0.930 . S
H1090 C1106 0.931 . S
C1091 H1079 0.929 . S
C1091 C1085 1.390 . S
C1091 C1088 1.386 . S
C1092 C1087 1.490 . S
C1092 C1094 1.395 . S
C1092 C1095 1.403 . S
H1093 C1099 0.930 . S
C1094 H1080 0.930 . S
C1094 C1092 1.395 . S
C1094 C1097 1.403 . S
C1095 C1092 1.403 . S
C1095 C1096 1.524 . S
C1095 C1099 1.400 . S
C1096 H1081 0.960 . S
C1096 H1082 0.960 . S
C1096 H1083 0.960 . S
C1096 C1095 1.524 . S
C1097 C1094 1.403 . S
C1097 C1098 1.392 . S
C1097 C1101 1.495 . S
C1098 C1097 1.392 . S
C1098 C1099 1.385 . S
C1098 C1100 1.478 . S
C1099 H1093 0.930 . S
C1099 C1095 1.400 . S
C1099 C1098 1.385 . S
C1100 C1098 1.478 . S
C1100 C1102 1.381 . S
C1100 C1106 1.383 . S
C1101 C1097 1.495 . S
C1101 H1107 0.959 . S
C1101 H1108 0.961 . S
C1101 H1109 0.960 . S
C1102 C1100 1.381 . S
C1102 C1103 1.394 . S
C1102 H1110 0.930 . S
C1103 C1102 1.394 . S
C1103 C1104 1.383 . S
C1103 H1111 0.929 . S
C1104 C1103 1.383 . S
C1104 C1105 1.377 . S
C1105 H1089 0.930 . S
C1105 C1104 1.377 . S
C1105 C1106 1.379 . S
C1106 H1090 0.931 . S
C1106 C1100 1.383 . S
C1106 C1105 1.379 . S
H1107 C1101 0.959 . S
H1108 C1101 0.961 . S
H1109 C1101 0.960 . S
H1110 C1102 0.930 . S
H1111 C1103 0.929 . S
C257 C76 2.130 . S
C276 C119 2.273 . S
C312 C145 1.666 . S
C293 C87 1.580 . S
C348 C185 1.827 . S
C329 C54 1.728 . S
C384 C239 2.362 . S
C365 C65 2.246 . S
C420 C100 2.274 1_565 S
C401 C32 2.139 . S
C437 C43 1.576 . S
C456 C130 1.673 . S
C473 C10 1.736 . S
C492 C170 1.826 . S
C509 C21 2.244 . S
C528 C220 2.354 1_655 S
C564 C96 0.253 . S
C545 C60 0.353 . S
C600 C157 0.583 . S
C581 C71 0.550 . S
C636 C197 0.477 . S
C617 C82 0.425 . S
C653 C49 0.351 . S
C672 C216 0.133 . S
C689 C16 0.399 . S
C708 C117 0.291 . S
C744 C136 0.497 . S
C725 C27 0.557 . S
C780 C176 0.464 . S
C761 C38 0.420 . S
C797 C5 0.384 . S
C816 C237 0.222 . S
C833 C59 1.755 . S
C852 C90 1.929 . S
C869 C70 2.373 . S
C888 C140 2.555 . S
C924 C180 2.299 . S
C905 C81 2.139 . S
C960 C210 1.666 . S
C941 C48 1.542 1_556 S
C977 C15 1.758 . S
C996 C105 1.923 . S
C1032 C159 2.565 . S
C1013 C26 2.362 . S
C1068 C199 2.299 . S
C1049 C37 2.136 . S
C1085 C4 1.530 . S
C1104 C225 1.658 . S
