# Generated by pormake.
# Topology anh, (6,3)-cn, num edge types: 1
# Building blocks:
#     Node 0, Type 0, BuildingBlock: GEDQOX_clean_sbu_0, # of connection points: 6
#     Node 1, Type 0, BuildingBlock: GEDQOX_clean_sbu_0, # of connection points: 6
#     Node 2, Type 0, BuildingBlock: GEDQOX_clean_sbu_0, # of connection points: 6
#     Node 3, Type 1, BuildingBlock: PAMTOO_clean_linker_0, # of connection points: 3
#     Node 4, Type 1, BuildingBlock: PAMTOO_clean_linker_0, # of connection points: 3
#     Node 5, Type 1, BuildingBlock: PAMTOO_clean_linker_0, # of connection points: 3
#     Node 6, Type 1, BuildingBlock: PAMTOO_clean_linker_0, # of connection points: 3
#     Node 7, Type 1, BuildingBlock: PAMTOO_clean_linker_0, # of connection points: 3
#     Node 8, Type 1, BuildingBlock: PAMTOO_clean_linker_0, # of connection points: 3
#     Edge 9, Type (0, 1), BuildingBlock: XUDNAN_clean_linker_2, # of connection points: 2
#     Edge 10, Type (0, 1), BuildingBlock: XUDNAN_clean_linker_2, # of connection points: 2
#     Edge 11, Type (0, 1), BuildingBlock: XUDNAN_clean_linker_2, # of connection points: 2
#     Edge 12, Type (0, 1), BuildingBlock: XUDNAN_clean_linker_2, # of connection points: 2
#     Edge 13, Type (0, 1), BuildingBlock: XUDNAN_clean_linker_2, # of connection points: 2
#     Edge 14, Type (0, 1), BuildingBlock: XUDNAN_clean_linker_2, # of connection points: 2
#     Edge 15, Type (0, 1), BuildingBlock: XUDNAN_clean_linker_2, # of connection points: 2
#     Edge 16, Type (0, 1), BuildingBlock: XUDNAN_clean_linker_2, # of connection points: 2
#     Edge 17, Type (0, 1), BuildingBlock: XUDNAN_clean_linker_2, # of connection points: 2
#     Edge 18, Type (0, 1), BuildingBlock: XUDNAN_clean_linker_2, # of connection points: 2
#     Edge 19, Type (0, 1), BuildingBlock: XUDNAN_clean_linker_2, # of connection points: 2
#     Edge 20, Type (0, 1), BuildingBlock: XUDNAN_clean_linker_2, # of connection points: 2
#     Edge 21, Type (0, 1), BuildingBlock: XUDNAN_clean_linker_2, # of connection points: 2
#     Edge 22, Type (0, 1), BuildingBlock: XUDNAN_clean_linker_2, # of connection points: 2
#     Edge 23, Type (0, 1), BuildingBlock: XUDNAN_clean_linker_2, # of connection points: 2
#     Edge 24, Type (0, 1), BuildingBlock: XUDNAN_clean_linker_2, # of connection points: 2
#     Edge 25, Type (0, 1), BuildingBlock: XUDNAN_clean_linker_2, # of connection points: 2
#     Edge 26, Type (0, 1), BuildingBlock: XUDNAN_clean_linker_2, # of connection points: 2
# Relax obj value: 0.165
# Max RMSD: 0.190
# Mean RMSD: 0.128
data_MOF--net-anh--node1-GEDQOX_clean_sbu_0--node2-PAMTOO_clean_linker_0--edge1-XUDNAN_clean_linker_2
_symmetry_space_group_name_H-M    P1
_symmetry_Int_Tables_number       1
_symmetry_cell_setting            triclinic
loop_
_symmetry_equiv_pos_as_xyz
'x, y, z'
_cell_length_a     30.370282
_cell_length_b     29.43031
_cell_length_c     49.059668
_cell_angle_alpha  89.59787
_cell_angle_beta   91.592911
_cell_angle_gamma 101.89208
loop_
_atom_site_label
_atom_site_type_symbol
_atom_site_fract_x
_atom_site_fract_y
_atom_site_fract_z
_atom_type_partial_charge
Nd0 Nd 0.1458 0.5562 0.14815 0.0
Nd1 Nd 0.13204 0.4547 0.16388 0.0
C2 C 0.17579 0.64007 0.12769 0.0
C3 C 0.21863 0.67488 0.12996 0.0
C4 C 0.25966 0.66416 0.12245 0.0
C5 C 0.30017 0.69637 0.12644 0.0
C6 C 0.30064 0.74026 0.13782 0.0
C7 C 0.25937 0.75124 0.14474 0.0
C8 C 0.21889 0.71892 0.14085 0.0
C9 C 0.13819 0.54055 0.20307 0.0
C10 C 0.2363 0.50688 0.15731 0.0
C11 C 0.10507 0.37098 0.18547 0.0
C12 C 1.06275 0.33636 0.18821 0.0
C13 C 1.0642 0.28925 0.19078 0.0
C14 C 1.02437 0.25564 0.19229 0.0
C15 C 0.98219 0.2685 0.19125 0.0
C16 C 0.98093 0.31593 0.18896 0.0
C17 C 1.02086 0.34949 0.18736 0.0
C18 C 0.14261 0.47287 0.10935 0.0
C19 C 1.0416 0.50292 0.15182 0.0
O20 O 0.17635 0.6017 0.11452 0.0
O21 O 0.15218 0.63272 0.14975 0.0
O22 O 0.12135 0.57154 0.18988 0.0
O23 O 0.16024 0.51989 0.18758 0.0
O24 O 0.21855 0.5412 0.14705 0.0
O25 O 0.21013 0.47026 0.16856 0.0
O26 O 0.10921 0.40954 0.19934 0.0
O27 O 0.12009 0.37792 0.16078 0.0
O28 O 0.15926 0.44125 0.12211 0.0
O29 O 0.11907 0.49124 0.12498 0.0
O30 O 1.05911 0.47013 0.16427 0.0
O31 O 1.06837 0.53837 0.13989 0.0
H32 H 0.26063 0.63063 0.11384 0.0
H33 H 0.33123 0.68641 0.12111 0.0
H34 H 0.25826 0.78495 0.15307 0.0
H35 H 0.18771 0.72819 0.14664 0.0
H36 H 0.09621 0.27839 0.19145 0.0
H37 H 1.02665 0.21954 0.19444 0.0
H38 H 0.94908 0.32705 0.18781 0.0
H39 H 1.01905 0.38562 0.18518 0.0
Nd40 Nd 0.54708 0.99325 0.51562 0.0
Nd41 Nd 0.65297 0.02311 0.5028 0.0
C42 C 0.46407 0.95547 0.52985 0.0
C43 C 0.43586 0.90844 0.53064 0.0
C44 C 0.45529 0.86912 0.53076 0.0
C45 C 0.42803 0.82465 0.52929 0.0
C46 C 0.38089 0.81869 0.52764 0.0
C47 C 0.36159 0.85822 0.52785 0.0
C48 C 0.38888 0.90271 0.52932 0.0
C49 C 0.57047 0.02 0.46354 0.0
C50 C 0.60639 0.91218 0.5054 0.0
C51 C 0.72815 0.05074 0.47627 0.0
C52 C 0.77134 0.08472 0.47575 0.0
C53 C 0.7732 0.1328 0.47416 0.0
C54 C 0.81436 0.16363 0.47041 0.0
C55 C 0.85433 0.14694 0.4681 0.0
C56 C 0.85246 0.09899 0.47085 0.0
C57 C 0.81142 0.06827 0.47454 0.0
C58 C 0.63948 1.01773 0.55841 0.0
C59 C 0.59554 0.10157 0.5212 0.0
O60 O 0.49812 0.96474 0.54731 0.0
O61 O 0.4743 0.97178 0.50548 0.0
O62 O 0.53742 0.03227 0.47578 0.0
O63 O 0.5895 0.99452 0.47854 0.0
O64 O 0.56933 0.92285 0.51482 0.0
O65 O 0.64086 0.94396 0.49702 0.0
O66 O 0.691 0.06558 0.47054 0.0
O67 O 0.72356 0.01858 0.49525 0.0
O68 O 0.6793 0.03018 0.54826 0.0
O69 O 0.61113 1.00976 0.53913 0.0
O70 O 0.62865 0.09272 0.50621 0.0
O71 O 0.56359 0.06824 0.53096 0.0
H72 H 0.49148 0.87278 0.53149 0.0
H73 H 0.44385 0.79495 0.52866 0.0
H74 H 0.32538 0.85477 0.52685 0.0
H75 H 0.37332 0.9327 0.52902 0.0
H76 H 0.74279 0.14651 0.47501 0.0
H77 H 0.81456 0.20031 0.46819 0.0
H78 H 0.88269 0.08506 0.46963 0.0
H79 H 0.81085 0.03137 0.47569 0.0
Nd80 Nd 0.59915 0.52958 0.82428 0.0
Nd81 Nd 0.69512 0.54641 0.83893 0.0
C82 C 0.51704 0.5328 0.80636 0.0
C83 C 0.48406 0.55929 0.81526 0.0
C84 C 0.45463 0.57374 0.79618 0.0
C85 C 0.42517 0.60152 0.80433 0.0
C86 C 0.4247 0.61521 0.83176 0.0
C87 C 0.45416 0.60025 0.85081 0.0
C88 C 0.48377 0.57284 0.8426 0.0
C89 C 0.61825 0.52722 0.87997 0.0
C90 C 0.65319 0.63621 0.83528 0.0
C91 C 0.77629 0.54548 0.85888 0.0
C92 C 0.81375 0.52444 0.85068 0.0
C93 C 0.8079 0.47681 0.84469 0.0
C94 C 0.84439 0.45851 0.83627 0.0
C95 C 0.8868 0.48777 0.83325 0.0
C96 C 0.89205 0.53542 0.83893 0.0
C97 C 0.85598 0.55345 0.8476 0.0
C98 C 0.68063 0.55659 0.78406 0.0
C99 C 0.64223 0.43999 0.82361 0.0
O100 O 0.55328 0.55753 0.7958 0.0
O101 O 0.52574 0.50104 0.82326 0.0
O102 O 0.58588 0.49798 0.86805 0.0
O103 O 0.63721 0.55608 0.86304 0.0
O104 O 0.62216 0.60948 0.8199 0.0
O105 O 0.68145 0.61767 0.8504 0.0
O106 O 0.74006 0.51773 0.86767 0.0
O107 O 0.76751 0.57809 0.84269 0.0
O108 O 0.71245 0.58228 0.79841 0.0
O109 O 0.65835 0.52432 0.7983 0.0
O110 O 0.67452 0.46576 0.83871 0.0
O111 O 0.61131 0.45894 0.81135 0.0
H112 H 0.45492 0.56412 0.77491 0.0
H113 H 0.40337 0.61294 0.78907 0.0
H114 H 0.45422 0.60945 0.87214 0.0
H115 H 0.50668 0.56251 0.85761 0.0
H116 H 0.77537 0.45375 0.84663 0.0
H117 H 0.83963 0.42161 0.83236 0.0
H118 H 0.9246 0.55869 0.83766 0.0
H119 H 0.86114 0.59023 0.85204 0.0
H120 H 0.70672 0.0903 0.2715 0.0
H121 H 0.58295 0.98945 0.2626 0.0
H122 H 0.66658 0.02538 0.19348 0.0
H123 H 0.56884 1.01361 0.18071 0.0
C124 C 0.55567 0.98868 0.19716 0.0
O125 O 0.59112 0.97463 0.21064 0.0
H126 H 0.53754 1.00699 0.21154 0.0
C127 C 0.68296 0.06681 0.2586 0.0
C128 C 0.69225 0.06119 0.231 0.0
C129 C 0.64381 0.041 0.2701 0.0
C130 C 0.6134 1.00936 0.25392 0.0
C131 C 0.62144 1.00422 0.22627 0.0
C132 C 0.66086 0.02979 0.2149 0.0
H133 H 0.62692 0.61902 0.58228 0.0
H134 H 0.6323 0.47419 0.58123 0.0
H135 H 0.60788 0.5435 0.50657 0.0
H136 H 0.57312 0.43564 0.49902 0.0
C137 C 0.57957 0.43273 0.52131 0.0
O138 O 0.61848 0.46424 0.52854 0.0
H139 H 0.54981 0.4409 0.53155 0.0
C140 C 0.62368 0.58675 0.57113 0.0
C141 C 0.61528 0.58627 0.54285 0.0
C142 C 0.63039 0.54688 0.58513 0.0
C143 C 0.62666 0.50513 0.57077 0.0
C144 C 0.61857 0.50391 0.54246 0.0
C145 C 0.6134 0.54456 0.52848 0.0
H146 H 0.18437 0.54981 0.9166 0.0
H147 H 0.18775 0.68998 0.94208 0.0
H148 H 0.11805 0.64007 0.86808 0.0
H149 H 0.1688 0.78074 0.89098 0.0
C150 C 0.16633 0.74622 0.88137 0.0
O151 O 0.14425 0.71231 0.89891 0.0
H152 H 0.14548 0.74596 0.86237 0.0
C153 C 0.17656 0.58352 0.91254 0.0
C154 C 0.15028 0.58991 0.88933 0.0
C155 C 0.18831 0.61855 0.93231 0.0
C156 C 0.1788 0.66252 0.92709 0.0
C157 C 0.15488 0.67029 0.90337 0.0
C158 C 0.13956 0.63388 0.88506 0.0
H159 H 0.09321 0.4049 0.38632 0.0
H160 H 0.18183 0.52779 0.41785 0.0
H161 H 0.12344 0.4191 0.47258 0.0
H162 H 0.14089 0.51353 0.50078 0.0
C163 C 0.15936 0.53187 0.48331 0.0
O164 O 0.17747 0.50067 0.46861 0.0
H165 H 0.1348 0.54659 0.47049 0.0
C166 C 0.11124 0.42433 0.40334 0.0
C167 C 0.10522 0.40636 0.42992 0.0
C168 C 0.13834 0.46834 0.39874 0.0
C169 C 0.16048 0.49392 0.421 0.0
C170 C 0.15522 0.47605 0.44748 0.0
C171 C 0.12742 0.43253 0.45197 0.0
H172 H 0.62451 0.93977 0.75842 0.0
H173 H 0.65822 0.08828 0.7635 0.0
H174 H 0.68742 1.00719 0.83186 0.0
H175 H 0.67778 0.10946 0.85294 0.0
C176 C 0.66189 0.10942 0.83226 0.0
O177 O 0.68785 0.09136 0.81409 0.0
H178 H 0.6276 0.08705 0.83363 0.0
C179 C 0.63876 0.97052 0.77015 0.0
C180 C 0.65626 0.96665 0.79682 0.0
C181 C 0.64054 1.01398 0.75776 0.0
C182 C 0.65701 0.05453 0.77277 0.0
C183 C 0.67234 0.05178 0.79975 0.0
C184 C 0.67312 1.00815 0.81148 0.0
H185 H 0.73696 0.50803 0.07898 0.0
H186 H 0.59792 0.51489 0.086 0.0
H187 H 0.67671 0.49671 0.15811 0.0
H188 H 0.56166 0.44897 0.15855 0.0
C189 C 0.5567 0.47093 0.14068 0.0
O190 O 0.59493 0.50658 0.1387 0.0
H191 H 0.55291 0.44852 0.12224 0.0
C192 C 0.70844 0.50781 0.0918 0.0
C193 C 0.71348 0.50291 0.12021 0.0
C194 C 0.66723 0.51203 0.0793 0.0
C195 C 0.62943 0.51027 0.0954 0.0
C196 C 0.63199 0.50407 0.12373 0.0
C197 C 0.67421 0.50009 0.13617 0.0
H198 H 0.2887 0.43944 0.16758 0.0
H199 H 0.2996 0.58268 0.14216 0.0
H200 H 0.3809 0.59009 0.13609 0.0
H201 H 0.39698 0.45727 0.20502 0.0
H202 H 0.40934 0.40276 0.19454 0.0
H203 H 0.35172 0.40856 0.19742 0.0
H204 H 0.33519 0.38171 0.1474 0.0
H205 H 0.39273 0.37583 0.14438 0.0
H206 H 0.36911 0.41206 0.12073 0.0
H207 H 0.46275 0.58158 0.13093 0.0
H208 H 0.53626 0.55788 0.12844 0.0
H209 H 0.47478 0.42102 0.15796 0.0
C210 C 0.30818 0.4725 0.16096 0.0
C211 C 0.28676 0.51046 0.15532 0.0
C212 C 0.31424 0.55282 0.1465 0.0
C213 C 0.36091 0.55748 0.14301 0.0
C214 C 0.38079 0.51953 0.14844 0.0
C215 C 0.35531 0.47782 0.15734 0.0
C216 C 0.38519 0.44231 0.16141 0.0
C217 C 0.38584 0.42681 0.19138 0.0
C218 C 0.36962 0.4005 0.14235 0.0
C219 C 0.43117 0.47044 0.15341 0.0
C220 C 0.42788 0.51496 0.14595 0.0
C221 C 0.46562 0.5469 0.13708 0.0
C222 C 0.50756 0.53319 0.13582 0.0
C223 C 0.51217 0.4879 0.1437 0.0
C224 C 0.47294 0.45627 0.15241 0.0
H225 H 0.8892 0.23497 0.48796 0.0
H226 H 0.91601 0.13142 0.43163 0.0
H227 H 0.98568 0.18466 0.41814 0.0
H228 H 0.92564 0.33246 0.44524 0.0
H229 H 0.95063 0.3708 0.4725 0.0
H230 H 0.90437 0.3234 0.47923 0.0
H231 H 0.95241 0.29297 0.51692 0.0
H232 H 0.9989 0.34029 0.51026 0.0
H233 H 1.00648 0.28122 0.50872 0.0
H234 H 1.04934 0.2506 0.40822 0.0
H235 H 0.10382 0.32501 0.40326 0.0
H236 H 1.03671 0.38592 0.46612 0.0
C237 C 0.90984 0.22343 0.47289 0.0
C238 C 0.89725 0.17878 0.46104 0.0
C239 C 0.92531 0.16503 0.44141 0.0
C240 C 0.96488 0.19513 0.43349 0.0
C241 C 0.97617 0.23888 0.44544 0.0
C242 C 0.94964 0.25302 0.4648 0.0
C243 C 0.96881 0.3025 0.47379 0.0
C244 C 0.93537 0.33415 0.46729 0.0
C245 C 0.98246 0.30433 0.50423 0.0
C246 C 1.00974 0.31418 0.45608 0.0
C247 C 1.01338 0.27691 0.43994 0.0
C248 C 1.04714 0.27989 0.42094 0.0
C249 C 1.07779 0.32224 0.4182 0.0
C250 C 1.07459 0.36095 0.43444 0.0
C251 C 1.0404 0.35658 0.45382 0.0
H252 H 0.65129 0.69321 0.79153 0.0
H253 H 0.66134 0.69308 0.87976 0.0
H254 H 0.66277 0.77778 0.88014 0.0
H255 H 0.72959 0.80349 0.78358 0.0
H256 H 0.69984 0.82008 0.75407 0.0
H257 H 0.69785 0.75959 0.76121 0.0
H258 H 0.61067 0.74435 0.76055 0.0
H259 H 0.61242 0.80485 0.75361 0.0
H260 H 0.58282 0.77747 0.78269 0.0
H261 H 0.65745 0.86222 0.87019 0.0
H262 H 0.65487 0.93941 0.85135 0.0
H263 H 0.66066 0.88513 0.76952 0.0
C264 C 0.65369 0.71113 0.8109 0.0
C265 C 0.65566 0.68685 0.83565 0.0
C266 C 0.65969 0.71131 0.86062 0.0
C267 C 0.66038 0.75927 0.861 0.0
C268 C 0.6582 0.78234 0.83618 0.0
C269 C 0.65591 0.75914 0.81159 0.0
C270 C 0.6564 0.79216 0.78774 0.0
C271 C 0.69843 0.79394 0.77065 0.0
C272 C 0.61299 0.77891 0.77011 0.0
C273 C 0.6584 0.83745 0.80268 0.0
C274 C 0.65878 0.83111 0.83057 0.0
C275 C 0.65806 0.86769 0.84836 0.0
C276 C 0.65701 0.91179 0.83735 0.0
C277 C 0.65763 0.91955 0.80871 0.0
C278 C 0.65897 0.88137 0.79141 0.0
H279 H 0.98671 0.55018 0.11993 0.0
H280 H 0.98024 0.44722 0.18414 0.0
H281 H 0.89781 0.43822 0.1847 0.0
H282 H 0.89714 0.60388 0.14485 0.0
H283 H 0.8749 0.61298 0.11127 0.0
H284 H 0.93377 0.61216 0.11615 0.0
H285 H 0.92643 0.54723 0.08001 0.0
H286 H 0.8676 0.54797 0.07499 0.0
H287 H 0.88466 0.49452 0.08392 0.0
H288 H 0.81324 0.43962 0.17798 0.0
H289 H 0.73698 0.44902 0.16291 0.0
H290 H 0.7974 0.55182 0.10376 0.0
C291 C 0.96806 0.52587 0.13421 0.0
C292 C 0.99089 0.49913 0.15186 0.0
C293 C 0.96437 0.46771 0.17006 0.0
C294 C 0.91712 0.46253 0.17069 0.0
C295 C 0.89574 0.48903 0.15301 0.0
C296 C 0.92043 0.52008 0.13505 0.0
C297 C 0.88897 0.54362 0.11778 0.0
C298 C 0.89932 0.59629 0.12282 0.0
C299 C 0.89211 0.53268 0.08737 0.0
C300 C 0.84297 0.52088 0.12867 0.0
C301 C 0.84753 0.48964 0.14912 0.0
C302 C 0.80955 0.46416 0.16198 0.0
C303 C 0.76606 0.46998 0.15341 0.0
C304 C 0.76015 0.50089 0.13193 0.0
C305 C 0.79984 0.5272 0.11994 0.0
H306 H 0.30731 0.79035 0.49353 0.0
H307 H 0.38966 0.74015 0.5559 0.0
H308 H 0.34231 0.66135 0.55129 0.0
H309 H 0.20086 0.72139 0.51331 0.0
H310 H 0.1796 0.71114 0.47875 0.0
H311 H 0.21999 0.76344 0.48707 0.0
H312 H 0.27266 0.74415 0.45012 0.0
H313 H 0.23249 0.69173 0.44172 0.0
H314 H 0.28966 0.68896 0.45116 0.0
H315 H 0.28527 0.58808 0.54014 0.0
H316 H 0.22341 0.52565 0.52264 0.0
H317 H 0.17924 0.62374 0.46733 0.0
C318 C 0.31512 0.76289 0.50642 0.0
C319 C 0.35208 0.77144 0.52517 0.0
C320 C 0.3617 0.73433 0.54128 0.0
C321 C 0.3349 0.68952 0.53888 0.0
C322 C 0.29874 0.68232 0.52019 0.0
C323 C 0.28891 0.71796 0.50418 0.0
C324 C 0.24853 0.70096 0.4854 0.0
C325 C 0.20997 0.7257 0.49151 0.0
C326 C 0.26164 0.70679 0.45532 0.0
C327 C 0.23695 0.65023 0.49345 0.0
C328 C 0.26627 0.64015 0.51358 0.0
C329 C 0.26213 0.59557 0.52439 0.0
C330 C 0.22701 0.56043 0.51441 0.0
C331 C 0.19661 0.57012 0.49387 0.0
C332 C 0.20191 0.61553 0.48317 0.0
H333 H 0.69344 0.38532 0.85046 0.0
H334 H 0.58916 0.38073 0.78757 0.0
H335 H 0.58684 0.29731 0.7808 0.0
H336 H 0.75139 0.30307 0.81876 0.0
H337 H 0.76313 0.27689 0.85075 0.0
H338 H 0.75848 0.33696 0.84963 0.0
H339 H 0.69684 0.32059 0.88595 0.0
H340 H 0.70136 0.26057 0.8872 0.0
H341 H 0.64758 0.27548 0.8799 0.0
H342 H 0.59389 0.21354 0.78172 0.0
H343 H 0.60724 0.13491 0.79218 0.0
H344 H 0.70609 0.1931 0.85464 0.0
C345 C 0.67035 0.36688 0.83512 0.0
C346 C 0.64152 0.38979 0.81952 0.0
C347 C 0.61155 0.36412 0.79983 0.0
C348 C 0.61009 0.31667 0.79573 0.0
C349 C 0.63878 0.29512 0.81148 0.0
C350 C 0.66825 0.31931 0.83085 0.0
C351 C 0.69403 0.28736 0.8459 0.0
C352 C 0.74477 0.30194 0.84096 0.0
C353 C 0.68435 0.28592 0.87655 0.0
C354 C 0.67398 0.24132 0.83223 0.0
C355 C 0.6425 0.24669 0.81222 0.0
C356 C 0.61859 0.20897 0.79726 0.0
C357 C 0.62641 0.16451 0.80326 0.0
C358 C 0.65755 0.15803 0.82418 0.0
C359 C 0.68218 0.19713 0.83847 0.0
H360 H 0.56408 0.84104 0.53783 0.0
H361 H 0.65652 0.87117 0.47116 0.0
H362 H 0.66293 0.7887 0.47026 0.0
H363 H 0.62357 0.7648 0.57236 0.0
H364 H 0.57366 0.7267 0.58448 0.0
H365 H 0.57348 0.78693 0.57805 0.0
H366 H 0.50437 0.76235 0.54613 0.0
H367 H 0.50458 0.70176 0.55105 0.0
H368 H 0.50698 0.72582 0.51709 0.0
H369 H 0.66133 0.70269 0.478 0.0
H370 H 0.65727 0.62337 0.49642 0.0
H371 H 0.56729 0.65054 0.55856 0.0
C372 C 0.58505 0.83015 0.52271 0.0
C373 C 0.60937 0.86247 0.50432 0.0
C374 C 0.63747 0.84702 0.48539 0.0
C375 C 0.64113 0.80017 0.48463 0.0
C376 C 0.61682 0.7692 0.50312 0.0
C377 C 0.58967 0.78373 0.52199 0.0
C378 C 0.57006 0.74458 0.54113 0.0
C379 C 0.58617 0.75647 0.57075 0.0
C380 C 0.51841 0.73292 0.53866 0.0
C381 C 0.59025 0.7057 0.53007 0.0
C382 C 0.61681 0.72034 0.50799 0.0
C383 C 0.64033 0.69081 0.49515 0.0
C384 C 0.63757 0.64567 0.50561 0.0
C385 C 0.61187 0.63063 0.52886 0.0
C386 C 0.5872 0.66094 0.54074 0.0
H387 H 0.95287 0.52167 0.79811 0.0
H388 H 0.91296 0.41446 0.85832 0.0
H389 H 0.99161 0.40856 0.86571 0.0
H390 H 1.0736 0.48588 0.78202 0.0
H391 H 0.09743 0.547 0.77896 0.0
H392 H 1.04119 0.52393 0.76589 0.0
H393 H 1.01168 0.58396 0.79462 0.0
H394 H 1.06693 0.60648 0.80797 0.0
H395 H 1.02196 0.58573 0.83108 0.0
H396 H 1.06512 0.44014 0.88339 0.0
H397 H 0.12157 0.49907 0.90597 0.0
H398 H 0.12411 0.58851 0.83511 0.0
C399 C 0.96101 0.49502 0.8115 0.0
C400 C 0.92745 0.46916 0.82796 0.0
C401 C 0.93822 0.43452 0.8454 0.0
C402 C 0.98314 0.43107 0.84974 0.0
C403 C 1.01666 0.46226 0.83633 0.0
C404 C 1.00605 0.49253 0.81656 0.0
C405 C 1.04677 0.53024 0.81031 0.0
C406 C 1.06589 0.52119 0.78266 0.0
C407 C 1.03614 0.5794 0.81113 0.0
C408 C 1.07848 0.52222 0.83338 0.0
C409 C 1.06179 0.48106 0.84694 0.0
C410 C 1.07956 0.47132 0.87229 0.0
C411 C 0.11217 0.50553 0.8851 0.0
C412 C 0.1274 0.54926 0.8725 0.0
C413 C 0.11282 0.55579 0.84543 0.0
H414 H 0.32536 0.79949 0.18146 0.0
H415 H 0.37416 0.75846 0.10495 0.0
H416 H 0.44584 0.81447 0.11289 0.0
H417 H 0.37266 0.92084 0.17526 0.0
H418 H 0.38631 0.9288 0.21114 0.0
H419 H 0.3397 0.88397 0.19997 0.0
H420 H 0.37459 0.82259 0.22613 0.0
H421 H 0.42145 0.86721 0.23728 0.0
H422 H 0.43131 0.8173 0.2192 0.0
H423 H 0.51188 0.87664 0.12865 0.0
H424 H 0.56596 0.94169 0.15055 0.0
H425 H 0.47363 0.94294 0.21617 0.0
C426 C 0.35094 0.80239 0.16625 0.0
C427 C 0.34395 0.77427 0.14258 0.0
C428 C 0.37878 0.77895 0.12344 0.0
C429 C 0.41961 0.81087 0.12771 0.0
C430 C 0.42528 0.83797 0.15123 0.0
C431 C 0.39186 0.83412 0.17015 0.0
C432 C 0.40601 0.86805 0.19344 0.0
C433 C 0.37429 0.90245 0.19503 0.0
C434 C 0.40849 0.84223 0.22062 0.0
C435 C 0.45243 0.89198 0.18451 0.0
C436 C 0.46306 0.87395 0.16018 0.0
C437 C 0.5039 0.89099 0.1477 0.0
C438 C 0.53437 0.92783 0.16023 0.0
C439 C 0.5237 0.94741 0.18483 0.0
C440 C 0.48249 0.92868 0.19729 0.0
H441 H 0.62977 0.18038 0.49154 0.0
H442 H 0.55659 0.13326 0.56465 0.0
H443 H 0.55046 0.21377 0.57455 0.0
H444 H 0.69064 0.29331 0.51821 0.0
H445 H 0.68511 0.32311 0.48647 0.0
H446 H 0.68764 0.26245 0.48638 0.0
H447 H 0.61214 0.24351 0.45882 0.0
H448 H 0.60941 0.30402 0.4588 0.0
H449 H 0.56343 0.26138 0.47183 0.0
H450 H 0.5496 0.29879 0.57583 0.0
H451 H 0.5492 0.38146 0.56643 0.0
H452 H 0.62001 0.37384 0.49167 0.0
C453 C 0.61309 0.18717 0.50985 0.0
C454 C 0.59386 0.1505 0.52741 0.0
C455 C 0.5715 0.16071 0.55087 0.0
C456 C 0.56806 0.20641 0.55676 0.0
C457 C 0.58689 0.2417 0.53892 0.0
C458 C 0.60876 0.23267 0.51585 0.0
C459 C 0.62316 0.2765 0.49905 0.0
C460 C 0.6747 0.28961 0.49744 0.0
C461 C 0.60068 0.27101 0.47044 0.0
C462 C 0.60525 0.31132 0.51604 0.0
C463 C 0.5851 0.29062 0.53918 0.0
C464 C 0.56529 0.31538 0.55778 0.0
C465 C 0.56518 0.36224 0.5523 0.0
C466 C 0.58408 0.38371 0.52822 0.0
C467 C 0.60522 0.35811 0.51019 0.0
H468 H 0.33697 0.6105 0.81471 0.0
H469 H 0.4416 0.68642 0.86897 0.0
H470 H 0.38824 0.73204 0.88567 0.0
H471 H 0.28566 0.70905 0.7968 0.0
H472 H 0.2294 0.67412 0.79598 0.0
H473 H 0.27635 0.64852 0.78765 0.0
H474 H 0.25364 0.58556 0.82499 0.0
H475 H 0.2066 0.61102 0.83293 0.0
H476 H 0.24672 0.60344 0.85943 0.0
H477 H 0.32159 0.76426 0.89939 0.0
H478 H 0.24711 0.78315 0.90731 0.0
H479 H 0.1886 0.69135 0.84132 0.0
C480 C 0.34904 0.63735 0.82969 0.0
C481 C 0.39347 0.64466 0.8406 0.0
C482 C 0.4075 0.67957 0.86062 0.0
C483 C 0.37757 0.70595 0.87008 0.0
C484 C 0.3339 0.69743 0.85909 0.0
C485 C 0.31979 0.66427 0.83916 0.0
C486 C 0.27075 0.66096 0.83126 0.0
C487 C 0.26524 0.67396 0.80113 0.0
C488 C 0.24282 0.61235 0.83755 0.0
C489 C 0.25939 0.6972 0.85001 0.0
C490 C 0.29616 0.71767 0.86605 0.0
C491 C 0.2928 0.74931 0.88652 0.0
C492 C 0.2506 0.75996 0.89083 0.0
C493 C 0.21274 0.73953 0.87446 0.0
C494 C 0.21744 0.7083 0.85359 0.0
H495 H 0.9055 0.27106 0.21949 0.0
H496 H 0.96297 0.18422 0.16529 0.0
H497 H 0.89394 0.12325 0.16794 0.0
H498 H 0.85157 0.18069 0.26275 0.0
H499 H 0.80241 0.20488 0.26749 0.0
H500 H 0.85553 0.24256 0.26042 0.0
H501 H 0.81904 0.27663 0.21874 0.0
H502 H 0.76574 0.23909 0.22574 0.0
H503 H 0.78993 0.23806 0.19267 0.0
H504 H 0.81967 0.07041 0.17784 0.0
H505 H 0.74642 0.02933 0.19484 0.0
H506 H 0.73614 0.15154 0.24138 0.0
C507 C 0.90335 0.2395 0.20786 0.0
C508 C 0.93983 0.23245 0.19223 0.0
C509 C 0.93581 0.19024 0.1777 0.0
C510 C 0.89658 0.15551 0.17892 0.0
C511 C 0.86146 0.16344 0.19468 0.0
C512 C 0.86442 0.20441 0.20886 0.0
C513 C 0.82238 0.20362 0.22497 0.0
C514 C 0.83366 0.2082 0.25572 0.0
C515 C 0.79782 0.2416 0.21492 0.0
C516 C 0.79557 0.1556 0.21788 0.0
C517 C 0.81859 0.13308 0.20026 0.0
C518 C 0.80114 0.08788 0.19144 0.0
C519 C 0.75929 0.06491 0.20109 0.0
C520 C 0.7352 0.08706 0.21943 0.0
C521 C 0.75368 0.13329 0.2276 0.0
H522 H 0.11344 0.54083 0.08018 0.0
H523 H 0.2098 0.45067 0.07964 0.0
H524 H 0.24055 0.48726 0.0368 0.0
H525 H 1.08916 0.53845 0.00984 0.0
H526 H 1.08426 0.59839 0.00777 0.0
H527 H 1.07269 0.56691 0.03917 0.0
H528 H 0.1315 0.63022 0.06417 0.0
H529 H 0.14451 0.66135 0.03267 0.0
H530 H 0.18867 0.64373 0.05282 0.0
H531 H 0.25661 0.52938 0.99232 0.0
H532 H 0.25249 0.56942 0.94807 0.0
H533 H 0.14778 0.6339 0.97884 0.0
C534 C 0.14121 0.52905 0.07111 0.0
C535 C 0.15939 0.49312 0.08315 0.0
C536 C 0.19539 0.4782 0.07064 0.0
C537 C 0.21336 0.49906 0.04649 0.0
C538 C 0.19516 0.53502 0.03532 0.0
C539 C 0.15979 0.54978 0.04718 0.0
C540 C 0.14452 0.58712 0.03031 0.0
C541 C 0.09473 0.57177 0.02123 0.0
C542 C 0.15282 0.63334 0.04593 0.0
C543 C 0.17561 0.58976 0.00651 0.0
C544 C 0.20511 0.56001 0.00996 0.0
C545 C 0.23425 0.55341 0.98957 0.0
C546 C 0.23181 0.57633 0.96456 0.0
C547 C 0.20037 0.60528 0.96025 0.0
C548 C 0.17321 0.61327 0.98188 0.0
H549 H 0.60227 0.96815 0.42586 0.0
H550 H 0.5666 0.10158 0.43817 0.0
H551 H 0.58568 0.12335 0.39039 0.0
H552 H 0.69382 1.00511 0.37904 0.0
H553 H 0.67807 0.95397 0.35808 0.0
H554 H 0.66596 0.95092 0.39387 0.0
H555 H 0.58166 0.91857 0.38214 0.0
H556 H 0.59343 0.92163 0.34633 0.0
H557 H 0.55178 0.9508 0.3594 0.0
H558 H 0.60841 0.13015 0.34126 0.0
H559 H 0.62657 0.11894 0.29312 0.0
H560 H 0.64018 0.97831 0.31174 0.0
C561 C 0.59917 1.00218 0.41851 0.0
C562 C 0.58356 0.03356 0.43555 0.0
C563 C 0.5787 0.07729 0.42527 0.0
C564 C 0.58959 0.08994 0.39827 0.0
C565 C 0.60438 0.05799 0.38178 0.0
C566 C 0.60863 1.01478 0.3914 0.0
C567 C 0.62161 0.98544 0.36892 0.0
C568 C 0.66761 0.97316 0.37537 0.0
C569 C 0.58493 0.94152 0.36391 0.0
C570 C 0.62404 0.01887 0.34514 0.0
C571 C 0.61471 0.06081 0.35309 0.0
C572 C 0.61555 0.09741 0.33478 0.0
C573 C 0.62588 0.09082 0.30758 0.0
C574 C 0.63435 0.04777 0.29896 0.0
C575 C 0.63346 1.01141 0.31795 0.0
H576 H 0.62356 0.50041 0.74696 0.0
H577 H 0.73361 0.62066 0.75338 0.0
H578 H 0.73428 0.62774 0.70357 0.0
H579 H 0.6611 0.45238 0.68558 0.0
H580 H 0.6053 0.43412 0.67079 0.0
H581 H 0.61342 0.43687 0.70732 0.0
H582 H 0.55687 0.49148 0.71029 0.0
H583 H 0.54839 0.48867 0.67381 0.0
H584 H 0.5657 0.54417 0.69041 0.0
H585 H 0.724 0.62354 0.65411 0.0
H586 H 0.70008 0.61034 0.606 0.0
H587 H 0.59577 0.49342 0.62935 0.0
C588 C 0.64775 0.52806 0.73776 0.0
C589 C 0.67878 0.55978 0.75403 0.0
C590 C 0.70974 0.59577 0.74136 0.0
C591 C 0.71049 0.6001 0.71304 0.0
C592 C 0.67995 0.56827 0.69754 0.0
C593 C 0.64892 0.53307 0.70924 0.0
C594 C 0.61917 0.50461 0.68741 0.0
C595 C 0.62512 0.45399 0.68781 0.0
C596 C 0.56959 0.50742 0.69068 0.0
C597 C 0.63834 0.52968 0.6618 0.0
C598 C 0.67355 0.56609 0.66834 0.0
C599 C 0.69645 0.5952 0.64863 0.0
C600 C 0.68254 0.58751 0.6214 0.0
C601 C 0.64595 0.55114 0.61405 0.0
C602 C 0.624 0.5213 0.63447 0.0
H603 H 0.69442 0.05678 0.60078 0.0
H604 H 0.5623 0.97327 0.58198 0.0
H605 H 0.54526 0.96868 0.63102 0.0
H606 H 0.71621 0.99654 0.66067 0.0
H607 H 0.74481 0.04762 0.67886 0.0
H608 H 0.74521 0.04652 0.6422 0.0
H609 H 0.71203 0.12091 0.64023 0.0
H610 H 0.71131 0.12207 0.67694 0.0
H611 H 0.6603 0.12172 0.65719 0.0
H612 H 0.54513 0.96817 0.68226 0.0
H613 H 0.5617 0.97241 0.73201 0.0
H614 H 0.69293 0.05849 0.71749 0.0
C615 C 0.66179 0.03786 0.60704 0.0
C616 C 0.62931 1.01573 0.58766 0.0
C617 C 0.58714 0.99113 0.59651 0.0
C618 C 0.57731 0.98824 0.62432 0.0
C619 C 0.60998 1.01055 0.64296 0.0
C620 C 0.65132 0.03506 0.6347 0.0
C621 C 0.68106 0.05463 0.65893 0.0
C622 C 0.72437 0.03514 0.66024 0.0
C623 C 0.69179 0.10801 0.65827 0.0
C624 C 0.65039 0.0364 0.68212 0.0
C625 C 0.60948 1.01116 0.67248 0.0
C626 C 0.57676 0.98842 0.69006 0.0
C627 C 0.58639 0.99098 0.71821 0.0
C628 C 0.62823 1.01633 0.72845 0.0
C629 C 0.66025 0.03989 0.71016 0.0
H630 H 0.57517 0.47676 0.92343 0.0
H631 H 0.69097 0.58357 0.90286 0.0
H632 H 0.7143 0.59152 0.95115 0.0
H633 H 0.55185 0.5294 0.98671 0.0
H634 H 0.53632 0.47518 0.0048 0.0
H635 H 0.52792 0.47688 0.96833 0.0
H636 H 0.57526 0.41391 0.96268 0.0
H637 H 0.58365 0.41189 -0.00087 0.0
H638 H 0.6315 0.42324 0.97733 0.0
H639 H 0.72611 0.58893 0.00084 0.0
H640 H 0.72628 0.57482 0.05036 0.0
H641 H 0.60335 0.47 0.04084 0.0
C642 C 0.60543 0.50166 0.9292 0.0
C643 C 0.63117 0.52965 0.90934 0.0
C644 C 0.67054 0.56191 0.91765 0.0
C645 C 0.68418 0.56673 0.94508 0.0
C646 C 0.65811 0.53911 0.96418 0.0
C647 C 0.61961 0.50714 0.95679 0.0
C648 C 0.59813 0.48202 0.98183 0.0
C649 C 0.55074 0.49145 0.98564 0.0
C650 C 0.59709 0.42966 0.98014 0.0
C651 C 0.63073 0.5049 0.00423 0.0
C652 C 0.665 0.5377 0.9934 0.0
C653 C 0.69954 0.56326 0.00962 0.0
C654 C 0.69945 0.55486 0.03771 0.0
C655 C 0.66506 0.52113 0.04946 0.0
C656 C 0.62994 0.49617 0.03245 0.0
H657 H 0.1571 0.47039 0.23608 0.0
H658 H 0.12221 0.60609 0.23777 0.0
H659 H 0.12304 0.60393 0.28796 0.0
H660 H 1.08557 0.42317 0.29062 0.0
H661 H 0.12337 0.38865 0.30462 0.0
H662 H 0.12378 0.40221 0.26876 0.0
H663 H 0.20913 0.43788 0.27274 0.0
H664 H 0.20897 0.42453 0.30865 0.0
H665 H 0.22929 0.48328 0.29725 0.0
H666 H 0.12683 0.58751 0.33756 0.0
H667 H 0.12721 0.55467 0.38399 0.0
H668 H 0.15485 0.42741 0.35086 0.0
C669 C 0.14994 0.49966 0.24709 0.0
C670 C 0.13982 0.5385 0.23311 0.0
C671 C 0.13011 0.57601 0.24811 0.0
C672 C 0.13065 0.57522 0.27662 0.0
C673 C 0.14038 0.53637 0.28986 0.0
C674 C 0.14937 0.49901 0.27568 0.0
C675 C 0.15585 0.46033 0.29501 0.0
C676 C 0.12 0.41597 0.28942 0.0
C677 C 0.20366 0.45097 0.29331 0.0
C678 C 0.14895 0.48186 0.32217 0.0
C679 C 0.14072 0.526 0.31868 0.0
C680 C 0.1333 0.553 0.34062 0.0
C681 C 0.1338 0.53419 0.36689 0.0
C682 C 0.14114 0.48864 0.37097 0.0
C683 C 0.149 0.46228 0.34827 0.0
loop_
_geom_bond_atom_site_label_1
_geom_bond_atom_site_label_2
_geom_bond_distance
_geom_bond_site_symmetry_2
_ccdc_geom_bond_type
Nd0 C2 2.836 . S
Nd0 O20 2.500 . S
Nd0 O21 2.492 . S
Nd0 O22 2.487 . S
Nd0 O23 2.680 1_455 S
Nd0 O24 2.410 . S
Nd0 O29 2.414 . S
Nd0 O31 2.424 1_455 S
Nd1 C11 2.836 . S
Nd1 O23 2.413 . S
Nd1 O25 2.424 1_655 S
Nd1 O26 2.500 . S
Nd1 O27 2.492 . S
Nd1 O28 2.487 . S
Nd1 O29 2.682 1_655 S
Nd1 O30 2.410 . S
C2 Nd0 2.836 . S
C2 C3 1.498 . S
C2 O20 1.258 . S
C2 O21 1.239 . S
C3 C2 1.498 . S
C3 C4 1.366 . S
C3 C8 1.407 . S
C4 C3 1.366 . S
C4 C5 1.392 . S
C4 H32 0.930 . S
C5 C4 1.392 . S
C5 C6 1.398 . S
C5 H33 0.929 . S
C6 C5 1.398 . S
C6 C7 1.352 . S
C7 C6 1.352 . S
C7 C8 1.384 . S
C7 H34 0.930 . S
C8 C3 1.407 . S
C8 C7 1.384 . S
C8 H35 0.929 . S
C9 O22 1.241 . S
C9 O23 1.272 1_455 S
C10 O24 1.251 . S
C10 O25 1.268 . S
C11 Nd1 2.836 . S
C11 C12 1.498 . S
C11 O26 1.258 . S
C11 O27 1.239 . S
C12 C11 1.498 . S
C12 C13 1.366 . S
C12 C17 1.407 . S
C13 C12 1.366 . S
C13 C14 1.392 . S
C13 H36 0.930 . S
C14 C13 1.392 . S
C14 C15 1.398 . S
C14 H37 0.929 . S
C15 C14 1.398 . S
C15 C16 1.352 . S
C16 C15 1.352 . S
C16 C17 1.384 . S
C16 H38 0.930 . S
C17 C12 1.407 . S
C17 C16 1.384 . S
C17 H39 0.929 . S
C18 O28 1.241 1_455 S
C18 O29 1.273 . S
C19 O30 1.251 . S
C19 O31 1.268 . S
O20 Nd0 2.500 . S
O20 C2 1.258 . S
O21 Nd0 2.492 . S
O21 C2 1.239 . S
O22 Nd0 2.487 . S
O22 C9 1.241 . S
O23 Nd0 2.680 1_655 S
O23 Nd1 2.413 . S
O23 C9 1.272 1_655 S
O24 Nd0 2.410 . S
O24 C10 1.251 . S
O25 Nd1 2.424 1_455 S
O25 C10 1.268 . S
O26 Nd1 2.500 . S
O26 C11 1.258 . S
O27 Nd1 2.492 . S
O27 C11 1.239 . S
O28 Nd1 2.487 . S
O28 C18 1.241 1_655 S
O29 Nd0 2.414 . S
O29 Nd1 2.682 1_455 S
O29 C18 1.273 . S
O30 Nd1 2.410 . S
O30 C19 1.251 . S
O31 Nd0 2.424 1_655 S
O31 C19 1.268 . S
H32 C4 0.930 . S
H33 C5 0.929 . S
H34 C7 0.930 . S
H35 C8 0.929 . S
H36 C13 0.930 . S
H37 C14 0.929 . S
H38 C16 0.930 . S
H39 C17 0.929 . S
Nd40 C42 2.836 . S
Nd40 O60 2.500 . S
Nd40 O61 2.492 . S
Nd40 O62 2.487 . S
Nd40 O63 2.682 1_565 S
Nd40 O64 2.410 . S
Nd40 O69 2.414 . S
Nd40 O71 2.424 1_565 S
Nd41 C51 2.836 . S
Nd41 O63 2.414 . S
Nd41 O65 2.424 1_545 S
Nd41 O66 2.500 . S
Nd41 O67 2.492 . S
Nd41 O68 2.487 . S
Nd41 O69 2.682 1_545 S
Nd41 O70 2.410 . S
C42 Nd40 2.836 . S
C42 C43 1.498 . S
C42 O60 1.258 . S
C42 O61 1.239 . S
C43 C42 1.498 . S
C43 C44 1.366 . S
C43 C48 1.407 . S
C44 C43 1.366 . S
C44 C45 1.392 . S
C44 H72 0.930 . S
C45 C44 1.392 . S
C45 C46 1.398 . S
C45 H73 0.929 . S
C46 C45 1.398 . S
C46 C47 1.352 . S
C47 C46 1.352 . S
C47 C48 1.384 . S
C47 H74 0.930 . S
C48 C43 1.407 . S
C48 C47 1.384 . S
C48 H75 0.929 . S
C49 O62 1.241 1_545 S
C49 O63 1.273 . S
C50 O64 1.251 . S
C50 O65 1.268 . S
C51 Nd41 2.836 . S
C51 C52 1.498 . S
C51 O66 1.258 . S
C51 O67 1.239 . S
C52 C51 1.498 . S
C52 C53 1.366 . S
C52 C57 1.407 . S
C53 C52 1.366 . S
C53 C54 1.392 . S
C53 H76 0.930 . S
C54 C53 1.392 . S
C54 C55 1.398 . S
C54 H77 0.929 . S
C55 C54 1.398 . S
C55 C56 1.352 . S
C56 C55 1.352 . S
C56 C57 1.384 . S
C56 H78 0.930 . S
C57 C52 1.407 . S
C57 C56 1.384 . S
C57 H79 0.929 . S
C58 O68 1.241 . S
C58 O69 1.273 1_545 S
C59 O70 1.251 . S
C59 O71 1.268 . S
O60 Nd40 2.500 . S
O60 C42 1.258 . S
O61 Nd40 2.492 . S
O61 C42 1.239 . S
O62 Nd40 2.487 . S
O62 C49 1.241 1_565 S
O63 Nd40 2.682 1_545 S
O63 Nd41 2.414 . S
O63 C49 1.273 . S
O64 Nd40 2.410 . S
O64 C50 1.251 . S
O65 Nd41 2.424 1_565 S
O65 C50 1.268 . S
O66 Nd41 2.500 . S
O66 C51 1.258 . S
O67 Nd41 2.492 . S
O67 C51 1.239 . S
O68 Nd41 2.487 . S
O68 C58 1.241 . S
O69 Nd40 2.414 . S
O69 Nd41 2.682 1_565 S
O69 C58 1.273 1_565 S
O70 Nd41 2.410 . S
O70 C59 1.251 . S
O71 Nd40 2.424 1_545 S
O71 C59 1.268 . S
H72 C44 0.930 . S
H73 C45 0.929 . S
H74 C47 0.930 . S
H75 C48 0.929 . S
H76 C53 0.930 . S
H77 C54 0.929 . S
H78 C56 0.930 . S
H79 C57 0.929 . S
Nd80 C82 2.836 . S
Nd80 O100 2.500 . S
Nd80 O101 2.492 . S
Nd80 O102 2.487 . S
Nd80 O103 2.682 . S
Nd80 O104 2.410 . S
Nd80 O109 2.414 . S
Nd80 O111 2.424 . S
Nd81 C91 2.836 . S
Nd81 O103 2.414 . S
Nd81 O105 2.424 . S
Nd81 O106 2.500 . S
Nd81 O107 2.492 . S
Nd81 O108 2.487 . S
Nd81 O109 2.682 . S
Nd81 O110 2.410 . S
C82 Nd80 2.836 . S
C82 C83 1.498 . S
C82 O100 1.258 . S
C82 O101 1.239 . S
C83 C82 1.498 . S
C83 C84 1.366 . S
C83 C88 1.407 . S
C84 C83 1.366 . S
C84 C85 1.392 . S
C84 H112 0.930 . S
C85 C84 1.392 . S
C85 C86 1.398 . S
C85 H113 0.929 . S
C86 C85 1.398 . S
C86 C87 1.352 . S
C87 C86 1.352 . S
C87 C88 1.384 . S
C87 H114 0.930 . S
C88 C83 1.407 . S
C88 C87 1.384 . S
C88 H115 0.929 . S
C89 O102 1.241 . S
C89 O103 1.273 . S
C90 O104 1.251 . S
C90 O105 1.268 . S
C91 Nd81 2.836 . S
C91 C92 1.498 . S
C91 O106 1.258 . S
C91 O107 1.239 . S
C92 C91 1.498 . S
C92 C93 1.366 . S
C92 C97 1.407 . S
C93 C92 1.366 . S
C93 C94 1.392 . S
C93 H116 0.930 . S
C94 C93 1.392 . S
C94 C95 1.398 . S
C94 H117 0.929 . S
C95 C94 1.398 . S
C95 C96 1.352 . S
C96 C95 1.352 . S
C96 C97 1.384 . S
C96 H118 0.930 . S
C97 C92 1.407 . S
C97 C96 1.384 . S
C97 H119 0.929 . S
C98 O108 1.241 . S
C98 O109 1.273 . S
C99 O110 1.251 . S
C99 O111 1.268 . S
O100 Nd80 2.500 . S
O100 C82 1.258 . S
O101 Nd80 2.492 . S
O101 C82 1.239 . S
O102 Nd80 2.487 . S
O102 C89 1.241 . S
O103 Nd80 2.682 . S
O103 Nd81 2.414 . S
O103 C89 1.273 . S
O104 Nd80 2.410 . S
O104 C90 1.251 . S
O105 Nd81 2.424 . S
O105 C90 1.268 . S
O106 Nd81 2.500 . S
O106 C91 1.258 . S
O107 Nd81 2.492 . S
O107 C91 1.239 . S
O108 Nd81 2.487 . S
O108 C98 1.241 . S
O109 Nd80 2.414 . S
O109 Nd81 2.682 . S
O109 C98 1.273 . S
O110 Nd81 2.410 . S
O110 C99 1.251 . S
O111 Nd80 2.424 . S
O111 C99 1.268 . S
H112 C84 0.930 . S
H113 C85 0.929 . S
H114 C87 0.930 . S
H115 C88 0.929 . S
H116 C93 0.930 . S
H117 C94 0.929 . S
H118 C96 0.930 . S
H119 C97 0.929 . S
H120 C127 0.929 . S
H121 C130 0.930 . S
H122 C132 0.929 . S
H123 C124 0.969 . S
C124 H123 0.969 . S
C124 O125 1.550 . S
C124 H126 0.973 . S
O125 C124 1.550 . S
O125 C131 1.412 . S
H126 C124 0.973 . S
C127 H120 0.929 . S
C127 C128 1.400 . S
C127 C129 1.364 . S
C128 C127 1.400 . S
C128 C132 1.377 . S
C129 C127 1.364 . S
C129 C130 1.374 1_545 S
C130 H121 0.930 . S
C130 C129 1.374 1_565 S
C130 C131 1.383 . S
C131 O125 1.412 . S
C131 C130 1.383 . S
C131 C132 1.394 1_565 S
C132 H122 0.929 . S
C132 C128 1.377 . S
C132 C131 1.394 1_545 S
H133 C140 0.929 . S
H134 C143 0.930 . S
H135 C145 0.929 . S
H136 C137 0.969 . S
C137 H136 0.969 . S
C137 O138 1.550 . S
C137 H139 0.973 . S
O138 C137 1.550 . S
O138 C144 1.412 . S
H139 C137 0.973 . S
C140 H133 0.929 . S
C140 C141 1.400 . S
C140 C142 1.364 . S
C141 C140 1.400 . S
C141 C145 1.377 . S
C142 C140 1.364 . S
C142 C143 1.374 . S
C143 H134 0.930 . S
C143 C142 1.374 . S
C143 C144 1.383 . S
C144 O138 1.412 . S
C144 C143 1.383 . S
C144 C145 1.394 . S
C145 H135 0.929 . S
C145 C141 1.377 . S
C145 C144 1.394 . S
H146 C153 0.929 1_655 S
H147 C156 0.930 . S
H148 C158 0.929 . S
H149 C150 0.969 . S
C150 H149 0.969 . S
C150 O151 1.550 . S
C150 H152 0.973 . S
O151 C150 1.550 . S
O151 C157 1.412 . S
H152 C150 0.973 . S
C153 H146 0.929 1_455 S
C153 C154 1.400 . S
C153 C155 1.364 . S
C154 C153 1.400 . S
C154 C158 1.377 . S
C155 C153 1.364 . S
C155 C156 1.374 . S
C156 H147 0.930 . S
C156 C155 1.374 . S
C156 C157 1.383 . S
C157 O151 1.412 . S
C157 C156 1.383 . S
C157 C158 1.394 . S
C158 H148 0.929 . S
C158 C154 1.377 . S
C158 C157 1.394 . S
H159 C166 0.929 . S
H160 C169 0.930 . S
H161 C171 0.929 . S
H162 C163 0.969 . S
C163 H162 0.969 . S
C163 O164 1.550 . S
C163 H165 0.973 . S
O164 C163 1.550 . S
O164 C170 1.412 . S
H165 C163 0.973 . S
C166 H159 0.929 . S
C166 C167 1.400 . S
C166 C168 1.364 1_655 S
C167 C166 1.400 . S
C167 C171 1.377 1_655 S
C168 C166 1.364 1_455 S
C168 C169 1.374 . S
C169 H160 0.930 . S
C169 C168 1.374 . S
C169 C170 1.383 . S
C170 O164 1.412 . S
C170 C169 1.383 . S
C170 C171 1.394 . S
C171 H161 0.929 . S
C171 C167 1.377 1_455 S
C171 C170 1.394 . S
H172 C179 0.929 . S
H173 C182 0.930 . S
H174 C184 0.929 . S
H175 C176 0.969 . S
C176 H175 0.969 . S
C176 O177 1.550 . S
C176 H178 0.973 . S
O177 C176 1.550 . S
O177 C183 1.412 . S
H178 C176 0.973 . S
C179 H172 0.929 . S
C179 C180 1.400 . S
C179 C181 1.364 . S
C180 C179 1.400 . S
C180 C184 1.377 . S
C181 C179 1.364 . S
C181 C182 1.374 1_565 S
C182 H173 0.930 . S
C182 C181 1.374 1_545 S
C182 C183 1.383 . S
C183 O177 1.412 . S
C183 C182 1.383 . S
C183 C184 1.394 1_545 S
C184 H174 0.929 . S
C184 C180 1.377 . S
C184 C183 1.394 1_565 S
H185 C192 0.929 . S
H186 C195 0.930 . S
H187 C197 0.929 . S
H188 C189 0.969 . S
C189 H188 0.969 . S
C189 O190 1.550 . S
C189 H191 0.973 . S
O190 C189 1.550 . S
O190 C196 1.412 . S
H191 C189 0.973 . S
C192 H185 0.929 . S
C192 C193 1.400 . S
C192 C194 1.364 . S
C193 C192 1.400 . S
C193 C197 1.377 . S
C194 C192 1.364 . S
C194 C195 1.374 . S
C195 H186 0.930 . S
C195 C194 1.374 . S
C195 C196 1.383 . S
C196 O190 1.412 . S
C196 C195 1.383 . S
C196 C197 1.394 . S
C197 H187 0.929 . S
C197 C193 1.377 . S
C197 C196 1.394 . S
H198 C210 0.930 . S
H199 C212 0.930 . S
H200 C213 0.930 . S
H201 C217 0.959 . S
H202 C217 0.959 . S
H203 C217 0.961 . S
H204 C218 0.960 . S
H205 C218 0.961 . S
H206 C218 0.959 . S
H207 C221 0.929 . S
H208 C222 0.931 . S
H209 C224 0.930 . S
C210 H198 0.930 . S
C210 C211 1.399 . S
C210 C215 1.399 . S
C211 C210 1.399 . S
C211 C212 1.376 . S
C212 H199 0.930 . S
C212 C211 1.376 . S
C212 C213 1.388 . S
C213 H200 0.930 . S
C213 C212 1.388 . S
C213 C214 1.390 . S
C214 C213 1.390 . S
C214 C215 1.394 . S
C214 C220 1.465 . S
C215 C210 1.399 . S
C215 C214 1.394 . S
C215 C216 1.516 . S
C216 C215 1.516 . S
C216 C217 1.502 . S
C216 C218 1.561 . S
C216 C219 1.526 . S
C217 H201 0.959 . S
C217 H202 0.959 . S
C217 H203 0.961 . S
C217 C216 1.502 . S
C218 H204 0.960 . S
C218 H205 0.961 . S
C218 H206 0.959 . S
C218 C216 1.561 . S
C219 C216 1.526 . S
C219 C220 1.396 . S
C219 C224 1.390 . S
C220 C214 1.465 . S
C220 C219 1.396 . S
C220 C221 1.399 . S
C221 H207 0.929 . S
C221 C220 1.399 . S
C221 C222 1.385 . S
C222 H208 0.931 . S
C222 C221 1.385 . S
C222 C223 1.389 . S
C223 C222 1.389 . S
C223 C224 1.387 . S
C224 H209 0.930 . S
C224 C219 1.390 . S
C224 C223 1.387 . S
H225 C237 0.930 . S
H226 C239 0.930 . S
H227 C240 0.930 . S
H228 C244 0.959 . S
H229 C244 0.959 . S
H230 C244 0.961 . S
H231 C245 0.960 . S
H232 C245 0.961 . S
H233 C245 0.959 . S
H234 C248 0.929 . S
H235 C249 0.931 . S
H236 C251 0.930 . S
C237 H225 0.930 . S
C237 C238 1.399 . S
C237 C242 1.399 . S
C238 C237 1.399 . S
C238 C239 1.376 . S
C239 H226 0.930 . S
C239 C238 1.376 . S
C239 C240 1.388 . S
C240 H227 0.930 . S
C240 C239 1.388 . S
C240 C241 1.390 . S
C241 C240 1.390 . S
C241 C242 1.394 . S
C241 C247 1.465 . S
C242 C237 1.399 . S
C242 C241 1.394 . S
C242 C243 1.516 . S
C243 C242 1.516 . S
C243 C244 1.502 . S
C243 C245 1.561 . S
C243 C246 1.526 . S
C244 H228 0.959 . S
C244 H229 0.959 . S
C244 H230 0.961 . S
C244 C243 1.502 . S
C245 H231 0.960 . S
C245 H232 0.961 . S
C245 H233 0.959 . S
C245 C243 1.561 . S
C246 C243 1.526 . S
C246 C247 1.396 . S
C246 C251 1.390 . S
C247 C241 1.465 . S
C247 C246 1.396 . S
C247 C248 1.399 . S
C248 H234 0.929 . S
C248 C247 1.399 . S
C248 C249 1.385 . S
C249 H235 0.931 . S
C249 C248 1.385 . S
C249 C250 1.389 . S
C250 C249 1.389 . S
C250 C251 1.387 . S
C251 H236 0.930 . S
C251 C246 1.390 . S
C251 C250 1.387 . S
H252 C264 0.930 . S
H253 C266 0.930 . S
H254 C267 0.930 . S
H255 C271 0.959 . S
H256 C271 0.959 . S
H257 C271 0.961 . S
H258 C272 0.960 . S
H259 C272 0.961 . S
H260 C272 0.959 . S
H261 C275 0.929 . S
H262 C276 0.931 . S
H263 C278 0.930 . S
C264 H252 0.930 . S
C264 C265 1.399 . S
C264 C269 1.399 . S
C265 C264 1.399 . S
C265 C266 1.376 . S
C266 H253 0.930 . S
C266 C265 1.376 . S
C266 C267 1.388 . S
C267 H254 0.930 . S
C267 C266 1.388 . S
C267 C268 1.390 . S
C268 C267 1.390 . S
C268 C269 1.394 . S
C268 C274 1.465 . S
C269 C264 1.399 . S
C269 C268 1.394 . S
C269 C270 1.516 . S
C270 C269 1.516 . S
C270 C271 1.502 . S
C270 C272 1.561 . S
C270 C273 1.526 . S
C271 H255 0.959 . S
C271 H256 0.959 . S
C271 H257 0.961 . S
C271 C270 1.502 . S
C272 H258 0.960 . S
C272 H259 0.961 . S
C272 H260 0.959 . S
C272 C270 1.561 . S
C273 C270 1.526 . S
C273 C274 1.396 . S
C273 C278 1.390 . S
C274 C268 1.465 . S
C274 C273 1.396 . S
C274 C275 1.399 . S
C275 H261 0.929 . S
C275 C274 1.399 . S
C275 C276 1.385 . S
C276 H262 0.931 . S
C276 C275 1.385 . S
C276 C277 1.389 . S
C277 C276 1.389 . S
C277 C278 1.387 . S
C278 H263 0.930 . S
C278 C273 1.390 . S
C278 C277 1.387 . S
H279 C291 0.930 . S
H280 C293 0.930 . S
H281 C294 0.930 . S
H282 C298 0.959 . S
H283 C298 0.959 . S
H284 C298 0.961 . S
H285 C299 0.960 . S
H286 C299 0.961 . S
H287 C299 0.959 . S
H288 C302 0.929 . S
H289 C303 0.931 . S
H290 C305 0.930 . S
C291 H279 0.930 . S
C291 C292 1.399 . S
C291 C296 1.399 . S
C292 C291 1.399 . S
C292 C293 1.376 . S
C293 H280 0.930 . S
C293 C292 1.376 . S
C293 C294 1.388 . S
C294 H281 0.930 . S
C294 C293 1.388 . S
C294 C295 1.390 . S
C295 C294 1.390 . S
C295 C296 1.394 . S
C295 C301 1.465 . S
C296 C291 1.399 . S
C296 C295 1.394 . S
C296 C297 1.516 . S
C297 C296 1.516 . S
C297 C298 1.502 . S
C297 C299 1.561 . S
C297 C300 1.526 . S
C298 H282 0.959 . S
C298 H283 0.959 . S
C298 H284 0.961 . S
C298 C297 1.502 . S
C299 H285 0.960 . S
C299 H286 0.961 . S
C299 H287 0.959 . S
C299 C297 1.561 . S
C300 C297 1.526 . S
C300 C301 1.396 . S
C300 C305 1.390 . S
C301 C295 1.465 . S
C301 C300 1.396 . S
C301 C302 1.399 . S
C302 H288 0.929 . S
C302 C301 1.399 . S
C302 C303 1.385 . S
C303 H289 0.931 . S
C303 C302 1.385 . S
C303 C304 1.389 . S
C304 C303 1.389 . S
C304 C305 1.387 . S
C305 H290 0.930 . S
C305 C300 1.390 . S
C305 C304 1.387 . S
H306 C318 0.930 . S
H307 C320 0.930 . S
H308 C321 0.930 . S
H309 C325 0.959 . S
H310 C325 0.959 . S
H311 C325 0.961 . S
H312 C326 0.960 . S
H313 C326 0.961 . S
H314 C326 0.959 . S
H315 C329 0.929 . S
H316 C330 0.931 . S
H317 C332 0.930 . S
C318 H306 0.930 . S
C318 C319 1.399 . S
C318 C323 1.399 . S
C319 C318 1.399 . S
C319 C320 1.376 . S
C320 H307 0.930 . S
C320 C319 1.376 . S
C320 C321 1.388 . S
C321 H308 0.930 . S
C321 C320 1.388 . S
C321 C322 1.390 . S
C322 C321 1.390 . S
C322 C323 1.394 . S
C322 C328 1.465 . S
C323 C318 1.399 . S
C323 C322 1.394 . S
C323 C324 1.516 . S
C324 C323 1.516 . S
C324 C325 1.502 . S
C324 C326 1.561 . S
C324 C327 1.526 . S
C325 H309 0.959 . S
C325 H310 0.959 . S
C325 H311 0.961 . S
C325 C324 1.502 . S
C326 H312 0.960 . S
C326 H313 0.961 . S
C326 H314 0.959 . S
C326 C324 1.561 . S
C327 C324 1.526 . S
C327 C328 1.396 . S
C327 C332 1.390 . S
C328 C322 1.465 . S
C328 C327 1.396 . S
C328 C329 1.399 . S
C329 H315 0.929 . S
C329 C328 1.399 . S
C329 C330 1.385 . S
C330 H316 0.931 . S
C330 C329 1.385 . S
C330 C331 1.389 . S
C331 C330 1.389 . S
C331 C332 1.387 . S
C332 H317 0.930 . S
C332 C327 1.390 . S
C332 C331 1.387 . S
H333 C345 0.930 . S
H334 C347 0.930 . S
H335 C348 0.930 . S
H336 C352 0.959 . S
H337 C352 0.959 . S
H338 C352 0.961 . S
H339 C353 0.960 . S
H340 C353 0.961 . S
H341 C353 0.959 . S
H342 C356 0.929 . S
H343 C357 0.931 . S
H344 C359 0.930 . S
C345 H333 0.930 . S
C345 C346 1.399 . S
C345 C350 1.399 . S
C346 C345 1.399 . S
C346 C347 1.376 . S
C347 H334 0.930 . S
C347 C346 1.376 . S
C347 C348 1.388 . S
C348 H335 0.930 . S
C348 C347 1.388 . S
C348 C349 1.390 . S
C349 C348 1.390 . S
C349 C350 1.394 . S
C349 C355 1.465 . S
C350 C345 1.399 . S
C350 C349 1.394 . S
C350 C351 1.516 . S
C351 C350 1.516 . S
C351 C352 1.502 . S
C351 C353 1.561 . S
C351 C354 1.526 . S
C352 H336 0.959 . S
C352 H337 0.959 . S
C352 H338 0.961 . S
C352 C351 1.502 . S
C353 H339 0.960 . S
C353 H340 0.961 . S
C353 H341 0.959 . S
C353 C351 1.561 . S
C354 C351 1.526 . S
C354 C355 1.396 . S
C354 C359 1.390 . S
C355 C349 1.465 . S
C355 C354 1.396 . S
C355 C356 1.399 . S
C356 H342 0.929 . S
C356 C355 1.399 . S
C356 C357 1.385 . S
C357 H343 0.931 . S
C357 C356 1.385 . S
C357 C358 1.389 . S
C358 C357 1.389 . S
C358 C359 1.387 . S
C359 H344 0.930 . S
C359 C354 1.390 . S
C359 C358 1.387 . S
H360 C372 0.930 . S
H361 C374 0.930 . S
H362 C375 0.930 . S
H363 C379 0.959 . S
H364 C379 0.959 . S
H365 C379 0.961 . S
H366 C380 0.960 . S
H367 C380 0.961 . S
H368 C380 0.959 . S
H369 C383 0.929 . S
H370 C384 0.931 . S
H371 C386 0.930 . S
C372 H360 0.930 . S
C372 C373 1.399 . S
C372 C377 1.399 . S
C373 C372 1.399 . S
C373 C374 1.376 . S
C374 H361 0.930 . S
C374 C373 1.376 . S
C374 C375 1.388 . S
C375 H362 0.930 . S
C375 C374 1.388 . S
C375 C376 1.390 . S
C376 C375 1.390 . S
C376 C377 1.394 . S
C376 C382 1.465 . S
C377 C372 1.399 . S
C377 C376 1.394 . S
C377 C378 1.516 . S
C378 C377 1.516 . S
C378 C379 1.502 . S
C378 C380 1.561 . S
C378 C381 1.526 . S
C379 H363 0.959 . S
C379 H364 0.959 . S
C379 H365 0.961 . S
C379 C378 1.502 . S
C380 H366 0.960 . S
C380 H367 0.961 . S
C380 H368 0.959 . S
C380 C378 1.561 . S
C381 C378 1.526 . S
C381 C382 1.396 . S
C381 C386 1.390 . S
C382 C376 1.465 . S
C382 C381 1.396 . S
C382 C383 1.399 . S
C383 H369 0.929 . S
C383 C382 1.399 . S
C383 C384 1.385 . S
C384 H370 0.931 . S
C384 C383 1.385 . S
C384 C385 1.389 . S
C385 C384 1.389 . S
C385 C386 1.387 . S
C386 H371 0.930 . S
C386 C381 1.390 . S
C386 C385 1.387 . S
H387 C399 0.930 . S
H388 C401 0.930 . S
H389 C402 0.930 . S
H390 C406 0.959 . S
H391 C406 0.959 . S
H392 C406 0.961 . S
H393 C407 0.960 . S
H394 C407 0.961 . S
H395 C407 0.959 . S
H396 C410 0.929 . S
H397 C411 0.931 . S
H398 C413 0.930 . S
C399 H387 0.930 . S
C399 C400 1.399 . S
C399 C404 1.399 . S
C400 C399 1.399 . S
C400 C401 1.376 . S
C401 H388 0.930 . S
C401 C400 1.376 . S
C401 C402 1.388 . S
C402 H389 0.930 . S
C402 C401 1.388 . S
C402 C403 1.390 . S
C403 C402 1.390 . S
C403 C404 1.394 . S
C403 C409 1.465 . S
C404 C399 1.399 . S
C404 C403 1.394 . S
C404 C405 1.516 . S
C405 C404 1.516 . S
C405 C406 1.502 . S
C405 C407 1.561 . S
C405 C408 1.526 . S
C406 H390 0.959 . S
C406 H391 0.959 . S
C406 H392 0.961 . S
C406 C405 1.502 . S
C407 H393 0.960 . S
C407 H394 0.961 . S
C407 H395 0.959 . S
C407 C405 1.561 . S
C408 C405 1.526 . S
C408 C409 1.396 . S
C408 C413 1.390 . S
C409 C403 1.465 . S
C409 C408 1.396 . S
C409 C410 1.399 . S
C410 H396 0.929 . S
C410 C409 1.399 . S
C410 C411 1.385 . S
C411 H397 0.931 . S
C411 C410 1.385 . S
C411 C412 1.389 1_655 S
C412 C411 1.389 1_455 S
C412 C413 1.387 1_455 S
C413 H398 0.930 . S
C413 C408 1.390 . S
C413 C412 1.387 1_655 S
H414 C426 0.930 . S
H415 C428 0.930 . S
H416 C429 0.930 . S
H417 C433 0.959 . S
H418 C433 0.959 . S
H419 C433 0.961 . S
H420 C434 0.960 . S
H421 C434 0.961 . S
H422 C434 0.959 . S
H423 C437 0.929 . S
H424 C438 0.931 . S
H425 C440 0.930 . S
C426 H414 0.930 . S
C426 C427 1.399 . S
C426 C431 1.399 . S
C427 C426 1.399 . S
C427 C428 1.376 . S
C428 H415 0.930 . S
C428 C427 1.376 . S
C428 C429 1.388 . S
C429 H416 0.930 . S
C429 C428 1.388 . S
C429 C430 1.390 . S
C430 C429 1.390 . S
C430 C431 1.394 . S
C430 C436 1.465 . S
C431 C426 1.399 . S
C431 C430 1.394 . S
C431 C432 1.516 . S
C432 C431 1.516 . S
C432 C433 1.502 . S
C432 C434 1.561 . S
C432 C435 1.526 . S
C433 H417 0.959 . S
C433 H418 0.959 . S
C433 H419 0.961 . S
C433 C432 1.502 . S
C434 H420 0.960 . S
C434 H421 0.961 . S
C434 H422 0.959 . S
C434 C432 1.561 . S
C435 C432 1.526 . S
C435 C436 1.396 . S
C435 C440 1.390 . S
C436 C430 1.465 . S
C436 C435 1.396 . S
C436 C437 1.399 . S
C437 H423 0.929 . S
C437 C436 1.399 . S
C437 C438 1.385 . S
C438 H424 0.931 . S
C438 C437 1.385 . S
C438 C439 1.389 . S
C439 C438 1.389 . S
C439 C440 1.387 . S
C440 H425 0.930 . S
C440 C435 1.390 . S
C440 C439 1.387 . S
H441 C453 0.930 . S
H442 C455 0.930 . S
H443 C456 0.930 . S
H444 C460 0.959 . S
H445 C460 0.959 . S
H446 C460 0.961 . S
H447 C461 0.960 . S
H448 C461 0.961 . S
H449 C461 0.959 . S
H450 C464 0.929 . S
H451 C465 0.931 . S
H452 C467 0.930 . S
C453 H441 0.930 . S
C453 C454 1.399 . S
C453 C458 1.399 . S
C454 C453 1.399 . S
C454 C455 1.376 . S
C455 H442 0.930 . S
C455 C454 1.376 . S
C455 C456 1.388 . S
C456 H443 0.930 . S
C456 C455 1.388 . S
C456 C457 1.390 . S
C457 C456 1.390 . S
C457 C458 1.394 . S
C457 C463 1.465 . S
C458 C453 1.399 . S
C458 C457 1.394 . S
C458 C459 1.516 . S
C459 C458 1.516 . S
C459 C460 1.502 . S
C459 C461 1.561 . S
C459 C462 1.526 . S
C460 H444 0.959 . S
C460 H445 0.959 . S
C460 H446 0.961 . S
C460 C459 1.502 . S
C461 H447 0.960 . S
C461 H448 0.961 . S
C461 H449 0.959 . S
C461 C459 1.561 . S
C462 C459 1.526 . S
C462 C463 1.396 . S
C462 C467 1.390 . S
C463 C457 1.465 . S
C463 C462 1.396 . S
C463 C464 1.399 . S
C464 H450 0.929 . S
C464 C463 1.399 . S
C464 C465 1.385 . S
C465 H451 0.931 . S
C465 C464 1.385 . S
C465 C466 1.389 . S
C466 C465 1.389 . S
C466 C467 1.387 . S
C467 H452 0.930 . S
C467 C462 1.390 . S
C467 C466 1.387 . S
H468 C480 0.930 . S
H469 C482 0.930 . S
H470 C483 0.930 . S
H471 C487 0.959 . S
H472 C487 0.959 . S
H473 C487 0.961 . S
H474 C488 0.960 . S
H475 C488 0.961 . S
H476 C488 0.959 . S
H477 C491 0.929 . S
H478 C492 0.931 . S
H479 C494 0.930 . S
C480 H468 0.930 . S
C480 C481 1.399 . S
C480 C485 1.399 . S
C481 C480 1.399 . S
C481 C482 1.376 . S
C482 H469 0.930 . S
C482 C481 1.376 . S
C482 C483 1.388 . S
C483 H470 0.930 . S
C483 C482 1.388 . S
C483 C484 1.390 . S
C484 C483 1.390 . S
C484 C485 1.394 . S
C484 C490 1.465 . S
C485 C480 1.399 . S
C485 C484 1.394 . S
C485 C486 1.516 . S
C486 C485 1.516 . S
C486 C487 1.502 . S
C486 C488 1.561 . S
C486 C489 1.526 . S
C487 H471 0.959 . S
C487 H472 0.959 . S
C487 H473 0.961 . S
C487 C486 1.502 . S
C488 H474 0.960 . S
C488 H475 0.961 . S
C488 H476 0.959 . S
C488 C486 1.561 . S
C489 C486 1.526 . S
C489 C490 1.396 . S
C489 C494 1.390 . S
C490 C484 1.465 . S
C490 C489 1.396 . S
C490 C491 1.399 . S
C491 H477 0.929 . S
C491 C490 1.399 . S
C491 C492 1.385 . S
C492 H478 0.931 . S
C492 C491 1.385 . S
C492 C493 1.389 . S
C493 C492 1.389 . S
C493 C494 1.387 . S
C494 H479 0.930 . S
C494 C489 1.390 . S
C494 C493 1.387 . S
H495 C507 0.930 . S
H496 C509 0.930 . S
H497 C510 0.930 . S
H498 C514 0.959 . S
H499 C514 0.959 . S
H500 C514 0.961 . S
H501 C515 0.960 . S
H502 C515 0.961 . S
H503 C515 0.959 . S
H504 C518 0.929 . S
H505 C519 0.931 . S
H506 C521 0.930 . S
C507 H495 0.930 . S
C507 C508 1.399 . S
C507 C512 1.399 . S
C508 C507 1.399 . S
C508 C509 1.376 . S
C509 H496 0.930 . S
C509 C508 1.376 . S
C509 C510 1.388 . S
C510 H497 0.930 . S
C510 C509 1.388 . S
C510 C511 1.390 . S
C511 C510 1.390 . S
C511 C512 1.394 . S
C511 C517 1.465 . S
C512 C507 1.399 . S
C512 C511 1.394 . S
C512 C513 1.516 . S
C513 C512 1.516 . S
C513 C514 1.502 . S
C513 C515 1.561 . S
C513 C516 1.526 . S
C514 H498 0.959 . S
C514 H499 0.959 . S
C514 H500 0.961 . S
C514 C513 1.502 . S
C515 H501 0.960 . S
C515 H502 0.961 . S
C515 H503 0.959 . S
C515 C513 1.561 . S
C516 C513 1.526 . S
C516 C517 1.396 . S
C516 C521 1.390 . S
C517 C511 1.465 . S
C517 C516 1.396 . S
C517 C518 1.399 . S
C518 H504 0.929 . S
C518 C517 1.399 . S
C518 C519 1.385 . S
C519 H505 0.931 . S
C519 C518 1.385 . S
C519 C520 1.389 . S
C520 C519 1.389 . S
C520 C521 1.387 . S
C521 H506 0.930 . S
C521 C516 1.390 . S
C521 C520 1.387 . S
H522 C534 0.930 1_655 S
H523 C536 0.930 . S
H524 C537 0.930 . S
H525 C541 0.959 . S
H526 C541 0.959 1_556 S
H527 C541 0.961 . S
H528 C542 0.960 . S
H529 C542 0.961 . S
H530 C542 0.959 . S
H531 C545 0.929 . S
H532 C546 0.931 . S
H533 C548 0.930 . S
C534 H522 0.930 1_455 S
C534 C535 1.399 . S
C534 C539 1.399 . S
C535 C534 1.399 . S
C535 C536 1.376 . S
C536 H523 0.930 . S
C536 C535 1.376 . S
C536 C537 1.388 . S
C537 H524 0.930 . S
C537 C536 1.388 . S
C537 C538 1.390 . S
C538 C537 1.390 . S
C538 C539 1.394 . S
C538 C544 1.465 . S
C539 C534 1.399 . S
C539 C538 1.394 . S
C539 C540 1.516 . S
C540 C539 1.516 . S
C540 C541 1.502 1_455 S
C540 C542 1.561 . S
C540 C543 1.526 1_554 S
C541 H525 0.959 . S
C541 H526 0.959 1_554 S
C541 H527 0.961 . S
C541 C540 1.502 1_655 S
C542 H528 0.960 . S
C542 H529 0.961 . S
C542 H530 0.959 . S
C542 C540 1.561 . S
C543 C540 1.526 1_556 S
C543 C544 1.396 1_556 S
C543 C548 1.390 . S
C544 C538 1.465 . S
C544 C543 1.396 1_554 S
C544 C545 1.399 1_554 S
C545 H531 0.929 . S
C545 C544 1.399 1_556 S
C545 C546 1.385 . S
C546 H532 0.931 . S
C546 C545 1.385 . S
C546 C547 1.389 . S
C547 C546 1.389 . S
C547 C548 1.387 . S
C548 H533 0.930 . S
C548 C543 1.390 . S
C548 C547 1.387 . S
H549 C561 0.930 . S
H550 C563 0.930 . S
H551 C564 0.930 . S
H552 C568 0.959 . S
H553 C568 0.959 . S
H554 C568 0.961 . S
H555 C569 0.960 . S
H556 C569 0.961 . S
H557 C569 0.959 . S
H558 C572 0.929 . S
H559 C573 0.931 . S
H560 C575 0.930 . S
C561 H549 0.930 . S
C561 C562 1.399 1_565 S
C561 C566 1.399 . S
C562 C561 1.399 1_545 S
C562 C563 1.376 . S
C563 H550 0.930 . S
C563 C562 1.376 . S
C563 C564 1.388 . S
C564 H551 0.930 . S
C564 C563 1.388 . S
C564 C565 1.390 . S
C565 C564 1.390 . S
C565 C566 1.394 1_545 S
C565 C571 1.465 . S
C566 C561 1.399 . S
C566 C565 1.394 1_565 S
C566 C567 1.516 . S
C567 C566 1.516 . S
C567 C568 1.502 . S
C567 C569 1.561 . S
C567 C570 1.526 . S
C568 H552 0.959 . S
C568 H553 0.959 . S
C568 H554 0.961 . S
C568 C567 1.502 . S
C569 H555 0.960 . S
C569 H556 0.961 . S
C569 H557 0.959 . S
C569 C567 1.561 . S
C570 C567 1.526 . S
C570 C571 1.396 1_565 S
C570 C575 1.390 . S
C571 C565 1.465 . S
C571 C570 1.396 1_545 S
C571 C572 1.399 . S
C572 H558 0.929 . S
C572 C571 1.399 . S
C572 C573 1.385 . S
C573 H559 0.931 . S
C573 C572 1.385 . S
C573 C574 1.389 . S
C574 C573 1.389 . S
C574 C575 1.387 1_545 S
C575 H560 0.930 . S
C575 C570 1.390 . S
C575 C574 1.387 1_565 S
H576 C588 0.930 . S
H577 C590 0.930 . S
H578 C591 0.930 . S
H579 C595 0.959 . S
H580 C595 0.959 . S
H581 C595 0.961 . S
H582 C596 0.960 . S
H583 C596 0.961 . S
H584 C596 0.959 . S
H585 C599 0.929 . S
H586 C600 0.931 . S
H587 C602 0.930 . S
C588 H576 0.930 . S
C588 C589 1.399 . S
C588 C593 1.399 . S
C589 C588 1.399 . S
C589 C590 1.376 . S
C590 H577 0.930 . S
C590 C589 1.376 . S
C590 C591 1.388 . S
C591 H578 0.930 . S
C591 C590 1.388 . S
C591 C592 1.390 . S
C592 C591 1.390 . S
C592 C593 1.394 . S
C592 C598 1.465 . S
C593 C588 1.399 . S
C593 C592 1.394 . S
C593 C594 1.516 . S
C594 C593 1.516 . S
C594 C595 1.502 . S
C594 C596 1.561 . S
C594 C597 1.526 . S
C595 H579 0.959 . S
C595 H580 0.959 . S
C595 H581 0.961 . S
C595 C594 1.502 . S
C596 H582 0.960 . S
C596 H583 0.961 . S
C596 H584 0.959 . S
C596 C594 1.561 . S
C597 C594 1.526 . S
C597 C598 1.396 . S
C597 C602 1.390 . S
C598 C592 1.465 . S
C598 C597 1.396 . S
C598 C599 1.399 . S
C599 H585 0.929 . S
C599 C598 1.399 . S
C599 C600 1.385 . S
C600 H586 0.931 . S
C600 C599 1.385 . S
C600 C601 1.389 . S
C601 C600 1.389 . S
C601 C602 1.387 . S
C602 H587 0.930 . S
C602 C597 1.390 . S
C602 C601 1.387 . S
H603 C615 0.930 . S
H604 C617 0.930 . S
H605 C618 0.930 . S
H606 C622 0.959 . S
H607 C622 0.959 . S
H608 C622 0.961 . S
H609 C623 0.960 . S
H610 C623 0.961 . S
H611 C623 0.959 . S
H612 C626 0.929 . S
H613 C627 0.931 . S
H614 C629 0.930 . S
C615 H603 0.930 . S
C615 C616 1.399 1_545 S
C615 C620 1.399 . S
C616 C615 1.399 1_565 S
C616 C617 1.376 . S
C617 H604 0.930 . S
C617 C616 1.376 . S
C617 C618 1.388 . S
C618 H605 0.930 . S
C618 C617 1.388 . S
C618 C619 1.390 . S
C619 C618 1.390 . S
C619 C620 1.394 1_565 S
C619 C625 1.465 . S
C620 C615 1.399 . S
C620 C619 1.394 1_545 S
C620 C621 1.516 . S
C621 C620 1.516 . S
C621 C622 1.502 . S
C621 C623 1.561 . S
C621 C624 1.526 . S
C622 H606 0.959 . S
C622 H607 0.959 . S
C622 H608 0.961 . S
C622 C621 1.502 . S
C623 H609 0.960 . S
C623 H610 0.961 . S
C623 H611 0.959 . S
C623 C621 1.561 . S
C624 C621 1.526 . S
C624 C625 1.396 1_545 S
C624 C629 1.390 . S
C625 C619 1.465 . S
C625 C624 1.396 1_565 S
C625 C626 1.399 . S
C626 H612 0.929 . S
C626 C625 1.399 . S
C626 C627 1.385 . S
C627 H613 0.931 . S
C627 C626 1.385 . S
C627 C628 1.389 . S
C628 C627 1.389 . S
C628 C629 1.387 1_565 S
C629 H614 0.930 . S
C629 C624 1.390 . S
C629 C628 1.387 1_545 S
H630 C642 0.930 . S
H631 C644 0.930 . S
H632 C645 0.930 . S
H633 C649 0.959 . S
H634 C649 0.959 . S
H635 C649 0.961 . S
H636 C650 0.960 . S
H637 C650 0.961 . S
H638 C650 0.959 . S
H639 C653 0.929 . S
H640 C654 0.931 . S
H641 C656 0.930 . S
C642 H630 0.930 . S
C642 C643 1.399 . S
C642 C647 1.399 . S
C643 C642 1.399 . S
C643 C644 1.376 . S
C644 H631 0.930 . S
C644 C643 1.376 . S
C644 C645 1.388 . S
C645 H632 0.930 . S
C645 C644 1.388 . S
C645 C646 1.390 . S
C646 C645 1.390 . S
C646 C647 1.394 . S
C646 C652 1.465 1_556 S
C647 C642 1.399 . S
C647 C646 1.394 . S
C647 C648 1.516 . S
C648 C647 1.516 . S
C648 C649 1.502 . S
C648 C650 1.561 . S
C648 C651 1.526 1_556 S
C649 H633 0.959 . S
C649 H634 0.959 . S
C649 H635 0.961 . S
C649 C648 1.502 . S
C650 H636 0.960 . S
C650 H637 0.961 . S
C650 H638 0.959 . S
C650 C648 1.561 . S
C651 C648 1.526 1_554 S
C651 C652 1.396 . S
C651 C656 1.390 . S
C652 C646 1.465 1_554 S
C652 C651 1.396 . S
C652 C653 1.399 . S
C653 H639 0.929 . S
C653 C652 1.399 . S
C653 C654 1.385 . S
C654 H640 0.931 . S
C654 C653 1.385 . S
C654 C655 1.389 . S
C655 C654 1.389 . S
C655 C656 1.387 . S
C656 H641 0.930 . S
C656 C651 1.390 . S
C656 C655 1.387 . S
H657 C669 0.930 . S
H658 C671 0.930 . S
H659 C672 0.930 . S
H660 C676 0.959 . S
H661 C676 0.959 . S
H662 C676 0.961 . S
H663 C677 0.960 . S
H664 C677 0.961 . S
H665 C677 0.959 1_455 S
H666 C680 0.929 . S
H667 C681 0.931 . S
H668 C683 0.930 . S
C669 H657 0.930 . S
C669 C670 1.399 1_655 S
C669 C674 1.399 . S
C670 C669 1.399 1_455 S
C670 C671 1.376 . S
C671 H658 0.930 . S
C671 C670 1.376 . S
C671 C672 1.388 . S
C672 H659 0.930 . S
C672 C671 1.388 . S
C672 C673 1.390 . S
C673 C672 1.390 . S
C673 C674 1.394 1_455 S
C673 C679 1.465 . S
C674 C669 1.399 . S
C674 C673 1.394 1_655 S
C674 C675 1.516 . S
C675 C674 1.516 . S
C675 C676 1.502 . S
C675 C677 1.561 . S
C675 C678 1.534 . S
C676 H660 0.959 . S
C676 H661 0.959 . S
C676 H662 0.961 . S
C676 C675 1.502 . S
C677 H663 0.960 . S
C677 H664 0.961 . S
C677 H665 0.959 1_655 S
C677 C675 1.561 . S
C678 C675 1.534 . S
C678 C679 1.383 1_655 S
C678 C683 1.393 . S
C679 C673 1.465 . S
C679 C678 1.383 1_455 S
C679 C680 1.399 . S
C680 H666 0.929 . S
C680 C679 1.399 . S
C680 C681 1.385 . S
C681 H667 0.931 . S
C681 C680 1.385 . S
C681 C682 1.389 . S
C682 C681 1.389 . S
C682 C683 1.387 1_455 S
C683 H668 0.930 . S
C683 C678 1.393 . S
C683 C682 1.387 1_655 S
C211 C10 3.151 . S
C223 C189 2.911 . S
C238 C55 1.081 . S
C250 C167 1.073 . S
C265 C90 1.833 . S
C277 C180 1.838 . S
C292 C19 2.933 . S
C304 C193 2.922 . S
C331 C163 1.386 . S
C319 C46 1.407 . S
C358 C176 1.857 . S
C346 C99 2.006 . S
C373 C50 1.833 . S
C385 C141 1.784 . S
C400 C95 0.312 . S
C412 C154 0.372 . S
C427 C6 1.329 . S
C439 C124 1.295 . S
C466 C137 1.821 . S
C454 C59 1.993 . S
C493 C150 0.471 . S
C481 C86 0.521 . S
C508 C15 1.144 . S
C520 C128 1.136 . S
C547 C155 1.264 . S
C535 C18 1.233 . S
C562 C49 1.455 . S
C574 C129 1.538 . S
C589 C98 1.468 . S
C601 C142 1.474 . S
C628 C181 1.483 . S
C616 C58 1.483 1_565 S
C655 C194 1.740 . S
C643 C89 1.698 . S
C670 C9 1.460 . S
C682 C168 1.577 . S
