# Generated by pormake.
# Topology tsx, (6,3)-cn, num edge types: 1
# Building blocks:
#     Node 0, Type 0, BuildingBlock: FUNLAD_clean_sbu_0, # of connection points: 6
#     Node 1, Type 0, BuildingBlock: FUNLAD_clean_sbu_0, # of connection points: 6
#     Node 2, Type 1, BuildingBlock: ESEHIV_clean_linker_0, # of connection points: 3
#     Node 3, Type 1, BuildingBlock: ESEHIV_clean_linker_0, # of connection points: 3
#     Node 4, Type 1, BuildingBlock: ESEHIV_clean_linker_0, # of connection points: 3
#     Node 5, Type 1, BuildingBlock: ESEHIV_clean_linker_0, # of connection points: 3
#     Edge 6, Type (0, 1), BuildingBlock: UVAHIK_clean_linker_0, # of connection points: 2
#     Edge 7, Type (0, 1), BuildingBlock: UVAHIK_clean_linker_0, # of connection points: 2
#     Edge 8, Type (0, 1), BuildingBlock: UVAHIK_clean_linker_0, # of connection points: 2
#     Edge 9, Type (0, 1), BuildingBlock: UVAHIK_clean_linker_0, # of connection points: 2
#     Edge 10, Type (0, 1), BuildingBlock: UVAHIK_clean_linker_0, # of connection points: 2
#     Edge 11, Type (0, 1), BuildingBlock: UVAHIK_clean_linker_0, # of connection points: 2
#     Edge 12, Type (0, 1), BuildingBlock: UVAHIK_clean_linker_0, # of connection points: 2
#     Edge 13, Type (0, 1), BuildingBlock: UVAHIK_clean_linker_0, # of connection points: 2
#     Edge 14, Type (0, 1), BuildingBlock: UVAHIK_clean_linker_0, # of connection points: 2
#     Edge 15, Type (0, 1), BuildingBlock: UVAHIK_clean_linker_0, # of connection points: 2
#     Edge 16, Type (0, 1), BuildingBlock: UVAHIK_clean_linker_0, # of connection points: 2
#     Edge 17, Type (0, 1), BuildingBlock: UVAHIK_clean_linker_0, # of connection points: 2
# Relax obj value: 0.165
# Max RMSD: 0.155
# Mean RMSD: 0.089
data_MOF--net-tsx--node1-FUNLAD_clean_sbu_0--node2-ESEHIV_clean_linker_0--edge1-UVAHIK_clean_linker_0
_symmetry_space_group_name_H-M    P1
_symmetry_Int_Tables_number       1
_symmetry_cell_setting            triclinic
loop_
_symmetry_equiv_pos_as_xyz
'x, y, z'
_cell_length_a     23.257537
_cell_length_b     26.293771
_cell_length_c     50.382145
_cell_angle_alpha  91.16949
_cell_angle_beta   91.895337
_cell_angle_gamma 89.747294
loop_
_atom_site_label
_atom_site_type_symbol
_atom_site_fract_x
_atom_site_fract_y
_atom_site_fract_z
_atom_type_partial_charge
C0 C 0.91578 0.88262 0.9942 0.0
N1 N 0.97303 0.96123 0.0627 0.0
C2 C 0.919 0.96089 0.07229 0.0
C3 C 0.91092 0.95719 0.09951 0.0
C4 C 0.95885 0.95278 0.11694 0.0
C5 C 0.0141 0.95305 0.1066 0.0
C6 C 0.02028 0.95782 0.07927 0.0
Zn7 Zn 0.98259 0.96453 0.02254 0.0
C8 C 0.08147 0.90397 0.00447 0.0
N9 N 5e-05 0.96963 0.93864 0.0
C10 C 0.95607 0.95605 0.92148 0.0
C11 C 0.05224 0.98319 0.92964 0.0
C12 C 0.06181 0.98341 0.90246 0.0
C13 C 0.01757 0.96872 0.88435 0.0
C14 C 0.96411 0.95494 0.8941 0.0
Zn15 Zn 0.98989 0.96725 0.97881 0.0
O16 O 0.92497 0.90372 0.01683 0.0
C17 C 0.89173 0.02875 0.99663 0.0
O18 O 0.94018 0.89986 0.97408 0.0
H19 H 0.0869 -0.00677 0.94357 0.0
H20 H 0.88198 0.963 0.0588 0.0
H21 H 0.91487 0.94557 0.92902 0.0
O22 O 0.91325 0.01697 0.0192 0.0
O23 O 0.91425 0.01139 0.97564 0.0
H24 H 0.06285 0.95845 0.07129 0.0
O25 O 0.03927 0.03447 0.9844 0.0
O26 O 0.04025 0.02567 0.02765 0.0
O27 O 0.0655 0.92355 0.9826 0.0
O28 O 0.05243 0.91224 0.02503 0.0
C29 C 0.05623 0.04947 0.00748 0.0
H30 H 0.86764 0.95676 0.10681 0.0
H31 H 0.05205 0.95014 0.11954 0.0
H32 H 0.10381 -0.00621 0.89568 0.0
H33 H 0.92886 0.94374 0.88067 0.0
C34 C 0.43885 0.47765 0.50251 0.0
N35 N 0.52444 0.55632 0.56468 0.0
C36 C 0.4742 0.55324 0.57762 0.0
C37 C 0.47449 0.55161 0.60528 0.0
C38 C 0.52698 0.55367 0.61991 0.0
C39 C 0.57815 0.55772 0.606 0.0
C40 C 0.5759 0.55877 0.57828 0.0
Zn41 Zn 0.52198 0.55511 0.5241 0.0
C42 C 0.6046 0.481 0.50166 0.0
N43 N 0.51533 0.55094 0.43924 0.0
C44 C 0.4649 0.54323 0.42528 0.0
C45 C 0.56582 0.55612 0.42665 0.0
C46 C 0.56691 0.55366 0.39899 0.0
C47 C 0.51575 0.54484 0.38416 0.0
C48 C 0.46422 0.53959 0.39756 0.0
Zn49 Zn 0.51708 0.55292 0.47987 0.0
O50 O 0.45947 0.49795 0.5238 0.0
C51 C 0.43357 0.62635 0.50202 0.0
O52 O 0.45548 0.49295 0.48026 0.0
H53 H 0.60557 0.56152 0.43807 0.0
H54 H 0.43373 0.55133 0.56644 0.0
H55 H 0.42524 0.53938 0.43566 0.0
O56 O 0.45641 0.61127 0.52376 0.0
O57 O 0.45074 0.60784 0.48014 0.0
H58 H 0.61534 0.56118 0.5676 0.0
O59 O 0.57897 0.61183 0.48021 0.0
O60 O 0.58486 0.61272 0.52376 0.0
O61 O 0.58303 0.49852 0.48024 0.0
O62 O 0.58708 0.49783 0.52381 0.0
C63 C 0.60097 0.62977 0.5018 0.0
H64 H 0.43398 0.54766 0.61501 0.0
H65 H 0.61957 0.5602 0.61639 0.0
H66 H 0.60757 0.55728 0.38932 0.0
H67 H 0.42389 0.53296 0.38669 0.0
H68 H 0.85826 0.02657 0.39998 0.0
H69 H 0.98342 0.90631 0.40753 0.0
H70 H 0.94801 0.00323 0.47463 0.0
C71 C 0.88958 0.00551 0.4118 0.0
C72 C 0.90007 0.02016 0.43849 0.0
C73 C 0.92015 0.96521 0.40005 0.0
C74 C 0.95819 0.93674 0.41619 0.0
C75 C 0.96727 0.94952 0.44323 0.0
C76 C 0.93879 -0.00827 0.45416 0.0
H77 H 0.04055 0.92042 0.59449 0.0
H78 H 0.16279 0.04205 0.60461 0.0
H79 H 0.08486 0.00889 0.52759 0.0
C80 C 0.06672 0.94985 0.58627 0.0
C81 C 0.06131 0.95944 0.55899 0.0
C82 C 0.10206 0.98031 0.60315 0.0
C83 C 0.13373 0.01943 0.59201 0.0
C84 C 0.12739 0.03057 0.56487 0.0
C85 C 0.09117 0.00014 0.54841 0.0
H86 H 0.48286 0.57184 0.91012 0.0
H87 H 0.54697 0.41937 0.90259 0.0
H88 H 0.50094 0.47871 0.97926 0.0
C89 C 0.49604 0.53651 0.91928 0.0
C90 C 0.49066 0.53065 0.94676 0.0
C91 C 0.51549 0.49634 0.90321 0.0
C92 C 0.53035 0.45002 0.91488 0.0
C93 C 0.52569 0.44348 0.94235 0.0
C94 C 0.50545 0.48387 0.95817 0.0
H95 H 0.46767 0.41219 0.10354 0.0
H96 H 0.60736 0.51486 0.09192 0.0
H97 H 0.52311 0.44032 0.02469 0.0
C98 C 0.49735 0.42997 0.09049 0.0
C99 C 0.49179 0.42052 0.06297 0.0
C100 C 0.53918 0.46345 0.10129 0.0
C101 C 0.57511 0.48857 0.08398 0.0
C102 C 0.56872 0.48099 0.05633 0.0
C103 C 0.52723 0.4468 0.04596 0.0
C104 C 0.10834 0.12349 0.98911 0.0
C105 C 0.09571 0.09311 0.01079 0.0
C106 C 0.14733 0.16366 0.99221 0.0
C107 C 0.22175 0.244 0.04421 0.0
H108 H 0.33394 0.26444 0.99013 0.0
C109 C 0.43743 0.33929 0.0665 0.0
C110 C 0.44811 0.38369 0.05241 0.0
C111 C 0.39247 0.30712 0.05859 0.0
C112 C 0.30234 0.25943 0.00517 0.0
H113 H 0.11404 0.08091 0.05268 0.0
H114 H 0.18291 0.14968 0.05793 0.0
H115 H 0.25675 0.20235 0.98217 0.0
H116 H 0.4219 0.42736 0.01788 0.0
H117 H 0.34397 0.36945 0.00352 0.0
H118 H 0.26927 0.29912 0.06769 0.0
C119 C 0.16174 0.14361 0.03867 0.0
C120 C 0.25807 0.22412 0.00065 0.0
C121 C 0.12247 0.10386 0.03563 0.0
C122 C 0.41491 0.39344 0.02917 0.0
C123 C 0.37024 0.36058 0.02099 0.0
C124 C 0.26632 0.27858 0.04883 0.0
C125 C 0.17473 0.17401 0.01702 0.0
C126 C 0.21802 0.2152 0.0204 0.0
C127 C 0.35787 0.31802 0.03612 0.0
C128 C 0.30753 0.28579 0.02959 0.0
H129 H 0.08821 0.11621 0.96972 0.0
H130 H 0.15585 0.18667 0.97521 0.0
H131 H 0.19081 0.23916 0.05955 0.0
H132 H 0.46326 0.32976 0.084 0.0
H133 H 0.38419 0.2739 0.07024 0.0
C134 C 0.1381 0.83038 0.02231 0.0
C135 C 0.1338 0.87244 0.00567 0.0
C136 C 0.18586 0.79791 0.02122 0.0
C137 C 0.29992 0.76235 0.97459 0.0
H138 H 0.3578 0.6807 0.03298 0.0
C139 C 0.48202 0.62327 0.95815 0.0
C140 C 0.46622 0.57281 0.96284 0.0
C141 C 0.45131 0.66364 0.96917 0.0
C142 C 0.34213 0.70358 0.01661 0.0
H143 H 0.17739 0.91631 0.97655 0.0
H144 H 0.2619 0.86179 0.97569 0.0
H145 H 0.28481 0.74628 0.04104 0.0
H146 H 0.40946 0.52505 0.98475 0.0
H147 H 0.35566 0.59599 0.00408 0.0
H148 H 0.357 0.71996 0.95023 0.0
C149 C 0.22753 0.85192 0.9886 0.0
C150 C 0.30012 0.74084 0.02112 0.0
C151 C 0.17928 0.88342 0.98917 0.0
C152 C 0.42255 0.56355 0.98075 0.0
C153 C 0.39184 0.6041 0.99186 0.0
C154 C 0.34232 0.72596 0.97025 0.0
C155 C 0.23063 0.80772 0.00388 0.0
C156 C 0.27807 0.77036 5e-05 0.0
C157 C 0.40434 0.65434 0.98514 0.0
C158 C 0.36347 0.6959 0.99109 0.0
H159 H 0.10343 0.82129 0.03523 0.0
H160 H 0.18638 0.7641 0.03312 0.0
H161 H 0.28302 0.78298 0.95766 0.0
H162 H 0.51654 0.63151 0.94499 0.0
H163 H 0.46233 0.70214 0.96406 0.0
C164 C 0.87726 0.80546 0.96953 0.0
C165 C 0.87606 0.83915 0.99155 0.0
C166 C 0.84044 0.76343 0.96789 0.0
C167 C 0.70552 0.7149 0.99315 0.0
H168 H 0.77573 0.58096 0.98968 0.0
C169 C 0.57607 0.53978 0.01835 0.0
C170 C 0.60335 0.51121 0.03837 0.0
C171 C 0.60755 0.5739 0.00377 0.0
C172 C 0.7554 0.61809 0.99032 0.0
H173 H 0.83446 0.8563 0.02862 0.0
H174 H 0.76999 0.78374 0.02552 0.0
H175 H 0.83318 0.65619 0.9808 0.0
H176 H 0.68503 0.49332 0.0579 0.0
H177 H 0.74007 0.55365 0.03283 0.0
H178 H 0.62881 0.67763 0.00415 0.0
C179 C 0.79932 0.78959 0.0096 0.0
C180 C 0.78811 0.661 0.98505 0.0
C181 C 0.8366 0.83086 0.01148 0.0
C182 C 0.66308 0.51521 0.04262 0.0
C183 C 0.69459 0.54929 0.02805 0.0
C184 C 0.67277 0.67212 0.9982 0.0
C185 C 0.80114 0.75529 0.98793 0.0
C186 C 0.76399 0.70984 0.98753 0.0
C187 C 0.66682 0.58018 0.00906 0.0
C188 C 0.698 0.62344 0.9979 0.0
H189 H 0.90735 0.811 0.9539 0.0
H190 H 0.84263 0.73733 0.95104 0.0
H191 H 0.68591 0.75221 0.99495 0.0
H192 H 0.52991 0.53784 0.01502 0.0
H193 H 0.58518 0.59703 0.98918 0.0
C194 C 0.80533 0.06225 0.97207 0.0
C195 C 0.84201 0.0635 0.99472 0.0
C196 C 0.76027 0.09715 0.96946 0.0
C197 C 0.67891 0.19851 0.00598 0.0
H198 H 0.65479 0.24959 0.93482 0.0
C199 C 0.581 0.39455 0.97698 0.0
C200 C 0.54423 0.39485 0.95427 0.0
C201 C 0.60644 0.34912 0.98541 0.0
C202 C 0.66038 0.23519 0.95474 0.0
H203 H 0.85977 0.10118 0.03274 0.0
H204 H 0.78308 0.16398 0.02763 0.0
H205 H 0.72141 0.17994 0.94225 0.0
H206 H 0.50084 0.34756 0.92415 0.0
H207 H 0.54626 0.26848 0.93854 0.0
H208 H 0.61983 0.25673 0.01839 0.0
C209 C 0.78765 0.13513 0.0122 0.0
C210 C 0.69844 0.19498 0.95905 0.0
C211 C 0.83195 0.09939 0.01507 0.0
C212 C 0.53 0.34852 0.94138 0.0
C213 C 0.55571 0.30333 0.94965 0.0
C214 C 0.64139 0.23953 0.00169 0.0
C215 C 0.75179 0.13501 0.98914 0.0
C216 C 0.70847 0.1761 0.98471 0.0
C217 C 0.59577 0.30355 0.9711 0.0
C218 C 0.63196 0.25818 0.97601 0.0
H219 H 0.81162 0.03437 0.95628 0.0
H220 H 0.7326 0.09482 0.95178 0.0
H221 H 0.6849 0.1846 0.02596 0.0
H222 H 0.59302 0.42978 0.98718 0.0
H223 H 0.63742 0.35025 0.00195 0.0
C224 C 0.67432 0.67911 0.47784 0.0
C225 C 0.64584 0.66922 0.50138 0.0
C226 C 0.71858 0.71492 0.4778 0.0
C227 C 0.77692 0.82617 0.5144 0.0
H228 H 0.9253 0.78332 0.48869 0.0
C229 C 0.02204 0.8763 0.54226 0.0
C230 C 0.01978 0.92961 0.54237 0.0
C231 C 0.97783 0.84787 0.52995 0.0
C232 C 0.88393 0.79594 0.49567 0.0
H233 H 0.64049 0.68974 0.54314 0.0
H234 H 0.71715 0.75263 0.54297 0.0
H235 H 0.84177 0.72753 0.48192 0.0
H236 H 0.97158 -0.00471 0.52874 0.0
H237 H 0.89351 0.94547 0.50749 0.0
H238 H 0.81916 0.89351 0.52911 0.0
C239 C 0.70525 0.73272 0.52458 0.0
C240 C 0.83619 0.76423 0.49168 0.0
C241 C 0.66164 0.6965 0.52471 0.0
C242 C 0.97419 0.95414 0.52884 0.0
C243 C 0.92954 0.92572 0.51683 0.0
C244 C 0.82439 0.85801 0.51815 0.0
C245 C 0.73442 0.74199 0.50119 0.0
C246 C 0.78271 0.77844 0.50177 0.0
C247 C 0.93024 0.87237 0.51787 0.0
C248 C 0.87871 0.84256 0.50953 0.0
H249 H 0.66317 0.65853 0.45955 0.0
H250 H 0.74039 0.7215 0.45952 0.0
H251 H 0.73599 0.83817 0.52212 0.0
H252 H 0.05707 0.8567 0.55248 0.0
H253 H 0.97934 0.80682 0.53123 0.0
C254 C 0.65327 0.40462 0.52143 0.0
C255 C 0.64579 0.43831 0.50027 0.0
C256 C 0.68464 0.35947 0.51806 0.0
C257 C 0.72262 0.2719 0.46385 0.0
H258 H 0.83002 0.21116 0.51463 0.0
C259 C 0.87095 0.11086 0.4332 0.0
C260 C 0.87377 0.06755 0.44907 0.0
C261 C 0.84441 0.15514 0.4422 0.0
C262 C 0.79957 0.22755 0.50046 0.0
H263 H 0.66915 0.45356 0.45988 0.0
H264 H 0.72468 0.37586 0.45425 0.0
H265 H 0.78333 0.29256 0.52566 0.0
H266 H 0.85318 0.03745 0.48737 0.0
H267 H 0.80666 0.11586 0.50329 0.0
H268 H 0.73901 0.20776 0.43852 0.0
C269 C 0.70495 0.38327 0.47313 0.0
C270 C 0.77299 0.27401 0.50673 0.0
C271 C 0.67343 0.42793 0.47641 0.0
C272 C 0.85147 0.07023 0.47469 0.0
C273 C 0.82497 0.11496 0.4838 0.0
C274 C 0.74912 0.22589 0.45761 0.0
C275 C 0.70908 0.34765 0.49353 0.0
C276 C 0.73523 0.29712 0.48818 0.0
C277 C 0.82031 0.15742 0.46736 0.0
C278 C 0.78874 0.20377 0.47557 0.0
H279 H 0.63235 0.41172 0.54004 0.0
H280 H 0.6872 0.33273 0.53412 0.0
H281 H 0.69236 0.28792 0.44947 0.0
H282 H 0.88931 0.11058 0.41372 0.0
H283 H 0.84257 0.18773 0.42938 0.0
C284 C 0.37066 0.42685 0.528 0.0
C285 C 0.39869 0.43466 0.50419 0.0
C286 C 0.33851 0.38307 0.53134 0.0
C287 C 0.26885 0.27267 0.49728 0.0
H288 H 0.29382 0.21317 0.56657 0.0
C289 C 0.18142 0.07501 0.5295 0.0
C290 C 0.15577 0.07613 0.55442 0.0
C291 C 0.21005 0.11789 0.52057 0.0
C292 C 0.28626 0.22943 0.54717 0.0
H293 H 0.41273 0.40402 0.46464 0.0
H294 H 0.35697 0.32643 0.47069 0.0
H295 H 0.34475 0.29015 0.55588 0.0
H296 H 0.13668 0.12414 0.5886 0.0
H297 H 0.1874 0.19801 0.57333 0.0
H298 H 0.21027 0.211 0.48877 0.0
C299 C 0.3596 0.35459 0.48667 0.0
C300 C 0.3152 0.27365 0.54106 0.0
C301 C 0.39153 0.39892 0.48322 0.0
C302 C 0.15753 0.12142 0.56972 0.0
C303 C 0.18631 0.16385 0.56092 0.0
C304 C 0.23997 0.22792 0.50339 0.0
C305 C 0.33417 0.34562 0.51108 0.0
C306 C 0.30585 0.29653 0.51632 0.0
C307 C 0.21365 0.1623 0.53651 0.0
C308 C 0.24755 0.20666 0.52863 0.0
H309 H 0.37463 0.45411 0.54438 0.0
H310 H 0.31804 0.37802 0.5501 0.0
H311 H 0.26085 0.28939 0.47804 0.0
H312 H 0.18071 0.04065 0.51726 0.0
H313 H 0.23088 0.11582 0.50167 0.0
C314 C 0.37125 0.68999 0.47869 0.0
C315 C 0.38722 0.66487 0.50215 0.0
C316 C 0.327 0.72594 0.47858 0.0
C317 C 0.19511 0.76019 0.51084 0.0
H318 H 0.21179 0.8864 0.47334 0.0
C319 C 0.05543 0.94676 0.47294 0.0
C320 C 0.01038 0.92103 0.45923 0.0
C321 C 0.10037 0.91945 0.48506 0.0
C322 C 0.20665 0.8518 0.48431 0.0
H323 H 0.36936 0.65763 0.54391 0.0
H324 H 0.2909 0.72009 0.5435 0.0
H325 H 0.29538 0.83163 0.48086 0.0
H326 H 0.9745 0.84712 0.44893 0.0
H327 H 0.05294 0.79925 0.47018 0.0
H328 H 0.1057 0.77953 0.5133 0.0
C329 C 0.31313 0.71205 0.52532 0.0
C330 C 0.25436 0.82026 0.48837 0.0
C331 C 0.35806 0.67651 0.52554 0.0
C332 C 0.00918 0.86769 0.45917 0.0
C333 C 0.05373 0.8404 0.47153 0.0
C334 C 0.14714 0.79156 0.50654 0.0
C335 C 0.29733 0.73712 0.50184 0.0
C336 C 0.24871 0.77356 0.50102 0.0
C337 C 0.10059 0.86602 0.48391 0.0
C338 C 0.15225 0.83701 0.49262 0.0
H339 H 0.39294 0.6819 0.46037 0.0
H340 H 0.31513 0.74426 0.46012 0.0
H341 H 0.18965 0.7243 0.52062 0.0
H342 H 0.05723 0.98793 0.47325 0.0
H343 H 0.13577 0.94007 0.49468 0.0
C344 C 0.91687 0.98309 0.15945 0.0
C345 C 0.95109 0.94795 0.14578 0.0
C346 C 0.90974 0.9789 0.18672 0.0
C347 C 0.974 0.91727 0.2468 0.0
H348 H 0.83296 0.96562 0.27785 0.0
C349 C 0.92333 0.90716 0.35936 0.0
C350 C 0.91614 0.95617 0.37067 0.0
C351 C 0.92367 0.90001 0.33174 0.0
C352 C 0.87235 0.95165 0.26935 0.0
H353 H 0.0037 0.88023 0.14956 0.0
H354 H 0.98951 0.8714 0.19703 0.0
H355 H 0.84077 0.96354 0.22969 0.0
H356 H 0.90406 0.03603 0.36121 0.0
H357 H 0.90134 0.02272 0.31341 0.0
H358 H 0.00472 0.90471 0.28678 0.0
C359 C 0.96957 0.90328 0.187 0.0
C360 C 0.87723 0.95095 0.24179 0.0
C361 C 0.97756 0.90811 0.15978 0.0
C362 C 0.90795 -0.00253 0.35353 0.0
C363 C 0.9069 -0.00992 0.32605 0.0
C364 C 0.96858 0.917 0.27435 0.0
C365 C 0.93576 0.93879 0.20091 0.0
C366 C 0.92867 0.93498 0.23013 0.0
C367 C 0.91543 0.94149 0.31494 0.0
C368 C 0.9182 0.93523 0.28583 0.0
H369 H 0.89649 0.01445 0.14909 0.0
H370 H 0.88461 0.00779 0.19671 0.0
H371 H 0.01457 0.90536 0.23873 0.0
H372 H 0.92892 0.87428 0.37178 0.0
H373 H 0.93021 0.86214 0.32349 0.0
C374 C 0.0533 0.00854 0.84338 0.0
C375 C 0.02774 0.96712 0.85549 0.0
C376 C 0.06426 0.00667 0.81629 0.0
C377 C 0.02568 0.93584 0.75348 0.0
H378 H 0.15981 0.00515 0.72847 0.0
C379 C 0.09527 0.92631 0.64387 0.0
C380 C 0.10181 0.97441 0.63255 0.0
C381 C 0.09014 0.92181 0.67132 0.0
C382 C 0.12226 0.98559 0.73523 0.0
H383 H 0.99417 0.89105 0.84899 0.0
H384 H 0.01489 0.88692 0.80183 0.0
H385 H 0.14288 0.0037 0.77594 0.0
H386 H 0.10821 0.05544 0.64168 0.0
H387 H 0.10182 0.04704 0.68939 0.0
H388 H 0.00595 0.91718 0.71256 0.0
C389 C 0.02508 0.92152 0.81298 0.0
C390 C 0.11219 0.98506 0.7624 0.0
C391 C 0.01332 0.92374 0.84002 0.0
C392 C 0.10472 0.0176 0.64953 0.0
C393 C 0.10065 0.01295 0.67694 0.0
C394 C 0.03631 0.93572 0.72633 0.0
C395 C 0.05079 0.96296 0.80074 0.0
C396 C 0.06321 0.96094 0.77189 0.0
C397 C 0.09252 0.96515 0.68805 0.0
C398 C 0.08419 0.96127 0.71694 0.0
H399 H 0.06426 0.04265 0.85484 0.0
H400 H 0.08277 0.03983 0.80753 0.0
H401 H 0.98711 0.91749 0.7599 0.0
H402 H 0.09373 0.8921 0.63154 0.0
H403 H 0.08433 0.88446 0.67949 0.0
C404 C 0.48468 0.57351 0.66428 0.0
C405 C 0.52823 0.55053 0.64939 0.0
C406 C 0.4845 0.56871 0.69184 0.0
C407 C 0.57702 0.54289 0.75033 0.0
H408 H 0.43508 0.50314 0.7824 0.0
C409 C 0.49605 0.46533 0.85647 0.0
C410 C 0.51914 0.50248 0.87415 0.0
C411 C 0.49796 0.47171 0.82906 0.0
C412 C 0.47503 0.5141 0.77369 0.0
H413 H 0.60593 0.50454 0.65207 0.0
H414 H 0.60623 0.49736 0.70024 0.0
H415 H 0.43706 0.51415 0.73438 0.0
H416 H 0.56325 0.5749 0.87711 0.0
H417 H 0.56705 0.58587 0.82907 0.0
H418 H 0.61494 0.54288 0.7897 0.0
C419 C 0.57236 0.51917 0.69047 0.0
C420 C 0.47605 0.52081 0.74628 0.0
C421 C 0.57224 0.52348 0.66287 0.0
C422 C 0.54484 0.54584 0.8639 0.0
C423 C 0.54737 0.55193 0.83647 0.0
C424 C 0.57583 0.53678 0.7778 0.0
C425 C 0.5282 0.54133 0.70519 0.0
C426 C 0.52709 0.53509 0.73432 0.0
C427 C 0.52358 0.51508 0.8188 0.0
C428 C 0.52488 0.52209 0.78972 0.0
H429 H 0.45074 0.59547 0.65469 0.0
H430 H 0.45036 0.58677 0.70276 0.0
H431 H 0.61685 0.55419 0.74162 0.0
H432 H 0.47563 0.43172 0.86386 0.0
H433 H 0.47969 0.44255 0.81587 0.0
C434 C 0.49161 0.49712 0.34188 0.0
C435 C 0.51673 0.53956 0.35489 0.0
C436 C 0.49508 0.49063 0.3144 0.0
C437 C 0.57642 0.53524 0.25675 0.0
H438 H 0.45216 0.46854 0.21658 0.0
C439 C 0.55418 0.52222 0.1411 0.0
C440 C 0.54337 0.47306 0.13053 0.0
C441 C 0.55366 0.53159 0.16854 0.0
C442 C 0.48724 0.48705 0.22762 0.0
H443 H 0.5638 0.60923 0.34948 0.0
H444 H 0.56786 0.59926 0.30132 0.0
H445 H 0.44323 0.48434 0.26406 0.0
H446 H 0.52667 0.39479 0.14085 0.0
H447 H 0.52362 0.41179 0.1885 0.0
H448 H 0.61932 0.53916 0.21977 0.0
C449 C 0.54711 0.56995 0.31232 0.0
C450 C 0.48238 0.49587 0.25486 0.0
C451 C 0.54448 0.57594 0.33988 0.0
C452 C 0.53369 0.43335 0.14816 0.0
C453 C 0.5322 0.44294 0.17546 0.0
C454 C 0.58076 0.5272 0.22936 0.0
C455 C 0.52289 0.52695 0.2992 0.0
C456 C 0.52718 0.51955 0.26991 0.0
C457 C 0.5415 0.4922 0.18586 0.0
C458 C 0.53649 0.50249 0.21465 0.0
H459 H 0.47065 0.46818 0.35309 0.0
H460 H 0.47696 0.45648 0.3052 0.0
H461 H 0.61226 0.5528 0.26764 0.0
H462 H 0.56112 0.55385 0.12818 0.0
H463 H 0.56075 0.56997 0.17614 0.0
loop_
_geom_bond_atom_site_label_1
_geom_bond_atom_site_label_2
_geom_bond_distance
_geom_bond_site_symmetry_2
_ccdc_geom_bond_type
C0 O16 1.251 . S
C0 O18 1.254 1_554 S
N1 C2 1.333 1_445 S
N1 C6 1.307 . S
N1 Zn7 2.020 . S
C2 N1 1.333 1_665 S
C2 C3 1.379 . S
C2 H20 0.952 . S
C3 C2 1.379 . S
C3 C4 1.390 1_665 S
C3 H30 0.949 . S
C4 C3 1.390 1_445 S
C4 C5 1.357 . S
C5 C4 1.357 . S
C5 C6 1.370 . S
C5 H31 0.950 . S
C6 N1 1.307 . S
C6 C5 1.370 . S
C6 H24 0.948 . S
Zn7 N1 2.020 . S
Zn7 O16 2.039 1_445 S
Zn7 O22 2.034 1_455 S
Zn7 O26 2.025 . S
Zn7 O28 2.024 1_545 S
C8 O27 1.246 1_554 S
C8 O28 1.249 . S
N9 C10 1.307 1_445 S
N9 C11 1.333 . S
N9 Zn15 2.020 . S
C10 N9 1.307 1_665 S
C10 C14 1.370 . S
C10 H21 0.948 . S
C11 N9 1.333 . S
C11 C12 1.379 . S
C11 H19 0.952 . S
C12 C11 1.379 . S
C12 C13 1.390 . S
C12 H32 0.949 . S
C13 C12 1.390 . S
C13 C14 1.357 1_445 S
C14 C10 1.370 . S
C14 C13 1.357 1_665 S
C14 H33 0.950 . S
Zn15 N9 2.020 . S
Zn15 O18 2.025 1_445 S
Zn15 O23 2.024 1_455 S
Zn15 O25 2.039 . S
Zn15 O27 2.034 1_545 S
O16 C0 1.251 . S
O16 Zn7 2.039 1_665 S
C17 O22 1.246 . S
C17 O23 1.249 1_554 S
O18 C0 1.254 1_556 S
O18 Zn15 2.025 1_665 S
H19 C11 0.952 . S
H20 C2 0.952 . S
H21 C10 0.948 . S
O22 Zn7 2.034 1_655 S
O22 C17 1.246 . S
O23 Zn15 2.024 1_655 S
O23 C17 1.249 1_556 S
H24 C6 0.948 . S
O25 Zn15 2.039 . S
O25 C29 1.251 1_556 S
O26 Zn7 2.025 . S
O26 C29 1.254 . S
O27 C8 1.246 1_556 S
O27 Zn15 2.034 1_565 S
O28 Zn7 2.024 1_565 S
O28 C8 1.249 . S
C29 O25 1.251 1_554 S
C29 O26 1.254 . S
H30 C3 0.949 . S
H31 C5 0.950 . S
H32 C12 0.949 . S
H33 C14 0.950 . S
C34 O50 1.251 . S
C34 O52 1.254 . S
N35 C36 1.333 . S
N35 C40 1.307 . S
N35 Zn41 2.020 . S
C36 N35 1.333 . S
C36 C37 1.379 . S
C36 H54 0.952 . S
C37 C36 1.379 . S
C37 C38 1.390 . S
C37 H64 0.949 . S
C38 C37 1.390 . S
C38 C39 1.357 . S
C39 C38 1.357 . S
C39 C40 1.370 . S
C39 H65 0.950 . S
C40 N35 1.307 . S
C40 C39 1.370 . S
C40 H58 0.948 . S
Zn41 N35 2.020 . S
Zn41 O50 2.039 . S
Zn41 O56 2.034 . S
Zn41 O60 2.025 . S
Zn41 O62 2.024 . S
C42 O61 1.246 . S
C42 O62 1.249 . S
N43 C44 1.307 . S
N43 C45 1.333 . S
N43 Zn49 2.020 . S
C44 N43 1.307 . S
C44 C48 1.370 . S
C44 H55 0.948 . S
C45 N43 1.333 . S
C45 C46 1.379 . S
C45 H53 0.952 . S
C46 C45 1.379 . S
C46 C47 1.390 . S
C46 H66 0.949 . S
C47 C46 1.390 . S
C47 C48 1.357 . S
C48 C44 1.370 . S
C48 C47 1.357 . S
C48 H67 0.950 . S
Zn49 N43 2.020 . S
Zn49 O52 2.025 . S
Zn49 O57 2.024 . S
Zn49 O59 2.039 . S
Zn49 O61 2.034 . S
O50 C34 1.251 . S
O50 Zn41 2.039 . S
C51 O56 1.246 . S
C51 O57 1.249 . S
O52 C34 1.254 . S
O52 Zn49 2.025 . S
H53 C45 0.952 . S
H54 C36 0.952 . S
H55 C44 0.948 . S
O56 Zn41 2.034 . S
O56 C51 1.246 . S
O57 Zn49 2.024 . S
O57 C51 1.249 . S
H58 C40 0.948 . S
O59 Zn49 2.039 . S
O59 C63 1.251 . S
O60 Zn41 2.025 . S
O60 C63 1.254 . S
O61 C42 1.246 . S
O61 Zn49 2.034 . S
O62 Zn41 2.024 . S
O62 C42 1.249 . S
C63 O59 1.251 . S
C63 O60 1.254 . S
H64 C37 0.949 . S
H65 C39 0.950 . S
H66 C46 0.949 . S
H67 C48 0.950 . S
H68 C71 0.931 . S
H69 C74 0.928 . S
H70 C76 0.930 . S
C71 H68 0.931 . S
C71 C72 1.413 . S
C71 C73 1.369 1_545 S
C72 C71 1.413 . S
C72 C76 1.416 1_645 S
C73 C71 1.369 1_565 S
C73 C74 1.364 1_655 S
C74 H69 0.928 . S
C74 C73 1.364 1_455 S
C74 C75 1.404 . S
C75 C74 1.404 . S
C75 C76 1.404 . S
C76 H70 0.930 . S
C76 C72 1.416 1_465 S
C76 C75 1.404 . S
H77 C80 0.931 . S
H78 C83 0.928 . S
H79 C85 0.930 . S
C80 H77 0.931 . S
C80 C81 1.413 . S
C80 C82 1.360 1_665 S
C81 C80 1.413 . S
C81 C85 1.429 1_665 S
C82 C80 1.360 1_445 S
C82 C83 1.372 . S
C83 H78 0.928 . S
C83 C82 1.372 . S
C83 C84 1.404 . S
C84 C83 1.404 . S
C84 C85 1.391 . S
C85 H79 0.930 . S
C85 C81 1.429 1_445 S
C85 C84 1.391 . S
H86 C89 0.931 . S
H87 C92 0.928 . S
H88 C94 0.930 . S
C89 H86 0.931 . S
C89 C90 1.413 . S
C89 C91 1.360 . S
C90 C89 1.413 . S
C90 C94 1.429 . S
C91 C89 1.360 . S
C91 C92 1.372 . S
C92 H87 0.928 . S
C92 C91 1.372 . S
C92 C93 1.404 . S
C93 C92 1.404 . S
C93 C94 1.391 . S
C94 H88 0.930 . S
C94 C90 1.429 . S
C94 C93 1.391 . S
H95 C98 0.931 . S
H96 C101 0.928 . S
H97 C103 0.930 . S
C98 H95 0.931 . S
C98 C99 1.413 . S
C98 C100 1.360 . S
C99 C98 1.413 . S
C99 C103 1.429 . S
C100 C98 1.360 . S
C100 C101 1.372 . S
C101 H96 0.928 . S
C101 C100 1.372 . S
C101 C102 1.404 . S
C102 C101 1.404 . S
C102 C103 1.391 . S
C103 H97 0.930 . S
C103 C99 1.429 . S
C103 C102 1.391 . S
C104 C105 1.349 1_556 S
C104 C106 1.327 . S
C104 H129 0.950 . S
C105 C104 1.349 1_554 S
C105 C121 1.349 . S
C106 C104 1.327 . S
C106 C125 1.429 1_556 S
C106 H130 0.950 . S
C107 C124 1.574 . S
C107 C126 1.368 . S
C107 H131 0.949 . S
H108 C112 0.949 1_556 S
C109 C110 1.349 . S
C109 C111 1.327 . S
C109 H132 0.950 . S
C110 C109 1.349 . S
C110 C122 1.349 . S
C111 C109 1.327 . S
C111 C127 1.429 . S
C111 H133 0.950 . S
C112 H108 0.949 1_554 S
C112 C120 1.574 . S
C112 C128 1.368 . S
H113 C121 0.950 . S
H114 C119 0.950 . S
H115 C120 0.949 1_556 S
H116 C122 0.950 . S
H117 C123 0.950 . S
H118 C124 0.949 . S
C119 H114 0.950 . S
C119 C121 1.327 . S
C119 C125 1.429 . S
C120 C112 1.574 . S
C120 H115 0.949 1_554 S
C120 C126 1.368 . S
C121 C105 1.349 . S
C121 H113 0.950 . S
C121 C119 1.327 . S
C122 C110 1.349 . S
C122 H116 0.950 . S
C122 C123 1.327 . S
C123 H117 0.950 . S
C123 C122 1.327 . S
C123 C127 1.429 . S
C124 C107 1.574 . S
C124 H118 0.949 . S
C124 C128 1.368 . S
C125 C106 1.429 1_554 S
C125 C119 1.429 . S
C125 C126 1.523 . S
C126 C107 1.368 . S
C126 C120 1.368 . S
C126 C125 1.523 . S
C127 C111 1.429 . S
C127 C123 1.429 . S
C127 C128 1.523 . S
C128 C112 1.368 . S
C128 C124 1.368 . S
C128 C127 1.523 . S
H129 C104 0.950 . S
H130 C106 0.950 . S
H131 C107 0.949 . S
H132 C109 0.950 . S
H133 C111 0.950 . S
C134 C135 1.351 1_554 S
C134 C136 1.327 . S
C134 H159 0.950 . S
C135 C134 1.351 1_556 S
C135 C151 1.346 . S
C136 C134 1.327 . S
C136 C155 1.429 1_554 S
C136 H160 0.950 . S
C137 C154 1.574 . S
C137 C156 1.368 . S
C137 H161 0.949 . S
H138 C142 0.949 1_554 S
C139 C140 1.349 . S
C139 C141 1.327 . S
C139 H162 0.950 . S
C140 C139 1.349 . S
C140 C152 1.349 . S
C141 C139 1.327 . S
C141 C157 1.429 . S
C141 H163 0.950 . S
C142 H138 0.949 1_556 S
C142 C150 1.577 . S
C142 C158 1.368 . S
H143 C151 0.950 . S
H144 C149 0.950 . S
H145 C150 0.937 1_554 S
H146 C152 0.950 . S
H147 C153 0.950 . S
H148 C154 0.949 . S
C149 H144 0.950 . S
C149 C151 1.327 . S
C149 C155 1.429 . S
C150 C142 1.577 . S
C150 H145 0.937 1_556 S
C150 C156 1.378 . S
C151 C135 1.346 . S
C151 H143 0.950 . S
C151 C149 1.327 . S
C152 C140 1.349 . S
C152 H146 0.950 . S
C152 C153 1.327 . S
C153 H147 0.950 . S
C153 C152 1.327 . S
C153 C157 1.429 . S
C154 C137 1.574 . S
C154 H148 0.949 . S
C154 C158 1.368 . S
C155 C136 1.429 1_556 S
C155 C149 1.429 . S
C155 C156 1.523 . S
C156 C137 1.368 . S
C156 C150 1.378 . S
C156 C155 1.523 . S
C157 C141 1.429 . S
C157 C153 1.429 . S
C157 C158 1.523 . S
C158 C142 1.368 . S
C158 C154 1.368 . S
C158 C157 1.523 . S
H159 C134 0.950 . S
H160 C136 0.950 . S
H161 C137 0.949 . S
H162 C139 0.950 . S
H163 C141 0.950 . S
C164 C165 1.349 . S
C164 C166 1.327 . S
C164 H189 0.950 . S
C165 C164 1.349 . S
C165 C181 1.349 . S
C166 C164 1.327 . S
C166 C185 1.429 . S
C166 H190 0.950 . S
C167 C184 1.574 . S
C167 C186 1.368 . S
C167 H191 0.949 . S
H168 C172 0.949 . S
C169 C170 1.349 . S
C169 C171 1.327 . S
C169 H192 0.950 . S
C170 C169 1.349 . S
C170 C182 1.349 . S
C171 C169 1.327 . S
C171 C187 1.429 . S
C171 H193 0.950 . S
C172 H168 0.949 . S
C172 C180 1.574 . S
C172 C188 1.368 . S
H173 C181 0.950 . S
H174 C179 0.950 . S
H175 C180 0.949 . S
H176 C182 0.950 . S
H177 C183 0.950 . S
H178 C184 0.949 . S
C179 H174 0.950 . S
C179 C181 1.327 . S
C179 C185 1.429 . S
C180 C172 1.574 . S
C180 H175 0.949 . S
C180 C186 1.368 . S
C181 C165 1.349 . S
C181 H173 0.950 . S
C181 C179 1.327 . S
C182 C170 1.349 . S
C182 H176 0.950 . S
C182 C183 1.327 . S
C183 H177 0.950 . S
C183 C182 1.327 . S
C183 C187 1.429 . S
C184 C167 1.574 . S
C184 H178 0.949 . S
C184 C188 1.368 . S
C185 C166 1.429 . S
C185 C179 1.429 . S
C185 C186 1.523 . S
C186 C167 1.368 . S
C186 C180 1.368 . S
C186 C185 1.523 . S
C187 C171 1.429 . S
C187 C183 1.429 . S
C187 C188 1.523 . S
C188 C172 1.368 . S
C188 C184 1.368 . S
C188 C187 1.523 . S
H189 C164 0.950 . S
H190 C166 0.950 . S
H191 C167 0.949 . S
H192 C169 0.950 . S
H193 C171 0.950 . S
C194 C195 1.331 1_556 S
C194 C196 1.327 . S
C194 H219 0.950 . S
C195 C194 1.331 1_554 S
C195 C211 1.362 . S
C196 C194 1.327 . S
C196 C215 1.429 . S
C196 H220 0.950 . S
C197 C214 1.571 1_554 S
C197 C216 1.360 1_554 S
C197 H221 0.959 . S
H198 C202 0.949 . S
C199 C200 1.349 . S
C199 C201 1.327 . S
C199 H222 0.950 . S
C200 C199 1.349 . S
C200 C212 1.349 . S
C201 C199 1.327 . S
C201 C217 1.429 . S
C201 H223 0.950 . S
C202 H198 0.949 . S
C202 C210 1.574 . S
C202 C218 1.368 . S
H203 C211 0.950 . S
H204 C209 0.950 . S
H205 C210 0.949 . S
H206 C212 0.950 . S
H207 C213 0.950 . S
H208 C214 0.949 1_554 S
C209 H204 0.950 . S
C209 C211 1.327 . S
C209 C215 1.429 1_554 S
C210 C202 1.574 . S
C210 H205 0.949 . S
C210 C216 1.368 . S
C211 C195 1.362 . S
C211 H203 0.950 . S
C211 C209 1.327 . S
C212 C200 1.349 . S
C212 H206 0.950 . S
C212 C213 1.327 . S
C213 H207 0.950 . S
C213 C212 1.327 . S
C213 C217 1.429 . S
C214 C197 1.571 1_556 S
C214 H208 0.949 1_556 S
C214 C218 1.368 . S
C215 C196 1.429 . S
C215 C209 1.429 1_556 S
C215 C216 1.523 . S
C216 C197 1.360 1_556 S
C216 C210 1.368 . S
C216 C215 1.523 . S
C217 C201 1.429 . S
C217 C213 1.429 . S
C217 C218 1.523 . S
C218 C202 1.368 . S
C218 C214 1.368 . S
C218 C217 1.523 . S
H219 C194 0.950 . S
H220 C196 0.950 . S
H221 C197 0.959 . S
H222 C199 0.950 . S
H223 C201 0.950 . S
C224 C225 1.349 . S
C224 C226 1.327 . S
C224 H249 0.950 . S
C225 C224 1.349 . S
C225 C241 1.349 . S
C226 C224 1.327 . S
C226 C245 1.429 . S
C226 H250 0.950 . S
C227 C244 1.574 . S
C227 C246 1.368 . S
C227 H251 0.949 . S
H228 C232 0.949 . S
C229 C230 1.349 . S
C229 C231 1.327 . S
C229 H252 0.950 . S
C230 C229 1.349 . S
C230 C242 1.349 . S
C231 C229 1.327 . S
C231 C247 1.429 . S
C231 H253 0.950 . S
C232 H228 0.949 . S
C232 C240 1.574 . S
C232 C248 1.368 . S
H233 C241 0.950 . S
H234 C239 0.950 . S
H235 C240 0.949 . S
H236 C242 0.950 . S
H237 C243 0.950 . S
H238 C244 0.949 . S
C239 H234 0.950 . S
C239 C241 1.327 . S
C239 C245 1.429 . S
C240 C232 1.574 . S
C240 H235 0.949 . S
C240 C246 1.368 . S
C241 C225 1.349 . S
C241 H233 0.950 . S
C241 C239 1.327 . S
C242 C230 1.349 . S
C242 H236 0.950 . S
C242 C243 1.327 . S
C243 H237 0.950 . S
C243 C242 1.327 . S
C243 C247 1.429 . S
C244 C227 1.574 . S
C244 H238 0.949 . S
C244 C248 1.368 . S
C245 C226 1.429 . S
C245 C239 1.429 . S
C245 C246 1.523 . S
C246 C227 1.368 . S
C246 C240 1.368 . S
C246 C245 1.523 . S
C247 C231 1.429 . S
C247 C243 1.429 . S
C247 C248 1.523 . S
C248 C232 1.368 . S
C248 C244 1.368 . S
C248 C247 1.523 . S
H249 C224 0.950 . S
H250 C226 0.950 . S
H251 C227 0.949 . S
H252 C229 0.950 . S
H253 C231 0.950 . S
C254 C255 1.349 . S
C254 C256 1.327 . S
C254 H279 0.950 . S
C255 C254 1.349 . S
C255 C271 1.349 . S
C256 C254 1.327 . S
C256 C275 1.429 . S
C256 H280 0.950 . S
C257 C274 1.574 . S
C257 C276 1.368 . S
C257 H281 0.949 . S
H258 C262 0.949 . S
C259 C260 1.349 . S
C259 C261 1.327 . S
C259 H282 0.950 . S
C260 C259 1.349 . S
C260 C272 1.349 . S
C261 C259 1.327 . S
C261 C277 1.429 . S
C261 H283 0.950 . S
C262 H258 0.949 . S
C262 C270 1.574 . S
C262 C278 1.368 . S
H263 C271 0.950 . S
H264 C269 0.950 . S
H265 C270 0.949 . S
H266 C272 0.950 . S
H267 C273 0.950 . S
H268 C274 0.949 . S
C269 H264 0.950 . S
C269 C271 1.327 . S
C269 C275 1.429 . S
C270 C262 1.574 . S
C270 H265 0.949 . S
C270 C276 1.368 . S
C271 C255 1.349 . S
C271 H263 0.950 . S
C271 C269 1.327 . S
C272 C260 1.349 . S
C272 H266 0.950 . S
C272 C273 1.327 . S
C273 H267 0.950 . S
C273 C272 1.327 . S
C273 C277 1.429 . S
C274 C257 1.574 . S
C274 H268 0.949 . S
C274 C278 1.368 . S
C275 C256 1.429 . S
C275 C269 1.429 . S
C275 C276 1.523 . S
C276 C257 1.368 . S
C276 C270 1.368 . S
C276 C275 1.523 . S
C277 C261 1.429 . S
C277 C273 1.429 . S
C277 C278 1.523 . S
C278 C262 1.368 . S
C278 C274 1.368 . S
C278 C277 1.523 . S
H279 C254 0.950 . S
H280 C256 0.950 . S
H281 C257 0.949 . S
H282 C259 0.950 . S
H283 C261 0.950 . S
C284 C285 1.349 . S
C284 C286 1.327 . S
C284 H309 0.950 . S
C285 C284 1.349 . S
C285 C301 1.349 . S
C286 C284 1.327 . S
C286 C305 1.429 . S
C286 H310 0.950 . S
C287 C304 1.574 . S
C287 C306 1.368 . S
C287 H311 0.949 . S
H288 C292 0.949 . S
C289 C290 1.349 . S
C289 C291 1.327 . S
C289 H312 0.950 . S
C290 C289 1.349 . S
C290 C302 1.349 . S
C291 C289 1.327 . S
C291 C307 1.429 . S
C291 H313 0.950 . S
C292 H288 0.949 . S
C292 C300 1.574 . S
C292 C308 1.368 . S
H293 C301 0.950 . S
H294 C299 0.950 . S
H295 C300 0.949 . S
H296 C302 0.950 . S
H297 C303 0.950 . S
H298 C304 0.949 . S
C299 H294 0.950 . S
C299 C301 1.327 . S
C299 C305 1.429 . S
C300 C292 1.574 . S
C300 H295 0.949 . S
C300 C306 1.368 . S
C301 C285 1.349 . S
C301 H293 0.950 . S
C301 C299 1.327 . S
C302 C290 1.349 . S
C302 H296 0.950 . S
C302 C303 1.327 . S
C303 H297 0.950 . S
C303 C302 1.327 . S
C303 C307 1.429 . S
C304 C287 1.574 . S
C304 H298 0.949 . S
C304 C308 1.368 . S
C305 C286 1.429 . S
C305 C299 1.429 . S
C305 C306 1.523 . S
C306 C287 1.368 . S
C306 C300 1.368 . S
C306 C305 1.523 . S
C307 C291 1.429 . S
C307 C303 1.429 . S
C307 C308 1.523 . S
C308 C292 1.368 . S
C308 C304 1.368 . S
C308 C307 1.523 . S
H309 C284 0.950 . S
H310 C286 0.950 . S
H311 C287 0.949 . S
H312 C289 0.950 . S
H313 C291 0.950 . S
C314 C315 1.349 . S
C314 C316 1.327 . S
C314 H339 0.950 . S
C315 C314 1.349 . S
C315 C331 1.349 . S
C316 C314 1.327 . S
C316 C335 1.429 . S
C316 H340 0.950 . S
C317 C334 1.574 . S
C317 C336 1.368 . S
C317 H341 0.949 . S
H318 C322 0.949 . S
C319 C320 1.349 . S
C319 C321 1.327 . S
C319 H342 0.950 . S
C320 C319 1.349 . S
C320 C332 1.349 . S
C321 C319 1.327 . S
C321 C337 1.429 . S
C321 H343 0.950 . S
C322 H318 0.949 . S
C322 C330 1.574 . S
C322 C338 1.368 . S
H323 C331 0.950 . S
H324 C329 0.950 . S
H325 C330 0.949 . S
H326 C332 0.950 . S
H327 C333 0.950 . S
H328 C334 0.949 . S
C329 H324 0.950 . S
C329 C331 1.327 . S
C329 C335 1.429 . S
C330 C322 1.574 . S
C330 H325 0.949 . S
C330 C336 1.368 . S
C331 C315 1.349 . S
C331 H323 0.950 . S
C331 C329 1.327 . S
C332 C320 1.349 . S
C332 H326 0.950 . S
C332 C333 1.327 . S
C333 H327 0.950 . S
C333 C332 1.327 . S
C333 C337 1.429 . S
C334 C317 1.574 . S
C334 H328 0.949 . S
C334 C338 1.368 . S
C335 C316 1.429 . S
C335 C329 1.429 . S
C335 C336 1.523 . S
C336 C317 1.368 . S
C336 C330 1.368 . S
C336 C335 1.523 . S
C337 C321 1.429 . S
C337 C333 1.429 . S
C337 C338 1.523 . S
C338 C322 1.368 . S
C338 C334 1.368 . S
C338 C337 1.523 . S
H339 C314 0.950 . S
H340 C316 0.950 . S
H341 C317 0.949 . S
H342 C319 0.950 . S
H343 C321 0.950 . S
C344 C345 1.349 1_655 S
C344 C346 1.327 . S
C344 H369 0.950 . S
C345 C344 1.349 1_455 S
C345 C361 1.349 1_545 S
C346 C344 1.327 . S
C346 C365 1.429 1_655 S
C346 H370 0.950 . S
C347 C364 1.574 . S
C347 C366 1.368 1_565 S
C347 H371 0.949 . S
H348 C352 0.949 . S
C349 C350 1.347 1_465 S
C349 C351 1.327 . S
C349 H372 0.950 . S
C350 C349 1.347 1_645 S
C350 C362 1.351 . S
C351 C349 1.327 . S
C351 C367 1.429 1_565 S
C351 H373 0.950 . S
C352 H348 0.949 . S
C352 C360 1.574 . S
C352 C368 1.368 1_655 S
H353 C361 0.950 . S
H354 C359 0.950 . S
H355 C360 0.949 . S
H356 C362 0.950 . S
H357 C363 0.950 . S
H358 C364 0.949 . S
C359 H354 0.950 . S
C359 C361 1.327 . S
C359 C365 1.429 1_565 S
C360 C352 1.574 . S
C360 H355 0.949 . S
C360 C366 1.368 1_655 S
C361 C345 1.349 1_565 S
C361 H353 0.950 . S
C361 C359 1.327 . S
C362 C350 1.351 . S
C362 H356 0.950 . S
C362 C363 1.327 . S
C363 H357 0.950 . S
C363 C362 1.327 . S
C363 C367 1.429 1_655 S
C364 C347 1.574 . S
C364 H358 0.949 . S
C364 C368 1.368 1_565 S
C365 C346 1.429 1_455 S
C365 C359 1.429 1_545 S
C365 C366 1.523 . S
C366 C347 1.368 1_545 S
C366 C360 1.368 1_455 S
C366 C365 1.523 . S
C367 C351 1.429 1_545 S
C367 C363 1.429 1_455 S
C367 C368 1.523 . S
C368 C352 1.368 1_455 S
C368 C364 1.368 1_545 S
C368 C367 1.523 . S
H369 C344 0.950 . S
H370 C346 0.950 . S
H371 C347 0.949 . S
H372 C349 0.950 . S
H373 C351 0.950 . S
C374 C375 1.349 . S
C374 C376 1.327 . S
C374 H399 0.950 . S
C375 C374 1.349 . S
C375 C391 1.349 1_445 S
C376 C374 1.327 . S
C376 C395 1.429 . S
C376 H400 0.950 . S
C377 C394 1.574 . S
C377 C396 1.368 1_665 S
C377 H401 0.949 . S
H378 C382 0.949 . S
C379 C380 1.349 1_665 S
C379 C381 1.327 . S
C379 H402 0.950 . S
C380 C379 1.349 1_445 S
C380 C392 1.349 . S
C381 C379 1.327 . S
C381 C397 1.429 1_665 S
C381 H403 0.950 . S
C382 H378 0.949 . S
C382 C390 1.574 . S
C382 C398 1.368 . S
H383 C391 0.950 . S
H384 C389 0.950 . S
H385 C390 0.949 . S
H386 C392 0.950 . S
H387 C393 0.950 . S
H388 C394 0.949 . S
C389 H384 0.950 . S
C389 C391 1.327 . S
C389 C395 1.429 1_665 S
C390 C382 1.574 . S
C390 H385 0.949 . S
C390 C396 1.368 . S
C391 C375 1.349 1_665 S
C391 H383 0.950 . S
C391 C389 1.327 . S
C392 C380 1.349 . S
C392 H386 0.950 . S
C392 C393 1.327 . S
C393 H387 0.950 . S
C393 C392 1.327 . S
C393 C397 1.429 . S
C394 C377 1.574 . S
C394 H388 0.949 . S
C394 C398 1.368 1_665 S
C395 C376 1.429 . S
C395 C389 1.429 1_445 S
C395 C396 1.523 . S
C396 C377 1.368 1_445 S
C396 C390 1.368 . S
C396 C395 1.523 . S
C397 C381 1.429 1_445 S
C397 C393 1.429 . S
C397 C398 1.523 . S
C398 C382 1.368 . S
C398 C394 1.368 1_445 S
C398 C397 1.523 . S
H399 C374 0.950 . S
H400 C376 0.950 . S
H401 C377 0.949 . S
H402 C379 0.950 . S
H403 C381 0.950 . S
C404 C405 1.349 . S
C404 C406 1.327 . S
C404 H429 0.950 . S
C405 C404 1.349 . S
C405 C421 1.349 . S
C406 C404 1.327 . S
C406 C425 1.429 . S
C406 H430 0.950 . S
C407 C424 1.574 . S
C407 C426 1.368 . S
C407 H431 0.949 . S
H408 C412 0.949 . S
C409 C410 1.349 . S
C409 C411 1.327 . S
C409 H432 0.950 . S
C410 C409 1.349 . S
C410 C422 1.349 . S
C411 C409 1.327 . S
C411 C427 1.429 . S
C411 H433 0.950 . S
C412 H408 0.949 . S
C412 C420 1.574 . S
C412 C428 1.368 . S
H413 C421 0.950 . S
H414 C419 0.950 . S
H415 C420 0.949 . S
H416 C422 0.950 . S
H417 C423 0.950 . S
H418 C424 0.949 . S
C419 H414 0.950 . S
C419 C421 1.327 . S
C419 C425 1.429 . S
C420 C412 1.574 . S
C420 H415 0.949 . S
C420 C426 1.368 . S
C421 C405 1.349 . S
C421 H413 0.950 . S
C421 C419 1.327 . S
C422 C410 1.349 . S
C422 H416 0.950 . S
C422 C423 1.327 . S
C423 H417 0.950 . S
C423 C422 1.327 . S
C423 C427 1.429 . S
C424 C407 1.574 . S
C424 H418 0.949 . S
C424 C428 1.368 . S
C425 C406 1.429 . S
C425 C419 1.429 . S
C425 C426 1.523 . S
C426 C407 1.368 . S
C426 C420 1.368 . S
C426 C425 1.523 . S
C427 C411 1.429 . S
C427 C423 1.429 . S
C427 C428 1.523 . S
C428 C412 1.368 . S
C428 C424 1.368 . S
C428 C427 1.523 . S
H429 C404 0.950 . S
H430 C406 0.950 . S
H431 C407 0.949 . S
H432 C409 0.950 . S
H433 C411 0.950 . S
C434 C435 1.349 . S
C434 C436 1.327 . S
C434 H459 0.950 . S
C435 C434 1.349 . S
C435 C451 1.349 . S
C436 C434 1.327 . S
C436 C455 1.429 . S
C436 H460 0.950 . S
C437 C454 1.574 . S
C437 C456 1.368 . S
C437 H461 0.949 . S
H438 C442 0.949 . S
C439 C440 1.349 . S
C439 C441 1.327 . S
C439 H462 0.950 . S
C440 C439 1.349 . S
C440 C452 1.349 . S
C441 C439 1.327 . S
C441 C457 1.429 . S
C441 H463 0.950 . S
C442 H438 0.949 . S
C442 C450 1.574 . S
C442 C458 1.368 . S
H443 C451 0.950 . S
H444 C449 0.950 . S
H445 C450 0.949 . S
H446 C452 0.950 . S
H447 C453 0.950 . S
H448 C454 0.949 . S
C449 H444 0.950 . S
C449 C451 1.327 . S
C449 C455 1.429 . S
C450 C442 1.574 . S
C450 H445 0.949 . S
C450 C456 1.368 . S
C451 C435 1.349 . S
C451 H443 0.950 . S
C451 C449 1.327 . S
C452 C440 1.349 . S
C452 H446 0.950 . S
C452 C453 1.327 . S
C453 H447 0.950 . S
C453 C452 1.327 . S
C453 C457 1.429 . S
C454 C437 1.574 . S
C454 H448 0.949 . S
C454 C458 1.368 . S
C455 C436 1.429 . S
C455 C449 1.429 . S
C455 C456 1.523 . S
C456 C437 1.368 . S
C456 C450 1.368 . S
C456 C455 1.523 . S
C457 C441 1.429 . S
C457 C453 1.429 . S
C457 C458 1.523 . S
C458 C442 1.368 . S
C458 C454 1.368 . S
C458 C457 1.523 . S
H459 C434 0.950 . S
H460 C436 0.950 . S
H461 C437 0.949 . S
H462 C439 0.950 . S
H463 C441 0.950 . S
C110 C99 1.293 . S
C105 C29 1.304 . S
C135 C8 1.313 1_556 S
C140 C90 1.300 . S
C165 C0 1.310 . S
C170 C102 1.296 . S
C195 C17 1.303 . S
C200 C93 1.292 . S
C225 C63 1.304 . S
C230 C81 1.293 . S
C255 C42 1.312 . S
C260 C72 1.300 . S
C290 C84 1.296 . S
C285 C34 1.310 . S
C320 C75 1.292 . S
C315 C51 1.302 . S
C345 C4 1.485 . S
C350 C73 1.486 1_545 S
C375 C13 1.483 . S
C380 C82 1.485 . S
C410 C91 1.486 . S
C405 C38 1.485 . S
C435 C47 1.483 . S
C440 C100 1.485 . S
