# Generated by pormake.
# Topology pyr, (3,6)-cn, num edge types: 1
# Building blocks:
#     Node 0, Type 0, BuildingBlock: PAMTOO_clean_linker_0, # of connection points: 3
#     Node 1, Type 0, BuildingBlock: PAMTOO_clean_linker_0, # of connection points: 3
#     Node 2, Type 0, BuildingBlock: PAMTOO_clean_linker_0, # of connection points: 3
#     Node 3, Type 0, BuildingBlock: PAMTOO_clean_linker_0, # of connection points: 3
#     Node 4, Type 0, BuildingBlock: PAMTOO_clean_linker_0, # of connection points: 3
#     Node 5, Type 0, BuildingBlock: PAMTOO_clean_linker_0, # of connection points: 3
#     Node 6, Type 0, BuildingBlock: PAMTOO_clean_linker_0, # of connection points: 3
#     Node 7, Type 0, BuildingBlock: PAMTOO_clean_linker_0, # of connection points: 3
#     Node 8, Type 1, BuildingBlock: BETDIP_clean_sbu_0, # of connection points: 6
#     Node 9, Type 1, BuildingBlock: BETDIP_clean_sbu_0, # of connection points: 6
#     Node 10, Type 1, BuildingBlock: BETDIP_clean_sbu_0, # of connection points: 6
#     Node 11, Type 1, BuildingBlock: BETDIP_clean_sbu_0, # of connection points: 6
#     Edge 12, Type (0, 1), BuildingBlock: KIFKEQ_clean_linker_1, # of connection points: 2
#     Edge 13, Type (0, 1), BuildingBlock: KIFKEQ_clean_linker_1, # of connection points: 2
#     Edge 14, Type (0, 1), BuildingBlock: KIFKEQ_clean_linker_1, # of connection points: 2
#     Edge 15, Type (0, 1), BuildingBlock: KIFKEQ_clean_linker_1, # of connection points: 2
#     Edge 16, Type (0, 1), BuildingBlock: KIFKEQ_clean_linker_1, # of connection points: 2
#     Edge 17, Type (0, 1), BuildingBlock: KIFKEQ_clean_linker_1, # of connection points: 2
#     Edge 18, Type (0, 1), BuildingBlock: KIFKEQ_clean_linker_1, # of connection points: 2
#     Edge 19, Type (0, 1), BuildingBlock: KIFKEQ_clean_linker_1, # of connection points: 2
#     Edge 20, Type (0, 1), BuildingBlock: KIFKEQ_clean_linker_1, # of connection points: 2
#     Edge 21, Type (0, 1), BuildingBlock: KIFKEQ_clean_linker_1, # of connection points: 2
#     Edge 22, Type (0, 1), BuildingBlock: KIFKEQ_clean_linker_1, # of connection points: 2
#     Edge 23, Type (0, 1), BuildingBlock: KIFKEQ_clean_linker_1, # of connection points: 2
#     Edge 24, Type (0, 1), BuildingBlock: KIFKEQ_clean_linker_1, # of connection points: 2
#     Edge 25, Type (0, 1), BuildingBlock: KIFKEQ_clean_linker_1, # of connection points: 2
#     Edge 26, Type (0, 1), BuildingBlock: KIFKEQ_clean_linker_1, # of connection points: 2
#     Edge 27, Type (0, 1), BuildingBlock: KIFKEQ_clean_linker_1, # of connection points: 2
#     Edge 28, Type (0, 1), BuildingBlock: KIFKEQ_clean_linker_1, # of connection points: 2
#     Edge 29, Type (0, 1), BuildingBlock: KIFKEQ_clean_linker_1, # of connection points: 2
#     Edge 30, Type (0, 1), BuildingBlock: KIFKEQ_clean_linker_1, # of connection points: 2
#     Edge 31, Type (0, 1), BuildingBlock: KIFKEQ_clean_linker_1, # of connection points: 2
#     Edge 32, Type (0, 1), BuildingBlock: KIFKEQ_clean_linker_1, # of connection points: 2
#     Edge 33, Type (0, 1), BuildingBlock: KIFKEQ_clean_linker_1, # of connection points: 2
#     Edge 34, Type (0, 1), BuildingBlock: KIFKEQ_clean_linker_1, # of connection points: 2
#     Edge 35, Type (0, 1), BuildingBlock: KIFKEQ_clean_linker_1, # of connection points: 2
# Relax obj value: 0.178
# Max RMSD: 0.283
# Mean RMSD: 0.150
data_MOF--net-pyr--node1-BETDIP_clean_sbu_0--node2-PAMTOO_clean_linker_0--edge1-KIFKEQ_clean_linker_1
_symmetry_space_group_name_H-M    P1
_symmetry_Int_Tables_number       1
_symmetry_cell_setting            triclinic
loop_
_symmetry_equiv_pos_as_xyz
'x, y, z'
_cell_length_a     36.065484
_cell_length_b     40.201806
_cell_length_c     38.48247
_cell_angle_alpha  89.4493
_cell_angle_beta   93.381521
_cell_angle_gamma 109.65078
loop_
_atom_site_label
_atom_site_type_symbol
_atom_site_fract_x
_atom_site_fract_y
_atom_site_fract_z
_atom_type_partial_charge
H0 H 0.32794 0.3468 0.29724 0.0
H1 H 0.38623 0.2697 0.31084 0.0
H2 H 0.3717 0.30939 0.20921 0.0
H3 H 0.34957 0.23379 0.21455 0.0
C4 C 0.37184 0.23159 0.2349 0.0
O5 O 0.39666 0.26483 0.24509 0.0
H6 H 0.35595 0.21777 0.25767 0.0
C7 C 0.34416 0.33129 0.28665 0.0
C8 C 0.34898 0.3316 0.25064 0.0
C9 C 0.35734 0.30904 0.30877 0.0
C10 C 0.37716 0.28813 0.29464 0.0
C11 C 0.38216 0.28832 0.25887 0.0
C12 C 0.36853 0.31025 0.23698 0.0
H13 H 0.16959 0.82845 0.74918 0.0
H14 H 0.14559 0.7829 0.64618 0.0
H15 H 0.2235 0.7533 0.71897 0.0
H16 H 0.2301 0.78758 0.63172 0.0
C17 C 0.21825 0.75813 0.63067 0.0
O18 O 0.19111 0.74453 0.65548 0.0
H19 H 0.20307 0.75092 0.60446 0.0
C20 C 0.17245 0.80964 0.7304 0.0
C21 C 0.19766 0.79025 0.73868 0.0
C22 C 0.1539 0.80759 0.69707 0.0
C23 C 0.15937 0.7846 0.67221 0.0
C24 C 0.18431 0.76501 0.68023 0.0
C25 C 0.20359 0.76796 0.71331 0.0
H26 H 0.70024 0.33438 0.93805 0.0
H27 H 0.61552 0.32406 0.85203 0.0
H28 H 0.71861 0.41714 0.86186 0.0
H29 H 0.6389 0.42573 0.84456 0.0
C30 C 0.62982 0.40624 0.82264 0.0
O31 O 0.654 0.38565 0.82371 0.0
H32 H 0.59901 0.38901 0.82646 0.0
C33 C 0.69123 0.34503 0.91433 0.0
C34 C 0.71451 0.3785 0.90258 0.0
C35 C 0.65575 0.32502 0.8964 0.0
C36 C 0.64269 0.33921 0.86627 0.0
C37 C 0.66533 0.37267 0.85392 0.0
C38 C 0.70107 0.39196 0.87211 0.0
H39 H 0.87914 0.75734 0.43503 0.0
H40 H 0.87463 0.67297 0.36538 0.0
H41 H 0.96959 0.77258 0.36202 0.0
H42 H 0.93623 0.7341 0.29018 0.0
C43 C 0.9284 0.70643 0.29944 0.0
O44 O 0.93998 0.70719 0.3348 0.0
H45 H 0.89575 0.69444 0.29607 0.0
C46 C 0.89126 0.74785 0.41366 0.0
C47 C 0.92636 0.77012 0.39999 0.0
C48 C 0.87201 0.71306 0.40142 0.0
C49 C 0.8889 0.69977 0.37495 0.0
C50 C 0.92386 0.7211 0.36015 0.0
C51 C 0.9426 0.75624 0.37304 0.0
H52 H 0.68572 0.86876 0.87201 0.0
H53 H 0.67527 0.81213 0.96841 0.0
H54 H 0.74301 0.7912 0.8889 0.0
H55 H 0.68423 0.73137 0.92553 0.0
C56 C 0.70143 0.74012 0.9508 0.0
O57 O 0.72006 0.77621 0.95197 0.0
H58 H 0.6804 0.73234 0.97183 0.0
C59 C 0.69128 0.84828 0.88781 0.0
C60 C 0.71517 0.83007 0.8757 0.0
C61 C 0.67691 0.84221 0.92122 0.0
C62 C 0.68581 0.81698 0.94241 0.0
C63 C 0.70947 0.79866 0.93059 0.0
C64 C 0.72429 0.8053 0.89747 0.0
H65 H 0.90548 0.24831 0.38618 0.0
H66 H 0.86444 0.33679 0.39389 0.0
H67 H 0.95672 0.32813 0.46526 0.0
H68 H 0.91682 0.37865 0.49944 0.0
C69 C 0.89402 0.36317 0.47964 0.0
O70 O 0.91137 0.36525 0.44824 0.0
H71 H 0.88334 0.33554 0.48939 0.0
C72 C 0.90774 0.27327 0.3982 0.0
C73 C 0.93454 0.28617 0.42683 0.0
C74 C 0.88239 0.29131 0.38603 0.0
C75 C 0.88444 0.32298 0.40242 0.0
C76 C 0.91131 0.33617 0.43089 0.0
C77 C 0.93667 0.31808 0.44272 0.0
H78 H 0.36295 0.75181 0.17714 0.0
H79 H 0.36203 0.66916 0.24928 0.0
H80 H 0.4547 0.76936 0.25897 0.0
H81 H 0.47831 0.70682 0.27895 0.0
C82 C 0.45007 0.68915 0.28874 0.0
O83 O 0.42339 0.7073 0.28803 0.0
H84 H 0.43869 0.66582 0.27094 0.0
C85 C 0.37701 0.74214 0.19861 0.0
C86 C 0.41217 0.7651 0.21524 0.0
C87 C 0.35889 0.70713 0.20971 0.0
C88 C 0.3753 0.69573 0.23981 0.0
C89 C 0.40938 0.71831 0.25789 0.0
C90 C 0.42794 0.75267 0.24527 0.0
H91 H 0.09798 0.32096 0.80281 0.0
H92 H 0.18764 0.42356 0.79186 0.0
H93 H 0.18215 0.33941 0.72309 0.0
H94 H 0.26084 0.38545 0.75682 0.0
C95 C 0.25754 0.41076 0.74773 0.0
O96 O 0.21827 0.40547 0.73826 0.0
H97 H 0.26717 0.42981 0.76992 0.0
C98 C 0.12309 0.33839 0.79001 0.0
C99 C 0.13829 0.32499 0.76178 0.0
C100 C 0.14039 0.37444 0.80145 0.0
C101 C 0.17312 0.3963 0.78383 0.0
C102 C 0.18797 0.38356 0.75587 0.0
C103 C 0.17057 0.34836 0.74516 0.0
Tb104 Tb 0.99738 1.03293 0.58416 0.0
Tb105 Tb 0.08528 0.06479 0.57129 0.0
C106 C 0.92766 0.99136 0.58258 0.0
C107 C 0.9005 0.973 0.6091 0.0
C108 C 0.88094 0.93647 0.60578 0.0
C109 C 0.85737 0.91797 0.63194 0.0
C110 C 0.85273 0.93581 0.6617 0.0
C111 C 0.87171 0.97253 0.66464 0.0
C112 C 0.89559 0.99096 0.63867 0.0
C113 C 0.03172 0.0875 0.6288 0.0
C114 C 0.06009 1.00693 0.62744 0.0
C115 C 0.15603 0.10077 0.56306 0.0
C116 C 0.18058 0.13566 0.55147 0.0
C117 C 0.22118 0.14721 0.56025 0.0
C118 C 0.24639 0.17696 0.54438 0.0
C119 C 0.23131 0.1955 0.51933 0.0
C120 C 0.1902 0.18525 0.51252 0.0
C121 C 0.16503 0.15552 0.52847 0.0
C122 C 0.04634 1.00293 0.53949 0.0
C123 C 0.02419 0.09608 0.53316 0.0
O124 O 0.95814 0.98097 0.57984 0.0
O125 O 0.93703 1.02582 0.58123 0.0
O126 O 0.04691 0.07476 0.60589 0.0
O127 O 0.99503 0.06743 0.62816 0.0
O128 O 0.02306 0.99963 0.61541 0.0
O129 O 0.08865 1.03535 0.61796 0.0
O130 O 0.13942 0.09927 0.59269 0.0
O131 O 0.13239 0.0802 0.53897 0.0
O132 O 0.03376 1.0285 0.54339 0.0
O133 O 0.08226 1.01246 0.55259 0.0
O134 O 0.06123 0.10186 0.54444 0.0
O135 O 0.99515 0.0673 0.54108 0.0
H136 H 0.8845 0.92215 0.58322 0.0
H137 H 0.84283 0.88971 0.62896 0.0
H138 H 0.869 0.98684 0.68752 0.0
H139 H 0.91073 1.01909 0.64208 0.0
H140 H 0.23363 0.13219 0.57807 0.0
H141 H 0.27784 0.1845 0.55054 0.0
H142 H 0.17762 0.19872 0.49313 0.0
H143 H 0.13376 0.14689 0.52139 0.0
Tb144 Tb 0.56979 0.06804 0.07513 0.0
Tb145 Tb 0.48786 1.03013 0.04849 0.0
C146 C 0.63479 0.11451 0.0925 0.0
C147 C 0.65473 0.13419 0.12413 0.0
C148 C 0.6787 0.1696 0.12146 0.0
C149 C 0.70004 0.18817 0.15081 0.0
C150 C 0.69793 0.17143 0.18321 0.0
C151 C 0.67298 0.13622 0.18599 0.0
C152 C 0.65138 0.11779 0.15672 0.0
C153 C 0.53596 1.00727 0.10706 0.0
C154 C 0.49866 0.08469 0.10753 0.0
C155 C 0.42292 0.98399 1.03006 0.0
C156 C 0.40419 0.96102 0.99971 0.0
C157 C 0.39774 0.92458 1.00146 0.0
C158 C 0.37716 0.90199 0.97415 0.0
C159 C 0.36224 0.91541 0.94476 0.0
C160 C 0.36947 0.95196 0.94267 0.0
C161 C 0.3902 0.97455 0.96985 0.0
C162 C 0.52264 0.0911 1.01696 0.0
C163 C 0.55857 1.01224 1.01735 0.0
O164 O 0.60416 0.12181 0.07944 0.0
O165 O 0.62903 0.08061 0.09226 0.0
O166 O 0.51956 1.02913 0.09681 0.0
O167 O 0.57334 1.02125 0.10309 0.0
O168 O 0.53657 0.09619 0.10144 0.0
O169 O 0.47453 0.05476 0.09371 0.0
O170 O 0.45166 0.97696 0.04734 0.0
O171 O 0.4302 1.01797 1.02663 0.0
O172 O 0.53831 0.06864 1.02677 0.0
O173 O 0.48534 0.07801 1.02175 0.0
O174 O 0.52068 1.00113 1.02327 0.0
O175 O 0.58267 0.04264 1.0302 0.0
H176 H 0.68153 0.18267 0.09651 0.0
H177 H 0.71922 0.21521 0.14792 0.0
H178 H 0.67044 0.12287 0.21077 0.0
H179 H 0.63267 0.09056 0.15945 0.0
H180 H 0.40783 0.91339 1.02433 0.0
H181 H 0.37171 0.8739 0.97657 0.0
H182 H 0.3587 0.96306 0.9201 0.0
H183 H 0.39455 1.00247 0.96768 0.0
Tb184 Tb 0.55614 0.58733 0.57517 0.0
Tb185 Tb 0.54391 0.52066 0.53786 0.0
C186 C 0.54772 0.64252 0.59846 0.0
C187 C 0.51385 0.65186 0.6089 0.0
C188 C 0.47557 0.6333 0.59521 0.0
C189 C 0.44377 0.64319 0.60415 0.0
C190 C 0.44961 0.67193 0.6269 0.0
C191 C 0.48796 0.69008 0.64104 0.0
C192 C 0.5198 0.68005 0.63213 0.0
C193 C 0.58826 0.54452 0.6086 0.0
C194 C 0.47576 0.52193 0.58313 0.0
C195 C 0.55338 0.46554 0.51558 0.0
C196 C 0.58851 0.45692 0.50759 0.0
C197 C 0.62584 0.47728 0.52195 0.0
C198 C 0.65908 0.46863 0.51521 0.0
C199 C 0.65569 0.43904 0.49443 0.0
C200 C 0.61823 0.41893 0.47967 0.0
C201 C 0.58493 0.42788 0.48616 0.0
C202 C 0.51077 0.56269 0.50459 0.0
C203 C 0.62435 0.58651 0.53012 0.0
O204 O 0.54782 0.63569 0.56531 0.0
O205 O 0.55755 0.61978 0.61813 0.0
O206 O 0.55548 0.53598 0.59139 0.0
O207 O 0.60384 0.57872 0.60824 0.0
O208 O 0.49435 0.55653 0.58533 0.0
O209 O 0.49112 0.50117 0.56709 0.0
O210 O 0.55071 0.47183 0.54845 0.0
O211 O 0.54488 0.48857 0.49529 0.0
O212 O 0.54387 0.57182 0.5215 0.0
O213 O 0.49585 0.52843 0.50495 0.0
O214 O 0.60583 0.5519 0.52781 0.0
O215 O 0.60872 0.60712 0.546 0.0
H216 H 0.47031 0.61159 0.57702 0.0
H217 H 0.41477 0.62899 0.59236 0.0
H218 H 0.49338 0.71209 0.65889 0.0
H219 H 0.54914 0.6946 0.64303 0.0
H220 H 0.62933 0.4996 0.53885 0.0
H221 H 0.68746 0.48513 0.5265 0.0
H222 H 0.61446 0.39577 0.46384 0.0
H223 H 0.55631 0.41181 0.47493 0.0
Tb224 Tb 0.03982 0.56326 1.03441 0.0
Tb225 Tb 0.03492 0.50482 0.08216 0.0
C226 C 0.02549 0.609 0.99574 0.0
C227 C 0.99539 0.62616 0.99356 0.0
C228 C 0.97007 0.62304 1.02059 0.0
C229 C 0.9391 0.63648 1.01687 0.0
C230 C 0.93253 0.6529 0.98581 0.0
C231 C 0.95853 0.65658 0.959 0.0
C232 C 0.98971 0.64331 0.9629 0.0
C233 C 0.10819 0.56788 0.06759 0.0
C234 C 0.00974 0.5659 0.11164 0.0
C235 C 0.04908 0.45948 0.12124 0.0
C236 C 0.07942 0.44282 0.12526 0.0
C237 C 0.11318 0.45427 0.10593 0.0
C238 C 0.14461 0.44197 0.1139 0.0
C239 C 0.14269 0.41839 0.14148 0.0
C240 C 0.10795 0.40572 0.15952 0.0
C241 C 0.07657 0.41788 0.15145 0.0
C242 C 0.96621 0.50032 0.04973 0.0
C243 C 0.06396 0.50143 1.00493 0.0
O244 O 0.01216 0.57516 0.989 0.0
O245 O 0.05049 0.6168 1.02292 0.0
O246 O 0.07458 0.55764 0.07971 0.0
O247 O 0.1043 0.57745 1.0357 0.0
O248 O 0.00986 0.57646 0.07875 0.0
O249 O 0.02142 0.53885 0.12 0.0
O250 O 0.06153 0.49333 0.12819 0.0
O251 O 0.02546 0.45135 0.09319 0.0
O252 O 0.99965 0.51068 1.03723 0.0
O253 O 0.97053 0.48981 0.08117 0.0
O254 O 0.06519 0.49147 1.03796 0.0
O255 O 0.05173 0.52822 0.99674 0.0
H256 H 0.9736 0.60959 1.04429 0.0
H257 H 0.92008 0.63369 1.03825 0.0
H258 H 0.95405 0.66865 0.93456 0.0
H259 H 0.00872 0.64556 0.94159 0.0
H260 H 0.11591 0.4738 0.08577 0.0
H261 H 0.17111 0.45227 0.09973 0.0
H262 H 0.10553 0.38716 0.18058 0.0
H263 H 0.05071 0.40887 0.16661 0.0
H264 H 0.28548 0.30254 0.33229 0.0
H265 H 0.4013 0.30197 0.36732 0.0
H266 H 0.26187 0.28429 0.38938 0.0
H267 H 0.37752 0.28366 0.42505 0.0
H268 H 0.29692 0.19148 0.49067 0.0
H269 H 0.33351 0.22816 0.44536 0.0
H270 H 0.26297 0.29591 0.45093 0.0
H271 H 0.22588 0.25874 0.49646 0.0
C272 C 0.30631 0.29965 0.35253 0.0
C273 C 0.34528 0.3036 0.3452 0.0
C274 C 0.29273 0.28919 0.38542 0.0
C275 C 0.31773 0.28234 0.41181 0.0
C276 C 0.35737 0.28826 0.40511 0.0
C277 C 0.37099 0.29872 0.3721 0.0
C278 C 0.28998 0.21483 0.48312 0.0
C279 C 0.25821 0.222 0.49696 0.0
C280 C 0.31107 0.23596 0.45706 0.0
C281 C 0.30093 0.26479 0.44423 0.0
C282 C 0.27103 0.27349 0.45984 0.0
C283 C 0.24981 0.25225 0.4859 0.0
H284 H 0.17067 0.79227 0.80297 0.0
H285 H 0.2769 0.80438 0.75042 0.0
H286 H 0.2102 0.81651 0.85631 0.0
H287 H 0.31653 0.82883 0.80375 0.0
H288 H 0.37568 0.86001 0.91314 0.0
H289 H 0.33468 0.82123 0.86659 0.0
H290 H 0.25244 0.87833 0.86775 0.0
H291 H 0.29272 0.91632 0.91434 0.0
C292 C 0.20246 0.79946 0.80309 0.0
C293 C 0.22079 0.79693 0.77251 0.0
C294 C 0.22506 0.81342 0.83353 0.0
C295 C 0.26644 0.82518 0.83396 0.0
C296 C 0.28468 0.81989 0.80421 0.0
C297 C 0.26201 0.80585 0.7737 0.0
C298 C 0.3486 0.86392 0.9036 0.0
C299 C 0.3375 0.89132 0.91711 0.0
C300 C 0.32529 0.84187 0.87693 0.0
C301 C 0.29026 0.84661 0.86372 0.0
C302 C 0.27893 0.87363 0.87775 0.0
C303 C 0.30229 0.89573 0.9041 0.0
H304 H 0.65814 0.47782 0.81048 0.0
H305 H 0.60148 0.37839 0.75706 0.0
H306 H 0.65053 0.50937 0.75768 0.0
H307 H 0.5948 0.40983 0.7034 0.0
H308 H 0.54504 0.47717 0.62767 0.0
H309 H 0.55849 0.44327 0.67689 0.0
H310 H 0.66878 0.52709 0.7014 0.0
H311 H 0.65442 0.56128 0.65287 0.0
C312 C 0.6448 0.46265 0.78713 0.0
C313 C 0.63051 0.4255 0.78809 0.0
C314 C 0.64048 0.4808 0.75659 0.0
C315 C 0.62181 0.46246 0.72577 0.0
C316 C 0.60872 0.42515 0.7265 0.0
C317 C 0.61297 0.40699 0.75719 0.0
C318 C 0.57234 0.48821 0.6434 0.0
C319 C 0.59851 0.52212 0.63633 0.0
C320 C 0.58024 0.46863 0.67169 0.0
C321 C 0.61472 0.48224 0.69378 0.0
C322 C 0.6415 0.51574 0.68577 0.0
C323 C 0.63345 0.53537 0.65762 0.0
H324 H 0.91582 0.63414 0.29739 0.0
H325 H 0.97965 0.73069 0.24681 0.0
H326 H 0.9349 0.60011 0.25334 0.0
H327 H 0.99912 0.69713 0.20312 0.0
H328 H 0.99144 0.62759 0.10711 0.0
H329 H 0.97446 0.66023 0.15324 0.0
H330 H 0.98464 0.58247 0.22778 0.0
H331 H 1.00108 0.54958 0.18145 0.0
C332 C 0.93477 0.64821 0.2774 0.0
C333 C 0.94645 0.68537 0.27621 0.0
C334 C 0.94568 0.62863 0.25183 0.0
C335 C 0.9684 0.64545 0.22384 0.0
C336 C 0.98103 0.68274 0.22348 0.0
C337 C 0.9703 0.70222 0.24905 0.0
C338 C 0.98985 0.61718 0.13323 0.0
C339 C 0.99765 0.58554 0.14002 0.0
C340 C 0.98041 0.63626 0.16006 0.0
C341 C 0.9782 0.62452 0.19491 0.0
C342 C 0.98554 0.5926 0.20157 0.0
C343 C 0.99521 0.57363 0.17476 0.0
H344 H 0.42281 0.25076 0.18274 0.0
H345 H 0.37132 0.16525 0.25265 0.0
H346 H 0.45635 0.21517 0.15501 0.0
H347 H 0.40487 0.12966 0.22513 0.0
H348 H 0.42549 0.06516 0.13316 0.0
H349 H 0.39791 0.1012 0.16688 0.0
H350 H 0.50854 0.18756 0.16699 0.0
H351 H 0.53625 0.1516 0.13299 0.0
C352 C 0.41927 0.22455 0.19246 0.0
C353 C 0.39492 0.21081 0.21997 0.0
C354 C 0.43847 0.20425 0.17673 0.0
C355 C 0.43323 0.16968 0.18798 0.0
C356 C 0.40922 0.15614 0.2158 0.0
C357 C 0.39022 0.17652 0.23165 0.0
C358 C 0.44409 0.09173 0.14059 0.0
C359 C 0.48301 0.10557 0.13028 0.0
C360 C 0.42833 0.11229 0.16009 0.0
C361 C 0.45107 0.1472 0.16948 0.0
C362 C 0.49025 0.16083 0.15981 0.0
C363 C 0.50615 0.14016 0.14052 0.0
H364 H 0.09785 0.82353 0.73197 0.0
H365 H 0.16597 0.85036 0.64088 0.0
H366 H 0.07261 0.87241 0.71998 0.0
H367 H 0.14106 0.89901 0.62915 0.0
H368 H 0.13424 1.00748 0.64723 0.0
H369 H 0.15322 0.95715 0.66569 0.0
H370 H 0.03071 0.89276 0.66903 0.0
H371 H 0.01123 0.94311 0.65008 0.0
C372 C 0.1069 0.83955 0.70916 0.0
C373 C 0.13374 0.83317 0.68727 0.0
C374 C 0.09253 0.8674 0.70236 0.0
C375 C 0.10542 0.88964 0.67399 0.0
C376 C 0.13112 0.88246 0.65147 0.0
C377 C 0.14497 0.85439 0.65793 0.0
C378 C 0.1112 0.98291 0.65258 0.0
C379 C 0.07116 0.97927 0.64669 0.0
C380 C 0.12215 0.95403 0.6629 0.0
C381 C 0.09338 0.92104 0.66804 0.0
C382 C 0.0534 0.91795 0.66502 0.0
C383 C 0.04234 0.94682 0.65425 0.0
H384 H 0.74987 0.45105 0.91122 0.0
H385 H 0.76703 0.3524 0.93865 0.0
H386 H 0.81064 0.48312 0.94555 0.0
H387 H 0.82583 0.38449 0.97441 0.0
H388 H 0.89642 0.45314 0.06866 0.0
H389 H 0.83633 0.42568 1.03189 0.0
H390 H 0.88965 0.48927 0.94542 0.0
H391 H 0.95058 0.51604 0.98196 0.0
C392 C 0.76643 0.43607 0.92425 0.0
C393 C 0.7527 0.39881 0.92227 0.0
C394 C 0.80118 0.45456 0.94413 0.0
C395 C 0.82265 0.43627 0.96302 0.0
C396 C 0.8095 0.39927 0.96062 0.0
C397 C 0.77542 0.38086 0.94024 0.0
C398 C 0.89533 0.46156 1.04191 0.0
C399 C 0.92841 0.48676 1.02823 0.0
C400 C 0.86092 0.44571 1.02083 0.0
C401 C 0.85835 0.45523 0.98576 0.0
C402 C 0.89076 0.48153 0.9724 0.0
C403 C 0.92561 0.49685 0.99332 0.0
H404 H 0.84948 0.64404 0.42456 0.0
H405 H 0.80878 0.73314 0.41392 0.0
H406 H 0.7909 0.61212 0.45601 0.0
H407 H 0.75032 0.70142 0.44442 0.0
H408 H 0.67262 0.65576 0.53245 0.0
H409 H 0.73138 0.68376 0.50094 0.0
H410 H 0.72056 0.58314 0.45486 0.0
H411 H 0.66201 0.55482 0.48738 0.0
C412 C 0.82776 0.65661 0.42842 0.0
C413 C 0.83423 0.69139 0.41699 0.0
C414 C 0.79408 0.63831 0.44653 0.0
C415 C 0.76583 0.65425 0.45356 0.0
C416 C 0.7717 0.68846 0.44068 0.0
C417 C 0.80527 0.70668 0.42286 0.0
C418 C 0.68278 0.63943 0.51581 0.0
C419 C 0.66217 0.60293 0.51252 0.0
C420 C 0.7165 0.65563 0.49734 0.0
C421 C 0.7308 0.63602 0.47465 0.0
C422 C 0.71081 0.59927 0.47207 0.0
C423 C 0.67702 0.58297 0.49073 0.0
H424 H 0.30384 0.30654 0.19088 0.0
H425 H 0.34688 0.39843 0.25841 0.0
H426 H 0.25903 0.33201 0.15991 0.0
H427 H 0.30194 0.42389 0.22742 0.0
H428 H 0.1727 0.41979 0.20788 0.0
H429 H 0.22916 0.40369 0.22896 0.0
H430 H 0.24944 0.38128 0.12355 0.0
H431 H 0.19204 0.39708 0.10233 0.0
C432 C 0.30467 0.3327 0.19837 0.0
C433 C 0.32852 0.35034 0.22735 0.0
C434 C 0.27894 0.34725 0.18064 0.0
C435 C 0.27657 0.37965 0.19163 0.0
C436 C 0.30265 0.39853 0.21883 0.0
C437 C 0.32837 0.38402 0.23652 0.0
C438 C 0.18912 0.41133 0.18918 0.0
C439 C 0.17776 0.40926 0.15353 0.0
C440 C 0.22182 0.40262 0.2012 0.0
C441 C 0.24392 0.39151 0.17786 0.0
C442 C 0.23289 0.38976 0.14208 0.0
C443 C 0.20021 0.39885 0.12996 0.0
H444 H 0.68053 0.26813 0.90218 0.0
H445 H 0.58188 0.30127 0.92179 0.0
H446 H 0.64816 0.21126 0.92872 0.0
H447 H 0.5501 0.24534 0.9506 0.0
H448 H 0.48682 0.13226 0.98159 0.0
H449 H 0.51683 0.18628 0.94975 0.0
H450 H 0.63233 0.1807 0.9787 0.0
H451 H 0.60161 0.12517 1.00828 0.0
C452 C 0.65169 0.26307 0.91216 0.0
C453 C 0.63359 0.28906 0.90955 0.0
C454 C 0.6332 0.23051 0.92797 0.0
C455 C 0.59629 0.22308 0.94256 0.0
C456 C 0.57803 0.24921 0.93939 0.0
C457 C 0.59627 0.28154 0.92288 0.0
C458 C 0.51865 0.14251 0.98095 0.0
C459 C 0.54176 0.12433 0.99762 0.0
C460 C 0.53609 0.17392 0.96286 0.0
C461 C 0.57743 0.18873 0.96135 0.0
C462 C 0.60048 0.17033 0.97831 0.0
C463 C 0.58289 0.13847 0.99579 0.0
H464 H 0.00571 0.8087 0.41501 0.0
H465 H 0.88976 0.81635 0.42042 0.0
H466 H 0.0341 0.86522 0.44608 0.0
H467 H 0.91744 0.87124 0.45311 0.0
H468 H 0.97873 0.98394 0.49494 0.0
H469 H 0.95163 0.93088 0.45809 0.0
H470 H 0.04372 0.89291 0.49983 0.0
H471 H 0.07123 0.94633 0.53518 0.0
C472 C 0.98618 0.82242 0.42254 0.0
C473 C 0.94517 0.80716 0.4153 0.0
C474 C 1.00244 0.85484 0.44105 0.0
C475 C 0.97835 0.87332 0.45311 0.0
C476 C 0.93752 0.85861 0.44452 0.0
C477 C 0.92139 0.82647 0.42591 0.0
C478 C 0.99308 0.96418 0.49621 0.0
C479 C 0.02732 0.9697 0.5181 0.0
C480 C 0.97745 0.93343 0.47506 0.0
C481 C 0.9953 0.9069 0.47529 0.0
C482 C 0.02927 0.91253 0.49776 0.0
C483 C 0.04498 0.94328 0.51854 0.0
H484 H 0.22309 0.69782 0.60227 0.0
H485 H 0.28736 0.78528 0.67041 0.0
H486 H 0.27881 0.67607 0.60653 0.0
H487 H 0.34321 0.76339 0.67527 0.0
H488 H 0.44919 0.73974 0.63016 0.0
H489 H 0.39278 0.75918 0.63618 0.0
H490 H 0.31746 0.65067 0.64578 0.0
H491 H 0.37399 0.63119 0.63982 0.0
C492 C 0.24915 0.71217 0.61837 0.0
C493 C 0.25151 0.74358 0.63535 0.0
C494 C 0.28092 0.69963 0.62108 0.0
C495 C 0.31559 0.71815 0.64105 0.0
C496 C 0.31719 0.74886 0.65922 0.0
C497 C 0.28532 0.76135 0.65654 0.0
C498 C 0.42078 0.72006 0.63428 0.0
C499 C 0.41605 0.68389 0.63423 0.0
C500 C 0.3884 0.73121 0.63774 0.0
C501 C 0.35055 0.70645 0.6412 0.0
C502 C 0.34611 0.67036 0.64253 0.0
C503 C 0.37848 0.65921 0.6391 0.0
H504 H 0.67952 0.84279 0.81476 0.0
H505 H 0.79055 0.83823 0.85929 0.0
H506 H 0.7105 0.86485 0.76058 0.0
H507 H 0.8212 0.85964 0.80488 0.0
H508 H 0.85568 0.87498 0.69182 0.0
H509 H 0.81972 0.84441 0.74127 0.0
H510 H 0.7618 0.92233 0.74566 0.0
H511 H 0.79734 0.95259 0.69606 0.0
C512 C 0.71044 0.84626 0.8129 0.0
C513 C 0.73266 0.83907 0.84144 0.0
C514 C 0.72811 0.85882 0.78189 0.0
C515 C 0.76827 0.86418 0.77867 0.0
C516 C 0.79008 0.85544 0.80657 0.0
C517 C 0.77248 0.84309 0.83769 0.0
C518 C 0.83482 0.88522 0.70309 0.0
C519 C 0.82927 0.91614 0.69021 0.0
C520 C 0.81452 0.86791 0.73148 0.0
C521 C 0.788 0.88101 0.74723 0.0
C522 C 0.78176 0.91144 0.73378 0.0
C523 C 0.80233 0.92892 0.70564 0.0
H524 H 0.86654 0.32272 0.3263 0.0
H525 H 0.83039 0.22445 0.38209 0.0
H526 H 0.82049 0.29457 0.27735 0.0
H527 H 0.78364 0.19657 0.33404 0.0
H528 H 0.74341 0.14632 0.22755 0.0
H529 H 0.78637 0.1766 0.27682 0.0
H530 H 0.75236 0.26876 0.25711 0.0
H531 H 0.70999 0.23847 0.20698 0.0
C532 C 0.84828 0.29525 0.32821 0.0
C533 C 0.85229 0.27556 0.35762 0.0
C534 C 0.82184 0.27913 0.3003 0.0
C535 C 0.79871 0.24315 0.30156 0.0
C536 C 0.80172 0.22403 0.33176 0.0
C537 C 0.82835 0.24 0.35936 0.0
C538 C 0.74485 0.17293 0.23396 0.0
C539 C 0.72318 0.18997 0.21364 0.0
C540 C 0.76939 0.1903 0.26226 0.0
C541 C 0.77258 0.22505 0.27118 0.0
C542 C 0.75091 0.24215 0.25076 0.0
C543 C 0.72656 0.22481 0.22216 0.0
H544 H 0.52081 0.69885 0.32547 0.0
H545 H 0.39579 0.64773 0.33309 0.0
H546 H 0.53363 0.67092 0.37916 0.0
H547 H 0.40827 0.6203 0.3877 0.0
H548 H 0.44713 0.54217 0.45761 0.0
H549 H 0.43136 0.57513 0.4088 0.0
H550 H 0.53209 0.66611 0.44021 0.0
H551 H 0.5484 0.63246 0.48852 0.0
C552 C 0.49593 0.68228 0.33915 0.0
C553 C 0.4572 0.67598 0.3251 0.0
C554 C 0.50327 0.66621 0.37018 0.0
C555 C 0.47212 0.64304 0.38826 0.0
C556 C 0.43324 0.63747 0.37457 0.0
C557 C 0.42593 0.65356 0.34341 0.0
C558 C 0.46576 0.56933 0.4543 0.0
C559 C 0.49918 0.58451 0.47702 0.0
C560 C 0.45655 0.58845 0.42627 0.0
C561 C 0.4804 0.62354 0.42 0.0
C562 C 0.51323 0.63906 0.44352 0.0
C563 C 0.52248 0.61984 0.47155 0.0
H564 H 0.11132 0.34503 0.86489 0.0
H565 H 0.13519 0.44116 0.80629 0.0
H566 H 0.09239 0.37373 0.91364 0.0
H567 H 0.11864 0.47006 0.85485 0.0
H568 H 0.05657 0.51036 0.93424 0.0
H569 H 0.07115 0.4783 0.88688 0.0
H570 H 0.11145 0.41479 0.96102 0.0
H571 H 0.09526 0.44651 1.00887 0.0
C572 C 0.11243 0.37216 0.86214 0.0
C573 C 0.12532 0.39047 0.83116 0.0
C574 C 0.10202 0.38898 0.89051 0.0
C575 C 0.1038 0.42474 0.889 0.0
C576 C 0.11602 0.44258 0.85768 0.0
C577 C 0.12623 0.42588 0.82954 0.0
C578 C 0.06869 0.48971 0.94074 0.0
C579 C 0.07486 0.48161 0.97591 0.0
C580 C 0.07743 0.47115 0.91321 0.0
C581 C 0.09317 0.44366 0.91931 0.0
C582 C 0.09915 0.43533 0.95461 0.0
C583 C 0.09011 0.45389 0.98231 0.0
H584 H 0.69112 0.87659 0.98367 0.0
H585 H 0.61627 0.85937 0.88904 0.0
H586 H 0.66126 0.91848 1.00402 0.0
H587 H 0.58659 0.90171 0.90934 0.0
H588 H 0.51754 0.95052 0.98273 0.0
H589 H 0.54455 0.90835 0.95818 0.0
H590 H 0.66261 0.97913 0.98433 0.0
H591 H 0.63589 1.02129 1.00892 0.0
C592 C 0.66787 0.8814 0.96748 0.0
C593 C 0.65591 0.86475 0.93484 0.0
C594 C 0.65117 0.90568 0.9789 0.0
C595 C 0.622 0.91357 0.95803 0.0
C596 C 0.60905 0.89606 0.92589 0.0
C597 C 0.62606 0.87199 0.91428 0.0
C598 C 0.54928 0.95732 0.98278 0.0
C599 C 0.5746 0.98915 0.99797 0.0
C600 C 0.56467 0.93319 0.96869 0.0
C601 C 0.60559 0.94034 0.96985 0.0
C602 C 0.6309 0.97277 0.98367 0.0
C603 C 0.61558 0.99701 0.99747 0.0
H604 H 0.93711 0.26693 0.49443 0.0
H605 H 0.97906 0.25385 0.39439 0.0
H606 H 0.96249 0.22192 0.51877 0.0
H607 H 0.0049 0.20887 0.41903 0.0
H608 H 0.07308 0.15196 0.49789 0.0
H609 H 0.05657 0.20147 0.47167 0.0
H610 H 0.9363 0.15354 0.5 0.0
H611 H 0.95231 0.10412 0.52564 0.0
C612 C 0.95272 0.25511 0.47792 0.0
C613 C 0.95614 0.26378 0.44256 0.0
C614 C 0.96691 0.22921 0.49175 0.0
C615 C 0.98526 0.21187 0.47061 0.0
C616 C 0.99089 0.22198 0.43578 0.0
C617 C 0.97608 0.24755 0.42174 0.0
C618 C 0.04309 0.15188 0.49822 0.0
C619 C 0.01407 0.12417 0.51393 0.0
C620 C 0.03369 0.18013 0.48321 0.0
C621 C 0.99535 0.18137 0.48434 0.0
C622 C 0.96621 0.15332 0.49924 0.0
C623 C 0.97536 0.1249 0.51363 0.0
H624 H 0.29462 0.65374 0.23391 0.0
H625 H 0.34128 0.7049 0.13895 0.0
H626 H 0.23655 0.61584 0.20068 0.0
H627 H 0.28203 0.66965 0.10642 0.0
H628 H 0.18367 0.58804 0.04694 0.0
H629 H 0.24471 0.61702 0.08162 0.0
H630 H 0.17758 0.61236 0.17218 0.0
H631 H 0.11714 0.5813 0.13775 0.0
C632 C 0.29269 0.65705 0.20599 0.0
C633 C 0.323 0.68296 0.18948 0.0
C634 C 0.25882 0.63553 0.18683 0.0
C635 C 0.25383 0.63943 0.15052 0.0
C636 C 0.28444 0.66505 0.13407 0.0
C637 C 0.31847 0.68606 0.15308 0.0
C638 C 0.18216 0.59279 0.0744 0.0
C639 C 0.14557 0.58249 0.0895 0.0
C640 C 0.21721 0.60987 0.09437 0.0
C641 C 0.21666 0.61792 0.12995 0.0
C642 C 0.17984 0.60651 0.14516 0.0
C643 C 0.14491 0.58877 0.1253 0.0
H644 H 0.26867 0.4727 0.7116 0.0
H645 H 0.30798 0.38267 0.7178 0.0
H646 H 0.31702 0.49927 0.66831 0.0
H647 H 0.35696 0.40929 0.6757 0.0
H648 H 0.42705 0.45258 0.58281 0.0
H649 H 0.37084 0.42545 0.61794 0.0
H650 H 0.38551 0.52741 0.66307 0.0
H651 H 0.44085 0.55464 0.62703 0.0
C652 C 0.28734 0.45841 0.70334 0.0
C653 C 0.28415 0.42542 0.7179 0.0
C654 C 0.31545 0.47379 0.67879 0.0
C655 C 0.34136 0.45667 0.66825 0.0
C656 C 0.33736 0.42324 0.68242 0.0
C657 C 0.30925 0.4079 0.7068 0.0
C658 C 0.41803 0.46934 0.59988 0.0
C659 C 0.43883 0.50588 0.602 0.0
C660 C 0.38584 0.45367 0.62039 0.0
C661 C 0.37349 0.47396 0.64393 0.0
C662 C 0.39355 0.51074 0.64515 0.0
C663 C 0.42561 0.52644 0.62447 0.0
H664 H 0.74983 0.73233 0.90219 0.0
H665 H 0.72386 0.71128 1.00983 0.0
H666 H 0.80548 0.71063 0.91056 0.0
H667 H 0.77937 0.68931 1.0183 0.0
H668 H 0.85778 0.61988 1.00654 0.0
H669 H 0.80068 0.63919 0.99803 0.0
H670 H 0.87121 0.73175 0.94465 0.0
H671 H 0.9287 0.71298 0.95381 0.0
C672 C 0.75581 0.72257 0.92748 0.0
C673 C 0.73241 0.72293 0.95524 0.0
C674 C 0.78773 0.71045 0.93236 0.0
C675 C 0.79674 0.69839 0.9651 0.0
C676 C 0.77282 0.69813 0.99272 0.0
C677 C 0.74111 0.7106 0.9879 0.0
C678 C 0.86133 0.64462 0.99343 0.0
C679 C 0.89791 0.66494 0.98094 0.0
C680 C 0.82856 0.65556 0.98845 0.0
C681 C 0.83153 0.68687 0.97059 0.0
C682 C 0.86799 0.70722 0.95808 0.0
C683 C 0.90087 0.69644 0.9633 0.0
H684 H 0.45817 0.82717 0.25008 0.0
H685 H 0.41156 0.78717 0.14678 0.0
H686 H 0.48818 0.88605 0.22579 0.0
H687 H 0.43891 0.84635 0.12372 0.0
H688 H 0.45694 0.97126 0.11503 0.0
H689 H 0.42741 0.91322 0.14182 0.0
H690 H 0.54343 0.9095 0.16961 0.0
H691 H 0.57295 0.9664 0.14125 0.0
C692 C 0.45411 0.83054 0.22236 0.0
C693 C 0.4316 0.80171 0.20081 0.0
C694 C 0.47109 0.86454 0.20853 0.0
C695 C 0.46535 0.87092 0.17294 0.0
C696 C 0.44321 0.8424 0.15136 0.0
C697 C 0.42717 0.80835 0.16489 0.0
C698 C 0.47613 0.95796 0.12656 0.0
C699 C 0.51732 0.97331 0.12544 0.0
C700 C 0.45923 0.92482 0.14208 0.0
C701 C 0.48314 0.90685 0.15788 0.0
C702 C 0.52427 0.92276 0.15782 0.0
C703 C 0.54112 0.95534 0.14147 0.0
H704 H 0.06019 0.28373 0.74556 0.0
H705 H 0.17844 0.28068 0.74513 0.0
H706 H 0.03542 0.22686 0.71442 0.0
H707 H 0.15403 0.22401 0.71463 0.0
H708 H 0.10514 0.14048 0.62673 0.0
H709 H 0.12977 0.19587 0.66047 0.0
H710 H 0.02152 0.16539 0.71386 0.0
H711 H 0.99704 0.11085 0.67973 0.0
C712 C 0.08086 0.27065 0.73955 0.0
C713 C 0.12145 0.28728 0.74797 0.0
C714 C 0.0667 0.23785 0.72143 0.0
C715 C 0.09257 0.22036 0.71117 0.0
C716 C 0.13295 0.23652 0.72092 0.0
C717 C 0.14701 0.26916 0.73888 0.0
C718 C 0.08682 0.14549 0.64588 0.0
C719 C 0.04912 0.12083 0.65045 0.0
C720 C 0.10093 0.17741 0.66547 0.0
C721 C 0.07783 0.18583 0.69032 0.0
C722 C 0.04026 0.16077 0.69488 0.0
C723 C 0.02626 0.12905 0.67535 0.0
H724 H 0.81996 0.33019 0.44995 0.0
H725 H 0.89187 0.42693 0.50192 0.0
H726 H 0.76249 0.34977 0.45023 0.0
H727 H 0.83472 0.44663 0.50221 0.0
H728 H 0.71532 0.44129 0.54251 0.0
H729 H 0.77357 0.42535 0.53476 0.0
H730 H 0.73414 0.39603 0.42777 0.0
H731 H 0.67582 0.41283 0.43521 0.0
C732 C 0.82346 0.35585 0.46094 0.0
C733 C 0.86 0.37689 0.47635 0.0
C734 C 0.79072 0.36709 0.46102 0.0
C735 C 0.79404 0.39953 0.47664 0.0
C736 C 0.83114 0.42124 0.49054 0.0
C737 C 0.86384 0.41008 0.49026 0.0
C738 C 0.71924 0.43204 0.51711 0.0
C739 C 0.69097 0.42871 0.48939 0.0
C740 C 0.75267 0.42284 0.51271 0.0
C741 C 0.75861 0.40976 0.48057 0.0
C742 C 0.73022 0.40592 0.45288 0.0
C743 C 0.69679 0.41543 0.4572 0.0
loop_
_geom_bond_atom_site_label_1
_geom_bond_atom_site_label_2
_geom_bond_distance
_geom_bond_site_symmetry_2
_ccdc_geom_bond_type
H0 C7 0.929 . S
H1 C10 0.930 . S
H2 C12 0.929 . S
H3 C4 0.969 . S
C4 H3 0.969 . S
C4 O5 1.550 . S
C4 H6 0.973 . S
O5 C4 1.550 . S
O5 C11 1.412 . S
H6 C4 0.973 . S
C7 H0 0.929 . S
C7 C8 1.400 . S
C7 C9 1.364 . S
C8 C7 1.400 . S
C8 C12 1.377 . S
C9 C7 1.364 . S
C9 C10 1.374 . S
C10 H1 0.930 . S
C10 C9 1.374 . S
C10 C11 1.383 . S
C11 O5 1.412 . S
C11 C10 1.383 . S
C11 C12 1.394 . S
C12 H2 0.929 . S
C12 C8 1.377 . S
C12 C11 1.394 . S
H13 C20 0.929 . S
H14 C23 0.930 . S
H15 C25 0.929 . S
H16 C17 0.969 . S
C17 H16 0.969 . S
C17 O18 1.550 . S
C17 H19 0.973 . S
O18 C17 1.550 . S
O18 C24 1.412 . S
H19 C17 0.973 . S
C20 H13 0.929 . S
C20 C21 1.400 . S
C20 C22 1.364 . S
C21 C20 1.400 . S
C21 C25 1.377 . S
C22 C20 1.364 . S
C22 C23 1.374 . S
C23 H14 0.930 . S
C23 C22 1.374 . S
C23 C24 1.383 . S
C24 O18 1.412 . S
C24 C23 1.383 . S
C24 C25 1.394 . S
C25 H15 0.929 . S
C25 C21 1.377 . S
C25 C24 1.394 . S
H26 C33 0.929 . S
H27 C36 0.930 . S
H28 C38 0.929 . S
H29 C30 0.969 . S
C30 H29 0.969 . S
C30 O31 1.550 . S
C30 H32 0.973 . S
O31 C30 1.550 . S
O31 C37 1.412 . S
H32 C30 0.973 . S
C33 H26 0.929 . S
C33 C34 1.400 . S
C33 C35 1.364 . S
C34 C33 1.400 . S
C34 C38 1.377 . S
C35 C33 1.364 . S
C35 C36 1.374 . S
C36 H27 0.930 . S
C36 C35 1.374 . S
C36 C37 1.383 . S
C37 O31 1.412 . S
C37 C36 1.383 . S
C37 C38 1.394 . S
C38 H28 0.929 . S
C38 C34 1.377 . S
C38 C37 1.394 . S
H39 C46 0.929 . S
H40 C49 0.930 . S
H41 C51 0.929 . S
H42 C43 0.969 . S
C43 H42 0.969 . S
C43 O44 1.550 . S
C43 H45 0.973 . S
O44 C43 1.550 . S
O44 C50 1.412 . S
H45 C43 0.973 . S
C46 H39 0.929 . S
C46 C47 1.400 . S
C46 C48 1.364 . S
C47 C46 1.400 . S
C47 C51 1.377 . S
C48 C46 1.364 . S
C48 C49 1.374 . S
C49 H40 0.930 . S
C49 C48 1.374 . S
C49 C50 1.383 . S
C50 O44 1.412 . S
C50 C49 1.383 . S
C50 C51 1.394 . S
C51 H41 0.929 . S
C51 C47 1.377 . S
C51 C50 1.394 . S
H52 C59 0.929 . S
H53 C62 0.930 . S
H54 C64 0.929 . S
H55 C56 0.969 . S
C56 H55 0.969 . S
C56 O57 1.550 . S
C56 H58 0.973 . S
O57 C56 1.550 . S
O57 C63 1.412 . S
H58 C56 0.973 . S
C59 H52 0.929 . S
C59 C60 1.400 . S
C59 C61 1.364 . S
C60 C59 1.400 . S
C60 C64 1.377 . S
C61 C59 1.364 . S
C61 C62 1.374 . S
C62 H53 0.930 . S
C62 C61 1.374 . S
C62 C63 1.383 . S
C63 O57 1.412 . S
C63 C62 1.383 . S
C63 C64 1.394 . S
C64 H54 0.929 . S
C64 C60 1.377 . S
C64 C63 1.394 . S
H65 C72 0.929 . S
H66 C75 0.930 . S
H67 C77 0.929 . S
H68 C69 0.969 . S
C69 H68 0.969 . S
C69 O70 1.550 . S
C69 H71 0.973 . S
O70 C69 1.550 . S
O70 C76 1.412 . S
H71 C69 0.973 . S
C72 H65 0.929 . S
C72 C73 1.400 . S
C72 C74 1.364 . S
C73 C72 1.400 . S
C73 C77 1.377 . S
C74 C72 1.364 . S
C74 C75 1.374 . S
C75 H66 0.930 . S
C75 C74 1.374 . S
C75 C76 1.383 . S
C76 O70 1.412 . S
C76 C75 1.383 . S
C76 C77 1.394 . S
C77 H67 0.929 . S
C77 C73 1.377 . S
C77 C76 1.394 . S
H78 C85 0.929 . S
H79 C88 0.930 . S
H80 C90 0.929 . S
H81 C82 0.969 . S
C82 H81 0.969 . S
C82 O83 1.550 . S
C82 H84 0.973 . S
O83 C82 1.550 . S
O83 C89 1.412 . S
H84 C82 0.973 . S
C85 H78 0.929 . S
C85 C86 1.400 . S
C85 C87 1.364 . S
C86 C85 1.400 . S
C86 C90 1.377 . S
C87 C85 1.364 . S
C87 C88 1.374 . S
C88 H79 0.930 . S
C88 C87 1.374 . S
C88 C89 1.383 . S
C89 O83 1.412 . S
C89 C88 1.383 . S
C89 C90 1.394 . S
C90 H80 0.929 . S
C90 C86 1.377 . S
C90 C89 1.394 . S
H91 C98 0.929 . S
H92 C101 0.930 . S
H93 C103 0.929 . S
H94 C95 0.969 . S
C95 H94 0.969 . S
C95 O96 1.550 . S
C95 H97 0.973 . S
O96 C95 1.550 . S
O96 C102 1.412 . S
H97 C95 0.973 . S
C98 H91 0.929 . S
C98 C99 1.400 . S
C98 C100 1.364 . S
C99 C98 1.400 . S
C99 C103 1.377 . S
C100 C98 1.364 . S
C100 C101 1.374 . S
C101 H92 0.930 . S
C101 C100 1.374 . S
C101 C102 1.383 . S
C102 O96 1.412 . S
C102 C101 1.383 . S
C102 C103 1.394 . S
C103 H93 0.929 . S
C103 C99 1.377 . S
C103 C102 1.394 . S
Tb104 C106 2.809 1_545 S
Tb104 O124 2.484 1_545 S
Tb104 O125 2.440 1_545 S
Tb104 O126 2.658 1_655 S
Tb104 O127 2.409 1_655 S
Tb104 O128 2.378 1_645 S
Tb104 O132 2.325 1_545 S
Tb104 O135 2.341 . S
Tb105 C115 2.809 . S
Tb105 O126 2.325 . S
Tb105 O129 2.341 1_545 S
Tb105 O130 2.484 . S
Tb105 O131 2.440 . S
Tb105 O132 2.658 1_445 S
Tb105 O133 2.409 1_545 S
Tb105 O134 2.378 . S
C106 Tb104 2.809 1_565 S
C106 C107 1.514 . S
C106 O124 1.248 . S
C106 O125 1.266 . S
C107 C106 1.514 . S
C107 C108 1.359 . S
C107 C112 1.348 . S
C108 C107 1.359 . S
C108 C109 1.380 . S
C108 H136 0.929 . S
C109 C108 1.380 . S
C109 C110 1.347 . S
C109 H137 0.931 . S
C110 C109 1.347 . S
C110 C111 1.369 . S
C111 C110 1.369 . S
C111 C112 1.408 . S
C111 H138 0.930 . S
C112 C107 1.348 . S
C112 C111 1.408 . S
C112 H139 0.930 . S
C113 O126 1.281 . S
C113 O127 1.254 . S
C114 O128 1.236 . S
C114 O129 1.266 . S
C115 Tb105 2.809 . S
C115 C116 1.514 . S
C115 O130 1.248 . S
C115 O131 1.266 . S
C116 C115 1.514 . S
C116 C117 1.359 . S
C116 C121 1.348 . S
C117 C116 1.359 . S
C117 C118 1.380 . S
C117 H140 0.929 . S
C118 C117 1.380 . S
C118 C119 1.347 . S
C118 H141 0.931 . S
C119 C118 1.347 . S
C119 C120 1.369 . S
C120 C119 1.369 . S
C120 C121 1.408 . S
C120 H142 0.930 . S
C121 C116 1.348 . S
C121 C120 1.408 . S
C121 H143 0.930 . S
C122 O132 1.281 . S
C122 O133 1.254 1_655 S
C123 O134 1.236 1_655 S
C123 O135 1.266 . S
O124 Tb104 2.484 1_565 S
O124 C106 1.248 . S
O125 Tb104 2.440 1_565 S
O125 C106 1.266 . S
O126 Tb104 2.658 1_455 S
O126 Tb105 2.325 . S
O126 C113 1.281 . S
O127 Tb104 2.409 1_455 S
O127 C113 1.254 . S
O128 Tb104 2.378 1_465 S
O128 C114 1.236 . S
O129 Tb105 2.341 1_565 S
O129 C114 1.266 . S
O130 Tb105 2.484 . S
O130 C115 1.248 . S
O131 Tb105 2.440 . S
O131 C115 1.266 . S
O132 Tb104 2.325 1_565 S
O132 Tb105 2.658 1_665 S
O132 C122 1.281 . S
O133 Tb105 2.409 1_565 S
O133 C122 1.254 1_455 S
O134 Tb105 2.378 . S
O134 C123 1.236 1_455 S
O135 Tb104 2.341 . S
O135 C123 1.266 . S
H136 C108 0.929 . S
H137 C109 0.931 . S
H138 C111 0.930 . S
H139 C112 0.930 . S
H140 C117 0.929 . S
H141 C118 0.931 . S
H142 C120 0.930 . S
H143 C121 0.930 . S
Tb144 C146 2.809 . S
Tb144 O164 2.484 . S
Tb144 O165 2.440 . S
Tb144 O166 2.658 1_545 S
Tb144 O167 2.409 1_545 S
Tb144 O168 2.378 . S
Tb144 O172 2.325 1_554 S
Tb144 O175 2.341 1_544 S
Tb145 C155 2.809 1_545 S
Tb145 O166 2.325 1_546 S
Tb145 O169 2.341 1_556 S
Tb145 O170 2.484 1_545 S
Tb145 O171 2.440 1_545 S
Tb145 O172 2.658 . S
Tb145 O173 2.409 . S
Tb145 O174 2.378 1_545 S
C146 Tb144 2.809 . S
C146 C147 1.514 . S
C146 O164 1.248 . S
C146 O165 1.266 . S
C147 C146 1.514 . S
C147 C148 1.359 . S
C147 C152 1.348 . S
C148 C147 1.359 . S
C148 C149 1.380 . S
C148 H176 0.929 . S
C149 C148 1.380 . S
C149 C150 1.347 . S
C149 H177 0.931 . S
C150 C149 1.347 . S
C150 C151 1.369 . S
C151 C150 1.369 . S
C151 C152 1.408 . S
C151 H178 0.930 . S
C152 C147 1.348 . S
C152 C151 1.408 . S
C152 H179 0.930 . S
C153 O166 1.281 . S
C153 O167 1.254 . S
C154 O168 1.236 . S
C154 O169 1.266 . S
C155 Tb145 2.809 1_565 S
C155 C156 1.514 . S
C155 O170 1.248 . S
C155 O171 1.266 . S
C156 C155 1.514 . S
C156 C157 1.359 . S
C156 C161 1.348 . S
C157 C156 1.359 . S
C157 C158 1.380 . S
C157 H180 0.929 . S
C158 C157 1.380 . S
C158 C159 1.347 . S
C158 H181 0.931 . S
C159 C158 1.347 . S
C159 C160 1.369 . S
C160 C159 1.369 . S
C160 C161 1.408 . S
C160 H182 0.930 . S
C161 C156 1.348 . S
C161 C160 1.408 . S
C161 H183 0.930 . S
C162 O172 1.281 . S
C162 O173 1.254 . S
C163 O174 1.236 . S
C163 O175 1.266 . S
O164 Tb144 2.484 . S
O164 C146 1.248 . S
O165 Tb144 2.440 . S
O165 C146 1.266 . S
O166 Tb144 2.658 1_565 S
O166 Tb145 2.325 1_564 S
O166 C153 1.281 . S
O167 Tb144 2.409 1_565 S
O167 C153 1.254 . S
O168 Tb144 2.378 . S
O168 C154 1.236 . S
O169 Tb145 2.341 1_554 S
O169 C154 1.266 . S
O170 Tb145 2.484 1_565 S
O170 C155 1.248 . S
O171 Tb145 2.440 1_565 S
O171 C155 1.266 . S
O172 Tb144 2.325 1_556 S
O172 Tb145 2.658 . S
O172 C162 1.281 . S
O173 Tb145 2.409 . S
O173 C162 1.254 . S
O174 Tb145 2.378 1_565 S
O174 C163 1.236 . S
O175 Tb144 2.341 1_566 S
O175 C163 1.266 . S
H176 C148 0.929 . S
H177 C149 0.931 . S
H178 C151 0.930 . S
H179 C152 0.930 . S
H180 C157 0.929 . S
H181 C158 0.931 . S
H182 C160 0.930 . S
H183 C161 0.930 . S
Tb184 C186 2.809 . S
Tb184 O204 2.484 . S
Tb184 O205 2.440 . S
Tb184 O206 2.658 . S
Tb184 O207 2.409 . S
Tb184 O208 2.378 . S
Tb184 O212 2.325 . S
Tb184 O215 2.341 . S
Tb185 C195 2.809 . S
Tb185 O206 2.325 . S
Tb185 O209 2.341 . S
Tb185 O210 2.484 . S
Tb185 O211 2.440 . S
Tb185 O212 2.658 . S
Tb185 O213 2.409 . S
Tb185 O214 2.378 . S
C186 Tb184 2.809 . S
C186 C187 1.514 . S
C186 O204 1.248 . S
C186 O205 1.266 . S
C187 C186 1.514 . S
C187 C188 1.359 . S
C187 C192 1.348 . S
C188 C187 1.359 . S
C188 C189 1.380 . S
C188 H216 0.929 . S
C189 C188 1.380 . S
C189 C190 1.347 . S
C189 H217 0.931 . S
C190 C189 1.347 . S
C190 C191 1.369 . S
C191 C190 1.369 . S
C191 C192 1.408 . S
C191 H218 0.930 . S
C192 C187 1.348 . S
C192 C191 1.408 . S
C192 H219 0.930 . S
C193 O206 1.281 . S
C193 O207 1.254 . S
C194 O208 1.236 . S
C194 O209 1.266 . S
C195 Tb185 2.809 . S
C195 C196 1.514 . S
C195 O210 1.248 . S
C195 O211 1.266 . S
C196 C195 1.514 . S
C196 C197 1.359 . S
C196 C201 1.348 . S
C197 C196 1.359 . S
C197 C198 1.380 . S
C197 H220 0.929 . S
C198 C197 1.380 . S
C198 C199 1.347 . S
C198 H221 0.931 . S
C199 C198 1.347 . S
C199 C200 1.369 . S
C200 C199 1.369 . S
C200 C201 1.408 . S
C200 H222 0.930 . S
C201 C196 1.348 . S
C201 C200 1.408 . S
C201 H223 0.930 . S
C202 O212 1.281 . S
C202 O213 1.254 . S
C203 O214 1.236 . S
C203 O215 1.266 . S
O204 Tb184 2.484 . S
O204 C186 1.248 . S
O205 Tb184 2.440 . S
O205 C186 1.266 . S
O206 Tb184 2.658 . S
O206 Tb185 2.325 . S
O206 C193 1.281 . S
O207 Tb184 2.409 . S
O207 C193 1.254 . S
O208 Tb184 2.378 . S
O208 C194 1.236 . S
O209 Tb185 2.341 . S
O209 C194 1.266 . S
O210 Tb185 2.484 . S
O210 C195 1.248 . S
O211 Tb185 2.440 . S
O211 C195 1.266 . S
O212 Tb184 2.325 . S
O212 Tb185 2.658 . S
O212 C202 1.281 . S
O213 Tb185 2.409 . S
O213 C202 1.254 . S
O214 Tb185 2.378 . S
O214 C203 1.236 . S
O215 Tb184 2.341 . S
O215 C203 1.266 . S
H216 C188 0.929 . S
H217 C189 0.931 . S
H218 C191 0.930 . S
H219 C192 0.930 . S
H220 C197 0.929 . S
H221 C198 0.931 . S
H222 C200 0.930 . S
H223 C201 0.930 . S
Tb224 C226 2.809 1_455 S
Tb224 O244 2.484 1_455 S
Tb224 O245 2.440 . S
Tb224 O246 2.658 . S
Tb224 O247 2.409 . S
Tb224 O248 2.378 1_455 S
Tb224 O252 2.325 1_455 S
Tb224 O255 2.341 1_554 S
Tb225 C235 2.809 . S
Tb225 O246 2.325 . S
Tb225 O249 2.341 1_455 S
Tb225 O250 2.484 . S
Tb225 O251 2.440 . S
Tb225 O252 2.658 1_455 S
Tb225 O253 2.409 1_455 S
Tb225 O254 2.378 . S
C226 Tb224 2.809 1_655 S
C226 C227 1.514 . S
C226 O244 1.248 . S
C226 O245 1.266 1_655 S
C227 C226 1.514 . S
C227 C228 1.357 1_554 S
C227 C232 1.350 . S
C228 C227 1.357 1_556 S
C228 C229 1.380 . S
C228 H256 0.929 . S
C229 C228 1.380 . S
C229 C230 1.347 . S
C229 H257 0.931 . S
C230 C229 1.347 . S
C230 C231 1.369 . S
C231 C230 1.369 . S
C231 C232 1.408 1_556 S
C231 H258 0.930 . S
C232 C227 1.350 . S
C232 C231 1.408 1_554 S
C232 H259 0.930 . S
C233 O246 1.281 . S
C233 O247 1.254 . S
C234 O248 1.236 . S
C234 O249 1.266 . S
C235 Tb225 2.809 . S
C235 C236 1.514 . S
C235 O250 1.248 . S
C235 O251 1.266 . S
C236 C235 1.514 . S
C236 C237 1.359 . S
C236 C241 1.348 . S
C237 C236 1.359 . S
C237 C238 1.380 . S
C237 H260 0.929 . S
C238 C237 1.380 . S
C238 C239 1.347 . S
C238 H261 0.931 . S
C239 C238 1.347 . S
C239 C240 1.369 . S
C240 C239 1.369 . S
C240 C241 1.408 . S
C240 H262 0.930 . S
C241 C236 1.348 . S
C241 C240 1.408 . S
C241 H263 0.930 . S
C242 O252 1.281 . S
C242 O253 1.254 . S
C243 O254 1.236 . S
C243 O255 1.266 1_554 S
O244 Tb224 2.484 1_655 S
O244 C226 1.248 . S
O245 Tb224 2.440 . S
O245 C226 1.266 1_455 S
O246 Tb224 2.658 . S
O246 Tb225 2.325 . S
O246 C233 1.281 . S
O247 Tb224 2.409 . S
O247 C233 1.254 . S
O248 Tb224 2.378 1_655 S
O248 C234 1.236 . S
O249 Tb225 2.341 1_655 S
O249 C234 1.266 . S
O250 Tb225 2.484 . S
O250 C235 1.248 . S
O251 Tb225 2.440 . S
O251 C235 1.266 . S
O252 Tb224 2.325 1_655 S
O252 Tb225 2.658 1_655 S
O252 C242 1.281 . S
O253 Tb225 2.409 1_655 S
O253 C242 1.254 . S
O254 Tb225 2.378 . S
O254 C243 1.236 . S
O255 Tb224 2.341 1_556 S
O255 C243 1.266 1_556 S
H256 C228 0.929 . S
H257 C229 0.931 . S
H258 C231 0.930 . S
H259 C232 0.930 . S
H260 C237 0.929 . S
H261 C238 0.931 . S
H262 C240 0.930 . S
H263 C241 0.930 . S
H264 C272 0.950 . S
H265 C277 0.950 . S
H266 C274 0.950 . S
H267 C276 0.950 . S
H268 C278 0.950 . S
H269 C280 0.950 . S
H270 C282 0.950 . S
H271 C283 0.950 . S
C272 H264 0.950 . S
C272 C273 1.386 . S
C272 C274 1.391 . S
C273 C272 1.386 . S
C273 C277 1.393 . S
C274 H266 0.950 . S
C274 C272 1.391 . S
C274 C275 1.400 . S
C275 C274 1.400 . S
C275 C276 1.398 . S
C275 C281 1.491 . S
C276 H267 0.950 . S
C276 C275 1.398 . S
C276 C277 1.391 . S
C277 H265 0.950 . S
C277 C273 1.393 . S
C277 C276 1.391 . S
C278 H268 0.950 . S
C278 C279 1.386 . S
C278 C280 1.391 . S
C279 C278 1.386 . S
C279 C283 1.393 . S
C280 H269 0.950 . S
C280 C278 1.391 . S
C280 C281 1.400 . S
C281 C275 1.491 . S
C281 C280 1.400 . S
C281 C282 1.398 . S
C282 H270 0.950 . S
C282 C281 1.398 . S
C282 C283 1.391 . S
C283 H271 0.950 . S
C283 C279 1.393 . S
C283 C282 1.391 . S
H284 C292 0.950 . S
H285 C297 0.950 . S
H286 C294 0.950 . S
H287 C296 0.950 . S
H288 C298 0.950 . S
H289 C300 0.950 . S
H290 C302 0.950 . S
H291 C303 0.950 . S
C292 H284 0.950 . S
C292 C293 1.386 . S
C292 C294 1.391 . S
C293 C292 1.386 . S
C293 C297 1.393 . S
C294 H286 0.950 . S
C294 C292 1.391 . S
C294 C295 1.400 . S
C295 C294 1.400 . S
C295 C296 1.398 . S
C295 C301 1.491 . S
C296 H287 0.950 . S
C296 C295 1.398 . S
C296 C297 1.391 . S
C297 H285 0.950 . S
C297 C293 1.393 . S
C297 C296 1.391 . S
C298 H288 0.950 . S
C298 C299 1.386 . S
C298 C300 1.391 . S
C299 C298 1.386 . S
C299 C303 1.393 . S
C300 H289 0.950 . S
C300 C298 1.391 . S
C300 C301 1.400 . S
C301 C295 1.491 . S
C301 C300 1.400 . S
C301 C302 1.398 . S
C302 H290 0.950 . S
C302 C301 1.398 . S
C302 C303 1.391 . S
C303 H291 0.950 . S
C303 C299 1.393 . S
C303 C302 1.391 . S
H304 C312 0.950 . S
H305 C317 0.950 . S
H306 C314 0.950 . S
H307 C316 0.950 . S
H308 C318 0.950 . S
H309 C320 0.950 . S
H310 C322 0.950 . S
H311 C323 0.950 . S
C312 H304 0.950 . S
C312 C313 1.386 . S
C312 C314 1.391 . S
C313 C312 1.386 . S
C313 C317 1.393 . S
C314 H306 0.950 . S
C314 C312 1.391 . S
C314 C315 1.400 . S
C315 C314 1.400 . S
C315 C316 1.398 . S
C315 C321 1.491 . S
C316 H307 0.950 . S
C316 C315 1.398 . S
C316 C317 1.391 . S
C317 H305 0.950 . S
C317 C313 1.393 . S
C317 C316 1.391 . S
C318 H308 0.950 . S
C318 C319 1.386 . S
C318 C320 1.391 . S
C319 C318 1.386 . S
C319 C323 1.393 . S
C320 H309 0.950 . S
C320 C318 1.391 . S
C320 C321 1.400 . S
C321 C315 1.491 . S
C321 C320 1.400 . S
C321 C322 1.398 . S
C322 H310 0.950 . S
C322 C321 1.398 . S
C322 C323 1.391 . S
C323 H311 0.950 . S
C323 C319 1.393 . S
C323 C322 1.391 . S
H324 C332 0.950 . S
H325 C337 0.950 . S
H326 C334 0.950 . S
H327 C336 0.950 . S
H328 C338 0.950 . S
H329 C340 0.950 . S
H330 C342 0.950 . S
H331 C343 0.950 . S
C332 H324 0.950 . S
C332 C333 1.386 . S
C332 C334 1.391 . S
C333 C332 1.386 . S
C333 C337 1.393 . S
C334 H326 0.950 . S
C334 C332 1.391 . S
C334 C335 1.400 . S
C335 C334 1.400 . S
C335 C336 1.398 . S
C335 C341 1.491 . S
C336 H327 0.950 . S
C336 C335 1.398 . S
C336 C337 1.391 . S
C337 H325 0.950 . S
C337 C333 1.393 . S
C337 C336 1.391 . S
C338 H328 0.950 . S
C338 C339 1.386 . S
C338 C340 1.391 . S
C339 C338 1.386 . S
C339 C343 1.393 . S
C340 H329 0.950 . S
C340 C338 1.391 . S
C340 C341 1.400 . S
C341 C335 1.491 . S
C341 C340 1.400 . S
C341 C342 1.398 . S
C342 H330 0.950 . S
C342 C341 1.398 . S
C342 C343 1.391 . S
C343 H331 0.950 . S
C343 C339 1.393 . S
C343 C342 1.391 . S
H344 C352 0.950 . S
H345 C357 0.950 . S
H346 C354 0.950 . S
H347 C356 0.950 . S
H348 C358 0.950 . S
H349 C360 0.950 . S
H350 C362 0.950 . S
H351 C363 0.950 . S
C352 H344 0.950 . S
C352 C353 1.386 . S
C352 C354 1.391 . S
C353 C352 1.386 . S
C353 C357 1.393 . S
C354 H346 0.950 . S
C354 C352 1.391 . S
C354 C355 1.400 . S
C355 C354 1.400 . S
C355 C356 1.398 . S
C355 C361 1.491 . S
C356 H347 0.950 . S
C356 C355 1.398 . S
C356 C357 1.391 . S
C357 H345 0.950 . S
C357 C353 1.393 . S
C357 C356 1.391 . S
C358 H348 0.950 . S
C358 C359 1.386 . S
C358 C360 1.391 . S
C359 C358 1.386 . S
C359 C363 1.393 . S
C360 H349 0.950 . S
C360 C358 1.391 . S
C360 C361 1.400 . S
C361 C355 1.491 . S
C361 C360 1.400 . S
C361 C362 1.398 . S
C362 H350 0.950 . S
C362 C361 1.398 . S
C362 C363 1.391 . S
C363 H351 0.950 . S
C363 C359 1.393 . S
C363 C362 1.391 . S
H364 C372 0.950 . S
H365 C377 0.950 . S
H366 C374 0.950 . S
H367 C376 0.950 . S
H368 C378 0.950 . S
H369 C380 0.950 . S
H370 C382 0.950 . S
H371 C383 0.950 . S
C372 H364 0.950 . S
C372 C373 1.386 . S
C372 C374 1.391 . S
C373 C372 1.386 . S
C373 C377 1.393 . S
C374 H366 0.950 . S
C374 C372 1.391 . S
C374 C375 1.400 . S
C375 C374 1.400 . S
C375 C376 1.398 . S
C375 C381 1.491 . S
C376 H367 0.950 . S
C376 C375 1.398 . S
C376 C377 1.391 . S
C377 H365 0.950 . S
C377 C373 1.393 . S
C377 C376 1.391 . S
C378 H368 0.950 . S
C378 C379 1.386 . S
C378 C380 1.391 . S
C379 C378 1.386 . S
C379 C383 1.393 . S
C380 H369 0.950 . S
C380 C378 1.391 . S
C380 C381 1.400 . S
C381 C375 1.491 . S
C381 C380 1.400 . S
C381 C382 1.398 . S
C382 H370 0.950 . S
C382 C381 1.398 . S
C382 C383 1.391 . S
C383 H371 0.950 . S
C383 C379 1.393 . S
C383 C382 1.391 . S
H384 C392 0.950 . S
H385 C397 0.950 . S
H386 C394 0.950 . S
H387 C396 0.950 . S
H388 C398 0.958 . S
H389 C400 0.950 . S
H390 C402 0.950 . S
H391 C403 0.950 . S
C392 H384 0.950 . S
C392 C393 1.386 . S
C392 C394 1.391 . S
C393 C392 1.386 . S
C393 C397 1.393 . S
C394 H386 0.950 . S
C394 C392 1.391 . S
C394 C395 1.400 . S
C395 C394 1.400 . S
C395 C396 1.398 . S
C395 C401 1.491 . S
C396 H387 0.950 . S
C396 C395 1.398 . S
C396 C397 1.391 . S
C397 H385 0.950 . S
C397 C393 1.393 . S
C397 C396 1.391 . S
C398 H388 0.958 . S
C398 C399 1.386 . S
C398 C400 1.391 . S
C399 C398 1.386 . S
C399 C403 1.393 . S
C400 H389 0.950 . S
C400 C398 1.391 . S
C400 C401 1.400 . S
C401 C395 1.491 . S
C401 C400 1.400 . S
C401 C402 1.398 . S
C402 H390 0.950 . S
C402 C401 1.398 . S
C402 C403 1.391 . S
C403 H391 0.950 . S
C403 C399 1.393 . S
C403 C402 1.391 . S
H404 C412 0.950 . S
H405 C417 0.950 . S
H406 C414 0.950 . S
H407 C416 0.950 . S
H408 C418 0.950 . S
H409 C420 0.950 . S
H410 C422 0.950 . S
H411 C423 0.950 . S
C412 H404 0.950 . S
C412 C413 1.386 . S
C412 C414 1.391 . S
C413 C412 1.386 . S
C413 C417 1.393 . S
C414 H406 0.950 . S
C414 C412 1.391 . S
C414 C415 1.400 . S
C415 C414 1.400 . S
C415 C416 1.398 . S
C415 C421 1.491 . S
C416 H407 0.950 . S
C416 C415 1.398 . S
C416 C417 1.391 . S
C417 H405 0.950 . S
C417 C413 1.393 . S
C417 C416 1.391 . S
C418 H408 0.950 . S
C418 C419 1.386 . S
C418 C420 1.391 . S
C419 C418 1.386 . S
C419 C423 1.393 . S
C420 H409 0.950 . S
C420 C418 1.391 . S
C420 C421 1.400 . S
C421 C415 1.491 . S
C421 C420 1.400 . S
C421 C422 1.398 . S
C422 H410 0.950 . S
C422 C421 1.398 . S
C422 C423 1.391 . S
C423 H411 0.950 . S
C423 C419 1.393 . S
C423 C422 1.391 . S
H424 C432 0.950 . S
H425 C437 0.950 . S
H426 C434 0.950 . S
H427 C436 0.950 . S
H428 C438 0.950 . S
H429 C440 0.950 . S
H430 C442 0.950 . S
H431 C443 0.950 . S
C432 H424 0.950 . S
C432 C433 1.386 . S
C432 C434 1.391 . S
C433 C432 1.386 . S
C433 C437 1.393 . S
C434 H426 0.950 . S
C434 C432 1.391 . S
C434 C435 1.400 . S
C435 C434 1.400 . S
C435 C436 1.398 . S
C435 C441 1.491 . S
C436 H427 0.950 . S
C436 C435 1.398 . S
C436 C437 1.391 . S
C437 H425 0.950 . S
C437 C433 1.393 . S
C437 C436 1.391 . S
C438 H428 0.950 . S
C438 C439 1.386 . S
C438 C440 1.391 . S
C439 C438 1.386 . S
C439 C443 1.393 . S
C440 H429 0.950 . S
C440 C438 1.391 . S
C440 C441 1.400 . S
C441 C435 1.491 . S
C441 C440 1.400 . S
C441 C442 1.398 . S
C442 H430 0.950 . S
C442 C441 1.398 . S
C442 C443 1.391 . S
C443 H431 0.950 . S
C443 C439 1.393 . S
C443 C442 1.391 . S
H444 C452 0.950 . S
H445 C457 0.950 . S
H446 C454 0.950 . S
H447 C456 0.950 . S
H448 C458 0.950 . S
H449 C460 0.950 . S
H450 C462 0.950 . S
H451 C463 0.950 . S
C452 H444 0.950 . S
C452 C453 1.386 . S
C452 C454 1.391 . S
C453 C452 1.386 . S
C453 C457 1.393 . S
C454 H446 0.950 . S
C454 C452 1.391 . S
C454 C455 1.400 . S
C455 C454 1.400 . S
C455 C456 1.398 . S
C455 C461 1.491 . S
C456 H447 0.950 . S
C456 C455 1.398 . S
C456 C457 1.391 . S
C457 H445 0.950 . S
C457 C453 1.393 . S
C457 C456 1.391 . S
C458 H448 0.950 . S
C458 C459 1.386 . S
C458 C460 1.391 . S
C459 C458 1.386 . S
C459 C463 1.393 . S
C460 H449 0.950 . S
C460 C458 1.391 . S
C460 C461 1.400 . S
C461 C455 1.491 . S
C461 C460 1.400 . S
C461 C462 1.398 . S
C462 H450 0.950 . S
C462 C461 1.398 . S
C462 C463 1.391 . S
C463 H451 0.950 . S
C463 C459 1.393 . S
C463 C462 1.391 . S
H464 C472 0.950 . S
H465 C477 0.950 . S
H466 C474 0.950 . S
H467 C476 0.950 . S
H468 C478 0.950 . S
H469 C480 0.950 . S
H470 C482 0.950 . S
H471 C483 0.951 . S
C472 H464 0.950 . S
C472 C473 1.386 . S
C472 C474 1.391 . S
C473 C472 1.386 . S
C473 C477 1.393 . S
C474 H466 0.950 . S
C474 C472 1.391 . S
C474 C475 1.400 . S
C475 C474 1.400 . S
C475 C476 1.398 . S
C475 C481 1.491 . S
C476 H467 0.950 . S
C476 C475 1.398 . S
C476 C477 1.391 . S
C477 H465 0.950 . S
C477 C473 1.393 . S
C477 C476 1.391 . S
C478 H468 0.950 . S
C478 C479 1.386 . S
C478 C480 1.391 . S
C479 C478 1.386 . S
C479 C483 1.393 . S
C480 H469 0.950 . S
C480 C478 1.391 . S
C480 C481 1.400 . S
C481 C475 1.491 . S
C481 C480 1.400 . S
C481 C482 1.398 . S
C482 H470 0.950 . S
C482 C481 1.398 . S
C482 C483 1.391 . S
C483 H471 0.951 . S
C483 C479 1.393 . S
C483 C482 1.391 . S
H484 C492 0.950 . S
H485 C497 0.950 . S
H486 C494 0.950 . S
H487 C496 0.950 . S
H488 C498 0.950 . S
H489 C500 0.950 . S
H490 C502 0.950 . S
H491 C503 0.950 . S
C492 H484 0.950 . S
C492 C493 1.386 . S
C492 C494 1.391 . S
C493 C492 1.386 . S
C493 C497 1.393 . S
C494 H486 0.950 . S
C494 C492 1.391 . S
C494 C495 1.400 . S
C495 C494 1.400 . S
C495 C496 1.398 . S
C495 C501 1.491 . S
C496 H487 0.950 . S
C496 C495 1.398 . S
C496 C497 1.391 . S
C497 H485 0.950 . S
C497 C493 1.393 . S
C497 C496 1.391 . S
C498 H488 0.950 . S
C498 C499 1.386 . S
C498 C500 1.391 . S
C499 C498 1.386 . S
C499 C503 1.393 . S
C500 H489 0.950 . S
C500 C498 1.391 . S
C500 C501 1.400 . S
C501 C495 1.491 . S
C501 C500 1.400 . S
C501 C502 1.398 . S
C502 H490 0.950 . S
C502 C501 1.398 . S
C502 C503 1.391 . S
C503 H491 0.950 . S
C503 C499 1.393 . S
C503 C502 1.391 . S
H504 C512 0.950 . S
H505 C517 0.950 . S
H506 C514 0.950 . S
H507 C516 0.950 . S
H508 C518 0.950 . S
H509 C520 0.950 . S
H510 C522 0.950 . S
H511 C523 0.950 . S
C512 H504 0.950 . S
C512 C513 1.386 . S
C512 C514 1.391 . S
C513 C512 1.386 . S
C513 C517 1.393 . S
C514 H506 0.950 . S
C514 C512 1.391 . S
C514 C515 1.400 . S
C515 C514 1.400 . S
C515 C516 1.398 . S
C515 C521 1.491 . S
C516 H507 0.950 . S
C516 C515 1.398 . S
C516 C517 1.391 . S
C517 H505 0.950 . S
C517 C513 1.393 . S
C517 C516 1.391 . S
C518 H508 0.950 . S
C518 C519 1.386 . S
C518 C520 1.391 . S
C519 C518 1.386 . S
C519 C523 1.393 . S
C520 H509 0.950 . S
C520 C518 1.391 . S
C520 C521 1.400 . S
C521 C515 1.491 . S
C521 C520 1.400 . S
C521 C522 1.398 . S
C522 H510 0.950 . S
C522 C521 1.398 . S
C522 C523 1.391 . S
C523 H511 0.950 . S
C523 C519 1.393 . S
C523 C522 1.391 . S
H524 C532 0.950 . S
H525 C537 0.950 . S
H526 C534 0.950 . S
H527 C536 0.950 . S
H528 C538 0.950 . S
H529 C540 0.950 . S
H530 C542 0.950 . S
H531 C543 0.950 . S
C532 H524 0.950 . S
C532 C533 1.386 . S
C532 C534 1.391 . S
C533 C532 1.386 . S
C533 C537 1.393 . S
C534 H526 0.950 . S
C534 C532 1.391 . S
C534 C535 1.400 . S
C535 C534 1.400 . S
C535 C536 1.398 . S
C535 C541 1.491 . S
C536 H527 0.950 . S
C536 C535 1.398 . S
C536 C537 1.391 . S
C537 H525 0.950 . S
C537 C533 1.393 . S
C537 C536 1.391 . S
C538 H528 0.950 . S
C538 C539 1.386 . S
C538 C540 1.391 . S
C539 C538 1.386 . S
C539 C543 1.393 . S
C540 H529 0.950 . S
C540 C538 1.391 . S
C540 C541 1.400 . S
C541 C535 1.491 . S
C541 C540 1.400 . S
C541 C542 1.398 . S
C542 H530 0.950 . S
C542 C541 1.398 . S
C542 C543 1.391 . S
C543 H531 0.950 . S
C543 C539 1.393 . S
C543 C542 1.391 . S
H544 C552 0.950 . S
H545 C557 0.950 . S
H546 C554 0.950 . S
H547 C556 0.950 . S
H548 C558 0.950 . S
H549 C560 0.950 . S
H550 C562 0.950 . S
H551 C563 0.950 . S
C552 H544 0.950 . S
C552 C553 1.386 . S
C552 C554 1.391 . S
C553 C552 1.386 . S
C553 C557 1.393 . S
C554 H546 0.950 . S
C554 C552 1.391 . S
C554 C555 1.400 . S
C555 C554 1.400 . S
C555 C556 1.398 . S
C555 C561 1.491 . S
C556 H547 0.950 . S
C556 C555 1.398 . S
C556 C557 1.391 . S
C557 H545 0.950 . S
C557 C553 1.393 . S
C557 C556 1.391 . S
C558 H548 0.950 . S
C558 C559 1.386 . S
C558 C560 1.391 . S
C559 C558 1.386 . S
C559 C563 1.393 . S
C560 H549 0.950 . S
C560 C558 1.391 . S
C560 C561 1.400 . S
C561 C555 1.491 . S
C561 C560 1.400 . S
C561 C562 1.398 . S
C562 H550 0.950 . S
C562 C561 1.398 . S
C562 C563 1.391 . S
C563 H551 0.950 . S
C563 C559 1.393 . S
C563 C562 1.391 . S
H564 C572 0.950 . S
H565 C577 0.950 . S
H566 C574 0.950 . S
H567 C576 0.950 . S
H568 C578 0.950 . S
H569 C580 0.950 . S
H570 C582 0.950 . S
H571 C583 0.950 . S
C572 H564 0.950 . S
C572 C573 1.386 . S
C572 C574 1.391 . S
C573 C572 1.386 . S
C573 C577 1.393 . S
C574 H566 0.950 . S
C574 C572 1.391 . S
C574 C575 1.400 . S
C575 C574 1.400 . S
C575 C576 1.398 . S
C575 C581 1.491 . S
C576 H567 0.950 . S
C576 C575 1.398 . S
C576 C577 1.391 . S
C577 H565 0.950 . S
C577 C573 1.393 . S
C577 C576 1.391 . S
C578 H568 0.950 . S
C578 C579 1.386 . S
C578 C580 1.391 . S
C579 C578 1.386 . S
C579 C583 1.393 . S
C580 H569 0.950 . S
C580 C578 1.391 . S
C580 C581 1.400 . S
C581 C575 1.491 . S
C581 C580 1.400 . S
C581 C582 1.398 . S
C582 H570 0.950 . S
C582 C581 1.398 . S
C582 C583 1.391 . S
C583 H571 0.950 . S
C583 C579 1.393 . S
C583 C582 1.391 . S
H584 C592 0.950 . S
H585 C597 0.950 . S
H586 C594 0.950 . S
H587 C596 0.950 . S
H588 C598 0.950 . S
H589 C600 0.950 . S
H590 C602 0.950 . S
H591 C603 0.950 . S
C592 H584 0.950 . S
C592 C593 1.386 . S
C592 C594 1.391 . S
C593 C592 1.386 . S
C593 C597 1.393 . S
C594 H586 0.950 . S
C594 C592 1.391 . S
C594 C595 1.400 . S
C595 C594 1.400 . S
C595 C596 1.398 . S
C595 C601 1.491 . S
C596 H587 0.950 . S
C596 C595 1.398 . S
C596 C597 1.391 . S
C597 H585 0.950 . S
C597 C593 1.393 . S
C597 C596 1.391 . S
C598 H588 0.950 . S
C598 C599 1.386 . S
C598 C600 1.391 . S
C599 C598 1.386 . S
C599 C603 1.393 . S
C600 H589 0.950 . S
C600 C598 1.391 . S
C600 C601 1.400 . S
C601 C595 1.491 . S
C601 C600 1.400 . S
C601 C602 1.398 . S
C602 H590 0.950 . S
C602 C601 1.398 . S
C602 C603 1.391 . S
C603 H591 0.950 . S
C603 C599 1.393 . S
C603 C602 1.391 . S
H604 C612 0.950 . S
H605 C617 0.950 1_455 S
H606 C614 0.950 . S
H607 C616 0.950 1_455 S
H608 C618 0.950 . S
H609 C620 0.950 . S
H610 C622 0.950 . S
H611 C623 0.950 . S
C612 H604 0.950 . S
C612 C613 1.386 . S
C612 C614 1.391 . S
C613 C612 1.386 . S
C613 C617 1.393 . S
C614 H606 0.950 . S
C614 C612 1.391 . S
C614 C615 1.400 . S
C615 C614 1.400 . S
C615 C616 1.398 . S
C615 C621 1.491 . S
C616 H607 0.950 1_655 S
C616 C615 1.398 . S
C616 C617 1.391 . S
C617 H605 0.950 1_655 S
C617 C613 1.393 . S
C617 C616 1.391 . S
C618 H608 0.950 . S
C618 C619 1.386 1_455 S
C618 C620 1.391 . S
C619 C618 1.386 1_655 S
C619 C623 1.393 . S
C620 H609 0.950 . S
C620 C618 1.391 . S
C620 C621 1.400 1_455 S
C621 C615 1.491 . S
C621 C620 1.400 1_655 S
C621 C622 1.398 . S
C622 H610 0.950 . S
C622 C621 1.398 . S
C622 C623 1.391 . S
C623 H611 0.950 . S
C623 C619 1.393 . S
C623 C622 1.391 . S
H624 C632 0.950 . S
H625 C637 0.950 . S
H626 C634 0.950 . S
H627 C636 0.950 . S
H628 C638 0.950 . S
H629 C640 0.950 . S
H630 C642 0.950 . S
H631 C643 0.950 . S
C632 H624 0.950 . S
C632 C633 1.386 . S
C632 C634 1.391 . S
C633 C632 1.386 . S
C633 C637 1.393 . S
C634 H626 0.950 . S
C634 C632 1.391 . S
C634 C635 1.400 . S
C635 C634 1.400 . S
C635 C636 1.398 . S
C635 C641 1.491 . S
C636 H627 0.950 . S
C636 C635 1.398 . S
C636 C637 1.391 . S
C637 H625 0.950 . S
C637 C633 1.393 . S
C637 C636 1.391 . S
C638 H628 0.950 . S
C638 C639 1.386 . S
C638 C640 1.391 . S
C639 C638 1.386 . S
C639 C643 1.393 . S
C640 H629 0.950 . S
C640 C638 1.391 . S
C640 C641 1.400 . S
C641 C635 1.491 . S
C641 C640 1.400 . S
C641 C642 1.398 . S
C642 H630 0.950 . S
C642 C641 1.398 . S
C642 C643 1.391 . S
C643 H631 0.950 . S
C643 C639 1.393 . S
C643 C642 1.391 . S
H644 C652 0.950 . S
H645 C657 0.950 . S
H646 C654 0.950 . S
H647 C656 0.950 . S
H648 C658 0.950 . S
H649 C660 0.950 . S
H650 C662 0.950 . S
H651 C663 0.950 . S
C652 H644 0.950 . S
C652 C653 1.386 . S
C652 C654 1.391 . S
C653 C652 1.386 . S
C653 C657 1.393 . S
C654 H646 0.950 . S
C654 C652 1.391 . S
C654 C655 1.400 . S
C655 C654 1.400 . S
C655 C656 1.398 . S
C655 C661 1.491 . S
C656 H647 0.950 . S
C656 C655 1.398 . S
C656 C657 1.391 . S
C657 H645 0.950 . S
C657 C653 1.393 . S
C657 C656 1.391 . S
C658 H648 0.950 . S
C658 C659 1.386 . S
C658 C660 1.391 . S
C659 C658 1.386 . S
C659 C663 1.393 . S
C660 H649 0.950 . S
C660 C658 1.391 . S
C660 C661 1.400 . S
C661 C655 1.491 . S
C661 C660 1.400 . S
C661 C662 1.398 . S
C662 H650 0.950 . S
C662 C661 1.398 . S
C662 C663 1.391 . S
C663 H651 0.950 . S
C663 C659 1.393 . S
C663 C662 1.391 . S
H664 C672 0.950 . S
H665 C677 0.950 . S
H666 C674 0.950 . S
H667 C676 0.950 . S
H668 C678 0.950 . S
H669 C680 0.950 . S
H670 C682 0.950 . S
H671 C683 0.950 1_554 S
C672 H664 0.950 . S
C672 C673 1.386 . S
C672 C674 1.391 . S
C673 C672 1.386 . S
C673 C677 1.393 . S
C674 H666 0.950 . S
C674 C672 1.391 . S
C674 C675 1.400 . S
C675 C674 1.400 . S
C675 C676 1.398 . S
C675 C681 1.491 . S
C676 H667 0.950 . S
C676 C675 1.398 . S
C676 C677 1.391 . S
C677 H665 0.950 . S
C677 C673 1.393 . S
C677 C676 1.391 . S
C678 H668 0.950 . S
C678 C679 1.386 . S
C678 C680 1.391 . S
C679 C678 1.386 . S
C679 C683 1.393 . S
C680 H669 0.950 . S
C680 C678 1.391 . S
C680 C681 1.400 . S
C681 C675 1.491 . S
C681 C680 1.400 . S
C681 C682 1.398 . S
C682 H670 0.950 . S
C682 C681 1.398 . S
C682 C683 1.391 . S
C683 H671 0.950 1_556 S
C683 C679 1.393 . S
C683 C682 1.391 . S
H684 C692 0.950 . S
H685 C697 0.950 . S
H686 C694 0.950 . S
H687 C696 0.950 . S
H688 C698 0.950 . S
H689 C700 0.950 . S
H690 C702 0.950 . S
H691 C703 0.950 . S
C692 H684 0.950 . S
C692 C693 1.386 . S
C692 C694 1.391 . S
C693 C692 1.386 . S
C693 C697 1.393 . S
C694 H686 0.950 . S
C694 C692 1.391 . S
C694 C695 1.400 . S
C695 C694 1.400 . S
C695 C696 1.398 . S
C695 C701 1.491 . S
C696 H687 0.950 . S
C696 C695 1.398 . S
C696 C697 1.391 . S
C697 H685 0.950 . S
C697 C693 1.393 . S
C697 C696 1.391 . S
C698 H688 0.950 . S
C698 C699 1.386 . S
C698 C700 1.391 . S
C699 C698 1.386 . S
C699 C703 1.393 . S
C700 H689 0.950 . S
C700 C698 1.391 . S
C700 C701 1.400 . S
C701 C695 1.491 . S
C701 C700 1.400 . S
C701 C702 1.398 . S
C702 H690 0.950 . S
C702 C701 1.398 . S
C702 C703 1.391 . S
C703 H691 0.950 . S
C703 C699 1.393 . S
C703 C702 1.391 . S
H704 C712 0.950 . S
H705 C717 0.950 . S
H706 C714 0.950 . S
H707 C716 0.950 . S
H708 C718 0.950 . S
H709 C720 0.950 . S
H710 C722 0.950 . S
H711 C723 0.950 . S
C712 H704 0.950 . S
C712 C713 1.386 . S
C712 C714 1.391 . S
C713 C712 1.386 . S
C713 C717 1.393 . S
C714 H706 0.950 . S
C714 C712 1.391 . S
C714 C715 1.400 . S
C715 C714 1.400 . S
C715 C716 1.398 . S
C715 C721 1.491 . S
C716 H707 0.950 . S
C716 C715 1.398 . S
C716 C717 1.391 . S
C717 H705 0.950 . S
C717 C713 1.393 . S
C717 C716 1.391 . S
C718 H708 0.950 . S
C718 C719 1.386 . S
C718 C720 1.391 . S
C719 C718 1.386 . S
C719 C723 1.393 . S
C720 H709 0.950 . S
C720 C718 1.391 . S
C720 C721 1.400 . S
C721 C715 1.491 . S
C721 C720 1.400 . S
C721 C722 1.398 . S
C722 H710 0.950 . S
C722 C721 1.398 . S
C722 C723 1.391 . S
C723 H711 0.950 . S
C723 C719 1.393 . S
C723 C722 1.391 . S
H724 C732 0.950 . S
H725 C737 0.950 . S
H726 C734 0.950 . S
H727 C736 0.950 . S
H728 C738 0.950 . S
H729 C740 0.950 . S
H730 C742 0.950 . S
H731 C743 0.950 . S
C732 H724 0.950 . S
C732 C733 1.386 . S
C732 C734 1.391 . S
C733 C732 1.386 . S
C733 C737 1.393 . S
C734 H726 0.950 . S
C734 C732 1.391 . S
C734 C735 1.400 . S
C735 C734 1.400 . S
C735 C736 1.398 . S
C735 C741 1.491 . S
C736 H727 0.950 . S
C736 C735 1.398 . S
C736 C737 1.391 . S
C737 H725 0.950 . S
C737 C733 1.393 . S
C737 C736 1.391 . S
C738 H728 0.950 . S
C738 C739 1.386 . S
C738 C740 1.391 . S
C739 C738 1.386 . S
C739 C743 1.393 . S
C740 H729 0.950 . S
C740 C738 1.391 . S
C740 C741 1.400 . S
C741 C735 1.491 . S
C741 C740 1.400 . S
C741 C742 1.398 . S
C742 H730 0.950 . S
C742 C741 1.398 . S
C742 C743 1.391 . S
C743 H731 0.950 . S
C743 C739 1.393 . S
C743 C742 1.391 . S
C273 C9 1.595 . S
C279 C119 1.629 . S
C293 C21 1.019 . S
C299 C159 1.038 . S
C319 C193 2.028 . S
C313 C30 2.009 . S
C333 C43 2.368 . S
C339 C234 2.397 . S
C359 C154 1.364 . S
C353 C4 1.202 . S
C379 C114 2.489 . S
C373 C22 2.391 . S
C399 C242 1.323 1_556 S
C393 C34 1.312 . S
C419 C203 1.622 . S
C413 C48 1.668 . S
C433 C8 1.394 . S
C439 C239 1.421 . S
C459 C162 1.925 . S
C453 C35 1.954 . S
C473 C47 2.556 . S
C479 C122 2.439 . S
C493 C17 1.417 . S
C499 C190 1.490 . S
C519 C110 1.141 . S
C513 C60 1.127 . S
C533 C74 1.098 . S
C539 C150 1.118 . S
C553 C82 1.654 . S
C559 C202 1.710 . S
C573 C100 3.001 . S
C579 C243 2.925 1_556 S
C593 C61 1.693 . S
C599 C163 1.753 . S
C619 C123 1.922 . S
C613 C73 1.824 . S
C639 C233 1.752 . S
C633 C87 1.793 . S
C659 C194 1.588 . S
C653 C95 1.653 . S
C673 C56 1.210 . S
C679 C230 1.202 . S
C699 C153 2.153 . S
C693 C86 2.191 . S
C719 C113 2.427 . S
C713 C99 2.493 . S
C733 C69 1.165 . S
C739 C199 1.338 . S
