# Generated by pormake.
# Topology zzz, (3,6)-cn, num edge types: 1
# Building blocks:
#     Node 0, Type 0, BuildingBlock: BETDAH_clean_linker_0, # of connection points: 3
#     Node 1, Type 0, BuildingBlock: BETDAH_clean_linker_0, # of connection points: 3
#     Node 2, Type 0, BuildingBlock: BETDAH_clean_linker_0, # of connection points: 3
#     Node 3, Type 0, BuildingBlock: BETDAH_clean_linker_0, # of connection points: 3
#     Node 4, Type 0, BuildingBlock: BETDAH_clean_linker_0, # of connection points: 3
#     Node 5, Type 0, BuildingBlock: BETDAH_clean_linker_0, # of connection points: 3
#     Node 6, Type 0, BuildingBlock: BETDAH_clean_linker_0, # of connection points: 3
#     Node 7, Type 0, BuildingBlock: BETDAH_clean_linker_0, # of connection points: 3
#     Node 8, Type 1, BuildingBlock: BETFEN_clean_sbu_0, # of connection points: 6
#     Node 9, Type 1, BuildingBlock: BETFEN_clean_sbu_0, # of connection points: 6
#     Node 10, Type 1, BuildingBlock: BETFEN_clean_sbu_0, # of connection points: 6
#     Node 11, Type 1, BuildingBlock: BETFEN_clean_sbu_0, # of connection points: 6
#     Edge 12, Type (0, 1), BuildingBlock: MIFKUJ_clean_linker_0, # of connection points: 2
#     Edge 13, Type (0, 1), BuildingBlock: MIFKUJ_clean_linker_0, # of connection points: 2
#     Edge 14, Type (0, 1), BuildingBlock: MIFKUJ_clean_linker_0, # of connection points: 2
#     Edge 15, Type (0, 1), BuildingBlock: MIFKUJ_clean_linker_0, # of connection points: 2
#     Edge 16, Type (0, 1), BuildingBlock: MIFKUJ_clean_linker_0, # of connection points: 2
#     Edge 17, Type (0, 1), BuildingBlock: MIFKUJ_clean_linker_0, # of connection points: 2
#     Edge 18, Type (0, 1), BuildingBlock: MIFKUJ_clean_linker_0, # of connection points: 2
#     Edge 19, Type (0, 1), BuildingBlock: MIFKUJ_clean_linker_0, # of connection points: 2
#     Edge 20, Type (0, 1), BuildingBlock: MIFKUJ_clean_linker_0, # of connection points: 2
#     Edge 21, Type (0, 1), BuildingBlock: MIFKUJ_clean_linker_0, # of connection points: 2
#     Edge 22, Type (0, 1), BuildingBlock: MIFKUJ_clean_linker_0, # of connection points: 2
#     Edge 23, Type (0, 1), BuildingBlock: MIFKUJ_clean_linker_0, # of connection points: 2
#     Edge 24, Type (0, 1), BuildingBlock: MIFKUJ_clean_linker_0, # of connection points: 2
#     Edge 25, Type (0, 1), BuildingBlock: MIFKUJ_clean_linker_0, # of connection points: 2
#     Edge 26, Type (0, 1), BuildingBlock: MIFKUJ_clean_linker_0, # of connection points: 2
#     Edge 27, Type (0, 1), BuildingBlock: MIFKUJ_clean_linker_0, # of connection points: 2
#     Edge 28, Type (0, 1), BuildingBlock: MIFKUJ_clean_linker_0, # of connection points: 2
#     Edge 29, Type (0, 1), BuildingBlock: MIFKUJ_clean_linker_0, # of connection points: 2
#     Edge 30, Type (0, 1), BuildingBlock: MIFKUJ_clean_linker_0, # of connection points: 2
#     Edge 31, Type (0, 1), BuildingBlock: MIFKUJ_clean_linker_0, # of connection points: 2
#     Edge 32, Type (0, 1), BuildingBlock: MIFKUJ_clean_linker_0, # of connection points: 2
#     Edge 33, Type (0, 1), BuildingBlock: MIFKUJ_clean_linker_0, # of connection points: 2
#     Edge 34, Type (0, 1), BuildingBlock: MIFKUJ_clean_linker_0, # of connection points: 2
#     Edge 35, Type (0, 1), BuildingBlock: MIFKUJ_clean_linker_0, # of connection points: 2
# Relax obj value: 0.232
# Max RMSD: 0.176
# Mean RMSD: 0.160
data_MOF--net-zzz--node1-BETFEN_clean_sbu_0--node2-BETDAH_clean_linker_0--edge1-MIFKUJ_clean_linker_0
_symmetry_space_group_name_H-M    P1
_symmetry_Int_Tables_number       1
_symmetry_cell_setting            triclinic
loop_
_symmetry_equiv_pos_as_xyz
'x, y, z'
_cell_length_a     68.329722
_cell_length_b     68.245953
_cell_length_c     17.366535
_cell_angle_alpha  89.992612
_cell_angle_beta   90.0686
_cell_angle_gamma 90.020862
loop_
_atom_site_label
_atom_site_type_symbol
_atom_site_fract_x
_atom_site_fract_y
_atom_site_fract_z
_atom_type_partial_charge
H0 H 0.7875 0.50992 0.27992 0.0
H1 H 0.72774 0.51421 0.20754 0.0
H2 H 0.74304 0.5233 0.44686 0.0
C3 C 0.77227 0.51265 0.29413 0.0
C4 C 0.76707 0.51644 0.37052 0.0
C5 C 0.75821 0.51194 0.23577 0.0
C6 C 0.73849 0.5151 0.25326 0.0
C7 C 0.73284 0.51949 0.32946 0.0
C8 C 0.74728 0.52023 0.388 0.0
N9 N 0.71286 0.52298 0.34881 0.0
C10 C 0.69741 0.52241 0.29596 0.0
H11 H 0.03266 0.7887 0.30834 0.0
H12 H 0.01631 0.73223 0.22422 0.0
H13 H 0.99464 0.75228 0.44434 0.0
C14 C 0.02523 0.77491 0.31811 0.0
C15 C 0.01392 0.77232 0.38461 0.0
C16 C 0.02612 0.76058 0.26081 0.0
C17 C 0.01575 0.74307 0.26969 0.0
C18 C 1.00456 0.73982 0.33674 0.0
C19 C 1.00351 0.75462 0.39351 0.0
N20 N 0.99402 0.72204 0.34796 0.0
C21 C 0.99455 0.70631 0.29671 0.0
H22 H 0.73076 0.99242 0.27963 0.0
H23 H 0.79123 0.99971 0.22061 0.0
H24 H 0.76856 0.02474 0.43097 0.0
C25 C 0.74526 0.9977 0.29428 0.0
C26 C 0.74764 1.00879 0.36145 0.0
C27 C 0.76087 0.99432 0.24343 0.0
C28 C 0.77935 1.00199 0.26083 0.0
C29 C 0.78235 0.01283 0.32895 0.0
C30 C 0.76644 0.01601 0.37954 0.0
N31 N 0.80095 0.02126 0.34622 0.0
C32 C 0.81683 0.02095 0.29556 0.0
H33 H 0.52994 0.73534 0.29511 0.0
H34 H 0.52276 0.79525 0.22883 0.0
H35 H 0.52667 0.77977 0.47001 0.0
C36 C 0.52907 0.75068 0.31136 0.0
C37 C 0.52887 0.75567 0.38937 0.0
C38 C 0.52689 0.76486 0.25388 0.0
C39 C 0.52484 0.78455 0.27401 0.0
C40 C 0.52527 0.79024 0.35199 0.0
C41 C 0.52684 0.77561 0.40983 0.0
N42 N 0.52395 0.81041 0.37325 0.0
C43 C 0.52372 0.8259 0.32031 0.0
H44 H 0.22498 0.52828 0.1024 0.0
H45 H 0.28331 0.51674 0.18117 0.0
H46 H 0.2648 0.49669 0.95684 0.0
C47 C 0.2395 0.52249 0.09157 0.0
C48 C 0.24315 0.51274 0.02209 0.0
C49 C 0.25384 0.52391 0.1491 0.0
C50 C 0.27234 0.51565 0.13649 0.0
C51 C 0.27653 0.50599 0.06669 0.0
C52 C 0.26174 0.50433 0.01018 0.0
N53 N 0.29532 0.49773 0.05201 0.0
C54 C 0.31139 0.49936 0.10142 0.0
H55 H 1.00747 0.22863 0.12632 0.0
H56 H 0.01316 0.28904 0.19023 0.0
H57 H 0.02081 0.27146 0.95281 0.0
C58 C 1.01051 0.24371 0.11024 0.0
C59 C 0.01401 0.24825 0.033 0.0
C60 C 1.01037 0.25828 0.16688 0.0
C61 C 0.01368 0.27783 0.14615 0.0
C62 C 0.0177 0.28271 0.06871 0.0
C63 C 0.01799 0.26778 0.01247 0.0
N64 N 0.02119 0.30242 0.04559 0.0
C65 C 0.02046 0.31838 0.0956 0.0
H66 H 0.29518 0.01653 0.15057 0.0
H67 H 0.23414 0.01301 0.20449 0.0
H68 H 0.25255 0.02761 0.97344 0.0
C69 C 0.28005 0.01812 0.13256 0.0
C70 C 0.27586 0.02279 0.05571 0.0
C71 C 0.26513 0.01461 0.18606 0.0
C72 C 0.24556 0.01585 0.16277 0.0
C73 C 0.24086 0.02081 0.0861 0.0
C74 C 0.2561 0.02394 0.03252 0.0
N75 N 0.22103 0.02277 0.06164 0.0
C76 C 0.20503 0.0218 0.11146 0.0
H77 H 0.5151 0.30328 0.14602 0.0
H78 H 0.51575 0.24294 0.21387 0.0
H79 H 0.49186 0.25957 0.99267 0.0
C80 C 0.5114 0.28814 0.13357 0.0
C81 C 0.50268 0.28341 0.06293 0.0
C82 C 0.51605 0.27369 0.1878 0.0
C83 C 0.512 0.254 0.17168 0.0
C84 C 0.50302 0.24878 0.10143 0.0
C85 C 0.49869 0.26355 0.04679 0.0
N86 N 0.49808 0.22895 0.08431 0.0
C87 C 0.49971 0.2134 0.13631 0.0
Pr88 Pr 0.02009 1.0057 0.77571 0.0
Pr89 Pr 1.00107 0.01822 0.61737 0.0
C90 C 0.0304 0.98622 0.90327 0.0
C91 C 0.03763 0.96592 0.91196 0.0
C92 C 0.05481 0.95965 0.87459 0.0
C93 C 0.06015 0.93988 0.87518 0.0
C94 C 0.0483 0.92599 0.91226 0.0
C95 C 0.03133 0.93229 0.95063 0.0
C96 C 0.02611 0.95207 0.95078 0.0
C97 C 0.04641 0.01372 0.65691 0.0
C98 C 1.00537 0.97085 0.65006 0.0
C99 C 0.99622 0.03364 0.47689 0.0
C100 C 0.98654 0.05166 0.45058 0.0
C101 C 0.96897 0.05795 0.48457 0.0
C102 C 0.96187 0.0768 0.47056 0.0
C103 C 0.97232 0.08978 0.4231 0.0
C104 C 0.98937 0.08303 0.38607 0.0
C105 C 0.99637 0.06413 0.39962 0.0
C106 C 0.97182 0.01883 0.73205 0.0
C107 C 0.01279 0.05192 0.74906 0.0
O108 O 0.01217 0.98785 0.88094 0.0
O109 O 0.04208 0.99875 0.86931 0.0
O110 O 0.0306 1.00427 0.64952 0.0
O111 O 0.04923 0.01903 0.72794 0.0
O112 O 1.00137 0.98431 0.59762 0.0
O113 O 1.01163 0.97549 0.71978 0.0
O114 O 0.01204 0.03651 0.51819 0.0
O115 O 0.98489 0.01972 0.50393 0.0
O116 O 0.98956 0.01444 0.74019 0.0
O117 O 0.96842 0.02294 0.66034 0.0
O118 O 0.01239 0.03826 0.80298 0.0
O119 O 0.01244 0.04751 0.67483 0.0
H120 H 0.0639 0.9699 0.8432 0.0
H121 H 0.07327 0.93536 0.84505 0.0
H122 H 0.02211 0.9219 0.98071 0.0
H123 H 0.01276 0.95649 0.97958 0.0
H124 H 0.96119 0.04865 0.52478 0.0
H125 H 0.94857 0.08143 0.49911 0.0
H126 H 0.99801 0.0927 0.35017 0.0
H127 H 1.01008 0.05964 0.37372 0.0
Pr128 Pr 0.51725 0.02711 0.79687 0.0
Pr129 Pr 0.50569 1.00572 0.62722 0.0
C130 C 0.53366 0.03116 0.93536 0.0
C131 C 0.55209 0.02225 0.96069 0.0
C132 C 0.56531 0.03316 0.00497 0.0
C133 C 0.58472 0.02699 0.01211 0.0
C134 C 0.59118 1.00987 0.97465 0.0
C135 C 0.57756 0.99839 0.93425 0.0
C136 C 0.55821 1.00457 0.92704 0.0
C137 C 0.50936 0.05484 0.68117 0.0
C138 C 0.55205 0.01554 0.66343 0.0
C139 C 0.48817 0.99892 0.49198 0.0
C140 C 0.46742 0.99418 0.47811 0.0
C141 C 0.46217 0.97802 0.4325 0.0
C142 C 0.44262 0.97185 0.42908 0.0
C143 C 0.42822 0.98159 0.4723 0.0
C144 C 0.43342 0.99809 0.5157 0.0
C145 C 0.45279 1.00436 0.51847 0.0
C146 C 0.51325 0.97827 0.7456 0.0
C147 C 0.47047 0.01744 0.76 0.0
O148 O 0.51902 0.01909 0.92312 0.0
O149 O 0.53585 0.04419 0.88068 0.0
O150 O 0.50943 0.03642 0.67583 0.0
O151 O 0.5129 0.05969 0.75239 0.0
O152 O 0.53886 0.01265 0.60834 0.0
O153 O 0.54726 0.01836 0.73691 0.0
O154 O 0.49176 0.01664 0.51737 0.0
O155 O 0.4982 0.98539 0.52816 0.0
O156 O 0.51334 0.99667 0.74873 0.0
O157 O 0.50949 0.9731 0.67501 0.0
O158 O 0.48337 0.0235 0.81216 0.0
O159 O 0.47548 1.01114 0.69026 0.0
H160 H 0.56094 0.04704 0.02989 0.0
H161 H 0.59492 0.03625 0.04308 0.0
H162 H 0.58203 0.98501 0.90573 0.0
H163 H 0.54837 0.9961 0.89116 0.0
H164 H 0.47324 0.96987 0.40145 0.0
H165 H 0.43885 0.95917 0.39457 0.0
H166 H 0.42247 1.00611 0.54798 0.0
H167 H 0.45633 0.01686 0.55423 0.0
Pr168 Pr 0.49661 0.52055 0.76169 0.0
Pr169 Pr 0.51967 0.50902 0.59746 0.0
C170 C 0.48929 0.53082 0.90815 0.0
C171 C 0.49366 0.54809 0.95497 0.0
C172 C 0.47958 0.55495 0.00696 0.0
C173 C 0.4815 0.57355 0.03945 0.0
C174 C 0.49756 0.58545 0.02033 0.0
C175 C 0.51234 0.57794 0.97249 0.0
C176 C 0.51035 0.55941 0.93966 0.0
C177 C 0.46998 0.51523 0.63972 0.0
C178 C 0.51062 0.55608 0.6384 0.0
C179 C 0.5286 0.49561 0.45696 0.0
C180 C 0.5403 0.4787 0.43173 0.0
C181 C 0.55809 0.47406 0.4681 0.0
C182 C 0.567 0.45592 0.45533 0.0
C183 C 0.55812 0.44198 0.40691 0.0
C184 C 0.54086 0.44719 0.36744 0.0
C185 C 0.5321 0.46539 0.37954 0.0
C186 C 0.54597 0.51353 0.72153 0.0
C187 C 0.5051 0.4732 0.7199 0.0
O188 O 0.50414 0.5198 0.88844 0.0
O189 O 0.47698 0.53395 0.85172 0.0
O190 O 0.48837 0.5138 0.63749 0.0
O191 O 0.46464 0.51917 0.70985 0.0
O192 O 0.51412 0.54287 0.58387 0.0
O193 O 0.50604 0.55127 0.7105 0.0
O194 O 0.51233 0.49101 0.49252 0.0
O195 O 0.53805 0.51021 0.48925 0.0
O196 O 0.52765 0.5152 0.72154 0.0
O197 O 0.55167 0.50929 0.65211 0.0
O198 O 0.49853 0.4863 0.77011 0.0
O199 O 0.51293 0.47807 0.65252 0.0
H200 H 0.46656 0.54641 0.01889 0.0
H201 H 0.46998 0.57902 0.07647 0.0
H202 H 0.52473 0.58692 0.95599 0.0
H203 H 0.52126 0.55445 0.89882 0.0
H204 H 0.56465 0.48403 0.50924 0.0
H205 H 0.58044 0.45255 0.48564 0.0
H206 H 0.53337 0.43679 0.3307 0.0
H207 H 0.51827 0.46859 0.35167 0.0
Pr208 Pr 1.00182 0.50322 0.75387 0.0
Pr209 Pr 1.01152 0.52582 0.61898 0.0
C210 C 0.98305 0.48812 0.87562 0.0
C211 C 0.96219 0.48258 0.88281 0.0
C212 C 0.9548 0.46562 0.84671 0.0
C213 C 0.93463 0.46224 0.84308 0.0
C214 C 0.92152 0.47581 0.87484 0.0
C215 C 0.9289 0.49233 0.9134 0.0
C216 C 0.94901 0.49562 0.91779 0.0
C217 C 1.0114 0.47933 0.62913 0.0
C218 C 0.96551 0.51801 0.63608 0.0
C219 C 0.03024 0.54161 0.49817 0.0
C220 C 0.05146 0.54459 0.48755 0.0
C221 C 0.05893 0.56357 0.47697 0.0
C222 C 0.07912 0.56696 0.48046 0.0
C223 C 0.0921 0.55143 0.49508 0.0
C224 C 0.08463 0.53235 0.50244 0.0
C225 C 0.06455 0.52896 0.49882 0.0
C226 C 1.00224 0.54928 0.74564 0.0
C227 C 0.04762 0.51056 0.73517 0.0
O228 O 0.98648 0.50689 0.8682 0.0
O229 O 0.99382 0.47743 0.82975 0.0
O230 O 1.00026 0.49411 0.62518 0.0
O231 O 0.01814 0.47674 0.6983 0.0
O232 O 0.97886 0.5219 0.58369 0.0
O233 O 0.9708 0.51297 0.70649 0.0
O234 O 0.02405 0.52347 0.49871 0.0
O235 O 0.02229 0.55223 0.55224 0.0
O236 O 0.0135 0.53461 0.74757 0.0
O237 O 0.99492 0.55192 0.67741 0.0
O238 O 0.03429 0.50839 0.7891 0.0
O239 O 0.04225 0.5142 0.66352 0.0
H240 H 0.96452 0.45527 0.81905 0.0
H241 H 0.92925 0.44933 0.81347 0.0
H242 H 0.91908 0.5028 0.93994 0.0
H243 H 0.95422 0.50875 0.94628 0.0
H244 H 0.04911 0.57586 0.46891 0.0
H245 H 0.08451 0.5818 0.47418 0.0
H246 H 0.09434 0.52002 0.51166 0.0
H247 H 0.05929 0.51415 0.50752 0.0
H248 H 0.20337 0.03655 0.25535 0.0
H249 H 0.1755 0.03536 0.34434 0.0
H250 H 0.14167 1.00409 0.17402 0.0
H251 H 0.16954 1.00559 0.08462 0.0
H252 H 0.11949 0.03151 0.24298 0.0
H253 H 0.16214 0.98018 0.32756 0.0
H254 H 0.19352 0.9657 0.36866 0.0
H255 H 0.19534 1.00444 0.56334 0.0
H256 H 0.16409 0.01936 0.52278 0.0
H257 H 0.04524 0.99993 0.50844 0.0
H258 H 0.07142 1.00131 0.41187 0.0
H259 H 0.10804 0.03274 0.57232 0.0
H260 H 0.0821 0.03118 0.66893 0.0
H261 H 0.12824 1.00408 0.50529 0.0
H262 H 0.08536 0.05552 0.41944 0.0
H263 H 0.05379 0.06955 0.37821 0.0
H264 H 0.05212 0.03014 0.18563 0.0
H265 H 0.08352 0.01561 0.2265 0.0
C266 C 0.18995 0.02945 0.23717 0.0
C267 C 0.18851 0.02108 0.16369 0.0
C268 C 0.17405 0.0287 0.288 0.0
C269 C 0.15648 0.01941 0.26642 0.0
C270 C 0.15502 1.01131 0.19217 0.0
C271 C 0.17094 1.01209 0.14129 0.0
C272 C 0.13979 0.01798 0.32168 0.0
C273 C 0.12134 0.02527 0.29996 0.0
C274 C 0.14218 1.01011 0.39662 0.0
C275 C 0.16086 1.00101 0.42172 0.0
C276 C 0.1693 0.9857 0.37886 0.0
C277 C 0.18705 0.9774 0.40209 0.0
C278 C 0.19644 0.98418 0.46846 0.0
C279 C 0.18806 0.99922 0.51189 0.0
C280 C 0.17032 1.00759 0.48885 0.0
C281 C 0.05884 1.00723 0.52283 0.0
C282 C 0.06162 0.01542 0.59633 0.0
C283 C 0.07379 1.00806 0.46753 0.0
C284 C 0.09174 0.01722 0.48451 0.0
C285 C 0.09439 0.02554 0.55775 0.0
C286 C 0.0795 0.02471 0.61289 0.0
C287 C 0.10798 0.01782 0.42702 0.0
C288 C 0.12636 1.01031 0.44829 0.0
C289 C 0.10547 0.02544 0.35172 0.0
C290 C 0.08671 0.03434 0.3265 0.0
C291 C 0.0782 0.04974 0.36862 0.0
C292 C 0.06033 0.05779 0.34529 0.0
C293 C 0.05093 0.05071 0.27945 0.0
C294 C 0.0594 0.03559 0.23669 0.0
C295 C 0.07724 0.02744 0.2599 0.0
H296 H 0.03711 0.05697 0.26144 0.0
H297 H 0.2102 0.97775 0.48631 0.0
H298 H 0.50034 0.17523 0.09583 0.0
H299 H 0.50152 0.14672 0.18213 0.0
H300 H 0.50222 0.1854 0.37869 0.0
H301 H 0.50126 0.21387 0.29209 0.0
H302 H 0.52823 0.15668 0.39752 0.0
H303 H 0.46048 0.16015 0.32293 0.0
H304 H 0.43274 0.16124 0.23206 0.0
H305 H 0.44952 0.10531 0.14022 0.0
H306 H 0.47753 0.104 0.22991 0.0
H307 H 0.50201 0.09353 0.69814 0.0
H308 H 0.49972 0.11865 0.59855 0.0
H309 H 0.50726 0.07459 0.42322 0.0
H310 H 0.50999 0.04927 0.52367 0.0
H311 H 0.47818 0.10402 0.38643 0.0
H312 H 0.54429 0.09939 0.47042 0.0
H313 H 0.57043 0.09768 0.56768 0.0
H314 H 0.5569 0.1561 0.64219 0.0
H315 H 0.52996 0.15782 0.54779 0.0
C316 C 0.50078 0.17756 0.15752 0.0
C317 C 0.50073 0.19664 0.18762 0.0
C318 C 0.50134 0.16129 0.20683 0.0
C319 C 0.50174 0.16382 0.28724 0.0
C320 C 0.50191 0.18301 0.31704 0.0
C321 C 0.50134 0.19927 0.26766 0.0
C322 C 0.50213 0.14656 0.34037 0.0
C323 C 0.51715 0.1453 0.39548 0.0
C324 C 0.48803 0.13131 0.33659 0.0
C325 C 0.47123 0.13209 0.28252 0.0
C326 C 0.45836 0.14816 0.28289 0.0
C327 C 0.44257 0.1488 0.2317 0.0
C328 C 0.43941 0.13338 0.18023 0.0
C329 C 0.45201 0.11726 0.18001 0.0
C330 C 0.46784 0.11656 0.23104 0.0
C331 C 0.50296 0.08909 0.63837 0.0
C332 C 0.50599 0.06934 0.61876 0.0
C333 C 0.50165 0.1035 0.58145 0.0
C334 C 0.50342 0.09857 0.50333 0.0
C335 C 0.50573 0.07874 0.48311 0.0
C336 C 0.50716 0.06425 0.54046 0.0
C337 C 0.50406 0.1144 0.44409 0.0
C338 C 0.48931 0.11536 0.38793 0.0
C339 C 0.51839 0.1294 0.44686 0.0
C340 C 0.53494 0.12866 0.50239 0.0
C341 C 0.54674 0.11182 0.50799 0.0
C342 C 0.56172 0.11085 0.56264 0.0
C343 C 0.56541 0.1268 0.61086 0.0
C344 C 0.55404 0.14375 0.60475 0.0
C345 C 0.53884 0.1447 0.55086 0.0
H346 H 0.57708 0.12603 0.65297 0.0
H347 H 0.42717 0.1339 0.14067 0.0
H348 H 0.34797 0.4875 0.06611 0.0
H349 H 0.37737 0.48999 0.14722 0.0
H350 H 0.34295 0.5167 0.32702 0.0
H351 H 0.31371 0.51438 0.24569 0.0
H352 H 0.37655 0.53603 0.30861 0.0
H353 H 0.35781 0.46833 0.33575 0.0
H354 H 0.3497 0.43506 0.29043 0.0
H355 H 0.40655 0.42997 0.18719 0.0
H356 H 0.4149 0.46334 0.23107 0.0
H357 H 0.43108 0.52171 0.64529 0.0
H358 H 0.40706 0.51912 0.54214 0.0
H359 H 0.45239 0.50144 0.38431 0.0
H360 H 0.47683 0.50435 0.48836 0.0
H361 H 0.41674 0.47808 0.37783 0.0
H362 H 0.43639 0.54497 0.36303 0.0
H363 H 0.44431 0.57783 0.41311 0.0
H364 H 0.38548 0.58417 0.49608 0.0
H365 H 0.37728 0.55121 0.44755 0.0
C366 C 0.34676 0.49387 0.12306 0.0
C367 C 0.32865 0.50073 0.14987 0.0
C368 C 0.36352 0.49523 0.16947 0.0
C369 C 0.36241 0.5034 0.24371 0.0
C370 C 0.34424 0.51036 0.27006 0.0
C371 C 0.3275 0.50899 0.22365 0.0
C372 C 0.38011 0.5049 0.29394 0.0
C373 C 0.38522 0.52331 0.32407 0.0
C374 C 0.3919 0.48844 0.31248 0.0
C375 C 0.38688 0.46842 0.28585 0.0
C376 C 0.36851 0.46019 0.30277 0.0
C377 C 0.36389 0.4413 0.27747 0.0
C378 C 0.37758 0.43043 0.23573 0.0
C379 C 0.39594 0.43842 0.21938 0.0
C380 C 0.40063 0.45732 0.24448 0.0
C381 C 0.43604 0.51726 0.58871 0.0
C382 C 0.45591 0.51319 0.57505 0.0
C383 C 0.42225 0.51583 0.52967 0.0
C384 C 0.4279 0.51022 0.45533 0.0
C385 C 0.4477 0.50582 0.44131 0.0
C386 C 0.46165 0.50749 0.50065 0.0
C387 C 0.41285 0.50911 0.39336 0.0
C388 C 0.40822 0.49081 0.36125 0.0
C389 C 0.40144 0.52564 0.37309 0.0
C390 C 0.40626 0.54554 0.40211 0.0
C391 C 0.42518 0.5533 0.3925 0.0
C392 C 0.42972 0.57196 0.42051 0.0
C393 C 0.41542 0.58307 0.45787 0.0
C394 C 0.39655 0.57555 0.46716 0.0
C395 C 0.39194 0.55688 0.43932 0.0
H396 H 0.41896 0.59752 0.47951 0.0
H397 H 0.37397 0.4158 0.21623 0.0
H398 H 0.04425 0.32564 0.21626 0.0
H399 H 0.04294 0.35391 0.30362 0.0
H400 H 0.99339 0.37668 0.17786 0.0
H401 H 0.99496 0.3485 0.08986 0.0
H402 H 0.01906 0.40552 0.21141 0.0
H403 H 0.98753 0.35355 0.35118 0.0
H404 H 0.98496 0.32047 0.4075 0.0
H405 H 0.03511 0.33188 0.54979 0.0
H406 H 0.03817 0.36493 0.49345 0.0
H407 H 0.99018 0.47585 0.49553 0.0
H408 H 0.99177 0.44918 0.40112 0.0
H409 H 0.03858 0.42235 0.53069 0.0
H410 H 0.03657 0.44858 0.62606 0.0
H411 H 0.01351 0.39562 0.49346 0.0
H412 H 0.04567 0.44717 0.35413 0.0
H413 H 0.04907 0.48007 0.29695 0.0
H414 H 0.99885 0.46954 0.15387 0.0
H415 H 0.99498 0.43667 0.21105 0.0
C416 C 0.03312 0.33673 0.20754 0.0
C417 C 0.01966 0.33502 0.14699 0.0
C418 C 0.03232 0.35283 0.25746 0.0
C419 C 0.01792 0.36736 0.24793 0.0
C420 C 1.00461 0.36568 0.18646 0.0
C421 C 1.00545 0.34959 0.13649 0.0
C422 C 0.01664 0.38421 0.30235 0.0
C423 C 0.01759 0.40337 0.27303 0.0
C424 C 0.01514 0.38145 0.38294 0.0
C425 C 0.01318 0.36166 0.41757 0.0
C426 C 0.99809 0.34896 0.39411 0.0
C427 C 0.99653 0.33022 0.42608 0.0
C428 C 1.00989 0.32406 0.48206 0.0
C429 C 0.02479 0.33666 0.50636 0.0
C430 C 0.02643 0.35541 0.47447 0.0
C431 C 1.00091 0.46433 0.50336 0.0
C432 C 0.01322 0.46426 0.56823 0.0
C433 C 1.00186 0.44911 0.44923 0.0
C434 C 0.0154 0.43373 0.45824 0.0
C435 C 0.02795 0.43394 0.52239 0.0
C436 C 0.02684 0.44899 0.57679 0.0
C437 C 0.01613 0.41703 0.40277 0.0
C438 C 0.015 0.39784 0.43189 0.0
C439 C 0.01757 0.41979 0.32208 0.0
C440 C 0.01992 0.43953 0.28745 0.0
C441 C 0.03526 0.45192 0.3109 0.0
C442 C 0.03729 0.47056 0.27843 0.0
C443 C 0.02416 0.47691 0.22196 0.0
C444 C 1.009 0.46461 0.19771 0.0
C445 C 1.00688 0.44597 0.23009 0.0
H446 H 0.02575 0.49134 0.19687 0.0
H447 H 1.00867 0.30955 0.50671 0.0
H448 H 0.81529 0.02946 0.14402 0.0
H449 H 0.84251 0.02915 0.05186 0.0
H450 H 0.88197 1.01151 0.23328 0.0
H451 H 0.85471 1.01221 0.32567 0.0
H452 H 0.89891 0.0388 0.14405 0.0
H453 H 0.86474 0.97843 0.0993 0.0
H454 H 0.83587 0.95781 0.07259 0.0
H455 H 0.82709 0.98752 0.85736 0.0
H456 H 0.85575 1.00852 0.88329 0.0
H457 H 0.97632 1.01071 0.88622 0.0
H458 H 0.95087 1.01087 0.98611 0.0
H459 H 0.908 0.02792 0.81628 0.0
H460 H 0.93322 0.02747 0.71672 0.0
H461 H 0.89363 0.99982 0.90388 0.0
H462 H 0.92756 0.06038 0.94831 0.0
H463 H 0.95609 0.08145 0.97518 0.0
H464 H 0.96517 0.05197 0.19073 0.0
H465 H 0.93693 0.03042 0.16439 0.0
C466 C 0.82981 0.02556 0.16396 0.0
C467 C 0.833 0.0208 0.24149 0.0
C468 C 0.84534 0.0253 0.11134 0.0
C469 C 0.86434 0.02006 0.13517 0.0
C470 C 0.86751 0.01558 0.21328 0.0
C471 C 0.85195 0.01589 0.26595 0.0
C472 C 0.88079 0.01907 0.07848 0.0
C473 C 0.89787 0.03004 0.09208 0.0
C474 C 0.87939 1.00795 0.00979 0.0
C475 C 0.8623 0.99516 0.99357 0.0
C476 C 0.85658 0.98065 0.04649 0.0
C477 C 0.84026 0.96888 0.03147 0.0
C478 C 0.82963 0.97139 0.96342 0.0
C479 C 0.83533 0.98562 0.9101 0.0
C480 C 0.85162 0.99744 0.92489 0.0
C481 C 0.96146 0.01447 0.87039 0.0
C482 C 0.95676 0.01904 0.7936 0.0
C483 C 0.94692 0.01467 0.92756 0.0
C484 C 0.92745 0.01955 0.90908 0.0
C485 C 0.92284 0.02406 0.83224 0.0
C486 C 0.93731 0.02386 0.77531 0.0
C487 C 0.91171 0.01971 0.96891 0.0
C488 C 0.89474 1.00853 0.95596 0.0
C489 C 0.91325 0.03067 0.03803 0.0
C490 C 0.93026 0.04361 0.05391 0.0
C491 C 0.93575 0.05824 0.00108 0.0
C492 C 0.95186 0.07029 0.01626 0.0
C493 C 0.96246 0.06801 0.08451 0.0
C494 C 0.95697 0.05368 0.13778 0.0
C495 C 0.94092 0.04154 0.12273 0.0
H496 H 0.9749 0.07737 0.09622 0.0
H497 H 0.81699 0.96228 0.95192 0.0
H498 H 0.53379 0.82493 0.16937 0.0
H499 H 0.5332 0.85216 0.07753 0.0
H500 H 0.51333 0.891 0.25727 0.0
H501 H 0.51336 0.86349 0.34865 0.0
H502 H 0.4938 0.89875 0.13228 0.0
H503 H 0.56169 0.8914 0.18723 0.0
H504 H 0.59324 0.87426 0.20179 0.0
H505 H 0.59242 0.85901 0.96194 0.0
H506 H 0.56072 0.87584 0.94615 0.0
H507 H 0.50883 0.98429 0.90114 0.0
H508 H 0.51253 0.96019 0.00512 0.0
H509 H 0.52751 0.91598 0.83785 0.0
H510 H 0.52433 0.94018 0.7346 0.0
H511 H 0.55064 0.91294 0.96384 0.0
H512 H 0.48132 0.91961 0.91378 0.0
H513 H 0.45052 0.93812 0.90173 0.0
H514 H 0.45504 0.95614 0.13806 0.0
H515 H 0.48609 0.93796 0.15106 0.0
C516 C 0.52924 0.83927 0.18914 0.0
C517 C 0.52358 0.84214 0.26595 0.0
C518 C 0.52906 0.85491 0.13672 0.0
C519 C 0.52351 0.87386 0.16028 0.0
C520 C 0.51772 0.87663 0.23731 0.0
C521 C 0.51779 0.86092 0.28962 0.0
C522 C 0.52343 0.89062 0.10434 0.0
C523 C 0.50638 0.90201 0.09646 0.0
C524 C 0.53969 0.89492 0.05645 0.0
C525 C 0.55873 0.88473 0.06569 0.0
C526 C 0.56816 0.88426 0.13772 0.0
C527 C 0.58608 0.87462 0.14617 0.0
C528 C 0.5948 0.86551 0.08287 0.0
C529 C 0.58563 0.86605 0.01094 0.0
C530 C 0.5677 0.87565 0.00219 0.0
C531 C 0.51342 0.9696 0.88696 0.0
C532 C 0.51661 0.96427 0.80988 0.0
C533 C 0.51527 0.95571 0.94629 0.0
C534 C 0.52017 0.93613 0.92957 0.0
C535 C 0.52376 0.93094 0.85258 0.0
C536 C 0.52187 0.94479 0.79348 0.0
C537 C 0.52097 0.92082 0.99129 0.0
C538 C 0.53814 0.90972 0.00017 0.0
C539 C 0.50491 0.91692 0.04059 0.0
C540 C 0.48612 0.92761 0.03313 0.0
C541 C 0.47581 0.92763 0.96301 0.0
C542 C 0.4583 0.93805 0.95604 0.0
C543 C 0.45084 0.94836 0.01906 0.0
C544 C 0.46086 0.94819 0.08925 0.0
C545 C 0.47841 0.93782 0.09646 0.0
H546 H 0.43729 0.95645 0.01363 0.0
H547 H 0.60868 0.85806 0.08953 0.0
H548 H 0.66018 0.51172 0.32738 0.0
H549 H 0.6323 0.51118 0.2379 0.0
H550 H 0.66995 0.53141 0.05501 0.0
H551 H 0.6977 0.53223 0.14506 0.0
H552 H 0.63589 0.55075 0.05207 0.0
H553 H 0.65485 0.4825 0.07226 0.0
H554 H 0.66158 0.45151 0.14045 0.0
H555 H 0.60291 0.45094 0.2288 0.0
H556 H 0.5959 0.48206 0.16184 0.0
H557 H 0.58404 0.52431 0.71613 0.0
H558 H 0.60732 0.52713 0.82261 0.0
H559 H 0.56211 0.51052 0.98292 0.0
H560 H 0.53875 0.50754 0.8756 0.0
H561 H 0.59697 0.49041 0.00769 0.0
H562 H 0.57653 0.55631 0.98311 0.0
H563 H 0.56844 0.58709 0.91601 0.0
H564 H 0.62806 0.59258 0.84112 0.0
H565 H 0.63646 0.56164 0.90679 0.0
C566 C 0.66243 0.516 0.26797 0.0
C567 C 0.68101 0.52192 0.24271 0.0
C568 C 0.64653 0.51563 0.21677 0.0
C569 C 0.64898 0.52104 0.13915 0.0
C570 C 0.66762 0.52715 0.11439 0.0
C571 C 0.6835 0.52754 0.16567 0.0
C572 C 0.6322 0.52045 0.0837 0.0
C573 C 0.62755 0.53748 0.04188 0.0
C574 C 0.62068 0.50338 0.07224 0.0
C575 C 0.62492 0.48472 0.11272 0.0
C576 C 0.64344 0.47585 0.10674 0.0
C577 C 0.64729 0.45825 0.14506 0.0
C578 C 0.6327 0.44929 0.18909 0.0
C579 C 0.61421 0.4579 0.19477 0.0
C580 C 0.61029 0.47552 0.15661 0.0
C581 C 0.579 0.52144 0.77417 0.0
C582 C 0.55945 0.51609 0.78779 0.0
C583 C 0.59231 0.5231 0.83506 0.0
C584 C 0.58646 0.51925 0.91108 0.0
C585 C 0.56694 0.51373 0.9249 0.0
C586 C 0.55352 0.51228 0.86377 0.0
C587 C 0.60103 0.52055 0.97505 0.0
C588 C 0.60524 0.5037 0.01843 0.0
C589 C 0.61199 0.53783 0.98862 0.0
C590 C 0.60709 0.55654 0.94939 0.0
C591 C 0.58789 0.56399 0.95183 0.0
C592 C 0.58325 0.58148 0.91413 0.0
C593 C 0.59772 0.59176 0.87419 0.0
C594 C 0.61687 0.58459 0.87204 0.0
C595 C 0.62158 0.56708 0.90958 0.0
H596 H 0.5941 0.6053 0.84501 0.0
H597 H 0.6357 0.43565 0.21864 0.0
H598 H 0.02175 0.67771 0.29162 0.0
H599 H 0.02292 0.64991 0.20192 0.0
H600 H 0.97003 0.67053 0.09258 0.0
H601 H 0.96877 0.69816 0.18325 0.0
H602 H 0.96854 0.63167 0.11167 0.0
H603 H 0.01497 0.67733 0.00956 0.0
H604 H 0.04351 0.69943 0.01261 0.0
H605 H 0.08095 0.65101 0.06946 0.0
H606 H 0.05256 0.62865 0.06788 0.0
H607 H 0.97649 0.57961 0.75618 0.0
H608 H 0.97503 0.60505 0.85556 0.0
H609 H 0.02351 0.57806 0.97418 0.0
H610 H 0.02485 0.55237 0.87534 0.0
H611 H 0.02762 0.61915 0.95327 0.0
H612 H 0.9806 0.5733 0.04933 0.0
H613 H 0.9518 0.55161 0.04148 0.0
H614 H 0.91512 0.60107 0.99118 0.0
H615 H 0.94378 0.62303 0.99736 0.0
C616 C 1.01041 0.67622 0.24834 0.0
C617 C 0.99521 0.68995 0.24376 0.0
C618 C 1.0111 0.66041 0.19698 0.0
C619 C 0.99666 0.65818 0.13978 0.0
C620 C 0.98132 0.67189 0.13607 0.0
C621 C 0.98064 0.68769 0.18755 0.0
C622 C 0.9976 0.64164 0.08369 0.0
C623 C 0.98138 0.62909 0.07645 0.0
C624 C 0.01449 0.63796 0.03863 0.0
C625 C 0.0316 0.65135 0.03942 0.0
C626 C 0.02926 0.67142 0.02334 0.0
C627 C 0.04542 0.68399 0.0247 0.0
C628 C 0.06402 0.67664 0.04143 0.0
C629 C 0.06652 0.65668 0.05664 0.0
C630 C 0.0504 0.64405 0.05548 0.0
C631 C 0.98675 0.57902 0.80374 0.0
C632 C 1.00079 0.56401 0.80801 0.0
C633 C 0.98588 0.59355 0.86053 0.0
C634 C 0.99914 0.59345 0.92239 0.0
C635 C 0.01315 0.57843 0.92693 0.0
C636 C 0.01385 0.56372 0.87065 0.0
C637 C 0.99857 0.60928 0.98128 0.0
C638 C 0.01483 0.6217 0.98887 0.0
C639 C 0.98169 0.61292 0.0262 0.0
C640 C 0.96438 0.59979 0.02306 0.0
C641 C 0.96642 0.57954 0.03592 0.0
C642 C 0.95012 0.5672 0.03189 0.0
C643 C 0.93165 0.57496 0.01566 0.0
C644 C 0.92945 0.59508 0.00364 0.0
C645 C 0.94571 0.60748 0.00745 0.0
H646 H 0.91904 0.56538 0.01257 0.0
H647 H 0.07651 0.68639 0.04243 0.0
H648 H 0.97792 0.26839 0.24801 0.0
H649 H 0.96329 0.24815 0.34931 0.0
H650 H 0.01607 0.21347 0.35924 0.0
H651 H 0.0306 0.23378 0.25964 0.0
H652 H 0.95609 0.21312 0.30401 0.0
H653 H 0.01892 0.1841 0.50722 0.0
H654 H 0.04319 0.19751 0.59804 0.0
H655 H 1.00978 0.25054 0.61728 0.0
H656 H 0.98506 0.2373 0.52788 0.0
H657 H 0.97396 0.11398 0.29744 0.0
H658 H 0.97148 0.14954 0.29698 0.0
H659 H 0.9556 0.149 0.53723 0.0
H660 H 0.95872 0.11336 0.53908 0.0
H661 H 0.98497 0.17321 0.51373 0.0
H662 H 0.92274 0.16517 0.40282 0.0
H663 H 0.89755 0.15135 0.31681 0.0
H664 H 0.92824 0.1737 0.11986 0.0
H665 H 0.95371 0.18747 0.20443 0.0
C666 C 0.98675 0.25719 0.27543 0.0
C667 C 1.00526 0.25243 0.24603 0.0
C668 C 0.97837 0.24557 0.33302 0.0
C669 C 0.98846 0.22913 0.36152 0.0
C670 C 1.008 0.22616 0.33931 0.0
C671 C 0.01633 0.23773 0.28195 0.0
C672 C 0.97756 0.21238 0.39513 0.0
C673 C 0.96213 0.20461 0.3511 0.0
C674 C 0.985 0.20144 0.45789 0.0
C675 C 1.00006 0.20964 0.51076 0.0
C676 C 0.01662 0.19854 0.53133 0.0
C677 C 0.03049 0.20613 0.5825 0.0
C678 C 0.02802 0.22485 0.61348 0.0
C679 C 0.01169 0.23604 0.59317 0.0
C680 C 0.99775 0.2285 0.54212 0.0
C681 C 0.96967 0.12136 0.34999 0.0
C682 C 0.96682 0.1108 0.41849 0.0
C683 C 0.96803 0.14171 0.34942 0.0
C684 C 0.96323 0.15193 0.41697 0.0
C685 C 0.9592 0.14139 0.48438 0.0
C686 C 0.96082 0.12098 0.48501 0.0
C687 C 0.96485 0.17358 0.41822 0.0
C688 C 0.97847 0.18211 0.4687 0.0
C689 C 0.9557 0.1853 0.36162 0.0
C690 C 0.9402 0.17733 0.31021 0.0
C691 C 0.92417 0.16708 0.34116 0.0
C692 C 0.90982 0.15926 0.29261 0.0
C693 C 0.91129 0.16164 0.21293 0.0
C694 C 0.92709 0.1719 0.18162 0.0
C695 C 0.94146 0.17977 0.22989 0.0
H696 H 0.90019 0.15554 0.17544 0.0
H697 H 0.03876 0.23069 0.65317 0.0
H698 H 0.25462 0.98124 0.26219 0.0
H699 H 0.27245 0.9667 0.37069 0.0
H700 H 0.30687 0.01956 0.391 0.0
H701 H 0.28883 0.03404 0.28494 0.0
H702 H 0.30736 0.95756 0.34983 0.0
H703 H 0.33227 0.02451 0.54732 0.0
H704 H 0.31661 0.04924 0.62985 0.0
H705 H 0.26361 0.01548 0.63283 0.0
H706 H 0.27905 0.99023 0.55185 0.0
H707 H 0.40517 0.97558 0.34723 0.0
H708 H 0.36983 0.97099 0.34583 0.0
H709 H 0.36941 0.96824 0.59426 0.0
H710 H 0.40483 0.97381 0.59565 0.0
H711 H 0.34366 0.9916 0.55756 0.0
H712 H 0.35367 0.92774 0.4777 0.0
H713 H 0.36829 0.8996 0.40997 0.0
H714 H 0.34849 0.92259 0.19336 0.0
H715 H 0.33402 0.95103 0.25943 0.0
C716 C 0.26533 0.99002 0.29267 0.0
C717 C 0.27066 1.00859 0.26484 0.0
C718 C 0.27556 0.98171 0.35445 0.0
C719 C 0.29119 0.9919 0.38894 0.0
C720 C 0.29477 1.01138 0.36668 0.0
C721 C 0.28458 0.01964 0.3053 0.0
C722 C 0.30671 0.98126 0.43204 0.0
C723 C 0.31509 0.96479 0.39638 0.0
C724 C 0.31637 0.98987 0.49577 0.0
C725 C 0.30689 1.00536 0.54324 0.0
C726 C 0.31733 0.0222 0.56597 0.0
C727 C 0.30847 0.03636 0.61249 0.0
C728 C 0.28913 0.03393 0.63657 0.0
C729 C 0.27859 0.01736 0.61403 0.0
C730 C 0.28739 1.00312 0.5677 0.0
C731 C 0.39758 0.97346 0.40134 0.0
C732 C 0.40761 0.97513 0.4714 0.0
C733 C 0.37736 0.97067 0.4007 0.0
C734 C 0.36685 0.96897 0.4701 0.0
C735 C 0.37713 0.96948 0.54012 0.0
C736 C 0.39733 0.97265 0.54082 0.0
C737 C 0.34511 0.96963 0.46865 0.0
C738 C 0.3356 0.98401 0.51283 0.0
C739 C 0.33416 0.95872 0.41443 0.0
C740 C 0.34269 0.94155 0.37379 0.0
C741 C 0.35248 0.92685 0.41559 0.0
C742 C 0.36075 0.91083 0.37745 0.0
C743 C 0.3593 0.9093 0.29743 0.0
C744 C 0.34955 0.92377 0.25538 0.0
C745 C 0.34126 0.93982 0.29321 0.0
H746 H 0.36573 0.89689 0.26801 0.0
H747 H 0.28231 0.0449 0.67267 0.0
H748 H 0.55304 0.265 0.23568 0.0
H749 H 0.57246 0.28505 0.3247 0.0
H750 H 0.52051 0.3178 0.38379 0.0
H751 H 0.50132 0.29753 0.29723 0.0
H752 H 0.57846 0.31972 0.28846 0.0
H753 H 0.52364 0.34639 0.53353 0.0
H754 H 0.50456 0.33158 0.63854 0.0
H755 H 0.5391 0.2792 0.62409 0.0
H756 H 0.55882 0.29383 0.5203 0.0
H757 H 0.5586 0.41726 0.28262 0.0
H758 H 0.56353 0.3821 0.28428 0.0
H759 H 0.58072 0.38492 0.52327 0.0
H760 H 0.57391 0.41997 0.52414 0.0
H761 H 0.55587 0.35845 0.51251 0.0
H762 H 0.6134 0.36849 0.37552 0.0
H763 H 0.63593 0.38306 0.2807 0.0
H764 H 0.60129 0.35972 0.09582 0.0
H765 H 0.57835 0.34529 0.18927 0.0
C766 C 0.54569 0.27577 0.27119 0.0
C767 C 0.5258 0.27992 0.25958 0.0
C768 C 0.55679 0.28732 0.32168 0.0
C769 C 0.54808 0.30314 0.36075 0.0
C770 C 0.52768 0.30559 0.35575 0.0
C771 C 0.51665 0.29406 0.30572 0.0
C772 C 0.56012 0.31977 0.38956 0.0
C773 C 0.57384 0.32798 0.33853 0.0
C774 C 0.55497 0.33027 0.4569 0.0
C775 C 0.54279 0.32126 0.51863 0.0
C776 C 0.52734 0.33177 0.55292 0.0
C777 C 0.51636 0.32338 0.61231 0.0
C778 C 0.52059 0.30445 0.63789 0.0
C779 C 0.53581 0.29386 0.6041 0.0
C780 C 0.54689 0.30219 0.54489 0.0
C781 C 0.56352 0.41047 0.33557 0.0
C782 C 0.56548 0.42148 0.40349 0.0
C783 C 0.56674 0.39031 0.33611 0.0
C784 C 0.57267 0.38072 0.4039 0.0
C785 C 0.57607 0.39191 0.47039 0.0
C786 C 0.5724 0.41206 0.47041 0.0
C787 C 0.57239 0.35894 0.40704 0.0
C788 C 0.56106 0.34985 0.4643 0.0
C789 C 0.58019 0.34742 0.34674 0.0
C790 C 0.59415 0.35573 0.28971 0.0
C791 C 0.61054 0.36649 0.31465 0.0
C792 C 0.62339 0.37474 0.26109 0.0
C793 C 0.62006 0.37229 0.1823 0.0
C794 C 0.60389 0.36155 0.15689 0.0
C795 C 0.59098 0.35328 0.21018 0.0
H796 H 0.63 0.37873 0.14094 0.0
H797 H 0.51208 0.298 0.6839 0.0
H798 H 0.23558 0.5587 0.173 0.0
H799 H 0.21775 0.56821 0.28769 0.0
H800 H 0.24208 0.51882 0.41041 0.0
H801 H 0.25939 0.50877 0.2934 0.0
H802 H 0.2055 0.51596 0.41462 0.0
H803 H 0.24567 0.56775 0.48479 0.0
H804 H 0.26761 0.59626 0.47322 0.0
H805 H 0.22063 0.63045 0.37881 0.0
H806 H 0.19846 0.6021 0.38857 0.0
H807 H 0.1172 0.53648 0.6025 0.0
H808 H 0.15296 0.53689 0.59812 0.0
H809 H 0.15093 0.5744 0.39845 0.0
H810 H 0.1152 0.57384 0.40185 0.0
H811 H 0.18328 0.58233 0.49114 0.0
H812 H 0.14933 0.52404 0.38327 0.0
H813 H 0.12758 0.49554 0.40136 0.0
H814 H 0.16539 0.4736 0.57926 0.0
H815 H 0.18732 0.50201 0.56211 0.0
C816 C 0.23762 0.55023 0.22518 0.0
C817 C 0.24849 0.5328 0.22397 0.0
C818 C 0.2276 0.55582 0.2914 0.0
C819 C 0.22847 0.54424 0.35826 0.0
C820 C 0.24112 0.52798 0.35959 0.0
C821 C 0.25108 0.52229 0.29282 0.0
C822 C 0.21304 0.5467 0.41779 0.0
C823 C 0.20112 0.53043 0.43388 0.0
C824 C 0.20717 0.56547 0.44374 0.0
C825 C 0.22037 0.58272 0.43747 0.0
C826 C 0.24002 0.5813 0.46111 0.0
C827 C 0.25251 0.59746 0.45493 0.0
C828 C 0.24552 0.61516 0.42532 0.0
C829 C 0.22602 0.61674 0.40189 0.0
C830 C 0.21346 0.60064 0.40795 0.0
C831 C 0.12442 0.54509 0.55852 0.0
C832 C 0.11346 0.55476 0.50138 0.0
C833 C 0.14483 0.54553 0.55681 0.0
C834 C 0.15459 0.55554 0.49773 0.0
C835 C 0.14368 0.56663 0.44476 0.0
C836 C 0.12326 0.56624 0.44651 0.0
C837 C 0.17556 0.55188 0.48208 0.0
C838 C 0.18831 0.56787 0.47458 0.0
C839 C 0.18242 0.5328 0.46509 0.0
C840 C 0.16976 0.51527 0.47238 0.0
C841 C 0.15297 0.51313 0.42625 0.0
C842 C 0.14062 0.497 0.43632 0.0
C843 C 0.14505 0.48281 0.49167 0.0
C844 C 0.16194 0.48463 0.53661 0.0
C845 C 0.17433 0.50074 0.52676 0.0
H846 H 0.13544 0.47036 0.49955 0.0
H847 H 0.25521 0.62764 0.42055 0.0
H848 H 0.06518 0.76535 0.24059 0.0
H849 H 0.07992 0.78665 0.14316 0.0
H850 H 0.02419 0.79081 0.02725 0.0
H851 H 1.00967 0.769 0.12321 0.0
H852 H 0.05504 0.79694 0.92622 0.0
H853 H 0.03286 0.82475 0.17771 0.0
H854 H 0.03294 0.82746 0.31937 0.0
H855 H 0.09574 0.83049 0.3194 0.0
H856 H 0.09591 0.82835 0.17735 0.0
H857 H 0.02491 0.89473 0.87906 0.0
H858 H 0.03243 0.86003 0.89833 0.0
H859 H 0.09126 0.87517 0.96642 0.0
H860 H 0.08382 0.90995 0.94671 0.0
H861 H 0.06994 0.85666 0.07831 0.0
H862 H 0.08899 0.84348 0.8259 0.0
H863 H 0.08987 0.84225 0.68416 0.0
H864 H 0.03487 0.81183 0.68128 0.0
H865 H 0.03356 0.813 0.82322 0.0
C866 C 0.05643 0.76991 0.19167 0.0
C867 C 0.03635 0.76566 0.18898 0.0
C868 C 0.06478 0.78221 0.13652 0.0
C869 C 0.053 0.79073 0.07934 0.0
C870 C 0.03354 0.78444 0.07103 0.0
C871 C 0.02525 0.77192 0.12564 0.0
C872 C 0.05937 0.80886 0.0397 0.0
C873 C 0.05838 0.81004 0.95908 0.0
C874 C 0.06441 0.82577 0.08247 0.0
C875 C 0.06441 0.82613 0.16753 0.0
C876 C 0.04666 0.82587 0.20816 0.0
C877 C 0.04666 0.82743 0.2884 0.0
C878 C 0.06436 0.82899 0.32847 0.0
C879 C 0.08206 0.82919 0.28831 0.0
C880 C 0.08212 0.82793 0.20798 0.0
C881 C 0.03955 0.8906 0.89678 0.0
C882 C 0.05371 0.90498 0.91262 0.0
C883 C 0.04392 0.87077 0.90661 0.0
C884 C 0.06247 0.86502 0.9331 0.0
C885 C 0.07696 0.8793 0.94488 0.0
C886 C 0.07267 0.89914 0.93401 0.0
C887 C 0.06498 0.84505 0.96465 0.0
C888 C 0.0674 0.84353 0.04444 0.0
C889 C 0.0613 0.82798 0.92076 0.0
C890 C 0.06115 0.82841 0.83534 0.0
C891 C 0.07696 0.83672 0.79511 0.0
C892 C 0.07761 0.8359 0.71473 0.0
C893 C 0.06252 0.82682 0.67383 0.0
C894 C 0.04662 0.81874 0.71316 0.0
C895 C 0.04592 0.81947 0.7936 0.0
H896 H 0.06311 0.82613 0.61163 0.0
H897 H 0.06439 0.83014 0.39056 0.0
H898 H 0.77178 1.00751 0.10064 0.0
H899 H 0.75118 1.00372 0.98678 0.0
H900 H 0.71822 0.95864 0.10292 0.0
H901 H 0.73962 0.96132 0.21377 0.0
H902 H 0.70844 0.95806 0.95778 0.0
H903 H 0.71498 1.01189 0.15867 0.0
H904 H 0.73454 0.03889 0.21481 0.0
H905 H 0.74056 0.06498 0.99124 0.0
H906 H 0.72145 0.03794 0.93367 0.0
H907 H 0.61734 1.01159 0.09333 0.0
H908 H 0.65247 1.00533 0.08838 0.0
H909 H 0.64794 0.99075 0.84722 0.0
H910 H 0.61267 0.99701 0.85181 0.0
H911 H 0.67996 0.02401 0.00132 0.0
H912 H 0.68545 0.95638 0.81502 0.0
H913 H 0.66501 0.92887 0.76887 0.0
H914 H 0.63217 0.93022 0.97953 0.0
H915 H 0.65252 0.95761 0.02671 0.0
C916 C 0.76103 0.99584 0.09984 0.0
C917 C 0.75648 0.98545 0.16744 0.0
C918 C 0.74912 0.99378 0.03471 0.0
C919 C 0.73233 0.9819 0.03857 0.0
C920 C 0.73067 0.96843 0.09931 0.0
C921 C 0.74287 0.97007 0.16328 0.0
C922 C 0.71408 0.98746 0.9975 0.0
C923 C 0.70239 0.97264 0.96514 0.0
C924 C 0.706 1.00648 0.00703 0.0
C925 C 0.71702 0.02289 0.04195 0.0
C926 C 0.72048 0.02343 0.12171 0.0
C927 C 0.7315 0.03868 0.15369 0.0
C928 C 0.73874 0.05362 0.10666 0.0
C929 C 0.73498 0.05337 0.02755 0.0
C930 C 0.72412 0.03808 0.99518 0.0
C931 C 0.62381 1.00708 0.03924 0.0
C932 C 0.61226 1.00484 0.97299 0.0
C933 C 0.64386 1.00352 0.03641 0.0
C934 C 0.65278 0.99765 0.96735 0.0
C935 C 0.64131 0.99515 0.90114 0.0
C936 C 0.62117 0.99866 0.90402 0.0
C937 C 0.67415 0.99433 0.9663 0.0
C938 C 0.68627 1.00969 0.99029 0.0
C939 C 0.68242 0.97579 0.95029 0.0
C940 C 0.67034 0.95911 0.92372 0.0
C941 C 0.67388 0.95072 0.85129 0.0
C942 C 0.66232 0.93519 0.82502 0.0
C943 C 0.64726 0.92784 0.87115 0.0
C944 C 0.64379 0.93597 0.94374 0.0
C945 C 0.65532 0.95151 0.97019 0.0
H946 H 0.6383 0.91583 0.85073 0.0
H947 H 0.74726 0.0654 0.13154 0.0
H948 H 0.55321 0.74472 0.16919 0.0
H949 H 0.54388 0.7197 0.07759 0.0
H950 H 0.48535 0.74353 0.06846 0.0
H951 H 0.49473 0.76831 0.16317 0.0
H952 H 0.48391 0.71044 0.13236 0.0
H953 H 0.51087 0.72904 0.89793 0.0
H954 H 0.53354 0.74249 0.80121 0.0
H955 H 0.57609 0.69864 0.85951 0.0
H956 H 0.55386 0.6851 0.95749 0.0
H957 H 0.4675 0.61109 0.00395 0.0
H958 H 0.46899 0.64676 0.01378 0.0
H959 H 0.5292 0.64308 0.08729 0.0
H960 H 0.5278 0.60724 0.07792 0.0
H961 H 0.52255 0.66796 0.95871 0.0
H962 H 0.49628 0.65449 0.20983 0.0
H963 H 0.4729 0.64179 0.30522 0.0
H964 H 0.42724 0.67694 0.20618 0.0
H965 H 0.45038 0.68982 0.10964 0.0
C966 C 0.53872 0.74536 0.14386 0.0
C967 C 0.52454 0.75801 0.17412 0.0
C968 C 0.53333 0.73104 0.09093 0.0
C969 C 0.51372 0.7294 0.06719 0.0
C970 C 0.50049 0.74436 0.08678 0.0
C971 C 0.50588 0.75862 0.14049 0.0
C972 C 0.50637 0.70976 0.04478 0.0
C973 C 0.49182 0.70136 0.09171 0.0
C974 C 0.51683 0.69771 0.99298 0.0
C975 C 0.53062 0.70605 0.93541 0.0
C976 C 0.52513 0.72236 0.89074 0.0
C977 C 0.5379 0.72998 0.83551 0.0
C978 C 0.55624 0.72142 0.82422 0.0
C979 C 0.56186 0.70524 0.86822 0.0
C980 C 0.54915 0.69755 0.92354 0.0
C981 C 0.48088 0.61784 0.02438 0.0
C982 C 0.49756 0.60647 0.04016 0.0
C983 C 0.48173 0.63819 0.02939 0.0
C984 C 0.49925 0.64743 0.05035 0.0
C985 C 0.51563 0.63611 0.07019 0.0
C986 C 0.51479 0.61572 0.06521 0.0
C987 C 0.5008 0.66893 0.04793 0.0
C988 C 0.51414 0.67737 0.99636 0.0
C989 C 0.48904 0.68105 0.0946 0.0
C990 C 0.47503 0.67294 0.15169 0.0
C991 C 0.48121 0.65936 0.20765 0.0
C992 C 0.46802 0.65218 0.26222 0.0
C993 C 0.44857 0.65848 0.26156 0.0
C994 C 0.4423 0.67203 0.2065 0.0
C995 C 0.45547 0.67931 0.15192 0.0
H996 H 0.43837 0.6529 0.30387 0.0
H997 H 0.5661 0.72733 0.78135 0.0
H998 H 0.75243 0.47777 0.15915 0.0
H999 H 0.77384 0.46519 0.05691 0.0
H1000 H 0.80166 0.52173 0.04014 0.0
H1001 H 0.78041 0.53425 0.14208 0.0
H1002 H 0.79173 0.48148 0.89278 0.0
H1003 H 0.84703 0.50942 0.10374 0.0
H1004 H 0.8532 0.5161 0.24112 0.0
H1005 H 0.81276 0.47068 0.30423 0.0
H1006 H 0.80643 0.46369 0.16693 0.0
H1007 H 0.89411 0.50225 0.82942 0.0
H1008 H 0.85868 0.49969 0.8451 0.0
H1009 H 0.86529 0.4406 0.92891 0.0
H1010 H 0.90081 0.44288 0.91089 0.0
H1011 H 0.85425 0.47332 0.0348 0.0
H1012 H 0.83498 0.44114 0.80573 0.0
H1013 H 0.83165 0.43426 0.66703 0.0
H1014 H 0.80288 0.48955 0.63384 0.0
H1015 H 0.80641 0.49697 0.77198 0.0
C1016 C 0.76236 0.48774 0.13037 0.0
C1017 C 0.76486 0.50693 0.15774 0.0
C1018 C 0.77458 0.48056 0.07229 0.0
C1019 C 0.78931 0.49256 0.04164 0.0
C1020 C 0.79026 0.51235 0.06295 0.0
C1021 C 0.77813 0.51949 0.12091 0.0
C1022 C 0.80625 0.48375 0.0024 0.0
C1023 C 0.80543 0.47955 0.92339 0.0
C1024 C 0.82395 0.48106 0.043 0.0
C1025 C 0.82617 0.48614 0.12536 0.0
C1026 C 0.83932 0.501 0.14704 0.0
C1027 C 0.84286 0.50482 0.22475 0.0
C1028 C 0.83339 0.49382 0.28127 0.0
C1029 C 0.82003 0.47923 0.26028 0.0
C1030 C 0.8164 0.47538 0.18249 0.0
C1031 C 0.88792 0.48845 0.84816 0.0
C1032 C 0.90013 0.47282 0.86958 0.0
C1033 C 0.86768 0.48692 0.85623 0.0
C1034 C 0.85938 0.46985 0.88695 0.0
C1035 C 0.87142 0.45371 0.90327 0.0
C1036 C 0.89169 0.4551 0.89371 0.0
C1037 C 0.84011 0.47145 0.9243 0.0
C1038 C 0.8405 0.47465 0.00374 0.0
C1039 C 0.82234 0.47357 0.88326 0.0
C1040 C 0.82107 0.46965 0.79937 0.0
C1041 C 0.82816 0.45195 0.76877 0.0
C1042 C 0.82615 0.44791 0.69022 0.0
C1043 C 0.817 0.46142 0.64168 0.0
C1044 C 0.80992 0.47906 0.67151 0.0
C1045 C 0.81195 0.4832 0.74993 0.0
H1046 H 0.81546 0.45828 0.58089 0.0
H1047 H 0.83664 0.4965 0.34117 0.0
H1048 H 0.98251 0.22558 0.00189 0.0
H1049 H 0.98242 0.19378 0.93704 0.0
H1050 H 0.043 0.20177 0.87515 0.0
H1051 H 0.04306 0.23387 0.94005 0.0
H1052 H 0.01956 0.1811 0.7609 0.0
H1053 H 0.03313 0.17999 0.03519 0.0
H1054 H 0.0254 0.18797 0.17029 0.0
H1055 H 0.97207 0.15491 0.15405 0.0
H1056 H 0.97914 0.14731 0.01833 0.0
H1057 H 0.03906 0.07951 0.70329 0.0
H1058 H 0.04022 0.1141 0.74045 0.0
H1059 H 0.98795 0.10608 0.87682 0.0
H1060 H 0.98806 0.07113 0.84529 0.0
H1061 H 1.00858 0.128 0.95116 0.0
H1062 H 0.99296 0.12902 0.68058 0.0
H1063 H 0.99827 0.12201 0.54289 0.0
H1064 H 0.05116 0.15583 0.54609 0.0
H1065 H 0.04676 0.1623 0.68462 0.0
C1066 C 0.99562 0.22084 0.97217 0.0
C1067 C 0.01281 0.2321 0.97603 0.0
C1068 C 0.99558 0.20264 0.93546 0.0
C1069 C 0.0128 0.19524 0.90259 0.0
C1070 C 0.02957 0.2072 0.9004 0.0
C1071 C 0.02959 0.22554 0.93713 0.0
C1072 C 0.01383 0.17426 0.8795 0.0
C1073 C 0.01736 0.1694 0.80232 0.0
C1074 C 1.0105 0.15908 0.93352 0.0
C1075 C 1.00658 0.16324 0.01616 0.0
C1076 C 0.01967 0.17456 0.06022 0.0
C1077 C 0.01539 0.17905 0.13698 0.0
C1078 C 0.99821 0.17203 0.17076 0.0
C1079 C 0.98533 0.16044 0.12791 0.0
C1080 C 0.98945 0.15606 0.05099 0.0
C1081 C 0.02794 0.08522 0.7416 0.0
C1082 C 0.0135 0.07276 0.77167 0.0
C1083 C 0.02843 0.10508 0.76214 0.0
C1084 C 0.01387 0.11312 0.81005 0.0
C1085 C 0.99941 0.10047 0.83986 0.0
C1086 C 0.99941 0.08047 0.82179 0.0
C1087 C 0.01388 0.13444 0.83129 0.0
C1088 C 1.01068 0.13949 0.90882 0.0
C1089 C 0.01712 0.14976 0.77705 0.0
C1090 C 0.01963 0.14598 0.6934 0.0
C1091 C 1.00581 0.13485 0.65215 0.0
C1092 C 1.00863 0.13099 0.57388 0.0
C1093 C 0.02492 0.13858 0.53565 0.0
C1094 C 0.03855 0.14992 0.57578 0.0
C1095 C 0.03594 0.15364 0.65425 0.0
H1096 H 0.02699 0.13564 0.47496 0.0
H1097 H 0.9949 0.17554 0.23014 0.0
H1098 H 0.30803 0.04545 0.07977 0.0
H1099 H 0.33837 0.04575 0.00694 0.0
H1100 H 0.31245 1.00779 0.83623 0.0
H1101 H 0.28197 1.00686 0.91162 0.0
H1102 H 0.34668 0.99406 0.87184 0.0
H1103 H 0.32588 0.05627 0.79278 0.0
H1104 H 0.31199 0.08951 0.80183 0.0
H1105 H 0.35933 0.10711 0.94925 0.0
H1106 H 0.37338 0.07388 0.94202 0.0
H1107 H 0.43983 1.00102 0.68058 0.0
H1108 H 0.40487 1.00347 0.70801 0.0
H1109 H 0.41768 0.03709 0.91223 0.0
H1110 H 0.45267 0.03529 0.88348 0.0
H1111 H 0.38767 0.05319 0.83218 0.0
H1112 H 0.40498 0.98655 0.91535 0.0
H1113 H 0.41765 0.95325 0.89181 0.0
H1114 H 0.375 0.94469 0.71339 0.0
H1115 H 0.3621 0.978 0.73558 0.0
C1116 C 0.30864 0.03739 0.02607 0.0
C1117 C 0.29259 0.02602 0.00184 0.0
C1118 C 0.32603 0.03769 0.98393 0.0
C1119 C 0.32785 0.02689 0.91543 0.0
C1120 C 0.3115 0.01624 0.88887 0.0
C1121 C 0.294 0.01588 0.93152 0.0
C1122 C 0.34735 0.02561 0.87638 0.0
C1123 C 0.35544 1.00705 0.86164 0.0
C1124 C 0.35897 0.04246 0.86245 0.0
C1125 C 0.35062 0.06252 0.86723 0.0
C1126 C 0.33326 0.06718 0.82762 0.0
C1127 C 0.32537 0.08603 0.83234 0.0
C1128 C 0.33476 0.1004 0.8762 0.0
C1129 C 0.35208 0.09596 0.91531 0.0
C1130 C 0.36003 0.07712 0.91081 0.0
C1131 C 0.43525 1.0091 0.73095 0.0
C1132 C 0.44918 0.01811 0.77929 0.0
C1133 C 0.41518 1.01032 0.74705 0.0
C1134 C 0.40851 0.02036 0.81262 0.0
C1135 C 0.42238 0.02929 0.86118 0.0
C1136 C 0.44245 0.02814 0.84492 0.0
C1137 C 0.38717 0.02166 0.83114 0.0
C1138 C 0.37876 0.04025 0.8416 0.0
C1139 C 0.37511 1.00487 0.83892 0.0
C1140 C 0.38272 0.9848 0.82657 0.0
C1141 C 0.39838 0.9776 0.87084 0.0
C1142 C 0.40559 0.95873 0.85778 0.0
C1143 C 0.39722 0.9469 0.80093 0.0
C1144 C 0.38151 0.95388 0.75728 0.0
C1145 C 0.37422 0.97273 0.77015 0.0
H1146 H 0.40286 0.9323 0.7909 0.0
H1147 H 0.32862 0.11499 0.87978 0.0
H1148 H 0.48484 0.31803 0.09554 0.0
H1149 H 0.48294 0.34719 0.01571 0.0
H1150 H 0.50812 0.31535 0.82541 0.0
H1151 H 0.51087 0.28603 0.90743 0.0
H1152 H 0.52571 0.34894 0.83669 0.0
H1153 H 0.4589 0.3319 0.82467 0.0
H1154 H 0.42648 0.32134 0.87106 0.0
H1155 H 0.42228 0.37303 0.01093 0.0
H1156 H 0.4548 0.38379 0.96628 0.0
H1157 H 0.51448 0.44079 0.63197 0.0
H1158 H 0.51168 0.40615 0.66782 0.0
H1159 H 0.48984 0.4229 0.89119 0.0
H1160 H 0.49221 0.45732 0.85561 0.0
H1161 H 0.46862 0.39376 0.83486 0.0
H1162 H 0.53846 0.40812 0.85065 0.0
H1163 H 0.5706 0.41751 0.79766 0.0
H1164 H 0.56838 0.36887 0.64112 0.0
H1165 H 0.53593 0.35963 0.69112 0.0
C1166 C 0.48976 0.3171 0.03637 0.0
C1167 C 0.49813 0.29969 0.00813 0.0
C1168 C 0.4885 0.33382 0.99028 0.0
C1169 C 0.49517 0.3336 0.91379 0.0
C1170 C 0.50281 0.31597 0.8841 0.0
C1171 C 0.5042 0.29914 0.93074 0.0
C1172 C 0.4954 0.35225 0.86812 0.0
C1173 C 0.51307 0.35854 0.83481 0.0
C1174 C 0.47899 0.36495 0.86537 0.0
C1175 C 0.45936 0.3586 0.89232 0.0
C1176 C 0.45112 0.34096 0.86569 0.0
C1177 C 0.43272 0.33495 0.89164 0.0
C1178 C 0.42234 0.34649 0.94397 0.0
C1179 C 0.43033 0.3641 0.97037 0.0
C1180 C 0.44874 0.37019 0.94464 0.0
C1181 C 0.50907 0.43712 0.68876 0.0
C1182 C 0.5036 0.452 0.74081 0.0
C1183 C 0.50754 0.41725 0.70929 0.0
C1184 C 0.50068 0.41179 0.78261 0.0
C1185 C 0.49513 0.42663 0.83424 0.0
C1186 C 0.49656 0.44641 0.81375 0.0
C1187 C 0.49914 0.39077 0.80675 0.0
C1188 C 0.48116 0.38402 0.8357 0.0
C1189 C 0.51518 0.37758 0.8043 0.0
C1190 C 0.5346 0.38338 0.77377 0.0
C1191 C 0.54469 0.39961 0.8041 0.0
C1192 C 0.56296 0.40492 0.77451 0.0
C1193 C 0.57144 0.39393 0.71543 0.0
C1194 C 0.56169 0.37755 0.68607 0.0
C1195 C 0.54335 0.37229 0.71491 0.0
H1196 H 0.58561 0.39802 0.69275 0.0
H1197 H 0.40809 0.34181 0.96401 0.0
H1198 H 0.22875 0.47948 0.95322 0.0
H1199 H 0.19776 0.47625 0.88221 0.0
H1200 H 0.18916 0.53876 0.89715 0.0
H1201 H 0.22009 0.542 0.96633 0.0
H1202 H 0.16274 0.48347 0.93576 0.0
H1203 H 0.16084 0.55591 0.75717 0.0
H1204 H 0.1833 0.57605 0.67902 0.0
H1205 H 0.21981 0.52589 0.63959 0.0
H1206 H 0.1975 0.5054 0.71681 0.0
H1207 H 0.06498 0.51281 0.87724 0.0
H1208 H 0.09985 0.51089 0.90798 0.0
H1209 H 0.11312 0.5021 0.66759 0.0
H1210 H 0.07828 0.5046 0.63647 0.0
H1211 H 0.13877 0.52589 0.72384 0.0
H1212 H 0.11459 0.46372 0.80343 0.0
H1213 H 0.09271 0.44061 0.87055 0.0
H1214 H 0.10995 0.46479 0.08858 0.0
H1215 H 0.13174 0.48822 0.02272 0.0
C1216 C 0.22053 0.49256 0.93901 0.0
C1217 C 0.22685 0.51099 0.96535 0.0
C1218 C 0.20272 0.49071 0.89909 0.0
C1219 C 0.19102 0.50726 0.88399 0.0
C1220 C 0.19793 0.52577 0.90678 0.0
C1221 C 0.21561 0.52761 0.94672 0.0
C1222 C 0.17082 0.50522 0.85169 0.0
C1223 C 0.15758 0.49264 0.88893 0.0
C1224 C 0.16402 0.51686 0.78958 0.0
C1225 C 0.17757 0.52916 0.74344 0.0
C1226 C 0.17367 0.54918 0.73191 0.0
C1227 C 0.18639 0.56066 0.68783 0.0
C1228 C 0.20306 0.55229 0.65498 0.0
C1229 C 0.20699 0.53239 0.66569 0.0
C1230 C 0.19433 0.52085 0.70974 0.0
C1231 C 0.07531 0.5104 0.83093 0.0
C1232 C 0.0688 0.50888 0.75434 0.0
C1233 C 0.0953 0.50922 0.8486 0.0
C1234 C 0.10926 0.50606 0.79035 0.0
C1235 C 0.10276 0.50458 0.71374 0.0
C1236 C 0.08278 0.50601 0.69596 0.0
C1237 C 0.13059 0.50458 0.80942 0.0
C1238 C 0.14401 0.51654 0.76989 0.0
C1239 C 0.13768 0.49199 0.86812 0.0
C1240 C 0.1247 0.47782 0.90806 0.0
C1241 C 0.11363 0.46418 0.86567 0.0
C1242 C 0.10125 0.45102 0.90349 0.0
C1243 C 0.09992 0.45126 0.98377 0.0
C1244 C 0.111 0.46463 0.0264 0.0
C1245 C 0.12338 0.47784 0.98886 0.0
H1246 H 0.09032 0.44106 0.01294 0.0
H1247 H 0.2129 0.56119 0.62091 0.0
H1248 H 0.98111 0.78661 0.45863 0.0
H1249 H 0.97796 0.8184 0.52294 0.0
H1250 H 0.0398 0.82853 0.49109 0.0
H1251 H 0.04326 0.79621 0.43552 0.0
H1252 H 0.03294 0.84766 0.59758 0.0
H1253 H 0.99898 0.84526 0.35981 0.0
H1254 H 0.97531 0.83349 0.26296 0.0
H1255 H 0.92775 0.84753 0.4147 0.0
H1256 H 0.95119 0.85917 0.51289 0.0
H1257 H 0.9982 0.95435 0.50832 0.0
H1258 H 0.99793 0.9195 0.47516 0.0
H1259 H 1.00806 0.90467 0.71344 0.0
H1260 H 1.00884 0.93934 0.74664 0.0
H1261 H 0.978 0.88863 0.50435 0.0
H1262 H 0.04015 0.86512 0.72473 0.0
H1263 H 0.07069 0.87909 0.77733 0.0
H1264 H 0.07194 0.92181 0.59664 0.0
H1265 H 0.04225 0.90741 0.5397 0.0
C1266 C 0.99412 0.79535 0.468 0.0
C1267 C 0.01235 0.78908 0.4397 0.0
C1268 C 0.99227 0.81378 0.50336 0.0
C1269 C 1.00844 0.82658 0.50856 0.0
C1270 C 0.02691 0.81938 0.48704 0.0
C1271 C 0.02887 0.80082 0.45433 0.0
C1272 C 1.00626 0.84772 0.53139 0.0
C1273 C 0.02081 0.85644 0.5775 0.0
C1274 C 0.99098 0.85982 0.50262 0.0
C1275 C 0.97683 0.85284 0.444 0.0
C1276 C 0.98347 0.84571 0.37267 0.0
C1277 C 0.97011 0.83908 0.31755 0.0
C1278 C 0.95004 0.8397 0.33278 0.0
C1279 C 0.9433 0.84701 0.40309 0.0
C1280 C 0.95662 0.85363 0.4585 0.0
C1281 C 1.00024 0.94368 0.55376 0.0
C1282 C 1.00371 0.94972 0.63002 0.0
C1283 C 0.99999 0.92371 0.53475 0.0
C1284 C 1.00318 0.90937 0.59156 0.0
C1285 C 1.00587 0.91539 0.66822 0.0
C1286 C 1.00628 0.9353 0.68715 0.0
C1287 C 1.00467 0.88822 0.57049 0.0
C1288 C 0.98998 0.87962 0.52502 0.0
C1289 C 0.02076 0.87659 0.59409 0.0
C1290 C 0.03862 0.88541 0.62888 0.0
C1291 C 0.04694 0.87746 0.69603 0.0
C1292 C 0.06415 0.88542 0.7265 0.0
C1293 C 0.07302 0.90151 0.69132 0.0
C1294 C 0.06494 0.90946 0.62443 0.0
C1295 C 0.04798 0.90134 0.59275 0.0
H1296 H 0.08625 0.9077 0.71554 0.0
H1297 H 0.93971 0.83456 0.29001 0.0
H1298 H 0.74108 1.00346 0.51719 0.0
H1299 H 0.70961 1.00665 0.58546 0.0
H1300 H 0.68244 0.02714 0.37606 0.0
H1301 H 0.7135 0.0242 0.30903 0.0
H1302 H 0.66853 0.04717 0.49145 0.0
H1303 H 0.67859 0.9792 0.43553 0.0
H1304 H 0.69625 0.94772 0.43812 0.0
H1305 H 0.69288 0.94666 0.68472 0.0
H1306 H 0.67529 0.97833 0.68391 0.0
H1307 H 0.56817 0.02051 0.52018 0.0
H1308 H 0.60286 0.02168 0.48552 0.0
H1309 H 0.61881 1.01217 0.72263 0.0
H1310 H 0.58405 1.01125 0.75834 0.0
H1311 H 0.63982 0.988 0.6129 0.0
H1312 H 0.62442 0.05577 0.65801 0.0
H1313 H 0.60663 0.087 0.64336 0.0
H1314 H 0.61902 0.08717 0.40107 0.0
H1315 H 0.63662 0.0558 0.41396 0.0
C1316 C 0.72846 1.00905 0.48649 0.0
C1317 C 0.72981 0.01353 0.40762 0.0
C1318 C 0.71042 1.01068 0.52523 0.0
C1319 C 0.69346 0.0169 0.48579 0.0
C1320 C 0.69517 0.02231 0.40812 0.0
C1321 C 0.71302 0.0206 0.36966 0.0
C1322 C 0.67368 0.0171 0.52296 0.0
C1323 C 0.66227 0.03418 0.51775 0.0
C1324 C 0.66545 1.00029 0.55847 0.0
C1325 C 0.67589 0.98126 0.55968 0.0
C1326 C 0.68175 0.97234 0.49042 0.0
C1327 C 0.69169 0.95446 0.49159 0.0
C1328 C 0.69572 0.94525 0.56167 0.0
C1329 C 0.68974 0.95388 0.63069 0.0
C1330 C 0.67978 0.97178 0.6299 0.0
C1331 C 0.579 0.0186 0.56512 0.0
C1332 C 0.57322 0.01577 0.64212 0.0
C1333 C 0.59887 0.01936 0.54519 0.0
C1334 C 0.61348 0.01709 0.60151 0.0
C1335 C 0.60781 0.01395 0.67824 0.0
C1336 C 0.58791 0.01349 0.69851 0.0
C1337 C 0.63461 0.01795 0.57969 0.0
C1338 C 0.64622 1.00107 0.58776 0.0
C1339 C 0.6429 0.03481 0.54513 0.0
C1340 C 0.63173 0.05335 0.53691 0.0
C1341 C 0.62315 0.06234 0.60144 0.0
C1342 C 0.61315 0.0801 0.59349 0.0
C1343 C 0.61174 0.08907 0.52136 0.0
C1344 C 0.62016 0.08022 0.45692 0.0
C1345 C 0.63015 0.06246 0.46452 0.0
H1346 H 0.60419 0.10292 0.51536 0.0
H1347 H 0.70343 0.9314 0.56249 0.0
H1348 H 0.55784 0.72874 0.40473 0.0
H1349 H 0.55476 0.69602 0.46083 0.0
H1350 H 0.49821 0.7114 0.55209 0.0
H1351 H 0.5012 0.7443 0.49502 0.0
H1352 H 0.5233 0.68427 0.64976 0.0
H1353 H 0.49886 0.69292 0.38898 0.0
H1354 H 0.50396 0.70459 0.25638 0.0
H1355 H 0.54999 0.66256 0.22534 0.0
H1356 H 0.54594 0.65137 0.35944 0.0
H1357 H 0.49023 0.58693 0.69978 0.0
H1358 H 0.49231 0.62157 0.66497 0.0
H1359 H 0.53707 0.60809 0.49808 0.0
H1360 H 0.5339 0.57322 0.52895 0.0
H1361 H 0.51696 0.63519 0.44006 0.0
H1362 H 0.54784 0.63055 0.68807 0.0
H1363 H 0.54869 0.61839 0.8219 0.0
H1364 H 0.49618 0.65043 0.87267 0.0
H1365 H 0.49523 0.66303 0.73958 0.0
C1366 C 0.5451 0.72544 0.4395 0.0
C1367 C 0.5298 0.73916 0.44572 0.0
C1368 C 0.54329 0.70665 0.47109 0.0
C1369 C 0.52612 0.70108 0.50969 0.0
C1370 C 0.51159 0.71533 0.52253 0.0
C1371 C 0.51337 0.73421 0.49044 0.0
C1372 C 0.52244 0.67992 0.5271 0.0
C1373 C 0.52163 0.6736 0.60393 0.0
C1374 C 0.52088 0.66578 0.46738 0.0
C1375 C 0.52229 0.6715 0.3849 0.0
C1376 C 0.51021 0.68628 0.35425 0.0
C1377 C 0.51299 0.69289 0.27886 0.0
C1378 C 0.52739 0.6844 0.23258 0.0
C1379 C 0.53894 0.6692 0.26145 0.0
C1380 C 0.53647 0.66279 0.33732 0.0
C1381 C 0.5005 0.59135 0.65561 0.0
C1382 C 0.51201 0.57727 0.61766 0.0
C1383 C 0.50182 0.61127 0.63598 0.0
C1384 C 0.51529 0.61783 0.58015 0.0
C1385 C 0.52658 0.60367 0.54144 0.0
C1386 C 0.52483 0.58366 0.55943 0.0
C1387 C 0.51786 0.63936 0.56311 0.0
C1388 C 0.51849 0.64581 0.48614 0.0
C1389 C 0.51988 0.65355 0.62244 0.0
C1390 C 0.52142 0.64763 0.70411 0.0
C1391 C 0.53661 0.63515 0.72817 0.0
C1392 C 0.53711 0.62818 0.80375 0.0
C1393 C 0.52249 0.63361 0.8556 0.0
C1394 C 0.50752 0.64628 0.83247 0.0
C1395 C 0.50708 0.65348 0.75718 0.0
H1396 H 0.52279 0.62796 0.91358 0.0
H1397 H 0.52954 0.68951 0.17424 0.0
H1398 H 0.78035 0.5458 0.46637 0.0
H1399 H 0.81221 0.54654 0.53204 0.0
H1400 H 0.82222 0.48646 0.46416 0.0
H1401 H 0.79017 0.4855 0.40421 0.0
H1402 H 0.84199 0.48947 0.57198 0.0
H1403 H 0.83765 0.53311 0.35817 0.0
H1404 H 0.82548 0.56074 0.28027 0.0
H1405 H 0.84159 0.6009 0.45989 0.0
H1406 H 0.85369 0.5734 0.53907 0.0
H1407 H 0.94841 0.52731 0.4972 0.0
H1408 H 0.91348 0.5276 0.46521 0.0
H1409 H 0.89949 0.51165 0.6988 0.0
H1410 H 0.93427 0.51095 0.73108 0.0
H1411 H 0.88261 0.54731 0.50821 0.0
H1412 H 0.85839 0.47933 0.69519 0.0
H1413 H 0.87216 0.44786 0.73944 0.0
H1414 H 0.91645 0.45098 0.56515 0.0
H1415 H 0.9023 0.48178 0.51679 0.0
C1416 C 0.78913 0.5326 0.46827 0.0
C1417 C 0.78295 0.51567 0.42921 0.0
C1418 C 0.80759 0.53311 0.50431 0.0
C1419 C 0.82044 0.51694 0.49954 0.0
C1420 C 0.81314 0.49942 0.46775 0.0
C1421 C 0.79468 0.49882 0.43323 0.0
C1422 C 0.84173 0.51834 0.52197 0.0
C1423 C 0.85068 0.50226 0.55863 0.0
C1424 C 0.85372 0.53461 0.50195 0.0
C1425 C 0.84638 0.55117 0.45477 0.0
C1426 C 0.83852 0.54781 0.38109 0.0
C1427 C 0.83164 0.56345 0.33674 0.0
C1428 C 0.83271 0.58257 0.3652 0.0
C1429 C 0.84072 0.58608 0.43799 0.0
C1430 C 0.8476 0.57047 0.48262 0.0
C1431 C 0.93791 0.52391 0.54191 0.0
C1432 C 0.94426 0.51901 0.61662 0.0
C1433 C 0.91789 0.52417 0.5236 0.0
C1434 C 0.90375 0.51947 0.57943 0.0
C1435 C 0.91006 0.51505 0.65447 0.0
C1436 C 0.93003 0.51472 0.67281 0.0
C1437 C 0.88248 0.51856 0.55895 0.0
C1438 C 0.87368 0.53469 0.52257 0.0
C1439 C 0.87086 0.50184 0.57501 0.0
C1440 C 0.87953 0.48322 0.6037 0.0
C1441 C 0.87104 0.47329 0.66622 0.0
C1442 C 0.87888 0.45553 0.69187 0.0
C1443 C 0.89536 0.44762 0.65611 0.0
C1444 C 0.90381 0.45724 0.59347 0.0
C1445 C 0.89583 0.47483 0.5667 0.0
H1446 H 0.90148 0.43394 0.67652 0.0
H1447 H 0.82738 0.59467 0.33079 0.0
loop_
_geom_bond_atom_site_label_1
_geom_bond_atom_site_label_2
_geom_bond_distance
_geom_bond_site_symmetry_2
_ccdc_geom_bond_type
H0 C3 0.929 . S
H1 C6 0.929 . S
H2 C8 0.930 . S
C3 H0 0.929 . S
C3 C4 1.398 . S
C3 C5 1.396 . S
C4 C3 1.398 . S
C4 C8 1.407 . S
C5 C3 1.396 . S
C5 C6 1.394 . S
C6 H1 0.929 . S
C6 C5 1.394 . S
C6 C7 1.382 . S
C7 C6 1.382 . S
C7 C8 1.392 . S
C7 N9 1.420 . S
C8 H2 0.930 . S
C8 C4 1.407 . S
C8 C7 1.392 . S
N9 C7 1.420 . S
N9 C10 1.244 . S
C10 N9 1.244 . S
H11 C14 0.929 . S
H12 C17 0.929 . S
H13 C19 0.930 . S
C14 H11 0.929 . S
C14 C15 1.398 1_655 S
C14 C16 1.396 . S
C15 C14 1.398 1_455 S
C15 C19 1.407 . S
C16 C14 1.396 . S
C16 C17 1.394 1_655 S
C17 H12 0.929 . S
C17 C16 1.394 1_455 S
C17 C18 1.382 . S
C18 C17 1.382 . S
C18 C19 1.392 . S
C18 N20 1.420 . S
C19 H13 0.930 . S
C19 C15 1.407 . S
C19 C18 1.392 . S
N20 C18 1.420 . S
N20 C21 1.220 1_455 S
C21 N20 1.220 1_655 S
H22 C25 0.929 . S
H23 C28 0.929 . S
H24 C30 0.930 . S
C25 H22 0.929 . S
C25 C26 1.398 1_565 S
C25 C27 1.396 . S
C26 C25 1.398 1_545 S
C26 C30 1.408 . S
C27 C25 1.396 . S
C27 C28 1.394 1_565 S
C28 H23 0.929 . S
C28 C27 1.394 1_545 S
C28 C29 1.382 . S
C29 C28 1.382 . S
C29 C30 1.392 . S
C29 N31 1.420 . S
C30 H24 0.930 . S
C30 C26 1.408 . S
C30 C29 1.392 . S
N31 C29 1.420 . S
N31 C32 1.221 1_545 S
C32 N31 1.221 1_565 S
H33 C36 0.929 . S
H34 C39 0.929 . S
H35 C41 0.930 . S
C36 H33 0.929 . S
C36 C37 1.398 . S
C36 C38 1.396 . S
C37 C36 1.398 . S
C37 C41 1.407 . S
C38 C36 1.396 . S
C38 C39 1.394 . S
C39 H34 0.929 . S
C39 C38 1.394 . S
C39 C40 1.382 . S
C40 C39 1.382 . S
C40 C41 1.392 . S
C40 N42 1.420 . S
C41 H35 0.930 . S
C41 C37 1.407 . S
C41 C40 1.392 . S
N42 C40 1.420 . S
N42 C43 1.244 . S
C43 N42 1.244 . S
H44 C47 0.929 . S
H45 C50 0.929 . S
H46 C52 0.930 . S
C47 H44 0.929 . S
C47 C48 1.398 1_554 S
C47 C49 1.396 . S
C48 C47 1.398 1_556 S
C48 C52 1.407 . S
C49 C47 1.396 . S
C49 C50 1.394 . S
C50 H45 0.929 . S
C50 C49 1.394 . S
C50 C51 1.382 . S
C51 C50 1.382 . S
C51 C52 1.392 1_554 S
C51 N53 1.420 . S
C52 H46 0.930 . S
C52 C48 1.407 . S
C52 C51 1.392 1_556 S
N53 C51 1.420 . S
N53 C54 1.244 . S
C54 N53 1.244 . S
H55 C58 0.941 . S
H56 C61 0.929 . S
H57 C63 0.930 . S
C58 H55 0.941 . S
C58 C59 1.394 1_654 S
C58 C60 1.390 1_655 S
C59 C58 1.394 1_456 S
C59 C63 1.407 . S
C60 C58 1.390 1_455 S
C60 C61 1.405 . S
C61 H56 0.929 . S
C61 C60 1.405 . S
C61 C62 1.382 . S
C62 C61 1.382 . S
C62 C63 1.392 1_554 S
C62 N64 1.420 . S
C63 H57 0.930 . S
C63 C59 1.407 . S
C63 C62 1.392 1_556 S
N64 C62 1.420 . S
N64 C65 1.247 . S
C65 N64 1.247 . S
H66 C69 0.941 . S
H67 C72 0.929 . S
H68 C74 0.930 . S
C69 H66 0.941 . S
C69 C70 1.394 1_564 S
C69 C71 1.390 1_565 S
C70 C69 1.394 1_546 S
C70 C74 1.407 . S
C71 C69 1.390 1_545 S
C71 C72 1.405 . S
C72 H67 0.929 . S
C72 C71 1.405 . S
C72 C73 1.382 . S
C73 C72 1.382 . S
C73 C74 1.392 1_554 S
C73 N75 1.420 . S
C74 H68 0.930 . S
C74 C70 1.407 . S
C74 C73 1.392 1_556 S
N75 C73 1.420 . S
N75 C76 1.246 . S
C76 N75 1.246 . S
H77 C80 0.929 . S
H78 C83 0.929 . S
H79 C85 0.930 . S
C80 H77 0.929 . S
C80 C81 1.398 1_554 S
C80 C82 1.396 . S
C81 C80 1.398 1_556 S
C81 C85 1.407 . S
C82 C80 1.396 . S
C82 C83 1.394 . S
C83 H78 0.929 . S
C83 C82 1.394 . S
C83 C84 1.382 . S
C84 C83 1.382 . S
C84 C85 1.392 1_554 S
C84 N86 1.420 . S
C85 H79 0.930 . S
C85 C81 1.407 . S
C85 C84 1.392 1_556 S
N86 C84 1.420 . S
N86 C87 1.244 . S
C87 N86 1.244 . S
Pr88 C90 2.880 . S
Pr88 O108 2.567 . S
Pr88 O109 2.490 . S
Pr88 O110 2.695 1_565 S
Pr88 O111 2.512 . S
Pr88 O113 2.437 . S
Pr88 O116 2.436 1_455 S
Pr88 O118 2.438 1_565 S
Pr89 C99 2.880 . S
Pr89 O110 2.436 1_655 S
Pr89 O112 2.438 1_545 S
Pr89 O114 2.561 . S
Pr89 O115 2.490 . S
Pr89 O116 2.695 1_545 S
Pr89 O117 2.512 . S
Pr89 O119 2.437 . S
C90 Pr88 2.880 . S
C90 C91 1.491 . S
C90 O108 1.264 . S
C90 O109 1.225 . S
C91 C90 1.491 . S
C91 C92 1.392 . S
C91 C96 1.356 . S
C92 C91 1.392 . S
C92 C93 1.368 . S
C92 H120 0.929 . S
C93 C92 1.368 . S
C93 C94 1.386 . S
C93 H121 0.929 . S
C94 C93 1.386 . S
C94 C95 1.373 . S
C95 C94 1.373 . S
C95 C96 1.409 . S
C95 H122 0.931 1_455 S
C96 C91 1.356 . S
C96 C95 1.409 . S
C96 H123 0.930 1_455 S
C97 O110 1.254 1_565 S
C97 O111 1.276 . S
C98 O112 1.267 . S
C98 O113 1.278 1_655 S
C99 Pr89 2.880 . S
C99 C100 1.491 . S
C99 O114 1.251 . S
C99 O115 1.225 . S
C100 C99 1.491 . S
C100 C101 1.392 . S
C100 C105 1.356 . S
C101 C100 1.392 . S
C101 C102 1.368 . S
C101 H124 0.929 . S
C102 C101 1.368 . S
C102 C103 1.386 . S
C102 H125 0.929 . S
C103 C102 1.386 . S
C103 C104 1.373 . S
C104 C103 1.373 . S
C104 C105 1.409 . S
C104 H126 0.931 1_655 S
C105 C100 1.356 . S
C105 C104 1.409 . S
C105 H127 0.930 1_655 S
C106 O116 1.270 1_545 S
C106 O117 1.248 . S
C107 O118 1.267 . S
C107 O119 1.278 1_455 S
O108 Pr88 2.567 . S
O108 C90 1.264 . S
O109 Pr88 2.490 . S
O109 C90 1.225 . S
O110 Pr88 2.695 1_545 S
O110 Pr89 2.436 1_455 S
O110 C97 1.254 1_545 S
O111 Pr88 2.512 . S
O111 C97 1.276 . S
O112 Pr89 2.438 1_565 S
O112 C98 1.267 . S
O113 Pr88 2.437 . S
O113 C98 1.278 1_455 S
O114 Pr89 2.561 . S
O114 C99 1.251 . S
O115 Pr89 2.490 . S
O115 C99 1.225 . S
O116 Pr88 2.436 1_655 S
O116 Pr89 2.695 1_565 S
O116 C106 1.270 1_565 S
O117 Pr89 2.512 . S
O117 C106 1.248 . S
O118 Pr88 2.438 1_545 S
O118 C107 1.267 . S
O119 Pr89 2.437 . S
O119 C107 1.278 1_655 S
H120 C92 0.929 . S
H121 C93 0.929 . S
H122 C95 0.931 1_655 S
H123 C96 0.930 1_655 S
H124 C101 0.929 . S
H125 C102 0.929 . S
H126 C104 0.931 1_455 S
H127 C105 0.930 1_455 S
Pr128 C130 2.880 . S
Pr128 O148 2.567 . S
Pr128 O149 2.490 . S
Pr128 O150 2.695 . S
Pr128 O151 2.512 . S
Pr128 O153 2.437 . S
Pr128 O156 2.436 1_545 S
Pr128 O158 2.438 . S
Pr129 C139 2.880 . S
Pr129 O150 2.436 1_565 S
Pr129 O152 2.438 . S
Pr129 O154 2.561 . S
Pr129 O155 2.490 . S
Pr129 O156 2.695 . S
Pr129 O157 2.512 . S
Pr129 O159 2.437 . S
C130 Pr128 2.880 . S
C130 C131 1.491 . S
C130 O148 1.264 . S
C130 O149 1.225 . S
C131 C130 1.491 . S
C131 C132 1.392 . S
C131 C136 1.356 . S
C132 C131 1.392 . S
C132 C133 1.368 . S
C132 H160 0.929 . S
C133 C132 1.368 . S
C133 C134 1.386 . S
C133 H161 0.929 . S
C134 C133 1.386 . S
C134 C135 1.373 . S
C135 C134 1.373 . S
C135 C136 1.409 . S
C135 H162 0.931 1_545 S
C136 C131 1.356 . S
C136 C135 1.409 . S
C136 H163 0.930 1_545 S
C137 O150 1.270 . S
C137 O151 1.248 . S
C138 O152 1.267 . S
C138 O153 1.278 1_565 S
C139 Pr129 2.880 . S
C139 C140 1.491 . S
C139 O154 1.252 . S
C139 O155 1.225 . S
C140 C139 1.491 . S
C140 C141 1.392 . S
C140 C145 1.356 . S
C141 C140 1.392 . S
C141 C142 1.368 . S
C141 H164 0.929 . S
C142 C141 1.368 . S
C142 C143 1.386 . S
C142 H165 0.929 . S
C143 C142 1.386 . S
C143 C144 1.373 . S
C144 C143 1.373 . S
C144 C145 1.409 . S
C144 H166 0.931 1_565 S
C145 C140 1.356 . S
C145 C144 1.409 . S
C145 H167 0.930 1_565 S
C146 O156 1.270 . S
C146 O157 1.248 . S
C147 O158 1.267 . S
C147 O159 1.278 1_545 S
O148 Pr128 2.567 . S
O148 C130 1.264 . S
O149 Pr128 2.490 . S
O149 C130 1.225 . S
O150 Pr128 2.695 . S
O150 Pr129 2.436 1_545 S
O150 C137 1.270 . S
O151 Pr128 2.512 . S
O151 C137 1.248 . S
O152 Pr129 2.438 . S
O152 C138 1.267 . S
O153 Pr128 2.437 . S
O153 C138 1.278 1_545 S
O154 Pr129 2.561 . S
O154 C139 1.252 . S
O155 Pr129 2.490 . S
O155 C139 1.225 . S
O156 Pr128 2.436 1_565 S
O156 Pr129 2.695 . S
O156 C146 1.270 . S
O157 Pr129 2.512 . S
O157 C146 1.248 . S
O158 Pr128 2.438 . S
O158 C147 1.267 . S
O159 Pr129 2.437 . S
O159 C147 1.278 1_565 S
H160 C132 0.929 . S
H161 C133 0.929 . S
H162 C135 0.931 1_565 S
H163 C136 0.930 1_565 S
H164 C141 0.929 . S
H165 C142 0.929 . S
H166 C144 0.931 1_545 S
H167 C145 0.930 1_545 S
Pr168 C170 2.880 . S
Pr168 O188 2.562 . S
Pr168 O189 2.490 . S
Pr168 O190 2.695 . S
Pr168 O191 2.512 . S
Pr168 O193 2.437 . S
Pr168 O196 2.436 . S
Pr168 O198 2.438 . S
Pr169 C179 2.880 . S
Pr169 O190 2.436 . S
Pr169 O192 2.438 . S
Pr169 O194 2.562 . S
Pr169 O195 2.490 . S
Pr169 O196 2.695 . S
Pr169 O197 2.512 . S
Pr169 O199 2.437 . S
C170 Pr168 2.880 . S
C170 C171 1.491 . S
C170 O188 1.254 . S
C170 O189 1.225 . S
C171 C170 1.491 . S
C171 C172 1.392 . S
C171 C176 1.356 . S
C172 C171 1.392 . S
C172 C173 1.368 . S
C172 H200 0.929 . S
C173 C172 1.368 . S
C173 C174 1.386 . S
C173 H201 0.929 . S
C174 C173 1.386 . S
C174 C175 1.373 . S
C175 C174 1.373 . S
C175 C176 1.409 . S
C175 H202 0.931 . S
C176 C171 1.356 . S
C176 C175 1.409 . S
C176 H203 0.930 . S
C177 O190 1.270 . S
C177 O191 1.248 . S
C178 O192 1.267 . S
C178 O193 1.278 . S
C179 Pr169 2.880 . S
C179 C180 1.491 . S
C179 O194 1.254 . S
C179 O195 1.225 . S
C180 C179 1.491 . S
C180 C181 1.392 . S
C180 C185 1.356 . S
C181 C180 1.392 . S
C181 C182 1.368 . S
C181 H204 0.929 . S
C182 C181 1.368 . S
C182 C183 1.386 . S
C182 H205 0.929 . S
C183 C182 1.386 . S
C183 C184 1.373 . S
C184 C183 1.373 . S
C184 C185 1.409 . S
C184 H206 0.931 . S
C185 C180 1.356 . S
C185 C184 1.409 . S
C185 H207 0.930 . S
C186 O196 1.270 . S
C186 O197 1.248 . S
C187 O198 1.267 . S
C187 O199 1.278 . S
O188 Pr168 2.562 . S
O188 C170 1.254 . S
O189 Pr168 2.490 . S
O189 C170 1.225 . S
O190 Pr168 2.695 . S
O190 Pr169 2.436 . S
O190 C177 1.270 . S
O191 Pr168 2.512 . S
O191 C177 1.248 . S
O192 Pr169 2.438 . S
O192 C178 1.267 . S
O193 Pr168 2.437 . S
O193 C178 1.278 . S
O194 Pr169 2.562 . S
O194 C179 1.254 . S
O195 Pr169 2.490 . S
O195 C179 1.225 . S
O196 Pr168 2.436 . S
O196 Pr169 2.695 . S
O196 C186 1.270 . S
O197 Pr169 2.512 . S
O197 C186 1.248 . S
O198 Pr168 2.438 . S
O198 C187 1.267 . S
O199 Pr169 2.437 . S
O199 C187 1.278 . S
H200 C172 0.929 . S
H201 C173 0.929 . S
H202 C175 0.931 . S
H203 C176 0.930 . S
H204 C181 0.929 . S
H205 C182 0.929 . S
H206 C184 0.931 . S
H207 C185 0.930 . S
Pr208 C210 2.880 . S
Pr208 O228 2.562 . S
Pr208 O229 2.490 . S
Pr208 O230 2.695 1_655 S
Pr208 O231 2.512 . S
Pr208 O233 2.437 . S
Pr208 O236 2.436 . S
Pr208 O238 2.438 1_655 S
Pr209 C219 2.880 . S
Pr209 O230 2.436 . S
Pr209 O232 2.438 1_455 S
Pr209 O234 2.562 . S
Pr209 O235 2.490 . S
Pr209 O236 2.695 1_455 S
Pr209 O237 2.512 . S
Pr209 O239 2.437 . S
C210 Pr208 2.880 . S
C210 C211 1.491 . S
C210 O228 1.254 . S
C210 O229 1.225 . S
C211 C210 1.491 . S
C211 C212 1.392 . S
C211 C216 1.356 . S
C212 C211 1.392 . S
C212 C213 1.368 . S
C212 H240 0.929 . S
C213 C212 1.368 . S
C213 C214 1.386 . S
C213 H241 0.929 . S
C214 C213 1.386 . S
C214 C215 1.373 . S
C215 C214 1.373 . S
C215 C216 1.409 . S
C215 H242 0.931 . S
C216 C211 1.356 . S
C216 C215 1.409 . S
C216 H243 0.930 . S
C217 O230 1.255 1_655 S
C217 O231 1.276 . S
C218 O232 1.267 . S
C218 O233 1.278 . S
C219 Pr209 2.880 . S
C219 C220 1.491 . S
C219 O234 1.254 . S
C219 O235 1.225 . S
C220 C219 1.491 . S
C220 C221 1.392 . S
C220 C225 1.356 . S
C221 C220 1.392 . S
C221 C222 1.368 . S
C221 H244 0.929 . S
C222 C221 1.368 . S
C222 C223 1.386 . S
C222 H245 0.929 . S
C223 C222 1.386 . S
C223 C224 1.373 . S
C224 C223 1.373 . S
C224 C225 1.409 . S
C224 H246 0.931 . S
C225 C220 1.356 . S
C225 C224 1.409 . S
C225 H247 0.930 . S
C226 O236 1.270 1_455 S
C226 O237 1.248 . S
C227 O238 1.267 . S
C227 O239 1.278 . S
O228 Pr208 2.562 . S
O228 C210 1.254 . S
O229 Pr208 2.490 . S
O229 C210 1.225 . S
O230 Pr208 2.695 1_455 S
O230 Pr209 2.436 . S
O230 C217 1.255 1_455 S
O231 Pr208 2.512 . S
O231 C217 1.276 . S
O232 Pr209 2.438 1_655 S
O232 C218 1.267 . S
O233 Pr208 2.437 . S
O233 C218 1.278 . S
O234 Pr209 2.562 . S
O234 C219 1.254 . S
O235 Pr209 2.490 . S
O235 C219 1.225 . S
O236 Pr208 2.436 . S
O236 Pr209 2.695 1_655 S
O236 C226 1.270 1_655 S
O237 Pr209 2.512 . S
O237 C226 1.248 . S
O238 Pr208 2.438 1_455 S
O238 C227 1.267 . S
O239 Pr209 2.437 . S
O239 C227 1.278 . S
H240 C212 0.929 . S
H241 C213 0.929 . S
H242 C215 0.931 . S
H243 C216 0.930 . S
H244 C221 0.929 . S
H245 C222 0.929 . S
H246 C224 0.931 . S
H247 C225 0.930 . S
H248 C266 0.951 . S
H249 C268 0.951 . S
H250 C270 0.950 . S
H251 C271 0.950 . S
H252 C273 0.950 . S
H253 C276 0.950 . S
H254 C277 0.950 . S
H255 C279 0.950 . S
H256 C280 0.950 . S
H257 C281 0.951 . S
H258 C283 0.960 . S
H259 C285 0.950 . S
H260 C286 0.950 . S
H261 C288 0.950 . S
H262 C291 0.950 . S
H263 C292 0.950 . S
H264 C294 0.950 . S
H265 C295 0.950 . S
C266 H248 0.951 . S
C266 C267 1.371 . S
C266 C268 1.388 . S
C267 C266 1.371 . S
C267 C271 1.380 1_545 S
C268 H249 0.951 . S
C268 C266 1.388 . S
C268 C269 1.364 1_545 S
C269 C268 1.364 1_565 S
C269 C270 1.415 . S
C269 C272 1.499 . S
C270 H250 0.950 . S
C270 C269 1.415 . S
C270 C271 1.374 . S
C271 H251 0.950 . S
C271 C267 1.380 1_565 S
C271 C270 1.374 . S
C272 C269 1.499 . S
C272 C273 1.362 1_565 S
C272 C274 1.399 . S
C273 H252 0.950 . S
C273 C272 1.362 1_545 S
C273 C289 1.377 . S
C274 C272 1.399 . S
C274 C275 1.524 . S
C274 C288 1.377 . S
C275 C274 1.524 . S
C275 C276 1.397 . S
C275 C280 1.363 . S
C276 H253 0.950 . S
C276 C275 1.397 . S
C276 C277 1.334 . S
C277 H254 0.950 . S
C277 C276 1.334 . S
C277 C278 1.287 . S
C278 C277 1.287 . S
C278 C279 1.524 . S
C278 H297 0.913 . S
C279 H255 0.950 . S
C279 C278 1.524 . S
C279 C280 1.415 . S
C280 H256 0.950 . S
C280 C275 1.363 . S
C280 C279 1.415 . S
C281 H257 0.951 . S
C281 C282 1.366 1_565 S
C281 C283 1.390 . S
C282 C281 1.366 1_545 S
C282 C286 1.385 . S
C283 H258 0.960 . S
C283 C281 1.390 . S
C283 C284 1.358 1_565 S
C284 C283 1.358 1_545 S
C284 C285 1.414 . S
C284 C287 1.499 . S
C285 H259 0.950 . S
C285 C284 1.414 . S
C285 C286 1.374 . S
C286 H260 0.950 . S
C286 C282 1.385 . S
C286 C285 1.374 . S
C287 C284 1.499 . S
C287 C288 1.373 1_545 S
C287 C289 1.389 . S
C288 H261 0.950 . S
C288 C274 1.377 . S
C288 C287 1.373 1_565 S
C289 C273 1.377 . S
C289 C287 1.389 . S
C289 C290 1.524 . S
C290 C289 1.524 . S
C290 C291 1.397 . S
C290 C295 1.363 . S
C291 H262 0.950 . S
C291 C290 1.397 . S
C291 C292 1.334 . S
C292 H263 0.950 . S
C292 C291 1.334 . S
C292 C293 1.287 . S
C293 C292 1.287 . S
C293 C294 1.524 . S
C293 H296 0.999 . S
C294 H264 0.950 . S
C294 C293 1.524 . S
C294 C295 1.415 . S
C295 H265 0.950 . S
C295 C290 1.363 . S
C295 C294 1.415 . S
H296 C293 0.999 . S
H297 C278 0.913 . S
H298 C316 0.951 . S
H299 C318 0.951 . S
H300 C320 0.950 . S
H301 C321 0.950 . S
H302 C323 0.950 . S
H303 C326 0.950 . S
H304 C327 0.950 . S
H305 C329 0.950 . S
H306 C330 0.950 . S
H307 C331 0.951 . S
H308 C333 0.951 . S
H309 C335 0.950 . S
H310 C336 0.950 . S
H311 C338 0.950 . S
H312 C341 0.950 . S
H313 C342 0.950 . S
H314 C344 0.950 . S
H315 C345 0.950 . S
C316 H298 0.951 . S
C316 C317 1.366 . S
C316 C318 1.388 . S
C317 C316 1.366 . S
C317 C321 1.385 . S
C318 H299 0.951 . S
C318 C316 1.388 . S
C318 C319 1.366 . S
C319 C318 1.366 . S
C319 C320 1.414 . S
C319 C322 1.499 . S
C320 H300 0.950 . S
C320 C319 1.414 . S
C320 C321 1.374 . S
C321 H301 0.950 . S
C321 C317 1.385 . S
C321 C320 1.374 . S
C322 C319 1.499 . S
C322 C323 1.373 . S
C322 C324 1.389 . S
C323 H302 0.950 . S
C323 C322 1.373 . S
C323 C339 1.377 . S
C324 C322 1.389 . S
C324 C325 1.524 . S
C324 C338 1.377 . S
C325 C324 1.524 . S
C325 C326 1.397 . S
C325 C330 1.363 . S
C326 H303 0.950 . S
C326 C325 1.397 . S
C326 C327 1.334 . S
C327 H304 0.950 . S
C327 C326 1.334 . S
C327 C328 1.287 . S
C328 C327 1.287 . S
C328 C329 1.524 . S
C328 H347 0.913 . S
C329 H305 0.950 . S
C329 C328 1.524 . S
C329 C330 1.415 . S
C330 H306 0.950 . S
C330 C325 1.363 . S
C330 C329 1.415 . S
C331 H307 0.951 . S
C331 C332 1.366 . S
C331 C333 1.388 . S
C332 C331 1.366 . S
C332 C336 1.385 . S
C333 H308 0.951 . S
C333 C331 1.388 . S
C333 C334 1.366 . S
C334 C333 1.366 . S
C334 C335 1.414 . S
C334 C337 1.499 . S
C335 H309 0.950 . S
C335 C334 1.414 . S
C335 C336 1.374 . S
C336 H310 0.950 . S
C336 C332 1.385 . S
C336 C335 1.374 . S
C337 C334 1.499 . S
C337 C338 1.373 . S
C337 C339 1.389 . S
C338 H311 0.950 . S
C338 C324 1.377 . S
C338 C337 1.373 . S
C339 C323 1.377 . S
C339 C337 1.389 . S
C339 C340 1.524 . S
C340 C339 1.524 . S
C340 C341 1.397 . S
C340 C345 1.363 . S
C341 H312 0.950 . S
C341 C340 1.397 . S
C341 C342 1.334 . S
C342 H313 0.950 . S
C342 C341 1.334 . S
C342 C343 1.287 . S
C343 C342 1.287 . S
C343 C344 1.524 . S
C343 H346 0.999 . S
C344 H314 0.950 . S
C344 C343 1.524 . S
C344 C345 1.415 . S
C345 H315 0.950 . S
C345 C340 1.363 . S
C345 C344 1.415 . S
H346 C343 0.999 . S
H347 C328 0.913 . S
H348 C366 0.951 . S
H349 C368 0.951 . S
H350 C370 0.950 . S
H351 C371 0.950 . S
H352 C373 0.950 . S
H353 C376 0.950 . S
H354 C377 0.950 . S
H355 C379 0.950 . S
H356 C380 0.950 . S
H357 C381 0.951 . S
H358 C383 0.951 . S
H359 C385 0.950 . S
H360 C386 0.950 . S
H361 C388 0.950 . S
H362 C391 0.950 . S
H363 C392 0.950 . S
H364 C394 0.950 . S
H365 C395 0.950 . S
C366 H348 0.951 . S
C366 C367 1.366 . S
C366 C368 1.388 . S
C367 C366 1.366 . S
C367 C371 1.385 . S
C368 H349 0.951 . S
C368 C366 1.388 . S
C368 C369 1.366 . S
C369 C368 1.366 . S
C369 C370 1.414 . S
C369 C372 1.499 . S
C370 H350 0.950 . S
C370 C369 1.414 . S
C370 C371 1.374 . S
C371 H351 0.950 . S
C371 C367 1.385 . S
C371 C370 1.374 . S
C372 C369 1.499 . S
C372 C373 1.373 . S
C372 C374 1.389 . S
C373 H352 0.950 . S
C373 C372 1.373 . S
C373 C389 1.377 . S
C374 C372 1.389 . S
C374 C375 1.524 . S
C374 C388 1.377 . S
C375 C374 1.524 . S
C375 C376 1.397 . S
C375 C380 1.363 . S
C376 H353 0.950 . S
C376 C375 1.397 . S
C376 C377 1.334 . S
C377 H354 0.950 . S
C377 C376 1.334 . S
C377 C378 1.287 . S
C378 C377 1.287 . S
C378 C379 1.524 . S
C378 H397 0.913 . S
C379 H355 0.950 . S
C379 C378 1.524 . S
C379 C380 1.415 . S
C380 H356 0.950 . S
C380 C375 1.363 . S
C380 C379 1.415 . S
C381 H357 0.951 . S
C381 C382 1.366 . S
C381 C383 1.388 . S
C382 C381 1.366 . S
C382 C386 1.385 . S
C383 H358 0.951 . S
C383 C381 1.388 . S
C383 C384 1.366 . S
C384 C383 1.366 . S
C384 C385 1.414 . S
C384 C387 1.499 . S
C385 H359 0.950 . S
C385 C384 1.414 . S
C385 C386 1.374 . S
C386 H360 0.950 . S
C386 C382 1.385 . S
C386 C385 1.374 . S
C387 C384 1.499 . S
C387 C388 1.373 . S
C387 C389 1.389 . S
C388 H361 0.950 . S
C388 C374 1.377 . S
C388 C387 1.373 . S
C389 C373 1.377 . S
C389 C387 1.389 . S
C389 C390 1.524 . S
C390 C389 1.524 . S
C390 C391 1.397 . S
C390 C395 1.363 . S
C391 H362 0.950 . S
C391 C390 1.397 . S
C391 C392 1.334 . S
C392 H363 0.950 . S
C392 C391 1.334 . S
C392 C393 1.287 . S
C393 C392 1.287 . S
C393 C394 1.524 . S
C393 H396 0.999 . S
C394 H364 0.950 . S
C394 C393 1.524 . S
C394 C395 1.415 . S
C395 H365 0.950 . S
C395 C390 1.363 . S
C395 C394 1.415 . S
H396 C393 0.999 . S
H397 C378 0.913 . S
H398 C416 0.951 . S
H399 C418 0.951 . S
H400 C420 0.950 . S
H401 C421 0.950 . S
H402 C423 0.950 . S
H403 C426 0.950 1_655 S
H404 C427 0.950 . S
H405 C429 0.950 . S
H406 C430 0.950 . S
H407 C431 0.951 . S
H408 C433 0.951 . S
H409 C435 0.950 . S
H410 C436 0.950 . S
H411 C438 0.950 . S
H412 C441 0.950 1_455 S
H413 C442 0.950 . S
H414 C444 0.950 . S
H415 C445 0.950 . S
C416 H398 0.951 . S
C416 C417 1.401 . S
C416 C418 1.388 . S
C417 C416 1.401 . S
C417 C421 1.349 1_455 S
C418 H399 0.951 . S
C418 C416 1.388 . S
C418 C419 1.398 . S
C419 C418 1.398 . S
C419 C420 1.382 1_455 S
C419 C422 1.498 . S
C420 H400 0.950 . S
C420 C419 1.382 1_655 S
C420 C421 1.374 . S
C421 H401 0.950 . S
C421 C417 1.349 1_655 S
C421 C420 1.374 . S
C422 C419 1.498 . S
C422 C423 1.373 1_455 S
C422 C424 1.390 . S
C423 H402 0.950 . S
C423 C422 1.373 1_655 S
C423 C439 1.377 . S
C424 C422 1.390 . S
C424 C425 1.524 . S
C424 C438 1.377 . S
C425 C424 1.524 . S
C425 C426 1.397 . S
C425 C430 1.363 . S
C426 H403 0.950 1_455 S
C426 C425 1.397 . S
C426 C427 1.334 . S
C427 H404 0.950 . S
C427 C426 1.334 . S
C427 C428 1.287 . S
C428 C427 1.287 . S
C428 C429 1.524 . S
C428 H447 0.913 . S
C429 H405 0.950 . S
C429 C428 1.524 . S
C429 C430 1.415 . S
C430 H406 0.950 . S
C430 C425 1.363 . S
C430 C429 1.415 . S
C431 H407 0.951 . S
C431 C432 1.366 1_655 S
C431 C433 1.388 . S
C432 C431 1.366 1_455 S
C432 C436 1.385 . S
C433 H408 0.951 . S
C433 C431 1.388 . S
C433 C434 1.366 1_655 S
C434 C433 1.366 1_455 S
C434 C435 1.414 . S
C434 C437 1.499 . S
C435 H409 0.950 . S
C435 C434 1.414 . S
C435 C436 1.374 . S
C436 H410 0.950 . S
C436 C432 1.385 . S
C436 C435 1.374 . S
C437 C434 1.499 . S
C437 C438 1.373 . S
C437 C439 1.389 1_455 S
C438 H411 0.950 . S
C438 C424 1.377 . S
C438 C437 1.373 . S
C439 C423 1.377 . S
C439 C437 1.389 1_655 S
C439 C440 1.524 . S
C440 C439 1.524 . S
C440 C441 1.397 . S
C440 C445 1.363 . S
C441 H412 0.950 1_655 S
C441 C440 1.397 . S
C441 C442 1.334 . S
C442 H413 0.950 . S
C442 C441 1.334 . S
C442 C443 1.287 . S
C443 C442 1.287 . S
C443 C444 1.524 . S
C443 H446 0.999 . S
C444 H414 0.950 . S
C444 C443 1.524 . S
C444 C445 1.415 . S
C445 H415 0.950 . S
C445 C440 1.363 . S
C445 C444 1.415 . S
H446 C443 0.999 . S
H447 C428 0.913 . S
H448 C466 0.951 . S
H449 C468 0.951 . S
H450 C470 0.950 . S
H451 C471 0.950 . S
H452 C473 0.950 . S
H453 C476 0.950 . S
H454 C477 0.950 . S
H455 C479 0.950 . S
H456 C480 0.950 . S
H457 C481 0.951 . S
H458 C483 0.951 1_554 S
H459 C485 0.950 . S
H460 C486 0.950 . S
H461 C488 0.950 . S
H462 C491 0.950 1_556 S
H463 C492 0.950 . S
H464 C494 0.950 . S
H465 C495 0.950 . S
C466 H448 0.951 . S
C466 C467 1.361 1_545 S
C466 C468 1.388 . S
C467 C466 1.361 1_565 S
C467 C471 1.390 . S
C468 H449 0.951 . S
C468 C466 1.388 . S
C468 C469 1.366 1_545 S
C469 C468 1.366 1_565 S
C469 C470 1.414 . S
C469 C472 1.499 . S
C470 H450 0.950 . S
C470 C469 1.414 . S
C470 C471 1.374 . S
C471 H451 0.950 . S
C471 C467 1.390 . S
C471 C470 1.374 . S
C472 C469 1.499 . S
C472 C473 1.373 1_565 S
C472 C474 1.389 . S
C473 H452 0.950 . S
C473 C472 1.373 1_545 S
C473 C489 1.377 . S
C474 C472 1.389 . S
C474 C475 1.524 . S
C474 C488 1.377 1_554 S
C475 C474 1.524 . S
C475 C476 1.397 . S
C475 C480 1.363 1_554 S
C476 H453 0.950 . S
C476 C475 1.397 . S
C476 C477 1.334 . S
C477 H454 0.950 . S
C477 C476 1.334 . S
C477 C478 1.287 1_554 S
C478 C477 1.287 1_556 S
C478 C479 1.524 . S
C478 H497 0.913 . S
C479 H455 0.950 . S
C479 C478 1.524 . S
C479 C480 1.415 . S
C480 H456 0.950 . S
C480 C475 1.363 1_556 S
C480 C479 1.415 . S
C481 H457 0.951 . S
C481 C482 1.366 . S
C481 C483 1.388 . S
C482 C481 1.366 . S
C482 C486 1.385 1_565 S
C483 H458 0.951 1_556 S
C483 C481 1.388 . S
C483 C484 1.365 1_565 S
C484 C483 1.365 1_545 S
C484 C485 1.414 . S
C484 C487 1.498 . S
C485 H459 0.950 . S
C485 C484 1.414 . S
C485 C486 1.374 . S
C486 H460 0.950 . S
C486 C482 1.385 1_545 S
C486 C485 1.374 . S
C487 C484 1.498 . S
C487 C488 1.362 1_545 S
C487 C489 1.400 1_556 S
C488 H461 0.950 . S
C488 C474 1.377 1_556 S
C488 C487 1.362 1_565 S
C489 C473 1.377 . S
C489 C487 1.400 1_554 S
C489 C490 1.524 . S
C490 C489 1.524 . S
C490 C491 1.397 . S
C490 C495 1.363 . S
C491 H462 0.950 1_554 S
C491 C490 1.397 . S
C491 C492 1.334 . S
C492 H463 0.950 . S
C492 C491 1.334 . S
C492 C493 1.287 . S
C493 C492 1.287 . S
C493 C494 1.524 . S
C493 H496 0.999 . S
C494 H464 0.950 . S
C494 C493 1.524 . S
C494 C495 1.415 . S
C495 H465 0.950 . S
C495 C490 1.363 . S
C495 C494 1.415 . S
H496 C493 0.999 . S
H497 C478 0.913 . S
H498 C516 0.951 . S
H499 C518 0.951 . S
H500 C520 0.950 . S
H501 C521 0.950 . S
H502 C523 0.950 . S
H503 C526 0.950 . S
H504 C527 0.950 . S
H505 C529 0.950 . S
H506 C530 0.950 . S
H507 C531 0.951 . S
H508 C533 0.951 . S
H509 C535 0.950 . S
H510 C536 0.950 . S
H511 C538 0.950 . S
H512 C541 0.950 . S
H513 C542 0.950 . S
H514 C544 0.950 1_554 S
H515 C545 0.950 . S
C516 H498 0.951 . S
C516 C517 1.366 . S
C516 C518 1.388 . S
C517 C516 1.366 . S
C517 C521 1.385 . S
C518 H499 0.951 . S
C518 C516 1.388 . S
C518 C519 1.366 . S
C519 C518 1.366 . S
C519 C520 1.414 . S
C519 C522 1.499 . S
C520 H500 0.950 . S
C520 C519 1.414 . S
C520 C521 1.374 . S
C521 H501 0.950 . S
C521 C517 1.385 . S
C521 C520 1.374 . S
C522 C519 1.499 . S
C522 C523 1.373 . S
C522 C524 1.389 . S
C523 H502 0.950 . S
C523 C522 1.373 . S
C523 C539 1.377 . S
C524 C522 1.389 . S
C524 C525 1.524 . S
C524 C538 1.377 . S
C525 C524 1.524 . S
C525 C526 1.397 . S
C525 C530 1.363 . S
C526 H503 0.950 . S
C526 C525 1.397 . S
C526 C527 1.334 . S
C527 H504 0.950 . S
C527 C526 1.334 . S
C527 C528 1.287 . S
C528 C527 1.287 . S
C528 C529 1.524 . S
C528 H547 0.913 . S
C529 H505 0.950 . S
C529 C528 1.524 . S
C529 C530 1.415 . S
C530 H506 0.950 . S
C530 C525 1.363 . S
C530 C529 1.415 . S
C531 H507 0.951 . S
C531 C532 1.366 . S
C531 C533 1.388 . S
C532 C531 1.366 . S
C532 C536 1.385 . S
C533 H508 0.951 . S
C533 C531 1.388 . S
C533 C534 1.366 . S
C534 C533 1.366 . S
C534 C535 1.414 . S
C534 C537 1.499 . S
C535 H509 0.950 . S
C535 C534 1.414 . S
C535 C536 1.374 . S
C536 H510 0.950 . S
C536 C532 1.385 . S
C536 C535 1.374 . S
C537 C534 1.499 . S
C537 C538 1.373 1_556 S
C537 C539 1.389 1_556 S
C538 H511 0.950 . S
C538 C524 1.377 . S
C538 C537 1.373 1_554 S
C539 C523 1.377 . S
C539 C537 1.389 1_554 S
C539 C540 1.524 1_554 S
C540 C539 1.524 1_556 S
C540 C541 1.397 . S
C540 C545 1.363 1_556 S
C541 H512 0.950 . S
C541 C540 1.397 . S
C541 C542 1.334 . S
C542 H513 0.950 . S
C542 C541 1.334 . S
C542 C543 1.287 . S
C543 C542 1.287 . S
C543 C544 1.524 . S
C543 H546 0.999 . S
C544 H514 0.950 1_556 S
C544 C543 1.524 . S
C544 C545 1.415 1_556 S
C545 H515 0.950 . S
C545 C540 1.363 1_554 S
C545 C544 1.415 1_554 S
H546 C543 0.999 . S
H547 C528 0.913 . S
H548 C566 0.951 . S
H549 C568 0.951 . S
H550 C570 0.950 . S
H551 C571 0.950 . S
H552 C573 0.950 . S
H553 C576 0.950 . S
H554 C577 0.950 . S
H555 C579 0.950 . S
H556 C580 0.950 . S
H557 C581 0.951 . S
H558 C583 0.951 . S
H559 C585 0.950 1_554 S
H560 C586 0.950 . S
H561 C588 0.950 . S
H562 C591 0.950 1_554 S
H563 C592 0.950 . S
H564 C594 0.950 . S
H565 C595 0.950 . S
C566 H548 0.951 . S
C566 C567 1.366 . S
C566 C568 1.388 . S
C567 C566 1.366 . S
C567 C571 1.385 . S
C568 H549 0.951 . S
C568 C566 1.388 . S
C568 C569 1.366 . S
C569 C568 1.366 . S
C569 C570 1.414 . S
C569 C572 1.499 . S
C570 H550 0.950 . S
C570 C569 1.414 . S
C570 C571 1.374 . S
C571 H551 0.950 . S
C571 C567 1.385 . S
C571 C570 1.374 . S
C572 C569 1.499 . S
C572 C573 1.373 . S
C572 C574 1.389 . S
C573 H552 0.950 . S
C573 C572 1.373 . S
C573 C589 1.377 . S
C574 C572 1.389 . S
C574 C575 1.524 . S
C574 C588 1.377 . S
C575 C574 1.524 . S
C575 C576 1.397 . S
C575 C580 1.363 . S
C576 H553 0.950 . S
C576 C575 1.397 . S
C576 C577 1.334 . S
C577 H554 0.950 . S
C577 C576 1.334 . S
C577 C578 1.287 . S
C578 C577 1.287 . S
C578 C579 1.524 . S
C578 H597 0.913 . S
C579 H555 0.950 . S
C579 C578 1.524 . S
C579 C580 1.415 . S
C580 H556 0.950 . S
C580 C575 1.363 . S
C580 C579 1.415 . S
C581 H557 0.951 . S
C581 C582 1.366 . S
C581 C583 1.388 . S
C582 C581 1.366 . S
C582 C586 1.385 . S
C583 H558 0.951 . S
C583 C581 1.388 . S
C583 C584 1.366 . S
C584 C583 1.366 . S
C584 C585 1.414 . S
C584 C587 1.499 . S
C585 H559 0.950 1_556 S
C585 C584 1.414 . S
C585 C586 1.374 . S
C586 H560 0.950 . S
C586 C582 1.385 . S
C586 C585 1.374 . S
C587 C584 1.499 . S
C587 C588 1.373 1_556 S
C587 C589 1.389 1_556 S
C588 H561 0.950 . S
C588 C574 1.377 . S
C588 C587 1.373 1_554 S
C589 C573 1.377 . S
C589 C587 1.389 1_554 S
C589 C590 1.524 1_554 S
C590 C589 1.524 1_556 S
C590 C591 1.397 . S
C590 C595 1.363 . S
C591 H562 0.950 1_556 S
C591 C590 1.397 . S
C591 C592 1.334 . S
C592 H563 0.950 . S
C592 C591 1.334 . S
C592 C593 1.287 . S
C593 C592 1.287 . S
C593 C594 1.524 . S
C593 H596 0.999 . S
C594 H564 0.950 . S
C594 C593 1.524 . S
C594 C595 1.415 . S
C595 H565 0.950 . S
C595 C590 1.363 . S
C595 C594 1.415 . S
H596 C593 0.999 . S
H597 C578 0.913 . S
H598 C616 0.951 . S
H599 C618 0.951 . S
H600 C620 0.950 . S
H601 C621 0.950 . S
H602 C623 0.950 . S
H603 C626 0.950 . S
H604 C627 0.950 . S
H605 C629 0.950 . S
H606 C630 0.950 . S
H607 C631 0.951 . S
H608 C633 0.951 . S
H609 C635 0.950 . S
H610 C636 0.950 . S
H611 C638 0.950 . S
H612 C641 0.950 . S
H613 C642 0.950 . S
H614 C644 0.950 . S
H615 C645 0.950 . S
C616 H598 0.951 . S
C616 C617 1.338 1_455 S
C616 C618 1.388 . S
C617 C616 1.338 1_655 S
C617 C621 1.413 . S
C618 H599 0.951 . S
C618 C616 1.388 . S
C618 C619 1.339 1_455 S
C619 C618 1.339 1_655 S
C619 C620 1.441 . S
C619 C622 1.500 . S
C620 H600 0.950 . S
C620 C619 1.441 . S
C620 C621 1.374 . S
C621 H601 0.950 . S
C621 C617 1.413 . S
C621 C620 1.374 . S
C622 C619 1.500 . S
C622 C623 1.373 . S
C622 C624 1.389 1_655 S
C623 H602 0.950 . S
C623 C622 1.373 . S
C623 C639 1.377 . S
C624 C622 1.389 1_455 S
C624 C625 1.524 . S
C624 C638 1.377 1_554 S
C625 C624 1.524 . S
C625 C626 1.397 . S
C625 C630 1.363 . S
C626 H603 0.950 . S
C626 C625 1.397 . S
C626 C627 1.334 1_554 S
C627 H604 0.950 . S
C627 C626 1.334 1_556 S
C627 C628 1.287 . S
C628 C627 1.287 . S
C628 C629 1.524 . S
C628 H647 0.913 . S
C629 H605 0.950 . S
C629 C628 1.524 . S
C629 C630 1.415 1_556 S
C630 H606 0.950 . S
C630 C625 1.363 . S
C630 C629 1.415 1_554 S
C631 H607 0.951 . S
C631 C632 1.366 . S
C631 C633 1.388 . S
C632 C631 1.366 . S
C632 C636 1.385 1_655 S
C633 H608 0.951 . S
C633 C631 1.388 . S
C633 C634 1.366 . S
C634 C633 1.366 . S
C634 C635 1.414 1_655 S
C634 C637 1.500 . S
C635 H609 0.950 . S
C635 C634 1.414 1_455 S
C635 C636 1.374 . S
C636 H610 0.950 . S
C636 C632 1.385 1_455 S
C636 C635 1.374 . S
C637 C634 1.500 . S
C637 C638 1.355 1_655 S
C637 C639 1.408 1_556 S
C638 H611 0.950 . S
C638 C624 1.377 1_556 S
C638 C637 1.355 1_455 S
C639 C623 1.377 . S
C639 C637 1.408 1_554 S
C639 C640 1.524 . S
C640 C639 1.524 . S
C640 C641 1.397 . S
C640 C645 1.363 . S
C641 H612 0.950 . S
C641 C640 1.397 . S
C641 C642 1.334 . S
C642 H613 0.950 . S
C642 C641 1.334 . S
C642 C643 1.287 . S
C643 C642 1.287 . S
C643 C644 1.524 . S
C643 H646 0.999 . S
C644 H614 0.950 . S
C644 C643 1.524 . S
C644 C645 1.415 . S
C645 H615 0.950 . S
C645 C640 1.363 . S
C645 C644 1.415 . S
H646 C643 0.999 . S
H647 C628 0.913 . S
H648 C666 0.956 . S
H649 C668 0.951 . S
H650 C670 0.950 . S
H651 C671 0.948 1_455 S
H652 C673 0.950 . S
H653 C676 0.950 . S
H654 C677 0.950 . S
H655 C679 0.950 . S
H656 C680 0.950 . S
H657 C681 0.951 . S
H658 C683 0.951 . S
H659 C685 0.950 . S
H660 C686 0.950 . S
H661 C688 0.950 1_455 S
H662 C691 0.950 . S
H663 C692 0.950 . S
H664 C694 0.950 . S
H665 C695 0.950 . S
C666 H648 0.956 . S
C666 C667 1.369 . S
C666 C668 1.382 1_455 S
C667 C666 1.369 . S
C667 C671 1.384 1_455 S
C668 H649 0.951 . S
C668 C666 1.382 1_655 S
C668 C669 1.366 . S
C669 C668 1.366 . S
C669 C670 1.414 . S
C669 C672 1.499 . S
C670 H650 0.950 . S
C670 C669 1.414 . S
C670 C671 1.374 . S
C671 H651 0.948 1_655 S
C671 C667 1.384 1_655 S
C671 C670 1.374 . S
C672 C669 1.499 . S
C672 C673 1.373 . S
C672 C674 1.389 1_655 S
C673 H652 0.950 . S
C673 C672 1.373 . S
C673 C689 1.377 . S
C674 C672 1.389 1_455 S
C674 C675 1.524 . S
C674 C688 1.377 1_455 S
C675 C674 1.524 . S
C675 C676 1.397 . S
C675 C680 1.363 . S
C676 H653 0.950 . S
C676 C675 1.397 . S
C676 C677 1.334 . S
C677 H654 0.950 . S
C677 C676 1.334 . S
C677 C678 1.287 . S
C678 C677 1.287 . S
C678 C679 1.524 . S
C678 H697 0.913 . S
C679 H655 0.950 . S
C679 C678 1.524 . S
C679 C680 1.415 . S
C680 H656 0.950 . S
C680 C675 1.363 . S
C680 C679 1.415 . S
C681 H657 0.951 . S
C681 C682 1.366 . S
C681 C683 1.388 . S
C682 C681 1.366 . S
C682 C686 1.385 . S
C683 H658 0.951 . S
C683 C681 1.388 . S
C683 C684 1.366 . S
C684 C683 1.366 . S
C684 C685 1.414 . S
C684 C687 1.499 . S
C685 H659 0.950 . S
C685 C684 1.414 . S
C685 C686 1.374 . S
C686 H660 0.950 . S
C686 C682 1.385 . S
C686 C685 1.374 . S
C687 C684 1.499 . S
C687 C688 1.373 . S
C687 C689 1.389 . S
C688 H661 0.950 1_655 S
C688 C674 1.377 1_655 S
C688 C687 1.373 . S
C689 C673 1.377 . S
C689 C687 1.389 . S
C689 C690 1.524 . S
C690 C689 1.524 . S
C690 C691 1.397 . S
C690 C695 1.363 . S
C691 H662 0.950 . S
C691 C690 1.397 . S
C691 C692 1.334 . S
C692 H663 0.950 . S
C692 C691 1.334 . S
C692 C693 1.287 . S
C693 C692 1.287 . S
C693 C694 1.524 . S
C693 H696 0.999 . S
C694 H664 0.950 . S
C694 C693 1.524 . S
C694 C695 1.415 . S
C695 H665 0.950 . S
C695 C690 1.363 . S
C695 C694 1.415 . S
H696 C693 0.999 . S
H697 C678 0.913 . S
H698 C716 0.951 . S
H699 C718 0.951 . S
H700 C720 0.950 . S
H701 C721 0.950 . S
H702 C723 0.950 . S
H703 C726 0.950 . S
H704 C727 0.950 . S
H705 C729 0.950 . S
H706 C730 0.950 . S
H707 C731 0.951 . S
H708 C733 0.951 . S
H709 C735 0.950 . S
H710 C736 0.950 . S
H711 C738 0.950 1_545 S
H712 C741 0.950 . S
H713 C742 0.950 . S
H714 C744 0.950 . S
H715 C745 0.950 . S
C716 H698 0.951 . S
C716 C717 1.366 1_565 S
C716 C718 1.388 . S
C717 C716 1.366 1_545 S
C717 C721 1.385 . S
C718 H699 0.951 . S
C718 C716 1.388 . S
C718 C719 1.366 . S
C719 C718 1.366 . S
C719 C720 1.414 . S
C719 C722 1.499 . S
C720 H700 0.950 . S
C720 C719 1.414 . S
C720 C721 1.374 1_565 S
C721 H701 0.950 . S
C721 C717 1.385 . S
C721 C720 1.374 1_545 S
C722 C719 1.499 . S
C722 C723 1.373 . S
C722 C724 1.389 1_565 S
C723 H702 0.950 . S
C723 C722 1.373 . S
C723 C739 1.377 . S
C724 C722 1.389 1_545 S
C724 C725 1.524 . S
C724 C738 1.377 1_545 S
C725 C724 1.524 . S
C725 C726 1.397 . S
C725 C730 1.363 . S
C726 H703 0.950 . S
C726 C725 1.397 . S
C726 C727 1.334 . S
C727 H704 0.950 . S
C727 C726 1.334 . S
C727 C728 1.287 . S
C728 C727 1.287 . S
C728 C729 1.524 . S
C728 H747 0.913 . S
C729 H705 0.950 . S
C729 C728 1.524 . S
C729 C730 1.415 . S
C730 H706 0.950 . S
C730 C725 1.363 . S
C730 C729 1.415 . S
C731 H707 0.951 . S
C731 C732 1.366 . S
C731 C733 1.388 . S
C732 C731 1.366 . S
C732 C736 1.385 . S
C733 H708 0.951 . S
C733 C731 1.388 . S
C733 C734 1.366 . S
C734 C733 1.366 . S
C734 C735 1.414 . S
C734 C737 1.499 . S
C735 H709 0.950 . S
C735 C734 1.414 . S
C735 C736 1.374 . S
C736 H710 0.950 . S
C736 C732 1.385 . S
C736 C735 1.374 . S
C737 C734 1.499 . S
C737 C738 1.373 . S
C737 C739 1.389 . S
C738 H711 0.950 1_565 S
C738 C724 1.377 1_565 S
C738 C737 1.373 . S
C739 C723 1.377 . S
C739 C737 1.389 . S
C739 C740 1.524 . S
C740 C739 1.524 . S
C740 C741 1.397 . S
C740 C745 1.363 . S
C741 H712 0.950 . S
C741 C740 1.397 . S
C741 C742 1.334 . S
C742 H713 0.950 . S
C742 C741 1.334 . S
C742 C743 1.287 . S
C743 C742 1.287 . S
C743 C744 1.524 . S
C743 H746 0.999 . S
C744 H714 0.950 . S
C744 C743 1.524 . S
C744 C745 1.415 . S
C745 H715 0.950 . S
C745 C740 1.363 . S
C745 C744 1.415 . S
H746 C743 0.999 . S
H747 C728 0.913 . S
H748 C766 0.951 . S
H749 C768 0.951 . S
H750 C770 0.950 . S
H751 C771 0.950 . S
H752 C773 0.950 . S
H753 C776 0.950 . S
H754 C777 0.950 . S
H755 C779 0.950 . S
H756 C780 0.950 . S
H757 C781 0.951 . S
H758 C783 0.951 . S
H759 C785 0.950 . S
H760 C786 0.950 . S
H761 C788 0.950 . S
H762 C791 0.950 . S
H763 C792 0.950 . S
H764 C794 0.950 . S
H765 C795 0.950 . S
C766 H748 0.951 . S
C766 C767 1.366 . S
C766 C768 1.388 . S
C767 C766 1.366 . S
C767 C771 1.385 . S
C768 H749 0.951 . S
C768 C766 1.388 . S
C768 C769 1.366 . S
C769 C768 1.366 . S
C769 C770 1.414 . S
C769 C772 1.499 . S
C770 H750 0.950 . S
C770 C769 1.414 . S
C770 C771 1.374 . S
C771 H751 0.950 . S
C771 C767 1.385 . S
C771 C770 1.374 . S
C772 C769 1.499 . S
C772 C773 1.373 . S
C772 C774 1.389 . S
C773 H752 0.950 . S
C773 C772 1.373 . S
C773 C789 1.377 . S
C774 C772 1.389 . S
C774 C775 1.524 . S
C774 C788 1.377 . S
C775 C774 1.524 . S
C775 C776 1.397 . S
C775 C780 1.363 . S
C776 H753 0.950 . S
C776 C775 1.397 . S
C776 C777 1.334 . S
C777 H754 0.950 . S
C777 C776 1.334 . S
C777 C778 1.287 . S
C778 C777 1.287 . S
C778 C779 1.524 . S
C778 H797 0.913 . S
C779 H755 0.950 . S
C779 C778 1.524 . S
C779 C780 1.415 . S
C780 H756 0.950 . S
C780 C775 1.363 . S
C780 C779 1.415 . S
C781 H757 0.951 . S
C781 C782 1.366 . S
C781 C783 1.388 . S
C782 C781 1.366 . S
C782 C786 1.385 . S
C783 H758 0.951 . S
C783 C781 1.388 . S
C783 C784 1.366 . S
C784 C783 1.366 . S
C784 C785 1.414 . S
C784 C787 1.499 . S
C785 H759 0.950 . S
C785 C784 1.414 . S
C785 C786 1.374 . S
C786 H760 0.950 . S
C786 C782 1.385 . S
C786 C785 1.374 . S
C787 C784 1.499 . S
C787 C788 1.373 . S
C787 C789 1.389 . S
C788 H761 0.950 . S
C788 C774 1.377 . S
C788 C787 1.373 . S
C789 C773 1.377 . S
C789 C787 1.389 . S
C789 C790 1.524 . S
C790 C789 1.524 . S
C790 C791 1.397 . S
C790 C795 1.363 . S
C791 H762 0.950 . S
C791 C790 1.397 . S
C791 C792 1.334 . S
C792 H763 0.950 . S
C792 C791 1.334 . S
C792 C793 1.287 . S
C793 C792 1.287 . S
C793 C794 1.524 . S
C793 H796 0.999 . S
C794 H764 0.950 . S
C794 C793 1.524 . S
C794 C795 1.415 . S
C795 H765 0.950 . S
C795 C790 1.363 . S
C795 C794 1.415 . S
H796 C793 0.999 . S
H797 C778 0.913 . S
H798 C816 0.951 . S
H799 C818 0.951 . S
H800 C820 0.950 . S
H801 C821 0.950 . S
H802 C823 0.950 . S
H803 C826 0.950 . S
H804 C827 0.950 . S
H805 C829 0.950 . S
H806 C830 0.950 . S
H807 C831 0.951 . S
H808 C833 0.951 . S
H809 C835 0.950 . S
H810 C836 0.950 . S
H811 C838 0.950 . S
H812 C841 0.950 . S
H813 C842 0.950 . S
H814 C844 0.950 . S
H815 C845 0.950 . S
C816 H798 0.951 . S
C816 C817 1.366 . S
C816 C818 1.388 . S
C817 C816 1.366 . S
C817 C821 1.385 . S
C818 H799 0.951 . S
C818 C816 1.388 . S
C818 C819 1.366 . S
C819 C818 1.366 . S
C819 C820 1.414 . S
C819 C822 1.499 . S
C820 H800 0.950 . S
C820 C819 1.414 . S
C820 C821 1.374 . S
C821 H801 0.950 . S
C821 C817 1.385 . S
C821 C820 1.374 . S
C822 C819 1.499 . S
C822 C823 1.373 . S
C822 C824 1.389 . S
C823 H802 0.950 . S
C823 C822 1.373 . S
C823 C839 1.377 . S
C824 C822 1.389 . S
C824 C825 1.524 . S
C824 C838 1.377 . S
C825 C824 1.524 . S
C825 C826 1.397 . S
C825 C830 1.363 . S
C826 H803 0.950 . S
C826 C825 1.397 . S
C826 C827 1.334 . S
C827 H804 0.950 . S
C827 C826 1.334 . S
C827 C828 1.287 . S
C828 C827 1.287 . S
C828 C829 1.524 . S
C828 H847 0.913 . S
C829 H805 0.950 . S
C829 C828 1.524 . S
C829 C830 1.415 . S
C830 H806 0.950 . S
C830 C825 1.363 . S
C830 C829 1.415 . S
C831 H807 0.951 . S
C831 C832 1.366 . S
C831 C833 1.388 . S
C832 C831 1.366 . S
C832 C836 1.385 . S
C833 H808 0.951 . S
C833 C831 1.388 . S
C833 C834 1.366 . S
C834 C833 1.366 . S
C834 C835 1.414 . S
C834 C837 1.499 . S
C835 H809 0.950 . S
C835 C834 1.414 . S
C835 C836 1.374 . S
C836 H810 0.950 . S
C836 C832 1.385 . S
C836 C835 1.374 . S
C837 C834 1.499 . S
C837 C838 1.373 . S
C837 C839 1.389 . S
C838 H811 0.950 . S
C838 C824 1.377 . S
C838 C837 1.373 . S
C839 C823 1.377 . S
C839 C837 1.389 . S
C839 C840 1.524 . S
C840 C839 1.524 . S
C840 C841 1.397 . S
C840 C845 1.363 . S
C841 H812 0.950 . S
C841 C840 1.397 . S
C841 C842 1.334 . S
C842 H813 0.950 . S
C842 C841 1.334 . S
C842 C843 1.287 . S
C843 C842 1.287 . S
C843 C844 1.524 . S
C843 H846 0.999 . S
C844 H814 0.950 . S
C844 C843 1.524 . S
C844 C845 1.415 . S
C845 H815 0.950 . S
C845 C840 1.363 . S
C845 C844 1.415 . S
H846 C843 0.999 . S
H847 C828 0.913 . S
H848 C866 0.951 . S
H849 C868 0.951 . S
H850 C870 0.950 . S
H851 C871 0.950 . S
H852 C873 0.950 . S
H853 C876 0.950 . S
H854 C877 0.950 . S
H855 C879 0.950 . S
H856 C880 0.950 . S
H857 C881 0.951 . S
H858 C883 0.951 1_655 S
H859 C885 0.950 . S
H860 C886 0.950 . S
H861 C888 0.950 . S
H862 C891 0.950 . S
H863 C892 0.950 . S
H864 C894 0.923 1_655 S
H865 C895 0.997 . S
C866 H848 0.951 . S
C866 C867 1.366 1_455 S
C866 C868 1.388 . S
C867 C866 1.366 1_655 S
C867 C871 1.385 . S
C868 H849 0.951 . S
C868 C866 1.388 . S
C868 C869 1.366 . S
C869 C868 1.366 . S
C869 C870 1.414 1_455 S
C869 C872 1.499 . S
C870 H850 0.950 . S
C870 C869 1.414 1_655 S
C870 C871 1.374 . S
C871 H851 0.950 . S
C871 C867 1.385 . S
C871 C870 1.374 . S
C872 C869 1.499 . S
C872 C873 1.373 . S
C872 C874 1.389 . S
C873 H852 0.950 . S
C873 C872 1.373 . S
C873 C889 1.377 . S
C874 C872 1.389 . S
C874 C875 1.524 . S
C874 C888 1.377 . S
C875 C874 1.524 . S
C875 C876 1.397 1_455 S
C875 C880 1.363 . S
C876 H853 0.950 . S
C876 C875 1.397 1_655 S
C876 C877 1.334 . S
C877 H854 0.950 . S
C877 C876 1.334 . S
C877 C878 1.287 1_655 S
C878 C877 1.287 1_455 S
C878 C879 1.524 . S
C878 H897 0.913 . S
C879 H855 0.950 . S
C879 C878 1.524 . S
C879 C880 1.415 . S
C880 H856 0.950 . S
C880 C875 1.363 . S
C880 C879 1.415 . S
C881 H857 0.951 . S
C881 C882 1.366 . S
C881 C883 1.388 . S
C882 C881 1.366 . S
C882 C886 1.385 1_556 S
C883 H858 0.951 1_455 S
C883 C881 1.388 . S
C883 C884 1.366 1_556 S
C884 C883 1.366 1_554 S
C884 C885 1.414 . S
C884 C887 1.499 . S
C885 H859 0.950 . S
C885 C884 1.414 . S
C885 C886 1.374 . S
C886 H860 0.950 . S
C886 C882 1.385 1_554 S
C886 C885 1.374 . S
C887 C884 1.499 . S
C887 C888 1.373 . S
C887 C889 1.389 . S
C888 H861 0.950 . S
C888 C874 1.377 . S
C888 C887 1.373 . S
C889 C873 1.377 . S
C889 C887 1.389 . S
C889 C890 1.524 1_554 S
C890 C889 1.524 1_556 S
C890 C891 1.397 . S
C890 C895 1.322 1_455 S
C891 H862 0.950 . S
C891 C890 1.397 . S
C891 C892 1.334 . S
C892 H863 0.950 . S
C892 C891 1.334 . S
C892 C893 1.287 . S
C893 C892 1.287 . S
C893 C894 1.557 . S
C893 H896 0.999 . S
C894 H864 0.923 1_455 S
C894 C893 1.557 . S
C894 C895 1.411 1_455 S
C895 H865 0.997 . S
C895 C890 1.322 1_655 S
C895 C894 1.411 1_655 S
H896 C893 0.999 . S
H897 C878 0.913 . S
H898 C916 0.951 . S
H899 C918 0.951 . S
H900 C920 0.950 . S
H901 C921 0.950 . S
H902 C923 0.950 . S
H903 C926 0.950 . S
H904 C927 0.950 . S
H905 C929 0.950 1_556 S
H906 C930 0.950 . S
H907 C931 0.951 . S
H908 C933 0.951 . S
H909 C935 0.950 . S
H910 C936 0.950 . S
H911 C938 0.950 . S
H912 C941 0.950 . S
H913 C942 0.950 . S
H914 C944 0.950 . S
H915 C945 0.950 . S
C916 H898 0.951 . S
C916 C917 1.366 1_545 S
C916 C918 1.388 . S
C917 C916 1.366 1_565 S
C917 C921 1.385 . S
C918 H899 0.951 . S
C918 C916 1.388 . S
C918 C919 1.366 . S
C919 C918 1.366 . S
C919 C920 1.414 . S
C919 C922 1.499 . S
C920 H900 0.950 . S
C920 C919 1.414 . S
C920 C921 1.374 1_545 S
C921 H901 0.950 . S
C921 C917 1.385 . S
C921 C920 1.374 1_565 S
C922 C919 1.499 . S
C922 C923 1.373 1_545 S
C922 C924 1.389 . S
C923 H902 0.950 . S
C923 C922 1.373 1_565 S
C923 C939 1.381 . S
C924 C922 1.389 . S
C924 C925 1.524 . S
C924 C938 1.377 . S
C925 C924 1.524 . S
C925 C926 1.397 . S
C925 C930 1.363 . S
C926 H903 0.950 . S
C926 C925 1.397 . S
C926 C927 1.334 . S
C927 H904 0.950 . S
C927 C926 1.334 . S
C927 C928 1.287 . S
C928 C927 1.287 . S
C928 C929 1.524 . S
C928 H947 0.913 . S
C929 H905 0.950 1_554 S
C929 C928 1.524 . S
C929 C930 1.415 . S
C930 H906 0.950 . S
C930 C925 1.363 . S
C930 C929 1.415 . S
C931 H907 0.951 . S
C931 C932 1.366 1_554 S
C931 C933 1.388 . S
C932 C931 1.366 1_556 S
C932 C936 1.385 . S
C933 H908 0.951 . S
C933 C931 1.388 . S
C933 C934 1.366 . S
C934 C933 1.366 . S
C934 C935 1.414 1_554 S
C934 C937 1.499 . S
C935 H909 0.950 . S
C935 C934 1.414 1_556 S
C935 C936 1.374 . S
C936 H910 0.950 . S
C936 C932 1.385 . S
C936 C935 1.374 . S
C937 C934 1.499 . S
C937 C938 1.373 . S
C937 C939 1.364 1_545 S
C938 H911 0.950 . S
C938 C924 1.377 . S
C938 C937 1.373 . S
C939 C923 1.381 . S
C939 C937 1.364 1_565 S
C939 C940 1.549 . S
C940 C939 1.549 . S
C940 C941 1.397 . S
C940 C945 1.363 . S
C941 H912 0.950 . S
C941 C940 1.397 . S
C941 C942 1.334 . S
C942 H913 0.950 . S
C942 C941 1.334 . S
C942 C943 1.287 . S
C943 C942 1.287 . S
C943 C944 1.524 . S
C943 H946 0.999 . S
C944 H914 0.950 . S
C944 C943 1.524 . S
C944 C945 1.415 . S
C945 H915 0.950 . S
C945 C940 1.363 . S
C945 C944 1.415 . S
H946 C943 0.999 . S
H947 C928 0.913 . S
H948 C966 0.951 . S
H949 C968 0.951 . S
H950 C970 0.950 . S
H951 C971 0.950 . S
H952 C973 0.950 . S
H953 C976 0.950 . S
H954 C977 0.950 . S
H955 C979 0.950 . S
H956 C980 0.950 . S
H957 C981 0.951 . S
H958 C983 0.951 . S
H959 C985 0.950 . S
H960 C986 0.950 . S
H961 C988 0.950 . S
H962 C991 0.950 . S
H963 C992 0.950 . S
H964 C994 0.950 . S
H965 C995 0.950 . S
C966 H948 0.951 . S
C966 C967 1.366 . S
C966 C968 1.388 . S
C967 C966 1.366 . S
C967 C971 1.385 . S
C968 H949 0.951 . S
C968 C966 1.388 . S
C968 C969 1.366 . S
C969 C968 1.366 . S
C969 C970 1.414 . S
C969 C972 1.499 . S
C970 H950 0.950 . S
C970 C969 1.414 . S
C970 C971 1.374 . S
C971 H951 0.950 . S
C971 C967 1.385 . S
C971 C970 1.374 . S
C972 C969 1.499 . S
C972 C973 1.373 . S
C972 C974 1.389 . S
C973 H952 0.950 . S
C973 C972 1.373 . S
C973 C989 1.377 . S
C974 C972 1.389 . S
C974 C975 1.524 . S
C974 C988 1.377 . S
C975 C974 1.524 . S
C975 C976 1.397 . S
C975 C980 1.363 . S
C976 H953 0.950 . S
C976 C975 1.397 . S
C976 C977 1.334 . S
C977 H954 0.950 . S
C977 C976 1.334 . S
C977 C978 1.287 . S
C978 C977 1.287 . S
C978 C979 1.524 . S
C978 H997 0.913 . S
C979 H955 0.950 . S
C979 C978 1.524 . S
C979 C980 1.415 . S
C980 H956 0.950 . S
C980 C975 1.363 . S
C980 C979 1.415 . S
C981 H957 0.951 . S
C981 C982 1.366 . S
C981 C983 1.388 . S
C982 C981 1.366 . S
C982 C986 1.385 1_556 S
C983 H958 0.951 . S
C983 C981 1.388 . S
C983 C984 1.366 1_556 S
C984 C983 1.366 1_554 S
C984 C985 1.414 . S
C984 C987 1.499 . S
C985 H959 0.950 . S
C985 C984 1.414 . S
C985 C986 1.374 . S
C986 H960 0.950 . S
C986 C982 1.385 1_554 S
C986 C985 1.374 . S
C987 C984 1.499 . S
C987 C988 1.373 . S
C987 C989 1.389 . S
C988 H961 0.950 . S
C988 C974 1.377 . S
C988 C987 1.373 . S
C989 C973 1.377 . S
C989 C987 1.389 . S
C989 C990 1.524 . S
C990 C989 1.524 . S
C990 C991 1.397 . S
C990 C995 1.363 . S
C991 H962 0.950 . S
C991 C990 1.397 . S
C991 C992 1.334 . S
C992 H963 0.950 . S
C992 C991 1.334 . S
C992 C993 1.287 . S
C993 C992 1.287 . S
C993 C994 1.524 . S
C993 H996 0.999 . S
C994 H964 0.950 . S
C994 C993 1.524 . S
C994 C995 1.415 . S
C995 H965 0.950 . S
C995 C990 1.363 . S
C995 C994 1.415 . S
H996 C993 0.999 . S
H997 C978 0.913 . S
H998 C1016 0.951 . S
H999 C1018 0.951 . S
H1000 C1020 0.950 . S
H1001 C1021 0.950 . S
H1002 C1023 0.950 . S
H1003 C1026 0.950 . S
H1004 C1027 0.950 . S
H1005 C1029 0.950 . S
H1006 C1030 0.950 . S
H1007 C1031 0.951 . S
H1008 C1033 0.951 . S
H1009 C1035 0.950 . S
H1010 C1036 0.950 . S
H1011 C1038 0.950 . S
H1012 C1041 0.950 . S
H1013 C1042 0.950 . S
H1014 C1044 0.950 . S
H1015 C1045 0.950 . S
C1016 H998 0.951 . S
C1016 C1017 1.366 . S
C1016 C1018 1.388 . S
C1017 C1016 1.366 . S
C1017 C1021 1.385 . S
C1018 H999 0.951 . S
C1018 C1016 1.388 . S
C1018 C1019 1.366 . S
C1019 C1018 1.366 . S
C1019 C1020 1.414 . S
C1019 C1022 1.499 . S
C1020 H1000 0.950 . S
C1020 C1019 1.414 . S
C1020 C1021 1.374 . S
C1021 H1001 0.950 . S
C1021 C1017 1.385 . S
C1021 C1020 1.374 . S
C1022 C1019 1.499 . S
C1022 C1023 1.373 . S
C1022 C1024 1.389 . S
C1023 H1002 0.950 . S
C1023 C1022 1.373 . S
C1023 C1039 1.377 . S
C1024 C1022 1.389 . S
C1024 C1025 1.524 . S
C1024 C1038 1.377 . S
C1025 C1024 1.524 . S
C1025 C1026 1.397 . S
C1025 C1030 1.363 . S
C1026 H1003 0.950 . S
C1026 C1025 1.397 . S
C1026 C1027 1.334 . S
C1027 H1004 0.950 . S
C1027 C1026 1.334 . S
C1027 C1028 1.287 . S
C1028 C1027 1.287 . S
C1028 C1029 1.524 . S
C1028 H1047 0.913 . S
C1029 H1005 0.950 . S
C1029 C1028 1.524 . S
C1029 C1030 1.415 . S
C1030 H1006 0.950 . S
C1030 C1025 1.363 . S
C1030 C1029 1.415 . S
C1031 H1007 0.951 . S
C1031 C1032 1.366 . S
C1031 C1033 1.388 . S
C1032 C1031 1.366 . S
C1032 C1036 1.385 1_556 S
C1033 H1008 0.951 . S
C1033 C1031 1.388 . S
C1033 C1034 1.366 1_556 S
C1034 C1033 1.366 1_554 S
C1034 C1035 1.414 . S
C1034 C1037 1.499 . S
C1035 H1009 0.950 . S
C1035 C1034 1.414 . S
C1035 C1036 1.374 . S
C1036 H1010 0.950 . S
C1036 C1032 1.385 1_554 S
C1036 C1035 1.374 . S
C1037 C1034 1.499 . S
C1037 C1038 1.373 . S
C1037 C1039 1.389 . S
C1038 H1011 0.950 . S
C1038 C1024 1.377 . S
C1038 C1037 1.373 . S
C1039 C1023 1.377 . S
C1039 C1037 1.389 . S
C1039 C1040 1.524 1_554 S
C1040 C1039 1.524 1_556 S
C1040 C1041 1.397 . S
C1040 C1045 1.363 . S
C1041 H1012 0.950 . S
C1041 C1040 1.397 . S
C1041 C1042 1.334 . S
C1042 H1013 0.950 . S
C1042 C1041 1.334 . S
C1042 C1043 1.287 . S
C1043 C1042 1.287 . S
C1043 C1044 1.524 . S
C1043 H1046 0.999 . S
C1044 H1014 0.950 . S
C1044 C1043 1.524 . S
C1044 C1045 1.415 . S
C1045 H1015 0.950 . S
C1045 C1040 1.363 . S
C1045 C1044 1.415 . S
H1046 C1043 0.999 . S
H1047 C1028 0.913 . S
H1048 C1066 0.951 . S
H1049 C1068 0.951 . S
H1050 C1070 0.950 . S
H1051 C1071 0.950 . S
H1052 C1073 0.950 . S
H1053 C1076 0.950 1_556 S
H1054 C1077 0.950 . S
H1055 C1079 0.950 . S
H1056 C1080 0.950 . S
H1057 C1081 0.951 . S
H1058 C1083 0.951 . S
H1059 C1085 0.950 . S
H1060 C1086 0.950 . S
H1061 C1088 0.950 . S
H1062 C1091 0.950 . S
H1063 C1092 0.950 . S
H1064 C1094 0.950 . S
H1065 C1095 0.950 . S
C1066 H1048 0.951 . S
C1066 C1067 1.366 1_655 S
C1066 C1068 1.388 . S
C1067 C1066 1.366 1_455 S
C1067 C1071 1.385 . S
C1068 H1049 0.951 . S
C1068 C1066 1.388 . S
C1068 C1069 1.366 1_655 S
C1069 C1068 1.366 1_455 S
C1069 C1070 1.414 . S
C1069 C1072 1.499 . S
C1070 H1050 0.950 . S
C1070 C1069 1.414 . S
C1070 C1071 1.374 . S
C1071 H1051 0.950 . S
C1071 C1067 1.385 . S
C1071 C1070 1.374 . S
C1072 C1069 1.499 . S
C1072 C1073 1.373 . S
C1072 C1074 1.389 . S
C1073 H1052 0.950 . S
C1073 C1072 1.373 . S
C1073 C1089 1.377 . S
C1074 C1072 1.389 . S
C1074 C1075 1.524 . S
C1074 C1088 1.377 . S
C1075 C1074 1.524 . S
C1075 C1076 1.397 1_556 S
C1075 C1080 1.363 1_456 S
C1076 H1053 0.950 1_554 S
C1076 C1075 1.397 1_554 S
C1076 C1077 1.334 . S
C1077 H1054 0.950 . S
C1077 C1076 1.334 . S
C1077 C1078 1.287 . S
C1078 C1077 1.287 . S
C1078 C1079 1.524 1_455 S
C1078 H1097 0.913 . S
C1079 H1055 0.950 . S
C1079 C1078 1.524 1_655 S
C1079 C1080 1.415 . S
C1080 H1056 0.950 . S
C1080 C1075 1.363 1_654 S
C1080 C1079 1.415 . S
C1081 H1057 0.951 . S
C1081 C1082 1.366 . S
C1081 C1083 1.388 . S
C1082 C1081 1.366 . S
C1082 C1086 1.385 1_455 S
C1083 H1058 0.951 . S
C1083 C1081 1.388 . S
C1083 C1084 1.366 . S
C1084 C1083 1.366 . S
C1084 C1085 1.414 1_455 S
C1084 C1087 1.499 . S
C1085 H1059 0.950 . S
C1085 C1084 1.414 1_655 S
C1085 C1086 1.374 . S
C1086 H1060 0.950 . S
C1086 C1082 1.385 1_655 S
C1086 C1085 1.374 . S
C1087 C1084 1.499 . S
C1087 C1088 1.373 . S
C1087 C1089 1.389 . S
C1088 H1061 0.950 . S
C1088 C1074 1.377 . S
C1088 C1087 1.373 . S
C1089 C1073 1.377 . S
C1089 C1087 1.389 . S
C1089 C1090 1.524 . S
C1090 C1089 1.524 . S
C1090 C1091 1.397 1_455 S
C1090 C1095 1.363 . S
C1091 H1062 0.950 . S
C1091 C1090 1.397 1_655 S
C1091 C1092 1.334 . S
C1092 H1063 0.950 . S
C1092 C1091 1.334 . S
C1092 C1093 1.287 1_655 S
C1093 C1092 1.287 1_455 S
C1093 C1094 1.524 . S
C1093 H1096 0.999 . S
C1094 H1064 0.950 . S
C1094 C1093 1.524 . S
C1094 C1095 1.415 . S
C1095 H1065 0.950 . S
C1095 C1090 1.363 . S
C1095 C1094 1.415 . S
H1096 C1093 0.999 . S
H1097 C1078 0.913 . S
H1098 C1116 0.951 1_554 S
H1099 C1118 0.951 . S
H1100 C1120 0.956 . S
H1101 C1121 0.950 . S
H1102 C1123 0.950 . S
H1103 C1126 0.950 . S
H1104 C1127 0.950 . S
H1105 C1129 0.950 . S
H1106 C1130 0.950 1_554 S
H1107 C1131 0.951 . S
H1108 C1133 0.953 . S
H1109 C1135 0.950 . S
H1110 C1136 0.950 . S
H1111 C1138 0.950 . S
H1112 C1141 0.950 . S
H1113 C1142 0.950 . S
H1114 C1144 0.950 . S
H1115 C1145 0.950 . S
C1116 H1098 0.951 1_556 S
C1116 C1117 1.366 . S
C1116 C1118 1.388 . S
C1117 C1116 1.366 . S
C1117 C1121 1.385 1_545 S
C1118 H1099 0.951 . S
C1118 C1116 1.388 . S
C1118 C1119 1.366 . S
C1119 C1118 1.366 . S
C1119 C1120 1.407 1_545 S
C1119 C1122 1.499 . S
C1120 H1100 0.956 . S
C1120 C1119 1.407 1_565 S
C1120 C1121 1.376 . S
C1121 H1101 0.950 . S
C1121 C1117 1.385 1_565 S
C1121 C1120 1.376 . S
C1122 C1119 1.499 . S
C1122 C1123 1.373 1_545 S
C1122 C1124 1.389 . S
C1123 H1102 0.950 . S
C1123 C1122 1.373 1_565 S
C1123 C1139 1.377 . S
C1124 C1122 1.389 . S
C1124 C1125 1.524 . S
C1124 C1138 1.377 . S
C1125 C1124 1.524 . S
C1125 C1126 1.397 . S
C1125 C1130 1.363 . S
C1126 H1103 0.950 . S
C1126 C1125 1.397 . S
C1126 C1127 1.334 . S
C1127 H1104 0.950 . S
C1127 C1126 1.334 . S
C1127 C1128 1.287 . S
C1128 C1127 1.287 . S
C1128 C1129 1.524 1_556 S
C1128 H1147 0.913 . S
C1129 H1105 0.950 . S
C1129 C1128 1.524 1_554 S
C1129 C1130 1.415 1_554 S
C1130 H1106 0.950 1_556 S
C1130 C1125 1.363 . S
C1130 C1129 1.415 1_556 S
C1131 H1107 0.951 . S
C1131 C1132 1.366 . S
C1131 C1133 1.388 . S
C1132 C1131 1.366 . S
C1132 C1136 1.385 . S
C1133 H1108 0.953 . S
C1133 C1131 1.388 . S
C1133 C1134 1.366 . S
C1134 C1133 1.366 . S
C1134 C1135 1.414 . S
C1134 C1137 1.499 . S
C1135 H1109 0.950 . S
C1135 C1134 1.414 . S
C1135 C1136 1.374 . S
C1136 H1110 0.950 . S
C1136 C1132 1.385 . S
C1136 C1135 1.374 . S
C1137 C1134 1.499 . S
C1137 C1138 1.373 . S
C1137 C1139 1.389 1_545 S
C1138 H1111 0.950 . S
C1138 C1124 1.377 . S
C1138 C1137 1.373 . S
C1139 C1123 1.377 . S
C1139 C1137 1.389 1_565 S
C1139 C1140 1.524 . S
C1140 C1139 1.524 . S
C1140 C1141 1.397 . S
C1140 C1145 1.363 . S
C1141 H1112 0.950 . S
C1141 C1140 1.397 . S
C1141 C1142 1.334 . S
C1142 H1113 0.950 . S
C1142 C1141 1.334 . S
C1142 C1143 1.287 . S
C1143 C1142 1.287 . S
C1143 C1144 1.524 . S
C1143 H1146 0.999 . S
C1144 H1114 0.950 . S
C1144 C1143 1.524 . S
C1144 C1145 1.415 . S
C1145 H1115 0.950 . S
C1145 C1140 1.363 . S
C1145 C1144 1.415 . S
H1146 C1143 0.999 . S
H1147 C1128 0.913 . S
H1148 C1166 0.951 1_554 S
H1149 C1168 0.951 . S
H1150 C1170 0.950 . S
H1151 C1171 0.950 . S
H1152 C1173 0.950 . S
H1153 C1176 0.950 . S
H1154 C1177 0.950 . S
H1155 C1179 0.950 1_554 S
H1156 C1180 0.950 . S
H1157 C1181 0.951 . S
H1158 C1183 0.951 . S
H1159 C1185 0.950 . S
H1160 C1186 0.950 . S
H1161 C1188 0.950 . S
H1162 C1191 0.950 . S
H1163 C1192 0.950 . S
H1164 C1194 0.950 . S
H1165 C1195 0.950 . S
C1166 H1148 0.951 1_556 S
C1166 C1167 1.366 . S
C1166 C1168 1.388 . S
C1167 C1166 1.366 . S
C1167 C1171 1.385 . S
C1168 H1149 0.951 . S
C1168 C1166 1.388 . S
C1168 C1169 1.366 . S
C1169 C1168 1.366 . S
C1169 C1170 1.414 . S
C1169 C1172 1.499 . S
C1170 H1150 0.950 . S
C1170 C1169 1.414 . S
C1170 C1171 1.374 . S
C1171 H1151 0.950 . S
C1171 C1167 1.385 . S
C1171 C1170 1.374 . S
C1172 C1169 1.499 . S
C1172 C1173 1.373 . S
C1172 C1174 1.389 . S
C1173 H1152 0.950 . S
C1173 C1172 1.373 . S
C1173 C1189 1.377 . S
C1174 C1172 1.389 . S
C1174 C1175 1.524 . S
C1174 C1188 1.377 . S
C1175 C1174 1.524 . S
C1175 C1176 1.397 . S
C1175 C1180 1.363 . S
C1176 H1153 0.950 . S
C1176 C1175 1.397 . S
C1176 C1177 1.334 . S
C1177 H1154 0.950 . S
C1177 C1176 1.334 . S
C1177 C1178 1.287 . S
C1178 C1177 1.287 . S
C1178 C1179 1.524 . S
C1178 H1197 0.913 . S
C1179 H1155 0.950 1_556 S
C1179 C1178 1.524 . S
C1179 C1180 1.415 . S
C1180 H1156 0.950 . S
C1180 C1175 1.363 . S
C1180 C1179 1.415 . S
C1181 H1157 0.951 . S
C1181 C1182 1.366 . S
C1181 C1183 1.388 . S
C1182 C1181 1.366 . S
C1182 C1186 1.385 . S
C1183 H1158 0.951 . S
C1183 C1181 1.388 . S
C1183 C1184 1.366 . S
C1184 C1183 1.366 . S
C1184 C1185 1.414 . S
C1184 C1187 1.499 . S
C1185 H1159 0.950 . S
C1185 C1184 1.414 . S
C1185 C1186 1.374 . S
C1186 H1160 0.950 . S
C1186 C1182 1.385 . S
C1186 C1185 1.374 . S
C1187 C1184 1.499 . S
C1187 C1188 1.373 . S
C1187 C1189 1.389 . S
C1188 H1161 0.950 . S
C1188 C1174 1.377 . S
C1188 C1187 1.373 . S
C1189 C1173 1.377 . S
C1189 C1187 1.389 . S
C1189 C1190 1.524 . S
C1190 C1189 1.524 . S
C1190 C1191 1.397 . S
C1190 C1195 1.363 . S
C1191 H1162 0.950 . S
C1191 C1190 1.397 . S
C1191 C1192 1.334 . S
C1192 H1163 0.950 . S
C1192 C1191 1.334 . S
C1192 C1193 1.287 . S
C1193 C1192 1.287 . S
C1193 C1194 1.524 . S
C1193 H1196 0.999 . S
C1194 H1164 0.950 . S
C1194 C1193 1.524 . S
C1194 C1195 1.415 . S
C1195 H1165 0.950 . S
C1195 C1190 1.363 . S
C1195 C1194 1.415 . S
H1196 C1193 0.999 . S
H1197 C1178 0.913 . S
H1198 C1216 0.951 . S
H1199 C1218 0.951 . S
H1200 C1220 0.950 . S
H1201 C1221 0.950 . S
H1202 C1223 0.950 . S
H1203 C1226 0.950 . S
H1204 C1227 0.950 . S
H1205 C1229 0.950 . S
H1206 C1230 0.950 . S
H1207 C1231 0.951 . S
H1208 C1233 0.951 . S
H1209 C1235 0.950 . S
H1210 C1236 0.950 . S
H1211 C1238 0.950 . S
H1212 C1241 0.950 . S
H1213 C1242 0.950 . S
H1214 C1244 0.950 . S
H1215 C1245 0.950 . S
C1216 H1198 0.951 . S
C1216 C1217 1.366 . S
C1216 C1218 1.388 . S
C1217 C1216 1.366 . S
C1217 C1221 1.385 . S
C1218 H1199 0.951 . S
C1218 C1216 1.388 . S
C1218 C1219 1.366 . S
C1219 C1218 1.366 . S
C1219 C1220 1.414 . S
C1219 C1222 1.499 . S
C1220 H1200 0.950 . S
C1220 C1219 1.414 . S
C1220 C1221 1.374 . S
C1221 H1201 0.950 . S
C1221 C1217 1.385 . S
C1221 C1220 1.374 . S
C1222 C1219 1.499 . S
C1222 C1223 1.373 . S
C1222 C1224 1.389 . S
C1223 H1202 0.950 . S
C1223 C1222 1.373 . S
C1223 C1239 1.377 . S
C1224 C1222 1.389 . S
C1224 C1225 1.524 . S
C1224 C1238 1.377 . S
C1225 C1224 1.524 . S
C1225 C1226 1.397 . S
C1225 C1230 1.363 . S
C1226 H1203 0.950 . S
C1226 C1225 1.397 . S
C1226 C1227 1.334 . S
C1227 H1204 0.950 . S
C1227 C1226 1.334 . S
C1227 C1228 1.287 . S
C1228 C1227 1.287 . S
C1228 C1229 1.524 . S
C1228 H1247 0.913 . S
C1229 H1205 0.950 . S
C1229 C1228 1.524 . S
C1229 C1230 1.415 . S
C1230 H1206 0.950 . S
C1230 C1225 1.363 . S
C1230 C1229 1.415 . S
C1231 H1207 0.951 . S
C1231 C1232 1.366 . S
C1231 C1233 1.388 . S
C1232 C1231 1.366 . S
C1232 C1236 1.385 . S
C1233 H1208 0.951 . S
C1233 C1231 1.388 . S
C1233 C1234 1.366 . S
C1234 C1233 1.366 . S
C1234 C1235 1.414 . S
C1234 C1237 1.499 . S
C1235 H1209 0.950 . S
C1235 C1234 1.414 . S
C1235 C1236 1.374 . S
C1236 H1210 0.950 . S
C1236 C1232 1.385 . S
C1236 C1235 1.374 . S
C1237 C1234 1.499 . S
C1237 C1238 1.373 . S
C1237 C1239 1.389 . S
C1238 H1211 0.950 . S
C1238 C1224 1.377 . S
C1238 C1237 1.373 . S
C1239 C1223 1.377 . S
C1239 C1237 1.389 . S
C1239 C1240 1.524 . S
C1240 C1239 1.524 . S
C1240 C1241 1.397 . S
C1240 C1245 1.363 1_556 S
C1241 H1212 0.950 . S
C1241 C1240 1.397 . S
C1241 C1242 1.334 1_556 S
C1242 H1213 0.950 . S
C1242 C1241 1.334 1_554 S
C1242 C1243 1.287 . S
C1243 C1242 1.287 . S
C1243 C1244 1.524 . S
C1243 H1246 0.999 . S
C1244 H1214 0.950 . S
C1244 C1243 1.524 . S
C1244 C1245 1.415 . S
C1245 H1215 0.950 . S
C1245 C1240 1.363 1_554 S
C1245 C1244 1.415 . S
H1246 C1243 0.999 . S
H1247 C1228 0.913 . S
H1248 C1266 0.951 . S
H1249 C1268 0.951 . S
H1250 C1270 0.950 . S
H1251 C1271 0.950 . S
H1252 C1273 0.950 . S
H1253 C1276 0.950 . S
H1254 C1277 0.950 . S
H1255 C1279 0.950 . S
H1256 C1280 0.950 . S
H1257 C1281 0.951 . S
H1258 C1283 0.951 . S
H1259 C1285 0.950 . S
H1260 C1286 0.950 . S
H1261 C1288 0.950 . S
H1262 C1291 0.934 1_655 S
H1263 C1292 0.950 . S
H1264 C1294 0.950 . S
H1265 C1295 0.950 . S
C1266 H1248 0.951 . S
C1266 C1267 1.366 . S
C1266 C1268 1.388 . S
C1267 C1266 1.366 . S
C1267 C1271 1.385 1_655 S
C1268 H1249 0.951 . S
C1268 C1266 1.388 . S
C1268 C1269 1.366 . S
C1269 C1268 1.366 . S
C1269 C1270 1.414 1_655 S
C1269 C1272 1.499 . S
C1270 H1250 0.950 . S
C1270 C1269 1.414 1_455 S
C1270 C1271 1.374 . S
C1271 H1251 0.950 . S
C1271 C1267 1.385 1_455 S
C1271 C1270 1.374 . S
C1272 C1269 1.499 . S
C1272 C1273 1.373 1_655 S
C1272 C1274 1.389 . S
C1273 H1252 0.950 . S
C1273 C1272 1.373 1_455 S
C1273 C1289 1.377 . S
C1274 C1272 1.389 . S
C1274 C1275 1.524 . S
C1274 C1288 1.377 . S
C1275 C1274 1.524 . S
C1275 C1276 1.397 . S
C1275 C1280 1.363 . S
C1276 H1253 0.950 . S
C1276 C1275 1.397 . S
C1276 C1277 1.334 . S
C1277 H1254 0.950 . S
C1277 C1276 1.334 . S
C1277 C1278 1.287 . S
C1278 C1277 1.287 . S
C1278 C1279 1.524 . S
C1278 H1297 0.913 . S
C1279 H1255 0.950 . S
C1279 C1278 1.524 . S
C1279 C1280 1.415 . S
C1280 H1256 0.950 . S
C1280 C1275 1.363 . S
C1280 C1279 1.415 . S
C1281 H1257 0.951 . S
C1281 C1282 1.366 1_455 S
C1281 C1283 1.388 . S
C1282 C1281 1.366 1_655 S
C1282 C1286 1.385 . S
C1283 H1258 0.951 . S
C1283 C1281 1.388 . S
C1283 C1284 1.366 1_455 S
C1284 C1283 1.366 1_655 S
C1284 C1285 1.414 . S
C1284 C1287 1.499 . S
C1285 H1259 0.950 . S
C1285 C1284 1.414 . S
C1285 C1286 1.374 . S
C1286 H1260 0.950 . S
C1286 C1282 1.385 . S
C1286 C1285 1.374 . S
C1287 C1284 1.499 . S
C1287 C1288 1.373 . S
C1287 C1289 1.389 1_655 S
C1288 H1261 0.950 . S
C1288 C1274 1.377 . S
C1288 C1287 1.373 . S
C1289 C1273 1.377 . S
C1289 C1287 1.389 1_455 S
C1289 C1290 1.524 . S
C1290 C1289 1.524 . S
C1290 C1291 1.397 . S
C1290 C1295 1.363 . S
C1291 H1262 0.934 1_455 S
C1291 C1290 1.397 . S
C1291 C1292 1.334 . S
C1292 H1263 0.950 . S
C1292 C1291 1.334 . S
C1292 C1293 1.287 . S
C1293 C1292 1.287 . S
C1293 C1294 1.524 . S
C1293 H1296 0.999 . S
C1294 H1264 0.950 . S
C1294 C1293 1.524 . S
C1294 C1295 1.415 . S
C1295 H1265 0.950 . S
C1295 C1290 1.363 . S
C1295 C1294 1.415 . S
H1296 C1293 0.999 . S
H1297 C1278 0.913 . S
H1298 C1316 0.951 . S
H1299 C1318 0.951 . S
H1300 C1320 0.950 . S
H1301 C1321 0.954 . S
H1302 C1323 0.950 . S
H1303 C1326 0.950 . S
H1304 C1327 0.950 . S
H1305 C1329 0.950 . S
H1306 C1330 0.950 . S
H1307 C1331 0.951 . S
H1308 C1333 0.951 . S
H1309 C1335 0.950 . S
H1310 C1336 0.950 . S
H1311 C1338 0.950 . S
H1312 C1341 0.950 . S
H1313 C1342 0.950 . S
H1314 C1344 0.950 . S
H1315 C1345 0.950 . S
C1316 H1298 0.951 . S
C1316 C1317 1.366 . S
C1316 C1318 1.388 . S
C1317 C1316 1.366 . S
C1317 C1321 1.385 . S
C1318 H1299 0.951 . S
C1318 C1316 1.388 . S
C1318 C1319 1.366 . S
C1319 C1318 1.366 . S
C1319 C1320 1.414 . S
C1319 C1322 1.499 . S
C1320 H1300 0.950 . S
C1320 C1319 1.414 . S
C1320 C1321 1.374 . S
C1321 H1301 0.954 . S
C1321 C1317 1.385 . S
C1321 C1320 1.374 . S
C1322 C1319 1.499 . S
C1322 C1323 1.373 1_565 S
C1322 C1324 1.389 . S
C1323 H1302 0.950 . S
C1323 C1322 1.373 1_545 S
C1323 C1339 1.377 . S
C1324 C1322 1.389 . S
C1324 C1325 1.524 . S
C1324 C1338 1.377 . S
C1325 C1324 1.524 . S
C1325 C1326 1.397 . S
C1325 C1330 1.363 . S
C1326 H1303 0.950 . S
C1326 C1325 1.397 . S
C1326 C1327 1.334 . S
C1327 H1304 0.950 . S
C1327 C1326 1.334 . S
C1327 C1328 1.287 . S
C1328 C1327 1.287 . S
C1328 C1329 1.524 . S
C1328 H1347 0.913 . S
C1329 H1305 0.950 . S
C1329 C1328 1.524 . S
C1329 C1330 1.415 . S
C1330 H1306 0.950 . S
C1330 C1325 1.363 . S
C1330 C1329 1.415 . S
C1331 H1307 0.951 . S
C1331 C1332 1.366 . S
C1331 C1333 1.388 . S
C1332 C1331 1.366 . S
C1332 C1336 1.385 . S
C1333 H1308 0.951 . S
C1333 C1331 1.388 . S
C1333 C1334 1.366 . S
C1334 C1333 1.366 . S
C1334 C1335 1.414 . S
C1334 C1337 1.499 . S
C1335 H1309 0.950 . S
C1335 C1334 1.414 . S
C1335 C1336 1.374 . S
C1336 H1310 0.950 . S
C1336 C1332 1.385 . S
C1336 C1335 1.374 . S
C1337 C1334 1.499 . S
C1337 C1338 1.373 . S
C1337 C1339 1.389 1_565 S
C1338 H1311 0.950 . S
C1338 C1324 1.377 . S
C1338 C1337 1.373 . S
C1339 C1323 1.377 . S
C1339 C1337 1.389 1_545 S
C1339 C1340 1.524 . S
C1340 C1339 1.524 . S
C1340 C1341 1.397 . S
C1340 C1345 1.363 . S
C1341 H1312 0.950 . S
C1341 C1340 1.397 . S
C1341 C1342 1.334 . S
C1342 H1313 0.950 . S
C1342 C1341 1.334 . S
C1342 C1343 1.287 . S
C1343 C1342 1.287 . S
C1343 C1344 1.524 . S
C1343 H1346 0.999 . S
C1344 H1314 0.950 . S
C1344 C1343 1.524 . S
C1344 C1345 1.415 . S
C1345 H1315 0.950 . S
C1345 C1340 1.363 . S
C1345 C1344 1.415 . S
H1346 C1343 0.999 . S
H1347 C1328 0.913 . S
H1348 C1366 0.951 . S
H1349 C1368 0.951 . S
H1350 C1370 0.950 . S
H1351 C1371 0.950 . S
H1352 C1373 0.950 . S
H1353 C1376 0.950 . S
H1354 C1377 0.950 . S
H1355 C1379 0.950 . S
H1356 C1380 0.950 . S
H1357 C1381 0.951 . S
H1358 C1383 0.951 . S
H1359 C1385 0.950 . S
H1360 C1386 0.950 . S
H1361 C1388 0.950 . S
H1362 C1391 0.950 . S
H1363 C1392 0.950 . S
H1364 C1394 0.950 . S
H1365 C1395 0.950 . S
C1366 H1348 0.951 . S
C1366 C1367 1.366 . S
C1366 C1368 1.388 . S
C1367 C1366 1.366 . S
C1367 C1371 1.385 . S
C1368 H1349 0.951 . S
C1368 C1366 1.388 . S
C1368 C1369 1.366 . S
C1369 C1368 1.366 . S
C1369 C1370 1.414 . S
C1369 C1372 1.499 . S
C1370 H1350 0.950 . S
C1370 C1369 1.414 . S
C1370 C1371 1.374 . S
C1371 H1351 0.950 . S
C1371 C1367 1.385 . S
C1371 C1370 1.374 . S
C1372 C1369 1.499 . S
C1372 C1373 1.373 . S
C1372 C1374 1.389 . S
C1373 H1352 0.950 . S
C1373 C1372 1.373 . S
C1373 C1389 1.377 . S
C1374 C1372 1.389 . S
C1374 C1375 1.524 . S
C1374 C1388 1.377 . S
C1375 C1374 1.524 . S
C1375 C1376 1.397 . S
C1375 C1380 1.363 . S
C1376 H1353 0.950 . S
C1376 C1375 1.397 . S
C1376 C1377 1.334 . S
C1377 H1354 0.950 . S
C1377 C1376 1.334 . S
C1377 C1378 1.287 . S
C1378 C1377 1.287 . S
C1378 C1379 1.524 . S
C1378 H1397 0.913 . S
C1379 H1355 0.950 . S
C1379 C1378 1.524 . S
C1379 C1380 1.415 . S
C1380 H1356 0.950 . S
C1380 C1375 1.363 . S
C1380 C1379 1.415 . S
C1381 H1357 0.951 . S
C1381 C1382 1.366 . S
C1381 C1383 1.388 . S
C1382 C1381 1.366 . S
C1382 C1386 1.385 . S
C1383 H1358 0.951 . S
C1383 C1381 1.388 . S
C1383 C1384 1.366 . S
C1384 C1383 1.366 . S
C1384 C1385 1.414 . S
C1384 C1387 1.499 . S
C1385 H1359 0.950 . S
C1385 C1384 1.414 . S
C1385 C1386 1.374 . S
C1386 H1360 0.950 . S
C1386 C1382 1.385 . S
C1386 C1385 1.374 . S
C1387 C1384 1.499 . S
C1387 C1388 1.373 . S
C1387 C1389 1.389 . S
C1388 H1361 0.950 . S
C1388 C1374 1.377 . S
C1388 C1387 1.373 . S
C1389 C1373 1.377 . S
C1389 C1387 1.389 . S
C1389 C1390 1.524 . S
C1390 C1389 1.524 . S
C1390 C1391 1.397 . S
C1390 C1395 1.363 . S
C1391 H1362 0.950 . S
C1391 C1390 1.397 . S
C1391 C1392 1.334 . S
C1392 H1363 0.950 . S
C1392 C1391 1.334 . S
C1392 C1393 1.287 . S
C1393 C1392 1.287 . S
C1393 C1394 1.524 . S
C1393 H1396 0.999 . S
C1394 H1364 0.950 . S
C1394 C1393 1.524 . S
C1394 C1395 1.415 . S
C1395 H1365 0.950 . S
C1395 C1390 1.363 . S
C1395 C1394 1.415 . S
H1396 C1393 0.999 . S
H1397 C1378 0.913 . S
H1398 C1416 0.951 . S
H1399 C1418 0.951 . S
H1400 C1420 0.950 . S
H1401 C1421 0.950 . S
H1402 C1423 0.950 . S
H1403 C1426 0.950 . S
H1404 C1427 0.950 . S
H1405 C1429 0.950 . S
H1406 C1430 0.950 . S
H1407 C1431 0.951 . S
H1408 C1433 0.951 . S
H1409 C1435 0.950 . S
H1410 C1436 0.950 . S
H1411 C1438 0.950 . S
H1412 C1441 0.950 . S
H1413 C1442 0.950 . S
H1414 C1444 0.950 . S
H1415 C1445 0.950 . S
C1416 H1398 0.951 . S
C1416 C1417 1.366 . S
C1416 C1418 1.388 . S
C1417 C1416 1.366 . S
C1417 C1421 1.385 . S
C1418 H1399 0.951 . S
C1418 C1416 1.388 . S
C1418 C1419 1.366 . S
C1419 C1418 1.366 . S
C1419 C1420 1.414 . S
C1419 C1422 1.499 . S
C1420 H1400 0.950 . S
C1420 C1419 1.414 . S
C1420 C1421 1.374 . S
C1421 H1401 0.950 . S
C1421 C1417 1.385 . S
C1421 C1420 1.374 . S
C1422 C1419 1.499 . S
C1422 C1423 1.373 . S
C1422 C1424 1.389 . S
C1423 H1402 0.950 . S
C1423 C1422 1.373 . S
C1423 C1439 1.377 . S
C1424 C1422 1.389 . S
C1424 C1425 1.524 . S
C1424 C1438 1.377 . S
C1425 C1424 1.524 . S
C1425 C1426 1.397 . S
C1425 C1430 1.363 . S
C1426 H1403 0.950 . S
C1426 C1425 1.397 . S
C1426 C1427 1.334 . S
C1427 H1404 0.950 . S
C1427 C1426 1.334 . S
C1427 C1428 1.287 . S
C1428 C1427 1.287 . S
C1428 C1429 1.524 . S
C1428 H1447 0.913 . S
C1429 H1405 0.950 . S
C1429 C1428 1.524 . S
C1429 C1430 1.415 . S
C1430 H1406 0.950 . S
C1430 C1425 1.363 . S
C1430 C1429 1.415 . S
C1431 H1407 0.951 . S
C1431 C1432 1.366 . S
C1431 C1433 1.388 . S
C1432 C1431 1.366 . S
C1432 C1436 1.385 . S
C1433 H1408 0.951 . S
C1433 C1431 1.388 . S
C1433 C1434 1.366 . S
C1434 C1433 1.366 . S
C1434 C1435 1.414 . S
C1434 C1437 1.499 . S
C1435 H1409 0.950 . S
C1435 C1434 1.414 . S
C1435 C1436 1.374 . S
C1436 H1410 0.950 . S
C1436 C1432 1.385 . S
C1436 C1435 1.374 . S
C1437 C1434 1.499 . S
C1437 C1438 1.373 . S
C1437 C1439 1.389 . S
C1438 H1411 0.950 . S
C1438 C1424 1.377 . S
C1438 C1437 1.373 . S
C1439 C1423 1.377 . S
C1439 C1437 1.389 . S
C1439 C1440 1.524 . S
C1440 C1439 1.524 . S
C1440 C1441 1.397 . S
C1440 C1445 1.363 . S
C1441 H1412 0.950 . S
C1441 C1440 1.397 . S
C1441 C1442 1.334 . S
C1442 H1413 0.950 . S
C1442 C1441 1.334 . S
C1442 C1443 1.287 . S
C1443 C1442 1.287 . S
C1443 C1444 1.524 . S
C1443 H1446 0.999 . S
C1444 H1414 0.950 . S
C1444 C1443 1.524 . S
C1444 C1445 1.415 . S
C1445 H1415 0.950 . S
C1445 C1440 1.363 . S
C1445 C1444 1.415 . S
H1446 C1443 0.999 . S
H1447 C1428 0.913 . S
C267 C76 1.732 . S
C282 C97 1.805 1_545 S
C332 C137 1.813 . S
C317 C87 1.729 . S
C382 C177 1.812 . S
C367 C54 1.733 . S
C432 C217 1.808 1_455 S
C417 C65 1.732 . S
C482 C106 1.812 1_565 S
C467 C32 1.736 . S
C517 C43 1.732 . S
C532 C146 1.816 . S
C567 C10 1.732 . S
C582 C186 1.812 . S
C617 C21 1.733 . S
C632 C226 1.812 1_655 S
C682 C103 0.320 . S
C667 C60 0.397 . S
C732 C143 0.320 . S
C717 C71 0.397 . S
C782 C183 0.320 . S
C767 C82 0.382 . S
C817 C49 0.384 . S
C832 C223 0.320 . S
C867 C16 0.397 . S
C882 C94 0.321 . S
C932 C134 0.323 . S
C917 C27 0.394 . S
C982 C174 0.320 . S
C967 C38 0.394 . S
C1017 C5 0.396 . S
C1032 C214 0.324 . S
C1067 C59 1.861 . S
C1082 C107 2.047 . S
C1117 C70 1.861 . S
C1132 C147 2.052 . S
C1182 C187 2.052 . S
C1167 C81 1.861 . S
C1232 C227 2.051 . S
C1217 C48 1.855 . S
C1267 C15 1.864 1_655 S
C1282 C98 2.056 . S
C1332 C138 2.052 . S
C1317 C26 1.862 1_565 S
C1382 C178 2.051 . S
C1367 C37 1.863 . S
C1417 C4 1.863 . S
C1432 C218 2.056 . S
