# Generated by pormake.
# Topology ptr, (4,4)-cn, num edge types: 1
# Building blocks:
#     Node 0, Type 0, BuildingBlock: QUQFOY_clean_sbu_3, # of connection points: 4
#     Node 1, Type 0, BuildingBlock: QUQFOY_clean_sbu_3, # of connection points: 4
#     Node 2, Type 0, BuildingBlock: QUQFOY_clean_sbu_3, # of connection points: 4
#     Node 3, Type 0, BuildingBlock: QUQFOY_clean_sbu_3, # of connection points: 4
#     Node 4, Type 0, BuildingBlock: QUQFOY_clean_sbu_3, # of connection points: 4
#     Node 5, Type 0, BuildingBlock: QUQFOY_clean_sbu_3, # of connection points: 4
#     Node 6, Type 0, BuildingBlock: QUQFOY_clean_sbu_3, # of connection points: 4
#     Node 7, Type 0, BuildingBlock: QUQFOY_clean_sbu_3, # of connection points: 4
#     Node 8, Type 0, BuildingBlock: QUQFOY_clean_sbu_3, # of connection points: 4
#     Node 9, Type 0, BuildingBlock: QUQFOY_clean_sbu_3, # of connection points: 4
#     Node 10, Type 0, BuildingBlock: QUQFOY_clean_sbu_3, # of connection points: 4
#     Node 11, Type 0, BuildingBlock: QUQFOY_clean_sbu_3, # of connection points: 4
#     Node 12, Type 0, BuildingBlock: QUQFOY_clean_sbu_3, # of connection points: 4
#     Node 13, Type 0, BuildingBlock: QUQFOY_clean_sbu_3, # of connection points: 4
#     Node 14, Type 0, BuildingBlock: QUQFOY_clean_sbu_3, # of connection points: 4
#     Node 15, Type 0, BuildingBlock: QUQFOY_clean_sbu_3, # of connection points: 4
#     Node 16, Type 0, BuildingBlock: QUQFOY_clean_sbu_3, # of connection points: 4
#     Node 17, Type 0, BuildingBlock: QUQFOY_clean_sbu_3, # of connection points: 4
#     Node 18, Type 1, BuildingBlock: MUDLON_clean_linker_0, # of connection points: 4
#     Node 19, Type 1, BuildingBlock: MUDLON_clean_linker_0, # of connection points: 4
#     Node 20, Type 1, BuildingBlock: MUDLON_clean_linker_0, # of connection points: 4
#     Node 21, Type 1, BuildingBlock: MUDLON_clean_linker_0, # of connection points: 4
#     Node 22, Type 1, BuildingBlock: MUDLON_clean_linker_0, # of connection points: 4
#     Node 23, Type 1, BuildingBlock: MUDLON_clean_linker_0, # of connection points: 4
#     Node 24, Type 1, BuildingBlock: MUDLON_clean_linker_0, # of connection points: 4
#     Node 25, Type 1, BuildingBlock: MUDLON_clean_linker_0, # of connection points: 4
#     Node 26, Type 1, BuildingBlock: MUDLON_clean_linker_0, # of connection points: 4
#     Node 27, Type 1, BuildingBlock: MUDLON_clean_linker_0, # of connection points: 4
#     Node 28, Type 1, BuildingBlock: MUDLON_clean_linker_0, # of connection points: 4
#     Node 29, Type 1, BuildingBlock: MUDLON_clean_linker_0, # of connection points: 4
#     Node 30, Type 1, BuildingBlock: MUDLON_clean_linker_0, # of connection points: 4
#     Node 31, Type 1, BuildingBlock: MUDLON_clean_linker_0, # of connection points: 4
#     Node 32, Type 1, BuildingBlock: MUDLON_clean_linker_0, # of connection points: 4
#     Node 33, Type 1, BuildingBlock: MUDLON_clean_linker_0, # of connection points: 4
#     Node 34, Type 1, BuildingBlock: MUDLON_clean_linker_0, # of connection points: 4
#     Node 35, Type 1, BuildingBlock: MUDLON_clean_linker_0, # of connection points: 4
#     Edge 36, Type (0, 1), BuildingBlock: CIFDUS_clean_linker_0, # of connection points: 2
#     Edge 37, Type (0, 1), BuildingBlock: CIFDUS_clean_linker_0, # of connection points: 2
#     Edge 38, Type (0, 1), BuildingBlock: CIFDUS_clean_linker_0, # of connection points: 2
#     Edge 39, Type (0, 1), BuildingBlock: CIFDUS_clean_linker_0, # of connection points: 2
#     Edge 40, Type (0, 1), BuildingBlock: CIFDUS_clean_linker_0, # of connection points: 2
#     Edge 41, Type (0, 1), BuildingBlock: CIFDUS_clean_linker_0, # of connection points: 2
#     Edge 42, Type (0, 1), BuildingBlock: CIFDUS_clean_linker_0, # of connection points: 2
#     Edge 43, Type (0, 1), BuildingBlock: CIFDUS_clean_linker_0, # of connection points: 2
#     Edge 44, Type (0, 1), BuildingBlock: CIFDUS_clean_linker_0, # of connection points: 2
#     Edge 45, Type (0, 1), BuildingBlock: CIFDUS_clean_linker_0, # of connection points: 2
#     Edge 46, Type (0, 1), BuildingBlock: CIFDUS_clean_linker_0, # of connection points: 2
#     Edge 47, Type (0, 1), BuildingBlock: CIFDUS_clean_linker_0, # of connection points: 2
#     Edge 48, Type (0, 1), BuildingBlock: CIFDUS_clean_linker_0, # of connection points: 2
#     Edge 49, Type (0, 1), BuildingBlock: CIFDUS_clean_linker_0, # of connection points: 2
#     Edge 50, Type (0, 1), BuildingBlock: CIFDUS_clean_linker_0, # of connection points: 2
#     Edge 51, Type (0, 1), BuildingBlock: CIFDUS_clean_linker_0, # of connection points: 2
#     Edge 52, Type (0, 1), BuildingBlock: CIFDUS_clean_linker_0, # of connection points: 2
#     Edge 53, Type (0, 1), BuildingBlock: CIFDUS_clean_linker_0, # of connection points: 2
#     Edge 54, Type (0, 1), BuildingBlock: CIFDUS_clean_linker_0, # of connection points: 2
#     Edge 55, Type (0, 1), BuildingBlock: CIFDUS_clean_linker_0, # of connection points: 2
#     Edge 56, Type (0, 1), BuildingBlock: CIFDUS_clean_linker_0, # of connection points: 2
#     Edge 57, Type (0, 1), BuildingBlock: CIFDUS_clean_linker_0, # of connection points: 2
#     Edge 58, Type (0, 1), BuildingBlock: CIFDUS_clean_linker_0, # of connection points: 2
#     Edge 59, Type (0, 1), BuildingBlock: CIFDUS_clean_linker_0, # of connection points: 2
#     Edge 60, Type (0, 1), BuildingBlock: CIFDUS_clean_linker_0, # of connection points: 2
#     Edge 61, Type (0, 1), BuildingBlock: CIFDUS_clean_linker_0, # of connection points: 2
#     Edge 62, Type (0, 1), BuildingBlock: CIFDUS_clean_linker_0, # of connection points: 2
#     Edge 63, Type (0, 1), BuildingBlock: CIFDUS_clean_linker_0, # of connection points: 2
#     Edge 64, Type (0, 1), BuildingBlock: CIFDUS_clean_linker_0, # of connection points: 2
#     Edge 65, Type (0, 1), BuildingBlock: CIFDUS_clean_linker_0, # of connection points: 2
#     Edge 66, Type (0, 1), BuildingBlock: CIFDUS_clean_linker_0, # of connection points: 2
#     Edge 67, Type (0, 1), BuildingBlock: CIFDUS_clean_linker_0, # of connection points: 2
#     Edge 68, Type (0, 1), BuildingBlock: CIFDUS_clean_linker_0, # of connection points: 2
#     Edge 69, Type (0, 1), BuildingBlock: CIFDUS_clean_linker_0, # of connection points: 2
#     Edge 70, Type (0, 1), BuildingBlock: CIFDUS_clean_linker_0, # of connection points: 2
#     Edge 71, Type (0, 1), BuildingBlock: CIFDUS_clean_linker_0, # of connection points: 2
#     Edge 72, Type (0, 1), BuildingBlock: CIFDUS_clean_linker_0, # of connection points: 2
#     Edge 73, Type (0, 1), BuildingBlock: CIFDUS_clean_linker_0, # of connection points: 2
#     Edge 74, Type (0, 1), BuildingBlock: CIFDUS_clean_linker_0, # of connection points: 2
#     Edge 75, Type (0, 1), BuildingBlock: CIFDUS_clean_linker_0, # of connection points: 2
#     Edge 76, Type (0, 1), BuildingBlock: CIFDUS_clean_linker_0, # of connection points: 2
#     Edge 77, Type (0, 1), BuildingBlock: CIFDUS_clean_linker_0, # of connection points: 2
#     Edge 78, Type (0, 1), BuildingBlock: CIFDUS_clean_linker_0, # of connection points: 2
#     Edge 79, Type (0, 1), BuildingBlock: CIFDUS_clean_linker_0, # of connection points: 2
#     Edge 80, Type (0, 1), BuildingBlock: CIFDUS_clean_linker_0, # of connection points: 2
#     Edge 81, Type (0, 1), BuildingBlock: CIFDUS_clean_linker_0, # of connection points: 2
#     Edge 82, Type (0, 1), BuildingBlock: CIFDUS_clean_linker_0, # of connection points: 2
#     Edge 83, Type (0, 1), BuildingBlock: CIFDUS_clean_linker_0, # of connection points: 2
#     Edge 84, Type (0, 1), BuildingBlock: CIFDUS_clean_linker_0, # of connection points: 2
#     Edge 85, Type (0, 1), BuildingBlock: CIFDUS_clean_linker_0, # of connection points: 2
#     Edge 86, Type (0, 1), BuildingBlock: CIFDUS_clean_linker_0, # of connection points: 2
#     Edge 87, Type (0, 1), BuildingBlock: CIFDUS_clean_linker_0, # of connection points: 2
#     Edge 88, Type (0, 1), BuildingBlock: CIFDUS_clean_linker_0, # of connection points: 2
#     Edge 89, Type (0, 1), BuildingBlock: CIFDUS_clean_linker_0, # of connection points: 2
#     Edge 90, Type (0, 1), BuildingBlock: CIFDUS_clean_linker_0, # of connection points: 2
#     Edge 91, Type (0, 1), BuildingBlock: CIFDUS_clean_linker_0, # of connection points: 2
#     Edge 92, Type (0, 1), BuildingBlock: CIFDUS_clean_linker_0, # of connection points: 2
#     Edge 93, Type (0, 1), BuildingBlock: CIFDUS_clean_linker_0, # of connection points: 2
#     Edge 94, Type (0, 1), BuildingBlock: CIFDUS_clean_linker_0, # of connection points: 2
#     Edge 95, Type (0, 1), BuildingBlock: CIFDUS_clean_linker_0, # of connection points: 2
#     Edge 96, Type (0, 1), BuildingBlock: CIFDUS_clean_linker_0, # of connection points: 2
#     Edge 97, Type (0, 1), BuildingBlock: CIFDUS_clean_linker_0, # of connection points: 2
#     Edge 98, Type (0, 1), BuildingBlock: CIFDUS_clean_linker_0, # of connection points: 2
#     Edge 99, Type (0, 1), BuildingBlock: CIFDUS_clean_linker_0, # of connection points: 2
#     Edge 100, Type (0, 1), BuildingBlock: CIFDUS_clean_linker_0, # of connection points: 2
#     Edge 101, Type (0, 1), BuildingBlock: CIFDUS_clean_linker_0, # of connection points: 2
#     Edge 102, Type (0, 1), BuildingBlock: CIFDUS_clean_linker_0, # of connection points: 2
#     Edge 103, Type (0, 1), BuildingBlock: CIFDUS_clean_linker_0, # of connection points: 2
#     Edge 104, Type (0, 1), BuildingBlock: CIFDUS_clean_linker_0, # of connection points: 2
#     Edge 105, Type (0, 1), BuildingBlock: CIFDUS_clean_linker_0, # of connection points: 2
#     Edge 106, Type (0, 1), BuildingBlock: CIFDUS_clean_linker_0, # of connection points: 2
#     Edge 107, Type (0, 1), BuildingBlock: CIFDUS_clean_linker_0, # of connection points: 2
# Relax obj value: 0.030
# Max RMSD: 0.098
# Mean RMSD: 0.061
data_MOF--net-ptr--node1-QUQFOY_clean_sbu_3--node2-MUDLON_clean_linker_0--edge1-CIFDUS_clean_linker_0
_symmetry_space_group_name_H-M    P1
_symmetry_Int_Tables_number       1
_symmetry_cell_setting            triclinic
loop_
_symmetry_equiv_pos_as_xyz
'x, y, z'
_cell_length_a     96.2055
_cell_length_b     96.798577
_cell_length_c     58.595017
_cell_angle_alpha  90.210578
_cell_angle_beta   89.641632
_cell_angle_gamma 120.44126
loop_
_atom_site_label
_atom_site_type_symbol
_atom_site_fract_x
_atom_site_fract_y
_atom_site_fract_z
_atom_type_partial_charge
C0 C 0.95846 0.3257 0.00269 0.0
O1 O 0.9499 0.33137 0.00993 0.0
Cd2 Cd 0.96174 0.3581 0.02487 0.0
O3 O 0.97376 0.3338 0.00455 0.0
Cd4 Cd 0.99542 0.35954 0.0206 0.0
C5 C 0.98744 0.37958 0.98042 0.0
O6 O 0.98071 0.36136 0.05368 0.0
O7 O 0.00335 0.38264 0.04555 0.0
O8 O 0.00542 0.34354 0.03781 0.0
C9 C 0.99137 0.37556 0.05897 0.0
O10 O 0.97475 0.3756 0.99213 0.0
C11 C 0.01981 0.35177 0.03059 0.0
O12 O 0.99712 0.37485 0.98614 0.0
O13 O 0.02305 0.36379 0.01813 0.0
C14 C 0.62767 0.6757 0.0271 0.0
O15 O 0.61264 0.66754 0.02323 0.0
Cd16 Cd 0.60026 0.64092 0.00769 0.0
O17 O 0.63672 0.67002 0.02217 0.0
Cd18 Cd 0.63494 0.64574 0.00481 0.0
C19 C 0.61116 0.62267 0.04813 0.0
O20 O 0.61572 0.64184 0.97477 0.0
O21 O 0.61996 0.62223 0.98002 0.0
O22 O 0.66019 0.66455 0.9861 0.0
C23 C 0.61352 0.6284 0.96814 0.0
O24 O 0.59989 0.62365 0.03841 0.0
C25 C 0.66762 0.6572 0.9908 0.0
O26 O 0.62554 0.63042 0.04041 0.0
O27 O 0.65988 0.64438 0.00234 0.0
C28 C 0.33557 0.95992 0.01801 0.0
O29 O 0.34381 0.95345 0.0128 0.0
Cd30 Cd 0.37097 0.96829 -0.00112 0.0
O31 O 0.34148 0.97497 0.01548 0.0
Cd32 Cd 0.3665 -0.00083 0.0014 0.0
C33 C 0.38858 0.99529 0.0432 0.0
O34 O 0.37009 0.9849 0.96953 0.0
O35 O 0.38905 0.0094 0.974 0.0
O36 O 0.34651 0.00618 0.98979 0.0
C37 C 0.38328 0.99658 0.96247 0.0
O38 O 0.38691 0.98325 0.03197 0.0
C39 C 0.35543 0.02114 0.99295 0.0
O40 O 0.38185 0.003 0.03654 0.0
O41 O 0.36955 0.02601 0.00037 0.0
C42 C 0.96166 0.63078 0.00483 0.0
O43 O 0.95376 0.61675 0.01309 0.0
Cd44 Cd 0.96795 0.60379 0.02646 0.0
O45 O 0.97701 0.6382 0.00457 0.0
Cd46 Cd 0.00031 0.63565 0.01642 0.0
C47 C 0.98977 0.60601 0.97814 0.0
O48 O 0.98881 0.62129 0.05258 0.0
O49 O 0.01073 0.62264 0.04059 0.0
O50 O 0.00976 0.66347 0.02558 0.0
C51 C 0.00022 0.61858 0.05622 0.0
O52 O 0.97836 0.59766 0.99212 0.0
C53 C 0.02446 0.66878 0.02068 0.0
O54 O -0.00053 0.62085 0.98189 0.0
O55 O 0.02821 0.65871 0.01339 0.0
C56 C 0.33428 0.37249 0.02829 0.0
O57 O 0.34355 0.38729 0.02418 0.0
Cd58 Cd 0.36993 0.39813 0.00755 0.0
O59 O 0.33883 0.36246 0.02404 0.0
Cd60 Cd 0.36337 0.36307 0.00905 0.0
C61 C 0.38755 0.38859 0.05012 0.0
O62 O 0.36803 0.3809 0.97661 0.0
O63 O 0.38695 0.37584 0.98363 0.0
O64 O 0.34436 0.3362 0.99459 0.0
C65 C 0.38129 0.38215 0.97055 0.0
O66 O 0.38753 0.39967 0.0385 0.0
C67 C 0.35294 0.33017 -0.00012 0.0
O68 O 0.37875 0.37397 0.04432 0.0
O69 O 0.36618 0.33933 0.00986 0.0
C70 C 0.66489 0.03145 0.00513 0.0
O71 O 0.65764 0.03875 0.01133 0.0
Cd72 Cd 0.62994 0.02364 0.02376 0.0
O73 O 0.65775 0.01624 0.006 0.0
Cd74 Cd 0.63218 0.99223 0.01743 0.0
C75 C 0.61272 -0.0002 0.97606 0.0
O76 O 0.62622 0.00355 0.05106 0.0
O77 O 0.60698 0.98082 0.0386 0.0
O78 O 0.65152 0.98666 0.03429 0.0
C79 C 0.61201 0.99174 0.05363 0.0
O80 O 0.61477 0.01118 0.98923 0.0
C81 C 0.645 0.97207 0.02847 0.0
O82 O 0.61867 0.99102 0.98103 0.0
O83 O 0.63204 0.96635 0.017 0.0
C84 C 0.63282 0.66589 0.34034 0.0
O85 O 0.62542 0.6734 0.34415 0.0
Cd86 Cd 0.63946 0.70119 0.35496 0.0
O87 O 0.64805 0.67286 0.34282 0.0
Cd88 Cd 0.67078 0.69962 0.35419 0.0
C89 C 0.66512 0.71793 0.30924 0.0
O90 O 0.65852 0.70719 0.38523 0.0
O91 O 0.68112 0.72589 0.3711 0.0
O92 O 0.68103 0.68823 0.38115 0.0
C93 C 0.67036 0.72147 0.3865 0.0
O94 O 0.65261 0.71546 0.32021 0.0
C95 C 0.69406 0.69201 0.37074 0.0
O96 O 0.6742 0.71299 0.31696 0.0
O97 O 0.69644 0.69924 0.35177 0.0
C98 C 0.29429 0.00234 0.3613 0.0
O99 O 0.2801 0.99717 0.35402 0.0
Cd100 Cd 0.26462 0.96996 0.34108 0.0
O101 O 0.30093 0.99389 0.35909 0.0
Cd102 Cd 0.2961 0.96863 0.34069 0.0
C103 C 0.27094 0.94903 0.38385 0.0
O104 O 0.27801 0.96578 0.30945 0.0
O105 O 0.27852 0.94446 0.31885 0.0
O106 O 0.32029 0.98522 0.31909 0.0
C107 C 0.27375 0.9513 0.30517 0.0
O108 O 0.26187 0.95321 0.37398 0.0
C109 C 0.3278 0.97808 0.32442 0.0
O110 O 0.28494 0.95337 0.37596 0.0
O111 O 0.32061 0.96622 0.33796 0.0
C112 C 0.00099 0.29527 0.34603 0.0
O113 O 0.00915 0.28936 0.33803 0.0
Cd114 Cd 0.03686 0.306 0.32695 0.0
O115 O 0.00722 0.31043 0.34736 0.0
Cd116 Cd 0.03273 0.33549 0.33751 0.0
C117 C 0.05263 0.32706 0.37693 0.0
O118 O 0.0388 0.32631 0.30162 0.0
O119 O 0.05807 0.34808 0.31611 0.0
O120 O 0.01388 0.34407 0.32644 0.0
C121 C 0.05293 0.33831 0.29958 0.0
O122 O 0.0519 0.31688 0.36241 0.0
C123 C 0.02262 0.35853 0.33268 0.0
O124 O 0.04565 0.33504 0.37314 0.0
O125 O 0.03608 0.36239 0.34171 0.0
C126 C 0.62218 0.95031 0.34564 0.0
O127 O 0.61674 0.93614 0.35292 0.0
Cd128 Cd 0.63337 0.92569 0.36379 0.0
O129 O 0.63736 0.96014 0.34467 0.0
Cd130 Cd 0.66323 0.96124 0.35519 0.0
C131 C 0.65645 0.93336 0.3148 0.0
O132 O 0.65184 0.94543 0.38983 0.0
O133 O 0.67573 0.95057 0.38102 0.0
O134 O 0.67066 0.98889 0.36372 0.0
C135 C 0.66406 0.94446 0.39504 0.0
O136 O 0.64517 0.9234 0.32781 0.0
C137 C 0.68555 0.99501 0.35919 0.0
O138 O 0.66483 0.94811 0.32024 0.0
O139 O 0.6902 0.98551 0.35249 0.0
C140 C 0.99401 0.70582 0.35656 0.0
O141 O 0.0007 0.72035 0.35029 0.0
Cd142 Cd 0.02748 0.73444 0.3345 0.0
O143 O 0.00124 0.69793 0.35396 0.0
Cd144 Cd 0.02693 0.7019 0.33769 0.0
C145 C 0.04907 0.72995 0.37722 0.0
O146 O 0.02799 0.71775 0.30452 0.0
O147 O 0.04954 0.7169 0.31109 0.0
O148 O 0.01042 0.67412 0.32472 0.0
C149 C 0.04194 0.72113 0.29799 0.0
O150 O 0.04655 0.73953 0.36552 0.0
C151 C 0.02066 0.67004 0.32966 0.0
O152 O 0.04238 0.71519 0.3719 0.0
O153 O 0.03369 0.68066 0.33877 0.0
C154 C 0.33983 0.37829 0.33749 0.0
O155 O 0.33262 0.38521 0.34547 0.0
Cd156 Cd 0.30547 0.3705 0.35975 0.0
O157 O 0.33302 0.36305 0.33798 0.0
Cd158 Cd 0.30794 0.33901 0.35209 0.0
C159 C 0.28613 0.34581 0.31343 0.0
O160 O 0.30411 0.35125 0.38645 0.0
O161 O 0.28439 0.3279 0.37732 0.0
O162 O 0.32725 0.332 0.36577 0.0
C163 C 0.29028 0.33949 0.3913 0.0
O164 O 0.28886 0.35753 0.32635 0.0
C165 C 0.31959 0.31741 0.35976 0.0
O166 O 0.29222 0.33708 0.31785 0.0
O167 O 0.30627 0.31258 0.34957 0.0
C168 C 0.29835 0.99199 0.66081 0.0
O169 O 0.29025 -0.00124 0.66502 0.0
Cd170 Cd 0.30162 0.02537 0.68027 0.0
O171 O 0.31346 -0.00073 0.66475 0.0
Cd172 Cd 0.3348 0.0256 0.68011 0.0
C173 C 0.3299 0.04786 0.63951 0.0
O174 O 0.31871 0.02736 0.71107 0.0
O175 O 0.34167 0.04875 0.70483 0.0
O176 O 0.34761 0.01446 0.70345 0.0
C177 C 0.32911 0.04144 0.71718 0.0
O178 O 0.31674 0.04422 0.64967 0.0
C179 C 0.36052 0.02009 0.69185 0.0
O180 O 0.33846 0.04203 0.64613 0.0
O181 O 0.36159 0.02825 0.67431 0.0
C182 C 0.9622 0.33509 0.68546 0.0
O183 O 0.94727 0.32695 0.68088 0.0
Cd184 Cd 0.93407 0.30002 0.6664 0.0
O185 O 0.9712 0.3291 0.68228 0.0
Cd186 Cd 0.96768 0.30315 0.66848 0.0
C187 C 0.94124 0.28189 0.71068 0.0
O188 O 0.95001 0.29859 0.63578 0.0
O189 O 0.952 0.27836 0.64634 0.0
O190 O 0.99432 0.31778 0.65029 0.0
C191 C 0.94695 0.28444 0.6318 0.0
O192 O 0.93062 0.28263 0.69876 0.0
C193 C -0.0003 0.30953 0.65935 0.0
O194 O 0.956 0.28941 0.70459 0.0
O195 O 0.99028 0.2985 0.67295 0.0
C196 C 0.6673 0.62783 0.69027 0.0
O197 O 0.67322 0.61941 0.68345 0.0
Cd198 Cd 0.6999 0.63102 0.66724 0.0
O199 O 0.67518 0.643 0.6878 0.0
Cd200 Cd 0.70113 0.66407 0.67127 0.0
C201 C 0.72221 0.65644 0.71042 0.0
O202 O 0.70184 0.64902 0.63767 0.0
O203 O 0.72334 0.67166 0.64447 0.0
O204 O 0.68598 0.67689 0.65897 0.0
C205 C 0.71585 0.65973 0.63135 0.0
O206 O 0.71901 0.64414 0.69854 0.0
C207 C 0.69689 0.69098 0.66439 0.0
O208 O 0.71635 0.66521 0.70518 0.0
O209 O 0.7095 0.69246 0.67357 0.0
C210 C 0.29132 0.28972 0.66737 0.0
O211 O 0.28508 0.27515 0.67316 0.0
Cd212 Cd 0.30168 0.26433 0.68391 0.0
O213 O 0.30655 0.29903 0.66777 0.0
Cd214 Cd 0.3316 0.29888 0.6776 0.0
C215 C 0.32458 0.27271 0.63492 0.0
O216 O 0.32125 0.28165 0.71172 0.0
O217 O 0.34445 0.28686 0.69869 0.0
O218 O 0.33853 0.32541 0.69104 0.0
C219 C 0.33378 0.28058 0.71415 0.0
O220 O 0.31332 0.26253 0.64773 0.0
C221 C 0.35331 0.3323 0.68547 0.0
O222 O 0.33313 0.28732 0.64098 0.0
O223 O 0.3582 0.32373 0.6759 0.0
C224 C 0.66482 0.04233 0.68283 0.0
O225 O 0.67251 0.05697 0.67699 0.0
Cd226 Cd 0.6993 0.06939 0.66115 0.0
O227 O 0.67107 0.03355 0.68019 0.0
Cd228 Cd 0.69609 0.03508 0.66564 0.0
C229 C 0.71834 0.06271 0.70574 0.0
O230 O 0.70055 0.05224 0.63258 0.0
O231 O 0.7201 0.04842 0.64148 0.0
O232 O 0.67806 0.00947 0.64826 0.0
C233 C 0.71439 0.05437 0.62779 0.0
O234 O 0.71626 0.07237 0.69355 0.0
C235 C 0.68478 0.00205 0.65584 0.0
O236 O 0.71157 0.04789 0.70051 0.0
O237 O 0.697 0.00998 0.66855 0.0
C238 C -0.00077 0.69293 0.67087 0.0
O239 O 0.99352 0.70152 0.67772 0.0
Cd240 Cd 0.96698 0.69081 0.6939 0.0
O241 O 0.99103 0.67773 0.67301 0.0
Cd242 Cd 0.9645 0.65701 0.68901 0.0
C243 C 0.94369 0.6657 0.65073 0.0
O244 O 0.96394 0.67206 0.72281 0.0
O245 O 0.94226 0.64966 0.71562 0.0
O246 O 0.97905 0.6438 0.70206 0.0
C247 C 0.94975 0.66157 0.72878 0.0
O248 O 0.94785 0.6782 0.66272 0.0
C249 C 0.96814 0.62976 0.69643 0.0
O250 O 0.94889 0.65628 0.65547 0.0
O251 O 0.95578 0.62845 0.68664 0.0
H252 H 0.23503 0.34107 0.15278 0.0
N253 N 0.20938 0.31355 0.13595 0.0
H254 H 0.24892 0.34404 0.18862 0.0
H255 H 0.20128 0.29158 0.1686 0.0
H256 H 0.21518 0.29451 0.20492 0.0
H257 H 0.22176 0.2965 0.11943 0.0
H258 H 0.24432 0.30532 0.09292 0.0
H259 H 0.22349 0.3416 0.11124 0.0
H260 H 0.24528 0.35011 0.08361 0.0
H261 H 0.20891 0.33942 0.15554 0.0
H262 H 0.18285 0.29886 0.11074 0.0
H263 H 0.18849 0.34662 0.15076 0.0
H264 H 0.1626 0.30664 0.10472 0.0
H265 H 0.12912 0.36803 0.15401 0.0
H266 H 0.11259 0.36416 0.18789 0.0
H267 H 0.08629 0.31309 0.17527 0.0
H268 H 0.1022 0.31725 0.14089 0.0
H269 H 0.10239 0.32077 0.10004 0.0
H270 H 0.08454 0.32238 0.07204 0.0
H271 H 0.11222 0.37408 0.0761 0.0
H272 H 0.13014 0.37227 0.10368 0.0
H273 H 0.1576 0.36522 0.1245 0.0
H274 H 0.17826 0.35766 0.12544 0.0
H275 H 0.14102 0.30769 0.1218 0.0
N276 N 0.12593 0.34605 0.12399 0.0
H277 H 0.1207 0.3155 0.11929 0.0
C278 C 0.21694 0.31607 0.15804 0.0
C279 C 0.23045 0.33087 0.16412 0.0
C280 C 0.23838 0.33258 0.18469 0.0
C281 C 0.23314 0.31952 0.19964 0.0
C282 C 0.21957 0.30476 0.19368 0.0
C283 C 0.21154 0.30309 0.17309 0.0
C284 C 0.22083 0.31825 0.11733 0.0
C285 C 0.2267 0.30811 0.11134 0.0
C286 C 0.23958 0.31318 0.09607 0.0
C287 C 0.24679 0.32852 0.08614 0.0
C288 C 0.24031 0.33837 0.09126 0.0
C289 C 0.22762 0.33339 0.10687 0.0
C290 C 0.19738 0.3183 0.13375 0.0
C291 C 0.19884 0.33198 0.14461 0.0
C292 C 0.18714 0.33629 0.14157 0.0
C293 C 0.17383 0.3273 0.12723 0.0
C294 C 0.17249 0.31374 0.11619 0.0
C295 C 0.1841 0.3093 0.11951 0.0
C296 C 0.11711 0.34298 0.14509 0.0
C297 C 0.1199 0.35601 0.1588 0.0
C298 C 0.11047 0.35373 0.1782 0.0
C299 C 0.09807 0.33828 0.18442 0.0
C300 C 0.09556 0.32518 0.17088 0.0
C301 C 0.10487 0.32751 0.1513 0.0
C302 C 0.11761 0.34646 0.10395 0.0
C303 C 0.10491 0.33243 0.09438 0.0
C304 C 0.09461 0.33339 0.0785 0.0
C305 C 0.09679 0.34836 0.07202 0.0
C306 C 0.11023 0.36235 0.08046 0.0
C307 C 0.1205 0.36136 0.09625 0.0
C308 C 0.13763 0.341 0.12217 0.0
C309 C 0.15398 0.35266 0.12355 0.0
C310 C 0.16574 0.34826 0.12437 0.0
C311 C 0.16136 0.332 0.12419 0.0
C312 C 0.14493 0.32033 0.1219 0.0
C313 C 0.13319 0.32479 0.12072 0.0
H314 H 0.71971 0.78833 0.15231 0.0
N315 N 0.70075 0.79893 0.13753 0.0
H316 H 0.717 0.77379 0.18771 0.0
H317 H 0.6808 0.79538 0.17396 0.0
H318 H 0.6785 0.78159 0.20937 0.0
H319 H 0.66956 0.77399 0.13951 0.0
H320 H 0.65718 0.75106 0.11383 0.0
H321 H 0.71278 0.79554 0.09839 0.0
H322 H 0.70028 0.77277 0.07203 0.0
H323 H 0.7245 0.82884 0.13153 0.0
H324 H 0.67286 0.80027 0.13822 0.0
H325 H 0.72264 0.85295 0.12786 0.0
H326 H 0.67087 0.82429 0.13655 0.0
H327 H 0.70746 0.92815 0.148 0.0
H328 H 0.703 0.9373 0.1847 0.0
H329 H 0.66846 0.88822 0.20282 0.0
H330 H 0.67221 0.87945 0.16541 0.0
H331 H 0.66067 0.88838 0.12925 0.0
H332 H 0.64818 0.89802 0.10232 0.0
H333 H 0.69357 0.9245 0.06627 0.0
H334 H 0.70606 0.9152 0.09384 0.0
H335 H 0.71691 0.89511 0.14656 0.0
H336 H 0.71856 0.87086 0.14799 0.0
H337 H 0.67207 0.84464 0.11505 0.0
N338 N 0.69284 0.89846 0.13167 0.0
H339 H 0.67003 0.86865 0.11546 0.0
C340 C 0.70056 0.79302 0.16024 0.0
C341 C 0.7109 0.78714 0.16493 0.0
C342 C 0.70934 0.77885 0.18519 0.0
C343 C 0.69737 0.77632 0.20127 0.0
C344 C 0.6876 0.78299 0.19712 0.0
C345 C 0.68906 0.79112 0.1768 0.0
C346 C 0.6922 0.78646 0.1209 0.0
C347 C 0.67625 0.77398 0.12462 0.0
C348 C 0.66915 0.76086 0.10982 0.0
C349 C 0.67779 0.75998 0.09095 0.0
C350 C 0.6934 0.77291 0.08663 0.0
C351 C 0.70052 0.78599 0.10151 0.0
C352 C 0.69894 0.81281 0.13555 0.0
C353 C 0.71278 0.82783 0.13253 0.0
C354 C 0.71165 0.84163 0.13065 0.0
C355 C 0.6966 0.84076 0.13222 0.0
C356 C 0.68268 0.82556 0.13496 0.0
C357 C 0.6838 0.81173 0.13626 0.0
C358 C 0.69037 0.90317 0.15405 0.0
C359 C 0.69896 0.91942 0.15998 0.0
C360 C 0.69646 0.92458 0.18109 0.0
C361 C 0.68542 0.91353 0.19698 0.0
C362 C 0.67687 0.89716 0.191 0.0
C363 C 0.67915 0.89206 0.16966 0.0
C364 C 0.68441 0.9013 0.11368 0.0
C365 C 0.66785 0.89603 0.11531 0.0
C366 C 0.6607 0.90148 0.09978 0.0
C367 C 0.66994 0.91224 0.08232 0.0
C368 C 0.68619 0.91649 0.0798 0.0
C369 C 0.69333 0.9111 0.09538 0.0
C370 C 0.69351 0.88387 0.13075 0.0
C371 C 0.70711 0.8841 0.13963 0.0
C372 C 0.70806 0.87019 0.14022 0.0
C373 C 0.69552 0.85564 0.13145 0.0
C374 C 0.6819 0.85547 0.12231 0.0
C375 C 0.68079 0.86935 0.12224 0.0
H376 H 0.1148 0.76945 0.14282 0.0
N377 N 0.10792 0.79067 0.12252 0.0
H378 H 0.1052 0.75688 0.18011 0.0
H379 H 0.09209 0.79755 0.15355 0.0
H380 H 0.08274 0.78534 0.19126 0.0
H381 H 0.07834 0.77567 0.10617 0.0
H382 H 0.06612 0.75246 0.08116 0.0
H383 H 0.12417 0.77816 0.10001 0.0
H384 H 0.11232 0.75537 0.07365 0.0
H385 H 0.1377 0.79727 0.13747 0.0
H386 H 0.11292 0.81637 0.09971 0.0
H387 H 0.16254 0.82321 0.1357 0.0
H388 H 0.13794 0.84214 0.09656 0.0
H389 H 0.21876 0.88579 0.15475 0.0
H390 H 0.23112 0.89844 0.19084 0.0
H391 H 0.21958 0.93551 0.17797 0.0
H392 H 0.20854 0.9234 0.14092 0.0
H393 H 0.21232 0.91677 0.08621 0.0
H394 H 0.23599 0.92989 0.06105 0.0
H395 H 0.25703 0.90594 0.09669 0.0
H396 H 0.23338 0.89267 0.12102 0.0
H397 H 0.20796 0.86986 0.11711 0.0
H398 H 0.18422 0.84317 0.11412 0.0
H399 H 0.15365 0.86379 0.12073 0.0
N400 N 0.20808 0.89825 0.122 0.0
H401 H 0.17751 0.89046 0.12254 0.0
C402 C 0.10404 0.78439 0.14541 0.0
C403 C 0.10796 0.77311 0.15339 0.0
C404 C 0.10252 0.76598 0.17478 0.0
C405 C 0.09308 0.77001 0.1886 0.0
C406 C 0.08973 0.78176 0.18087 0.0
C407 C 0.09516 0.78885 0.15947 0.0
C408 C 0.1021 0.77869 0.10482 0.0
C409 C 0.08586 0.77145 0.09875 0.0
C410 C 0.07894 0.75821 0.08427 0.0
C411 C 0.0882 0.75196 0.07513 0.0
C412 C 0.10474 0.75968 0.08053 0.0
C413 C 0.11161 0.77285 0.0954 0.0
C414 C 0.12332 0.80502 0.11912 0.0
C415 C 0.13764 0.80698 0.12849 0.0
C416 C 0.15193 0.82184 0.12726 0.0
C417 C 0.15225 0.83494 0.11632 0.0
C418 C 0.13809 0.83253 0.10572 0.0
C419 C 0.1238 0.81777 0.10726 0.0
C420 C 0.21309 0.90393 0.14492 0.0
C421 C 0.21898 0.89668 0.15966 0.0
C422 C 0.22586 0.90386 0.18053 0.0
C423 C 0.22662 0.91821 0.18737 0.0
C424 C 0.21972 0.92478 0.1731 0.0
C425 C 0.21319 0.91779 0.15203 0.0
C426 C 0.22098 0.90374 0.10549 0.0
C427 C 0.22191 0.9141 0.08815 0.0
C428 C 0.2355 0.9217 0.07399 0.0
C429 C 0.24849 0.91908 0.07697 0.0
C430 C 0.2472 0.9081 0.09369 0.0
C431 C 0.2336 0.9005 0.10778 0.0
C432 C 0.19449 0.88225 0.11974 0.0
C433 C 0.19619 0.86869 0.1176 0.0
C434 C 0.18253 0.85335 0.11609 0.0
C435 C 0.16693 0.85123 0.117 0.0
C436 C 0.16539 0.86488 0.11934 0.0
C437 C 0.17901 0.88016 0.12058 0.0
H438 H 0.36522 0.24416 0.86599 0.0
N439 N 0.34353 0.22042 0.89184 0.0
H440 H 0.36048 0.2545 0.83065 0.0
H441 H 0.31512 0.20727 0.86834 0.0
H442 H 0.31035 0.21711 0.83275 0.0
H443 H 0.32159 0.23006 0.89967 0.0
H444 H 0.32436 0.24981 0.92742 0.0
H445 H 0.36249 0.22964 0.92846 0.0
H446 H 0.3643 0.24814 0.95819 0.0
H447 H 0.36541 0.21154 0.89107 0.0
H448 H 0.31466 0.19334 0.90039 0.0
H449 H 0.361 0.18451 0.8942 0.0
H450 H 0.30968 0.16596 0.90115 0.0
H451 H 0.34951 0.11047 0.87298 0.0
H452 H 0.35316 0.10087 0.83619 0.0
H453 H 0.30373 0.08518 0.81897 0.0
H454 H 0.30011 0.09472 0.85619 0.0
H455 H 0.30517 0.07754 0.90365 0.0
H456 H 0.31436 0.06379 0.92845 0.0
H457 H 0.3578 0.10893 0.94255 0.0
H458 H 0.34899 0.12226 0.91607 0.0
H459 H 0.34732 0.13491 0.87121 0.0
H460 H 0.3521 0.16179 0.87352 0.0
H461 H 0.31109 0.14559 0.91895 0.0
N462 N 0.32156 0.10768 0.88974 0.0
H463 H 0.30552 0.1181 0.91478 0.0
C464 C 0.34064 0.22489 0.8697 0.0
C465 C 0.35329 0.23808 0.85856 0.0
C466 C 0.35054 0.24393 0.83836 0.0
C467 C 0.33501 0.23665 0.82885 0.0
C468 C 0.32241 0.22312 0.83974 0.0
C469 C 0.32518 0.21732 0.85998 0.0
C470 C 0.34221 0.22873 0.91147 0.0
C471 C 0.33091 0.23385 0.91241 0.0
C472 C 0.33241 0.24512 0.92867 0.0
C473 C 0.34488 0.25109 0.94493 0.0
C474 C 0.35498 0.24447 0.94545 0.0
C475 C 0.35381 0.23364 0.92867 0.0
C476 C 0.34036 0.20434 0.89484 0.0
C477 C 0.35326 0.20158 0.89351 0.0
C478 C 0.35063 0.18606 0.89503 0.0
C479 C 0.3349 0.17281 0.89732 0.0
C480 C 0.32199 0.17574 0.89946 0.0
C481 C 0.32474 0.19139 0.8986 0.0
C482 C 0.32446 0.10328 0.86735 0.0
C483 C 0.33948 0.1051 0.86126 0.0
C484 C 0.34159 0.09969 0.84013 0.0
C485 C 0.32873 0.09226 0.82468 0.0
C486 C 0.31382 0.09072 0.83062 0.0
C487 C 0.31175 0.09623 0.85175 0.0
C488 C 0.32625 0.10089 0.90799 0.0
C489 C 0.31654 0.08448 0.91245 0.0
C490 C 0.32184 0.07666 0.92684 0.0
C491 C 0.33694 0.08515 0.93766 0.0
C492 C 0.34628 0.10185 0.93421 0.0
C493 C 0.34112 0.1096 0.91929 0.0
C494 C 0.32573 0.12422 0.89244 0.0
C495 C 0.33919 0.13694 0.88153 0.0
C496 C 0.3421 0.15257 0.8832 0.0
C497 C 0.332 0.15609 0.89643 0.0
C498 C 0.31895 0.14342 0.90814 0.0
C499 C 0.31582 0.12768 0.90599 0.0
H500 H 0.7644 0.10493 0.86976 0.0
N501 N 0.78654 0.09916 0.88996 0.0
H502 H 0.75193 0.09528 0.8326 0.0
H503 H 0.79272 0.08229 0.85978 0.0
H504 H 0.78022 0.07253 0.82226 0.0
H505 H 0.76906 0.07 0.90709 0.0
H506 H 0.74585 0.06003 0.93246 0.0
H507 H 0.77649 0.11771 0.91259 0.0
H508 H 0.75406 0.10813 0.93926 0.0
H509 H 0.79071 0.12777 0.87401 0.0
H510 H 0.81429 0.10634 0.90934 0.0
H511 H 0.81543 0.15366 0.875 0.0
H512 H 0.83912 0.13251 0.91111 0.0
H513 H 0.86999 0.21237 0.85861 0.0
H514 H 0.87786 0.2252 0.82142 0.0
H515 H 0.92267 0.22504 0.82534 0.0
H516 H 0.915 0.21304 0.86335 0.0
H517 H 0.90875 0.21121 0.92094 0.0
H518 H 0.91908 0.23309 0.94891 0.0
H519 H 0.88896 0.24958 0.91956 0.0
H520 H 0.87863 0.22777 0.89219 0.0
H521 H 0.8583 0.20089 0.89681 0.0
H522 H 0.83342 0.17514 0.89969 0.0
H523 H 0.8599 0.15094 0.88547 0.0
N524 N 0.8885 0.20578 0.8869 0.0
H525 H 0.8849 0.17687 0.88326 0.0
C526 C 0.77964 0.09442 0.86748 0.0
C527 C 0.76811 0.09806 0.85943 0.0
C528 C 0.76099 0.09253 0.83815 0.0
C529 C 0.76513 0.08318 0.82448 0.0
C530 C 0.77671 0.07962 0.83249 0.0
C531 C 0.78393 0.08526 0.85377 0.0
C532 C 0.77464 0.09455 0.90792 0.0
C533 C 0.76597 0.07841 0.91437 0.0
C534 C 0.75272 0.07277 0.92904 0.0
C535 C 0.74795 0.08325 0.93806 0.0
C536 C 0.75713 0.09962 0.93239 0.0
C537 C 0.7702 0.1052 0.91728 0.0
C538 C 0.80067 0.11496 0.89142 0.0
C539 C 0.80116 0.12859 0.88211 0.0
C540 C 0.81533 0.14352 0.8829 0.0
C541 C 0.82931 0.1452 0.89308 0.0
C542 C 0.82866 0.13162 0.90283 0.0
C543 C 0.81448 0.11668 0.90198 0.0
C544 C 0.89205 0.21192 0.86392 0.0
C545 C 0.88151 0.21512 0.85154 0.0
C546 C 0.88599 0.22234 0.83006 0.0
C547 C 0.90098 0.2263 0.82031 0.0
C548 C 0.9112 0.22252 0.83246 0.0
C549 C 0.9068 0.21552 0.85407 0.0
C550 C 0.89294 0.21776 0.90446 0.0
C551 C 0.90423 0.21943 0.92085 0.0
C552 C 0.91017 0.23198 0.93667 0.0
C553 C 0.90489 0.24312 0.93639 0.0
C554 C 0.89315 0.24111 0.92045 0.0
C555 C 0.88725 0.22859 0.90463 0.0
C556 C 0.87358 0.19083 0.88993 0.0
C557 C 0.85886 0.19011 0.89456 0.0
C558 C 0.84455 0.17531 0.89604 0.0
C559 C 0.84462 0.16093 0.89279 0.0
C560 C 0.85941 0.16173 0.88843 0.0
C561 C 0.87369 0.17652 0.88703 0.0
H562 H 0.78769 0.71114 0.87067 0.0
N563 N 0.79121 0.68989 0.89453 0.0
H564 H 0.77491 0.70736 0.83346 0.0
H565 H 0.78041 0.66348 0.86728 0.0
H566 H 0.76661 0.65907 0.83082 0.0
H567 H 0.76721 0.65892 0.90278 0.0
H568 H 0.74434 0.65054 0.92844 0.0
H569 H 0.78758 0.70768 0.92594 0.0
H570 H 0.76468 0.69932 0.95208 0.0
H571 H 0.82079 0.71174 0.88216 0.0
H572 H 0.79358 0.66465 0.91191 0.0
H573 H 0.84524 0.7102 0.884 0.0
H574 H 0.81809 0.66339 0.91528 0.0
H575 H 0.92347 0.70439 0.88856 0.0
H576 H 0.93681 0.70345 0.85347 0.0
H577 H 0.89096 0.66615 0.82757 0.0
H578 H 0.87802 0.66658 0.863 0.0
H579 H 0.88329 0.65336 0.8987 0.0
H580 H 0.89225 0.63936 0.92387 0.0
H581 H 0.91768 0.68204 0.96516 0.0
H582 H 0.90877 0.69601 0.93965 0.0
H583 H 0.88957 0.71044 0.90735 0.0
H584 H 0.86471 0.71138 0.90801 0.0
H585 H 0.83738 0.66028 0.89552 0.0
N586 N 0.89295 0.68523 0.90071 0.0
H587 H 0.86222 0.65941 0.89662 0.0
C588 C 0.7848 0.68757 0.8718 0.0
C589 C 0.78329 0.69985 0.86181 0.0
C590 C 0.77582 0.69757 0.84067 0.0
C591 C 0.76944 0.6828 0.82919 0.0
C592 C 0.77145 0.67064 0.83898 0.0
C593 C 0.77918 0.67306 0.86 0.0
C594 C 0.7792 0.68401 0.91243 0.0
C595 C 0.76702 0.66778 0.91382 0.0
C596 C 0.75391 0.66297 0.92861 0.0
C597 C 0.75262 0.67428 0.94219 0.0
C598 C 0.76523 0.69035 0.94163 0.0
C599 C 0.77837 0.69513 0.92689 0.0
C600 C 0.80536 0.68848 0.89706 0.0
C601 C 0.82017 0.70117 0.88944 0.0
C602 C 0.83418 0.70029 0.89072 0.0
C603 C 0.83381 0.68673 0.90006 0.0
C604 C 0.8189 0.67396 0.90775 0.0
C605 C 0.80479 0.67474 0.90605 0.0
C606 C 0.89976 0.68571 0.8785 0.0
C607 C 0.91631 0.69618 0.87513 0.0
C608 C 0.92389 0.69564 0.855 0.0
C609 C 0.91501 0.68464 0.83764 0.0
C610 C 0.89827 0.67455 0.84071 0.0
C611 C 0.89075 0.67495 0.86099 0.0
C612 C 0.8954 0.67578 0.91736 0.0
C613 C 0.8904 0.65957 0.91351 0.0
C614 C 0.89555 0.65157 0.92793 0.0
C615 C 0.90583 0.65965 0.94636 0.0
C616 C 0.90998 0.67557 0.9509 0.0
C617 C 0.9048 0.68352 0.93651 0.0
C618 C 0.87784 0.68498 0.9016 0.0
C619 C 0.87817 0.69945 0.90493 0.0
C620 C 0.86391 0.69995 0.90506 0.0
C621 C 0.84891 0.68594 0.90142 0.0
C622 C 0.8486 0.67132 0.89857 0.0
C623 C 0.86289 0.67081 0.89891 0.0
H624 H 0.73764 0.61947 0.46591 0.0
N625 N 0.76832 0.63759 0.45342 0.0
H626 H 0.72511 0.62036 0.50189 0.0
H627 H 0.7841 0.65553 0.49113 0.0
H628 H 0.77193 0.65588 0.52747 0.0
H629 H 0.77667 0.66906 0.45798 0.0
H630 H 0.76689 0.68305 0.43428 0.0
H631 H 0.75442 0.62835 0.41274 0.0
H632 H 0.74479 0.64247 0.38867 0.0
H633 H 0.77236 0.61265 0.45763 0.0
H634 H 0.79889 0.66397 0.44953 0.0
H635 H 0.7976 0.61261 0.4609 0.0
H636 H 0.82422 0.66402 0.45178 0.0
H637 H 0.86491 0.61206 0.49933 0.0
H638 H 0.87712 0.61432 0.53682 0.0
H639 H 0.90304 0.66591 0.53041 0.0
H640 H 0.89057 0.66356 0.49373 0.0
H641 H 0.88764 0.66654 0.45489 0.0
H642 H 0.91174 0.67795 0.43103 0.0
H643 H 0.90526 0.63066 0.42178 0.0
H644 H 0.88191 0.61967 0.44731 0.0
H645 H 0.84489 0.61502 0.44759 0.0
H646 H 0.82042 0.61607 0.44069 0.0
H647 H 0.84064 0.66048 0.47855 0.0
N648 N 0.87083 0.63565 0.47057 0.0
H649 H 0.86525 0.65968 0.48436 0.0
C650 C 0.76177 0.63727 0.4758 0.0
C651 C 0.74517 0.62731 0.47943 0.0
C652 C 0.73806 0.6278 0.50006 0.0
C653 C 0.74748 0.63823 0.51766 0.0
C654 C 0.76423 0.64791 0.5142 0.0
C655 C 0.77128 0.64756 0.49345 0.0
C656 C 0.76608 0.64751 0.43724 0.0
C657 C 0.77009 0.6633 0.4426 0.0
C658 C 0.76447 0.67128 0.42907 0.0
C659 C 0.75497 0.66376 0.40979 0.0
C660 C 0.75217 0.64857 0.40337 0.0
C661 C 0.75764 0.6405 0.41708 0.0
C662 C 0.78363 0.63819 0.45311 0.0
C663 C 0.78366 0.62387 0.4561 0.0
C664 C 0.79814 0.62389 0.45786 0.0
C665 C 0.81303 0.63832 0.45652 0.0
C666 C 0.813 0.65271 0.45316 0.0
C667 C 0.79847 0.65267 0.45159 0.0
C668 C 0.87671 0.63755 0.49365 0.0
C669 C 0.87299 0.62383 0.50631 0.0
C670 C 0.8801 0.62516 0.52759 0.0
C671 C 0.89114 0.64031 0.53661 0.0
C672 C 0.89443 0.65406 0.5242 0.0
C673 C 0.8873 0.65271 0.50301 0.0
C674 C 0.88321 0.64227 0.45328 0.0
C675 C 0.89141 0.65865 0.44773 0.0
C676 C 0.90514 0.66513 0.43378 0.0
C677 C 0.91072 0.6553 0.42468 0.0
C678 C 0.9017 0.63872 0.42901 0.0
C679 C 0.88821 0.63234 0.44334 0.0
C680 C 0.85681 0.63706 0.46674 0.0
C681 C 0.84401 0.62499 0.45429 0.0
C682 C 0.83001 0.62559 0.4505 0.0
C683 C 0.82842 0.63828 0.45928 0.0
C684 C 0.84145 0.6506 0.47135 0.0
C685 C 0.85554 0.65006 0.47493 0.0
H686 H 0.37318 0.12975 0.49795 0.0
N687 N 0.35122 0.1267 0.46782 0.0
H688 H 0.36845 0.11676 0.53539 0.0
H689 H 0.32187 0.10831 0.48897 0.0
H690 H 0.3171 0.09527 0.52577 0.0
H691 H 0.32079 0.11283 0.4499 0.0
H692 H 0.30855 0.08986 0.42429 0.0
H693 H 0.36608 0.11401 0.44537 0.0
H694 H 0.35431 0.0917 0.41837 0.0
H695 H 0.37466 0.15277 0.44806 0.0
H696 H 0.32783 0.13398 0.47931 0.0
H697 H 0.37606 0.17843 0.44184 0.0
H698 H 0.32935 0.15962 0.474 0.0
H699 H 0.37543 0.26262 0.4701 0.0
H700 H 0.3721 0.27311 0.50642 0.0
H701 H 0.33402 0.22551 0.52506 0.0
H702 H 0.33666 0.21551 0.48823 0.0
H703 H 0.32654 0.22603 0.45243 0.0
H704 H 0.31578 0.23804 0.42666 0.0
H705 H 0.36113 0.26155 0.39008 0.0
H706 H 0.37191 0.24966 0.41632 0.0
H707 H 0.38145 0.22694 0.4611 0.0
H708 H 0.37959 0.20087 0.46339 0.0
H709 H 0.32899 0.17766 0.44649 0.0
N710 N 0.3579 0.233 0.45391 0.0
H711 H 0.33086 0.20372 0.44504 0.0
C712 C 0.34798 0.12016 0.49063 0.0
C713 C 0.36094 0.12243 0.50417 0.0
C714 C 0.3582 0.11489 0.52542 0.0
C715 C 0.34239 0.10495 0.53356 0.0
C716 C 0.32943 0.10303 0.5202 0.0
C717 C 0.33218 0.11051 0.49898 0.0
C718 C 0.34432 0.11494 0.44988 0.0
C719 C 0.32819 0.10832 0.44308 0.0
C720 C 0.32124 0.09523 0.42817 0.0
C721 C 0.33034 0.08868 0.41944 0.0
C722 C 0.34677 0.09607 0.42521 0.0
C723 C 0.3536 0.10895 0.44041 0.0
C724 C 0.3513 0.14149 0.46435 0.0
C725 C 0.36472 0.15422 0.45367 0.0
C726 C 0.36552 0.16889 0.45025 0.0
C727 C 0.35286 0.17118 0.45756 0.0
C728 C 0.33924 0.15827 0.46791 0.0
C729 C 0.33843 0.14356 0.47119 0.0
C730 C 0.35648 0.2383 0.47643 0.0
C731 C 0.36644 0.25449 0.48215 0.0
C732 C 0.36456 0.26042 0.50301 0.0
C733 C 0.35275 0.2502 0.51882 0.0
C734 C 0.34302 0.23386 0.51323 0.0
C735 C 0.34469 0.22802 0.49218 0.0
C736 C 0.35012 0.23704 0.43633 0.0
C737 C 0.33403 0.2334 0.4385 0.0
C738 C 0.32787 0.24027 0.42369 0.0
C739 C 0.33766 0.25092 0.40647 0.0
C740 C 0.35336 0.2536 0.40339 0.0
C741 C 0.3595 0.24673 0.4182 0.0
C742 C 0.35642 0.21739 0.45273 0.0
C743 C 0.37001 0.21622 0.45762 0.0
C744 C 0.36892 0.20129 0.45883 0.0
C745 C 0.35412 0.1871 0.4551 0.0
C746 C 0.34053 0.1883 0.44974 0.0
C747 C 0.34163 0.20327 0.44864 0.0
H748 H 0.77394 0.1004 0.47014 0.0
N749 N 0.77087 0.1232 0.44713 0.0
H750 H 0.76178 0.08867 0.50691 0.0
H751 H 0.7562 0.13318 0.47575 0.0
H752 H 0.74446 0.12194 0.51315 0.0
H753 H 0.74121 0.10823 0.43104 0.0
H754 H 0.72808 0.08356 0.40929 0.0
H755 H 0.78637 0.10918 0.42636 0.0
H756 H 0.7737 0.08508 0.40271 0.0
H757 H 0.79893 0.12738 0.46571 0.0
H758 H 0.77941 0.14913 0.42222 0.0
H759 H 0.82497 0.15216 0.4656 0.0
H760 H 0.8057 0.1737 0.42074 0.0
H761 H 0.89066 0.21651 0.4824 0.0
H762 H 0.90411 0.22969 0.5178 0.0
H763 H 0.88486 0.26139 0.51202 0.0
H764 H 0.87255 0.24884 0.47567 0.0
H765 H 0.87961 0.24848 0.42283 0.0
H766 H 0.90267 0.26311 0.39705 0.0
H767 H 0.92217 0.23397 0.4199 0.0
H768 H 0.89891 0.21914 0.44473 0.0
H769 H 0.87336 0.19722 0.45151 0.0
H770 H 0.84874 0.17124 0.44657 0.0
H771 H 0.82087 0.19497 0.44563 0.0
N772 N 0.8754 0.2265 0.45339 0.0
H773 H 0.84562 0.22081 0.44938 0.0
C774 C 0.76582 0.1176 0.47015 0.0
C775 C 0.76769 0.10529 0.47954 0.0
C776 C 0.76079 0.09865 0.50067 0.0
C777 C 0.752 0.10426 0.51295 0.0
C778 C 0.75087 0.11711 0.50397 0.0
C779 C 0.75768 0.12367 0.48275 0.0
C780 C 0.76472 0.11061 0.43025 0.0
C781 C 0.74841 0.10338 0.42448 0.0
C782 C 0.74095 0.08924 0.41182 0.0
C783 C 0.74972 0.08208 0.40403 0.0
C784 C 0.76639 0.08993 0.40872 0.0
C785 C 0.77377 0.10393 0.42197 0.0
C786 C 0.78707 0.13654 0.44435 0.0
C787 C 0.80031 0.13739 0.45578 0.0
C788 C 0.8153 0.1516 0.45553 0.0
C789 C 0.81744 0.16514 0.44354 0.0
C790 C 0.80443 0.16375 0.43078 0.0
C791 C 0.78942 0.14965 0.43134 0.0
C792 C 0.88091 0.23197 0.4762 0.0
C793 C 0.88936 0.22629 0.48877 0.0
C794 C 0.89691 0.23377 0.50922 0.0
C795 C 0.89587 0.24686 0.51772 0.0
C796 C 0.8864 0.25171 0.50575 0.0
C797 C 0.87915 0.24443 0.48513 0.0
C798 C 0.88753 0.23279 0.43575 0.0
C799 C 0.88868 0.24502 0.42175 0.0
C800 C 0.90195 0.25346 0.40725 0.0
C801 C 0.91442 0.24989 0.40662 0.0
C802 C 0.91276 0.23698 0.41975 0.0
C803 C 0.89942 0.22849 0.43413 0.0
C804 C 0.86128 0.21096 0.4505 0.0
C805 C 0.86198 0.19682 0.44992 0.0
C806 C 0.84782 0.18193 0.44729 0.0
C807 C 0.83273 0.18092 0.44547 0.0
C808 C 0.83222 0.1952 0.44632 0.0
C809 C 0.84633 0.21 0.44869 0.0
H810 H 0.04753 0.58627 0.20325 0.0
N811 N 0.02411 0.56354 0.22841 0.0
H812 H 0.04505 0.59659 0.16631 0.0
H813 H 0.99668 0.55154 0.20259 0.0
H814 H 0.99413 0.56154 0.16568 0.0
H815 H -6e-05 0.57037 0.23461 0.0
H816 H 0.00066 0.59018 0.26068 0.0
H817 H 0.04331 0.57591 0.26434 0.0
H818 H 0.0433 0.59462 0.29235 0.0
H819 H 0.04399 0.55221 0.22966 0.0
H820 H 0.99392 0.53799 0.23628 0.0
H821 H 0.03714 0.52438 0.23348 0.0
H822 H 0.98659 0.50986 0.23794 0.0
H823 H 0.01948 0.4484 0.21262 0.0
H824 H 0.0213 0.43721 0.17612 0.0
H825 H 0.97199 0.42353 0.16153 0.0
H826 H 0.97026 0.43481 0.19836 0.0
H827 H 0.97553 0.41814 0.24562 0.0
H828 H 0.98411 0.40402 0.27068 0.0
H829 H 0.02897 0.44827 0.28272 0.0
H830 H 0.02077 0.46188 0.25587 0.0
H831 H 0.01972 0.47371 0.21125 0.0
H832 H 0.02667 0.50137 0.21259 0.0
H833 H 0.98593 0.48868 0.25721 0.0
N834 N 0.99286 0.4479 0.23045 0.0
H835 H 0.97825 0.46048 0.25419 0.0
C836 C 0.0224 0.56812 0.20567 0.0
C837 C 0.03591 0.5807 0.19493 0.0
C838 C 0.03445 0.58654 0.17385 0.0
C839 C 0.01937 0.57991 0.16311 0.0
C840 C 0.00588 0.56703 0.17365 0.0
C841 C 0.00737 0.56117 0.1947 0.0
C842 C 0.02195 0.57207 0.247 0.0
C843 C 0.00942 0.57554 0.24717 0.0
C844 C 0.00976 0.58683 0.26246 0.0
C845 C 0.02231 0.59448 0.27846 0.0
C846 C 0.0338 0.58957 0.27976 0.0
C847 C 0.03372 0.57866 0.26399 0.0
C848 C 0.01947 0.54707 0.23209 0.0
C849 C 0.03147 0.54297 0.23173 0.0
C850 C 0.02746 0.527 0.23365 0.0
C851 C 0.01123 0.51465 0.23544 0.0
C852 C -0.00078 0.51892 0.23665 0.0
C853 C 0.00334 0.53501 0.23531 0.0
C854 C 0.99469 0.44251 0.20818 0.0
C855 C 0.00911 0.44318 0.20149 0.0
C856 C 0.01015 0.43682 0.18057 0.0
C857 C 0.99679 0.42949 0.16596 0.0
C858 C 0.98245 0.429 0.17253 0.0
C859 C 0.98146 0.4355 0.19342 0.0
C860 C 0.99737 0.44103 0.24882 0.0
C861 C 0.9871 0.42482 0.254 0.0
C862 C 0.99206 0.41679 0.26857 0.0
C863 C 0.00735 0.42489 0.27892 0.0
C864 C 0.01728 0.44145 0.27476 0.0
C865 C 0.01247 0.44938 0.25961 0.0
C866 C -0.00186 0.46478 0.23226 0.0
C867 C 0.0121 0.47669 0.22118 0.0
C868 C 0.01626 0.49274 0.22227 0.0
C869 C 0.00691 0.49747 0.23503 0.0
C870 C 0.99328 0.48558 0.24679 0.0
C871 C 0.98893 0.46943 0.24528 0.0
H872 H 0.59158 0.55189 0.19769 0.0
N873 N 0.56646 0.5448 0.22463 0.0
H874 H 0.59769 0.56472 0.16016 0.0
H875 H 0.54794 0.55393 0.20121 0.0
H876 H 0.55433 0.56763 0.1645 0.0
H877 H 0.5488 0.55793 0.24086 0.0
H878 H 0.55819 0.58056 0.26679 0.0
H879 H 0.59423 0.55963 0.24671 0.0
H880 H 0.60439 0.58317 0.27105 0.0
H881 H 0.55464 0.52067 0.1942 0.0
H882 H 0.54454 0.53289 0.26098 0.0
H883 H 0.52996 0.49483 0.19648 0.0
H884 H 0.51972 0.50716 0.26277 0.0
H885 H 0.45761 0.41213 0.20156 0.0
H886 H 0.44576 0.40499 0.16341 0.0
H887 H 0.44487 0.44919 0.16092 0.0
H888 H 0.4574 0.45649 0.19836 0.0
H889 H 0.4407 0.44579 0.23141 0.0
H890 H 0.4175 0.43263 0.25667 0.0
H891 H 0.43635 0.40432 0.28514 0.0
H892 H 0.45948 0.41733 0.25905 0.0
H893 H 0.49401 0.44393 0.21868 0.0
H894 H 0.51914 0.46984 0.22005 0.0
H895 H 0.49246 0.49254 0.24147 0.0
N896 N 0.46431 0.43798 0.22591 0.0
H897 H 0.46742 0.46668 0.23994 0.0
C898 C 0.56944 0.55209 0.2023 0.0
C899 C 0.5834 0.55523 0.19037 0.0
C900 C 0.58691 0.56269 0.16903 0.0
C901 C 0.57658 0.56736 0.15926 0.0
C902 C 0.56249 0.56406 0.17126 0.0
C903 C 0.55889 0.5564 0.19246 0.0
C904 C 0.57073 0.55682 0.2422 0.0
C905 C 0.5608 0.56312 0.24788 0.0
C906 C 0.56633 0.57628 0.26254 0.0
C907 C 0.58219 0.58398 0.27108 0.0
C908 C 0.592 0.5775 0.26546 0.0
C909 C 0.58626 0.56403 0.2514 0.0
C910 C 0.55129 0.52961 0.22657 0.0
C911 C 0.54702 0.5181 0.20912 0.0
C912 C 0.53295 0.50316 0.21053 0.0
C913 C 0.52278 0.49908 0.22965 0.0
C914 C 0.52715 0.51018 0.24755 0.0
C915 C 0.54139 0.52511 0.2463 0.0
C916 C 0.45832 0.43474 0.20285 0.0
C917 C 0.45501 0.42032 0.19256 0.0
C918 C 0.44811 0.41622 0.17087 0.0
C919 C 0.44421 0.42644 0.15909 0.0
C920 C 0.44788 0.4411 0.16929 0.0
C921 C 0.45493 0.44525 0.19087 0.0
C922 C 0.4519 0.43249 0.24324 0.0
C923 C 0.44008 0.43698 0.24329 0.0
C924 C 0.42676 0.42945 0.25791 0.0
C925 C 0.42495 0.4173 0.27286 0.0
C926 C 0.43721 0.41344 0.27358 0.0
C927 C 0.45052 0.42096 0.25888 0.0
C928 C 0.47883 0.45324 0.22928 0.0
C929 C 0.49363 0.45447 0.22395 0.0
C930 C 0.50793 0.46927 0.22461 0.0
C931 C 0.50773 0.48321 0.23076 0.0
C932 C 0.49297 0.48196 0.23684 0.0
C933 C 0.47861 0.46713 0.23594 0.0
H934 H 0.53571 0.96312 0.19724 0.0
N935 N 0.54071 0.984 0.2301 0.0
H936 H 0.55168 0.96771 0.16259 0.0
H937 H 0.56489 0.013 0.21495 0.0
H938 H 0.58023 0.01806 0.17968 0.0
H939 H 0.56336 0.00839 0.25599 0.0
H940 H 0.58124 0.00617 0.28364 0.0
H941 H 0.53795 0.95728 0.24625 0.0
H942 H 0.55566 0.95484 0.27344 0.0
H943 H 0.50997 0.96306 0.2386 0.0
H944 H 0.54349 0.01356 0.23074 0.0
H945 H 0.48775 0.9683 0.24227 0.0
H946 H 0.52137 0.01893 0.2326 0.0
H947 H 0.42674 0.98035 0.20966 0.0
H948 H 0.41632 0.97718 0.1712 0.0
H949 H 0.45005 0.02709 0.15748 0.0
H950 H 0.46075 0.03023 0.1964 0.0
H951 H 0.44377 0.02769 0.24925 0.0
H952 H 0.42137 0.02078 0.27554 0.0
H953 H 0.40925 0.97124 0.27401 0.0
H954 H 0.43223 0.97848 0.2488 0.0
H955 H 0.45061 0.98009 0.21626 0.0
H956 H 0.47252 0.97479 0.21916 0.0
H957 H 0.50136 0.02015 0.25364 0.0
N958 N 0.45128 0.0079 0.22874 0.0
H959 H 0.47946 0.02583 0.24919 0.0
C960 C 0.5489 0.9877 0.20844 0.0
C961 C 0.54526 0.97516 0.19322 0.0
C962 C 0.55439 0.97787 0.17337 0.0
C963 C 0.5673 0.9933 0.16818 0.0
C964 C 0.57056 0.00598 0.1832 0.0
C965 C 0.56158 0.00317 0.20326 0.0
C966 C 0.54939 0.98294 0.24918 0.0
C967 C 0.56147 0.99668 0.26016 0.0
C968 C 0.57171 0.99539 0.27581 0.0
C969 C 0.56993 0.98034 0.28072 0.0
C970 C 0.55726 0.96659 0.27042 0.0
C971 C 0.54712 0.96792 0.25484 0.0
C972 C 0.52828 0.98783 0.23394 0.0
C973 C 0.51248 0.97529 0.23761 0.0
C974 C 0.4998 0.97833 0.23945 0.0
C975 C 0.50262 0.99403 0.23727 0.0
C976 C 0.51865 0.00669 0.23451 0.0
C977 C 0.53137 0.00363 0.23311 0.0
C978 C 0.44475 0.00558 0.20597 0.0
C979 C 0.43207 0.99065 0.19853 0.0
C980 C 0.42609 0.98881 0.17643 0.0
C981 C 0.43245 0.00186 0.16132 0.0
C982 C 0.44491 0.01685 0.16882 0.0
C983 C 0.45106 0.01864 0.19093 0.0
C984 C 0.43954 0.00364 0.24678 0.0
C985 C 0.43647 0.01542 0.25504 0.0
C986 C 0.42356 0.01139 0.26986 0.0
C987 C 0.41324 0.99537 0.27649 0.0
C988 C 0.41694 0.9837 0.26932 0.0
C989 C 0.43003 0.98781 0.2547 0.0
C990 C 0.46346 0.0036 0.23212 0.0
C991 C 0.46159 0.98898 0.22437 0.0
C992 C 0.47419 0.98585 0.22634 0.0
C993 C 0.48887 0.99705 0.23658 0.0
C994 C 0.49042 0.01136 0.2452 0.0
C995 C 0.47787 0.01459 0.24288 0.0
H996 H 0.40917 0.95407 0.80393 0.0
N997 N 0.43904 0.97379 0.78952 0.0
H998 H 0.3971 0.95489 0.84034 0.0
H999 H 0.4553 0.99253 0.82633 0.0
H1000 H 0.44352 0.99308 0.86308 0.0
H1001 H 0.44771 0.00535 0.79429 0.0
H1002 H 0.43516 0.01833 0.77439 0.0
H1003 H 0.42254 0.96395 0.75081 0.0
H1004 H 0.41023 0.97714 0.73038 0.0
H1005 H 0.44303 0.94873 0.79034 0.0
H1006 H 0.46952 0.00023 0.78539 0.0
H1007 H 0.46826 0.94848 0.79046 0.0
H1008 H 0.49486 0.00013 0.78457 0.0
H1009 H 0.53527 0.94755 0.82386 0.0
H1010 H 0.54861 0.95025 0.86054 0.0
H1011 H 0.5773 0.00144 0.85025 0.0
H1012 H 0.56378 -0.00136 0.81402 0.0
H1013 H 0.55301 -0.00061 0.77173 0.0
H1014 H 0.5748 0.01091 0.74369 0.0
H1015 H 0.5796 0.96894 0.74906 0.0
H1016 H 0.55708 0.95715 0.77584 0.0
H1017 H 0.51476 0.95092 0.7714 0.0
H1018 H 0.49029 0.95246 0.76772 0.0
H1019 H 0.51206 0.9956 0.80861 0.0
N1020 N 0.54147 0.97058 0.79386 0.0
H1021 H 0.53666 0.99435 0.81122 0.0
C1022 C 0.43309 0.97311 0.8124 0.0
C1023 C 0.41676 0.9624 0.81697 0.0
C1024 C 0.40991 0.96288 0.83782 0.0
C1025 C 0.41932 0.97411 0.85465 0.0
C1026 C 0.43587 0.98446 0.85038 0.0
C1027 C 0.44268 0.98402 0.82943 0.0
C1028 C 0.43589 0.98352 0.77418 0.0
C1029 C 0.43998 -0.00073 0.77991 0.0
C1030 C 0.43277 0.00669 0.76857 0.0
C1031 C 0.42162 -0.00135 0.75104 0.0
C1032 C 0.41885 0.98362 0.74377 0.0
C1033 C 0.42588 0.97609 0.75537 0.0
C1034 C 0.4543 0.9744 0.78765 0.0
C1035 C 0.45433 0.95997 0.78886 0.0
C1036 C 0.46878 0.95988 0.7888 0.0
C1037 C 0.48368 0.97429 0.78739 0.0
C1038 C 0.48365 0.98881 0.78591 0.0
C1039 C 0.46912 0.98888 0.78614 0.0
C1040 C 0.54841 0.97283 0.8163 0.0
C1041 C 0.54427 0.95935 0.82977 0.0
C1042 C 0.55201 0.96091 0.85056 0.0
C1043 C 0.56406 0.97606 0.8583 0.0
C1044 C 0.56794 0.98962 0.84497 0.0
C1045 C 0.56022 0.98804 0.82419 0.0
C1046 C 0.55325 0.97724 0.77568 0.0
C1047 C 0.55847 0.9925 0.76643 0.0
C1048 C 0.57114 -0.00081 0.75058 0.0
C1049 C 0.57912 0.99094 0.74404 0.0
C1050 C 0.57363 0.97557 0.75315 0.0
C1051 C 0.56079 0.9688 0.76862 0.0
C1052 C 0.52745 0.97228 0.79185 0.0
C1053 C 0.51423 0.96073 0.77946 0.0
C1054 C 0.50023 0.9616 0.77752 0.0
C1055 C 0.49907 0.97406 0.78811 0.0
C1056 C 0.51252 0.9859 0.80008 0.0
C1057 C 0.5266 0.98509 0.80182 0.0
H1058 H 0.95665 0.53159 0.82559 0.0
N1059 N 0.98149 0.5326 0.80402 0.0
H1060 H 0.9567 0.54355 0.86253 0.0
H1061 H 0.00738 0.54863 0.8323 0.0
H1062 H 0.0076 0.56074 0.86929 0.0
H1063 H 0.00686 0.56321 0.79823 0.0
H1064 H 0.00815 0.58266 0.77115 0.0
H1065 H 0.96303 0.52647 0.76737 0.0
H1066 H 0.96494 0.54556 0.73857 0.0
H1067 H 0.96838 0.50386 0.82286 0.0
H1068 H 0.00943 0.53758 0.78303 0.0
H1069 H 0.9785 0.4854 0.82286 0.0
H1070 H 0.019 0.51862 0.78112 0.0
H1071 H 0.99472 0.42812 0.81629 0.0
H1072 H 0.99093 0.41461 0.8528 0.0
H1073 H 0.03909 0.45065 0.87274 0.0
H1074 H 0.04277 0.46424 0.83598 0.0
H1075 H 0.03539 0.4371 0.79456 0.0
H1076 H 0.02765 0.41553 0.76711 0.0
H1077 H 0.99424 0.42725 0.73633 0.0
H1078 H 0.00162 0.44844 0.76382 0.0
H1079 H 0.99059 0.44825 0.80274 0.0
H1080 H 0.98132 0.46728 0.80186 0.0
H1081 H 0.03084 0.50631 0.79963 0.0
N1082 N 0.02199 0.45507 0.80149 0.0
H1083 H 0.0399 0.48684 0.79871 0.0
C1084 C 0.98194 0.53922 0.82627 0.0
C1085 C 0.96776 0.53784 0.83517 0.0
C1086 C 0.96782 0.54463 0.85624 0.0
C1087 C 0.98216 0.55307 0.86878 0.0
C1088 C 0.99641 0.55442 0.85989 0.0
C1089 C 0.99629 0.54747 0.83886 0.0
C1090 C 0.98452 0.54343 0.78526 0.0
C1091 C -0.00232 0.55922 0.78526 0.0
C1092 C -0.0015 0.57036 0.76941 0.0
C1093 C 0.98645 0.56589 0.75274 0.0
C1094 C 0.97414 0.54968 0.75156 0.0
C1095 C 0.97313 0.53864 0.76781 0.0
C1096 C 0.98795 0.52201 0.8028 0.0
C1097 C 0.97948 0.50714 0.81378 0.0
C1098 C 0.98524 0.49651 0.8135 0.0
C1099 C -0.00049 0.50026 0.80165 0.0
C1100 C 0.00807 0.51527 0.79066 0.0
C1101 C 0.00249 0.52613 0.79148 0.0
C1102 C 0.01903 0.44735 0.8235 0.0
C1103 C 0.00435 0.43334 0.82866 0.0
C1104 C 0.00222 0.42558 0.84954 0.0
C1105 C 0.01472 0.43157 0.86566 0.0
C1106 C 0.02931 0.44567 0.86058 0.0
C1107 C 0.03139 0.4535 0.83972 0.0
C1108 C 0.01862 0.44406 0.78249 0.0
C1109 C 0.02642 0.43509 0.78187 0.0
C1110 C 0.02206 0.42279 0.76598 0.0
C1111 C 0.01001 0.41937 0.74979 0.0
C1112 C 0.00314 0.42918 0.7491 0.0
C1113 C 0.00739 0.4414 0.76514 0.0
C1114 C 0.01602 0.4661 0.80039 0.0
C1115 C -0.00052 0.46088 0.80187 0.0
C1116 C 0.99418 0.4719 0.8016 0.0
C1117 C 0.00528 0.48851 0.80085 0.0
C1118 C 0.02185 0.49368 0.79973 0.0
C1119 C 0.0271 0.48258 0.79935 0.0
H1120 H 0.43874 0.43022 0.81095 0.0
N1121 N 0.43577 0.45401 0.79087 0.0
H1122 H 0.42685 0.41726 0.84739 0.0
H1123 H 0.4216 0.46313 0.82153 0.0
H1124 H 0.41019 0.45071 0.85847 0.0
H1125 H 0.4056 0.43844 0.77666 0.0
H1126 H 0.3929 0.41537 0.75152 0.0
H1127 H 0.45172 0.44231 0.76491 0.0
H1128 H 0.43942 0.42006 0.73827 0.0
H1129 H 0.46433 0.45541 0.80014 0.0
H1130 H 0.44335 0.48325 0.77842 0.0
H1131 H 0.49115 0.47928 0.79886 0.0
H1132 H 0.46985 0.50743 0.77862 0.0
H1133 H 0.56289 0.54916 0.82094 0.0
H1134 H 0.57538 0.56039 0.85745 0.0
H1135 H 0.54773 0.58422 0.86282 0.0
H1136 H 0.53577 0.57341 0.82545 0.0
H1137 H 0.55382 0.5823 0.77308 0.0
H1138 H 0.57653 0.59334 0.74639 0.0
H1139 H 0.58159 0.55189 0.75714 0.0
H1140 H 0.5581 0.54052 0.7825 0.0
H1141 H 0.53319 0.52786 0.82162 0.0
H1142 H 0.50786 0.5028 0.81819 0.0
H1143 H 0.49467 0.52225 0.76147 0.0
N1144 N 0.54228 0.55568 0.79746 0.0
H1145 H 0.51959 0.5478 0.76633 0.0
C1146 C 0.43086 0.44754 0.81352 0.0
C1147 C 0.43269 0.43486 0.82138 0.0
C1148 C 0.42593 0.42751 0.84228 0.0
C1149 C 0.41738 0.43281 0.85578 0.0
C1150 C 0.41636 0.44607 0.84831 0.0
C1151 C 0.42299 0.4533 0.82735 0.0
C1152 C 0.42957 0.44221 0.77281 0.0
C1153 C 0.41307 0.43461 0.76805 0.0
C1154 C 0.40585 0.42143 0.75343 0.0
C1155 C 0.41506 0.41567 0.74266 0.0
C1156 C 0.43181 0.42385 0.74655 0.0
C1157 C 0.43897 0.43682 0.76169 0.0
C1158 C 0.45188 0.46755 0.78893 0.0
C1159 C 0.46554 0.46667 0.7949 0.0
C1160 C 0.48088 0.48043 0.79446 0.0
C1161 C 0.48283 0.49544 0.78862 0.0
C1162 C 0.46904 0.49614 0.78264 0.0
C1163 C 0.45381 0.48234 0.78265 0.0
C1164 C 0.54848 0.56061 0.82027 0.0
C1165 C 0.55947 0.55678 0.82988 0.0
C1166 C 0.56651 0.5631 0.851 0.0
C1167 C 0.56266 0.57331 0.8631 0.0
C1168 C 0.55121 0.57664 0.85381 0.0
C1169 C 0.54424 0.57037 0.83258 0.0
C1170 C 0.55448 0.56079 0.77998 0.0
C1171 C 0.5597 0.57552 0.76928 0.0
C1172 C 0.57281 0.58187 0.75426 0.0
C1173 C 0.58121 0.57371 0.74994 0.0
C1174 C 0.57544 0.55853 0.75993 0.0
C1175 C 0.5621 0.55205 0.77465 0.0
C1176 C 0.52821 0.53998 0.79451 0.0
C1177 C 0.5249 0.52685 0.80849 0.0
C1178 C 0.51035 0.51232 0.8063 0.0
C1179 C 0.49896 0.51042 0.78972 0.0
C1180 C 0.50281 0.52332 0.77492 0.0
C1181 C 0.51716 0.53792 0.77748 0.0
H1182 H 0.67727 0.90136 0.55366 0.0
N1183 N 0.65198 0.87555 0.57509 0.0
H1184 H 0.67646 0.91305 0.51759 0.0
H1185 H 0.62749 0.86439 0.54589 0.0
H1186 H 0.62674 0.8758 0.50891 0.0
H1187 H 0.63256 0.88212 0.59897 0.0
H1188 H 0.64033 0.90524 0.62374 0.0
H1189 H 0.68241 0.89546 0.59165 0.0
H1190 H 0.69043 0.91914 0.61537 0.0
H1191 H 0.6781 0.87658 0.55368 0.0
H1192 H 0.63863 0.849 0.60006 0.0
H1193 H 0.68477 0.85565 0.55345 0.0
H1194 H 0.64607 0.82834 0.60153 0.0
H1195 H 0.70174 0.78743 0.53986 0.0
H1196 H 0.69679 0.7733 0.50338 0.0
H1197 H 0.64732 0.76233 0.50535 0.0
H1198 H 0.65228 0.77618 0.54179 0.0
H1199 H 0.65459 0.75932 0.57308 0.0
H1200 H 0.65392 0.73932 0.59849 0.0
H1201 H 0.69888 0.77543 0.62855 0.0
H1202 H 0.70017 0.79497 0.60114 0.0
H1203 H 0.70116 0.82082 0.566 0.0
H1204 H 0.69553 0.84249 0.57163 0.0
H1205 H 0.64495 0.80743 0.58116 0.0
N1206 N 0.68045 0.7896 0.56636 0.0
H1207 H 0.65115 0.786 0.57762 0.0
C1208 C 0.65232 0.88197 0.55271 0.0
C1209 C 0.66616 0.89561 0.54414 0.0
C1210 C 0.66574 0.90225 0.52325 0.0
C1211 C 0.65153 0.8954 0.51029 0.0
C1212 C 0.63782 0.88152 0.51859 0.0
C1213 C 0.63825 0.8749 0.5396 0.0
C1214 C 0.65686 0.8872 0.5932 0.0
C1215 C 0.64517 0.88991 0.60309 0.0
C1216 C 0.64967 0.90323 0.617 0.0
C1217 C 0.66605 0.91432 0.62105 0.0
C1218 C 0.67771 0.91088 0.61263 0.0
C1219 C 0.67315 0.89737 0.59893 0.0
C1220 C 0.65754 0.86423 0.57655 0.0
C1221 C 0.67094 0.86611 0.56411 0.0
C1222 C 0.67492 0.85409 0.56425 0.0
C1223 C 0.66593 0.84008 0.57736 0.0
C1224 C 0.65305 0.83867 0.59071 0.0
C1225 C 0.64886 0.85056 0.59013 0.0
C1226 C 0.6775 0.78298 0.54359 0.0
C1227 C 0.68992 0.78221 0.53217 0.0
C1228 C 0.68707 0.77417 0.51134 0.0
C1229 C 0.67163 0.76664 0.50152 0.0
C1230 C 0.65929 0.76785 0.51261 0.0
C1231 C 0.66218 0.77595 0.53341 0.0
C1232 C 0.67779 0.77856 0.58463 0.0
C1233 C 0.66431 0.76297 0.58512 0.0
C1234 C 0.66385 0.75151 0.60003 0.0
C1235 C 0.67659 0.7555 0.61536 0.0
C1236 C 0.68917 0.77161 0.61641 0.0
C1237 C 0.68984 0.78292 0.601 0.0
C1238 C 0.67657 0.80188 0.57085 0.0
C1239 C 0.68891 0.81791 0.56955 0.0
C1240 C 0.68559 0.83027 0.57254 0.0
C1241 C 0.66969 0.82686 0.5764 0.0
C1242 C 0.65737 0.81066 0.57838 0.0
C1243 C 0.66082 0.79831 0.57597 0.0
H1244 H 0.25752 0.87964 0.53937 0.0
N1245 N 0.22775 0.86749 0.5556 0.0
H1246 H 0.26838 0.89395 0.5034 0.0
H1247 H 0.21003 0.86946 0.52016 0.0
H1248 H 0.22054 0.88292 0.48405 0.0
H1249 H 0.21922 0.89053 0.55452 0.0
H1250 H 0.22929 0.91376 0.57952 0.0
H1251 H 0.24519 0.87311 0.59314 0.0
H1252 H 0.25529 0.8964 0.61856 0.0
H1253 H 0.22297 0.83813 0.55976 0.0
H1254 H 0.19754 0.86409 0.55727 0.0
H1255 H 0.19735 0.81292 0.56272 0.0
H1256 H 0.17194 0.83908 0.5586 0.0
H1257 H 0.11419 0.73717 0.53603 0.0
H1258 H 0.10036 0.72822 0.49946 0.0
H1259 H 0.09886 0.77206 0.49475 0.0
H1260 H 0.11381 0.78131 0.53037 0.0
H1261 H 0.10062 0.77472 0.56566 0.0
H1262 H 0.07825 0.76384 0.59256 0.0
H1263 H 0.09327 0.73186 0.61901 0.0
H1264 H 0.11567 0.74272 0.59147 0.0
H1265 H 0.14982 0.76989 0.54144 0.0
H1266 H 0.17543 0.79507 0.54131 0.0
H1267 H 0.15346 0.81728 0.5799 0.0
N1268 N 0.12176 0.76392 0.55852 0.0
H1269 H 0.1278 0.79247 0.57863 0.0
C1270 C 0.23299 0.87338 0.53266 0.0
C1271 C 0.24937 0.8801 0.52715 0.0
C1272 C 0.25553 0.88825 0.50654 0.0
C1273 C 0.24537 0.88977 0.49088 0.0
C1274 C 0.2288 0.88231 0.49591 0.0
C1275 C 0.22269 0.87435 0.51662 0.0
C1276 C 0.23141 0.87999 0.57205 0.0
C1277 C 0.22673 0.89145 0.56877 0.0
C1278 C 0.23253 0.90479 0.58311 0.0
C1279 C 0.24318 0.90699 0.60096 0.0
C1280 C 0.24728 0.89516 0.60478 0.0
C1281 C 0.24142 0.88179 0.59045 0.0
C1282 C 0.21228 0.853 0.55805 0.0
C1283 C 0.21183 0.83836 0.55971 0.0
C1284 C 0.19713 0.82395 0.56117 0.0
C1285 C 0.18241 0.82381 0.56061 0.0
C1286 C 0.18292 0.83859 0.55938 0.0
C1287 C 0.19766 0.85302 0.55838 0.0
C1288 C 0.1148 0.75973 0.53605 0.0
C1289 C 0.11106 0.74489 0.52684 0.0
C1290 C 0.10298 0.73975 0.50606 0.0
C1291 C 0.09817 0.74925 0.49419 0.0
C1292 C 0.10243 0.76442 0.50318 0.0
C1293 C 0.11081 0.76968 0.52377 0.0
C1294 C 0.10994 0.75956 0.57655 0.0
C1295 C 0.09933 0.76556 0.5774 0.0
C1296 C 0.08652 0.75935 0.59295 0.0
C1297 C 0.08392 0.74693 0.60791 0.0
C1298 C 0.09484 0.74131 0.60755 0.0
C1299 C 0.10772 0.74759 0.59202 0.0
C1300 C 0.13676 0.77906 0.55999 0.0
C1301 C 0.15055 0.78022 0.54985 0.0
C1302 C 0.16526 0.79465 0.55001 0.0
C1303 C 0.16668 0.80834 0.56073 0.0
C1304 C 0.15286 0.80714 0.57113 0.0
C1305 C 0.13805 0.79274 0.57058 0.0
H1306 H 0.23105 0.32878 0.54883 0.0
N1307 N 0.23017 0.35429 0.56761 0.0
H1308 H 0.24423 0.3287 0.51325 0.0
H1309 H 0.24384 0.37776 0.53695 0.0
H1310 H 0.25683 0.3777 0.50083 0.0
H1311 H 0.2596 0.37018 0.58486 0.0
H1312 H 0.27228 0.36012 0.61038 0.0
H1313 H 0.21441 0.32574 0.59174 0.0
H1314 H 0.2266 0.31608 0.61856 0.0
H1315 H 0.20477 0.32627 0.5511 0.0
H1316 H 0.21724 0.37081 0.58449 0.0
H1317 H 0.17663 0.31905 0.5502 0.0
H1318 H 0.18879 0.36346 0.58417 0.0
H1319 H 0.10214 0.29873 0.52428 0.0
H1320 H 0.0927 0.29955 0.48591 0.0
H1321 H 0.10743 0.3494 0.49586 0.0
H1322 H 0.11638 0.34828 0.53432 0.0
H1323 H 0.11786 0.34926 0.57527 0.0
H1324 H 0.09812 0.35109 0.59973 0.0
H1325 H 0.06788 0.29951 0.59803 0.0
H1326 H 0.08772 0.29787 0.57373 0.0
H1327 H 0.12537 0.30362 0.56936 0.0
H1328 H 0.15361 0.31132 0.5748 0.0
H1329 H 0.16825 0.36012 0.5568 0.0
N1330 N 0.11396 0.32188 0.55527 0.0
H1331 H 0.14001 0.35235 0.55198 0.0
C1332 C 0.2365 0.35336 0.54559 0.0
C1333 C 0.23646 0.33945 0.53835 0.0
C1334 C 0.24397 0.33941 0.51791 0.0
C1335 C 0.25164 0.35322 0.5042 0.0
C1336 C 0.25124 0.36694 0.51115 0.0
C1337 C 0.24373 0.36698 0.53165 0.0
C1338 C 0.23609 0.34886 0.58617 0.0
C1339 C 0.25229 0.35846 0.59248 0.0
C1340 C 0.25949 0.35266 0.60724 0.0
C1341 C 0.25056 0.33714 0.61653 0.0
C1342 C 0.23403 0.3279 0.61133 0.0
C1343 C 0.22692 0.33357 0.5961 0.0
C1344 C 0.21322 0.34921 0.5678 0.0
C1345 C 0.20148 0.3345 0.55835 0.0
C1346 C 0.18529 0.3303 0.55804 0.0
C1347 C 0.18042 0.34066 0.56715 0.0
C1348 C 0.19215 0.35528 0.5768 0.0
C1349 C 0.20837 0.35946 0.57713 0.0
C1350 C 0.10999 0.32338 0.53211 0.0
C1351 C 0.10348 0.30985 0.518 0.0
C1352 C 0.09817 0.31039 0.49608 0.0
C1353 C 0.09929 0.32455 0.4878 0.0
C1354 C 0.1062 0.33825 0.50181 0.0
C1355 C 0.11149 0.33767 0.52378 0.0
C1356 C 0.10417 0.32337 0.57264 0.0
C1357 C 0.10714 0.33835 0.58051 0.0
C1358 C 0.0958 0.33938 0.59441 0.0
C1359 C 0.08138 0.32545 0.60074 0.0
C1360 C 0.07893 0.31046 0.59376 0.0
C1361 C 0.09021 0.30948 0.57984 0.0
C1362 C 0.13058 0.32733 0.5602 0.0
C1363 C 0.13471 0.31601 0.5669 0.0
C1364 C 0.15083 0.32042 0.56981 0.0
C1365 C 0.16322 0.33631 0.566 0.0
C1366 C 0.15901 0.3478 0.56004 0.0
C1367 C 0.14283 0.34336 0.55717 0.0
H1368 H 0.01256 0.4055 0.07437 0.0
H1369 H 0.96633 0.36382 0.0894 0.0
H1370 H 0.96364 0.37707 0.1233 0.0
H1371 H 0.97475 0.40024 0.14926 0.0
H1372 H 0.02108 0.44177 0.13436 0.0
H1373 H 0.02341 0.42882 0.09985 0.0
C1374 C 0.00188 0.39932 0.08502 0.0
C1375 C 0.98968 0.38368 0.07937 0.0
C1376 C 0.00043 0.40698 0.10454 0.0
C1377 C 0.97592 0.37585 0.09338 0.0
C1378 C 0.97436 0.38342 0.11277 0.0
C1379 C 0.98525 0.40652 0.13828 0.0
C1380 C -0.00228 0.42194 0.14435 0.0
C1381 C 0.98656 0.39896 0.11856 0.0
C1382 C 0.01138 0.42984 0.13016 0.0
C1383 C 0.01271 0.42246 0.11041 0.0
H1384 H 0.58177 0.59947 0.06335 0.0
H1385 H 0.63239 0.62382 0.07997 0.0
H1386 H 0.62619 0.60874 0.11562 0.0
H1387 H 0.60631 0.58957 0.14278 0.0
H1388 H 0.55581 0.56418 0.12506 0.0
H1389 H 0.56208 0.579 0.08932 0.0
C1390 C 0.59147 0.60146 0.07473 0.0
C1391 C 0.60751 0.61285 0.06905 0.0
C1392 C 0.58784 0.59268 0.09511 0.0
C1393 C 0.61993 0.61513 0.08389 0.0
C1394 C 0.61639 0.60655 0.10433 0.0
C1395 C 0.59667 0.58704 0.13099 0.0
C1396 C 0.58057 0.57582 0.13686 0.0
C1397 C 0.60037 0.59539 0.1102 0.0
C1398 C 0.56827 0.57297 0.12135 0.0
C1399 C 0.57185 0.58136 0.10078 0.0
H1400 H 0.4019 0.97971 0.06382 0.0
H1401 H 0.39606 0.02088 0.07132 0.0
H1402 H 0.41004 0.02717 0.10795 0.0
H1403 H 0.42274 0.02011 0.13884 0.0
H1404 H 0.42762 0.97842 0.13131 0.0
H1405 H 0.41521 0.97322 0.09366 0.0
C1406 C 0.40375 0.99014 0.07333 0.0
C1407 C 0.39786 -0.00023 0.0648 0.0
C1408 C 0.41159 0.99356 0.09446 0.0
C1409 C 0.4004 0.01322 0.07747 0.0
C1410 C 0.4084 0.01682 0.09844 0.0
C1411 C 0.42125 0.01002 0.12878 0.0
C1412 C 0.42601 -0.00039 0.13783 0.0
C1413 C 0.41388 0.00697 0.10723 0.0
C1414 C 0.42388 0.98648 0.12477 0.0
C1415 C 0.41683 0.98353 0.10325 0.0
H1416 H 0.37773 0.96918 0.94155 0.0
H1417 H 0.40834 0.02061 0.93883 0.0
H1418 H 0.42245 0.01817 0.90562 0.0
H1419 H 0.42553 0.00148 0.87674 0.0
H1420 H 0.39569 0.94998 0.88047 0.0
H1421 H 0.38175 0.95243 0.9138 0.0
C1422 C 0.38748 0.97986 0.93367 0.0
C1423 C 0.39191 0.99506 0.94253 0.0
C1424 C 0.39565 0.97836 0.91474 0.0
C1425 C 0.40468 0.00877 0.9323 0.0
C1426 C 0.41275 0.00738 0.91331 0.0
C1427 C 0.41618 0.99076 0.88505 0.0
C1428 C 0.41166 0.97557 0.87598 0.0
C1429 C 0.40831 0.99224 0.90435 0.0
C1430 C 0.39928 0.96184 0.88682 0.0
C1431 C 0.39134 0.96322 0.90596 0.0
H1432 H 0.01453 0.39356 0.95346 0.0
H1433 H 0.96726 0.38806 0.96072 0.0
H1434 H 0.9717 0.40386 0.9264 0.0
H1435 H 0.98869 0.41892 0.89391 0.0
H1436 H 0.03597 0.4247 0.88625 0.0
H1437 H 0.03191 0.40934 0.92123 0.0
C1438 C 0.00521 0.39582 0.94755 0.0
C1439 C 0.99056 0.38954 0.95969 0.0
C1440 C 0.00784 0.40503 0.92773 0.0
C1441 C 0.97867 0.39271 0.9518 0.0
C1442 C 0.98117 0.40175 0.93211 0.0
C1443 C -0.00192 0.41676 0.89986 0.0
C1444 C 0.01257 0.42288 0.88745 0.0
C1445 C 0.99566 0.4079 0.91989 0.0
C1446 C 0.02475 0.42023 0.89559 0.0
C1447 C 0.0224 0.41136 0.91551 0.0
H1448 H 0.60168 0.59739 0.95533 0.0
H1449 H 0.60274 0.64086 0.93584 0.0
H1450 H 0.58675 0.62755 0.90202 0.0
H1451 H 0.57332 0.6039 0.87732 0.0
H1452 H 0.57123 0.56004 0.89759 0.0
H1453 H 0.58689 0.57323 0.93165 0.0
C1454 C 0.59839 0.60394 0.94369 0.0
C1455 C 0.60347 0.62011 0.94802 0.0
C1456 C 0.58907 0.59617 0.92438 0.0
C1457 C 0.599 0.6284 0.93289 0.0
C1458 C 0.58986 0.6208 0.91353 0.0
C1459 C 0.57602 0.59711 0.88936 0.0
C1460 C 0.57114 0.581 0.88474 0.0
C1461 C 0.5849 0.60472 0.90905 0.0
C1462 C 0.57504 0.57252 0.90044 0.0
C1463 C 0.58394 0.58004 0.92001 0.0
H1464 H 0.97012 0.57532 0.96434 0.0
H1465 H 0.01288 0.61935 0.94453 0.0
H1466 H 0.01472 0.60665 0.90938 0.0
H1467 H 0.00357 0.58322 0.88363 0.0
H1468 H 0.96057 0.53953 0.90361 0.0
H1469 H 0.95944 0.55196 0.93935 0.0
C1470 C 0.97991 0.58217 0.95243 0.0
C1471 C 0.99132 0.5983 0.95711 0.0
C1472 C 0.98081 0.57486 0.93222 0.0
C1473 C 0.0039 0.60693 0.94138 0.0
C1474 C 0.00496 0.59968 0.92126 0.0
C1475 C 0.99407 0.57639 0.89595 0.0
C1476 C 0.98214 0.5605 0.89097 0.0
C1477 C 0.99342 0.58367 0.91643 0.0
C1478 C 0.96979 0.55184 0.90695 0.0
C1479 C 0.96916 0.55892 0.92741 0.0
H1480 H 0.37159 0.39616 0.93932 0.0
H1481 H 0.41107 0.38887 0.95587 0.0
H1482 H 0.42589 0.40419 0.9222 0.0
H1483 H 0.42765 0.41969 0.88805 0.0
H1484 H 0.38764 0.42603 0.8709 0.0
H1485 H 0.37321 0.41133 0.90501 0.0
C1486 C 0.38344 0.39793 0.93557 0.0
C1487 C 0.3902 0.39138 0.95009 0.0
C1488 C 0.39188 0.40669 0.91615 0.0
C1489 C 0.40557 0.39377 0.94496 0.0
C1490 C 0.41407 0.40254 0.92572 0.0
C1491 C 0.41573 0.41776 0.89167 0.0
C1492 C 0.40883 0.42408 0.87693 0.0
C1493 C 0.40733 0.40904 0.91117 0.0
C1494 C 0.39343 0.42161 0.88212 0.0
C1495 C 0.38507 0.41307 0.90155 0.0
H1496 H 0.60362 0.97581 0.94429 0.0
H1497 H 0.60053 0.01783 0.96002 0.0
H1498 H 0.58506 0.01395 0.9256 0.0
H1499 H 0.57238 -0.00114 0.89094 0.0
H1500 H 0.57545 0.95705 0.87424 0.0
H1501 H 0.59064 0.96047 0.90921 0.0
C1502 C 0.59958 0.98411 0.94017 0.0
C1503 C 0.60332 0.9971 0.95482 0.0
C1504 C 0.59056 0.98182 0.9202 0.0
C1505 C 0.59789 0.00771 0.94918 0.0
C1506 C 0.589 0.00552 0.92944 0.0
C1507 C 0.57647 0.99055 0.89484 0.0
C1508 C 0.57281 0.97776 0.87993 0.0
C1509 C 0.58529 0.99266 0.91482 0.0
C1510 C 0.57794 0.96692 0.88553 0.0
C1511 C 0.58673 0.96893 0.90545 0.0
H1512 H 0.62089 0.00891 0.0931 0.0
H1513 H 0.57943 0.97267 0.05677 0.0
H1514 H 0.56186 0.97075 0.0883 0.0
H1515 H 0.55831 0.97892 0.12639 0.0
H1516 H 0.60002 0.0135 0.16421 0.0
H1517 H 0.61732 0.01683 0.13167 0.0
C1518 C 0.608 0.00066 0.09207 0.0
C1519 C 0.60148 0.99094 0.07266 0.0
C1520 C 0.59798 -0.00061 0.11047 0.0
C1521 C 0.58477 0.98022 0.07159 0.0
C1522 C 0.5747 0.97914 0.08959 0.0
C1523 C 0.57119 0.98709 0.12768 0.0
C1524 C 0.57775 0.99592 0.14786 0.0
C1525 C 0.58119 0.98856 0.10919 0.0
C1526 C 0.59449 0.00672 0.14885 0.0
C1527 C 0.60447 0.00853 0.13029 0.0
H1528 H 0.02311 0.61132 0.06731 0.0
H1529 H 0.97948 0.60838 0.0927 0.0
H1530 H 0.98135 0.59581 0.12778 0.0
H1531 H 0.99574 0.58619 0.15154 0.0
H1532 H 0.03929 0.5891 0.12586 0.0
H1533 H 0.03714 0.60127 0.09062 0.0
C1534 C 0.01398 0.60792 0.08049 0.0
C1535 C 0.00118 0.61081 0.07739 0.0
C1536 C 0.01515 0.60074 0.10058 0.0
C1537 C 0.98946 0.60631 0.09465 0.0
C1538 C 0.99053 0.59912 0.11472 0.0
C1539 C 0.00465 0.58931 0.13811 0.0
C1540 C 0.01766 0.58674 0.14134 0.0
C1541 C 0.00334 0.59631 0.11788 0.0
C1542 C 0.02926 0.59111 0.12392 0.0
C1543 C 0.028 0.59801 0.10373 0.0
H1544 H 0.41235 0.41788 0.06216 0.0
H1545 H 0.38515 0.36876 0.08495 0.0
H1546 H 0.40055 0.37606 0.12037 0.0
H1547 H 0.42078 0.39661 0.14559 0.0
H1548 H 0.44881 0.44551 0.12198 0.0
H1549 H 0.43384 0.43807 0.08628 0.0
C1550 C 0.40981 0.40875 0.07484 0.0
C1551 C 0.39753 0.39282 0.07097 0.0
C1552 C 0.41877 0.41301 0.0951 0.0
C1553 C 0.39453 0.38112 0.08747 0.0
C1554 C 0.40331 0.38529 0.10777 0.0
C1555 C 0.42385 0.40562 0.13251 0.0
C1556 C 0.43586 0.42165 0.13666 0.0
C1557 C 0.41535 0.40123 0.11184 0.0
C1558 C 0.43943 0.43315 0.11954 0.0
C1559 C 0.43094 0.42889 0.09902 0.0
H1560 H 0.64987 0.71531 0.42242 0.0
H1561 H 0.69489 0.75205 0.39342 0.0
H1562 H 0.69889 0.7695 0.42586 0.0
H1563 H 0.69021 0.77399 0.46322 0.0
H1564 H 0.64547 0.73718 0.49267 0.0
H1565 H 0.64065 0.72026 0.4592 0.0
C1566 C 0.6605 0.72717 0.42314 0.0
C1567 C 0.67209 0.7323 0.40557 0.0
C1568 C 0.66279 0.73716 0.44193 0.0
C1569 C 0.68578 0.74774 0.40673 0.0
C1570 C 0.68811 0.75775 0.4253 0.0
C1571 C 0.67941 0.76226 0.46231 0.0
C1572 C 0.66826 0.75686 0.48046 0.0
C1573 C 0.67679 0.75251 0.44313 0.0
C1574 C 0.65419 0.74172 0.47885 0.0
C1575 C 0.65147 0.73197 0.45978 0.0
H1576 H 0.28135 0.93002 0.40249 0.0
H1577 H 0.24684 0.94559 0.41196 0.0
H1578 H 0.23611 0.92881 0.44577 0.0
H1579 H 0.23644 0.90984 0.47264 0.0
H1580 H 0.26974 0.89284 0.46259 0.0
H1581 H 0.28117 0.91023 0.42926 0.0
C1582 C 0.27154 0.92978 0.41204 0.0
C1583 C 0.26493 0.93906 0.4047 0.0
C1584 C 0.2652 0.91986 0.43136 0.0
C1585 C 0.25211 0.93852 0.41714 0.0
C1586 C 0.24596 0.92893 0.43651 0.0
C1587 C 0.24601 0.90968 0.46299 0.0
C1588 C 0.25211 0.89993 0.47012 0.0
C1589 C 0.25234 0.9195 0.44369 0.0
C1590 C 0.26486 0.90031 0.45766 0.0
C1591 C 0.27137 0.9102 0.43852 0.0
H1592 H 0.07207 0.31528 0.38772 0.0
H1593 H 0.05284 0.34372 0.41499 0.0
H1594 H 0.06612 0.34598 0.45138 0.0
H1595 H 0.08206 0.33875 0.47601 0.0
H1596 H 0.10164 0.31074 0.44828 0.0
H1597 H 0.08918 0.30934 0.41155 0.0
C1598 C 0.07079 0.32202 0.40157 0.0
C1599 C 0.06136 0.32921 0.39863 0.0
C1600 C 0.07844 0.32328 0.42243 0.0
C1601 C 0.06 0.33803 0.41675 0.0
C1602 C 0.06756 0.33931 0.4376 0.0
C1603 C 0.08384 0.33256 0.46184 0.0
C1604 C 0.0927 0.32477 0.46499 0.0
C1605 C 0.07669 0.33185 0.44069 0.0
C1606 C 0.09466 0.31662 0.44647 0.0
C1607 C 0.08761 0.31587 0.42542 0.0
H1608 H 0.04438 0.32138 0.25987 0.0
H1609 H 0.08515 0.35934 0.29525 0.0
H1610 H 0.10275 0.3623 0.26319 0.0
H1611 H 0.10661 0.35409 0.22523 0.0
H1612 H 0.06557 0.31725 0.18876 0.0
H1613 H 0.04816 0.31364 0.22131 0.0
C1614 C 0.05712 0.33028 0.26055 0.0
C1615 C 0.06344 0.3401 0.27993 0.0
C1616 C 0.06717 0.33205 0.24193 0.0
C1617 C 0.07996 0.35165 0.28052 0.0
C1618 C 0.09005 0.35333 0.2622 0.0
C1619 C 0.09384 0.34538 0.22424 0.0
C1620 C 0.0875 0.33594 0.2045 0.0
C1621 C 0.08378 0.34362 0.24281 0.0
C1622 C 0.07092 0.3245 0.20383 0.0
C1623 C 0.06088 0.32252 0.22239 0.0
H1624 H 0.6947 0.73728 0.28966 0.0
H1625 H 0.64377 0.7185 0.28006 0.0
H1626 H 0.6493 0.73448 0.2456 0.0
H1627 H 0.66839 0.75431 0.21892 0.0
H1628 H 0.7195 0.77466 0.229 0.0
H1629 H 0.71411 0.75741 0.26228 0.0
C1630 C 0.68485 0.73659 0.27984 0.0
C1631 C 0.66886 0.72674 0.28741 0.0
C1632 C 0.68813 0.74614 0.2602 0.0
C1633 C 0.65619 0.72607 0.27467 0.0
C1634 C 0.65933 0.7352 0.25496 0.0
C1635 C 0.6784 0.75517 0.22854 0.0
C1636 C 0.69433 0.76593 0.22157 0.0
C1637 C 0.67523 0.74545 0.24778 0.0
C1638 C 0.70711 0.76647 0.2339 0.0
C1639 C 0.70403 0.75664 0.253 0.0
H1640 H 0.26906 0.96429 0.26719 0.0
H1641 H 0.25554 0.919 0.29884 0.0
H1642 H 0.23897 0.90473 0.26584 0.0
H1643 H 0.2287 0.90516 0.2278 0.0
H1644 H 0.24451 0.95064 0.19476 0.0
H1645 H 0.25937 0.96471 0.22872 0.0
C1646 C 0.26241 0.9513 0.2669 0.0
C1647 C 0.26348 0.94271 0.28542 0.0
C1648 C 0.25321 0.94318 0.24767 0.0
C1649 C 0.25494 0.92588 0.28474 0.0
C1650 C 0.24545 0.91771 0.26589 0.0
C1651 C 0.23551 0.91814 0.22784 0.0
C1652 C 0.2353 0.92672 0.20859 0.0
C1653 C 0.2446 0.92625 0.24718 0.0
C1654 C 0.24403 0.9436 0.20936 0.0
C1655 C 0.25273 0.95172 0.22875 0.0
H1656 H 0.68454 0.94618 0.29063 0.0
H1657 H 0.63499 0.90769 0.28983 0.0
H1658 H 0.63948 0.89832 0.25331 0.0
H1659 H 0.65725 0.90135 0.22132 0.0
H1660 H 0.70749 0.93836 0.22364 0.0
H1661 H 0.70283 0.94817 0.25954 0.0
C1662 C 0.67474 0.93576 0.28241 0.0
C1663 C 0.65945 0.92769 0.29286 0.0
C1664 C 0.67748 0.93022 0.26161 0.0
C1665 C 0.6469 0.91408 0.28218 0.0
C1666 C 0.64944 0.90874 0.26126 0.0
C1667 C 0.6673 0.91138 0.22978 0.0
C1668 C 0.68269 0.91911 0.21948 0.0
C1669 C 0.66468 0.91671 0.25082 0.0
C1670 C 0.69541 0.93233 0.23072 0.0
C1671 C 0.69281 0.9379 0.25143 0.0
H1672 H 0.07251 0.73242 0.28229 0.0
H1673 H 0.02788 0.73063 0.26629 0.0
H1674 H 0.03987 0.74579 0.23133 0.0
H1675 H 0.06279 0.75911 0.20499 0.0
H1676 H 0.10763 0.76144 0.22117 0.0
H1677 H 0.09572 0.74637 0.25629 0.0
C1678 C 0.06541 0.73535 0.27116 0.0
C1679 C 0.04931 0.73037 0.27688 0.0
C1680 C 0.07239 0.74413 0.2511 0.0
C1681 C 0.04029 0.73431 0.2623 0.0
C1682 C 0.04713 0.74298 0.2423 0.0
C1683 C 0.07005 0.75654 0.21634 0.0
C1684 C 0.0861 0.76144 0.21044 0.0
C1685 C 0.06316 0.74794 0.23653 0.0
C1686 C 0.09521 0.75768 0.22516 0.0
C1687 C 0.08843 0.74912 0.2453 0.0
H1688 H 0.27365 0.31984 0.28467 0.0
H1689 H 0.27552 0.36486 0.29619 0.0
H1690 H 0.25899 0.36041 0.26271 0.0
H1691 H 0.24427 0.3441 0.22981 0.0
H1692 H 0.24208 0.29909 0.21762 0.0
H1693 H 0.25818 0.30304 0.25184 0.0
C1694 C 0.27045 0.32867 0.27984 0.0
C1695 C 0.27592 0.34269 0.29297 0.0
C1696 C 0.26079 0.32602 0.26049 0.0
C1697 C 0.27152 0.35395 0.2865 0.0
C1698 C 0.26205 0.35144 0.2673 0.0
C1699 C 0.24737 0.33518 0.23459 0.0
C1700 C 0.24206 0.32138 0.22112 0.0
C1701 C 0.25667 0.33757 0.25413 0.0
C1702 C 0.24591 0.30977 0.2278 0.0
C1703 C 0.25521 0.31208 0.24727 0.0
H1704 H 0.29889 0.36363 0.42199 0.0
H1705 H 0.26076 0.31573 0.40575 0.0
H1706 H 0.24528 0.31593 0.43878 0.0
H1707 H 0.24258 0.32963 0.47234 0.0
H1708 H 0.2809 0.37732 0.48907 0.0
H1709 H 0.29612 0.37738 0.45555 0.0
C1710 C 0.2872 0.35323 0.42569 0.0
C1711 C 0.28102 0.33968 0.41145 0.0
C1712 C 0.27833 0.35342 0.44471 0.0
C1713 C 0.26582 0.32632 0.41644 0.0
C1714 C 0.25694 0.32642 0.43532 0.0
C1715 C 0.2543 0.34 0.46874 0.0
C1716 C 0.26056 0.35344 0.48324 0.0
C1717 C 0.26309 0.33989 0.44959 0.0
C1718 C 0.27566 0.36689 0.47806 0.0
C1719 C 0.28445 0.36689 0.45898 0.0
H1720 H 0.64005 0.92912 0.42627 0.0
H1721 H 0.6882 0.93961 0.4095 0.0
H1722 H 0.68828 0.92478 0.44309 0.0
H1723 H 0.67479 0.90906 0.47737 0.0
H1724 H 0.62698 0.89932 0.49476 0.0
H1725 H 0.62653 0.91329 0.46046 0.0
C1726 C 0.65057 0.92817 0.42995 0.0
C1727 C 0.66412 0.93551 0.41543 0.0
C1728 C 0.65055 0.91964 0.4493 0.0
C1729 C 0.67763 0.93411 0.42042 0.0
C1730 C 0.67768 0.92561 0.43961 0.0
C1731 C 0.6643 0.91007 0.47375 0.0
C1732 C 0.65095 0.90314 0.4887 0.0
C1733 C 0.66423 0.91838 0.45421 0.0
C1734 C 0.63734 0.90432 0.48345 0.0
C1735 C 0.63712 0.91244 0.46393 0.0
H1736 H 0.04993 0.71278 0.41318 0.0
H1737 H 0.07223 0.76087 0.38642 0.0
H1738 H 0.08984 0.77099 0.41968 0.0
H1739 H 0.09882 0.76619 0.45636 0.0
H1740 H 0.07478 0.71833 0.48449 0.0
H1741 H 0.05829 0.70814 0.45044 0.0
C1742 C 0.05869 0.72547 0.41458 0.0
C1743 C 0.05979 0.73604 0.39732 0.0
C1744 C 0.06857 0.73126 0.43393 0.0
C1745 C 0.07109 0.75248 0.39951 0.0
C1746 C 0.08119 0.75828 0.4185 0.0
C1747 C 0.08987 0.75356 0.45525 0.0
C1748 C 0.08824 0.7431 0.47308 0.0
C1749 C 0.07999 0.74778 0.43587 0.0
C1750 C 0.07669 0.72669 0.47094 0.0
C1751 C 0.06708 0.72082 0.45152 0.0
H1752 H 0.34905 0.07138 0.73399 0.0
H1753 H 0.30292 0.02865 0.74546 0.0
H1754 H 0.29846 0.04087 0.77908 0.0
H1755 H 0.30802 0.06329 0.80601 0.0
H1756 H 0.35413 0.10601 0.79478 0.0
H1757 H 0.35826 0.09417 0.76034 0.0
C1758 C 0.338 0.06476 0.7438 0.0
C1759 C 0.32637 0.04911 0.73724 0.0
C1760 C 0.33552 0.07184 0.7632 0.0
C1761 C 0.31211 0.04071 0.75014 0.0
C1762 C 0.30953 0.04768 0.76938 0.0
C1763 C 0.31886 0.0701 0.79583 0.0
C1764 C 0.33075 0.0855 0.80295 0.0
C1765 C 0.32118 0.0632 0.77614 0.0
C1766 C 0.34486 0.09407 0.78979 0.0
C1767 C 0.34721 0.08732 0.77007 0.0
H1768 H 0.91125 0.25808 0.72282 0.0
H1769 H 0.96042 0.28437 0.74646 0.0
H1770 H 0.95233 0.26942 0.78227 0.0
H1771 H 0.93119 0.24961 0.80733 0.0
H1772 H 0.88228 0.22211 0.78276 0.0
H1773 H 0.89037 0.23704 0.74702 0.0
C1774 C 0.9202 0.26054 0.7358 0.0
C1775 C 0.93639 0.2724 0.73202 0.0
C1776 C 0.91551 0.25177 0.75625 0.0
C1777 C 0.94788 0.2753 0.74891 0.0
C1778 C 0.94326 0.26678 0.76943 0.0
C1779 C 0.92231 0.24663 0.79405 0.0
C1780 C 0.9061 0.23477 0.79794 0.0
C1781 C 0.92709 0.25504 0.77332 0.0
C1782 C 0.89478 0.23137 0.78055 0.0
C1783 C 0.89941 0.23983 0.75999 0.0
H1784 H 0.72478 0.67576 0.74587 0.0
H1785 H 0.74286 0.64581 0.72083 0.0
H1786 H 0.75952 0.65179 0.75485 0.0
H1787 H 0.76873 0.6653 0.79188 0.0
H1788 H 0.749 0.69362 0.81799 0.0
H1789 H 0.73354 0.68877 0.78318 0.0
C1790 C 0.73243 0.6706 0.74778 0.0
C1791 C 0.73258 0.66038 0.7308 0.0
C1792 C 0.74177 0.67386 0.76756 0.0
C1793 C 0.74246 0.65368 0.73368 0.0
C1794 C 0.75201 0.65711 0.75312 0.0
C1795 C 0.76094 0.6703 0.79011 0.0
C1796 C 0.76019 0.67991 0.80763 0.0
C1797 C 0.75168 0.6671 0.77025 0.0
C1798 C 0.75017 0.68647 0.80471 0.0
C1799 C 0.74117 0.68358 0.78484 0.0
H1800 H 0.70704 0.63273 0.60647 0.0
H1801 H 0.74165 0.68342 0.60876 0.0
H1802 H 0.75435 0.68125 0.57382 0.0
H1803 H 0.75547 0.66511 0.54247 0.0
H1804 H 0.72204 0.61408 0.54127 0.0
H1805 H 0.7089 0.6163 0.5757 0.0
C1806 C 0.71734 0.64329 0.59926 0.0
C1807 C 0.72336 0.65822 0.61012 0.0
C1808 C 0.72477 0.64192 0.57933 0.0
C1809 C 0.7368 0.67178 0.60074 0.0
C1810 C 0.74407 0.67056 0.58075 0.0
C1811 C 0.74549 0.65439 0.54988 0.0
C1812 C 0.7398 0.63945 0.53916 0.0
C1813 C 0.73818 0.65569 0.56993 0.0
C1814 C 0.72657 0.62579 0.54887 0.0
C1815 C 0.71909 0.62703 0.56868 0.0
H1816 H 0.31711 0.06572 0.62522 0.0
H1817 H 0.35438 0.05482 0.6091 0.0
H1818 H 0.36205 0.07214 0.57552 0.0
H1819 H 0.3573 0.08937 0.54974 0.0
H1820 H 0.32026 0.10044 0.5665 0.0
H1821 H 0.31335 0.08397 0.60078 0.0
C1822 C 0.32694 0.06712 0.61442 0.0
C1823 C 0.33506 0.05886 0.61963 0.0
C1824 C 0.3313 0.07709 0.59518 0.0
C1825 C 0.34788 0.06099 0.60551 0.0
C1826 C 0.35227 0.07089 0.58627 0.0
C1827 C 0.3479 0.0884 0.56109 0.0
C1828 C 0.33924 0.09606 0.55544 0.0
C1829 C 0.34397 0.07889 0.58083 0.0
C1830 C 0.32694 0.09448 0.57022 0.0
C1831 C 0.32302 0.08511 0.58988 0.0
H1832 H 0.93869 0.29559 0.59497 0.0
H1833 H 0.93264 0.25218 0.62476 0.0
H1834 H 0.91582 0.23662 0.59265 0.0
H1835 H 0.90278 0.23536 0.55615 0.0
H1836 H 0.91062 0.27922 0.5252 0.0
H1837 H 0.92639 0.29444 0.55795 0.0
C1838 C 0.93366 0.28272 0.59445 0.0
C1839 C 0.93688 0.27506 0.61225 0.0
C1840 C 0.92418 0.27388 0.57581 0.0
C1841 C 0.93038 0.25838 0.61125 0.0
C1842 C 0.92073 0.24947 0.59291 0.0
C1843 C 0.90805 0.24826 0.5564 0.0
C1844 C 0.90529 0.25601 0.53815 0.0
C1845 C 0.91757 0.25709 0.57506 0.0
C1846 C 0.9121 0.27276 0.53912 0.0
C1847 C 0.92131 0.28156 0.55779 0.0
H1848 H 0.35298 0.28423 0.61174 0.0
H1849 H 0.30229 0.24896 0.60829 0.0
H1850 H 0.30645 0.23931 0.57183 0.0
H1851 H 0.32435 0.24078 0.54112 0.0
H1852 H 0.37554 0.2742 0.54596 0.0
H1853 H 0.37125 0.28489 0.58136 0.0
C1854 C 0.34287 0.2745 0.60289 0.0
C1855 C 0.32735 0.26734 0.61262 0.0
C1856 C 0.34541 0.2687 0.58217 0.0
C1857 C 0.31436 0.25461 0.60117 0.0
C1858 C 0.31672 0.2491 0.58031 0.0
C1859 C 0.33467 0.25021 0.55003 0.0
C1860 C 0.35026 0.2566 0.54071 0.0
C1861 C 0.3322 0.25598 0.57074 0.0
C1862 C 0.36335 0.26915 0.5524 0.0
C1863 C 0.36093 0.27522 0.57279 0.0
H1864 H 0.70496 0.068 0.5955 0.0
H1865 H 0.74486 0.06217 0.61518 0.0
H1866 H 0.76027 0.07766 0.582 0.0
H1867 H 0.7623 0.09254 0.54712 0.0
H1868 H 0.72196 0.09743 0.52669 0.0
H1869 H 0.70704 0.08295 0.56069 0.0
C1870 C 0.71704 0.07013 0.59256 0.0
C1871 C 0.72372 0.0639 0.60777 0.0
C1872 C 0.72582 0.07899 0.57338 0.0
C1873 C 0.7394 0.06679 0.60371 0.0
C1874 C 0.74824 0.07567 0.58474 0.0
C1875 C 0.75021 0.09037 0.55002 0.0
C1876 C 0.74332 0.09612 0.53432 0.0
C1877 C 0.74154 0.08175 0.5694 0.0
C1878 C 0.72771 0.0934 0.53862 0.0
C1879 C 0.71909 0.08498 0.55797 0.0
H1880 H 0.93355 0.64145 0.61949 0.0
H1881 H 0.9292 0.68239 0.63766 0.0
H1882 H 0.91187 0.67756 0.60491 0.0
H1883 H 0.89853 0.66226 0.57051 0.0
H1884 H 0.90359 0.62195 0.55124 0.0
H1885 H 0.91968 0.62576 0.58527 0.0
C1886 C 0.92878 0.64929 0.61634 0.0
C1887 C 0.93279 0.66232 0.63103 0.0
C1888 C 0.91884 0.64651 0.59732 0.0
C1889 C 0.92643 0.67232 0.62664 0.0
C1890 C 0.91648 0.66956 0.6079 0.0
C1891 C 0.9032 0.65434 0.57368 0.0
C1892 C 0.89987 0.64188 0.55824 0.0
C1893 C 0.91272 0.65679 0.59302 0.0
C1894 C 0.90577 0.63153 0.56293 0.0
C1895 C 0.91511 0.63379 0.5823 0.0
H1896 H 0.95765 0.68903 0.75194 0.0
H1897 H 0.92407 0.63807 0.75169 0.0
H1898 H 0.91051 0.64071 0.78533 0.0
H1899 H 0.90827 0.65736 0.81487 0.0
H1900 H 0.94053 0.70861 0.81383 0.0
H1901 H 0.95466 0.70594 0.78088 0.0
C1902 C 0.94741 0.67851 0.75935 0.0
C1903 C 0.94191 0.66337 0.74943 0.0
C1904 C 0.93944 0.68016 0.77846 0.0
C1905 C 0.92852 0.64987 0.75901 0.0
C1906 C 0.92076 0.65136 0.77825 0.0
C1907 C 0.9182 0.66802 0.80726 0.0
C1908 C 0.92327 0.68317 0.81693 0.0
C1909 C 0.92607 0.66645 0.78805 0.0
C1910 C 0.93646 0.69676 0.80703 0.0
C1911 C 0.94451 0.69526 0.78808 0.0
H1912 H 0.31355 0.26665 0.75049 0.0
H1913 H 0.35887 0.27575 0.72182 0.0
H1914 H 0.36294 0.26251 0.75423 0.0
H1915 H 0.35393 0.24871 0.79097 0.0
H1916 H 0.30905 0.24026 0.82044 0.0
H1917 H 0.3044 0.25258 0.78731 0.0
C1918 C 0.32429 0.2657 0.75132 0.0
C1919 C 0.33589 0.27223 0.73377 0.0
C1920 C 0.32662 0.25811 0.77011 0.0
C1921 C 0.34975 0.27088 0.73511 0.0
C1922 C 0.3521 0.26329 0.75364 0.0
C1923 C 0.34317 0.24964 0.79023 0.0
C1924 C 0.33188 0.24356 0.80821 0.0
C1925 C 0.34067 0.25695 0.7713 0.0
C1926 C 0.31786 0.24463 0.80673 0.0
C1927 C 0.31524 0.25179 0.78786 0.0
H1928 H 0.72618 0.04638 0.7363 0.0
H1929 H 0.73314 0.09326 0.72204 0.0
H1930 H 0.74865 0.10371 0.75683 0.0
H1931 H 0.7596 0.09957 0.79194 0.0
H1932 H 0.75275 0.05294 0.80696 0.0
H1933 H 0.7381 0.04247 0.77113 0.0
C1934 C 0.73114 0.05889 0.74076 0.0
C1935 C 0.72836 0.06894 0.72655 0.0
C1936 C 0.74011 0.06491 0.76093 0.0
C1937 C 0.73498 0.08517 0.7326 0.0
C1938 C 0.74388 0.09121 0.75255 0.0
C1939 C 0.75486 0.0871 0.78739 0.0
C1940 C 0.75715 0.07703 0.80214 0.0
C1941 C 0.74639 0.08117 0.76693 0.0
C1942 C 0.75122 0.06097 0.79582 0.0
C1943 C 0.74277 0.05496 0.77541 0.0
H1944 H 0.05186 0.36746 0.01919 0.0
H1945 H 0.01559 0.32721 0.05774 0.0
H1946 H 0.03601 0.3218 0.07224 0.0
H1947 H 0.06431 0.32976 0.07666 0.0
H1948 H 0.1009 0.36982 0.03828 0.0
H1949 H 0.08023 0.37401 0.02109 0.0
C1950 C 0.04842 0.35742 0.03058 0.0
C1951 C 0.03222 0.34786 0.0375 0.0
C1952 C 0.06029 0.35438 0.03903 0.0
C1953 C 0.02797 0.33484 0.05221 0.0
C1954 C 0.03965 0.33172 0.06055 0.0
C1955 C 0.06778 0.33916 0.0641 0.0
C1956 C 0.08418 0.34949 0.05888 0.0
C1957 C 0.05587 0.34157 0.05441 0.0
C1958 C 0.0884 0.36181 0.04286 0.0
C1959 C 0.07657 0.36421 0.03299 0.0
H1960 H 0.65912 0.69617 0.03758 0.0
H1961 H 0.61202 0.69139 0.04072 0.0
H1962 H 0.62348 0.71738 0.05967 0.0
H1963 H 0.64674 0.74111 0.07641 0.0
H1964 H 0.69359 0.74527 0.07426 0.0
H1965 H 0.68238 0.72006 0.05346 0.0
C1966 C 0.65134 0.7008 0.04232 0.0
C1967 C 0.63471 0.69176 0.03781 0.0
C1968 C 0.65797 0.71572 0.05331 0.0
C1969 C 0.62485 0.69804 0.04402 0.0
C1970 C 0.63139 0.71292 0.05488 0.0
C1971 C 0.65449 0.73649 0.07144 0.0
C1972 C 0.671 0.74514 0.0769 0.0
C1973 C 0.64791 0.72179 0.0598 0.0
C1974 C 0.6809 0.73905 0.06999 0.0
C1975 C 0.67447 0.72453 0.05826 0.0
H1976 H 0.31458 0.96958 0.03121 0.0
H1977 H 0.31925 0.9276 0.02564 0.0
H1978 H 0.29239 0.91115 0.04202 0.0
H1979 H 0.26792 0.90877 0.05908 0.0
H1980 H 0.26366 0.9509 0.06591 0.0
H1981 H 0.28981 0.96706 0.04739 0.0
C1982 C 0.30973 0.95683 0.0335 0.0
C1983 C 0.31901 0.9499 0.02729 0.0
C1984 C 0.29427 0.94741 0.04304 0.0
C1985 C 0.31244 0.93331 0.03032 0.0
C1986 C 0.29706 0.92387 0.03969 0.0
C1987 C 0.27272 0.92149 0.05656 0.0
C1988 C 0.2638 0.92857 0.06394 0.0
C1989 C 0.28793 0.93081 0.04631 0.0
C1990 C 0.27011 0.94504 0.06015 0.0
C1991 C 0.28516 0.95435 0.04974 0.0
H1992 H 0.3735 0.05173 0.97786 0.0
H1993 H 0.3247 0.01537 0.99435 0.0
H1994 H 0.31491 0.03291 0.98141 0.0
H1995 H 0.32002 0.05774 0.96317 0.0
H1996 H 0.36847 0.09248 0.94169 0.0
H1997 H 0.3786 0.07675 0.95962 0.0
C1998 C 0.36076 0.04777 0.97889 0.0
C1999 C 0.34982 0.03232 0.98706 0.0
C2000 C 0.35515 0.05766 0.97058 0.0
C2001 C 0.33332 0.02721 0.98804 0.0
C2002 C 0.32773 0.03722 0.98065 0.0
C2003 C 0.33279 0.06189 0.96215 0.0
C2004 C 0.34334 0.07635 0.95082 0.0
C2005 C 0.33849 0.05234 0.97143 0.0
C2006 C 0.35995 0.08161 0.95051 0.0
C2007 C 0.3658 0.07249 0.96055 0.0
H2008 H 0.92634 0.30494 0.99647 0.0
H2009 H 0.9732 0.31065 0.98337 0.0
H2010 H 0.96067 0.28522 0.96287 0.0
H2011 H 0.9366 0.26212 0.94682 0.0
H2012 H 0.88973 0.25628 0.95992 0.0
H2013 H 0.90211 0.28106 0.98216 0.0
C2014 C 0.93382 0.30061 0.98925 0.0
C2015 C 0.95071 0.30979 0.99138 0.0
C2016 C 0.92656 0.28598 0.97736 0.0
C2017 C 0.96018 0.3039 0.98197 0.0
C2018 C 0.95304 0.28934 0.9702 0.0
C2019 C 0.92905 0.2661 0.95489 0.0
C2020 C 0.91226 0.25737 0.95164 0.0
C2021 C 0.93625 0.28037 0.96758 0.0
C2022 C 0.9027 0.26287 0.96191 0.0
C2023 C 0.90977 0.27701 0.97468 0.0
H2024 H 0.68547 0.64254 0.99382 0.0
H2025 H 0.68723 0.68536 0.96904 0.0
H2026 H 0.71406 0.69483 0.95326 0.0
H2027 H 0.73632 0.69032 0.94444 0.0
H2028 H 0.73473 0.64746 0.9684 0.0
H2029 H 0.70854 0.63863 0.98647 0.0
C2030 C 0.69178 0.654 0.98512 0.0
C2031 C 0.6843 0.66318 0.98254 0.0
C2032 C 0.70721 0.65934 0.97583 0.0
C2033 C 0.69265 0.67799 0.97119 0.0
C2034 C 0.70801 0.68344 0.96214 0.0
C2035 C 0.73041 0.67919 0.95401 0.0
C2036 C 0.7375 0.66958 0.9551 0.0
C2037 C 0.71532 0.67413 0.96412 0.0
C2038 C 0.72949 0.65503 0.96715 0.0
C2039 C 0.71452 0.64999 0.97752 0.0
H2040 H 0.9294 0.61744 0.99658 0.0
H2041 H 0.97492 0.66181 0.99106 0.0
H2042 H 0.96149 0.6747 0.97363 0.0
H2043 H 0.93718 0.6732 0.95842 0.0
H2044 H 0.8916 0.62896 0.96302 0.0
H2045 H 0.90472 0.61619 0.98223 0.0
C2046 C 0.93637 0.62995 0.9917 0.0
C2047 C 0.95317 0.6386 0.9951 0.0
C2048 C 0.92858 0.63731 0.98142 0.0
C2049 C 0.962 0.65481 0.98858 0.0
C2050 C 0.95433 0.66222 0.9786 0.0
C2051 C 0.93004 0.66084 0.96398 0.0
C2052 C 0.91342 0.65208 0.95942 0.0
C2053 C 0.93767 0.65357 0.97478 0.0
C2054 C 0.90443 0.63595 0.96625 0.0
C2055 C 0.91192 0.62866 0.97726 0.0
H2056 H 0.37271 0.3182 0.99381 0.0
H2057 H 0.32278 0.30525 0.99053 0.0
H2058 H 0.31552 0.27868 0.97601 0.0
H2059 H 0.32369 0.25996 0.96183 0.0
H2060 H 0.37437 0.27485 0.96039 0.0
H2061 H 0.3808 0.29941 0.98003 0.0
C2062 C 0.36021 0.30948 0.99022 0.0
C2063 C 0.3483 0.31365 0.99322 0.0
C2064 C 0.35622 0.29449 0.98111 0.0
C2065 C 0.33217 0.30231 0.98826 0.0
C2066 C 0.32803 0.28714 0.97996 0.0
C2067 C 0.33618 0.26855 0.9656 0.0
C2068 C 0.34844 0.26529 0.9594 0.0
C2069 C 0.34002 0.28322 0.97583 0.0
C2070 C 0.36449 0.2766 0.96521 0.0
C2071 C 0.36829 0.29088 0.97623 0.0
H2072 H 0.67945 0.05994 0.98261 0.0
H2073 H 0.68772 0.02295 0.00799 0.0
H2074 H 0.71483 0.03668 0.99156 0.0
H2075 H 0.73557 0.05832 0.96838 0.0
H2076 H 0.7261 0.09362 0.93907 0.0
H2077 H 0.70042 0.08178 0.95928 0.0
C2078 C 0.68728 0.05501 0.98473 0.0
C2079 C 0.68162 0.04047 0.99646 0.0
C2080 C 0.70269 0.0627 0.9746 0.0
C2081 C 0.6918 0.03409 -0.0011 0.0
C2082 C 0.7073 0.04194 0.98954 0.0
C2083 C 0.72789 0.0634 0.96618 0.0
C2084 C 0.73289 0.07686 0.95202 0.0
C2085 C 0.71276 0.05609 0.977 0.0
C2086 C 0.72283 0.08345 0.95006 0.0
C2087 C 0.70799 0.07656 0.96143 0.0
H2088 H 0.63054 0.93937 0.03202 0.0
H2089 H 0.67586 0.98337 0.04123 0.0
H2090 H 0.68779 0.96856 0.05696 0.0
H2091 H 0.68489 0.94365 0.07107 0.0
H2092 H 0.63974 0.89935 0.06329 0.0
H2093 H 0.62819 0.91371 0.04423 0.0
C2094 C 0.64308 0.94564 0.03719 0.0
C2095 C 0.65226 0.96246 0.03558 0.0
C2096 C 0.64986 0.93703 0.04671 0.0
C2097 C 0.66847 0.97045 0.04246 0.0
C2098 C 0.67533 0.96199 0.05147 0.0
C2099 C 0.67264 0.93702 0.06475 0.0
C2100 C 0.66324 0.92042 0.06857 0.0
C2101 C 0.66607 0.94535 0.05409 0.0
C2102 C 0.64723 0.91215 0.06074 0.0
C2103 C 0.64063 0.92036 0.04979 0.0
H2104 H 0.05463 0.68098 0.03771 0.0
H2105 H 0.02094 0.69441 0.01334 0.0
H2106 H 0.03913 0.72216 0.0249 0.0
H2107 H 0.06315 0.74184 0.04528 0.0
H2108 H 0.09501 0.72755 0.0747 0.0
H2109 H 0.07943 0.70121 0.05712 0.0
C2110 C 0.05149 0.6901 0.03455 0.0
C2111 C 0.03655 0.68576 0.02467 0.0
C2112 C 0.06168 0.70588 0.04223 0.0
C2113 C 0.0324 0.69754 0.02097 0.0
C2114 C 0.04277 0.71337 0.02761 0.0
C2115 C 0.06671 0.73299 0.048 0.0
C2116 C 0.08018 0.73675 0.06166 0.0
C2117 C 0.0572 0.71756 0.03888 0.0
C2118 C 0.08483 0.72519 0.06418 0.0
C2119 C 0.0758 0.70999 0.05432 0.0
H2120 H 0.30785 0.34254 0.02697 0.0
H2121 H 0.32494 0.3901 0.0535 0.0
H2122 H 0.29924 0.38081 0.07308 0.0
H2123 H 0.27263 0.35897 0.08438 0.0
H2124 H 0.25463 0.31173 0.05581 0.0
H2125 H 0.28009 0.32111 0.03558 0.0
C2126 C 0.30591 0.35087 0.03698 0.0
C2127 C 0.31833 0.36695 0.03894 0.0
C2128 C 0.29101 0.3455 0.04796 0.0
C2129 C 0.31558 0.37766 0.05171 0.0
C2130 C 0.3009 0.37235 0.06296 0.0
C2131 C 0.27404 0.35075 0.07334 0.0
C2132 C 0.26166 0.33459 0.07188 0.0
C2133 C 0.28859 0.35627 0.06138 0.0
C2134 C 0.26401 0.32414 0.05774 0.0
C2135 C 0.27855 0.32951 0.04601 0.0
H2136 H 0.71608 0.68651 0.34892 0.0
H2137 H 0.6983 0.68923 0.41559 0.0
H2138 H 0.71658 0.68208 0.43345 0.0
H2139 H 0.73646 0.67363 0.43027 0.0
H2140 H 0.7531 0.66862 0.36403 0.0
H2141 H 0.73649 0.67806 0.34579 0.0
C2142 C 0.71636 0.68566 0.36734 0.0
C2143 C 0.70587 0.68838 0.38092 0.0
C2144 C 0.72664 0.68108 0.37755 0.0
C2145 C 0.70619 0.68709 0.40476 0.0
C2146 C 0.71666 0.68303 0.41501 0.0
C2147 C 0.73666 0.67488 0.41185 0.0
C2148 C 0.74611 0.67066 0.39849 0.0
C2149 C 0.72678 0.67982 0.40159 0.0
C2150 C 0.74594 0.6719 0.37462 0.0
C2151 C 0.73645 0.67726 0.36423 0.0
H2152 H 0.28842 0.02704 0.35876 0.0
H2153 H 0.32002 0.01303 0.38972 0.0
H2154 H 0.33403 0.03852 0.41003 0.0
H2155 H 0.33662 0.0642 0.4202 0.0
H2156 H 0.30628 0.07918 0.38754 0.0
H2157 H 0.29231 0.05376 0.36702 0.0
C2158 C 0.29839 0.02959 0.36993 0.0
C2159 C 0.30309 0.0181 0.37282 0.0
C2160 C 0.30656 0.04438 0.38137 0.0
C2161 C 0.31615 0.02166 0.38715 0.0
C2162 C 0.32416 0.03622 0.39883 0.0
C2163 C 0.3272 0.06213 0.40825 0.0
C2164 C 0.32254 0.07368 0.40557 0.0
C2165 C 0.31941 0.04763 0.39616 0.0
C2166 C 0.30999 0.07047 0.39033 0.0
C2167 C 0.30204 0.05595 0.37844 0.0
H2168 H 0.98065 0.30382 0.36543 0.0
H2169 H 0.98381 0.26247 0.34568 0.0
H2170 H 0.95694 0.24477 0.36139 0.0
H2171 H 0.93296 0.24103 0.38209 0.0
H2172 H 0.93045 0.28253 0.40309 0.0
H2173 H 0.95644 0.30007 0.38507 0.0
C2174 C 0.97545 0.29094 0.36443 0.0
C2175 C 0.98432 0.28453 0.35448 0.0
C2176 C 0.96004 0.28081 0.37364 0.0
C2177 C 0.97732 0.26778 0.35331 0.0
C2178 C 0.96193 0.25762 0.3623 0.0
C2179 C 0.9381 0.25391 0.38276 0.0
C2180 C 0.92968 0.26038 0.39395 0.0
C2181 C 0.95326 0.26401 0.37275 0.0
C2182 C 0.93646 0.27713 0.3943 0.0
C2183 C 0.95144 0.28722 0.38418 0.0
H2184 H 0.04172 0.38918 0.31873 0.0
H2185 H 0.99248 0.35418 0.33534 0.0
H2186 H 0.98372 0.37273 0.32321 0.0
H2187 H 0.98979 0.3979 0.3051 0.0
H2188 H 0.03853 0.43103 0.28277 0.0
H2189 H 0.0478 0.4146 0.30073 0.0
C2190 C 0.02913 0.38578 0.32004 0.0
C2191 C 0.01775 0.37043 0.32799 0.0
C2192 C 0.02409 0.3962 0.312 0.0
C2193 C 0.00143 0.36597 0.32925 0.0
C2194 C 0.99643 0.37655 0.32229 0.0
C2195 C 0.00243 0.40155 0.30388 0.0
C2196 C 0.01331 0.41576 0.29226 0.0
C2197 C 0.0076 0.39154 0.31308 0.0
C2198 C 0.02977 0.42038 0.29178 0.0
C2199 C 0.03512 0.41084 0.30184 0.0
H2200 H 0.60633 0.65272 0.31356 0.0
H2201 H 0.6397 0.64208 0.34674 0.0
H2202 H 0.62601 0.61521 0.32994 0.0
H2203 H 0.60528 0.59525 0.30466 0.0
H2204 H 0.57436 0.60759 0.26753 0.0
H2205 H 0.58599 0.63296 0.28764 0.0
C2206 C 0.61047 0.64444 0.31731 0.0
C2207 C 0.62393 0.64931 0.33146 0.0
C2208 C 0.60293 0.62925 0.30695 0.0
C2209 C 0.62936 0.63858 0.33588 0.0
C2210 C 0.62154 0.62323 0.32627 0.0
C2211 C 0.60114 0.60349 0.30067 0.0
C2212 C 0.58882 0.59923 0.28447 0.0
C2213 C 0.60846 0.61852 0.3115 0.0
C2214 C 0.58349 0.61012 0.28019 0.0
C2215 C 0.59029 0.62483 0.29152 0.0
H2216 H 0.34806 0.96654 0.33344 0.0
H2217 H 0.34387 0.00154 0.29315 0.0
H2218 H 0.36988 0.01007 0.27547 0.0
H2219 H 0.39326 0.00708 0.27016 0.0
H2220 H 0.39857 0.9729 0.31064 0.0
H2221 H 0.3726 0.96444 0.32924 0.0
C2222 C 0.35289 0.97607 0.32086 0.0
C2223 C 0.34396 0.98333 0.31461 0.0
C2224 C 0.36801 0.98102 0.31067 0.0
C2225 C 0.35042 0.9957 0.29831 0.0
C2226 C 0.36532 0.00061 0.28813 0.0
C2227 C 0.38897 -0.00199 0.28339 0.0
C2228 C 0.39796 0.99073 0.28904 0.0
C2229 C 0.37416 0.99331 0.29407 0.0
C2230 C 0.39187 0.97864 0.30579 0.0
C2231 C 0.37704 0.97384 0.3165 0.0
H2232 H 0.62872 0.97731 0.32205 0.0
H2233 H 0.5896 0.93413 0.35156 0.0
H2234 H 0.57016 0.94064 0.33626 0.0
H2235 H 0.56403 0.95742 0.31225 0.0
H2236 H 0.60279 -0.0002 0.28071 0.0
H2237 H 0.62255 0.99505 0.29964 0.0
C2238 C 0.61596 0.96941 0.32531 0.0
C2239 C 0.61066 0.95516 0.33774 0.0
C2240 C 0.60474 0.9731 0.31617 0.0
C2241 C 0.59405 0.94508 0.34185 0.0
C2242 C 0.58289 0.9488 0.33314 0.0
C2243 C 0.5768 0.96566 0.30955 0.0
C2244 C 0.58188 0.97885 0.2949 0.0
C2245 C 0.58807 0.96259 0.31989 0.0
C2246 C 0.5985 0.98961 0.29204 0.0
C2247 C 0.60983 0.98681 0.30267 0.0
H2248 H 0.04332 0.66164 0.32355 0.0
H2249 H 0.99198 0.64265 0.32175 0.0
H2250 H 0.98777 0.61684 0.30833 0.0
H2251 H -0.00115 0.60034 0.29479 0.0
H2252 H 0.05059 0.62092 0.29217 0.0
H2253 H 0.05434 0.64506 0.31043 0.0
C2254 C 0.0312 0.65177 0.32051 0.0
C2255 C 0.01799 0.65403 0.32362 0.0
C2256 C 0.02891 0.63717 0.31208 0.0
C2257 C 0.00235 0.64121 0.31938 0.0
C2258 C -6e-05 0.62646 0.31171 0.0
C2259 C 0.01098 0.61008 0.29802 0.0
C2260 C 0.02436 0.60857 0.29193 0.0
C2261 C 0.01317 0.62441 0.30753 0.0
C2262 C 0.03994 0.62135 0.29697 0.0
C2263 C 0.04217 0.63537 0.3072 0.0
H2264 H 0.35885 0.36757 0.31947 0.0
H2265 H 0.3577 0.41088 0.33285 0.0
H2266 H 0.38424 0.4268 0.31523 0.0
H2267 H 0.40746 0.42841 0.29502 0.0
H2268 H 0.40814 0.38499 0.28059 0.0
H2269 H 0.38232 0.36924 0.30007 0.0
C2270 C 0.36439 0.3805 0.3186 0.0
C2271 C 0.35619 0.38797 0.3274 0.0
C2272 C 0.37966 0.38961 0.30837 0.0
C2273 C 0.36366 0.40476 0.32618 0.0
C2274 C 0.37887 0.4139 0.3161 0.0
C2275 C 0.40195 0.4155 0.29608 0.0
C2276 C 0.4098 0.40795 0.28631 0.0
C2277 C 0.38691 0.40644 0.30696 0.0
C2278 C 0.40256 0.3912 0.28822 0.0
C2279 C 0.38768 0.38214 0.29918 0.0
H2280 H 0.30303 0.28462 0.36084 0.0
H2281 H 0.35007 0.32608 0.37206 0.0
H2282 H 0.36007 0.30898 0.38559 0.0
H2283 H 0.35499 0.28267 0.39731 0.0
H2284 H 0.30795 0.24098 0.38761 0.0
H2285 H 0.2984 0.25772 0.37052 0.0
C2286 C 0.31552 0.28986 0.36595 0.0
C2287 C 0.32576 0.30661 0.36554 0.0
C2288 C 0.32116 0.27993 0.3742 0.0
C2289 C 0.34189 0.31324 0.37235 0.0
C2290 C 0.34764 0.30347 0.38011 0.0
C2291 C 0.34275 0.27715 0.39099 0.0
C2292 C 0.33222 0.26058 0.39369 0.0
C2293 C 0.33731 0.28685 0.38153 0.0
C2294 C 0.31627 0.25372 0.38587 0.0
C2295 C 0.31082 0.26329 0.37608 0.0
H2296 H 0.71618 0.00906 0.375 0.0
H2297 H 0.68009 0.01949 0.3516 0.0
H2298 H 0.69789 0.0479 0.36034 0.0
H2299 H 0.72278 0.06929 0.37696 0.0
H2300 H 0.75703 0.05798 0.40607 0.0
H2301 H 0.74129 0.0307 0.39186 0.0
C2302 C 0.71236 0.01763 0.37155 0.0
C2303 C 0.69692 0.01227 0.36262 0.0
C2304 C 0.72237 0.03383 0.37757 0.0
C2305 C 0.69193 0.02339 0.35852 0.0
C2306 C 0.7021 0.03961 0.36351 0.0
C2307 C 0.72681 0.0609 0.38051 0.0
C2308 C 0.74112 0.06591 0.3929 0.0
C2309 C 0.71719 0.0449 0.37352 0.0
C2310 C 0.74627 0.05479 0.39638 0.0
C2311 C 0.73713 0.03902 0.38849 0.0
H2312 H 0.97965 0.67861 0.38193 0.0
H2313 H 0.97183 0.7155 0.35479 0.0
H2314 H 0.94505 0.70269 0.37236 0.0
H2315 H 0.92401 0.68117 0.39574 0.0
H2316 H 0.93302 0.64565 0.42543 0.0
H2317 H 0.95892 0.65753 0.40599 0.0
C2318 C 0.97207 0.68382 0.37977 0.0
C2319 C 0.97773 0.69798 0.36704 0.0
C2320 C 0.95681 0.67656 0.39022 0.0
C2321 C 0.96779 0.70464 0.36459 0.0
C2322 C 0.95246 0.6973 0.37458 0.0
C2323 C 0.93165 0.67607 0.39818 0.0
C2324 C 0.92635 0.66239 0.412 0.0
C2325 C 0.94688 0.6833 0.38756 0.0
C2326 C 0.93646 0.65589 0.41452 0.0
C2327 C 0.95143 0.6628 0.4036 0.0
H2328 H 0.36854 0.01722 0.73478 0.0
H2329 H 0.38193 0.01696 0.66453 0.0
H2330 H 0.4025 0.01063 0.67646 0.0
H2331 H 0.41582 0.00395 0.70718 0.0
H2332 H 0.40329 0.00617 0.77735 0.0
H2333 H 0.38337 0.0131 0.76523 0.0
C2334 C 0.37601 0.01582 0.7221 0.0
C2335 C 0.37364 0.01733 0.69884 0.0
C2336 C 0.38799 0.01258 0.72911 0.0
C2337 C 0.38356 0.0158 0.68256 0.0
C2338 C 0.39527 0.01215 0.68938 0.0
C2339 C 0.40882 0.00614 0.71973 0.0
C2340 C 0.411 0.00459 0.7431 0.0
C2341 C 0.39749 0.01035 0.71263 0.0
C2342 C 0.40193 0.00748 0.75927 0.0
C2343 C 0.39046 0.01133 0.75237 0.0
H2344 H 0.99384 0.35728 0.69307 0.0
H2345 H 0.94564 0.3493 0.70098 0.0
H2346 H 0.95629 0.37497 0.72041 0.0
H2347 H 0.97896 0.39879 0.73737 0.0
H2348 H 0.02732 0.40739 0.7287 0.0
H2349 H 0.01686 0.3823 0.70755 0.0
C2350 C 0.98567 0.36119 0.69891 0.0
C2351 C 0.96894 0.35127 0.69569 0.0
C2352 C 0.99187 0.37603 0.7101 0.0
C2353 C 0.95856 0.35663 0.70323 0.0
C2354 C 0.96463 0.37132 0.71441 0.0
C2355 C 0.9873 0.3954 0.73046 0.0
C2356 C 0.00392 0.40499 0.73481 0.0
C2357 C 0.98123 0.38101 0.7182 0.0
C2358 C 0.01444 0.40016 0.72599 0.0
C2359 C 0.00848 0.38583 0.71379 0.0
H2360 H 0.64402 0.5962 0.68972 0.0
H2361 H 0.65485 0.64211 0.7169 0.0
H2362 H 0.62921 0.62942 0.73744 0.0
H2363 H 0.60434 0.60534 0.74888 0.0
H2364 H 0.59247 0.55951 0.72011 0.0
H2365 H 0.61807 0.57213 0.69937 0.0
C2366 C 0.64075 0.60343 0.7001 0.0
C2367 C 0.65139 0.62007 0.70185 0.0
C2368 C 0.62588 0.59608 0.71173 0.0
C2369 C 0.64689 0.62928 0.7152 0.0
C2370 C 0.63225 0.62204 0.72702 0.0
C2371 C 0.60712 0.59808 0.73773 0.0
C2372 C 0.59638 0.58144 0.73617 0.0
C2373 C 0.6217 0.60545 0.7255 0.0
C2374 C 0.60053 0.57229 0.722 0.0
C2375 C 0.61515 0.57952 0.70999 0.0
H2376 H 0.66954 0.69236 0.65856 0.0
H2377 H 0.72145 0.7213 0.6569 0.0
H2378 H 0.71974 0.74407 0.64276 0.0
H2379 H 0.70366 0.75484 0.62761 0.0
H2380 H 0.65166 0.72701 0.63251 0.0
H2381 H 0.65332 0.70466 0.64834 0.0
C2382 C 0.68046 0.70372 0.65532 0.0
C2383 C 0.69559 0.70511 0.65852 0.0
C2384 C 0.6794 0.71688 0.64751 0.0
C2385 C 0.70965 0.71993 0.65456 0.0
C2386 C 0.70869 0.73294 0.64638 0.0
C2387 C 0.69261 0.74415 0.63272 0.0
C2388 C 0.67753 0.74272 0.62838 0.0
C2389 C 0.69363 0.73146 0.6424 0.0
C2390 C 0.66346 0.72845 0.63489 0.0
C2391 C 0.66438 0.71564 0.64415 0.0
H2392 H 0.26634 0.97267 0.65194 0.0
H2393 H 0.31206 0.97448 0.64718 0.0
H2394 H 0.29887 0.94805 0.62936 0.0
H2395 H 0.27461 0.92498 0.6135 0.0
H2396 H 0.22891 0.92311 0.61831 0.0
H2397 H 0.24189 0.94906 0.63766 0.0
C2398 C 0.27345 0.96728 0.64709 0.0
C2399 C 0.29021 0.97564 0.65082 0.0
C2400 C 0.2658 0.95208 0.63678 0.0
C2401 C 0.29916 0.96839 0.64449 0.0
C2402 C 0.29163 0.95325 0.63428 0.0
C2403 C 0.26743 0.9301 0.61914 0.0
C2404 C 0.25081 0.9221 0.61443 0.0
C2405 C 0.27498 0.94505 0.63017 0.0
C2406 C 0.24175 0.92908 0.6215 0.0
C2407 C 0.24916 0.9439 0.63261 0.0
H2408 H 0.02237 0.33246 0.63159 0.0
H2409 H 0.01311 0.29205 0.67349 0.0
H2410 H 0.0384 0.29436 0.66065 0.0
H2411 H 0.06209 0.30655 0.63532 0.0
H2412 H 0.07091 0.34644 0.59262 0.0
H2413 H 0.04709 0.34588 0.60839 0.0
C2414 C 0.02595 0.32425 0.63809 0.0
C2415 C 0.01578 0.312 0.6533 0.0
C2416 C 0.04046 0.32556 0.63051 0.0
C2417 C 0.02067 0.30154 0.66167 0.0
C2418 C 0.03512 0.30283 0.65432 0.0
C2419 C 0.05885 0.31517 0.62956 0.0
C2420 C 0.06823 0.32645 0.6127 0.0
C2421 C 0.04494 0.31458 0.63838 0.0
C2422 C 0.06402 0.33773 0.60572 0.0
C2423 C 0.05029 0.33732 0.61458 0.0
H2424 H 0.2967 0.32005 0.67044 0.0
H2425 H 0.26271 0.27289 0.64521 0.0
H2426 H 0.24673 0.28326 0.62799 0.0
H2427 H 0.24361 0.306 0.6178 0.0
H2428 H 0.2762 0.35279 0.64596 0.0
H2429 H 0.29164 0.34227 0.66406 0.0
C2430 C 0.28573 0.31205 0.6613 0.0
C2431 C 0.28096 0.29578 0.65888 0.0
C2432 C 0.27645 0.31803 0.65178 0.0
C2433 C 0.26661 0.28547 0.6473 0.0
C2434 C 0.25751 0.29139 0.63739 0.0
C2435 C 0.25381 0.3139 0.62835 0.0
C2436 C 0.25877 0.33029 0.63008 0.0
C2437 C 0.26244 0.3077 0.63926 0.0
C2438 C 0.27227 0.34024 0.64366 0.0
C2439 C 0.28108 0.33421 0.65421 0.0
H2440 H 0.69728 0.98303 0.66705 0.0
H2441 H 0.65869 0.98307 0.6298 0.0
H2442 H 0.64924 0.95587 0.61681 0.0
H2443 H 0.65264 0.9327 0.61414 0.0
H2444 H 0.69075 0.9318 0.65132 0.0
H2445 H 0.69976 0.95876 0.66598 0.0
C2446 C 0.68674 0.97703 0.65623 0.0
C2447 C 0.67878 0.98515 0.64934 0.0
C2448 C 0.68133 0.96128 0.64866 0.0
C2449 C 0.66512 0.97718 0.63532 0.0
C2450 C 0.65968 0.96159 0.62784 0.0
C2451 C 0.6627 0.93818 0.62587 0.0
C2452 C 0.67092 0.93013 0.63169 0.0
C2453 C 0.66778 0.9536 0.6342 0.0
C2454 C 0.68424 0.93773 0.6464 0.0
C2455 C 0.68938 0.95314 0.65485 0.0
H2456 H 0.02086 0.72486 0.66667 0.0
H2457 H 0.01398 0.67827 0.65022 0.0
H2458 H 0.03995 0.69089 0.63045 0.0
H2459 H 0.06394 0.71509 0.61607 0.0
H2460 H 0.0709 0.76164 0.63279 0.0
H2461 H 0.04554 0.74905 0.65413 0.0
C2462 C 0.02504 0.71743 0.65885 0.0
C2463 C 0.01538 0.70062 0.65984 0.0
C2464 C 0.03999 0.72475 0.64746 0.0
C2465 C 0.0211 0.69123 0.64971 0.0
C2466 C 0.03597 0.69844 0.63836 0.0
C2467 C 0.06007 0.7225 0.62473 0.0
C2468 C 0.0693 0.7393 0.62273 0.0
C2469 C 0.04544 0.71518 0.63694 0.0
C2470 C 0.06394 0.74868 0.63378 0.0
C2471 C 0.04945 0.7415 0.64605 0.0
H2472 H 0.99513 0.62824 0.70477 0.0
H2473 H 0.94324 0.5994 0.70294 0.0
H2474 H 0.94435 0.57671 0.71887 0.0
H2475 H 0.95985 0.56611 0.73686 0.0
H2476 H 0.01193 0.59401 0.73582 0.0
H2477 H 0.01089 0.61607 0.71771 0.0
C2478 C 0.98409 0.61691 0.7076 0.0
C2479 C 0.96912 0.61554 0.70294 0.0
C2480 C 0.98482 0.60383 0.71653 0.0
C2481 C 0.95492 0.60076 0.7064 0.0
C2482 C 0.95554 0.5878 0.71561 0.0
C2483 C 0.97105 0.57676 0.73214 0.0
C2484 C 0.98595 0.57834 0.73826 0.0
C2485 C 0.97041 0.58931 0.7212 0.0
C2486 C 0.00024 0.5925 0.7321 0.0
C2487 C -0.00032 0.60514 0.72154 0.0
H2488 H 0.38411 0.34604 0.70037 0.0
H2489 H 0.34672 0.35637 0.68386 0.0
H2490 H 0.36362 0.38395 0.69722 0.0
H2491 H 0.388 0.40432 0.71622 0.0
H2492 H 0.42363 0.39261 0.73814 0.0
H2493 H 0.40881 0.36673 0.71928 0.0
C2494 C 0.37983 0.35445 0.69938 0.0
C2495 C 0.36428 0.34929 0.6911 0.0
C2496 C 0.38931 0.37006 0.70807 0.0
C2497 C 0.35868 0.36014 0.69022 0.0
C2498 C 0.36831 0.37587 0.69787 0.0
C2499 C 0.39253 0.39612 0.71714 0.0
C2500 C 0.40694 0.40056 0.72891 0.0
C2501 C 0.38348 0.38084 0.70736 0.0
C2502 C 0.41276 0.38981 0.72904 0.0
C2503 C 0.40416 0.37484 0.71845 0.0
H2504 H 0.64034 0.01147 0.68147 0.0
H2505 H 0.65337 0.05797 0.70854 0.0
H2506 H 0.62773 0.04631 0.72926 0.0
H2507 H 0.60256 0.02264 0.74166 0.0
H2508 H 0.58853 0.97646 0.71198 0.0
H2509 H 0.61373 0.98828 0.69055 0.0
C2510 C 0.6375 0.01904 0.69181 0.0
C2511 C 0.64877 0.0355 0.69369 0.0
C2512 C 0.62265 0.01231 0.70337 0.0
C2513 C 0.64487 0.04525 0.70684 0.0
C2514 C 0.63025 0.03858 0.71875 0.0
C2515 C 0.60475 0.01516 0.73014 0.0
C2516 C 0.59364 -0.00144 0.72887 0.0
C2517 C 0.61914 0.02209 0.71737 0.0
C2518 C 0.59698 0.98916 0.71393 0.0
C2519 C 0.61137 0.99592 0.70148 0.0
loop_
_geom_bond_atom_site_label_1
_geom_bond_atom_site_label_2
_geom_bond_distance
_geom_bond_site_symmetry_2
_ccdc_geom_bond_type
C0 O1 1.306 1_556 S
C0 O3 1.160 . S
O1 C0 1.306 1_554 S
O1 Cd2 2.228 . S
Cd2 O1 2.228 . S
Cd2 O6 2.273 . S
Cd2 O10 2.277 1_554 S
O3 C0 1.160 . S
O3 Cd4 2.203 1_656 S
Cd4 O3 2.203 1_454 S
Cd4 O6 2.411 1_455 S
Cd4 O7 2.333 . S
Cd4 O8 2.352 . S
Cd4 O12 2.277 1_554 S
Cd4 O13 2.356 . S
C5 O10 1.209 1_455 S
C5 O12 1.226 . S
O6 Cd2 2.273 . S
O6 Cd4 2.411 1_655 S
O6 C9 1.320 1_655 S
O7 Cd4 2.333 . S
O7 C9 1.214 . S
O8 Cd4 2.352 . S
O8 C11 1.258 . S
C9 O6 1.320 1_455 S
C9 O7 1.214 . S
O10 Cd2 2.277 1_556 S
O10 C5 1.209 1_655 S
C11 O8 1.258 . S
C11 O13 1.282 . S
O12 Cd4 2.277 1_556 S
O12 C5 1.226 . S
O13 Cd4 2.356 . S
O13 C11 1.282 . S
C14 O15 1.306 . S
C14 O17 1.160 . S
O15 C14 1.306 . S
O15 Cd16 2.228 . S
Cd16 O15 2.228 . S
Cd16 O20 2.273 1_554 S
Cd16 O24 2.277 . S
O17 C14 1.160 . S
O17 Cd18 2.203 . S
Cd18 O17 2.203 . S
Cd18 O20 2.411 1_554 S
Cd18 O21 2.333 1_554 S
Cd18 O22 2.352 1_554 S
Cd18 O26 2.277 . S
Cd18 O27 2.356 . S
C19 O24 1.209 . S
C19 O26 1.226 . S
O20 Cd16 2.273 1_556 S
O20 Cd18 2.411 1_556 S
O20 C23 1.320 . S
O21 Cd18 2.333 1_556 S
O21 C23 1.214 . S
O22 Cd18 2.352 1_556 S
O22 C25 1.258 . S
C23 O20 1.320 . S
C23 O21 1.214 . S
O24 Cd16 2.277 . S
O24 C19 1.209 . S
C25 O22 1.258 . S
C25 O27 1.282 1_556 S
O26 Cd18 2.277 . S
O26 C19 1.226 . S
O27 Cd18 2.356 . S
O27 C25 1.282 1_554 S
C28 O29 1.306 . S
C28 O31 1.160 . S
O29 C28 1.306 . S
O29 Cd30 2.228 . S
Cd30 O29 2.228 . S
Cd30 O34 2.273 1_554 S
Cd30 O38 2.277 . S
O31 C28 1.160 . S
O31 Cd32 2.203 1_565 S
Cd32 O31 2.203 1_545 S
Cd32 O34 2.411 1_544 S
Cd32 O35 2.333 1_554 S
Cd32 O36 2.352 1_554 S
Cd32 O40 2.277 . S
Cd32 O41 2.356 . S
C33 O38 1.209 1_545 S
C33 O40 1.226 . S
O34 Cd30 2.273 1_556 S
O34 Cd32 2.411 1_566 S
O34 C37 1.320 1_565 S
O35 Cd32 2.333 1_556 S
O35 C37 1.214 . S
O36 Cd32 2.352 1_556 S
O36 C39 1.258 . S
C37 O34 1.320 1_545 S
C37 O35 1.214 . S
O38 Cd30 2.277 . S
O38 C33 1.209 1_565 S
C39 O36 1.258 . S
C39 O41 1.282 1_556 S
O40 Cd32 2.277 . S
O40 C33 1.226 . S
O41 Cd32 2.356 . S
O41 C39 1.282 1_554 S
C42 O43 1.306 1_556 S
C42 O45 1.160 . S
O43 C42 1.306 1_554 S
O43 Cd44 2.228 . S
Cd44 O43 2.228 . S
Cd44 O48 2.273 . S
Cd44 O52 2.277 1_554 S
O45 C42 1.160 . S
O45 Cd46 2.203 1_656 S
Cd46 O45 2.203 1_454 S
Cd46 O48 2.411 1_455 S
Cd46 O49 2.333 . S
Cd46 O50 2.352 . S
Cd46 O54 2.277 1_554 S
Cd46 O55 2.356 . S
C47 O52 1.209 1_455 S
C47 O54 1.226 . S
O48 Cd44 2.273 . S
O48 Cd46 2.411 1_655 S
O48 C51 1.320 1_655 S
O49 Cd46 2.333 . S
O49 C51 1.214 . S
O50 Cd46 2.352 . S
O50 C53 1.258 . S
C51 O48 1.320 1_455 S
C51 O49 1.214 . S
O52 Cd44 2.277 1_556 S
O52 C47 1.209 1_655 S
C53 O50 1.258 . S
C53 O55 1.282 . S
O54 Cd46 2.277 1_556 S
O54 C47 1.226 . S
O55 Cd46 2.356 . S
O55 C53 1.282 . S
C56 O57 1.306 . S
C56 O59 1.160 . S
O57 C56 1.306 . S
O57 Cd58 2.228 . S
Cd58 O57 2.228 . S
Cd58 O62 2.273 1_554 S
Cd58 O66 2.277 . S
O59 C56 1.160 . S
O59 Cd60 2.203 . S
Cd60 O59 2.203 . S
Cd60 O62 2.411 1_554 S
Cd60 O63 2.333 1_554 S
Cd60 O64 2.352 1_554 S
Cd60 O68 2.277 . S
Cd60 O69 2.356 . S
C61 O66 1.209 . S
C61 O68 1.226 . S
O62 Cd58 2.273 1_556 S
O62 Cd60 2.411 1_556 S
O62 C65 1.320 . S
O63 Cd60 2.333 1_556 S
O63 C65 1.214 . S
O64 Cd60 2.352 1_556 S
O64 C67 1.258 . S
C65 O62 1.320 . S
C65 O63 1.214 . S
O66 Cd58 2.277 . S
O66 C61 1.209 . S
C67 O64 1.258 . S
C67 O69 1.282 1_556 S
O68 Cd60 2.277 . S
O68 C61 1.226 . S
O69 Cd60 2.356 . S
O69 C67 1.282 1_554 S
C70 O71 1.306 1_556 S
C70 O73 1.160 . S
O71 C70 1.306 1_554 S
O71 Cd72 2.228 . S
Cd72 O71 2.228 . S
Cd72 O76 2.273 . S
Cd72 O80 2.277 1_554 S
O73 C70 1.160 . S
O73 Cd74 2.203 1_546 S
Cd74 O73 2.203 1_564 S
Cd74 O76 2.411 1_565 S
Cd74 O77 2.333 . S
Cd74 O78 2.352 . S
Cd74 O82 2.277 1_554 S
Cd74 O83 2.356 . S
C75 O80 1.194 1_565 S
C75 O82 1.247 . S
O76 Cd72 2.273 . S
O76 Cd74 2.411 1_545 S
O76 C79 1.333 . S
O77 Cd74 2.333 . S
O77 C79 1.187 1_565 S
O78 Cd74 2.352 . S
O78 C81 1.258 . S
C79 O76 1.333 . S
C79 O77 1.187 1_545 S
O80 Cd72 2.277 1_556 S
O80 C75 1.194 1_545 S
C81 O78 1.258 . S
C81 O83 1.282 . S
O82 Cd74 2.277 1_556 S
O82 C75 1.247 . S
O83 Cd74 2.356 . S
O83 C81 1.282 . S
C84 O85 1.306 . S
C84 O87 1.160 . S
O85 C84 1.306 . S
O85 Cd86 2.228 . S
Cd86 O85 2.228 . S
Cd86 O90 2.273 . S
Cd86 O94 2.277 . S
O87 C84 1.160 . S
O87 Cd88 2.203 . S
Cd88 O87 2.203 . S
Cd88 O90 2.411 . S
Cd88 O91 2.333 . S
Cd88 O92 2.352 . S
Cd88 O96 2.277 . S
Cd88 O97 2.356 . S
C89 O94 1.209 . S
C89 O96 1.226 . S
O90 Cd86 2.273 . S
O90 Cd88 2.411 . S
O90 C93 1.320 . S
O91 Cd88 2.333 . S
O91 C93 1.214 . S
O92 Cd88 2.352 . S
O92 C95 1.258 . S
C93 O90 1.320 . S
C93 O91 1.214 . S
O94 Cd86 2.277 . S
O94 C89 1.209 . S
C95 O92 1.258 . S
C95 O97 1.282 . S
O96 Cd88 2.277 . S
O96 C89 1.226 . S
O97 Cd88 2.356 . S
O97 C95 1.282 . S
C98 O99 1.306 1_545 S
C98 O101 1.160 1_545 S
O99 C98 1.306 1_565 S
O99 Cd100 2.228 . S
Cd100 O99 2.228 . S
Cd100 O104 2.273 . S
Cd100 O108 2.277 . S
O101 C98 1.160 1_565 S
O101 Cd102 2.203 . S
Cd102 O101 2.203 . S
Cd102 O104 2.411 . S
Cd102 O105 2.333 . S
Cd102 O106 2.352 . S
Cd102 O110 2.277 . S
Cd102 O111 2.356 . S
C103 O108 1.209 . S
C103 O110 1.226 . S
O104 Cd100 2.273 . S
O104 Cd102 2.411 . S
O104 C107 1.320 . S
O105 Cd102 2.333 . S
O105 C107 1.214 . S
O106 Cd102 2.352 . S
O106 C109 1.258 . S
C107 O104 1.320 . S
C107 O105 1.214 . S
O108 Cd100 2.277 . S
O108 C103 1.209 . S
C109 O106 1.258 . S
C109 O111 1.282 . S
O110 Cd102 2.277 . S
O110 C103 1.226 . S
O111 Cd102 2.356 . S
O111 C109 1.282 . S
C112 O113 1.306 . S
C112 O115 1.160 . S
O113 C112 1.306 . S
O113 Cd114 2.228 . S
Cd114 O113 2.228 . S
Cd114 O118 2.273 . S
Cd114 O122 2.277 . S
O115 C112 1.160 . S
O115 Cd116 2.203 . S
Cd116 O115 2.203 . S
Cd116 O118 2.411 . S
Cd116 O119 2.333 . S
Cd116 O120 2.352 . S
Cd116 O124 2.277 . S
Cd116 O125 2.356 . S
C117 O122 1.209 . S
C117 O124 1.226 . S
O118 Cd114 2.273 . S
O118 Cd116 2.411 . S
O118 C121 1.320 . S
O119 Cd116 2.333 . S
O119 C121 1.214 . S
O120 Cd116 2.352 . S
O120 C123 1.258 . S
C121 O118 1.320 . S
C121 O119 1.214 . S
O122 Cd114 2.277 . S
O122 C117 1.209 . S
C123 O120 1.258 . S
C123 O125 1.282 . S
O124 Cd116 2.277 . S
O124 C117 1.226 . S
O125 Cd116 2.356 . S
O125 C123 1.282 . S
C126 O127 1.306 . S
C126 O129 1.160 . S
O127 C126 1.306 . S
O127 Cd128 2.228 . S
Cd128 O127 2.228 . S
Cd128 O132 2.273 . S
Cd128 O136 2.277 . S
O129 C126 1.160 . S
O129 Cd130 2.203 . S
Cd130 O129 2.203 . S
Cd130 O132 2.411 . S
Cd130 O133 2.333 . S
Cd130 O134 2.352 . S
Cd130 O138 2.277 . S
Cd130 O139 2.356 1_565 S
C131 O136 1.209 . S
C131 O138 1.226 . S
O132 Cd128 2.273 . S
O132 Cd130 2.411 . S
O132 C135 1.320 . S
O133 Cd130 2.333 . S
O133 C135 1.214 . S
O134 Cd130 2.352 . S
O134 C137 1.258 1_565 S
C135 O132 1.320 . S
C135 O133 1.214 . S
O136 Cd128 2.277 . S
O136 C131 1.209 . S
C137 O134 1.258 1_545 S
C137 O139 1.282 . S
O138 Cd130 2.277 . S
O138 C131 1.226 . S
O139 Cd130 2.356 1_545 S
O139 C137 1.282 . S
C140 O141 1.310 1_655 S
C140 O143 1.139 1_655 S
O141 C140 1.310 1_455 S
O141 Cd142 2.228 . S
Cd142 O141 2.228 . S
Cd142 O146 2.273 . S
Cd142 O150 2.277 . S
O143 C140 1.139 1_455 S
O143 Cd144 2.203 . S
Cd144 O143 2.203 . S
Cd144 O146 2.411 . S
Cd144 O147 2.333 . S
Cd144 O148 2.352 . S
Cd144 O152 2.277 . S
Cd144 O153 2.356 . S
C145 O150 1.209 . S
C145 O152 1.226 . S
O146 Cd142 2.273 . S
O146 Cd144 2.411 . S
O146 C149 1.320 . S
O147 Cd144 2.333 . S
O147 C149 1.214 . S
O148 Cd144 2.352 . S
O148 C151 1.258 . S
C149 O146 1.320 . S
C149 O147 1.214 . S
O150 Cd142 2.277 . S
O150 C145 1.209 . S
C151 O148 1.258 . S
C151 O153 1.282 . S
O152 Cd144 2.277 . S
O152 C145 1.226 . S
O153 Cd144 2.356 . S
O153 C151 1.282 . S
C154 O155 1.306 . S
C154 O157 1.160 . S
O155 C154 1.306 . S
O155 Cd156 2.228 . S
Cd156 O155 2.228 . S
Cd156 O160 2.273 . S
Cd156 O164 2.277 . S
O157 C154 1.160 . S
O157 Cd158 2.203 . S
Cd158 O157 2.203 . S
Cd158 O160 2.411 . S
Cd158 O161 2.333 . S
Cd158 O162 2.352 . S
Cd158 O166 2.277 . S
Cd158 O167 2.356 . S
C159 O164 1.209 . S
C159 O166 1.226 . S
O160 Cd156 2.273 . S
O160 Cd158 2.411 . S
O160 C163 1.320 . S
O161 Cd158 2.333 . S
O161 C163 1.214 . S
O162 Cd158 2.352 . S
O162 C165 1.258 . S
C163 O160 1.320 . S
C163 O161 1.214 . S
O164 Cd156 2.277 . S
O164 C159 1.209 . S
C165 O162 1.258 . S
C165 O167 1.282 . S
O166 Cd158 2.277 . S
O166 C159 1.226 . S
O167 Cd158 2.356 . S
O167 C165 1.282 . S
C168 O169 1.254 1_565 S
C168 O171 1.163 1_565 S
O169 C168 1.254 1_545 S
O169 Cd170 2.228 . S
Cd170 O169 2.228 . S
Cd170 O174 2.273 . S
Cd170 O178 2.277 . S
O171 C168 1.163 1_545 S
O171 Cd172 2.203 . S
Cd172 O171 2.203 . S
Cd172 O174 2.411 . S
Cd172 O175 2.333 . S
Cd172 O176 2.352 . S
Cd172 O180 2.277 . S
Cd172 O181 2.356 . S
C173 O178 1.209 . S
C173 O180 1.226 . S
O174 Cd170 2.273 . S
O174 Cd172 2.411 . S
O174 C177 1.320 . S
O175 Cd172 2.333 . S
O175 C177 1.214 . S
O176 Cd172 2.352 . S
O176 C179 1.258 . S
C177 O174 1.320 . S
C177 O175 1.214 . S
O178 Cd170 2.277 . S
O178 C173 1.209 . S
C179 O176 1.258 . S
C179 O181 1.282 . S
O180 Cd172 2.277 . S
O180 C173 1.226 . S
O181 Cd172 2.356 . S
O181 C179 1.282 . S
C182 O183 1.306 . S
C182 O185 1.160 . S
O183 C182 1.306 . S
O183 Cd184 2.228 . S
Cd184 O183 2.228 . S
Cd184 O188 2.273 . S
Cd184 O192 2.277 . S
O185 C182 1.160 . S
O185 Cd186 2.203 . S
Cd186 O185 2.203 . S
Cd186 O188 2.411 . S
Cd186 O189 2.333 . S
Cd186 O190 2.352 1_655 S
Cd186 O194 2.277 . S
Cd186 O195 2.356 1_655 S
C187 O192 1.209 . S
C187 O194 1.226 . S
O188 Cd184 2.273 . S
O188 Cd186 2.411 . S
O188 C191 1.320 . S
O189 Cd186 2.333 . S
O189 C191 1.214 . S
O190 Cd186 2.352 1_455 S
O190 C193 1.258 . S
C191 O188 1.320 . S
C191 O189 1.214 . S
O192 Cd184 2.277 . S
O192 C187 1.209 . S
C193 O190 1.258 . S
C193 O195 1.282 . S
O194 Cd186 2.277 . S
O194 C187 1.226 . S
O195 Cd186 2.356 1_455 S
O195 C193 1.282 . S
C196 O197 1.306 . S
C196 O199 1.160 . S
O197 C196 1.306 . S
O197 Cd198 2.228 . S
Cd198 O197 2.228 . S
Cd198 O202 2.273 . S
Cd198 O206 2.277 . S
O199 C196 1.160 . S
O199 Cd200 2.203 . S
Cd200 O199 2.203 . S
Cd200 O202 2.411 . S
Cd200 O203 2.333 . S
Cd200 O204 2.352 . S
Cd200 O208 2.277 . S
Cd200 O209 2.356 . S
C201 O206 1.209 . S
C201 O208 1.226 . S
O202 Cd198 2.273 . S
O202 Cd200 2.411 . S
O202 C205 1.320 . S
O203 Cd200 2.333 . S
O203 C205 1.214 . S
O204 Cd200 2.352 . S
O204 C207 1.258 . S
C205 O202 1.320 . S
C205 O203 1.214 . S
O206 Cd198 2.277 . S
O206 C201 1.209 . S
C207 O204 1.258 . S
C207 O209 1.282 . S
O208 Cd200 2.277 . S
O208 C201 1.226 . S
O209 Cd200 2.356 . S
O209 C207 1.282 . S
C210 O211 1.306 . S
C210 O213 1.160 . S
O211 C210 1.306 . S
O211 Cd212 2.228 . S
Cd212 O211 2.228 . S
Cd212 O216 2.273 . S
Cd212 O220 2.277 . S
O213 C210 1.160 . S
O213 Cd214 2.203 . S
Cd214 O213 2.203 . S
Cd214 O216 2.411 . S
Cd214 O217 2.333 . S
Cd214 O218 2.352 . S
Cd214 O222 2.277 . S
Cd214 O223 2.356 . S
C215 O220 1.209 . S
C215 O222 1.226 . S
O216 Cd212 2.273 . S
O216 Cd214 2.411 . S
O216 C219 1.320 . S
O217 Cd214 2.333 . S
O217 C219 1.214 . S
O218 Cd214 2.352 . S
O218 C221 1.258 . S
C219 O216 1.320 . S
C219 O217 1.214 . S
O220 Cd212 2.277 . S
O220 C215 1.209 . S
C221 O218 1.258 . S
C221 O223 1.282 . S
O222 Cd214 2.277 . S
O222 C215 1.226 . S
O223 Cd214 2.356 . S
O223 C221 1.282 . S
C224 O225 1.306 . S
C224 O227 1.160 . S
O225 C224 1.306 . S
O225 Cd226 2.228 . S
Cd226 O225 2.228 . S
Cd226 O230 2.273 . S
Cd226 O234 2.277 . S
O227 C224 1.160 . S
O227 Cd228 2.203 . S
Cd228 O227 2.203 . S
Cd228 O230 2.411 . S
Cd228 O231 2.333 . S
Cd228 O232 2.352 . S
Cd228 O236 2.277 . S
Cd228 O237 2.356 . S
C229 O234 1.209 . S
C229 O236 1.226 . S
O230 Cd226 2.273 . S
O230 Cd228 2.411 . S
O230 C233 1.320 . S
O231 Cd228 2.333 . S
O231 C233 1.214 . S
O232 Cd228 2.352 . S
O232 C235 1.258 1_545 S
C233 O230 1.320 . S
C233 O231 1.214 . S
O234 Cd226 2.277 . S
O234 C229 1.209 . S
C235 O232 1.258 1_565 S
C235 O237 1.282 1_565 S
O236 Cd228 2.277 . S
O236 C229 1.226 . S
O237 Cd228 2.356 . S
O237 C235 1.282 1_545 S
C238 O239 1.306 1_455 S
C238 O241 1.160 1_455 S
O239 C238 1.306 1_655 S
O239 Cd240 2.228 . S
Cd240 O239 2.228 . S
Cd240 O244 2.273 . S
Cd240 O248 2.277 . S
O241 C238 1.160 1_655 S
O241 Cd242 2.203 . S
Cd242 O241 2.203 . S
Cd242 O244 2.411 . S
Cd242 O245 2.333 . S
Cd242 O246 2.352 . S
Cd242 O250 2.277 . S
Cd242 O251 2.356 . S
C243 O248 1.209 . S
C243 O250 1.226 . S
O244 Cd240 2.273 . S
O244 Cd242 2.411 . S
O244 C247 1.320 . S
O245 Cd242 2.333 . S
O245 C247 1.214 . S
O246 Cd242 2.352 . S
O246 C249 1.258 . S
C247 O244 1.320 . S
C247 O245 1.214 . S
O248 Cd240 2.277 . S
O248 C243 1.209 . S
C249 O246 1.258 . S
C249 O251 1.282 . S
O250 Cd242 2.277 . S
O250 C243 1.226 . S
O251 Cd242 2.356 . S
O251 C249 1.282 . S
H252 C279 0.929 . S
N253 C278 1.433 . S
N253 C284 1.435 . S
N253 C290 1.423 . S
H254 C280 0.930 . S
H255 C283 0.931 . S
H256 C282 0.929 . S
H257 C285 0.930 . S
H258 C286 0.932 . S
H259 C289 0.929 . S
H260 C288 0.931 . S
H261 C291 0.929 . S
H262 C295 0.932 . S
H263 C292 0.931 . S
H264 C294 0.929 . S
H265 C297 0.929 . S
H266 C298 0.930 . S
H267 C300 0.929 . S
H268 C301 0.931 . S
H269 C303 0.930 . S
H270 C304 0.932 . S
H271 C306 0.931 . S
H272 C307 0.929 . S
H273 C309 0.929 . S
H274 C310 0.931 . S
H275 C312 0.929 . S
N276 C296 1.433 . S
N276 C302 1.435 . S
N276 C308 1.423 . S
H277 C313 0.932 . S
C278 N253 1.433 . S
C278 C279 1.363 . S
C278 C283 1.370 . S
C279 H252 0.929 . S
C279 C278 1.363 . S
C279 C280 1.385 . S
C280 H254 0.930 . S
C280 C279 1.385 . S
C280 C281 1.357 . S
C281 C280 1.357 . S
C281 C282 1.406 . S
C282 H256 0.929 . S
C282 C281 1.406 . S
C282 C283 1.391 . S
C283 H255 0.931 . S
C283 C278 1.370 . S
C283 C282 1.391 . S
C284 N253 1.435 . S
C284 C285 1.358 . S
C284 C289 1.371 . S
C285 H257 0.930 . S
C285 C284 1.358 . S
C285 C286 1.405 . S
C286 H258 0.932 . S
C286 C285 1.405 . S
C286 C287 1.383 . S
C287 C286 1.383 . S
C287 C288 1.393 . S
C288 H260 0.931 . S
C288 C287 1.393 . S
C288 C289 1.382 . S
C289 H259 0.929 . S
C289 C284 1.371 . S
C289 C288 1.382 . S
C290 N253 1.423 . S
C290 C291 1.362 . S
C290 C295 1.388 . S
C291 H261 0.929 . S
C291 C290 1.362 . S
C291 C292 1.376 . S
C292 H263 0.931 . S
C292 C291 1.376 . S
C292 C293 1.396 . S
C293 C292 1.396 . S
C293 C294 1.348 . S
C293 C311 1.472 . S
C294 H264 0.929 . S
C294 C293 1.348 . S
C294 C295 1.443 . S
C295 H262 0.932 . S
C295 C290 1.388 . S
C295 C294 1.443 . S
C296 N276 1.433 . S
C296 C297 1.363 . S
C296 C301 1.370 . S
C297 H265 0.929 . S
C297 C296 1.363 . S
C297 C298 1.385 . S
C298 H266 0.930 . S
C298 C297 1.385 . S
C298 C299 1.357 . S
C299 C298 1.357 . S
C299 C300 1.406 . S
C300 H267 0.929 . S
C300 C299 1.406 . S
C300 C301 1.391 . S
C301 H268 0.931 . S
C301 C296 1.370 . S
C301 C300 1.391 . S
C302 N276 1.435 . S
C302 C303 1.358 . S
C302 C307 1.371 . S
C303 H269 0.930 . S
C303 C302 1.358 . S
C303 C304 1.405 . S
C304 H270 0.932 . S
C304 C303 1.405 . S
C304 C305 1.383 . S
C305 C304 1.383 . S
C305 C306 1.393 . S
C306 H271 0.931 . S
C306 C305 1.393 . S
C306 C307 1.382 . S
C307 H272 0.929 . S
C307 C302 1.371 . S
C307 C306 1.382 . S
C308 N276 1.423 . S
C308 C309 1.362 . S
C308 C313 1.388 . S
C309 H273 0.929 . S
C309 C308 1.362 . S
C309 C310 1.376 . S
C310 H274 0.931 . S
C310 C309 1.376 . S
C310 C311 1.396 . S
C311 C293 1.472 . S
C311 C310 1.396 . S
C311 C312 1.348 . S
C312 H275 0.929 . S
C312 C311 1.348 . S
C312 C313 1.443 . S
C313 H277 0.932 . S
C313 C308 1.388 . S
C313 C312 1.443 . S
H314 C341 0.929 . S
N315 C340 1.433 . S
N315 C346 1.435 . S
N315 C352 1.423 . S
H316 C342 0.930 . S
H317 C345 0.931 . S
H318 C344 0.929 . S
H319 C347 0.930 . S
H320 C348 0.932 . S
H321 C351 0.929 . S
H322 C350 0.931 . S
H323 C353 0.929 . S
H324 C357 0.932 . S
H325 C354 0.931 . S
H326 C356 0.929 . S
H327 C359 0.929 . S
H328 C360 0.930 . S
H329 C362 0.929 . S
H330 C363 0.931 . S
H331 C365 0.930 . S
H332 C366 0.932 . S
H333 C368 0.931 . S
H334 C369 0.929 . S
H335 C371 0.929 . S
H336 C372 0.931 . S
H337 C374 0.929 . S
N338 C358 1.433 . S
N338 C364 1.435 . S
N338 C370 1.423 . S
H339 C375 0.932 . S
C340 N315 1.433 . S
C340 C341 1.363 . S
C340 C345 1.370 . S
C341 H314 0.929 . S
C341 C340 1.363 . S
C341 C342 1.385 . S
C342 H316 0.930 . S
C342 C341 1.385 . S
C342 C343 1.357 . S
C343 C342 1.357 . S
C343 C344 1.406 . S
C344 H318 0.929 . S
C344 C343 1.406 . S
C344 C345 1.391 . S
C345 H317 0.931 . S
C345 C340 1.370 . S
C345 C344 1.391 . S
C346 N315 1.435 . S
C346 C347 1.358 . S
C346 C351 1.371 . S
C347 H319 0.930 . S
C347 C346 1.358 . S
C347 C348 1.405 . S
C348 H320 0.932 . S
C348 C347 1.405 . S
C348 C349 1.383 . S
C349 C348 1.383 . S
C349 C350 1.393 . S
C350 H322 0.931 . S
C350 C349 1.393 . S
C350 C351 1.382 . S
C351 H321 0.929 . S
C351 C346 1.371 . S
C351 C350 1.382 . S
C352 N315 1.423 . S
C352 C353 1.362 . S
C352 C357 1.388 . S
C353 H323 0.929 . S
C353 C352 1.362 . S
C353 C354 1.376 . S
C354 H325 0.931 . S
C354 C353 1.376 . S
C354 C355 1.396 . S
C355 C354 1.396 . S
C355 C356 1.348 . S
C355 C373 1.472 . S
C356 H326 0.929 . S
C356 C355 1.348 . S
C356 C357 1.443 . S
C357 H324 0.932 . S
C357 C352 1.388 . S
C357 C356 1.443 . S
C358 N338 1.433 . S
C358 C359 1.363 . S
C358 C363 1.370 . S
C359 H327 0.929 . S
C359 C358 1.363 . S
C359 C360 1.385 . S
C360 H328 0.930 . S
C360 C359 1.385 . S
C360 C361 1.357 . S
C361 C360 1.357 . S
C361 C362 1.406 . S
C362 H329 0.929 . S
C362 C361 1.406 . S
C362 C363 1.391 . S
C363 H330 0.931 . S
C363 C358 1.370 . S
C363 C362 1.391 . S
C364 N338 1.435 . S
C364 C365 1.358 . S
C364 C369 1.371 . S
C365 H331 0.930 . S
C365 C364 1.358 . S
C365 C366 1.405 . S
C366 H332 0.932 . S
C366 C365 1.405 . S
C366 C367 1.383 . S
C367 C366 1.383 . S
C367 C368 1.393 . S
C368 H333 0.931 . S
C368 C367 1.393 . S
C368 C369 1.382 . S
C369 H334 0.929 . S
C369 C364 1.371 . S
C369 C368 1.382 . S
C370 N338 1.423 . S
C370 C371 1.362 . S
C370 C375 1.388 . S
C371 H335 0.929 . S
C371 C370 1.362 . S
C371 C372 1.376 . S
C372 H336 0.931 . S
C372 C371 1.376 . S
C372 C373 1.396 . S
C373 C355 1.472 . S
C373 C372 1.396 . S
C373 C374 1.348 . S
C374 H337 0.929 . S
C374 C373 1.348 . S
C374 C375 1.443 . S
C375 H339 0.932 . S
C375 C370 1.388 . S
C375 C374 1.443 . S
H376 C403 0.929 . S
N377 C402 1.433 . S
N377 C408 1.435 . S
N377 C414 1.423 . S
H378 C404 0.930 . S
H379 C407 0.931 . S
H380 C406 0.929 . S
H381 C409 0.930 . S
H382 C410 0.932 . S
H383 C413 0.929 . S
H384 C412 0.931 . S
H385 C415 0.929 . S
H386 C419 0.932 . S
H387 C416 0.931 . S
H388 C418 0.929 . S
H389 C421 0.929 . S
H390 C422 0.930 . S
H391 C424 0.929 . S
H392 C425 0.931 . S
H393 C427 0.930 . S
H394 C428 0.932 . S
H395 C430 0.931 . S
H396 C431 0.929 . S
H397 C433 0.929 . S
H398 C434 0.931 . S
H399 C436 0.929 . S
N400 C420 1.433 . S
N400 C426 1.435 . S
N400 C432 1.423 . S
H401 C437 0.932 . S
C402 N377 1.433 . S
C402 C403 1.363 . S
C402 C407 1.370 . S
C403 H376 0.929 . S
C403 C402 1.363 . S
C403 C404 1.385 . S
C404 H378 0.930 . S
C404 C403 1.385 . S
C404 C405 1.357 . S
C405 C404 1.357 . S
C405 C406 1.406 . S
C406 H380 0.929 . S
C406 C405 1.406 . S
C406 C407 1.391 . S
C407 H379 0.931 . S
C407 C402 1.370 . S
C407 C406 1.391 . S
C408 N377 1.435 . S
C408 C409 1.358 . S
C408 C413 1.371 . S
C409 H381 0.930 . S
C409 C408 1.358 . S
C409 C410 1.405 . S
C410 H382 0.932 . S
C410 C409 1.405 . S
C410 C411 1.383 . S
C411 C410 1.383 . S
C411 C412 1.393 . S
C412 H384 0.931 . S
C412 C411 1.393 . S
C412 C413 1.382 . S
C413 H383 0.929 . S
C413 C408 1.371 . S
C413 C412 1.382 . S
C414 N377 1.423 . S
C414 C415 1.362 . S
C414 C419 1.388 . S
C415 H385 0.929 . S
C415 C414 1.362 . S
C415 C416 1.376 . S
C416 H387 0.931 . S
C416 C415 1.376 . S
C416 C417 1.396 . S
C417 C416 1.396 . S
C417 C418 1.348 . S
C417 C435 1.472 . S
C418 H388 0.929 . S
C418 C417 1.348 . S
C418 C419 1.443 . S
C419 H386 0.932 . S
C419 C414 1.388 . S
C419 C418 1.443 . S
C420 N400 1.433 . S
C420 C421 1.363 . S
C420 C425 1.370 . S
C421 H389 0.929 . S
C421 C420 1.363 . S
C421 C422 1.385 . S
C422 H390 0.930 . S
C422 C421 1.385 . S
C422 C423 1.357 . S
C423 C422 1.357 . S
C423 C424 1.406 . S
C424 H391 0.929 . S
C424 C423 1.406 . S
C424 C425 1.391 . S
C425 H392 0.931 . S
C425 C420 1.370 . S
C425 C424 1.391 . S
C426 N400 1.435 . S
C426 C427 1.358 . S
C426 C431 1.371 . S
C427 H393 0.930 . S
C427 C426 1.358 . S
C427 C428 1.405 . S
C428 H394 0.932 . S
C428 C427 1.405 . S
C428 C429 1.383 . S
C429 C428 1.383 . S
C429 C430 1.393 . S
C430 H395 0.931 . S
C430 C429 1.393 . S
C430 C431 1.382 . S
C431 H396 0.929 . S
C431 C426 1.371 . S
C431 C430 1.382 . S
C432 N400 1.423 . S
C432 C433 1.362 . S
C432 C437 1.388 . S
C433 H397 0.929 . S
C433 C432 1.362 . S
C433 C434 1.376 . S
C434 H398 0.931 . S
C434 C433 1.376 . S
C434 C435 1.396 . S
C435 C417 1.472 . S
C435 C434 1.396 . S
C435 C436 1.348 . S
C436 H399 0.929 . S
C436 C435 1.348 . S
C436 C437 1.443 . S
C437 H401 0.932 . S
C437 C432 1.388 . S
C437 C436 1.443 . S
H438 C465 0.929 . S
N439 C464 1.433 . S
N439 C470 1.435 . S
N439 C476 1.423 . S
H440 C466 0.930 . S
H441 C469 0.931 . S
H442 C468 0.929 . S
H443 C471 0.930 . S
H444 C472 0.932 . S
H445 C475 0.929 . S
H446 C474 0.931 . S
H447 C477 0.929 . S
H448 C481 0.932 . S
H449 C478 0.931 . S
H450 C480 0.929 . S
H451 C483 0.929 . S
H452 C484 0.930 . S
H453 C486 0.929 . S
H454 C487 0.931 . S
H455 C489 0.930 . S
H456 C490 0.932 . S
H457 C492 0.931 . S
H458 C493 0.929 . S
H459 C495 0.929 . S
H460 C496 0.931 . S
H461 C498 0.929 . S
N462 C482 1.433 . S
N462 C488 1.435 . S
N462 C494 1.423 . S
H463 C499 0.932 . S
C464 N439 1.433 . S
C464 C465 1.363 . S
C464 C469 1.370 . S
C465 H438 0.929 . S
C465 C464 1.363 . S
C465 C466 1.385 . S
C466 H440 0.930 . S
C466 C465 1.385 . S
C466 C467 1.357 . S
C467 C466 1.357 . S
C467 C468 1.406 . S
C468 H442 0.929 . S
C468 C467 1.406 . S
C468 C469 1.391 . S
C469 H441 0.931 . S
C469 C464 1.370 . S
C469 C468 1.391 . S
C470 N439 1.435 . S
C470 C471 1.358 . S
C470 C475 1.371 . S
C471 H443 0.930 . S
C471 C470 1.358 . S
C471 C472 1.405 . S
C472 H444 0.932 . S
C472 C471 1.405 . S
C472 C473 1.383 . S
C473 C472 1.383 . S
C473 C474 1.393 . S
C474 H446 0.931 . S
C474 C473 1.393 . S
C474 C475 1.382 . S
C475 H445 0.929 . S
C475 C470 1.371 . S
C475 C474 1.382 . S
C476 N439 1.423 . S
C476 C477 1.362 . S
C476 C481 1.388 . S
C477 H447 0.929 . S
C477 C476 1.362 . S
C477 C478 1.376 . S
C478 H449 0.931 . S
C478 C477 1.376 . S
C478 C479 1.396 . S
C479 C478 1.396 . S
C479 C480 1.348 . S
C479 C497 1.472 . S
C480 H450 0.929 . S
C480 C479 1.348 . S
C480 C481 1.443 . S
C481 H448 0.932 . S
C481 C476 1.388 . S
C481 C480 1.443 . S
C482 N462 1.433 . S
C482 C483 1.363 . S
C482 C487 1.370 . S
C483 H451 0.929 . S
C483 C482 1.363 . S
C483 C484 1.385 . S
C484 H452 0.930 . S
C484 C483 1.385 . S
C484 C485 1.357 . S
C485 C484 1.357 . S
C485 C486 1.406 . S
C486 H453 0.929 . S
C486 C485 1.406 . S
C486 C487 1.391 . S
C487 H454 0.931 . S
C487 C482 1.370 . S
C487 C486 1.391 . S
C488 N462 1.435 . S
C488 C489 1.358 . S
C488 C493 1.371 . S
C489 H455 0.930 . S
C489 C488 1.358 . S
C489 C490 1.405 . S
C490 H456 0.932 . S
C490 C489 1.405 . S
C490 C491 1.383 . S
C491 C490 1.383 . S
C491 C492 1.393 . S
C492 H457 0.931 . S
C492 C491 1.393 . S
C492 C493 1.382 . S
C493 H458 0.929 . S
C493 C488 1.371 . S
C493 C492 1.382 . S
C494 N462 1.423 . S
C494 C495 1.362 . S
C494 C499 1.388 . S
C495 H459 0.929 . S
C495 C494 1.362 . S
C495 C496 1.376 . S
C496 H460 0.931 . S
C496 C495 1.376 . S
C496 C497 1.396 . S
C497 C479 1.472 . S
C497 C496 1.396 . S
C497 C498 1.348 . S
C498 H461 0.929 . S
C498 C497 1.348 . S
C498 C499 1.443 . S
C499 H463 0.932 . S
C499 C494 1.388 . S
C499 C498 1.443 . S
H500 C527 0.929 . S
N501 C526 1.433 . S
N501 C532 1.435 . S
N501 C538 1.423 . S
H502 C528 0.930 . S
H503 C531 0.931 . S
H504 C530 0.929 . S
H505 C533 0.930 . S
H506 C534 0.932 . S
H507 C537 0.929 . S
H508 C536 0.931 . S
H509 C539 0.929 . S
H510 C543 0.932 . S
H511 C540 0.931 . S
H512 C542 0.929 . S
H513 C545 0.929 . S
H514 C546 0.930 . S
H515 C548 0.929 . S
H516 C549 0.931 . S
H517 C551 0.930 . S
H518 C552 0.932 . S
H519 C554 0.931 . S
H520 C555 0.929 . S
H521 C557 0.929 . S
H522 C558 0.931 . S
H523 C560 0.929 . S
N524 C544 1.433 . S
N524 C550 1.435 . S
N524 C556 1.423 . S
H525 C561 0.932 . S
C526 N501 1.433 . S
C526 C527 1.363 . S
C526 C531 1.370 . S
C527 H500 0.929 . S
C527 C526 1.363 . S
C527 C528 1.385 . S
C528 H502 0.930 . S
C528 C527 1.385 . S
C528 C529 1.357 . S
C529 C528 1.357 . S
C529 C530 1.406 . S
C530 H504 0.929 . S
C530 C529 1.406 . S
C530 C531 1.391 . S
C531 H503 0.931 . S
C531 C526 1.370 . S
C531 C530 1.391 . S
C532 N501 1.435 . S
C532 C533 1.358 . S
C532 C537 1.371 . S
C533 H505 0.930 . S
C533 C532 1.358 . S
C533 C534 1.405 . S
C534 H506 0.932 . S
C534 C533 1.405 . S
C534 C535 1.383 . S
C535 C534 1.383 . S
C535 C536 1.393 . S
C536 H508 0.931 . S
C536 C535 1.393 . S
C536 C537 1.382 . S
C537 H507 0.929 . S
C537 C532 1.371 . S
C537 C536 1.382 . S
C538 N501 1.423 . S
C538 C539 1.362 . S
C538 C543 1.388 . S
C539 H509 0.929 . S
C539 C538 1.362 . S
C539 C540 1.376 . S
C540 H511 0.931 . S
C540 C539 1.376 . S
C540 C541 1.396 . S
C541 C540 1.396 . S
C541 C542 1.348 . S
C541 C559 1.472 . S
C542 H512 0.929 . S
C542 C541 1.348 . S
C542 C543 1.443 . S
C543 H510 0.932 . S
C543 C538 1.388 . S
C543 C542 1.443 . S
C544 N524 1.433 . S
C544 C545 1.363 . S
C544 C549 1.370 . S
C545 H513 0.929 . S
C545 C544 1.363 . S
C545 C546 1.385 . S
C546 H514 0.930 . S
C546 C545 1.385 . S
C546 C547 1.357 . S
C547 C546 1.357 . S
C547 C548 1.406 . S
C548 H515 0.929 . S
C548 C547 1.406 . S
C548 C549 1.391 . S
C549 H516 0.931 . S
C549 C544 1.370 . S
C549 C548 1.391 . S
C550 N524 1.435 . S
C550 C551 1.358 . S
C550 C555 1.371 . S
C551 H517 0.930 . S
C551 C550 1.358 . S
C551 C552 1.405 . S
C552 H518 0.932 . S
C552 C551 1.405 . S
C552 C553 1.383 . S
C553 C552 1.383 . S
C553 C554 1.393 . S
C554 H519 0.931 . S
C554 C553 1.393 . S
C554 C555 1.382 . S
C555 H520 0.929 . S
C555 C550 1.371 . S
C555 C554 1.382 . S
C556 N524 1.423 . S
C556 C557 1.362 . S
C556 C561 1.388 . S
C557 H521 0.929 . S
C557 C556 1.362 . S
C557 C558 1.376 . S
C558 H522 0.931 . S
C558 C557 1.376 . S
C558 C559 1.396 . S
C559 C541 1.472 . S
C559 C558 1.396 . S
C559 C560 1.348 . S
C560 H523 0.929 . S
C560 C559 1.348 . S
C560 C561 1.443 . S
C561 H525 0.932 . S
C561 C556 1.388 . S
C561 C560 1.443 . S
H562 C589 0.929 . S
N563 C588 1.433 . S
N563 C594 1.435 . S
N563 C600 1.423 . S
H564 C590 0.930 . S
H565 C593 0.931 . S
H566 C592 0.929 . S
H567 C595 0.930 . S
H568 C596 0.932 . S
H569 C599 0.929 . S
H570 C598 0.931 . S
H571 C601 0.929 . S
H572 C605 0.932 . S
H573 C602 0.931 . S
H574 C604 0.929 . S
H575 C607 0.929 . S
H576 C608 0.930 . S
H577 C610 0.929 . S
H578 C611 0.931 . S
H579 C613 0.930 . S
H580 C614 0.932 . S
H581 C616 0.931 . S
H582 C617 0.929 . S
H583 C619 0.929 . S
H584 C620 0.931 . S
H585 C622 0.929 . S
N586 C606 1.433 . S
N586 C612 1.435 . S
N586 C618 1.423 . S
H587 C623 0.932 . S
C588 N563 1.433 . S
C588 C589 1.363 . S
C588 C593 1.370 . S
C589 H562 0.929 . S
C589 C588 1.363 . S
C589 C590 1.385 . S
C590 H564 0.930 . S
C590 C589 1.385 . S
C590 C591 1.357 . S
C591 C590 1.357 . S
C591 C592 1.406 . S
C592 H566 0.929 . S
C592 C591 1.406 . S
C592 C593 1.391 . S
C593 H565 0.931 . S
C593 C588 1.370 . S
C593 C592 1.391 . S
C594 N563 1.435 . S
C594 C595 1.358 . S
C594 C599 1.371 . S
C595 H567 0.930 . S
C595 C594 1.358 . S
C595 C596 1.405 . S
C596 H568 0.932 . S
C596 C595 1.405 . S
C596 C597 1.383 . S
C597 C596 1.383 . S
C597 C598 1.393 . S
C598 H570 0.931 . S
C598 C597 1.393 . S
C598 C599 1.382 . S
C599 H569 0.929 . S
C599 C594 1.371 . S
C599 C598 1.382 . S
C600 N563 1.423 . S
C600 C601 1.362 . S
C600 C605 1.388 . S
C601 H571 0.929 . S
C601 C600 1.362 . S
C601 C602 1.376 . S
C602 H573 0.931 . S
C602 C601 1.376 . S
C602 C603 1.396 . S
C603 C602 1.396 . S
C603 C604 1.348 . S
C603 C621 1.472 . S
C604 H574 0.929 . S
C604 C603 1.348 . S
C604 C605 1.443 . S
C605 H572 0.932 . S
C605 C600 1.388 . S
C605 C604 1.443 . S
C606 N586 1.433 . S
C606 C607 1.363 . S
C606 C611 1.370 . S
C607 H575 0.929 . S
C607 C606 1.363 . S
C607 C608 1.385 . S
C608 H576 0.930 . S
C608 C607 1.385 . S
C608 C609 1.357 . S
C609 C608 1.357 . S
C609 C610 1.406 . S
C610 H577 0.929 . S
C610 C609 1.406 . S
C610 C611 1.391 . S
C611 H578 0.931 . S
C611 C606 1.370 . S
C611 C610 1.391 . S
C612 N586 1.435 . S
C612 C613 1.358 . S
C612 C617 1.371 . S
C613 H579 0.930 . S
C613 C612 1.358 . S
C613 C614 1.405 . S
C614 H580 0.932 . S
C614 C613 1.405 . S
C614 C615 1.383 . S
C615 C614 1.383 . S
C615 C616 1.393 . S
C616 H581 0.931 . S
C616 C615 1.393 . S
C616 C617 1.382 . S
C617 H582 0.929 . S
C617 C612 1.371 . S
C617 C616 1.382 . S
C618 N586 1.423 . S
C618 C619 1.362 . S
C618 C623 1.388 . S
C619 H583 0.929 . S
C619 C618 1.362 . S
C619 C620 1.376 . S
C620 H584 0.931 . S
C620 C619 1.376 . S
C620 C621 1.396 . S
C621 C603 1.472 . S
C621 C620 1.396 . S
C621 C622 1.348 . S
C622 H585 0.929 . S
C622 C621 1.348 . S
C622 C623 1.443 . S
C623 H587 0.932 . S
C623 C618 1.388 . S
C623 C622 1.443 . S
H624 C651 0.929 . S
N625 C650 1.433 . S
N625 C656 1.435 . S
N625 C662 1.423 . S
H626 C652 0.930 . S
H627 C655 0.931 . S
H628 C654 0.929 . S
H629 C657 0.930 . S
H630 C658 0.932 . S
H631 C661 0.929 . S
H632 C660 0.931 . S
H633 C663 0.929 . S
H634 C667 0.932 . S
H635 C664 0.931 . S
H636 C666 0.929 . S
H637 C669 0.929 . S
H638 C670 0.930 . S
H639 C672 0.929 . S
H640 C673 0.931 . S
H641 C675 0.930 . S
H642 C676 0.932 . S
H643 C678 0.931 . S
H644 C679 0.929 . S
H645 C681 0.929 . S
H646 C682 0.931 . S
H647 C684 0.929 . S
N648 C668 1.433 . S
N648 C674 1.435 . S
N648 C680 1.423 . S
H649 C685 0.932 . S
C650 N625 1.433 . S
C650 C651 1.363 . S
C650 C655 1.370 . S
C651 H624 0.929 . S
C651 C650 1.363 . S
C651 C652 1.385 . S
C652 H626 0.930 . S
C652 C651 1.385 . S
C652 C653 1.357 . S
C653 C652 1.357 . S
C653 C654 1.406 . S
C654 H628 0.929 . S
C654 C653 1.406 . S
C654 C655 1.391 . S
C655 H627 0.931 . S
C655 C650 1.370 . S
C655 C654 1.391 . S
C656 N625 1.435 . S
C656 C657 1.358 . S
C656 C661 1.371 . S
C657 H629 0.930 . S
C657 C656 1.358 . S
C657 C658 1.405 . S
C658 H630 0.932 . S
C658 C657 1.405 . S
C658 C659 1.383 . S
C659 C658 1.383 . S
C659 C660 1.393 . S
C660 H632 0.931 . S
C660 C659 1.393 . S
C660 C661 1.382 . S
C661 H631 0.929 . S
C661 C656 1.371 . S
C661 C660 1.382 . S
C662 N625 1.423 . S
C662 C663 1.362 . S
C662 C667 1.388 . S
C663 H633 0.929 . S
C663 C662 1.362 . S
C663 C664 1.376 . S
C664 H635 0.931 . S
C664 C663 1.376 . S
C664 C665 1.396 . S
C665 C664 1.396 . S
C665 C666 1.348 . S
C665 C683 1.472 . S
C666 H636 0.929 . S
C666 C665 1.348 . S
C666 C667 1.443 . S
C667 H634 0.932 . S
C667 C662 1.388 . S
C667 C666 1.443 . S
C668 N648 1.433 . S
C668 C669 1.363 . S
C668 C673 1.370 . S
C669 H637 0.929 . S
C669 C668 1.363 . S
C669 C670 1.385 . S
C670 H638 0.930 . S
C670 C669 1.385 . S
C670 C671 1.357 . S
C671 C670 1.357 . S
C671 C672 1.406 . S
C672 H639 0.929 . S
C672 C671 1.406 . S
C672 C673 1.391 . S
C673 H640 0.931 . S
C673 C668 1.370 . S
C673 C672 1.391 . S
C674 N648 1.435 . S
C674 C675 1.358 . S
C674 C679 1.371 . S
C675 H641 0.930 . S
C675 C674 1.358 . S
C675 C676 1.405 . S
C676 H642 0.932 . S
C676 C675 1.405 . S
C676 C677 1.383 . S
C677 C676 1.383 . S
C677 C678 1.393 . S
C678 H643 0.931 . S
C678 C677 1.393 . S
C678 C679 1.382 . S
C679 H644 0.929 . S
C679 C674 1.371 . S
C679 C678 1.382 . S
C680 N648 1.423 . S
C680 C681 1.362 . S
C680 C685 1.388 . S
C681 H645 0.929 . S
C681 C680 1.362 . S
C681 C682 1.376 . S
C682 H646 0.931 . S
C682 C681 1.376 . S
C682 C683 1.396 . S
C683 C665 1.472 . S
C683 C682 1.396 . S
C683 C684 1.348 . S
C684 H647 0.929 . S
C684 C683 1.348 . S
C684 C685 1.443 . S
C685 H649 0.932 . S
C685 C680 1.388 . S
C685 C684 1.443 . S
H686 C713 0.929 . S
N687 C712 1.433 . S
N687 C718 1.435 . S
N687 C724 1.423 . S
H688 C714 0.930 . S
H689 C717 0.931 . S
H690 C716 0.929 . S
H691 C719 0.930 . S
H692 C720 0.932 . S
H693 C723 0.929 . S
H694 C722 0.931 . S
H695 C725 0.929 . S
H696 C729 0.932 . S
H697 C726 0.931 . S
H698 C728 0.929 . S
H699 C731 0.929 . S
H700 C732 0.930 . S
H701 C734 0.929 . S
H702 C735 0.931 . S
H703 C737 0.930 . S
H704 C738 0.932 . S
H705 C740 0.931 . S
H706 C741 0.929 . S
H707 C743 0.929 . S
H708 C744 0.931 . S
H709 C746 0.929 . S
N710 C730 1.433 . S
N710 C736 1.435 . S
N710 C742 1.423 . S
H711 C747 0.932 . S
C712 N687 1.433 . S
C712 C713 1.363 . S
C712 C717 1.370 . S
C713 H686 0.929 . S
C713 C712 1.363 . S
C713 C714 1.385 . S
C714 H688 0.930 . S
C714 C713 1.385 . S
C714 C715 1.357 . S
C715 C714 1.357 . S
C715 C716 1.406 . S
C716 H690 0.929 . S
C716 C715 1.406 . S
C716 C717 1.391 . S
C717 H689 0.931 . S
C717 C712 1.370 . S
C717 C716 1.391 . S
C718 N687 1.435 . S
C718 C719 1.358 . S
C718 C723 1.371 . S
C719 H691 0.930 . S
C719 C718 1.358 . S
C719 C720 1.405 . S
C720 H692 0.932 . S
C720 C719 1.405 . S
C720 C721 1.383 . S
C721 C720 1.383 . S
C721 C722 1.393 . S
C722 H694 0.931 . S
C722 C721 1.393 . S
C722 C723 1.382 . S
C723 H693 0.929 . S
C723 C718 1.371 . S
C723 C722 1.382 . S
C724 N687 1.423 . S
C724 C725 1.362 . S
C724 C729 1.388 . S
C725 H695 0.929 . S
C725 C724 1.362 . S
C725 C726 1.376 . S
C726 H697 0.931 . S
C726 C725 1.376 . S
C726 C727 1.396 . S
C727 C726 1.396 . S
C727 C728 1.348 . S
C727 C745 1.472 . S
C728 H698 0.929 . S
C728 C727 1.348 . S
C728 C729 1.443 . S
C729 H696 0.932 . S
C729 C724 1.388 . S
C729 C728 1.443 . S
C730 N710 1.433 . S
C730 C731 1.363 . S
C730 C735 1.370 . S
C731 H699 0.929 . S
C731 C730 1.363 . S
C731 C732 1.385 . S
C732 H700 0.930 . S
C732 C731 1.385 . S
C732 C733 1.357 . S
C733 C732 1.357 . S
C733 C734 1.406 . S
C734 H701 0.929 . S
C734 C733 1.406 . S
C734 C735 1.391 . S
C735 H702 0.931 . S
C735 C730 1.370 . S
C735 C734 1.391 . S
C736 N710 1.435 . S
C736 C737 1.358 . S
C736 C741 1.371 . S
C737 H703 0.930 . S
C737 C736 1.358 . S
C737 C738 1.405 . S
C738 H704 0.932 . S
C738 C737 1.405 . S
C738 C739 1.383 . S
C739 C738 1.383 . S
C739 C740 1.393 . S
C740 H705 0.931 . S
C740 C739 1.393 . S
C740 C741 1.382 . S
C741 H706 0.929 . S
C741 C736 1.371 . S
C741 C740 1.382 . S
C742 N710 1.423 . S
C742 C743 1.362 . S
C742 C747 1.388 . S
C743 H707 0.929 . S
C743 C742 1.362 . S
C743 C744 1.376 . S
C744 H708 0.931 . S
C744 C743 1.376 . S
C744 C745 1.396 . S
C745 C727 1.472 . S
C745 C744 1.396 . S
C745 C746 1.348 . S
C746 H709 0.929 . S
C746 C745 1.348 . S
C746 C747 1.443 . S
C747 H711 0.932 . S
C747 C742 1.388 . S
C747 C746 1.443 . S
H748 C775 0.929 . S
N749 C774 1.433 . S
N749 C780 1.435 . S
N749 C786 1.423 . S
H750 C776 0.930 . S
H751 C779 0.931 . S
H752 C778 0.929 . S
H753 C781 0.930 . S
H754 C782 0.932 . S
H755 C785 0.929 . S
H756 C784 0.931 . S
H757 C787 0.929 . S
H758 C791 0.932 . S
H759 C788 0.931 . S
H760 C790 0.929 . S
H761 C793 0.929 . S
H762 C794 0.930 . S
H763 C796 0.929 . S
H764 C797 0.931 . S
H765 C799 0.930 . S
H766 C800 0.932 . S
H767 C802 0.931 . S
H768 C803 0.929 . S
H769 C805 0.929 . S
H770 C806 0.931 . S
H771 C808 0.929 . S
N772 C792 1.433 . S
N772 C798 1.435 . S
N772 C804 1.423 . S
H773 C809 0.932 . S
C774 N749 1.433 . S
C774 C775 1.363 . S
C774 C779 1.370 . S
C775 H748 0.929 . S
C775 C774 1.363 . S
C775 C776 1.385 . S
C776 H750 0.930 . S
C776 C775 1.385 . S
C776 C777 1.357 . S
C777 C776 1.357 . S
C777 C778 1.406 . S
C778 H752 0.929 . S
C778 C777 1.406 . S
C778 C779 1.391 . S
C779 H751 0.931 . S
C779 C774 1.370 . S
C779 C778 1.391 . S
C780 N749 1.435 . S
C780 C781 1.358 . S
C780 C785 1.371 . S
C781 H753 0.930 . S
C781 C780 1.358 . S
C781 C782 1.405 . S
C782 H754 0.932 . S
C782 C781 1.405 . S
C782 C783 1.383 . S
C783 C782 1.383 . S
C783 C784 1.393 . S
C784 H756 0.931 . S
C784 C783 1.393 . S
C784 C785 1.382 . S
C785 H755 0.929 . S
C785 C780 1.371 . S
C785 C784 1.382 . S
C786 N749 1.423 . S
C786 C787 1.362 . S
C786 C791 1.388 . S
C787 H757 0.929 . S
C787 C786 1.362 . S
C787 C788 1.376 . S
C788 H759 0.931 . S
C788 C787 1.376 . S
C788 C789 1.396 . S
C789 C788 1.396 . S
C789 C790 1.348 . S
C789 C807 1.472 . S
C790 H760 0.929 . S
C790 C789 1.348 . S
C790 C791 1.443 . S
C791 H758 0.932 . S
C791 C786 1.388 . S
C791 C790 1.443 . S
C792 N772 1.433 . S
C792 C793 1.363 . S
C792 C797 1.370 . S
C793 H761 0.929 . S
C793 C792 1.363 . S
C793 C794 1.385 . S
C794 H762 0.930 . S
C794 C793 1.385 . S
C794 C795 1.357 . S
C795 C794 1.357 . S
C795 C796 1.406 . S
C796 H763 0.929 . S
C796 C795 1.406 . S
C796 C797 1.391 . S
C797 H764 0.931 . S
C797 C792 1.370 . S
C797 C796 1.391 . S
C798 N772 1.435 . S
C798 C799 1.358 . S
C798 C803 1.371 . S
C799 H765 0.930 . S
C799 C798 1.358 . S
C799 C800 1.405 . S
C800 H766 0.932 . S
C800 C799 1.405 . S
C800 C801 1.383 . S
C801 C800 1.383 . S
C801 C802 1.393 . S
C802 H767 0.931 . S
C802 C801 1.393 . S
C802 C803 1.382 . S
C803 H768 0.929 . S
C803 C798 1.371 . S
C803 C802 1.382 . S
C804 N772 1.423 . S
C804 C805 1.362 . S
C804 C809 1.388 . S
C805 H769 0.929 . S
C805 C804 1.362 . S
C805 C806 1.376 . S
C806 H770 0.931 . S
C806 C805 1.376 . S
C806 C807 1.396 . S
C807 C789 1.472 . S
C807 C806 1.396 . S
C807 C808 1.348 . S
C808 H771 0.929 . S
C808 C807 1.348 . S
C808 C809 1.443 . S
C809 H773 0.932 . S
C809 C804 1.388 . S
C809 C808 1.443 . S
H810 C837 0.929 . S
N811 C836 1.433 . S
N811 C842 1.435 . S
N811 C848 1.423 . S
H812 C838 0.930 . S
H813 C841 0.931 . S
H814 C840 0.929 . S
H815 C843 0.930 . S
H816 C844 0.932 . S
H817 C847 0.929 . S
H818 C846 0.931 . S
H819 C849 0.929 . S
H820 C853 0.932 1_655 S
H821 C850 0.931 . S
H822 C852 0.939 . S
H823 C855 0.929 . S
H824 C856 0.930 . S
H825 C858 0.929 . S
H826 C859 0.931 . S
H827 C861 0.930 . S
H828 C862 0.932 . S
H829 C864 0.931 . S
H830 C865 0.929 . S
H831 C867 0.929 . S
H832 C868 0.931 . S
H833 C870 0.929 . S
N834 C854 1.433 . S
N834 C860 1.435 . S
N834 C866 1.423 . S
H835 C871 0.932 1_655 S
C836 N811 1.433 . S
C836 C837 1.363 . S
C836 C841 1.370 1_455 S
C837 H810 0.929 . S
C837 C836 1.363 . S
C837 C838 1.385 . S
C838 H812 0.930 . S
C838 C837 1.385 . S
C838 C839 1.357 1_455 S
C839 C838 1.357 1_655 S
C839 C840 1.406 . S
C840 H814 0.929 . S
C840 C839 1.406 . S
C840 C841 1.391 . S
C841 H813 0.931 . S
C841 C836 1.370 1_655 S
C841 C840 1.391 . S
C842 N811 1.435 . S
C842 C843 1.358 1_455 S
C842 C847 1.371 . S
C843 H815 0.930 . S
C843 C842 1.358 1_655 S
C843 C844 1.405 . S
C844 H816 0.932 . S
C844 C843 1.405 . S
C844 C845 1.383 1_655 S
C845 C844 1.383 1_455 S
C845 C846 1.393 . S
C846 H818 0.931 . S
C846 C845 1.393 . S
C846 C847 1.382 . S
C847 H817 0.929 . S
C847 C842 1.371 . S
C847 C846 1.382 . S
C848 N811 1.423 . S
C848 C849 1.362 . S
C848 C853 1.388 . S
C849 H819 0.929 . S
C849 C848 1.362 . S
C849 C850 1.376 . S
C850 H821 0.931 . S
C850 C849 1.376 . S
C850 C851 1.396 . S
C851 C850 1.396 . S
C851 C852 1.348 . S
C851 C869 1.472 . S
C852 H822 0.939 . S
C852 C851 1.348 . S
C852 C853 1.443 . S
C853 H820 0.932 1_455 S
C853 C848 1.388 . S
C853 C852 1.443 . S
C854 N834 1.433 . S
C854 C855 1.363 . S
C854 C859 1.370 1_455 S
C855 H823 0.929 . S
C855 C854 1.363 . S
C855 C856 1.385 . S
C856 H824 0.930 . S
C856 C855 1.385 . S
C856 C857 1.357 1_455 S
C857 C856 1.357 1_655 S
C857 C858 1.406 . S
C858 H825 0.929 . S
C858 C857 1.406 . S
C858 C859 1.391 . S
C859 H826 0.931 . S
C859 C854 1.370 1_655 S
C859 C858 1.391 . S
C860 N834 1.435 . S
C860 C861 1.358 1_455 S
C860 C865 1.371 . S
C861 H827 0.930 . S
C861 C860 1.358 1_655 S
C861 C862 1.405 . S
C862 H828 0.932 . S
C862 C861 1.405 . S
C862 C863 1.383 1_655 S
C863 C862 1.383 1_455 S
C863 C864 1.393 . S
C864 H829 0.931 . S
C864 C863 1.393 . S
C864 C865 1.382 . S
C865 H830 0.929 . S
C865 C860 1.371 . S
C865 C864 1.382 . S
C866 N834 1.423 . S
C866 C867 1.362 . S
C866 C871 1.388 . S
C867 H831 0.929 . S
C867 C866 1.362 . S
C867 C868 1.376 . S
C868 H832 0.931 . S
C868 C867 1.376 . S
C868 C869 1.396 . S
C869 C851 1.472 . S
C869 C868 1.396 . S
C869 C870 1.348 . S
C870 H833 0.929 . S
C870 C869 1.348 . S
C870 C871 1.443 . S
C871 H835 0.932 1_455 S
C871 C866 1.388 . S
C871 C870 1.443 . S
H872 C899 0.929 . S
N873 C898 1.433 . S
N873 C904 1.435 . S
N873 C910 1.423 . S
H874 C900 0.930 . S
H875 C903 0.931 . S
H876 C902 0.929 . S
H877 C905 0.930 . S
H878 C906 0.932 . S
H879 C909 0.929 . S
H880 C908 0.931 . S
H881 C911 0.929 . S
H882 C915 0.932 . S
H883 C912 0.931 . S
H884 C914 0.929 . S
H885 C917 0.929 . S
H886 C918 0.930 . S
H887 C920 0.929 . S
H888 C921 0.931 . S
H889 C923 0.930 . S
H890 C924 0.932 . S
H891 C926 0.931 . S
H892 C927 0.929 . S
H893 C929 0.929 . S
H894 C930 0.931 . S
H895 C932 0.929 . S
N896 C916 1.433 . S
N896 C922 1.435 . S
N896 C928 1.423 . S
H897 C933 0.932 . S
C898 N873 1.433 . S
C898 C899 1.363 . S
C898 C903 1.370 . S
C899 H872 0.929 . S
C899 C898 1.363 . S
C899 C900 1.385 . S
C900 H874 0.930 . S
C900 C899 1.385 . S
C900 C901 1.357 . S
C901 C900 1.357 . S
C901 C902 1.406 . S
C902 H876 0.929 . S
C902 C901 1.406 . S
C902 C903 1.391 . S
C903 H875 0.931 . S
C903 C898 1.370 . S
C903 C902 1.391 . S
C904 N873 1.435 . S
C904 C905 1.358 . S
C904 C909 1.371 . S
C905 H877 0.930 . S
C905 C904 1.358 . S
C905 C906 1.405 . S
C906 H878 0.932 . S
C906 C905 1.405 . S
C906 C907 1.383 . S
C907 C906 1.383 . S
C907 C908 1.393 . S
C908 H880 0.931 . S
C908 C907 1.393 . S
C908 C909 1.382 . S
C909 H879 0.929 . S
C909 C904 1.371 . S
C909 C908 1.382 . S
C910 N873 1.423 . S
C910 C911 1.362 . S
C910 C915 1.388 . S
C911 H881 0.929 . S
C911 C910 1.362 . S
C911 C912 1.376 . S
C912 H883 0.931 . S
C912 C911 1.376 . S
C912 C913 1.396 . S
C913 C912 1.396 . S
C913 C914 1.348 . S
C913 C931 1.472 . S
C914 H884 0.929 . S
C914 C913 1.348 . S
C914 C915 1.443 . S
C915 H882 0.932 . S
C915 C910 1.388 . S
C915 C914 1.443 . S
C916 N896 1.433 . S
C916 C917 1.363 . S
C916 C921 1.370 . S
C917 H885 0.929 . S
C917 C916 1.363 . S
C917 C918 1.385 . S
C918 H886 0.930 . S
C918 C917 1.385 . S
C918 C919 1.357 . S
C919 C918 1.357 . S
C919 C920 1.406 . S
C920 H887 0.929 . S
C920 C919 1.406 . S
C920 C921 1.391 . S
C921 H888 0.931 . S
C921 C916 1.370 . S
C921 C920 1.391 . S
C922 N896 1.435 . S
C922 C923 1.358 . S
C922 C927 1.371 . S
C923 H889 0.930 . S
C923 C922 1.358 . S
C923 C924 1.405 . S
C924 H890 0.932 . S
C924 C923 1.405 . S
C924 C925 1.383 . S
C925 C924 1.383 . S
C925 C926 1.393 . S
C926 H891 0.931 . S
C926 C925 1.393 . S
C926 C927 1.382 . S
C927 H892 0.929 . S
C927 C922 1.371 . S
C927 C926 1.382 . S
C928 N896 1.423 . S
C928 C929 1.362 . S
C928 C933 1.388 . S
C929 H893 0.929 . S
C929 C928 1.362 . S
C929 C930 1.376 . S
C930 H894 0.931 . S
C930 C929 1.376 . S
C930 C931 1.396 . S
C931 C913 1.472 . S
C931 C930 1.396 . S
C931 C932 1.348 . S
C932 H895 0.929 . S
C932 C931 1.348 . S
C932 C933 1.443 . S
C933 H897 0.932 . S
C933 C928 1.388 . S
C933 C932 1.443 . S
H934 C961 0.929 . S
N935 C960 1.433 . S
N935 C966 1.435 . S
N935 C972 1.423 . S
H936 C962 0.930 . S
H937 C965 0.931 . S
H938 C964 0.929 . S
H939 C967 0.930 . S
H940 C968 0.932 . S
H941 C971 0.929 . S
H942 C970 0.931 . S
H943 C973 0.929 . S
H944 C977 0.932 1_545 S
H945 C974 0.931 . S
H946 C976 0.929 . S
H947 C979 0.929 . S
H948 C980 0.930 . S
H949 C982 0.929 . S
H950 C983 0.931 . S
H951 C985 0.930 . S
H952 C986 0.932 . S
H953 C988 0.931 . S
H954 C989 0.929 . S
H955 C991 0.929 . S
H956 C992 0.931 . S
H957 C994 0.939 . S
N958 C978 1.433 . S
N958 C984 1.435 . S
N958 C990 1.423 . S
H959 C995 0.932 1_545 S
C960 N935 1.433 . S
C960 C961 1.363 . S
C960 C965 1.370 1_565 S
C961 H934 0.929 . S
C961 C960 1.363 . S
C961 C962 1.385 . S
C962 H936 0.930 . S
C962 C961 1.385 . S
C962 C963 1.357 1_565 S
C963 C962 1.357 1_545 S
C963 C964 1.406 . S
C964 H938 0.929 . S
C964 C963 1.406 . S
C964 C965 1.391 . S
C965 H937 0.931 . S
C965 C960 1.370 1_545 S
C965 C964 1.391 . S
C966 N935 1.435 . S
C966 C967 1.358 1_565 S
C966 C971 1.371 . S
C967 H939 0.930 . S
C967 C966 1.358 1_545 S
C967 C968 1.405 . S
C968 H940 0.932 . S
C968 C967 1.405 . S
C968 C969 1.383 1_545 S
C969 C968 1.383 1_565 S
C969 C970 1.393 . S
C970 H942 0.931 . S
C970 C969 1.393 . S
C970 C971 1.382 . S
C971 H941 0.929 . S
C971 C966 1.371 . S
C971 C970 1.382 . S
C972 N935 1.423 . S
C972 C973 1.362 . S
C972 C977 1.388 . S
C973 H943 0.929 . S
C973 C972 1.362 . S
C973 C974 1.376 . S
C974 H945 0.931 . S
C974 C973 1.376 . S
C974 C975 1.396 . S
C975 C974 1.396 . S
C975 C976 1.348 . S
C975 C993 1.472 . S
C976 H946 0.929 . S
C976 C975 1.348 . S
C976 C977 1.443 . S
C977 H944 0.932 1_565 S
C977 C972 1.388 . S
C977 C976 1.443 . S
C978 N958 1.433 . S
C978 C979 1.363 . S
C978 C983 1.370 1_565 S
C979 H947 0.929 . S
C979 C978 1.363 . S
C979 C980 1.385 . S
C980 H948 0.930 . S
C980 C979 1.385 . S
C980 C981 1.357 1_565 S
C981 C980 1.357 1_545 S
C981 C982 1.406 . S
C982 H949 0.929 . S
C982 C981 1.406 . S
C982 C983 1.391 . S
C983 H950 0.931 . S
C983 C978 1.370 1_545 S
C983 C982 1.391 . S
C984 N958 1.435 . S
C984 C985 1.358 1_565 S
C984 C989 1.371 . S
C985 H951 0.930 . S
C985 C984 1.358 1_545 S
C985 C986 1.405 . S
C986 H952 0.932 . S
C986 C985 1.405 . S
C986 C987 1.383 1_545 S
C987 C986 1.383 1_565 S
C987 C988 1.393 . S
C988 H953 0.931 . S
C988 C987 1.393 . S
C988 C989 1.382 . S
C989 H954 0.929 . S
C989 C984 1.371 . S
C989 C988 1.382 . S
C990 N958 1.423 . S
C990 C991 1.362 . S
C990 C995 1.388 . S
C991 H955 0.929 . S
C991 C990 1.362 . S
C991 C992 1.376 . S
C992 H956 0.931 . S
C992 C991 1.376 . S
C992 C993 1.396 . S
C993 C975 1.472 . S
C993 C992 1.396 . S
C993 C994 1.348 . S
C994 H957 0.939 . S
C994 C993 1.348 . S
C994 C995 1.443 . S
C995 H959 0.932 1_565 S
C995 C990 1.388 . S
C995 C994 1.443 . S
H996 C1023 0.929 . S
N997 C1022 1.433 . S
N997 C1028 1.435 . S
N997 C1034 1.423 . S
H998 C1024 0.930 . S
H999 C1027 0.931 . S
H1000 C1026 0.929 . S
H1001 C1029 0.930 . S
H1002 C1030 0.932 . S
H1003 C1033 0.929 . S
H1004 C1032 0.931 . S
H1005 C1035 0.929 . S
H1006 C1039 0.932 . S
H1007 C1036 0.931 . S
H1008 C1038 0.918 1_545 S
H1009 C1041 0.929 . S
H1010 C1042 0.930 . S
H1011 C1044 0.929 . S
H1012 C1045 0.990 . S
H1013 C1047 0.930 . S
H1014 C1048 0.932 . S
H1015 C1050 0.931 . S
H1016 C1051 0.929 . S
H1017 C1053 0.929 . S
H1018 C1054 0.931 . S
H1019 C1056 0.880 1_545 S
N1020 C1040 1.433 . S
N1020 C1046 1.435 . S
N1020 C1052 1.423 . S
H1021 C1057 0.960 . S
C1022 N997 1.433 . S
C1022 C1023 1.363 . S
C1022 C1027 1.370 1_565 S
C1023 H996 0.929 . S
C1023 C1022 1.363 . S
C1023 C1024 1.385 . S
C1024 H998 0.930 . S
C1024 C1023 1.385 . S
C1024 C1025 1.357 . S
C1025 C1024 1.357 . S
C1025 C1026 1.406 1_565 S
C1026 H1000 0.929 . S
C1026 C1025 1.406 1_545 S
C1026 C1027 1.391 . S
C1027 H999 0.931 . S
C1027 C1022 1.370 1_545 S
C1027 C1026 1.391 . S
C1028 N997 1.435 . S
C1028 C1029 1.358 1_565 S
C1028 C1033 1.371 . S
C1029 H1001 0.930 . S
C1029 C1028 1.358 1_545 S
C1029 C1030 1.405 . S
C1030 H1002 0.932 . S
C1030 C1029 1.405 . S
C1030 C1031 1.383 . S
C1031 C1030 1.383 . S
C1031 C1032 1.393 1_545 S
C1032 H1004 0.931 . S
C1032 C1031 1.393 1_565 S
C1032 C1033 1.382 . S
C1033 H1003 0.929 . S
C1033 C1028 1.371 . S
C1033 C1032 1.382 . S
C1034 N997 1.423 . S
C1034 C1035 1.362 . S
C1034 C1039 1.388 1_565 S
C1035 H1005 0.929 . S
C1035 C1034 1.362 . S
C1035 C1036 1.376 . S
C1036 H1007 0.931 . S
C1036 C1035 1.376 . S
C1036 C1037 1.396 . S
C1037 C1036 1.396 . S
C1037 C1038 1.396 . S
C1037 C1055 1.472 . S
C1038 H1008 0.918 1_565 S
C1038 C1037 1.396 . S
C1038 C1039 1.408 1_565 S
C1039 H1006 0.932 . S
C1039 C1034 1.388 1_545 S
C1039 C1038 1.408 1_545 S
C1040 N1020 1.433 . S
C1040 C1041 1.363 . S
C1040 C1045 1.324 1_565 S
C1041 H1009 0.929 . S
C1041 C1040 1.363 . S
C1041 C1042 1.385 . S
C1042 H1010 0.930 . S
C1042 C1041 1.385 . S
C1042 C1043 1.357 . S
C1043 C1042 1.357 . S
C1043 C1044 1.406 1_565 S
C1044 H1011 0.929 . S
C1044 C1043 1.406 1_545 S
C1044 C1045 1.382 . S
C1045 H1012 0.990 . S
C1045 C1040 1.324 1_545 S
C1045 C1044 1.382 . S
C1046 N1020 1.435 . S
C1046 C1047 1.358 1_565 S
C1046 C1051 1.371 . S
C1047 H1013 0.930 . S
C1047 C1046 1.358 1_545 S
C1047 C1048 1.405 . S
C1048 H1014 0.932 . S
C1048 C1047 1.405 . S
C1048 C1049 1.383 . S
C1049 C1048 1.383 . S
C1049 C1050 1.393 1_545 S
C1050 H1015 0.931 . S
C1050 C1049 1.393 1_565 S
C1050 C1051 1.382 . S
C1051 H1016 0.929 . S
C1051 C1046 1.371 . S
C1051 C1050 1.382 . S
C1052 N1020 1.423 . S
C1052 C1053 1.362 . S
C1052 C1057 1.331 1_565 S
C1053 H1017 0.929 . S
C1053 C1052 1.362 . S
C1053 C1054 1.376 . S
C1054 H1018 0.931 . S
C1054 C1053 1.376 . S
C1054 C1055 1.396 . S
C1055 C1037 1.472 . S
C1055 C1054 1.396 . S
C1055 C1056 1.368 . S
C1056 H1019 0.880 1_565 S
C1056 C1055 1.368 . S
C1056 C1057 1.510 1_565 S
C1057 H1021 0.960 . S
C1057 C1052 1.331 1_545 S
C1057 C1056 1.510 1_545 S
H1058 C1085 0.929 . S
N1059 C1084 1.433 . S
N1059 C1090 1.435 . S
N1059 C1096 1.423 . S
H1060 C1086 0.930 . S
H1061 C1089 0.931 . S
H1062 C1088 0.929 . S
H1063 C1091 0.930 . S
H1064 C1092 0.932 . S
H1065 C1095 0.929 . S
H1066 C1094 0.931 . S
H1067 C1097 0.929 . S
H1068 C1101 0.932 1_455 S
H1069 C1098 0.931 . S
H1070 C1100 0.979 . S
H1071 C1103 0.929 . S
H1072 C1104 0.930 . S
H1073 C1106 0.929 . S
H1074 C1107 0.931 . S
H1075 C1109 0.930 . S
H1076 C1110 0.932 . S
H1077 C1112 0.931 . S
H1078 C1113 0.929 . S
H1079 C1115 0.929 . S
H1080 C1116 0.931 . S
H1081 C1118 0.939 . S
N1082 C1102 1.433 . S
N1082 C1108 1.435 . S
N1082 C1114 1.423 . S
H1083 C1119 0.932 1_455 S
C1084 N1059 1.433 . S
C1084 C1085 1.363 . S
C1084 C1089 1.370 1_655 S
C1085 H1058 0.929 . S
C1085 C1084 1.363 . S
C1085 C1086 1.385 . S
C1086 H1060 0.930 . S
C1086 C1085 1.385 . S
C1086 C1087 1.357 1_655 S
C1087 C1086 1.357 1_455 S
C1087 C1088 1.406 . S
C1088 H1062 0.929 . S
C1088 C1087 1.406 . S
C1088 C1089 1.391 . S
C1089 H1061 0.931 . S
C1089 C1084 1.370 1_455 S
C1089 C1088 1.391 . S
C1090 N1059 1.435 . S
C1090 C1091 1.358 1_655 S
C1090 C1095 1.371 . S
C1091 H1063 0.930 . S
C1091 C1090 1.358 1_455 S
C1091 C1092 1.405 . S
C1092 H1064 0.932 . S
C1092 C1091 1.405 . S
C1092 C1093 1.383 1_455 S
C1093 C1092 1.383 1_655 S
C1093 C1094 1.393 . S
C1094 H1066 0.931 . S
C1094 C1093 1.393 . S
C1094 C1095 1.382 . S
C1095 H1065 0.929 . S
C1095 C1090 1.371 . S
C1095 C1094 1.382 . S
C1096 N1059 1.423 . S
C1096 C1097 1.362 . S
C1096 C1101 1.388 . S
C1097 H1067 0.929 . S
C1097 C1096 1.362 . S
C1097 C1098 1.376 . S
C1098 H1069 0.931 . S
C1098 C1097 1.376 . S
C1098 C1099 1.396 . S
C1099 C1098 1.396 . S
C1099 C1100 1.348 . S
C1099 C1117 1.472 . S
C1100 H1070 0.979 . S
C1100 C1099 1.348 . S
C1100 C1101 1.443 . S
C1101 H1068 0.932 1_655 S
C1101 C1096 1.388 . S
C1101 C1100 1.443 . S
C1102 N1082 1.433 . S
C1102 C1103 1.363 . S
C1102 C1107 1.370 1_655 S
C1103 H1071 0.929 . S
C1103 C1102 1.363 . S
C1103 C1104 1.385 . S
C1104 H1072 0.930 . S
C1104 C1103 1.385 . S
C1104 C1105 1.357 1_655 S
C1105 C1104 1.357 1_455 S
C1105 C1106 1.406 . S
C1106 H1073 0.929 . S
C1106 C1105 1.406 . S
C1106 C1107 1.391 . S
C1107 H1074 0.931 . S
C1107 C1102 1.370 1_455 S
C1107 C1106 1.391 . S
C1108 N1082 1.435 . S
C1108 C1109 1.358 1_655 S
C1108 C1113 1.371 . S
C1109 H1075 0.930 . S
C1109 C1108 1.358 1_455 S
C1109 C1110 1.405 . S
C1110 H1076 0.932 . S
C1110 C1109 1.405 . S
C1110 C1111 1.383 1_455 S
C1111 C1110 1.383 1_655 S
C1111 C1112 1.393 . S
C1112 H1077 0.931 . S
C1112 C1111 1.393 . S
C1112 C1113 1.382 . S
C1113 H1078 0.929 . S
C1113 C1108 1.371 . S
C1113 C1112 1.382 . S
C1114 N1082 1.423 . S
C1114 C1115 1.362 . S
C1114 C1119 1.388 . S
C1115 H1079 0.929 . S
C1115 C1114 1.362 . S
C1115 C1116 1.376 . S
C1116 H1080 0.931 . S
C1116 C1115 1.376 . S
C1116 C1117 1.396 . S
C1117 C1099 1.472 . S
C1117 C1116 1.396 . S
C1117 C1118 1.348 . S
C1118 H1081 0.939 . S
C1118 C1117 1.348 . S
C1118 C1119 1.443 . S
C1119 H1083 0.932 1_655 S
C1119 C1114 1.388 . S
C1119 C1118 1.443 . S
H1120 C1147 0.929 . S
N1121 C1146 1.433 . S
N1121 C1152 1.435 . S
N1121 C1158 1.423 . S
H1122 C1148 0.930 . S
H1123 C1151 0.931 . S
H1124 C1150 0.929 . S
H1125 C1153 0.930 . S
H1126 C1154 0.932 . S
H1127 C1157 0.929 . S
H1128 C1156 0.931 . S
H1129 C1159 0.929 . S
H1130 C1163 0.932 . S
H1131 C1160 0.931 . S
H1132 C1162 0.929 . S
H1133 C1165 0.929 . S
H1134 C1166 0.930 . S
H1135 C1168 0.929 . S
H1136 C1169 0.931 . S
H1137 C1171 0.930 . S
H1138 C1172 0.932 . S
H1139 C1174 0.931 . S
H1140 C1175 0.929 . S
H1141 C1177 0.929 . S
H1142 C1178 0.931 . S
H1143 C1180 0.929 . S
N1144 C1164 1.433 . S
N1144 C1170 1.435 . S
N1144 C1176 1.423 . S
H1145 C1181 0.932 . S
C1146 N1121 1.433 . S
C1146 C1147 1.363 . S
C1146 C1151 1.370 . S
C1147 H1120 0.929 . S
C1147 C1146 1.363 . S
C1147 C1148 1.385 . S
C1148 H1122 0.930 . S
C1148 C1147 1.385 . S
C1148 C1149 1.357 . S
C1149 C1148 1.357 . S
C1149 C1150 1.406 . S
C1150 H1124 0.929 . S
C1150 C1149 1.406 . S
C1150 C1151 1.391 . S
C1151 H1123 0.931 . S
C1151 C1146 1.370 . S
C1151 C1150 1.391 . S
C1152 N1121 1.435 . S
C1152 C1153 1.358 . S
C1152 C1157 1.371 . S
C1153 H1125 0.930 . S
C1153 C1152 1.358 . S
C1153 C1154 1.405 . S
C1154 H1126 0.932 . S
C1154 C1153 1.405 . S
C1154 C1155 1.383 . S
C1155 C1154 1.383 . S
C1155 C1156 1.393 . S
C1156 H1128 0.931 . S
C1156 C1155 1.393 . S
C1156 C1157 1.382 . S
C1157 H1127 0.929 . S
C1157 C1152 1.371 . S
C1157 C1156 1.382 . S
C1158 N1121 1.423 . S
C1158 C1159 1.362 . S
C1158 C1163 1.388 . S
C1159 H1129 0.929 . S
C1159 C1158 1.362 . S
C1159 C1160 1.376 . S
C1160 H1131 0.931 . S
C1160 C1159 1.376 . S
C1160 C1161 1.396 . S
C1161 C1160 1.396 . S
C1161 C1162 1.348 . S
C1161 C1179 1.472 . S
C1162 H1132 0.929 . S
C1162 C1161 1.348 . S
C1162 C1163 1.443 . S
C1163 H1130 0.932 . S
C1163 C1158 1.388 . S
C1163 C1162 1.443 . S
C1164 N1144 1.433 . S
C1164 C1165 1.363 . S
C1164 C1169 1.370 . S
C1165 H1133 0.929 . S
C1165 C1164 1.363 . S
C1165 C1166 1.385 . S
C1166 H1134 0.930 . S
C1166 C1165 1.385 . S
C1166 C1167 1.357 . S
C1167 C1166 1.357 . S
C1167 C1168 1.406 . S
C1168 H1135 0.929 . S
C1168 C1167 1.406 . S
C1168 C1169 1.391 . S
C1169 H1136 0.931 . S
C1169 C1164 1.370 . S
C1169 C1168 1.391 . S
C1170 N1144 1.435 . S
C1170 C1171 1.358 . S
C1170 C1175 1.371 . S
C1171 H1137 0.930 . S
C1171 C1170 1.358 . S
C1171 C1172 1.405 . S
C1172 H1138 0.932 . S
C1172 C1171 1.405 . S
C1172 C1173 1.383 . S
C1173 C1172 1.383 . S
C1173 C1174 1.393 . S
C1174 H1139 0.931 . S
C1174 C1173 1.393 . S
C1174 C1175 1.382 . S
C1175 H1140 0.929 . S
C1175 C1170 1.371 . S
C1175 C1174 1.382 . S
C1176 N1144 1.423 . S
C1176 C1177 1.362 . S
C1176 C1181 1.388 . S
C1177 H1141 0.929 . S
C1177 C1176 1.362 . S
C1177 C1178 1.376 . S
C1178 H1142 0.931 . S
C1178 C1177 1.376 . S
C1178 C1179 1.396 . S
C1179 C1161 1.472 . S
C1179 C1178 1.396 . S
C1179 C1180 1.348 . S
C1180 H1143 0.929 . S
C1180 C1179 1.348 . S
C1180 C1181 1.443 . S
C1181 H1145 0.932 . S
C1181 C1176 1.388 . S
C1181 C1180 1.443 . S
H1182 C1209 0.929 . S
N1183 C1208 1.433 . S
N1183 C1214 1.435 . S
N1183 C1220 1.423 . S
H1184 C1210 0.930 . S
H1185 C1213 0.931 . S
H1186 C1212 0.929 . S
H1187 C1215 0.930 . S
H1188 C1216 0.932 . S
H1189 C1219 0.929 . S
H1190 C1218 0.931 . S
H1191 C1221 0.929 . S
H1192 C1225 0.932 . S
H1193 C1222 0.931 . S
H1194 C1224 0.929 . S
H1195 C1227 0.929 . S
H1196 C1228 0.930 . S
H1197 C1230 0.929 . S
H1198 C1231 0.931 . S
H1199 C1233 0.930 . S
H1200 C1234 0.932 . S
H1201 C1236 0.931 . S
H1202 C1237 0.929 . S
H1203 C1239 0.929 . S
H1204 C1240 0.931 . S
H1205 C1242 0.929 . S
N1206 C1226 1.433 . S
N1206 C1232 1.435 . S
N1206 C1238 1.423 . S
H1207 C1243 0.932 . S
C1208 N1183 1.433 . S
C1208 C1209 1.363 . S
C1208 C1213 1.370 . S
C1209 H1182 0.929 . S
C1209 C1208 1.363 . S
C1209 C1210 1.385 . S
C1210 H1184 0.930 . S
C1210 C1209 1.385 . S
C1210 C1211 1.357 . S
C1211 C1210 1.357 . S
C1211 C1212 1.406 . S
C1212 H1186 0.929 . S
C1212 C1211 1.406 . S
C1212 C1213 1.391 . S
C1213 H1185 0.931 . S
C1213 C1208 1.370 . S
C1213 C1212 1.391 . S
C1214 N1183 1.435 . S
C1214 C1215 1.358 . S
C1214 C1219 1.371 . S
C1215 H1187 0.930 . S
C1215 C1214 1.358 . S
C1215 C1216 1.405 . S
C1216 H1188 0.932 . S
C1216 C1215 1.405 . S
C1216 C1217 1.383 . S
C1217 C1216 1.383 . S
C1217 C1218 1.393 . S
C1218 H1190 0.931 . S
C1218 C1217 1.393 . S
C1218 C1219 1.382 . S
C1219 H1189 0.929 . S
C1219 C1214 1.371 . S
C1219 C1218 1.382 . S
C1220 N1183 1.423 . S
C1220 C1221 1.362 . S
C1220 C1225 1.388 . S
C1221 H1191 0.929 . S
C1221 C1220 1.362 . S
C1221 C1222 1.376 . S
C1222 H1193 0.931 . S
C1222 C1221 1.376 . S
C1222 C1223 1.396 . S
C1223 C1222 1.396 . S
C1223 C1224 1.348 . S
C1223 C1241 1.472 . S
C1224 H1194 0.929 . S
C1224 C1223 1.348 . S
C1224 C1225 1.443 . S
C1225 H1192 0.932 . S
C1225 C1220 1.388 . S
C1225 C1224 1.443 . S
C1226 N1206 1.433 . S
C1226 C1227 1.363 . S
C1226 C1231 1.370 . S
C1227 H1195 0.929 . S
C1227 C1226 1.363 . S
C1227 C1228 1.385 . S
C1228 H1196 0.930 . S
C1228 C1227 1.385 . S
C1228 C1229 1.357 . S
C1229 C1228 1.357 . S
C1229 C1230 1.406 . S
C1230 H1197 0.929 . S
C1230 C1229 1.406 . S
C1230 C1231 1.391 . S
C1231 H1198 0.931 . S
C1231 C1226 1.370 . S
C1231 C1230 1.391 . S
C1232 N1206 1.435 . S
C1232 C1233 1.358 . S
C1232 C1237 1.371 . S
C1233 H1199 0.930 . S
C1233 C1232 1.358 . S
C1233 C1234 1.405 . S
C1234 H1200 0.932 . S
C1234 C1233 1.405 . S
C1234 C1235 1.383 . S
C1235 C1234 1.383 . S
C1235 C1236 1.393 . S
C1236 H1201 0.931 . S
C1236 C1235 1.393 . S
C1236 C1237 1.382 . S
C1237 H1202 0.929 . S
C1237 C1232 1.371 . S
C1237 C1236 1.382 . S
C1238 N1206 1.423 . S
C1238 C1239 1.362 . S
C1238 C1243 1.388 . S
C1239 H1203 0.929 . S
C1239 C1238 1.362 . S
C1239 C1240 1.376 . S
C1240 H1204 0.931 . S
C1240 C1239 1.376 . S
C1240 C1241 1.396 . S
C1241 C1223 1.472 . S
C1241 C1240 1.396 . S
C1241 C1242 1.348 . S
C1242 H1205 0.929 . S
C1242 C1241 1.348 . S
C1242 C1243 1.443 . S
C1243 H1207 0.932 . S
C1243 C1238 1.388 . S
C1243 C1242 1.443 . S
H1244 C1271 0.929 . S
N1245 C1270 1.433 . S
N1245 C1276 1.435 . S
N1245 C1282 1.423 . S
H1246 C1272 0.930 . S
H1247 C1275 0.931 . S
H1248 C1274 0.929 . S
H1249 C1277 0.930 . S
H1250 C1278 0.932 . S
H1251 C1281 0.929 . S
H1252 C1280 0.931 . S
H1253 C1283 0.929 . S
H1254 C1287 0.932 . S
H1255 C1284 0.931 . S
H1256 C1286 0.929 . S
H1257 C1289 0.929 . S
H1258 C1290 0.930 . S
H1259 C1292 0.929 . S
H1260 C1293 0.931 . S
H1261 C1295 0.930 . S
H1262 C1296 0.932 . S
H1263 C1298 0.931 . S
H1264 C1299 0.929 . S
H1265 C1301 0.929 . S
H1266 C1302 0.931 . S
H1267 C1304 0.929 . S
N1268 C1288 1.433 . S
N1268 C1294 1.435 . S
N1268 C1300 1.423 . S
H1269 C1305 0.932 . S
C1270 N1245 1.433 . S
C1270 C1271 1.363 . S
C1270 C1275 1.370 . S
C1271 H1244 0.929 . S
C1271 C1270 1.363 . S
C1271 C1272 1.385 . S
C1272 H1246 0.930 . S
C1272 C1271 1.385 . S
C1272 C1273 1.357 . S
C1273 C1272 1.357 . S
C1273 C1274 1.406 . S
C1274 H1248 0.929 . S
C1274 C1273 1.406 . S
C1274 C1275 1.391 . S
C1275 H1247 0.931 . S
C1275 C1270 1.370 . S
C1275 C1274 1.391 . S
C1276 N1245 1.435 . S
C1276 C1277 1.358 . S
C1276 C1281 1.371 . S
C1277 H1249 0.930 . S
C1277 C1276 1.358 . S
C1277 C1278 1.405 . S
C1278 H1250 0.932 . S
C1278 C1277 1.405 . S
C1278 C1279 1.383 . S
C1279 C1278 1.383 . S
C1279 C1280 1.393 . S
C1280 H1252 0.931 . S
C1280 C1279 1.393 . S
C1280 C1281 1.382 . S
C1281 H1251 0.929 . S
C1281 C1276 1.371 . S
C1281 C1280 1.382 . S
C1282 N1245 1.423 . S
C1282 C1283 1.362 . S
C1282 C1287 1.388 . S
C1283 H1253 0.929 . S
C1283 C1282 1.362 . S
C1283 C1284 1.376 . S
C1284 H1255 0.931 . S
C1284 C1283 1.376 . S
C1284 C1285 1.396 . S
C1285 C1284 1.396 . S
C1285 C1286 1.348 . S
C1285 C1303 1.472 . S
C1286 H1256 0.929 . S
C1286 C1285 1.348 . S
C1286 C1287 1.443 . S
C1287 H1254 0.932 . S
C1287 C1282 1.388 . S
C1287 C1286 1.443 . S
C1288 N1268 1.433 . S
C1288 C1289 1.363 . S
C1288 C1293 1.370 . S
C1289 H1257 0.929 . S
C1289 C1288 1.363 . S
C1289 C1290 1.385 . S
C1290 H1258 0.930 . S
C1290 C1289 1.385 . S
C1290 C1291 1.357 . S
C1291 C1290 1.357 . S
C1291 C1292 1.406 . S
C1292 H1259 0.929 . S
C1292 C1291 1.406 . S
C1292 C1293 1.391 . S
C1293 H1260 0.931 . S
C1293 C1288 1.370 . S
C1293 C1292 1.391 . S
C1294 N1268 1.435 . S
C1294 C1295 1.358 . S
C1294 C1299 1.371 . S
C1295 H1261 0.930 . S
C1295 C1294 1.358 . S
C1295 C1296 1.405 . S
C1296 H1262 0.932 . S
C1296 C1295 1.405 . S
C1296 C1297 1.383 . S
C1297 C1296 1.383 . S
C1297 C1298 1.393 . S
C1298 H1263 0.931 . S
C1298 C1297 1.393 . S
C1298 C1299 1.382 . S
C1299 H1264 0.929 . S
C1299 C1294 1.371 . S
C1299 C1298 1.382 . S
C1300 N1268 1.423 . S
C1300 C1301 1.362 . S
C1300 C1305 1.388 . S
C1301 H1265 0.929 . S
C1301 C1300 1.362 . S
C1301 C1302 1.376 . S
C1302 H1266 0.931 . S
C1302 C1301 1.376 . S
C1302 C1303 1.396 . S
C1303 C1285 1.472 . S
C1303 C1302 1.396 . S
C1303 C1304 1.348 . S
C1304 H1267 0.929 . S
C1304 C1303 1.348 . S
C1304 C1305 1.443 . S
C1305 H1269 0.932 . S
C1305 C1300 1.388 . S
C1305 C1304 1.443 . S
H1306 C1333 0.929 . S
N1307 C1332 1.433 . S
N1307 C1338 1.435 . S
N1307 C1344 1.423 . S
H1308 C1334 0.930 . S
H1309 C1337 0.931 . S
H1310 C1336 0.929 . S
H1311 C1339 0.930 . S
H1312 C1340 0.932 . S
H1313 C1343 0.929 . S
H1314 C1342 0.931 . S
H1315 C1345 0.929 . S
H1316 C1349 0.932 . S
H1317 C1346 0.931 . S
H1318 C1348 0.929 . S
H1319 C1351 0.929 . S
H1320 C1352 0.930 . S
H1321 C1354 0.929 . S
H1322 C1355 0.931 . S
H1323 C1357 0.930 . S
H1324 C1358 0.932 . S
H1325 C1360 0.931 . S
H1326 C1361 0.929 . S
H1327 C1363 0.929 . S
H1328 C1364 0.931 . S
H1329 C1366 0.929 . S
N1330 C1350 1.433 . S
N1330 C1356 1.435 . S
N1330 C1362 1.423 . S
H1331 C1367 0.932 . S
C1332 N1307 1.433 . S
C1332 C1333 1.363 . S
C1332 C1337 1.370 . S
C1333 H1306 0.929 . S
C1333 C1332 1.363 . S
C1333 C1334 1.385 . S
C1334 H1308 0.930 . S
C1334 C1333 1.385 . S
C1334 C1335 1.357 . S
C1335 C1334 1.357 . S
C1335 C1336 1.406 . S
C1336 H1310 0.929 . S
C1336 C1335 1.406 . S
C1336 C1337 1.391 . S
C1337 H1309 0.931 . S
C1337 C1332 1.370 . S
C1337 C1336 1.391 . S
C1338 N1307 1.435 . S
C1338 C1339 1.358 . S
C1338 C1343 1.371 . S
C1339 H1311 0.930 . S
C1339 C1338 1.358 . S
C1339 C1340 1.405 . S
C1340 H1312 0.932 . S
C1340 C1339 1.405 . S
C1340 C1341 1.383 . S
C1341 C1340 1.383 . S
C1341 C1342 1.393 . S
C1342 H1314 0.931 . S
C1342 C1341 1.393 . S
C1342 C1343 1.382 . S
C1343 H1313 0.929 . S
C1343 C1338 1.371 . S
C1343 C1342 1.382 . S
C1344 N1307 1.423 . S
C1344 C1345 1.362 . S
C1344 C1349 1.388 . S
C1345 H1315 0.929 . S
C1345 C1344 1.362 . S
C1345 C1346 1.376 . S
C1346 H1317 0.931 . S
C1346 C1345 1.376 . S
C1346 C1347 1.396 . S
C1347 C1346 1.396 . S
C1347 C1348 1.348 . S
C1347 C1365 1.472 . S
C1348 H1318 0.929 . S
C1348 C1347 1.348 . S
C1348 C1349 1.443 . S
C1349 H1316 0.932 . S
C1349 C1344 1.388 . S
C1349 C1348 1.443 . S
C1350 N1330 1.433 . S
C1350 C1351 1.363 . S
C1350 C1355 1.370 . S
C1351 H1319 0.929 . S
C1351 C1350 1.363 . S
C1351 C1352 1.385 . S
C1352 H1320 0.930 . S
C1352 C1351 1.385 . S
C1352 C1353 1.357 . S
C1353 C1352 1.357 . S
C1353 C1354 1.406 . S
C1354 H1321 0.929 . S
C1354 C1353 1.406 . S
C1354 C1355 1.391 . S
C1355 H1322 0.931 . S
C1355 C1350 1.370 . S
C1355 C1354 1.391 . S
C1356 N1330 1.435 . S
C1356 C1357 1.358 . S
C1356 C1361 1.371 . S
C1357 H1323 0.930 . S
C1357 C1356 1.358 . S
C1357 C1358 1.405 . S
C1358 H1324 0.932 . S
C1358 C1357 1.405 . S
C1358 C1359 1.383 . S
C1359 C1358 1.383 . S
C1359 C1360 1.393 . S
C1360 H1325 0.931 . S
C1360 C1359 1.393 . S
C1360 C1361 1.382 . S
C1361 H1326 0.929 . S
C1361 C1356 1.371 . S
C1361 C1360 1.382 . S
C1362 N1330 1.423 . S
C1362 C1363 1.362 . S
C1362 C1367 1.388 . S
C1363 H1327 0.929 . S
C1363 C1362 1.362 . S
C1363 C1364 1.376 . S
C1364 H1328 0.931 . S
C1364 C1363 1.376 . S
C1364 C1365 1.396 . S
C1365 C1347 1.472 . S
C1365 C1364 1.396 . S
C1365 C1366 1.348 . S
C1366 H1329 0.929 . S
C1366 C1365 1.348 . S
C1366 C1367 1.443 . S
C1367 H1331 0.932 . S
C1367 C1362 1.388 . S
C1367 C1366 1.443 . S
H1368 C1374 0.930 . S
H1369 C1377 0.930 . S
H1370 C1378 0.930 . S
H1371 C1379 0.930 . S
H1372 C1382 0.930 . S
H1373 C1383 0.930 . S
C1374 H1368 0.930 . S
C1374 C1375 1.355 1_455 S
C1374 C1376 1.415 . S
C1375 C1374 1.355 1_655 S
C1375 C1377 1.419 . S
C1376 C1374 1.415 . S
C1376 C1381 1.425 1_455 S
C1376 C1383 1.409 . S
C1377 H1369 0.930 . S
C1377 C1375 1.419 . S
C1377 C1378 1.362 . S
C1378 H1370 0.930 . S
C1378 C1377 1.362 . S
C1378 C1381 1.409 . S
C1379 H1371 0.930 . S
C1379 C1380 1.355 . S
C1379 C1381 1.415 . S
C1380 C1379 1.355 . S
C1380 C1382 1.419 1_655 S
C1381 C1376 1.425 1_655 S
C1381 C1378 1.409 . S
C1381 C1379 1.415 . S
C1382 H1372 0.930 . S
C1382 C1380 1.419 1_455 S
C1382 C1383 1.362 . S
C1383 H1373 0.930 . S
C1383 C1376 1.409 . S
C1383 C1382 1.362 . S
H1384 C1390 0.930 . S
H1385 C1393 0.930 . S
H1386 C1394 0.930 . S
H1387 C1395 0.930 . S
H1388 C1398 0.930 . S
H1389 C1399 0.930 . S
C1390 H1384 0.930 . S
C1390 C1391 1.355 . S
C1390 C1392 1.415 . S
C1391 C1390 1.355 . S
C1391 C1393 1.419 . S
C1392 C1390 1.415 . S
C1392 C1397 1.425 . S
C1392 C1399 1.409 . S
C1393 H1385 0.930 . S
C1393 C1391 1.419 . S
C1393 C1394 1.362 . S
C1394 H1386 0.930 . S
C1394 C1393 1.362 . S
C1394 C1397 1.409 . S
C1395 H1387 0.930 . S
C1395 C1396 1.355 . S
C1395 C1397 1.415 . S
C1396 C1395 1.355 . S
C1396 C1398 1.419 . S
C1397 C1392 1.425 . S
C1397 C1394 1.409 . S
C1397 C1395 1.415 . S
C1398 H1388 0.930 . S
C1398 C1396 1.419 . S
C1398 C1399 1.362 . S
C1399 H1389 0.930 . S
C1399 C1392 1.409 . S
C1399 C1398 1.362 . S
H1400 C1406 0.930 . S
H1401 C1409 0.930 . S
H1402 C1410 0.930 . S
H1403 C1411 0.930 . S
H1404 C1414 0.930 . S
H1405 C1415 0.930 . S
C1406 H1400 0.930 . S
C1406 C1407 1.355 1_565 S
C1406 C1408 1.412 . S
C1407 C1406 1.355 1_545 S
C1407 C1409 1.419 . S
C1408 C1406 1.412 . S
C1408 C1413 1.424 1_565 S
C1408 C1415 1.412 . S
C1409 H1401 0.930 . S
C1409 C1407 1.419 . S
C1409 C1410 1.362 . S
C1410 H1402 0.930 . S
C1410 C1409 1.362 . S
C1410 C1413 1.409 . S
C1411 H1403 0.930 . S
C1411 C1412 1.355 . S
C1411 C1413 1.415 . S
C1412 C1411 1.355 . S
C1412 C1414 1.419 1_545 S
C1413 C1408 1.424 1_545 S
C1413 C1410 1.409 . S
C1413 C1411 1.415 . S
C1414 H1404 0.930 . S
C1414 C1412 1.419 1_565 S
C1414 C1415 1.362 . S
C1415 H1405 0.930 . S
C1415 C1408 1.412 . S
C1415 C1414 1.362 . S
H1416 C1422 0.930 . S
H1417 C1425 0.930 . S
H1418 C1426 0.930 . S
H1419 C1427 0.930 . S
H1420 C1430 0.930 . S
H1421 C1431 0.930 . S
C1422 H1416 0.930 . S
C1422 C1423 1.355 1_565 S
C1422 C1424 1.415 . S
C1423 C1422 1.355 1_545 S
C1423 C1425 1.419 . S
C1424 C1422 1.415 . S
C1424 C1429 1.425 1_565 S
C1424 C1431 1.409 . S
C1425 H1417 0.930 . S
C1425 C1423 1.419 . S
C1425 C1426 1.362 . S
C1426 H1418 0.930 . S
C1426 C1425 1.362 . S
C1426 C1429 1.409 . S
C1427 H1419 0.930 . S
C1427 C1428 1.355 1_545 S
C1427 C1429 1.415 . S
C1428 C1427 1.355 1_565 S
C1428 C1430 1.419 . S
C1429 C1424 1.425 1_545 S
C1429 C1426 1.409 . S
C1429 C1427 1.415 . S
C1430 H1420 0.930 . S
C1430 C1428 1.419 . S
C1430 C1431 1.362 . S
C1431 H1421 0.930 . S
C1431 C1424 1.409 . S
C1431 C1430 1.362 . S
H1432 C1438 0.906 . S
H1433 C1441 0.930 . S
H1434 C1442 0.930 . S
H1435 C1443 0.930 . S
H1436 C1446 0.935 . S
H1437 C1447 0.951 1_655 S
C1438 H1432 0.906 . S
C1438 C1439 1.355 . S
C1438 C1440 1.415 . S
C1439 C1438 1.355 . S
C1439 C1441 1.419 . S
C1440 C1438 1.415 . S
C1440 C1445 1.425 . S
C1440 C1447 1.416 . S
C1441 H1433 0.930 . S
C1441 C1439 1.419 . S
C1441 C1442 1.362 . S
C1442 H1434 0.930 . S
C1442 C1441 1.362 . S
C1442 C1445 1.409 . S
C1443 H1435 0.930 . S
C1443 C1444 1.355 . S
C1443 C1445 1.415 . S
C1444 C1443 1.355 . S
C1444 C1446 1.419 . S
C1445 C1440 1.425 . S
C1445 C1442 1.409 . S
C1445 C1443 1.415 . S
C1446 H1436 0.935 . S
C1446 C1444 1.419 . S
C1446 C1447 1.340 . S
C1447 H1437 0.951 1_455 S
C1447 C1440 1.416 . S
C1447 C1446 1.340 . S
H1448 C1454 0.930 . S
H1449 C1457 0.930 . S
H1450 C1458 0.930 . S
H1451 C1459 0.930 . S
H1452 C1462 0.930 . S
H1453 C1463 0.930 . S
C1454 H1448 0.930 . S
C1454 C1455 1.355 . S
C1454 C1456 1.415 . S
C1455 C1454 1.355 . S
C1455 C1457 1.419 . S
C1456 C1454 1.415 . S
C1456 C1461 1.425 . S
C1456 C1463 1.409 . S
C1457 H1449 0.930 . S
C1457 C1455 1.419 . S
C1457 C1458 1.362 . S
C1458 H1450 0.930 . S
C1458 C1457 1.362 . S
C1458 C1461 1.409 . S
C1459 H1451 0.930 . S
C1459 C1460 1.355 . S
C1459 C1461 1.415 . S
C1460 C1459 1.355 . S
C1460 C1462 1.419 . S
C1461 C1456 1.425 . S
C1461 C1458 1.409 . S
C1461 C1459 1.415 . S
C1462 H1452 0.930 . S
C1462 C1460 1.419 . S
C1462 C1463 1.362 . S
C1463 H1453 0.930 . S
C1463 C1456 1.409 . S
C1463 C1462 1.362 . S
H1464 C1470 0.930 . S
H1465 C1473 0.930 . S
H1466 C1474 0.930 . S
H1467 C1475 0.930 . S
H1468 C1478 0.930 . S
H1469 C1479 0.930 . S
C1470 H1464 0.930 . S
C1470 C1471 1.355 1_655 S
C1470 C1472 1.415 . S
C1471 C1470 1.355 1_455 S
C1471 C1473 1.419 . S
C1472 C1470 1.415 . S
C1472 C1477 1.425 1_655 S
C1472 C1479 1.409 . S
C1473 H1465 0.930 . S
C1473 C1471 1.419 . S
C1473 C1474 1.362 . S
C1474 H1466 0.930 . S
C1474 C1473 1.362 . S
C1474 C1477 1.409 . S
C1475 H1467 0.930 . S
C1475 C1476 1.355 . S
C1475 C1477 1.415 . S
C1476 C1475 1.355 . S
C1476 C1478 1.419 1_455 S
C1477 C1472 1.425 1_455 S
C1477 C1474 1.409 . S
C1477 C1475 1.415 . S
C1478 H1468 0.930 . S
C1478 C1476 1.419 1_655 S
C1478 C1479 1.362 . S
C1479 H1469 0.930 . S
C1479 C1472 1.409 . S
C1479 C1478 1.362 . S
H1480 C1486 0.930 . S
H1481 C1489 0.930 . S
H1482 C1490 0.930 . S
H1483 C1491 0.930 . S
H1484 C1494 0.930 . S
H1485 C1495 0.930 . S
C1486 H1480 0.930 . S
C1486 C1487 1.355 . S
C1486 C1488 1.415 . S
C1487 C1486 1.355 . S
C1487 C1489 1.419 . S
C1488 C1486 1.415 . S
C1488 C1493 1.425 . S
C1488 C1495 1.409 . S
C1489 H1481 0.930 . S
C1489 C1487 1.419 . S
C1489 C1490 1.362 . S
C1490 H1482 0.930 . S
C1490 C1489 1.362 . S
C1490 C1493 1.409 . S
C1491 H1483 0.930 . S
C1491 C1492 1.355 . S
C1491 C1493 1.415 . S
C1492 C1491 1.355 . S
C1492 C1494 1.419 . S
C1493 C1488 1.425 . S
C1493 C1490 1.409 . S
C1493 C1491 1.415 . S
C1494 H1484 0.930 . S
C1494 C1492 1.419 . S
C1494 C1495 1.362 . S
C1495 H1485 0.930 . S
C1495 C1488 1.409 . S
C1495 C1494 1.362 . S
H1496 C1502 0.930 . S
H1497 C1505 0.930 . S
H1498 C1506 0.930 . S
H1499 C1507 0.908 1_545 S
H1500 C1510 0.930 . S
H1501 C1511 0.930 . S
C1502 H1496 0.930 . S
C1502 C1503 1.366 . S
C1502 C1504 1.415 . S
C1503 C1502 1.366 . S
C1503 C1505 1.391 1_565 S
C1504 C1502 1.415 . S
C1504 C1509 1.425 . S
C1504 C1511 1.409 . S
C1505 H1497 0.930 . S
C1505 C1503 1.391 1_545 S
C1505 C1506 1.362 . S
C1506 H1498 0.930 . S
C1506 C1505 1.362 . S
C1506 C1509 1.409 1_545 S
C1507 H1499 0.908 1_565 S
C1507 C1508 1.355 . S
C1507 C1509 1.415 . S
C1508 C1507 1.355 . S
C1508 C1510 1.419 . S
C1509 C1504 1.425 . S
C1509 C1506 1.409 1_565 S
C1509 C1507 1.415 . S
C1510 H1500 0.930 . S
C1510 C1508 1.419 . S
C1510 C1511 1.362 . S
C1511 H1501 0.930 . S
C1511 C1504 1.409 . S
C1511 C1510 1.362 . S
H1512 C1518 0.930 . S
H1513 C1521 0.930 . S
H1514 C1522 0.930 . S
H1515 C1523 0.930 . S
H1516 C1526 0.930 . S
H1517 C1527 0.930 . S
C1518 H1512 0.930 . S
C1518 C1519 1.355 . S
C1518 C1520 1.415 . S
C1519 C1518 1.355 . S
C1519 C1521 1.419 . S
C1520 C1518 1.415 . S
C1520 C1525 1.425 . S
C1520 C1527 1.409 . S
C1521 H1513 0.930 . S
C1521 C1519 1.419 . S
C1521 C1522 1.362 . S
C1522 H1514 0.930 . S
C1522 C1521 1.362 . S
C1522 C1525 1.409 . S
C1523 H1515 0.930 . S
C1523 C1524 1.355 . S
C1523 C1525 1.415 . S
C1524 C1523 1.355 . S
C1524 C1526 1.419 . S
C1525 C1520 1.425 . S
C1525 C1522 1.409 . S
C1525 C1523 1.415 . S
C1526 H1516 0.930 . S
C1526 C1524 1.419 . S
C1526 C1527 1.362 . S
C1527 H1517 0.930 . S
C1527 C1520 1.409 . S
C1527 C1526 1.362 . S
H1528 C1534 0.930 . S
H1529 C1537 0.930 . S
H1530 C1538 0.930 . S
H1531 C1539 0.930 . S
H1532 C1542 0.930 . S
H1533 C1543 0.930 . S
C1534 H1528 0.930 . S
C1534 C1535 1.355 1_455 S
C1534 C1536 1.415 . S
C1535 C1534 1.355 1_655 S
C1535 C1537 1.419 . S
C1536 C1534 1.415 . S
C1536 C1541 1.425 1_455 S
C1536 C1543 1.409 . S
C1537 H1529 0.930 . S
C1537 C1535 1.419 . S
C1537 C1538 1.362 . S
C1538 H1530 0.930 . S
C1538 C1537 1.362 . S
C1538 C1541 1.409 . S
C1539 H1531 0.930 . S
C1539 C1540 1.355 . S
C1539 C1541 1.415 . S
C1540 C1539 1.355 . S
C1540 C1542 1.419 1_655 S
C1541 C1536 1.425 1_655 S
C1541 C1538 1.409 . S
C1541 C1539 1.415 . S
C1542 H1532 0.930 . S
C1542 C1540 1.419 1_455 S
C1542 C1543 1.362 . S
C1543 H1533 0.930 . S
C1543 C1536 1.409 . S
C1543 C1542 1.362 . S
H1544 C1550 0.930 . S
H1545 C1553 0.930 . S
H1546 C1554 0.930 . S
H1547 C1555 0.930 . S
H1548 C1558 0.930 . S
H1549 C1559 0.930 . S
C1550 H1544 0.930 . S
C1550 C1551 1.355 . S
C1550 C1552 1.415 . S
C1551 C1550 1.355 . S
C1551 C1553 1.419 . S
C1552 C1550 1.415 . S
C1552 C1557 1.425 . S
C1552 C1559 1.409 . S
C1553 H1545 0.930 . S
C1553 C1551 1.419 . S
C1553 C1554 1.362 . S
C1554 H1546 0.930 . S
C1554 C1553 1.362 . S
C1554 C1557 1.409 . S
C1555 H1547 0.930 . S
C1555 C1556 1.355 . S
C1555 C1557 1.415 . S
C1556 C1555 1.355 . S
C1556 C1558 1.419 . S
C1557 C1552 1.425 . S
C1557 C1554 1.409 . S
C1557 C1555 1.415 . S
C1558 H1548 0.930 . S
C1558 C1556 1.419 . S
C1558 C1559 1.362 . S
C1559 H1549 0.930 . S
C1559 C1552 1.409 . S
C1559 C1558 1.362 . S
H1560 C1566 0.930 . S
H1561 C1569 0.930 . S
H1562 C1570 0.930 . S
H1563 C1571 0.930 . S
H1564 C1574 0.930 . S
H1565 C1575 0.930 . S
C1566 H1560 0.930 . S
C1566 C1567 1.355 . S
C1566 C1568 1.415 . S
C1567 C1566 1.355 . S
C1567 C1569 1.419 . S
C1568 C1566 1.415 . S
C1568 C1573 1.425 . S
C1568 C1575 1.409 . S
C1569 H1561 0.930 . S
C1569 C1567 1.419 . S
C1569 C1570 1.362 . S
C1570 H1562 0.930 . S
C1570 C1569 1.362 . S
C1570 C1573 1.409 . S
C1571 H1563 0.930 . S
C1571 C1572 1.355 . S
C1571 C1573 1.415 . S
C1572 C1571 1.355 . S
C1572 C1574 1.419 . S
C1573 C1568 1.425 . S
C1573 C1570 1.409 . S
C1573 C1571 1.415 . S
C1574 H1564 0.930 . S
C1574 C1572 1.419 . S
C1574 C1575 1.362 . S
C1575 H1565 0.930 . S
C1575 C1568 1.409 . S
C1575 C1574 1.362 . S
H1576 C1582 0.930 . S
H1577 C1585 0.930 . S
H1578 C1586 0.930 . S
H1579 C1587 0.930 . S
H1580 C1590 0.930 . S
H1581 C1591 0.930 . S
C1582 H1576 0.930 . S
C1582 C1583 1.355 . S
C1582 C1584 1.415 . S
C1583 C1582 1.355 . S
C1583 C1585 1.419 . S
C1584 C1582 1.415 . S
C1584 C1589 1.425 . S
C1584 C1591 1.409 . S
C1585 H1577 0.930 . S
C1585 C1583 1.419 . S
C1585 C1586 1.362 . S
C1586 H1578 0.930 . S
C1586 C1585 1.362 . S
C1586 C1589 1.409 . S
C1587 H1579 0.930 . S
C1587 C1588 1.355 . S
C1587 C1589 1.415 . S
C1588 C1587 1.355 . S
C1588 C1590 1.419 . S
C1589 C1584 1.425 . S
C1589 C1586 1.409 . S
C1589 C1587 1.415 . S
C1590 H1580 0.930 . S
C1590 C1588 1.419 . S
C1590 C1591 1.362 . S
C1591 H1581 0.930 . S
C1591 C1584 1.409 . S
C1591 C1590 1.362 . S
H1592 C1598 0.930 . S
H1593 C1601 0.930 . S
H1594 C1602 0.930 . S
H1595 C1603 0.930 . S
H1596 C1606 0.930 . S
H1597 C1607 0.930 . S
C1598 H1592 0.930 . S
C1598 C1599 1.355 . S
C1598 C1600 1.415 . S
C1599 C1598 1.355 . S
C1599 C1601 1.419 . S
C1600 C1598 1.415 . S
C1600 C1605 1.425 . S
C1600 C1607 1.409 . S
C1601 H1593 0.930 . S
C1601 C1599 1.419 . S
C1601 C1602 1.362 . S
C1602 H1594 0.930 . S
C1602 C1601 1.362 . S
C1602 C1605 1.409 . S
C1603 H1595 0.930 . S
C1603 C1604 1.355 . S
C1603 C1605 1.415 . S
C1604 C1603 1.355 . S
C1604 C1606 1.419 . S
C1605 C1600 1.425 . S
C1605 C1602 1.409 . S
C1605 C1603 1.415 . S
C1606 H1596 0.930 . S
C1606 C1604 1.419 . S
C1606 C1607 1.362 . S
C1607 H1597 0.930 . S
C1607 C1600 1.409 . S
C1607 C1606 1.362 . S
H1608 C1614 0.930 . S
H1609 C1617 0.930 . S
H1610 C1618 0.930 . S
H1611 C1619 0.930 . S
H1612 C1622 0.930 . S
H1613 C1623 0.930 . S
C1614 H1608 0.930 . S
C1614 C1615 1.355 . S
C1614 C1616 1.415 . S
C1615 C1614 1.355 . S
C1615 C1617 1.419 . S
C1616 C1614 1.415 . S
C1616 C1621 1.425 . S
C1616 C1623 1.409 . S
C1617 H1609 0.930 . S
C1617 C1615 1.419 . S
C1617 C1618 1.362 . S
C1618 H1610 0.930 . S
C1618 C1617 1.362 . S
C1618 C1621 1.409 . S
C1619 H1611 0.930 . S
C1619 C1620 1.355 . S
C1619 C1621 1.415 . S
C1620 C1619 1.355 . S
C1620 C1622 1.419 . S
C1621 C1616 1.425 . S
C1621 C1618 1.409 . S
C1621 C1619 1.415 . S
C1622 H1612 0.930 . S
C1622 C1620 1.419 . S
C1622 C1623 1.362 . S
C1623 H1613 0.930 . S
C1623 C1616 1.409 . S
C1623 C1622 1.362 . S
H1624 C1630 0.930 . S
H1625 C1633 0.930 . S
H1626 C1634 0.930 . S
H1627 C1635 0.930 . S
H1628 C1638 0.930 . S
H1629 C1639 0.930 . S
C1630 H1624 0.930 . S
C1630 C1631 1.355 . S
C1630 C1632 1.415 . S
C1631 C1630 1.355 . S
C1631 C1633 1.419 . S
C1632 C1630 1.415 . S
C1632 C1637 1.425 . S
C1632 C1639 1.409 . S
C1633 H1625 0.930 . S
C1633 C1631 1.419 . S
C1633 C1634 1.362 . S
C1634 H1626 0.930 . S
C1634 C1633 1.362 . S
C1634 C1637 1.409 . S
C1635 H1627 0.930 . S
C1635 C1636 1.355 . S
C1635 C1637 1.415 . S
C1636 C1635 1.355 . S
C1636 C1638 1.419 . S
C1637 C1632 1.425 . S
C1637 C1634 1.409 . S
C1637 C1635 1.415 . S
C1638 H1628 0.930 . S
C1638 C1636 1.419 . S
C1638 C1639 1.362 . S
C1639 H1629 0.930 . S
C1639 C1632 1.409 . S
C1639 C1638 1.362 . S
H1640 C1646 0.930 . S
H1641 C1649 0.930 . S
H1642 C1650 0.930 . S
H1643 C1651 0.930 . S
H1644 C1654 0.930 . S
H1645 C1655 0.930 . S
C1646 H1640 0.930 . S
C1646 C1647 1.355 . S
C1646 C1648 1.415 . S
C1647 C1646 1.355 . S
C1647 C1649 1.419 . S
C1648 C1646 1.415 . S
C1648 C1653 1.425 . S
C1648 C1655 1.409 . S
C1649 H1641 0.930 . S
C1649 C1647 1.419 . S
C1649 C1650 1.362 . S
C1650 H1642 0.930 . S
C1650 C1649 1.362 . S
C1650 C1653 1.409 . S
C1651 H1643 0.930 . S
C1651 C1652 1.355 . S
C1651 C1653 1.415 . S
C1652 C1651 1.355 . S
C1652 C1654 1.419 . S
C1653 C1648 1.425 . S
C1653 C1650 1.409 . S
C1653 C1651 1.415 . S
C1654 H1644 0.930 . S
C1654 C1652 1.419 . S
C1654 C1655 1.362 . S
C1655 H1645 0.930 . S
C1655 C1648 1.409 . S
C1655 C1654 1.362 . S
H1656 C1662 0.930 . S
H1657 C1665 0.930 . S
H1658 C1666 0.930 . S
H1659 C1667 0.930 . S
H1660 C1670 0.930 . S
H1661 C1671 0.930 . S
C1662 H1656 0.930 . S
C1662 C1663 1.355 . S
C1662 C1664 1.415 . S
C1663 C1662 1.355 . S
C1663 C1665 1.419 . S
C1664 C1662 1.415 . S
C1664 C1669 1.425 . S
C1664 C1671 1.409 . S
C1665 H1657 0.930 . S
C1665 C1663 1.419 . S
C1665 C1666 1.362 . S
C1666 H1658 0.930 . S
C1666 C1665 1.362 . S
C1666 C1669 1.409 . S
C1667 H1659 0.930 . S
C1667 C1668 1.355 . S
C1667 C1669 1.415 . S
C1668 C1667 1.355 . S
C1668 C1670 1.419 . S
C1669 C1664 1.425 . S
C1669 C1666 1.409 . S
C1669 C1667 1.415 . S
C1670 H1660 0.930 . S
C1670 C1668 1.419 . S
C1670 C1671 1.362 . S
C1671 H1661 0.930 . S
C1671 C1664 1.409 . S
C1671 C1670 1.362 . S
H1672 C1678 0.930 . S
H1673 C1681 0.930 . S
H1674 C1682 0.930 . S
H1675 C1683 0.930 . S
H1676 C1686 0.930 . S
H1677 C1687 0.930 . S
C1678 H1672 0.930 . S
C1678 C1679 1.355 . S
C1678 C1680 1.415 . S
C1679 C1678 1.355 . S
C1679 C1681 1.419 . S
C1680 C1678 1.415 . S
C1680 C1685 1.425 . S
C1680 C1687 1.409 . S
C1681 H1673 0.930 . S
C1681 C1679 1.419 . S
C1681 C1682 1.362 . S
C1682 H1674 0.930 . S
C1682 C1681 1.362 . S
C1682 C1685 1.409 . S
C1683 H1675 0.930 . S
C1683 C1684 1.355 . S
C1683 C1685 1.415 . S
C1684 C1683 1.355 . S
C1684 C1686 1.419 . S
C1685 C1680 1.425 . S
C1685 C1682 1.409 . S
C1685 C1683 1.415 . S
C1686 H1676 0.930 . S
C1686 C1684 1.419 . S
C1686 C1687 1.362 . S
C1687 H1677 0.930 . S
C1687 C1680 1.409 . S
C1687 C1686 1.362 . S
H1688 C1694 0.930 . S
H1689 C1697 0.930 . S
H1690 C1698 0.930 . S
H1691 C1699 0.930 . S
H1692 C1702 0.930 . S
H1693 C1703 0.930 . S
C1694 H1688 0.930 . S
C1694 C1695 1.355 . S
C1694 C1696 1.415 . S
C1695 C1694 1.355 . S
C1695 C1697 1.419 . S
C1696 C1694 1.415 . S
C1696 C1701 1.425 . S
C1696 C1703 1.409 . S
C1697 H1689 0.930 . S
C1697 C1695 1.419 . S
C1697 C1698 1.362 . S
C1698 H1690 0.930 . S
C1698 C1697 1.362 . S
C1698 C1701 1.409 . S
C1699 H1691 0.930 . S
C1699 C1700 1.355 . S
C1699 C1701 1.415 . S
C1700 C1699 1.355 . S
C1700 C1702 1.419 . S
C1701 C1696 1.425 . S
C1701 C1698 1.409 . S
C1701 C1699 1.415 . S
C1702 H1692 0.930 . S
C1702 C1700 1.419 . S
C1702 C1703 1.362 . S
C1703 H1693 0.930 . S
C1703 C1696 1.409 . S
C1703 C1702 1.362 . S
H1704 C1710 0.930 . S
H1705 C1713 0.930 . S
H1706 C1714 0.930 . S
H1707 C1715 0.930 . S
H1708 C1718 0.930 . S
H1709 C1719 0.930 . S
C1710 H1704 0.930 . S
C1710 C1711 1.355 . S
C1710 C1712 1.415 . S
C1711 C1710 1.355 . S
C1711 C1713 1.419 . S
C1712 C1710 1.415 . S
C1712 C1717 1.425 . S
C1712 C1719 1.409 . S
C1713 H1705 0.930 . S
C1713 C1711 1.419 . S
C1713 C1714 1.362 . S
C1714 H1706 0.930 . S
C1714 C1713 1.362 . S
C1714 C1717 1.409 . S
C1715 H1707 0.930 . S
C1715 C1716 1.355 . S
C1715 C1717 1.415 . S
C1716 C1715 1.355 . S
C1716 C1718 1.419 . S
C1717 C1712 1.425 . S
C1717 C1714 1.409 . S
C1717 C1715 1.415 . S
C1718 H1708 0.930 . S
C1718 C1716 1.419 . S
C1718 C1719 1.362 . S
C1719 H1709 0.930 . S
C1719 C1712 1.409 . S
C1719 C1718 1.362 . S
H1720 C1726 0.930 . S
H1721 C1729 0.930 . S
H1722 C1730 0.930 . S
H1723 C1731 0.930 . S
H1724 C1734 0.930 . S
H1725 C1735 0.930 . S
C1726 H1720 0.930 . S
C1726 C1727 1.355 . S
C1726 C1728 1.415 . S
C1727 C1726 1.355 . S
C1727 C1729 1.419 . S
C1728 C1726 1.415 . S
C1728 C1733 1.425 . S
C1728 C1735 1.409 . S
C1729 H1721 0.930 . S
C1729 C1727 1.419 . S
C1729 C1730 1.362 . S
C1730 H1722 0.930 . S
C1730 C1729 1.362 . S
C1730 C1733 1.409 . S
C1731 H1723 0.930 . S
C1731 C1732 1.355 . S
C1731 C1733 1.415 . S
C1732 C1731 1.355 . S
C1732 C1734 1.419 . S
C1733 C1728 1.425 . S
C1733 C1730 1.409 . S
C1733 C1731 1.415 . S
C1734 H1724 0.930 . S
C1734 C1732 1.419 . S
C1734 C1735 1.362 . S
C1735 H1725 0.930 . S
C1735 C1728 1.409 . S
C1735 C1734 1.362 . S
H1736 C1742 0.930 . S
H1737 C1745 0.930 . S
H1738 C1746 0.930 . S
H1739 C1747 0.930 . S
H1740 C1750 0.930 . S
H1741 C1751 0.930 . S
C1742 H1736 0.930 . S
C1742 C1743 1.355 . S
C1742 C1744 1.415 . S
C1743 C1742 1.355 . S
C1743 C1745 1.419 . S
C1744 C1742 1.415 . S
C1744 C1749 1.425 . S
C1744 C1751 1.409 . S
C1745 H1737 0.930 . S
C1745 C1743 1.419 . S
C1745 C1746 1.362 . S
C1746 H1738 0.930 . S
C1746 C1745 1.362 . S
C1746 C1749 1.409 . S
C1747 H1739 0.930 . S
C1747 C1748 1.355 . S
C1747 C1749 1.415 . S
C1748 C1747 1.355 . S
C1748 C1750 1.419 . S
C1749 C1744 1.425 . S
C1749 C1746 1.409 . S
C1749 C1747 1.415 . S
C1750 H1740 0.930 . S
C1750 C1748 1.419 . S
C1750 C1751 1.362 . S
C1751 H1741 0.930 . S
C1751 C1744 1.409 . S
C1751 C1750 1.362 . S
H1752 C1758 0.930 . S
H1753 C1761 0.930 . S
H1754 C1762 0.930 . S
H1755 C1763 0.930 . S
H1756 C1766 0.930 . S
H1757 C1767 0.930 . S
C1758 H1752 0.930 . S
C1758 C1759 1.355 . S
C1758 C1760 1.415 . S
C1759 C1758 1.355 . S
C1759 C1761 1.419 . S
C1760 C1758 1.415 . S
C1760 C1765 1.425 . S
C1760 C1767 1.409 . S
C1761 H1753 0.930 . S
C1761 C1759 1.419 . S
C1761 C1762 1.362 . S
C1762 H1754 0.930 . S
C1762 C1761 1.362 . S
C1762 C1765 1.409 . S
C1763 H1755 0.930 . S
C1763 C1764 1.355 . S
C1763 C1765 1.415 . S
C1764 C1763 1.355 . S
C1764 C1766 1.419 . S
C1765 C1760 1.425 . S
C1765 C1762 1.409 . S
C1765 C1763 1.415 . S
C1766 H1756 0.930 . S
C1766 C1764 1.419 . S
C1766 C1767 1.362 . S
C1767 H1757 0.930 . S
C1767 C1760 1.409 . S
C1767 C1766 1.362 . S
H1768 C1774 0.930 . S
H1769 C1777 0.930 . S
H1770 C1778 0.930 . S
H1771 C1779 0.930 . S
H1772 C1782 0.930 . S
H1773 C1783 0.930 . S
C1774 H1768 0.930 . S
C1774 C1775 1.355 . S
C1774 C1776 1.415 . S
C1775 C1774 1.355 . S
C1775 C1777 1.419 . S
C1776 C1774 1.415 . S
C1776 C1781 1.425 . S
C1776 C1783 1.409 . S
C1777 H1769 0.930 . S
C1777 C1775 1.419 . S
C1777 C1778 1.362 . S
C1778 H1770 0.930 . S
C1778 C1777 1.362 . S
C1778 C1781 1.409 . S
C1779 H1771 0.930 . S
C1779 C1780 1.355 . S
C1779 C1781 1.415 . S
C1780 C1779 1.355 . S
C1780 C1782 1.419 . S
C1781 C1776 1.425 . S
C1781 C1778 1.409 . S
C1781 C1779 1.415 . S
C1782 H1772 0.930 . S
C1782 C1780 1.419 . S
C1782 C1783 1.362 . S
C1783 H1773 0.930 . S
C1783 C1776 1.409 . S
C1783 C1782 1.362 . S
H1784 C1790 0.930 . S
H1785 C1793 0.930 . S
H1786 C1794 0.930 . S
H1787 C1795 0.930 . S
H1788 C1798 0.930 . S
H1789 C1799 0.930 . S
C1790 H1784 0.930 . S
C1790 C1791 1.355 . S
C1790 C1792 1.415 . S
C1791 C1790 1.355 . S
C1791 C1793 1.419 . S
C1792 C1790 1.415 . S
C1792 C1797 1.425 . S
C1792 C1799 1.409 . S
C1793 H1785 0.930 . S
C1793 C1791 1.419 . S
C1793 C1794 1.362 . S
C1794 H1786 0.930 . S
C1794 C1793 1.362 . S
C1794 C1797 1.409 . S
C1795 H1787 0.930 . S
C1795 C1796 1.355 . S
C1795 C1797 1.415 . S
C1796 C1795 1.355 . S
C1796 C1798 1.419 . S
C1797 C1792 1.425 . S
C1797 C1794 1.409 . S
C1797 C1795 1.415 . S
C1798 H1788 0.930 . S
C1798 C1796 1.419 . S
C1798 C1799 1.362 . S
C1799 H1789 0.930 . S
C1799 C1792 1.409 . S
C1799 C1798 1.362 . S
H1800 C1806 0.930 . S
H1801 C1809 0.930 . S
H1802 C1810 0.930 . S
H1803 C1811 0.930 . S
H1804 C1814 0.930 . S
H1805 C1815 0.930 . S
C1806 H1800 0.930 . S
C1806 C1807 1.355 . S
C1806 C1808 1.415 . S
C1807 C1806 1.355 . S
C1807 C1809 1.419 . S
C1808 C1806 1.415 . S
C1808 C1813 1.425 . S
C1808 C1815 1.409 . S
C1809 H1801 0.930 . S
C1809 C1807 1.419 . S
C1809 C1810 1.362 . S
C1810 H1802 0.930 . S
C1810 C1809 1.362 . S
C1810 C1813 1.409 . S
C1811 H1803 0.930 . S
C1811 C1812 1.355 . S
C1811 C1813 1.415 . S
C1812 C1811 1.355 . S
C1812 C1814 1.419 . S
C1813 C1808 1.425 . S
C1813 C1810 1.409 . S
C1813 C1811 1.415 . S
C1814 H1804 0.930 . S
C1814 C1812 1.419 . S
C1814 C1815 1.362 . S
C1815 H1805 0.930 . S
C1815 C1808 1.409 . S
C1815 C1814 1.362 . S
H1816 C1822 0.930 . S
H1817 C1825 0.930 . S
H1818 C1826 0.930 . S
H1819 C1827 0.930 . S
H1820 C1830 0.930 . S
H1821 C1831 0.930 . S
C1822 H1816 0.930 . S
C1822 C1823 1.355 . S
C1822 C1824 1.415 . S
C1823 C1822 1.355 . S
C1823 C1825 1.419 . S
C1824 C1822 1.415 . S
C1824 C1829 1.425 . S
C1824 C1831 1.409 . S
C1825 H1817 0.930 . S
C1825 C1823 1.419 . S
C1825 C1826 1.362 . S
C1826 H1818 0.930 . S
C1826 C1825 1.362 . S
C1826 C1829 1.409 . S
C1827 H1819 0.930 . S
C1827 C1828 1.355 . S
C1827 C1829 1.415 . S
C1828 C1827 1.355 . S
C1828 C1830 1.419 . S
C1829 C1824 1.425 . S
C1829 C1826 1.409 . S
C1829 C1827 1.415 . S
C1830 H1820 0.930 . S
C1830 C1828 1.419 . S
C1830 C1831 1.362 . S
C1831 H1821 0.930 . S
C1831 C1824 1.409 . S
C1831 C1830 1.362 . S
H1832 C1838 0.930 . S
H1833 C1841 0.930 . S
H1834 C1842 0.930 . S
H1835 C1843 0.930 . S
H1836 C1846 0.930 . S
H1837 C1847 0.930 . S
C1838 H1832 0.930 . S
C1838 C1839 1.355 . S
C1838 C1840 1.415 . S
C1839 C1838 1.355 . S
C1839 C1841 1.419 . S
C1840 C1838 1.415 . S
C1840 C1845 1.425 . S
C1840 C1847 1.409 . S
C1841 H1833 0.930 . S
C1841 C1839 1.419 . S
C1841 C1842 1.362 . S
C1842 H1834 0.930 . S
C1842 C1841 1.362 . S
C1842 C1845 1.409 . S
C1843 H1835 0.930 . S
C1843 C1844 1.355 . S
C1843 C1845 1.415 . S
C1844 C1843 1.355 . S
C1844 C1846 1.419 . S
C1845 C1840 1.425 . S
C1845 C1842 1.409 . S
C1845 C1843 1.415 . S
C1846 H1836 0.930 . S
C1846 C1844 1.419 . S
C1846 C1847 1.362 . S
C1847 H1837 0.930 . S
C1847 C1840 1.409 . S
C1847 C1846 1.362 . S
H1848 C1854 0.930 . S
H1849 C1857 0.930 . S
H1850 C1858 0.930 . S
H1851 C1859 0.930 . S
H1852 C1862 0.930 . S
H1853 C1863 0.930 . S
C1854 H1848 0.930 . S
C1854 C1855 1.355 . S
C1854 C1856 1.415 . S
C1855 C1854 1.355 . S
C1855 C1857 1.419 . S
C1856 C1854 1.415 . S
C1856 C1861 1.425 . S
C1856 C1863 1.409 . S
C1857 H1849 0.930 . S
C1857 C1855 1.419 . S
C1857 C1858 1.362 . S
C1858 H1850 0.930 . S
C1858 C1857 1.362 . S
C1858 C1861 1.409 . S
C1859 H1851 0.930 . S
C1859 C1860 1.355 . S
C1859 C1861 1.415 . S
C1860 C1859 1.355 . S
C1860 C1862 1.419 . S
C1861 C1856 1.425 . S
C1861 C1858 1.409 . S
C1861 C1859 1.415 . S
C1862 H1852 0.930 . S
C1862 C1860 1.419 . S
C1862 C1863 1.362 . S
C1863 H1853 0.930 . S
C1863 C1856 1.409 . S
C1863 C1862 1.362 . S
H1864 C1870 0.930 . S
H1865 C1873 0.930 . S
H1866 C1874 0.930 . S
H1867 C1875 0.930 . S
H1868 C1878 0.930 . S
H1869 C1879 0.930 . S
C1870 H1864 0.930 . S
C1870 C1871 1.355 . S
C1870 C1872 1.415 . S
C1871 C1870 1.355 . S
C1871 C1873 1.419 . S
C1872 C1870 1.415 . S
C1872 C1877 1.425 . S
C1872 C1879 1.409 . S
C1873 H1865 0.930 . S
C1873 C1871 1.419 . S
C1873 C1874 1.362 . S
C1874 H1866 0.930 . S
C1874 C1873 1.362 . S
C1874 C1877 1.409 . S
C1875 H1867 0.930 . S
C1875 C1876 1.355 . S
C1875 C1877 1.415 . S
C1876 C1875 1.355 . S
C1876 C1878 1.419 . S
C1877 C1872 1.425 . S
C1877 C1874 1.409 . S
C1877 C1875 1.415 . S
C1878 H1868 0.930 . S
C1878 C1876 1.419 . S
C1878 C1879 1.362 . S
C1879 H1869 0.930 . S
C1879 C1872 1.409 . S
C1879 C1878 1.362 . S
H1880 C1886 0.930 . S
H1881 C1889 0.930 . S
H1882 C1890 0.930 . S
H1883 C1891 0.930 . S
H1884 C1894 0.930 . S
H1885 C1895 0.930 . S
C1886 H1880 0.930 . S
C1886 C1887 1.355 . S
C1886 C1888 1.415 . S
C1887 C1886 1.355 . S
C1887 C1889 1.419 . S
C1888 C1886 1.415 . S
C1888 C1893 1.425 . S
C1888 C1895 1.409 . S
C1889 H1881 0.930 . S
C1889 C1887 1.419 . S
C1889 C1890 1.362 . S
C1890 H1882 0.930 . S
C1890 C1889 1.362 . S
C1890 C1893 1.409 . S
C1891 H1883 0.930 . S
C1891 C1892 1.355 . S
C1891 C1893 1.415 . S
C1892 C1891 1.355 . S
C1892 C1894 1.419 . S
C1893 C1888 1.425 . S
C1893 C1890 1.409 . S
C1893 C1891 1.415 . S
C1894 H1884 0.930 . S
C1894 C1892 1.419 . S
C1894 C1895 1.362 . S
C1895 H1885 0.930 . S
C1895 C1888 1.409 . S
C1895 C1894 1.362 . S
H1896 C1902 0.930 . S
H1897 C1905 0.930 . S
H1898 C1906 0.930 . S
H1899 C1907 0.930 . S
H1900 C1910 0.930 . S
H1901 C1911 0.930 . S
C1902 H1896 0.930 . S
C1902 C1903 1.355 . S
C1902 C1904 1.415 . S
C1903 C1902 1.355 . S
C1903 C1905 1.419 . S
C1904 C1902 1.415 . S
C1904 C1909 1.425 . S
C1904 C1911 1.409 . S
C1905 H1897 0.930 . S
C1905 C1903 1.419 . S
C1905 C1906 1.362 . S
C1906 H1898 0.930 . S
C1906 C1905 1.362 . S
C1906 C1909 1.409 . S
C1907 H1899 0.930 . S
C1907 C1908 1.355 . S
C1907 C1909 1.415 . S
C1908 C1907 1.355 . S
C1908 C1910 1.419 . S
C1909 C1904 1.425 . S
C1909 C1906 1.409 . S
C1909 C1907 1.415 . S
C1910 H1900 0.930 . S
C1910 C1908 1.419 . S
C1910 C1911 1.362 . S
C1911 H1901 0.930 . S
C1911 C1904 1.409 . S
C1911 C1910 1.362 . S
H1912 C1918 0.930 . S
H1913 C1921 0.930 . S
H1914 C1922 0.930 . S
H1915 C1923 0.930 . S
H1916 C1926 0.930 . S
H1917 C1927 0.930 . S
C1918 H1912 0.930 . S
C1918 C1919 1.355 . S
C1918 C1920 1.415 . S
C1919 C1918 1.355 . S
C1919 C1921 1.419 . S
C1920 C1918 1.415 . S
C1920 C1925 1.425 . S
C1920 C1927 1.409 . S
C1921 H1913 0.930 . S
C1921 C1919 1.419 . S
C1921 C1922 1.362 . S
C1922 H1914 0.930 . S
C1922 C1921 1.362 . S
C1922 C1925 1.409 . S
C1923 H1915 0.930 . S
C1923 C1924 1.355 . S
C1923 C1925 1.415 . S
C1924 C1923 1.355 . S
C1924 C1926 1.419 . S
C1925 C1920 1.425 . S
C1925 C1922 1.409 . S
C1925 C1923 1.415 . S
C1926 H1916 0.930 . S
C1926 C1924 1.419 . S
C1926 C1927 1.362 . S
C1927 H1917 0.930 . S
C1927 C1920 1.409 . S
C1927 C1926 1.362 . S
H1928 C1934 0.930 . S
H1929 C1937 0.930 . S
H1930 C1938 0.930 . S
H1931 C1939 0.930 . S
H1932 C1942 0.930 . S
H1933 C1943 0.930 . S
C1934 H1928 0.930 . S
C1934 C1935 1.355 . S
C1934 C1936 1.415 . S
C1935 C1934 1.355 . S
C1935 C1937 1.419 . S
C1936 C1934 1.415 . S
C1936 C1941 1.425 . S
C1936 C1943 1.409 . S
C1937 H1929 0.930 . S
C1937 C1935 1.419 . S
C1937 C1938 1.362 . S
C1938 H1930 0.930 . S
C1938 C1937 1.362 . S
C1938 C1941 1.409 . S
C1939 H1931 0.930 . S
C1939 C1940 1.355 . S
C1939 C1941 1.415 . S
C1940 C1939 1.355 . S
C1940 C1942 1.419 . S
C1941 C1936 1.425 . S
C1941 C1938 1.409 . S
C1941 C1939 1.415 . S
C1942 H1932 0.930 . S
C1942 C1940 1.419 . S
C1942 C1943 1.362 . S
C1943 H1933 0.930 . S
C1943 C1936 1.409 . S
C1943 C1942 1.362 . S
H1944 C1950 0.930 . S
H1945 C1953 0.930 . S
H1946 C1954 0.930 . S
H1947 C1955 0.930 . S
H1948 C1958 0.930 . S
H1949 C1959 0.930 . S
C1950 H1944 0.930 . S
C1950 C1951 1.355 . S
C1950 C1952 1.415 . S
C1951 C1950 1.355 . S
C1951 C1953 1.419 . S
C1952 C1950 1.415 . S
C1952 C1957 1.425 . S
C1952 C1959 1.409 . S
C1953 H1945 0.930 . S
C1953 C1951 1.419 . S
C1953 C1954 1.362 . S
C1954 H1946 0.930 . S
C1954 C1953 1.362 . S
C1954 C1957 1.409 . S
C1955 H1947 0.930 . S
C1955 C1956 1.355 . S
C1955 C1957 1.415 . S
C1956 C1955 1.355 . S
C1956 C1958 1.419 . S
C1957 C1952 1.425 . S
C1957 C1954 1.409 . S
C1957 C1955 1.415 . S
C1958 H1948 0.930 . S
C1958 C1956 1.419 . S
C1958 C1959 1.362 . S
C1959 H1949 0.930 . S
C1959 C1952 1.409 . S
C1959 C1958 1.362 . S
H1960 C1966 0.930 . S
H1961 C1969 0.930 . S
H1962 C1970 0.930 . S
H1963 C1971 0.930 . S
H1964 C1974 0.930 . S
H1965 C1975 0.930 . S
C1966 H1960 0.930 . S
C1966 C1967 1.355 . S
C1966 C1968 1.415 . S
C1967 C1966 1.355 . S
C1967 C1969 1.419 . S
C1968 C1966 1.415 . S
C1968 C1973 1.425 . S
C1968 C1975 1.409 . S
C1969 H1961 0.930 . S
C1969 C1967 1.419 . S
C1969 C1970 1.362 . S
C1970 H1962 0.930 . S
C1970 C1969 1.362 . S
C1970 C1973 1.409 . S
C1971 H1963 0.930 . S
C1971 C1972 1.355 . S
C1971 C1973 1.415 . S
C1972 C1971 1.355 . S
C1972 C1974 1.419 . S
C1973 C1968 1.425 . S
C1973 C1970 1.409 . S
C1973 C1971 1.415 . S
C1974 H1964 0.930 . S
C1974 C1972 1.419 . S
C1974 C1975 1.362 . S
C1975 H1965 0.930 . S
C1975 C1968 1.409 . S
C1975 C1974 1.362 . S
H1976 C1982 0.930 . S
H1977 C1985 0.930 . S
H1978 C1986 0.930 . S
H1979 C1987 0.930 . S
H1980 C1990 0.930 . S
H1981 C1991 0.930 . S
C1982 H1976 0.930 . S
C1982 C1983 1.355 . S
C1982 C1984 1.415 . S
C1983 C1982 1.355 . S
C1983 C1985 1.419 . S
C1984 C1982 1.415 . S
C1984 C1989 1.425 . S
C1984 C1991 1.409 . S
C1985 H1977 0.930 . S
C1985 C1983 1.419 . S
C1985 C1986 1.362 . S
C1986 H1978 0.930 . S
C1986 C1985 1.362 . S
C1986 C1989 1.409 . S
C1987 H1979 0.930 . S
C1987 C1988 1.355 . S
C1987 C1989 1.415 . S
C1988 C1987 1.355 . S
C1988 C1990 1.419 . S
C1989 C1984 1.425 . S
C1989 C1986 1.409 . S
C1989 C1987 1.415 . S
C1990 H1980 0.930 . S
C1990 C1988 1.419 . S
C1990 C1991 1.362 . S
C1991 H1981 0.930 . S
C1991 C1984 1.409 . S
C1991 C1990 1.362 . S
H1992 C1998 0.930 . S
H1993 C2001 0.930 1_554 S
H1994 C2002 0.930 . S
H1995 C2003 0.930 . S
H1996 C2006 0.930 . S
H1997 C2007 0.930 . S
C1998 H1992 0.930 . S
C1998 C1999 1.355 . S
C1998 C2000 1.415 . S
C1999 C1998 1.355 . S
C1999 C2001 1.419 . S
C2000 C1998 1.415 . S
C2000 C2005 1.425 . S
C2000 C2007 1.409 . S
C2001 H1993 0.930 1_556 S
C2001 C1999 1.419 . S
C2001 C2002 1.362 . S
C2002 H1994 0.930 . S
C2002 C2001 1.362 . S
C2002 C2005 1.409 . S
C2003 H1995 0.930 . S
C2003 C2004 1.355 . S
C2003 C2005 1.415 . S
C2004 C2003 1.355 . S
C2004 C2006 1.419 . S
C2005 C2000 1.425 . S
C2005 C2002 1.409 . S
C2005 C2003 1.415 . S
C2006 H1996 0.930 . S
C2006 C2004 1.419 . S
C2006 C2007 1.362 . S
C2007 H1997 0.930 . S
C2007 C2000 1.409 . S
C2007 C2006 1.362 . S
H2008 C2014 0.930 1_554 S
H2009 C2017 0.930 . S
H2010 C2018 0.930 . S
H2011 C2019 0.930 . S
H2012 C2022 0.930 . S
H2013 C2023 0.930 1_554 S
C2014 H2008 0.930 1_556 S
C2014 C2015 1.355 . S
C2014 C2016 1.415 . S
C2015 C2014 1.355 . S
C2015 C2017 1.419 . S
C2016 C2014 1.415 . S
C2016 C2021 1.425 . S
C2016 C2023 1.409 . S
C2017 H2009 0.930 . S
C2017 C2015 1.419 . S
C2017 C2018 1.362 . S
C2018 H2010 0.930 . S
C2018 C2017 1.362 . S
C2018 C2021 1.409 . S
C2019 H2011 0.930 . S
C2019 C2020 1.355 . S
C2019 C2021 1.415 . S
C2020 C2019 1.355 . S
C2020 C2022 1.419 . S
C2021 C2016 1.425 . S
C2021 C2018 1.409 . S
C2021 C2019 1.415 . S
C2022 H2012 0.930 . S
C2022 C2020 1.419 . S
C2022 C2023 1.362 . S
C2023 H2013 0.930 1_556 S
C2023 C2016 1.409 . S
C2023 C2022 1.362 . S
H2024 C2030 0.930 1_554 S
H2025 C2033 0.930 . S
H2026 C2034 0.930 . S
H2027 C2035 0.930 . S
H2028 C2038 0.930 . S
H2029 C2039 0.930 . S
C2030 H2024 0.930 1_556 S
C2030 C2031 1.355 . S
C2030 C2032 1.415 . S
C2031 C2030 1.355 . S
C2031 C2033 1.419 . S
C2032 C2030 1.415 . S
C2032 C2037 1.425 . S
C2032 C2039 1.409 . S
C2033 H2025 0.930 . S
C2033 C2031 1.419 . S
C2033 C2034 1.362 . S
C2034 H2026 0.930 . S
C2034 C2033 1.362 . S
C2034 C2037 1.409 . S
C2035 H2027 0.930 . S
C2035 C2036 1.355 . S
C2035 C2037 1.415 . S
C2036 C2035 1.355 . S
C2036 C2038 1.419 . S
C2037 C2032 1.425 . S
C2037 C2034 1.409 . S
C2037 C2035 1.415 . S
C2038 H2028 0.930 . S
C2038 C2036 1.419 . S
C2038 C2039 1.362 . S
C2039 H2029 0.930 . S
C2039 C2032 1.409 . S
C2039 C2038 1.362 . S
H2040 C2046 0.930 1_554 S
H2041 C2049 0.930 . S
H2042 C2050 0.930 . S
H2043 C2051 0.930 . S
H2044 C2054 0.930 . S
H2045 C2055 0.930 1_554 S
C2046 H2040 0.930 1_556 S
C2046 C2047 1.355 . S
C2046 C2048 1.415 . S
C2047 C2046 1.355 . S
C2047 C2049 1.419 . S
C2048 C2046 1.415 . S
C2048 C2053 1.425 . S
C2048 C2055 1.409 . S
C2049 H2041 0.930 . S
C2049 C2047 1.419 . S
C2049 C2050 1.362 . S
C2050 H2042 0.930 . S
C2050 C2049 1.362 . S
C2050 C2053 1.409 . S
C2051 H2043 0.930 . S
C2051 C2052 1.355 . S
C2051 C2053 1.415 . S
C2052 C2051 1.355 . S
C2052 C2054 1.419 . S
C2053 C2048 1.425 . S
C2053 C2050 1.409 . S
C2053 C2051 1.415 . S
C2054 H2044 0.930 . S
C2054 C2052 1.419 . S
C2054 C2055 1.362 . S
C2055 H2045 0.930 1_556 S
C2055 C2048 1.409 . S
C2055 C2054 1.362 . S
H2056 C2062 0.930 . S
H2057 C2065 0.930 . S
H2058 C2066 0.930 . S
H2059 C2067 0.930 . S
H2060 C2070 0.930 . S
H2061 C2071 0.930 . S
C2062 H2056 0.930 . S
C2062 C2063 1.355 . S
C2062 C2064 1.415 . S
C2063 C2062 1.355 . S
C2063 C2065 1.419 . S
C2064 C2062 1.415 . S
C2064 C2069 1.425 . S
C2064 C2071 1.409 . S
C2065 H2057 0.930 . S
C2065 C2063 1.419 . S
C2065 C2066 1.362 . S
C2066 H2058 0.930 . S
C2066 C2065 1.362 . S
C2066 C2069 1.409 . S
C2067 H2059 0.930 . S
C2067 C2068 1.355 . S
C2067 C2069 1.415 . S
C2068 C2067 1.355 . S
C2068 C2070 1.419 . S
C2069 C2064 1.425 . S
C2069 C2066 1.409 . S
C2069 C2067 1.415 . S
C2070 H2060 0.930 . S
C2070 C2068 1.419 . S
C2070 C2071 1.362 . S
C2071 H2061 0.930 . S
C2071 C2064 1.409 . S
C2071 C2070 1.362 . S
H2072 C2078 0.930 . S
H2073 C2081 0.930 1_554 S
H2074 C2082 0.930 . S
H2075 C2083 0.930 . S
H2076 C2086 0.930 . S
H2077 C2087 0.930 . S
C2078 H2072 0.930 . S
C2078 C2079 1.355 . S
C2078 C2080 1.415 . S
C2079 C2078 1.355 . S
C2079 C2081 1.419 . S
C2080 C2078 1.415 . S
C2080 C2085 1.425 . S
C2080 C2087 1.409 . S
C2081 H2073 0.930 1_556 S
C2081 C2079 1.419 . S
C2081 C2082 1.362 . S
C2082 H2074 0.930 . S
C2082 C2081 1.362 . S
C2082 C2085 1.409 . S
C2083 H2075 0.930 . S
C2083 C2084 1.355 . S
C2083 C2085 1.415 . S
C2084 C2083 1.355 . S
C2084 C2086 1.419 . S
C2085 C2080 1.425 . S
C2085 C2082 1.409 . S
C2085 C2083 1.415 . S
C2086 H2076 0.930 . S
C2086 C2084 1.419 . S
C2086 C2087 1.362 . S
C2087 H2077 0.930 . S
C2087 C2080 1.409 . S
C2087 C2086 1.362 . S
H2088 C2094 0.930 . S
H2089 C2097 0.930 . S
H2090 C2098 0.930 . S
H2091 C2099 0.930 . S
H2092 C2102 0.930 . S
H2093 C2103 0.930 . S
C2094 H2088 0.930 . S
C2094 C2095 1.355 . S
C2094 C2096 1.415 . S
C2095 C2094 1.355 . S
C2095 C2097 1.419 . S
C2096 C2094 1.415 . S
C2096 C2101 1.425 . S
C2096 C2103 1.409 . S
C2097 H2089 0.930 . S
C2097 C2095 1.419 . S
C2097 C2098 1.362 . S
C2098 H2090 0.930 . S
C2098 C2097 1.362 . S
C2098 C2101 1.409 . S
C2099 H2091 0.930 . S
C2099 C2100 1.355 . S
C2099 C2101 1.415 . S
C2100 C2099 1.355 . S
C2100 C2102 1.419 . S
C2101 C2096 1.425 . S
C2101 C2098 1.409 . S
C2101 C2099 1.415 . S
C2102 H2092 0.930 . S
C2102 C2100 1.419 . S
C2102 C2103 1.362 . S
C2103 H2093 0.930 . S
C2103 C2096 1.409 . S
C2103 C2102 1.362 . S
H2104 C2110 0.930 . S
H2105 C2113 0.930 . S
H2106 C2114 0.930 . S
H2107 C2115 0.930 . S
H2108 C2118 0.930 . S
H2109 C2119 0.930 . S
C2110 H2104 0.930 . S
C2110 C2111 1.355 . S
C2110 C2112 1.415 . S
C2111 C2110 1.355 . S
C2111 C2113 1.419 . S
C2112 C2110 1.415 . S
C2112 C2117 1.425 . S
C2112 C2119 1.409 . S
C2113 H2105 0.930 . S
C2113 C2111 1.419 . S
C2113 C2114 1.362 . S
C2114 H2106 0.930 . S
C2114 C2113 1.362 . S
C2114 C2117 1.409 . S
C2115 H2107 0.930 . S
C2115 C2116 1.355 . S
C2115 C2117 1.415 . S
C2116 C2115 1.355 . S
C2116 C2118 1.419 . S
C2117 C2112 1.425 . S
C2117 C2114 1.409 . S
C2117 C2115 1.415 . S
C2118 H2108 0.930 . S
C2118 C2116 1.419 . S
C2118 C2119 1.362 . S
C2119 H2109 0.930 . S
C2119 C2112 1.409 . S
C2119 C2118 1.362 . S
H2120 C2126 0.930 . S
H2121 C2129 0.930 . S
H2122 C2130 0.930 . S
H2123 C2131 0.930 . S
H2124 C2134 0.930 . S
H2125 C2135 0.930 . S
C2126 H2120 0.930 . S
C2126 C2127 1.355 . S
C2126 C2128 1.415 . S
C2127 C2126 1.355 . S
C2127 C2129 1.419 . S
C2128 C2126 1.415 . S
C2128 C2133 1.425 . S
C2128 C2135 1.409 . S
C2129 H2121 0.930 . S
C2129 C2127 1.419 . S
C2129 C2130 1.362 . S
C2130 H2122 0.930 . S
C2130 C2129 1.362 . S
C2130 C2133 1.409 . S
C2131 H2123 0.930 . S
C2131 C2132 1.355 . S
C2131 C2133 1.415 . S
C2132 C2131 1.355 . S
C2132 C2134 1.419 . S
C2133 C2128 1.425 . S
C2133 C2130 1.409 . S
C2133 C2131 1.415 . S
C2134 H2124 0.930 . S
C2134 C2132 1.419 . S
C2134 C2135 1.362 . S
C2135 H2125 0.930 . S
C2135 C2128 1.409 . S
C2135 C2134 1.362 . S
H2136 C2142 0.930 . S
H2137 C2145 0.930 . S
H2138 C2146 0.930 . S
H2139 C2147 0.930 . S
H2140 C2150 0.930 . S
H2141 C2151 0.930 . S
C2142 H2136 0.930 . S
C2142 C2143 1.355 . S
C2142 C2144 1.415 . S
C2143 C2142 1.355 . S
C2143 C2145 1.419 . S
C2144 C2142 1.415 . S
C2144 C2149 1.425 . S
C2144 C2151 1.409 . S
C2145 H2137 0.930 . S
C2145 C2143 1.419 . S
C2145 C2146 1.362 . S
C2146 H2138 0.930 . S
C2146 C2145 1.362 . S
C2146 C2149 1.409 . S
C2147 H2139 0.930 . S
C2147 C2148 1.355 . S
C2147 C2149 1.415 . S
C2148 C2147 1.355 . S
C2148 C2150 1.419 . S
C2149 C2144 1.425 . S
C2149 C2146 1.409 . S
C2149 C2147 1.415 . S
C2150 H2140 0.930 . S
C2150 C2148 1.419 . S
C2150 C2151 1.362 . S
C2151 H2141 0.930 . S
C2151 C2144 1.409 . S
C2151 C2150 1.362 . S
H2152 C2158 0.930 . S
H2153 C2161 0.930 . S
H2154 C2162 0.930 . S
H2155 C2163 0.930 . S
H2156 C2166 0.930 . S
H2157 C2167 0.930 . S
C2158 H2152 0.930 . S
C2158 C2159 1.355 . S
C2158 C2160 1.415 . S
C2159 C2158 1.355 . S
C2159 C2161 1.419 . S
C2160 C2158 1.415 . S
C2160 C2165 1.425 . S
C2160 C2167 1.409 . S
C2161 H2153 0.930 . S
C2161 C2159 1.419 . S
C2161 C2162 1.362 . S
C2162 H2154 0.930 . S
C2162 C2161 1.362 . S
C2162 C2165 1.409 . S
C2163 H2155 0.930 . S
C2163 C2164 1.355 . S
C2163 C2165 1.415 . S
C2164 C2163 1.355 . S
C2164 C2166 1.419 . S
C2165 C2160 1.425 . S
C2165 C2162 1.409 . S
C2165 C2163 1.415 . S
C2166 H2156 0.930 . S
C2166 C2164 1.419 . S
C2166 C2167 1.362 . S
C2167 H2157 0.930 . S
C2167 C2160 1.409 . S
C2167 C2166 1.362 . S
H2168 C2174 0.930 . S
H2169 C2177 0.930 . S
H2170 C2178 0.930 . S
H2171 C2179 0.930 . S
H2172 C2182 0.930 . S
H2173 C2183 0.930 . S
C2174 H2168 0.930 . S
C2174 C2175 1.355 . S
C2174 C2176 1.415 . S
C2175 C2174 1.355 . S
C2175 C2177 1.419 . S
C2176 C2174 1.415 . S
C2176 C2181 1.425 . S
C2176 C2183 1.409 . S
C2177 H2169 0.930 . S
C2177 C2175 1.419 . S
C2177 C2178 1.362 . S
C2178 H2170 0.930 . S
C2178 C2177 1.362 . S
C2178 C2181 1.409 . S
C2179 H2171 0.930 . S
C2179 C2180 1.355 . S
C2179 C2181 1.415 . S
C2180 C2179 1.355 . S
C2180 C2182 1.419 . S
C2181 C2176 1.425 . S
C2181 C2178 1.409 . S
C2181 C2179 1.415 . S
C2182 H2172 0.930 . S
C2182 C2180 1.419 . S
C2182 C2183 1.362 . S
C2183 H2173 0.930 . S
C2183 C2176 1.409 . S
C2183 C2182 1.362 . S
H2184 C2190 0.930 . S
H2185 C2193 0.930 1_655 S
H2186 C2194 0.930 . S
H2187 C2195 0.913 1_655 S
H2188 C2198 0.930 . S
H2189 C2199 0.930 . S
C2190 H2184 0.930 . S
C2190 C2191 1.355 . S
C2190 C2192 1.415 . S
C2191 C2190 1.355 . S
C2191 C2193 1.419 . S
C2192 C2190 1.415 . S
C2192 C2197 1.425 . S
C2192 C2199 1.409 . S
C2193 H2185 0.930 1_455 S
C2193 C2191 1.419 . S
C2193 C2194 1.362 1_455 S
C2194 H2186 0.930 . S
C2194 C2193 1.362 1_655 S
C2194 C2197 1.409 1_655 S
C2195 H2187 0.913 1_455 S
C2195 C2196 1.356 . S
C2195 C2197 1.430 . S
C2196 C2195 1.356 . S
C2196 C2198 1.419 . S
C2197 C2192 1.425 . S
C2197 C2194 1.409 1_455 S
C2197 C2195 1.430 . S
C2198 H2188 0.930 . S
C2198 C2196 1.419 . S
C2198 C2199 1.362 . S
C2199 H2189 0.930 . S
C2199 C2192 1.409 . S
C2199 C2198 1.362 . S
H2200 C2206 0.930 . S
H2201 C2209 0.930 . S
H2202 C2210 0.930 . S
H2203 C2211 0.930 . S
H2204 C2214 0.930 . S
H2205 C2215 0.930 . S
C2206 H2200 0.930 . S
C2206 C2207 1.355 . S
C2206 C2208 1.415 . S
C2207 C2206 1.355 . S
C2207 C2209 1.419 . S
C2208 C2206 1.415 . S
C2208 C2213 1.425 . S
C2208 C2215 1.409 . S
C2209 H2201 0.930 . S
C2209 C2207 1.419 . S
C2209 C2210 1.362 . S
C2210 H2202 0.930 . S
C2210 C2209 1.362 . S
C2210 C2213 1.409 . S
C2211 H2203 0.930 . S
C2211 C2212 1.355 . S
C2211 C2213 1.415 . S
C2212 C2211 1.355 . S
C2212 C2214 1.419 . S
C2213 C2208 1.425 . S
C2213 C2210 1.409 . S
C2213 C2211 1.415 . S
C2214 H2204 0.930 . S
C2214 C2212 1.419 . S
C2214 C2215 1.362 . S
C2215 H2205 0.930 . S
C2215 C2208 1.409 . S
C2215 C2214 1.362 . S
H2216 C2222 0.930 . S
H2217 C2225 0.874 1_545 S
H2218 C2226 0.930 . S
H2219 C2227 0.919 1_545 S
H2220 C2230 0.930 . S
H2221 C2231 0.930 . S
C2222 H2216 0.930 . S
C2222 C2223 1.355 . S
C2222 C2224 1.415 . S
C2223 C2222 1.355 . S
C2223 C2225 1.464 . S
C2224 C2222 1.415 . S
C2224 C2229 1.425 . S
C2224 C2231 1.409 . S
C2225 H2217 0.874 1_565 S
C2225 C2223 1.464 . S
C2225 C2226 1.377 1_565 S
C2226 H2218 0.930 . S
C2226 C2225 1.377 1_545 S
C2226 C2229 1.409 1_545 S
C2227 H2219 0.919 1_565 S
C2227 C2228 1.368 . S
C2227 C2229 1.411 . S
C2228 C2227 1.368 . S
C2228 C2230 1.419 . S
C2229 C2224 1.425 . S
C2229 C2226 1.409 1_565 S
C2229 C2227 1.411 . S
C2230 H2220 0.930 . S
C2230 C2228 1.419 . S
C2230 C2231 1.362 . S
C2231 H2221 0.930 . S
C2231 C2224 1.409 . S
C2231 C2230 1.362 . S
H2232 C2238 0.930 . S
H2233 C2241 0.930 . S
H2234 C2242 0.930 . S
H2235 C2243 0.930 . S
H2236 C2246 0.930 . S
H2237 C2247 0.930 . S
C2238 H2232 0.930 . S
C2238 C2239 1.355 . S
C2238 C2240 1.415 . S
C2239 C2238 1.355 . S
C2239 C2241 1.419 . S
C2240 C2238 1.415 . S
C2240 C2245 1.425 . S
C2240 C2247 1.409 1_565 S
C2241 H2233 0.930 . S
C2241 C2239 1.419 . S
C2241 C2242 1.362 . S
C2242 H2234 0.930 . S
C2242 C2241 1.362 . S
C2242 C2245 1.409 . S
C2243 H2235 0.930 . S
C2243 C2244 1.355 . S
C2243 C2245 1.415 . S
C2244 C2243 1.355 . S
C2244 C2246 1.419 1_565 S
C2245 C2240 1.425 . S
C2245 C2242 1.409 . S
C2245 C2243 1.415 . S
C2246 H2236 0.930 . S
C2246 C2244 1.419 1_545 S
C2246 C2247 1.362 . S
C2247 H2237 0.930 . S
C2247 C2240 1.409 1_545 S
C2247 C2246 1.362 . S
H2248 C2254 0.930 . S
H2249 C2257 0.910 1_655 S
H2250 C2258 0.957 . S
H2251 C2259 0.930 1_655 S
H2252 C2262 0.930 . S
H2253 C2263 0.930 . S
C2254 H2248 0.930 . S
C2254 C2255 1.355 . S
C2254 C2256 1.415 . S
C2255 C2254 1.355 . S
C2255 C2257 1.419 . S
C2256 C2254 1.415 . S
C2256 C2261 1.425 . S
C2256 C2263 1.409 . S
C2257 H2249 0.910 1_455 S
C2257 C2255 1.419 . S
C2257 C2258 1.377 1_455 S
C2258 H2250 0.957 . S
C2258 C2257 1.377 1_655 S
C2258 C2261 1.372 1_655 S
C2259 H2251 0.930 1_455 S
C2259 C2260 1.355 . S
C2259 C2261 1.415 . S
C2260 C2259 1.355 . S
C2260 C2262 1.419 . S
C2261 C2256 1.425 . S
C2261 C2258 1.372 1_455 S
C2261 C2259 1.415 . S
C2262 H2252 0.930 . S
C2262 C2260 1.419 . S
C2262 C2263 1.362 . S
C2263 H2253 0.930 . S
C2263 C2256 1.409 . S
C2263 C2262 1.362 . S
H2264 C2270 0.930 . S
H2265 C2273 0.930 . S
H2266 C2274 0.930 . S
H2267 C2275 0.930 . S
H2268 C2278 0.930 . S
H2269 C2279 0.930 . S
C2270 H2264 0.930 . S
C2270 C2271 1.355 . S
C2270 C2272 1.415 . S
C2271 C2270 1.355 . S
C2271 C2273 1.419 . S
C2272 C2270 1.415 . S
C2272 C2277 1.425 . S
C2272 C2279 1.409 . S
C2273 H2265 0.930 . S
C2273 C2271 1.419 . S
C2273 C2274 1.362 . S
C2274 H2266 0.930 . S
C2274 C2273 1.362 . S
C2274 C2277 1.409 . S
C2275 H2267 0.930 . S
C2275 C2276 1.355 . S
C2275 C2277 1.415 . S
C2276 C2275 1.355 . S
C2276 C2278 1.419 . S
C2277 C2272 1.425 . S
C2277 C2274 1.409 . S
C2277 C2275 1.415 . S
C2278 H2268 0.930 . S
C2278 C2276 1.419 . S
C2278 C2279 1.362 . S
C2279 H2269 0.930 . S
C2279 C2272 1.409 . S
C2279 C2278 1.362 . S
H2280 C2286 0.930 . S
H2281 C2289 0.930 . S
H2282 C2290 0.930 . S
H2283 C2291 0.930 . S
H2284 C2294 0.930 . S
H2285 C2295 0.930 . S
C2286 H2280 0.930 . S
C2286 C2287 1.355 . S
C2286 C2288 1.415 . S
C2287 C2286 1.355 . S
C2287 C2289 1.419 . S
C2288 C2286 1.415 . S
C2288 C2293 1.425 . S
C2288 C2295 1.409 . S
C2289 H2281 0.930 . S
C2289 C2287 1.419 . S
C2289 C2290 1.362 . S
C2290 H2282 0.930 . S
C2290 C2289 1.362 . S
C2290 C2293 1.409 . S
C2291 H2283 0.930 . S
C2291 C2292 1.355 . S
C2291 C2293 1.415 . S
C2292 C2291 1.355 . S
C2292 C2294 1.419 . S
C2293 C2288 1.425 . S
C2293 C2290 1.409 . S
C2293 C2291 1.415 . S
C2294 H2284 0.930 . S
C2294 C2292 1.419 . S
C2294 C2295 1.362 . S
C2295 H2285 0.930 . S
C2295 C2288 1.409 . S
C2295 C2294 1.362 . S
H2296 C2302 0.930 . S
H2297 C2305 0.930 . S
H2298 C2306 0.930 . S
H2299 C2307 0.930 . S
H2300 C2310 0.930 . S
H2301 C2311 0.930 . S
C2302 H2296 0.930 . S
C2302 C2303 1.355 . S
C2302 C2304 1.415 . S
C2303 C2302 1.355 . S
C2303 C2305 1.419 . S
C2304 C2302 1.415 . S
C2304 C2309 1.425 . S
C2304 C2311 1.409 . S
C2305 H2297 0.930 . S
C2305 C2303 1.419 . S
C2305 C2306 1.362 . S
C2306 H2298 0.930 . S
C2306 C2305 1.362 . S
C2306 C2309 1.409 . S
C2307 H2299 0.930 . S
C2307 C2308 1.355 . S
C2307 C2309 1.415 . S
C2308 C2307 1.355 . S
C2308 C2310 1.419 . S
C2309 C2304 1.425 . S
C2309 C2306 1.409 . S
C2309 C2307 1.415 . S
C2310 H2300 0.930 . S
C2310 C2308 1.419 . S
C2310 C2311 1.362 . S
C2311 H2301 0.930 . S
C2311 C2304 1.409 . S
C2311 C2310 1.362 . S
H2312 C2318 0.930 . S
H2313 C2321 0.930 . S
H2314 C2322 0.930 . S
H2315 C2323 0.930 . S
H2316 C2326 0.930 . S
H2317 C2327 0.930 . S
C2318 H2312 0.930 . S
C2318 C2319 1.355 . S
C2318 C2320 1.415 . S
C2319 C2318 1.355 . S
C2319 C2321 1.419 . S
C2320 C2318 1.415 . S
C2320 C2325 1.425 . S
C2320 C2327 1.409 . S
C2321 H2313 0.930 . S
C2321 C2319 1.419 . S
C2321 C2322 1.362 . S
C2322 H2314 0.930 . S
C2322 C2321 1.362 . S
C2322 C2325 1.409 . S
C2323 H2315 0.930 . S
C2323 C2324 1.355 . S
C2323 C2325 1.415 . S
C2324 C2323 1.355 . S
C2324 C2326 1.419 . S
C2325 C2320 1.425 . S
C2325 C2322 1.409 . S
C2325 C2323 1.415 . S
C2326 H2316 0.930 . S
C2326 C2324 1.419 . S
C2326 C2327 1.362 . S
C2327 H2317 0.930 . S
C2327 C2320 1.409 . S
C2327 C2326 1.362 . S
H2328 C2334 0.930 . S
H2329 C2337 0.930 . S
H2330 C2338 0.930 . S
H2331 C2339 0.930 . S
H2332 C2342 0.930 . S
H2333 C2343 0.930 . S
C2334 H2328 0.930 . S
C2334 C2335 1.355 . S
C2334 C2336 1.415 . S
C2335 C2334 1.355 . S
C2335 C2337 1.419 . S
C2336 C2334 1.415 . S
C2336 C2341 1.425 . S
C2336 C2343 1.409 . S
C2337 H2329 0.930 . S
C2337 C2335 1.419 . S
C2337 C2338 1.362 . S
C2338 H2330 0.930 . S
C2338 C2337 1.362 . S
C2338 C2341 1.409 . S
C2339 H2331 0.930 . S
C2339 C2340 1.355 . S
C2339 C2341 1.415 . S
C2340 C2339 1.355 . S
C2340 C2342 1.419 . S
C2341 C2336 1.425 . S
C2341 C2338 1.409 . S
C2341 C2339 1.415 . S
C2342 H2332 0.930 . S
C2342 C2340 1.419 . S
C2342 C2343 1.362 . S
C2343 H2333 0.930 . S
C2343 C2336 1.409 . S
C2343 C2342 1.362 . S
H2344 C2350 0.930 1_455 S
H2345 C2353 0.930 . S
H2346 C2354 0.930 . S
H2347 C2355 0.930 . S
H2348 C2358 0.930 . S
H2349 C2359 0.930 . S
C2350 H2344 0.930 1_655 S
C2350 C2351 1.355 . S
C2350 C2352 1.415 . S
C2351 C2350 1.355 . S
C2351 C2353 1.419 . S
C2352 C2350 1.415 . S
C2352 C2357 1.425 . S
C2352 C2359 1.409 1_655 S
C2353 H2345 0.930 . S
C2353 C2351 1.419 . S
C2353 C2354 1.362 . S
C2354 H2346 0.930 . S
C2354 C2353 1.362 . S
C2354 C2357 1.409 . S
C2355 H2347 0.930 . S
C2355 C2356 1.355 . S
C2355 C2357 1.415 . S
C2356 C2355 1.355 . S
C2356 C2358 1.419 1_655 S
C2357 C2352 1.425 . S
C2357 C2354 1.409 . S
C2357 C2355 1.415 . S
C2358 H2348 0.930 . S
C2358 C2356 1.419 1_455 S
C2358 C2359 1.362 . S
C2359 H2349 0.930 . S
C2359 C2352 1.409 1_455 S
C2359 C2358 1.362 . S
H2360 C2366 0.930 . S
H2361 C2369 0.930 . S
H2362 C2370 0.930 . S
H2363 C2371 0.930 . S
H2364 C2374 0.930 . S
H2365 C2375 0.930 . S
C2366 H2360 0.930 . S
C2366 C2367 1.355 . S
C2366 C2368 1.415 . S
C2367 C2366 1.355 . S
C2367 C2369 1.419 . S
C2368 C2366 1.415 . S
C2368 C2373 1.425 . S
C2368 C2375 1.409 . S
C2369 H2361 0.930 . S
C2369 C2367 1.419 . S
C2369 C2370 1.362 . S
C2370 H2362 0.930 . S
C2370 C2369 1.362 . S
C2370 C2373 1.409 . S
C2371 H2363 0.930 . S
C2371 C2372 1.355 . S
C2371 C2373 1.415 . S
C2372 C2371 1.355 . S
C2372 C2374 1.419 . S
C2373 C2368 1.425 . S
C2373 C2370 1.409 . S
C2373 C2371 1.415 . S
C2374 H2364 0.930 . S
C2374 C2372 1.419 . S
C2374 C2375 1.362 . S
C2375 H2365 0.930 . S
C2375 C2368 1.409 . S
C2375 C2374 1.362 . S
H2376 C2382 0.930 . S
H2377 C2385 0.930 . S
H2378 C2386 0.930 . S
H2379 C2387 0.930 . S
H2380 C2390 0.930 . S
H2381 C2391 0.930 . S
C2382 H2376 0.930 . S
C2382 C2383 1.355 . S
C2382 C2384 1.415 . S
C2383 C2382 1.355 . S
C2383 C2385 1.419 . S
C2384 C2382 1.415 . S
C2384 C2389 1.425 . S
C2384 C2391 1.409 . S
C2385 H2377 0.930 . S
C2385 C2383 1.419 . S
C2385 C2386 1.362 . S
C2386 H2378 0.930 . S
C2386 C2385 1.362 . S
C2386 C2389 1.409 . S
C2387 H2379 0.930 . S
C2387 C2388 1.355 . S
C2387 C2389 1.415 . S
C2388 C2387 1.355 . S
C2388 C2390 1.419 . S
C2389 C2384 1.425 . S
C2389 C2386 1.409 . S
C2389 C2387 1.415 . S
C2390 H2380 0.930 . S
C2390 C2388 1.419 . S
C2390 C2391 1.362 . S
C2391 H2381 0.930 . S
C2391 C2384 1.409 . S
C2391 C2390 1.362 . S
H2392 C2398 0.930 . S
H2393 C2401 0.930 . S
H2394 C2402 0.930 . S
H2395 C2403 0.930 . S
H2396 C2406 0.930 . S
H2397 C2407 0.930 . S
C2398 H2392 0.930 . S
C2398 C2399 1.355 . S
C2398 C2400 1.415 . S
C2399 C2398 1.355 . S
C2399 C2401 1.419 . S
C2400 C2398 1.415 . S
C2400 C2405 1.425 . S
C2400 C2407 1.409 . S
C2401 H2393 0.930 . S
C2401 C2399 1.419 . S
C2401 C2402 1.362 . S
C2402 H2394 0.930 . S
C2402 C2401 1.362 . S
C2402 C2405 1.409 . S
C2403 H2395 0.930 . S
C2403 C2404 1.355 . S
C2403 C2405 1.415 . S
C2404 C2403 1.355 . S
C2404 C2406 1.419 . S
C2405 C2400 1.425 . S
C2405 C2402 1.409 . S
C2405 C2403 1.415 . S
C2406 H2396 0.930 . S
C2406 C2404 1.419 . S
C2406 C2407 1.362 . S
C2407 H2397 0.930 . S
C2407 C2400 1.409 . S
C2407 C2406 1.362 . S
H2408 C2414 0.930 . S
H2409 C2417 0.930 . S
H2410 C2418 0.930 . S
H2411 C2419 0.930 . S
H2412 C2422 0.930 . S
H2413 C2423 0.930 . S
C2414 H2408 0.930 . S
C2414 C2415 1.355 . S
C2414 C2416 1.415 . S
C2415 C2414 1.355 . S
C2415 C2417 1.419 . S
C2416 C2414 1.415 . S
C2416 C2421 1.425 . S
C2416 C2423 1.409 . S
C2417 H2409 0.930 . S
C2417 C2415 1.419 . S
C2417 C2418 1.362 . S
C2418 H2410 0.930 . S
C2418 C2417 1.362 . S
C2418 C2421 1.409 . S
C2419 H2411 0.930 . S
C2419 C2420 1.355 . S
C2419 C2421 1.415 . S
C2420 C2419 1.355 . S
C2420 C2422 1.419 . S
C2421 C2416 1.425 . S
C2421 C2418 1.409 . S
C2421 C2419 1.415 . S
C2422 H2412 0.930 . S
C2422 C2420 1.419 . S
C2422 C2423 1.362 . S
C2423 H2413 0.930 . S
C2423 C2416 1.409 . S
C2423 C2422 1.362 . S
H2424 C2430 0.930 . S
H2425 C2433 0.930 . S
H2426 C2434 0.930 . S
H2427 C2435 0.930 . S
H2428 C2438 0.930 . S
H2429 C2439 0.930 . S
C2430 H2424 0.930 . S
C2430 C2431 1.355 . S
C2430 C2432 1.415 . S
C2431 C2430 1.355 . S
C2431 C2433 1.419 . S
C2432 C2430 1.415 . S
C2432 C2437 1.425 . S
C2432 C2439 1.409 . S
C2433 H2425 0.930 . S
C2433 C2431 1.419 . S
C2433 C2434 1.362 . S
C2434 H2426 0.930 . S
C2434 C2433 1.362 . S
C2434 C2437 1.409 . S
C2435 H2427 0.930 . S
C2435 C2436 1.355 . S
C2435 C2437 1.415 . S
C2436 C2435 1.355 . S
C2436 C2438 1.419 . S
C2437 C2432 1.425 . S
C2437 C2434 1.409 . S
C2437 C2435 1.415 . S
C2438 H2428 0.930 . S
C2438 C2436 1.419 . S
C2438 C2439 1.362 . S
C2439 H2429 0.930 . S
C2439 C2432 1.409 . S
C2439 C2438 1.362 . S
H2440 C2446 0.930 . S
H2441 C2449 0.930 . S
H2442 C2450 0.930 . S
H2443 C2451 0.930 . S
H2444 C2454 0.930 . S
H2445 C2455 0.930 . S
C2446 H2440 0.930 . S
C2446 C2447 1.355 . S
C2446 C2448 1.415 . S
C2447 C2446 1.355 . S
C2447 C2449 1.419 . S
C2448 C2446 1.415 . S
C2448 C2453 1.425 . S
C2448 C2455 1.409 . S
C2449 H2441 0.930 . S
C2449 C2447 1.419 . S
C2449 C2450 1.362 . S
C2450 H2442 0.930 . S
C2450 C2449 1.362 . S
C2450 C2453 1.409 . S
C2451 H2443 0.930 . S
C2451 C2452 1.355 . S
C2451 C2453 1.415 . S
C2452 C2451 1.355 . S
C2452 C2454 1.419 . S
C2453 C2448 1.425 . S
C2453 C2450 1.409 . S
C2453 C2451 1.415 . S
C2454 H2444 0.930 . S
C2454 C2452 1.419 . S
C2454 C2455 1.362 . S
C2455 H2445 0.930 . S
C2455 C2448 1.409 . S
C2455 C2454 1.362 . S
H2456 C2462 0.930 . S
H2457 C2465 0.930 . S
H2458 C2466 0.930 . S
H2459 C2467 0.930 . S
H2460 C2470 0.930 . S
H2461 C2471 0.930 . S
C2462 H2456 0.930 . S
C2462 C2463 1.355 . S
C2462 C2464 1.415 . S
C2463 C2462 1.355 . S
C2463 C2465 1.419 . S
C2464 C2462 1.415 . S
C2464 C2469 1.425 . S
C2464 C2471 1.409 . S
C2465 H2457 0.930 . S
C2465 C2463 1.419 . S
C2465 C2466 1.362 . S
C2466 H2458 0.930 . S
C2466 C2465 1.362 . S
C2466 C2469 1.409 . S
C2467 H2459 0.930 . S
C2467 C2468 1.355 . S
C2467 C2469 1.415 . S
C2468 C2467 1.355 . S
C2468 C2470 1.419 . S
C2469 C2464 1.425 . S
C2469 C2466 1.409 . S
C2469 C2467 1.415 . S
C2470 H2460 0.930 . S
C2470 C2468 1.419 . S
C2470 C2471 1.362 . S
C2471 H2461 0.930 . S
C2471 C2464 1.409 . S
C2471 C2470 1.362 . S
H2472 C2478 0.930 1_455 S
H2473 C2481 0.930 . S
H2474 C2482 0.930 . S
H2475 C2483 0.930 . S
H2476 C2486 0.930 . S
H2477 C2487 0.930 . S
C2478 H2472 0.930 1_655 S
C2478 C2479 1.355 . S
C2478 C2480 1.415 . S
C2479 C2478 1.355 . S
C2479 C2481 1.419 . S
C2480 C2478 1.415 . S
C2480 C2485 1.425 . S
C2480 C2487 1.409 1_655 S
C2481 H2473 0.930 . S
C2481 C2479 1.419 . S
C2481 C2482 1.362 . S
C2482 H2474 0.930 . S
C2482 C2481 1.362 . S
C2482 C2485 1.409 . S
C2483 H2475 0.930 . S
C2483 C2484 1.355 . S
C2483 C2485 1.415 . S
C2484 C2483 1.355 . S
C2484 C2486 1.419 1_655 S
C2485 C2480 1.425 . S
C2485 C2482 1.409 . S
C2485 C2483 1.415 . S
C2486 H2476 0.930 . S
C2486 C2484 1.419 1_455 S
C2486 C2487 1.362 . S
C2487 H2477 0.930 . S
C2487 C2480 1.409 1_455 S
C2487 C2486 1.362 . S
H2488 C2494 0.930 . S
H2489 C2497 0.930 . S
H2490 C2498 0.930 . S
H2491 C2499 0.930 . S
H2492 C2502 0.930 . S
H2493 C2503 0.930 . S
C2494 H2488 0.930 . S
C2494 C2495 1.355 . S
C2494 C2496 1.415 . S
C2495 C2494 1.355 . S
C2495 C2497 1.419 . S
C2496 C2494 1.415 . S
C2496 C2501 1.425 . S
C2496 C2503 1.409 . S
C2497 H2489 0.930 . S
C2497 C2495 1.419 . S
C2497 C2498 1.362 . S
C2498 H2490 0.930 . S
C2498 C2497 1.362 . S
C2498 C2501 1.409 . S
C2499 H2491 0.930 . S
C2499 C2500 1.355 . S
C2499 C2501 1.415 . S
C2500 C2499 1.355 . S
C2500 C2502 1.419 . S
C2501 C2496 1.425 . S
C2501 C2498 1.409 . S
C2501 C2499 1.415 . S
C2502 H2492 0.930 . S
C2502 C2500 1.419 . S
C2502 C2503 1.362 . S
C2503 H2493 0.930 . S
C2503 C2496 1.409 . S
C2503 C2502 1.362 . S
H2504 C2510 0.930 . S
H2505 C2513 0.930 . S
H2506 C2514 0.930 . S
H2507 C2515 0.930 . S
H2508 C2518 0.930 . S
H2509 C2519 0.930 . S
C2510 H2504 0.930 . S
C2510 C2511 1.355 . S
C2510 C2512 1.415 . S
C2511 C2510 1.355 . S
C2511 C2513 1.419 . S
C2512 C2510 1.415 . S
C2512 C2517 1.425 . S
C2512 C2519 1.409 1_545 S
C2513 H2505 0.930 . S
C2513 C2511 1.419 . S
C2513 C2514 1.362 . S
C2514 H2506 0.930 . S
C2514 C2513 1.362 . S
C2514 C2517 1.409 . S
C2515 H2507 0.930 . S
C2515 C2516 1.355 . S
C2515 C2517 1.415 . S
C2516 C2515 1.355 . S
C2516 C2518 1.419 1_545 S
C2517 C2512 1.425 . S
C2517 C2514 1.409 . S
C2517 C2515 1.415 . S
C2518 H2508 0.930 . S
C2518 C2516 1.419 1_565 S
C2518 C2519 1.362 . S
C2519 H2509 0.930 . S
C2519 C2512 1.409 1_565 S
C2519 C2518 1.362 . S
C1375 C9 1.587 1_655 S
C1380 C857 1.480 . S
C1391 C19 1.612 . S
C1396 C901 1.592 . S
C1412 C981 1.512 . S
C1407 C33 1.608 . S
C1423 C37 1.588 . S
C1428 C1025 1.554 . S
C1439 C5 1.567 . S
C1444 C1105 1.481 . S
C1455 C23 1.645 . S
C1460 C1167 1.522 . S
C1471 C47 1.585 . S
C1476 C1087 1.495 . S
C1492 C1149 1.606 . S
C1487 C65 1.649 . S
C1508 C1043 1.515 . S
C1503 C75 1.587 . S
C1519 C79 1.549 . S
C1524 C963 1.462 . S
C1540 C839 1.543 . S
C1535 C51 1.618 1_655 S
C1551 C61 1.628 . S
C1556 C919 1.601 . S
C1567 C93 1.695 . S
C1572 C1229 1.607 . S
C1583 C103 1.649 . S
C1588 C1273 1.602 . S
C1604 C1353 1.625 . S
C1599 C117 1.687 . S
C1615 C121 1.666 . S
C1620 C299 1.568 . S
C1631 C89 1.670 . S
C1636 C343 1.641 . S
C1647 C107 1.672 . S
C1652 C423 1.602 . S
C1663 C131 1.657 . S
C1668 C361 1.628 . S
C1679 C149 1.682 . S
C1684 C405 1.557 . S
C1700 C281 1.597 . S
C1695 C159 1.653 . S
C1716 C1335 1.567 . S
C1711 C163 1.667 . S
C1732 C1211 1.619 . S
C1727 C135 1.708 . S
C1748 C1291 1.613 . S
C1743 C145 1.670 . S
C1759 C177 1.665 . S
C1764 C485 1.535 . S
C1775 C187 1.628 . S
C1780 C547 1.561 . S
C1791 C201 1.676 . S
C1796 C591 1.607 . S
C1807 C205 1.702 . S
C1812 C653 1.638 . S
C1828 C715 1.649 . S
C1823 C173 1.672 . S
C1844 C795 1.571 . S
C1839 C191 1.691 . S
C1860 C733 1.673 . S
C1855 C215 1.697 . S
C1876 C777 1.594 . S
C1871 C233 1.700 . S
C1887 C243 1.645 . S
C1892 C671 1.583 . S
C1908 C609 1.611 . S
C1903 C247 1.625 . S
C1919 C219 1.706 . S
C1924 C467 1.629 . S
C1940 C529 1.561 . S
C1935 C229 1.659 . S
C1956 C305 1.499 . S
C1951 C11 1.548 . S
C1967 C14 1.534 . S
C1972 C349 1.447 . S
C1988 C429 1.520 . S
C1983 C28 1.613 . S
C2004 C491 1.485 . S
C1999 C39 1.604 . S
C2020 C553 1.499 . S
C2015 C0 1.566 . S
C2036 C597 1.450 . S
C2031 C25 1.504 . S
C2047 C42 1.608 . S
C2052 C615 1.578 . S
C2063 C67 1.549 . S
C2068 C473 1.457 . S
C2079 C70 1.521 . S
C2084 C535 1.417 . S
C2095 C81 1.547 . S
C2100 C367 1.516 . S
C2116 C411 1.499 . S
C2111 C53 1.585 . S
C2127 C56 1.569 . S
C2132 C287 1.521 . S
C2148 C659 1.512 . S
C2143 C95 1.547 . S
C2159 C98 1.594 . S
C2164 C721 1.524 . S
C2175 C112 1.649 1_655 S
C2180 C801 1.528 . S
C2196 C863 1.422 . S
C2191 C123 1.496 . S
C2207 C84 1.549 . S
C2212 C907 1.447 . S
C2223 C109 1.443 . S
C2228 C987 1.380 . S
C2239 C126 1.506 . S
C2244 C969 1.412 . S
C2255 C151 1.473 . S
C2260 C845 1.383 . S
C2276 C925 1.467 . S
C2271 C154 1.516 . S
C2287 C165 1.533 . S
C2292 C739 1.466 . S
C2303 C137 1.610 . S
C2308 C783 1.502 . S
C2324 C677 1.553 . S
C2319 C140 1.638 . S
C2340 C1031 1.373 . S
C2335 C179 1.454 . S
C2351 C182 1.449 . S
C2356 C1111 1.425 . S
C2367 C196 1.605 . S
C2372 C1173 1.540 . S
C2388 C1235 1.554 . S
C2383 C207 1.606 . S
C2404 C1279 1.547 . S
C2399 C168 1.655 . S
C2415 C193 1.550 . S
C2420 C1359 1.471 . S
C2431 C210 1.603 . S
C2436 C1341 1.514 . S
C2447 C235 1.604 . S
C2452 C1217 1.542 . S
C2468 C1297 1.527 . S
C2463 C238 1.560 . S
C2484 C1093 1.357 . S
C2479 C249 1.413 . S
C2500 C1155 1.472 . S
C2495 C221 1.569 . S
C2511 C224 1.493 . S
C2516 C1049 1.468 . S
