# Generated by pormake.
# Topology anh, (6,3)-cn, num edge types: 1
# Building blocks:
#     Node 0, Type 0, BuildingBlock: MIFKUJ_clean_sbu_0, # of connection points: 6
#     Node 1, Type 0, BuildingBlock: MIFKUJ_clean_sbu_0, # of connection points: 6
#     Node 2, Type 0, BuildingBlock: MIFKUJ_clean_sbu_0, # of connection points: 6
#     Node 3, Type 1, BuildingBlock: KAKCAD_clean_linker_0, # of connection points: 3
#     Node 4, Type 1, BuildingBlock: KAKCAD_clean_linker_0, # of connection points: 3
#     Node 5, Type 1, BuildingBlock: KAKCAD_clean_linker_0, # of connection points: 3
#     Node 6, Type 1, BuildingBlock: KAKCAD_clean_linker_0, # of connection points: 3
#     Node 7, Type 1, BuildingBlock: KAKCAD_clean_linker_0, # of connection points: 3
#     Node 8, Type 1, BuildingBlock: KAKCAD_clean_linker_0, # of connection points: 3
#     Edge 9, Type (0, 1), BuildingBlock: CIFDUS_clean_linker_0, # of connection points: 2
#     Edge 10, Type (0, 1), BuildingBlock: CIFDUS_clean_linker_0, # of connection points: 2
#     Edge 11, Type (0, 1), BuildingBlock: CIFDUS_clean_linker_0, # of connection points: 2
#     Edge 12, Type (0, 1), BuildingBlock: CIFDUS_clean_linker_0, # of connection points: 2
#     Edge 13, Type (0, 1), BuildingBlock: CIFDUS_clean_linker_0, # of connection points: 2
#     Edge 14, Type (0, 1), BuildingBlock: CIFDUS_clean_linker_0, # of connection points: 2
#     Edge 15, Type (0, 1), BuildingBlock: CIFDUS_clean_linker_0, # of connection points: 2
#     Edge 16, Type (0, 1), BuildingBlock: CIFDUS_clean_linker_0, # of connection points: 2
#     Edge 17, Type (0, 1), BuildingBlock: CIFDUS_clean_linker_0, # of connection points: 2
#     Edge 18, Type (0, 1), BuildingBlock: CIFDUS_clean_linker_0, # of connection points: 2
#     Edge 19, Type (0, 1), BuildingBlock: CIFDUS_clean_linker_0, # of connection points: 2
#     Edge 20, Type (0, 1), BuildingBlock: CIFDUS_clean_linker_0, # of connection points: 2
#     Edge 21, Type (0, 1), BuildingBlock: CIFDUS_clean_linker_0, # of connection points: 2
#     Edge 22, Type (0, 1), BuildingBlock: CIFDUS_clean_linker_0, # of connection points: 2
#     Edge 23, Type (0, 1), BuildingBlock: CIFDUS_clean_linker_0, # of connection points: 2
#     Edge 24, Type (0, 1), BuildingBlock: CIFDUS_clean_linker_0, # of connection points: 2
#     Edge 25, Type (0, 1), BuildingBlock: CIFDUS_clean_linker_0, # of connection points: 2
#     Edge 26, Type (0, 1), BuildingBlock: CIFDUS_clean_linker_0, # of connection points: 2
# Relax obj value: 0.134
# Max RMSD: 0.184
# Mean RMSD: 0.146
data_MOF--net-anh--node1-MIFKUJ_clean_sbu_0--node2-KAKCAD_clean_linker_0--edge1-CIFDUS_clean_linker_0
_symmetry_space_group_name_H-M    P1
_symmetry_Int_Tables_number       1
_symmetry_cell_setting            triclinic
loop_
_symmetry_equiv_pos_as_xyz
'x, y, z'
_cell_length_a     33.898579
_cell_length_b     33.855554
_cell_length_c     57.452267
_cell_angle_alpha  93.867126
_cell_angle_beta   90.785595
_cell_angle_gamma 120.20495
loop_
_atom_site_label
_atom_site_type_symbol
_atom_site_fract_x
_atom_site_fract_y
_atom_site_fract_z
_atom_type_partial_charge
Zn0 Zn 0.06058 0.56582 0.16223 0.0
Zn1 Zn 0.92527 0.45695 0.16451 0.0
C2 C 0.12826 0.53988 0.16729 0.0
O3 O 0.12937 0.55479 0.18913 0.0
C4 C 0.83378 0.43427 0.15989 0.0
O5 O 0.83212 0.3975 0.1497 0.0
O6 O 0.09332 0.6325 0.15581 0.0
O7 O -0.0007 0.52516 0.14793 0.0
O8 O 0.9413 0.4664 0.1304 0.0
C9 C 0.12293 0.64547 0.14036 0.0
O10 O 0.12673 0.61437 0.12723 0.0
O11 O 0.10003 0.53983 0.15253 0.0
C12 C 0.8956 0.37961 0.19093 0.0
O13 O 0.91157 0.41191 0.20828 0.0
O14 O 0.90171 0.39117 0.17014 0.0
O15 O 0.97857 0.4992 0.18867 0.0
O16 O 0.04912 0.55776 0.19648 0.0
O17 O 0.87202 0.46725 0.16838 0.0
C18 C 0.97954 0.50231 0.12892 0.0
C19 C 0.01173 0.52554 0.20331 0.0
Zn20 Zn 0.54858 0.06623 0.50161 0.0
Zn21 Zn 0.5268 0.95488 0.49639 0.0
C22 C 0.64402 0.13264 0.50717 0.0
O23 O 0.63076 0.14022 0.52753 0.0
C24 C 0.43856 0.88266 0.47763 0.0
O25 O 0.46458 0.87619 0.46295 0.0
O26 O 0.53374 0.11595 0.502 0.0
O27 O 0.50763 0.02218 0.47491 0.0
O28 O 0.5511 0.9924 0.46896 0.0
C29 C 0.54612 0.13923 0.48435 0.0
O30 O 0.5652 0.12797 0.46741 0.0
O31 O 0.61522 0.09903 0.49327 0.0
C32 C 0.52551 0.87374 0.50406 0.0
O33 O 0.49164 0.86918 0.51666 0.0
O34 O 0.54807 0.90974 0.49357 0.0
O35 O 0.54438 0.98218 0.52967 0.0
O36 O 0.54346 0.04709 0.53434 0.0
O37 O 0.45716 0.91687 0.49289 0.0
C38 C 0.52633 0.00699 0.46087 0.0
C39 C 0.54648 0.01496 0.54281 0.0
Zn40 Zn 0.55991 0.49617 0.82955 0.0
Zn41 Zn 0.46344 0.51705 0.82282 0.0
C42 C 0.56065 0.4206 0.84943 0.0
O43 O 0.59295 0.45494 0.86294 0.0
C44 C 0.48265 0.6043 0.81302 0.0
O45 O 0.45088 0.57638 0.79705 0.0
O46 O 0.62822 0.52613 0.82925 0.0
O47 O 0.53895 0.49777 0.79698 0.0
O48 O 0.47392 0.4973 0.79097 0.0
C49 C 0.64343 0.50849 0.81427 0.0
O50 O 0.61429 0.47459 0.7994 0.0
O51 O 0.53879 0.42922 0.8343 0.0
C52 C 0.39234 0.52575 0.83998 0.0
O53 O 0.42593 0.54996 0.8558 0.0
O54 O 0.39817 0.50314 0.82316 0.0
O55 O 0.47038 0.48691 0.85057 0.0
O56 O 0.54509 0.52549 0.85735 0.0
O57 O 0.49918 0.58759 0.82681 0.0
C58 C 0.50824 0.49597 0.7833 0.0
C59 C 0.5051 0.50743 0.86477 0.0
C60 C 0.49125 0.07117 0.31801 0.0
C61 C 0.47557 0.02922 0.32781 0.0
C62 C 0.49047 0.07267 0.29378 0.0
C63 C 0.47347 0.03219 0.27892 0.0
C64 C 0.45625 0.99005 0.28872 0.0
C65 C 0.45755 0.98861 0.31295 0.0
C66 C 0.47654 0.03419 0.25332 0.0
C67 C 0.518 0.06484 0.24407 0.0
C68 C 0.52266 0.06551 0.21981 0.0
C69 C 0.48512 0.03464 0.20468 0.0
C70 C 0.44325 0.00442 0.2138 0.0
C71 C 0.43912 0.00425 0.23806 0.0
C72 C 0.4037 0.97139 0.19833 0.0
C73 C 0.36419 0.97476 0.19733 0.0
C74 C 0.40324 0.93323 0.18697 0.0
C75 C 0.36274 0.89727 0.17606 0.0
C76 C 0.32217 0.89919 0.17615 0.0
C77 C 0.56722 0.09826 0.21075 0.0
C78 C 0.59221 0.14333 0.22126 0.0
C79 C 0.58639 0.08437 0.19269 0.0
C80 C 0.63055 0.11456 0.186 0.0
C81 C 0.65614 0.15885 0.1974 0.0
C82 C 0.63617 0.17319 0.21473 0.0
C83 C 0.32387 0.93919 0.1861 0.0
H84 H 0.50556 0.10301 0.32907 0.0
H85 H 0.50375 0.10556 0.28663 0.0
H86 H 0.44328 0.9584 0.27763 0.0
H87 H 0.44493 0.95579 0.32008 0.0
H88 H 0.54728 0.08718 0.2559 0.0
H89 H 0.40687 0.98035 0.24504 0.0
H90 H 0.48812 0.03459 0.18592 0.0
H91 H 0.36411 0.00415 0.206 0.0
H92 H 0.43342 0.92997 0.18781 0.0
H93 H 0.36269 0.86685 0.16888 0.0
H94 H 0.57793 0.1554 0.23481 0.0
H95 H 0.56797 0.04976 0.18433 0.0
H96 H 0.29356 0.94223 0.18607 0.0
H97 H 0.6547 0.20762 0.22332 0.0
H98 H 0.64518 0.10288 0.17247 0.0
C99 C 0.5576 0.53326 0.63856 0.0
C100 C 0.58398 0.52054 0.65176 0.0
C101 C 0.56382 0.53882 0.61485 0.0
C102 C 0.59739 0.53291 0.60367 0.0
C103 C 0.62421 0.52063 0.61686 0.0
C104 C 0.61745 0.51432 0.64062 0.0
C105 C 0.60281 0.53812 0.57819 0.0
C106 C 0.59527 0.57037 0.5679 0.0
C107 C 0.5924 0.57063 0.54354 0.0
C108 C 0.60043 0.54049 0.52935 0.0
C109 C 0.60954 0.50907 0.53928 0.0
C110 C 0.61083 0.50804 0.56369 0.0
C111 C 0.61129 0.47315 0.52413 0.0
C112 C 0.57611 0.4469 0.50691 0.0
C113 C 0.64562 0.46234 0.52797 0.0
C114 C 0.64355 0.42442 0.51552 0.0
C115 C 0.60675 0.39659 0.4994 0.0
C116 C 0.57622 0.59894 0.53303 0.0
C117 C 0.53932 0.60121 0.54239 0.0
C118 C 0.59652 0.62292 0.5135 0.0
C119 C 0.58118 0.6501 0.50408 0.0
C120 C 0.54529 0.65362 0.51404 0.0
C121 C 0.52414 0.62836 0.53307 0.0
C122 C 0.57372 0.40872 0.49473 0.0
H123 H 0.53214 0.5393 0.64653 0.0
H124 H 0.54166 0.54718 0.60524 0.0
H125 H 0.65052 0.516 0.60888 0.0
H126 H 0.63815 0.5041 0.65016 0.0
H127 H 0.59012 0.59457 0.57884 0.0
H128 H 0.61491 0.48169 0.57119 0.0
H129 H 0.59739 0.53987 0.51049 0.0
H130 H 0.549 0.45432 0.50379 0.0
H131 H 0.67311 0.4823 0.54111 0.0
H132 H 0.66904 0.41519 0.51955 0.0
H133 H 0.52226 0.58218 0.55708 0.0
H134 H 0.62487 0.6215 0.50587 0.0
H135 H 0.54495 0.38741 0.48244 0.0
H136 H 0.49688 0.63082 0.54138 0.0
H137 H 0.59789 0.66897 0.48929 0.0
C138 C 0.06875 0.56461 0.98802 0.0
C139 C 0.02784 0.52756 0.99472 0.0
C140 C 0.07306 0.57672 0.96502 0.0
C141 C 0.03653 0.55211 0.94824 0.0
C142 C 0.99568 0.51501 0.95493 0.0
C143 C 0.99138 0.50288 0.9779 0.0
C144 C 0.04119 0.56483 0.92377 0.0
C145 C 0.08148 0.57606 0.91248 0.0
C146 C 0.08626 0.58754 0.88922 0.0
C147 C 0.05022 0.58816 0.87722 0.0
C148 C 0.00961 0.57671 0.88827 0.0
C149 C 0.00524 0.56499 0.91145 0.0
C150 C 0.971 0.5759 0.87564 0.0
C151 C 0.97582 0.61588 0.86707 0.0
C152 C 0.9283 0.5354 0.87327 0.0
C153 C 0.89069 0.53499 0.86285 0.0
C154 C 0.89495 0.57528 0.85498 0.0
C155 C 0.12809 0.59603 0.87744 0.0
C156 C 0.17105 0.62279 0.88933 0.0
C157 C 0.12504 0.57344 0.85548 0.0
C158 C 0.16383 0.57501 0.84637 0.0
C159 C 0.2063 0.59929 0.85906 0.0
C160 C 0.20968 0.62435 0.88028 0.0
C161 C 0.93786 0.61571 0.85703 0.0
H162 H 0.09754 0.58413 0.00052 0.0
H163 H 0.10487 0.60572 0.96044 0.0
H164 H 0.96709 0.49504 0.94236 0.0
H165 H 0.95916 0.47457 0.98257 0.0
H166 H 0.10861 0.57413 0.92157 0.0
H167 H 0.97397 0.55669 0.91998 0.0
H168 H 0.05345 0.59682 0.85925 0.0
H169 H 0.00852 0.64751 0.86886 0.0
H170 H 0.92396 0.50422 0.87977 0.0
H171 H 0.85785 0.50352 0.86169 0.0
H172 H 0.17444 0.64101 0.90616 0.0
H173 H 0.0923 0.55248 0.84596 0.0
H174 H 0.94188 0.64716 0.85109 0.0
H175 H 0.24166 0.64309 0.89066 0.0
H176 H 0.16026 0.55589 0.82982 0.0
C177 C 0.96666 0.51989 0.35566 0.0
C178 C 0.0011 0.52224 0.34149 0.0
C179 C 0.9693 0.51611 0.37967 0.0
C180 C 0.00693 0.51567 0.38988 0.0
C181 C 0.04127 0.51792 0.3757 0.0
C182 C 0.03816 0.52072 0.35167 0.0
C183 C 0.01147 0.51465 0.41542 0.0
C184 C 0.97747 0.47909 0.42706 0.0
C185 C 0.98228 0.47731 0.45134 0.0
C186 C 0.02245 0.51217 0.46384 0.0
C187 C 0.05631 0.5485 0.45222 0.0
C188 C 0.05051 0.54918 0.42809 0.0
C189 C 0.09905 0.58589 0.46432 0.0
C190 C 0.1104 0.63166 0.46287 0.0
C191 C 0.13244 0.57683 0.47279 0.0
C192 C 0.17745 0.61279 0.47786 0.0
C193 C 0.1897 0.65841 0.47464 0.0
C194 C 0.94522 0.43851 0.46305 0.0
C195 C 0.89914 0.42041 0.45553 0.0
C196 C 0.95522 0.41754 0.48076 0.0
C197 C 0.92015 0.37859 0.49006 0.0
C198 C 0.87449 0.35953 0.48163 0.0
C199 C 0.86438 0.38127 0.46452 0.0
C200 C 0.15519 0.66758 0.46809 0.0
H201 H 0.93773 0.52089 0.34815 0.0
H202 H 0.94257 0.51464 0.39035 0.0
H203 H 0.07055 0.51756 0.38324 0.0
H204 H 0.06525 0.52277 0.3411 0.0
H205 H 0.94785 0.452 0.41692 0.0
H206 H 0.07682 0.57675 0.41903 0.0
H207 H 0.02701 0.51173 0.4825 0.0
H208 H 0.08522 0.63939 0.45618 0.0
H209 H 0.1246 0.54179 0.4738 0.0
H210 H 0.20314 0.60467 0.48319 0.0
H211 H 0.88977 0.43628 0.44247 0.0
H212 H 0.99022 0.43025 0.48692 0.0
H213 H 0.16338 0.70216 0.4653 0.0
H214 H 0.8294 0.368 0.4581 0.0
H215 H 0.92886 0.36255 0.50332 0.0
C216 C 0.52197 0.99564 0.69084 0.0
C217 C 0.55389 0.03756 0.68251 0.0
C218 C 0.51797 0.99112 0.71479 0.0
C219 C 0.54593 0.02837 0.73108 0.0
C220 C 0.57817 0.07026 0.72276 0.0
C221 C 0.58203 0.07483 0.69873 0.0
C222 C 0.54005 0.02369 0.75658 0.0
C223 C 0.53087 0.98292 0.766 0.0
C224 C 0.521 0.97622 0.7896 0.0
C225 C 0.52129 0.01168 0.80414 0.0
C226 C 0.53131 0.05317 0.79496 0.0
C227 C 0.54079 0.05882 0.77132 0.0
C228 C 0.5292 0.09042 0.80894 0.0
C229 C 0.48671 0.08571 0.81399 0.0
C230 C 0.56879 0.13373 0.813 0.0
C231 C 0.56582 0.1721 0.82096 0.0
C232 C 0.52306 0.16812 0.82463 0.0
C233 C 0.50811 0.93077 0.79795 0.0
C234 C 0.47508 0.89075 0.78481 0.0
C235 C 0.53114 0.92654 0.81732 0.0
C236 C 0.52244 0.88303 0.8228 0.0
C237 C 0.4901 0.84304 0.80918 0.0
C238 C 0.46627 0.84764 0.7903 0.0
C239 C 0.48363 0.12425 0.82167 0.0
H240 H 0.49921 0.96651 0.67881 0.0
H241 H 0.49208 0.95866 0.72053 0.0
H242 H 0.60057 0.09948 0.73482 0.0
H243 H 0.60727 0.10744 0.69285 0.0
H244 H 0.53111 0.95592 0.75484 0.0
H245 H 0.54671 0.09008 0.76417 0.0
H246 H 0.51287 0.00672 0.82224 0.0
H247 H 0.45564 0.05279 0.81059 0.0
H248 H 0.60182 0.13828 0.80881 0.0
H249 H 0.5968 0.20536 0.82283 0.0
H250 H 0.45672 0.89289 0.76981 0.0
H251 H 0.55701 0.95687 0.82765 0.0
H252 H 0.45023 0.12001 0.82449 0.0
H253 H 0.44165 0.8179 0.77916 0.0
H254 H 0.54117 0.88072 0.83756 0.0
C255 C 0.50439 0.49262 0.01378 0.0
C256 C 0.51112 0.53226 0.00394 0.0
C257 C 0.50141 0.48979 0.03788 0.0
C258 C 0.50421 0.52618 0.05246 0.0
C259 C 0.51004 0.56549 0.0426 0.0
C260 C 0.514 0.56873 0.01851 0.0
C261 C 0.50203 0.52337 0.07799 0.0
C262 C 0.53228 0.51441 0.09013 0.0
C263 C 0.53043 0.511 0.11436 0.0
C264 C 0.49754 0.5166 0.12647 0.0
C265 C 0.46639 0.52501 0.11438 0.0
C266 C 0.46929 0.5287 0.09012 0.0
C267 C 0.42928 0.52783 0.12649 0.0
C268 C 0.40462 0.49729 0.14326 0.0
C269 C 0.4159 0.55887 0.11999 0.0
C270 C 0.37739 0.55773 0.12899 0.0
C271 C 0.35174 0.526 0.14497 0.0
C272 C 0.56321 0.50146 0.12652 0.0
C273 C 0.57158 0.46751 0.11661 0.0
C274 C 0.58912 0.52846 0.14672 0.0
C275 C 0.62441 0.52313 0.15606 0.0
C276 C 0.63412 0.49049 0.14544 0.0
C277 C 0.60663 0.46218 0.12588 0.0
C278 C 0.36629 0.49656 0.15251 0.0
H279 H 0.5023 0.46419 0.00286 0.0
H280 H 0.49675 0.45911 0.04515 0.0
H281 H 0.51243 0.594 0.05358 0.0
H282 H 0.51903 0.59954 0.01123 0.0
H283 H 0.55797 0.51087 0.08068 0.0
H284 H 0.44497 0.53402 0.08039 0.0
H285 H 0.49593 0.51387 0.14516 0.0
H286 H 0.41373 0.47266 0.14851 0.0
H287 H 0.43473 0.58359 0.10756 0.0
H288 H 0.36737 0.58144 0.12328 0.0
H289 H 0.55181 0.44588 0.10117 0.0
H290 H 0.58341 0.55497 0.15467 0.0
H291 H 0.347 0.47181 0.16485 0.0
H292 H 0.61337 0.4371 0.11702 0.0
H293 H 0.64465 0.54513 0.17129 0.0
H294 H 0.19016 0.53253 0.19431 0.0
H295 H 0.14552 0.52381 0.12242 0.0
H296 H 0.20973 0.51631 0.10925 0.0
H297 H 0.28178 0.51829 0.11816 0.0
H298 H 0.32655 0.52671 0.18985 0.0
H299 H 0.2588 0.52801 0.20316 0.0
C300 C 0.19423 0.52856 0.17576 0.0
C301 C 0.16347 0.52934 0.1594 0.0
C302 C 0.23139 0.52456 0.1683 0.0
C303 C 0.16885 0.52356 0.13541 0.0
C304 C 0.20567 0.51945 0.12784 0.0
C305 C 0.27653 0.52029 0.13669 0.0
C306 C 0.3092 0.52307 0.15306 0.0
C307 C 0.23768 0.52098 0.14414 0.0
C308 C 0.30177 0.52466 0.17699 0.0
C309 C 0.2632 0.52555 0.18457 0.0
H310 H 0.71649 0.20154 0.53351 0.0
H311 H 0.67147 0.14338 0.46237 0.0
H312 H 0.73984 0.20756 0.44833 0.0
H313 H 0.80961 0.28314 0.45601 0.0
H314 H 0.85557 0.34087 0.52702 0.0
H315 H 0.78989 0.27386 0.54139 0.0
C316 C 0.72191 0.20258 0.51495 0.0
C317 C 0.68867 0.16773 0.49903 0.0
C318 C 0.76134 0.23973 0.50696 0.0
C319 C 0.69646 0.16954 0.47504 0.0
C320 C 0.73545 0.20644 0.46697 0.0
C321 C 0.80529 0.28086 0.47464 0.0
C322 C 0.83708 0.31707 0.49044 0.0
C323 C 0.76762 0.24218 0.48273 0.0
C324 C 0.83158 0.31341 0.51453 0.0
C325 C 0.79394 0.2752 0.52273 0.0
H326 H 0.42195 0.63241 0.8093 0.0
H327 H 0.56486 0.68326 0.82529 0.0
H328 H 0.57991 0.76259 0.8273 0.0
H329 H 0.55246 0.81716 0.82109 0.0
H330 H 0.40792 0.76357 0.80767 0.0
H331 H 0.39341 0.68562 0.80845 0.0
C332 C 0.4564 0.66086 0.81343 0.0
C333 C 0.49241 0.65217 0.81677 0.0
C334 C 0.46443 0.70586 0.81495 0.0
C335 C 0.53667 0.68921 0.82253 0.0
C336 C 0.5452 0.73449 0.82361 0.0
C337 C 0.51771 0.7885 0.8188 0.0
C338 C 0.48148 0.79643 0.81373 0.0
C339 C 0.5094 0.74327 0.81942 0.0
C340 C 0.43665 0.75865 0.81091 0.0
C341 C 0.42823 0.71395 0.81141 0.0
H342 H 0.82703 0.51115 0.16703 0.0
H343 H 0.7463 0.36394 0.1533 0.0
H344 H 0.67677 0.36811 0.15029 0.0
H345 H 0.63941 0.41356 0.1488 0.0
H346 H 0.71995 0.56117 0.15961 0.0
H347 H 0.78863 0.55674 0.16728 0.0
C348 C 0.79414 0.48 0.16367 0.0
C349 C 0.79186 0.43735 0.16024 0.0
C350 C 0.75418 0.48267 0.1615 0.0
C351 C 0.74904 0.39725 0.15579 0.0
C352 C 0.70921 0.39956 0.15411 0.0
C353 C 0.67197 0.44481 0.15286 0.0
C354 C 0.67448 0.48761 0.1534 0.0
C355 C 0.71149 0.44212 0.15645 0.0
C356 C 0.71683 0.52769 0.15926 0.0
C357 C 0.75626 0.52523 0.16342 0.0
H358 H 0.3986 0.79393 0.46019 0.0
H359 H 0.36988 0.88974 0.49856 0.0
H360 H 0.29062 0.82861 0.50184 0.0
H361 H 0.22931 0.74758 0.49355 0.0
H362 H 0.26001 0.65239 0.45595 0.0
H363 H 0.33878 0.7134 0.45306 0.0
C364 C 0.37495 0.80163 0.4691 0.0
C365 C 0.39 0.84651 0.47883 0.0
C366 C 0.32987 0.7662 0.47134 0.0
C367 C 0.35908 0.85556 0.49076 0.0
C368 C 0.3138 0.82058 0.49269 0.0
C369 C 0.25332 0.74022 0.4848 0.0
C370 C 0.23866 0.69528 0.47511 0.0
C371 C 0.29879 0.7757 0.48306 0.0
C372 C 0.27039 0.68633 0.46397 0.0
C373 C 0.31541 0.72135 0.46206 0.0
H374 H 0.49803 0.34117 0.82389 0.0
H375 H 0.6101 0.39494 0.8758 0.0
H376 H 0.60668 0.32119 0.8738 0.0
H377 H 0.57549 0.2427 0.85545 0.0
H378 H 0.4633 0.18839 0.80373 0.0
H379 H 0.46277 0.26044 0.80777 0.0
C380 C 0.52139 0.33663 0.83494 0.0
C381 C 0.55452 0.37391 0.84982 0.0
C382 C 0.51933 0.29388 0.83372 0.0
C383 C 0.58431 0.36712 0.86411 0.0
C384 C 0.58251 0.32487 0.86295 0.0
C385 C 0.55073 0.24656 0.84519 0.0
C386 C 0.51961 0.21016 0.82926 0.0
C387 C 0.55075 0.28824 0.84751 0.0
C388 C 0.48737 0.21559 0.8163 0.0
C389 C 0.48727 0.25698 0.81846 0.0
H390 H 0.46584 0.78345 0.50421 0.0
H391 H 0.60843 0.88156 0.49774 0.0
H392 H 0.62662 0.8201 0.49719 0.0
H393 H 0.6028 0.74037 0.50318 0.0
H394 H 0.45969 0.64183 0.50837 0.0
H395 H 0.44066 0.70178 0.50453 0.0
C396 C 0.50083 0.7912 0.50257 0.0
C397 C 0.53598 0.83672 0.50156 0.0
C398 C 0.51084 0.75583 0.50205 0.0
C399 C 0.58101 0.84658 0.49878 0.0
C400 C 0.59137 0.81156 0.49848 0.0
C401 C 0.56731 0.73167 0.50277 0.0
C402 C 0.53279 0.68697 0.50649 0.0
C403 C 0.55667 0.76625 0.50068 0.0
C404 C 0.48697 0.67631 0.50606 0.0
C405 C 0.47606 0.71049 0.50387 0.0
H406 H 0.71372 0.58043 0.84031 0.0
H407 H 0.68203 0.46404 0.79173 0.0
H408 H 0.75903 0.47722 0.79842 0.0
H409 H 0.8326 0.51674 0.82116 0.0
H410 H 0.86485 0.63322 0.86955 0.0
H411 H 0.7907 0.62553 0.85963 0.0
C412 C 0.72386 0.55831 0.83097 0.0
C413 C 0.69194 0.5209 0.81583 0.0
C414 C 0.76823 0.56597 0.83495 0.0
C415 C 0.70578 0.49292 0.80361 0.0
C416 C 0.7498 0.50031 0.80747 0.0
C417 C 0.8235 0.54075 0.82925 0.0
C418 C 0.85371 0.57518 0.84617 0.0
C419 C 0.78084 0.53592 0.82358 0.0
C420 C 0.84205 0.60653 0.8564 0.0
C421 C 0.79959 0.60194 0.85086 0.0
H422 H 0.13097 0.71761 0.16822 0.0
H423 H 0.19492 0.68325 0.11219 0.0
H424 H 0.26048 0.76106 0.11649 0.0
H425 H 0.30326 0.83613 0.13903 0.0
H426 H 0.24069 0.8681 0.19668 0.0
H427 H 0.17074 0.79473 0.18833 0.0
C428 C 0.15885 0.72732 0.15666 0.0
C429 C 0.15822 0.69445 0.14013 0.0
C430 C 0.19691 0.77185 0.15953 0.0
C431 C 0.19458 0.70775 0.1252 0.0
C432 C 0.23224 0.75225 0.12769 0.0
C433 C 0.27424 0.82716 0.14969 0.0
C434 C 0.27759 0.85763 0.16857 0.0
C435 C 0.2344 0.78413 0.14529 0.0
C436 C 0.23918 0.84576 0.18186 0.0
C437 C 0.19917 0.80347 0.17728 0.0
H438 H 0.61003 0.21735 0.46775 0.0
H439 H 0.48338 0.1579 0.5027 0.0
H440 H 0.48853 0.23276 0.50758 0.0
H441 H 0.53295 0.31577 0.50544 0.0
H442 H 0.66383 0.37686 0.47465 0.0
H443 H 0.65335 0.30047 0.46439 0.0
C444 C 0.58318 0.22078 0.47601 0.0
C445 C 0.54627 0.18257 0.48478 0.0
C446 C 0.58745 0.26409 0.47962 0.0
C447 C 0.51205 0.18717 0.49587 0.0
C448 C 0.51504 0.22982 0.49868 0.0
C449 C 0.55864 0.31212 0.49603 0.0
C450 C 0.59882 0.35132 0.49052 0.0
C451 C 0.55312 0.2686 0.49112 0.0
C452 C 0.63258 0.34677 0.47888 0.0
C453 C 0.6266 0.30329 0.4731 0.0
H454 H 0.39309 0.6043 0.85079 0.0
H455 H 0.30316 0.46175 0.82768 0.0
H456 H 0.23701 0.47293 0.82944 0.0
H457 H 0.20513 0.52224 0.84084 0.0
H458 H 0.2966 0.66615 0.86128 0.0
H459 H 0.36227 0.65563 0.8568 0.0
C460 C 0.35897 0.57574 0.84605 0.0
C461 C 0.35254 0.53208 0.8396 0.0
C462 C 0.32168 0.58276 0.84654 0.0
C463 C 0.30855 0.49552 0.83294 0.0
C464 C 0.27091 0.50196 0.83392 0.0
C465 C 0.2394 0.55159 0.84373 0.0
C466 C 0.24586 0.59478 0.85182 0.0
C467 C 0.27706 0.54533 0.84108 0.0
C468 C 0.29062 0.63233 0.85559 0.0
C469 C 0.32819 0.62637 0.85303 0.0
H470 H 0.83673 0.31157 0.15884 0.0
H471 H 0.87505 0.34175 0.23267 0.0
H472 H 0.80586 0.27133 0.24082 0.0
H473 H 0.72948 0.20826 0.22754 0.0
H474 H 0.68883 0.18085 0.1541 0.0
H475 H 0.76427 0.24293 0.14513 0.0
C476 C 0.83055 0.30227 0.17668 0.0
C477 C 0.8606 0.33228 0.19518 0.0
C478 C 0.78995 0.26262 0.1813 0.0
C479 C 0.85219 0.31951 0.21815 0.0
C480 C 0.81252 0.27939 0.22284 0.0
C481 C 0.73743 0.21564 0.20955 0.0
C482 C 0.70362 0.19076 0.19152 0.0
C483 C 0.7803 0.25187 0.20465 0.0
C484 C 0.7144 0.19973 0.16825 0.0
C485 C 0.75738 0.23534 0.16315 0.0
H486 H 0.96876 0.44418 0.09154 0.0
H487 H 0.03549 0.58753 0.11561 0.0
H488 H 0.06099 0.60852 0.07636 0.0
H489 H 0.05587 0.58571 0.03437 0.0
H490 H 0.98748 0.44195 0.01025 0.0
H491 H 0.97054 0.42139 0.05029 0.0
C492 C 0.98951 0.47997 0.0882 0.0
C493 C 0.0007 0.51438 0.10635 0.0
C494 C 0.00295 0.49161 0.06552 0.0
C495 C 0.02755 0.56059 0.10195 0.0
C496 C 0.04152 0.57253 0.07946 0.0
C497 C 0.0381 0.5499 0.03791 0.0
C498 C 0.02236 0.51541 0.01929 0.0
C499 C 0.02833 0.5383 0.06098 0.0
C500 C 0.99906 0.46915 0.0242 0.0
C501 C 0.98955 0.45735 0.0471 0.0
H502 H 0.48777 0.0481 0.43808 0.0
H503 H 0.54867 0.96351 0.42633 0.0
H504 H 0.53695 0.96183 0.38418 0.0
H505 H 0.51055 0.98535 0.35064 0.0
H506 H 0.45155 0.0715 0.36221 0.0
H507 H 0.46149 0.07174 0.40451 0.0
C508 C 0.49835 0.02917 0.42631 0.0
C509 C 0.51902 0.00593 0.43535 0.0
C510 C 0.4919 0.02868 0.40208 0.0
C511 C 0.53281 0.98182 0.41984 0.0
C512 C 0.52605 0.98076 0.39573 0.0
C513 C 0.49942 0.00373 0.36245 0.0
C514 C 0.48011 0.02814 0.35339 0.0
C515 C 0.50571 0.00411 0.38667 0.0
C516 C 0.46665 0.0526 0.36884 0.0
C517 C 0.47224 0.05266 0.39298 0.0
H518 H 0.58659 0.51991 0.76161 0.0
H519 H 0.44242 0.46761 0.74792 0.0
H520 H 0.45284 0.46743 0.70588 0.0
H521 H 0.50322 0.48437 0.67329 0.0
H522 H 0.64849 0.54333 0.68736 0.0
H523 H 0.63697 0.53725 0.72904 0.0
C524 C 0.55732 0.50807 0.74944 0.0
C525 C 0.51376 0.49371 0.75787 0.0
C526 C 0.56374 0.50907 0.72539 0.0
C527 C 0.47632 0.47898 0.74187 0.0
C528 C 0.48226 0.47882 0.71785 0.0
C529 C 0.53253 0.4964 0.68543 0.0
C530 C 0.57673 0.51454 0.67707 0.0
C531 C 0.52591 0.49434 0.70946 0.0
C532 C 0.61401 0.52867 0.69314 0.0
C533 C 0.60752 0.52562 0.71705 0.0
H534 H 0.55544 0.07991 0.57686 0.0
H535 H 0.54706 0.94822 0.5667 0.0
H536 H 0.55051 0.94468 0.6088 0.0
H537 H 0.55338 0.97742 0.64855 0.0
H538 H 0.56092 0.10845 0.65912 0.0
H539 H 0.56104 0.11403 0.61689 0.0
C540 C 0.55449 0.05048 0.58383 0.0
C541 C 0.55066 0.01428 0.56852 0.0
C542 C 0.55643 0.04852 0.60818 0.0
C543 C 0.54983 0.97658 0.57796 0.0
C544 C 0.55177 0.97444 0.60209 0.0
C545 C 0.55492 0.00715 0.64161 0.0
C546 C 0.55684 0.04231 0.65696 0.0
C547 C 0.5546 0.00995 0.61735 0.0
C548 C 0.55974 0.08104 0.6477 0.0
C549 C 0.55951 0.08412 0.62355 0.0
H550 H 0.56378 0.56809 0.89945 0.0
H551 H 0.43204 0.44493 0.88694 0.0
H552 H 0.42219 0.44182 0.92893 0.0
H553 H 0.45172 0.47329 0.96932 0.0
H554 H 0.58118 0.59874 0.98192 0.0
H555 H 0.59124 0.6021 0.9398 0.0
C556 C 0.53297 0.54059 0.90596 0.0
C557 C 0.4989 0.50657 0.89016 0.0
C558 C 0.52713 0.53952 0.93011 0.0
C559 C 0.45879 0.47151 0.89877 0.0
C560 C 0.45315 0.46965 0.92277 0.0
C561 C 0.48203 0.50133 0.96274 0.0
C562 C 0.51582 0.53556 0.97852 0.0
C563 C 0.48718 0.50332 0.93859 0.0
C564 C 0.55473 0.57213 0.96997 0.0
C565 C 0.56054 0.57393 0.94595 0.0
H566 H 0.00234 0.57697 0.2384 0.0
H567 H 0.0125 0.45618 0.22334 0.0
H568 H 0.00967 0.44387 0.265 0.0
H569 H 0.00631 0.46891 0.3058 0.0
H570 H 0.99196 0.58736 0.3208 0.0
H571 H 0.99393 0.59917 0.27912 0.0
C572 C 0.00368 0.54793 0.24438 0.0
C573 C 0.00771 0.5175 0.22814 0.0
C574 C 0.00124 0.54075 0.26825 0.0
C575 C 0.00928 0.47982 0.23575 0.0
C576 C 0.00774 0.47288 0.25949 0.0
C577 C 0.00347 0.49716 0.29985 0.0
C578 C -0.00075 0.5274 0.3162 0.0
C579 C 0.00403 0.5033 0.27591 0.0
C580 C 0.99505 0.56361 0.30841 0.0
C581 C 0.99638 0.57046 0.28464 0.0
loop_
_geom_bond_atom_site_label_1
_geom_bond_atom_site_label_2
_geom_bond_distance
_geom_bond_site_symmetry_2
_ccdc_geom_bond_type
Zn0 O6 1.969 . S
Zn0 O7 1.965 . S
Zn0 O11 2.024 . S
Zn0 O16 1.969 . S
Zn1 O8 1.969 . S
Zn1 O14 1.969 . S
Zn1 O15 1.965 . S
Zn1 O17 2.024 . S
C2 O3 1.229 . S
C2 O11 1.058 . S
O3 C2 1.229 . S
C4 O5 1.229 . S
C4 O17 1.058 . S
O5 C4 1.229 . S
O6 Zn0 1.969 . S
O6 C9 1.267 . S
O7 Zn0 1.965 . S
O7 C18 1.260 1_455 S
O8 Zn1 1.969 . S
O8 C18 1.258 . S
C9 O6 1.267 . S
C9 O10 1.228 . S
O10 C9 1.228 . S
O11 Zn0 2.024 . S
O11 C2 1.058 . S
C12 O13 1.228 . S
C12 O14 1.267 . S
O13 C12 1.228 . S
O14 Zn1 1.969 . S
O14 C12 1.267 . S
O15 Zn1 1.965 . S
O15 C19 1.260 1_655 S
O16 Zn0 1.969 . S
O16 C19 1.258 . S
O17 Zn1 2.024 . S
O17 C4 1.058 . S
C18 O7 1.260 1_655 S
C18 O8 1.258 . S
C19 O15 1.260 1_455 S
C19 O16 1.258 . S
Zn20 O26 1.969 . S
Zn20 O27 1.965 . S
Zn20 O31 2.024 . S
Zn20 O36 1.969 . S
Zn21 O28 1.969 . S
Zn21 O34 1.969 . S
Zn21 O35 1.965 . S
Zn21 O37 2.024 . S
C22 O23 1.229 . S
C22 O31 1.058 . S
O23 C22 1.229 . S
C24 O25 1.229 . S
C24 O37 1.058 . S
O25 C24 1.229 . S
O26 Zn20 1.969 . S
O26 C29 1.267 . S
O27 Zn20 1.965 . S
O27 C38 1.260 . S
O28 Zn21 1.969 . S
O28 C38 1.258 1_565 S
C29 O26 1.267 . S
C29 O30 1.228 . S
O30 C29 1.228 . S
O31 Zn20 2.024 . S
O31 C22 1.058 . S
C32 O33 1.228 . S
C32 O34 1.267 . S
O33 C32 1.228 . S
O34 Zn21 1.969 . S
O34 C32 1.267 . S
O35 Zn21 1.965 . S
O35 C39 1.260 1_565 S
O36 Zn20 1.969 . S
O36 C39 1.258 . S
O37 Zn21 2.024 . S
O37 C24 1.058 . S
C38 O27 1.260 . S
C38 O28 1.258 1_545 S
C39 O35 1.260 1_545 S
C39 O36 1.258 . S
Zn40 O46 1.969 . S
Zn40 O47 1.965 . S
Zn40 O51 2.024 . S
Zn40 O56 1.969 . S
Zn41 O48 1.969 . S
Zn41 O54 1.969 . S
Zn41 O55 1.965 . S
Zn41 O57 2.024 . S
C42 O43 1.229 . S
C42 O51 1.058 . S
O43 C42 1.229 . S
C44 O45 1.229 . S
C44 O57 1.058 . S
O45 C44 1.229 . S
O46 Zn40 1.969 . S
O46 C49 1.267 . S
O47 Zn40 1.965 . S
O47 C58 1.260 . S
O48 Zn41 1.969 . S
O48 C58 1.258 . S
C49 O46 1.267 . S
C49 O50 1.228 . S
O50 C49 1.228 . S
O51 Zn40 2.024 . S
O51 C42 1.058 . S
C52 O53 1.228 . S
C52 O54 1.267 . S
O53 C52 1.228 . S
O54 Zn41 1.969 . S
O54 C52 1.267 . S
O55 Zn41 1.965 . S
O55 C59 1.260 . S
O56 Zn40 1.969 . S
O56 C59 1.258 . S
O57 Zn41 2.024 . S
O57 C44 1.058 . S
C58 O47 1.260 . S
C58 O48 1.258 . S
C59 O55 1.260 . S
C59 O56 1.258 . S
C60 C61 1.386 . S
C60 C62 1.397 . S
C60 H84 0.931 . S
C61 C60 1.386 . S
C61 C65 1.397 1_545 S
C62 C60 1.397 . S
C62 C63 1.384 . S
C62 H85 0.930 . S
C63 C62 1.384 . S
C63 C64 1.377 1_545 S
C63 C66 1.481 . S
C64 C63 1.377 1_565 S
C64 C65 1.389 . S
C64 H86 0.929 . S
C65 C61 1.397 1_565 S
C65 C64 1.389 . S
C65 H87 0.931 . S
C66 C63 1.481 . S
C66 C67 1.387 . S
C66 C71 1.390 1_545 S
C67 C66 1.387 . S
C67 C68 1.401 . S
C67 H88 0.930 . S
C68 C67 1.401 . S
C68 C69 1.376 . S
C68 C77 1.511 . S
C69 C68 1.376 . S
C69 C70 1.392 1_545 S
C69 H90 0.931 . S
C70 C69 1.392 1_565 S
C70 C71 1.361 . S
C70 C72 1.500 . S
C71 C66 1.390 1_565 S
C71 C70 1.361 . S
C71 H89 0.931 . S
C72 C70 1.500 . S
C72 C73 1.371 . S
C72 C74 1.365 . S
C73 C72 1.371 . S
C73 C83 1.386 . S
C73 H91 0.931 . S
C74 C72 1.365 . S
C74 C75 1.409 . S
C74 H92 0.929 . S
C75 C74 1.409 . S
C75 C76 1.380 . S
C75 H93 0.930 . S
C76 C75 1.380 . S
C76 C83 1.357 . S
C77 C68 1.511 . S
C77 C78 1.341 . S
C77 C79 1.371 . S
C78 C77 1.341 . S
C78 C82 1.394 . S
C78 H94 0.930 . S
C79 C77 1.371 . S
C79 C80 1.392 . S
C79 H95 0.931 . S
C80 C79 1.392 . S
C80 C81 1.331 . S
C80 H98 0.932 . S
C81 C80 1.331 . S
C81 C82 1.336 . S
C82 C78 1.394 . S
C82 C81 1.336 . S
C82 H97 0.929 . S
C83 C73 1.386 . S
C83 C76 1.357 . S
C83 H96 0.928 . S
H84 C60 0.931 . S
H85 C62 0.930 . S
H86 C64 0.929 . S
H87 C65 0.931 . S
H88 C67 0.930 . S
H89 C71 0.931 . S
H90 C69 0.931 . S
H91 C73 0.931 . S
H92 C74 0.929 . S
H93 C75 0.930 . S
H94 C78 0.930 . S
H95 C79 0.931 . S
H96 C83 0.928 . S
H97 C82 0.929 . S
H98 C80 0.932 . S
C99 C100 1.386 . S
C99 C101 1.397 . S
C99 H123 0.931 . S
C100 C99 1.386 . S
C100 C104 1.397 . S
C101 C99 1.397 . S
C101 C102 1.384 . S
C101 H124 0.930 . S
C102 C101 1.384 . S
C102 C103 1.377 . S
C102 C105 1.481 . S
C103 C102 1.377 . S
C103 C104 1.389 . S
C103 H125 0.929 . S
C104 C100 1.397 . S
C104 C103 1.389 . S
C104 H126 0.931 . S
C105 C102 1.481 . S
C105 C106 1.387 . S
C105 C110 1.390 . S
C106 C105 1.387 . S
C106 C107 1.401 . S
C106 H127 0.930 . S
C107 C106 1.401 . S
C107 C108 1.376 . S
C107 C116 1.511 . S
C108 C107 1.376 . S
C108 C109 1.392 . S
C108 H129 0.931 . S
C109 C108 1.392 . S
C109 C110 1.361 . S
C109 C111 1.500 . S
C110 C105 1.390 . S
C110 C109 1.361 . S
C110 H128 0.931 . S
C111 C109 1.500 . S
C111 C112 1.371 . S
C111 C113 1.365 . S
C112 C111 1.371 . S
C112 C122 1.386 . S
C112 H130 0.931 . S
C113 C111 1.365 . S
C113 C114 1.409 . S
C113 H131 0.929 . S
C114 C113 1.409 . S
C114 C115 1.380 . S
C114 H132 0.930 . S
C115 C114 1.380 . S
C115 C122 1.357 . S
C116 C107 1.511 . S
C116 C117 1.341 . S
C116 C118 1.371 . S
C117 C116 1.341 . S
C117 C121 1.394 . S
C117 H133 0.930 . S
C118 C116 1.371 . S
C118 C119 1.392 . S
C118 H134 0.931 . S
C119 C118 1.392 . S
C119 C120 1.331 . S
C119 H137 0.932 . S
C120 C119 1.331 . S
C120 C121 1.336 . S
C121 C117 1.394 . S
C121 C120 1.336 . S
C121 H136 0.929 . S
C122 C112 1.386 . S
C122 C115 1.357 . S
C122 H135 0.928 . S
H123 C99 0.931 . S
H124 C101 0.930 . S
H125 C103 0.929 . S
H126 C104 0.931 . S
H127 C106 0.930 . S
H128 C110 0.931 . S
H129 C108 0.931 . S
H130 C112 0.931 . S
H131 C113 0.929 . S
H132 C114 0.930 . S
H133 C117 0.930 . S
H134 C118 0.931 . S
H135 C122 0.928 . S
H136 C121 0.929 . S
H137 C119 0.932 . S
C138 C139 1.386 . S
C138 C140 1.397 . S
C138 H162 0.931 . S
C139 C138 1.386 . S
C139 C143 1.397 1_455 S
C140 C138 1.397 . S
C140 C141 1.384 . S
C140 H163 0.930 . S
C141 C140 1.384 . S
C141 C142 1.377 1_455 S
C141 C144 1.481 . S
C142 C141 1.377 1_655 S
C142 C143 1.389 . S
C142 H164 0.929 . S
C143 C139 1.397 1_655 S
C143 C142 1.389 . S
C143 H165 0.931 . S
C144 C141 1.481 . S
C144 C145 1.387 . S
C144 C149 1.390 1_455 S
C145 C144 1.387 . S
C145 C146 1.401 . S
C145 H166 0.930 . S
C146 C145 1.401 . S
C146 C147 1.376 . S
C146 C155 1.511 . S
C147 C146 1.376 . S
C147 C148 1.392 1_455 S
C147 H168 0.931 . S
C148 C147 1.392 1_655 S
C148 C149 1.361 . S
C148 C150 1.500 . S
C149 C144 1.390 1_655 S
C149 C148 1.361 . S
C149 H167 0.931 . S
C150 C148 1.500 . S
C150 C151 1.371 . S
C150 C152 1.365 . S
C151 C150 1.371 . S
C151 C161 1.386 . S
C151 H169 0.931 . S
C152 C150 1.365 . S
C152 C153 1.409 . S
C152 H170 0.929 . S
C153 C152 1.409 . S
C153 C154 1.380 . S
C153 H171 0.930 . S
C154 C153 1.380 . S
C154 C161 1.357 . S
C155 C146 1.511 . S
C155 C156 1.341 . S
C155 C157 1.371 . S
C156 C155 1.341 . S
C156 C160 1.394 . S
C156 H172 0.930 . S
C157 C155 1.371 . S
C157 C158 1.392 . S
C157 H173 0.931 . S
C158 C157 1.392 . S
C158 C159 1.331 . S
C158 H176 0.932 . S
C159 C158 1.331 . S
C159 C160 1.336 . S
C160 C156 1.394 . S
C160 C159 1.336 . S
C160 H175 0.929 . S
C161 C151 1.386 . S
C161 C154 1.357 . S
C161 H174 0.928 . S
H162 C138 0.931 . S
H163 C140 0.930 . S
H164 C142 0.929 . S
H165 C143 0.931 . S
H166 C145 0.930 . S
H167 C149 0.931 . S
H168 C147 0.931 . S
H169 C151 0.931 . S
H170 C152 0.929 . S
H171 C153 0.930 . S
H172 C156 0.930 . S
H173 C157 0.931 . S
H174 C161 0.928 . S
H175 C160 0.929 . S
H176 C158 0.932 . S
C177 C178 1.386 1_655 S
C177 C179 1.397 . S
C177 H201 0.931 . S
C178 C177 1.386 1_455 S
C178 C182 1.397 . S
C179 C177 1.397 . S
C179 C180 1.384 1_655 S
C179 H202 0.930 . S
C180 C179 1.384 1_455 S
C180 C181 1.377 . S
C180 C183 1.481 . S
C181 C180 1.377 . S
C181 C182 1.389 . S
C181 H203 0.929 . S
C182 C178 1.397 . S
C182 C181 1.389 . S
C182 H204 0.931 . S
C183 C180 1.481 . S
C183 C184 1.387 1_455 S
C183 C188 1.390 . S
C184 C183 1.387 1_655 S
C184 C185 1.401 . S
C184 H205 0.930 . S
C185 C184 1.401 . S
C185 C186 1.376 1_655 S
C185 C194 1.511 . S
C186 C185 1.376 1_455 S
C186 C187 1.392 . S
C186 H207 0.931 . S
C187 C186 1.392 . S
C187 C188 1.361 . S
C187 C189 1.500 . S
C188 C183 1.390 . S
C188 C187 1.361 . S
C188 H206 0.931 . S
C189 C187 1.500 . S
C189 C190 1.371 . S
C189 C191 1.365 . S
C190 C189 1.371 . S
C190 C200 1.386 . S
C190 H208 0.931 . S
C191 C189 1.365 . S
C191 C192 1.409 . S
C191 H209 0.929 . S
C192 C191 1.409 . S
C192 C193 1.380 . S
C192 H210 0.930 . S
C193 C192 1.380 . S
C193 C200 1.357 . S
C194 C185 1.511 . S
C194 C195 1.341 . S
C194 C196 1.371 . S
C195 C194 1.341 . S
C195 C199 1.394 . S
C195 H211 0.930 . S
C196 C194 1.371 . S
C196 C197 1.392 . S
C196 H212 0.931 . S
C197 C196 1.392 . S
C197 C198 1.331 . S
C197 H215 0.932 . S
C198 C197 1.331 . S
C198 C199 1.336 . S
C199 C195 1.394 . S
C199 C198 1.336 . S
C199 H214 0.929 . S
C200 C190 1.386 . S
C200 C193 1.357 . S
C200 H213 0.928 . S
H201 C177 0.931 . S
H202 C179 0.930 . S
H203 C181 0.929 . S
H204 C182 0.931 . S
H205 C184 0.930 . S
H206 C188 0.931 . S
H207 C186 0.931 . S
H208 C190 0.931 . S
H209 C191 0.929 . S
H210 C192 0.930 . S
H211 C195 0.930 . S
H212 C196 0.931 . S
H213 C200 0.928 . S
H214 C199 0.929 . S
H215 C197 0.932 . S
C216 C217 1.386 1_565 S
C216 C218 1.397 . S
C216 H240 0.931 . S
C217 C216 1.386 1_545 S
C217 C221 1.397 . S
C218 C216 1.397 . S
C218 C219 1.384 1_565 S
C218 H241 0.930 . S
C219 C218 1.384 1_545 S
C219 C220 1.377 . S
C219 C222 1.481 . S
C220 C219 1.377 . S
C220 C221 1.389 . S
C220 H242 0.929 . S
C221 C217 1.397 . S
C221 C220 1.389 . S
C221 H243 0.931 . S
C222 C219 1.481 . S
C222 C223 1.387 1_545 S
C222 C227 1.390 . S
C223 C222 1.387 1_565 S
C223 C224 1.401 . S
C223 H244 0.930 . S
C224 C223 1.401 . S
C224 C225 1.376 1_565 S
C224 C233 1.511 . S
C225 C224 1.376 1_545 S
C225 C226 1.392 . S
C225 H246 0.931 . S
C226 C225 1.392 . S
C226 C227 1.361 . S
C226 C228 1.500 . S
C227 C222 1.390 . S
C227 C226 1.361 . S
C227 H245 0.931 . S
C228 C226 1.500 . S
C228 C229 1.371 . S
C228 C230 1.365 . S
C229 C228 1.371 . S
C229 C239 1.386 . S
C229 H247 0.931 . S
C230 C228 1.365 . S
C230 C231 1.409 . S
C230 H248 0.929 . S
C231 C230 1.409 . S
C231 C232 1.380 . S
C231 H249 0.930 . S
C232 C231 1.380 . S
C232 C239 1.357 . S
C233 C224 1.511 . S
C233 C234 1.341 . S
C233 C235 1.371 . S
C234 C233 1.341 . S
C234 C238 1.394 . S
C234 H250 0.930 . S
C235 C233 1.371 . S
C235 C236 1.392 . S
C235 H251 0.931 . S
C236 C235 1.392 . S
C236 C237 1.331 . S
C236 H254 0.932 . S
C237 C236 1.331 . S
C237 C238 1.336 . S
C238 C234 1.394 . S
C238 C237 1.336 . S
C238 H253 0.929 . S
C239 C229 1.386 . S
C239 C232 1.357 . S
C239 H252 0.928 . S
H240 C216 0.931 . S
H241 C218 0.930 . S
H242 C220 0.929 . S
H243 C221 0.931 . S
H244 C223 0.930 . S
H245 C227 0.931 . S
H246 C225 0.931 . S
H247 C229 0.931 . S
H248 C230 0.929 . S
H249 C231 0.930 . S
H250 C234 0.930 . S
H251 C235 0.931 . S
H252 C239 0.928 . S
H253 C238 0.929 . S
H254 C236 0.932 . S
C255 C256 1.386 . S
C255 C257 1.397 . S
C255 H279 0.931 . S
C256 C255 1.386 . S
C256 C260 1.397 . S
C257 C255 1.397 . S
C257 C258 1.384 . S
C257 H280 0.930 . S
C258 C257 1.384 . S
C258 C259 1.377 . S
C258 C261 1.481 . S
C259 C258 1.377 . S
C259 C260 1.389 . S
C259 H281 0.929 . S
C260 C256 1.397 . S
C260 C259 1.389 . S
C260 H282 0.931 . S
C261 C258 1.481 . S
C261 C262 1.387 . S
C261 C266 1.390 . S
C262 C261 1.387 . S
C262 C263 1.401 . S
C262 H283 0.930 . S
C263 C262 1.401 . S
C263 C264 1.376 . S
C263 C272 1.511 . S
C264 C263 1.376 . S
C264 C265 1.392 . S
C264 H285 0.931 . S
C265 C264 1.392 . S
C265 C266 1.361 . S
C265 C267 1.500 . S
C266 C261 1.390 . S
C266 C265 1.361 . S
C266 H284 0.931 . S
C267 C265 1.500 . S
C267 C268 1.371 . S
C267 C269 1.365 . S
C268 C267 1.371 . S
C268 C278 1.386 . S
C268 H286 0.931 . S
C269 C267 1.365 . S
C269 C270 1.409 . S
C269 H287 0.929 . S
C270 C269 1.409 . S
C270 C271 1.380 . S
C270 H288 0.930 . S
C271 C270 1.380 . S
C271 C278 1.357 . S
C272 C263 1.511 . S
C272 C273 1.341 . S
C272 C274 1.371 . S
C273 C272 1.341 . S
C273 C277 1.394 . S
C273 H289 0.930 . S
C274 C272 1.371 . S
C274 C275 1.392 . S
C274 H290 0.931 . S
C275 C274 1.392 . S
C275 C276 1.331 . S
C275 H293 0.932 . S
C276 C275 1.331 . S
C276 C277 1.336 . S
C277 C273 1.394 . S
C277 C276 1.336 . S
C277 H292 0.929 . S
C278 C268 1.386 . S
C278 C271 1.357 . S
C278 H291 0.928 . S
H279 C255 0.931 . S
H280 C257 0.930 . S
H281 C259 0.929 . S
H282 C260 0.931 . S
H283 C262 0.930 . S
H284 C266 0.931 . S
H285 C264 0.931 . S
H286 C268 0.931 . S
H287 C269 0.929 . S
H288 C270 0.930 . S
H289 C273 0.930 . S
H290 C274 0.931 . S
H291 C278 0.928 . S
H292 C277 0.929 . S
H293 C275 0.932 . S
H294 C300 0.930 . S
H295 C303 0.930 . S
H296 C304 0.930 . S
H297 C305 0.930 . S
H298 C308 0.930 . S
H299 C309 0.930 . S
C300 H294 0.930 . S
C300 C301 1.355 . S
C300 C302 1.415 . S
C301 C300 1.355 . S
C301 C303 1.419 . S
C302 C300 1.415 . S
C302 C307 1.425 . S
C302 C309 1.409 . S
C303 H295 0.930 . S
C303 C301 1.419 . S
C303 C304 1.362 . S
C304 H296 0.930 . S
C304 C303 1.362 . S
C304 C307 1.409 . S
C305 H297 0.930 . S
C305 C306 1.355 . S
C305 C307 1.415 . S
C306 C305 1.355 . S
C306 C308 1.419 . S
C307 C302 1.425 . S
C307 C304 1.409 . S
C307 C305 1.415 . S
C308 H298 0.930 . S
C308 C306 1.419 . S
C308 C309 1.362 . S
C309 H299 0.930 . S
C309 C302 1.409 . S
C309 C308 1.362 . S
H310 C316 0.930 . S
H311 C319 0.930 . S
H312 C320 0.930 . S
H313 C321 0.930 . S
H314 C324 0.930 . S
H315 C325 0.930 . S
C316 H310 0.930 . S
C316 C317 1.355 . S
C316 C318 1.415 . S
C317 C316 1.355 . S
C317 C319 1.419 . S
C318 C316 1.415 . S
C318 C323 1.425 . S
C318 C325 1.409 . S
C319 H311 0.930 . S
C319 C317 1.419 . S
C319 C320 1.362 . S
C320 H312 0.930 . S
C320 C319 1.362 . S
C320 C323 1.409 . S
C321 H313 0.930 . S
C321 C322 1.355 . S
C321 C323 1.415 . S
C322 C321 1.355 . S
C322 C324 1.419 . S
C323 C318 1.425 . S
C323 C320 1.409 . S
C323 C321 1.415 . S
C324 H314 0.930 . S
C324 C322 1.419 . S
C324 C325 1.362 . S
C325 H315 0.930 . S
C325 C318 1.409 . S
C325 C324 1.362 . S
H326 C332 0.930 . S
H327 C335 0.930 . S
H328 C336 0.930 . S
H329 C337 0.930 . S
H330 C340 0.930 . S
H331 C341 0.930 . S
C332 H326 0.930 . S
C332 C333 1.355 . S
C332 C334 1.415 . S
C333 C332 1.355 . S
C333 C335 1.419 . S
C334 C332 1.415 . S
C334 C339 1.425 . S
C334 C341 1.409 . S
C335 H327 0.930 . S
C335 C333 1.419 . S
C335 C336 1.362 . S
C336 H328 0.930 . S
C336 C335 1.362 . S
C336 C339 1.409 . S
C337 H329 0.930 . S
C337 C338 1.355 . S
C337 C339 1.415 . S
C338 C337 1.355 . S
C338 C340 1.419 . S
C339 C334 1.425 . S
C339 C336 1.409 . S
C339 C337 1.415 . S
C340 H330 0.930 . S
C340 C338 1.419 . S
C340 C341 1.362 . S
C341 H331 0.930 . S
C341 C334 1.409 . S
C341 C340 1.362 . S
H342 C348 0.930 . S
H343 C351 0.930 . S
H344 C352 0.930 . S
H345 C353 0.930 . S
H346 C356 0.930 . S
H347 C357 0.930 . S
C348 H342 0.930 . S
C348 C349 1.355 . S
C348 C350 1.415 . S
C349 C348 1.355 . S
C349 C351 1.419 . S
C350 C348 1.415 . S
C350 C355 1.425 . S
C350 C357 1.409 . S
C351 H343 0.930 . S
C351 C349 1.419 . S
C351 C352 1.362 . S
C352 H344 0.930 . S
C352 C351 1.362 . S
C352 C355 1.409 . S
C353 H345 0.930 . S
C353 C354 1.355 . S
C353 C355 1.415 . S
C354 C353 1.355 . S
C354 C356 1.419 . S
C355 C350 1.425 . S
C355 C352 1.409 . S
C355 C353 1.415 . S
C356 H346 0.930 . S
C356 C354 1.419 . S
C356 C357 1.362 . S
C357 H347 0.930 . S
C357 C350 1.409 . S
C357 C356 1.362 . S
H358 C364 0.930 . S
H359 C367 0.930 . S
H360 C368 0.930 . S
H361 C369 0.930 . S
H362 C372 0.930 . S
H363 C373 0.930 . S
C364 H358 0.930 . S
C364 C365 1.355 . S
C364 C366 1.415 . S
C365 C364 1.355 . S
C365 C367 1.419 . S
C366 C364 1.415 . S
C366 C371 1.425 . S
C366 C373 1.409 . S
C367 H359 0.930 . S
C367 C365 1.419 . S
C367 C368 1.362 . S
C368 H360 0.930 . S
C368 C367 1.362 . S
C368 C371 1.409 . S
C369 H361 0.930 . S
C369 C370 1.355 . S
C369 C371 1.415 . S
C370 C369 1.355 . S
C370 C372 1.419 . S
C371 C366 1.425 . S
C371 C368 1.409 . S
C371 C369 1.415 . S
C372 H362 0.930 . S
C372 C370 1.419 . S
C372 C373 1.362 . S
C373 H363 0.930 . S
C373 C366 1.409 . S
C373 C372 1.362 . S
H374 C380 0.930 . S
H375 C383 0.930 . S
H376 C384 0.930 . S
H377 C385 0.930 . S
H378 C388 0.930 . S
H379 C389 0.930 . S
C380 H374 0.930 . S
C380 C381 1.355 . S
C380 C382 1.415 . S
C381 C380 1.355 . S
C381 C383 1.419 . S
C382 C380 1.415 . S
C382 C387 1.425 . S
C382 C389 1.409 . S
C383 H375 0.930 . S
C383 C381 1.419 . S
C383 C384 1.362 . S
C384 H376 0.930 . S
C384 C383 1.362 . S
C384 C387 1.409 . S
C385 H377 0.930 . S
C385 C386 1.355 . S
C385 C387 1.415 . S
C386 C385 1.355 . S
C386 C388 1.419 . S
C387 C382 1.425 . S
C387 C384 1.409 . S
C387 C385 1.415 . S
C388 H378 0.930 . S
C388 C386 1.419 . S
C388 C389 1.362 . S
C389 H379 0.930 . S
C389 C382 1.409 . S
C389 C388 1.362 . S
H390 C396 0.930 . S
H391 C399 0.930 . S
H392 C400 0.930 . S
H393 C401 0.930 . S
H394 C404 0.930 . S
H395 C405 0.930 . S
C396 H390 0.930 . S
C396 C397 1.355 . S
C396 C398 1.415 . S
C397 C396 1.355 . S
C397 C399 1.419 . S
C398 C396 1.415 . S
C398 C403 1.425 . S
C398 C405 1.409 . S
C399 H391 0.930 . S
C399 C397 1.419 . S
C399 C400 1.362 . S
C400 H392 0.930 . S
C400 C399 1.362 . S
C400 C403 1.409 . S
C401 H393 0.930 . S
C401 C402 1.355 . S
C401 C403 1.415 . S
C402 C401 1.355 . S
C402 C404 1.419 . S
C403 C398 1.425 . S
C403 C400 1.409 . S
C403 C401 1.415 . S
C404 H394 0.930 . S
C404 C402 1.419 . S
C404 C405 1.362 . S
C405 H395 0.930 . S
C405 C398 1.409 . S
C405 C404 1.362 . S
H406 C412 0.930 . S
H407 C415 0.930 . S
H408 C416 0.930 . S
H409 C417 0.930 . S
H410 C420 0.930 . S
H411 C421 0.930 . S
C412 H406 0.930 . S
C412 C413 1.355 . S
C412 C414 1.415 . S
C413 C412 1.355 . S
C413 C415 1.419 . S
C414 C412 1.415 . S
C414 C419 1.425 . S
C414 C421 1.409 . S
C415 H407 0.930 . S
C415 C413 1.419 . S
C415 C416 1.362 . S
C416 H408 0.930 . S
C416 C415 1.362 . S
C416 C419 1.409 . S
C417 H409 0.930 . S
C417 C418 1.355 . S
C417 C419 1.415 . S
C418 C417 1.355 . S
C418 C420 1.419 . S
C419 C414 1.425 . S
C419 C416 1.409 . S
C419 C417 1.415 . S
C420 H410 0.930 . S
C420 C418 1.419 . S
C420 C421 1.362 . S
C421 H411 0.930 . S
C421 C414 1.409 . S
C421 C420 1.362 . S
H422 C428 0.930 . S
H423 C431 0.930 . S
H424 C432 0.930 . S
H425 C433 0.930 . S
H426 C436 0.930 . S
H427 C437 0.930 . S
C428 H422 0.930 . S
C428 C429 1.355 . S
C428 C430 1.415 . S
C429 C428 1.355 . S
C429 C431 1.419 . S
C430 C428 1.415 . S
C430 C435 1.425 . S
C430 C437 1.409 . S
C431 H423 0.930 . S
C431 C429 1.419 . S
C431 C432 1.362 . S
C432 H424 0.930 . S
C432 C431 1.362 . S
C432 C435 1.409 . S
C433 H425 0.930 . S
C433 C434 1.355 . S
C433 C435 1.415 . S
C434 C433 1.355 . S
C434 C436 1.419 . S
C435 C430 1.425 . S
C435 C432 1.409 . S
C435 C433 1.415 . S
C436 H426 0.930 . S
C436 C434 1.419 . S
C436 C437 1.362 . S
C437 H427 0.930 . S
C437 C430 1.409 . S
C437 C436 1.362 . S
H438 C444 0.930 . S
H439 C447 0.930 . S
H440 C448 0.930 . S
H441 C449 0.930 . S
H442 C452 0.930 . S
H443 C453 0.930 . S
C444 H438 0.930 . S
C444 C445 1.355 . S
C444 C446 1.415 . S
C445 C444 1.355 . S
C445 C447 1.419 . S
C446 C444 1.415 . S
C446 C451 1.425 . S
C446 C453 1.409 . S
C447 H439 0.930 . S
C447 C445 1.419 . S
C447 C448 1.362 . S
C448 H440 0.930 . S
C448 C447 1.362 . S
C448 C451 1.409 . S
C449 H441 0.930 . S
C449 C450 1.355 . S
C449 C451 1.415 . S
C450 C449 1.355 . S
C450 C452 1.419 . S
C451 C446 1.425 . S
C451 C448 1.409 . S
C451 C449 1.415 . S
C452 H442 0.930 . S
C452 C450 1.419 . S
C452 C453 1.362 . S
C453 H443 0.930 . S
C453 C446 1.409 . S
C453 C452 1.362 . S
H454 C460 0.930 . S
H455 C463 0.930 . S
H456 C464 0.930 . S
H457 C465 0.930 . S
H458 C468 0.930 . S
H459 C469 0.930 . S
C460 H454 0.930 . S
C460 C461 1.355 . S
C460 C462 1.415 . S
C461 C460 1.355 . S
C461 C463 1.419 . S
C462 C460 1.415 . S
C462 C467 1.425 . S
C462 C469 1.409 . S
C463 H455 0.930 . S
C463 C461 1.419 . S
C463 C464 1.362 . S
C464 H456 0.930 . S
C464 C463 1.362 . S
C464 C467 1.409 . S
C465 H457 0.930 . S
C465 C466 1.355 . S
C465 C467 1.415 . S
C466 C465 1.355 . S
C466 C468 1.419 . S
C467 C462 1.425 . S
C467 C464 1.409 . S
C467 C465 1.415 . S
C468 H458 0.930 . S
C468 C466 1.419 . S
C468 C469 1.362 . S
C469 H459 0.930 . S
C469 C462 1.409 . S
C469 C468 1.362 . S
H470 C476 0.930 . S
H471 C479 0.930 . S
H472 C480 0.930 . S
H473 C481 0.930 . S
H474 C484 0.930 . S
H475 C485 0.930 . S
C476 H470 0.930 . S
C476 C477 1.355 . S
C476 C478 1.415 . S
C477 C476 1.355 . S
C477 C479 1.419 . S
C478 C476 1.415 . S
C478 C483 1.425 . S
C478 C485 1.409 . S
C479 H471 0.930 . S
C479 C477 1.419 . S
C479 C480 1.362 . S
C480 H472 0.930 . S
C480 C479 1.362 . S
C480 C483 1.409 . S
C481 H473 0.930 . S
C481 C482 1.355 . S
C481 C483 1.415 . S
C482 C481 1.355 . S
C482 C484 1.419 . S
C483 C478 1.425 . S
C483 C480 1.409 . S
C483 C481 1.415 . S
C484 H474 0.930 . S
C484 C482 1.419 . S
C484 C485 1.362 . S
C485 H475 0.930 . S
C485 C478 1.409 . S
C485 C484 1.362 . S
H486 C492 0.934 1_655 S
H487 C495 0.930 . S
H488 C496 0.930 . S
H489 C497 0.930 . S
H490 C500 0.930 . S
H491 C501 0.930 1_655 S
C492 H486 0.934 1_455 S
C492 C493 1.355 . S
C492 C494 1.415 . S
C493 C492 1.355 . S
C493 C495 1.419 . S
C494 C492 1.415 . S
C494 C499 1.425 . S
C494 C501 1.409 . S
C495 H487 0.930 . S
C495 C493 1.419 . S
C495 C496 1.362 . S
C496 H488 0.930 . S
C496 C495 1.362 . S
C496 C499 1.409 . S
C497 H489 0.930 . S
C497 C498 1.355 . S
C497 C499 1.415 . S
C498 C497 1.355 . S
C498 C500 1.419 . S
C499 C494 1.425 . S
C499 C496 1.409 . S
C499 C497 1.415 . S
C500 H490 0.930 . S
C500 C498 1.419 . S
C500 C501 1.362 . S
C501 H491 0.930 1_455 S
C501 C494 1.409 . S
C501 C500 1.362 . S
H502 C508 0.930 . S
H503 C511 0.930 . S
H504 C512 0.930 . S
H505 C513 0.930 . S
H506 C516 0.930 . S
H507 C517 0.930 . S
C508 H502 0.930 . S
C508 C509 1.355 . S
C508 C510 1.415 . S
C509 C508 1.355 . S
C509 C511 1.419 1_545 S
C510 C508 1.415 . S
C510 C515 1.426 1_545 S
C510 C517 1.409 . S
C511 H503 0.930 . S
C511 C509 1.419 1_565 S
C511 C512 1.362 . S
C512 H504 0.930 . S
C512 C511 1.362 . S
C512 C515 1.408 . S
C513 H505 0.930 . S
C513 C514 1.355 1_565 S
C513 C515 1.415 . S
C514 C513 1.355 1_545 S
C514 C516 1.419 . S
C515 C510 1.426 1_565 S
C515 C512 1.408 . S
C515 C513 1.415 . S
C516 H506 0.930 . S
C516 C514 1.419 . S
C516 C517 1.362 . S
C517 H507 0.930 . S
C517 C510 1.409 . S
C517 C516 1.362 . S
H518 C524 0.930 . S
H519 C527 0.930 . S
H520 C528 0.930 . S
H521 C529 0.930 . S
H522 C532 0.930 . S
H523 C533 0.930 . S
C524 H518 0.930 . S
C524 C525 1.355 . S
C524 C526 1.415 . S
C525 C524 1.355 . S
C525 C527 1.419 . S
C526 C524 1.415 . S
C526 C531 1.425 . S
C526 C533 1.409 . S
C527 H519 0.930 . S
C527 C525 1.419 . S
C527 C528 1.362 . S
C528 H520 0.930 . S
C528 C527 1.362 . S
C528 C531 1.409 . S
C529 H521 0.930 . S
C529 C530 1.355 . S
C529 C531 1.415 . S
C530 C529 1.355 . S
C530 C532 1.419 . S
C531 C526 1.425 . S
C531 C528 1.409 . S
C531 C529 1.415 . S
C532 H522 0.930 . S
C532 C530 1.419 . S
C532 C533 1.362 . S
C533 H523 0.930 . S
C533 C526 1.409 . S
C533 C532 1.362 . S
H534 C540 0.930 . S
H535 C543 0.930 . S
H536 C544 0.930 . S
H537 C545 0.930 . S
H538 C548 0.930 . S
H539 C549 0.930 . S
C540 H534 0.930 . S
C540 C541 1.355 . S
C540 C542 1.415 . S
C541 C540 1.355 . S
C541 C543 1.419 1_545 S
C542 C540 1.415 . S
C542 C547 1.425 1_545 S
C542 C549 1.409 . S
C543 H535 0.930 . S
C543 C541 1.419 1_565 S
C543 C544 1.362 . S
C544 H536 0.930 . S
C544 C543 1.362 . S
C544 C547 1.409 . S
C545 H537 0.930 . S
C545 C546 1.355 1_565 S
C545 C547 1.415 . S
C546 C545 1.355 1_545 S
C546 C548 1.419 . S
C547 C542 1.425 1_565 S
C547 C544 1.409 . S
C547 C545 1.415 . S
C548 H538 0.930 . S
C548 C546 1.419 . S
C548 C549 1.362 . S
C549 H539 0.930 . S
C549 C542 1.409 . S
C549 C548 1.362 . S
H550 C556 0.930 . S
H551 C559 0.930 . S
H552 C560 0.930 . S
H553 C561 0.930 . S
H554 C564 0.930 . S
H555 C565 0.930 . S
C556 H550 0.930 . S
C556 C557 1.355 . S
C556 C558 1.415 . S
C557 C556 1.355 . S
C557 C559 1.419 . S
C558 C556 1.415 . S
C558 C563 1.425 . S
C558 C565 1.409 . S
C559 H551 0.930 . S
C559 C557 1.419 . S
C559 C560 1.362 . S
C560 H552 0.930 . S
C560 C559 1.362 . S
C560 C563 1.409 . S
C561 H553 0.930 . S
C561 C562 1.355 . S
C561 C563 1.415 . S
C562 C561 1.355 . S
C562 C564 1.419 . S
C563 C558 1.425 . S
C563 C560 1.409 . S
C563 C561 1.415 . S
C564 H554 0.930 . S
C564 C562 1.419 . S
C564 C565 1.362 . S
C565 H555 0.930 . S
C565 C558 1.409 . S
C565 C564 1.362 . S
H566 C572 0.930 . S
H567 C575 0.930 . S
H568 C576 0.930 . S
H569 C577 0.930 . S
H570 C580 0.930 . S
H571 C581 0.930 . S
C572 H566 0.930 . S
C572 C573 1.355 1_655 S
C572 C574 1.415 . S
C573 C572 1.355 1_455 S
C573 C575 1.419 . S
C574 C572 1.415 . S
C574 C579 1.425 1_655 S
C574 C581 1.409 . S
C575 H567 0.930 . S
C575 C573 1.419 . S
C575 C576 1.362 . S
C576 H568 0.930 . S
C576 C575 1.362 . S
C576 C579 1.409 . S
C577 H569 0.930 . S
C577 C578 1.342 1_455 S
C577 C579 1.415 . S
C578 C577 1.342 1_655 S
C578 C580 1.436 . S
C579 C574 1.425 1_455 S
C579 C576 1.409 . S
C579 C577 1.415 . S
C580 H570 0.930 . S
C580 C578 1.436 . S
C580 C581 1.362 . S
C581 H571 0.930 . S
C581 C574 1.409 . S
C581 C580 1.362 . S
C301 C2 1.365 . S
C306 C271 1.488 . S
C317 C22 1.345 . S
C322 C198 1.485 . S
C333 C44 1.487 . S
C338 C237 1.494 . S
C349 C4 1.544 . S
C354 C276 1.668 . S
C370 C193 1.635 . S
C365 C24 1.631 . S
C386 C232 1.592 . S
C381 C42 1.492 . S
C397 C32 1.408 . S
C402 C120 1.342 . S
C413 C49 1.342 . S
C418 C154 1.295 . S
C429 C9 1.279 . S
C434 C76 1.328 . S
C450 C115 1.319 . S
C445 C29 1.320 . S
C466 C159 1.357 . S
C461 C52 1.342 . S
C477 C12 1.276 . S
C482 C81 1.364 . S
C498 C139 1.433 1_554 S
C493 C18 1.424 1_455 S
C509 C38 1.405 . S
C514 C61 1.441 . S
C525 C58 1.408 . S
C530 C100 1.447 . S
C546 C217 1.502 . S
C541 C39 1.499 . S
C562 C256 1.494 1_556 S
C557 C59 1.447 . S
C573 C19 1.443 . S
C578 C178 1.492 1_655 S
