# Generated by pormake.
# Topology anh, (6,3)-cn, num edge types: 1
# Building blocks:
#     Node 0, Type 0, BuildingBlock: VOLQOD_clean_sbu_1, # of connection points: 6
#     Node 1, Type 0, BuildingBlock: VOLQOD_clean_sbu_1, # of connection points: 6
#     Node 2, Type 0, BuildingBlock: VOLQOD_clean_sbu_1, # of connection points: 6
#     Node 3, Type 1, BuildingBlock: PAMTOO_clean_linker_0, # of connection points: 3
#     Node 4, Type 1, BuildingBlock: PAMTOO_clean_linker_0, # of connection points: 3
#     Node 5, Type 1, BuildingBlock: PAMTOO_clean_linker_0, # of connection points: 3
#     Node 6, Type 1, BuildingBlock: PAMTOO_clean_linker_0, # of connection points: 3
#     Node 7, Type 1, BuildingBlock: PAMTOO_clean_linker_0, # of connection points: 3
#     Node 8, Type 1, BuildingBlock: PAMTOO_clean_linker_0, # of connection points: 3
#     Edge 9, Type (0, 1), BuildingBlock: XUDNAN_clean_linker_2, # of connection points: 2
#     Edge 10, Type (0, 1), BuildingBlock: XUDNAN_clean_linker_2, # of connection points: 2
#     Edge 11, Type (0, 1), BuildingBlock: XUDNAN_clean_linker_2, # of connection points: 2
#     Edge 12, Type (0, 1), BuildingBlock: XUDNAN_clean_linker_2, # of connection points: 2
#     Edge 13, Type (0, 1), BuildingBlock: XUDNAN_clean_linker_2, # of connection points: 2
#     Edge 14, Type (0, 1), BuildingBlock: XUDNAN_clean_linker_2, # of connection points: 2
#     Edge 15, Type (0, 1), BuildingBlock: XUDNAN_clean_linker_2, # of connection points: 2
#     Edge 16, Type (0, 1), BuildingBlock: XUDNAN_clean_linker_2, # of connection points: 2
#     Edge 17, Type (0, 1), BuildingBlock: XUDNAN_clean_linker_2, # of connection points: 2
#     Edge 18, Type (0, 1), BuildingBlock: XUDNAN_clean_linker_2, # of connection points: 2
#     Edge 19, Type (0, 1), BuildingBlock: XUDNAN_clean_linker_2, # of connection points: 2
#     Edge 20, Type (0, 1), BuildingBlock: XUDNAN_clean_linker_2, # of connection points: 2
#     Edge 21, Type (0, 1), BuildingBlock: XUDNAN_clean_linker_2, # of connection points: 2
#     Edge 22, Type (0, 1), BuildingBlock: XUDNAN_clean_linker_2, # of connection points: 2
#     Edge 23, Type (0, 1), BuildingBlock: XUDNAN_clean_linker_2, # of connection points: 2
#     Edge 24, Type (0, 1), BuildingBlock: XUDNAN_clean_linker_2, # of connection points: 2
#     Edge 25, Type (0, 1), BuildingBlock: XUDNAN_clean_linker_2, # of connection points: 2
#     Edge 26, Type (0, 1), BuildingBlock: XUDNAN_clean_linker_2, # of connection points: 2
# Relax obj value: 0.159
# Max RMSD: 0.218
# Mean RMSD: 0.138
data_MOF--net-anh--node1-VOLQOD_clean_sbu_1--node2-PAMTOO_clean_linker_0--edge1-XUDNAN_clean_linker_2
_symmetry_space_group_name_H-M    P1
_symmetry_Int_Tables_number       1
_symmetry_cell_setting            triclinic
loop_
_symmetry_equiv_pos_as_xyz
'x, y, z'
_cell_length_a     29.343188
_cell_length_b     29.322515
_cell_length_c     56.39762
_cell_angle_alpha  84.784783
_cell_angle_beta   92.516033
_cell_angle_gamma 120.1246
loop_
_atom_site_label
_atom_site_type_symbol
_atom_site_fract_x
_atom_site_fract_y
_atom_site_fract_z
_atom_type_partial_charge
O0 O 0.0603 0.53657 0.22528 0.0
Zn1 Zn 0.05707 0.56227 0.19101 0.0
O2 O 0.0689 0.52093 0.16902 0.0
Zn3 Zn 0.00859 0.48599 0.14839 0.0
Zn4 Zn 0.07753 0.466 0.18726 0.0
Zn5 Zn 0.13076 0.56725 0.14904 0.0
O6 O 0.02722 0.50889 0.1141 0.0
O7 O 0.11191 0.57019 0.1139 0.0
O8 O 0.98607 0.55794 0.18551 0.0
O9 O 0.95474 0.50412 0.15631 0.0
O10 O 0.9716 0.40672 0.15297 0.0
O11 O 0.01361 0.39394 0.18421 0.0
O12 O 0.14238 0.46648 0.17653 0.0
O13 O 0.11525 0.63834 0.18757 0.0
O14 O 0.17988 0.53811 0.15111 0.0
O15 O 0.16943 0.64125 0.16036 0.0
C16 C 0.07312 0.50347 0.23478 0.0
C17 C 0.06885 0.543 0.10291 0.0
C18 C 0.97625 0.37624 0.16915 0.0
C19 C 0.94955 0.53171 0.17095 0.0
C20 C 0.17952 0.49811 0.16223 0.0
C21 C 0.15778 0.66363 0.17549 0.0
O22 O 0.08334 0.47591 0.22213 0.0
O23 O 0.58134 0.06334 0.44519 0.0
Zn24 Zn 0.55295 0.05574 0.47855 0.0
O25 O 0.59318 0.03849 0.50284 0.0
Zn26 Zn 0.61553 0.08774 0.52701 0.0
Zn27 Zn 0.65524 0.04519 0.48854 0.0
Zn28 Zn 0.5512 0.96709 0.51779 0.0
O29 O 0.60168 0.05153 0.5598 0.0
O30 O 0.54861 0.96701 0.55367 0.0
O31 O 0.54629 0.1189 0.48646 0.0
O32 O 0.57501 0.12556 0.52389 0.0
O33 O 0.69213 0.14257 0.52345 0.0
O34 O 0.7207 0.11215 0.49649 0.0
O35 O 0.66359 0.98198 0.49779 0.0
O36 O 0.47908 0.99424 0.47816 0.0
O37 O 0.58384 0.92302 0.51175 0.0
O38 O 0.47743 0.93256 0.50471 0.0
C39 C 0.61781 0.0559 0.43831 0.0
C40 C 0.57253 0.00364 0.56774 0.0
C41 C 0.72899 0.14704 0.51061 0.0
C42 C 0.55258 0.13762 0.50668 0.0
C43 C 0.62976 0.93489 0.50517 0.0
C44 C 0.45465 0.94837 0.48907 0.0
O45 O 0.64724 0.04768 0.45322 0.0
O46 O 0.61067 0.54655 0.77034 0.0
Zn47 Zn 0.58683 0.51829 0.80444 0.0
O48 O 0.64435 0.55776 0.82662 0.0
Zn49 Zn 0.6183 0.58169 0.8507 0.0
Zn50 Zn 0.70302 0.61931 0.81001 0.0
Zn51 Zn 0.67017 0.513 0.84209 0.0
O52 O 0.62994 0.55833 0.88351 0.0
O53 O 0.66983 0.51262 0.87806 0.0
O54 O 0.51962 0.51901 0.8121 0.0
O55 O 0.54168 0.55444 0.84684 0.0
O56 O 0.65145 0.66042 0.84779 0.0
O57 O 0.70683 0.68745 0.81735 0.0
O58 O 0.77282 0.62256 0.81756 0.0
O59 O 0.56906 0.44198 0.80672 0.0
O60 O 0.7449 0.53991 0.83257 0.0
O61 O 0.62676 0.43853 0.83261 0.0
C62 C 0.65446 0.58333 0.76153 0.0
C63 C 0.65137 0.53181 0.89169 0.0
C64 C 0.68441 0.69719 0.83343 0.0
C65 C 0.50781 0.53279 0.83068 0.0
C66 C 0.78155 0.58513 0.82464 0.0
C67 C 0.58824 0.4162 0.81838 0.0
O68 O 0.69228 0.61293 0.77481 0.0
H69 H 0.68606 0.07829 0.26135 0.0
H70 H 0.5186 0.97438 0.26409 0.0
H71 H 0.59396 0.04765 0.19686 0.0
H72 H 0.48596 0.02475 0.19509 0.0
C73 C 0.4717 0.99826 0.21173 0.0
O74 O 0.50542 0.97915 0.21788 0.0
H75 H 0.47082 0.02159 0.22606 0.0
C76 C 0.64865 0.05948 0.25217 0.0
C77 C 0.64657 0.06893 0.22734 0.0
C78 C 0.60289 0.0266 0.26566 0.0
C79 C 0.55424 0.00067 0.25401 0.0
C80 C 0.55169 0.00737 0.22916 0.0
C81 C 0.59743 0.04179 0.21593 0.0
H82 H 0.6835 0.66041 0.58106 0.0
H83 H 0.61667 0.49114 0.58825 0.0
H84 H 0.61728 0.57036 0.52017 0.0
H85 H 0.5291 0.46736 0.52244 0.0
C86 C 0.53904 0.44996 0.53879 0.0
O87 O 0.59245 0.47909 0.54298 0.0
H88 H 0.51638 0.45088 0.55391 0.0
C89 C 0.66539 0.62272 0.57323 0.0
C90 C 0.65242 0.62079 0.54903 0.0
C91 C 0.65247 0.57626 0.58767 0.0
C92 C 0.62676 0.52746 0.57745 0.0
C93 C 0.61496 0.52559 0.55303 0.0
C94 C 0.62751 0.57219 0.5389 0.0
H95 H 0.0544 0.60314 0.91634 0.0
H96 H 0.17446 0.56281 0.93507 0.0
H97 H 0.14397 0.5898 0.86166 0.0
H98 H 0.14726 0.49361 0.87688 0.0
C99 C 0.18491 0.51217 0.88703 0.0
O100 O 0.19944 0.56354 0.89097 0.0
H101 H 0.17848 0.48858 0.90441 0.0
C102 C 0.08574 0.59675 0.91114 0.0
C103 C 0.09576 0.59853 0.88682 0.0
C104 C 0.11363 0.58379 0.92882 0.0
C105 C 0.15336 0.57428 0.92186 0.0
C106 C 0.16395 0.57641 0.89766 0.0
C107 C 0.13572 0.58908 0.88028 0.0
H108 H 0.00924 0.42312 0.41836 0.0
H109 H 0.12908 0.58619 0.40519 0.0
H110 H 0.07144 0.52534 0.47602 0.0
H111 H 0.08827 0.62947 0.46709 0.0
C112 C 0.11518 0.64355 0.45148 0.0
O113 O 0.13356 0.60913 0.44915 0.0
H114 H 0.09287 0.64523 0.43524 0.0
C115 C 0.03632 0.46098 0.4251 0.0
C116 C 0.0356 0.46831 0.4494 0.0
C117 C 0.07029 0.50299 0.40903 0.0
C118 C 0.10287 0.55313 0.41729 0.0
C119 C 0.10255 0.56077 0.44136 0.0
C120 C 0.07007 0.51846 0.4574 0.0
H121 H 0.61452 0.94015 0.74878 0.0
H122 H 0.56509 0.05614 0.74129 0.0
H123 H 0.62642 0.02897 0.80801 0.0
H124 H 0.53948 0.0482 0.81512 0.0
C125 C 0.53877 0.06598 0.79693 0.0
O126 O 0.58521 0.081 0.78531 0.0
H127 H 0.50449 0.03562 0.78727 0.0
C128 C 0.60965 0.9701 0.75634 0.0
C129 C 0.62363 0.98109 0.78022 0.0
C130 C 0.58922 0.99736 0.74203 0.0
C131 C 0.58158 0.03524 0.75192 0.0
C132 C 0.59419 0.04567 0.77576 0.0
C133 C 0.61592 0.01943 0.78973 0.0
H134 H 0.68956 0.52722 0.07908 0.0
H135 H 0.54847 0.52966 0.05583 0.0
H136 H 0.58203 0.52066 0.13019 0.0
H137 H 0.47843 0.43588 0.10781 0.0
C138 C 0.46812 0.46564 0.09969 0.0
O139 O 0.51195 0.51566 0.09859 0.0
H140 H 0.45345 0.45498 0.08136 0.0
C141 C 0.65392 0.52775 0.08273 0.0
C142 C 0.64068 0.52598 0.10654 0.0
C143 C 0.62164 0.52966 0.06392 0.0
C144 C 0.5746 0.52816 0.06963 0.0
C145 C 0.55989 0.52343 0.09342 0.0
C146 C 0.59351 0.52381 0.11184 0.0
H147 H 0.25354 0.54465 0.12682 0.0
H148 H 0.20211 0.42702 0.18721 0.0
H149 H 0.27251 0.40792 0.1787 0.0
H150 H 0.2811 0.47211 0.08848 0.0
H151 H 0.33771 0.52944 0.07487 0.0
H152 H 0.28519 0.53578 0.08653 0.0
H153 H 0.35185 0.60794 0.11313 0.0
H154 H 0.40466 0.60192 0.10153 0.0
H155 H 0.39347 0.59372 0.1332 0.0
H156 H 0.34745 0.40055 0.16303 0.0
H157 H 0.41998 0.40393 0.14069 0.0
H158 H 0.4203 0.52471 0.09018 0.0
C159 C 0.25731 0.51522 0.13845 0.0
C160 C 0.22248 0.4875 0.15777 0.0
C161 C 0.22838 0.44879 0.17232 0.0
C162 C 0.26829 0.43775 0.16766 0.0
C163 C 0.30171 0.46564 0.14837 0.0
C164 C 0.29653 0.50347 0.13396 0.0
C165 C 0.33615 0.52647 0.11381 0.0
C166 C 0.30836 0.51525 0.08949 0.0
C167 C 0.37376 0.58604 0.11553 0.0
C168 C 0.36436 0.49546 0.11904 0.0
C169 C 0.34418 0.46081 0.13913 0.0
C170 C 0.36366 0.42761 0.14732 0.0
C171 C 0.40474 0.42977 0.13456 0.0
C172 C 0.42552 0.46471 0.11384 0.0
C173 C 0.40509 0.49792 0.10606 0.0
H174 H 0.81637 0.17243 0.48441 0.0
H175 H 0.75795 0.23403 0.53514 0.0
H176 H 0.83797 0.32131 0.52908 0.0
H177 H 0.96095 0.25695 0.49925 0.0
H178 H 0.9794 0.26445 0.46847 0.0
H179 H 0.92257 0.20447 0.48017 0.0
H180 H 0.86503 0.21706 0.44697 0.0
H181 H 0.92128 0.27725 0.43538 0.0
H182 H 0.86298 0.27775 0.44377 0.0
H183 H 0.91405 0.40437 0.51195 0.0
H184 H 0.98389 0.4764 0.4869 0.0
H185 H 0.99735 0.36097 0.44904 0.0
C186 C 0.82111 0.20378 0.49483 0.0
C187 C 0.78078 0.1963 0.51023 0.0
C188 C 0.78828 0.23863 0.52328 0.0
C189 C 0.83371 0.28842 0.52001 0.0
C190 C 0.87166 0.29501 0.50394 0.0
C191 C 0.86635 0.25364 0.49187 0.0
C192 C 0.9104 0.27238 0.47395 0.0
C193 C 0.94541 0.24812 0.48088 0.0
C194 C 0.88859 0.26041 0.44853 0.0
C195 C 0.93946 0.33117 0.47687 0.0
C196 C 0.91691 0.34329 0.49447 0.0
C197 C 0.93322 0.39534 0.49866 0.0
C198 C 0.97326 0.43611 0.48432 0.0
C199 C 0.99689 0.42475 0.46602 0.0
C200 C 0.98027 0.37135 0.46275 0.0
H201 H 0.72542 0.77806 0.79818 0.0
H202 H 0.65455 0.73532 0.86851 0.0
H203 H 0.64597 0.81494 0.86508 0.0
H204 H 0.79289 0.92832 0.80124 0.0
H205 H 0.77864 0.93682 0.77027 0.0
H206 H 0.79141 0.88422 0.78054 0.0
H207 H 0.7023 0.81638 0.76276 0.0
H208 H 0.68882 0.86833 0.75281 0.0
H209 H 0.64245 0.81289 0.77195 0.0
H210 H 0.6266 0.88579 0.85078 0.0
H211 H 0.60221 0.94534 0.82741 0.0
H212 H 0.68936 0.94617 0.76692 0.0
C213 C 0.71027 0.78669 0.81328 0.0
C214 C 0.69077 0.75051 0.83361 0.0
C215 C 0.66984 0.76248 0.85275 0.0
C216 C 0.66498 0.80779 0.85102 0.0
C217 C 0.68187 0.84116 0.83019 0.0
C218 C 0.70503 0.83177 0.8118 0.0
C219 C 0.71355 0.86981 0.79016 0.0
C220 C 0.77265 0.90701 0.78527 0.0
C221 C 0.68506 0.84005 0.76815 0.0
C222 C 0.68833 0.89948 0.79871 0.0
C223 C 0.67125 0.88313 0.82199 0.0
C224 C 0.6413 0.90026 0.8328 0.0
C225 C 0.6277 0.93428 0.81935 0.0
C226 C 0.64394 0.95079 0.79528 0.0
C227 C 0.67601 0.93421 0.78521 0.0
H228 H 0.85732 0.46065 0.15185 0.0
H229 H 0.92924 0.60489 0.18832 0.0
H230 H 0.84778 0.61023 0.18205 0.0
H231 H 0.8039 0.50164 0.10693 0.0
H232 H 0.7446 0.43887 0.10431 0.0
H233 H 0.80322 0.44077 0.11616 0.0
H234 H 0.75249 0.38591 0.15452 0.0
H235 H 0.69341 0.38379 0.14272 0.0
H236 H 0.71811 0.40882 0.17134 0.0
H237 H 0.76431 0.60711 0.16567 0.0
H238 H 0.68957 0.59743 0.14 0.0
H239 H 0.67468 0.45574 0.1145 0.0
C240 C 0.85568 0.49282 0.15904 0.0
C241 C 0.8996 0.53251 0.17048 0.0
C242 C 0.89585 0.57391 0.1796 0.0
C243 C 0.8497 0.57711 0.17618 0.0
C244 C 0.80767 0.53808 0.16402 0.0
C245 C 0.8103 0.49643 0.15583 0.0
C246 C 0.76306 0.46295 0.14087 0.0
C247 C 0.77972 0.46102 0.11559 0.0
C248 C 0.7298 0.40706 0.1531 0.0
C249 C 0.73466 0.49387 0.14068 0.0
C250 C 0.76005 0.53635 0.1546 0.0
C251 C 0.74349 0.57332 0.15519 0.0
C252 C 0.70107 0.56754 0.14064 0.0
C253 C 0.67663 0.52567 0.12554 0.0
C254 C 0.69254 0.48763 0.1262 0.0
H255 H 0.39039 0.846 0.50711 0.0
H256 H 0.39428 0.9677 0.45575 0.0
H257 H 0.30492 0.90455 0.44244 0.0
H258 H 0.3278 0.74164 0.47049 0.0
H259 H 0.28826 0.69258 0.49372 0.0
H260 H 0.35041 0.74859 0.5009 0.0
H261 H 0.30407 0.77288 0.53141 0.0
H262 H 0.2417 0.71669 0.52443 0.0
H263 H 0.24944 0.78193 0.52196 0.0
H264 H 0.21865 0.82634 0.43225 0.0
H265 H 0.14063 0.73862 0.42669 0.0
H266 H 0.19241 0.66886 0.48509 0.0
C267 C 0.37221 0.85973 0.49333 0.0
C268 C 0.39942 0.91187 0.48251 0.0
C269 C 0.37426 0.928 0.46437 0.0
C270 C 0.32344 0.89245 0.45669 0.0
C271 C 0.29818 0.84109 0.46744 0.0
C272 C 0.32152 0.82485 0.48549 0.0
C273 C 0.28703 0.76679 0.49326 0.0
C274 C 0.31506 0.73559 0.48935 0.0
C275 C 0.26952 0.75914 0.51931 0.0
C276 C 0.24123 0.75264 0.47636 0.0
C277 C 0.24824 0.79609 0.46169 0.0
C278 C 0.2124 0.79213 0.4438 0.0
C279 C 0.16839 0.74229 0.44073 0.0
C280 C 0.16095 0.69731 0.45542 0.0
C281 C 0.19738 0.70283 0.47368 0.0
H282 H 0.62214 0.34987 0.83869 0.0
H283 H 0.50845 0.35554 0.7883 0.0
H284 H 0.47956 0.26431 0.77896 0.0
H285 H 0.66138 0.28172 0.80442 0.0
H286 H 0.66858 0.24259 0.82926 0.0
H287 H 0.67713 0.30649 0.83354 0.0
H288 H 0.60563 0.26427 0.86656 0.0
H289 H 0.59703 0.20016 0.86248 0.0
H290 H 0.54123 0.2103 0.86011 0.0
H291 H 0.46828 0.17528 0.77269 0.0
H292 H 0.47354 0.0939 0.77111 0.0
H293 H 0.59373 0.14642 0.82578 0.0
C294 C 0.59059 0.33177 0.82595 0.0
C295 C 0.56754 0.35996 0.81426 0.0
C296 C 0.52667 0.33479 0.79755 0.0
C297 C 0.50995 0.28294 0.79212 0.0
C298 C 0.53426 0.25673 0.80365 0.0
C299 C 0.57344 0.28016 0.82034 0.0
C300 C 0.59485 0.24443 0.82944 0.0
C301 C 0.65398 0.27036 0.82382 0.0
C302 C 0.58402 0.22886 0.85624 0.0
C303 C 0.56228 0.19759 0.81494 0.0
C304 C 0.52737 0.2053 0.80024 0.0
C305 C 0.49485 0.16844 0.78439 0.0
C306 C 0.49807 0.12246 0.78359 0.0
C307 C 0.53333 0.11381 0.79865 0.0
C308 C 0.56578 0.15188 0.81445 0.0
H309 H 0.56326 0.82788 0.50993 0.0
H310 H 0.72878 0.94756 0.50372 0.0
H311 H 0.75269 0.87761 0.50883 0.0
H312 H 0.57621 0.74726 0.55492 0.0
H313 H 0.52677 0.68568 0.54386 0.0
H314 H 0.52282 0.74462 0.53685 0.0
H315 H 0.52092 0.73211 0.49181 0.0
H316 H 0.52513 0.67308 0.49873 0.0
H317 H 0.5729 0.72625 0.47911 0.0
H318 H 0.75877 0.79624 0.52054 0.0
H319 H 0.74591 0.70908 0.53676 0.0
H320 H 0.57684 0.64243 0.53283 0.0
C321 C 0.60453 0.83939 0.50929 0.0
C322 C 0.64417 0.89315 0.5065 0.0
C323 C 0.69772 0.90658 0.50575 0.0
C324 C 0.71168 0.86713 0.50857 0.0
C325 C 0.67158 0.81451 0.51165 0.0
C326 C 0.61906 0.80058 0.51175 0.0
C327 C 0.58367 0.74158 0.51688 0.0
C328 C 0.55045 0.72909 0.53947 0.0
C329 C 0.54859 0.71681 0.49534 0.0
C330 C 0.62455 0.7247 0.52069 0.0
C331 C 0.67508 0.76725 0.5174 0.0
C332 C 0.71946 0.76236 0.5225 0.0
C333 C 0.71191 0.71294 0.53164 0.0
C334 C 0.66049 0.66934 0.5353 0.0
C335 C 0.61643 0.67499 0.52928 0.0
H336 H 0.86732 0.65697 0.84804 0.0
H337 H 0.81417 0.52893 0.80223 0.0
H338 H 0.89961 0.53174 0.8072 0.0
H339 H 0.01372 0.72674 0.8328 0.0
H340 H 0.03165 0.74043 0.86339 0.0
H341 H 0.97258 0.73811 0.85142 0.0
H342 H 0.9179 0.6677 0.8853 0.0
H343 H 0.97649 0.66953 0.89725 0.0
H344 H 0.92099 0.60761 0.88957 0.0
H345 H 0.98238 0.53739 0.82225 0.0
H346 H 0.05395 0.54141 0.84801 0.0
H347 H 0.05414 0.66455 0.88537 0.0
C348 C 0.87493 0.63134 0.83826 0.0
C349 C 0.83523 0.59367 0.82428 0.0
C350 C 0.84487 0.55867 0.81264 0.0
C351 C 0.89326 0.56017 0.81529 0.0
C352 C 0.93129 0.59661 0.82984 0.0
C353 C 0.92276 0.63164 0.84117 0.0
C354 C 0.96626 0.66057 0.85885 0.0
C355 C 0.99794 0.72 0.85115 0.0
C356 C 0.94406 0.65072 0.88423 0.0
C357 C -0.00106 0.63434 0.85658 0.0
C358 C 0.97891 0.59871 0.83927 0.0
C359 C -0.00072 0.5661 0.83545 0.0
C360 C 0.04019 0.56885 0.85014 0.0
C361 C 0.05999 0.60357 0.86863 0.0
C362 C 0.04 0.63779 0.87133 0.0
H363 H 0.26007 0.72566 0.15958 0.0
H364 H 0.14279 0.7262 0.20377 0.0
H365 H 0.20896 0.81414 0.21597 0.0
H366 H 0.36504 0.78267 0.19936 0.0
H367 H 0.41464 0.82192 0.177 0.0
H368 H 0.35699 0.76143 0.16969 0.0
H369 H 0.33585 0.81217 0.13502 0.0
H370 H 0.39376 0.87287 0.14209 0.0
H371 H 0.33026 0.86859 0.14089 0.0
H372 H 0.2894 0.89845 0.2261 0.0
H373 H 0.37827 0.97448 0.23242 0.0
H374 H 0.44311 0.91983 0.18155 0.0
C375 C 0.24794 0.74468 0.17143 0.0
C376 C 0.19606 0.71891 0.18064 0.0
C377 C 0.18218 0.74501 0.19641 0.0
C378 C 0.2195 0.79507 0.20346 0.0
C379 C 0.27054 0.81874 0.19451 0.0
C380 C 0.28474 0.79465 0.17869 0.0
C381 C 0.34292 0.82741 0.17269 0.0
C382 C 0.37156 0.7965 0.18014 0.0
C383 C 0.35116 0.84639 0.14609 0.0
C384 C 0.35939 0.87307 0.18799 0.0
C385 C 0.31699 0.86746 0.20034 0.0
C386 C 0.32281 0.90355 0.21636 0.0
C387 C 0.37336 0.94646 0.21989 0.0
C388 C 0.41734 0.95272 0.20753 0.0
C389 C 0.41001 0.91582 0.1912 0.0
H390 H 0.56991 0.22888 0.48079 0.0
H391 H 0.4928 0.12655 0.54398 0.0
H392 H 0.47047 0.19145 0.55645 0.0
H393 H 0.6316 0.34397 0.509 0.0
H394 H 0.6257 0.3862 0.48527 0.0
H395 H 0.62654 0.32786 0.47854 0.0
H396 H 0.53731 0.29435 0.45657 0.0
H397 H 0.5364 0.35299 0.46303 0.0
H398 H 0.48165 0.28854 0.47178 0.0
H399 H 0.46797 0.27116 0.5652 0.0
H400 H 0.48437 0.36139 0.56932 0.0
H401 H 0.56442 0.41423 0.50109 0.0
C402 C 0.54653 0.21953 0.49671 0.0
C403 C 0.53212 0.17259 0.51127 0.0
C404 C 0.50351 0.16221 0.53253 0.0
C405 C 0.49058 0.19873 0.53971 0.0
C406 C 0.50683 0.24559 0.52547 0.0
C407 C 0.53395 0.25614 0.50435 0.0
C408 C 0.55214 0.31215 0.49392 0.0
C409 C 0.61257 0.34442 0.49156 0.0
C410 C 0.52526 0.31198 0.4699 0.0
C411 C 0.53266 0.33178 0.5129 0.0
C412 C 0.50593 0.29244 0.53074 0.0
C413 C 0.48774 0.30202 0.55109 0.0
C414 C 0.49727 0.35328 0.55332 0.0
C415 C 0.52469 0.39415 0.5353 0.0
C416 C 0.54226 0.38313 0.5148 0.0
H417 H 0.47029 0.55102 0.86997 0.0
H418 H 0.42411 0.49619 0.79918 0.0
H419 H 0.3359 0.48517 0.80552 0.0
H420 H 0.34707 0.46267 0.89868 0.0
H421 H 0.35203 0.51094 0.91783 0.0
H422 H 0.41086 0.51429 0.90744 0.0
H423 H 0.44475 0.61082 0.89004 0.0
H424 H 0.38598 0.60779 0.90032 0.0
H425 H 0.4042 0.62518 0.86932 0.0
H426 H 0.2528 0.4818 0.81994 0.0
H427 H 0.18193 0.48374 0.84141 0.0
H428 H 0.28424 0.5399 0.90254 0.0
C429 C 0.44184 0.53665 0.85568 0.0
C430 C 0.45427 0.52457 0.83401 0.0
C431 C 0.41552 0.50567 0.81594 0.0
C432 C 0.36539 0.49939 0.81938 0.0
C433 C 0.35478 0.51205 0.84098 0.0
C434 C 0.39201 0.5301 0.85882 0.0
C435 C 0.37129 0.54085 0.88047 0.0
C436 C 0.37024 0.50504 0.90239 0.0
C437 C 0.40347 0.59965 0.88531 0.0
C438 C 0.31632 0.526 0.87212 0.0
C439 C 0.30742 0.50964 0.84928 0.0
C440 C 0.25937 0.49437 0.83784 0.0
C441 C 0.21943 0.4956 0.85013 0.0
C442 C 0.22784 0.51173 0.87362 0.0
C443 C 0.27695 0.52727 0.88462 0.0
H444 H 0.92873 0.3282 0.21115 0.0
H445 H 0.92133 0.3047 0.13607 0.0
H446 H 0.83839 0.21879 0.143 0.0
H447 H 0.86797 0.18954 0.23559 0.0
H448 H 0.83163 0.19916 0.25766 0.0
H449 H 0.89445 0.25324 0.24729 0.0
H450 H 0.8511 0.31045 0.23574 0.0
H451 H 0.7882 0.25654 0.24589 0.0
H452 H 0.79544 0.28612 0.21584 0.0
H453 H 0.75361 0.13644 0.15868 0.0
H454 H 0.67306 0.06986 0.18045 0.0
H455 H 0.7321 0.15827 0.24333 0.0
C456 C 0.91063 0.30398 0.19634 0.0
C457 C 0.93197 0.32186 0.17324 0.0
C458 C 0.90592 0.29073 0.154 0.0
C459 C 0.85891 0.24208 0.15779 0.0
C460 C 0.83809 0.22609 0.1808 0.0
C461 C 0.86302 0.25655 0.19968 0.0
C462 C 0.82976 0.23458 0.22199 0.0
C463 C 0.85762 0.21815 0.2418 0.0
C464 C 0.81527 0.27428 0.23034 0.0
C465 C 0.78212 0.18697 0.21281 0.0
C466 C 0.78784 0.1819 0.1892 0.0
C467 C 0.74867 0.14028 0.17717 0.0
C468 C 0.70265 0.10289 0.18967 0.0
C469 C 0.69553 0.10803 0.21384 0.0
C470 C 0.73606 0.15136 0.22522 0.0
H471 H 0.15141 0.59128 0.07064 0.0
H472 H 0.98058 0.50828 0.07556 0.0
H473 H 0.9745 0.51243 0.0319 0.0
H474 H 0.16266 0.67836 0.01743 0.0
H475 H 0.21622 0.67473 0.00503 0.0
H476 H 0.20782 0.66827 0.03685 0.0
H477 H 0.20523 0.57836 0.03921 0.0
H478 H 0.21327 0.58435 0.0074 0.0
H479 H 0.15787 0.52673 0.02159 0.0
H480 H 0.98559 0.52051 0.98831 0.0
H481 H 0.01348 0.53423 0.94658 0.0
H482 H 0.17742 0.6134 0.96871 0.0
C483 C 0.1128 0.57469 0.06251 0.0
C484 C 0.06647 0.54949 0.07659 0.0
C485 C 0.01665 0.52764 0.06523 0.0
C486 C 0.01272 0.52986 0.0404 0.0
C487 C 0.05893 0.55405 0.02707 0.0
C488 C 0.10807 0.57631 0.03761 0.0
C489 C 0.15128 0.5983 0.01893 0.0
C490 C 0.18657 0.6585 0.0196 0.0
C491 C 0.18382 0.57025 0.02197 0.0
C492 C 0.11855 0.58434 0.99635 0.0
C493 C 0.06541 0.55901 0.00157 0.0
C494 C 0.0271 0.54097 0.98393 0.0
C495 C 0.04344 0.5493 0.96022 0.0
C496 C 0.09771 0.57572 0.95424 0.0
C497 C 0.13568 0.59318 0.97266 0.0
H498 H 0.55777 0.06189 0.40012 0.0
H499 H 0.69116 0.03965 0.41853 0.0
H500 H 0.69722 0.02409 0.37705 0.0
H501 H 0.49862 0.96271 0.35806 0.0
H502 H 0.47907 0.00052 0.3375 0.0
H503 H 0.48438 0.01029 0.36882 0.0
H504 H 0.54954 0.11039 0.35967 0.0
H505 H 0.54376 0.10104 0.32833 0.0
H506 H 0.60773 0.1312 0.34221 0.0
H507 H 0.68871 0.00908 0.33427 0.0
H508 H 0.67153 0.00464 0.2911 0.0
H509 H 0.54501 0.03797 0.29931 0.0
C510 C 0.58852 0.0542 0.39539 0.0
C511 C 0.62385 0.05189 0.41272 0.0
C512 C 0.66348 0.04161 0.40571 0.0
C513 C 0.66718 0.03242 0.38217 0.0
C514 C 0.63115 0.03381 0.3657 0.0
C515 C 0.59299 0.04509 0.37182 0.0
C516 C 0.56013 0.04538 0.35032 0.0
C517 C 0.50211 0.00214 0.3539 0.0
C518 C 0.56564 0.10027 0.34481 0.0
C519 C 0.58606 0.03271 0.33123 0.0
C520 C 0.62661 0.02573 0.34064 0.0
C521 C 0.65717 0.0146 0.32664 0.0
C522 C 0.64712 0.01214 0.30218 0.0
C523 C 0.60707 0.02106 0.29192 0.0
C524 C 0.5754 0.03031 0.30675 0.0
H525 H 0.5857 0.52529 0.72672 0.0
H526 H 0.74381 0.65609 0.73722 0.0
H527 H 0.76156 0.66431 0.69437 0.0
H528 H 0.61967 0.46704 0.68197 0.0
H529 H 0.56077 0.44932 0.66469 0.0
H530 H 0.5598 0.45286 0.69638 0.0
H531 H 0.52623 0.51964 0.68973 0.0
H532 H 0.52648 0.51578 0.65805 0.0
H533 H 0.56269 0.57905 0.67043 0.0
H534 H 0.7629 0.65901 0.65072 0.0
H535 H 0.74531 0.64429 0.60809 0.0
H536 H 0.58653 0.51746 0.62527 0.0
C537 C 0.62399 0.55581 0.72002 0.0
C538 C 0.66334 0.58998 0.73545 0.0
C539 C 0.71292 0.62938 0.72586 0.0
C540 C 0.72355 0.63427 0.70152 0.0
C541 C 0.68425 0.59955 0.68692 0.0
C542 C 0.63533 0.56135 0.69569 0.0
C543 C 0.59975 0.52994 0.67591 0.0
C544 C 0.58409 0.47131 0.67999 0.0
C545 C 0.55091 0.53652 0.67338 0.0
C546 C 0.63631 0.55676 0.65467 0.0
C547 C 0.68497 0.59656 0.66152 0.0
C548 C 0.725 0.62795 0.64512 0.0
C549 C 0.71465 0.61932 0.62098 0.0
C550 C 0.66465 0.57975 0.61344 0.0
C551 C 0.62535 0.54743 0.63059 0.0
H552 H 0.60901 0.07327 0.60241 0.0
H553 H 0.52248 0.90533 0.59218 0.0
H554 H 0.51422 0.8851 0.63584 0.0
H555 H 0.68216 0.06576 0.65293 0.0
H556 H 0.67922 0.11657 0.6674 0.0
H557 H 0.67676 0.11743 0.63543 0.0
H558 H 0.58884 0.11829 0.63548 0.0
H559 H 0.59095 0.11728 0.66749 0.0
H560 H 0.53414 0.06717 0.65296 0.0
H561 H 0.51871 0.88361 0.68078 0.0
H562 H 0.53463 0.901 0.72334 0.0
H563 H 0.61702 0.06983 0.70358 0.0
C564 C 0.58814 0.03215 0.60926 0.0
C565 C 0.56645 0.99086 0.59383 0.0
C566 C 0.53938 0.93765 0.60363 0.0
C567 C 0.53446 0.92578 0.6284 0.0
C568 C 0.55652 0.96755 0.64306 0.0
C569 C 0.58265 0.01965 0.63383 0.0
C570 C 0.60353 0.05734 0.65333 0.0
C571 C 0.664 0.09125 0.6522 0.0
C572 C 0.57781 0.09206 0.65224 0.0
C573 C 0.58553 0.01832 0.67505 0.0
C574 C 0.55846 0.96671 0.6688 0.0
C575 C 0.53958 0.92385 0.68587 0.0
C576 C 0.54897 0.93409 0.70995 0.0
C577 C 0.57684 0.98673 0.71668 0.0
C578 C 0.59485 0.02922 0.69895 0.0
H579 H 0.57348 0.49406 0.92458 0.0
H580 H 0.74153 0.55863 0.91667 0.0
H581 H 0.75251 0.56314 0.96042 0.0
H582 H 0.5765 0.56851 0.96948 0.0
H583 H 0.52064 0.51618 0.9859 0.0
H584 H 0.52531 0.5143 0.95433 0.0
H585 H 0.51703 0.4218 0.96091 0.0
H586 H 0.51125 0.42288 0.99251 0.0
H587 H 0.56141 0.41232 0.98114 0.0
H588 H 0.74586 0.57352 0.00374 0.0
H589 H 0.7217 0.57476 0.04466 0.0
H590 H 0.5559 0.49073 0.02505 0.0
C591 C 0.61233 0.50792 0.93222 0.0
C592 C 0.65675 0.5259 0.91757 0.0
C593 C 0.70714 0.54417 0.92786 0.0
C594 C 0.71368 0.54714 0.95257 0.0
C595 C 0.66917 0.53035 0.96657 0.0
C596 C 0.61927 0.50962 0.95685 0.0
C597 C 0.57798 0.49429 0.97578 0.0
C598 C 0.54839 0.52518 0.97108 0.0
C599 C 0.53967 0.43426 0.9777 0.0
C600 C 0.61263 0.51143 0.99758 0.0
C601 C 0.66508 0.5326 0.99186 0.0
C602 C 0.70476 0.5553 0.00863 0.0
C603 C 0.69039 0.55538 0.03199 0.0
C604 C 0.63656 0.53166 0.03866 0.0
C605 C 0.59742 0.5095 0.02096 0.0
H606 H 0.0692 0.56445 0.26811 0.0
H607 H 0.08066 0.42427 0.26091 0.0
H608 H 0.08129 0.4092 0.30459 0.0
H609 H 0.15543 0.60814 0.31902 0.0
H610 H 0.11759 0.63157 0.33281 0.0
H611 H 0.11801 0.63153 0.30089 0.0
H612 H 0.01605 0.57533 0.30087 0.0
H613 H 0.01532 0.57516 0.33279 0.0
H614 H 0.98379 0.51349 0.31896 0.0
H615 H 0.07809 0.4076 0.34892 0.0
H616 H 0.07537 0.4222 0.39119 0.0
H617 H 0.06798 0.56423 0.3697 0.0
C618 C 0.0719 0.53061 0.2757 0.0
C619 C 0.07481 0.49553 0.26104 0.0
C620 C 0.07855 0.45185 0.27173 0.0
C621 C 0.07882 0.44283 0.29654 0.0
C622 C 0.07569 0.47802 0.31045 0.0
C623 C 0.07265 0.52123 0.30046 0.0
C624 C 0.07012 0.55319 0.31948 0.0
C625 C 0.11816 0.60944 0.31795 0.0
C626 C 0.01823 0.55433 0.31793 0.0
C627 C 0.07192 0.521 0.3417 0.0
C628 C 0.07488 0.47767 0.33607 0.0
C629 C 0.07595 0.44149 0.35357 0.0
C630 C 0.07413 0.44993 0.37748 0.0
C631 C 0.07159 0.49435 0.38365 0.0
C632 C 0.07053 0.53028 0.36547 0.0
loop_
_geom_bond_atom_site_label_1
_geom_bond_atom_site_label_2
_geom_bond_distance
_geom_bond_site_symmetry_2
_ccdc_geom_bond_type
O0 Zn1 1.953 . S
O0 C16 1.225 . S
Zn1 O0 1.953 . S
Zn1 O2 1.949 . S
Zn1 O8 1.919 1_455 S
Zn1 O13 1.924 . S
O2 Zn1 1.949 . S
O2 Zn3 1.923 1_455 S
O2 Zn4 1.950 . S
O2 Zn5 1.945 . S
Zn3 O2 1.923 1_655 S
Zn3 O6 1.931 1_655 S
Zn3 O9 1.941 . S
Zn3 O10 1.965 . S
Zn4 O2 1.950 . S
Zn4 O11 1.938 1_455 S
Zn4 O12 1.906 . S
Zn4 O22 1.953 . S
Zn5 O2 1.945 . S
Zn5 O7 1.932 . S
Zn5 O14 1.977 . S
Zn5 O15 1.910 . S
O6 Zn3 1.931 1_455 S
O6 C17 1.233 . S
O7 Zn5 1.932 . S
O7 C17 1.307 . S
O8 Zn1 1.919 1_655 S
O8 C19 1.253 . S
O9 Zn3 1.941 . S
O9 C19 1.283 . S
O10 Zn3 1.965 . S
O10 C18 1.303 . S
O11 Zn4 1.938 1_655 S
O11 C18 1.247 . S
O12 Zn4 1.906 . S
O12 C20 1.304 . S
O13 Zn1 1.924 . S
O13 C21 1.311 . S
O14 Zn5 1.977 . S
O14 C20 1.272 . S
O15 Zn5 1.910 . S
O15 C21 1.231 . S
C16 O0 1.225 . S
C16 O22 1.298 . S
C17 O6 1.233 . S
C17 O7 1.307 . S
C18 O10 1.303 . S
C18 O11 1.247 . S
C19 O8 1.253 . S
C19 O9 1.283 . S
C20 O12 1.304 . S
C20 O14 1.272 . S
C21 O13 1.311 . S
C21 O15 1.231 . S
O22 Zn4 1.953 . S
O22 C16 1.298 . S
O23 Zn24 1.953 . S
O23 C39 1.225 . S
Zn24 O23 1.953 . S
Zn24 O25 1.949 . S
Zn24 O31 1.919 . S
Zn24 O36 1.924 1_545 S
O25 Zn24 1.949 . S
O25 Zn26 1.923 . S
O25 Zn27 1.950 . S
O25 Zn28 1.945 1_545 S
Zn26 O25 1.923 . S
Zn26 O29 1.933 . S
Zn26 O32 1.941 . S
Zn26 O33 1.965 . S
Zn27 O25 1.950 . S
Zn27 O34 1.938 . S
Zn27 O35 1.906 1_545 S
Zn27 O45 1.953 . S
Zn28 O25 1.945 1_565 S
Zn28 O30 1.932 . S
Zn28 O37 1.977 . S
Zn28 O38 1.910 . S
O29 Zn26 1.933 . S
O29 C40 1.226 . S
O30 Zn28 1.932 . S
O30 C40 1.307 1_565 S
O31 Zn24 1.919 . S
O31 C42 1.253 . S
O32 Zn26 1.941 . S
O32 C42 1.283 . S
O33 Zn26 1.965 . S
O33 C41 1.303 . S
O34 Zn27 1.938 . S
O34 C41 1.247 . S
O35 Zn27 1.906 1_565 S
O35 C43 1.304 . S
O36 Zn24 1.924 1_565 S
O36 C44 1.311 . S
O37 Zn28 1.977 . S
O37 C43 1.272 . S
O38 Zn28 1.910 . S
O38 C44 1.231 . S
C39 O23 1.225 . S
C39 O45 1.298 . S
C40 O29 1.226 . S
C40 O30 1.307 1_545 S
C41 O33 1.303 . S
C41 O34 1.247 . S
C42 O31 1.253 . S
C42 O32 1.283 . S
C43 O35 1.304 . S
C43 O37 1.272 . S
C44 O36 1.311 . S
C44 O38 1.231 . S
O45 Zn27 1.953 . S
O45 C39 1.298 . S
O46 Zn47 1.953 . S
O46 C62 1.225 . S
Zn47 O46 1.953 . S
Zn47 O48 1.949 . S
Zn47 O54 1.919 . S
Zn47 O59 1.924 . S
O48 Zn47 1.949 . S
O48 Zn49 1.923 . S
O48 Zn50 1.950 . S
O48 Zn51 1.945 . S
Zn49 O48 1.923 . S
Zn49 O52 1.933 . S
Zn49 O55 1.941 . S
Zn49 O56 1.965 . S
Zn50 O48 1.950 . S
Zn50 O57 1.938 . S
Zn50 O58 1.906 . S
Zn50 O68 1.953 . S
Zn51 O48 1.945 . S
Zn51 O53 1.932 . S
Zn51 O60 1.977 . S
Zn51 O61 1.910 . S
O52 Zn49 1.933 . S
O52 C63 1.226 . S
O53 Zn51 1.932 . S
O53 C63 1.307 . S
O54 Zn47 1.919 . S
O54 C65 1.253 . S
O55 Zn49 1.941 . S
O55 C65 1.283 . S
O56 Zn49 1.965 . S
O56 C64 1.303 . S
O57 Zn50 1.938 . S
O57 C64 1.247 . S
O58 Zn50 1.906 . S
O58 C66 1.304 . S
O59 Zn47 1.924 . S
O59 C67 1.311 . S
O60 Zn51 1.977 . S
O60 C66 1.272 . S
O61 Zn51 1.910 . S
O61 C67 1.231 . S
C62 O46 1.225 . S
C62 O68 1.298 . S
C63 O52 1.226 . S
C63 O53 1.307 . S
C64 O56 1.303 . S
C64 O57 1.247 . S
C65 O54 1.253 . S
C65 O55 1.283 . S
C66 O58 1.304 . S
C66 O60 1.272 . S
C67 O59 1.311 . S
C67 O61 1.231 . S
O68 Zn50 1.953 . S
O68 C62 1.298 . S
H69 C76 0.929 . S
H70 C79 0.930 1_565 S
H71 C81 0.929 . S
H72 C73 0.969 . S
C73 H72 0.969 . S
C73 O74 1.550 . S
C73 H75 0.973 . S
O74 C73 1.550 . S
O74 C80 1.412 1_565 S
H75 C73 0.973 . S
C76 H69 0.929 . S
C76 C77 1.400 . S
C76 C78 1.364 . S
C77 C76 1.400 . S
C77 C81 1.377 . S
C78 C76 1.364 . S
C78 C79 1.374 . S
C79 H70 0.930 1_545 S
C79 C78 1.374 . S
C79 C80 1.383 . S
C80 O74 1.412 1_545 S
C80 C79 1.383 . S
C80 C81 1.394 . S
C81 H71 0.929 . S
C81 C77 1.377 . S
C81 C80 1.394 . S
H82 C89 0.929 . S
H83 C92 0.930 . S
H84 C94 0.929 . S
H85 C86 0.969 . S
C86 H85 0.969 . S
C86 O87 1.550 . S
C86 H88 0.973 . S
O87 C86 1.550 . S
O87 C93 1.412 . S
H88 C86 0.973 . S
C89 H82 0.929 . S
C89 C90 1.400 . S
C89 C91 1.364 . S
C90 C89 1.400 . S
C90 C94 1.377 . S
C91 C89 1.364 . S
C91 C92 1.374 . S
C92 H83 0.930 . S
C92 C91 1.374 . S
C92 C93 1.383 . S
C93 O87 1.412 . S
C93 C92 1.383 . S
C93 C94 1.394 . S
C94 H84 0.929 . S
C94 C90 1.377 . S
C94 C93 1.394 . S
H95 C102 0.929 . S
H96 C105 0.930 . S
H97 C107 0.929 . S
H98 C99 0.969 . S
C99 H98 0.969 . S
C99 O100 1.550 . S
C99 H101 0.973 . S
O100 C99 1.550 . S
O100 C106 1.412 . S
H101 C99 0.973 . S
C102 H95 0.929 . S
C102 C103 1.400 . S
C102 C104 1.364 . S
C103 C102 1.400 . S
C103 C107 1.377 . S
C104 C102 1.364 . S
C104 C105 1.374 . S
C105 H96 0.930 . S
C105 C104 1.374 . S
C105 C106 1.383 . S
C106 O100 1.412 . S
C106 C105 1.383 . S
C106 C107 1.394 . S
C107 H97 0.929 . S
C107 C103 1.377 . S
C107 C106 1.394 . S
H108 C115 0.929 . S
H109 C118 0.930 . S
H110 C120 0.929 . S
H111 C112 0.969 . S
C112 H111 0.969 . S
C112 O113 1.550 . S
C112 H114 0.973 . S
O113 C112 1.550 . S
O113 C119 1.412 . S
H114 C112 0.973 . S
C115 H108 0.929 . S
C115 C116 1.400 . S
C115 C117 1.364 . S
C116 C115 1.400 . S
C116 C120 1.377 . S
C117 C115 1.364 . S
C117 C118 1.374 . S
C118 H109 0.930 . S
C118 C117 1.374 . S
C118 C119 1.383 . S
C119 O113 1.412 . S
C119 C118 1.383 . S
C119 C120 1.394 . S
C120 H110 0.929 . S
C120 C116 1.377 . S
C120 C119 1.394 . S
H121 C128 0.929 . S
H122 C131 0.930 . S
H123 C133 0.929 . S
H124 C125 0.969 . S
C125 H124 0.969 . S
C125 O126 1.550 . S
C125 H127 0.973 . S
O126 C125 1.550 . S
O126 C132 1.412 . S
H127 C125 0.973 . S
C128 H121 0.929 . S
C128 C129 1.400 . S
C128 C130 1.364 1_565 S
C129 C128 1.400 . S
C129 C133 1.377 1_565 S
C130 C128 1.364 1_545 S
C130 C131 1.374 . S
C131 H122 0.930 . S
C131 C130 1.374 . S
C131 C132 1.383 . S
C132 O126 1.412 . S
C132 C131 1.383 . S
C132 C133 1.394 . S
C133 H123 0.929 . S
C133 C129 1.377 1_545 S
C133 C132 1.394 . S
H134 C141 0.929 . S
H135 C144 0.930 . S
H136 C146 0.929 . S
H137 C138 0.969 . S
C138 H137 0.969 . S
C138 O139 1.550 . S
C138 H140 0.973 . S
O139 C138 1.550 . S
O139 C145 1.412 . S
H140 C138 0.973 . S
C141 H134 0.929 . S
C141 C142 1.400 . S
C141 C143 1.364 . S
C142 C141 1.400 . S
C142 C146 1.377 . S
C143 C141 1.364 . S
C143 C144 1.374 . S
C144 H135 0.930 . S
C144 C143 1.374 . S
C144 C145 1.383 . S
C145 O139 1.412 . S
C145 C144 1.383 . S
C145 C146 1.394 . S
C146 H136 0.929 . S
C146 C142 1.377 . S
C146 C145 1.394 . S
H147 C159 0.930 . S
H148 C161 0.930 . S
H149 C162 0.930 . S
H150 C166 0.959 . S
H151 C166 0.959 . S
H152 C166 0.961 . S
H153 C167 0.960 . S
H154 C167 0.961 . S
H155 C167 0.959 . S
H156 C170 0.929 . S
H157 C171 0.931 . S
H158 C173 0.930 . S
C159 H147 0.930 . S
C159 C160 1.399 . S
C159 C164 1.399 . S
C160 C159 1.399 . S
C160 C161 1.376 . S
C161 H148 0.930 . S
C161 C160 1.376 . S
C161 C162 1.388 . S
C162 H149 0.930 . S
C162 C161 1.388 . S
C162 C163 1.390 . S
C163 C162 1.390 . S
C163 C164 1.394 . S
C163 C169 1.465 . S
C164 C159 1.399 . S
C164 C163 1.394 . S
C164 C165 1.516 . S
C165 C164 1.516 . S
C165 C166 1.502 . S
C165 C167 1.561 . S
C165 C168 1.526 . S
C166 H150 0.959 . S
C166 H151 0.959 . S
C166 H152 0.961 . S
C166 C165 1.502 . S
C167 H153 0.960 . S
C167 H154 0.961 . S
C167 H155 0.959 . S
C167 C165 1.561 . S
C168 C165 1.526 . S
C168 C169 1.396 . S
C168 C173 1.390 . S
C169 C163 1.465 . S
C169 C168 1.396 . S
C169 C170 1.399 . S
C170 H156 0.929 . S
C170 C169 1.399 . S
C170 C171 1.385 . S
C171 H157 0.931 . S
C171 C170 1.385 . S
C171 C172 1.389 . S
C172 C171 1.389 . S
C172 C173 1.387 . S
C173 H158 0.930 . S
C173 C168 1.390 . S
C173 C172 1.387 . S
H174 C186 0.930 . S
H175 C188 0.930 . S
H176 C189 0.930 . S
H177 C193 0.959 . S
H178 C193 0.959 . S
H179 C193 0.961 . S
H180 C194 0.960 . S
H181 C194 0.961 . S
H182 C194 0.959 . S
H183 C197 0.929 . S
H184 C198 0.931 . S
H185 C200 0.930 1_455 S
C186 H174 0.930 . S
C186 C187 1.399 . S
C186 C191 1.399 . S
C187 C186 1.399 . S
C187 C188 1.376 . S
C188 H175 0.930 . S
C188 C187 1.376 . S
C188 C189 1.388 . S
C189 H176 0.930 . S
C189 C188 1.388 . S
C189 C190 1.390 . S
C190 C189 1.390 . S
C190 C191 1.394 . S
C190 C196 1.465 . S
C191 C186 1.399 . S
C191 C190 1.394 . S
C191 C192 1.516 . S
C192 C191 1.516 . S
C192 C193 1.502 . S
C192 C194 1.561 . S
C192 C195 1.526 . S
C193 H177 0.959 . S
C193 H178 0.959 . S
C193 H179 0.961 . S
C193 C192 1.502 . S
C194 H180 0.960 . S
C194 H181 0.961 . S
C194 H182 0.959 . S
C194 C192 1.561 . S
C195 C192 1.526 . S
C195 C196 1.396 . S
C195 C200 1.390 . S
C196 C190 1.465 . S
C196 C195 1.396 . S
C196 C197 1.399 . S
C197 H183 0.929 . S
C197 C196 1.399 . S
C197 C198 1.385 . S
C198 H184 0.931 . S
C198 C197 1.385 . S
C198 C199 1.389 . S
C199 C198 1.389 . S
C199 C200 1.387 . S
C200 H185 0.930 1_655 S
C200 C195 1.390 . S
C200 C199 1.387 . S
H201 C213 0.930 . S
H202 C215 0.930 . S
H203 C216 0.930 . S
H204 C220 0.959 . S
H205 C220 0.959 . S
H206 C220 0.961 . S
H207 C221 0.960 . S
H208 C221 0.961 . S
H209 C221 0.959 . S
H210 C224 0.929 . S
H211 C225 0.931 . S
H212 C227 0.930 . S
C213 H201 0.930 . S
C213 C214 1.399 . S
C213 C218 1.399 . S
C214 C213 1.399 . S
C214 C215 1.376 . S
C215 H202 0.930 . S
C215 C214 1.376 . S
C215 C216 1.388 . S
C216 H203 0.930 . S
C216 C215 1.388 . S
C216 C217 1.390 . S
C217 C216 1.390 . S
C217 C218 1.394 . S
C217 C223 1.465 . S
C218 C213 1.399 . S
C218 C217 1.394 . S
C218 C219 1.516 . S
C219 C218 1.516 . S
C219 C220 1.502 . S
C219 C221 1.561 . S
C219 C222 1.526 . S
C220 H204 0.959 . S
C220 H205 0.959 . S
C220 H206 0.961 . S
C220 C219 1.502 . S
C221 H207 0.960 . S
C221 H208 0.961 . S
C221 H209 0.959 . S
C221 C219 1.561 . S
C222 C219 1.526 . S
C222 C223 1.396 . S
C222 C227 1.390 . S
C223 C217 1.465 . S
C223 C222 1.396 . S
C223 C224 1.399 . S
C224 H210 0.929 . S
C224 C223 1.399 . S
C224 C225 1.385 . S
C225 H211 0.931 . S
C225 C224 1.385 . S
C225 C226 1.389 . S
C226 C225 1.389 . S
C226 C227 1.387 . S
C227 H212 0.930 . S
C227 C222 1.390 . S
C227 C226 1.387 . S
H228 C240 0.930 . S
H229 C242 0.930 . S
H230 C243 0.930 . S
H231 C247 0.959 . S
H232 C247 0.959 . S
H233 C247 0.961 . S
H234 C248 0.960 . S
H235 C248 0.961 . S
H236 C248 0.959 . S
H237 C251 0.929 . S
H238 C252 0.931 . S
H239 C254 0.930 . S
C240 H228 0.930 . S
C240 C241 1.399 . S
C240 C245 1.399 . S
C241 C240 1.399 . S
C241 C242 1.376 . S
C242 H229 0.930 . S
C242 C241 1.376 . S
C242 C243 1.388 . S
C243 H230 0.930 . S
C243 C242 1.388 . S
C243 C244 1.390 . S
C244 C243 1.390 . S
C244 C245 1.394 . S
C244 C250 1.465 . S
C245 C240 1.399 . S
C245 C244 1.394 . S
C245 C246 1.516 . S
C246 C245 1.516 . S
C246 C247 1.502 . S
C246 C248 1.561 . S
C246 C249 1.526 . S
C247 H231 0.959 . S
C247 H232 0.959 . S
C247 H233 0.961 . S
C247 C246 1.502 . S
C248 H234 0.960 . S
C248 H235 0.961 . S
C248 H236 0.959 . S
C248 C246 1.561 . S
C249 C246 1.526 . S
C249 C250 1.396 . S
C249 C254 1.390 . S
C250 C244 1.465 . S
C250 C249 1.396 . S
C250 C251 1.399 . S
C251 H237 0.929 . S
C251 C250 1.399 . S
C251 C252 1.385 . S
C252 H238 0.931 . S
C252 C251 1.385 . S
C252 C253 1.389 . S
C253 C252 1.389 . S
C253 C254 1.387 . S
C254 H239 0.930 . S
C254 C249 1.390 . S
C254 C253 1.387 . S
H255 C267 0.930 . S
H256 C269 0.930 . S
H257 C270 0.930 . S
H258 C274 0.959 . S
H259 C274 0.959 . S
H260 C274 0.961 . S
H261 C275 0.960 . S
H262 C275 0.961 . S
H263 C275 0.959 . S
H264 C278 0.929 . S
H265 C279 0.931 . S
H266 C281 0.930 . S
C267 H255 0.930 . S
C267 C268 1.399 . S
C267 C272 1.399 . S
C268 C267 1.399 . S
C268 C269 1.376 . S
C269 H256 0.930 . S
C269 C268 1.376 . S
C269 C270 1.388 . S
C270 H257 0.930 . S
C270 C269 1.388 . S
C270 C271 1.390 . S
C271 C270 1.390 . S
C271 C272 1.394 . S
C271 C277 1.465 . S
C272 C267 1.399 . S
C272 C271 1.394 . S
C272 C273 1.516 . S
C273 C272 1.516 . S
C273 C274 1.502 . S
C273 C275 1.561 . S
C273 C276 1.526 . S
C274 H258 0.959 . S
C274 H259 0.959 . S
C274 H260 0.961 . S
C274 C273 1.502 . S
C275 H261 0.960 . S
C275 H262 0.961 . S
C275 H263 0.959 . S
C275 C273 1.561 . S
C276 C273 1.526 . S
C276 C277 1.396 . S
C276 C281 1.390 . S
C277 C271 1.465 . S
C277 C276 1.396 . S
C277 C278 1.399 . S
C278 H264 0.929 . S
C278 C277 1.399 . S
C278 C279 1.385 . S
C279 H265 0.931 . S
C279 C278 1.385 . S
C279 C280 1.389 . S
C280 C279 1.389 . S
C280 C281 1.387 . S
C281 H266 0.930 . S
C281 C276 1.390 . S
C281 C280 1.387 . S
H282 C294 0.930 . S
H283 C296 0.930 . S
H284 C297 0.930 . S
H285 C301 0.959 . S
H286 C301 0.959 . S
H287 C301 0.961 . S
H288 C302 0.960 . S
H289 C302 0.961 . S
H290 C302 0.959 . S
H291 C305 0.929 . S
H292 C306 0.931 . S
H293 C308 0.930 . S
C294 H282 0.930 . S
C294 C295 1.399 . S
C294 C299 1.399 . S
C295 C294 1.399 . S
C295 C296 1.376 . S
C296 H283 0.930 . S
C296 C295 1.376 . S
C296 C297 1.388 . S
C297 H284 0.930 . S
C297 C296 1.388 . S
C297 C298 1.390 . S
C298 C297 1.390 . S
C298 C299 1.394 . S
C298 C304 1.465 . S
C299 C294 1.399 . S
C299 C298 1.394 . S
C299 C300 1.516 . S
C300 C299 1.516 . S
C300 C301 1.502 . S
C300 C302 1.561 . S
C300 C303 1.526 . S
C301 H285 0.959 . S
C301 H286 0.959 . S
C301 H287 0.961 . S
C301 C300 1.502 . S
C302 H288 0.960 . S
C302 H289 0.961 . S
C302 H290 0.959 . S
C302 C300 1.561 . S
C303 C300 1.526 . S
C303 C304 1.396 . S
C303 C308 1.390 . S
C304 C298 1.465 . S
C304 C303 1.396 . S
C304 C305 1.399 . S
C305 H291 0.929 . S
C305 C304 1.399 . S
C305 C306 1.385 . S
C306 H292 0.931 . S
C306 C305 1.385 . S
C306 C307 1.389 . S
C307 C306 1.389 . S
C307 C308 1.387 . S
C308 H293 0.930 . S
C308 C303 1.390 . S
C308 C307 1.387 . S
H309 C321 0.930 . S
H310 C323 0.930 . S
H311 C324 0.930 . S
H312 C328 0.959 . S
H313 C328 0.959 . S
H314 C328 0.961 . S
H315 C329 0.960 . S
H316 C329 0.961 . S
H317 C329 0.959 . S
H318 C332 0.929 . S
H319 C333 0.931 . S
H320 C335 0.930 . S
C321 H309 0.930 . S
C321 C322 1.399 . S
C321 C326 1.399 . S
C322 C321 1.399 . S
C322 C323 1.376 . S
C323 H310 0.930 . S
C323 C322 1.376 . S
C323 C324 1.388 . S
C324 H311 0.930 . S
C324 C323 1.388 . S
C324 C325 1.390 . S
C325 C324 1.390 . S
C325 C326 1.394 . S
C325 C331 1.465 . S
C326 C321 1.399 . S
C326 C325 1.394 . S
C326 C327 1.516 . S
C327 C326 1.516 . S
C327 C328 1.502 . S
C327 C329 1.561 . S
C327 C330 1.526 . S
C328 H312 0.959 . S
C328 H313 0.959 . S
C328 H314 0.961 . S
C328 C327 1.502 . S
C329 H315 0.960 . S
C329 H316 0.961 . S
C329 H317 0.959 . S
C329 C327 1.561 . S
C330 C327 1.526 . S
C330 C331 1.396 . S
C330 C335 1.390 . S
C331 C325 1.465 . S
C331 C330 1.396 . S
C331 C332 1.399 . S
C332 H318 0.929 . S
C332 C331 1.399 . S
C332 C333 1.385 . S
C333 H319 0.931 . S
C333 C332 1.385 . S
C333 C334 1.389 . S
C334 C333 1.389 . S
C334 C335 1.387 . S
C335 H320 0.930 . S
C335 C330 1.390 . S
C335 C334 1.387 . S
H336 C348 0.930 . S
H337 C350 0.930 . S
H338 C351 0.930 . S
H339 C355 0.959 . S
H340 C355 0.959 1_455 S
H341 C355 0.961 . S
H342 C356 0.960 . S
H343 C356 0.961 . S
H344 C356 0.959 . S
H345 C359 0.929 . S
H346 C360 0.931 . S
H347 C362 0.930 . S
C348 H336 0.930 . S
C348 C349 1.399 . S
C348 C353 1.399 . S
C349 C348 1.399 . S
C349 C350 1.376 . S
C350 H337 0.930 . S
C350 C349 1.376 . S
C350 C351 1.388 . S
C351 H338 0.930 . S
C351 C350 1.388 . S
C351 C352 1.390 . S
C352 C351 1.390 . S
C352 C353 1.394 . S
C352 C358 1.465 . S
C353 C348 1.399 . S
C353 C352 1.394 . S
C353 C354 1.516 . S
C354 C353 1.516 . S
C354 C355 1.502 . S
C354 C356 1.561 . S
C354 C357 1.526 . S
C355 H339 0.959 . S
C355 H340 0.959 1_655 S
C355 H341 0.961 . S
C355 C354 1.502 . S
C356 H342 0.960 . S
C356 H343 0.961 . S
C356 H344 0.959 . S
C356 C354 1.561 . S
C357 C354 1.526 . S
C357 C358 1.396 . S
C357 C362 1.390 1_655 S
C358 C352 1.465 . S
C358 C357 1.396 . S
C358 C359 1.399 . S
C359 H345 0.929 . S
C359 C358 1.399 . S
C359 C360 1.385 . S
C360 H346 0.931 . S
C360 C359 1.385 . S
C360 C361 1.389 1_655 S
C361 C360 1.389 1_455 S
C361 C362 1.387 . S
C362 H347 0.930 . S
C362 C357 1.390 1_455 S
C362 C361 1.387 . S
H363 C375 0.930 . S
H364 C377 0.930 . S
H365 C378 0.930 . S
H366 C382 0.959 . S
H367 C382 0.959 . S
H368 C382 0.961 . S
H369 C383 0.960 . S
H370 C383 0.961 . S
H371 C383 0.959 . S
H372 C386 0.929 . S
H373 C387 0.931 . S
H374 C389 0.930 . S
C375 H363 0.930 . S
C375 C376 1.399 . S
C375 C380 1.399 . S
C376 C375 1.399 . S
C376 C377 1.376 . S
C377 H364 0.930 . S
C377 C376 1.376 . S
C377 C378 1.388 . S
C378 H365 0.930 . S
C378 C377 1.388 . S
C378 C379 1.390 . S
C379 C378 1.390 . S
C379 C380 1.394 . S
C379 C385 1.465 . S
C380 C375 1.399 . S
C380 C379 1.394 . S
C380 C381 1.516 . S
C381 C380 1.516 . S
C381 C382 1.502 . S
C381 C383 1.561 . S
C381 C384 1.526 . S
C382 H366 0.959 . S
C382 H367 0.959 . S
C382 H368 0.961 . S
C382 C381 1.502 . S
C383 H369 0.960 . S
C383 H370 0.961 . S
C383 H371 0.959 . S
C383 C381 1.561 . S
C384 C381 1.526 . S
C384 C385 1.396 . S
C384 C389 1.390 . S
C385 C379 1.465 . S
C385 C384 1.396 . S
C385 C386 1.399 . S
C386 H372 0.929 . S
C386 C385 1.399 . S
C386 C387 1.385 . S
C387 H373 0.931 . S
C387 C386 1.385 . S
C387 C388 1.389 . S
C388 C387 1.389 . S
C388 C389 1.387 . S
C389 H374 0.930 . S
C389 C384 1.390 . S
C389 C388 1.387 . S
H390 C402 0.930 . S
H391 C404 0.930 . S
H392 C405 0.930 . S
H393 C409 0.959 . S
H394 C409 0.959 . S
H395 C409 0.961 . S
H396 C410 0.960 . S
H397 C410 0.961 . S
H398 C410 0.959 . S
H399 C413 0.929 . S
H400 C414 0.931 . S
H401 C416 0.930 . S
C402 H390 0.930 . S
C402 C403 1.399 . S
C402 C407 1.399 . S
C403 C402 1.399 . S
C403 C404 1.376 . S
C404 H391 0.930 . S
C404 C403 1.376 . S
C404 C405 1.388 . S
C405 H392 0.930 . S
C405 C404 1.388 . S
C405 C406 1.390 . S
C406 C405 1.390 . S
C406 C407 1.394 . S
C406 C412 1.465 . S
C407 C402 1.399 . S
C407 C406 1.394 . S
C407 C408 1.516 . S
C408 C407 1.516 . S
C408 C409 1.502 . S
C408 C410 1.561 . S
C408 C411 1.526 . S
C409 H393 0.959 . S
C409 H394 0.959 . S
C409 H395 0.961 . S
C409 C408 1.502 . S
C410 H396 0.960 . S
C410 H397 0.961 . S
C410 H398 0.959 . S
C410 C408 1.561 . S
C411 C408 1.526 . S
C411 C412 1.396 . S
C411 C416 1.390 . S
C412 C406 1.465 . S
C412 C411 1.396 . S
C412 C413 1.399 . S
C413 H399 0.929 . S
C413 C412 1.399 . S
C413 C414 1.385 . S
C414 H400 0.931 . S
C414 C413 1.385 . S
C414 C415 1.389 . S
C415 C414 1.389 . S
C415 C416 1.387 . S
C416 H401 0.930 . S
C416 C411 1.390 . S
C416 C415 1.387 . S
H417 C429 0.930 . S
H418 C431 0.930 . S
H419 C432 0.930 . S
H420 C436 0.959 . S
H421 C436 0.959 . S
H422 C436 0.961 . S
H423 C437 0.960 . S
H424 C437 0.961 . S
H425 C437 0.959 . S
H426 C440 0.929 . S
H427 C441 0.931 . S
H428 C443 0.930 . S
C429 H417 0.930 . S
C429 C430 1.399 . S
C429 C434 1.399 . S
C430 C429 1.399 . S
C430 C431 1.376 . S
C431 H418 0.930 . S
C431 C430 1.376 . S
C431 C432 1.388 . S
C432 H419 0.930 . S
C432 C431 1.388 . S
C432 C433 1.390 . S
C433 C432 1.390 . S
C433 C434 1.394 . S
C433 C439 1.465 . S
C434 C429 1.399 . S
C434 C433 1.394 . S
C434 C435 1.516 . S
C435 C434 1.516 . S
C435 C436 1.502 . S
C435 C437 1.561 . S
C435 C438 1.526 . S
C436 H420 0.959 . S
C436 H421 0.959 . S
C436 H422 0.961 . S
C436 C435 1.502 . S
C437 H423 0.960 . S
C437 H424 0.961 . S
C437 H425 0.959 . S
C437 C435 1.561 . S
C438 C435 1.526 . S
C438 C439 1.396 . S
C438 C443 1.390 . S
C439 C433 1.465 . S
C439 C438 1.396 . S
C439 C440 1.399 . S
C440 H426 0.929 . S
C440 C439 1.399 . S
C440 C441 1.385 . S
C441 H427 0.931 . S
C441 C440 1.385 . S
C441 C442 1.389 . S
C442 C441 1.389 . S
C442 C443 1.387 . S
C443 H428 0.930 . S
C443 C438 1.390 . S
C443 C442 1.387 . S
H444 C456 0.930 . S
H445 C458 0.930 . S
H446 C459 0.930 . S
H447 C463 0.959 . S
H448 C463 0.959 . S
H449 C463 0.961 . S
H450 C464 0.960 . S
H451 C464 0.961 . S
H452 C464 0.959 . S
H453 C467 0.929 . S
H454 C468 0.931 . S
H455 C470 0.930 . S
C456 H444 0.930 . S
C456 C457 1.399 . S
C456 C461 1.399 . S
C457 C456 1.399 . S
C457 C458 1.376 . S
C458 H445 0.930 . S
C458 C457 1.376 . S
C458 C459 1.388 . S
C459 H446 0.930 . S
C459 C458 1.388 . S
C459 C460 1.390 . S
C460 C459 1.390 . S
C460 C461 1.394 . S
C460 C466 1.465 . S
C461 C456 1.399 . S
C461 C460 1.394 . S
C461 C462 1.516 . S
C462 C461 1.516 . S
C462 C463 1.502 . S
C462 C464 1.561 . S
C462 C465 1.526 . S
C463 H447 0.959 . S
C463 H448 0.959 . S
C463 H449 0.961 . S
C463 C462 1.502 . S
C464 H450 0.960 . S
C464 H451 0.961 . S
C464 H452 0.959 . S
C464 C462 1.561 . S
C465 C462 1.526 . S
C465 C466 1.396 . S
C465 C470 1.390 . S
C466 C460 1.465 . S
C466 C465 1.396 . S
C466 C467 1.399 . S
C467 H453 0.929 . S
C467 C466 1.399 . S
C467 C468 1.385 . S
C468 H454 0.931 . S
C468 C467 1.385 . S
C468 C469 1.389 . S
C469 C468 1.389 . S
C469 C470 1.387 . S
C470 H455 0.930 . S
C470 C465 1.390 . S
C470 C469 1.387 . S
H471 C483 0.930 . S
H472 C485 0.930 . S
H473 C486 0.930 . S
H474 C490 0.959 . S
H475 C490 0.959 1_556 S
H476 C490 0.961 . S
H477 C491 0.960 . S
H478 C491 0.961 . S
H479 C491 0.959 . S
H480 C494 0.929 . S
H481 C495 0.931 . S
H482 C497 0.930 . S
C483 H471 0.930 . S
C483 C484 1.399 . S
C483 C488 1.399 . S
C484 C483 1.399 . S
C484 C485 1.376 . S
C485 H472 0.930 . S
C485 C484 1.376 . S
C485 C486 1.388 . S
C486 H473 0.930 . S
C486 C485 1.388 . S
C486 C487 1.390 . S
C487 C486 1.390 . S
C487 C488 1.394 . S
C487 C493 1.465 . S
C488 C483 1.399 . S
C488 C487 1.394 . S
C488 C489 1.516 . S
C489 C488 1.516 . S
C489 C490 1.502 . S
C489 C491 1.561 . S
C489 C492 1.526 1_554 S
C490 H474 0.959 . S
C490 H475 0.959 1_554 S
C490 H476 0.961 . S
C490 C489 1.502 . S
C491 H477 0.960 . S
C491 H478 0.961 . S
C491 H479 0.959 . S
C491 C489 1.561 . S
C492 C489 1.526 1_556 S
C492 C493 1.396 1_556 S
C492 C497 1.390 . S
C493 C487 1.465 . S
C493 C492 1.396 1_554 S
C493 C494 1.399 1_554 S
C494 H480 0.929 . S
C494 C493 1.399 1_556 S
C494 C495 1.385 . S
C495 H481 0.931 . S
C495 C494 1.385 . S
C495 C496 1.389 . S
C496 C495 1.389 . S
C496 C497 1.387 . S
C497 H482 0.930 . S
C497 C492 1.390 . S
C497 C496 1.387 . S
H498 C510 0.930 . S
H499 C512 0.930 . S
H500 C513 0.930 . S
H501 C517 0.959 . S
H502 C517 0.959 . S
H503 C517 0.961 . S
H504 C518 0.960 . S
H505 C518 0.961 . S
H506 C518 0.959 . S
H507 C521 0.929 . S
H508 C522 0.931 . S
H509 C524 0.930 . S
C510 H498 0.930 . S
C510 C511 1.399 . S
C510 C515 1.399 . S
C511 C510 1.399 . S
C511 C512 1.376 1_545 S
C512 H499 0.930 . S
C512 C511 1.376 1_565 S
C512 C513 1.388 . S
C513 H500 0.930 . S
C513 C512 1.388 . S
C513 C514 1.390 1_565 S
C514 C513 1.390 1_545 S
C514 C515 1.394 . S
C514 C520 1.465 . S
C515 C510 1.399 . S
C515 C514 1.394 . S
C515 C516 1.516 . S
C516 C515 1.516 . S
C516 C517 1.502 . S
C516 C518 1.561 . S
C516 C519 1.526 . S
C517 H501 0.959 . S
C517 H502 0.959 . S
C517 H503 0.961 . S
C517 C516 1.502 . S
C518 H504 0.960 . S
C518 H505 0.961 . S
C518 H506 0.959 . S
C518 C516 1.561 . S
C519 C516 1.526 . S
C519 C520 1.396 . S
C519 C524 1.390 . S
C520 C514 1.465 . S
C520 C519 1.396 . S
C520 C521 1.399 1_545 S
C521 H507 0.929 . S
C521 C520 1.399 1_565 S
C521 C522 1.385 . S
C522 H508 0.931 . S
C522 C521 1.385 . S
C522 C523 1.389 1_565 S
C523 C522 1.389 1_545 S
C523 C524 1.387 . S
C524 H509 0.930 . S
C524 C519 1.390 . S
C524 C523 1.387 . S
H525 C537 0.930 . S
H526 C539 0.930 . S
H527 C540 0.930 . S
H528 C544 0.959 . S
H529 C544 0.959 . S
H530 C544 0.961 . S
H531 C545 0.960 . S
H532 C545 0.961 . S
H533 C545 0.959 . S
H534 C548 0.929 . S
H535 C549 0.931 . S
H536 C551 0.930 . S
C537 H525 0.930 . S
C537 C538 1.399 . S
C537 C542 1.399 . S
C538 C537 1.399 . S
C538 C539 1.376 . S
C539 H526 0.930 . S
C539 C538 1.376 . S
C539 C540 1.388 . S
C540 H527 0.930 . S
C540 C539 1.388 . S
C540 C541 1.390 . S
C541 C540 1.390 . S
C541 C542 1.394 . S
C541 C547 1.465 . S
C542 C537 1.399 . S
C542 C541 1.394 . S
C542 C543 1.516 . S
C543 C542 1.516 . S
C543 C544 1.502 . S
C543 C545 1.561 . S
C543 C546 1.526 . S
C544 H528 0.959 . S
C544 H529 0.959 . S
C544 H530 0.961 . S
C544 C543 1.502 . S
C545 H531 0.960 . S
C545 H532 0.961 . S
C545 H533 0.959 . S
C545 C543 1.561 . S
C546 C543 1.526 . S
C546 C547 1.396 . S
C546 C551 1.390 . S
C547 C541 1.465 . S
C547 C546 1.396 . S
C547 C548 1.399 . S
C548 H534 0.929 . S
C548 C547 1.399 . S
C548 C549 1.385 . S
C549 H535 0.931 . S
C549 C548 1.385 . S
C549 C550 1.389 . S
C550 C549 1.389 . S
C550 C551 1.387 . S
C551 H536 0.930 . S
C551 C546 1.390 . S
C551 C550 1.387 . S
H552 C564 0.930 1_565 S
H553 C566 0.930 . S
H554 C567 0.930 . S
H555 C571 0.959 . S
H556 C571 0.959 . S
H557 C571 0.961 . S
H558 C572 0.960 1_565 S
H559 C572 0.961 1_565 S
H560 C572 0.959 . S
H561 C575 0.929 . S
H562 C576 0.931 . S
H563 C578 0.930 1_565 S
C564 H552 0.930 1_545 S
C564 C565 1.399 . S
C564 C569 1.399 . S
C565 C564 1.399 . S
C565 C566 1.376 . S
C566 H553 0.930 . S
C566 C565 1.376 . S
C566 C567 1.388 . S
C567 H554 0.930 . S
C567 C566 1.388 . S
C567 C568 1.390 . S
C568 C567 1.390 . S
C568 C569 1.394 . S
C568 C574 1.465 . S
C569 C564 1.399 . S
C569 C568 1.394 . S
C569 C570 1.516 1_545 S
C570 C569 1.516 1_565 S
C570 C571 1.502 . S
C570 C572 1.561 1_565 S
C570 C573 1.526 1_565 S
C571 H555 0.959 . S
C571 H556 0.959 . S
C571 H557 0.961 . S
C571 C570 1.502 . S
C572 H558 0.960 1_545 S
C572 H559 0.961 1_545 S
C572 H560 0.959 . S
C572 C570 1.561 1_545 S
C573 C570 1.526 1_545 S
C573 C574 1.396 . S
C573 C578 1.390 . S
C574 C568 1.465 . S
C574 C573 1.396 . S
C574 C575 1.399 . S
C575 H561 0.929 . S
C575 C574 1.399 . S
C575 C576 1.385 . S
C576 H562 0.931 . S
C576 C575 1.385 . S
C576 C577 1.389 . S
C577 C576 1.389 . S
C577 C578 1.387 . S
C578 H563 0.930 1_545 S
C578 C573 1.390 . S
C578 C577 1.387 . S
H579 C591 0.930 . S
H580 C593 0.930 . S
H581 C594 0.930 . S
H582 C598 0.959 . S
H583 C598 0.959 . S
H584 C598 0.961 . S
H585 C599 0.960 . S
H586 C599 0.961 . S
H587 C599 0.959 . S
H588 C602 0.929 . S
H589 C603 0.931 . S
H590 C605 0.930 . S
C591 H579 0.930 . S
C591 C592 1.399 . S
C591 C596 1.399 . S
C592 C591 1.399 . S
C592 C593 1.376 . S
C593 H580 0.930 . S
C593 C592 1.376 . S
C593 C594 1.388 . S
C594 H581 0.930 . S
C594 C593 1.388 . S
C594 C595 1.390 . S
C595 C594 1.390 . S
C595 C596 1.394 . S
C595 C601 1.470 . S
C596 C591 1.399 . S
C596 C595 1.394 . S
C596 C597 1.516 . S
C597 C596 1.516 . S
C597 C598 1.502 . S
C597 C599 1.561 . S
C597 C600 1.526 1_556 S
C598 H582 0.959 . S
C598 H583 0.959 . S
C598 H584 0.961 . S
C598 C597 1.502 . S
C599 H585 0.960 . S
C599 H586 0.961 . S
C599 H587 0.959 . S
C599 C597 1.561 . S
C600 C597 1.526 1_554 S
C600 C601 1.396 1_554 S
C600 C605 1.390 . S
C601 C595 1.470 . S
C601 C600 1.396 1_556 S
C601 C602 1.394 1_556 S
C602 H588 0.929 . S
C602 C601 1.394 1_554 S
C602 C603 1.385 . S
C603 H589 0.931 . S
C603 C602 1.385 . S
C603 C604 1.389 . S
C604 C603 1.389 . S
C604 C605 1.387 . S
C605 H590 0.930 . S
C605 C600 1.390 . S
C605 C604 1.387 . S
H606 C618 0.930 . S
H607 C620 0.930 . S
H608 C621 0.930 . S
H609 C625 0.959 . S
H610 C625 0.959 . S
H611 C625 0.961 . S
H612 C626 0.960 . S
H613 C626 0.961 . S
H614 C626 0.959 . S
H615 C629 0.929 1_655 S
H616 C630 0.931 . S
H617 C632 0.930 . S
C618 H606 0.930 . S
C618 C619 1.399 . S
C618 C623 1.399 . S
C619 C618 1.399 . S
C619 C620 1.376 1_455 S
C620 H607 0.930 . S
C620 C619 1.376 1_655 S
C620 C621 1.388 . S
C621 H608 0.930 . S
C621 C620 1.388 . S
C621 C622 1.390 1_655 S
C622 C621 1.390 1_455 S
C622 C623 1.394 . S
C622 C628 1.465 . S
C623 C618 1.399 . S
C623 C622 1.394 . S
C623 C624 1.516 . S
C624 C623 1.516 . S
C624 C625 1.502 . S
C624 C626 1.561 . S
C624 C627 1.526 . S
C625 H609 0.959 . S
C625 H610 0.959 . S
C625 H611 0.961 . S
C625 C624 1.502 . S
C626 H612 0.960 . S
C626 H613 0.961 . S
C626 H614 0.959 . S
C626 C624 1.561 . S
C627 C624 1.526 . S
C627 C628 1.396 . S
C627 C632 1.390 . S
C628 C622 1.465 . S
C628 C627 1.396 . S
C628 C629 1.399 . S
C629 H615 0.929 1_455 S
C629 C628 1.399 . S
C629 C630 1.385 . S
C630 H616 0.931 . S
C630 C629 1.385 . S
C630 C631 1.389 . S
C631 C630 1.389 . S
C631 C632 1.387 . S
C632 H617 0.930 . S
C632 C627 1.390 . S
C632 C631 1.387 . S
C160 C20 1.294 . S
C172 C138 1.222 . S
C187 C41 1.284 . S
C199 C116 1.318 1_655 S
C214 C64 1.304 . S
C226 C129 1.341 . S
C241 C19 1.284 . S
C253 C142 1.254 . S
C280 C112 1.189 . S
C268 C44 1.327 . S
C307 C125 1.179 . S
C295 C67 1.325 . S
C322 C43 1.258 . S
C334 C90 1.238 . S
C349 C66 1.158 . S
C361 C103 1.268 . S
C376 C21 1.331 . S
C388 C73 1.182 . S
C415 C86 1.179 . S
C403 C42 1.322 . S
C442 C99 1.237 . S
C430 C65 1.298 . S
C457 C18 1.253 . S
C469 C77 1.280 . S
C496 C104 1.513 . S
C484 C17 1.505 . S
C511 C39 1.532 . S
C523 C78 1.527 . S
C538 C62 1.543 . S
C550 C91 1.518 . S
C577 C130 1.521 . S
C565 C40 1.506 . S
C604 C143 1.520 . S
C592 C63 1.545 . S
C619 C16 1.524 . S
C631 C117 1.496 . S
