# Generated by pormake.
# Topology ptr, (4,4)-cn, num edge types: 1
# Building blocks:
#     Node 0, Type 0, BuildingBlock: NAHDIM_clean_sbu_0, # of connection points: 4
#     Node 1, Type 0, BuildingBlock: NAHDIM_clean_sbu_0, # of connection points: 4
#     Node 2, Type 0, BuildingBlock: NAHDIM_clean_sbu_0, # of connection points: 4
#     Node 3, Type 0, BuildingBlock: NAHDIM_clean_sbu_0, # of connection points: 4
#     Node 4, Type 0, BuildingBlock: NAHDIM_clean_sbu_0, # of connection points: 4
#     Node 5, Type 0, BuildingBlock: NAHDIM_clean_sbu_0, # of connection points: 4
#     Node 6, Type 0, BuildingBlock: NAHDIM_clean_sbu_0, # of connection points: 4
#     Node 7, Type 0, BuildingBlock: NAHDIM_clean_sbu_0, # of connection points: 4
#     Node 8, Type 0, BuildingBlock: NAHDIM_clean_sbu_0, # of connection points: 4
#     Node 9, Type 0, BuildingBlock: NAHDIM_clean_sbu_0, # of connection points: 4
#     Node 10, Type 0, BuildingBlock: NAHDIM_clean_sbu_0, # of connection points: 4
#     Node 11, Type 0, BuildingBlock: NAHDIM_clean_sbu_0, # of connection points: 4
#     Node 12, Type 0, BuildingBlock: NAHDIM_clean_sbu_0, # of connection points: 4
#     Node 13, Type 0, BuildingBlock: NAHDIM_clean_sbu_0, # of connection points: 4
#     Node 14, Type 0, BuildingBlock: NAHDIM_clean_sbu_0, # of connection points: 4
#     Node 15, Type 0, BuildingBlock: NAHDIM_clean_sbu_0, # of connection points: 4
#     Node 16, Type 0, BuildingBlock: NAHDIM_clean_sbu_0, # of connection points: 4
#     Node 17, Type 0, BuildingBlock: NAHDIM_clean_sbu_0, # of connection points: 4
#     Node 18, Type 1, BuildingBlock: NAWXER_clean_linker_0, # of connection points: 4
#     Node 19, Type 1, BuildingBlock: NAWXER_clean_linker_0, # of connection points: 4
#     Node 20, Type 1, BuildingBlock: NAWXER_clean_linker_0, # of connection points: 4
#     Node 21, Type 1, BuildingBlock: NAWXER_clean_linker_0, # of connection points: 4
#     Node 22, Type 1, BuildingBlock: NAWXER_clean_linker_0, # of connection points: 4
#     Node 23, Type 1, BuildingBlock: NAWXER_clean_linker_0, # of connection points: 4
#     Node 24, Type 1, BuildingBlock: NAWXER_clean_linker_0, # of connection points: 4
#     Node 25, Type 1, BuildingBlock: NAWXER_clean_linker_0, # of connection points: 4
#     Node 26, Type 1, BuildingBlock: NAWXER_clean_linker_0, # of connection points: 4
#     Node 27, Type 1, BuildingBlock: NAWXER_clean_linker_0, # of connection points: 4
#     Node 28, Type 1, BuildingBlock: NAWXER_clean_linker_0, # of connection points: 4
#     Node 29, Type 1, BuildingBlock: NAWXER_clean_linker_0, # of connection points: 4
#     Node 30, Type 1, BuildingBlock: NAWXER_clean_linker_0, # of connection points: 4
#     Node 31, Type 1, BuildingBlock: NAWXER_clean_linker_0, # of connection points: 4
#     Node 32, Type 1, BuildingBlock: NAWXER_clean_linker_0, # of connection points: 4
#     Node 33, Type 1, BuildingBlock: NAWXER_clean_linker_0, # of connection points: 4
#     Node 34, Type 1, BuildingBlock: NAWXER_clean_linker_0, # of connection points: 4
#     Node 35, Type 1, BuildingBlock: NAWXER_clean_linker_0, # of connection points: 4
#     Edge 36, Type (0, 1), BuildingBlock: XIVTED_clean_linker_0, # of connection points: 2
#     Edge 37, Type (0, 1), BuildingBlock: XIVTED_clean_linker_0, # of connection points: 2
#     Edge 38, Type (0, 1), BuildingBlock: XIVTED_clean_linker_0, # of connection points: 2
#     Edge 39, Type (0, 1), BuildingBlock: XIVTED_clean_linker_0, # of connection points: 2
#     Edge 40, Type (0, 1), BuildingBlock: XIVTED_clean_linker_0, # of connection points: 2
#     Edge 41, Type (0, 1), BuildingBlock: XIVTED_clean_linker_0, # of connection points: 2
#     Edge 42, Type (0, 1), BuildingBlock: XIVTED_clean_linker_0, # of connection points: 2
#     Edge 43, Type (0, 1), BuildingBlock: XIVTED_clean_linker_0, # of connection points: 2
#     Edge 44, Type (0, 1), BuildingBlock: XIVTED_clean_linker_0, # of connection points: 2
#     Edge 45, Type (0, 1), BuildingBlock: XIVTED_clean_linker_0, # of connection points: 2
#     Edge 46, Type (0, 1), BuildingBlock: XIVTED_clean_linker_0, # of connection points: 2
#     Edge 47, Type (0, 1), BuildingBlock: XIVTED_clean_linker_0, # of connection points: 2
#     Edge 48, Type (0, 1), BuildingBlock: XIVTED_clean_linker_0, # of connection points: 2
#     Edge 49, Type (0, 1), BuildingBlock: XIVTED_clean_linker_0, # of connection points: 2
#     Edge 50, Type (0, 1), BuildingBlock: XIVTED_clean_linker_0, # of connection points: 2
#     Edge 51, Type (0, 1), BuildingBlock: XIVTED_clean_linker_0, # of connection points: 2
#     Edge 52, Type (0, 1), BuildingBlock: XIVTED_clean_linker_0, # of connection points: 2
#     Edge 53, Type (0, 1), BuildingBlock: XIVTED_clean_linker_0, # of connection points: 2
#     Edge 54, Type (0, 1), BuildingBlock: XIVTED_clean_linker_0, # of connection points: 2
#     Edge 55, Type (0, 1), BuildingBlock: XIVTED_clean_linker_0, # of connection points: 2
#     Edge 56, Type (0, 1), BuildingBlock: XIVTED_clean_linker_0, # of connection points: 2
#     Edge 57, Type (0, 1), BuildingBlock: XIVTED_clean_linker_0, # of connection points: 2
#     Edge 58, Type (0, 1), BuildingBlock: XIVTED_clean_linker_0, # of connection points: 2
#     Edge 59, Type (0, 1), BuildingBlock: XIVTED_clean_linker_0, # of connection points: 2
#     Edge 60, Type (0, 1), BuildingBlock: XIVTED_clean_linker_0, # of connection points: 2
#     Edge 61, Type (0, 1), BuildingBlock: XIVTED_clean_linker_0, # of connection points: 2
#     Edge 62, Type (0, 1), BuildingBlock: XIVTED_clean_linker_0, # of connection points: 2
#     Edge 63, Type (0, 1), BuildingBlock: XIVTED_clean_linker_0, # of connection points: 2
#     Edge 64, Type (0, 1), BuildingBlock: XIVTED_clean_linker_0, # of connection points: 2
#     Edge 65, Type (0, 1), BuildingBlock: XIVTED_clean_linker_0, # of connection points: 2
#     Edge 66, Type (0, 1), BuildingBlock: XIVTED_clean_linker_0, # of connection points: 2
#     Edge 67, Type (0, 1), BuildingBlock: XIVTED_clean_linker_0, # of connection points: 2
#     Edge 68, Type (0, 1), BuildingBlock: XIVTED_clean_linker_0, # of connection points: 2
#     Edge 69, Type (0, 1), BuildingBlock: XIVTED_clean_linker_0, # of connection points: 2
#     Edge 70, Type (0, 1), BuildingBlock: XIVTED_clean_linker_0, # of connection points: 2
#     Edge 71, Type (0, 1), BuildingBlock: XIVTED_clean_linker_0, # of connection points: 2
#     Edge 72, Type (0, 1), BuildingBlock: XIVTED_clean_linker_0, # of connection points: 2
#     Edge 73, Type (0, 1), BuildingBlock: XIVTED_clean_linker_0, # of connection points: 2
#     Edge 74, Type (0, 1), BuildingBlock: XIVTED_clean_linker_0, # of connection points: 2
#     Edge 75, Type (0, 1), BuildingBlock: XIVTED_clean_linker_0, # of connection points: 2
#     Edge 76, Type (0, 1), BuildingBlock: XIVTED_clean_linker_0, # of connection points: 2
#     Edge 77, Type (0, 1), BuildingBlock: XIVTED_clean_linker_0, # of connection points: 2
#     Edge 78, Type (0, 1), BuildingBlock: XIVTED_clean_linker_0, # of connection points: 2
#     Edge 79, Type (0, 1), BuildingBlock: XIVTED_clean_linker_0, # of connection points: 2
#     Edge 80, Type (0, 1), BuildingBlock: XIVTED_clean_linker_0, # of connection points: 2
#     Edge 81, Type (0, 1), BuildingBlock: XIVTED_clean_linker_0, # of connection points: 2
#     Edge 82, Type (0, 1), BuildingBlock: XIVTED_clean_linker_0, # of connection points: 2
#     Edge 83, Type (0, 1), BuildingBlock: XIVTED_clean_linker_0, # of connection points: 2
#     Edge 84, Type (0, 1), BuildingBlock: XIVTED_clean_linker_0, # of connection points: 2
#     Edge 85, Type (0, 1), BuildingBlock: XIVTED_clean_linker_0, # of connection points: 2
#     Edge 86, Type (0, 1), BuildingBlock: XIVTED_clean_linker_0, # of connection points: 2
#     Edge 87, Type (0, 1), BuildingBlock: XIVTED_clean_linker_0, # of connection points: 2
#     Edge 88, Type (0, 1), BuildingBlock: XIVTED_clean_linker_0, # of connection points: 2
#     Edge 89, Type (0, 1), BuildingBlock: XIVTED_clean_linker_0, # of connection points: 2
#     Edge 90, Type (0, 1), BuildingBlock: XIVTED_clean_linker_0, # of connection points: 2
#     Edge 91, Type (0, 1), BuildingBlock: XIVTED_clean_linker_0, # of connection points: 2
#     Edge 92, Type (0, 1), BuildingBlock: XIVTED_clean_linker_0, # of connection points: 2
#     Edge 93, Type (0, 1), BuildingBlock: XIVTED_clean_linker_0, # of connection points: 2
#     Edge 94, Type (0, 1), BuildingBlock: XIVTED_clean_linker_0, # of connection points: 2
#     Edge 95, Type (0, 1), BuildingBlock: XIVTED_clean_linker_0, # of connection points: 2
#     Edge 96, Type (0, 1), BuildingBlock: XIVTED_clean_linker_0, # of connection points: 2
#     Edge 97, Type (0, 1), BuildingBlock: XIVTED_clean_linker_0, # of connection points: 2
#     Edge 98, Type (0, 1), BuildingBlock: XIVTED_clean_linker_0, # of connection points: 2
#     Edge 99, Type (0, 1), BuildingBlock: XIVTED_clean_linker_0, # of connection points: 2
#     Edge 100, Type (0, 1), BuildingBlock: XIVTED_clean_linker_0, # of connection points: 2
#     Edge 101, Type (0, 1), BuildingBlock: XIVTED_clean_linker_0, # of connection points: 2
#     Edge 102, Type (0, 1), BuildingBlock: XIVTED_clean_linker_0, # of connection points: 2
#     Edge 103, Type (0, 1), BuildingBlock: XIVTED_clean_linker_0, # of connection points: 2
#     Edge 104, Type (0, 1), BuildingBlock: XIVTED_clean_linker_0, # of connection points: 2
#     Edge 105, Type (0, 1), BuildingBlock: XIVTED_clean_linker_0, # of connection points: 2
#     Edge 106, Type (0, 1), BuildingBlock: XIVTED_clean_linker_0, # of connection points: 2
#     Edge 107, Type (0, 1), BuildingBlock: XIVTED_clean_linker_0, # of connection points: 2
# Relax obj value: 0.073
# Max RMSD: 0.265
# Mean RMSD: 0.108
data_MOF--net-ptr--node1-NAHDIM_clean_sbu_0--node2-NAWXER_clean_linker_0--edge1-XIVTED_clean_linker_0
_symmetry_space_group_name_H-M    P1
_symmetry_Int_Tables_number       1
_symmetry_cell_setting            triclinic
loop_
_symmetry_equiv_pos_as_xyz
'x, y, z'
_cell_length_a     88.977798
_cell_length_b     87.189019
_cell_length_c     63.184627
_cell_angle_alpha  91.687071
_cell_angle_beta   89.127547
_cell_angle_gamma 121.91199
loop_
_atom_site_label
_atom_site_type_symbol
_atom_site_fract_x
_atom_site_fract_y
_atom_site_fract_z
_atom_type_partial_charge
C0 C 0.03096 0.34461 0.04244 0.0
O1 O 0.01752 0.34482 0.05097 0.0
O2 O 0.0017 0.32765 0.98818 0.0
Zn3 Zn 0.0171 0.35061 0.00497 0.0
O4 O 0.002 0.35588 0.0241 0.0
C5 C 0.02918 0.36995 0.96543 0.0
O6 O 0.02143 0.35364 0.95678 0.0
O7 O 0.03392 0.34733 0.02271 0.0
C8 C 0.99307 0.36214 0.01701 0.0
O9 O 0.99293 0.3643 0.99654 0.0
C10 C 0.99242 0.31278 0.99755 0.0
O11 O 0.99274 0.3127 0.01832 0.0
O12 O 0.0298 0.37176 0.9855 0.0
C13 C 0.68415 0.66753 0.98115 0.0
O14 O 0.67079 0.66628 0.97091 0.0
O15 O 0.65984 0.67492 0.03034 0.0
Zn16 Zn 0.65878 0.65389 0.01495 0.0
O17 O 0.63886 0.64169 0.99375 0.0
C18 C 0.64955 0.61959 0.03144 0.0
O19 O 0.64802 0.615 0.01123 0.0
O20 O 0.68204 0.66264 0.00027 0.0
C21 C 0.62915 0.64735 0.98756 0.0
O22 O 0.63169 0.66269 0.99532 0.0
C23 C 0.66648 0.69042 0.02242 0.0
O24 O 0.67203 0.69285 0.00271 0.0
O25 O 0.65456 0.63576 0.03678 0.0
C26 C 0.32757 0.03398 0.00063 0.0
O27 O 0.31558 0.02353 0.01447 0.0
O28 O 0.32056 0.99413 0.02377 0.0
Zn29 Zn 0.3428 0.0121 0.00849 0.0
O30 O 0.34885 0.00096 0.98407 0.0
C31 C 0.36354 0.0088 0.03802 0.0
O32 O 0.3514 0.99199 0.03299 0.0
O33 O 0.34051 0.03201 0.99661 0.0
C34 C 0.34376 0.98447 0.98059 0.0
O35 O 0.33239 0.97211 0.99352 0.0
C36 C 0.30536 0.9835 0.01577 0.0
O37 O 0.30312 0.98336 0.99524 0.0
O38 O 0.36291 0.02144 0.02938 0.0
C39 C 0.97951 0.67467 0.97543 0.0
O40 O 0.99312 0.67585 0.96542 0.0
O41 O 0.01049 0.68118 0.02342 0.0
Zn42 Zn 0.99118 0.66034 0.00655 0.0
O43 O 0.00079 0.65188 0.98315 0.0
C44 C 0.97743 0.64081 0.04565 0.0
O45 O 0.98531 0.65705 0.05451 0.0
O46 O 0.97563 0.66804 0.99381 0.0
C47 C 0.01571 0.65324 0.98287 0.0
O48 O 0.02672 0.66139 0.99877 0.0
C49 C 0.02184 0.69623 0.01554 0.0
O50 O 0.02172 0.69837 0.99507 0.0
O51 O 0.97754 0.63918 0.0256 0.0
C52 C 0.3016 0.33072 0.02891 0.0
O53 O 0.3064 0.31895 0.02573 0.0
O54 O 0.32885 0.3308 0.98913 0.0
Zn55 Zn 0.33394 0.35231 0.00746 0.0
O56 O 0.352 0.35707 0.02968 0.0
C57 C 0.33794 0.37373 0.97113 0.0
O58 O 0.32452 0.3584 0.96369 0.0
O59 O 0.31147 0.34664 0.02215 0.0
C60 C 0.36824 0.3648 0.02463 0.0
O61 O 0.37286 0.36921 0.00485 0.0
C62 C 0.33862 0.33151 0.97384 0.0
O63 O 0.35301 0.34699 0.96939 0.0
O64 O 0.34365 0.37437 0.98965 0.0
C65 C 0.65774 0.97054 0.04181 0.0
O66 O 0.65984 0.9854 0.05054 0.0
O67 O 0.67299 0.00138 0.99163 0.0
Zn68 Zn 0.65001 0.98471 0.00641 0.0
O69 O 0.64355 0.99841 0.02705 0.0
C70 C 0.63225 0.98069 0.96751 0.0
O71 O 0.64744 0.99566 0.9639 0.0
O72 O 0.65299 0.96677 0.0225 0.0
C73 C 0.63814 0.00857 0.02149 0.0
O74 O 0.63752 0.01129 0.00128 0.0
C75 C 0.68748 0.01238 0.00096 0.0
O76 O 0.68792 0.01355 0.02174 0.0
O77 O 0.63024 0.9726 0.98473 0.0
C78 C 0.68037 0.66581 0.3788 0.0
O79 O 0.66617 0.66389 0.38803 0.0
O80 O 0.6519 0.65921 0.32774 0.0
Zn81 Zn 0.6696 0.6801 0.34604 0.0
O82 O 0.65748 0.68718 0.36781 0.0
C83 C 0.68677 0.70011 0.30811 0.0
O84 O 0.68017 0.68392 0.29942 0.0
O85 O 0.68478 0.67281 0.36064 0.0
C86 C 0.64867 0.69409 0.36238 0.0
O87 O 0.64684 0.69583 0.34216 0.0
C88 C 0.63942 0.64459 0.33537 0.0
O89 O 0.63746 0.64318 0.35601 0.0
O90 O 0.68439 0.70162 0.32777 0.0
C91 C 0.36126 0.00462 0.33074 0.0
O92 O 0.36281 0.01844 0.34164 0.0
O93 O 0.33053 0.00814 0.36328 0.0
Zn94 Zn 0.32472 0.98637 0.34513 0.0
O95 O 0.307 0.98225 0.32286 0.0
C96 C 0.31845 0.96528 0.38245 0.0
O97 O 0.33162 0.98062 0.39024 0.0
O98 O 0.34649 0.98965 0.33048 0.0
C99 C 0.29168 0.97867 0.32825 0.0
O100 O 0.28786 0.97824 0.34848 0.0
C101 C 0.33134 0.02192 0.35581 0.0
O102 O 0.32828 0.02205 0.33556 0.0
O103 O 0.31364 0.96452 0.36341 0.0
C104 C 0.99396 0.35528 0.31255 0.0
O105 O 0.98186 0.33793 0.31208 0.0
O106 O 0.98404 0.32637 0.35509 0.0
Zn107 Zn 0.00811 0.34251 0.34188 0.0
O108 O 0.01483 0.32849 0.32206 0.0
C109 C 0.02388 0.34703 0.38283 0.0
O110 O 0.00823 0.33271 0.38661 0.0
O111 O 0.00721 0.36111 0.32477 0.0
C112 C 0.02186 0.32019 0.32904 0.0
O113 O 0.02391 0.32001 0.34956 0.0
C114 C 0.9759 0.30921 0.35477 0.0
O115 O 0.98304 0.30111 0.34494 0.0
O116 O 0.02685 0.35428 0.36483 0.0
C117 C 0.6473 0.00501 0.31752 0.0
O118 O 0.66404 0.01787 0.31977 0.0
O119 O 0.67443 0.01113 0.36036 0.0
Zn120 Zn 0.65877 0.9877 0.34427 0.0
O121 O 0.67339 0.98236 0.32427 0.0
C122 C 0.64489 0.96931 0.38417 0.0
O123 O 0.65109 0.98572 0.39196 0.0
O124 O 0.6415 0.99022 0.32694 0.0
C125 C 0.67959 0.97299 0.33024 0.0
O126 O 0.67667 0.96717 0.34971 0.0
C127 C 0.6885 0.01455 0.36957 0.0
O128 O 0.69304 0.00246 0.36875 0.0
O129 O 0.64611 0.96705 0.3644 0.0
C130 C 0.96947 0.65761 0.35865 0.0
O131 O 0.97509 0.64638 0.35766 0.0
O132 O 0.00045 0.6589 0.32304 0.0
Zn133 Zn 0.00283 0.68022 0.33914 0.0
O134 O 0.01974 0.68766 0.36352 0.0
C135 C 0.00923 0.70025 0.30041 0.0
O136 O -0.00112 0.68421 0.29153 0.0
O137 O 0.97906 0.67325 0.35104 0.0
C138 C 0.01934 0.69857 0.37695 0.0
O139 O 0.00807 0.70374 0.37409 0.0
C140 C 0.01313 0.65897 0.31348 0.0
O141 O 0.02901 0.67369 0.31409 0.0
O142 O 0.01222 0.70153 0.32019 0.0
C143 C 0.3303 0.30873 0.37278 0.0
O144 O 0.33447 0.32477 0.38011 0.0
O145 O 0.34337 0.33882 0.32496 0.0
Zn146 Zn 0.31988 0.32089 0.33812 0.0
O147 O 0.31154 0.33336 0.35825 0.0
C148 C 0.30347 0.31401 0.29692 0.0
O149 O 0.31893 0.32816 0.29207 0.0
O150 O 0.32332 0.30352 0.35451 0.0
C151 C 0.30223 0.33936 0.35163 0.0
O152 O 0.29869 0.33806 0.33132 0.0
C153 C 0.34892 0.35542 0.32259 0.0
O154 O 0.33921 0.3618 0.32936 0.0
O155 O 0.30105 0.3078 0.31546 0.0
C156 C 0.36502 0.00403 0.68836 0.0
O157 O 0.36249 -0.00105 0.66829 0.0
O158 O 0.32521 0.99533 0.66209 0.0
Zn159 Zn 0.34194 0.01729 0.67966 0.0
O160 O 0.32842 0.02315 0.70068 0.0
C161 C 0.35862 0.03702 0.64142 0.0
O162 O 0.35307 0.02086 0.63324 0.0
O163 O 0.35793 0.01233 0.69613 0.0
C164 C 0.31915 0.02948 0.695 0.0
O165 O 0.31782 0.0316 0.67476 0.0
C166 C 0.31579 0.97997 0.67039 0.0
O167 O 0.31682 0.97856 0.6909 0.0
O168 O 0.3558 0.03866 0.6609 0.0
C169 C 0.02722 0.33837 0.65619 0.0
O170 O 0.02186 0.34977 0.65514 0.0
O171 O 0.00129 0.34394 0.69303 0.0
Zn172 Zn 0.99532 0.32029 0.67887 0.0
O173 O 0.97774 0.31284 0.65509 0.0
C174 C 0.97587 0.3021 0.71563 0.0
O175 O 0.97428 0.31625 0.7165 0.0
O176 O 0.0178 0.32381 0.66616 0.0
C177 C 0.96223 0.30993 0.65738 0.0
O178 O 0.95708 0.31225 0.67615 0.0
C179 C 0.99613 0.35422 0.6871 0.0
O180 O 0.9861 0.3498 0.67023 0.0
O181 O 0.98489 0.30073 0.70071 0.0
C182 C 0.66961 0.68954 0.64641 0.0
O183 O 0.66737 0.6748 0.63708 0.0
O184 O 0.66172 0.65909 0.69557 0.0
Zn185 Zn 0.68278 0.6779 0.67927 0.0
O186 O 0.69111 0.66696 0.65718 0.0
C187 C 0.70148 0.69345 0.71906 0.0
O188 O 0.68549 0.68537 0.72721 0.0
O189 O 0.67624 0.69391 0.66491 0.0
C190 C 0.68893 0.65134 0.65719 0.0
O191 O 0.6799 0.6403 0.67253 0.0
C192 C 0.6477 0.64638 0.68682 0.0
O193 O 0.64686 0.64477 0.66607 0.0
O194 O 0.70329 0.69251 0.69916 0.0
C195 C 0.31149 0.33864 0.64258 0.0
O196 O 0.32844 0.35078 0.64485 0.0
O197 O 0.33727 0.34161 0.68608 0.0
Zn198 Zn 0.32182 0.31948 0.6677 0.0
O199 O 0.33691 0.31555 0.64688 0.0
C200 C 0.30195 0.29712 0.7034 0.0
O201 O 0.30265 0.31179 0.71057 0.0
O202 O 0.30505 0.32348 0.65135 0.0
C203 C 0.3468 0.31023 0.65343 0.0
O204 O 0.34728 0.30786 0.67377 0.0
C205 C 0.34499 0.34132 0.70269 0.0
O206 O 0.34289 0.32597 0.70855 0.0
O207 O 0.30869 0.2973 0.68546 0.0
C208 C 0.64421 0.00505 0.71131 0.0
O209 O 0.65626 0.00229 0.71881 0.0
O210 O 0.66651 -0.00053 0.66074 0.0
Zn211 Zn 0.66989 0.02055 0.6785 0.0
O212 O 0.6895 0.02875 0.69979 0.0
C213 C 0.67286 0.0399 0.64032 0.0
O214 O 0.6626 0.02365 0.63191 0.0
O215 O 0.64708 0.01302 0.69383 0.0
C216 C 0.6928 0.04232 0.71144 0.0
O217 O 0.68333 0.04968 0.70894 0.0
C218 C 0.66797 0.98695 0.66821 0.0
O219 O 0.67239 0.98794 0.68817 0.0
O220 O 0.67698 0.04159 0.65979 0.0
C221 C 0.99579 0.64749 0.70293 0.0
O222 O 0.00776 0.66485 0.70211 0.0
O223 O -2e-05 0.67631 0.663 0.0
Zn224 Zn 0.97734 0.65913 0.67846 0.0
O225 O 0.97112 0.67244 0.70002 0.0
C226 C 0.95915 0.647 0.63782 0.0
O227 O 0.9753 0.6555 0.63012 0.0
O228 O 0.98101 0.64136 0.69369 0.0
C229 C 0.96264 0.67965 0.69434 0.0
O230 O 0.95862 0.67887 0.67425 0.0
C231 C 0.00708 0.69335 0.66288 0.0
O232 O -0.00051 0.70075 0.67324 0.0
O233 O 0.95697 0.64627 0.65778 0.0
C234 C 0.20003 0.30991 0.13968 0.0
C235 C 0.19706 0.29934 0.12117 0.0
C236 C 0.18608 0.30605 0.15335 0.0
C237 C 0.1689 0.29146 0.14888 0.0
C238 C 0.17987 0.28467 0.11677 0.0
C239 C 0.16587 0.28086 0.13044 0.0
C240 C 0.15393 0.28835 0.16241 0.0
C241 C 0.18777 0.27544 0.20042 0.0
C242 C 0.1975 0.28907 0.21577 0.0
C243 C 0.17331 0.27438 0.19043 0.0
C244 C 0.16827 0.28678 0.19591 0.0
C245 C 0.19215 0.30114 0.22157 0.0
C246 C 0.17753 0.29987 0.2119 0.0
C247 C 0.15389 0.28679 0.18456 0.0
C248 C 0.08357 0.27792 0.20982 0.0
C249 C 0.08915 0.28813 0.22887 0.0
C250 C 0.09588 0.27737 0.19626 0.0
C251 C 0.11401 0.28738 0.20131 0.0
C252 C 0.10722 0.29769 0.23413 0.0
C253 C 0.1195 0.2973 0.22052 0.0
C254 C 0.12746 0.28747 0.18708 0.0
C255 C 0.10426 0.3129 0.14878 0.0
C256 C 0.09652 0.30398 0.12943 0.0
C257 C 0.11396 0.30781 0.16066 0.0
C258 C 0.11584 0.29348 0.15363 0.0
C259 C 0.09837 0.2896 0.12246 0.0
C260 C 0.10801 0.28446 0.13442 0.0
C261 C 0.12766 0.28929 0.16488 0.0
H262 H 0.21316 0.32122 0.14355 0.0
H263 H 0.18865 0.31475 0.16716 0.0
H264 H 0.17716 0.27643 0.1025 0.0
H265 H 0.15264 0.26974 0.12656 0.0
H266 H 0.19169 0.266 0.19571 0.0
H267 H 0.16621 0.26407 0.17824 0.0
H268 H 0.19939 0.31166 0.23351 0.0
H269 H 0.17382 0.30952 0.21638 0.0
H270 H 0.06969 0.27022 0.20552 0.0
H271 H 0.0912 0.26912 0.18189 0.0
H272 H 0.11195 0.30585 0.24859 0.0
H273 H 0.13338 0.30506 0.22485 0.0
H274 H 0.10336 0.32425 0.15438 0.0
H275 H 0.12045 0.31547 0.175 0.0
H276 H 0.09244 0.28237 0.10772 0.0
H277 H 0.10952 0.27355 0.12854 0.0
N278 N 0.14079 0.28946 0.15342 0.0
N279 N 0.14069 0.28644 0.19604 0.0
C280 C 0.68718 0.89352 0.1464 0.0
C281 C 0.69507 0.90077 0.1268 0.0
C282 C 0.69237 0.88362 0.15784 0.0
C283 C 0.70581 0.88107 0.15013 0.0
C284 C 0.7084 0.89806 0.11901 0.0
C285 C 0.71367 0.88824 0.13054 0.0
C286 C 0.71042 0.86944 0.1613 0.0
C287 C 0.72378 0.91625 0.20609 0.0
C288 C 0.715 0.91105 0.22568 0.0
C289 C 0.72363 0.90335 0.19221 0.0
C290 C 0.71434 0.88501 0.19752 0.0
C291 C 0.70604 0.89277 0.23107 0.0
C292 C 0.70574 0.87993 0.21717 0.0
C293 C 0.71369 0.87085 0.18332 0.0
C294 C 0.72491 0.80894 0.19807 0.0
C295 C 0.71589 0.80357 0.2175 0.0
C296 C 0.7246 0.8221 0.18621 0.0
C297 C 0.71492 0.82979 0.1934 0.0
C298 C 0.70652 0.81156 0.22478 0.0
C299 C 0.70608 0.82452 0.21289 0.0
C300 C 0.71409 0.84365 0.1813 0.0
C301 C 0.68853 0.79422 0.13829 0.0
C302 C 0.69774 0.79632 0.11924 0.0
C303 C 0.69308 0.80912 0.15156 0.0
C304 C 0.70701 0.82641 0.14612 0.0
C305 C 0.71169 0.81369 0.11385 0.0
C306 C 0.71618 0.82862 0.12711 0.0
C307 C 0.71099 0.84236 0.15929 0.0
H308 H 0.67663 0.89507 0.15262 0.0
H309 H 0.68558 0.87761 0.17248 0.0
H310 H 0.7148 0.90357 0.10402 0.0
H311 H 0.72385 0.88618 0.12412 0.0
H312 H 0.7309 0.93029 0.20165 0.0
H313 H 0.73083 0.90772 0.17742 0.0
H314 H 0.69893 0.88831 0.2459 0.0
H315 H 0.6985 0.8659 0.2217 0.0
H316 H 0.7324 0.80315 0.19219 0.0
H317 H 0.732 0.82631 0.17156 0.0
H318 H 0.69922 0.80753 0.23953 0.0
H319 H 0.69854 0.83024 0.21884 0.0
H320 H 0.67748 0.78111 0.14272 0.0
H321 H 0.68546 0.80721 0.16585 0.0
H322 H 0.71919 0.81576 0.09942 0.0
H323 H 0.72683 0.8419 0.12253 0.0
N324 N 0.7094 0.85535 0.15015 0.0
N325 N 0.71533 0.85786 0.19235 0.0
C326 C 0.10587 0.80044 0.12995 0.0
C327 C 0.09845 0.80269 0.1117 0.0
C328 C 0.11651 0.81514 0.14347 0.0
C329 C 0.11977 0.83235 0.13917 0.0
C330 C 0.10184 0.81998 0.10736 0.0
C331 C 0.11249 0.83469 0.12092 0.0
C332 C 0.13198 0.84815 0.15263 0.0
C333 C 0.0849 0.81188 0.19316 0.0
C334 C 0.08901 0.80592 0.21137 0.0
C335 C 0.09837 0.8258 0.18129 0.0
C336 C 0.11621 0.8337 0.18718 0.0
C337 C 0.10682 0.8141 0.21741 0.0
C338 C 0.12024 0.82784 0.20548 0.0
C339 C 0.13084 0.84839 0.17493 0.0
C340 C 0.19416 0.9219 0.20063 0.0
C341 C 0.19809 0.91629 0.21926 0.0
C342 C 0.18131 0.90915 0.18654 0.0
C343 C 0.17262 0.89057 0.1906 0.0
C344 C 0.18924 0.89778 0.22338 0.0
C345 C 0.1767 0.88509 0.20921 0.0
C346 C 0.1586 0.87655 0.17651 0.0
C347 C 0.20643 0.90403 0.13335 0.0
C348 C 0.2041 0.91172 0.11538 0.0
C349 C 0.1921 0.89302 0.14644 0.0
C350 C 0.17519 0.88967 0.14197 0.0
C351 C 0.18717 0.90848 0.11112 0.0
C352 C 0.17286 0.89747 0.12421 0.0
C353 C 0.15957 0.87641 0.15416 0.0
H354 H 0.10384 0.78739 0.1335 0.0
H355 H 0.1225 0.81312 0.15704 0.0
H356 H 0.0962 0.82213 0.09353 0.0
H357 H 0.11506 0.84791 0.11717 0.0
H358 H 0.07126 0.80598 0.18829 0.0
H359 H 0.09482 0.83044 0.16762 0.0
H360 H 0.11043 0.80966 0.23121 0.0
H361 H 0.13386 0.83374 0.21043 0.0
H362 H 0.20074 0.93614 0.19723 0.0
H363 H 0.17803 0.91385 0.17272 0.0
H364 H 0.19218 0.89308 0.2375 0.0
H365 H 0.1702 0.87089 0.21281 0.0
H366 H 0.21921 0.90598 0.13688 0.0
H367 H 0.19412 0.88666 0.15965 0.0
H368 H 0.18496 0.91437 0.09757 0.0
H369 H 0.15987 0.89487 0.12034 0.0
N370 N 0.14618 0.86226 0.14314 0.0
N371 N 0.14423 0.86254 0.1859 0.0
C372 C 0.30375 0.10638 0.81573 0.0
C373 C 0.28947 0.09573 0.80191 0.0
C374 C 0.30391 0.11959 0.82891 0.0
C375 C 0.28966 0.12226 0.82882 0.0
C376 C 0.27515 0.09832 0.80195 0.0
C377 C 0.27529 0.11151 0.81523 0.0
C378 C 0.29057 0.13744 0.84111 0.0
C379 C 0.29065 0.10103 0.89066 0.0
C380 C 0.30629 0.10913 0.90274 0.0
C381 C 0.28734 0.1114 0.87722 0.0
C382 C 0.29963 0.13003 0.87565 0.0
C383 C 0.31855 0.12776 0.90106 0.0
C384 C 0.31519 0.13811 0.88777 0.0
C385 C 0.29607 0.14152 0.86249 0.0
C386 C 0.28978 0.20592 0.88343 0.0
C387 C 0.30605 0.21705 0.89386 0.0
C388 C 0.28618 0.19 0.87291 0.0
C389 C 0.29882 0.18501 0.87261 0.0
C390 C 0.31848 0.21177 0.89392 0.0
C391 C 0.31484 0.19584 0.88351 0.0
C392 C 0.29558 0.16854 0.86109 0.0
C393 C 0.30083 0.20758 0.81305 0.0
C394 C 0.28593 0.20143 0.80009 0.0
C395 C 0.3023 0.1956 0.82571 0.0
C396 C 0.28865 0.1773 0.82618 0.0
C397 C 0.27254 0.18301 0.79996 0.0
C398 C 0.2739 0.17104 0.81292 0.0
C399 C 0.29016 0.16456 0.8397 0.0
H400 H 0.31517 0.10504 0.81574 0.0
H401 H 0.31549 0.12816 0.83858 0.0
H402 H 0.26393 0.09027 0.79156 0.0
H403 H 0.26426 0.11349 0.81469 0.0
H404 H 0.28099 0.08668 0.89157 0.0
H405 H 0.27507 0.10493 0.86835 0.0
H406 H 0.33059 0.13444 0.91038 0.0
H407 H 0.32478 0.15249 0.88696 0.0
H408 H 0.27997 0.20968 0.88312 0.0
H409 H 0.27359 0.18165 0.86492 0.0
H410 H 0.33099 0.21991 0.90214 0.0
H411 H 0.32471 0.19213 0.88363 0.0
H412 H 0.31156 0.22162 0.81304 0.0
H413 H 0.31422 0.20066 0.835 0.0
H414 H 0.26096 0.17791 0.79002 0.0
H415 H 0.26336 0.15692 0.81274 0.0
N416 N 0.28772 0.14908 0.83059 0.0
N417 N 0.29842 0.15694 0.87157 0.0
C418 C 0.91449 0.1924 0.89736 0.0
C419 C 0.91015 0.19932 0.9152 0.0
C420 C 0.90115 0.17818 0.88512 0.0
C421 C 0.88324 0.17099 0.89025 0.0
C422 C 0.89227 0.1916 0.92073 0.0
C423 C 0.87898 0.17759 0.90841 0.0
C424 C 0.86867 0.15663 0.87708 0.0
C425 C 0.89817 0.20424 0.83457 0.0
C426 C 0.90472 0.20092 0.8157 0.0
C427 C 0.8865 0.19001 0.84741 0.0
C428 C 0.88147 0.17218 0.84203 0.0
C429 C 0.89963 0.18303 0.81032 0.0
C430 C 0.88807 0.16881 0.82332 0.0
C431 C 0.86811 0.1569 0.85474 0.0
C432 C 0.79219 0.10614 0.83454 0.0
C433 C 0.79339 0.09808 0.81551 0.0
C434 C 0.80696 0.11611 0.8476 0.0
C435 C 0.82319 0.11794 0.84216 0.0
C436 C 0.8096 0.09976 0.81019 0.0
C437 C 0.82438 0.10969 0.82334 0.0
C438 C 0.83931 0.13001 0.85478 0.0
C439 C 0.80156 0.08548 0.89766 0.0
C440 C 0.79654 0.0916 0.91567 0.0
C441 C 0.81579 0.09772 0.88514 0.0
C442 C 0.82504 0.11631 0.89023 0.0
C443 C 0.80612 0.11014 0.92099 0.0
C444 C 0.82024 0.12233 0.90845 0.0
C445 C 0.8399 0.12972 0.8771 0.0
H446 H 0.9282 0.19795 0.89291 0.0
H447 H 0.90482 0.17295 0.87158 0.0
H448 H 0.88849 0.19676 0.93425 0.0
H449 H 0.86529 0.17223 0.91279 0.0
H450 H 0.90192 0.21783 0.83936 0.0
H451 H 0.88114 0.19296 0.86135 0.0
H452 H 0.90414 0.17992 0.79574 0.0
H453 H 0.8841 0.15511 0.81864 0.0
H454 H 0.77988 0.105 0.83921 0.0
H455 H 0.8058 0.12283 0.86166 0.0
H456 H 0.81106 0.09396 0.7955 0.0
H457 H 0.83684 0.11119 0.81864 0.0
H458 H 0.79458 0.07123 0.89335 0.0
H459 H 0.81956 0.09266 0.87153 0.0
H460 H 0.80246 0.11531 0.9346 0.0
H461 H 0.82719 0.13659 0.91277 0.0
N462 N 0.85453 0.14307 0.88728 0.0
N463 N 0.85351 0.14349 0.8445 0.0
C464 C 0.80844 0.72954 0.89353 0.0
C465 C 0.80022 0.71471 0.90701 0.0
C466 C 0.8233 0.73311 0.88167 0.0
C467 C 0.82996 0.7217 0.88281 0.0
C468 C 0.80737 0.70378 0.90872 0.0
C469 C 0.8221 0.70727 0.89679 0.0
C470 C 0.84489 0.72427 0.86944 0.0
C471 C 0.80036 0.71087 0.82554 0.0
C472 C 0.804 0.72473 0.81165 0.0
C473 C 0.81394 0.71154 0.83707 0.0
C474 C 0.83141 0.72626 0.83529 0.0
C475 C 0.82158 0.73927 0.80951 0.0
C476 C 0.83519 0.73999 0.8212 0.0
C477 C 0.84582 0.72685 0.84737 0.0
C478 C 0.8975 0.70701 0.81904 0.0
C479 C 0.9069 0.71969 0.80327 0.0
C480 C 0.88645 0.70921 0.833 0.0
C481 C 0.88481 0.72432 0.8318 0.0
C482 C 0.90515 0.73475 0.80197 0.0
C483 C 0.89414 0.737 0.81607 0.0
C484 C 0.87221 0.72604 0.8457 0.0
C485 C 0.91372 0.72876 0.8882 0.0
C486 C 0.90697 0.71439 0.90232 0.0
C487 C 0.90226 0.73201 0.87704 0.0
C488 C 0.88386 0.72081 0.87965 0.0
C489 C 0.88856 0.70348 0.90518 0.0
C490 C 0.87716 0.70672 0.89405 0.0
C491 C 0.87132 0.72361 0.86781 0.0
H492 H 0.80337 0.73835 0.89215 0.0
H493 H 0.82945 0.74464 0.87144 0.0
H494 H 0.80123 0.69214 0.91878 0.0
H495 H 0.82703 0.69832 0.89801 0.0
H496 H 0.78704 0.69925 0.82713 0.0
H497 H 0.81079 0.70045 0.84726 0.0
H498 H 0.8248 0.75015 0.79893 0.0
H499 H 0.84863 0.75133 0.81938 0.0
H500 H 0.8982 0.69503 0.82013 0.0
H501 H 0.87884 0.69883 0.84441 0.0
H502 H 0.91225 0.74477 0.79002 0.0
H503 H 0.89286 0.74861 0.81466 0.0
H504 H 0.92786 0.73756 0.88589 0.0
H505 H 0.90777 0.74327 0.86643 0.0
H506 H 0.88291 0.69215 0.91569 0.0
H507 H 0.86301 0.69791 0.89635 0.0
N508 N 0.85766 0.72274 0.87872 0.0
N509 N 0.85951 0.72776 0.83637 0.0
C510 C 0.74857 0.61365 0.46447 0.0
C511 C 0.75514 0.62775 0.44999 0.0
C512 C 0.76018 0.61056 0.47559 0.0
C513 C 0.77855 0.62168 0.47262 0.0
C514 C 0.77351 0.63853 0.44671 0.0
C515 C 0.78506 0.63548 0.45783 0.0
C516 C 0.79128 0.61924 0.48459 0.0
C517 C 0.76512 0.63632 0.5327 0.0
C518 C 0.75671 0.62455 0.54958 0.0
C519 C 0.77595 0.63385 0.51868 0.0
C520 C 0.77819 0.61918 0.52073 0.0
C521 C 0.75902 0.60989 0.55167 0.0
C522 C 0.7697 0.60728 0.53741 0.0
C523 C 0.79066 0.61727 0.50678 0.0
C524 C 0.86267 0.63312 0.52751 0.0
C525 C 0.85892 0.61964 0.54206 0.0
C526 C 0.84917 0.63213 0.51541 0.0
C527 C 0.83167 0.61748 0.51733 0.0
C528 C 0.84133 0.60511 0.54417 0.0
C529 C 0.82783 0.60409 0.53197 0.0
C530 C 0.81723 0.61673 0.50513 0.0
C531 C 0.85443 0.61392 0.45834 0.0
C532 C 0.86181 0.62809 0.44388 0.0
C533 C 0.83994 0.61058 0.47089 0.0
C534 C 0.83281 0.62154 0.46944 0.0
C535 C 0.85412 0.63851 0.44191 0.0
C536 C 0.83982 0.63528 0.45454 0.0
C537 C 0.81796 0.61897 0.48299 0.0
H538 H 0.73447 0.60494 0.4671 0.0
H539 H 0.7548 0.59954 0.48653 0.0
H540 H 0.77904 0.64966 0.43591 0.0
H541 H 0.79917 0.64422 0.45522 0.0
H542 H 0.76351 0.64763 0.53039 0.0
H543 H 0.78288 0.64368 0.50651 0.0
H544 H 0.753 0.60073 0.56467 0.0
H545 H 0.77152 0.59608 0.53956 0.0
H546 H 0.87599 0.64472 0.52587 0.0
H547 H 0.85239 0.64298 0.50478 0.0
H548 H 0.83801 0.59447 0.55518 0.0
H549 H 0.81437 0.5928 0.5339 0.0
H550 H 0.86003 0.60564 0.46027 0.0
H551 H 0.83444 0.59953 0.4818 0.0
H552 H 0.85915 0.64921 0.43056 0.0
H553 H 0.83441 0.64378 0.45289 0.0
N554 N 0.80495 0.62011 0.47369 0.0
N555 N 0.80354 0.61586 0.51612 0.0
C556 C 0.3557 0.22768 0.47523 0.0
C557 C 0.36364 0.23455 0.45554 0.0
C558 C 0.36048 0.21754 0.48687 0.0
C559 C 0.3736 0.21443 0.4793 0.0
C560 C 0.37649 0.23111 0.44777 0.0
C561 C 0.38139 0.22109 0.45954 0.0
C562 C 0.37823 0.20308 0.49109 0.0
C563 C 0.39191 0.2513 0.53325 0.0
C564 C 0.38338 0.24683 0.55301 0.0
C565 C 0.39182 0.23797 0.52024 0.0
C566 C 0.38274 0.21987 0.52656 0.0
C567 C 0.37482 0.22886 0.55954 0.0
C568 C 0.3745 0.21556 0.54647 0.0
C569 C 0.38184 0.20522 0.51306 0.0
C570 C 0.39439 0.14468 0.53079 0.0
C571 C 0.38545 0.13965 0.5503 0.0
C572 C 0.39372 0.15736 0.51836 0.0
C573 C 0.38376 0.16487 0.52503 0.0
C574 C 0.37585 0.1475 0.55709 0.0
C575 C 0.37504 0.15996 0.54463 0.0
C576 C 0.38248 0.17815 0.51228 0.0
C577 C 0.3585 0.12757 0.47111 0.0
C578 C 0.36705 0.12973 0.45154 0.0
C579 C 0.36259 0.14261 0.48392 0.0
C580 C 0.37554 0.16007 0.47759 0.0
C581 C 0.37995 0.14723 0.4452 0.0
C582 C 0.38409 0.16226 0.45807 0.0
C583 C 0.37909 0.17614 0.49028 0.0
H584 H 0.3455 0.22981 0.48141 0.0
H585 H 0.35373 0.21192 0.50166 0.0
H586 H 0.38288 0.23629 0.43269 0.0
H587 H 0.39132 0.2186 0.45323 0.0
H588 H 0.39876 0.2651 0.52797 0.0
H589 H 0.39881 0.2418 0.50529 0.0
H590 H 0.36796 0.22499 0.57459 0.0
H591 H 0.36748 0.20176 0.5518 0.0
H592 H 0.40205 0.13899 0.52528 0.0
H593 H 0.40104 0.16131 0.50362 0.0
H594 H 0.36862 0.14373 0.57191 0.0
H595 H 0.36731 0.16557 0.5502 0.0
H596 H 0.34825 0.1143 0.47624 0.0
H597 H 0.35535 0.14061 0.49856 0.0
H598 H 0.38685 0.14931 0.43029 0.0
H599 H 0.39394 0.17564 0.45277 0.0
N600 N 0.37723 0.18874 0.48056 0.0
N601 N 0.38371 0.19261 0.5227 0.0
C602 C 0.76839 0.13001 0.47207 0.0
C603 C 0.76116 0.13069 0.45276 0.0
C604 C 0.77935 0.14579 0.48385 0.0
C605 C 0.78308 0.16258 0.4768 0.0
C606 C 0.7648 0.14749 0.44575 0.0
C607 C 0.77579 0.16333 0.45761 0.0
C608 C 0.79603 0.17938 0.48834 0.0
C609 C 0.74934 0.14891 0.53113 0.0
C610 C 0.75304 0.14362 0.55018 0.0
C611 C 0.76314 0.16147 0.51836 0.0
C612 C 0.78088 0.16862 0.52418 0.0
C613 C 0.77077 0.15123 0.55628 0.0
C614 C 0.78452 0.1636 0.54344 0.0
C615 C 0.7958 0.18145 0.51061 0.0
C616 C 0.8633 0.25201 0.53126 0.0
C617 C 0.87052 0.24567 0.5457 0.0
C618 C 0.8485 0.23976 0.51908 0.0
C619 C 0.84061 0.22108 0.52158 0.0
C620 C 0.86265 0.22699 0.54799 0.0
C621 C 0.84771 0.21482 0.53621 0.0
C622 C 0.82484 0.20776 0.50935 0.0
C623 C 0.8707 0.229 0.46379 0.0
C624 C 0.86927 0.23818 0.44677 0.0
C625 C 0.85633 0.21898 0.47721 0.0
C626 C 0.84028 0.21802 0.47394 0.0
C627 C 0.85322 0.23731 0.44362 0.0
C628 C 0.83879 0.22716 0.45699 0.0
C629 C 0.82466 0.20629 0.48708 0.0
H630 H 0.76572 0.11727 0.478 0.0
H631 H 0.78528 0.14488 0.49823 0.0
H632 H 0.75961 0.14847 0.4308 0.0
H633 H 0.77878 0.17618 0.45169 0.0
H634 H 0.73579 0.14344 0.5262 0.0
H635 H 0.75992 0.16554 0.50394 0.0
H636 H 0.77404 0.14727 0.57075 0.0
H637 H 0.79805 0.16895 0.54837 0.0
H638 H 0.86917 0.26638 0.52932 0.0
H639 H 0.84309 0.24481 0.50795 0.0
H640 H 0.86787 0.2218 0.55921 0.0
H641 H 0.84178 0.20045 0.53835 0.0
H642 H 0.88292 0.22951 0.46667 0.0
H643 H 0.85763 0.21164 0.48986 0.0
H644 H 0.85169 0.24409 0.43049 0.0
H645 H 0.82642 0.22634 0.45403 0.0
N646 N 0.8103 0.19209 0.4774 0.0
N647 N 0.81037 0.19541 0.52024 0.0
C648 C 0.9553 0.53384 0.15038 0.0
C649 C 0.96386 0.54017 0.13085 0.0
C650 C 0.95706 0.52119 0.16137 0.0
C651 C 0.96775 0.51496 0.15327 0.0
C652 C 0.97417 0.53356 0.12253 0.0
C653 C 0.97606 0.52106 0.1336 0.0
C654 C 0.96991 0.50165 0.16471 0.0
C655 C 0.994 0.55126 0.20665 0.0
C656 C 0.98549 0.54901 0.22627 0.0
C657 C 0.98997 0.53628 0.19377 0.0
C658 C 0.97713 0.51877 0.20007 0.0
C659 C 0.97292 0.53143 0.23274 0.0
C660 C 0.96885 0.51645 0.2198 0.0
C661 C 0.97306 0.50282 0.18672 0.0
C662 C 0.98968 0.44628 0.2027 0.0
C663 C 0.97846 0.43748 0.21993 0.0
C664 C 0.98751 0.45828 0.19085 0.0
C665 C 0.97413 0.46167 0.1961 0.0
C666 C 0.96509 0.44093 0.2251 0.0
C667 C 0.96306 0.45305 0.21341 0.0
C668 C 0.97222 0.47502 0.18455 0.0
C669 C 0.95744 0.42831 0.13892 0.0
C670 C 0.96718 0.43337 0.11995 0.0
C671 C 0.95813 0.44146 0.15284 0.0
C672 C 0.96889 0.4599 0.14823 0.0
C673 C 0.97764 0.45178 0.11523 0.0
C674 C 0.97845 0.46487 0.12919 0.0
C675 C 0.96984 0.47422 0.1624 0.0
H676 H 0.94705 0.53849 0.157 0.0
H677 H 0.94999 0.51623 0.17614 0.0
H678 H 0.98106 0.53832 0.10761 0.0
H679 H 0.98425 0.51636 0.12693 0.0
H680 H 0.00367 0.56462 0.20114 0.0
H681 H 0.99695 0.5384 0.17891 0.0
H682 H 0.96636 0.52921 0.24792 0.0
H683 H 0.95915 0.50303 0.22514 0.0
H684 H 7e-05 0.44383 0.19835 0.0
H685 H 0.99642 0.46508 0.17778 0.0
H686 H 0.95642 0.43453 0.23848 0.0
H687 H 0.9528 0.45568 0.21786 0.0
H688 H 0.9491 0.41419 0.14282 0.0
H689 H 0.9501 0.43718 0.16703 0.0
H690 H 0.98546 0.45611 0.10087 0.0
H691 H 0.98676 0.47898 0.1252 0.0
N692 N 0.9687 0.48754 0.15341 0.0
N693 N 0.97378 0.4893 0.19583 0.0
C694 C 0.46627 0.41961 0.15167 0.0
C695 C 0.46323 0.42552 0.13267 0.0
C696 C 0.47953 0.43197 0.16566 0.0
C697 C 0.48955 0.45048 0.16106 0.0
C698 C 0.47329 0.44397 0.12814 0.0
C699 C 0.48625 0.45628 0.14216 0.0
C700 C 0.5042 0.46404 0.1748 0.0
C701 C 0.45594 0.44073 0.21684 0.0
C702 C 0.45703 0.43202 0.2346 0.0
C703 C 0.47087 0.4513 0.20437 0.0
C704 C 0.48712 0.45323 0.20934 0.0
C705 C 0.47335 0.43404 0.23956 0.0
C706 C 0.48828 0.44467 0.22712 0.0
C707 C 0.50321 0.46522 0.19705 0.0
C708 C 0.56099 0.54045 0.21767 0.0
C709 C 0.56701 0.53817 0.23707 0.0
C710 C 0.55 0.52553 0.20458 0.0
C711 C 0.545 0.50805 0.21049 0.0
C712 C 0.56201 0.52065 0.24293 0.0
C713 C 0.55103 0.50573 0.2298 0.0
C714 C 0.53205 0.49208 0.19771 0.0
C715 C 0.58018 0.52272 0.15568 0.0
C716 C 0.5767 0.527 0.1358 0.0
C717 C 0.56618 0.51094 0.16884 0.0
C718 C 0.54852 0.50373 0.16254 0.0
C719 C 0.55909 0.51967 0.1295 0.0
C720 C 0.54519 0.50822 0.14272 0.0
C721 C 0.53324 0.49064 0.1755 0.0
H722 H 0.45873 0.4054 0.15541 0.0
H723 H 0.48213 0.42702 0.17979 0.0
H724 H 0.47104 0.44891 0.11373 0.0
H725 H 0.49375 0.47044 0.13818 0.0
H726 H 0.44354 0.43935 0.21255 0.0
H727 H 0.46977 0.45817 0.19102 0.0
H728 H 0.47467 0.42772 0.25332 0.0
H729 H 0.50078 0.44625 0.23141 0.0
H730 H 0.56429 0.55371 0.21289 0.0
H731 H 0.54499 0.52763 0.19013 0.0
H732 H 0.56655 0.51846 0.25769 0.0
H733 H 0.54713 0.49233 0.2348 0.0
H734 H 0.59368 0.52815 0.16079 0.0
H735 H 0.56918 0.50726 0.1837 0.0
H736 H 0.55606 0.52295 0.11437 0.0
H737 H 0.53174 0.50286 0.1374 0.0
N738 N 0.51922 0.47673 0.16506 0.0
N739 N 0.51719 0.47916 0.20762 0.0
C740 C 0.46842 0.03711 0.22142 0.0
C741 C 0.46024 0.02262 0.23539 0.0
C742 C 0.48196 0.03922 0.20794 0.0
C743 C 0.48748 0.02682 0.20814 0.0
C744 C 0.46598 0.01039 0.23572 0.0
C745 C 0.47952 0.01254 0.22231 0.0
C746 C 0.50191 0.02883 0.19424 0.0
C747 C 0.45701 0.01518 0.15069 0.0
C748 C 0.46065 0.02794 0.13518 0.0
C749 C 0.47061 0.0166 0.16296 0.0
C750 C 0.48812 0.03106 0.16039 0.0
C751 C 0.47819 0.04248 0.13268 0.0
C752 C 0.49181 0.04396 0.1451 0.0
C753 C 0.50273 0.03183 0.17228 0.0
C754 C 0.55833 0.01756 0.14224 0.0
C755 C 0.56799 0.03171 0.12811 0.0
C756 C 0.54592 0.01767 0.15591 0.0
C757 C 0.54309 0.03206 0.15598 0.0
C758 C 0.56493 0.04596 0.12796 0.0
C759 C 0.55252 0.04608 0.14172 0.0
C760 C 0.52964 0.03202 0.17006 0.0
C761 C 0.57184 0.03581 0.2125 0.0
C762 C 0.56561 0.02152 0.22667 0.0
C763 C 0.55996 0.03833 0.20116 0.0
C764 C 0.54162 0.02641 0.20352 0.0
C765 C 0.54724 0.00985 0.22924 0.0
C766 C 0.53541 0.01229 0.21781 0.0
C767 C 0.52867 0.0288 0.19198 0.0
H768 H 0.46424 0.04672 0.22077 0.0
H769 H 0.48818 0.05058 0.19746 0.0
H770 H 0.46014 -0.00072 0.24654 0.0
H771 H 0.48369 0.00291 0.22289 0.0
H772 H 0.44365 0.0039 0.15319 0.0
H773 H 0.46744 0.0061 0.1741 0.0
H774 H 0.48149 0.0524 0.12067 0.0
H775 H 0.50526 0.05507 0.1426 0.0
H776 H 0.56005 0.00616 0.14239 0.0
H777 H 0.53836 0.00637 0.16624 0.0
H778 H 0.57219 0.05708 0.11732 0.0
H779 H 0.55038 0.0572 0.14134 0.0
H780 H 0.5859 0.04501 0.21007 0.0
H781 H 0.56512 0.04964 0.19068 0.0
H782 H 0.54195 -0.00104 0.24035 0.0
H783 H 0.52132 0.00305 0.22011 0.0
N784 N 0.51483 0.02733 0.20314 0.0
N785 N 0.51668 0.03349 0.16108 0.0
C786 C 0.53457 0.97666 0.81128 0.0
C787 C 0.53257 0.967 0.79227 0.0
C788 C 0.51978 0.97332 0.82299 0.0
C789 C 0.50267 0.95991 0.81625 0.0
C790 C 0.51545 0.95383 0.78528 0.0
C791 C 0.50062 0.95033 0.79718 0.0
C792 C 0.48692 0.95709 0.82802 0.0
C793 C 0.51698 0.9429 0.8708 0.0
C794 C 0.52597 0.95629 0.88665 0.0
C795 C 0.50338 0.94232 0.85927 0.0
C796 C 0.4985 0.95501 0.86359 0.0
C797 C 0.52058 0.9685 0.89147 0.0
C798 C 0.50683 0.96774 0.88019 0.0
C799 C 0.48541 0.95578 0.85028 0.0
C800 C 0.415 0.94894 0.86758 0.0
C801 C 0.42028 0.96218 0.88381 0.0
C802 C 0.42764 0.9471 0.8563 0.0
C803 C 0.44572 0.95839 0.8612 0.0
C804 C 0.43833 0.97316 0.88894 0.0
C805 C 0.45091 0.97118 0.87786 0.0
C806 C 0.45943 0.95723 0.84906 0.0
C807 C 0.43786 0.98047 0.80471 0.0
C808 C 0.42954 0.96963 0.78655 0.0
C809 C 0.44768 0.97653 0.81803 0.0
C810 C 0.44926 0.96158 0.81361 0.0
C811 C 0.4312 0.95467 0.78215 0.0
C812 C 0.44107 0.95077 0.79549 0.0
C813 C 0.46072 0.95816 0.82677 0.0
H814 H 0.54758 0.9872 0.81678 0.0
H815 H 0.52174 0.98157 0.83706 0.0
H816 H 0.51354 0.9462 0.77067 0.0
H817 H 0.48754 0.94018 0.79146 0.0
H818 H 0.52094 0.93336 0.8668 0.0
H819 H 0.49695 0.93224 0.84668 0.0
H820 H 0.5272 0.97883 0.90377 0.0
H821 H 0.5032 0.97759 0.88383 0.0
H822 H 0.40116 0.9403 0.86334 0.0
H823 H 0.42333 0.93694 0.84371 0.0
H824 H 0.44274 0.98328 0.90159 0.0
H825 H 0.46476 0.97995 0.88199 0.0
H826 H 0.43721 0.99233 0.80832 0.0
H827 H 0.45442 0.98546 0.8315 0.0
H828 H 0.42484 0.94596 0.76841 0.0
H829 H 0.44234 0.9393 0.79165 0.0
N830 N 0.47439 0.95801 0.81711 0.0
N831 N 0.47185 0.95611 0.85998 0.0
C832 C 0.0129 0.55924 0.80252 0.0
C833 C 0.02353 0.56854 0.78508 0.0
C834 C 0.01639 0.54811 0.81418 0.0
C835 C 0.03065 0.54613 0.80871 0.0
C836 C 0.03776 0.56648 0.7796 0.0
C837 C 0.04118 0.55525 0.79121 0.0
C838 C 0.03383 0.53363 0.82033 0.0
C839 C 0.04633 0.57966 0.86539 0.0
C840 C 0.03372 0.57436 0.88166 0.0
C841 C 0.04697 0.56663 0.85265 0.0
C842 C 0.03512 0.54815 0.85615 0.0
C843 C 0.0221 0.55588 0.88533 0.0
C844 C 0.02291 0.5429 0.87281 0.0
C845 C 0.03524 0.53416 0.84259 0.0
C846 C 0.04978 0.47482 0.85783 0.0
C847 C 0.0401 0.46822 0.87668 0.0
C848 C 0.04862 0.48756 0.84617 0.0
C849 C 0.03748 0.49366 0.85291 0.0
C850 C 0.0292 0.47457 0.88356 0.0
C851 C 0.02794 0.48717 0.87182 0.0
C852 C 0.03618 0.50731 0.84096 0.0
C853 C 0.01363 0.45932 0.79583 0.0
C854 C 0.02469 0.46194 0.77844 0.0
C855 C 0.01714 0.47383 0.80926 0.0
C856 C 0.03169 0.49121 0.80542 0.0
C857 C 0.03937 0.47931 0.77475 0.0
C858 C 0.04271 0.49389 0.788 0.0
C859 C 0.03461 0.50673 0.81868 0.0
H860 H 0.0019 0.56062 0.8072 0.0
H861 H 0.00778 0.54083 0.82728 0.0
H862 H 0.04604 0.57328 0.76607 0.0
H863 H 0.05208 0.55368 0.78654 0.0
H864 H 0.05541 0.59383 0.86227 0.0
H865 H 0.05668 0.57095 0.84006 0.0
H866 H 0.0124 0.55147 0.89794 0.0
H867 H 0.01373 0.52871 0.87583 0.0
H868 H 0.0585 0.4704 0.85232 0.0
H869 H 0.05666 0.49281 0.83208 0.0
H870 H 0.02144 0.46961 0.8979 0.0
H871 H 0.01934 0.49172 0.87745 0.0
H872 H 0.00227 0.44603 0.79901 0.0
H873 H 0.0083 0.47156 0.82241 0.0
H874 H 0.04799 0.48165 0.76133 0.0
H875 H 0.05387 0.50727 0.78468 0.0
N876 N 0.03364 0.51996 0.8092 0.0
N877 N 0.03631 0.52097 0.85205 0.0
C878 C 0.5351 0.57448 0.7914 0.0
C879 C 0.5419 0.56704 0.777 0.0
C880 C 0.52017 0.56324 0.8036 0.0
C881 C 0.51196 0.54437 0.80187 0.0
C882 C 0.53349 0.54816 0.77508 0.0
C883 C 0.51866 0.53695 0.78735 0.0
C884 C 0.496 0.53213 0.8144 0.0
C885 C 0.53909 0.56193 0.86282 0.0
C886 C 0.53613 0.57198 0.87828 0.0
C887 C 0.52564 0.55016 0.84883 0.0
C888 C 0.50903 0.54844 0.8497 0.0
C889 C 0.51955 0.57037 0.87901 0.0
C890 C 0.5061 0.55863 0.86492 0.0
C891 C 0.49424 0.53473 0.83629 0.0
C892 C 0.43014 0.46428 0.86035 0.0
C893 C 0.42149 0.47016 0.87402 0.0
C894 C 0.44436 0.47658 0.84798 0.0
C895 C 0.44993 0.49497 0.8486 0.0
C896 C 0.42732 0.48862 0.87502 0.0
C897 C 0.44144 0.50092 0.86241 0.0
C898 C 0.46526 0.50815 0.83587 0.0
C899 C 0.42333 0.46863 0.79056 0.0
C900 C 0.4284 0.4577 0.77987 0.0
C901 C 0.43593 0.48442 0.8014 0.0
C902 C 0.45376 0.48947 0.80168 0.0
C903 C 0.44635 0.46314 0.77962 0.0
C904 C 0.45892 0.47894 0.7903 0.0
C905 C 0.46718 0.5054 0.8141 0.0
H906 H 0.54112 0.58898 0.79295 0.0
H907 H 0.51495 0.56931 0.81418 0.0
H908 H 0.53851 0.54203 0.76428 0.0
H909 H 0.51251 0.52244 0.78564 0.0
H910 H 0.55175 0.56296 0.8617 0.0
H911 H 0.52811 0.54204 0.83772 0.0
H912 H 0.51675 0.57772 0.89092 0.0
H913 H 0.4933 0.55729 0.86612 0.0
H914 H 0.42623 0.45021 0.85965 0.0
H915 H 0.45116 0.47173 0.83818 0.0
H916 H 0.42091 0.49353 0.88545 0.0
H917 H 0.4457 0.51508 0.86339 0.0
H918 H 0.40958 0.46474 0.79099 0.0
H919 H 0.43173 0.49253 0.8098 0.0
H920 H 0.45067 0.45513 0.7712 0.0
H921 H 0.47263 0.48268 0.79017 0.0
N922 N 0.48245 0.51747 0.80425 0.0
N923 N 0.47885 0.52275 0.84609 0.0
C924 C 0.63973 0.77401 0.48638 0.0
C925 C 0.62561 0.76395 0.47219 0.0
C926 C 0.63984 0.78679 0.5003 0.0
C927 C 0.62566 0.78957 0.5006 0.0
C928 C 0.61151 0.76689 0.47234 0.0
C929 C 0.61158 0.77964 0.48638 0.0
C930 C 0.62613 0.80373 0.51461 0.0
C931 C 0.62444 0.76255 0.55765 0.0
C932 C 0.63939 0.76942 0.5708 0.0
C933 C 0.62143 0.77426 0.5464 0.0
C934 C 0.63344 0.79302 0.54789 0.0
C935 C 0.65122 0.78822 0.57246 0.0
C936 C 0.64823 0.79988 0.5612 0.0
C937 C 0.63055 0.80577 0.53633 0.0
C938 C 0.62478 0.86923 0.56522 0.0
C939 C 0.63983 0.87806 0.57835 0.0
C940 C 0.62158 0.85454 0.55222 0.0
C941 C 0.63352 0.84862 0.55188 0.0
C942 C 0.65155 0.87188 0.57823 0.0
C943 C 0.6484 0.85729 0.56519 0.0
C944 C 0.63053 0.83313 0.53831 0.0
C945 C 0.63881 0.87617 0.49396 0.0
C946 C 0.62452 0.87122 0.48031 0.0
C947 C 0.63928 0.86319 0.50584 0.0
C948 C 0.6253 0.84503 0.50467 0.0
C949 C 0.61066 0.85299 0.47892 0.0
C950 C 0.61108 0.84001 0.49096 0.0
C951 C 0.62605 0.83108 0.5166 0.0
H952 H 0.651 0.7724 0.48631 0.0
H953 H 0.6512 0.79476 0.51052 0.0
H954 H 0.60041 0.75931 0.46163 0.0
H955 H 0.60062 0.78174 0.48614 0.0
H956 H 0.61494 0.74814 0.55631 0.0
H957 H 0.60965 0.76865 0.53671 0.0
H958 H 0.66297 0.79395 0.58224 0.0
H959 H 0.65764 0.81431 0.56268 0.0
H960 H 0.61536 0.87351 0.56523 0.0
H961 H 0.60973 0.84774 0.54256 0.0
H962 H 0.66336 0.87851 0.58797 0.0
H963 H 0.65775 0.85291 0.56528 0.0
H964 H 0.6499 0.89002 0.49499 0.0
H965 H 0.65075 0.86732 0.51565 0.0
H966 H 0.59947 0.84878 0.46857 0.0
H967 H 0.60028 0.82604 0.48959 0.0
N968 N 0.62391 0.81639 0.50565 0.0
N969 N 0.63265 0.82042 0.54724 0.0
C970 C 0.12304 0.75931 0.49744 0.0
C971 C 0.11672 0.76595 0.48217 0.0
C972 C 0.13811 0.77122 0.5094 0.0
C973 C 0.14709 0.78991 0.50613 0.0
C974 C 0.12588 0.78463 0.47884 0.0
C975 C 0.14098 0.79646 0.49059 0.0
C976 C 0.16303 0.80286 0.51847 0.0
C977 C 0.11737 0.7817 0.56351 0.0
C978 C 0.11783 0.77102 0.57941 0.0
C979 C 0.1322 0.79216 0.5509 0.0
C980 C 0.14776 0.79208 0.55385 0.0
C981 C 0.13349 0.77107 0.58246 0.0
C982 C 0.14839 0.78166 0.56989 0.0
C983 C 0.16355 0.80351 0.54079 0.0
C984 C 0.22573 0.87673 0.56004 0.0
C985 C 0.2334 0.87351 0.5773 0.0
C986 C 0.21282 0.86237 0.54768 0.0
C987 C 0.20745 0.8445 0.55214 0.0
C988 C 0.22791 0.85557 0.58183 0.0
C989 C 0.21497 0.84119 0.56942 0.0
C990 C 0.19301 0.82925 0.53987 0.0
C991 C 0.23846 0.85939 0.49443 0.0
C992 C 0.23443 0.86607 0.47681 0.0
C993 C 0.22495 0.8471 0.50774 0.0
C994 C 0.20724 0.84159 0.5039 0.0
C995 C 0.21669 0.86033 0.47288 0.0
C996 C 0.20327 0.84822 0.48624 0.0
C997 C 0.19254 0.82845 0.51748 0.0
H998 H 0.11622 0.74496 0.50028 0.0
H999 H 0.14279 0.76585 0.52108 0.0
H1000 H 0.12147 0.79009 0.46693 0.0
H1001 H 0.14778 0.81082 0.48773 0.0
H1002 H 0.10547 0.78185 0.56068 0.0
H1003 H 0.13155 0.80044 0.53893 0.0
H1004 H 0.13429 0.76314 0.59476 0.0
H1005 H 0.16037 0.78162 0.57258 0.0
H1006 H 0.22934 0.89033 0.55641 0.0
H1007 H 0.20675 0.86524 0.53491 0.0
H1008 H 0.23362 0.85265 0.59495 0.0
H1009 H 0.21082 0.82748 0.5733 0.0
H1010 H 0.252 0.86342 0.49768 0.0
H1011 H 0.22835 0.84179 0.52087 0.0
H1012 H 0.21319 0.86542 0.45961 0.0
H1013 H 0.18973 0.84417 0.48287 0.0
N1014 N 0.17751 0.81534 0.50772 0.0
N1015 N 0.17855 0.81664 0.55066 0.0
C1016 C 0.23995 0.38094 0.47055 0.0
C1017 C 0.23341 0.36925 0.45269 0.0
C1018 C 0.2283 0.38198 0.48479 0.0
C1019 C 0.2099 0.37103 0.48166 0.0
C1020 C 0.21504 0.35864 0.44937 0.0
C1021 C 0.20343 0.35954 0.46367 0.0
C1022 C 0.19717 0.37169 0.49649 0.0
C1023 C 0.22478 0.35157 0.53595 0.0
C1024 C 0.23453 0.36309 0.55307 0.0
C1025 C 0.21342 0.35467 0.5244 0.0
C1026 C 0.21171 0.36944 0.52966 0.0
C1027 C 0.2329 0.37795 0.55819 0.0
C1028 C 0.22147 0.381 0.54668 0.0
C1029 C 0.19855 0.37185 0.51878 0.0
C1030 C 0.12716 0.35207 0.54861 0.0
C1031 C 0.13104 0.36399 0.56602 0.0
C1032 C 0.14039 0.35489 0.53423 0.0
C1033 C 0.15774 0.36975 0.5369 0.0
C1034 C 0.14844 0.37886 0.56869 0.0
C1035 C 0.16171 0.38161 0.55434 0.0
C1036 C 0.17195 0.37205 0.52245 0.0
C1037 C 0.13641 0.38279 0.48413 0.0
C1038 C 0.12627 0.36865 0.46948 0.0
C1039 C 0.15089 0.38394 0.4942 0.0
C1040 C 0.15553 0.37112 0.48951 0.0
C1041 C 0.13108 0.35598 0.46467 0.0
C1042 C 0.14571 0.35733 0.47443 0.0
C1043 C 0.17053 0.37184 0.50024 0.0
H1044 H 0.25407 0.38946 0.47332 0.0
H1045 H 0.2337 0.39143 0.49812 0.0
H1046 H 0.2096 0.34936 0.43587 0.0
H1047 H 0.18931 0.35102 0.46082 0.0
H1048 H 0.22583 0.34007 0.53156 0.0
H1049 H 0.20567 0.34528 0.51168 0.0
H1050 H 0.24005 0.38692 0.57148 0.0
H1051 H 0.22011 0.39229 0.5512 0.0
H1052 H 0.11386 0.34057 0.54605 0.0
H1053 H 0.13711 0.34526 0.52123 0.0
H1054 H 0.15184 0.38815 0.5821 0.0
H1055 H 0.17509 0.39298 0.55685 0.0
H1056 H 0.13293 0.3927 0.48807 0.0
H1057 H 0.15845 0.39482 0.50563 0.0
H1058 H 0.12356 0.34507 0.45326 0.0
H1059 H 0.14913 0.34735 0.47053 0.0
N1060 N 0.18314 0.3716 0.48812 0.0
N1061 N 0.18595 0.37215 0.53088 0.0
H1062 H 0.97699 0.38064 0.00784 0.0
H1063 H 0.96977 0.40438 0.12944 0.0
H1064 H 0.99076 0.35965 0.06019 0.0
H1065 H 0.96393 0.43128 0.07684 0.0
H1066 H 0.97238 0.38393 0.1044 0.0
H1067 H 0.96705 0.39525 0.03303 0.0
C1068 C 0.97773 0.37891 0.02462 0.0
C1069 C 0.98493 0.36909 0.03191 0.0
C1070 C 0.97037 0.3942 0.09835 0.0
C1071 C 0.97366 0.38586 0.06084 0.0
C1072 C 0.96878 0.4058 0.11263 0.0
C1073 C 0.96684 0.41966 0.10518 0.0
C1074 C 0.96994 0.39645 0.07647 0.0
C1075 C 0.96574 0.42097 0.08323 0.0
C1076 C 0.9721 0.38731 0.039 0.0
C1077 C 0.98547 0.36725 0.05385 0.0
N1078 N 0.96742 0.4096 0.06966 0.0
N1079 N 0.98006 0.37569 0.06754 0.0
H1080 H 0.65162 0.6245 0.07458 0.0
H1081 H 0.58063 0.52112 0.09411 0.0
H1082 H 0.63278 0.58291 0.02552 0.0
H1083 H 0.60538 0.56071 0.14488 0.0
H1084 H 0.60192 0.54304 0.06928 0.0
H1085 H 0.63728 0.60111 0.10104 0.0
C1086 C 0.64466 0.61044 0.06938 0.0
C1087 C 0.64317 0.60566 0.04776 0.0
C1088 C 0.6029 0.54691 0.08588 0.0
C1089 C 0.62661 0.57883 0.07797 0.0
C1090 C 0.59073 0.53441 0.10003 0.0
C1091 C 0.59118 0.53923 0.12147 0.0
C1092 C 0.61546 0.56448 0.09317 0.0
C1093 C 0.60462 0.55651 0.12843 0.0
C1094 C 0.63649 0.59709 0.08452 0.0
C1095 C 0.63413 0.58724 0.04198 0.0
N1096 N 0.61608 0.56864 0.11424 0.0
N1097 N 0.62599 0.57451 0.05697 0.0
H1098 H 0.39131 0.04178 0.05252 0.0
H1099 H 0.43391 0.99642 0.11739 0.0
H1100 H 0.36844 0.98429 0.05732 0.0
H1101 H 0.45479 0.0538 0.12035 0.0
H1102 H 0.41029 0.99224 0.09447 0.0
H1103 H 0.41514 0.04702 0.0765 0.0
C1104 C 0.39126 0.03029 0.05864 0.0
C1105 C 0.37787 0.01257 0.05287 0.0
C1106 C 0.41998 0.00577 0.10015 0.0
C1107 C 0.40504 0.01845 0.08013 0.0
C1108 C 0.43345 0.00816 0.11339 0.0
C1109 C 0.4463 0.02548 0.12103 0.0
C1110 C 0.4193 0.0208 0.09429 0.0
C1111 C 0.44523 0.04021 0.11474 0.0
C1112 C 0.40486 0.03328 0.0723 0.0
C1113 C 0.37846 0.99818 0.06127 0.0
N1114 N 0.43194 0.03754 0.10174 0.0
N1115 N 0.39181 0.00145 0.07439 0.0
H1116 H 0.33913 0.95132 0.97039 0.0
H1117 H 0.42213 0.99391 0.89236 0.0
H1118 H 0.36808 0.00708 0.95184 0.0
H1119 H 0.3887 0.93651 0.90141 0.0
H1120 H 0.40164 0.99858 0.91347 0.0
H1121 H 0.35606 0.94503 0.9444 0.0
C1122 C 0.34889 0.96218 0.96072 0.0
C1123 C 0.35231 0.97979 0.96347 0.0
C1124 C 0.39866 0.98492 0.91076 0.0
C1125 C 0.37176 0.97272 0.93388 0.0
C1126 C 0.41042 0.98228 0.89879 0.0
C1127 C 0.40717 0.96483 0.89533 0.0
C1128 C 0.3836 0.97002 0.91957 0.0
C1129 C 0.39165 0.95019 0.90372 0.0
C1130 C 0.35855 0.95858 0.94591 0.0
C1131 C 0.36507 0.99333 0.95045 0.0
N1132 N 0.38051 0.95312 0.91567 0.0
N1133 N 0.37442 0.98954 0.9364 0.0
H1134 H 0.0414 0.40486 0.97845 0.0
H1135 H 0.03954 0.43796 0.86215 0.0
H1136 H 0.02901 0.37107 0.9221 0.0
H1137 H 0.0433 0.46775 0.91964 0.0
H1138 H 0.03988 0.41506 0.88332 0.0
H1139 H 0.04657 0.42979 0.95653 0.0
C1140 C 0.03998 0.40273 0.96144 0.0
C1141 C 0.0346 0.38577 0.95213 0.0
C1142 C 0.04072 0.42666 0.89128 0.0
C1143 C 0.04039 0.41428 0.92693 0.0
C1144 C 0.04062 0.43977 0.87921 0.0
C1145 C 0.04125 0.45471 0.88916 0.0
C1146 C 0.04158 0.42855 0.91347 0.0
C1147 C 0.04249 0.4563 0.91133 0.0
C1148 C 0.04286 0.41697 0.94894 0.0
C1149 C 0.03301 0.38386 0.92999 0.0
N1150 N 0.04257 0.44337 0.92273 0.0
N1151 N 0.03577 0.3979 0.91815 0.0
H1152 H 0.60656 0.65558 0.96909 0.0
H1153 H 0.55805 0.56411 0.89867 0.0
H1154 H 0.62012 0.61478 0.96937 0.0
H1155 H 0.54569 0.6056 0.89455 0.0
H1156 H 0.58065 0.58262 0.92495 0.0
H1157 H 0.58386 0.63752 0.94233 0.0
C1158 C 0.60477 0.64284 0.96356 0.0
C1159 C 0.61527 0.63669 0.9715 0.0
C1160 C 0.57304 0.58774 0.9183 0.0
C1161 C 0.58936 0.616 0.94092 0.0
C1162 C 0.56019 0.57721 0.90314 0.0
C1163 C 0.55001 0.58335 0.89424 0.0
C1164 C 0.57578 0.60458 0.92474 0.0
C1165 C 0.55313 0.60027 0.9011 0.0
C1166 C 0.59182 0.63255 0.94826 0.0
C1167 C 0.61236 0.62009 0.96372 0.0
N1168 N 0.56575 0.61031 0.91593 0.0
N1169 N 0.5997 0.61035 0.94891 0.0
H1170 H 0.99449 0.63313 0.94968 0.0
H1171 H 0.0603 0.60465 0.90205 0.0
H1172 H 0.04593 0.65233 0.97679 0.0
H1173 H 0.004 0.5749 0.89066 0.0
H1174 H 0.05714 0.62601 0.92506 0.0
H1175 H -0.00014 0.61571 0.92324 0.0
C1176 C 0.00699 0.6338 0.95 0.0
C1177 C 0.0197 0.64406 0.96566 0.0
C1178 C 0.04552 0.61484 0.91743 0.0
C1179 C 0.02591 0.62406 0.93533 0.0
C1180 C 0.04732 0.60274 0.90427 0.0
C1181 C 0.03235 0.58796 0.89464 0.0
C1182 C 0.02868 0.61223 0.92066 0.0
C1183 C 0.01583 0.58599 0.89804 0.0
C1184 C 0.01002 0.62379 0.93491 0.0
C1185 C 0.03571 0.64449 0.96512 0.0
N1186 N 0.01443 0.59798 0.91076 0.0
N1187 N 0.03834 0.63453 0.95024 0.0
H1188 H 0.36434 0.40817 0.9822 0.0
H1189 H 0.39338 0.43666 0.863 0.0
H1190 H 0.33435 0.37489 0.92833 0.0
H1191 H 0.41657 0.47384 0.91631 0.0
H1192 H 0.37101 0.41416 0.88657 0.0
H1193 H 0.38288 0.4328 0.95839 0.0
C1194 C 0.36153 0.4061 0.96538 0.0
C1195 C 0.34785 0.38938 0.95723 0.0
C1196 C 0.38087 0.4273 0.89309 0.0
C1197 C 0.36916 0.41748 0.92986 0.0
C1198 C 0.39368 0.4401 0.87967 0.0
C1199 C 0.40691 0.45707 0.88776 0.0
C1200 C 0.38141 0.43142 0.91484 0.0
C1201 C 0.40656 0.46094 0.90941 0.0
C1202 C 0.37212 0.42019 0.95179 0.0
C1203 C 0.34477 0.38751 0.93531 0.0
N1204 N 0.39414 0.44813 0.92225 0.0
N1205 N 0.35548 0.40132 0.92236 0.0
H1206 H 0.63149 0.99804 0.93275 0.0
H1207 H 0.52892 0.93041 0.90653 0.0
H1208 H 0.59846 0.95068 0.96966 0.0
H1209 H 0.55856 0.98674 0.89067 0.0
H1210 H 0.55524 0.93474 0.92473 0.0
H1211 H 0.6058 0.99082 0.91162 0.0
C1212 C 0.61887 0.98599 0.9363 0.0
C1213 C 0.6171 0.97505 0.95317 0.0
C1214 C 0.55592 0.9461 0.91721 0.0
C1215 C 0.58758 0.96675 0.92895 0.0
C1216 C 0.541 0.94364 0.90682 0.0
C1217 C 0.54161 0.9583 0.89732 0.0
C1218 C 0.57158 0.96325 0.91765 0.0
C1219 C 0.55751 0.97516 0.89807 0.0
C1220 C 0.60419 0.98194 0.92426 0.0
C1221 C 0.60039 0.95956 0.95689 0.0
N1222 N 0.57187 0.97716 0.90801 0.0
N1223 N 0.58621 0.95589 0.94491 0.0
H1224 H 0.6217 0.02722 0.01502 0.0
H1225 H 0.59184 0.02177 0.13607 0.0
H1226 H 0.63735 0.00536 0.06452 0.0
H1227 H 0.57328 0.04042 0.08614 0.0
H1228 H 0.61113 0.01874 0.11067 0.0
H1229 H 0.60667 0.03546 0.04147 0.0
C1230 C 0.62214 0.02432 0.03147 0.0
C1231 C 0.63066 0.01543 0.03752 0.0
C1232 C 0.60293 0.02361 0.10528 0.0
C1233 C 0.6134 0.02474 0.06786 0.0
C1234 C 0.59184 0.02526 0.11976 0.0
C1235 C 0.58079 0.03119 0.11319 0.0
C1236 C 0.60296 0.02788 0.08401 0.0
C1237 C 0.58163 0.03588 0.09194 0.0
C1238 C 0.61351 0.02899 0.04656 0.0
C1239 C 0.63083 0.01206 0.05908 0.0
N1240 N 0.59241 0.03399 0.07808 0.0
N1241 N 0.62222 0.0166 0.07343 0.0
H1242 H 0.96236 0.60554 0.03226 0.0
H1243 H 0.96615 0.57093 0.14677 0.0
H1244 H 0.97812 0.63937 0.08893 0.0
H1245 H 0.95814 0.54049 0.08849 0.0
H1246 H 0.96587 0.59441 0.12677 0.0
H1247 H 0.95585 0.57989 0.05364 0.0
C1248 C 0.96425 0.60755 0.04924 0.0
C1249 C 0.97102 0.62471 0.05878 0.0
C1250 C 0.96404 0.58253 0.11839 0.0
C1251 C 0.9637 0.59536 0.08335 0.0
C1252 C 0.96411 0.56909 0.1298 0.0
C1253 C 0.96234 0.55383 0.11924 0.0
C1254 C 0.96209 0.58064 0.09628 0.0
C1255 C 0.95987 0.55219 0.09722 0.0
C1256 C 0.96058 0.59288 0.06144 0.0
C1257 C 0.97307 0.62643 0.08088 0.0
N1258 N 0.9599 0.56546 0.08647 0.0
N1259 N 0.96959 0.61197 0.0924 0.0
H1260 H 0.36378 0.36027 0.0676 0.0
H1261 H 0.46743 0.42251 0.09036 0.0
H1262 H 0.40397 0.38149 0.01902 0.0
H1263 H 0.42837 0.39984 0.13998 0.0
H1264 H 0.44434 0.40464 0.06422 0.0
H1265 H 0.38705 0.37181 0.09449 0.0
C1266 C 0.37748 0.3672 0.06257 0.0
C1267 C 0.38194 0.37012 0.04102 0.0
C1268 C 0.44077 0.40338 0.08081 0.0
C1269 C 0.4086 0.38335 0.07169 0.0
C1270 C 0.45396 0.41359 0.09572 0.0
C1271 C 0.44971 0.41277 0.11728 0.0
C1272 C 0.42313 0.39238 0.08746 0.0
C1273 C 0.43214 0.40084 0.12347 0.0
C1274 C 0.39075 0.37377 0.07793 0.0
C1275 C 0.3999 0.37909 0.03543 0.0
N1276 N 0.4194 0.39127 0.10858 0.0
N1277 N 0.41255 0.3855 0.05066 0.0
H1278 H 0.6313 0.71187 0.35647 0.0
H1279 H 0.63576 0.7398 0.47902 0.0
H1280 H 0.65124 0.69378 0.40549 0.0
H1281 H 0.61664 0.75878 0.4301 0.0
H1282 H 0.63895 0.72064 0.45269 0.0
H1283 H 0.62313 0.72676 0.38357 0.0
C1284 C 0.63382 0.71089 0.37293 0.0
C1285 C 0.64212 0.7017 0.37868 0.0
C1286 C 0.63394 0.72889 0.44772 0.0
C1287 C 0.63287 0.71879 0.40979 0.0
C1288 C 0.63218 0.73989 0.46274 0.0
C1289 C 0.62607 0.75104 0.45673 0.0
C1290 C 0.62963 0.72906 0.42646 0.0
C1291 C 0.62131 0.75034 0.43547 0.0
C1292 C 0.62917 0.71942 0.38841 0.0
C1293 C 0.64499 0.70082 0.40029 0.0
N1294 N 0.62333 0.73966 0.42108 0.0
N1295 N 0.64049 0.70937 0.41502 0.0
H1296 H 0.32324 0.96282 0.42474 0.0
H1297 H 0.23428 0.8657 0.43356 0.0
H1298 H 0.2902 0.93185 0.37145 0.0
H1299 H 0.26664 0.89606 0.48748 0.0
H1300 H 0.25624 0.8887 0.41028 0.0
H1301 H 0.30437 0.93746 0.44763 0.0
C1302 C 0.31212 0.95064 0.41781 0.0
C1303 C 0.30821 0.94953 0.39616 0.0
C1304 C 0.25864 0.89032 0.42718 0.0
C1305 C 0.28654 0.9205 0.42228 0.0
C1306 C 0.24606 0.87721 0.44049 0.0
C1307 C 0.24854 0.87909 0.46251 0.0
C1308 C 0.27382 0.90551 0.43591 0.0
C1309 C 0.26422 0.89408 0.47059 0.0
C1310 C 0.30135 0.93618 0.4309 0.0
C1311 C 0.29367 0.93338 0.38806 0.0
N1312 N 0.2762 0.90682 0.4573 0.0
N1313 N 0.28331 0.91958 0.40114 0.0
H1314 H 0.0579 0.37656 0.38123 0.0
H1315 H 0.09295 0.33891 0.46772 0.0
H1316 H 0.02323 0.33033 0.41898 0.0
H1317 H 0.12398 0.39419 0.44802 0.0
H1318 H 0.06744 0.33526 0.44882 0.0
H1319 H 0.08257 0.38339 0.40458 0.0
C1320 C 0.05543 0.36797 0.39454 0.0
C1321 C 0.0385 0.35276 0.39805 0.0
C1322 C 0.07977 0.34825 0.44877 0.0
C1323 C 0.06665 0.36037 0.42456 0.0
C1324 C 0.09432 0.35029 0.45945 0.0
C1325 C 0.11054 0.36683 0.45929 0.0
C1326 C 0.08152 0.36277 0.43751 0.0
C1327 C 0.11164 0.38124 0.44851 0.0
C1328 C 0.0695 0.37189 0.40786 0.0
C1329 C 0.03605 0.34214 0.41558 0.0
N1330 N 0.09736 0.37882 0.4378 0.0
N1331 N 0.05 0.34602 0.428 0.0
H1332 H 0.03938 0.30332 0.33875 0.0
H1333 H 0.06252 0.29342 0.21814 0.0
H1334 H 0.02054 0.31859 0.28562 0.0
H1335 H 0.08685 0.28568 0.27197 0.0
H1336 H 0.04354 0.29828 0.2423 0.0
H1337 H 0.05336 0.29249 0.31416 0.0
C1338 C 0.03805 0.30426 0.32191 0.0
C1339 C 0.02892 0.31205 0.31425 0.0
C1340 C 0.05294 0.29538 0.24881 0.0
C1341 C 0.04497 0.29971 0.28597 0.0
C1342 C 0.06369 0.29249 0.23503 0.0
C1343 C 0.07638 0.28931 0.2431 0.0
C1344 C 0.05486 0.29499 0.27079 0.0
C1345 C 0.07744 0.28839 0.26511 0.0
C1346 C 0.04607 0.2981 0.30786 0.0
C1347 C 0.02756 0.31281 0.29223 0.0
N1348 N 0.06689 0.29131 0.27818 0.0
N1349 N 0.03561 0.30683 0.27887 0.0
H1350 H 0.70191 0.73549 0.32102 0.0
H1351 H 0.71103 0.77114 0.20354 0.0
H1352 H 0.69046 0.70163 0.26489 0.0
H1353 H 0.72028 0.80375 0.26024 0.0
H1354 H 0.70738 0.74662 0.22536 0.0
H1355 H 0.71251 0.76161 0.2987 0.0
C1356 C 0.70177 0.73356 0.30399 0.0
C1357 C 0.69509 0.71629 0.29482 0.0
C1358 C 0.71038 0.75921 0.23301 0.0
C1359 C 0.70712 0.74619 0.2691 0.0
C1360 C 0.71256 0.77324 0.22055 0.0
C1361 C 0.71574 0.78942 0.23013 0.0
C1362 C 0.71141 0.76141 0.25517 0.0
C1363 C 0.71749 0.79137 0.25224 0.0
C1364 C 0.70782 0.7485 0.29123 0.0
C1365 C 0.69538 0.71467 0.27266 0.0
N1366 N 0.71517 0.7775 0.264 0.0
N1367 N 0.70112 0.7294 0.26054 0.0
H1368 H 0.25641 0.96538 0.3344 0.0
H1369 H 0.23208 0.9437 0.21126 0.0
H1370 H 0.29543 0.97974 0.28507 0.0
H1371 H 0.19447 0.91849 0.26192 0.0
H1372 H 0.25509 0.96243 0.23759 0.0
H1373 H 0.23329 0.95357 0.3074 0.0
C1374 C 0.26015 0.96623 0.31789 0.0
C1375 C 0.27786 0.97333 0.31201 0.0
C1376 C 0.24174 0.95294 0.2429 0.0
C1377 C 0.25145 0.95983 0.28102 0.0
C1378 C 0.22863 0.94237 0.2279 0.0
C1379 C 0.21147 0.92944 0.23451 0.0
C1380 C 0.23755 0.95064 0.26457 0.0
C1381 C 0.20764 0.92814 0.25624 0.0
C1382 C 0.24694 0.95945 0.30248 0.0
C1383 C 0.28192 0.97418 0.29034 0.0
N1384 N 0.2206 0.93852 0.2705 0.0
N1385 N 0.2688 0.96738 0.27563 0.0
H1386 H 0.69634 0.95512 0.33855 0.0
H1387 H 0.70833 0.93746 0.21656 0.0
H1388 H 0.68382 0.9783 0.28742 0.0
H1389 H 0.72041 0.9146 0.2684 0.0
H1390 H 0.7033 0.95603 0.24205 0.0
H1391 H 0.70896 0.94353 0.31299 0.0
C1392 C 0.69636 0.95789 0.32194 0.0
C1393 C 0.6888 0.96749 0.31508 0.0
C1394 C 0.70726 0.94711 0.24782 0.0
C1395 C 0.70316 0.95415 0.28565 0.0
C1396 C 0.71024 0.9366 0.23328 0.0
C1397 C 0.71454 0.92431 0.24043 0.0
C1398 C 0.70861 0.94526 0.26962 0.0
C1399 C 0.71676 0.92365 0.26225 0.0
C1400 C 0.70359 0.95128 0.30734 0.0
C1401 C 0.68938 0.97084 0.29339 0.0
N1402 N 0.7136 0.93383 0.27607 0.0
N1403 N 0.69625 0.964 0.2794 0.0
H1404 H 0.03136 0.73527 0.31396 0.0
H1405 H 0.06038 0.77373 0.19717 0.0
H1406 H 0.00864 0.70244 0.25718 0.0
H1407 H 0.08564 0.80438 0.25444 0.0
H1408 H 0.0388 0.74848 0.2187 0.0
H1409 H 0.04881 0.76165 0.29221 0.0
C1410 C 0.02994 0.73361 0.2969 0.0
C1411 C 0.01863 0.71656 0.28738 0.0
C1412 C 0.049 0.76078 0.22654 0.0
C1413 C 0.0387 0.7468 0.26232 0.0
C1414 C 0.06124 0.77522 0.21427 0.0
C1415 C 0.07492 0.7911 0.22404 0.0
C1416 C 0.05042 0.76229 0.24872 0.0
C1417 C 0.07551 0.79227 0.24625 0.0
C1418 C 0.03994 0.74871 0.28448 0.0
C1419 C 0.01727 0.7153 0.2652 0.0
N1420 N 0.0635 0.77804 0.25781 0.0
N1421 N 0.02729 0.73021 0.2534 0.0
H1422 H 0.26973 0.28434 0.3006 0.0
H1423 H 0.23044 0.31924 0.21656 0.0
H1424 H 0.30261 0.32916 0.26013 0.0
H1425 H 0.20105 0.26397 0.23648 0.0
H1426 H 0.25681 0.32353 0.23394 0.0
H1427 H 0.24408 0.27657 0.27854 0.0
C1428 C 0.27161 0.2924 0.28695 0.0
C1429 C 0.28832 0.30752 0.28231 0.0
C1430 C 0.24466 0.3104 0.23438 0.0
C1431 C 0.25906 0.29887 0.25731 0.0
C1432 C 0.22962 0.308 0.22458 0.0
C1433 C 0.21362 0.29127 0.22525 0.0
C1434 C 0.24361 0.29606 0.24528 0.0
C1435 C 0.21321 0.27706 0.23565 0.0
C1436 C 0.25697 0.28794 0.27438 0.0
C1437 C 0.28999 0.31744 0.26439 0.0
N1438 N 0.22796 0.27983 0.24554 0.0
N1439 N 0.27551 0.3131 0.25274 0.0
H1440 H 0.30651 0.34383 0.39476 0.0
H1441 H 0.2324 0.36866 0.40947 0.0
H1442 H 0.28014 0.35124 0.34285 0.0
H1443 H 0.26198 0.36654 0.46156 0.0
H1444 H 0.2509 0.36374 0.38479 0.0
H1445 H 0.29158 0.35362 0.41947 0.0
C1446 C 0.29768 0.34764 0.38854 0.0
C1447 C 0.29446 0.34658 0.3667 0.0
C1448 C 0.25346 0.36447 0.4016 0.0
C1449 C 0.27729 0.3577 0.39489 0.0
C1450 C 0.24284 0.3672 0.41569 0.0
C1451 C 0.24557 0.36784 0.43759 0.0
C1452 C 0.26683 0.3622 0.40943 0.0
C1453 C 0.25948 0.36619 0.44479 0.0
C1454 C 0.28917 0.35323 0.40266 0.0
C1455 C 0.28295 0.35174 0.35954 0.0
N1456 N 0.2695 0.36326 0.43074 0.0
N1457 N 0.2747 0.35695 0.3736 0.0
H1458 H 0.6309 0.93361 0.37337 0.0
H1459 H 0.63359 0.90562 0.49184 0.0
H1460 H 0.64452 0.96992 0.42756 0.0
H1461 H 0.61572 0.8682 0.43837 0.0
H1462 H 0.63598 0.92889 0.46888 0.0
H1463 H 0.62336 0.90898 0.39718 0.0
C1464 C 0.63215 0.93638 0.39029 0.0
C1465 C 0.63849 0.95391 0.39846 0.0
C1466 C 0.63139 0.91555 0.46218 0.0
C1467 C 0.63001 0.92576 0.42583 0.0
C1468 C 0.63011 0.90229 0.47527 0.0
C1469 C 0.62457 0.88498 0.46697 0.0
C1470 C 0.62724 0.91154 0.44058 0.0
C1471 C 0.61995 0.88132 0.44546 0.0
C1472 C 0.62784 0.9223 0.40389 0.0
C1473 C 0.63977 0.95665 0.42053 0.0
N1474 N 0.62154 0.89453 0.43297 0.0
N1475 N 0.63572 0.94277 0.43343 0.0
H1476 H 0.02188 0.72247 0.40768 0.0
H1477 H 0.10838 0.73429 0.46152 0.0
H1478 H 0.04558 0.69232 0.38696 0.0
H1479 H 0.08886 0.76965 0.47378 0.0
H1480 H 0.08312 0.71572 0.43785 0.0
H1481 H 0.04402 0.73684 0.4356 0.0
C1482 C 0.03169 0.71878 0.40906 0.0
C1483 C 0.03198 0.7063 0.39481 0.0
C1484 C 0.08432 0.72748 0.44585 0.0
C1485 C 0.05745 0.72278 0.42682 0.0
C1486 C 0.09865 0.73799 0.45943 0.0
C1487 C 0.10076 0.7536 0.46943 0.0
C1488 C 0.072 0.73258 0.44241 0.0
C1489 C 0.08786 0.75788 0.4661 0.0
C1490 C 0.04435 0.72702 0.42502 0.0
C1491 C 0.04494 0.70197 0.39751 0.0
N1492 N 0.07408 0.74748 0.45283 0.0
N1493 N 0.05725 0.71029 0.41314 0.0
H1494 H 0.31982 0.02743 0.73809 0.0
H1495 H 0.28 0.08985 0.76001 0.0
H1496 H 0.30106 0.04649 0.6888 0.0
H1497 H 0.30083 0.07253 0.80881 0.0
H1498 H 0.28416 0.07097 0.73423 0.0
H1499 H 0.30965 0.04087 0.76457 0.0
C1500 C 0.31343 0.03432 0.73282 0.0
C1501 C 0.31147 0.036 0.71116 0.0
C1502 C 0.28768 0.07117 0.75061 0.0
C1503 C 0.29985 0.05151 0.74146 0.0
C1504 C 0.28518 0.08185 0.76538 0.0
C1505 C 0.2902 0.08289 0.78659 0.0
C1506 C 0.29526 0.06145 0.75707 0.0
C1507 C 0.29706 0.07239 0.79256 0.0
C1508 C 0.30763 0.042 0.74797 0.0
C1509 C 0.30297 0.04497 0.70531 0.0
N1510 N 0.2995 0.06222 0.77786 0.0
N1511 N 0.2976 0.05252 0.72037 0.0
H1512 H 0.95331 0.3 0.74669 0.0
H1513 H 0.9332 0.2062 0.79177 0.0
H1514 H 0.97674 0.27124 0.72004 0.0
H1515 H 0.90215 0.22997 0.80648 0.0
H1516 H 0.95123 0.23094 0.76768 0.0
H1517 H 0.93675 0.27572 0.7714 0.0
C1518 C 0.95504 0.2886 0.74607 0.0
C1519 C 0.9664 0.28764 0.73119 0.0
C1520 C 0.94048 0.23072 0.77625 0.0
C1521 C 0.94737 0.25966 0.75956 0.0
C1522 C 0.93013 0.21656 0.78993 0.0
C1523 C 0.91613 0.21598 0.80129 0.0
C1524 C 0.93688 0.24444 0.77399 0.0
C1525 C 0.91298 0.22996 0.79845 0.0
C1526 C 0.94552 0.27469 0.76018 0.0
C1527 C 0.96809 0.2725 0.7312 0.0
N1528 N 0.92326 0.24358 0.78514 0.0
N1529 N 0.95866 0.25908 0.74518 0.0
H1530 H 0.73639 0.71126 0.70738 0.0
H1531 H 0.77052 0.71451 0.82461 0.0
H1532 H 0.70252 0.69439 0.76244 0.0
H1533 H 0.80446 0.73206 0.76966 0.0
H1534 H 0.746 0.70978 0.80261 0.0
H1535 H 0.76199 0.72185 0.73041 0.0
C1536 C 0.73434 0.70993 0.72434 0.0
C1537 C 0.71724 0.70174 0.73297 0.0
C1538 C 0.75884 0.71481 0.79538 0.0
C1539 C 0.74653 0.71375 0.75944 0.0
C1540 C 0.77282 0.71743 0.80792 0.0
C1541 C 0.78952 0.72351 0.79891 0.0
C1542 C 0.76152 0.71818 0.77363 0.0
C1543 C 0.79184 0.72743 0.77729 0.0
C1544 C 0.74898 0.71598 0.73749 0.0
C1545 C 0.71543 0.7005 0.75506 0.0
N1546 N 0.77795 0.72453 0.76535 0.0
N1547 N 0.72987 0.70628 0.76752 0.0
H1548 H 0.68525 0.61828 0.64942 0.0
H1549 H 0.76379 0.65732 0.56534 0.0
H1550 H 0.71268 0.67306 0.62748 0.0
H1551 H 0.72599 0.60002 0.57024 0.0
H1552 H 0.74651 0.66321 0.59069 0.0
H1553 H 0.70122 0.61111 0.62287 0.0
C1554 C 0.69456 0.62877 0.639 0.0
C1555 C 0.69767 0.64631 0.64072 0.0
C1556 C 0.74193 0.64934 0.58615 0.0
C1557 C 0.71603 0.63826 0.6106 0.0
C1558 C 0.75175 0.64594 0.57155 0.0
C1559 C 0.74627 0.62812 0.56536 0.0
C1560 C 0.72657 0.63484 0.59497 0.0
C1561 C 0.73082 0.61396 0.57461 0.0
C1562 C 0.70363 0.62465 0.62386 0.0
C1563 C 0.70984 0.65936 0.62678 0.0
N1564 N 0.72151 0.61762 0.58899 0.0
N1565 N 0.71864 0.65509 0.61244 0.0
H1566 H 0.36341 0.03808 0.59835 0.0
H1567 H 0.39026 0.14105 0.59307 0.0
H1568 H 0.3713 0.07224 0.65323 0.0
H1569 H 0.38091 0.10708 0.53763 0.0
H1570 H 0.38691 0.11696 0.61519 0.0
H1571 H 0.37328 0.06407 0.57578 0.0
C1572 C 0.36739 0.05108 0.60568 0.0
C1573 C 0.36634 0.05293 0.62772 0.0
C1574 C 0.38573 0.11479 0.59818 0.0
C1575 C 0.3776 0.0827 0.60196 0.0
C1576 C 0.3876 0.12853 0.58555 0.0
C1577 C 0.38563 0.12597 0.56351 0.0
C1578 C 0.38175 0.09827 0.58875 0.0
C1579 C 0.38254 0.10962 0.55457 0.0
C1580 C 0.37301 0.0659 0.59277 0.0
C1581 C 0.37174 0.07012 0.63632 0.0
N1582 N 0.38049 0.09629 0.56724 0.0
N1583 N 0.37699 0.08427 0.62343 0.0
H1584 H 0.93035 0.30752 0.6545 0.0
H1585 H 0.9014 0.24662 0.54976 0.0
H1586 H 0.96601 0.29714 0.61892 0.0
H1587 H 0.87428 0.27283 0.57216 0.0
H1588 H 0.92515 0.2648 0.57526 0.0
H1589 H 0.90933 0.29457 0.62501 0.0
C1590 C 0.9338 0.30261 0.64045 0.0
C1591 C 0.94989 0.30328 0.63923 0.0
C1592 C 0.91414 0.26678 0.57443 0.0
C1593 C 0.9259 0.28838 0.60557 0.0
C1594 C 0.90061 0.2564 0.55992 0.0
C1595 C 0.88593 0.25826 0.55899 0.0
C1596 C 0.91278 0.27883 0.58838 0.0
C1597 C 0.88547 0.2711 0.5724 0.0
C1598 C 0.92184 0.29531 0.6236 0.0
C1599 C 0.95374 0.29685 0.62058 0.0
N1600 N 0.8986 0.28075 0.58681 0.0
N1601 N 0.94173 0.28948 0.60459 0.0
H1602 H 0.36859 0.29801 0.66233 0.0
H1603 H 0.37494 0.27148 0.54178 0.0
H1604 H 0.34658 0.31056 0.60999 0.0
H1605 H 0.38998 0.25302 0.59542 0.0
H1606 H 0.3696 0.29074 0.56576 0.0
H1607 H 0.38147 0.28633 0.63728 0.0
C1608 C 0.36658 0.29846 0.64555 0.0
C1609 C 0.35626 0.30503 0.63827 0.0
C1610 C 0.37428 0.28264 0.57224 0.0
C1611 C 0.37094 0.29159 0.60945 0.0
C1612 C 0.37744 0.27176 0.55856 0.0
C1613 C 0.38269 0.26051 0.56671 0.0
C1614 C 0.37648 0.28228 0.59416 0.0
C1615 C 0.38564 0.26127 0.58856 0.0
C1616 C 0.37395 0.29178 0.63124 0.0
C1617 C 0.35429 0.30545 0.61632 0.0
N1618 N 0.38235 0.27185 0.60154 0.0
N1619 N 0.36141 0.29863 0.60268 0.0
H1620 H 0.6701 0.04121 0.59728 0.0
H1621 H 0.74954 0.14432 0.59319 0.0
H1622 H 0.69528 0.07522 0.65263 0.0
H1623 H 0.72381 0.1114 0.5374 0.0
H1624 H 0.72756 0.11999 0.61516 0.0
H1625 H 0.68727 0.06752 0.57506 0.0
C1626 C 0.67907 0.05424 0.60479 0.0
C1627 C 0.6814 0.05596 0.62684 0.0
C1628 C 0.72659 0.11811 0.59811 0.0
C1629 C 0.70116 0.08608 0.6015 0.0
C1630 C 0.73918 0.13198 0.58558 0.0
C1631 C 0.73861 0.12979 0.56347 0.0
C1632 C 0.71338 0.10182 0.5885 0.0
C1633 C 0.72471 0.11366 0.5544 0.0
C1634 C 0.68889 0.06925 0.59208 0.0
C1635 C 0.69316 0.0732 0.63569 0.0
N1636 N 0.71275 0.10019 0.56697 0.0
N1637 N 0.7027 0.08752 0.62298 0.0
H1638 H 0.92404 0.63025 0.6485 0.0
H1639 H 0.89279 0.63016 0.53036 0.0
H1640 H 0.95911 0.64804 0.59453 0.0
H1641 H 0.85777 0.6127 0.58433 0.0
H1642 H 0.91678 0.63467 0.5532 0.0
H1643 H 0.89913 0.62139 0.62483 0.0
C1644 C 0.9265 0.63215 0.63165 0.0
C1645 C 0.94373 0.64002 0.62351 0.0
C1646 C 0.90383 0.62974 0.56004 0.0
C1647 C 0.91525 0.63 0.59632 0.0
C1648 C 0.89014 0.62725 0.54702 0.0
C1649 C 0.87326 0.62117 0.55546 0.0
C1650 C 0.90067 0.6262 0.58173 0.0
C1651 C 0.87052 0.61729 0.5771 0.0
C1652 C 0.91225 0.62712 0.61814 0.0
C1653 C 0.94608 0.64212 0.60153 0.0
N1654 N 0.88411 0.61999 0.5895 0.0
N1655 N 0.93202 0.63725 0.58874 0.0
H1656 H 0.94489 0.69683 0.6874 0.0
H1657 H 0.92936 0.70781 0.81051 0.0
H1658 H 0.96657 0.6816 0.73749 0.0
H1659 H 0.90885 0.72424 0.76037 0.0
H1660 H 0.94479 0.70005 0.7841 0.0
H1661 H 0.93334 0.70888 0.71395 0.0
C1662 C 0.94731 0.6961 0.70398 0.0
C1663 C 0.9566 0.68806 0.71023 0.0
C1664 C 0.93703 0.70548 0.77888 0.0
C1665 C 0.94335 0.70181 0.74074 0.0
C1666 C 0.92816 0.70985 0.79394 0.0
C1667 C 0.91769 0.71656 0.78763 0.0
C1668 C 0.93535 0.70774 0.7573 0.0
C1669 C 0.91686 0.71922 0.76598 0.0
C1670 C 0.94072 0.70301 0.71914 0.0
C1671 C 0.95941 0.6876 0.73194 0.0
N1672 N 0.92545 0.71466 0.75159 0.0
N1673 N 0.95271 0.69426 0.74642 0.0
H1674 H 0.29491 0.26339 0.6922 0.0
H1675 H 0.29194 0.23476 0.81103 0.0
H1676 H 0.29498 0.29515 0.74595 0.0
H1677 H 0.27751 0.19733 0.75795 0.0
H1678 H 0.29272 0.25695 0.78748 0.0
H1679 H 0.28795 0.23879 0.71585 0.0
C1680 C 0.29328 0.26512 0.70895 0.0
C1681 C 0.29566 0.28141 0.71713 0.0
C1682 C 0.28919 0.24382 0.781 0.0
C1683 C 0.28789 0.25338 0.74431 0.0
C1684 C 0.28883 0.2312 0.79441 0.0
C1685 C 0.28478 0.21426 0.78636 0.0
C1686 C 0.28573 0.23957 0.75932 0.0
C1687 C 0.28064 0.21023 0.76478 0.0
C1688 C 0.28927 0.25106 0.72244 0.0
C1689 C 0.2933 0.28286 0.73895 0.0
N1690 N 0.28144 0.22289 0.75194 0.0
N1691 N 0.28977 0.26911 0.75182 0.0
H1692 H 0.70307 0.07133 0.73821 0.0
H1693 H 0.78168 0.06683 0.79164 0.0
H1694 H 0.71522 0.03075 0.72102 0.0
H1695 H 0.77033 0.10849 0.80543 0.0
H1696 H 0.75692 0.05267 0.76658 0.0
H1697 H 0.72705 0.08426 0.76397 0.0
C1698 C 0.71077 0.0651 0.73986 0.0
C1699 C 0.70714 0.04995 0.72737 0.0
C1700 C 0.75983 0.06488 0.77516 0.0
C1701 C 0.73474 0.06475 0.75695 0.0
C1702 C 0.774 0.07301 0.7894 0.0
C1703 C 0.77808 0.08886 0.80073 0.0
C1704 C 0.74968 0.07267 0.7722 0.0
C1705 C 0.76753 0.09613 0.79736 0.0
C1706 C 0.72449 0.07251 0.7546 0.0
C1707 C 0.71757 0.04247 0.73028 0.0
N1708 N 0.75388 0.08801 0.7834 0.0
N1709 N 0.73093 0.04996 0.74476 0.0
H1710 H 0.02914 0.34017 0.08517 0.0
H1711 H 0.09837 0.3081 0.08644 0.0
H1712 H 0.0568 0.33818 0.02944 0.0
H1713 H 0.07328 0.31395 0.14245 0.0
H1714 H 0.08307 0.3187 0.06515 0.0
H1715 H 0.04531 0.33064 0.10631 0.0
C1716 C 0.03868 0.33781 0.07737 0.0
C1717 C 0.04158 0.33994 0.05547 0.0
C1718 C 0.08092 0.31768 0.0821 0.0
C1719 C 0.06012 0.32888 0.07964 0.0
C1720 C 0.08954 0.31149 0.09424 0.0
C1721 C 0.08707 0.31009 0.11627 0.0
C1722 C 0.06967 0.32244 0.09202 0.0
C1723 C 0.07571 0.31498 0.12556 0.0
C1724 C 0.04792 0.33235 0.08948 0.0
C1725 C 0.05415 0.33672 0.04627 0.0
N1726 N 0.06742 0.32089 0.11339 0.0
N1727 N 0.06291 0.33127 0.0584 0.0
H1728 H 0.67949 0.72532 0.01082 0.0
H1729 H 0.6874 0.76185 0.13002 0.0
H1730 H 0.66049 0.69082 0.06493 0.0
H1731 H 0.69626 0.79465 0.07578 0.0
H1732 H 0.67843 0.73588 0.10626 0.0
H1733 H 0.68649 0.75114 0.03419 0.0
C1734 C 0.67668 0.72315 0.02757 0.0
C1735 C 0.66947 0.7059 0.03594 0.0
C1736 C 0.68229 0.74875 0.09955 0.0
C1737 C 0.67759 0.73537 0.06275 0.0
C1738 C 0.68736 0.76359 0.11312 0.0
C1739 C 0.69258 0.78049 0.10491 0.0
C1740 C 0.68254 0.7508 0.07757 0.0
C1741 C 0.69259 0.78196 0.08282 0.0
C1742 C 0.68069 0.73789 0.0409 0.0
C1743 C 0.66607 0.70387 0.05777 0.0
N1744 N 0.68768 0.76732 0.06992 0.0
N1745 N 0.67027 0.71845 0.07043 0.0
H1746 H 0.27052 0.95974 0.00496 0.0
H1747 H 0.23874 0.93667 0.12547 0.0
H1748 H 0.30569 0.9817 0.05882 0.0
H1749 H 0.2037 0.91135 0.07194 0.0
H1750 H 0.26334 0.95367 0.10111 0.0
H1751 H 0.24571 0.94218 0.02907 0.0
C1752 C 0.27304 0.96083 0.02182 0.0
C1753 C 0.29021 0.97223 0.02987 0.0
C1754 C 0.25027 0.9444 0.09467 0.0
C1755 C 0.26191 0.95226 0.05752 0.0
C1756 C 0.23622 0.93463 0.10859 0.0
C1757 C 0.21911 0.92255 0.10077 0.0
C1758 C 0.24723 0.94211 0.07272 0.0
C1759 C 0.21661 0.92069 0.07871 0.0
C1760 C 0.25887 0.95082 0.03558 0.0
C1761 C 0.29269 0.97311 0.05188 0.0
N1762 N 0.23051 0.93035 0.06547 0.0
N1763 N 0.27871 0.96331 0.0649 0.0
H1764 H 0.29891 0.03777 0.00047 0.0
H1765 H 0.33733 0.11036 0.90861 0.0
H1766 H 0.35022 0.05836 0.97171 0.0
H1767 H 0.28321 0.0835 0.93031 0.0
H1768 H 0.34307 0.09319 0.93362 0.0
H1769 H 0.29384 0.05648 0.97715 0.0
C1770 C 0.30918 0.04634 0.9894 0.0
C1771 C 0.32499 0.04644 0.988 0.0
C1772 C 0.32993 0.09103 0.93291 0.0
C1773 C 0.31921 0.0678 0.96116 0.0
C1774 C 0.32667 0.10087 0.91869 0.0
C1775 C 0.30976 0.09834 0.91737 0.0
C1776 C 0.31623 0.07862 0.94603 0.0
C1777 C 0.29638 0.08571 0.93064 0.0
C1778 C 0.30623 0.05695 0.976 0.0
C1779 C 0.33781 0.0578 0.9733 0.0
N1780 N 0.29991 0.07636 0.94446 0.0
N1781 N 0.33462 0.06798 0.96043 0.0
H1782 H 0.99051 0.30781 0.95444 0.0
H1783 H 0.91326 0.20368 0.95828 0.0
H1784 H 0.96943 0.27897 0.01249 0.0
H1785 H 0.93836 0.23075 0.90041 0.0
H1786 H 0.93432 0.23092 0.97846 0.0
H1787 H 0.97195 0.27962 0.93437 0.0
C1788 C 0.98199 0.29555 0.96298 0.0
C1789 C 0.98146 0.29577 0.98519 0.0
C1790 C 0.93533 0.23088 0.96136 0.0
C1791 C 0.96019 0.26344 0.96229 0.0
C1792 C 0.92329 0.21535 0.94984 0.0
C1793 C 0.92401 0.21501 0.92765 0.0
C1794 C 0.94812 0.24627 0.95061 0.0
C1795 C 0.93741 0.23041 0.91752 0.0
C1796 C 0.97144 0.27944 0.9515 0.0
C1797 C 0.97024 0.27945 0.99539 0.0
N1798 N 0.94884 0.24549 0.92907 0.0
N1799 N 0.95999 0.26397 0.98386 0.0
H1800 H 0.71462 0.67224 0.99771 0.0
H1801 H 0.77133 0.71456 0.89237 0.0
H1802 H 0.69351 0.6806 0.94113 0.0
H1803 H 0.79165 0.70399 0.94803 0.0
H1804 H 0.74335 0.7042 0.91085 0.0
H1805 H 0.74342 0.68536 0.98041 0.0
C1806 C 0.71603 0.67682 0.98164 0.0
C1807 C 0.70161 0.67526 0.97082 0.0
C1808 C 0.75396 0.70423 0.91906 0.0
C1809 C 0.73458 0.69036 0.95094 0.0
C1810 C 0.76998 0.71028 0.90858 0.0
C1811 C 0.7838 0.71004 0.91865 0.0
C1812 C 0.75174 0.69792 0.93977 0.0
C1813 C 0.78124 0.70414 0.93957 0.0
C1814 C 0.73249 0.68434 0.97178 0.0
C1815 C 0.70424 0.68148 0.95005 0.0
N1816 N 0.7655 0.69825 0.9494 0.0
N1817 N 0.7204 0.68874 0.94078 0.0
H1818 H 0.95122 0.67553 0.99186 0.0
H1819 H 0.93623 0.71501 0.88687 0.0
H1820 H 0.98419 0.68887 0.9362 0.0
H1821 H 0.90484 0.70441 0.94354 0.0
H1822 H 0.95456 0.70639 0.90515 0.0
H1823 H 0.93434 0.68651 0.97471 0.0
C1824 C 0.95491 0.68077 0.97605 0.0
C1825 C 0.96911 0.68123 0.96543 0.0
C1826 C 0.94371 0.70602 0.91362 0.0
C1827 C 0.94988 0.69384 0.94573 0.0
C1828 C 0.93332 0.71107 0.90323 0.0
C1829 C 0.91893 0.71035 0.91365 0.0
C1830 C 0.93968 0.70017 0.93458 0.0
C1831 C 0.91562 0.70488 0.93478 0.0
C1832 C 0.94529 0.68707 0.96627 0.0
C1833 C 0.97333 0.68821 0.94498 0.0
N1834 N 0.92587 0.69993 0.94451 0.0
N1835 N 0.96374 0.6942 0.93579 0.0
H1836 H 0.35758 0.32736 0.9421 0.0
H1837 H 0.28448 0.22292 0.91972 0.0
H1838 H 0.30839 0.29808 0.9766 0.0
H1839 H 0.33693 0.25001 0.89264 0.0
H1840 H 0.29198 0.25108 0.93838 0.0
H1841 H 0.34927 0.29976 0.92166 0.0
C1842 C 0.34503 0.31514 0.94536 0.0
C1843 C 0.3337 0.31501 0.96114 0.0
C1844 C 0.30184 0.25087 0.92834 0.0
C1845 C 0.32409 0.2834 0.93777 0.0
C1846 C 0.29753 0.23484 0.91759 0.0
C1847 C 0.31014 0.23413 0.90471 0.0
C1848 C 0.31884 0.26632 0.92607 0.0
C1849 C 0.3269 0.24991 0.90266 0.0
C1850 C 0.3403 0.29938 0.9337 0.0
C1851 C 0.31757 0.29879 0.96464 0.0
N1852 N 0.33077 0.26536 0.91324 0.0
N1853 N 0.31325 0.28364 0.95305 0.0
H1854 H 0.6911 0.01231 0.9579 0.0
H1855 H 0.79364 0.09067 0.95893 0.0
H1856 H 0.72084 0.03771 0.01522 0.0
H1857 H 0.76419 0.06364 0.90199 0.0
H1858 H 0.76735 0.07098 0.97991 0.0
H1859 H 0.71791 0.03066 0.93727 0.0
C1860 C 0.70328 0.02175 0.96618 0.0
C1861 C 0.7037 0.02349 0.98836 0.0
C1862 C 0.76665 0.06929 0.96283 0.0
C1863 C 0.73451 0.04458 0.96475 0.0
C1864 C 0.78163 0.08057 0.95084 0.0
C1865 C 0.78108 0.07886 0.92866 0.0
C1866 C 0.75094 0.05623 0.95258 0.0
C1867 C 0.76526 0.06534 0.91905 0.0
C1868 C 0.7186 0.03221 0.95436 0.0
C1869 C 0.71988 0.03593 0.99817 0.0
N1870 N 0.7508 0.05462 0.93106 0.0
N1871 N 0.73464 0.04603 0.98629 0.0
H1872 H 0.65968 0.94148 0.02776 0.0
H1873 H 0.68787 0.9261 0.1413 0.0
H1874 H 0.66545 0.9736 0.08391 0.0
H1875 H 0.6887 0.89826 0.08411 0.0
H1876 H 0.67771 0.94222 0.12075 0.0
H1877 H 0.66827 0.92396 0.04842 0.0
C1878 C 0.66265 0.94478 0.04444 0.0
C1879 C 0.6619 0.95907 0.0541 0.0
C1880 C 0.68012 0.93259 0.11267 0.0
C1881 C 0.67176 0.93914 0.07778 0.0
C1882 C 0.68585 0.92333 0.12442 0.0
C1883 C 0.68916 0.91084 0.1144 0.0
C1884 C 0.6776 0.9293 0.09072 0.0
C1885 C 0.68652 0.90795 0.09243 0.0
C1886 C 0.66761 0.93482 0.0562 0.0
C1887 C 0.66592 0.96276 0.07576 0.0
N1888 N 0.68086 0.91708 0.08132 0.0
N1889 N 0.67068 0.95289 0.08683 0.0
H1890 H 0.02475 0.69644 0.05857 0.0
H1891 H 0.09855 0.80196 0.06825 0.0
H1892 H 0.0468 0.7309 0.00465 0.0
H1893 H 0.07349 0.76786 0.12186 0.0
H1894 H 0.08058 0.77597 0.04457 0.0
H1895 H 0.04377 0.72223 0.08184 0.0
C1896 C 0.03366 0.70942 0.05159 0.0
C1897 C 0.03413 0.71153 0.02961 0.0
C1898 C 0.07902 0.77418 0.06151 0.0
C1899 C 0.05591 0.74118 0.05624 0.0
C1900 C 0.08919 0.78904 0.07505 0.0
C1901 C 0.08751 0.7871 0.09709 0.0
C1902 C 0.06709 0.75725 0.07007 0.0
C1903 C 0.07539 0.76995 0.10499 0.0
C1904 C 0.0445 0.72416 0.06492 0.0
C1905 C 0.04597 0.72867 0.0215 0.0
N1906 N 0.06564 0.75571 0.09149 0.0
N1907 N 0.05636 0.74286 0.03483 0.0
H1908 H 0.27653 0.29729 0.04291 0.0
H1909 H 0.22236 0.33277 0.10742 0.0
H1910 H 0.28961 0.35255 0.04246 0.0
H1911 H 0.20529 0.27641 0.1011 0.0
H1912 H 0.2472 0.34029 0.08381 0.0
H1913 H 0.25039 0.28935 0.06421 0.0
C1914 C 0.27388 0.30775 0.04723 0.0
C1915 C 0.28532 0.32564 0.04097 0.0
C1916 C 0.238 0.32627 0.08752 0.0
C1917 C 0.25544 0.31663 0.06544 0.0
C1918 C 0.22389 0.32198 0.1011 0.0
C1919 C 0.21183 0.30395 0.10633 0.0
C1920 C 0.24016 0.31244 0.07919 0.0
C1921 C 0.21424 0.29048 0.09738 0.0
C1922 C 0.25893 0.30319 0.05937 0.0
C1923 C 0.28117 0.3386 0.04696 0.0
N1924 N 0.2282 0.29501 0.08434 0.0
N1925 N 0.26662 0.33386 0.05897 0.0
H1926 H 0.67524 0.65142 0.41809 0.0
H1927 H 0.75673 0.63688 0.40852 0.0
H1928 H 0.70926 0.66569 0.36331 0.0
H1929 H 0.72612 0.6276 0.46563 0.0
H1930 H 0.73818 0.64554 0.39091 0.0
H1931 H 0.69255 0.64088 0.43502 0.0
C1932 C 0.68636 0.65235 0.40961 0.0
C1933 C 0.69084 0.65951 0.38926 0.0
C1934 C 0.73547 0.64156 0.40728 0.0
C1935 C 0.71066 0.64738 0.40855 0.0
C1936 C 0.74609 0.63666 0.41737 0.0
C1937 C 0.74307 0.63163 0.43865 0.0
C1938 C 0.72167 0.64143 0.41851 0.0
C1939 C 0.72886 0.63125 0.44917 0.0
C1940 C 0.69622 0.64631 0.4193 0.0
C1941 C 0.70536 0.66033 0.37904 0.0
N1942 N 0.71875 0.63617 0.43903 0.0
N1943 N 0.71474 0.65434 0.38879 0.0
H1944 H 0.33632 0.05446 0.3448 0.0
H1945 H 0.36078 0.09669 0.46266 0.0
H1946 H 0.33794 0.02576 0.39839 0.0
H1947 H 0.36202 0.12647 0.40859 0.0
H1948 H 0.35188 0.07036 0.43942 0.0
H1949 H 0.3452 0.08082 0.36799 0.0
C1950 C 0.33851 0.05368 0.36144 0.0
C1951 C 0.33639 0.03788 0.36966 0.0
C1952 C 0.35413 0.08266 0.43262 0.0
C1953 C 0.34658 0.068 0.39629 0.0
C1954 C 0.35913 0.09767 0.4459 0.0
C1955 C 0.36214 0.1138 0.43755 0.0
C1956 C 0.35205 0.08375 0.41082 0.0
C1957 C 0.36005 0.11438 0.41566 0.0
C1958 C 0.34361 0.06875 0.37467 0.0
C1959 C 0.33942 0.03766 0.39136 0.0
N1960 N 0.35508 0.09956 0.40307 0.0
N1961 N 0.34436 0.05249 0.40391 0.0
H1962 H 0.95614 0.32123 0.37423 0.0
H1963 H 0.89039 0.22722 0.42909 0.0
H1964 H 0.9577 0.27303 0.36267 0.0
H1965 H 0.88239 0.27192 0.43099 0.0
H1966 H 0.91564 0.24417 0.40552 0.0
H1967 H 0.9295 0.30371 0.39562 0.0
C1968 C 0.95084 0.30694 0.3761 0.0
C1969 C 0.95921 0.29859 0.3667 0.0
C1970 C 0.90834 0.25027 0.41102 0.0
C1971 C 0.92878 0.27851 0.39127 0.0
C1972 C 0.894 0.24065 0.42458 0.0
C1973 C 0.88436 0.24823 0.43209 0.0
C1974 C 0.91319 0.26768 0.40502 0.0
C1975 C 0.88943 0.26555 0.42547 0.0
C1976 C 0.93562 0.29695 0.3883 0.0
C1977 C 0.95171 0.28004 0.36962 0.0
N1978 N 0.90357 0.27475 0.41241 0.0
N1979 N 0.93699 0.27065 0.38176 0.0
H1980 H 0.01855 0.39088 0.30471 0.0
H1981 H 0.95294 0.40409 0.23348 0.0
H1982 H 0.96524 0.34789 0.28914 0.0
H1983 H 0.00928 0.44246 0.23576 0.0
H1984 H 0.95684 0.38409 0.25593 0.0
H1985 H 0.01508 0.41087 0.28158 0.0
C1986 C 0.00611 0.38565 0.29647 0.0
C1987 C 0.99216 0.36769 0.29886 0.0
C1988 C 0.96837 0.39685 0.25146 0.0
C1989 C 0.9881 0.39046 0.27246 0.0
C1990 C 0.96613 0.40829 0.23873 0.0
C1991 C 0.98081 0.42494 0.23279 0.0
C1992 C 0.98539 0.40217 0.25851 0.0
C1993 C 0.99764 0.42965 0.23985 0.0
C1994 C 0.00417 0.39704 0.28321 0.0
C1995 C 0.97637 0.36162 0.28774 0.0
N1996 N -0.00053 0.41837 0.25246 0.0
N1997 N 0.97475 0.373 0.27511 0.0
H1998 H 0.61217 0.61087 0.34613 0.0
H1999 H 0.59428 0.572 0.22664 0.0
H2000 H 0.64077 0.64272 0.29213 0.0
H2001 H 0.56454 0.54039 0.28024 0.0
H2002 H 0.61142 0.59808 0.25046 0.0
H2003 H 0.59443 0.58492 0.32229 0.0
C2004 C 0.61468 0.61244 0.32926 0.0
C2005 C 0.628 0.62899 0.32113 0.0
C2006 C 0.60116 0.58544 0.25703 0.0
C2007 C 0.60781 0.59932 0.29376 0.0
C2008 C 0.59132 0.57056 0.24342 0.0
C2009 C 0.57795 0.55397 0.25144 0.0
C2010 C 0.59762 0.58376 0.27886 0.0
C2011 C 0.57488 0.55283 0.27338 0.0
C2012 C 0.60456 0.5976 0.31566 0.0
C2013 C 0.63066 0.63022 0.29913 0.0
N2014 N 0.58462 0.56753 0.28631 0.0
N2015 N 0.62069 0.61558 0.28623 0.0
H2016 H 0.36282 0.97882 0.30674 0.0
H2017 H 0.45841 0.04856 0.25882 0.0
H2018 H 0.39361 0.03544 0.32484 0.0
H2019 H 0.42928 0.99123 0.24457 0.0
H2020 H 0.43461 0.04415 0.28267 0.0
H2021 H 0.38704 0.98313 0.28383 0.0
C2022 C 0.37471 0.99214 0.30598 0.0
C2023 C 0.37617 0.0068 0.3177 0.0
C2024 C 0.43343 0.03253 0.27434 0.0
C2025 C 0.40391 0.01186 0.29138 0.0
C2026 C 0.44696 0.03506 0.26062 0.0
C2027 C 0.44583 0.02024 0.2497 0.0
C2028 C 0.41862 0.01506 0.27709 0.0
C2029 C 0.4308 0.00301 0.25286 0.0
C2030 C 0.38853 0.9946 0.29287 0.0
C2031 C 0.39189 0.02375 0.31609 0.0
N2032 N 0.41778 0.0009 0.26623 0.0
N2033 N 0.40512 0.02583 0.3031 0.0
H2034 H 0.65432 0.03624 0.29946 0.0
H2035 H 0.56258 0.9896 0.23675 0.0
H2036 H 0.61358 0.97982 0.30447 0.0
H2037 H 0.59714 0.04743 0.24498 0.0
H2038 H 0.58247 0.98552 0.25872 0.0
H2039 H 0.63483 0.04034 0.27666 0.0
C2040 C 0.64127 0.02471 0.29577 0.0
C2041 C 0.63555 0.00766 0.30391 0.0
C2042 C 0.58569 -0.0009 0.2557 0.0
C2043 C 0.61325 0.01226 0.27773 0.0
C2044 C 0.57431 0.00146 0.24322 0.0
C2045 C 0.5781 0.0189 0.23909 0.0
C2046 C 0.60108 0.01429 0.26403 0.0
C2047 C 0.59374 0.03374 0.24752 0.0
C2048 C 0.63016 0.02707 0.28278 0.0
C2049 C 0.61851 0.99321 0.2986 0.0
N2050 N 0.60464 0.03109 0.25961 0.0
N2051 N 0.60798 0.99583 0.28578 0.0
H2052 H 0.03675 0.654 0.29051 0.0
H2053 H 0.96248 0.55468 0.24935 0.0
H2054 H 0.98167 0.62688 0.30857 0.0
H2055 H 0.01795 0.57974 0.23409 0.0
H2056 H 0.96946 0.58112 0.27128 0.0
H2057 H 0.03034 0.62704 0.26975 0.0
C2058 C 0.02333 0.64238 0.29016 0.0
C2059 C 0.00973 0.64272 0.30126 0.0
C2060 C 0.98013 0.58084 0.26318 0.0
C2061 C 0.00229 0.61189 0.27753 0.0
C2062 C 0.97616 0.56568 0.25074 0.0
C2063 C 0.98964 0.56496 0.23985 0.0
C2064 C 0.99773 0.59545 0.26476 0.0
C2065 C 0.00709 0.5798 0.24196 0.0
C2066 C 0.01968 0.627 0.27831 0.0
C2067 C 0.99258 0.62727 0.30024 0.0
N2068 N 0.01063 0.59444 0.25415 0.0
N2069 N 0.98936 0.61252 0.28856 0.0
H2070 H 0.37283 0.34692 0.30796 0.0
H2071 H 0.43263 0.44013 0.24837 0.0
H2072 H 0.36283 0.39031 0.31038 0.0
H2073 H 0.44564 0.39908 0.25166 0.0
H2074 H 0.40669 0.42187 0.27056 0.0
H2075 H 0.39944 0.36576 0.28714 0.0
C2076 C 0.37626 0.36044 0.30419 0.0
C2077 C 0.36555 0.36703 0.31089 0.0
C2078 C 0.41524 0.41687 0.26647 0.0
C2079 C 0.39598 0.38865 0.28693 0.0
C2080 C 0.42997 0.42723 0.25368 0.0
C2081 C 0.44128 0.42109 0.24811 0.0
C2082 C 0.41171 0.40019 0.27367 0.0
C2083 C 0.43736 0.4044 0.25573 0.0
C2084 C 0.39147 0.3712 0.29229 0.0
C2085 C 0.37068 0.38467 0.30555 0.0
N2086 N 0.42287 0.39451 0.26805 0.0
N2087 N 0.38549 0.39483 0.2938 0.0
H2088 H 0.34139 0.31413 0.4139 0.0
H2089 H 0.3566 0.2316 0.41304 0.0
H2090 H 0.32862 0.27744 0.36028 0.0
H2091 H 0.35867 0.26152 0.46971 0.0
H2092 H 0.34792 0.24925 0.39286 0.0
H2093 H 0.34913 0.29585 0.43411 0.0
C2094 C 0.34017 0.3022 0.40638 0.0
C2095 C 0.33437 0.29732 0.38534 0.0
C2096 C 0.35023 0.25192 0.40972 0.0
C2097 C 0.34333 0.27637 0.4084 0.0
C2098 C 0.3553 0.24194 0.42121 0.0
C2099 C 0.35838 0.24512 0.44308 0.0
C2100 C 0.34838 0.26528 0.42013 0.0
C2101 C 0.35627 0.25852 0.45291 0.0
C2102 C 0.34457 0.29175 0.41795 0.0
C2103 C 0.33301 0.28169 0.37646 0.0
N2104 N 0.35148 0.26815 0.44136 0.0
N2105 N 0.33755 0.27182 0.388 0.0
H2106 H 0.71936 0.0262 0.39091 0.0
H2107 H 0.73059 0.11979 0.4307 0.0
H2108 H 0.68271 0.04233 0.37506 0.0
H2109 H 0.76742 0.10354 0.44497 0.0
H2110 H 0.71302 0.09179 0.40975 0.0
H2111 H 0.73722 0.0547 0.41056 0.0
C2112 C 0.71507 0.03574 0.39154 0.0
C2113 C 0.6995 0.03185 0.38135 0.0
C2114 C 0.72495 0.09437 0.41748 0.0
C2115 C 0.71991 0.06456 0.40386 0.0
C2116 C 0.73502 0.11038 0.42934 0.0
C2117 C 0.75042 0.11396 0.43972 0.0
C2118 C 0.73036 0.08187 0.41594 0.0
C2119 C 0.75546 0.10121 0.43757 0.0
C2120 C 0.72529 0.05203 0.40277 0.0
C2121 C 0.69461 0.04475 0.3827 0.0
N2122 N 0.74546 0.08575 0.42596 0.0
N2123 N 0.70477 0.06053 0.39378 0.0
H2124 H 0.94431 0.62441 0.37334 0.0
H2125 H 0.88999 0.66142 0.43384 0.0
H2126 H 0.9569 0.67937 0.36973 0.0
H2127 H 0.86986 0.60446 0.42487 0.0
H2128 H 0.9155 0.66829 0.41205 0.0
H2129 H 0.91776 0.61684 0.39372 0.0
C2130 C 0.94145 0.63487 0.37675 0.0
C2131 C 0.95286 0.65257 0.36987 0.0
C2132 C 0.90548 0.65428 0.41477 0.0
C2133 C 0.92262 0.64401 0.39331 0.0
C2134 C 0.89084 0.65033 0.42715 0.0
C2135 C 0.87763 0.63231 0.43108 0.0
C2136 C 0.90709 0.64015 0.40636 0.0
C2137 C 0.87977 0.61855 0.42244 0.0
C2138 C 0.92629 0.63052 0.38836 0.0
C2139 C 0.94848 0.66555 0.3747 0.0
N2140 N 0.89423 0.62276 0.41049 0.0
N2141 N 0.93377 0.66103 0.38623 0.0
H2142 H 0.38313 0.98747 0.67727 0.0
H2143 H 0.40765 0.98195 0.79701 0.0
H2144 H 0.36971 0.00954 0.73117 0.0
H2145 H 0.42874 0.96788 0.74305 0.0
H2146 H 0.39233 0.9906 0.77299 0.0
H2147 H 0.39874 0.97877 0.70099 0.0
C2148 C 0.3835 0.99054 0.69406 0.0
C2149 C 0.37509 -0.00075 0.70224 0.0
C2150 C 0.40031 0.98562 0.76639 0.0
C2151 C 0.39281 0.98923 0.72945 0.0
C2152 C 0.40912 0.98074 0.78011 0.0
C2153 C 0.41957 0.97424 0.77207 0.0
C2154 C 0.40187 0.98395 0.74441 0.0
C2155 C 0.42067 0.97262 0.74998 0.0
C2156 C 0.39241 0.98557 0.70759 0.0
C2157 C 0.37601 0.00287 0.72414 0.0
N2158 N 0.41195 0.97746 0.73693 0.0
N2159 N 0.38465 0.9978 0.73696 0.0
H2160 H 0.02338 0.37231 0.71523 0.0
H2161 H 0.99331 0.43818 0.75905 0.0
H2162 H 0.98023 0.37383 0.6873 0.0
H2163 H 0.04699 0.451 0.76515 0.0
H2164 H 0.98673 0.41243 0.73565 0.0
H2165 H 0.03087 0.39927 0.73666 0.0
C2166 C 0.0155 0.37834 0.71359 0.0
C2167 C 0.00115 0.37084 0.69951 0.0
C2168 C -4e-05 0.42094 0.74203 0.0
C2169 C 0.00953 0.40149 0.72407 0.0
C2170 C 0.00368 0.43551 0.75545 0.0
C2171 C 0.02069 0.44662 0.764 0.0
C2172 C 0.01327 0.41729 0.73748 0.0
C2173 C 0.03374 0.44276 0.75875 0.0
C2174 C 0.01984 0.39375 0.72574 0.0
C2175 C 0.99144 0.37923 0.69792 0.0
N2176 N 0.02971 0.42828 0.74595 0.0
N2177 N 0.9957 0.39404 0.71023 0.0
H2178 H 0.6161 0.61685 0.67373 0.0
H2179 H 0.57258 0.59806 0.7893 0.0
H2180 H 0.64401 0.64795 0.72978 0.0
H2181 H 0.54705 0.56296 0.73487 0.0
H2182 H 0.59849 0.61721 0.76743 0.0
H2183 H 0.59034 0.59741 0.69564 0.0
C2184 C 0.61684 0.61957 0.69064 0.0
C2185 C 0.63223 0.63407 0.69992 0.0
C2186 C 0.58723 0.6053 0.76027 0.0
C2187 C 0.60277 0.61193 0.72508 0.0
C2188 C 0.5724 0.59444 0.77271 0.0
C2189 C 0.55765 0.57889 0.76389 0.0
C2190 C 0.58728 0.60065 0.7388 0.0
C2191 C 0.55822 0.57471 0.74238 0.0
C2192 C 0.60213 0.60846 0.70315 0.0
C2193 C 0.63243 0.63693 0.72193 0.0
N2194 N 0.57277 0.58554 0.73056 0.0
N2195 N 0.61791 0.626 0.73374 0.0
H2196 H 0.65524 0.68395 0.60687 0.0
H2197 H 0.65111 0.77349 0.61164 0.0
H2198 H 0.67219 0.72082 0.6609 0.0
H2199 H 0.63544 0.73736 0.55705 0.0
H2200 H 0.658 0.75384 0.63036 0.0
H2201 H 0.64701 0.70281 0.58882 0.0
C2202 C 0.65723 0.69601 0.61496 0.0
C2203 C 0.66447 0.70083 0.63543 0.0
C2204 C 0.65301 0.75018 0.61431 0.0
C2205 C 0.65503 0.7225 0.61482 0.0
C2206 C 0.64915 0.76144 0.60357 0.0
C2207 C 0.64278 0.75712 0.58269 0.0
C2208 C 0.65051 0.73446 0.60412 0.0
C2209 C 0.64018 0.74114 0.57318 0.0
C2210 C 0.65251 0.70678 0.60463 0.0
C2211 C 0.66669 0.7166 0.64512 0.0
N2212 N 0.64412 0.73043 0.58394 0.0
N2213 N 0.66202 0.72688 0.63471 0.0
H2214 H 0.29255 0.94532 0.68295 0.0
H2215 H 0.26056 0.90669 0.56487 0.0
H2216 H 0.31231 0.9779 0.6273 0.0
H2217 H 0.23638 0.8753 0.62062 0.0
H2218 H 0.28102 0.93237 0.58751 0.0
H2219 H 0.2732 0.91896 0.66036 0.0
C2220 C 0.29283 0.94694 0.66599 0.0
C2221 C 0.30403 0.96386 0.65701 0.0
C2222 C 0.27127 0.91986 0.5948 0.0
C2223 C 0.28197 0.93375 0.63108 0.0
C2224 C 0.25953 0.9052 0.58188 0.0
C2225 C 0.24664 0.88883 0.59085 0.0
C2226 C 0.27016 0.91818 0.61689 0.0
C2227 C 0.24619 0.88759 0.61299 0.0
C2228 C 0.28178 0.93188 0.65311 0.0
C2229 C 0.30386 0.96514 0.63493 0.0
N2230 N 0.25773 0.90209 0.62526 0.0
N2231 N 0.29301 0.95029 0.62274 0.0
H2232 H 0.03963 0.31575 0.649 0.0
H2233 H 0.12405 0.38872 0.58333 0.0
H2234 H 0.05208 0.36993 0.63815 0.0
H2235 H 0.10596 0.33202 0.58349 0.0
H2236 H 0.09985 0.38291 0.60731 0.0
H2237 H 0.06599 0.32232 0.62875 0.0
C2238 C 0.04796 0.32905 0.64248 0.0
C2239 C 0.04359 0.34227 0.64513 0.0
C2240 C 0.10121 0.37175 0.60215 0.0
C2241 C 0.07372 0.34987 0.62203 0.0
C2242 C 0.11507 0.37508 0.58857 0.0
C2243 C 0.11694 0.36082 0.58131 0.0
C2244 C 0.08918 0.35403 0.60863 0.0
C2245 C 0.10483 0.34336 0.58845 0.0
C2246 C 0.06297 0.33277 0.63089 0.0
C2247 C 0.05486 0.35928 0.63636 0.0
N2248 N 0.09145 0.34045 0.60169 0.0
N2249 N 0.06938 0.36257 0.62518 0.0
H2250 H 0.32059 0.37048 0.62432 0.0
H2251 H 0.22687 0.33044 0.56753 0.0
H2252 H 0.27676 0.31559 0.63122 0.0
H2253 H 0.26794 0.38701 0.56823 0.0
H2254 H 0.24555 0.3244 0.5893 0.0
H2255 H 0.30199 0.3765 0.60243 0.0
C2256 C 0.30705 0.35969 0.62125 0.0
C2257 C 0.30022 0.34249 0.62962 0.0
C2258 C 0.25048 0.33814 0.5847 0.0
C2259 C 0.27887 0.3493 0.60449 0.0
C2260 C 0.23988 0.34157 0.57214 0.0
C2261 C 0.24588 0.35926 0.56602 0.0
C2262 C 0.26727 0.35247 0.59111 0.0
C2263 C 0.26273 0.37321 0.57275 0.0
C2264 C 0.29643 0.36315 0.60876 0.0
C2265 C 0.28257 0.32905 0.62512 0.0
N2266 N 0.27286 0.36951 0.58489 0.0
N2267 N 0.27251 0.33272 0.61281 0.0
H2268 H 0.65718 0.9801 0.62682 0.0
H2269 H 0.65141 0.88532 0.61944 0.0
H2270 H 0.66959 0.95761 0.67884 0.0
H2271 H 0.63651 0.90655 0.56849 0.0
H2272 H 0.65842 0.91184 0.64133 0.0
H2273 H 0.64995 0.95347 0.60507 0.0
C2274 C 0.65843 0.96958 0.63367 0.0
C2275 C 0.664 0.9711 0.65471 0.0
C2276 C 0.65359 0.9107 0.62538 0.0
C2277 C 0.65569 0.94052 0.62986 0.0
C2278 C 0.64965 0.89559 0.61284 0.0
C2279 C 0.64342 0.89375 0.59207 0.0
C2280 C 0.65133 0.92412 0.61709 0.0
C2281 C 0.64112 0.90734 0.58447 0.0
C2282 C 0.65426 0.95435 0.62124 0.0
C2283 C 0.66535 0.95702 0.66271 0.0
N2284 N 0.64514 0.92198 0.59695 0.0
N2285 N 0.66122 0.94233 0.65027 0.0
H2286 H 0.0277 0.68282 0.64248 0.0
H2287 H 0.09606 0.78089 0.59783 0.0
H2288 H 0.02447 0.72977 0.65651 0.0
H2289 H 0.10357 0.73597 0.59129 0.0
H2290 H 0.06936 0.76213 0.61862 0.0
H2291 H 0.05508 0.70182 0.62292 0.0
C2292 C 0.03274 0.69713 0.64146 0.0
C2293 C 0.02375 0.70471 0.65113 0.0
C2294 C 0.07686 0.75638 0.61271 0.0
C2295 C 0.05509 0.72653 0.62872 0.0
C2296 C 0.09206 0.76705 0.60075 0.0
C2297 C 0.102 0.75995 0.59275 0.0
C2298 C 0.07148 0.7384 0.6166 0.0
C2299 C 0.09636 0.74202 0.59729 0.0
C2300 C 0.0484 0.70797 0.63032 0.0
C2301 C 0.03094 0.72333 0.64931 0.0
N2302 N 0.08141 0.73183 0.60882 0.0
N2303 N 0.04615 0.73359 0.63827 0.0
H2304 H 0.97307 0.61168 0.71176 0.0
H2305 H 0.04697 0.60224 0.77014 0.0
H2306 H 0.02715 0.65576 0.72054 0.0
H2307 H 0.99126 0.5613 0.77144 0.0
H2308 H 0.04027 0.62125 0.74961 0.0
H2309 H 0.97977 0.59221 0.7314 0.0
C2310 C 0.98635 0.61726 0.71778 0.0
C2311 C -0.00044 0.63539 0.71453 0.0
C2312 C 0.0295 0.60811 0.7544 0.0
C2313 C 0.00732 0.61319 0.73696 0.0
C2314 C 0.03334 0.59722 0.76601 0.0
C2315 C 0.01966 0.58018 0.77254 0.0
C2316 C 0.01186 0.60188 0.74912 0.0
C2317 C 0.0022 0.57444 0.76695 0.0
C2318 C 0.99015 0.60615 0.72903 0.0
C2319 C 0.01654 0.64189 0.72271 0.0
N2320 N -0.0012 0.58524 0.75552 0.0
N2321 N 0.01993 0.6308 0.73351 0.0
H2322 H 0.36632 0.34625 0.7362 0.0
H2323 H 0.40115 0.45119 0.75383 0.0
H2324 H 0.34976 0.37472 0.69749 0.0
H2325 H 0.42534 0.42496 0.78208 0.0
H2326 H 0.37987 0.42256 0.73581 0.0
H2327 H 0.3858 0.37436 0.75592 0.0
C2328 C 0.36673 0.3584 0.73188 0.0
C2329 C 0.35645 0.35815 0.7151 0.0
C2330 C 0.38984 0.42309 0.74597 0.0
C2331 C 0.3787 0.39038 0.73766 0.0
C2332 C 0.40189 0.43937 0.75632 0.0
C2333 C 0.41507 0.44044 0.76932 0.0
C2334 C 0.39088 0.40776 0.74883 0.0
C2335 C 0.41554 0.42477 0.77193 0.0
C2336 C 0.37789 0.37445 0.74312 0.0
C2337 C 0.35752 0.37431 0.71024 0.0
N2338 N 0.40362 0.40909 0.76179 0.0
N2339 N 0.36846 0.38978 0.72147 0.0
H2340 H 0.63597 0.99163 0.75115 0.0
H2341 H 0.53742 0.97201 0.74954 0.0
H2342 H 0.6145 0.0042 0.69827 0.0
H2343 H 0.56368 0.97167 0.8062 0.0
H2344 H 0.56435 0.98061 0.72928 0.0
H2345 H 0.60841 0.98131 0.77044 0.0
C2346 C 0.62545 0.99221 0.74357 0.0
C2347 C 0.62756 -0.00116 0.72308 0.0
C2348 C 0.56419 0.97861 0.74614 0.0
C2349 C 0.59591 0.98695 0.74508 0.0
C2350 C 0.5488 0.97357 0.75766 0.0
C2351 C 0.54837 0.97118 0.77957 0.0
C2352 C 0.57917 0.98109 0.75659 0.0
C2353 C 0.56354 0.97357 0.78936 0.0
C2354 C 0.60972 0.98634 0.75462 0.0
C2355 C 0.61346 -0.00073 0.71407 0.0
N2356 N 0.57831 0.97838 0.77781 0.0
N2357 N 0.59821 0.99337 0.72513 0.0
loop_
_geom_bond_atom_site_label_1
_geom_bond_atom_site_label_2
_geom_bond_distance
_geom_bond_site_symmetry_2
_ccdc_geom_bond_type
C0 O1 1.160 . S
C0 O7 1.185 . S
O1 C0 1.160 . S
O2 Zn3 1.899 1_656 S
O2 C10 1.284 . S
Zn3 O2 1.899 1_454 S
Zn3 O4 2.032 . S
Zn3 O7 2.086 . S
Zn3 O12 1.977 1_554 S
O4 Zn3 2.032 . S
O4 C8 1.278 1_455 S
C5 O6 1.203 1_455 S
C5 O12 1.267 . S
O6 C5 1.203 1_655 S
O7 C0 1.185 . S
O7 Zn3 2.086 . S
C8 O4 1.278 1_655 S
C8 O9 1.211 . S
O9 C8 1.211 . S
C10 O2 1.284 . S
C10 O11 1.273 1_556 S
O11 C10 1.273 1_554 S
O12 Zn3 1.977 1_556 S
O12 C5 1.267 . S
C13 O14 1.160 . S
C13 O20 1.185 1_556 S
O14 C13 1.160 . S
O15 Zn16 1.899 . S
O15 C23 1.284 . S
Zn16 O15 1.899 . S
Zn16 O17 2.032 1_554 S
Zn16 O20 2.086 . S
Zn16 O25 1.977 . S
O17 Zn16 2.032 1_556 S
O17 C21 1.278 . S
C18 O19 1.203 . S
C18 O25 1.267 . S
O19 C18 1.203 . S
O20 C13 1.185 1_554 S
O20 Zn16 2.086 . S
C21 O17 1.278 . S
C21 O22 1.211 . S
O22 C21 1.211 . S
C23 O15 1.284 . S
C23 O24 1.273 . S
O24 C23 1.273 . S
O25 Zn16 1.977 . S
O25 C18 1.267 . S
C26 O27 1.160 . S
C26 O33 1.185 1_556 S
O27 C26 1.160 . S
O28 Zn29 1.899 1_565 S
O28 C36 1.284 . S
Zn29 O28 1.899 1_545 S
Zn29 O30 2.032 1_554 S
Zn29 O33 2.086 . S
Zn29 O38 1.977 . S
O30 Zn29 2.032 1_556 S
O30 C34 1.273 . S
C31 O32 1.203 1_545 S
C31 O38 1.267 . S
O32 C31 1.203 1_565 S
O33 C26 1.185 1_554 S
O33 Zn29 2.086 . S
C34 O30 1.273 . S
C34 O35 1.215 1_545 S
O35 C34 1.215 1_565 S
C36 O28 1.284 . S
C36 O37 1.273 . S
O37 C36 1.273 . S
O38 Zn29 1.977 . S
O38 C31 1.267 . S
C39 O40 1.160 . S
C39 O46 1.185 1_556 S
O40 C39 1.160 . S
O41 Zn42 1.899 1_455 S
O41 C49 1.284 . S
Zn42 O41 1.899 1_655 S
Zn42 O43 2.009 1_654 S
Zn42 O46 2.086 . S
Zn42 O51 1.977 . S
O43 Zn42 2.009 1_456 S
O43 C47 1.336 . S
C44 O45 1.203 1_655 S
C44 O51 1.267 . S
O45 C44 1.203 1_455 S
O46 C39 1.185 1_554 S
O46 Zn42 2.086 . S
C47 O43 1.336 . S
C47 O48 1.211 . S
O48 C47 1.211 . S
C49 O41 1.284 . S
C49 O50 1.273 . S
O50 C49 1.273 . S
O51 Zn42 1.977 . S
O51 C44 1.267 . S
C52 O53 1.160 . S
C52 O59 1.185 . S
O53 C52 1.160 . S
O54 Zn55 1.899 1_556 S
O54 C62 1.284 . S
Zn55 O54 1.899 1_554 S
Zn55 O56 2.032 . S
Zn55 O59 2.086 . S
Zn55 O64 1.977 1_554 S
O56 Zn55 2.032 . S
O56 C60 1.278 . S
C57 O58 1.203 . S
C57 O64 1.267 . S
O58 C57 1.203 . S
O59 C52 1.185 . S
O59 Zn55 2.086 . S
C60 O56 1.278 . S
C60 O61 1.211 . S
O61 C60 1.211 . S
C62 O54 1.284 . S
C62 O63 1.273 1_556 S
O63 C62 1.273 1_554 S
O64 Zn55 1.977 1_556 S
O64 C57 1.267 . S
C65 O66 1.160 . S
C65 O72 1.185 . S
O66 C65 1.160 . S
O67 Zn68 1.899 1_546 S
O67 C75 1.284 . S
Zn68 O67 1.899 1_564 S
Zn68 O69 2.032 1_565 S
Zn68 O72 2.086 . S
Zn68 O77 1.977 1_554 S
O69 Zn68 2.032 1_545 S
O69 C73 1.278 . S
C70 O71 1.203 1_565 S
C70 O77 1.267 . S
O71 C70 1.203 1_545 S
O72 C65 1.185 . S
O72 Zn68 2.086 . S
C73 O69 1.278 . S
C73 O74 1.211 . S
O74 C73 1.211 . S
C75 O67 1.284 . S
C75 O76 1.273 1_556 S
O76 C75 1.273 1_554 S
O77 Zn68 1.977 1_556 S
O77 C70 1.267 . S
C78 O79 1.160 . S
C78 O85 1.185 . S
O79 C78 1.160 . S
O80 Zn81 1.899 . S
O80 C88 1.284 . S
Zn81 O80 1.899 . S
Zn81 O82 2.032 . S
Zn81 O85 2.086 . S
Zn81 O90 1.977 . S
O82 Zn81 2.032 . S
O82 C86 1.278 . S
C83 O84 1.203 . S
C83 O90 1.267 . S
O84 C83 1.203 . S
O85 C78 1.185 . S
O85 Zn81 2.086 . S
C86 O82 1.278 . S
C86 O87 1.211 . S
O87 C86 1.211 . S
C88 O80 1.284 . S
C88 O89 1.273 . S
O89 C88 1.273 . S
O90 Zn81 1.977 . S
O90 C83 1.267 . S
C91 O92 1.160 1_565 S
C91 O98 1.185 . S
O92 C91 1.160 1_545 S
O93 Zn94 1.899 1_545 S
O93 C101 1.284 . S
Zn94 O93 1.899 1_565 S
Zn94 O95 2.032 . S
Zn94 O98 2.086 . S
Zn94 O103 1.977 . S
O95 Zn94 2.032 . S
O95 C99 1.278 . S
C96 O97 1.203 . S
C96 O103 1.267 . S
O97 C96 1.203 . S
O98 C91 1.185 . S
O98 Zn94 2.086 . S
C99 O95 1.278 . S
C99 O100 1.211 . S
O100 C99 1.211 . S
C101 O93 1.284 . S
C101 O102 1.273 . S
O102 C101 1.273 . S
O103 Zn94 1.977 . S
O103 C96 1.267 . S
C104 O105 1.160 . S
C104 O111 1.185 . S
O105 C104 1.160 . S
O106 Zn107 1.899 . S
O106 C114 1.284 1_455 S
Zn107 O106 1.899 . S
Zn107 O108 2.032 . S
Zn107 O111 2.086 . S
Zn107 O116 1.977 . S
O108 Zn107 2.032 . S
O108 C112 1.278 . S
C109 O110 1.203 . S
C109 O116 1.267 . S
O110 C109 1.203 . S
O111 C104 1.185 . S
O111 Zn107 2.086 . S
C112 O108 1.278 . S
C112 O113 1.211 . S
O113 C112 1.211 . S
C114 O106 1.284 1_655 S
C114 O115 1.232 1_655 S
O115 C114 1.232 1_455 S
O116 Zn107 1.977 . S
O116 C109 1.267 . S
C117 O118 1.160 1_565 S
C117 O124 1.185 . S
O118 C117 1.160 1_545 S
O119 Zn120 1.899 1_545 S
O119 C127 1.284 . S
Zn120 O119 1.899 1_565 S
Zn120 O121 2.032 . S
Zn120 O124 2.086 . S
Zn120 O129 1.977 . S
O121 Zn120 2.032 . S
O121 C125 1.278 . S
C122 O123 1.203 . S
C122 O129 1.267 . S
O123 C122 1.203 . S
O124 C117 1.185 . S
O124 Zn120 2.086 . S
C125 O121 1.278 . S
C125 O126 1.211 . S
O126 C125 1.211 . S
C127 O119 1.284 . S
C127 O128 1.273 . S
O128 C127 1.273 . S
O129 Zn120 1.977 . S
O129 C122 1.267 . S
C130 O131 1.160 . S
C130 O137 1.185 . S
O131 C130 1.160 . S
O132 Zn133 1.899 . S
O132 C140 1.284 . S
Zn133 O132 1.899 . S
Zn133 O134 2.032 . S
Zn133 O137 2.086 1_455 S
Zn133 O142 1.977 . S
O134 Zn133 2.032 . S
O134 C138 1.278 . S
C135 O136 1.203 . S
C135 O142 1.267 . S
O136 C135 1.203 . S
O137 C130 1.185 . S
O137 Zn133 2.086 1_655 S
C138 O134 1.278 . S
C138 O139 1.211 . S
O139 C138 1.211 . S
C140 O132 1.284 . S
C140 O141 1.273 . S
O141 C140 1.273 . S
O142 Zn133 1.977 . S
O142 C135 1.267 . S
C143 O144 1.160 . S
C143 O150 1.185 . S
O144 C143 1.160 . S
O145 Zn146 1.899 . S
O145 C153 1.284 . S
Zn146 O145 1.899 . S
Zn146 O147 2.032 . S
Zn146 O150 2.086 . S
Zn146 O155 1.977 . S
O147 Zn146 2.032 . S
O147 C151 1.278 . S
C148 O149 1.203 . S
C148 O155 1.267 . S
O149 C148 1.203 . S
O150 C143 1.185 . S
O150 Zn146 2.086 . S
C151 O147 1.278 . S
C151 O152 1.211 . S
O152 C151 1.211 . S
C153 O145 1.284 . S
C153 O154 1.273 . S
O154 C153 1.273 . S
O155 Zn146 1.977 . S
O155 C148 1.267 . S
C156 O157 1.195 . S
C156 O163 1.185 . S
O157 C156 1.195 . S
O158 Zn159 1.884 1_565 S
O158 C166 1.282 . S
Zn159 O158 1.884 1_545 S
Zn159 O160 2.032 . S
Zn159 O163 2.086 . S
Zn159 O168 1.977 . S
O160 Zn159 2.032 . S
O160 C164 1.278 . S
C161 O162 1.203 . S
C161 O168 1.267 . S
O162 C161 1.203 . S
O163 C156 1.185 . S
O163 Zn159 2.086 . S
C164 O160 1.278 . S
C164 O165 1.211 . S
O165 C164 1.211 . S
C166 O158 1.282 . S
C166 O167 1.300 . S
O167 C166 1.300 . S
O168 Zn159 1.977 . S
O168 C161 1.267 . S
C169 O170 1.160 . S
C169 O176 1.185 . S
O170 C169 1.160 . S
O171 Zn172 1.899 . S
O171 C179 1.284 . S
Zn172 O171 1.899 . S
Zn172 O173 2.032 . S
Zn172 O176 2.086 1_655 S
Zn172 O181 1.977 . S
O173 Zn172 2.032 . S
O173 C177 1.278 . S
C174 O175 1.203 . S
C174 O181 1.267 . S
O175 C174 1.203 . S
O176 C169 1.185 . S
O176 Zn172 2.086 1_455 S
C177 O173 1.278 . S
C177 O178 1.211 . S
O178 C177 1.211 . S
C179 O171 1.284 . S
C179 O180 1.273 . S
O180 C179 1.273 . S
O181 Zn172 1.977 . S
O181 C174 1.267 . S
C182 O183 1.160 . S
C182 O189 1.185 . S
O183 C182 1.160 . S
O184 Zn185 1.899 . S
O184 C192 1.284 . S
Zn185 O184 1.899 . S
Zn185 O186 2.032 . S
Zn185 O189 2.086 . S
Zn185 O194 1.977 . S
O186 Zn185 2.032 . S
O186 C190 1.278 . S
C187 O188 1.203 . S
C187 O194 1.267 . S
O188 C187 1.203 . S
O189 C182 1.185 . S
O189 Zn185 2.086 . S
C190 O186 1.278 . S
C190 O191 1.211 . S
O191 C190 1.211 . S
C192 O184 1.284 . S
C192 O193 1.273 . S
O193 C192 1.273 . S
O194 Zn185 1.977 . S
O194 C187 1.267 . S
C195 O196 1.160 . S
C195 O202 1.185 . S
O196 C195 1.160 . S
O197 Zn198 1.899 . S
O197 C205 1.284 . S
Zn198 O197 1.899 . S
Zn198 O199 2.032 . S
Zn198 O202 2.086 . S
Zn198 O207 1.977 . S
O199 Zn198 2.032 . S
O199 C203 1.278 . S
C200 O201 1.203 . S
C200 O207 1.267 . S
O201 C200 1.203 . S
O202 C195 1.185 . S
O202 Zn198 2.086 . S
C203 O199 1.278 . S
C203 O204 1.211 . S
O204 C203 1.211 . S
C205 O197 1.284 . S
C205 O206 1.273 . S
O206 C205 1.273 . S
O207 Zn198 1.977 . S
O207 C200 1.267 . S
C208 O209 1.166 1_545 S
C208 O215 1.185 . S
O209 C208 1.166 1_565 S
O210 Zn211 1.839 1_565 S
O210 C218 1.349 . S
Zn211 O210 1.839 1_545 S
Zn211 O212 2.032 . S
Zn211 O215 2.086 . S
Zn211 O220 1.977 . S
O212 Zn211 2.032 . S
O212 C216 1.278 . S
C213 O214 1.203 . S
C213 O220 1.267 . S
O214 C213 1.203 . S
O215 C208 1.185 . S
O215 Zn211 2.086 . S
C216 O212 1.278 . S
C216 O217 1.211 . S
O217 C216 1.211 . S
C218 O210 1.349 . S
C218 O219 1.273 . S
O219 C218 1.273 . S
O220 Zn211 1.977 . S
O220 C213 1.267 . S
C221 O222 1.160 . S
C221 O228 1.185 . S
O222 C221 1.160 . S
O223 Zn224 1.941 . S
O223 C231 1.290 1_655 S
Zn224 O223 1.941 . S
Zn224 O225 2.032 . S
Zn224 O228 2.086 . S
Zn224 O233 1.977 . S
O225 Zn224 2.032 . S
O225 C229 1.278 . S
C226 O227 1.203 . S
C226 O233 1.267 . S
O227 C226 1.203 . S
O228 C221 1.185 . S
O228 Zn224 2.086 . S
C229 O225 1.278 . S
C229 O230 1.211 . S
O230 C229 1.211 . S
C231 O223 1.290 1_455 S
C231 O232 1.293 . S
O232 C231 1.293 . S
O233 Zn224 1.977 . S
O233 C226 1.267 . S
C234 C235 1.384 . S
C234 C236 1.384 . S
C234 H262 0.931 . S
C235 C234 1.384 . S
C235 C238 1.382 . S
C236 C234 1.384 . S
C236 C237 1.381 . S
C236 H263 0.930 . S
C237 C236 1.381 . S
C237 C239 1.381 . S
C237 C240 1.487 . S
C238 C235 1.382 . S
C238 C239 1.387 . S
C238 H264 0.930 . S
C239 C237 1.381 . S
C239 C238 1.387 . S
C239 H265 0.931 . S
C240 C237 1.487 . S
C240 C247 1.399 . S
C240 N278 1.343 . S
C241 C242 1.384 . S
C241 C243 1.384 . S
C241 H266 0.931 . S
C242 C241 1.384 . S
C242 C245 1.382 . S
C243 C241 1.384 . S
C243 C244 1.381 . S
C243 H267 0.930 . S
C244 C243 1.381 . S
C244 C246 1.381 . S
C244 C247 1.487 . S
C245 C242 1.382 . S
C245 C246 1.387 . S
C245 H268 0.930 . S
C246 C244 1.381 . S
C246 C245 1.387 . S
C246 H269 0.931 . S
C247 C240 1.399 . S
C247 C244 1.487 . S
C247 N279 1.343 . S
C248 C249 1.384 . S
C248 C250 1.384 . S
C248 H270 0.931 . S
C249 C248 1.384 . S
C249 C252 1.382 . S
C250 C248 1.384 . S
C250 C251 1.381 . S
C250 H271 0.930 . S
C251 C250 1.381 . S
C251 C253 1.381 . S
C251 C254 1.487 . S
C252 C249 1.382 . S
C252 C253 1.387 . S
C252 H272 0.930 . S
C253 C251 1.381 . S
C253 C252 1.387 . S
C253 H273 0.931 . S
C254 C251 1.487 . S
C254 C261 1.399 . S
C254 N279 1.343 . S
C255 C256 1.384 . S
C255 C257 1.384 . S
C255 H274 0.931 . S
C256 C255 1.384 . S
C256 C259 1.382 . S
C257 C255 1.384 . S
C257 C258 1.381 . S
C257 H275 0.930 . S
C258 C257 1.381 . S
C258 C260 1.381 . S
C258 C261 1.487 . S
C259 C256 1.382 . S
C259 C260 1.387 . S
C259 H276 0.930 . S
C260 C258 1.381 . S
C260 C259 1.387 . S
C260 H277 0.931 . S
C261 C254 1.399 . S
C261 C258 1.487 . S
C261 N278 1.343 . S
H262 C234 0.931 . S
H263 C236 0.930 . S
H264 C238 0.930 . S
H265 C239 0.931 . S
H266 C241 0.931 . S
H267 C243 0.930 . S
H268 C245 0.930 . S
H269 C246 0.931 . S
H270 C248 0.931 . S
H271 C250 0.930 . S
H272 C252 0.930 . S
H273 C253 0.931 . S
H274 C255 0.931 . S
H275 C257 0.930 . S
H276 C259 0.930 . S
H277 C260 0.931 . S
N278 C240 1.343 . S
N278 C261 1.343 . S
N279 C247 1.343 . S
N279 C254 1.343 . S
C280 C281 1.384 . S
C280 C282 1.384 . S
C280 H308 0.931 . S
C281 C280 1.384 . S
C281 C284 1.382 . S
C282 C280 1.384 . S
C282 C283 1.381 . S
C282 H309 0.930 . S
C283 C282 1.381 . S
C283 C285 1.381 . S
C283 C286 1.487 . S
C284 C281 1.382 . S
C284 C285 1.387 . S
C284 H310 0.930 . S
C285 C283 1.381 . S
C285 C284 1.387 . S
C285 H311 0.931 . S
C286 C283 1.487 . S
C286 C293 1.399 . S
C286 N324 1.343 . S
C287 C288 1.384 . S
C287 C289 1.384 . S
C287 H312 0.931 . S
C288 C287 1.384 . S
C288 C291 1.382 . S
C289 C287 1.384 . S
C289 C290 1.381 . S
C289 H313 0.930 . S
C290 C289 1.381 . S
C290 C292 1.381 . S
C290 C293 1.487 . S
C291 C288 1.382 . S
C291 C292 1.387 . S
C291 H314 0.930 . S
C292 C290 1.381 . S
C292 C291 1.387 . S
C292 H315 0.931 . S
C293 C286 1.399 . S
C293 C290 1.487 . S
C293 N325 1.343 . S
C294 C295 1.384 . S
C294 C296 1.384 . S
C294 H316 0.931 . S
C295 C294 1.384 . S
C295 C298 1.382 . S
C296 C294 1.384 . S
C296 C297 1.381 . S
C296 H317 0.930 . S
C297 C296 1.381 . S
C297 C299 1.381 . S
C297 C300 1.487 . S
C298 C295 1.382 . S
C298 C299 1.387 . S
C298 H318 0.930 . S
C299 C297 1.381 . S
C299 C298 1.387 . S
C299 H319 0.931 . S
C300 C297 1.487 . S
C300 C307 1.399 . S
C300 N325 1.343 . S
C301 C302 1.384 . S
C301 C303 1.384 . S
C301 H320 0.931 . S
C302 C301 1.384 . S
C302 C305 1.382 . S
C303 C301 1.384 . S
C303 C304 1.381 . S
C303 H321 0.930 . S
C304 C303 1.381 . S
C304 C306 1.381 . S
C304 C307 1.487 . S
C305 C302 1.382 . S
C305 C306 1.387 . S
C305 H322 0.930 . S
C306 C304 1.381 . S
C306 C305 1.387 . S
C306 H323 0.931 . S
C307 C300 1.399 . S
C307 C304 1.487 . S
C307 N324 1.343 . S
H308 C280 0.931 . S
H309 C282 0.930 . S
H310 C284 0.930 . S
H311 C285 0.931 . S
H312 C287 0.931 . S
H313 C289 0.930 . S
H314 C291 0.930 . S
H315 C292 0.931 . S
H316 C294 0.931 . S
H317 C296 0.930 . S
H318 C298 0.930 . S
H319 C299 0.931 . S
H320 C301 0.931 . S
H321 C303 0.930 . S
H322 C305 0.930 . S
H323 C306 0.931 . S
N324 C286 1.343 . S
N324 C307 1.343 . S
N325 C293 1.343 . S
N325 C300 1.343 . S
C326 C327 1.384 . S
C326 C328 1.384 . S
C326 H354 0.931 . S
C327 C326 1.384 . S
C327 C330 1.382 . S
C328 C326 1.384 . S
C328 C329 1.381 . S
C328 H355 0.930 . S
C329 C328 1.381 . S
C329 C331 1.381 . S
C329 C332 1.487 . S
C330 C327 1.382 . S
C330 C331 1.387 . S
C330 H356 0.930 . S
C331 C329 1.381 . S
C331 C330 1.387 . S
C331 H357 0.931 . S
C332 C329 1.487 . S
C332 C339 1.399 . S
C332 N370 1.343 . S
C333 C334 1.384 . S
C333 C335 1.384 . S
C333 H358 0.931 . S
C334 C333 1.384 . S
C334 C337 1.382 . S
C335 C333 1.384 . S
C335 C336 1.381 . S
C335 H359 0.930 . S
C336 C335 1.381 . S
C336 C338 1.381 . S
C336 C339 1.487 . S
C337 C334 1.382 . S
C337 C338 1.387 . S
C337 H360 0.930 . S
C338 C336 1.381 . S
C338 C337 1.387 . S
C338 H361 0.931 . S
C339 C332 1.399 . S
C339 C336 1.487 . S
C339 N371 1.343 . S
C340 C341 1.384 . S
C340 C342 1.384 . S
C340 H362 0.931 . S
C341 C340 1.384 . S
C341 C344 1.382 . S
C342 C340 1.384 . S
C342 C343 1.381 . S
C342 H363 0.930 . S
C343 C342 1.381 . S
C343 C345 1.381 . S
C343 C346 1.487 . S
C344 C341 1.382 . S
C344 C345 1.387 . S
C344 H364 0.930 . S
C345 C343 1.381 . S
C345 C344 1.387 . S
C345 H365 0.931 . S
C346 C343 1.487 . S
C346 C353 1.399 . S
C346 N371 1.343 . S
C347 C348 1.384 . S
C347 C349 1.384 . S
C347 H366 0.931 . S
C348 C347 1.384 . S
C348 C351 1.382 . S
C349 C347 1.384 . S
C349 C350 1.381 . S
C349 H367 0.930 . S
C350 C349 1.381 . S
C350 C352 1.381 . S
C350 C353 1.487 . S
C351 C348 1.382 . S
C351 C352 1.387 . S
C351 H368 0.930 . S
C352 C350 1.381 . S
C352 C351 1.387 . S
C352 H369 0.931 . S
C353 C346 1.399 . S
C353 C350 1.487 . S
C353 N370 1.343 . S
H354 C326 0.931 . S
H355 C328 0.930 . S
H356 C330 0.930 . S
H357 C331 0.931 . S
H358 C333 0.931 . S
H359 C335 0.930 . S
H360 C337 0.930 . S
H361 C338 0.931 . S
H362 C340 0.931 . S
H363 C342 0.930 . S
H364 C344 0.930 . S
H365 C345 0.931 . S
H366 C347 0.931 . S
H367 C349 0.930 . S
H368 C351 0.930 . S
H369 C352 0.931 . S
N370 C332 1.343 . S
N370 C353 1.343 . S
N371 C339 1.343 . S
N371 C346 1.343 . S
C372 C373 1.384 . S
C372 C374 1.384 . S
C372 H400 0.931 . S
C373 C372 1.384 . S
C373 C376 1.382 . S
C374 C372 1.384 . S
C374 C375 1.381 . S
C374 H401 0.930 . S
C375 C374 1.381 . S
C375 C377 1.381 . S
C375 C378 1.487 . S
C376 C373 1.382 . S
C376 C377 1.387 . S
C376 H402 0.930 . S
C377 C375 1.381 . S
C377 C376 1.387 . S
C377 H403 0.931 . S
C378 C375 1.487 . S
C378 C385 1.399 . S
C378 N416 1.343 . S
C379 C380 1.384 . S
C379 C381 1.384 . S
C379 H404 0.931 . S
C380 C379 1.384 . S
C380 C383 1.382 . S
C381 C379 1.384 . S
C381 C382 1.381 . S
C381 H405 0.930 . S
C382 C381 1.381 . S
C382 C384 1.381 . S
C382 C385 1.487 . S
C383 C380 1.382 . S
C383 C384 1.387 . S
C383 H406 0.930 . S
C384 C382 1.381 . S
C384 C383 1.387 . S
C384 H407 0.931 . S
C385 C378 1.399 . S
C385 C382 1.487 . S
C385 N417 1.343 . S
C386 C387 1.384 . S
C386 C388 1.384 . S
C386 H408 0.931 . S
C387 C386 1.384 . S
C387 C390 1.382 . S
C388 C386 1.384 . S
C388 C389 1.381 . S
C388 H409 0.930 . S
C389 C388 1.381 . S
C389 C391 1.381 . S
C389 C392 1.487 . S
C390 C387 1.382 . S
C390 C391 1.387 . S
C390 H410 0.930 . S
C391 C389 1.381 . S
C391 C390 1.387 . S
C391 H411 0.931 . S
C392 C389 1.487 . S
C392 C399 1.399 . S
C392 N417 1.343 . S
C393 C394 1.384 . S
C393 C395 1.384 . S
C393 H412 0.931 . S
C394 C393 1.384 . S
C394 C397 1.382 . S
C395 C393 1.384 . S
C395 C396 1.381 . S
C395 H413 0.930 . S
C396 C395 1.381 . S
C396 C398 1.381 . S
C396 C399 1.487 . S
C397 C394 1.382 . S
C397 C398 1.387 . S
C397 H414 0.930 . S
C398 C396 1.381 . S
C398 C397 1.387 . S
C398 H415 0.931 . S
C399 C392 1.399 . S
C399 C396 1.487 . S
C399 N416 1.343 . S
H400 C372 0.931 . S
H401 C374 0.930 . S
H402 C376 0.930 . S
H403 C377 0.931 . S
H404 C379 0.931 . S
H405 C381 0.930 . S
H406 C383 0.930 . S
H407 C384 0.931 . S
H408 C386 0.931 . S
H409 C388 0.930 . S
H410 C390 0.930 . S
H411 C391 0.931 . S
H412 C393 0.931 . S
H413 C395 0.930 . S
H414 C397 0.930 . S
H415 C398 0.931 . S
N416 C378 1.343 . S
N416 C399 1.343 . S
N417 C385 1.343 . S
N417 C392 1.343 . S
C418 C419 1.384 . S
C418 C420 1.384 . S
C418 H446 0.931 . S
C419 C418 1.384 . S
C419 C422 1.382 . S
C420 C418 1.384 . S
C420 C421 1.381 . S
C420 H447 0.930 . S
C421 C420 1.381 . S
C421 C423 1.381 . S
C421 C424 1.487 . S
C422 C419 1.382 . S
C422 C423 1.387 . S
C422 H448 0.930 . S
C423 C421 1.381 . S
C423 C422 1.387 . S
C423 H449 0.931 . S
C424 C421 1.487 . S
C424 C431 1.399 . S
C424 N462 1.343 . S
C425 C426 1.384 . S
C425 C427 1.384 . S
C425 H450 0.931 . S
C426 C425 1.384 . S
C426 C429 1.382 . S
C427 C425 1.384 . S
C427 C428 1.381 . S
C427 H451 0.930 . S
C428 C427 1.381 . S
C428 C430 1.381 . S
C428 C431 1.487 . S
C429 C426 1.382 . S
C429 C430 1.387 . S
C429 H452 0.930 . S
C430 C428 1.381 . S
C430 C429 1.387 . S
C430 H453 0.931 . S
C431 C424 1.399 . S
C431 C428 1.487 . S
C431 N463 1.343 . S
C432 C433 1.384 . S
C432 C434 1.384 . S
C432 H454 0.931 . S
C433 C432 1.384 . S
C433 C436 1.382 . S
C434 C432 1.384 . S
C434 C435 1.381 . S
C434 H455 0.930 . S
C435 C434 1.381 . S
C435 C437 1.381 . S
C435 C438 1.487 . S
C436 C433 1.382 . S
C436 C437 1.387 . S
C436 H456 0.930 . S
C437 C435 1.381 . S
C437 C436 1.387 . S
C437 H457 0.931 . S
C438 C435 1.487 . S
C438 C445 1.399 . S
C438 N463 1.343 . S
C439 C440 1.384 . S
C439 C441 1.384 . S
C439 H458 0.931 . S
C440 C439 1.384 . S
C440 C443 1.382 . S
C441 C439 1.384 . S
C441 C442 1.381 . S
C441 H459 0.930 . S
C442 C441 1.381 . S
C442 C444 1.381 . S
C442 C445 1.487 . S
C443 C440 1.382 . S
C443 C444 1.387 . S
C443 H460 0.930 . S
C444 C442 1.381 . S
C444 C443 1.387 . S
C444 H461 0.931 . S
C445 C438 1.399 . S
C445 C442 1.487 . S
C445 N462 1.343 . S
H446 C418 0.931 . S
H447 C420 0.930 . S
H448 C422 0.930 . S
H449 C423 0.931 . S
H450 C425 0.931 . S
H451 C427 0.930 . S
H452 C429 0.930 . S
H453 C430 0.931 . S
H454 C432 0.931 . S
H455 C434 0.930 . S
H456 C436 0.930 . S
H457 C437 0.931 . S
H458 C439 0.931 . S
H459 C441 0.930 . S
H460 C443 0.930 . S
H461 C444 0.931 . S
N462 C424 1.343 . S
N462 C445 1.343 . S
N463 C431 1.343 . S
N463 C438 1.343 . S
C464 C465 1.384 . S
C464 C466 1.384 . S
C464 H492 0.931 . S
C465 C464 1.384 . S
C465 C468 1.382 . S
C466 C464 1.384 . S
C466 C467 1.381 . S
C466 H493 0.930 . S
C467 C466 1.381 . S
C467 C469 1.381 . S
C467 C470 1.487 . S
C468 C465 1.382 . S
C468 C469 1.387 . S
C468 H494 0.930 . S
C469 C467 1.381 . S
C469 C468 1.387 . S
C469 H495 0.931 . S
C470 C467 1.487 . S
C470 C477 1.399 . S
C470 N508 1.343 . S
C471 C472 1.384 . S
C471 C473 1.384 . S
C471 H496 0.931 . S
C472 C471 1.384 . S
C472 C475 1.382 . S
C473 C471 1.384 . S
C473 C474 1.381 . S
C473 H497 0.930 . S
C474 C473 1.381 . S
C474 C476 1.381 . S
C474 C477 1.487 . S
C475 C472 1.382 . S
C475 C476 1.387 . S
C475 H498 0.930 . S
C476 C474 1.381 . S
C476 C475 1.387 . S
C476 H499 0.931 . S
C477 C470 1.399 . S
C477 C474 1.487 . S
C477 N509 1.343 . S
C478 C479 1.384 . S
C478 C480 1.384 . S
C478 H500 0.931 . S
C479 C478 1.384 . S
C479 C482 1.382 . S
C480 C478 1.384 . S
C480 C481 1.381 . S
C480 H501 0.930 . S
C481 C480 1.381 . S
C481 C483 1.381 . S
C481 C484 1.487 . S
C482 C479 1.382 . S
C482 C483 1.387 . S
C482 H502 0.930 . S
C483 C481 1.381 . S
C483 C482 1.387 . S
C483 H503 0.931 . S
C484 C481 1.487 . S
C484 C491 1.399 . S
C484 N509 1.343 . S
C485 C486 1.384 . S
C485 C487 1.384 . S
C485 H504 0.931 . S
C486 C485 1.384 . S
C486 C489 1.382 . S
C487 C485 1.384 . S
C487 C488 1.381 . S
C487 H505 0.930 . S
C488 C487 1.381 . S
C488 C490 1.381 . S
C488 C491 1.487 . S
C489 C486 1.382 . S
C489 C490 1.387 . S
C489 H506 0.930 . S
C490 C488 1.381 . S
C490 C489 1.387 . S
C490 H507 0.931 . S
C491 C484 1.399 . S
C491 C488 1.487 . S
C491 N508 1.343 . S
H492 C464 0.931 . S
H493 C466 0.930 . S
H494 C468 0.930 . S
H495 C469 0.931 . S
H496 C471 0.931 . S
H497 C473 0.930 . S
H498 C475 0.930 . S
H499 C476 0.931 . S
H500 C478 0.931 . S
H501 C480 0.930 . S
H502 C482 0.930 . S
H503 C483 0.931 . S
H504 C485 0.931 . S
H505 C487 0.930 . S
H506 C489 0.930 . S
H507 C490 0.931 . S
N508 C470 1.343 . S
N508 C491 1.343 . S
N509 C477 1.343 . S
N509 C484 1.343 . S
C510 C511 1.384 . S
C510 C512 1.384 . S
C510 H538 0.931 . S
C511 C510 1.384 . S
C511 C514 1.382 . S
C512 C510 1.384 . S
C512 C513 1.381 . S
C512 H539 0.930 . S
C513 C512 1.381 . S
C513 C515 1.381 . S
C513 C516 1.487 . S
C514 C511 1.382 . S
C514 C515 1.387 . S
C514 H540 0.930 . S
C515 C513 1.381 . S
C515 C514 1.387 . S
C515 H541 0.931 . S
C516 C513 1.487 . S
C516 C523 1.399 . S
C516 N554 1.343 . S
C517 C518 1.384 . S
C517 C519 1.384 . S
C517 H542 0.931 . S
C518 C517 1.384 . S
C518 C521 1.382 . S
C519 C517 1.384 . S
C519 C520 1.381 . S
C519 H543 0.930 . S
C520 C519 1.381 . S
C520 C522 1.381 . S
C520 C523 1.487 . S
C521 C518 1.382 . S
C521 C522 1.387 . S
C521 H544 0.930 . S
C522 C520 1.381 . S
C522 C521 1.387 . S
C522 H545 0.931 . S
C523 C516 1.399 . S
C523 C520 1.487 . S
C523 N555 1.343 . S
C524 C525 1.384 . S
C524 C526 1.384 . S
C524 H546 0.931 . S
C525 C524 1.384 . S
C525 C528 1.382 . S
C526 C524 1.384 . S
C526 C527 1.381 . S
C526 H547 0.930 . S
C527 C526 1.381 . S
C527 C529 1.381 . S
C527 C530 1.487 . S
C528 C525 1.382 . S
C528 C529 1.387 . S
C528 H548 0.930 . S
C529 C527 1.381 . S
C529 C528 1.387 . S
C529 H549 0.931 . S
C530 C527 1.487 . S
C530 C537 1.399 . S
C530 N555 1.343 . S
C531 C532 1.384 . S
C531 C533 1.384 . S
C531 H550 0.931 . S
C532 C531 1.384 . S
C532 C535 1.382 . S
C533 C531 1.384 . S
C533 C534 1.381 . S
C533 H551 0.930 . S
C534 C533 1.381 . S
C534 C536 1.381 . S
C534 C537 1.487 . S
C535 C532 1.382 . S
C535 C536 1.387 . S
C535 H552 0.930 . S
C536 C534 1.381 . S
C536 C535 1.387 . S
C536 H553 0.931 . S
C537 C530 1.399 . S
C537 C534 1.487 . S
C537 N554 1.343 . S
H538 C510 0.931 . S
H539 C512 0.930 . S
H540 C514 0.930 . S
H541 C515 0.931 . S
H542 C517 0.931 . S
H543 C519 0.930 . S
H544 C521 0.930 . S
H545 C522 0.931 . S
H546 C524 0.931 . S
H547 C526 0.930 . S
H548 C528 0.930 . S
H549 C529 0.931 . S
H550 C531 0.931 . S
H551 C533 0.930 . S
H552 C535 0.930 . S
H553 C536 0.931 . S
N554 C516 1.343 . S
N554 C537 1.343 . S
N555 C523 1.343 . S
N555 C530 1.343 . S
C556 C557 1.384 . S
C556 C558 1.384 . S
C556 H584 0.931 . S
C557 C556 1.384 . S
C557 C560 1.382 . S
C558 C556 1.384 . S
C558 C559 1.381 . S
C558 H585 0.930 . S
C559 C558 1.381 . S
C559 C561 1.381 . S
C559 C562 1.487 . S
C560 C557 1.382 . S
C560 C561 1.387 . S
C560 H586 0.930 . S
C561 C559 1.381 . S
C561 C560 1.387 . S
C561 H587 0.931 . S
C562 C559 1.487 . S
C562 C569 1.399 . S
C562 N600 1.343 . S
C563 C564 1.384 . S
C563 C565 1.384 . S
C563 H588 0.931 . S
C564 C563 1.384 . S
C564 C567 1.382 . S
C565 C563 1.384 . S
C565 C566 1.381 . S
C565 H589 0.930 . S
C566 C565 1.381 . S
C566 C568 1.381 . S
C566 C569 1.487 . S
C567 C564 1.382 . S
C567 C568 1.387 . S
C567 H590 0.930 . S
C568 C566 1.381 . S
C568 C567 1.387 . S
C568 H591 0.931 . S
C569 C562 1.399 . S
C569 C566 1.487 . S
C569 N601 1.343 . S
C570 C571 1.384 . S
C570 C572 1.384 . S
C570 H592 0.931 . S
C571 C570 1.384 . S
C571 C574 1.382 . S
C572 C570 1.384 . S
C572 C573 1.381 . S
C572 H593 0.930 . S
C573 C572 1.381 . S
C573 C575 1.381 . S
C573 C576 1.487 . S
C574 C571 1.382 . S
C574 C575 1.387 . S
C574 H594 0.930 . S
C575 C573 1.381 . S
C575 C574 1.387 . S
C575 H595 0.931 . S
C576 C573 1.487 . S
C576 C583 1.399 . S
C576 N601 1.343 . S
C577 C578 1.384 . S
C577 C579 1.384 . S
C577 H596 0.931 . S
C578 C577 1.384 . S
C578 C581 1.382 . S
C579 C577 1.384 . S
C579 C580 1.381 . S
C579 H597 0.930 . S
C580 C579 1.381 . S
C580 C582 1.381 . S
C580 C583 1.487 . S
C581 C578 1.382 . S
C581 C582 1.387 . S
C581 H598 0.930 . S
C582 C580 1.381 . S
C582 C581 1.387 . S
C582 H599 0.931 . S
C583 C576 1.399 . S
C583 C580 1.487 . S
C583 N600 1.343 . S
H584 C556 0.931 . S
H585 C558 0.930 . S
H586 C560 0.930 . S
H587 C561 0.931 . S
H588 C563 0.931 . S
H589 C565 0.930 . S
H590 C567 0.930 . S
H591 C568 0.931 . S
H592 C570 0.931 . S
H593 C572 0.930 . S
H594 C574 0.930 . S
H595 C575 0.931 . S
H596 C577 0.931 . S
H597 C579 0.930 . S
H598 C581 0.930 . S
H599 C582 0.931 . S
N600 C562 1.343 . S
N600 C583 1.343 . S
N601 C569 1.343 . S
N601 C576 1.343 . S
C602 C603 1.384 . S
C602 C604 1.384 . S
C602 H630 0.931 . S
C603 C602 1.384 . S
C603 C606 1.382 . S
C604 C602 1.384 . S
C604 C605 1.381 . S
C604 H631 0.930 . S
C605 C604 1.381 . S
C605 C607 1.381 . S
C605 C608 1.487 . S
C606 C603 1.382 . S
C606 C607 1.387 . S
C606 H632 0.930 . S
C607 C605 1.381 . S
C607 C606 1.387 . S
C607 H633 0.931 . S
C608 C605 1.487 . S
C608 C615 1.399 . S
C608 N646 1.343 . S
C609 C610 1.384 . S
C609 C611 1.384 . S
C609 H634 0.931 . S
C610 C609 1.384 . S
C610 C613 1.382 . S
C611 C609 1.384 . S
C611 C612 1.381 . S
C611 H635 0.930 . S
C612 C611 1.381 . S
C612 C614 1.381 . S
C612 C615 1.487 . S
C613 C610 1.382 . S
C613 C614 1.387 . S
C613 H636 0.930 . S
C614 C612 1.381 . S
C614 C613 1.387 . S
C614 H637 0.931 . S
C615 C608 1.399 . S
C615 C612 1.487 . S
C615 N647 1.343 . S
C616 C617 1.384 . S
C616 C618 1.384 . S
C616 H638 0.931 . S
C617 C616 1.384 . S
C617 C620 1.382 . S
C618 C616 1.384 . S
C618 C619 1.381 . S
C618 H639 0.930 . S
C619 C618 1.381 . S
C619 C621 1.381 . S
C619 C622 1.487 . S
C620 C617 1.382 . S
C620 C621 1.387 . S
C620 H640 0.930 . S
C621 C619 1.381 . S
C621 C620 1.387 . S
C621 H641 0.931 . S
C622 C619 1.487 . S
C622 C629 1.399 . S
C622 N647 1.343 . S
C623 C624 1.384 . S
C623 C625 1.384 . S
C623 H642 0.931 . S
C624 C623 1.384 . S
C624 C627 1.382 . S
C625 C623 1.384 . S
C625 C626 1.381 . S
C625 H643 0.930 . S
C626 C625 1.381 . S
C626 C628 1.381 . S
C626 C629 1.487 . S
C627 C624 1.382 . S
C627 C628 1.387 . S
C627 H644 0.930 . S
C628 C626 1.381 . S
C628 C627 1.387 . S
C628 H645 0.931 . S
C629 C622 1.399 . S
C629 C626 1.487 . S
C629 N646 1.343 . S
H630 C602 0.931 . S
H631 C604 0.930 . S
H632 C606 0.930 . S
H633 C607 0.931 . S
H634 C609 0.931 . S
H635 C611 0.930 . S
H636 C613 0.930 . S
H637 C614 0.931 . S
H638 C616 0.931 . S
H639 C618 0.930 . S
H640 C620 0.930 . S
H641 C621 0.931 . S
H642 C623 0.931 . S
H643 C625 0.930 . S
H644 C627 0.930 . S
H645 C628 0.931 . S
N646 C608 1.343 . S
N646 C629 1.343 . S
N647 C615 1.343 . S
N647 C622 1.343 . S
C648 C649 1.384 . S
C648 C650 1.384 . S
C648 H676 0.931 . S
C649 C648 1.384 . S
C649 C652 1.382 1_655 S
C650 C648 1.384 . S
C650 C651 1.428 . S
C650 H677 0.930 . S
C651 C650 1.428 . S
C651 C653 1.359 1_655 S
C651 C654 1.467 1_655 S
C652 C649 1.382 1_455 S
C652 C653 1.387 . S
C652 H678 0.930 . S
C653 C651 1.359 1_455 S
C653 C652 1.387 . S
C653 H679 0.931 . S
C654 C651 1.467 1_455 S
C654 C661 1.399 1_455 S
C654 N692 1.305 . S
C655 C656 1.384 . S
C655 C657 1.384 . S
C655 H680 0.931 . S
C656 C655 1.384 . S
C656 C659 1.382 1_455 S
C657 C655 1.384 . S
C657 C658 1.379 1_455 S
C657 H681 0.930 . S
C658 C657 1.379 1_655 S
C658 C660 1.389 . S
C658 C661 1.492 . S
C659 C656 1.382 1_655 S
C659 C660 1.387 . S
C659 H682 0.930 . S
C660 C658 1.389 . S
C660 C659 1.387 . S
C660 H683 0.931 . S
C661 C654 1.399 1_655 S
C661 C658 1.492 . S
C661 N693 1.357 . S
C662 C663 1.384 . S
C662 C664 1.384 . S
C662 H684 0.931 . S
C663 C662 1.384 . S
C663 C666 1.382 1_455 S
C664 C662 1.384 . S
C664 C665 1.445 . S
C664 H685 0.930 . S
C665 C664 1.445 . S
C665 C667 1.351 1_455 S
C665 C668 1.459 . S
C666 C663 1.382 1_655 S
C666 C667 1.387 . S
C666 H686 0.930 . S
C667 C665 1.351 1_655 S
C667 C666 1.387 . S
C667 H687 0.931 . S
C668 C665 1.459 . S
C668 C675 1.399 . S
C668 N693 1.314 1_455 S
C669 C670 1.426 . S
C669 C671 1.384 . S
C669 H688 0.931 . S
C670 C669 1.426 . S
C670 C673 1.371 1_655 S
C671 C669 1.384 . S
C671 C672 1.377 1_655 S
C671 H689 0.930 . S
C672 C671 1.377 1_455 S
C672 C674 1.399 . S
C672 C675 1.492 . S
C673 C670 1.371 1_455 S
C673 C674 1.387 . S
C673 H690 0.930 . S
C674 C672 1.399 . S
C674 C673 1.387 . S
C674 H691 0.931 . S
C675 C668 1.399 . S
C675 C672 1.492 . S
C675 N692 1.357 . S
H676 C648 0.931 . S
H677 C650 0.930 . S
H678 C652 0.930 . S
H679 C653 0.931 . S
H680 C655 0.931 . S
H681 C657 0.930 . S
H682 C659 0.930 . S
H683 C660 0.931 . S
H684 C662 0.931 . S
H685 C664 0.930 . S
H686 C666 0.930 . S
H687 C667 0.931 . S
H688 C669 0.931 . S
H689 C671 0.930 . S
H690 C673 0.930 . S
H691 C674 0.931 . S
N692 C654 1.305 . S
N692 C675 1.357 . S
N693 C661 1.357 . S
N693 C668 1.314 1_655 S
C694 C695 1.384 . S
C694 C696 1.384 . S
C694 H722 0.931 . S
C695 C694 1.384 . S
C695 C698 1.382 . S
C696 C694 1.384 . S
C696 C697 1.381 . S
C696 H723 0.930 . S
C697 C696 1.381 . S
C697 C699 1.381 . S
C697 C700 1.487 . S
C698 C695 1.382 . S
C698 C699 1.387 . S
C698 H724 0.930 . S
C699 C697 1.381 . S
C699 C698 1.387 . S
C699 H725 0.931 . S
C700 C697 1.487 . S
C700 C707 1.399 . S
C700 N738 1.343 . S
C701 C702 1.384 . S
C701 C703 1.384 . S
C701 H726 0.931 . S
C702 C701 1.384 . S
C702 C705 1.382 . S
C703 C701 1.384 . S
C703 C704 1.381 . S
C703 H727 0.930 . S
C704 C703 1.381 . S
C704 C706 1.381 . S
C704 C707 1.487 . S
C705 C702 1.382 . S
C705 C706 1.387 . S
C705 H728 0.930 . S
C706 C704 1.381 . S
C706 C705 1.387 . S
C706 H729 0.931 . S
C707 C700 1.399 . S
C707 C704 1.487 . S
C707 N739 1.343 . S
C708 C709 1.384 . S
C708 C710 1.384 . S
C708 H730 0.931 . S
C709 C708 1.384 . S
C709 C712 1.382 . S
C710 C708 1.384 . S
C710 C711 1.381 . S
C710 H731 0.930 . S
C711 C710 1.381 . S
C711 C713 1.381 . S
C711 C714 1.487 . S
C712 C709 1.382 . S
C712 C713 1.387 . S
C712 H732 0.930 . S
C713 C711 1.381 . S
C713 C712 1.387 . S
C713 H733 0.931 . S
C714 C711 1.487 . S
C714 C721 1.399 . S
C714 N739 1.343 . S
C715 C716 1.384 . S
C715 C717 1.384 . S
C715 H734 0.931 . S
C716 C715 1.384 . S
C716 C719 1.382 . S
C717 C715 1.384 . S
C717 C718 1.381 . S
C717 H735 0.930 . S
C718 C717 1.381 . S
C718 C720 1.381 . S
C718 C721 1.487 . S
C719 C716 1.382 . S
C719 C720 1.387 . S
C719 H736 0.930 . S
C720 C718 1.381 . S
C720 C719 1.387 . S
C720 H737 0.931 . S
C721 C714 1.399 . S
C721 C718 1.487 . S
C721 N738 1.343 . S
H722 C694 0.931 . S
H723 C696 0.930 . S
H724 C698 0.930 . S
H725 C699 0.931 . S
H726 C701 0.931 . S
H727 C703 0.930 . S
H728 C705 0.930 . S
H729 C706 0.931 . S
H730 C708 0.931 . S
H731 C710 0.930 . S
H732 C712 0.930 . S
H733 C713 0.931 . S
H734 C715 0.931 . S
H735 C717 0.930 . S
H736 C719 0.930 . S
H737 C720 0.931 . S
N738 C700 1.343 . S
N738 C721 1.343 . S
N739 C707 1.343 . S
N739 C714 1.343 . S
C740 C741 1.384 1_545 S
C740 C742 1.384 . S
C740 H768 0.931 . S
C741 C740 1.384 1_565 S
C741 C744 1.382 . S
C742 C740 1.384 . S
C742 C743 1.381 1_545 S
C742 H769 0.930 . S
C743 C742 1.381 1_565 S
C743 C745 1.381 . S
C743 C746 1.487 . S
C744 C741 1.382 . S
C744 C745 1.387 . S
C744 H770 0.930 . S
C745 C743 1.381 . S
C745 C744 1.387 . S
C745 H771 0.931 . S
C746 C743 1.487 . S
C746 C753 1.399 1_565 S
C746 N784 1.343 . S
C747 C748 1.384 1_565 S
C747 C749 1.384 . S
C747 H772 0.931 . S
C748 C747 1.384 1_545 S
C748 C751 1.382 . S
C749 C747 1.384 . S
C749 C750 1.381 1_565 S
C749 H773 0.930 . S
C750 C749 1.381 1_545 S
C750 C752 1.381 . S
C750 C753 1.487 . S
C751 C748 1.382 . S
C751 C752 1.387 . S
C751 H774 0.930 . S
C752 C750 1.381 . S
C752 C751 1.387 . S
C752 H775 0.931 . S
C753 C746 1.399 1_545 S
C753 C750 1.487 . S
C753 N785 1.343 . S
C754 C755 1.384 1_565 S
C754 C756 1.384 . S
C754 H776 0.931 . S
C755 C754 1.384 1_545 S
C755 C758 1.382 . S
C756 C754 1.384 . S
C756 C757 1.381 1_565 S
C756 H777 0.930 . S
C757 C756 1.381 1_545 S
C757 C759 1.381 . S
C757 C760 1.487 . S
C758 C755 1.382 . S
C758 C759 1.387 . S
C758 H778 0.930 . S
C759 C757 1.381 . S
C759 C758 1.387 . S
C759 H779 0.931 . S
C760 C757 1.487 . S
C760 C767 1.399 1_545 S
C760 N785 1.343 . S
C761 C762 1.384 1_545 S
C761 C763 1.384 . S
C761 H780 0.931 . S
C762 C761 1.384 1_565 S
C762 C765 1.382 . S
C763 C761 1.384 . S
C763 C764 1.381 1_545 S
C763 H781 0.930 . S
C764 C763 1.381 1_565 S
C764 C766 1.381 . S
C764 C767 1.487 . S
C765 C762 1.382 . S
C765 C766 1.387 . S
C765 H782 0.930 . S
C766 C764 1.381 . S
C766 C765 1.387 . S
C766 H783 0.931 . S
C767 C760 1.399 1_565 S
C767 C764 1.487 . S
C767 N784 1.343 . S
H768 C740 0.931 . S
H769 C742 0.930 . S
H770 C744 0.930 . S
H771 C745 0.931 . S
H772 C747 0.931 . S
H773 C749 0.930 . S
H774 C751 0.930 . S
H775 C752 0.931 . S
H776 C754 0.931 . S
H777 C756 0.930 . S
H778 C758 0.930 . S
H779 C759 0.931 . S
H780 C761 0.931 . S
H781 C763 0.930 . S
H782 C765 0.930 . S
H783 C766 0.931 . S
N784 C746 1.343 . S
N784 C767 1.343 . S
N785 C753 1.343 . S
N785 C760 1.343 . S
C786 C787 1.384 . S
C786 C788 1.384 . S
C786 H814 0.931 . S
C787 C786 1.384 . S
C787 C790 1.382 1_545 S
C788 C786 1.384 . S
C788 C789 1.381 1_545 S
C788 H815 0.930 . S
C789 C788 1.381 1_565 S
C789 C791 1.382 . S
C789 C792 1.495 . S
C790 C787 1.382 1_565 S
C790 C791 1.387 . S
C790 H816 0.930 . S
C791 C789 1.382 . S
C791 C790 1.387 . S
C791 H817 0.931 . S
C792 C789 1.495 . S
C792 C799 1.399 1_565 S
C792 N830 1.360 . S
C793 C794 1.384 . S
C793 C795 1.384 . S
C793 H818 0.931 . S
C794 C793 1.384 . S
C794 C797 1.382 1_565 S
C795 C793 1.384 . S
C795 C796 1.418 . S
C795 H819 0.930 . S
C796 C795 1.418 . S
C796 C798 1.364 1_565 S
C796 C799 1.468 1_565 S
C797 C794 1.382 1_545 S
C797 C798 1.387 . S
C797 H820 0.930 . S
C798 C796 1.364 1_545 S
C798 C797 1.387 . S
C798 H821 0.931 . S
C799 C792 1.399 1_545 S
C799 C796 1.468 1_545 S
C799 N831 1.310 . S
C800 C801 1.384 . S
C800 C802 1.384 . S
C800 H822 0.931 . S
C801 C800 1.384 . S
C801 C804 1.382 1_565 S
C802 C800 1.384 . S
C802 C803 1.379 1_565 S
C802 H823 0.930 . S
C803 C802 1.379 1_545 S
C803 C805 1.391 . S
C803 C806 1.495 . S
C804 C801 1.382 1_545 S
C804 C805 1.387 . S
C804 H824 0.930 . S
C805 C803 1.391 . S
C805 C804 1.387 . S
C805 H825 0.931 . S
C806 C803 1.495 . S
C806 C813 1.400 . S
C806 N831 1.360 . S
C807 C808 1.384 . S
C807 C809 1.384 . S
C807 H826 0.931 . S
C808 C807 1.384 . S
C808 C811 1.382 1_545 S
C809 C807 1.384 . S
C809 C810 1.434 . S
C809 H827 0.930 . S
C810 C809 1.434 . S
C810 C812 1.357 1_545 S
C810 C813 1.460 . S
C811 C808 1.382 1_565 S
C811 C812 1.387 . S
C811 H828 0.930 . S
C812 C810 1.357 1_565 S
C812 C811 1.387 . S
C812 H829 0.931 . S
C813 C806 1.400 . S
C813 C810 1.460 . S
C813 N830 1.317 1_545 S
H814 C786 0.931 . S
H815 C788 0.930 . S
H816 C790 0.930 . S
H817 C791 0.931 . S
H818 C793 0.931 . S
H819 C795 0.930 . S
H820 C797 0.930 . S
H821 C798 0.931 . S
H822 C800 0.931 . S
H823 C802 0.930 . S
H824 C804 0.930 . S
H825 C805 0.931 . S
H826 C807 0.931 . S
H827 C809 0.930 . S
H828 C811 0.930 . S
H829 C812 0.931 . S
N830 C792 1.360 . S
N830 C813 1.317 1_565 S
N831 C799 1.310 . S
N831 C806 1.360 . S
C832 C833 1.384 . S
C832 C834 1.384 . S
C832 H860 0.931 . S
C833 C832 1.384 . S
C833 C836 1.382 1_655 S
C834 C832 1.384 . S
C834 C835 1.381 . S
C834 H861 0.930 . S
C835 C834 1.381 . S
C835 C837 1.381 1_655 S
C835 C838 1.492 . S
C836 C833 1.382 1_455 S
C836 C837 1.387 . S
C836 H862 0.930 . S
C837 C835 1.381 1_455 S
C837 C836 1.387 . S
C837 H863 0.931 . S
C838 C835 1.492 . S
C838 C845 1.399 . S
C838 N876 1.317 1_655 S
C839 C840 1.384 . S
C839 C841 1.384 . S
C839 H864 0.931 . S
C840 C839 1.384 . S
C840 C843 1.382 1_455 S
C841 C839 1.384 . S
C841 C842 1.379 1_455 S
C841 H865 0.930 . S
C842 C841 1.379 1_655 S
C842 C844 1.390 . S
C842 C845 1.496 . S
C843 C840 1.382 1_655 S
C843 C844 1.387 . S
C843 H866 0.930 . S
C844 C842 1.390 . S
C844 C843 1.387 . S
C844 H867 0.931 . S
C845 C838 1.399 . S
C845 C842 1.496 . S
C845 N877 1.354 . S
C846 C847 1.384 . S
C846 C848 1.384 . S
C846 H868 0.931 . S
C847 C846 1.384 . S
C847 C850 1.382 1_455 S
C848 C846 1.384 . S
C848 C849 1.443 . S
C848 H869 0.930 . S
C849 C848 1.443 . S
C849 C851 1.352 1_455 S
C849 C852 1.455 . S
C850 C847 1.382 1_655 S
C850 C851 1.387 . S
C850 H870 0.930 . S
C851 C849 1.352 1_655 S
C851 C850 1.387 . S
C851 H871 0.931 . S
C852 C849 1.455 . S
C852 C859 1.399 . S
C852 N877 1.317 1_455 S
C853 C854 1.384 . S
C853 C855 1.384 . S
C853 H872 0.931 . S
C854 C853 1.384 . S
C854 C857 1.382 1_655 S
C855 C853 1.384 . S
C855 C856 1.381 1_655 S
C855 H873 0.930 . S
C856 C855 1.381 1_455 S
C856 C858 1.381 . S
C856 C859 1.496 . S
C857 C854 1.382 1_455 S
C857 C858 1.387 . S
C857 H874 0.930 . S
C858 C856 1.381 . S
C858 C857 1.387 . S
C858 H875 0.931 . S
C859 C852 1.399 . S
C859 C856 1.496 . S
C859 N876 1.354 . S
H860 C832 0.931 . S
H861 C834 0.930 . S
H862 C836 0.930 . S
H863 C837 0.931 . S
H864 C839 0.931 . S
H865 C841 0.930 . S
H866 C843 0.930 . S
H867 C844 0.931 . S
H868 C846 0.931 . S
H869 C848 0.930 . S
H870 C850 0.930 . S
H871 C851 0.931 . S
H872 C853 0.931 . S
H873 C855 0.930 . S
H874 C857 0.930 . S
H875 C858 0.931 . S
N876 C838 1.317 1_455 S
N876 C859 1.354 . S
N877 C845 1.354 . S
N877 C852 1.317 1_655 S
C878 C879 1.384 . S
C878 C880 1.384 . S
C878 H906 0.931 . S
C879 C878 1.384 . S
C879 C882 1.382 . S
C880 C878 1.384 . S
C880 C881 1.381 . S
C880 H907 0.930 . S
C881 C880 1.381 . S
C881 C883 1.381 . S
C881 C884 1.487 . S
C882 C879 1.382 . S
C882 C883 1.387 . S
C882 H908 0.930 . S
C883 C881 1.381 . S
C883 C882 1.387 . S
C883 H909 0.931 . S
C884 C881 1.487 . S
C884 C891 1.399 . S
C884 N922 1.343 . S
C885 C886 1.384 . S
C885 C887 1.384 . S
C885 H910 0.931 . S
C886 C885 1.384 . S
C886 C889 1.382 . S
C887 C885 1.384 . S
C887 C888 1.381 . S
C887 H911 0.930 . S
C888 C887 1.381 . S
C888 C890 1.381 . S
C888 C891 1.487 . S
C889 C886 1.382 . S
C889 C890 1.387 . S
C889 H912 0.930 . S
C890 C888 1.381 . S
C890 C889 1.387 . S
C890 H913 0.931 . S
C891 C884 1.399 . S
C891 C888 1.487 . S
C891 N923 1.343 . S
C892 C893 1.384 . S
C892 C894 1.384 . S
C892 H914 0.931 . S
C893 C892 1.384 . S
C893 C896 1.382 . S
C894 C892 1.384 . S
C894 C895 1.381 . S
C894 H915 0.930 . S
C895 C894 1.381 . S
C895 C897 1.381 . S
C895 C898 1.487 . S
C896 C893 1.382 . S
C896 C897 1.387 . S
C896 H916 0.930 . S
C897 C895 1.381 . S
C897 C896 1.387 . S
C897 H917 0.931 . S
C898 C895 1.487 . S
C898 C905 1.399 . S
C898 N923 1.343 . S
C899 C900 1.384 . S
C899 C901 1.384 . S
C899 H918 0.931 . S
C900 C899 1.384 . S
C900 C903 1.382 . S
C901 C899 1.384 . S
C901 C902 1.381 . S
C901 H919 0.930 . S
C902 C901 1.381 . S
C902 C904 1.381 . S
C902 C905 1.487 . S
C903 C900 1.382 . S
C903 C904 1.387 . S
C903 H920 0.930 . S
C904 C902 1.381 . S
C904 C903 1.387 . S
C904 H921 0.931 . S
C905 C898 1.399 . S
C905 C902 1.487 . S
C905 N922 1.343 . S
H906 C878 0.931 . S
H907 C880 0.930 . S
H908 C882 0.930 . S
H909 C883 0.931 . S
H910 C885 0.931 . S
H911 C887 0.930 . S
H912 C889 0.930 . S
H913 C890 0.931 . S
H914 C892 0.931 . S
H915 C894 0.930 . S
H916 C896 0.930 . S
H917 C897 0.931 . S
H918 C899 0.931 . S
H919 C901 0.930 . S
H920 C903 0.930 . S
H921 C904 0.931 . S
N922 C884 1.343 . S
N922 C905 1.343 . S
N923 C891 1.343 . S
N923 C898 1.343 . S
C924 C925 1.384 . S
C924 C926 1.384 . S
C924 H952 0.931 . S
C925 C924 1.384 . S
C925 C928 1.382 . S
C926 C924 1.384 . S
C926 C927 1.381 . S
C926 H953 0.930 . S
C927 C926 1.381 . S
C927 C929 1.381 . S
C927 C930 1.487 . S
C928 C925 1.382 . S
C928 C929 1.387 . S
C928 H954 0.930 . S
C929 C927 1.381 . S
C929 C928 1.387 . S
C929 H955 0.931 . S
C930 C927 1.487 . S
C930 C937 1.399 . S
C930 N968 1.343 . S
C931 C932 1.384 . S
C931 C933 1.384 . S
C931 H956 0.931 . S
C932 C931 1.384 . S
C932 C935 1.382 . S
C933 C931 1.384 . S
C933 C934 1.381 . S
C933 H957 0.930 . S
C934 C933 1.381 . S
C934 C936 1.381 . S
C934 C937 1.487 . S
C935 C932 1.382 . S
C935 C936 1.387 . S
C935 H958 0.930 . S
C936 C934 1.381 . S
C936 C935 1.387 . S
C936 H959 0.931 . S
C937 C930 1.399 . S
C937 C934 1.487 . S
C937 N969 1.343 . S
C938 C939 1.384 . S
C938 C940 1.384 . S
C938 H960 0.931 . S
C939 C938 1.384 . S
C939 C942 1.382 . S
C940 C938 1.384 . S
C940 C941 1.381 . S
C940 H961 0.930 . S
C941 C940 1.381 . S
C941 C943 1.381 . S
C941 C944 1.487 . S
C942 C939 1.382 . S
C942 C943 1.387 . S
C942 H962 0.930 . S
C943 C941 1.381 . S
C943 C942 1.387 . S
C943 H963 0.931 . S
C944 C941 1.487 . S
C944 C951 1.399 . S
C944 N969 1.343 . S
C945 C946 1.384 . S
C945 C947 1.384 . S
C945 H964 0.931 . S
C946 C945 1.384 . S
C946 C949 1.382 . S
C947 C945 1.384 . S
C947 C948 1.381 . S
C947 H965 0.930 . S
C948 C947 1.381 . S
C948 C950 1.381 . S
C948 C951 1.487 . S
C949 C946 1.382 . S
C949 C950 1.387 . S
C949 H966 0.930 . S
C950 C948 1.381 . S
C950 C949 1.387 . S
C950 H967 0.931 . S
C951 C944 1.399 . S
C951 C948 1.487 . S
C951 N968 1.343 . S
H952 C924 0.931 . S
H953 C926 0.930 . S
H954 C928 0.930 . S
H955 C929 0.931 . S
H956 C931 0.931 . S
H957 C933 0.930 . S
H958 C935 0.930 . S
H959 C936 0.931 . S
H960 C938 0.931 . S
H961 C940 0.930 . S
H962 C942 0.930 . S
H963 C943 0.931 . S
H964 C945 0.931 . S
H965 C947 0.930 . S
H966 C949 0.930 . S
H967 C950 0.931 . S
N968 C930 1.343 . S
N968 C951 1.343 . S
N969 C937 1.343 . S
N969 C944 1.343 . S
C970 C971 1.384 . S
C970 C972 1.384 . S
C970 H998 0.931 . S
C971 C970 1.384 . S
C971 C974 1.382 . S
C972 C970 1.384 . S
C972 C973 1.381 . S
C972 H999 0.930 . S
C973 C972 1.381 . S
C973 C975 1.381 . S
C973 C976 1.487 . S
C974 C971 1.382 . S
C974 C975 1.387 . S
C974 H1000 0.930 . S
C975 C973 1.381 . S
C975 C974 1.387 . S
C975 H1001 0.931 . S
C976 C973 1.487 . S
C976 C983 1.399 . S
C976 N1014 1.343 . S
C977 C978 1.384 . S
C977 C979 1.384 . S
C977 H1002 0.931 . S
C978 C977 1.384 . S
C978 C981 1.382 . S
C979 C977 1.384 . S
C979 C980 1.381 . S
C979 H1003 0.930 . S
C980 C979 1.381 . S
C980 C982 1.381 . S
C980 C983 1.487 . S
C981 C978 1.382 . S
C981 C982 1.387 . S
C981 H1004 0.930 . S
C982 C980 1.381 . S
C982 C981 1.387 . S
C982 H1005 0.931 . S
C983 C976 1.399 . S
C983 C980 1.487 . S
C983 N1015 1.343 . S
C984 C985 1.384 . S
C984 C986 1.384 . S
C984 H1006 0.931 . S
C985 C984 1.384 . S
C985 C988 1.382 . S
C986 C984 1.384 . S
C986 C987 1.381 . S
C986 H1007 0.930 . S
C987 C986 1.381 . S
C987 C989 1.381 . S
C987 C990 1.487 . S
C988 C985 1.382 . S
C988 C989 1.387 . S
C988 H1008 0.930 . S
C989 C987 1.381 . S
C989 C988 1.387 . S
C989 H1009 0.931 . S
C990 C987 1.487 . S
C990 C997 1.399 . S
C990 N1015 1.343 . S
C991 C992 1.384 . S
C991 C993 1.384 . S
C991 H1010 0.931 . S
C992 C991 1.384 . S
C992 C995 1.382 . S
C993 C991 1.384 . S
C993 C994 1.381 . S
C993 H1011 0.930 . S
C994 C993 1.381 . S
C994 C996 1.381 . S
C994 C997 1.487 . S
C995 C992 1.382 . S
C995 C996 1.387 . S
C995 H1012 0.930 . S
C996 C994 1.381 . S
C996 C995 1.387 . S
C996 H1013 0.931 . S
C997 C990 1.399 . S
C997 C994 1.487 . S
C997 N1014 1.343 . S
H998 C970 0.931 . S
H999 C972 0.930 . S
H1000 C974 0.930 . S
H1001 C975 0.931 . S
H1002 C977 0.931 . S
H1003 C979 0.930 . S
H1004 C981 0.930 . S
H1005 C982 0.931 . S
H1006 C984 0.931 . S
H1007 C986 0.930 . S
H1008 C988 0.930 . S
H1009 C989 0.931 . S
H1010 C991 0.931 . S
H1011 C993 0.930 . S
H1012 C995 0.930 . S
H1013 C996 0.931 . S
N1014 C976 1.343 . S
N1014 C997 1.343 . S
N1015 C983 1.343 . S
N1015 C990 1.343 . S
C1016 C1017 1.384 . S
C1016 C1018 1.384 . S
C1016 H1044 0.931 . S
C1017 C1016 1.384 . S
C1017 C1020 1.382 . S
C1018 C1016 1.384 . S
C1018 C1019 1.381 . S
C1018 H1045 0.930 . S
C1019 C1018 1.381 . S
C1019 C1021 1.381 . S
C1019 C1022 1.487 . S
C1020 C1017 1.382 . S
C1020 C1021 1.387 . S
C1020 H1046 0.930 . S
C1021 C1019 1.381 . S
C1021 C1020 1.387 . S
C1021 H1047 0.931 . S
C1022 C1019 1.487 . S
C1022 C1029 1.399 . S
C1022 N1060 1.343 . S
C1023 C1024 1.384 . S
C1023 C1025 1.384 . S
C1023 H1048 0.931 . S
C1024 C1023 1.384 . S
C1024 C1027 1.382 . S
C1025 C1023 1.384 . S
C1025 C1026 1.381 . S
C1025 H1049 0.930 . S
C1026 C1025 1.381 . S
C1026 C1028 1.381 . S
C1026 C1029 1.487 . S
C1027 C1024 1.382 . S
C1027 C1028 1.387 . S
C1027 H1050 0.930 . S
C1028 C1026 1.381 . S
C1028 C1027 1.387 . S
C1028 H1051 0.931 . S
C1029 C1022 1.399 . S
C1029 C1026 1.487 . S
C1029 N1061 1.343 . S
C1030 C1031 1.384 . S
C1030 C1032 1.384 . S
C1030 H1052 0.931 . S
C1031 C1030 1.384 . S
C1031 C1034 1.382 . S
C1032 C1030 1.384 . S
C1032 C1033 1.381 . S
C1032 H1053 0.930 . S
C1033 C1032 1.381 . S
C1033 C1035 1.381 . S
C1033 C1036 1.487 . S
C1034 C1031 1.382 . S
C1034 C1035 1.387 . S
C1034 H1054 0.930 . S
C1035 C1033 1.381 . S
C1035 C1034 1.387 . S
C1035 H1055 0.931 . S
C1036 C1033 1.487 . S
C1036 C1043 1.399 . S
C1036 N1061 1.343 . S
C1037 C1038 1.384 . S
C1037 C1039 1.384 . S
C1037 H1056 0.931 . S
C1038 C1037 1.384 . S
C1038 C1041 1.382 . S
C1039 C1037 1.384 . S
C1039 C1040 1.381 . S
C1039 H1057 0.930 . S
C1040 C1039 1.381 . S
C1040 C1042 1.381 . S
C1040 C1043 1.487 . S
C1041 C1038 1.382 . S
C1041 C1042 1.387 . S
C1041 H1058 0.930 . S
C1042 C1040 1.381 . S
C1042 C1041 1.387 . S
C1042 H1059 0.931 . S
C1043 C1036 1.399 . S
C1043 C1040 1.487 . S
C1043 N1060 1.343 . S
H1044 C1016 0.931 . S
H1045 C1018 0.930 . S
H1046 C1020 0.930 . S
H1047 C1021 0.931 . S
H1048 C1023 0.931 . S
H1049 C1025 0.930 . S
H1050 C1027 0.930 . S
H1051 C1028 0.931 . S
H1052 C1030 0.931 . S
H1053 C1032 0.930 . S
H1054 C1034 0.930 . S
H1055 C1035 0.931 . S
H1056 C1037 0.931 . S
H1057 C1039 0.930 . S
H1058 C1041 0.930 . S
H1059 C1042 0.931 . S
N1060 C1022 1.343 . S
N1060 C1043 1.343 . S
N1061 C1029 1.343 . S
N1061 C1036 1.343 . S
H1062 C1068 0.930 . S
H1063 C1072 0.928 1_455 S
H1064 C1077 0.929 . S
H1065 C1075 0.929 . S
H1066 C1070 0.923 1_455 S
H1067 C1076 0.929 . S
C1068 H1062 0.930 . S
C1068 C1069 1.367 . S
C1068 C1076 1.378 . S
C1069 C1068 1.367 . S
C1069 C1077 1.433 . S
C1070 H1066 0.923 1_655 S
C1070 C1072 1.375 . S
C1070 C1074 1.350 . S
C1071 C1074 1.463 . S
C1071 C1076 1.350 . S
C1071 N1079 1.427 . S
C1072 H1063 0.928 1_655 S
C1072 C1070 1.375 . S
C1072 C1073 1.372 . S
C1073 C1072 1.372 . S
C1073 C1075 1.433 . S
C1074 C1070 1.350 . S
C1074 C1071 1.463 . S
C1074 N1078 1.427 . S
C1075 H1065 0.929 . S
C1075 C1073 1.433 . S
C1075 N1078 1.384 . S
C1076 H1067 0.929 . S
C1076 C1068 1.378 . S
C1076 C1071 1.350 . S
C1077 H1064 0.929 . S
C1077 C1069 1.433 . S
C1077 N1079 1.384 . S
N1078 C1074 1.427 . S
N1078 C1075 1.384 . S
N1079 C1071 1.427 . S
N1079 C1077 1.384 . S
H1080 C1086 0.930 . S
H1081 C1090 0.930 . S
H1082 C1095 0.929 . S
H1083 C1093 0.929 . S
H1084 C1088 0.929 . S
H1085 C1094 0.929 . S
C1086 H1080 0.930 . S
C1086 C1087 1.367 . S
C1086 C1094 1.378 . S
C1087 C1086 1.367 . S
C1087 C1095 1.433 . S
C1088 H1084 0.929 . S
C1088 C1090 1.378 . S
C1088 C1092 1.350 . S
C1089 C1092 1.463 . S
C1089 C1094 1.350 . S
C1089 N1097 1.427 . S
C1090 H1081 0.930 . S
C1090 C1088 1.378 . S
C1090 C1091 1.367 . S
C1091 C1090 1.367 . S
C1091 C1093 1.433 . S
C1092 C1088 1.350 . S
C1092 C1089 1.463 . S
C1092 N1096 1.427 . S
C1093 H1083 0.929 . S
C1093 C1091 1.433 . S
C1093 N1096 1.384 . S
C1094 H1085 0.929 . S
C1094 C1086 1.378 . S
C1094 C1089 1.350 . S
C1095 H1082 0.929 . S
C1095 C1087 1.433 . S
C1095 N1097 1.384 . S
N1096 C1092 1.427 . S
N1096 C1093 1.384 . S
N1097 C1089 1.427 . S
N1097 C1095 1.384 . S
H1098 C1104 0.930 . S
H1099 C1108 0.930 . S
H1100 C1113 0.906 1_565 S
H1101 C1111 0.929 . S
H1102 C1106 0.929 . S
H1103 C1112 0.929 . S
C1104 H1098 0.930 . S
C1104 C1105 1.367 . S
C1104 C1112 1.378 . S
C1105 C1104 1.367 . S
C1105 C1113 1.488 . S
C1106 H1102 0.929 . S
C1106 C1108 1.378 . S
C1106 C1110 1.350 1_565 S
C1107 C1110 1.463 . S
C1107 C1112 1.350 . S
C1107 N1115 1.427 1_545 S
C1108 H1099 0.930 . S
C1108 C1106 1.378 . S
C1108 C1109 1.367 1_565 S
C1109 C1108 1.367 1_545 S
C1109 C1111 1.433 . S
C1110 C1106 1.350 1_545 S
C1110 C1107 1.463 . S
C1110 N1114 1.427 . S
C1111 H1101 0.929 . S
C1111 C1109 1.433 . S
C1111 N1114 1.384 . S
C1112 H1103 0.929 . S
C1112 C1104 1.378 . S
C1112 C1107 1.350 . S
C1113 H1100 0.906 1_545 S
C1113 C1105 1.488 . S
C1113 N1115 1.356 1_545 S
N1114 C1110 1.427 . S
N1114 C1111 1.384 . S
N1115 C1107 1.427 1_565 S
N1115 C1113 1.356 1_565 S
H1116 C1122 0.930 . S
H1117 C1126 0.930 . S
H1118 C1131 0.929 . S
H1119 C1129 0.929 . S
H1120 C1124 0.929 . S
H1121 C1130 0.929 . S
C1122 H1116 0.930 . S
C1122 C1123 1.367 . S
C1122 C1130 1.378 . S
C1123 C1122 1.367 . S
C1123 C1131 1.433 1_565 S
C1124 H1120 0.929 . S
C1124 C1126 1.378 . S
C1124 C1128 1.350 1_545 S
C1125 C1128 1.463 . S
C1125 C1130 1.350 . S
C1125 N1133 1.427 1_565 S
C1126 H1117 0.930 . S
C1126 C1124 1.378 . S
C1126 C1127 1.367 1_545 S
C1127 C1126 1.367 1_565 S
C1127 C1129 1.433 . S
C1128 C1124 1.350 1_565 S
C1128 C1125 1.463 . S
C1128 N1132 1.427 . S
C1129 H1119 0.929 . S
C1129 C1127 1.433 . S
C1129 N1132 1.384 . S
C1130 H1121 0.929 . S
C1130 C1122 1.378 . S
C1130 C1125 1.350 . S
C1131 H1118 0.929 . S
C1131 C1123 1.433 1_545 S
C1131 N1133 1.384 . S
N1132 C1128 1.427 . S
N1132 C1129 1.384 . S
N1133 C1125 1.427 1_545 S
N1133 C1131 1.384 . S
H1134 C1140 0.930 . S
H1135 C1144 0.928 1_655 S
H1136 C1149 0.929 . S
H1137 C1147 0.929 . S
H1138 C1142 0.929 1_655 S
H1139 C1148 0.929 . S
C1140 H1134 0.930 . S
C1140 C1141 1.367 . S
C1140 C1148 1.378 . S
C1141 C1140 1.367 . S
C1141 C1149 1.433 . S
C1142 H1138 0.929 1_455 S
C1142 C1144 1.383 . S
C1142 C1146 1.350 . S
C1143 C1146 1.463 . S
C1143 C1148 1.350 . S
C1143 N1151 1.427 . S
C1144 H1135 0.928 1_455 S
C1144 C1142 1.383 . S
C1144 C1145 1.364 . S
C1145 C1144 1.364 . S
C1145 C1147 1.433 . S
C1146 C1142 1.350 . S
C1146 C1143 1.463 . S
C1146 N1150 1.427 . S
C1147 H1137 0.929 . S
C1147 C1145 1.433 . S
C1147 N1150 1.384 . S
C1148 H1139 0.929 . S
C1148 C1140 1.378 . S
C1148 C1143 1.350 . S
C1149 H1136 0.929 . S
C1149 C1141 1.433 . S
C1149 N1151 1.384 . S
N1150 C1146 1.427 . S
N1150 C1147 1.384 . S
N1151 C1143 1.427 . S
N1151 C1149 1.384 . S
H1152 C1158 0.930 . S
H1153 C1162 0.930 . S
H1154 C1167 0.929 . S
H1155 C1165 0.929 . S
H1156 C1160 0.929 . S
H1157 C1166 0.929 . S
C1158 H1152 0.930 . S
C1158 C1159 1.367 . S
C1158 C1166 1.378 . S
C1159 C1158 1.367 . S
C1159 C1167 1.433 . S
C1160 H1156 0.929 . S
C1160 C1162 1.378 . S
C1160 C1164 1.350 . S
C1161 C1164 1.463 . S
C1161 C1166 1.350 . S
C1161 N1169 1.427 . S
C1162 H1153 0.930 . S
C1162 C1160 1.378 . S
C1162 C1163 1.367 . S
C1163 C1162 1.367 . S
C1163 C1165 1.433 . S
C1164 C1160 1.350 . S
C1164 C1161 1.463 . S
C1164 N1168 1.427 . S
C1165 H1155 0.929 . S
C1165 C1163 1.433 . S
C1165 N1168 1.384 . S
C1166 H1157 0.929 . S
C1166 C1158 1.378 . S
C1166 C1161 1.350 . S
C1167 H1154 0.929 . S
C1167 C1159 1.433 . S
C1167 N1169 1.384 . S
N1168 C1164 1.427 . S
N1168 C1165 1.384 . S
N1169 C1161 1.427 . S
N1169 C1167 1.384 . S
H1170 C1176 0.930 . S
H1171 C1180 0.930 . S
H1172 C1185 0.929 . S
H1173 C1183 0.929 . S
H1174 C1178 0.929 . S
H1175 C1184 0.929 . S
C1176 H1170 0.930 . S
C1176 C1177 1.367 1_655 S
C1176 C1184 1.378 . S
C1177 C1176 1.367 1_455 S
C1177 C1185 1.433 . S
C1178 H1174 0.929 . S
C1178 C1180 1.378 . S
C1178 C1182 1.350 . S
C1179 C1182 1.463 . S
C1179 C1184 1.350 1_455 S
C1179 N1187 1.427 . S
C1180 H1171 0.930 . S
C1180 C1178 1.378 . S
C1180 C1181 1.367 . S
C1181 C1180 1.367 . S
C1181 C1183 1.433 1_455 S
C1182 C1178 1.350 . S
C1182 C1179 1.463 . S
C1182 N1186 1.427 1_455 S
C1183 H1173 0.929 . S
C1183 C1181 1.433 1_655 S
C1183 N1186 1.384 . S
C1184 H1175 0.929 . S
C1184 C1176 1.378 . S
C1184 C1179 1.350 1_655 S
C1185 H1172 0.929 . S
C1185 C1177 1.433 . S
C1185 N1187 1.384 . S
N1186 C1182 1.427 1_655 S
N1186 C1183 1.384 . S
N1187 C1179 1.427 . S
N1187 C1185 1.384 . S
H1188 C1194 0.930 . S
H1189 C1198 0.930 . S
H1190 C1203 0.929 . S
H1191 C1201 0.929 . S
H1192 C1196 0.929 . S
H1193 C1202 0.929 . S
C1194 H1188 0.930 . S
C1194 C1195 1.367 . S
C1194 C1202 1.378 . S
C1195 C1194 1.367 . S
C1195 C1203 1.433 . S
C1196 H1192 0.929 . S
C1196 C1198 1.378 . S
C1196 C1200 1.350 . S
C1197 C1200 1.463 . S
C1197 C1202 1.350 . S
C1197 N1205 1.427 . S
C1198 H1189 0.930 . S
C1198 C1196 1.378 . S
C1198 C1199 1.367 . S
C1199 C1198 1.367 . S
C1199 C1201 1.433 . S
C1200 C1196 1.350 . S
C1200 C1197 1.463 . S
C1200 N1204 1.427 . S
C1201 H1191 0.929 . S
C1201 C1199 1.433 . S
C1201 N1204 1.384 . S
C1202 H1193 0.929 . S
C1202 C1194 1.378 . S
C1202 C1197 1.350 . S
C1203 H1190 0.929 . S
C1203 C1195 1.433 . S
C1203 N1205 1.384 . S
N1204 C1200 1.427 . S
N1204 C1201 1.384 . S
N1205 C1197 1.427 . S
N1205 C1203 1.384 . S
H1206 C1212 0.930 . S
H1207 C1216 0.930 . S
H1208 C1221 0.929 . S
H1209 C1219 0.929 . S
H1210 C1214 0.929 . S
H1211 C1220 0.929 . S
C1212 H1206 0.930 . S
C1212 C1213 1.367 1_545 S
C1212 C1220 1.378 . S
C1213 C1212 1.367 1_565 S
C1213 C1221 1.433 . S
C1214 H1210 0.929 . S
C1214 C1216 1.378 . S
C1214 C1218 1.350 . S
C1215 C1218 1.463 . S
C1215 C1220 1.350 1_565 S
C1215 N1223 1.427 . S
C1216 H1207 0.930 . S
C1216 C1214 1.378 . S
C1216 C1217 1.367 . S
C1217 C1216 1.367 . S
C1217 C1219 1.433 1_565 S
C1218 C1214 1.350 . S
C1218 C1215 1.463 . S
C1218 N1222 1.427 1_565 S
C1219 H1209 0.929 . S
C1219 C1217 1.433 1_545 S
C1219 N1222 1.384 . S
C1220 H1211 0.929 . S
C1220 C1212 1.378 . S
C1220 C1215 1.350 1_545 S
C1221 H1208 0.929 . S
C1221 C1213 1.433 . S
C1221 N1223 1.384 . S
N1222 C1218 1.427 1_545 S
N1222 C1219 1.384 . S
N1223 C1215 1.427 . S
N1223 C1221 1.384 . S
H1224 C1230 0.930 . S
H1225 C1234 0.930 1_565 S
H1226 C1239 0.929 . S
H1227 C1237 0.929 . S
H1228 C1232 0.929 . S
H1229 C1238 0.929 . S
C1230 H1224 0.930 . S
C1230 C1231 1.367 . S
C1230 C1238 1.378 . S
C1231 C1230 1.367 . S
C1231 C1239 1.433 . S
C1232 H1228 0.929 . S
C1232 C1234 1.378 . S
C1232 C1236 1.350 . S
C1233 C1236 1.463 . S
C1233 C1238 1.350 . S
C1233 N1241 1.427 . S
C1234 H1225 0.930 1_545 S
C1234 C1232 1.378 . S
C1234 C1235 1.367 . S
C1235 C1234 1.367 . S
C1235 C1237 1.433 . S
C1236 C1232 1.350 . S
C1236 C1233 1.463 . S
C1236 N1240 1.427 . S
C1237 H1227 0.929 . S
C1237 C1235 1.433 . S
C1237 N1240 1.384 . S
C1238 H1229 0.929 . S
C1238 C1230 1.378 . S
C1238 C1233 1.350 . S
C1239 H1226 0.929 . S
C1239 C1231 1.433 . S
C1239 N1241 1.384 . S
N1240 C1236 1.427 . S
N1240 C1237 1.384 . S
N1241 C1233 1.427 . S
N1241 C1239 1.384 . S
H1242 C1248 0.930 . S
H1243 C1252 0.930 . S
H1244 C1257 0.929 . S
H1245 C1255 0.929 1_455 S
H1246 C1250 0.929 . S
H1247 C1256 0.929 . S
C1248 H1242 0.930 . S
C1248 C1249 1.367 . S
C1248 C1256 1.378 . S
C1249 C1248 1.367 . S
C1249 C1257 1.433 . S
C1250 H1246 0.929 . S
C1250 C1252 1.378 . S
C1250 C1254 1.350 . S
C1251 C1254 1.463 . S
C1251 C1256 1.350 . S
C1251 N1259 1.427 . S
C1252 H1243 0.930 . S
C1252 C1250 1.378 . S
C1252 C1253 1.367 . S
C1253 C1252 1.367 . S
C1253 C1255 1.433 . S
C1254 C1250 1.350 . S
C1254 C1251 1.463 . S
C1254 N1258 1.427 . S
C1255 H1245 0.929 1_655 S
C1255 C1253 1.433 . S
C1255 N1258 1.384 . S
C1256 H1247 0.929 . S
C1256 C1248 1.378 . S
C1256 C1251 1.350 . S
C1257 H1244 0.929 . S
C1257 C1249 1.433 . S
C1257 N1259 1.384 . S
N1258 C1254 1.427 . S
N1258 C1255 1.384 . S
N1259 C1251 1.427 . S
N1259 C1257 1.384 . S
H1260 C1266 0.930 . S
H1261 C1270 0.930 . S
H1262 C1275 0.929 . S
H1263 C1273 0.929 . S
H1264 C1268 0.929 . S
H1265 C1274 0.929 . S
C1266 H1260 0.930 . S
C1266 C1267 1.367 . S
C1266 C1274 1.378 . S
C1267 C1266 1.367 . S
C1267 C1275 1.433 . S
C1268 H1264 0.929 . S
C1268 C1270 1.378 . S
C1268 C1272 1.350 . S
C1269 C1272 1.463 . S
C1269 C1274 1.350 . S
C1269 N1277 1.427 . S
C1270 H1261 0.930 . S
C1270 C1268 1.378 . S
C1270 C1271 1.367 . S
C1271 C1270 1.367 . S
C1271 C1273 1.433 . S
C1272 C1268 1.350 . S
C1272 C1269 1.463 . S
C1272 N1276 1.427 . S
C1273 H1263 0.929 . S
C1273 C1271 1.433 . S
C1273 N1276 1.384 . S
C1274 H1265 0.929 . S
C1274 C1266 1.378 . S
C1274 C1269 1.350 . S
C1275 H1262 0.929 . S
C1275 C1267 1.433 . S
C1275 N1277 1.384 . S
N1276 C1272 1.427 . S
N1276 C1273 1.384 . S
N1277 C1269 1.427 . S
N1277 C1275 1.384 . S
H1278 C1284 0.930 . S
H1279 C1288 0.930 . S
H1280 C1293 0.929 . S
H1281 C1291 0.929 . S
H1282 C1286 0.929 . S
H1283 C1292 0.929 . S
C1284 H1278 0.930 . S
C1284 C1285 1.367 . S
C1284 C1292 1.378 . S
C1285 C1284 1.367 . S
C1285 C1293 1.433 . S
C1286 H1282 0.929 . S
C1286 C1288 1.378 . S
C1286 C1290 1.350 . S
C1287 C1290 1.463 . S
C1287 C1292 1.350 . S
C1287 N1295 1.427 . S
C1288 H1279 0.930 . S
C1288 C1286 1.378 . S
C1288 C1289 1.367 . S
C1289 C1288 1.367 . S
C1289 C1291 1.433 . S
C1290 C1286 1.350 . S
C1290 C1287 1.463 . S
C1290 N1294 1.427 . S
C1291 H1281 0.929 . S
C1291 C1289 1.433 . S
C1291 N1294 1.384 . S
C1292 H1283 0.929 . S
C1292 C1284 1.378 . S
C1292 C1287 1.350 . S
C1293 H1280 0.929 . S
C1293 C1285 1.433 . S
C1293 N1295 1.384 . S
N1294 C1290 1.427 . S
N1294 C1291 1.384 . S
N1295 C1287 1.427 . S
N1295 C1293 1.384 . S
H1296 C1302 0.930 . S
H1297 C1306 0.930 . S
H1298 C1311 0.929 . S
H1299 C1309 0.929 . S
H1300 C1304 0.929 . S
H1301 C1310 0.929 . S
C1302 H1296 0.930 . S
C1302 C1303 1.367 . S
C1302 C1310 1.378 . S
C1303 C1302 1.367 . S
C1303 C1311 1.433 . S
C1304 H1300 0.929 . S
C1304 C1306 1.378 . S
C1304 C1308 1.350 . S
C1305 C1308 1.463 . S
C1305 C1310 1.350 . S
C1305 N1313 1.427 . S
C1306 H1297 0.930 . S
C1306 C1304 1.378 . S
C1306 C1307 1.367 . S
C1307 C1306 1.367 . S
C1307 C1309 1.433 . S
C1308 C1304 1.350 . S
C1308 C1305 1.463 . S
C1308 N1312 1.427 . S
C1309 H1299 0.929 . S
C1309 C1307 1.433 . S
C1309 N1312 1.384 . S
C1310 H1301 0.929 . S
C1310 C1302 1.378 . S
C1310 C1305 1.350 . S
C1311 H1298 0.929 . S
C1311 C1303 1.433 . S
C1311 N1313 1.384 . S
N1312 C1308 1.427 . S
N1312 C1309 1.384 . S
N1313 C1305 1.427 . S
N1313 C1311 1.384 . S
H1314 C1320 0.930 . S
H1315 C1324 0.930 . S
H1316 C1329 0.929 . S
H1317 C1327 0.929 . S
H1318 C1322 0.929 . S
H1319 C1328 0.929 . S
C1320 H1314 0.930 . S
C1320 C1321 1.367 . S
C1320 C1328 1.378 . S
C1321 C1320 1.367 . S
C1321 C1329 1.433 . S
C1322 H1318 0.929 . S
C1322 C1324 1.378 . S
C1322 C1326 1.350 . S
C1323 C1326 1.463 . S
C1323 C1328 1.350 . S
C1323 N1331 1.427 . S
C1324 H1315 0.930 . S
C1324 C1322 1.378 . S
C1324 C1325 1.367 . S
C1325 C1324 1.367 . S
C1325 C1327 1.433 . S
C1326 C1322 1.350 . S
C1326 C1323 1.463 . S
C1326 N1330 1.427 . S
C1327 H1317 0.929 . S
C1327 C1325 1.433 . S
C1327 N1330 1.384 . S
C1328 H1319 0.929 . S
C1328 C1320 1.378 . S
C1328 C1323 1.350 . S
C1329 H1316 0.929 . S
C1329 C1321 1.433 . S
C1329 N1331 1.384 . S
N1330 C1326 1.427 . S
N1330 C1327 1.384 . S
N1331 C1323 1.427 . S
N1331 C1329 1.384 . S
H1332 C1338 0.930 . S
H1333 C1342 0.930 . S
H1334 C1347 0.929 . S
H1335 C1345 0.929 . S
H1336 C1340 0.929 . S
H1337 C1346 0.929 . S
C1338 H1332 0.930 . S
C1338 C1339 1.367 . S
C1338 C1346 1.378 . S
C1339 C1338 1.367 . S
C1339 C1347 1.433 . S
C1340 H1336 0.929 . S
C1340 C1342 1.378 . S
C1340 C1344 1.350 . S
C1341 C1344 1.463 . S
C1341 C1346 1.350 . S
C1341 N1349 1.427 . S
C1342 H1333 0.930 . S
C1342 C1340 1.378 . S
C1342 C1343 1.367 . S
C1343 C1342 1.367 . S
C1343 C1345 1.433 . S
C1344 C1340 1.350 . S
C1344 C1341 1.463 . S
C1344 N1348 1.427 . S
C1345 H1335 0.929 . S
C1345 C1343 1.433 . S
C1345 N1348 1.384 . S
C1346 H1337 0.929 . S
C1346 C1338 1.378 . S
C1346 C1341 1.350 . S
C1347 H1334 0.929 . S
C1347 C1339 1.433 . S
C1347 N1349 1.384 . S
N1348 C1344 1.427 . S
N1348 C1345 1.384 . S
N1349 C1341 1.427 . S
N1349 C1347 1.384 . S
H1350 C1356 0.930 . S
H1351 C1360 0.930 . S
H1352 C1365 0.929 . S
H1353 C1363 0.929 . S
H1354 C1358 0.929 . S
H1355 C1364 0.929 . S
C1356 H1350 0.930 . S
C1356 C1357 1.367 . S
C1356 C1364 1.378 . S
C1357 C1356 1.367 . S
C1357 C1365 1.433 . S
C1358 H1354 0.929 . S
C1358 C1360 1.378 . S
C1358 C1362 1.350 . S
C1359 C1362 1.463 . S
C1359 C1364 1.350 . S
C1359 N1367 1.427 . S
C1360 H1351 0.930 . S
C1360 C1358 1.378 . S
C1360 C1361 1.367 . S
C1361 C1360 1.367 . S
C1361 C1363 1.433 . S
C1362 C1358 1.350 . S
C1362 C1359 1.463 . S
C1362 N1366 1.427 . S
C1363 H1353 0.929 . S
C1363 C1361 1.433 . S
C1363 N1366 1.384 . S
C1364 H1355 0.929 . S
C1364 C1356 1.378 . S
C1364 C1359 1.350 . S
C1365 H1352 0.929 . S
C1365 C1357 1.433 . S
C1365 N1367 1.384 . S
N1366 C1362 1.427 . S
N1366 C1363 1.384 . S
N1367 C1359 1.427 . S
N1367 C1365 1.384 . S
H1368 C1374 0.930 . S
H1369 C1378 0.930 . S
H1370 C1383 0.929 . S
H1371 C1381 0.929 . S
H1372 C1376 0.929 . S
H1373 C1382 0.929 . S
C1374 H1368 0.930 . S
C1374 C1375 1.367 . S
C1374 C1382 1.378 . S
C1375 C1374 1.367 . S
C1375 C1383 1.433 . S
C1376 H1372 0.929 . S
C1376 C1378 1.378 . S
C1376 C1380 1.350 . S
C1377 C1380 1.463 . S
C1377 C1382 1.350 . S
C1377 N1385 1.427 . S
C1378 H1369 0.930 . S
C1378 C1376 1.378 . S
C1378 C1379 1.367 . S
C1379 C1378 1.367 . S
C1379 C1381 1.433 . S
C1380 C1376 1.350 . S
C1380 C1377 1.463 . S
C1380 N1384 1.427 . S
C1381 H1371 0.929 . S
C1381 C1379 1.433 . S
C1381 N1384 1.384 . S
C1382 H1373 0.929 . S
C1382 C1374 1.378 . S
C1382 C1377 1.350 . S
C1383 H1370 0.929 . S
C1383 C1375 1.433 . S
C1383 N1385 1.384 . S
N1384 C1380 1.427 . S
N1384 C1381 1.384 . S
N1385 C1377 1.427 . S
N1385 C1383 1.384 . S
H1386 C1392 0.930 . S
H1387 C1396 0.930 . S
H1388 C1401 0.929 . S
H1389 C1399 0.929 . S
H1390 C1394 0.929 . S
H1391 C1400 0.929 . S
C1392 H1386 0.930 . S
C1392 C1393 1.367 . S
C1392 C1400 1.378 . S
C1393 C1392 1.367 . S
C1393 C1401 1.433 . S
C1394 H1390 0.929 . S
C1394 C1396 1.378 . S
C1394 C1398 1.350 . S
C1395 C1398 1.463 . S
C1395 C1400 1.350 . S
C1395 N1403 1.427 . S
C1396 H1387 0.930 . S
C1396 C1394 1.378 . S
C1396 C1397 1.367 . S
C1397 C1396 1.367 . S
C1397 C1399 1.433 . S
C1398 C1394 1.350 . S
C1398 C1395 1.463 . S
C1398 N1402 1.427 . S
C1399 H1389 0.929 . S
C1399 C1397 1.433 . S
C1399 N1402 1.384 . S
C1400 H1391 0.929 . S
C1400 C1392 1.378 . S
C1400 C1395 1.350 . S
C1401 H1388 0.929 . S
C1401 C1393 1.433 . S
C1401 N1403 1.384 . S
N1402 C1398 1.427 . S
N1402 C1399 1.384 . S
N1403 C1395 1.427 . S
N1403 C1401 1.384 . S
H1404 C1410 0.930 . S
H1405 C1414 0.930 . S
H1406 C1419 0.929 . S
H1407 C1417 0.929 . S
H1408 C1412 0.929 . S
H1409 C1418 0.929 . S
C1410 H1404 0.930 . S
C1410 C1411 1.367 . S
C1410 C1418 1.378 . S
C1411 C1410 1.367 . S
C1411 C1419 1.433 . S
C1412 H1408 0.929 . S
C1412 C1414 1.378 . S
C1412 C1416 1.350 . S
C1413 C1416 1.463 . S
C1413 C1418 1.350 . S
C1413 N1421 1.427 . S
C1414 H1405 0.930 . S
C1414 C1412 1.378 . S
C1414 C1415 1.367 . S
C1415 C1414 1.367 . S
C1415 C1417 1.433 . S
C1416 C1412 1.350 . S
C1416 C1413 1.463 . S
C1416 N1420 1.427 . S
C1417 H1407 0.929 . S
C1417 C1415 1.433 . S
C1417 N1420 1.384 . S
C1418 H1409 0.929 . S
C1418 C1410 1.378 . S
C1418 C1413 1.350 . S
C1419 H1406 0.929 . S
C1419 C1411 1.433 . S
C1419 N1421 1.384 . S
N1420 C1416 1.427 . S
N1420 C1417 1.384 . S
N1421 C1413 1.427 . S
N1421 C1419 1.384 . S
H1422 C1428 0.930 . S
H1423 C1432 0.930 . S
H1424 C1437 0.929 . S
H1425 C1435 0.929 . S
H1426 C1430 0.929 . S
H1427 C1436 0.929 . S
C1428 H1422 0.930 . S
C1428 C1429 1.367 . S
C1428 C1436 1.378 . S
C1429 C1428 1.367 . S
C1429 C1437 1.433 . S
C1430 H1426 0.929 . S
C1430 C1432 1.378 . S
C1430 C1434 1.350 . S
C1431 C1434 1.463 . S
C1431 C1436 1.350 . S
C1431 N1439 1.427 . S
C1432 H1423 0.930 . S
C1432 C1430 1.378 . S
C1432 C1433 1.367 . S
C1433 C1432 1.367 . S
C1433 C1435 1.433 . S
C1434 C1430 1.350 . S
C1434 C1431 1.463 . S
C1434 N1438 1.427 . S
C1435 H1425 0.929 . S
C1435 C1433 1.433 . S
C1435 N1438 1.384 . S
C1436 H1427 0.929 . S
C1436 C1428 1.378 . S
C1436 C1431 1.350 . S
C1437 H1424 0.929 . S
C1437 C1429 1.433 . S
C1437 N1439 1.384 . S
N1438 C1434 1.427 . S
N1438 C1435 1.384 . S
N1439 C1431 1.427 . S
N1439 C1437 1.384 . S
H1440 C1446 0.930 . S
H1441 C1450 0.930 . S
H1442 C1455 0.929 . S
H1443 C1453 0.929 . S
H1444 C1448 0.929 . S
H1445 C1454 0.929 . S
C1446 H1440 0.930 . S
C1446 C1447 1.367 . S
C1446 C1454 1.378 . S
C1447 C1446 1.367 . S
C1447 C1455 1.433 . S
C1448 H1444 0.929 . S
C1448 C1450 1.378 . S
C1448 C1452 1.350 . S
C1449 C1452 1.463 . S
C1449 C1454 1.350 . S
C1449 N1457 1.427 . S
C1450 H1441 0.930 . S
C1450 C1448 1.378 . S
C1450 C1451 1.367 . S
C1451 C1450 1.367 . S
C1451 C1453 1.433 . S
C1452 C1448 1.350 . S
C1452 C1449 1.463 . S
C1452 N1456 1.427 . S
C1453 H1443 0.929 . S
C1453 C1451 1.433 . S
C1453 N1456 1.384 . S
C1454 H1445 0.929 . S
C1454 C1446 1.378 . S
C1454 C1449 1.350 . S
C1455 H1442 0.929 . S
C1455 C1447 1.433 . S
C1455 N1457 1.384 . S
N1456 C1452 1.427 . S
N1456 C1453 1.384 . S
N1457 C1449 1.427 . S
N1457 C1455 1.384 . S
H1458 C1464 0.930 . S
H1459 C1468 0.930 . S
H1460 C1473 0.929 . S
H1461 C1471 0.929 . S
H1462 C1466 0.929 . S
H1463 C1472 0.929 . S
C1464 H1458 0.930 . S
C1464 C1465 1.367 . S
C1464 C1472 1.378 . S
C1465 C1464 1.367 . S
C1465 C1473 1.433 . S
C1466 H1462 0.929 . S
C1466 C1468 1.378 . S
C1466 C1470 1.350 . S
C1467 C1470 1.463 . S
C1467 C1472 1.350 . S
C1467 N1475 1.427 . S
C1468 H1459 0.930 . S
C1468 C1466 1.378 . S
C1468 C1469 1.367 . S
C1469 C1468 1.367 . S
C1469 C1471 1.433 . S
C1470 C1466 1.350 . S
C1470 C1467 1.463 . S
C1470 N1474 1.427 . S
C1471 H1461 0.929 . S
C1471 C1469 1.433 . S
C1471 N1474 1.384 . S
C1472 H1463 0.929 . S
C1472 C1464 1.378 . S
C1472 C1467 1.350 . S
C1473 H1460 0.929 . S
C1473 C1465 1.433 . S
C1473 N1475 1.384 . S
N1474 C1470 1.427 . S
N1474 C1471 1.384 . S
N1475 C1467 1.427 . S
N1475 C1473 1.384 . S
H1476 C1482 0.930 . S
H1477 C1486 0.930 . S
H1478 C1491 0.929 . S
H1479 C1489 0.929 . S
H1480 C1484 0.929 . S
H1481 C1490 0.929 . S
C1482 H1476 0.930 . S
C1482 C1483 1.367 . S
C1482 C1490 1.378 . S
C1483 C1482 1.367 . S
C1483 C1491 1.433 . S
C1484 H1480 0.929 . S
C1484 C1486 1.378 . S
C1484 C1488 1.350 . S
C1485 C1488 1.463 . S
C1485 C1490 1.350 . S
C1485 N1493 1.427 . S
C1486 H1477 0.930 . S
C1486 C1484 1.378 . S
C1486 C1487 1.367 . S
C1487 C1486 1.367 . S
C1487 C1489 1.433 . S
C1488 C1484 1.350 . S
C1488 C1485 1.463 . S
C1488 N1492 1.427 . S
C1489 H1479 0.929 . S
C1489 C1487 1.433 . S
C1489 N1492 1.384 . S
C1490 H1481 0.929 . S
C1490 C1482 1.378 . S
C1490 C1485 1.350 . S
C1491 H1478 0.929 . S
C1491 C1483 1.433 . S
C1491 N1493 1.384 . S
N1492 C1488 1.427 . S
N1492 C1489 1.384 . S
N1493 C1485 1.427 . S
N1493 C1491 1.384 . S
H1494 C1500 0.930 . S
H1495 C1504 0.930 . S
H1496 C1509 0.929 . S
H1497 C1507 0.929 . S
H1498 C1502 0.929 . S
H1499 C1508 0.929 . S
C1500 H1494 0.930 . S
C1500 C1501 1.367 . S
C1500 C1508 1.378 . S
C1501 C1500 1.367 . S
C1501 C1509 1.433 . S
C1502 H1498 0.929 . S
C1502 C1504 1.378 . S
C1502 C1506 1.350 . S
C1503 C1506 1.463 . S
C1503 C1508 1.350 . S
C1503 N1511 1.427 . S
C1504 H1495 0.930 . S
C1504 C1502 1.378 . S
C1504 C1505 1.367 . S
C1505 C1504 1.367 . S
C1505 C1507 1.433 . S
C1506 C1502 1.350 . S
C1506 C1503 1.463 . S
C1506 N1510 1.427 . S
C1507 H1497 0.929 . S
C1507 C1505 1.433 . S
C1507 N1510 1.384 . S
C1508 H1499 0.929 . S
C1508 C1500 1.378 . S
C1508 C1503 1.350 . S
C1509 H1496 0.929 . S
C1509 C1501 1.433 . S
C1509 N1511 1.384 . S
N1510 C1506 1.427 . S
N1510 C1507 1.384 . S
N1511 C1503 1.427 . S
N1511 C1509 1.384 . S
H1512 C1518 0.930 . S
H1513 C1522 0.930 . S
H1514 C1527 0.929 . S
H1515 C1525 0.929 . S
H1516 C1520 0.929 . S
H1517 C1526 0.929 . S
C1518 H1512 0.930 . S
C1518 C1519 1.367 . S
C1518 C1526 1.378 . S
C1519 C1518 1.367 . S
C1519 C1527 1.433 . S
C1520 H1516 0.929 . S
C1520 C1522 1.378 . S
C1520 C1524 1.350 . S
C1521 C1524 1.463 . S
C1521 C1526 1.350 . S
C1521 N1529 1.427 . S
C1522 H1513 0.930 . S
C1522 C1520 1.378 . S
C1522 C1523 1.367 . S
C1523 C1522 1.367 . S
C1523 C1525 1.433 . S
C1524 C1520 1.350 . S
C1524 C1521 1.463 . S
C1524 N1528 1.427 . S
C1525 H1515 0.929 . S
C1525 C1523 1.433 . S
C1525 N1528 1.384 . S
C1526 H1517 0.929 . S
C1526 C1518 1.378 . S
C1526 C1521 1.350 . S
C1527 H1514 0.929 . S
C1527 C1519 1.433 . S
C1527 N1529 1.384 . S
N1528 C1524 1.427 . S
N1528 C1525 1.384 . S
N1529 C1521 1.427 . S
N1529 C1527 1.384 . S
H1530 C1536 0.930 . S
H1531 C1540 0.930 . S
H1532 C1545 0.929 . S
H1533 C1543 0.929 . S
H1534 C1538 0.929 . S
H1535 C1544 0.929 . S
C1536 H1530 0.930 . S
C1536 C1537 1.367 . S
C1536 C1544 1.378 . S
C1537 C1536 1.367 . S
C1537 C1545 1.433 . S
C1538 H1534 0.929 . S
C1538 C1540 1.378 . S
C1538 C1542 1.350 . S
C1539 C1542 1.463 . S
C1539 C1544 1.350 . S
C1539 N1547 1.427 . S
C1540 H1531 0.930 . S
C1540 C1538 1.378 . S
C1540 C1541 1.367 . S
C1541 C1540 1.367 . S
C1541 C1543 1.433 . S
C1542 C1538 1.350 . S
C1542 C1539 1.463 . S
C1542 N1546 1.427 . S
C1543 H1533 0.929 . S
C1543 C1541 1.433 . S
C1543 N1546 1.384 . S
C1544 H1535 0.929 . S
C1544 C1536 1.378 . S
C1544 C1539 1.350 . S
C1545 H1532 0.929 . S
C1545 C1537 1.433 . S
C1545 N1547 1.384 . S
N1546 C1542 1.427 . S
N1546 C1543 1.384 . S
N1547 C1539 1.427 . S
N1547 C1545 1.384 . S
H1548 C1554 0.930 . S
H1549 C1558 0.930 . S
H1550 C1563 0.929 . S
H1551 C1561 0.929 . S
H1552 C1556 0.929 . S
H1553 C1562 0.929 . S
C1554 H1548 0.930 . S
C1554 C1555 1.367 . S
C1554 C1562 1.378 . S
C1555 C1554 1.367 . S
C1555 C1563 1.433 . S
C1556 H1552 0.929 . S
C1556 C1558 1.378 . S
C1556 C1560 1.350 . S
C1557 C1560 1.463 . S
C1557 C1562 1.350 . S
C1557 N1565 1.427 . S
C1558 H1549 0.930 . S
C1558 C1556 1.378 . S
C1558 C1559 1.367 . S
C1559 C1558 1.367 . S
C1559 C1561 1.433 . S
C1560 C1556 1.350 . S
C1560 C1557 1.463 . S
C1560 N1564 1.427 . S
C1561 H1551 0.929 . S
C1561 C1559 1.433 . S
C1561 N1564 1.384 . S
C1562 H1553 0.929 . S
C1562 C1554 1.378 . S
C1562 C1557 1.350 . S
C1563 H1550 0.929 . S
C1563 C1555 1.433 . S
C1563 N1565 1.384 . S
N1564 C1560 1.427 . S
N1564 C1561 1.384 . S
N1565 C1557 1.427 . S
N1565 C1563 1.384 . S
H1566 C1572 0.930 . S
H1567 C1576 0.930 . S
H1568 C1581 0.929 . S
H1569 C1579 0.929 . S
H1570 C1574 0.929 . S
H1571 C1580 0.929 . S
C1572 H1566 0.930 . S
C1572 C1573 1.367 . S
C1572 C1580 1.378 . S
C1573 C1572 1.367 . S
C1573 C1581 1.433 . S
C1574 H1570 0.929 . S
C1574 C1576 1.378 . S
C1574 C1578 1.350 . S
C1575 C1578 1.463 . S
C1575 C1580 1.350 . S
C1575 N1583 1.427 . S
C1576 H1567 0.930 . S
C1576 C1574 1.378 . S
C1576 C1577 1.367 . S
C1577 C1576 1.367 . S
C1577 C1579 1.433 . S
C1578 C1574 1.350 . S
C1578 C1575 1.463 . S
C1578 N1582 1.427 . S
C1579 H1569 0.929 . S
C1579 C1577 1.433 . S
C1579 N1582 1.384 . S
C1580 H1571 0.929 . S
C1580 C1572 1.378 . S
C1580 C1575 1.350 . S
C1581 H1568 0.929 . S
C1581 C1573 1.433 . S
C1581 N1583 1.384 . S
N1582 C1578 1.427 . S
N1582 C1579 1.384 . S
N1583 C1575 1.427 . S
N1583 C1581 1.384 . S
H1584 C1590 0.930 . S
H1585 C1594 0.930 . S
H1586 C1599 0.929 . S
H1587 C1597 0.929 . S
H1588 C1592 0.929 . S
H1589 C1598 0.929 . S
C1590 H1584 0.930 . S
C1590 C1591 1.367 . S
C1590 C1598 1.378 . S
C1591 C1590 1.367 . S
C1591 C1599 1.433 . S
C1592 H1588 0.929 . S
C1592 C1594 1.378 . S
C1592 C1596 1.350 . S
C1593 C1596 1.463 . S
C1593 C1598 1.350 . S
C1593 N1601 1.427 . S
C1594 H1585 0.930 . S
C1594 C1592 1.378 . S
C1594 C1595 1.367 . S
C1595 C1594 1.367 . S
C1595 C1597 1.433 . S
C1596 C1592 1.350 . S
C1596 C1593 1.463 . S
C1596 N1600 1.427 . S
C1597 H1587 0.929 . S
C1597 C1595 1.433 . S
C1597 N1600 1.384 . S
C1598 H1589 0.929 . S
C1598 C1590 1.378 . S
C1598 C1593 1.350 . S
C1599 H1586 0.929 . S
C1599 C1591 1.433 . S
C1599 N1601 1.384 . S
N1600 C1596 1.427 . S
N1600 C1597 1.384 . S
N1601 C1593 1.427 . S
N1601 C1599 1.384 . S
H1602 C1608 0.930 . S
H1603 C1612 0.930 . S
H1604 C1617 0.929 . S
H1605 C1615 0.929 . S
H1606 C1610 0.929 . S
H1607 C1616 0.929 . S
C1608 H1602 0.930 . S
C1608 C1609 1.367 . S
C1608 C1616 1.378 . S
C1609 C1608 1.367 . S
C1609 C1617 1.433 . S
C1610 H1606 0.929 . S
C1610 C1612 1.378 . S
C1610 C1614 1.350 . S
C1611 C1614 1.463 . S
C1611 C1616 1.350 . S
C1611 N1619 1.427 . S
C1612 H1603 0.930 . S
C1612 C1610 1.378 . S
C1612 C1613 1.367 . S
C1613 C1612 1.367 . S
C1613 C1615 1.433 . S
C1614 C1610 1.350 . S
C1614 C1611 1.463 . S
C1614 N1618 1.427 . S
C1615 H1605 0.929 . S
C1615 C1613 1.433 . S
C1615 N1618 1.384 . S
C1616 H1607 0.929 . S
C1616 C1608 1.378 . S
C1616 C1611 1.350 . S
C1617 H1604 0.929 . S
C1617 C1609 1.433 . S
C1617 N1619 1.384 . S
N1618 C1614 1.427 . S
N1618 C1615 1.384 . S
N1619 C1611 1.427 . S
N1619 C1617 1.384 . S
H1620 C1626 0.930 . S
H1621 C1630 0.930 . S
H1622 C1635 0.929 . S
H1623 C1633 0.929 . S
H1624 C1628 0.929 . S
H1625 C1634 0.929 . S
C1626 H1620 0.930 . S
C1626 C1627 1.367 . S
C1626 C1634 1.378 . S
C1627 C1626 1.367 . S
C1627 C1635 1.433 . S
C1628 H1624 0.929 . S
C1628 C1630 1.378 . S
C1628 C1632 1.350 . S
C1629 C1632 1.463 . S
C1629 C1634 1.350 . S
C1629 N1637 1.427 . S
C1630 H1621 0.930 . S
C1630 C1628 1.378 . S
C1630 C1631 1.367 . S
C1631 C1630 1.367 . S
C1631 C1633 1.433 . S
C1632 C1628 1.350 . S
C1632 C1629 1.463 . S
C1632 N1636 1.427 . S
C1633 H1623 0.929 . S
C1633 C1631 1.433 . S
C1633 N1636 1.384 . S
C1634 H1625 0.929 . S
C1634 C1626 1.378 . S
C1634 C1629 1.350 . S
C1635 H1622 0.929 . S
C1635 C1627 1.433 . S
C1635 N1637 1.384 . S
N1636 C1632 1.427 . S
N1636 C1633 1.384 . S
N1637 C1629 1.427 . S
N1637 C1635 1.384 . S
H1638 C1644 0.930 . S
H1639 C1648 0.930 . S
H1640 C1653 0.929 . S
H1641 C1651 0.929 . S
H1642 C1646 0.929 . S
H1643 C1652 0.929 . S
C1644 H1638 0.930 . S
C1644 C1645 1.367 . S
C1644 C1652 1.378 . S
C1645 C1644 1.367 . S
C1645 C1653 1.433 . S
C1646 H1642 0.929 . S
C1646 C1648 1.378 . S
C1646 C1650 1.350 . S
C1647 C1650 1.463 . S
C1647 C1652 1.350 . S
C1647 N1655 1.427 . S
C1648 H1639 0.930 . S
C1648 C1646 1.378 . S
C1648 C1649 1.367 . S
C1649 C1648 1.367 . S
C1649 C1651 1.433 . S
C1650 C1646 1.350 . S
C1650 C1647 1.463 . S
C1650 N1654 1.427 . S
C1651 H1641 0.929 . S
C1651 C1649 1.433 . S
C1651 N1654 1.384 . S
C1652 H1643 0.929 . S
C1652 C1644 1.378 . S
C1652 C1647 1.350 . S
C1653 H1640 0.929 . S
C1653 C1645 1.433 . S
C1653 N1655 1.384 . S
N1654 C1650 1.427 . S
N1654 C1651 1.384 . S
N1655 C1647 1.427 . S
N1655 C1653 1.384 . S
H1656 C1662 0.930 . S
H1657 C1666 0.930 . S
H1658 C1671 0.929 . S
H1659 C1669 0.929 . S
H1660 C1664 0.929 . S
H1661 C1670 0.929 . S
C1662 H1656 0.930 . S
C1662 C1663 1.367 . S
C1662 C1670 1.378 . S
C1663 C1662 1.367 . S
C1663 C1671 1.433 . S
C1664 H1660 0.929 . S
C1664 C1666 1.378 . S
C1664 C1668 1.350 . S
C1665 C1668 1.463 . S
C1665 C1670 1.350 . S
C1665 N1673 1.427 . S
C1666 H1657 0.930 . S
C1666 C1664 1.378 . S
C1666 C1667 1.367 . S
C1667 C1666 1.367 . S
C1667 C1669 1.433 . S
C1668 C1664 1.350 . S
C1668 C1665 1.463 . S
C1668 N1672 1.427 . S
C1669 H1659 0.929 . S
C1669 C1667 1.433 . S
C1669 N1672 1.384 . S
C1670 H1661 0.929 . S
C1670 C1662 1.378 . S
C1670 C1665 1.350 . S
C1671 H1658 0.929 . S
C1671 C1663 1.433 . S
C1671 N1673 1.384 . S
N1672 C1668 1.427 . S
N1672 C1669 1.384 . S
N1673 C1665 1.427 . S
N1673 C1671 1.384 . S
H1674 C1680 0.930 . S
H1675 C1684 0.930 . S
H1676 C1689 0.929 . S
H1677 C1687 0.929 . S
H1678 C1682 0.929 . S
H1679 C1688 0.929 . S
C1680 H1674 0.930 . S
C1680 C1681 1.367 . S
C1680 C1688 1.378 . S
C1681 C1680 1.367 . S
C1681 C1689 1.433 . S
C1682 H1678 0.929 . S
C1682 C1684 1.378 . S
C1682 C1686 1.350 . S
C1683 C1686 1.463 . S
C1683 C1688 1.350 . S
C1683 N1691 1.427 . S
C1684 H1675 0.930 . S
C1684 C1682 1.378 . S
C1684 C1685 1.367 . S
C1685 C1684 1.367 . S
C1685 C1687 1.433 . S
C1686 C1682 1.350 . S
C1686 C1683 1.463 . S
C1686 N1690 1.427 . S
C1687 H1677 0.929 . S
C1687 C1685 1.433 . S
C1687 N1690 1.384 . S
C1688 H1679 0.929 . S
C1688 C1680 1.378 . S
C1688 C1683 1.350 . S
C1689 H1676 0.929 . S
C1689 C1681 1.433 . S
C1689 N1691 1.384 . S
N1690 C1686 1.427 . S
N1690 C1687 1.384 . S
N1691 C1683 1.427 . S
N1691 C1689 1.384 . S
H1692 C1698 0.930 . S
H1693 C1702 0.930 . S
H1694 C1707 0.929 . S
H1695 C1705 0.929 . S
H1696 C1700 0.929 . S
H1697 C1706 0.929 . S
C1698 H1692 0.930 . S
C1698 C1699 1.367 . S
C1698 C1706 1.378 . S
C1699 C1698 1.367 . S
C1699 C1707 1.433 . S
C1700 H1696 0.929 . S
C1700 C1702 1.378 . S
C1700 C1704 1.350 . S
C1701 C1704 1.463 . S
C1701 C1706 1.350 . S
C1701 N1709 1.427 . S
C1702 H1693 0.930 . S
C1702 C1700 1.378 . S
C1702 C1703 1.367 . S
C1703 C1702 1.367 . S
C1703 C1705 1.433 . S
C1704 C1700 1.350 . S
C1704 C1701 1.463 . S
C1704 N1708 1.427 . S
C1705 H1695 0.929 . S
C1705 C1703 1.433 . S
C1705 N1708 1.384 . S
C1706 H1697 0.929 . S
C1706 C1698 1.378 . S
C1706 C1701 1.350 . S
C1707 H1694 0.929 . S
C1707 C1699 1.433 . S
C1707 N1709 1.384 . S
N1708 C1704 1.427 . S
N1708 C1705 1.384 . S
N1709 C1701 1.427 . S
N1709 C1707 1.384 . S
H1710 C1716 0.930 . S
H1711 C1720 0.930 . S
H1712 C1725 0.929 . S
H1713 C1723 0.929 . S
H1714 C1718 0.929 . S
H1715 C1724 0.929 . S
C1716 H1710 0.930 . S
C1716 C1717 1.367 . S
C1716 C1724 1.378 . S
C1717 C1716 1.367 . S
C1717 C1725 1.433 . S
C1718 H1714 0.929 . S
C1718 C1720 1.378 . S
C1718 C1722 1.350 . S
C1719 C1722 1.463 . S
C1719 C1724 1.350 . S
C1719 N1727 1.427 . S
C1720 H1711 0.930 . S
C1720 C1718 1.378 . S
C1720 C1721 1.367 . S
C1721 C1720 1.367 . S
C1721 C1723 1.433 . S
C1722 C1718 1.350 . S
C1722 C1719 1.463 . S
C1722 N1726 1.427 . S
C1723 H1713 0.929 . S
C1723 C1721 1.433 . S
C1723 N1726 1.384 . S
C1724 H1715 0.929 . S
C1724 C1716 1.378 . S
C1724 C1719 1.350 . S
C1725 H1712 0.929 . S
C1725 C1717 1.433 . S
C1725 N1727 1.384 . S
N1726 C1722 1.427 . S
N1726 C1723 1.384 . S
N1727 C1719 1.427 . S
N1727 C1725 1.384 . S
H1728 C1734 0.930 . S
H1729 C1738 0.930 . S
H1730 C1743 0.929 . S
H1731 C1741 0.929 . S
H1732 C1736 0.929 . S
H1733 C1742 0.929 . S
C1734 H1728 0.930 . S
C1734 C1735 1.367 . S
C1734 C1742 1.378 . S
C1735 C1734 1.367 . S
C1735 C1743 1.433 . S
C1736 H1732 0.929 . S
C1736 C1738 1.378 . S
C1736 C1740 1.350 . S
C1737 C1740 1.463 . S
C1737 C1742 1.350 . S
C1737 N1745 1.427 . S
C1738 H1729 0.930 . S
C1738 C1736 1.378 . S
C1738 C1739 1.367 . S
C1739 C1738 1.367 . S
C1739 C1741 1.433 . S
C1740 C1736 1.350 . S
C1740 C1737 1.463 . S
C1740 N1744 1.427 . S
C1741 H1731 0.929 . S
C1741 C1739 1.433 . S
C1741 N1744 1.384 . S
C1742 H1733 0.929 . S
C1742 C1734 1.378 . S
C1742 C1737 1.350 . S
C1743 H1730 0.929 . S
C1743 C1735 1.433 . S
C1743 N1745 1.384 . S
N1744 C1740 1.427 . S
N1744 C1741 1.384 . S
N1745 C1737 1.427 . S
N1745 C1743 1.384 . S
H1746 C1752 0.930 . S
H1747 C1756 0.930 . S
H1748 C1761 0.929 . S
H1749 C1759 0.929 . S
H1750 C1754 0.929 . S
H1751 C1760 0.929 . S
C1752 H1746 0.930 . S
C1752 C1753 1.367 . S
C1752 C1760 1.378 . S
C1753 C1752 1.367 . S
C1753 C1761 1.433 . S
C1754 H1750 0.929 . S
C1754 C1756 1.378 . S
C1754 C1758 1.350 . S
C1755 C1758 1.463 . S
C1755 C1760 1.350 . S
C1755 N1763 1.427 . S
C1756 H1747 0.930 . S
C1756 C1754 1.378 . S
C1756 C1757 1.367 . S
C1757 C1756 1.367 . S
C1757 C1759 1.433 . S
C1758 C1754 1.350 . S
C1758 C1755 1.463 . S
C1758 N1762 1.427 . S
C1759 H1749 0.929 . S
C1759 C1757 1.433 . S
C1759 N1762 1.384 . S
C1760 H1751 0.929 . S
C1760 C1752 1.378 . S
C1760 C1755 1.350 . S
C1761 H1748 0.929 . S
C1761 C1753 1.433 . S
C1761 N1763 1.384 . S
N1762 C1758 1.427 . S
N1762 C1759 1.384 . S
N1763 C1755 1.427 . S
N1763 C1761 1.384 . S
H1764 C1770 0.958 . S
H1765 C1774 0.930 . S
H1766 C1779 0.929 . S
H1767 C1777 0.929 . S
H1768 C1772 0.929 . S
H1769 C1778 0.929 . S
C1770 H1764 0.958 . S
C1770 C1771 1.367 . S
C1770 C1778 1.378 . S
C1771 C1770 1.367 . S
C1771 C1779 1.433 . S
C1772 H1768 0.929 . S
C1772 C1774 1.378 . S
C1772 C1776 1.350 . S
C1773 C1776 1.463 . S
C1773 C1778 1.350 . S
C1773 N1781 1.427 . S
C1774 H1765 0.930 . S
C1774 C1772 1.378 . S
C1774 C1775 1.367 . S
C1775 C1774 1.367 . S
C1775 C1777 1.433 . S
C1776 C1772 1.350 . S
C1776 C1773 1.463 . S
C1776 N1780 1.427 . S
C1777 H1767 0.929 . S
C1777 C1775 1.433 . S
C1777 N1780 1.384 . S
C1778 H1769 0.929 . S
C1778 C1770 1.378 . S
C1778 C1773 1.350 . S
C1779 H1766 0.929 . S
C1779 C1771 1.433 . S
C1779 N1781 1.384 . S
N1780 C1776 1.427 . S
N1780 C1777 1.384 . S
N1781 C1773 1.427 . S
N1781 C1779 1.384 . S
H1782 C1788 0.930 . S
H1783 C1792 0.930 . S
H1784 C1797 0.929 1_554 S
H1785 C1795 0.929 . S
H1786 C1790 0.929 . S
H1787 C1796 0.929 . S
C1788 H1782 0.930 . S
C1788 C1789 1.367 . S
C1788 C1796 1.378 . S
C1789 C1788 1.367 . S
C1789 C1797 1.433 . S
C1790 H1786 0.929 . S
C1790 C1792 1.378 . S
C1790 C1794 1.350 . S
C1791 C1794 1.463 . S
C1791 C1796 1.350 . S
C1791 N1799 1.427 . S
C1792 H1783 0.930 . S
C1792 C1790 1.378 . S
C1792 C1793 1.367 . S
C1793 C1792 1.367 . S
C1793 C1795 1.433 . S
C1794 C1790 1.350 . S
C1794 C1791 1.463 . S
C1794 N1798 1.427 . S
C1795 H1785 0.929 . S
C1795 C1793 1.433 . S
C1795 N1798 1.384 . S
C1796 H1787 0.929 . S
C1796 C1788 1.378 . S
C1796 C1791 1.350 . S
C1797 H1784 0.929 1_556 S
C1797 C1789 1.433 . S
C1797 N1799 1.384 . S
N1798 C1794 1.427 . S
N1798 C1795 1.384 . S
N1799 C1791 1.427 . S
N1799 C1797 1.384 . S
H1800 C1806 0.930 1_554 S
H1801 C1810 0.930 . S
H1802 C1815 0.929 . S
H1803 C1813 0.929 . S
H1804 C1808 0.929 . S
H1805 C1814 0.929 . S
C1806 H1800 0.930 1_556 S
C1806 C1807 1.367 . S
C1806 C1814 1.378 . S
C1807 C1806 1.367 . S
C1807 C1815 1.433 . S
C1808 H1804 0.929 . S
C1808 C1810 1.378 . S
C1808 C1812 1.350 . S
C1809 C1812 1.463 . S
C1809 C1814 1.350 . S
C1809 N1817 1.427 . S
C1810 H1801 0.930 . S
C1810 C1808 1.378 . S
C1810 C1811 1.367 . S
C1811 C1810 1.367 . S
C1811 C1813 1.433 . S
C1812 C1808 1.350 . S
C1812 C1809 1.463 . S
C1812 N1816 1.427 . S
C1813 H1803 0.929 . S
C1813 C1811 1.433 . S
C1813 N1816 1.384 . S
C1814 H1805 0.929 . S
C1814 C1806 1.378 . S
C1814 C1809 1.350 . S
C1815 H1802 0.929 . S
C1815 C1807 1.433 . S
C1815 N1817 1.384 . S
N1816 C1812 1.427 . S
N1816 C1813 1.384 . S
N1817 C1809 1.427 . S
N1817 C1815 1.384 . S
H1818 C1824 0.930 . S
H1819 C1828 0.930 . S
H1820 C1833 0.929 . S
H1821 C1831 0.929 . S
H1822 C1826 0.929 . S
H1823 C1832 0.929 . S
C1824 H1818 0.930 . S
C1824 C1825 1.367 . S
C1824 C1832 1.378 . S
C1825 C1824 1.367 . S
C1825 C1833 1.433 . S
C1826 H1822 0.929 . S
C1826 C1828 1.378 . S
C1826 C1830 1.350 . S
C1827 C1830 1.463 . S
C1827 C1832 1.350 . S
C1827 N1835 1.427 . S
C1828 H1819 0.930 . S
C1828 C1826 1.378 . S
C1828 C1829 1.367 . S
C1829 C1828 1.367 . S
C1829 C1831 1.433 . S
C1830 C1826 1.350 . S
C1830 C1827 1.463 . S
C1830 N1834 1.427 . S
C1831 H1821 0.929 . S
C1831 C1829 1.433 . S
C1831 N1834 1.384 . S
C1832 H1823 0.929 . S
C1832 C1824 1.378 . S
C1832 C1827 1.350 . S
C1833 H1820 0.929 . S
C1833 C1825 1.433 . S
C1833 N1835 1.384 . S
N1834 C1830 1.427 . S
N1834 C1831 1.384 . S
N1835 C1827 1.427 . S
N1835 C1833 1.384 . S
H1836 C1842 0.930 . S
H1837 C1846 0.930 . S
H1838 C1851 0.929 . S
H1839 C1849 0.929 . S
H1840 C1844 0.929 . S
H1841 C1850 0.929 . S
C1842 H1836 0.930 . S
C1842 C1843 1.367 . S
C1842 C1850 1.378 . S
C1843 C1842 1.367 . S
C1843 C1851 1.433 . S
C1844 H1840 0.929 . S
C1844 C1846 1.378 . S
C1844 C1848 1.350 . S
C1845 C1848 1.463 . S
C1845 C1850 1.350 . S
C1845 N1853 1.427 . S
C1846 H1837 0.930 . S
C1846 C1844 1.378 . S
C1846 C1847 1.367 . S
C1847 C1846 1.367 . S
C1847 C1849 1.433 . S
C1848 C1844 1.350 . S
C1848 C1845 1.463 . S
C1848 N1852 1.427 . S
C1849 H1839 0.929 . S
C1849 C1847 1.433 . S
C1849 N1852 1.384 . S
C1850 H1841 0.929 . S
C1850 C1842 1.378 . S
C1850 C1845 1.350 . S
C1851 H1838 0.929 . S
C1851 C1843 1.433 . S
C1851 N1853 1.384 . S
N1852 C1848 1.427 . S
N1852 C1849 1.384 . S
N1853 C1845 1.427 . S
N1853 C1851 1.384 . S
H1854 C1860 0.930 . S
H1855 C1864 0.930 . S
H1856 C1869 0.929 1_554 S
H1857 C1867 0.929 . S
H1858 C1862 0.929 . S
H1859 C1868 0.929 . S
C1860 H1854 0.930 . S
C1860 C1861 1.367 . S
C1860 C1868 1.378 . S
C1861 C1860 1.367 . S
C1861 C1869 1.433 . S
C1862 H1858 0.929 . S
C1862 C1864 1.378 . S
C1862 C1866 1.350 . S
C1863 C1866 1.463 . S
C1863 C1868 1.350 . S
C1863 N1871 1.427 . S
C1864 H1855 0.930 . S
C1864 C1862 1.378 . S
C1864 C1865 1.367 . S
C1865 C1864 1.367 . S
C1865 C1867 1.433 . S
C1866 C1862 1.350 . S
C1866 C1863 1.463 . S
C1866 N1870 1.427 . S
C1867 H1857 0.929 . S
C1867 C1865 1.433 . S
C1867 N1870 1.384 . S
C1868 H1859 0.929 . S
C1868 C1860 1.378 . S
C1868 C1863 1.350 . S
C1869 H1856 0.929 1_556 S
C1869 C1861 1.433 . S
C1869 N1871 1.384 . S
N1870 C1866 1.427 . S
N1870 C1867 1.384 . S
N1871 C1863 1.427 . S
N1871 C1869 1.384 . S
H1872 C1878 0.930 . S
H1873 C1882 0.930 . S
H1874 C1887 0.929 . S
H1875 C1885 0.929 . S
H1876 C1880 0.929 . S
H1877 C1886 0.929 . S
C1878 H1872 0.930 . S
C1878 C1879 1.367 . S
C1878 C1886 1.378 . S
C1879 C1878 1.367 . S
C1879 C1887 1.433 . S
C1880 H1876 0.929 . S
C1880 C1882 1.378 . S
C1880 C1884 1.350 . S
C1881 C1884 1.463 . S
C1881 C1886 1.350 . S
C1881 N1889 1.427 . S
C1882 H1873 0.930 . S
C1882 C1880 1.378 . S
C1882 C1883 1.367 . S
C1883 C1882 1.367 . S
C1883 C1885 1.433 . S
C1884 C1880 1.350 . S
C1884 C1881 1.463 . S
C1884 N1888 1.427 . S
C1885 H1875 0.929 . S
C1885 C1883 1.433 . S
C1885 N1888 1.384 . S
C1886 H1877 0.929 . S
C1886 C1878 1.378 . S
C1886 C1881 1.350 . S
C1887 H1874 0.929 . S
C1887 C1879 1.433 . S
C1887 N1889 1.384 . S
N1888 C1884 1.427 . S
N1888 C1885 1.384 . S
N1889 C1881 1.427 . S
N1889 C1887 1.384 . S
H1890 C1896 0.930 . S
H1891 C1900 0.930 . S
H1892 C1905 0.929 . S
H1893 C1903 0.929 . S
H1894 C1898 0.929 . S
H1895 C1904 0.929 . S
C1896 H1890 0.930 . S
C1896 C1897 1.367 . S
C1896 C1904 1.378 . S
C1897 C1896 1.367 . S
C1897 C1905 1.433 . S
C1898 H1894 0.929 . S
C1898 C1900 1.378 . S
C1898 C1902 1.350 . S
C1899 C1902 1.463 . S
C1899 C1904 1.350 . S
C1899 N1907 1.427 . S
C1900 H1891 0.930 . S
C1900 C1898 1.378 . S
C1900 C1901 1.367 . S
C1901 C1900 1.367 . S
C1901 C1903 1.433 . S
C1902 C1898 1.350 . S
C1902 C1899 1.463 . S
C1902 N1906 1.427 . S
C1903 H1893 0.929 . S
C1903 C1901 1.433 . S
C1903 N1906 1.384 . S
C1904 H1895 0.929 . S
C1904 C1896 1.378 . S
C1904 C1899 1.350 . S
C1905 H1892 0.929 . S
C1905 C1897 1.433 . S
C1905 N1907 1.384 . S
N1906 C1902 1.427 . S
N1906 C1903 1.384 . S
N1907 C1899 1.427 . S
N1907 C1905 1.384 . S
H1908 C1914 0.930 . S
H1909 C1918 0.930 . S
H1910 C1923 0.929 . S
H1911 C1921 0.929 . S
H1912 C1916 0.929 . S
H1913 C1922 0.929 . S
C1914 H1908 0.930 . S
C1914 C1915 1.367 . S
C1914 C1922 1.378 . S
C1915 C1914 1.367 . S
C1915 C1923 1.433 . S
C1916 H1912 0.929 . S
C1916 C1918 1.378 . S
C1916 C1920 1.350 . S
C1917 C1920 1.463 . S
C1917 C1922 1.350 . S
C1917 N1925 1.427 . S
C1918 H1909 0.930 . S
C1918 C1916 1.378 . S
C1918 C1919 1.367 . S
C1919 C1918 1.367 . S
C1919 C1921 1.433 . S
C1920 C1916 1.350 . S
C1920 C1917 1.463 . S
C1920 N1924 1.427 . S
C1921 H1911 0.929 . S
C1921 C1919 1.433 . S
C1921 N1924 1.384 . S
C1922 H1913 0.929 . S
C1922 C1914 1.378 . S
C1922 C1917 1.350 . S
C1923 H1910 0.929 . S
C1923 C1915 1.433 . S
C1923 N1925 1.384 . S
N1924 C1920 1.427 . S
N1924 C1921 1.384 . S
N1925 C1917 1.427 . S
N1925 C1923 1.384 . S
H1926 C1932 0.930 . S
H1927 C1936 0.930 . S
H1928 C1941 0.929 . S
H1929 C1939 0.929 . S
H1930 C1934 0.929 . S
H1931 C1940 0.929 . S
C1932 H1926 0.930 . S
C1932 C1933 1.367 . S
C1932 C1940 1.378 . S
C1933 C1932 1.367 . S
C1933 C1941 1.433 . S
C1934 H1930 0.929 . S
C1934 C1936 1.378 . S
C1934 C1938 1.350 . S
C1935 C1938 1.463 . S
C1935 C1940 1.350 . S
C1935 N1943 1.427 . S
C1936 H1927 0.930 . S
C1936 C1934 1.378 . S
C1936 C1937 1.367 . S
C1937 C1936 1.367 . S
C1937 C1939 1.433 . S
C1938 C1934 1.350 . S
C1938 C1935 1.463 . S
C1938 N1942 1.427 . S
C1939 H1929 0.929 . S
C1939 C1937 1.433 . S
C1939 N1942 1.384 . S
C1940 H1931 0.929 . S
C1940 C1932 1.378 . S
C1940 C1935 1.350 . S
C1941 H1928 0.929 . S
C1941 C1933 1.433 . S
C1941 N1943 1.384 . S
N1942 C1938 1.427 . S
N1942 C1939 1.384 . S
N1943 C1935 1.427 . S
N1943 C1941 1.384 . S
H1944 C1950 0.930 . S
H1945 C1954 0.930 . S
H1946 C1959 0.929 . S
H1947 C1957 0.929 . S
H1948 C1952 0.929 . S
H1949 C1958 0.929 . S
C1950 H1944 0.930 . S
C1950 C1951 1.367 . S
C1950 C1958 1.378 . S
C1951 C1950 1.367 . S
C1951 C1959 1.433 . S
C1952 H1948 0.929 . S
C1952 C1954 1.378 . S
C1952 C1956 1.350 . S
C1953 C1956 1.463 . S
C1953 C1958 1.350 . S
C1953 N1961 1.427 . S
C1954 H1945 0.930 . S
C1954 C1952 1.378 . S
C1954 C1955 1.367 . S
C1955 C1954 1.367 . S
C1955 C1957 1.433 . S
C1956 C1952 1.350 . S
C1956 C1953 1.463 . S
C1956 N1960 1.427 . S
C1957 H1947 0.929 . S
C1957 C1955 1.433 . S
C1957 N1960 1.384 . S
C1958 H1949 0.929 . S
C1958 C1950 1.378 . S
C1958 C1953 1.350 . S
C1959 H1946 0.929 . S
C1959 C1951 1.433 . S
C1959 N1961 1.384 . S
N1960 C1956 1.427 . S
N1960 C1957 1.384 . S
N1961 C1953 1.427 . S
N1961 C1959 1.384 . S
H1962 C1968 0.930 . S
H1963 C1972 0.930 . S
H1964 C1977 0.929 . S
H1965 C1975 0.929 . S
H1966 C1970 0.929 . S
H1967 C1976 0.929 . S
C1968 H1962 0.930 . S
C1968 C1969 1.367 . S
C1968 C1976 1.378 . S
C1969 C1968 1.367 . S
C1969 C1977 1.433 . S
C1970 H1966 0.929 . S
C1970 C1972 1.378 . S
C1970 C1974 1.350 . S
C1971 C1974 1.463 . S
C1971 C1976 1.350 . S
C1971 N1979 1.427 . S
C1972 H1963 0.930 . S
C1972 C1970 1.378 . S
C1972 C1973 1.367 . S
C1973 C1972 1.367 . S
C1973 C1975 1.433 . S
C1974 C1970 1.350 . S
C1974 C1971 1.463 . S
C1974 N1978 1.427 . S
C1975 H1965 0.929 . S
C1975 C1973 1.433 . S
C1975 N1978 1.384 . S
C1976 H1967 0.929 . S
C1976 C1968 1.378 . S
C1976 C1971 1.350 . S
C1977 H1964 0.929 . S
C1977 C1969 1.433 . S
C1977 N1979 1.384 . S
N1978 C1974 1.427 . S
N1978 C1975 1.384 . S
N1979 C1971 1.427 . S
N1979 C1977 1.384 . S
H1980 C1986 0.930 . S
H1981 C1990 0.930 . S
H1982 C1995 0.928 . S
H1983 C1993 0.929 . S
H1984 C1988 0.929 . S
H1985 C1994 0.929 . S
C1986 H1980 0.930 . S
C1986 C1987 1.367 . S
C1986 C1994 1.378 . S
C1987 C1986 1.367 . S
C1987 C1995 1.433 . S
C1988 H1984 0.929 . S
C1988 C1990 1.425 . S
C1988 C1992 1.310 1_655 S
C1989 C1992 1.463 . S
C1989 C1994 1.350 . S
C1989 N1997 1.427 . S
C1990 H1981 0.930 . S
C1990 C1988 1.425 . S
C1990 C1991 1.367 1_655 S
C1991 C1990 1.367 1_455 S
C1991 C1993 1.433 . S
C1992 C1988 1.310 1_455 S
C1992 C1989 1.463 . S
C1992 N1996 1.427 . S
C1993 H1983 0.929 . S
C1993 C1991 1.433 . S
C1993 N1996 1.384 . S
C1994 H1985 0.929 . S
C1994 C1986 1.378 . S
C1994 C1989 1.350 . S
C1995 H1982 0.928 . S
C1995 C1987 1.433 . S
C1995 N1997 1.384 . S
N1996 C1992 1.427 . S
N1996 C1993 1.384 . S
N1997 C1989 1.427 . S
N1997 C1995 1.384 . S
H1998 C2004 0.930 . S
H1999 C2008 0.930 . S
H2000 C2013 0.929 . S
H2001 C2011 0.929 . S
H2002 C2006 0.929 . S
H2003 C2012 0.929 . S
C2004 H1998 0.930 . S
C2004 C2005 1.367 . S
C2004 C2012 1.378 . S
C2005 C2004 1.367 . S
C2005 C2013 1.433 . S
C2006 H2002 0.929 . S
C2006 C2008 1.378 . S
C2006 C2010 1.350 . S
C2007 C2010 1.463 . S
C2007 C2012 1.350 . S
C2007 N2015 1.427 . S
C2008 H1999 0.930 . S
C2008 C2006 1.378 . S
C2008 C2009 1.367 . S
C2009 C2008 1.367 . S
C2009 C2011 1.433 . S
C2010 C2006 1.350 . S
C2010 C2007 1.463 . S
C2010 N2014 1.427 . S
C2011 H2001 0.929 . S
C2011 C2009 1.433 . S
C2011 N2014 1.384 . S
C2012 H2003 0.929 . S
C2012 C2004 1.378 . S
C2012 C2007 1.350 . S
C2013 H2000 0.929 . S
C2013 C2005 1.433 . S
C2013 N2015 1.384 . S
N2014 C2010 1.427 . S
N2014 C2011 1.384 . S
N2015 C2007 1.427 . S
N2015 C2013 1.384 . S
H2016 C2022 0.930 . S
H2017 C2026 0.930 . S
H2018 C2031 0.929 . S
H2019 C2029 0.929 . S
H2020 C2024 0.929 . S
H2021 C2030 0.929 . S
C2022 H2016 0.930 . S
C2022 C2023 1.367 . S
C2022 C2030 1.378 . S
C2023 C2022 1.367 . S
C2023 C2031 1.433 1_565 S
C2024 H2020 0.929 . S
C2024 C2026 1.378 . S
C2024 C2028 1.350 1_545 S
C2025 C2028 1.463 . S
C2025 C2030 1.350 . S
C2025 N2033 1.427 1_565 S
C2026 H2017 0.930 . S
C2026 C2024 1.378 . S
C2026 C2027 1.367 1_545 S
C2027 C2026 1.367 1_565 S
C2027 C2029 1.433 . S
C2028 C2024 1.350 1_565 S
C2028 C2025 1.463 . S
C2028 N2032 1.427 . S
C2029 H2019 0.929 . S
C2029 C2027 1.433 . S
C2029 N2032 1.384 . S
C2030 H2021 0.929 . S
C2030 C2022 1.378 . S
C2030 C2025 1.350 . S
C2031 H2018 0.929 . S
C2031 C2023 1.433 1_545 S
C2031 N2033 1.384 . S
N2032 C2028 1.427 . S
N2032 C2029 1.384 . S
N2033 C2025 1.427 1_545 S
N2033 C2031 1.384 . S
H2034 C2040 0.930 . S
H2035 C2044 0.930 . S
H2036 C2049 0.929 . S
H2037 C2047 0.929 . S
H2038 C2042 0.929 . S
H2039 C2048 0.929 . S
C2040 H2034 0.930 . S
C2040 C2041 1.367 1_545 S
C2040 C2048 1.378 . S
C2041 C2040 1.367 1_565 S
C2041 C2049 1.433 . S
C2042 H2038 0.929 . S
C2042 C2044 1.378 . S
C2042 C2046 1.350 . S
C2043 C2046 1.463 . S
C2043 C2048 1.350 1_565 S
C2043 N2051 1.427 . S
C2044 H2035 0.930 . S
C2044 C2042 1.378 . S
C2044 C2045 1.367 . S
C2045 C2044 1.367 . S
C2045 C2047 1.433 1_565 S
C2046 C2042 1.350 . S
C2046 C2043 1.463 . S
C2046 N2050 1.427 1_565 S
C2047 H2037 0.929 . S
C2047 C2045 1.433 1_545 S
C2047 N2050 1.384 . S
C2048 H2039 0.929 . S
C2048 C2040 1.378 . S
C2048 C2043 1.350 1_545 S
C2049 H2036 0.929 . S
C2049 C2041 1.433 . S
C2049 N2051 1.384 . S
N2050 C2046 1.427 1_545 S
N2050 C2047 1.384 . S
N2051 C2043 1.427 . S
N2051 C2049 1.384 . S
H2052 C2058 0.930 . S
H2053 C2062 0.930 . S
H2054 C2067 0.929 . S
H2055 C2065 0.929 . S
H2056 C2060 0.929 . S
H2057 C2066 0.929 . S
C2058 H2052 0.930 . S
C2058 C2059 1.367 . S
C2058 C2066 1.378 . S
C2059 C2058 1.367 . S
C2059 C2067 1.433 1_455 S
C2060 H2056 0.929 . S
C2060 C2062 1.378 . S
C2060 C2064 1.350 1_655 S
C2061 C2064 1.463 . S
C2061 C2066 1.350 . S
C2061 N2069 1.427 1_455 S
C2062 H2053 0.930 . S
C2062 C2060 1.378 . S
C2062 C2063 1.367 1_655 S
C2063 C2062 1.367 1_455 S
C2063 C2065 1.433 . S
C2064 C2060 1.350 1_455 S
C2064 C2061 1.463 . S
C2064 N2068 1.427 . S
C2065 H2055 0.929 . S
C2065 C2063 1.433 . S
C2065 N2068 1.384 . S
C2066 H2057 0.929 . S
C2066 C2058 1.378 . S
C2066 C2061 1.350 . S
C2067 H2054 0.929 . S
C2067 C2059 1.433 1_655 S
C2067 N2069 1.384 . S
N2068 C2064 1.427 . S
N2068 C2065 1.384 . S
N2069 C2061 1.427 1_655 S
N2069 C2067 1.384 . S
H2070 C2076 0.930 . S
H2071 C2080 0.930 . S
H2072 C2085 0.929 . S
H2073 C2083 0.929 . S
H2074 C2078 0.929 . S
H2075 C2084 0.929 . S
C2076 H2070 0.930 . S
C2076 C2077 1.367 . S
C2076 C2084 1.378 . S
C2077 C2076 1.367 . S
C2077 C2085 1.433 . S
C2078 H2074 0.929 . S
C2078 C2080 1.378 . S
C2078 C2082 1.350 . S
C2079 C2082 1.463 . S
C2079 C2084 1.350 . S
C2079 N2087 1.427 . S
C2080 H2071 0.930 . S
C2080 C2078 1.378 . S
C2080 C2081 1.367 . S
C2081 C2080 1.367 . S
C2081 C2083 1.433 . S
C2082 C2078 1.350 . S
C2082 C2079 1.463 . S
C2082 N2086 1.427 . S
C2083 H2073 0.929 . S
C2083 C2081 1.433 . S
C2083 N2086 1.384 . S
C2084 H2075 0.929 . S
C2084 C2076 1.378 . S
C2084 C2079 1.350 . S
C2085 H2072 0.929 . S
C2085 C2077 1.433 . S
C2085 N2087 1.384 . S
N2086 C2082 1.427 . S
N2086 C2083 1.384 . S
N2087 C2079 1.427 . S
N2087 C2085 1.384 . S
H2088 C2094 0.930 . S
H2089 C2098 0.930 . S
H2090 C2103 0.929 . S
H2091 C2101 0.929 . S
H2092 C2096 0.929 . S
H2093 C2102 0.929 . S
C2094 H2088 0.930 . S
C2094 C2095 1.367 . S
C2094 C2102 1.378 . S
C2095 C2094 1.367 . S
C2095 C2103 1.433 . S
C2096 H2092 0.929 . S
C2096 C2098 1.378 . S
C2096 C2100 1.350 . S
C2097 C2100 1.463 . S
C2097 C2102 1.350 . S
C2097 N2105 1.427 . S
C2098 H2089 0.930 . S
C2098 C2096 1.378 . S
C2098 C2099 1.367 . S
C2099 C2098 1.367 . S
C2099 C2101 1.433 . S
C2100 C2096 1.350 . S
C2100 C2097 1.463 . S
C2100 N2104 1.427 . S
C2101 H2091 0.929 . S
C2101 C2099 1.433 . S
C2101 N2104 1.384 . S
C2102 H2093 0.929 . S
C2102 C2094 1.378 . S
C2102 C2097 1.350 . S
C2103 H2090 0.929 . S
C2103 C2095 1.433 . S
C2103 N2105 1.384 . S
N2104 C2100 1.427 . S
N2104 C2101 1.384 . S
N2105 C2097 1.427 . S
N2105 C2103 1.384 . S
H2106 C2112 0.930 . S
H2107 C2116 0.930 . S
H2108 C2121 0.929 . S
H2109 C2119 0.929 . S
H2110 C2114 0.929 . S
H2111 C2120 0.929 . S
C2112 H2106 0.930 . S
C2112 C2113 1.367 . S
C2112 C2120 1.378 . S
C2113 C2112 1.367 . S
C2113 C2121 1.433 . S
C2114 H2110 0.929 . S
C2114 C2116 1.378 . S
C2114 C2118 1.350 . S
C2115 C2118 1.463 . S
C2115 C2120 1.350 . S
C2115 N2123 1.427 . S
C2116 H2107 0.930 . S
C2116 C2114 1.378 . S
C2116 C2117 1.367 . S
C2117 C2116 1.367 . S
C2117 C2119 1.433 . S
C2118 C2114 1.350 . S
C2118 C2115 1.463 . S
C2118 N2122 1.427 . S
C2119 H2109 0.929 . S
C2119 C2117 1.433 . S
C2119 N2122 1.384 . S
C2120 H2111 0.929 . S
C2120 C2112 1.378 . S
C2120 C2115 1.350 . S
C2121 H2108 0.929 . S
C2121 C2113 1.433 . S
C2121 N2123 1.384 . S
N2122 C2118 1.427 . S
N2122 C2119 1.384 . S
N2123 C2115 1.427 . S
N2123 C2121 1.384 . S
H2124 C2130 0.930 . S
H2125 C2134 0.930 . S
H2126 C2139 0.929 . S
H2127 C2137 0.929 . S
H2128 C2132 0.929 . S
H2129 C2138 0.929 . S
C2130 H2124 0.930 . S
C2130 C2131 1.367 . S
C2130 C2138 1.378 . S
C2131 C2130 1.367 . S
C2131 C2139 1.433 . S
C2132 H2128 0.929 . S
C2132 C2134 1.378 . S
C2132 C2136 1.350 . S
C2133 C2136 1.463 . S
C2133 C2138 1.350 . S
C2133 N2141 1.427 . S
C2134 H2125 0.930 . S
C2134 C2132 1.378 . S
C2134 C2135 1.367 . S
C2135 C2134 1.367 . S
C2135 C2137 1.433 . S
C2136 C2132 1.350 . S
C2136 C2133 1.463 . S
C2136 N2140 1.427 . S
C2137 H2127 0.929 . S
C2137 C2135 1.433 . S
C2137 N2140 1.384 . S
C2138 H2129 0.929 . S
C2138 C2130 1.378 . S
C2138 C2133 1.350 . S
C2139 H2126 0.929 . S
C2139 C2131 1.433 . S
C2139 N2141 1.384 . S
N2140 C2136 1.427 . S
N2140 C2137 1.384 . S
N2141 C2133 1.427 . S
N2141 C2139 1.384 . S
H2142 C2148 0.924 1_565 S
H2143 C2152 0.930 . S
H2144 C2157 0.929 . S
H2145 C2155 0.929 . S
H2146 C2150 0.929 . S
H2147 C2156 0.929 1_565 S
C2148 H2142 0.924 1_545 S
C2148 C2149 1.367 . S
C2148 C2156 1.378 . S
C2149 C2148 1.367 . S
C2149 C2157 1.433 . S
C2150 H2146 0.929 . S
C2150 C2152 1.378 . S
C2150 C2154 1.350 . S
C2151 C2154 1.463 . S
C2151 C2156 1.350 . S
C2151 N2159 1.427 . S
C2152 H2143 0.930 . S
C2152 C2150 1.378 . S
C2152 C2153 1.367 . S
C2153 C2152 1.367 . S
C2153 C2155 1.433 1_545 S
C2154 C2150 1.350 . S
C2154 C2151 1.463 . S
C2154 N2158 1.427 1_545 S
C2155 H2145 0.929 . S
C2155 C2153 1.433 1_565 S
C2155 N2158 1.384 . S
C2156 H2147 0.929 1_545 S
C2156 C2148 1.378 . S
C2156 C2151 1.350 . S
C2157 H2144 0.929 . S
C2157 C2149 1.433 . S
C2157 N2159 1.384 . S
N2158 C2154 1.427 1_565 S
N2158 C2155 1.384 . S
N2159 C2151 1.427 . S
N2159 C2157 1.384 . S
H2160 C2166 0.930 . S
H2161 C2170 0.930 . S
H2162 C2175 0.929 . S
H2163 C2173 0.929 . S
H2164 C2168 0.929 . S
H2165 C2174 0.929 . S
C2166 H2160 0.930 . S
C2166 C2167 1.367 1_455 S
C2166 C2174 1.378 . S
C2167 C2166 1.367 1_655 S
C2167 C2175 1.433 . S
C2168 H2164 0.929 . S
C2168 C2170 1.378 . S
C2168 C2172 1.350 . S
C2169 C2172 1.463 . S
C2169 C2174 1.350 1_655 S
C2169 N2177 1.427 . S
C2170 H2161 0.930 . S
C2170 C2168 1.378 . S
C2170 C2171 1.367 . S
C2171 C2170 1.367 . S
C2171 C2173 1.433 1_655 S
C2172 C2168 1.350 . S
C2172 C2169 1.463 . S
C2172 N2176 1.427 1_655 S
C2173 H2163 0.929 . S
C2173 C2171 1.433 1_455 S
C2173 N2176 1.384 . S
C2174 H2165 0.929 . S
C2174 C2166 1.378 . S
C2174 C2169 1.350 1_455 S
C2175 H2162 0.929 . S
C2175 C2167 1.433 . S
C2175 N2177 1.384 . S
N2176 C2172 1.427 1_455 S
N2176 C2173 1.384 . S
N2177 C2169 1.427 . S
N2177 C2175 1.384 . S
H2178 C2184 0.930 . S
H2179 C2188 0.930 . S
H2180 C2193 0.929 . S
H2181 C2191 0.929 . S
H2182 C2186 0.929 . S
H2183 C2192 0.929 . S
C2184 H2178 0.930 . S
C2184 C2185 1.367 . S
C2184 C2192 1.378 . S
C2185 C2184 1.367 . S
C2185 C2193 1.433 . S
C2186 H2182 0.929 . S
C2186 C2188 1.378 . S
C2186 C2190 1.350 . S
C2187 C2190 1.463 . S
C2187 C2192 1.350 . S
C2187 N2195 1.427 . S
C2188 H2179 0.930 . S
C2188 C2186 1.378 . S
C2188 C2189 1.367 . S
C2189 C2188 1.367 . S
C2189 C2191 1.433 . S
C2190 C2186 1.350 . S
C2190 C2187 1.463 . S
C2190 N2194 1.427 . S
C2191 H2181 0.929 . S
C2191 C2189 1.433 . S
C2191 N2194 1.384 . S
C2192 H2183 0.929 . S
C2192 C2184 1.378 . S
C2192 C2187 1.350 . S
C2193 H2180 0.929 . S
C2193 C2185 1.433 . S
C2193 N2195 1.384 . S
N2194 C2190 1.427 . S
N2194 C2191 1.384 . S
N2195 C2187 1.427 . S
N2195 C2193 1.384 . S
H2196 C2202 0.930 . S
H2197 C2206 0.930 . S
H2198 C2211 0.929 . S
H2199 C2209 0.929 . S
H2200 C2204 0.929 . S
H2201 C2210 0.929 . S
C2202 H2196 0.930 . S
C2202 C2203 1.367 . S
C2202 C2210 1.378 . S
C2203 C2202 1.367 . S
C2203 C2211 1.433 . S
C2204 H2200 0.929 . S
C2204 C2206 1.378 . S
C2204 C2208 1.350 . S
C2205 C2208 1.463 . S
C2205 C2210 1.350 . S
C2205 N2213 1.427 . S
C2206 H2197 0.930 . S
C2206 C2204 1.378 . S
C2206 C2207 1.367 . S
C2207 C2206 1.367 . S
C2207 C2209 1.433 . S
C2208 C2204 1.350 . S
C2208 C2205 1.463 . S
C2208 N2212 1.427 . S
C2209 H2199 0.929 . S
C2209 C2207 1.433 . S
C2209 N2212 1.384 . S
C2210 H2201 0.929 . S
C2210 C2202 1.378 . S
C2210 C2205 1.350 . S
C2211 H2198 0.929 . S
C2211 C2203 1.433 . S
C2211 N2213 1.384 . S
N2212 C2208 1.427 . S
N2212 C2209 1.384 . S
N2213 C2205 1.427 . S
N2213 C2211 1.384 . S
H2214 C2220 0.930 . S
H2215 C2224 0.930 . S
H2216 C2229 0.929 . S
H2217 C2227 0.929 . S
H2218 C2222 0.929 . S
H2219 C2228 0.929 . S
C2220 H2214 0.930 . S
C2220 C2221 1.367 . S
C2220 C2228 1.378 . S
C2221 C2220 1.367 . S
C2221 C2229 1.433 . S
C2222 H2218 0.929 . S
C2222 C2224 1.378 . S
C2222 C2226 1.350 . S
C2223 C2226 1.463 . S
C2223 C2228 1.350 . S
C2223 N2231 1.427 . S
C2224 H2215 0.930 . S
C2224 C2222 1.378 . S
C2224 C2225 1.367 . S
C2225 C2224 1.367 . S
C2225 C2227 1.433 . S
C2226 C2222 1.350 . S
C2226 C2223 1.463 . S
C2226 N2230 1.427 . S
C2227 H2217 0.929 . S
C2227 C2225 1.433 . S
C2227 N2230 1.384 . S
C2228 H2219 0.929 . S
C2228 C2220 1.378 . S
C2228 C2223 1.350 . S
C2229 H2216 0.929 . S
C2229 C2221 1.433 . S
C2229 N2231 1.384 . S
N2230 C2226 1.427 . S
N2230 C2227 1.384 . S
N2231 C2223 1.427 . S
N2231 C2229 1.384 . S
H2232 C2238 0.930 . S
H2233 C2242 0.930 . S
H2234 C2247 0.929 . S
H2235 C2245 0.929 . S
H2236 C2240 0.929 . S
H2237 C2246 0.929 . S
C2238 H2232 0.930 . S
C2238 C2239 1.367 . S
C2238 C2246 1.378 . S
C2239 C2238 1.367 . S
C2239 C2247 1.433 . S
C2240 H2236 0.929 . S
C2240 C2242 1.378 . S
C2240 C2244 1.350 . S
C2241 C2244 1.463 . S
C2241 C2246 1.350 . S
C2241 N2249 1.427 . S
C2242 H2233 0.930 . S
C2242 C2240 1.378 . S
C2242 C2243 1.367 . S
C2243 C2242 1.367 . S
C2243 C2245 1.433 . S
C2244 C2240 1.350 . S
C2244 C2241 1.463 . S
C2244 N2248 1.427 . S
C2245 H2235 0.929 . S
C2245 C2243 1.433 . S
C2245 N2248 1.384 . S
C2246 H2237 0.929 . S
C2246 C2238 1.378 . S
C2246 C2241 1.350 . S
C2247 H2234 0.929 . S
C2247 C2239 1.433 . S
C2247 N2249 1.384 . S
N2248 C2244 1.427 . S
N2248 C2245 1.384 . S
N2249 C2241 1.427 . S
N2249 C2247 1.384 . S
H2250 C2256 0.930 . S
H2251 C2260 0.930 . S
H2252 C2265 0.929 . S
H2253 C2263 0.929 . S
H2254 C2258 0.929 . S
H2255 C2264 0.929 . S
C2256 H2250 0.930 . S
C2256 C2257 1.367 . S
C2256 C2264 1.378 . S
C2257 C2256 1.367 . S
C2257 C2265 1.433 . S
C2258 H2254 0.929 . S
C2258 C2260 1.378 . S
C2258 C2262 1.350 . S
C2259 C2262 1.463 . S
C2259 C2264 1.350 . S
C2259 N2267 1.427 . S
C2260 H2251 0.930 . S
C2260 C2258 1.378 . S
C2260 C2261 1.367 . S
C2261 C2260 1.367 . S
C2261 C2263 1.433 . S
C2262 C2258 1.350 . S
C2262 C2259 1.463 . S
C2262 N2266 1.427 . S
C2263 H2253 0.929 . S
C2263 C2261 1.433 . S
C2263 N2266 1.384 . S
C2264 H2255 0.929 . S
C2264 C2256 1.378 . S
C2264 C2259 1.350 . S
C2265 H2252 0.929 . S
C2265 C2257 1.433 . S
C2265 N2267 1.384 . S
N2266 C2262 1.427 . S
N2266 C2263 1.384 . S
N2267 C2259 1.427 . S
N2267 C2265 1.384 . S
H2268 C2274 0.930 . S
H2269 C2278 0.930 . S
H2270 C2283 0.929 . S
H2271 C2281 0.929 . S
H2272 C2276 0.929 . S
H2273 C2282 0.929 . S
C2274 H2268 0.930 . S
C2274 C2275 1.367 . S
C2274 C2282 1.378 . S
C2275 C2274 1.367 . S
C2275 C2283 1.433 . S
C2276 H2272 0.929 . S
C2276 C2278 1.378 . S
C2276 C2280 1.350 . S
C2277 C2280 1.463 . S
C2277 C2282 1.350 . S
C2277 N2285 1.427 . S
C2278 H2269 0.930 . S
C2278 C2276 1.378 . S
C2278 C2279 1.367 . S
C2279 C2278 1.367 . S
C2279 C2281 1.433 . S
C2280 C2276 1.350 . S
C2280 C2277 1.463 . S
C2280 N2284 1.427 . S
C2281 H2271 0.929 . S
C2281 C2279 1.433 . S
C2281 N2284 1.384 . S
C2282 H2273 0.929 . S
C2282 C2274 1.378 . S
C2282 C2277 1.350 . S
C2283 H2270 0.929 . S
C2283 C2275 1.433 . S
C2283 N2285 1.384 . S
N2284 C2280 1.427 . S
N2284 C2281 1.384 . S
N2285 C2277 1.427 . S
N2285 C2283 1.384 . S
H2286 C2292 0.930 . S
H2287 C2296 0.930 . S
H2288 C2301 0.929 . S
H2289 C2299 0.929 . S
H2290 C2294 0.929 . S
H2291 C2300 0.929 . S
C2292 H2286 0.930 . S
C2292 C2293 1.367 . S
C2292 C2300 1.378 . S
C2293 C2292 1.367 . S
C2293 C2301 1.433 . S
C2294 H2290 0.929 . S
C2294 C2296 1.378 . S
C2294 C2298 1.350 . S
C2295 C2298 1.463 . S
C2295 C2300 1.350 . S
C2295 N2303 1.427 . S
C2296 H2287 0.930 . S
C2296 C2294 1.378 . S
C2296 C2297 1.367 . S
C2297 C2296 1.367 . S
C2297 C2299 1.433 . S
C2298 C2294 1.350 . S
C2298 C2295 1.463 . S
C2298 N2302 1.427 . S
C2299 H2289 0.929 . S
C2299 C2297 1.433 . S
C2299 N2302 1.384 . S
C2300 H2291 0.929 . S
C2300 C2292 1.378 . S
C2300 C2295 1.350 . S
C2301 H2288 0.929 . S
C2301 C2293 1.433 . S
C2301 N2303 1.384 . S
N2302 C2298 1.427 . S
N2302 C2299 1.384 . S
N2303 C2295 1.427 . S
N2303 C2301 1.384 . S
H2304 C2310 0.930 . S
H2305 C2314 0.930 . S
H2306 C2319 0.927 . S
H2307 C2317 0.929 . S
H2308 C2312 0.929 . S
H2309 C2318 0.929 . S
C2310 H2304 0.930 . S
C2310 C2311 1.367 . S
C2310 C2318 1.378 . S
C2311 C2310 1.367 . S
C2311 C2319 1.438 1_655 S
C2312 H2308 0.929 . S
C2312 C2314 1.378 . S
C2312 C2316 1.350 1_455 S
C2313 C2316 1.463 . S
C2313 C2318 1.350 . S
C2313 N2321 1.427 1_655 S
C2314 H2305 0.930 . S
C2314 C2312 1.378 . S
C2314 C2315 1.367 1_455 S
C2315 C2314 1.367 1_655 S
C2315 C2317 1.433 . S
C2316 C2312 1.350 1_655 S
C2316 C2313 1.463 . S
C2316 N2320 1.427 . S
C2317 H2307 0.929 . S
C2317 C2315 1.433 . S
C2317 N2320 1.384 . S
C2318 H2309 0.929 . S
C2318 C2310 1.378 . S
C2318 C2313 1.350 . S
C2319 H2306 0.927 . S
C2319 C2311 1.438 1_455 S
C2319 N2321 1.381 . S
N2320 C2316 1.427 . S
N2320 C2317 1.384 . S
N2321 C2313 1.427 1_455 S
N2321 C2319 1.381 . S
H2322 C2328 0.930 . S
H2323 C2332 0.930 . S
H2324 C2337 0.929 . S
H2325 C2335 0.929 . S
H2326 C2330 0.929 . S
H2327 C2336 0.929 . S
C2328 H2322 0.930 . S
C2328 C2329 1.367 . S
C2328 C2336 1.378 . S
C2329 C2328 1.367 . S
C2329 C2337 1.433 . S
C2330 H2326 0.929 . S
C2330 C2332 1.378 . S
C2330 C2334 1.350 . S
C2331 C2334 1.463 . S
C2331 C2336 1.350 . S
C2331 N2339 1.427 . S
C2332 H2323 0.930 . S
C2332 C2330 1.378 . S
C2332 C2333 1.367 . S
C2333 C2332 1.367 . S
C2333 C2335 1.433 . S
C2334 C2330 1.350 . S
C2334 C2331 1.463 . S
C2334 N2338 1.427 . S
C2335 H2325 0.929 . S
C2335 C2333 1.433 . S
C2335 N2338 1.384 . S
C2336 H2327 0.929 . S
C2336 C2328 1.378 . S
C2336 C2331 1.350 . S
C2337 H2324 0.929 . S
C2337 C2329 1.433 . S
C2337 N2339 1.384 . S
N2338 C2334 1.427 . S
N2338 C2335 1.384 . S
N2339 C2331 1.427 . S
N2339 C2337 1.384 . S
H2340 C2346 0.930 . S
H2341 C2350 0.930 . S
H2342 C2355 0.929 . S
H2343 C2353 0.929 . S
H2344 C2348 0.930 1_565 S
H2345 C2354 0.929 . S
C2346 H2340 0.930 . S
C2346 C2347 1.367 . S
C2346 C2354 1.378 . S
C2347 C2346 1.367 . S
C2347 C2355 1.433 . S
C2348 H2344 0.930 1_545 S
C2348 C2350 1.376 1_545 S
C2348 C2352 1.350 . S
C2349 C2352 1.463 . S
C2349 C2354 1.350 . S
C2349 N2357 1.427 . S
C2350 H2341 0.930 . S
C2350 C2348 1.376 1_565 S
C2350 C2351 1.367 1_565 S
C2351 C2350 1.367 1_545 S
C2351 C2353 1.433 . S
C2352 C2348 1.350 . S
C2352 C2349 1.463 . S
C2352 N2356 1.427 . S
C2353 H2343 0.929 . S
C2353 C2351 1.433 . S
C2353 N2356 1.384 . S
C2354 H2345 0.929 . S
C2354 C2346 1.378 . S
C2354 C2349 1.350 . S
C2355 H2342 0.929 . S
C2355 C2347 1.433 . S
C2355 N2357 1.384 . S
N2356 C2352 1.427 . S
N2356 C2353 1.384 . S
N2357 C2349 1.427 . S
N2357 C2355 1.384 . S
C1069 C8 1.375 . S
C1073 C670 1.430 . S
C1087 C18 1.486 . S
C1091 C716 1.513 . S
C1109 C748 1.490 . S
C1105 C31 1.409 . S
C1123 C34 1.401 1_565 S
C1127 C801 1.464 . S
C1141 C5 1.401 . S
C1145 C847 1.485 . S
C1159 C21 1.494 . S
C1163 C886 1.539 . S
C1177 C47 1.367 . S
C1181 C840 1.448 . S
C1199 C893 1.520 . S
C1195 C57 1.474 . S
C1217 C794 1.503 . S
C1213 C70 1.418 . S
C1231 C73 1.361 . S
C1235 C755 1.444 . S
C1253 C649 1.492 . S
C1249 C44 1.412 . S
C1267 C60 1.496 . S
C1271 C695 1.524 . S
C1285 C86 1.566 . S
C1289 C925 1.617 . S
C1303 C96 1.543 . S
C1307 C992 1.558 . S
C1325 C1038 1.600 . S
C1321 C109 1.603 . S
C1339 C112 1.569 . S
C1343 C249 1.595 . S
C1357 C83 1.601 . S
C1361 C295 1.610 . S
C1375 C99 1.551 . S
C1379 C341 1.581 . S
C1393 C125 1.481 . S
C1397 C288 1.521 . S
C1411 C135 1.534 . S
C1415 C334 1.564 . S
C1433 C242 1.612 . S
C1429 C148 1.603 . S
C1451 C1017 1.675 . S
C1447 C151 1.660 . S
C1469 C946 1.595 . S
C1465 C122 1.578 . S
C1487 C971 1.611 . S
C1483 C138 1.581 . S
C1501 C164 1.499 . S
C1505 C373 1.532 . S
C1519 C174 1.521 . S
C1523 C426 1.562 . S
C1537 C187 1.588 . S
C1541 C472 1.621 . S
C1555 C190 1.654 . S
C1559 C518 1.683 . S
C1577 C571 1.601 . S
C1573 C161 1.595 . S
C1595 C617 1.607 . S
C1591 C177 1.590 . S
C1613 C564 1.615 . S
C1609 C203 1.581 . S
C1631 C610 1.571 . S
C1627 C213 1.557 . S
C1645 C226 1.594 . S
C1649 C525 1.605 . S
C1667 C479 1.599 . S
C1663 C229 1.561 . S
C1681 C200 1.590 . S
C1685 C394 1.622 . S
C1703 C433 1.598 . S
C1699 C216 1.558 . S
C1721 C256 1.526 . S
C1717 C0 1.460 . S
C1735 C23 1.454 . S
C1739 C302 1.431 . S
C1757 C348 1.524 . S
C1753 C36 1.547 . S
C1775 C380 1.533 . S
C1771 C26 1.474 . S
C1793 C419 1.487 . S
C1789 C10 1.526 . S
C1811 C465 1.439 . S
C1807 C13 1.408 . S
C1825 C39 1.473 . S
C1829 C486 1.524 . S
C1843 C62 1.443 . S
C1847 C387 1.413 . S
C1861 C75 1.519 . S
C1865 C440 1.487 . S
C1879 C65 1.508 . S
C1883 C281 1.577 . S
C1901 C327 1.506 . S
C1897 C49 1.526 . S
C1915 C52 1.404 . S
C1919 C235 1.454 . S
C1937 C511 1.455 . S
C1933 C78 1.416 . S
C1951 C101 1.559 . S
C1955 C578 1.536 . S
C1969 C114 1.568 . S
C1973 C624 1.546 . S
C1991 C663 1.295 . S
C1987 C104 1.274 . S
C2005 C88 1.450 . S
C2009 C709 1.431 . S
C2023 C91 1.201 . S
C2027 C741 1.218 . S
C2041 C117 1.226 . S
C2045 C762 1.242 . S
C2059 C140 1.247 . S
C2063 C656 1.254 . S
C2081 C702 1.451 . S
C2077 C153 1.467 . S
C2095 C143 1.456 . S
C2099 C557 1.507 . S
C2113 C127 1.565 . S
C2117 C603 1.545 . S
C2135 C532 1.529 . S
C2131 C130 1.510 . S
C2153 C808 1.266 . S
C2149 C156 1.240 . S
C2167 C179 1.244 . S
C2171 C854 1.245 . S
C2185 C192 1.460 . S
C2189 C879 1.439 . S
C2207 C932 1.470 . S
C2203 C182 1.432 . S
C2225 C985 1.543 . S
C2221 C166 1.567 . S
C2239 C169 1.526 . S
C2243 C1031 1.556 . S
C2257 C195 1.426 . S
C2261 C1024 1.478 . S
C2275 C218 1.556 . S
C2279 C939 1.523 . S
C2297 C978 1.525 . S
C2293 C231 1.546 . S
C2315 C833 1.280 . S
C2311 C221 1.261 . S
C2333 C900 1.436 . S
C2329 C205 1.462 . S
C2347 C208 1.215 . S
C2351 C787 1.239 . S
