# Generated by pormake.
# Topology sqc, (4,8)-cn, num edge types: 1
# Building blocks:
#     Node 0, Type 0, BuildingBlock: GIZVER_clean_linker_0, # of connection points: 4
#     Node 1, Type 0, BuildingBlock: GIZVER_clean_linker_0, # of connection points: 4
#     Node 2, Type 0, BuildingBlock: GIZVER_clean_linker_0, # of connection points: 4
#     Node 3, Type 0, BuildingBlock: GIZVER_clean_linker_0, # of connection points: 4
#     Node 4, Type 0, BuildingBlock: GIZVER_clean_linker_0, # of connection points: 4
#     Node 5, Type 0, BuildingBlock: GIZVER_clean_linker_0, # of connection points: 4
#     Node 6, Type 0, BuildingBlock: GIZVER_clean_linker_0, # of connection points: 4
#     Node 7, Type 0, BuildingBlock: GIZVER_clean_linker_0, # of connection points: 4
#     Node 8, Type 1, BuildingBlock: TAGTUT_clean_sbu_3, # of connection points: 8
#     Node 9, Type 1, BuildingBlock: TAGTUT_clean_sbu_3, # of connection points: 8
#     Node 10, Type 1, BuildingBlock: TAGTUT_clean_sbu_3, # of connection points: 8
#     Node 11, Type 1, BuildingBlock: TAGTUT_clean_sbu_3, # of connection points: 8
#     Edge 12, Type (0, 1), BuildingBlock: OJICUG_clean_linker_0, # of connection points: 2
#     Edge 13, Type (0, 1), BuildingBlock: OJICUG_clean_linker_0, # of connection points: 2
#     Edge 14, Type (0, 1), BuildingBlock: OJICUG_clean_linker_0, # of connection points: 2
#     Edge 15, Type (0, 1), BuildingBlock: OJICUG_clean_linker_0, # of connection points: 2
#     Edge 16, Type (0, 1), BuildingBlock: OJICUG_clean_linker_0, # of connection points: 2
#     Edge 17, Type (0, 1), BuildingBlock: OJICUG_clean_linker_0, # of connection points: 2
#     Edge 18, Type (0, 1), BuildingBlock: OJICUG_clean_linker_0, # of connection points: 2
#     Edge 19, Type (0, 1), BuildingBlock: OJICUG_clean_linker_0, # of connection points: 2
#     Edge 20, Type (0, 1), BuildingBlock: OJICUG_clean_linker_0, # of connection points: 2
#     Edge 21, Type (0, 1), BuildingBlock: OJICUG_clean_linker_0, # of connection points: 2
#     Edge 22, Type (0, 1), BuildingBlock: OJICUG_clean_linker_0, # of connection points: 2
#     Edge 23, Type (0, 1), BuildingBlock: OJICUG_clean_linker_0, # of connection points: 2
#     Edge 24, Type (0, 1), BuildingBlock: OJICUG_clean_linker_0, # of connection points: 2
#     Edge 25, Type (0, 1), BuildingBlock: OJICUG_clean_linker_0, # of connection points: 2
#     Edge 26, Type (0, 1), BuildingBlock: OJICUG_clean_linker_0, # of connection points: 2
#     Edge 27, Type (0, 1), BuildingBlock: OJICUG_clean_linker_0, # of connection points: 2
#     Edge 28, Type (0, 1), BuildingBlock: OJICUG_clean_linker_0, # of connection points: 2
#     Edge 29, Type (0, 1), BuildingBlock: OJICUG_clean_linker_0, # of connection points: 2
#     Edge 30, Type (0, 1), BuildingBlock: OJICUG_clean_linker_0, # of connection points: 2
#     Edge 31, Type (0, 1), BuildingBlock: OJICUG_clean_linker_0, # of connection points: 2
#     Edge 32, Type (0, 1), BuildingBlock: OJICUG_clean_linker_0, # of connection points: 2
#     Edge 33, Type (0, 1), BuildingBlock: OJICUG_clean_linker_0, # of connection points: 2
#     Edge 34, Type (0, 1), BuildingBlock: OJICUG_clean_linker_0, # of connection points: 2
#     Edge 35, Type (0, 1), BuildingBlock: OJICUG_clean_linker_0, # of connection points: 2
#     Edge 36, Type (0, 1), BuildingBlock: OJICUG_clean_linker_0, # of connection points: 2
#     Edge 37, Type (0, 1), BuildingBlock: OJICUG_clean_linker_0, # of connection points: 2
#     Edge 38, Type (0, 1), BuildingBlock: OJICUG_clean_linker_0, # of connection points: 2
#     Edge 39, Type (0, 1), BuildingBlock: OJICUG_clean_linker_0, # of connection points: 2
#     Edge 40, Type (0, 1), BuildingBlock: OJICUG_clean_linker_0, # of connection points: 2
#     Edge 41, Type (0, 1), BuildingBlock: OJICUG_clean_linker_0, # of connection points: 2
#     Edge 42, Type (0, 1), BuildingBlock: OJICUG_clean_linker_0, # of connection points: 2
#     Edge 43, Type (0, 1), BuildingBlock: OJICUG_clean_linker_0, # of connection points: 2
# Relax obj value: 0.176
# Max RMSD: 0.270
# Mean RMSD: 0.222
data_MOF--net-sqc--node1-TAGTUT_clean_sbu_3--node2-GIZVER_clean_linker_0--edge1-OJICUG_clean_linker_0
_symmetry_space_group_name_H-M    P1
_symmetry_Int_Tables_number       1
_symmetry_cell_setting            triclinic
loop_
_symmetry_equiv_pos_as_xyz
'x, y, z'
_cell_length_a     18.575373
_cell_length_b     18.479266
_cell_length_c     54.745183
_cell_angle_alpha  90.001496
_cell_angle_beta   90.127456
_cell_angle_gamma 89.729708
loop_
_atom_site_label
_atom_site_type_symbol
_atom_site_fract_x
_atom_site_fract_y
_atom_site_fract_z
_atom_type_partial_charge
H0 H 0.99531 0.95738 0.43175 0.0
H1 H 1.00141 0.08583 0.49708 0.0
H2 H 0.80275 0.98956 0.47384 0.0
H3 H 0.08937 0.04365 0.43711 0.0
H4 H 0.08513 0.10718 0.46134 0.0
H5 H 0.16387 0.93603 0.44017 0.0
H6 H 0.31833 0.9304 0.49833 0.0
H7 H 0.14532 0.08519 0.50026 0.0
C8 C 0.96879 0.97822 0.44792 0.0
C9 C 0.89462 0.96657 0.45125 0.0
C10 C 0.00788 0.0213 0.46434 0.0
C11 C 0.97242 0.05015 0.48485 0.0
C12 C 0.89839 0.03757 0.48857 0.0
C13 C 0.86055 0.99494 0.47191 0.0
C14 C 0.08176 0.0483 0.45721 0.0
C15 C 0.1429 0.00958 0.47011 0.0
C16 C 0.18092 0.95344 0.45817 0.0
C17 C 0.24564 0.92638 0.46812 0.0
C18 C 0.2681 0.95114 0.49095 0.0
C19 C 0.23463 0.01042 0.50211 0.0
C20 C 0.17068 0.03824 0.49202 0.0
H21 H 0.50278 0.76404 0.70283 0.0
H22 H 0.40669 0.80488 0.77308 0.0
H23 H 0.36054 0.9457 0.71273 0.0
H24 H 0.5569 0.71722 0.7429 0.0
H25 H 0.50382 0.7195 0.77003 0.0
H26 H 0.52231 0.6368 0.70786 0.0
H27 H 0.40072 0.44933 0.72687 0.0
H28 H 0.41073 0.6292 0.77679 0.0
C29 C 0.46619 0.79478 0.71424 0.0
C30 C 0.43042 0.85544 0.70451 0.0
C31 C 0.45681 0.77528 0.73889 0.0
C32 C 0.4118 0.8178 0.75385 0.0
C33 C 0.37764 0.87988 0.74444 0.0
C34 C 0.38597 0.89702 0.71976 0.0
C35 C 0.50067 0.71419 0.74981 0.0
C36 C 0.46998 0.64129 0.74316 0.0
C37 C 0.4873 0.60927 0.72061 0.0
C38 C 0.45973 0.54128 0.71458 0.0
C39 C 0.41751 0.50387 0.73133 0.0
C40 C 0.39927 0.53434 0.75387 0.0
C41 C 0.42499 0.60403 0.75959 0.0
H42 H 0.7631 0.03592 0.02224 0.0
H43 H 0.75155 0.15822 0.95553 0.0
H44 H 0.90029 0.98073 0.9619 0.0
H45 H 0.70413 0.15621 0.02045 0.0
H46 H 0.6919 0.20191 -0.00812 0.0
H47 H 0.60663 0.08733 0.03594 0.0
H48 H 0.42471 0.03991 -0.00964 0.0
H49 H 0.61458 0.13478 0.95902 0.0
C50 C 0.77892 0.04297 0.00334 0.0
C51 C 0.83502 1.00096 -0.00643 0.0
C52 C 0.74764 0.09892 -0.0105 0.0
C53 C 0.77272 0.11258 0.96577 0.0
C54 C 0.82764 0.06981 0.95569 0.0
C55 C 0.85588 0.01208 0.96928 0.0
C56 C 0.6918 0.14772 0.00076 0.0
C57 C 0.6184 0.11491 -0.00224 0.0
C58 C 0.5819 0.0863 0.01798 0.0
C59 C 0.51211 0.05938 0.01525 0.0
C60 C 0.47956 0.05907 -0.0079 0.0
C61 C 0.51614 0.08541 0.97152 0.0
C62 C 0.58566 0.11359 -0.0254 0.0
H63 H 0.19471 0.23195 0.2175 0.0
H64 H 0.27664 0.25313 0.29097 0.0
H65 H 0.27103 0.04478 0.25665 0.0
H66 H 0.15668 0.33498 0.24521 0.0
H67 H 0.20194 0.34888 0.27357 0.0
H68 H 0.19666 0.39973 0.21064 0.0
H69 H 0.39558 0.51562 0.21253 0.0
H70 H 0.33402 0.3828 0.27355 0.0
C71 C 0.21795 0.20763 0.23373 0.0
C72 C 0.23278 0.13285 0.23429 0.0
C73 C 0.23302 0.25143 0.25421 0.0
C74 C 0.2646 0.22008 0.27514 0.0
C75 C 0.27778 0.14542 0.27593 0.0
C76 C 0.26127 0.10263 0.25566 0.0
C77 C 0.20986 0.32985 0.25447 0.0
C78 C 0.26412 0.37831 0.24213 0.0
C79 C 0.24776 0.4106 0.21948 0.0
C80 C 0.29477 0.46129 0.20913 0.0
C81 C 0.35997 0.476 0.22066 0.0
C82 C 0.37206 0.45303 0.24473 0.0
C83 C 0.32606 0.40072 0.25489 0.0
H84 H 0.69047 0.28432 0.23439 0.0
H85 H 0.75239 0.24569 0.15967 0.0
H86 H 0.79005 0.45284 0.19213 0.0
H87 H 0.63862 0.1833 0.21192 0.0
H88 H 0.66058 0.16817 0.18056 0.0
H89 H 0.69195 0.10445 0.24109 0.0
H90 H 0.863 0.96084 0.21983 0.0
H91 H 0.79204 0.1278 0.17074 0.0
C92 C 0.7141 0.3035 0.21753 0.0
C93 C 0.74024 0.37475 0.21592 0.0
C94 C 0.71775 0.25662 0.19731 0.0
C95 C 0.74975 0.28074 0.17551 0.0
C96 C 0.77685 0.35105 0.17403 0.0
C97 C 0.77106 0.39772 0.19399 0.0
C98 C 0.6839 0.18271 0.19864 0.0
C99 C 0.73836 0.12541 0.20565 0.0
C100 C 0.73342 0.08905 0.22817 0.0
C101 C 0.77819 0.02922 0.23323 0.0
C102 C 0.83004 0.00828 0.21621 0.0
C103 C 0.83558 0.04394 0.19375 0.0
C104 C 0.78989 0.10254 0.18857 0.0
H105 H 0.74206 0.76082 0.69688 0.0
H106 H 0.80433 0.78791 0.77228 0.0
H107 H 0.82118 0.57957 0.73837 0.0
H108 H 0.70125 0.86583 0.71934 0.0
H109 H 0.72152 0.87629 0.75102 0.0
H110 H 0.76337 0.94241 0.69171 0.0
H111 H 0.9344 0.07615 0.71846 0.0
H112 H 0.85554 0.90099 0.76245 0.0
C113 C 0.7636 0.73856 0.71371 0.0
C114 C 0.78144 0.66471 0.71508 0.0
C115 C 0.77185 0.78368 0.73419 0.0
C116 C 0.79942 0.75446 0.75612 0.0
C117 C 0.81782 0.68096 0.75738 0.0
C118 C 0.8087 0.63683 0.73693 0.0
C119 C 0.74522 0.86082 0.7331 0.0
C120 C 0.80498 0.9132 0.72727 0.0
C121 C 0.8041 0.95329 0.70543 0.0
C122 C 0.85149 0.01164 0.70216 0.0
C123 C 0.90111 0.02847 0.72048 0.0
C124 C 0.90327 0.98826 0.74221 0.0
C125 C 0.85611 0.92987 0.74525 0.0
H126 H 0.4802 0.47109 0.02805 0.0
H127 H 0.47232 0.39583 0.95364 0.0
H128 H 0.29224 0.51081 -0.01607 0.0
H129 H 0.5654 0.3797 0.01403 0.0
H130 H 0.55793 0.34232 -0.01581 0.0
H131 H 0.63372 0.49416 0.02118 0.0
H132 H 0.79875 0.53679 0.96907 0.0
H133 H 0.62948 0.38805 0.95096 0.0
C134 C 0.45214 0.46681 0.01073 0.0
C135 C 0.38154 0.49416 0.00842 0.0
C136 C 0.48581 0.43181 -0.00907 0.0
C137 C 0.44796 0.42489 0.96873 0.0
C138 C 0.37728 0.45207 0.96648 0.0
C139 C 0.34553 0.48745 -0.01383 0.0
C140 C 0.55776 0.39431 -0.00553 0.0
C141 C 0.62091 0.43991 -0.01371 0.0
C142 C 0.65448 0.48793 0.00281 0.0
C143 C 0.71785 0.52389 -0.00395 0.0
C144 C 0.74701 0.51247 0.97303 0.0
C145 C 0.71723 0.46254 0.95679 0.0
C146 C 0.65274 0.42759 0.96324 0.0
H147 H 0.23575 0.55062 0.51707 0.0
H148 H 0.28557 0.64026 0.44674 0.0
H149 H 0.41035 0.46282 0.47446 0.0
H150 H 0.19781 0.67793 0.50434 0.0
H151 H 0.20832 0.70585 0.47324 0.0
H152 H 0.09507 0.61204 0.51636 0.0
H153 H 0.93957 0.54323 0.4633 0.0
H154 H 0.13988 0.63604 0.43966 0.0
C155 C 0.26671 0.54875 0.50032 0.0
C156 C 0.32284 0.49779 0.49768 0.0
C157 C 0.25307 0.60008 0.48188 0.0
C158 C 0.29467 0.59947 0.46069 0.0
C159 C 0.35106 0.54982 0.458 0.0
C160 C 0.36364 0.4979 0.4761 0.0
C161 C 0.19719 0.65832 0.48512 0.0
C162 C 0.12472 0.62831 0.47872 0.0
C163 C 0.07896 0.60547 0.49744 0.0
C164 C 0.01208 0.57542 0.4919 0.0
C165 C 0.99176 0.56628 0.46746 0.0
C166 C 0.03762 0.58725 0.44839 0.0
C167 C 0.10402 0.61916 0.45415 0.0
C168 C 0.18721 0.64823 0.13542 0.0
C169 C 0.9293 0.53884 0.1131 0.0
C170 C 0.94667 0.65316 0.05024 0.0
Mg171 Mg 0.25518 0.80379 0.11806 0.0
Mg172 Mg 0.15369 0.93592 0.0976 0.0
O173 O 0.17798 0.83785 0.09542 0.0
Mg174 Mg 0.10399 0.76361 0.10207 0.0
O175 O 0.03457 0.68461 0.1091 0.0
Mg176 Mg 0.08156 0.60493 0.08965 0.0
Mg177 Mg 0.93894 0.70349 0.10061 0.0
C178 C 0.02553 0.88132 0.06497 0.0
O179 O 0.03911 0.83739 0.12745 0.0
O180 O 0.32833 0.88947 0.09826 0.0
O181 O 0.92464 0.80473 0.11942 0.0
O182 O 0.22757 0.8901 0.14794 0.0
O183 O 0.25322 0.97576 0.08414 0.0
O184 O 0.14366 0.9674 0.13467 0.0
O185 O 0.16522 0.68859 0.07581 0.0
O186 O 0.27521 0.72128 0.08882 0.0
C187 C 0.23443 0.68168 0.07555 0.0
C188 C 0.31641 0.94866 0.08643 0.0
O189 O 0.03503 0.81504 0.07133 0.0
O190 O 0.99549 0.52971 0.10685 0.0
O191 O 0.06157 0.93399 0.07396 0.0
O192 O 0.99905 0.61291 0.05737 0.0
O193 O 0.89751 0.60061 0.11213 0.0
O194 O 0.92776 0.70838 0.06239 0.0
O195 O 0.17438 0.71666 0.13304 0.0
O196 O 0.15653 0.60037 0.12209 0.0
C197 C 0.18552 0.9444 0.1514 0.0
C198 C 0.9709 0.84706 0.12925 0.0
C199 C 0.7378 0.82612 0.37519 0.0
C200 C 0.86474 0.58957 0.36384 0.0
C201 C 0.72356 0.56538 0.29908 0.0
Mg202 Mg 0.57874 0.8837 0.36197 0.0
Mg203 Mg 0.44541 0.7794 0.34455 0.0
O204 O 0.54215 0.8033 0.34096 0.0
Mg205 Mg 0.62139 0.73197 0.34663 0.0
O206 O 0.70519 0.66839 0.35272 0.0
Mg207 Mg 0.77568 0.71594 0.3305 0.0
Mg208 Mg 0.70164 0.56741 0.35431 0.0
C209 C 0.49934 0.64477 0.31392 0.0
O210 O 0.56318 0.6694 0.37622 0.0
O211 O 0.48759 0.95547 0.3454 0.0
O212 O 0.60816 0.55581 0.37771 0.0
O213 O 0.49912 0.85564 0.39371 0.0
O214 O 0.40006 0.8806 0.33265 0.0
O215 O 0.42091 0.77094 0.38203 0.0
O216 O 0.68383 0.79215 0.31653 0.0
O217 O 0.65229 0.90302 0.32997 0.0
C218 C 0.68771 0.8619 0.31538 0.0
C219 C 0.42592 0.94427 0.33546 0.0
O220 O 0.56586 0.65538 0.31919 0.0
O221 O 0.8629 0.64524 0.34978 0.0
O222 O 0.44752 0.68355 0.3223 0.0
O223 O 0.75646 0.62635 0.30056 0.0
O224 O 0.80871 0.55152 0.36821 0.0
O225 O 0.69437 0.53539 0.31748 0.0
O226 O 0.67111 0.80775 0.37472 0.0
O227 O 0.78454 0.79842 0.36073 0.0
C228 C 0.44533 0.81413 0.39809 0.0
C229 C 0.56342 0.60468 0.38466 0.0
C230 C 0.74159 0.16867 0.62255 0.0
C231 C 0.49577 0.038 0.62505 0.0
C232 C 0.44774 0.15147 0.56026 0.0
Mg233 Mg 0.78178 0.3267 0.6008 0.0
Mg234 Mg 0.6629 0.45063 0.58488 0.0
O235 O 0.69052 0.35371 0.58361 0.0
Mg236 Mg 0.62865 0.27527 0.59593 0.0
O237 O 0.57289 0.19255 0.60844 0.0
Mg238 Mg 0.61207 0.11565 0.58628 0.0
Mg239 Mg 0.47287 0.20074 0.61145 0.0
C240 C 0.51572 0.38583 0.56674 0.0
O241 O 0.58025 0.344 0.62632 0.0
O242 O 0.83495 0.41481 0.5768 0.0
O243 O 0.46799 0.30142 0.63192 0.0
O244 O 0.76643 0.413 0.63164 0.0
O245 O 0.7493 0.49179 0.56343 0.0
O246 O 0.67677 0.48739 0.62082 0.0
O247 O 0.6754 0.20411 0.56509 0.0
O248 O 0.78829 0.24545 0.57051 0.0
C249 C 0.74315 0.20396 0.55976 0.0
C250 C 0.81462 0.46932 0.56388 0.0
O251 O 0.53555 0.32049 0.5715 0.0
O252 O 0.55169 0.03505 0.61131 0.0
O253 O 0.5545 0.44105 0.57175 0.0
O254 O 0.5085 0.11844 0.56197 0.0
O255 O 0.45788 0.09571 0.62775 0.0
O256 O 0.42718 0.19762 0.57601 0.0
O257 O 0.72069 0.23524 0.62116 0.0
O258 O 0.70806 0.11809 0.61136 0.0
C259 C 0.72512 0.46742 0.63585 0.0
C260 C 0.51795 0.3475 0.63625 0.0
C261 C 0.2304 0.36105 0.8818 0.0
C262 C 0.3412 0.11362 0.88511 0.0
C263 C 0.24935 0.07957 0.81278 0.0
Mg264 Mg 0.08461 0.4239 0.85764 0.0
Mg265 Mg 0.9553 0.32003 0.83724 0.0
O266 O 0.05348 0.33985 0.83707 0.0
Mg267 Mg 0.12286 0.26582 0.84943 0.0
O268 O 0.19776 0.19841 0.86169 0.0
Mg269 Mg 0.28278 0.23673 0.84358 0.0
Mg270 Mg 0.1872 0.098 0.86404 0.0
C271 C 0.01265 0.17423 0.81433 0.0
O272 O 0.04349 0.21275 0.87623 0.0
O273 O 0.00666 0.49438 0.83434 0.0
O274 O 0.07936 0.09603 0.87923 0.0
O275 O 0.98798 0.41121 0.88486 0.0
O276 O 0.91942 0.41981 0.82096 0.0
O277 O 0.91613 0.32103 0.87322 0.0
O278 O 0.20451 0.31338 0.82254 0.0
O279 O 0.17584 0.43011 0.83013 0.0
C280 C 0.2149 0.38179 0.81969 0.0
C281 C 0.94774 0.48282 0.82265 0.0
O282 O 0.07773 0.18581 0.82116 0.0
O283 O 0.35175 0.1659 0.87004 0.0
O284 O 0.95982 0.21629 0.81964 0.0
O285 O 0.27924 0.14165 0.81534 0.0
O286 O 0.28105 0.08007 0.88637 0.0
O287 O 0.20686 0.05408 0.82882 0.0
O288 O 0.16334 0.34685 0.8782 0.0
O289 O 0.28053 0.32555 0.87116 0.0
C290 C 0.93248 0.37114 0.88805 0.0
C291 C 0.03427 0.14733 0.88354 0.0
C292 C 0.37101 0.91126 0.45257 0.0
C293 C 0.29912 0.88699 0.45288 0.0
H294 H 0.47439 0.90508 0.43585 0.0
C295 C 0.2795 0.82951 0.43758 0.0
H296 H 0.38806 0.95625 0.46383 0.0
C297 C 0.32983 0.79997 0.42132 0.0
C298 C 0.4002 0.82834 0.41983 0.0
H299 H 0.2249 0.80919 0.43762 0.0
H300 H 0.31203 0.75825 0.40882 0.0
C301 C 0.42095 0.88192 0.43644 0.0
C302 C 0.51748 0.89072 0.6718 0.0
C303 C 0.44591 0.88303 0.67966 0.0
H304 H 0.58945 0.94606 0.6477 0.0
C305 C 0.39035 0.91509 0.66585 0.0
H306 H 0.56149 0.86695 0.68209 0.0
C307 C 0.40648 0.96179 0.64667 0.0
C308 C 0.47832 0.97545 0.64051 0.0
H309 H 0.33458 0.90873 0.67116 0.0
H310 H 0.36298 0.99053 0.63762 0.0
C311 C 0.53354 0.93633 0.65219 0.0
C312 C 0.43319 0.03116 0.94016 0.0
C313 C 0.47968 0.08728 0.94727 0.0
H314 H 0.35355 0.99485 0.91469 0.0
C315 C 0.48717 0.14748 0.93177 0.0
H316 H 0.42745 0.98318 0.95133 0.0
C317 C 0.446 0.15336 0.91046 0.0
C318 C 0.39571 0.09964 0.90433 0.0
H319 H 0.52187 0.19209 0.93672 0.0
H320 H 0.45039 0.20228 0.89968 0.0
C321 C 0.39134 0.03747 0.91901 0.0
C322 C 0.26797 0.02838 0.2076 0.0
C323 C 0.21923 0.08476 0.21298 0.0
H324 H 0.29433 0.93872 0.18469 0.0
C325 C 0.15702 0.09228 0.19855 0.0
H326 H 0.31727 0.02174 0.21798 0.0
C327 C 0.14436 0.04485 0.17907 0.0
C328 C 0.19326 0.98847 0.17382 0.0
H329 H 0.11792 0.13441 0.20238 0.0
H330 H 0.09678 0.05304 0.16793 0.0
C331 C 0.25475 0.98044 0.18849 0.0
C332 C 0.29046 0.12528 0.51723 0.0
C333 C 0.27725 0.05086 0.52046 0.0
H334 H 0.35611 0.21618 0.52729 0.0
C335 C 0.31817 0.01225 0.53773 0.0
H336 H 0.26037 0.15639 0.50388 0.0
C337 C 0.37534 0.0452 0.54972 0.0
C338 C 0.39113 0.1182 0.54547 0.0
H339 H 0.30855 0.95524 0.54092 0.0
H340 H 0.40703 0.0136 0.56255 0.0
C341 C 0.34642 0.15906 0.53003 0.0
C342 C 0.28838 0.90761 0.77754 0.0
C343 C 0.33949 0.9316 0.76062 0.0
H344 H 0.21764 0.93605 0.80674 0.0
C345 C 0.35534 1.00591 0.75938 0.0
H346 H 0.27464 0.8508 0.77866 0.0
C347 C 0.32285 0.05493 0.77537 0.0
C348 C 0.27359 0.03075 0.79294 0.0
H349 H 0.39498 0.0259 0.74659 0.0
H350 H 0.33842 0.11129 0.77453 0.0
C351 C 0.2553 0.95676 0.79341 0.0
C352 C 0.48683 0.97272 0.04936 0.0
C353 C 0.47 0.0366 0.03665 0.0
H354 H 0.45112 0.89424 0.07553 0.0
C355 C 0.40834 0.07605 0.04298 0.0
H356 H 0.53446 0.9417 0.04467 0.0
C357 C 0.36152 0.04991 0.06068 0.0
C358 C 0.37477 0.983 0.07219 0.0
H359 H 0.39495 0.12584 0.0335 0.0
H360 H 0.31288 0.08054 0.06438 0.0
C361 C 0.43932 0.94587 0.06702 0.0
C362 C 0.27311 0.05015 0.30761 0.0
C363 C 0.30968 0.10901 0.29735 0.0
H364 H 0.28159 0.95164 0.32782 0.0
C365 C 0.38224 0.12024 0.30334 0.0
H366 H 0.21708 0.04055 0.30315 0.0
C367 C 0.41952 0.06909 0.31747 0.0
C368 C 0.38457 1.00602 0.32548 0.0
H369 H 0.41154 0.1649 0.29535 0.0
H370 H 0.47673 0.07612 0.32044 0.0
C371 C 0.31026 0.99894 0.32147 0.0
C372 C 0.86746 0.15341 0.50901 0.0
C373 C 0.85699 0.07871 0.50704 0.0
H374 H 0.83669 0.25157 0.52654 0.0
C375 C 0.80216 0.04582 0.52092 0.0
H376 H 0.9073 0.18074 0.49796 0.0
C377 C 0.76042 0.08694 0.53719 0.0
C378 C 0.77314 0.16124 0.53959 0.0
H379 H 0.79246 0.98823 0.51945 0.0
H380 H 0.72085 0.0604 0.54856 0.0
C381 C 0.826 0.1941 0.52503 0.0
C382 C 0.76029 0.01533 0.27805 0.0
C383 C 0.76582 0.9836 0.25496 0.0
H384 H 0.73488 1.00029 0.3156 0.0
C385 C 0.75612 0.90831 0.25252 0.0
H386 H 0.76878 0.07287 0.28043 0.0
C387 C 0.73618 0.8663 0.27266 0.0
C388 C 0.72594 0.8992 0.29546 0.0
H389 H 0.76019 0.88264 0.23478 0.0
H390 H 0.7244 0.80947 0.27004 0.0
C391 C 0.74128 0.97346 0.29813 0.0
C392 C 0.85581 0.91422 0.02861 0.0
C393 C 0.88289 0.95869 0.00992 0.0
H394 H 0.88101 0.8528 0.06098 0.0
C395 C 0.95753 0.96998 0.00839 0.0
H396 H 0.7985 0.90492 0.03023 0.0
C397 C 1.00372 0.94057 0.02567 0.0
C398 C 0.97666 0.89902 0.04487 0.0
H399 H 0.98023 1.00528 -0.00536 0.0
H400 H 0.06062 0.95301 0.02464 0.0
C401 C 0.90275 0.88402 0.04599 0.0
C402 C 0.90418 0.02895 0.78529 0.0
C403 C 0.94221 0.01795 0.76346 0.0
H404 H 0.89799 0.08753 0.81879 0.0
C405 C 0.01132 0.0478 0.76087 0.0
H406 H 0.85063 1.00723 0.78779 0.0
C407 C 0.03857 0.09403 0.77883 0.0
C408 C 0.99623 0.11128 0.7992 0.0
H409 H 0.04182 0.03947 0.74426 0.0
H410 H 0.08943 0.12098 0.77576 0.0
C411 C 0.9309 0.0755 0.80296 0.0
C412 C 0.86312 0.95129 0.40722 0.0
C413 C 0.85023 0.93364 0.43176 0.0
H414 H 0.83511 0.93211 0.36991 0.0
C415 C 0.7923 0.88782 0.43752 0.0
H416 H 0.90557 0.98838 0.40221 0.0
C417 C 0.75017 0.8578 0.41898 0.0
C418 C 0.76613 0.87251 0.3945 0.0
H419 H 0.78096 0.87339 0.45629 0.0
H420 H 0.70849 0.81945 0.42371 0.0
C421 C 0.82179 0.92056 0.38877 0.0
C422 C 0.94848 0.98411 0.17942 0.0
C423 C 0.87868 0.00975 0.17439 0.0
H424 H 0.03291 0.91141 0.16882 0.0
C425 C 0.84446 0.98956 0.1526 0.0
H426 H 0.97578 0.99927 0.19616 0.0
C427 C 0.87658 0.9391 0.13722 0.0
C428 C 0.94361 0.90871 0.14331 0.0
H429 H 0.79037 0.00806 0.14843 0.0
H430 H 0.84741 0.92131 0.12116 0.0
C431 C 0.98099 0.93398 0.16386 0.0
C432 C 0.89015 0.04242 0.91631 0.0
C433 C 0.86693 0.09338 0.93367 0.0
H434 H 0.96175 0.01987 0.88663 0.0
C435 C 0.89331 0.16437 0.93251 0.0
H436 H 0.87079 0.98724 0.91691 0.0
C437 C 0.94509 0.18302 0.91524 0.0
C438 C 0.97168 0.13087 0.89895 0.0
H439 H 0.87773 0.20423 0.94605 0.0
H440 H 0.96763 0.23694 0.91571 0.0
C441 C 0.94238 0.06095 0.89915 0.0
C442 C 0.81616 0.13182 0.68479 0.0
C443 C 0.84185 0.06086 0.68118 0.0
H444 H 0.76494 0.22427 0.66835 0.0
C445 C 0.85029 0.03464 0.65741 0.0
H446 H 0.80957 0.15299 0.70311 0.0
C447 C 0.82712 0.07608 0.6376 0.0
C448 C 0.79296 0.14344 0.64131 0.0
H449 H 0.87078 0.98044 0.65426 0.0
H450 H 0.82927 0.05219 0.61953 0.0
C451 C 0.79156 0.17299 0.66492 0.0
C452 C 0.80767 0.48998 0.92433 0.0
C453 C 0.76256 0.43934 0.93585 0.0
H454 H 0.89982 0.50762 0.90187 0.0
C455 C 0.77192 0.36551 0.93049 0.0
H456 H 0.80049 0.54751 0.92732 0.0
C457 C 0.8275 0.34302 0.91502 0.0
C458 C 0.87681 0.39334 0.90565 0.0
H459 H 0.73845 0.32485 0.93898 0.0
H460 H 0.83233 0.28624 0.91061 0.0
C461 C 0.8653 0.46718 0.91001 0.0
C462 C 0.77467 0.43225 0.13842 0.0
C463 C 0.81128 0.3793 0.15195 0.0
H464 H 0.78386 0.52443 0.11515 0.0
C465 C 0.88583 0.37068 0.14907 0.0
H466 H 0.71724 0.44017 0.14073 0.0
C467 C 0.92439 0.41935 0.13463 0.0
C468 C 0.8886 0.47749 0.12325 0.0
H469 H 0.91497 0.33082 0.15978 0.0
H470 H 0.98255 0.41506 0.13412 0.0
C471 C 0.81303 0.48101 0.12414 0.0
C472 C 0.97538 0.51674 0.41564 0.0
C473 C 0.01244 0.57945 0.4228 0.0
H474 H 0.90037 0.46986 0.39064 0.0
C475 C 0.01458 0.63861 0.40673 0.0
H476 H 0.97442 0.46959 0.4274 0.0
C477 C 0.97283 0.63844 0.38543 0.0
C478 C 0.92791 0.57932 0.38004 0.0
H479 H 0.043 0.68753 0.41171 0.0
H480 H 0.97025 0.68753 0.37464 0.0
C481 C 0.93335 0.51671 0.39449 0.0
C482 C 0.8168 0.55866 0.68911 0.0
C483 C 0.7678 0.61478 0.69449 0.0
H484 H 0.84096 0.46667 0.6668 0.0
C485 C 0.70353 0.61988 0.68113 0.0
H486 H 0.8672 0.55378 0.69897 0.0
C487 C 0.68895 0.57052 0.66259 0.0
C488 C 0.7378 0.51426 0.65722 0.0
H489 H 0.66394 0.66136 0.68522 0.0
H490 H 0.63921 0.57669 0.65242 0.0
C491 C 0.80169 0.50853 0.67077 0.0
C492 C 0.81442 0.51631 0.0267 0.0
C493 C 0.76577 0.55983 0.01364 0.0
H494 H 0.91208 0.51118 0.04728 0.0
C495 C 0.77921 0.63428 0.01145 0.0
H496 H 0.80659 0.45831 0.02777 0.0
C497 C 0.84023 0.66475 0.02235 0.0
C498 C 0.89009 0.62072 0.03485 0.0
H499 H 0.74387 0.66822 0.00056 0.0
H500 H 0.84864 0.7226 0.02097 0.0
C501 C 0.87618 0.54625 0.03702 0.0
C502 C 0.78894 0.47764 0.24108 0.0
C503 C 0.73448 0.42625 0.23669 0.0
H504 H 0.82701 0.56381 0.26384 0.0
C505 C 0.67394 0.42562 0.25198 0.0
H506 H 0.83704 0.47905 0.22996 0.0
C507 C 0.66924 0.47324 0.27165 0.0
C508 C 0.72405 0.52369 0.27619 0.0
H509 H 0.63018 0.38819 0.24887 0.0
H510 H 0.62325 0.46955 0.28365 0.0
C511 C 0.78331 0.52649 0.26046 0.0
C512 C 0.98793 0.50873 0.53061 0.0
C513 C 0.96312 0.55335 0.51161 0.0
H514 H 0.96024 0.44718 0.56224 0.0
C515 C 0.8907 0.57499 0.51107 0.0
H516 H 0.0437 0.49139 0.53133 0.0
C517 C 0.84306 0.55031 0.52878 0.0
C518 C 0.86693 0.50289 0.54721 0.0
H519 H 0.87075 0.61028 0.49674 0.0
H520 H 0.78706 0.56648 0.52748 0.0
C521 C 0.94014 0.48342 0.54822 0.0
C522 C 0.91675 0.6553 0.78684 0.0
C523 C 0.84468 0.64638 0.77981 0.0
H524 H 0.00664 0.60968 0.80621 0.0
C525 C 0.80436 0.58993 0.78993 0.0
H526 H 0.94891 0.69794 0.77887 0.0
C527 C 0.83733 0.53883 0.80496 0.0
C528 C 0.91113 0.54367 0.81029 0.0
H529 H 0.74879 0.58194 0.78452 0.0
H530 H 0.8058 0.49352 0.8114 0.0
C531 C 0.94979 0.60436 0.80219 0.0
C532 C 0.27048 0.52607 0.03227 0.0
C533 C 0.34521 0.5336 0.02842 0.0
H534 H 0.17591 0.56793 0.04992 0.0
C535 C 0.38305 0.58594 0.04156 0.0
H536 H 0.24014 0.485 0.02266 0.0
C537 C 0.34655 0.63253 0.05717 0.0
C538 C 0.27119 0.62816 0.05994 0.0
H539 H 0.44025 0.59362 0.03882 0.0
H540 H 0.37763 0.67381 0.0664 0.0
C541 C 0.23358 0.57344 0.04777 0.0
C542 C 0.36655 0.49495 0.79647 0.0
C543 C 0.3546 0.4916 0.77113 0.0
H544 H 0.33153 0.46063 0.83194 0.0
C545 C 0.30069 0.44492 0.76217 0.0
H546 H 0.40816 0.52919 0.80402 0.0
C547 C 0.25971 0.40316 0.77808 0.0
C548 C 0.27041 0.40859 0.80326 0.0
H549 H 0.28836 0.44211 0.74286 0.0
H550 H 0.21657 0.37022 0.77079 0.0
C551 C 0.32406 0.45448 0.81241 0.0
C552 C 0.38112 0.38676 0.51564 0.0
C553 C 0.35053 0.45605 0.51891 0.0
H554 H 0.45838 0.30907 0.52875 0.0
C555 C 0.36189 0.49221 0.54113 0.0
H556 H 0.3724 0.35719 0.49882 0.0
C557 C 0.41064 0.4646 0.55814 0.0
C558 C 0.44845 0.40021 0.55333 0.0
H559 H 0.33946 0.54559 0.5443 0.0
H560 H 0.42345 0.49688 0.57409 0.0
C561 C 0.42996 0.35896 0.53279 0.0
C562 C 0.41475 0.57471 0.25738 0.0
C563 C 0.41752 0.4991 0.26074 0.0
H564 H 0.44023 0.67893 0.27148 0.0
C565 C 0.45531 0.47118 0.28101 0.0
H566 H 0.38412 0.59921 0.24268 0.0
C567 C 0.48678 0.5184 0.29801 0.0
C568 C 0.48064 0.59348 0.29473 0.0
H569 H 0.45821 0.41339 0.28416 0.0
H570 H 0.51269 0.49659 0.31418 0.0
C571 C 0.44619 0.62102 0.27407 0.0
C572 C 0.36232 0.45544 0.92118 0.0
C573 C 0.33372 0.44077 0.94425 0.0
H574 H 0.34806 0.44581 0.88262 0.0
C575 C 0.26275 0.41466 0.94613 0.0
H576 H 0.41607 0.47725 0.91932 0.0
C577 C 0.22337 0.39754 0.92519 0.0
C578 C 0.25474 0.40609 0.90217 0.0
H579 H 0.23934 0.40328 0.96382 0.0
H580 H 0.17172 0.37117 0.92713 0.0
C581 C 0.32279 0.4389 0.90029 0.0
C582 C 0.42069 0.48094 0.67644 0.0
C583 C 0.47699 0.50511 0.69147 0.0
H584 H 0.38972 0.41158 0.64697 0.0
C585 C 0.54754 0.48197 0.68698 0.0
H586 H 0.36568 0.49768 0.67995 0.0
C587 C 0.56117 0.43227 0.66837 0.0
C588 C 0.5044 0.40532 0.65406 0.0
H589 H 0.59117 0.4985 0.69888 0.0
H590 H 0.61539 0.41171 0.66614 0.0
C591 C 0.43428 0.43127 0.65786 0.0
C592 C 0.43566 0.63052 0.43671 0.0
C593 C 0.405 0.5617 0.43888 0.0
H594 H 0.51253 0.69634 0.41857 0.0
C595 C 0.42919 0.50505 0.42385 0.0
H596 H 0.41967 0.67436 0.44871 0.0
C597 C 0.48197 0.51811 0.40623 0.0
C598 C 0.51096 0.58775 0.40372 0.0
H599 H 0.40674 0.4513 0.42558 0.0
H600 H 0.49909 0.47443 0.39436 0.0
C601 C 0.48848 0.64319 0.41943 0.0
C602 C 0.31004 0.52417 0.16896 0.0
C603 C 0.26976 0.51262 0.19024 0.0
H604 H 0.31588 0.58004 0.13467 0.0
C605 C 0.21002 0.55724 0.19507 0.0
H606 H 0.35734 0.49153 0.16519 0.0
C607 C 0.18863 0.61009 0.17829 0.0
C608 C 0.2263 0.6187 0.15634 0.0
H609 H 0.17955 0.55082 0.21178 0.0
H610 H 0.13953 0.6404 0.18162 0.0
C611 C 0.28774 0.5761 0.15194 0.0
loop_
_geom_bond_atom_site_label_1
_geom_bond_atom_site_label_2
_geom_bond_distance
_geom_bond_site_symmetry_2
_ccdc_geom_bond_type
H0 C8 0.930 . S
H1 C11 0.930 . S
H2 C13 0.930 1_565 S
H3 C14 0.970 . S
H4 C14 0.970 . S
H5 C16 0.930 1_565 S
H6 C18 0.932 . S
H7 C20 0.930 . S
C8 H0 0.930 . S
C8 C9 1.382 1_545 S
C8 C10 1.426 . S
C9 C8 1.382 1_565 S
C9 C13 1.389 1_565 S
C10 C8 1.426 . S
C10 C11 1.375 . S
C10 C14 1.532 1_655 S
C11 H1 0.930 . S
C11 C10 1.375 . S
C11 C12 1.416 . S
C12 C11 1.416 . S
C12 C13 1.371 . S
C13 H2 0.930 1_545 S
C13 C9 1.389 1_545 S
C13 C12 1.371 . S
C14 H3 0.970 . S
C14 H4 0.970 . S
C14 C10 1.532 1_455 S
C14 C15 1.499 . S
C15 C14 1.499 . S
C15 C16 1.370 . S
C15 C20 1.415 . S
C16 H5 0.930 1_545 S
C16 C15 1.370 . S
C16 C17 1.407 1_545 S
C17 C16 1.407 1_565 S
C17 C18 1.366 . S
C18 H6 0.932 . S
C18 C17 1.366 . S
C18 C19 1.390 1_565 S
C19 C18 1.390 1_545 S
C19 C20 1.387 . S
C20 H7 0.930 . S
C20 C15 1.415 . S
C20 C19 1.387 . S
H21 C29 0.930 . S
H22 C32 0.930 . S
H23 C34 0.930 . S
H24 C35 0.970 . S
H25 C35 0.970 . S
H26 C37 0.930 . S
H27 C39 0.930 . S
H28 C41 0.930 . S
C29 H21 0.930 . S
C29 C30 1.382 . S
C29 C31 1.426 . S
C30 C29 1.382 . S
C30 C34 1.389 . S
C31 C29 1.426 . S
C31 C32 1.375 . S
C31 C35 1.532 . S
C32 H22 0.930 . S
C32 C31 1.375 . S
C32 C33 1.416 . S
C33 C32 1.416 . S
C33 C34 1.371 . S
C34 H23 0.930 . S
C34 C30 1.389 . S
C34 C33 1.371 . S
C35 H24 0.970 . S
C35 H25 0.970 . S
C35 C31 1.532 . S
C35 C36 1.499 . S
C36 C35 1.499 . S
C36 C37 1.370 . S
C36 C41 1.415 . S
C37 H26 0.930 . S
C37 C36 1.370 . S
C37 C38 1.407 . S
C38 C37 1.407 . S
C38 C39 1.365 . S
C39 H27 0.930 . S
C39 C38 1.365 . S
C39 C40 1.393 . S
C40 C39 1.393 . S
C40 C41 1.387 . S
C41 H28 0.930 . S
C41 C36 1.415 . S
C41 C40 1.387 . S
H42 C50 0.930 1_565 S
H43 C53 0.930 . S
H44 C55 0.934 . S
H45 C56 0.970 . S
H46 C56 0.970 . S
H47 C58 0.930 1_565 S
H48 C60 0.930 . S
H49 C62 0.930 . S
C50 H42 0.930 1_545 S
C50 C51 1.382 1_545 S
C50 C52 1.426 . S
C51 C50 1.382 1_565 S
C51 C55 1.376 1_554 S
C52 C50 1.426 . S
C52 C53 1.375 1_554 S
C52 C56 1.532 . S
C53 H43 0.930 . S
C53 C52 1.375 1_556 S
C53 C54 1.416 . S
C54 C53 1.416 . S
C54 C55 1.380 1_545 S
C55 H44 0.934 . S
C55 C51 1.376 1_556 S
C55 C54 1.380 1_565 S
C56 H45 0.970 . S
C56 H46 0.970 . S
C56 C52 1.532 . S
C56 C57 1.499 . S
C57 C56 1.499 . S
C57 C58 1.370 . S
C57 C62 1.415 1_554 S
C58 H47 0.930 1_545 S
C58 C57 1.370 . S
C58 C59 1.407 1_545 S
C59 C58 1.407 1_565 S
C59 C60 1.365 1_554 S
C60 H48 0.930 . S
C60 C59 1.365 1_556 S
C60 C61 1.393 1_565 S
C61 C60 1.393 1_545 S
C61 C62 1.387 . S
C62 H49 0.930 . S
C62 C57 1.415 1_556 S
C62 C61 1.387 . S
H63 C71 0.930 . S
H64 C74 0.930 . S
H65 C76 0.930 . S
H66 C77 0.970 . S
H67 C77 0.970 . S
H68 C79 0.930 . S
H69 C81 0.930 . S
H70 C83 0.930 . S
C71 H63 0.930 . S
C71 C72 1.382 . S
C71 C73 1.426 . S
C72 C71 1.382 . S
C72 C76 1.389 . S
C73 C71 1.426 . S
C73 C74 1.375 . S
C73 C77 1.532 . S
C74 H64 0.930 . S
C74 C73 1.375 . S
C74 C75 1.416 . S
C75 C74 1.416 . S
C75 C76 1.371 . S
C76 H65 0.930 . S
C76 C72 1.389 . S
C76 C75 1.371 . S
C77 H66 0.970 . S
C77 H67 0.970 . S
C77 C73 1.532 . S
C77 C78 1.499 . S
C78 C77 1.499 . S
C78 C79 1.370 . S
C78 C83 1.415 . S
C79 H68 0.930 . S
C79 C78 1.370 . S
C79 C80 1.407 . S
C80 C79 1.407 . S
C80 C81 1.365 . S
C81 H69 0.930 . S
C81 C80 1.365 . S
C81 C82 1.393 . S
C82 C81 1.393 . S
C82 C83 1.387 . S
C83 H70 0.930 . S
C83 C78 1.415 . S
C83 C82 1.387 . S
H84 C92 0.930 . S
H85 C95 0.930 . S
H86 C97 0.930 . S
H87 C98 0.970 . S
H88 C98 0.970 . S
H89 C100 0.930 . S
H90 C102 0.930 . S
H91 C104 0.930 . S
C92 H84 0.930 . S
C92 C93 1.382 . S
C92 C94 1.426 . S
C93 C92 1.382 . S
C93 C97 1.389 . S
C94 C92 1.426 . S
C94 C95 1.375 . S
C94 C98 1.532 . S
C95 H85 0.930 . S
C95 C94 1.375 . S
C95 C96 1.416 . S
C96 C95 1.416 . S
C96 C97 1.371 . S
C97 H86 0.930 . S
C97 C93 1.389 . S
C97 C96 1.371 . S
C98 H87 0.970 . S
C98 H88 0.970 . S
C98 C94 1.532 . S
C98 C99 1.499 . S
C99 C98 1.499 . S
C99 C100 1.370 . S
C99 C104 1.415 . S
C100 H89 0.930 . S
C100 C99 1.370 . S
C100 C101 1.407 . S
C101 C100 1.407 . S
C101 C102 1.365 1_545 S
C102 H90 0.930 . S
C102 C101 1.365 1_565 S
C102 C103 1.393 1_565 S
C103 C102 1.393 1_545 S
C103 C104 1.387 . S
C104 H91 0.930 . S
C104 C99 1.415 . S
C104 C103 1.387 . S
H105 C113 0.930 . S
H106 C116 0.930 . S
H107 C118 0.930 . S
H108 C119 0.970 . S
H109 C119 0.970 . S
H110 C121 0.930 . S
H111 C123 0.930 . S
H112 C125 0.930 . S
C113 H105 0.930 . S
C113 C114 1.382 . S
C113 C115 1.426 . S
C114 C113 1.382 . S
C114 C118 1.389 . S
C115 C113 1.426 . S
C115 C116 1.375 . S
C115 C119 1.532 . S
C116 H106 0.930 . S
C116 C115 1.375 . S
C116 C117 1.416 . S
C117 C116 1.416 . S
C117 C118 1.371 . S
C118 H107 0.930 . S
C118 C114 1.389 . S
C118 C117 1.371 . S
C119 H108 0.970 . S
C119 H109 0.970 . S
C119 C115 1.532 . S
C119 C120 1.499 . S
C120 C119 1.499 . S
C120 C121 1.370 . S
C120 C125 1.415 . S
C121 H110 0.930 . S
C121 C120 1.370 . S
C121 C122 1.407 . S
C122 C121 1.407 . S
C122 C123 1.365 1_565 S
C123 H111 0.930 . S
C123 C122 1.365 1_545 S
C123 C124 1.393 1_545 S
C124 C123 1.393 1_565 S
C124 C125 1.387 . S
C125 H112 0.930 . S
C125 C120 1.415 . S
C125 C124 1.387 . S
H126 C134 0.930 . S
H127 C137 0.930 . S
H128 C139 0.927 1_556 S
H129 C140 0.970 . S
H130 C140 0.970 . S
H131 C142 0.930 . S
H132 C144 0.930 . S
H133 C146 0.930 . S
C134 H126 0.930 . S
C134 C135 1.382 . S
C134 C136 1.426 . S
C135 C134 1.382 . S
C135 C139 1.397 . S
C136 C134 1.426 . S
C136 C137 1.375 1_554 S
C136 C140 1.532 . S
C137 H127 0.930 . S
C137 C136 1.375 1_556 S
C137 C138 1.416 . S
C138 C137 1.416 . S
C138 C139 1.366 1_556 S
C139 H128 0.927 1_554 S
C139 C135 1.397 . S
C139 C138 1.366 1_554 S
C140 H129 0.970 . S
C140 H130 0.970 . S
C140 C136 1.532 . S
C140 C141 1.499 . S
C141 C140 1.499 . S
C141 C142 1.370 . S
C141 C146 1.415 1_554 S
C142 H131 0.930 . S
C142 C141 1.370 . S
C142 C143 1.407 . S
C143 C142 1.407 . S
C143 C144 1.365 1_554 S
C144 H132 0.930 . S
C144 C143 1.365 1_556 S
C144 C145 1.393 . S
C145 C144 1.393 . S
C145 C146 1.387 . S
C146 H133 0.930 . S
C146 C141 1.415 1_556 S
C146 C145 1.387 . S
H147 C155 0.930 . S
H148 C158 0.930 . S
H149 C160 0.930 . S
H150 C161 0.970 . S
H151 C161 0.970 . S
H152 C163 0.930 . S
H153 C165 0.930 1_655 S
H154 C167 0.930 . S
C155 H147 0.930 . S
C155 C156 1.382 . S
C155 C157 1.426 . S
C156 C155 1.382 . S
C156 C160 1.389 . S
C157 C155 1.426 . S
C157 C158 1.375 . S
C157 C161 1.532 . S
C158 H148 0.930 . S
C158 C157 1.375 . S
C158 C159 1.416 . S
C159 C158 1.416 . S
C159 C160 1.371 . S
C160 H149 0.930 . S
C160 C156 1.389 . S
C160 C159 1.371 . S
C161 H150 0.970 . S
C161 H151 0.970 . S
C161 C157 1.532 . S
C161 C162 1.499 . S
C162 C161 1.499 . S
C162 C163 1.370 . S
C162 C167 1.415 . S
C163 H152 0.930 . S
C163 C162 1.370 . S
C163 C164 1.407 . S
C164 C163 1.407 . S
C164 C165 1.365 . S
C165 H153 0.930 1_455 S
C165 C164 1.365 . S
C165 C166 1.393 . S
C166 C165 1.393 . S
C166 C167 1.387 . S
C167 H154 0.930 . S
C167 C162 1.415 . S
C167 C166 1.387 . S
C168 O195 1.312 . S
C168 O196 1.208 . S
C169 O190 1.331 1_655 S
C169 O193 1.244 . S
C170 O192 1.264 1_655 S
C170 O194 1.273 . S
Mg171 O173 1.936 . S
Mg171 O180 2.081 . S
Mg171 O182 2.023 . S
Mg171 O186 2.031 . S
Mg171 O195 2.291 . S
Mg172 O173 1.963 . S
Mg172 O183 1.942 . S
Mg172 O184 1.955 . S
Mg172 O191 1.986 . S
O173 Mg171 1.936 . S
O173 Mg172 1.963 . S
O173 Mg174 1.915 . S
Mg174 O173 1.915 . S
Mg174 O175 1.915 . S
Mg174 O179 2.013 . S
Mg174 O185 2.114 . S
Mg174 O189 2.013 . S
Mg174 O195 2.114 . S
O175 Mg174 1.915 . S
O175 Mg176 1.936 . S
O175 Mg177 1.963 1_455 S
Mg176 O175 1.936 . S
Mg176 O185 2.291 . S
Mg176 O190 2.081 . S
Mg176 O192 2.023 . S
Mg176 O196 2.031 . S
Mg177 O175 1.963 1_655 S
Mg177 O181 1.986 . S
Mg177 O193 1.942 . S
Mg177 O194 1.955 . S
C178 O189 1.191 . S
C178 O191 1.307 . S
O179 Mg174 2.013 . S
O179 C198 1.191 . S
O180 Mg171 2.081 . S
O180 C188 1.331 . S
O181 Mg177 1.986 . S
O181 C198 1.307 1_655 S
O182 Mg171 2.023 . S
O182 C197 1.264 . S
O183 Mg172 1.942 . S
O183 C188 1.244 . S
O184 Mg172 1.955 . S
O184 C197 1.273 . S
O185 Mg174 2.114 . S
O185 Mg176 2.291 . S
O185 C187 1.312 . S
O186 Mg171 2.031 . S
O186 C187 1.208 . S
C187 O185 1.312 . S
C187 O186 1.208 . S
C188 O180 1.331 . S
C188 O183 1.244 . S
O189 Mg174 2.013 . S
O189 C178 1.191 . S
O190 C169 1.331 1_455 S
O190 Mg176 2.081 . S
O191 Mg172 1.986 . S
O191 C178 1.307 . S
O192 C170 1.264 1_455 S
O192 Mg176 2.023 . S
O193 C169 1.244 . S
O193 Mg177 1.942 . S
O194 C170 1.273 . S
O194 Mg177 1.955 . S
O195 C168 1.312 . S
O195 Mg171 2.291 . S
O195 Mg174 2.114 . S
O196 C168 1.208 . S
O196 Mg176 2.031 . S
C197 O182 1.264 . S
C197 O184 1.273 . S
C198 O179 1.191 . S
C198 O181 1.307 1_455 S
C199 O226 1.312 . S
C199 O227 1.208 . S
C200 O221 1.331 . S
C200 O224 1.244 . S
C201 O223 1.264 . S
C201 O225 1.273 . S
Mg202 O204 1.936 . S
Mg202 O211 2.081 . S
Mg202 O213 2.023 . S
Mg202 O217 2.031 . S
Mg202 O226 2.291 . S
Mg203 O204 1.963 . S
Mg203 O214 1.942 . S
Mg203 O215 1.955 . S
Mg203 O222 1.986 . S
O204 Mg202 1.936 . S
O204 Mg203 1.963 . S
O204 Mg205 1.915 . S
Mg205 O204 1.915 . S
Mg205 O206 1.915 . S
Mg205 O210 2.013 . S
Mg205 O216 2.114 . S
Mg205 O220 2.013 . S
Mg205 O226 2.114 . S
O206 Mg205 1.915 . S
O206 Mg207 1.936 . S
O206 Mg208 1.963 . S
Mg207 O206 1.936 . S
Mg207 O216 2.291 . S
Mg207 O221 2.081 . S
Mg207 O223 2.023 . S
Mg207 O227 2.031 . S
Mg208 O206 1.963 . S
Mg208 O212 1.986 . S
Mg208 O224 1.942 . S
Mg208 O225 1.955 . S
C209 O220 1.191 . S
C209 O222 1.307 . S
O210 Mg205 2.013 . S
O210 C229 1.191 . S
O211 Mg202 2.081 . S
O211 C219 1.331 . S
O212 Mg208 1.986 . S
O212 C229 1.307 . S
O213 Mg202 2.023 . S
O213 C228 1.264 . S
O214 Mg203 1.942 . S
O214 C219 1.244 . S
O215 Mg203 1.955 . S
O215 C228 1.273 . S
O216 Mg205 2.114 . S
O216 Mg207 2.291 . S
O216 C218 1.312 . S
O217 Mg202 2.031 . S
O217 C218 1.208 . S
C218 O216 1.312 . S
C218 O217 1.208 . S
C219 O211 1.331 . S
C219 O214 1.244 . S
O220 Mg205 2.013 . S
O220 C209 1.191 . S
O221 C200 1.331 . S
O221 Mg207 2.081 . S
O222 Mg203 1.986 . S
O222 C209 1.307 . S
O223 C201 1.264 . S
O223 Mg207 2.023 . S
O224 C200 1.244 . S
O224 Mg208 1.942 . S
O225 C201 1.273 . S
O225 Mg208 1.955 . S
O226 C199 1.312 . S
O226 Mg202 2.291 . S
O226 Mg205 2.114 . S
O227 C199 1.208 . S
O227 Mg207 2.031 . S
C228 O213 1.264 . S
C228 O215 1.273 . S
C229 O210 1.191 . S
C229 O212 1.307 . S
C230 O257 1.312 . S
C230 O258 1.208 . S
C231 O252 1.331 . S
C231 O255 1.244 . S
C232 O254 1.264 . S
C232 O256 1.273 . S
Mg233 O235 1.936 . S
Mg233 O242 2.081 . S
Mg233 O244 2.023 . S
Mg233 O248 2.031 . S
Mg233 O257 2.291 . S
Mg234 O235 1.963 . S
Mg234 O245 1.942 . S
Mg234 O246 1.955 . S
Mg234 O253 1.986 . S
O235 Mg233 1.936 . S
O235 Mg234 1.963 . S
O235 Mg236 1.915 . S
Mg236 O235 1.915 . S
Mg236 O237 1.915 . S
Mg236 O241 2.013 . S
Mg236 O247 2.114 . S
Mg236 O251 2.013 . S
Mg236 O257 2.114 . S
O237 Mg236 1.915 . S
O237 Mg238 1.936 . S
O237 Mg239 1.963 . S
Mg238 O237 1.936 . S
Mg238 O247 2.291 . S
Mg238 O252 2.081 . S
Mg238 O254 2.023 . S
Mg238 O258 2.031 . S
Mg239 O237 1.963 . S
Mg239 O243 1.986 . S
Mg239 O255 1.942 . S
Mg239 O256 1.955 . S
C240 O251 1.191 . S
C240 O253 1.307 . S
O241 Mg236 2.013 . S
O241 C260 1.191 . S
O242 Mg233 2.081 . S
O242 C250 1.331 . S
O243 Mg239 1.986 . S
O243 C260 1.307 . S
O244 Mg233 2.023 . S
O244 C259 1.264 . S
O245 Mg234 1.942 . S
O245 C250 1.244 . S
O246 Mg234 1.955 . S
O246 C259 1.273 . S
O247 Mg236 2.114 . S
O247 Mg238 2.291 . S
O247 C249 1.312 . S
O248 Mg233 2.031 . S
O248 C249 1.208 . S
C249 O247 1.312 . S
C249 O248 1.208 . S
C250 O242 1.331 . S
C250 O245 1.244 . S
O251 Mg236 2.013 . S
O251 C240 1.191 . S
O252 C231 1.331 . S
O252 Mg238 2.081 . S
O253 Mg234 1.986 . S
O253 C240 1.307 . S
O254 C232 1.264 . S
O254 Mg238 2.023 . S
O255 C231 1.244 . S
O255 Mg239 1.942 . S
O256 C232 1.273 . S
O256 Mg239 1.955 . S
O257 C230 1.312 . S
O257 Mg233 2.291 . S
O257 Mg236 2.114 . S
O258 C230 1.208 . S
O258 Mg238 2.031 . S
C259 O244 1.264 . S
C259 O246 1.273 . S
C260 O241 1.191 . S
C260 O243 1.307 . S
C261 O288 1.312 . S
C261 O289 1.208 . S
C262 O283 1.331 . S
C262 O286 1.244 . S
C263 O285 1.264 . S
C263 O287 1.273 . S
Mg264 O266 1.936 . S
Mg264 O273 2.081 . S
Mg264 O275 2.023 . S
Mg264 O279 2.031 . S
Mg264 O288 2.291 . S
Mg265 O266 1.963 1_655 S
Mg265 O276 1.942 . S
Mg265 O277 1.955 . S
Mg265 O284 1.986 . S
O266 Mg264 1.936 . S
O266 Mg265 1.963 1_455 S
O266 Mg267 1.915 . S
Mg267 O266 1.915 . S
Mg267 O268 1.915 . S
Mg267 O272 2.013 . S
Mg267 O278 2.114 . S
Mg267 O282 2.013 . S
Mg267 O288 2.114 . S
O268 Mg267 1.915 . S
O268 Mg269 1.936 . S
O268 Mg270 1.963 . S
Mg269 O268 1.936 . S
Mg269 O278 2.291 . S
Mg269 O283 2.081 . S
Mg269 O285 2.023 . S
Mg269 O289 2.031 . S
Mg270 O268 1.963 . S
Mg270 O274 1.986 . S
Mg270 O286 1.942 . S
Mg270 O287 1.955 . S
C271 O282 1.191 . S
C271 O284 1.307 1_455 S
O272 Mg267 2.013 . S
O272 C291 1.191 . S
O273 Mg264 2.081 . S
O273 C281 1.331 1_455 S
O274 Mg270 1.986 . S
O274 C291 1.307 . S
O275 Mg264 2.023 . S
O275 C290 1.264 1_455 S
O276 Mg265 1.942 . S
O276 C281 1.244 . S
O277 Mg265 1.955 . S
O277 C290 1.273 . S
O278 Mg267 2.114 . S
O278 Mg269 2.291 . S
O278 C280 1.312 . S
O279 Mg264 2.031 . S
O279 C280 1.208 . S
C280 O278 1.312 . S
C280 O279 1.208 . S
C281 O273 1.331 1_655 S
C281 O276 1.244 . S
O282 Mg267 2.013 . S
O282 C271 1.191 . S
O283 C262 1.331 . S
O283 Mg269 2.081 . S
O284 Mg265 1.986 . S
O284 C271 1.307 1_655 S
O285 C263 1.264 . S
O285 Mg269 2.023 . S
O286 C262 1.244 . S
O286 Mg270 1.942 . S
O287 C263 1.273 . S
O287 Mg270 1.955 . S
O288 C261 1.312 . S
O288 Mg264 2.291 . S
O288 Mg267 2.114 . S
O289 C261 1.208 . S
O289 Mg269 2.031 . S
C290 O275 1.264 1_655 S
C290 O277 1.273 . S
C291 O272 1.191 . S
C291 O274 1.307 . S
C292 C293 1.387 . S
C292 H296 0.950 1_565 S
C292 C301 1.390 . S
C293 C292 1.387 . S
C293 C295 1.387 . S
H294 C301 0.950 1_545 S
C295 C293 1.387 . S
C295 C297 1.390 . S
C295 H299 0.950 . S
H296 C292 0.950 1_545 S
C297 C295 1.390 . S
C297 C298 1.387 . S
C297 H300 0.950 . S
C298 C297 1.387 . S
C298 C301 1.387 . S
H299 C295 0.950 . S
H300 C297 0.950 . S
C301 C292 1.390 . S
C301 H294 0.950 1_565 S
C301 C298 1.387 . S
C302 C303 1.387 . S
C302 H306 0.950 . S
C302 C311 1.390 . S
C303 C302 1.387 . S
C303 C305 1.387 . S
H304 C311 0.950 . S
C305 C303 1.387 . S
C305 C307 1.390 1_565 S
C305 H309 0.950 . S
H306 C302 0.950 . S
C307 C305 1.390 1_545 S
C307 C308 1.387 . S
C307 H310 0.950 . S
C308 C307 1.387 . S
C308 C311 1.387 1_545 S
H309 C305 0.950 . S
H310 C307 0.950 . S
C311 C302 1.390 . S
C311 H304 0.950 . S
C311 C308 1.387 1_565 S
C312 C313 1.387 . S
C312 H316 0.950 1_545 S
C312 C321 1.390 . S
C313 C312 1.387 . S
C313 C315 1.387 . S
H314 C321 0.950 1_565 S
C315 C313 1.387 . S
C315 C317 1.390 . S
C315 H319 0.950 . S
H316 C312 0.950 1_565 S
C317 C315 1.390 . S
C317 C318 1.387 . S
C317 H320 0.950 . S
C318 C317 1.387 . S
C318 C321 1.387 . S
H319 C315 0.950 . S
H320 C317 0.950 . S
C321 C312 1.390 . S
C321 H314 0.950 1_545 S
C321 C318 1.387 . S
C322 C323 1.387 . S
C322 H326 0.950 . S
C322 C331 1.390 . S
C323 C322 1.387 . S
C323 C325 1.387 . S
H324 C331 0.950 . S
C325 C323 1.387 . S
C325 C327 1.390 1_545 S
C325 H329 0.950 . S
H326 C322 0.950 . S
C327 C325 1.390 1_565 S
C327 C328 1.387 . S
C327 H330 0.950 . S
C328 C327 1.387 . S
C328 C331 1.387 1_565 S
H329 C325 0.950 . S
H330 C327 0.950 . S
C331 C322 1.390 . S
C331 H324 0.950 . S
C331 C328 1.387 1_545 S
C332 C333 1.387 . S
C332 H336 0.950 . S
C332 C341 1.390 . S
C333 C332 1.387 . S
C333 C335 1.387 . S
H334 C341 0.950 . S
C335 C333 1.387 . S
C335 C337 1.390 . S
C335 H339 0.950 1_545 S
H336 C332 0.950 . S
C337 C335 1.390 . S
C337 C338 1.387 . S
C337 H340 0.950 1_545 S
C338 C337 1.387 . S
C338 C341 1.387 . S
H339 C335 0.950 1_565 S
H340 C337 0.950 1_565 S
C341 C332 1.390 . S
C341 H334 0.950 . S
C341 C338 1.387 . S
C342 C343 1.387 . S
C342 H346 0.950 . S
C342 C351 1.390 . S
C343 C342 1.387 . S
C343 C345 1.387 . S
H344 C351 0.950 . S
C345 C343 1.387 . S
C345 C347 1.390 1_565 S
C345 H349 0.950 . S
H346 C342 0.950 . S
C347 C345 1.390 1_545 S
C347 C348 1.387 . S
C347 H350 0.950 . S
C348 C347 1.387 . S
C348 C351 1.387 1_545 S
H349 C345 0.950 . S
H350 C347 0.950 . S
C351 C342 1.390 . S
C351 H344 0.950 . S
C351 C348 1.387 1_565 S
C352 C353 1.387 . S
C352 H356 0.950 . S
C352 C361 1.390 . S
C353 C352 1.387 . S
C353 C355 1.387 . S
H354 C361 0.950 . S
C355 C353 1.387 . S
C355 C357 1.390 . S
C355 H359 0.950 1_565 S
H356 C352 0.950 . S
C357 C355 1.390 . S
C357 C358 1.387 . S
C357 H360 0.950 1_565 S
C358 C357 1.387 . S
C358 C361 1.387 . S
H359 C355 0.950 1_545 S
H360 C357 0.950 1_545 S
C361 C352 1.390 . S
C361 H354 0.950 . S
C361 C358 1.387 . S
C362 C363 1.387 . S
C362 H366 0.950 . S
C362 C371 1.390 1_545 S
C363 C362 1.387 . S
C363 C365 1.387 . S
H364 C371 0.950 . S
C365 C363 1.387 . S
C365 C367 1.390 . S
C365 H369 0.950 . S
H366 C362 0.950 . S
C367 C365 1.390 . S
C367 C368 1.387 1_545 S
C367 H370 0.950 . S
C368 C367 1.387 1_565 S
C368 C371 1.387 . S
H369 C365 0.950 . S
H370 C367 0.950 . S
C371 C362 1.390 1_565 S
C371 H364 0.950 . S
C371 C368 1.387 . S
C372 C373 1.387 . S
C372 H376 0.950 . S
C372 C381 1.390 . S
C373 C372 1.387 . S
C373 C375 1.387 . S
H374 C381 0.950 . S
C375 C373 1.387 . S
C375 C377 1.390 . S
C375 H379 0.950 1_545 S
H376 C372 0.950 . S
C377 C375 1.390 . S
C377 C378 1.387 . S
C377 H380 0.950 . S
C378 C377 1.387 . S
C378 C381 1.387 . S
H379 C375 0.950 1_565 S
H380 C377 0.950 . S
C381 C372 1.390 . S
C381 H374 0.950 . S
C381 C378 1.387 . S
C382 C383 1.387 . S
C382 H386 0.950 . S
C382 C391 1.390 . S
C383 C382 1.387 . S
C383 C385 1.387 . S
H384 C391 0.950 . S
C385 C383 1.387 . S
C385 C387 1.390 . S
C385 H389 0.950 1_565 S
H386 C382 0.950 . S
C387 C385 1.390 . S
C387 C388 1.387 . S
C387 H390 0.950 . S
C388 C387 1.387 . S
C388 C391 1.387 . S
H389 C385 0.950 1_545 S
H390 C387 0.950 . S
C391 C382 1.390 . S
C391 H384 0.950 . S
C391 C388 1.387 . S
C392 C393 1.387 . S
C392 H396 0.950 . S
C392 C401 1.390 . S
C393 C392 1.387 . S
C393 C395 1.387 . S
H394 C401 0.950 . S
C395 C393 1.387 . S
C395 C397 1.390 1_655 S
C395 H399 0.950 1_565 S
H396 C392 0.950 . S
C397 C395 1.390 1_455 S
C397 C398 1.387 1_455 S
C397 H400 0.950 . S
C398 C397 1.387 1_655 S
C398 C401 1.387 . S
H399 C395 0.950 1_545 S
H400 C397 0.950 . S
C401 C392 1.390 . S
C401 H394 0.950 . S
C401 C398 1.387 . S
C402 C403 1.387 . S
C402 H406 0.950 . S
C402 C411 1.390 . S
C403 C402 1.387 . S
C403 C405 1.387 . S
H404 C411 0.950 . S
C405 C403 1.387 . S
C405 C407 1.390 . S
C405 H409 0.950 1_545 S
H406 C402 0.950 . S
C407 C405 1.390 . S
C407 C408 1.387 . S
C407 H410 0.950 . S
C408 C407 1.387 . S
C408 C411 1.387 . S
H409 C405 0.950 1_565 S
H410 C407 0.950 . S
C411 C402 1.390 . S
C411 H404 0.950 . S
C411 C408 1.387 . S
C412 C413 1.387 . S
C412 H416 0.950 1_565 S
C412 C421 1.390 . S
C413 C412 1.387 . S
C413 C415 1.387 . S
H414 C421 0.950 . S
C415 C413 1.387 . S
C415 C417 1.390 . S
C415 H419 0.950 . S
H416 C412 0.950 1_545 S
C417 C415 1.390 . S
C417 C418 1.387 . S
C417 H420 0.950 . S
C418 C417 1.387 . S
C418 C421 1.387 . S
H419 C415 0.950 . S
H420 C417 0.950 . S
C421 C412 1.390 . S
C421 H414 0.950 . S
C421 C418 1.387 . S
C422 C423 1.387 . S
C422 H426 0.950 1_565 S
C422 C431 1.390 . S
C423 C422 1.387 . S
C423 C425 1.387 . S
H424 C431 0.950 . S
C425 C423 1.387 . S
C425 C427 1.390 . S
C425 H429 0.950 . S
H426 C422 0.950 1_545 S
C427 C425 1.390 . S
C427 C428 1.387 . S
C427 H430 0.950 . S
C428 C427 1.387 . S
C428 C431 1.387 . S
H429 C425 0.950 . S
H430 C427 0.950 . S
C431 C422 1.390 . S
C431 H424 0.950 . S
C431 C428 1.387 . S
C432 C433 1.387 . S
C432 H436 0.950 1_545 S
C432 C441 1.390 . S
C433 C432 1.387 . S
C433 C435 1.387 . S
H434 C441 0.950 . S
C435 C433 1.387 . S
C435 C437 1.390 . S
C435 H439 0.950 . S
H436 C432 0.950 1_565 S
C437 C435 1.390 . S
C437 C438 1.387 . S
C437 H440 0.950 . S
C438 C437 1.387 . S
C438 C441 1.387 . S
H439 C435 0.950 . S
H440 C437 0.950 . S
C441 C432 1.390 . S
C441 H434 0.950 . S
C441 C438 1.387 . S
C442 C443 1.387 . S
C442 H446 0.950 . S
C442 C451 1.390 . S
C443 C442 1.387 . S
C443 C445 1.387 . S
H444 C451 0.950 . S
C445 C443 1.387 . S
C445 C447 1.390 . S
C445 H449 0.950 . S
H446 C442 0.950 . S
C447 C445 1.390 . S
C447 C448 1.387 . S
C447 H450 0.950 . S
C448 C447 1.387 . S
C448 C451 1.387 . S
H449 C445 0.950 . S
H450 C447 0.950 . S
C451 C442 1.390 . S
C451 H444 0.950 . S
C451 C448 1.387 . S
C452 C453 1.387 . S
C452 H456 0.950 . S
C452 C461 1.390 . S
C453 C452 1.387 . S
C453 C455 1.387 . S
H454 C461 0.950 . S
C455 C453 1.387 . S
C455 C457 1.390 . S
C455 H459 0.950 . S
H456 C452 0.950 . S
C457 C455 1.390 . S
C457 C458 1.387 . S
C457 H460 0.950 . S
C458 C457 1.387 . S
C458 C461 1.387 . S
H459 C455 0.950 . S
H460 C457 0.950 . S
C461 C452 1.390 . S
C461 H454 0.950 . S
C461 C458 1.387 . S
C462 C463 1.387 . S
C462 H466 0.950 . S
C462 C471 1.390 . S
C463 C462 1.387 . S
C463 C465 1.387 . S
H464 C471 0.950 . S
C465 C463 1.387 . S
C465 C467 1.390 . S
C465 H469 0.950 1_655 S
H466 C462 0.950 . S
C467 C465 1.390 . S
C467 C468 1.387 . S
C467 H470 0.950 1_655 S
C468 C467 1.387 . S
C468 C471 1.387 . S
H469 C465 0.950 1_455 S
H470 C467 0.950 1_455 S
C471 C462 1.390 . S
C471 H464 0.950 . S
C471 C468 1.387 . S
C472 C473 1.387 . S
C472 H476 0.950 . S
C472 C481 1.390 . S
C473 C472 1.387 . S
C473 C475 1.387 . S
H474 C481 0.950 . S
C475 C473 1.387 . S
C475 C477 1.390 . S
C475 H479 0.950 . S
H476 C472 0.950 . S
C477 C475 1.390 . S
C477 C478 1.387 . S
C477 H480 0.950 . S
C478 C477 1.387 . S
C478 C481 1.387 . S
H479 C475 0.950 . S
H480 C477 0.950 . S
C481 C472 1.390 . S
C481 H474 0.950 . S
C481 C478 1.387 . S
C482 C483 1.387 . S
C482 H486 0.950 . S
C482 C491 1.390 . S
C483 C482 1.387 . S
C483 C485 1.387 . S
H484 C491 0.950 . S
C485 C483 1.387 . S
C485 C487 1.390 . S
C485 H489 0.950 . S
H486 C482 0.950 . S
C487 C485 1.390 . S
C487 C488 1.387 . S
C487 H490 0.950 . S
C488 C487 1.387 . S
C488 C491 1.387 . S
H489 C485 0.950 . S
H490 C487 0.950 . S
C491 C482 1.390 . S
C491 H484 0.950 . S
C491 C488 1.387 . S
C492 C493 1.387 . S
C492 H496 0.950 . S
C492 C501 1.390 . S
C493 C492 1.387 . S
C493 C495 1.387 . S
H494 C501 0.950 . S
C495 C493 1.387 . S
C495 C497 1.390 . S
C495 H499 0.950 . S
H496 C492 0.950 . S
C497 C495 1.390 . S
C497 C498 1.387 . S
C497 H500 0.950 . S
C498 C497 1.387 . S
C498 C501 1.387 . S
H499 C495 0.950 . S
H500 C497 0.950 . S
C501 C492 1.390 . S
C501 H494 0.950 . S
C501 C498 1.387 . S
C502 C503 1.387 . S
C502 H506 0.950 . S
C502 C511 1.390 . S
C503 C502 1.387 . S
C503 C505 1.387 . S
H504 C511 0.950 . S
C505 C503 1.387 . S
C505 C507 1.390 . S
C505 H509 0.950 . S
H506 C502 0.950 . S
C507 C505 1.390 . S
C507 C508 1.387 . S
C507 H510 0.950 . S
C508 C507 1.387 . S
C508 C511 1.387 . S
H509 C505 0.950 . S
H510 C507 0.950 . S
C511 C502 1.390 . S
C511 H504 0.950 . S
C511 C508 1.387 . S
C512 C513 1.387 . S
C512 H516 0.950 . S
C512 C521 1.390 . S
C513 C512 1.387 . S
C513 C515 1.387 . S
H514 C521 0.950 . S
C515 C513 1.387 . S
C515 C517 1.390 . S
C515 H519 0.950 . S
H516 C512 0.950 . S
C517 C515 1.390 . S
C517 C518 1.387 . S
C517 H520 0.950 . S
C518 C517 1.387 . S
C518 C521 1.387 . S
H519 C515 0.950 . S
H520 C517 0.950 . S
C521 C512 1.390 . S
C521 H514 0.950 . S
C521 C518 1.387 . S
C522 C523 1.387 . S
C522 H526 0.950 . S
C522 C531 1.390 . S
C523 C522 1.387 . S
C523 C525 1.387 . S
H524 C531 0.950 1_455 S
C525 C523 1.387 . S
C525 C527 1.390 . S
C525 H529 0.950 . S
H526 C522 0.950 . S
C527 C525 1.390 . S
C527 C528 1.387 . S
C527 H530 0.950 . S
C528 C527 1.387 . S
C528 C531 1.387 . S
H529 C525 0.950 . S
H530 C527 0.950 . S
C531 C522 1.390 . S
C531 H524 0.950 1_655 S
C531 C528 1.387 . S
C532 C533 1.387 . S
C532 H536 0.950 . S
C532 C541 1.390 . S
C533 C532 1.387 . S
C533 C535 1.387 . S
H534 C541 0.950 . S
C535 C533 1.387 . S
C535 C537 1.390 . S
C535 H539 0.950 . S
H536 C532 0.950 . S
C537 C535 1.390 . S
C537 C538 1.387 . S
C537 H540 0.950 . S
C538 C537 1.387 . S
C538 C541 1.387 . S
H539 C535 0.950 . S
H540 C537 0.950 . S
C541 C532 1.390 . S
C541 H534 0.950 . S
C541 C538 1.387 . S
C542 C543 1.387 . S
C542 H546 0.950 . S
C542 C551 1.390 . S
C543 C542 1.387 . S
C543 C545 1.387 . S
H544 C551 0.950 . S
C545 C543 1.387 . S
C545 C547 1.390 . S
C545 H549 0.950 . S
H546 C542 0.950 . S
C547 C545 1.390 . S
C547 C548 1.387 . S
C547 H550 0.950 . S
C548 C547 1.387 . S
C548 C551 1.387 . S
H549 C545 0.950 . S
H550 C547 0.950 . S
C551 C542 1.390 . S
C551 H544 0.950 . S
C551 C548 1.387 . S
C552 C553 1.387 . S
C552 H556 0.950 . S
C552 C561 1.390 . S
C553 C552 1.387 . S
C553 C555 1.387 . S
H554 C561 0.950 . S
C555 C553 1.387 . S
C555 C557 1.390 . S
C555 H559 0.950 . S
H556 C552 0.950 . S
C557 C555 1.390 . S
C557 C558 1.387 . S
C557 H560 0.950 . S
C558 C557 1.387 . S
C558 C561 1.387 . S
H559 C555 0.950 . S
H560 C557 0.950 . S
C561 C552 1.390 . S
C561 H554 0.950 . S
C561 C558 1.387 . S
C562 C563 1.387 . S
C562 H566 0.950 . S
C562 C571 1.390 . S
C563 C562 1.387 . S
C563 C565 1.387 . S
H564 C571 0.950 . S
C565 C563 1.387 . S
C565 C567 1.390 . S
C565 H569 0.950 . S
H566 C562 0.950 . S
C567 C565 1.390 . S
C567 C568 1.387 . S
C567 H570 0.950 . S
C568 C567 1.387 . S
C568 C571 1.387 . S
H569 C565 0.950 . S
H570 C567 0.950 . S
C571 C562 1.390 . S
C571 H564 0.950 . S
C571 C568 1.387 . S
C572 C573 1.387 . S
C572 H576 0.950 . S
C572 C581 1.390 . S
C573 C572 1.387 . S
C573 C575 1.387 . S
H574 C581 0.950 . S
C575 C573 1.387 . S
C575 C577 1.390 . S
C575 H579 0.950 . S
H576 C572 0.950 . S
C577 C575 1.390 . S
C577 C578 1.387 . S
C577 H580 0.950 . S
C578 C577 1.387 . S
C578 C581 1.387 . S
H579 C575 0.950 . S
H580 C577 0.950 . S
C581 C572 1.390 . S
C581 H574 0.950 . S
C581 C578 1.387 . S
C582 C583 1.387 . S
C582 H586 0.950 . S
C582 C591 1.390 . S
C583 C582 1.387 . S
C583 C585 1.387 . S
H584 C591 0.950 . S
C585 C583 1.387 . S
C585 C587 1.390 . S
C585 H589 0.950 . S
H586 C582 0.950 . S
C587 C585 1.390 . S
C587 C588 1.387 . S
C587 H590 0.950 . S
C588 C587 1.387 . S
C588 C591 1.387 . S
H589 C585 0.950 . S
H590 C587 0.950 . S
C591 C582 1.390 . S
C591 H584 0.950 . S
C591 C588 1.387 . S
C592 C593 1.387 . S
C592 H596 0.950 . S
C592 C601 1.390 . S
C593 C592 1.387 . S
C593 C595 1.387 . S
H594 C601 0.950 . S
C595 C593 1.387 . S
C595 C597 1.390 . S
C595 H599 0.950 . S
H596 C592 0.950 . S
C597 C595 1.390 . S
C597 C598 1.387 . S
C597 H600 0.950 . S
C598 C597 1.387 . S
C598 C601 1.387 . S
H599 C595 0.950 . S
H600 C597 0.950 . S
C601 C592 1.390 . S
C601 H594 0.950 . S
C601 C598 1.387 . S
C602 C603 1.387 . S
C602 H606 0.950 . S
C602 C611 1.390 . S
C603 C602 1.387 . S
C603 C605 1.387 . S
H604 C611 0.950 . S
C605 C603 1.387 . S
C605 C607 1.390 . S
C605 H609 0.950 . S
H606 C602 0.950 . S
C607 C605 1.390 . S
C607 C608 1.387 . S
C607 H610 0.950 . S
C608 C607 1.387 . S
C608 C611 1.387 . S
H609 C605 0.950 . S
H610 C607 0.950 . S
C611 C602 1.390 . S
C611 H604 0.950 . S
C611 C608 1.387 . S
C298 C228 1.749 . S
C293 C17 1.681 . S
C303 C30 1.640 . S
C308 C231 1.657 . S
C313 C61 1.621 . S
C318 C262 1.630 . S
C328 C197 1.726 . S
C323 C72 1.728 . S
C338 C232 1.734 . S
C333 C19 1.746 . S
C348 C263 1.749 . S
C343 C33 1.665 . S
C358 C188 1.703 . S
C353 C59 1.608 . S
C368 C219 1.689 . S
C363 C75 1.584 . S
C373 C12 1.440 . S
C378 C249 1.393 . S
C383 C101 1.427 1_565 S
C388 C218 1.367 . S
C393 C51 1.343 . S
C398 C178 1.343 1_655 S
C408 C271 1.357 1_655 S
C403 C124 1.369 1_545 S
C418 C199 1.391 . S
C413 C9 1.463 . S
C423 C103 1.397 1_565 S
C428 C198 1.389 1_655 S
C433 C54 1.382 . S
C438 C291 1.403 1_655 S
C448 C230 1.406 . S
C443 C122 1.464 1_545 S
C453 C145 1.720 . S
C458 C290 1.708 . S
C463 C96 1.582 . S
C468 C169 1.686 . S
C473 C166 1.654 1_655 S
C478 C200 1.663 . S
C483 C114 1.698 . S
C488 C259 1.696 . S
C498 C170 1.775 . S
C493 C143 1.707 . S
C503 C93 1.723 . S
C508 C201 1.721 . S
C513 C164 1.581 1_655 S
C518 C250 1.671 . S
C528 C281 1.720 . S
C523 C117 1.613 . S
C533 C135 1.434 . S
C538 C187 1.363 . S
C543 C40 1.411 . S
C548 C280 1.336 . S
C553 C156 1.377 . S
C558 C240 1.373 . S
C568 C209 1.392 . S
C563 C82 1.405 . S
C578 C261 1.419 . S
C573 C138 1.469 . S
C588 C260 1.422 . S
C583 C38 1.408 . S
C598 C229 1.368 . S
C593 C159 1.350 . S
C608 C168 1.371 . S
C603 C80 1.431 . S
