# Generated by pormake.
# Topology ptr, (4,4)-cn, num edge types: 1
# Building blocks:
#     Node 0, Type 0, BuildingBlock: NAHDIM_clean_sbu_0, # of connection points: 4
#     Node 1, Type 0, BuildingBlock: NAHDIM_clean_sbu_0, # of connection points: 4
#     Node 2, Type 0, BuildingBlock: NAHDIM_clean_sbu_0, # of connection points: 4
#     Node 3, Type 0, BuildingBlock: NAHDIM_clean_sbu_0, # of connection points: 4
#     Node 4, Type 0, BuildingBlock: NAHDIM_clean_sbu_0, # of connection points: 4
#     Node 5, Type 0, BuildingBlock: NAHDIM_clean_sbu_0, # of connection points: 4
#     Node 6, Type 0, BuildingBlock: NAHDIM_clean_sbu_0, # of connection points: 4
#     Node 7, Type 0, BuildingBlock: NAHDIM_clean_sbu_0, # of connection points: 4
#     Node 8, Type 0, BuildingBlock: NAHDIM_clean_sbu_0, # of connection points: 4
#     Node 9, Type 0, BuildingBlock: NAHDIM_clean_sbu_0, # of connection points: 4
#     Node 10, Type 0, BuildingBlock: NAHDIM_clean_sbu_0, # of connection points: 4
#     Node 11, Type 0, BuildingBlock: NAHDIM_clean_sbu_0, # of connection points: 4
#     Node 12, Type 0, BuildingBlock: NAHDIM_clean_sbu_0, # of connection points: 4
#     Node 13, Type 0, BuildingBlock: NAHDIM_clean_sbu_0, # of connection points: 4
#     Node 14, Type 0, BuildingBlock: NAHDIM_clean_sbu_0, # of connection points: 4
#     Node 15, Type 0, BuildingBlock: NAHDIM_clean_sbu_0, # of connection points: 4
#     Node 16, Type 0, BuildingBlock: NAHDIM_clean_sbu_0, # of connection points: 4
#     Node 17, Type 0, BuildingBlock: NAHDIM_clean_sbu_0, # of connection points: 4
#     Node 18, Type 1, BuildingBlock: MUDLON_clean_linker_0, # of connection points: 4
#     Node 19, Type 1, BuildingBlock: MUDLON_clean_linker_0, # of connection points: 4
#     Node 20, Type 1, BuildingBlock: MUDLON_clean_linker_0, # of connection points: 4
#     Node 21, Type 1, BuildingBlock: MUDLON_clean_linker_0, # of connection points: 4
#     Node 22, Type 1, BuildingBlock: MUDLON_clean_linker_0, # of connection points: 4
#     Node 23, Type 1, BuildingBlock: MUDLON_clean_linker_0, # of connection points: 4
#     Node 24, Type 1, BuildingBlock: MUDLON_clean_linker_0, # of connection points: 4
#     Node 25, Type 1, BuildingBlock: MUDLON_clean_linker_0, # of connection points: 4
#     Node 26, Type 1, BuildingBlock: MUDLON_clean_linker_0, # of connection points: 4
#     Node 27, Type 1, BuildingBlock: MUDLON_clean_linker_0, # of connection points: 4
#     Node 28, Type 1, BuildingBlock: MUDLON_clean_linker_0, # of connection points: 4
#     Node 29, Type 1, BuildingBlock: MUDLON_clean_linker_0, # of connection points: 4
#     Node 30, Type 1, BuildingBlock: MUDLON_clean_linker_0, # of connection points: 4
#     Node 31, Type 1, BuildingBlock: MUDLON_clean_linker_0, # of connection points: 4
#     Node 32, Type 1, BuildingBlock: MUDLON_clean_linker_0, # of connection points: 4
#     Node 33, Type 1, BuildingBlock: MUDLON_clean_linker_0, # of connection points: 4
#     Node 34, Type 1, BuildingBlock: MUDLON_clean_linker_0, # of connection points: 4
#     Node 35, Type 1, BuildingBlock: MUDLON_clean_linker_0, # of connection points: 4
#     Edge 36, Type (0, 1), BuildingBlock: TEMPAE_clean_linker_10, # of connection points: 2
#     Edge 37, Type (0, 1), BuildingBlock: TEMPAE_clean_linker_10, # of connection points: 2
#     Edge 38, Type (0, 1), BuildingBlock: TEMPAE_clean_linker_10, # of connection points: 2
#     Edge 39, Type (0, 1), BuildingBlock: TEMPAE_clean_linker_10, # of connection points: 2
#     Edge 40, Type (0, 1), BuildingBlock: TEMPAE_clean_linker_10, # of connection points: 2
#     Edge 41, Type (0, 1), BuildingBlock: TEMPAE_clean_linker_10, # of connection points: 2
#     Edge 42, Type (0, 1), BuildingBlock: TEMPAE_clean_linker_10, # of connection points: 2
#     Edge 43, Type (0, 1), BuildingBlock: TEMPAE_clean_linker_10, # of connection points: 2
#     Edge 44, Type (0, 1), BuildingBlock: TEMPAE_clean_linker_10, # of connection points: 2
#     Edge 45, Type (0, 1), BuildingBlock: TEMPAE_clean_linker_10, # of connection points: 2
#     Edge 46, Type (0, 1), BuildingBlock: TEMPAE_clean_linker_10, # of connection points: 2
#     Edge 47, Type (0, 1), BuildingBlock: TEMPAE_clean_linker_10, # of connection points: 2
#     Edge 48, Type (0, 1), BuildingBlock: TEMPAE_clean_linker_10, # of connection points: 2
#     Edge 49, Type (0, 1), BuildingBlock: TEMPAE_clean_linker_10, # of connection points: 2
#     Edge 50, Type (0, 1), BuildingBlock: TEMPAE_clean_linker_10, # of connection points: 2
#     Edge 51, Type (0, 1), BuildingBlock: TEMPAE_clean_linker_10, # of connection points: 2
#     Edge 52, Type (0, 1), BuildingBlock: TEMPAE_clean_linker_10, # of connection points: 2
#     Edge 53, Type (0, 1), BuildingBlock: TEMPAE_clean_linker_10, # of connection points: 2
#     Edge 54, Type (0, 1), BuildingBlock: TEMPAE_clean_linker_10, # of connection points: 2
#     Edge 55, Type (0, 1), BuildingBlock: TEMPAE_clean_linker_10, # of connection points: 2
#     Edge 56, Type (0, 1), BuildingBlock: TEMPAE_clean_linker_10, # of connection points: 2
#     Edge 57, Type (0, 1), BuildingBlock: TEMPAE_clean_linker_10, # of connection points: 2
#     Edge 58, Type (0, 1), BuildingBlock: TEMPAE_clean_linker_10, # of connection points: 2
#     Edge 59, Type (0, 1), BuildingBlock: TEMPAE_clean_linker_10, # of connection points: 2
#     Edge 60, Type (0, 1), BuildingBlock: TEMPAE_clean_linker_10, # of connection points: 2
#     Edge 61, Type (0, 1), BuildingBlock: TEMPAE_clean_linker_10, # of connection points: 2
#     Edge 62, Type (0, 1), BuildingBlock: TEMPAE_clean_linker_10, # of connection points: 2
#     Edge 63, Type (0, 1), BuildingBlock: TEMPAE_clean_linker_10, # of connection points: 2
#     Edge 64, Type (0, 1), BuildingBlock: TEMPAE_clean_linker_10, # of connection points: 2
#     Edge 65, Type (0, 1), BuildingBlock: TEMPAE_clean_linker_10, # of connection points: 2
#     Edge 66, Type (0, 1), BuildingBlock: TEMPAE_clean_linker_10, # of connection points: 2
#     Edge 67, Type (0, 1), BuildingBlock: TEMPAE_clean_linker_10, # of connection points: 2
#     Edge 68, Type (0, 1), BuildingBlock: TEMPAE_clean_linker_10, # of connection points: 2
#     Edge 69, Type (0, 1), BuildingBlock: TEMPAE_clean_linker_10, # of connection points: 2
#     Edge 70, Type (0, 1), BuildingBlock: TEMPAE_clean_linker_10, # of connection points: 2
#     Edge 71, Type (0, 1), BuildingBlock: TEMPAE_clean_linker_10, # of connection points: 2
#     Edge 72, Type (0, 1), BuildingBlock: TEMPAE_clean_linker_10, # of connection points: 2
#     Edge 73, Type (0, 1), BuildingBlock: TEMPAE_clean_linker_10, # of connection points: 2
#     Edge 74, Type (0, 1), BuildingBlock: TEMPAE_clean_linker_10, # of connection points: 2
#     Edge 75, Type (0, 1), BuildingBlock: TEMPAE_clean_linker_10, # of connection points: 2
#     Edge 76, Type (0, 1), BuildingBlock: TEMPAE_clean_linker_10, # of connection points: 2
#     Edge 77, Type (0, 1), BuildingBlock: TEMPAE_clean_linker_10, # of connection points: 2
#     Edge 78, Type (0, 1), BuildingBlock: TEMPAE_clean_linker_10, # of connection points: 2
#     Edge 79, Type (0, 1), BuildingBlock: TEMPAE_clean_linker_10, # of connection points: 2
#     Edge 80, Type (0, 1), BuildingBlock: TEMPAE_clean_linker_10, # of connection points: 2
#     Edge 81, Type (0, 1), BuildingBlock: TEMPAE_clean_linker_10, # of connection points: 2
#     Edge 82, Type (0, 1), BuildingBlock: TEMPAE_clean_linker_10, # of connection points: 2
#     Edge 83, Type (0, 1), BuildingBlock: TEMPAE_clean_linker_10, # of connection points: 2
#     Edge 84, Type (0, 1), BuildingBlock: TEMPAE_clean_linker_10, # of connection points: 2
#     Edge 85, Type (0, 1), BuildingBlock: TEMPAE_clean_linker_10, # of connection points: 2
#     Edge 86, Type (0, 1), BuildingBlock: TEMPAE_clean_linker_10, # of connection points: 2
#     Edge 87, Type (0, 1), BuildingBlock: TEMPAE_clean_linker_10, # of connection points: 2
#     Edge 88, Type (0, 1), BuildingBlock: TEMPAE_clean_linker_10, # of connection points: 2
#     Edge 89, Type (0, 1), BuildingBlock: TEMPAE_clean_linker_10, # of connection points: 2
#     Edge 90, Type (0, 1), BuildingBlock: TEMPAE_clean_linker_10, # of connection points: 2
#     Edge 91, Type (0, 1), BuildingBlock: TEMPAE_clean_linker_10, # of connection points: 2
#     Edge 92, Type (0, 1), BuildingBlock: TEMPAE_clean_linker_10, # of connection points: 2
#     Edge 93, Type (0, 1), BuildingBlock: TEMPAE_clean_linker_10, # of connection points: 2
#     Edge 94, Type (0, 1), BuildingBlock: TEMPAE_clean_linker_10, # of connection points: 2
#     Edge 95, Type (0, 1), BuildingBlock: TEMPAE_clean_linker_10, # of connection points: 2
#     Edge 96, Type (0, 1), BuildingBlock: TEMPAE_clean_linker_10, # of connection points: 2
#     Edge 97, Type (0, 1), BuildingBlock: TEMPAE_clean_linker_10, # of connection points: 2
#     Edge 98, Type (0, 1), BuildingBlock: TEMPAE_clean_linker_10, # of connection points: 2
#     Edge 99, Type (0, 1), BuildingBlock: TEMPAE_clean_linker_10, # of connection points: 2
#     Edge 100, Type (0, 1), BuildingBlock: TEMPAE_clean_linker_10, # of connection points: 2
#     Edge 101, Type (0, 1), BuildingBlock: TEMPAE_clean_linker_10, # of connection points: 2
#     Edge 102, Type (0, 1), BuildingBlock: TEMPAE_clean_linker_10, # of connection points: 2
#     Edge 103, Type (0, 1), BuildingBlock: TEMPAE_clean_linker_10, # of connection points: 2
#     Edge 104, Type (0, 1), BuildingBlock: TEMPAE_clean_linker_10, # of connection points: 2
#     Edge 105, Type (0, 1), BuildingBlock: TEMPAE_clean_linker_10, # of connection points: 2
#     Edge 106, Type (0, 1), BuildingBlock: TEMPAE_clean_linker_10, # of connection points: 2
#     Edge 107, Type (0, 1), BuildingBlock: TEMPAE_clean_linker_10, # of connection points: 2
# Relax obj value: 0.063
# Max RMSD: 0.201
# Mean RMSD: 0.102
data_MOF--net-ptr--node1-NAHDIM_clean_sbu_0--node2-MUDLON_clean_linker_0--edge1-TEMPAE_clean_linker_10
_symmetry_space_group_name_H-M    P1
_symmetry_Int_Tables_number       1
_symmetry_cell_setting            triclinic
loop_
_symmetry_equiv_pos_as_xyz
'x, y, z'
_cell_length_a     107.70662
_cell_length_b     105.85656
_cell_length_c     61.763843
_cell_angle_alpha  91.56114
_cell_angle_beta   89.248679
_cell_angle_gamma 121.61381
loop_
_atom_site_label
_atom_site_type_symbol
_atom_site_fract_x
_atom_site_fract_y
_atom_site_fract_z
_atom_type_partial_charge
C0 C 0.02442 0.36261 0.00798 0.0
O1 O 0.01453 0.35363 0.99376 0.0
O2 O 0.98746 0.35175 0.01073 0.0
Zn3 Zn 0.00439 0.37268 0.01493 0.0
O4 O 0.00146 0.38185 0.04199 0.0
C5 C 0.00122 0.37883 0.97071 0.0
O6 O 0.99615 0.36459 0.96781 0.0
O7 O 0.02259 0.37203 0.01843 0.0
C8 C 0.99581 0.38979 0.04138 0.0
O9 O 0.99155 0.39186 0.02267 0.0
C10 C 0.97441 0.34853 0.00841 0.0
O11 O 0.97161 0.35921 0.00943 0.0
O12 O 0.00587 0.38478 0.98932 0.0
C13 C 0.6643 0.63451 0.996 0.0
O14 O 0.6545 0.63043 0.98065 0.0
O15 O 0.64182 0.65032 0.02703 0.0
Zn16 Zn 0.64041 0.63064 0.02246 0.0
O17 O 0.62669 0.6182 0.99822 0.0
C18 C 0.62271 0.61899 0.05997 0.0
O19 O 0.61758 0.62692 0.05268 0.0
O20 O 0.66068 0.63504 0.01553 0.0
C21 C 0.6197 0.62183 0.98604 0.0
O22 O 0.62088 0.63474 0.98917 0.0
C23 C 0.64838 0.66076 0.01367 0.0
O24 O 0.65364 0.65839 0.99575 0.0
O25 O 0.63299 0.61894 0.04972 0.0
C26 C 0.3557 0.02623 0.01481 0.0
O27 O 0.34736 0.01736 0.03014 0.0
O28 O 0.34668 0.98861 0.01956 0.0
Zn29 Zn 0.3664 0.00612 0.01181 0.0
O30 O 0.37424 0.00099 0.98541 0.0
C31 C 0.37568 0.00839 0.05617 0.0
O32 O 0.36173 0.00265 0.06006 0.0
O33 O 0.36463 0.02361 0.00513 0.0
C34 C 0.38349 0.99703 0.98672 0.0
O35 O 0.38818 0.99626 0.00588 0.0
C36 C 0.3394 0.97726 0.00724 0.0
O37 O 0.34471 0.97673 0.98819 0.0
O38 O 0.38023 0.0112 0.03678 0.0
C39 C 0.96614 0.63562 0.98912 0.0
O40 O 0.97344 0.6345 0.97275 0.0
O41 O 0.0041 0.65257 0.01776 0.0
Zn42 Zn 0.98674 0.63202 0.01243 0.0
O43 O 0.98975 0.62233 0.98607 0.0
C44 C 0.98818 0.62595 0.05698 0.0
O45 O 0.99295 0.64016 0.05917 0.0
O46 O 0.96948 0.6343 0.00824 0.0
C47 C 0.00035 0.62029 0.98462 0.0
O48 O 0.00974 0.62479 0.00067 0.0
C49 C 0.0134 0.66099 0.0039 0.0
O50 O 0.01238 0.65622 0.98376 0.0
O51 O 0.98422 0.61974 0.03835 0.0
C52 C 0.33513 0.36364 0.0292 0.0
O53 O 0.34096 0.35754 0.04016 0.0
O54 O 0.35894 0.35479 0.00479 0.0
Zn55 Zn 0.36228 0.37525 0.00922 0.0
O56 O 0.3746 0.38497 0.03582 0.0
C57 C 0.38504 0.39734 0.98156 0.0
O58 O 0.39341 0.40018 0.99852 0.0
O59 O 0.34256 0.37252 0.01427 0.0
C60 C 0.37872 0.39824 0.04149 0.0
O61 O 0.37499 0.40585 0.0296 0.0
C62 C 0.36685 0.35185 0.99287 0.0
O63 O 0.37823 0.36271 0.98312 0.0
O64 O 0.3716 0.38729 0.98248 0.0
C65 C 0.62902 0.96508 0.02443 0.0
O66 O 0.62653 0.97199 0.04027 0.0
O67 O 0.6439 0.00343 0.99386 0.0
Zn68 Zn 0.62457 0.98478 0.99929 0.0
O69 O 0.61394 0.98701 0.02495 0.0
C70 C 0.60337 0.98476 0.97174 0.0
O71 O 0.60285 0.9926 0.98817 0.0
O72 O 0.62848 0.96843 0.00498 0.0
C73 C 0.61718 0.99893 0.0352 0.0
O74 O 0.62861 0.01157 0.02935 0.0
C75 C 0.65413 0.00964 0.00775 0.0
O76 O 0.65206 0.00416 0.02721 0.0
O77 O 0.61198 0.97995 0.97264 0.0
C78 C 0.69527 0.70144 0.36938 0.0
O79 O 0.68715 0.70217 0.38483 0.0
O80 O 0.65864 0.68695 0.33922 0.0
Zn81 Zn 0.67681 0.70711 0.34402 0.0
O82 O 0.67479 0.71799 0.3698 0.0
C83 C 0.67137 0.71748 0.3045 0.0
O84 O 0.65786 0.7069 0.30837 0.0
O85 O 0.69312 0.70353 0.34995 0.0
C86 C 0.66916 0.72595 0.36917 0.0
O87 O 0.66379 0.72703 0.35082 0.0
C88 C 0.64579 0.68296 0.3453 0.0
O89 O 0.64347 0.69252 0.35571 0.0
O90 O 0.68139 0.71954 0.31744 0.0
C91 C 0.32697 0.97393 0.33496 0.0
O92 O 0.32215 0.98162 0.32582 0.0
O93 O 0.30197 0.98126 0.35884 0.0
Zn94 Zn 0.2989 0.96101 0.35327 0.0
O95 O 0.28626 0.95048 0.32721 0.0
C96 C 0.29616 0.95116 0.39713 0.0
O97 O 0.30955 0.96263 0.39882 0.0
O98 O 0.31869 0.96383 0.348 0.0
C99 C 0.28484 0.95662 0.31082 0.0
O100 O 0.29177 0.97116 0.3103 0.0
C101 C 0.29258 0.98506 0.35803 0.0
O102 O 0.279 0.97506 0.35305 0.0
O103 O 0.28951 0.94836 0.37916 0.0
C104 C 0.02777 0.36321 0.33441 0.0
O105 O 0.02099 0.35034 0.32396 0.0
O106 O 0.02175 0.33036 0.35793 0.0
Zn107 Zn 0.04107 0.34914 0.35299 0.0
O108 O 0.05121 0.34711 0.32674 0.0
C109 C 0.04979 0.35213 0.39803 0.0
O110 O 0.03601 0.34738 0.40181 0.0
O111 O 0.03737 0.36562 0.3484 0.0
C112 C 0.04492 0.33754 0.31152 0.0
O113 O 0.03079 0.32809 0.3125 0.0
C114 C 0.02064 0.31879 0.36557 0.0
O115 O 0.03255 0.31884 0.37012 0.0
O116 O 0.05429 0.35388 0.37858 0.0
C117 C 0.64517 0.97482 0.32032 0.0
O118 O 0.65732 0.98277 0.3094 0.0
O119 O 0.67922 0.98752 0.34882 0.0
Zn120 Zn 0.66306 0.96656 0.34161 0.0
O121 O 0.66829 0.95863 0.31523 0.0
C122 C 0.66144 0.95877 0.38634 0.0
O123 O 0.66583 0.97283 0.38955 0.0
O124 O 0.64488 0.96671 0.33534 0.0
C125 C 0.67212 0.94917 0.31646 0.0
O126 O 0.67271 0.94431 0.33553 0.0
C127 C 0.69068 0.99488 0.33751 0.0
O128 O 0.69246 0.98867 0.32001 0.0
O129 O 0.65939 0.95354 0.36707 0.0
C130 C 0.99563 0.70029 0.33924 0.0
O131 O 0.99801 0.69704 0.31953 0.0
O132 O 0.02493 0.69156 0.33876 0.0
Zn133 Zn 0.02627 0.71096 0.34534 0.0
O134 O 0.03928 0.72116 0.37121 0.0
C135 C 0.04806 0.73151 0.31598 0.0
O136 O 0.05689 0.73224 0.33109 0.0
O137 O 0.00618 0.70662 0.35258 0.0
C138 C 0.04495 0.73491 0.37563 0.0
O139 O 0.04239 0.74303 0.36287 0.0
C140 C 0.02948 0.68543 0.35115 0.0
O141 O 0.03544 0.69186 0.36984 0.0
O142 O 0.03435 0.72333 0.31863 0.0
C143 C 0.30029 0.30293 0.36452 0.0
O144 O 0.3003 0.31134 0.38057 0.0
O145 O 0.31507 0.34045 0.33547 0.0
Zn146 Zn 0.29516 0.32248 0.34071 0.0
O147 O 0.28632 0.32588 0.36737 0.0
C148 C 0.28507 0.31835 0.29597 0.0
O149 O 0.29837 0.32176 0.29111 0.0
O150 O 0.29792 0.30532 0.3454 0.0
C151 C 0.28125 0.33435 0.36771 0.0
O152 O 0.282 0.34143 0.35012 0.0
C153 C 0.31773 0.35134 0.3239 0.0
O154 O 0.3069 0.35147 0.31461 0.0
O155 O 0.28149 0.31793 0.31574 0.0
C156 C 0.36105 0.03847 0.69859 0.0
O157 O 0.35537 0.04238 0.7144 0.0
O158 O 0.32226 0.02196 0.66751 0.0
Zn159 Zn 0.34072 0.04173 0.67281 0.0
O160 O 0.33861 0.05317 0.69772 0.0
C161 C 0.33599 0.05469 0.63629 0.0
O162 O 0.32257 0.04725 0.64369 0.0
O163 O 0.35668 0.03774 0.67931 0.0
C164 C 0.32669 0.05001 0.70678 0.0
O165 O 0.31439 0.03851 0.69968 0.0
C166 C 0.31721 0.01199 0.68171 0.0
O167 O 0.32387 0.01492 0.7005 0.0
O168 O 0.34587 0.05396 0.64614 0.0
C169 C 0.00099 0.31407 0.67285 0.0
O170 O 0.99435 0.31919 0.66161 0.0
O171 O 0.97204 0.31649 0.69427 0.0
Zn172 Zn 0.97268 0.29783 0.69033 0.0
O173 O 0.96205 0.28664 0.66316 0.0
C174 C 0.95679 0.28598 0.73066 0.0
O175 O 0.95475 0.29713 0.7297 0.0
O176 O 0.99375 0.30427 0.68684 0.0
C177 C 0.94852 0.27682 0.66297 0.0
O178 O 0.94102 0.27399 0.68103 0.0
C179 C 0.96086 0.31744 0.69187 0.0
O180 O 0.94829 0.30549 0.6868 0.0
O181 O 0.96421 0.28431 0.71594 0.0
C182 C 0.69198 0.69668 0.68054 0.0
O183 O 0.68384 0.68811 0.69626 0.0
O184 O 0.68429 0.66048 0.68984 0.0
Zn185 Zn 0.70375 0.67765 0.68073 0.0
O186 O 0.71161 0.67147 0.65552 0.0
C187 C 0.73082 0.68817 0.70416 0.0
O188 O 0.73601 0.68815 0.6848 0.0
O189 O 0.70134 0.69434 0.67167 0.0
C190 C 0.71113 0.6592 0.65483 0.0
O191 O 0.70526 0.65012 0.67106 0.0
C192 C 0.67467 0.65145 0.67641 0.0
O193 O 0.67743 0.65319 0.65556 0.0
O194 O 0.71753 0.68429 0.70614 0.0
C195 C 0.31118 0.31031 0.67096 0.0
O196 O 0.31961 0.3185 0.68713 0.0
O197 O 0.34799 0.32158 0.67695 0.0
Zn198 Zn 0.33187 0.30093 0.66833 0.0
O199 O 0.33796 0.29349 0.64241 0.0
C200 C 0.32988 0.29205 0.71266 0.0
O201 O 0.33538 0.30627 0.71663 0.0
O202 O 0.31416 0.30167 0.66062 0.0
C203 C 0.34354 0.28557 0.6445 0.0
O204 O 0.34538 0.28217 0.66401 0.0
C205 C 0.35937 0.32962 0.66581 0.0
O206 O 0.36124 0.32436 0.64737 0.0
O207 O 0.32722 0.28718 0.69319 0.0
C208 C 0.66497 0.02873 0.68685 0.0
O209 O 0.67068 0.02171 0.69551 0.0
O210 O 0.69285 0.02564 0.66481 0.0
Zn211 Zn 0.69368 0.04486 0.67123 0.0
O212 O 0.70432 0.05468 0.69915 0.0
C213 C 0.71354 0.05838 0.63614 0.0
O214 O 0.71772 0.04947 0.64266 0.0
O215 O 0.67296 0.03977 0.67501 0.0
C216 C 0.71805 0.06337 0.70082 0.0
O217 O 0.72625 0.06611 0.68356 0.0
C218 C 0.69831 0.0199 0.67618 0.0
O219 O 0.7057 0.02693 0.69377 0.0
O220 O 0.70318 0.0585 0.64606 0.0
C221 C 0.96825 0.6423 0.67681 0.0
O222 O 0.97415 0.64873 0.65844 0.0
O223 O 0.98174 0.68112 0.67265 0.0
Zn224 Zn 0.96121 0.66514 0.67994 0.0
O225 O 0.95438 0.67198 0.70572 0.0
C226 C 0.9509 0.65977 0.63501 0.0
O227 O 0.96392 0.66223 0.6304 0.0
O228 O 0.96175 0.64717 0.68845 0.0
C229 C 0.94491 0.67564 0.70426 0.0
O230 O 0.9394 0.67519 0.6852 0.0
C231 C 0.98506 0.69208 0.66082 0.0
O232 O 0.97464 0.69346 0.65265 0.0
O233 O 0.94753 0.66031 0.65467 0.0
H234 H 0.22196 0.3363 0.13896 0.0
N235 N 0.19797 0.31277 0.11914 0.0
H236 H 0.2342 0.33555 0.17104 0.0
H237 H 0.18897 0.29004 0.14555 0.0
H238 H 0.20098 0.28933 0.17861 0.0
H239 H 0.20757 0.29797 0.09638 0.0
H240 H 0.22892 0.30835 0.07282 0.0
H241 H 0.21262 0.34108 0.10335 0.0
H242 H 0.23367 0.35143 0.07936 0.0
H243 H 0.19887 0.33554 0.14353 0.0
H244 H 0.17383 0.3012 0.09554 0.0
H245 H 0.18119 0.34304 0.1432 0.0
H246 H 0.15631 0.30925 0.09422 0.0
H247 H 0.12954 0.36835 0.1471 0.0
H248 H 0.11625 0.36634 0.18063 0.0
H249 H 0.09413 0.31856 0.17529 0.0
H250 H 0.10751 0.32067 0.14212 0.0
H251 H 0.10182 0.32209 0.10525 0.0
H252 H 0.08574 0.32229 0.07801 0.0
H253 H 0.11597 0.36922 0.06969 0.0
H254 H 0.13217 0.36878 0.09662 0.0
H255 H 0.15536 0.36321 0.12372 0.0
H256 H 0.17295 0.35526 0.12207 0.0
H257 H 0.1375 0.3097 0.11373 0.0
N258 N 0.12664 0.34645 0.12152 0.0
H259 H 0.1202 0.3179 0.11409 0.0
C260 C 0.2045 0.31313 0.13966 0.0
C261 C 0.21718 0.32599 0.14747 0.0
C262 C 0.22415 0.32559 0.16606 0.0
C263 C 0.2186 0.31237 0.17746 0.0
C264 C 0.20566 0.29964 0.17006 0.0
C265 C 0.19871 0.30005 0.15132 0.0
C266 C 0.20848 0.31866 0.10174 0.0
C267 C 0.21299 0.30956 0.09221 0.0
C268 C 0.22517 0.31552 0.0787 0.0
C269 C 0.23309 0.33077 0.07439 0.0
C270 C 0.22793 0.33969 0.08265 0.0
C271 C 0.21578 0.33372 0.09624 0.0
C272 C 0.18761 0.31755 0.11971 0.0
C273 C 0.18958 0.32954 0.13289 0.0
C274 C 0.17947 0.334 0.13247 0.0
C275 C 0.1673 0.32682 0.11861 0.0
C276 C 0.16541 0.31491 0.10535 0.0
C277 C 0.17544 0.31033 0.10599 0.0
C278 C 0.11961 0.34474 0.14214 0.0
C279 C 0.12196 0.35747 0.15339 0.0
C280 C 0.11429 0.35629 0.17238 0.0
C281 C 0.10408 0.34228 0.18051 0.0
C282 C 0.10202 0.3295 0.16954 0.0
C283 C 0.10967 0.33071 0.15048 0.0
C284 C 0.11824 0.34548 0.10295 0.0
C285 C 0.10522 0.33232 0.09714 0.0
C286 C 0.09595 0.33248 0.08167 0.0
C287 C 0.09949 0.34581 0.07183 0.0
C288 C 0.11297 0.35874 0.07675 0.0
C289 C 0.12222 0.35854 0.09217 0.0
C290 C 0.13651 0.34121 0.1193 0.0
C291 C 0.15146 0.35153 0.12134 0.0
C292 C 0.16145 0.34692 0.12061 0.0
C293 C 0.15666 0.33178 0.11809 0.0
C294 C 0.14163 0.32145 0.11554 0.0
C295 C 0.13165 0.32613 0.11599 0.0
H296 H 0.7166 0.79399 0.13048 0.0
N297 N 0.69872 0.80073 0.11213 0.0
H298 H 0.71325 0.78161 0.16488 0.0
H299 H 0.67703 0.79399 0.14157 0.0
H300 H 0.67345 0.78142 0.17588 0.0
H301 H 0.67005 0.77854 0.10781 0.0
H302 H 0.66064 0.75661 0.08412 0.0
H303 H 0.71271 0.79667 0.07956 0.0
H304 H 0.70331 0.77476 0.05544 0.0
H305 H 0.71759 0.82765 0.12763 0.0
H306 H 0.67644 0.8028 0.09392 0.0
H307 H 0.71587 0.84966 0.12759 0.0
H308 H 0.67511 0.82493 0.09248 0.0
H309 H 0.70996 0.9194 0.13195 0.0
H310 H 0.70776 0.92894 0.1674 0.0
H311 H 0.67236 0.88504 0.18341 0.0
H312 H 0.67424 0.87583 0.14788 0.0
H313 H 0.66396 0.88278 0.11624 0.0
H314 H 0.65188 0.89177 0.09379 0.0
H315 H 0.69144 0.9169 0.05664 0.0
H316 H 0.70359 0.90819 0.0798 0.0
H317 H 0.71648 0.89055 0.10963 0.0
H318 H 0.71782 0.86827 0.10656 0.0
H319 H 0.67087 0.84119 0.11248 0.0
N320 N 0.69301 0.89228 0.11519 0.0
H321 H 0.66968 0.86354 0.1138 0.0
C322 C 0.69713 0.79491 0.13351 0.0
C323 C 0.70729 0.79146 0.14051 0.0
C324 C 0.70529 0.7843 0.16004 0.0
C325 C 0.69303 0.78044 0.17299 0.0
C326 C 0.68306 0.78436 0.16632 0.0
C327 C 0.68506 0.7915 0.14671 0.0
C328 C 0.69216 0.78928 0.09546 0.0
C329 C 0.67731 0.778 0.09608 0.0
C330 C 0.67192 0.76547 0.08244 0.0
C331 C 0.68127 0.7639 0.06805 0.0
C332 C 0.69588 0.77559 0.06655 0.0
C333 C 0.70125 0.78815 0.08014 0.0
C334 C 0.69727 0.81351 0.11079 0.0
C335 C 0.70828 0.827 0.11994 0.0
C336 C 0.70732 0.83964 0.11969 0.0
C337 C 0.6954 0.83922 0.10983 0.0
C338 C 0.68437 0.82569 0.1005 0.0
C339 C 0.6852 0.81294 0.10115 0.0
C340 C 0.69241 0.89693 0.13717 0.0
C341 C 0.70187 0.91184 0.14327 0.0
C342 C 0.70062 0.91723 0.16356 0.0
C343 C 0.68983 0.90776 0.17826 0.0
C344 C 0.68064 0.8927 0.17237 0.0
C345 C 0.68183 0.88735 0.15202 0.0
C346 C 0.68477 0.89497 0.09979 0.0
C347 C 0.66995 0.88996 0.103 0.0
C348 C 0.66303 0.89508 0.09004 0.0
C349 C 0.67075 0.90523 0.07357 0.0
C350 C 0.68526 0.90934 0.06946 0.0
C351 C 0.69219 0.90428 0.08251 0.0
C352 C 0.69308 0.87876 0.11228 0.0
C353 C 0.7065 0.87977 0.11001 0.0
C354 C 0.70722 0.86699 0.10851 0.0
C355 C 0.69447 0.85281 0.10968 0.0
C356 C 0.68093 0.85184 0.11135 0.0
C357 C 0.68023 0.86467 0.11238 0.0
H358 H 0.10294 0.76886 0.12613 0.0
N359 N 0.11092 0.79638 0.11143 0.0
H360 H 0.09212 0.75869 0.16094 0.0
H361 H 0.10621 0.81011 0.14433 0.0
H362 H 0.09645 0.80046 0.18013 0.0
H363 H 0.08462 0.787 0.09563 0.0
H364 H 0.07038 0.76617 0.0705 0.0
H365 H 0.12144 0.78162 0.08664 0.0
H366 H 0.10757 0.76142 0.06102 0.0
H367 H 0.13094 0.78935 0.12325 0.0
H368 H 0.12622 0.82459 0.09993 0.0
H369 H 0.15729 0.80584 0.12389 0.0
H370 H 0.15262 0.84163 0.10196 0.0
H371 H 0.23949 0.86701 0.14844 0.0
H372 H 0.2491 0.88259 0.18126 0.0
H373 H 0.21953 0.89804 0.17214 0.0
H374 H 0.20965 0.88198 0.13977 0.0
H375 H 0.22249 0.89039 0.10583 0.0
H376 H 0.24077 0.90683 0.08004 0.0
H377 H 0.25433 0.87524 0.0701 0.0
H378 H 0.23625 0.85903 0.09674 0.0
H379 H 0.20214 0.84197 0.14583 0.0
H380 H 0.17585 0.82537 0.14326 0.0
H381 H 0.17527 0.84874 0.08726 0.0
N382 N 0.21949 0.86496 0.12153 0.0
H383 H 0.20129 0.86585 0.09084 0.0
C384 C 0.10511 0.79021 0.1324 0.0
C385 C 0.10141 0.77579 0.13769 0.0
C386 C 0.09538 0.77004 0.15785 0.0
C387 C 0.09331 0.77869 0.17352 0.0
C388 C 0.0975 0.79329 0.16839 0.0
C389 C 0.10321 0.79891 0.148 0.0
C390 C 0.10407 0.78596 0.0934 0.0
C391 C 0.08978 0.78164 0.08779 0.0
C392 C 0.08167 0.76975 0.07333 0.0
C393 C 0.08777 0.76197 0.06388 0.0
C394 C 0.10241 0.76693 0.06837 0.0
C395 C 0.11045 0.77869 0.08306 0.0
C396 C 0.12662 0.80572 0.1112 0.0
C397 C 0.13561 0.80068 0.11825 0.0
C398 C 0.15073 0.81023 0.11887 0.0
C399 C 0.15722 0.82519 0.11312 0.0
C400 C 0.14814 0.83016 0.10612 0.0
C401 C 0.13302 0.82048 0.10506 0.0
C402 C 0.22396 0.87338 0.14169 0.0
C403 C 0.235 0.87364 0.15373 0.0
C404 C 0.24055 0.88265 0.17232 0.0
C405 C 0.23521 0.89172 0.17917 0.0
C406 C 0.22382 0.89114 0.16738 0.0
C407 C 0.21822 0.88204 0.14881 0.0
C408 C 0.2281 0.87349 0.10337 0.0
C409 C 0.22924 0.88688 0.09792 0.0
C410 C 0.23964 0.89624 0.08297 0.0
C411 C 0.24912 0.89242 0.07313 0.0
C412 C 0.24736 0.87861 0.07766 0.0
C413 C 0.23696 0.86928 0.09268 0.0
C414 C 0.20388 0.85528 0.11875 0.0
C415 C 0.19631 0.84356 0.13307 0.0
C416 C 0.18125 0.83395 0.13139 0.0
C417 C 0.17332 0.83557 0.11493 0.0
C418 C 0.18091 0.84725 0.10039 0.0
C419 C 0.19598 0.85707 0.10236 0.0
H420 H 0.34333 0.23489 0.88142 0.0
N421 N 0.31963 0.21088 0.89969 0.0
H422 H 0.34391 0.24575 0.84702 0.0
H423 H 0.29858 0.20025 0.87006 0.0
H424 H 0.29915 0.21098 0.83507 0.0
H425 H 0.30163 0.21807 0.91769 0.0
H426 H 0.30809 0.23976 0.94098 0.0
H427 H 0.34616 0.22882 0.92027 0.0
H428 H 0.35267 0.25046 0.94294 0.0
H429 H 0.34681 0.2156 0.89054 0.0
H430 H 0.30364 0.18299 0.9121 0.0
H431 H 0.35433 0.19781 0.89333 0.0
H432 H 0.3107 0.16452 0.91323 0.0
H433 H 0.36692 0.12988 0.87735 0.0
H434 H 0.36061 0.11437 0.84431 0.0
H435 H 0.31709 0.1067 0.84662 0.0
H436 H 0.32344 0.12211 0.87987 0.0
H437 H 0.32459 0.11191 0.9161 0.0
H438 H 0.32303 0.09454 0.94284 0.0
H439 H 0.36956 0.12203 0.95324 0.0
H440 H 0.3709 0.1395 0.92685 0.0
H441 H 0.35954 0.15919 0.87614 0.0
H442 H 0.3523 0.1774 0.87607 0.0
H443 H 0.32379 0.15596 0.9305 0.0
N444 N 0.34973 0.1358 0.90094 0.0
H445 H 0.33026 0.13722 0.92943 0.0
C446 C 0.32084 0.21669 0.87838 0.0
C447 C 0.33369 0.22941 0.87135 0.0
C448 C 0.33403 0.23562 0.85154 0.0
C449 C 0.32156 0.22926 0.83829 0.0
C450 C 0.30888 0.21625 0.84502 0.0
C451 C 0.30855 0.21005 0.86489 0.0
C452 C 0.3233 0.22173 0.91701 0.0
C453 C 0.31269 0.22486 0.92371 0.0
C454 C 0.31643 0.23731 0.93682 0.0
C455 C 0.33094 0.24693 0.94352 0.0
C456 C 0.34138 0.24322 0.93815 0.0
C457 C 0.33762 0.23077 0.92501 0.0
C458 C 0.32465 0.20071 0.90152 0.0
C459 C 0.33891 0.20462 0.89598 0.0
C460 C 0.34316 0.19426 0.89725 0.0
C461 C 0.33314 0.17959 0.90338 0.0
C462 C 0.31885 0.17574 0.90885 0.0
C463 C 0.31473 0.18623 0.90806 0.0
C464 C 0.34574 0.12723 0.88092 0.0
C465 C 0.35606 0.1249 0.87063 0.0
C466 C 0.35241 0.116 0.85191 0.0
C467 C 0.33835 0.10933 0.84301 0.0
C468 C 0.32802 0.1118 0.85312 0.0
C469 C 0.33163 0.12058 0.87207 0.0
C470 C 0.34792 0.12703 0.91952 0.0
C471 C 0.33438 0.11439 0.92458 0.0
C472 C 0.33353 0.10441 0.93975 0.0
C473 C 0.3462 0.10679 0.95 0.0
C474 C 0.35956 0.11991 0.94585 0.0
C475 C 0.36037 0.12991 0.93076 0.0
C476 C 0.3455 0.14671 0.90259 0.0
C477 C 0.35169 0.15841 0.88803 0.0
C478 C 0.34763 0.16893 0.88819 0.0
C479 C 0.33748 0.1683 0.90338 0.0
C480 C 0.33143 0.15671 0.91828 0.0
C481 C 0.33527 0.14595 0.91779 0.0
H482 H 0.75567 0.13195 0.88652 0.0
N483 N 0.77561 0.13055 0.9094 0.0
H484 H 0.74665 0.12155 0.85012 0.0
H485 H 0.78615 0.11722 0.88215 0.0
H486 H 0.77762 0.10735 0.84595 0.0
H487 H 0.77038 0.10239 0.91264 0.0
H488 H 0.75236 0.08327 0.93597 0.0
H489 H 0.76216 0.13448 0.94279 0.0
H490 H 0.74485 0.11568 0.96754 0.0
H491 H 0.78795 0.15946 0.91625 0.0
H492 H 0.79733 0.12464 0.9144 0.0
H493 H 0.81365 0.17784 0.92169 0.0
H494 H 0.82325 0.14287 0.91643 0.0
H495 H 0.90825 0.20814 0.90448 0.0
H496 H 0.9221 0.21687 0.87071 0.0
H497 H 0.88573 0.21648 0.84133 0.0
H498 H 0.87204 0.20763 0.87435 0.0
H499 H 0.89507 0.21109 0.9526 0.0
H500 H 0.90772 0.23509 0.97212 0.0
H501 H 0.89552 0.25412 0.92179 0.0
H502 H 0.88336 0.23038 0.90222 0.0
H503 H 0.86024 0.20938 0.90421 0.0
H504 H 0.83463 0.19106 0.90491 0.0
H505 H 0.8441 0.15969 0.93218 0.0
N506 N 0.88271 0.20518 0.9137 0.0
H507 H 0.87007 0.17784 0.92855 0.0
C508 C 0.77164 0.12553 0.88718 0.0
C509 C 0.76059 0.12673 0.8776 0.0
C510 C 0.7555 0.12083 0.8568 0.0
C511 C 0.76139 0.11356 0.84517 0.0
C512 C 0.77271 0.11269 0.85459 0.0
C513 C 0.77774 0.11854 0.87536 0.0
C514 C 0.76729 0.11979 0.9256 0.0
C515 C 0.76493 0.10541 0.92463 0.0
C516 C 0.75468 0.09448 0.93824 0.0
C517 C 0.74686 0.09779 0.95346 0.0
C518 C 0.75027 0.11256 0.95559 0.0
C519 C 0.76028 0.12338 0.94165 0.0
C520 C 0.79081 0.14081 0.91398 0.0
C521 C 0.79568 0.15585 0.9166 0.0
C522 C 0.81048 0.16637 0.91935 0.0
C523 C 0.82091 0.16213 0.91867 0.0
C524 C 0.81581 0.14683 0.91706 0.0
C525 C 0.80089 0.13627 0.91531 0.0
C526 C 0.88909 0.20722 0.89232 0.0
C527 C 0.90313 0.20953 0.89051 0.0
C528 C 0.91107 0.21464 0.87129 0.0
C529 C 0.90507 0.21751 0.85339 0.0
C530 C 0.89065 0.21425 0.85471 0.0
C531 C 0.88276 0.20919 0.87391 0.0
C532 C 0.88828 0.21888 0.92602 0.0
C533 C 0.89494 0.2204 0.94604 0.0
C534 C 0.9021 0.23409 0.95717 0.0
C535 C 0.90271 0.24653 0.94839 0.0
C536 C 0.89542 0.2448 0.92881 0.0
C537 C 0.8883 0.23114 0.9177 0.0
C538 C 0.86721 0.19483 0.91556 0.0
C539 C 0.8569 0.19849 0.90991 0.0
C540 C 0.84202 0.18793 0.91083 0.0
C541 C 0.83692 0.1736 0.91858 0.0
C542 C 0.84735 0.1703 0.92541 0.0
C543 C 0.86228 0.18074 0.9236 0.0
H544 H 0.79679 0.72406 0.88864 0.0
N545 N 0.80484 0.70616 0.90366 0.0
H546 H 0.78635 0.72284 0.85312 0.0
H547 H 0.80254 0.68803 0.869 0.0
H548 H 0.79273 0.68713 0.83351 0.0
H549 H 0.78346 0.67676 0.89925 0.0
H550 H 0.76157 0.66356 0.9213 0.0
H551 H 0.79895 0.71585 0.94012 0.0
H552 H 0.77705 0.70259 0.9626 0.0
H553 H 0.83136 0.72918 0.91166 0.0
H554 H 0.80742 0.68164 0.90267 0.0
H555 H 0.85395 0.72928 0.91542 0.0
H556 H 0.8299 0.68166 0.9046 0.0
H557 H 0.92358 0.72082 0.88812 0.0
H558 H 0.93093 0.71692 0.85213 0.0
H559 H 0.88638 0.68215 0.8386 0.0
H560 H 0.87927 0.68583 0.87482 0.0
H561 H 0.88689 0.67555 0.90482 0.0
H562 H 0.89541 0.66274 0.92651 0.0
H563 H 0.92256 0.70319 0.96377 0.0
H564 H 0.91433 0.71612 0.94121 0.0
H565 H 0.89332 0.72687 0.89455 0.0
H566 H 0.8708 0.72701 0.89511 0.0
H567 H 0.84874 0.68421 0.92535 0.0
N568 N 0.8974 0.70542 0.90624 0.0
H569 H 0.87091 0.68368 0.92325 0.0
C570 C 0.80055 0.70626 0.88163 0.0
C571 C 0.79612 0.71613 0.87652 0.0
C572 C 0.7902 0.71544 0.85619 0.0
C573 C 0.78862 0.70482 0.84048 0.0
C574 C 0.79356 0.69528 0.84535 0.0
C575 C 0.79937 0.69591 0.86571 0.0
C576 C 0.79285 0.69737 0.91804 0.0
C577 C 0.78234 0.68241 0.91329 0.0
C578 C 0.76981 0.67484 0.92599 0.0
C579 C 0.76753 0.68207 0.94362 0.0
C580 C 0.77841 0.69679 0.94896 0.0
C581 C 0.79095 0.70434 0.93626 0.0
C582 C 0.81775 0.70551 0.90656 0.0
C583 C 0.83103 0.71878 0.91034 0.0
C584 C 0.84394 0.71879 0.91226 0.0
C585 C 0.8439 0.70549 0.91002 0.0
C586 C 0.83046 0.69212 0.90671 0.0
C587 C 0.81751 0.69211 0.90529 0.0
C588 C 0.90094 0.70372 0.88414 0.0
C589 C 0.91541 0.71249 0.87724 0.0
C590 C 0.91955 0.71028 0.85665 0.0
C591 C 0.90924 0.6992 0.84247 0.0
C592 C 0.89463 0.69064 0.84922 0.0
C593 C 0.89052 0.69282 0.86987 0.0
C594 C 0.90015 0.69692 0.92123 0.0
C595 C 0.89453 0.68165 0.9178 0.0
C596 C 0.89932 0.67427 0.93041 0.0
C597 C 0.90979 0.68196 0.94678 0.0
C598 C 0.91468 0.697 0.95105 0.0
C599 C 0.90992 0.70438 0.93833 0.0
C600 C 0.884 0.70537 0.9088 0.0
C601 C 0.88361 0.71755 0.90137 0.0
C602 C 0.8707 0.71764 0.9019 0.0
C603 C 0.85782 0.70562 0.91033 0.0
C604 C 0.8583 0.69355 0.91833 0.0
C605 C 0.87116 0.69332 0.91735 0.0
H606 H 0.74351 0.61742 0.47405 0.0
N607 N 0.76917 0.63785 0.45824 0.0
H608 H 0.73328 0.61753 0.50969 0.0
H609 H 0.78353 0.65773 0.49186 0.0
H610 H 0.77335 0.65819 0.52692 0.0
H611 H 0.77756 0.6672 0.46123 0.0
H612 H 0.76819 0.67923 0.43955 0.0
H613 H 0.75343 0.62716 0.42227 0.0
H614 H 0.74441 0.63935 0.39973 0.0
H615 H 0.7722 0.61502 0.44942 0.0
H616 H 0.79695 0.66239 0.46031 0.0
H617 H 0.79477 0.61498 0.44583 0.0
H618 H 0.81953 0.66241 0.45851 0.0
H619 H 0.87061 0.61979 0.46569 0.0
H620 H 0.88382 0.62305 0.4993 0.0
H621 H 0.88074 0.66118 0.51661 0.0
H622 H 0.86791 0.65803 0.48258 0.0
H623 H 0.88306 0.66658 0.44874 0.0
H624 H 0.90332 0.67765 0.42324 0.0
H625 H 0.88534 0.63539 0.38932 0.0
H626 H 0.8651 0.62431 0.41523 0.0
H627 H 0.83583 0.61636 0.46456 0.0
H628 H 0.81351 0.61689 0.4662 0.0
H629 H 0.83612 0.6601 0.43716 0.0
N630 N 0.86187 0.63711 0.45068 0.0
H631 H 0.85852 0.6599 0.43703 0.0
C632 C 0.76425 0.63749 0.48018 0.0
C633 C 0.75014 0.62618 0.48573 0.0
C634 C 0.74429 0.62634 0.506 0.0
C635 C 0.75246 0.63792 0.52113 0.0
C636 C 0.76681 0.64899 0.5158 0.0
C637 C 0.77265 0.64878 0.49557 0.0
C638 C 0.76602 0.64615 0.44352 0.0
C639 C 0.77053 0.66108 0.44767 0.0
C640 C 0.76521 0.66802 0.4351 0.0
C641 C 0.75538 0.66021 0.41802 0.0
C642 C 0.75171 0.64559 0.41303 0.0
C643 C 0.75694 0.63864 0.42574 0.0
C644 C 0.78283 0.63859 0.45546 0.0
C645 C 0.78254 0.6254 0.45122 0.0
C646 C 0.79548 0.62541 0.44942 0.0
C647 C 0.80909 0.63866 0.45223 0.0
C648 C 0.80934 0.65198 0.45606 0.0
C649 C 0.79636 0.65198 0.45741 0.0
C650 C 0.86825 0.63858 0.47168 0.0
C651 C 0.87264 0.62872 0.47691 0.0
C652 C 0.88013 0.63058 0.49616 0.0
C653 C 0.88335 0.64239 0.51069 0.0
C654 C 0.8786 0.65208 0.50567 0.0
C655 C 0.87116 0.65023 0.48631 0.0
C656 C 0.87254 0.64455 0.43387 0.0
C657 C 0.88329 0.65975 0.43558 0.0
C658 C 0.89485 0.6661 0.4209 0.0
C659 C 0.89597 0.65737 0.40434 0.0
C660 C 0.88484 0.64235 0.40205 0.0
C661 C 0.87324 0.63603 0.41669 0.0
C662 C 0.84889 0.63794 0.45056 0.0
C663 C 0.83594 0.62594 0.45858 0.0
C664 C 0.82314 0.62624 0.4593 0.0
C665 C 0.82286 0.63849 0.4516 0.0
C666 C 0.83588 0.65054 0.44351 0.0
C667 C 0.84878 0.65036 0.44321 0.0
H668 H 0.3761 0.12032 0.45258 0.0
N669 N 0.36039 0.13103 0.43801 0.0
H670 H 0.37409 0.10925 0.4878 0.0
H671 H 0.34372 0.13053 0.47227 0.0
H672 H 0.34158 0.11943 0.50739 0.0
H673 H 0.33064 0.11355 0.44137 0.0
H674 H 0.3151 0.08989 0.4223 0.0
H675 H 0.36764 0.12039 0.40394 0.0
H676 H 0.35217 0.09662 0.38485 0.0
H677 H 0.3811 0.15713 0.4542 0.0
H678 H 0.34068 0.13669 0.41825 0.0
H679 H 0.3821 0.18063 0.45475 0.0
H680 H 0.34206 0.16021 0.4178 0.0
H681 H 0.38125 0.25538 0.46091 0.0
H682 H 0.37964 0.26497 0.49662 0.0
H683 H 0.34684 0.22053 0.51515 0.0
H684 H 0.34799 0.21122 0.47939 0.0
H685 H 0.33625 0.22031 0.45037 0.0
H686 H 0.32359 0.2293 0.42941 0.0
H687 H 0.36063 0.25116 0.38645 0.0
H688 H 0.37347 0.24245 0.40813 0.0
H689 H 0.38685 0.22408 0.43884 0.0
H690 H 0.38612 0.20068 0.43446 0.0
H691 H 0.33912 0.17666 0.44019 0.0
N692 N 0.36465 0.22794 0.44501 0.0
H693 H 0.33998 0.20004 0.44322 0.0
C694 C 0.36014 0.12627 0.4598 0.0
C695 C 0.36874 0.12036 0.46464 0.0
C696 C 0.36749 0.11397 0.48465 0.0
C697 C 0.35762 0.11342 0.50027 0.0
C698 C 0.34937 0.11982 0.49574 0.0
C699 C 0.35056 0.12613 0.47565 0.0
C700 C 0.35038 0.11873 0.42411 0.0
C701 C 0.33537 0.11011 0.42874 0.0
C702 C 0.32649 0.09655 0.41787 0.0
C703 C 0.33243 0.09132 0.40224 0.0
C704 C 0.34722 0.10041 0.39665 0.0
C705 C 0.35609 0.11397 0.40754 0.0
C706 C 0.36072 0.14488 0.43673 0.0
C707 C 0.37249 0.1577 0.4463 0.0
C708 C 0.37312 0.1712 0.44639 0.0
C709 C 0.36212 0.17238 0.43639 0.0
C710 C 0.35055 0.15967 0.42613 0.0
C711 C 0.3498 0.14608 0.42634 0.0
C712 C 0.36486 0.23262 0.46729 0.0
C713 C 0.3739 0.2477 0.47284 0.0
C714 C 0.37298 0.25314 0.49329 0.0
C715 C 0.36302 0.24353 0.50875 0.0
C716 C 0.35443 0.22829 0.50351 0.0
C717 C 0.35523 0.2229 0.48299 0.0
C718 C 0.35593 0.23088 0.43091 0.0
C719 C 0.34157 0.22679 0.43623 0.0
C720 C 0.33428 0.23189 0.4241 0.0
C721 C 0.34115 0.24109 0.40635 0.0
C722 C 0.35514 0.24432 0.40026 0.0
C723 C 0.36244 0.23928 0.41248 0.0
C724 C 0.36356 0.21386 0.44153 0.0
C725 C 0.37641 0.21373 0.43891 0.0
C726 C 0.37595 0.20033 0.43661 0.0
C727 C 0.36256 0.1867 0.4372 0.0
C728 C 0.34963 0.18688 0.43936 0.0
C729 C 0.3501 0.20031 0.44129 0.0
H730 H 0.77853 0.10668 0.45926 0.0
N731 N 0.78431 0.13281 0.44169 0.0
H732 H 0.76565 0.09604 0.49279 0.0
H733 H 0.77462 0.14485 0.47065 0.0
H734 H 0.76175 0.13418 0.50481 0.0
H735 H 0.7599 0.12434 0.42015 0.0
H736 H 0.74675 0.1028 0.39574 0.0
H737 H 0.79528 0.1165 0.42379 0.0
H738 H 0.7825 0.09536 0.39879 0.0
H739 H 0.80393 0.12931 0.46508 0.0
H740 H 0.8004 0.15749 0.4196 0.0
H741 H 0.82999 0.14626 0.46708 0.0
H742 H 0.82691 0.17419 0.42028 0.0
H743 H 0.91096 0.20118 0.48462 0.0
H744 H 0.91874 0.21243 0.52085 0.0
H745 H 0.88739 0.22616 0.51924 0.0
H746 H 0.88014 0.21546 0.48296 0.0
H747 H 0.89614 0.22948 0.45163 0.0
H748 H 0.91552 0.24881 0.42984 0.0
H749 H 0.92921 0.21851 0.40997 0.0
H750 H 0.90958 0.19911 0.43161 0.0
H751 H 0.87795 0.17275 0.45688 0.0
H752 H 0.85208 0.1553 0.44984 0.0
H753 H 0.84601 0.19219 0.44161 0.0
N754 N 0.89197 0.20207 0.4588 0.0
H755 H 0.872 0.20937 0.44698 0.0
C756 C 0.77738 0.12656 0.46217 0.0
C757 C 0.77487 0.11279 0.46888 0.0
C758 C 0.76747 0.10667 0.48811 0.0
C759 C 0.76255 0.1142 0.50123 0.0
C760 C 0.76543 0.12815 0.49494 0.0
C761 C 0.77273 0.13423 0.4755 0.0
C762 C 0.77853 0.12209 0.42389 0.0
C763 C 0.76504 0.11827 0.41508 0.0
C764 C 0.75757 0.10596 0.40109 0.0
C765 C 0.7635 0.09724 0.39547 0.0
C766 C 0.7775 0.10169 0.4031 0.0
C767 C 0.78492 0.11393 0.41724 0.0
C768 C 0.80003 0.14227 0.44248 0.0
C769 C 0.80872 0.13911 0.45539 0.0
C770 C 0.8238 0.1488 0.45626 0.0
C771 C 0.8307 0.1617 0.44385 0.0
C772 C 0.82203 0.16456 0.43043 0.0
C773 C 0.80687 0.15498 0.42987 0.0
C774 C 0.89493 0.20732 0.48104 0.0
C775 C 0.90565 0.20645 0.49227 0.0
C776 C 0.91003 0.21284 0.51299 0.0
C777 C 0.90371 0.22024 0.52296 0.0
C778 C 0.89264 0.22073 0.51192 0.0
C779 C 0.88835 0.21443 0.49115 0.0
C780 C 0.90143 0.2128 0.44324 0.0
C781 C 0.90302 0.22683 0.44214 0.0
C782 C 0.91421 0.23794 0.42982 0.0
C783 C 0.924 0.23523 0.41838 0.0
C784 C 0.92179 0.22092 0.41845 0.0
C785 C 0.91062 0.20983 0.4308 0.0
C786 C 0.87689 0.19232 0.45284 0.0
C787 C 0.87102 0.177 0.45323 0.0
C788 C 0.85618 0.16707 0.44944 0.0
C789 C 0.84678 0.17227 0.44557 0.0
C790 C 0.85283 0.18769 0.44438 0.0
C791 C 0.86776 0.19761 0.44773 0.0
H792 H 0.04111 0.58969 0.20681 0.0
N793 N 0.02514 0.56772 0.23353 0.0
H794 H 0.03281 0.59692 0.1755 0.0
H795 H 0.9974 0.5529 0.21705 0.0
H796 H 0.98902 0.55972 0.18528 0.0
H797 H 0.00211 0.56859 0.25104 0.0
H798 H 0.0036 0.58641 0.27826 0.0
H799 H 0.04813 0.58609 0.25789 0.0
H800 H 0.04968 0.60373 0.28587 0.0
H801 H 0.03371 0.55253 0.20964 0.0
H802 H 0.00571 0.54787 0.26338 0.0
H803 H 0.02586 0.52647 0.21182 0.0
H804 H 0.99869 0.5222 0.2668 0.0
H805 H 0.01527 0.45931 0.22194 0.0
H806 H 0.01495 0.44822 0.18677 0.0
H807 H 0.97054 0.43672 0.17685 0.0
H808 H 0.97089 0.44775 0.21248 0.0
H809 H 0.97483 0.43468 0.26019 0.0
H810 H 0.98158 0.42094 0.28357 0.0
H811 H 0.02616 0.45784 0.28416 0.0
H812 H 0.01948 0.47133 0.26072 0.0
H813 H 0.0198 0.48329 0.23018 0.0
H814 H 0.02788 0.50936 0.23074 0.0
H815 H 0.98498 0.49851 0.2519 0.0
N816 N 0.99257 0.46012 0.24111 0.0
H817 H 0.97741 0.47237 0.25309 0.0
C818 C 0.01995 0.57077 0.21413 0.0
C819 C 0.02976 0.58304 0.20201 0.0
C820 C 0.02499 0.58708 0.18407 0.0
C821 C 0.01024 0.57886 0.1778 0.0
C822 C 0.00042 0.56638 0.18979 0.0
C823 C 0.00521 0.56239 0.20785 0.0
C824 C 0.02511 0.57614 0.25226 0.0
C825 C 0.01249 0.57606 0.25877 0.0
C826 C 0.01335 0.5862 0.27451 0.0
C827 C 0.0268 0.59661 0.28412 0.0
C828 C 0.0392 0.59603 0.27853 0.0
C829 C 0.03834 0.5859 0.26271 0.0
C830 C 0.02047 0.55232 0.23629 0.0
C831 C 0.02604 0.54593 0.22214 0.0
C832 C 0.02162 0.53102 0.22359 0.0
C833 C 0.01171 0.52212 0.23967 0.0
C834 C 0.00617 0.52857 0.254 0.0
C835 C 0.01035 0.54344 0.25219 0.0
C836 C 0.99303 0.45436 0.21988 0.0
C837 C 0.00549 0.45456 0.2122 0.0
C838 C 0.00532 0.44824 0.19199 0.0
C839 C 0.99272 0.44159 0.17902 0.0
C840 C 0.98036 0.44162 0.18658 0.0
C841 C 0.98055 0.44797 0.20681 0.0
C842 C 0.99654 0.45399 0.25844 0.0
C843 C 0.98598 0.43995 0.26587 0.0
C844 C 0.98986 0.43213 0.27925 0.0
C845 C 0.00445 0.43825 0.2855 0.0
C846 C 0.01487 0.45274 0.27931 0.0
C847 C 0.01098 0.46054 0.2659 0.0
C848 C 0.99801 0.47581 0.24208 0.0
C849 C 0.01221 0.48647 0.23551 0.0
C850 C 0.01676 0.50148 0.23545 0.0
C851 C 0.00709 0.50619 0.24119 0.0
C852 C 0.99288 0.49545 0.24776 0.0
C853 C 0.98846 0.48047 0.24833 0.0
H854 H 0.58093 0.54822 0.24091 0.0
N855 N 0.55452 0.54161 0.25319 0.0
H856 H 0.59328 0.55904 0.20665 0.0
H857 H 0.54216 0.54578 0.21749 0.0
H858 H 0.55434 0.55645 0.18347 0.0
H859 H 0.54707 0.5626 0.24985 0.0
H860 H 0.55715 0.58552 0.27133 0.0
H861 H 0.57036 0.54859 0.2889 0.0
H862 H 0.58107 0.57183 0.30997 0.0
H863 H 0.54918 0.51476 0.26098 0.0
H864 H 0.52764 0.53854 0.24878 0.0
H865 H 0.52563 0.49142 0.26098 0.0
H866 H 0.50424 0.51534 0.24727 0.0
H867 H 0.45423 0.42528 0.21053 0.0
H868 H 0.44321 0.42043 0.17441 0.0
H869 H 0.44016 0.45939 0.18187 0.0
H870 H 0.45163 0.46444 0.21768 0.0
H871 H 0.43866 0.45447 0.24978 0.0
H872 H 0.41659 0.43988 0.27084 0.0
H873 H 0.42936 0.40834 0.28352 0.0
H874 H 0.45167 0.42315 0.26235 0.0
H875 H 0.48496 0.45197 0.23053 0.0
H876 H 0.50816 0.47517 0.23601 0.0
H877 H 0.48546 0.49499 0.26534 0.0
N878 N 0.45851 0.44651 0.23879 0.0
H879 H 0.46234 0.47203 0.25864 0.0
C880 C 0.56061 0.54605 0.23182 0.0
C881 C 0.575 0.54974 0.22824 0.0
C882 C 0.58205 0.556 0.20878 0.0
C883 C 0.57476 0.5586 0.19243 0.0
C884 C 0.56016 0.55441 0.19569 0.0
C885 C 0.55317 0.54828 0.21523 0.0
C886 C 0.5579 0.55378 0.26791 0.0
C887 C 0.55401 0.56423 0.26345 0.0
C888 C 0.55997 0.57748 0.27559 0.0
C889 C 0.57008 0.58064 0.29223 0.0
C890 C 0.57321 0.56974 0.29747 0.0
C891 C 0.56714 0.55645 0.28543 0.0
C892 C 0.54027 0.52836 0.2546 0.0
C893 C 0.53935 0.51492 0.25828 0.0
C894 C 0.52588 0.50159 0.25805 0.0
C895 C 0.51297 0.50139 0.25376 0.0
C896 C 0.51387 0.51499 0.25081 0.0
C897 C 0.52736 0.52835 0.25142 0.0
C898 C 0.45357 0.44506 0.21682 0.0
C899 C 0.45143 0.4329 0.20415 0.0
C900 C 0.44518 0.43018 0.1836 0.0
C901 C 0.44078 0.43951 0.17549 0.0
C902 C 0.44336 0.45199 0.18789 0.0
C903 C 0.44986 0.45485 0.20833 0.0
C904 C 0.44697 0.43997 0.2546 0.0
C905 C 0.43707 0.44474 0.25764 0.0
C906 C 0.42437 0.43634 0.2697 0.0
C907 C 0.42121 0.42293 0.2787 0.0
C908 C 0.43147 0.41859 0.27661 0.0
C909 C 0.44425 0.42707 0.26471 0.0
C910 C 0.4719 0.46012 0.24427 0.0
C911 C 0.48505 0.46131 0.23831 0.0
C912 C 0.49832 0.47459 0.24162 0.0
C913 C 0.49878 0.48703 0.25126 0.0
C914 C 0.48556 0.48574 0.25761 0.0
C915 C 0.47224 0.47247 0.25397 0.0
H916 H 0.53165 0.95555 0.19558 0.0
N917 N 0.52787 0.97372 0.22136 0.0
H918 H 0.54732 0.96197 0.16356 0.0
H919 H 0.54272 0.00094 0.20252 0.0
H920 H 0.55828 0.00739 0.17028 0.0
H921 H 0.55253 0.99808 0.23782 0.0
H922 H 0.57 0.99766 0.26209 0.0
H923 H 0.52347 0.95096 0.24457 0.0
H924 H 0.54079 0.95046 0.26934 0.0
H925 H 0.5057 0.96775 0.19588 0.0
H926 H 0.52799 0.99238 0.25415 0.0
H927 H 0.48913 0.97678 0.19924 0.0
H928 H 0.51094 0.00063 0.2583 0.0
H929 H 0.43362 0.98736 0.21742 0.0
H930 H 0.42197 0.98854 0.18479 0.0
H931 H 0.45715 0.03382 0.17606 0.0
H932 H 0.46872 0.03263 0.20929 0.0
H933 H 0.45251 0.0277 0.2589 0.0
H934 H 0.4321 0.02024 0.28378 0.0
H935 H 0.42171 0.97493 0.27893 0.0
H936 H 0.44183 0.98233 0.25399 0.0
H937 H 0.4527 0.98282 0.2207 0.0
H938 H 0.46946 0.97411 0.2187 0.0
H939 H 0.50377 0.01634 0.24499 0.0
N940 N 0.45867 0.01008 0.23617 0.0
H941 H 0.48643 0.02461 0.24831 0.0
C942 C 0.53594 0.97768 0.20131 0.0
C943 C 0.5373 0.96684 0.18996 0.0
C944 C 0.54631 0.97054 0.17184 0.0
C945 C 0.55405 0.98519 0.16459 0.0
C946 C 0.55236 0.99601 0.17552 0.0
C947 C 0.54348 0.99233 0.19388 0.0
C948 C 0.53669 0.97448 0.23933 0.0
C949 C 0.54972 0.98771 0.24504 0.0
C950 C 0.55968 0.98746 0.25902 0.0
C951 C 0.55683 0.97399 0.26744 0.0
C952 C 0.54336 0.96097 0.26287 0.0
C953 C 0.5334 0.96125 0.24892 0.0
C954 C 0.51829 0.9794 0.22446 0.0
C955 C 0.50699 0.97504 0.20946 0.0
C956 C 0.4974 0.9801 0.21157 0.0
C957 C 0.49858 0.98941 0.22914 0.0
C958 C 0.50981 0.9937 0.24434 0.0
C959 C 0.51961 0.98884 0.242 0.0
C960 C 0.45212 0.00998 0.21587 0.0
C961 C 0.43899 0.9975 0.20844 0.0
C962 C 0.43232 0.99817 0.18964 0.0
C963 C 0.43862 0.01128 0.1778 0.0
C964 C 0.45194 0.02362 0.18495 0.0
C965 C 0.45861 0.02294 0.2038 0.0
C966 C 0.44877 0.00569 0.25433 0.0
C967 C 0.44609 0.01624 0.26373 0.0
C968 C 0.43443 0.01195 0.27796 0.0
C969 C 0.42518 0.99695 0.28311 0.0
C970 C 0.42851 0.98654 0.27499 0.0
C971 C 0.44016 0.99083 0.26073 0.0
C972 C 0.46826 0.00439 0.23497 0.0
C973 C 0.46373 0.99018 0.22636 0.0
C974 C 0.47347 0.98525 0.22494 0.0
C975 C 0.48808 0.99452 0.23154 0.0
C976 C 0.49257 0.00876 0.24008 0.0
C977 C 0.48272 0.01357 0.24187 0.0
H978 H 0.40852 0.9566 0.80146 0.0
N979 N 0.43461 0.97339 0.78379 0.0
H980 H 0.40053 0.95939 0.83756 0.0
H981 H 0.4521 0.99276 0.81612 0.0
H982 H 0.4444 0.99524 0.85236 0.0
H983 H 0.44402 0.003 0.78597 0.0
H984 H 0.43453 0.0152 0.76483 0.0
H985 H 0.41783 0.96246 0.74883 0.0
H986 H 0.40852 0.97474 0.72706 0.0
H987 H 0.43661 0.94954 0.78062 0.0
H988 H 0.46256 0.99729 0.7793 0.0
H989 H 0.45869 0.94848 0.77724 0.0
H990 H 0.48471 0.99641 0.77675 0.0
H991 H 0.53126 0.94971 0.79234 0.0
H992 H 0.54316 0.95131 0.82677 0.0
H993 H 0.54475 0.99205 0.84326 0.0
H994 H 0.53268 0.99025 0.80898 0.0
H995 H 0.54407 0.99943 0.77525 0.0
H996 H 0.56622 0.01243 0.75364 0.0
H997 H 0.55596 0.97071 0.72346 0.0
H998 H 0.53356 0.95788 0.74475 0.0
H999 H 0.5008 0.95243 0.79835 0.0
H1000 H 0.47891 0.95372 0.79912 0.0
H1001 H 0.49866 0.98954 0.75393 0.0
N1002 N 0.52548 0.96925 0.77676 0.0
H1003 H 0.5206 0.98857 0.75355 0.0
C1004 C 0.43087 0.97433 0.80604 0.0
C1005 C 0.41642 0.96491 0.81265 0.0
C1006 C 0.41191 0.9665 0.83331 0.0
C1007 C 0.42182 0.97758 0.84787 0.0
C1008 C 0.43643 0.98674 0.84145 0.0
C1009 C 0.4409 0.98521 0.82072 0.0
C1010 C 0.43151 0.98172 0.76905 0.0
C1011 C 0.43655 0.99682 0.77285 0.0
C1012 C 0.43113 0.00383 0.76066 0.0
C1013 C 0.42062 0.99589 0.74442 0.0
C1014 C 0.4164 0.98109 0.73971 0.0
C1015 C 0.42179 0.97409 0.75197 0.0
C1016 C 0.44788 0.97341 0.78028 0.0
C1017 C 0.44709 0.95979 0.77953 0.0
C1018 C 0.45973 0.95923 0.7778 0.0
C1019 C 0.47352 0.97238 0.77697 0.0
C1020 C 0.47428 0.98607 0.77716 0.0
C1021 C 0.46158 0.98659 0.77874 0.0
C1022 C 0.53118 0.96985 0.79805 0.0
C1023 C 0.534 0.95885 0.80356 0.0
C1024 C 0.54076 0.95978 0.82319 0.0
C1025 C 0.54495 0.97185 0.8376 0.0
C1026 C 0.5418 0.98272 0.83231 0.0
C1027 C 0.5349 0.9817 0.81277 0.0
C1028 C 0.53711 0.97762 0.76155 0.0
C1029 C 0.54641 0.99312 0.76366 0.0
C1030 C 0.55914 0.00054 0.75135 0.0
C1031 C 0.56298 0.99261 0.73697 0.0
C1032 C 0.55328 0.97722 0.73414 0.0
C1033 C 0.54048 0.96984 0.74632 0.0
C1034 C 0.51276 0.97065 0.77659 0.0
C1035 C 0.50053 0.96071 0.78879 0.0
C1036 C 0.48792 0.96134 0.78901 0.0
C1037 C 0.48702 0.97177 0.77662 0.0
C1038 C 0.49909 0.98157 0.76402 0.0
C1039 C 0.51179 0.981 0.76389 0.0
H1040 H 0.9841 0.53902 0.81759 0.0
N1041 N 0.00522 0.55026 0.78619 0.0
H1042 H 0.98521 0.55057 0.85276 0.0
H1043 H 0.02803 0.57424 0.80387 0.0
H1044 H 0.02944 0.5857 0.83948 0.0
H1045 H 0.01948 0.5655 0.75147 0.0
H1046 H 0.01254 0.57884 0.72726 0.0
H1047 H 0.9792 0.5493 0.78652 0.0
H1048 H 0.97221 0.56232 0.76242 0.0
H1049 H 0.97721 0.52674 0.77791 0.0
H1050 H 0.02126 0.53823 0.79071 0.0
H1051 H 0.9691 0.50063 0.77738 0.0
H1052 H 0.01305 0.51188 0.79105 0.0
H1053 H 0.95292 0.42076 0.82075 0.0
H1054 H 0.95944 0.41282 0.85324 0.0
H1055 H 0.00375 0.44995 0.84817 0.0
H1056 H 0.99722 0.45752 0.8154 0.0
H1057 H 0.99423 0.44041 0.78345 0.0
H1058 H 0.99361 0.42134 0.75961 0.0
H1059 H 0.94902 0.40574 0.74268 0.0
H1060 H 0.94953 0.42473 0.76713 0.0
H1061 H 0.9569 0.45623 0.80655 0.0
H1062 H 0.96513 0.48238 0.80274 0.0
H1063 H 0.00388 0.48945 0.76982 0.0
N1064 N 0.97065 0.44252 0.79481 0.0
H1065 H 0.9958 0.46344 0.77445 0.0
C1066 C 0.00603 0.55583 0.80803 0.0
C1067 C 0.99409 0.54912 0.82228 0.0
C1068 C 0.99477 0.55571 0.84249 0.0
C1069 C 0.0074 0.56911 0.84892 0.0
C1070 C 0.01947 0.57551 0.83491 0.0
C1071 C 0.01875 0.56894 0.81466 0.0
C1072 C 0.99989 0.55629 0.77068 0.0
C1073 C 0.00903 0.56456 0.75364 0.0
C1074 C 0.0051 0.5722 0.73995 0.0
C1075 C 0.99182 0.57157 0.74297 0.0
C1076 C 0.98241 0.56283 0.75953 0.0
C1077 C 0.98643 0.55537 0.77336 0.0
C1078 C -1e-05 0.53461 0.78423 0.0
C1079 C 0.98523 0.52376 0.78047 0.0
C1080 C 0.98052 0.50869 0.78037 0.0
C1081 C 0.99039 0.5041 0.78429 0.0
C1082 C 0.00517 0.51498 0.78766 0.0
C1083 C 0.00988 0.53005 0.78758 0.0
C1084 C 0.97449 0.43971 0.81567 0.0
C1085 C 0.96396 0.42733 0.82695 0.0
C1086 C 0.96771 0.42285 0.84553 0.0
C1087 C 0.98214 0.43072 0.85327 0.0
C1088 C 0.99258 0.44353 0.84247 0.0
C1089 C 0.98882 0.44797 0.82382 0.0
C1090 C 0.97179 0.43388 0.7773 0.0
C1091 C 0.9844 0.43316 0.77431 0.0
C1092 C 0.98406 0.42224 0.76069 0.0
C1093 C 0.97123 0.41204 0.74954 0.0
C1094 C 0.95905 0.41354 0.75108 0.0
C1095 C 0.95933 0.42435 0.76498 0.0
C1096 C 0.9756 0.45781 0.79071 0.0
C1097 C 0.96711 0.46343 0.79836 0.0
C1098 C 0.97181 0.47836 0.79603 0.0
C1099 C 0.98516 0.48805 0.78587 0.0
C1100 C 0.99362 0.48235 0.77793 0.0
C1101 C 0.98893 0.46739 0.78039 0.0
H1102 H 0.44197 0.43797 0.79472 0.0
N1103 N 0.44912 0.46514 0.77916 0.0
H1104 H 0.43098 0.42778 0.82925 0.0
H1105 H 0.44214 0.47799 0.81077 0.0
H1106 H 0.43196 0.46818 0.84644 0.0
H1107 H 0.42433 0.45601 0.75824 0.0
H1108 H 0.41186 0.43502 0.73269 0.0
H1109 H 0.4608 0.44978 0.76023 0.0
H1110 H 0.44871 0.42925 0.7341 0.0
H1111 H 0.46929 0.46241 0.80222 0.0
H1112 H 0.46453 0.48971 0.75655 0.0
H1113 H 0.49529 0.47989 0.80375 0.0
H1114 H 0.49095 0.50685 0.75658 0.0
H1115 H 0.57792 0.53795 0.815 0.0
H1116 H 0.58721 0.55098 0.84996 0.0
H1117 H 0.55464 0.56306 0.85018 0.0
H1118 H 0.54546 0.55014 0.81554 0.0
H1119 H 0.56161 0.564 0.78343 0.0
H1120 H 0.57902 0.58171 0.75787 0.0
H1121 H 0.588 0.54861 0.73351 0.0
H1122 H 0.57099 0.53116 0.76005 0.0
H1123 H 0.54318 0.50715 0.79188 0.0
H1124 H 0.51724 0.48921 0.78648 0.0
H1125 H 0.51016 0.52532 0.7767 0.0
N1126 N 0.5569 0.53643 0.79105 0.0
H1127 H 0.53625 0.54293 0.78028 0.0
C1128 C 0.44267 0.45875 0.79983 0.0
C1129 C 0.43964 0.44462 0.80562 0.0
C1130 C 0.43353 0.43885 0.82569 0.0
C1131 C 0.43061 0.44715 0.8408 0.0
C1132 C 0.43382 0.46135 0.83511 0.0
C1133 C 0.43972 0.46703 0.8148 0.0
C1134 C 0.44346 0.45454 0.76121 0.0
C1135 C 0.42983 0.45041 0.75263 0.0
C1136 C 0.42275 0.43843 0.73797 0.0
C1137 C 0.42924 0.43037 0.73146 0.0
C1138 C 0.44331 0.43508 0.73905 0.0
C1139 C 0.45033 0.44698 0.75385 0.0
C1140 C 0.46481 0.47492 0.77959 0.0
C1141 C 0.47382 0.47214 0.79238 0.0
C1142 C 0.48885 0.48212 0.79297 0.0
C1143 C 0.49538 0.49491 0.78031 0.0
C1144 C 0.48637 0.49736 0.76696 0.0
C1145 C 0.47126 0.48752 0.76676 0.0
C1146 C 0.56095 0.54289 0.81262 0.0
C1147 C 0.57267 0.54323 0.82279 0.0
C1148 C 0.57801 0.55075 0.84263 0.0
C1149 C 0.57166 0.55807 0.85274 0.0
C1150 C 0.55964 0.55738 0.84288 0.0
C1151 C 0.55437 0.54995 0.82296 0.0
C1152 C 0.56521 0.54631 0.77387 0.0
C1153 C 0.56717 0.56048 0.77245 0.0
C1154 C 0.57709 0.57059 0.75765 0.0
C1155 C 0.58508 0.56667 0.74378 0.0
C1156 C 0.5823 0.55212 0.74428 0.0
C1157 C 0.5725 0.54209 0.75926 0.0
C1158 C 0.5416 0.52633 0.78693 0.0
C1159 C 0.53598 0.5111 0.78837 0.0
C1160 C 0.52111 0.5009 0.78548 0.0
C1161 C 0.51142 0.50574 0.78153 0.0
C1162 C 0.5172 0.52107 0.77953 0.0
C1163 C 0.53216 0.53124 0.7819 0.0
H1164 H 0.67839 0.90681 0.55797 0.0
N1165 N 0.6557 0.88238 0.57724 0.0
H1166 H 0.67778 0.91715 0.52374 0.0
H1167 H 0.63363 0.8714 0.54916 0.0
H1168 H 0.63306 0.88155 0.51415 0.0
H1169 H 0.64031 0.89161 0.59865 0.0
H1170 H 0.64951 0.91332 0.62283 0.0
H1171 H 0.68343 0.89855 0.59422 0.0
H1172 H 0.69266 0.92001 0.61887 0.0
H1173 H 0.67899 0.88375 0.5558 0.0
H1174 H 0.64365 0.85764 0.59974 0.0
H1175 H 0.68544 0.86505 0.55509 0.0
H1176 H 0.65072 0.83914 0.60037 0.0
H1177 H 0.7037 0.8072 0.5405 0.0
H1178 H 0.70016 0.79472 0.50519 0.0
H1179 H 0.65392 0.77758 0.50936 0.0
H1180 H 0.65751 0.78965 0.54477 0.0
H1181 H 0.65863 0.78058 0.57982 0.0
H1182 H 0.6574 0.76271 0.60527 0.0
H1183 H 0.70373 0.79098 0.61684 0.0
H1184 H 0.70473 0.80896 0.59175 0.0
H1185 H 0.70165 0.83492 0.56838 0.0
H1186 H 0.69578 0.85416 0.5737 0.0
H1187 H 0.65013 0.82016 0.57945 0.0
N1188 N 0.68345 0.80584 0.56685 0.0
H1189 H 0.65633 0.80119 0.57584 0.0
C1190 C 0.65596 0.8883 0.5563 0.0
C1191 C 0.66843 0.90116 0.54862 0.0
C1192 C 0.66811 0.90702 0.52884 0.0
C1193 C 0.65538 0.90016 0.51615 0.0
C1194 C 0.64299 0.88718 0.52365 0.0
C1195 C 0.64331 0.88132 0.54353 0.0
C1196 C 0.66109 0.89342 0.59457 0.0
C1197 C 0.65167 0.89756 0.60345 0.0
C1198 C 0.65697 0.90995 0.61733 0.0
C1199 C 0.67187 0.91848 0.6227 0.0
C1200 C 0.68117 0.9138 0.61483 0.0
C1201 C 0.67586 0.90141 0.60086 0.0
C1202 C 0.66054 0.87197 0.57752 0.0
C1203 C 0.67262 0.87404 0.56545 0.0
C1204 C 0.67648 0.86334 0.56532 0.0
C1205 C 0.66861 0.85047 0.57763 0.0
C1206 C 0.65686 0.84871 0.5903 0.0
C1207 C 0.65286 0.85932 0.59012 0.0
C1208 C 0.68097 0.79948 0.54527 0.0
C1209 C 0.69285 0.80089 0.53361 0.0
C1210 C 0.69079 0.7938 0.51342 0.0
C1211 C 0.67674 0.78514 0.50442 0.0
C1212 C 0.66486 0.78402 0.51593 0.0
C1213 C 0.66693 0.79106 0.53619 0.0
C1214 C 0.68183 0.79615 0.58396 0.0
C1215 C 0.66844 0.78313 0.58823 0.0
C1216 C 0.66778 0.77284 0.60266 0.0
C1217 C 0.68049 0.77536 0.61298 0.0
C1218 C 0.6937 0.78875 0.60941 0.0
C1219 C 0.69433 0.79902 0.59504 0.0
C1220 C 0.67947 0.81667 0.57128 0.0
C1221 C 0.69041 0.8317 0.57104 0.0
C1222 C 0.68699 0.84266 0.57387 0.0
C1223 C 0.67242 0.83879 0.57663 0.0
C1224 C 0.66148 0.82364 0.57753 0.0
C1225 C 0.66499 0.81269 0.57511 0.0
H1226 H 0.24997 0.87575 0.5722 0.0
N1227 N 0.22488 0.87098 0.58809 0.0
H1228 H 0.26173 0.88775 0.53824 0.0
H1229 H 0.21271 0.87861 0.556 0.0
H1230 H 0.22417 0.89022 0.52209 0.0
H1231 H 0.21937 0.89352 0.5897 0.0
H1232 H 0.23171 0.91564 0.61299 0.0
H1233 H 0.24101 0.87494 0.62261 0.0
H1234 H 0.25331 0.89707 0.64636 0.0
H1235 H 0.21821 0.84331 0.59217 0.0
H1236 H 0.19871 0.86974 0.58725 0.0
H1237 H 0.19406 0.82074 0.59143 0.0
H1238 H 0.17466 0.84736 0.5848 0.0
H1239 H 0.12033 0.75772 0.54261 0.0
H1240 H 0.10938 0.75383 0.50663 0.0
H1241 H 0.10986 0.79472 0.5148 0.0
H1242 H 0.12123 0.79876 0.55054 0.0
H1243 H 0.1078 0.78896 0.58252 0.0
H1244 H 0.08562 0.77541 0.60378 0.0
H1245 H 0.0956 0.74167 0.61564 0.0
H1246 H 0.11802 0.75544 0.59431 0.0
H1247 H 0.15212 0.78397 0.56037 0.0
H1248 H 0.17593 0.8063 0.5664 0.0
H1249 H 0.15544 0.82661 0.6012 0.0
N1250 N 0.12628 0.77933 0.57116 0.0
H1251 H 0.13168 0.80462 0.5939 0.0
C1252 C 0.23047 0.87621 0.56672 0.0
C1253 C 0.24421 0.87867 0.56111 0.0
C1254 C 0.25088 0.8855 0.54172 0.0
C1255 C 0.24391 0.89003 0.52756 0.0
C1256 C 0.22991 0.88706 0.53283 0.0
C1257 C 0.22326 0.88027 0.55222 0.0
C1258 C 0.22932 0.88254 0.60439 0.0
C1259 C 0.22638 0.89393 0.60242 0.0
C1260 C 0.23346 0.90663 0.61581 0.0
C1261 C 0.24362 0.90818 0.63135 0.0
C1262 C 0.2457 0.89629 0.63431 0.0
C1263 C 0.23861 0.88361 0.62092 0.0
C1264 C 0.21034 0.85817 0.58939 0.0
C1265 C 0.20869 0.84421 0.59088 0.0
C1266 C 0.19486 0.83133 0.59021 0.0
C1267 C 0.18232 0.83212 0.5876 0.0
C1268 C 0.18398 0.84623 0.58695 0.0
C1269 C 0.19784 0.85913 0.58807 0.0
C1270 C 0.12142 0.77838 0.54926 0.0
C1271 C 0.11832 0.76596 0.53642 0.0
C1272 C 0.11211 0.76379 0.51593 0.0
C1273 C 0.10873 0.77396 0.50805 0.0
C1274 C 0.11227 0.78668 0.52063 0.0
C1275 C 0.11871 0.78896 0.54102 0.0
C1276 C 0.11472 0.77327 0.58695 0.0
C1277 C 0.10555 0.77893 0.59022 0.0
C1278 C 0.09281 0.77114 0.60239 0.0
C1279 C 0.08885 0.75745 0.61126 0.0
C1280 C 0.09835 0.75216 0.60886 0.0
C1281 C 0.11118 0.76004 0.59686 0.0
C1282 C 0.14008 0.79246 0.57672 0.0
C1283 C 0.15281 0.79324 0.56941 0.0
C1284 C 0.16644 0.80601 0.57307 0.0
C1285 C 0.16772 0.81833 0.58448 0.0
C1286 C 0.15492 0.81746 0.59211 0.0
C1287 C 0.14123 0.80473 0.58809 0.0
H1288 H 0.20275 0.30202 0.5348 0.0
N1289 N 0.20312 0.32206 0.56197 0.0
H1290 H 0.21566 0.30635 0.50032 0.0
H1291 H 0.21978 0.34889 0.54271 0.0
H1292 H 0.23267 0.35336 0.50809 0.0
H1293 H 0.2282 0.34643 0.57752 0.0
H1294 H 0.24555 0.3462 0.6023 0.0
H1295 H 0.19914 0.29937 0.58482 0.0
H1296 H 0.21658 0.2989 0.60922 0.0
H1297 H 0.18082 0.31664 0.53719 0.0
H1298 H 0.20434 0.34133 0.59475 0.0
H1299 H 0.16502 0.32653 0.54094 0.0
H1300 H 0.18804 0.35051 0.59925 0.0
H1301 H 0.11019 0.33797 0.56348 0.0
H1302 H 0.0974 0.33761 0.53117 0.0
H1303 H 0.13272 0.38184 0.51657 0.0
H1304 H 0.14547 0.38222 0.54948 0.0
H1305 H 0.12839 0.37828 0.5992 0.0
H1306 H 0.1079 0.37036 0.62403 0.0
H1307 H 0.10206 0.32681 0.62567 0.0
H1308 H 0.12214 0.33455 0.6007 0.0
H1309 H 0.12954 0.33353 0.5641 0.0
H1310 H 0.1459 0.32436 0.56146 0.0
H1311 H 0.18123 0.36667 0.5858 0.0
N1312 N 0.13626 0.36117 0.5789 0.0
H1313 H 0.16433 0.3755 0.58963 0.0
C1314 C 0.21031 0.32507 0.54124 0.0
C1315 C 0.20918 0.31322 0.52893 0.0
C1316 C 0.2165 0.31573 0.50923 0.0
C1317 C 0.22514 0.3302 0.50146 0.0
C1318 C 0.22619 0.34211 0.51376 0.0
C1319 C 0.21882 0.33957 0.53348 0.0
C1320 C 0.21233 0.32286 0.57936 0.0
C1321 C 0.22545 0.33608 0.58473 0.0
C1322 C 0.23541 0.33591 0.5988 0.0
C1323 C 0.23254 0.3225 0.60757 0.0
C1324 C 0.21908 0.30945 0.60299 0.0
C1325 C 0.2091 0.30967 0.58903 0.0
C1326 C 0.19402 0.32829 0.56531 0.0
C1327 C 0.18258 0.32416 0.55068 0.0
C1328 C 0.17341 0.32971 0.55301 0.0
C1329 C 0.17515 0.33929 0.5705 0.0
C1330 C 0.18651 0.34337 0.58536 0.0
C1331 C 0.19589 0.33799 0.58279 0.0
C1332 C 0.12889 0.36019 0.55896 0.0
C1333 C 0.11533 0.34755 0.55329 0.0
C1334 C 0.10801 0.34733 0.53469 0.0
C1335 C 0.11404 0.35969 0.52128 0.0
C1336 C 0.12772 0.3722 0.52671 0.0
C1337 C 0.13506 0.37241 0.54537 0.0
C1338 C 0.12682 0.35711 0.59764 0.0
C1339 C 0.12297 0.36717 0.60545 0.0
C1340 C 0.11126 0.36262 0.61967 0.0
C1341 C 0.1032 0.34786 0.6265 0.0
C1342 C 0.10789 0.33816 0.62031 0.0
C1343 C 0.11953 0.34268 0.60598 0.0
C1344 C 0.14568 0.35527 0.57726 0.0
C1345 C 0.14074 0.34086 0.56904 0.0
C1346 C 0.15022 0.33564 0.56733 0.0
C1347 C 0.16498 0.34479 0.57323 0.0
C1348 C 0.16991 0.35921 0.58139 0.0
C1349 C 0.16031 0.36433 0.58346 0.0
C1350 C 0.99939 0.39513 0.08128 0.0
C1351 C 0.9945 0.39704 0.0614 0.0
C1352 C 0.99865 0.4023 0.10025 0.0
C1353 C 0.99287 0.41159 0.09932 0.0
C1354 C 0.98775 0.41343 0.07938 0.0
C1355 C 0.98863 0.40612 0.06064 0.0
C1356 C 0.00421 0.40007 0.12125 0.0
C1357 C 0.9815 0.42323 0.07779 0.0
C1358 C 0.98031 0.42032 0.1523 0.0
C1359 C 0.9924 0.43428 0.158 0.0
C1360 C 0.98021 0.41291 0.13305 0.0
C1361 C 0.99248 0.41962 0.11919 0.0
C1362 C 0.00459 0.43383 0.12464 0.0
C1363 C 0.0044 0.44098 0.14398 0.0
C1364 C 0.9671 0.39776 0.12778 0.0
C1365 C 0.01785 0.44136 0.11021 0.0
H1366 H 0.00393 0.38812 0.08203 0.0
H1367 H 0.98481 0.40764 0.04536 0.0
H1368 H 0.01334 0.41086 0.12754 0.0
H1369 H 0.99546 0.39575 0.13364 0.0
H1370 H 0.00809 0.39223 0.11932 0.0
H1371 H 0.97768 0.42322 0.06116 0.0
H1372 H 0.97221 0.41949 0.08913 0.0
H1373 H 0.98987 0.4348 0.08261 0.0
H1374 H 0.97108 0.415 0.1632 0.0
H1375 H 0.01368 0.45186 0.14816 0.0
H1376 H 0.97033 0.38938 0.12741 0.0
H1377 H 0.96284 0.39764 0.11148 0.0
H1378 H 0.95819 0.39437 0.13977 0.0
H1379 H 0.0229 0.43455 0.10882 0.0
H1380 H 0.02617 0.45261 0.11646 0.0
H1381 H 0.01463 0.44237 0.09366 0.0
C1382 C 0.61982 0.59946 0.08518 0.0
C1383 C 0.61631 0.60997 0.0795 0.0
C1384 C 0.61347 0.59057 0.10333 0.0
C1385 C 0.6035 0.59236 0.11621 0.0
C1386 C 0.60004 0.60305 0.11069 0.0
C1387 C 0.60643 0.61168 0.09236 0.0
C1388 C 0.61734 0.5792 0.10863 0.0
C1389 C 0.58957 0.60538 0.12416 0.0
C1390 C 0.57607 0.56157 0.15221 0.0
C1391 C 0.5826 0.56656 0.17264 0.0
C1392 C 0.58297 0.56962 0.13357 0.0
C1393 C 0.59664 0.58306 0.1355 0.0
C1394 C 0.60342 0.58799 0.15604 0.0
C1395 C 0.59634 0.57964 0.17436 0.0
C1396 C 0.57548 0.56392 0.1119 0.0
C1397 C 0.61792 0.60234 0.15878 0.0
H1398 H 0.62741 0.59804 0.07528 0.0
H1399 H 0.6037 0.6198 0.08813 0.0
H1400 H 0.62207 0.58142 0.12514 0.0
H1401 H 0.60734 0.56796 0.10856 0.0
H1402 H 0.62525 0.57917 0.09696 0.0
H1403 H 0.58821 0.61433 0.11788 0.0
H1404 H 0.57872 0.59496 0.12446 0.0
H1405 H 0.5935 0.60828 0.14114 0.0
H1406 H 0.56551 0.55139 0.15083 0.0
H1407 H 0.60133 0.58364 0.19018 0.0
H1408 H 0.58292 0.56315 0.10009 0.0
H1409 H 0.5727 0.57181 0.10543 0.0
H1410 H 0.56533 0.55284 0.11298 0.0
H1411 H 0.62615 0.60233 0.14781 0.0
H1412 H 0.62205 0.60424 0.17568 0.0
H1413 H 0.61683 0.61179 0.15427 0.0
C1414 C 0.40067 0.01648 0.06971 0.0
C1415 C 0.38579 0.0105 0.07389 0.0
C1416 C 0.41017 0.01765 0.08608 0.0
C1417 C 0.40464 0.01266 0.10708 0.0
C1418 C 0.38971 0.00694 0.11152 0.0
C1419 C 0.38047 0.00596 0.09489 0.0
C1420 C 0.42604 0.0239 0.08077 0.0
C1421 C 0.38341 0.00149 0.13372 0.0
C1422 C 0.4239 0.00015 0.14389 0.0
C1423 C 0.43093 0.01217 0.15865 0.0
C1424 C 0.41557 0.00031 0.12676 0.0
C1425 C 0.4143 0.01284 0.12423 0.0
C1426 C 0.42174 0.02521 0.13863 0.0
C1427 C 0.42994 0.02472 0.1557 0.0
C1428 C 0.40783 0.98692 0.11169 0.0
C1429 C 0.42067 0.03878 0.1364 0.0
H1430 H 0.40488 0.02006 0.05355 0.0
H1431 H 0.369 0.00135 0.09828 0.0
H1432 H 0.43306 0.03317 0.09221 0.0
H1433 H 0.42876 0.01523 0.08269 0.0
H1434 H 0.42877 0.02801 0.06398 0.0
H1435 H 0.37169 0.99787 0.13474 0.0
H1436 H 0.38454 0.99201 0.13784 0.0
H1437 H 0.38951 0.01038 0.14613 0.0
H1438 H 0.4248 0.99052 0.14587 0.0
H1439 H 0.4352 0.03398 0.16717 0.0
H1440 H 0.41093 0.99026 0.09466 0.0
H1441 H 0.39587 0.98192 0.11297 0.0
H1442 H 0.41038 0.9783 0.11537 0.0
H1443 H 0.42361 0.043 0.11971 0.0
H1444 H 0.42789 0.04784 0.14801 0.0
H1445 H 0.40927 0.03581 0.13926 0.0
C1446 C 0.40101 0.99167 0.96787 0.0
C1447 C 0.38905 0.99353 0.96685 0.0
C1448 C 0.40662 0.98874 0.94906 0.0
C1449 C 0.40003 0.9875 0.9288 0.0
C1450 C 0.38782 0.98912 0.92771 0.0
C1451 C 0.38251 0.99218 0.94673 0.0
C1452 C 0.41974 0.98721 0.95081 0.0
C1453 C 0.38042 0.98773 0.90641 0.0
C1454 C 0.42188 0.99452 0.87709 0.0
C1455 C 0.41677 0.98004 0.86921 0.0
C1456 C 0.41675 0.99709 0.89668 0.0
C1457 C 0.40612 0.98488 0.90862 0.0
C1458 C 0.40102 0.97024 0.90094 0.0
C1459 C 0.40645 0.96799 0.88137 0.0
C1460 C 0.4225 0.01287 0.90439 0.0
C1461 C 0.38965 0.95696 0.91321 0.0
H1462 H 0.40613 0.99273 0.98335 0.0
H1463 H 0.37322 0.99351 0.94583 0.0
H1464 H 0.41719 0.97632 0.94388 0.0
H1465 H 0.4289 0.99592 0.94128 0.0
H1466 H 0.4234 0.98816 0.96783 0.0
H1467 H 0.37075 0.98882 0.90843 0.0
H1468 H 0.38821 0.99643 0.89532 0.0
H1469 H 0.37689 0.97683 0.89847 0.0
H1470 H 0.42966 0.0039 0.86765 0.0
H1471 H 0.40258 0.95678 0.87557 0.0
H1472 H 0.42685 0.01458 0.9211 0.0
H1473 H 0.4135 0.01507 0.90488 0.0
H1474 H 0.43126 0.02111 0.89376 0.0
H1475 H 0.39348 0.95737 0.92994 0.0
H1476 H 0.38705 0.94629 0.90528 0.0
H1477 H 0.37948 0.95717 0.9145 0.0
C1478 C 0.99295 0.38038 0.93378 0.0
C1479 C 0.00021 0.38749 0.95315 0.0
C1480 C 0.99085 0.38818 0.91769 0.0
C1481 C 0.99622 0.40349 0.92097 0.0
C1482 C 0.00393 0.41085 0.94019 0.0
C1483 C 0.0058 0.40275 0.95609 0.0
C1484 C 0.98253 0.37994 0.89742 0.0
C1485 C 0.00994 0.42719 0.94415 0.0
C1486 C 0.99939 0.42488 0.87074 0.0
C1487 C 0.98641 0.42498 0.87164 0.0
C1488 C 0.00296 0.41833 0.88704 0.0
C1489 C 0.99327 0.41162 0.90457 0.0
C1490 C 0.98036 0.41205 0.90591 0.0
C1491 C 0.97711 0.41877 0.88947 0.0
C1492 C 0.01687 0.41817 0.88512 0.0
C1493 C 0.96976 0.40503 0.92438 0.0
H1494 H 0.98859 0.3686 0.93137 0.0
H1495 H 0.01146 0.40835 0.97098 0.0
H1496 H 0.97243 0.38028 0.89633 0.0
H1497 H 0.98916 0.38539 0.88287 0.0
H1498 H 0.97947 0.36815 0.89705 0.0
H1499 H 0.01635 0.43142 0.95939 0.0
H1500 H 0.01702 0.43365 0.93046 0.0
H1501 H 0.00086 0.42926 0.94506 0.0
H1502 H 0.00654 0.42947 0.85689 0.0
H1503 H 0.96718 0.419 0.89044 0.0
H1504 H 0.0142 0.40659 0.88266 0.0
H1505 H 0.0233 0.42254 0.90031 0.0
H1506 H 0.02376 0.42486 0.87142 0.0
H1507 H 0.96531 0.3929 0.92418 0.0
H1508 H 0.96051 0.40684 0.9235 0.0
H1509 H 0.97543 0.4096 0.94011 0.0
C1510 C 0.60869 0.59756 0.96576 0.0
C1511 C 0.61115 0.61194 0.96761 0.0
C1512 C 0.60146 0.58836 0.94771 0.0
C1513 C 0.59667 0.5937 0.93101 0.0
C1514 C 0.59879 0.60806 0.933 0.0
C1515 C 0.60595 0.617 0.95135 0.0
C1516 C 0.59928 0.57305 0.94626 0.0
C1517 C 0.59389 0.61416 0.91546 0.0
C1518 C 0.5931 0.57677 0.87478 0.0
C1519 C 0.57799 0.56698 0.87298 0.0
C1520 C 0.59929 0.58559 0.89352 0.0
C1521 C 0.59015 0.58454 0.91095 0.0
C1522 C 0.57488 0.57465 0.90928 0.0
C1523 C 0.56897 0.56602 0.89025 0.0
C1524 C 0.61561 0.5961 0.89463 0.0
C1525 C 0.56481 0.57313 0.92762 0.0
H1526 H 0.61258 0.59352 0.97832 0.0
H1527 H 0.60782 0.6281 0.95264 0.0
H1528 H 0.58762 0.56459 0.94324 0.0
H1529 H 0.60558 0.57238 0.93241 0.0
H1530 H 0.60281 0.57022 0.96124 0.0
H1531 H 0.59571 0.62524 0.91995 0.0
H1532 H 0.59995 0.61515 0.90029 0.0
H1533 H 0.58214 0.60645 0.91193 0.0
H1534 H 0.60009 0.57771 0.86133 0.0
H1535 H 0.55729 0.55839 0.88895 0.0
H1536 H 0.62015 0.59331 0.90844 0.0
H1537 H 0.61822 0.60764 0.89748 0.0
H1538 H 0.62116 0.59572 0.87956 0.0
H1539 H 0.56779 0.56958 0.94241 0.0
H1540 H 0.55319 0.56496 0.92372 0.0
H1541 H 0.56604 0.58402 0.93149 0.0
C1542 C 0.99133 0.60708 0.94881 0.0
C1543 C 0.002 0.61284 0.96511 0.0
C1544 C 0.99264 0.59992 0.93028 0.0
C1545 C 0.00497 0.59853 0.92791 0.0
C1546 C 0.0158 0.60433 0.94425 0.0
C1547 C 0.01417 0.61139 0.9627 0.0
C1548 C 0.98083 0.59383 0.91323 0.0
C1549 C 0.02914 0.60314 0.9422 0.0
C1550 C 0.00123 0.5686 0.88838 0.0
C1551 C 0.00766 0.57674 0.86964 0.0
C1552 C 0.00056 0.57559 0.90761 0.0
C1553 C 0.00652 0.59111 0.90816 0.0
C1554 C 0.01338 0.59946 0.88951 0.0
C1555 C 0.01382 0.59217 0.87047 0.0
C1556 C 0.99316 0.56632 0.9272 0.0
C1557 C 0.01989 0.61604 0.88947 0.0
H1558 H 0.98187 0.60812 0.95054 0.0
H1559 H 0.02248 0.61583 0.97519 0.0
H1560 H 0.98551 0.59914 0.89752 0.0
H1561 H 0.97616 0.58174 0.91077 0.0
H1562 H 0.97187 0.59569 0.91763 0.0
H1563 H 0.03653 0.60817 0.95639 0.0
H1564 H 0.02583 0.59131 0.9405 0.0
H1565 H 0.03529 0.60875 0.92738 0.0
H1566 H 0.99663 0.55671 0.88797 0.0
H1567 H 0.01862 0.59853 0.856 0.0
H1568 H 0.98346 0.56696 0.93151 0.0
H1569 H 0.00064 0.57072 0.94132 0.0
H1570 H 0.9896 0.55448 0.92439 0.0
H1571 H 0.01116 0.61853 0.89191 0.0
H1572 H 0.02562 0.62102 0.87407 0.0
H1573 H 0.02773 0.62146 0.90306 0.0
C1574 C 0.40426 0.41941 0.96194 0.0
C1575 C 0.39133 0.40545 0.96135 0.0
C1576 C 0.41061 0.42706 0.94282 0.0
C1577 C 0.40404 0.42043 0.92263 0.0
C1578 C 0.39091 0.40638 0.92196 0.0
C1579 C 0.38462 0.39913 0.94137 0.0
C1580 C 0.42442 0.44217 0.9442 0.0
C1581 C 0.38375 0.3988 0.90071 0.0
C1582 C 0.41388 0.44347 0.87206 0.0
C1583 C 0.42424 0.4409 0.86231 0.0
C1584 C 0.40745 0.43717 0.89196 0.0
C1585 C 0.41124 0.42783 0.90213 0.0
C1586 C 0.42176 0.42529 0.89252 0.0
C1587 C 0.42826 0.43201 0.87292 0.0
C1588 C 0.39648 0.44035 0.90196 0.0
C1589 C 0.42598 0.41526 0.90276 0.0
H1590 H 0.4094 0.42438 0.97739 0.0
H1591 H 0.37467 0.3883 0.94086 0.0
H1592 H 0.4335 0.44173 0.9363 0.0
H1593 H 0.42302 0.45035 0.93541 0.0
H1594 H 0.42759 0.44621 0.96121 0.0
H1595 H 0.37342 0.38802 0.90301 0.0
H1596 H 0.38138 0.40605 0.89124 0.0
H1597 H 0.39129 0.3968 0.89091 0.0
H1598 H 0.41055 0.45017 0.86395 0.0
H1599 H 0.43651 0.43023 0.86588 0.0
H1600 H 0.39969 0.44462 0.91885 0.0
H1601 H 0.38564 0.42995 0.90266 0.0
H1602 H 0.3954 0.44858 0.8927 0.0
H1603 H 0.43049 0.41955 0.9192 0.0
H1604 H 0.43421 0.41429 0.89305 0.0
H1605 H 0.41619 0.40401 0.90458 0.0
C1606 C 0.58312 0.98507 0.95302 0.0
C1607 C 0.59429 0.98196 0.95231 0.0
C1608 C 0.57468 0.98297 0.93464 0.0
C1609 C 0.57756 0.9778 0.91499 0.0
C1610 C 0.58872 0.97451 0.91419 0.0
C1611 C 0.59691 0.97654 0.93291 0.0
C1612 C 0.56276 0.98645 0.9362 0.0
C1613 C 0.5922 0.96911 0.89346 0.0
C1614 C 0.5484 0.96129 0.8712 0.0
C1615 C 0.55309 0.9734 0.85766 0.0
C1616 C 0.55622 0.96256 0.88997 0.0
C1617 C 0.56914 0.97622 0.89514 0.0
C1618 C 0.57395 0.98846 0.88147 0.0
C1619 C 0.56582 0.98692 0.86295 0.0
C1620 C 0.55064 0.94934 0.90433 0.0
C1621 C 0.58775 0.00316 0.88632 0.0
H1622 H 0.58097 0.98917 0.96798 0.0
H1623 H 0.60554 0.97416 0.93223 0.0
H1624 H 0.56519 0.99557 0.92517 0.0
H1625 H 0.5522 0.97662 0.93097 0.0
H1626 H 0.56151 0.9898 0.9529 0.0
H1627 H 0.60105 0.9668 0.89562 0.0
H1628 H 0.58234 0.95883 0.88734 0.0
H1629 H 0.59559 0.97756 0.88082 0.0
H1630 H 0.5385 0.95085 0.8672 0.0
H1631 H 0.56958 0.99624 0.85234 0.0
H1632 H 0.54864 0.9522 0.92089 0.0
H1633 H 0.55897 0.94624 0.90572 0.0
H1634 H 0.54038 0.93954 0.89808 0.0
H1635 H 0.58684 0.00763 0.90232 0.0
H1636 H 0.59009 0.01152 0.87388 0.0
H1637 H 0.59714 0.0016 0.8872 0.0
C1638 C 0.61331 0.0102 0.06885 0.0
C1639 C 0.60806 0.9984 0.05369 0.0
C1640 C 0.60496 0.00938 0.08703 0.0
C1641 C 0.59098 0.99654 0.08989 0.0
C1642 C 0.58546 0.98481 0.07426 0.0
C1643 C 0.59411 0.98584 0.05645 0.0
C1644 C 0.61126 0.02202 0.10351 0.0
C1645 C 0.57053 0.97102 0.07659 0.0
C1646 C 0.57442 0.98478 0.14568 0.0
C1647 C 0.56417 0.98912 0.14605 0.0
C1648 C 0.58362 0.98767 0.12782 0.0
C1649 C 0.58238 0.9949 0.10978 0.0
C1650 C 0.57228 0.99965 0.11028 0.0
C1651 C 0.56335 0.99679 0.12854 0.0
C1652 C 0.59439 0.98263 0.12805 0.0
C1653 C 0.57055 0.00724 0.09124 0.0
H1654 H 0.6241 0.01992 0.06681 0.0
H1655 H 0.58992 0.97674 0.04467 0.0
H1656 H 0.60363 0.02595 0.10636 0.0
H1657 H 0.61273 0.01811 0.1192 0.0
H1658 H 0.62195 0.03154 0.09835 0.0
H1659 H 0.56748 0.96334 0.06232 0.0
H1660 H 0.57025 0.96502 0.09121 0.0
H1661 H 0.56218 0.97407 0.07878 0.0
H1662 H 0.5752 0.97904 0.15939 0.0
H1663 H 0.55537 0.0001 0.12882 0.0
H1664 H 0.60549 0.992 0.12423 0.0
H1665 H 0.59142 0.97386 0.11539 0.0
H1666 H 0.59473 0.97815 0.14395 0.0
H1667 H 0.58125 0.01692 0.0866 0.0
H1668 H 0.56289 0.01108 0.09474 0.0
H1669 H 0.56639 0.99945 0.07706 0.0
C1670 C 0.98341 0.60243 0.07348 0.0
C1671 C 0.98901 0.61773 0.07538 0.0
C1672 C 0.98536 0.59483 0.0901 0.0
C1673 C 0.99323 0.60277 0.10894 0.0
C1674 C 0.99849 0.61812 0.11124 0.0
C1675 C 0.99624 0.62539 0.09449 0.0
C1676 C 0.97942 0.57842 0.08722 0.0
C1677 C 0.00701 0.62699 0.13103 0.0
C1678 C 0.992 0.58345 0.16058 0.0
C1679 C 0.00515 0.58371 0.15929 0.0
C1680 C 0.98768 0.58912 0.14393 0.0
C1681 C 0.99681 0.59533 0.12568 0.0
C1682 C 0.00987 0.59522 0.12398 0.0
C1683 C 0.01383 0.58933 0.14072 0.0
C1684 C 0.9736 0.58891 0.1462 0.0
C1685 C 0.01991 0.60176 0.10478 0.0
H1686 H 0.97773 0.59641 0.05881 0.0
H1687 H 0.0006 0.63721 0.09612 0.0
H1688 H 0.98857 0.57648 0.08585 0.0
H1689 H 0.9729 0.57239 0.10157 0.0
H1690 H 0.97248 0.57363 0.07253 0.0
H1691 H 0.00973 0.63867 0.1308 0.0
H1692 H 0.0007 0.62181 0.14594 0.0
H1693 H 0.0173 0.62703 0.13201 0.0
H1694 H 0.98529 0.57927 0.17494 0.0
H1695 H 0.02386 0.5893 0.13939 0.0
H1696 H 0.96688 0.58406 0.13135 0.0
H1697 H 0.97601 0.60043 0.14818 0.0
H1698 H 0.9671 0.58247 0.16035 0.0
H1699 H 0.01388 0.59652 0.0895 0.0
H1700 H 0.02938 0.60029 0.10552 0.0
H1701 H 0.02406 0.6138 0.1041 0.0
C1702 C 0.39679 0.42065 0.06308 0.0
C1703 C 0.38804 0.40517 0.06081 0.0
C1704 C 0.40596 0.42732 0.08113 0.0
C1705 C 0.40612 0.41828 0.09747 0.0
C1706 C 0.39714 0.40264 0.09538 0.0
C1707 C 0.38832 0.39627 0.07696 0.0
C1708 C 0.41559 0.44402 0.08262 0.0
C1709 C 0.3968 0.39263 0.11265 0.0
C1710 C 0.43796 0.43211 0.13624 0.0
C1711 C 0.43263 0.43555 0.15485 0.0
C1712 C 0.42968 0.42705 0.11712 0.0
C1713 C 0.41562 0.42509 0.11683 0.0
C1714 C 0.41034 0.42886 0.13547 0.0
C1715 C 0.41897 0.43418 0.15422 0.0
C1716 C 0.4358 0.42343 0.09744 0.0
C1717 C 0.39531 0.42669 0.1359 0.0
H1718 H 0.39668 0.42756 0.05055 0.0
H1719 H 0.3815 0.3843 0.07532 0.0
H1720 H 0.41298 0.44829 0.09749 0.0
H1721 H 0.42718 0.4473 0.08385 0.0
H1722 H 0.41433 0.44945 0.0684 0.0
H1723 H 0.38893 0.38072 0.10882 0.0
H1724 H 0.40779 0.39429 0.11455 0.0
H1725 H 0.39379 0.39551 0.12847 0.0
H1726 H 0.44856 0.43325 0.13675 0.0
H1727 H 0.41479 0.43667 0.16872 0.0
H1728 H 0.4351 0.42911 0.08309 0.0
H1729 H 0.42926 0.41132 0.09381 0.0
H1730 H 0.44735 0.42674 0.09976 0.0
H1731 H 0.39401 0.43253 0.1223 0.0
H1732 H 0.3931 0.4308 0.15133 0.0
H1733 H 0.38697 0.41471 0.13377 0.0
C1734 C 0.67662 0.7346 0.40749 0.0
C1735 C 0.66923 0.73434 0.38879 0.0
C1736 C 0.67728 0.74291 0.42598 0.0
C1737 C 0.67029 0.7511 0.42585 0.0
C1738 C 0.66261 0.75072 0.40716 0.0
C1739 C 0.66222 0.74239 0.38881 0.0
C1740 C 0.68563 0.74308 0.44556 0.0
C1741 C 0.65492 0.75921 0.40653 0.0
C1742 C 0.66266 0.76215 0.48111 0.0
C1743 C 0.67446 0.7768 0.4836 0.0
C1744 C 0.6609 0.7538 0.46209 0.0
C1745 C 0.67125 0.76021 0.44523 0.0
C1746 C 0.68298 0.7751 0.4474 0.0
C1747 C 0.68441 0.78323 0.46653 0.0
C1748 C 0.64821 0.73797 0.46033 0.0
C1749 C 0.69424 0.78232 0.42977 0.0
H1750 H 0.68209 0.72844 0.40763 0.0
H1751 H 0.65644 0.74221 0.37445 0.0
H1752 H 0.69462 0.7546 0.44934 0.0
H1753 H 0.67835 0.73915 0.45989 0.0
H1754 H 0.69034 0.736 0.44311 0.0
H1755 H 0.64912 0.75746 0.39096 0.0
H1756 H 0.64691 0.75577 0.41994 0.0
H1757 H 0.66292 0.77126 0.40892 0.0
H1758 H 0.65503 0.75701 0.49431 0.0
H1759 H 0.69342 0.79462 0.46818 0.0
H1760 H 0.65231 0.73029 0.45981 0.0
H1761 H 0.64212 0.73616 0.44507 0.0
H1762 H 0.64054 0.735 0.47416 0.0
H1763 H 0.70013 0.77637 0.42744 0.0
H1764 H 0.70234 0.79419 0.43358 0.0
H1765 H 0.68886 0.78155 0.41418 0.0
C1766 C 0.27446 0.92947 0.41402 0.0
C1767 C 0.28877 0.9417 0.41598 0.0
C1768 C 0.26717 0.9206 0.43183 0.0
C1769 C 0.27434 0.92406 0.4521 0.0
C1770 C 0.28884 0.93626 0.45414 0.0
C1771 C 0.29588 0.94494 0.43605 0.0
C1772 C 0.25171 0.90768 0.42902 0.0
C1773 C 0.29683 0.94028 0.47552 0.0
C1774 C 0.25097 0.91102 0.50268 0.0
C1775 C 0.25151 0.8985 0.50794 0.0
C1776 C 0.25834 0.91941 0.48455 0.0
C1777 C 0.26648 0.91521 0.47134 0.0
C1778 C 0.26707 0.90258 0.47651 0.0
C1779 C 0.25958 0.89438 0.49477 0.0
C1780 C 0.25748 0.93283 0.4796 0.0
C1781 C 0.27561 0.89775 0.46274 0.0
H1782 H 0.26888 0.92685 0.39857 0.0
H1783 H 0.30694 0.95435 0.43771 0.0
H1784 H 0.25088 0.89729 0.4341 0.0
H1785 H 0.24428 0.90941 0.43956 0.0
H1786 H 0.24786 0.90617 0.41201 0.0
H1787 H 0.30822 0.94982 0.47425 0.0
H1788 H 0.291 0.94314 0.48775 0.0
H1789 H 0.29705 0.93063 0.4816 0.0
H1790 H 0.24497 0.91443 0.51301 0.0
H1791 H 0.25993 0.88465 0.49865 0.0
H1792 H 0.25293 0.93161 0.46313 0.0
H1793 H 0.26857 0.94292 0.47977 0.0
H1794 H 0.25059 0.93453 0.49141 0.0
H1795 H 0.27142 0.89537 0.44588 0.0
H1796 H 0.27499 0.88769 0.46899 0.0
H1797 H 0.28723 0.90683 0.46213 0.0
C1798 C 0.07463 0.36004 0.41192 0.0
C1799 C 0.05984 0.3546 0.41604 0.0
C1800 C 0.08413 0.36172 0.42862 0.0
C1801 C 0.0787 0.35783 0.44993 0.0
C1802 C 0.06386 0.35262 0.45429 0.0
C1803 C 0.05461 0.35109 0.43729 0.0
C1804 C 0.09991 0.36739 0.42337 0.0
C1805 C 0.05767 0.34833 0.47683 0.0
C1806 C 0.0982 0.34683 0.48886 0.0
C1807 C 0.10577 0.35961 0.50214 0.0
C1808 C 0.08951 0.34618 0.47165 0.0
C1809 C 0.0884 0.35865 0.46754 0.0
C1810 C 0.09629 0.37172 0.48053 0.0
C1811 C 0.10488 0.37203 0.4977 0.0
C1812 C 0.08131 0.33207 0.4581 0.0
C1813 C 0.09541 0.38524 0.47658 0.0
H1814 H 0.07879 0.36284 0.39556 0.0
H1815 H 0.0432 0.34689 0.44063 0.0
H1816 H 0.10714 0.37718 0.43386 0.0
H1817 H 0.10242 0.35871 0.4267 0.0
H1818 H 0.10256 0.37057 0.40617 0.0
H1819 H 0.04603 0.34499 0.47767 0.0
H1820 H 0.05861 0.33896 0.48224 0.0
H1821 H 0.064 0.35775 0.4884 0.0
H1822 H 0.09902 0.33727 0.492 0.0
H1823 H 0.11056 0.38188 0.50804 0.0
H1824 H 0.08428 0.33444 0.44079 0.0
H1825 H 0.06941 0.32746 0.45943 0.0
H1826 H 0.08358 0.32348 0.46314 0.0
H1827 H 0.09835 0.38871 0.45956 0.0
H1828 H 0.10273 0.39474 0.4875 0.0
H1829 H 0.08406 0.38252 0.4791 0.0
C1830 C 0.06866 0.34708 0.29224 0.0
C1831 C 0.05348 0.33736 0.29267 0.0
C1832 C 0.07691 0.34741 0.27427 0.0
C1833 C 0.06982 0.33782 0.25624 0.0
C1834 C 0.05453 0.32782 0.25666 0.0
C1835 C 0.04654 0.32769 0.2749 0.0
C1836 C 0.0932 0.35819 0.27444 0.0
C1837 C 0.04659 0.31745 0.2377 0.0
C1838 C 0.08901 0.34974 0.20202 0.0
C1839 C 0.09525 0.34101 0.19991 0.0
C1840 C 0.08058 0.34868 0.22016 0.0
C1841 C 0.07836 0.33867 0.23663 0.0
C1842 C 0.08456 0.32976 0.23457 0.0
C1843 C 0.09292 0.33101 0.21619 0.0
C1844 C 0.07408 0.35832 0.22171 0.0
C1845 C 0.0825 0.31902 0.25188 0.0
H1846 H 0.07414 0.35455 0.30592 0.0
H1847 H 0.03482 0.32014 0.2751 0.0
H1848 H 0.09896 0.35217 0.2714 0.0
H1849 H 0.09627 0.3662 0.26124 0.0
H1850 H 0.09712 0.36449 0.29006 0.0
H1851 H 0.03475 0.31001 0.24087 0.0
H1852 H 0.04797 0.32397 0.22314 0.0
H1853 H 0.05133 0.31053 0.23386 0.0
H1854 H 0.09057 0.3573 0.1893 0.0
H1855 H 0.09782 0.32432 0.21471 0.0
H1856 H 0.07828 0.36565 0.23637 0.0
H1857 H 0.06206 0.35129 0.22338 0.0
H1858 H 0.07663 0.36535 0.20733 0.0
H1859 H 0.08713 0.32513 0.26743 0.0
H1860 H 0.08779 0.31266 0.24761 0.0
H1861 H 0.0707 0.31106 0.25457 0.0
C1862 C 0.66384 0.72404 0.27052 0.0
C1863 C 0.67478 0.72706 0.28555 0.0
C1864 C 0.66686 0.73298 0.25248 0.0
C1865 C 0.68113 0.74529 0.24944 0.0
C1866 C 0.6922 0.74848 0.26461 0.0
C1867 C 0.6889 0.7393 0.28246 0.0
C1868 C 0.65478 0.72918 0.23658 0.0
C1869 C 0.70754 0.76154 0.26193 0.0
C1870 C 0.69211 0.75953 0.19237 0.0
C1871 C 0.69031 0.77173 0.19282 0.0
C1872 C 0.68927 0.75091 0.21073 0.0
C1873 C 0.68454 0.7546 0.23005 0.0
C1874 C 0.68282 0.76698 0.23069 0.0
C1875 C 0.68567 0.77538 0.21203 0.0
C1876 C 0.69112 0.73772 0.20935 0.0
C1877 C 0.67789 0.77131 0.25105 0.0
H1878 H 0.6529 0.71461 0.27276 0.0
H1879 H 0.69741 0.74175 0.29404 0.0
H1880 H 0.65329 0.73873 0.23515 0.0
H1881 H 0.65775 0.72691 0.22029 0.0
H1882 H 0.64423 0.71933 0.24142 0.0
H1883 H 0.71481 0.76273 0.27545 0.0
H1884 H 0.71223 0.76027 0.24652 0.0
H1885 H 0.70743 0.77194 0.26103 0.0
H1886 H 0.69546 0.75652 0.17747 0.0
H1887 H 0.68439 0.78488 0.2125 0.0
H1888 H 0.68056 0.7274 0.2126 0.0
H1889 H 0.69894 0.73882 0.22188 0.0
H1890 H 0.69512 0.7365 0.19322 0.0
H1891 H 0.66693 0.76209 0.25581 0.0
H1892 H 0.67738 0.78142 0.24902 0.0
H1893 H 0.68544 0.77334 0.26459 0.0
C1894 C 0.27027 0.93199 0.29168 0.0
C1895 C 0.27615 0.94737 0.29197 0.0
C1896 C 0.26285 0.92316 0.27344 0.0
C1897 C 0.26117 0.92983 0.25507 0.0
C1898 C 0.26664 0.94526 0.2555 0.0
C1899 C 0.27412 0.95387 0.27393 0.0
C1900 C 0.25724 0.90675 0.27358 0.0
C1901 C 0.26492 0.95273 0.23627 0.0
C1902 C 0.25696 0.90985 0.20129 0.0
C1903 C 0.2418 0.90196 0.19822 0.0
C1904 C 0.2634 0.91916 0.21951 0.0
C1905 C 0.25449 0.92076 0.23501 0.0
C1906 C 0.23922 0.91315 0.23177 0.0
C1907 C 0.23304 0.9038 0.21343 0.0
C1908 C 0.27973 0.92708 0.22239 0.0
C1909 C 0.22939 0.91465 0.2479 0.0
H1910 H 0.27175 0.92686 0.30555 0.0
H1911 H 0.27854 0.96572 0.27407 0.0
H1912 H 0.24546 0.90023 0.26947 0.0
H1913 H 0.26301 0.90402 0.26106 0.0
H1914 H 0.2588 0.90316 0.28952 0.0
H1915 H 0.26883 0.96459 0.23976 0.0
H1916 H 0.27117 0.95206 0.22233 0.0
H1917 H 0.25331 0.94693 0.23126 0.0
H1918 H 0.26384 0.90875 0.18938 0.0
H1919 H 0.22132 0.89767 0.21125 0.0
H1920 H 0.28231 0.92339 0.23742 0.0
H1921 H 0.28444 0.93921 0.22418 0.0
H1922 H 0.28514 0.92497 0.20855 0.0
H1923 H 0.22979 0.91004 0.26361 0.0
H1924 H 0.21787 0.90877 0.24232 0.0
H1925 H 0.23322 0.92653 0.2509 0.0
C1926 C 0.67746 0.93135 0.29746 0.0
C1927 C 0.67556 0.94346 0.29657 0.0
C1928 C 0.68026 0.92552 0.27863 0.0
C1929 C 0.68129 0.93204 0.25845 0.0
C1930 C 0.67967 0.94445 0.2575 0.0
C1931 C 0.67675 0.94997 0.27656 0.0
C1932 C 0.68182 0.91221 0.28025 0.0
C1933 C 0.68082 0.95178 0.23631 0.0
C1934 C 0.69977 0.9245 0.21132 0.0
C1935 C 0.68774 0.9137 0.19921 0.0
C1936 C 0.69785 0.93055 0.23069 0.0
C1937 C 0.68357 0.92558 0.23821 0.0
C1938 C 0.6714 0.91456 0.22623 0.0
C1939 C 0.67363 0.90882 0.20684 0.0
C1940 C 0.71109 0.94233 0.243 0.0
C1941 C 0.656 0.90894 0.23377 0.0
H1942 H 0.67654 0.92625 0.31285 0.0
H1943 H 0.67539 0.95939 0.27574 0.0
H1944 H 0.67312 0.90276 0.27063 0.0
H1945 H 0.69242 0.91473 0.27334 0.0
H1946 H 0.68113 0.9087 0.29723 0.0
H1947 H 0.67986 0.96169 0.23846 0.0
H1948 H 0.69142 0.95521 0.22844 0.0
H1949 H 0.67211 0.94377 0.22509 0.0
H1950 H 0.7107 0.92821 0.2057 0.0
H1951 H 0.66427 0.90069 0.19743 0.0
H1952 H 0.711 0.93864 0.25967 0.0
H1953 H 0.71082 0.95266 0.24446 0.0
H1954 H 0.72145 0.94494 0.23501 0.0
H1955 H 0.65447 0.90463 0.25039 0.0
H1956 H 0.64773 0.89998 0.22295 0.0
H1957 H 0.65397 0.91819 0.23442 0.0
C1958 C 0.04634 0.73361 0.27611 0.0
C1959 C 0.05409 0.73939 0.29555 0.0
C1960 C 0.05252 0.74028 0.25631 0.0
C1961 C 0.06661 0.75328 0.25608 0.0
C1962 C 0.07422 0.75949 0.27579 0.0
C1963 C 0.06796 0.75233 0.29527 0.0
C1964 C 0.04421 0.73312 0.23558 0.0
C1965 C 0.08907 0.77357 0.27627 0.0
C1966 C 0.08933 0.76227 0.20489 0.0
C1967 C 0.0867 0.77244 0.19498 0.0
C1968 C 0.08273 0.75584 0.22461 0.0
C1969 C 0.07362 0.76002 0.23513 0.0
C1970 C 0.07118 0.77053 0.22559 0.0
C1971 C 0.07756 0.77644 0.20551 0.0
C1972 C 0.08542 0.74448 0.2341 0.0
C1973 C 0.06178 0.77549 0.23657 0.0
H1974 H 0.03566 0.72352 0.27629 0.0
H1975 H 0.07392 0.75688 0.31033 0.0
H1976 H 0.04285 0.74117 0.2264 0.0
H1977 H 0.05048 0.72971 0.22515 0.0
H1978 H 0.03327 0.7232 0.23859 0.0
H1979 H 0.09304 0.77756 0.29305 0.0
H1980 H 0.09708 0.77165 0.26771 0.0
H1981 H 0.08873 0.78245 0.26766 0.0
H1982 H 0.09662 0.75932 0.19729 0.0
H1983 H 0.07519 0.78406 0.19795 0.0
H1984 H 0.07488 0.73398 0.23673 0.0
H1985 H 0.09082 0.74849 0.25011 0.0
H1986 H 0.09236 0.74204 0.2235 0.0
H1987 H 0.05044 0.76594 0.23802 0.0
H1988 H 0.0616 0.78434 0.22759 0.0
H1989 H 0.06585 0.77971 0.25323 0.0
C1990 C 0.27934 0.32008 0.25744 0.0
C1991 C 0.27456 0.31591 0.27873 0.0
C1992 C 0.26964 0.31869 0.24125 0.0
C1993 C 0.25477 0.3128 0.24644 0.0
C1994 C 0.24979 0.30814 0.26774 0.0
C1995 C 0.25977 0.30985 0.28367 0.0
C1996 C 0.27538 0.32392 0.21875 0.0
C1997 C 0.23398 0.3016 0.2738 0.0
C1998 C 0.2338 0.32399 0.2109 0.0
C1999 C 0.22677 0.31185 0.19633 0.0
C2000 C 0.24276 0.32433 0.22746 0.0
C2001 C 0.24459 0.31213 0.22976 0.0
C2002 C 0.23708 0.29958 0.21569 0.0
C2003 C 0.22833 0.29962 0.19906 0.0
C2004 C 0.2506 0.33794 0.24212 0.0
C2005 C 0.23861 0.28629 0.21782 0.0
H2006 H 0.29076 0.32481 0.25351 0.0
H2007 H 0.25597 0.3065 0.30007 0.0
H2008 H 0.26919 0.31481 0.20668 0.0
H2009 H 0.27382 0.33314 0.21462 0.0
H2010 H 0.28714 0.32785 0.2172 0.0
H2011 H 0.23171 0.29771 0.29074 0.0
H2012 H 0.23093 0.31003 0.27199 0.0
H2013 H 0.22688 0.29212 0.26274 0.0
H2014 H 0.23244 0.33336 0.20919 0.0
H2015 H 0.2231 0.29026 0.18776 0.0
H2016 H 0.26256 0.3431 0.24035 0.0
H2017 H 0.24788 0.33479 0.25929 0.0
H2018 H 0.24777 0.34635 0.23848 0.0
H2019 H 0.25001 0.28949 0.21425 0.0
H2020 H 0.23122 0.27699 0.20665 0.0
H2021 H 0.23623 0.2823 0.23468 0.0
C2022 C 0.26753 0.34419 0.38768 0.0
C2023 C 0.27391 0.33554 0.38741 0.0
C2024 C 0.25988 0.34471 0.40593 0.0
C2025 C 0.25858 0.33638 0.42428 0.0
C2026 C 0.26529 0.32792 0.42429 0.0
C2027 C 0.27288 0.32761 0.40588 0.0
C2028 C 0.25291 0.35391 0.4054 0.0
C2029 C 0.26416 0.31889 0.44357 0.0
C2030 C 0.24802 0.34426 0.47962 0.0
C2031 C 0.23336 0.33278 0.48092 0.0
C2032 C 0.25626 0.34594 0.46093 0.0
C2033 C 0.24967 0.33589 0.44318 0.0
C2034 C 0.23472 0.32464 0.44409 0.0
C2035 C 0.22675 0.32323 0.46294 0.0
C2036 C 0.27217 0.35809 0.46053 0.0
C2037 C 0.22728 0.31374 0.42545 0.0
H2038 H 0.26832 0.35038 0.37351 0.0
H2039 H 0.27782 0.32094 0.40586 0.0
H2040 H 0.24089 0.34656 0.40648 0.0
H2041 H 0.25651 0.36169 0.41959 0.0
H2042 H 0.25562 0.3604 0.39039 0.0
H2043 H 0.27048 0.31337 0.4413 0.0
H2044 H 0.26818 0.32609 0.45837 0.0
H2045 H 0.25257 0.31024 0.44641 0.0
H2046 H 0.25322 0.3516 0.49353 0.0
H2047 H 0.21535 0.3145 0.46374 0.0
H2048 H 0.27468 0.36457 0.44558 0.0
H2049 H 0.27901 0.3531 0.46037 0.0
H2050 H 0.2753 0.36579 0.47479 0.0
H2051 H 0.2289 0.31974 0.41022 0.0
H2052 H 0.21539 0.30625 0.42819 0.0
H2053 H 0.23221 0.30686 0.4231 0.0
C2054 C 0.66347 0.9555 0.42582 0.0
C2055 C 0.65936 0.94927 0.40488 0.0
C2056 C 0.66209 0.94677 0.44344 0.0
C2057 C 0.65637 0.9314 0.44007 0.0
C2058 C 0.65194 0.92496 0.41906 0.0
C2059 C 0.65354 0.93399 0.40169 0.0
C2060 C 0.66702 0.95406 0.46559 0.0
C2061 C 0.64567 0.90859 0.4149 0.0
C2062 C 0.66712 0.91313 0.48169 0.0
C2063 C 0.65502 0.90694 0.49558 0.0
C2064 C 0.66754 0.9208 0.46327 0.0
C2065 C 0.65551 0.92221 0.45849 0.0
C2066 C 0.64303 0.9155 0.47194 0.0
C2067 C 0.64295 0.90797 0.49037 0.0
C2068 C 0.68105 0.92779 0.44931 0.0
C2069 C 0.62995 0.91668 0.46726 0.0
H2070 H 0.66798 0.96729 0.42843 0.0
H2071 H 0.65029 0.92906 0.38557 0.0
H2072 H 0.65792 0.94856 0.47733 0.0
H2073 H 0.67597 0.95275 0.47145 0.0
H2074 H 0.67093 0.96607 0.46557 0.0
H2075 H 0.64218 0.9052 0.3978 0.0
H2076 H 0.65392 0.90572 0.41881 0.0
H2077 H 0.63615 0.90201 0.4256 0.0
H2078 H 0.67638 0.91214 0.48538 0.0
H2079 H 0.63362 0.90335 0.50111 0.0
H2080 H 0.6862 0.94003 0.44974 0.0
H2081 H 0.67812 0.92397 0.43221 0.0
H2082 H 0.6892 0.92512 0.45472 0.0
H2083 H 0.633 0.92842 0.4691 0.0
H2084 H 0.62068 0.90986 0.47828 0.0
H2085 H 0.62627 0.91309 0.45029 0.0
C2086 C 0.05426 0.73274 0.41125 0.0
C2087 C 0.05463 0.7417 0.39466 0.0
C2088 C 0.06341 0.73894 0.42937 0.0
C2089 C 0.07337 0.75447 0.43073 0.0
C2090 C 0.07387 0.76358 0.41397 0.0
C2091 C 0.06438 0.75709 0.3962 0.0
C2092 C 0.06239 0.72888 0.44709 0.0
C2093 C 0.08452 0.78014 0.41471 0.0
C2094 C 0.08758 0.77062 0.48695 0.0
C2095 C 0.10059 0.77064 0.48747 0.0
C2096 C 0.07879 0.76577 0.46835 0.0
C2097 C 0.08325 0.76106 0.44975 0.0
C2098 C 0.09673 0.76172 0.44989 0.0
C2099 C 0.10518 0.76637 0.46885 0.0
C2100 C 0.06439 0.76502 0.46894 0.0
C2101 C 0.10199 0.75704 0.43025 0.0
H2102 H 0.04669 0.72084 0.41019 0.0
H2103 H 0.06478 0.76406 0.38333 0.0
H2104 H 0.07298 0.7296 0.44886 0.0
H2105 H 0.06 0.7325 0.4628 0.0
H2106 H 0.05379 0.7171 0.44382 0.0
H2107 H 0.08361 0.78565 0.40028 0.0
H2108 H 0.08265 0.78513 0.42945 0.0
H2109 H 0.09583 0.7825 0.41566 0.0
H2110 H 0.08396 0.77377 0.50145 0.0
H2111 H 0.1153 0.76648 0.46924 0.0
H2112 H 0.05533 0.75327 0.4675 0.0
H2113 H 0.06352 0.77091 0.45502 0.0
H2114 H 0.06293 0.76994 0.48416 0.0
H2115 H 0.09467 0.74494 0.42714 0.0
H2116 H 0.11328 0.7595 0.43234 0.0
H2117 H 0.10162 0.76276 0.4157 0.0
C2118 C 0.33949 0.07257 0.73089 0.0
C2119 C 0.32688 0.05885 0.72588 0.0
C2120 C 0.34024 0.08073 0.7496 0.0
C2121 C 0.32816 0.07495 0.76382 0.0
C2122 C 0.31527 0.06128 0.75863 0.0
C2123 C 0.31475 0.05342 0.73962 0.0
C2124 C 0.35412 0.09536 0.75445 0.0
C2125 C 0.30222 0.05472 0.77351 0.0
C2126 C 0.33799 0.08868 0.82201 0.0
C2127 C 0.33458 0.09975 0.82328 0.0
C2128 C 0.33542 0.08013 0.80298 0.0
C2129 C 0.32944 0.08286 0.78471 0.0
C2130 C 0.32559 0.09376 0.78609 0.0
C2131 C 0.32813 0.10203 0.80545 0.0
C2132 C 0.33948 0.06846 0.80226 0.0
C2133 C 0.31932 0.09707 0.76687 0.0
H2134 H 0.34886 0.07689 0.72025 0.0
H2135 H 0.30499 0.04281 0.73586 0.0
H2136 H 0.35166 0.10421 0.75744 0.0
H2137 H 0.35923 0.09451 0.76937 0.0
H2138 H 0.36214 0.09877 0.74103 0.0
H2139 H 0.29273 0.04446 0.7665 0.0
H2140 H 0.30514 0.05202 0.78916 0.0
H2141 H 0.29895 0.06289 0.77708 0.0
H2142 H 0.3428 0.08678 0.83591 0.0
H2143 H 0.32555 0.11066 0.80641 0.0
H2144 H 0.34847 0.07162 0.79053 0.0
H2145 H 0.33007 0.05764 0.79661 0.0
H2146 H 0.34303 0.067 0.81831 0.0
H2147 H 0.32756 0.10169 0.75375 0.0
H2148 H 0.31598 0.10515 0.77103 0.0
H2149 H 0.30972 0.08672 0.76035 0.0
C2150 C 0.94057 0.27615 0.763 0.0
C2151 C 0.95011 0.2752 0.74832 0.0
C2152 C 0.93388 0.2659 0.77956 0.0
C2153 C 0.93685 0.25445 0.78161 0.0
C2154 C 0.94654 0.25346 0.76697 0.0
C2155 C 0.95303 0.26383 0.75043 0.0
C2156 C 0.92355 0.26729 0.79481 0.0
C2157 C 0.95004 0.24146 0.76877 0.0
C2158 C 0.92831 0.23775 0.83734 0.0
C2159 C 0.91417 0.22541 0.83432 0.0
C2160 C 0.93619 0.24685 0.82002 0.0
C2161 C 0.92974 0.24357 0.79919 0.0
C2162 C 0.91583 0.23065 0.79576 0.0
C2163 C 0.90823 0.2217 0.81337 0.0
C2164 C 0.95103 0.26048 0.82431 0.0
C2165 C 0.90862 0.22674 0.77377 0.0
H2166 H 0.93821 0.28486 0.76146 0.0
H2167 H 0.96041 0.26303 0.73917 0.0
H2168 H 0.91263 0.25696 0.79404 0.0
H2169 H 0.92752 0.26877 0.81172 0.0
H2170 H 0.92236 0.27679 0.79095 0.0
H2171 H 0.95788 0.24228 0.75619 0.0
H2172 H 0.95473 0.24216 0.78496 0.0
H2173 H 0.93991 0.23038 0.76722 0.0
H2174 H 0.93293 0.24081 0.85349 0.0
H2175 H 0.8974 0.21205 0.81086 0.0
H2176 H 0.95037 0.27055 0.8231 0.0
H2177 H 0.95899 0.26128 0.81199 0.0
H2178 H 0.95523 0.26049 0.84064 0.0
H2179 H 0.90579 0.23505 0.76953 0.0
H2180 H 0.89851 0.21557 0.7733 0.0
H2181 H 0.9162 0.22706 0.76116 0.0
C2182 C 0.73503 0.69329 0.74404 0.0
C2183 C 0.74016 0.69199 0.72361 0.0
C2184 C 0.74346 0.69621 0.76274 0.0
C2185 C 0.75731 0.69775 0.761 0.0
C2186 C 0.76267 0.69673 0.74039 0.0
C2187 C 0.75405 0.69391 0.72192 0.0
C2188 C 0.73742 0.69733 0.78443 0.0
C2189 C 0.77735 0.69822 0.73792 0.0
C2190 C 0.78348 0.71562 0.80851 0.0
C2191 C 0.78113 0.70314 0.81958 0.0
C2192 C 0.77593 0.71406 0.78929 0.0
C2193 C 0.76584 0.69968 0.78088 0.0
C2194 C 0.76358 0.68706 0.79178 0.0
C2195 C 0.77119 0.68894 0.81103 0.0
C2196 C 0.77859 0.72778 0.77812 0.0
C2197 C 0.75292 0.67153 0.78332 0.0
H2198 H 0.72435 0.6919 0.74548 0.0
H2199 H 0.75809 0.69292 0.70621 0.0
H2200 H 0.73585 0.68824 0.79487 0.0
H2201 H 0.74526 0.70795 0.79281 0.0
H2202 H 0.72681 0.69664 0.78289 0.0
H2203 H 0.78024 0.69785 0.72068 0.0
H2204 H 0.78597 0.70882 0.74549 0.0
H2205 H 0.7773 0.68911 0.74646 0.0
H2206 H 0.79126 0.72663 0.81487 0.0
H2207 H 0.76908 0.67922 0.81965 0.0
H2208 H 0.76831 0.72778 0.77741 0.0
H2209 H 0.78215 0.72778 0.76118 0.0
H2210 H 0.787 0.73816 0.78651 0.0
H2211 H 0.74175 0.66959 0.78319 0.0
H2212 H 0.75285 0.6629 0.79325 0.0
H2213 H 0.75567 0.67019 0.76638 0.0
C2214 C 0.71503 0.64103 0.63365 0.0
C2215 C 0.7171 0.65524 0.63589 0.0
C2216 C 0.7205 0.63714 0.61558 0.0
C2217 C 0.7283 0.64774 0.59949 0.0
C2218 C 0.73053 0.66213 0.60177 0.0
C2219 C 0.72487 0.66569 0.61989 0.0
C2220 C 0.71782 0.62165 0.61361 0.0
C2221 C 0.73887 0.67378 0.58501 0.0
C2222 C 0.75401 0.64395 0.561 0.0
C2223 C 0.74581 0.63905 0.5418 0.0
C2224 C 0.7483 0.64641 0.5801 0.0
C2225 C 0.734 0.64381 0.58004 0.0
C2226 C 0.72546 0.63833 0.56096 0.0
C2227 C 0.73148 0.63606 0.54206 0.0
C2228 C 0.75773 0.65225 0.60014 0.0
C2229 C 0.71014 0.63537 0.56027 0.0
H2230 H 0.70902 0.63288 0.64591 0.0
H2231 H 0.72658 0.67671 0.62153 0.0
H2232 H 0.71156 0.61607 0.59861 0.0
H2233 H 0.72836 0.62215 0.61229 0.0
H2234 H 0.7117 0.61476 0.62765 0.0
H2235 H 0.73987 0.68452 0.58938 0.0
H2236 H 0.74997 0.67568 0.58304 0.0
H2237 H 0.73332 0.66986 0.56907 0.0
H2238 H 0.76501 0.64606 0.56103 0.0
H2239 H 0.72512 0.63247 0.52726 0.0
H2240 H 0.75193 0.64508 0.61407 0.0
H2241 H 0.76001 0.66352 0.60443 0.0
H2242 H 0.76828 0.65286 0.59789 0.0
H2243 H 0.70357 0.62811 0.57372 0.0
H2244 H 0.70455 0.63003 0.54471 0.0
H2245 H 0.71045 0.64597 0.56247 0.0
C2246 C 0.3541 0.0732 0.61045 0.0
C2247 C 0.33955 0.06378 0.61676 0.0
C2248 C 0.35759 0.08183 0.59192 0.0
C2249 C 0.34625 0.08092 0.57932 0.0
C2250 C 0.33155 0.07148 0.58564 0.0
C2251 C 0.32838 0.06307 0.60433 0.0
C2252 C 0.3734 0.09185 0.58576 0.0
C2253 C 0.31916 0.07013 0.57251 0.0
C2254 C 0.35441 0.11163 0.54058 0.0
C2255 C 0.35533 0.10544 0.52072 0.0
C2256 C 0.3517 0.10388 0.55987 0.0
C2257 C 0.34972 0.08955 0.5592 0.0
C2258 C 0.35075 0.0833 0.53921 0.0
C2259 C 0.35359 0.09134 0.52022 0.0
C2260 C 0.35082 0.11095 0.58093 0.0
C2261 C 0.34858 0.068 0.53781 0.0
H2262 H 0.36279 0.07387 0.62002 0.0
H2263 H 0.31711 0.05581 0.60908 0.0
H2264 H 0.37541 0.08843 0.5696 0.0
H2265 H 0.37604 0.10344 0.58455 0.0
H2266 H 0.38093 0.09162 0.59764 0.0
H2267 H 0.30834 0.0624 0.57975 0.0
H2268 H 0.32042 0.08117 0.57114 0.0
H2269 H 0.3194 0.06609 0.55583 0.0
H2270 H 0.35588 0.12258 0.54103 0.0
H2271 H 0.35408 0.08643 0.50485 0.0
H2272 H 0.35876 0.11147 0.59275 0.0
H2273 H 0.33981 0.10409 0.58808 0.0
H2274 H 0.35307 0.12235 0.57878 0.0
H2275 H 0.35643 0.06746 0.54859 0.0
H2276 H 0.35 0.06486 0.52106 0.0
H2277 H 0.33746 0.05967 0.54344 0.0
C2278 C 0.92621 0.25885 0.64169 0.0
C2279 C 0.94139 0.26844 0.64271 0.0
C2280 C 0.91937 0.25073 0.62263 0.0
C2281 C 0.92794 0.25215 0.60422 0.0
C2282 C 0.94327 0.2618 0.60514 0.0
C2283 C 0.9498 0.26988 0.62434 0.0
C2284 C 0.90298 0.24065 0.62215 0.0
C2285 C 0.95279 0.26354 0.58589 0.0
C2286 C 0.91294 0.22169 0.56065 0.0
C2287 C 0.90913 0.22801 0.54431 0.0
C2288 C 0.91886 0.22932 0.58037 0.0
C2289 C 0.92093 0.24357 0.58392 0.0
C2290 C 0.91679 0.24987 0.56772 0.0
C2291 C 0.91102 0.24205 0.54809 0.0
C2292 C 0.92317 0.22226 0.59725 0.0
C2293 C 0.91877 0.26502 0.57094 0.0
H2294 H 0.91963 0.25771 0.65579 0.0
H2295 H 0.96154 0.27723 0.62499 0.0
H2296 H 0.89835 0.244 0.60914 0.0
H2297 H 0.89995 0.22907 0.61839 0.0
H2298 H 0.89787 0.24088 0.63779 0.0
H2299 H 0.96454 0.27143 0.5893 0.0
H2300 H 0.95122 0.25262 0.58104 0.0
H2301 H 0.94959 0.26756 0.57186 0.0
H2302 H 0.91132 0.21076 0.558 0.0
H2303 H 0.90834 0.24714 0.53545 0.0
H2304 H 0.91756 0.22155 0.61277 0.0
H2305 H 0.93507 0.22926 0.60037 0.0
H2306 H 0.9205 0.21095 0.59222 0.0
H2307 H 0.91339 0.26544 0.58614 0.0
H2308 H 0.91424 0.26797 0.55728 0.0
H2309 H 0.93054 0.27355 0.57254 0.0
C2310 C 0.35088 0.26885 0.62703 0.0
C2311 C 0.34755 0.27993 0.62514 0.0
C2312 C 0.35408 0.26295 0.60868 0.0
C2313 C 0.35411 0.26839 0.58798 0.0
C2314 C 0.35113 0.27984 0.58603 0.0
C2315 C 0.34781 0.28542 0.60461 0.0
C2316 C 0.35707 0.25065 0.61137 0.0
C2317 C 0.3512 0.28603 0.56424 0.0
C2318 C 0.37285 0.2612 0.54088 0.0
C2319 C 0.36094 0.24949 0.52968 0.0
C2320 C 0.37083 0.26739 0.56 0.0
C2321 C 0.35657 0.26164 0.56824 0.0
C2322 C 0.34454 0.24964 0.55728 0.0
C2323 C 0.34685 0.24379 0.53809 0.0
C2324 C 0.38392 0.28024 0.57121 0.0
C2325 C 0.32917 0.24315 0.5656 0.0
H2326 H 0.35069 0.26454 0.64284 0.0
H2327 H 0.34536 0.29406 0.60304 0.0
H2328 H 0.34858 0.24044 0.60278 0.0
H2329 H 0.36771 0.25373 0.60398 0.0
H2330 H 0.35721 0.24807 0.62865 0.0
H2331 H 0.3494 0.29544 0.56562 0.0
H2332 H 0.36176 0.28987 0.55596 0.0
H2333 H 0.34252 0.2772 0.55379 0.0
H2334 H 0.38378 0.26556 0.53467 0.0
H2335 H 0.33754 0.23495 0.52938 0.0
H2336 H 0.38451 0.27745 0.5882 0.0
H2337 H 0.38282 0.29009 0.57175 0.0
H2338 H 0.3943 0.28325 0.56294 0.0
H2339 H 0.32845 0.23973 0.58262 0.0
H2340 H 0.32108 0.23337 0.55575 0.0
H2341 H 0.32613 0.25167 0.56547 0.0
C2342 C 0.73343 0.06928 0.60863 0.0
C2343 C 0.72074 0.06797 0.61737 0.0
C2344 C 0.74014 0.07782 0.59034 0.0
C2345 C 0.73394 0.08515 0.58041 0.0
C2346 C 0.72129 0.08413 0.58937 0.0
C2347 C 0.71486 0.07559 0.60783 0.0
C2348 C 0.7537 0.07873 0.58136 0.0
C2349 C 0.71432 0.09171 0.57913 0.0
C2350 C 0.75835 0.11528 0.54107 0.0
C2351 C 0.75436 0.1073 0.52132 0.0
C2352 C 0.75148 0.10835 0.56046 0.0
C2353 C 0.7403 0.09315 0.55994 0.0
C2354 C 0.73583 0.08524 0.53989 0.0
C2355 C 0.74296 0.0924 0.52084 0.0
C2356 C 0.7566 0.1171 0.58156 0.0
C2357 C 0.72384 0.06907 0.53861 0.0
H2358 H 0.73811 0.06353 0.616 0.0
H2359 H 0.70505 0.07464 0.6145 0.0
H2360 H 0.75144 0.07353 0.56491 0.0
H2361 H 0.76258 0.0905 0.57982 0.0
H2362 H 0.75761 0.07308 0.5917 0.0
H2363 H 0.70499 0.09051 0.58875 0.0
H2364 H 0.72247 0.1037 0.57731 0.0
H2365 H 0.71037 0.08692 0.56265 0.0
H2366 H 0.76722 0.12678 0.54147 0.0
H2367 H 0.73973 0.08628 0.50551 0.0
H2368 H 0.7618 0.11261 0.59164 0.0
H2369 H 0.7472 0.11598 0.59084 0.0
H2370 H 0.76459 0.12907 0.57903 0.0
H2371 H 0.72734 0.06231 0.547 0.0
H2372 H 0.72095 0.06485 0.52163 0.0
H2373 H 0.71392 0.0674 0.54696 0.0
C2374 C 0.92747 0.65658 0.62198 0.0
C2375 C 0.94042 0.65688 0.61746 0.0
C2376 C 0.91762 0.65421 0.6054 0.0
C2377 C 0.92074 0.65195 0.58381 0.0
C2378 C 0.93372 0.65208 0.57917 0.0
C2379 C 0.94343 0.6546 0.59603 0.0
C2380 C 0.90395 0.65426 0.61095 0.0
C2381 C 0.93737 0.6496 0.55637 0.0
C2382 C 0.89015 0.63288 0.54243 0.0
C2383 C 0.89223 0.64491 0.53042 0.0
C2384 C 0.89919 0.63503 0.56007 0.0
C2385 C 0.91052 0.64957 0.56598 0.0
C2386 C 0.91241 0.6618 0.55435 0.0
C2387 C 0.90329 0.65932 0.53667 0.0
C2388 C 0.89683 0.6217 0.57208 0.0
C2389 C 0.92432 0.67748 0.56025 0.0
H2390 H 0.92508 0.65839 0.63848 0.0
H2391 H 0.95338 0.65476 0.5924 0.0
H2392 H 0.90378 0.66312 0.60202 0.0
H2393 H 0.89419 0.64355 0.60582 0.0
H2394 H 0.90308 0.65609 0.62856 0.0
H2395 H 0.94778 0.64979 0.55553 0.0
H2396 H 0.92851 0.63874 0.5498 0.0
H2397 H 0.93823 0.65829 0.54571 0.0
H2398 H 0.88149 0.62174 0.53793 0.0
H2399 H 0.90512 0.66867 0.52733 0.0
H2400 H 0.89522 0.623 0.58959 0.0
H2401 H 0.90665 0.62085 0.57053 0.0
H2402 H 0.88726 0.61118 0.56588 0.0
H2403 H 0.92354 0.67993 0.57762 0.0
H2404 H 0.92382 0.68583 0.55039 0.0
H2405 H 0.93514 0.67874 0.55778 0.0
C2406 C 0.92806 0.68206 0.72286 0.0
C2407 C 0.93982 0.67991 0.72395 0.0
C2408 C 0.9228 0.68558 0.74154 0.0
C2409 C 0.92953 0.68707 0.76176 0.0
C2410 C 0.94156 0.68516 0.76291 0.0
C2411 C 0.94654 0.68156 0.74401 0.0
C2412 C 0.90989 0.68746 0.73971 0.0
C2413 C 0.94909 0.68675 0.78417 0.0
C2414 C 0.92425 0.70786 0.80853 0.0
C2415 C 0.91387 0.69616 0.82116 0.0
C2416 C 0.9293 0.70508 0.78899 0.0
C2417 C 0.92378 0.69025 0.78185 0.0
C2418 C 0.91308 0.6784 0.79426 0.0
C2419 C 0.9083 0.6815 0.81379 0.0
C2420 C 0.94073 0.718 0.77618 0.0
C2421 C 0.90691 0.66243 0.78715 0.0
H2422 H 0.92279 0.68079 0.70743 0.0
H2423 H 0.95567 0.67997 0.745 0.0
H2424 H 0.90071 0.67904 0.74954 0.0
H2425 H 0.91275 0.69853 0.74626 0.0
H2426 H 0.90613 0.68632 0.72271 0.0
H2427 H 0.95858 0.68536 0.7822 0.0
H2428 H 0.95292 0.69784 0.79168 0.0
H2429 H 0.94128 0.67836 0.7956 0.0
H2430 H 0.92846 0.71922 0.81395 0.0
H2431 H 0.90045 0.67239 0.82359 0.0
H2432 H 0.93679 0.71735 0.75944 0.0
H2433 H 0.95076 0.71751 0.77495 0.0
H2434 H 0.94361 0.72887 0.78366 0.0
H2435 H 0.90241 0.66053 0.77052 0.0
H2436 H 0.89816 0.65453 0.79812 0.0
H2437 H 0.91571 0.65994 0.78672 0.0
C2438 C 0.33165 0.28762 0.75176 0.0
C2439 C 0.3275 0.28196 0.73054 0.0
C2440 C 0.33007 0.27834 0.76873 0.0
C2441 C 0.32413 0.26302 0.76442 0.0
C2442 C 0.31969 0.25718 0.74312 0.0
C2443 C 0.32146 0.26673 0.72642 0.0
C2444 C 0.33496 0.28499 0.79123 0.0
C2445 C 0.31323 0.24088 0.73795 0.0
C2446 C 0.33392 0.24312 0.80463 0.0
C2447 C 0.32165 0.2367 0.81817 0.0
C2448 C 0.33471 0.25139 0.78673 0.0
C2449 C 0.3229 0.25323 0.78219 0.0
C2450 C 0.31027 0.24634 0.79531 0.0
C2451 C 0.30981 0.23819 0.81318 0.0
C2452 C 0.34835 0.25853 0.77307 0.0
C2453 C 0.29744 0.248 0.79093 0.0
H2454 H 0.33633 0.29937 0.7551 0.0
H2455 H 0.3182 0.26225 0.71008 0.0
H2456 H 0.32577 0.27933 0.80279 0.0
H2457 H 0.34373 0.2833 0.79677 0.0
H2458 H 0.33911 0.29707 0.79196 0.0
H2459 H 0.30989 0.23801 0.7207 0.0
H2460 H 0.32129 0.23771 0.74155 0.0
H2461 H 0.30357 0.23412 0.74831 0.0
H2462 H 0.34302 0.24183 0.8082 0.0
H2463 H 0.30036 0.23342 0.8237 0.0
H2464 H 0.35375 0.27079 0.77431 0.0
H2465 H 0.34555 0.25526 0.75578 0.0
H2466 H 0.35626 0.25544 0.77813 0.0
H2467 H 0.30073 0.25977 0.79345 0.0
H2468 H 0.28803 0.24105 0.80164 0.0
H2469 H 0.29388 0.2449 0.77382 0.0
C2470 C 0.71575 0.06859 0.73995 0.0
C2471 C 0.72464 0.07067 0.72193 0.0
C2472 C 0.72179 0.07569 0.75992 0.0
C2473 C 0.73711 0.08503 0.76197 0.0
C2474 C 0.74616 0.08711 0.7439 0.0
C2475 C 0.73982 0.07992 0.72408 0.0
C2476 C 0.71179 0.07321 0.77883 0.0
C2477 C 0.76254 0.09693 0.74552 0.0
C2478 C 0.75183 0.11354 0.8083 0.0
C2479 C 0.75541 0.10643 0.82365 0.0
C2480 C 0.74595 0.10675 0.78808 0.0
C2481 C 0.74364 0.09253 0.7831 0.0
C2482 C 0.74732 0.08534 0.79846 0.0
C2483 C 0.75312 0.09236 0.81856 0.0
C2484 C 0.74216 0.11475 0.77208 0.0
C2485 C 0.74499 0.07017 0.79375 0.0
H2486 H 0.70401 0.06148 0.73844 0.0
H2487 H 0.74677 0.08158 0.71026 0.0
H2488 H 0.71446 0.06842 0.79244 0.0
H2489 H 0.7134 0.08397 0.78472 0.0
H2490 H 0.70011 0.06565 0.77453 0.0
H2491 H 0.76805 0.09738 0.72997 0.0
H2492 H 0.76564 0.10837 0.75048 0.0
H2493 H 0.76669 0.09281 0.75816 0.0
H2494 H 0.75372 0.12448 0.81203 0.0
H2495 H 0.75563 0.08668 0.83046 0.0
H2496 H 0.73036 0.108 0.76815 0.0
H2497 H 0.74821 0.11626 0.75674 0.0
H2498 H 0.74475 0.12581 0.77837 0.0
H2499 H 0.73323 0.062 0.79091 0.0
H2500 H 0.74878 0.06627 0.80722 0.0
H2501 H 0.75088 0.07036 0.77878 0.0
C2502 C 0.04686 0.36994 0.02938 0.0
C2503 C 0.0367 0.36073 0.0135 0.0
C2504 C 0.05763 0.36736 0.03648 0.0
C2505 C 0.05828 0.35527 0.02748 0.0
C2506 C 0.04849 0.34633 0.01076 0.0
C2507 C 0.0378 0.34917 0.00397 0.0
C2508 C 0.06792 0.37719 0.05429 0.0
C2509 C 0.0489 0.33339 0.00071 0.0
C2510 C 0.09282 0.35548 0.04009 0.0
C2511 C 0.08857 0.34667 0.05851 0.0
C2512 C 0.08291 0.35788 0.02917 0.0
C2513 C 0.06844 0.35135 0.0369 0.0
C2514 C 0.06392 0.34191 0.05487 0.0
C2515 C 0.07404 0.3397 0.06545 0.0
C2516 C 0.08808 0.36791 0.00994 0.0
C2517 C 0.04858 0.33473 0.06363 0.0
H2518 H 0.04617 0.37897 0.03674 0.0
H2519 H 0.03004 0.34203 0.99162 0.0
H2520 H 0.06588 0.3706 0.06904 0.0
H2521 H 0.07939 0.38155 0.04938 0.0
H2522 H 0.06664 0.38671 0.05852 0.0
H2523 H 0.04158 0.3285 0.98642 0.0
H2524 H 0.06016 0.33691 0.99567 0.0
H2525 H 0.04548 0.32464 0.01287 0.0
H2526 H 0.104 0.36076 0.0345 0.0
H2527 H 0.0707 0.33306 0.07985 0.0
H2528 H 0.08832 0.37828 0.01423 0.0
H2529 H 0.08042 0.36251 0.99615 0.0
H2530 H 0.09916 0.37087 0.0046 0.0
H2531 H 0.04668 0.34342 0.07028 0.0
H2532 H 0.04651 0.32682 0.07665 0.0
H2533 H 0.04054 0.32872 0.05046 0.0
C2534 C 0.65822 0.68725 0.00432 0.0
C2535 C 0.65128 0.67578 0.01921 0.0
C2536 C 0.66233 0.70186 0.01014 0.0
C2537 C 0.65954 0.70509 0.03139 0.0
C2538 C 0.65202 0.69346 0.0462 0.0
C2539 C 0.64792 0.67894 0.0399 0.0
C2540 C 0.67018 0.71394 0.99382 0.0
C2541 C 0.64888 0.69645 0.06906 0.0
C2542 C 0.68478 0.74314 0.05683 0.0
C2543 C 0.67618 0.7495 0.05651 0.0
C2544 C 0.67963 0.72886 0.04815 0.0
C2545 C 0.66553 0.72073 0.03881 0.0
C2546 C 0.65698 0.72727 0.03772 0.0
C2547 C 0.66238 0.74157 0.0467 0.0
C2548 C 0.68906 0.72225 0.04978 0.0
C2549 C 0.64198 0.71901 0.02765 0.0
H2550 H 0.66076 0.6849 0.98824 0.0
H2551 H 0.64252 0.67015 0.0515 0.0
H2552 H 0.66506 0.72067 0.99292 0.0
H2553 H 0.68166 0.72151 0.99901 0.0
H2554 H 0.67016 0.7094 0.97738 0.0
H2555 H 0.6421 0.68608 0.07812 0.0
H2556 H 0.65929 0.70349 0.07794 0.0
H2557 H 0.64317 0.70263 0.06889 0.0
H2558 H 0.69535 0.7491 0.0647 0.0
H2559 H 0.65574 0.74649 0.04628 0.0
H2560 H 0.69046 0.7184 0.03356 0.0
H2561 H 0.68365 0.71243 0.06026 0.0
H2562 H 0.70001 0.73028 0.05661 0.0
H2563 H 0.64242 0.71479 0.01119 0.0
H2564 H 0.63723 0.72609 0.02648 0.0
H2565 H 0.63458 0.70925 0.03749 0.0
C2566 C 0.31804 0.95129 0.00234 0.0
C2567 C 0.32537 0.96452 0.01473 0.0
C2568 C 0.3051 0.93893 0.00982 0.0
C2569 C 0.29934 0.93986 0.03011 0.0
C2570 C 0.3065 0.9533 0.04245 0.0
C2571 C 0.31944 0.96545 0.03463 0.0
C2572 C 0.29777 0.92477 0.99625 0.0
C2573 C 0.30067 0.95475 0.06414 0.0
C2574 C 0.26002 0.91259 0.04572 0.0
C2575 C 0.26163 0.90342 0.05994 0.0
C2576 C 0.27214 0.9242 0.03524 0.0
C2577 C 0.28618 0.92665 0.03903 0.0
C2578 C 0.28779 0.91704 0.0526 0.0
C2579 C 0.27551 0.90558 0.06294 0.0
C2580 C 0.26999 0.93419 0.02081 0.0
C2581 C 0.30258 0.91926 0.05701 0.0
H2582 H 0.32254 0.95048 0.98693 0.0
H2583 H 0.32498 0.97564 0.04427 0.0
H2584 H 0.29788 0.91584 0.00507 0.0
H2585 H 0.28619 0.92106 0.99338 0.0
H2586 H 0.30321 0.92608 0.98035 0.0
H2587 H 0.30721 0.96614 0.0713 0.0
H2588 H 0.28922 0.95185 0.06243 0.0
H2589 H 0.30067 0.94687 0.07561 0.0
H2590 H 0.2493 0.91087 0.0431 0.0
H2591 H 0.27692 0.89872 0.07413 0.0
H2592 H 0.27522 0.93514 0.00485 0.0
H2593 H 0.27532 0.94551 0.02823 0.0
H2594 H 0.25828 0.9301 0.01819 0.0
H2595 H 0.30828 0.92002 0.04156 0.0
H2596 H 0.30183 0.91013 0.06652 0.0
H2597 H 0.3094 0.92987 0.06616 0.0
C2598 C 0.36338 0.04828 0.99195 0.0
C2599 C 0.35425 0.03874 0.00808 0.0
C2600 C 0.36168 0.05968 0.98448 0.0
C2601 C 0.35056 0.06159 0.99332 0.0
C2602 C 0.34154 0.05225 0.00999 0.0
C2603 C 0.3435 0.04093 0.01719 0.0
C2604 C 0.37156 0.06944 0.96671 0.0
C2605 C 0.32958 0.05397 0.0198 0.0
C2606 C 0.35447 0.09856 0.98165 0.0
C2607 C 0.34583 0.09498 0.96302 0.0
C2608 C 0.35564 0.08767 0.99233 0.0
C2609 C 0.34797 0.07286 0.98416 0.0
C2610 C 0.33869 0.06905 0.96599 0.0
C2611 C 0.33776 0.08015 0.95562 0.0
C2612 C 0.36557 0.09214 0.01174 0.0
C2613 C 0.33031 0.05338 0.95678 0.0
H2614 H 0.37177 0.04673 0.98488 0.0
H2615 H 0.33641 0.03363 0.02969 0.0
H2616 H 0.36502 0.06789 0.95205 0.0
H2617 H 0.37697 0.08129 0.97184 0.0
H2618 H 0.3801 0.06694 0.96227 0.0
H2619 H 0.32416 0.04649 0.0336 0.0
H2620 H 0.33404 0.0656 0.02551 0.0
H2621 H 0.32124 0.05147 0.0073 0.0
H2622 H 0.36059 0.10996 0.98762 0.0
H2623 H 0.33122 0.07728 0.94106 0.0
H2624 H 0.37508 0.09116 0.00755 0.0
H2625 H 0.3598 0.0846 0.02534 0.0
H2626 H 0.36963 0.10373 0.01734 0.0
H2627 H 0.33805 0.05041 0.94993 0.0
H2628 H 0.32261 0.05198 0.9438 0.0
H2629 H 0.32407 0.04543 0.96974 0.0
C2630 C 0.9661 0.32198 0.00039 0.0
C2631 C 0.96279 0.33312 0.00266 0.0
C2632 C 0.95557 0.30762 0.99314 0.0
C2633 C 0.94138 0.3043 0.98807 0.0
C2634 C 0.93779 0.31533 0.99111 0.0
C2635 C 0.94856 0.32962 0.99836 0.0
C2636 C 0.95982 0.29616 0.99011 0.0
C2637 C 0.92275 0.31217 0.98594 0.0
C2638 C 0.92102 0.27366 0.94587 0.0
C2639 C 0.91185 0.26147 0.9587 0.0
C2640 C 0.93042 0.28772 0.95523 0.0
C2641 C 0.93069 0.28966 0.97802 0.0
C2642 C 0.92126 0.27749 0.99107 0.0
C2643 C 0.91196 0.26351 0.98125 0.0
C2644 C 0.94036 0.30041 0.94075 0.0
C2645 C 0.92121 0.27917 0.01542 0.0
H2646 H 0.97705 0.32455 0.00376 0.0
H2647 H 0.94589 0.33815 0.00016 0.0
H2648 H 0.95203 0.28589 0.99869 0.0
H2649 H 0.95933 0.29316 0.97266 0.0
H2650 H 0.971 0.30021 0.99616 0.0
H2651 H 0.92135 0.32151 0.99095 0.0
H2652 H 0.92076 0.31014 0.96825 0.0
H2653 H 0.91433 0.302 0.9941 0.0
H2654 H 0.92119 0.27213 0.92847 0.0
H2655 H 0.9048 0.25415 0.99122 0.0
H2656 H 0.9519 0.30433 0.94446 0.0
H2657 H 0.93886 0.30989 0.94382 0.0
H2658 H 0.93836 0.2972 0.92329 0.0
H2659 H 0.93199 0.28224 0.02203 0.0
H2660 H 0.91269 0.26882 0.02316 0.0
H2661 H 0.91937 0.28827 0.02002 0.0
C2662 C 0.68361 0.64006 0.96851 0.0
C2663 C 0.67964 0.63978 0.99029 0.0
C2664 C 0.69823 0.64624 0.96251 0.0
C2665 C 0.70918 0.65223 0.97869 0.0
C2666 C 0.70522 0.65147 0.00078 0.0
C2667 C 0.69048 0.64527 0.00632 0.0
C2668 C 0.70201 0.64684 0.93876 0.0
C2669 C 0.71659 0.65767 0.01847 0.0
C2670 C 0.74617 0.65969 0.96025 0.0
C2671 C 0.75328 0.67473 0.95503 0.0
C2672 C 0.73201 0.65233 0.96888 0.0
C2673 C 0.72479 0.66018 0.97222 0.0
C2674 C 0.73212 0.67549 0.96776 0.0
C2675 C 0.74627 0.68258 0.95923 0.0
C2676 C 0.72459 0.63603 0.97365 0.0
C2677 C 0.72477 0.68425 0.97101 0.0
H2678 H 0.67531 0.63579 0.956 0.0
H2679 H 0.68751 0.64505 0.0232 0.0
H2680 H 0.70862 0.65858 0.93381 0.0
H2681 H 0.7087 0.64181 0.93582 0.0
H2682 H 0.69217 0.64098 0.9283 0.0
H2683 H 0.71165 0.65503 0.03488 0.0
H2684 H 0.72387 0.65322 0.01659 0.0
H2685 H 0.7235 0.66991 0.01723 0.0
H2686 H 0.75161 0.65363 0.95725 0.0
H2687 H 0.7516 0.69414 0.95496 0.0
H2688 H 0.71539 0.62954 0.96221 0.0
H2689 H 0.71996 0.63389 0.99024 0.0
H2690 H 0.73215 0.63189 0.97214 0.0
H2691 H 0.71544 0.67999 0.95965 0.0
H2692 H 0.73232 0.69628 0.96823 0.0
H2693 H 0.72035 0.68288 0.98768 0.0
C2694 C 0.95118 0.64052 0.96418 0.0
C2695 C 0.95544 0.6401 0.98536 0.0
C2696 C 0.94243 0.64636 0.95994 0.0
C2697 C 0.93789 0.652 0.97731 0.0
C2698 C 0.94158 0.65099 0.99884 0.0
C2699 C 0.95029 0.64501 0.00263 0.0
C2700 C 0.93861 0.64711 0.93675 0.0
C2701 C 0.93692 0.65688 0.01776 0.0
C2702 C 0.93178 0.68249 0.96067 0.0
C2703 C 0.91662 0.67471 0.95765 0.0
C2704 C 0.93873 0.67537 0.96814 0.0
C2705 C 0.93036 0.66005 0.97258 0.0
C2706 C 0.91499 0.65227 0.97059 0.0
C2707 C 0.9083 0.65971 0.96318 0.0
C2708 C 0.95515 0.68408 0.97015 0.0
C2709 C 0.9057 0.63595 0.97528 0.0
H2710 H 0.955 0.63663 0.95076 0.0
H2711 H 0.95353 0.64471 0.01906 0.0
H2712 H 0.92669 0.64218 0.93507 0.0
H2713 H 0.94404 0.65887 0.93199 0.0
H2714 H 0.94203 0.64122 0.9253 0.0
H2715 H 0.93928 0.6538 0.03356 0.0
H2716 H 0.94277 0.66916 0.01719 0.0
H2717 H 0.92509 0.65264 0.01683 0.0
H2718 H 0.93834 0.69402 0.95617 0.0
H2719 H 0.89656 0.65367 0.9612 0.0
H2720 H 0.95985 0.68003 0.95769 0.0
H2721 H 0.95848 0.68241 0.98622 0.0
H2722 H 0.95993 0.69616 0.96801 0.0
H2723 H 0.90773 0.62949 0.96282 0.0
H2724 H 0.89387 0.63192 0.97526 0.0
H2725 H 0.90863 0.63363 0.99121 0.0
C2726 C 0.35059 0.32471 -0.0004 0.0
C2727 C 0.36251 0.33621 0.98866 0.0
C2728 C 0.34554 0.30979 0.99447 0.0
C2729 C 0.35253 0.30628 0.97793 0.0
C2730 C 0.3649 0.31782 0.96738 0.0
C2731 C 0.36976 0.33266 0.97292 0.0
C2732 C 0.33238 0.29778 0.00618 0.0
C2733 C 0.37263 0.31451 0.94962 0.0
C2734 C 0.34566 0.2673 0.97096 0.0
C2735 C 0.33552 0.26156 0.95393 0.0
C2736 C 0.35105 0.28173 0.97937 0.0
C2737 C 0.34625 0.29062 0.97041 0.0
C2738 C 0.33575 0.28474 0.95359 0.0
C2739 C 0.33051 0.27029 0.94558 0.0
C2740 C 0.36213 0.28759 0.99746 0.0
C2741 C 0.33038 0.29388 0.94355 0.0
H2742 H 0.34497 0.32735 0.01191 0.0
H2743 H 0.379 0.34146 0.96443 0.0
H2744 H 0.32309 0.29187 0.99473 0.0
H2745 H 0.33468 0.28948 0.0124 0.0
H2746 H 0.32902 0.30231 0.01995 0.0
H2747 H 0.38265 0.32468 0.94405 0.0
H2748 H 0.37565 0.30662 0.9553 0.0
H2749 H 0.3652 0.30915 0.93557 0.0
H2750 H 0.34948 0.26055 0.97757 0.0
H2751 H 0.32288 0.26604 0.93215 0.0
H2752 H 0.35844 0.2918 0.01117 0.0
H2753 H 0.37263 0.29705 0.99169 0.0
H2754 H 0.36408 0.27899 0.0035 0.0
H2755 H 0.32593 0.29804 0.95624 0.0
H2756 H 0.32179 0.28746 0.93116 0.0
H2757 H 0.33961 0.3037 0.93577 0.0
C2758 C 0.67222 0.02555 0.97991 0.0
C2759 C 0.66833 0.02274 0.00178 0.0
C2760 C 0.68563 0.03786 0.97382 0.0
C2761 C 0.69527 0.04778 0.98998 0.0
C2762 C 0.69142 0.04502 0.0121 0.0
C2763 C 0.67803 0.03243 0.01776 0.0
C2764 C 0.68943 0.04028 0.95005 0.0
C2765 C 0.7013 0.05553 0.02974 0.0
C2766 C 0.73447 0.07316 0.97197 0.0
C2767 C 0.73432 0.0857 0.96549 0.0
C2768 C 0.72199 0.0609 0.98071 0.0
C2769 C 0.70913 0.06129 0.98345 0.0
C2770 C 0.70914 0.07422 0.97815 0.0
C2771 C 0.72165 0.08616 0.96902 0.0
C2772 C 0.72235 0.04726 0.986 0.0
C2773 C 0.69571 0.07517 0.98114 0.0
H2774 H 0.66482 0.01803 0.96749 0.0
H2775 H 0.67504 0.03032 0.03469 0.0
H2776 H 0.69056 0.05083 0.94513 0.0
H2777 H 0.70007 0.04123 0.94705 0.0
H2778 H 0.68105 0.03113 0.9396 0.0
H2779 H 0.69687 0.05161 0.04619 0.0
H2780 H 0.71222 0.0569 0.02851 0.0
H2781 H 0.70282 0.06664 0.02772 0.0
H2782 H 0.74426 0.07276 0.96977 0.0
H2783 H 0.72122 0.09561 0.96379 0.0
H2784 H 0.71497 0.03797 0.97483 0.0
H2785 H 0.71835 0.04372 0.0027 0.0
H2786 H 0.73348 0.04911 0.9845 0.0
H2787 H 0.6872 0.06752 0.96938 0.0
H2788 H 0.69802 0.08656 0.97868 0.0
H2789 H 0.69115 0.07168 0.99762 0.0
C2790 C 0.63358 0.95056 0.05096 0.0
C2791 C 0.63346 0.95437 0.02942 0.0
C2792 C 0.63884 0.94143 0.05636 0.0
C2793 C 0.64415 0.93596 0.03983 0.0
C2794 C 0.64358 0.93931 0.01796 0.0
C2795 C 0.63823 0.94848 0.013 0.0
C2796 C 0.63921 0.93809 0.07989 0.0
C2797 C 0.64912 0.93365 -9e-05 0.0
C2798 C 0.67255 0.92801 0.05922 0.0
C2799 C 0.66421 0.91265 0.06237 0.0
C2800 C 0.66627 0.9356 0.05097 0.0
C2801 C 0.65124 0.92768 0.0458 0.0
C2802 C 0.64285 0.91209 0.04809 0.0
C2803 C 0.64944 0.90475 0.05636 0.0
C2804 C 0.6756 0.95223 0.04879 0.0
C2805 C 0.62681 0.90326 0.04264 0.0
H2806 H 0.62982 0.95497 0.06375 0.0
H2807 H 0.63814 0.95134 0.99631 0.0
H2808 H 0.63371 0.92594 0.08201 0.0
H2809 H 0.65069 0.94313 0.08524 0.0
H2810 H 0.63386 0.94243 0.09062 0.0
H2811 H 0.64673 0.93612 0.98366 0.0
H2812 H 0.66109 0.93887 0.0015 0.0
H2813 H 0.64417 0.92149 0.00101 0.0
H2814 H 0.6839 0.93426 0.06413 0.0
H2815 H 0.64296 0.89286 0.0585 0.0
H2816 H 0.67191 0.9577 0.06055 0.0
H2817 H 0.67442 0.95545 0.03235 0.0
H2818 H 0.68733 0.95656 0.05179 0.0
H2819 H 0.62079 0.90628 0.05425 0.0
H2820 H 0.62217 0.89111 0.04332 0.0
H2821 H 0.62494 0.90593 0.02622 0.0
C2822 C 0.02422 0.68209 0.03078 0.0
C2823 C 0.025 0.67622 0.01053 0.0
C2824 C 0.03498 0.69648 0.03749 0.0
C2825 C 0.04695 0.7052 0.02372 0.0
C2826 C 0.04783 0.69938 0.00323 0.0
C2827 C 0.03678 0.68497 0.99681 0.0
C2828 C 0.03357 0.70231 0.0594 0.0
C2829 C 0.06053 0.70831 0.98826 0.0
C2830 C 0.06748 0.74647 0.03737 0.0
C2831 C 0.07849 0.74798 0.0511 0.0
C2832 C 0.0575 0.73273 0.02749 0.0
C2833 C 0.05865 0.72025 0.03125 0.0
C2834 C 0.07021 0.72188 0.04408 0.0
C2835 C 0.07992 0.73568 0.05396 0.0
C2836 C 0.04529 0.73141 0.01395 0.0
C2837 C 0.07188 0.70887 0.04835 0.0
H2838 H 0.01511 0.67546 0.04144 0.0
H2839 H 0.03747 0.68049 0.98115 0.0
H2840 H 0.04296 0.70485 0.06979 0.0
H2841 H 0.03375 0.71281 0.05757 0.0
H2842 H 0.02336 0.69428 0.06786 0.0
H2843 H 0.05945 0.70231 0.97268 0.0
H2844 H 0.06147 0.719 0.98476 0.0
H2845 H 0.07083 0.71098 0.99623 0.0
H2846 H 0.06644 0.75595 0.03474 0.0
H2847 H 0.08822 0.73661 0.06476 0.0
H2848 H 0.03475 0.72447 0.02239 0.0
H2849 H 0.04459 0.72583 0.99815 0.0
H2850 H 0.0467 0.74239 0.01092 0.0
H2851 H 0.06283 0.70091 0.05883 0.0
H2852 H 0.08237 0.71233 0.05651 0.0
H2853 H 0.07126 0.70289 0.03298 0.0
C2854 C 0.31354 0.366 0.02213 0.0
C2855 C 0.32004 0.3598 0.03389 0.0
C2856 C 0.29916 0.36221 0.02643 0.0
C2857 C 0.29114 0.35199 0.04286 0.0
C2858 C 0.29764 0.34568 0.05472 0.0
C2859 C 0.312 0.34967 0.0501 0.0
C2860 C 0.29256 0.36916 0.01351 0.0
C2861 C 0.28945 0.33474 0.0724 0.0
C2862 C 0.25948 0.35062 0.07241 0.0
C2863 C 0.24756 0.33754 0.06367 0.0
C2864 C 0.27367 0.35598 0.06484 0.0
C2865 C 0.27603 0.34802 0.04819 0.0
C2866 C 0.26399 0.33531 0.03842 0.0
C2867 C 0.24988 0.33022 0.04628 0.0
C2868 C 0.28622 0.36959 0.07567 0.0
C2869 C 0.26606 0.32657 0.02054 0.0
H2870 H 0.31969 0.37383 0.00954 0.0
H2871 H 0.31691 0.3448 0.05925 0.0
H2872 H 0.28244 0.36039 0.00538 0.0
H2873 H 0.28949 0.37555 0.02449 0.0
H2874 H 0.30016 0.37672 0.00103 0.0
H2875 H 0.29602 0.33072 0.07991 0.0
H2876 H 0.28622 0.33999 0.08526 0.0
H2877 H 0.2793 0.32504 0.06575 0.0
H2878 H 0.25784 0.35626 0.08604 0.0
H2879 H 0.2407 0.32022 0.03925 0.0
H2880 H 0.29372 0.37741 0.06338 0.0
H2881 H 0.29257 0.3663 0.08551 0.0
H2882 H 0.28246 0.3755 0.08645 0.0
H2883 H 0.27336 0.33408 0.00781 0.0
H2884 H 0.25556 0.31805 0.01295 0.0
H2885 H 0.27135 0.32091 0.02722 0.0
C2886 C 0.71246 0.69321 0.35804 0.0
C2887 C 0.70597 0.69719 0.37454 0.0
C2888 C 0.72163 0.68793 0.36299 0.0
C2889 C 0.72442 0.6867 0.38492 0.0
C2890 C 0.71835 0.69124 0.4016 0.0
C2891 C 0.70918 0.69638 0.3962 0.0
C2892 C 0.72787 0.68315 0.34478 0.0
C2893 C 0.72115 0.69021 0.4252 0.0
C2894 C 0.73295 0.65803 0.40249 0.0
C2895 C 0.74794 0.66678 0.40693 0.0
C2896 C 0.72532 0.66428 0.39433 0.0
C2897 C 0.73282 0.67971 0.39068 0.0
C2898 C 0.74804 0.68853 0.39428 0.0
C2899 C 0.75544 0.68195 0.40232 0.0
C2900 C 0.70909 0.65447 0.39062 0.0
C2901 C 0.75641 0.70501 0.39053 0.0
H2902 H 0.71004 0.6938 0.34125 0.0
H2903 H 0.70432 0.69954 0.40905 0.0
H2904 H 0.73982 0.68845 0.34685 0.0
H2905 H 0.72302 0.67097 0.34515 0.0
H2906 H 0.7257 0.68598 0.32864 0.0
H2907 H 0.7164 0.69509 0.43614 0.0
H2908 H 0.71637 0.67841 0.42935 0.0
H2909 H 0.73304 0.69601 0.42834 0.0
H2910 H 0.72698 0.64636 0.4063 0.0
H2911 H 0.76705 0.68876 0.4054 0.0
H2912 H 0.70619 0.6561 0.3742 0.0
H2913 H 0.70322 0.65754 0.40247 0.0
H2914 H 0.70514 0.64252 0.39238 0.0
H2915 H 0.75404 0.7073 0.37416 0.0
H2916 H 0.76837 0.71005 0.39216 0.0
H2917 H 0.7529 0.71055 0.40245 0.0
C2918 C 0.31135 0.0108 0.37013 0.0
C2919 C 0.29713 0.0007 0.36282 0.0
C2920 C 0.31591 0.02558 0.37523 0.0
C2921 C 0.30604 0.03047 0.37283 0.0
C2922 C 0.29174 0.02043 0.36511 0.0
C2923 C 0.28742 0.00562 0.36027 0.0
C2924 C 0.33124 0.03591 0.38355 0.0
C2925 C 0.28098 0.02531 0.36221 0.0
C2926 C 0.3156 0.06421 0.40802 0.0
C2927 C 0.32379 0.0758 0.39372 0.0
C2928 C 0.30905 0.04934 0.4011 0.0
C2929 C 0.3107 0.04597 0.37932 0.0
C2930 C 0.31824 0.05759 0.36449 0.0
C2931 C 0.32476 0.07239 0.3719 0.0
C2932 C 0.30119 0.03729 0.41747 0.0
C2933 C 0.32008 0.05442 0.34108 0.0
H2934 H 0.31895 0.00713 0.37216 0.0
H2935 H 0.27644 0.9979 0.35452 0.0
H2936 H 0.33706 0.04571 0.37308 0.0
H2937 H 0.33087 0.04005 0.40011 0.0
H2938 H 0.33763 0.03043 0.38411 0.0
H2939 H 0.27052 0.01635 0.35505 0.0
H2940 H 0.27869 0.0288 0.3781 0.0
H2941 H 0.2857 0.03506 0.3516 0.0
H2942 H 0.31497 0.06675 0.42497 0.0
H2943 H 0.33094 0.08131 0.36073 0.0
H2944 H 0.30762 0.03206 0.42055 0.0
H2945 H 0.29041 0.02847 0.41112 0.0
H2946 H 0.29956 0.04164 0.43313 0.0
H2947 H 0.32762 0.05025 0.34002 0.0
H2948 H 0.32457 0.06447 0.3311 0.0
H2949 H 0.30948 0.04565 0.33408 0.0
C2950 C 0.99339 0.30542 0.36436 0.0
C2951 C 0.00607 0.30581 0.37059 0.0
C2952 C 0.97953 0.29369 0.37026 0.0
C2953 C 0.97834 0.28211 0.38281 0.0
C2954 C 0.99107 0.28223 0.38863 0.0
C2955 C 0.00479 0.29405 0.38239 0.0
C2956 C 0.9662 0.2939 0.3636 0.0
C2957 C 0.99024 0.2701 0.40208 0.0
C2958 C 0.94559 0.26115 0.41959 0.0
C2959 C 0.93725 0.2476 0.40822 0.0
C2960 C 0.95884 0.27255 0.41128 0.0
C2961 C 0.96388 0.27039 0.39106 0.0
C2962 C 0.95534 0.2569 0.37921 0.0
C2963 C 0.94214 0.24563 0.38797 0.0
C2964 C 0.96765 0.28675 0.42447 0.0
C2965 C 0.9603 0.25426 0.35749 0.0
H2966 H 0.99427 0.31442 0.35511 0.0
H2967 H 0.01452 0.29425 0.38725 0.0
H2968 H 0.9582 0.28322 0.35548 0.0
H2969 H 0.96081 0.2952 0.37819 0.0
H2970 H 0.96891 0.30308 0.35249 0.0
H2971 H 0.00108 0.27141 0.40429 0.0
H2972 H 0.98571 0.27019 0.41828 0.0
H2973 H 0.98278 0.25908 0.39436 0.0
H2974 H 0.94202 0.26266 0.43541 0.0
H2975 H 0.93568 0.23522 0.37906 0.0
H2976 H 0.97002 0.29642 0.41473 0.0
H2977 H 0.97827 0.2882 0.42897 0.0
H2978 H 0.96196 0.28687 0.43953 0.0
H2979 H 0.96263 0.2633 0.34638 0.0
H2980 H 0.95205 0.24348 0.34982 0.0
H2981 H 0.97058 0.25437 0.35947 0.0
C2982 C 0.03095 0.38821 0.3414 0.0
C2983 C 0.02441 0.37473 0.32956 0.0
C2984 C 0.02804 0.39929 0.33647 0.0
C2985 C 0.01843 0.39684 0.31924 0.0
C2986 C 0.01165 0.38318 0.30745 0.0
C2987 C 0.01469 0.37229 0.31279 0.0
C2988 C 0.0354 0.41369 0.34946 0.0
C2989 C 0.00138 0.38017 0.28888 0.0
C2990 C 0.00054 0.41933 0.31281 0.0
C2991 C 0.00901 0.42895 0.29629 0.0
C2992 C 0.00387 0.40925 0.3212 0.0
C2993 C 0.01588 0.40873 0.31276 0.0
C2994 C 0.02481 0.41881 0.29672 0.0
C2995 C 0.02127 0.4288 0.28869 0.0
C2996 C 0.99419 0.39875 0.33846 0.0
C2997 C 0.03767 0.41856 0.28721 0.0
H2998 H 0.03843 0.39016 0.35445 0.0
H2999 H 0.00956 0.36191 0.30357 0.0
H3000 H 0.04267 0.423 0.33879 0.0
H3001 H 0.02714 0.41597 0.35612 0.0
H3002 H 0.04198 0.41356 0.36306 0.0
H3003 H 0.9967 0.36883 0.28172 0.0
H3004 H 0.9923 0.38152 0.29447 0.0
H3005 H 0.00725 0.38833 0.27599 0.0
H3006 H 0.99114 0.41951 0.31888 0.0
H3007 H 0.02774 0.43603 0.2757 0.0
H3008 H 0.00085 0.39894 0.35215 0.0
H3009 H 0.98812 0.38725 0.33167 0.0
H3010 H 0.98618 0.40154 0.34479 0.0
H3011 H 0.04491 0.41909 0.30028 0.0
H3012 H 0.04419 0.4279 0.27615 0.0
H3013 H 0.03375 0.40799 0.27799 0.0
C3014 C 0.61903 0.6638 0.34326 0.0
C3015 C 0.63354 0.66777 0.33986 0.0
C3016 C 0.60738 0.64961 0.33718 0.0
C3017 C 0.61035 0.63917 0.32759 0.0
C3018 C 0.62497 0.64301 0.32462 0.0
C3019 C 0.63636 0.65725 0.33073 0.0
C3020 C 0.59193 0.64592 0.3405 0.0
C3021 C 0.62859 0.63215 0.31456 0.0
C3022 C 0.58257 0.59777 0.32427 0.0
C3023 C 0.5786 0.59577 0.30232 0.0
C3024 C 0.59237 0.61196 0.33307 0.0
C3025 C 0.59828 0.62444 0.31962 0.0
C3026 C 0.5937 0.62259 0.29779 0.0
C3027 C 0.58398 0.6083 0.28939 0.0
C3028 C 0.59697 0.61349 0.35645 0.0
C3029 C 0.5997 0.63562 0.28291 0.0
H3030 H 0.61675 0.67186 0.35031 0.0
H3031 H 0.64753 0.66018 0.32817 0.0
H3032 H 0.58648 0.64393 0.32457 0.0
H3033 H 0.58562 0.63557 0.34972 0.0
H3034 H 0.59146 0.65495 0.3493 0.0
H3035 H 0.64051 0.63665 0.31426 0.0
H3036 H 0.62319 0.6217 0.32368 0.0
H3037 H 0.62441 0.62932 0.2977 0.0
H3038 H 0.5783 0.58819 0.33446 0.0
H3039 H 0.58118 0.6069 0.27234 0.0
H3040 H 0.59619 0.62244 0.36487 0.0
H3041 H 0.60854 0.61664 0.35722 0.0
H3042 H 0.59024 0.60302 0.36532 0.0
H3043 H 0.59891 0.64475 0.29063 0.0
H3044 H 0.59389 0.63255 0.26712 0.0
H3045 H 0.61142 0.63995 0.27979 0.0
C3046 C 0.34752 0.96965 0.34057 0.0
C3047 C 0.34174 0.97695 0.32981 0.0
C3048 C 0.36144 0.97235 0.33539 0.0
C3049 C 0.36969 0.98249 0.31898 0.0
C3050 C 0.36397 0.99 0.30827 0.0
C3051 C 0.3501 0.98718 0.31386 0.0
C3052 C 0.36724 0.96421 0.34723 0.0
C3053 C 0.37239 0.00085 0.29059 0.0
C3054 C 0.41056 0.00021 0.3123 0.0
C3055 C 0.41122 0.992 0.29459 0.0
C3056 C 0.3971 0.99673 0.32126 0.0
C3057 C 0.38403 0.98485 0.31215 0.0
C3058 C 0.38468 0.9761 0.29496 0.0
C3059 C 0.39825 0.97978 0.28641 0.0
C3060 C 0.39685 0.00622 0.33975 0.0
C3061 C 0.37099 0.96339 0.28472 0.0
H3062 H 0.34115 0.96179 0.35299 0.0
H3063 H 0.34574 0.99289 0.30547 0.0
H3064 H 0.36878 0.95693 0.33568 0.0
H3065 H 0.37807 0.97224 0.35437 0.0
H3066 H 0.35982 0.95728 0.36035 0.0
H3067 H 0.36653 0.00603 0.28421 0.0
H3068 H 0.38318 0.00977 0.29678 0.0
H3069 H 0.37438 0.99507 0.27697 0.0
H3070 H 0.42056 0.00958 0.31881 0.0
H3071 H 0.39865 0.97351 0.27252 0.0
H3072 H 0.38958 0.99914 0.35286 0.0
H3073 H 0.39242 0.01292 0.33397 0.0
H3074 H 0.40789 0.01388 0.3466 0.0
H3075 H 0.36356 0.95586 0.29731 0.0
H3076 H 0.37338 0.95684 0.2729 0.0
H3077 H 0.3651 0.96779 0.27615 0.0
C3078 C 0.61922 0.96732 0.32724 0.0
C3079 C 0.63195 0.97505 0.3148 0.0
C3080 C 0.6065 0.96709 0.3217 0.0
C3081 C 0.60649 0.9747 0.30322 0.0
C3082 C 0.61938 0.98273 0.29083 0.0
C3083 C 0.63195 0.98285 0.29681 0.0
C3084 C 0.59299 0.95848 0.33537 0.0
C3085 C 0.61978 0.99093 0.27093 0.0
C3086 C 0.57141 0.96216 0.27283 0.0
C3087 C 0.56854 0.97328 0.27874 0.0
C3088 C 0.58345 0.96222 0.28128 0.0
C3089 C 0.59286 0.97366 0.29605 0.0
C3090 C 0.58971 0.98459 0.30276 0.0
C3091 C 0.5776 0.9843 0.29395 0.0
C3092 C 0.58647 0.95041 0.27362 0.0
C3093 C 0.59942 0.99687 0.31865 0.0
H3094 H 0.61915 0.96133 0.34125 0.0
H3095 H 0.64174 0.98888 0.28712 0.0
H3096 H 0.58883 0.9657 0.34061 0.0
H3097 H 0.58427 0.94914 0.32563 0.0
H3098 H 0.59503 0.95393 0.34997 0.0
H3099 H 0.6308 0.99707 0.26349 0.0
H3100 H 0.61196 0.98296 0.25867 0.0
H3101 H 0.61638 0.99894 0.27512 0.0
H3102 H 0.5646 0.95375 0.26082 0.0
H3103 H 0.57536 0.99284 0.29869 0.0
H3104 H 0.58789 0.94498 0.28767 0.0
H3105 H 0.59678 0.95559 0.26426 0.0
H3106 H 0.57758 0.94176 0.26319 0.0
H3107 H 0.60116 0.99218 0.33333 0.0
H3108 H 0.59479 0.00374 0.32362 0.0
H3109 H 0.61026 0.00419 0.31123 0.0
C3110 C 0.03498 0.66542 0.35633 0.0
C3111 C 0.02858 0.67149 0.34403 0.0
C3112 C 0.03482 0.65264 0.34904 0.0
C3113 C 0.02808 0.6458 0.32903 0.0
C3114 C 0.02127 0.65165 0.31684 0.0
C3115 C 0.02162 0.66442 0.32447 0.0
C3116 C 0.04218 0.6467 0.36245 0.0
C3117 C 0.01392 0.64463 0.29544 0.0
C3118 C 0.03977 0.62348 0.2951 0.0
C3119 C 0.0281 0.60892 0.29808 0.0
C3120 C 0.04026 0.63553 0.30596 0.0
C3121 C 0.02875 0.63299 0.32007 0.0
C3122 C 0.01729 0.61828 0.32398 0.0
C3123 C 0.01711 0.60641 0.31294 0.0
C3124 C 0.0527 0.65106 0.30138 0.0
C3125 C 0.00487 0.61513 0.339 0.0
H3126 H 0.04035 0.6708 0.37148 0.0
H3127 H 0.01657 0.66896 0.31491 0.0
H3128 H 0.03457 0.63474 0.36543 0.0
H3129 H 0.05165 0.64775 0.35346 0.0
H3130 H 0.04608 0.6527 0.37829 0.0
H3131 H 0.00857 0.65015 0.28844 0.0
H3132 H 0.02208 0.64524 0.28367 0.0
H3133 H 0.00559 0.63272 0.29751 0.0
H3134 H 0.04821 0.62557 0.28343 0.0
H3135 H 0.00816 0.59517 0.31555 0.0
H3136 H 0.05749 0.65737 0.31675 0.0
H3137 H 0.04855 0.65703 0.29235 0.0
H3138 H 0.06145 0.65107 0.29165 0.0
H3139 H 0.00912 0.62113 0.35474 0.0
H3140 H 0.99764 0.60309 0.34204 0.0
H3141 H 0.99825 0.61919 0.3318 0.0
C3142 C 0.34436 0.36447 0.33242 0.0
C3143 C 0.33303 0.36315 0.31967 0.0
C3144 C 0.359 0.37486 0.32765 0.0
C3145 C 0.36239 0.38401 0.30952 0.0
C3146 C 0.35099 0.38302 0.29695 0.0
C3147 C 0.33643 0.37266 0.30228 0.0
C3148 C 0.37084 0.37575 0.34163 0.0
C3149 C 0.35417 0.39248 0.27736 0.0
C3150 C 0.40022 0.41822 0.30258 0.0
C3151 C 0.40663 0.41281 0.28816 0.0
C3152 C 0.38593 0.40889 0.31013 0.0
C3153 C 0.37783 0.39389 0.30281 0.0
C3154 C 0.38434 0.38834 0.28851 0.0
C3155 C 0.39868 0.39785 0.28145 0.0
C3156 C 0.37942 0.41513 0.32564 0.0
C3157 C 0.37602 0.37246 0.28015 0.0
H3158 H 0.34181 0.35723 0.34601 0.0
H3159 H 0.32774 0.37169 0.29234 0.0
H3160 H 0.37716 0.37198 0.33208 0.0
H3161 H 0.37856 0.3874 0.34696 0.0
H3162 H 0.36638 0.36879 0.35618 0.0
H3163 H 0.3441 0.39091 0.26994 0.0
H3164 H 0.36145 0.40439 0.28186 0.0
H3165 H 0.35996 0.38966 0.265 0.0
H3166 H 0.40638 0.42977 0.30786 0.0
H3167 H 0.4035 0.39369 0.27002 0.0
H3168 H 0.3753 0.40828 0.3403 0.0
H3169 H 0.36998 0.41474 0.31791 0.0
H3170 H 0.38743 0.42679 0.33069 0.0
H3171 H 0.37205 0.36475 0.29389 0.0
H3172 H 0.38276 0.36981 0.26943 0.0
H3173 H 0.3663 0.37033 0.27093 0.0
C3174 C 0.30585 0.2886 0.38992 0.0
C3175 C 0.30419 0.29171 0.3686 0.0
C3176 C 0.31083 0.27907 0.39422 0.0
C3177 C 0.31431 0.27251 0.37678 0.0
C3178 C 0.31213 0.27513 0.35521 0.0
C3179 C 0.30706 0.28469 0.35136 0.0
C3180 C 0.31291 0.27648 0.41748 0.0
C3181 C 0.31571 0.26832 0.33621 0.0
C3182 C 0.34293 0.26363 0.3911 0.0
C3183 C 0.33438 0.24851 0.39582 0.0
C3184 C 0.33657 0.27139 0.38381 0.0
C3185 C 0.32125 0.26388 0.38131 0.0
C3186 C 0.3126 0.24847 0.38505 0.0
C3187 C 0.31927 0.24096 0.39225 0.0
C3188 C 0.34619 0.28782 0.37994 0.0
C3189 C 0.29624 0.24007 0.38245 0.0
H3190 H 0.30354 0.29388 0.40334 0.0
H3191 H 0.30578 0.28702 0.33483 0.0
H3192 H 0.30721 0.26441 0.42047 0.0
H3193 H 0.32468 0.28123 0.42073 0.0
H3194 H 0.30878 0.28159 0.42915 0.0
H3195 H 0.31208 0.27028 0.32056 0.0
H3196 H 0.32766 0.27315 0.33548 0.0
H3197 H 0.31052 0.25619 0.3382 0.0
H3198 H 0.35457 0.26963 0.3941 0.0
H3199 H 0.31261 0.22923 0.39558 0.0
H3200 H 0.34391 0.2941 0.39236 0.0
H3201 H 0.34382 0.29052 0.36388 0.0
H3202 H 0.35797 0.2917 0.38068 0.0
H3203 H 0.29146 0.24383 0.3952 0.0
H3204 H 0.29127 0.2279 0.3837 0.0
H3205 H 0.29324 0.24239 0.36657 0.0
C3206 C 0.69939 0.0172 0.36189 0.0
C3207 C 0.70188 0.01028 0.34412 0.0
C3208 C 0.70993 0.03169 0.36861 0.0
C3209 C 0.72335 0.03944 0.35738 0.0
C3210 C 0.7259 0.0326 0.3393 0.0
C3211 C 0.71511 0.0181 0.33285 0.0
C3212 C 0.70678 0.03863 0.38793 0.0
C3213 C 0.7401 0.04051 0.327 0.0
C3214 C 0.74507 0.08122 0.36691 0.0
C3215 C 0.75449 0.08279 0.38367 0.0
C3216 C 0.73521 0.06723 0.3576 0.0
C3217 C 0.73483 0.05452 0.36514 0.0
C3218 C 0.74476 0.05611 0.38133 0.0
C3219 C 0.75441 0.07019 0.39045 0.0
C3220 C 0.7248 0.06597 0.34034 0.0
C3221 C 0.74474 0.04283 0.38975 0.0
H3222 H 0.68918 0.01128 0.37065 0.0
H3223 H 0.71713 0.01284 0.31909 0.0
H3224 H 0.71478 0.04117 0.401 0.0
H3225 H 0.70794 0.04927 0.38338 0.0
H3226 H 0.69563 0.03128 0.39447 0.0
H3227 H 0.7402 0.03385 0.31286 0.0
H3228 H 0.74215 0.05127 0.3212 0.0
H3229 H 0.74925 0.043 0.33792 0.0
H3230 H 0.74519 0.09091 0.36137 0.0
H3231 H 0.76146 0.07121 0.40362 0.0
H3232 H 0.71349 0.05976 0.34665 0.0
H3233 H 0.72521 0.05965 0.32601 0.0
H3234 H 0.72725 0.077 0.33505 0.0
H3235 H 0.73441 0.03562 0.39854 0.0
H3236 H 0.75399 0.04609 0.40095 0.0
H3237 H 0.74531 0.03612 0.37612 0.0
C3238 C 0.97799 0.69727 0.36836 0.0
C3239 C 0.98064 0.69542 0.34655 0.0
C3240 C 0.96376 0.69155 0.37605 0.0
C3241 C 0.95186 0.68388 0.36156 0.0
C3242 C 0.95446 0.68248 0.33935 0.0
C3243 C 0.96883 0.68822 0.33211 0.0
C3244 C 0.96145 0.69324 0.39988 0.0
C3245 C 0.94204 0.6745 0.32339 0.0
C3246 C 0.91632 0.65556 0.38795 0.0
C3247 C 0.90939 0.66358 0.39098 0.0
C3248 C 0.9299 0.66185 0.37764 0.0
C3249 C 0.93671 0.67652 0.37007 0.0
C3250 C 0.92948 0.68446 0.37221 0.0
C3251 C 0.91593 0.67791 0.38275 0.0
C3252 C 0.93728 0.65305 0.37581 0.0
C3253 C 0.93631 0.70005 0.36411 0.0
H3254 H 0.98704 0.70284 0.37964 0.0
H3255 H 0.97077 0.68681 0.31521 0.0
H3256 H 0.95481 0.6984 0.4021 0.0
H3257 H 0.95532 0.68214 0.40726 0.0
H3258 H 0.97188 0.70012 0.4088 0.0
H3259 H 0.94594 0.67551 0.30642 0.0
H3260 H 0.93541 0.66256 0.32725 0.0
H3261 H 0.93476 0.67897 0.32465 0.0
H3262 H 0.91144 0.64456 0.39454 0.0
H3263 H 0.91054 0.6841 0.38487 0.0
H3264 H 0.94731 0.65848 0.3859 0.0
H3265 H 0.94064 0.65279 0.35883 0.0
H3266 H 0.93012 0.64145 0.38117 0.0
H3267 H 0.94613 0.70766 0.37393 0.0
H3268 H 0.92869 0.70413 0.36507 0.0
H3269 H 0.93993 0.70058 0.34708 0.0
C3270 C 0.37671 0.02846 0.6869 0.0
C3271 C 0.37154 0.03388 0.70343 0.0
C3272 C 0.38575 0.023 0.69162 0.0
C3273 C 0.38968 0.02294 0.71338 0.0
C3274 C 0.3849 0.02886 0.73003 0.0
C3275 C 0.3759 0.03426 0.72486 0.0
C3276 C 0.39067 0.01681 0.67343 0.0
C3277 C 0.38887 0.02902 0.75345 0.0
C3278 C 0.3978 0.99414 0.73173 0.0
C3279 C 0.41302 0.00253 0.73412 0.0
C3280 C 0.39015 0.00054 0.72424 0.0
C3281 C 0.39788 0.01574 0.71906 0.0
C3282 C 0.41328 0.02418 0.72069 0.0
C3283 C 0.42067 0.01748 0.72823 0.0
C3284 C 0.37373 0.99116 0.72276 0.0
C3285 C 0.42189 0.0404 0.71518 0.0
H3286 H 0.37344 0.02817 0.67028 0.0
H3287 H 0.37203 0.03849 0.73773 0.0
H3288 H 0.40265 0.02184 0.67411 0.0
H3289 H 0.38556 0.00468 0.67526 0.0
H3290 H 0.38772 0.01881 0.65725 0.0
H3291 H 0.38501 0.03481 0.76428 0.0
H3292 H 0.38398 0.01746 0.75894 0.0
H3293 H 0.40087 0.03455 0.75522 0.0
H3294 H 0.39176 0.98266 0.73658 0.0
H3295 H 0.43244 0.02399 0.72983 0.0
H3296 H 0.37003 0.99193 0.70645 0.0
H3297 H 0.36886 0.99536 0.73468 0.0
H3298 H 0.36945 0.97929 0.726 0.0
H3299 H 0.41886 0.042 0.69882 0.0
H3300 H 0.43384 0.04509 0.71562 0.0
H3301 H 0.41925 0.04679 0.72687 0.0
C3302 C 0.94965 0.33197 0.70397 0.0
C3303 C 0.96187 0.33171 0.69661 0.0
C3304 C 0.95087 0.34535 0.71076 0.0
C3305 C 0.96457 0.35878 0.70963 0.0
C3306 C 0.97676 0.35865 0.70104 0.0
C3307 C 0.9753 0.34508 0.6949 0.0
C3308 C 0.9377 0.34499 0.72023 0.0
C3309 C 0.99146 0.37278 0.69912 0.0
C3310 C 0.96551 0.3951 0.71708 0.0
C3311 C 0.97 0.39881 0.73871 0.0
C3312 C 0.96393 0.38222 0.70718 0.0
C3313 C 0.96651 0.37269 0.71944 0.0
C3314 C 0.97093 0.37639 0.74136 0.0
C3315 C 0.97277 0.38948 0.75064 0.0
C3316 C 0.95954 0.3788 0.68364 0.0
C3317 C 0.97351 0.3664 0.75514 0.0
H3318 H 0.93927 0.32164 0.70539 0.0
H3319 H 0.98474 0.34493 0.68897 0.0
H3320 H 0.93958 0.34812 0.7377 0.0
H3321 H 0.93593 0.35319 0.71228 0.0
H3322 H 0.92763 0.33384 0.71851 0.0
H3323 H 0.99933 0.37101 0.68975 0.0
H3324 H 0.99035 0.3814 0.69114 0.0
H3325 H 0.99605 0.37714 0.7155 0.0
H3326 H 0.96337 0.40236 0.70792 0.0
H3327 H 0.97602 0.39227 0.76748 0.0
H3328 H 0.94901 0.36809 0.68202 0.0
H3329 H 0.96778 0.3776 0.67439 0.0
H3330 H 0.95841 0.38758 0.67619 0.0
H3331 H 0.96352 0.35516 0.75548 0.0
H3332 H 0.97654 0.37072 0.77206 0.0
H3333 H 0.98235 0.36519 0.74805 0.0
C3334 C 0.65677 0.63866 0.70617 0.0
C3335 C 0.66066 0.63896 0.68434 0.0
C3336 C 0.64378 0.62671 0.7142 0.0
C3337 C 0.6345 0.61468 0.70013 0.0
C3338 C 0.63823 0.615 0.678 0.0
C3339 C 0.65125 0.62719 0.67033 0.0
C3340 C 0.64012 0.62684 0.73787 0.0
C3341 C 0.62866 0.60231 0.66257 0.0
C3342 C 0.61038 0.57851 0.72872 0.0
C3343 C 0.59715 0.57808 0.73034 0.0
C3344 C 0.62241 0.59002 0.71804 0.0
C3345 C 0.62128 0.6015 0.70897 0.0
C3346 C 0.60784 0.6009 0.70984 0.0
C3347 C 0.59591 0.58916 0.72044 0.0
C3348 C 0.63654 0.59021 0.71733 0.0
C3349 C 0.60624 0.61297 0.70037 0.0
H3350 H 0.66392 0.64776 0.71706 0.0
H3351 H 0.65419 0.62734 0.65345 0.0
H3352 H 0.62913 0.62525 0.73958 0.0
H3353 H 0.63986 0.6175 0.74605 0.0
H3354 H 0.64813 0.63736 0.7464 0.0
H3355 H 0.63273 0.60459 0.64565 0.0
H3356 H 0.62815 0.59209 0.66774 0.0
H3357 H 0.61737 0.60004 0.66293 0.0
H3358 H 0.61157 0.57018 0.7366 0.0
H3359 H 0.58567 0.5888 0.7213 0.0
H3360 H 0.64485 0.59963 0.72745 0.0
H3361 H 0.6408 0.59187 0.70054 0.0
H3362 H 0.63524 0.57979 0.72336 0.0
H3363 H 0.6132 0.62354 0.70953 0.0
H3364 H 0.5948 0.6103 0.70093 0.0
H3365 H 0.61001 0.61483 0.68331 0.0
C3366 C 0.67875 0.71034 0.68098 0.0
C3367 C 0.68995 0.70858 0.67267 0.0
C3368 C 0.6764 0.72123 0.67302 0.0
C3369 C 0.68549 0.73057 0.65641 0.0
C3370 C 0.69697 0.72901 0.64823 0.0
C3371 C 0.69905 0.71802 0.65644 0.0
C3372 C 0.66403 0.72255 0.68209 0.0
C3373 C 0.70693 0.73879 0.63056 0.0
C3374 C 0.67265 0.74881 0.6181 0.0
C3375 C 0.68032 0.76358 0.62579 0.0
C3376 C 0.67375 0.73781 0.62849 0.0
C3377 C 0.68279 0.74169 0.64696 0.0
C3378 C 0.69007 0.75643 0.65537 0.0
C3379 C 0.68873 0.7672 0.64469 0.0
C3380 C 0.66578 0.7222 0.61906 0.0
C3381 C 0.69975 0.76097 0.6751 0.0
H3382 H 0.67167 0.70309 0.69353 0.0
H3383 H 0.70776 0.71678 0.64997 0.0
H3384 H 0.66819 0.73407 0.68806 0.0
H3385 H 0.65599 0.72011 0.66911 0.0
H3386 H 0.65833 0.71485 0.69557 0.0
H3387 H 0.71562 0.73645 0.62644 0.0
H3388 H 0.7005 0.73714 0.61572 0.0
H3389 H 0.71216 0.75064 0.63563 0.0
H3390 H 0.66629 0.74593 0.60336 0.0
H3391 H 0.69452 0.77855 0.65089 0.0
H3392 H 0.65945 0.71411 0.63183 0.0
H3393 H 0.67378 0.71949 0.61254 0.0
H3394 H 0.65823 0.72071 0.6058 0.0
H3395 H 0.69383 0.75341 0.68861 0.0
H3396 H 0.70367 0.77254 0.68062 0.0
H3397 H 0.70936 0.76005 0.67133 0.0
C3398 C 0.29885 0.98597 0.69229 0.0
C3399 C 0.30467 0.99693 0.67653 0.0
C3400 C 0.2878 0.97133 0.68706 0.0
C3401 C 0.28254 0.96755 0.66553 0.0
C3402 C 0.28798 0.97868 0.64975 0.0
C3403 C 0.29893 0.99324 0.65546 0.0
C3404 C 0.28215 0.95979 0.70436 0.0
C3405 C 0.28269 0.97508 0.62658 0.0
C3406 C 0.26832 0.9286 0.64331 0.0
C3407 C 0.25324 0.92274 0.64244 0.0
C3408 C 0.2779 0.943 0.65142 0.0
C3409 C 0.27228 0.95178 0.65894 0.0
C3410 C 0.25704 0.94577 0.65888 0.0
C3411 C 0.24769 0.93132 0.65052 0.0
C3412 C 0.29409 0.94904 0.65107 0.0
C3413 C 0.25066 0.95475 0.667 0.0
H3414 H 0.30314 0.98875 0.70866 0.0
H3415 H 0.30332 0.00164 0.64319 0.0
H3416 H 0.27006 0.95346 0.70464 0.0
H3417 H 0.28559 0.95175 0.70068 0.0
H3418 H 0.28626 0.96479 0.72073 0.0
H3419 H 0.28733 0.98516 0.61663 0.0
H3420 H 0.2858 0.96747 0.61912 0.0
H3421 H 0.27063 0.96929 0.62602 0.0
H3422 H 0.27272 0.92215 0.63675 0.0
H3423 H 0.23604 0.9268 0.65002 0.0
H3424 H 0.29885 0.95333 0.6674 0.0
H3425 H 0.29954 0.95846 0.63987 0.0
H3426 H 0.29663 0.94052 0.64578 0.0
H3427 H 0.25489 0.95944 0.68343 0.0
H3428 H 0.23855 0.94804 0.66762 0.0
H3429 H 0.25402 0.96422 0.6562 0.0
C3430 C 0.02394 0.31455 0.6814 0.0
C3431 C 0.01656 0.31943 0.66885 0.0
C3432 C 0.03856 0.31921 0.67714 0.0
C3433 C 0.04589 0.32888 0.65985 0.0
C3434 C 0.03859 0.33409 0.64744 0.0
C3435 C 0.02403 0.32933 0.65213 0.0
C3436 C 0.04604 0.31351 0.69079 0.0
C3437 C 0.04602 0.34437 0.62879 0.0
C3438 C 0.08708 0.3506 0.65359 0.0
C3439 C 0.08893 0.34215 0.63745 0.0
C3440 C 0.07317 0.34607 0.66186 0.0
C3441 C 0.06087 0.33285 0.65366 0.0
C3442 C 0.06277 0.32397 0.63806 0.0
C3443 C 0.07676 0.32872 0.63015 0.0
C3444 C 0.07157 0.35575 0.67866 0.0
C3445 C 0.04993 0.30983 0.62881 0.0
H3446 H 0.01827 0.30697 0.69444 0.0
H3447 H 0.01843 0.3332 0.64239 0.0
H3448 H 0.04864 0.30638 0.68065 0.0
H3449 H 0.05651 0.3229 0.69718 0.0
H3450 H 0.0392 0.30696 0.70462 0.0
H3451 H 0.03902 0.34791 0.62134 0.0
H3452 H 0.0563 0.35441 0.63437 0.0
H3453 H 0.04893 0.33873 0.61612 0.0
H3454 H 0.09646 0.36092 0.65941 0.0
H3455 H 0.07804 0.32225 0.61741 0.0
H3456 H 0.06484 0.349 0.6924 0.0
H3457 H 0.06586 0.36081 0.67143 0.0
H3458 H 0.08228 0.36479 0.685 0.0
H3459 H 0.04311 0.3025 0.64203 0.0
H3460 H 0.05336 0.30361 0.61809 0.0
H3461 H 0.04297 0.31252 0.61929 0.0
C3462 C 0.29666 0.32259 0.67365 0.0
C3463 C 0.29885 0.31174 0.66406 0.0
C3464 C 0.28558 0.32466 0.66633 0.0
C3465 C 0.27645 0.31563 0.64908 0.0
C3466 C 0.27833 0.30438 0.63976 0.0
C3467 C 0.28953 0.30259 0.64732 0.0
C3468 C 0.28391 0.3368 0.67663 0.0
C3469 C 0.26876 0.29447 0.6214 0.0
C3470 C 0.24039 0.31262 0.63762 0.0
C3471 C 0.244 0.32184 0.61976 0.0
C3472 C 0.25093 0.3108 0.64777 0.0
C3473 C 0.26542 0.31842 0.63991 0.0
C3474 C 0.26925 0.32814 0.6224 0.0
C3475 C 0.25849 0.32969 0.6125 0.0
C3476 C 0.24646 0.30038 0.66646 0.0
C3477 C 0.28459 0.33649 0.61357 0.0
H3478 H 0.3038 0.3297 0.68661 0.0
H3479 H 0.29109 0.29413 0.63989 0.0
H3480 H 0.28636 0.34535 0.66452 0.0
H3481 H 0.27251 0.33224 0.68203 0.0
H3482 H 0.29129 0.34224 0.69075 0.0
H3483 H 0.27115 0.28576 0.61669 0.0
H3484 H 0.25711 0.28901 0.62605 0.0
H3485 H 0.27036 0.30124 0.60703 0.0
H3486 H 0.22926 0.30667 0.64349 0.0
H3487 H 0.26136 0.33664 0.5985 0.0
H3488 H 0.25372 0.3061 0.68057 0.0
H3489 H 0.24762 0.29086 0.66177 0.0
H3490 H 0.235 0.29603 0.67151 0.0
H3491 H 0.29249 0.34279 0.6268 0.0
H3492 H 0.286 0.34436 0.60084 0.0
H3493 H 0.28737 0.32852 0.60653 0.0
C3494 C 0.7019 0.9986 0.68183 0.0
C3495 C 0.6957 0.00507 0.66997 0.0
C3496 C 0.69916 0.9844 0.67619 0.0
C3497 C 0.68995 0.97648 0.65837 0.0
C3498 C 0.6837 0.98298 0.64634 0.0
C3499 C 0.68668 0.99718 0.65224 0.0
C3500 C 0.70607 0.97784 0.68929 0.0
C3501 C 0.67378 0.97489 0.62724 0.0
C3502 C 0.69067 0.94554 0.62729 0.0
C3503 C 0.6778 0.93297 0.63447 0.0
C3504 C 0.69528 0.95972 0.63593 0.0
C3505 C 0.68675 0.9614 0.65204 0.0
C3506 C 0.67422 0.9487 0.66026 0.0
C3507 C 0.66992 0.93462 0.65141 0.0
C3508 C 0.70875 0.97298 0.62682 0.0
C3509 C 0.66486 0.95003 0.67748 0.0
H3510 H 0.7089 0.00463 0.69553 0.0
H3511 H 0.6818 0.00204 0.64299 0.0
H3512 H 0.69749 0.96729 0.69643 0.0
H3513 H 0.71281 0.97519 0.67862 0.0
H3514 H 0.71306 0.98547 0.70257 0.0
H3515 H 0.66976 0.98148 0.61965 0.0
H3516 H 0.67965 0.97225 0.61479 0.0
H3517 H 0.66424 0.96422 0.63249 0.0
H3518 H 0.69676 0.94443 0.61405 0.0
H3519 H 0.6601 0.92494 0.6573 0.0
H3520 H 0.71585 0.9805 0.64007 0.0
H3521 H 0.70553 0.97938 0.61687 0.0
H3522 H 0.71517 0.96969 0.6165 0.0
H3523 H 0.67169 0.9572 0.69118 0.0
H3524 H 0.65645 0.93906 0.6838 0.0
H3525 H 0.65928 0.95533 0.6706 0.0
C3526 C 0.00421 0.71223 0.63801 0.0
C3527 C 0.00053 0.70271 0.65547 0.0
C3528 C 0.01882 0.72163 0.63191 0.0
C3529 C 0.03 0.72165 0.64376 0.0
C3530 C 0.02638 0.71244 0.66185 0.0
C3531 C 0.01168 0.70299 0.66739 0.0
C3532 C 0.02225 0.73118 0.61236 0.0
C3533 C 0.03801 0.71231 0.67507 0.0
C3534 C 0.06537 0.73321 0.61424 0.0
C3535 C 0.07422 0.74809 0.62101 0.0
C3536 C 0.05101 0.72446 0.6217 0.0
C3537 C 0.04541 0.7307 0.63648 0.0
C3538 C 0.05442 0.74561 0.64384 0.0
C3539 C 0.0687 0.75418 0.63587 0.0
C3540 C 0.04171 0.70866 0.61328 0.0
C3541 C 0.04889 0.75256 0.65985 0.0
H3542 H 0.99565 0.71203 0.6287 0.0
H3543 H 0.00892 0.69574 0.68102 0.0
H3544 H 0.03014 0.74298 0.61675 0.0
H3545 H 0.02744 0.72784 0.59967 0.0
H3546 H 0.01236 0.73029 0.60538 0.0
H3547 H 0.03346 0.70531 0.68956 0.0
H3548 H 0.04365 0.70801 0.66495 0.0
H3549 H 0.04634 0.72376 0.68045 0.0
H3550 H 0.06953 0.72855 0.60248 0.0
H3551 H 0.07556 0.76567 0.64119 0.0
H3552 H 0.03211 0.70726 0.60455 0.0
H3553 H 0.03753 0.70092 0.62697 0.0
H3554 H 0.04779 0.70542 0.60211 0.0
H3555 H 0.03967 0.75287 0.65266 0.0
H3556 H 0.05749 0.76405 0.66476 0.0
H3557 H 0.0447 0.74576 0.67455 0.0
C3558 C 0.97583 0.6238 0.67095 0.0
C3559 C 0.97029 0.63043 0.68474 0.0
C3560 C 0.97882 0.61331 0.67868 0.0
C3561 C 0.97639 0.60953 0.70078 0.0
C3562 C 0.97048 0.61593 0.71466 0.0
C3563 C 0.9674 0.62623 0.70644 0.0
C3564 C 0.9849 0.60655 0.66333 0.0
C3565 C 0.96785 0.61228 0.73838 0.0
C3566 C 0.97428 0.57497 0.72141 0.0
C3567 C 0.98826 0.5809 0.73016 0.0
C3568 C 0.9704 0.58406 0.71106 0.0
C3569 C 0.98069 0.59947 0.70975 0.0
C3570 C 0.99494 0.60544 0.71807 0.0
C3571 C 0.99858 0.59606 0.72806 0.0
C3572 C 0.95518 0.57726 0.70205 0.0
C3573 C 0.00618 0.62183 0.71719 0.0
H3574 H 0.978 0.62692 0.65413 0.0
H3575 H 0.96315 0.63132 0.71721 0.0
H3576 H 0.99617 0.61012 0.66824 0.0
H3577 H 0.9783 0.59426 0.66405 0.0
H3578 H 0.98513 0.60981 0.64631 0.0
H3579 H 0.96275 0.61783 0.74683 0.0
H3580 H 0.96068 0.60012 0.74028 0.0
H3581 H 0.97835 0.61578 0.74649 0.0
H3582 H 0.96632 0.56323 0.72289 0.0
H3583 H 0.00934 0.60071 0.73506 0.0
H3584 H 0.95564 0.58043 0.68495 0.0
H3585 H 0.94923 0.58156 0.71133 0.0
H3586 H 0.94887 0.56496 0.70282 0.0
H3587 H 0.00762 0.62563 0.70028 0.0
H3588 H 0.01695 0.6246 0.72358 0.0
H3589 H 0.00238 0.62815 0.72686 0.0
C3590 C 0.36741 0.35086 0.6921 0.0
C3591 C 0.37029 0.34482 0.67362 0.0
C3592 C 0.37761 0.36518 0.69988 0.0
C3593 C 0.39108 0.37365 0.68901 0.0
C3594 C 0.39405 0.36768 0.67027 0.0
C3595 C 0.38359 0.35333 0.66275 0.0
C3596 C 0.37401 0.37119 0.71987 0.0
C3597 C 0.40834 0.37637 0.65837 0.0
C3598 C 0.41144 0.41502 0.70188 0.0
C3599 C 0.42078 0.41631 0.71856 0.0
C3600 C 0.40209 0.40129 0.69145 0.0
C3601 C 0.40216 0.38858 0.6978 0.0
C3602 C 0.41205 0.38994 0.71389 0.0
C3603 C 0.42118 0.40376 0.72414 0.0
C3604 C 0.39171 0.40027 0.67434 0.0
C3605 C 0.4125 0.37665 0.72105 0.0
H3606 H 0.35713 0.3444 0.70054 0.0
H3607 H 0.3859 0.34874 0.64846 0.0
H3608 H 0.38199 0.37353 0.7329 0.0
H3609 H 0.37483 0.38181 0.71627 0.0
H3610 H 0.36288 0.36334 0.72607 0.0
H3611 H 0.4088 0.37031 0.64371 0.0
H3612 H 0.41009 0.38719 0.65343 0.0
H3613 H 0.41748 0.37879 0.66927 0.0
H3614 H 0.41121 0.4247 0.69726 0.0
H3615 H 0.42819 0.40456 0.73722 0.0
H3616 H 0.38034 0.39354 0.68032 0.0
H3617 H 0.3925 0.3946 0.65949 0.0
H3618 H 0.39385 0.41136 0.66998 0.0
H3619 H 0.40219 0.36887 0.72947 0.0
H3620 H 0.42174 0.37982 0.73221 0.0
H3621 H 0.41343 0.37058 0.70681 0.0
C3622 C 0.64392 0.03262 0.68528 0.0
C3623 C 0.64961 0.02398 0.69142 0.0
C3624 C 0.62956 0.02846 0.69064 0.0
C3625 C 0.62071 0.01533 0.70227 0.0
C3626 C 0.62629 0.00637 0.70795 0.0
C3627 C 0.64066 0.01082 0.70251 0.0
C3628 C 0.62399 0.0383 0.68438 0.0
C3629 C 0.61717 0.99223 0.72026 0.0
C3630 C 0.58999 0.01019 0.73882 0.0
C3631 C 0.57764 0.0 0.72671 0.0
C3632 C 0.60408 0.0159 0.73053 0.0
C3633 C 0.6059 0.01124 0.70967 0.0
C3634 C 0.5935 0.00151 0.69693 0.0
C3635 C 0.57951 0.99603 0.70559 0.0
C3636 C 0.61702 0.02629 0.74462 0.0
C3637 C 0.59501 0.99632 0.6746 0.0
H3638 H 0.65078 0.0428 0.67668 0.0
H3639 H 0.64492 0.00401 0.70717 0.0
H3640 H 0.61352 0.03173 0.67548 0.0
H3641 H 0.62182 0.043 0.6992 0.0
H3642 H 0.63187 0.0476 0.67413 0.0
H3643 H 0.62289 0.98615 0.72251 0.0
H3644 H 0.61438 0.99484 0.73645 0.0
H3645 H 0.60677 0.98478 0.71157 0.0
H3646 H 0.58871 0.01317 0.75526 0.0
H3647 H 0.57002 0.98834 0.69601 0.0
H3648 H 0.62498 0.03618 0.73545 0.0
H3649 H 0.62267 0.02058 0.74961 0.0
H3650 H 0.61379 0.03005 0.75943 0.0
H3651 H 0.6028 0.0059 0.66475 0.0
H3652 H 0.58441 0.99007 0.6659 0.0
H3653 H 0.59945 0.98899 0.67594 0.0
loop_
_geom_bond_atom_site_label_1
_geom_bond_atom_site_label_2
_geom_bond_distance
_geom_bond_site_symmetry_2
_ccdc_geom_bond_type
C0 O1 1.160 . S
C0 O7 1.185 . S
O1 C0 1.160 . S
O2 Zn3 1.899 1_656 S
O2 C10 1.284 1_556 S
Zn3 O2 1.899 1_454 S
Zn3 O4 2.032 . S
Zn3 O7 2.086 . S
Zn3 O12 1.977 1_554 S
O4 Zn3 2.032 . S
O4 C8 1.278 1_455 S
C5 O6 1.203 1_455 S
C5 O12 1.267 . S
O6 C5 1.203 1_655 S
O7 C0 1.185 . S
O7 Zn3 2.086 . S
C8 O4 1.278 1_655 S
C8 O9 1.211 . S
O9 C8 1.211 . S
C10 O2 1.284 1_554 S
C10 O11 1.273 . S
O11 C10 1.273 . S
O12 Zn3 1.977 1_556 S
O12 C5 1.267 . S
C13 O14 1.160 1_554 S
C13 O20 1.185 . S
O14 C13 1.160 1_556 S
O15 Zn16 1.899 . S
O15 C23 1.284 . S
Zn16 O15 1.899 . S
Zn16 O17 2.032 1_554 S
Zn16 O20 2.086 . S
Zn16 O25 1.977 . S
O17 Zn16 2.032 1_556 S
O17 C21 1.278 . S
C18 O19 1.203 . S
C18 O25 1.267 . S
O19 C18 1.203 . S
O20 C13 1.185 . S
O20 Zn16 2.086 . S
C21 O17 1.278 . S
C21 O22 1.211 . S
O22 C21 1.211 . S
C23 O15 1.284 . S
C23 O24 1.273 . S
O24 C23 1.273 . S
O25 Zn16 1.977 . S
O25 C18 1.267 . S
C26 O27 1.160 1_554 S
C26 O33 1.185 . S
O27 C26 1.160 1_556 S
O28 Zn29 1.899 1_565 S
O28 C36 1.284 . S
Zn29 O28 1.899 1_545 S
Zn29 O30 2.032 1_554 S
Zn29 O33 2.086 . S
Zn29 O38 1.977 . S
O30 Zn29 2.032 1_556 S
O30 C34 1.278 . S
C31 O32 1.203 1_545 S
C31 O38 1.267 . S
O32 C31 1.203 1_565 S
O33 C26 1.185 . S
O33 Zn29 2.086 . S
C34 O30 1.278 . S
C34 O35 1.211 1_545 S
O35 C34 1.211 1_565 S
C36 O28 1.284 . S
C36 O37 1.273 . S
O37 C36 1.273 . S
O38 Zn29 1.977 . S
O38 C31 1.267 . S
C39 O40 1.160 . S
C39 O46 1.185 1_556 S
O40 C39 1.160 . S
O41 Zn42 1.899 1_455 S
O41 C49 1.284 . S
Zn42 O41 1.899 1_655 S
Zn42 O43 2.032 1_554 S
Zn42 O46 2.086 . S
Zn42 O51 1.977 . S
O43 Zn42 2.032 1_556 S
O43 C47 1.278 1_655 S
C44 O45 1.141 1_655 S
C44 O51 1.331 . S
O45 C44 1.141 1_455 S
O46 C39 1.185 1_554 S
O46 Zn42 2.086 . S
C47 O43 1.278 1_455 S
C47 O48 1.211 . S
O48 C47 1.211 . S
C49 O41 1.284 . S
C49 O50 1.273 . S
O50 C49 1.273 . S
O51 Zn42 1.977 . S
O51 C44 1.331 . S
C52 O53 1.160 . S
C52 O59 1.185 . S
O53 C52 1.160 . S
O54 Zn55 1.899 1_556 S
O54 C62 1.287 . S
Zn55 O54 1.899 1_554 S
Zn55 O56 2.032 . S
Zn55 O59 2.086 . S
Zn55 O64 1.977 1_554 S
O56 Zn55 2.032 . S
O56 C60 1.278 . S
C57 O58 1.203 . S
C57 O64 1.267 . S
O58 C57 1.203 . S
O59 C52 1.185 . S
O59 Zn55 2.086 . S
C60 O56 1.278 . S
C60 O61 1.211 . S
O61 C60 1.211 . S
C62 O54 1.287 . S
C62 O63 1.269 1_556 S
O63 C62 1.269 1_554 S
O64 Zn55 1.977 1_556 S
O64 C57 1.267 . S
C65 O66 1.160 . S
C65 O72 1.185 . S
O66 C65 1.160 . S
O67 Zn68 1.899 1_546 S
O67 C75 1.284 1_556 S
Zn68 O67 1.899 1_564 S
Zn68 O69 2.032 . S
Zn68 O72 2.086 . S
Zn68 O77 1.977 1_554 S
O69 Zn68 2.032 . S
O69 C73 1.278 1_565 S
C70 O71 1.138 1_565 S
C70 O77 1.336 . S
O71 C70 1.138 1_545 S
O72 C65 1.185 . S
O72 Zn68 2.086 . S
C73 O69 1.278 1_545 S
C73 O74 1.211 . S
O74 C73 1.211 . S
C75 O67 1.284 1_554 S
C75 O76 1.273 . S
O76 C75 1.273 . S
O77 Zn68 1.977 1_556 S
O77 C70 1.336 . S
C78 O79 1.160 . S
C78 O85 1.185 . S
O79 C78 1.160 . S
O80 Zn81 1.899 . S
O80 C88 1.284 . S
Zn81 O80 1.899 . S
Zn81 O82 2.032 . S
Zn81 O85 2.086 . S
Zn81 O90 1.977 . S
O82 Zn81 2.032 . S
O82 C86 1.278 . S
C83 O84 1.203 . S
C83 O90 1.267 . S
O84 C83 1.203 . S
O85 C78 1.185 . S
O85 Zn81 2.086 . S
C86 O82 1.278 . S
C86 O87 1.211 . S
O87 C86 1.211 . S
C88 O80 1.284 . S
C88 O89 1.273 . S
O89 C88 1.273 . S
O90 Zn81 1.977 . S
O90 C83 1.267 . S
C91 O92 1.160 . S
C91 O98 1.185 . S
O92 C91 1.160 . S
O93 Zn94 1.899 . S
O93 C101 1.355 . S
Zn94 O93 1.899 . S
Zn94 O95 2.032 . S
Zn94 O98 2.086 . S
Zn94 O103 1.977 . S
O95 Zn94 2.032 . S
O95 C99 1.278 . S
C96 O97 1.203 . S
C96 O103 1.267 . S
O97 C96 1.203 . S
O98 C91 1.185 . S
O98 Zn94 2.086 . S
C99 O95 1.278 . S
C99 O100 1.211 . S
O100 C99 1.211 . S
C101 O93 1.355 . S
C101 O102 1.281 . S
O102 C101 1.281 . S
O103 Zn94 1.977 . S
O103 C96 1.267 . S
C104 O105 1.160 . S
C104 O111 1.185 . S
O105 C104 1.160 . S
O106 Zn107 1.899 . S
O106 C114 1.284 . S
Zn107 O106 1.899 . S
Zn107 O108 2.032 . S
Zn107 O111 2.086 . S
Zn107 O116 1.977 . S
O108 Zn107 2.032 . S
O108 C112 1.278 . S
C109 O110 1.203 . S
C109 O116 1.267 . S
O110 C109 1.203 . S
O111 C104 1.185 . S
O111 Zn107 2.086 . S
C112 O108 1.278 . S
C112 O113 1.211 . S
O113 C112 1.211 . S
C114 O106 1.284 . S
C114 O115 1.273 . S
O115 C114 1.273 . S
O116 Zn107 1.977 . S
O116 C109 1.267 . S
C117 O118 1.160 . S
C117 O124 1.185 . S
O118 C117 1.160 . S
O119 Zn120 1.899 . S
O119 C127 1.282 . S
Zn120 O119 1.899 . S
Zn120 O121 2.032 . S
Zn120 O124 2.086 . S
Zn120 O129 1.977 . S
O121 Zn120 2.032 . S
O121 C125 1.278 . S
C122 O123 1.203 . S
C122 O129 1.267 . S
O123 C122 1.203 . S
O124 C117 1.185 . S
O124 Zn120 2.086 . S
C125 O121 1.278 . S
C125 O126 1.211 . S
O126 C125 1.211 . S
C127 O119 1.282 . S
C127 O128 1.290 . S
O128 C127 1.290 . S
O129 Zn120 1.977 . S
O129 C122 1.267 . S
C130 O131 1.160 . S
C130 O137 1.185 1_655 S
O131 C130 1.160 . S
O132 Zn133 1.899 . S
O132 C140 1.284 . S
Zn133 O132 1.899 . S
Zn133 O134 2.032 . S
Zn133 O137 2.086 . S
Zn133 O142 1.977 . S
O134 Zn133 2.032 . S
O134 C138 1.278 . S
C135 O136 1.203 . S
C135 O142 1.267 . S
O136 C135 1.203 . S
O137 C130 1.185 1_455 S
O137 Zn133 2.086 . S
C138 O134 1.278 . S
C138 O139 1.211 . S
O139 C138 1.211 . S
C140 O132 1.284 . S
C140 O141 1.273 . S
O141 C140 1.273 . S
O142 Zn133 1.977 . S
O142 C135 1.267 . S
C143 O144 1.160 . S
C143 O150 1.185 . S
O144 C143 1.160 . S
O145 Zn146 1.899 . S
O145 C153 1.284 . S
Zn146 O145 1.899 . S
Zn146 O147 2.032 . S
Zn146 O150 2.086 . S
Zn146 O155 1.977 . S
O147 Zn146 2.032 . S
O147 C151 1.278 . S
C148 O149 1.203 . S
C148 O155 1.267 . S
O149 C148 1.203 . S
O150 C143 1.185 . S
O150 Zn146 2.086 . S
C151 O147 1.278 . S
C151 O152 1.211 . S
O152 C151 1.211 . S
C153 O145 1.284 . S
C153 O154 1.273 . S
O154 C153 1.273 . S
O155 Zn146 1.977 . S
O155 C148 1.267 . S
C156 O157 1.160 . S
C156 O163 1.185 . S
O157 C156 1.160 . S
O158 Zn159 1.899 . S
O158 C166 1.284 . S
Zn159 O158 1.899 . S
Zn159 O160 2.032 . S
Zn159 O163 2.086 . S
Zn159 O168 1.977 . S
O160 Zn159 2.032 . S
O160 C164 1.278 . S
C161 O162 1.203 . S
C161 O168 1.267 . S
O162 C161 1.203 . S
O163 C156 1.185 . S
O163 Zn159 2.086 . S
C164 O160 1.278 . S
C164 O165 1.211 . S
O165 C164 1.211 . S
C166 O158 1.284 . S
C166 O167 1.273 . S
O167 C166 1.273 . S
O168 Zn159 1.977 . S
O168 C161 1.267 . S
C169 O170 1.160 . S
C169 O176 1.185 1_455 S
O170 C169 1.160 . S
O171 Zn172 1.899 . S
O171 C179 1.284 . S
Zn172 O171 1.899 . S
Zn172 O173 2.032 . S
Zn172 O176 2.086 . S
Zn172 O181 1.977 . S
O173 Zn172 2.032 . S
O173 C177 1.278 . S
C174 O175 1.203 . S
C174 O181 1.267 . S
O175 C174 1.203 . S
O176 C169 1.185 1_655 S
O176 Zn172 2.086 . S
C177 O173 1.278 . S
C177 O178 1.211 . S
O178 C177 1.211 . S
C179 O171 1.284 . S
C179 O180 1.273 . S
O180 C179 1.273 . S
O181 Zn172 1.977 . S
O181 C174 1.267 . S
C182 O183 1.160 . S
C182 O189 1.185 . S
O183 C182 1.160 . S
O184 Zn185 1.899 . S
O184 C192 1.284 . S
Zn185 O184 1.899 . S
Zn185 O186 2.032 . S
Zn185 O189 2.086 . S
Zn185 O194 1.977 . S
O186 Zn185 2.032 . S
O186 C190 1.278 . S
C187 O188 1.203 . S
C187 O194 1.267 . S
O188 C187 1.203 . S
O189 C182 1.185 . S
O189 Zn185 2.086 . S
C190 O186 1.278 . S
C190 O191 1.211 . S
O191 C190 1.211 . S
C192 O184 1.284 . S
C192 O193 1.273 . S
O193 C192 1.273 . S
O194 Zn185 1.977 . S
O194 C187 1.267 . S
C195 O196 1.160 . S
C195 O202 1.185 . S
O196 C195 1.160 . S
O197 Zn198 1.899 . S
O197 C205 1.284 . S
Zn198 O197 1.899 . S
Zn198 O199 2.032 . S
Zn198 O202 2.086 . S
Zn198 O207 1.977 . S
O199 Zn198 2.032 . S
O199 C203 1.278 . S
C200 O201 1.203 . S
C200 O207 1.267 . S
O201 C200 1.203 . S
O202 C195 1.185 . S
O202 Zn198 2.086 . S
C203 O199 1.278 . S
C203 O204 1.211 . S
O204 C203 1.211 . S
C205 O197 1.284 . S
C205 O206 1.273 . S
O206 C205 1.273 . S
O207 Zn198 1.977 . S
O207 C200 1.267 . S
C208 O209 1.160 . S
C208 O215 1.185 . S
O209 C208 1.160 . S
O210 Zn211 1.899 . S
O210 C218 1.284 . S
Zn211 O210 1.899 . S
Zn211 O212 2.032 . S
Zn211 O215 2.086 . S
Zn211 O220 1.977 . S
O212 Zn211 2.032 . S
O212 C216 1.278 . S
C213 O214 1.203 . S
C213 O220 1.267 . S
O214 C213 1.203 . S
O215 C208 1.185 . S
O215 Zn211 2.086 . S
C216 O212 1.278 . S
C216 O217 1.211 . S
O217 C216 1.211 . S
C218 O210 1.284 . S
C218 O219 1.273 . S
O219 C218 1.273 . S
O220 Zn211 1.977 . S
O220 C213 1.267 . S
C221 O222 1.160 . S
C221 O228 1.185 . S
O222 C221 1.160 . S
O223 Zn224 1.899 . S
O223 C231 1.284 . S
Zn224 O223 1.899 . S
Zn224 O225 2.032 . S
Zn224 O228 2.086 . S
Zn224 O233 1.977 . S
O225 Zn224 2.032 . S
O225 C229 1.278 . S
C226 O227 1.203 . S
C226 O233 1.267 . S
O227 C226 1.203 . S
O228 C221 1.185 . S
O228 Zn224 2.086 . S
C229 O225 1.278 . S
C229 O230 1.211 . S
O230 C229 1.211 . S
C231 O223 1.284 . S
C231 O232 1.273 . S
O232 C231 1.273 . S
O233 Zn224 1.977 . S
O233 C226 1.267 . S
H234 C261 0.929 . S
N235 C260 1.433 . S
N235 C266 1.435 . S
N235 C272 1.423 . S
H236 C262 0.930 . S
H237 C265 0.931 . S
H238 C264 0.929 . S
H239 C267 0.930 . S
H240 C268 0.932 . S
H241 C271 0.929 . S
H242 C270 0.931 . S
H243 C273 0.929 . S
H244 C277 0.932 . S
H245 C274 0.931 . S
H246 C276 0.929 . S
H247 C279 0.929 . S
H248 C280 0.930 . S
H249 C282 0.929 . S
H250 C283 0.931 . S
H251 C285 0.930 . S
H252 C286 0.932 . S
H253 C288 0.931 . S
H254 C289 0.929 . S
H255 C291 0.929 . S
H256 C292 0.931 . S
H257 C294 0.929 . S
N258 C278 1.433 . S
N258 C284 1.435 . S
N258 C290 1.423 . S
H259 C295 0.932 . S
C260 N235 1.433 . S
C260 C261 1.363 . S
C260 C265 1.370 . S
C261 H234 0.929 . S
C261 C260 1.363 . S
C261 C262 1.385 . S
C262 H236 0.930 . S
C262 C261 1.385 . S
C262 C263 1.357 . S
C263 C262 1.357 . S
C263 C264 1.406 . S
C264 H238 0.929 . S
C264 C263 1.406 . S
C264 C265 1.391 . S
C265 H237 0.931 . S
C265 C260 1.370 . S
C265 C264 1.391 . S
C266 N235 1.435 . S
C266 C267 1.358 . S
C266 C271 1.371 . S
C267 H239 0.930 . S
C267 C266 1.358 . S
C267 C268 1.405 . S
C268 H240 0.932 . S
C268 C267 1.405 . S
C268 C269 1.383 . S
C269 C268 1.383 . S
C269 C270 1.393 . S
C270 H242 0.931 . S
C270 C269 1.393 . S
C270 C271 1.382 . S
C271 H241 0.929 . S
C271 C266 1.371 . S
C271 C270 1.382 . S
C272 N235 1.423 . S
C272 C273 1.362 . S
C272 C277 1.388 . S
C273 H243 0.929 . S
C273 C272 1.362 . S
C273 C274 1.376 . S
C274 H245 0.931 . S
C274 C273 1.376 . S
C274 C275 1.396 . S
C275 C274 1.396 . S
C275 C276 1.348 . S
C275 C293 1.472 . S
C276 H246 0.929 . S
C276 C275 1.348 . S
C276 C277 1.443 . S
C277 H244 0.932 . S
C277 C272 1.388 . S
C277 C276 1.443 . S
C278 N258 1.433 . S
C278 C279 1.363 . S
C278 C283 1.370 . S
C279 H247 0.929 . S
C279 C278 1.363 . S
C279 C280 1.385 . S
C280 H248 0.930 . S
C280 C279 1.385 . S
C280 C281 1.357 . S
C281 C280 1.357 . S
C281 C282 1.406 . S
C282 H249 0.929 . S
C282 C281 1.406 . S
C282 C283 1.391 . S
C283 H250 0.931 . S
C283 C278 1.370 . S
C283 C282 1.391 . S
C284 N258 1.435 . S
C284 C285 1.358 . S
C284 C289 1.371 . S
C285 H251 0.930 . S
C285 C284 1.358 . S
C285 C286 1.405 . S
C286 H252 0.932 . S
C286 C285 1.405 . S
C286 C287 1.383 . S
C287 C286 1.383 . S
C287 C288 1.393 . S
C288 H253 0.931 . S
C288 C287 1.393 . S
C288 C289 1.382 . S
C289 H254 0.929 . S
C289 C284 1.371 . S
C289 C288 1.382 . S
C290 N258 1.423 . S
C290 C291 1.362 . S
C290 C295 1.388 . S
C291 H255 0.929 . S
C291 C290 1.362 . S
C291 C292 1.376 . S
C292 H256 0.931 . S
C292 C291 1.376 . S
C292 C293 1.396 . S
C293 C275 1.472 . S
C293 C292 1.396 . S
C293 C294 1.348 . S
C294 H257 0.929 . S
C294 C293 1.348 . S
C294 C295 1.443 . S
C295 H259 0.932 . S
C295 C290 1.388 . S
C295 C294 1.443 . S
H296 C323 0.929 . S
N297 C322 1.433 . S
N297 C328 1.435 . S
N297 C334 1.423 . S
H298 C324 0.930 . S
H299 C327 0.931 . S
H300 C326 0.929 . S
H301 C329 0.930 . S
H302 C330 0.932 . S
H303 C333 0.929 . S
H304 C332 0.931 . S
H305 C335 0.929 . S
H306 C339 0.932 . S
H307 C336 0.931 . S
H308 C338 0.929 . S
H309 C341 0.929 . S
H310 C342 0.930 . S
H311 C344 0.929 . S
H312 C345 0.931 . S
H313 C347 0.930 . S
H314 C348 0.932 . S
H315 C350 0.931 . S
H316 C351 0.929 . S
H317 C353 0.929 . S
H318 C354 0.931 . S
H319 C356 0.929 . S
N320 C340 1.433 . S
N320 C346 1.435 . S
N320 C352 1.423 . S
H321 C357 0.932 . S
C322 N297 1.433 . S
C322 C323 1.363 . S
C322 C327 1.370 . S
C323 H296 0.929 . S
C323 C322 1.363 . S
C323 C324 1.385 . S
C324 H298 0.930 . S
C324 C323 1.385 . S
C324 C325 1.357 . S
C325 C324 1.357 . S
C325 C326 1.406 . S
C326 H300 0.929 . S
C326 C325 1.406 . S
C326 C327 1.391 . S
C327 H299 0.931 . S
C327 C322 1.370 . S
C327 C326 1.391 . S
C328 N297 1.435 . S
C328 C329 1.358 . S
C328 C333 1.371 . S
C329 H301 0.930 . S
C329 C328 1.358 . S
C329 C330 1.405 . S
C330 H302 0.932 . S
C330 C329 1.405 . S
C330 C331 1.383 . S
C331 C330 1.383 . S
C331 C332 1.393 . S
C332 H304 0.931 . S
C332 C331 1.393 . S
C332 C333 1.382 . S
C333 H303 0.929 . S
C333 C328 1.371 . S
C333 C332 1.382 . S
C334 N297 1.423 . S
C334 C335 1.362 . S
C334 C339 1.388 . S
C335 H305 0.929 . S
C335 C334 1.362 . S
C335 C336 1.376 . S
C336 H307 0.931 . S
C336 C335 1.376 . S
C336 C337 1.396 . S
C337 C336 1.396 . S
C337 C338 1.348 . S
C337 C355 1.472 . S
C338 H308 0.929 . S
C338 C337 1.348 . S
C338 C339 1.443 . S
C339 H306 0.932 . S
C339 C334 1.388 . S
C339 C338 1.443 . S
C340 N320 1.433 . S
C340 C341 1.363 . S
C340 C345 1.370 . S
C341 H309 0.929 . S
C341 C340 1.363 . S
C341 C342 1.385 . S
C342 H310 0.930 . S
C342 C341 1.385 . S
C342 C343 1.357 . S
C343 C342 1.357 . S
C343 C344 1.406 . S
C344 H311 0.929 . S
C344 C343 1.406 . S
C344 C345 1.391 . S
C345 H312 0.931 . S
C345 C340 1.370 . S
C345 C344 1.391 . S
C346 N320 1.435 . S
C346 C347 1.358 . S
C346 C351 1.371 . S
C347 H313 0.930 . S
C347 C346 1.358 . S
C347 C348 1.405 . S
C348 H314 0.932 . S
C348 C347 1.405 . S
C348 C349 1.383 . S
C349 C348 1.383 . S
C349 C350 1.393 . S
C350 H315 0.931 . S
C350 C349 1.393 . S
C350 C351 1.382 . S
C351 H316 0.929 . S
C351 C346 1.371 . S
C351 C350 1.382 . S
C352 N320 1.423 . S
C352 C353 1.362 . S
C352 C357 1.388 . S
C353 H317 0.929 . S
C353 C352 1.362 . S
C353 C354 1.376 . S
C354 H318 0.931 . S
C354 C353 1.376 . S
C354 C355 1.396 . S
C355 C337 1.472 . S
C355 C354 1.396 . S
C355 C356 1.348 . S
C356 H319 0.929 . S
C356 C355 1.348 . S
C356 C357 1.443 . S
C357 H321 0.932 . S
C357 C352 1.388 . S
C357 C356 1.443 . S
H358 C385 0.929 . S
N359 C384 1.433 . S
N359 C390 1.435 . S
N359 C396 1.423 . S
H360 C386 0.930 . S
H361 C389 0.931 . S
H362 C388 0.929 . S
H363 C391 0.930 . S
H364 C392 0.932 . S
H365 C395 0.929 . S
H366 C394 0.931 . S
H367 C397 0.929 . S
H368 C401 0.932 . S
H369 C398 0.931 . S
H370 C400 0.929 . S
H371 C403 0.929 . S
H372 C404 0.930 . S
H373 C406 0.929 . S
H374 C407 0.931 . S
H375 C409 0.930 . S
H376 C410 0.932 . S
H377 C412 0.931 . S
H378 C413 0.929 . S
H379 C415 0.929 . S
H380 C416 0.931 . S
H381 C418 0.929 . S
N382 C402 1.433 . S
N382 C408 1.435 . S
N382 C414 1.423 . S
H383 C419 0.932 . S
C384 N359 1.433 . S
C384 C385 1.363 . S
C384 C389 1.370 . S
C385 H358 0.929 . S
C385 C384 1.363 . S
C385 C386 1.385 . S
C386 H360 0.930 . S
C386 C385 1.385 . S
C386 C387 1.357 . S
C387 C386 1.357 . S
C387 C388 1.406 . S
C388 H362 0.929 . S
C388 C387 1.406 . S
C388 C389 1.391 . S
C389 H361 0.931 . S
C389 C384 1.370 . S
C389 C388 1.391 . S
C390 N359 1.435 . S
C390 C391 1.358 . S
C390 C395 1.371 . S
C391 H363 0.930 . S
C391 C390 1.358 . S
C391 C392 1.405 . S
C392 H364 0.932 . S
C392 C391 1.405 . S
C392 C393 1.383 . S
C393 C392 1.383 . S
C393 C394 1.393 . S
C394 H366 0.931 . S
C394 C393 1.393 . S
C394 C395 1.382 . S
C395 H365 0.929 . S
C395 C390 1.371 . S
C395 C394 1.382 . S
C396 N359 1.423 . S
C396 C397 1.362 . S
C396 C401 1.388 . S
C397 H367 0.929 . S
C397 C396 1.362 . S
C397 C398 1.376 . S
C398 H369 0.931 . S
C398 C397 1.376 . S
C398 C399 1.396 . S
C399 C398 1.396 . S
C399 C400 1.348 . S
C399 C417 1.472 . S
C400 H370 0.929 . S
C400 C399 1.348 . S
C400 C401 1.443 . S
C401 H368 0.932 . S
C401 C396 1.388 . S
C401 C400 1.443 . S
C402 N382 1.433 . S
C402 C403 1.363 . S
C402 C407 1.370 . S
C403 H371 0.929 . S
C403 C402 1.363 . S
C403 C404 1.385 . S
C404 H372 0.930 . S
C404 C403 1.385 . S
C404 C405 1.357 . S
C405 C404 1.357 . S
C405 C406 1.406 . S
C406 H373 0.929 . S
C406 C405 1.406 . S
C406 C407 1.391 . S
C407 H374 0.931 . S
C407 C402 1.370 . S
C407 C406 1.391 . S
C408 N382 1.435 . S
C408 C409 1.358 . S
C408 C413 1.371 . S
C409 H375 0.930 . S
C409 C408 1.358 . S
C409 C410 1.405 . S
C410 H376 0.932 . S
C410 C409 1.405 . S
C410 C411 1.383 . S
C411 C410 1.383 . S
C411 C412 1.393 . S
C412 H377 0.931 . S
C412 C411 1.393 . S
C412 C413 1.382 . S
C413 H378 0.929 . S
C413 C408 1.371 . S
C413 C412 1.382 . S
C414 N382 1.423 . S
C414 C415 1.362 . S
C414 C419 1.388 . S
C415 H379 0.929 . S
C415 C414 1.362 . S
C415 C416 1.376 . S
C416 H380 0.931 . S
C416 C415 1.376 . S
C416 C417 1.396 . S
C417 C399 1.472 . S
C417 C416 1.396 . S
C417 C418 1.348 . S
C418 H381 0.929 . S
C418 C417 1.348 . S
C418 C419 1.443 . S
C419 H383 0.932 . S
C419 C414 1.388 . S
C419 C418 1.443 . S
H420 C447 0.929 . S
N421 C446 1.433 . S
N421 C452 1.435 . S
N421 C458 1.423 . S
H422 C448 0.930 . S
H423 C451 0.931 . S
H424 C450 0.929 . S
H425 C453 0.930 . S
H426 C454 0.932 . S
H427 C457 0.929 . S
H428 C456 0.931 . S
H429 C459 0.929 . S
H430 C463 0.932 . S
H431 C460 0.931 . S
H432 C462 0.929 . S
H433 C465 0.929 . S
H434 C466 0.930 . S
H435 C468 0.929 . S
H436 C469 0.931 . S
H437 C471 0.930 . S
H438 C472 0.932 . S
H439 C474 0.931 . S
H440 C475 0.929 . S
H441 C477 0.929 . S
H442 C478 0.931 . S
H443 C480 0.929 . S
N444 C464 1.433 . S
N444 C470 1.435 . S
N444 C476 1.423 . S
H445 C481 0.932 . S
C446 N421 1.433 . S
C446 C447 1.363 . S
C446 C451 1.370 . S
C447 H420 0.929 . S
C447 C446 1.363 . S
C447 C448 1.385 . S
C448 H422 0.930 . S
C448 C447 1.385 . S
C448 C449 1.357 . S
C449 C448 1.357 . S
C449 C450 1.406 . S
C450 H424 0.929 . S
C450 C449 1.406 . S
C450 C451 1.391 . S
C451 H423 0.931 . S
C451 C446 1.370 . S
C451 C450 1.391 . S
C452 N421 1.435 . S
C452 C453 1.358 . S
C452 C457 1.371 . S
C453 H425 0.930 . S
C453 C452 1.358 . S
C453 C454 1.405 . S
C454 H426 0.932 . S
C454 C453 1.405 . S
C454 C455 1.383 . S
C455 C454 1.383 . S
C455 C456 1.393 . S
C456 H428 0.931 . S
C456 C455 1.393 . S
C456 C457 1.382 . S
C457 H427 0.929 . S
C457 C452 1.371 . S
C457 C456 1.382 . S
C458 N421 1.423 . S
C458 C459 1.362 . S
C458 C463 1.388 . S
C459 H429 0.929 . S
C459 C458 1.362 . S
C459 C460 1.376 . S
C460 H431 0.931 . S
C460 C459 1.376 . S
C460 C461 1.396 . S
C461 C460 1.396 . S
C461 C462 1.348 . S
C461 C479 1.472 . S
C462 H432 0.929 . S
C462 C461 1.348 . S
C462 C463 1.443 . S
C463 H430 0.932 . S
C463 C458 1.388 . S
C463 C462 1.443 . S
C464 N444 1.433 . S
C464 C465 1.363 . S
C464 C469 1.370 . S
C465 H433 0.929 . S
C465 C464 1.363 . S
C465 C466 1.385 . S
C466 H434 0.930 . S
C466 C465 1.385 . S
C466 C467 1.357 . S
C467 C466 1.357 . S
C467 C468 1.406 . S
C468 H435 0.929 . S
C468 C467 1.406 . S
C468 C469 1.391 . S
C469 H436 0.931 . S
C469 C464 1.370 . S
C469 C468 1.391 . S
C470 N444 1.435 . S
C470 C471 1.358 . S
C470 C475 1.371 . S
C471 H437 0.930 . S
C471 C470 1.358 . S
C471 C472 1.405 . S
C472 H438 0.932 . S
C472 C471 1.405 . S
C472 C473 1.383 . S
C473 C472 1.383 . S
C473 C474 1.393 . S
C474 H439 0.931 . S
C474 C473 1.393 . S
C474 C475 1.382 . S
C475 H440 0.929 . S
C475 C470 1.371 . S
C475 C474 1.382 . S
C476 N444 1.423 . S
C476 C477 1.362 . S
C476 C481 1.388 . S
C477 H441 0.929 . S
C477 C476 1.362 . S
C477 C478 1.376 . S
C478 H442 0.931 . S
C478 C477 1.376 . S
C478 C479 1.396 . S
C479 C461 1.472 . S
C479 C478 1.396 . S
C479 C480 1.348 . S
C480 H443 0.929 . S
C480 C479 1.348 . S
C480 C481 1.443 . S
C481 H445 0.932 . S
C481 C476 1.388 . S
C481 C480 1.443 . S
H482 C509 0.929 . S
N483 C508 1.433 . S
N483 C514 1.435 . S
N483 C520 1.423 . S
H484 C510 0.930 . S
H485 C513 0.931 . S
H486 C512 0.929 . S
H487 C515 0.930 . S
H488 C516 0.932 . S
H489 C519 0.929 . S
H490 C518 0.931 . S
H491 C521 0.929 . S
H492 C525 0.932 . S
H493 C522 0.931 . S
H494 C524 0.929 . S
H495 C527 0.929 . S
H496 C528 0.930 . S
H497 C530 0.929 . S
H498 C531 0.931 . S
H499 C533 0.930 . S
H500 C534 0.932 . S
H501 C536 0.931 . S
H502 C537 0.929 . S
H503 C539 0.929 . S
H504 C540 0.931 . S
H505 C542 0.929 . S
N506 C526 1.433 . S
N506 C532 1.435 . S
N506 C538 1.423 . S
H507 C543 0.932 . S
C508 N483 1.433 . S
C508 C509 1.363 . S
C508 C513 1.370 . S
C509 H482 0.929 . S
C509 C508 1.363 . S
C509 C510 1.385 . S
C510 H484 0.930 . S
C510 C509 1.385 . S
C510 C511 1.357 . S
C511 C510 1.357 . S
C511 C512 1.406 . S
C512 H486 0.929 . S
C512 C511 1.406 . S
C512 C513 1.391 . S
C513 H485 0.931 . S
C513 C508 1.370 . S
C513 C512 1.391 . S
C514 N483 1.435 . S
C514 C515 1.358 . S
C514 C519 1.371 . S
C515 H487 0.930 . S
C515 C514 1.358 . S
C515 C516 1.405 . S
C516 H488 0.932 . S
C516 C515 1.405 . S
C516 C517 1.383 . S
C517 C516 1.383 . S
C517 C518 1.393 . S
C518 H490 0.931 . S
C518 C517 1.393 . S
C518 C519 1.382 . S
C519 H489 0.929 . S
C519 C514 1.371 . S
C519 C518 1.382 . S
C520 N483 1.423 . S
C520 C521 1.362 . S
C520 C525 1.388 . S
C521 H491 0.929 . S
C521 C520 1.362 . S
C521 C522 1.376 . S
C522 H493 0.931 . S
C522 C521 1.376 . S
C522 C523 1.396 . S
C523 C522 1.396 . S
C523 C524 1.348 . S
C523 C541 1.472 . S
C524 H494 0.929 . S
C524 C523 1.348 . S
C524 C525 1.443 . S
C525 H492 0.932 . S
C525 C520 1.388 . S
C525 C524 1.443 . S
C526 N506 1.433 . S
C526 C527 1.363 . S
C526 C531 1.370 . S
C527 H495 0.929 . S
C527 C526 1.363 . S
C527 C528 1.385 . S
C528 H496 0.930 . S
C528 C527 1.385 . S
C528 C529 1.357 . S
C529 C528 1.357 . S
C529 C530 1.406 . S
C530 H497 0.929 . S
C530 C529 1.406 . S
C530 C531 1.391 . S
C531 H498 0.931 . S
C531 C526 1.370 . S
C531 C530 1.391 . S
C532 N506 1.435 . S
C532 C533 1.358 . S
C532 C537 1.371 . S
C533 H499 0.930 . S
C533 C532 1.358 . S
C533 C534 1.405 . S
C534 H500 0.932 . S
C534 C533 1.405 . S
C534 C535 1.383 . S
C535 C534 1.383 . S
C535 C536 1.393 . S
C536 H501 0.931 . S
C536 C535 1.393 . S
C536 C537 1.382 . S
C537 H502 0.929 . S
C537 C532 1.371 . S
C537 C536 1.382 . S
C538 N506 1.423 . S
C538 C539 1.362 . S
C538 C543 1.388 . S
C539 H503 0.929 . S
C539 C538 1.362 . S
C539 C540 1.376 . S
C540 H504 0.931 . S
C540 C539 1.376 . S
C540 C541 1.396 . S
C541 C523 1.472 . S
C541 C540 1.396 . S
C541 C542 1.348 . S
C542 H505 0.929 . S
C542 C541 1.348 . S
C542 C543 1.443 . S
C543 H507 0.932 . S
C543 C538 1.388 . S
C543 C542 1.443 . S
H544 C571 0.929 . S
N545 C570 1.433 . S
N545 C576 1.435 . S
N545 C582 1.423 . S
H546 C572 0.930 . S
H547 C575 0.931 . S
H548 C574 0.929 . S
H549 C577 0.930 . S
H550 C578 0.932 . S
H551 C581 0.929 . S
H552 C580 0.931 . S
H553 C583 0.929 . S
H554 C587 0.932 . S
H555 C584 0.931 . S
H556 C586 0.929 . S
H557 C589 0.929 . S
H558 C590 0.930 . S
H559 C592 0.929 . S
H560 C593 0.931 . S
H561 C595 0.930 . S
H562 C596 0.932 . S
H563 C598 0.931 . S
H564 C599 0.929 . S
H565 C601 0.929 . S
H566 C602 0.931 . S
H567 C604 0.929 . S
N568 C588 1.433 . S
N568 C594 1.435 . S
N568 C600 1.423 . S
H569 C605 0.932 . S
C570 N545 1.433 . S
C570 C571 1.363 . S
C570 C575 1.370 . S
C571 H544 0.929 . S
C571 C570 1.363 . S
C571 C572 1.385 . S
C572 H546 0.930 . S
C572 C571 1.385 . S
C572 C573 1.357 . S
C573 C572 1.357 . S
C573 C574 1.406 . S
C574 H548 0.929 . S
C574 C573 1.406 . S
C574 C575 1.391 . S
C575 H547 0.931 . S
C575 C570 1.370 . S
C575 C574 1.391 . S
C576 N545 1.435 . S
C576 C577 1.358 . S
C576 C581 1.371 . S
C577 H549 0.930 . S
C577 C576 1.358 . S
C577 C578 1.405 . S
C578 H550 0.932 . S
C578 C577 1.405 . S
C578 C579 1.383 . S
C579 C578 1.383 . S
C579 C580 1.393 . S
C580 H552 0.931 . S
C580 C579 1.393 . S
C580 C581 1.382 . S
C581 H551 0.929 . S
C581 C576 1.371 . S
C581 C580 1.382 . S
C582 N545 1.423 . S
C582 C583 1.362 . S
C582 C587 1.388 . S
C583 H553 0.929 . S
C583 C582 1.362 . S
C583 C584 1.376 . S
C584 H555 0.931 . S
C584 C583 1.376 . S
C584 C585 1.396 . S
C585 C584 1.396 . S
C585 C586 1.348 . S
C585 C603 1.472 . S
C586 H556 0.929 . S
C586 C585 1.348 . S
C586 C587 1.443 . S
C587 H554 0.932 . S
C587 C582 1.388 . S
C587 C586 1.443 . S
C588 N568 1.433 . S
C588 C589 1.363 . S
C588 C593 1.370 . S
C589 H557 0.929 . S
C589 C588 1.363 . S
C589 C590 1.385 . S
C590 H558 0.930 . S
C590 C589 1.385 . S
C590 C591 1.357 . S
C591 C590 1.357 . S
C591 C592 1.406 . S
C592 H559 0.929 . S
C592 C591 1.406 . S
C592 C593 1.391 . S
C593 H560 0.931 . S
C593 C588 1.370 . S
C593 C592 1.391 . S
C594 N568 1.435 . S
C594 C595 1.358 . S
C594 C599 1.371 . S
C595 H561 0.930 . S
C595 C594 1.358 . S
C595 C596 1.405 . S
C596 H562 0.932 . S
C596 C595 1.405 . S
C596 C597 1.383 . S
C597 C596 1.383 . S
C597 C598 1.393 . S
C598 H563 0.931 . S
C598 C597 1.393 . S
C598 C599 1.382 . S
C599 H564 0.929 . S
C599 C594 1.371 . S
C599 C598 1.382 . S
C600 N568 1.423 . S
C600 C601 1.362 . S
C600 C605 1.388 . S
C601 H565 0.929 . S
C601 C600 1.362 . S
C601 C602 1.376 . S
C602 H566 0.931 . S
C602 C601 1.376 . S
C602 C603 1.396 . S
C603 C585 1.472 . S
C603 C602 1.396 . S
C603 C604 1.348 . S
C604 H567 0.929 . S
C604 C603 1.348 . S
C604 C605 1.443 . S
C605 H569 0.932 . S
C605 C600 1.388 . S
C605 C604 1.443 . S
H606 C633 0.929 . S
N607 C632 1.433 . S
N607 C638 1.435 . S
N607 C644 1.423 . S
H608 C634 0.930 . S
H609 C637 0.931 . S
H610 C636 0.929 . S
H611 C639 0.930 . S
H612 C640 0.932 . S
H613 C643 0.929 . S
H614 C642 0.931 . S
H615 C645 0.929 . S
H616 C649 0.932 . S
H617 C646 0.931 . S
H618 C648 0.929 . S
H619 C651 0.929 . S
H620 C652 0.930 . S
H621 C654 0.929 . S
H622 C655 0.931 . S
H623 C657 0.930 . S
H624 C658 0.932 . S
H625 C660 0.931 . S
H626 C661 0.929 . S
H627 C663 0.929 . S
H628 C664 0.931 . S
H629 C666 0.929 . S
N630 C650 1.433 . S
N630 C656 1.435 . S
N630 C662 1.423 . S
H631 C667 0.932 . S
C632 N607 1.433 . S
C632 C633 1.363 . S
C632 C637 1.370 . S
C633 H606 0.929 . S
C633 C632 1.363 . S
C633 C634 1.385 . S
C634 H608 0.930 . S
C634 C633 1.385 . S
C634 C635 1.357 . S
C635 C634 1.357 . S
C635 C636 1.406 . S
C636 H610 0.929 . S
C636 C635 1.406 . S
C636 C637 1.391 . S
C637 H609 0.931 . S
C637 C632 1.370 . S
C637 C636 1.391 . S
C638 N607 1.435 . S
C638 C639 1.358 . S
C638 C643 1.371 . S
C639 H611 0.930 . S
C639 C638 1.358 . S
C639 C640 1.405 . S
C640 H612 0.932 . S
C640 C639 1.405 . S
C640 C641 1.383 . S
C641 C640 1.383 . S
C641 C642 1.393 . S
C642 H614 0.931 . S
C642 C641 1.393 . S
C642 C643 1.382 . S
C643 H613 0.929 . S
C643 C638 1.371 . S
C643 C642 1.382 . S
C644 N607 1.423 . S
C644 C645 1.362 . S
C644 C649 1.388 . S
C645 H615 0.929 . S
C645 C644 1.362 . S
C645 C646 1.376 . S
C646 H617 0.931 . S
C646 C645 1.376 . S
C646 C647 1.396 . S
C647 C646 1.396 . S
C647 C648 1.348 . S
C647 C665 1.472 . S
C648 H618 0.929 . S
C648 C647 1.348 . S
C648 C649 1.443 . S
C649 H616 0.932 . S
C649 C644 1.388 . S
C649 C648 1.443 . S
C650 N630 1.433 . S
C650 C651 1.363 . S
C650 C655 1.370 . S
C651 H619 0.929 . S
C651 C650 1.363 . S
C651 C652 1.385 . S
C652 H620 0.930 . S
C652 C651 1.385 . S
C652 C653 1.357 . S
C653 C652 1.357 . S
C653 C654 1.406 . S
C654 H621 0.929 . S
C654 C653 1.406 . S
C654 C655 1.391 . S
C655 H622 0.931 . S
C655 C650 1.370 . S
C655 C654 1.391 . S
C656 N630 1.435 . S
C656 C657 1.358 . S
C656 C661 1.371 . S
C657 H623 0.930 . S
C657 C656 1.358 . S
C657 C658 1.405 . S
C658 H624 0.932 . S
C658 C657 1.405 . S
C658 C659 1.383 . S
C659 C658 1.383 . S
C659 C660 1.393 . S
C660 H625 0.931 . S
C660 C659 1.393 . S
C660 C661 1.382 . S
C661 H626 0.929 . S
C661 C656 1.371 . S
C661 C660 1.382 . S
C662 N630 1.423 . S
C662 C663 1.362 . S
C662 C667 1.388 . S
C663 H627 0.929 . S
C663 C662 1.362 . S
C663 C664 1.376 . S
C664 H628 0.931 . S
C664 C663 1.376 . S
C664 C665 1.396 . S
C665 C647 1.472 . S
C665 C664 1.396 . S
C665 C666 1.348 . S
C666 H629 0.929 . S
C666 C665 1.348 . S
C666 C667 1.443 . S
C667 H631 0.932 . S
C667 C662 1.388 . S
C667 C666 1.443 . S
H668 C695 0.929 . S
N669 C694 1.433 . S
N669 C700 1.435 . S
N669 C706 1.423 . S
H670 C696 0.930 . S
H671 C699 0.931 . S
H672 C698 0.929 . S
H673 C701 0.930 . S
H674 C702 0.932 . S
H675 C705 0.929 . S
H676 C704 0.931 . S
H677 C707 0.929 . S
H678 C711 0.932 . S
H679 C708 0.931 . S
H680 C710 0.929 . S
H681 C713 0.929 . S
H682 C714 0.930 . S
H683 C716 0.929 . S
H684 C717 0.931 . S
H685 C719 0.930 . S
H686 C720 0.932 . S
H687 C722 0.931 . S
H688 C723 0.929 . S
H689 C725 0.929 . S
H690 C726 0.931 . S
H691 C728 0.929 . S
N692 C712 1.433 . S
N692 C718 1.435 . S
N692 C724 1.423 . S
H693 C729 0.932 . S
C694 N669 1.433 . S
C694 C695 1.363 . S
C694 C699 1.370 . S
C695 H668 0.929 . S
C695 C694 1.363 . S
C695 C696 1.385 . S
C696 H670 0.930 . S
C696 C695 1.385 . S
C696 C697 1.357 . S
C697 C696 1.357 . S
C697 C698 1.406 . S
C698 H672 0.929 . S
C698 C697 1.406 . S
C698 C699 1.391 . S
C699 H671 0.931 . S
C699 C694 1.370 . S
C699 C698 1.391 . S
C700 N669 1.435 . S
C700 C701 1.358 . S
C700 C705 1.371 . S
C701 H673 0.930 . S
C701 C700 1.358 . S
C701 C702 1.405 . S
C702 H674 0.932 . S
C702 C701 1.405 . S
C702 C703 1.383 . S
C703 C702 1.383 . S
C703 C704 1.393 . S
C704 H676 0.931 . S
C704 C703 1.393 . S
C704 C705 1.382 . S
C705 H675 0.929 . S
C705 C700 1.371 . S
C705 C704 1.382 . S
C706 N669 1.423 . S
C706 C707 1.362 . S
C706 C711 1.388 . S
C707 H677 0.929 . S
C707 C706 1.362 . S
C707 C708 1.376 . S
C708 H679 0.931 . S
C708 C707 1.376 . S
C708 C709 1.396 . S
C709 C708 1.396 . S
C709 C710 1.348 . S
C709 C727 1.472 . S
C710 H680 0.929 . S
C710 C709 1.348 . S
C710 C711 1.443 . S
C711 H678 0.932 . S
C711 C706 1.388 . S
C711 C710 1.443 . S
C712 N692 1.433 . S
C712 C713 1.363 . S
C712 C717 1.370 . S
C713 H681 0.929 . S
C713 C712 1.363 . S
C713 C714 1.385 . S
C714 H682 0.930 . S
C714 C713 1.385 . S
C714 C715 1.357 . S
C715 C714 1.357 . S
C715 C716 1.406 . S
C716 H683 0.929 . S
C716 C715 1.406 . S
C716 C717 1.391 . S
C717 H684 0.931 . S
C717 C712 1.370 . S
C717 C716 1.391 . S
C718 N692 1.435 . S
C718 C719 1.358 . S
C718 C723 1.371 . S
C719 H685 0.930 . S
C719 C718 1.358 . S
C719 C720 1.405 . S
C720 H686 0.932 . S
C720 C719 1.405 . S
C720 C721 1.383 . S
C721 C720 1.383 . S
C721 C722 1.393 . S
C722 H687 0.931 . S
C722 C721 1.393 . S
C722 C723 1.382 . S
C723 H688 0.929 . S
C723 C718 1.371 . S
C723 C722 1.382 . S
C724 N692 1.423 . S
C724 C725 1.362 . S
C724 C729 1.388 . S
C725 H689 0.929 . S
C725 C724 1.362 . S
C725 C726 1.376 . S
C726 H690 0.931 . S
C726 C725 1.376 . S
C726 C727 1.396 . S
C727 C709 1.472 . S
C727 C726 1.396 . S
C727 C728 1.348 . S
C728 H691 0.929 . S
C728 C727 1.348 . S
C728 C729 1.443 . S
C729 H693 0.932 . S
C729 C724 1.388 . S
C729 C728 1.443 . S
H730 C757 0.929 . S
N731 C756 1.433 . S
N731 C762 1.435 . S
N731 C768 1.423 . S
H732 C758 0.930 . S
H733 C761 0.931 . S
H734 C760 0.929 . S
H735 C763 0.930 . S
H736 C764 0.932 . S
H737 C767 0.929 . S
H738 C766 0.931 . S
H739 C769 0.929 . S
H740 C773 0.932 . S
H741 C770 0.931 . S
H742 C772 0.929 . S
H743 C775 0.929 . S
H744 C776 0.930 . S
H745 C778 0.929 . S
H746 C779 0.931 . S
H747 C781 0.930 . S
H748 C782 0.932 . S
H749 C784 0.931 . S
H750 C785 0.929 . S
H751 C787 0.929 . S
H752 C788 0.931 . S
H753 C790 0.929 . S
N754 C774 1.433 . S
N754 C780 1.435 . S
N754 C786 1.423 . S
H755 C791 0.932 . S
C756 N731 1.433 . S
C756 C757 1.363 . S
C756 C761 1.370 . S
C757 H730 0.929 . S
C757 C756 1.363 . S
C757 C758 1.385 . S
C758 H732 0.930 . S
C758 C757 1.385 . S
C758 C759 1.357 . S
C759 C758 1.357 . S
C759 C760 1.406 . S
C760 H734 0.929 . S
C760 C759 1.406 . S
C760 C761 1.391 . S
C761 H733 0.931 . S
C761 C756 1.370 . S
C761 C760 1.391 . S
C762 N731 1.435 . S
C762 C763 1.358 . S
C762 C767 1.371 . S
C763 H735 0.930 . S
C763 C762 1.358 . S
C763 C764 1.405 . S
C764 H736 0.932 . S
C764 C763 1.405 . S
C764 C765 1.383 . S
C765 C764 1.383 . S
C765 C766 1.393 . S
C766 H738 0.931 . S
C766 C765 1.393 . S
C766 C767 1.382 . S
C767 H737 0.929 . S
C767 C762 1.371 . S
C767 C766 1.382 . S
C768 N731 1.423 . S
C768 C769 1.362 . S
C768 C773 1.388 . S
C769 H739 0.929 . S
C769 C768 1.362 . S
C769 C770 1.376 . S
C770 H741 0.931 . S
C770 C769 1.376 . S
C770 C771 1.396 . S
C771 C770 1.396 . S
C771 C772 1.348 . S
C771 C789 1.472 . S
C772 H742 0.929 . S
C772 C771 1.348 . S
C772 C773 1.443 . S
C773 H740 0.932 . S
C773 C768 1.388 . S
C773 C772 1.443 . S
C774 N754 1.433 . S
C774 C775 1.363 . S
C774 C779 1.370 . S
C775 H743 0.929 . S
C775 C774 1.363 . S
C775 C776 1.385 . S
C776 H744 0.930 . S
C776 C775 1.385 . S
C776 C777 1.357 . S
C777 C776 1.357 . S
C777 C778 1.406 . S
C778 H745 0.929 . S
C778 C777 1.406 . S
C778 C779 1.391 . S
C779 H746 0.931 . S
C779 C774 1.370 . S
C779 C778 1.391 . S
C780 N754 1.435 . S
C780 C781 1.358 . S
C780 C785 1.371 . S
C781 H747 0.930 . S
C781 C780 1.358 . S
C781 C782 1.405 . S
C782 H748 0.932 . S
C782 C781 1.405 . S
C782 C783 1.383 . S
C783 C782 1.383 . S
C783 C784 1.393 . S
C784 H749 0.931 . S
C784 C783 1.393 . S
C784 C785 1.382 . S
C785 H750 0.929 . S
C785 C780 1.371 . S
C785 C784 1.382 . S
C786 N754 1.423 . S
C786 C787 1.362 . S
C786 C791 1.388 . S
C787 H751 0.929 . S
C787 C786 1.362 . S
C787 C788 1.376 . S
C788 H752 0.931 . S
C788 C787 1.376 . S
C788 C789 1.396 . S
C789 C771 1.472 . S
C789 C788 1.396 . S
C789 C790 1.348 . S
C790 H753 0.929 . S
C790 C789 1.348 . S
C790 C791 1.443 . S
C791 H755 0.932 . S
C791 C786 1.388 . S
C791 C790 1.443 . S
H792 C819 0.929 . S
N793 C818 1.433 . S
N793 C824 1.435 . S
N793 C830 1.423 . S
H794 C820 0.930 . S
H795 C823 0.931 . S
H796 C822 0.929 . S
H797 C825 0.930 . S
H798 C826 0.932 . S
H799 C829 0.929 . S
H800 C828 0.931 . S
H801 C831 0.929 . S
H802 C835 0.932 1_655 S
H803 C832 0.931 . S
H804 C834 0.937 . S
H805 C837 0.929 . S
H806 C838 0.930 . S
H807 C840 0.929 . S
H808 C841 0.931 . S
H809 C843 0.930 . S
H810 C844 0.932 . S
H811 C846 0.931 . S
H812 C847 0.929 . S
H813 C849 0.929 . S
H814 C850 0.931 . S
H815 C852 0.929 . S
N816 C836 1.433 . S
N816 C842 1.435 . S
N816 C848 1.423 . S
H817 C853 0.932 1_655 S
C818 N793 1.433 . S
C818 C819 1.363 . S
C818 C823 1.370 1_455 S
C819 H792 0.929 . S
C819 C818 1.363 . S
C819 C820 1.385 . S
C820 H794 0.930 . S
C820 C819 1.385 . S
C820 C821 1.357 1_455 S
C821 C820 1.357 1_655 S
C821 C822 1.406 . S
C822 H796 0.929 . S
C822 C821 1.406 . S
C822 C823 1.391 . S
C823 H795 0.931 . S
C823 C818 1.370 1_655 S
C823 C822 1.391 . S
C824 N793 1.435 . S
C824 C825 1.358 1_455 S
C824 C829 1.371 . S
C825 H797 0.930 . S
C825 C824 1.358 1_655 S
C825 C826 1.405 . S
C826 H798 0.932 . S
C826 C825 1.405 . S
C826 C827 1.383 1_655 S
C827 C826 1.383 1_455 S
C827 C828 1.393 . S
C828 H800 0.931 . S
C828 C827 1.393 . S
C828 C829 1.382 . S
C829 H799 0.929 . S
C829 C824 1.371 . S
C829 C828 1.382 . S
C830 N793 1.423 . S
C830 C831 1.362 . S
C830 C835 1.388 . S
C831 H801 0.929 . S
C831 C830 1.362 . S
C831 C832 1.376 . S
C832 H803 0.931 . S
C832 C831 1.376 . S
C832 C833 1.396 . S
C833 C832 1.396 . S
C833 C834 1.348 . S
C833 C851 1.472 . S
C834 H804 0.937 . S
C834 C833 1.348 . S
C834 C835 1.443 . S
C835 H802 0.932 1_455 S
C835 C830 1.388 . S
C835 C834 1.443 . S
C836 N816 1.433 . S
C836 C837 1.363 . S
C836 C841 1.370 1_455 S
C837 H805 0.929 . S
C837 C836 1.363 . S
C837 C838 1.385 . S
C838 H806 0.930 . S
C838 C837 1.385 . S
C838 C839 1.357 1_455 S
C839 C838 1.357 1_655 S
C839 C840 1.406 . S
C840 H807 0.929 . S
C840 C839 1.406 . S
C840 C841 1.391 . S
C841 H808 0.931 . S
C841 C836 1.370 1_655 S
C841 C840 1.391 . S
C842 N816 1.435 . S
C842 C843 1.358 1_455 S
C842 C847 1.371 . S
C843 H809 0.930 . S
C843 C842 1.358 1_655 S
C843 C844 1.405 . S
C844 H810 0.932 . S
C844 C843 1.405 . S
C844 C845 1.383 1_655 S
C845 C844 1.383 1_455 S
C845 C846 1.393 . S
C846 H811 0.931 . S
C846 C845 1.393 . S
C846 C847 1.382 . S
C847 H812 0.929 . S
C847 C842 1.371 . S
C847 C846 1.382 . S
C848 N816 1.423 . S
C848 C849 1.362 . S
C848 C853 1.388 . S
C849 H813 0.929 . S
C849 C848 1.362 . S
C849 C850 1.376 . S
C850 H814 0.931 . S
C850 C849 1.376 . S
C850 C851 1.396 . S
C851 C833 1.472 . S
C851 C850 1.396 . S
C851 C852 1.348 . S
C852 H815 0.929 . S
C852 C851 1.348 . S
C852 C853 1.443 . S
C853 H817 0.932 1_455 S
C853 C848 1.388 . S
C853 C852 1.443 . S
H854 C881 0.929 . S
N855 C880 1.433 . S
N855 C886 1.435 . S
N855 C892 1.423 . S
H856 C882 0.930 . S
H857 C885 0.931 . S
H858 C884 0.929 . S
H859 C887 0.930 . S
H860 C888 0.932 . S
H861 C891 0.929 . S
H862 C890 0.931 . S
H863 C893 0.929 . S
H864 C897 0.932 . S
H865 C894 0.931 . S
H866 C896 0.929 . S
H867 C899 0.929 . S
H868 C900 0.930 . S
H869 C902 0.929 . S
H870 C903 0.931 . S
H871 C905 0.930 . S
H872 C906 0.932 . S
H873 C908 0.931 . S
H874 C909 0.929 . S
H875 C911 0.929 . S
H876 C912 0.931 . S
H877 C914 0.929 . S
N878 C898 1.433 . S
N878 C904 1.435 . S
N878 C910 1.423 . S
H879 C915 0.932 . S
C880 N855 1.433 . S
C880 C881 1.363 . S
C880 C885 1.370 . S
C881 H854 0.929 . S
C881 C880 1.363 . S
C881 C882 1.385 . S
C882 H856 0.930 . S
C882 C881 1.385 . S
C882 C883 1.357 . S
C883 C882 1.357 . S
C883 C884 1.406 . S
C884 H858 0.929 . S
C884 C883 1.406 . S
C884 C885 1.391 . S
C885 H857 0.931 . S
C885 C880 1.370 . S
C885 C884 1.391 . S
C886 N855 1.435 . S
C886 C887 1.358 . S
C886 C891 1.371 . S
C887 H859 0.930 . S
C887 C886 1.358 . S
C887 C888 1.405 . S
C888 H860 0.932 . S
C888 C887 1.405 . S
C888 C889 1.383 . S
C889 C888 1.383 . S
C889 C890 1.393 . S
C890 H862 0.931 . S
C890 C889 1.393 . S
C890 C891 1.382 . S
C891 H861 0.929 . S
C891 C886 1.371 . S
C891 C890 1.382 . S
C892 N855 1.423 . S
C892 C893 1.362 . S
C892 C897 1.388 . S
C893 H863 0.929 . S
C893 C892 1.362 . S
C893 C894 1.376 . S
C894 H865 0.931 . S
C894 C893 1.376 . S
C894 C895 1.396 . S
C895 C894 1.396 . S
C895 C896 1.348 . S
C895 C913 1.472 . S
C896 H866 0.929 . S
C896 C895 1.348 . S
C896 C897 1.443 . S
C897 H864 0.932 . S
C897 C892 1.388 . S
C897 C896 1.443 . S
C898 N878 1.433 . S
C898 C899 1.363 . S
C898 C903 1.370 . S
C899 H867 0.929 . S
C899 C898 1.363 . S
C899 C900 1.385 . S
C900 H868 0.930 . S
C900 C899 1.385 . S
C900 C901 1.357 . S
C901 C900 1.357 . S
C901 C902 1.406 . S
C902 H869 0.929 . S
C902 C901 1.406 . S
C902 C903 1.391 . S
C903 H870 0.931 . S
C903 C898 1.370 . S
C903 C902 1.391 . S
C904 N878 1.435 . S
C904 C905 1.358 . S
C904 C909 1.371 . S
C905 H871 0.930 . S
C905 C904 1.358 . S
C905 C906 1.405 . S
C906 H872 0.932 . S
C906 C905 1.405 . S
C906 C907 1.383 . S
C907 C906 1.383 . S
C907 C908 1.393 . S
C908 H873 0.931 . S
C908 C907 1.393 . S
C908 C909 1.382 . S
C909 H874 0.929 . S
C909 C904 1.371 . S
C909 C908 1.382 . S
C910 N878 1.423 . S
C910 C911 1.362 . S
C910 C915 1.388 . S
C911 H875 0.929 . S
C911 C910 1.362 . S
C911 C912 1.376 . S
C912 H876 0.931 . S
C912 C911 1.376 . S
C912 C913 1.396 . S
C913 C895 1.472 . S
C913 C912 1.396 . S
C913 C914 1.348 . S
C914 H877 0.929 . S
C914 C913 1.348 . S
C914 C915 1.443 . S
C915 H879 0.932 . S
C915 C910 1.388 . S
C915 C914 1.443 . S
H916 C943 0.929 . S
N917 C942 1.433 . S
N917 C948 1.435 . S
N917 C954 1.423 . S
H918 C944 0.930 . S
H919 C947 0.931 . S
H920 C946 0.929 . S
H921 C949 0.930 . S
H922 C950 0.932 . S
H923 C953 0.929 . S
H924 C952 0.931 . S
H925 C955 0.929 . S
H926 C959 0.932 1_545 S
H927 C956 0.931 . S
H928 C958 0.929 . S
H929 C961 0.929 . S
H930 C962 0.930 . S
H931 C964 0.929 . S
H932 C965 0.931 . S
H933 C967 0.930 . S
H934 C968 0.932 . S
H935 C970 0.931 . S
H936 C971 0.929 . S
H937 C973 0.929 . S
H938 C974 0.931 . S
H939 C976 0.929 . S
N940 C960 1.433 . S
N940 C966 1.435 . S
N940 C972 1.423 . S
H941 C977 0.932 1_545 S
C942 N917 1.433 . S
C942 C943 1.363 . S
C942 C947 1.370 1_565 S
C943 H916 0.929 . S
C943 C942 1.363 . S
C943 C944 1.385 . S
C944 H918 0.930 . S
C944 C943 1.385 . S
C944 C945 1.357 1_565 S
C945 C944 1.357 1_545 S
C945 C946 1.406 . S
C946 H920 0.929 . S
C946 C945 1.406 . S
C946 C947 1.391 . S
C947 H919 0.931 . S
C947 C942 1.370 1_545 S
C947 C946 1.391 . S
C948 N917 1.435 . S
C948 C949 1.358 1_565 S
C948 C953 1.371 . S
C949 H921 0.930 . S
C949 C948 1.358 1_545 S
C949 C950 1.405 . S
C950 H922 0.932 . S
C950 C949 1.405 . S
C950 C951 1.383 1_545 S
C951 C950 1.383 1_565 S
C951 C952 1.393 . S
C952 H924 0.931 . S
C952 C951 1.393 . S
C952 C953 1.382 . S
C953 H923 0.929 . S
C953 C948 1.371 . S
C953 C952 1.382 . S
C954 N917 1.423 . S
C954 C955 1.362 . S
C954 C959 1.388 . S
C955 H925 0.929 . S
C955 C954 1.362 . S
C955 C956 1.376 . S
C956 H927 0.931 . S
C956 C955 1.376 . S
C956 C957 1.396 . S
C957 C956 1.396 . S
C957 C958 1.348 . S
C957 C975 1.472 . S
C958 H928 0.929 . S
C958 C957 1.348 . S
C958 C959 1.443 . S
C959 H926 0.932 1_565 S
C959 C954 1.388 . S
C959 C958 1.443 . S
C960 N940 1.433 . S
C960 C961 1.363 . S
C960 C965 1.370 1_565 S
C961 H929 0.929 . S
C961 C960 1.363 . S
C961 C962 1.385 . S
C962 H930 0.930 . S
C962 C961 1.385 . S
C962 C963 1.357 1_565 S
C963 C962 1.357 1_545 S
C963 C964 1.406 . S
C964 H931 0.929 . S
C964 C963 1.406 . S
C964 C965 1.391 . S
C965 H932 0.931 . S
C965 C960 1.370 1_545 S
C965 C964 1.391 . S
C966 N940 1.435 . S
C966 C967 1.358 1_565 S
C966 C971 1.371 . S
C967 H933 0.930 . S
C967 C966 1.358 1_545 S
C967 C968 1.405 . S
C968 H934 0.932 . S
C968 C967 1.405 . S
C968 C969 1.383 1_545 S
C969 C968 1.383 1_565 S
C969 C970 1.393 . S
C970 H935 0.931 . S
C970 C969 1.393 . S
C970 C971 1.382 . S
C971 H936 0.929 . S
C971 C966 1.371 . S
C971 C970 1.382 . S
C972 N940 1.423 . S
C972 C973 1.362 . S
C972 C977 1.388 . S
C973 H937 0.929 . S
C973 C972 1.362 . S
C973 C974 1.376 . S
C974 H938 0.931 . S
C974 C973 1.376 . S
C974 C975 1.396 . S
C975 C957 1.472 . S
C975 C974 1.396 . S
C975 C976 1.348 . S
C976 H939 0.929 . S
C976 C975 1.348 . S
C976 C977 1.443 . S
C977 H941 0.932 1_565 S
C977 C972 1.388 . S
C977 C976 1.443 . S
H978 C1005 0.929 . S
N979 C1004 1.433 . S
N979 C1010 1.435 . S
N979 C1016 1.423 . S
H980 C1006 0.930 . S
H981 C1009 0.931 . S
H982 C1008 0.929 . S
H983 C1011 0.930 . S
H984 C1012 0.932 . S
H985 C1015 0.929 . S
H986 C1014 0.931 . S
H987 C1017 0.929 . S
H988 C1021 0.932 . S
H989 C1018 0.931 . S
H990 C1020 0.922 1_545 S
H991 C1023 0.929 . S
H992 C1024 0.930 . S
H993 C1026 0.965 . S
H994 C1027 0.953 . S
H995 C1029 0.930 . S
H996 C1030 0.932 . S
H997 C1032 0.931 . S
H998 C1033 0.929 . S
H999 C1035 0.929 . S
H1000 C1036 0.931 . S
H1001 C1038 0.881 1_545 S
N1002 C1022 1.433 . S
N1002 C1028 1.435 . S
N1002 C1034 1.423 . S
H1003 C1039 0.958 . S
C1004 N979 1.433 . S
C1004 C1005 1.363 . S
C1004 C1009 1.370 1_565 S
C1005 H978 0.929 . S
C1005 C1004 1.363 . S
C1005 C1006 1.385 . S
C1006 H980 0.930 . S
C1006 C1005 1.385 . S
C1006 C1007 1.357 . S
C1007 C1006 1.357 . S
C1007 C1008 1.406 1_565 S
C1008 H982 0.929 . S
C1008 C1007 1.406 1_545 S
C1008 C1009 1.391 . S
C1009 H981 0.931 . S
C1009 C1004 1.370 1_545 S
C1009 C1008 1.391 . S
C1010 N979 1.435 . S
C1010 C1011 1.358 1_565 S
C1010 C1015 1.371 . S
C1011 H983 0.930 . S
C1011 C1010 1.358 1_545 S
C1011 C1012 1.405 . S
C1012 H984 0.932 . S
C1012 C1011 1.405 . S
C1012 C1013 1.383 . S
C1013 C1012 1.383 . S
C1013 C1014 1.393 1_545 S
C1014 H986 0.931 . S
C1014 C1013 1.393 1_565 S
C1014 C1015 1.382 . S
C1015 H985 0.929 . S
C1015 C1010 1.371 . S
C1015 C1014 1.382 . S
C1016 N979 1.423 . S
C1016 C1017 1.362 . S
C1016 C1021 1.388 1_565 S
C1017 H987 0.929 . S
C1017 C1016 1.362 . S
C1017 C1018 1.376 . S
C1018 H989 0.931 . S
C1018 C1017 1.376 . S
C1018 C1019 1.396 . S
C1019 C1018 1.396 . S
C1019 C1020 1.378 . S
C1019 C1037 1.472 . S
C1020 H990 0.922 1_565 S
C1020 C1019 1.378 . S
C1020 C1021 1.420 1_565 S
C1021 H988 0.932 . S
C1021 C1016 1.388 1_545 S
C1021 C1020 1.420 1_545 S
C1022 N1002 1.433 . S
C1022 C1023 1.363 . S
C1022 C1027 1.353 1_565 S
C1023 H991 0.929 . S
C1023 C1022 1.363 . S
C1023 C1024 1.385 . S
C1024 H992 0.930 . S
C1024 C1023 1.385 . S
C1024 C1025 1.357 . S
C1025 C1024 1.357 . S
C1025 C1026 1.362 1_565 S
C1026 H993 0.965 . S
C1026 C1025 1.362 1_545 S
C1026 C1027 1.397 . S
C1027 H994 0.953 . S
C1027 C1022 1.353 1_545 S
C1027 C1026 1.397 . S
C1028 N1002 1.435 . S
C1028 C1029 1.358 1_565 S
C1028 C1033 1.371 . S
C1029 H995 0.930 . S
C1029 C1028 1.358 1_545 S
C1029 C1030 1.405 . S
C1030 H996 0.932 . S
C1030 C1029 1.405 . S
C1030 C1031 1.383 . S
C1031 C1030 1.383 . S
C1031 C1032 1.393 1_545 S
C1032 H997 0.931 . S
C1032 C1031 1.393 1_565 S
C1032 C1033 1.382 . S
C1033 H998 0.929 . S
C1033 C1028 1.371 . S
C1033 C1032 1.382 . S
C1034 N1002 1.423 . S
C1034 C1035 1.362 . S
C1034 C1039 1.334 1_565 S
C1035 H999 0.929 . S
C1035 C1034 1.362 . S
C1035 C1036 1.376 . S
C1036 H1000 0.931 . S
C1036 C1035 1.376 . S
C1036 C1037 1.396 . S
C1037 C1019 1.472 . S
C1037 C1036 1.396 . S
C1037 C1038 1.367 . S
C1038 H1001 0.881 1_565 S
C1038 C1037 1.367 . S
C1038 C1039 1.508 1_565 S
C1039 H1003 0.958 . S
C1039 C1034 1.334 1_545 S
C1039 C1038 1.508 1_545 S
H1040 C1067 0.929 . S
N1041 C1066 1.433 . S
N1041 C1072 1.435 . S
N1041 C1078 1.423 . S
H1042 C1068 0.930 . S
H1043 C1071 0.931 . S
H1044 C1070 0.929 . S
H1045 C1073 0.930 . S
H1046 C1074 0.932 . S
H1047 C1077 0.929 . S
H1048 C1076 0.931 . S
H1049 C1079 0.929 . S
H1050 C1083 0.932 1_455 S
H1051 C1080 0.931 . S
H1052 C1082 0.929 . S
H1053 C1085 0.929 . S
H1054 C1086 0.930 . S
H1055 C1088 0.929 . S
H1056 C1089 0.931 . S
H1057 C1091 0.930 . S
H1058 C1092 0.932 . S
H1059 C1094 0.931 . S
H1060 C1095 0.929 . S
H1061 C1097 0.929 . S
H1062 C1098 0.931 . S
H1063 C1100 0.929 . S
N1064 C1084 1.433 . S
N1064 C1090 1.435 . S
N1064 C1096 1.423 . S
H1065 C1101 0.932 1_455 S
C1066 N1041 1.433 . S
C1066 C1067 1.363 . S
C1066 C1071 1.370 1_655 S
C1067 H1040 0.929 . S
C1067 C1066 1.363 . S
C1067 C1068 1.385 . S
C1068 H1042 0.930 . S
C1068 C1067 1.385 . S
C1068 C1069 1.357 1_655 S
C1069 C1068 1.357 1_455 S
C1069 C1070 1.406 . S
C1070 H1044 0.929 . S
C1070 C1069 1.406 . S
C1070 C1071 1.391 . S
C1071 H1043 0.931 . S
C1071 C1066 1.370 1_455 S
C1071 C1070 1.391 . S
C1072 N1041 1.435 . S
C1072 C1073 1.358 1_655 S
C1072 C1077 1.371 . S
C1073 H1045 0.930 . S
C1073 C1072 1.358 1_455 S
C1073 C1074 1.405 . S
C1074 H1046 0.932 . S
C1074 C1073 1.405 . S
C1074 C1075 1.383 1_455 S
C1075 C1074 1.383 1_655 S
C1075 C1076 1.393 . S
C1076 H1048 0.931 . S
C1076 C1075 1.393 . S
C1076 C1077 1.382 . S
C1077 H1047 0.929 . S
C1077 C1072 1.371 . S
C1077 C1076 1.382 . S
C1078 N1041 1.423 . S
C1078 C1079 1.362 . S
C1078 C1083 1.388 . S
C1079 H1049 0.929 . S
C1079 C1078 1.362 . S
C1079 C1080 1.376 . S
C1080 H1051 0.931 . S
C1080 C1079 1.376 . S
C1080 C1081 1.396 . S
C1081 C1080 1.396 . S
C1081 C1082 1.348 . S
C1081 C1099 1.472 . S
C1082 H1052 0.929 . S
C1082 C1081 1.348 . S
C1082 C1083 1.443 . S
C1083 H1050 0.932 1_655 S
C1083 C1078 1.388 . S
C1083 C1082 1.443 . S
C1084 N1064 1.433 . S
C1084 C1085 1.363 . S
C1084 C1089 1.370 1_655 S
C1085 H1053 0.929 . S
C1085 C1084 1.363 . S
C1085 C1086 1.385 . S
C1086 H1054 0.930 . S
C1086 C1085 1.385 . S
C1086 C1087 1.357 1_655 S
C1087 C1086 1.357 1_455 S
C1087 C1088 1.406 . S
C1088 H1055 0.929 . S
C1088 C1087 1.406 . S
C1088 C1089 1.391 . S
C1089 H1056 0.931 . S
C1089 C1084 1.370 1_455 S
C1089 C1088 1.391 . S
C1090 N1064 1.435 . S
C1090 C1091 1.358 1_655 S
C1090 C1095 1.371 . S
C1091 H1057 0.930 . S
C1091 C1090 1.358 1_455 S
C1091 C1092 1.405 . S
C1092 H1058 0.932 . S
C1092 C1091 1.405 . S
C1092 C1093 1.383 1_455 S
C1093 C1092 1.383 1_655 S
C1093 C1094 1.393 . S
C1094 H1059 0.931 . S
C1094 C1093 1.393 . S
C1094 C1095 1.382 . S
C1095 H1060 0.929 . S
C1095 C1090 1.371 . S
C1095 C1094 1.382 . S
C1096 N1064 1.423 . S
C1096 C1097 1.362 . S
C1096 C1101 1.388 . S
C1097 H1061 0.929 . S
C1097 C1096 1.362 . S
C1097 C1098 1.376 . S
C1098 H1062 0.931 . S
C1098 C1097 1.376 . S
C1098 C1099 1.396 . S
C1099 C1081 1.472 . S
C1099 C1098 1.396 . S
C1099 C1100 1.348 . S
C1100 H1063 0.929 . S
C1100 C1099 1.348 . S
C1100 C1101 1.443 . S
C1101 H1065 0.932 1_655 S
C1101 C1096 1.388 . S
C1101 C1100 1.443 . S
H1102 C1129 0.929 . S
N1103 C1128 1.433 . S
N1103 C1134 1.435 . S
N1103 C1140 1.423 . S
H1104 C1130 0.930 . S
H1105 C1133 0.931 . S
H1106 C1132 0.929 . S
H1107 C1135 0.930 . S
H1108 C1136 0.932 . S
H1109 C1139 0.929 . S
H1110 C1138 0.931 . S
H1111 C1141 0.929 . S
H1112 C1145 0.932 . S
H1113 C1142 0.931 . S
H1114 C1144 0.929 . S
H1115 C1147 0.929 . S
H1116 C1148 0.930 . S
H1117 C1150 0.929 . S
H1118 C1151 0.931 . S
H1119 C1153 0.930 . S
H1120 C1154 0.932 . S
H1121 C1156 0.931 . S
H1122 C1157 0.929 . S
H1123 C1159 0.929 . S
H1124 C1160 0.931 . S
H1125 C1162 0.929 . S
N1126 C1146 1.433 . S
N1126 C1152 1.435 . S
N1126 C1158 1.423 . S
H1127 C1163 0.932 . S
C1128 N1103 1.433 . S
C1128 C1129 1.363 . S
C1128 C1133 1.370 . S
C1129 H1102 0.929 . S
C1129 C1128 1.363 . S
C1129 C1130 1.385 . S
C1130 H1104 0.930 . S
C1130 C1129 1.385 . S
C1130 C1131 1.357 . S
C1131 C1130 1.357 . S
C1131 C1132 1.406 . S
C1132 H1106 0.929 . S
C1132 C1131 1.406 . S
C1132 C1133 1.391 . S
C1133 H1105 0.931 . S
C1133 C1128 1.370 . S
C1133 C1132 1.391 . S
C1134 N1103 1.435 . S
C1134 C1135 1.358 . S
C1134 C1139 1.371 . S
C1135 H1107 0.930 . S
C1135 C1134 1.358 . S
C1135 C1136 1.405 . S
C1136 H1108 0.932 . S
C1136 C1135 1.405 . S
C1136 C1137 1.383 . S
C1137 C1136 1.383 . S
C1137 C1138 1.393 . S
C1138 H1110 0.931 . S
C1138 C1137 1.393 . S
C1138 C1139 1.382 . S
C1139 H1109 0.929 . S
C1139 C1134 1.371 . S
C1139 C1138 1.382 . S
C1140 N1103 1.423 . S
C1140 C1141 1.362 . S
C1140 C1145 1.388 . S
C1141 H1111 0.929 . S
C1141 C1140 1.362 . S
C1141 C1142 1.376 . S
C1142 H1113 0.931 . S
C1142 C1141 1.376 . S
C1142 C1143 1.396 . S
C1143 C1142 1.396 . S
C1143 C1144 1.348 . S
C1143 C1161 1.472 . S
C1144 H1114 0.929 . S
C1144 C1143 1.348 . S
C1144 C1145 1.443 . S
C1145 H1112 0.932 . S
C1145 C1140 1.388 . S
C1145 C1144 1.443 . S
C1146 N1126 1.433 . S
C1146 C1147 1.363 . S
C1146 C1151 1.370 . S
C1147 H1115 0.929 . S
C1147 C1146 1.363 . S
C1147 C1148 1.385 . S
C1148 H1116 0.930 . S
C1148 C1147 1.385 . S
C1148 C1149 1.357 . S
C1149 C1148 1.357 . S
C1149 C1150 1.406 . S
C1150 H1117 0.929 . S
C1150 C1149 1.406 . S
C1150 C1151 1.391 . S
C1151 H1118 0.931 . S
C1151 C1146 1.370 . S
C1151 C1150 1.391 . S
C1152 N1126 1.435 . S
C1152 C1153 1.358 . S
C1152 C1157 1.371 . S
C1153 H1119 0.930 . S
C1153 C1152 1.358 . S
C1153 C1154 1.405 . S
C1154 H1120 0.932 . S
C1154 C1153 1.405 . S
C1154 C1155 1.383 . S
C1155 C1154 1.383 . S
C1155 C1156 1.393 . S
C1156 H1121 0.931 . S
C1156 C1155 1.393 . S
C1156 C1157 1.382 . S
C1157 H1122 0.929 . S
C1157 C1152 1.371 . S
C1157 C1156 1.382 . S
C1158 N1126 1.423 . S
C1158 C1159 1.362 . S
C1158 C1163 1.388 . S
C1159 H1123 0.929 . S
C1159 C1158 1.362 . S
C1159 C1160 1.376 . S
C1160 H1124 0.931 . S
C1160 C1159 1.376 . S
C1160 C1161 1.396 . S
C1161 C1143 1.472 . S
C1161 C1160 1.396 . S
C1161 C1162 1.348 . S
C1162 H1125 0.929 . S
C1162 C1161 1.348 . S
C1162 C1163 1.443 . S
C1163 H1127 0.932 . S
C1163 C1158 1.388 . S
C1163 C1162 1.443 . S
H1164 C1191 0.929 . S
N1165 C1190 1.433 . S
N1165 C1196 1.435 . S
N1165 C1202 1.423 . S
H1166 C1192 0.930 . S
H1167 C1195 0.931 . S
H1168 C1194 0.929 . S
H1169 C1197 0.930 . S
H1170 C1198 0.932 . S
H1171 C1201 0.929 . S
H1172 C1200 0.931 . S
H1173 C1203 0.929 . S
H1174 C1207 0.932 . S
H1175 C1204 0.931 . S
H1176 C1206 0.929 . S
H1177 C1209 0.929 . S
H1178 C1210 0.930 . S
H1179 C1212 0.929 . S
H1180 C1213 0.931 . S
H1181 C1215 0.930 . S
H1182 C1216 0.932 . S
H1183 C1218 0.931 . S
H1184 C1219 0.929 . S
H1185 C1221 0.929 . S
H1186 C1222 0.931 . S
H1187 C1224 0.929 . S
N1188 C1208 1.433 . S
N1188 C1214 1.435 . S
N1188 C1220 1.423 . S
H1189 C1225 0.932 . S
C1190 N1165 1.433 . S
C1190 C1191 1.363 . S
C1190 C1195 1.370 . S
C1191 H1164 0.929 . S
C1191 C1190 1.363 . S
C1191 C1192 1.385 . S
C1192 H1166 0.930 . S
C1192 C1191 1.385 . S
C1192 C1193 1.357 . S
C1193 C1192 1.357 . S
C1193 C1194 1.406 . S
C1194 H1168 0.929 . S
C1194 C1193 1.406 . S
C1194 C1195 1.391 . S
C1195 H1167 0.931 . S
C1195 C1190 1.370 . S
C1195 C1194 1.391 . S
C1196 N1165 1.435 . S
C1196 C1197 1.358 . S
C1196 C1201 1.371 . S
C1197 H1169 0.930 . S
C1197 C1196 1.358 . S
C1197 C1198 1.405 . S
C1198 H1170 0.932 . S
C1198 C1197 1.405 . S
C1198 C1199 1.383 . S
C1199 C1198 1.383 . S
C1199 C1200 1.393 . S
C1200 H1172 0.931 . S
C1200 C1199 1.393 . S
C1200 C1201 1.382 . S
C1201 H1171 0.929 . S
C1201 C1196 1.371 . S
C1201 C1200 1.382 . S
C1202 N1165 1.423 . S
C1202 C1203 1.362 . S
C1202 C1207 1.388 . S
C1203 H1173 0.929 . S
C1203 C1202 1.362 . S
C1203 C1204 1.376 . S
C1204 H1175 0.931 . S
C1204 C1203 1.376 . S
C1204 C1205 1.396 . S
C1205 C1204 1.396 . S
C1205 C1206 1.348 . S
C1205 C1223 1.472 . S
C1206 H1176 0.929 . S
C1206 C1205 1.348 . S
C1206 C1207 1.443 . S
C1207 H1174 0.932 . S
C1207 C1202 1.388 . S
C1207 C1206 1.443 . S
C1208 N1188 1.433 . S
C1208 C1209 1.363 . S
C1208 C1213 1.370 . S
C1209 H1177 0.929 . S
C1209 C1208 1.363 . S
C1209 C1210 1.385 . S
C1210 H1178 0.930 . S
C1210 C1209 1.385 . S
C1210 C1211 1.357 . S
C1211 C1210 1.357 . S
C1211 C1212 1.406 . S
C1212 H1179 0.929 . S
C1212 C1211 1.406 . S
C1212 C1213 1.391 . S
C1213 H1180 0.931 . S
C1213 C1208 1.370 . S
C1213 C1212 1.391 . S
C1214 N1188 1.435 . S
C1214 C1215 1.358 . S
C1214 C1219 1.371 . S
C1215 H1181 0.930 . S
C1215 C1214 1.358 . S
C1215 C1216 1.405 . S
C1216 H1182 0.932 . S
C1216 C1215 1.405 . S
C1216 C1217 1.383 . S
C1217 C1216 1.383 . S
C1217 C1218 1.393 . S
C1218 H1183 0.931 . S
C1218 C1217 1.393 . S
C1218 C1219 1.382 . S
C1219 H1184 0.929 . S
C1219 C1214 1.371 . S
C1219 C1218 1.382 . S
C1220 N1188 1.423 . S
C1220 C1221 1.362 . S
C1220 C1225 1.388 . S
C1221 H1185 0.929 . S
C1221 C1220 1.362 . S
C1221 C1222 1.376 . S
C1222 H1186 0.931 . S
C1222 C1221 1.376 . S
C1222 C1223 1.396 . S
C1223 C1205 1.472 . S
C1223 C1222 1.396 . S
C1223 C1224 1.348 . S
C1224 H1187 0.929 . S
C1224 C1223 1.348 . S
C1224 C1225 1.443 . S
C1225 H1189 0.932 . S
C1225 C1220 1.388 . S
C1225 C1224 1.443 . S
H1226 C1253 0.929 . S
N1227 C1252 1.433 . S
N1227 C1258 1.435 . S
N1227 C1264 1.423 . S
H1228 C1254 0.930 . S
H1229 C1257 0.931 . S
H1230 C1256 0.929 . S
H1231 C1259 0.930 . S
H1232 C1260 0.932 . S
H1233 C1263 0.929 . S
H1234 C1262 0.931 . S
H1235 C1265 0.929 . S
H1236 C1269 0.932 . S
H1237 C1266 0.931 . S
H1238 C1268 0.929 . S
H1239 C1271 0.929 . S
H1240 C1272 0.930 . S
H1241 C1274 0.929 . S
H1242 C1275 0.931 . S
H1243 C1277 0.930 . S
H1244 C1278 0.932 . S
H1245 C1280 0.931 . S
H1246 C1281 0.929 . S
H1247 C1283 0.929 . S
H1248 C1284 0.931 . S
H1249 C1286 0.929 . S
N1250 C1270 1.433 . S
N1250 C1276 1.435 . S
N1250 C1282 1.423 . S
H1251 C1287 0.932 . S
C1252 N1227 1.433 . S
C1252 C1253 1.363 . S
C1252 C1257 1.370 . S
C1253 H1226 0.929 . S
C1253 C1252 1.363 . S
C1253 C1254 1.385 . S
C1254 H1228 0.930 . S
C1254 C1253 1.385 . S
C1254 C1255 1.357 . S
C1255 C1254 1.357 . S
C1255 C1256 1.406 . S
C1256 H1230 0.929 . S
C1256 C1255 1.406 . S
C1256 C1257 1.391 . S
C1257 H1229 0.931 . S
C1257 C1252 1.370 . S
C1257 C1256 1.391 . S
C1258 N1227 1.435 . S
C1258 C1259 1.358 . S
C1258 C1263 1.371 . S
C1259 H1231 0.930 . S
C1259 C1258 1.358 . S
C1259 C1260 1.405 . S
C1260 H1232 0.932 . S
C1260 C1259 1.405 . S
C1260 C1261 1.383 . S
C1261 C1260 1.383 . S
C1261 C1262 1.393 . S
C1262 H1234 0.931 . S
C1262 C1261 1.393 . S
C1262 C1263 1.382 . S
C1263 H1233 0.929 . S
C1263 C1258 1.371 . S
C1263 C1262 1.382 . S
C1264 N1227 1.423 . S
C1264 C1265 1.362 . S
C1264 C1269 1.388 . S
C1265 H1235 0.929 . S
C1265 C1264 1.362 . S
C1265 C1266 1.376 . S
C1266 H1237 0.931 . S
C1266 C1265 1.376 . S
C1266 C1267 1.396 . S
C1267 C1266 1.396 . S
C1267 C1268 1.348 . S
C1267 C1285 1.472 . S
C1268 H1238 0.929 . S
C1268 C1267 1.348 . S
C1268 C1269 1.443 . S
C1269 H1236 0.932 . S
C1269 C1264 1.388 . S
C1269 C1268 1.443 . S
C1270 N1250 1.433 . S
C1270 C1271 1.363 . S
C1270 C1275 1.370 . S
C1271 H1239 0.929 . S
C1271 C1270 1.363 . S
C1271 C1272 1.385 . S
C1272 H1240 0.930 . S
C1272 C1271 1.385 . S
C1272 C1273 1.357 . S
C1273 C1272 1.357 . S
C1273 C1274 1.406 . S
C1274 H1241 0.929 . S
C1274 C1273 1.406 . S
C1274 C1275 1.391 . S
C1275 H1242 0.931 . S
C1275 C1270 1.370 . S
C1275 C1274 1.391 . S
C1276 N1250 1.435 . S
C1276 C1277 1.358 . S
C1276 C1281 1.371 . S
C1277 H1243 0.930 . S
C1277 C1276 1.358 . S
C1277 C1278 1.405 . S
C1278 H1244 0.932 . S
C1278 C1277 1.405 . S
C1278 C1279 1.383 . S
C1279 C1278 1.383 . S
C1279 C1280 1.393 . S
C1280 H1245 0.931 . S
C1280 C1279 1.393 . S
C1280 C1281 1.382 . S
C1281 H1246 0.929 . S
C1281 C1276 1.371 . S
C1281 C1280 1.382 . S
C1282 N1250 1.423 . S
C1282 C1283 1.362 . S
C1282 C1287 1.388 . S
C1283 H1247 0.929 . S
C1283 C1282 1.362 . S
C1283 C1284 1.376 . S
C1284 H1248 0.931 . S
C1284 C1283 1.376 . S
C1284 C1285 1.396 . S
C1285 C1267 1.472 . S
C1285 C1284 1.396 . S
C1285 C1286 1.348 . S
C1286 H1249 0.929 . S
C1286 C1285 1.348 . S
C1286 C1287 1.443 . S
C1287 H1251 0.932 . S
C1287 C1282 1.388 . S
C1287 C1286 1.443 . S
H1288 C1315 0.929 . S
N1289 C1314 1.433 . S
N1289 C1320 1.435 . S
N1289 C1326 1.423 . S
H1290 C1316 0.930 . S
H1291 C1319 0.931 . S
H1292 C1318 0.929 . S
H1293 C1321 0.930 . S
H1294 C1322 0.932 . S
H1295 C1325 0.929 . S
H1296 C1324 0.931 . S
H1297 C1327 0.929 . S
H1298 C1331 0.932 . S
H1299 C1328 0.931 . S
H1300 C1330 0.929 . S
H1301 C1333 0.929 . S
H1302 C1334 0.930 . S
H1303 C1336 0.929 . S
H1304 C1337 0.931 . S
H1305 C1339 0.930 . S
H1306 C1340 0.932 . S
H1307 C1342 0.931 . S
H1308 C1343 0.929 . S
H1309 C1345 0.929 . S
H1310 C1346 0.931 . S
H1311 C1348 0.929 . S
N1312 C1332 1.433 . S
N1312 C1338 1.435 . S
N1312 C1344 1.423 . S
H1313 C1349 0.932 . S
C1314 N1289 1.433 . S
C1314 C1315 1.363 . S
C1314 C1319 1.370 . S
C1315 H1288 0.929 . S
C1315 C1314 1.363 . S
C1315 C1316 1.385 . S
C1316 H1290 0.930 . S
C1316 C1315 1.385 . S
C1316 C1317 1.357 . S
C1317 C1316 1.357 . S
C1317 C1318 1.406 . S
C1318 H1292 0.929 . S
C1318 C1317 1.406 . S
C1318 C1319 1.391 . S
C1319 H1291 0.931 . S
C1319 C1314 1.370 . S
C1319 C1318 1.391 . S
C1320 N1289 1.435 . S
C1320 C1321 1.358 . S
C1320 C1325 1.371 . S
C1321 H1293 0.930 . S
C1321 C1320 1.358 . S
C1321 C1322 1.405 . S
C1322 H1294 0.932 . S
C1322 C1321 1.405 . S
C1322 C1323 1.383 . S
C1323 C1322 1.383 . S
C1323 C1324 1.393 . S
C1324 H1296 0.931 . S
C1324 C1323 1.393 . S
C1324 C1325 1.382 . S
C1325 H1295 0.929 . S
C1325 C1320 1.371 . S
C1325 C1324 1.382 . S
C1326 N1289 1.423 . S
C1326 C1327 1.362 . S
C1326 C1331 1.388 . S
C1327 H1297 0.929 . S
C1327 C1326 1.362 . S
C1327 C1328 1.376 . S
C1328 H1299 0.931 . S
C1328 C1327 1.376 . S
C1328 C1329 1.396 . S
C1329 C1328 1.396 . S
C1329 C1330 1.348 . S
C1329 C1347 1.472 . S
C1330 H1300 0.929 . S
C1330 C1329 1.348 . S
C1330 C1331 1.443 . S
C1331 H1298 0.932 . S
C1331 C1326 1.388 . S
C1331 C1330 1.443 . S
C1332 N1312 1.433 . S
C1332 C1333 1.363 . S
C1332 C1337 1.370 . S
C1333 H1301 0.929 . S
C1333 C1332 1.363 . S
C1333 C1334 1.385 . S
C1334 H1302 0.930 . S
C1334 C1333 1.385 . S
C1334 C1335 1.357 . S
C1335 C1334 1.357 . S
C1335 C1336 1.406 . S
C1336 H1303 0.929 . S
C1336 C1335 1.406 . S
C1336 C1337 1.391 . S
C1337 H1304 0.931 . S
C1337 C1332 1.370 . S
C1337 C1336 1.391 . S
C1338 N1312 1.435 . S
C1338 C1339 1.358 . S
C1338 C1343 1.371 . S
C1339 H1305 0.930 . S
C1339 C1338 1.358 . S
C1339 C1340 1.405 . S
C1340 H1306 0.932 . S
C1340 C1339 1.405 . S
C1340 C1341 1.383 . S
C1341 C1340 1.383 . S
C1341 C1342 1.393 . S
C1342 H1307 0.931 . S
C1342 C1341 1.393 . S
C1342 C1343 1.382 . S
C1343 H1308 0.929 . S
C1343 C1338 1.371 . S
C1343 C1342 1.382 . S
C1344 N1312 1.423 . S
C1344 C1345 1.362 . S
C1344 C1349 1.388 . S
C1345 H1309 0.929 . S
C1345 C1344 1.362 . S
C1345 C1346 1.376 . S
C1346 H1310 0.931 . S
C1346 C1345 1.376 . S
C1346 C1347 1.396 . S
C1347 C1329 1.472 . S
C1347 C1346 1.396 . S
C1347 C1348 1.348 . S
C1348 H1311 0.929 . S
C1348 C1347 1.348 . S
C1348 C1349 1.443 . S
C1349 H1313 0.932 . S
C1349 C1344 1.388 . S
C1349 C1348 1.443 . S
C1350 C1351 1.391 1_455 S
C1350 C1352 1.394 . S
C1350 H1366 0.931 . S
C1351 C1350 1.391 1_655 S
C1351 C1355 1.376 . S
C1352 C1350 1.394 . S
C1352 C1353 1.342 1_455 S
C1352 C1356 1.531 . S
C1353 C1352 1.342 1_655 S
C1353 C1354 1.424 . S
C1353 C1361 1.521 . S
C1354 C1353 1.424 . S
C1354 C1355 1.392 . S
C1354 C1357 1.511 . S
C1355 C1351 1.376 . S
C1355 C1354 1.392 . S
C1355 H1367 0.929 . S
C1356 C1352 1.531 . S
C1356 H1368 0.960 . S
C1356 H1369 0.962 1_455 S
C1356 H1370 0.960 . S
C1357 C1354 1.511 . S
C1357 H1371 0.961 . S
C1357 H1372 0.961 . S
C1357 H1373 0.961 1_655 S
C1358 C1359 1.370 . S
C1358 C1360 1.363 . S
C1358 H1374 0.931 . S
C1359 C1358 1.370 . S
C1359 C1363 1.408 1_655 S
C1360 C1358 1.363 . S
C1360 C1361 1.370 . S
C1360 C1364 1.524 . S
C1361 C1353 1.521 . S
C1361 C1360 1.370 . S
C1361 C1362 1.403 1_655 S
C1362 C1361 1.403 1_455 S
C1362 C1363 1.404 . S
C1362 C1365 1.539 . S
C1363 C1359 1.408 1_455 S
C1363 C1362 1.404 . S
C1363 H1375 0.930 . S
C1364 C1360 1.524 . S
C1364 H1376 0.956 . S
C1364 H1377 0.961 . S
C1364 H1378 0.961 . S
C1365 C1362 1.539 . S
C1365 H1379 0.958 . S
C1365 H1380 0.961 . S
C1365 H1381 0.960 . S
H1366 C1350 0.931 . S
H1367 C1355 0.929 . S
H1368 C1356 0.960 . S
H1369 C1356 0.962 1_655 S
H1370 C1356 0.960 . S
H1371 C1357 0.961 . S
H1372 C1357 0.961 . S
H1373 C1357 0.961 1_455 S
H1374 C1358 0.931 . S
H1375 C1363 0.930 . S
H1376 C1364 0.956 . S
H1377 C1364 0.961 . S
H1378 C1364 0.961 . S
H1379 C1365 0.958 . S
H1380 C1365 0.961 . S
H1381 C1365 0.960 . S
C1382 C1383 1.391 . S
C1382 C1384 1.394 . S
C1382 H1398 0.931 . S
C1383 C1382 1.391 . S
C1383 C1387 1.376 . S
C1384 C1382 1.394 . S
C1384 C1385 1.369 . S
C1384 C1388 1.531 . S
C1385 C1384 1.369 . S
C1385 C1386 1.410 . S
C1385 C1393 1.503 . S
C1386 C1385 1.410 . S
C1386 C1387 1.392 . S
C1386 C1389 1.511 . S
C1387 C1383 1.376 . S
C1387 C1386 1.392 . S
C1387 H1399 0.929 . S
C1388 C1384 1.531 . S
C1388 H1400 0.960 . S
C1388 H1401 0.962 . S
C1388 H1402 0.960 . S
C1389 C1386 1.511 . S
C1389 H1403 0.961 . S
C1389 H1404 0.961 . S
C1389 H1405 0.961 . S
C1390 C1391 1.370 . S
C1390 C1392 1.363 . S
C1390 H1406 0.931 . S
C1391 C1390 1.370 . S
C1391 C1395 1.408 . S
C1392 C1390 1.363 . S
C1392 C1393 1.370 . S
C1392 C1396 1.524 . S
C1393 C1385 1.503 . S
C1393 C1392 1.370 . S
C1393 C1394 1.403 . S
C1394 C1393 1.403 . S
C1394 C1395 1.404 . S
C1394 C1397 1.539 . S
C1395 C1391 1.408 . S
C1395 C1394 1.404 . S
C1395 H1407 0.930 . S
C1396 C1392 1.524 . S
C1396 H1408 0.956 . S
C1396 H1409 0.961 . S
C1396 H1410 0.961 . S
C1397 C1394 1.539 . S
C1397 H1411 0.958 . S
C1397 H1412 0.961 . S
C1397 H1413 0.960 . S
H1398 C1382 0.931 . S
H1399 C1387 0.929 . S
H1400 C1388 0.960 . S
H1401 C1388 0.962 . S
H1402 C1388 0.960 . S
H1403 C1389 0.961 . S
H1404 C1389 0.961 . S
H1405 C1389 0.961 . S
H1406 C1390 0.931 . S
H1407 C1395 0.930 . S
H1408 C1396 0.956 . S
H1409 C1396 0.961 . S
H1410 C1396 0.961 . S
H1411 C1397 0.958 . S
H1412 C1397 0.961 . S
H1413 C1397 0.960 . S
C1414 C1415 1.391 . S
C1414 C1416 1.394 . S
C1414 H1430 0.931 . S
C1415 C1414 1.391 . S
C1415 C1419 1.376 . S
C1416 C1414 1.394 . S
C1416 C1417 1.369 . S
C1416 C1420 1.531 . S
C1417 C1416 1.369 . S
C1417 C1418 1.410 . S
C1417 C1425 1.503 . S
C1418 C1417 1.410 . S
C1418 C1419 1.392 . S
C1418 C1421 1.511 . S
C1419 C1415 1.376 . S
C1419 C1418 1.392 . S
C1419 H1431 0.929 . S
C1420 C1416 1.531 . S
C1420 H1432 0.960 . S
C1420 H1433 0.962 . S
C1420 H1434 0.960 . S
C1421 C1418 1.511 . S
C1421 H1435 0.961 . S
C1421 H1436 0.961 . S
C1421 H1437 0.961 . S
C1422 C1423 1.370 1_565 S
C1422 C1424 1.363 . S
C1422 H1438 0.931 . S
C1423 C1422 1.370 1_545 S
C1423 C1427 1.408 . S
C1424 C1422 1.363 . S
C1424 C1425 1.370 1_565 S
C1424 C1428 1.524 . S
C1425 C1417 1.503 . S
C1425 C1424 1.370 1_545 S
C1425 C1426 1.403 . S
C1426 C1425 1.403 . S
C1426 C1427 1.404 . S
C1426 C1429 1.539 . S
C1427 C1423 1.408 . S
C1427 C1426 1.404 . S
C1427 H1439 0.930 . S
C1428 C1424 1.524 . S
C1428 H1440 0.956 . S
C1428 H1441 0.961 . S
C1428 H1442 0.961 . S
C1429 C1426 1.539 . S
C1429 H1443 0.958 . S
C1429 H1444 0.961 . S
C1429 H1445 0.960 . S
H1430 C1414 0.931 . S
H1431 C1419 0.929 . S
H1432 C1420 0.960 . S
H1433 C1420 0.962 . S
H1434 C1420 0.960 . S
H1435 C1421 0.961 . S
H1436 C1421 0.961 . S
H1437 C1421 0.961 . S
H1438 C1422 0.931 . S
H1439 C1427 0.930 . S
H1440 C1428 0.956 . S
H1441 C1428 0.961 . S
H1442 C1428 0.961 . S
H1443 C1429 0.958 . S
H1444 C1429 0.961 . S
H1445 C1429 0.960 . S
C1446 C1447 1.391 . S
C1446 C1448 1.394 . S
C1446 H1462 0.931 . S
C1447 C1446 1.391 . S
C1447 C1451 1.376 . S
C1448 C1446 1.394 . S
C1448 C1449 1.369 . S
C1448 C1452 1.531 . S
C1449 C1448 1.369 . S
C1449 C1450 1.410 . S
C1449 C1457 1.503 . S
C1450 C1449 1.410 . S
C1450 C1451 1.392 . S
C1450 C1453 1.511 . S
C1451 C1447 1.376 . S
C1451 C1450 1.392 . S
C1451 H1463 0.927 . S
C1452 C1448 1.531 . S
C1452 H1464 0.960 . S
C1452 H1465 0.962 1_565 S
C1452 H1466 0.960 . S
C1453 C1450 1.511 . S
C1453 H1467 0.961 1_565 S
C1453 H1468 0.967 1_565 S
C1453 H1469 0.961 . S
C1454 C1455 1.370 1_545 S
C1454 C1456 1.363 . S
C1454 H1470 0.931 . S
C1455 C1454 1.370 1_565 S
C1455 C1459 1.408 . S
C1456 C1454 1.363 . S
C1456 C1457 1.370 1_545 S
C1456 C1460 1.524 . S
C1457 C1449 1.503 . S
C1457 C1456 1.370 1_565 S
C1457 C1458 1.403 . S
C1458 C1457 1.403 . S
C1458 C1459 1.404 . S
C1458 C1461 1.539 . S
C1459 C1455 1.408 . S
C1459 C1458 1.404 . S
C1459 H1471 0.930 . S
C1460 C1456 1.524 . S
C1460 H1472 0.956 . S
C1460 H1473 0.961 . S
C1460 H1474 0.961 . S
C1461 C1458 1.539 . S
C1461 H1475 0.958 . S
C1461 H1476 0.961 . S
C1461 H1477 0.960 . S
H1462 C1446 0.931 . S
H1463 C1451 0.927 . S
H1464 C1452 0.960 . S
H1465 C1452 0.962 1_545 S
H1466 C1452 0.960 . S
H1467 C1453 0.961 1_545 S
H1468 C1453 0.967 1_545 S
H1469 C1453 0.961 . S
H1470 C1454 0.931 . S
H1471 C1459 0.930 . S
H1472 C1460 0.956 . S
H1473 C1460 0.961 . S
H1474 C1460 0.961 . S
H1475 C1461 0.958 . S
H1476 C1461 0.961 . S
H1477 C1461 0.960 . S
C1478 C1479 1.391 1_655 S
C1478 C1480 1.394 . S
C1478 H1494 0.931 . S
C1479 C1478 1.391 1_455 S
C1479 C1483 1.376 . S
C1480 C1478 1.394 . S
C1480 C1481 1.369 1_655 S
C1480 C1484 1.531 . S
C1481 C1480 1.369 1_455 S
C1481 C1482 1.410 . S
C1481 C1489 1.503 . S
C1482 C1481 1.410 . S
C1482 C1483 1.392 . S
C1482 C1485 1.511 . S
C1483 C1479 1.376 . S
C1483 C1482 1.392 . S
C1483 H1495 0.929 . S
C1484 C1480 1.531 . S
C1484 H1496 0.960 . S
C1484 H1497 0.962 . S
C1484 H1498 0.960 . S
C1485 C1482 1.511 . S
C1485 H1499 0.961 . S
C1485 H1500 0.961 . S
C1485 H1501 0.961 . S
C1486 C1487 1.370 . S
C1486 C1488 1.363 . S
C1486 H1502 0.931 . S
C1487 C1486 1.370 . S
C1487 C1491 1.408 1_455 S
C1488 C1486 1.363 . S
C1488 C1489 1.370 . S
C1488 C1492 1.524 . S
C1489 C1481 1.503 . S
C1489 C1488 1.370 . S
C1489 C1490 1.403 1_455 S
C1490 C1489 1.403 1_655 S
C1490 C1491 1.404 . S
C1490 C1493 1.539 . S
C1491 C1487 1.408 1_655 S
C1491 C1490 1.404 . S
C1491 H1503 0.930 . S
C1492 C1488 1.524 . S
C1492 H1504 0.956 . S
C1492 H1505 0.961 . S
C1492 H1506 0.961 . S
C1493 C1490 1.539 . S
C1493 H1507 0.958 . S
C1493 H1508 0.961 . S
C1493 H1509 0.960 . S
H1494 C1478 0.931 . S
H1495 C1483 0.929 . S
H1496 C1484 0.960 . S
H1497 C1484 0.962 . S
H1498 C1484 0.960 . S
H1499 C1485 0.961 . S
H1500 C1485 0.961 . S
H1501 C1485 0.961 . S
H1502 C1486 0.931 . S
H1503 C1491 0.930 . S
H1504 C1492 0.956 . S
H1505 C1492 0.961 . S
H1506 C1492 0.961 . S
H1507 C1493 0.958 . S
H1508 C1493 0.961 . S
H1509 C1493 0.960 . S
C1510 C1511 1.391 . S
C1510 C1512 1.394 . S
C1510 H1526 0.931 . S
C1511 C1510 1.391 . S
C1511 C1515 1.376 . S
C1512 C1510 1.394 . S
C1512 C1513 1.369 . S
C1512 C1516 1.531 . S
C1513 C1512 1.369 . S
C1513 C1514 1.410 . S
C1513 C1521 1.503 . S
C1514 C1513 1.410 . S
C1514 C1515 1.392 . S
C1514 C1517 1.511 . S
C1515 C1511 1.376 . S
C1515 C1514 1.392 . S
C1515 H1527 0.929 . S
C1516 C1512 1.531 . S
C1516 H1528 0.960 . S
C1516 H1529 0.962 . S
C1516 H1530 0.960 . S
C1517 C1514 1.511 . S
C1517 H1531 0.961 . S
C1517 H1532 0.961 . S
C1517 H1533 0.961 . S
C1518 C1519 1.370 . S
C1518 C1520 1.363 . S
C1518 H1534 0.931 . S
C1519 C1518 1.370 . S
C1519 C1523 1.408 . S
C1520 C1518 1.363 . S
C1520 C1521 1.370 . S
C1520 C1524 1.524 . S
C1521 C1513 1.503 . S
C1521 C1520 1.370 . S
C1521 C1522 1.403 . S
C1522 C1521 1.403 . S
C1522 C1523 1.404 . S
C1522 C1525 1.539 . S
C1523 C1519 1.408 . S
C1523 C1522 1.404 . S
C1523 H1535 0.930 . S
C1524 C1520 1.524 . S
C1524 H1536 0.956 . S
C1524 H1537 0.961 . S
C1524 H1538 0.961 . S
C1525 C1522 1.539 . S
C1525 H1539 0.958 . S
C1525 H1540 0.961 . S
C1525 H1541 0.960 . S
H1526 C1510 0.931 . S
H1527 C1515 0.929 . S
H1528 C1516 0.960 . S
H1529 C1516 0.962 . S
H1530 C1516 0.960 . S
H1531 C1517 0.961 . S
H1532 C1517 0.961 . S
H1533 C1517 0.961 . S
H1534 C1518 0.931 . S
H1535 C1523 0.930 . S
H1536 C1524 0.956 . S
H1537 C1524 0.961 . S
H1538 C1524 0.961 . S
H1539 C1525 0.958 . S
H1540 C1525 0.961 . S
H1541 C1525 0.960 . S
C1542 C1543 1.391 1_655 S
C1542 C1544 1.394 . S
C1542 H1558 0.931 . S
C1543 C1542 1.391 1_455 S
C1543 C1547 1.376 . S
C1544 C1542 1.394 . S
C1544 C1545 1.369 1_655 S
C1544 C1548 1.531 . S
C1545 C1544 1.369 1_455 S
C1545 C1546 1.410 . S
C1545 C1553 1.503 . S
C1546 C1545 1.410 . S
C1546 C1547 1.392 . S
C1546 C1549 1.511 . S
C1547 C1543 1.376 . S
C1547 C1546 1.392 . S
C1547 H1559 0.929 . S
C1548 C1544 1.531 . S
C1548 H1560 0.960 . S
C1548 H1561 0.962 . S
C1548 H1562 0.960 . S
C1549 C1546 1.511 . S
C1549 H1563 0.961 . S
C1549 H1564 0.961 . S
C1549 H1565 0.961 . S
C1550 C1551 1.357 1_655 S
C1550 C1552 1.381 1_655 S
C1550 H1566 0.928 . S
C1551 C1550 1.357 1_455 S
C1551 C1555 1.408 . S
C1552 C1550 1.381 1_455 S
C1552 C1553 1.370 . S
C1552 C1556 1.524 1_455 S
C1553 C1545 1.503 . S
C1553 C1552 1.370 . S
C1553 C1554 1.403 . S
C1554 C1553 1.403 . S
C1554 C1555 1.404 . S
C1554 C1557 1.539 . S
C1555 C1551 1.408 . S
C1555 C1554 1.404 . S
C1555 H1567 0.930 . S
C1556 C1552 1.524 1_655 S
C1556 H1568 0.956 . S
C1556 H1569 0.961 1_655 S
C1556 H1570 0.961 . S
C1557 C1554 1.539 . S
C1557 H1571 0.958 . S
C1557 H1572 0.961 . S
C1557 H1573 0.960 . S
H1558 C1542 0.931 . S
H1559 C1547 0.929 . S
H1560 C1548 0.960 . S
H1561 C1548 0.962 . S
H1562 C1548 0.960 . S
H1563 C1549 0.961 . S
H1564 C1549 0.961 . S
H1565 C1549 0.961 . S
H1566 C1550 0.928 . S
H1567 C1555 0.930 . S
H1568 C1556 0.956 . S
H1569 C1556 0.961 1_455 S
H1570 C1556 0.961 . S
H1571 C1557 0.958 . S
H1572 C1557 0.961 . S
H1573 C1557 0.960 . S
C1574 C1575 1.391 . S
C1574 C1576 1.394 . S
C1574 H1590 0.931 . S
C1575 C1574 1.391 . S
C1575 C1579 1.376 . S
C1576 C1574 1.394 . S
C1576 C1577 1.369 . S
C1576 C1580 1.531 . S
C1577 C1576 1.369 . S
C1577 C1578 1.410 . S
C1577 C1585 1.503 . S
C1578 C1577 1.410 . S
C1578 C1579 1.392 . S
C1578 C1581 1.511 . S
C1579 C1575 1.376 . S
C1579 C1578 1.392 . S
C1579 H1591 0.929 . S
C1580 C1576 1.531 . S
C1580 H1592 0.960 . S
C1580 H1593 0.962 . S
C1580 H1594 0.960 . S
C1581 C1578 1.511 . S
C1581 H1595 0.961 . S
C1581 H1596 0.961 . S
C1581 H1597 0.961 . S
C1582 C1583 1.370 . S
C1582 C1584 1.363 . S
C1582 H1598 0.931 . S
C1583 C1582 1.370 . S
C1583 C1587 1.408 . S
C1584 C1582 1.363 . S
C1584 C1585 1.370 . S
C1584 C1588 1.524 . S
C1585 C1577 1.503 . S
C1585 C1584 1.370 . S
C1585 C1586 1.403 . S
C1586 C1585 1.403 . S
C1586 C1587 1.404 . S
C1586 C1589 1.539 . S
C1587 C1583 1.408 . S
C1587 C1586 1.404 . S
C1587 H1599 0.930 . S
C1588 C1584 1.524 . S
C1588 H1600 0.956 . S
C1588 H1601 0.961 . S
C1588 H1602 0.961 . S
C1589 C1586 1.539 . S
C1589 H1603 0.958 . S
C1589 H1604 0.961 . S
C1589 H1605 0.960 . S
H1590 C1574 0.931 . S
H1591 C1579 0.929 . S
H1592 C1580 0.960 . S
H1593 C1580 0.962 . S
H1594 C1580 0.960 . S
H1595 C1581 0.961 . S
H1596 C1581 0.961 . S
H1597 C1581 0.961 . S
H1598 C1582 0.931 . S
H1599 C1587 0.930 . S
H1600 C1588 0.956 . S
H1601 C1588 0.961 . S
H1602 C1588 0.961 . S
H1603 C1589 0.958 . S
H1604 C1589 0.961 . S
H1605 C1589 0.960 . S
C1606 C1607 1.391 1_545 S
C1606 C1608 1.394 . S
C1606 H1622 0.931 . S
C1607 C1606 1.391 1_565 S
C1607 C1611 1.376 . S
C1608 C1606 1.394 . S
C1608 C1609 1.369 1_545 S
C1608 C1612 1.531 . S
C1609 C1608 1.369 1_565 S
C1609 C1610 1.410 . S
C1609 C1617 1.503 . S
C1610 C1609 1.410 . S
C1610 C1611 1.392 . S
C1610 C1613 1.511 . S
C1611 C1607 1.376 . S
C1611 C1610 1.392 . S
C1611 H1623 0.929 . S
C1612 C1608 1.531 . S
C1612 H1624 0.960 . S
C1612 H1625 0.962 . S
C1612 H1626 0.960 . S
C1613 C1610 1.511 . S
C1613 H1627 0.961 . S
C1613 H1628 0.961 . S
C1613 H1629 0.961 . S
C1614 C1615 1.370 . S
C1614 C1616 1.363 . S
C1614 H1630 0.931 . S
C1615 C1614 1.370 . S
C1615 C1619 1.408 1_565 S
C1616 C1614 1.363 . S
C1616 C1617 1.370 . S
C1616 C1620 1.524 . S
C1617 C1609 1.503 . S
C1617 C1616 1.370 . S
C1617 C1618 1.403 1_565 S
C1618 C1617 1.403 1_545 S
C1618 C1619 1.404 . S
C1618 C1621 1.539 . S
C1619 C1615 1.408 1_545 S
C1619 C1618 1.404 . S
C1619 H1631 0.930 . S
C1620 C1616 1.524 . S
C1620 H1632 0.956 . S
C1620 H1633 0.961 . S
C1620 H1634 0.961 . S
C1621 C1618 1.539 . S
C1621 H1635 0.958 . S
C1621 H1636 0.961 . S
C1621 H1637 0.960 . S
H1622 C1606 0.931 . S
H1623 C1611 0.929 . S
H1624 C1612 0.960 . S
H1625 C1612 0.962 . S
H1626 C1612 0.960 . S
H1627 C1613 0.961 . S
H1628 C1613 0.961 . S
H1629 C1613 0.961 . S
H1630 C1614 0.931 . S
H1631 C1619 0.930 . S
H1632 C1620 0.956 . S
H1633 C1620 0.961 . S
H1634 C1620 0.961 . S
H1635 C1621 0.958 . S
H1636 C1621 0.961 . S
H1637 C1621 0.960 . S
C1638 C1639 1.391 . S
C1638 C1640 1.394 . S
C1638 H1654 0.931 . S
C1639 C1638 1.391 . S
C1639 C1643 1.376 1_545 S
C1640 C1638 1.394 . S
C1640 C1641 1.369 . S
C1640 C1644 1.531 . S
C1641 C1640 1.369 . S
C1641 C1642 1.410 1_545 S
C1641 C1649 1.503 . S
C1642 C1641 1.410 1_565 S
C1642 C1643 1.392 . S
C1642 C1645 1.511 . S
C1643 C1639 1.376 1_565 S
C1643 C1642 1.392 . S
C1643 H1655 0.929 . S
C1644 C1640 1.531 . S
C1644 H1656 0.960 . S
C1644 H1657 0.962 . S
C1644 H1658 0.960 . S
C1645 C1642 1.511 . S
C1645 H1659 0.961 . S
C1645 H1660 0.961 . S
C1645 H1661 0.961 . S
C1646 C1647 1.295 1_565 S
C1646 C1648 1.380 . S
C1646 H1662 0.983 . S
C1647 C1646 1.295 1_545 S
C1647 C1651 1.408 . S
C1648 C1646 1.380 . S
C1648 C1649 1.350 1_565 S
C1648 C1652 1.557 . S
C1649 C1641 1.503 . S
C1649 C1648 1.350 1_545 S
C1649 C1650 1.403 . S
C1650 C1649 1.403 . S
C1650 C1651 1.404 . S
C1650 C1653 1.539 . S
C1651 C1647 1.408 . S
C1651 C1650 1.404 . S
C1651 H1663 0.930 . S
C1652 C1648 1.557 . S
C1652 H1664 0.956 . S
C1652 H1665 0.961 . S
C1652 H1666 0.961 . S
C1653 C1650 1.539 . S
C1653 H1667 0.958 . S
C1653 H1668 0.961 . S
C1653 H1669 0.960 . S
H1654 C1638 0.931 . S
H1655 C1643 0.929 . S
H1656 C1644 0.960 . S
H1657 C1644 0.962 . S
H1658 C1644 0.960 . S
H1659 C1645 0.961 . S
H1660 C1645 0.961 . S
H1661 C1645 0.961 . S
H1662 C1646 0.983 . S
H1663 C1651 0.930 . S
H1664 C1652 0.956 . S
H1665 C1652 0.961 . S
H1666 C1652 0.961 . S
H1667 C1653 0.958 . S
H1668 C1653 0.961 . S
H1669 C1653 0.960 . S
C1670 C1671 1.391 . S
C1670 C1672 1.412 . S
C1670 H1686 0.930 . S
C1671 C1670 1.391 . S
C1671 C1675 1.376 . S
C1672 C1670 1.412 . S
C1672 C1673 1.378 . S
C1672 C1676 1.503 1_655 S
C1673 C1672 1.378 . S
C1673 C1674 1.410 . S
C1673 C1681 1.503 . S
C1674 C1673 1.410 . S
C1674 C1675 1.392 . S
C1674 C1677 1.511 . S
C1675 C1671 1.376 . S
C1675 C1674 1.392 . S
C1675 H1687 0.929 . S
C1676 C1672 1.503 1_455 S
C1676 H1688 0.960 . S
C1676 H1689 0.962 1_455 S
C1676 H1690 0.960 . S
C1677 C1674 1.511 . S
C1677 H1691 0.961 . S
C1677 H1692 0.961 . S
C1677 H1693 0.961 1_655 S
C1678 C1679 1.370 . S
C1678 C1680 1.363 . S
C1678 H1694 0.931 . S
C1679 C1678 1.370 . S
C1679 C1683 1.408 1_655 S
C1680 C1678 1.363 . S
C1680 C1681 1.370 . S
C1680 C1684 1.524 . S
C1681 C1673 1.503 . S
C1681 C1680 1.370 . S
C1681 C1682 1.403 1_655 S
C1682 C1681 1.403 1_455 S
C1682 C1683 1.404 . S
C1682 C1685 1.539 . S
C1683 C1679 1.408 1_455 S
C1683 C1682 1.404 . S
C1683 H1695 0.930 . S
C1684 C1680 1.524 . S
C1684 H1696 0.956 . S
C1684 H1697 0.961 . S
C1684 H1698 0.961 . S
C1685 C1682 1.539 . S
C1685 H1699 0.958 . S
C1685 H1700 0.961 . S
C1685 H1701 0.960 . S
H1686 C1670 0.930 . S
H1687 C1675 0.929 . S
H1688 C1676 0.960 . S
H1689 C1676 0.962 1_655 S
H1690 C1676 0.960 . S
H1691 C1677 0.961 . S
H1692 C1677 0.961 . S
H1693 C1677 0.961 1_455 S
H1694 C1678 0.931 . S
H1695 C1683 0.930 . S
H1696 C1684 0.956 . S
H1697 C1684 0.961 . S
H1698 C1684 0.961 . S
H1699 C1685 0.958 . S
H1700 C1685 0.961 . S
H1701 C1685 0.960 . S
C1702 C1703 1.391 . S
C1702 C1704 1.394 . S
C1702 H1718 0.931 . S
C1703 C1702 1.391 . S
C1703 C1707 1.376 . S
C1704 C1702 1.394 . S
C1704 C1705 1.369 . S
C1704 C1708 1.531 . S
C1705 C1704 1.369 . S
C1705 C1706 1.410 . S
C1705 C1713 1.503 . S
C1706 C1705 1.410 . S
C1706 C1707 1.392 . S
C1706 C1709 1.511 . S
C1707 C1703 1.376 . S
C1707 C1706 1.392 . S
C1707 H1719 0.929 . S
C1708 C1704 1.531 . S
C1708 H1720 0.960 . S
C1708 H1721 0.962 . S
C1708 H1722 0.960 . S
C1709 C1706 1.511 . S
C1709 H1723 0.961 . S
C1709 H1724 0.961 . S
C1709 H1725 0.961 . S
C1710 C1711 1.370 . S
C1710 C1712 1.363 . S
C1710 H1726 0.931 . S
C1711 C1710 1.370 . S
C1711 C1715 1.408 . S
C1712 C1710 1.363 . S
C1712 C1713 1.370 . S
C1712 C1716 1.524 . S
C1713 C1705 1.503 . S
C1713 C1712 1.370 . S
C1713 C1714 1.403 . S
C1714 C1713 1.403 . S
C1714 C1715 1.404 . S
C1714 C1717 1.539 . S
C1715 C1711 1.408 . S
C1715 C1714 1.404 . S
C1715 H1727 0.930 . S
C1716 C1712 1.524 . S
C1716 H1728 0.956 . S
C1716 H1729 0.961 . S
C1716 H1730 0.961 . S
C1717 C1714 1.539 . S
C1717 H1731 0.958 . S
C1717 H1732 0.961 . S
C1717 H1733 0.960 . S
H1718 C1702 0.931 . S
H1719 C1707 0.929 . S
H1720 C1708 0.960 . S
H1721 C1708 0.962 . S
H1722 C1708 0.960 . S
H1723 C1709 0.961 . S
H1724 C1709 0.961 . S
H1725 C1709 0.961 . S
H1726 C1710 0.931 . S
H1727 C1715 0.930 . S
H1728 C1716 0.956 . S
H1729 C1716 0.961 . S
H1730 C1716 0.961 . S
H1731 C1717 0.958 . S
H1732 C1717 0.961 . S
H1733 C1717 0.960 . S
C1734 C1735 1.391 . S
C1734 C1736 1.394 . S
C1734 H1750 0.931 . S
C1735 C1734 1.391 . S
C1735 C1739 1.376 . S
C1736 C1734 1.394 . S
C1736 C1737 1.369 . S
C1736 C1740 1.531 . S
C1737 C1736 1.369 . S
C1737 C1738 1.410 . S
C1737 C1745 1.503 . S
C1738 C1737 1.410 . S
C1738 C1739 1.392 . S
C1738 C1741 1.511 . S
C1739 C1735 1.376 . S
C1739 C1738 1.392 . S
C1739 H1751 0.929 . S
C1740 C1736 1.531 . S
C1740 H1752 0.960 . S
C1740 H1753 0.962 . S
C1740 H1754 0.960 . S
C1741 C1738 1.511 . S
C1741 H1755 0.961 . S
C1741 H1756 0.961 . S
C1741 H1757 0.961 . S
C1742 C1743 1.370 . S
C1742 C1744 1.363 . S
C1742 H1758 0.931 . S
C1743 C1742 1.370 . S
C1743 C1747 1.408 . S
C1744 C1742 1.363 . S
C1744 C1745 1.370 . S
C1744 C1748 1.524 . S
C1745 C1737 1.503 . S
C1745 C1744 1.370 . S
C1745 C1746 1.403 . S
C1746 C1745 1.403 . S
C1746 C1747 1.404 . S
C1746 C1749 1.539 . S
C1747 C1743 1.408 . S
C1747 C1746 1.404 . S
C1747 H1759 0.930 . S
C1748 C1744 1.524 . S
C1748 H1760 0.956 . S
C1748 H1761 0.961 . S
C1748 H1762 0.961 . S
C1749 C1746 1.539 . S
C1749 H1763 0.958 . S
C1749 H1764 0.961 . S
C1749 H1765 0.960 . S
H1750 C1734 0.931 . S
H1751 C1739 0.929 . S
H1752 C1740 0.960 . S
H1753 C1740 0.962 . S
H1754 C1740 0.960 . S
H1755 C1741 0.961 . S
H1756 C1741 0.961 . S
H1757 C1741 0.961 . S
H1758 C1742 0.931 . S
H1759 C1747 0.930 . S
H1760 C1748 0.956 . S
H1761 C1748 0.961 . S
H1762 C1748 0.961 . S
H1763 C1749 0.958 . S
H1764 C1749 0.961 . S
H1765 C1749 0.960 . S
C1766 C1767 1.391 . S
C1766 C1768 1.394 . S
C1766 H1782 0.931 . S
C1767 C1766 1.391 . S
C1767 C1771 1.376 . S
C1768 C1766 1.394 . S
C1768 C1769 1.369 . S
C1768 C1772 1.531 . S
C1769 C1768 1.369 . S
C1769 C1770 1.410 . S
C1769 C1777 1.503 . S
C1770 C1769 1.410 . S
C1770 C1771 1.392 . S
C1770 C1773 1.511 . S
C1771 C1767 1.376 . S
C1771 C1770 1.392 . S
C1771 H1783 0.929 . S
C1772 C1768 1.531 . S
C1772 H1784 0.960 . S
C1772 H1785 0.962 . S
C1772 H1786 0.960 . S
C1773 C1770 1.511 . S
C1773 H1787 0.961 . S
C1773 H1788 0.961 . S
C1773 H1789 0.961 . S
C1774 C1775 1.370 . S
C1774 C1776 1.363 . S
C1774 H1790 0.931 . S
C1775 C1774 1.370 . S
C1775 C1779 1.408 . S
C1776 C1774 1.363 . S
C1776 C1777 1.370 . S
C1776 C1780 1.524 . S
C1777 C1769 1.503 . S
C1777 C1776 1.370 . S
C1777 C1778 1.403 . S
C1778 C1777 1.403 . S
C1778 C1779 1.404 . S
C1778 C1781 1.539 . S
C1779 C1775 1.408 . S
C1779 C1778 1.404 . S
C1779 H1791 0.930 . S
C1780 C1776 1.524 . S
C1780 H1792 0.956 . S
C1780 H1793 0.961 . S
C1780 H1794 0.961 . S
C1781 C1778 1.539 . S
C1781 H1795 0.958 . S
C1781 H1796 0.961 . S
C1781 H1797 0.960 . S
H1782 C1766 0.931 . S
H1783 C1771 0.929 . S
H1784 C1772 0.960 . S
H1785 C1772 0.962 . S
H1786 C1772 0.960 . S
H1787 C1773 0.961 . S
H1788 C1773 0.961 . S
H1789 C1773 0.961 . S
H1790 C1774 0.931 . S
H1791 C1779 0.930 . S
H1792 C1780 0.956 . S
H1793 C1780 0.961 . S
H1794 C1780 0.961 . S
H1795 C1781 0.958 . S
H1796 C1781 0.961 . S
H1797 C1781 0.960 . S
C1798 C1799 1.391 . S
C1798 C1800 1.394 . S
C1798 H1814 0.931 . S
C1799 C1798 1.391 . S
C1799 C1803 1.376 . S
C1800 C1798 1.394 . S
C1800 C1801 1.369 . S
C1800 C1804 1.531 . S
C1801 C1800 1.369 . S
C1801 C1802 1.410 . S
C1801 C1809 1.503 . S
C1802 C1801 1.410 . S
C1802 C1803 1.392 . S
C1802 C1805 1.511 . S
C1803 C1799 1.376 . S
C1803 C1802 1.392 . S
C1803 H1815 0.929 . S
C1804 C1800 1.531 . S
C1804 H1816 0.960 . S
C1804 H1817 0.962 . S
C1804 H1818 0.960 . S
C1805 C1802 1.511 . S
C1805 H1819 0.961 . S
C1805 H1820 0.961 . S
C1805 H1821 0.961 . S
C1806 C1807 1.370 . S
C1806 C1808 1.363 . S
C1806 H1822 0.931 . S
C1807 C1806 1.370 . S
C1807 C1811 1.408 . S
C1808 C1806 1.363 . S
C1808 C1809 1.370 . S
C1808 C1812 1.524 . S
C1809 C1801 1.503 . S
C1809 C1808 1.370 . S
C1809 C1810 1.403 . S
C1810 C1809 1.403 . S
C1810 C1811 1.404 . S
C1810 C1813 1.539 . S
C1811 C1807 1.408 . S
C1811 C1810 1.404 . S
C1811 H1823 0.930 . S
C1812 C1808 1.524 . S
C1812 H1824 0.956 . S
C1812 H1825 0.961 . S
C1812 H1826 0.961 . S
C1813 C1810 1.539 . S
C1813 H1827 0.958 . S
C1813 H1828 0.961 . S
C1813 H1829 0.960 . S
H1814 C1798 0.931 . S
H1815 C1803 0.929 . S
H1816 C1804 0.960 . S
H1817 C1804 0.962 . S
H1818 C1804 0.960 . S
H1819 C1805 0.961 . S
H1820 C1805 0.961 . S
H1821 C1805 0.961 . S
H1822 C1806 0.931 . S
H1823 C1811 0.930 . S
H1824 C1812 0.956 . S
H1825 C1812 0.961 . S
H1826 C1812 0.961 . S
H1827 C1813 0.958 . S
H1828 C1813 0.961 . S
H1829 C1813 0.960 . S
C1830 C1831 1.391 . S
C1830 C1832 1.394 . S
C1830 H1846 0.931 . S
C1831 C1830 1.391 . S
C1831 C1835 1.376 . S
C1832 C1830 1.394 . S
C1832 C1833 1.369 . S
C1832 C1836 1.531 . S
C1833 C1832 1.369 . S
C1833 C1834 1.410 . S
C1833 C1841 1.503 . S
C1834 C1833 1.410 . S
C1834 C1835 1.392 . S
C1834 C1837 1.511 . S
C1835 C1831 1.376 . S
C1835 C1834 1.392 . S
C1835 H1847 0.929 . S
C1836 C1832 1.531 . S
C1836 H1848 0.960 . S
C1836 H1849 0.962 . S
C1836 H1850 0.960 . S
C1837 C1834 1.511 . S
C1837 H1851 0.961 . S
C1837 H1852 0.961 . S
C1837 H1853 0.961 . S
C1838 C1839 1.370 . S
C1838 C1840 1.363 . S
C1838 H1854 0.931 . S
C1839 C1838 1.370 . S
C1839 C1843 1.408 . S
C1840 C1838 1.363 . S
C1840 C1841 1.370 . S
C1840 C1844 1.524 . S
C1841 C1833 1.503 . S
C1841 C1840 1.370 . S
C1841 C1842 1.403 . S
C1842 C1841 1.403 . S
C1842 C1843 1.404 . S
C1842 C1845 1.539 . S
C1843 C1839 1.408 . S
C1843 C1842 1.404 . S
C1843 H1855 0.930 . S
C1844 C1840 1.524 . S
C1844 H1856 0.956 . S
C1844 H1857 0.961 . S
C1844 H1858 0.961 . S
C1845 C1842 1.539 . S
C1845 H1859 0.958 . S
C1845 H1860 0.961 . S
C1845 H1861 0.960 . S
H1846 C1830 0.931 . S
H1847 C1835 0.929 . S
H1848 C1836 0.960 . S
H1849 C1836 0.962 . S
H1850 C1836 0.960 . S
H1851 C1837 0.961 . S
H1852 C1837 0.961 . S
H1853 C1837 0.961 . S
H1854 C1838 0.931 . S
H1855 C1843 0.930 . S
H1856 C1844 0.956 . S
H1857 C1844 0.961 . S
H1858 C1844 0.961 . S
H1859 C1845 0.958 . S
H1860 C1845 0.961 . S
H1861 C1845 0.960 . S
C1862 C1863 1.391 . S
C1862 C1864 1.394 . S
C1862 H1878 0.931 . S
C1863 C1862 1.391 . S
C1863 C1867 1.376 . S
C1864 C1862 1.394 . S
C1864 C1865 1.369 . S
C1864 C1868 1.531 . S
C1865 C1864 1.369 . S
C1865 C1866 1.410 . S
C1865 C1873 1.503 . S
C1866 C1865 1.410 . S
C1866 C1867 1.392 . S
C1866 C1869 1.511 . S
C1867 C1863 1.376 . S
C1867 C1866 1.392 . S
C1867 H1879 0.929 . S
C1868 C1864 1.531 . S
C1868 H1880 0.960 . S
C1868 H1881 0.962 . S
C1868 H1882 0.960 . S
C1869 C1866 1.511 . S
C1869 H1883 0.961 . S
C1869 H1884 0.961 . S
C1869 H1885 0.961 . S
C1870 C1871 1.370 . S
C1870 C1872 1.363 . S
C1870 H1886 0.931 . S
C1871 C1870 1.370 . S
C1871 C1875 1.408 . S
C1872 C1870 1.363 . S
C1872 C1873 1.370 . S
C1872 C1876 1.524 . S
C1873 C1865 1.503 . S
C1873 C1872 1.370 . S
C1873 C1874 1.403 . S
C1874 C1873 1.403 . S
C1874 C1875 1.404 . S
C1874 C1877 1.539 . S
C1875 C1871 1.408 . S
C1875 C1874 1.404 . S
C1875 H1887 0.930 . S
C1876 C1872 1.524 . S
C1876 H1888 0.956 . S
C1876 H1889 0.961 . S
C1876 H1890 0.961 . S
C1877 C1874 1.539 . S
C1877 H1891 0.958 . S
C1877 H1892 0.961 . S
C1877 H1893 0.960 . S
H1878 C1862 0.931 . S
H1879 C1867 0.929 . S
H1880 C1868 0.960 . S
H1881 C1868 0.962 . S
H1882 C1868 0.960 . S
H1883 C1869 0.961 . S
H1884 C1869 0.961 . S
H1885 C1869 0.961 . S
H1886 C1870 0.931 . S
H1887 C1875 0.930 . S
H1888 C1876 0.956 . S
H1889 C1876 0.961 . S
H1890 C1876 0.961 . S
H1891 C1877 0.958 . S
H1892 C1877 0.961 . S
H1893 C1877 0.960 . S
C1894 C1895 1.391 . S
C1894 C1896 1.394 . S
C1894 H1910 0.931 . S
C1895 C1894 1.391 . S
C1895 C1899 1.376 . S
C1896 C1894 1.394 . S
C1896 C1897 1.369 . S
C1896 C1900 1.531 . S
C1897 C1896 1.369 . S
C1897 C1898 1.410 . S
C1897 C1905 1.503 . S
C1898 C1897 1.410 . S
C1898 C1899 1.392 . S
C1898 C1901 1.511 . S
C1899 C1895 1.376 . S
C1899 C1898 1.392 . S
C1899 H1911 0.929 . S
C1900 C1896 1.531 . S
C1900 H1912 0.960 . S
C1900 H1913 0.962 . S
C1900 H1914 0.960 . S
C1901 C1898 1.511 . S
C1901 H1915 0.961 . S
C1901 H1916 0.961 . S
C1901 H1917 0.961 . S
C1902 C1903 1.370 . S
C1902 C1904 1.363 . S
C1902 H1918 0.931 . S
C1903 C1902 1.370 . S
C1903 C1907 1.408 . S
C1904 C1902 1.363 . S
C1904 C1905 1.370 . S
C1904 C1908 1.524 . S
C1905 C1897 1.503 . S
C1905 C1904 1.370 . S
C1905 C1906 1.403 . S
C1906 C1905 1.403 . S
C1906 C1907 1.404 . S
C1906 C1909 1.539 . S
C1907 C1903 1.408 . S
C1907 C1906 1.404 . S
C1907 H1919 0.930 . S
C1908 C1904 1.524 . S
C1908 H1920 0.956 . S
C1908 H1921 0.961 . S
C1908 H1922 0.961 . S
C1909 C1906 1.539 . S
C1909 H1923 0.958 . S
C1909 H1924 0.961 . S
C1909 H1925 0.960 . S
H1910 C1894 0.931 . S
H1911 C1899 0.929 . S
H1912 C1900 0.960 . S
H1913 C1900 0.962 . S
H1914 C1900 0.960 . S
H1915 C1901 0.961 . S
H1916 C1901 0.961 . S
H1917 C1901 0.961 . S
H1918 C1902 0.931 . S
H1919 C1907 0.930 . S
H1920 C1908 0.956 . S
H1921 C1908 0.961 . S
H1922 C1908 0.961 . S
H1923 C1909 0.958 . S
H1924 C1909 0.961 . S
H1925 C1909 0.960 . S
C1926 C1927 1.391 . S
C1926 C1928 1.394 . S
C1926 H1942 0.931 . S
C1927 C1926 1.391 . S
C1927 C1931 1.376 . S
C1928 C1926 1.394 . S
C1928 C1929 1.369 . S
C1928 C1932 1.531 . S
C1929 C1928 1.369 . S
C1929 C1930 1.410 . S
C1929 C1937 1.503 . S
C1930 C1929 1.410 . S
C1930 C1931 1.392 . S
C1930 C1933 1.511 . S
C1931 C1927 1.376 . S
C1931 C1930 1.392 . S
C1931 H1943 0.929 . S
C1932 C1928 1.531 . S
C1932 H1944 0.960 . S
C1932 H1945 0.962 . S
C1932 H1946 0.960 . S
C1933 C1930 1.511 . S
C1933 H1947 0.961 . S
C1933 H1948 0.961 . S
C1933 H1949 0.961 . S
C1934 C1935 1.370 . S
C1934 C1936 1.363 . S
C1934 H1950 0.931 . S
C1935 C1934 1.370 . S
C1935 C1939 1.408 . S
C1936 C1934 1.363 . S
C1936 C1937 1.370 . S
C1936 C1940 1.524 . S
C1937 C1929 1.503 . S
C1937 C1936 1.370 . S
C1937 C1938 1.403 . S
C1938 C1937 1.403 . S
C1938 C1939 1.404 . S
C1938 C1941 1.539 . S
C1939 C1935 1.408 . S
C1939 C1938 1.404 . S
C1939 H1951 0.930 . S
C1940 C1936 1.524 . S
C1940 H1952 0.956 . S
C1940 H1953 0.961 . S
C1940 H1954 0.961 . S
C1941 C1938 1.539 . S
C1941 H1955 0.958 . S
C1941 H1956 0.961 . S
C1941 H1957 0.960 . S
H1942 C1926 0.931 . S
H1943 C1931 0.929 . S
H1944 C1932 0.960 . S
H1945 C1932 0.962 . S
H1946 C1932 0.960 . S
H1947 C1933 0.961 . S
H1948 C1933 0.961 . S
H1949 C1933 0.961 . S
H1950 C1934 0.931 . S
H1951 C1939 0.930 . S
H1952 C1940 0.956 . S
H1953 C1940 0.961 . S
H1954 C1940 0.961 . S
H1955 C1941 0.958 . S
H1956 C1941 0.961 . S
H1957 C1941 0.960 . S
C1958 C1959 1.391 . S
C1958 C1960 1.394 . S
C1958 H1974 0.931 . S
C1959 C1958 1.391 . S
C1959 C1963 1.376 . S
C1960 C1958 1.394 . S
C1960 C1961 1.369 . S
C1960 C1964 1.531 . S
C1961 C1960 1.369 . S
C1961 C1962 1.410 . S
C1961 C1969 1.503 . S
C1962 C1961 1.410 . S
C1962 C1963 1.392 . S
C1962 C1965 1.511 . S
C1963 C1959 1.376 . S
C1963 C1962 1.392 . S
C1963 H1975 0.929 . S
C1964 C1960 1.531 . S
C1964 H1976 0.960 . S
C1964 H1977 0.962 . S
C1964 H1978 0.960 . S
C1965 C1962 1.511 . S
C1965 H1979 0.961 . S
C1965 H1980 0.961 . S
C1965 H1981 0.961 . S
C1966 C1967 1.370 . S
C1966 C1968 1.363 . S
C1966 H1982 0.931 . S
C1967 C1966 1.370 . S
C1967 C1971 1.408 . S
C1968 C1966 1.363 . S
C1968 C1969 1.370 . S
C1968 C1972 1.524 . S
C1969 C1961 1.503 . S
C1969 C1968 1.370 . S
C1969 C1970 1.403 . S
C1970 C1969 1.403 . S
C1970 C1971 1.404 . S
C1970 C1973 1.539 . S
C1971 C1967 1.408 . S
C1971 C1970 1.404 . S
C1971 H1983 0.930 . S
C1972 C1968 1.524 . S
C1972 H1984 0.956 . S
C1972 H1985 0.961 . S
C1972 H1986 0.961 . S
C1973 C1970 1.539 . S
C1973 H1987 0.958 . S
C1973 H1988 0.961 . S
C1973 H1989 0.960 . S
H1974 C1958 0.931 . S
H1975 C1963 0.929 . S
H1976 C1964 0.960 . S
H1977 C1964 0.962 . S
H1978 C1964 0.960 . S
H1979 C1965 0.961 . S
H1980 C1965 0.961 . S
H1981 C1965 0.961 . S
H1982 C1966 0.931 . S
H1983 C1971 0.930 . S
H1984 C1972 0.956 . S
H1985 C1972 0.961 . S
H1986 C1972 0.961 . S
H1987 C1973 0.958 . S
H1988 C1973 0.961 . S
H1989 C1973 0.960 . S
C1990 C1991 1.391 . S
C1990 C1992 1.394 . S
C1990 H2006 0.931 . S
C1991 C1990 1.391 . S
C1991 C1995 1.376 . S
C1992 C1990 1.394 . S
C1992 C1993 1.369 . S
C1992 C1996 1.531 . S
C1993 C1992 1.369 . S
C1993 C1994 1.410 . S
C1993 C2001 1.503 . S
C1994 C1993 1.410 . S
C1994 C1995 1.392 . S
C1994 C1997 1.511 . S
C1995 C1991 1.376 . S
C1995 C1994 1.392 . S
C1995 H2007 0.929 . S
C1996 C1992 1.531 . S
C1996 H2008 0.960 . S
C1996 H2009 0.962 . S
C1996 H2010 0.960 . S
C1997 C1994 1.511 . S
C1997 H2011 0.961 . S
C1997 H2012 0.961 . S
C1997 H2013 0.961 . S
C1998 C1999 1.370 . S
C1998 C2000 1.363 . S
C1998 H2014 0.931 . S
C1999 C1998 1.370 . S
C1999 C2003 1.408 . S
C2000 C1998 1.363 . S
C2000 C2001 1.370 . S
C2000 C2004 1.524 . S
C2001 C1993 1.503 . S
C2001 C2000 1.370 . S
C2001 C2002 1.403 . S
C2002 C2001 1.403 . S
C2002 C2003 1.404 . S
C2002 C2005 1.539 . S
C2003 C1999 1.408 . S
C2003 C2002 1.404 . S
C2003 H2015 0.930 . S
C2004 C2000 1.524 . S
C2004 H2016 0.956 . S
C2004 H2017 0.961 . S
C2004 H2018 0.961 . S
C2005 C2002 1.539 . S
C2005 H2019 0.958 . S
C2005 H2020 0.961 . S
C2005 H2021 0.960 . S
H2006 C1990 0.931 . S
H2007 C1995 0.929 . S
H2008 C1996 0.960 . S
H2009 C1996 0.962 . S
H2010 C1996 0.960 . S
H2011 C1997 0.961 . S
H2012 C1997 0.961 . S
H2013 C1997 0.961 . S
H2014 C1998 0.931 . S
H2015 C2003 0.930 . S
H2016 C2004 0.956 . S
H2017 C2004 0.961 . S
H2018 C2004 0.961 . S
H2019 C2005 0.958 . S
H2020 C2005 0.961 . S
H2021 C2005 0.960 . S
C2022 C2023 1.391 . S
C2022 C2024 1.394 . S
C2022 H2038 0.931 . S
C2023 C2022 1.391 . S
C2023 C2027 1.376 . S
C2024 C2022 1.394 . S
C2024 C2025 1.369 . S
C2024 C2028 1.531 . S
C2025 C2024 1.369 . S
C2025 C2026 1.410 . S
C2025 C2033 1.503 . S
C2026 C2025 1.410 . S
C2026 C2027 1.392 . S
C2026 C2029 1.511 . S
C2027 C2023 1.376 . S
C2027 C2026 1.392 . S
C2027 H2039 0.929 . S
C2028 C2024 1.531 . S
C2028 H2040 0.960 . S
C2028 H2041 0.962 . S
C2028 H2042 0.960 . S
C2029 C2026 1.511 . S
C2029 H2043 0.961 . S
C2029 H2044 0.961 . S
C2029 H2045 0.961 . S
C2030 C2031 1.370 . S
C2030 C2032 1.363 . S
C2030 H2046 0.931 . S
C2031 C2030 1.370 . S
C2031 C2035 1.408 . S
C2032 C2030 1.363 . S
C2032 C2033 1.370 . S
C2032 C2036 1.524 . S
C2033 C2025 1.503 . S
C2033 C2032 1.370 . S
C2033 C2034 1.403 . S
C2034 C2033 1.403 . S
C2034 C2035 1.404 . S
C2034 C2037 1.539 . S
C2035 C2031 1.408 . S
C2035 C2034 1.404 . S
C2035 H2047 0.930 . S
C2036 C2032 1.524 . S
C2036 H2048 0.956 . S
C2036 H2049 0.961 . S
C2036 H2050 0.961 . S
C2037 C2034 1.539 . S
C2037 H2051 0.958 . S
C2037 H2052 0.961 . S
C2037 H2053 0.960 . S
H2038 C2022 0.931 . S
H2039 C2027 0.929 . S
H2040 C2028 0.960 . S
H2041 C2028 0.962 . S
H2042 C2028 0.960 . S
H2043 C2029 0.961 . S
H2044 C2029 0.961 . S
H2045 C2029 0.961 . S
H2046 C2030 0.931 . S
H2047 C2035 0.930 . S
H2048 C2036 0.956 . S
H2049 C2036 0.961 . S
H2050 C2036 0.961 . S
H2051 C2037 0.958 . S
H2052 C2037 0.961 . S
H2053 C2037 0.960 . S
C2054 C2055 1.391 . S
C2054 C2056 1.394 . S
C2054 H2070 0.931 . S
C2055 C2054 1.391 . S
C2055 C2059 1.376 . S
C2056 C2054 1.394 . S
C2056 C2057 1.369 . S
C2056 C2060 1.531 . S
C2057 C2056 1.369 . S
C2057 C2058 1.410 . S
C2057 C2065 1.503 . S
C2058 C2057 1.410 . S
C2058 C2059 1.392 . S
C2058 C2061 1.511 . S
C2059 C2055 1.376 . S
C2059 C2058 1.392 . S
C2059 H2071 0.929 . S
C2060 C2056 1.531 . S
C2060 H2072 0.960 . S
C2060 H2073 0.962 . S
C2060 H2074 0.960 . S
C2061 C2058 1.511 . S
C2061 H2075 0.961 . S
C2061 H2076 0.961 . S
C2061 H2077 0.961 . S
C2062 C2063 1.370 . S
C2062 C2064 1.363 . S
C2062 H2078 0.931 . S
C2063 C2062 1.370 . S
C2063 C2067 1.408 . S
C2064 C2062 1.363 . S
C2064 C2065 1.370 . S
C2064 C2068 1.524 . S
C2065 C2057 1.503 . S
C2065 C2064 1.370 . S
C2065 C2066 1.403 . S
C2066 C2065 1.403 . S
C2066 C2067 1.404 . S
C2066 C2069 1.539 . S
C2067 C2063 1.408 . S
C2067 C2066 1.404 . S
C2067 H2079 0.930 . S
C2068 C2064 1.524 . S
C2068 H2080 0.956 . S
C2068 H2081 0.961 . S
C2068 H2082 0.961 . S
C2069 C2066 1.539 . S
C2069 H2083 0.958 . S
C2069 H2084 0.961 . S
C2069 H2085 0.960 . S
H2070 C2054 0.931 . S
H2071 C2059 0.929 . S
H2072 C2060 0.960 . S
H2073 C2060 0.962 . S
H2074 C2060 0.960 . S
H2075 C2061 0.961 . S
H2076 C2061 0.961 . S
H2077 C2061 0.961 . S
H2078 C2062 0.931 . S
H2079 C2067 0.930 . S
H2080 C2068 0.956 . S
H2081 C2068 0.961 . S
H2082 C2068 0.961 . S
H2083 C2069 0.958 . S
H2084 C2069 0.961 . S
H2085 C2069 0.960 . S
C2086 C2087 1.391 . S
C2086 C2088 1.394 . S
C2086 H2102 0.931 . S
C2087 C2086 1.391 . S
C2087 C2091 1.376 . S
C2088 C2086 1.394 . S
C2088 C2089 1.369 . S
C2088 C2092 1.531 . S
C2089 C2088 1.369 . S
C2089 C2090 1.410 . S
C2089 C2097 1.503 . S
C2090 C2089 1.410 . S
C2090 C2091 1.392 . S
C2090 C2093 1.511 . S
C2091 C2087 1.376 . S
C2091 C2090 1.392 . S
C2091 H2103 0.929 . S
C2092 C2088 1.531 . S
C2092 H2104 0.960 . S
C2092 H2105 0.962 . S
C2092 H2106 0.960 . S
C2093 C2090 1.511 . S
C2093 H2107 0.961 . S
C2093 H2108 0.961 . S
C2093 H2109 0.961 . S
C2094 C2095 1.370 . S
C2094 C2096 1.363 . S
C2094 H2110 0.931 . S
C2095 C2094 1.370 . S
C2095 C2099 1.408 . S
C2096 C2094 1.363 . S
C2096 C2097 1.370 . S
C2096 C2100 1.524 . S
C2097 C2089 1.503 . S
C2097 C2096 1.370 . S
C2097 C2098 1.403 . S
C2098 C2097 1.403 . S
C2098 C2099 1.404 . S
C2098 C2101 1.539 . S
C2099 C2095 1.408 . S
C2099 C2098 1.404 . S
C2099 H2111 0.930 . S
C2100 C2096 1.524 . S
C2100 H2112 0.956 . S
C2100 H2113 0.961 . S
C2100 H2114 0.961 . S
C2101 C2098 1.539 . S
C2101 H2115 0.958 . S
C2101 H2116 0.961 . S
C2101 H2117 0.960 . S
H2102 C2086 0.931 . S
H2103 C2091 0.929 . S
H2104 C2092 0.960 . S
H2105 C2092 0.962 . S
H2106 C2092 0.960 . S
H2107 C2093 0.961 . S
H2108 C2093 0.961 . S
H2109 C2093 0.961 . S
H2110 C2094 0.931 . S
H2111 C2099 0.930 . S
H2112 C2100 0.956 . S
H2113 C2100 0.961 . S
H2114 C2100 0.961 . S
H2115 C2101 0.958 . S
H2116 C2101 0.961 . S
H2117 C2101 0.960 . S
C2118 C2119 1.391 . S
C2118 C2120 1.394 . S
C2118 H2134 0.931 . S
C2119 C2118 1.391 . S
C2119 C2123 1.376 . S
C2120 C2118 1.394 . S
C2120 C2121 1.369 . S
C2120 C2124 1.531 . S
C2121 C2120 1.369 . S
C2121 C2122 1.410 . S
C2121 C2129 1.503 . S
C2122 C2121 1.410 . S
C2122 C2123 1.392 . S
C2122 C2125 1.511 . S
C2123 C2119 1.376 . S
C2123 C2122 1.392 . S
C2123 H2135 0.929 . S
C2124 C2120 1.531 . S
C2124 H2136 0.960 . S
C2124 H2137 0.962 . S
C2124 H2138 0.960 . S
C2125 C2122 1.511 . S
C2125 H2139 0.961 . S
C2125 H2140 0.961 . S
C2125 H2141 0.961 . S
C2126 C2127 1.370 . S
C2126 C2128 1.363 . S
C2126 H2142 0.931 . S
C2127 C2126 1.370 . S
C2127 C2131 1.408 . S
C2128 C2126 1.363 . S
C2128 C2129 1.370 . S
C2128 C2132 1.524 . S
C2129 C2121 1.503 . S
C2129 C2128 1.370 . S
C2129 C2130 1.403 . S
C2130 C2129 1.403 . S
C2130 C2131 1.404 . S
C2130 C2133 1.539 . S
C2131 C2127 1.408 . S
C2131 C2130 1.404 . S
C2131 H2143 0.930 . S
C2132 C2128 1.524 . S
C2132 H2144 0.956 . S
C2132 H2145 0.961 . S
C2132 H2146 0.961 . S
C2133 C2130 1.539 . S
C2133 H2147 0.958 . S
C2133 H2148 0.961 . S
C2133 H2149 0.960 . S
H2134 C2118 0.931 . S
H2135 C2123 0.929 . S
H2136 C2124 0.960 . S
H2137 C2124 0.962 . S
H2138 C2124 0.960 . S
H2139 C2125 0.961 . S
H2140 C2125 0.961 . S
H2141 C2125 0.961 . S
H2142 C2126 0.931 . S
H2143 C2131 0.930 . S
H2144 C2132 0.956 . S
H2145 C2132 0.961 . S
H2146 C2132 0.961 . S
H2147 C2133 0.958 . S
H2148 C2133 0.961 . S
H2149 C2133 0.960 . S
C2150 C2151 1.391 . S
C2150 C2152 1.394 . S
C2150 H2166 0.931 . S
C2151 C2150 1.391 . S
C2151 C2155 1.376 . S
C2152 C2150 1.394 . S
C2152 C2153 1.369 . S
C2152 C2156 1.531 . S
C2153 C2152 1.369 . S
C2153 C2154 1.410 . S
C2153 C2161 1.503 . S
C2154 C2153 1.410 . S
C2154 C2155 1.392 . S
C2154 C2157 1.511 . S
C2155 C2151 1.376 . S
C2155 C2154 1.392 . S
C2155 H2167 0.929 . S
C2156 C2152 1.531 . S
C2156 H2168 0.960 . S
C2156 H2169 0.962 . S
C2156 H2170 0.960 . S
C2157 C2154 1.511 . S
C2157 H2171 0.961 . S
C2157 H2172 0.961 . S
C2157 H2173 0.961 . S
C2158 C2159 1.370 . S
C2158 C2160 1.363 . S
C2158 H2174 0.931 . S
C2159 C2158 1.370 . S
C2159 C2163 1.408 . S
C2160 C2158 1.363 . S
C2160 C2161 1.370 . S
C2160 C2164 1.524 . S
C2161 C2153 1.503 . S
C2161 C2160 1.370 . S
C2161 C2162 1.403 . S
C2162 C2161 1.403 . S
C2162 C2163 1.404 . S
C2162 C2165 1.539 . S
C2163 C2159 1.408 . S
C2163 C2162 1.404 . S
C2163 H2175 0.930 . S
C2164 C2160 1.524 . S
C2164 H2176 0.956 . S
C2164 H2177 0.961 . S
C2164 H2178 0.961 . S
C2165 C2162 1.539 . S
C2165 H2179 0.958 . S
C2165 H2180 0.961 . S
C2165 H2181 0.960 . S
H2166 C2150 0.931 . S
H2167 C2155 0.929 . S
H2168 C2156 0.960 . S
H2169 C2156 0.962 . S
H2170 C2156 0.960 . S
H2171 C2157 0.961 . S
H2172 C2157 0.961 . S
H2173 C2157 0.961 . S
H2174 C2158 0.931 . S
H2175 C2163 0.930 . S
H2176 C2164 0.956 . S
H2177 C2164 0.961 . S
H2178 C2164 0.961 . S
H2179 C2165 0.958 . S
H2180 C2165 0.961 . S
H2181 C2165 0.960 . S
C2182 C2183 1.391 . S
C2182 C2184 1.394 . S
C2182 H2198 0.931 . S
C2183 C2182 1.391 . S
C2183 C2187 1.376 . S
C2184 C2182 1.394 . S
C2184 C2185 1.369 . S
C2184 C2188 1.531 . S
C2185 C2184 1.369 . S
C2185 C2186 1.410 . S
C2185 C2193 1.503 . S
C2186 C2185 1.410 . S
C2186 C2187 1.392 . S
C2186 C2189 1.511 . S
C2187 C2183 1.376 . S
C2187 C2186 1.392 . S
C2187 H2199 0.929 . S
C2188 C2184 1.531 . S
C2188 H2200 0.960 . S
C2188 H2201 0.962 . S
C2188 H2202 0.960 . S
C2189 C2186 1.511 . S
C2189 H2203 0.961 . S
C2189 H2204 0.961 . S
C2189 H2205 0.961 . S
C2190 C2191 1.370 . S
C2190 C2192 1.363 . S
C2190 H2206 0.931 . S
C2191 C2190 1.370 . S
C2191 C2195 1.408 . S
C2192 C2190 1.363 . S
C2192 C2193 1.370 . S
C2192 C2196 1.524 . S
C2193 C2185 1.503 . S
C2193 C2192 1.370 . S
C2193 C2194 1.403 . S
C2194 C2193 1.403 . S
C2194 C2195 1.404 . S
C2194 C2197 1.539 . S
C2195 C2191 1.408 . S
C2195 C2194 1.404 . S
C2195 H2207 0.930 . S
C2196 C2192 1.524 . S
C2196 H2208 0.956 . S
C2196 H2209 0.961 . S
C2196 H2210 0.961 . S
C2197 C2194 1.539 . S
C2197 H2211 0.958 . S
C2197 H2212 0.961 . S
C2197 H2213 0.960 . S
H2198 C2182 0.931 . S
H2199 C2187 0.929 . S
H2200 C2188 0.960 . S
H2201 C2188 0.962 . S
H2202 C2188 0.960 . S
H2203 C2189 0.961 . S
H2204 C2189 0.961 . S
H2205 C2189 0.961 . S
H2206 C2190 0.931 . S
H2207 C2195 0.930 . S
H2208 C2196 0.956 . S
H2209 C2196 0.961 . S
H2210 C2196 0.961 . S
H2211 C2197 0.958 . S
H2212 C2197 0.961 . S
H2213 C2197 0.960 . S
C2214 C2215 1.391 . S
C2214 C2216 1.394 . S
C2214 H2230 0.931 . S
C2215 C2214 1.391 . S
C2215 C2219 1.376 . S
C2216 C2214 1.394 . S
C2216 C2217 1.369 . S
C2216 C2220 1.531 . S
C2217 C2216 1.369 . S
C2217 C2218 1.410 . S
C2217 C2225 1.503 . S
C2218 C2217 1.410 . S
C2218 C2219 1.392 . S
C2218 C2221 1.511 . S
C2219 C2215 1.376 . S
C2219 C2218 1.392 . S
C2219 H2231 0.929 . S
C2220 C2216 1.531 . S
C2220 H2232 0.960 . S
C2220 H2233 0.962 . S
C2220 H2234 0.960 . S
C2221 C2218 1.511 . S
C2221 H2235 0.961 . S
C2221 H2236 0.961 . S
C2221 H2237 0.961 . S
C2222 C2223 1.370 . S
C2222 C2224 1.363 . S
C2222 H2238 0.931 . S
C2223 C2222 1.370 . S
C2223 C2227 1.408 . S
C2224 C2222 1.363 . S
C2224 C2225 1.370 . S
C2224 C2228 1.524 . S
C2225 C2217 1.503 . S
C2225 C2224 1.370 . S
C2225 C2226 1.403 . S
C2226 C2225 1.403 . S
C2226 C2227 1.404 . S
C2226 C2229 1.539 . S
C2227 C2223 1.408 . S
C2227 C2226 1.404 . S
C2227 H2239 0.930 . S
C2228 C2224 1.524 . S
C2228 H2240 0.956 . S
C2228 H2241 0.961 . S
C2228 H2242 0.961 . S
C2229 C2226 1.539 . S
C2229 H2243 0.958 . S
C2229 H2244 0.961 . S
C2229 H2245 0.960 . S
H2230 C2214 0.931 . S
H2231 C2219 0.929 . S
H2232 C2220 0.960 . S
H2233 C2220 0.962 . S
H2234 C2220 0.960 . S
H2235 C2221 0.961 . S
H2236 C2221 0.961 . S
H2237 C2221 0.961 . S
H2238 C2222 0.931 . S
H2239 C2227 0.930 . S
H2240 C2228 0.956 . S
H2241 C2228 0.961 . S
H2242 C2228 0.961 . S
H2243 C2229 0.958 . S
H2244 C2229 0.961 . S
H2245 C2229 0.960 . S
C2246 C2247 1.391 . S
C2246 C2248 1.394 . S
C2246 H2262 0.931 . S
C2247 C2246 1.391 . S
C2247 C2251 1.376 . S
C2248 C2246 1.394 . S
C2248 C2249 1.369 . S
C2248 C2252 1.531 . S
C2249 C2248 1.369 . S
C2249 C2250 1.410 . S
C2249 C2257 1.503 . S
C2250 C2249 1.410 . S
C2250 C2251 1.392 . S
C2250 C2253 1.511 . S
C2251 C2247 1.376 . S
C2251 C2250 1.392 . S
C2251 H2263 0.929 . S
C2252 C2248 1.531 . S
C2252 H2264 0.960 . S
C2252 H2265 0.962 . S
C2252 H2266 0.960 . S
C2253 C2250 1.511 . S
C2253 H2267 0.961 . S
C2253 H2268 0.961 . S
C2253 H2269 0.961 . S
C2254 C2255 1.370 . S
C2254 C2256 1.363 . S
C2254 H2270 0.931 . S
C2255 C2254 1.370 . S
C2255 C2259 1.408 . S
C2256 C2254 1.363 . S
C2256 C2257 1.370 . S
C2256 C2260 1.524 . S
C2257 C2249 1.503 . S
C2257 C2256 1.370 . S
C2257 C2258 1.403 . S
C2258 C2257 1.403 . S
C2258 C2259 1.404 . S
C2258 C2261 1.539 . S
C2259 C2255 1.408 . S
C2259 C2258 1.404 . S
C2259 H2271 0.930 . S
C2260 C2256 1.524 . S
C2260 H2272 0.956 . S
C2260 H2273 0.961 . S
C2260 H2274 0.961 . S
C2261 C2258 1.539 . S
C2261 H2275 0.958 . S
C2261 H2276 0.961 . S
C2261 H2277 0.960 . S
H2262 C2246 0.931 . S
H2263 C2251 0.929 . S
H2264 C2252 0.960 . S
H2265 C2252 0.962 . S
H2266 C2252 0.960 . S
H2267 C2253 0.961 . S
H2268 C2253 0.961 . S
H2269 C2253 0.961 . S
H2270 C2254 0.931 . S
H2271 C2259 0.930 . S
H2272 C2260 0.956 . S
H2273 C2260 0.961 . S
H2274 C2260 0.961 . S
H2275 C2261 0.958 . S
H2276 C2261 0.961 . S
H2277 C2261 0.960 . S
C2278 C2279 1.391 . S
C2278 C2280 1.394 . S
C2278 H2294 0.931 . S
C2279 C2278 1.391 . S
C2279 C2283 1.376 . S
C2280 C2278 1.394 . S
C2280 C2281 1.369 . S
C2280 C2284 1.531 . S
C2281 C2280 1.369 . S
C2281 C2282 1.410 . S
C2281 C2289 1.503 . S
C2282 C2281 1.410 . S
C2282 C2283 1.392 . S
C2282 C2285 1.511 . S
C2283 C2279 1.376 . S
C2283 C2282 1.392 . S
C2283 H2295 0.929 . S
C2284 C2280 1.531 . S
C2284 H2296 0.960 . S
C2284 H2297 0.962 . S
C2284 H2298 0.960 . S
C2285 C2282 1.511 . S
C2285 H2299 0.961 . S
C2285 H2300 0.961 . S
C2285 H2301 0.961 . S
C2286 C2287 1.370 . S
C2286 C2288 1.363 . S
C2286 H2302 0.931 . S
C2287 C2286 1.370 . S
C2287 C2291 1.408 . S
C2288 C2286 1.363 . S
C2288 C2289 1.370 . S
C2288 C2292 1.524 . S
C2289 C2281 1.503 . S
C2289 C2288 1.370 . S
C2289 C2290 1.403 . S
C2290 C2289 1.403 . S
C2290 C2291 1.404 . S
C2290 C2293 1.539 . S
C2291 C2287 1.408 . S
C2291 C2290 1.404 . S
C2291 H2303 0.930 . S
C2292 C2288 1.524 . S
C2292 H2304 0.956 . S
C2292 H2305 0.961 . S
C2292 H2306 0.961 . S
C2293 C2290 1.539 . S
C2293 H2307 0.958 . S
C2293 H2308 0.961 . S
C2293 H2309 0.960 . S
H2294 C2278 0.931 . S
H2295 C2283 0.929 . S
H2296 C2284 0.960 . S
H2297 C2284 0.962 . S
H2298 C2284 0.960 . S
H2299 C2285 0.961 . S
H2300 C2285 0.961 . S
H2301 C2285 0.961 . S
H2302 C2286 0.931 . S
H2303 C2291 0.930 . S
H2304 C2292 0.956 . S
H2305 C2292 0.961 . S
H2306 C2292 0.961 . S
H2307 C2293 0.958 . S
H2308 C2293 0.961 . S
H2309 C2293 0.960 . S
C2310 C2311 1.391 . S
C2310 C2312 1.394 . S
C2310 H2326 0.931 . S
C2311 C2310 1.391 . S
C2311 C2315 1.376 . S
C2312 C2310 1.394 . S
C2312 C2313 1.369 . S
C2312 C2316 1.531 . S
C2313 C2312 1.369 . S
C2313 C2314 1.410 . S
C2313 C2321 1.503 . S
C2314 C2313 1.410 . S
C2314 C2315 1.392 . S
C2314 C2317 1.511 . S
C2315 C2311 1.376 . S
C2315 C2314 1.392 . S
C2315 H2327 0.929 . S
C2316 C2312 1.531 . S
C2316 H2328 0.960 . S
C2316 H2329 0.962 . S
C2316 H2330 0.960 . S
C2317 C2314 1.511 . S
C2317 H2331 0.961 . S
C2317 H2332 0.961 . S
C2317 H2333 0.961 . S
C2318 C2319 1.370 . S
C2318 C2320 1.363 . S
C2318 H2334 0.931 . S
C2319 C2318 1.370 . S
C2319 C2323 1.408 . S
C2320 C2318 1.363 . S
C2320 C2321 1.370 . S
C2320 C2324 1.524 . S
C2321 C2313 1.503 . S
C2321 C2320 1.370 . S
C2321 C2322 1.403 . S
C2322 C2321 1.403 . S
C2322 C2323 1.404 . S
C2322 C2325 1.539 . S
C2323 C2319 1.408 . S
C2323 C2322 1.404 . S
C2323 H2335 0.930 . S
C2324 C2320 1.524 . S
C2324 H2336 0.956 . S
C2324 H2337 0.961 . S
C2324 H2338 0.961 . S
C2325 C2322 1.539 . S
C2325 H2339 0.958 . S
C2325 H2340 0.961 . S
C2325 H2341 0.960 . S
H2326 C2310 0.931 . S
H2327 C2315 0.929 . S
H2328 C2316 0.960 . S
H2329 C2316 0.962 . S
H2330 C2316 0.960 . S
H2331 C2317 0.961 . S
H2332 C2317 0.961 . S
H2333 C2317 0.961 . S
H2334 C2318 0.931 . S
H2335 C2323 0.930 . S
H2336 C2324 0.956 . S
H2337 C2324 0.961 . S
H2338 C2324 0.961 . S
H2339 C2325 0.958 . S
H2340 C2325 0.961 . S
H2341 C2325 0.960 . S
C2342 C2343 1.391 . S
C2342 C2344 1.394 . S
C2342 H2358 0.931 . S
C2343 C2342 1.391 . S
C2343 C2347 1.376 . S
C2344 C2342 1.394 . S
C2344 C2345 1.369 . S
C2344 C2348 1.531 . S
C2345 C2344 1.369 . S
C2345 C2346 1.410 . S
C2345 C2353 1.503 . S
C2346 C2345 1.410 . S
C2346 C2347 1.392 . S
C2346 C2349 1.511 . S
C2347 C2343 1.376 . S
C2347 C2346 1.392 . S
C2347 H2359 0.929 . S
C2348 C2344 1.531 . S
C2348 H2360 0.960 . S
C2348 H2361 0.962 . S
C2348 H2362 0.960 . S
C2349 C2346 1.511 . S
C2349 H2363 0.961 . S
C2349 H2364 0.961 . S
C2349 H2365 0.961 . S
C2350 C2351 1.370 . S
C2350 C2352 1.363 . S
C2350 H2366 0.931 . S
C2351 C2350 1.370 . S
C2351 C2355 1.408 . S
C2352 C2350 1.363 . S
C2352 C2353 1.370 . S
C2352 C2356 1.524 . S
C2353 C2345 1.503 . S
C2353 C2352 1.370 . S
C2353 C2354 1.403 . S
C2354 C2353 1.403 . S
C2354 C2355 1.404 . S
C2354 C2357 1.539 . S
C2355 C2351 1.408 . S
C2355 C2354 1.404 . S
C2355 H2367 0.930 . S
C2356 C2352 1.524 . S
C2356 H2368 0.956 . S
C2356 H2369 0.961 . S
C2356 H2370 0.961 . S
C2357 C2354 1.539 . S
C2357 H2371 0.958 . S
C2357 H2372 0.961 . S
C2357 H2373 0.960 . S
H2358 C2342 0.931 . S
H2359 C2347 0.929 . S
H2360 C2348 0.960 . S
H2361 C2348 0.962 . S
H2362 C2348 0.960 . S
H2363 C2349 0.961 . S
H2364 C2349 0.961 . S
H2365 C2349 0.961 . S
H2366 C2350 0.931 . S
H2367 C2355 0.930 . S
H2368 C2356 0.956 . S
H2369 C2356 0.961 . S
H2370 C2356 0.961 . S
H2371 C2357 0.958 . S
H2372 C2357 0.961 . S
H2373 C2357 0.960 . S
C2374 C2375 1.391 . S
C2374 C2376 1.394 . S
C2374 H2390 0.931 . S
C2375 C2374 1.391 . S
C2375 C2379 1.376 . S
C2376 C2374 1.394 . S
C2376 C2377 1.369 . S
C2376 C2380 1.531 . S
C2377 C2376 1.369 . S
C2377 C2378 1.410 . S
C2377 C2385 1.503 . S
C2378 C2377 1.410 . S
C2378 C2379 1.392 . S
C2378 C2381 1.511 . S
C2379 C2375 1.376 . S
C2379 C2378 1.392 . S
C2379 H2391 0.929 . S
C2380 C2376 1.531 . S
C2380 H2392 0.960 . S
C2380 H2393 0.962 . S
C2380 H2394 0.960 . S
C2381 C2378 1.511 . S
C2381 H2395 0.961 . S
C2381 H2396 0.961 . S
C2381 H2397 0.961 . S
C2382 C2383 1.370 . S
C2382 C2384 1.363 . S
C2382 H2398 0.931 . S
C2383 C2382 1.370 . S
C2383 C2387 1.408 . S
C2384 C2382 1.363 . S
C2384 C2385 1.370 . S
C2384 C2388 1.524 . S
C2385 C2377 1.503 . S
C2385 C2384 1.370 . S
C2385 C2386 1.403 . S
C2386 C2385 1.403 . S
C2386 C2387 1.404 . S
C2386 C2389 1.539 . S
C2387 C2383 1.408 . S
C2387 C2386 1.404 . S
C2387 H2399 0.930 . S
C2388 C2384 1.524 . S
C2388 H2400 0.956 . S
C2388 H2401 0.961 . S
C2388 H2402 0.961 . S
C2389 C2386 1.539 . S
C2389 H2403 0.958 . S
C2389 H2404 0.961 . S
C2389 H2405 0.960 . S
H2390 C2374 0.931 . S
H2391 C2379 0.929 . S
H2392 C2380 0.960 . S
H2393 C2380 0.962 . S
H2394 C2380 0.960 . S
H2395 C2381 0.961 . S
H2396 C2381 0.961 . S
H2397 C2381 0.961 . S
H2398 C2382 0.931 . S
H2399 C2387 0.930 . S
H2400 C2388 0.956 . S
H2401 C2388 0.961 . S
H2402 C2388 0.961 . S
H2403 C2389 0.958 . S
H2404 C2389 0.961 . S
H2405 C2389 0.960 . S
C2406 C2407 1.391 . S
C2406 C2408 1.394 . S
C2406 H2422 0.931 . S
C2407 C2406 1.391 . S
C2407 C2411 1.376 . S
C2408 C2406 1.394 . S
C2408 C2409 1.369 . S
C2408 C2412 1.531 . S
C2409 C2408 1.369 . S
C2409 C2410 1.410 . S
C2409 C2417 1.503 . S
C2410 C2409 1.410 . S
C2410 C2411 1.392 . S
C2410 C2413 1.511 . S
C2411 C2407 1.376 . S
C2411 C2410 1.392 . S
C2411 H2423 0.929 . S
C2412 C2408 1.531 . S
C2412 H2424 0.960 . S
C2412 H2425 0.962 . S
C2412 H2426 0.960 . S
C2413 C2410 1.511 . S
C2413 H2427 0.961 . S
C2413 H2428 0.961 . S
C2413 H2429 0.961 . S
C2414 C2415 1.370 . S
C2414 C2416 1.363 . S
C2414 H2430 0.931 . S
C2415 C2414 1.370 . S
C2415 C2419 1.408 . S
C2416 C2414 1.363 . S
C2416 C2417 1.370 . S
C2416 C2420 1.524 . S
C2417 C2409 1.503 . S
C2417 C2416 1.370 . S
C2417 C2418 1.403 . S
C2418 C2417 1.403 . S
C2418 C2419 1.404 . S
C2418 C2421 1.539 . S
C2419 C2415 1.408 . S
C2419 C2418 1.404 . S
C2419 H2431 0.930 . S
C2420 C2416 1.524 . S
C2420 H2432 0.956 . S
C2420 H2433 0.961 . S
C2420 H2434 0.961 . S
C2421 C2418 1.539 . S
C2421 H2435 0.958 . S
C2421 H2436 0.961 . S
C2421 H2437 0.960 . S
H2422 C2406 0.931 . S
H2423 C2411 0.929 . S
H2424 C2412 0.960 . S
H2425 C2412 0.962 . S
H2426 C2412 0.960 . S
H2427 C2413 0.961 . S
H2428 C2413 0.961 . S
H2429 C2413 0.961 . S
H2430 C2414 0.931 . S
H2431 C2419 0.930 . S
H2432 C2420 0.956 . S
H2433 C2420 0.961 . S
H2434 C2420 0.961 . S
H2435 C2421 0.958 . S
H2436 C2421 0.961 . S
H2437 C2421 0.960 . S
C2438 C2439 1.391 . S
C2438 C2440 1.394 . S
C2438 H2454 0.931 . S
C2439 C2438 1.391 . S
C2439 C2443 1.376 . S
C2440 C2438 1.394 . S
C2440 C2441 1.369 . S
C2440 C2444 1.531 . S
C2441 C2440 1.369 . S
C2441 C2442 1.410 . S
C2441 C2449 1.503 . S
C2442 C2441 1.410 . S
C2442 C2443 1.392 . S
C2442 C2445 1.511 . S
C2443 C2439 1.376 . S
C2443 C2442 1.392 . S
C2443 H2455 0.929 . S
C2444 C2440 1.531 . S
C2444 H2456 0.960 . S
C2444 H2457 0.962 . S
C2444 H2458 0.960 . S
C2445 C2442 1.511 . S
C2445 H2459 0.961 . S
C2445 H2460 0.961 . S
C2445 H2461 0.961 . S
C2446 C2447 1.370 . S
C2446 C2448 1.363 . S
C2446 H2462 0.931 . S
C2447 C2446 1.370 . S
C2447 C2451 1.408 . S
C2448 C2446 1.363 . S
C2448 C2449 1.370 . S
C2448 C2452 1.524 . S
C2449 C2441 1.503 . S
C2449 C2448 1.370 . S
C2449 C2450 1.403 . S
C2450 C2449 1.403 . S
C2450 C2451 1.404 . S
C2450 C2453 1.539 . S
C2451 C2447 1.408 . S
C2451 C2450 1.404 . S
C2451 H2463 0.930 . S
C2452 C2448 1.524 . S
C2452 H2464 0.956 . S
C2452 H2465 0.961 . S
C2452 H2466 0.961 . S
C2453 C2450 1.539 . S
C2453 H2467 0.958 . S
C2453 H2468 0.961 . S
C2453 H2469 0.960 . S
H2454 C2438 0.931 . S
H2455 C2443 0.929 . S
H2456 C2444 0.960 . S
H2457 C2444 0.962 . S
H2458 C2444 0.960 . S
H2459 C2445 0.961 . S
H2460 C2445 0.961 . S
H2461 C2445 0.961 . S
H2462 C2446 0.931 . S
H2463 C2451 0.930 . S
H2464 C2452 0.956 . S
H2465 C2452 0.961 . S
H2466 C2452 0.961 . S
H2467 C2453 0.958 . S
H2468 C2453 0.961 . S
H2469 C2453 0.960 . S
C2470 C2471 1.391 . S
C2470 C2472 1.394 . S
C2470 H2486 0.931 . S
C2471 C2470 1.391 . S
C2471 C2475 1.376 . S
C2472 C2470 1.394 . S
C2472 C2473 1.369 . S
C2472 C2476 1.531 . S
C2473 C2472 1.369 . S
C2473 C2474 1.410 . S
C2473 C2481 1.503 . S
C2474 C2473 1.410 . S
C2474 C2475 1.392 . S
C2474 C2477 1.511 . S
C2475 C2471 1.376 . S
C2475 C2474 1.392 . S
C2475 H2487 0.929 . S
C2476 C2472 1.531 . S
C2476 H2488 0.960 . S
C2476 H2489 0.962 . S
C2476 H2490 0.960 . S
C2477 C2474 1.511 . S
C2477 H2491 0.961 . S
C2477 H2492 0.961 . S
C2477 H2493 0.961 . S
C2478 C2479 1.370 . S
C2478 C2480 1.363 . S
C2478 H2494 0.931 . S
C2479 C2478 1.370 . S
C2479 C2483 1.408 . S
C2480 C2478 1.363 . S
C2480 C2481 1.370 . S
C2480 C2484 1.524 . S
C2481 C2473 1.503 . S
C2481 C2480 1.370 . S
C2481 C2482 1.403 . S
C2482 C2481 1.403 . S
C2482 C2483 1.404 . S
C2482 C2485 1.539 . S
C2483 C2479 1.408 . S
C2483 C2482 1.404 . S
C2483 H2495 0.930 . S
C2484 C2480 1.524 . S
C2484 H2496 0.956 . S
C2484 H2497 0.961 . S
C2484 H2498 0.961 . S
C2485 C2482 1.539 . S
C2485 H2499 0.958 . S
C2485 H2500 0.961 . S
C2485 H2501 0.960 . S
H2486 C2470 0.931 . S
H2487 C2475 0.929 . S
H2488 C2476 0.960 . S
H2489 C2476 0.962 . S
H2490 C2476 0.960 . S
H2491 C2477 0.961 . S
H2492 C2477 0.961 . S
H2493 C2477 0.961 . S
H2494 C2478 0.931 . S
H2495 C2483 0.930 . S
H2496 C2484 0.956 . S
H2497 C2484 0.961 . S
H2498 C2484 0.961 . S
H2499 C2485 0.958 . S
H2500 C2485 0.961 . S
H2501 C2485 0.960 . S
C2502 C2503 1.391 . S
C2502 C2504 1.394 . S
C2502 H2518 0.931 . S
C2503 C2502 1.391 . S
C2503 C2507 1.376 . S
C2504 C2502 1.394 . S
C2504 C2505 1.369 . S
C2504 C2508 1.531 . S
C2505 C2504 1.369 . S
C2505 C2506 1.410 . S
C2505 C2513 1.503 . S
C2506 C2505 1.410 . S
C2506 C2507 1.392 . S
C2506 C2509 1.511 . S
C2507 C2503 1.376 . S
C2507 C2506 1.392 . S
C2507 H2519 0.929 . S
C2508 C2504 1.531 . S
C2508 H2520 0.960 . S
C2508 H2521 0.962 . S
C2508 H2522 0.960 . S
C2509 C2506 1.511 . S
C2509 H2523 0.961 . S
C2509 H2524 0.961 . S
C2509 H2525 0.961 . S
C2510 C2511 1.370 . S
C2510 C2512 1.363 . S
C2510 H2526 0.931 . S
C2511 C2510 1.370 . S
C2511 C2515 1.408 . S
C2512 C2510 1.363 . S
C2512 C2513 1.370 . S
C2512 C2516 1.524 . S
C2513 C2505 1.503 . S
C2513 C2512 1.370 . S
C2513 C2514 1.403 . S
C2514 C2513 1.403 . S
C2514 C2515 1.404 . S
C2514 C2517 1.539 . S
C2515 C2511 1.408 . S
C2515 C2514 1.404 . S
C2515 H2527 0.930 . S
C2516 C2512 1.524 . S
C2516 H2528 0.956 . S
C2516 H2529 0.961 . S
C2516 H2530 0.961 . S
C2517 C2514 1.539 . S
C2517 H2531 0.958 . S
C2517 H2532 0.961 . S
C2517 H2533 0.960 . S
H2518 C2502 0.931 . S
H2519 C2507 0.929 . S
H2520 C2508 0.960 . S
H2521 C2508 0.962 . S
H2522 C2508 0.960 . S
H2523 C2509 0.961 . S
H2524 C2509 0.961 . S
H2525 C2509 0.961 . S
H2526 C2510 0.931 . S
H2527 C2515 0.930 . S
H2528 C2516 0.956 . S
H2529 C2516 0.961 . S
H2530 C2516 0.961 . S
H2531 C2517 0.958 . S
H2532 C2517 0.961 . S
H2533 C2517 0.960 . S
C2534 C2535 1.391 . S
C2534 C2536 1.394 . S
C2534 H2550 0.931 . S
C2535 C2534 1.391 . S
C2535 C2539 1.376 . S
C2536 C2534 1.394 . S
C2536 C2537 1.369 . S
C2536 C2540 1.531 . S
C2537 C2536 1.369 . S
C2537 C2538 1.410 . S
C2537 C2545 1.503 . S
C2538 C2537 1.410 . S
C2538 C2539 1.392 . S
C2538 C2541 1.511 . S
C2539 C2535 1.376 . S
C2539 C2538 1.392 . S
C2539 H2551 0.929 . S
C2540 C2536 1.531 . S
C2540 H2552 0.960 . S
C2540 H2553 0.962 . S
C2540 H2554 0.960 1_554 S
C2541 C2538 1.511 . S
C2541 H2555 0.961 . S
C2541 H2556 0.961 . S
C2541 H2557 0.961 . S
C2542 C2543 1.370 . S
C2542 C2544 1.363 . S
C2542 H2558 0.931 . S
C2543 C2542 1.370 . S
C2543 C2547 1.408 . S
C2544 C2542 1.363 . S
C2544 C2545 1.370 . S
C2544 C2548 1.524 . S
C2545 C2537 1.503 . S
C2545 C2544 1.370 . S
C2545 C2546 1.403 . S
C2546 C2545 1.403 . S
C2546 C2547 1.404 . S
C2546 C2549 1.539 . S
C2547 C2543 1.408 . S
C2547 C2546 1.404 . S
C2547 H2559 0.930 . S
C2548 C2544 1.524 . S
C2548 H2560 0.956 . S
C2548 H2561 0.961 . S
C2548 H2562 0.961 . S
C2549 C2546 1.539 . S
C2549 H2563 0.958 . S
C2549 H2564 0.961 . S
C2549 H2565 0.960 . S
H2550 C2534 0.931 . S
H2551 C2539 0.929 . S
H2552 C2540 0.960 . S
H2553 C2540 0.962 . S
H2554 C2540 0.960 1_556 S
H2555 C2541 0.961 . S
H2556 C2541 0.961 . S
H2557 C2541 0.961 . S
H2558 C2542 0.931 . S
H2559 C2547 0.930 . S
H2560 C2548 0.956 . S
H2561 C2548 0.961 . S
H2562 C2548 0.961 . S
H2563 C2549 0.958 . S
H2564 C2549 0.961 . S
H2565 C2549 0.960 . S
C2566 C2567 1.391 . S
C2566 C2568 1.394 . S
C2566 H2582 0.931 . S
C2567 C2566 1.391 . S
C2567 C2571 1.376 . S
C2568 C2566 1.394 . S
C2568 C2569 1.369 . S
C2568 C2572 1.531 . S
C2569 C2568 1.369 . S
C2569 C2570 1.410 . S
C2569 C2577 1.503 . S
C2570 C2569 1.410 . S
C2570 C2571 1.392 . S
C2570 C2573 1.511 . S
C2571 C2567 1.376 . S
C2571 C2570 1.392 . S
C2571 H2583 0.929 . S
C2572 C2568 1.531 . S
C2572 H2584 0.960 . S
C2572 H2585 0.962 . S
C2572 H2586 0.960 . S
C2573 C2570 1.511 . S
C2573 H2587 0.961 . S
C2573 H2588 0.961 . S
C2573 H2589 0.961 . S
C2574 C2575 1.370 . S
C2574 C2576 1.363 . S
C2574 H2590 0.931 . S
C2575 C2574 1.370 . S
C2575 C2579 1.408 . S
C2576 C2574 1.363 . S
C2576 C2577 1.370 . S
C2576 C2580 1.524 . S
C2577 C2569 1.503 . S
C2577 C2576 1.370 . S
C2577 C2578 1.403 . S
C2578 C2577 1.403 . S
C2578 C2579 1.404 . S
C2578 C2581 1.539 . S
C2579 C2575 1.408 . S
C2579 C2578 1.404 . S
C2579 H2591 0.930 . S
C2580 C2576 1.524 . S
C2580 H2592 0.956 . S
C2580 H2593 0.961 . S
C2580 H2594 0.961 . S
C2581 C2578 1.539 . S
C2581 H2595 0.958 . S
C2581 H2596 0.961 . S
C2581 H2597 0.960 . S
H2582 C2566 0.931 . S
H2583 C2571 0.929 . S
H2584 C2572 0.960 . S
H2585 C2572 0.962 . S
H2586 C2572 0.960 . S
H2587 C2573 0.961 . S
H2588 C2573 0.961 . S
H2589 C2573 0.961 . S
H2590 C2574 0.931 . S
H2591 C2579 0.930 . S
H2592 C2580 0.956 . S
H2593 C2580 0.961 . S
H2594 C2580 0.961 . S
H2595 C2581 0.958 . S
H2596 C2581 0.961 . S
H2597 C2581 0.960 . S
C2598 C2599 1.391 . S
C2598 C2600 1.394 . S
C2598 H2614 0.931 . S
C2599 C2598 1.391 . S
C2599 C2603 1.376 1_556 S
C2600 C2598 1.394 . S
C2600 C2601 1.369 . S
C2600 C2604 1.531 . S
C2601 C2600 1.369 . S
C2601 C2602 1.410 . S
C2601 C2609 1.503 . S
C2602 C2601 1.410 . S
C2602 C2603 1.392 1_556 S
C2602 C2605 1.511 . S
C2603 C2599 1.376 1_554 S
C2603 C2602 1.392 1_554 S
C2603 H2615 0.929 . S
C2604 C2600 1.531 . S
C2604 H2616 0.960 . S
C2604 H2617 0.962 . S
C2604 H2618 0.960 . S
C2605 C2602 1.511 . S
C2605 H2619 0.961 1_556 S
C2605 H2620 0.961 . S
C2605 H2621 0.961 . S
C2606 C2607 1.370 . S
C2606 C2608 1.363 . S
C2606 H2622 0.931 . S
C2607 C2606 1.370 . S
C2607 C2611 1.408 . S
C2608 C2606 1.363 . S
C2608 C2609 1.370 . S
C2608 C2612 1.524 1_556 S
C2609 C2601 1.503 . S
C2609 C2608 1.370 . S
C2609 C2610 1.403 . S
C2610 C2609 1.403 . S
C2610 C2611 1.404 . S
C2610 C2613 1.539 . S
C2611 C2607 1.408 . S
C2611 C2610 1.404 . S
C2611 H2623 0.930 . S
C2612 C2608 1.524 1_554 S
C2612 H2624 0.956 . S
C2612 H2625 0.961 . S
C2612 H2626 0.961 . S
C2613 C2610 1.539 . S
C2613 H2627 0.958 . S
C2613 H2628 0.961 . S
C2613 H2629 0.960 . S
H2614 C2598 0.931 . S
H2615 C2603 0.929 . S
H2616 C2604 0.960 . S
H2617 C2604 0.962 . S
H2618 C2604 0.960 . S
H2619 C2605 0.961 1_554 S
H2620 C2605 0.961 . S
H2621 C2605 0.961 . S
H2622 C2606 0.931 . S
H2623 C2611 0.930 . S
H2624 C2612 0.956 . S
H2625 C2612 0.961 . S
H2626 C2612 0.961 . S
H2627 C2613 0.958 . S
H2628 C2613 0.961 . S
H2629 C2613 0.960 . S
C2630 C2631 1.391 . S
C2630 C2632 1.394 . S
C2630 H2646 0.931 . S
C2631 C2630 1.391 . S
C2631 C2635 1.377 . S
C2632 C2630 1.394 . S
C2632 C2633 1.369 . S
C2632 C2636 1.531 . S
C2633 C2632 1.369 . S
C2633 C2634 1.410 . S
C2633 C2641 1.503 . S
C2634 C2633 1.410 . S
C2634 C2635 1.395 . S
C2634 C2637 1.511 . S
C2635 C2631 1.377 . S
C2635 C2634 1.395 . S
C2635 H2647 0.925 1_556 S
C2636 C2632 1.531 . S
C2636 H2648 0.960 . S
C2636 H2649 0.962 . S
C2636 H2650 0.960 . S
C2637 C2634 1.511 . S
C2637 H2651 0.961 . S
C2637 H2652 0.961 . S
C2637 H2653 0.961 1_556 S
C2638 C2639 1.370 . S
C2638 C2640 1.363 . S
C2638 H2654 0.931 . S
C2639 C2638 1.370 . S
C2639 C2643 1.408 . S
C2640 C2638 1.363 . S
C2640 C2641 1.370 . S
C2640 C2644 1.524 . S
C2641 C2633 1.503 . S
C2641 C2640 1.370 . S
C2641 C2642 1.403 . S
C2642 C2641 1.403 . S
C2642 C2643 1.404 . S
C2642 C2645 1.539 1_556 S
C2643 C2639 1.408 . S
C2643 C2642 1.404 . S
C2643 H2655 0.947 . S
C2644 C2640 1.524 . S
C2644 H2656 0.956 . S
C2644 H2657 0.961 . S
C2644 H2658 0.961 . S
C2645 C2642 1.539 1_554 S
C2645 H2659 0.958 . S
C2645 H2660 0.961 . S
C2645 H2661 0.960 . S
H2646 C2630 0.931 . S
H2647 C2635 0.925 1_554 S
H2648 C2636 0.960 . S
H2649 C2636 0.962 . S
H2650 C2636 0.960 . S
H2651 C2637 0.961 . S
H2652 C2637 0.961 . S
H2653 C2637 0.961 1_554 S
H2654 C2638 0.931 . S
H2655 C2643 0.947 . S
H2656 C2644 0.956 . S
H2657 C2644 0.961 . S
H2658 C2644 0.961 . S
H2659 C2645 0.958 . S
H2660 C2645 0.961 . S
H2661 C2645 0.960 . S
C2662 C2663 1.391 . S
C2662 C2664 1.394 . S
C2662 H2678 0.931 . S
C2663 C2662 1.391 . S
C2663 C2667 1.376 1_556 S
C2664 C2662 1.394 . S
C2664 C2665 1.369 . S
C2664 C2668 1.531 . S
C2665 C2664 1.369 . S
C2665 C2666 1.410 1_556 S
C2665 C2673 1.503 . S
C2666 C2665 1.410 1_554 S
C2666 C2667 1.392 . S
C2666 C2669 1.511 . S
C2667 C2663 1.376 1_554 S
C2667 C2666 1.392 . S
C2667 H2679 0.929 . S
C2668 C2664 1.531 . S
C2668 H2680 0.960 . S
C2668 H2681 0.962 . S
C2668 H2682 0.960 . S
C2669 C2666 1.511 . S
C2669 H2683 0.961 . S
C2669 H2684 0.961 . S
C2669 H2685 0.961 . S
C2670 C2671 1.370 . S
C2670 C2672 1.363 . S
C2670 H2686 0.931 . S
C2671 C2670 1.370 . S
C2671 C2675 1.408 . S
C2672 C2670 1.363 . S
C2672 C2673 1.370 . S
C2672 C2676 1.524 . S
C2673 C2665 1.503 . S
C2673 C2672 1.370 . S
C2673 C2674 1.403 . S
C2674 C2673 1.403 . S
C2674 C2675 1.404 . S
C2674 C2677 1.539 . S
C2675 C2671 1.408 . S
C2675 C2674 1.404 . S
C2675 H2687 0.930 . S
C2676 C2672 1.524 . S
C2676 H2688 0.956 . S
C2676 H2689 0.961 . S
C2676 H2690 0.961 . S
C2677 C2674 1.539 . S
C2677 H2691 0.958 . S
C2677 H2692 0.961 . S
C2677 H2693 0.993 . S
H2678 C2662 0.931 . S
H2679 C2667 0.929 . S
H2680 C2668 0.960 . S
H2681 C2668 0.962 . S
H2682 C2668 0.960 . S
H2683 C2669 0.961 . S
H2684 C2669 0.961 . S
H2685 C2669 0.961 . S
H2686 C2670 0.931 . S
H2687 C2675 0.930 . S
H2688 C2676 0.956 . S
H2689 C2676 0.961 . S
H2690 C2676 0.961 . S
H2691 C2677 0.958 . S
H2692 C2677 0.961 . S
H2693 C2677 0.993 . S
C2694 C2695 1.391 . S
C2694 C2696 1.394 . S
C2694 H2710 0.931 . S
C2695 C2694 1.391 . S
C2695 C2699 1.376 1_556 S
C2696 C2694 1.394 . S
C2696 C2697 1.369 . S
C2696 C2700 1.531 . S
C2697 C2696 1.369 . S
C2697 C2698 1.410 . S
C2697 C2705 1.503 . S
C2698 C2697 1.410 . S
C2698 C2699 1.392 1_556 S
C2698 C2701 1.511 1_556 S
C2699 C2695 1.376 1_554 S
C2699 C2698 1.392 1_554 S
C2699 H2711 0.929 . S
C2700 C2696 1.531 . S
C2700 H2712 0.960 . S
C2700 H2713 0.962 . S
C2700 H2714 0.960 . S
C2701 C2698 1.511 1_554 S
C2701 H2715 0.961 . S
C2701 H2716 0.961 . S
C2701 H2717 0.961 . S
C2702 C2703 1.370 . S
C2702 C2704 1.363 . S
C2702 H2718 0.931 . S
C2703 C2702 1.370 . S
C2703 C2707 1.408 . S
C2704 C2702 1.363 . S
C2704 C2705 1.370 . S
C2704 C2708 1.524 . S
C2705 C2697 1.503 . S
C2705 C2704 1.370 . S
C2705 C2706 1.403 . S
C2706 C2705 1.403 . S
C2706 C2707 1.404 . S
C2706 C2709 1.539 . S
C2707 C2703 1.408 . S
C2707 C2706 1.404 . S
C2707 H2719 0.930 . S
C2708 C2704 1.524 . S
C2708 H2720 0.956 . S
C2708 H2721 0.954 1_556 S
C2708 H2722 0.961 . S
C2709 C2706 1.539 . S
C2709 H2723 0.958 . S
C2709 H2724 0.961 . S
C2709 H2725 0.960 . S
H2710 C2694 0.931 . S
H2711 C2699 0.929 . S
H2712 C2700 0.960 . S
H2713 C2700 0.962 . S
H2714 C2700 0.960 . S
H2715 C2701 0.961 . S
H2716 C2701 0.961 . S
H2717 C2701 0.961 . S
H2718 C2702 0.931 . S
H2719 C2707 0.930 . S
H2720 C2708 0.956 . S
H2721 C2708 0.954 1_554 S
H2722 C2708 0.961 . S
H2723 C2709 0.958 . S
H2724 C2709 0.961 . S
H2725 C2709 0.960 . S
C2726 C2727 1.398 . S
C2726 C2728 1.398 . S
C2726 H2742 0.920 1_556 S
C2727 C2726 1.398 . S
C2727 C2731 1.376 . S
C2728 C2726 1.398 . S
C2728 C2729 1.369 . S
C2728 C2732 1.531 1_556 S
C2729 C2728 1.369 . S
C2729 C2730 1.410 . S
C2729 C2737 1.503 . S
C2730 C2729 1.410 . S
C2730 C2731 1.392 . S
C2730 C2733 1.511 . S
C2731 C2727 1.376 . S
C2731 C2730 1.392 . S
C2731 H2743 0.929 . S
C2732 C2728 1.531 1_554 S
C2732 H2744 0.960 1_554 S
C2732 H2745 0.962 . S
C2732 H2746 0.960 . S
C2733 C2730 1.511 . S
C2733 H2747 0.961 . S
C2733 H2748 0.961 . S
C2733 H2749 0.961 . S
C2734 C2735 1.370 . S
C2734 C2736 1.363 . S
C2734 H2750 0.931 . S
C2735 C2734 1.370 . S
C2735 C2739 1.408 . S
C2736 C2734 1.363 . S
C2736 C2737 1.370 . S
C2736 C2740 1.524 1_556 S
C2737 C2729 1.503 . S
C2737 C2736 1.370 . S
C2737 C2738 1.403 . S
C2738 C2737 1.403 . S
C2738 C2739 1.404 . S
C2738 C2741 1.539 . S
C2739 C2735 1.408 . S
C2739 C2738 1.404 . S
C2739 H2751 0.930 . S
C2740 C2736 1.524 1_554 S
C2740 H2752 0.956 . S
C2740 H2753 0.961 1_554 S
C2740 H2754 0.961 . S
C2741 C2738 1.539 . S
C2741 H2755 0.958 . S
C2741 H2756 0.961 . S
C2741 H2757 0.960 . S
H2742 C2726 0.920 1_554 S
H2743 C2731 0.929 . S
H2744 C2732 0.960 1_556 S
H2745 C2732 0.962 . S
H2746 C2732 0.960 . S
H2747 C2733 0.961 . S
H2748 C2733 0.961 . S
H2749 C2733 0.961 . S
H2750 C2734 0.931 . S
H2751 C2739 0.930 . S
H2752 C2740 0.956 . S
H2753 C2740 0.961 1_556 S
H2754 C2740 0.961 . S
H2755 C2741 0.958 . S
H2756 C2741 0.961 . S
H2757 C2741 0.960 . S
C2758 C2759 1.391 . S
C2758 C2760 1.394 . S
C2758 H2774 0.931 . S
C2759 C2758 1.391 . S
C2759 C2763 1.386 . S
C2760 C2758 1.394 . S
C2760 C2761 1.369 . S
C2760 C2764 1.531 . S
C2761 C2760 1.369 . S
C2761 C2762 1.410 . S
C2761 C2769 1.503 . S
C2762 C2761 1.410 . S
C2762 C2763 1.406 . S
C2762 C2765 1.511 . S
C2763 C2759 1.386 . S
C2763 C2762 1.406 . S
C2763 H2775 0.906 1_556 S
C2764 C2760 1.531 . S
C2764 H2776 0.960 . S
C2764 H2777 0.962 . S
C2764 H2778 0.960 . S
C2765 C2762 1.511 . S
C2765 H2779 0.961 1_556 S
C2765 H2780 0.961 1_556 S
C2765 H2781 0.961 . S
C2766 C2767 1.370 . S
C2766 C2768 1.363 . S
C2766 H2782 0.931 . S
C2767 C2766 1.370 . S
C2767 C2771 1.408 . S
C2768 C2766 1.363 . S
C2768 C2769 1.370 . S
C2768 C2772 1.524 1_556 S
C2769 C2761 1.503 . S
C2769 C2768 1.370 . S
C2769 C2770 1.403 . S
C2770 C2769 1.403 . S
C2770 C2771 1.404 . S
C2770 C2773 1.539 . S
C2771 C2767 1.408 . S
C2771 C2770 1.404 . S
C2771 H2783 0.930 . S
C2772 C2768 1.524 1_554 S
C2772 H2784 0.956 . S
C2772 H2785 0.961 . S
C2772 H2786 0.961 . S
C2773 C2770 1.539 . S
C2773 H2787 0.958 . S
C2773 H2788 0.961 . S
C2773 H2789 0.960 . S
H2774 C2758 0.931 . S
H2775 C2763 0.906 1_554 S
H2776 C2764 0.960 . S
H2777 C2764 0.962 . S
H2778 C2764 0.960 . S
H2779 C2765 0.961 1_554 S
H2780 C2765 0.961 1_554 S
H2781 C2765 0.961 . S
H2782 C2766 0.931 . S
H2783 C2771 0.930 . S
H2784 C2772 0.956 . S
H2785 C2772 0.961 . S
H2786 C2772 0.961 . S
H2787 C2773 0.958 . S
H2788 C2773 0.961 . S
H2789 C2773 0.960 . S
C2790 C2791 1.391 . S
C2790 C2792 1.394 . S
C2790 H2806 0.931 . S
C2791 C2790 1.391 . S
C2791 C2795 1.376 . S
C2792 C2790 1.394 . S
C2792 C2793 1.369 . S
C2792 C2796 1.531 . S
C2793 C2792 1.369 . S
C2793 C2794 1.410 . S
C2793 C2801 1.503 . S
C2794 C2793 1.410 . S
C2794 C2795 1.392 . S
C2794 C2797 1.511 . S
C2795 C2791 1.376 . S
C2795 C2794 1.392 . S
C2795 H2807 0.929 . S
C2796 C2792 1.531 . S
C2796 H2808 0.960 . S
C2796 H2809 0.962 . S
C2796 H2810 0.960 . S
C2797 C2794 1.511 . S
C2797 H2811 0.961 . S
C2797 H2812 0.961 . S
C2797 H2813 0.961 . S
C2798 C2799 1.370 . S
C2798 C2800 1.363 . S
C2798 H2814 0.931 . S
C2799 C2798 1.370 . S
C2799 C2803 1.408 . S
C2800 C2798 1.363 . S
C2800 C2801 1.370 . S
C2800 C2804 1.524 . S
C2801 C2793 1.503 . S
C2801 C2800 1.370 . S
C2801 C2802 1.403 . S
C2802 C2801 1.403 . S
C2802 C2803 1.404 . S
C2802 C2805 1.539 . S
C2803 C2799 1.408 . S
C2803 C2802 1.404 . S
C2803 H2815 0.930 . S
C2804 C2800 1.524 . S
C2804 H2816 0.956 . S
C2804 H2817 0.961 . S
C2804 H2818 0.961 . S
C2805 C2802 1.539 . S
C2805 H2819 0.958 . S
C2805 H2820 0.961 . S
C2805 H2821 0.960 . S
H2806 C2790 0.931 . S
H2807 C2795 0.929 . S
H2808 C2796 0.960 . S
H2809 C2796 0.962 . S
H2810 C2796 0.960 . S
H2811 C2797 0.961 . S
H2812 C2797 0.961 . S
H2813 C2797 0.961 . S
H2814 C2798 0.931 . S
H2815 C2803 0.930 . S
H2816 C2804 0.956 . S
H2817 C2804 0.961 . S
H2818 C2804 0.961 . S
H2819 C2805 0.958 . S
H2820 C2805 0.961 . S
H2821 C2805 0.960 . S
C2822 C2823 1.391 . S
C2822 C2824 1.394 . S
C2822 H2838 0.931 . S
C2823 C2822 1.391 . S
C2823 C2827 1.376 . S
C2824 C2822 1.394 . S
C2824 C2825 1.369 . S
C2824 C2828 1.531 . S
C2825 C2824 1.369 . S
C2825 C2826 1.410 . S
C2825 C2833 1.503 . S
C2826 C2825 1.410 . S
C2826 C2827 1.392 . S
C2826 C2829 1.511 . S
C2827 C2823 1.376 . S
C2827 C2826 1.392 . S
C2827 H2839 0.929 . S
C2828 C2824 1.531 . S
C2828 H2840 0.960 . S
C2828 H2841 0.962 . S
C2828 H2842 0.960 . S
C2829 C2826 1.511 . S
C2829 H2843 0.961 . S
C2829 H2844 0.961 . S
C2829 H2845 0.961 . S
C2830 C2831 1.370 . S
C2830 C2832 1.363 . S
C2830 H2846 0.931 . S
C2831 C2830 1.370 . S
C2831 C2835 1.408 . S
C2832 C2830 1.363 . S
C2832 C2833 1.370 . S
C2832 C2836 1.524 . S
C2833 C2825 1.503 . S
C2833 C2832 1.370 . S
C2833 C2834 1.403 . S
C2834 C2833 1.403 . S
C2834 C2835 1.404 . S
C2834 C2837 1.539 . S
C2835 C2831 1.408 . S
C2835 C2834 1.404 . S
C2835 H2847 0.930 . S
C2836 C2832 1.524 . S
C2836 H2848 0.956 . S
C2836 H2849 0.961 . S
C2836 H2850 0.980 . S
C2837 C2834 1.539 . S
C2837 H2851 0.958 . S
C2837 H2852 0.961 . S
C2837 H2853 0.960 . S
H2838 C2822 0.931 . S
H2839 C2827 0.929 . S
H2840 C2828 0.960 . S
H2841 C2828 0.962 . S
H2842 C2828 0.960 . S
H2843 C2829 0.961 . S
H2844 C2829 0.961 . S
H2845 C2829 0.961 . S
H2846 C2830 0.931 . S
H2847 C2835 0.930 . S
H2848 C2836 0.956 . S
H2849 C2836 0.961 . S
H2850 C2836 0.980 . S
H2851 C2837 0.958 . S
H2852 C2837 0.961 . S
H2853 C2837 0.960 . S
C2854 C2855 1.391 . S
C2854 C2856 1.394 . S
C2854 H2870 0.931 . S
C2855 C2854 1.391 . S
C2855 C2859 1.376 . S
C2856 C2854 1.394 . S
C2856 C2857 1.369 . S
C2856 C2860 1.531 . S
C2857 C2856 1.369 . S
C2857 C2858 1.410 . S
C2857 C2865 1.503 . S
C2858 C2857 1.410 . S
C2858 C2859 1.392 . S
C2858 C2861 1.511 . S
C2859 C2855 1.376 . S
C2859 C2858 1.392 . S
C2859 H2871 0.929 . S
C2860 C2856 1.531 . S
C2860 H2872 0.960 . S
C2860 H2873 0.962 . S
C2860 H2874 0.960 1_554 S
C2861 C2858 1.511 . S
C2861 H2875 0.961 . S
C2861 H2876 0.961 . S
C2861 H2877 0.961 . S
C2862 C2863 1.370 . S
C2862 C2864 1.363 . S
C2862 H2878 0.931 . S
C2863 C2862 1.370 . S
C2863 C2867 1.408 . S
C2864 C2862 1.363 . S
C2864 C2865 1.370 . S
C2864 C2868 1.524 . S
C2865 C2857 1.503 . S
C2865 C2864 1.370 . S
C2865 C2866 1.403 . S
C2866 C2865 1.403 . S
C2866 C2867 1.404 . S
C2866 C2869 1.539 . S
C2867 C2863 1.408 . S
C2867 C2866 1.404 . S
C2867 H2879 0.930 . S
C2868 C2864 1.524 . S
C2868 H2880 0.956 . S
C2868 H2881 0.961 . S
C2868 H2882 0.961 . S
C2869 C2866 1.539 . S
C2869 H2883 0.989 . S
C2869 H2884 0.961 . S
C2869 H2885 0.960 . S
H2870 C2854 0.931 . S
H2871 C2859 0.929 . S
H2872 C2860 0.960 . S
H2873 C2860 0.962 . S
H2874 C2860 0.960 1_556 S
H2875 C2861 0.961 . S
H2876 C2861 0.961 . S
H2877 C2861 0.961 . S
H2878 C2862 0.931 . S
H2879 C2867 0.930 . S
H2880 C2868 0.956 . S
H2881 C2868 0.961 . S
H2882 C2868 0.961 . S
H2883 C2869 0.989 . S
H2884 C2869 0.961 . S
H2885 C2869 0.960 . S
C2886 C2887 1.391 . S
C2886 C2888 1.394 . S
C2886 H2902 0.931 . S
C2887 C2886 1.391 . S
C2887 C2891 1.376 . S
C2888 C2886 1.394 . S
C2888 C2889 1.369 . S
C2888 C2892 1.531 . S
C2889 C2888 1.369 . S
C2889 C2890 1.410 . S
C2889 C2897 1.503 . S
C2890 C2889 1.410 . S
C2890 C2891 1.392 . S
C2890 C2893 1.511 . S
C2891 C2887 1.376 . S
C2891 C2890 1.392 . S
C2891 H2903 0.929 . S
C2892 C2888 1.531 . S
C2892 H2904 0.960 . S
C2892 H2905 0.962 . S
C2892 H2906 0.960 . S
C2893 C2890 1.511 . S
C2893 H2907 0.961 . S
C2893 H2908 0.961 . S
C2893 H2909 0.961 . S
C2894 C2895 1.370 . S
C2894 C2896 1.363 . S
C2894 H2910 0.931 . S
C2895 C2894 1.370 . S
C2895 C2899 1.408 . S
C2896 C2894 1.363 . S
C2896 C2897 1.370 . S
C2896 C2900 1.524 . S
C2897 C2889 1.503 . S
C2897 C2896 1.370 . S
C2897 C2898 1.403 . S
C2898 C2897 1.403 . S
C2898 C2899 1.404 . S
C2898 C2901 1.539 . S
C2899 C2895 1.408 . S
C2899 C2898 1.404 . S
C2899 H2911 0.930 . S
C2900 C2896 1.524 . S
C2900 H2912 0.956 . S
C2900 H2913 0.961 . S
C2900 H2914 0.961 . S
C2901 C2898 1.539 . S
C2901 H2915 0.958 . S
C2901 H2916 0.961 . S
C2901 H2917 0.960 . S
H2902 C2886 0.931 . S
H2903 C2891 0.929 . S
H2904 C2892 0.960 . S
H2905 C2892 0.962 . S
H2906 C2892 0.960 . S
H2907 C2893 0.961 . S
H2908 C2893 0.961 . S
H2909 C2893 0.961 . S
H2910 C2894 0.931 . S
H2911 C2899 0.930 . S
H2912 C2900 0.956 . S
H2913 C2900 0.961 . S
H2914 C2900 0.961 . S
H2915 C2901 0.958 . S
H2916 C2901 0.961 . S
H2917 C2901 0.960 . S
C2918 C2919 1.391 . S
C2918 C2920 1.394 . S
C2918 H2934 0.931 . S
C2919 C2918 1.391 . S
C2919 C2923 1.376 . S
C2920 C2918 1.394 . S
C2920 C2921 1.369 . S
C2920 C2924 1.531 . S
C2921 C2920 1.369 . S
C2921 C2922 1.410 . S
C2921 C2929 1.503 . S
C2922 C2921 1.410 . S
C2922 C2923 1.392 . S
C2922 C2925 1.511 . S
C2923 C2919 1.376 . S
C2923 C2922 1.392 . S
C2923 H2935 0.929 . S
C2924 C2920 1.531 . S
C2924 H2936 0.960 . S
C2924 H2937 0.962 . S
C2924 H2938 0.960 . S
C2925 C2922 1.511 . S
C2925 H2939 0.961 . S
C2925 H2940 0.961 . S
C2925 H2941 0.961 . S
C2926 C2927 1.370 . S
C2926 C2928 1.363 . S
C2926 H2942 0.931 . S
C2927 C2926 1.370 . S
C2927 C2931 1.408 . S
C2928 C2926 1.363 . S
C2928 C2929 1.370 . S
C2928 C2932 1.524 . S
C2929 C2921 1.503 . S
C2929 C2928 1.370 . S
C2929 C2930 1.403 . S
C2930 C2929 1.403 . S
C2930 C2931 1.404 . S
C2930 C2933 1.539 . S
C2931 C2927 1.408 . S
C2931 C2930 1.404 . S
C2931 H2943 0.930 . S
C2932 C2928 1.524 . S
C2932 H2944 0.956 . S
C2932 H2945 0.961 . S
C2932 H2946 0.961 . S
C2933 C2930 1.539 . S
C2933 H2947 0.958 . S
C2933 H2948 0.961 . S
C2933 H2949 0.960 . S
H2934 C2918 0.931 . S
H2935 C2923 0.929 . S
H2936 C2924 0.960 . S
H2937 C2924 0.962 . S
H2938 C2924 0.960 . S
H2939 C2925 0.961 . S
H2940 C2925 0.961 . S
H2941 C2925 0.961 . S
H2942 C2926 0.931 . S
H2943 C2931 0.930 . S
H2944 C2932 0.956 . S
H2945 C2932 0.961 . S
H2946 C2932 0.961 . S
H2947 C2933 0.958 . S
H2948 C2933 0.961 . S
H2949 C2933 0.960 . S
C2950 C2951 1.391 . S
C2950 C2952 1.394 . S
C2950 H2966 0.931 . S
C2951 C2950 1.391 . S
C2951 C2955 1.376 . S
C2952 C2950 1.394 . S
C2952 C2953 1.369 . S
C2952 C2956 1.531 . S
C2953 C2952 1.369 . S
C2953 C2954 1.410 . S
C2953 C2961 1.503 . S
C2954 C2953 1.410 . S
C2954 C2955 1.392 . S
C2954 C2957 1.511 . S
C2955 C2951 1.376 . S
C2955 C2954 1.392 . S
C2955 H2967 0.929 . S
C2956 C2952 1.531 . S
C2956 H2968 0.960 . S
C2956 H2969 0.962 . S
C2956 H2970 0.960 . S
C2957 C2954 1.511 . S
C2957 H2971 0.961 . S
C2957 H2972 0.961 . S
C2957 H2973 0.961 . S
C2958 C2959 1.370 . S
C2958 C2960 1.363 . S
C2958 H2974 0.931 . S
C2959 C2958 1.370 . S
C2959 C2963 1.408 . S
C2960 C2958 1.363 . S
C2960 C2961 1.370 . S
C2960 C2964 1.524 . S
C2961 C2953 1.503 . S
C2961 C2960 1.370 . S
C2961 C2962 1.403 . S
C2962 C2961 1.403 . S
C2962 C2963 1.404 . S
C2962 C2965 1.539 . S
C2963 C2959 1.408 . S
C2963 C2962 1.404 . S
C2963 H2975 0.930 . S
C2964 C2960 1.524 . S
C2964 H2976 0.956 . S
C2964 H2977 0.961 . S
C2964 H2978 0.961 . S
C2965 C2962 1.539 . S
C2965 H2979 0.958 . S
C2965 H2980 0.961 . S
C2965 H2981 0.960 . S
H2966 C2950 0.931 . S
H2967 C2955 0.929 . S
H2968 C2956 0.960 . S
H2969 C2956 0.962 . S
H2970 C2956 0.960 . S
H2971 C2957 0.961 . S
H2972 C2957 0.961 . S
H2973 C2957 0.961 . S
H2974 C2958 0.931 . S
H2975 C2963 0.930 . S
H2976 C2964 0.956 . S
H2977 C2964 0.961 . S
H2978 C2964 0.961 . S
H2979 C2965 0.958 . S
H2980 C2965 0.961 . S
H2981 C2965 0.960 . S
C2982 C2983 1.391 . S
C2982 C2984 1.394 . S
C2982 H2998 0.931 . S
C2983 C2982 1.391 . S
C2983 C2987 1.376 . S
C2984 C2982 1.394 . S
C2984 C2985 1.369 . S
C2984 C2988 1.531 . S
C2985 C2984 1.369 . S
C2985 C2986 1.410 . S
C2985 C2993 1.503 . S
C2986 C2985 1.410 . S
C2986 C2987 1.392 . S
C2986 C2989 1.511 . S
C2987 C2983 1.376 . S
C2987 C2986 1.392 . S
C2987 H2999 0.929 . S
C2988 C2984 1.531 . S
C2988 H3000 0.960 . S
C2988 H3001 0.962 . S
C2988 H3002 0.960 . S
C2989 C2986 1.511 . S
C2989 H3003 0.961 . S
C2989 H3004 0.961 . S
C2989 H3005 0.961 . S
C2990 C2991 1.360 1_655 S
C2990 C2992 1.325 1_655 S
C2990 H3006 0.982 . S
C2991 C2990 1.360 1_455 S
C2991 C2995 1.408 . S
C2992 C2990 1.325 1_455 S
C2992 C2993 1.370 . S
C2992 C2996 1.524 1_455 S
C2993 C2985 1.503 . S
C2993 C2992 1.370 . S
C2993 C2994 1.403 . S
C2994 C2993 1.403 . S
C2994 C2995 1.404 . S
C2994 C2997 1.539 . S
C2995 C2991 1.408 . S
C2995 C2994 1.404 . S
C2995 H3007 0.930 . S
C2996 C2992 1.524 1_655 S
C2996 H3008 0.956 . S
C2996 H3009 0.961 . S
C2996 H3010 0.961 . S
C2997 C2994 1.539 . S
C2997 H3011 0.958 . S
C2997 H3012 0.961 . S
C2997 H3013 0.960 . S
H2998 C2982 0.931 . S
H2999 C2987 0.929 . S
H3000 C2988 0.960 . S
H3001 C2988 0.962 . S
H3002 C2988 0.960 . S
H3003 C2989 0.961 . S
H3004 C2989 0.961 . S
H3005 C2989 0.961 . S
H3006 C2990 0.982 . S
H3007 C2995 0.930 . S
H3008 C2996 0.956 . S
H3009 C2996 0.961 . S
H3010 C2996 0.961 . S
H3011 C2997 0.958 . S
H3012 C2997 0.961 . S
H3013 C2997 0.960 . S
C3014 C3015 1.391 . S
C3014 C3016 1.394 . S
C3014 H3030 0.931 . S
C3015 C3014 1.391 . S
C3015 C3019 1.376 . S
C3016 C3014 1.394 . S
C3016 C3017 1.369 . S
C3016 C3020 1.531 . S
C3017 C3016 1.369 . S
C3017 C3018 1.410 . S
C3017 C3025 1.503 . S
C3018 C3017 1.410 . S
C3018 C3019 1.392 . S
C3018 C3021 1.511 . S
C3019 C3015 1.376 . S
C3019 C3018 1.392 . S
C3019 H3031 0.929 . S
C3020 C3016 1.531 . S
C3020 H3032 0.960 . S
C3020 H3033 0.962 . S
C3020 H3034 0.960 . S
C3021 C3018 1.511 . S
C3021 H3035 0.961 . S
C3021 H3036 0.961 . S
C3021 H3037 0.961 . S
C3022 C3023 1.370 . S
C3022 C3024 1.363 . S
C3022 H3038 0.931 . S
C3023 C3022 1.370 . S
C3023 C3027 1.408 . S
C3024 C3022 1.363 . S
C3024 C3025 1.370 . S
C3024 C3028 1.524 . S
C3025 C3017 1.503 . S
C3025 C3024 1.370 . S
C3025 C3026 1.403 . S
C3026 C3025 1.403 . S
C3026 C3027 1.404 . S
C3026 C3029 1.539 . S
C3027 C3023 1.408 . S
C3027 C3026 1.404 . S
C3027 H3039 0.930 . S
C3028 C3024 1.524 . S
C3028 H3040 0.956 . S
C3028 H3041 0.961 . S
C3028 H3042 0.961 . S
C3029 C3026 1.539 . S
C3029 H3043 0.958 . S
C3029 H3044 0.961 . S
C3029 H3045 0.960 . S
H3030 C3014 0.931 . S
H3031 C3019 0.929 . S
H3032 C3020 0.960 . S
H3033 C3020 0.962 . S
H3034 C3020 0.960 . S
H3035 C3021 0.961 . S
H3036 C3021 0.961 . S
H3037 C3021 0.961 . S
H3038 C3022 0.931 . S
H3039 C3027 0.930 . S
H3040 C3028 0.956 . S
H3041 C3028 0.961 . S
H3042 C3028 0.961 . S
H3043 C3029 0.958 . S
H3044 C3029 0.961 . S
H3045 C3029 0.960 . S
C3046 C3047 1.391 . S
C3046 C3048 1.394 . S
C3046 H3062 0.931 . S
C3047 C3046 1.391 . S
C3047 C3051 1.376 . S
C3048 C3046 1.394 . S
C3048 C3049 1.369 . S
C3048 C3052 1.531 . S
C3049 C3048 1.369 . S
C3049 C3050 1.410 . S
C3049 C3057 1.503 . S
C3050 C3049 1.410 . S
C3050 C3051 1.392 . S
C3050 C3053 1.511 . S
C3051 C3047 1.376 . S
C3051 C3050 1.392 . S
C3051 H3063 0.929 . S
C3052 C3048 1.531 . S
C3052 H3064 0.960 . S
C3052 H3065 0.962 . S
C3052 H3066 0.960 . S
C3053 C3050 1.511 . S
C3053 H3067 0.961 . S
C3053 H3068 0.961 . S
C3053 H3069 0.961 . S
C3054 C3055 1.370 1_545 S
C3054 C3056 1.374 1_545 S
C3054 H3070 0.931 . S
C3055 C3054 1.370 1_565 S
C3055 C3059 1.408 . S
C3056 C3054 1.374 1_565 S
C3056 C3057 1.392 . S
C3056 C3060 1.492 1_565 S
C3057 C3049 1.503 . S
C3057 C3056 1.392 . S
C3057 C3058 1.403 . S
C3058 C3057 1.403 . S
C3058 C3059 1.404 . S
C3058 C3061 1.539 . S
C3059 C3055 1.408 . S
C3059 C3058 1.404 . S
C3059 H3071 0.930 . S
C3060 C3056 1.492 1_545 S
C3060 H3072 0.956 . S
C3060 H3073 0.961 . S
C3060 H3074 0.961 . S
C3061 C3058 1.539 . S
C3061 H3075 0.958 . S
C3061 H3076 0.961 . S
C3061 H3077 0.960 . S
H3062 C3046 0.931 . S
H3063 C3051 0.929 . S
H3064 C3052 0.960 . S
H3065 C3052 0.962 . S
H3066 C3052 0.960 . S
H3067 C3053 0.961 . S
H3068 C3053 0.961 . S
H3069 C3053 0.961 . S
H3070 C3054 0.931 . S
H3071 C3059 0.930 . S
H3072 C3060 0.956 . S
H3073 C3060 0.961 . S
H3074 C3060 0.961 . S
H3075 C3061 0.958 . S
H3076 C3061 0.961 . S
H3077 C3061 0.960 . S
C3078 C3079 1.391 . S
C3078 C3080 1.394 . S
C3078 H3094 0.931 . S
C3079 C3078 1.391 . S
C3079 C3083 1.376 . S
C3080 C3078 1.394 . S
C3080 C3081 1.369 . S
C3080 C3084 1.531 . S
C3081 C3080 1.369 . S
C3081 C3082 1.410 . S
C3081 C3089 1.503 . S
C3082 C3081 1.410 . S
C3082 C3083 1.392 . S
C3082 C3085 1.511 . S
C3083 C3079 1.376 . S
C3083 C3082 1.392 . S
C3083 H3095 0.929 . S
C3084 C3080 1.531 . S
C3084 H3096 0.960 . S
C3084 H3097 0.962 . S
C3084 H3098 0.960 . S
C3085 C3082 1.511 . S
C3085 H3099 0.961 . S
C3085 H3100 0.961 . S
C3085 H3101 0.961 . S
C3086 C3087 1.370 . S
C3086 C3088 1.363 . S
C3086 H3102 0.931 . S
C3087 C3086 1.370 . S
C3087 C3091 1.408 1_565 S
C3088 C3086 1.363 . S
C3088 C3089 1.370 . S
C3088 C3092 1.524 . S
C3089 C3081 1.503 . S
C3089 C3088 1.370 . S
C3089 C3090 1.403 1_565 S
C3090 C3089 1.403 1_545 S
C3090 C3091 1.404 . S
C3090 C3093 1.539 . S
C3091 C3087 1.408 1_545 S
C3091 C3090 1.404 . S
C3091 H3103 0.930 . S
C3092 C3088 1.524 . S
C3092 H3104 0.956 . S
C3092 H3105 0.961 . S
C3092 H3106 0.961 . S
C3093 C3090 1.539 . S
C3093 H3107 0.958 . S
C3093 H3108 0.961 . S
C3093 H3109 0.960 . S
H3094 C3078 0.931 . S
H3095 C3083 0.929 . S
H3096 C3084 0.960 . S
H3097 C3084 0.962 . S
H3098 C3084 0.960 . S
H3099 C3085 0.961 . S
H3100 C3085 0.961 . S
H3101 C3085 0.961 . S
H3102 C3086 0.931 . S
H3103 C3091 0.930 . S
H3104 C3092 0.956 . S
H3105 C3092 0.961 . S
H3106 C3092 0.961 . S
H3107 C3093 0.958 . S
H3108 C3093 0.961 . S
H3109 C3093 0.960 . S
C3110 C3111 1.391 . S
C3110 C3112 1.394 . S
C3110 H3126 0.931 . S
C3111 C3110 1.391 . S
C3111 C3115 1.376 . S
C3112 C3110 1.394 . S
C3112 C3113 1.369 . S
C3112 C3116 1.531 . S
C3113 C3112 1.369 . S
C3113 C3114 1.410 . S
C3113 C3121 1.503 . S
C3114 C3113 1.410 . S
C3114 C3115 1.392 . S
C3114 C3117 1.511 1_455 S
C3115 C3111 1.376 . S
C3115 C3114 1.392 . S
C3115 H3127 0.858 1_455 S
C3116 C3112 1.531 . S
C3116 H3128 0.960 . S
C3116 H3129 0.962 . S
C3116 H3130 0.960 . S
C3117 C3114 1.511 1_655 S
C3117 H3131 0.961 . S
C3117 H3132 0.961 . S
C3117 H3133 0.961 . S
C3118 C3119 1.370 . S
C3118 C3120 1.363 . S
C3118 H3134 0.931 . S
C3119 C3118 1.370 . S
C3119 C3123 1.407 1_455 S
C3120 C3118 1.363 . S
C3120 C3121 1.370 . S
C3120 C3124 1.524 . S
C3121 C3113 1.503 . S
C3121 C3120 1.370 . S
C3121 C3122 1.403 . S
C3122 C3121 1.403 . S
C3122 C3123 1.405 1_455 S
C3122 C3125 1.539 1_455 S
C3123 C3119 1.407 1_655 S
C3123 C3122 1.405 1_655 S
C3123 H3135 0.930 . S
C3124 C3120 1.524 . S
C3124 H3136 0.956 . S
C3124 H3137 0.961 . S
C3124 H3138 0.961 . S
C3125 C3122 1.539 1_655 S
C3125 H3139 0.958 1_655 S
C3125 H3140 0.961 . S
C3125 H3141 0.960 . S
H3126 C3110 0.931 . S
H3127 C3115 0.858 1_655 S
H3128 C3116 0.960 . S
H3129 C3116 0.962 . S
H3130 C3116 0.960 . S
H3131 C3117 0.961 . S
H3132 C3117 0.961 . S
H3133 C3117 0.961 . S
H3134 C3118 0.931 . S
H3135 C3123 0.930 . S
H3136 C3124 0.956 . S
H3137 C3124 0.961 . S
H3138 C3124 0.961 . S
H3139 C3125 0.958 1_455 S
H3140 C3125 0.961 . S
H3141 C3125 0.960 . S
C3142 C3143 1.391 . S
C3142 C3144 1.394 . S
C3142 H3158 0.931 . S
C3143 C3142 1.391 . S
C3143 C3147 1.376 . S
C3144 C3142 1.394 . S
C3144 C3145 1.369 . S
C3144 C3148 1.531 . S
C3145 C3144 1.369 . S
C3145 C3146 1.410 . S
C3145 C3153 1.503 . S
C3146 C3145 1.410 . S
C3146 C3147 1.392 . S
C3146 C3149 1.511 . S
C3147 C3143 1.376 . S
C3147 C3146 1.392 . S
C3147 H3159 0.929 . S
C3148 C3144 1.531 . S
C3148 H3160 0.960 . S
C3148 H3161 0.962 . S
C3148 H3162 0.960 . S
C3149 C3146 1.511 . S
C3149 H3163 0.961 . S
C3149 H3164 0.961 . S
C3149 H3165 0.961 . S
C3150 C3151 1.370 . S
C3150 C3152 1.363 . S
C3150 H3166 0.931 . S
C3151 C3150 1.370 . S
C3151 C3155 1.408 . S
C3152 C3150 1.363 . S
C3152 C3153 1.370 . S
C3152 C3156 1.524 . S
C3153 C3145 1.503 . S
C3153 C3152 1.370 . S
C3153 C3154 1.403 . S
C3154 C3153 1.403 . S
C3154 C3155 1.404 . S
C3154 C3157 1.539 . S
C3155 C3151 1.408 . S
C3155 C3154 1.404 . S
C3155 H3167 0.930 . S
C3156 C3152 1.524 . S
C3156 H3168 0.956 . S
C3156 H3169 0.961 . S
C3156 H3170 0.961 . S
C3157 C3154 1.539 . S
C3157 H3171 0.958 . S
C3157 H3172 0.961 . S
C3157 H3173 0.960 . S
H3158 C3142 0.931 . S
H3159 C3147 0.929 . S
H3160 C3148 0.960 . S
H3161 C3148 0.962 . S
H3162 C3148 0.960 . S
H3163 C3149 0.961 . S
H3164 C3149 0.961 . S
H3165 C3149 0.961 . S
H3166 C3150 0.931 . S
H3167 C3155 0.930 . S
H3168 C3156 0.956 . S
H3169 C3156 0.961 . S
H3170 C3156 0.961 . S
H3171 C3157 0.958 . S
H3172 C3157 0.961 . S
H3173 C3157 0.960 . S
C3174 C3175 1.391 . S
C3174 C3176 1.394 . S
C3174 H3190 0.931 . S
C3175 C3174 1.391 . S
C3175 C3179 1.376 . S
C3176 C3174 1.394 . S
C3176 C3177 1.369 . S
C3176 C3180 1.531 . S
C3177 C3176 1.369 . S
C3177 C3178 1.410 . S
C3177 C3185 1.503 . S
C3178 C3177 1.410 . S
C3178 C3179 1.392 . S
C3178 C3181 1.511 . S
C3179 C3175 1.376 . S
C3179 C3178 1.392 . S
C3179 H3191 0.929 . S
C3180 C3176 1.531 . S
C3180 H3192 0.960 . S
C3180 H3193 0.962 . S
C3180 H3194 0.960 . S
C3181 C3178 1.511 . S
C3181 H3195 0.961 . S
C3181 H3196 0.961 . S
C3181 H3197 0.961 . S
C3182 C3183 1.370 . S
C3182 C3184 1.363 . S
C3182 H3198 0.931 . S
C3183 C3182 1.370 . S
C3183 C3187 1.408 . S
C3184 C3182 1.363 . S
C3184 C3185 1.370 . S
C3184 C3188 1.524 . S
C3185 C3177 1.503 . S
C3185 C3184 1.370 . S
C3185 C3186 1.403 . S
C3186 C3185 1.403 . S
C3186 C3187 1.404 . S
C3186 C3189 1.539 . S
C3187 C3183 1.408 . S
C3187 C3186 1.404 . S
C3187 H3199 0.930 . S
C3188 C3184 1.524 . S
C3188 H3200 0.956 . S
C3188 H3201 0.961 . S
C3188 H3202 0.961 . S
C3189 C3186 1.539 . S
C3189 H3203 0.958 . S
C3189 H3204 0.961 . S
C3189 H3205 0.960 . S
H3190 C3174 0.931 . S
H3191 C3179 0.929 . S
H3192 C3180 0.960 . S
H3193 C3180 0.962 . S
H3194 C3180 0.960 . S
H3195 C3181 0.961 . S
H3196 C3181 0.961 . S
H3197 C3181 0.961 . S
H3198 C3182 0.931 . S
H3199 C3187 0.930 . S
H3200 C3188 0.956 . S
H3201 C3188 0.961 . S
H3202 C3188 0.961 . S
H3203 C3189 0.958 . S
H3204 C3189 0.961 . S
H3205 C3189 0.960 . S
C3206 C3207 1.391 . S
C3206 C3208 1.394 . S
C3206 H3222 0.931 . S
C3207 C3206 1.391 . S
C3207 C3211 1.376 . S
C3208 C3206 1.394 . S
C3208 C3209 1.369 . S
C3208 C3212 1.531 . S
C3209 C3208 1.369 . S
C3209 C3210 1.410 . S
C3209 C3217 1.503 . S
C3210 C3209 1.410 . S
C3210 C3211 1.392 . S
C3210 C3213 1.511 . S
C3211 C3207 1.376 . S
C3211 C3210 1.392 . S
C3211 H3223 0.929 . S
C3212 C3208 1.531 . S
C3212 H3224 0.960 . S
C3212 H3225 0.962 . S
C3212 H3226 0.960 . S
C3213 C3210 1.511 . S
C3213 H3227 0.961 . S
C3213 H3228 0.961 . S
C3213 H3229 0.961 . S
C3214 C3215 1.370 . S
C3214 C3216 1.363 . S
C3214 H3230 0.931 . S
C3215 C3214 1.370 . S
C3215 C3219 1.408 . S
C3216 C3214 1.363 . S
C3216 C3217 1.370 . S
C3216 C3220 1.524 . S
C3217 C3209 1.503 . S
C3217 C3216 1.370 . S
C3217 C3218 1.403 . S
C3218 C3217 1.403 . S
C3218 C3219 1.404 . S
C3218 C3221 1.539 . S
C3219 C3215 1.408 . S
C3219 C3218 1.404 . S
C3219 H3231 0.930 . S
C3220 C3216 1.524 . S
C3220 H3232 0.956 . S
C3220 H3233 0.961 . S
C3220 H3234 0.961 . S
C3221 C3218 1.539 . S
C3221 H3235 0.958 . S
C3221 H3236 0.961 . S
C3221 H3237 0.960 . S
H3222 C3206 0.931 . S
H3223 C3211 0.929 . S
H3224 C3212 0.960 . S
H3225 C3212 0.962 . S
H3226 C3212 0.960 . S
H3227 C3213 0.961 . S
H3228 C3213 0.961 . S
H3229 C3213 0.961 . S
H3230 C3214 0.931 . S
H3231 C3219 0.930 . S
H3232 C3220 0.956 . S
H3233 C3220 0.961 . S
H3234 C3220 0.961 . S
H3235 C3221 0.958 . S
H3236 C3221 0.961 . S
H3237 C3221 0.960 . S
C3238 C3239 1.391 . S
C3238 C3240 1.394 . S
C3238 H3254 0.931 . S
C3239 C3238 1.391 . S
C3239 C3243 1.376 . S
C3240 C3238 1.394 . S
C3240 C3241 1.369 . S
C3240 C3244 1.531 . S
C3241 C3240 1.369 . S
C3241 C3242 1.410 . S
C3241 C3249 1.503 . S
C3242 C3241 1.410 . S
C3242 C3243 1.392 . S
C3242 C3245 1.511 . S
C3243 C3239 1.376 . S
C3243 C3242 1.392 . S
C3243 H3255 0.929 . S
C3244 C3240 1.531 . S
C3244 H3256 0.960 . S
C3244 H3257 0.962 . S
C3244 H3258 0.960 . S
C3245 C3242 1.511 . S
C3245 H3259 0.961 . S
C3245 H3260 0.961 . S
C3245 H3261 0.961 . S
C3246 C3247 1.370 . S
C3246 C3248 1.363 . S
C3246 H3262 0.931 . S
C3247 C3246 1.370 . S
C3247 C3251 1.408 . S
C3248 C3246 1.363 . S
C3248 C3249 1.370 . S
C3248 C3252 1.524 . S
C3249 C3241 1.503 . S
C3249 C3248 1.370 . S
C3249 C3250 1.403 . S
C3250 C3249 1.403 . S
C3250 C3251 1.404 . S
C3250 C3253 1.539 . S
C3251 C3247 1.408 . S
C3251 C3250 1.404 . S
C3251 H3263 0.930 . S
C3252 C3248 1.524 . S
C3252 H3264 0.956 . S
C3252 H3265 0.961 . S
C3252 H3266 0.961 . S
C3253 C3250 1.539 . S
C3253 H3267 0.958 . S
C3253 H3268 0.961 . S
C3253 H3269 0.960 . S
H3254 C3238 0.931 . S
H3255 C3243 0.929 . S
H3256 C3244 0.960 . S
H3257 C3244 0.962 . S
H3258 C3244 0.960 . S
H3259 C3245 0.961 . S
H3260 C3245 0.961 . S
H3261 C3245 0.961 . S
H3262 C3246 0.931 . S
H3263 C3251 0.930 . S
H3264 C3252 0.956 . S
H3265 C3252 0.961 . S
H3266 C3252 0.961 . S
H3267 C3253 0.958 . S
H3268 C3253 0.961 . S
H3269 C3253 0.960 . S
C3270 C3271 1.391 . S
C3270 C3272 1.394 . S
C3270 H3286 0.931 . S
C3271 C3270 1.391 . S
C3271 C3275 1.376 . S
C3272 C3270 1.394 . S
C3272 C3273 1.369 . S
C3272 C3276 1.531 . S
C3273 C3272 1.369 . S
C3273 C3274 1.410 . S
C3273 C3281 1.503 . S
C3274 C3273 1.410 . S
C3274 C3275 1.392 . S
C3274 C3277 1.511 . S
C3275 C3271 1.376 . S
C3275 C3274 1.392 . S
C3275 H3287 0.929 . S
C3276 C3272 1.531 . S
C3276 H3288 0.960 . S
C3276 H3289 0.962 . S
C3276 H3290 0.960 . S
C3277 C3274 1.511 . S
C3277 H3291 0.961 1_545 S
C3277 H3292 0.961 1_545 S
C3277 H3293 0.961 . S
C3278 C3279 1.382 . S
C3278 C3280 1.416 . S
C3278 H3294 0.868 1_545 S
C3279 C3278 1.382 . S
C3279 C3283 1.408 . S
C3280 C3278 1.416 . S
C3280 C3281 1.370 . S
C3280 C3284 1.524 1_545 S
C3281 C3273 1.503 . S
C3281 C3280 1.370 . S
C3281 C3282 1.403 . S
C3282 C3281 1.403 . S
C3282 C3283 1.404 . S
C3282 C3285 1.539 . S
C3283 C3279 1.408 . S
C3283 C3282 1.404 . S
C3283 H3295 0.930 . S
C3284 C3280 1.524 1_565 S
C3284 H3296 0.956 1_565 S
C3284 H3297 0.961 . S
C3284 H3298 0.961 . S
C3285 C3282 1.539 . S
C3285 H3299 0.958 . S
C3285 H3300 0.961 . S
C3285 H3301 0.960 . S
H3286 C3270 0.931 . S
H3287 C3275 0.929 . S
H3288 C3276 0.960 . S
H3289 C3276 0.962 . S
H3290 C3276 0.960 . S
H3291 C3277 0.961 1_565 S
H3292 C3277 0.961 1_565 S
H3293 C3277 0.961 . S
H3294 C3278 0.868 1_565 S
H3295 C3283 0.930 . S
H3296 C3284 0.956 1_545 S
H3297 C3284 0.961 . S
H3298 C3284 0.961 . S
H3299 C3285 0.958 . S
H3300 C3285 0.961 . S
H3301 C3285 0.960 . S
C3302 C3303 1.391 . S
C3302 C3304 1.394 . S
C3302 H3318 0.931 . S
C3303 C3302 1.391 . S
C3303 C3307 1.376 . S
C3304 C3302 1.394 . S
C3304 C3305 1.369 . S
C3304 C3308 1.531 . S
C3305 C3304 1.369 . S
C3305 C3306 1.410 . S
C3305 C3313 1.503 . S
C3306 C3305 1.410 . S
C3306 C3307 1.392 . S
C3306 C3309 1.511 1_655 S
C3307 C3303 1.376 . S
C3307 C3306 1.392 . S
C3307 H3319 0.929 1_655 S
C3308 C3304 1.531 . S
C3308 H3320 0.960 . S
C3308 H3321 0.962 . S
C3308 H3322 0.960 . S
C3309 C3306 1.511 1_455 S
C3309 H3323 0.961 . S
C3309 H3324 0.961 . S
C3309 H3325 0.961 . S
C3310 C3311 1.370 . S
C3310 C3312 1.363 . S
C3310 H3326 0.931 . S
C3311 C3310 1.370 . S
C3311 C3315 1.408 . S
C3312 C3310 1.363 . S
C3312 C3313 1.370 . S
C3312 C3316 1.524 . S
C3313 C3305 1.503 . S
C3313 C3312 1.370 . S
C3313 C3314 1.403 . S
C3314 C3313 1.403 . S
C3314 C3315 1.404 . S
C3314 C3317 1.539 . S
C3315 C3311 1.408 . S
C3315 C3314 1.404 . S
C3315 H3327 0.925 1_655 S
C3316 C3312 1.524 . S
C3316 H3328 0.956 . S
C3316 H3329 0.961 . S
C3316 H3330 0.961 . S
C3317 C3314 1.539 . S
C3317 H3331 0.958 . S
C3317 H3332 0.961 1_655 S
C3317 H3333 0.960 1_655 S
H3318 C3302 0.931 . S
H3319 C3307 0.929 1_455 S
H3320 C3308 0.960 . S
H3321 C3308 0.962 . S
H3322 C3308 0.960 . S
H3323 C3309 0.961 . S
H3324 C3309 0.961 . S
H3325 C3309 0.961 . S
H3326 C3310 0.931 . S
H3327 C3315 0.925 1_455 S
H3328 C3316 0.956 . S
H3329 C3316 0.961 . S
H3330 C3316 0.961 . S
H3331 C3317 0.958 . S
H3332 C3317 0.961 1_455 S
H3333 C3317 0.960 1_455 S
C3334 C3335 1.391 . S
C3334 C3336 1.394 . S
C3334 H3350 0.931 . S
C3335 C3334 1.391 . S
C3335 C3339 1.376 . S
C3336 C3334 1.394 . S
C3336 C3337 1.369 . S
C3336 C3340 1.531 . S
C3337 C3336 1.369 . S
C3337 C3338 1.410 . S
C3337 C3345 1.503 . S
C3338 C3337 1.410 . S
C3338 C3339 1.392 . S
C3338 C3341 1.511 . S
C3339 C3335 1.376 . S
C3339 C3338 1.392 . S
C3339 H3351 0.929 . S
C3340 C3336 1.531 . S
C3340 H3352 0.960 . S
C3340 H3353 0.962 . S
C3340 H3354 0.960 . S
C3341 C3338 1.511 . S
C3341 H3355 0.961 . S
C3341 H3356 0.961 . S
C3341 H3357 0.961 . S
C3342 C3343 1.370 . S
C3342 C3344 1.363 . S
C3342 H3358 0.931 . S
C3343 C3342 1.370 . S
C3343 C3347 1.408 . S
C3344 C3342 1.363 . S
C3344 C3345 1.370 . S
C3344 C3348 1.524 . S
C3345 C3337 1.503 . S
C3345 C3344 1.370 . S
C3345 C3346 1.403 . S
C3346 C3345 1.403 . S
C3346 C3347 1.404 . S
C3346 C3349 1.539 . S
C3347 C3343 1.408 . S
C3347 C3346 1.404 . S
C3347 H3359 0.930 . S
C3348 C3344 1.524 . S
C3348 H3360 0.956 . S
C3348 H3361 0.961 . S
C3348 H3362 0.961 . S
C3349 C3346 1.539 . S
C3349 H3363 0.958 . S
C3349 H3364 0.961 . S
C3349 H3365 0.960 . S
H3350 C3334 0.931 . S
H3351 C3339 0.929 . S
H3352 C3340 0.960 . S
H3353 C3340 0.962 . S
H3354 C3340 0.960 . S
H3355 C3341 0.961 . S
H3356 C3341 0.961 . S
H3357 C3341 0.961 . S
H3358 C3342 0.931 . S
H3359 C3347 0.930 . S
H3360 C3348 0.956 . S
H3361 C3348 0.961 . S
H3362 C3348 0.961 . S
H3363 C3349 0.958 . S
H3364 C3349 0.961 . S
H3365 C3349 0.960 . S
C3366 C3367 1.391 . S
C3366 C3368 1.394 . S
C3366 H3382 0.931 . S
C3367 C3366 1.391 . S
C3367 C3371 1.376 . S
C3368 C3366 1.394 . S
C3368 C3369 1.369 . S
C3368 C3372 1.531 . S
C3369 C3368 1.369 . S
C3369 C3370 1.410 . S
C3369 C3377 1.503 . S
C3370 C3369 1.410 . S
C3370 C3371 1.392 . S
C3370 C3373 1.511 . S
C3371 C3367 1.376 . S
C3371 C3370 1.392 . S
C3371 H3383 0.929 . S
C3372 C3368 1.531 . S
C3372 H3384 0.960 . S
C3372 H3385 0.962 . S
C3372 H3386 0.960 . S
C3373 C3370 1.511 . S
C3373 H3387 0.961 . S
C3373 H3388 0.961 . S
C3373 H3389 0.961 . S
C3374 C3375 1.370 . S
C3374 C3376 1.363 . S
C3374 H3390 0.931 . S
C3375 C3374 1.370 . S
C3375 C3379 1.408 . S
C3376 C3374 1.363 . S
C3376 C3377 1.370 . S
C3376 C3380 1.524 . S
C3377 C3369 1.503 . S
C3377 C3376 1.370 . S
C3377 C3378 1.403 . S
C3378 C3377 1.403 . S
C3378 C3379 1.404 . S
C3378 C3381 1.539 . S
C3379 C3375 1.408 . S
C3379 C3378 1.404 . S
C3379 H3391 0.930 . S
C3380 C3376 1.524 . S
C3380 H3392 0.956 . S
C3380 H3393 0.961 . S
C3380 H3394 0.961 . S
C3381 C3378 1.539 . S
C3381 H3395 0.958 . S
C3381 H3396 0.961 . S
C3381 H3397 0.960 . S
H3382 C3366 0.931 . S
H3383 C3371 0.929 . S
H3384 C3372 0.960 . S
H3385 C3372 0.962 . S
H3386 C3372 0.960 . S
H3387 C3373 0.961 . S
H3388 C3373 0.961 . S
H3389 C3373 0.961 . S
H3390 C3374 0.931 . S
H3391 C3379 0.930 . S
H3392 C3380 0.956 . S
H3393 C3380 0.961 . S
H3394 C3380 0.961 . S
H3395 C3381 0.958 . S
H3396 C3381 0.961 . S
H3397 C3381 0.960 . S
C3398 C3399 1.391 . S
C3398 C3400 1.394 . S
C3398 H3414 0.931 . S
C3399 C3398 1.391 . S
C3399 C3403 1.376 . S
C3400 C3398 1.394 . S
C3400 C3401 1.369 . S
C3400 C3404 1.531 . S
C3401 C3400 1.369 . S
C3401 C3402 1.410 . S
C3401 C3409 1.503 . S
C3402 C3401 1.410 . S
C3402 C3403 1.392 . S
C3402 C3405 1.511 . S
C3403 C3399 1.376 . S
C3403 C3402 1.392 . S
C3403 H3415 0.929 . S
C3404 C3400 1.531 . S
C3404 H3416 0.960 . S
C3404 H3417 0.962 . S
C3404 H3418 0.960 . S
C3405 C3402 1.511 . S
C3405 H3419 0.961 . S
C3405 H3420 0.961 . S
C3405 H3421 0.961 . S
C3406 C3407 1.370 . S
C3406 C3408 1.363 . S
C3406 H3422 0.931 . S
C3407 C3406 1.370 . S
C3407 C3411 1.408 . S
C3408 C3406 1.363 . S
C3408 C3409 1.370 . S
C3408 C3412 1.524 . S
C3409 C3401 1.503 . S
C3409 C3408 1.370 . S
C3409 C3410 1.403 . S
C3410 C3409 1.403 . S
C3410 C3411 1.404 . S
C3410 C3413 1.539 . S
C3411 C3407 1.408 . S
C3411 C3410 1.404 . S
C3411 H3423 0.930 . S
C3412 C3408 1.524 . S
C3412 H3424 0.956 . S
C3412 H3425 0.961 . S
C3412 H3426 0.961 . S
C3413 C3410 1.539 . S
C3413 H3427 0.958 . S
C3413 H3428 0.961 . S
C3413 H3429 0.960 . S
H3414 C3398 0.931 . S
H3415 C3403 0.929 . S
H3416 C3404 0.960 . S
H3417 C3404 0.962 . S
H3418 C3404 0.960 . S
H3419 C3405 0.961 . S
H3420 C3405 0.961 . S
H3421 C3405 0.961 . S
H3422 C3406 0.931 . S
H3423 C3411 0.930 . S
H3424 C3412 0.956 . S
H3425 C3412 0.961 . S
H3426 C3412 0.961 . S
H3427 C3413 0.958 . S
H3428 C3413 0.961 . S
H3429 C3413 0.960 . S
C3430 C3431 1.391 . S
C3430 C3432 1.394 . S
C3430 H3446 0.931 . S
C3431 C3430 1.391 . S
C3431 C3435 1.376 . S
C3432 C3430 1.394 . S
C3432 C3433 1.369 . S
C3432 C3436 1.531 . S
C3433 C3432 1.369 . S
C3433 C3434 1.410 . S
C3433 C3441 1.503 . S
C3434 C3433 1.410 . S
C3434 C3435 1.392 . S
C3434 C3437 1.511 . S
C3435 C3431 1.376 . S
C3435 C3434 1.392 . S
C3435 H3447 0.929 . S
C3436 C3432 1.531 . S
C3436 H3448 0.960 . S
C3436 H3449 0.962 . S
C3436 H3450 0.960 . S
C3437 C3434 1.511 . S
C3437 H3451 0.961 . S
C3437 H3452 0.961 . S
C3437 H3453 0.961 . S
C3438 C3439 1.370 . S
C3438 C3440 1.363 . S
C3438 H3454 0.931 . S
C3439 C3438 1.370 . S
C3439 C3443 1.408 . S
C3440 C3438 1.363 . S
C3440 C3441 1.370 . S
C3440 C3444 1.524 . S
C3441 C3433 1.503 . S
C3441 C3440 1.370 . S
C3441 C3442 1.403 . S
C3442 C3441 1.403 . S
C3442 C3443 1.404 . S
C3442 C3445 1.539 . S
C3443 C3439 1.408 . S
C3443 C3442 1.404 . S
C3443 H3455 0.930 . S
C3444 C3440 1.524 . S
C3444 H3456 0.956 . S
C3444 H3457 0.961 . S
C3444 H3458 0.961 . S
C3445 C3442 1.539 . S
C3445 H3459 0.958 . S
C3445 H3460 0.961 . S
C3445 H3461 0.960 . S
H3446 C3430 0.931 . S
H3447 C3435 0.929 . S
H3448 C3436 0.960 . S
H3449 C3436 0.962 . S
H3450 C3436 0.960 . S
H3451 C3437 0.961 . S
H3452 C3437 0.961 . S
H3453 C3437 0.961 . S
H3454 C3438 0.931 . S
H3455 C3443 0.930 . S
H3456 C3444 0.956 . S
H3457 C3444 0.961 . S
H3458 C3444 0.961 . S
H3459 C3445 0.958 . S
H3460 C3445 0.961 . S
H3461 C3445 0.960 . S
C3462 C3463 1.391 . S
C3462 C3464 1.394 . S
C3462 H3478 0.931 . S
C3463 C3462 1.391 . S
C3463 C3467 1.376 . S
C3464 C3462 1.394 . S
C3464 C3465 1.369 . S
C3464 C3468 1.531 . S
C3465 C3464 1.369 . S
C3465 C3466 1.410 . S
C3465 C3473 1.503 . S
C3466 C3465 1.410 . S
C3466 C3467 1.392 . S
C3466 C3469 1.511 . S
C3467 C3463 1.376 . S
C3467 C3466 1.392 . S
C3467 H3479 0.929 . S
C3468 C3464 1.531 . S
C3468 H3480 0.960 . S
C3468 H3481 0.962 . S
C3468 H3482 0.960 . S
C3469 C3466 1.511 . S
C3469 H3483 0.961 . S
C3469 H3484 0.961 . S
C3469 H3485 0.961 . S
C3470 C3471 1.370 . S
C3470 C3472 1.363 . S
C3470 H3486 0.931 . S
C3471 C3470 1.370 . S
C3471 C3475 1.408 . S
C3472 C3470 1.363 . S
C3472 C3473 1.370 . S
C3472 C3476 1.524 . S
C3473 C3465 1.503 . S
C3473 C3472 1.370 . S
C3473 C3474 1.403 . S
C3474 C3473 1.403 . S
C3474 C3475 1.404 . S
C3474 C3477 1.539 . S
C3475 C3471 1.408 . S
C3475 C3474 1.404 . S
C3475 H3487 0.930 . S
C3476 C3472 1.524 . S
C3476 H3488 0.956 . S
C3476 H3489 0.961 . S
C3476 H3490 0.961 . S
C3477 C3474 1.539 . S
C3477 H3491 0.958 . S
C3477 H3492 0.961 . S
C3477 H3493 0.960 . S
H3478 C3462 0.931 . S
H3479 C3467 0.929 . S
H3480 C3468 0.960 . S
H3481 C3468 0.962 . S
H3482 C3468 0.960 . S
H3483 C3469 0.961 . S
H3484 C3469 0.961 . S
H3485 C3469 0.961 . S
H3486 C3470 0.931 . S
H3487 C3475 0.930 . S
H3488 C3476 0.956 . S
H3489 C3476 0.961 . S
H3490 C3476 0.961 . S
H3491 C3477 0.958 . S
H3492 C3477 0.961 . S
H3493 C3477 0.960 . S
C3494 C3495 1.391 . S
C3494 C3496 1.394 . S
C3494 H3510 0.931 . S
C3495 C3494 1.391 . S
C3495 C3499 1.376 . S
C3496 C3494 1.394 . S
C3496 C3497 1.369 . S
C3496 C3500 1.531 . S
C3497 C3496 1.369 . S
C3497 C3498 1.410 . S
C3497 C3505 1.503 . S
C3498 C3497 1.410 . S
C3498 C3499 1.392 . S
C3498 C3501 1.511 . S
C3499 C3495 1.376 . S
C3499 C3498 1.392 . S
C3499 H3511 0.929 . S
C3500 C3496 1.531 . S
C3500 H3512 0.960 . S
C3500 H3513 0.962 . S
C3500 H3514 0.960 . S
C3501 C3498 1.511 . S
C3501 H3515 0.961 . S
C3501 H3516 0.961 . S
C3501 H3517 0.961 . S
C3502 C3503 1.370 . S
C3502 C3504 1.363 . S
C3502 H3518 0.931 . S
C3503 C3502 1.370 . S
C3503 C3507 1.408 . S
C3504 C3502 1.363 . S
C3504 C3505 1.370 . S
C3504 C3508 1.524 . S
C3505 C3497 1.503 . S
C3505 C3504 1.370 . S
C3505 C3506 1.403 . S
C3506 C3505 1.403 . S
C3506 C3507 1.404 . S
C3506 C3509 1.539 . S
C3507 C3503 1.408 . S
C3507 C3506 1.404 . S
C3507 H3519 0.930 . S
C3508 C3504 1.524 . S
C3508 H3520 0.956 . S
C3508 H3521 0.961 . S
C3508 H3522 0.961 . S
C3509 C3506 1.539 . S
C3509 H3523 0.958 . S
C3509 H3524 0.961 . S
C3509 H3525 0.960 . S
H3510 C3494 0.931 . S
H3511 C3499 0.929 . S
H3512 C3500 0.960 . S
H3513 C3500 0.962 . S
H3514 C3500 0.960 . S
H3515 C3501 0.961 . S
H3516 C3501 0.961 . S
H3517 C3501 0.961 . S
H3518 C3502 0.931 . S
H3519 C3507 0.930 . S
H3520 C3508 0.956 . S
H3521 C3508 0.961 . S
H3522 C3508 0.961 . S
H3523 C3509 0.958 . S
H3524 C3509 0.961 . S
H3525 C3509 0.960 . S
C3526 C3527 1.391 . S
C3526 C3528 1.394 . S
C3526 H3542 0.931 . S
C3527 C3526 1.391 . S
C3527 C3531 1.376 . S
C3528 C3526 1.394 . S
C3528 C3529 1.369 . S
C3528 C3532 1.531 . S
C3529 C3528 1.369 . S
C3529 C3530 1.410 . S
C3529 C3537 1.503 . S
C3530 C3529 1.410 . S
C3530 C3531 1.392 . S
C3530 C3533 1.511 . S
C3531 C3527 1.376 . S
C3531 C3530 1.392 . S
C3531 H3543 0.929 . S
C3532 C3528 1.531 . S
C3532 H3544 0.960 . S
C3532 H3545 0.962 . S
C3532 H3546 0.960 . S
C3533 C3530 1.511 . S
C3533 H3547 0.961 . S
C3533 H3548 0.961 . S
C3533 H3549 0.961 . S
C3534 C3535 1.370 . S
C3534 C3536 1.363 . S
C3534 H3550 0.931 . S
C3535 C3534 1.370 . S
C3535 C3539 1.408 . S
C3536 C3534 1.363 . S
C3536 C3537 1.370 . S
C3536 C3540 1.524 . S
C3537 C3529 1.503 . S
C3537 C3536 1.370 . S
C3537 C3538 1.403 . S
C3538 C3537 1.403 . S
C3538 C3539 1.404 . S
C3538 C3541 1.539 . S
C3539 C3535 1.408 . S
C3539 C3538 1.404 . S
C3539 H3551 0.930 . S
C3540 C3536 1.524 . S
C3540 H3552 0.956 . S
C3540 H3553 0.961 . S
C3540 H3554 0.961 . S
C3541 C3538 1.539 . S
C3541 H3555 0.958 . S
C3541 H3556 0.961 . S
C3541 H3557 0.960 . S
H3542 C3526 0.931 . S
H3543 C3531 0.929 . S
H3544 C3532 0.960 . S
H3545 C3532 0.962 . S
H3546 C3532 0.960 . S
H3547 C3533 0.961 . S
H3548 C3533 0.961 . S
H3549 C3533 0.961 . S
H3550 C3534 0.931 . S
H3551 C3539 0.930 . S
H3552 C3540 0.956 . S
H3553 C3540 0.961 . S
H3554 C3540 0.961 . S
H3555 C3541 0.958 . S
H3556 C3541 0.961 . S
H3557 C3541 0.960 . S
C3558 C3559 1.391 . S
C3558 C3560 1.394 . S
C3558 H3574 0.931 . S
C3559 C3558 1.391 . S
C3559 C3563 1.376 . S
C3560 C3558 1.394 . S
C3560 C3561 1.369 . S
C3560 C3564 1.531 1_655 S
C3561 C3560 1.369 . S
C3561 C3562 1.410 . S
C3561 C3569 1.503 . S
C3562 C3561 1.410 . S
C3562 C3563 1.392 . S
C3562 C3565 1.511 . S
C3563 C3559 1.376 . S
C3563 C3562 1.392 . S
C3563 H3575 0.929 . S
C3564 C3560 1.531 1_455 S
C3564 H3576 0.960 . S
C3564 H3577 0.962 . S
C3564 H3578 0.960 . S
C3565 C3562 1.511 . S
C3565 H3579 0.961 . S
C3565 H3580 0.961 . S
C3565 H3581 0.961 . S
C3566 C3567 1.370 . S
C3566 C3568 1.363 . S
C3566 H3582 0.931 . S
C3567 C3566 1.370 . S
C3567 C3571 1.408 . S
C3568 C3566 1.363 . S
C3568 C3569 1.370 . S
C3568 C3572 1.524 . S
C3569 C3561 1.503 . S
C3569 C3568 1.370 . S
C3569 C3570 1.403 . S
C3570 C3569 1.403 . S
C3570 C3571 1.404 . S
C3570 C3573 1.539 . S
C3571 C3567 1.408 . S
C3571 C3570 1.404 . S
C3571 H3583 0.930 1_655 S
C3572 C3568 1.524 . S
C3572 H3584 0.956 . S
C3572 H3585 0.961 . S
C3572 H3586 0.961 . S
C3573 C3570 1.539 . S
C3573 H3587 0.958 1_655 S
C3573 H3588 0.961 . S
C3573 H3589 0.960 . S
H3574 C3558 0.931 . S
H3575 C3563 0.929 . S
H3576 C3564 0.960 . S
H3577 C3564 0.962 . S
H3578 C3564 0.960 . S
H3579 C3565 0.961 . S
H3580 C3565 0.961 . S
H3581 C3565 0.961 . S
H3582 C3566 0.931 . S
H3583 C3571 0.930 1_455 S
H3584 C3572 0.956 . S
H3585 C3572 0.961 . S
H3586 C3572 0.961 . S
H3587 C3573 0.958 1_455 S
H3588 C3573 0.961 . S
H3589 C3573 0.960 . S
C3590 C3591 1.391 . S
C3590 C3592 1.394 . S
C3590 H3606 0.931 . S
C3591 C3590 1.391 . S
C3591 C3595 1.376 . S
C3592 C3590 1.394 . S
C3592 C3593 1.369 . S
C3592 C3596 1.531 . S
C3593 C3592 1.369 . S
C3593 C3594 1.410 . S
C3593 C3601 1.503 . S
C3594 C3593 1.410 . S
C3594 C3595 1.392 . S
C3594 C3597 1.511 . S
C3595 C3591 1.376 . S
C3595 C3594 1.392 . S
C3595 H3607 0.929 . S
C3596 C3592 1.531 . S
C3596 H3608 0.960 . S
C3596 H3609 0.962 . S
C3596 H3610 0.960 . S
C3597 C3594 1.511 . S
C3597 H3611 0.961 . S
C3597 H3612 0.961 . S
C3597 H3613 0.961 . S
C3598 C3599 1.370 . S
C3598 C3600 1.363 . S
C3598 H3614 0.931 . S
C3599 C3598 1.370 . S
C3599 C3603 1.408 . S
C3600 C3598 1.363 . S
C3600 C3601 1.370 . S
C3600 C3604 1.524 . S
C3601 C3593 1.503 . S
C3601 C3600 1.370 . S
C3601 C3602 1.403 . S
C3602 C3601 1.403 . S
C3602 C3603 1.404 . S
C3602 C3605 1.539 . S
C3603 C3599 1.408 . S
C3603 C3602 1.404 . S
C3603 H3615 0.930 . S
C3604 C3600 1.524 . S
C3604 H3616 0.956 . S
C3604 H3617 0.961 . S
C3604 H3618 0.961 . S
C3605 C3602 1.539 . S
C3605 H3619 0.958 . S
C3605 H3620 0.961 . S
C3605 H3621 0.960 . S
H3606 C3590 0.931 . S
H3607 C3595 0.929 . S
H3608 C3596 0.960 . S
H3609 C3596 0.962 . S
H3610 C3596 0.960 . S
H3611 C3597 0.961 . S
H3612 C3597 0.961 . S
H3613 C3597 0.961 . S
H3614 C3598 0.931 . S
H3615 C3603 0.930 . S
H3616 C3604 0.956 . S
H3617 C3604 0.961 . S
H3618 C3604 0.961 . S
H3619 C3605 0.958 . S
H3620 C3605 0.961 . S
H3621 C3605 0.960 . S
C3622 C3623 1.391 . S
C3622 C3624 1.394 . S
C3622 H3638 0.931 . S
C3623 C3622 1.391 . S
C3623 C3627 1.376 . S
C3624 C3622 1.394 . S
C3624 C3625 1.369 . S
C3624 C3628 1.531 . S
C3625 C3624 1.369 . S
C3625 C3626 1.410 . S
C3625 C3633 1.503 . S
C3626 C3625 1.410 . S
C3626 C3627 1.392 . S
C3626 C3629 1.511 1_545 S
C3627 C3623 1.376 . S
C3627 C3626 1.392 . S
C3627 H3639 0.929 . S
C3628 C3624 1.531 . S
C3628 H3640 0.960 . S
C3628 H3641 0.962 . S
C3628 H3642 0.960 . S
C3629 C3626 1.511 1_565 S
C3629 H3643 0.961 . S
C3629 H3644 0.961 . S
C3629 H3645 0.961 . S
C3630 C3631 1.370 . S
C3630 C3632 1.363 . S
C3630 H3646 0.931 . S
C3631 C3630 1.370 . S
C3631 C3635 1.431 . S
C3632 C3630 1.363 . S
C3632 C3633 1.370 . S
C3632 C3636 1.524 . S
C3633 C3625 1.503 . S
C3633 C3632 1.370 . S
C3633 C3634 1.403 . S
C3634 C3633 1.403 . S
C3634 C3635 1.389 . S
C3634 C3637 1.539 1_545 S
C3635 C3631 1.431 . S
C3635 C3634 1.389 . S
C3635 H3647 0.926 1_545 S
C3636 C3632 1.524 . S
C3636 H3648 0.956 . S
C3636 H3649 0.961 . S
C3636 H3650 0.961 . S
C3637 C3634 1.539 1_565 S
C3637 H3651 0.958 1_565 S
C3637 H3652 0.961 . S
C3637 H3653 0.960 . S
H3638 C3622 0.931 . S
H3639 C3627 0.929 . S
H3640 C3628 0.960 . S
H3641 C3628 0.962 . S
H3642 C3628 0.960 . S
H3643 C3629 0.961 . S
H3644 C3629 0.961 . S
H3645 C3629 0.961 . S
H3646 C3630 0.931 . S
H3647 C3635 0.926 1_565 S
H3648 C3636 0.956 . S
H3649 C3636 0.961 . S
H3650 C3636 0.961 . S
H3651 C3637 0.958 1_545 S
H3652 C3637 0.961 . S
H3653 C3637 0.960 . S
C1351 C8 1.521 . S
C1359 C839 1.536 . S
C1383 C18 1.531 . S
C1391 C883 1.535 . S
C1423 C963 1.542 . S
C1415 C31 1.571 . S
C1447 C34 1.577 1_565 S
C1455 C1007 1.578 . S
C1479 C5 1.525 . S
C1487 C1087 1.549 . S
C1511 C21 1.536 . S
C1519 C1149 1.568 . S
C1543 C47 1.556 . S
C1551 C1069 1.526 . S
C1583 C1131 1.516 . S
C1575 C57 1.524 . S
C1615 C1025 1.565 . S
C1607 C70 1.550 . S
C1639 C73 1.514 . S
C1647 C945 1.552 . S
C1679 C821 1.543 . S
C1671 C44 1.527 . S
C1703 C60 1.535 . S
C1711 C901 1.578 . S
C1735 C86 1.583 . S
C1743 C1211 1.589 . S
C1767 C96 1.584 . S
C1775 C1255 1.558 . S
C1807 C1335 1.596 . S
C1799 C109 1.656 . S
C1831 C112 1.622 . S
C1839 C281 1.634 . S
C1863 C83 1.638 . S
C1871 C325 1.632 . S
C1895 C99 1.562 . S
C1903 C405 1.588 . S
C1927 C125 1.547 . S
C1935 C343 1.592 . S
C1959 C135 1.582 . S
C1967 C387 1.568 . S
C1999 C263 1.604 . S
C1991 C148 1.647 . S
C2031 C1317 1.630 . S
C2023 C151 1.679 . S
C2063 C1193 1.567 . S
C2055 C122 1.620 . S
C2095 C1273 1.615 . S
C2087 C138 1.611 . S
C2119 C164 1.552 . S
C2127 C467 1.582 . S
C2151 C174 1.568 . S
C2159 C529 1.558 . S
C2183 C187 1.607 . S
C2191 C573 1.609 . S
C2215 C190 1.692 . S
C2223 C635 1.668 . S
C2255 C697 1.605 . S
C2247 C161 1.633 . S
C2287 C777 1.594 . S
C2279 C177 1.622 . S
C2319 C715 1.626 . S
C2311 C203 1.594 . S
C2351 C759 1.544 . S
C2343 C213 1.572 . S
C2375 C226 1.608 . S
C2383 C653 1.619 . S
C2415 C591 1.644 . S
C2407 C229 1.643 . S
C2439 C200 1.643 . S
C2447 C449 1.604 . S
C2479 C511 1.595 . S
C2471 C216 1.602 . S
C2511 C287 1.336 . S
C2503 C0 1.380 . S
C2535 C23 1.391 . S
C2543 C331 1.329 . S
C2575 C411 1.318 . S
C2567 C36 1.422 . S
C2607 C473 1.364 . S
C2599 C26 1.380 1_556 S
C2639 C535 1.326 . S
C2631 C10 1.381 1_556 S
C2671 C579 1.369 . S
C2663 C13 1.330 1_556 S
C2695 C39 1.415 . S
C2703 C597 1.382 . S
C2727 C62 1.396 . S
C2735 C455 1.289 . S
C2759 C75 1.384 1_556 S
C2767 C517 1.284 . S
C2791 C65 1.455 . S
C2799 C349 1.420 . S
C2831 C393 1.282 . S
C2823 C49 1.393 . S
C2855 C52 1.341 . S
C2863 C269 1.358 . S
C2895 C641 1.354 . S
C2887 C78 1.396 . S
C2919 C101 1.352 1_545 S
C2927 C703 1.390 . S
C2951 C114 1.435 1_655 S
C2959 C783 1.377 . S
C2991 C845 1.291 . S
C2983 C104 1.360 . S
C3015 C88 1.394 . S
C3023 C889 1.304 . S
C3047 C91 1.277 . S
C3055 C969 1.206 . S
C3079 C117 1.243 . S
C3087 C951 1.236 . S
C3111 C140 1.312 . S
C3119 C827 1.274 . S
C3151 C907 1.325 . S
C3143 C153 1.409 . S
C3175 C143 1.429 . S
C3183 C721 1.382 . S
C3207 C127 1.443 1_545 S
C3215 C765 1.344 . S
C3247 C659 1.408 . S
C3239 C130 1.421 . S
C3279 C1013 1.270 . S
C3271 C156 1.322 . S
C3303 C179 1.324 . S
C3311 C1093 1.233 . S
C3335 C192 1.382 . S
C3343 C1155 1.339 . S
C3375 C1217 1.367 . S
C3367 C182 1.366 . S
C3407 C1261 1.370 . S
C3399 C166 1.454 1_565 S
C3431 C169 1.433 . S
C3439 C1341 1.358 . S
C3463 C195 1.377 . S
C3471 C1323 1.344 . S
C3495 C218 1.426 1_565 S
C3503 C1199 1.370 . S
C3535 C1279 1.379 . S
C3527 C231 1.416 1_455 S
C3567 C1075 1.271 . S
C3559 C221 1.299 . S
C3599 C1137 1.292 . S
C3591 C205 1.399 . S
C3623 C208 1.259 . S
C3631 C1031 1.275 . S
