# Generated by pormake.
# Topology anh, (6,3)-cn, num edge types: 1
# Building blocks:
#     Node 0, Type 0, BuildingBlock: VOLQOD_clean_sbu_1, # of connection points: 6
#     Node 1, Type 0, BuildingBlock: VOLQOD_clean_sbu_1, # of connection points: 6
#     Node 2, Type 0, BuildingBlock: VOLQOD_clean_sbu_1, # of connection points: 6
#     Node 3, Type 1, BuildingBlock: KAKCAD_clean_linker_0, # of connection points: 3
#     Node 4, Type 1, BuildingBlock: KAKCAD_clean_linker_0, # of connection points: 3
#     Node 5, Type 1, BuildingBlock: KAKCAD_clean_linker_0, # of connection points: 3
#     Node 6, Type 1, BuildingBlock: KAKCAD_clean_linker_0, # of connection points: 3
#     Node 7, Type 1, BuildingBlock: KAKCAD_clean_linker_0, # of connection points: 3
#     Node 8, Type 1, BuildingBlock: KAKCAD_clean_linker_0, # of connection points: 3
#     Edge 9, Type (0, 1), BuildingBlock: CIFDUS_clean_linker_0, # of connection points: 2
#     Edge 10, Type (0, 1), BuildingBlock: CIFDUS_clean_linker_0, # of connection points: 2
#     Edge 11, Type (0, 1), BuildingBlock: CIFDUS_clean_linker_0, # of connection points: 2
#     Edge 12, Type (0, 1), BuildingBlock: CIFDUS_clean_linker_0, # of connection points: 2
#     Edge 13, Type (0, 1), BuildingBlock: CIFDUS_clean_linker_0, # of connection points: 2
#     Edge 14, Type (0, 1), BuildingBlock: CIFDUS_clean_linker_0, # of connection points: 2
#     Edge 15, Type (0, 1), BuildingBlock: CIFDUS_clean_linker_0, # of connection points: 2
#     Edge 16, Type (0, 1), BuildingBlock: CIFDUS_clean_linker_0, # of connection points: 2
#     Edge 17, Type (0, 1), BuildingBlock: CIFDUS_clean_linker_0, # of connection points: 2
#     Edge 18, Type (0, 1), BuildingBlock: CIFDUS_clean_linker_0, # of connection points: 2
#     Edge 19, Type (0, 1), BuildingBlock: CIFDUS_clean_linker_0, # of connection points: 2
#     Edge 20, Type (0, 1), BuildingBlock: CIFDUS_clean_linker_0, # of connection points: 2
#     Edge 21, Type (0, 1), BuildingBlock: CIFDUS_clean_linker_0, # of connection points: 2
#     Edge 22, Type (0, 1), BuildingBlock: CIFDUS_clean_linker_0, # of connection points: 2
#     Edge 23, Type (0, 1), BuildingBlock: CIFDUS_clean_linker_0, # of connection points: 2
#     Edge 24, Type (0, 1), BuildingBlock: CIFDUS_clean_linker_0, # of connection points: 2
#     Edge 25, Type (0, 1), BuildingBlock: CIFDUS_clean_linker_0, # of connection points: 2
#     Edge 26, Type (0, 1), BuildingBlock: CIFDUS_clean_linker_0, # of connection points: 2
# Relax obj value: 0.167
# Max RMSD: 0.230
# Mean RMSD: 0.114
data_MOF--net-anh--node1-VOLQOD_clean_sbu_1--node2-KAKCAD_clean_linker_0--edge1-CIFDUS_clean_linker_0
_symmetry_space_group_name_H-M    P1
_symmetry_Int_Tables_number       1
_symmetry_cell_setting            triclinic
loop_
_symmetry_equiv_pos_as_xyz
'x, y, z'
_cell_length_a     31.590099
_cell_length_b     31.677966
_cell_length_c     67.560709
_cell_angle_alpha  90.084109
_cell_angle_beta   90.13628
_cell_angle_gamma 120.27644
loop_
_atom_site_label
_atom_site_type_symbol
_atom_site_fract_x
_atom_site_fract_y
_atom_site_fract_z
_atom_type_partial_charge
O0 O 0.94928 0.54161 0.21112 0.0
Zn1 Zn 0.95602 0.55891 0.18227 0.0
O2 O 0.96542 0.51229 0.16665 0.0
Zn3 Zn 0.91028 0.47503 0.14921 0.0
Zn4 Zn 0.97283 0.46793 0.18458 0.0
Zn5 Zn 0.02264 0.54719 0.15004 0.0
O6 O 0.9293 0.48104 0.1206 0.0
O7 O 0.00664 0.54159 0.12086 0.0
O8 O 0.89617 0.56164 0.17343 0.0
O9 O 0.86649 0.50248 0.15076 0.0
O10 O 0.87168 0.40423 0.15691 0.0
O11 O 0.91437 0.39997 0.18218 0.0
O12 O 0.03293 0.46366 0.17817 0.0
O13 O 0.01634 0.62582 0.18058 0.0
O14 O 0.06297 0.51595 0.15306 0.0
O15 O 0.06345 0.61762 0.15837 0.0
C16 C 0.96159 0.51558 0.22124 0.0
C17 C 0.96817 0.51107 0.1115 0.0
C18 C 0.87761 0.3799 0.17052 0.0
C19 C 0.86439 0.53589 0.16036 0.0
C20 C 0.06414 0.48467 0.16446 0.0
C21 C 0.0561 0.64354 0.17079 0.0
O22 O 0.97529 0.48832 0.21295 0.0
O23 O 0.46974 0.988 0.45416 0.0
Zn24 Zn 0.45748 -0.00331 0.48282 0.0
O25 O 0.50937 -0.00021 0.49975 0.0
Zn26 Zn 0.54409 0.06176 0.5136 0.0
Zn27 Zn 0.5559 -0.00912 0.48379 0.0
Zn28 Zn 0.48017 0.9495 0.51965 0.0
O29 O 0.53805 0.05515 0.54333 0.0
O30 O 0.48384 0.97641 0.54683 0.0
O31 O 0.45276 0.05764 0.48533 0.0
O32 O 0.51605 0.10268 0.50527 0.0
O33 O 0.61479 0.09918 0.50624 0.0
O34 O 0.62205 0.0521 0.4838 0.0
O35 O 0.56453 0.9361 0.49424 0.0
O36 O 0.39237 0.93867 0.48968 0.0
O37 O 0.51678 0.91387 0.52089 0.0
O38 O 0.40981 0.90143 0.51344 0.0
C39 C 0.50093 0.97993 0.44564 0.0
C40 C 0.51044 0.0188 0.55422 0.0
C41 C 0.6403 0.09163 0.49374 0.0
C42 C 0.48055 0.09734 0.49452 0.0
C43 C 0.54781 0.91087 0.50992 0.0
C44 C 0.37935 0.90318 0.5016 0.0
O45 O 0.5347 0.97838 0.45536 0.0
O46 O 0.47908 0.47483 0.78407 0.0
Zn47 Zn 0.46912 0.46765 0.81341 0.0
O48 O 0.52895 0.51587 0.82684 0.0
Zn49 Zn 0.51613 0.55983 0.84236 0.0
Zn50 Zn 0.5811 0.5541 0.80782 0.0
Zn51 Zn 0.54932 0.48132 0.84446 0.0
O52 O 0.52399 0.5532 0.87155 0.0
O53 O 0.53879 0.49169 0.87274 0.0
O54 O 0.41054 0.4739 0.82097 0.0
O55 O 0.44654 0.54215 0.83886 0.0
O56 O 0.5564 0.62958 0.83349 0.0
O57 O 0.59538 0.62367 0.80731 0.0
O58 O 0.64455 0.55583 0.81513 0.0
O59 O 0.4544 0.39935 0.81881 0.0
O60 O 0.62076 0.50801 0.84175 0.0
O61 O 0.51476 0.40915 0.83861 0.0
C62 C 0.5166 0.49798 0.77309 0.0
C63 C 0.53092 0.52284 0.88131 0.0
C64 C 0.58434 0.64883 0.81864 0.0
C65 C 0.40863 0.50731 0.83074 0.0
C66 C 0.65369 0.53599 0.82965 0.0
C67 C 0.47661 0.38171 0.82841 0.0
O68 O 0.55877 0.52782 0.78023 0.0
C69 C 0.49514 0.01033 0.32037 0.0
C70 C 0.46128 0.96559 0.32892 0.0
C71 C 0.49919 0.01524 0.29986 0.0
C72 C 0.47016 0.97516 0.2874 0.0
C73 C 0.43569 0.93042 0.29604 0.0
C74 C 0.43102 0.92581 0.31664 0.0
C75 C 0.47658 0.98038 0.26553 0.0
C76 C 0.52341 0.01019 0.25747 0.0
C77 C 0.53016 0.01879 0.237 0.0
C78 C 0.48951 -0.00618 0.22432 0.0
C79 C 0.4427 0.96259 0.23207 0.0
C80 C 0.43629 0.95674 0.25264 0.0
C81 C 0.40025 0.93522 0.21876 0.0
C82 C 0.35808 0.93889 0.22092 0.0
C83 C 0.40047 0.90263 0.20477 0.0
C84 C 0.3582 0.87212 0.19386 0.0
C85 C 0.31506 0.87423 0.19648 0.0
C86 C 0.57907 0.05605 0.22927 0.0
C87 C 0.60881 0.09863 0.24039 0.0
C88 C 0.59599 0.05059 0.2107 0.0
C89 C 0.64125 0.08713 0.20341 0.0
C90 C 0.67069 0.12929 0.2147 0.0
C91 C 0.65416 0.13448 0.23328 0.0
C92 C 0.31611 0.90915 0.20972 0.0
H93 H 0.51836 0.04168 0.3296 0.0
H94 H 0.5251 0.05065 0.29381 0.0
H95 H 0.41306 0.89864 0.28695 0.0
H96 H 0.40475 0.89091 0.323 0.0
H97 H 0.55496 0.02696 0.26724 0.0
H98 H 0.39981 0.93363 0.25852 0.0
H99 H 0.49367 -0.00027 0.20848 0.0
H100 H 0.35741 0.96426 0.23151 0.0
H101 H 0.4326 0.89906 0.20298 0.0
H102 H 0.35885 0.84534 0.18409 0.0
H103 H 0.59663 0.10508 0.25444 0.0
H104 H 0.5744 0.01814 0.20181 0.0
H105 H 0.28414 0.91282 0.21181 0.0
H106 H 0.67568 0.16718 0.24208 0.0
H107 H 0.65332 0.08246 0.189 0.0
C108 C 0.48618 0.52465 0.64572 0.0
C109 C 0.50744 0.50106 0.65559 0.0
C110 C 0.47861 0.51919 0.6253 0.0
C111 C 0.49323 0.49091 0.61432 0.0
C112 C 0.51403 0.46683 0.62442 0.0
C113 C 0.52063 0.47152 0.64492 0.0
C114 C 0.4892 0.4887 0.59235 0.0
C115 C 0.49825 0.53035 0.58162 0.0
C116 C 0.4973 0.52988 0.56085 0.0
C117 C 0.48777 0.48745 0.55069 0.0
C118 C 0.47957 0.44583 0.56112 0.0
C119 C 0.47936 0.4463 0.58191 0.0
C120 C 0.47737 0.40434 0.55026 0.0
C121 C 0.44887 0.38575 0.53298 0.0
C122 C 0.50778 0.38628 0.55622 0.0
C123 C 0.51103 0.35153 0.54479 0.0
C124 C 0.48379 0.334 0.52722 0.0
C125 C 0.50869 0.57472 0.54993 0.0
C126 C 0.48848 0.60297 0.5562 0.0
C127 C 0.5413 0.59074 0.53383 0.0
C128 C 0.55468 0.63521 0.52461 0.0
C129 C 0.53588 0.66423 0.53151 0.0
C130 C 0.50195 0.64727 0.54709 0.0
C131 C 0.45177 0.35041 0.52159 0.0
H132 H 0.47535 0.54719 0.65384 0.0
H133 H 0.46154 0.53741 0.61813 0.0
H134 H 0.52658 0.44548 0.61649 0.0
H135 H 0.53721 0.45316 0.65239 0.0
H136 H 0.50824 0.56408 0.58938 0.0
H137 H 0.47228 0.41373 0.58988 0.0
H138 H 0.48841 0.48739 0.53465 0.0
H139 H 0.42505 0.39912 0.52815 0.0
H140 H 0.53056 0.4004 0.56934 0.0
H141 H 0.53533 0.33867 0.54959 0.0
H142 H 0.46254 0.59102 0.5683 0.0
H143 H 0.55767 0.56974 0.52879 0.0
H144 H 0.43021 0.337 0.50815 0.0
H145 H 0.48606 0.66856 0.55235 0.0
H146 H 0.58079 0.64764 0.51257 0.0
C147 C 0.04947 0.52973 0.98358 0.0
C148 C 0.00771 0.50033 0.99513 0.0
C149 C 0.04855 0.52304 0.9631 0.0
C150 C 0.00562 0.48755 0.95365 0.0
C151 C 0.96367 0.45862 0.96498 0.0
C152 C 0.96482 0.46453 0.98551 0.0
C153 C 0.00477 0.48048 0.93199 0.0
C154 C 0.03923 0.47109 0.92311 0.0
C155 C 0.03918 0.46493 0.90253 0.0
C156 C 0.00415 0.46824 0.89087 0.0
C157 C 0.9701 0.47889 0.89945 0.0
C158 C 0.97037 0.48437 0.92015 0.0
C159 C 0.93585 0.48635 0.88675 0.0
C160 C 0.95089 0.50918 0.86813 0.0
C161 C 0.8882 0.47177 0.8933 0.0
C162 C 0.85692 0.48081 0.88179 0.0
C163 C 0.87224 0.50374 0.86333 0.0
C164 C 0.07783 0.45864 0.89298 0.0
C165 C 0.1269 0.4881 0.89887 0.0
C166 C 0.0666 0.42558 0.87719 0.0
C167 C 0.10396 0.42315 0.86713 0.0
C168 C 0.15313 0.45399 0.87262 0.0
C169 C 0.1641 0.48576 0.88882 0.0
C170 C 0.91913 0.51729 0.85644 0.0
H171 H 0.08286 0.55834 0.99028 0.0
H172 H 0.08123 0.54608 0.95457 0.0
H173 H 0.93028 0.43072 0.95798 0.0
H174 H 0.93223 0.44039 0.99384 0.0
H175 H 0.0659 0.46827 0.93228 0.0
H176 H 0.94517 0.49359 0.92708 0.0
H177 H 0.0043 0.46374 0.87498 0.0
H178 H -0.01241 0.52187 0.86272 0.0
H179 H 0.87492 0.45327 0.90732 0.0
H180 H 0.82057 0.46971 0.88726 0.0
H181 H 0.13679 0.51423 0.91085 0.0
H182 H 0.02899 0.40206 0.87247 0.0
H183 H 0.93162 0.53533 0.84227 0.0
H184 H 0.20166 0.50936 0.8936 0.0
H185 H 0.09454 0.3983 0.85471 0.0
C186 C 0.93963 0.49552 0.34878 0.0
C187 C 0.98401 0.51178 0.33871 0.0
C188 C 0.93912 0.49871 0.36937 0.0
C189 C 0.98304 0.5187 0.38023 0.0
C190 C 0.02746 0.5351 0.37015 0.0
C191 C 0.02791 0.53139 0.34957 0.0
C192 C 0.98232 0.5222 0.40203 0.0
C193 C 0.94908 0.48167 0.41317 0.0
C194 C 0.94798 0.48438 0.43393 0.0
C195 C 0.9802 0.52873 0.44342 0.0
C196 C 0.01433 0.56903 0.43244 0.0
C197 C 0.01532 0.56564 0.41178 0.0
C198 C 0.0515 0.6135 0.44265 0.0
C199 C 0.03783 0.63888 0.45581 0.0
C200 C 0.10128 0.62992 0.43955 0.0
C201 C 0.137 0.67082 0.44963 0.0
C202 C 0.1235 0.6964 0.46271 0.0
C203 C 0.915 0.44018 0.4456 0.0
C204 C 0.86811 0.40635 0.43836 0.0
C205 C 0.9309 0.43024 0.46359 0.0
C206 C 0.90086 0.38707 0.47389 0.0
C207 C 0.85495 0.35282 0.46616 0.0
C208 C 0.83861 0.36291 0.44845 0.0
C209 C 0.07377 0.68062 0.46562 0.0
H210 H 0.90526 0.47995 0.34074 0.0
H211 H 0.90443 0.48605 0.3768 0.0
H212 H 0.06177 0.5503 0.37822 0.0
H213 H 0.06263 0.54448 0.34211 0.0
H214 H 0.92536 0.44745 0.40562 0.0
H215 H 0.04158 0.59702 0.40331 0.0
H216 H 0.97982 0.53167 0.4594 0.0
H217 H -0.00051 0.62662 0.45834 0.0
H218 H 0.11249 0.61058 0.42956 0.0
H219 H 0.17529 0.68281 0.4471 0.0
H220 H 0.85419 0.41326 0.42483 0.0
H221 H 0.96706 0.45508 0.46947 0.0
H222 H 0.06286 0.70013 0.47564 0.0
H223 H 0.80282 0.33716 0.44246 0.0
H224 H 0.91397 0.37978 0.48757 0.0
C225 C 0.47435 0.95816 0.68271 0.0
C226 C 0.48615 0.00063 0.67192 0.0
C227 C 0.47989 0.96001 0.70325 0.0
C228 C 0.49783 0.00445 0.71353 0.0
C229 C 0.50932 0.04687 0.70277 0.0
C230 C 0.50336 0.04494 0.68223 0.0
C231 C 0.50512 0.00663 0.73535 0.0
C232 C 0.52335 0.9792 0.74444 0.0
C233 C 0.52965 0.98024 0.76509 0.0
C234 C 0.51981 0.01139 0.77657 0.0
C235 C 0.5027 0.04016 0.76769 0.0
C236 C 0.49424 0.03638 0.74714 0.0
C237 C 0.49488 0.07526 0.7796 0.0
C238 C 0.4774 0.06474 0.7992 0.0
C239 C 0.50568 0.12038 0.77136 0.0
C240 C 0.49843 0.15358 0.7822 0.0
C241 C 0.48124 0.14307 0.80169 0.0
C242 C 0.5454 0.94786 0.77451 0.0
C243 C 0.5287 0.9007 0.76685 0.0
C244 C 0.57628 0.96304 0.79128 0.0
C245 C 0.58959 0.93156 0.80023 0.0
C246 C 0.57309 0.8848 0.79234 0.0
C247 C 0.54275 0.86978 0.77555 0.0
C248 C 0.47115 0.09867 0.81024 0.0
H249 H 0.4616 0.9235 0.67526 0.0
H250 H 0.47002 0.92649 0.71108 0.0
H251 H 0.5237 0.08183 0.71017 0.0
H252 H 0.51222 0.07824 0.67444 0.0
H253 H 0.53337 0.95744 0.73534 0.0
H254 H 0.47862 0.05633 0.74026 0.0
H255 H 0.52552 0.01327 0.79242 0.0
H256 H 0.46809 0.03019 0.80598 0.0
H257 H 0.52054 0.1306 0.75658 0.0
H258 H 0.50722 0.18809 0.77548 0.0
H259 H 0.50385 0.88707 0.75433 0.0
H260 H 0.59045 -0.00071 0.79744 0.0
H261 H 0.4579 0.09005 0.8253 0.0
H262 H 0.52874 0.83346 0.76944 0.0
H263 H 0.61303 0.94381 0.81321 0.0
C264 C 0.46893 0.46878 0.00508 0.0
C265 C 0.46621 0.50714 0.99583 0.0
C266 C 0.4638 0.46264 0.02554 0.0
C267 C 0.45487 0.49409 0.03709 0.0
C268 C 0.45063 0.53148 0.0279 0.0
C269 C 0.45659 0.53819 0.00747 0.0
C270 C 0.45187 0.48913 0.05879 0.0
C271 C 0.48972 0.4888 0.06942 0.0
C272 C 0.48864 0.48702 0.09016 0.0
C273 C 0.44881 0.48447 0.10032 0.0
C274 C 0.41022 0.48385 0.08975 0.0
C275 C 0.41216 0.48648 0.06898 0.0
C276 C 0.36762 0.48052 0.10012 0.0
C277 C 0.34374 0.44592 0.11518 0.0
C278 C 0.34873 0.51009 0.09404 0.0
C279 C 0.3053 0.5034 0.10201 0.0
C280 C 0.28002 0.46718 0.11629 0.0
C281 C 0.53085 0.49054 0.10091 0.0
C282 C 0.54905 0.45998 0.09552 0.0
C283 C 0.55647 0.52796 0.11484 0.0
C284 C 0.60161 0.53683 0.12223 0.0
C285 C 0.62137 0.50822 0.11576 0.0
C286 C 0.59378 0.46857 0.10296 0.0
C287 C 0.30014 0.43936 0.12327 0.0
H288 H 0.47505 0.4434 0.99654 0.0
H289 H 0.46669 0.43325 0.03235 0.0
H290 H 0.44417 0.55642 0.03662 0.0
H291 H 0.4549 0.56847 0.00091 0.0
H292 H 0.5211 0.49198 0.06155 0.0
H293 H 0.38238 0.4857 0.06066 0.0
H294 H 0.44811 0.48341 0.11636 0.0
H295 H 0.35763 0.42262 0.12008 0.0
H296 H 0.36705 0.5378 0.0828 0.0
H297 H 0.29097 0.52608 0.09677 0.0
H298 H 0.52948 0.43055 0.08497 0.0
H299 H 0.54302 0.55208 0.1191 0.0
H300 H 0.2812 0.41138 0.13435 0.0
H301 H 0.60762 0.44514 0.09816 0.0
H302 H 0.62216 0.56756 0.1321 0.0
H303 H 0.0825 0.46238 0.12894 0.0
H304 H 0.126 0.47463 0.1901 0.0
H305 H 0.19537 0.46409 0.18072 0.0
H306 H 0.249 0.46238 0.15425 0.0
H307 H 0.20359 0.45129 0.09326 0.0
H308 H 0.12891 0.4498 0.10339 0.0
C309 C 0.10687 0.46202 0.14022 0.0
C310 C 0.10023 0.47003 0.16004 0.0
C311 C 0.14625 0.4565 0.13469 0.0
C312 C 0.131 0.46867 0.1747 0.0
C313 C 0.17062 0.46294 0.16932 0.0
C314 C 0.22211 0.45859 0.14331 0.0
C315 C 0.23187 0.45795 0.12307 0.0
C316 C 0.17946 0.45843 0.14925 0.0
C317 C 0.197 0.45285 0.10891 0.0
C318 C 0.1544 0.45194 0.11467 0.0
H319 H 0.69472 0.17615 0.51424 0.0
H320 H 0.6959 0.09925 0.46157 0.0
H321 H 0.76698 0.17337 0.44931 0.0
H322 H 0.82063 0.26249 0.45131 0.0
H323 H 0.81926 0.33976 0.50361 0.0
H324 H 0.7564 0.26288 0.51838 0.0
C325 C 0.71107 0.17533 0.50025 0.0
C326 C 0.68941 0.13252 0.48866 0.0
C327 C 0.75141 0.21826 0.49312 0.0
C328 C 0.71157 0.13181 0.47073 0.0
C329 C 0.75204 0.17427 0.46362 0.0
C330 C 0.80697 0.26212 0.46607 0.0
C331 C 0.82357 0.30625 0.47634 0.0
C332 C 0.77091 0.21806 0.47433 0.0
C333 C 0.80656 0.30589 0.49552 0.0
C334 C 0.77061 0.2621 0.50388 0.0
H335 H 0.57307 0.71551 0.84004 0.0
H336 H 0.62634 0.69545 0.78402 0.0
H337 H 0.63307 0.7708 0.77167 0.0
H338 H 0.61281 0.83581 0.77515 0.0
H339 H 0.55895 0.85584 0.83084 0.0
H340 H 0.56401 0.78742 0.84506 0.0
C341 C 0.587 0.72804 0.82525 0.0
C342 C 0.59826 0.69928 0.81287 0.0
C343 C 0.59022 0.77117 0.81812 0.0
C344 C 0.61699 0.71654 0.79385 0.0
C345 C 0.62063 0.75956 0.78671 0.0
C346 C 0.60304 0.82559 0.7905 0.0
C347 C 0.585 0.85015 0.80191 0.0
C348 C 0.6056 0.78609 0.79845 0.0
C349 C 0.57297 0.8373 0.82184 0.0
C350 C 0.57555 0.79805 0.8299 0.0
H351 H 0.83052 0.53467 0.12422 0.0
H352 H 0.80811 0.55521 0.18554 0.0
H353 H 0.73106 0.55246 0.1769 0.0
H354 H 0.66573 0.5338 0.1521 0.0
H355 H 0.69068 0.51312 0.09094 0.0
H356 H 0.77126 0.52605 0.09933 0.0
C357 C 0.80904 0.53926 0.13565 0.0
C358 C 0.82409 0.54439 0.15545 0.0
C359 C 0.76506 0.53681 0.13062 0.0
C360 C 0.79684 0.55119 0.17017 0.0
C361 C 0.75274 0.54918 0.16524 0.0
C362 C 0.68922 0.53288 0.14063 0.0
C363 C 0.6719 0.52122 0.12104 0.0
C364 C 0.73574 0.54039 0.14557 0.0
C365 C 0.70269 0.52051 0.10623 0.0
C366 C 0.74886 0.52825 0.11097 0.0
H367 H 0.29961 0.90132 0.48551 0.0
H368 H 0.34651 0.81023 0.51441 0.0
H369 H 0.26782 0.73775 0.50687 0.0
H370 H 0.19043 0.69958 0.48819 0.0
H371 H 0.14306 0.78994 0.45936 0.0
H372 H 0.21705 0.86372 0.47094 0.0
C373 C 0.29231 0.86567 0.4904 0.0
C374 C 0.3291 0.86101 0.50016 0.0
C375 C 0.24711 0.82413 0.48593 0.0
C376 C 0.31889 0.81476 0.50676 0.0
C377 C 0.274 0.77325 0.50238 0.0
C378 C 0.19606 0.73556 0.48486 0.0
C379 C 0.16214 0.73988 0.47289 0.0
C380 C 0.23859 0.77741 0.49141 0.0
C381 C 0.16903 0.78622 0.46863 0.0
C382 C 0.21134 0.82821 0.47512 0.0
H383 H 0.51397 0.33016 0.84628 0.0
H384 H 0.40588 0.31625 0.8034 0.0
H385 H 0.39311 0.23703 0.79311 0.0
H386 H 0.42152 0.17784 0.79277 0.0
H387 H 0.52951 0.19103 0.8352 0.0
H388 H 0.53309 0.2641 0.84938 0.0
C389 C 0.48694 0.30942 0.83495 0.0
C390 C 0.46174 0.32973 0.82535 0.0
C391 C 0.48009 0.26394 0.82889 0.0
C392 C 0.42629 0.30192 0.81091 0.0
C393 C 0.41903 0.25659 0.80493 0.0
C394 C 0.44492 0.19623 0.80543 0.0
C395 C 0.47551 0.17979 0.81291 0.0
C396 C 0.44708 0.23823 0.81327 0.0
C397 C 0.50562 0.20331 0.82932 0.0
C398 C 0.50789 0.24517 0.83729 0.0
H399 H 0.55309 0.84446 0.48635 0.0
H400 H 0.5741 0.8983 0.54632 0.0
H401 H 0.58145 0.82929 0.55782 0.0
H402 H 0.56822 0.74787 0.55165 0.0
H403 H 0.53865 0.68865 0.49248 0.0
H404 H 0.5494 0.76583 0.47961 0.0
C405 C 0.56066 0.84153 0.5018 0.0
C406 C 0.56277 0.87575 0.51557 0.0
C407 C 0.56261 0.80056 0.50842 0.0
C408 C 0.57206 0.87186 0.53559 0.0
C409 C 0.57609 0.83246 0.54215 0.0
C410 C 0.56481 0.75223 0.5359 0.0
C411 C 0.55169 0.71275 0.52304 0.0
C412 C 0.56919 0.79561 0.52884 0.0
C413 C 0.54846 0.71876 0.50262 0.0
C414 C 0.55427 0.76265 0.49531 0.0
H415 H 0.70709 0.50269 0.81103 0.0
H416 H 0.70964 0.59296 0.85929 0.0
H417 H 0.78228 0.59529 0.87317 0.0
H418 H 0.83685 0.56145 0.87417 0.0
H419 H 0.83419 0.46943 0.82666 0.0
H420 H 0.77006 0.47794 0.80969 0.0
C421 C 0.72485 0.52422 0.82417 0.0
C422 C 0.70387 0.54805 0.83412 0.0
C423 C 0.76576 0.52412 0.83236 0.0
C424 C 0.72598 0.57495 0.85137 0.0
C425 C 0.76707 0.57586 0.85939 0.0
C426 C 0.82263 0.54399 0.85994 0.0
C427 C 0.83927 0.5144 0.8517 0.0
C428 C 0.78597 0.54896 0.85044 0.0
C429 C 0.82141 0.49223 0.8332 0.0
C430 C 0.78479 0.497 0.82357 0.0
H431 H 0.14157 0.69812 0.15068 0.0
H432 H 0.06271 0.70006 0.20249 0.0
H433 H 0.13502 0.77417 0.21414 0.0
H434 H 0.22278 0.83182 0.21176 0.0
H435 H 0.30168 0.83278 0.15946 0.0
H436 H 0.22714 0.76355 0.14606 0.0
C437 C 0.13995 0.71517 0.16436 0.0
C438 C 0.09692 0.69304 0.17581 0.0
C439 C 0.18184 0.75777 0.1711 0.0
C440 C 0.09532 0.71604 0.19339 0.0
C441 C 0.13679 0.75836 0.20015 0.0
C442 C 0.22369 0.81807 0.19716 0.0
C443 C 0.26832 0.83729 0.18684 0.0
C444 C 0.18061 0.77865 0.18942 0.0
C445 C 0.26834 0.81805 0.16804 0.0
C446 C 0.22559 0.77859 0.16028 0.0
H447 H 0.54798 0.19229 0.49376 0.0
H448 H 0.39189 0.09308 0.4941 0.0
H449 H 0.37814 0.16118 0.50134 0.0
H450 H 0.41209 0.24609 0.51341 0.0
H451 H 0.56875 0.34318 0.51408 0.0
H452 H 0.58096 0.27888 0.50035 0.0
C453 C 0.51092 0.18586 0.49501 0.0
C454 C 0.47102 0.13807 0.49383 0.0
C455 C 0.50359 0.22466 0.49957 0.0
C456 C 0.4231 0.12983 0.49506 0.0
C457 C 0.41532 0.16862 0.49935 0.0
C458 C 0.44869 0.25332 0.51001 0.0
C459 C 0.48957 0.29864 0.51506 0.0
C460 C 0.45545 0.2158 0.50252 0.0
C461 C 0.53693 0.30804 0.51061 0.0
C462 C 0.5439 0.2714 0.50279 0.0
H463 H 0.31843 0.42576 0.83369 0.0
H464 H 0.39357 0.58334 0.83607 0.0
H465 H 0.31897 0.58037 0.84743 0.0
H466 H 0.23554 0.5334 0.85992 0.0
H467 H 0.16066 0.3759 0.85975 0.0
H468 H 0.23162 0.37826 0.84397 0.0
C469 C 0.31802 0.45934 0.8363 0.0
C470 C 0.36136 0.50468 0.8342 0.0
C471 C 0.27529 0.45736 0.84343 0.0
C472 C 0.36065 0.54801 0.83777 0.0
C473 C 0.3181 0.54637 0.8443 0.0
C474 C 0.23476 0.49958 0.85641 0.0
C475 C 0.19347 0.45461 0.86129 0.0
C476 C 0.27578 0.5013 0.84778 0.0
C477 C 0.19224 0.411 0.85617 0.0
C478 C 0.23284 0.41235 0.84724 0.0
H479 H 0.87198 0.32064 0.2007 0.0
H480 H 0.79617 0.32333 0.14786 0.0
H481 H 0.72763 0.24237 0.15566 0.0
H482 H 0.68533 0.17503 0.17943 0.0
H483 H 0.7596 0.17477 0.233 0.0
H484 H 0.83287 0.2503 0.22288 0.0
C485 C 0.84081 0.30333 0.19072 0.0
C486 C 0.83907 0.32839 0.17385 0.0
C487 C 0.80108 0.25723 0.19549 0.0
C488 C 0.79837 0.30515 0.16106 0.0
C489 C 0.75907 0.25882 0.16551 0.0
C490 C 0.71803 0.191 0.18861 0.0
C491 C 0.71723 0.16971 0.20693 0.0
C492 C 0.75947 0.23511 0.18295 0.0
C493 C 0.75947 0.19088 0.21888 0.0
C494 C 0.80123 0.23404 0.21312 0.0
H495 H 0.04505 0.53124 0.08763 0.0
H496 H 0.89165 0.487 0.08655 0.0
H497 H 0.89093 0.48208 0.05043 0.0
H498 H 0.93351 0.4894 0.01933 0.0
H499 H 0.08487 0.52529 0.02061 0.0
H500 H 0.08697 0.53555 0.05638 0.0
C501 C 0.01162 0.52089 0.07943 0.0
C502 C 0.96855 0.50974 0.08967 0.0
C503 C 0.01111 0.51679 0.05871 0.0
C504 C 0.92524 0.49563 0.07896 0.0
C505 C 0.92481 0.49286 0.05833 0.0
C506 C 0.96687 0.49877 0.02736 0.0
C507 C 0.00896 0.50664 0.01707 0.0
C508 C 0.96744 0.50296 0.04806 0.0
C509 C 0.05206 0.51991 0.02792 0.0
C510 C 0.05325 0.52538 0.04847 0.0
H511 H 0.42326 0.95334 0.42085 0.0
H512 H 0.57625 -0.00465 0.42157 0.0
H513 H 0.57683 -0.00705 0.38551 0.0
H514 H 0.53512 0.98287 0.35371 0.0
H515 H 0.38168 0.93769 0.35254 0.0
H516 H 0.37974 0.93694 0.38886 0.0
C517 C 0.45662 0.96176 0.41309 0.0
C518 C 0.49973 0.97491 0.42386 0.0
C519 C 0.45661 0.95978 0.39231 0.0
C520 C 0.54255 0.98508 0.41364 0.0
C521 C 0.543 0.98388 0.39301 0.0
C522 C 0.50127 0.97262 0.36149 0.0
C523 C 0.45872 0.96078 0.35067 0.0
C524 C 0.50045 0.97188 0.38222 0.0
C525 C 0.4148 0.94688 0.36071 0.0
C526 C 0.41379 0.94668 0.38141 0.0
H527 H 0.56756 0.56354 0.74434 0.0
H528 H 0.45167 0.41491 0.75371 0.0
H529 H 0.44003 0.40197 0.71797 0.0
H530 H 0.46165 0.43363 0.684 0.0
H531 H 0.57286 0.58383 0.67469 0.0
H532 H 0.58777 0.59575 0.71045 0.0
C533 C 0.54004 0.52827 0.7385 0.0
C534 C 0.51067 0.49016 0.75154 0.0
C535 C 0.53267 0.52153 0.718 0.0
C536 C 0.47459 0.44481 0.74389 0.0
C537 C 0.46796 0.43737 0.72349 0.0
C538 C 0.48919 0.46879 0.68992 0.0
C539 C 0.51639 0.5078 0.67702 0.0
C540 C 0.49657 0.47554 0.71042 0.0
C541 C 0.55168 0.55348 0.68458 0.0
C542 C 0.56016 0.56021 0.70493 0.0
H543 H 0.44448 0.95554 0.58065 0.0
H544 H 0.57673 0.09634 0.57658 0.0
H545 H 0.57999 0.10379 0.61263 0.0
H546 H 0.5479 0.06816 0.64526 0.0
H547 H 0.41393 0.92869 0.64914 0.0
H548 H 0.40927 0.92267 0.61314 0.0
C549 C 0.47396 0.98799 0.58762 0.0
C550 C 0.51052 0.02513 0.57593 0.0
C551 C 0.47559 -0.00791 0.60831 0.0
C552 C 0.5481 0.06717 0.58522 0.0
C553 C 0.5501 0.0714 0.60584 0.0
C554 C 0.51718 0.03682 0.63827 0.0
C555 C 0.4816 -0.00127 0.64997 0.0
C556 C 0.51435 0.03381 0.61753 0.0
C557 C 0.44243 0.95809 0.64056 0.0
C558 C 0.43953 0.95474 0.61995 0.0
H559 H 0.47394 0.54506 0.90374 0.0
H560 H 0.58006 0.49772 0.90732 0.0
H561 H 0.5711 0.49112 0.94328 0.0
H562 H 0.53157 0.49658 0.97338 0.0
H563 H 0.41954 0.5363 0.96959 0.0
H564 H 0.43312 0.54912 0.93404 0.0
C565 C 0.49543 0.53383 0.91246 0.0
C566 C 0.52771 0.52206 0.90302 0.0
C567 C 0.48901 0.5287 0.93303 0.0
C568 C 0.55488 0.50682 0.91435 0.0
C569 C 0.54977 0.50304 0.93486 0.0
C570 C 0.50956 0.50738 0.96479 0.0
C571 C 0.47443 0.51523 0.9742 0.0
C572 C 0.51647 0.51327 0.9443 0.0
C573 C 0.44727 0.53054 0.96282 0.0
C574 C 0.45476 0.53758 0.94245 0.0
H575 H 0.00524 0.4845 0.24751 0.0
H576 H 0.91567 0.55164 0.24398 0.0
H577 H 0.91426 0.55572 0.28002 0.0
H578 H 0.93903 0.54093 0.31253 0.0
H579 H 0.03039 0.47604 0.31614 0.0
H580 H 0.03083 0.47064 0.28001 0.0
C581 C 0.98523 0.49984 0.25462 0.0
C582 C 0.96047 0.51757 0.24307 0.0
C583 C 0.98506 0.50265 0.27533 0.0
C584 C 0.93514 0.53781 0.25252 0.0
C585 C 0.93425 0.54012 0.27312 0.0
C586 C 0.95873 0.52532 0.30536 0.0
C587 C 0.98446 0.50872 0.31688 0.0
C588 C 0.95912 0.52272 0.28466 0.0
C589 C 0.01056 0.48931 0.3075 0.0
C590 C 0.01066 0.48605 0.28689 0.0
loop_
_geom_bond_atom_site_label_1
_geom_bond_atom_site_label_2
_geom_bond_distance
_geom_bond_site_symmetry_2
_ccdc_geom_bond_type
O0 Zn1 1.954 1_655 S
O0 C16 1.225 1_655 S
Zn1 O0 1.954 1_455 S
Zn1 O2 1.958 . S
Zn1 O8 1.903 1_455 S
Zn1 O13 1.931 . S
O2 Zn1 1.958 . S
O2 Zn3 1.923 1_455 S
O2 Zn4 1.950 . S
O2 Zn5 1.945 . S
Zn3 O2 1.923 1_655 S
Zn3 O6 1.933 . S
Zn3 O9 1.941 . S
Zn3 O10 1.965 . S
Zn4 O2 1.950 . S
Zn4 O11 1.938 1_455 S
Zn4 O12 1.906 . S
Zn4 O22 1.953 . S
Zn5 O2 1.945 . S
Zn5 O7 1.932 . S
Zn5 O14 1.977 . S
Zn5 O15 1.910 . S
O6 Zn3 1.933 . S
O6 C17 1.226 1_655 S
O7 Zn5 1.932 . S
O7 C17 1.307 . S
O8 Zn1 1.903 1_655 S
O8 C19 1.253 . S
O9 Zn3 1.941 . S
O9 C19 1.283 . S
O10 Zn3 1.965 . S
O10 C18 1.303 . S
O11 Zn4 1.938 1_655 S
O11 C18 1.247 . S
O12 Zn4 1.906 . S
O12 C20 1.304 . S
O13 Zn1 1.931 . S
O13 C21 1.311 . S
O14 Zn5 1.977 . S
O14 C20 1.272 . S
O15 Zn5 1.910 . S
O15 C21 1.231 . S
C16 O0 1.225 1_455 S
C16 O22 1.298 . S
C17 O6 1.226 1_455 S
C17 O7 1.307 . S
C18 O10 1.303 . S
C18 O11 1.247 . S
C19 O8 1.253 . S
C19 O9 1.283 . S
C20 O12 1.304 . S
C20 O14 1.272 . S
C21 O13 1.311 . S
C21 O15 1.231 . S
O22 Zn4 1.953 . S
O22 C16 1.298 . S
O23 Zn24 1.953 . S
O23 C39 1.225 . S
Zn24 O23 1.953 . S
Zn24 O25 1.949 . S
Zn24 O31 1.919 . S
Zn24 O36 1.924 1_545 S
O25 Zn24 1.949 . S
O25 Zn26 1.923 . S
O25 Zn27 1.950 1_545 S
O25 Zn28 1.945 1_545 S
Zn26 O25 1.923 . S
Zn26 O29 1.933 . S
Zn26 O32 1.941 . S
Zn26 O33 1.965 . S
Zn27 O25 1.950 1_565 S
Zn27 O34 1.938 1_565 S
Zn27 O35 1.906 . S
Zn27 O45 1.953 . S
Zn28 O25 1.945 1_565 S
Zn28 O30 1.932 . S
Zn28 O37 1.977 . S
Zn28 O38 1.910 . S
O29 Zn26 1.933 . S
O29 C40 1.226 . S
O30 Zn28 1.932 . S
O30 C40 1.307 1_565 S
O31 Zn24 1.919 . S
O31 C42 1.253 . S
O32 Zn26 1.941 . S
O32 C42 1.283 . S
O33 Zn26 1.965 . S
O33 C41 1.303 . S
O34 Zn27 1.938 1_545 S
O34 C41 1.247 . S
O35 Zn27 1.906 . S
O35 C43 1.304 . S
O36 Zn24 1.924 1_565 S
O36 C44 1.311 . S
O37 Zn28 1.977 . S
O37 C43 1.272 . S
O38 Zn28 1.910 . S
O38 C44 1.231 . S
C39 O23 1.225 . S
C39 O45 1.298 1_545 S
C40 O29 1.226 . S
C40 O30 1.307 1_545 S
C41 O33 1.303 . S
C41 O34 1.247 . S
C42 O31 1.253 . S
C42 O32 1.283 . S
C43 O35 1.304 . S
C43 O37 1.272 . S
C44 O36 1.311 . S
C44 O38 1.231 . S
O45 Zn27 1.953 . S
O45 C39 1.298 1_565 S
O46 Zn47 1.953 . S
O46 C62 1.225 . S
Zn47 O46 1.953 . S
Zn47 O48 1.949 . S
Zn47 O54 1.919 . S
Zn47 O59 1.924 . S
O48 Zn47 1.949 . S
O48 Zn49 1.923 . S
O48 Zn50 1.950 . S
O48 Zn51 1.945 . S
Zn49 O48 1.923 . S
Zn49 O52 1.933 . S
Zn49 O55 1.941 . S
Zn49 O56 1.965 . S
Zn50 O48 1.950 . S
Zn50 O57 1.938 . S
Zn50 O58 1.906 . S
Zn50 O68 1.953 . S
Zn51 O48 1.945 . S
Zn51 O53 1.932 . S
Zn51 O60 1.977 . S
Zn51 O61 1.910 . S
O52 Zn49 1.933 . S
O52 C63 1.226 . S
O53 Zn51 1.932 . S
O53 C63 1.307 . S
O54 Zn47 1.919 . S
O54 C65 1.253 . S
O55 Zn49 1.941 . S
O55 C65 1.283 . S
O56 Zn49 1.965 . S
O56 C64 1.303 . S
O57 Zn50 1.938 . S
O57 C64 1.247 . S
O58 Zn50 1.906 . S
O58 C66 1.304 . S
O59 Zn47 1.924 . S
O59 C67 1.311 . S
O60 Zn51 1.977 . S
O60 C66 1.272 . S
O61 Zn51 1.910 . S
O61 C67 1.231 . S
C62 O46 1.225 . S
C62 O68 1.298 . S
C63 O52 1.226 . S
C63 O53 1.307 . S
C64 O56 1.303 . S
C64 O57 1.247 . S
C65 O54 1.253 . S
C65 O55 1.283 . S
C66 O58 1.304 . S
C66 O60 1.272 . S
C67 O59 1.311 . S
C67 O61 1.231 . S
O68 Zn50 1.953 . S
O68 C62 1.298 . S
C69 C70 1.386 . S
C69 C71 1.397 . S
C69 H93 0.931 . S
C70 C69 1.386 . S
C70 C74 1.397 1_545 S
C71 C69 1.397 . S
C71 C72 1.384 . S
C71 H94 0.930 . S
C72 C71 1.384 . S
C72 C73 1.377 1_545 S
C72 C75 1.481 . S
C73 C72 1.377 1_565 S
C73 C74 1.389 . S
C73 H95 0.929 . S
C74 C70 1.397 1_565 S
C74 C73 1.389 . S
C74 H96 0.931 . S
C75 C72 1.481 . S
C75 C76 1.387 . S
C75 C80 1.390 1_545 S
C76 C75 1.387 . S
C76 C77 1.401 . S
C76 H97 0.930 . S
C77 C76 1.401 . S
C77 C78 1.376 . S
C77 C86 1.511 . S
C78 C77 1.376 . S
C78 C79 1.392 1_545 S
C78 H99 0.931 . S
C79 C78 1.392 1_565 S
C79 C80 1.361 . S
C79 C81 1.500 . S
C80 C75 1.390 1_565 S
C80 C79 1.361 . S
C80 H98 0.931 . S
C81 C79 1.500 . S
C81 C82 1.371 . S
C81 C83 1.365 . S
C82 C81 1.371 . S
C82 C92 1.386 . S
C82 H100 0.931 . S
C83 C81 1.365 . S
C83 C84 1.409 . S
C83 H101 0.929 . S
C84 C83 1.409 . S
C84 C85 1.380 . S
C84 H102 0.930 . S
C85 C84 1.380 . S
C85 C92 1.357 . S
C86 C77 1.511 . S
C86 C87 1.341 . S
C86 C88 1.371 . S
C87 C86 1.341 . S
C87 C91 1.394 . S
C87 H103 0.930 . S
C88 C86 1.371 . S
C88 C89 1.392 . S
C88 H104 0.931 . S
C89 C88 1.392 . S
C89 C90 1.331 . S
C89 H107 0.932 . S
C90 C89 1.331 . S
C90 C91 1.336 . S
C91 C87 1.394 . S
C91 C90 1.336 . S
C91 H106 0.929 . S
C92 C82 1.386 . S
C92 C85 1.357 . S
C92 H105 0.928 . S
H93 C69 0.931 . S
H94 C71 0.930 . S
H95 C73 0.929 . S
H96 C74 0.931 . S
H97 C76 0.930 . S
H98 C80 0.931 . S
H99 C78 0.931 . S
H100 C82 0.931 . S
H101 C83 0.929 . S
H102 C84 0.930 . S
H103 C87 0.930 . S
H104 C88 0.931 . S
H105 C92 0.928 . S
H106 C91 0.929 . S
H107 C89 0.932 . S
C108 C109 1.386 . S
C108 C110 1.397 . S
C108 H132 0.931 . S
C109 C108 1.386 . S
C109 C113 1.397 . S
C110 C108 1.397 . S
C110 C111 1.384 . S
C110 H133 0.930 . S
C111 C110 1.384 . S
C111 C112 1.377 . S
C111 C114 1.481 . S
C112 C111 1.377 . S
C112 C113 1.389 . S
C112 H134 0.929 . S
C113 C109 1.397 . S
C113 C112 1.389 . S
C113 H135 0.931 . S
C114 C111 1.481 . S
C114 C115 1.387 . S
C114 C119 1.390 . S
C115 C114 1.387 . S
C115 C116 1.401 . S
C115 H136 0.930 . S
C116 C115 1.401 . S
C116 C117 1.376 . S
C116 C125 1.511 . S
C117 C116 1.376 . S
C117 C118 1.392 . S
C117 H138 0.931 . S
C118 C117 1.392 . S
C118 C119 1.361 . S
C118 C120 1.500 . S
C119 C114 1.390 . S
C119 C118 1.361 . S
C119 H137 0.931 . S
C120 C118 1.500 . S
C120 C121 1.371 . S
C120 C122 1.365 . S
C121 C120 1.371 . S
C121 C131 1.386 . S
C121 H139 0.931 . S
C122 C120 1.365 . S
C122 C123 1.409 . S
C122 H140 0.929 . S
C123 C122 1.409 . S
C123 C124 1.380 . S
C123 H141 0.930 . S
C124 C123 1.380 . S
C124 C131 1.357 . S
C125 C116 1.511 . S
C125 C126 1.341 . S
C125 C127 1.371 . S
C126 C125 1.341 . S
C126 C130 1.394 . S
C126 H142 0.930 . S
C127 C125 1.371 . S
C127 C128 1.392 . S
C127 H143 0.931 . S
C128 C127 1.392 . S
C128 C129 1.331 . S
C128 H146 0.932 . S
C129 C128 1.331 . S
C129 C130 1.336 . S
C130 C126 1.394 . S
C130 C129 1.336 . S
C130 H145 0.929 . S
C131 C121 1.386 . S
C131 C124 1.357 . S
C131 H144 0.928 . S
H132 C108 0.931 . S
H133 C110 0.930 . S
H134 C112 0.929 . S
H135 C113 0.931 . S
H136 C115 0.930 . S
H137 C119 0.931 . S
H138 C117 0.931 . S
H139 C121 0.931 . S
H140 C122 0.929 . S
H141 C123 0.930 . S
H142 C126 0.930 . S
H143 C127 0.931 . S
H144 C131 0.928 . S
H145 C130 0.929 . S
H146 C128 0.932 . S
C147 C148 1.386 . S
C147 C149 1.397 . S
C147 H171 0.931 . S
C148 C147 1.386 . S
C148 C152 1.397 1_455 S
C149 C147 1.397 . S
C149 C150 1.384 . S
C149 H172 0.930 . S
C150 C149 1.384 . S
C150 C151 1.377 1_455 S
C150 C153 1.481 . S
C151 C150 1.377 1_655 S
C151 C152 1.389 . S
C151 H173 0.929 . S
C152 C148 1.397 1_655 S
C152 C151 1.389 . S
C152 H174 0.931 . S
C153 C150 1.481 . S
C153 C154 1.387 . S
C153 C158 1.390 1_455 S
C154 C153 1.387 . S
C154 C155 1.401 . S
C154 H175 0.930 . S
C155 C154 1.401 . S
C155 C156 1.376 . S
C155 C164 1.511 . S
C156 C155 1.376 . S
C156 C157 1.392 1_455 S
C156 H177 0.931 . S
C157 C156 1.392 1_655 S
C157 C158 1.361 . S
C157 C159 1.500 . S
C158 C153 1.390 1_655 S
C158 C157 1.361 . S
C158 H176 0.931 . S
C159 C157 1.500 . S
C159 C160 1.371 . S
C159 C161 1.365 . S
C160 C159 1.371 . S
C160 C170 1.386 . S
C160 H178 0.931 . S
C161 C159 1.365 . S
C161 C162 1.409 . S
C161 H179 0.929 . S
C162 C161 1.409 . S
C162 C163 1.380 . S
C162 H180 0.930 . S
C163 C162 1.380 . S
C163 C170 1.357 . S
C164 C155 1.511 . S
C164 C165 1.341 . S
C164 C166 1.371 . S
C165 C164 1.341 . S
C165 C169 1.394 . S
C165 H181 0.930 . S
C166 C164 1.371 . S
C166 C167 1.392 . S
C166 H182 0.931 . S
C167 C166 1.392 . S
C167 C168 1.331 . S
C167 H185 0.932 . S
C168 C167 1.331 . S
C168 C169 1.336 . S
C169 C165 1.394 . S
C169 C168 1.336 . S
C169 H184 0.929 . S
C170 C160 1.386 . S
C170 C163 1.357 . S
C170 H183 0.928 . S
H171 C147 0.931 . S
H172 C149 0.930 . S
H173 C151 0.929 . S
H174 C152 0.931 . S
H175 C154 0.930 . S
H176 C158 0.931 . S
H177 C156 0.931 . S
H178 C160 0.931 . S
H179 C161 0.929 . S
H180 C162 0.930 . S
H181 C165 0.930 . S
H182 C166 0.931 . S
H183 C170 0.928 . S
H184 C169 0.929 . S
H185 C167 0.932 . S
C186 C187 1.386 1_655 S
C186 C188 1.397 . S
C186 H210 0.931 . S
C187 C186 1.386 1_455 S
C187 C191 1.397 . S
C188 C186 1.397 . S
C188 C189 1.384 1_655 S
C188 H211 0.930 . S
C189 C188 1.384 1_455 S
C189 C190 1.377 . S
C189 C192 1.481 . S
C190 C189 1.377 . S
C190 C191 1.389 . S
C190 H212 0.929 . S
C191 C187 1.397 . S
C191 C190 1.389 . S
C191 H213 0.931 . S
C192 C189 1.481 . S
C192 C193 1.387 1_455 S
C192 C197 1.390 . S
C193 C192 1.387 1_655 S
C193 C194 1.401 . S
C193 H214 0.930 . S
C194 C193 1.401 . S
C194 C195 1.376 1_655 S
C194 C203 1.511 . S
C195 C194 1.376 1_455 S
C195 C196 1.392 . S
C195 H216 0.931 . S
C196 C195 1.392 . S
C196 C197 1.361 . S
C196 C198 1.500 . S
C197 C192 1.390 . S
C197 C196 1.361 . S
C197 H215 0.931 . S
C198 C196 1.500 . S
C198 C199 1.371 . S
C198 C200 1.365 . S
C199 C198 1.371 . S
C199 C209 1.386 . S
C199 H217 0.931 . S
C200 C198 1.365 . S
C200 C201 1.409 . S
C200 H218 0.929 . S
C201 C200 1.409 . S
C201 C202 1.380 . S
C201 H219 0.930 . S
C202 C201 1.380 . S
C202 C209 1.357 . S
C203 C194 1.511 . S
C203 C204 1.341 . S
C203 C205 1.371 . S
C204 C203 1.341 . S
C204 C208 1.394 . S
C204 H220 0.930 . S
C205 C203 1.371 . S
C205 C206 1.392 . S
C205 H221 0.931 . S
C206 C205 1.392 . S
C206 C207 1.331 . S
C206 H224 0.932 . S
C207 C206 1.331 . S
C207 C208 1.336 . S
C208 C204 1.394 . S
C208 C207 1.336 . S
C208 H223 0.929 . S
C209 C199 1.386 . S
C209 C202 1.357 . S
C209 H222 0.928 . S
H210 C186 0.931 . S
H211 C188 0.930 . S
H212 C190 0.929 . S
H213 C191 0.931 . S
H214 C193 0.930 . S
H215 C197 0.931 . S
H216 C195 0.931 . S
H217 C199 0.931 . S
H218 C200 0.929 . S
H219 C201 0.930 . S
H220 C204 0.930 . S
H221 C205 0.931 . S
H222 C209 0.928 . S
H223 C208 0.929 . S
H224 C206 0.932 . S
C225 C226 1.386 1_565 S
C225 C227 1.397 . S
C225 H249 0.931 . S
C226 C225 1.386 1_545 S
C226 C230 1.397 . S
C227 C225 1.397 . S
C227 C228 1.384 1_565 S
C227 H250 0.930 . S
C228 C227 1.384 1_545 S
C228 C229 1.377 . S
C228 C231 1.481 . S
C229 C228 1.377 . S
C229 C230 1.389 . S
C229 H251 0.929 . S
C230 C226 1.397 . S
C230 C229 1.389 . S
C230 H252 0.931 . S
C231 C228 1.481 . S
C231 C232 1.387 1_545 S
C231 C236 1.390 . S
C232 C231 1.387 1_565 S
C232 C233 1.401 . S
C232 H253 0.930 . S
C233 C232 1.401 . S
C233 C234 1.376 1_565 S
C233 C242 1.511 . S
C234 C233 1.376 1_545 S
C234 C235 1.392 . S
C234 H255 0.931 . S
C235 C234 1.392 . S
C235 C236 1.361 . S
C235 C237 1.500 . S
C236 C231 1.390 . S
C236 C235 1.361 . S
C236 H254 0.931 . S
C237 C235 1.500 . S
C237 C238 1.371 . S
C237 C239 1.365 . S
C238 C237 1.371 . S
C238 C248 1.386 . S
C238 H256 0.931 . S
C239 C237 1.365 . S
C239 C240 1.409 . S
C239 H257 0.929 . S
C240 C239 1.409 . S
C240 C241 1.380 . S
C240 H258 0.930 . S
C241 C240 1.380 . S
C241 C248 1.357 . S
C242 C233 1.511 . S
C242 C243 1.341 . S
C242 C244 1.371 . S
C243 C242 1.341 . S
C243 C247 1.394 . S
C243 H259 0.930 . S
C244 C242 1.371 . S
C244 C245 1.392 . S
C244 H260 0.931 . S
C245 C244 1.392 . S
C245 C246 1.331 . S
C245 H263 0.932 . S
C246 C245 1.331 . S
C246 C247 1.336 . S
C247 C243 1.394 . S
C247 C246 1.336 . S
C247 H262 0.929 . S
C248 C238 1.386 . S
C248 C241 1.357 . S
C248 H261 0.928 . S
H249 C225 0.931 . S
H250 C227 0.930 . S
H251 C229 0.929 . S
H252 C230 0.931 . S
H253 C232 0.930 . S
H254 C236 0.931 . S
H255 C234 0.931 . S
H256 C238 0.931 . S
H257 C239 0.929 . S
H258 C240 0.930 . S
H259 C243 0.930 . S
H260 C244 0.931 . S
H261 C248 0.928 . S
H262 C247 0.929 . S
H263 C245 0.932 . S
C264 C265 1.386 . S
C264 C266 1.397 . S
C264 H288 0.931 . S
C265 C264 1.386 . S
C265 C269 1.397 . S
C266 C264 1.397 . S
C266 C267 1.384 . S
C266 H289 0.930 . S
C267 C266 1.384 . S
C267 C268 1.377 . S
C267 C270 1.481 . S
C268 C267 1.377 . S
C268 C269 1.389 . S
C268 H290 0.929 . S
C269 C265 1.397 . S
C269 C268 1.389 . S
C269 H291 0.931 . S
C270 C267 1.481 . S
C270 C271 1.387 . S
C270 C275 1.390 . S
C271 C270 1.387 . S
C271 C272 1.401 . S
C271 H292 0.930 . S
C272 C271 1.401 . S
C272 C273 1.376 . S
C272 C281 1.511 . S
C273 C272 1.376 . S
C273 C274 1.392 . S
C273 H294 0.931 . S
C274 C273 1.392 . S
C274 C275 1.361 . S
C274 C276 1.500 . S
C275 C270 1.390 . S
C275 C274 1.361 . S
C275 H293 0.931 . S
C276 C274 1.500 . S
C276 C277 1.371 . S
C276 C278 1.365 . S
C277 C276 1.371 . S
C277 C287 1.386 . S
C277 H295 0.931 . S
C278 C276 1.365 . S
C278 C279 1.409 . S
C278 H296 0.929 . S
C279 C278 1.409 . S
C279 C280 1.380 . S
C279 H297 0.930 . S
C280 C279 1.380 . S
C280 C287 1.357 . S
C281 C272 1.511 . S
C281 C282 1.341 . S
C281 C283 1.371 . S
C282 C281 1.341 . S
C282 C286 1.394 . S
C282 H298 0.930 . S
C283 C281 1.371 . S
C283 C284 1.392 . S
C283 H299 0.931 . S
C284 C283 1.392 . S
C284 C285 1.331 . S
C284 H302 0.932 . S
C285 C284 1.331 . S
C285 C286 1.336 . S
C286 C282 1.394 . S
C286 C285 1.336 . S
C286 H301 0.929 . S
C287 C277 1.386 . S
C287 C280 1.357 . S
C287 H300 0.928 . S
H288 C264 0.931 . S
H289 C266 0.930 . S
H290 C268 0.929 . S
H291 C269 0.931 . S
H292 C271 0.930 . S
H293 C275 0.931 . S
H294 C273 0.931 . S
H295 C277 0.931 . S
H296 C278 0.929 . S
H297 C279 0.930 . S
H298 C282 0.930 . S
H299 C283 0.931 . S
H300 C287 0.928 . S
H301 C286 0.929 . S
H302 C284 0.932 . S
H303 C309 0.930 . S
H304 C312 0.930 . S
H305 C313 0.930 . S
H306 C314 0.930 . S
H307 C317 0.930 . S
H308 C318 0.930 . S
C309 H303 0.930 . S
C309 C310 1.355 . S
C309 C311 1.415 . S
C310 C309 1.355 . S
C310 C312 1.419 . S
C311 C309 1.415 . S
C311 C316 1.425 . S
C311 C318 1.409 . S
C312 H304 0.930 . S
C312 C310 1.419 . S
C312 C313 1.362 . S
C313 H305 0.930 . S
C313 C312 1.362 . S
C313 C316 1.409 . S
C314 H306 0.930 . S
C314 C315 1.355 . S
C314 C316 1.415 . S
C315 C314 1.355 . S
C315 C317 1.419 . S
C316 C311 1.425 . S
C316 C313 1.409 . S
C316 C314 1.415 . S
C317 H307 0.930 . S
C317 C315 1.419 . S
C317 C318 1.362 . S
C318 H308 0.930 . S
C318 C311 1.409 . S
C318 C317 1.362 . S
H319 C325 0.930 . S
H320 C328 0.930 . S
H321 C329 0.930 . S
H322 C330 0.930 . S
H323 C333 0.930 . S
H324 C334 0.930 . S
C325 H319 0.930 . S
C325 C326 1.355 . S
C325 C327 1.415 . S
C326 C325 1.355 . S
C326 C328 1.419 . S
C327 C325 1.415 . S
C327 C332 1.425 . S
C327 C334 1.409 . S
C328 H320 0.930 . S
C328 C326 1.419 . S
C328 C329 1.362 . S
C329 H321 0.930 . S
C329 C328 1.362 . S
C329 C332 1.409 . S
C330 H322 0.930 . S
C330 C331 1.355 . S
C330 C332 1.415 . S
C331 C330 1.355 . S
C331 C333 1.419 . S
C332 C327 1.425 . S
C332 C329 1.409 . S
C332 C330 1.415 . S
C333 H323 0.930 . S
C333 C331 1.419 . S
C333 C334 1.362 . S
C334 H324 0.930 . S
C334 C327 1.409 . S
C334 C333 1.362 . S
H335 C341 0.930 . S
H336 C344 0.930 . S
H337 C345 0.930 . S
H338 C346 0.930 . S
H339 C349 0.930 . S
H340 C350 0.930 . S
C341 H335 0.930 . S
C341 C342 1.355 . S
C341 C343 1.415 . S
C342 C341 1.355 . S
C342 C344 1.419 . S
C343 C341 1.415 . S
C343 C348 1.425 . S
C343 C350 1.409 . S
C344 H336 0.930 . S
C344 C342 1.419 . S
C344 C345 1.362 . S
C345 H337 0.930 . S
C345 C344 1.362 . S
C345 C348 1.409 . S
C346 H338 0.930 . S
C346 C347 1.355 . S
C346 C348 1.415 . S
C347 C346 1.355 . S
C347 C349 1.419 . S
C348 C343 1.425 . S
C348 C345 1.409 . S
C348 C346 1.415 . S
C349 H339 0.930 . S
C349 C347 1.419 . S
C349 C350 1.362 . S
C350 H340 0.930 . S
C350 C343 1.409 . S
C350 C349 1.362 . S
H351 C357 0.930 . S
H352 C360 0.930 . S
H353 C361 0.930 . S
H354 C362 0.930 . S
H355 C365 0.930 . S
H356 C366 0.930 . S
C357 H351 0.930 . S
C357 C358 1.355 . S
C357 C359 1.415 . S
C358 C357 1.355 . S
C358 C360 1.419 . S
C359 C357 1.415 . S
C359 C364 1.425 . S
C359 C366 1.409 . S
C360 H352 0.930 . S
C360 C358 1.419 . S
C360 C361 1.362 . S
C361 H353 0.930 . S
C361 C360 1.362 . S
C361 C364 1.409 . S
C362 H354 0.930 . S
C362 C363 1.355 . S
C362 C364 1.415 . S
C363 C362 1.355 . S
C363 C365 1.419 . S
C364 C359 1.425 . S
C364 C361 1.409 . S
C364 C362 1.415 . S
C365 H355 0.930 . S
C365 C363 1.419 . S
C365 C366 1.362 . S
C366 H356 0.930 . S
C366 C359 1.409 . S
C366 C365 1.362 . S
H367 C373 0.930 . S
H368 C376 0.930 . S
H369 C377 0.930 . S
H370 C378 0.930 . S
H371 C381 0.930 . S
H372 C382 0.930 . S
C373 H367 0.930 . S
C373 C374 1.355 . S
C373 C375 1.415 . S
C374 C373 1.355 . S
C374 C376 1.419 . S
C375 C373 1.415 . S
C375 C380 1.425 . S
C375 C382 1.409 . S
C376 H368 0.930 . S
C376 C374 1.419 . S
C376 C377 1.362 . S
C377 H369 0.930 . S
C377 C376 1.362 . S
C377 C380 1.409 . S
C378 H370 0.930 . S
C378 C379 1.355 . S
C378 C380 1.415 . S
C379 C378 1.355 . S
C379 C381 1.419 . S
C380 C375 1.425 . S
C380 C377 1.409 . S
C380 C378 1.415 . S
C381 H371 0.930 . S
C381 C379 1.419 . S
C381 C382 1.362 . S
C382 H372 0.930 . S
C382 C375 1.409 . S
C382 C381 1.362 . S
H383 C389 0.930 . S
H384 C392 0.930 . S
H385 C393 0.930 . S
H386 C394 0.930 . S
H387 C397 0.930 . S
H388 C398 0.930 . S
C389 H383 0.930 . S
C389 C390 1.355 . S
C389 C391 1.415 . S
C390 C389 1.355 . S
C390 C392 1.419 . S
C391 C389 1.415 . S
C391 C396 1.425 . S
C391 C398 1.409 . S
C392 H384 0.930 . S
C392 C390 1.419 . S
C392 C393 1.362 . S
C393 H385 0.930 . S
C393 C392 1.362 . S
C393 C396 1.409 . S
C394 H386 0.930 . S
C394 C395 1.355 . S
C394 C396 1.415 . S
C395 C394 1.355 . S
C395 C397 1.419 . S
C396 C391 1.425 . S
C396 C393 1.409 . S
C396 C394 1.415 . S
C397 H387 0.930 . S
C397 C395 1.419 . S
C397 C398 1.362 . S
C398 H388 0.930 . S
C398 C391 1.409 . S
C398 C397 1.362 . S
H399 C405 0.930 . S
H400 C408 0.930 . S
H401 C409 0.930 . S
H402 C410 0.930 . S
H403 C413 0.930 . S
H404 C414 0.930 . S
C405 H399 0.930 . S
C405 C406 1.355 . S
C405 C407 1.415 . S
C406 C405 1.355 . S
C406 C408 1.419 . S
C407 C405 1.415 . S
C407 C412 1.425 . S
C407 C414 1.409 . S
C408 H400 0.930 . S
C408 C406 1.419 . S
C408 C409 1.362 . S
C409 H401 0.930 . S
C409 C408 1.362 . S
C409 C412 1.409 . S
C410 H402 0.930 . S
C410 C411 1.355 . S
C410 C412 1.415 . S
C411 C410 1.355 . S
C411 C413 1.419 . S
C412 C407 1.425 . S
C412 C409 1.409 . S
C412 C410 1.415 . S
C413 H403 0.930 . S
C413 C411 1.419 . S
C413 C414 1.362 . S
C414 H404 0.930 . S
C414 C407 1.409 . S
C414 C413 1.362 . S
H415 C421 0.930 . S
H416 C424 0.930 . S
H417 C425 0.930 . S
H418 C426 0.930 . S
H419 C429 0.930 . S
H420 C430 0.930 . S
C421 H415 0.930 . S
C421 C422 1.355 . S
C421 C423 1.415 . S
C422 C421 1.355 . S
C422 C424 1.419 . S
C423 C421 1.415 . S
C423 C428 1.425 . S
C423 C430 1.409 . S
C424 H416 0.930 . S
C424 C422 1.419 . S
C424 C425 1.362 . S
C425 H417 0.930 . S
C425 C424 1.362 . S
C425 C428 1.409 . S
C426 H418 0.930 . S
C426 C427 1.355 . S
C426 C428 1.415 . S
C427 C426 1.355 . S
C427 C429 1.419 . S
C428 C423 1.425 . S
C428 C425 1.409 . S
C428 C426 1.415 . S
C429 H419 0.930 . S
C429 C427 1.419 . S
C429 C430 1.362 . S
C430 H420 0.930 . S
C430 C423 1.409 . S
C430 C429 1.362 . S
H431 C437 0.930 . S
H432 C440 0.930 . S
H433 C441 0.930 . S
H434 C442 0.930 . S
H435 C445 0.930 . S
H436 C446 0.930 . S
C437 H431 0.930 . S
C437 C438 1.355 . S
C437 C439 1.415 . S
C438 C437 1.355 . S
C438 C440 1.419 . S
C439 C437 1.415 . S
C439 C444 1.425 . S
C439 C446 1.409 . S
C440 H432 0.930 . S
C440 C438 1.419 . S
C440 C441 1.362 . S
C441 H433 0.930 . S
C441 C440 1.362 . S
C441 C444 1.409 . S
C442 H434 0.930 . S
C442 C443 1.355 . S
C442 C444 1.415 . S
C443 C442 1.355 . S
C443 C445 1.419 . S
C444 C439 1.425 . S
C444 C441 1.409 . S
C444 C442 1.415 . S
C445 H435 0.930 . S
C445 C443 1.419 . S
C445 C446 1.362 . S
C446 H436 0.930 . S
C446 C439 1.409 . S
C446 C445 1.362 . S
H447 C453 0.930 . S
H448 C456 0.930 . S
H449 C457 0.930 . S
H450 C458 0.930 . S
H451 C461 0.930 . S
H452 C462 0.930 . S
C453 H447 0.930 . S
C453 C454 1.355 . S
C453 C455 1.415 . S
C454 C453 1.355 . S
C454 C456 1.419 . S
C455 C453 1.415 . S
C455 C460 1.425 . S
C455 C462 1.409 . S
C456 H448 0.930 . S
C456 C454 1.419 . S
C456 C457 1.362 . S
C457 H449 0.930 . S
C457 C456 1.362 . S
C457 C460 1.409 . S
C458 H450 0.930 . S
C458 C459 1.355 . S
C458 C460 1.415 . S
C459 C458 1.355 . S
C459 C461 1.419 . S
C460 C455 1.425 . S
C460 C457 1.409 . S
C460 C458 1.415 . S
C461 H451 0.930 . S
C461 C459 1.419 . S
C461 C462 1.362 . S
C462 H452 0.930 . S
C462 C455 1.409 . S
C462 C461 1.362 . S
H463 C469 0.930 . S
H464 C472 0.930 . S
H465 C473 0.930 . S
H466 C474 0.930 . S
H467 C477 0.930 . S
H468 C478 0.930 . S
C469 H463 0.930 . S
C469 C470 1.355 . S
C469 C471 1.415 . S
C470 C469 1.355 . S
C470 C472 1.419 . S
C471 C469 1.415 . S
C471 C476 1.425 . S
C471 C478 1.409 . S
C472 H464 0.930 . S
C472 C470 1.419 . S
C472 C473 1.362 . S
C473 H465 0.930 . S
C473 C472 1.362 . S
C473 C476 1.409 . S
C474 H466 0.930 . S
C474 C475 1.355 . S
C474 C476 1.415 . S
C475 C474 1.355 . S
C475 C477 1.419 . S
C476 C471 1.425 . S
C476 C473 1.409 . S
C476 C474 1.415 . S
C477 H467 0.930 . S
C477 C475 1.419 . S
C477 C478 1.362 . S
C478 H468 0.930 . S
C478 C471 1.409 . S
C478 C477 1.362 . S
H479 C485 0.930 . S
H480 C488 0.930 . S
H481 C489 0.930 . S
H482 C490 0.930 . S
H483 C493 0.930 . S
H484 C494 0.930 . S
C485 H479 0.930 . S
C485 C486 1.355 . S
C485 C487 1.415 . S
C486 C485 1.355 . S
C486 C488 1.419 . S
C487 C485 1.415 . S
C487 C492 1.425 . S
C487 C494 1.409 . S
C488 H480 0.930 . S
C488 C486 1.419 . S
C488 C489 1.362 . S
C489 H481 0.930 . S
C489 C488 1.362 . S
C489 C492 1.409 . S
C490 H482 0.930 . S
C490 C491 1.355 . S
C490 C492 1.415 . S
C491 C490 1.355 . S
C491 C493 1.419 . S
C492 C487 1.425 . S
C492 C489 1.409 . S
C492 C490 1.415 . S
C493 H483 0.930 . S
C493 C491 1.419 . S
C493 C494 1.362 . S
C494 H484 0.930 . S
C494 C487 1.409 . S
C494 C493 1.362 . S
H495 C501 0.930 . S
H496 C504 0.930 . S
H497 C505 0.930 . S
H498 C506 0.930 . S
H499 C509 0.930 . S
H500 C510 0.930 . S
C501 H495 0.930 . S
C501 C502 1.355 . S
C501 C503 1.415 . S
C502 C501 1.355 . S
C502 C504 1.419 1_455 S
C503 C501 1.415 . S
C503 C508 1.425 1_455 S
C503 C510 1.409 . S
C504 H496 0.930 . S
C504 C502 1.419 1_655 S
C504 C505 1.362 . S
C505 H497 0.930 . S
C505 C504 1.362 . S
C505 C508 1.409 . S
C506 H498 0.930 . S
C506 C507 1.355 1_655 S
C506 C508 1.415 . S
C507 C506 1.355 1_455 S
C507 C509 1.419 . S
C508 C503 1.425 1_655 S
C508 C505 1.409 . S
C508 C506 1.415 . S
C509 H499 0.930 . S
C509 C507 1.419 . S
C509 C510 1.362 . S
C510 H500 0.930 . S
C510 C503 1.409 . S
C510 C509 1.362 . S
H511 C517 0.930 . S
H512 C520 0.930 . S
H513 C521 0.930 . S
H514 C522 0.930 . S
H515 C525 0.930 . S
H516 C526 0.930 . S
C517 H511 0.930 . S
C517 C518 1.355 1_565 S
C517 C519 1.415 . S
C518 C517 1.355 1_545 S
C518 C520 1.419 . S
C519 C517 1.415 . S
C519 C524 1.425 1_565 S
C519 C526 1.409 . S
C520 H512 0.930 . S
C520 C518 1.419 . S
C520 C521 1.362 . S
C521 H513 0.930 . S
C521 C520 1.362 . S
C521 C524 1.409 . S
C522 H514 0.930 . S
C522 C523 1.355 . S
C522 C524 1.415 . S
C523 C522 1.355 . S
C523 C525 1.419 1_545 S
C524 C519 1.425 1_545 S
C524 C521 1.409 . S
C524 C522 1.415 . S
C525 H515 0.930 . S
C525 C523 1.419 1_565 S
C525 C526 1.362 . S
C526 H516 0.930 . S
C526 C519 1.409 . S
C526 C525 1.362 . S
H527 C533 0.930 . S
H528 C536 0.930 . S
H529 C537 0.930 . S
H530 C538 0.930 . S
H531 C541 0.930 . S
H532 C542 0.930 . S
C533 H527 0.930 . S
C533 C534 1.355 . S
C533 C535 1.415 . S
C534 C533 1.355 . S
C534 C536 1.419 . S
C535 C533 1.415 . S
C535 C540 1.425 . S
C535 C542 1.409 . S
C536 H528 0.930 . S
C536 C534 1.419 . S
C536 C537 1.362 . S
C537 H529 0.930 . S
C537 C536 1.362 . S
C537 C540 1.409 . S
C538 H530 0.930 . S
C538 C539 1.355 . S
C538 C540 1.415 . S
C539 C538 1.355 . S
C539 C541 1.419 . S
C540 C535 1.425 . S
C540 C537 1.409 . S
C540 C538 1.415 . S
C541 H531 0.930 . S
C541 C539 1.419 . S
C541 C542 1.362 . S
C542 H532 0.930 . S
C542 C535 1.409 . S
C542 C541 1.362 . S
H543 C549 0.930 . S
H544 C552 0.930 . S
H545 C553 0.930 . S
H546 C554 0.930 . S
H547 C557 0.930 . S
H548 C558 0.930 . S
C549 H543 0.930 . S
C549 C550 1.355 1_565 S
C549 C551 1.415 . S
C550 C549 1.355 1_545 S
C550 C552 1.419 . S
C551 C549 1.415 . S
C551 C556 1.425 1_565 S
C551 C558 1.409 . S
C552 H544 0.930 . S
C552 C550 1.419 . S
C552 C553 1.362 . S
C553 H545 0.930 . S
C553 C552 1.362 . S
C553 C556 1.409 . S
C554 H546 0.930 . S
C554 C555 1.355 . S
C554 C556 1.415 . S
C555 C554 1.355 . S
C555 C557 1.419 1_545 S
C556 C551 1.425 1_545 S
C556 C553 1.409 . S
C556 C554 1.415 . S
C557 H547 0.930 . S
C557 C555 1.419 1_565 S
C557 C558 1.362 . S
C558 H548 0.930 . S
C558 C551 1.409 . S
C558 C557 1.362 . S
H559 C565 0.930 . S
H560 C568 0.930 . S
H561 C569 0.930 . S
H562 C570 0.930 . S
H563 C573 0.930 . S
H564 C574 0.930 . S
C565 H559 0.930 . S
C565 C566 1.355 . S
C565 C567 1.415 . S
C566 C565 1.355 . S
C566 C568 1.419 . S
C567 C565 1.415 . S
C567 C572 1.425 . S
C567 C574 1.409 . S
C568 H560 0.930 . S
C568 C566 1.419 . S
C568 C569 1.362 . S
C569 H561 0.930 . S
C569 C568 1.362 . S
C569 C572 1.409 . S
C570 H562 0.930 . S
C570 C571 1.355 . S
C570 C572 1.415 . S
C571 C570 1.355 . S
C571 C573 1.419 . S
C572 C567 1.425 . S
C572 C569 1.409 . S
C572 C570 1.415 . S
C573 H563 0.930 . S
C573 C571 1.419 . S
C573 C574 1.362 . S
C574 H564 0.930 . S
C574 C567 1.409 . S
C574 C573 1.362 . S
H575 C581 0.930 . S
H576 C584 0.930 . S
H577 C585 0.930 . S
H578 C586 0.930 . S
H579 C589 0.930 . S
H580 C590 0.930 . S
C581 H575 0.930 . S
C581 C582 1.355 . S
C581 C583 1.415 . S
C582 C581 1.355 . S
C582 C584 1.419 1_455 S
C583 C581 1.415 . S
C583 C588 1.425 1_455 S
C583 C590 1.409 . S
C584 H576 0.930 . S
C584 C582 1.419 1_655 S
C584 C585 1.362 . S
C585 H577 0.930 . S
C585 C584 1.362 . S
C585 C588 1.409 . S
C586 H578 0.930 . S
C586 C587 1.355 1_655 S
C586 C588 1.415 . S
C587 C586 1.355 1_455 S
C587 C589 1.419 . S
C588 C583 1.425 1_655 S
C588 C585 1.409 . S
C588 C586 1.415 . S
C589 H579 0.930 . S
C589 C587 1.419 . S
C589 C590 1.362 . S
C590 H580 0.930 . S
C590 C583 1.409 . S
C590 C589 1.362 . S
C310 C20 1.191 . S
C315 C280 1.230 . S
C326 C41 1.302 . S
C331 C207 1.303 . S
C342 C64 1.333 . S
C347 C246 1.331 . S
C358 C19 1.228 . S
C363 C285 1.282 . S
C379 C202 1.270 . S
C374 C44 1.258 . S
C395 C241 1.282 . S
C390 C67 1.282 . S
C406 C43 1.206 . S
C411 C129 1.267 . S
C422 C66 1.204 . S
C427 C163 1.266 . S
C438 C21 1.296 . S
C443 C85 1.293 . S
C459 C124 1.318 . S
C454 C42 1.290 . S
C475 C168 1.304 . S
C470 C65 1.225 . S
C486 C18 1.284 . S
C491 C90 1.272 . S
C507 C148 1.457 1_554 S
C502 C17 1.462 . S
C518 C39 1.456 . S
C523 C70 1.457 . S
C534 C62 1.472 . S
C539 C109 1.474 . S
C555 C226 1.442 . S
C550 C40 1.440 . S
C571 C265 1.463 1_556 S
C566 C63 1.457 . S
C582 C16 1.453 . S
C587 C187 1.457 . S
