# Generated by pormake.
# Topology pth, (4,4)-cn, num edge types: 1
# Building blocks:
#     Node 0, Type 0, BuildingBlock: KUFVIS_clean_sbu_0, # of connection points: 4
#     Node 1, Type 0, BuildingBlock: KUFVIS_clean_sbu_0, # of connection points: 4
#     Node 2, Type 0, BuildingBlock: KUFVIS_clean_sbu_0, # of connection points: 4
#     Node 3, Type 1, BuildingBlock: MIFKUJ_clean_linker_1, # of connection points: 4
#     Node 4, Type 1, BuildingBlock: MIFKUJ_clean_linker_1, # of connection points: 4
#     Node 5, Type 1, BuildingBlock: MIFKUJ_clean_linker_1, # of connection points: 4
#     Edge 6, Type (0, 1), BuildingBlock: OJICUG_clean_linker_0, # of connection points: 2
#     Edge 7, Type (0, 1), BuildingBlock: OJICUG_clean_linker_0, # of connection points: 2
#     Edge 8, Type (0, 1), BuildingBlock: OJICUG_clean_linker_0, # of connection points: 2
#     Edge 9, Type (0, 1), BuildingBlock: OJICUG_clean_linker_0, # of connection points: 2
#     Edge 10, Type (0, 1), BuildingBlock: OJICUG_clean_linker_0, # of connection points: 2
#     Edge 11, Type (0, 1), BuildingBlock: OJICUG_clean_linker_0, # of connection points: 2
#     Edge 12, Type (0, 1), BuildingBlock: OJICUG_clean_linker_0, # of connection points: 2
#     Edge 13, Type (0, 1), BuildingBlock: OJICUG_clean_linker_0, # of connection points: 2
#     Edge 14, Type (0, 1), BuildingBlock: OJICUG_clean_linker_0, # of connection points: 2
#     Edge 15, Type (0, 1), BuildingBlock: OJICUG_clean_linker_0, # of connection points: 2
#     Edge 16, Type (0, 1), BuildingBlock: OJICUG_clean_linker_0, # of connection points: 2
#     Edge 17, Type (0, 1), BuildingBlock: OJICUG_clean_linker_0, # of connection points: 2
# Relax obj value: 0.017
# Max RMSD: 0.085
# Mean RMSD: 0.063
data_MOF--net-pth--node1-KUFVIS_clean_sbu_0--node2-MIFKUJ_clean_linker_1--edge1-OJICUG_clean_linker_0
_symmetry_space_group_name_H-M    P1
_symmetry_Int_Tables_number       1
_symmetry_cell_setting            triclinic
loop_
_symmetry_equiv_pos_as_xyz
'x, y, z'
_cell_length_a     22.530282
_cell_length_b     22.542459
_cell_length_c     49.71542
_cell_angle_alpha  90.402534
_cell_angle_beta   91.977481
_cell_angle_gamma 119.96876
loop_
_atom_site_label
_atom_site_type_symbol
_atom_site_fract_x
_atom_site_fract_y
_atom_site_fract_z
_atom_type_partial_charge
Mn0 Mn 0.0347 0.06659 0.04165 0.0
Mn1 Mn 0.9461 0.12458 0.00505 0.0
C2 C 0.96717 1.00413 0.00459 0.0
C3 C 0.03963 1.00207 0.07736 0.0
C4 C 0.09845 0.1796 1.00013 0.0
O5 O 0.03641 0.13926 0.06675 0.0
O6 O 0.97491 0.17287 0.04088 0.0
C7 C 0.82409 0.06971 0.03828 0.0
N8 N 0.85199 0.07377 0.01402 0.0
C9 C 0.74119 0.99704 0.99305 0.0
C10 C 0.7112 0.99243 0.01777 0.0
C11 C 0.75287 0.02884 0.04049 0.0
C12 C 0.81241 0.03879 0.99206 0.0
H13 H 0.85598 0.09729 0.05582 0.0
C14 C 0.00897 0.17628 0.06261 0.0
O15 O 0.09534 0.05019 0.06733 0.0
O16 O 0.98208 0.99383 0.06738 0.0
N17 N 0.91475 0.08241 0.96997 0.0
C18 C 0.95192 0.09088 0.94781 0.0
C19 C 0.918 0.0571 0.92345 0.0
C20 C 0.84628 0.01544 0.92206 0.0
C21 C 0.80905 0.00843 0.94501 0.0
C22 C 0.84558 0.04388 0.96866 0.0
H23 H 1.00706 0.12278 0.94876 0.0
O24 O 0.01634 0.9947 0.01372 0.0
O25 O 0.95866 0.0494 0.01757 0.0
O26 O 0.10459 0.14145 0.01766 0.0
O27 O 0.04175 0.17749 0.9942 0.0
C28 C 0.73722 0.96691 0.94544 0.0
C29 C 0.70334 0.96103 0.96947 0.0
H30 H 0.65633 0.9607 0.01959 0.0
H31 H 0.73014 0.02525 0.05966 0.0
H32 H 0.9471 0.06289 0.90581 0.0
H33 H 0.82037 0.98887 0.90331 0.0
H34 H 0.70763 0.93863 0.9275 0.0
H35 H 0.64819 0.92827 0.96963 0.0
Mn36 Mn 0.02384 0.06395 0.37596 0.0
Mn37 Mn 0.12343 0.21314 0.41029 0.0
C38 C 0.09781 0.06952 0.41053 0.0
C39 C 1.00748 0.99064 0.33967 0.0
C40 C 0.97118 0.1215 0.41889 0.0
O41 O 0.01857 0.13443 0.35194 0.0
O42 O 0.09508 0.23179 0.37441 0.0
C43 C 0.24351 0.27146 0.37592 0.0
N44 N 0.21653 0.25099 0.4005 0.0
C45 C 0.32729 0.28263 0.42079 0.0
C46 C 0.35637 0.30463 0.39575 0.0
C47 C 0.31425 0.29884 0.3732 0.0
C48 C 0.25652 0.25599 0.42229 0.0
H49 H 0.21125 0.26669 0.35851 0.0
C50 C 0.05389 0.19972 0.35423 0.0
O51 O 0.95577 0.98564 0.35236 0.0
O52 O 0.06801 0.03959 0.34739 0.0
N53 N 0.15513 0.20265 0.4452 0.0
C54 C 0.11862 0.17619 0.46762 0.0
C55 C 0.15294 0.17647 0.49179 0.0
C56 C 0.22441 0.20439 0.49271 0.0
C57 C 0.26097 0.23212 0.46948 0.0
C58 C 0.22407 0.23086 0.44601 0.0
H59 H 0.06371 0.15469 0.46707 0.0
O60 O 0.04635 0.01101 0.40241 0.0
O61 O 0.10515 0.12283 0.39783 0.0
O62 O 0.96145 0.07292 0.40271 0.0
O63 O 0.02883 0.17689 0.42228 0.0
C64 C 0.33244 0.26 0.46857 0.0
C65 C 0.36555 0.28501 0.44422 0.0
H66 H 0.41085 0.32548 0.39354 0.0
H67 H 0.33624 0.3153 0.35377 0.0
H68 H 0.12435 0.15499 0.50964 0.0
H69 H 0.25062 0.20392 0.51133 0.0
H70 H 0.36231 0.26156 0.48639 0.0
H71 H 0.42037 0.30534 0.44368 0.0
Mn72 Mn 0.04957 0.06205 0.70998 0.0
Mn73 Mn 0.99672 0.15381 0.74573 0.0
C74 C 0.11701 0.13184 0.74589 0.0
C75 C 0.10895 0.05303 0.67401 0.0
C76 C 0.94128 1.00155 0.75264 0.0
O77 O 0.97387 0.05889 0.68534 0.0
O78 O 0.94609 0.12493 0.71008 0.0
C79 C 0.04865 0.27493 0.71129 0.0
N80 N 0.04599 0.2476 0.73587 0.0
C81 C 0.11741 0.35938 0.75649 0.0
C82 C 0.12043 0.38878 0.73145 0.0
C83 C 0.08614 0.34633 0.70873 0.0
C84 C 0.07924 0.28792 0.75781 0.0
H85 H 0.02242 0.24249 0.69378 0.0
C86 C 0.9394 0.08902 0.68888 0.0
O87 O 0.0617 0.9988 0.68523 0.0
O88 O 0.11933 0.11171 0.68297 0.0
N89 N 0.04159 0.18611 0.78049 0.0
C90 C 0.03775 0.14949 0.80271 0.0
C91 C 0.07162 0.18422 0.82693 0.0
C92 C 0.10843 0.25617 0.82815 0.0
C93 C 0.11122 0.29274 0.80508 0.0
C94 C 0.07652 0.25537 0.7815 0.0
H95 H 0.00962 0.09421 0.80188 0.0
O96 O 0.12458 0.08166 0.73732 0.0
O97 O 0.07055 0.14024 0.73304 0.0
O98 O 0.97738 0.99413 0.7351 0.0
O99 O 0.94439 0.05866 0.75783 0.0
C100 C 0.14802 0.36481 0.80443 0.0
C101 C 0.1515 0.3981 0.78012 0.0
H102 H 0.14939 0.44383 0.72938 0.0
H103 H 0.08855 0.3686 0.6893 0.0
H104 H 0.06941 0.15561 0.84463 0.0
H105 H 0.13481 0.28277 0.84683 0.0
H106 H 0.17469 0.39512 0.82243 0.0
H107 H 0.18106 0.4535 0.77978 0.0
H108 H 0.12276 0.54474 0.15822 0.0
H109 H 0.12278 0.45948 0.1275 0.0
H110 H 0.9443 0.3001 0.16434 0.0
H111 H 0.94185 0.38562 0.19417 0.0
H112 H 0.03968 0.58673 0.16038 0.0
H113 H 0.12164 0.49231 0.22829 0.0
H114 H 0.1296 0.40962 0.25773 0.0
H115 H 0.92501 0.34205 0.2836 0.0
H116 H 0.91735 0.42505 0.25417 0.0
H117 H 0.89926 0.61894 0.24401 0.0
H118 H 0.89167 0.70872 0.26873 0.0
H119 H 0.11171 0.83982 0.26523 0.0
H120 H 0.11712 0.75157 0.2387 0.0
H121 H 1.00014 0.56469 0.25821 0.0
H122 H 0.93278 0.67772 0.19254 0.0
H123 H 0.94078 0.77389 0.16784 0.0
H124 H 0.13388 0.81251 0.13712 0.0
H125 H 0.12807 0.71939 0.16385 0.0
C126 C 0.0325 0.47197 0.17873 0.0
C127 C 0.08369 0.49148 0.15985 0.0
C128 C 0.08391 0.4428 0.14237 0.0
C129 C 0.03366 0.37342 0.14368 0.0
C130 C 0.98409 0.35325 0.1632 0.0
C131 C 0.98298 0.40217 0.18035 0.0
C132 C 0.02791 0.52519 0.19505 0.0
C133 C 0.03234 0.58229 0.18187 0.0
C134 C 0.01655 0.51903 0.22302 0.0
C135 C 0.01883 0.46471 0.23898 0.0
C136 C 0.07812 0.459 0.24 0.0
C137 C 0.08275 0.41205 0.25692 0.0
C138 C 0.02794 0.3695 0.27298 0.0
C139 C 0.96777 0.37375 0.27128 0.0
C140 C 0.96351 0.42137 0.25462 0.0
C141 C 0.00865 0.67897 0.23949 0.0
C142 C 0.94562 0.66732 0.24857 0.0
C143 C 0.9416 0.71879 0.26287 0.0
C144 C 1.00102 0.78232 0.26912 0.0
C145 C 0.06435 0.79279 0.26031 0.0
C146 C 0.06791 0.74198 0.2454 0.0
C147 C 0.01267 0.62562 0.22349 0.0
C148 C 0.00787 0.56874 0.23673 0.0
C149 C 0.02546 0.63289 0.19573 0.0
C150 C 0.03044 0.69189 0.18058 0.0
C151 C 0.97786 0.70803 0.18115 0.0
C152 C 0.98198 0.76255 0.16652 0.0
C153 C 0.03788 0.8012 0.15024 0.0
C154 C 0.09058 0.7849 0.14971 0.0
C155 C 0.08693 0.73098 0.16475 0.0
H156 H 0.66049 0.17105 0.49871 0.0
H157 H 0.75598 0.18501 0.47228 0.0
H158 H 0.72421 0.98975 0.49909 0.0
H159 H 0.62792 0.9756 0.52523 0.0
H160 H 0.52741 0.07345 0.49303 0.0
H161 H 0.70101 0.15964 0.56467 0.0
H162 H 0.7935 0.16801 0.59475 0.0
H163 H 0.66385 0.95807 0.61703 0.0
H164 H 0.57112 0.95008 0.587 0.0
H165 H 0.37914 0.94972 0.59092 0.0
H166 H 0.28994 0.94922 0.61767 0.0
H167 H 0.32299 0.13497 0.57991 0.0
H168 H 0.41515 0.13783 0.55491 0.0
H169 H 0.51066 0.03483 0.59125 0.0
H170 H 0.33041 0.95886 0.52153 0.0
H171 H 0.24089 0.96262 0.49367 0.0
H172 H 0.38917 0.16498 0.4683 0.0
H173 H 0.47836 0.16006 0.49574 0.0
C174 C 0.63732 0.07249 0.51407 0.0
C175 C 0.67424 0.13135 0.49897 0.0
C176 C 0.72902 0.13943 0.48399 0.0
C177 C 0.74762 0.08847 0.48359 0.0
C178 C 0.71071 0.02961 0.49881 0.0
C179 C 0.65615 0.02177 0.51396 0.0
C180 C 0.5773 0.06306 0.52892 0.0
C181 C 0.52394 0.06553 0.51456 0.0
C182 C 0.57203 0.05106 0.55684 0.0
C183 C 0.62934 0.05417 0.57356 0.0
C184 C 0.69279 0.11517 0.57578 0.0
C185 C 0.74541 0.11999 0.59303 0.0
C186 C 0.73575 0.06368 0.6082 0.0
C187 C 0.67283 1.00202 0.60539 0.0
C188 C 0.61981 0.99753 0.58839 0.0
C189 C 0.40357 0.04332 0.57059 0.0
C190 C 0.36719 0.99038 0.58846 0.0
C191 C 0.31551 0.98975 0.60353 0.0
C192 C 0.29887 0.04202 0.60102 0.0
C193 C 0.33477 0.09433 0.58275 0.0
C194 C 0.38701 0.09546 0.56804 0.0
C195 C 0.46057 0.04573 0.55539 0.0
C196 C 0.51342 0.04172 0.56966 0.0
C197 C 0.4657 0.05692 0.52735 0.0
C198 C 0.41097 0.05924 0.51075 0.0
C199 C 0.3434 1.00411 0.51004 0.0
C200 C 0.29222 0.00655 0.4942 0.0
C201 C 0.30762 0.06424 0.47876 0.0
C202 C 0.37547 0.11941 0.47962 0.0
C203 C 0.4266 0.11677 0.49535 0.0
H204 H 0.48618 0.37475 0.84579 0.0
H205 H 0.39007 0.28349 0.81865 0.0
H206 H 0.28662 0.40108 0.81891 0.0
H207 H 0.38161 0.49091 0.84656 0.0
H208 H 0.55289 0.53831 0.82698 0.0
H209 H 0.45306 0.3703 0.89908 0.0
H210 H 0.35763 0.29084 0.92606 0.0
H211 H 0.3195 0.45449 0.9476 0.0
H212 H 0.41365 0.53297 0.9202 0.0
H213 H 0.58975 0.71054 0.91764 0.0
H214 H 0.67848 0.81011 0.94332 0.0
H215 H 0.82938 0.75632 0.92017 0.0
H216 H 0.74062 0.65854 0.89372 0.0
H217 H 0.54999 0.57339 0.9255 0.0
H218 H 0.61292 0.72715 0.85275 0.0
H219 H 0.69353 0.82055 0.82571 0.0
H220 H 0.79115 0.70319 0.80598 0.0
H221 H 0.70749 0.60831 0.83227 0.0
C222 C 0.44043 0.43901 0.84818 0.0
C223 C 0.44226 0.38019 0.84023 0.0
C224 C 0.38744 0.32824 0.82487 0.0
C225 C 0.33096 0.33537 0.81677 0.0
C226 C 0.32945 0.39438 0.82489 0.0
C227 C 0.38351 0.44555 0.84065 0.0
C228 C 0.49916 0.49569 0.86324 0.0
C229 C 0.55339 0.54503 0.84864 0.0
C230 C 0.49758 0.50602 0.89121 0.0
C231 C 0.43984 0.45731 0.90735 0.0
C232 C 0.42362 0.38877 0.9094 0.0
C233 C 0.36967 0.34366 0.92507 0.0
C234 C 0.33093 0.36636 0.93891 0.0
C235 C 0.34779 0.43521 0.93694 0.0
C236 C 0.40178 0.4802 0.9214 0.0
C237 C 0.65873 0.67728 0.90387 0.0
C238 C 0.64213 0.72069 0.918 0.0
C239 C 0.69292 0.77739 0.93276 0.0
C240 C 0.7612 0.79116 0.93403 0.0
C241 C 0.77771 0.74806 0.91938 0.0
C242 C 0.72697 0.69182 0.90436 0.0
C243 C 0.60429 0.61535 0.88936 0.0
C244 C 0.55066 0.56553 0.90398 0.0
C245 C 0.60526 0.60544 0.86134 0.0
C246 C 0.6547 0.66121 0.84464 0.0
C247 C 0.65169 0.7216 0.84254 0.0
C248 C 0.69829 0.77521 0.82721 0.0
C249 C 0.74972 0.77007 0.81384 0.0
C250 C 0.75198 0.70886 0.81573 0.0
C251 C 0.70451 0.6547 0.83087 0.0
C252 C 0.01808 0.28738 0.07625 0.0
C253 C 0.01732 0.22695 0.08366 0.0
H254 H 0.02504 0.38133 0.08951 0.0
C255 C 0.02345 0.21545 0.11112 0.0
H256 H 0.01383 0.29786 0.05525 0.0
C257 C 0.02862 0.26288 0.13079 0.0
C258 C 0.02963 0.32332 0.12324 0.0
H259 H 0.02273 0.16918 0.11739 0.0
H260 H 0.0322 0.25263 0.15186 0.0
C261 C 0.02489 0.33534 0.09581 0.0
C262 C 0.92001 0.16776 0.45124 0.0
C263 C 0.91344 0.11299 0.43515 0.0
H264 H 0.87324 0.20277 0.47922 0.0
C265 C 0.8518 0.04985 0.43527 0.0
H266 H 0.96672 0.21708 0.45177 0.0
C267 C 0.79826 0.0417 0.45115 0.0
C268 C 0.80488 0.09659 0.46711 0.0
H269 H 0.84491 0.00647 0.42322 0.0
H270 H 0.75124 0.99263 0.45064 0.0
C271 C 0.86632 0.1597 0.46693 0.0
C272 C 0.8721 0.87429 0.75944 0.0
C273 C 0.89391 0.94172 0.76834 0.0
H274 H 0.80832 0.76718 0.76634 0.0
C275 C 0.86958 0.95199 0.79259 0.0
H276 H 0.88972 0.8646 0.7408 0.0
C277 C 0.82431 0.89648 0.80749 0.0
C278 C 0.80081 0.82887 0.79834 0.0
H279 H 0.88577 1.00314 0.80028 0.0
H280 H 0.80798 0.90686 0.82631 0.0
C281 C 0.82571 0.81845 0.77419 0.0
C282 C 0.97828 0.89573 0.10359 0.0
C283 C 0.04019 0.95435 0.09758 0.0
H284 H 0.92913 0.80119 0.1239 0.0
C285 C 0.10165 0.96392 0.10978 0.0
H286 H 0.92997 0.88632 0.09436 0.0
C287 C 0.10108 0.9152 0.12734 0.0
C288 C 0.0391 0.85554 0.13284 0.0
H289 H 0.15018 0.00864 0.10558 0.0
H290 H 0.14927 0.92427 0.13653 0.0
C291 C 0.97776 0.84686 0.12077 0.0
C292 C 0.13521 0.03953 0.45351 0.0
C293 C 0.15154 0.07113 0.42857 0.0
H294 H 0.17233 0.01525 0.48954 0.0
C295 C 0.21836 0.09846 0.41974 0.0
H296 H 0.08342 0.01691 0.46038 0.0
C297 C 0.26896 0.09635 0.43602 0.0
C298 C 0.25356 0.06648 0.46146 0.0
H299 H 0.23125 0.12081 0.40007 0.0
H300 H 0.31989 0.11723 0.42846 0.0
C301 C 0.18598 0.03808 0.47001 0.0
C302 C 0.20194 0.25304 0.75827 0.0
C303 C 0.16901 0.18368 0.76477 0.0
H304 H 0.2781 0.35569 0.77003 0.0
C305 C 0.19102 0.1638 0.78798 0.0
H306 H 0.18796 0.26905 0.73977 0.0
C307 C 0.24352 0.21308 0.80504 0.0
C308 C 0.27501 0.28285 0.79898 0.0
H309 H 0.16734 0.11024 0.79297 0.0
H310 H 0.25922 0.19679 0.82304 0.0
C311 C 0.25374 0.30236 0.77543 0.0
C312 C 0.86795 0.13213 0.6662 0.0
C313 C 0.88899 0.083 0.6675 0.0
H314 H 0.80367 0.16464 0.64634 0.0
C315 C 0.86031 0.02795 0.64862 0.0
H316 H 0.88914 0.17532 0.68035 0.0
C317 C 0.81054 0.02149 0.62926 0.0
C318 C 0.78964 0.0707 0.6281 0.0
H319 H 0.87528 0.98917 0.64913 0.0
H320 H 0.78858 0.97824 0.61513 0.0
C321 C 0.81928 0.12631 0.64662 0.0
C322 C 0.84677 0.91518 0.99355 0.0
C323 C 0.91463 0.95327 0.98571 0.0
H324 H 0.74534 0.83392 0.98359 0.0
C325 C 0.93267 0.93767 0.96107 0.0
H326 H 0.83246 0.92496 0.01297 0.0
C327 C 0.88266 0.88627 0.94391 0.0
C328 C 0.81416 0.84815 0.95155 0.0
H329 H 0.98523 0.96584 0.95497 0.0
H330 H 0.89771 0.87658 0.92466 0.0
C331 C 0.79698 0.86321 0.97665 0.0
C332 C 0.94916 0.87004 0.32174 0.0
C333 C 0.99945 0.93897 0.31931 0.0
H334 H 0.91179 0.76644 0.30886 0.0
C335 C 0.04687 0.9569 0.29907 0.0
H336 H 0.91252 0.85482 0.33744 0.0
C337 C 0.04528 0.90656 0.282 0.0
C338 C 0.99765 0.83668 0.28535 0.0
H339 H 0.08593 0.00988 0.2967 0.0
H340 H 0.08234 0.92268 0.26647 0.0
C341 C 0.94876 0.81934 0.3052 0.0
C342 C 0.14206 0.9862 0.64322 0.0
C343 C 0.15348 0.04937 0.65359 0.0
H344 H 0.17785 0.93414 0.61801 0.0
C345 C 0.21111 0.10981 0.64566 0.0
H346 H 0.09803 0.93872 0.64893 0.0
C347 C 0.25741 0.10724 0.62842 0.0
C348 C 0.24704 0.04414 0.61832 0.0
H349 H 0.22181 0.15937 0.65342 0.0
H350 H 0.30257 0.15492 0.62373 0.0
C351 C 0.1882 0.98362 0.62568 0.0
C352 C 0.15471 0.27502 0.96786 0.0
C353 C 0.15917 0.22806 0.98515 0.0
H354 H 0.20468 0.35439 0.93966 0.0
C355 C 0.22107 0.22699 0.98716 0.0
H356 H 0.10794 0.27738 0.96565 0.0
C357 C 0.27689 0.27156 0.97208 0.0
C358 C 0.27209 0.31843 0.95488 0.0
H359 H 0.2263 0.1914 1.00018 0.0
H360 H 0.32403 0.26986 0.97411 0.0
C361 C 0.21038 0.31958 0.95299 0.0
C362 C 0.98969 0.21457 0.31477 0.0
C363 C 0.04774 0.2415 0.33254 0.0
H364 H 0.9376 0.23418 0.28204 0.0
C365 C 0.09986 0.30991 0.32987 0.0
H366 H 0.94858 0.16214 0.31632 0.0
C367 C 0.09391 0.3506 0.31012 0.0
C368 C 0.0353 0.32429 0.29277 0.0
H369 H 0.14543 0.33229 0.34311 0.0
H370 H 0.13454 0.40337 0.30888 0.0
C371 C 0.98324 0.2558 0.29524 0.0
loop_
_geom_bond_atom_site_label_1
_geom_bond_atom_site_label_2
_geom_bond_distance
_geom_bond_site_symmetry_2
_ccdc_geom_bond_type
Mn0 O5 2.095 . S
Mn0 O15 2.162 . S
Mn0 O16 2.297 1_445 S
Mn0 O24 2.383 1_445 S
Mn0 O25 2.209 1_455 S
Mn0 O26 2.094 . S
Mn1 O6 2.121 . S
Mn1 N8 2.257 . S
Mn1 N17 2.282 1_554 S
Mn1 O25 2.215 . S
Mn1 O27 2.117 1_654 S
C2 O24 1.252 . S
C2 O25 1.283 1_565 S
C3 O15 1.281 1_565 S
C3 O16 1.236 1_455 S
C4 O26 1.244 . S
C4 O27 1.263 1_554 S
O5 Mn0 2.095 . S
O5 C14 1.250 . S
O6 Mn1 2.121 . S
O6 C14 1.258 1_655 S
C7 N8 1.326 . S
C7 C11 1.460 . S
C7 H13 0.929 . S
N8 Mn1 2.257 . S
N8 C7 1.326 . S
N8 C12 1.362 1_554 S
C9 C10 1.258 . S
C9 C12 1.431 . S
C9 C29 1.449 . S
C10 C9 1.258 . S
C10 C11 1.477 1_556 S
C10 H30 0.931 . S
C11 C7 1.460 . S
C11 C10 1.477 1_554 S
C11 H31 0.930 . S
C12 N8 1.362 1_556 S
C12 C9 1.431 . S
C12 C22 1.476 . S
H13 C7 0.929 . S
C14 O5 1.250 . S
C14 O6 1.258 1_455 S
O15 Mn0 2.162 . S
O15 C3 1.281 1_545 S
O16 Mn0 2.297 1_665 S
O16 C3 1.236 1_655 S
N17 Mn1 2.282 1_556 S
N17 C18 1.328 . S
N17 C22 1.318 . S
C18 N17 1.328 . S
C18 C19 1.457 . S
C18 H23 0.929 1_655 S
C19 C18 1.457 . S
C19 C20 1.291 . S
C19 H32 0.931 . S
C20 C19 1.291 . S
C20 C21 1.373 . S
C20 H33 0.929 . S
C21 C20 1.373 . S
C21 C22 1.396 . S
C21 C28 1.403 . S
C22 C12 1.476 . S
C22 N17 1.318 . S
C22 C21 1.396 . S
H23 C18 0.929 1_455 S
O24 Mn0 2.383 1_665 S
O24 C2 1.252 . S
O25 Mn0 2.209 1_655 S
O25 Mn1 2.215 . S
O25 C2 1.283 1_545 S
O26 Mn0 2.094 . S
O26 C4 1.244 . S
O27 Mn1 2.117 1_456 S
O27 C4 1.263 1_556 S
C28 C21 1.403 . S
C28 C29 1.399 . S
C28 H34 0.929 . S
C29 C9 1.449 . S
C29 C28 1.399 . S
C29 H35 0.930 . S
H30 C10 0.931 . S
H31 C11 0.930 . S
H32 C19 0.931 . S
H33 C20 0.929 . S
H34 C28 0.929 . S
H35 C29 0.930 . S
Mn36 O41 2.095 . S
Mn36 O51 2.162 1_545 S
Mn36 O52 2.297 1_655 S
Mn36 O60 2.385 1_655 S
Mn36 O61 2.209 1_655 S
Mn36 O62 2.094 . S
Mn37 O42 2.121 . S
Mn37 N44 2.257 . S
Mn37 N53 2.282 . S
Mn37 O61 2.215 . S
Mn37 O63 2.117 1_455 S
C38 O60 1.234 . S
C38 O61 1.283 . S
C39 O51 1.281 1_455 S
C39 O52 1.236 1_565 S
C40 O62 1.240 . S
C40 O63 1.264 . S
O41 Mn36 2.095 . S
O41 C50 1.250 1_655 S
O42 Mn37 2.121 . S
O42 C50 1.258 . S
C43 N44 1.326 . S
C43 C47 1.460 . S
C43 H49 0.929 . S
N44 Mn37 2.257 . S
N44 C43 1.326 . S
N44 C48 1.362 . S
C45 C46 1.258 . S
C45 C48 1.431 . S
C45 C65 1.449 . S
C46 C45 1.258 . S
C46 C47 1.477 . S
C46 H66 0.931 . S
C47 C43 1.460 . S
C47 C46 1.477 . S
C47 H67 0.930 . S
C48 N44 1.362 . S
C48 C45 1.431 . S
C48 C58 1.476 . S
H49 C43 0.929 . S
C50 O41 1.250 1_455 S
C50 O42 1.258 . S
O51 Mn36 2.162 1_565 S
O51 C39 1.281 1_655 S
O52 Mn36 2.297 1_455 S
O52 C39 1.236 1_545 S
N53 Mn37 2.282 . S
N53 C54 1.328 . S
N53 C58 1.318 . S
C54 N53 1.328 . S
C54 C55 1.457 . S
C54 H59 0.929 . S
C55 C54 1.457 . S
C55 C56 1.291 . S
C55 H68 0.931 . S
C56 C55 1.291 . S
C56 C57 1.373 . S
C56 H69 0.929 . S
C57 C56 1.373 . S
C57 C58 1.396 . S
C57 C64 1.403 . S
C58 C48 1.476 . S
C58 N53 1.318 . S
C58 C57 1.396 . S
H59 C54 0.929 . S
O60 Mn36 2.385 1_455 S
O60 C38 1.234 . S
O61 Mn36 2.209 1_455 S
O61 Mn37 2.215 . S
O61 C38 1.283 . S
O62 Mn36 2.094 . S
O62 C40 1.240 . S
O63 Mn37 2.117 1_655 S
O63 C40 1.264 . S
C64 C57 1.403 . S
C64 C65 1.399 . S
C64 H70 0.929 . S
C65 C45 1.449 . S
C65 C64 1.399 . S
C65 H71 0.930 . S
H66 C46 0.931 . S
H67 C47 0.930 . S
H68 C55 0.931 . S
H69 C56 0.929 . S
H70 C64 0.929 . S
H71 C65 0.930 . S
Mn72 O77 2.095 1_455 S
Mn72 O87 2.160 1_545 S
Mn72 O88 2.297 . S
Mn72 O96 2.385 . S
Mn72 O97 2.209 . S
Mn72 O98 2.094 1_445 S
Mn73 O78 2.121 . S
Mn73 N80 2.257 . S
Mn73 N89 2.282 . S
Mn73 O97 2.215 1_655 S
Mn73 O99 2.117 . S
C74 O96 1.234 . S
C74 O97 1.283 . S
C75 O87 1.279 1_545 S
C75 O88 1.236 . S
C76 O98 1.240 . S
C76 O99 1.264 1_565 S
O77 Mn72 2.095 1_655 S
O77 C86 1.250 . S
O78 Mn73 2.121 . S
O78 C86 1.258 . S
C79 N80 1.326 . S
C79 C83 1.460 . S
C79 H85 0.929 . S
N80 Mn73 2.257 . S
N80 C79 1.326 . S
N80 C84 1.362 1_655 S
C81 C82 1.258 . S
C81 C84 1.431 . S
C81 C101 1.449 . S
C82 C81 1.258 . S
C82 C83 1.477 1_455 S
C82 H102 0.931 . S
C83 C79 1.460 . S
C83 C82 1.477 1_655 S
C83 H103 0.930 . S
C84 N80 1.362 1_455 S
C84 C81 1.431 . S
C84 C94 1.476 . S
H85 C79 0.929 . S
C86 O77 1.250 . S
C86 O78 1.258 . S
O87 Mn72 2.160 1_565 S
O87 C75 1.279 1_565 S
O88 Mn72 2.297 . S
O88 C75 1.236 . S
N89 Mn73 2.282 . S
N89 C90 1.328 1_655 S
N89 C94 1.318 1_655 S
C90 N89 1.328 1_455 S
C90 C91 1.457 . S
C90 H95 0.929 1_455 S
C91 C90 1.457 . S
C91 C92 1.291 . S
C91 H104 0.931 . S
C92 C91 1.291 . S
C92 C93 1.373 . S
C92 H105 0.929 . S
C93 C92 1.373 . S
C93 C94 1.396 . S
C93 C100 1.403 . S
C94 C84 1.476 . S
C94 N89 1.318 1_455 S
C94 C93 1.396 . S
H95 C90 0.929 1_655 S
O96 Mn72 2.385 . S
O96 C74 1.234 . S
O97 Mn72 2.209 . S
O97 Mn73 2.215 1_455 S
O97 C74 1.283 . S
O98 Mn72 2.094 1_665 S
O98 C76 1.240 . S
O99 Mn73 2.117 . S
O99 C76 1.264 1_545 S
C100 C93 1.403 . S
C100 C101 1.399 . S
C100 H106 0.929 . S
C101 C81 1.449 . S
C101 C100 1.399 . S
C101 H107 0.930 . S
H102 C82 0.931 . S
H103 C83 0.930 . S
H104 C91 0.931 . S
H105 C92 0.929 . S
H106 C100 0.929 . S
H107 C101 0.930 . S
H108 C127 0.949 . S
H109 C128 0.950 . S
H110 C130 0.950 . S
H111 C131 0.950 . S
H112 C133 0.950 . S
H113 C136 0.950 . S
H114 C137 0.950 . S
H115 C139 0.951 . S
H116 C140 0.949 . S
H117 C142 0.949 . S
H118 C143 0.950 . S
H119 C145 0.950 . S
H120 C146 0.950 . S
H121 C148 0.950 . S
H122 C151 0.950 . S
H123 C152 0.950 . S
H124 C154 0.951 . S
H125 C155 0.949 . S
C126 C127 1.376 . S
C126 C131 1.386 1_455 S
C126 C132 1.483 . S
C127 H108 0.949 . S
C127 C126 1.376 . S
C127 C128 1.397 . S
C128 H109 0.950 . S
C128 C127 1.397 . S
C128 C129 1.391 . S
C129 C128 1.391 . S
C129 C130 1.405 1_455 S
C130 H110 0.950 . S
C130 C129 1.405 1_655 S
C130 C131 1.367 . S
C131 H111 0.950 . S
C131 C126 1.386 1_655 S
C131 C130 1.367 . S
C132 C126 1.483 . S
C132 C133 1.382 . S
C132 C134 1.403 . S
C133 H112 0.950 . S
C133 C132 1.382 . S
C133 C149 1.411 . S
C134 C132 1.403 . S
C134 C135 1.489 . S
C134 C148 1.411 . S
C135 C134 1.489 . S
C135 C136 1.383 . S
C135 C140 1.382 1_455 S
C136 H113 0.950 . S
C136 C135 1.383 . S
C136 C137 1.395 . S
C137 H114 0.950 . S
C137 C136 1.395 . S
C137 C138 1.288 . S
C138 C137 1.288 . S
C138 C139 1.392 1_455 S
C139 H115 0.951 . S
C139 C138 1.392 1_655 S
C139 C140 1.392 . S
C140 H116 0.949 . S
C140 C135 1.382 1_655 S
C140 C139 1.392 . S
C141 C142 1.376 1_455 S
C141 C146 1.386 . S
C141 C147 1.483 . S
C142 H117 0.949 . S
C142 C141 1.376 1_655 S
C142 C143 1.397 . S
C143 H118 0.950 . S
C143 C142 1.397 . S
C143 C144 1.391 1_655 S
C144 C143 1.391 1_455 S
C144 C145 1.405 . S
C145 H119 0.950 . S
C145 C144 1.405 . S
C145 C146 1.367 . S
C146 H120 0.950 . S
C146 C141 1.386 . S
C146 C145 1.367 . S
C147 C141 1.483 . S
C147 C148 1.382 . S
C147 C149 1.403 . S
C148 H121 0.950 . S
C148 C134 1.411 . S
C148 C147 1.382 . S
C149 C133 1.411 . S
C149 C147 1.403 . S
C149 C150 1.489 . S
C150 C149 1.489 . S
C150 C151 1.383 1_455 S
C150 C155 1.382 . S
C151 H122 0.950 . S
C151 C150 1.383 1_655 S
C151 C152 1.395 . S
C152 H123 0.950 . S
C152 C151 1.395 . S
C152 C153 1.288 1_655 S
C153 C152 1.288 1_455 S
C153 C154 1.392 . S
C154 H124 0.951 . S
C154 C153 1.392 . S
C154 C155 1.392 . S
C155 H125 0.949 . S
C155 C150 1.382 . S
C155 C154 1.392 . S
H156 C175 0.949 . S
H157 C176 0.950 . S
H158 C178 0.950 1_565 S
H159 C179 0.949 . S
H160 C181 0.950 . S
H161 C184 0.950 . S
H162 C185 0.950 . S
H163 C187 0.951 1_565 S
H164 C188 0.949 1_565 S
H165 C190 0.949 1_565 S
H166 C191 0.950 1_565 S
H167 C193 0.950 . S
H168 C194 0.950 . S
H169 C196 0.950 . S
H170 C199 0.950 . S
H171 C200 0.950 . S
H172 C202 0.951 . S
H173 C203 0.949 . S
C174 C175 1.376 . S
C174 C179 1.386 . S
C174 C180 1.483 . S
C175 H156 0.949 . S
C175 C174 1.376 . S
C175 C176 1.397 . S
C176 H157 0.950 . S
C176 C175 1.397 . S
C176 C177 1.391 . S
C177 C176 1.391 . S
C177 C178 1.405 . S
C178 H158 0.950 1_545 S
C178 C177 1.405 . S
C178 C179 1.367 . S
C179 H159 0.949 . S
C179 C174 1.386 . S
C179 C178 1.367 . S
C180 C174 1.483 . S
C180 C181 1.382 . S
C180 C182 1.403 . S
C181 H160 0.950 . S
C181 C180 1.382 . S
C181 C197 1.411 . S
C182 C180 1.403 . S
C182 C183 1.489 . S
C182 C196 1.411 . S
C183 C182 1.489 . S
C183 C184 1.383 . S
C183 C188 1.382 . S
C184 H161 0.950 . S
C184 C183 1.383 . S
C184 C185 1.395 . S
C185 H162 0.950 . S
C185 C184 1.395 . S
C185 C186 1.288 . S
C186 C185 1.288 . S
C186 C187 1.392 . S
C187 H163 0.951 1_545 S
C187 C186 1.392 . S
C187 C188 1.392 . S
C188 H164 0.949 1_545 S
C188 C183 1.382 . S
C188 C187 1.392 . S
C189 C190 1.376 . S
C189 C194 1.386 . S
C189 C195 1.483 . S
C190 H165 0.949 1_545 S
C190 C189 1.376 . S
C190 C191 1.397 . S
C191 H166 0.950 1_545 S
C191 C190 1.397 . S
C191 C192 1.391 . S
C192 C191 1.391 . S
C192 C193 1.405 . S
C193 H167 0.950 . S
C193 C192 1.405 . S
C193 C194 1.367 . S
C194 H168 0.950 . S
C194 C189 1.386 . S
C194 C193 1.367 . S
C195 C189 1.483 . S
C195 C196 1.382 . S
C195 C197 1.403 . S
C196 H169 0.950 . S
C196 C182 1.411 . S
C196 C195 1.382 . S
C197 C181 1.411 . S
C197 C195 1.403 . S
C197 C198 1.489 . S
C198 C197 1.489 . S
C198 C199 1.383 . S
C198 C203 1.382 . S
C199 H170 0.950 . S
C199 C198 1.383 . S
C199 C200 1.395 . S
C200 H171 0.950 . S
C200 C199 1.395 . S
C200 C201 1.288 . S
C201 C200 1.288 . S
C201 C202 1.392 . S
C202 H172 0.951 . S
C202 C201 1.392 . S
C202 C203 1.392 . S
C203 H173 0.949 . S
C203 C198 1.382 . S
C203 C202 1.392 . S
H204 C223 0.949 . S
H205 C224 0.950 . S
H206 C226 0.950 . S
H207 C227 0.950 . S
H208 C229 0.950 . S
H209 C232 0.950 . S
H210 C233 0.950 . S
H211 C235 0.951 . S
H212 C236 0.949 . S
H213 C238 0.949 . S
H214 C239 0.950 . S
H215 C241 0.950 . S
H216 C242 0.950 . S
H217 C244 0.950 . S
H218 C247 0.950 . S
H219 C248 0.950 . S
H220 C250 0.951 . S
H221 C251 0.949 . S
C222 C223 1.376 . S
C222 C227 1.386 . S
C222 C228 1.483 . S
C223 H204 0.949 . S
C223 C222 1.376 . S
C223 C224 1.397 . S
C224 H205 0.950 . S
C224 C223 1.397 . S
C224 C225 1.391 . S
C225 C224 1.391 . S
C225 C226 1.405 . S
C226 H206 0.950 . S
C226 C225 1.405 . S
C226 C227 1.367 . S
C227 H207 0.950 . S
C227 C222 1.386 . S
C227 C226 1.367 . S
C228 C222 1.483 . S
C228 C229 1.382 . S
C228 C230 1.403 . S
C229 H208 0.950 . S
C229 C228 1.382 . S
C229 C245 1.411 . S
C230 C228 1.403 . S
C230 C231 1.489 . S
C230 C244 1.411 . S
C231 C230 1.489 . S
C231 C232 1.383 . S
C231 C236 1.382 . S
C232 H209 0.950 . S
C232 C231 1.383 . S
C232 C233 1.395 . S
C233 H210 0.950 . S
C233 C232 1.395 . S
C233 C234 1.288 . S
C234 C233 1.288 . S
C234 C235 1.392 . S
C235 H211 0.951 . S
C235 C234 1.392 . S
C235 C236 1.392 . S
C236 H212 0.949 . S
C236 C231 1.382 . S
C236 C235 1.392 . S
C237 C238 1.376 . S
C237 C242 1.386 . S
C237 C243 1.483 . S
C238 H213 0.949 . S
C238 C237 1.376 . S
C238 C239 1.397 . S
C239 H214 0.950 . S
C239 C238 1.397 . S
C239 C240 1.391 . S
C240 C239 1.391 . S
C240 C241 1.405 . S
C241 H215 0.950 . S
C241 C240 1.405 . S
C241 C242 1.367 . S
C242 H216 0.950 . S
C242 C237 1.386 . S
C242 C241 1.367 . S
C243 C237 1.483 . S
C243 C244 1.382 . S
C243 C245 1.403 . S
C244 H217 0.950 . S
C244 C230 1.411 . S
C244 C243 1.382 . S
C245 C229 1.411 . S
C245 C243 1.403 . S
C245 C246 1.489 . S
C246 C245 1.489 . S
C246 C247 1.383 . S
C246 C251 1.382 . S
C247 H218 0.950 . S
C247 C246 1.383 . S
C247 C248 1.395 . S
C248 H219 0.950 . S
C248 C247 1.395 . S
C248 C249 1.288 . S
C249 C248 1.288 . S
C249 C250 1.392 . S
C250 H220 0.951 . S
C250 C249 1.392 . S
C250 C251 1.392 . S
C251 H221 0.949 . S
C251 C246 1.382 . S
C251 C250 1.392 . S
C252 C253 1.387 . S
C252 H256 0.950 . S
C252 C261 1.390 . S
C253 C252 1.387 . S
C253 C255 1.387 . S
H254 C261 0.950 . S
C255 C253 1.387 . S
C255 C257 1.390 . S
C255 H259 0.950 . S
H256 C252 0.950 . S
C257 C255 1.390 . S
C257 C258 1.387 . S
C257 H260 0.950 . S
C258 C257 1.387 . S
C258 C261 1.387 . S
H259 C255 0.950 . S
H260 C257 0.950 . S
C261 C252 1.390 . S
C261 H254 0.950 . S
C261 C258 1.387 . S
C262 C263 1.387 . S
C262 H266 0.950 . S
C262 C271 1.390 . S
C263 C262 1.387 . S
C263 C265 1.387 . S
H264 C271 0.950 . S
C265 C263 1.387 . S
C265 C267 1.390 . S
C265 H269 0.950 1_545 S
H266 C262 0.950 . S
C267 C265 1.390 . S
C267 C268 1.387 . S
C267 H270 0.950 1_545 S
C268 C267 1.387 . S
C268 C271 1.387 . S
H269 C265 0.950 1_565 S
H270 C267 0.950 1_565 S
C271 C262 1.390 . S
C271 H264 0.950 . S
C271 C268 1.387 . S
C272 C273 1.387 . S
C272 H276 0.950 . S
C272 C281 1.390 . S
C273 C272 1.387 . S
C273 C275 1.387 . S
H274 C281 0.950 . S
C275 C273 1.387 . S
C275 C277 1.390 . S
C275 H279 0.950 . S
H276 C272 0.950 . S
C277 C275 1.390 . S
C277 C278 1.387 . S
C277 H280 0.950 . S
C278 C277 1.387 . S
C278 C281 1.387 . S
H279 C275 0.950 . S
H280 C277 0.950 . S
C281 C272 1.390 . S
C281 H274 0.950 . S
C281 C278 1.387 . S
C282 C283 1.387 . S
C282 H286 0.950 . S
C282 C291 1.390 . S
C283 C282 1.387 . S
C283 C285 1.387 . S
H284 C291 0.950 1_655 S
C285 C283 1.387 . S
C285 C287 1.390 . S
C285 H289 0.950 . S
H286 C282 0.950 . S
C287 C285 1.390 . S
C287 C288 1.387 . S
C287 H290 0.950 . S
C288 C287 1.387 . S
C288 C291 1.387 . S
H289 C285 0.950 . S
H290 C287 0.950 . S
C291 C282 1.390 . S
C291 H284 0.950 1_455 S
C291 C288 1.387 . S
C292 C293 1.387 . S
C292 H296 0.950 1_545 S
C292 C301 1.390 . S
C293 C292 1.387 . S
C293 C295 1.387 . S
H294 C301 0.950 1_565 S
C295 C293 1.387 . S
C295 C297 1.390 . S
C295 H299 0.950 . S
H296 C292 0.950 1_565 S
C297 C295 1.390 . S
C297 C298 1.387 . S
C297 H300 0.950 . S
C298 C297 1.387 . S
C298 C301 1.387 . S
H299 C295 0.950 . S
H300 C297 0.950 . S
C301 C292 1.390 . S
C301 H294 0.950 1_545 S
C301 C298 1.387 . S
C302 C303 1.387 . S
C302 H306 0.950 . S
C302 C311 1.390 . S
C303 C302 1.387 . S
C303 C305 1.387 . S
H304 C311 0.950 . S
C305 C303 1.387 . S
C305 C307 1.390 . S
C305 H309 0.950 . S
H306 C302 0.950 . S
C307 C305 1.390 . S
C307 C308 1.387 . S
C307 H310 0.950 . S
C308 C307 1.387 . S
C308 C311 1.387 . S
H309 C305 0.950 . S
H310 C307 0.950 . S
C311 C302 1.390 . S
C311 H304 0.950 . S
C311 C308 1.387 . S
C312 C313 1.387 . S
C312 H316 0.950 . S
C312 C321 1.390 . S
C313 C312 1.387 . S
C313 C315 1.387 . S
H314 C321 0.950 . S
C315 C313 1.387 . S
C315 C317 1.390 . S
C315 H319 0.950 1_545 S
H316 C312 0.950 . S
C317 C315 1.390 . S
C317 C318 1.387 . S
C317 H320 0.950 1_545 S
C318 C317 1.387 . S
C318 C321 1.387 . S
H319 C315 0.950 1_565 S
H320 C317 0.950 1_565 S
C321 C312 1.390 . S
C321 H314 0.950 . S
C321 C318 1.387 . S
C322 C323 1.387 . S
C322 H326 0.950 1_556 S
C322 C331 1.390 . S
C323 C322 1.387 . S
C323 C325 1.387 . S
H324 C331 0.950 . S
C325 C323 1.387 . S
C325 C327 1.390 . S
C325 H329 0.950 . S
H326 C322 0.950 1_554 S
C327 C325 1.390 . S
C327 C328 1.387 . S
C327 H330 0.950 . S
C328 C327 1.387 . S
C328 C331 1.387 . S
H329 C325 0.950 . S
H330 C327 0.950 . S
C331 C322 1.390 . S
C331 H324 0.950 . S
C331 C328 1.387 . S
C332 C333 1.387 1_655 S
C332 H336 0.950 . S
C332 C341 1.390 . S
C333 C332 1.387 1_455 S
C333 C335 1.387 . S
H334 C341 0.950 . S
C335 C333 1.387 . S
C335 C337 1.390 . S
C335 H339 0.950 . S
H336 C332 0.950 . S
C337 C335 1.390 . S
C337 C338 1.387 . S
C337 H340 0.950 . S
C338 C337 1.387 . S
C338 C341 1.387 1_455 S
H339 C335 0.950 . S
H340 C337 0.950 . S
C341 C332 1.390 . S
C341 H334 0.950 . S
C341 C338 1.387 1_655 S
C342 C343 1.387 . S
C342 H346 0.950 1_545 S
C342 C351 1.390 . S
C343 C342 1.387 . S
C343 C345 1.387 . S
H344 C351 0.950 1_565 S
C345 C343 1.387 . S
C345 C347 1.390 . S
C345 H349 0.950 . S
H346 C342 0.950 1_565 S
C347 C345 1.390 . S
C347 C348 1.387 . S
C347 H350 0.950 . S
C348 C347 1.387 . S
C348 C351 1.387 . S
H349 C345 0.950 . S
H350 C347 0.950 . S
C351 C342 1.390 . S
C351 H344 0.950 1_545 S
C351 C348 1.387 . S
C352 C353 1.387 . S
C352 H356 0.950 . S
C352 C361 1.390 . S
C353 C352 1.387 . S
C353 C355 1.387 . S
H354 C361 0.950 . S
C355 C353 1.387 . S
C355 C357 1.390 . S
C355 H359 0.950 . S
H356 C352 0.950 . S
C357 C355 1.390 . S
C357 C358 1.387 . S
C357 H360 0.950 . S
C358 C357 1.387 . S
C358 C361 1.387 . S
H359 C355 0.950 . S
H360 C357 0.950 . S
C361 C352 1.390 . S
C361 H354 0.950 . S
C361 C358 1.387 . S
C362 C363 1.387 1_655 S
C362 H366 0.950 . S
C362 C371 1.390 . S
C363 C362 1.387 1_455 S
C363 C365 1.387 . S
H364 C371 0.950 . S
C365 C363 1.387 . S
C365 C367 1.390 . S
C365 H369 0.950 . S
H366 C362 0.950 . S
C367 C365 1.390 . S
C367 C368 1.387 . S
C367 H370 0.950 . S
C368 C367 1.387 . S
C368 C371 1.387 1_455 S
H369 C365 0.950 . S
H370 C367 0.950 . S
C371 C362 1.390 . S
C371 H364 0.950 . S
C371 C368 1.387 1_655 S
C258 C129 1.503 . S
C253 C14 1.456 . S
C263 C40 1.507 . S
C268 C177 1.530 . S
C273 C76 1.491 . S
C278 C249 1.495 . S
C283 C3 1.488 . S
C288 C153 1.478 . S
C298 C201 1.515 . S
C293 C38 1.505 . S
C303 C74 1.482 . S
C308 C225 1.498 . S
C318 C186 1.470 . S
C313 C86 1.432 . S
C323 C2 1.482 1_556 S
C328 C240 1.499 . S
C338 C144 1.487 . S
C333 C39 1.489 . S
C348 C192 1.492 . S
C343 C75 1.497 . S
C358 C234 1.510 . S
C353 C4 1.487 1_556 S
C363 C50 1.457 . S
C368 C138 1.498 . S
