# Generated by pormake.
# Topology bpr, (3,3)-cn, num edge types: 1
# Building blocks:
#     Node 0, Type 0, BuildingBlock: WUSLED_clean_sbu_0, # of connection points: 3
#     Node 1, Type 0, BuildingBlock: WUSLED_clean_sbu_0, # of connection points: 3
#     Node 2, Type 0, BuildingBlock: WUSLED_clean_sbu_0, # of connection points: 3
#     Node 3, Type 0, BuildingBlock: WUSLED_clean_sbu_0, # of connection points: 3
#     Node 4, Type 0, BuildingBlock: WUSLED_clean_sbu_0, # of connection points: 3
#     Node 5, Type 0, BuildingBlock: WUSLED_clean_sbu_0, # of connection points: 3
#     Node 6, Type 0, BuildingBlock: WUSLED_clean_sbu_0, # of connection points: 3
#     Node 7, Type 0, BuildingBlock: WUSLED_clean_sbu_0, # of connection points: 3
#     Node 8, Type 0, BuildingBlock: WUSLED_clean_sbu_0, # of connection points: 3
#     Node 9, Type 0, BuildingBlock: WUSLED_clean_sbu_0, # of connection points: 3
#     Node 10, Type 0, BuildingBlock: WUSLED_clean_sbu_0, # of connection points: 3
#     Node 11, Type 0, BuildingBlock: WUSLED_clean_sbu_0, # of connection points: 3
#     Node 12, Type 0, BuildingBlock: WUSLED_clean_sbu_0, # of connection points: 3
#     Node 13, Type 0, BuildingBlock: WUSLED_clean_sbu_0, # of connection points: 3
#     Node 14, Type 0, BuildingBlock: WUSLED_clean_sbu_0, # of connection points: 3
#     Node 15, Type 0, BuildingBlock: WUSLED_clean_sbu_0, # of connection points: 3
#     Node 16, Type 0, BuildingBlock: WUSLED_clean_sbu_0, # of connection points: 3
#     Node 17, Type 0, BuildingBlock: WUSLED_clean_sbu_0, # of connection points: 3
#     Node 18, Type 0, BuildingBlock: WUSLED_clean_sbu_0, # of connection points: 3
#     Node 19, Type 0, BuildingBlock: WUSLED_clean_sbu_0, # of connection points: 3
#     Node 20, Type 0, BuildingBlock: WUSLED_clean_sbu_0, # of connection points: 3
#     Node 21, Type 0, BuildingBlock: WUSLED_clean_sbu_0, # of connection points: 3
#     Node 22, Type 0, BuildingBlock: WUSLED_clean_sbu_0, # of connection points: 3
#     Node 23, Type 0, BuildingBlock: WUSLED_clean_sbu_0, # of connection points: 3
#     Node 24, Type 0, BuildingBlock: WUSLED_clean_sbu_0, # of connection points: 3
#     Node 25, Type 0, BuildingBlock: WUSLED_clean_sbu_0, # of connection points: 3
#     Node 26, Type 0, BuildingBlock: WUSLED_clean_sbu_0, # of connection points: 3
#     Node 27, Type 0, BuildingBlock: WUSLED_clean_sbu_0, # of connection points: 3
#     Node 28, Type 0, BuildingBlock: WUSLED_clean_sbu_0, # of connection points: 3
#     Node 29, Type 0, BuildingBlock: WUSLED_clean_sbu_0, # of connection points: 3
#     Node 30, Type 0, BuildingBlock: WUSLED_clean_sbu_0, # of connection points: 3
#     Node 31, Type 0, BuildingBlock: WUSLED_clean_sbu_0, # of connection points: 3
#     Node 32, Type 0, BuildingBlock: WUSLED_clean_sbu_0, # of connection points: 3
#     Node 33, Type 0, BuildingBlock: WUSLED_clean_sbu_0, # of connection points: 3
#     Node 34, Type 0, BuildingBlock: WUSLED_clean_sbu_0, # of connection points: 3
#     Node 35, Type 0, BuildingBlock: WUSLED_clean_sbu_0, # of connection points: 3
#     Node 36, Type 0, BuildingBlock: WUSLED_clean_sbu_0, # of connection points: 3
#     Node 37, Type 0, BuildingBlock: WUSLED_clean_sbu_0, # of connection points: 3
#     Node 38, Type 0, BuildingBlock: WUSLED_clean_sbu_0, # of connection points: 3
#     Node 39, Type 0, BuildingBlock: WUSLED_clean_sbu_0, # of connection points: 3
#     Node 40, Type 0, BuildingBlock: WUSLED_clean_sbu_0, # of connection points: 3
#     Node 41, Type 0, BuildingBlock: WUSLED_clean_sbu_0, # of connection points: 3
#     Node 42, Type 0, BuildingBlock: WUSLED_clean_sbu_0, # of connection points: 3
#     Node 43, Type 0, BuildingBlock: WUSLED_clean_sbu_0, # of connection points: 3
#     Node 44, Type 0, BuildingBlock: WUSLED_clean_sbu_0, # of connection points: 3
#     Node 45, Type 0, BuildingBlock: WUSLED_clean_sbu_0, # of connection points: 3
#     Node 46, Type 0, BuildingBlock: WUSLED_clean_sbu_0, # of connection points: 3
#     Node 47, Type 0, BuildingBlock: WUSLED_clean_sbu_0, # of connection points: 3
#     Node 48, Type 1, BuildingBlock: MIDCAF_clean_linker_0, # of connection points: 3
#     Node 49, Type 1, BuildingBlock: MIDCAF_clean_linker_0, # of connection points: 3
#     Node 50, Type 1, BuildingBlock: MIDCAF_clean_linker_0, # of connection points: 3
#     Node 51, Type 1, BuildingBlock: MIDCAF_clean_linker_0, # of connection points: 3
#     Node 52, Type 1, BuildingBlock: MIDCAF_clean_linker_0, # of connection points: 3
#     Node 53, Type 1, BuildingBlock: MIDCAF_clean_linker_0, # of connection points: 3
#     Node 54, Type 1, BuildingBlock: MIDCAF_clean_linker_0, # of connection points: 3
#     Node 55, Type 1, BuildingBlock: MIDCAF_clean_linker_0, # of connection points: 3
#     Node 56, Type 1, BuildingBlock: MIDCAF_clean_linker_0, # of connection points: 3
#     Node 57, Type 1, BuildingBlock: MIDCAF_clean_linker_0, # of connection points: 3
#     Node 58, Type 1, BuildingBlock: MIDCAF_clean_linker_0, # of connection points: 3
#     Node 59, Type 1, BuildingBlock: MIDCAF_clean_linker_0, # of connection points: 3
#     Node 60, Type 1, BuildingBlock: MIDCAF_clean_linker_0, # of connection points: 3
#     Node 61, Type 1, BuildingBlock: MIDCAF_clean_linker_0, # of connection points: 3
#     Node 62, Type 1, BuildingBlock: MIDCAF_clean_linker_0, # of connection points: 3
#     Node 63, Type 1, BuildingBlock: MIDCAF_clean_linker_0, # of connection points: 3
#     Node 64, Type 1, BuildingBlock: MIDCAF_clean_linker_0, # of connection points: 3
#     Node 65, Type 1, BuildingBlock: MIDCAF_clean_linker_0, # of connection points: 3
#     Node 66, Type 1, BuildingBlock: MIDCAF_clean_linker_0, # of connection points: 3
#     Node 67, Type 1, BuildingBlock: MIDCAF_clean_linker_0, # of connection points: 3
#     Node 68, Type 1, BuildingBlock: MIDCAF_clean_linker_0, # of connection points: 3
#     Node 69, Type 1, BuildingBlock: MIDCAF_clean_linker_0, # of connection points: 3
#     Node 70, Type 1, BuildingBlock: MIDCAF_clean_linker_0, # of connection points: 3
#     Node 71, Type 1, BuildingBlock: MIDCAF_clean_linker_0, # of connection points: 3
#     Node 72, Type 1, BuildingBlock: MIDCAF_clean_linker_0, # of connection points: 3
#     Node 73, Type 1, BuildingBlock: MIDCAF_clean_linker_0, # of connection points: 3
#     Node 74, Type 1, BuildingBlock: MIDCAF_clean_linker_0, # of connection points: 3
#     Node 75, Type 1, BuildingBlock: MIDCAF_clean_linker_0, # of connection points: 3
#     Node 76, Type 1, BuildingBlock: MIDCAF_clean_linker_0, # of connection points: 3
#     Node 77, Type 1, BuildingBlock: MIDCAF_clean_linker_0, # of connection points: 3
#     Node 78, Type 1, BuildingBlock: MIDCAF_clean_linker_0, # of connection points: 3
#     Node 79, Type 1, BuildingBlock: MIDCAF_clean_linker_0, # of connection points: 3
#     Node 80, Type 1, BuildingBlock: MIDCAF_clean_linker_0, # of connection points: 3
#     Node 81, Type 1, BuildingBlock: MIDCAF_clean_linker_0, # of connection points: 3
#     Node 82, Type 1, BuildingBlock: MIDCAF_clean_linker_0, # of connection points: 3
#     Node 83, Type 1, BuildingBlock: MIDCAF_clean_linker_0, # of connection points: 3
#     Node 84, Type 1, BuildingBlock: MIDCAF_clean_linker_0, # of connection points: 3
#     Node 85, Type 1, BuildingBlock: MIDCAF_clean_linker_0, # of connection points: 3
#     Node 86, Type 1, BuildingBlock: MIDCAF_clean_linker_0, # of connection points: 3
#     Node 87, Type 1, BuildingBlock: MIDCAF_clean_linker_0, # of connection points: 3
#     Node 88, Type 1, BuildingBlock: MIDCAF_clean_linker_0, # of connection points: 3
#     Node 89, Type 1, BuildingBlock: MIDCAF_clean_linker_0, # of connection points: 3
#     Node 90, Type 1, BuildingBlock: MIDCAF_clean_linker_0, # of connection points: 3
#     Node 91, Type 1, BuildingBlock: MIDCAF_clean_linker_0, # of connection points: 3
#     Node 92, Type 1, BuildingBlock: MIDCAF_clean_linker_0, # of connection points: 3
#     Node 93, Type 1, BuildingBlock: MIDCAF_clean_linker_0, # of connection points: 3
#     Node 94, Type 1, BuildingBlock: MIDCAF_clean_linker_0, # of connection points: 3
#     Node 95, Type 1, BuildingBlock: MIDCAF_clean_linker_0, # of connection points: 3
#     Edge 96, Type (0, 1), BuildingBlock: MIFKUJ_clean_linker_0, # of connection points: 2
#     Edge 97, Type (0, 1), BuildingBlock: MIFKUJ_clean_linker_0, # of connection points: 2
#     Edge 98, Type (0, 1), BuildingBlock: MIFKUJ_clean_linker_0, # of connection points: 2
#     Edge 99, Type (0, 1), BuildingBlock: MIFKUJ_clean_linker_0, # of connection points: 2
#     Edge 100, Type (0, 1), BuildingBlock: MIFKUJ_clean_linker_0, # of connection points: 2
#     Edge 101, Type (0, 1), BuildingBlock: MIFKUJ_clean_linker_0, # of connection points: 2
#     Edge 102, Type (0, 1), BuildingBlock: MIFKUJ_clean_linker_0, # of connection points: 2
#     Edge 103, Type (0, 1), BuildingBlock: MIFKUJ_clean_linker_0, # of connection points: 2
#     Edge 104, Type (0, 1), BuildingBlock: MIFKUJ_clean_linker_0, # of connection points: 2
#     Edge 105, Type (0, 1), BuildingBlock: MIFKUJ_clean_linker_0, # of connection points: 2
#     Edge 106, Type (0, 1), BuildingBlock: MIFKUJ_clean_linker_0, # of connection points: 2
#     Edge 107, Type (0, 1), BuildingBlock: MIFKUJ_clean_linker_0, # of connection points: 2
#     Edge 108, Type (0, 1), BuildingBlock: MIFKUJ_clean_linker_0, # of connection points: 2
#     Edge 109, Type (0, 1), BuildingBlock: MIFKUJ_clean_linker_0, # of connection points: 2
#     Edge 110, Type (0, 1), BuildingBlock: MIFKUJ_clean_linker_0, # of connection points: 2
#     Edge 111, Type (0, 1), BuildingBlock: MIFKUJ_clean_linker_0, # of connection points: 2
#     Edge 112, Type (0, 1), BuildingBlock: MIFKUJ_clean_linker_0, # of connection points: 2
#     Edge 113, Type (0, 1), BuildingBlock: MIFKUJ_clean_linker_0, # of connection points: 2
#     Edge 114, Type (0, 1), BuildingBlock: MIFKUJ_clean_linker_0, # of connection points: 2
#     Edge 115, Type (0, 1), BuildingBlock: MIFKUJ_clean_linker_0, # of connection points: 2
#     Edge 116, Type (0, 1), BuildingBlock: MIFKUJ_clean_linker_0, # of connection points: 2
#     Edge 117, Type (0, 1), BuildingBlock: MIFKUJ_clean_linker_0, # of connection points: 2
#     Edge 118, Type (0, 1), BuildingBlock: MIFKUJ_clean_linker_0, # of connection points: 2
#     Edge 119, Type (0, 1), BuildingBlock: MIFKUJ_clean_linker_0, # of connection points: 2
#     Edge 120, Type (0, 1), BuildingBlock: MIFKUJ_clean_linker_0, # of connection points: 2
#     Edge 121, Type (0, 1), BuildingBlock: MIFKUJ_clean_linker_0, # of connection points: 2
#     Edge 122, Type (0, 1), BuildingBlock: MIFKUJ_clean_linker_0, # of connection points: 2
#     Edge 123, Type (0, 1), BuildingBlock: MIFKUJ_clean_linker_0, # of connection points: 2
#     Edge 124, Type (0, 1), BuildingBlock: MIFKUJ_clean_linker_0, # of connection points: 2
#     Edge 125, Type (0, 1), BuildingBlock: MIFKUJ_clean_linker_0, # of connection points: 2
#     Edge 126, Type (0, 1), BuildingBlock: MIFKUJ_clean_linker_0, # of connection points: 2
#     Edge 127, Type (0, 1), BuildingBlock: MIFKUJ_clean_linker_0, # of connection points: 2
#     Edge 128, Type (0, 1), BuildingBlock: MIFKUJ_clean_linker_0, # of connection points: 2
#     Edge 129, Type (0, 1), BuildingBlock: MIFKUJ_clean_linker_0, # of connection points: 2
#     Edge 130, Type (0, 1), BuildingBlock: MIFKUJ_clean_linker_0, # of connection points: 2
#     Edge 131, Type (0, 1), BuildingBlock: MIFKUJ_clean_linker_0, # of connection points: 2
#     Edge 132, Type (0, 1), BuildingBlock: MIFKUJ_clean_linker_0, # of connection points: 2
#     Edge 133, Type (0, 1), BuildingBlock: MIFKUJ_clean_linker_0, # of connection points: 2
#     Edge 134, Type (0, 1), BuildingBlock: MIFKUJ_clean_linker_0, # of connection points: 2
#     Edge 135, Type (0, 1), BuildingBlock: MIFKUJ_clean_linker_0, # of connection points: 2
#     Edge 136, Type (0, 1), BuildingBlock: MIFKUJ_clean_linker_0, # of connection points: 2
#     Edge 137, Type (0, 1), BuildingBlock: MIFKUJ_clean_linker_0, # of connection points: 2
#     Edge 138, Type (0, 1), BuildingBlock: MIFKUJ_clean_linker_0, # of connection points: 2
#     Edge 139, Type (0, 1), BuildingBlock: MIFKUJ_clean_linker_0, # of connection points: 2
#     Edge 140, Type (0, 1), BuildingBlock: MIFKUJ_clean_linker_0, # of connection points: 2
#     Edge 141, Type (0, 1), BuildingBlock: MIFKUJ_clean_linker_0, # of connection points: 2
#     Edge 142, Type (0, 1), BuildingBlock: MIFKUJ_clean_linker_0, # of connection points: 2
#     Edge 143, Type (0, 1), BuildingBlock: MIFKUJ_clean_linker_0, # of connection points: 2
#     Edge 144, Type (0, 1), BuildingBlock: MIFKUJ_clean_linker_0, # of connection points: 2
#     Edge 145, Type (0, 1), BuildingBlock: MIFKUJ_clean_linker_0, # of connection points: 2
#     Edge 146, Type (0, 1), BuildingBlock: MIFKUJ_clean_linker_0, # of connection points: 2
#     Edge 147, Type (0, 1), BuildingBlock: MIFKUJ_clean_linker_0, # of connection points: 2
#     Edge 148, Type (0, 1), BuildingBlock: MIFKUJ_clean_linker_0, # of connection points: 2
#     Edge 149, Type (0, 1), BuildingBlock: MIFKUJ_clean_linker_0, # of connection points: 2
#     Edge 150, Type (0, 1), BuildingBlock: MIFKUJ_clean_linker_0, # of connection points: 2
#     Edge 151, Type (0, 1), BuildingBlock: MIFKUJ_clean_linker_0, # of connection points: 2
#     Edge 152, Type (0, 1), BuildingBlock: MIFKUJ_clean_linker_0, # of connection points: 2
#     Edge 153, Type (0, 1), BuildingBlock: MIFKUJ_clean_linker_0, # of connection points: 2
#     Edge 154, Type (0, 1), BuildingBlock: MIFKUJ_clean_linker_0, # of connection points: 2
#     Edge 155, Type (0, 1), BuildingBlock: MIFKUJ_clean_linker_0, # of connection points: 2
#     Edge 156, Type (0, 1), BuildingBlock: MIFKUJ_clean_linker_0, # of connection points: 2
#     Edge 157, Type (0, 1), BuildingBlock: MIFKUJ_clean_linker_0, # of connection points: 2
#     Edge 158, Type (0, 1), BuildingBlock: MIFKUJ_clean_linker_0, # of connection points: 2
#     Edge 159, Type (0, 1), BuildingBlock: MIFKUJ_clean_linker_0, # of connection points: 2
#     Edge 160, Type (0, 1), BuildingBlock: MIFKUJ_clean_linker_0, # of connection points: 2
#     Edge 161, Type (0, 1), BuildingBlock: MIFKUJ_clean_linker_0, # of connection points: 2
#     Edge 162, Type (0, 1), BuildingBlock: MIFKUJ_clean_linker_0, # of connection points: 2
#     Edge 163, Type (0, 1), BuildingBlock: MIFKUJ_clean_linker_0, # of connection points: 2
#     Edge 164, Type (0, 1), BuildingBlock: MIFKUJ_clean_linker_0, # of connection points: 2
#     Edge 165, Type (0, 1), BuildingBlock: MIFKUJ_clean_linker_0, # of connection points: 2
#     Edge 166, Type (0, 1), BuildingBlock: MIFKUJ_clean_linker_0, # of connection points: 2
#     Edge 167, Type (0, 1), BuildingBlock: MIFKUJ_clean_linker_0, # of connection points: 2
#     Edge 168, Type (0, 1), BuildingBlock: MIFKUJ_clean_linker_0, # of connection points: 2
#     Edge 169, Type (0, 1), BuildingBlock: MIFKUJ_clean_linker_0, # of connection points: 2
#     Edge 170, Type (0, 1), BuildingBlock: MIFKUJ_clean_linker_0, # of connection points: 2
#     Edge 171, Type (0, 1), BuildingBlock: MIFKUJ_clean_linker_0, # of connection points: 2
#     Edge 172, Type (0, 1), BuildingBlock: MIFKUJ_clean_linker_0, # of connection points: 2
#     Edge 173, Type (0, 1), BuildingBlock: MIFKUJ_clean_linker_0, # of connection points: 2
#     Edge 174, Type (0, 1), BuildingBlock: MIFKUJ_clean_linker_0, # of connection points: 2
#     Edge 175, Type (0, 1), BuildingBlock: MIFKUJ_clean_linker_0, # of connection points: 2
#     Edge 176, Type (0, 1), BuildingBlock: MIFKUJ_clean_linker_0, # of connection points: 2
#     Edge 177, Type (0, 1), BuildingBlock: MIFKUJ_clean_linker_0, # of connection points: 2
#     Edge 178, Type (0, 1), BuildingBlock: MIFKUJ_clean_linker_0, # of connection points: 2
#     Edge 179, Type (0, 1), BuildingBlock: MIFKUJ_clean_linker_0, # of connection points: 2
#     Edge 180, Type (0, 1), BuildingBlock: MIFKUJ_clean_linker_0, # of connection points: 2
#     Edge 181, Type (0, 1), BuildingBlock: MIFKUJ_clean_linker_0, # of connection points: 2
#     Edge 182, Type (0, 1), BuildingBlock: MIFKUJ_clean_linker_0, # of connection points: 2
#     Edge 183, Type (0, 1), BuildingBlock: MIFKUJ_clean_linker_0, # of connection points: 2
#     Edge 184, Type (0, 1), BuildingBlock: MIFKUJ_clean_linker_0, # of connection points: 2
#     Edge 185, Type (0, 1), BuildingBlock: MIFKUJ_clean_linker_0, # of connection points: 2
#     Edge 186, Type (0, 1), BuildingBlock: MIFKUJ_clean_linker_0, # of connection points: 2
#     Edge 187, Type (0, 1), BuildingBlock: MIFKUJ_clean_linker_0, # of connection points: 2
#     Edge 188, Type (0, 1), BuildingBlock: MIFKUJ_clean_linker_0, # of connection points: 2
#     Edge 189, Type (0, 1), BuildingBlock: MIFKUJ_clean_linker_0, # of connection points: 2
#     Edge 190, Type (0, 1), BuildingBlock: MIFKUJ_clean_linker_0, # of connection points: 2
#     Edge 191, Type (0, 1), BuildingBlock: MIFKUJ_clean_linker_0, # of connection points: 2
#     Edge 192, Type (0, 1), BuildingBlock: MIFKUJ_clean_linker_0, # of connection points: 2
#     Edge 193, Type (0, 1), BuildingBlock: MIFKUJ_clean_linker_0, # of connection points: 2
#     Edge 194, Type (0, 1), BuildingBlock: MIFKUJ_clean_linker_0, # of connection points: 2
#     Edge 195, Type (0, 1), BuildingBlock: MIFKUJ_clean_linker_0, # of connection points: 2
#     Edge 196, Type (0, 1), BuildingBlock: MIFKUJ_clean_linker_0, # of connection points: 2
#     Edge 197, Type (0, 1), BuildingBlock: MIFKUJ_clean_linker_0, # of connection points: 2
#     Edge 198, Type (0, 1), BuildingBlock: MIFKUJ_clean_linker_0, # of connection points: 2
#     Edge 199, Type (0, 1), BuildingBlock: MIFKUJ_clean_linker_0, # of connection points: 2
#     Edge 200, Type (0, 1), BuildingBlock: MIFKUJ_clean_linker_0, # of connection points: 2
#     Edge 201, Type (0, 1), BuildingBlock: MIFKUJ_clean_linker_0, # of connection points: 2
#     Edge 202, Type (0, 1), BuildingBlock: MIFKUJ_clean_linker_0, # of connection points: 2
#     Edge 203, Type (0, 1), BuildingBlock: MIFKUJ_clean_linker_0, # of connection points: 2
#     Edge 204, Type (0, 1), BuildingBlock: MIFKUJ_clean_linker_0, # of connection points: 2
#     Edge 205, Type (0, 1), BuildingBlock: MIFKUJ_clean_linker_0, # of connection points: 2
#     Edge 206, Type (0, 1), BuildingBlock: MIFKUJ_clean_linker_0, # of connection points: 2
#     Edge 207, Type (0, 1), BuildingBlock: MIFKUJ_clean_linker_0, # of connection points: 2
#     Edge 208, Type (0, 1), BuildingBlock: MIFKUJ_clean_linker_0, # of connection points: 2
#     Edge 209, Type (0, 1), BuildingBlock: MIFKUJ_clean_linker_0, # of connection points: 2
#     Edge 210, Type (0, 1), BuildingBlock: MIFKUJ_clean_linker_0, # of connection points: 2
#     Edge 211, Type (0, 1), BuildingBlock: MIFKUJ_clean_linker_0, # of connection points: 2
#     Edge 212, Type (0, 1), BuildingBlock: MIFKUJ_clean_linker_0, # of connection points: 2
#     Edge 213, Type (0, 1), BuildingBlock: MIFKUJ_clean_linker_0, # of connection points: 2
#     Edge 214, Type (0, 1), BuildingBlock: MIFKUJ_clean_linker_0, # of connection points: 2
#     Edge 215, Type (0, 1), BuildingBlock: MIFKUJ_clean_linker_0, # of connection points: 2
#     Edge 216, Type (0, 1), BuildingBlock: MIFKUJ_clean_linker_0, # of connection points: 2
#     Edge 217, Type (0, 1), BuildingBlock: MIFKUJ_clean_linker_0, # of connection points: 2
#     Edge 218, Type (0, 1), BuildingBlock: MIFKUJ_clean_linker_0, # of connection points: 2
#     Edge 219, Type (0, 1), BuildingBlock: MIFKUJ_clean_linker_0, # of connection points: 2
#     Edge 220, Type (0, 1), BuildingBlock: MIFKUJ_clean_linker_0, # of connection points: 2
#     Edge 221, Type (0, 1), BuildingBlock: MIFKUJ_clean_linker_0, # of connection points: 2
#     Edge 222, Type (0, 1), BuildingBlock: MIFKUJ_clean_linker_0, # of connection points: 2
#     Edge 223, Type (0, 1), BuildingBlock: MIFKUJ_clean_linker_0, # of connection points: 2
#     Edge 224, Type (0, 1), BuildingBlock: MIFKUJ_clean_linker_0, # of connection points: 2
#     Edge 225, Type (0, 1), BuildingBlock: MIFKUJ_clean_linker_0, # of connection points: 2
#     Edge 226, Type (0, 1), BuildingBlock: MIFKUJ_clean_linker_0, # of connection points: 2
#     Edge 227, Type (0, 1), BuildingBlock: MIFKUJ_clean_linker_0, # of connection points: 2
#     Edge 228, Type (0, 1), BuildingBlock: MIFKUJ_clean_linker_0, # of connection points: 2
#     Edge 229, Type (0, 1), BuildingBlock: MIFKUJ_clean_linker_0, # of connection points: 2
#     Edge 230, Type (0, 1), BuildingBlock: MIFKUJ_clean_linker_0, # of connection points: 2
#     Edge 231, Type (0, 1), BuildingBlock: MIFKUJ_clean_linker_0, # of connection points: 2
#     Edge 232, Type (0, 1), BuildingBlock: MIFKUJ_clean_linker_0, # of connection points: 2
#     Edge 233, Type (0, 1), BuildingBlock: MIFKUJ_clean_linker_0, # of connection points: 2
#     Edge 234, Type (0, 1), BuildingBlock: MIFKUJ_clean_linker_0, # of connection points: 2
#     Edge 235, Type (0, 1), BuildingBlock: MIFKUJ_clean_linker_0, # of connection points: 2
#     Edge 236, Type (0, 1), BuildingBlock: MIFKUJ_clean_linker_0, # of connection points: 2
#     Edge 237, Type (0, 1), BuildingBlock: MIFKUJ_clean_linker_0, # of connection points: 2
#     Edge 238, Type (0, 1), BuildingBlock: MIFKUJ_clean_linker_0, # of connection points: 2
#     Edge 239, Type (0, 1), BuildingBlock: MIFKUJ_clean_linker_0, # of connection points: 2
# Relax obj value: 0.092
# Max RMSD: 0.078
# Mean RMSD: 0.074
data_MOF--net-bpr--node1-WUSLED_clean_sbu_0--node2-MIDCAF_clean_linker_0--edge1-MIFKUJ_clean_linker_0
_symmetry_space_group_name_H-M    P1
_symmetry_Int_Tables_number       1
_symmetry_cell_setting            triclinic
loop_
_symmetry_equiv_pos_as_xyz
'x, y, z'
_cell_length_a     147.93081
_cell_length_b     147.874
_cell_length_c     148.76327
_cell_angle_alpha  90.121361
_cell_angle_beta   90.006237
_cell_angle_gamma 90.202738
loop_
_atom_site_label
_atom_site_type_symbol
_atom_site_fract_x
_atom_site_fract_y
_atom_site_fract_z
_atom_type_partial_charge
C0 C 0.01278 0.37743 0.27268 0.0
C1 C 0.01504 0.38177 0.28078 0.0
C2 C 0.99913 0.38428 0.284 0.0
C3 C 0.00828 0.38521 0.28636 0.0
C4 C 0.99687 0.37985 0.27592 0.0
C5 C 1.00366 0.37649 0.27029 0.0
U6 U 0.03604 0.36739 0.27033 0.0
O7 O 0.0413 0.35649 0.26167 0.0
O8 O 0.04712 0.37016 0.26091 0.0
C9 C 0.04696 0.36194 0.25753 0.0
C10 C 0.01989 0.37368 0.26686 0.0
C11 C 0.04703 0.36143 0.24768 0.0
C12 C 0.04138 0.36616 0.2331 0.0
C13 C 0.04063 0.36605 0.24248 0.0
C14 C 0.05473 0.35676 0.23407 0.0
C15 C 0.04856 0.36166 0.22881 0.0
C16 C 0.05397 0.35665 0.24342 0.0
C17 C 0.05009 0.36419 0.29157 0.0
C18 C 0.06649 0.36434 0.29262 0.0
C19 C 0.05757 0.35727 0.30433 0.0
C20 C 0.04966 0.35948 0.29972 0.0
C21 C 0.06609 0.35978 0.30091 0.0
C22 C 0.05857 0.36647 0.28797 0.0
C23 C 0.04164 0.3668 0.28703 0.0
O24 O 0.02728 0.37861 0.26625 0.0
O25 O 0.02152 0.36502 0.26796 0.0
O26 O 0.03707 0.36018 0.28325 0.0
O27 O 0.04208 0.37412 0.28204 0.0
H28 H 0.02204 0.38246 0.28283 0.0
H29 H 0.01022 0.38845 0.29261 0.0
H30 H 0.98987 0.37907 0.27393 0.0
H31 H 1.00179 0.37311 0.26408 0.0
H32 H 0.03656 0.37005 0.22924 0.0
H33 H 0.03522 0.36978 0.24569 0.0
H34 H 0.06025 0.35311 0.23096 0.0
H35 H 0.05895 0.35302 0.24734 0.0
H36 H 0.0729 0.36648 0.28982 0.0
H37 H 0.05701 0.3536 0.3106 0.0
H38 H 0.04318 0.35759 0.30257 0.0
H39 H 0.05908 0.37005 0.28165 0.0
C40 C 0.87401 0.74377 0.53144 0.0
C41 C 0.87143 0.74139 0.54019 0.0
C42 C 0.87245 0.72542 0.53633 0.0
C43 C 0.87066 0.7323 0.54262 0.0
C44 C 0.87502 0.72785 0.52754 0.0
C45 C 0.87578 0.73697 0.52512 0.0
U46 U 0.87223 0.76824 0.53816 0.0
O47 O 0.881 0.77994 0.53554 0.0
O48 O 0.86687 0.7801 0.53101 0.0
C49 C 0.87474 0.78424 0.53098 0.0
C50 C 0.87488 0.75333 0.52897 0.0
C51 C 0.87762 0.78802 0.52232 0.0
C52 C 0.8856 0.78682 0.50809 0.0
C53 C 0.88257 0.78288 0.5161 0.0
C54 C 0.87857 0.80097 0.51237 0.0
C55 C 0.88366 0.79592 0.50616 0.0
C56 C 0.87559 0.79705 0.52037 0.0
C57 C 0.86509 0.7739 0.56205 0.0
C58 C 0.8594 0.78857 0.56674 0.0
C59 C 0.86607 0.7785 0.57771 0.0
C60 C 0.86759 0.7721 0.57096 0.0
C61 C 0.86197 0.78684 0.57568 0.0
C62 C 0.861 0.78219 0.55998 0.0
C63 C 0.86709 0.76721 0.55499 0.0
O64 O 0.86723 0.75783 0.52879 0.0
O65 O 0.88141 0.75773 0.5331 0.0
O66 O 0.8756 0.76682 0.5525 0.0
O67 O 0.8614 0.76693 0.54819 0.0
H68 H 0.87006 0.74658 0.54517 0.0
H69 H 0.86882 0.73068 0.54948 0.0
H70 H 0.87635 0.72272 0.52252 0.0
H71 H 0.87776 0.7387 0.51833 0.0
H72 H 0.88943 0.78274 0.50339 0.0
H73 H 0.88417 0.77588 0.51749 0.0
H74 H 0.87707 0.80802 0.51115 0.0
H75 H 0.8718 0.80111 0.52511 0.0
H76 H 0.85612 0.79484 0.56494 0.0
H77 H 0.86828 0.77699 0.58448 0.0
H78 H 0.87082 0.76577 0.57267 0.0
H79 H 0.85907 0.78376 0.55314 0.0
C80 C 0.48554 0.64046 0.74397 0.0
C81 C 0.47695 0.64387 0.74189 0.0
C82 C 0.47956 0.64098 0.72599 0.0
C83 C 0.474 0.64414 0.73299 0.0
C84 C 0.48825 0.63776 0.72809 0.0
C85 C 0.4912 0.63748 0.73703 0.0
U86 U 0.47944 0.6425 0.76837 0.0
O87 O 0.48196 0.63363 0.7799 0.0
O88 O 0.48697 0.64763 0.78011 0.0
C89 C 0.48684 0.63974 0.78415 0.0
C90 C 0.48833 0.63965 0.7534 0.0
C91 C 0.49554 0.63661 0.78774 0.0
C92 C 0.50911 0.62744 0.78668 0.0
C93 C 0.50108 0.63066 0.78288 0.0
C94 C 0.50623 0.63628 0.80011 0.0
C95 C 0.51174 0.63018 0.79536 0.0
C96 C 0.4982 0.63945 0.79633 0.0
C97 C 0.45565 0.65003 0.77421 0.0
C98 C 0.45043 0.64999 0.78968 0.0
C99 C 0.44056 0.65528 0.77781 0.0
C100 C 0.44733 0.65357 0.77148 0.0
C101 C 0.44201 0.65347 0.78698 0.0
C102 C 0.45719 0.6483 0.78335 0.0
C103 C 0.46263 0.64802 0.7675 0.0
O104 O 0.48875 0.64732 0.75787 0.0
O105 O 0.48419 0.63319 0.75786 0.0
O106 O 0.46496 0.63947 0.76697 0.0
O107 O 0.46958 0.65357 0.76745 0.0
H108 H 0.47249 0.6462 0.74718 0.0
H109 H 0.46733 0.64679 0.73159 0.0
H110 H 0.49265 0.63521 0.72286 0.0
H111 H 0.49784 0.63479 0.73854 0.0
H112 H 0.51326 0.62282 0.78283 0.0
H113 H 0.49916 0.62844 0.7762 0.0
H114 H 0.508 0.63843 0.80685 0.0
H115 H 0.49399 0.64402 0.80018 0.0
H116 H 0.45173 0.6484 0.79666 0.0
H117 H 0.4342 0.65808 0.77552 0.0
H118 H 0.44606 0.65498 0.76445 0.0
H119 H 0.4636 0.64554 0.78556 0.0
C120 C 0.64153 0.27267 0.03264 0.0
C121 C 0.63811 0.27563 0.04095 0.0
C122 C 0.64212 0.29116 0.03729 0.0
C123 C 0.63835 0.2848 0.04322 0.0
C124 C 0.64565 0.28818 0.02903 0.0
C125 C 0.64531 0.279 0.02671 0.0
U126 U 0.64464 0.24814 0.03917 0.0
O127 O 0.63632 0.23611 0.0365 0.0
O128 O 0.65039 0.23658 0.03179 0.0
C129 C 0.64268 0.23213 0.03178 0.0
C130 C 0.64137 0.263 0.0302 0.0
C131 C 0.6398 0.22844 0.02307 0.0
C132 C 0.63184 0.22984 0.00886 0.0
C133 C 0.63489 0.23367 0.01692 0.0
C134 C 0.63875 0.2156 0.01295 0.0
C135 C 0.6337 0.22074 1.00681 0.0
C136 C 0.64176 0.21942 0.02101 0.0
C137 C 0.65182 0.24244 0.0629 0.0
C138 C 0.6521 0.22679 0.06779 0.0
C139 C 0.65677 0.23873 0.078 0.0
C140 C 0.65506 0.24516 0.07133 0.0
C141 C 0.65523 0.22948 0.07632 0.0
C142 C 0.65042 0.23322 0.06113 0.0
C143 C 0.64974 0.24922 0.05603 0.0
O144 O 0.64928 0.25897 0.03009 0.0
O145 O 0.635 0.25813 0.03404 0.0
O146 O 0.64123 0.24945 0.05349 0.0
O147 O 0.65544 0.24957 0.04926 0.0
H148 H 0.63528 0.27088 0.04571 0.0
H149 H 0.6357 0.28689 0.04968 0.0
H150 H 0.64857 0.29295 0.02433 0.0
H151 H 0.64803 0.27684 0.02029 0.0
H152 H 0.62804 0.234 1.00422 0.0
H153 H 0.63334 0.24068 0.01841 0.0
H154 H 0.6402 0.20854 0.01164 0.0
H155 H 0.64552 0.21528 0.0257 0.0
H156 H 0.65096 0.21972 0.06626 0.0
H157 H 0.65909 0.24102 0.08453 0.0
H158 H 0.65616 0.25226 0.07279 0.0
H159 H 0.64796 0.23101 0.05462 0.0
C160 C 0.01404 0.63725 0.24251 0.0
C161 C 0.01642 0.63421 0.2339 0.0
C162 C 1.00062 0.63121 0.23039 0.0
C163 C 0.0098 0.63117 0.22793 0.0
C164 C 0.99826 0.63425 0.23906 0.0
C165 C 1.00492 0.63724 0.24507 0.0
U166 U 0.03713 0.64735 0.24534 0.0
O167 O 0.04262 0.65769 0.25453 0.0
O168 O 0.04843 0.64403 0.2543 0.0
C169 C 0.04839 0.65202 0.25818 0.0
C170 C 0.02106 0.64068 0.24866 0.0
C171 C 0.04873 0.65189 0.26803 0.0
C172 C 0.04204 0.64842 0.28254 0.0
C173 C 0.04128 0.64912 0.27318 0.0
C174 C 0.05765 0.65339 0.28162 0.0
C175 C 0.0503 0.6504 0.28683 0.0
C176 C 0.05687 0.65412 0.27231 0.0
C177 C 0.05061 0.65168 0.22398 0.0
C178 C 0.0661 0.65716 0.22453 0.0
C179 C 0.0595 0.65251 0.21033 0.0
C180 C 0.05139 0.65049 0.21468 0.0
C181 C 0.06699 0.65575 0.21521 0.0
C182 C 0.05797 0.65511 0.22889 0.0
C183 C 0.04228 0.64885 0.22854 0.0
O184 O 0.02848 0.63581 0.24893 0.0
O185 O 0.02265 0.64941 0.24812 0.0
O186 O 0.03789 0.65525 0.23284 0.0
O187 O 0.04295 0.64133 0.23315 0.0
H188 H 0.02343 0.63421 0.23176 0.0
H189 H 0.0119 0.62873 0.22139 0.0
H190 H 0.99125 0.63448 0.24115 0.0
H191 H 1.00296 0.63963 0.25167 0.0
H192 H 0.03628 0.64606 0.28638 0.0
H193 H 0.03495 0.64733 0.26995 0.0
H194 H 0.06405 0.65509 0.28475 0.0
H195 H 0.06268 0.65627 0.26842 0.0
H196 H 0.07177 0.65957 0.22848 0.0
H197 H 0.05994 0.65147 0.20313 0.0
H198 H 0.04576 0.64785 0.21081 0.0
H199 H 0.05748 0.65601 0.2361 0.0
C200 C 0.64245 0.7419 0.48418 0.0
C201 C 0.6442 0.7397 0.47518 0.0
C202 C 0.64333 0.72367 0.47875 0.0
C203 C 0.64463 0.73066 0.47249 0.0
C204 C 0.6418 0.72592 0.48782 0.0
C205 C 0.64134 0.73498 0.49051 0.0
U206 U 0.64372 0.76653 0.47795 0.0
O207 O 0.63452 0.77783 0.48065 0.0
O208 O 0.64858 0.7785 0.48539 0.0
C209 C 0.64055 0.78228 0.48544 0.0
C210 C 0.64151 0.75141 0.48686 0.0
C211 C 0.63742 0.78571 0.49418 0.0
C212 C 0.62849 0.78419 0.50781 0.0
C213 C 0.63171 0.78057 0.49973 0.0
C214 C 0.63687 0.79801 0.50499 0.0
C215 C 0.63101 0.79298 0.51051 0.0
C216 C 0.64003 0.79441 0.4969 0.0
C217 C 0.65065 0.77268 0.45412 0.0
C218 C 0.64828 0.78767 0.44795 0.0
C219 C 0.65742 0.7768 0.43984 0.0
C220 C 0.65597 0.77046 0.44665 0.0
C221 C 0.65352 0.78545 0.44038 0.0
C222 C 0.64689 0.78135 0.45479 0.0
C223 C 0.649 0.76588 0.46113 0.0
O224 O 0.64907 0.7561 0.48703 0.0
O225 O 0.63484 0.7557 0.4829 0.0
O226 O 0.64052 0.76498 0.46362 0.0
O227 O 0.65467 0.76604 0.46792 0.0
H228 H 0.64512 0.74497 0.47022 0.0
H229 H 0.64594 0.72914 0.46548 0.0
H230 H 0.64071 0.72068 0.49279 0.0
H231 H 0.63997 0.73659 0.49749 0.0
H232 H 0.62406 0.78012 0.51197 0.0
H233 H 0.62966 0.77381 0.49776 0.0
H234 H 0.63884 0.80483 0.50681 0.0
H235 H 0.64442 0.79848 0.49269 0.0
H236 H 0.64529 0.79432 0.44861 0.0
H237 H 0.66143 0.77488 0.43405 0.0
H238 H 0.65894 0.7638 0.44605 0.0
H239 H 0.64283 0.7832 0.46056 0.0
C240 C 0.50332 0.38032 0.74271 0.0
C241 C 0.50116 0.38418 0.73437 0.0
C242 C 0.5171 0.3868 0.7313 0.0
C243 C 0.50798 0.38744 0.72875 0.0
C244 C 0.51925 0.38287 0.73963 0.0
C245 C 0.5124 0.37968 0.74531 0.0
U246 U 0.47992 0.37051 0.74497 0.0
O247 O 0.47437 0.3598 0.75365 0.0
O248 O 0.46878 0.37353 0.75423 0.0
C249 C 0.46874 0.36536 0.75767 0.0
C250 C 0.49613 0.37673 0.74855 0.0
C251 C 0.46853 0.36502 0.76752 0.0
C252 C 0.47549 0.36766 0.78209 0.0
C253 C 0.47613 0.36732 0.7727 0.0
C254 C 0.45972 0.36325 0.78114 0.0
C255 C 0.46722 0.36579 0.78638 0.0
C256 C 0.46038 0.36287 0.77179 0.0
C257 C 0.466 0.36734 0.72373 0.0
C258 C 0.45135 0.35985 0.72391 0.0
C259 C 0.45585 0.36881 0.71102 0.0
C260 C 0.4641 0.37076 0.71517 0.0
C261 C 0.44937 0.36339 0.71537 0.0
C262 C 0.4596 0.36186 0.72809 0.0
C263 C 0.47448 0.36991 0.7282 0.0
O264 O 0.48881 0.38172 0.74904 0.0
O265 O 0.49438 0.36806 0.74752 0.0
O266 O 0.47896 0.3633 0.73205 0.0
O267 O 0.47399 0.37722 0.7332 0.0
H268 H 0.49419 0.38462 0.73218 0.0
H269 H 0.50612 0.3903 0.72231 0.0
H270 H 0.52622 0.38232 0.74179 0.0
H271 H 0.51419 0.37667 0.7517 0.0
H272 H 0.48136 0.36969 0.78597 0.0
H273 H 0.48247 0.36904 0.76948 0.0
H274 H 0.45329 0.36165 0.78426 0.0
H275 H 0.45445 0.36109 0.76788 0.0
H276 H 0.44645 0.35573 0.72745 0.0
H277 H 0.45455 0.37154 0.7044 0.0
H278 H 0.46897 0.37502 0.71174 0.0
H279 H 0.46092 0.35924 0.73475 0.0
C280 C 0.87965 0.24293 1.00565 0.0
C281 C 0.87839 0.23356 1.00485 0.0
C282 C 0.88665 0.23115 0.01878 0.0
C283 C 0.88183 0.22773 0.01136 0.0
C284 C 0.88779 0.24057 0.01962 0.0
C285 C 0.88433 0.24642 0.01309 0.0
U286 U 0.87027 0.24518 0.9824 0.0
O287 O 0.86002 0.25415 0.97651 0.0
O288 O 0.87386 0.25408 0.97115 0.0
C289 C 0.86582 0.25783 0.97089 0.0
C290 C 0.87647 0.24893 0.99848 0.0
C291 C 0.86582 0.26773 0.97042 0.0
C292 C 0.86924 0.28249 0.9768 0.0
C293 C 0.8687 0.27307 0.97769 0.0
C294 C 0.86386 0.28124 0.96145 0.0
C295 C 0.86696 0.28665 0.96861 0.0
C296 C 0.8633 0.27187 0.96236 0.0
C297 C 0.86649 0.22356 0.96908 0.0
C298 C 0.86128 0.22405 0.95361 0.0
C299 C 0.86634 0.2099 0.96004 0.0
C300 C 0.86805 0.21427 0.9682 0.0
C301 C 0.86304 0.21476 0.95262 0.0
C302 C 0.86302 0.22843 0.96178 0.0
C303 C 0.86903 0.22819 0.97744 0.0
O304 O 0.88157 0.24895 0.99125 0.0
O305 O 0.86779 0.24833 0.99665 0.0
O306 O 0.86249 0.23248 0.98162 0.0
O307 O 0.87655 0.23291 0.97695 0.0
H308 H 0.87482 0.23075 0.99912 0.0
H309 H 0.88069 0.22053 0.01058 0.0
H310 H 0.89154 0.24341 0.02522 0.0
H311 H 0.88541 0.25364 0.01376 0.0
H312 H 0.8717 0.28648 0.9824 0.0
H313 H 0.8707 0.26995 0.98396 0.0
H314 H 0.86193 0.28426 0.95511 0.0
H315 H 0.86105 0.26783 0.95669 0.0
H316 H 0.85882 0.228 0.948 0.0
H317 H 0.86766 0.20272 0.95952 0.0
H318 H 0.87075 0.21043 0.97378 0.0
H319 H 0.86184 0.23564 0.96234 0.0
C320 C 0.24439 0.03034 0.37286 0.0
C321 C 0.24191 0.03938 0.37146 0.0
C322 C 0.22601 0.03522 0.37231 0.0
C323 C 0.2328 0.0418 0.37121 0.0
C324 C 0.22852 0.02613 0.37346 0.0
C325 C 0.23766 0.02371 0.37377 0.0
U326 U 0.26879 0.03739 0.37113 0.0
O327 O 0.28034 0.03506 0.38009 0.0
O328 O 0.28085 0.03032 0.3661 0.0
C329 C 0.28484 0.03046 0.374 0.0
C330 C 0.25398 0.02794 0.37362 0.0
C331 C 0.28865 0.02184 0.37703 0.0
C332 C 0.28717 0.00724 0.38435 0.0
C333 C 0.28328 0.01527 0.38126 0.0
C334 C 0.30178 0.01226 0.37887 0.0
C335 C 0.29648 1.00565 0.38319 0.0
C336 C 0.2979 0.02027 0.37583 0.0
C337 C 0.27431 0.0614 0.36414 0.0
C338 C 0.2896 0.06727 0.36545 0.0
C339 C 0.27801 0.07622 0.35819 0.0
C340 C 0.27171 0.06933 0.35972 0.0
C341 C 0.28701 0.0753 0.36111 0.0
C342 C 0.2833 0.06036 0.36693 0.0
C343 C 0.26761 0.05427 0.3659 0.0
O344 O 0.2585 0.02789 0.36601 0.0
O345 O 0.25831 0.03207 0.38017 0.0
O346 O 0.26695 0.05177 0.37435 0.0
O347 O 0.26776 0.04741 0.36026 0.0
H348 H 0.24703 0.04458 0.37069 0.0
H349 H 0.23107 0.04883 0.37018 0.0
H350 H 0.22343 0.02092 0.37438 0.0
H351 H 0.23948 0.01671 0.37485 0.0
H352 H 0.2829 1.00225 0.38758 0.0
H353 H 0.27611 0.01638 0.38222 0.0
H354 H 0.30899 0.01131 0.378 0.0
H355 H 0.30214 0.0253 0.37261 0.0
H356 H 0.2965 0.06631 0.36767 0.0
H357 H 0.27581 0.08236 0.35491 0.0
H358 H 0.26478 0.07021 0.35752 0.0
H359 H 0.28543 0.05424 0.37029 0.0
C360 C 0.24534 0.01361 0.63503 0.0
C361 C 0.23678 0.0158 0.63161 0.0
C362 C 0.23323 0.99982 0.62968 0.0
C363 C 0.23082 0.00898 0.6289 0.0
C364 C 0.24184 0.99766 0.63309 0.0
C365 C 0.24784 1.00451 0.63574 0.0
U366 U 0.24806 0.03703 0.64443 0.0
O367 O 0.25722 0.0428 0.65461 0.0
O368 O 0.25714 0.04827 0.64089 0.0
C369 C 0.26101 0.04837 0.64883 0.0
C370 C 0.25145 0.02082 0.63821 0.0
C371 C 0.27093 0.04858 0.6487 0.0
C372 C 0.28551 0.04105 0.64832 0.0
C373 C 0.27606 0.04061 0.64882 0.0
C374 C 0.28473 0.0574 0.64758 0.0
C375 C 0.28992 0.04946 0.6476 0.0
C376 C 0.27532 0.05696 0.64814 0.0
C377 C 0.22652 0.05042 0.64862 0.0
C378 C 0.22687 0.06574 0.65451 0.0
C379 C 0.21266 0.05903 0.6498 0.0
C380 C 0.21716 0.05108 0.64747 0.0
C381 C 0.21746 0.06647 0.65333 0.0
C382 C 0.23137 0.05777 0.65217 0.0
C383 C 0.23115 0.04212 0.64584 0.0
O384 O 0.25165 0.02811 0.63317 0.0
O385 O 0.25092 0.02262 0.64685 0.0
O386 O 0.23547 0.0378 0.65225 0.0
O387 O 0.23582 0.04277 0.63836 0.0
H388 H 0.23468 0.02279 0.63106 0.0
H389 H 0.22433 0.01092 0.62617 0.0
H390 H 0.24387 0.99068 0.63389 0.0
H391 H 0.25439 1.0027 0.63845 0.0
H392 H 0.28935 0.03483 0.64828 0.0
H393 H 0.27277 0.03406 0.64918 0.0
H394 H 0.28794 0.06398 0.64715 0.0
H395 H 0.27146 0.06317 0.64804 0.0
H396 H 0.23075 0.07131 0.65729 0.0
H397 H 0.20544 0.05941 0.64865 0.0
H398 H 0.21334 0.04547 0.64467 0.0
H399 H 0.23862 0.05735 0.65307 0.0
C400 C 0.24448 1.00107 0.88097 0.0
C401 C 0.23525 1.00056 0.87889 0.0
C402 C 0.23244 0.01436 0.88736 0.0
C403 C 0.2293 0.00715 0.88201 0.0
C404 C 0.24173 0.01489 0.88937 0.0
C405 C 0.24771 0.00828 0.8862 0.0
U406 U 0.24707 0.97765 0.87172 0.0
O407 O 0.25604 0.97187 0.86144 0.0
O408 O 0.25619 0.96649 0.87519 0.0
C409 C 0.25988 0.96631 0.86716 0.0
C410 C 0.25059 0.99385 0.87799 0.0
C411 C 0.26979 0.96612 0.86698 0.0
C412 C 0.28442 0.97299 0.87001 0.0
C413 C 0.27497 0.97344 0.87012 0.0
C414 C 0.28355 0.95794 0.86358 0.0
C415 C 0.28881 0.96522 0.86674 0.0
C416 C 0.27413 0.9584 0.8637 0.0
C417 C 0.22543 0.96438 0.86727 0.0
C418 C 0.22573 0.94878 0.86212 0.0
C419 C 0.2114 0.95619 0.86491 0.0
C420 C 0.21598 0.96409 0.86738 0.0
C421 C 0.21622 0.94843 0.86229 0.0
C422 C 0.2303 0.95671 0.86459 0.0
C423 C 0.23011 0.97263 0.87018 0.0
O424 O 0.2505 0.9866 0.88307 0.0
O425 O 0.25026 0.99199 0.86935 0.0
O426 O 0.23449 0.97702 0.86385 0.0
O427 O 0.23475 0.97188 0.87767 0.0
H428 H 0.23263 0.995 0.87488 0.0
H429 H 0.22222 1.00661 0.8802 0.0
H430 H 0.24436 0.02031 0.89354 0.0
H431 H 0.25481 0.00873 0.88793 0.0
H432 H 0.28829 0.97873 0.87243 0.0
H433 H 0.27169 0.97947 0.87267 0.0
H434 H 0.2867 0.95179 0.86117 0.0
H435 H 0.27022 0.95267 0.86129 0.0
H436 H 0.22963 0.94296 0.86005 0.0
H437 H 0.20409 0.9561 0.86525 0.0
H438 H 0.21213 0.96995 0.86948 0.0
H439 H 0.23762 0.95684 0.86447 0.0
C440 C 0.24273 0.98485 0.14353 0.0
C441 C 0.24043 0.97629 0.14689 0.0
C442 C 0.2245 0.97934 0.14424 0.0
C443 C 0.23139 0.97356 0.14725 0.0
C444 C 0.22682 0.98802 0.14111 0.0
C445 C 0.2359 0.99074 0.14073 0.0
U446 U 0.26704 0.97794 0.14508 0.0
O447 O 0.27847 0.97978 0.13585 0.0
O448 O 0.27931 0.98506 0.14963 0.0
C449 C 0.28321 0.98445 0.14172 0.0
C450 C 0.25229 0.98734 0.1425 0.0
C451 C 0.28743 0.99274 0.13827 0.0
C452 C 0.28654 0.00763 0.13144 0.0
C453 C 0.28226 1.00001 0.13511 0.0
C454 C 0.30113 1.00076 0.13419 0.0
C455 C 0.29603 0.00802 0.13085 0.0
C456 C 0.29687 0.9932 0.13785 0.0
C457 C 0.2724 0.95414 0.15254 0.0
C458 C 0.288 0.94911 0.15272 0.0
C459 C 0.27592 0.93854 0.15612 0.0
C460 C 0.26957 0.94542 0.1549 0.0
C461 C 0.2852 0.94029 0.15496 0.0
C462 C 0.28165 0.95597 0.15151 0.0
C463 C 0.26571 0.96121 0.15079 0.0
O464 O 0.25697 0.98768 0.15001 0.0
O465 O 0.25649 0.983 0.13602 0.0
O466 O 0.2649 0.96349 0.1423 0.0
O467 O 0.26606 0.96822 0.15623 0.0
H468 H 0.24564 0.97166 0.14907 0.0
H469 H 0.22981 0.96689 0.14981 0.0
H470 H 0.22167 0.99258 0.13868 0.0
H471 H 0.23758 0.99735 0.13808 0.0
H472 H 0.28243 0.01309 0.12888 0.0
H473 H 0.27494 0.99973 0.13537 0.0
H474 H 0.30845 1.00093 0.13399 0.0
H475 H 0.30095 0.98765 0.14029 0.0
H476 H 0.2951 0.9507 0.1519 0.0
H477 H 0.27354 0.9318 0.15774 0.0
H478 H 0.26244 0.9439 0.15567 0.0
H479 H 0.28395 0.96268 0.14968 0.0
C480 C 0.37395 0.24454 0.03093 0.0
C481 C 0.37218 0.24222 0.0399 0.0
C482 C 0.37347 0.22625 0.03619 0.0
C483 C 0.37196 0.23317 0.04251 0.0
C484 C 0.37503 0.2286 0.02715 0.0
C485 C 0.3753 0.23769 0.02455 0.0
U486 U 0.37136 0.26882 0.03768 0.0
O487 O 0.37996 0.28074 0.03558 0.0
O488 O 0.36599 0.28071 0.03058 0.0
C489 C 0.37375 0.28505 0.03097 0.0
C490 C 0.37451 0.2541 0.02837 0.0
C491 C 0.37687 0.28927 0.0226 0.0
C492 C 0.38498 0.2887 0.0084 0.0
C493 C 0.38146 0.28431 0.01597 0.0
C494 C 0.37916 0.30296 0.01396 0.0
C495 C 0.384 0.29811 0.0074 0.0
C496 C 0.37565 0.29857 0.02148 0.0
C497 C 0.36392 0.27392 0.06159 0.0
C498 C 0.35837 0.28858 0.06644 0.0
C499 C 0.36474 0.27824 0.07733 0.0
C500 C 0.36626 0.27193 0.07049 0.0
C501 C 0.36082 0.28668 0.07538 0.0
C502 C 0.35996 0.28229 0.0596 0.0
C503 C 0.36603 0.26738 0.05443 0.0
O504 O 0.36674 0.25837 0.02815 0.0
O505 O 0.3809 0.2587 0.03252 0.0
O506 O 0.37457 0.26713 0.05202 0.0
O507 O 0.36043 0.26719 0.04756 0.0
H508 H 0.37106 0.24743 0.0449 0.0
H509 H 0.3706 0.23157 0.04948 0.0
H510 H 0.37628 0.22341 0.02215 0.0
H511 H 0.37666 0.23938 0.0176 0.0
H512 H 0.38871 0.28479 1.00349 0.0
H513 H 0.38247 0.2771 0.01676 0.0
H514 H 0.37813 0.31018 0.0133 0.0
H515 H 0.3721 0.30249 0.02653 0.0
H516 H 0.35521 0.29494 0.0647 0.0
H517 H 0.36686 0.2766 0.08409 0.0
H518 H 0.3694 0.26553 0.07214 0.0
H519 H 0.35816 0.28401 0.05276 0.0
C520 C 1.00202 0.88068 0.24254 0.0
C521 C 0.99949 0.8846 0.23434 0.0
C522 C 0.01531 0.88669 0.23029 0.0
C523 C 1.00606 0.88763 0.22831 0.0
C524 C 0.01781 0.88279 0.23855 0.0
C525 C 0.01121 0.87982 0.24463 0.0
U526 U 0.97869 0.87106 0.246 0.0
O527 O 0.97357 0.86027 0.25483 0.0
O528 O 0.96812 0.87402 0.25594 0.0
C529 C 0.96824 0.86579 0.25926 0.0
C530 C 0.99509 0.87719 0.24875 0.0
C531 C 0.96865 0.86521 0.26909 0.0
C532 C 0.97553 0.86917 0.28341 0.0
C533 C 0.97558 0.86946 0.274 0.0
C534 C 0.96176 0.86024 0.28303 0.0
C535 C 0.96858 0.8646 0.28803 0.0
C536 C 0.96181 0.86055 0.27365 0.0
C537 C 0.96383 0.86754 0.22534 0.0
C538 C 0.9474 0.86716 0.22518 0.0
C539 C 0.95583 0.8605 0.21288 0.0
C540 C 0.96393 0.86295 0.21709 0.0
C541 C 0.94748 0.86267 0.21684 0.0
C542 C 0.9555 0.86952 0.22942 0.0
C543 C 0.97244 0.87026 0.22952 0.0
O544 O 0.98784 0.88224 0.24956 0.0
O545 O 0.99324 0.86854 0.24786 0.0
O546 O 0.97713 0.86371 0.23319 0.0
O547 O 0.97221 0.87764 0.23447 0.0
H548 H 0.99242 0.88528 0.23257 0.0
H549 H 1.00387 0.89073 0.2221 0.0
H550 H 0.02486 0.88184 0.24025 0.0
H551 H 0.01329 0.87673 0.25089 0.0
H552 H 0.98092 0.87253 0.28706 0.0
H553 H 0.98093 0.87307 0.27056 0.0
H554 H 0.95623 0.85679 0.28636 0.0
H555 H 0.9564 0.85726 0.26995 0.0
H556 H 0.94106 0.86882 0.22843 0.0
H557 H 0.95609 0.85711 0.20643 0.0
H558 H 0.97029 0.86134 0.21384 0.0
H559 H 0.95526 0.87296 0.23585 0.0
C560 C 0.14319 0.77233 0.53201 0.0
C561 C 0.1465 0.77471 0.54053 0.0
C562 C 0.1448 0.79068 0.53697 0.0
C563 C 0.14729 0.7838 0.54299 0.0
C564 C 0.14157 0.78824 0.52839 0.0
C565 C 0.14078 0.77912 0.52593 0.0
U566 U 0.14483 0.74797 0.53891 0.0
O567 O 0.14924 0.73575 0.53168 0.0
O568 O 0.13549 0.73652 0.5372 0.0
C569 C 0.14128 0.73184 0.53239 0.0
C570 C 0.142 0.76275 0.52965 0.0
C571 C 0.13768 0.72769 0.52417 0.0
C572 C 0.12962 0.72857 0.50995 0.0
C573 C 0.13335 0.73283 0.51752 0.0
C574 C 0.13467 0.71407 0.51557 0.0
C575 C 0.13015 0.71911 0.50896 0.0
C576 C 0.13838 0.71832 0.5231 0.0
C577 C 0.15319 0.74255 0.56233 0.0
C578 C 0.15159 0.72741 0.56843 0.0
C579 C 0.16002 0.73881 0.57669 0.0
C580 C 0.1583 0.74507 0.56987 0.0
C581 C 0.1566 0.72994 0.57608 0.0
C582 C 0.14993 0.73366 0.5616 0.0
C583 C 0.15117 0.74923 0.55533 0.0
O584 O 0.14952 0.75807 0.52909 0.0
O585 O 0.13562 0.75858 0.53419 0.0
O586 O 0.14255 0.75004 0.55335 0.0
O587 O 0.15639 0.74891 0.5482 0.0
H588 H 0.14834 0.76953 0.54533 0.0
H589 H 0.14965 0.78541 0.5497 0.0
H590 H 0.13968 0.79337 0.52356 0.0
H591 H 0.13821 0.77738 0.51933 0.0
H592 H 0.12615 0.73264 0.50499 0.0
H593 H 0.13276 0.7401 0.51826 0.0
H594 H 0.13536 0.7068 0.51493 0.0
H595 H 0.14174 0.71426 0.52815 0.0
H596 H 0.14898 0.7206 0.56771 0.0
H597 H 0.16383 0.74096 0.58253 0.0
H598 H 0.16087 0.75191 0.57052 0.0
H599 H 0.14603 0.73158 0.55578 0.0
C600 C 0.99284 0.63221 0.7522 0.0
C601 C 0.98345 0.63174 0.75104 0.0
C602 C 0.98114 0.63896 0.76557 0.0
C603 C 0.97765 0.63506 0.75766 0.0
C604 C 0.99059 0.63935 0.76674 0.0
C605 C 0.99639 0.63601 0.76009 0.0
U606 U 0.9951 0.62286 0.72891 0.0
O607 O 1.00427 0.62611 0.71778 0.0
O608 O 1.00374 0.61227 0.7231 0.0
C609 C 0.0077 0.61792 0.71753 0.0
C610 C 0.99885 0.62894 0.74505 0.0
C611 C 0.01759 0.61745 0.71707 0.0
C612 C 0.03252 0.6218 0.72239 0.0
C613 C 0.02311 0.62186 0.7234 0.0
C614 C 0.03094 0.61272 0.70889 0.0
C615 C 0.03652 0.61735 0.71503 0.0
C616 C 0.02156 0.61279 0.70991 0.0
C617 C 0.97343 0.61947 0.71557 0.0
C618 C 0.97377 0.6145 0.7 0.0
C619 C 0.95952 0.61845 0.70701 0.0
C620 C 0.96403 0.62038 0.71504 0.0
C621 C 0.96435 0.61559 0.69937 0.0
C622 C 0.97828 0.61645 0.70805 0.0
C623 C 0.97812 0.62204 0.72388 0.0
O624 O 0.99806 0.62028 0.74317 0.0
O625 O 0.99905 0.63407 0.73785 0.0
O626 O 0.98305 0.62941 0.7233 0.0
O627 O 0.9822 0.61543 0.72814 0.0
H628 H 0.98059 0.62882 0.74497 0.0
H629 H 0.97043 0.63451 0.7566 0.0
H630 H 0.99349 0.64237 0.77272 0.0
H631 H 1.00364 0.63645 0.76106 0.0
H632 H 0.03665 0.62546 0.7272 0.0
H633 H 0.02012 0.6255 0.72899 0.0
H634 H 0.03381 0.6091 0.70325 0.0
H635 H 0.0174 0.60931 0.70499 0.0
H636 H 0.97768 0.61239 0.69422 0.0
H637 H 0.95225 0.61923 0.70678 0.0
H638 H 0.9602 0.6227 0.7208 0.0
H639 H 0.98557 0.61575 0.70836 0.0
C640 C 0.12986 0.25111 0.49636 0.0
C641 C 0.12865 0.25001 0.48707 0.0
C642 C 0.13588 0.26455 0.48433 0.0
C643 C 0.13161 0.25667 0.48112 0.0
C644 C 0.1371 0.26562 0.49366 0.0
C645 C 0.1341 0.25894 0.49963 0.0
U646 U 0.12147 0.22737 0.4992 0.0
O647 O 0.12525 0.21654 0.50853 0.0
O648 O 0.11122 0.22132 0.50807 0.0
C649 C 0.11714 0.21614 0.51214 0.0
C650 C 0.12697 0.24391 0.50251 0.0
C651 C 0.11692 0.21634 0.52199 0.0
C652 C 0.12039 0.22364 0.53622 0.0
C653 C 0.1203 0.22378 0.52682 0.0
C654 C 0.11358 0.20871 0.53602 0.0
C655 C 0.11708 0.21607 0.54093 0.0
C656 C 0.1135 0.20885 0.52663 0.0
C657 C 0.11844 0.21355 0.47769 0.0
C658 C 0.11275 0.19812 0.47769 0.0
C659 C 0.11906 0.20455 0.46408 0.0
C660 C 0.12069 0.21267 0.4686 0.0
C661 C 0.11515 0.19716 0.46859 0.0
C662 C 0.11442 0.20626 0.48223 0.0
C663 C 0.12069 0.22199 0.4824 0.0
O664 O 0.11838 0.24166 0.50194 0.0
O665 O 0.13238 0.23688 0.50274 0.0
O666 O 0.1281 0.22172 0.48724 0.0
O667 O 0.11395 0.22604 0.4865 0.0
H668 H 0.12548 0.24395 0.48442 0.0
H669 H 0.13071 0.25556 0.47397 0.0
H670 H 0.14032 0.27164 0.49634 0.0
H671 H 0.13512 0.25987 0.50679 0.0
H672 H 0.12306 0.22945 0.53981 0.0
H673 H 0.12295 0.22963 0.52331 0.0
H674 H 0.11111 0.20272 0.53942 0.0
H675 H 0.1109 0.20304 0.523 0.0
H676 H 0.10979 0.19252 0.48135 0.0
H677 H 0.12086 0.20405 0.45704 0.0
H678 H 0.12379 0.21824 0.46501 0.0
H679 H 0.1127 0.20683 0.48928 0.0
C680 C 0.493 0.39366 0.23426 0.0
C681 C 0.4909 0.39588 0.22534 0.0
C682 C 0.47488 0.39378 0.22843 0.0
C683 C 0.48193 0.39593 0.22245 0.0
C684 C 0.47701 0.39175 0.23743 0.0
C685 C 0.48602 0.39166 0.24031 0.0
U686 U 0.5175 0.39681 0.22843 0.0
O687 O 0.52939 0.38833 0.23083 0.0
O688 O 0.52906 0.40221 0.23613 0.0
C689 C 0.53345 0.3945 0.23578 0.0
C690 C 0.50249 0.39324 0.2371 0.0
C691 C 0.53732 0.39128 0.24427 0.0
C692 C 0.53662 0.38202 0.25773 0.0
C693 C 0.53245 0.38559 0.25007 0.0
C694 C 0.55042 0.39005 0.25398 0.0
C695 C 0.54571 0.3841 0.25968 0.0
C696 C 0.54627 0.39359 0.24635 0.0
C697 C 0.52368 0.40467 0.20509 0.0
C698 C 0.53951 0.40594 0.20099 0.0
C699 C 0.5279 0.40826 0.18974 0.0
C700 C 0.52123 0.40669 0.19623 0.0
C701 C 0.53712 0.4078 0.19203 0.0
C702 C 0.53285 0.40437 0.20746 0.0
C703 C 0.51671 0.40248 0.21176 0.0
O704 O 0.50728 0.38702 0.23298 0.0
O705 O 0.50665 0.4011 0.23761 0.0
O706 O 0.51633 0.40795 0.21872 0.0
O707 O 0.5163 0.3939 0.21399 0.0
H708 H 0.49622 0.39748 0.22059 0.0
H709 H 0.4805 0.39766 0.21552 0.0
H710 H 0.47173 0.39002 0.24217 0.0
H711 H 0.48755 0.38994 0.24722 0.0
H712 H 0.53282 0.37742 0.26196 0.0
H713 H 0.52552 0.38374 0.24856 0.0
H714 H 0.55736 0.39193 0.25539 0.0
H715 H 0.5501 0.39801 0.24196 0.0
H716 H 0.54654 0.40566 0.203 0.0
H717 H 0.52584 0.40959 0.18288 0.0
H718 H 0.51417 0.40689 0.19429 0.0
H719 H 0.53484 0.40281 0.21429 0.0
C720 C 0.38554 0.76216 0.99411 0.0
C721 C 0.38823 0.7623 0.98507 0.0
C722 C 0.37987 0.74839 0.98223 0.0
C723 C 0.38546 0.75546 0.97919 0.0
C724 C 0.37714 0.74829 0.99129 0.0
C725 C 0.37997 0.75513 0.99719 0.0
U726 U 0.39425 0.78588 0.99676 0.0
O727 O 0.39029 0.79698 1.00578 0.0
O728 O 0.40425 0.79195 1.00591 0.0
C729 C 0.39827 0.79732 0.00967 0.0
C730 C 0.38823 0.76955 1.00016 0.0
C731 C 0.39816 0.79733 0.01953 0.0
C732 C 0.39516 0.78992 0.03378 0.0
C733 C 0.39531 0.78971 0.02437 0.0
C734 C 0.40076 0.80535 0.03352 0.0
C735 C 0.39788 0.79776 0.03846 0.0
C736 C 0.4009 0.80512 0.02414 0.0
C737 C 0.39883 0.79907 0.97522 0.0
C738 C 0.40286 0.81501 0.97532 0.0
C739 C 0.40144 0.80695 0.96118 0.0
C740 C 0.39929 0.79903 0.96582 0.0
C741 C 0.40314 0.81506 0.96586 0.0
C742 C 0.40071 0.80707 0.97996 0.0
C743 C 0.39606 0.79081 0.97992 0.0
O744 O 0.39688 0.77163 1.00001 0.0
O745 O 0.38296 0.77668 0.9999 0.0
O746 O 0.38841 0.79141 0.98437 0.0
O747 O 0.40245 0.78667 0.98444 0.0
H748 H 0.39242 0.76775 0.98253 0.0
H749 H 0.38755 0.75581 0.97222 0.0
H750 H 0.37287 0.74291 0.99382 0.0
H751 H 0.37778 0.75496 1.00414 0.0
H752 H 0.39297 0.78395 0.03739 0.0
H753 H 0.39318 0.78362 0.02088 0.0
H754 H 0.40275 0.81154 0.0369 0.0
H755 H 0.40309 0.81107 0.02049 0.0
H756 H 0.40406 0.82115 0.97911 0.0
H757 H 0.40175 0.80672 0.95391 0.0
H758 H 0.39789 0.7929 0.96207 0.0
H759 H 0.40035 0.8072 0.98724 0.0
C760 C 0.02224 0.39104 0.78099 0.0
C761 C 0.02444 0.39289 0.78997 0.0
C762 C 0.04045 0.39172 0.78648 0.0
C763 C 0.03345 0.39322 0.7927 0.0
C764 C 0.03823 0.39005 0.77743 0.0
C765 C 0.02916 0.38968 0.77471 0.0
U766 U 0.99793 0.39311 0.78764 0.0
O767 O 0.98602 0.39865 0.78072 0.0
O768 O 0.9861 0.38447 0.78514 0.0
C769 C 0.98177 0.39082 0.78073 0.0
C770 C 0.01271 0.39039 0.77832 0.0
C771 C 0.97766 0.38805 0.77217 0.0
C772 C 0.97811 0.37993 0.75796 0.0
C773 C 0.9824 0.38286 0.76584 0.0
C774 C 0.96439 0.38753 0.76261 0.0
C775 C 0.96903 0.3822 0.75629 0.0
C776 C 0.96867 0.39042 0.77047 0.0
C777 C 0.99283 0.40001 0.81167 0.0
C778 C 0.97732 0.40147 0.81679 0.0
C779 C 0.98969 0.4034 0.82732 0.0
C780 C 0.99588 0.40181 0.82041 0.0
C781 C 0.98034 0.40321 0.8256 0.0
C782 C 0.98352 0.39987 0.80989 0.0
C783 C 0.99937 0.39808 0.80452 0.0
O784 O 0.00818 0.38383 0.78226 0.0
O785 O 0.00833 0.39811 0.77828 0.0
O786 O 0.9994 0.40384 0.7978 0.0
O787 O 0.99963 0.3896 0.80189 0.0
H788 H 0.01916 0.394 0.7949 0.0
H789 H 0.03495 0.39466 0.79968 0.0
H790 H 0.04348 0.38882 0.7725 0.0
H791 H 0.02757 0.38825 0.76774 0.0
H792 H 0.98188 0.3759 0.75317 0.0
H793 H 0.98938 0.38099 0.76704 0.0
H794 H 0.95736 0.38928 0.76161 0.0
H795 H 0.9649 0.3944 0.77531 0.0
H796 H 0.97017 0.40115 0.81527 0.0
H797 H 0.99223 0.40482 0.83401 0.0
H798 H 1.00306 0.40195 0.82188 0.0
H799 H 0.98106 0.39843 0.80317 0.0
C800 C 0.3841 0.25234 0.5222 0.0
C801 C 0.37998 0.25024 0.53045 0.0
C802 C 0.37781 0.26624 0.53356 0.0
C803 C 0.37681 0.25713 0.53605 0.0
C804 C 0.38197 0.26832 0.52531 0.0
C805 C 0.38506 0.26141 0.51966 0.0
U806 U 0.39424 0.22906 0.51992 0.0
O807 O 0.3914 0.2179 0.51058 0.0
O808 O 0.40501 0.22383 0.51115 0.0
C809 C 0.39952 0.21818 0.50702 0.0
C810 C 0.3877 0.24512 0.51641 0.0
C811 C 0.39974 0.21844 0.49717 0.0
C812 C 0.39549 0.22537 0.48301 0.0
C813 C 0.39568 0.22552 0.49241 0.0
C814 C 0.40361 0.21116 0.48306 0.0
C815 C 0.39939 0.21814 0.47823 0.0
C816 C 0.40378 0.21132 0.49245 0.0
C817 C 0.39811 0.21557 0.54138 0.0
C818 C 0.4033 0.20001 0.54109 0.0
C819 C 0.40006 0.20734 0.55532 0.0
C820 C 0.39774 0.21526 0.55077 0.0
C821 C 0.40278 0.1996 0.55053 0.0
C822 C 0.40097 0.20794 0.53655 0.0
C823 C 0.39524 0.22381 0.53673 0.0
O824 O 0.3964 0.24357 0.5173 0.0
O825 O 0.38281 0.23767 0.51607 0.0
O826 O 0.38791 0.22295 0.53181 0.0
O827 O 0.4017 0.2284 0.5327 0.0
H828 H 0.37929 0.24328 0.53261 0.0
H829 H 0.37377 0.25533 0.54243 0.0
H830 H 0.38279 0.27529 0.52321 0.0
H831 H 0.38827 0.26315 0.51335 0.0
H832 H 0.39226 0.23089 0.47948 0.0
H833 H 0.39254 0.23109 0.49597 0.0
H834 H 0.40655 0.20543 0.47961 0.0
H835 H 0.40691 0.20578 0.49603 0.0
H836 H 0.40529 0.19414 0.53722 0.0
H837 H 0.39972 0.20729 0.56259 0.0
H838 H 0.39557 0.22111 0.55459 0.0
H839 H 0.40127 0.20809 0.52927 0.0
C840 C 0.49183 0.61919 0.28333 0.0
C841 C 0.48924 0.61641 0.29196 0.0
C842 C 0.47338 0.61823 0.28799 0.0
C843 C 0.4801 0.61593 0.29427 0.0
C844 C 0.47603 0.62091 0.2793 0.0
C845 C 0.48519 0.62138 0.27699 0.0
U846 U 0.51621 0.61752 0.29045 0.0
O847 O 0.52828 0.61246 0.28343 0.0
O848 O 0.52778 0.62655 0.28811 0.0
C849 C 0.53231 0.6204 0.28362 0.0
C850 C 0.50144 0.62006 0.28105 0.0
C851 C 0.53635 0.62341 0.27512 0.0
C852 C 0.53526 0.63033 0.26037 0.0
C853 C 0.53112 0.62728 0.26828 0.0
C854 C 0.54982 0.62554 0.26608 0.0
C855 C 0.54466 0.62949 0.25919 0.0
C856 C 0.54569 0.62253 0.27396 0.0
C857 C 0.52203 0.61042 0.31404 0.0
C858 C 0.53776 0.61073 0.31869 0.0
C859 C 0.52618 0.60577 0.32912 0.0
C860 C 0.51957 0.6072 0.32255 0.0
C861 C 0.53533 0.6076 0.32728 0.0
C862 C 0.53116 0.61212 0.31213 0.0
C863 C 0.51511 0.61217 0.3072 0.0
O864 O 0.50571 0.62661 0.28529 0.0
O865 O 0.50598 0.61243 0.28094 0.0
O866 O 0.51512 0.60654 0.30035 0.0
O867 O 0.51441 0.62067 0.30478 0.0
H868 H 0.4943 0.61473 0.29695 0.0
H869 H 0.47831 0.61398 0.30106 0.0
H870 H 0.47102 0.62263 0.27428 0.0
H871 H 0.48709 0.62354 0.2703 0.0
H872 H 0.5311 0.63328 0.25515 0.0
H873 H 0.52388 0.62799 0.26908 0.0
H874 H 0.55709 0.62494 0.26547 0.0
H875 H 0.54983 0.61959 0.27921 0.0
H876 H 0.54476 0.61207 0.31702 0.0
H877 H 0.5241 0.60343 0.3357 0.0
H878 H 0.51254 0.60587 0.32412 0.0
H879 H 0.53318 0.61458 0.30556 0.0
C880 C 0.12198 0.78069 0.9937 0.0
C881 C 0.11966 0.78963 0.99165 0.0
C882 C 0.12135 0.78648 0.97569 0.0
C883 C 0.11936 0.79251 0.98273 0.0
C884 C 0.12345 0.77745 0.97776 0.0
C885 C 0.1238 0.77458 0.98672 0.0
U886 U 0.11937 0.78687 0.01797 0.0
O887 O 0.11459 0.77932 0.0298 0.0
O888 O 0.1283 0.78507 0.02962 0.0
C889 C 0.12239 0.78007 0.03397 0.0
C890 C 0.12276 0.77792 1.00314 0.0
C891 C 0.126 0.77178 0.03797 0.0
C892 C 0.13288 0.75694 0.03669 0.0
C893 C 0.12907 0.76458 0.03265 0.0
C894 C 0.13047 0.76365 0.05138 0.0
C895 C 0.13371 0.75645 0.04611 0.0
C896 C 0.12665 0.77124 0.04734 0.0
C897 C 0.11102 0.81032 0.02364 0.0
C898 C 0.1102 0.81504 0.03925 0.0
C899 C 0.10688 0.82574 0.02738 0.0
C900 C 0.10849 0.81903 0.02095 0.0
C901 C 0.10781 0.82384 0.0366 0.0
C902 C 0.11179 0.80834 0.03282 0.0
C903 C 0.1132 0.80344 0.01688 0.0
O904 O 0.12901 0.7823 0.0077 0.0
O905 O 0.11505 0.77725 0.00749 0.0
O906 O 0.10793 0.79627 0.01686 0.0
O907 O 0.12183 0.80144 0.01632 0.0
H908 H 0.11819 0.79443 0.99697 0.0
H909 H 0.11758 0.79947 0.98135 0.0
H910 H 0.12506 0.77268 0.97247 0.0
H911 H 0.12561 0.76765 0.98821 0.0
H912 H 0.13537 0.75153 0.03246 0.0
H913 H 0.12863 0.76493 0.02538 0.0
H914 H 0.13086 0.76341 0.05864 0.0
H915 H 0.12429 0.77674 0.05154 0.0
H916 H 0.11084 0.81333 0.04629 0.0
H917 H 0.10514 0.83248 0.02513 0.0
H918 H 0.10791 0.82066 0.01388 0.0
H919 H 0.11375 0.80164 0.035 0.0
C920 C 0.75226 0.99319 0.63197 0.0
C921 C 0.75135 0.9838 0.63097 0.0
C922 C 0.76598 0.98155 0.6381 0.0
C923 C 0.75815 0.97803 0.63399 0.0
C924 C 0.7669 0.99099 0.639 0.0
C925 C 0.76007 0.99676 0.63597 0.0
U926 U 0.72878 0.99561 0.6227 0.0
O927 O 0.71747 1.00437 0.6266 0.0
O928 O 0.72289 1.00497 0.61286 0.0
C929 C 0.71722 0.00841 0.61875 0.0
C930 C 0.74492 0.99918 0.62907 0.0
C931 C 0.71668 0.01831 0.61906 0.0
C932 C 0.72355 0.03315 0.62092 0.0
C933 C 0.72438 0.02372 0.62044 0.0
C934 C 0.70738 0.03176 0.61863 0.0
C935 C 0.71502 0.03725 0.6201 0.0
C936 C 0.70822 0.02238 0.61812 0.0
C937 C 0.71541 0.97433 0.61757 0.0
C938 C 0.69992 0.97533 0.61228 0.0
C939 C 0.70649 0.96069 0.61548 0.0
C940 C 0.71461 0.9649 0.6179 0.0
C941 C 0.69903 0.96586 0.61269 0.0
C942 C 0.70805 0.97953 0.61471 0.0
C943 C 0.7238 0.9787 0.62056 0.0
O944 O 0.74311 0.99895 0.62042 0.0
O945 O 0.73765 0.99883 0.63413 0.0
O946 O 0.7232 0.98302 0.62826 0.0
O947 O 0.72817 0.9833 0.61437 0.0
H948 H 0.74535 0.98093 0.62789 0.0
H949 H 0.75729 0.97081 0.63306 0.0
H950 H 0.7728 0.9939 0.64221 0.0
H951 H 0.76085 1.004 0.63682 0.0
H952 H 0.72954 0.03721 0.6221 0.0
H953 H 0.73097 0.02066 0.62122 0.0
H954 H 0.70074 0.03472 0.61782 0.0
H955 H 0.70222 0.01829 0.61703 0.0
H956 H 0.69434 0.9795 0.61007 0.0
H957 H 0.706 0.9534 0.616 0.0
H958 H 0.72023 0.9608 0.62016 0.0
H959 H 0.70856 0.98683 0.61444 0.0
C960 C 0.76288 0.99242 0.384 0.0
C961 C 0.76388 0.98308 0.38523 0.0
C962 C 0.74936 0.98035 0.37801 0.0
C963 C 0.75718 0.9771 0.38228 0.0
C964 C 0.74836 0.98975 0.37686 0.0
C965 C 0.75508 0.99574 0.37983 0.0
U966 U 0.78652 0.99544 0.39267 0.0
O967 O 0.79748 1.00468 0.38878 0.0
O968 O 0.79242 1.00475 0.40265 0.0
C969 C 0.79774 0.00861 0.39671 0.0
C970 C 0.77012 0.99862 0.38683 0.0
C971 C 0.79763 0.01853 0.39659 0.0
C972 C 0.79083 0.03274 0.39207 0.0
C973 C 0.79058 0.02328 0.39245 0.0
C974 C 0.80508 0.03273 0.40013 0.0
C975 C 0.79812 0.03756 0.39587 0.0
C976 C 0.80482 0.0233 0.40048 0.0
C977 C 0.80018 0.97403 0.39675 0.0
C978 C 0.81609 0.97451 0.40077 0.0
C979 C 0.80851 0.96009 0.39873 0.0
C980 C 0.80045 0.96457 0.3968 0.0
C981 C 0.81645 0.965 0.40064 0.0
C982 C 0.80801 0.97899 0.39883 0.0
C983 C 0.79179 0.97859 0.39418 0.0
O984 O 0.77219 0.99829 0.39542 0.0
O985 O 0.77726 0.99863 0.38156 0.0
O986 O 0.79221 0.98316 0.38663 0.0
O987 O 0.78762 0.98297 0.40065 0.0
H988 H 0.76988 0.98041 0.38843 0.0
H989 H 0.75811 0.96993 0.38341 0.0
H990 H 0.74246 0.99246 0.37351 0.0
H991 H 0.75424 1.00293 0.37878 0.0
H992 H 0.78534 0.03627 0.38881 0.0
H993 H 0.78495 0.01968 0.38943 0.0
H994 H 0.81085 0.03622 0.40299 0.0
H995 H 0.81033 0.01971 0.40368 0.0
H996 H 0.8221 0.97848 0.40214 0.0
H997 H 0.80853 0.95276 0.39872 0.0
H998 H 0.79445 0.96065 0.39523 0.0
H999 H 0.80789 0.98632 0.39879 0.0
C1000 C 0.78092 0.99421 0.12405 0.0
C1001 C 0.78856 0.99141 0.11922 0.0
C1002 C 0.78541 0.97573 0.12307 0.0
C1003 C 0.79077 0.98225 0.11871 0.0
C1004 C 0.77768 0.97857 0.1278 0.0
C1005 C 0.77545 0.98775 0.12828 0.0
U1006 U 0.78863 0.01838 0.12169 0.0
O1007 O 0.78159 0.0307 0.11735 0.0
O1008 O 0.78756 0.02999 0.13085 0.0
C1009 C 0.78263 0.03469 0.12519 0.0
C1010 C 0.77898 1.00389 0.12509 0.0
C1011 C 0.77452 0.03889 0.12901 0.0
C1012 C 0.7598 0.03787 0.13618 0.0
C1013 C 0.76736 0.03365 0.13238 0.0
C1014 C 0.76651 0.05254 0.1332 0.0
C1015 C 0.75933 0.04737 0.13668 0.0
C1016 C 0.77404 0.04833 0.12941 0.0
C1017 C 0.81201 0.02315 0.11256 0.0
C1018 C 0.81775 0.03854 0.11247 0.0
C1019 C 0.82702 0.02632 0.10676 0.0
C1020 C 0.82009 0.02016 0.10869 0.0
C1021 C 0.82595 0.03558 0.10869 0.0
C1022 C 0.81084 0.03238 0.11438 0.0
C1023 C 0.8049 0.01663 0.11491 0.0
O1024 O 0.78392 0.00802 0.1312 0.0
O1025 O 0.7783 0.00847 0.11756 0.0
O1026 O 0.79756 0.01701 0.10994 0.0
O1027 O 0.80317 0.01603 0.12355 0.0
H1028 H 0.79292 0.99634 0.11599 0.0
H1029 H 0.79685 0.98031 0.11514 0.0
H1030 H 0.77337 0.9737 0.13116 0.0
H1031 H 0.76955 0.98981 0.13206 0.0
H1032 H 0.75441 0.0337 0.13886 0.0
H1033 H 0.76766 0.02634 0.13213 0.0
H1034 H 0.76629 0.05986 0.13332 0.0
H1035 H 0.7795 0.05246 0.1268 0.0
H1036 H 0.81675 0.04559 0.11416 0.0
H1037 H 0.83319 0.02384 0.10375 0.0
H1038 H 0.82108 0.01305 0.10723 0.0
H1039 H 0.80463 0.03479 0.1174 0.0
C1040 C 0.7321 0.99101 0.89527 0.0
C1041 C 0.72302 0.98892 0.89705 0.0
C1042 C 0.72632 0.97285 0.89591 0.0
C1043 C 0.72016 0.97993 0.89736 0.0
C1044 C 0.73546 0.97498 0.89431 0.0
C1045 C 0.73832 0.98401 0.89396 0.0
U1046 U 0.72581 0.01549 0.8969 0.0
O1047 O 0.73293 0.02737 0.90243 0.0
O1048 O 0.72879 0.02713 0.88824 0.0
C1049 C 0.73323 0.03145 0.8946 0.0
C1050 C 0.73493 1.00051 0.89459 0.0
C1051 C 0.74205 0.03525 0.89201 0.0
C1052 C 0.75619 0.0345 0.88372 0.0
C1053 C 0.74806 0.03048 0.88646 0.0
C1054 C 0.75244 0.04797 0.89223 0.0
C1055 C 0.75844 0.04331 0.88654 0.0
C1056 C 0.74433 0.04397 0.89492 0.0
C1057 C 0.70162 0.0212 0.90313 0.0
C1058 C 0.69628 0.03669 0.90262 0.0
C1059 C 0.68641 0.02478 0.90805 0.0
C1060 C 0.69325 0.01845 0.9066 0.0
C1061 C 0.68783 0.03397 0.90604 0.0
C1062 C 0.70312 0.03036 0.90119 0.0
C1063 C 0.70871 0.01448 0.90148 0.0
O1064 O 0.73118 1.00497 0.88794 0.0
O1065 O 0.73487 1.00502 0.90222 0.0
O1066 O 0.71534 0.01445 0.90736 0.0
O1067 O 0.71152 0.01398 0.89312 0.0
H1068 H 0.71813 0.99425 0.89812 0.0
H1069 H 0.71311 0.97851 0.89875 0.0
H1070 H 0.74035 0.96968 0.8931 0.0
H1071 H 0.74535 0.98553 0.89258 0.0
H1072 H 0.7607 0.03072 0.8794 0.0
H1073 H 0.74643 0.02371 0.88418 0.0
H1074 H 0.75391 0.05481 0.89441 0.0
H1075 H 0.73975 0.04776 0.89918 0.0
H1076 H 0.69756 0.04369 0.90088 0.0
H1077 H 0.68003 0.02248 0.9108 0.0
H1078 H 0.69201 0.0114 0.90816 0.0
H1079 H 0.70956 0.03258 0.89851 0.0
C1080 C 0.6314 0.75018 0.99661 0.0
C1081 C 0.63588 0.74771 0.98867 0.0
C1082 C 0.63745 0.76353 0.98445 0.0
C1083 C 0.63893 0.7543 0.9827 0.0
C1084 C 0.63298 0.76599 0.99245 0.0
C1085 C 0.62999 0.75936 0.99848 0.0
U1086 U 0.62233 0.72664 0.99949 0.0
O1087 O 0.62527 0.71596 0.00927 0.0
O1088 O 0.61141 0.72103 0.00787 0.0
C1089 C 0.61696 0.71579 0.01238 0.0
C1090 C 0.62785 0.74318 1.00269 0.0
C1091 C 0.61618 0.71613 0.0222 0.0
C1092 C 0.61851 0.72381 0.03647 0.0
C1093 C 0.61876 0.72386 0.02706 0.0
C1094 C 0.61296 0.70837 0.03618 0.0
C1095 C 0.61568 0.71602 0.04114 0.0
C1096 C 0.61321 0.70843 0.0268 0.0
C1097 C 0.62046 0.71225 0.97823 0.0
C1098 C 0.61315 0.69751 0.97781 0.0
C1099 C 0.62247 0.70242 0.96532 0.0
C1100 C 0.62419 0.71058 0.96975 0.0
C1101 C 0.61696 0.69578 0.96932 0.0
C1102 C 0.61493 0.70567 0.98226 0.0
C1103 C 0.6226 0.72078 0.98284 0.0
O1104 O 0.61929 0.74109 1.00147 0.0
O1105 O 0.63305 0.73605 1.00369 0.0
O1106 O 0.62967 0.72051 0.98817 0.0
O1107 O 0.61569 0.72511 0.98635 0.0
H1108 H 0.63699 0.74065 0.98705 0.0
H1109 H 0.64248 0.75215 0.9767 0.0
H1110 H 0.63161 0.77302 0.99397 0.0
H1111 H 0.62646 0.76139 1.00454 0.0
H1112 H 0.62057 0.72984 0.04008 0.0
H1113 H 0.62109 0.72986 0.02358 0.0
H1114 H 0.61089 0.70221 0.03954 0.0
H1115 H 0.61125 0.7024 0.02313 0.0
H1116 H 0.60894 0.69249 0.98107 0.0
H1117 H 0.6254 0.70134 0.95874 0.0
H1118 H 0.62848 0.71559 0.96655 0.0
H1119 H 0.61205 0.70683 0.98886 0.0
C1120 C 0.99284 0.11809 0.78374 0.0
C1121 C 0.99093 0.11469 0.79233 0.0
C1122 C 0.97481 0.11644 0.78963 0.0
C1123 C 0.982 0.11386 0.79524 0.0
C1124 C 0.97676 0.11966 0.78094 0.0
C1125 C 0.98572 0.1205 0.77803 0.0
U1126 U 0.01746 0.11786 0.78987 0.0
O1127 O 0.02955 0.11329 0.78254 0.0
O1128 O 0.0285 0.12741 0.78706 0.0
C1129 C 0.03313 0.12144 0.78241 0.0
C1130 C 1.00226 0.11946 0.78097 0.0
C1131 C 0.03666 0.12448 0.77368 0.0
C1132 C 0.03572 0.13374 0.76022 0.0
C1133 C 0.03192 0.13063 0.76827 0.0
C1134 C 0.04888 0.12439 0.76281 0.0
C1135 C 0.04426 0.13068 0.75743 0.0
C1136 C 0.04511 0.12134 0.77085 0.0
C1137 C 0.02395 0.11129 0.81363 0.0
C1138 C 0.03915 0.11378 0.81928 0.0
C1139 C 0.02842 0.10506 0.82804 0.0
C1140 C 0.02189 0.10629 0.82136 0.0
C1141 C 0.0371 0.10886 0.8271 0.0
C1142 C 0.03264 0.11496 0.81259 0.0
C1143 C 0.01701 0.11267 0.80672 0.0
O1144 O 1.00634 0.12631 0.78492 0.0
O1145 O 0.00723 0.1121 0.78075 0.0
O1146 O 0.01724 0.10696 0.79994 0.0
O1147 O 0.01589 0.12111 0.80419 0.0
H1148 H 0.99637 0.1128 0.79683 0.0
H1149 H 0.98073 0.11122 0.80191 0.0
H1150 H 0.97137 0.12178 0.7765 0.0
H1151 H 0.9871 0.12317 0.77139 0.0
H1152 H 0.03197 0.13853 0.75618 0.0
H1153 H 0.02534 0.1331 0.77031 0.0
H1154 H 0.05553 0.12201 0.76091 0.0
H1155 H 0.04888 0.11662 0.77495 0.0
H1156 H 0.04582 0.11668 0.81831 0.0
H1157 H 0.02662 0.10129 0.83402 0.0
H1158 H 0.01521 0.1034 0.82225 0.0
H1159 H 0.03437 0.11877 0.80661 0.0
C1160 C 0.88563 0.26151 0.49292 0.0
C1161 C 0.88625 0.26298 0.48363 0.0
C1162 C 0.87918 0.24838 0.48071 0.0
C1163 C 0.88308 0.25647 0.47758 0.0
C1164 C 0.87864 0.24691 0.49005 0.0
C1165 C 0.88183 0.25344 0.4961 0.0
U1166 U 0.89433 0.28512 0.49648 0.0
O1167 O 0.89075 0.29566 0.50624 0.0
O1168 O 0.90474 0.29074 0.50551 0.0
C1169 C 0.89892 0.29594 0.50972 0.0
C1170 C 0.8887 0.26853 0.49922 0.0
C1171 C 0.89942 0.29594 0.51958 0.0
C1172 C 0.89402 0.29108 0.53423 0.0
C1173 C 0.89389 0.29032 0.52484 0.0
C1174 C 0.90544 0.30282 0.53314 0.0
C1175 C 0.89967 0.29748 0.53846 0.0
C1176 C 0.9053 0.30206 0.52379 0.0
C1177 C 0.89768 0.30003 0.47596 0.0
C1178 C 0.89769 0.31646 0.47626 0.0
C1179 C 0.90405 0.3085 0.4635 0.0
C1180 C 0.90195 0.30024 0.46756 0.0
C1181 C 0.90183 0.3167 0.46776 0.0
C1182 C 0.89568 0.3082 0.48036 0.0
C1183 C 0.89525 0.29128 0.48 0.0
O1184 O 0.8973 0.27071 0.49859 0.0
O1185 O 0.88336 0.2756 0.49975 0.0
O1186 O 0.88776 0.2912 0.48475 0.0
O1187 O 0.90191 0.28688 0.48384 0.0
H1188 H 0.88917 0.26919 0.48106 0.0
H1189 H 0.88374 0.25776 0.47045 0.0
H1190 H 0.87559 0.24079 0.49267 0.0
H1191 H 0.88125 0.25223 0.50326 0.0
H1192 H 0.88947 0.2869 0.53815 0.0
H1193 H 0.88932 0.28553 0.52169 0.0
H1194 H 0.91 0.30768 0.53619 0.0
H1195 H 0.90965 0.30641 0.51983 0.0
H1196 H 0.896 0.32268 0.47974 0.0
H1197 H 0.90718 0.30849 0.45692 0.0
H1198 H 0.90357 0.294 0.46409 0.0
H1199 H 0.89248 0.3082 0.48691 0.0
C1200 C 0.5131 0.8775 0.77356 0.0
C1201 C 0.51333 0.87459 0.78252 0.0
C1202 C 0.50027 0.88392 0.78604 0.0
C1203 C 0.50695 0.87773 0.78869 0.0
C1204 C 0.49998 0.88671 0.777 0.0
C1205 C 0.50637 0.88354 0.77081 0.0
U1206 U 0.53625 0.86783 0.77039 0.0
O1207 O 0.54191 0.85817 0.76066 0.0
O1208 O 0.54764 0.87185 0.76179 0.0
C1209 C 0.54768 0.86412 0.75743 0.0
C1210 C 0.52025 0.8747 0.7673 0.0
C1211 C 0.5481 0.86482 0.7476 0.0
C1212 C 0.54113 0.8678 0.73312 0.0
C1213 C 0.54042 0.86688 0.74246 0.0
C1214 C 0.55716 0.86456 0.73403 0.0
C1215 C 0.54954 0.86673 0.72882 0.0
C1216 C 0.55643 0.86361 0.74333 0.0
C1217 C 0.5493 0.86184 0.7916 0.0
C1218 C 0.56511 0.85749 0.79109 0.0
C1219 C 0.5573 0.8584 0.80539 0.0
C1220 C 0.54939 0.86095 0.80096 0.0
C1221 C 0.56528 0.85672 0.80051 0.0
C1222 C 0.55717 0.86002 0.78666 0.0
C1223 C 0.54109 0.86504 0.78712 0.0
O1224 O 0.52765 0.87963 0.76772 0.0
O1225 O 0.52187 0.86596 0.76706 0.0
O1226 O 0.53672 0.859 0.78228 0.0
O1227 O 0.54191 0.87289 0.78309 0.0
H1228 H 0.51853 0.86998 0.78479 0.0
H1229 H 0.50729 0.87532 0.79555 0.0
H1230 H 0.49498 0.89154 0.77476 0.0
H1231 H 0.50616 0.88592 0.76393 0.0
H1232 H 0.53516 0.86954 0.72928 0.0
H1233 H 0.53393 0.86787 0.74569 0.0
H1234 H 0.56369 0.86356 0.7309 0.0
H1235 H 0.56242 0.862 0.7472 0.0
H1236 H 0.57111 0.85615 0.78714 0.0
H1237 H 0.55724 0.858 0.81266 0.0
H1238 H 0.54337 0.86237 0.80486 0.0
H1239 H 0.55719 0.86068 0.77941 0.0
C1240 C 0.98553 0.14143 0.24411 0.0
C1241 C 0.9774 0.14575 0.24193 0.0
C1242 C 0.97995 0.14272 0.22605 0.0
C1243 C 0.97464 0.1464 0.23299 0.0
C1244 C 0.98825 0.13864 0.22825 0.0
C1245 C 0.991 0.13798 0.23723 0.0
U1246 U 0.97863 0.14262 0.26834 0.0
O1247 O 0.98009 0.13285 0.27939 0.0
O1248 O 0.98585 0.14653 0.28067 0.0
C1249 C 0.98506 0.13842 0.28422 0.0
C1250 C 0.98792 0.13999 0.25358 0.0
C1251 C 0.99327 0.13453 0.28821 0.0
C1252 C 0.00961 0.13311 0.28921 0.0
C1253 C 1.00193 0.13646 0.28484 0.0
C1254 C 1.00001 0.12565 0.30013 0.0
C1255 C 0.00873 0.12778 0.297 0.0
C1256 C 0.99237 0.12901 0.2958 0.0
C1257 C 0.95523 0.15137 0.27384 0.0
C1258 C 0.94966 0.15095 0.28918 0.0
C1259 C 0.94043 0.15743 0.27739 0.0
C1260 C 0.94721 0.15556 0.27112 0.0
C1261 C 0.94156 0.15511 0.2865 0.0
C1262 C 0.95644 0.1491 0.28291 0.0
C1263 C 0.96225 0.14928 0.26721 0.0
O1264 O 0.98864 0.14738 0.25847 0.0
O1265 O 0.98322 0.13358 0.25754 0.0
O1266 O 0.96405 0.14064 0.26625 0.0
O1267 O 0.96955 0.15436 0.26768 0.0
H1268 H 0.97308 0.14843 0.24717 0.0
H1269 H 0.96828 0.14969 0.2315 0.0
H1270 H 0.99244 0.13567 0.22307 0.0
H1271 H 0.99727 0.13457 0.23882 0.0
H1272 H 0.01622 0.13492 0.28665 0.0
H1273 H 1.00277 0.14068 0.27896 0.0
H1274 H 0.99908 0.12142 0.306 0.0
H1275 H 0.98574 0.12741 0.29846 0.0
H1276 H 0.95071 0.14896 0.29611 0.0
H1277 H 0.93432 0.16074 0.27513 0.0
H1278 H 0.9462 0.15738 0.26414 0.0
H1279 H 0.9626 0.14584 0.28511 0.0
C1280 C 0.51438 0.13598 0.74349 0.0
C1281 C 0.51587 0.13675 0.73422 0.0
C1282 C 0.50133 0.12963 0.73117 0.0
C1283 C 0.50941 0.13362 0.72811 0.0
C1284 C 0.49982 0.12896 0.74049 0.0
C1285 C 0.50632 0.1321 0.74661 0.0
U1286 U 0.53781 0.14499 0.74688 0.0
O1287 O 0.54337 0.1555 0.75583 0.0
O1288 O 0.54854 0.1416 0.75648 0.0
C1289 C 0.54867 0.14976 0.76001 0.0
C1290 C 0.52137 0.13906 0.74982 0.0
C1291 C 0.54844 0.15014 0.76986 0.0
C1292 C 0.54182 0.1459 0.7842 0.0
C1293 C 0.54162 0.14578 0.77479 0.0
C1294 C 0.55554 0.1549 0.78379 0.0
C1295 C 0.54883 0.15042 0.7888 0.0
C1296 C 0.55534 0.15475 0.77441 0.0
C1297 C 0.552 0.14863 0.72582 0.0
C1298 C 0.56755 0.1539 0.7266 0.0
C1299 C 0.56078 0.15032 0.71217 0.0
C1300 C 0.5527 0.14802 0.71646 0.0
C1301 C 0.56831 0.15327 0.71718 0.0
C1302 C 0.55945 0.1516 0.73088 0.0
C1303 C 0.54353 0.14597 0.73022 0.0
O1304 O 0.52853 0.13384 0.75021 0.0
O1305 O 0.5234 0.1477 0.74929 0.0
O1306 O 0.5391 0.15253 0.73421 0.0
O1307 O 0.54398 0.13856 0.73506 0.0
H1308 H 0.52207 0.13974 0.7317 0.0
H1309 H 0.51072 0.13439 0.72099 0.0
H1310 H 0.49371 0.12585 0.74305 0.0
H1311 H 0.50509 0.13143 0.75376 0.0
H1312 H 0.53651 0.14246 0.78787 0.0
H1313 H 0.53621 0.14221 0.77136 0.0
H1314 H 0.56111 0.15832 0.78711 0.0
H1315 H 0.56067 0.15813 0.7707 0.0
H1316 H 0.5732 0.15622 0.73063 0.0
H1317 H 0.56118 0.14961 0.70494 0.0
H1318 H 0.54702 0.14569 0.71248 0.0
H1319 H 0.559 0.1521 0.73814 0.0
C1320 C 0.14158 0.24173 0.98468 0.0
C1321 C 0.14416 0.2394 0.97591 0.0
C1322 C 0.14352 0.22342 0.97975 0.0
C1323 C 0.14512 0.23034 0.97346 0.0
C1324 C 0.141 0.2258 0.98857 0.0
C1325 C 0.14004 0.2349 0.99101 0.0
U1326 U 0.1422 0.26607 0.9776 0.0
O1327 O 0.13284 0.27732 0.97998 0.0
O1328 O 0.14697 0.27842 0.98442 0.0
C1329 C 0.13891 0.28212 0.98438 0.0
C1330 C 0.14032 0.25127 0.98709 0.0
C1331 C 0.13591 0.28601 0.99295 0.0
C1332 C 0.1289 0.28463 0.00766 0.0
C1333 C 0.1319 0.28066 0.99964 0.0
C1334 C 0.13401 0.29927 1.00237 0.0
C1335 C 0.12992 0.29399 0.0091 0.0
C1336 C 0.13697 0.29531 0.99438 0.0
C1337 C 0.14898 0.27142 0.9536 0.0
C1338 C 0.14708 0.28648 0.94744 0.0
C1339 C 0.15511 0.27506 0.93891 0.0
C1340 C 0.15371 0.26885 0.94586 0.0
C1341 C 0.15175 0.28393 0.93961 0.0
C1342 C 0.14574 0.28029 0.9544 0.0
C1343 C 0.14742 0.26482 0.96079 0.0
O1344 O 0.14775 0.25618 0.98713 0.0
O1345 O 0.13355 0.25524 0.98297 0.0
O1346 O 0.13896 0.26393 0.96334 0.0
O1347 O 0.15311 0.26527 0.96756 0.0
H1348 H 0.14533 0.24461 0.97092 0.0
H1349 H 0.14691 0.22876 0.96658 0.0
H1350 H 0.13981 0.22064 0.99359 0.0
H1351 H 0.13805 0.2366 0.99782 0.0
H1352 H 0.12584 0.28037 0.01274 0.0
H1353 H 0.13106 0.27344 0.99865 0.0
H1354 H 0.13477 0.30651 1.00321 0.0
H1355 H 0.14002 0.29954 0.98926 0.0
H1356 H 0.14452 0.29329 0.94822 0.0
H1357 H 0.15867 0.27288 0.93293 0.0
H1358 H 0.15627 0.26203 0.94515 0.0
H1359 H 0.14213 0.2824 0.96038 0.0
C1360 C 0.38168 0.74232 0.50454 0.0
C1361 C 0.3821 0.73301 0.5028 0.0
C1362 C 0.38824 0.73038 0.51774 0.0
C1363 C 0.38534 0.72709 0.50934 0.0
C1364 C 0.38775 0.73973 0.51947 0.0
C1365 C 0.3845 0.74566 0.5129 0.0
U1366 U 0.37266 0.7454 0.48116 0.0
O1367 O 0.36194 0.75413 0.47572 0.0
O1368 O 0.37582 0.75524 0.47059 0.0
C1369 C 0.3676 0.75858 0.47054 0.0
C1370 C 0.37838 0.74849 0.49756 0.0
C1371 C 0.36704 0.76849 0.47094 0.0
C1372 C 0.37193 0.78296 0.47701 0.0
C1373 C 0.37211 0.7735 0.47719 0.0
C1374 C 0.3614 0.78244 0.46454 0.0
C1375 C 0.36665 0.78753 0.47061 0.0
C1376 C 0.36161 0.77301 0.4647 0.0
C1377 C 0.36995 0.72428 0.46667 0.0
C1378 C 0.36292 0.72458 0.45191 0.0
C1379 C 0.37125 0.71135 0.45671 0.0
C1380 C 0.37311 0.71555 0.46492 0.0
C1381 C 0.36617 0.71584 0.45009 0.0
C1382 C 0.36483 0.7288 0.46013 0.0
C1383 C 0.37231 0.72869 0.4752 0.0
O1384 O 0.38362 0.74913 0.49045 0.0
O1385 O 0.36978 0.74754 0.49551 0.0
O1386 O 0.36557 0.73238 0.47963 0.0
O1387 O 0.37956 0.73383 0.47493 0.0
H1388 H 0.37991 0.73032 0.49637 0.0
H1389 H 0.38549 0.71992 0.50784 0.0
H1390 H 0.39 0.74248 0.52584 0.0
H1391 H 0.38423 0.75284 0.51433 0.0
H1392 H 0.37598 0.7867 0.48183 0.0
H1393 H 0.37631 0.7701 0.48209 0.0
H1394 H 0.35736 0.78575 0.45944 0.0
H1395 H 0.35767 0.76923 0.45981 0.0
H1396 H 0.35906 0.72823 0.44691 0.0
H1397 H 0.37374 0.70457 0.45555 0.0
H1398 H 0.37708 0.71198 0.4699 0.0
H1399 H 0.36241 0.73559 0.46135 0.0
C1400 C 0.74469 0.53091 0.87462 0.0
C1401 C 0.74214 0.53978 0.87249 0.0
C1402 C 0.72627 0.53568 0.87399 0.0
C1403 C 0.73302 0.54214 0.87219 0.0
C1404 C 0.72885 0.52673 0.87592 0.0
C1405 C 0.738 0.52438 0.87625 0.0
U1406 U 0.76896 0.53809 0.87223 0.0
O1407 O 0.78071 0.53632 0.88105 0.0
O1408 O 0.78102 0.53094 0.86728 0.0
C1409 C 0.78518 0.53156 0.87507 0.0
C1410 C 0.7543 0.52861 0.87538 0.0
C1411 C 0.78941 0.52325 0.8784 0.0
C1412 C 0.78902 0.50941 0.88718 0.0
C1413 C 0.7846 0.51696 0.8836 0.0
C1414 C 0.80299 0.51431 0.88019 0.0
C1415 C 0.79831 0.50809 0.88562 0.0
C1416 C 0.79858 0.52182 0.87663 0.0
C1417 C 0.7741 0.56179 0.86413 0.0
C1418 C 0.78958 0.56729 0.86396 0.0
C1419 C 0.77749 0.57677 0.85838 0.0
C1420 C 0.77122 0.56995 0.86034 0.0
C1421 C 0.78675 0.57553 0.8602 0.0
C1422 C 0.78331 0.56048 0.8659 0.0
C1423 C 0.76748 0.55472 0.86632 0.0
O1424 O 0.75871 0.52824 0.86771 0.0
O1425 O 0.75869 0.53307 0.88167 0.0
O1426 O 0.76703 0.55258 0.87487 0.0
O1427 O 0.76758 0.54762 0.86098 0.0
H1428 H 0.74723 0.54489 0.87116 0.0
H1429 H 0.73125 0.54905 0.87057 0.0
H1430 H 0.7238 0.52163 0.8774 0.0
H1431 H 0.73987 0.5175 0.87791 0.0
H1432 H 0.78523 0.50476 0.89136 0.0
H1433 H 0.77749 0.51797 0.88502 0.0
H1434 H 0.8101 0.5134 0.8787 0.0
H1435 H 0.80238 0.5266 0.8726 0.0
H1436 H 0.79662 0.56615 0.86557 0.0
H1437 H 0.7751 0.58299 0.85539 0.0
H1438 H 0.76413 0.57105 0.85891 0.0
H1439 H 0.78563 0.5542 0.86884 0.0
C1440 C 0.7444 0.51278 0.1381 0.0
C1441 C 0.73512 0.51362 0.13981 0.0
C1442 C 0.73212 0.49975 0.13147 0.0
C1443 C 0.72905 0.50715 0.13656 0.0
C1444 C 0.74146 0.49887 0.12987 0.0
C1445 C 0.74756 0.50536 0.13315 0.0
U1446 U 0.74759 0.53633 0.14694 0.0
O1447 O 0.75693 0.54219 0.15691 0.0
O1448 O 0.75683 0.54729 0.14305 0.0
C1449 C 0.7607 0.54762 0.151 0.0
C1450 C 0.75067 0.51992 0.14104 0.0
C1451 C 0.77061 0.54785 0.15093 0.0
C1452 C 0.78512 0.54159 0.14652 0.0
C1453 C 0.77569 0.54084 0.14707 0.0
C1454 C 0.78441 0.55622 0.15388 0.0
C1455 C 0.78955 0.54938 0.14977 0.0
C1456 C 0.77503 0.55545 0.15444 0.0
C1457 C 0.72644 0.55044 0.15089 0.0
C1458 C 0.72562 0.56684 0.15026 0.0
C1459 C 0.71369 0.55829 0.15752 0.0
C1460 C 0.71823 0.55025 0.15557 0.0
C1461 C 0.71725 0.56668 0.15475 0.0
C1462 C 0.7302 0.5588 0.14839 0.0
C1463 C 0.73084 0.54187 0.14841 0.0
O1464 O 0.75082 0.52708 0.13582 0.0
O1465 O 0.75028 0.52197 0.14964 0.0
O1466 O 0.7351 0.53767 0.15493 0.0
O1467 O 0.73536 0.54196 0.14081 0.0
H1468 H 0.73256 0.51934 0.14358 0.0
H1469 H 0.72193 0.50796 0.13804 0.0
H1470 H 0.74404 0.4933 0.12591 0.0
H1471 H 0.7547 0.50466 0.13171 0.0
H1472 H 0.7889 0.53624 0.14328 0.0
H1473 H 0.77236 0.53491 0.14433 0.0
H1474 H 0.78764 0.56222 0.15657 0.0
H1475 H 0.7712 0.5609 0.15747 0.0
H1476 H 0.72853 0.57314 0.14794 0.0
H1477 H 0.70736 0.55792 0.16115 0.0
H1478 H 0.71527 0.54387 0.15761 0.0
H1479 H 0.73658 0.55911 0.14482 0.0
C1480 C 0.74546 0.50197 0.38184 0.0
C1481 C 0.73692 0.49982 0.38538 0.0
C1482 C 0.73386 0.51577 0.38792 0.0
C1483 C 0.7312 0.50665 0.38844 0.0
C1484 C 0.74238 0.51791 0.38429 0.0
C1485 C 0.74815 0.51105 0.38131 0.0
U1486 U 0.74796 0.47842 0.37257 0.0
O1487 O 0.75691 0.47271 0.36221 0.0
O1488 O 0.75721 0.46737 0.37598 0.0
C1489 C 0.76086 0.46721 0.36793 0.0
C1490 C 0.75142 0.49476 0.37851 0.0
C1491 C 0.77077 0.46709 0.3678 0.0
C1492 C 0.78532 0.4744 0.37017 0.0
C1493 C 0.77587 0.47489 0.36968 0.0
C1494 C 0.78457 0.45837 0.36678 0.0
C1495 C 0.78974 0.46609 0.36887 0.0
C1496 C 0.77517 0.45888 0.36625 0.0
C1497 C 0.72658 0.46444 0.3693 0.0
C1498 C 0.72683 0.44956 0.36236 0.0
C1499 C 0.71352 0.45456 0.37045 0.0
C1500 C 0.71777 0.4628 0.37232 0.0
C1501 C 0.71802 0.44782 0.3655 0.0
C1502 C 0.7311 0.45779 0.36429 0.0
C1503 C 0.73109 0.47295 0.37177 0.0
O1504 O 0.75181 0.48752 0.38362 0.0
O1505 O 0.75057 0.49285 0.36992 0.0
O1506 O 0.73513 0.47728 0.36517 0.0
O1507 O 0.73598 0.47257 0.37913 0.0
H1508 H 0.73466 0.49286 0.38574 0.0
H1509 H 0.72461 0.50481 0.39106 0.0
H1510 H 0.74462 0.52488 0.38385 0.0
H1511 H 0.7547 0.51282 0.37855 0.0
H1512 H 0.78913 0.48044 0.37185 0.0
H1513 H 0.77255 0.48128 0.37095 0.0
H1514 H 0.7878 0.45191 0.36561 0.0
H1515 H 0.77132 0.4528 0.36479 0.0
H1516 H 0.73049 0.44447 0.35861 0.0
H1517 H 0.7067 0.45345 0.37287 0.0
H1518 H 0.7142 0.46786 0.37622 0.0
H1519 H 0.73795 0.45893 0.36198 0.0
C1520 C 0.74272 0.48473 0.64216 0.0
C1521 C 0.7403 0.47597 0.64487 0.0
C1522 C 0.72441 0.47941 0.64244 0.0
C1523 C 0.73123 0.47334 0.64502 0.0
C1524 C 0.72686 0.48826 0.63993 0.0
C1525 C 0.73596 0.49089 0.63977 0.0
U1526 U 0.76698 0.47774 0.64421 0.0
O1527 O 0.77876 0.48012 0.63554 0.0
O1528 O 0.77901 0.48468 0.6496 0.0
C1529 C 0.78317 0.48462 0.64179 0.0
C1530 C 0.7523 0.48724 0.64151 0.0
C1531 C 0.78714 0.49326 0.63894 0.0
C1532 C 0.78595 0.50796 0.63178 0.0
C1533 C 0.78191 0.49992 0.63474 0.0
C1534 C 0.80043 0.50276 0.63733 0.0
C1535 C 0.79528 0.50944 0.63302 0.0
C1536 C 0.79639 0.49474 0.64026 0.0
C1537 C 0.77187 0.45356 0.65109 0.0
C1538 C 0.78732 0.44818 0.65207 0.0
C1539 C 0.77484 0.43792 0.65496 0.0
C1540 C 0.76873 0.44492 0.65337 0.0
C1541 C 0.78421 0.43946 0.6543 0.0
C1542 C 0.7812 0.45517 0.65047 0.0
C1543 C 0.7654 0.4608 0.64921 0.0
O1544 O 0.75673 0.48727 0.64918 0.0
O1545 O 0.75671 0.48314 0.63501 0.0
O1546 O 0.76508 0.46339 0.64077 0.0
O1547 O 0.76551 0.4676 0.65491 0.0
H1548 H 0.74544 0.47114 0.64676 0.0
H1549 H 0.72957 0.46652 0.64711 0.0
H1550 H 0.72176 0.49306 0.63784 0.0
H1551 H 0.73773 0.49767 0.63764 0.0
H1552 H 0.78179 0.51301 0.62856 0.0
H1553 H 0.77473 0.49888 0.6337 0.0
H1554 H 0.80764 0.50363 0.63828 0.0
H1555 H 0.80053 0.48964 0.64346 0.0
H1556 H 0.79448 0.44957 0.65138 0.0
H1557 H 0.77224 0.43132 0.65677 0.0
H1558 H 0.76154 0.44359 0.65388 0.0
H1559 H 0.78373 0.46181 0.64868 0.0
C1560 C 0.49191 0.13183 0.25265 0.0
C1561 C 0.48253 0.13129 0.25137 0.0
C1562 C 0.47999 0.13853 0.26586 0.0
C1563 C 0.47663 0.13459 0.25791 0.0
C1564 C 0.48942 0.13903 0.26712 0.0
C1565 C 0.49533 0.13571 0.26056 0.0
U1566 U 0.49485 0.12209 0.22953 0.0
O1567 O 0.50446 0.12508 0.21869 0.0
O1568 O 0.50369 0.11135 0.22427 0.0
C1569 C 0.50788 0.11688 0.21876 0.0
C1570 C 0.49805 0.12847 0.24567 0.0
C1571 C 0.51779 0.11633 0.21866 0.0
C1572 C 0.53262 0.1218 0.2232 0.0
C1573 C 0.52319 0.122 0.22402 0.0
C1574 C 0.53129 0.11004 0.2119 0.0
C1575 C 0.53676 0.11592 0.21699 0.0
C1576 C 0.5219 0.11026 0.21272 0.0
C1577 C 0.47389 0.11814 0.21537 0.0
C1578 C 0.47518 0.11341 0.19979 0.0
C1579 C 0.46039 0.11555 0.20647 0.0
C1580 C 0.46446 0.11795 0.21462 0.0
C1581 C 0.4657 0.11332 0.19894 0.0
C1582 C 0.47924 0.11579 0.20794 0.0
C1583 C 0.4781 0.12102 0.22384 0.0
O1584 O 0.49733 0.11978 0.24392 0.0
O1585 O 0.49841 0.13348 0.23838 0.0
O1586 O 0.483 0.12842 0.2233 0.0
O1587 O 0.48202 0.11458 0.22848 0.0
H1588 H 0.47978 0.12831 0.24529 0.0
H1589 H 0.46942 0.13397 0.25678 0.0
H1590 H 0.49223 0.1421 0.27312 0.0
H1591 H 0.50256 0.1362 0.26163 0.0
H1592 H 0.53665 0.12644 0.22718 0.0
H1593 H 0.52012 0.12672 0.22868 0.0
H1594 H 0.53428 0.10531 0.20719 0.0
H1595 H 0.51783 0.1058 0.20857 0.0
H1596 H 0.47945 0.11163 0.19414 0.0
H1597 H 0.45309 0.11567 0.20601 0.0
H1598 H 0.46025 0.11978 0.22029 0.0
H1599 H 0.48655 0.11589 0.20844 0.0
C1600 C 0.99388 0.89214 0.73396 0.0
C1601 C 0.99175 0.89481 0.72518 0.0
C1602 C 0.97572 0.89293 0.72833 0.0
C1603 C 0.98276 0.8952 0.72239 0.0
C1604 C 0.97788 0.89045 0.7372 0.0
C1605 C 0.98692 0.89003 0.73999 0.0
U1606 U 0.01829 0.89419 0.72754 0.0
O1607 O 0.03031 0.89899 0.73488 0.0
O1608 O 0.02985 0.88513 0.72956 0.0
C1609 C 0.03433 0.89108 0.7344 0.0
C1610 C 1.00339 0.89125 0.73662 0.0
C1611 C 0.03815 0.88764 0.74281 0.0
C1612 C 0.03644 0.88132 0.75778 0.0
C1613 C 0.0326 0.88492 0.74996 0.0
C1614 C 0.05138 0.88323 0.75135 0.0
C1615 C 0.04587 0.88035 0.75851 0.0
C1616 C 0.04754 0.88684 0.74358 0.0
C1617 C 0.02378 0.90205 0.70391 0.0
C1618 C 0.03923 0.90181 0.69842 0.0
C1619 C 0.02719 0.90735 0.68886 0.0
C1620 C 0.02093 0.90569 0.69571 0.0
C1621 C 0.03641 0.90537 0.69012 0.0
C1622 C 0.03296 0.90017 0.70527 0.0
C1623 C 0.01713 0.90003 0.71095 0.0
O1624 O 0.00779 0.88483 0.73235 0.0
O1625 O 0.00794 0.89889 0.73708 0.0
O1626 O 0.01731 0.90546 0.71795 0.0
O1627 O 0.0165 0.89145 0.71313 0.0
H1628 H 0.99706 0.89649 0.72044 0.0
H1629 H 0.98131 0.89727 0.71556 0.0
H1630 H 0.9726 0.88861 0.74191 0.0
H1631 H 0.98847 0.88794 0.74679 0.0
H1632 H 0.03202 0.87911 0.76315 0.0
H1633 H 0.02531 0.88548 0.74945 0.0
H1634 H 0.05867 0.88273 0.75176 0.0
H1635 H 0.05192 0.88893 0.73812 0.0
H1636 H 0.04624 0.90009 0.69958 0.0
H1637 H 0.02482 0.9102 0.6826 0.0
H1638 H 0.01386 0.9072 0.69458 0.0
H1639 H 0.03526 0.89734 0.71157 0.0
C1640 C 0.52211 0.89007 0.28179 0.0
C1641 C 0.5248 0.89302 0.29035 0.0
C1642 C 0.54062 0.89162 0.28607 0.0
C1643 C 0.53396 0.89378 0.29247 0.0
C1644 C 0.53787 0.88881 0.27743 0.0
C1645 C 0.52868 0.88804 0.27532 0.0
U1646 U 0.49796 0.89135 0.28955 0.0
O1647 O 0.48544 0.89552 0.28282 0.0
O1648 O 0.48665 0.88173 0.28817 0.0
C1649 C 0.48176 0.88744 0.28348 0.0
C1650 C 0.51247 0.88878 0.27978 0.0
C1651 C 0.4775 0.88372 0.27532 0.0
C1652 C 0.47602 0.88267 0.25907 0.0
C1653 C 0.48055 0.88598 0.26667 0.0
C1654 C 0.46553 0.87462 0.26871 0.0
C1655 C 0.46838 0.87704 0.26001 0.0
C1656 C 0.47003 0.87796 0.27627 0.0
C1657 C 0.4932 0.89961 0.31318 0.0
C1658 C 0.47786 0.89946 0.31896 0.0
C1659 C 0.49015 0.90494 0.32831 0.0
C1660 C 0.49626 0.90323 0.32134 0.0
C1661 C 0.48088 0.90304 0.32722 0.0
C1662 C 0.48397 0.89777 0.31201 0.0
C1663 C 0.49967 0.89763 0.30597 0.0
O1664 O 0.50855 0.88232 0.28442 0.0
O1665 O 0.50767 0.89624 0.27944 0.0
O1666 O 0.49907 0.90287 0.29887 0.0
O1667 O 0.50046 0.88902 0.30392 0.0
H1668 H 0.51979 0.89457 0.29544 0.0
H1669 H 0.53582 0.89581 0.29922 0.0
H1670 H 0.54282 0.8872 0.27232 0.0
H1671 H 0.5267 0.88576 0.26867 0.0
H1672 H 0.47835 0.88471 0.25248 0.0
H1673 H 0.48634 0.89039 0.26578 0.0
H1674 H 0.45981 0.87015 0.26969 0.0
H1675 H 0.46762 0.8761 0.28289 0.0
H1676 H 0.4708 0.89781 0.31794 0.0
H1677 H 0.49268 0.90779 0.33454 0.0
H1678 H 0.50337 0.90471 0.32234 0.0
H1679 H 0.48152 0.89494 0.30574 0.0
C1680 C 0.88579 0.75429 0.02085 0.0
C1681 C 0.88597 0.75325 0.03022 0.0
C1682 C 0.87914 0.76808 0.03215 0.0
C1683 C 0.88268 0.76008 0.03581 0.0
C1684 C 0.87906 0.76912 0.02274 0.0
C1685 C 0.88235 0.76226 0.01713 0.0
U1686 U 0.89516 0.73085 0.01912 0.0
O1687 O 0.89174 0.71935 0.0104 0.0
O1688 O 0.90557 0.72481 0.01044 0.0
C1689 C 0.89985 0.71906 1.00679 0.0
C1690 C 0.889 0.74692 0.01506 0.0
C1691 C 0.90006 0.71838 0.99696 0.0
C1692 C 0.89583 0.72379 0.98213 0.0
C1693 C 0.89604 0.72495 0.99148 0.0
C1694 C 0.90384 0.7096 0.98371 0.0
C1695 C 0.8996 0.71602 0.97817 0.0
C1696 C 0.90405 0.71078 0.99302 0.0
C1697 C 0.89892 0.71811 0.04097 0.0
C1698 C 0.90437 0.70263 0.04102 0.0
C1699 C 0.89968 0.70975 0.05495 0.0
C1700 C 0.89767 0.71768 0.05029 0.0
C1701 C 0.90297 0.70211 0.05036 0.0
C1702 C 0.90234 0.71057 0.03636 0.0
C1703 C 0.89627 0.7263 0.03612 0.0
O1704 O 0.89767 0.74512 0.01576 0.0
O1705 O 0.88389 0.73963 0.01515 0.0
O1706 O 0.88882 0.72553 0.03138 0.0
O1707 O 0.90281 0.7305 0.03181 0.0
H1708 H 0.88862 0.74713 0.0332 0.0
H1709 H 0.88298 0.75911 0.04302 0.0
H1710 H 0.87631 0.77517 0.01971 0.0
H1711 H 0.88214 0.76314 0.00991 0.0
H1712 H 0.89248 0.72882 0.97804 0.0
H1713 H 0.89292 0.73087 0.99444 0.0
H1714 H 0.90694 0.70363 0.98085 0.0
H1715 H 0.90721 0.70566 0.99716 0.0
H1716 H 0.90682 0.69684 0.03729 0.0
H1717 H 0.89864 0.70959 0.06216 0.0
H1718 H 0.89504 0.72344 0.05394 0.0
H1719 H 0.90329 0.7108 0.02914 0.0
C1720 C 0.62148 0.27976 0.49207 0.0
C1721 C 0.6191 0.28858 0.48962 0.0
C1722 C 0.62021 0.28455 0.47379 0.0
C1723 C 0.61847 0.29096 0.48057 0.0
C1724 C 0.62248 0.27567 0.4763 0.0
C1725 C 0.62312 0.2733 0.48538 0.0
U1726 U 0.6201 0.28673 0.5164 0.0
O1727 O 0.61518 0.27956 0.52841 0.0
O1728 O 0.62925 0.28433 0.52776 0.0
C1729 C 0.62316 0.27969 0.53228 0.0
C1730 C 0.62247 0.27739 0.50159 0.0
C1731 C 0.62622 0.27108 0.53611 0.0
C1732 C 0.63487 0.25716 0.53527 0.0
C1733 C 0.63173 0.26511 0.53124 0.0
C1734 C 0.62684 0.26102 0.54894 0.0
C1735 C 0.63248 0.25505 0.54418 0.0
C1736 C 0.62375 0.26896 0.54494 0.0
C1737 C 0.61298 0.3105 0.52233 0.0
C1738 C 0.61382 0.31554 0.53784 0.0
C1739 C 0.60766 0.32546 0.52644 0.0
C1740 C 0.60913 0.31879 0.51992 0.0
C1741 C 0.61006 0.32392 0.53546 0.0
C1742 C 0.61525 0.30888 0.53134 0.0
C1743 C 0.6147 0.30358 0.51547 0.0
O1744 O 0.62907 0.28163 0.50578 0.0
O1745 O 0.6149 0.27722 0.50622 0.0
O1746 O 0.60909 0.29666 0.51555 0.0
O1747 O 0.62321 0.30117 0.51467 0.0
H1748 H 0.61784 0.29366 0.49473 0.0
H1749 H 0.61685 0.29789 0.47889 0.0
H1750 H 0.62377 0.27055 0.47124 0.0
H1751 H 0.62495 0.26645 0.48717 0.0
H1752 H 0.63915 0.25266 0.53141 0.0
H1753 H 0.63367 0.26663 0.52439 0.0
H1754 H 0.625 0.25968 0.55586 0.0
H1755 H 0.61953 0.27351 0.54879 0.0
H1756 H 0.61561 0.31411 0.54475 0.0
H1757 H 0.60481 0.33187 0.52439 0.0
H1758 H 0.60734 0.32013 0.51299 0.0
H1759 H 0.61818 0.30248 0.53332 0.0
C1760 C 0.25263 0.49275 0.13001 0.0
C1761 C 0.25183 0.48332 0.12934 0.0
C1762 C 0.26632 0.48147 0.13683 0.0
C1763 C 0.25861 0.47774 0.1327 0.0
C1764 C 0.26714 0.49094 0.13741 0.0
C1765 C 0.26033 0.49654 0.13403 0.0
U1766 U 0.22921 0.49436 0.12058 0.0
O1767 O 0.21775 0.50314 0.1239 0.0
O1768 O 0.22321 0.50302 0.11017 0.0
C1769 C 0.21748 0.50672 0.11583 0.0
C1770 C 0.24528 0.49853 0.12677 0.0
C1771 C 0.21689 0.51661 0.11557 0.0
C1772 C 0.22279 0.53154 0.11919 0.0
C1773 C 0.22379 0.52212 0.11907 0.0
C1774 C 0.20807 0.52996 0.11218 0.0
C1775 C 0.21485 0.53554 0.11586 0.0
C1776 C 0.20909 0.52058 0.11205 0.0
C1777 C 0.21636 0.47237 0.11687 0.0
C1778 C 0.20083 0.47235 0.11158 0.0
C1779 C 0.20793 0.45831 0.11605 0.0
C1780 C 0.21591 0.46299 0.11802 0.0
C1781 C 0.20027 0.46295 0.1129 0.0
C1782 C 0.20882 0.47703 0.11358 0.0
C1783 C 0.22459 0.47725 0.11951 0.0
O1784 O 0.24349 0.49779 0.11814 0.0
O1785 O 0.238 0.49843 0.13182 0.0
O1786 O 0.22385 0.48205 0.12691 0.0
O1787 O 0.22881 0.48156 0.11302 0.0
H1788 H 0.24591 0.48029 0.12625 0.0
H1789 H 0.25783 0.47048 0.13201 0.0
H1790 H 0.27296 0.49402 0.14063 0.0
H1791 H 0.26102 0.50382 0.13464 0.0
H1792 H 0.2281 0.53566 0.12211 0.0
H1793 H 0.22987 0.51914 0.12183 0.0
H1794 H 0.20195 0.53284 0.10942 0.0
H1795 H 0.20371 0.51642 0.1093 0.0
H1796 H 0.19502 0.47612 0.10925 0.0
H1797 H 0.20775 0.45105 0.11701 0.0
H1798 H 0.22168 0.4593 0.12055 0.0
H1799 H 0.20906 0.4843 0.1127 0.0
C1800 C 0.28166 0.52236 0.89154 0.0
C1801 C 0.29034 0.52489 0.89443 0.0
C1802 C 0.28658 0.54077 0.89246 0.0
C1803 C 0.29277 0.53401 0.89489 0.0
C1804 C 0.27786 0.53819 0.88963 0.0
C1805 C 0.27543 0.52905 0.88918 0.0
U1806 U 0.28839 0.49789 0.89356 0.0
O1807 O 0.2811 0.48604 0.89888 0.0
O1808 O 0.28575 0.48617 0.88485 0.0
C1809 C 0.28103 0.48192 0.89104 0.0
C1810 C 0.27922 0.51276 0.8908 0.0
C1811 C 0.27227 0.47814 0.88818 0.0
C1812 C 0.2591 0.47803 0.87838 0.0
C1813 C 0.26717 0.48208 0.88125 0.0
C1814 C 0.26101 0.46624 0.88951 0.0
C1815 C 0.25596 0.47004 0.88246 0.0
C1816 C 0.26909 0.47025 0.89232 0.0
C1817 C 0.31219 0.4921 0.90081 0.0
C1818 C 0.31694 0.47642 0.90127 0.0
C1819 C 0.3275 0.48833 0.90527 0.0
C1820 C 0.32081 0.4948 0.90365 0.0
C1821 C 0.32565 0.47907 0.90403 0.0
C1822 C 0.31026 0.48288 0.89968 0.0
C1823 C 0.30528 0.49891 0.89886 0.0
O1824 O 0.28341 0.50835 0.88436 0.0
O1825 O 0.27904 0.50833 0.89845 0.0
O1826 O 0.2984 0.49905 0.90445 0.0
O1827 O 0.30283 0.49938 0.89038 0.0
H1828 H 0.29525 0.51979 0.89624 0.0
H1829 H 0.29958 0.53575 0.89696 0.0
H1830 H 0.27291 0.54324 0.8878 0.0
H1831 H 0.2687 0.5272 0.88694 0.0
H1832 H 0.25531 0.48114 0.87299 0.0
H1833 H 0.26947 0.48821 0.87799 0.0
H1834 H 0.25883 0.46003 0.89271 0.0
H1835 H 0.27294 0.4671 0.89766 0.0
H1836 H 0.31526 0.46933 0.90037 0.0
H1837 H 0.33417 0.4906 0.90729 0.0
H1838 H 0.3224 0.5019 0.90453 0.0
H1839 H 0.30361 0.48069 0.89751 0.0
C1840 C 0.28107 0.49303 0.623 0.0
C1841 C 0.28916 0.49077 0.61863 0.0
C1842 C 0.28644 0.47481 0.62156 0.0
C1843 C 0.29181 0.48176 0.6179 0.0
C1844 C 0.27822 0.47709 0.62576 0.0
C1845 C 0.27558 0.48615 0.6265 0.0
U1846 U 0.28804 0.51736 0.62132 0.0
O1847 O 0.2808 0.52963 0.61717 0.0
O1848 O 0.28666 0.52877 0.63071 0.0
C1849 C 0.28173 0.5335 0.62509 0.0
C1850 C 0.2787 0.50258 0.62431 0.0
C1851 C 0.27354 0.53755 0.62891 0.0
C1852 C 0.25847 0.53633 0.6353 0.0
C1853 C 0.26612 0.53224 0.63153 0.0
C1854 C 0.26563 0.55102 0.6338 0.0
C1855 C 0.25817 0.54577 0.63653 0.0
C1856 C 0.27324 0.54694 0.63004 0.0
C1857 C 0.31149 0.52257 0.61243 0.0
C1858 C 0.31722 0.53797 0.6125 0.0
C1859 C 0.32652 0.52581 0.60672 0.0
C1860 C 0.3196 0.51962 0.60857 0.0
C1861 C 0.32543 0.53505 0.60871 0.0
C1862 C 0.31031 0.53178 0.61434 0.0
C1863 C 0.30439 0.516 0.61465 0.0
O1864 O 0.28343 0.50672 0.63057 0.0
O1865 O 0.27795 0.50733 0.61689 0.0
O1866 O 0.2971 0.51638 0.60963 0.0
O1867 O 0.3026 0.51526 0.62327 0.0
H1868 H 0.29349 0.49602 0.61591 0.0
H1869 H 0.2981 0.48022 0.61451 0.0
H1870 H 0.27399 0.4719 0.62872 0.0
H1871 H 0.26934 0.48779 0.62994 0.0
H1872 H 0.25287 0.5321 0.63738 0.0
H1873 H 0.26628 0.52496 0.63071 0.0
H1874 H 0.26556 0.55831 0.6345 0.0
H1875 H 0.2789 0.55113 0.62802 0.0
H1876 H 0.31621 0.54501 0.61423 0.0
H1877 H 0.3327 0.52335 0.6037 0.0
H1878 H 0.3206 0.51252 0.60704 0.0
H1879 H 0.30408 0.53415 0.61735 0.0
C1880 C 0.25093 0.51898 0.38523 0.0
C1881 C 0.24913 0.52689 0.38034 0.0
C1882 C 0.26519 0.53042 0.37976 0.0
C1883 C 0.2562 0.53252 0.37758 0.0
C1884 C 0.26698 0.52249 0.38465 0.0
C1885 C 0.2599 0.5168 0.38733 0.0
U1886 U 0.22725 0.51709 0.39443 0.0
O1887 O 0.21601 0.50787 0.39133 0.0
O1888 O 0.22142 0.50853 0.40507 0.0
C1889 C 0.2158 0.5045 0.39949 0.0
C1890 C 0.24348 0.51325 0.38855 0.0
C1891 C 0.21541 0.4946 0.40001 0.0
C1892 C 0.22124 0.47974 0.39619 0.0
C1893 C 0.22215 0.48918 0.39615 0.0
C1894 C 0.20701 0.48114 0.40414 0.0
C1895 C 0.21358 0.47564 0.40006 0.0
C1896 C 0.20792 0.49053 0.4041 0.0
C1897 C 0.21385 0.53866 0.39778 0.0
C1898 C 0.19843 0.53813 0.40335 0.0
C1899 C 0.20522 0.55249 0.39928 0.0
C1900 C 0.21321 0.54806 0.39695 0.0
C1901 C 0.19772 0.54758 0.40248 0.0
C1902 C 0.20643 0.53371 0.40102 0.0
C1903 C 0.2222 0.53406 0.39512 0.0
O1904 O 0.2416 0.51421 0.39713 0.0
O1905 O 0.23623 0.51293 0.38342 0.0
O1906 O 0.22156 0.52907 0.38783 0.0
O1907 O 0.2266 0.53006 0.40167 0.0
H1908 H 0.24224 0.52879 0.37876 0.0
H1909 H 0.2546 0.53865 0.37394 0.0
H1910 H 0.27385 0.52069 0.38639 0.0
H1911 H 0.26142 0.51076 0.39115 0.0
H1912 H 0.22639 0.47569 0.39295 0.0
H1913 H 0.22798 0.49224 0.39295 0.0
H1914 H 0.20111 0.47818 0.4073 0.0
H1915 H 0.20268 0.49464 0.40713 0.0
H1916 H 0.19282 0.53416 0.40589 0.0
H1917 H 0.20486 0.55975 0.3984 0.0
H1918 H 0.21888 0.55196 0.39442 0.0
H1919 H 0.20683 0.52642 0.4017 0.0
C1920 C 0.10223 0.36187 0.07714 0.0
C1921 C 0.09957 0.35292 0.07891 0.0
C1922 C 0.09477 0.35107 0.08685 0.0
C1923 C 0.09301 0.35797 0.09307 0.0
H1924 H 0.07837 0.36483 0.11665 0.0
H1925 H 0.07075 0.36199 0.13099 0.0
H1926 H 0.08159 0.38699 0.14154 0.0
H1927 H 0.08916 0.38986 0.12738 0.0
H1928 H 0.10322 0.40074 0.11737 0.0
H1929 H 0.11466 0.41261 0.11737 0.0
H1930 H 0.12233 0.40526 0.09033 0.0
H1931 H 0.11085 0.39339 0.09025 0.0
H1932 H 0.10284 0.37551 0.0818 0.0
H1933 H 0.10575 0.36357 0.07098 0.0
H1934 H 0.09266 0.34423 0.08843 0.0
H1935 H 0.08956 0.35626 0.09926 0.0
N1936 N 0.08997 0.37269 0.10586 0.0
N1937 N 0.09478 0.38668 0.11162 0.0
N1938 N 0.10018 0.38169 0.09771 0.0
C1939 C 0.0897 0.37907 0.11247 0.0
C1940 C 0.10002 0.38807 0.10427 0.0
C1941 C 0.09517 0.374 0.09842 0.0
C1942 C 0.08447 0.37753 0.12085 0.0
C1943 C 0.07908 0.36975 0.122 0.0
C1944 C 0.07468 0.36814 0.1302 0.0
C1945 C 0.07567 0.37422 0.1374 0.0
C1946 C 0.08082 0.38211 0.13615 0.0
C1947 C 0.08514 0.38376 0.12799 0.0
C1948 C 0.10617 0.39601 0.10384 0.0
C1949 C 0.10724 0.4017 0.11136 0.0
C1950 C 0.11383 0.40849 0.11139 0.0
C1951 C 0.11945 0.4098 0.10389 0.0
C1952 C 0.11807 0.40444 0.0962 0.0
C1953 C 0.11152 0.3976 0.09618 0.0
C1954 C 0.09605 0.36685 0.09147 0.0
C1955 C 0.10051 0.36874 0.08334 0.0
C1956 C 0.93746 0.88338 0.38047 0.0
C1957 C 0.94233 0.87529 0.37959 0.0
C1958 C 0.94215 0.86905 0.38672 0.0
C1959 C 0.93706 0.8708 0.39446 0.0
H1960 H 0.92627 0.85827 0.41712 0.0
H1961 H 0.92281 0.8464 0.42797 0.0
H1962 H 0.90669 0.86523 0.44328 0.0
H1963 H 0.90998 0.87702 0.43244 0.0
H1964 H 0.90507 0.89603 0.4245 0.0
H1965 H 0.894 0.9082 0.42404 0.0
H1966 H 0.90121 0.91372 0.39647 0.0
H1967 H 0.91228 0.90156 0.39686 0.0
H1968 H 0.92862 0.89139 0.38851 0.0
H1969 H 0.93732 0.88827 0.37506 0.0
H1970 H 0.94591 0.8628 0.3863 0.0
H1971 H 0.93698 0.8658 0.39976 0.0
N1972 N 0.92536 0.87423 0.4098 0.0
N1973 N 0.91478 0.88339 0.4172 0.0
N1974 N 0.92115 0.88818 0.40361 0.0
C1975 C 0.91969 0.87565 0.41687 0.0
C1976 C 0.91547 0.88969 0.41061 0.0
C1977 C 0.92616 0.8805 0.40316 0.0
C1978 C 0.91833 0.8686 0.42383 0.0
C1979 C 0.92204 0.85991 0.42283 0.0
C1980 C 0.92008 0.8531 0.42907 0.0
C1981 C 0.91438 0.85484 0.43643 0.0
C1982 C 0.91094 0.86361 0.43758 0.0
C1983 C 0.91288 0.8704 0.43137 0.0
C1984 C 0.90951 0.89774 0.41069 0.0
C1985 C 0.90439 0.8999 0.41836 0.0
C1986 C 0.89808 0.90691 0.41813 0.0
C1987 C 0.89672 0.91186 0.4102 0.0
C1988 C 0.90207 0.90995 0.40264 0.0
C1989 C 0.90844 0.903 0.40289 0.0
C1990 C 0.93203 0.87882 0.39524 0.0
C1991 C 0.9324 0.88514 0.38819 0.0
C1992 C 0.43264 0.62961 0.63718 0.0
C1993 C 0.43792 0.63734 0.63886 0.0
C1994 C 0.43825 0.6442 0.63234 0.0
C1995 C 0.43325 0.64341 0.62438 0.0
H1996 H 0.42147 0.65876 0.60343 0.0
H1997 H 0.4197 0.67126 0.59283 0.0
H1998 H 0.40924 0.65268 0.57294 0.0
H1999 H 0.41094 0.64021 0.58348 0.0
H2000 H 0.40024 0.62287 0.59178 0.0
H2001 H 0.39006 0.60997 0.59025 0.0
H2002 H 0.40021 0.599 0.61516 0.0
H2003 H 0.4105 0.61176 0.61663 0.0
H2004 H 0.42365 0.62275 0.62825 0.0
H2005 H 0.43236 0.62414 0.64201 0.0
H2006 H 0.44223 0.65026 0.63347 0.0
H2007 H 0.43356 0.64887 0.61955 0.0
N2008 N 0.42204 0.64172 0.60837 0.0
N2009 N 0.41186 0.63335 0.59953 0.0
N2010 N 0.41726 0.62735 0.61304 0.0
C2011 C 0.41685 0.64097 0.60085 0.0
C2012 C 0.41201 0.6265 0.6056 0.0
C2013 C 0.42232 0.6349 0.61448 0.0
C2014 C 0.41632 0.64849 0.59431 0.0
C2015 C 0.41887 0.65733 0.59677 0.0
C2016 C 0.41781 0.66449 0.59073 0.0
C2017 C 0.41434 0.66292 0.58207 0.0
C2018 C 0.41201 0.65406 0.57954 0.0
C2019 C 0.41294 0.64693 0.58561 0.0
C2020 C 0.40618 0.6184 0.60436 0.0
C2021 C 0.40037 0.61768 0.5969 0.0
C2022 C 0.39448 0.61031 0.59605 0.0
C2023 C 0.3943 0.60348 0.6026 0.0
C2024 C 0.40026 0.60409 0.60993 0.0
C2025 C 0.40613 0.61146 0.6108 0.0
C2026 C 0.42785 0.63572 0.62277 0.0
C2027 C 0.42768 0.6288 0.62925 0.0
C2028 C 0.60734 0.15354 0.93778 0.0
C2029 C 0.60365 0.16219 0.93653 0.0
C2030 C 0.59786 0.16365 0.92919 0.0
C2031 C 0.59603 0.15667 0.92307 0.0
H2032 H 0.58097 0.1499 0.90032 0.0
H2033 H 0.572 0.15251 0.88683 0.0
H2034 H 0.58107 0.12702 0.87589 0.0
H2035 H 0.58982 0.12428 0.88939 0.0
H2036 H 0.60369 0.11249 0.89957 0.0
H2037 H 0.61383 0.09957 0.89995 0.0
H2038 H 0.62456 0.10876 0.9254 0.0
H2039 H 0.61456 0.12178 0.92498 0.0
H2040 H 0.6086 0.14006 0.93284 0.0
H2041 H 0.61167 0.15214 0.94348 0.0
H2042 H 0.59495 0.17025 0.92802 0.0
H2043 H 0.5917 0.15808 0.91737 0.0
N2044 N 0.59294 0.142 0.91031 0.0
N2045 N 0.59696 0.12775 0.90465 0.0
N2046 N 0.60342 0.13304 0.91802 0.0
C2047 C 0.59205 0.13547 0.90391 0.0
C2048 C 0.60265 0.12647 0.91169 0.0
C2049 C 0.5986 0.14082 0.91741 0.0
C2050 C 0.58617 0.1369 0.89595 0.0
C2051 C 0.581 0.14481 0.89507 0.0
C2052 C 0.57588 0.14633 0.88731 0.0
C2053 C 0.57582 0.13998 0.88026 0.0
C2054 C 0.58084 0.13199 0.88124 0.0
C2055 C 0.58592 0.13046 0.88898 0.0
C2056 C 0.60833 0.11824 0.91221 0.0
C2057 C 0.60816 0.11175 0.90529 0.0
C2058 C 0.61395 0.1043 0.90552 0.0
C2059 C 0.62004 0.10316 0.91268 0.0
C2060 C 0.62005 0.10952 0.91971 0.0
C2061 C 0.61427 0.11697 0.91948 0.0
C2062 C 0.59995 0.14809 0.92418 0.0
C2063 C 0.60552 0.14659 0.93169 0.0
C2064 C 0.10251 0.65336 0.43891 0.0
C2065 C 0.09953 0.66219 0.43717 0.0
C2066 C 0.09552 0.66408 0.42882 0.0
C2067 C 0.09456 0.65726 0.42232 0.0
H2068 H 0.08242 0.65068 0.39751 0.0
H2069 H 0.07452 0.65269 0.38322 0.0
H2070 H 0.08159 0.62545 0.37548 0.0
H2071 H 0.08955 0.62346 0.38958 0.0
H2072 H 0.10482 0.61334 0.39955 0.0
H2073 H 0.11564 0.60102 0.40044 0.0
H2074 H 0.1241 0.61038 0.42666 0.0
H2075 H 0.11342 0.62282 0.42573 0.0
H2076 H 0.10412 0.63991 0.43401 0.0
H2077 H 0.10575 0.65172 0.44523 0.0
H2078 H 0.09312 0.67082 0.42731 0.0
H2079 H 0.09153 0.65894 0.41592 0.0
N2080 N 0.0922 0.64235 0.4095 0.0
N2081 N 0.09716 0.62826 0.40418 0.0
N2082 N 0.10233 0.6337 0.41803 0.0
C2083 C 0.09206 0.6358 0.40305 0.0
C2084 C 0.10232 0.62714 0.41163 0.0
C2085 C 0.0973 0.6413 0.41704 0.0
C2086 C 0.08672 0.63694 0.39468 0.0
C2087 C 0.08225 0.6451 0.39278 0.0
C2088 C 0.07768 0.64624 0.38461 0.0
C2089 C 0.07752 0.63926 0.37818 0.0
C2090 C 0.08175 0.63103 0.38021 0.0
C2091 C 0.08629 0.62988 0.38834 0.0
C2092 C 0.10829 0.61915 0.41253 0.0
C2093 C 0.10892 0.61275 0.40555 0.0
C2094 C 0.11509 0.60564 0.40608 0.0
C2095 C 0.12077 0.60475 0.4136 0.0
C2096 C 0.11992 0.61096 0.42071 0.0
C2097 C 0.11376 0.61807 0.42019 0.0
C2098 C 0.09772 0.64846 0.42403 0.0
C2099 C 0.10163 0.6466 0.43243 0.0
C2100 C 0.60637 0.85962 0.57968 0.0
C2101 C 0.60211 0.85123 0.581 0.0
C2102 C 0.59597 0.85029 0.58815 0.0
C2103 C 0.59433 0.85753 0.59402 0.0
H2104 H 0.58233 0.86436 0.61868 0.0
H2105 H 0.57417 0.86263 0.63286 0.0
H2106 H 0.57929 0.89071 0.63913 0.0
H2107 H 0.58752 0.89244 0.62514 0.0
H2108 H 0.60474 0.9016 0.61649 0.0
H2109 H 0.6156 0.91393 0.61559 0.0
H2110 H 0.6231 0.90534 0.58884 0.0
H2111 H 0.61241 0.89283 0.58982 0.0
H2112 H 0.60824 0.87316 0.58426 0.0
H2113 H 0.611 0.86062 0.57412 0.0
H2114 H 0.5926 0.84388 0.58935 0.0
H2115 H 0.58971 0.85653 0.59957 0.0
N2116 N 0.59207 0.87262 0.60653 0.0
N2117 N 0.59633 0.88713 0.6114 0.0
N2118 N 0.60246 0.88117 0.59818 0.0
C2119 C 0.59136 0.87948 0.61261 0.0
C2120 C 0.60188 0.88805 0.6042 0.0
C2121 C 0.59759 0.87345 0.59926 0.0
C2122 C 0.58569 0.87851 0.62079 0.0
C2123 C 0.58165 0.87019 0.62305 0.0
C2124 C 0.57694 0.8692 0.63116 0.0
C2125 C 0.57618 0.87651 0.63717 0.0
C2126 C 0.57992 0.8849 0.63474 0.0
C2127 C 0.58461 0.88589 0.62667 0.0
C2128 C 0.60776 0.89614 0.60327 0.0
C2129 C 0.60863 0.90237 0.61037 0.0
C2130 C 0.61484 0.9095 0.60984 0.0
C2131 C 0.62029 0.91059 0.60217 0.0
C2132 C 0.61913 0.90459 0.59492 0.0
C2133 C 0.61297 0.89743 0.59547 0.0
C2134 C 0.59879 0.86587 0.59281 0.0
C2135 C 0.60473 0.86684 0.58549 0.0
C2136 C 0.41278 0.36383 0.93769 0.0
C2137 C 0.41588 0.35499 0.93621 0.0
C2138 C 0.42018 0.35294 0.92804 0.0
C2139 C 0.42129 0.35961 0.92144 0.0
H2140 H 0.43341 0.36529 0.89641 0.0
H2141 H 0.44169 0.36306 0.88236 0.0
H2142 H 0.43623 0.3907 0.87485 0.0
H2143 H 0.42787 0.39291 0.88869 0.0
H2144 H 0.41008 0.40166 0.89659 0.0
H2145 H 0.39936 0.41411 0.897 0.0
H2146 H 0.39265 0.40755 0.92447 0.0
H2147 H 0.40341 0.39508 0.92413 0.0
H2148 H 0.41121 0.37716 0.93246 0.0
H2149 H 0.40932 0.36559 0.94387 0.0
H2150 H 0.42268 0.34619 0.92674 0.0
H2151 H 0.42454 0.3578 0.91517 0.0
N2152 N 0.42393 0.37418 0.90839 0.0
N2153 N 0.41902 0.38806 0.90257 0.0
N2154 N 0.41346 0.38299 0.91639 0.0
C2155 C 0.42423 0.38054 0.9018 0.0
C2156 C 0.41362 0.38934 0.90983 0.0
C2157 C 0.41858 0.3754 0.91575 0.0
C2158 C 0.42986 0.37925 0.89365 0.0
C2159 C 0.43403 0.37091 0.89179 0.0
C2160 C 0.43881 0.36963 0.88375 0.0
C2161 C 0.43952 0.37667 0.87744 0.0
C2162 C 0.43564 0.38508 0.87948 0.0
C2163 C 0.43086 0.38635 0.88745 0.0
C2164 C 0.40758 0.39731 0.91031 0.0
C2165 C 0.40639 0.40289 0.90276 0.0
C2166 C 0.40021 0.41 0.90296 0.0
C2167 C 0.39513 0.41176 0.91075 0.0
C2168 C 0.39651 0.40638 0.9184 0.0
C2169 C 0.40264 0.39921 0.91817 0.0
C2170 C 0.418 0.36841 0.92287 0.0
C2171 C 0.41381 0.37045 0.9311 0.0
C2172 C 0.93318 0.13084 0.13738 0.0
C2173 C 0.93855 0.13855 0.13889 0.0
C2174 C 0.93895 0.14526 0.13223 0.0
C2175 C 0.93391 0.14437 0.1243 0.0
H2176 H 0.92411 0.15898 0.10234 0.0
H2177 H 0.92245 0.17134 0.09162 0.0
H2178 H 0.90711 0.1538 0.07404 0.0
H2179 H 0.90882 0.14144 0.08462 0.0
H2180 H 0.90054 0.12353 0.09225 0.0
H2181 H 0.8904 0.11059 0.09087 0.0
H2182 H 0.90033 0.10012 0.11608 0.0
H2183 H 0.91059 0.11292 0.1174 0.0
H2184 H 0.92409 0.1239 0.12861 0.0
H2185 H 0.93285 0.12548 0.14232 0.0
H2186 H 0.94299 0.1513 0.13323 0.0
H2187 H 0.93427 0.14972 0.11936 0.0
N2188 N 0.92249 0.14255 0.10844 0.0
N2189 N 0.91206 0.13417 0.0999 0.0
N2190 N 0.91763 0.12829 0.11339 0.0
C2191 C 0.91715 0.14176 0.10103 0.0
C2192 C 0.91225 0.1274 0.10604 0.0
C2193 C 0.92279 0.13581 0.11464 0.0
C2194 C 0.91658 0.1492 0.09438 0.0
C2195 C 0.92044 0.15773 0.09616 0.0
C2196 C 0.91945 0.16484 0.09004 0.0
C2197 C 0.91465 0.16355 0.08198 0.0
C2198 C 0.91095 0.15498 0.08013 0.0
C2199 C 0.91188 0.14791 0.08625 0.0
C2200 C 0.90638 0.11932 0.10496 0.0
C2201 C 0.90062 0.11845 0.09748 0.0
C2202 C 0.89476 0.11105 0.0967 0.0
C2203 C 0.89453 0.10434 0.10338 0.0
C2204 C 0.90041 0.10511 0.11076 0.0
C2205 C 0.90627 0.1125 0.11154 0.0
C2206 C 0.92841 0.13671 0.12286 0.0
C2207 C 0.92819 0.12993 0.12947 0.0
C2208 C 0.08046 0.10577 0.36364 0.0
C2209 C 0.08012 0.10031 0.3559 0.0
C2210 C 0.08644 0.09329 0.35497 0.0
C2211 C 0.09291 0.09173 0.36168 0.0
H2212 H 0.11885 0.08016 0.36658 0.0
H2213 H 0.13257 0.07122 0.36449 0.0
H2214 H 0.13868 0.07403 0.39275 0.0
H2215 H 0.12518 0.08304 0.39483 0.0
H2216 H 0.11851 0.10114 0.40424 0.0
H2217 H 0.11881 0.11191 0.41665 0.0
H2218 H 0.09296 0.1224 0.40826 0.0
H2219 H 0.09257 0.1116 0.39589 0.0
H2220 H 0.08687 0.10861 0.37615 0.0
H2221 H 0.07584 0.11137 0.3645 0.0
H2222 H 0.08633 0.08892 0.34912 0.0
H2223 H 0.09767 0.08625 0.36078 0.0
N2224 N 0.10686 0.0897 0.37552 0.0
N2225 N 0.11259 0.09365 0.38972 0.0
N2226 N 0.09954 0.10064 0.38433 0.0
C2227 C 0.11317 0.08861 0.38209 0.0
C2228 C 0.10579 0.09966 0.39091 0.0
C2229 C 0.09998 0.09569 0.37663 0.0
C2230 C 0.12095 0.08243 0.38085 0.0
C2231 C 0.12308 0.0788 0.37236 0.0
C2232 C 0.13093 0.07366 0.37116 0.0
C2233 C 0.13678 0.07203 0.37843 0.0
C2234 C 0.13443 0.07534 0.38697 0.0
C2235 C 0.12664 0.08048 0.38816 0.0
C2236 C 0.10556 0.10555 0.39899 0.0
C2237 C 0.11283 0.10566 0.40509 0.0
C2238 C 0.11303 0.11186 0.41219 0.0
C2239 C 0.10594 0.11805 0.41339 0.0
C2240 C 0.09849 0.11768 0.40755 0.0
C2241 C 0.0983 0.11151 0.40042 0.0
C2242 C 0.09317 0.09717 0.36945 0.0
C2243 C 0.08686 0.10421 0.37032 0.0
C2244 C 0.15767 0.93416 0.6112 0.0
C2245 C 0.16521 0.93435 0.60545 0.0
C2246 C 0.16557 0.92816 0.59827 0.0
C2247 C 0.15855 0.92193 0.59688 0.0
H2248 H 0.15272 0.89707 0.58474 0.0
H2249 H 0.15455 0.88384 0.57509 0.0
H2250 H 0.12683 0.87615 0.58015 0.0
H2251 H 0.12492 0.88938 0.58967 0.0
H2252 H 0.11488 0.89776 0.60639 0.0
H2253 H 0.10193 0.89839 0.61646 0.0
H2254 H 0.11171 0.92371 0.62733 0.0
H2255 H 0.12477 0.92301 0.61743 0.0
H2256 H 0.145 0.92804 0.61442 0.0
H2257 H 0.15724 0.93869 0.61691 0.0
H2258 H 0.17122 0.92818 0.59365 0.0
H2259 H 0.15904 0.91726 0.59128 0.0
N2260 N 0.1444 0.90823 0.59533 0.0
N2261 N 0.13004 0.90282 0.59937 0.0
N2262 N 0.13591 0.91579 0.60631 0.0
C2263 C 0.13765 0.90204 0.59431 0.0
C2264 C 0.1291 0.90968 0.60538 0.0
C2265 C 0.14357 0.91514 0.60132 0.0
C2266 C 0.13868 0.89429 0.58803 0.0
C2267 C 0.14698 0.89261 0.58374 0.0
C2268 C 0.14805 0.885 0.57824 0.0
C2269 C 0.14084 0.87894 0.57687 0.0
C2270 C 0.13249 0.88074 0.58098 0.0
C2271 C 0.13142 0.88831 0.5865 0.0
C2272 C 0.12093 0.91031 0.61112 0.0
C2273 C 0.11426 0.9035 0.61089 0.0
C2274 C 0.1068 0.90388 0.61663 0.0
C2275 C 0.1058 0.91108 0.62273 0.0
C2276 C 0.11235 0.91799 0.62282 0.0
C2277 C 0.11982 0.9176 0.6171 0.0
C2278 C 0.15101 0.92177 0.60264 0.0
C2279 C 0.15065 0.92799 0.60979 0.0
C2280 C 0.43972 0.90981 0.86305 0.0
C2281 C 0.43868 0.91403 0.85466 0.0
C2282 C 0.4314 0.91998 0.85341 0.0
C2283 C 0.4252 0.92153 0.86034 0.0
H2284 H 0.40117 0.93444 0.86601 0.0
H2285 H 0.38743 0.94309 0.86332 0.0
H2286 H 0.3779 0.93638 0.88994 0.0
H2287 H 0.39164 0.92789 0.89271 0.0
H2288 H 0.39915 0.9096 0.90119 0.0
H2289 H 0.39888 0.89823 0.91303 0.0
H2290 H 0.42692 0.89216 0.90792 0.0
H2291 H 0.42725 0.9035 0.89601 0.0
H2292 H 0.43449 0.90783 0.87627 0.0
H2293 H 0.4452 0.9051 0.8642 0.0
H2294 H 0.43047 0.92341 0.84706 0.0
H2295 H 0.4196 0.92606 0.8591 0.0
N2296 N 0.4121 0.92391 0.87467 0.0
N2297 N 0.40603 0.91931 0.88849 0.0
N2298 N 0.41963 0.91309 0.88338 0.0
C2299 C 0.40551 0.92454 0.88101 0.0
C2300 C 0.41307 0.91359 0.88975 0.0
C2301 C 0.41921 0.91822 0.87583 0.0
C2302 C 0.39751 0.93039 0.87956 0.0
C2303 C 0.3962 0.93488 0.87133 0.0
C2304 C 0.3883 0.93981 0.86977 0.0
C2305 C 0.38156 0.9404 0.8764 0.0
C2306 C 0.38301 0.93616 0.88472 0.0
C2307 C 0.39087 0.93122 0.88628 0.0
C2308 C 0.4132 0.90741 0.89758 0.0
C2309 C 0.4053 0.90594 0.90264 0.0
C2310 C 0.40512 0.89941 0.90941 0.0
C2311 C 0.41286 0.89429 0.91134 0.0
C2312 C 0.42088 0.89604 0.90659 0.0
C2313 C 0.42103 0.9025 0.89974 0.0
C2314 C 0.42612 0.91714 0.86867 0.0
C2315 C 0.43353 0.91134 0.86996 0.0
C2316 C 0.36207 0.07796 0.10229 0.0
C2317 C 0.35308 0.07999 0.10006 0.0
C2318 C 0.35105 0.0886 0.09663 0.0
C2319 C 0.35789 0.09507 0.09553 0.0
H2320 H 0.36451 0.11995 0.08303 0.0
H2321 H 0.36286 0.13391 0.07443 0.0
H2322 H 0.39088 0.14045 0.07953 0.0
H2323 H 0.39249 0.12673 0.08824 0.0
H2324 H 0.40111 0.11836 0.10604 0.0
H2325 H 0.41344 0.11743 0.11678 0.0
H2326 H 0.40622 0.08968 0.12248 0.0
H2327 H 0.39369 0.09068 0.11193 0.0
H2328 H 0.37569 0.08267 0.10321 0.0
H2329 H 0.36382 0.07142 0.10504 0.0
H2330 H 0.34417 0.09032 0.09483 0.0
H2331 H 0.35611 0.10169 0.09297 0.0
N2332 N 0.37303 0.10757 0.09228 0.0
N2333 N 0.3872 0.1129 0.09705 0.0
N2334 N 0.3817 0.09908 0.10241 0.0
C2335 C 0.37963 0.11399 0.09199 0.0
C2336 C 0.38829 0.10548 0.10228 0.0
C2337 C 0.37406 0.10006 0.09744 0.0
C2338 C 0.37861 0.12223 0.08641 0.0
C2339 C 0.37032 0.12436 0.0823 0.0
C2340 C 0.36938 0.13234 0.07733 0.0
C2341 C 0.37672 0.13835 0.07636 0.0
C2342 C 0.38504 0.13609 0.0803 0.0
C2343 C 0.38597 0.12817 0.08528 0.0
C2344 C 0.39633 0.10462 0.10817 0.0
C2345 C 0.40218 0.11202 0.10951 0.0
C2346 C 0.40931 0.11147 0.11565 0.0
C2347 C 0.41081 0.10349 0.12055 0.0
C2348 C 0.40516 0.09598 0.11895 0.0
C2349 C 0.39799 0.09655 0.11286 0.0
C2350 C 0.36685 0.0931 0.09797 0.0
C2351 C 0.36886 0.08444 0.1013 0.0
C2352 C 0.1349 0.93383 0.13054 0.0
C2353 C 0.13655 0.93855 0.13858 0.0
C2354 C 0.13 0.93825 0.14543 0.0
C2355 C 0.1221 0.9331 0.14434 0.0
H2356 H 0.09706 0.92613 0.1563 0.0
H2357 H 0.08599 0.92407 0.16831 0.0
H2358 H 0.07468 0.90117 0.15407 0.0
H2359 H 0.08545 0.90338 0.14204 0.0
H2360 H 0.09002 0.90131 0.12105 0.0
H2361 H 0.08938 0.89079 0.10839 0.0
H2362 H 0.11701 0.89738 0.10165 0.0
H2363 H 0.1177 0.90789 0.11427 0.0
H2364 H 0.12611 0.92512 0.12316 0.0
H2365 H 0.13973 0.93407 0.12507 0.0
H2366 H 0.13109 0.94179 0.15172 0.0
H2367 H 0.11727 0.93286 0.14981 0.0
N2368 N 0.10614 0.92166 0.14185 0.0
N2369 N 0.09823 0.91085 0.13333 0.0
N2370 N 0.11167 0.91706 0.12779 0.0
C2371 C 0.09896 0.91596 0.1409 0.0
C2372 C 0.10455 0.91136 0.12674 0.0
C2373 C 0.11252 0.92226 0.13528 0.0
C2374 C 0.09216 0.91494 0.14817 0.0
C2375 C 0.09217 0.92069 0.15572 0.0
C2376 C 0.08585 0.91948 0.16263 0.0
C2377 C 0.07941 0.91247 0.16216 0.0
C2378 C 0.0794 0.90676 0.1546 0.0
C2379 C 0.08565 0.908 0.14769 0.0
C2380 C 0.10393 0.90542 0.11873 0.0
C2381 C 0.09595 0.90057 0.11685 0.0
C2382 C 0.09555 0.89458 0.10957 0.0
C2383 C 0.10316 0.89325 0.10408 0.0
C2384 C 0.11107 0.89822 0.10584 0.0
C2385 C 0.11144 0.90427 0.11305 0.0
C2386 C 0.12058 0.92818 0.13636 0.0
C2387 C 0.12704 0.92873 0.12944 0.0
C2388 C 0.36363 0.9368 0.41013 0.0
C2389 C 0.35479 0.93526 0.41325 0.0
C2390 C 0.35305 0.92754 0.41848 0.0
C2391 C 0.35994 0.92133 0.42028 0.0
H2392 H 0.36709 0.89896 0.4361 0.0
H2393 H 0.36454 0.88554 0.44528 0.0
H2394 H 0.38915 0.87381 0.43494 0.0
H2395 H 0.39184 0.88723 0.426 0.0
H2396 H 0.40378 0.89757 0.41232 0.0
H2397 H 0.41657 0.89788 0.40203 0.0
H2398 H 0.40776 0.92372 0.39185 0.0
H2399 H 0.39487 0.92338 0.402 0.0
H2400 H 0.37717 0.93197 0.40925 0.0
H2401 H 0.36525 0.94278 0.40626 0.0
H2402 H 0.3463 0.92613 0.42094 0.0
H2403 H 0.35832 0.91533 0.42413 0.0
N2404 N 0.37465 0.90867 0.42365 0.0
N2405 N 0.38876 0.90285 0.41938 0.0
N2406 N 0.38359 0.91639 0.41313 0.0
C2407 C 0.3811 0.90217 0.42439 0.0
C2408 C 0.39007 0.90995 0.41375 0.0
C2409 C 0.37588 0.91583 0.41805 0.0
C2410 C 0.37966 0.8942 0.43027 0.0
C2411 C 0.37199 0.89354 0.43583 0.0
C2412 C 0.3705 0.88583 0.44107 0.0
C2413 C 0.37663 0.87858 0.44085 0.0
C2414 C 0.38436 0.87931 0.4354 0.0
C2415 C 0.38587 0.88701 0.43021 0.0
C2416 C 0.39823 0.91042 0.40796 0.0
C2417 C 0.40458 0.90336 0.40794 0.0
C2418 C 0.41196 0.90355 0.40206 0.0
C2419 C 0.41316 0.9108 0.39608 0.0
C2420 C 0.40694 0.91796 0.39627 0.0
C2421 C 0.39957 0.91778 0.40213 0.0
C2422 C 0.36871 0.92271 0.41686 0.0
C2423 C 0.37049 0.9306 0.41189 0.0
C2424 C 0.4407 0.10476 0.65368 0.0
C2425 C 0.43858 0.1019 0.66243 0.0
C2426 C 0.43041 0.09727 0.66392 0.0
C2427 C 0.42444 0.0956 0.65681 0.0
H2428 H 0.39964 0.08368 0.65042 0.0
H2429 H 0.38555 0.07527 0.65225 0.0
H2430 H 0.38136 0.07594 0.62351 0.0
H2431 H 0.39524 0.08457 0.62171 0.0
H2432 H 0.40194 0.10381 0.61306 0.0
H2433 H 0.40201 0.11492 0.60101 0.0
H2434 H 0.42858 0.1239 0.60914 0.0
H2435 H 0.42858 0.11277 0.62124 0.0
H2436 H 0.4365 0.1056 0.63996 0.0
H2437 H 0.44691 0.10842 0.65234 0.0
H2438 H 0.42864 0.09492 0.67059 0.0
H2439 H 0.41816 0.0921 0.65821 0.0
N2440 N 0.41272 0.09171 0.64156 0.0
N2441 N 0.40758 0.09573 0.62721 0.0
N2442 N 0.42083 0.10226 0.63294 0.0
C2443 C 0.40657 0.09079 0.63483 0.0
C2444 C 0.41468 0.10149 0.6262 0.0
C2445 C 0.41992 0.09738 0.64063 0.0
C2446 C 0.39852 0.0849 0.63593 0.0
C2447 C 0.39575 0.08196 0.64449 0.0
C2448 C 0.38769 0.0771 0.64553 0.0
C2449 C 0.38226 0.07501 0.63804 0.0
C2450 C 0.38525 0.07761 0.62945 0.0
C2451 C 0.39325 0.08254 0.62842 0.0
C2452 C 0.41522 0.10745 0.61821 0.0
C2453 C 0.40787 0.10805 0.61223 0.0
C2454 C 0.40788 0.11444 0.60534 0.0
C2455 C 0.41527 0.12031 0.60419 0.0
C2456 C 0.42282 0.11942 0.60984 0.0
C2457 C 0.42278 0.11308 0.61681 0.0
C2458 C 0.42647 0.09864 0.64808 0.0
C2459 C 0.4347 0.10319 0.64659 0.0
C2460 C 0.13228 0.13238 0.93759 0.0
C2461 C 0.14079 0.13453 0.94121 0.0
C2462 C 0.14811 0.12875 0.93948 0.0
C2463 C 0.14697 0.12105 0.93411 0.0
H2464 H 0.16006 0.09812 0.92476 0.0
H2465 H 0.17219 0.08724 0.92239 0.0
H2466 H 0.1549 0.07179 0.90467 0.0
H2467 H 0.14275 0.08253 0.90709 0.0
H2468 H 0.12447 0.09063 0.90049 0.0
H2469 H 0.11167 0.09048 0.8902 0.0
H2470 H 0.1015 0.1149 0.90247 0.0
H2471 H 0.11435 0.11517 0.91268 0.0
H2472 H 0.12452 0.12338 0.92938 0.0
H2473 H 0.12654 0.13676 0.93872 0.0
H2474 H 0.15473 0.1302 0.94225 0.0
H2475 H 0.15278 0.1168 0.93281 0.0
N2476 N 0.14403 0.10497 0.92315 0.0
N2477 N 0.13537 0.09727 0.91234 0.0
N2478 N 0.12973 0.1104 0.91909 0.0
C2479 C 0.14306 0.09795 0.9173 0.0
C2480 C 0.12867 0.10347 0.91319 0.0
C2481 C 0.13736 0.1112 0.92412 0.0
C2482 C 0.1504 0.09123 0.91611 0.0
C2483 C 0.15881 0.09239 0.92039 0.0
C2484 C 0.1658 0.08618 0.919 0.0
C2485 C 0.16451 0.07865 0.91335 0.0
C2486 C 0.15608 0.07745 0.90915 0.0
C2487 C 0.14912 0.08366 0.9105 0.0
C2488 C 0.12052 0.10296 0.90739 0.0
C2489 C 0.11949 0.09595 0.90105 0.0
C2490 C 0.11211 0.09582 0.89518 0.0
C2491 C 0.1056 0.10271 0.89549 0.0
C2492 C 0.10648 0.10958 0.90198 0.0
C2493 C 0.11384 0.10969 0.90786 0.0
C2494 C 0.1385 0.11902 0.93028 0.0
C2495 C 0.13115 0.12474 0.93217 0.0
C2496 C 0.86478 0.4379 0.91169 0.0
C2497 C 0.85623 0.4369 0.91568 0.0
C2498 C 0.85441 0.42906 0.92071 0.0
C2499 C 0.861 0.42234 0.92166 0.0
H2500 H 0.86656 0.39721 0.93377 0.0
H2501 H 0.86426 0.38318 0.94217 0.0
H2502 H 0.89114 0.3745 0.93495 0.0
H2503 H 0.89343 0.38832 0.92652 0.0
H2504 H 0.90255 0.39659 0.90958 0.0
H2505 H 0.91508 0.39693 0.89905 0.0
H2506 H 0.9088 0.42465 0.89243 0.0
H2507 H 0.89606 0.42424 0.90278 0.0
H2508 H 0.87778 0.43222 0.90933 0.0
H2509 H 0.86636 0.44378 0.90766 0.0
H2510 H 0.8479 0.42812 0.92392 0.0
H2511 H 0.85936 0.41634 0.92551 0.0
N2512 N 0.87517 0.40872 0.92346 0.0
N2513 N 0.88894 0.4027 0.91844 0.0
N2514 N 0.88396 0.4166 0.91289 0.0
C2515 C 0.88147 0.40203 0.92371 0.0
C2516 C 0.89025 0.40995 0.91302 0.0
C2517 C 0.87641 0.41606 0.91807 0.0
C2518 C 0.88014 0.39387 0.92936 0.0
C2519 C 0.872 0.39233 0.93402 0.0
C2520 C 0.87068 0.38432 0.93887 0.0
C2521 C 0.87747 0.37769 0.93912 0.0
C2522 C 0.8857 0.37938 0.93472 0.0
C2523 C 0.88702 0.38735 0.92991 0.0
C2524 C 0.89824 0.41037 0.90701 0.0
C2525 C 0.90385 0.40279 0.90593 0.0
C2526 C 0.91109 0.403 0.89991 0.0
C2527 C 0.91296 0.41082 0.89486 0.0
C2528 C 0.90747 0.41847 0.89609 0.0
C2529 C 0.90018 0.41824 0.90207 0.0
C2530 C 0.86951 0.4233 0.91754 0.0
C2531 C 0.87132 0.4312 0.9126 0.0
C2532 C 0.93819 0.60853 0.15423 0.0
C2533 C 0.93828 0.60272 0.1617 0.0
C2534 C 0.93217 0.5954 0.16189 0.0
C2535 C 0.92608 0.594 0.15481 0.0
H2536 H 0.90133 0.58129 0.14857 0.0
H2537 H 0.88715 0.57301 0.15081 0.0
H2538 H 0.87787 0.58176 0.12475 0.0
H2539 H 0.89188 0.59 0.12247 0.0
H2540 H 0.90102 0.60551 0.11264 0.0
H2541 H 0.90093 0.61676 0.10072 0.0
H2542 H 0.92709 0.62645 0.10938 0.0
H2543 H 0.92726 0.61517 0.12131 0.0
H2544 H 0.93228 0.61179 0.14158 0.0
H2545 H 0.94265 0.61435 0.15391 0.0
H2546 H 0.93212 0.59073 0.16748 0.0
H2547 H 0.92143 0.58833 0.15519 0.0
N2548 N 0.91222 0.59288 0.14086 0.0
N2549 N 0.90668 0.59749 0.12683 0.0
N2550 N 0.91999 0.60387 0.13249 0.0
C2551 C 0.90587 0.59222 0.13426 0.0
C2552 C 0.91372 0.6033 0.12586 0.0
C2553 C 0.91933 0.59869 0.13999 0.0
C2554 C 0.89773 0.58642 0.13539 0.0
C2555 C 0.89631 0.58138 0.14328 0.0
C2556 C 0.8882 0.57661 0.14456 0.0
C2557 C 0.88137 0.57685 0.138 0.0
C2558 C 0.88295 0.58159 0.12999 0.0
C2559 C 0.89102 0.58629 0.12868 0.0
C2560 C 0.91411 0.60948 0.11802 0.0
C2561 C 0.90682 0.60995 0.11197 0.0
C2562 C 0.90674 0.61642 0.10515 0.0
C2563 C 0.91397 0.62253 0.10417 0.0
C2564 C 0.92145 0.6218 0.10994 0.0
C2565 C 0.92151 0.61536 0.11681 0.0
C2566 C 0.92598 0.59985 0.14737 0.0
C2567 C 0.93218 0.60709 0.14715 0.0
C2568 C 0.6309 0.63259 0.43567 0.0
C2569 C 0.63926 0.63517 0.43937 0.0
C2570 C 0.64681 0.6296 0.43793 0.0
C2571 C 0.64608 0.6218 0.43263 0.0
H2572 H 0.65776 0.59572 0.42652 0.0
H2573 H 0.67047 0.58546 0.42404 0.0
H2574 H 0.65918 0.57765 0.39841 0.0
H2575 H 0.64649 0.5878 0.40085 0.0
H2576 H 0.62406 0.58984 0.39991 0.0
H2577 H 0.61114 0.5891 0.38971 0.0
H2578 H 0.60244 0.61539 0.39883 0.0
H2579 H 0.6153 0.6162 0.40901 0.0
H2580 H 0.62363 0.62317 0.42751 0.0
H2581 H 0.6249 0.63661 0.43681 0.0
H2582 H 0.65336 0.63143 0.44065 0.0
H2583 H 0.65207 0.61779 0.43145 0.0
N2584 N 0.644 0.60572 0.42134 0.0
N2585 N 0.63584 0.59799 0.41015 0.0
N2586 N 0.62954 0.61064 0.4172 0.0
C2587 C 0.64343 0.59886 0.41525 0.0
C2588 C 0.62886 0.60384 0.4111 0.0
C2589 C 0.63705 0.61164 0.42236 0.0
C2590 C 0.6511 0.59259 0.41389 0.0
C2591 C 0.65799 0.59182 0.42036 0.0
C2592 C 0.66524 0.58592 0.41897 0.0
C2593 C 0.66582 0.5808 0.41102 0.0
C2594 C 0.65895 0.58158 0.40456 0.0
C2595 C 0.65165 0.58736 0.406 0.0
C2596 C 0.62076 0.6031 0.40526 0.0
C2597 C 0.61937 0.59545 0.39979 0.0
C2598 C 0.61195 0.59499 0.39398 0.0
C2599 C 0.60582 0.6022 0.39345 0.0
C2600 C 0.60711 0.60977 0.39903 0.0
C2601 C 0.61447 0.6102 0.4049 0.0
C2602 C 0.63777 0.61942 0.42864 0.0
C2603 C 0.63017 0.62483 0.43036 0.0
C2604 C 0.93459 0.40498 0.35848 0.0
C2605 C 0.93518 0.41119 0.35139 0.0
C2606 C 0.93013 0.41921 0.35185 0.0
C2607 C 0.92449 0.42091 0.35922 0.0
H2608 H 0.89956 0.43324 0.36607 0.0
H2609 H 0.88572 0.4421 0.36483 0.0
H2610 H 0.88059 0.43817 0.39313 0.0
H2611 H 0.89428 0.42924 0.39439 0.0
H2612 H 0.90519 0.41462 0.40529 0.0
H2613 H 0.90528 0.40414 0.41788 0.0
H2614 H 0.92257 0.38611 0.40284 0.0
H2615 H 0.92275 0.39671 0.3904 0.0
H2616 H 0.92878 0.40175 0.37121 0.0
H2617 H 0.93849 0.39879 0.35836 0.0
H2618 H 0.93044 0.4241 0.34644 0.0
H2619 H 0.92064 0.42713 0.35935 0.0
N2620 N 0.91133 0.42273 0.37379 0.0
N2621 N 0.90673 0.41888 0.38839 0.0
N2622 N 0.91881 0.41125 0.38169 0.0
C2623 C 0.9057 0.42403 0.38091 0.0
C2624 C 0.91327 0.41249 0.38885 0.0
C2625 C 0.91794 0.41637 0.37416 0.0
C2626 C 0.89799 0.4304 0.3803 0.0
C2627 C 0.89555 0.43436 0.37206 0.0
C2628 C 0.88763 0.43947 0.37135 0.0
C2629 C 0.882 0.44072 0.37885 0.0
C2630 C 0.88469 0.43716 0.38718 0.0
C2631 C 0.89257 0.43206 0.3879 0.0
C2632 C 0.91391 0.40649 0.39679 0.0
C2633 C 0.90909 0.40846 0.4047 0.0
C2634 C 0.9091 0.40243 0.41192 0.0
C2635 C 0.91387 0.39423 0.41137 0.0
C2636 C 0.91892 0.3924 0.40357 0.0
C2637 C 0.91898 0.39847 0.39639 0.0
C2638 C 0.92391 0.41469 0.36633 0.0
C2639 C 0.92906 0.40672 0.36588 0.0
C2640 C 0.58055 0.60512 0.86268 0.0
C2641 C 0.58154 0.60067 0.85439 0.0
C2642 C 0.58838 0.59416 0.85345 0.0
C2643 C 0.59424 0.59231 0.8606 0.0
H2644 H 0.61868 0.57945 0.8671 0.0
H2645 H 0.63258 0.57071 0.86534 0.0
H2646 H 0.63852 0.57455 0.89352 0.0
H2647 H 0.62482 0.58333 0.89528 0.0
H2648 H 0.61609 0.59916 0.90563 0.0
H2649 H 0.61626 0.60985 0.91809 0.0
H2650 H 0.593 0.62337 0.90694 0.0
H2651 H 0.5927 0.61261 0.89454 0.0
H2652 H 0.5854 0.6069 0.87606 0.0
H2653 H 0.57523 0.61004 0.86368 0.0
H2654 H 0.58933 0.59065 0.84712 0.0
H2655 H 0.59954 0.58736 0.85961 0.0
N2656 N 0.60673 0.5894 0.87549 0.0
N2657 N 0.61181 0.59322 0.88996 0.0
N2658 N 0.59898 0.60023 0.88407 0.0
C2659 C 0.61276 0.58827 0.88231 0.0
C2660 C 0.60495 0.5992 0.89091 0.0
C2661 C 0.59977 0.59534 0.87636 0.0
C2662 C 0.62067 0.5822 0.8813 0.0
C2663 C 0.62291 0.57836 0.87294 0.0
C2664 C 0.63086 0.57333 0.87193 0.0
C2665 C 0.63671 0.57205 0.87927 0.0
C2666 C 0.63426 0.57558 0.88769 0.0
C2667 C 0.62636 0.58059 0.8887 0.0
C2668 C 0.60444 0.60507 0.89899 0.0
C2669 C 0.61093 0.60434 0.90587 0.0
C2670 C 0.61106 0.61049 0.913 0.0
C2671 C 0.60471 0.61751 0.91345 0.0
C2672 C 0.59796 0.618 0.90683 0.0
C2673 C 0.59782 0.61185 0.89968 0.0
C2674 C 0.59335 0.5969 0.86885 0.0
C2675 C 0.58637 0.60326 0.86981 0.0
C2676 C 0.88105 0.68289 0.88507 0.0
C2677 C 0.88885 0.6881 0.88664 0.0
C2678 C 0.89523 0.68905 0.8797 0.0
C2679 C 0.894 0.68458 0.87149 0.0
H2680 H 0.90862 0.67443 0.84984 0.0
H2681 H 0.92118 0.67254 0.83937 0.0
H2682 H 0.90336 0.65911 0.82059 0.0
H2683 H 0.89079 0.661 0.83098 0.0
H2684 H 0.87323 0.65135 0.83926 0.0
H2685 H 0.86065 0.64073 0.83821 0.0
H2686 H 0.84986 0.65107 0.86316 0.0
H2687 H 0.86229 0.6618 0.86415 0.0
H2688 H 0.87376 0.6744 0.87599 0.0
H2689 H 0.87596 0.68214 0.89025 0.0
H2690 H 0.90133 0.69299 0.88074 0.0
H2691 H 0.89915 0.68528 0.86636 0.0
N2692 N 0.89198 0.67361 0.85537 0.0
N2693 N 0.88359 0.66332 0.84667 0.0
N2694 N 0.87775 0.66868 0.86029 0.0
C2695 C 0.89117 0.66841 0.84786 0.0
C2696 C 0.87683 0.66343 0.85285 0.0
C2697 C 0.88526 0.67382 0.8616 0.0
C2698 C 0.89869 0.66783 0.84128 0.0
C2699 C 0.90735 0.67114 0.84345 0.0
C2700 C 0.91456 0.67002 0.83748 0.0
C2701 C 0.91326 0.66565 0.82918 0.0
C2702 C 0.90456 0.66257 0.82691 0.0
C2703 C 0.89736 0.66361 0.8329 0.0
C2704 C 0.86884 0.65742 0.85182 0.0
C2705 C 0.86814 0.65143 0.84449 0.0
C2706 C 0.86095 0.6453 0.8439 0.0
C2707 C 0.85428 0.64501 0.85063 0.0
C2708 C 0.85483 0.65117 0.85782 0.0
C2709 C 0.86201 0.6573 0.85841 0.0
C2710 C 0.88632 0.67913 0.87002 0.0
C2711 C 0.87979 0.67848 0.87686 0.0
C2712 C 0.13542 0.18635 0.63441 0.0
C2713 C 0.12713 0.19068 0.63281 0.0
C2714 C 0.12024 0.18994 0.63928 0.0
C2715 C 0.12154 0.18482 0.64707 0.0
H2716 H 0.10829 0.17507 0.67001 0.0
H2717 H 0.09586 0.17136 0.68026 0.0
H2718 H 0.11326 0.15287 0.69446 0.0
H2719 H 0.12557 0.15646 0.68434 0.0
H2720 H 0.1448 0.15262 0.67818 0.0
H2721 H 0.15704 0.1417 0.67843 0.0
H2722 H 0.1654 0.15033 0.65198 0.0
H2723 H 0.15325 0.16141 0.65176 0.0
H2724 H 0.14315 0.17789 0.64307 0.0
H2725 H 0.14083 0.18666 0.62952 0.0
H2726 H 0.11381 0.19327 0.63829 0.0
H2727 H 0.11604 0.1843 0.65185 0.0
N2728 N 0.12432 0.17336 0.6627 0.0
N2729 N 0.13314 0.16282 0.67047 0.0
N2730 N 0.13873 0.16946 0.65735 0.0
C2731 C 0.12536 0.16761 0.66974 0.0
C2732 C 0.13985 0.1637 0.66434 0.0
C2733 C 0.13101 0.17437 0.65649 0.0
C2734 C 0.11793 0.16601 0.67627 0.0
C2735 C 0.10948 0.17026 0.67536 0.0
C2736 C 0.10236 0.16815 0.68123 0.0
C2737 C 0.10356 0.16173 0.68807 0.0
C2738 C 0.11207 0.15771 0.68913 0.0
C2739 C 0.11916 0.15982 0.68333 0.0
C2740 C 0.14795 0.15783 0.6649 0.0
C2741 C 0.1493 0.15228 0.67244 0.0
C2742 C 0.1563 0.14598 0.67258 0.0
C2743 C 0.16212 0.14506 0.66518 0.0
C2744 C 0.16107 0.15091 0.65782 0.0
C2745 C 0.15406 0.15724 0.65768 0.0
C2746 C 0.12976 0.18031 0.64856 0.0
C2747 C 0.13672 0.18124 0.64218 0.0
C2748 C 0.6339 0.32773 0.38411 0.0
C2749 C 0.62532 0.32416 0.38609 0.0
C2750 C 0.61806 0.32616 0.38035 0.0
C2751 C 0.61934 0.33169 0.37283 0.0
H2752 H 0.60683 0.34113 0.34954 0.0
H2753 H 0.59507 0.3436 0.33829 0.0
H2754 H 0.61287 0.3617 0.32391 0.0
H2755 H 0.62463 0.35917 0.33498 0.0
H2756 H 0.64291 0.36506 0.34306 0.0
H2757 H 0.65583 0.37529 0.34316 0.0
H2758 H 0.66537 0.3631 0.36774 0.0
H2759 H 0.65238 0.35294 0.36776 0.0
H2760 H 0.64187 0.33601 0.37542 0.0
H2761 H 0.63962 0.32641 0.38847 0.0
H2762 H 0.61138 0.32344 0.38167 0.0
H2763 H 0.61358 0.33316 0.36858 0.0
N2764 N 0.62268 0.34274 0.35696 0.0
N2765 N 0.63167 0.35348 0.34954 0.0
N2766 N 0.63698 0.34658 0.36265 0.0
C2767 C 0.62387 0.34863 0.35004 0.0
C2768 C 0.63826 0.35251 0.35581 0.0
C2769 C 0.62924 0.34166 0.36328 0.0
C2770 C 0.6167 0.34994 0.34319 0.0
C2771 C 0.60825 0.34561 0.34396 0.0
C2772 C 0.60149 0.34706 0.33755 0.0
C2773 C 0.60305 0.35282 0.3302 0.0
C2774 C 0.6115 0.35711 0.32942 0.0
C2775 C 0.61823 0.35569 0.33582 0.0
C2776 C 0.64653 0.35821 0.35545 0.0
C2777 C 0.64779 0.36449 0.34846 0.0
C2778 C 0.65523 0.37033 0.34848 0.0
C2779 C 0.6616 0.37004 0.35548 0.0
C2780 C 0.66051 0.36357 0.36232 0.0
C2781 C 0.65307 0.35772 0.3623 0.0
C2782 C 0.6279 0.33541 0.37095 0.0
C2783 C 0.63517 0.3333 0.37666 0.0
C2784 C 0.38064 0.82875 0.13131 0.0
C2785 C 0.38901 0.82454 0.12985 0.0
C2786 C 0.39595 0.82581 0.1362 0.0
C2787 C 0.39458 0.8313 0.14375 0.0
H2788 H 0.40569 0.83908 0.16858 0.0
H2789 H 0.41696 0.84095 0.18043 0.0
H2790 H 0.40115 0.86254 0.19201 0.0
H2791 H 0.38983 0.86057 0.18038 0.0
H2792 H 0.3696 0.86346 0.17378 0.0
H2793 H 0.35683 0.87387 0.17356 0.0
H2794 H 0.35168 0.86697 0.14581 0.0
H2795 H 0.36442 0.85656 0.14598 0.0
H2796 H 0.37277 0.83749 0.1396 0.0
H2797 H 0.37519 0.82802 0.12649 0.0
H2798 H 0.40245 0.82259 0.13529 0.0
H2799 H 0.4001 0.83223 0.14845 0.0
N2800 N 0.39115 0.84271 0.15941 0.0
N2801 N 0.38237 0.85385 0.16647 0.0
N2802 N 0.37741 0.84727 0.15301 0.0
C2803 C 0.38992 0.84864 0.16631 0.0
C2804 C 0.37609 0.85322 0.15985 0.0
C2805 C 0.38489 0.84197 0.15275 0.0
C2806 C 0.39681 0.84964 0.17351 0.0
C2807 C 0.4046 0.8442 0.17367 0.0
C2808 C 0.41109 0.84531 0.18043 0.0
C2809 C 0.40994 0.85187 0.18719 0.0
C2810 C 0.40217 0.85731 0.18701 0.0
C2811 C 0.39569 0.8562 0.18028 0.0
C2812 C 0.36807 0.8592 0.15988 0.0
C2813 C 0.36573 0.86413 0.16764 0.0
C2814 C 0.35838 0.87005 0.16754 0.0
C2815 C 0.35329 0.87124 0.15966 0.0
C2816 C 0.35555 0.86624 0.15195 0.0
C2817 C 0.36282 0.86024 0.15207 0.0
C2818 C 0.38626 0.83569 0.14508 0.0
C2819 C 0.37928 0.83426 0.1388 0.0
C2820 C 0.88112 0.33236 0.62961 0.0
C2821 C 0.88843 0.32636 0.6291 0.0
C2822 C 0.8937 0.32485 0.6368 0.0
C2823 C 0.89188 0.32953 0.64479 0.0
H2824 H 0.90511 0.34007 0.6677 0.0
H2825 H 0.91702 0.34329 0.67866 0.0
H2826 H 0.89828 0.35926 0.69422 0.0
H2827 H 0.88645 0.35617 0.68333 0.0
H2828 H 0.86803 0.36181 0.67559 0.0
H2829 H 0.85532 0.37219 0.67596 0.0
H2830 H 0.84835 0.36462 0.64876 0.0
H2831 H 0.86092 0.35407 0.64844 0.0
H2832 H 0.87361 0.34162 0.63767 0.0
H2833 H 0.87689 0.33357 0.62379 0.0
H2834 H 0.8994 0.32027 0.63656 0.0
H2835 H 0.89617 0.32837 0.65057 0.0
N2836 N 0.88922 0.34155 0.66018 0.0
N2837 N 0.88002 0.35169 0.6681 0.0
N2838 N 0.87525 0.34602 0.6542 0.0
C2839 C 0.88778 0.34685 0.66753 0.0
C2840 C 0.87371 0.35132 0.66149 0.0
C2841 C 0.88294 0.34107 0.6535 0.0
C2842 C 0.89483 0.34795 0.67455 0.0
C2843 C 0.9035 0.3442 0.6735 0.0
C2844 C 0.91033 0.34602 0.67978 0.0
C2845 C 0.90861 0.35164 0.68722 0.0
C2846 C 0.89986 0.35507 0.68845 0.0
C2847 C 0.89306 0.35325 0.68221 0.0
C2848 C 0.86556 0.35713 0.66196 0.0
C2849 C 0.86376 0.36229 0.6697 0.0
C2850 C 0.85649 0.36829 0.66991 0.0
C2851 C 0.85086 0.3693 0.66237 0.0
C2852 C 0.85249 0.36394 0.65472 0.0
C2853 C 0.85975 0.35792 0.65452 0.0
C2854 C 0.88467 0.3357 0.64525 0.0
C2855 C 0.87923 0.33694 0.63759 0.0
C2856 C 0.381 0.18601 0.38541 0.0
C2857 C 0.38893 0.19108 0.38675 0.0
C2858 C 0.39564 0.19095 0.38005 0.0
C2859 C 0.39449 0.18574 0.37227 0.0
H2860 H 0.40865 0.17454 0.35078 0.0
H2861 H 0.4209 0.17237 0.34001 0.0
H2862 H 0.40261 0.15824 0.32221 0.0
H2863 H 0.39034 0.1604 0.33292 0.0
H2864 H 0.37267 0.15145 0.34178 0.0
H2865 H 0.36006 0.14077 0.34155 0.0
H2866 H 0.35046 0.1516 0.36676 0.0
H2867 H 0.36306 0.16219 0.3671 0.0
H2868 H 0.37368 0.1769 0.37696 0.0
H2869 H 0.37575 0.18583 0.39049 0.0
H2870 H 0.40179 0.19487 0.38083 0.0
H2871 H 0.39983 0.18573 0.36729 0.0
N2872 N 0.3921 0.17408 0.35667 0.0
N2873 N 0.38358 0.16327 0.34873 0.0
N2874 N 0.378 0.16938 0.36215 0.0
C2875 C 0.39116 0.16845 0.34948 0.0
C2876 C 0.37696 0.16369 0.35504 0.0
C2877 C 0.38551 0.17461 0.36301 0.0
C2878 C 0.39851 0.16761 0.34274 0.0
C2879 C 0.40721 0.17103 0.34454 0.0
C2880 C 0.41425 0.16975 0.3384 0.0
C2881 C 0.41271 0.16512 0.33028 0.0
C2882 C 0.40397 0.1619 0.32838 0.0
C2883 C 0.39696 0.16309 0.33455 0.0
C2884 C 0.36895 0.15765 0.35449 0.0
C2885 C 0.36784 0.15161 0.34725 0.0
C2886 C 0.36059 0.14551 0.34709 0.0
C2887 C 0.35431 0.1453 0.35417 0.0
C2888 C 0.35527 0.1515 0.36128 0.0
C2889 C 0.36249 0.15761 0.36143 0.0
C2890 C 0.38661 0.18053 0.37102 0.0
C2891 C 0.37984 0.18082 0.37765 0.0
C2892 C 0.63342 0.68672 0.13483 0.0
C2893 C 0.62486 0.69033 0.13296 0.0
C2894 C 0.6178 0.68891 0.13912 0.0
C2895 C 0.61922 0.68381 0.1469 0.0
H2896 H 0.60592 0.67259 0.16924 0.0
H2897 H 0.59395 0.66889 0.17999 0.0
H2898 H 0.61349 0.65541 0.19683 0.0
H2899 H 0.62533 0.65891 0.18612 0.0
H2900 H 0.64103 0.64912 0.17564 0.0
H2901 H 0.65321 0.63815 0.17518 0.0
H2902 H 0.66526 0.65225 0.1528 0.0
H2903 H 0.65301 0.66332 0.15318 0.0
H2904 H 0.64149 0.67877 0.1437 0.0
H2905 H 0.63897 0.6876 0.13017 0.0
H2906 H 0.61114 0.69168 0.13789 0.0
H2907 H 0.61359 0.68273 0.15143 0.0
N2908 N 0.62258 0.67308 0.16291 0.0
N2909 N 0.63145 0.66238 0.17042 0.0
N2910 N 0.63678 0.66896 0.15715 0.0
C2911 C 0.62375 0.66732 0.16993 0.0
C2912 C 0.63799 0.66313 0.16409 0.0
C2913 C 0.62912 0.67398 0.15652 0.0
C2914 C 0.61657 0.66595 0.17675 0.0
C2915 C 0.60766 0.6689 0.17528 0.0
C2916 C 0.60081 0.6668 0.18144 0.0
C2917 C 0.60274 0.66172 0.18918 0.0
C2918 C 0.61172 0.65912 0.19081 0.0
C2919 C 0.61853 0.66118 0.18467 0.0
C2920 C 0.64596 0.65707 0.16438 0.0
C2921 C 0.6463 0.64999 0.17066 0.0
C2922 C 0.65327 0.64366 0.1704 0.0
C2923 C 0.66012 0.64432 0.16391 0.0
C2924 C 0.66006 0.65162 0.15789 0.0
C2925 C 0.65302 0.65792 0.15809 0.0
C2926 C 0.62773 0.67997 0.14865 0.0
C2927 C 0.63484 0.68159 0.14257 0.0
C2928 C 0.13421 0.8299 0.88541 0.0
C2929 C 0.12591 0.82583 0.8876 0.0
C2930 C 0.1187 0.82648 0.88148 0.0
C2931 C 0.11972 0.83128 0.87344 0.0
H2932 H 0.10533 0.84198 0.85144 0.0
H2933 H 0.09306 0.84409 0.84062 0.0
H2934 H 0.11216 0.85458 0.8213 0.0
H2935 H 0.12439 0.8525 0.83203 0.0
H2936 H 0.14263 0.86111 0.83959 0.0
H2937 H 0.15491 0.87204 0.83844 0.0
H2938 H 0.16285 0.86611 0.86575 0.0
H2939 H 0.15075 0.855 0.86683 0.0
H2940 H 0.14173 0.8378 0.876 0.0
H2941 H 0.13996 0.82939 0.88989 0.0
H2942 H 0.11218 0.82349 0.88301 0.0
H2943 H 0.11398 0.83177 0.86895 0.0
N2944 N 0.1223 0.84131 0.85681 0.0
N2945 N 0.13091 0.8514 0.84814 0.0
N2946 N 0.13661 0.84604 0.86179 0.0
C2947 C 0.12323 0.84646 0.8493 0.0
C2948 C 0.13762 0.85125 0.85436 0.0
C2949 C 0.12901 0.84101 0.86306 0.0
C2950 C 0.11584 0.8471 0.84262 0.0
C2951 C 0.10693 0.84465 0.84485 0.0
C2952 C 0.09989 0.8459 0.83869 0.0
C2953 C 0.10167 0.84949 0.83013 0.0
C2954 C 0.1106 0.85171 0.82782 0.0
C2955 C 0.1176 0.85057 0.834 0.0
C2956 C 0.14563 0.85722 0.85334 0.0
C2957 C 0.14705 0.86205 0.84533 0.0
C2958 C 0.15407 0.86836 0.84468 0.0
C2959 C 0.15981 0.87003 0.85203 0.0
C2960 C 0.15862 0.86494 0.85992 0.0
C2961 C 0.15163 0.85859 0.86055 0.0
C2962 C 0.12798 0.83553 0.87135 0.0
C2963 C 0.13523 0.8347 0.8774 0.0
C2964 C 0.88512 0.88062 0.68458 0.0
C2965 C 0.88719 0.88876 0.68902 0.0
C2966 C 0.881 0.89594 0.68857 0.0
C2967 C 0.87305 0.89508 0.68353 0.0
H2968 H 0.85164 0.90994 0.67295 0.0
H2969 H 0.84113 0.92249 0.67099 0.0
H2970 H 0.82279 0.90485 0.65667 0.0
H2971 H 0.8332 0.89231 0.65862 0.0
H2972 H 0.84368 0.8762 0.64737 0.0
H2973 H 0.84308 0.8636 0.63679 0.0
H2974 H 0.8632 0.84946 0.65231 0.0
H2975 H 0.86383 0.86202 0.66294 0.0
H2976 H 0.87592 0.87342 0.67612 0.0
H2977 H 0.88967 0.87491 0.68493 0.0
H2978 H 0.88243 0.90231 0.69188 0.0
H2979 H 0.86853 0.90081 0.68315 0.0
N2980 N 0.857 0.89314 0.67238 0.0
N2981 N 0.84874 0.88502 0.66156 0.0
N2982 N 0.86185 0.87878 0.66776 0.0
C2983 C 0.84979 0.89254 0.66672 0.0
C2984 C 0.85473 0.87811 0.66204 0.0
C2985 C 0.86304 0.88626 0.67296 0.0
C2986 C 0.84329 0.90011 0.66592 0.0
C2987 C 0.84534 0.90872 0.66943 0.0
C2988 C 0.83935 0.91592 0.66827 0.0
C2989 C 0.83115 0.91465 0.66368 0.0
C2990 C 0.82902 0.90601 0.66032 0.0
C2991 C 0.83503 0.89884 0.66139 0.0
C2992 C 0.85384 0.87016 0.65599 0.0
C2993 C 0.84792 0.87038 0.6486 0.0
C2994 C 0.8476 0.86319 0.6425 0.0
C2995 C 0.85313 0.85558 0.64371 0.0
C2996 C 0.85882 0.85521 0.65125 0.0
C2997 C 0.85921 0.86244 0.65731 0.0
C2998 C 0.87112 0.88702 0.67884 0.0
C2999 C 0.8772 0.87976 0.67955 0.0
C3000 C 0.8312 0.13097 0.37853 0.0
C3001 C 0.82603 0.12943 0.38631 0.0
C3002 C 0.82605 0.13602 0.39314 0.0
C3003 C 0.83126 0.14389 0.39228 0.0
H3004 H 0.84255 0.16491 0.40729 0.0
H3005 H 0.84473 0.17532 0.41988 0.0
H3006 H 0.85871 0.19394 0.40236 0.0
H3007 H 0.85654 0.1836 0.38977 0.0
H3008 H 0.86575 0.17525 0.37223 0.0
H3009 H 0.8764 0.17615 0.35978 0.0
H3010 H 0.86563 0.15125 0.34888 0.0
H3011 H 0.85487 0.1504 0.3612 0.0
H3012 H 0.84039 0.13967 0.37163 0.0
H3013 H 0.83145 0.12598 0.3732 0.0
H3014 H 0.82206 0.1351 0.39917 0.0
H3015 H 0.83119 0.14877 0.39771 0.0
N3016 N 0.84298 0.15959 0.39058 0.0
N3017 N 0.85377 0.16792 0.38249 0.0
N3018 N 0.84773 0.1546 0.37638 0.0
C3019 C 0.84859 0.16687 0.38996 0.0
C3020 C 0.85339 0.16182 0.37567 0.0
C3021 C 0.84248 0.15344 0.38379 0.0
C3022 C 0.8494 0.17339 0.39751 0.0
C3023 C 0.84602 0.17125 0.40609 0.0
C3024 C 0.84731 0.17718 0.41332 0.0
C3025 C 0.8519 0.18542 0.4121 0.0
C3026 C 0.85507 0.18767 0.40348 0.0
C3027 C 0.85388 0.1817 0.39629 0.0
C3028 C 0.85946 0.16272 0.36778 0.0
C3029 C 0.86558 0.16999 0.36715 0.0
C3030 C 0.87173 0.1705 0.36003 0.0
C3031 C 0.8719 0.16375 0.35337 0.0
C3032 C 0.86562 0.15662 0.35385 0.0
C3033 C 0.85947 0.15611 0.36096 0.0
C3034 C 0.83657 0.14534 0.38456 0.0
C3035 C 0.83639 0.13882 0.37767 0.0
C3036 C 0.6287 0.13222 0.18168 0.0
C3037 C 0.6281 0.12522 0.18802 0.0
C3038 C 0.63582 0.12006 0.18991 0.0
C3039 C 0.64393 0.1217 0.18533 0.0
H3040 H 0.66631 0.1077 0.1742 0.0
H3041 H 0.67777 0.09598 0.17241 0.0
H3042 H 0.69578 0.11545 0.16023 0.0
H3043 H 0.68439 0.12717 0.16201 0.0
H3044 H 0.67544 0.14468 0.15288 0.0
H3045 H 0.67573 0.1572 0.1422 0.0
H3046 H 0.64842 0.16418 0.14962 0.0
H3047 H 0.64804 0.1517 0.16022 0.0
H3048 H 0.63695 0.13931 0.17228 0.0
H3049 H 0.62287 0.13636 0.18017 0.0
H3050 H 0.63551 0.11461 0.19475 0.0
H3051 H 0.64973 0.11751 0.18682 0.0
N3052 N 0.65969 0.12401 0.17369 0.0
N3053 N 0.66793 0.13293 0.16351 0.0
N3054 N 0.65371 0.13769 0.16848 0.0
C3055 C 0.66724 0.12535 0.16863 0.0
C3056 C 0.66119 0.13914 0.1634 0.0
C3057 C 0.65291 0.1302 0.17368 0.0
C3058 C 0.67441 0.11838 0.16821 0.0
C3059 C 0.67274 0.10951 0.17123 0.0
C3060 C 0.67928 0.10278 0.17015 0.0
C3061 C 0.68765 0.1048 0.16616 0.0
C3062 C 0.68941 0.11371 0.1634 0.0
C3063 C 0.68286 0.12041 0.16438 0.0
C3064 C 0.66169 0.14712 0.15738 0.0
C3065 C 0.66951 0.14891 0.15228 0.0
C3066 C 0.6697 0.15611 0.14619 0.0
C3067 C 0.66207 0.16162 0.14503 0.0
C3068 C 0.65436 0.15997 0.15028 0.0
C3069 C 0.65417 0.15283 0.1564 0.0
C3070 C 0.64449 0.12861 0.17886 0.0
C3071 C 0.6368 0.13392 0.17719 0.0
C3072 C 0.68409 0.88132 0.88255 0.0
C3073 C 0.68796 0.88364 0.89088 0.0
C3074 C 0.68708 0.87758 0.8981 0.0
C3075 C 0.6822 0.86952 0.89708 0.0
H3076 H 0.67609 0.84474 0.90948 0.0
H3077 H 0.67413 0.83411 0.92186 0.0
H3078 H 0.65206 0.82133 0.90759 0.0
H3079 H 0.65416 0.83169 0.89518 0.0
H3080 H 0.65241 0.83564 0.87394 0.0
H3081 H 0.64165 0.83441 0.86163 0.0
H3082 H 0.64647 0.86243 0.85486 0.0
H3083 H 0.65747 0.86356 0.86696 0.0
H3084 H 0.67623 0.87182 0.87504 0.0
H3085 H 0.6848 0.88575 0.8768 0.0
H3086 H 0.68991 0.8792 0.90462 0.0
H3087 H 0.68148 0.86511 0.90284 0.0
N3088 N 0.67179 0.85296 0.89459 0.0
N3089 N 0.66125 0.84457 0.88623 0.0
N3090 N 0.66725 0.85797 0.88034 0.0
C3091 C 0.66626 0.84564 0.89382 0.0
C3092 C 0.6617 0.85069 0.87946 0.0
C3093 C 0.67235 0.85915 0.88785 0.0
C3094 C 0.6653 0.83908 0.9013 0.0
C3095 C 0.67085 0.83963 0.90897 0.0
C3096 C 0.66969 0.83356 0.91609 0.0
C3097 C 0.66294 0.82684 0.91573 0.0
C3098 C 0.65743 0.8263 0.90805 0.0
C3099 C 0.65862 0.8323 0.90092 0.0
C3100 C 0.65575 0.84972 0.8715 0.0
C3101 C 0.65125 0.84152 0.86977 0.0
C3102 C 0.64503 0.84082 0.86273 0.0
C3103 C 0.6431 0.84834 0.8573 0.0
C3104 C 0.64785 0.85646 0.85883 0.0
C3105 C 0.65414 0.85713 0.86582 0.0
C3106 C 0.67808 0.86735 0.88882 0.0
C3107 C 0.67921 0.8733 0.88154 0.0
C3108 C 0.82874 0.11106 0.86102 0.0
C3109 C 0.82965 0.10232 0.85743 0.0
C3110 C 0.83686 0.10055 0.85153 0.0
C3111 C 0.84319 0.10732 0.84951 0.0
H3112 H 0.86702 0.11275 0.83523 0.0
H3113 H 0.88077 0.10969 0.82665 0.0
H3114 H 0.89117 0.13606 0.8338 0.0
H3115 H 0.8776 0.13911 0.84241 0.0
H3116 H 0.86884 0.15016 0.85767 0.0
H3117 H 0.86904 0.16292 0.86806 0.0
H3118 H 0.84217 0.15591 0.87705 0.0
H3119 H 0.84188 0.1432 0.86662 0.0
H3120 H 0.83411 0.12441 0.86202 0.0
H3121 H 0.82315 0.1127 0.86543 0.0
H3122 H 0.83775 0.09387 0.84868 0.0
H3123 H 0.84879 0.10568 0.84511 0.0
N3124 N 0.85656 0.12153 0.84628 0.0
N3125 N 0.86265 0.13571 0.85012 0.0
N3126 N 0.84902 0.13094 0.85653 0.0
C3127 C 0.86318 0.12788 0.84534 0.0
C3128 C 0.85558 0.13731 0.8557 0.0
C3129 C 0.84942 0.12304 0.85186 0.0
C3130 C 0.87121 0.12614 0.8396 0.0
C3131 C 0.87222 0.11792 0.83494 0.0
C3132 C 0.88007 0.11617 0.82998 0.0
C3133 C 0.88709 0.1226 0.82963 0.0
C3134 C 0.88596 0.13091 0.83408 0.0
C3135 C 0.87813 0.13266 0.83899 0.0
C3136 C 0.85538 0.14558 0.86136 0.0
C3137 C 0.86292 0.15138 0.86178 0.0
C3138 C 0.86306 0.15868 0.86776 0.0
C3139 C 0.85565 0.16037 0.87342 0.0
C3140 C 0.84796 0.15481 0.87274 0.0
C3141 C 0.84783 0.14748 0.86679 0.0
C3142 C 0.84242 0.116 0.85334 0.0
C3143 C 0.83502 0.1178 0.859 0.0
C3144 C 0.66153 0.18914 0.61338 0.0
C3145 C 0.6647 0.18736 0.60467 0.0
C3146 C 0.67037 0.17988 0.60326 0.0
C3147 C 0.67251 0.17408 0.61039 0.0
H3148 H 0.68482 0.14937 0.6168 0.0
H3149 H 0.69229 0.13481 0.61464 0.0
H3150 H 0.68853 0.12871 0.64277 0.0
H3151 H 0.68099 0.14311 0.64494 0.0
H3152 H 0.66384 0.15171 0.65448 0.0
H3153 H 0.65262 0.15221 0.66643 0.0
H3154 H 0.64464 0.17893 0.65792 0.0
H3155 H 0.6557 0.17838 0.64584 0.0
H3156 H 0.66094 0.18495 0.62706 0.0
H3157 H 0.65731 0.19496 0.61472 0.0
H3158 H 0.67291 0.17836 0.5966 0.0
H3159 H 0.67667 0.16823 0.60905 0.0
N3160 N 0.67589 0.16185 0.62548 0.0
N3161 N 0.67193 0.15687 0.63995 0.0
N3162 N 0.66579 0.17024 0.6343 0.0
C3163 C 0.67671 0.15569 0.63223 0.0
C3164 C 0.66646 0.16414 0.64104 0.0
C3165 C 0.67047 0.16919 0.62651 0.0
C3166 C 0.68217 0.14737 0.63102 0.0
C3167 C 0.68568 0.14497 0.62255 0.0
C3168 C 0.68999 0.13665 0.62131 0.0
C3169 C 0.69088 0.13057 0.62851 0.0
C3170 C 0.68778 0.13317 0.63705 0.0
C3171 C 0.68347 0.14145 0.63829 0.0
C3172 C 0.66059 0.16494 0.64909 0.0
C3173 C 0.65979 0.15775 0.65522 0.0
C3174 C 0.65338 0.15805 0.66212 0.0
C3175 C 0.64766 0.16557 0.66306 0.0
C3176 C 0.64882 0.17296 0.65726 0.0
C3177 C 0.6552 0.17265 0.65035 0.0
C3178 C 0.66903 0.17569 0.61905 0.0
C3179 C 0.66366 0.18339 0.62048 0.0
C3180 C 0.63105 0.87921 0.32911 0.0
C3181 C 0.62892 0.88768 0.32543 0.0
C3182 C 0.6346 0.89509 0.32728 0.0
C3183 C 0.6422 0.89407 0.33278 0.0
H3184 H 0.66423 0.90783 0.34329 0.0
H3185 H 0.67504 0.92011 0.34561 0.0
H3186 H 0.69215 0.9022 0.36086 0.0
H3187 H 0.68142 0.88989 0.35852 0.0
H3188 H 0.67238 0.87215 0.3667 0.0
H3189 H 0.67259 0.85928 0.37688 0.0
H3190 H 0.64884 0.84834 0.36386 0.0
H3191 H 0.6485 0.86126 0.35378 0.0
H3192 H 0.63994 0.87159 0.33746 0.0
H3193 H 0.62674 0.87339 0.3279 0.0
H3194 H 0.63317 0.90168 0.32447 0.0
H3195 H 0.64639 0.89993 0.33413 0.0
N3196 N 0.65822 0.89132 0.34377 0.0
N3197 N 0.66599 0.88275 0.35452 0.0
N3198 N 0.65287 0.87695 0.3478 0.0
C3199 C 0.66526 0.89043 0.34958 0.0
C3200 C 0.65982 0.87597 0.35368 0.0
C3201 C 0.65202 0.88458 0.34281 0.0
C3202 C 0.67193 0.89786 0.35073 0.0
C3203 C 0.67032 0.90648 0.3471 0.0
C3204 C 0.67648 0.91354 0.34847 0.0
C3205 C 0.68444 0.91212 0.35342 0.0
C3206 C 0.68612 0.90348 0.35693 0.0
C3207 C 0.67993 0.89644 0.35564 0.0
C3208 C 0.66037 0.86781 0.35944 0.0
C3209 C 0.66722 0.86698 0.36595 0.0
C3210 C 0.66738 0.85957 0.37177 0.0
C3211 C 0.66069 0.85282 0.37122 0.0
C3212 C 0.654 0.85351 0.36456 0.0
C3213 C 0.65384 0.86091 0.35874 0.0
C3214 C 0.64423 0.88562 0.33661 0.0
C3215 C 0.63859 0.8782 0.33466 0.0
C3216 C 0.85505 0.83002 0.10777 0.0
C3217 C 0.85209 0.83241 0.09913 0.0
C3218 C 0.8478 0.84078 0.0979 0.0
C3219 C 0.84654 0.84667 0.10517 0.0
H3220 H 0.83131 0.8688 0.114 0.0
H3221 H 0.82191 0.88227 0.11293 0.0
H3222 H 0.83116 0.89089 0.13914 0.0
H3223 H 0.84037 0.8774 0.14032 0.0
H3224 H 0.85206 0.86403 0.15223 0.0
H3225 H 0.86231 0.86288 0.16498 0.0
H3226 H 0.87833 0.84337 0.15038 0.0
H3227 H 0.86793 0.84427 0.13779 0.0
H3228 H 0.85636 0.8339 0.12155 0.0
H3229 H 0.85846 0.82365 0.10891 0.0
H3230 H 0.8454 0.84276 0.09132 0.0
H3231 H 0.84328 0.8531 0.10398 0.0
N3232 N 0.8432 0.85799 0.12091 0.0
N3233 N 0.84764 0.86258 0.13536 0.0
N3234 N 0.85384 0.84952 0.12897 0.0
C3235 C 0.84256 0.86393 0.12788 0.0
C3236 C 0.85331 0.8554 0.13596 0.0
C3237 C 0.8488 0.85074 0.12143 0.0
C3238 C 0.83662 0.87198 0.12725 0.0
C3239 C 0.83131 0.87354 0.11956 0.0
C3240 C 0.82595 0.88129 0.11892 0.0
C3241 C 0.82577 0.88766 0.12595 0.0
C3242 C 0.83102 0.88606 0.13366 0.0
C3243 C 0.83636 0.87832 0.13431 0.0
C3244 C 0.85919 0.85428 0.14395 0.0
C3245 C 0.85773 0.85944 0.15176 0.0
C3246 C 0.86364 0.85881 0.15907 0.0
C3247 C 0.8712 0.85308 0.15871 0.0
C3248 C 0.87252 0.84776 0.15097 0.0
C3249 C 0.86657 0.84832 0.1437 0.0
C3250 C 0.84967 0.84435 0.11379 0.0
C3251 C 0.85389 0.83593 0.11501 0.0
C3252 C 0.16405 0.68888 0.11237 0.0
C3253 C 0.16631 0.68663 0.10348 0.0
C3254 C 0.17018 0.67814 0.1017 0.0
C3255 C 0.17162 0.67198 0.10867 0.0
H3256 H 0.1858 0.64846 0.11574 0.0
H3257 H 0.19319 0.63393 0.11316 0.0
H3258 H 0.18391 0.62458 0.13905 0.0
H3259 H 0.1765 0.63897 0.14165 0.0
H3260 H 0.16244 0.64942 0.15224 0.0
H3261 H 0.15152 0.64997 0.16445 0.0
H3262 H 0.14347 0.67674 0.15625 0.0
H3263 H 0.15444 0.67628 0.14401 0.0
H3264 H 0.16339 0.68459 0.12606 0.0
H3265 H 0.16098 0.69533 0.11393 0.0
H3266 H 0.17205 0.67627 0.09491 0.0
H3267 H 0.17448 0.66544 0.10706 0.0
N3268 N 0.17497 0.65979 0.1237 0.0
N3269 N 0.17035 0.65452 0.13782 0.0
N3270 N 0.16501 0.66839 0.13251 0.0
C3271 C 0.17529 0.65337 0.13022 0.0
C3272 C 0.16521 0.662 0.13905 0.0
C3273 C 0.16987 0.66735 0.12483 0.0
C3274 C 0.18045 0.64488 0.12886 0.0
C3275 C 0.18539 0.64334 0.12092 0.0
C3276 C 0.18967 0.63503 0.11945 0.0
C3277 C 0.18904 0.6281 0.12587 0.0
C3278 C 0.18438 0.62975 0.13392 0.0
C3279 C 0.18016 0.63803 0.13541 0.0
C3280 C 0.15927 0.66277 0.14705 0.0
C3281 C 0.15843 0.65548 0.15307 0.0
C3282 C 0.15214 0.65577 0.16006 0.0
C3283 C 0.14659 0.66335 0.16124 0.0
C3284 C 0.1477 0.67082 0.15552 0.0
C3285 C 0.15396 0.67052 0.14847 0.0
C3286 C 0.1691 0.67413 0.11754 0.0
C3287 C 0.16538 0.68269 0.11931 0.0
C3288 C 0.1312 0.37847 0.82873 0.0
C3289 C 0.12899 0.38704 0.82533 0.0
C3290 C 0.13491 0.39432 0.82695 0.0
C3291 C 0.14267 0.39313 0.8322 0.0
H3292 H 0.16716 0.40535 0.8408 0.0
H3293 H 0.17779 0.4176 0.84421 0.0
H3294 H 0.18886 0.40186 0.86598 0.0
H3295 H 0.17831 0.38972 0.86269 0.0
H3296 H 0.1723 0.37001 0.86592 0.0
H3297 H 0.17212 0.35701 0.87594 0.0
H3298 H 0.14755 0.34741 0.86342 0.0
H3299 H 0.14762 0.36044 0.85345 0.0
H3300 H 0.14028 0.3706 0.8366 0.0
H3301 H 0.12688 0.37268 0.82743 0.0
H3302 H 0.13336 0.40102 0.82446 0.0
H3303 H 0.14695 0.39893 0.83356 0.0
N3304 N 0.15849 0.39016 0.84359 0.0
N3305 N 0.16574 0.38135 0.85452 0.0
N3306 N 0.15297 0.37571 0.84711 0.0
C3307 C 0.16525 0.38914 0.84971 0.0
C3308 C 0.15964 0.37459 0.85326 0.0
C3309 C 0.15234 0.38343 0.84223 0.0
C3310 C 0.17183 0.39654 0.85149 0.0
C3311 C 0.17186 0.4045 0.84631 0.0
C3312 C 0.17797 0.41151 0.84823 0.0
C3313 C 0.1841 0.41072 0.85541 0.0
C3314 C 0.18412 0.40274 0.8605 0.0
C3315 C 0.17809 0.39574 0.85856 0.0
C3316 C 0.15994 0.36634 0.8589 0.0
C3317 C 0.16688 0.36511 0.86524 0.0
C3318 C 0.16682 0.35763 0.87097 0.0
C3319 C 0.1598 0.35122 0.87051 0.0
C3320 C 0.15298 0.35231 0.86402 0.0
C3321 C 0.15306 0.35977 0.85827 0.0
C3322 C 0.14466 0.38463 0.83593 0.0
C3323 C 0.13892 0.37728 0.83396 0.0
C3324 C 0.35973 0.332 0.60826 0.0
C3325 C 0.35364 0.33149 0.60104 0.0
C3326 C 0.34579 0.33681 0.60124 0.0
C3327 C 0.34417 0.34269 0.60846 0.0
H3328 H 0.33037 0.36661 0.61531 0.0
H3329 H 0.32143 0.38034 0.6133 0.0
H3330 H 0.33073 0.39027 0.63901 0.0
H3331 H 0.33966 0.37669 0.64104 0.0
H3332 H 0.35325 0.36605 0.6524 0.0
H3333 H 0.36364 0.36564 0.66509 0.0
H3334 H 0.37633 0.34185 0.65399 0.0
H3335 H 0.36587 0.34212 0.64137 0.0
H3336 H 0.36296 0.33802 0.62091 0.0
H3337 H 0.36578 0.3279 0.60833 0.0
H3338 H 0.341 0.33655 0.59574 0.0
H3339 H 0.33812 0.34679 0.60838 0.0
N3340 N 0.34284 0.35653 0.62249 0.0
N3341 N 0.34693 0.36169 0.63686 0.0
N3342 N 0.35384 0.34882 0.63085 0.0
C3343 C 0.34186 0.36261 0.6293 0.0
C3344 C 0.3529 0.3548 0.63772 0.0
C3345 C 0.34883 0.3496 0.62324 0.0
C3346 C 0.33582 0.37055 0.6283 0.0
C3347 C 0.33046 0.37169 0.62057 0.0
C3348 C 0.3253 0.37953 0.61943 0.0
C3349 C 0.32545 0.38641 0.62596 0.0
C3350 C 0.33059 0.38515 0.63379 0.0
C3351 C 0.33568 0.37732 0.63497 0.0
C3352 C 0.35875 0.35416 0.64579 0.0
C3353 C 0.35819 0.36067 0.65268 0.0
C3354 C 0.36417 0.36047 0.65995 0.0
C3355 C 0.37084 0.35375 0.66052 0.0
C3356 C 0.37121 0.34706 0.6538 0.0
C3357 C 0.36524 0.34727 0.64652 0.0
C3358 C 0.35031 0.34324 0.61566 0.0
C3359 C 0.35807 0.33777 0.6155 0.0
C3360 C 0.12978 0.63435 0.68196 0.0
C3361 C 0.12849 0.62663 0.68729 0.0
C3362 C 0.13569 0.62055 0.68838 0.0
C3363 C 0.14391 0.62201 0.68394 0.0
H3364 H 0.16592 0.60784 0.67283 0.0
H3365 H 0.177 0.59577 0.67093 0.0
H3366 H 0.19585 0.61488 0.65946 0.0
H3367 H 0.18484 0.62695 0.66135 0.0
H3368 H 0.17545 0.64383 0.65079 0.0
H3369 H 0.17597 0.65657 0.64042 0.0
H3370 H 0.15139 0.66709 0.65204 0.0
H3371 H 0.15075 0.65434 0.66229 0.0
H3372 H 0.13864 0.64182 0.67344 0.0
H3373 H 0.12438 0.63921 0.6811 0.0
H3374 H 0.13486 0.61452 0.69243 0.0
H3375 H 0.14926 0.6171 0.68475 0.0
N3376 N 0.16004 0.62447 0.67292 0.0
N3377 N 0.16861 0.63331 0.66294 0.0
N3378 N 0.15471 0.63861 0.66825 0.0
C3379 C 0.1676 0.62561 0.66783 0.0
C3380 C 0.16219 0.63985 0.66312 0.0
C3381 C 0.15358 0.63098 0.6732 0.0
C3382 C 0.17448 0.61837 0.66722 0.0
C3383 C 0.17246 0.60949 0.66998 0.0
C3384 C 0.17877 0.60256 0.66885 0.0
C3385 C 0.18728 0.60439 0.66505 0.0
C3386 C 0.18938 0.61329 0.66249 0.0
C3387 C 0.18304 0.62019 0.66352 0.0
C3388 C 0.16301 0.64798 0.65733 0.0
C3389 C 0.17018 0.64889 0.65119 0.0
C3390 C 0.17051 0.65622 0.64527 0.0
C3391 C 0.16368 0.6628 0.64535 0.0
C3392 C 0.15667 0.66205 0.65169 0.0
C3393 C 0.15634 0.65474 0.6576 0.0
C3394 C 0.14512 0.62963 0.67839 0.0
C3395 C 0.13799 0.63585 0.67759 0.0
C3396 C 0.38416 0.37998 0.18484 0.0
C3397 C 0.38632 0.38815 0.18919 0.0
C3398 C 0.3802 0.39538 0.18864 0.0
C3399 C 0.37225 0.39455 0.18361 0.0
H3400 H 0.35086 0.40942 0.17323 0.0
H3401 H 0.34044 0.42205 0.17126 0.0
H3402 H 0.32219 0.40465 0.15654 0.0
H3403 H 0.33251 0.39203 0.1585 0.0
H3404 H 0.34322 0.37603 0.14714 0.0
H3405 H 0.34272 0.3635 0.13646 0.0
H3406 H 0.36213 0.34891 0.15246 0.0
H3407 H 0.36267 0.36141 0.16318 0.0
H3408 H 0.37489 0.37277 0.17646 0.0
H3409 H 0.38865 0.37422 0.18527 0.0
H3410 H 0.3817 0.40179 0.19187 0.0
H3411 H 0.36779 0.40033 0.18316 0.0
N3412 N 0.35617 0.39264 0.17251 0.0
N3413 N 0.34794 0.3846 0.16161 0.0
N3414 N 0.36099 0.37828 0.16787 0.0
C3415 C 0.34899 0.39209 0.16682 0.0
C3416 C 0.3539 0.37766 0.1621 0.0
C3417 C 0.36218 0.38573 0.17311 0.0
C3418 C 0.34254 0.3997 0.166 0.0
C3419 C 0.34459 0.40826 0.16962 0.0
C3420 C 0.33866 0.41551 0.16846 0.0
C3421 C 0.33051 0.41433 0.16375 0.0
C3422 C 0.32838 0.40574 0.16028 0.0
C3423 C 0.33433 0.39852 0.16136 0.0
C3424 C 0.35303 0.36976 0.156 0.0
C3425 C 0.34732 0.37012 0.14845 0.0
C3426 C 0.34706 0.36297 0.1423 0.0
C3427 C 0.35242 0.35527 0.14362 0.0
C3428 C 0.35788 0.35475 0.15131 0.0
C3429 C 0.35823 0.36194 0.15742 0.0
C3430 C 0.37024 0.38646 0.17901 0.0
C3431 C 0.37623 0.37914 0.17982 0.0
C3432 C 0.65564 0.43734 0.10745 0.0
C3433 C 0.66414 0.43595 0.10348 0.0
C3434 C 0.66555 0.42807 0.09838 0.0
C3435 C 0.65865 0.42164 0.0974 0.0
H3436 H 0.64936 0.3995 0.08145 0.0
H3437 H 0.65073 0.3863 0.07168 0.0
H3438 H 0.62997 0.37266 0.08702 0.0
H3439 H 0.62839 0.38589 0.09654 0.0
H3440 H 0.61767 0.39623 0.11129 0.0
H3441 H 0.60514 0.39694 0.1219 0.0
H3442 H 0.61065 0.42526 0.1265 0.0
H3443 H 0.62322 0.4246 0.11589 0.0
H3444 H 0.64237 0.43217 0.10981 0.0
H3445 H 0.65437 0.4433 0.11151 0.0
H3446 H 0.672 0.42685 0.09517 0.0
H3447 H 0.66001 0.41559 0.09353 0.0
N3448 N 0.64404 0.40852 0.09568 0.0
N3449 N 0.63041 0.40252 0.10114 0.0
N3450 N 0.63571 0.41644 0.10655 0.0
C3451 C 0.6377 0.40184 0.09563 0.0
C3452 C 0.62934 0.40981 0.10659 0.0
C3453 C 0.64309 0.41585 0.10114 0.0
C3454 C 0.63873 0.39379 0.08975 0.0
C3455 C 0.64509 0.39369 0.08272 0.0
C3456 C 0.6459 0.3861 0.07715 0.0
C3457 C 0.64043 0.37842 0.07851 0.0
C3458 C 0.63416 0.37851 0.08562 0.0
C3459 C 0.63329 0.38611 0.09113 0.0
C3460 C 0.62149 0.41035 0.11275 0.0
C3461 C 0.6162 0.40263 0.11451 0.0
C3462 C 0.60904 0.40302 0.12062 0.0
C3463 C 0.60695 0.41115 0.12504 0.0
C3464 C 0.61209 0.41892 0.12315 0.0
C3465 C 0.61932 0.41851 0.11711 0.0
C3466 C 0.65022 0.42293 0.10157 0.0
C3467 C 0.64877 0.43091 0.10652 0.0
C3468 C 0.86297 0.5783 0.60512 0.0
C3469 C 0.85405 0.57981 0.60226 0.0
C3470 C 0.85221 0.58748 0.597 0.0
C3471 C 0.8591 0.59365 0.59491 0.0
H3472 H 0.86472 0.61774 0.5813 0.0
H3473 H 0.8623 0.63118 0.5721 0.0
H3474 H 0.89032 0.63871 0.57554 0.0
H3475 H 0.8928 0.6253 0.5846 0.0
H3476 H 0.90224 0.61838 0.60272 0.0
H3477 H 0.9145 0.61877 0.61365 0.0
H3478 H 0.90736 0.59187 0.62245 0.0
H3479 H 0.89512 0.5914 0.6115 0.0
H3480 H 0.87657 0.5831 0.60553 0.0
H3481 H 0.86466 0.57235 0.609 0.0
H3482 H 0.84541 0.58886 0.59472 0.0
H3483 H 0.85742 0.5996 0.59104 0.0
N3484 N 0.87388 0.60615 0.59081 0.0
N3485 N 0.88813 0.61202 0.59465 0.0
N3486 N 0.88297 0.59866 0.60133 0.0
C3487 C 0.88039 0.6126 0.58977 0.0
C3488 C 0.88949 0.60507 0.60044 0.0
C3489 C 0.87516 0.59912 0.59655 0.0
C3490 C 0.87895 0.62044 0.58374 0.0
C3491 C 0.87039 0.62221 0.58002 0.0
C3492 C 0.86898 0.62994 0.57479 0.0
C3493 C 0.87611 0.636 0.57309 0.0
C3494 C 0.88471 0.63411 0.57662 0.0
C3495 C 0.8861 0.62644 0.58189 0.0
C3496 C 0.8976 0.6049 0.60629 0.0
C3497 C 0.90334 0.61248 0.60688 0.0
C3498 C 0.91035 0.61273 0.61317 0.0
C3499 C 0.91184 0.60538 0.61894 0.0
C3500 C 0.90642 0.59762 0.61804 0.0
C3501 C 0.89936 0.59738 0.6118 0.0
C3502 C 0.86796 0.59228 0.59806 0.0
C3503 C 0.86982 0.58446 0.60308 0.0
C3504 C 0.63434 0.43453 0.62903 0.0
C3505 C 0.63632 0.43906 0.63711 0.0
C3506 C 0.63021 0.43834 0.64431 0.0
C3507 C 0.62245 0.43293 0.64355 0.0
H3508 H 0.59697 0.42612 0.65549 0.0
H3509 H 0.5867 0.42372 0.66816 0.0
H3510 H 0.57862 0.39801 0.65691 0.0
H3511 H 0.58878 0.40036 0.64426 0.0
H3512 H 0.59161 0.39837 0.6225 0.0
H3513 H 0.59114 0.38777 0.60991 0.0
H3514 H 0.617 0.39772 0.60072 0.0
H3515 H 0.61754 0.40829 0.61327 0.0
H3516 H 0.62543 0.42566 0.62196 0.0
H3517 H 0.63881 0.43509 0.62329 0.0
H3518 H 0.63157 0.44172 0.65064 0.0
H3519 H 0.618 0.43233 0.6493 0.0
N3520 N 0.60687 0.42089 0.64174 0.0
N3521 N 0.5993 0.40941 0.63379 0.0
N3522 N 0.61201 0.41642 0.62751 0.0
C3523 C 0.60005 0.41471 0.64123 0.0
C3524 C 0.60524 0.41024 0.62688 0.0
C3525 C 0.61288 0.42179 0.63488 0.0
C3526 C 0.59371 0.41344 0.64885 0.0
C3527 C 0.593 0.41996 0.65571 0.0
C3528 C 0.58709 0.41861 0.66294 0.0
C3529 C 0.58191 0.41066 0.66352 0.0
C3530 C 0.58261 0.40416 0.65667 0.0
C3531 C 0.5884 0.40555 0.6494 0.0
C3532 C 0.60464 0.40416 0.61895 0.0
C3533 C 0.59718 0.39835 0.61778 0.0
C3534 C 0.59688 0.3923 0.61054 0.0
C3535 C 0.60406 0.39189 0.60437 0.0
C3536 C 0.61142 0.39782 0.60543 0.0
C3537 C 0.61169 0.40391 0.61262 0.0
C3538 C 0.62065 0.42814 0.63556 0.0
C3539 C 0.62662 0.42915 0.62826 0.0
C3540 C 0.33045 0.63122 0.88032 0.0
C3541 C 0.32625 0.62929 0.88857 0.0
C3542 C 0.32764 0.63521 0.89586 0.0
C3543 C 0.3332 0.64283 0.89493 0.0
H3544 H 0.34292 0.66548 0.90855 0.0
H3545 H 0.34565 0.67605 0.9209 0.0
H3546 H 0.36343 0.69166 0.90386 0.0
H3547 H 0.36088 0.68109 0.89162 0.0
H3548 H 0.36701 0.67368 0.87316 0.0
H3549 H 0.37743 0.67419 0.86052 0.0
H3550 H 0.36698 0.64861 0.85096 0.0
H3551 H 0.3564 0.64817 0.86347 0.0
H3552 H 0.33923 0.63998 0.87297 0.0
H3553 H 0.32961 0.62674 0.87461 0.0
H3554 H 0.32443 0.63394 0.90228 0.0
H3555 H 0.33418 0.6472 0.90071 0.0
N3556 N 0.34465 0.65868 0.89249 0.0
N3557 N 0.35566 0.66642 0.88413 0.0
N3558 N 0.34898 0.6533 0.87829 0.0
C3559 C 0.35056 0.66571 0.89169 0.0
C3560 C 0.35492 0.66026 0.8774 0.0
C3561 C 0.3438 0.65247 0.88579 0.0
C3562 C 0.35173 0.67237 0.89909 0.0
C3563 C 0.34738 0.67119 0.90742 0.0
C3564 C 0.34891 0.67726 0.91449 0.0
C3565 C 0.35482 0.68465 0.91339 0.0
C3566 C 0.35898 0.68594 0.905 0.0
C3567 C 0.35747 0.67988 0.89795 0.0
C3568 C 0.36088 0.66085 0.86939 0.0
C3569 C 0.36687 0.66819 0.86834 0.0
C3570 C 0.37289 0.66846 0.86111 0.0
C3571 C 0.37309 0.66142 0.85476 0.0
C3572 C 0.36694 0.6542 0.85567 0.0
C3573 C 0.3609 0.65393 0.86289 0.0
C3574 C 0.33754 0.64466 0.88672 0.0
C3575 C 0.33603 0.6388 0.87941 0.0
C3576 C 0.1839 0.38079 0.38211 0.0
C3577 C 0.18873 0.38259 0.39005 0.0
C3578 C 0.18943 0.37578 0.39658 0.0
C3579 C 0.18503 0.36746 0.39536 0.0
H3580 H 0.1748 0.34557 0.41 0.0
H3581 H 0.172 0.33536 0.42259 0.0
H3582 H 0.15834 0.31676 0.40469 0.0
H3583 H 0.16092 0.32699 0.39221 0.0
H3584 H 0.14942 0.33713 0.37671 0.0
H3585 H 0.1379 0.33699 0.36501 0.0
H3586 H 0.15191 0.35844 0.35111 0.0
H3587 H 0.16349 0.35866 0.36282 0.0
H3588 H 0.17575 0.37144 0.37474 0.0
H3589 H 0.18337 0.38586 0.3769 0.0
H3590 H 0.19307 0.377 0.40278 0.0
H3591 H 0.18548 0.36246 0.40064 0.0
N3592 N 0.17419 0.35114 0.3933 0.0
N3593 N 0.16355 0.34264 0.38517 0.0
N3594 N 0.1692 0.35614 0.3792 0.0
C3595 C 0.16878 0.34371 0.3926 0.0
C3596 C 0.16372 0.3488 0.37843 0.0
C3597 C 0.17448 0.35736 0.38658 0.0
C3598 C 0.16799 0.33716 0.4001 0.0
C3599 C 0.17127 0.33926 0.40874 0.0
C3600 C 0.16969 0.3334 0.41595 0.0
C3601 C 0.16483 0.3253 0.41467 0.0
C3602 C 0.16191 0.32305 0.40596 0.0
C3603 C 0.16344 0.3289 0.39878 0.0
C3604 C 0.15735 0.34798 0.37077 0.0
C3605 C 0.15014 0.34175 0.37112 0.0
C3606 C 0.14351 0.34168 0.36444 0.0
C3607 C 0.14399 0.34775 0.35721 0.0
C3608 C 0.15141 0.35366 0.35659 0.0
C3609 C 0.15801 0.35381 0.36333 0.0
C3610 C 0.17989 0.36579 0.38756 0.0
C3611 C 0.17956 0.37249 0.38087 0.0
C3612 C 0.33149 0.60613 0.36365 0.0
C3613 C 0.33106 0.59863 0.35785 0.0
C3614 C 0.33667 0.59844 0.35023 0.0
C3615 C 0.34269 0.60555 0.34852 0.0
H3616 H 0.36753 0.6111 0.33608 0.0
H3617 H 0.38056 0.6092 0.32621 0.0
H3618 H 0.38739 0.63741 0.32968 0.0
H3619 H 0.37437 0.63937 0.33944 0.0
H3620 H 0.36657 0.64974 0.35611 0.0
H3621 H 0.36657 0.66275 0.36617 0.0
H3622 H 0.34292 0.6522 0.37961 0.0
H3623 H 0.34279 0.63925 0.36949 0.0
H3624 H 0.33759 0.61892 0.36654 0.0
H3625 H 0.32717 0.60652 0.36951 0.0
H3626 H 0.33651 0.59271 0.34568 0.0
H3627 H 0.34697 0.60516 0.34263 0.0
N3628 N 0.35629 0.61968 0.34644 0.0
N3629 N 0.3617 0.63416 0.35006 0.0
N3630 N 0.34909 0.62829 0.35758 0.0
C3631 C 0.36236 0.62647 0.34509 0.0
C3632 C 0.35509 0.63514 0.35631 0.0
C3633 C 0.34961 0.62055 0.35267 0.0
C3634 C 0.3699 0.62538 0.33861 0.0
C3635 C 0.37175 0.61692 0.33468 0.0
C3636 C 0.37925 0.61581 0.32906 0.0
C3637 C 0.38501 0.62315 0.32718 0.0
C3638 C 0.38303 0.63165 0.33091 0.0
C3639 C 0.37558 0.63275 0.33657 0.0
C3640 C 0.35472 0.64338 0.36201 0.0
C3641 C 0.36131 0.65021 0.36115 0.0
C3642 C 0.36135 0.65766 0.36694 0.0
C3643 C 0.35478 0.65848 0.37372 0.0
C3644 C 0.34802 0.65181 0.3744 0.0
C3645 C 0.34799 0.64435 0.36863 0.0
C3646 C 0.34315 0.61305 0.35434 0.0
C3647 C 0.33743 0.61327 0.3619 0.0
H3648 H 0.19253 0.45002 0.12347 0.0
H3649 H 0.17856 0.44164 0.12078 0.0
H3650 H 0.17445 0.45633 0.0961 0.0
H3651 H 0.18849 0.4648 0.09877 0.0
H3652 H 0.15885 0.4547 0.10542 0.0
H3653 H 0.18199 0.43484 0.09536 0.0
H3654 H 0.1963 0.42638 0.09616 0.0
H3655 H 0.18639 0.41159 0.11895 0.0
H3656 H 0.17207 0.42006 0.11838 0.0
H3657 H 0.12494 0.42213 0.09124 0.0
H3658 H 0.13837 0.43194 0.09182 0.0
H3659 H 0.14483 0.42154 0.1181 0.0
H3660 H 0.13152 0.41173 0.11755 0.0
H3661 H 0.15931 0.42115 0.10611 0.0
H3662 H 0.13641 0.44199 0.11642 0.0
H3663 H 0.12214 0.45048 0.11522 0.0
H3664 H 0.13168 0.46327 0.09111 0.0
H3665 H 0.14596 0.45476 0.0921 0.0
C3666 C 0.18871 0.45142 0.11742 0.0
C3667 C 0.19167 0.458 0.11128 0.0
C3668 C 0.18071 0.44664 0.1159 0.0
C3669 C 0.17554 0.44825 0.10816 0.0
C3670 C 0.17836 0.45496 0.1021 0.0
C3671 C 0.18636 0.45979 0.10364 0.0
C3672 C 0.16724 0.44286 0.10645 0.0
C3673 C 0.15897 0.44736 0.10541 0.0
C3674 C 0.16739 0.43329 0.10651 0.0
C3675 C 0.17598 0.42814 0.10686 0.0
C3676 C 0.18289 0.42983 0.10058 0.0
C3677 C 0.191 0.42502 0.10099 0.0
C3678 C 0.19226 0.41846 0.10761 0.0
C3679 C 0.18541 0.41668 0.11383 0.0
C3680 C 0.17729 0.42148 0.11346 0.0
C3681 C 0.12921 0.42199 0.09714 0.0
C3682 C 0.12717 0.4162 0.10436 0.0
C3683 C 0.13684 0.42761 0.09749 0.0
C3684 C 0.14256 0.42746 0.10501 0.0
C3685 C 0.14048 0.42175 0.11224 0.0
C3686 C 0.13284 0.41621 0.11194 0.0
C3687 C 0.15092 0.43299 0.1053 0.0
C3688 C 0.15922 0.42849 0.10604 0.0
C3689 C 0.15078 0.44254 0.10487 0.0
C3690 C 0.1422 0.44766 0.10427 0.0
C3691 C 0.13543 0.44655 0.11081 0.0
C3692 C 0.12735 0.45138 0.11018 0.0
C3693 C 0.12599 0.45739 0.10307 0.0
C3694 C 0.13273 0.4586 0.0966 0.0
C3695 C 0.14082 0.45378 0.0972 0.0
H3696 H 0.11973 0.46113 0.1026 0.0
H3697 H 0.19854 0.41475 0.10791 0.0
H3698 H 0.82942 0.96862 0.41337 0.0
H3699 H 0.84359 0.96047 0.4159 0.0
H3700 H 0.83718 0.94245 0.39394 0.0
H3701 H 0.82307 0.95053 0.39137 0.0
H3702 H 0.84278 0.9332 0.40817 0.0
H3703 H 0.85288 0.95944 0.3918 0.0
H3704 H 0.8547 0.97576 0.38892 0.0
H3705 H 0.86879 0.97891 0.41398 0.0
H3706 H 0.86694 0.96262 0.41707 0.0
H3707 H 0.88416 0.91322 0.39694 0.0
H3708 H 0.87105 0.92322 0.39641 0.0
H3709 H 0.87909 0.93531 0.42159 0.0
H3710 H 0.89228 0.92526 0.42218 0.0
H3711 H 0.87296 0.94795 0.40754 0.0
H3712 H 0.86357 0.92127 0.42327 0.0
H3713 H 0.862 0.90485 0.42563 0.0
H3714 H 0.84663 0.90251 0.40124 0.0
H3715 H 0.84824 0.91891 0.39865 0.0
C3716 C 0.83107 0.96296 0.40904 0.0
C3717 C 0.8251 0.96019 0.40219 0.0
C3718 C 0.83917 0.95832 0.41049 0.0
C3719 C 0.84146 0.95088 0.40508 0.0
C3720 C 0.83552 0.94814 0.39823 0.0
C3721 C 0.82745 0.95275 0.3968 0.0
C3722 C 0.84996 0.9458 0.40657 0.0
C3723 C 0.84937 0.93643 0.40796 0.0
C3724 C 0.85856 0.95004 0.40656 0.0
C3725 C 0.85968 0.95983 0.40472 0.0
C3726 C 0.8563 0.96363 0.39674 0.0
C3727 C 0.85735 0.97287 0.39506 0.0
C3728 C 0.86184 0.97838 0.40128 0.0
C3729 C 0.8653 0.97464 0.40918 0.0
C3730 C 0.86426 0.96541 0.41089 0.0
C3731 C 0.88323 0.91811 0.40229 0.0
C3732 C 0.88923 0.91847 0.4096 0.0
C3733 C 0.87572 0.92377 0.402 0.0
C3734 C 0.8741 0.92994 0.40898 0.0
C3735 C 0.88024 0.93058 0.41614 0.0
C3736 C 0.88772 0.92481 0.41649 0.0
C3737 C 0.86572 0.93538 0.40893 0.0
C3738 C 0.86634 0.94477 0.40784 0.0
C3739 C 0.85713 0.93117 0.40917 0.0
C3740 C 0.8561 0.92131 0.41073 0.0
C3741 C 0.85992 0.91725 0.41837 0.0
C3742 C 0.85901 0.90794 0.41975 0.0
C3743 C 0.85424 0.90263 0.41358 0.0
C3744 C 0.85034 0.90663 0.40601 0.0
C3745 C 0.85124 0.91593 0.40459 0.0
H3746 H 0.85354 0.89543 0.41467 0.0
H3747 H 0.86265 0.98553 0.39997 0.0
H3748 H 0.32424 0.55225 0.60202 0.0
H3749 H 0.33645 0.56325 0.60006 0.0
H3750 H 0.35574 0.54362 0.60949 0.0
H3751 H 0.34352 0.53269 0.61179 0.0
H3752 H 0.35839 0.55953 0.61744 0.0
H3753 H 0.3544 0.54925 0.58717 0.0
H3754 H 0.34592 0.54566 0.57334 0.0
H3755 H 0.33804 0.57347 0.57092 0.0
H3756 H 0.34638 0.5772 0.58482 0.0
H3757 H 0.39708 0.58553 0.60618 0.0
H3758 H 0.38585 0.57335 0.60625 0.0
H3759 H 0.36532 0.59214 0.59779 0.0
H3760 H 0.37648 0.60436 0.59775 0.0
H3761 H 0.36381 0.57611 0.58897 0.0
H3762 H 0.36711 0.58617 0.61961 0.0
H3763 H 0.37553 0.58979 0.63347 0.0
H3764 H 0.38465 0.56231 0.63515 0.0
H3765 H 0.37638 0.55855 0.62122 0.0
C3766 C 0.33108 0.55028 0.60371 0.0
C3767 C 0.3329 0.54159 0.60706 0.0
C3768 C 0.33806 0.55654 0.60249 0.0
C3769 C 0.34702 0.55422 0.60453 0.0
C3770 C 0.34888 0.54554 0.60783 0.0
C3771 C 0.34189 0.53928 0.60907 0.0
C3772 C 0.35441 0.56097 0.60358 0.0
C3773 C 0.35968 0.56304 0.61116 0.0
C3774 C 0.35595 0.5657 0.59546 0.0
C3775 C 0.35095 0.56349 0.58708 0.0
C3776 C 0.3508 0.55459 0.58373 0.0
C3777 C 0.34603 0.55253 0.57587 0.0
C3778 C 0.34143 0.55933 0.57127 0.0
C3779 C 0.34161 0.56821 0.5745 0.0
C3780 C 0.34636 0.5703 0.58236 0.0
C3781 C 0.39017 0.58707 0.60434 0.0
C3782 C 0.38766 0.59593 0.60202 0.0
C3783 C 0.38377 0.5801 0.60437 0.0
C3784 C 0.37473 0.58186 0.60213 0.0
C3785 C 0.37226 0.59063 0.59953 0.0
C3786 C 0.37866 0.5976 0.59949 0.0
C3787 C 0.36776 0.57466 0.60282 0.0
C3788 C 0.36256 0.57254 0.59521 0.0
C3789 C 0.36627 0.56987 0.61092 0.0
C3790 C 0.37121 0.57211 0.61932 0.0
C3791 C 0.37097 0.58091 0.62289 0.0
C3792 C 0.3757 0.58299 0.63077 0.0
C3793 C 0.38064 0.57629 0.63517 0.0
C3794 C 0.38084 0.56749 0.63172 0.0
C3795 C 0.37612 0.56539 0.62384 0.0
H3796 H 0.3843 0.57791 0.64127 0.0
H3797 H 0.33774 0.55773 0.56518 0.0
H3798 H 0.66977 0.03193 0.9024 0.0
H3799 H 0.65779 0.0431 0.90427 0.0
H3800 H 0.67728 0.06246 0.9142 0.0
H3801 H 0.68925 0.05121 0.91269 0.0
H3802 H 0.66208 0.06296 0.92397 0.0
H3803 H 0.66961 0.06329 0.89252 0.0
H3804 H 0.67205 0.05662 0.87751 0.0
H3805 H 0.64444 0.04758 0.87683 0.0
H3806 H 0.64187 0.0541 0.8919 0.0
H3807 H 0.63791 0.10367 0.91732 0.0
H3808 H 0.6488 0.09131 0.91691 0.0
H3809 H 0.62799 0.07314 0.90743 0.0
H3810 H 0.61701 0.08549 0.90787 0.0
H3811 H 0.64326 0.07147 0.89773 0.0
H3812 H 0.63557 0.07194 0.92899 0.0
H3813 H 0.63325 0.07884 0.94391 0.0
H3814 H 0.66123 0.0866 0.94491 0.0
H3815 H 0.6637 0.07986 0.92993 0.0
C3816 C 0.6715 0.03853 0.9051 0.0
C3817 C 0.68049 0.04069 0.90736 0.0
C3818 C 0.66465 0.04493 0.90608 0.0
C3819 C 0.66666 0.05366 0.90925 0.0
C3820 C 0.67558 0.05578 0.9117 0.0
C3821 C 0.68243 0.04937 0.91075 0.0
C3822 C 0.65949 0.06063 0.90991 0.0
C3823 C 0.65803 0.06489 0.91822 0.0
C3824 C 0.65406 0.06299 0.90244 0.0
C3825 C 0.65558 0.0591 0.89337 0.0
C3826 C 0.66408 0.05982 0.8892 0.0
C3827 C 0.66548 0.05608 0.88068 0.0
C3828 C 0.65841 0.05166 0.87623 0.0
C3829 C 0.64992 0.05099 0.88029 0.0
C3830 C 0.64848 0.05471 0.88881 0.0
C3831 C 0.63561 0.09701 0.91528 0.0
C3832 C 0.62658 0.09555 0.91266 0.0
C3833 C 0.64185 0.08996 0.91503 0.0
C3834 C 0.63918 0.08128 0.91224 0.0
C3835 C 0.63018 0.07979 0.90961 0.0
C3836 C 0.62393 0.08685 0.90984 0.0
C3837 C 0.64588 0.07385 0.91178 0.0
C3838 C 0.64726 0.0695 0.90351 0.0
C3839 C 0.65125 0.07143 0.91927 0.0
C3840 C 0.6498 0.07546 0.9283 0.0
C3841 C 0.64122 0.07518 0.93236 0.0
C3842 C 0.63988 0.07905 0.94083 0.0
C3843 C 0.64708 0.08318 0.94535 0.0
C3844 C 0.65565 0.08341 0.9414 0.0
C3845 C 0.65703 0.07956 0.93292 0.0
H3846 H 0.64603 0.08618 0.9519 0.0
H3847 H 0.65951 0.04877 0.86963 0.0
H3848 H 0.1957 0.56368 0.41135 0.0
H3849 H 0.1817 0.57185 0.41432 0.0
H3850 H 0.16636 0.55028 0.40197 0.0
H3851 H 0.18039 0.5422 0.39869 0.0
H3852 H 0.16099 0.56628 0.3959 0.0
H3853 H 0.16604 0.55338 0.42477 0.0
H3854 H 0.17465 0.54949 0.43841 0.0
H3855 H 0.17809 0.57768 0.44453 0.0
H3856 H 0.16961 0.58175 0.43085 0.0
H3857 H 0.11946 0.58702 0.40824 0.0
H3858 H 0.13161 0.57583 0.4075 0.0
H3859 H 0.1503 0.59536 0.41855 0.0
H3860 H 0.13824 0.60656 0.41928 0.0
H3861 H 0.15287 0.57878 0.42579 0.0
H3862 H 0.14925 0.59148 0.39604 0.0
H3863 H 0.1407 0.59537 0.38236 0.0
H3864 H 0.13457 0.5673 0.37797 0.0
H3865 H 0.143 0.56326 0.39171 0.0
C3866 C 0.18935 0.56068 0.40925 0.0
C3867 C 0.18917 0.5523 0.40476 0.0
C3868 C 0.18134 0.56531 0.41104 0.0
C3869 C 0.17297 0.56162 0.40846 0.0
C3870 C 0.17274 0.55322 0.40406 0.0
C3871 C 0.18076 0.54858 0.40225 0.0
C3872 C 0.16452 0.5668 0.40995 0.0
C3873 C 0.15912 0.56886 0.40247 0.0
C3874 C 0.16215 0.57029 0.41849 0.0
C3875 C 0.16725 0.56787 0.42674 0.0
C3876 C 0.16869 0.55876 0.42899 0.0
C3877 C 0.17354 0.55651 0.43673 0.0
C3878 C 0.17693 0.56333 0.44232 0.0
C3879 C 0.17546 0.57241 0.44019 0.0
C3880 C 0.17063 0.57468 0.43244 0.0
C3881 C 0.12616 0.58892 0.41053 0.0
C3882 C 0.1279 0.59769 0.41378 0.0
C3883 C 0.13308 0.58252 0.41012 0.0
C3884 C 0.14188 0.5848 0.41288 0.0
C3885 C 0.14355 0.59345 0.41641 0.0
C3886 C 0.13664 0.59984 0.41684 0.0
C3887 C 0.14946 0.57837 0.41173 0.0
C3888 C 0.15469 0.57609 0.41925 0.0
C3889 C 0.15168 0.57466 0.40323 0.0
C3890 C 0.14666 0.57708 0.39495 0.0
C3891 C 0.14602 0.58615 0.3922 0.0
C3892 C 0.14121 0.58838 0.38443 0.0
C3893 C 0.13707 0.58159 0.37932 0.0
C3894 C 0.13777 0.57255 0.38195 0.0
C3895 C 0.14256 0.57029 0.38972 0.0
H3896 H 0.13335 0.58333 0.3733 0.0
H3897 H 0.18068 0.56158 0.44831 0.0
H3898 H 0.68197 0.97138 0.61724 0.0
H3899 H 0.66768 0.96359 0.61427 0.0
H3900 H 0.68201 0.94232 0.6005 0.0
H3901 H 0.69631 0.95022 0.60317 0.0
H3902 H 0.6666 0.94667 0.59174 0.0
H3903 H 0.67541 0.93985 0.62224 0.0
H3904 H 0.67982 0.94358 0.6378 0.0
H3905 H 0.65473 0.95757 0.6417 0.0
H3906 H 0.65023 0.95402 0.62611 0.0
H3907 H 0.63742 0.90896 0.59551 0.0
H3908 H 0.64964 0.92004 0.59606 0.0
H3909 H 0.63198 0.93907 0.60921 0.0
H3910 H 0.61961 0.92803 0.60856 0.0
H3911 H 0.64796 0.93744 0.61791 0.0
H3912 H 0.63845 0.94272 0.5878 0.0
H3913 H 0.63406 0.93871 0.57231 0.0
H3914 H 0.66035 0.92743 0.56765 0.0
H3915 H 0.66486 0.93125 0.58317 0.0
C3916 C 0.68208 0.96512 0.61345 0.0
C3917 C 0.69029 0.96139 0.61049 0.0
C3918 C 0.6739 0.96064 0.61182 0.0
C3919 C 0.67379 0.95232 0.60727 0.0
C3920 C 0.68195 0.94872 0.60405 0.0
C3921 C 0.69012 0.9532 0.60566 0.0
C3922 C 0.66525 0.94715 0.60615 0.0
C3923 C 0.66255 0.94459 0.59746 0.0
C3924 C 0.65985 0.94466 0.6136 0.0
C3925 C 0.66253 0.94677 0.62298 0.0
C3926 C 0.67087 0.94379 0.62639 0.0
C3927 C 0.67338 0.94585 0.63522 0.0
C3928 C 0.66757 0.95083 0.64073 0.0
C3929 C 0.65923 0.95373 0.63742 0.0
C3930 C 0.6567 0.95169 0.62859 0.0
C3931 C 0.63605 0.91557 0.59834 0.0
C3932 C 0.62751 0.91761 0.60197 0.0
C3933 C 0.64306 0.9219 0.59867 0.0
C3934 C 0.6417 0.93041 0.60261 0.0
C3935 C 0.63317 0.93253 0.60614 0.0
C3936 C 0.62613 0.92621 0.60579 0.0
C3937 C 0.64937 0.93683 0.60351 0.0
C3938 C 0.65193 0.93962 0.61217 0.0
C3939 C 0.65464 0.93951 0.59603 0.0
C3940 C 0.65197 0.93722 0.58668 0.0
C3941 C 0.64327 0.93932 0.5835 0.0
C3942 C 0.64077 0.93709 0.57471 0.0
C3943 C 0.64692 0.9328 0.56901 0.0
C3944 C 0.65559 0.93075 0.57208 0.0
C3945 C 0.65813 0.93296 0.58087 0.0
H3946 H 0.64496 0.93108 0.5622 0.0
H3947 H 0.66953 0.95242 0.64757 0.0
H3948 H 0.3381 0.47824 0.91765 0.0
H3949 H 0.34999 0.46697 0.91977 0.0
H3950 H 0.3413 0.45317 0.89566 0.0
H3951 H 0.32943 0.46439 0.89352 0.0
H3952 H 0.34441 0.44138 0.9088 0.0
H3953 H 0.36012 0.46678 0.8959 0.0
H3954 H 0.36509 0.48269 0.89492 0.0
H3955 H 0.378 0.48052 0.92067 0.0
H3956 H 0.37301 0.46463 0.92186 0.0
H3957 H 0.38247 0.41498 0.89786 0.0
H3958 H 0.37074 0.42658 0.89787 0.0
H3959 H 0.38015 0.43625 0.92361 0.0
H3960 H 0.39199 0.42465 0.92362 0.0
H3961 H 0.37674 0.45015 0.91109 0.0
H3962 H 0.36176 0.42425 0.92335 0.0
H3963 H 0.35698 0.40828 0.92394 0.0
H3964 H 0.34279 0.41134 0.89896 0.0
H3965 H 0.3476 0.42731 0.89815 0.0
C3966 C 0.33877 0.47284 0.91278 0.0
C3967 C 0.33282 0.47221 0.90542 0.0
C3968 C 0.34555 0.4664 0.914 0.0
C3969 C 0.34658 0.45927 0.90783 0.0
C3970 C 0.34061 0.4586 0.90053 0.0
C3971 C 0.33381 0.465 0.89932 0.0
C3972 C 0.35387 0.45249 0.90894 0.0
C3973 C 0.35148 0.4433 0.90921 0.0
C3974 C 0.36308 0.455 0.90973 0.0
C3975 C 0.3661 0.46455 0.90902 0.0
C3976 C 0.36396 0.46972 0.90139 0.0
C3977 C 0.36679 0.47873 0.90079 0.0
C3978 C 0.37183 0.48262 0.90774 0.0
C3979 C 0.37408 0.4775 0.9153 0.0
C3980 C 0.37125 0.46849 0.91594 0.0
C3981 C 0.38209 0.41962 0.90349 0.0
C3982 C 0.38815 0.41892 0.91074 0.0
C3983 C 0.37535 0.4262 0.90352 0.0
C3984 C 0.37454 0.43221 0.91078 0.0
C3985 C 0.38066 0.43165 0.91796 0.0
C3986 C 0.38737 0.425 0.91798 0.0
C3987 C 0.36727 0.43907 0.9108 0.0
C3988 C 0.36966 0.44825 0.91075 0.0
C3989 C 0.35805 0.43656 0.91018 0.0
C3990 C 0.35511 0.42696 0.91065 0.0
C3991 C 0.35768 0.4215 0.91795 0.0
C3992 C 0.35495 0.41245 0.91833 0.0
C3993 C 0.3496 0.40879 0.91148 0.0
C3994 C 0.34694 0.41418 0.90425 0.0
C3995 C 0.34966 0.42324 0.90383 0.0
H3996 H 0.34749 0.40178 0.91179 0.0
H3997 H 0.37402 0.4896 0.90726 0.0
H3998 H 0.84405 0.0332 0.1117 0.0
H3999 H 0.85622 0.04421 0.10966 0.0
H4000 H 0.83695 0.06384 0.10022 0.0
H4001 H 0.82477 0.05275 0.10191 0.0
H4002 H 0.85219 0.06438 0.09036 0.0
H4003 H 0.84459 0.06436 0.1218 0.0
H4004 H 0.84202 0.0575 0.13668 0.0
H4005 H 0.8695 0.04824 0.13726 0.0
H4006 H 0.87219 0.05494 0.12232 0.0
H4007 H 0.87679 0.10498 0.09823 0.0
H4008 H 0.86581 0.09261 0.098 0.0
H4009 H 0.88632 0.07415 0.10721 0.0
H4010 H 0.89738 0.08649 0.10739 0.0
H4011 H 0.87102 0.07244 0.1168 0.0
H4012 H 0.87881 0.07338 0.08559 0.0
H4013 H 0.88125 0.0805 0.07081 0.0
H4014 H 0.85334 0.08832 0.06986 0.0
H4015 H 0.85076 0.08135 0.0847 0.0
C4016 C 0.84241 0.03981 0.10904 0.0
C4017 C 0.83342 0.04211 0.10702 0.0
C4018 C 0.84937 0.04612 0.10797 0.0
C4019 C 0.84747 0.05489 0.10492 0.0
C4020 C 0.83856 0.05713 0.10262 0.0
C4021 C 0.8316 0.05081 0.10367 0.0
C4022 C 0.85473 0.06182 0.10438 0.0
C4023 C 0.85625 0.06621 0.09615 0.0
C4024 C 0.86016 0.06407 0.1119 0.0
C4025 C 0.85856 0.06007 0.1209 0.0
C4026 C 0.85006 0.0608 0.12507 0.0
C4027 C 0.84859 0.05695 0.13352 0.0
C4028 C 0.85558 0.05242 0.1379 0.0
C4029 C 0.86408 0.05174 0.13385 0.0
C4030 C 0.86558 0.05557 0.12539 0.0
C4031 C 0.87901 0.09826 0.10005 0.0
C4032 C 0.88797 0.09672 0.10281 0.0
C4033 C 0.87272 0.09119 0.09994 0.0
C4034 C 0.87526 0.08244 0.10251 0.0
C4035 C 0.88421 0.08086 0.1052 0.0
C4036 C 0.89051 0.08792 0.10533 0.0
C4037 C 0.86848 0.07503 0.10279 0.0
C4038 C 0.86702 0.07057 0.11098 0.0
C4039 C 0.8631 0.07275 0.09524 0.0
C4040 C 0.86461 0.07691 0.0863 0.0
C4041 C 0.87321 0.07668 0.08226 0.0
C4042 C 0.87461 0.08068 0.07387 0.0
C4043 C 0.86746 0.08488 0.06941 0.0
C4044 C 0.85887 0.08507 0.07333 0.0
C4045 C 0.85744 0.08109 0.08173 0.0
H4046 H 0.86856 0.08797 0.06291 0.0
H4047 H 0.85443 0.04944 0.14445 0.0
H4048 H 0.12702 0.18855 0.45754 0.0
H4049 H 0.12463 0.17461 0.44903 0.0
H4050 H 0.09788 0.17205 0.46032 0.0
H4051 H 0.10027 0.18604 0.46893 0.0
H4052 H 0.10632 0.15581 0.45959 0.0
H4053 H 0.10042 0.17992 0.43926 0.0
H4054 H 0.10332 0.19426 0.43133 0.0
H4055 H 0.12716 0.18296 0.41935 0.0
H4056 H 0.12448 0.16859 0.42732 0.0
H4057 H 0.09281 0.12404 0.42496 0.0
H4058 H 0.09374 0.13694 0.43533 0.0
H4059 H 0.12149 0.14135 0.42757 0.0
H4060 H 0.12059 0.12859 0.41716 0.0
H4061 H 0.11105 0.15677 0.42658 0.0
H4062 H 0.11686 0.13265 0.44762 0.0
H4063 H 0.11345 0.11838 0.4555 0.0
H4064 H 0.08891 0.12979 0.46586 0.0
H4065 H 0.09211 0.14409 0.45794 0.0
C4066 C 0.12062 0.18504 0.45818 0.0
C4067 C 0.11379 0.18844 0.4638 0.0
C4068 C 0.11926 0.17707 0.45334 0.0
C4069 C 0.11102 0.17238 0.45392 0.0
C4070 C 0.10429 0.17559 0.45975 0.0
C4071 C 0.10566 0.18356 0.46466 0.0
C4072 C 0.10943 0.16428 0.44823 0.0
C4073 C 0.10721 0.15604 0.45236 0.0
C4074 C 0.11066 0.16458 0.4388 0.0
C4075 C 0.11228 0.1732 0.43395 0.0
C4076 C 0.10632 0.18051 0.43499 0.0
C4077 C 0.10792 0.18865 0.43048 0.0
C4078 C 0.11543 0.18953 0.42486 0.0
C4079 C 0.12135 0.18227 0.42372 0.0
C4080 C 0.11978 0.17413 0.42822 0.0
C4081 C 0.09912 0.12774 0.42552 0.0
C4082 C 0.10663 0.1253 0.42026 0.0
C4083 C 0.09965 0.13506 0.43147 0.0
C4084 C 0.10769 0.14007 0.43222 0.0
C4085 C 0.11523 0.13755 0.42709 0.0
C4086 C 0.11473 0.13022 0.42121 0.0
C4087 C 0.10817 0.14826 0.43796 0.0
C4088 C 0.11012 0.15655 0.43381 0.0
C4089 C 0.1066 0.148 0.44733 0.0
C4090 C 0.10467 0.13941 0.4521 0.0
C4091 C 0.11069 0.13209 0.45151 0.0
C4092 C 0.10881 0.124 0.456 0.0
C4093 C 0.10096 0.12317 0.46115 0.0
C4094 C 0.09498 0.13044 0.46185 0.0
C4095 C 0.09683 0.13854 0.45737 0.0
H4096 H 0.09951 0.11691 0.46462 0.0
H4097 H 0.11666 0.19583 0.42137 0.0
H4098 H 0.0342 0.90185 0.67216 0.0
H4099 H 0.04529 0.90371 0.66014 0.0
H4100 H 0.0648 0.91366 0.67935 0.0
H4101 H 0.05363 0.91214 0.69137 0.0
H4102 H 0.06531 0.92341 0.66415 0.0
H4103 H 0.0654 0.89182 0.6719 0.0
H4104 H 0.05858 0.8768 0.67445 0.0
H4105 H 0.04953 0.87594 0.64703 0.0
H4106 H 0.05618 0.89102 0.64435 0.0
H4107 H 0.10616 0.91588 0.64049 0.0
H4108 H 0.09366 0.9158 0.65119 0.0
H4109 H 0.07559 0.9064 0.63039 0.0
H4110 H 0.08807 0.90655 0.61959 0.0
H4111 H 0.07366 0.89674 0.64568 0.0
H4112 H 0.0745 0.92805 0.63772 0.0
H4113 H 0.08152 0.94298 0.63526 0.0
H4114 H 0.08905 0.94434 0.66311 0.0
H4115 H 0.08218 0.92935 0.66571 0.0
C4116 C 0.0408 0.90456 0.67382 0.0
C4117 C 0.04304 0.90681 0.68274 0.0
C4118 C 0.04717 0.90554 0.66695 0.0
C4119 C 0.05591 0.9087 0.66887 0.0
C4120 C 0.0581 0.91117 0.67772 0.0
C4121 C 0.05173 0.91022 0.6846 0.0
C4122 C 0.06287 0.90925 0.6617 0.0
C4123 C 0.06721 0.91756 0.66017 0.0
C4124 C 0.06518 0.90167 0.65636 0.0
C4125 C 0.0612 0.89259 0.65795 0.0
C4126 C 0.06189 0.88846 0.66643 0.0
C4127 C 0.05807 0.87993 0.6679 0.0
C4128 C 0.0536 0.87543 0.66092 0.0
C4129 C 0.05297 0.87944 0.65244 0.0
C4130 C 0.05677 0.88798 0.65094 0.0
C4131 C 0.0995 0.91394 0.63814 0.0
C4132 C 0.09811 0.91126 0.62917 0.0
C4133 C 0.09236 0.91388 0.64428 0.0
C4134 C 0.08367 0.91119 0.64156 0.0
C4135 C 0.08224 0.90851 0.63262 0.0
C4136 C 0.08939 0.90856 0.62647 0.0
C4137 C 0.07616 0.91088 0.64816 0.0
C4138 C 0.07173 0.90261 0.6496 0.0
C4139 C 0.07378 0.9185 0.65343 0.0
C4140 C 0.07789 0.92754 0.65189 0.0
C4141 C 0.07772 0.9315 0.64331 0.0
C4142 C 0.08166 0.93998 0.64189 0.0
C4143 C 0.08575 0.9446 0.64902 0.0
C4144 C 0.08589 0.94075 0.65759 0.0
C4145 C 0.08196 0.93227 0.65904 0.0
H4146 H 0.0888 0.95117 0.64791 0.0
H4147 H 0.05065 0.86883 0.66206 0.0
H4148 H 0.39444 0.82114 0.9509 0.0
H4149 H 0.39744 0.83491 0.94241 0.0
H4150 H 0.41867 0.84213 0.96099 0.0
H4151 H 0.41572 0.82827 0.96956 0.0
H4152 H 0.40836 0.85663 0.95687 0.0
H4153 H 0.42412 0.83399 0.94061 0.0
H4154 H 0.42641 0.81935 0.93301 0.0
H4155 H 0.40577 0.82592 0.91382 0.0
H4156 H 0.40326 0.84055 0.9214 0.0
H4157 H 0.42452 0.89039 0.9251 0.0
H4158 H 0.42391 0.87731 0.93528 0.0
H4159 H 0.39964 0.86797 0.92209 0.0
H4160 H 0.40017 0.881 0.912 0.0
H4161 H 0.41362 0.8547 0.92398 0.0
H4162 H 0.39737 0.87706 0.94145 0.0
H4163 H 0.39563 0.89172 0.94917 0.0
H4164 H 0.41832 0.88568 0.9661 0.0
H4165 H 0.42028 0.87102 0.95839 0.0
C4166 C 0.39982 0.8256 0.95314 0.0
C4167 C 0.40491 0.82355 0.96085 0.0
C4168 C 0.40151 0.83348 0.94829 0.0
C4169 C 0.40838 0.83947 0.95098 0.0
C4170 C 0.41336 0.83758 0.95878 0.0
C4171 C 0.41165 0.82967 0.96367 0.0
C4172 C 0.41028 0.84768 0.94558 0.0
C4173 C 0.40968 0.85621 0.94971 0.0
C4174 C 0.41196 0.84713 0.93623 0.0
C4175 C 0.41345 0.83834 0.93162 0.0
C4176 C 0.42002 0.83228 0.93482 0.0
C4177 C 0.42137 0.82399 0.9305 0.0
C4178 C 0.41623 0.8217 0.92295 0.0
C4179 C 0.40974 0.8277 0.91968 0.0
C4180 C 0.40836 0.836 0.92398 0.0
C4181 C 0.41904 0.88555 0.92443 0.0
C4182 C 0.41237 0.8867 0.9178 0.0
C4183 C 0.41869 0.87813 0.93024 0.0
C4184 C 0.41173 0.87171 0.92942 0.0
C4185 C 0.40506 0.87286 0.92282 0.0
C4186 C 0.40534 0.88033 0.91712 0.0
C4187 C 0.41146 0.8636 0.93523 0.0
C4188 C 0.41241 0.8551 0.93116 0.0
C4189 C 0.41021 0.86419 0.94463 0.0
C4190 C 0.40904 0.873 0.94926 0.0
C4191 C 0.40205 0.87889 0.94675 0.0
C4192 C 0.40101 0.88719 0.95114 0.0
C4193 C 0.40688 0.88964 0.9581 0.0
C4194 C 0.41379 0.88378 0.9607 0.0
C4195 C 0.41486 0.87548 0.95632 0.0
H4196 H 0.40606 0.89607 0.9615 0.0
H4197 H 0.41728 0.81527 0.91962 0.0
H4198 H 0.47079 0.11906 0.18221 0.0
H4199 H 0.4631 0.11626 0.16791 0.0
H4200 H 0.44299 0.1002 0.18159 0.0
H4201 H 0.45078 0.10277 0.19589 0.0
H4202 H 0.44795 0.09257 0.16559 0.0
H4203 H 0.43875 0.12188 0.17648 0.0
H4204 H 0.44121 0.13746 0.18193 0.0
H4205 H 0.45458 0.14425 0.15721 0.0
H4206 H 0.45231 0.12866 0.15167 0.0
H4207 H 0.40975 0.09547 0.13708 0.0
H4208 H 0.42086 0.09594 0.14917 0.0
H4209 H 0.43886 0.11158 0.13246 0.0
H4210 H 0.42783 0.11099 0.1202 0.0
H4211 H 0.43646 0.11921 0.14895 0.0
H4212 H 0.44415 0.09019 0.13741 0.0
H4213 H 0.44144 0.07465 0.13199 0.0
H4214 H 0.43076 0.06726 0.1578 0.0
H4215 H 0.43328 0.0828 0.16333 0.0
C4216 C 0.46481 0.11481 0.18216 0.0
C4217 C 0.46136 0.11118 0.19019 0.0
C4218 C 0.46039 0.11327 0.17399 0.0
C4219 C 0.45241 0.10811 0.17371 0.0
C4220 C 0.44912 0.10422 0.18167 0.0
C4221 C 0.45353 0.10576 0.18983 0.0
C4222 C 0.44725 0.1071 0.16523 0.0
C4223 C 0.44538 0.09838 0.16198 0.0
C4224 C 0.4441 0.1147 0.1604 0.0
C4225 C 0.44545 0.12408 0.16371 0.0
C4226 C 0.44228 0.12668 0.17224 0.0
C4227 C 0.44363 0.13551 0.17534 0.0
C4228 C 0.44808 0.14183 0.16993 0.0
C4229 C 0.45116 0.13934 0.1614 0.0
C4230 C 0.44984 0.13051 0.15828 0.0
C4231 C 0.41615 0.09883 0.13587 0.0
C4232 C 0.41789 0.1032 0.12765 0.0
C4233 C 0.42249 0.09911 0.14281 0.0
C4234 C 0.43071 0.10374 0.1417 0.0
C4235 C 0.43255 0.10797 0.13346 0.0
C4236 C 0.42622 0.10766 0.12648 0.0
C4237 C 0.43706 0.10466 0.14935 0.0
C4238 C 0.43914 0.11338 0.15247 0.0
C4239 C 0.44037 0.09705 0.15406 0.0
C4240 C 0.43884 0.08769 0.15076 0.0
C4241 C 0.44115 0.08528 0.14191 0.0
C4242 C 0.43967 0.07646 0.13882 0.0
C4243 C 0.43591 0.06998 0.14454 0.0
C4244 C 0.43366 0.07229 0.15337 0.0
C4245 C 0.43513 0.0811 0.15649 0.0
H4246 H 0.43477 0.06315 0.14214 0.0
H4247 H 0.44911 0.14867 0.17234 0.0
H4248 H 0.09466 0.83686 0.03723 0.0
H4249 H 0.09286 0.84886 0.04845 0.0
H4250 H 0.11637 0.83916 0.06257 0.0
H4251 H 0.11821 0.82718 0.05141 0.0
H4252 H 0.10305 0.84281 0.07405 0.0
H4253 H 0.11734 0.85791 0.04917 0.0
H4254 H 0.11893 0.86283 0.03342 0.0
H4255 H 0.09368 0.87696 0.03516 0.0
H4256 H 0.09188 0.87202 0.05089 0.0
H4257 H 0.11575 0.88034 0.10056 0.0
H4258 H 0.11534 0.86873 0.08884 0.0
H4259 H 0.08978 0.879 0.07946 0.0
H4260 H 0.09015 0.89069 0.09122 0.0
H4261 H 0.1026 0.87523 0.06553 0.0
H4262 H 0.08903 0.86081 0.09097 0.0
H4263 H 0.08794 0.85607 0.10681 0.0
H4264 H 0.1124 0.84075 0.10405 0.0
H4265 H 0.11371 0.84552 0.08822 0.0
C4266 C 0.09947 0.83733 0.0427 0.0
C4267 C 0.10657 0.83107 0.04344 0.0
C4268 C 0.09843 0.84418 0.04911 0.0
C4269 C 0.10453 0.84495 0.05631 0.0
C4270 C 0.11157 0.83867 0.05709 0.0
C4271 C 0.11259 0.83181 0.05072 0.0
C4272 C 0.10361 0.85227 0.06308 0.0
C4273 C 0.10303 0.8499 0.07219 0.0
C4274 C 0.10335 0.86152 0.06063 0.0
C4275 C 0.10442 0.86451 0.05117 0.0
C4276 C 0.11209 0.862 0.04617 0.0
C4277 C 0.11303 0.8648 0.03725 0.0
C4278 C 0.1064 0.87018 0.03328 0.0
C4279 C 0.09881 0.87278 0.03823 0.0
C4280 C 0.09782 0.86999 0.04715 0.0
C4281 C 0.11008 0.88018 0.09596 0.0
C4282 C 0.10298 0.88641 0.09679 0.0
C4283 C 0.10983 0.87351 0.08931 0.0
C4284 C 0.1025 0.87298 0.08334 0.0
C4285 C 0.09548 0.8793 0.08402 0.0
C4286 C 0.09567 0.88592 0.09076 0.0
C4287 C 0.10219 0.86574 0.07647 0.0
C4288 C 0.10253 0.86813 0.06736 0.0
C4289 C 0.10229 0.8565 0.07891 0.0
C4290 C 0.10151 0.85359 0.08842 0.0
C4291 C 0.09422 0.85649 0.09376 0.0
C4292 C 0.09355 0.85379 0.10273 0.0
C4293 C 0.10011 0.84813 0.10644 0.0
C4294 C 0.10733 0.84514 0.10117 0.0
C4295 C 0.10803 0.84784 0.09219 0.0
H4296 H 0.09958 0.84604 0.11339 0.0
H4297 H 0.10714 0.87235 0.02637 0.0
H4298 H 0.48327 0.89953 0.34513 0.0
H4299 H 0.47241 0.90167 0.35732 0.0
H4300 H 0.45289 0.91192 0.3384 0.0
H4301 H 0.46383 0.91011 0.32622 0.0
H4302 H 0.45299 0.92181 0.35363 0.0
H4303 H 0.45167 0.89024 0.34587 0.0
H4304 H 0.45789 0.87503 0.34315 0.0
H4305 H 0.46743 0.87395 0.37039 0.0
H4306 H 0.46137 0.88922 0.37323 0.0
H4307 H 0.41252 0.91569 0.37838 0.0
H4308 H 0.4247 0.91518 0.36734 0.0
H4309 H 0.44292 0.9051 0.38758 0.0
H4310 H 0.43075 0.90564 0.39872 0.0
H4311 H 0.44411 0.89545 0.37228 0.0
H4312 H 0.44458 0.92682 0.38024 0.0
H4313 H 0.43812 0.94195 0.38284 0.0
H4314 H 0.42996 0.94336 0.35518 0.0
H4315 H 0.43626 0.92818 0.35244 0.0
C4316 C 0.47672 0.90236 0.34358 0.0
C4317 C 0.4744 0.90461 0.33469 0.0
C4318 C 0.47049 0.9035 0.35054 0.0
C4319 C 0.4618 0.90684 0.34875 0.0
C4320 C 0.45954 0.9093 0.33993 0.0
C4321 C 0.46577 0.90818 0.33296 0.0
C4322 C 0.45499 0.9076 0.35603 0.0
C4323 C 0.45097 0.91603 0.35766 0.0
C4324 C 0.45253 0.9001 0.36141 0.0
C4325 C 0.45615 0.89091 0.35973 0.0
C4326 C 0.45515 0.88679 0.35125 0.0
C4327 C 0.45864 0.87815 0.3497 0.0
C4328 C 0.46308 0.87354 0.35659 0.0
C4329 C 0.46401 0.87754 0.36506 0.0
C4330 C 0.46054 0.88618 0.36664 0.0
C4331 C 0.41915 0.9135 0.38053 0.0
C4332 C 0.42067 0.91074 0.38945 0.0
C4333 C 0.42611 0.9132 0.3742 0.0
C4334 C 0.43475 0.9102 0.37666 0.0
C4335 C 0.4363 0.90744 0.38555 0.0
C4336 C 0.42934 0.90773 0.39189 0.0
C4337 C 0.44206 0.90965 0.36986 0.0
C4338 C 0.44617 0.90125 0.36831 0.0
C4339 C 0.44458 0.91717 0.36454 0.0
C4340 C 0.44083 0.92633 0.36615 0.0
C4341 C 0.44135 0.93033 0.37472 0.0
C4342 C 0.43773 0.93892 0.37622 0.0
C4343 C 0.43362 0.94361 0.36918 0.0
C4344 C 0.43314 0.93972 0.36062 0.0
C4345 C 0.43674 0.93113 0.35909 0.0
H4346 H 0.43082 0.95026 0.37035 0.0
H4347 H 0.46577 0.86685 0.35537 0.0
H4348 H 0.41669 0.18773 0.54752 0.0
H4349 H 0.42006 0.17383 0.5558 0.0
H4350 H 0.39683 0.17836 0.57274 0.0
H4351 H 0.39343 0.19219 0.56452 0.0
H4352 H 0.41119 0.17407 0.58257 0.0
H4353 H 0.39666 0.1625 0.55589 0.0
H4354 H 0.39459 0.16036 0.53958 0.0
H4355 H 0.42093 0.14839 0.53766 0.0
H4356 H 0.4232 0.15058 0.55396 0.0
H4357 H 0.40135 0.13199 0.60182 0.0
H4358 H 0.40072 0.14506 0.59182 0.0
H4359 H 0.42736 0.13884 0.58185 0.0
H4360 H 0.42807 0.1257 0.59195 0.0
H4361 H 0.41345 0.14384 0.56818 0.0
H4362 H 0.42726 0.1545 0.59538 0.0
H4363 H 0.42869 0.15629 0.61179 0.0
H4364 H 0.40307 0.16982 0.61272 0.0
H4365 H 0.40141 0.16797 0.59632 0.0
C4366 C 0.41226 0.18571 0.55296 0.0
C4367 C 0.40482 0.19108 0.55539 0.0
C4368 C 0.4142 0.17777 0.55769 0.0
C4369 C 0.40867 0.17504 0.56487 0.0
C4370 C 0.40122 0.18037 0.56726 0.0
C4371 C 0.3993 0.18829 0.56257 0.0
C4372 C 0.41067 0.16672 0.57005 0.0
C4373 C 0.41162 0.16746 0.57941 0.0
C4374 C 0.4115 0.15812 0.56592 0.0
C4375 C 0.41014 0.15681 0.55612 0.0
C4376 C 0.40204 0.15949 0.55198 0.0
C4377 C 0.40082 0.15825 0.54274 0.0
C4378 C 0.40763 0.15427 0.53758 0.0
C4379 C 0.41567 0.15149 0.54166 0.0
C4380 C 0.41692 0.15273 0.5509 0.0
C4381 C 0.40703 0.13332 0.59741 0.0
C4382 C 0.41476 0.12783 0.59764 0.0
C4383 C 0.40667 0.1408 0.59174 0.0
C4384 C 0.41401 0.14291 0.58615 0.0
C4385 C 0.42164 0.1373 0.58613 0.0
C4386 C 0.42205 0.12985 0.59191 0.0
C4387 C 0.41375 0.15123 0.58066 0.0
C4388 C 0.41313 0.15048 0.57128 0.0
C4389 C 0.41318 0.15984 0.58476 0.0
C4390 C 0.41418 0.16103 0.59462 0.0
C4391 C 0.42189 0.15779 0.59909 0.0
C4392 C 0.42275 0.15883 0.60839 0.0
C4393 C 0.41597 0.16315 0.6133 0.0
C4394 C 0.40832 0.16646 0.60891 0.0
C4395 C 0.40742 0.16543 0.59961 0.0
H4396 H 0.41665 0.16395 0.6205 0.0
H4397 H 0.40668 0.15331 0.53043 0.0
H4398 H 0.04824 0.12184 0.83406 0.0
H4399 H 0.05969 0.12012 0.84576 0.0
H4400 H 0.05295 0.09181 0.84811 0.0
H4401 H 0.04139 0.09352 0.83644 0.0
H4402 H 0.05515 0.09913 0.86429 0.0
H4403 H 0.07209 0.09875 0.83696 0.0
H4404 H 0.0771 0.10422 0.82212 0.0
H4405 H 0.08696 0.12875 0.83417 0.0
H4406 H 0.0819 0.12349 0.84907 0.0
H4407 H 0.09514 0.08861 0.88941 0.0
H4408 H 0.08329 0.08907 0.87791 0.0
H4409 H 0.08734 0.11782 0.87505 0.0
H4410 H 0.0993 0.11738 0.88635 0.0
H4411 H 0.08667 0.10931 0.8589 0.0
H4412 H 0.06917 0.10959 0.88626 0.0
H4413 H 0.06423 0.10383 0.90101 0.0
H4414 H 0.05562 0.07895 0.88873 0.0
H4415 H 0.06063 0.08452 0.87391 0.0
C4416 C 0.04924 0.11523 0.83702 0.0
C4417 C 0.04397 0.1078 0.83429 0.0
C4418 C 0.05579 0.11425 0.84371 0.0
C4419 C 0.05728 0.1058 0.84771 0.0
C4420 C 0.05192 0.09839 0.8451 0.0
C4421 C 0.04532 0.09938 0.83845 0.0
C4422 C 0.06444 0.10473 0.85462 0.0
C4423 C 0.06207 0.10122 0.86307 0.0
C4424 C 0.07345 0.10758 0.85307 0.0
C4425 C 0.07655 0.11076 0.84412 0.0
C4426 C 0.07527 0.10534 0.83644 0.0
C4427 C 0.07813 0.1084 0.82801 0.0
C4428 C 0.08233 0.11684 0.8272 0.0
C4429 C 0.0837 0.12222 0.83481 0.0
C4430 C 0.08085 0.1192 0.84325 0.0
C4431 C 0.09351 0.09502 0.88631 0.0
C4432 C 0.09814 0.10297 0.88881 0.0
C4433 C 0.0867 0.09529 0.8798 0.0
C4434 C 0.08439 0.10349 0.87567 0.0
C4435 C 0.089 0.11142 0.87816 0.0
C4436 C 0.09578 0.11117 0.88468 0.0
C4437 C 0.07735 0.10383 0.86859 0.0
C4438 C 0.07975 0.10718 0.8601 0.0
C4439 C 0.0684 0.10078 0.87009 0.0
C4440 C 0.06537 0.09743 0.87899 0.0
C4441 C 0.0663 0.10286 0.88671 0.0
C4442 C 0.06347 0.09964 0.89509 0.0
C4443 C 0.05964 0.09102 0.89581 0.0
C4444 C 0.0586 0.08562 0.88816 0.0
C4445 C 0.06143 0.08881 0.87977 0.0
H4446 H 0.05745 0.08854 0.9023 0.0
H4447 H 0.08453 0.11919 0.82067 0.0
H4448 H 0.98099 0.3964 0.84267 0.0
H4449 H 0.96995 0.39838 0.85472 0.0
H4450 H 0.95361 0.41491 0.83729 0.0
H4451 H 0.96477 0.41317 0.82527 0.0
H4452 H 0.95467 0.42204 0.85409 0.0
H4453 H 0.94792 0.39321 0.84092 0.0
H4454 H 0.95119 0.37779 0.83552 0.0
H4455 H 0.95916 0.36996 0.86213 0.0
H4456 H 0.95605 0.38538 0.86768 0.0
H4457 H 0.91306 0.41853 0.87813 0.0
H4458 H 0.92505 0.41801 0.86686 0.0
H4459 H 0.94161 0.40243 0.88493 0.0
H4460 H 0.92974 0.40311 0.89634 0.0
H4461 H 0.9406 0.39496 0.86799 0.0
H4462 H 0.94683 0.42394 0.88116 0.0
H4463 H 0.94323 0.43935 0.88636 0.0
H4464 H 0.93581 0.44688 0.85951 0.0
H4465 H 0.93924 0.43147 0.85415 0.0
C4466 C 0.97511 0.40055 0.84143 0.0
C4467 C 0.97374 0.40461 0.833 0.0
C4468 C 0.96876 0.40161 0.8483 0.0
C4469 C 0.96091 0.4067 0.84687 0.0
C4470 C 0.95961 0.41093 0.83853 0.0
C4471 C 0.96595 0.40986 0.83165 0.0
C4472 C 0.95397 0.40749 0.85402 0.0
C4473 C 0.95151 0.41613 0.85706 0.0
C4474 C 0.94998 0.39976 0.858 0.0
C4475 C 0.95185 0.39048 0.85469 0.0
C4476 C 0.95044 0.38822 0.84561 0.0
C4477 C 0.95225 0.37948 0.84252 0.0
C4478 C 0.9554 0.37291 0.84847 0.0
C4479 C 0.95673 0.37506 0.85753 0.0
C4480 C 0.95494 0.3838 0.86065 0.0
C4481 C 0.91931 0.41514 0.87979 0.0
C4482 C 0.92042 0.41086 0.88816 0.0
C4483 C 0.92615 0.41482 0.87332 0.0
C4484 C 0.93423 0.41021 0.87508 0.0
C4485 C 0.93541 0.406 0.88344 0.0
C4486 C 0.92859 0.40636 0.88993 0.0
C4487 C 0.94132 0.40951 0.86808 0.0
C4488 C 0.94378 0.40087 0.86505 0.0
C4489 C 0.94527 0.41724 0.86408 0.0
C4490 C 0.94321 0.42652 0.86727 0.0
C4491 C 0.94435 0.42886 0.87637 0.0
C4492 C 0.94236 0.4376 0.87935 0.0
C4493 C 0.93927 0.44408 0.87327 0.0
C4494 C 0.93819 0.44185 0.86421 0.0
C4495 C 0.94017 0.43311 0.8612 0.0
H4496 H 0.93773 0.45085 0.87559 0.0
H4497 H 0.9568 0.36614 0.84607 0.0
H4498 H 0.91739 0.69062 0.04866 0.0
H4499 H 0.9202 0.67667 0.05706 0.0
H4500 H 0.89519 0.68036 0.07151 0.0
H4501 H 0.89237 0.69428 0.06319 0.0
H4502 H 0.90841 0.67625 0.08273 0.0
H4503 H 0.89734 0.66465 0.05452 0.0
H4504 H 0.89711 0.6627 0.03805 0.0
H4505 H 0.92391 0.65168 0.03881 0.0
H4506 H 0.92435 0.65368 0.05528 0.0
H4507 H 0.89963 0.63359 0.1012 0.0
H4508 H 0.89888 0.64668 0.09125 0.0
H4509 H 0.92623 0.64176 0.08253 0.0
H4510 H 0.92703 0.62855 0.0925 0.0
H4511 H 0.91354 0.64641 0.0683 0.0
H4512 H 0.92402 0.6573 0.09684 0.0
H4513 H 0.92374 0.65891 0.11333 0.0
H4514 H 0.89749 0.67112 0.11187 0.0
H4515 H 0.89755 0.66944 0.09537 0.0
C4516 C 0.91246 0.6884 0.05358 0.0
C4517 C 0.90468 0.69357 0.0553 0.0
C4518 C 0.91407 0.68044 0.05837 0.0
C4519 C 0.90788 0.67744 0.06488 0.0
C4520 C 0.90009 0.68257 0.06655 0.0
C4521 C 0.8985 0.69053 0.06181 0.0
C4522 C 0.90954 0.6691 0.07014 0.0
C4523 C 0.90945 0.66972 0.07956 0.0
C4524 C 0.91116 0.66062 0.06601 0.0
C4525 C 0.91092 0.65942 0.05612 0.0
C4526 C 0.90321 0.66189 0.05116 0.0
C4527 C 0.90304 0.66076 0.04183 0.0
C4528 C 0.9105 0.6571 0.03738 0.0
C4529 C 0.91815 0.65454 0.04226 0.0
C4530 C 0.91836 0.65566 0.0516 0.0
C4531 C 0.90544 0.63519 0.09706 0.0
C4532 C 0.91339 0.63005 0.09763 0.0
C4533 C 0.90502 0.6427 0.09143 0.0
C4534 C 0.91252 0.6452 0.08622 0.0
C4535 C 0.92038 0.63992 0.08652 0.0
C4536 C 0.92084 0.63244 0.09224 0.0
C4537 C 0.91221 0.65359 0.08083 0.0
C4538 C 0.91258 0.65297 0.07143 0.0
C4539 C 0.9108 0.66209 0.08495 0.0
C4540 C 0.91076 0.66318 0.09487 0.0
C4541 C 0.91816 0.66026 0.10004 0.0
C4542 C 0.91804 0.6612 0.10939 0.0
C4543 C 0.91059 0.6651 0.11365 0.0
C4544 C 0.90325 0.66809 0.10856 0.0
C4545 C 0.90333 0.66716 0.09921 0.0
H4546 H 0.91051 0.66582 0.12089 0.0
H4547 H 0.91035 0.65623 0.03016 0.0
H4548 H 0.5372 0.59357 0.33915 0.0
H4549 H 0.54894 0.59164 0.35059 0.0
H4550 H 0.56099 0.61704 0.34275 0.0
H4551 H 0.54932 0.61898 0.33132 0.0
H4552 H 0.5736 0.60453 0.34464 0.0
H4553 H 0.54821 0.61495 0.36199 0.0
H4554 H 0.53253 0.61462 0.36761 0.0
H4555 H 0.53693 0.5883 0.37889 0.0
H4556 H 0.55261 0.58841 0.37321 0.0
H4557 H 0.60084 0.6156 0.38197 0.0
H4558 H 0.58864 0.61531 0.37088 0.0
H4559 H 0.58166 0.58815 0.37887 0.0
H4560 H 0.5939 0.5884 0.39004 0.0
H4561 H 0.56655 0.59998 0.37694 0.0
H4562 H 0.59246 0.59025 0.36031 0.0
H4563 H 0.6082 0.59107 0.35492 0.0
H4564 H 0.60279 0.61664 0.34245 0.0
H4565 H 0.58705 0.61605 0.34789 0.0
C4566 C 0.54231 0.59877 0.33992 0.0
C4567 C 0.54235 0.60642 0.33432 0.0
C4568 C 0.54902 0.59766 0.34646 0.0
C4569 C 0.55581 0.60423 0.34757 0.0
C4570 C 0.55584 0.61187 0.34199 0.0
C4571 C 0.54918 0.61296 0.33544 0.0
C4572 C 0.56298 0.60316 0.35447 0.0
C4573 C 0.57204 0.60362 0.35171 0.0
C4574 C 0.56096 0.60172 0.36366 0.0
C4575 C 0.55155 0.60164 0.36709 0.0
C4576 C 0.54581 0.60906 0.3656 0.0
C4577 C 0.53693 0.60892 0.36881 0.0
C4578 C 0.53373 0.60143 0.37358 0.0
C4579 C 0.53942 0.59408 0.37517 0.0
C4580 C 0.5483 0.59418 0.37197 0.0
C4581 C 0.59666 0.60959 0.38142 0.0
C4582 C 0.5983 0.60202 0.38686 0.0
C4583 C 0.58974 0.60942 0.37505 0.0
C4584 C 0.5843 0.60169 0.37403 0.0
C4585 C 0.5858 0.59417 0.37956 0.0
C4586 C 0.59281 0.5943 0.38588 0.0
C4587 C 0.57712 0.60152 0.36711 0.0
C4588 C 0.56807 0.60081 0.36985 0.0
C4589 C 0.57914 0.60278 0.3579 0.0
C4590 C 0.58859 0.60314 0.35458 0.0
C4591 C 0.59465 0.59609 0.35648 0.0
C4592 C 0.60357 0.5965 0.35341 0.0
C4593 C 0.6065 0.60391 0.34836 0.0
C4594 C 0.60051 0.61091 0.34637 0.0
C4595 C 0.59159 0.61054 0.34944 0.0
H4596 H 0.61341 0.60422 0.34599 0.0
H4597 H 0.52685 0.60134 0.37606 0.0
H4598 H 0.91724 0.32226 0.4592 0.0
H4599 H 0.91963 0.33641 0.45095 0.0
H4600 H 0.8926 0.34491 0.4577 0.0
H4601 H 0.89017 0.3308 0.46594 0.0
H4602 H 0.89665 0.34622 0.43941 0.0
H4603 H 0.90958 0.35493 0.46774 0.0
H4604 H 0.91968 0.35344 0.48083 0.0
H4605 H 0.94285 0.35474 0.46349 0.0
H4606 H 0.93287 0.3561 0.45027 0.0
H4607 H 0.89894 0.38982 0.42135 0.0
H4608 H 0.89736 0.3777 0.43231 0.0
H4609 H 0.92534 0.37052 0.42847 0.0
H4610 H 0.92712 0.38298 0.41784 0.0
H4611 H 0.92079 0.36874 0.44571 0.0
H4612 H 0.90839 0.35916 0.41747 0.0
H4613 H 0.89867 0.36022 0.40405 0.0
H4614 H 0.87502 0.35986 0.42077 0.0
H4615 H 0.88461 0.35893 0.43431 0.0
C4616 C 0.91183 0.32718 0.45895 0.0
C4617 C 0.90352 0.32544 0.4632 0.0
C4618 C 0.91322 0.33526 0.4543 0.0
C4619 C 0.9063 0.34171 0.45377 0.0
C4620 C 0.89803 0.34003 0.45807 0.0
C4621 C 0.89667 0.332 0.4628 0.0
C4622 C 0.90751 0.34999 0.44831 0.0
C4623 C 0.90183 0.35122 0.44087 0.0
C4624 C 0.91446 0.35634 0.45007 0.0
C4625 C 0.92047 0.35553 0.45801 0.0
C4626 C 0.91682 0.35481 0.46671 0.0
C4627 C 0.92253 0.35401 0.47415 0.0
C4628 C 0.9319 0.35397 0.47299 0.0
C4629 C 0.93559 0.35476 0.46438 0.0
C4630 C 0.92991 0.35555 0.45691 0.0
C4631 C 0.90483 0.38583 0.42298 0.0
C4632 C 0.91314 0.38735 0.41863 0.0
C4633 C 0.90388 0.37882 0.42918 0.0
C4634 C 0.91118 0.37308 0.43106 0.0
C4635 C 0.91959 0.37482 0.42707 0.0
C4636 C 0.92057 0.38189 0.42092 0.0
C4637 C 0.90989 0.36499 0.43683 0.0
C4638 C 0.91558 0.36376 0.44428 0.0
C4639 C 0.90301 0.35856 0.43504 0.0
C4640 C 0.89722 0.35907 0.42691 0.0
C4641 C 0.90112 0.35938 0.41829 0.0
C4642 C 0.89563 0.35994 0.41066 0.0
C4643 C 0.88623 0.36013 0.41156 0.0
C4644 C 0.8823 0.35973 0.42009 0.0
C4645 C 0.88775 0.35918 0.42774 0.0
H4646 H 0.882 0.36057 0.40564 0.0
H4647 H 0.9363 0.35335 0.47877 0.0
H4648 H 0.62926 0.68515 0.96073 0.0
H4649 H 0.62641 0.67135 0.95213 0.0
H4650 H 0.59803 0.67294 0.9586 0.0
H4651 H 0.60086 0.68677 0.9673 0.0
H4652 H 0.60401 0.65563 0.9594 0.0
H4653 H 0.6054 0.67991 0.93833 0.0
H4654 H 0.61186 0.69343 0.93106 0.0
H4655 H 0.63533 0.67826 0.92338 0.0
H4656 H 0.62906 0.66468 0.93073 0.0
H4657 H 0.59119 0.62553 0.92327 0.0
H4658 H 0.59263 0.63831 0.93372 0.0
H4659 H 0.62151 0.63848 0.92971 0.0
H4660 H 0.62011 0.6259 0.91916 0.0
H4661 H 0.61412 0.65514 0.9276 0.0
H4662 H 0.61254 0.63082 0.94911 0.0
H4663 H 0.60573 0.61742 0.9563 0.0
H4664 H 0.58204 0.63278 0.96284 0.0
H4665 H 0.58866 0.64625 0.95556 0.0
C4666 C 0.62241 0.68257 0.96031 0.0
C4667 C 0.61526 0.6871 0.96459 0.0
C4668 C 0.62079 0.67468 0.95541 0.0
C4669 C 0.61198 0.67121 0.95459 0.0
C4670 C 0.60488 0.67552 0.95913 0.0
C4671 C 0.6065 0.68341 0.96409 0.0
C4672 C 0.61022 0.66327 0.94873 0.0
C4673 C 0.6061 0.65555 0.95241 0.0
C4674 C 0.61302 0.66315 0.93963 0.0
C4675 C 0.61679 0.6713 0.93515 0.0
C4676 C 0.61197 0.67948 0.93515 0.0
C4677 C 0.61559 0.68715 0.931 0.0
C4678 C 0.62401 0.68671 0.92678 0.0
C4679 C 0.62882 0.67859 0.92667 0.0
C4680 C 0.62523 0.6709 0.93081 0.0
C4681 C 0.59784 0.62828 0.92465 0.0
C4682 C 0.60554 0.6247 0.92039 0.0
C4683 C 0.59866 0.63552 0.93067 0.0
C4684 C 0.60718 0.63931 0.93251 0.0
C4685 C 0.61487 0.63564 0.92839 0.0
C4686 C 0.61407 0.6284 0.92242 0.0
C4687 C 0.6081 0.64742 0.93832 0.0
C4688 C 0.61201 0.65521 0.93459 0.0
C4689 C 0.60504 0.6476 0.94733 0.0
C4690 C 0.60106 0.63951 0.9517 0.0
C4691 C 0.60585 0.63132 0.95201 0.0
C4692 C 0.60203 0.62372 0.95611 0.0
C4693 C 0.59345 0.62424 0.96 0.0
C4694 C 0.58868 0.63238 0.95981 0.0
C4695 C 0.59246 0.64 0.9557 0.0
H4696 H 0.5905 0.61835 0.96318 0.0
H4697 H 0.62681 0.69266 0.92357 0.0
H4698 H 0.80374 0.57385 0.8531 0.0
H4699 H 0.81495 0.58577 0.85069 0.0
H4700 H 0.79608 0.60565 0.86049 0.0
H4701 H 0.78485 0.59375 0.86303 0.0
H4702 H 0.80505 0.61151 0.84548 0.0
H4703 H 0.81255 0.59829 0.87396 0.0
H4704 H 0.81614 0.58586 0.88438 0.0
H4705 H 0.83961 0.57924 0.86874 0.0
H4706 H 0.83608 0.59155 0.85814 0.0
H4707 H 0.83633 0.6471 0.85473 0.0
H4708 H 0.82467 0.63536 0.85541 0.0
H4709 H 0.84404 0.6155 0.84658 0.0
H4710 H 0.8558 0.62714 0.84616 0.0
H4711 H 0.83477 0.60958 0.86081 0.0
H4712 H 0.82749 0.62311 0.8325 0.0
H4713 H 0.82387 0.63556 0.82213 0.0
H4714 H 0.80005 0.64168 0.83744 0.0
H4715 H 0.8036 0.62934 0.84799 0.0
C4716 C 0.80199 0.58075 0.85479 0.0
C4717 C 0.79342 0.58283 0.85832 0.0
C4718 C 0.80839 0.58756 0.85338 0.0
C4719 C 0.80638 0.59658 0.85551 0.0
C4720 C 0.79776 0.59873 0.8588 0.0
C4721 C 0.79135 0.59192 0.86022 0.0
C4722 C 0.81334 0.60374 0.85449 0.0
C4723 C 0.81152 0.61115 0.8489 0.0
C4724 C 0.82184 0.60317 0.85883 0.0
C4725 C 0.82399 0.59578 0.86521 0.0
C4726 C 0.81843 0.59413 0.8727 0.0
C4727 C 0.82046 0.58712 0.87864 0.0
C4728 C 0.82808 0.58175 0.87721 0.0
C4729 C 0.8337 0.5834 0.86983 0.0
C4730 C 0.83169 0.5904 0.86386 0.0
C4731 C 0.83811 0.64023 0.85293 0.0
C4732 C 0.847 0.63805 0.85039 0.0
C4733 C 0.83142 0.63354 0.85324 0.0
C4734 C 0.83347 0.62456 0.85098 0.0
C4735 C 0.84231 0.62239 0.84833 0.0
C4736 C 0.849 0.62907 0.84802 0.0
C4737 C 0.82651 0.61735 0.85176 0.0
C4738 C 0.82833 0.60993 0.85734 0.0
C4739 C 0.81802 0.61793 0.84742 0.0
C4740 C 0.81586 0.62535 0.84108 0.0
C4741 C 0.82152 0.62716 0.8337 0.0
C4742 C 0.81947 0.63419 0.82778 0.0
C4743 C 0.81175 0.63943 0.82914 0.0
C4744 C 0.80604 0.63763 0.8364 0.0
C4745 C 0.80806 0.63061 0.84235 0.0
H4746 H 0.81018 0.64486 0.82454 0.0
H4747 H 0.82965 0.57633 0.88182 0.0
H4748 H 0.22298 0.0839 0.65017 0.0
H4749 H 0.21455 0.09783 0.65298 0.0
H4750 H 0.19258 0.08224 0.66416 0.0
H4751 H 0.201 0.06831 0.6615 0.0
H4752 H 0.18681 0.09412 0.65158 0.0
H4753 H 0.20611 0.09472 0.67759 0.0
H4754 H 0.22065 0.09451 0.68569 0.0
H4755 H 0.22907 0.11858 0.67189 0.0
H4756 H 0.21462 0.11887 0.66361 0.0
H4757 H 0.15958 0.1276 0.67049 0.0
H4758 H 0.17003 0.11497 0.66907 0.0
H4759 H 0.19003 0.13269 0.6574 0.0
H4760 H 0.17964 0.1455 0.65901 0.0
H4761 H 0.19742 0.12036 0.66963 0.0
H4762 H 0.17813 0.11996 0.64384 0.0
H4763 H 0.1636 0.12028 0.63572 0.0
H4764 H 0.15532 0.09582 0.64892 0.0
H4765 H 0.16975 0.09543 0.65722 0.0
C4766 C 0.21643 0.08345 0.65337 0.0
C4767 C 0.21264 0.07499 0.65556 0.0
C4768 C 0.21161 0.09141 0.65496 0.0
C4769 C 0.20295 0.09106 0.65879 0.0
C4770 C 0.19924 0.08265 0.66115 0.0
C4771 C 0.20405 0.0747 0.65959 0.0
C4772 C 0.19751 0.09939 0.65992 0.0
C4773 C 0.18909 0.09981 0.65562 0.0
C4774 C 0.20062 0.10692 0.66494 0.0
C4775 C 0.20932 0.10676 0.66991 0.0
C4776 C 0.21109 0.09992 0.67622 0.0
C4777 C 0.21931 0.0998 0.68086 0.0
C4778 C 0.22579 0.10651 0.67928 0.0
C4779 C 0.22405 0.11337 0.67309 0.0
C4780 C 0.21584 0.11353 0.66843 0.0
C4781 C 0.16626 0.12888 0.66778 0.0
C4782 C 0.16878 0.13757 0.66485 0.0
C4783 C 0.1722 0.12163 0.66691 0.0
C4784 C 0.18075 0.12288 0.66303 0.0
C4785 C 0.18344 0.13159 0.66038 0.0
C4786 C 0.17748 0.13887 0.66124 0.0
C4787 C 0.18667 0.11498 0.66142 0.0
C4788 C 0.19518 0.11467 0.66557 0.0
C4789 C 0.18366 0.10753 0.65623 0.0
C4790 C 0.17499 0.10771 0.65121 0.0
C4791 C 0.17318 0.11469 0.64506 0.0
C4792 C 0.16497 0.11487 0.64042 0.0
C4793 C 0.15853 0.10808 0.64182 0.0
C4794 C 0.16031 0.10108 0.64785 0.0
C4795 C 0.16851 0.10087 0.65252 0.0
H4796 H 0.15218 0.10824 0.63822 0.0
H4797 H 0.23215 0.1064 0.68288 0.0
H4798 H 0.70859 0.43746 0.37742 0.0
H4799 H 0.70085 0.42313 0.37458 0.0
H4800 H 0.70975 0.42373 0.34697 0.0
H4801 H 0.71742 0.43821 0.34975 0.0
H4802 H 0.69171 0.41979 0.3485 0.0
H4803 H 0.71925 0.40906 0.36103 0.0
H4804 H 0.73174 0.40827 0.37197 0.0
H4805 H 0.71306 0.40059 0.39271 0.0
H4806 H 0.70043 0.40147 0.38192 0.0
H4807 H 0.67239 0.37612 0.34176 0.0
H4808 H 0.68377 0.38818 0.34241 0.0
H4809 H 0.67884 0.39136 0.37082 0.0
H4810 H 0.66751 0.37934 0.37022 0.0
H4811 H 0.69657 0.39251 0.36724 0.0
H4812 H 0.66899 0.40528 0.35526 0.0
H4813 H 0.65634 0.40631 0.3445 0.0
H4814 H 0.67512 0.41034 0.32285 0.0
H4815 H 0.68789 0.40921 0.33347 0.0
C4816 C 0.70888 0.43456 0.37074 0.0
C4817 C 0.71358 0.43897 0.3638 0.0
C4818 C 0.70453 0.42632 0.36914 0.0
C4819 C 0.70481 0.42232 0.36059 0.0
C4820 C 0.7095 0.42669 0.35363 0.0
C4821 C 0.71391 0.43492 0.35524 0.0
C4822 C 0.69984 0.41377 0.35888 0.0
C4823 C 0.6929 0.41376 0.35246 0.0
C4824 C 0.7013 0.40596 0.36416 0.0
C4825 C 0.70888 0.40539 0.37068 0.0
C4826 C 0.71779 0.40727 0.36794 0.0
C4827 C 0.7249 0.40679 0.37411 0.0
C4828 C 0.72319 0.4044 0.38303 0.0
C4829 C 0.71437 0.40245 0.3858 0.0
C4830 C 0.70724 0.40292 0.37965 0.0
C4831 C 0.67376 0.37938 0.34814 0.0
C4832 C 0.66902 0.37681 0.35593 0.0
C4833 C 0.68027 0.38626 0.34851 0.0
C4834 C 0.68207 0.39075 0.35664 0.0
C4835 C 0.67758 0.38797 0.36448 0.0
C4836 C 0.67111 0.38108 0.36413 0.0
C4837 C 0.68832 0.39861 0.357 0.0
C4838 C 0.69548 0.3985 0.36317 0.0
C4839 C 0.68705 0.40632 0.35151 0.0
C4840 C 0.67939 0.40705 0.34514 0.0
C4841 C 0.67042 0.40632 0.34819 0.0
C4842 C 0.66323 0.40693 0.34212 0.0
C4843 C 0.66493 0.40836 0.33299 0.0
C4844 C 0.67382 0.40921 0.32992 0.0
C4845 C 0.68103 0.40859 0.33596 0.0
H4846 H 0.65936 0.40883 0.32831 0.0
H4847 H 0.72871 0.40403 0.3878 0.0
H4848 H 0.29976 0.93697 0.14416 0.0
H4849 H 0.31078 0.92478 0.14545 0.0
H4850 H 0.29679 0.91455 0.16877 0.0
H4851 H 0.28585 0.92691 0.16767 0.0
H4852 H 0.31511 0.91485 0.17116 0.0
H4853 H 0.29428 0.90411 0.14882 0.0
H4854 H 0.28526 0.90502 0.13491 0.0
H4855 H 0.30955 0.90793 0.11936 0.0
H4856 H 0.31871 0.90718 0.13319 0.0
H4857 H 0.33963 0.8735 0.17184 0.0
H4858 H 0.32746 0.88468 0.17141 0.0
H4859 H 0.33816 0.89531 0.14658 0.0
H4860 H 0.35017 0.88401 0.14688 0.0
H4861 H 0.32065 0.89419 0.14543 0.0
H4862 H 0.34146 0.9059 0.16753 0.0
H4863 H 0.35071 0.90538 0.18132 0.0
H4864 H 0.32682 0.90107 0.19716 0.0
H4865 H 0.31744 0.90144 0.18345 0.0
C4866 C 0.29907 0.93218 0.14962 0.0
C4867 C 0.29193 0.9329 0.15582 0.0
C4868 C 0.30532 0.92517 0.1503 0.0
C4869 C 0.30453 0.9187 0.15714 0.0
C4870 C 0.29749 0.91945 0.16342 0.0
C4871 C 0.29121 0.92647 0.16274 0.0
C4872 C 0.31109 0.91117 0.15773 0.0
C4873 C 0.31623 0.91024 0.16559 0.0
C4874 C 0.31267 0.90527 0.15039 0.0
C4875 C 0.30718 0.90566 0.14205 0.0
C4876 C 0.29769 0.90501 0.14244 0.0
C4877 C 0.29256 0.90549 0.13457 0.0
C4878 C 0.29683 0.90655 0.12626 0.0
C4879 C 0.30625 0.90712 0.1258 0.0
C4880 C 0.31142 0.90665 0.13365 0.0
C4881 C 0.33938 0.87825 0.16631 0.0
C4882 C 0.34584 0.8779 0.1594 0.0
C4883 C 0.33244 0.88464 0.16608 0.0
C4884 C 0.33196 0.89093 0.15902 0.0
C4885 C 0.33837 0.89053 0.15208 0.0
C4886 C 0.34523 0.88407 0.15225 0.0
C4887 C 0.32479 0.89794 0.15882 0.0
C4888 C 0.31951 0.89877 0.15103 0.0
C4889 C 0.32314 0.90378 0.16621 0.0
C4890 C 0.32876 0.9036 0.17446 0.0
C4891 C 0.33819 0.90477 0.17395 0.0
C4892 C 0.34345 0.90452 0.18175 0.0
C4893 C 0.33936 0.90317 0.19011 0.0
C4894 C 0.32999 0.9021 0.19068 0.0
C4895 C 0.32469 0.90234 0.1829 0.0
H4896 H 0.34344 0.90297 0.19614 0.0
H4897 H 0.29284 0.90692 0.12017 0.0
H4898 H 0.80023 0.44007 0.66349 0.0
H4899 H 0.81122 0.42791 0.66539 0.0
H4900 H 0.79393 0.4098 0.65042 0.0
H4901 H 0.78292 0.42194 0.64845 0.0
H4902 H 0.80096 0.40161 0.66516 0.0
H4903 H 0.81208 0.41937 0.64049 0.0
H4904 H 0.81691 0.43337 0.63286 0.0
H4905 H 0.83794 0.4372 0.6524 0.0
H4906 H 0.83316 0.42329 0.66023 0.0
H4907 H 0.83375 0.3678 0.65534 0.0
H4908 H 0.82215 0.37952 0.65456 0.0
H4909 H 0.83977 0.39802 0.66868 0.0
H4910 H 0.85152 0.38648 0.66917 0.0
H4911 H 0.83245 0.40597 0.6545 0.0
H4912 H 0.82151 0.38809 0.67909 0.0
H4913 H 0.81667 0.37412 0.68675 0.0
H4914 H 0.79537 0.37047 0.66746 0.0
H4915 H 0.80016 0.38436 0.6596 0.0
C4916 C 0.79879 0.43351 0.66057 0.0
C4917 C 0.79073 0.43199 0.65577 0.0
C4918 C 0.80506 0.42657 0.66168 0.0
C4919 C 0.80343 0.41798 0.65796 0.0
C4920 C 0.79531 0.41637 0.65335 0.0
C4921 C 0.78902 0.42331 0.65225 0.0
C4922 C 0.81029 0.41073 0.65872 0.0
C4923 C 0.80782 0.40251 0.66273 0.0
C4924 C 0.81929 0.41199 0.65572 0.0
C4925 C 0.8222 0.42034 0.651 0.0
C4926 C 0.81769 0.42324 0.6432 0.0
C4927 C 0.82043 0.43115 0.63883 0.0
C4928 C 0.82771 0.43618 0.64216 0.0
C4929 C 0.83229 0.4333 0.64984 0.0
C4930 C 0.82958 0.4254 0.65424 0.0
C4931 C 0.83517 0.37437 0.65826 0.0
C4932 C 0.84357 0.3762 0.66233 0.0
C4933 C 0.8285 0.38104 0.65789 0.0
C4934 C 0.83006 0.38962 0.66164 0.0
C4935 C 0.83841 0.39143 0.66576 0.0
C4936 C 0.84508 0.3848 0.66612 0.0
C4937 C 0.82315 0.39684 0.66098 0.0
C4938 C 0.8256 0.40506 0.65696 0.0
C4939 C 0.81415 0.39557 0.66398 0.0
C4940 C 0.81125 0.38722 0.6687 0.0
C4941 C 0.81584 0.38427 0.67643 0.0
C4942 C 0.8131 0.37637 0.68082 0.0
C4943 C 0.80574 0.3714 0.67758 0.0
C4944 C 0.80108 0.37433 0.66996 0.0
C4945 C 0.8038 0.38222 0.66554 0.0
H4946 H 0.80363 0.36528 0.68099 0.0
H4947 H 0.82982 0.44231 0.63877 0.0
H4948 H 0.29921 0.08184 0.37328 0.0
H4949 H 0.31007 0.09416 0.37125 0.0
H4950 H 0.30058 0.09802 0.34411 0.0
H4951 H 0.28977 0.08557 0.34605 0.0
H4952 H 0.31929 0.09818 0.34538 0.0
H4953 H 0.2942 0.11253 0.35977 0.0
H4954 H 0.28238 0.11442 0.3713 0.0
H4955 H 0.30274 0.11681 0.39176 0.0
H4956 H 0.31468 0.1148 0.38036 0.0
H4957 H 0.34329 0.1399 0.34032 0.0
H4958 H 0.33132 0.12842 0.34072 0.0
H4959 H 0.3369 0.12365 0.36879 0.0
H4960 H 0.34879 0.13513 0.36843 0.0
H4961 H 0.31927 0.12454 0.36607 0.0
H4962 H 0.34427 0.10916 0.35209 0.0
H4963 H 0.35624 0.10695 0.34077 0.0
H4964 H 0.3363 0.10622 0.31981 0.0
H4965 H 0.32421 0.10855 0.33099 0.0
C4966 C 0.29948 0.08526 0.36685 0.0
C4967 C 0.29363 0.08274 0.35982 0.0
C4968 C 0.30563 0.09234 0.36573 0.0
C4969 C 0.30606 0.09706 0.35756 0.0
C4970 C 0.30033 0.09449 0.35047 0.0
C4971 C 0.29412 0.08743 0.35161 0.0
C4972 C 0.31252 0.10465 0.35646 0.0
C4973 C 0.31921 0.10403 0.3498 0.0
C4974 C 0.31249 0.11218 0.36234 0.0
C4975 C 0.30533 0.11344 0.36921 0.0
C4976 C 0.29615 0.11339 0.36673 0.0
C4977 C 0.28944 0.11449 0.37325 0.0
C4978 C 0.29181 0.11571 0.38226 0.0
C4979 C 0.30091 0.11586 0.38478 0.0
C4980 C 0.30766 0.11475 0.37829 0.0
C4981 C 0.34198 0.13637 0.34656 0.0
C4982 C 0.34697 0.13843 0.35435 0.0
C4983 C 0.33514 0.12981 0.34678 0.0
C4984 C 0.33326 0.12512 0.35477 0.0
C4985 C 0.3382 0.12721 0.36256 0.0
C4986 C 0.34498 0.13379 0.36235 0.0
C4987 C 0.32616 0.11801 0.35509 0.0
C4988 C 0.31933 0.11873 0.3616 0.0
C4989 C 0.32609 0.11055 0.3491 0.0
C4990 C 0.33334 0.10913 0.34237 0.0
C4991 C 0.34244 0.1086 0.34506 0.0
C4992 C 0.34925 0.10732 0.33867 0.0
C4993 C 0.34703 0.10648 0.32957 0.0
C4994 C 0.338 0.10689 0.32685 0.0
C4995 C 0.33117 0.10819 0.33321 0.0
H4996 H 0.35231 0.10548 0.32464 0.0
H4997 H 0.2866 0.11657 0.38729 0.0
H4998 H 0.72377 0.5836 0.15908 0.0
H4999 H 0.71522 0.59764 0.16046 0.0
H5000 H 0.69044 0.58301 0.15538 0.0
H5001 H 0.69896 0.56909 0.15347 0.0
H5002 H 0.69063 0.59776 0.14592 0.0
H5003 H 0.69696 0.59052 0.17686 0.0
H5004 H 0.70664 0.58701 0.18989 0.0
H5005 H 0.72034 0.61248 0.18692 0.0
H5006 H 0.71081 0.6161 0.17379 0.0
H5007 H 0.65696 0.62624 0.16338 0.0
H5008 H 0.66798 0.61407 0.1617 0.0
H5009 H 0.68961 0.63368 0.16082 0.0
H5010 H 0.67854 0.64597 0.16246 0.0
H5011 H 0.69242 0.61785 0.17262 0.0
H5012 H 0.68474 0.62536 0.14225 0.0
H5013 H 0.67436 0.62867 0.12973 0.0
H5014 H 0.66253 0.60224 0.13219 0.0
H5015 H 0.67275 0.59881 0.14483 0.0
C5016 C 0.7165 0.58338 0.15819 0.0
C5017 C 0.71206 0.57518 0.15617 0.0
C5018 C 0.71161 0.5914 0.15909 0.0
C5019 C 0.70217 0.59138 0.15811 0.0
C5020 C 0.69772 0.58321 0.15617 0.0
C5021 C 0.7026 0.57521 0.15519 0.0
C5022 C 0.69687 0.59987 0.15886 0.0
C5023 C 0.69098 0.60209 0.1518 0.0
C5024 C 0.69752 0.6057 0.1664 0.0
C5025 C 0.70325 0.60353 0.17428 0.0
C5026 C 0.70209 0.59534 0.17894 0.0
C5027 C 0.70754 0.59334 0.18635 0.0
C5028 C 0.71412 0.5995 0.18921 0.0
C5029 C 0.71525 0.6077 0.18468 0.0
C5030 C 0.70982 0.60973 0.17726 0.0
C5031 C 0.66407 0.62796 0.1629 0.0
C5032 C 0.66691 0.63703 0.16307 0.0
C5033 C 0.67034 0.62102 0.1619 0.0
C5034 C 0.67958 0.623 0.16111 0.0
C5035 C 0.68249 0.63204 0.16143 0.0
C5036 C 0.67618 0.63903 0.16231 0.0
C5037 C 0.68608 0.61555 0.1598 0.0
C5038 C 0.69219 0.61354 0.16672 0.0
C5039 C 0.68558 0.60985 0.15218 0.0
C5040 C 0.67947 0.61186 0.14453 0.0
C5041 C 0.67987 0.62028 0.14017 0.0
C5042 C 0.67403 0.62217 0.13304 0.0
C5043 C 0.66777 0.61568 0.13017 0.0
C5044 C 0.66737 0.60727 0.13442 0.0
C5045 C 0.6732 0.60534 0.14156 0.0
H5046 H 0.66325 0.61716 0.12465 0.0
H5047 H 0.71832 0.59794 0.19495 0.0
H5048 H 0.22049 0.93108 0.86708 0.0
H5049 H 0.2118 0.9173 0.8641 0.0
H5050 H 0.19209 0.93284 0.84944 0.0
H5051 H 0.20078 0.94663 0.85231 0.0
H5052 H 0.18424 0.92207 0.86174 0.0
H5053 H 0.20661 0.91877 0.83856 0.0
H5054 H 0.22205 0.91793 0.8324 0.0
H5055 H 0.22759 0.89486 0.84896 0.0
H5056 H 0.21221 0.89564 0.85533 0.0
H5057 H 0.15783 0.88677 0.84454 0.0
H5058 H 0.16835 0.89948 0.84512 0.0
H5059 H 0.18743 0.88319 0.85978 0.0
H5060 H 0.17706 0.87026 0.85892 0.0
H5061 H 0.19591 0.89406 0.84752 0.0
H5062 H 0.17394 0.89745 0.87095 0.0
H5063 H 0.15861 0.89818 0.8774 0.0
H5064 H 0.15254 0.92109 0.8608 0.0
H5065 H 0.1678 0.92041 0.85415 0.0
C5066 C 0.2144 0.93154 0.86308 0.0
C5067 C 0.21131 0.93996 0.85996 0.0
C5068 C 0.20943 0.92366 0.86139 0.0
C5069 C 0.20131 0.92404 0.85652 0.0
C5070 C 0.19832 0.9324 0.85324 0.0
C5071 C 0.20327 0.94028 0.85492 0.0
C5072 C 0.19566 0.91583 0.85527 0.0
C5073 C 0.18675 0.916 0.8585 0.0
C5074 C 0.19904 0.90781 0.85131 0.0
C5075 C 0.20828 0.90732 0.84749 0.0
C5076 C 0.21114 0.91356 0.84095 0.0
C5077 C 0.21988 0.91309 0.83741 0.0
C5078 C 0.22581 0.90636 0.8403 0.0
C5079 C 0.223 0.90008 0.84673 0.0
C5080 C 0.21427 0.90053 0.8503 0.0
C5081 C 0.16434 0.8858 0.84772 0.0
C5082 C 0.16657 0.8775 0.85173 0.0
C5083 C 0.17031 0.89311 0.84811 0.0
C5084 C 0.1786 0.89232 0.85262 0.0
C5085 C 0.18104 0.88395 0.85631 0.0
C5086 C 0.17507 0.8766 0.85589 0.0
C5087 C 0.18447 0.90037 0.85389 0.0
C5088 C 0.1934 0.90016 0.85072 0.0
C5089 C 0.18115 0.90836 0.85796 0.0
C5090 C 0.17199 0.90882 0.86199 0.0
C5091 C 0.16932 0.9026 0.86862 0.0
C5092 C 0.16064 0.90301 0.87232 0.0
C5093 C 0.1546 0.90966 0.8695 0.0
C5094 C 0.15722 0.91593 0.86298 0.0
C5095 C 0.16589 0.91554 0.85924 0.0
H5096 H 0.14788 0.90997 0.87237 0.0
H5097 H 0.23257 0.906 0.83755 0.0
H5098 H 0.85695 0.78417 0.59326 0.0
H5099 H 0.85516 0.79554 0.60504 0.0
H5100 H 0.86158 0.81658 0.586 0.0
H5101 H 0.8639 0.80523 0.57433 0.0
H5102 H 0.87016 0.81963 0.60093 0.0
H5103 H 0.83949 0.81224 0.5934 0.0
H5104 H 0.82635 0.80224 0.5909 0.0
H5105 H 0.82753 0.79351 0.61838 0.0
H5106 H 0.84076 0.80337 0.62102 0.0
H5107 H 0.85416 0.85733 0.62551 0.0
H5108 H 0.8552 0.84528 0.61426 0.0
H5109 H 0.85361 0.82524 0.63523 0.0
H5110 H 0.85254 0.8373 0.64655 0.0
H5111 H 0.84259 0.82145 0.61984 0.0
H5112 H 0.87329 0.82939 0.62713 0.0
H5113 H 0.8861 0.83987 0.62935 0.0
H5114 H 0.88438 0.84809 0.60174 0.0
H5115 H 0.87146 0.83776 0.59939 0.0
C5116 C 0.85807 0.7912 0.59159 0.0
C5117 C 0.86056 0.79376 0.58282 0.0
C5118 C 0.85693 0.79772 0.59831 0.0
C5119 C 0.85811 0.80694 0.59639 0.0
C5120 C 0.86059 0.80951 0.58765 0.0
C5121 C 0.86182 0.80301 0.58095 0.0
C5122 C 0.85699 0.81391 0.6035 0.0
C5123 C 0.86407 0.82008 0.60497 0.0
C5124 C 0.84914 0.8144 0.60894 0.0
C5125 C 0.84117 0.80847 0.60738 0.0
C5126 C 0.83699 0.80813 0.59889 0.0
C5127 C 0.82952 0.8025 0.59745 0.0
C5128 C 0.82612 0.79722 0.60447 0.0
C5129 C 0.83017 0.79759 0.61295 0.0
C5130 C 0.83766 0.8032 0.61442 0.0
C5131 C 0.85392 0.85036 0.62772 0.0
C5132 C 0.85328 0.84824 0.6369 0.0
C5133 C 0.85457 0.84349 0.6213 0.0
C5134 C 0.85454 0.83439 0.62394 0.0
C5135 C 0.85365 0.83224 0.63307 0.0
C5136 C 0.8531 0.83911 0.63952 0.0
C5137 C 0.85571 0.82716 0.61715 0.0
C5138 C 0.84866 0.82095 0.61577 0.0
C5139 C 0.86354 0.82668 0.61173 0.0
C5140 C 0.87135 0.83286 0.61311 0.0
C5141 C 0.87559 0.83349 0.62155 0.0
C5142 C 0.88288 0.83939 0.62283 0.0
C5143 C 0.88604 0.84466 0.61569 0.0
C5144 C 0.88192 0.84402 0.60726 0.0
C5145 C 0.87462 0.83813 0.60595 0.0
H5146 H 0.89168 0.84923 0.61669 0.0
H5147 H 0.82033 0.79287 0.60335 0.0
H5148 H 0.9233 0.15282 0.28433 0.0
H5149 H 0.9114 0.1553 0.29545 0.0
H5150 H 0.9314 0.16372 0.31487 0.0
H5151 H 0.94334 0.16136 0.30376 0.0
H5152 H 0.9197 0.15161 0.3219 0.0
H5153 H 0.91772 0.1791 0.30499 0.0
H5154 H 0.91625 0.18837 0.29131 0.0
H5155 H 0.89037 0.17633 0.28585 0.0
H5156 H 0.89174 0.16689 0.29943 0.0
H5157 H 0.88983 0.16804 0.35498 0.0
H5158 H 0.90145 0.1675 0.34334 0.0
H5159 H 0.88151 0.15898 0.32391 0.0
H5160 H 0.86975 0.15977 0.33547 0.0
H5161 H 0.89314 0.17136 0.31684 0.0
H5162 H 0.89522 0.14366 0.33343 0.0
H5163 H 0.89662 0.13424 0.34701 0.0
H5164 H 0.9223 0.14649 0.35294 0.0
H5165 H 0.92099 0.15608 0.33945 0.0
C5166 C 0.92516 0.15533 0.29092 0.0
C5167 C 0.93428 0.15689 0.29315 0.0
C5168 C 0.91835 0.15673 0.29727 0.0
C5169 C 0.92051 0.15976 0.30597 0.0
C5170 C 0.92959 0.16136 0.3082 0.0
C5171 C 0.9364 0.15997 0.30186 0.0
C5172 C 0.91333 0.16095 0.31282 0.0
C5173 C 0.91397 0.15604 0.32085 0.0
C5174 C 0.90572 0.16654 0.31134 0.0
C5175 C 0.90487 0.17223 0.30318 0.0
C5176 C 0.91175 0.17837 0.30083 0.0
C5177 C 0.91093 0.18367 0.2931 0.0
C5178 C 0.90323 0.18292 0.2877 0.0
C5179 C 0.89633 0.1769 0.29003 0.0
C5180 C 0.89712 0.17158 0.29775 0.0
C5181 C 0.88787 0.16619 0.3482 0.0
C5182 C 0.87886 0.16391 0.34616 0.0
C5183 C 0.89455 0.16581 0.34157 0.0
C5184 C 0.89236 0.16307 0.3328 0.0
C5185 C 0.88334 0.16106 0.33066 0.0
C5186 C 0.87665 0.16145 0.33729 0.0
C5187 C 0.89955 0.16205 0.32592 0.0
C5188 C 0.8989 0.16696 0.31789 0.0
C5189 C 0.90714 0.15644 0.32738 0.0
C5190 C 0.90796 0.15065 0.33548 0.0
C5191 C 0.90113 0.1444 0.33766 0.0
C5192 C 0.90191 0.13902 0.34534 0.0
C5193 C 0.90953 0.13978 0.35085 0.0
C5194 C 0.9164 0.14592 0.34867 0.0
C5195 C 0.91564 0.15132 0.34101 0.0
H5196 H 0.91013 0.13561 0.35678 0.0
H5197 H 0.90261 0.18703 0.28172 0.0
H5198 H 0.64423 0.2153 0.08069 0.0
H5199 H 0.64629 0.20426 0.09269 0.0
H5200 H 0.67124 0.21732 0.1004 0.0
H5201 H 0.66931 0.22832 0.08824 0.0
H5202 H 0.6726 0.19862 0.10005 0.0
H5203 H 0.65294 0.22095 0.11267 0.0
H5204 H 0.63964 0.23094 0.11311 0.0
H5205 H 0.62203 0.20781 0.11214 0.0
H5206 H 0.63524 0.19768 0.11157 0.0
H5207 H 0.67522 0.17424 0.14151 0.0
H5208 H 0.67487 0.18625 0.13019 0.0
H5209 H 0.64846 0.1772 0.12162 0.0
H5210 H 0.64874 0.16531 0.13297 0.0
H5211 H 0.64866 0.19488 0.12311 0.0
H5212 H 0.66806 0.17259 0.1095 0.0
H5213 H 0.68122 0.16243 0.10871 0.0
H5214 H 0.69915 0.18519 0.11125 0.0
H5215 H 0.68608 0.19548 0.11218 0.0
C5216 C 0.65021 0.21577 0.08487 0.0
C5217 C 0.65661 0.22269 0.08352 0.0
C5218 C 0.65134 0.2095 0.09177 0.0
C5219 C 0.65886 0.21004 0.09749 0.0
C5220 C 0.66536 0.21682 0.09608 0.0
C5221 C 0.66422 0.22313 0.08918 0.0
C5222 C 0.65985 0.20353 0.10499 0.0
C5223 C 0.66745 0.19789 0.10518 0.0
C5224 C 0.65304 0.20249 0.11159 0.0
C5225 C 0.64508 0.20856 0.112 0.0
C5226 C 0.64623 0.218 0.11248 0.0
C5227 C 0.63871 0.22369 0.11277 0.0
C5228 C 0.62999 0.22002 0.11263 0.0
C5229 C 0.62879 0.21065 0.11224 0.0
C5230 C 0.63629 0.20493 0.11194 0.0
C5231 C 0.66937 0.1748 0.13717 0.0
C5232 C 0.66199 0.16886 0.13814 0.0
C5233 C 0.66918 0.18165 0.1307 0.0
C5234 C 0.66166 0.18259 0.125 0.0
C5235 C 0.65431 0.17664 0.12597 0.0
C5236 C 0.65447 0.16986 0.13247 0.0
C5237 C 0.66133 0.1898 0.11808 0.0
C5238 C 0.65386 0.19563 0.11802 0.0
C5239 C 0.66824 0.19096 0.11158 0.0
C5240 C 0.6761 0.18479 0.11101 0.0
C5241 C 0.67481 0.17542 0.10996 0.0
C5242 C 0.68225 0.16964 0.10947 0.0
C5243 C 0.69102 0.17316 0.10996 0.0
C5244 C 0.69236 0.18247 0.1109 0.0
C5245 C 0.68494 0.18828 0.11139 0.0
H5246 H 0.69677 0.16867 0.10958 0.0
H5247 H 0.62418 0.22443 0.11285 0.0
H5248 H 0.58231 0.86317 0.79711 0.0
H5249 H 0.59607 0.86048 0.8058 0.0
H5250 H 0.58126 0.84278 0.82354 0.0
H5251 H 0.56749 0.84538 0.81486 0.0
H5252 H 0.59079 0.85529 0.83271 0.0
H5253 H 0.59659 0.8344 0.80858 0.0
H5254 H 0.59833 0.82974 0.79276 0.0
H5255 H 0.62004 0.8488 0.78947 0.0
H5256 H 0.61835 0.85366 0.80525 0.0
H5257 H 0.62684 0.83954 0.85857 0.0
H5258 H 0.61434 0.83973 0.84793 0.0
H5259 H 0.62985 0.85675 0.83013 0.0
H5260 H 0.64264 0.85621 0.84056 0.0
H5261 H 0.62017 0.84456 0.82072 0.0
H5262 H 0.61426 0.86587 0.84428 0.0
H5263 H 0.61261 0.87104 0.85996 0.0
H5264 H 0.59112 0.8519 0.86406 0.0
H5265 H 0.59272 0.84652 0.84843 0.0
C5266 C 0.58202 0.85856 0.80276 0.0
C5267 C 0.57379 0.85451 0.80532 0.0
C5268 C 0.58989 0.85704 0.80772 0.0
C5269 C 0.5897 0.8514 0.81529 0.0
C5270 C 0.58155 0.84718 0.81774 0.0
C5271 C 0.57368 0.8487 0.81279 0.0
C5272 C 0.59783 0.85034 0.82103 0.0
C5273 C 0.59717 0.8528 0.83011 0.0
C5274 C 0.60623 0.8474 0.81756 0.0
C5275 C 0.60728 0.84446 0.80808 0.0
C5276 C 0.60169 0.83765 0.80447 0.0
C5277 C 0.60268 0.83496 0.79551 0.0
C5278 C 0.60928 0.83899 0.7901 0.0
C5279 C 0.61492 0.84569 0.79366 0.0
C5280 C 0.61396 0.84841 0.80262 0.0
C5281 C 0.62771 0.84316 0.85231 0.0
C5282 C 0.63576 0.84791 0.85046 0.0
C5283 C 0.6205 0.84334 0.84627 0.0
C5284 C 0.62109 0.84841 0.83832 0.0
C5285 C 0.62923 0.85286 0.83626 0.0
C5286 C 0.63649 0.85261 0.84227 0.0
C5287 C 0.61308 0.84939 0.83242 0.0
C5288 C 0.61377 0.847 0.82331 0.0
C5289 C 0.6047 0.85247 0.83582 0.0
C5290 C 0.60367 0.85573 0.84521 0.0
C5291 C 0.60922 0.86272 0.84854 0.0
C5292 C 0.60829 0.86569 0.85742 0.0
C5293 C 0.60178 0.86178 0.86301 0.0
C5294 C 0.59617 0.85491 0.85973 0.0
C5295 C 0.59708 0.8519 0.85086 0.0
H5296 H 0.60107 0.86409 0.86988 0.0
H5297 H 0.61003 0.8369 0.78317 0.0
H5298 H 0.84889 0.21646 0.94084 0.0
H5299 H 0.84697 0.20887 0.92628 0.0
H5300 H 0.8724 0.1952 0.93002 0.0
H5301 H 0.87445 0.20287 0.94443 0.0
H5302 H 0.87062 0.20201 0.913 0.0
H5303 H 0.85269 0.1844 0.93401 0.0
H5304 H 0.84067 0.18224 0.9453 0.0
H5305 H 0.82083 0.19151 0.9264 0.0
H5306 H 0.83276 0.19384 0.91503 0.0
H5307 H 0.8697 0.16398 0.88471 0.0
H5308 H 0.87026 0.17495 0.89696 0.0
H5309 H 0.84331 0.18383 0.89034 0.0
H5310 H 0.84267 0.17272 0.87809 0.0
H5311 H 0.84467 0.18133 0.90772 0.0
H5312 H 0.86212 0.19729 0.88609 0.0
H5313 H 0.87396 0.19957 0.87465 0.0
H5314 H 0.89445 0.19395 0.89428 0.0
H5315 H 0.88273 0.1915 0.90582 0.0
C5316 C 0.85409 0.21188 0.93852 0.0
C5317 C 0.86179 0.21021 0.94381 0.0
C5318 C 0.85297 0.20752 0.93023 0.0
C5319 C 0.85952 0.20143 0.92711 0.0
C5320 C 0.86726 0.19987 0.93231 0.0
C5321 C 0.86838 0.20419 0.94059 0.0
C5322 C 0.85831 0.19652 0.91849 0.0
C5323 C 0.86498 0.19744 0.91185 0.0
C5324 C 0.85079 0.19082 0.91688 0.0
C5325 C 0.84362 0.18939 0.92371 0.0
C5326 C 0.84577 0.18605 0.93229 0.0
C5327 C 0.83898 0.18478 0.9387 0.0
C5328 C 0.83 0.18677 0.93658 0.0
C5329 C 0.82779 0.19 0.92804 0.0
C5330 C 0.83456 0.19128 0.92161 0.0
C5331 C 0.86395 0.16838 0.88575 0.0
C5332 C 0.85616 0.16752 0.88041 0.0
C5333 C 0.86428 0.17466 0.89276 0.0
C5334 C 0.85687 0.18032 0.8945 0.0
C5335 C 0.84911 0.17955 0.88911 0.0
C5336 C 0.84875 0.1732 0.88213 0.0
C5337 C 0.8571 0.18664 0.90227 0.0
C5338 C 0.85025 0.18599 0.90877 0.0
C5339 C 0.86444 0.19265 0.90371 0.0
C5340 C 0.87153 0.19415 0.89681 0.0
C5341 C 0.86914 0.19648 0.88795 0.0
C5342 C 0.87584 0.19781 0.88145 0.0
C5343 C 0.88495 0.19689 0.88373 0.0
C5344 C 0.88739 0.19465 0.89253 0.0
C5345 C 0.88072 0.19331 0.89905 0.0
H5346 H 0.89013 0.19792 0.87869 0.0
H5347 H 0.82475 0.18578 0.94155 0.0
H5348 H 0.57059 0.16265 0.70153 0.0
H5349 H 0.58464 0.16528 0.69331 0.0
H5350 H 0.59962 0.1517 0.71415 0.0
H5351 H 0.58554 0.14895 0.7224 0.0
H5352 H 0.60842 0.16708 0.70795 0.0
H5353 H 0.5947 0.14042 0.69565 0.0
H5354 H 0.58236 0.13126 0.68915 0.0
H5355 H 0.58075 0.14935 0.66667 0.0
H5356 H 0.59299 0.1587 0.67311 0.0
H5357 H 0.64765 0.15923 0.68043 0.0
H5358 H 0.63466 0.1578 0.69056 0.0
H5359 H 0.61754 0.17009 0.67057 0.0
H5360 H 0.63037 0.17128 0.66035 0.0
H5361 H 0.61023 0.15481 0.67694 0.0
H5362 H 0.62392 0.1816 0.68942 0.0
H5363 H 0.63626 0.1907 0.696 0.0
H5364 H 0.6381 0.17221 0.71814 0.0
H5365 H 0.62584 0.16293 0.71162 0.0
C5366 C 0.57687 0.16021 0.70437 0.0
C5367 C 0.57694 0.1555 0.71257 0.0
C5368 C 0.58489 0.16175 0.69968 0.0
C5369 C 0.59315 0.15858 0.70307 0.0
C5370 C 0.59331 0.1542 0.71142 0.0
C5371 C 0.58527 0.15265 0.71613 0.0
C5372 C 0.60151 0.15949 0.69765 0.0
C5373 C 0.60888 0.1643 0.70122 0.0
C5374 C 0.60204 0.15595 0.68883 0.0
C5375 C 0.59471 0.15031 0.68491 0.0
C5376 C 0.59167 0.14248 0.68936 0.0
C5377 C 0.5847 0.13725 0.68568 0.0
C5378 C 0.58076 0.13973 0.67752 0.0
C5379 C 0.5838 0.14744 0.673 0.0
C5380 C 0.59076 0.15271 0.67666 0.0
C5381 C 0.64112 0.16165 0.67821 0.0
C5382 C 0.64005 0.16539 0.66959 0.0
C5383 C 0.63372 0.1609 0.68403 0.0
C5384 C 0.62514 0.16388 0.68133 0.0
C5385 C 0.6241 0.16776 0.67279 0.0
C5386 C 0.63147 0.16851 0.66699 0.0
C5387 C 0.61711 0.16256 0.68715 0.0
C5388 C 0.6098 0.1576 0.68367 0.0
C5389 C 0.61666 0.16594 0.69605 0.0
C5390 C 0.62403 0.17152 0.69998 0.0
C5391 C 0.62701 0.17943 0.69565 0.0
C5392 C 0.63398 0.18463 0.69937 0.0
C5393 C 0.63798 0.18202 0.70747 0.0
C5394 C 0.635 0.17422 0.71186 0.0
C5395 C 0.62804 0.16899 0.70816 0.0
H5396 H 0.64338 0.18606 0.71034 0.0
H5397 H 0.57536 0.13567 0.67468 0.0
H5398 H 0.66913 0.78972 0.43143 0.0
H5399 H 0.67106 0.80061 0.41918 0.0
H5400 H 0.64266 0.80701 0.42045 0.0
H5401 H 0.64067 0.79607 0.4326 0.0
H5402 H 0.64866 0.80441 0.40307 0.0
H5403 H 0.6577 0.82112 0.4295 0.0
H5404 H 0.66659 0.82387 0.44327 0.0
H5405 H 0.69113 0.82347 0.42786 0.0
H5406 H 0.68239 0.82059 0.41401 0.0
H5407 H 0.64596 0.84576 0.3798 0.0
H5408 H 0.64557 0.83363 0.39088 0.0
H5409 H 0.6745 0.83073 0.38879 0.0
H5410 H 0.67495 0.8429 0.37765 0.0
H5411 H 0.66927 0.8308 0.406 0.0
H5412 H 0.6604 0.81505 0.37943 0.0
H5413 H 0.65169 0.81221 0.36557 0.0
H5414 H 0.62718 0.81048 0.38095 0.0
H5415 H 0.63573 0.81345 0.39489 0.0
C5416 C 0.6633 0.79342 0.42906 0.0
C5417 C 0.65476 0.79207 0.43299 0.0
C5418 C 0.66442 0.79967 0.4221 0.0
C5419 C 0.65701 0.80466 0.41895 0.0
C5420 C 0.64846 0.80324 0.42279 0.0
C5421 C 0.64735 0.79705 0.42978 0.0
C5422 C 0.65813 0.81137 0.41165 0.0
C5423 C 0.6531 0.81023 0.40373 0.0
C5424 C 0.66414 0.8188 0.41242 0.0
C5425 C 0.6694 0.82054 0.42074 0.0
C5426 C 0.665 0.82154 0.42906 0.0
C5427 C 0.67001 0.82314 0.43687 0.0
C5428 C 0.67942 0.82382 0.43644 0.0
C5429 C 0.68384 0.82293 0.42819 0.0
C5430 C 0.67886 0.82132 0.42035 0.0
C5431 C 0.65223 0.84246 0.38159 0.0
C5432 C 0.66048 0.84526 0.37779 0.0
C5433 C 0.652 0.83553 0.38794 0.0
C5434 C 0.65999 0.83119 0.39058 0.0
C5435 C 0.66825 0.83398 0.38684 0.0
C5436 C 0.6685 0.84095 0.38049 0.0
C5437 C 0.6597 0.82392 0.39744 0.0
C5438 C 0.66489 0.82494 0.40528 0.0
C5439 C 0.65387 0.81635 0.39658 0.0
C5440 C 0.6487 0.81455 0.3882 0.0
C5441 C 0.65314 0.81414 0.37985 0.0
C5442 C 0.64824 0.81249 0.37198 0.0
C5443 C 0.63889 0.81119 0.37238 0.0
C5444 C 0.63443 0.8115 0.38065 0.0
C5445 C 0.6393 0.81316 0.38854 0.0
H5446 H 0.6351 0.80991 0.36628 0.0
H5447 H 0.68329 0.82506 0.4425 0.0
H5448 H 0.93309 0.8738 0.21423 0.0
H5449 H 0.91931 0.87065 0.20573 0.0
H5450 H 0.92867 0.84356 0.20037 0.0
H5451 H 0.9426 0.84678 0.2087 0.0
H5452 H 0.9226 0.85047 0.18567 0.0
H5453 H 0.91086 0.84811 0.21531 0.0
H5454 H 0.90798 0.85263 0.23101 0.0
H5455 H 0.89385 0.87621 0.22192 0.0
H5456 H 0.89675 0.87191 0.20616 0.0
H5457 H 0.88055 0.83855 0.16544 0.0
H5458 H 0.8927 0.83878 0.1766 0.0
H5459 H 0.88916 0.8675 0.1801 0.0
H5460 H 0.87723 0.86742 0.16877 0.0
H5461 H 0.89178 0.858 0.19644 0.0
H5462 H 0.90518 0.8606 0.16675 0.0
H5463 H 0.90791 0.85554 0.15118 0.0
H5464 H 0.91876 0.83051 0.16091 0.0
H5465 H 0.91596 0.83537 0.17655 0.0
C5466 C 0.93215 0.86714 0.21134 0.0
C5467 C 0.9389 0.86053 0.21214 0.0
C5468 C 0.92425 0.86532 0.20651 0.0
C5469 C 0.92287 0.85681 0.20251 0.0
C5470 C 0.92957 0.85017 0.20339 0.0
C5471 C 0.93753 0.85201 0.20814 0.0
C5472 C 0.91469 0.85507 0.19696 0.0
C5473 C 0.91585 0.85194 0.18812 0.0
C5474 C 0.90587 0.8571 0.20007 0.0
C5475 C 0.90408 0.85971 0.20955 0.0
C5476 C 0.90719 0.85429 0.21666 0.0
C5477 C 0.90555 0.85681 0.22557 0.0
C5478 C 0.90075 0.86471 0.22746 0.0
C5479 C 0.89757 0.8701 0.22045 0.0
C5480 C 0.8992 0.86762 0.21152 0.0
C5481 C 0.88236 0.84493 0.16857 0.0
C5482 C 0.87794 0.85298 0.16614 0.0
C5483 C 0.88926 0.84503 0.17499 0.0
C5484 C 0.89185 0.85317 0.17912 0.0
C5485 C 0.88722 0.86114 0.17701 0.0
C5486 C 0.88037 0.86107 0.17055 0.0
C5487 C 0.89976 0.85353 0.1852 0.0
C5488 C 0.89854 0.85641 0.1941 0.0
C5489 C 0.90852 0.85119 0.1822 0.0
C5490 C 0.91027 0.8483 0.17281 0.0
C5491 C 0.90808 0.85398 0.16556 0.0
C5492 C 0.90965 0.85116 0.15673 0.0
C5493 C 0.91348 0.8427 0.15506 0.0
C5494 C 0.91577 0.83705 0.16222 0.0
C5495 C 0.9142 0.83984 0.17107 0.0
H5496 H 0.91469 0.84052 0.14821 0.0
H5497 H 0.89949 0.86665 0.23437 0.0
H5498 H 0.07875 0.67 0.2173 0.0
H5499 H 0.09331 0.6723 0.20971 0.0
H5500 H 0.08955 0.64725 0.19525 0.0
H5501 H 0.07515 0.64484 0.2029 0.0
H5502 H 0.10664 0.64892 0.20219 0.0
H5503 H 0.08544 0.66734 0.18527 0.0
H5504 H 0.07418 0.67948 0.18361 0.0
H5505 H 0.09348 0.69895 0.19329 0.0
H5506 H 0.10482 0.68689 0.19511 0.0
H5507 H 0.13461 0.64976 0.16444 0.0
H5508 H 0.1222 0.64951 0.17519 0.0
H5509 H 0.12947 0.67634 0.18417 0.0
H5510 H 0.14187 0.67668 0.17321 0.0
H5511 H 0.11188 0.6752 0.18215 0.0
H5512 H 0.13372 0.6574 0.19733 0.0
H5513 H 0.14517 0.64548 0.19919 0.0
H5514 H 0.12517 0.62514 0.1935 0.0
H5515 H 0.11362 0.63695 0.19147 0.0
C5516 C 0.08107 0.66497 0.21254 0.0
C5517 C 0.07578 0.65727 0.21065 0.0
C5518 C 0.08935 0.66631 0.20818 0.0
C5519 C 0.09247 0.65997 0.20188 0.0
C5520 C 0.08726 0.65223 0.20008 0.0
C5521 C 0.07899 0.65091 0.20439 0.0
C5522 C 0.10113 0.66133 0.19704 0.0
C5523 C 0.10778 0.65463 0.19776 0.0
C5524 C 0.10274 0.66896 0.19156 0.0
C5525 C 0.09594 0.6762 0.19043 0.0
C5526 C 0.08725 0.6742 0.18711 0.0
C5527 C 0.08086 0.68107 0.18613 0.0
C5528 C 0.0831 0.68998 0.18837 0.0
C5529 C 0.09175 0.69205 0.19157 0.0
C5530 C 0.09816 0.6852 0.19258 0.0
C5531 C 0.13365 0.65556 0.16879 0.0
C5532 C 0.13926 0.6632 0.16805 0.0
C5533 C 0.12655 0.65541 0.17495 0.0
C5534 C 0.125 0.66284 0.18063 0.0
C5535 C 0.13057 0.67052 0.17989 0.0
C5536 C 0.13764 0.67071 0.17364 0.0
C5537 C 0.11732 0.66263 0.18706 0.0
C5538 C 0.11084 0.66954 0.18667 0.0
C5539 C 0.1159 0.65523 0.19293 0.0
C5540 C 0.12281 0.64808 0.1942 0.0
C5541 C 0.13177 0.65039 0.19642 0.0
C5542 C 0.13828 0.64365 0.19751 0.0
C5543 C 0.1359 0.63456 0.19645 0.0
C5544 C 0.127 0.63219 0.19432 0.0
C5545 C 0.12047 0.6389 0.19321 0.0
H5546 H 0.14095 0.62935 0.1973 0.0
H5547 H 0.07815 0.69529 0.1876 0.0
H5548 H 0.16706 0.28716 0.92977 0.0
H5549 H 0.16901 0.29797 0.91745 0.0
H5550 H 0.14123 0.30626 0.92034 0.0
H5551 H 0.1392 0.29538 0.93255 0.0
H5552 H 0.14601 0.30348 0.90268 0.0
H5553 H 0.15778 0.31921 0.92865 0.0
H5554 H 0.16766 0.32116 0.94187 0.0
H5555 H 0.19113 0.31917 0.92502 0.0
H5556 H 0.18139 0.31708 0.9117 0.0
H5557 H 0.14502 0.34505 0.87963 0.0
H5558 H 0.14433 0.33289 0.89068 0.0
H5559 H 0.17288 0.3281 0.88725 0.0
H5560 H 0.17363 0.34035 0.8762 0.0
H5561 H 0.1686 0.32829 0.90457 0.0
H5562 H 0.15705 0.31348 0.87846 0.0
H5563 H 0.14734 0.31144 0.86513 0.0
H5564 H 0.12374 0.31139 0.88194 0.0
H5565 H 0.1333 0.31356 0.89536 0.0
C5566 C 0.16136 0.29125 0.92773 0.0
C5567 C 0.15299 0.29045 0.93214 0.0
C5568 C 0.1625 0.29745 0.92074 0.0
C5569 C 0.15528 0.30295 0.91803 0.0
C5570 C 0.14689 0.30209 0.92234 0.0
C5571 C 0.14576 0.29593 0.92936 0.0
C5572 C 0.15644 0.30965 0.91073 0.0
C5573 C 0.15088 0.30896 0.90312 0.0
C5574 C 0.163 0.31662 0.9112 0.0
C5575 C 0.16886 0.31789 0.9192 0.0
C5576 C 0.16505 0.31911 0.92777 0.0
C5577 C 0.17062 0.32025 0.93528 0.0
C5578 C 0.18002 0.32026 0.93429 0.0
C5579 C 0.18386 0.31915 0.92578 0.0
C5580 C 0.17832 0.31799 0.91825 0.0
C5581 C 0.15113 0.34133 0.88113 0.0
C5582 C 0.15937 0.34362 0.877 0.0
C5583 C 0.15073 0.33438 0.88745 0.0
C5584 C 0.15852 0.3295 0.8897 0.0
C5585 C 0.16677 0.33177 0.88561 0.0
C5586 C 0.1672 0.33877 0.87931 0.0
C5587 C 0.15808 0.32221 0.89654 0.0
C5588 C 0.16377 0.32277 0.90407 0.0
C5589 C 0.15167 0.31509 0.89597 0.0
C5590 C 0.14589 0.31376 0.88791 0.0
C5591 C 0.14978 0.3131 0.87931 0.0
C5592 C 0.14431 0.31191 0.87174 0.0
C5593 C 0.13493 0.31131 0.87268 0.0
C5594 C 0.13101 0.31187 0.88121 0.0
C5595 C 0.13645 0.31307 0.88881 0.0
H5596 H 0.1307 0.31039 0.86681 0.0
H5597 H 0.18432 0.32115 0.94012 0.0
H5598 H 0.43844 0.3755 0.70691 0.0
H5599 H 0.42403 0.37256 0.69941 0.0
H5600 H 0.42573 0.34438 0.70665 0.0
H5601 H 0.44027 0.34727 0.71409 0.0
H5602 H 0.42137 0.3468 0.68889 0.0
H5603 H 0.41083 0.35738 0.71722 0.0
H5604 H 0.40993 0.3676 0.73031 0.0
H5605 H 0.40113 0.38921 0.71322 0.0
H5606 H 0.40211 0.37917 0.7 0.0
H5607 H 0.37757 0.33957 0.6703 0.0
H5608 H 0.38982 0.34 0.68138 0.0
H5609 H 0.39199 0.36891 0.67808 0.0
H5610 H 0.37979 0.36853 0.66705 0.0
H5611 H 0.3936 0.36433 0.69547 0.0
H5612 H 0.40618 0.35437 0.66708 0.0
H5613 H 0.4073 0.34435 0.65386 0.0
H5614 H 0.41243 0.32167 0.67109 0.0
H5615 H 0.41122 0.33155 0.68443 0.0
C5616 C 0.43576 0.36867 0.70689 0.0
C5617 C 0.44049 0.3616 0.71106 0.0
C5618 C 0.42749 0.36702 0.70268 0.0
C5619 C 0.42377 0.35827 0.70255 0.0
C5620 C 0.42847 0.35119 0.70671 0.0
C5621 C 0.43673 0.35285 0.71099 0.0
C5622 C 0.41518 0.35653 0.69772 0.0
C5623 C 0.41524 0.35048 0.69045 0.0
C5624 C 0.40723 0.36146 0.69967 0.0
C5625 C 0.40661 0.36753 0.7076 0.0
C5626 C 0.40877 0.36433 0.71624 0.0
C5627 C 0.40824 0.37009 0.72368 0.0
C5628 C 0.40549 0.37905 0.72259 0.0
C5629 C 0.40326 0.38227 0.71405 0.0
C5630 C 0.40379 0.37654 0.70658 0.0
C5631 C 0.38064 0.34602 0.67197 0.0
C5632 C 0.37773 0.35401 0.66777 0.0
C5633 C 0.38763 0.34625 0.6783 0.0
C5634 C 0.39189 0.35448 0.68048 0.0
C5635 C 0.38878 0.36249 0.67653 0.0
C5636 C 0.38179 0.36227 0.67023 0.0
C5637 C 0.39986 0.35475 0.68652 0.0
C5638 C 0.39969 0.36053 0.69401 0.0
C5639 C 0.40772 0.3496 0.68476 0.0
C5640 C 0.4085 0.34367 0.67675 0.0
C5641 C 0.40748 0.34723 0.66805 0.0
C5642 C 0.40814 0.34158 0.66053 0.0
C5643 C 0.40991 0.33237 0.66163 0.0
C5644 C 0.41105 0.3288 0.67025 0.0
C5645 C 0.41037 0.33442 0.67779 0.0
H5646 H 0.41042 0.32801 0.65581 0.0
H5647 H 0.40508 0.3835 0.72836 0.0
H5648 H 0.14416 0.71856 0.58355 0.0
H5649 H 0.14641 0.70782 0.59581 0.0
H5650 H 0.17441 0.71584 0.59773 0.0
H5651 H 0.17223 0.72655 0.58534 0.0
H5652 H 0.172 0.69717 0.59818 0.0
H5653 H 0.16026 0.72327 0.6131 0.0
H5654 H 0.14966 0.73585 0.61564 0.0
H5655 H 0.12796 0.71691 0.61961 0.0
H5656 H 0.13841 0.70421 0.61696 0.0
H5657 H 0.17797 0.67309 0.63944 0.0
H5658 H 0.17772 0.68509 0.62811 0.0
H5659 H 0.149 0.68117 0.62471 0.0
H5660 H 0.1492 0.6692 0.63597 0.0
H5661 H 0.15302 0.69873 0.62564 0.0
H5662 H 0.16427 0.67277 0.60956 0.0
H5663 H 0.17462 0.66005 0.60672 0.0
H5664 H 0.19698 0.67854 0.60471 0.0
H5665 H 0.18676 0.69137 0.60767 0.0
C5666 C 0.15082 0.71799 0.58654 0.0
C5667 C 0.15802 0.7234 0.58349 0.0
C5668 C 0.15207 0.71191 0.59358 0.0
C5669 C 0.16055 0.71111 0.59773 0.0
C5670 C 0.1678 0.71639 0.59463 0.0
C5671 C 0.16654 0.72254 0.58761 0.0
C5672 C 0.16179 0.70469 0.60527 0.0
C5673 C 0.16797 0.69759 0.60426 0.0
C5674 C 0.15641 0.70517 0.61311 0.0
C5675 C 0.15011 0.71279 0.61476 0.0
C5676 C 0.15322 0.72179 0.61445 0.0
C5677 C 0.14724 0.72894 0.61592 0.0
C5678 C 0.13814 0.72718 0.61777 0.0
C5679 C 0.13501 0.71826 0.61817 0.0
C5680 C 0.14096 0.71109 0.61669 0.0
C5681 C 0.17161 0.67476 0.63624 0.0
C5682 C 0.1636 0.6702 0.63862 0.0
C5683 C 0.17148 0.68162 0.62978 0.0
C5684 C 0.16335 0.68398 0.62552 0.0
C5685 C 0.15534 0.67949 0.62794 0.0
C5686 C 0.15547 0.67267 0.6344 0.0
C5687 C 0.16311 0.69109 0.6185 0.0
C5688 C 0.15711 0.69834 0.6196 0.0
C5689 C 0.16863 0.69072 0.61073 0.0
C5690 C 0.17477 0.68302 0.60894 0.0
C5691 C 0.17141 0.67412 0.60859 0.0
C5692 C 0.17724 0.66689 0.60694 0.0
C5693 C 0.18646 0.66848 0.60556 0.0
C5694 C 0.18984 0.67732 0.6058 0.0
C5695 C 0.18403 0.68457 0.60745 0.0
H5696 H 0.19097 0.66288 0.60429 0.0
H5697 H 0.13352 0.73272 0.61891 0.0
H5698 H 0.36314 0.30504 0.07424 0.0
H5699 H 0.3612 0.31628 0.08607 0.0
H5700 H 0.35415 0.2952 0.10484 0.0
H5701 H 0.35557 0.28392 0.09288 0.0
H5702 H 0.34351 0.30914 0.10729 0.0
H5703 H 0.37539 0.30514 0.10475 0.0
H5704 H 0.39014 0.30423 0.0971 0.0
H5705 H 0.38768 0.33187 0.0887 0.0
H5706 H 0.37285 0.33291 0.0962 0.0
H5707 H 0.35131 0.33699 0.1463 0.0
H5708 H 0.35231 0.325 0.13491 0.0
H5709 H 0.35516 0.34514 0.11417 0.0
H5710 H 0.35417 0.35713 0.12549 0.0
H5711 H 0.36811 0.33123 0.11334 0.0
H5712 H 0.33579 0.33473 0.11606 0.0
H5713 H 0.32134 0.33527 0.12429 0.0
H5714 H 0.32521 0.30795 0.13319 0.0
H5715 H 0.33976 0.3073 0.12511 0.0
C5716 C 0.36104 0.30278 0.08084 0.0
C5717 C 0.35953 0.29355 0.08259 0.0
C5718 C 0.36005 0.30922 0.08764 0.0
C5719 C 0.3577 0.30657 0.09639 0.0
C5720 C 0.35603 0.29739 0.09815 0.0
C5721 C 0.35694 0.29094 0.09132 0.0
C5722 C 0.35699 0.3134 0.10369 0.0
C5723 C 0.34895 0.31388 0.1087 0.0
C5724 C 0.36403 0.31966 0.10548 0.0
C5725 C 0.37297 0.31908 0.10097 0.0
C5726 C 0.37796 0.311 0.10122 0.0
C5727 C 0.38635 0.31047 0.09691 0.0
C5728 C 0.38984 0.31798 0.0924 0.0
C5729 C 0.38496 0.32605 0.09219 0.0
C5730 C 0.37657 0.32662 0.09647 0.0
C5731 C 0.35213 0.33884 0.1393 0.0
C5732 C 0.35263 0.34798 0.13676 0.0
C5733 C 0.35266 0.332 0.13281 0.0
C5734 C 0.35377 0.3342 0.12371 0.0
C5735 C 0.35428 0.34332 0.12116 0.0
C5736 C 0.35365 0.35015 0.12762 0.0
C5737 C 0.35462 0.32701 0.11682 0.0
C5738 C 0.3627 0.32646 0.11193 0.0
C5739 C 0.34767 0.32062 0.11523 0.0
C5740 C 0.33891 0.321 0.12007 0.0
C5741 C 0.3336 0.32887 0.11984 0.0
C5742 C 0.32538 0.32919 0.12447 0.0
C5743 C 0.32237 0.32166 0.12928 0.0
C5744 C 0.32756 0.31378 0.12947 0.0
C5745 C 0.33579 0.31343 0.12486 0.0
H5746 H 0.316 0.32192 0.13285 0.0
H5747 H 0.39633 0.31755 0.08907 0.0
H5748 H 0.55246 0.39785 0.18983 0.0
H5749 H 0.56416 0.39965 0.17841 0.0
H5750 H 0.54955 0.42205 0.16696 0.0
H5751 H 0.53778 0.42029 0.17842 0.0
H5752 H 0.55549 0.41084 0.15407 0.0
H5753 H 0.56847 0.42582 0.17932 0.0
H5754 H 0.57327 0.42777 0.19508 0.0
H5755 H 0.59137 0.40528 0.19247 0.0
H5756 H 0.58659 0.40311 0.17673 0.0
H5757 H 0.59345 0.42365 0.12661 0.0
H5758 H 0.58134 0.42407 0.13789 0.0
H5759 H 0.59184 0.39978 0.14997 0.0
H5760 H 0.60392 0.39933 0.13874 0.0
H5761 H 0.58787 0.4135 0.16242 0.0
H5762 H 0.5739 0.39817 0.13728 0.0
H5763 H 0.56906 0.39656 0.1215 0.0
H5764 H 0.55282 0.42046 0.12394 0.0
H5765 H 0.55768 0.42228 0.13971 0.0
C5766 C 0.55178 0.40324 0.18495 0.0
C5767 C 0.54423 0.40898 0.18508 0.0
C5768 C 0.55847 0.40425 0.17842 0.0
C5769 C 0.5578 0.41107 0.17191 0.0
C5770 C 0.55021 0.41675 0.17193 0.0
C5771 C 0.54349 0.41573 0.17847 0.0
C5772 C 0.56496 0.41212 0.16501 0.0
C5773 C 0.56255 0.41159 0.15589 0.0
C5774 C 0.57419 0.41298 0.16739 0.0
C5775 C 0.57711 0.41426 0.17686 0.0
C5776 C 0.57342 0.42125 0.18213 0.0
C5777 C 0.57615 0.4224 0.19105 0.0
C5778 C 0.58261 0.41664 0.19478 0.0
C5779 C 0.58636 0.40973 0.18958 0.0
C5780 C 0.58366 0.40854 0.18065 0.0
C5781 C 0.59317 0.41842 0.13169 0.0
C5782 C 0.59959 0.41144 0.13179 0.0
C5783 C 0.58625 0.41864 0.13809 0.0
C5784 C 0.58569 0.41193 0.14472 0.0
C5785 C 0.59215 0.40501 0.14489 0.0
C5786 C 0.599 0.40473 0.13845 0.0
C5787 C 0.57839 0.41208 0.15153 0.0
C5788 C 0.58079 0.41284 0.16062 0.0
C5789 C 0.56916 0.41151 0.14912 0.0
C5790 C 0.56624 0.41042 0.13964 0.0
C5791 C 0.56937 0.40313 0.13443 0.0
C5792 C 0.56661 0.40217 0.12549 0.0
C5793 C 0.56066 0.40842 0.12171 0.0
C5794 C 0.55744 0.41563 0.12687 0.0
C5795 C 0.56019 0.41663 0.13581 0.0
H5796 H 0.55852 0.40766 0.11479 0.0
H5797 H 0.58471 0.41754 0.2017 0.0
H5798 H 0.96678 0.6017 0.68735 0.0
H5799 H 0.95872 0.59915 0.67318 0.0
H5800 H 0.94314 0.62334 0.67771 0.0
H5801 H 0.95114 0.62593 0.69183 0.0
H5802 H 0.93248 0.60977 0.6727 0.0
H5803 H 0.96059 0.62269 0.66248 0.0
H5804 H 0.97716 0.62374 0.661 0.0
H5805 H 0.97777 0.59747 0.64866 0.0
H5806 H 0.9612 0.59621 0.65018 0.0
H5807 H 0.91422 0.61951 0.63044 0.0
H5808 H 0.92409 0.62027 0.64359 0.0
H5809 H 0.93417 0.5936 0.63762 0.0
H5810 H 0.92428 0.5928 0.62436 0.0
H5811 H 0.94782 0.60677 0.64318 0.0
H5812 H 0.91945 0.59437 0.65276 0.0
H5813 H 0.90284 0.59372 0.65398 0.0
H5814 H 0.90278 0.61943 0.66746 0.0
H5815 H 0.91939 0.6203 0.66619 0.0
C5816 C 0.96168 0.60651 0.68528 0.0
C5817 C 0.95957 0.614 0.69073 0.0
C5818 C 0.95709 0.60504 0.67719 0.0
C5819 C 0.95036 0.61108 0.67436 0.0
C5820 C 0.94827 0.61857 0.67978 0.0
C5821 C 0.95283 0.62002 0.68787 0.0
C5822 C 0.94532 0.60958 0.66586 0.0
C5823 C 0.93585 0.60919 0.66625 0.0
C5824 C 0.94971 0.60856 0.65746 0.0
C5825 C 0.95967 0.60931 0.65654 0.0
C5826 C 0.96427 0.6171 0.65952 0.0
C5827 C 0.97366 0.61774 0.65866 0.0
C5828 C 0.97852 0.61066 0.65476 0.0
C5829 C 0.974 0.60294 0.65169 0.0
C5830 C 0.96461 0.60226 0.65255 0.0
C5831 C 0.91865 0.61387 0.63182 0.0
C5832 C 0.91848 0.60609 0.62638 0.0
C5833 C 0.92424 0.61429 0.63936 0.0
C5834 C 0.92979 0.60696 0.64159 0.0
C5835 C 0.92992 0.59932 0.63599 0.0
C5836 C 0.92425 0.59885 0.62847 0.0
C5837 C 0.93503 0.60716 0.65006 0.0
C5838 C 0.9445 0.60727 0.64966 0.0
C5839 C 0.93065 0.60796 0.65847 0.0
C5840 C 0.92066 0.60743 0.65931 0.0
C5841 C 0.91589 0.59992 0.65592 0.0
C5842 C 0.90648 0.5995 0.65663 0.0
C5843 C 0.90176 0.60654 0.66078 0.0
C5844 C 0.90645 0.61399 0.66424 0.0
C5845 C 0.91586 0.61444 0.66353 0.0
H5846 H 0.89447 0.6062 0.66133 0.0
H5847 H 0.98579 0.61117 0.6541 0.0
H5848 H 0.62191 0.32909 0.54856 0.0
H5849 H 0.61982 0.34064 0.56011 0.0
H5850 H 0.59332 0.34653 0.54955 0.0
H5851 H 0.59541 0.33497 0.5379 0.0
H5852 H 0.60217 0.3618 0.55352 0.0
H5853 H 0.59569 0.33425 0.56879 0.0
H5854 H 0.59822 0.31858 0.5738 0.0
H5855 H 0.62235 0.32689 0.58762 0.0
H5856 H 0.62003 0.34259 0.58259 0.0
H5857 H 0.59021 0.38744 0.59294 0.0
H5858 H 0.59029 0.37595 0.58101 0.0
H5859 H 0.61795 0.36949 0.58742 0.0
H5860 H 0.6179 0.38088 0.59936 0.0
H5861 H 0.60699 0.35432 0.58566 0.0
H5862 H 0.61359 0.38185 0.56945 0.0
H5863 H 0.61067 0.39746 0.56447 0.0
H5864 H 0.58557 0.38899 0.55258 0.0
H5865 H 0.58828 0.37334 0.55761 0.0
C5866 C 0.61561 0.33279 0.54874 0.0
C5867 C 0.60879 0.33107 0.54237 0.0
C5868 C 0.61442 0.33939 0.55534 0.0
C5869 C 0.60635 0.34434 0.55579 0.0
C5870 C 0.59959 0.34277 0.54934 0.0
C5871 C 0.6008 0.33618 0.54269 0.0
C5872 C 0.60504 0.35118 0.56299 0.0
C5873 C 0.60307 0.36013 0.56056 0.0
C5874 C 0.60631 0.34903 0.57217 0.0
C5875 C 0.60772 0.33959 0.57525 0.0
C5876 C 0.60157 0.33272 0.57284 0.0
C5877 C 0.60296 0.32384 0.57569 0.0
C5878 C 0.61045 0.32173 0.58101 0.0
C5879 C 0.61655 0.32852 0.5835 0.0
C5880 C 0.6152 0.33742 0.58066 0.0
C5881 C 0.59629 0.38355 0.5918 0.0
C5882 C 0.60406 0.38507 0.59705 0.0
C5883 C 0.59634 0.37703 0.58497 0.0
C5884 C 0.60415 0.37191 0.58332 0.0
C5885 C 0.61187 0.37338 0.58859 0.0
C5886 C 0.61185 0.37993 0.59536 0.0
C5887 C 0.60429 0.36493 0.57617 0.0
C5888 C 0.60602 0.35595 0.57862 0.0
C5889 C 0.60272 0.36704 0.56703 0.0
C5890 C 0.60109 0.37645 0.564 0.0
C5891 C 0.60741 0.38333 0.56585 0.0
C5892 C 0.6058 0.39218 0.563 0.0
C5893 C 0.59793 0.39422 0.55824 0.0
C5894 C 0.59166 0.38741 0.55629 0.0
C5895 C 0.59323 0.37854 0.55913 0.0
H5896 H 0.5967 0.40108 0.55604 0.0
H5897 H 0.61151 0.31485 0.58321 0.0
H5898 H 0.42392 0.64985 0.78525 0.0
H5899 H 0.41204 0.65202 0.79646 0.0
H5900 H 0.43173 0.6626 0.81515 0.0
H5901 H 0.44364 0.66056 0.80394 0.0
H5902 H 0.42093 0.65002 0.82287 0.0
H5903 H 0.41697 0.67658 0.80481 0.0
H5904 H 0.41469 0.68508 0.79076 0.0
H5905 H 0.38953 0.6712 0.78633 0.0
H5906 H 0.39172 0.66252 0.8003 0.0
H5907 H 0.3909 0.66631 0.85582 0.0
H5908 H 0.4023 0.66569 0.84398 0.0
H5909 H 0.38232 0.65551 0.82538 0.0
H5910 H 0.37077 0.65643 0.83713 0.0
H5911 H 0.39316 0.66794 0.81749 0.0
H5912 H 0.3971 0.64124 0.83525 0.0
H5913 H 0.39929 0.63253 0.84919 0.0
H5914 H 0.4244 0.64637 0.854 0.0
H5915 H 0.4223 0.65526 0.84015 0.0
C5916 C 0.42571 0.65277 0.79169 0.0
C5917 C 0.43473 0.65504 0.79369 0.0
C5918 C 0.41891 0.65398 0.7981 0.0
C5919 C 0.42099 0.65753 0.80661 0.0
C5920 C 0.42998 0.65983 0.80862 0.0
C5921 C 0.43678 0.65863 0.80222 0.0
C5922 C 0.41385 0.65856 0.81353 0.0
C5923 C 0.41492 0.65405 0.82175 0.0
C5924 C 0.4059 0.66361 0.81196 0.0
C5925 C 0.40455 0.66884 0.80356 0.0
C5926 C 0.41099 0.67529 0.80081 0.0
C5927 C 0.40971 0.68015 0.79286 0.0
C5928 C 0.40198 0.67867 0.78764 0.0
C5929 C 0.39552 0.67234 0.79037 0.0
C5930 C 0.39677 0.66745 0.79831 0.0
C5931 C 0.38888 0.66408 0.84918 0.0
C5932 C 0.37992 0.66139 0.84743 0.0
C5933 C 0.39543 0.66364 0.84244 0.0
C5934 C 0.39319 0.66042 0.83384 0.0
C5935 C 0.38421 0.65797 0.83199 0.0
C5936 C 0.37763 0.65842 0.83873 0.0
C5937 C 0.40027 0.65944 0.82685 0.0
C5938 C 0.39918 0.66393 0.81862 0.0
C5939 C 0.4082 0.65434 0.82839 0.0
C5940 C 0.4095 0.64898 0.8367 0.0
C5941 C 0.40306 0.64248 0.83932 0.0
C5942 C 0.40429 0.6375 0.8472 0.0
C5943 C 0.41197 0.63891 0.85249 0.0
C5944 C 0.41845 0.64529 0.8499 0.0
C5945 C 0.41724 0.6503 0.84203 0.0
H5946 H 0.41291 0.63505 0.85859 0.0
H5947 H 0.401 0.68244 0.78149 0.0
H5948 H 0.06844 0.36076 0.31915 0.0
H5949 H 0.08224 0.35829 0.32769 0.0
H5950 H 0.09676 0.35283 0.30314 0.0
H5951 H 0.08281 0.35478 0.29453 0.0
H5952 H 0.10204 0.34153 0.31572 0.0
H5953 H 0.09868 0.37339 0.31388 0.0
H5954 H 0.09094 0.3881 0.31496 0.0
H5955 H 0.08737 0.38434 0.34335 0.0
H5956 H 0.09497 0.36954 0.34243 0.0
H5957 H 0.14484 0.3483 0.3388 0.0
H5958 H 0.13216 0.34998 0.32825 0.0
H5959 H 0.1135 0.35052 0.35051 0.0
H5960 H 0.12607 0.34879 0.36104 0.0
H5961 H 0.11147 0.3649 0.33783 0.0
H5962 H 0.1145 0.33225 0.33881 0.0
H5963 H 0.12284 0.31794 0.33715 0.0
H5964 H 0.12802 0.324 0.3094 0.0
H5965 H 0.11981 0.33842 0.31094 0.0
C5966 C 0.07451 0.35888 0.31554 0.0
C5967 C 0.07449 0.358 0.30613 0.0
C5968 C 0.08244 0.35759 0.32044 0.0
C5969 C 0.09059 0.35556 0.31604 0.0
C5970 C 0.09057 0.35446 0.30667 0.0
C5971 C 0.0826 0.35567 0.30176 0.0
C5972 C 0.09909 0.35467 0.32128 0.0
C5973 C 0.10418 0.34671 0.32044 0.0
C5974 C 0.10189 0.36141 0.32746 0.0
C5975 C 0.09733 0.37032 0.32807 0.0
C5976 C 0.09618 0.37567 0.32035 0.0
C5977 C 0.09183 0.38403 0.32093 0.0
C5978 C 0.08865 0.38714 0.32922 0.0
C5979 C 0.08983 0.38191 0.33694 0.0
C5980 C 0.09417 0.37355 0.33639 0.0
C5981 C 0.13802 0.34874 0.34141 0.0
C5982 C 0.13642 0.34837 0.35072 0.0
C5983 C 0.13081 0.34967 0.3354 0.0
C5984 C 0.12192 0.35036 0.33863 0.0
C5985 C 0.12032 0.34999 0.34791 0.0
C5986 C 0.12749 0.34894 0.3539 0.0
C5987 C 0.11424 0.3517 0.33241 0.0
C5988 C 0.10934 0.35977 0.33304 0.0
C5989 C 0.11172 0.34513 0.32594 0.0
C5990 C 0.11663 0.33646 0.32502 0.0
C5991 C 0.11749 0.33057 0.33238 0.0
C5992 C 0.12218 0.32243 0.33145 0.0
C5993 C 0.12599 0.32007 0.32318 0.0
C5994 C 0.12509 0.32584 0.31581 0.0
C5995 C 0.12041 0.33399 0.3167 0.0
H5996 H 0.12961 0.31377 0.32248 0.0
H5997 H 0.08528 0.39361 0.32965 0.0
H5998 H 0.35022 0.71513 0.44074 0.0
H5999 H 0.34721 0.7072 0.42656 0.0
H6000 H 0.37501 0.69853 0.42554 0.0
H6001 H 0.37809 0.70656 0.4396 0.0
H6002 H 0.36879 0.70423 0.40904 0.0
H6003 H 0.35894 0.68449 0.4332 0.0
H6004 H 0.34999 0.68063 0.44664 0.0
H6005 H 0.32543 0.68528 0.43199 0.0
H6006 H 0.33426 0.6893 0.41849 0.0
H6007 H 0.36978 0.66509 0.38217 0.0
H6008 H 0.37056 0.6767 0.3938 0.0
H6009 H 0.34168 0.68036 0.39212 0.0
H6010 H 0.34086 0.66868 0.38044 0.0
H6011 H 0.34674 0.67886 0.40905 0.0
H6012 H 0.35639 0.69667 0.3843 0.0
H6013 H 0.36519 0.70057 0.37078 0.0
H6014 H 0.38974 0.6999 0.38615 0.0
H6015 H 0.38111 0.69586 0.39975 0.0
C6016 C 0.3557 0.71162 0.43743 0.0
C6017 C 0.36437 0.7114 0.44131 0.0
C6018 C 0.35397 0.70706 0.42936 0.0
C6019 C 0.36087 0.70222 0.42505 0.0
C6020 C 0.36959 0.70222 0.42877 0.0
C6021 C 0.37131 0.70673 0.43684 0.0
C6022 C 0.35901 0.69682 0.41684 0.0
C6023 C 0.36401 0.69865 0.40904 0.0
C6024 C 0.35256 0.68974 0.41677 0.0
C6025 C 0.34726 0.6873 0.42487 0.0
C6026 C 0.35163 0.68476 0.43287 0.0
C6027 C 0.34658 0.68253 0.44049 0.0
C6028 C 0.33714 0.68274 0.44018 0.0
C6029 C 0.33274 0.68515 0.43223 0.0
C6030 C 0.33776 0.6874 0.42459 0.0
C6031 C 0.36362 0.66849 0.38414 0.0
C6032 C 0.35526 0.66598 0.38036 0.0
C6033 C 0.36407 0.67513 0.3908 0.0
C6034 C 0.35619 0.67949 0.39376 0.0
C6035 C 0.34785 0.6771 0.38993 0.0
C6036 C 0.34738 0.67041 0.38328 0.0
C6037 C 0.35667 0.68612 0.40126 0.0
C6038 C 0.35142 0.68453 0.40896 0.0
C6039 C 0.36286 0.69345 0.40121 0.0
C6040 C 0.3681 0.6959 0.39304 0.0
C6041 C 0.36367 0.69729 0.38479 0.0
C6042 C 0.36863 0.69954 0.37711 0.0
C6043 C 0.37802 0.70047 0.3776 0.0
C6044 C 0.38247 0.69918 0.38578 0.0
C6045 C 0.37754 0.69692 0.39348 0.0
H6046 H 0.38184 0.70221 0.37165 0.0
H6047 H 0.33324 0.68101 0.44609 0.0
H6048 H 0.13839 0.30695 0.01917 0.0
H6049 H 0.13247 0.31499 0.03223 0.0
H6050 H 0.10815 0.29884 0.03122 0.0
H6051 H 0.11393 0.29092 0.01793 0.0
H6052 H 0.1043 0.31648 0.03295 0.0
H6053 H 0.1236 0.29565 0.04793 0.0
H6054 H 0.13769 0.28733 0.05093 0.0
H6055 H 0.15148 0.3123 0.05655 0.0
H6056 H 0.1375 0.3208 0.05347 0.0
H6057 H 0.08939 0.33836 0.07329 0.0
H6058 H 0.09385 0.32642 0.06274 0.0
H6059 H 0.12003 0.33899 0.05971 0.0
H6060 H 0.11576 0.3507 0.07043 0.0
H6061 H 0.12166 0.32109 0.06114 0.0
H6062 H 0.10311 0.34186 0.04411 0.0
H6063 H 0.08921 0.35039 0.04081 0.0
H6064 H 0.07419 0.32556 0.0389 0.0
H6065 H 0.088 0.31688 0.0423 0.0
C6066 C 0.13178 0.3051 0.02173 0.0
C6067 C 0.12661 0.29832 0.01749 0.0
C6068 C 0.12845 0.30964 0.02926 0.0
C6069 C 0.11991 0.30746 0.03277 0.0
C6070 C 0.11478 0.3006 0.02865 0.0
C6071 C 0.11812 0.29604 0.0211 0.0
C6072 C 0.11619 0.31272 0.04042 0.0
C6073 C 0.108 0.31733 0.0392 0.0
C6074 C 0.12108 0.31395 0.04851 0.0
C6075 C 0.1295 0.30887 0.05041 0.0
C6076 C 0.12965 0.29938 0.04975 0.0
C6077 C 0.13761 0.29463 0.05147 0.0
C6078 C 0.14548 0.29928 0.05391 0.0
C6079 C 0.14538 0.3087 0.05466 0.0
C6080 C 0.13744 0.31349 0.05293 0.0
C6081 C 0.09612 0.33852 0.07044 0.0
C6082 C 0.10219 0.34554 0.07263 0.0
C6083 C 0.09864 0.33173 0.06437 0.0
C6084 C 0.10724 0.33187 0.06036 0.0
C6085 C 0.11335 0.33875 0.0627 0.0
C6086 C 0.11086 0.34551 0.06876 0.0
C6087 C 0.1099 0.32501 0.05357 0.0
C6088 C 0.11789 0.32011 0.05495 0.0
C6089 C 0.10484 0.32353 0.04562 0.0
C6090 C 0.09655 0.32873 0.04357 0.0
C6091 C 0.09683 0.33823 0.04306 0.0
C6092 C 0.08897 0.34309 0.04116 0.0
C6093 C 0.08081 0.33852 0.03967 0.0
C6094 C 0.08051 0.32908 0.04006 0.0
C6095 C 0.08835 0.32419 0.04197 0.0
H6096 H 0.07474 0.3423 0.0382 0.0
H6097 H 0.15164 0.29559 0.05525 0.0
H6098 H 0.97189 0.87883 0.29939 0.0
H6099 H 0.96955 0.87939 0.31564 0.0
H6100 H 0.9617 0.85127 0.31549 0.0
H6101 H 0.9641 0.85063 0.29925 0.0
H6102 H 0.94943 0.86158 0.32392 0.0
H6103 H 0.98153 0.85794 0.32504 0.0
H6104 H 0.9974 0.86139 0.32129 0.0
H6105 H 0.99455 0.88801 0.3325 0.0
H6106 H 0.97861 0.88476 0.3362 0.0
H6107 H 0.94318 0.85908 0.37068 0.0
H6108 H 0.94975 0.85609 0.35592 0.0
H6109 H 0.95858 0.88387 0.3542 0.0
H6110 H 0.95237 0.88682 0.36914 0.0
H6111 H 0.971 0.87274 0.34699 0.0
H6112 H 0.93888 0.8771 0.34452 0.0
H6113 H 0.92284 0.87415 0.34802 0.0
H6114 H 0.92565 0.8467 0.339 0.0
H6115 H 0.94174 0.84945 0.33556 0.0
C6116 C 0.96987 0.87271 0.30284 0.0
C6117 C 0.96813 0.8647 0.29801 0.0
C6118 C 0.96853 0.87304 0.31214 0.0
C6119 C 0.96548 0.86536 0.31679 0.0
C6120 C 0.96402 0.85728 0.31203 0.0
C6121 C 0.96537 0.85694 0.30274 0.0
C6122 C 0.9631 0.86595 0.32646 0.0
C6123 C 0.95421 0.86385 0.32899 0.0
C6124 C 0.96926 0.86916 0.33303 0.0
C6125 C 0.97885 0.87113 0.33083 0.0
C6126 C 0.98426 0.86455 0.32664 0.0
C6127 C 0.99328 0.86647 0.32453 0.0
C6128 C 0.99698 0.87492 0.32663 0.0
C6129 C 0.99167 0.88147 0.33086 0.0
C6130 C 0.98265 0.87959 0.33298 0.0
C6131 C 0.94671 0.8645 0.36727 0.0
C6132 C 0.94716 0.87322 0.37106 0.0
C6133 C 0.95039 0.8628 0.35879 0.0
C6134 C 0.9545 0.8698 0.35388 0.0
C6135 C 0.95539 0.87838 0.35784 0.0
C6136 C 0.95175 0.88007 0.36634 0.0
C6137 C 0.95734 0.86836 0.34442 0.0
C6138 C 0.96628 0.87036 0.34192 0.0
C6139 C 0.95121 0.86511 0.33784 0.0
C6140 C 0.94153 0.86345 0.33988 0.0
C6141 C 0.93609 0.87041 0.34335 0.0
C6142 C 0.92699 0.86878 0.34531 0.0
C6143 C 0.92323 0.86024 0.34376 0.0
C6144 C 0.92857 0.85331 0.34021 0.0
C6145 C 0.93768 0.8549 0.33825 0.0
H6146 H 0.91619 0.85899 0.34528 0.0
H6147 H 1.00396 0.87639 0.325 0.0
H6148 H 0.3848 0.73034 0.53585 0.0
H6149 H 0.3901 0.71946 0.54704 0.0
H6150 H 0.40479 0.70517 0.52641 0.0
H6151 H 0.39957 0.71603 0.51522 0.0
H6152 H 0.39496 0.69378 0.5366 0.0
H6153 H 0.41577 0.71833 0.54182 0.0
H6154 H 0.42007 0.73413 0.54508 0.0
H6155 H 0.40592 0.73288 0.57025 0.0
H6156 H 0.40143 0.71711 0.56708 0.0
H6157 H 0.41909 0.66391 0.56438 0.0
H6158 H 0.41554 0.67596 0.55371 0.0
H6159 H 0.40231 0.69097 0.57483 0.0
H6160 H 0.40606 0.67902 0.58556 0.0
H6161 H 0.41143 0.70215 0.56447 0.0
H6162 H 0.39027 0.67801 0.55937 0.0
H6163 H 0.38553 0.66231 0.55628 0.0
H6164 H 0.39967 0.66289 0.53108 0.0
H6165 H 0.40461 0.67856 0.53408 0.0
C6166 C 0.38926 0.72495 0.53373 0.0
C6167 C 0.39174 0.72403 0.52464 0.0
C6168 C 0.39228 0.71873 0.54012 0.0
C6169 C 0.39789 0.71153 0.53757 0.0
C6170 C 0.40044 0.71066 0.52853 0.0
C6171 C 0.39743 0.71685 0.52213 0.0
C6172 C 0.40084 0.7047 0.54423 0.0
C6173 C 0.39868 0.69559 0.54263 0.0
C6174 C 0.40545 0.7071 0.55223 0.0
C6175 C 0.40819 0.71657 0.55417 0.0
C6176 C 0.41352 0.72145 0.54801 0.0
C6177 C 0.416 0.73039 0.54985 0.0
C6178 C 0.41325 0.73451 0.55786 0.0
C6179 C 0.40803 0.72969 0.56405 0.0
C6180 C 0.40553 0.72074 0.56224 0.0
C6181 C 0.41546 0.66981 0.56674 0.0
C6182 C 0.41279 0.67051 0.57577 0.0
C6183 C 0.41342 0.67667 0.56064 0.0
C6184 C 0.40849 0.68429 0.56342 0.0
C6185 C 0.40609 0.68515 0.57252 0.0
C6186 C 0.40825 0.67833 0.57865 0.0
C6187 C 0.4056 0.69121 0.5568 0.0
C6188 C 0.40774 0.70033 0.55843 0.0
C6189 C 0.4009 0.68884 0.54884 0.0
C6190 C 0.39788 0.67943 0.54699 0.0
C6191 C 0.39242 0.67477 0.5532 0.0
C6192 C 0.38969 0.66588 0.55146 0.0
C6193 C 0.39232 0.6616 0.5435 0.0
C6194 C 0.39766 0.66621 0.53725 0.0
C6195 C 0.40041 0.6751 0.53896 0.0
H6196 H 0.3902 0.65471 0.54217 0.0
H6197 H 0.41518 0.74144 0.55927 0.0
H6198 H 0.54582 0.13601 0.79994 0.0
H6199 H 0.54835 0.13526 0.81616 0.0
H6200 H 0.55589 0.16347 0.81641 0.0
H6201 H 0.55331 0.16428 0.8002 0.0
H6202 H 0.56834 0.15322 0.82456 0.0
H6203 H 0.53617 0.15638 0.82596 0.0
H6204 H 0.52032 0.15269 0.82228 0.0
H6205 H 0.52371 0.12604 0.83315 0.0
H6206 H 0.53962 0.12953 0.83678 0.0
H6207 H 0.57466 0.15607 0.87124 0.0
H6208 H 0.56801 0.15878 0.85648 0.0
H6209 H 0.55977 0.13081 0.85489 0.0
H6210 H 0.56606 0.12813 0.86984 0.0
H6211 H 0.54708 0.14167 0.84767 0.0
H6212 H 0.57925 0.13785 0.84508 0.0
H6213 H 0.59524 0.14106 0.84854 0.0
H6214 H 0.59198 0.16843 0.83955 0.0
H6215 H 0.57592 0.16541 0.83615 0.0
C6216 C 0.54782 0.1421 0.80348 0.0
C6217 C 0.54941 0.15019 0.79877 0.0
C6218 C 0.54927 0.14166 0.81275 0.0
C6219 C 0.55228 0.14932 0.81751 0.0
C6220 C 0.5536 0.15747 0.81287 0.0
C6221 C 0.55215 0.15792 0.80361 0.0
C6222 C 0.55475 0.14865 0.82715 0.0
C6223 C 0.56363 0.15086 0.82964 0.0
C6224 C 0.54869 0.14531 0.83372 0.0
C6225 C 0.53911 0.1432 0.83157 0.0
C6226 C 0.53356 0.14971 0.8275 0.0
C6227 C 0.52456 0.14766 0.82543 0.0
C6228 C 0.52102 0.13913 0.82746 0.0
C6229 C 0.52647 0.13264 0.83158 0.0
C6230 C 0.53547 0.13466 0.83365 0.0
C6231 C 0.57125 0.15054 0.86786 0.0
C6232 C 0.57098 0.14185 0.8717 0.0
C6233 C 0.56752 0.15208 0.85937 0.0
C6234 C 0.56355 0.14496 0.85451 0.0
C6235 C 0.56286 0.13639 0.8585 0.0
C6236 C 0.56654 0.13485 0.86701 0.0
C6237 C 0.56066 0.14628 0.84505 0.0
C6238 C 0.55174 0.14413 0.84259 0.0
C6239 C 0.5667 0.14962 0.83846 0.0
C6240 C 0.57636 0.15143 0.84046 0.0
C6241 C 0.58192 0.14457 0.84391 0.0
C6242 C 0.59101 0.14635 0.84585 0.0
C6243 C 0.59462 0.15495 0.84429 0.0
C6244 C 0.58917 0.16178 0.84077 0.0
C6245 C 0.58008 0.16004 0.83883 0.0
H6246 H 0.60165 0.15631 0.8458 0.0
H6247 H 0.51405 0.13756 0.82586 0.0
H6248 H 0.13035 0.72417 0.49119 0.0
H6249 H 0.12418 0.71577 0.47833 0.0
H6250 H 0.11434 0.69508 0.49628 0.0
H6251 H 0.1204 0.70343 0.5091 0.0
H6252 H 0.1238 0.68798 0.48255 0.0
H6253 H 0.09999 0.70987 0.48625 0.0
H6254 H 0.09363 0.72523 0.48735 0.0
H6255 H 0.10329 0.73129 0.46082 0.0
H6256 H 0.10983 0.71601 0.45961 0.0
H6257 H 0.09643 0.66123 0.45522 0.0
H6258 H 0.10076 0.67223 0.46671 0.0
H6259 H 0.11032 0.69042 0.44614 0.0
H6260 H 0.10599 0.67939 0.43455 0.0
H6261 H 0.10171 0.69946 0.46024 0.0
H6262 H 0.12518 0.67764 0.45631 0.0
H6263 H 0.13159 0.66233 0.45503 0.0
H6264 H 0.12293 0.6563 0.48191 0.0
H6265 H 0.11632 0.67154 0.4833 0.0
C6266 C 0.12675 0.7179 0.4924 0.0
C6267 C 0.12594 0.71442 0.50116 0.0
C6268 C 0.12324 0.7131 0.48505 0.0
C6269 C 0.1188 0.7048 0.48635 0.0
C6270 C 0.1178 0.70144 0.49511 0.0
C6271 C 0.1213 0.70621 0.50243 0.0
C6272 C 0.11558 0.6993 0.47863 0.0
C6273 C 0.11889 0.69046 0.47774 0.0
C6274 C 0.10942 0.70265 0.47217 0.0
C6275 C 0.10548 0.71183 0.47288 0.0
C6276 C 0.10083 0.71451 0.48069 0.0
C6277 C 0.09718 0.72319 0.48132 0.0
C6278 C 0.09808 0.72924 0.47417 0.0
C6279 C 0.10261 0.72661 0.46636 0.0
C6280 C 0.10629 0.71793 0.46569 0.0
C6281 C 0.09938 0.6676 0.45313 0.0
C6282 C 0.10098 0.66939 0.44399 0.0
C6283 C 0.10184 0.67389 0.4597 0.0
C6284 C 0.10601 0.68206 0.45728 0.0
C6285 C 0.10713 0.68413 0.44814 0.0
C6286 C 0.10464 0.67783 0.44154 0.0
C6287 C 0.10977 0.68809 0.46434 0.0
C6288 C 0.10663 0.69701 0.46506 0.0
C6289 C 0.11614 0.68485 0.47065 0.0
C6290 C 0.12019 0.67571 0.46987 0.0
C6291 C 0.12458 0.67303 0.46192 0.0
C6292 C 0.12826 0.66436 0.46118 0.0
C6293 C 0.12765 0.65834 0.46838 0.0
C6294 C 0.12338 0.66097 0.47634 0.0
C6295 C 0.11968 0.66962 0.47711 0.0
H6296 H 0.1305 0.65163 0.46779 0.0
H6297 H 0.09524 0.73596 0.47468 0.0
H6298 H 0.53847 0.86046 0.71534 0.0
H6299 H 0.54059 0.86223 0.69907 0.0
H6300 H 0.56493 0.87766 0.7039 0.0
H6301 H 0.56276 0.87608 0.72007 0.0
H6302 H 0.55455 0.88528 0.69093 0.0
H6303 H 0.56579 0.85534 0.69839 0.0
H6304 H 0.56433 0.83985 0.70436 0.0
H6305 H 0.54312 0.8342 0.68543 0.0
H6306 H 0.54438 0.8497 0.67942 0.0
H6307 H 0.5823 0.88291 0.65323 0.0
H6308 H 0.57535 0.88133 0.66798 0.0
H6309 H 0.55355 0.86581 0.65632 0.0
H6310 H 0.56052 0.86738 0.64142 0.0
H6311 H 0.55952 0.85825 0.67176 0.0
H6312 H 0.54987 0.88746 0.66276 0.0
H6313 H 0.55141 0.90288 0.65668 0.0
H6314 H 0.56928 0.91002 0.67833 0.0
H6315 H 0.56795 0.89459 0.68448 0.0
C6316 C 0.54421 0.86431 0.71291 0.0
C6317 C 0.55049 0.86807 0.71898 0.0
C6318 C 0.54545 0.86527 0.70363 0.0
C6319 C 0.55297 0.87001 0.70028 0.0
C6320 C 0.55909 0.87396 0.70633 0.0
C6321 C 0.55788 0.87298 0.71558 0.0
C6322 C 0.55469 0.87073 0.69049 0.0
C6323 C 0.55566 0.87938 0.68674 0.0
C6324 C 0.55583 0.86302 0.68495 0.0
C6325 C 0.5551 0.85371 0.68854 0.0
C6326 C 0.56076 0.85082 0.69555 0.0
C6327 C 0.55998 0.84203 0.69893 0.0
C6328 C 0.55362 0.83606 0.6953 0.0
C6329 C 0.54804 0.83884 0.68825 0.0
C6330 C 0.54878 0.84762 0.68486 0.0
C6331 C 0.57597 0.87925 0.65377 0.0
C6332 C 0.5719 0.87537 0.64613 0.0
C6333 C 0.572 0.87834 0.66221 0.0
C6334 C 0.56384 0.87361 0.66323 0.0
C6335 C 0.55983 0.86954 0.65567 0.0
C6336 C 0.56382 0.87043 0.64718 0.0
C6337 C 0.55968 0.87281 0.67228 0.0
C6338 C 0.55823 0.86416 0.67589 0.0
C6339 C 0.55807 0.88052 0.67769 0.0
C6340 C 0.55884 0.88984 0.67406 0.0
C6341 C 0.55417 0.8923 0.6662 0.0
C6342 C 0.555 0.90104 0.66274 0.0
C6343 C 0.56045 0.90742 0.66711 0.0
C6344 C 0.56506 0.90507 0.67495 0.0
C6345 C 0.56426 0.89633 0.67844 0.0
H6346 H 0.56109 0.91419 0.66442 0.0
H6347 H 0.55302 0.82926 0.69792 0.0
H6348 H 0.38433 0.2931 0.9896 0.0
H6349 H 0.39066 0.30164 0.97695 0.0
H6350 H 0.39943 0.32259 0.99523 0.0
H6351 H 0.39318 0.31412 0.00784 0.0
H6352 H 0.39058 0.32955 0.98125 0.0
H6353 H 0.41441 0.30785 0.98563 0.0
H6354 H 0.42088 0.29256 0.98692 0.0
H6355 H 0.41206 0.2863 0.96011 0.0
H6356 H 0.40543 0.30152 0.95871 0.0
H6357 H 0.41838 0.35635 0.95434 0.0
H6358 H 0.41383 0.34549 0.96586 0.0
H6359 H 0.40509 0.32684 0.94526 0.0
H6360 H 0.40964 0.33771 0.93366 0.0
H6361 H 0.41335 0.31812 0.95956 0.0
H6362 H 0.38983 0.33982 0.95504 0.0
H6363 H 0.3834 0.35511 0.95363 0.0
H6364 H 0.39145 0.36126 0.9807 0.0
H6365 H 0.39806 0.34604 0.98222 0.0
C6366 C 0.38771 0.29947 0.99092 0.0
C6367 C 0.38818 0.30297 0.99971 0.0
C6368 C 0.39133 0.30434 0.9837 0.0
C6369 C 0.39554 0.31275 0.98515 0.0
C6370 C 0.39616 0.31615 0.99394 0.0
C6371 C 0.39255 0.31132 1.00114 0.0
C6372 C 0.39896 0.31826 0.97754 0.0
C6373 C 0.39564 0.32708 0.97658 0.0
C6374 C 0.40535 0.31493 0.97127 0.0
C6375 C 0.40934 0.30579 0.9721 0.0
C6376 C 0.41378 0.30319 0.98004 0.0
C6377 C 0.41749 0.29454 0.98079 0.0
C6378 C 0.41686 0.28845 0.97361 0.0
C6379 C 0.41254 0.29101 0.96567 0.0
C6380 C 0.40881 0.29965 0.96489 0.0
C6381 C 0.41555 0.34991 0.95226 0.0
C6382 C 0.41425 0.34792 0.94311 0.0
C6383 C 0.41297 0.34371 0.95884 0.0
C6384 C 0.40897 0.33544 0.95641 0.0
C6385 C 0.40814 0.3332 0.94727 0.0
C6386 C 0.41076 0.33941 0.94066 0.0
C6387 C 0.40511 0.32946 0.96343 0.0
C6388 C 0.40829 0.32056 0.96424 0.0
C6389 C 0.39856 0.33269 0.96957 0.0
C6390 C 0.39451 0.34181 0.96872 0.0
C6391 C 0.39028 0.34445 0.96067 0.0
C6392 C 0.3866 0.3531 0.95985 0.0
C6393 C 0.38703 0.35916 0.96706 0.0
C6394 C 0.39113 0.35656 0.97512 0.0
C6395 C 0.39484 0.34792 0.97596 0.0
H6396 H 0.38418 0.36585 0.96642 0.0
H6397 H 0.41974 0.28176 0.9742 0.0
H6398 H 0.96288 0.13887 0.2203 0.0
H6399 H 0.95724 0.1385 0.2049 0.0
H6400 H 0.98368 0.14586 0.19506 0.0
H6401 H 0.98937 0.14643 0.21057 0.0
H6402 H 0.96975 0.15534 0.18663 0.0
H6403 H 0.97725 0.12465 0.1931 0.0
H6404 H 0.97738 0.11059 0.20197 0.0
H6405 H 0.94849 0.10869 0.19985 0.0
H6406 H 0.94817 0.12283 0.19107 0.0
H6407 H 0.95602 0.14432 0.14143 0.0
H6408 H 0.96431 0.14538 0.15568 0.0
H6409 H 0.9406 0.13621 0.16994 0.0
H6410 H 0.93234 0.13511 0.15578 0.0
H6411 H 0.95512 0.12728 0.17537 0.0
H6412 H 0.94746 0.15856 0.17011 0.0
H6413 H 0.94715 0.17278 0.16149 0.0
H6414 H 0.97617 0.17363 0.16142 0.0
H6415 H 0.97665 0.15933 0.16994 0.0
C6416 C 0.96749 0.14052 0.21488 0.0
C6417 C 0.97657 0.1427 0.21665 0.0
C6418 C 0.96427 0.14023 0.20607 0.0
C6419 C 0.97007 0.14206 0.19884 0.0
C6420 C 0.97911 0.1444 0.20056 0.0
C6421 C 0.98236 0.14466 0.2094 0.0
C6422 C 0.96662 0.14141 0.18951 0.0
C6423 C 0.9667 0.14916 0.18409 0.0
C6424 C 0.96253 0.13338 0.18626 0.0
C6425 C 0.96269 0.12484 0.19148 0.0
C6426 C 0.97092 0.12127 0.19458 0.0
C6427 C 0.97102 0.11328 0.19958 0.0
C6428 C 0.96294 0.10876 0.20148 0.0
C6429 C 0.95474 0.11221 0.19837 0.0
C6430 C 0.9546 0.1202 0.19337 0.0
C6431 C 0.95257 0.14262 0.14763 0.0
C6432 C 0.94355 0.13958 0.14749 0.0
C6433 C 0.9573 0.14323 0.15575 0.0
C6434 C 0.95306 0.1409 0.16388 0.0
C6435 C 0.94403 0.13798 0.16375 0.0
C6436 C 0.93932 0.13733 0.15565 0.0
C6437 C 0.95802 0.14128 0.17256 0.0
C6438 C 0.95825 0.13344 0.17785 0.0
C6439 C 0.96237 0.14923 0.17568 0.0
C6440 C 0.96209 0.15782 0.17057 0.0
C6441 C 0.95377 0.16174 0.16819 0.0
C6442 C 0.95357 0.16982 0.16334 0.0
C6443 C 0.96164 0.17409 0.16089 0.0
C6444 C 0.96993 0.1703 0.16331 0.0
C6445 C 0.97017 0.16221 0.16815 0.0
H6446 H 0.96147 0.18035 0.15713 0.0
H6447 H 0.96304 0.10257 0.20536 0.0
H6448 H 0.01097 0.12753 0.31519 0.0
H6449 H 0.02409 0.12256 0.3237 0.0
H6450 H 0.03815 0.11659 0.29899 0.0
H6451 H 0.02482 0.12127 0.29037 0.0
H6452 H 0.04064 0.10333 0.31131 0.0
H6453 H 0.04368 0.13529 0.31075 0.0
H6454 H 0.03892 0.15118 0.31221 0.0
H6455 H 0.03354 0.14717 0.34028 0.0
H6456 H 0.03814 0.1312 0.33896 0.0
H6457 H 0.08209 0.09979 0.33751 0.0
H6458 H 0.07085 0.10394 0.32613 0.0
H6459 H 0.05139 0.10924 0.34705 0.0
H6460 H 0.06242 0.10488 0.3584 0.0
H6461 H 0.05341 0.12347 0.33486 0.0
H6462 H 0.04919 0.09094 0.33466 0.0
H6463 H 0.05422 0.07515 0.33292 0.0
H6464 H 0.0625 0.08063 0.3058 0.0
H6465 H 0.05763 0.0965 0.30743 0.0
C6466 C 0.0168 0.12506 0.31154 0.0
C6467 C 0.01682 0.12477 0.30209 0.0
C6468 C 0.02434 0.12231 0.31642 0.0
C6469 C 0.03215 0.11932 0.31198 0.0
C6470 C 0.03221 0.11892 0.30255 0.0
C6471 C 0.02462 0.12166 0.29764 0.0
C6472 C 0.04018 0.11661 0.3173 0.0
C6473 C 0.04356 0.10779 0.31634 0.0
C6474 C 0.04396 0.12241 0.32389 0.0
C6475 C 0.0412 0.13202 0.32474 0.0
C6476 C 0.04142 0.13777 0.31722 0.0
C6477 C 0.03876 0.1468 0.31802 0.0
C6478 C 0.03591 0.15018 0.32633 0.0
C6479 C 0.03574 0.14454 0.33385 0.0
C6480 C 0.03839 0.1355 0.33308 0.0
C6481 C 0.07536 0.10167 0.33968 0.0
C6482 C 0.07319 0.10209 0.34888 0.0
C6483 C 0.06897 0.10408 0.33317 0.0
C6484 C 0.06032 0.10695 0.33577 0.0
C6485 C 0.05806 0.10713 0.34492 0.0
C6486 C 0.0644 0.10467 0.3514 0.0
C6487 C 0.05365 0.11012 0.32906 0.0
C6488 C 0.05057 0.11905 0.32974 0.0
C6489 C 0.05023 0.10446 0.32218 0.0
C6490 C 0.05315 0.09493 0.3212 0.0
C6491 C 0.05216 0.0888 0.32835 0.0
C6492 C 0.05497 0.07983 0.32738 0.0
C6493 C 0.05871 0.0769 0.31926 0.0
C6494 C 0.05962 0.08292 0.31209 0.0
C6495 C 0.05683 0.0919 0.31303 0.0
H6496 H 0.06087 0.06995 0.31852 0.0
H6497 H 0.03386 0.15717 0.32694 0.0
H6498 H 0.13253 0.80413 0.53373 0.0
H6499 H 0.13287 0.81969 0.53931 0.0
H6500 H 0.15839 0.81457 0.55235 0.0
H6501 H 0.15815 0.79903 0.54671 0.0
H6502 H 0.14652 0.82237 0.56365 0.0
H6503 H 0.15738 0.82782 0.53383 0.0
H6504 H 0.15718 0.82703 0.51728 0.0
H6505 H 0.13198 0.84133 0.51677 0.0
H6506 H 0.13196 0.8421 0.53333 0.0
H6507 H 0.15516 0.86731 0.57725 0.0
H6508 H 0.15668 0.8529 0.56932 0.0
H6509 H 0.13079 0.85702 0.55666 0.0
H6510 H 0.12931 0.87156 0.56443 0.0
H6511 H 0.14332 0.8499 0.54492 0.0
H6512 H 0.13207 0.8438 0.57459 0.0
H6513 H 0.13207 0.84454 0.59115 0.0
H6514 H 0.15785 0.83131 0.59187 0.0
H6515 H 0.15807 0.83061 0.57529 0.0
C6516 C 0.1383 0.80636 0.53763 0.0
C6517 C 0.1453 0.80032 0.53979 0.0
C6518 C 0.13848 0.81525 0.54084 0.0
C6519 C 0.14568 0.8183 0.54622 0.0
C6520 C 0.15275 0.81235 0.54824 0.0
C6521 C 0.15259 0.80346 0.54503 0.0
C6522 C 0.14558 0.82753 0.55015 0.0
C6523 C 0.14598 0.82839 0.55954 0.0
C6524 C 0.14463 0.83538 0.5448 0.0
C6525 C 0.14462 0.83494 0.53483 0.0
C6526 C 0.15175 0.83073 0.5302 0.0
C6527 C 0.15169 0.8303 0.52081 0.0
C6528 C 0.14456 0.8341 0.51597 0.0
C6529 C 0.13749 0.83837 0.52052 0.0
C6530 C 0.13752 0.83881 0.52991 0.0
C6531 C 0.14986 0.86523 0.57266 0.0
C6532 C 0.14208 0.87055 0.57151 0.0
C6533 C 0.15071 0.85696 0.56818 0.0
C6534 C 0.14379 0.85384 0.56249 0.0
C6535 C 0.13619 0.85929 0.56105 0.0
C6536 C 0.13532 0.86755 0.56555 0.0
C6537 C 0.14429 0.84471 0.55839 0.0
C6538 C 0.14393 0.84386 0.549 0.0
C6539 C 0.14525 0.83686 0.56373 0.0
C6540 C 0.14513 0.83724 0.5737 0.0
C6541 C 0.13777 0.84112 0.57827 0.0
C6542 C 0.13773 0.84152 0.58766 0.0
C6543 C 0.14496 0.838 0.59256 0.0
C6544 C 0.15225 0.83405 0.58807 0.0
C6545 C 0.15234 0.83364 0.57868 0.0
H6546 H 0.14491 0.83831 0.59983 0.0
H6547 H 0.14453 0.83377 0.50871 0.0
H6548 H 0.48209 0.88704 0.78396 0.0
H6549 H 0.47148 0.89282 0.79521 0.0
H6550 H 0.49314 0.89475 0.81454 0.0
H6551 H 0.50378 0.88911 0.80334 0.0
H6552 H 0.47837 0.88666 0.82163 0.0
H6553 H 0.48489 0.9135 0.8046 0.0
H6554 H 0.48611 0.92274 0.79088 0.0
H6555 H 0.45768 0.91937 0.78602 0.0
H6556 H 0.45631 0.91 0.79966 0.0
H6557 H 0.45709 0.91235 0.85543 0.0
H6558 H 0.46731 0.90776 0.84336 0.0
H6559 H 0.44485 0.90638 0.82491 0.0
H6560 H 0.43456 0.91093 0.83697 0.0
H6561 H 0.45962 0.91404 0.81711 0.0
H6562 H 0.45301 0.88733 0.8341 0.0
H6563 H 0.45169 0.87805 0.84779 0.0
H6564 H 0.48017 0.88098 0.85258 0.0
H6565 H 0.48164 0.8904 0.83899 0.0
C6566 C 0.48461 0.88879 0.79058 0.0
C6567 C 0.49378 0.88757 0.79276 0.0
C6568 C 0.47854 0.89208 0.797 0.0
C6569 C 0.48153 0.89425 0.8057 0.0
C6570 C 0.49068 0.89307 0.80788 0.0
C6571 C 0.49674 0.88981 0.80148 0.0
C6572 C 0.47513 0.89757 0.81263 0.0
C6573 C 0.47435 0.89271 0.82068 0.0
C6574 C 0.46972 0.90533 0.8113 0.0
C6575 C 0.47052 0.91097 0.8031 0.0
C6576 C 0.47891 0.91467 0.80057 0.0
C6577 C 0.47963 0.91994 0.79281 0.0
C6578 C 0.47198 0.92162 0.78756 0.0
C6579 C 0.4636 0.91805 0.79008 0.0
C6580 C 0.46285 0.91277 0.79783 0.0
C6581 C 0.45432 0.91106 0.8488 0.0
C6582 C 0.445 0.91194 0.84718 0.0
C6583 C 0.46017 0.90846 0.84191 0.0
C6584 C 0.45682 0.9066 0.83327 0.0
C6585 C 0.44758 0.90777 0.83153 0.0
C6586 C 0.44171 0.9104 0.83843 0.0
C6587 C 0.46293 0.90317 0.82614 0.0
C6588 C 0.46363 0.90799 0.81804 0.0
C6589 C 0.46827 0.89535 0.82741 0.0
C6590 C 0.46742 0.88965 0.83557 0.0
C6591 C 0.45898 0.88606 0.83811 0.0
C6592 C 0.45821 0.88076 0.84585 0.0
C6593 C 0.46584 0.87895 0.85106 0.0
C6594 C 0.47427 0.8824 0.84854 0.0
C6595 C 0.47507 0.88772 0.84082 0.0
H6596 H 0.46523 0.87484 0.85705 0.0
H6597 H 0.47255 0.92571 0.78156 0.0
H6598 H 0.3818 0.21936 0.05098 0.0
H6599 H 0.38191 0.20371 0.05613 0.0
H6600 H 0.36586 0.19575 0.03321 0.0
H6601 H 0.36559 0.21152 0.02807 0.0
H6602 H 0.35963 0.18827 0.04914 0.0
H6603 H 0.38752 0.19045 0.03334 0.0
H6604 H 0.40217 0.19716 0.02901 0.0
H6605 H 0.41185 0.19413 0.05604 0.0
H6606 H 0.39721 0.18753 0.06057 0.0
H6607 H 0.36756 0.1415 0.06059 0.0
H6608 H 0.36647 0.15579 0.05234 0.0
H6609 H 0.38263 0.169 0.07265 0.0
H6610 H 0.38363 0.15486 0.08098 0.0
H6611 H 0.38859 0.17282 0.05576 0.0
H6612 H 0.36015 0.17218 0.07178 0.0
H6613 H 0.34544 0.16566 0.0762 0.0
H6614 H 0.33682 0.16576 0.04863 0.0
H6615 H 0.35153 0.17217 0.04404 0.0
C6616 C 0.37825 0.21429 0.04705 0.0
C6617 C 0.37366 0.21667 0.03913 0.0
C6618 C 0.37838 0.20534 0.04996 0.0
C6619 C 0.37396 0.19856 0.04501 0.0
C6620 C 0.36933 0.20089 0.03711 0.0
C6621 C 0.36924 0.20987 0.03416 0.0
C6622 C 0.37415 0.18908 0.04823 0.0
C6623 C 0.36595 0.1848 0.05042 0.0
C6624 C 0.3824 0.18462 0.05001 0.0
C6625 C 0.39124 0.18855 0.04731 0.0
C6626 C 0.39275 0.19128 0.03838 0.0
C6627 C 0.40105 0.19505 0.03588 0.0
C6628 C 0.40793 0.19608 0.04225 0.0
C6629 C 0.40652 0.19333 0.05112 0.0
C6630 C 0.39822 0.18956 0.05365 0.0
C6631 C 0.37079 0.14748 0.06335 0.0
C6632 C 0.37573 0.14702 0.07142 0.0
C6633 C 0.37018 0.15562 0.05861 0.0
C6634 C 0.37448 0.16345 0.06188 0.0
C6635 C 0.37933 0.16302 0.06997 0.0
C6636 C 0.37992 0.15491 0.0747 0.0
C6637 C 0.37409 0.17211 0.0569 0.0
C6638 C 0.38226 0.17622 0.05436 0.0
C6639 C 0.36582 0.1764 0.0548 0.0
C6640 C 0.35698 0.17255 0.05756 0.0
C6641 C 0.35515 0.17073 0.06665 0.0
C6642 C 0.3468 0.16707 0.06919 0.0
C6643 C 0.34021 0.16527 0.0627 0.0
C6644 C 0.34194 0.16714 0.05365 0.0
C6645 C 0.35028 0.17079 0.05108 0.0
H6646 H 0.33376 0.16244 0.06467 0.0
H6647 H 0.41436 0.199 0.0403 0.0
H6648 H 0.01476 0.885 0.21197 0.0
H6649 H 0.02599 0.88997 0.20107 0.0
H6650 H 0.04312 0.89952 0.22258 0.0
H6651 H 0.03165 0.89499 0.23357 0.0
H6652 H 0.04308 0.91138 0.20933 0.0
H6653 H 0.04759 0.87955 0.21137 0.0
H6654 H 0.04332 0.86341 0.2114 0.0
H6655 H 0.03404 0.86557 0.18414 0.0
H6656 H 0.03814 0.88176 0.18399 0.0
H6657 H 0.08223 0.91391 0.18038 0.0
H6658 H 0.0716 0.91029 0.19247 0.0
H6659 H 0.05118 0.90359 0.17285 0.0
H6660 H 0.06161 0.90747 0.16074 0.0
H6661 H 0.05383 0.89014 0.18582 0.0
H6662 H 0.04912 0.92237 0.1843 0.0
H6663 H 0.05387 0.93837 0.18452 0.0
H6664 H 0.06434 0.93513 0.21124 0.0
H6665 H 0.05977 0.91907 0.21112 0.0
C6666 C 0.02085 0.88826 0.21441 0.0
C6667 C 0.02228 0.8896 0.22367 0.0
C6668 C 0.02733 0.891 0.20815 0.0
C6669 C 0.03547 0.89499 0.211 0.0
C6670 C 0.03691 0.89641 0.22023 0.0
C6671 C 0.03038 0.89373 0.2265 0.0
C6672 C 0.04242 0.89771 0.20431 0.0
C6673 C 0.04554 0.90669 0.20429 0.0
C6674 C 0.04556 0.89163 0.19764 0.0
C6675 C 0.0431 0.88189 0.1977 0.0
C6676 C 0.04458 0.8766 0.20541 0.0
C6677 C 0.0422 0.86744 0.20544 0.0
C6678 C 0.03839 0.86348 0.19779 0.0
C6679 C 0.03698 0.86866 0.19007 0.0
C6680 C 0.03934 0.87782 0.19 0.0
C6681 C 0.07542 0.91185 0.17862 0.0
C6682 C 0.07281 0.91092 0.16957 0.0
C6683 C 0.06938 0.90973 0.18555 0.0
C6684 C 0.06062 0.90664 0.18354 0.0
C6685 C 0.05793 0.9059 0.17453 0.0
C6686 C 0.06393 0.90808 0.16762 0.0
C6687 C 0.05435 0.90382 0.19078 0.0
C6688 C 0.05139 0.8948 0.19091 0.0
C6689 C 0.05145 0.90984 0.19758 0.0
C6690 C 0.05419 0.91949 0.19766 0.0
C6691 C 0.05251 0.92505 0.19019 0.0
C6692 C 0.05516 0.93413 0.1903 0.0
C6693 C 0.05943 0.93776 0.19788 0.0
C6694 C 0.06105 0.93231 0.20537 0.0
C6695 C 0.05842 0.92322 0.20528 0.0
H6696 H 0.06147 0.94479 0.19795 0.0
H6697 H 0.03656 0.85638 0.19783 0.0
H6698 H 0.3525 0.79911 0.46796 0.0
H6699 H 0.35327 0.81536 0.46496 0.0
H6700 H 0.38219 0.81482 0.46854 0.0
H6701 H 0.38148 0.79858 0.47154 0.0
H6702 H 0.37476 0.83017 0.47571 0.0
H6703 H 0.3733 0.81351 0.4478 0.0
H6704 H 0.36669 0.80257 0.4371 0.0
H6705 H 0.34215 0.81798 0.43628 0.0
H6706 H 0.34857 0.82894 0.44708 0.0
H6707 H 0.38879 0.86801 0.44992 0.0
H6708 H 0.38607 0.85333 0.45688 0.0
H6709 H 0.35768 0.85541 0.45062 0.0
H6710 H 0.36041 0.8699 0.44325 0.0
H6711 H 0.36379 0.83961 0.44565 0.0
H6712 H 0.36584 0.85716 0.47257 0.0
H6713 H 0.37257 0.86807 0.48321 0.0
H6714 H 0.39599 0.85121 0.48591 0.0
H6715 H 0.38945 0.84025 0.47519 0.0
C6716 C 0.35902 0.80247 0.46817 0.0
C6717 C 0.36694 0.79755 0.46989 0.0
C6718 C 0.35944 0.81175 0.46647 0.0
C6719 C 0.3678 0.81627 0.46639 0.0
C6720 C 0.37567 0.81147 0.46857 0.0
C6721 C 0.37525 0.80219 0.4703 0.0
C6722 C 0.36845 0.82581 0.4634 0.0
C6723 C 0.37242 0.83224 0.46912 0.0
C6724 C 0.36522 0.82853 0.45487 0.0
C6725 C 0.36138 0.82199 0.44832 0.0
C6726 C 0.36647 0.81453 0.44539 0.0
C6727 C 0.36276 0.80833 0.4393 0.0
C6728 C 0.35399 0.80956 0.43603 0.0
C6729 C 0.34893 0.81702 0.43883 0.0
C6730 C 0.3526 0.82323 0.44493 0.0
C6731 C 0.38196 0.86535 0.45002 0.0
C6732 C 0.37483 0.87012 0.44597 0.0
C6733 C 0.3804 0.857 0.45412 0.0
C6734 C 0.37165 0.85329 0.45436 0.0
C6735 C 0.36448 0.85815 0.45055 0.0
C6736 C 0.36604 0.86648 0.4464 0.0
C6737 C 0.37012 0.84404 0.45795 0.0
C6738 C 0.36602 0.83761 0.4523 0.0
C6739 C 0.37324 0.84135 0.46654 0.0
C6740 C 0.37718 0.84792 0.47302 0.0
C6741 C 0.37246 0.85581 0.47538 0.0
C6742 C 0.37623 0.862 0.48144 0.0
C6743 C 0.38471 0.86035 0.48522 0.0
C6744 C 0.38942 0.85249 0.48297 0.0
C6745 C 0.38568 0.84628 0.47691 0.0
H6746 H 0.38762 0.86515 0.48991 0.0
H6747 H 0.35113 0.80476 0.43132 0.0
H6748 H 0.48286 0.13119 0.73179 0.0
H6749 H 0.47187 0.12594 0.72061 0.0
H6750 H 0.49354 0.11512 0.70449 0.0
H6751 H 0.50453 0.12024 0.71565 0.0
H6752 H 0.48195 0.12505 0.69453 0.0
H6753 H 0.47983 0.10125 0.71652 0.0
H6754 H 0.47749 0.09497 0.73169 0.0
H6755 H 0.45074 0.10612 0.7324 0.0
H6756 H 0.45296 0.11257 0.71728 0.0
H6757 H 0.45691 0.09984 0.66293 0.0
H6758 H 0.46724 0.10409 0.67508 0.0
H6759 H 0.44463 0.11308 0.69106 0.0
H6760 H 0.43426 0.10869 0.67897 0.0
H6761 H 0.45635 0.10441 0.70131 0.0
H6762 H 0.45818 0.12817 0.67958 0.0
H6763 H 0.46029 0.13481 0.66453 0.0
H6764 H 0.48731 0.12435 0.6635 0.0
H6765 H 0.48531 0.11754 0.67849 0.0
C6766 C 0.48527 0.12758 0.72592 0.0
C6767 C 0.49458 0.12617 0.7246 0.0
C6768 C 0.47899 0.1246 0.71953 0.0
C6769 C 0.48189 0.12011 0.71173 0.0
C6770 C 0.49116 0.11861 0.71044 0.0
C6771 C 0.49743 0.12158 0.71681 0.0
C6772 C 0.47533 0.11717 0.70476 0.0
C6773 C 0.47642 0.12044 0.69598 0.0
C6774 C 0.46795 0.11138 0.70673 0.0
C6775 C 0.46659 0.10747 0.71581 0.0
C6776 C 0.47347 0.10242 0.71994 0.0
C6777 C 0.47217 0.09882 0.72853 0.0
C6778 C 0.46398 0.10017 0.73302 0.0
C6779 C 0.45708 0.1051 0.72892 0.0
C6780 C 0.45836 0.10872 0.72034 0.0
C6781 C 0.45415 0.10272 0.66904 0.0
C6782 C 0.44479 0.10399 0.66999 0.0
C6783 C 0.46005 0.10516 0.67597 0.0
C6784 C 0.45672 0.10906 0.68392 0.0
C6785 C 0.44735 0.1101 0.68498 0.0
C6786 C 0.44144 0.10757 0.67808 0.0
C6787 C 0.46303 0.11221 0.69105 0.0
C6788 C 0.46188 0.10902 0.69985 0.0
C6789 C 0.47032 0.11813 0.68913 0.0
C6790 C 0.47156 0.12227 0.68013 0.0
C6791 C 0.46455 0.12723 0.67612 0.0
C6792 C 0.46573 0.13104 0.6676 0.0
C6793 C 0.47392 0.12999 0.66305 0.0
C6794 C 0.48096 0.12515 0.66702 0.0
C6795 C 0.47981 0.12132 0.67554 0.0
H6796 H 0.47482 0.13294 0.65646 0.0
H6797 H 0.46299 0.09738 0.73967 0.0
H6798 H 0.13232 0.20933 0.98422 0.0
H6799 H 0.13299 0.19373 0.9788 0.0
H6800 H 0.15691 0.20013 0.96347 0.0
H6801 H 0.15636 0.21571 0.96894 0.0
H6802 H 0.14452 0.19144 0.95338 0.0
H6803 H 0.1583 0.18717 0.98214 0.0
H6804 H 0.15958 0.18823 0.99864 0.0
H6805 H 0.13535 0.17245 1.00161 0.0
H6806 H 0.13385 0.1714 0.98512 0.0
H6807 H 0.15452 0.14684 0.93973 0.0
H6808 H 0.15593 0.16144 0.94738 0.0
H6809 H 0.13127 0.15612 0.96193 0.0
H6810 H 0.12988 0.14143 0.9544 0.0
H6811 H 0.14452 0.16409 0.97264 0.0
H6812 H 0.13037 0.16899 0.944 0.0
H6813 H 0.12895 0.16796 0.92751 0.0
H6814 H 0.15381 0.1827 0.92439 0.0
H6815 H 0.15544 0.1837 0.94087 0.0
C6816 C 0.13783 0.20738 0.97983 0.0
C6817 C 0.14427 0.21378 0.97699 0.0
C6818 C 0.13819 0.19846 0.97673 0.0
C6819 C 0.14502 0.19575 0.97076 0.0
C6820 C 0.15156 0.20208 0.96805 0.0
C6821 C 0.15121 0.21099 0.97115 0.0
C6822 C 0.14508 0.18647 0.96697 0.0
C6823 C 0.14468 0.18547 0.95759 0.0
C6824 C 0.14504 0.17867 0.97247 0.0
C6825 C 0.14592 0.17928 0.98239 0.0
C6826 C 0.1532 0.18399 0.98631 0.0
C6827 C 0.15397 0.18458 0.99566 0.0
C6828 C 0.14754 0.18043 1.00117 0.0
C6829 C 0.14032 0.17567 0.99733 0.0
C6830 C 0.13952 0.17506 0.98799 0.0
C6831 C 0.14948 0.14871 0.94467 0.0
C6832 C 0.14206 0.14301 0.94643 0.0
C6833 C 0.15027 0.15707 0.94899 0.0
C6834 C 0.14365 0.15989 0.95514 0.0
C6835 C 0.13643 0.15407 0.95719 0.0
C6836 C 0.13562 0.14572 0.95283 0.0
C6837 C 0.144 0.1691 0.95907 0.0
C6838 C 0.14443 0.17008 0.96845 0.0
C6839 C 0.14405 0.1769 0.95358 0.0
C6840 C 0.14308 0.17633 0.94367 0.0
C6841 C 0.13557 0.17194 0.9398 0.0
C6842 C 0.13472 0.17138 0.93045 0.0
C6843 C 0.1413 0.17524 0.92491 0.0
C6844 C 0.14873 0.17969 0.92869 0.0
C6845 C 0.14962 0.18027 0.93803 0.0
H6846 H 0.14063 0.17479 0.91767 0.0
H6847 H 0.14815 0.18089 0.0084 0.0
H6848 H 0.2924 0.02609 0.13309 0.0
H6849 H 0.30089 0.03894 0.12695 0.0
H6850 H 0.31865 0.02051 0.11309 0.0
H6851 H 0.31021 0.0077 0.11915 0.0
H6852 H 0.32799 0.03291 0.12248 0.0
H6853 H 0.30289 0.03291 0.10178 0.0
H6854 H 0.28678 0.03339 0.09754 0.0
H6855 H 0.28413 0.05935 0.11024 0.0
H6856 H 0.30021 0.05896 0.11466 0.0
H6857 H 0.35321 0.06211 0.09554 0.0
H6858 H 0.34226 0.0505 0.09989 0.0
H6859 H 0.32585 0.07081 0.11278 0.0
H6860 H 0.33676 0.0825 0.10832 0.0
H6861 H 0.3154 0.05812 0.10448 0.0
H6862 H 0.34023 0.05835 0.12511 0.0
H6863 H 0.35627 0.05807 0.12961 0.0
H6864 H 0.35926 0.03182 0.1176 0.0
H6865 H 0.34327 0.03201 0.1129 0.0
C6866 C 0.29803 0.02479 0.12863 0.0
C6867 C 0.30069 0.01588 0.12667 0.0
C6868 C 0.30287 0.03214 0.12513 0.0
C6869 C 0.3104 0.03068 0.11955 0.0
C6870 C 0.3129 0.02179 0.11742 0.0
C6871 C 0.30809 0.01448 0.12092 0.0
C6872 C 0.31601 0.03834 0.11631 0.0
C6873 C 0.32525 0.03836 0.11844 0.0
C6874 C 0.31238 0.04561 0.11131 0.0
C6875 C 0.30273 0.04586 0.10863 0.0
C6876 C 0.29885 0.03868 0.10373 0.0
C6877 C 0.28973 0.03895 0.10129 0.0
C6878 C 0.28443 0.04638 0.10365 0.0
C6879 C 0.28824 0.05359 0.10843 0.0
C6880 C 0.29736 0.05335 0.1109 0.0
C6881 C 0.34722 0.06411 0.09923 0.0
C6882 C 0.34588 0.07318 0.10169 0.0
C6883 C 0.34097 0.05748 0.10171 0.0
C6884 C 0.33334 0.05977 0.10682 0.0
C6885 C 0.33172 0.06889 0.10887 0.0
C6886 C 0.33794 0.07556 0.10631 0.0
C6887 C 0.3274 0.05256 0.11049 0.0
C6888 C 0.31812 0.05266 0.10851 0.0
C6889 C 0.33096 0.0454 0.1157 0.0
C6890 C 0.34057 0.04523 0.11858 0.0
C6891 C 0.34432 0.05255 0.12337 0.0
C6892 C 0.3534 0.0524 0.12596 0.0
C6893 C 0.35879 0.04494 0.12387 0.0
C6894 C 0.35509 0.0376 0.1192 0.0
C6895 C 0.34601 0.03772 0.11658 0.0
H6896 H 0.36582 0.04485 0.12588 0.0
H6897 H 0.27737 0.04658 0.10174 0.0
H6898 H 0.81495 0.50843 0.89349 0.0
H6899 H 0.82357 0.49572 0.89936 0.0
H6900 H 0.80147 0.47765 0.89321 0.0
H6901 H 0.79276 0.4904 0.88721 0.0
H6902 H 0.80951 0.47396 0.90983 0.0
H6903 H 0.81866 0.47816 0.87933 0.0
H6904 H 0.82384 0.48674 0.86609 0.0
H6905 H 0.84823 0.49411 0.88 0.0
H6906 H 0.84312 0.48568 0.89338 0.0
H6907 H 0.83824 0.43449 0.91186 0.0
H6908 H 0.82721 0.44614 0.90787 0.0
H6909 H 0.84742 0.4668 0.91218 0.0
H6910 H 0.85842 0.45524 0.91626 0.0
H6911 H 0.83943 0.46827 0.89587 0.0
H6912 H 0.82995 0.46431 0.92659 0.0
H6913 H 0.82466 0.45565 0.93973 0.0
H6914 H 0.80087 0.44753 0.92523 0.0
H6915 H 0.80608 0.45604 0.91195 0.0
C6916 C 0.81192 0.50175 0.89334 0.0
C6917 C 0.80322 0.5004 0.88975 0.0
C6918 C 0.81684 0.4945 0.89674 0.0
C6919 C 0.81321 0.48573 0.89659 0.0
C6920 C 0.80439 0.48438 0.89337 0.0
C6921 C 0.79943 0.49166 0.88995 0.0
C6922 C 0.81885 0.47799 0.89946 0.0
C6923 C 0.81599 0.47261 0.9067 0.0
C6924 C 0.82735 0.47631 0.89543 0.0
C6925 C 0.83047 0.48135 0.88738 0.0
C6926 C 0.8251 0.48167 0.87959 0.0
C6927 C 0.82802 0.4865 0.87206 0.0
C6928 C 0.83635 0.49098 0.87221 0.0
C6929 C 0.84177 0.49063 0.87989 0.0
C6930 C 0.83887 0.48583 0.88745 0.0
C6931 C 0.84027 0.44153 0.91214 0.0
C6932 C 0.84923 0.44394 0.91429 0.0
C6933 C 0.83397 0.44818 0.90985 0.0
C6934 C 0.83651 0.45733 0.90971 0.0
C6935 C 0.84534 0.45976 0.91218 0.0
C6936 C 0.85162 0.45315 0.91448 0.0
C6937 C 0.83021 0.46437 0.90639 0.0
C6938 C 0.83294 0.46958 0.899 0.0
C6939 C 0.8216 0.46584 0.91026 0.0
C6940 C 0.81846 0.46073 0.91824 0.0
C6941 C 0.82363 0.46061 0.92617 0.0
C6942 C 0.82064 0.45574 0.93366 0.0
C6943 C 0.81244 0.45102 0.93331 0.0
C6944 C 0.80722 0.45118 0.92549 0.0
C6945 C 0.81019 0.45602 0.91798 0.0
H6946 H 0.81013 0.44726 0.93911 0.0
H6947 H 0.83861 0.49472 0.86637 0.0
H6948 H 0.80318 0.53708 0.1525 0.0
H6949 H 0.81949 0.53949 0.15038 0.0
H6950 H 0.8144 0.56694 0.14208 0.0
H6951 H 0.79821 0.56455 0.14402 0.0
H6952 H 0.82624 0.55831 0.13093 0.0
H6953 H 0.82169 0.56226 0.16314 0.0
H6954 H 0.81703 0.55716 0.17823 0.0
H6955 H 0.8359 0.5352 0.17677 0.0
H6956 H 0.84058 0.54011 0.16162 0.0
H6957 H 0.86492 0.58443 0.13529 0.0
H6958 H 0.85008 0.57751 0.13724 0.0
H6959 H 0.86261 0.55284 0.1463 0.0
H6960 H 0.8776 0.55985 0.14447 0.0
H6961 H 0.84794 0.55683 0.15632 0.0
H6962 H 0.85408 0.55407 0.1251 0.0
H6963 H 0.85889 0.55909 0.11004 0.0
H6964 H 0.83716 0.57824 0.10934 0.0
H6965 H 0.83229 0.57343 0.12446 0.0
C6966 C 0.80556 0.5436 0.15018 0.0
C6967 C 0.79943 0.55065 0.14849 0.0
C6968 C 0.81486 0.54498 0.14902 0.0
C6969 C 0.81815 0.55341 0.14613 0.0
C6970 C 0.81201 0.56039 0.14433 0.0
C6971 C 0.80277 0.55903 0.14552 0.0
C6972 C 0.82795 0.55513 0.14494 0.0
C6973 C 0.83098 0.55801 0.13649 0.0
C6974 C 0.8342 0.5544 0.1521 0.0
C6975 C 0.8314 0.55148 0.16121 0.0
C6976 C 0.82479 0.5563 0.16601 0.0
C6977 C 0.82215 0.55345 0.17458 0.0
C6978 C 0.82614 0.54584 0.17844 0.0
C6979 C 0.8328 0.54108 0.17376 0.0
C6980 C 0.83545 0.54389 0.16519 0.0
C6981 C 0.86453 0.57751 0.13766 0.0
C6982 C 0.87241 0.57263 0.1396 0.0
C6983 C 0.85604 0.57356 0.13876 0.0
C6984 C 0.85524 0.56458 0.14171 0.0
C6985 C 0.86308 0.55975 0.14394 0.0
C6986 C 0.87162 0.56376 0.14291 0.0
C6987 C 0.84614 0.56037 0.14239 0.0
C6988 C 0.84325 0.55697 0.15072 0.0
C6989 C 0.84001 0.56056 0.13509 0.0
C6990 C 0.84285 0.56342 0.12594 0.0
C6991 C 0.85036 0.55939 0.12176 0.0
C6992 C 0.85309 0.56219 0.11321 0.0
C6993 C 0.84834 0.56898 0.10874 0.0
C6994 C 0.84083 0.57297 0.11281 0.0
C6995 C 0.83807 0.5702 0.12136 0.0
H6996 H 0.85047 0.57115 0.10212 0.0
H6997 H 0.8241 0.54365 0.18508 0.0
H6998 H 0.7241 0.51629 0.40349 0.0
H6999 H 0.71322 0.52776 0.40823 0.0
H7000 H 0.71857 0.54293 0.38404 0.0
H7001 H 0.72959 0.53154 0.37936 0.0
H7002 H 0.71706 0.55407 0.39781 0.0
H7003 H 0.69965 0.52929 0.3862 0.0
H7004 H 0.69463 0.51343 0.38487 0.0
H7005 H 0.68607 0.51366 0.41244 0.0
H7006 H 0.69116 0.52949 0.41398 0.0
H7007 H 0.67622 0.57952 0.39596 0.0
H7008 H 0.68854 0.5689 0.39302 0.0
H7009 H 0.68506 0.55748 0.41946 0.0
H7010 H 0.67273 0.56814 0.42245 0.0
H7011 H 0.68576 0.54456 0.40529 0.0
H7012 H 0.70264 0.57007 0.41624 0.0
H7013 H 0.70727 0.58609 0.41683 0.0
H7014 H 0.71632 0.58462 0.38944 0.0
H7015 H 0.71162 0.56861 0.38865 0.0
C7016 C 0.72295 0.52208 0.39919 0.0
C7017 C 0.72764 0.52299 0.39102 0.0
C7018 C 0.71673 0.52862 0.40189 0.0
C7019 C 0.71495 0.53613 0.39642 0.0
C7020 C 0.71982 0.53719 0.38838 0.0
C7021 C 0.72612 0.53068 0.38571 0.0
C7022 C 0.70789 0.54278 0.39897 0.0
C7023 C 0.7102 0.55199 0.39935 0.0
C7024 C 0.69896 0.54007 0.40114 0.0
C7025 C 0.69588 0.53055 0.40023 0.0
C7026 C 0.69677 0.52594 0.392 0.0
C7027 C 0.6939 0.51695 0.39121 0.0
C7028 C 0.69006 0.51253 0.39857 0.0
C7029 C 0.68906 0.51709 0.40675 0.0
C7030 C 0.69193 0.52607 0.40759 0.0
C7031 C 0.6781 0.57476 0.40115 0.0
C7032 C 0.67353 0.57464 0.40943 0.0
C7033 C 0.68516 0.56874 0.39948 0.0
C7034 C 0.68773 0.56244 0.40604 0.0
C7035 C 0.68319 0.56231 0.41433 0.0
C7036 C 0.6762 0.56842 0.41604 0.0
C7037 C 0.69494 0.55581 0.40409 0.0
C7038 C 0.69265 0.54661 0.40381 0.0
C7039 C 0.70384 0.55854 0.4019 0.0
C7040 C 0.7067 0.56816 0.40236 0.0
C7041 C 0.70554 0.57318 0.41032 0.0
C7042 C 0.7082 0.58226 0.41069 0.0
C7043 C 0.71207 0.58638 0.40317 0.0
C7044 C 0.71331 0.58142 0.39526 0.0
C7045 C 0.71067 0.57234 0.39485 0.0
H7046 H 0.71412 0.5934 0.40347 0.0
H7047 H 0.68783 0.50557 0.39794 0.0
H7048 H 0.21835 0.96288 0.13862 0.0
H7049 H 0.20277 0.95745 0.13805 0.0
H7050 H 0.19346 0.98303 0.14844 0.0
H7051 H 0.20915 0.98848 0.1492 0.0
H7052 H 0.18509 0.96825 0.15662 0.0
H7053 H 0.19071 0.97886 0.12685 0.0
H7054 H 0.19916 0.98043 0.11266 0.0
H7055 H 0.19664 0.95188 0.10789 0.0
H7056 H 0.18829 0.95012 0.12213 0.0
H7057 H 0.13921 0.95544 0.14586 0.0
H7058 H 0.15355 0.96373 0.14724 0.0
H7059 H 0.16768 0.94112 0.13552 0.0
H7060 H 0.15345 0.93285 0.13413 0.0
H7061 H 0.17276 0.95656 0.12781 0.0
H7062 H 0.16852 0.94572 0.15816 0.0
H7063 H 0.16033 0.94394 0.17249 0.0
H7064 H 0.16034 0.97275 0.17619 0.0
H7065 H 0.16843 0.9747 0.16181 0.0
C7066 C 0.21301 0.96733 0.14088 0.0
C7067 C 0.21498 0.97611 0.14398 0.0
C7068 C 0.2041 0.96425 0.14047 0.0
C7069 C 0.19696 0.96988 0.14311 0.0
C7070 C 0.19888 0.9786 0.14634 0.0
C7071 C 0.20782 0.98172 0.14671 0.0
C7072 C 0.18751 0.96656 0.14244 0.0
C7073 C 0.18231 0.96585 0.15029 0.0
C7074 C 0.18395 0.96332 0.13421 0.0
C7075 C 0.18893 0.96435 0.1256 0.0
C7076 C 0.19202 0.97291 0.12281 0.0
C7077 C 0.19678 0.97383 0.11475 0.0
C7078 C 0.19845 0.96626 0.10938 0.0
C7079 C 0.19535 0.95774 0.11205 0.0
C7080 C 0.19059 0.95678 0.12012 0.0
C7081 C 0.1454 0.95222 0.14367 0.0
C7082 C 0.1452 0.94352 0.13982 0.0
C7083 C 0.15358 0.95696 0.14445 0.0
C7084 C 0.16169 0.95304 0.14149 0.0
C7085 C 0.1615 0.94431 0.13778 0.0
C7086 C 0.15335 0.9396 0.13697 0.0
C7087 C 0.17041 0.95801 0.14204 0.0
C7088 C 0.17548 0.95906 0.13413 0.0
C7089 C 0.17383 0.96153 0.15022 0.0
C7090 C 0.16898 0.96036 0.15886 0.0
C7091 C 0.16671 0.95168 0.16199 0.0
C7092 C 0.1621 0.95064 0.17013 0.0
C7093 C 0.15979 0.95823 0.17523 0.0
C7094 C 0.16211 0.96688 0.17222 0.0
C7095 C 0.16671 0.96795 0.16408 0.0
H7096 H 0.15622 0.95741 0.18153 0.0
H7097 H 0.20214 0.96699 0.10314 0.0
H7098 H 0.23667 0.98366 0.62117 0.0
H7099 H 0.22579 0.97193 0.61689 0.0
H7100 H 0.20409 0.98807 0.62768 0.0
H7101 H 0.21493 0.99956 0.63241 0.0
H7102 H 0.20173 0.97133 0.63234 0.0
H7103 H 0.2086 0.98651 0.60462 0.0
H7104 H 0.21845 0.9924 0.59259 0.0
H7105 H 0.22781 0.96552 0.58696 0.0
H7106 H 0.2181 0.95948 0.59904 0.0
H7107 H 0.16385 0.95202 0.61082 0.0
H7108 H 0.17609 0.96244 0.61465 0.0
H7109 H 0.19572 0.94223 0.60738 0.0
H7110 H 0.1835 0.93161 0.60376 0.0
H7111 H 0.19981 0.96 0.60097 0.0
H7112 H 0.19184 0.945 0.62852 0.0
H7113 H 0.18133 0.93959 0.64021 0.0
H7114 H 0.17335 0.96691 0.64581 0.0
H7115 H 0.18372 0.97248 0.63405 0.0
C7116 C 0.2296 0.98467 0.62273 0.0
C7117 C 0.22668 0.9926 0.62708 0.0
C7118 C 0.22337 0.978 0.62018 0.0
C7119 C 0.21409 0.97917 0.62183 0.0
C7120 C 0.2112 0.98702 0.62629 0.0
C7121 C 0.21741 0.99364 0.6289 0.0
C7122 C 0.20736 0.97225 0.61901 0.0
C7123 C 0.20127 0.96893 0.62546 0.0
C7124 C 0.20686 0.96894 0.61007 0.0
C7125 C 0.2127 0.97256 0.6028 0.0
C7126 C 0.21281 0.98186 0.60086 0.0
C7127 C 0.21836 0.98523 0.59403 0.0
C7128 C 0.22377 0.97934 0.58903 0.0
C7129 C 0.22363 0.97007 0.59085 0.0
C7130 C 0.2181 0.96667 0.59769 0.0
C7131 C 0.17076 0.94974 0.61008 0.0
C7132 C 0.17268 0.94092 0.60708 0.0
C7133 C 0.17775 0.95574 0.61223 0.0
C7134 C 0.18679 0.95306 0.61139 0.0
C7135 C 0.18877 0.94441 0.60807 0.0
C7136 C 0.18177 0.93837 0.60597 0.0
C7137 C 0.19414 0.95924 0.61427 0.0
C7138 C 0.20034 0.96238 0.60785 0.0
C7139 C 0.19468 0.96247 0.62321 0.0
C7140 C 0.18851 0.95915 0.63035 0.0
C7141 C 0.1878 0.94985 0.6322 0.0
C7142 C 0.18187 0.94675 0.63884 0.0
C7143 C 0.17666 0.9529 0.64373 0.0
C7144 C 0.17739 0.96216 0.64201 0.0
C7145 C 0.18329 0.96529 0.63536 0.0
H7146 H 0.17208 0.95049 0.64887 0.0
H7147 H 0.22806 0.98196 0.58374 0.0
H7148 H 0.80307 0.4773 0.36239 0.0
H7149 H 0.81949 0.47555 0.36416 0.0
H7150 H 0.81512 0.45138 0.37977 0.0
H7151 H 0.79881 0.45314 0.37814 0.0
H7152 H 0.82788 0.46256 0.38732 0.0
H7153 H 0.8207 0.45004 0.35786 0.0
H7154 H 0.81475 0.45083 0.34239 0.0
H7155 H 0.83343 0.47225 0.33629 0.0
H7156 H 0.83941 0.47165 0.35177 0.0
H7157 H 0.86599 0.43518 0.38601 0.0
H7158 H 0.85119 0.44212 0.38442 0.0
H7159 H 0.86276 0.46312 0.36789 0.0
H7160 H 0.87771 0.45613 0.36944 0.0
H7161 H 0.84733 0.4569 0.36074 0.0
H7162 H 0.85618 0.4678 0.38944 0.0
H7163 H 0.86227 0.46701 0.40485 0.0
H7164 H 0.84063 0.44919 0.41251 0.0
H7165 H 0.83449 0.44976 0.39711 0.0
C7166 C 0.80564 0.47166 0.36626 0.0
C7167 C 0.79967 0.46531 0.37006 0.0
C7168 C 0.815 0.47065 0.36722 0.0
C7169 C 0.81851 0.4633 0.37204 0.0
C7170 C 0.81255 0.45709 0.37601 0.0
C7171 C 0.80324 0.45806 0.37501 0.0
C7172 C 0.82839 0.46185 0.37288 0.0
C7173 C 0.83214 0.4613 0.38152 0.0
C7174 C 0.834 0.46054 0.36529 0.0
C7175 C 0.83042 0.46088 0.35599 0.0
C7176 C 0.82348 0.45497 0.35324 0.0
C7177 C 0.82012 0.45537 0.34447 0.0
C7178 C 0.82369 0.46161 0.33837 0.0
C7179 C 0.83066 0.46743 0.34103 0.0
C7180 C 0.83404 0.46706 0.34979 0.0
C7181 C 0.86544 0.44136 0.38215 0.0
C7182 C 0.87306 0.44517 0.37794 0.0
C7183 C 0.85696 0.44532 0.38124 0.0
C7184 C 0.85588 0.45324 0.37618 0.0
C7185 C 0.86344 0.45703 0.37187 0.0
C7186 C 0.87197 0.45303 0.37275 0.0
C7187 C 0.84676 0.45728 0.37521 0.0
C7188 C 0.84314 0.45834 0.36655 0.0
C7189 C 0.84127 0.45911 0.38279 0.0
C7190 C 0.8449 0.45879 0.3921 0.0
C7191 C 0.85275 0.46367 0.39439 0.0
C7192 C 0.85621 0.46326 0.40313 0.0
C7193 C 0.85185 0.45805 0.40965 0.0
C7194 C 0.844 0.45324 0.40745 0.0
C7195 C 0.84052 0.45361 0.39872 0.0
H7196 H 0.85453 0.45774 0.41641 0.0
H7197 H 0.82107 0.46191 0.33158 0.0
H7198 H 0.71906 0.55072 0.88173 0.0
H7199 H 0.70323 0.5553 0.88212 0.0
H7200 H 0.69575 0.53133 0.86727 0.0
H7201 H 0.71169 0.52675 0.86674 0.0
H7202 H 0.68737 0.547 0.86089 0.0
H7203 H 0.69137 0.53181 0.88888 0.0
H7204 H 0.69889 0.52825 0.90323 0.0
H7205 H 0.69481 0.55552 0.91231 0.0
H7206 H 0.68738 0.55928 0.89795 0.0
H7207 H 0.64042 0.55649 0.86982 0.0
H7208 H 0.65505 0.54885 0.8684 0.0
H7209 H 0.6675 0.5696 0.8847 0.0
H7210 H 0.65299 0.57722 0.88613 0.0
H7211 H 0.67257 0.55326 0.89017 0.0
H7212 H 0.67012 0.56889 0.86177 0.0
H7213 H 0.66293 0.57278 0.84734 0.0
H7214 H 0.66423 0.545 0.83902 0.0
H7215 H 0.67133 0.54092 0.85346 0.0
C7216 C 0.71406 0.54645 0.87848 0.0
C7217 C 0.71662 0.53838 0.87419 0.0
C7218 C 0.70501 0.54904 0.87877 0.0
C7219 C 0.69832 0.54361 0.8748 0.0
C7220 C 0.70083 0.53559 0.87041 0.0
C7221 C 0.70991 0.53296 0.87016 0.0
C7222 C 0.68871 0.54639 0.87529 0.0
C7223 C 0.68405 0.5482 0.86728 0.0
C7224 C 0.68446 0.54808 0.88364 0.0
C7225 C 0.68887 0.54584 0.89231 0.0
C7226 C 0.69213 0.53706 0.89391 0.0
C7227 C 0.69637 0.53501 0.90205 0.0
C7228 C 0.69734 0.54166 0.90867 0.0
C7229 C 0.69406 0.55037 0.90717 0.0
C7230 C 0.68982 0.55247 0.89904 0.0
C7231 C 0.6463 0.55944 0.87304 0.0
C7232 C 0.64554 0.56742 0.87815 0.0
C7233 C 0.65465 0.55507 0.87223 0.0
C7234 C 0.66237 0.55866 0.87644 0.0
C7235 C 0.66162 0.56666 0.88146 0.0
C7236 C 0.65331 0.571 0.88229 0.0
C7237 C 0.67128 0.55412 0.87577 0.0
C7238 C 0.67582 0.55195 0.88376 0.0
C7239 C 0.67542 0.55214 0.86741 0.0
C7240 C 0.67115 0.55458 0.85873 0.0
C7241 C 0.6688 0.5636 0.85689 0.0
C7242 C 0.66476 0.56584 0.84871 0.0
C7243 C 0.66309 0.55914 0.84228 0.0
C7244 C 0.6655 0.55018 0.84401 0.0
C7245 C 0.66954 0.5479 0.85219 0.0
H7246 H 0.65996 0.56089 0.83594 0.0
H7247 H 0.70063 0.54005 0.91497 0.0
H7248 H 0.89516 0.70023 0.9698 0.0
H7249 H 0.89444 0.69717 0.95372 0.0
H7250 H 0.90149 0.72492 0.94814 0.0
H7251 H 0.90223 0.72806 0.96435 0.0
H7252 H 0.88804 0.71889 0.9371 0.0
H7253 H 0.91726 0.70886 0.94564 0.0
H7254 H 0.9286 0.70088 0.95479 0.0
H7255 H 0.91609 0.67543 0.94837 0.0
H7256 H 0.90459 0.68326 0.93928 0.0
H7257 H 0.89476 0.70524 0.89075 0.0
H7258 H 0.89757 0.7116 0.90578 0.0
H7259 H 0.8895 0.68629 0.91776 0.0
H7260 H 0.88678 0.67991 0.90285 0.0
H7261 H 0.90547 0.69307 0.92478 0.0
H7262 H 0.87528 0.70369 0.91766 0.0
H7263 H 0.86406 0.71187 0.90853 0.0
H7264 H 0.87898 0.73657 0.9121 0.0
H7265 H 0.89036 0.72851 0.92115 0.0
C7266 C 0.89664 0.70567 0.96517 0.0
C7267 C 0.89888 0.71435 0.96835 0.0
C7268 C 0.89621 0.70392 0.95597 0.0
C7269 C 0.89808 0.71077 0.94973 0.0
C7270 C 0.90007 0.71953 0.95285 0.0
C7271 C 0.90047 0.72131 0.96209 0.0
C7272 C 0.89796 0.70866 0.93998 0.0
C7273 C 0.89199 0.71337 0.93436 0.0
C7274 C 0.90308 0.70142 0.9364 0.0
C7275 C 0.91002 0.69666 0.94182 0.0
C7276 C 0.91689 0.70157 0.94623 0.0
C7277 C 0.92335 0.69707 0.9514 0.0
C7278 C 0.92305 0.68766 0.95217 0.0
C7279 C 0.91631 0.68272 0.94776 0.0
C7280 C 0.90982 0.68719 0.94259 0.0
C7281 C 0.89362 0.70105 0.8966 0.0
C7282 C 0.8905 0.6921 0.89564 0.0
C7283 C 0.89518 0.7047 0.90516 0.0
C7284 C 0.8937 0.69942 0.91287 0.0
C7285 C 0.89067 0.69048 0.9119 0.0
C7286 C 0.88905 0.68686 0.90339 0.0
C7287 C 0.89534 0.70309 0.922 0.0
C7288 C 0.90163 0.69869 0.92749 0.0
C7289 C 0.89057 0.71064 0.92541 0.0
C7290 C 0.88373 0.71548 0.91998 0.0
C7291 C 0.87621 0.71085 0.91642 0.0
C7292 C 0.86981 0.71547 0.91128 0.0
C7293 C 0.87082 0.72473 0.9097 0.0
C7294 C 0.87822 0.7294 0.9133 0.0
C7295 C 0.88464 0.72481 0.91844 0.0
H7296 H 0.86586 0.72829 0.90572 0.0
H7297 H 0.92806 0.68419 0.95618 0.0
H7298 H 0.05325 0.12111 0.74453 0.0
H7299 H 0.06192 0.12708 0.73188 0.0
H7300 H 0.05378 0.15417 0.73889 0.0
H7301 H 0.04506 0.14823 0.7516 0.0
H7302 H 0.0542 0.15141 0.72038 0.0
H7303 H 0.0737 0.14701 0.74573 0.0
H7304 H 0.08045 0.13849 0.75827 0.0
H7305 H 0.09102 0.11898 0.73965 0.0
H7306 H 0.08421 0.12732 0.72701 0.0
H7307 H 0.09133 0.17261 0.69675 0.0
H7308 H 0.07979 0.16794 0.70766 0.0
H7309 H 0.08723 0.14003 0.70368 0.0
H7310 H 0.09873 0.14464 0.69285 0.0
H7311 H 0.08693 0.14421 0.72105 0.0
H7312 H 0.06726 0.14859 0.69564 0.0
H7313 H 0.06045 0.15714 0.68315 0.0
H7314 H 0.05035 0.17685 0.70182 0.0
H7315 H 0.05721 0.16847 0.71441 0.0
C7316 C 0.05326 0.12833 0.74335 0.0
C7317 C 0.04857 0.13421 0.74913 0.0
C7318 C 0.05819 0.13173 0.73611 0.0
C7319 C 0.05861 0.14108 0.73454 0.0
C7320 C 0.05355 0.14694 0.73999 0.0
C7321 C 0.04857 0.14353 0.74724 0.0
C7322 C 0.06485 0.14473 0.72764 0.0
C7323 C 0.06138 0.14994 0.72057 0.0
C7324 C 0.0742 0.14273 0.72785 0.0
C7325 C 0.07837 0.13775 0.73544 0.0
C7326 C 0.07741 0.14087 0.74432 0.0
C7327 C 0.08125 0.13608 0.75144 0.0
C7328 C 0.08614 0.12819 0.74976 0.0
C7329 C 0.08722 0.12509 0.74095 0.0
C7330 C 0.08338 0.12985 0.7338 0.0
C7331 C 0.09039 0.16548 0.69811 0.0
C7332 C 0.096 0.15899 0.69403 0.0
C7333 C 0.0838 0.16282 0.70434 0.0
C7334 C 0.08265 0.15363 0.70649 0.0
C7335 C 0.08804 0.14716 0.70217 0.0
C7336 C 0.09462 0.1498 0.69601 0.0
C7337 C 0.07628 0.15073 0.71364 0.0
C7338 C 0.07976 0.14569 0.72083 0.0
C7339 C 0.06697 0.15292 0.71351 0.0
C7340 C 0.06284 0.15795 0.70596 0.0
C7341 C 0.06366 0.15479 0.69707 0.0
C7342 C 0.05978 0.15959 0.68998 0.0
C7343 C 0.055 0.16754 0.69169 0.0
C7344 C 0.05407 0.17069 0.70051 0.0
C7345 C 0.05795 0.16591 0.70762 0.0
H7346 H 0.05199 0.17126 0.68619 0.0
H7347 H 0.08912 0.12449 0.75528 0.0
H7348 H 0.63188 0.27967 0.46035 0.0
H7349 H 0.63202 0.28493 0.4448 0.0
H7350 H 0.60834 0.30106 0.44996 0.0
H7351 H 0.60795 0.29556 0.46545 0.0
H7352 H 0.60741 0.29312 0.4336 0.0
H7353 H 0.62925 0.31055 0.45031 0.0
H7354 H 0.64247 0.3128 0.46018 0.0
H7355 H 0.65935 0.29914 0.44104 0.0
H7356 H 0.6462 0.2967 0.43111 0.0
H7357 H 0.61164 0.32543 0.39837 0.0
H7358 H 0.61013 0.31725 0.41257 0.0
H7359 H 0.63444 0.30235 0.40662 0.0
H7360 H 0.63602 0.31056 0.39246 0.0
H7361 H 0.63508 0.30893 0.42309 0.0
H7362 H 0.61322 0.2923 0.40589 0.0
H7363 H 0.59993 0.2903 0.39606 0.0
H7364 H 0.58301 0.30264 0.41604 0.0
H7365 H 0.59622 0.30483 0.42594 0.0
C7366 C 0.6266 0.2842 0.45814 0.0
C7367 C 0.61994 0.28725 0.46417 0.0
C7368 C 0.62674 0.28726 0.44927 0.0
C7369 C 0.62027 0.2935 0.44626 0.0
C7370 C 0.61342 0.29629 0.45215 0.0
C7371 C 0.61326 0.29321 0.46102 0.0
C7372 C 0.62088 0.29742 0.43711 0.0
C7373 C 0.61342 0.29665 0.43132 0.0
C7374 C 0.6288 0.30187 0.43407 0.0
C7375 C 0.63672 0.30336 0.44001 0.0
C7376 C 0.63576 0.30797 0.44824 0.0
C7377 C 0.64325 0.30929 0.45384 0.0
C7378 C 0.65174 0.30609 0.45125 0.0
C7379 C 0.65277 0.3016 0.44304 0.0
C7380 C 0.6453 0.30025 0.43742 0.0
C7381 C 0.61657 0.32029 0.40002 0.0
C7382 C 0.62396 0.31865 0.39431 0.0
C7383 C 0.6157 0.31562 0.40813 0.0
C7384 C 0.62213 0.30913 0.41064 0.0
C7385 C 0.6294 0.30734 0.40484 0.0
C7386 C 0.63031 0.31204 0.39676 0.0
C7387 C 0.62161 0.30463 0.41954 0.0
C7388 C 0.62908 0.30533 0.42531 0.0
C7389 C 0.6137 0.30014 0.42255 0.0
C7390 C 0.60573 0.2988 0.41662 0.0
C7391 C 0.60668 0.29465 0.40816 0.0
C7392 C 0.59916 0.29347 0.40258 0.0
C7393 C 0.59064 0.29636 0.40542 0.0
C7394 C 0.58962 0.30041 0.41385 0.0
C7395 C 0.59712 0.30161 0.41945 0.0
H7396 H 0.58482 0.29544 0.40109 0.0
H7397 H 0.65752 0.30712 0.45559 0.0
H7398 H 0.45005 0.87576 0.25815 0.0
H7399 H 0.44151 0.87016 0.24526 0.0
H7400 H 0.46634 0.86575 0.23074 0.0
H7401 H 0.475 0.87121 0.24372 0.0
H7402 H 0.45316 0.87411 0.22041 0.0
H7403 H 0.45559 0.84797 0.23906 0.0
H7404 H 0.45466 0.83932 0.25317 0.0
H7405 H 0.42613 0.84436 0.25462 0.0
H7406 H 0.4269 0.85316 0.24057 0.0
H7407 H 0.42845 0.85162 0.18567 0.0
H7408 H 0.43961 0.8545 0.19749 0.0
H7409 H 0.4181 0.85824 0.21671 0.0
H7410 H 0.40696 0.85499 0.20506 0.0
H7411 H 0.43134 0.8488 0.22399 0.0
H7412 H 0.42912 0.87629 0.20659 0.0
H7413 H 0.42982 0.88542 0.19275 0.0
H7414 H 0.45768 0.87819 0.18918 0.0
H7415 H 0.45711 0.86892 0.20295 0.0
C7416 C 0.45373 0.87349 0.25227 0.0
C7417 C 0.46323 0.87384 0.25202 0.0
C7418 C 0.44882 0.87032 0.24489 0.0
C7419 C 0.4533 0.86742 0.2371 0.0
C7420 C 0.46276 0.86794 0.23671 0.0
C7421 C 0.4677 0.87109 0.24412 0.0
C7422 C 0.44799 0.86391 0.22937 0.0
C7423 C 0.44851 0.86846 0.22112 0.0
C7424 C 0.44183 0.85664 0.23037 0.0
C7425 C 0.44132 0.85128 0.23879 0.0
C7426 C 0.44912 0.84729 0.24241 0.0
C7427 C 0.44862 0.84235 0.2504 0.0
C7428 C 0.44034 0.8413 0.2548 0.0
C7429 C 0.43254 0.84518 0.2512 0.0
C7430 C 0.433 0.85013 0.24322 0.0
C7431 C 0.4261 0.85291 0.19245 0.0
C7432 C 0.4168 0.85315 0.1944 0.0
C7433 C 0.43249 0.85465 0.19918 0.0
C7434 C 0.42969 0.85672 0.20796 0.0
C7435 C 0.42043 0.85669 0.20998 0.0
C7436 C 0.41405 0.85492 0.20328 0.0
C7437 C 0.43633 0.85914 0.21507 0.0
C7438 C 0.43607 0.85437 0.22322 0.0
C7439 C 0.44269 0.86624 0.21399 0.0
C7440 C 0.44304 0.87183 0.20574 0.0
C7441 C 0.43538 0.87659 0.20281 0.0
C7442 C 0.43575 0.8818 0.19499 0.0
C7443 C 0.44378 0.88236 0.19007 0.0
C7444 C 0.45146 0.87773 0.19299 0.0
C7445 C 0.45112 0.8725 0.2008 0.0
H7446 H 0.44406 0.8864 0.18402 0.0
H7447 H 0.43997 0.83748 0.26098 0.0
H7448 H 0.89944 0.3136 0.5473 0.0
H7449 H 0.89897 0.31628 0.56344 0.0
H7450 H 0.89832 0.28752 0.56821 0.0
H7451 H 0.89879 0.28476 0.55192 0.0
H7452 H 0.88633 0.29628 0.57879 0.0
H7453 H 0.91755 0.29921 0.57237 0.0
H7454 H 0.93114 0.30433 0.56424 0.0
H7455 H 0.92495 0.33192 0.57075 0.0
H7456 H 0.91124 0.32698 0.57882 0.0
H7457 H 0.89182 0.30844 0.62574 0.0
H7458 H 0.89504 0.30139 0.61109 0.0
H7459 H 0.89344 0.32752 0.59836 0.0
H7460 H 0.8902 0.33454 0.61289 0.0
H7461 H 0.90845 0.31722 0.59293 0.0
H7462 H 0.87596 0.31387 0.59726 0.0
H7463 H 0.86243 0.30851 0.60538 0.0
H7464 H 0.8716 0.28109 0.60298 0.0
H7465 H 0.88526 0.28632 0.59495 0.0
C7466 C 0.89932 0.30783 0.55177 0.0
C7467 C 0.89928 0.29896 0.54833 0.0
C7468 C 0.89904 0.30937 0.56101 0.0
C7469 C 0.8988 0.3021 0.56705 0.0
C7470 C 0.89857 0.29323 0.56367 0.0
C7471 C 0.89882 0.29167 0.55437 0.0
C7472 C 0.8986 0.30392 0.57686 0.0
C7473 C 0.89128 0.30068 0.58194 0.0
C7474 C 0.90505 0.30969 0.58097 0.0
C7475 C 0.91333 0.31272 0.57617 0.0
C7476 C 0.91905 0.30637 0.57202 0.0
C7477 C 0.92678 0.30924 0.56743 0.0
C7478 C 0.9289 0.31844 0.56697 0.0
C7479 C 0.9233 0.32479 0.57112 0.0
C7480 C 0.91556 0.32196 0.57571 0.0
C7481 C 0.89222 0.31266 0.61981 0.0
C7482 C 0.8907 0.32202 0.62041 0.0
C7483 C 0.89402 0.30863 0.61147 0.0
C7484 C 0.89444 0.31394 0.60366 0.0
C7485 C 0.89314 0.32331 0.60431 0.0
C7486 C 0.89124 0.3273 0.61259 0.0
C7487 C 0.89603 0.30984 0.59472 0.0
C7488 C 0.90362 0.31265 0.58982 0.0
C7489 C 0.88988 0.30362 0.59081 0.0
C7490 C 0.88168 0.30049 0.59562 0.0
C7491 C 0.87513 0.30671 0.59854 0.0
C7492 C 0.86744 0.3037 0.60311 0.0
C7493 C 0.86618 0.29447 0.60472 0.0
C7494 C 0.8726 0.28824 0.60174 0.0
C7495 C 0.88032 0.29122 0.59719 0.0
H7496 H 0.86021 0.29215 0.60825 0.0
H7497 H 0.93489 0.32065 0.56341 0.0
H7498 H 0.48123 0.13695 0.28418 0.0
H7499 H 0.4705 0.14232 0.29548 0.0
H7500 H 0.45357 0.15315 0.27452 0.0
H7501 H 0.46443 0.14812 0.26321 0.0
H7502 H 0.45457 0.16467 0.28827 0.0
H7503 H 0.44855 0.13301 0.28454 0.0
H7504 H 0.45219 0.11676 0.28402 0.0
H7505 H 0.46063 0.1177 0.31162 0.0
H7506 H 0.45715 0.134 0.31227 0.0
H7507 H 0.41276 0.16723 0.31203 0.0
H7508 H 0.42494 0.16354 0.30151 0.0
H7509 H 0.4418 0.15531 0.32367 0.0
H7510 H 0.42962 0.15893 0.33422 0.0
H7511 H 0.4413 0.14275 0.3098 0.0
H7512 H 0.44633 0.17461 0.31347 0.0
H7513 H 0.44209 0.19072 0.31367 0.0
H7514 H 0.4348 0.18922 0.28576 0.0
H7515 H 0.43887 0.17306 0.28543 0.0
C7516 C 0.47529 0.14058 0.28198 0.0
C7517 C 0.47366 0.14205 0.27278 0.0
C7518 C 0.46911 0.14357 0.28844 0.0
C7519 C 0.46116 0.14802 0.28583 0.0
C7520 C 0.45964 0.1497 0.27668 0.0
C7521 C 0.46581 0.14674 0.27022 0.0
C7522 C 0.45434 0.15078 0.29261 0.0
C7523 C 0.4516 0.15986 0.29292 0.0
C7524 C 0.45058 0.14454 0.29879 0.0
C7525 C 0.45269 0.13475 0.29842 0.0
C7526 C 0.45125 0.12977 0.29047 0.0
C7527 C 0.45328 0.12055 0.29016 0.0
C7528 C 0.45667 0.11621 0.29777 0.0
C7529 C 0.45802 0.12107 0.30572 0.0
C7530 C 0.45602 0.1303 0.30607 0.0
C7531 C 0.41907 0.16466 0.31465 0.0
C7532 C 0.42024 0.16337 0.32394 0.0
C7533 C 0.42604 0.1626 0.30865 0.0
C7534 C 0.43429 0.1592 0.31183 0.0
C7535 C 0.4355 0.15796 0.3211 0.0
C7536 C 0.42856 0.16008 0.32711 0.0
C7537 C 0.44153 0.15663 0.30544 0.0
C7538 C 0.44432 0.14757 0.30519 0.0
C7539 C 0.44527 0.16287 0.29927 0.0
C7540 C 0.44283 0.1726 0.29945 0.0
C7541 C 0.44375 0.17769 0.30739 0.0
C7542 C 0.44139 0.18684 0.30753 0.0
C7543 C 0.43816 0.19099 0.29974 0.0
C7544 C 0.4373 0.186 0.29179 0.0
C7545 C 0.43964 0.17685 0.29162 0.0
H7546 H 0.43634 0.19807 0.29985 0.0
H7547 H 0.45823 0.10906 0.29752 0.0
H7548 H 0.60329 0.70833 0.0525 0.0
H7549 H 0.60458 0.70627 0.06872 0.0
H7550 H 0.6298 0.72101 0.06868 0.0
H7551 H 0.62874 0.72277 0.05238 0.0
H7552 H 0.63149 0.70572 0.07759 0.0
H7553 H 0.61036 0.73003 0.07801 0.0
H7554 H 0.59653 0.73828 0.07384 0.0
H7555 H 0.58021 0.7168 0.08458 0.0
H7556 H 0.59395 0.70836 0.0887 0.0
H7557 H 0.6356 0.70304 0.12485 0.0
H7558 H 0.63365 0.70971 0.10993 0.0
H7559 H 0.60861 0.69504 0.10665 0.0
H7560 H 0.61049 0.68839 0.12156 0.0
H7561 H 0.60729 0.7119 0.09984 0.0
H7562 H 0.62829 0.68703 0.09786 0.0
H7563 H 0.64205 0.67857 0.10188 0.0
H7564 H 0.65852 0.70111 0.09385 0.0
H7565 H 0.64484 0.70975 0.08989 0.0
C7566 C 0.6091 0.71115 0.05594 0.0
C7567 C 0.61594 0.71567 0.05112 0.0
C7568 C 0.60978 0.71007 0.06524 0.0
C7569 C 0.61725 0.71356 0.06995 0.0
C7570 C 0.62396 0.71829 0.0652 0.0
C7571 C 0.62331 0.71935 0.05588 0.0
C7572 C 0.61838 0.71166 0.07968 0.0
C7573 C 0.62628 0.70725 0.08248 0.0
C7574 C 0.61148 0.71346 0.08604 0.0
C7575 C 0.6032 0.71853 0.0836 0.0
C7576 C 0.60383 0.72703 0.07942 0.0
C7577 C 0.596 0.73175 0.07708 0.0
C7578 C 0.5875 0.72805 0.07893 0.0
C7579 C 0.5868 0.71965 0.08315 0.0
C7580 C 0.59461 0.7149 0.0855 0.0
C7581 C 0.62966 0.70128 0.12096 0.0
C7582 C 0.62324 0.69513 0.12435 0.0
C7583 C 0.62854 0.7051 0.11245 0.0
C7584 C 0.62105 0.70276 0.10712 0.0
C7585 C 0.61443 0.69694 0.11065 0.0
C7586 C 0.61551 0.69316 0.11918 0.0
C7587 C 0.62036 0.70592 0.09768 0.0
C7588 C 0.61255 0.71051 0.09495 0.0
C7589 C 0.62732 0.70428 0.09136 0.0
C7590 C 0.63555 0.69907 0.09368 0.0
C7591 C 0.63484 0.6902 0.09701 0.0
C7592 C 0.64263 0.68537 0.09927 0.0
C7593 C 0.65115 0.68931 0.09814 0.0
C7594 C 0.65191 0.69808 0.09473 0.0
C7595 C 0.64415 0.70294 0.09248 0.0
H7596 H 0.65717 0.68556 0.09989 0.0
H7597 H 0.58145 0.73171 0.07711 0.0
H7598 H 0.04155 0.88336 0.77621 0.0
H7599 H 0.049 0.87711 0.78952 0.0
H7600 H 0.06715 0.86209 0.77245 0.0
H7601 H 0.05959 0.86808 0.75917 0.0
H7602 H 0.06165 0.85197 0.78639 0.0
H7603 H 0.07354 0.88211 0.78195 0.0
H7604 H 0.07255 0.89866 0.78025 0.0
H7605 H 0.06028 0.90081 0.80632 0.0
H7606 H 0.06109 0.88424 0.80812 0.0
H7607 H 0.10116 0.8454 0.81224 0.0
H7608 H 0.08958 0.84963 0.80131 0.0
H7609 H 0.07386 0.86191 0.82246 0.0
H7610 H 0.0855 0.85776 0.83344 0.0
H7611 H 0.07617 0.87314 0.80796 0.0
H7612 H 0.06634 0.84289 0.81307 0.0
H7613 H 0.06791 0.82638 0.81463 0.0
H7614 H 0.07678 0.8244 0.78722 0.0
H7615 H 0.0754 0.84093 0.78553 0.0
C7616 C 0.04704 0.87863 0.7753 0.0
C7617 C 0.05004 0.87628 0.76663 0.0
C7618 C 0.05134 0.87512 0.78291 0.0
C7619 C 0.0587 0.86922 0.78198 0.0
C7620 C 0.0615 0.86665 0.77333 0.0
C7621 C 0.05723 0.87015 0.76575 0.0
C7622 C 0.06377 0.86595 0.78994 0.0
C7623 C 0.06486 0.85659 0.79109 0.0
C7624 C 0.06776 0.87198 0.7962 0.0
C7625 C 0.06726 0.88193 0.79512 0.0
C7626 C 0.07056 0.8861 0.78728 0.0
C7627 C 0.07004 0.89549 0.78631 0.0
C7628 C 0.06633 0.90078 0.79316 0.0
C7629 C 0.06314 0.8967 0.80101 0.0
C7630 C 0.06362 0.88731 0.80201 0.0
C7631 C 0.0952 0.84894 0.81457 0.0
C7632 C 0.09423 0.85127 0.82368 0.0
C7633 C 0.08856 0.8513 0.80834 0.0
C7634 C 0.08083 0.85604 0.81109 0.0
C7635 C 0.07976 0.85823 0.82021 0.0
C7636 C 0.08638 0.8558 0.82647 0.0
C7637 C 0.0742 0.85917 0.80431 0.0
C7638 C 0.07283 0.8685 0.80337 0.0
C7639 C 0.07 0.85312 0.79822 0.0
C7640 C 0.07082 0.84317 0.79919 0.0
C7641 C 0.06869 0.83895 0.80739 0.0
C7642 C 0.06954 0.82958 0.8083 0.0
C7643 C 0.07246 0.82435 0.80104 0.0
C7644 C 0.07452 0.82847 0.79284 0.0
C7645 C 0.0737 0.83783 0.7919 0.0
H7646 H 0.07311 0.81709 0.80175 0.0
H7647 H 0.06594 0.90805 0.79239 0.0
H7648 H 0.96926 0.88614 0.71255 0.0
H7649 H 0.95378 0.88654 0.70691 0.0
H7650 H 0.94514 0.89997 0.73119 0.0
H7651 H 0.9607 0.89955 0.73692 0.0
H7652 H 0.93324 0.88698 0.72618 0.0
H7653 H 0.94777 0.91197 0.71198 0.0
H7654 H 0.95972 0.91985 0.70347 0.0
H7655 H 0.95469 0.90273 0.68065 0.0
H7656 H 0.94279 0.89465 0.68907 0.0
H7657 H 0.89044 0.8968 0.70539 0.0
H7658 H 0.90503 0.89859 0.71302 0.0
H7659 H 0.91826 0.88484 0.69109 0.0
H7660 H 0.90381 0.88325 0.68335 0.0
H7661 H 0.92734 0.8999 0.696 0.0
H7662 H 0.91379 0.87409 0.71085 0.0
H7663 H 0.90192 0.86619 0.71947 0.0
H7664 H 0.90506 0.88517 0.74114 0.0
H7665 H 0.91688 0.89326 0.73259 0.0
C7666 C 0.96408 0.88924 0.71667 0.0
C7667 C 0.96622 0.89292 0.72513 0.0
C7668 C 0.95524 0.88946 0.71344 0.0
C7669 C 0.94834 0.89344 0.71856 0.0
C7670 C 0.95038 0.8969 0.72712 0.0
C7671 C 0.95925 0.89665 0.73038 0.0
C7672 C 0.93904 0.89397 0.71486 0.0
C7673 C 0.93191 0.88996 0.71966 0.0
C7674 C 0.93732 0.89778 0.70631 0.0
C7675 C 0.94442 0.90267 0.70119 0.0
C7676 C 0.94925 0.90985 0.70517 0.0
C7677 C 0.95601 0.91435 0.70036 0.0
C7678 C 0.95797 0.91178 0.69153 0.0
C7679 C 0.95316 0.90471 0.68749 0.0
C7680 C 0.9464 0.90017 0.69228 0.0
C7681 C 0.89647 0.89421 0.70218 0.0
C7682 C 0.89596 0.88983 0.69379 0.0
C7683 C 0.90479 0.89518 0.70658 0.0
C7684 C 0.91272 0.89178 0.70266 0.0
C7685 C 0.91222 0.8875 0.69425 0.0
C7686 C 0.90394 0.88652 0.68987 0.0
C7687 C 0.9216 0.89269 0.7072 0.0
C7688 C 0.92865 0.89702 0.70257 0.0
C7689 C 0.92322 0.8892 0.71591 0.0
C7690 C 0.91614 0.88434 0.72104 0.0
C7691 C 0.91189 0.87662 0.71742 0.0
C7692 C 0.90518 0.8721 0.7223 0.0
C7693 C 0.90271 0.8752 0.73083 0.0
C7694 C 0.90697 0.8828 0.73452 0.0
C7695 C 0.91367 0.88735 0.72967 0.0
H7696 H 0.89752 0.87169 0.7346 0.0
H7697 H 0.96321 0.91527 0.68781 0.0
H7698 H 0.88079 0.22992 0.48147 0.0
H7699 H 0.87533 0.21879 0.47054 0.0
H7700 H 0.86444 0.24025 0.45425 0.0
H7701 H 0.86958 0.25138 0.46529 0.0
H7702 H 0.85285 0.22644 0.45505 0.0
H7703 H 0.88447 0.2302 0.44891 0.0
H7704 H 0.90075 0.23056 0.45244 0.0
H7705 H 0.89972 0.20261 0.46016 0.0
H7706 H 0.88339 0.20212 0.45679 0.0
H7707 H 0.84977 0.20377 0.41281 0.0
H7708 H 0.85359 0.21394 0.42527 0.0
H7709 H 0.86192 0.19111 0.44121 0.0
H7710 H 0.85818 0.1809 0.42875 0.0
H7711 H 0.8745 0.20503 0.44112 0.0
H7712 H 0.84271 0.20133 0.4462 0.0
H7713 H 0.82656 0.20129 0.44209 0.0
H7714 H 0.82811 0.22955 0.43567 0.0
H7715 H 0.8443 0.22973 0.43962 0.0
C7716 C 0.87713 0.23226 0.47562 0.0
C7717 C 0.87568 0.24155 0.47422 0.0
C7718 C 0.87409 0.2259 0.46934 0.0
C7719 C 0.86958 0.2287 0.46151 0.0
C7720 C 0.86793 0.23794 0.46021 0.0
C7721 C 0.87095 0.2443 0.46649 0.0
C7722 C 0.86671 0.22203 0.4546 0.0
C7723 C 0.8576 0.22181 0.45194 0.0
C7724 C 0.87287 0.21588 0.45066 0.0
C7725 C 0.88269 0.21616 0.4527 0.0
C7726 C 0.8877 0.22416 0.45144 0.0
C7727 C 0.89694 0.22438 0.45339 0.0
C7728 C 0.90126 0.21662 0.45655 0.0
C7729 C 0.89636 0.20862 0.45773 0.0
C7730 C 0.88711 0.20836 0.4558 0.0
C7731 C 0.85239 0.20092 0.41899 0.0
C7732 C 0.85368 0.19155 0.41982 0.0
C7733 C 0.85451 0.20673 0.42611 0.0
C7734 C 0.85799 0.20327 0.43418 0.0
C7735 C 0.85922 0.19391 0.43505 0.0
C7736 C 0.85703 0.18809 0.42796 0.0
C7737 C 0.86066 0.20947 0.44156 0.0
C7738 C 0.86974 0.2096 0.44429 0.0
C7739 C 0.85449 0.21559 0.44549 0.0
C7740 C 0.84474 0.21552 0.44313 0.0
C7741 C 0.83962 0.20752 0.44384 0.0
C7742 C 0.83046 0.20747 0.44156 0.0
C7743 C 0.82631 0.21541 0.4386 0.0
C7744 C 0.83133 0.22341 0.43795 0.0
C7745 C 0.8405 0.22348 0.44022 0.0
H7746 H 0.81922 0.21536 0.43684 0.0
H7747 H 0.90842 0.21681 0.45805 0.0
H7748 H 0.54556 0.1155 0.20093 0.0
H7749 H 0.56178 0.11576 0.1982 0.0
H7750 H 0.56675 0.11743 0.22673 0.0
H7751 H 0.55039 0.11716 0.22954 0.0
H7752 H 0.57744 0.12907 0.21748 0.0
H7753 H 0.57063 0.09777 0.21589 0.0
H7754 H 0.56227 0.08405 0.21135 0.0
H7755 H 0.56882 0.0891 0.18369 0.0
H7756 H 0.57711 0.10293 0.18804 0.0
H7757 H 0.62456 0.12271 0.20594 0.0
H7758 H 0.60976 0.11993 0.21296 0.0
H7759 H 0.59715 0.12033 0.18682 0.0
H7760 H 0.61183 0.1231 0.17981 0.0
H7761 H 0.59137 0.10595 0.19767 0.0
H7762 H 0.59618 0.13848 0.19957 0.0
H7763 H 0.60449 0.15217 0.2043 0.0
H7764 H 0.60188 0.14429 0.23195 0.0
H7765 H 0.59365 0.13048 0.22736 0.0
C7766 C 0.55008 0.11581 0.20664 0.0
C7767 C 0.54668 0.11619 0.21546 0.0
C7768 C 0.55937 0.11596 0.20507 0.0
C7769 C 0.56549 0.11643 0.21227 0.0
C7770 C 0.56214 0.11701 0.22108 0.0
C7771 C 0.55281 0.11687 0.22267 0.0
C7772 C 0.57534 0.11649 0.21042 0.0
C7773 C 0.58054 0.1239 0.21333 0.0
C7774 C 0.57939 0.10977 0.20496 0.0
C7775 C 0.57445 0.10142 0.2023 0.0
C7776 C 0.57024 0.09599 0.20883 0.0
C7777 C 0.56552 0.08819 0.20629 0.0
C7778 C 0.565 0.08571 0.19724 0.0
C7779 C 0.56922 0.09102 0.19071 0.0
C7780 C 0.57395 0.09884 0.19321 0.0
C7781 C 0.61862 0.12213 0.20171 0.0
C7782 C 0.61931 0.12318 0.19235 0.0
C7783 C 0.61019 0.12058 0.20572 0.0
C7784 C 0.60237 0.11996 0.2004 0.0
C7785 C 0.60311 0.12078 0.19104 0.0
C7786 C 0.61148 0.12243 0.18706 0.0
C7787 C 0.59333 0.11866 0.20447 0.0
C7788 C 0.5883 0.111 0.20199 0.0
C7789 C 0.58948 0.1251 0.21037 0.0
C7790 C 0.59441 0.1334 0.21312 0.0
C7791 C 0.59745 0.13963 0.20665 0.0
C7792 C 0.60213 0.14742 0.20931 0.0
C7793 C 0.60374 0.14909 0.21842 0.0
C7794 C 0.60065 0.14298 0.22489 0.0
C7795 C 0.59597 0.13517 0.22227 0.0
H7796 H 0.60736 0.15512 0.22047 0.0
H7797 H 0.56134 0.07967 0.19529 0.0
H7798 H 0.64481 0.7803 0.98786 0.0
H7799 H 0.64988 0.79157 0.9769 0.0
H7800 H 0.64215 0.77374 0.95524 0.0
H7801 H 0.63683 0.76257 0.96608 0.0
H7802 H 0.65939 0.781 0.95314 0.0
H7803 H 0.62918 0.79114 0.96014 0.0
H7804 H 0.61692 0.79611 0.97023 0.0
H7805 H 0.63322 0.81847 0.97916 0.0
H7806 H 0.64563 0.81356 0.96921 0.0
H7807 H 0.6588 0.8088 0.91491 0.0
H7808 H 0.65538 0.79863 0.92732 0.0
H7809 H 0.66076 0.82011 0.94627 0.0
H7810 H 0.66372 0.8305 0.93383 0.0
H7811 H 0.64589 0.81157 0.95083 0.0
H7812 H 0.67572 0.80229 0.94315 0.0
H7813 H 0.68814 0.79743 0.93322 0.0
H7814 H 0.67313 0.77363 0.92591 0.0
H7815 H 0.66056 0.7784 0.93571 0.0
C7816 C 0.64408 0.77882 0.98077 0.0
C7817 C 0.64044 0.7705 0.97787 0.0
C7818 C 0.64702 0.78525 0.97452 0.0
C7819 C 0.64639 0.78347 0.96527 0.0
C7820 C 0.64276 0.7752 0.96235 0.0
C7821 C 0.63976 0.76881 0.96857 0.0
C7822 C 0.64954 0.79018 0.95857 0.0
C7823 C 0.6564 0.78766 0.95257 0.0
C7824 C 0.64582 0.79896 0.95804 0.0
C7825 C 0.63837 0.80192 0.96402 0.0
C7826 C 0.63018 0.79707 0.96432 0.0
C7827 C 0.6232 0.79989 0.97 0.0
C7828 C 0.62431 0.80759 0.97535 0.0
C7829 C 0.63238 0.8125 0.97502 0.0
C7830 C 0.63939 0.8097 0.96936 0.0
C7831 C 0.65921 0.8114 0.92171 0.0
C7832 C 0.66151 0.82049 0.92335 0.0
C7833 C 0.65737 0.80553 0.92882 0.0
C7834 C 0.65793 0.80856 0.93775 0.0
C7835 C 0.66032 0.81761 0.93944 0.0
C7836 C 0.6621 0.82351 0.93231 0.0
C7837 C 0.65568 0.80235 0.94527 0.0
C7838 C 0.64898 0.80495 0.95143 0.0
C7839 C 0.6596 0.79366 0.94599 0.0
C7840 C 0.66717 0.79074 0.94012 0.0
C7841 C 0.67504 0.79605 0.93938 0.0
C7842 C 0.68211 0.79331 0.93378 0.0
C7843 C 0.68142 0.78524 0.92892 0.0
C7844 C 0.67366 0.77988 0.92967 0.0
C7845 C 0.66656 0.78259 0.93526 0.0
H7846 H 0.6869 0.78313 0.92459 0.0
H7847 H 0.61889 0.80976 0.97974 0.0
H7848 H 0.96864 0.12153 0.80614 0.0
H7849 H 0.95322 0.1208 0.81186 0.0
H7850 H 0.94408 0.10993 0.78649 0.0
H7851 H 0.9596 0.11064 0.7807 0.0
H7852 H 0.93281 0.12291 0.79262 0.0
H7853 H 0.94593 0.09615 0.80454 0.0
H7854 H 0.95741 0.08696 0.81228 0.0
H7855 H 0.95325 0.10214 0.83656 0.0
H7856 H 0.94184 0.11151 0.82893 0.0
H7857 H 0.88947 0.11478 0.81304 0.0
H7858 H 0.90382 0.112 0.80523 0.0
H7859 H 0.9184 0.12327 0.82776 0.0
H7860 H 0.90418 0.12588 0.83563 0.0
H7861 H 0.92618 0.10784 0.82167 0.0
H7862 H 0.91453 0.13569 0.80905 0.0
H7863 H 0.9032 0.14502 0.80125 0.0
H7864 H 0.90461 0.12755 0.7782 0.0
H7865 H 0.91587 0.11805 0.78592 0.0
C7866 C 0.96338 0.11888 0.8018 0.0
C7867 C 0.96536 0.11605 0.793 0.0
C7868 C 0.95456 0.11847 0.80508 0.0
C7869 C 0.94752 0.11515 0.79966 0.0
C7870 C 0.94942 0.11247 0.7908 0.0
C7871 C 0.95828 0.1129 0.7875 0.0
C7872 C 0.93819 0.11468 0.80328 0.0
C7873 C 0.93131 0.11945 0.79888 0.0
C7874 C 0.93625 0.11024 0.81149 0.0
C7875 C 0.94307 0.10458 0.81614 0.0
C7876 C 0.94751 0.09757 0.81151 0.0
C7877 C 0.95399 0.09232 0.81589 0.0
C7878 C 0.95606 0.09397 0.82491 0.0
C7879 C 0.95164 0.10087 0.82958 0.0
C7880 C 0.94515 0.10614 0.82523 0.0
C7881 C 0.89575 0.11658 0.81634 0.0
C7882 C 0.8957 0.12062 0.82491 0.0
C7883 C 0.90393 0.11504 0.81186 0.0
C7884 C 0.91217 0.1175 0.81589 0.0
C7885 C 0.91212 0.12133 0.82452 0.0
C7886 C 0.90398 0.1229 0.82898 0.0
C7887 C 0.92089 0.11628 0.81114 0.0
C7888 C 0.92765 0.11116 0.81533 0.0
C7889 C 0.9227 0.12038 0.80274 0.0
C7890 C 0.91595 0.1261 0.7981 0.0
C7891 C 0.91236 0.13379 0.80235 0.0
C7892 C 0.90597 0.13912 0.79794 0.0
C7893 C 0.90316 0.13686 0.78924 0.0
C7894 C 0.90677 0.12928 0.78494 0.0
C7895 C 0.91317 0.12393 0.78933 0.0
H7896 H 0.89821 0.141 0.78584 0.0
H7897 H 0.96109 0.0899 0.82828 0.0
H7898 H 0.62327 0.24323 0.5549 0.0
H7899 H 0.62949 0.23088 0.56383 0.0
H7900 H 0.65592 0.23592 0.55263 0.0
H7901 H 0.64974 0.24837 0.54369 0.0
H7902 H 0.65212 0.21739 0.55469 0.0
H7903 H 0.65141 0.24454 0.57233 0.0
H7904 H 0.64445 0.25819 0.57884 0.0
H7905 H 0.62507 0.24172 0.59279 0.0
H7906 H 0.63183 0.22797 0.58625 0.0
H7907 H 0.67505 0.19448 0.59105 0.0
H7908 H 0.67021 0.20511 0.57936 0.0
H7909 H 0.64294 0.20397 0.58959 0.0
H7910 H 0.64772 0.19342 0.60122 0.0
H7911 H 0.64843 0.22099 0.58766 0.0
H7912 H 0.64887 0.19382 0.56972 0.0
H7913 H 0.65573 0.18018 0.56309 0.0
H7914 H 0.67566 0.19657 0.54982 0.0
H7915 H 0.66898 0.21032 0.55647 0.0
C7916 C 0.6304 0.24168 0.5543 0.0
C7917 C 0.63604 0.24685 0.54869 0.0
C7918 C 0.63393 0.23461 0.55937 0.0
C7919 C 0.64319 0.23259 0.55899 0.0
C7920 C 0.64876 0.23739 0.55302 0.0
C7921 C 0.64522 0.24448 0.54792 0.0
C7922 C 0.64709 0.22592 0.56531 0.0
C7923 C 0.65143 0.21822 0.56191 0.0
C7924 C 0.64611 0.22698 0.57471 0.0
C7925 C 0.64208 0.23523 0.57874 0.0
C7926 C 0.64563 0.24383 0.57674 0.0
C7927 C 0.64172 0.25159 0.58044 0.0
C7928 C 0.63431 0.25082 0.58621 0.0
C7929 C 0.6308 0.2423 0.58831 0.0
C7930 C 0.63467 0.23452 0.58461 0.0
C7931 C 0.66801 0.19641 0.59071 0.0
C7932 C 0.66178 0.19321 0.59711 0.0
C7933 C 0.66525 0.20247 0.58403 0.0
C7934 C 0.65621 0.20534 0.58361 0.0
C7935 C 0.64996 0.20191 0.58983 0.0
C7936 C 0.6527 0.19591 0.59649 0.0
C7937 C 0.65327 0.2123 0.57707 0.0
C7938 C 0.64915 0.22014 0.58045 0.0
C7939 C 0.65447 0.21134 0.56768 0.0
C7940 C 0.65849 0.20309 0.56367 0.0
C7941 C 0.65476 0.19451 0.56545 0.0
C7942 C 0.65861 0.18676 0.56168 0.0
C7943 C 0.66614 0.1875 0.55606 0.0
C7944 C 0.66983 0.19601 0.55418 0.0
C7945 C 0.66602 0.20378 0.55795 0.0
H7946 H 0.66911 0.1815 0.55314 0.0
H7947 H 0.63129 0.25684 0.58907 0.0
H7948 H 0.54937 0.90435 0.29632 0.0
H7949 H 0.56502 0.9041 0.30153 0.0
H7950 H 0.56964 0.87956 0.28652 0.0
H7951 H 0.55388 0.87955 0.28158 0.0
H7952 H 0.57577 0.87797 0.30314 0.0
H7953 H 0.5787 0.90008 0.27983 0.0
H7954 H 0.5749 0.91395 0.27149 0.0
H7955 H 0.58074 0.93 0.29488 0.0
H7956 H 0.58446 0.91621 0.3034 0.0
H7957 H 0.62264 0.87666 0.31201 0.0
H7958 H 0.60834 0.87787 0.30384 0.0
H7959 H 0.60207 0.90232 0.31841 0.0
H7960 H 0.61641 0.90119 0.32653 0.0
H7961 H 0.59716 0.90381 0.30114 0.0
H7962 H 0.59317 0.88186 0.32468 0.0
H7963 H 0.5968 0.86809 0.33326 0.0
H7964 H 0.5927 0.85188 0.30962 0.0
H7965 H 0.58917 0.86557 0.30086 0.0
C7966 C 0.55371 0.8989 0.29412 0.0
C7967 C 0.55035 0.89195 0.28856 0.0
C7968 C 0.56269 0.89882 0.29702 0.0
C7969 C 0.56854 0.89186 0.29435 0.0
C7970 C 0.56526 0.88502 0.28864 0.0
C7971 C 0.55627 0.88507 0.28576 0.0
C7972 C 0.57789 0.8914 0.29795 0.0
C7973 C 0.58051 0.88356 0.30255 0.0
C7974 C 0.58398 0.89879 0.29739 0.0
C7975 C 0.58179 0.9071 0.29227 0.0
C7976 C 0.57911 0.90656 0.28322 0.0
C7977 C 0.57698 0.91441 0.27845 0.0
C7978 C 0.57755 0.92285 0.28266 0.0
C7979 C 0.58029 0.92346 0.29164 0.0
C7980 C 0.58242 0.91563 0.29643 0.0
C7981 C 0.61822 0.8823 0.31345 0.0
C7982 C 0.62061 0.88879 0.31996 0.0
C7983 C 0.61006 0.88299 0.30878 0.0
C7984 C 0.60407 0.8901 0.31062 0.0
C7985 C 0.60659 0.89677 0.31688 0.0
C7986 C 0.61478 0.89613 0.3215 0.0
C7987 C 0.59501 0.89039 0.30632 0.0
C7988 C 0.59245 0.8982 0.30164 0.0
C7989 C 0.58893 0.88299 0.30682 0.0
C7990 C 0.591 0.87475 0.31209 0.0
C7991 C 0.59311 0.87536 0.32129 0.0
C7992 C 0.59514 0.86757 0.32619 0.0
C7993 C 0.595 0.85912 0.32198 0.0
C7994 C 0.59282 0.85843 0.31287 0.0
C7995 C 0.59079 0.8662 0.30793 0.0
H7996 H 0.59658 0.85309 0.32579 0.0
H7997 H 0.5759 0.92892 0.27896 0.0
H7998 H 0.86863 0.76589 0.0471 0.0
H7999 H 0.86328 0.77754 0.05743 0.0
H8000 H 0.87583 0.79812 0.04108 0.0
H8001 H 0.88147 0.78643 0.03083 0.0
H8002 H 0.87952 0.80071 0.05853 0.0
H8003 H 0.85293 0.79535 0.04113 0.0
H8004 H 0.84094 0.78626 0.03392 0.0
H8005 H 0.83224 0.77668 0.05975 0.0
H8006 H 0.84426 0.78562 0.06712 0.0
H8007 H 0.85888 0.83678 0.08262 0.0
H8008 H 0.86261 0.82646 0.07026 0.0
H8009 H 0.85294 0.8039 0.08592 0.0
H8010 H 0.84915 0.81418 0.09827 0.0
H8011 H 0.84744 0.80318 0.06793 0.0
H8012 H 0.8747 0.80764 0.0851 0.0
H8013 H 0.88672 0.81665 0.09235 0.0
H8014 H 0.89411 0.82792 0.0668 0.0
H8015 H 0.88203 0.81907 0.0594 0.0
C8016 C 0.87029 0.77289 0.04571 0.0
C8017 C 0.87551 0.77523 0.03816 0.0
C8018 C 0.86714 0.77956 0.05158 0.0
C8019 C 0.86906 0.78871 0.04998 0.0
C8020 C 0.87423 0.79109 0.04242 0.0
C8021 C 0.87739 0.78442 0.03654 0.0
C8022 C 0.86598 0.79574 0.05642 0.0
C8023 C 0.87248 0.80136 0.06045 0.0
C8024 C 0.85681 0.79646 0.05907 0.0
C8025 C 0.84955 0.7911 0.05467 0.0
C8026 C 0.84851 0.79125 0.04527 0.0
C8027 C 0.84169 0.78614 0.04116 0.0
C8028 C 0.83584 0.78088 0.04637 0.0
C8029 C 0.83678 0.78075 0.05572 0.0
C8030 C 0.84359 0.78585 0.05987 0.0
C8031 C 0.85743 0.82964 0.08337 0.0
C8032 C 0.85376 0.82627 0.09141 0.0
C8033 C 0.85962 0.82375 0.07634 0.0
C8034 C 0.85812 0.81442 0.07722 0.0
C8035 C 0.85416 0.81108 0.08512 0.0
C8036 C 0.85206 0.81695 0.09218 0.0
C8037 C 0.86099 0.80807 0.07005 0.0
C8038 C 0.85446 0.80257 0.06591 0.0
C8039 C 0.87012 0.80746 0.06729 0.0
C8040 C 0.87739 0.81278 0.07171 0.0
C8041 C 0.87883 0.8121 0.08104 0.0
C8042 C 0.88567 0.81717 0.08517 0.0
C8043 C 0.89116 0.82288 0.08004 0.0
C8044 C 0.88984 0.82351 0.07076 0.0
C8045 C 0.883 0.81847 0.0666 0.0
H8046 H 0.89645 0.82679 0.08325 0.0
H8047 H 0.83058 0.77693 0.04318 0.0
H8048 H 0.73424 0.95809 0.90378 0.0
H8049 H 0.72857 0.94249 0.90396 0.0
H8050 H 0.70556 0.95057 0.8881 0.0
H8051 H 0.71115 0.96611 0.88793 0.0
H8052 H 0.70038 0.94027 0.90182 0.0
H8053 H 0.72363 0.93899 0.87895 0.0
H8054 H 0.73913 0.94076 0.87311 0.0
H8055 H 0.7489 0.92198 0.8928 0.0
H8056 H 0.73346 0.92019 0.89884 0.0
H8057 H 0.68269 0.90002 0.88431 0.0
H8058 H 0.6901 0.91464 0.88623 0.0
H8059 H 0.71085 0.90218 0.90233 0.0
H8060 H 0.7036 0.88738 0.90017 0.0
H8061 H 0.71797 0.91415 0.89041 0.0
H8062 H 0.69448 0.91439 0.91237 0.0
H8063 H 0.67896 0.91254 0.91814 0.0
H8064 H 0.66966 0.93329 0.90027 0.0
H8065 H 0.6851 0.93518 0.8943 0.0
C8066 C 0.72801 0.95651 0.90027 0.0
C8067 C 0.72312 0.96333 0.89587 0.0
C8068 C 0.72478 0.9476 0.90038 0.0
C8069 C 0.71665 0.94535 0.89601 0.0
C8070 C 0.71181 0.95215 0.89157 0.0
C8071 C 0.715 0.96103 0.89149 0.0
C8072 C 0.71305 0.93597 0.89611 0.0
C8073 C 0.70421 0.93458 0.89925 0.0
C8074 C 0.71814 0.92848 0.89306 0.0
C8075 C 0.72741 0.92953 0.88941 0.0
C8076 C 0.72909 0.93529 0.88208 0.0
C8077 C 0.73787 0.93629 0.87872 0.0
C8078 C 0.745 0.9315 0.8826 0.0
C8079 C 0.74337 0.92569 0.88982 0.0
C8080 C 0.73461 0.92468 0.8932 0.0
C8081 C 0.68888 0.90035 0.88818 0.0
C8082 C 0.69256 0.89252 0.89208 0.0
C8083 C 0.69306 0.90873 0.88935 0.0
C8084 C 0.70096 0.90952 0.89453 0.0
C8085 C 0.70473 0.90172 0.89835 0.0
C8086 C 0.70055 0.8933 0.89717 0.0
C8087 C 0.70522 0.91851 0.89588 0.0
C8088 C 0.71419 0.91983 0.89306 0.0
C8089 C 0.70025 0.92595 0.89923 0.0
C8090 C 0.69095 0.92488 0.90285 0.0
C8091 C 0.68912 0.91852 0.90963 0.0
C8092 C 0.68034 0.91747 0.91294 0.0
C8093 C 0.67333 0.92278 0.90957 0.0
C8094 C 0.67509 0.92917 0.90288 0.0
C8095 C 0.68387 0.93024 0.89954 0.0
H8096 H 0.66653 0.92196 0.91214 0.0
H8097 H 0.75179 0.93228 0.87999 0.0
H8098 H 0.19956 0.5443 0.12106 0.0
H8099 H 0.19683 0.56054 0.12148 0.0
H8100 H 0.22414 0.56555 0.11256 0.0
H8101 H 0.22693 0.54919 0.11213 0.0
H8102 H 0.21914 0.57719 0.12596 0.0
H8103 H 0.20718 0.5677 0.09782 0.0
H8104 H 0.19836 0.55816 0.08738 0.0
H8105 H 0.17386 0.56536 0.10107 0.0
H8106 H 0.18255 0.57484 0.11169 0.0
H8107 H 0.20571 0.62373 0.11901 0.0
H8108 H 0.2117 0.60852 0.1161 0.0
H8109 H 0.18676 0.59681 0.12567 0.0
H8110 H 0.18074 0.61189 0.12849 0.0
H8111 H 0.19249 0.58928 0.10973 0.0
H8112 H 0.205 0.59723 0.1389 0.0
H8113 H 0.21394 0.60668 0.14932 0.0
H8114 H 0.23765 0.60248 0.13321 0.0
H8115 H 0.22881 0.59311 0.12262 0.0
C8116 C 0.20497 0.54884 0.11912 0.0
C8117 C 0.21342 0.54546 0.11644 0.0
C8118 C 0.20341 0.55813 0.11937 0.0
C8119 C 0.21023 0.56425 0.11688 0.0
C8120 C 0.21877 0.56093 0.11446 0.0
C8121 C 0.22036 0.5516 0.11423 0.0
C8122 C 0.20828 0.57408 0.11679 0.0
C8123 C 0.21343 0.57988 0.12227 0.0
C8124 C 0.2008 0.57758 0.112 0.0
C8125 C 0.19553 0.57194 0.10559 0.0
C8126 C 0.19992 0.5672 0.09865 0.0
C8127 C 0.19494 0.56181 0.09269 0.0
C8128 C 0.18556 0.56115 0.09357 0.0
C8129 C 0.18113 0.56589 0.1004 0.0
C8130 C 0.18608 0.57128 0.10638 0.0
C8131 C 0.20151 0.6179 0.12045 0.0
C8132 C 0.19279 0.61899 0.12403 0.0
C8133 C 0.20495 0.60923 0.11883 0.0
C8134 C 0.19968 0.60155 0.12072 0.0
C8135 C 0.19094 0.60265 0.12418 0.0
C8136 C 0.18754 0.61127 0.12585 0.0
C8137 C 0.20315 0.5923 0.11913 0.0
C8138 C 0.1983 0.58662 0.1133 0.0
C8139 C 0.21092 0.58894 0.12355 0.0
C8140 C 0.21622 0.59457 0.12991 0.0
C8141 C 0.2121 0.5984 0.13753 0.0
C8142 C 0.21716 0.60372 0.14348 0.0
C8143 C 0.22635 0.60521 0.14191 0.0
C8144 C 0.23052 0.60135 0.13441 0.0
C8145 C 0.2255 0.59602 0.12843 0.0
H8146 H 0.23026 0.60933 0.14653 0.0
H8147 H 0.18172 0.55697 0.08895 0.0
H8148 H 0.24233 0.46283 0.89258 0.0
H8149 H 0.2294 0.45394 0.88736 0.0
H8150 H 0.23781 0.4579 0.85988 0.0
H8151 H 0.25077 0.46686 0.86508 0.0
H8152 H 0.21946 0.45883 0.86153 0.0
H8153 H 0.24302 0.4386 0.8705 0.0
H8154 H 0.25454 0.43235 0.88071 0.0
H8155 H 0.23396 0.42608 0.9001 0.0
H8156 H 0.22233 0.43242 0.89005 0.0
H8157 H 0.19459 0.42077 0.84394 0.0
H8158 H 0.20604 0.4321 0.84796 0.0
H8159 H 0.19945 0.42872 0.87601 0.0
H8160 H 0.18806 0.4174 0.87204 0.0
H8161 H 0.21714 0.42759 0.87342 0.0
H8162 H 0.19349 0.44786 0.86422 0.0
H8163 H 0.18211 0.45406 0.85384 0.0
H8164 H 0.2029 0.46003 0.83459 0.0
H8165 H 0.2144 0.45375 0.84481 0.0
C8166 C 0.24141 0.46184 0.88543 0.0
C8167 C 0.24762 0.46545 0.87924 0.0
C8168 C 0.23401 0.45678 0.88245 0.0
C8169 C 0.23273 0.45513 0.87324 0.0
C8170 C 0.23868 0.45908 0.86702 0.0
C8171 C 0.24607 0.4642 0.86999 0.0
C8172 C 0.22549 0.44887 0.87017 0.0
C8173 C 0.219 0.45196 0.86404 0.0
C8174 C 0.22485 0.43994 0.87353 0.0
C8175 C 0.23182 0.43606 0.87955 0.0
C8176 C 0.24096 0.43595 0.87696 0.0
C8177 C 0.24751 0.43238 0.88272 0.0
C8178 C 0.24499 0.42884 0.89105 0.0
C8179 C 0.23591 0.42884 0.89364 0.0
C8180 C 0.22934 0.43241 0.88792 0.0
C8181 C 0.19549 0.42256 0.85094 0.0
C8182 C 0.19048 0.41815 0.85768 0.0
C8183 C 0.20203 0.42903 0.85324 0.0
C8184 C 0.20359 0.43127 0.86229 0.0
C8185 C 0.1984 0.42706 0.86899 0.0
C8186 C 0.19192 0.42058 0.86671 0.0
C8187 C 0.21097 0.43758 0.86489 0.0
C8188 C 0.21756 0.43446 0.87091 0.0
C8189 C 0.2117 0.44645 0.86139 0.0
C8190 C 0.2048 0.45025 0.85525 0.0
C8191 C 0.19563 0.45042 0.85775 0.0
C8192 C 0.18915 0.45397 0.85189 0.0
C8193 C 0.19177 0.45741 0.84355 0.0
C8194 C 0.20088 0.45735 0.84105 0.0
C8195 C 0.20738 0.4538 0.84687 0.0
H8196 H 0.18675 0.46015 0.83903 0.0
H8197 H 0.25007 0.42608 0.8955 0.0
H8198 H 0.27659 0.45947 0.61783 0.0
H8199 H 0.28203 0.44383 0.61737 0.0
H8200 H 0.30885 0.45306 0.62425 0.0
H8201 H 0.30349 0.46863 0.62473 0.0
H8202 H 0.3095 0.44107 0.61089 0.0
H8203 H 0.29479 0.4432 0.63982 0.0
H8204 H 0.28202 0.4461 0.65006 0.0
H8205 H 0.26643 0.42541 0.6369 0.0
H8206 H 0.27908 0.42246 0.62649 0.0
H8207 H 0.33192 0.40344 0.62868 0.0
H8208 H 0.32404 0.41775 0.62656 0.0
H8209 H 0.30023 0.40335 0.61773 0.0
H8210 H 0.3081 0.38891 0.61993 0.0
H8211 H 0.29655 0.41704 0.63028 0.0
H8212 H 0.31226 0.41381 0.60248 0.0
H8213 H 0.32536 0.41087 0.59266 0.0
H8214 H 0.33933 0.43368 0.60402 0.0
H8215 H 0.32637 0.43669 0.61401 0.0
C8216 C 0.28363 0.45814 0.6193 0.0
C8217 C 0.28961 0.46529 0.62128 0.0
C8218 C 0.28673 0.44921 0.61902 0.0
C8219 C 0.29584 0.44727 0.62082 0.0
C8220 C 0.30181 0.4544 0.62278 0.0
C8221 C 0.29873 0.4633 0.62303 0.0
C8222 C 0.29926 0.43784 0.62068 0.0
C8223 C 0.3067 0.43584 0.61517 0.0
C8224 C 0.29544 0.43093 0.62606 0.0
C8225 C 0.28784 0.43269 0.63231 0.0
C8226 C 0.28861 0.43932 0.63906 0.0
C8227 C 0.2814 0.44096 0.6449 0.0
C8228 C 0.27341 0.43596 0.64411 0.0
C8229 C 0.27262 0.42929 0.63749 0.0
C8230 C 0.27981 0.42763 0.63162 0.0
C8231 C 0.32499 0.40331 0.62633 0.0
C8232 C 0.32062 0.39505 0.6245 0.0
C8233 C 0.32052 0.41149 0.62505 0.0
C8234 C 0.31158 0.41161 0.62192 0.0
C8235 C 0.30715 0.40339 0.62013 0.0
C8236 C 0.31166 0.39517 0.62134 0.0
C8237 C 0.30692 0.42037 0.62067 0.0
C8238 C 0.29926 0.42225 0.6259 0.0
C8239 C 0.31056 0.42719 0.61507 0.0
C8240 C 0.31836 0.42544 0.60904 0.0
C8241 C 0.31815 0.41816 0.60293 0.0
C8242 C 0.32555 0.41649 0.59733 0.0
C8243 C 0.33317 0.42208 0.59773 0.0
C8244 C 0.33341 0.42936 0.60372 0.0
C8245 C 0.32604 0.43106 0.60935 0.0
H8246 H 0.33889 0.42077 0.59338 0.0
H8247 H 0.26783 0.43724 0.64864 0.0
H8248 H 0.77032 0.05347 0.89638 0.0
H8249 H 0.78312 0.06233 0.89084 0.0
H8250 H 0.77834 0.05231 0.864 0.0
H8251 H 0.76547 0.04343 0.8695 0.0
H8252 H 0.7966 0.05348 0.86799 0.0
H8253 H 0.77048 0.07249 0.86954 0.0
H8254 H 0.75717 0.0794 0.87672 0.0
H8255 H 0.77422 0.09169 0.89669 0.0
H8256 H 0.78764 0.08472 0.88971 0.0
H8257 H 0.82144 0.08961 0.84666 0.0
H8258 H 0.81007 0.07836 0.85111 0.0
H8259 H 0.81197 0.08752 0.8786 0.0
H8260 H 0.82329 0.09871 0.87423 0.0
H8261 H 0.7948 0.08657 0.87328 0.0
H8262 H 0.82095 0.0673 0.87184 0.0
H8263 H 0.83423 0.06033 0.86463 0.0
H8264 H 0.81716 0.04865 0.84431 0.0
H8265 H 0.80379 0.05566 0.85134 0.0
C8266 C 0.77201 0.05312 0.8893 0.0
C8267 C 0.76682 0.04784 0.88336 0.0
C8268 C 0.77934 0.05817 0.88615 0.0
C8269 C 0.78158 0.05809 0.87699 0.0
C8270 C 0.77671 0.05247 0.8711 0.0
C8271 C 0.76937 0.04739 0.87426 0.0
C8272 C 0.78864 0.06431 0.87352 0.0
C8273 C 0.79617 0.06073 0.86903 0.0
C8274 C 0.7881 0.07375 0.87497 0.0
C8275 C 0.78006 0.07802 0.87914 0.0
C8276 C 0.77139 0.07661 0.8755 0.0
C8277 C 0.76382 0.08054 0.87953 0.0
C8278 C 0.76485 0.08596 0.88717 0.0
C8279 C 0.77344 0.08748 0.89078 0.0
C8280 C 0.78103 0.08354 0.88678 0.0
C8281 C 0.81951 0.08913 0.85367 0.0
C8282 C 0.82319 0.0951 0.86008 0.0
C8283 C 0.81302 0.08271 0.8562 0.0
C8284 C 0.81018 0.0821 0.86519 0.0
C8285 C 0.81402 0.08791 0.87162 0.0
C8286 C 0.82046 0.09432 0.8691 0.0
C8287 C 0.8029 0.07574 0.86792 0.0
C8288 C 0.79526 0.07932 0.87222 0.0
C8289 C 0.80336 0.06632 0.86627 0.0
C8290 C 0.81138 0.06209 0.86206 0.0
C8291 C 0.82004 0.06331 0.86579 0.0
C8292 C 0.82758 0.05934 0.86174 0.0
C8293 C 0.82654 0.05407 0.854 0.0
C8294 C 0.81796 0.05274 0.8503 0.0
C8295 C 0.81039 0.05671 0.85431 0.0
H8296 H 0.83239 0.051 0.85088 0.0
H8297 H 0.75898 0.08901 0.89028 0.0
H8298 H 0.79423 0.04801 0.3812 0.0
H8299 H 0.7966 0.06429 0.3795 0.0
H8300 H 0.80606 0.06596 0.40688 0.0
H8301 H 0.80343 0.04974 0.40873 0.0
H8302 H 0.79569 0.0805 0.40252 0.0
H8303 H 0.82092 0.06432 0.38983 0.0
H8304 H 0.82822 0.05318 0.37987 0.0
H8305 H 0.8175 0.06677 0.35674 0.0
H8306 H 0.81003 0.07793 0.36659 0.0
H8307 H 0.82455 0.11903 0.40144 0.0
H8308 H 0.81738 0.10421 0.40289 0.0
H8309 H 0.80912 0.10529 0.3751 0.0
H8310 H 0.81619 0.12019 0.37363 0.0
H8311 H 0.81753 0.08969 0.3789 0.0
H8312 H 0.79356 0.10691 0.39174 0.0
H8313 H 0.78654 0.11809 0.40186 0.0
H8314 H 0.79506 0.10275 0.4248 0.0
H8315 H 0.80225 0.09154 0.41483 0.0
C8316 C 0.79663 0.05187 0.38692 0.0
C8317 C 0.79872 0.04756 0.39508 0.0
C8318 C 0.79805 0.06116 0.38591 0.0
C8319 C 0.80163 0.06631 0.39302 0.0
C8320 C 0.80332 0.06211 0.4013 0.0
C8321 C 0.8019 0.05283 0.40232 0.0
C8322 C 0.80418 0.07592 0.39168 0.0
C8323 C 0.8005 0.08252 0.3974 0.0
C8324 C 0.81032 0.07857 0.38487 0.0
C8325 C 0.81483 0.07189 0.37895 0.0
C8326 C 0.82006 0.06489 0.38262 0.0
C8327 C 0.82424 0.05858 0.377 0.0
C8328 C 0.8233 0.05925 0.36768 0.0
C8329 C 0.81821 0.06625 0.36396 0.0
C8330 C 0.814 0.07257 0.36956 0.0
C8331 C 0.82103 0.11622 0.39569 0.0
C8332 C 0.82097 0.12079 0.38741 0.0
C8333 C 0.81694 0.10773 0.39653 0.0
C8334 C 0.81267 0.10366 0.38912 0.0
C8335 C 0.8124 0.1083 0.3809 0.0
C8336 C 0.81647 0.1168 0.38006 0.0
C8337 C 0.80909 0.0943 0.38978 0.0
C8338 C 0.81261 0.08773 0.38395 0.0
C8339 C 0.80283 0.0917 0.3965 0.0
C8340 C 0.79851 0.09842 0.40253 0.0
C8341 C 0.794 0.10596 0.39895 0.0
C8342 C 0.78998 0.11229 0.40466 0.0
C8343 C 0.79037 0.11114 0.41397 0.0
C8344 C 0.79477 0.10364 0.41759 0.0
C8345 C 0.79881 0.09728 0.41191 0.0
H8346 H 0.78725 0.11605 0.41838 0.0
H8347 H 0.82655 0.05436 0.36333 0.0
H8348 H 0.25796 0.55944 0.6489 0.0
H8349 H 0.24489 0.56758 0.65469 0.0
H8350 H 0.22712 0.55021 0.63939 0.0
H8351 H 0.24025 0.5422 0.6333 0.0
H8352 H 0.22262 0.56743 0.63723 0.0
H8353 H 0.22835 0.54852 0.66235 0.0
H8354 H 0.23737 0.54114 0.67417 0.0
H8355 H 0.24384 0.56705 0.6856 0.0
H8356 H 0.23497 0.5746 0.67377 0.0
H8357 H 0.18406 0.58782 0.65751 0.0
H8358 H 0.19516 0.57615 0.65374 0.0
H8359 H 0.21641 0.59269 0.66501 0.0
H8360 H 0.20534 0.60437 0.66884 0.0
H8361 H 0.21784 0.57426 0.66955 0.0
H8362 H 0.2134 0.59295 0.64326 0.0
H8363 H 0.2043 0.60021 0.63143 0.0
H8364 H 0.19516 0.57417 0.62231 0.0
H8365 H 0.20412 0.56676 0.63418 0.0
C8366 C 0.25127 0.55735 0.64675 0.0
C8367 C 0.25015 0.55021 0.64059 0.0
C8368 C 0.24379 0.56194 0.65016 0.0
C8369 C 0.23501 0.55945 0.64756 0.0
C8370 C 0.23384 0.55222 0.64152 0.0
C8371 C 0.24134 0.54762 0.63809 0.0
C8372 C 0.22714 0.56477 0.65074 0.0
C8373 C 0.22146 0.56875 0.64431 0.0
C8374 C 0.22571 0.56664 0.65998 0.0
C8375 C 0.23105 0.56213 0.66712 0.0
C8376 C 0.23176 0.55265 0.66734 0.0
C8377 C 0.23683 0.54843 0.67405 0.0
C8378 C 0.24119 0.55362 0.68062 0.0
C8379 C 0.24046 0.56304 0.6805 0.0
C8380 C 0.2354 0.56729 0.6738 0.0
C8381 C 0.19108 0.5889 0.65931 0.0
C8382 C 0.19386 0.59702 0.66343 0.0
C8383 C 0.19741 0.58226 0.65711 0.0
C8384 C 0.20661 0.5836 0.65904 0.0
C8385 C 0.20934 0.59154 0.66346 0.0
C8386 C 0.20304 0.59822 0.66558 0.0
C8387 C 0.21347 0.57697 0.65603 0.0
C8388 C 0.21894 0.57279 0.66249 0.0
C8389 C 0.2147 0.57487 0.64683 0.0
C8390 C 0.20934 0.57931 0.63968 0.0
C8391 C 0.20939 0.58878 0.63879 0.0
C8392 C 0.20427 0.59292 0.63206 0.0
C8393 C 0.19913 0.58765 0.62614 0.0
C8394 C 0.19913 0.57824 0.62691 0.0
C8395 C 0.20423 0.57407 0.63363 0.0
H8396 H 0.19518 0.59087 0.62093 0.0
H8397 H 0.24511 0.55034 0.68581 0.0
H8398 H 0.26395 0.46583 0.14633 0.0
H8399 H 0.27554 0.45551 0.1518 0.0
H8400 H 0.29634 0.47321 0.14153 0.0
H8401 H 0.28474 0.48344 0.13574 0.0
H8402 H 0.29966 0.45606 0.13708 0.0
H8403 H 0.2922 0.47173 0.16414 0.0
H8404 H 0.28222 0.47797 0.17586 0.0
H8405 H 0.27287 0.45123 0.18228 0.0
H8406 H 0.28271 0.44483 0.1705 0.0
H8407 H 0.33493 0.4314 0.15824 0.0
H8408 H 0.32462 0.44382 0.15469 0.0
H8409 H 0.30186 0.42707 0.16202 0.0
H8410 H 0.31214 0.41466 0.16567 0.0
H8411 H 0.30041 0.44471 0.16844 0.0
H8412 H 0.30697 0.42931 0.14063 0.0
H8413 H 0.3169 0.42304 0.12887 0.0
H8414 H 0.32795 0.44946 0.12397 0.0
H8415 H 0.31817 0.45587 0.1358 0.0
C8416 C 0.27099 0.46752 0.1452 0.0
C8417 C 0.27342 0.47545 0.14056 0.0
C8418 C 0.27761 0.46166 0.14842 0.0
C8419 C 0.28681 0.46364 0.14717 0.0
C8420 C 0.28928 0.47157 0.14261 0.0
C8421 C 0.28264 0.47745 0.13936 0.0
C8422 C 0.29381 0.4572 0.1503 0.0
C8423 C 0.29993 0.45371 0.14399 0.0
C8424 C 0.29405 0.454 0.15927 0.0
C8425 C 0.28814 0.45781 0.16638 0.0
C8426 C 0.28797 0.46718 0.168 0.0
C8427 C 0.28234 0.47075 0.17467 0.0
C8428 C 0.2769 0.465 0.1798 0.0
C8429 C 0.27709 0.45567 0.1783 0.0
C8430 C 0.28269 0.45207 0.17163 0.0
C8431 C 0.32774 0.43042 0.15922 0.0
C8432 C 0.32433 0.42205 0.16219 0.0
C8433 C 0.32186 0.43749 0.15714 0.0
C8434 C 0.31248 0.43633 0.15802 0.0
C8435 C 0.30908 0.4281 0.16128 0.0
C8436 C 0.31495 0.421 0.1633 0.0
C8437 C 0.30617 0.44355 0.15521 0.0
C8438 C 0.30018 0.44715 0.16158 0.0
C8439 C 0.30605 0.44688 0.1463 0.0
C8440 C 0.31192 0.44305 0.13917 0.0
C8441 C 0.31157 0.43377 0.1371 0.0
C8442 C 0.31716 0.43019 0.13041 0.0
C8443 C 0.32307 0.43584 0.1257 0.0
C8444 C 0.32338 0.44509 0.12764 0.0
C8445 C 0.31782 0.4487 0.13434 0.0
H8446 H 0.32739 0.43306 0.12052 0.0
H8447 H 0.27255 0.46777 0.18496 0.0
H8448 H 0.64019 0.80279 0.52316 0.0
H8449 H 0.634 0.81052 0.53629 0.0
H8450 H 0.60748 0.80003 0.53007 0.0
H8451 H 0.61361 0.79243 0.51676 0.0
H8452 H 0.60705 0.81797 0.53335 0.0
H8453 H 0.61888 0.79206 0.54809 0.0
H8454 H 0.63024 0.78054 0.55196 0.0
H8455 H 0.64771 0.80118 0.56263 0.0
H8456 H 0.63652 0.81284 0.55871 0.0
H8457 H 0.5904 0.83906 0.57326 0.0
H8458 H 0.59408 0.827 0.56252 0.0
H8459 H 0.62233 0.8341 0.56433 0.0
H8460 H 0.61874 0.84596 0.57518 0.0
H8461 H 0.62004 0.81597 0.56403 0.0
H8462 H 0.60932 0.84183 0.54723 0.0
H8463 H 0.59825 0.85355 0.5431 0.0
H8464 H 0.5789 0.83298 0.53615 0.0
H8465 H 0.58982 0.82114 0.54035 0.0
C8466 C 0.63304 0.8021 0.5246 0.0
C8467 C 0.62738 0.79702 0.5189 0.0
C8468 C 0.62953 0.80645 0.53216 0.0
C8469 C 0.62029 0.80579 0.53421 0.0
C8470 C 0.61463 0.8006 0.52863 0.0
C8471 C 0.61816 0.79621 0.52107 0.0
C8472 C 0.6165 0.81099 0.54187 0.0
C8473 C 0.60974 0.81738 0.5401 0.0
C8474 C 0.62012 0.81033 0.55065 0.0
C8475 C 0.62688 0.80334 0.55305 0.0
C8476 C 0.62518 0.79415 0.5512 0.0
C8477 C 0.63158 0.78759 0.55341 0.0
C8478 C 0.6397 0.79013 0.55752 0.0
C8479 C 0.64142 0.79922 0.55944 0.0
C8480 C 0.63504 0.80581 0.55724 0.0
C8481 C 0.5974 0.83795 0.57146 0.0
C8482 C 0.60427 0.84352 0.57498 0.0
C8483 C 0.59949 0.8311 0.56529 0.0
C8484 C 0.60847 0.82972 0.56255 0.0
C8485 C 0.61536 0.83505 0.56633 0.0
C8486 C 0.61328 0.84188 0.57246 0.0
C8487 C 0.61075 0.82306 0.55544 0.0
C8488 C 0.61723 0.81641 0.55731 0.0
C8489 C 0.6069 0.8235 0.54674 0.0
C8490 C 0.60034 0.83061 0.54421 0.0
C8491 C 0.60268 0.83981 0.54489 0.0
C8492 C 0.59644 0.84647 0.54253 0.0
C8493 C 0.58787 0.84401 0.53939 0.0
C8494 C 0.58553 0.83488 0.53859 0.0
C8495 C 0.59174 0.82819 0.54096 0.0
H8496 H 0.58305 0.84918 0.53756 0.0
H8497 H 0.64465 0.78504 0.55923 0.0
H8498 H 0.4536 0.3743 0.79524 0.0
H8499 H 0.45157 0.37599 0.81141 0.0
H8500 H 0.4765 0.36171 0.81609 0.0
H8501 H 0.47853 0.35988 0.79978 0.0
H8502 H 0.46227 0.35576 0.82703 0.0
H8503 H 0.47654 0.38358 0.81958 0.0
H8504 H 0.47923 0.39752 0.81091 0.0
H8505 H 0.45266 0.40697 0.81761 0.0
H8506 H 0.44974 0.39302 0.8262 0.0
H8507 H 0.45534 0.36766 0.87374 0.0
H8508 H 0.46253 0.3656 0.859 0.0
H8509 H 0.44079 0.38032 0.84649 0.0
H8510 H 0.43359 0.38234 0.86108 0.0
H8511 H 0.45694 0.38603 0.84045 0.0
H8512 H 0.44197 0.35719 0.84567 0.0
H8513 H 0.43902 0.34312 0.85407 0.0
H8514 H 0.46692 0.33563 0.85149 0.0
H8515 H 0.47005 0.34972 0.84317 0.0
C8516 C 0.45864 0.37147 0.7997 0.0
C8517 C 0.4662 0.36691 0.79624 0.0
C8518 C 0.45751 0.37251 0.80894 0.0
C8519 C 0.46393 0.36905 0.81494 0.0
C8520 C 0.47149 0.36446 0.81155 0.0
C8521 C 0.47266 0.36346 0.80226 0.0
C8522 C 0.46251 0.37014 0.82475 0.0
C8523 C 0.46131 0.36238 0.83004 0.0
C8524 C 0.46118 0.37878 0.82862 0.0
C8525 C 0.46291 0.38722 0.8235 0.0
C8526 C 0.47124 0.3886 0.81915 0.0
C8527 C 0.47281 0.39651 0.81426 0.0
C8528 C 0.46612 0.40312 0.8137 0.0
C8529 C 0.45784 0.40185 0.81805 0.0
C8530 C 0.45623 0.39394 0.82294 0.0
C8531 C 0.45208 0.3704 0.86783 0.0
C8532 C 0.44393 0.37522 0.86858 0.0
C8533 C 0.4562 0.36923 0.85943 0.0
C8534 C 0.45219 0.37281 0.85165 0.0
C8535 C 0.44405 0.37758 0.85241 0.0
C8536 C 0.43995 0.37875 0.86076 0.0
C8537 C 0.45635 0.37164 0.84265 0.0
C8538 C 0.45808 0.37941 0.83751 0.0
C8539 C 0.45816 0.36302 0.83892 0.0
C8540 C 0.45627 0.35455 0.8439 0.0
C8541 C 0.44749 0.35257 0.84696 0.0
C8542 C 0.44578 0.34459 0.85169 0.0
C8543 C 0.45278 0.3385 0.85334 0.0
C8544 C 0.46151 0.34037 0.85023 0.0
C8545 C 0.46325 0.34835 0.84551 0.0
H8546 H 0.45145 0.33232 0.857 0.0
H8547 H 0.46735 0.40924 0.80991 0.0
H8548 H 0.89527 0.21515 0.01562 0.0
H8549 H 0.90085 0.20431 0.02664 0.0
H8550 H 0.89261 0.22203 0.04817 0.0
H8551 H 0.88691 0.23291 0.03716 0.0
H8552 H 0.90943 0.21437 0.05118 0.0
H8553 H 0.87962 0.20446 0.04293 0.0
H8554 H 0.86744 0.20015 0.03243 0.0
H8555 H 0.88367 0.17838 0.02229 0.0
H8556 H 0.89601 0.18265 0.03264 0.0
H8557 H 0.90992 0.18098 0.08594 0.0
H8558 H 0.90628 0.19309 0.07537 0.0
H8559 H 0.91236 0.17535 0.05313 0.0
H8560 H 0.91598 0.16321 0.06366 0.0
H8561 H 0.89657 0.18333 0.0507 0.0
H8562 H 0.92639 0.19307 0.05893 0.0
H8563 H 0.93868 0.19737 0.0693 0.0
H8564 H 0.92268 0.21933 0.07941 0.0
H8565 H 0.91024 0.21507 0.06918 0.0
C8566 C 0.8946 0.21673 0.0227 0.0
C8567 C 0.89053 0.22484 0.02551 0.0
C8568 C 0.89783 0.21054 0.02898 0.0
C8569 C 0.89703 0.21231 0.03822 0.0
C8570 C 0.89328 0.22054 0.04107 0.0
C8571 C 0.89004 0.22675 0.03477 0.0
C8572 C 0.89984 0.20541 0.04486 0.0
C8573 C 0.90655 0.20761 0.05117 0.0
C8574 C 0.8962 0.19655 0.0447 0.0
C8575 C 0.88877 0.19393 0.0385 0.0
C8576 C 0.88062 0.1988 0.03841 0.0
C8577 C 0.87368 0.19636 0.03249 0.0
C8578 C 0.87479 0.18901 0.02668 0.0
C8579 C 0.88283 0.18408 0.02679 0.0
C8580 C 0.88979 0.1865 0.03269 0.0
C8581 C 0.91064 0.17971 0.0788 0.0
C8582 C 0.91321 0.17113 0.07563 0.0
C8583 C 0.90855 0.18664 0.07277 0.0
C8584 C 0.90908 0.18514 0.06345 0.0
C8585 C 0.91186 0.17664 0.06029 0.0
C8586 C 0.91391 0.16972 0.0663 0.0
C8587 C 0.90626 0.19223 0.057 0.0
C8588 C 0.89949 0.19007 0.05073 0.0
C8589 C 0.90987 0.20111 0.0572 0.0
C8590 C 0.91735 0.20369 0.06335 0.0
C8591 C 0.92546 0.19877 0.06342 0.0
C8592 C 0.93246 0.20121 0.06926 0.0
C8593 C 0.93145 0.20861 0.07503 0.0
C8594 C 0.92345 0.21359 0.07494 0.0
C8595 C 0.91642 0.21117 0.06912 0.0
H8596 H 0.93688 0.21049 0.07954 0.0
H8597 H 0.86941 0.18713 0.0221 0.0
H8598 H 0.03882 0.65538 0.30048 0.0
H8599 H 0.04113 0.65334 0.31671 0.0
H8600 H 0.06665 0.64033 0.31144 0.0
H8601 H 0.06433 0.64221 0.29532 0.0
H8602 H 0.05671 0.63129 0.32403 0.0
H8603 H 0.06583 0.66228 0.31775 0.0
H8604 H 0.06329 0.67783 0.31237 0.0
H8605 H 0.04176 0.6811 0.33144 0.0
H8606 H 0.0441 0.66551 0.33686 0.0
H8607 H 0.08419 0.63422 0.36187 0.0
H8608 H 0.07721 0.63596 0.34716 0.0
H8609 H 0.05433 0.64919 0.35936 0.0
H8610 H 0.06133 0.64744 0.37423 0.0
H8611 H 0.0598 0.65786 0.34423 0.0
H8612 H 0.05215 0.62769 0.35207 0.0
H8613 H 0.05471 0.61219 0.35758 0.0
H8614 H 0.07303 0.60723 0.33575 0.0
H8615 H 0.07069 0.62274 0.33018 0.0
C8616 C 0.04488 0.65202 0.3028 0.0
C8617 C 0.05144 0.64902 0.29664 0.0
C8618 C 0.04621 0.65091 0.31206 0.0
C8619 C 0.0541 0.64675 0.31527 0.0
C8620 C 0.06053 0.64357 0.30911 0.0
C8621 C 0.05923 0.64472 0.2999 0.0
C8622 C 0.05585 0.64578 0.32503 0.0
C8623 C 0.05741 0.63709 0.32845 0.0
C8624 C 0.05645 0.65334 0.33086 0.0
C8625 C 0.05507 0.6627 0.32762 0.0
C8626 C 0.06051 0.66629 0.32074 0.0
C8627 C 0.05911 0.67511 0.31769 0.0
C8628 C 0.05235 0.68044 0.32154 0.0
C8629 C 0.04698 0.67696 0.32846 0.0
C8630 C 0.04834 0.66813 0.33152 0.0
C8631 C 0.07763 0.63741 0.36146 0.0
C8632 C 0.07326 0.64058 0.36924 0.0
C8633 C 0.07364 0.63841 0.35303 0.0
C8634 C 0.06517 0.64254 0.35218 0.0
C8635 C 0.06086 0.64593 0.35988 0.0
C8636 C 0.06487 0.64494 0.36836 0.0
C8637 C 0.06097 0.64338 0.34316 0.0
C8638 C 0.05893 0.65203 0.33988 0.0
C8639 C 0.05988 0.63578 0.33745 0.0
C8640 C 0.06128 0.62641 0.34074 0.0
C8641 C 0.05677 0.62331 0.34848 0.0
C8642 C 0.05818 0.61452 0.3516 0.0
C8643 C 0.06404 0.60873 0.34702 0.0
C8644 C 0.06849 0.61172 0.33929 0.0
C8645 C 0.06712 0.62051 0.33614 0.0
H8646 H 0.06512 0.60193 0.34945 0.0
H8647 H 0.05128 0.68727 0.31918 0.0
H8648 H 0.61688 0.22248 0.99931 0.0
H8649 H 0.61085 0.21453 0.98614 0.0
H8650 H 0.63651 0.20127 0.98241 0.0
H8651 H 0.64264 0.20936 0.99539 0.0
H8652 H 0.62931 0.20654 0.96649 0.0
H8653 H 0.61921 0.19073 0.9932 0.0
H8654 H 0.61149 0.18949 0.00784 0.0
H8655 H 0.58649 0.1976 0.99566 0.0
H8656 H 0.5941 0.19901 0.98096 0.0
H8657 H 0.62029 0.16614 0.94343 0.0
H8658 H 0.62429 0.17794 0.95418 0.0
H8659 H 0.59667 0.18721 0.95436 0.0
H8660 H 0.59254 0.17516 0.94376 0.0
H8661 H 0.60326 0.18585 0.97113 0.0
H8662 H 0.613 0.1996 0.94393 0.0
H8663 H 0.62075 0.20058 0.92929 0.0
H8664 H 0.64633 0.19633 0.94221 0.0
H8665 H 0.63873 0.19519 0.95692 0.0
C8666 C 0.62128 0.21799 0.99559 0.0
C8667 C 0.63022 0.21649 0.99843 0.0
C8668 C 0.6178 0.2134 0.98811 0.0
C8669 C 0.6232 0.20722 0.98337 0.0
C8670 C 0.63222 0.20599 0.98599 0.0
C8671 C 0.63569 0.21056 0.99345 0.0
C8672 C 0.6194 0.2017 0.97593 0.0
C8673 C 0.62364 0.20198 0.9675 0.0
C8674 C 0.61182 0.19596 0.97719 0.0
C8675 C 0.60725 0.19509 0.98601 0.0
C8676 C 0.61208 0.19232 0.99366 0.0
C8677 C 0.60773 0.19157 1.00196 0.0
C8678 C 0.59851 0.19349 1.00268 0.0
C8679 C 0.59363 0.19614 0.99509 0.0
C8680 C 0.59796 0.19691 0.98677 0.0
C8681 C 0.61504 0.17065 0.94578 0.0
C8682 C 0.60608 0.16967 0.94278 0.0
C8683 C 0.61737 0.17748 0.95184 0.0
C8684 C 0.61081 0.18354 0.95498 0.0
C8685 C 0.60185 0.18263 0.95198 0.0
C8686 C 0.59951 0.17578 0.94588 0.0
C8687 C 0.6133 0.19052 0.96173 0.0
C8688 C 0.60882 0.19052 0.97004 0.0
C8689 C 0.62066 0.19652 0.96036 0.0
C8690 C 0.62528 0.19725 0.95153 0.0
C8691 C 0.62027 0.19881 0.94364 0.0
C8692 C 0.62464 0.19941 0.93533 0.0
C8693 C 0.63403 0.19851 0.93482 0.0
C8694 C 0.63906 0.19703 0.94262 0.0
C8695 C 0.63473 0.19642 0.95095 0.0
H8696 H 0.6374 0.19897 0.92838 0.0
H8697 H 0.59515 0.19291 0.00912 0.0
H8698 H 0.06447 0.36485 0.22018 0.0
H8699 H 0.06702 0.36678 0.20411 0.0
H8700 H 0.03858 0.36276 0.19905 0.0
H8701 H 0.03597 0.36065 0.21524 0.0
H8702 H 0.05003 0.3534 0.18685 0.0
H8703 H 0.04603 0.38335 0.19818 0.0
H8704 H 0.04849 0.39613 0.20858 0.0
H8705 H 0.07664 0.39679 0.20155 0.0
H8706 H 0.07438 0.38393 0.1912 0.0
H8707 H 0.05839 0.36871 0.14139 0.0
H8708 H 0.05182 0.36641 0.15639 0.0
H8709 H 0.07758 0.37292 0.16845 0.0
H8710 H 0.08406 0.37536 0.15359 0.0
H8711 H 0.06464 0.38182 0.1766 0.0
H8712 H 0.06909 0.35083 0.16682 0.0
H8713 H 0.06695 0.33777 0.1567 0.0
H8714 H 0.03825 0.33892 0.16089 0.0
H8715 H 0.04023 0.35207 0.17096 0.0
C8716 C 0.05876 0.36425 0.21566 0.0
C8717 C 0.05002 0.36257 0.21898 0.0
C8718 C 0.06022 0.36543 0.20648 0.0
C8719 C 0.05297 0.365 0.20041 0.0
C8720 C 0.04425 0.36314 0.20364 0.0
C8721 C 0.04277 0.362 0.21288 0.0
C8722 C 0.05463 0.36668 0.19074 0.0
C8723 C 0.05306 0.35968 0.18454 0.0
C8724 C 0.05866 0.37483 0.18779 0.0
C8725 C 0.06004 0.38263 0.19395 0.0
C8726 C 0.05276 0.38618 0.19889 0.0
C8727 C 0.05412 0.39344 0.20477 0.0
C8728 C 0.06272 0.39726 0.20573 0.0
C8729 C 0.06998 0.39383 0.2008 0.0
C8730 C 0.06866 0.38656 0.19491 0.0
C8731 C 0.06264 0.36957 0.14726 0.0
C8732 C 0.07171 0.37228 0.14634 0.0
C8733 C 0.05889 0.36825 0.15582 0.0
C8734 C 0.06422 0.36949 0.16356 0.0
C8735 C 0.07332 0.37201 0.1626 0.0
C8736 C 0.07702 0.37341 0.1541 0.0
C8737 C 0.06039 0.36842 0.17272 0.0
C8738 C 0.0615 0.37558 0.17884 0.0
C8739 C 0.05598 0.3604 0.17558 0.0
C8740 C 0.0548 0.3525 0.16955 0.0
C8741 C 0.06232 0.34834 0.16553 0.0
C8742 C 0.06114 0.34091 0.15981 0.0
C8743 C 0.05247 0.33753 0.15813 0.0
C8744 C 0.04497 0.34155 0.16219 0.0
C8745 C 0.04611 0.34899 0.1679 0.0
H8746 H 0.05157 0.33178 0.15371 0.0
H8747 H 0.06376 0.40288 0.21029 0.0
H8748 H 0.87468 0.80743 0.49493 0.0
H8749 H 0.88075 0.81562 0.48204 0.0
H8750 H 0.90648 0.80245 0.48556 0.0
H8751 H 0.90051 0.79439 0.49867 0.0
H8752 H 0.90855 0.82036 0.48352 0.0
H8753 H 0.8929 0.7969 0.46788 0.0
H8754 H 0.88007 0.78692 0.46408 0.0
H8755 H 0.86435 0.80997 0.45628 0.0
H8756 H 0.87704 0.8201 0.46016 0.0
H8757 H 0.9251 0.84155 0.44362 0.0
H8758 H 0.92067 0.82976 0.45432 0.0
H8759 H 0.89338 0.83994 0.45435 0.0
H8760 H 0.89767 0.8515 0.44347 0.0
H8761 H 0.89344 0.82183 0.45379 0.0
H8762 H 0.90827 0.84523 0.47119 0.0
H8763 H 0.92091 0.85538 0.47522 0.0
H8764 H 0.93799 0.83243 0.47982 0.0
H8765 H 0.92547 0.82214 0.47569 0.0
C8766 C 0.88163 0.80626 0.49296 0.0
C8767 C 0.88712 0.80028 0.49785 0.0
C8768 C 0.88507 0.81088 0.48553 0.0
C8769 C 0.89405 0.80958 0.48278 0.0
C8770 C 0.89952 0.80351 0.48755 0.0
C8771 C 0.89608 0.79887 0.49499 0.0
C8772 C 0.89783 0.81499 0.47526 0.0
C8773 C 0.90536 0.82053 0.47695 0.0
C8774 C 0.89357 0.81534 0.46674 0.0
C8775 C 0.88592 0.80927 0.46437 0.0
C8776 C 0.88669 0.79985 0.46542 0.0
C8777 C 0.87944 0.79416 0.46324 0.0
C8778 C 0.87139 0.79781 0.45995 0.0
C8779 C 0.87058 0.80715 0.45883 0.0
C8780 C 0.87781 0.81287 0.461 0.0
C8781 C 0.91814 0.84121 0.44583 0.0
C8782 C 0.91176 0.84752 0.44276 0.0
C8783 C 0.91563 0.83451 0.45199 0.0
C8784 C 0.90671 0.83404 0.45521 0.0
C8785 C 0.9003 0.84019 0.45198 0.0
C8786 C 0.90279 0.84686 0.44583 0.0
C8787 C 0.90403 0.82731 0.46212 0.0
C8788 C 0.8967 0.82153 0.46031 0.0
C8789 C 0.90846 0.82675 0.47053 0.0
C8790 C 0.91598 0.83293 0.47303 0.0
C8791 C 0.91475 0.84235 0.47299 0.0
C8792 C 0.92188 0.84813 0.4753 0.0
C8793 C 0.93026 0.84455 0.47775 0.0
C8794 C 0.93151 0.83519 0.47791 0.0
C8795 C 0.92439 0.82938 0.47558 0.0
H8796 H 0.93577 0.84903 0.47954 0.0
H8797 H 0.86579 0.7934 0.45827 0.0
H8798 H 0.48852 0.64563 0.7105 0.0
H8799 H 0.48268 0.64513 0.69507 0.0
H8800 H 0.45701 0.63542 0.70494 0.0
H8801 H 0.46284 0.63569 0.72028 0.0
H8802 H 0.4626 0.62586 0.69053 0.0
H8803 H 0.45993 0.6574 0.69881 0.0
H8804 H 0.46568 0.6722 0.70397 0.0
H8805 H 0.48383 0.67328 0.68147 0.0
H8806 H 0.47827 0.65842 0.67624 0.0
H8807 H 0.43184 0.63341 0.6557 0.0
H8808 H 0.44019 0.63417 0.66982 0.0
H8809 H 0.46367 0.6441 0.65571 0.0
H8810 H 0.4553 0.64337 0.64148 0.0
H8811 H 0.46103 0.65321 0.67134 0.0
H8812 H 0.46284 0.62231 0.66233 0.0
H8813 H 0.45708 0.60755 0.65707 0.0
H8814 H 0.44081 0.60514 0.68085 0.0
H8815 H 0.44637 0.61994 0.6862 0.0
C8816 C 0.48165 0.64334 0.70936 0.0
C8817 C 0.47612 0.64075 0.71661 0.0
C8818 C 0.47831 0.64312 0.70056 0.0
C8819 C 0.46939 0.64031 0.69887 0.0
C8820 C 0.46391 0.63763 0.70609 0.0
C8821 C 0.46723 0.63787 0.71486 0.0
C8822 C 0.46569 0.64006 0.68961 0.0
C8823 C 0.46219 0.63185 0.68636 0.0
C8824 C 0.46543 0.64782 0.68406 0.0
C8825 C 0.46876 0.65676 0.68719 0.0
C8826 C 0.4652 0.66076 0.695 0.0
C8827 C 0.46842 0.66917 0.69794 0.0
C8828 C 0.47514 0.67367 0.69307 0.0
C8829 C 0.47864 0.66978 0.68525 0.0
C8830 C 0.47546 0.66137 0.68229 0.0
C8831 C 0.4388 0.6357 0.65559 0.0
C8832 C 0.44294 0.63823 0.64746 0.0
C8833 C 0.44356 0.63614 0.66366 0.0
C8834 C 0.45261 0.63903 0.6638 0.0
C8835 C 0.45671 0.64182 0.65575 0.0
C8836 C 0.45192 0.64141 0.64764 0.0
C8837 C 0.45773 0.63905 0.67237 0.0
C8838 C 0.46152 0.64719 0.67547 0.0
C8839 C 0.45829 0.63122 0.6778 0.0
C8840 C 0.45497 0.62227 0.67463 0.0
C8841 C 0.45798 0.61866 0.66641 0.0
C8842 C 0.45476 0.61028 0.66342 0.0
C8843 C 0.44857 0.60542 0.66861 0.0
C8844 C 0.4456 0.60891 0.67683 0.0
C8845 C 0.44879 0.61729 0.67985 0.0
H8846 H 0.44608 0.59893 0.66628 0.0
H8847 H 0.47761 0.68017 0.69535 0.0
H8848 H 0.52448 0.63943 0.80505 0.0
H8849 H 0.53741 0.63323 0.81313 0.0
H8850 H 0.53078 0.60653 0.80336 0.0
H8851 H 0.51767 0.61267 0.79541 0.0
H8852 H 0.53374 0.60654 0.82125 0.0
H8853 H 0.54926 0.61748 0.79539 0.0
H8854 H 0.55358 0.62852 0.78375 0.0
H8855 H 0.56436 0.64624 0.80402 0.0
H8856 H 0.55999 0.63536 0.8158 0.0
H8857 H 0.57319 0.58909 0.84254 0.0
H8858 H 0.56249 0.59298 0.83058 0.0
H8859 H 0.56536 0.62125 0.83725 0.0
H8860 H 0.5762 0.61745 0.849 0.0
H8861 H 0.56494 0.61878 0.81929 0.0
H8862 H 0.54761 0.60891 0.84506 0.0
H8863 H 0.54304 0.59817 0.85689 0.0
H8864 H 0.53549 0.57868 0.83679 0.0
H8865 H 0.54014 0.58927 0.82483 0.0
C8866 C 0.52579 0.63224 0.8046 0.0
C8867 C 0.52004 0.62653 0.79961 0.0
C8868 C 0.53323 0.62871 0.80915 0.0
C8869 C 0.53511 0.61942 0.80879 0.0
C8870 C 0.52948 0.61372 0.8037 0.0
C8871 C 0.52203 0.61725 0.79911 0.0
C8872 C 0.54264 0.61564 0.81418 0.0
C8873 C 0.54061 0.60907 0.82068 0.0
C8874 C 0.55156 0.61907 0.81356 0.0
C8875 C 0.55423 0.62562 0.80649 0.0
C8876 C 0.55249 0.62376 0.79738 0.0
C8877 C 0.55496 0.62998 0.79075 0.0
C8878 C 0.55923 0.63808 0.79314 0.0
C8879 C 0.56105 0.63996 0.80217 0.0
C8880 C 0.55859 0.63376 0.80883 0.0
C8881 C 0.57163 0.59614 0.84136 0.0
C8882 C 0.57546 0.60296 0.84678 0.0
C8883 C 0.56548 0.59835 0.83457 0.0
C8884 C 0.56304 0.6074 0.8331 0.0
C8885 C 0.56711 0.61422 0.83828 0.0
C8886 C 0.57324 0.61203 0.84506 0.0
C8887 C 0.55599 0.60982 0.82644 0.0
C8888 C 0.5581 0.61614 0.81973 0.0
C8889 C 0.54713 0.60619 0.82688 0.0
C8890 C 0.54433 0.59983 0.83406 0.0
C8891 C 0.54505 0.6023 0.84317 0.0
C8892 C 0.54243 0.59625 0.84989 0.0
C8893 C 0.53901 0.58774 0.84759 0.0
C8894 C 0.53817 0.58527 0.83856 0.0
C8895 C 0.54079 0.59129 0.8318 0.0
H8896 H 0.53698 0.58306 0.85281 0.0
H8897 H 0.56113 0.64289 0.788 0.0
H8898 H 0.65647 0.30282 0.03622 0.0
H8899 H 0.65712 0.31858 0.04139 0.0
H8900 H 0.6291 0.31705 0.04928 0.0
H8901 H 0.62841 0.30134 0.04411 0.0
H8902 H 0.6337 0.33327 0.04036 0.0
H8903 H 0.64461 0.31436 0.06468 0.0
H8904 H 0.65471 0.30298 0.07138 0.0
H8905 H 0.67776 0.3196 0.06529 0.0
H8906 H 0.6678 0.33103 0.05844 0.0
H8907 H 0.62682 0.36744 0.07234 0.0
H8908 H 0.62816 0.35354 0.06368 0.0
H8909 H 0.65706 0.35726 0.0622 0.0
H8910 H 0.65583 0.37094 0.07137 0.0
H8911 H 0.65358 0.3406 0.06625 0.0
H8912 H 0.64288 0.36038 0.04353 0.0
H8913 H 0.63308 0.37187 0.03658 0.0
H8914 H 0.61024 0.35404 0.03893 0.0
H8915 H 0.61986 0.34249 0.04601 0.0
C8916 C 0.65043 0.3059 0.03895 0.0
C8917 C 0.6424 0.30086 0.03982 0.0
C8918 C 0.65082 0.31487 0.04193 0.0
C8919 C 0.64317 0.31894 0.04576 0.0
C8920 C 0.63507 0.31402 0.04634 0.0
C8921 C 0.6347 0.30504 0.04345 0.0
C8922 C 0.64366 0.32819 0.04958 0.0
C8923 C 0.63801 0.33489 0.04604 0.0
C8924 C 0.6495 0.33034 0.05681 0.0
C8925 C 0.65548 0.3235 0.06096 0.0
C8926 C 0.65184 0.31555 0.0647 0.0
C8927 C 0.65754 0.3091 0.06854 0.0
C8928 C 0.66688 0.31055 0.06873 0.0
C8929 C 0.67053 0.31848 0.06512 0.0
C8930 C 0.66486 0.32494 0.06126 0.0
C8931 C 0.63348 0.36529 0.07024 0.0
C8932 C 0.64122 0.3703 0.07263 0.0
C8933 C 0.63422 0.3574 0.06515 0.0
C8934 C 0.6427 0.3544 0.06215 0.0
C8935 C 0.65044 0.35946 0.06439 0.0
C8936 C 0.64971 0.36733 0.06957 0.0
C8937 C 0.64348 0.34573 0.05715 0.0
C8938 C 0.64937 0.33909 0.06046 0.0
C8939 C 0.63792 0.34367 0.04965 0.0
C8940 C 0.63209 0.35059 0.04536 0.0
C8941 C 0.63575 0.35893 0.04263 0.0
C8942 C 0.63023 0.36545 0.03865 0.0
C8943 C 0.62104 0.36369 0.03733 0.0
C8944 C 0.61736 0.3554 0.03996 0.0
C8945 C 0.62285 0.34886 0.04394 0.0
H8946 H 0.61678 0.36875 0.03425 0.0
H8947 H 0.67128 0.30555 0.07171 0.0
H8948 H 0.99849 0.40075 0.29231 0.0
H8949 H 0.98714 0.40621 0.30295 0.0
H8950 H 0.97242 0.3811 0.30021 0.0
H8951 H 0.98367 0.37569 0.28941 0.0
H8952 H 0.96101 0.39469 0.30075 0.0
H8953 H 0.98646 0.38545 0.31841 0.0
H8954 H 1.00245 0.38511 0.32308 0.0
H8955 H 1.00157 0.41352 0.32905 0.0
H8956 H 0.9856 0.41406 0.32428 0.0
H8957 H 0.93634 0.39549 0.34183 0.0
H8958 H 0.94672 0.39197 0.32951 0.0
H8959 H 0.95782 0.41894 0.33105 0.0
H8960 H 0.94744 0.4225 0.34343 0.0
H8961 H 0.97093 0.40529 0.33085 0.0
H8962 H 0.94474 0.41389 0.31394 0.0
H8963 H 0.92862 0.41351 0.30975 0.0
H8964 H 0.93078 0.38537 0.30295 0.0
H8965 H 0.9469 0.38554 0.30723 0.0
C8966 C 0.99282 0.3964 0.29398 0.0
C8967 C 0.99199 0.38777 0.29008 0.0
C8968 C 0.98635 0.39952 0.30006 0.0
C8969 C 0.979 0.39401 0.3025 0.0
C8970 C 0.97803 0.38548 0.29843 0.0
C8971 C 0.98446 0.38239 0.29227 0.0
C8972 C 0.97244 0.39704 0.30943 0.0
C8973 C 0.96318 0.39692 0.30736 0.0
C8974 C 0.97527 0.40012 0.31802 0.0
C8975 C 0.98486 0.39981 0.3209 0.0
C8976 C 0.9897 0.39164 0.32065 0.0
C8977 C 0.99875 0.39141 0.32332 0.0
C8978 C 1.00303 0.39929 0.32633 0.0
C8979 C 0.99825 0.40742 0.3267 0.0
C8980 C 0.9892 0.40769 0.32402 0.0
C8981 C 0.94098 0.40068 0.33952 0.0
C8982 C 0.9411 0.40927 0.34359 0.0
C8983 C 0.94686 0.39868 0.33245 0.0
C8984 C 0.95299 0.40521 0.32935 0.0
C8985 C 0.9531 0.41382 0.33335 0.0
C8986 C 0.94715 0.41586 0.34036 0.0
C8987 C 0.95953 0.4029 0.32216 0.0
C8988 C 0.96878 0.40313 0.32421 0.0
C8989 C 0.95669 0.39982 0.31361 0.0
C8990 C 0.94701 0.39971 0.31098 0.0
C8991 C 0.94176 0.4076 0.31162 0.0
C8992 C 0.93263 0.40742 0.30922 0.0
C8993 C 0.92867 0.39941 0.3061 0.0
C8994 C 0.93385 0.39156 0.30537 0.0
C8995 C 0.94299 0.3917 0.30778 0.0
H8996 H 0.9216 0.39929 0.30424 0.0
H8997 H 0.01004 0.3991 0.32841 0.0
H8998 H 0.88393 0.71158 0.53199 0.0
H8999 H 0.88328 0.69591 0.53714 0.0
H9000 H 0.85895 0.70175 0.55202 0.0
H9001 H 0.85952 0.71742 0.54684 0.0
H9002 H 0.87096 0.69297 0.56221 0.0
H9003 H 0.85819 0.68906 0.53292 0.0
H9004 H 0.85741 0.69045 0.51643 0.0
H9005 H 0.88191 0.67516 0.51383 0.0
H9006 H 0.8829 0.67379 0.53033 0.0
H9007 H 0.86198 0.64776 0.57472 0.0
H9008 H 0.86019 0.66244 0.56737 0.0
H9009 H 0.8851 0.65827 0.5529 0.0
H9010 H 0.88683 0.6435 0.56008 0.0
H9011 H 0.87201 0.66604 0.54229 0.0
H9012 H 0.88523 0.67077 0.57148 0.0
H9013 H 0.88615 0.66945 0.58798 0.0
H9014 H 0.86085 0.68333 0.59066 0.0
H9015 H 0.85971 0.68462 0.57416 0.0
C9016 C 0.87836 0.7095 0.53623 0.0
C9017 C 0.87179 0.71576 0.53902 0.0
C9018 C 0.878 0.70053 0.53918 0.0
C9019 C 0.87103 0.69764 0.54492 0.0
C9020 C 0.8644 0.70384 0.54761 0.0
C9021 C 0.86475 0.7128 0.54467 0.0
C9022 C 0.87093 0.68828 0.54849 0.0
C9023 C 0.87103 0.68708 0.55785 0.0
C9024 C 0.87124 0.6806 0.5428 0.0
C9025 C 0.87066 0.68139 0.53287 0.0
C9026 C 0.86345 0.68606 0.52884 0.0
C9027 C 0.86296 0.68683 0.51949 0.0
C9028 C 0.86962 0.68291 0.51409 0.0
C9029 C 0.87676 0.6782 0.51803 0.0
C9030 C 0.87728 0.67742 0.52738 0.0
C9031 C 0.86699 0.64989 0.56984 0.0
C9032 C 0.87458 0.6445 0.56802 0.0
C9033 C 0.86599 0.6583 0.5657 0.0
C9034 C 0.87258 0.66149 0.55968 0.0
C9035 C 0.87996 0.65595 0.55755 0.0
C9036 C 0.88097 0.64755 0.56171 0.0
C9037 C 0.87203 0.67077 0.55598 0.0
C9038 C 0.87186 0.67194 0.54663 0.0
C9039 C 0.87166 0.67845 0.56166 0.0
C9040 C 0.87234 0.6777 0.57158 0.0
C9041 C 0.87983 0.67347 0.57559 0.0
C9042 C 0.88039 0.67274 0.58494 0.0
C9043 C 0.87355 0.67628 0.59036 0.0
C9044 C 0.86613 0.68058 0.58645 0.0
C9045 C 0.86553 0.68132 0.5771 0.0
H9046 H 0.874 0.6757 0.5976 0.0
H9047 H 0.86923 0.68352 0.50685 0.0
H9048 H 0.5177 0.40275 0.7221 0.0
H9049 H 0.52914 0.40775 0.71132 0.0
H9050 H 0.54412 0.38316 0.71574 0.0
H9051 H 0.53276 0.37821 0.72666 0.0
H9052 H 0.55537 0.39695 0.71455 0.0
H9053 H 0.53031 0.386 0.69717 0.0
H9054 H 0.5144 0.38499 0.69232 0.0
H9055 H 0.51496 0.41295 0.68461 0.0
H9056 H 0.53085 0.41416 0.68953 0.0
H9057 H 0.5805 0.39544 0.67373 0.0
H9058 H 0.56993 0.39251 0.68606 0.0
H9059 H 0.55885 0.41927 0.68301 0.0
H9060 H 0.56946 0.42225 0.67066 0.0
H9061 H 0.54574 0.4053 0.68371 0.0
H9062 H 0.57155 0.41558 0.7004 0.0
H9063 H 0.58761 0.41585 0.70483 0.0
H9064 H 0.58575 0.38817 0.71333 0.0
H9065 H 0.56971 0.38769 0.70882 0.0
C9066 C 0.52344 0.39842 0.72077 0.0
C9067 C 0.52431 0.39007 0.72517 0.0
C9068 C 0.52997 0.40128 0.7146 0.0
C9069 C 0.53742 0.39576 0.7126 0.0
C9070 C 0.53843 0.38753 0.71718 0.0
C9071 C 0.53194 0.38471 0.72342 0.0
C9072 C 0.54404 0.39847 0.70558 0.0
C9073 C 0.55327 0.39869 0.70778 0.0
C9074 C 0.54129 0.4009 0.69679 0.0
C9075 C 0.53174 0.40019 0.69381 0.0
C9076 C 0.52702 0.39195 0.69451 0.0
C9077 C 0.51801 0.39134 0.69174 0.0
C9078 C 0.51366 0.39891 0.68819 0.0
C9079 C 0.51833 0.4071 0.68738 0.0
C9080 C 0.52734 0.40775 0.69015 0.0
C9081 C 0.57583 0.4007 0.67571 0.0
C9082 C 0.57578 0.40907 0.67124 0.0
C9083 C 0.56984 0.39904 0.68277 0.0
C9084 C 0.56365 0.40569 0.68546 0.0
C9085 C 0.5636 0.41406 0.68104 0.0
C9086 C 0.56968 0.41577 0.67404 0.0
C9087 C 0.55704 0.40373 0.69268 0.0
C9088 C 0.54782 0.40363 0.6905 0.0
C9089 C 0.5598 0.4013 0.70145 0.0
C9090 C 0.56945 0.40158 0.7042 0.0
C9091 C 0.57459 0.40953 0.70314 0.0
C9092 C 0.58368 0.40972 0.70568 0.0
C9093 C 0.58771 0.40203 0.70934 0.0
C9094 C 0.58263 0.39413 0.71049 0.0
C9095 C 0.57353 0.39389 0.70795 0.0
H9096 H 0.59475 0.40219 0.7113 0.0
H9097 H 0.50669 0.39842 0.68604 0.0
H9098 H 0.86218 0.30047 0.98001 0.0
H9099 H 0.86402 0.31679 0.97746 0.0
H9100 H 0.87629 0.3113 0.95172 0.0
H9101 H 0.87462 0.2951 0.95428 0.0
H9102 H 0.88558 0.32413 0.96119 0.0
H9103 H 0.8543 0.31741 0.95328 0.0
H9104 H 0.83886 0.31195 0.9565 0.0
H9105 H 0.83632 0.33156 0.97768 0.0
H9106 H 0.8518 0.33705 0.97465 0.0
H9107 H 0.88179 0.361 0.93278 0.0
H9108 H 0.88003 0.34647 0.94027 0.0
H9109 H 0.86787 0.35973 0.9631 0.0
H9110 H 0.86963 0.37441 0.95558 0.0
H9111 H 0.85887 0.34417 0.95851 0.0
H9112 H 0.88923 0.35253 0.9648 0.0
H9113 H 0.9046 0.35811 0.96152 0.0
H9114 H 0.90905 0.3356 0.94381 0.0
H9115 H 0.89365 0.32995 0.94687 0.0
C9116 C 0.86533 0.30277 0.97385 0.0
C9117 C 0.86819 0.29652 0.9673 0.0
C9118 C 0.86633 0.31208 0.97238 0.0
C9119 C 0.87023 0.31525 0.96437 0.0
C9120 C 0.87325 0.309 0.95794 0.0
C9121 C 0.87222 0.29975 0.95938 0.0
C9122 C 0.87112 0.32505 0.96248 0.0
C9123 C 0.87974 0.32852 0.96059 0.0
C9124 C 0.86353 0.33084 0.96203 0.0
C9125 C 0.85423 0.32756 0.96382 0.0
C9126 C 0.85047 0.3205 0.95867 0.0
C9127 C 0.84171 0.31741 0.96045 0.0
C9128 C 0.83662 0.32138 0.96731 0.0
C9129 C 0.84028 0.32847 0.97238 0.0
C9130 C 0.84904 0.33158 0.97064 0.0
C9131 C 0.87881 0.36085 0.93943 0.0
C9132 C 0.87597 0.36887 0.94364 0.0
C9133 C 0.8778 0.35254 0.9437 0.0
C9134 C 0.87399 0.35204 0.95233 0.0
C9135 C 0.87088 0.35998 0.95647 0.0
C9136 C 0.87187 0.36835 0.95216 0.0
C9137 C 0.8733 0.34315 0.95687 0.0
C9138 C 0.86474 0.33986 0.9593 0.0
C9139 C 0.88095 0.33751 0.95785 0.0
C9140 C 0.89026 0.34084 0.95604 0.0
C9141 C 0.89346 0.34879 0.96016 0.0
C9142 C 0.90218 0.35197 0.95835 0.0
C9143 C 0.90779 0.34722 0.95245 0.0
C9144 C 0.9047 0.33927 0.94837 0.0
C9145 C 0.89598 0.33607 0.95016 0.0
H9146 H 0.91454 0.34969 0.95106 0.0
H9147 H 0.82984 0.31899 0.96867 0.0
H9148 H 0.98518 0.62133 0.2337 0.0
H9149 H 0.97387 0.61622 0.22281 0.0
H9150 H 0.98904 0.62877 0.20142 0.0
H9151 H 1.00007 0.63432 0.21228 0.0
H9152 H 0.97202 0.63194 0.19905 0.0
H9153 H 0.98954 0.60545 0.20562 0.0
H9154 H 0.9964 0.59381 0.21528 0.0
H9155 H 0.97006 0.58565 0.22437 0.0
H9156 H 0.96305 0.59733 0.21484 0.0
H9157 H 0.9558 0.60874 0.16089 0.0
H9158 H 0.96558 0.61317 0.17337 0.0
H9159 H 0.94507 0.60496 0.19226 0.0
H9160 H 0.93504 0.6008 0.1798 0.0
H9161 H 0.96358 0.59951 0.19664 0.0
H9162 H 0.9463 0.62588 0.18885 0.0
H9163 H 0.94006 0.63717 0.1784 0.0
H9164 H 0.96692 0.64521 0.17084 0.0
H9165 H 0.97332 0.63386 0.18114 0.0
C9166 C 0.98605 0.6231 0.22669 0.0
C9167 C 0.99359 0.62818 0.22387 0.0
C9168 C 0.97963 0.62008 0.22046 0.0
C9169 C 0.98067 0.62198 0.21127 0.0
C9170 C 0.9881 0.62718 0.20846 0.0
C9171 C 0.99447 0.63027 0.21468 0.0
C9172 C 0.97406 0.6186 0.20451 0.0
C9173 C 0.97025 0.62483 0.1985 0.0
C9174 C 0.97158 0.60936 0.20387 0.0
C9175 C 0.97578 0.60233 0.2096 0.0
C9176 C 0.98521 0.60122 0.20974 0.0
C9177 C 0.98913 0.59461 0.21518 0.0
C9178 C 0.98367 0.58901 0.22046 0.0
C9179 C 0.97428 0.59 0.22029 0.0
C9180 C 0.97033 0.59661 0.21487 0.0
C9181 C 0.95332 0.60791 0.16769 0.0
C9182 C 0.94457 0.60452 0.16932 0.0
C9183 C 0.95895 0.61039 0.17481 0.0
C9184 C 0.956 0.60947 0.18371 0.0
C9185 C 0.94745 0.60571 0.18542 0.0
C9186 C 0.94176 0.6033 0.17829 0.0
C9187 C 0.96172 0.61283 0.19117 0.0
C9188 C 0.96533 0.60661 0.19729 0.0
C9189 C 0.96412 0.62207 0.19185 0.0
C9190 C 0.96029 0.62896 0.18571 0.0
C9191 C 0.95088 0.63 0.1849 0.0
C9192 C 0.94731 0.63643 0.17901 0.0
C9193 C 0.95309 0.64189 0.17394 0.0
C9194 C 0.96245 0.64097 0.17476 0.0
C9195 C 0.96605 0.63455 0.18064 0.0
H9196 H 0.95031 0.64686 0.16938 0.0
H9197 H 0.98672 0.58389 0.22466 0.0
H9198 H 0.63497 0.71664 0.46398 0.0
H9199 H 0.63474 0.70094 0.4589 0.0
H9200 H 0.65107 0.69325 0.48163 0.0
H9201 H 0.65145 0.70906 0.48671 0.0
H9202 H 0.65692 0.68553 0.46556 0.0
H9203 H 0.62942 0.68815 0.48205 0.0
H9204 H 0.61497 0.69505 0.48657 0.0
H9205 H 0.60466 0.69149 0.45981 0.0
H9206 H 0.61911 0.68468 0.45509 0.0
H9207 H 0.64882 0.63864 0.45487 0.0
H9208 H 0.65 0.65304 0.46301 0.0
H9209 H 0.6328 0.66564 0.44329 0.0
H9210 H 0.63166 0.65139 0.43512 0.0
H9211 H 0.62765 0.66998 0.46007 0.0
H9212 H 0.65559 0.66894 0.44324 0.0
H9213 H 0.67011 0.66231 0.4385 0.0
H9214 H 0.67957 0.66301 0.46579 0.0
H9215 H 0.66505 0.66954 0.47071 0.0
C9216 C 0.63857 0.71163 0.46787 0.0
C9217 C 0.64324 0.71409 0.47574 0.0
C9218 C 0.63838 0.70265 0.465 0.0
C9219 C 0.64281 0.69592 0.46994 0.0
C9220 C 0.64758 0.69834 0.47775 0.0
C9221 C 0.64773 0.70735 0.48066 0.0
C9222 C 0.64245 0.68639 0.46685 0.0
C9223 C 0.65054 0.68205 0.46452 0.0
C9224 C 0.63411 0.68192 0.46539 0.0
C9225 C 0.62538 0.68596 0.4682 0.0
C9226 C 0.6241 0.6889 0.47711 0.0
C9227 C 0.6159 0.69278 0.47971 0.0
C9228 C 0.60891 0.69372 0.47348 0.0
C9229 C 0.61009 0.69076 0.46463 0.0
C9230 C 0.61828 0.68688 0.46199 0.0
C9231 C 0.64535 0.6445 0.45224 0.0
C9232 C 0.6401 0.64385 0.44437 0.0
C9233 C 0.64602 0.65271 0.4569 0.0
C9234 C 0.6415 0.66042 0.45374 0.0
C9235 C 0.63628 0.65977 0.44589 0.0
C9236 C 0.63561 0.6516 0.44125 0.0
C9237 C 0.64211 0.6692 0.45855 0.0
C9238 C 0.63405 0.67341 0.46122 0.0
C9239 C 0.65048 0.67354 0.46031 0.0
C9240 C 0.6592 0.66962 0.45736 0.0
C9241 C 0.66074 0.6676 0.44824 0.0
C9242 C 0.66897 0.66388 0.44552 0.0
C9243 C 0.67575 0.66221 0.45184 0.0
C9244 C 0.67431 0.66429 0.4609 0.0
C9245 C 0.66608 0.668 0.46366 0.0
H9246 H 0.68212 0.65933 0.44973 0.0
H9247 H 0.60257 0.69673 0.4755 0.0
H9248 H 0.80804 0.51977 0.64154 0.0
H9249 H 0.81619 0.53283 0.63562 0.0
H9250 H 0.80066 0.53128 0.61111 0.0
H9251 H 0.79263 0.518 0.61691 0.0
H9252 H 0.8184 0.53306 0.60765 0.0
H9253 H 0.79695 0.54827 0.62617 0.0
H9254 H 0.78831 0.55143 0.63998 0.0
H9255 H 0.81293 0.55764 0.65403 0.0
H9256 H 0.82174 0.55439 0.64033 0.0
H9257 H 0.83979 0.57352 0.59213 0.0
H9258 H 0.82798 0.56282 0.59673 0.0
H9259 H 0.84007 0.56099 0.62305 0.0
H9260 H 0.85162 0.5719 0.61865 0.0
H9261 H 0.8222 0.56187 0.62441 0.0
H9262 H 0.84363 0.54478 0.60666 0.0
H9263 H 0.8525 0.5413 0.59306 0.0
H9264 H 0.82803 0.53842 0.57778 0.0
H9265 H 0.81901 0.542 0.59128 0.0
C9266 C 0.80635 0.52221 0.63489 0.0
C9267 C 0.79971 0.51783 0.62969 0.0
C9268 C 0.81095 0.52974 0.63155 0.0
C9269 C 0.80897 0.5331 0.62296 0.0
C9270 C 0.80226 0.52883 0.61778 0.0
C9271 C 0.79764 0.52128 0.62113 0.0
C9272 C 0.81428 0.54077 0.61925 0.0
C9273 C 0.81908 0.53944 0.61122 0.0
C9274 C 0.81529 0.54902 0.62398 0.0
C9275 C 0.81001 0.55103 0.63223 0.0
C9276 C 0.80053 0.55025 0.63222 0.0
C9277 C 0.7956 0.55207 0.64003 0.0
C9278 C 0.80007 0.55472 0.64788 0.0
C9279 C 0.80947 0.55558 0.64794 0.0
C9280 C 0.81444 0.55377 0.64015 0.0
C9281 C 0.83986 0.57092 0.59893 0.0
C9282 C 0.8467 0.57349 0.60499 0.0
C9283 C 0.83315 0.56475 0.60153 0.0
C9284 C 0.83321 0.56101 0.6102 0.0
C9285 C 0.8399 0.56375 0.61632 0.0
C9286 C 0.84656 0.56992 0.61375 0.0
C9287 C 0.82647 0.55407 0.61293 0.0
C9288 C 0.8214 0.55554 0.62077 0.0
C9289 C 0.82524 0.54593 0.60805 0.0
C9290 C 0.83065 0.54376 0.59995 0.0
C9291 C 0.84014 0.54347 0.60038 0.0
C9292 C 0.8452 0.54147 0.5927 0.0
C9293 C 0.84083 0.53967 0.58456 0.0
C9294 C 0.8314 0.53984 0.58409 0.0
C9295 C 0.82631 0.54185 0.59176 0.0
H9296 H 0.84476 0.53812 0.57861 0.0
H9297 H 0.79624 0.55612 0.65392 0.0
H9298 H 0.29362 0.99718 0.39933 0.0
H9299 H 0.3015 0.98392 0.40525 0.0
H9300 H 0.31703 0.98208 0.38078 0.0
H9301 H 0.30901 0.99513 0.37473 0.0
H9302 H 0.31173 0.96556 0.38648 0.0
H9303 H 0.32559 0.99233 0.39955 0.0
H9304 H 0.32557 1.00654 0.40826 0.0
H9305 H 0.31578 0.9923 0.43145 0.0
H9306 H 0.31563 0.97802 0.42283 0.0
H9307 H 0.35194 0.94325 0.39698 0.0
H9308 H 0.3402 0.95398 0.39289 0.0
H9309 H 0.3289 0.95208 0.41956 0.0
H9310 H 0.34091 0.94154 0.42383 0.0
H9311 H 0.32998 0.96933 0.41423 0.0
H9312 H 0.3182 0.94213 0.40171 0.0
H9313 H 0.31846 0.92792 0.39302 0.0
H9314 H 0.32427 0.94276 0.36891 0.0
H9315 H 0.32417 0.95705 0.37748 0.0
C9316 C 0.2986 0.99385 0.39515 0.0
C9317 C 0.30075 0.99725 0.38658 0.0
C9318 C 0.30315 0.98633 0.39858 0.0
C9319 C 0.30993 0.98209 0.3935 0.0
C9320 C 0.31184 0.98526 0.38482 0.0
C9321 C 0.30731 0.99277 0.3814 0.0
C9322 C 0.31535 0.97458 0.39729 0.0
C9323 C 0.31575 0.96639 0.39253 0.0
C9324 C 0.32038 0.97556 0.40533 0.0
C9325 C 0.3205 0.98414 0.41052 0.0
C9326 C 0.32337 0.99225 0.40648 0.0
C9327 C 0.3234 1.00031 0.41141 0.0
C9328 C 0.32065 1.00033 0.4204 0.0
C9329 C 0.31789 0.99228 0.42448 0.0
C9330 C 0.31783 0.9842 0.41958 0.0
C9331 C 0.34701 0.94515 0.40202 0.0
C9332 C 0.3474 0.94157 0.41076 0.0
C9333 C 0.34022 0.9512 0.39963 0.0
C9334 C 0.33358 0.95374 0.40587 0.0
C9335 C 0.33392 0.95018 0.41461 0.0
C9336 C 0.34075 0.94411 0.41703 0.0
C9337 C 0.32655 0.96038 0.4033 0.0
C9338 C 0.32584 0.96842 0.40828 0.0
C9339 C 0.32123 0.95925 0.39546 0.0
C9340 C 0.32123 0.95067 0.39025 0.0
C9341 C 0.31959 0.94236 0.39456 0.0
C9342 C 0.3197 0.93429 0.38966 0.0
C9343 C 0.32139 0.93444 0.38042 0.0
C9344 C 0.32296 0.94266 0.37606 0.0
C9345 C 0.32286 0.95075 0.38094 0.0
H9346 H 0.32148 0.92818 0.37663 0.0
H9347 H 0.32068 1.00658 0.4242 0.0
H9348 H 0.29945 0.05974 0.63574 0.0
H9349 H 0.31582 0.06136 0.63453 0.0
H9350 H 0.31937 0.04208 0.65595 0.0
H9351 H 0.30288 0.04051 0.65728 0.0
H9352 H 0.32978 0.05736 0.65828 0.0
H9353 H 0.32461 0.03582 0.63516 0.0
H9354 H 0.31718 0.02911 0.62188 0.0
H9355 H 0.32493 0.05209 0.60602 0.0
H9356 H 0.3323 0.059 0.61923 0.0
H9357 H 0.37754 0.06124 0.64959 0.0
H9358 H 0.36255 0.05444 0.65166 0.0
H9359 H 0.35178 0.07187 0.6311 0.0
H9360 H 0.36659 0.0788 0.62912 0.0
H9361 H 0.3459 0.0544 0.62918 0.0
H9362 H 0.34879 0.07679 0.65294 0.0
H9363 H 0.35601 0.08368 0.66625 0.0
H9364 H 0.35243 0.05895 0.68092 0.0
H9365 H 0.3453 0.05187 0.66764 0.0
C9366 C 0.30371 0.05584 0.6402 0.0
C9367 C 0.29989 0.05003 0.64663 0.0
C9368 C 0.31306 0.05671 0.63945 0.0
C9369 C 0.31881 0.05177 0.64509 0.0
C9370 C 0.31504 0.04591 0.65151 0.0
C9371 C 0.30564 0.04499 0.65222 0.0
C9372 C 0.32873 0.05311 0.64446 0.0
C9373 C 0.33337 0.05651 0.65198 0.0
C9374 C 0.33337 0.05209 0.6362 0.0
C9375 C 0.32897 0.04795 0.62821 0.0
C9376 C 0.32468 0.03947 0.62885 0.0
C9377 C 0.32048 0.03563 0.62134 0.0
C9378 C 0.32057 0.04018 0.61311 0.0
C9379 C 0.32487 0.04857 0.61239 0.0
C9380 C 0.32907 0.05245 0.61989 0.0
C9381 C 0.37197 0.06365 0.64554 0.0
C9382 C 0.37329 0.07056 0.63917 0.0
C9383 C 0.36342 0.05973 0.64671 0.0
C9384 C 0.35605 0.06267 0.64154 0.0
C9385 C 0.35739 0.06945 0.6351 0.0
C9386 C 0.36589 0.07339 0.63396 0.0
C9387 C 0.34685 0.05892 0.64292 0.0
C9388 C 0.34236 0.05506 0.63553 0.0
C9389 C 0.34235 0.05951 0.65129 0.0
C9390 C 0.34662 0.06377 0.65927 0.0
C9391 C 0.34962 0.0728 0.65898 0.0
C9392 C 0.35368 0.07674 0.66652 0.0
C9393 C 0.3547 0.07175 0.67441 0.0
C9394 C 0.35165 0.0628 0.67479 0.0
C9395 C 0.3476 0.05882 0.66726 0.0
H9396 H 0.35784 0.07481 0.68025 0.0
H9397 H 0.31732 0.03719 0.6073 0.0
H9398 H 0.21547 0.01146 0.89406 0.0
H9399 H 0.20449 0.02272 0.89897 0.0
H9400 H 0.22379 0.044 0.89375 0.0
H9401 H 0.23481 0.03276 0.88866 0.0
H9402 H 0.21448 0.04637 0.9099 0.0
H9403 H 0.20764 0.04034 0.87894 0.0
H9404 H 0.20431 0.03075 0.86576 0.0
H9405 H 0.18049 0.02053 0.8788 0.0
H9406 H 0.18375 0.02996 0.89212 0.0
H9407 H 0.18235 0.0824 0.91008 0.0
H9408 H 0.19439 0.0717 0.90646 0.0
H9409 H 0.17552 0.04953 0.90908 0.0
H9410 H 0.16347 0.0602 0.91269 0.0
H9411 H 0.18502 0.04797 0.89404 0.0
H9412 H 0.19181 0.05376 0.92506 0.0
H9413 H 0.19511 0.06315 0.93838 0.0
H9414 H 0.21889 0.07366 0.92549 0.0
H9415 H 0.21566 0.06442 0.91203 0.0
C9416 C 0.21738 0.01854 0.89389 0.0
C9417 C 0.22599 0.02121 0.89085 0.0
C9418 C 0.21111 0.02496 0.89674 0.0
C9419 C 0.21329 0.03419 0.89661 0.0
C9420 C 0.22197 0.03689 0.89389 0.0
C9421 C 0.22826 0.03046 0.89101 0.0
C9422 C 0.2064 0.04101 0.89909 0.0
C9423 C 0.20809 0.04682 0.90637 0.0
C9424 C 0.19799 0.04145 0.89458 0.0
C9425 C 0.19599 0.0358 0.88656 0.0
C9426 C 0.20173 0.03599 0.87903 0.0
C9427 C 0.19985 0.03059 0.87153 0.0
C9428 C 0.19221 0.02501 0.87145 0.0
C9429 C 0.18641 0.02484 0.87887 0.0
C9430 C 0.18827 0.03022 0.88639 0.0
C9431 C 0.1808 0.07524 0.91002 0.0
C9432 C 0.17195 0.07215 0.91166 0.0
C9433 C 0.18768 0.06913 0.90794 0.0
C9434 C 0.18587 0.0598 0.90755 0.0
C9435 C 0.17707 0.0567 0.90931 0.0
C9436 C 0.17018 0.0628 0.91135 0.0
C9437 C 0.19304 0.05329 0.90494 0.0
C9438 C 0.19141 0.04754 0.8976 0.0
C9439 C 0.20148 0.05291 0.90941 0.0
C9440 C 0.20344 0.05847 0.9175 0.0
C9441 C 0.1977 0.05813 0.92503 0.0
C9442 C 0.19957 0.06342 0.93261 0.0
C9443 C 0.20719 0.06902 0.93277 0.0
C9444 C 0.21298 0.06933 0.92536 0.0
C9445 C 0.21114 0.06406 0.91775 0.0
H9446 H 0.20862 0.0731 0.93865 0.0
H9447 H 0.19076 0.02084 0.86564 0.0
H9448 H 0.71795 0.46346 0.6358 0.0
H9449 H 0.70229 0.45828 0.63517 0.0
H9450 H 0.6935 0.48325 0.64732 0.0
H9451 H 0.70927 0.48844 0.64816 0.0
H9452 H 0.68518 0.46818 0.65478 0.0
H9453 H 0.69018 0.48032 0.62551 0.0
H9454 H 0.69831 0.48258 0.61122 0.0
H9455 H 0.6954 0.45436 0.60499 0.0
H9456 H 0.68737 0.4519 0.61931 0.0
H9457 H 0.63906 0.45573 0.64488 0.0
H9458 H 0.65335 0.46413 0.64605 0.0
H9459 H 0.66723 0.44227 0.63272 0.0
H9460 H 0.65305 0.4339 0.63152 0.0
H9461 H 0.67206 0.4581 0.62573 0.0
H9462 H 0.66864 0.44565 0.65559 0.0
H9463 H 0.66082 0.44314 0.67002 0.0
H9464 H 0.66088 0.47173 0.67515 0.0
H9465 H 0.6686 0.47442 0.66069 0.0
C9466 C 0.7127 0.46783 0.63842 0.0
C9467 C 0.71485 0.47635 0.64205 0.0
C9468 C 0.70375 0.46489 0.63797 0.0
C9469 C 0.69673 0.47042 0.64111 0.0
C9470 C 0.69882 0.4789 0.64484 0.0
C9471 C 0.70781 0.48187 0.64525 0.0
C9472 C 0.68724 0.46723 0.64048 0.0
C9473 C 0.68222 0.46613 0.64841 0.0
C9474 C 0.68345 0.46446 0.63218 0.0
C9475 C 0.68822 0.46592 0.62352 0.0
C9476 C 0.69133 0.47458 0.62112 0.0
C9477 C 0.69591 0.4759 0.61301 0.0
C9478 C 0.69738 0.46862 0.60721 0.0
C9479 C 0.69426 0.46 0.60949 0.0
C9480 C 0.68968 0.45864 0.6176 0.0
C9481 C 0.64518 0.4527 0.64226 0.0
C9482 C 0.64492 0.44418 0.63805 0.0
C9483 C 0.65333 0.45751 0.64293 0.0
C9484 C 0.66136 0.45381 0.63949 0.0
C9485 C 0.66111 0.44528 0.63535 0.0
C9486 C 0.65299 0.44051 0.63465 0.0
C9487 C 0.67008 0.45879 0.64006 0.0
C9488 C 0.67495 0.46025 0.63209 0.0
C9489 C 0.67373 0.46186 0.64833 0.0
C9490 C 0.6691 0.46024 0.65701 0.0
C9491 C 0.66691 0.45141 0.65976 0.0
C9492 C 0.66251 0.44995 0.66795 0.0
C9493 C 0.66033 0.45727 0.67348 0.0
C9494 C 0.66256 0.46606 0.67085 0.0
C9495 C 0.66695 0.46756 0.66266 0.0
H9496 H 0.65692 0.45613 0.67982 0.0
H9497 H 0.70094 0.46965 0.60093 0.0
H9498 H 0.71567 0.50314 0.12384 0.0
H9499 H 0.70456 0.4922 0.11835 0.0
H9500 H 0.7226 0.47035 0.12497 0.0
H9501 H 0.73374 0.48128 0.1306 0.0
H9502 H 0.71443 0.46799 0.10841 0.0
H9503 H 0.70542 0.47501 0.13866 0.0
H9504 H 0.70139 0.48504 0.15129 0.0
H9505 H 0.67906 0.49552 0.13614 0.0
H9506 H 0.68303 0.48563 0.12337 0.0
H9507 H 0.68179 0.43236 0.10759 0.0
H9508 H 0.69374 0.44321 0.1113 0.0
H9509 H 0.67528 0.46524 0.10668 0.0
H9510 H 0.66329 0.45442 0.103 0.0
H9511 H 0.68385 0.46748 0.12211 0.0
H9512 H 0.69261 0.46043 0.09192 0.0
H9513 H 0.69659 0.45054 0.07917 0.0
H9514 H 0.71927 0.44026 0.09394 0.0
H9515 H 0.71534 0.45 0.10684 0.0
C9516 C 0.71726 0.496 0.1242 0.0
C9517 C 0.72556 0.49308 0.12776 0.0
C9518 C 0.71092 0.48976 0.12102 0.0
C9519 C 0.71271 0.48046 0.12136 0.0
C9520 C 0.72109 0.47751 0.12466 0.0
C9521 C 0.72745 0.48376 0.12785 0.0
C9522 C 0.70575 0.47383 0.11846 0.0
C9523 C 0.70778 0.46779 0.11148 0.0
C9524 C 0.69701 0.47373 0.12233 0.0
C9525 C 0.69458 0.47964 0.13002 0.0
C9526 C 0.69969 0.4795 0.13799 0.0
C9527 C 0.69741 0.48515 0.14518 0.0
C9528 C 0.68999 0.49093 0.14451 0.0
C9529 C 0.68481 0.49105 0.13665 0.0
C9530 C 0.68707 0.48542 0.12944 0.0
C9531 C 0.68032 0.43952 0.10721 0.0
C9532 C 0.67159 0.44254 0.10501 0.0
C9533 C 0.68716 0.44572 0.10934 0.0
C9534 C 0.68542 0.45505 0.10921 0.0
C9535 C 0.67676 0.45808 0.10685 0.0
C9536 C 0.66992 0.45189 0.10476 0.0
C9537 C 0.69249 0.46164 0.112 0.0
C9538 C 0.69049 0.46768 0.11901 0.0
C9539 C 0.70124 0.46174 0.10813 0.0
C9540 C 0.70362 0.45589 0.10038 0.0
C9541 C 0.6984 0.45601 0.09248 0.0
C9542 C 0.70066 0.45044 0.08522 0.0
C9543 C 0.70816 0.44476 0.08575 0.0
C9544 C 0.71345 0.44466 0.09354 0.0
C9545 C 0.71121 0.45021 0.10082 0.0
H9546 H 0.7099 0.44046 0.08013 0.0
H9547 H 0.68823 0.4953 0.15008 0.0
H9548 H 0.30054 0.9706 0.88001 0.0
H9549 H 0.31687 0.96817 0.88065 0.0
H9550 H 0.31606 0.95567 0.85443 0.0
H9551 H 0.29976 0.95816 0.8537 0.0
H9552 H 0.32471 0.94526 0.86646 0.0
H9553 H 0.32569 0.97629 0.85732 0.0
H9554 H 0.32206 0.99253 0.85814 0.0
H9555 H 0.33433 0.99419 0.88425 0.0
H9556 H 0.33792 0.97792 0.88364 0.0
H9557 H 0.37144 0.93936 0.86106 0.0
H9558 H 0.35629 0.94536 0.85856 0.0
H9559 H 0.35651 0.9573 0.88503 0.0
H9560 H 0.3718 0.95152 0.88751 0.0
H9561 H 0.34834 0.96839 0.87252 0.0
H9562 H 0.34657 0.93744 0.88211 0.0
H9563 H 0.35012 0.92116 0.88158 0.0
H9564 H 0.33911 0.91939 0.85492 0.0
H9565 H 0.33561 0.93569 0.85524 0.0
C9566 C 0.30386 0.9675 0.8743 0.0
C9567 C 0.29884 0.96452 0.86682 0.0
C9568 C 0.3132 0.96611 0.87468 0.0
C9569 C 0.31769 0.96175 0.86758 0.0
C9570 C 0.31273 0.95901 0.86 0.0
C9571 C 0.30341 0.9604 0.85961 0.0
C9572 C 0.32742 0.95947 0.86829 0.0
C9573 C 0.32989 0.95035 0.86763 0.0
C9574 C 0.33414 0.96608 0.87008 0.0
C9575 C 0.33199 0.97586 0.87047 0.0
C9576 C 0.32754 0.9801 0.86327 0.0
C9577 C 0.32551 0.98931 0.86369 0.0
C9578 C 0.32794 0.99438 0.87125 0.0
C9579 C 0.33244 0.99025 0.8784 0.0
C9580 C 0.33448 0.98104 0.87802 0.0
C9581 C 0.36836 0.94343 0.86628 0.0
C9582 C 0.3728 0.9449 0.87452 0.0
C9583 C 0.35967 0.9468 0.86486 0.0
C9584 C 0.35523 0.95165 0.87166 0.0
C9585 C 0.35981 0.95353 0.87971 0.0
C9586 C 0.36851 0.95016 0.88114 0.0
C9587 C 0.3456 0.9542 0.87061 0.0
C9588 C 0.34315 0.96334 0.87128 0.0
C9589 C 0.33887 0.94761 0.86886 0.0
C9590 C 0.34092 0.9378 0.86866 0.0
C9591 C 0.34498 0.93359 0.8761 0.0
C9592 C 0.34697 0.92436 0.87585 0.0
C9593 C 0.34487 0.91925 0.86821 0.0
C9594 C 0.34075 0.92336 0.86082 0.0
C9595 C 0.33876 0.93259 0.86104 0.0
H9596 H 0.34641 0.9121 0.86803 0.0
H9597 H 0.32636 1.00152 0.87156 0.0
H9598 H 0.21156 0.02709 0.36394 0.0
H9599 H 0.19566 0.03178 0.36444 0.0
H9600 H 0.20286 0.05414 0.38172 0.0
H9601 H 0.21867 0.04944 0.38135 0.0
H9602 H 0.18793 0.04499 0.38774 0.0
H9603 H 0.19902 0.05755 0.35979 0.0
H9604 H 0.20599 0.05678 0.34474 0.0
H9605 H 0.18487 0.03892 0.3358 0.0
H9606 H 0.17784 0.03948 0.35084 0.0
H9607 H 0.15315 0.07655 0.38554 0.0
H9608 H 0.16745 0.06859 0.38398 0.0
H9609 H 0.15469 0.0489 0.36666 0.0
H9610 H 0.14023 0.05686 0.36826 0.0
H9611 H 0.17134 0.05431 0.3603 0.0
H9612 H 0.15929 0.04313 0.38779 0.0
H9613 H 0.15226 0.04404 0.40279 0.0
H9614 H 0.17508 0.0591 0.41265 0.0
H9615 H 0.18219 0.05839 0.39768 0.0
C9616 C 0.20973 0.03297 0.36788 0.0
C9617 C 0.21636 0.03793 0.37256 0.0
C9618 C 0.20067 0.03567 0.36812 0.0
C9619 C 0.1981 0.04334 0.37307 0.0
C9620 C 0.2047 0.04821 0.37784 0.0
C9621 C 0.21374 0.04556 0.37756 0.0
C9622 C 0.18857 0.04637 0.37335 0.0
C9623 C 0.18432 0.04707 0.38175 0.0
C9624 C 0.18376 0.0488 0.3655 0.0
C9625 C 0.18797 0.04846 0.35646 0.0
C9626 C 0.19591 0.05339 0.35463 0.0
C9627 C 0.19986 0.053 0.34611 0.0
C9628 C 0.19589 0.04778 0.33933 0.0
C9629 C 0.18795 0.04295 0.34106 0.0
C9630 C 0.18398 0.0433 0.34958 0.0
C9631 C 0.15334 0.07048 0.38147 0.0
C9632 C 0.14551 0.06726 0.37713 0.0
C9633 C 0.16153 0.06594 0.38056 0.0
C9634 C 0.1621 0.05806 0.37533 0.0
C9635 C 0.15438 0.05495 0.37076 0.0
C9636 C 0.14614 0.05951 0.37167 0.0
C9637 C 0.17081 0.05316 0.37472 0.0
C9638 C 0.1749 0.05209 0.36628 0.0
C9639 C 0.17548 0.05036 0.38254 0.0
C9640 C 0.17125 0.05076 0.39159 0.0
C9641 C 0.16278 0.04669 0.39314 0.0
C9642 C 0.15879 0.04716 0.40164 0.0
C9643 C 0.16321 0.05164 0.40866 0.0
C9644 C 0.17166 0.05563 0.40721 0.0
C9645 C 0.17568 0.05519 0.39871 0.0
H9646 H 0.1601 0.052 0.41524 0.0
H9647 H 0.19895 0.04749 0.33273 0.0
H9648 H 0.38473 0.22207 0.46773 0.0
H9649 H 0.38311 0.21977 0.45153 0.0
H9650 H 0.41063 0.21035 0.45005 0.0
H9651 H 0.4124 0.2129 0.46621 0.0
H9652 H 0.40627 0.22082 0.43554 0.0
H9653 H 0.39362 0.19542 0.45146 0.0
H9654 H 0.3837 0.18794 0.46251 0.0
H9655 H 0.36032 0.19859 0.44916 0.0
H9656 H 0.37012 0.20625 0.43809 0.0
H9657 H 0.40441 0.19239 0.39679 0.0
H9658 H 0.40624 0.19939 0.41157 0.0
H9659 H 0.3784 0.20795 0.41101 0.0
H9660 H 0.37655 0.20108 0.39616 0.0
H9661 H 0.3824 0.19906 0.42628 0.0
H9662 H 0.39521 0.22336 0.40943 0.0
H9663 H 0.40531 0.23056 0.39835 0.0
H9664 H 0.42849 0.22172 0.41326 0.0
H9665 H 0.41854 0.21435 0.42437 0.0
C9666 C 0.39051 0.2197 0.46393 0.0
C9667 C 0.39868 0.21759 0.46828 0.0
C9668 C 0.38954 0.21832 0.45469 0.0
C9669 C 0.39671 0.21477 0.44962 0.0
C9670 C 0.40501 0.21307 0.45385 0.0
C9671 C 0.40598 0.21444 0.46309 0.0
C9672 C 0.39538 0.21225 0.44005 0.0
C9673 C 0.4011 0.21601 0.43351 0.0
C9674 C 0.38852 0.20611 0.43739 0.0
C9675 C 0.38261 0.20149 0.44401 0.0
C9676 C 0.38637 0.19623 0.45093 0.0
C9677 C 0.38076 0.19194 0.45718 0.0
C9678 C 0.37138 0.19281 0.45655 0.0
C9679 C 0.36759 0.19794 0.44965 0.0
C9680 C 0.37316 0.20225 0.44338 0.0
C9681 C 0.39873 0.19595 0.3997 0.0
C9682 C 0.39032 0.19613 0.3953 0.0
C9683 C 0.39978 0.19994 0.40817 0.0
C9684 C 0.39246 0.20422 0.41238 0.0
C9685 C 0.38413 0.20465 0.40789 0.0
C9686 C 0.38308 0.20069 0.39942 0.0
C9687 C 0.39329 0.2076 0.42174 0.0
C9688 C 0.3875 0.20396 0.42827 0.0
C9689 C 0.40011 0.21381 0.42437 0.0
C9690 C 0.40612 0.21823 0.4177 0.0
C9691 C 0.40247 0.22288 0.41031 0.0
C9692 C 0.40816 0.22701 0.40403 0.0
C9693 C 0.41753 0.22658 0.40509 0.0
C9694 C 0.42123 0.22204 0.41244 0.0
C9695 C 0.41556 0.21789 0.41874 0.0
H9696 H 0.42193 0.22978 0.40022 0.0
H9697 H 0.36705 0.18949 0.4614 0.0
H9698 H 0.54158 0.64534 0.25015 0.0
H9699 H 0.55013 0.65144 0.2374 0.0
H9700 H 0.56663 0.62745 0.23698 0.0
H9701 H 0.55809 0.62129 0.24961 0.0
H9702 H 0.57675 0.64269 0.23725 0.0
H9703 H 0.55113 0.63123 0.22075 0.0
H9704 H 0.53496 0.62967 0.21701 0.0
H9705 H 0.53345 0.65813 0.21154 0.0
H9706 H 0.5496 0.65988 0.21537 0.0
H9707 H 0.60066 0.64522 0.19703 0.0
H9708 H 0.58956 0.6407 0.20828 0.0
H9709 H 0.57711 0.66697 0.20673 0.0
H9710 H 0.58835 0.67163 0.19548 0.0
H9711 H 0.56452 0.65229 0.20772 0.0
H9712 H 0.59036 0.66356 0.22352 0.0
H9713 H 0.60658 0.665 0.22705 0.0
H9714 H 0.60762 0.63683 0.2339 0.0
H9715 H 0.59142 0.63519 0.23028 0.0
C9716 C 0.54692 0.6413 0.24722 0.0
C9717 C 0.54921 0.63286 0.25094 0.0
C9718 C 0.55181 0.64479 0.23995 0.0
C9719 C 0.55903 0.6399 0.23626 0.0
C9720 C 0.56113 0.63137 0.23978 0.0
C9721 C 0.55626 0.62787 0.24701 0.0
C9722 C 0.56478 0.64382 0.22908 0.0
C9723 C 0.57408 0.6447 0.23077 0.0
C9724 C 0.56125 0.64674 0.22074 0.0
C9725 C 0.55154 0.64571 0.21845 0.0
C9726 C 0.54733 0.63717 0.21884 0.0
C9727 C 0.53817 0.63625 0.21668 0.0
C9728 C 0.53317 0.6438 0.21407 0.0
C9729 C 0.53733 0.65229 0.21358 0.0
C9730 C 0.54648 0.65325 0.21574 0.0
C9731 C 0.59559 0.65007 0.19909 0.0
C9732 C 0.59549 0.65884 0.19548 0.0
C9733 C 0.58922 0.64745 0.20548 0.0
C9734 C 0.58261 0.65354 0.20842 0.0
C9735 C 0.58219 0.66218 0.20455 0.0
C9736 C 0.5886 0.66483 0.19813 0.0
C9737 C 0.57648 0.65092 0.21585 0.0
C9738 C 0.56715 0.65034 0.21424 0.0
C9739 C 0.57996 0.64827 0.2243 0.0
C9740 C 0.58969 0.64924 0.22656 0.0
C9741 C 0.59406 0.65766 0.22572 0.0
C9742 C 0.60325 0.65851 0.22774 0.0
C9743 C 0.60814 0.65101 0.23068 0.0
C9744 C 0.60383 0.64264 0.23162 0.0
C9745 C 0.59464 0.64174 0.22959 0.0
H9746 H 0.61525 0.65169 0.23225 0.0
H9747 H 0.52609 0.64307 0.2124 0.0
H9748 H 0.11408 0.77833 0.96075 0.0
H9749 H 0.1139 0.78416 0.94532 0.0
H9750 H 0.12875 0.80778 0.95401 0.0
H9751 H 0.12887 0.80205 0.96937 0.0
H9752 H 0.11503 0.81252 0.94369 0.0
H9753 H 0.13878 0.79017 0.9422 0.0
H9754 H 0.14521 0.77488 0.94372 0.0
H9755 H 0.12592 0.7646 0.92467 0.0
H9756 H 0.1193 0.77981 0.92313 0.0
H9757 H 0.1322 0.83127 0.90401 0.0
H9758 H 0.13046 0.82368 0.91843 0.0
H9759 H 0.11497 0.80247 0.90568 0.0
H9760 H 0.11696 0.8099 0.89109 0.0
H9761 H 0.12721 0.79568 0.9175 0.0
H9762 H 0.10434 0.8184 0.91803 0.0
H9763 H 0.09811 0.83376 0.91644 0.0
H9764 H 0.11576 0.84339 0.9373 0.0
H9765 H 0.1222 0.82812 0.93893 0.0
C9766 C 0.11737 0.78473 0.95933 0.0
C9767 C 0.12145 0.78976 0.96627 0.0
C9768 C 0.11726 0.78805 0.95052 0.0
C9769 C 0.12134 0.79639 0.9485 0.0
C9770 C 0.1255 0.80136 0.95541 0.0
C9771 C 0.12556 0.79808 0.9642 0.0
C9772 C 0.1212 0.80012 0.93924 0.0
C9773 C 0.11777 0.80886 0.93798 0.0
C9774 C 0.12449 0.79524 0.93173 0.0
C9775 C 0.12848 0.7861 0.93263 0.0
C9776 C 0.13587 0.78463 0.93839 0.0
C9777 C 0.13955 0.77599 0.93925 0.0
C9778 C 0.13596 0.76877 0.93432 0.0
C9779 C 0.12868 0.77019 0.9285 0.0
C9780 C 0.12497 0.77882 0.92763 0.0
C9781 C 0.1285 0.82494 0.90423 0.0
C9782 C 0.12474 0.82119 0.89638 0.0
C9783 C 0.12743 0.82066 0.91251 0.0
C9784 C 0.12248 0.81258 0.91315 0.0
C9785 C 0.11877 0.80874 0.90534 0.0
C9786 C 0.11986 0.81302 0.89702 0.0
C9787 C 0.12126 0.80817 0.92202 0.0
C9788 C 0.12439 0.7993 0.9232 0.0
C9789 C 0.11771 0.81293 0.92948 0.0
C9790 C 0.1138 0.82212 0.92856 0.0
C9791 C 0.10694 0.82381 0.92224 0.0
C9792 C 0.10336 0.8325 0.92133 0.0
C9793 C 0.10655 0.83955 0.92675 0.0
C9794 C 0.1133 0.83792 0.9331 0.0
C9795 C 0.11691 0.82925 0.93403 0.0
H9796 H 0.10377 0.84627 0.92604 0.0
H9797 H 0.13882 0.76208 0.93499 0.0
H9798 H 0.96967 0.36525 0.74882 0.0
H9799 H 0.96058 0.35939 0.73632 0.0
H9800 H 0.94838 0.38562 0.73302 0.0
H9801 H 0.95747 0.39153 0.74542 0.0
H9802 H 0.93585 0.37238 0.73421 0.0
H9803 H 0.9635 0.37754 0.71783 0.0
H9804 H 0.97979 0.37593 0.71473 0.0
H9805 H 0.97652 0.34717 0.71219 0.0
H9806 H 0.96022 0.3486 0.71539 0.0
H9807 H 0.9122 0.36842 0.69389 0.0
H9808 H 0.92351 0.37271 0.70505 0.0
H9809 H 0.93301 0.34518 0.706 0.0
H9810 H 0.92163 0.34081 0.69476 0.0
H9811 H 0.94706 0.35764 0.70639 0.0
H9812 H 0.91946 0.35241 0.72221 0.0
H9813 H 0.90315 0.35387 0.72529 0.0
H9814 H 0.90638 0.38248 0.72915 0.0
H9815 H 0.92269 0.38122 0.72596 0.0
C9816 C 0.96518 0.36981 0.74531 0.0
C9817 C 0.96424 0.37884 0.74815 0.0
C9818 C 0.95998 0.36644 0.73818 0.0
C9819 C 0.9538 0.37207 0.73374 0.0
C9820 C 0.95306 0.38115 0.73639 0.0
C9821 C 0.95825 0.38451 0.7435 0.0
C9822 C 0.94766 0.36842 0.72672 0.0
C9823 C 0.93832 0.36925 0.72808 0.0
C9824 C 0.95087 0.36404 0.71888 0.0
C9825 C 0.96066 0.36317 0.71695 0.0
C9826 C 0.96627 0.37087 0.71669 0.0
C9827 C 0.9755 0.36999 0.7149 0.0
C9828 C 0.97919 0.36145 0.71329 0.0
C9829 C 0.97366 0.35378 0.71345 0.0
C9830 C 0.96442 0.35462 0.71525 0.0
C9831 C 0.91667 0.36326 0.69649 0.0
C9832 C 0.91593 0.35424 0.69356 0.0
C9833 C 0.92315 0.36573 0.70284 0.0
C9834 C 0.92899 0.35923 0.70647 0.0
C9835 C 0.92854 0.35029 0.70331 0.0
C9836 C 0.92205 0.34781 0.69689 0.0
C9837 C 0.93529 0.36181 0.7138 0.0
C9838 C 0.94462 0.36073 0.71254 0.0
C9839 C 0.93209 0.36594 0.72178 0.0
C9840 C 0.92229 0.36672 0.72378 0.0
C9841 C 0.91668 0.35902 0.72366 0.0
C9842 C 0.90744 0.35982 0.72543 0.0
C9843 C 0.90373 0.36827 0.7274 0.0
C9844 C 0.90926 0.37594 0.72762 0.0
C9845 C 0.91851 0.37519 0.72584 0.0
H9846 H 0.89657 0.36887 0.72877 0.0
H9847 H 0.98634 0.36078 0.7119 0.0
H9848 H 0.38462 0.79122 0.04958 0.0
H9849 H 0.38345 0.79309 0.06588 0.0
H9850 H 0.40892 0.80739 0.06616 0.0
H9851 H 0.4103 0.80526 0.04993 0.0
H9852 H 0.40737 0.79639 0.08062 0.0
H9853 H 0.38906 0.81882 0.06567 0.0
H9854 H 0.3771 0.82402 0.05537 0.0
H9855 H 0.35729 0.80896 0.07029 0.0
H9856 H 0.36917 0.80357 0.08061 0.0
H9857 H 0.40383 0.82498 0.11888 0.0
H9858 H 0.40561 0.81772 0.10423 0.0
H9859 H 0.37943 0.80509 0.10712 0.0
H9860 H 0.37761 0.81234 0.12181 0.0
H9861 H 0.38072 0.81349 0.09149 0.0
H9862 H 0.39893 0.79253 0.10761 0.0
H9863 H 0.41096 0.78759 0.11795 0.0
H9864 H 0.43099 0.79998 0.10107 0.0
H9865 H 0.41907 0.80511 0.09068 0.0
C9866 C 0.39006 0.7946 0.05314 0.0
C9867 C 0.39751 0.79818 0.04844 0.0
C9868 C 0.38935 0.79572 0.06244 0.0
C9869 C 0.39603 0.8005 0.06721 0.0
C9870 C 0.40367 0.80371 0.06261 0.0
C9871 C 0.4044 0.80257 0.05332 0.0
C9872 C 0.39483 0.80269 0.07688 0.0
C9873 C 0.40158 0.80017 0.08301 0.0
C9874 C 0.38716 0.80744 0.08001 0.0
C9875 C 0.38001 0.81071 0.07384 0.0
C9876 C 0.38216 0.81656 0.06671 0.0
C9877 C 0.3754 0.81955 0.06088 0.0
C9878 C 0.36645 0.8168 0.06216 0.0
C9879 C 0.36423 0.81107 0.06929 0.0
C9880 C 0.37098 0.80805 0.07514 0.0
C9881 C 0.39854 0.82048 0.1165 0.0
C9882 C 0.39056 0.81927 0.12149 0.0
C9883 C 0.39957 0.81633 0.10811 0.0
C9884 C 0.39267 0.81082 0.10459 0.0
C9885 C 0.38483 0.80934 0.1097 0.0
C9886 C 0.38379 0.8135 0.11807 0.0
C9887 C 0.39331 0.80727 0.09527 0.0
C9888 C 0.38646 0.80958 0.08917 0.0
C9889 C 0.40089 0.80235 0.09218 0.0
C9890 C 0.40809 0.79926 0.0984 0.0
C9891 C 0.40589 0.79426 0.10614 0.0
C9892 C 0.41269 0.79142 0.112 0.0
C9893 C 0.42173 0.79349 0.11018 0.0
C9894 C 0.42399 0.79839 0.10247 0.0
C9895 C 0.41721 0.80126 0.09659 0.0
H9896 H 0.42699 0.79128 0.11473 0.0
H9897 H 0.36122 0.81912 0.05763 0.0
H9898 H 0.98242 0.63733 0.78389 0.0
H9899 H 0.97176 0.6428 0.79523 0.0
H9900 H 0.955 0.65399 0.77432 0.0
H9901 H 0.96577 0.64883 0.76298 0.0
H9902 H 0.95616 0.66542 0.78818 0.0
H9903 H 0.94977 0.63382 0.78411 0.0
H9904 H 0.95326 0.61754 0.78351 0.0
H9905 H 0.96148 0.61821 0.81119 0.0
H9906 H 0.95815 0.63454 0.81192 0.0
H9907 H 0.9139 0.66816 0.81098 0.0
H9908 H 0.92636 0.66453 0.80077 0.0
H9909 H 0.94247 0.65574 0.82326 0.0
H9910 H 0.93 0.65927 0.83351 0.0
H9911 H 0.9423 0.64344 0.80929 0.0
H9912 H 0.94751 0.67519 0.81335 0.0
H9913 H 0.94344 0.69134 0.81363 0.0
H9914 H 0.93677 0.69022 0.78556 0.0
H9915 H 0.94069 0.67403 0.78514 0.0
C9916 C 0.97653 0.64106 0.78171 0.0
C9917 C 0.97491 0.64258 0.77252 0.0
C9918 C 0.9704 0.64412 0.7882 0.0
C9919 C 0.96252 0.6487 0.78561 0.0
C9920 C 0.96102 0.65044 0.77647 0.0
C9921 C 0.96714 0.64741 0.76999 0.0
C9922 C 0.9557 0.65149 0.79238 0.0
C9923 C 0.95307 0.6606 0.79274 0.0
C9924 C 0.95179 0.64524 0.79845 0.0
C9925 C 0.95381 0.63542 0.79804 0.0
C9926 C 0.95239 0.63051 0.79005 0.0
C9927 C 0.95433 0.62127 0.78969 0.0
C9928 C 0.95762 0.61685 0.7973 0.0
C9929 C 0.95895 0.62165 0.8053 0.0
C9930 C 0.95704 0.6309 0.80568 0.0
C9931 C 0.92011 0.66548 0.81375 0.0
C9932 C 0.92098 0.664 0.82304 0.0
C9933 C 0.92724 0.66347 0.80792 0.0
C9934 C 0.93535 0.65992 0.81127 0.0
C9935 C 0.93627 0.6585 0.82055 0.0
C9936 C 0.92917 0.66058 0.82639 0.0
C9937 C 0.94274 0.65735 0.80505 0.0
C9938 C 0.94546 0.64827 0.80478 0.0
C9939 C 0.94666 0.66362 0.79901 0.0
C9940 C 0.94432 0.67337 0.79924 0.0
C9941 C 0.94511 0.67836 0.80726 0.0
C9942 C 0.94284 0.68753 0.80744 0.0
C9943 C 0.93983 0.6918 0.79963 0.0
C9944 C 0.9391 0.68691 0.79161 0.0
C9945 C 0.94135 0.67773 0.79139 0.0
H9946 H 0.93808 0.6989 0.79978 0.0
H9947 H 0.95911 0.6097 0.79702 0.0
H9948 H 0.13106 0.22147 0.55177 0.0
H9949 H 0.13247 0.21945 0.56801 0.0
H9950 H 0.10592 0.20734 0.56884 0.0
H9951 H 0.10433 0.20961 0.55264 0.0
H9952 H 0.1088 0.21821 0.58333 0.0
H9953 H 0.12445 0.19421 0.56798 0.0
H9954 H 0.13545 0.18776 0.55731 0.0
H9955 H 0.15716 0.20096 0.57136 0.0
H9956 H 0.14627 0.2076 0.58205 0.0
H9957 H 0.11199 0.19039 0.62223 0.0
H9958 H 0.11007 0.19708 0.60736 0.0
H9959 H 0.13694 0.20839 0.60887 0.0
H9960 H 0.13888 0.2018 0.6238 0.0
H9961 H 0.13438 0.19918 0.59349 0.0
H9962 H 0.11857 0.22203 0.60981 0.0
H9963 H 0.1074 0.22811 0.62051 0.0
H9964 H 0.08581 0.21675 0.6048 0.0
H9965 H 0.09686 0.21049 0.59406 0.0
C9966 C 0.12544 0.21855 0.55543 0.0
C9967 C 0.11761 0.21562 0.5509 0.0
C9968 C 0.12629 0.21734 0.5647 0.0
C9969 C 0.11936 0.21312 0.56961 0.0
C9970 C 0.11137 0.21057 0.56518 0.0
C9971 C 0.11051 0.21179 0.55591 0.0
C9972 C 0.12063 0.21084 0.57923 0.0
C9973 C 0.11435 0.214 0.58556 0.0
C9974 C 0.12798 0.20549 0.58215 0.0
C9975 C 0.13454 0.20148 0.57575 0.0
C9976 C 0.13156 0.19579 0.56875 0.0
C9977 C 0.13778 0.1921 0.56271 0.0
C9978 C 0.14699 0.19397 0.56364 0.0
C9979 C 0.15002 0.19953 0.57064 0.0
C9980 C 0.14383 0.20326 0.57669 0.0
C9981 C 0.11741 0.19448 0.6195 0.0
C9982 C 0.12561 0.19553 0.6242 0.0
C9983 C 0.11631 0.19829 0.61099 0.0
C9984 C 0.12335 0.20327 0.60702 0.0
C9985 C 0.13143 0.20455 0.6118 0.0
C9986 C 0.13254 0.20076 0.62031 0.0
C9987 C 0.12253 0.20652 0.59763 0.0
C9988 C 0.12889 0.20349 0.59131 0.0
C9989 C 0.11523 0.21195 0.59474 0.0
C9990 C 0.10856 0.21572 0.60117 0.0
C9991 C 0.11145 0.22076 0.60868 0.0
C9992 C 0.10513 0.22426 0.61474 0.0
C9993 C 0.0959 0.2228 0.61335 0.0
C9994 C 0.09296 0.21787 0.60587 0.0
C9995 C 0.09925 0.21435 0.59979 0.0
H9996 H 0.09103 0.22552 0.61805 0.0
H9997 H 0.15179 0.1911 0.55895 0.0
H9998 H 0.53926 0.38126 0.27678 0.0
H9999 H 0.54729 0.37445 0.28948 0.0
H10000 H 0.57081 0.3707 0.27276 0.0
H10001 H 0.56277 0.3772 0.26002 0.0
H10002 H 0.56769 0.35602 0.28284 0.0
H10003 H 0.56923 0.38843 0.28756 0.0
H10004 H 0.56283 0.40367 0.28968 0.0
H10005 H 0.54854 0.39453 0.31311 0.0
H10006 H 0.55477 0.3792 0.31106 0.0
H10007 H 0.60497 0.35364 0.31196 0.0
H10008 H 0.59352 0.3575 0.30083 0.0
H10009 H 0.57346 0.35948 0.32178 0.0
H10010 H 0.585 0.35587 0.33304 0.0
H10011 H 0.57278 0.3738 0.31072 0.0
H10012 H 0.57303 0.34181 0.30707 0.0
H10013 H 0.57975 0.32672 0.30498 0.0
H10014 H 0.5908 0.335 0.2796 0.0
H10015 H 0.58425 0.35019 0.28159 0.0
C10016 C 0.54611 0.3789 0.2758 0.0
C10017 C 0.55041 0.37985 0.26741 0.0
C10018 C 0.55071 0.37507 0.28307 0.0
C10019 C 0.55969 0.37215 0.28209 0.0
C10020 C 0.5639 0.37292 0.27368 0.0
C10021 C 0.55933 0.37673 0.26643 0.0
C10022 C 0.56484 0.36847 0.28981 0.0
C10023 C 0.56884 0.35992 0.28893 0.0
C10024 C 0.56611 0.37344 0.29786 0.0
C10025 C 0.56238 0.38265 0.29909 0.0
C10026 C 0.56467 0.38966 0.29312 0.0
C10027 C 0.56108 0.39831 0.29432 0.0
C10028 C 0.55526 0.40006 0.3015 0.0
C10029 C 0.55303 0.39316 0.30753 0.0
C10030 C 0.55659 0.38449 0.30636 0.0
C10031 C 0.59812 0.35489 0.31421 0.0
C10032 C 0.5959 0.35448 0.32339 0.0
C10033 C 0.59156 0.35701 0.30782 0.0
C10034 C 0.58261 0.35868 0.31046 0.0
C10035 C 0.58032 0.35817 0.3196 0.0
C10036 C 0.5869 0.35604 0.32601 0.0
C10037 C 0.57581 0.36144 0.30366 0.0
C10038 C 0.5715 0.36982 0.30471 0.0
C10039 C 0.57427 0.35631 0.29576 0.0
C10040 C 0.57819 0.34716 0.29451 0.0
C10041 C 0.57694 0.34044 0.30107 0.0
C10042 C 0.58072 0.33186 0.2999 0.0
C10043 C 0.58571 0.32991 0.29217 0.0
C10044 C 0.58693 0.33652 0.28558 0.0
C10045 C 0.58317 0.34511 0.28672 0.0
H10046 H 0.58863 0.32327 0.29128 0.0
H10047 H 0.55249 0.40676 0.30242 0.0
H10048 H 0.46859 0.3863 0.21288 0.0
H10049 H 0.45313 0.38628 0.20716 0.0
H10050 H 0.4442 0.4005 0.23089 0.0
H10051 H 0.45973 0.40052 0.23669 0.0
H10052 H 0.43249 0.38717 0.22631 0.0
H10053 H 0.44685 0.4118 0.21128 0.0
H10054 H 0.45875 0.41945 0.20251 0.0
H10055 H 0.4539 0.40148 0.1803 0.0
H10056 H 0.44205 0.39363 0.18899 0.0
H10057 H 0.38967 0.39646 0.2054 0.0
H10058 H 0.40431 0.39832 0.21293 0.0
H10059 H 0.41736 0.38399 0.19127 0.0
H10060 H 0.40287 0.38233 0.18361 0.0
H10061 H 0.42653 0.39909 0.19573 0.0
H10062 H 0.41301 0.37377 0.21137 0.0
H10063 H 0.40117 0.36611 0.22023 0.0
H10064 H 0.40439 0.38568 0.24137 0.0
H10065 H 0.41617 0.39353 0.23257 0.0
C10066 C 0.46335 0.38948 0.21686 0.0
C10067 C 0.4654 0.39351 0.22519 0.0
C10068 C 0.45452 0.38945 0.21359 0.0
C10069 C 0.44754 0.39354 0.21852 0.0
C10070 C 0.44949 0.39735 0.22696 0.0
C10071 C 0.45836 0.39734 0.23027 0.0
C10072 C 0.43825 0.39382 0.21478 0.0
C10073 C 0.43115 0.38992 0.21969 0.0
C10074 C 0.43652 0.39733 0.2061 0.0
C10075 C 0.4436 0.40208 0.20082 0.0
C10076 C 0.44836 0.40944 0.20455 0.0
C10077 C 0.45509 0.41382 0.19959 0.0
C10078 C 0.45709 0.41094 0.19086 0.0
C10079 C 0.45234 0.4037 0.18707 0.0
C10080 C 0.44561 0.39928 0.192 0.0
C10081 C 0.39568 0.39375 0.20223 0.0
C10082 C 0.3951 0.3892 0.19393 0.0
C10083 C 0.40401 0.39476 0.20657 0.0
C10084 C 0.41191 0.39123 0.20269 0.0
C10085 C 0.41135 0.38675 0.19439 0.0
C10086 C 0.40304 0.38573 0.19006 0.0
C10087 C 0.42082 0.39223 0.20717 0.0
C10088 C 0.42785 0.39642 0.20239 0.0
C10089 C 0.42246 0.38902 0.21597 0.0
C10090 C 0.41539 0.38429 0.22127 0.0
C10091 C 0.41114 0.37648 0.21787 0.0
C10092 C 0.40445 0.3721 0.22289 0.0
C10093 C 0.40201 0.37542 0.23135 0.0
C10094 C 0.40627 0.38312 0.23481 0.0
C10095 C 0.41296 0.38754 0.22981 0.0
H10096 H 0.39683 0.37202 0.23522 0.0
H10097 H 0.46231 0.41434 0.18703 0.0
H10098 H 0.39003 0.73946 0.96976 0.0
H10099 H 0.38489 0.72847 0.95857 0.0
H10100 H 0.35776 0.73017 0.96906 0.0
H10101 H 0.36289 0.74117 0.98033 0.0
H10102 H 0.36211 0.71291 0.96507 0.0
H10103 H 0.36341 0.74138 0.95003 0.0
H10104 H 0.37028 0.75577 0.94516 0.0
H10105 H 0.39107 0.74127 0.93115 0.0
H10106 H 0.3844 0.72677 0.93605 0.0
H10107 H 0.34303 0.69171 0.9258 0.0
H10108 H 0.34648 0.70229 0.93804 0.0
H10109 H 0.37458 0.7023 0.9303 0.0
H10110 H 0.37122 0.69171 0.91815 0.0
H10111 H 0.36842 0.71924 0.93293 0.0
H10112 H 0.36728 0.69073 0.94871 0.0
H10113 H 0.36018 0.67644 0.95357 0.0
H10114 H 0.33862 0.69125 0.96604 0.0
H10115 H 0.34554 0.70563 0.96115 0.0
C10116 C 0.38296 0.73751 0.96968 0.0
C10117 C 0.37684 0.74125 0.97586 0.0
C10118 C 0.38004 0.73123 0.96329 0.0
C10119 C 0.37091 0.72863 0.96287 0.0
C10120 C 0.36483 0.7321 0.96924 0.0
C10121 C 0.36777 0.73837 0.97568 0.0
C10122 C 0.36773 0.72244 0.95566 0.0
C10123 C 0.36336 0.71435 0.95803 0.0
C10124 C 0.36945 0.72428 0.94647 0.0
C10125 C 0.37345 0.73299 0.94347 0.0
C10126 C 0.36949 0.74126 0.94596 0.0
C10127 C 0.37334 0.74943 0.94319 0.0
C10128 C 0.38112 0.74944 0.93786 0.0
C10129 C 0.38505 0.74125 0.93528 0.0
C10130 C 0.38123 0.73306 0.93805 0.0
C10131 C 0.34996 0.69389 0.92677 0.0
C10132 C 0.35684 0.6909 0.92097 0.0
C10133 C 0.35191 0.69995 0.93376 0.0
C10134 C 0.36079 0.70306 0.9351 0.0
C10135 C 0.36767 0.70003 0.92936 0.0
C10136 C 0.36573 0.694 0.92239 0.0
C10137 C 0.36297 0.70962 0.94235 0.0
C10138 C 0.36712 0.71781 0.93997 0.0
C10139 C 0.36101 0.70788 0.9515 0.0
C10140 C 0.35687 0.69925 0.95448 0.0
C10141 C 0.36099 0.69093 0.95242 0.0
C10142 C 0.357 0.68282 0.9552 0.0
C10143 C 0.34894 0.68293 0.96009 0.0
C10144 C 0.34486 0.69117 0.96224 0.0
C10145 C 0.34881 0.6993 0.95947 0.0
H10146 H 0.34587 0.67664 0.96223 0.0
H10147 H 0.38409 0.75577 0.93572 0.0
H10148 H 0.04519 0.62039 0.69918 0.0
H10149 H 0.0614 0.62066 0.69632 0.0
H10150 H 0.06659 0.61578 0.72443 0.0
H10151 H 0.05025 0.6155 0.72736 0.0
H10152 H 0.07792 0.62863 0.71762 0.0
H10153 H 0.06917 0.59875 0.7097 0.0
H10154 H 0.05993 0.58685 0.70253 0.0
H10155 H 0.0667 0.59728 0.67646 0.0
H10156 H 0.07588 0.60933 0.68348 0.0
H10157 H 0.12458 0.62143 0.70457 0.0
H10158 H 0.10954 0.61865 0.71108 0.0
H10159 H 0.09724 0.62486 0.68554 0.0
H10160 H 0.11215 0.62758 0.67904 0.0
H10161 H 0.09036 0.60925 0.69335 0.0
H10162 H 0.09742 0.64027 0.70177 0.0
H10163 H 0.10659 0.65213 0.70911 0.0
H10164 H 0.10315 0.63902 0.73462 0.0
H10165 H 0.09405 0.62701 0.7274 0.0
C10166 C 0.04976 0.61929 0.70475 0.0
C10167 C 0.04643 0.61779 0.71347 0.0
C10168 C 0.05903 0.61946 0.70311 0.0
C10169 C 0.0652 0.61806 0.71013 0.0
C10170 C 0.06194 0.61682 0.71891 0.0
C10171 C 0.05262 0.61667 0.72057 0.0
C10172 C 0.07503 0.61794 0.70817 0.0
C10173 C 0.08069 0.62426 0.71245 0.0
C10174 C 0.07864 0.61226 0.7014 0.0
C10175 C 0.07318 0.60498 0.69713 0.0
C10176 C 0.06865 0.59855 0.70244 0.0
C10177 C 0.06343 0.59177 0.69841 0.0
C10178 C 0.06272 0.59132 0.68905 0.0
C10179 C 0.06726 0.59763 0.68371 0.0
C10180 C 0.07248 0.60444 0.68771 0.0
C10181 C 0.11865 0.62214 0.70036 0.0
C10182 C 0.11951 0.62477 0.69132 0.0
C10183 C 0.11009 0.6206 0.70408 0.0
C10184 C 0.10229 0.62159 0.69879 0.0
C10185 C 0.10317 0.62406 0.68974 0.0
C10186 C 0.11168 0.62568 0.68605 0.0
C10187 C 0.09314 0.62013 0.70258 0.0
C10188 C 0.08762 0.61349 0.69864 0.0
C10189 C 0.0897 0.62547 0.7097 0.0
C10190 C 0.09516 0.63268 0.71403 0.0
C10191 C 0.09869 0.63987 0.70893 0.0
C10192 C 0.10386 0.64663 0.71307 0.0
C10193 C 0.10548 0.64631 0.72232 0.0
C10194 C 0.10191 0.63925 0.72745 0.0
C10195 C 0.09674 0.63246 0.72334 0.0
H10196 H 0.10948 0.65155 0.72551 0.0
H10197 H 0.05868 0.58606 0.68594 0.0
H10198 H 0.15199 0.27377 0.48456 0.0
H10199 H 0.15766 0.28451 0.47337 0.0
H10200 H 0.13285 0.2817 0.45836 0.0
H10201 H 0.12715 0.271 0.46951 0.0
H10202 H 0.14723 0.28009 0.44761 0.0
H10203 H 0.13747 0.3007 0.47074 0.0
H10204 H 0.13694 0.30702 0.48608 0.0
H10205 H 0.16546 0.31245 0.48506 0.0
H10206 H 0.16618 0.30604 0.46975 0.0
H10207 H 0.14879 0.31669 0.41777 0.0
H10208 H 0.14492 0.3066 0.43013 0.0
H10209 H 0.17142 0.31055 0.4416 0.0
H10210 H 0.17543 0.32061 0.42912 0.0
H10211 H 0.1577 0.31129 0.45437 0.0
H10212 H 0.1672 0.29143 0.43083 0.0
H10213 H 0.16757 0.28528 0.41541 0.0
H10214 H 0.1394 0.27845 0.41721 0.0
H10215 H 0.13882 0.28469 0.43259 0.0
C10216 C 0.1477 0.27555 0.47895 0.0
C10217 C 0.13914 0.27151 0.4779 0.0
C10218 C 0.15095 0.28167 0.47255 0.0
C10219 C 0.14567 0.28392 0.46504 0.0
C10220 C 0.13707 0.28002 0.46407 0.0
C10221 C 0.13383 0.27389 0.47044 0.0
C10222 C 0.14918 0.29009 0.45799 0.0
C10223 C 0.14942 0.28694 0.44908 0.0
C10224 C 0.15232 0.29893 0.45994 0.0
C10225 C 0.1519 0.30279 0.46914 0.0
C10226 C 0.14365 0.30317 0.47382 0.0
C10227 C 0.14331 0.30678 0.4825 0.0
C10228 C 0.15117 0.31011 0.48655 0.0
C10229 C 0.15938 0.30985 0.48192 0.0
C10230 C 0.15976 0.30624 0.47324 0.0
C10231 C 0.15385 0.31535 0.42286 0.0
C10232 C 0.16247 0.31937 0.42238 0.0
C10233 C 0.15161 0.30961 0.42994 0.0
C10234 C 0.15792 0.30773 0.43671 0.0
C10235 C 0.16645 0.3119 0.43642 0.0
C10236 C 0.16873 0.31765 0.4293 0.0
C10237 C 0.15555 0.30132 0.444 0.0
C10238 C 0.15556 0.30441 0.45292 0.0
C10239 C 0.15262 0.29241 0.44208 0.0
C10240 C 0.15295 0.28859 0.43284 0.0
C10241 C 0.16106 0.28868 0.42791 0.0
C10242 C 0.16132 0.28517 0.41918 0.0
C10243 C 0.15351 0.2815 0.41533 0.0
C10244 C 0.14544 0.28131 0.4202 0.0
C10245 C 0.14515 0.28482 0.42893 0.0
H10246 H 0.15372 0.27878 0.40857 0.0
H10247 H 0.15089 0.31291 0.49328 0.0
H10248 H 0.4645 0.60562 0.29821 0.0
H10249 H 0.44886 0.60606 0.30346 0.0
H10250 H 0.44462 0.63087 0.28888 0.0
H10251 H 0.46035 0.63065 0.28385 0.0
H10252 H 0.43848 0.63222 0.30566 0.0
H10253 H 0.43536 0.61078 0.28167 0.0
H10254 H 0.43901 0.59706 0.27296 0.0
H10255 H 0.43276 0.58052 0.29584 0.0
H10256 H 0.42918 0.59415 0.30473 0.0
H10257 H 0.39155 0.63418 0.31392 0.0
H10258 H 0.40591 0.63284 0.30588 0.0
H10259 H 0.41161 0.60808 0.32005 0.0
H10260 H 0.39724 0.60936 0.32808 0.0
H10261 H 0.41667 0.60683 0.3027 0.0
H10262 H 0.42078 0.62807 0.3269 0.0
H10263 H 0.41731 0.64167 0.33588 0.0
H10264 H 0.422 0.65844 0.31281 0.0
H10265 H 0.42537 0.64493 0.30365 0.0
C10266 C 0.46024 0.61117 0.29612 0.0
C10267 C 0.46369 0.61811 0.29063 0.0
C10268 C 0.45127 0.61136 0.29905 0.0
C10269 C 0.44554 0.61845 0.29649 0.0
C10270 C 0.44891 0.62532 0.29091 0.0
C10271 C 0.45789 0.62514 0.28798 0.0
C10272 C 0.43618 0.61897 0.30005 0.0
C10273 C 0.43366 0.62673 0.30486 0.0
C10274 C 0.42997 0.61171 0.29923 0.0
C10275 C 0.43208 0.60349 0.29389 0.0
C10276 C 0.43483 0.60422 0.28487 0.0
C10277 C 0.43687 0.59646 0.27989 0.0
C10278 C 0.43613 0.58793 0.28385 0.0
C10279 C 0.43333 0.58714 0.29278 0.0
C10280 C 0.43128 0.59488 0.29779 0.0
C10281 C 0.39585 0.62844 0.3153 0.0
C10282 C 0.3933 0.62191 0.32169 0.0
C10283 C 0.40405 0.62767 0.3107 0.0
C10284 C 0.4099 0.62044 0.31247 0.0
C10285 C 0.4072 0.61372 0.31858 0.0
C10286 C 0.39898 0.61446 0.32315 0.0
C10287 C 0.419 0.62008 0.30829 0.0
C10288 C 0.42147 0.61234 0.30341 0.0
C10289 C 0.4252 0.62735 0.30907 0.0
C10290 C 0.42323 0.63548 0.31457 0.0
C10291 C 0.421 0.63466 0.32372 0.0
C10292 C 0.41907 0.64235 0.32885 0.0
C10293 C 0.41941 0.65091 0.32491 0.0
C10294 C 0.42172 0.6518 0.31584 0.0
C10295 C 0.42365 0.64413 0.31069 0.0
H10296 H 0.41791 0.65686 0.32889 0.0
H10297 H 0.43772 0.58193 0.27999 0.0
H10298 H 0.1314 0.73844 0.04221 0.0
H10299 H 0.13797 0.7255 0.05011 0.0
H10300 H 0.15217 0.74372 0.06791 0.0
H10301 H 0.14584 0.75664 0.05992 0.0
H10302 H 0.1628 0.72986 0.06305 0.0
H10303 H 0.13242 0.73378 0.07422 0.0
H10304 H 0.11584 0.73498 0.07294 0.0
H10305 H 0.11457 0.70833 0.06148 0.0
H10306 H 0.13116 0.70702 0.06258 0.0
H10307 H 0.16969 0.70478 0.10294 0.0
H10308 H 0.16518 0.7155 0.09128 0.0
H10309 H 0.15376 0.69365 0.07569 0.0
H10310 H 0.15818 0.68289 0.08739 0.0
H10311 H 0.14206 0.70794 0.07769 0.0
H10312 H 0.17257 0.70348 0.06845 0.0
H10313 H 0.1891 0.70244 0.0703 0.0
H10314 H 0.19015 0.73025 0.07861 0.0
H10315 H 0.17361 0.73142 0.07694 0.0
C10316 C 0.13602 0.73968 0.04773 0.0
C10317 C 0.13803 0.74856 0.0505 0.0
C10318 C 0.13972 0.73229 0.05227 0.0
C10319 C 0.14547 0.73365 0.05967 0.0
C10320 C 0.14772 0.74251 0.06224 0.0
C10321 C 0.14403 0.74988 0.05772 0.0
C10322 C 0.1489 0.72592 0.065 0.0
C10323 C 0.15827 0.72509 0.06628 0.0
C10324 C 0.143 0.71957 0.06905 0.0
C10325 C 0.13303 0.72035 0.06837 0.0
C10326 C 0.12861 0.7282 0.07135 0.0
C10327 C 0.11921 0.7289 0.07067 0.0
C10328 C 0.11416 0.72174 0.0671 0.0
C10329 C 0.11849 0.71387 0.06422 0.0
C10330 C 0.12789 0.71315 0.06487 0.0
C10331 C 0.16627 0.70226 0.097 0.0
C10332 C 0.16428 0.69301 0.09607 0.0
C10333 C 0.16376 0.70838 0.09031 0.0
C10334 C 0.15919 0.70536 0.08259 0.0
C10335 C 0.15731 0.69611 0.08158 0.0
C10336 C 0.15989 0.68997 0.08824 0.0
C10337 C 0.15594 0.71197 0.07586 0.0
C10338 C 0.14661 0.71261 0.07433 0.0
C10339 C 0.16187 0.71817 0.07164 0.0
C10340 C 0.17183 0.71751 0.07263 0.0
C10341 C 0.17631 0.70935 0.07074 0.0
C10342 C 0.18569 0.70875 0.07174 0.0
C10343 C 0.19067 0.71627 0.07459 0.0
C10344 C 0.18629 0.72443 0.07642 0.0
C10345 C 0.17691 0.72507 0.07543 0.0
H10346 H 0.19793 0.71579 0.07536 0.0
H10347 H 0.10688 0.72229 0.06658 0.0
H10348 H 0.05516 0.39969 0.77845 0.0
H10349 H 0.07076 0.40012 0.78402 0.0
H10350 H 0.06284 0.38414 0.80697 0.0
H10351 H 0.0473 0.38374 0.80148 0.0
H10352 H 0.07284 0.39818 0.81208 0.0
H10353 H 0.07463 0.3751 0.78903 0.0
H10354 H 0.07309 0.3691 0.77362 0.0
H10355 H 0.09172 0.38919 0.76397 0.0
H10356 H 0.09327 0.39538 0.77931 0.0
H10357 H 0.1125 0.38017 0.82985 0.0
H10358 H 0.09812 0.3823 0.82218 0.0
H10359 H 0.11116 0.3993 0.80252 0.0
H10360 H 0.12574 0.39701 0.81008 0.0
H10361 H 0.09925 0.38702 0.79481 0.0
H10362 H 0.09865 0.40899 0.81831 0.0
H10363 H 0.10029 0.41469 0.83382 0.0
H10364 H 0.0794 0.39655 0.84268 0.0
H10365 H 0.07772 0.39065 0.82724 0.0
C10366 C 0.05678 0.3962 0.78464 0.0
C10367 C 0.05 0.39172 0.78956 0.0
C10368 C 0.06569 0.39646 0.78782 0.0
C10369 C 0.06797 0.39214 0.79591 0.0
C10370 C 0.06122 0.38758 0.80075 0.0
C10371 C 0.05234 0.38736 0.79761 0.0
C10372 C 0.07732 0.39247 0.79952 0.0
C10373 C 0.0786 0.39568 0.80832 0.0
C10374 C 0.08489 0.3895 0.79451 0.0
C10375 C 0.08398 0.38577 0.78529 0.0
C10376 C 0.07833 0.37828 0.78361 0.0
C10377 C 0.07747 0.37484 0.77489 0.0
C10378 C 0.08228 0.37878 0.76782 0.0
C10379 C 0.08798 0.38616 0.76945 0.0
C10380 C 0.08886 0.38963 0.77816 0.0
C10381 C 0.11235 0.38429 0.82384 0.0
C10382 C 0.12027 0.3884 0.82055 0.0
C10383 C 0.1041 0.38557 0.81951 0.0
C10384 C 0.10355 0.39104 0.81184 0.0
C10385 C 0.11145 0.39508 0.80845 0.0
C10386 C 0.11974 0.39382 0.81281 0.0
C10387 C 0.09468 0.39246 0.80744 0.0
C10388 C 0.0935 0.38963 0.79851 0.0
C10389 C 0.08717 0.39576 0.81233 0.0
C10390 C 0.0881 0.39934 0.82162 0.0
C10391 C 0.09445 0.40618 0.82357 0.0
C10392 C 0.09538 0.40945 0.83235 0.0
C10393 C 0.08996 0.40598 0.83923 0.0
C10394 C 0.08359 0.39924 0.83734 0.0
C10395 C 0.08264 0.39593 0.82858 0.0
H10396 H 0.09069 0.40852 0.84602 0.0
H10397 H 0.08161 0.3761 0.76107 0.0
H10398 H 0.38698 0.28155 0.53843 0.0
H10399 H 0.3823 0.29311 0.54927 0.0
H10400 H 0.35716 0.2789 0.55351 0.0
H10401 H 0.36177 0.26734 0.54262 0.0
H10402 H 0.35514 0.29783 0.55198 0.0
H10403 H 0.37305 0.27627 0.56832 0.0
H10404 H 0.38655 0.26698 0.57123 0.0
H10405 H 0.40286 0.29098 0.57319 0.0
H10406 H 0.38948 0.30041 0.57016 0.0
H10407 H 0.34228 0.31926 0.59305 0.0
H10408 H 0.34588 0.30861 0.58094 0.0
H10409 H 0.37293 0.31956 0.57949 0.0
H10410 H 0.36941 0.33001 0.59174 0.0
H10411 H 0.37378 0.30214 0.5794 0.0
H10412 H 0.3562 0.32386 0.56318 0.0
H10413 H 0.34292 0.33338 0.56001 0.0
H10414 H 0.32629 0.30965 0.55746 0.0
H10415 H 0.33945 0.29999 0.56074 0.0
C10416 C 0.38041 0.28096 0.54158 0.0
C10417 C 0.37475 0.27353 0.53971 0.0
C10418 C 0.37777 0.28753 0.54781 0.0
C10419 C 0.36942 0.2868 0.55224 0.0
C10420 C 0.36363 0.27956 0.55017 0.0
C10421 C 0.3663 0.27294 0.544 0.0
C10422 C 0.36688 0.29343 0.55928 0.0
C10423 C 0.35914 0.29873 0.55803 0.0
C10424 C 0.37223 0.29469 0.56706 0.0
C10425 C 0.38028 0.28904 0.56892 0.0
C10426 C 0.37953 0.27956 0.56929 0.0
C10427 C 0.38716 0.27427 0.57098 0.0
C10428 C 0.39556 0.27839 0.57237 0.0
C10429 C 0.39635 0.2878 0.5721 0.0
C10430 C 0.38874 0.29312 0.57041 0.0
C10431 C 0.34895 0.31944 0.59006 0.0
C10432 C 0.35558 0.32543 0.59334 0.0
C10433 C 0.35101 0.31337 0.58313 0.0
C10434 C 0.35966 0.31333 0.57923 0.0
C10435 C 0.36622 0.31943 0.58241 0.0
C10436 C 0.36421 0.3254 0.5894 0.0
C10437 C 0.36205 0.30668 0.57211 0.0
C10438 C 0.36976 0.30132 0.57334 0.0
C10439 C 0.35671 0.30542 0.56429 0.0
C10440 C 0.34879 0.31121 0.5623 0.0
C10441 C 0.34969 0.32068 0.56201 0.0
C10442 C 0.34219 0.3261 0.56018 0.0
C10443 C 0.33377 0.32213 0.55856 0.0
C10444 C 0.33282 0.31272 0.55874 0.0
C10445 C 0.3403 0.30727 0.56057 0.0
H10446 H 0.32797 0.32633 0.55714 0.0
H10447 H 0.40146 0.27428 0.57367 0.0
H10448 H 0.22597 0.46215 0.40299 0.0
H10449 H 0.22336 0.44576 0.40233 0.0
H10450 H 0.19547 0.4504 0.39524 0.0
H10451 H 0.19802 0.46667 0.39589 0.0
H10452 H 0.19665 0.43792 0.40799 0.0
H10453 H 0.21147 0.444 0.3796 0.0
H10454 H 0.22388 0.4495 0.36996 0.0
H10455 H 0.2422 0.43098 0.38258 0.0
H10456 H 0.22991 0.42545 0.39238 0.0
H10457 H 0.18042 0.39871 0.38727 0.0
H10458 H 0.18634 0.41386 0.39015 0.0
H10459 H 0.2114 0.40246 0.39957 0.0
H10460 H 0.20549 0.38717 0.39662 0.0
H10461 H 0.21357 0.41745 0.38763 0.0
H10462 H 0.19795 0.41011 0.41472 0.0
H10463 H 0.18525 0.40451 0.42389 0.0
H10464 H 0.16819 0.42543 0.41344 0.0
H10465 H 0.18076 0.43108 0.40409 0.0
C10466 C 0.2193 0.45965 0.40123 0.0
C10467 C 0.21218 0.4657 0.39955 0.0
C10468 C 0.21782 0.45029 0.40087 0.0
C10469 C 0.20922 0.44685 0.39872 0.0
C10470 C 0.20214 0.45289 0.39698 0.0
C10471 C 0.20361 0.4622 0.39738 0.0
C10472 C 0.20744 0.43697 0.39831 0.0
C10473 C 0.20033 0.43346 0.40351 0.0
C10474 C 0.21243 0.43108 0.39269 0.0
C10475 C 0.21981 0.43439 0.3868 0.0
C10476 C 0.21816 0.44116 0.38037 0.0
C10477 C 0.22517 0.44427 0.37487 0.0
C10478 C 0.23383 0.44061 0.37568 0.0
C10479 C 0.23549 0.43382 0.38197 0.0
C10480 C 0.22851 0.43069 0.3875 0.0
C10481 C 0.18722 0.39942 0.38987 0.0
C10482 C 0.19251 0.39176 0.3917 0.0
C10483 C 0.19057 0.40807 0.39158 0.0
C10484 C 0.19927 0.40927 0.39514 0.0
C10485 C 0.20465 0.40166 0.39684 0.0
C10486 C 0.20126 0.39295 0.39521 0.0
C10487 C 0.20261 0.41852 0.39709 0.0
C10488 C 0.21 0.42189 0.39223 0.0
C10489 C 0.19786 0.42432 0.40299 0.0
C10490 C 0.19029 0.42098 0.40865 0.0
C10491 C 0.19148 0.41348 0.41432 0.0
C10492 C 0.1843 0.4103 0.41956 0.0
C10493 C 0.17591 0.4146 0.41924 0.0
C10494 C 0.17469 0.42211 0.41368 0.0
C10495 C 0.18184 0.42531 0.40842 0.0
H10496 H 0.17037 0.41213 0.4233 0.0
H10497 H 0.23924 0.44303 0.37141 0.0
H10498 H 0.7022 0.04641 0.62952 0.0
H10499 H 0.69957 0.06268 0.62986 0.0
H10500 H 0.72277 0.06695 0.61281 0.0
H10501 H 0.72546 0.05057 0.61244 0.0
H10502 H 0.72159 0.07975 0.62638 0.0
H10503 H 0.70242 0.06764 0.60357 0.0
H10504 H 0.69128 0.05711 0.59699 0.0
H10505 H 0.67154 0.06549 0.61642 0.0
H10506 H 0.68261 0.07598 0.62321 0.0
H10507 H 0.70569 0.12537 0.6186 0.0
H10508 H 0.7112 0.10991 0.6161 0.0
H10509 H 0.68964 0.0995 0.63268 0.0
H10510 H 0.68403 0.1148 0.63504 0.0
H10511 H 0.69119 0.09023 0.61701 0.0
H10512 H 0.711 0.10118 0.64065 0.0
H10513 H 0.72225 0.11158 0.64728 0.0
H10514 H 0.74083 0.10545 0.62597 0.0
H10515 H 0.72964 0.0951 0.61915 0.0
C10516 C 0.70674 0.0508 0.62583 0.0
C10517 C 0.71395 0.0472 0.62085 0.0
C10518 C 0.70524 0.0601 0.62604 0.0
C10519 C 0.71087 0.066 0.62122 0.0
C10520 C 0.71833 0.0625 0.61655 0.0
C10521 C 0.71986 0.05315 0.61635 0.0
C10522 C 0.7087 0.07578 0.62089 0.0
C10523 C 0.71501 0.08208 0.62418 0.0
C10524 C 0.70009 0.0788 0.61806 0.0
C10525 C 0.69337 0.07256 0.61394 0.0
C10526 C 0.69572 0.0672 0.60648 0.0
C10527 C 0.68942 0.06124 0.60271 0.0
C10528 C 0.68071 0.06062 0.60629 0.0
C10529 C 0.67828 0.06598 0.61365 0.0
C10530 C 0.68457 0.07194 0.61746 0.0
C10531 C 0.70213 0.11977 0.62168 0.0
C10532 C 0.69447 0.12131 0.62706 0.0
C10533 C 0.70531 0.11096 0.6203 0.0
C10534 C 0.70085 0.10357 0.62426 0.0
C10535 C 0.69319 0.10511 0.62958 0.0
C10536 C 0.69004 0.11387 0.63099 0.0
C10537 C 0.70396 0.09416 0.62279 0.0
C10538 C 0.69782 0.08793 0.61911 0.0
C10539 C 0.71273 0.09124 0.62523 0.0
C10540 C 0.71945 0.09745 0.62933 0.0
C10541 C 0.71746 0.10211 0.63734 0.0
C10542 C 0.72383 0.10799 0.64114 0.0
C10543 C 0.73224 0.1092 0.63704 0.0
C10544 C 0.73431 0.10452 0.62913 0.0
C10545 C 0.72796 0.09865 0.6253 0.0
H10546 H 0.73716 0.11375 0.63999 0.0
H10547 H 0.67584 0.056 0.60336 0.0
H10548 H 0.75191 0.9641 0.36957 0.0
H10549 H 0.74044 0.95324 0.36475 0.0
H10550 H 0.71945 0.97123 0.37389 0.0
H10551 H 0.73092 0.98202 0.37905 0.0
H10552 H 0.71616 0.95436 0.37924 0.0
H10553 H 0.72389 0.96848 0.35142 0.0
H10554 H 0.73401 0.97404 0.33946 0.0
H10555 H 0.74334 0.947 0.33463 0.0
H10556 H 0.73336 0.94129 0.34665 0.0
H10557 H 0.68055 0.9294 0.35863 0.0
H10558 H 0.69122 0.94163 0.36204 0.0
H10559 H 0.71351 0.92405 0.35557 0.0
H10560 H 0.70286 0.91182 0.35205 0.0
H10561 H 0.71554 0.94132 0.34848 0.0
H10562 H 0.70838 0.92744 0.37685 0.0
H10563 H 0.69823 0.9219 0.38879 0.0
H10564 H 0.68776 0.9487 0.39248 0.0
H10565 H 0.69776 0.95438 0.38046 0.0
C10566 C 0.74485 0.96574 0.37061 0.0
C10567 C 0.74234 0.97393 0.37473 0.0
C10568 C 0.73829 0.95956 0.36775 0.0
C10569 C 0.72907 0.96146 0.36886 0.0
C10570 C 0.72652 0.96964 0.37293 0.0
C10571 C 0.73309 0.97583 0.37581 0.0
C10572 C 0.72212 0.95477 0.36603 0.0
C10573 C 0.71593 0.95163 0.37247 0.0
C10574 C 0.72194 0.95106 0.35725 0.0
C10575 C 0.72793 0.95447 0.34999 0.0
C10576 C 0.72815 0.96373 0.34785 0.0
C10577 C 0.73385 0.9669 0.34106 0.0
C10578 C 0.73933 0.96088 0.3363 0.0
C10579 C 0.7391 0.95166 0.33833 0.0
C10580 C 0.73341 0.94845 0.34512 0.0
C10581 C 0.68772 0.92818 0.35783 0.0
C10582 C 0.69088 0.91965 0.3551 0.0
C10583 C 0.6938 0.93515 0.35984 0.0
C10584 C 0.70315 0.93371 0.35913 0.0
C10585 C 0.70632 0.92528 0.35618 0.0
C10586 C 0.70024 0.91829 0.35423 0.0
C10587 C 0.70965 0.94092 0.3617 0.0
C10588 C 0.71575 0.94412 0.35522 0.0
C10589 C 0.70974 0.94471 0.37044 0.0
C10590 C 0.70374 0.94132 0.37768 0.0
C10591 C 0.70385 0.93214 0.38015 0.0
C10592 C 0.69814 0.92898 0.38694 0.0
C10593 C 0.69233 0.93494 0.39137 0.0
C10594 C 0.69225 0.94409 0.38903 0.0
C10595 C 0.69794 0.94728 0.38223 0.0
H10596 H 0.68792 0.93248 0.39663 0.0
H10597 H 0.74374 0.96336 0.33104 0.0
H10598 H 0.79189 0.96579 0.10891 0.0
H10599 H 0.79754 0.95027 0.10918 0.0
H10600 H 0.7907 0.94826 0.1373 0.0
H10601 H 0.78526 0.96385 0.13714 0.0
H10602 H 0.8076 0.94255 0.13416 0.0
H10603 H 0.77834 0.93713 0.12142 0.0
H10604 H 0.76579 0.93926 0.11073 0.0
H10605 H 0.78302 0.93134 0.08889 0.0
H10606 H 0.79572 0.92928 0.09943 0.0
H10607 H 0.81564 0.89583 0.13905 0.0
H10608 H 0.80774 0.91028 0.1382 0.0
H10609 H 0.81555 0.91296 0.1104 0.0
H10610 H 0.82359 0.89855 0.11122 0.0
H10611 H 0.79784 0.91813 0.11335 0.0
H10612 H 0.82715 0.92408 0.12591 0.0
H10613 H 0.8398 0.922 0.13649 0.0
H10614 H 0.82251 0.92908 0.15858 0.0
H10615 H 0.80971 0.93107 0.14813 0.0
C10616 C 0.79157 0.96204 0.11515 0.0
C10617 C 0.78814 0.96606 0.12301 0.0
C10618 C 0.79472 0.95314 0.11527 0.0
C10619 C 0.79448 0.94808 0.12324 0.0
C10620 C 0.79092 0.95203 0.13106 0.0
C10621 C 0.78775 0.96092 0.13094 0.0
C10622 C 0.79838 0.93885 0.12356 0.0
C10623 C 0.80535 0.93717 0.12971 0.0
C10624 C 0.79563 0.93191 0.11757 0.0
C10625 C 0.788 0.93314 0.11121 0.0
C10626 C 0.77948 0.93592 0.11433 0.0
C10627 C 0.77233 0.9371 0.1083 0.0
C10628 C 0.77361 0.93546 0.09913 0.0
C10629 C 0.78204 0.93262 0.09599 0.0
C10630 C 0.78921 0.93144 0.10199 0.0
C10631 C 0.8157 0.89949 0.13275 0.0
C10632 C 0.82033 0.89607 0.12522 0.0
C10633 C 0.81115 0.90773 0.13227 0.0
C10634 C 0.81116 0.91274 0.12427 0.0
C10635 C 0.81546 0.90919 0.11664 0.0
C10636 C 0.82003 0.90094 0.11711 0.0
C10637 C 0.807 0.92184 0.12399 0.0
C10638 C 0.80003 0.92351 0.11783 0.0
C10639 C 0.80976 0.9288 0.12995 0.0
C10640 C 0.81745 0.92763 0.13625 0.0
C10641 C 0.82602 0.92512 0.13303 0.0
C10642 C 0.83322 0.92397 0.139 0.0
C10643 C 0.83195 0.92538 0.14821 0.0
C10644 C 0.82348 0.92797 0.15145 0.0
C10645 C 0.81625 0.92912 0.14551 0.0
H10646 H 0.83753 0.92448 0.15282 0.0
H10647 H 0.76807 0.93638 0.09447 0.0
H10648 H 0.26797 0.53854 0.3635 0.0
H10649 H 0.27972 0.54955 0.35956 0.0
H10650 H 0.29085 0.54749 0.38628 0.0
H10651 H 0.27907 0.53651 0.39028 0.0
H10652 H 0.28828 0.56525 0.38067 0.0
H10653 H 0.30172 0.53791 0.36941 0.0
H10654 H 0.30217 0.52382 0.36052 0.0
H10655 H 0.29831 0.53898 0.33624 0.0
H10656 H 0.29771 0.55315 0.345 0.0
H10657 H 0.32834 0.5902 0.37392 0.0
H10658 H 0.3176 0.5781 0.37734 0.0
H10659 H 0.30876 0.5779 0.3497 0.0
H10660 H 0.31964 0.58992 0.34621 0.0
H10661 H 0.3101 0.56116 0.35567 0.0
H10662 H 0.29629 0.5883 0.36637 0.0
H10663 H 0.2953 0.60261 0.37486 0.0
H10664 H 0.29903 0.58823 0.39962 0.0
H10665 H 0.30017 0.57385 0.39127 0.0
C10666 C 0.27294 0.54042 0.36852 0.0
C10667 C 0.27261 0.53667 0.3772 0.0
C10668 C 0.27967 0.54666 0.36625 0.0
C10669 C 0.28617 0.54929 0.37262 0.0
C10670 C 0.2859 0.54552 0.38127 0.0
C10671 C 0.27922 0.53922 0.38352 0.0
C10672 C 0.29306 0.55622 0.37036 0.0
C10673 C 0.29315 0.56432 0.37529 0.0
C10674 C 0.29919 0.55509 0.36316 0.0
C10675 C 0.29958 0.54658 0.35787 0.0
C10676 C 0.30089 0.53823 0.36218 0.0
C10677 C 0.30119 0.53023 0.35716 0.0
C10678 C 0.30025 0.53051 0.34782 0.0
C10679 C 0.29903 0.53878 0.34348 0.0
C10680 C 0.29872 0.5468 0.34847 0.0
C10681 C 0.32409 0.58759 0.36858 0.0
C10682 C 0.32477 0.59105 0.35981 0.0
C10683 C 0.31795 0.58068 0.37054 0.0
C10684 C 0.31225 0.5772 0.36381 0.0
C10685 C 0.31307 0.58049 0.355 0.0
C10686 C 0.31929 0.58735 0.35301 0.0
C10687 C 0.30537 0.5702 0.36601 0.0
C10688 C 0.30525 0.56211 0.36106 0.0
C10689 C 0.29912 0.57137 0.37314 0.0
C10690 C 0.2984 0.58001 0.37819 0.0
C10691 C 0.29697 0.5882 0.37362 0.0
C10692 C 0.29637 0.59632 0.37841 0.0
C10693 C 0.29712 0.59633 0.38777 0.0
C10694 C 0.29846 0.58822 0.39237 0.0
C10695 C 0.29907 0.58007 0.38761 0.0
H10696 H 0.29666 0.60263 0.39146 0.0
H10697 H 0.30048 0.52431 0.34395 0.0
H10698 H 0.28283 0.55384 0.88001 0.0
H10699 H 0.28815 0.56951 0.87985 0.0
H10700 H 0.30211 0.5652 0.90493 0.0
H10701 H 0.29658 0.5496 0.90528 0.0
H10702 H 0.29394 0.58162 0.90459 0.0
H10703 H 0.31347 0.56433 0.88528 0.0
H10704 H 0.31704 0.554 0.87275 0.0
H10705 H 0.30504 0.57251 0.85406 0.0
H10706 H 0.30129 0.5829 0.86651 0.0
H10707 H 0.32637 0.61728 0.90252 0.0
H10708 H 0.31817 0.60294 0.90362 0.0
H10709 H 0.30554 0.60805 0.87799 0.0
H10710 H 0.31374 0.62239 0.87685 0.0
H10711 H 0.31231 0.5915 0.87847 0.0
H10712 H 0.29354 0.60928 0.89782 0.0
H10713 H 0.29015 0.61958 0.91042 0.0
H10714 H 0.30083 0.60027 0.9291 0.0
H10715 H 0.3044 0.5899 0.9166 0.0
C10716 C 0.2869 0.55627 0.88557 0.0
C10717 C 0.28934 0.55045 0.89263 0.0
C10718 C 0.29 0.56521 0.88543 0.0
C10719 C 0.29563 0.56848 0.89231 0.0
C10720 C 0.29781 0.5628 0.89953 0.0
C10721 C 0.29471 0.55386 0.89968 0.0
C10722 C 0.29955 0.57771 0.89182 0.0
C10723 C 0.29802 0.58377 0.89893 0.0
C10724 C 0.30473 0.58056 0.88433 0.0
C10725 C 0.30701 0.57435 0.87684 0.0
C10726 C 0.31153 0.56617 0.87851 0.0
C10727 C 0.3136 0.56031 0.87142 0.0
C10728 C 0.31124 0.56259 0.86262 0.0
C10729 C 0.30684 0.57075 0.86088 0.0
C10730 C 0.30475 0.57662 0.86795 0.0
C10731 C 0.32172 0.61543 0.8972 0.0
C10732 C 0.32072 0.62096 0.88959 0.0
C10733 C 0.31704 0.60723 0.89783 0.0
C10734 C 0.31119 0.60444 0.89091 0.0
C10735 C 0.31003 0.61005 0.8834 0.0
C10736 C 0.31474 0.61823 0.88274 0.0
C10737 C 0.3067 0.59546 0.89125 0.0
C10738 C 0.30815 0.58941 0.88412 0.0
C10739 C 0.30147 0.59263 0.89872 0.0
C10740 C 0.29931 0.59884 0.90626 0.0
C10741 C 0.29523 0.60726 0.90461 0.0
C10742 C 0.29327 0.61311 0.91173 0.0
C10743 C 0.29529 0.61059 0.92055 0.0
C10744 C 0.29927 0.60222 0.92227 0.0
C10745 C 0.30126 0.59634 0.91516 0.0
H10746 H 0.29376 0.61513 0.92606 0.0
H10747 H 0.31285 0.55804 0.85714 0.0
H10748 H 0.74136 0.04309 0.13476 0.0
H10749 H 0.72836 0.05122 0.14094 0.0
H10750 H 0.74639 0.07023 0.15383 0.0
H10751 H 0.75938 0.06198 0.14796 0.0
H10752 H 0.73266 0.06597 0.16474 0.0
H10753 H 0.73615 0.07517 0.13386 0.0
H10754 H 0.73732 0.07282 0.11748 0.0
H10755 H 0.71095 0.06059 0.11716 0.0
H10756 H 0.70967 0.06276 0.13357 0.0
H10757 H 0.70583 0.10542 0.16935 0.0
H10758 H 0.71712 0.09399 0.16549 0.0
H10759 H 0.69605 0.07653 0.15529 0.0
H10760 H 0.68473 0.08798 0.15907 0.0
H10761 H 0.71019 0.07854 0.14343 0.0
H10762 H 0.70622 0.07105 0.17437 0.0
H10763 H 0.7052 0.07396 0.19066 0.0
H10764 H 0.73264 0.08352 0.19086 0.0
H10765 H 0.73378 0.08079 0.17453 0.0
C10766 C 0.74255 0.04892 0.13903 0.0
C10767 C 0.7514 0.05194 0.1408 0.0
C10768 C 0.73512 0.0536 0.14249 0.0
C10769 C 0.7364 0.06141 0.14774 0.0
C10770 C 0.74523 0.06425 0.14977 0.0
C10771 C 0.75265 0.05957 0.14633 0.0
C10772 C 0.7286 0.06686 0.15087 0.0
C10773 C 0.72778 0.06877 0.16008 0.0
C10774 C 0.72211 0.07034 0.14481 0.0
C10775 C 0.72286 0.06903 0.13495 0.0
C10776 C 0.73063 0.07191 0.13031 0.0
C10777 C 0.73131 0.07062 0.12102 0.0
C10778 C 0.72422 0.06653 0.11629 0.0
C10779 C 0.71644 0.06374 0.12084 0.0
C10780 C 0.71573 0.065 0.13013 0.0
C10781 C 0.70361 0.09912 0.16634 0.0
C10782 C 0.69441 0.09759 0.16451 0.0
C10783 C 0.71005 0.09257 0.16419 0.0
C10784 C 0.70741 0.08439 0.16016 0.0
C10785 C 0.69821 0.08279 0.15843 0.0
C10786 C 0.69176 0.08931 0.16064 0.0
C10787 C 0.71433 0.07775 0.15729 0.0
C10788 C 0.71499 0.07564 0.14812 0.0
C10789 C 0.72071 0.07415 0.16338 0.0
C10790 C 0.72006 0.07578 0.17321 0.0
C10791 C 0.71201 0.07384 0.17787 0.0
C10792 C 0.71142 0.07544 0.18712 0.0
C10793 C 0.71885 0.07894 0.19179 0.0
C10794 C 0.72689 0.08082 0.18723 0.0
C10795 C 0.72752 0.07924 0.17798 0.0
H10796 H 0.71838 0.08017 0.19895 0.0
H10797 H 0.72476 0.06555 0.1091 0.0
H10798 H 0.78438 0.98347 0.63674 0.0
H10799 H 0.79602 0.973 0.64197 0.0
H10800 H 0.77534 0.95506 0.65206 0.0
H10801 H 0.7637 0.96561 0.64713 0.0
H10802 H 0.78896 0.95645 0.66379 0.0
H10803 H 0.78587 0.95089 0.63212 0.0
H10804 H 0.78557 0.95487 0.61603 0.0
H10805 H 0.81309 0.96408 0.61763 0.0
H10806 H 0.81351 0.96026 0.63377 0.0
H10807 H 0.81281 0.91486 0.66582 0.0
H10808 H 0.8024 0.9272 0.66236 0.0
H10809 H 0.82491 0.94407 0.65458 0.0
H10810 H 0.83536 0.9317 0.65794 0.0
H10811 H 0.81115 0.94402 0.64207 0.0
H10812 H 0.81434 0.94834 0.67381 0.0
H10813 H 0.81437 0.94379 0.68974 0.0
H10814 H 0.78636 0.93631 0.68787 0.0
H10815 H 0.78619 0.9407 0.67188 0.0
C10816 C 0.78232 0.97735 0.64017 0.0
C10817 C 0.77311 0.97535 0.64146 0.0
C10818 C 0.78898 0.97133 0.64309 0.0
C10819 C 0.78655 0.96319 0.64731 0.0
C10820 C 0.77737 0.96128 0.64879 0.0
C10821 C 0.77072 0.96729 0.64589 0.0
C10822 C 0.79353 0.95656 0.65005 0.0
C10823 C 0.79376 0.95367 0.65903 0.0
C10824 C 0.79992 0.95308 0.64387 0.0
C10825 C 0.79968 0.95539 0.63417 0.0
C10826 C 0.79183 0.95384 0.62906 0.0
C10827 C 0.79164 0.95605 0.61993 0.0
C10828 C 0.7993 0.95976 0.61582 0.0
C10829 C 0.80716 0.96123 0.62083 0.0
C10830 C 0.80738 0.95904 0.62997 0.0
C10831 C 0.81554 0.92121 0.6634 0.0
C10832 C 0.82489 0.92232 0.66215 0.0
C10833 C 0.8096 0.92827 0.66148 0.0
C10834 C 0.8129 0.93656 0.65827 0.0
C10835 C 0.82224 0.93772 0.65708 0.0
C10836 C 0.8282 0.93068 0.65906 0.0
C10837 C 0.80654 0.94388 0.6558 0.0
C10838 C 0.80641 0.94687 0.64685 0.0
C10839 C 0.8002 0.9474 0.66199 0.0
C10840 C 0.80027 0.94478 0.67162 0.0
C10841 C 0.8082 0.94566 0.67677 0.0
C10842 C 0.80824 0.94312 0.68582 0.0
C10843 C 0.80038 0.93974 0.68981 0.0
C10844 C 0.79245 0.93892 0.68476 0.0
C10845 C 0.79237 0.94144 0.67571 0.0
H10846 H 0.80042 0.93779 0.69682 0.0
H10847 H 0.79914 0.96146 0.60875 0.0
loop_
_geom_bond_atom_site_label_1
_geom_bond_atom_site_label_2
_geom_bond_distance
_geom_bond_site_symmetry_2
_ccdc_geom_bond_type
C0 C1 1.264 . S
C0 C5 1.479 1_455 S
C0 C10 1.465 . S
C1 C0 1.264 . S
C1 C3 1.339 1_455 S
C1 H28 0.931 . S
C2 C3 1.395 . S
C2 C4 1.320 . S
C3 C1 1.339 1_655 S
C3 C2 1.395 . S
C3 H29 0.929 . S
C4 C2 1.320 . S
C4 C5 1.405 . S
C4 H30 0.930 . S
C5 C0 1.479 1_655 S
C5 C4 1.405 . S
C5 H31 0.931 . S
U6 O7 2.454 . S
U6 O8 2.458 . S
U6 C9 2.984 . S
U6 C10 2.847 . S
U6 C23 2.882 . S
U6 O24 2.441 . S
U6 O25 2.420 . S
U6 O26 2.455 . S
U6 O27 2.449 . S
O7 U6 2.454 . S
O7 C9 1.353 . S
O8 U6 2.458 . S
O8 C9 1.286 . S
C9 U6 2.984 . S
C9 O7 1.353 . S
C9 O8 1.286 . S
C9 C11 1.363 . S
C10 C0 1.465 . S
C10 U6 2.847 . S
C10 O24 1.249 . S
C10 O25 1.202 . S
C11 C9 1.363 . S
C11 C13 1.408 . S
C11 C16 1.342 . S
C12 C13 1.310 . S
C12 C15 1.461 . S
C12 H32 0.932 . S
C13 C11 1.408 . S
C13 C12 1.310 . S
C13 H33 0.930 . S
C14 C15 1.474 . S
C14 C16 1.285 . S
C14 H34 0.929 . S
C15 C12 1.461 . S
C15 C14 1.474 . S
C16 C11 1.342 . S
C16 C14 1.285 . S
C16 H35 0.930 . S
C17 C20 1.424 . S
C17 C22 1.245 . S
C17 C23 1.428 . S
C18 C21 1.260 . S
C18 C22 1.477 . S
C18 H36 0.932 . S
C19 C20 1.384 . S
C19 C21 1.479 . S
C19 H37 0.929 . S
C20 C17 1.424 . S
C20 C19 1.384 . S
C20 H38 0.928 . S
C21 C18 1.260 . S
C21 C19 1.479 . S
C22 C17 1.245 . S
C22 C18 1.477 . S
C22 H39 0.932 . S
C23 U6 2.882 . S
C23 C17 1.428 . S
C23 O26 1.301 . S
C23 O27 1.282 . S
O24 U6 2.441 . S
O24 C10 1.249 . S
O25 U6 2.420 . S
O25 C10 1.202 . S
O26 U6 2.455 . S
O26 C23 1.301 . S
O27 U6 2.449 . S
O27 C23 1.282 . S
H28 C1 0.931 . S
H29 C3 0.929 . S
H30 C4 0.930 . S
H31 C5 0.931 . S
H32 C12 0.932 . S
H33 C13 0.930 . S
H34 C14 0.929 . S
H35 C16 0.930 . S
H36 C18 0.932 . S
H37 C19 0.929 . S
H38 C20 0.928 . S
H39 C22 0.932 . S
C40 C41 1.264 . S
C40 C45 1.479 . S
C40 C50 1.465 . S
C41 C40 1.264 . S
C41 C43 1.339 . S
C41 H68 0.931 . S
C42 C43 1.395 . S
C42 C44 1.320 . S
C43 C41 1.339 . S
C43 C42 1.395 . S
C43 H69 0.929 . S
C44 C42 1.320 . S
C44 C45 1.405 . S
C44 H70 0.930 . S
C45 C40 1.479 . S
C45 C44 1.405 . S
C45 H71 0.931 . S
U46 O47 2.454 . S
U46 O48 2.458 . S
U46 C49 2.984 . S
U46 C50 2.847 . S
U46 C63 2.882 . S
U46 O64 2.441 . S
U46 O65 2.420 . S
U46 O66 2.455 . S
U46 O67 2.449 . S
O47 U46 2.454 . S
O47 C49 1.353 . S
O48 U46 2.458 . S
O48 C49 1.286 . S
C49 U46 2.984 . S
C49 O47 1.353 . S
C49 O48 1.286 . S
C49 C51 1.363 . S
C50 C40 1.465 . S
C50 U46 2.847 . S
C50 O64 1.249 . S
C50 O65 1.202 . S
C51 C49 1.363 . S
C51 C53 1.408 . S
C51 C56 1.342 . S
C52 C53 1.310 . S
C52 C55 1.461 . S
C52 H72 0.932 . S
C53 C51 1.408 . S
C53 C52 1.310 . S
C53 H73 0.930 . S
C54 C55 1.474 . S
C54 C56 1.285 . S
C54 H74 0.929 . S
C55 C52 1.461 . S
C55 C54 1.474 . S
C56 C51 1.342 . S
C56 C54 1.285 . S
C56 H75 0.930 . S
C57 C60 1.424 . S
C57 C62 1.245 . S
C57 C63 1.428 . S
C58 C61 1.260 . S
C58 C62 1.477 . S
C58 H76 0.932 . S
C59 C60 1.384 . S
C59 C61 1.479 . S
C59 H77 0.929 . S
C60 C57 1.424 . S
C60 C59 1.384 . S
C60 H78 0.928 . S
C61 C58 1.260 . S
C61 C59 1.479 . S
C62 C57 1.245 . S
C62 C58 1.477 . S
C62 H79 0.932 . S
C63 U46 2.882 . S
C63 C57 1.428 . S
C63 O66 1.301 . S
C63 O67 1.282 . S
O64 U46 2.441 . S
O64 C50 1.249 . S
O65 U46 2.420 . S
O65 C50 1.202 . S
O66 U46 2.455 . S
O66 C63 1.301 . S
O67 U46 2.449 . S
O67 C63 1.282 . S
H68 C41 0.931 . S
H69 C43 0.929 . S
H70 C44 0.930 . S
H71 C45 0.931 . S
H72 C52 0.932 . S
H73 C53 0.930 . S
H74 C54 0.929 . S
H75 C56 0.930 . S
H76 C58 0.932 . S
H77 C59 0.929 . S
H78 C60 0.928 . S
H79 C62 0.932 . S
C80 C81 1.264 . S
C80 C85 1.479 . S
C80 C90 1.465 . S
C81 C80 1.264 . S
C81 C83 1.339 . S
C81 H108 0.931 . S
C82 C83 1.395 . S
C82 C84 1.320 . S
C83 C81 1.339 . S
C83 C82 1.395 . S
C83 H109 0.929 . S
C84 C82 1.320 . S
C84 C85 1.405 . S
C84 H110 0.930 . S
C85 C80 1.479 . S
C85 C84 1.405 . S
C85 H111 0.931 . S
U86 O87 2.454 . S
U86 O88 2.458 . S
U86 C89 2.984 . S
U86 C90 2.847 . S
U86 C103 2.882 . S
U86 O104 2.441 . S
U86 O105 2.420 . S
U86 O106 2.455 . S
U86 O107 2.449 . S
O87 U86 2.454 . S
O87 C89 1.353 . S
O88 U86 2.458 . S
O88 C89 1.286 . S
C89 U86 2.984 . S
C89 O87 1.353 . S
C89 O88 1.286 . S
C89 C91 1.363 . S
C90 C80 1.465 . S
C90 U86 2.847 . S
C90 O104 1.249 . S
C90 O105 1.202 . S
C91 C89 1.363 . S
C91 C93 1.408 . S
C91 C96 1.342 . S
C92 C93 1.310 . S
C92 C95 1.461 . S
C92 H112 0.932 . S
C93 C91 1.408 . S
C93 C92 1.310 . S
C93 H113 0.930 . S
C94 C95 1.474 . S
C94 C96 1.285 . S
C94 H114 0.929 . S
C95 C92 1.461 . S
C95 C94 1.474 . S
C96 C91 1.342 . S
C96 C94 1.285 . S
C96 H115 0.930 . S
C97 C100 1.424 . S
C97 C102 1.245 . S
C97 C103 1.428 . S
C98 C101 1.260 . S
C98 C102 1.477 . S
C98 H116 0.932 . S
C99 C100 1.384 . S
C99 C101 1.479 . S
C99 H117 0.929 . S
C100 C97 1.424 . S
C100 C99 1.384 . S
C100 H118 0.928 . S
C101 C98 1.260 . S
C101 C99 1.479 . S
C102 C97 1.245 . S
C102 C98 1.477 . S
C102 H119 0.932 . S
C103 U86 2.882 . S
C103 C97 1.428 . S
C103 O106 1.301 . S
C103 O107 1.282 . S
O104 U86 2.441 . S
O104 C90 1.249 . S
O105 U86 2.420 . S
O105 C90 1.202 . S
O106 U86 2.455 . S
O106 C103 1.301 . S
O107 U86 2.449 . S
O107 C103 1.282 . S
H108 C81 0.931 . S
H109 C83 0.929 . S
H110 C84 0.930 . S
H111 C85 0.931 . S
H112 C92 0.932 . S
H113 C93 0.930 . S
H114 C94 0.929 . S
H115 C96 0.930 . S
H116 C98 0.932 . S
H117 C99 0.929 . S
H118 C100 0.928 . S
H119 C102 0.932 . S
C120 C121 1.264 . S
C120 C125 1.479 . S
C120 C130 1.465 . S
C121 C120 1.264 . S
C121 C123 1.339 . S
C121 H148 0.931 . S
C122 C123 1.395 . S
C122 C124 1.320 . S
C123 C121 1.339 . S
C123 C122 1.395 . S
C123 H149 0.929 . S
C124 C122 1.320 . S
C124 C125 1.405 . S
C124 H150 0.930 . S
C125 C120 1.479 . S
C125 C124 1.405 . S
C125 H151 0.931 . S
U126 O127 2.454 . S
U126 O128 2.458 . S
U126 C129 2.984 . S
U126 C130 2.847 . S
U126 C143 2.882 . S
U126 O144 2.441 . S
U126 O145 2.420 . S
U126 O146 2.455 . S
U126 O147 2.449 . S
O127 U126 2.454 . S
O127 C129 1.353 . S
O128 U126 2.458 . S
O128 C129 1.286 . S
C129 U126 2.984 . S
C129 O127 1.353 . S
C129 O128 1.286 . S
C129 C131 1.363 . S
C130 C120 1.465 . S
C130 U126 2.847 . S
C130 O144 1.249 . S
C130 O145 1.202 . S
C131 C129 1.363 . S
C131 C133 1.408 1_554 S
C131 C136 1.342 . S
C132 C133 1.310 . S
C132 C135 1.461 . S
C132 H152 0.932 . S
C133 C131 1.408 1_556 S
C133 C132 1.310 . S
C133 H153 0.930 . S
C134 C135 1.474 . S
C134 C136 1.285 1_556 S
C134 H154 0.929 . S
C135 C132 1.461 . S
C135 C134 1.474 . S
C136 C131 1.342 . S
C136 C134 1.285 1_554 S
C136 H155 0.930 . S
C137 C140 1.424 . S
C137 C142 1.245 . S
C137 C143 1.428 . S
C138 C141 1.260 . S
C138 C142 1.477 . S
C138 H156 0.932 . S
C139 C140 1.384 . S
C139 C141 1.479 . S
C139 H157 0.929 . S
C140 C137 1.424 . S
C140 C139 1.384 . S
C140 H158 0.928 . S
C141 C138 1.260 . S
C141 C139 1.479 . S
C142 C137 1.245 . S
C142 C138 1.477 . S
C142 H159 0.932 . S
C143 U126 2.882 . S
C143 C137 1.428 . S
C143 O146 1.301 . S
C143 O147 1.282 . S
O144 U126 2.441 . S
O144 C130 1.249 . S
O145 U126 2.420 . S
O145 C130 1.202 . S
O146 U126 2.455 . S
O146 C143 1.301 . S
O147 U126 2.449 . S
O147 C143 1.282 . S
H148 C121 0.931 . S
H149 C123 0.929 . S
H150 C124 0.930 . S
H151 C125 0.931 . S
H152 C132 0.932 . S
H153 C133 0.930 . S
H154 C134 0.929 . S
H155 C136 0.930 . S
H156 C138 0.932 . S
H157 C139 0.929 . S
H158 C140 0.928 . S
H159 C142 0.932 . S
C160 C161 1.264 . S
C160 C165 1.479 1_455 S
C160 C170 1.465 . S
C161 C160 1.264 . S
C161 C163 1.339 1_455 S
C161 H188 0.931 . S
C162 C163 1.395 . S
C162 C164 1.320 . S
C163 C161 1.339 1_655 S
C163 C162 1.395 . S
C163 H189 0.929 . S
C164 C162 1.320 . S
C164 C165 1.405 . S
C164 H190 0.930 . S
C165 C160 1.479 1_655 S
C165 C164 1.405 . S
C165 H191 0.931 . S
U166 O167 2.454 . S
U166 O168 2.458 . S
U166 C169 2.984 . S
U166 C170 2.847 . S
U166 C183 2.882 . S
U166 O184 2.441 . S
U166 O185 2.420 . S
U166 O186 2.455 . S
U166 O187 2.449 . S
O167 U166 2.454 . S
O167 C169 1.353 . S
O168 U166 2.458 . S
O168 C169 1.286 . S
C169 U166 2.984 . S
C169 O167 1.353 . S
C169 O168 1.286 . S
C169 C171 1.363 . S
C170 C160 1.465 . S
C170 U166 2.847 . S
C170 O184 1.249 . S
C170 O185 1.202 . S
C171 C169 1.363 . S
C171 C173 1.408 . S
C171 C176 1.342 . S
C172 C173 1.310 . S
C172 C175 1.461 . S
C172 H192 0.932 . S
C173 C171 1.408 . S
C173 C172 1.310 . S
C173 H193 0.930 . S
C174 C175 1.474 . S
C174 C176 1.285 . S
C174 H194 0.929 . S
C175 C172 1.461 . S
C175 C174 1.474 . S
C176 C171 1.342 . S
C176 C174 1.285 . S
C176 H195 0.930 . S
C177 C180 1.424 . S
C177 C182 1.245 . S
C177 C183 1.428 . S
C178 C181 1.260 . S
C178 C182 1.477 . S
C178 H196 0.932 . S
C179 C180 1.384 . S
C179 C181 1.479 . S
C179 H197 0.929 . S
C180 C177 1.424 . S
C180 C179 1.384 . S
C180 H198 0.928 . S
C181 C178 1.260 . S
C181 C179 1.479 . S
C182 C177 1.245 . S
C182 C178 1.477 . S
C182 H199 0.932 . S
C183 U166 2.882 . S
C183 C177 1.428 . S
C183 O186 1.301 . S
C183 O187 1.282 . S
O184 U166 2.441 . S
O184 C170 1.249 . S
O185 U166 2.420 . S
O185 C170 1.202 . S
O186 U166 2.455 . S
O186 C183 1.301 . S
O187 U166 2.449 . S
O187 C183 1.282 . S
H188 C161 0.931 . S
H189 C163 0.929 . S
H190 C164 0.930 . S
H191 C165 0.931 . S
H192 C172 0.932 . S
H193 C173 0.930 . S
H194 C174 0.929 . S
H195 C176 0.930 . S
H196 C178 0.932 . S
H197 C179 0.929 . S
H198 C180 0.928 . S
H199 C182 0.932 . S
C200 C201 1.264 . S
C200 C205 1.479 . S
C200 C210 1.465 . S
C201 C200 1.264 . S
C201 C203 1.339 . S
C201 H228 0.931 . S
C202 C203 1.395 . S
C202 C204 1.320 . S
C203 C201 1.339 . S
C203 C202 1.395 . S
C203 H229 0.929 . S
C204 C202 1.320 . S
C204 C205 1.405 . S
C204 H230 0.930 . S
C205 C200 1.479 . S
C205 C204 1.405 . S
C205 H231 0.931 . S
U206 O207 2.454 . S
U206 O208 2.458 . S
U206 C209 2.984 . S
U206 C210 2.847 . S
U206 C223 2.882 . S
U206 O224 2.441 . S
U206 O225 2.420 . S
U206 O226 2.455 . S
U206 O227 2.449 . S
O207 U206 2.454 . S
O207 C209 1.353 . S
O208 U206 2.458 . S
O208 C209 1.286 . S
C209 U206 2.984 . S
C209 O207 1.353 . S
C209 O208 1.286 . S
C209 C211 1.363 . S
C210 C200 1.465 . S
C210 U206 2.847 . S
C210 O224 1.249 . S
C210 O225 1.202 . S
C211 C209 1.363 . S
C211 C213 1.408 . S
C211 C216 1.342 . S
C212 C213 1.310 . S
C212 C215 1.461 . S
C212 H232 0.932 . S
C213 C211 1.408 . S
C213 C212 1.310 . S
C213 H233 0.930 . S
C214 C215 1.474 . S
C214 C216 1.285 . S
C214 H234 0.929 . S
C215 C212 1.461 . S
C215 C214 1.474 . S
C216 C211 1.342 . S
C216 C214 1.285 . S
C216 H235 0.930 . S
C217 C220 1.424 . S
C217 C222 1.245 . S
C217 C223 1.428 . S
C218 C221 1.260 . S
C218 C222 1.477 . S
C218 H236 0.932 . S
C219 C220 1.384 . S
C219 C221 1.479 . S
C219 H237 0.929 . S
C220 C217 1.424 . S
C220 C219 1.384 . S
C220 H238 0.928 . S
C221 C218 1.260 . S
C221 C219 1.479 . S
C222 C217 1.245 . S
C222 C218 1.477 . S
C222 H239 0.932 . S
C223 U206 2.882 . S
C223 C217 1.428 . S
C223 O226 1.301 . S
C223 O227 1.282 . S
O224 U206 2.441 . S
O224 C210 1.249 . S
O225 U206 2.420 . S
O225 C210 1.202 . S
O226 U206 2.455 . S
O226 C223 1.301 . S
O227 U206 2.449 . S
O227 C223 1.282 . S
H228 C201 0.931 . S
H229 C203 0.929 . S
H230 C204 0.930 . S
H231 C205 0.931 . S
H232 C212 0.932 . S
H233 C213 0.930 . S
H234 C214 0.929 . S
H235 C216 0.930 . S
H236 C218 0.932 . S
H237 C219 0.929 . S
H238 C220 0.928 . S
H239 C222 0.932 . S
C240 C241 1.264 . S
C240 C245 1.479 . S
C240 C250 1.465 . S
C241 C240 1.264 . S
C241 C243 1.339 . S
C241 H268 0.931 . S
C242 C243 1.395 . S
C242 C244 1.320 . S
C243 C241 1.339 . S
C243 C242 1.395 . S
C243 H269 0.929 . S
C244 C242 1.320 . S
C244 C245 1.405 . S
C244 H270 0.930 . S
C245 C240 1.479 . S
C245 C244 1.405 . S
C245 H271 0.931 . S
U246 O247 2.454 . S
U246 O248 2.458 . S
U246 C249 2.984 . S
U246 C250 2.847 . S
U246 C263 2.882 . S
U246 O264 2.441 . S
U246 O265 2.420 . S
U246 O266 2.455 . S
U246 O267 2.449 . S
O247 U246 2.454 . S
O247 C249 1.353 . S
O248 U246 2.458 . S
O248 C249 1.286 . S
C249 U246 2.984 . S
C249 O247 1.353 . S
C249 O248 1.286 . S
C249 C251 1.363 . S
C250 C240 1.465 . S
C250 U246 2.847 . S
C250 O264 1.249 . S
C250 O265 1.202 . S
C251 C249 1.363 . S
C251 C253 1.408 . S
C251 C256 1.342 . S
C252 C253 1.310 . S
C252 C255 1.461 . S
C252 H272 0.932 . S
C253 C251 1.408 . S
C253 C252 1.310 . S
C253 H273 0.930 . S
C254 C255 1.474 . S
C254 C256 1.285 . S
C254 H274 0.929 . S
C255 C252 1.461 . S
C255 C254 1.474 . S
C256 C251 1.342 . S
C256 C254 1.285 . S
C256 H275 0.930 . S
C257 C260 1.424 . S
C257 C262 1.245 . S
C257 C263 1.428 . S
C258 C261 1.260 . S
C258 C262 1.477 . S
C258 H276 0.932 . S
C259 C260 1.384 . S
C259 C261 1.479 . S
C259 H277 0.929 . S
C260 C257 1.424 . S
C260 C259 1.384 . S
C260 H278 0.928 . S
C261 C258 1.260 . S
C261 C259 1.479 . S
C262 C257 1.245 . S
C262 C258 1.477 . S
C262 H279 0.932 . S
C263 U246 2.882 . S
C263 C257 1.428 . S
C263 O266 1.301 . S
C263 O267 1.282 . S
O264 U246 2.441 . S
O264 C250 1.249 . S
O265 U246 2.420 . S
O265 C250 1.202 . S
O266 U246 2.455 . S
O266 C263 1.301 . S
O267 U246 2.449 . S
O267 C263 1.282 . S
H268 C241 0.931 . S
H269 C243 0.929 . S
H270 C244 0.930 . S
H271 C245 0.931 . S
H272 C252 0.932 . S
H273 C253 0.930 . S
H274 C254 0.929 . S
H275 C256 0.930 . S
H276 C258 0.932 . S
H277 C259 0.929 . S
H278 C260 0.928 . S
H279 C262 0.932 . S
C280 C281 1.264 . S
C280 C285 1.479 . S
C280 C290 1.465 1_554 S
C281 C280 1.264 . S
C281 C283 1.339 . S
C281 H308 0.931 1_554 S
C282 C283 1.395 . S
C282 C284 1.320 . S
C283 C281 1.339 . S
C283 C282 1.395 . S
C283 H309 0.929 . S
C284 C282 1.320 . S
C284 C285 1.405 . S
C284 H310 0.930 . S
C285 C280 1.479 . S
C285 C284 1.405 . S
C285 H311 0.931 . S
U286 O287 2.454 . S
U286 O288 2.458 . S
U286 C289 2.984 . S
U286 C290 2.847 . S
U286 C303 2.882 . S
U286 O304 2.441 . S
U286 O305 2.420 . S
U286 O306 2.455 . S
U286 O307 2.449 . S
O287 U286 2.454 . S
O287 C289 1.353 . S
O288 U286 2.458 . S
O288 C289 1.286 . S
C289 U286 2.984 . S
C289 O287 1.353 . S
C289 O288 1.286 . S
C289 C291 1.363 . S
C290 C280 1.465 1_556 S
C290 U286 2.847 . S
C290 O304 1.249 . S
C290 O305 1.202 . S
C291 C289 1.363 . S
C291 C293 1.408 . S
C291 C296 1.342 . S
C292 C293 1.310 . S
C292 C295 1.461 . S
C292 H312 0.932 . S
C293 C291 1.408 . S
C293 C292 1.310 . S
C293 H313 0.930 . S
C294 C295 1.474 . S
C294 C296 1.285 . S
C294 H314 0.929 . S
C295 C292 1.461 . S
C295 C294 1.474 . S
C296 C291 1.342 . S
C296 C294 1.285 . S
C296 H315 0.930 . S
C297 C300 1.424 . S
C297 C302 1.245 . S
C297 C303 1.428 . S
C298 C301 1.260 . S
C298 C302 1.477 . S
C298 H316 0.932 . S
C299 C300 1.384 . S
C299 C301 1.479 . S
C299 H317 0.929 . S
C300 C297 1.424 . S
C300 C299 1.384 . S
C300 H318 0.928 . S
C301 C298 1.260 . S
C301 C299 1.479 . S
C302 C297 1.245 . S
C302 C298 1.477 . S
C302 H319 0.932 . S
C303 U286 2.882 . S
C303 C297 1.428 . S
C303 O306 1.301 . S
C303 O307 1.282 . S
O304 U286 2.441 . S
O304 C290 1.249 . S
O305 U286 2.420 . S
O305 C290 1.202 . S
O306 U286 2.455 . S
O306 C303 1.301 . S
O307 U286 2.449 . S
O307 C303 1.282 . S
H308 C281 0.931 1_556 S
H309 C283 0.929 . S
H310 C284 0.930 . S
H311 C285 0.931 . S
H312 C292 0.932 . S
H313 C293 0.930 . S
H314 C294 0.929 . S
H315 C296 0.930 . S
H316 C298 0.932 . S
H317 C299 0.929 . S
H318 C300 0.928 . S
H319 C302 0.932 . S
C320 C321 1.264 . S
C320 C325 1.479 . S
C320 C330 1.465 . S
C321 C320 1.264 . S
C321 C323 1.339 . S
C321 H348 0.931 . S
C322 C323 1.395 . S
C322 C324 1.320 . S
C323 C321 1.339 . S
C323 C322 1.395 . S
C323 H349 0.929 . S
C324 C322 1.320 . S
C324 C325 1.405 . S
C324 H350 0.930 . S
C325 C320 1.479 . S
C325 C324 1.405 . S
C325 H351 0.931 . S
U326 O327 2.454 . S
U326 O328 2.458 . S
U326 C329 2.984 . S
U326 C330 2.847 . S
U326 C343 2.882 . S
U326 O344 2.441 . S
U326 O345 2.420 . S
U326 O346 2.455 . S
U326 O347 2.449 . S
O327 U326 2.454 . S
O327 C329 1.353 . S
O328 U326 2.458 . S
O328 C329 1.286 . S
C329 U326 2.984 . S
C329 O327 1.353 . S
C329 O328 1.286 . S
C329 C331 1.363 . S
C330 C320 1.465 . S
C330 U326 2.847 . S
C330 O344 1.249 . S
C330 O345 1.202 . S
C331 C329 1.363 . S
C331 C333 1.408 1_545 S
C331 C336 1.342 . S
C332 C333 1.310 . S
C332 C335 1.461 . S
C332 H352 0.932 . S
C333 C331 1.408 1_565 S
C333 C332 1.310 . S
C333 H353 0.930 . S
C334 C335 1.474 . S
C334 C336 1.285 1_565 S
C334 H354 0.929 . S
C335 C332 1.461 . S
C335 C334 1.474 . S
C336 C331 1.342 . S
C336 C334 1.285 1_545 S
C336 H355 0.930 . S
C337 C340 1.424 . S
C337 C342 1.245 . S
C337 C343 1.428 . S
C338 C341 1.260 . S
C338 C342 1.477 . S
C338 H356 0.932 . S
C339 C340 1.384 . S
C339 C341 1.479 . S
C339 H357 0.929 . S
C340 C337 1.424 . S
C340 C339 1.384 . S
C340 H358 0.928 . S
C341 C338 1.260 . S
C341 C339 1.479 . S
C342 C337 1.245 . S
C342 C338 1.477 . S
C342 H359 0.932 . S
C343 U326 2.882 . S
C343 C337 1.428 . S
C343 O346 1.301 . S
C343 O347 1.282 . S
O344 U326 2.441 . S
O344 C330 1.249 . S
O345 U326 2.420 . S
O345 C330 1.202 . S
O346 U326 2.455 . S
O346 C343 1.301 . S
O347 U326 2.449 . S
O347 C343 1.282 . S
H348 C321 0.931 . S
H349 C323 0.929 . S
H350 C324 0.930 . S
H351 C325 0.931 . S
H352 C332 0.932 . S
H353 C333 0.930 . S
H354 C334 0.929 . S
H355 C336 0.930 . S
H356 C338 0.932 . S
H357 C339 0.929 . S
H358 C340 0.928 . S
H359 C342 0.932 . S
C360 C361 1.264 . S
C360 C365 1.479 1_545 S
C360 C370 1.465 . S
C361 C360 1.264 . S
C361 C363 1.339 1_545 S
C361 H388 0.931 . S
C362 C363 1.395 . S
C362 C364 1.320 . S
C363 C361 1.339 1_565 S
C363 C362 1.395 . S
C363 H389 0.929 . S
C364 C362 1.320 . S
C364 C365 1.405 . S
C364 H390 0.930 . S
C365 C360 1.479 1_565 S
C365 C364 1.405 . S
C365 H391 0.931 . S
U366 O367 2.454 . S
U366 O368 2.458 . S
U366 C369 2.984 . S
U366 C370 2.847 . S
U366 C383 2.882 . S
U366 O384 2.441 . S
U366 O385 2.420 . S
U366 O386 2.455 . S
U366 O387 2.449 . S
O367 U366 2.454 . S
O367 C369 1.353 . S
O368 U366 2.458 . S
O368 C369 1.286 . S
C369 U366 2.984 . S
C369 O367 1.353 . S
C369 O368 1.286 . S
C369 C371 1.363 . S
C370 C360 1.465 . S
C370 U366 2.847 . S
C370 O384 1.249 . S
C370 O385 1.202 . S
C371 C369 1.363 . S
C371 C373 1.408 . S
C371 C376 1.342 . S
C372 C373 1.310 . S
C372 C375 1.461 . S
C372 H392 0.932 . S
C373 C371 1.408 . S
C373 C372 1.310 . S
C373 H393 0.930 . S
C374 C375 1.474 . S
C374 C376 1.285 . S
C374 H394 0.929 . S
C375 C372 1.461 . S
C375 C374 1.474 . S
C376 C371 1.342 . S
C376 C374 1.285 . S
C376 H395 0.930 . S
C377 C380 1.424 . S
C377 C382 1.245 . S
C377 C383 1.428 . S
C378 C381 1.260 . S
C378 C382 1.477 . S
C378 H396 0.932 . S
C379 C380 1.384 . S
C379 C381 1.479 . S
C379 H397 0.929 . S
C380 C377 1.424 . S
C380 C379 1.384 . S
C380 H398 0.928 . S
C381 C378 1.260 . S
C381 C379 1.479 . S
C382 C377 1.245 . S
C382 C378 1.477 . S
C382 H399 0.932 . S
C383 U366 2.882 . S
C383 C377 1.428 . S
C383 O386 1.301 . S
C383 O387 1.282 . S
O384 U366 2.441 . S
O384 C370 1.249 . S
O385 U366 2.420 . S
O385 C370 1.202 . S
O386 U366 2.455 . S
O386 C383 1.301 . S
O387 U366 2.449 . S
O387 C383 1.282 . S
H388 C361 0.931 . S
H389 C363 0.929 . S
H390 C364 0.930 . S
H391 C365 0.931 . S
H392 C372 0.932 . S
H393 C373 0.930 . S
H394 C374 0.929 . S
H395 C376 0.930 . S
H396 C378 0.932 . S
H397 C379 0.929 . S
H398 C380 0.928 . S
H399 C382 0.932 . S
C400 C401 1.264 . S
C400 C405 1.479 1_565 S
C400 C410 1.465 . S
C401 C400 1.264 . S
C401 C403 1.339 1_565 S
C401 H428 0.931 . S
C402 C403 1.395 . S
C402 C404 1.320 . S
C403 C401 1.339 1_545 S
C403 C402 1.395 . S
C403 H429 0.929 . S
C404 C402 1.320 . S
C404 C405 1.405 . S
C404 H430 0.930 . S
C405 C400 1.479 1_545 S
C405 C404 1.405 . S
C405 H431 0.931 . S
U406 O407 2.454 . S
U406 O408 2.458 . S
U406 C409 2.984 . S
U406 C410 2.847 . S
U406 C423 2.882 . S
U406 O424 2.441 . S
U406 O425 2.420 . S
U406 O426 2.455 . S
U406 O427 2.449 . S
O407 U406 2.454 . S
O407 C409 1.353 . S
O408 U406 2.458 . S
O408 C409 1.286 . S
C409 U406 2.984 . S
C409 O407 1.353 . S
C409 O408 1.286 . S
C409 C411 1.363 . S
C410 C400 1.465 . S
C410 U406 2.847 . S
C410 O424 1.249 . S
C410 O425 1.202 . S
C411 C409 1.363 . S
C411 C413 1.408 . S
C411 C416 1.342 . S
C412 C413 1.310 . S
C412 C415 1.461 . S
C412 H432 0.932 . S
C413 C411 1.408 . S
C413 C412 1.310 . S
C413 H433 0.930 . S
C414 C415 1.474 . S
C414 C416 1.285 . S
C414 H434 0.929 . S
C415 C412 1.461 . S
C415 C414 1.474 . S
C416 C411 1.342 . S
C416 C414 1.285 . S
C416 H435 0.930 . S
C417 C420 1.424 . S
C417 C422 1.245 . S
C417 C423 1.428 . S
C418 C421 1.260 . S
C418 C422 1.477 . S
C418 H436 0.932 . S
C419 C420 1.384 . S
C419 C421 1.479 . S
C419 H437 0.929 . S
C420 C417 1.424 . S
C420 C419 1.384 . S
C420 H438 0.928 . S
C421 C418 1.260 . S
C421 C419 1.479 . S
C422 C417 1.245 . S
C422 C418 1.477 . S
C422 H439 0.932 . S
C423 U406 2.882 . S
C423 C417 1.428 . S
C423 O426 1.301 . S
C423 O427 1.282 . S
O424 U406 2.441 . S
O424 C410 1.249 . S
O425 U406 2.420 . S
O425 C410 1.202 . S
O426 U406 2.455 . S
O426 C423 1.301 . S
O427 U406 2.449 . S
O427 C423 1.282 . S
H428 C401 0.931 . S
H429 C403 0.929 . S
H430 C404 0.930 . S
H431 C405 0.931 . S
H432 C412 0.932 . S
H433 C413 0.930 . S
H434 C414 0.929 . S
H435 C416 0.930 . S
H436 C418 0.932 . S
H437 C419 0.929 . S
H438 C420 0.928 . S
H439 C422 0.932 . S
C440 C441 1.264 . S
C440 C445 1.479 . S
C440 C450 1.465 . S
C441 C440 1.264 . S
C441 C443 1.339 . S
C441 H468 0.931 . S
C442 C443 1.395 . S
C442 C444 1.320 . S
C443 C441 1.339 . S
C443 C442 1.395 . S
C443 H469 0.929 . S
C444 C442 1.320 . S
C444 C445 1.405 . S
C444 H470 0.930 . S
C445 C440 1.479 . S
C445 C444 1.405 . S
C445 H471 0.931 . S
U446 O447 2.454 . S
U446 O448 2.458 . S
U446 C449 2.984 . S
U446 C450 2.847 . S
U446 C463 2.882 . S
U446 O464 2.441 . S
U446 O465 2.420 . S
U446 O466 2.455 . S
U446 O467 2.449 . S
O447 U446 2.454 . S
O447 C449 1.353 . S
O448 U446 2.458 . S
O448 C449 1.286 . S
C449 U446 2.984 . S
C449 O447 1.353 . S
C449 O448 1.286 . S
C449 C451 1.363 . S
C450 C440 1.465 . S
C450 U446 2.847 . S
C450 O464 1.249 . S
C450 O465 1.202 . S
C451 C449 1.363 . S
C451 C453 1.408 1_565 S
C451 C456 1.342 . S
C452 C453 1.310 . S
C452 C455 1.461 . S
C452 H472 0.932 . S
C453 C451 1.408 1_545 S
C453 C452 1.310 . S
C453 H473 0.930 . S
C454 C455 1.474 . S
C454 C456 1.285 1_545 S
C454 H474 0.929 . S
C455 C452 1.461 . S
C455 C454 1.474 . S
C456 C451 1.342 . S
C456 C454 1.285 1_565 S
C456 H475 0.930 . S
C457 C460 1.424 . S
C457 C462 1.245 . S
C457 C463 1.428 . S
C458 C461 1.260 . S
C458 C462 1.477 . S
C458 H476 0.932 . S
C459 C460 1.384 . S
C459 C461 1.479 . S
C459 H477 0.929 . S
C460 C457 1.424 . S
C460 C459 1.384 . S
C460 H478 0.928 . S
C461 C458 1.260 . S
C461 C459 1.479 . S
C462 C457 1.245 . S
C462 C458 1.477 . S
C462 H479 0.932 . S
C463 U446 2.882 . S
C463 C457 1.428 . S
C463 O466 1.301 . S
C463 O467 1.282 . S
O464 U446 2.441 . S
O464 C450 1.249 . S
O465 U446 2.420 . S
O465 C450 1.202 . S
O466 U446 2.455 . S
O466 C463 1.301 . S
O467 U446 2.449 . S
O467 C463 1.282 . S
H468 C441 0.931 . S
H469 C443 0.929 . S
H470 C444 0.930 . S
H471 C445 0.931 . S
H472 C452 0.932 . S
H473 C453 0.930 . S
H474 C454 0.929 . S
H475 C456 0.930 . S
H476 C458 0.932 . S
H477 C459 0.929 . S
H478 C460 0.928 . S
H479 C462 0.932 . S
C480 C481 1.264 . S
C480 C485 1.479 . S
C480 C490 1.465 . S
C481 C480 1.264 . S
C481 C483 1.339 . S
C481 H508 0.931 . S
C482 C483 1.395 . S
C482 C484 1.320 . S
C483 C481 1.339 . S
C483 C482 1.395 . S
C483 H509 0.929 . S
C484 C482 1.320 . S
C484 C485 1.405 . S
C484 H510 0.930 . S
C485 C480 1.479 . S
C485 C484 1.405 . S
C485 H511 0.931 . S
U486 O487 2.454 . S
U486 O488 2.458 . S
U486 C489 2.984 . S
U486 C490 2.847 . S
U486 C503 2.882 . S
U486 O504 2.441 . S
U486 O505 2.420 . S
U486 O506 2.455 . S
U486 O507 2.449 . S
O487 U486 2.454 . S
O487 C489 1.353 . S
O488 U486 2.458 . S
O488 C489 1.286 . S
C489 U486 2.984 . S
C489 O487 1.353 . S
C489 O488 1.286 . S
C489 C491 1.363 . S
C490 C480 1.465 . S
C490 U486 2.847 . S
C490 O504 1.249 . S
C490 O505 1.202 . S
C491 C489 1.363 . S
C491 C493 1.408 1_554 S
C491 C496 1.342 . S
C492 C493 1.310 . S
C492 C495 1.461 . S
C492 H512 0.932 . S
C493 C491 1.408 1_556 S
C493 C492 1.310 . S
C493 H513 0.930 . S
C494 C495 1.474 . S
C494 C496 1.285 1_556 S
C494 H514 0.929 . S
C495 C492 1.461 . S
C495 C494 1.474 . S
C496 C491 1.342 . S
C496 C494 1.285 1_554 S
C496 H515 0.930 . S
C497 C500 1.424 . S
C497 C502 1.245 . S
C497 C503 1.428 . S
C498 C501 1.260 . S
C498 C502 1.477 . S
C498 H516 0.932 . S
C499 C500 1.384 . S
C499 C501 1.479 . S
C499 H517 0.929 . S
C500 C497 1.424 . S
C500 C499 1.384 . S
C500 H518 0.928 . S
C501 C498 1.260 . S
C501 C499 1.479 . S
C502 C497 1.245 . S
C502 C498 1.477 . S
C502 H519 0.932 . S
C503 U486 2.882 . S
C503 C497 1.428 . S
C503 O506 1.301 . S
C503 O507 1.282 . S
O504 U486 2.441 . S
O504 C490 1.249 . S
O505 U486 2.420 . S
O505 C490 1.202 . S
O506 U486 2.455 . S
O506 C503 1.301 . S
O507 U486 2.449 . S
O507 C503 1.282 . S
H508 C481 0.931 . S
H509 C483 0.929 . S
H510 C484 0.930 . S
H511 C485 0.931 . S
H512 C492 0.932 . S
H513 C493 0.930 . S
H514 C494 0.929 . S
H515 C496 0.930 . S
H516 C498 0.932 . S
H517 C499 0.929 . S
H518 C500 0.928 . S
H519 C502 0.932 . S
C520 C521 1.262 . S
C520 C525 1.380 1_655 S
C520 C530 1.570 . S
C521 C520 1.262 . S
C521 C523 1.290 1_655 S
C521 H548 0.978 . S
C522 C523 1.395 . S
C522 C524 1.320 . S
C523 C521 1.290 1_455 S
C523 C522 1.395 . S
C523 H549 0.929 . S
C524 C522 1.320 . S
C524 C525 1.405 . S
C524 H550 0.930 . S
C525 C520 1.380 1_455 S
C525 C524 1.405 . S
C525 H551 0.931 . S
U526 O527 2.454 . S
U526 O528 2.458 . S
U526 C529 2.984 . S
U526 C530 2.847 . S
U526 C543 2.882 . S
U526 O544 2.441 . S
U526 O545 2.420 . S
U526 O546 2.455 . S
U526 O547 2.449 . S
O527 U526 2.454 . S
O527 C529 1.353 . S
O528 U526 2.458 . S
O528 C529 1.286 . S
C529 U526 2.984 . S
C529 O527 1.353 . S
C529 O528 1.286 . S
C529 C531 1.363 . S
C530 C520 1.570 . S
C530 U526 2.847 . S
C530 O544 1.249 . S
C530 O545 1.202 . S
C531 C529 1.363 . S
C531 C533 1.408 . S
C531 C536 1.342 . S
C532 C533 1.310 . S
C532 C535 1.461 . S
C532 H552 0.932 . S
C533 C531 1.408 . S
C533 C532 1.310 . S
C533 H553 0.930 . S
C534 C535 1.474 . S
C534 C536 1.285 . S
C534 H554 0.929 . S
C535 C532 1.461 . S
C535 C534 1.474 . S
C536 C531 1.342 . S
C536 C534 1.285 . S
C536 H555 0.930 . S
C537 C540 1.424 . S
C537 C542 1.245 . S
C537 C543 1.428 . S
C538 C541 1.260 . S
C538 C542 1.477 . S
C538 H556 0.932 . S
C539 C540 1.384 . S
C539 C541 1.479 . S
C539 H557 0.929 . S
C540 C537 1.424 . S
C540 C539 1.384 . S
C540 H558 0.928 . S
C541 C538 1.260 . S
C541 C539 1.479 . S
C542 C537 1.245 . S
C542 C538 1.477 . S
C542 H559 0.932 . S
C543 U526 2.882 . S
C543 C537 1.428 . S
C543 O546 1.301 . S
C543 O547 1.282 . S
O544 U526 2.441 . S
O544 C530 1.249 . S
O545 U526 2.420 . S
O545 C530 1.202 . S
O546 U526 2.455 . S
O546 C543 1.301 . S
O547 U526 2.449 . S
O547 C543 1.282 . S
H548 C521 0.978 . S
H549 C523 0.929 . S
H550 C524 0.930 . S
H551 C525 0.931 . S
H552 C532 0.932 . S
H553 C533 0.930 . S
H554 C534 0.929 . S
H555 C536 0.930 . S
H556 C538 0.932 . S
H557 C539 0.929 . S
H558 C540 0.928 . S
H559 C542 0.932 . S
C560 C561 1.264 . S
C560 C565 1.479 . S
C560 C570 1.465 . S
C561 C560 1.264 . S
C561 C563 1.339 . S
C561 H588 0.931 . S
C562 C563 1.395 . S
C562 C564 1.320 . S
C563 C561 1.339 . S
C563 C562 1.395 . S
C563 H589 0.929 . S
C564 C562 1.320 . S
C564 C565 1.405 . S
C564 H590 0.930 . S
C565 C560 1.479 . S
C565 C564 1.405 . S
C565 H591 0.931 . S
U566 O567 2.454 . S
U566 O568 2.458 . S
U566 C569 2.984 . S
U566 C570 2.847 . S
U566 C583 2.882 . S
U566 O584 2.441 . S
U566 O585 2.420 . S
U566 O586 2.455 . S
U566 O587 2.449 . S
O567 U566 2.454 . S
O567 C569 1.353 . S
O568 U566 2.458 . S
O568 C569 1.286 . S
C569 U566 2.984 . S
C569 O567 1.353 . S
C569 O568 1.286 . S
C569 C571 1.363 . S
C570 C560 1.465 . S
C570 U566 2.847 . S
C570 O584 1.249 . S
C570 O585 1.202 . S
C571 C569 1.363 . S
C571 C573 1.408 . S
C571 C576 1.342 . S
C572 C573 1.310 . S
C572 C575 1.461 . S
C572 H592 0.932 . S
C573 C571 1.408 . S
C573 C572 1.310 . S
C573 H593 0.930 . S
C574 C575 1.474 . S
C574 C576 1.285 . S
C574 H594 0.929 . S
C575 C572 1.461 . S
C575 C574 1.474 . S
C576 C571 1.342 . S
C576 C574 1.285 . S
C576 H595 0.930 . S
C577 C580 1.424 . S
C577 C582 1.245 . S
C577 C583 1.428 . S
C578 C581 1.260 . S
C578 C582 1.477 . S
C578 H596 0.932 . S
C579 C580 1.384 . S
C579 C581 1.479 . S
C579 H597 0.929 . S
C580 C577 1.424 . S
C580 C579 1.384 . S
C580 H598 0.928 . S
C581 C578 1.260 . S
C581 C579 1.479 . S
C582 C577 1.245 . S
C582 C578 1.477 . S
C582 H599 0.932 . S
C583 U566 2.882 . S
C583 C577 1.428 . S
C583 O586 1.301 . S
C583 O587 1.282 . S
O584 U566 2.441 . S
O584 C570 1.249 . S
O585 U566 2.420 . S
O585 C570 1.202 . S
O586 U566 2.455 . S
O586 C583 1.301 . S
O587 U566 2.449 . S
O587 C583 1.282 . S
H588 C561 0.931 . S
H589 C563 0.929 . S
H590 C564 0.930 . S
H591 C565 0.931 . S
H592 C572 0.932 . S
H593 C573 0.930 . S
H594 C574 0.929 . S
H595 C576 0.930 . S
H596 C578 0.932 . S
H597 C579 0.929 . S
H598 C580 0.928 . S
H599 C582 0.932 . S
C600 C601 1.264 . S
C600 C605 1.479 . S
C600 C610 1.465 . S
C601 C600 1.264 . S
C601 C603 1.339 . S
C601 H628 0.931 . S
C602 C603 1.395 . S
C602 C604 1.320 . S
C603 C601 1.339 . S
C603 C602 1.395 . S
C603 H629 0.929 . S
C604 C602 1.320 . S
C604 C605 1.405 . S
C604 H630 0.930 . S
C605 C600 1.479 . S
C605 C604 1.405 . S
C605 H631 0.931 . S
U606 O607 2.454 1_655 S
U606 O608 2.458 1_655 S
U606 C609 2.984 1_655 S
U606 C610 2.847 . S
U606 C623 2.882 . S
U606 O624 2.441 . S
U606 O625 2.420 . S
U606 O626 2.455 . S
U606 O627 2.449 . S
O607 U606 2.454 1_455 S
O607 C609 1.353 . S
O608 U606 2.458 1_455 S
O608 C609 1.286 . S
C609 U606 2.984 1_455 S
C609 O607 1.353 . S
C609 O608 1.286 . S
C609 C611 1.363 . S
C610 C600 1.465 . S
C610 U606 2.847 . S
C610 O624 1.249 . S
C610 O625 1.202 . S
C611 C609 1.363 . S
C611 C613 1.408 . S
C611 C616 1.342 . S
C612 C613 1.310 . S
C612 C615 1.461 . S
C612 H632 0.932 . S
C613 C611 1.408 . S
C613 C612 1.310 . S
C613 H633 0.930 . S
C614 C615 1.474 . S
C614 C616 1.285 . S
C614 H634 0.929 . S
C615 C612 1.461 . S
C615 C614 1.474 . S
C616 C611 1.342 . S
C616 C614 1.285 . S
C616 H635 0.930 . S
C617 C620 1.424 . S
C617 C622 1.245 . S
C617 C623 1.428 . S
C618 C621 1.260 . S
C618 C622 1.477 . S
C618 H636 0.932 . S
C619 C620 1.384 . S
C619 C621 1.479 . S
C619 H637 0.929 . S
C620 C617 1.424 . S
C620 C619 1.384 . S
C620 H638 0.928 . S
C621 C618 1.260 . S
C621 C619 1.479 . S
C622 C617 1.245 . S
C622 C618 1.477 . S
C622 H639 0.932 . S
C623 U606 2.882 . S
C623 C617 1.428 . S
C623 O626 1.301 . S
C623 O627 1.282 . S
O624 U606 2.441 . S
O624 C610 1.249 . S
O625 U606 2.420 . S
O625 C610 1.202 . S
O626 U606 2.455 . S
O626 C623 1.301 . S
O627 U606 2.449 . S
O627 C623 1.282 . S
H628 C601 0.931 . S
H629 C603 0.929 . S
H630 C604 0.930 . S
H631 C605 0.931 . S
H632 C612 0.932 . S
H633 C613 0.930 . S
H634 C614 0.929 . S
H635 C616 0.930 . S
H636 C618 0.932 . S
H637 C619 0.929 . S
H638 C620 0.928 . S
H639 C622 0.932 . S
C640 C641 1.264 . S
C640 C645 1.479 . S
C640 C650 1.465 . S
C641 C640 1.264 . S
C641 C643 1.339 . S
C641 H668 0.931 . S
C642 C643 1.395 . S
C642 C644 1.320 . S
C643 C641 1.339 . S
C643 C642 1.395 . S
C643 H669 0.929 . S
C644 C642 1.320 . S
C644 C645 1.405 . S
C644 H670 0.930 . S
C645 C640 1.479 . S
C645 C644 1.405 . S
C645 H671 0.931 . S
U646 O647 2.454 . S
U646 O648 2.458 . S
U646 C649 2.984 . S
U646 C650 2.847 . S
U646 C663 2.882 . S
U646 O664 2.441 . S
U646 O665 2.420 . S
U646 O666 2.455 . S
U646 O667 2.449 . S
O647 U646 2.454 . S
O647 C649 1.353 . S
O648 U646 2.458 . S
O648 C649 1.286 . S
C649 U646 2.984 . S
C649 O647 1.353 . S
C649 O648 1.286 . S
C649 C651 1.363 . S
C650 C640 1.465 . S
C650 U646 2.847 . S
C650 O664 1.249 . S
C650 O665 1.202 . S
C651 C649 1.363 . S
C651 C653 1.408 . S
C651 C656 1.342 . S
C652 C653 1.310 . S
C652 C655 1.461 . S
C652 H672 0.932 . S
C653 C651 1.408 . S
C653 C652 1.310 . S
C653 H673 0.930 . S
C654 C655 1.474 . S
C654 C656 1.285 . S
C654 H674 0.929 . S
C655 C652 1.461 . S
C655 C654 1.474 . S
C656 C651 1.342 . S
C656 C654 1.285 . S
C656 H675 0.930 . S
C657 C660 1.424 . S
C657 C662 1.245 . S
C657 C663 1.428 . S
C658 C661 1.260 . S
C658 C662 1.477 . S
C658 H676 0.932 . S
C659 C660 1.384 . S
C659 C661 1.479 . S
C659 H677 0.929 . S
C660 C657 1.424 . S
C660 C659 1.384 . S
C660 H678 0.928 . S
C661 C658 1.260 . S
C661 C659 1.479 . S
C662 C657 1.245 . S
C662 C658 1.477 . S
C662 H679 0.932 . S
C663 U646 2.882 . S
C663 C657 1.428 . S
C663 O666 1.301 . S
C663 O667 1.282 . S
O664 U646 2.441 . S
O664 C650 1.249 . S
O665 U646 2.420 . S
O665 C650 1.202 . S
O666 U646 2.455 . S
O666 C663 1.301 . S
O667 U646 2.449 . S
O667 C663 1.282 . S
H668 C641 0.931 . S
H669 C643 0.929 . S
H670 C644 0.930 . S
H671 C645 0.931 . S
H672 C652 0.932 . S
H673 C653 0.930 . S
H674 C654 0.929 . S
H675 C656 0.930 . S
H676 C658 0.932 . S
H677 C659 0.929 . S
H678 C660 0.928 . S
H679 C662 0.932 . S
C680 C681 1.264 . S
C680 C685 1.479 . S
C680 C690 1.465 . S
C681 C680 1.264 . S
C681 C683 1.339 . S
C681 H708 0.931 . S
C682 C683 1.395 . S
C682 C684 1.320 . S
C683 C681 1.339 . S
C683 C682 1.395 . S
C683 H709 0.929 . S
C684 C682 1.320 . S
C684 C685 1.405 . S
C684 H710 0.930 . S
C685 C680 1.479 . S
C685 C684 1.405 . S
C685 H711 0.931 . S
U686 O687 2.454 . S
U686 O688 2.458 . S
U686 C689 2.984 . S
U686 C690 2.847 . S
U686 C703 2.882 . S
U686 O704 2.441 . S
U686 O705 2.420 . S
U686 O706 2.455 . S
U686 O707 2.449 . S
O687 U686 2.454 . S
O687 C689 1.353 . S
O688 U686 2.458 . S
O688 C689 1.286 . S
C689 U686 2.984 . S
C689 O687 1.353 . S
C689 O688 1.286 . S
C689 C691 1.363 . S
C690 C680 1.465 . S
C690 U686 2.847 . S
C690 O704 1.249 . S
C690 O705 1.202 . S
C691 C689 1.363 . S
C691 C693 1.408 . S
C691 C696 1.342 . S
C692 C693 1.310 . S
C692 C695 1.461 . S
C692 H712 0.932 . S
C693 C691 1.408 . S
C693 C692 1.310 . S
C693 H713 0.930 . S
C694 C695 1.474 . S
C694 C696 1.285 . S
C694 H714 0.929 . S
C695 C692 1.461 . S
C695 C694 1.474 . S
C696 C691 1.342 . S
C696 C694 1.285 . S
C696 H715 0.930 . S
C697 C700 1.424 . S
C697 C702 1.245 . S
C697 C703 1.428 . S
C698 C701 1.260 . S
C698 C702 1.477 . S
C698 H716 0.932 . S
C699 C700 1.384 . S
C699 C701 1.479 . S
C699 H717 0.929 . S
C700 C697 1.424 . S
C700 C699 1.384 . S
C700 H718 0.928 . S
C701 C698 1.260 . S
C701 C699 1.479 . S
C702 C697 1.245 . S
C702 C698 1.477 . S
C702 H719 0.932 . S
C703 U686 2.882 . S
C703 C697 1.428 . S
C703 O706 1.301 . S
C703 O707 1.282 . S
O704 U686 2.441 . S
O704 C690 1.249 . S
O705 U686 2.420 . S
O705 C690 1.202 . S
O706 U686 2.455 . S
O706 C703 1.301 . S
O707 U686 2.449 . S
O707 C703 1.282 . S
H708 C681 0.931 . S
H709 C683 0.929 . S
H710 C684 0.930 . S
H711 C685 0.931 . S
H712 C692 0.932 . S
H713 C693 0.930 . S
H714 C694 0.929 . S
H715 C696 0.930 . S
H716 C698 0.932 . S
H717 C699 0.929 . S
H718 C700 0.928 . S
H719 C702 0.932 . S
C720 C721 1.264 . S
C720 C725 1.479 . S
C720 C730 1.465 . S
C721 C720 1.264 . S
C721 C723 1.339 . S
C721 H748 0.931 . S
C722 C723 1.395 . S
C722 C724 1.320 . S
C723 C721 1.339 . S
C723 C722 1.395 . S
C723 H749 0.929 . S
C724 C722 1.320 . S
C724 C725 1.405 . S
C724 H750 0.930 . S
C725 C720 1.479 . S
C725 C724 1.405 . S
C725 H751 0.931 . S
U726 O727 2.454 1_556 S
U726 O728 2.458 1_556 S
U726 C729 2.984 1_556 S
U726 C730 2.847 . S
U726 C743 2.882 . S
U726 O744 2.441 . S
U726 O745 2.420 . S
U726 O746 2.455 . S
U726 O747 2.449 . S
O727 U726 2.454 1_554 S
O727 C729 1.353 . S
O728 U726 2.458 1_554 S
O728 C729 1.286 . S
C729 U726 2.984 1_554 S
C729 O727 1.353 . S
C729 O728 1.286 . S
C729 C731 1.363 . S
C730 C720 1.465 . S
C730 U726 2.847 . S
C730 O744 1.249 . S
C730 O745 1.202 . S
C731 C729 1.363 . S
C731 C733 1.408 . S
C731 C736 1.342 . S
C732 C733 1.310 . S
C732 C735 1.461 . S
C732 H752 0.932 . S
C733 C731 1.408 . S
C733 C732 1.310 . S
C733 H753 0.930 . S
C734 C735 1.474 . S
C734 C736 1.285 . S
C734 H754 0.929 . S
C735 C732 1.461 . S
C735 C734 1.474 . S
C736 C731 1.342 . S
C736 C734 1.285 . S
C736 H755 0.930 . S
C737 C740 1.424 . S
C737 C742 1.245 . S
C737 C743 1.428 . S
C738 C741 1.260 . S
C738 C742 1.477 . S
C738 H756 0.932 . S
C739 C740 1.384 . S
C739 C741 1.479 . S
C739 H757 0.929 . S
C740 C737 1.424 . S
C740 C739 1.384 . S
C740 H758 0.928 . S
C741 C738 1.260 . S
C741 C739 1.479 . S
C742 C737 1.245 . S
C742 C738 1.477 . S
C742 H759 0.932 . S
C743 U726 2.882 . S
C743 C737 1.428 . S
C743 O746 1.301 . S
C743 O747 1.282 . S
O744 U726 2.441 . S
O744 C730 1.249 . S
O745 U726 2.420 . S
O745 C730 1.202 . S
O746 U726 2.455 . S
O746 C743 1.301 . S
O747 U726 2.449 . S
O747 C743 1.282 . S
H748 C721 0.931 . S
H749 C723 0.929 . S
H750 C724 0.930 . S
H751 C725 0.931 . S
H752 C732 0.932 . S
H753 C733 0.930 . S
H754 C734 0.929 . S
H755 C736 0.930 . S
H756 C738 0.932 . S
H757 C739 0.929 . S
H758 C740 0.928 . S
H759 C742 0.932 . S
C760 C761 1.264 . S
C760 C765 1.479 . S
C760 C770 1.465 . S
C761 C760 1.264 . S
C761 C763 1.339 . S
C761 H788 0.931 . S
C762 C763 1.395 . S
C762 C764 1.320 . S
C763 C761 1.339 . S
C763 C762 1.395 . S
C763 H789 0.929 . S
C764 C762 1.320 . S
C764 C765 1.405 . S
C764 H790 0.930 . S
C765 C760 1.479 . S
C765 C764 1.405 . S
C765 H791 0.931 . S
U766 O767 2.454 . S
U766 O768 2.458 . S
U766 C769 2.984 . S
U766 C770 2.847 1_655 S
U766 C783 2.882 . S
U766 O784 2.441 1_655 S
U766 O785 2.420 1_655 S
U766 O786 2.455 . S
U766 O787 2.449 . S
O767 U766 2.454 . S
O767 C769 1.353 . S
O768 U766 2.458 . S
O768 C769 1.286 . S
C769 U766 2.984 . S
C769 O767 1.353 . S
C769 O768 1.286 . S
C769 C771 1.363 . S
C770 C760 1.465 . S
C770 U766 2.847 1_455 S
C770 O784 1.249 . S
C770 O785 1.202 . S
C771 C769 1.363 . S
C771 C773 1.408 . S
C771 C776 1.342 . S
C772 C773 1.310 . S
C772 C775 1.461 . S
C772 H792 0.932 . S
C773 C771 1.408 . S
C773 C772 1.310 . S
C773 H793 0.930 . S
C774 C775 1.474 . S
C774 C776 1.285 . S
C774 H794 0.929 . S
C775 C772 1.461 . S
C775 C774 1.474 . S
C776 C771 1.342 . S
C776 C774 1.285 . S
C776 H795 0.930 . S
C777 C780 1.424 . S
C777 C782 1.245 . S
C777 C783 1.428 . S
C778 C781 1.260 . S
C778 C782 1.477 . S
C778 H796 0.932 . S
C779 C780 1.384 . S
C779 C781 1.479 . S
C779 H797 0.929 . S
C780 C777 1.424 . S
C780 C779 1.384 . S
C780 H798 0.928 . S
C781 C778 1.260 . S
C781 C779 1.479 . S
C782 C777 1.245 . S
C782 C778 1.477 . S
C782 H799 0.932 . S
C783 U766 2.882 . S
C783 C777 1.428 . S
C783 O786 1.301 . S
C783 O787 1.282 . S
O784 U766 2.441 1_455 S
O784 C770 1.249 . S
O785 U766 2.420 1_455 S
O785 C770 1.202 . S
O786 U766 2.455 . S
O786 C783 1.301 . S
O787 U766 2.449 . S
O787 C783 1.282 . S
H788 C761 0.931 . S
H789 C763 0.929 . S
H790 C764 0.930 . S
H791 C765 0.931 . S
H792 C772 0.932 . S
H793 C773 0.930 . S
H794 C774 0.929 . S
H795 C776 0.930 . S
H796 C778 0.932 . S
H797 C779 0.929 . S
H798 C780 0.928 . S
H799 C782 0.932 . S
C800 C801 1.264 . S
C800 C805 1.479 . S
C800 C810 1.465 . S
C801 C800 1.264 . S
C801 C803 1.339 . S
C801 H828 0.931 . S
C802 C803 1.395 . S
C802 C804 1.320 . S
C803 C801 1.339 . S
C803 C802 1.395 . S
C803 H829 0.929 . S
C804 C802 1.320 . S
C804 C805 1.405 . S
C804 H830 0.930 . S
C805 C800 1.479 . S
C805 C804 1.405 . S
C805 H831 0.931 . S
U806 O807 2.454 . S
U806 O808 2.458 . S
U806 C809 2.984 . S
U806 C810 2.847 . S
U806 C823 2.882 . S
U806 O824 2.441 . S
U806 O825 2.420 . S
U806 O826 2.455 . S
U806 O827 2.449 . S
O807 U806 2.454 . S
O807 C809 1.353 . S
O808 U806 2.458 . S
O808 C809 1.286 . S
C809 U806 2.984 . S
C809 O807 1.353 . S
C809 O808 1.286 . S
C809 C811 1.363 . S
C810 C800 1.465 . S
C810 U806 2.847 . S
C810 O824 1.249 . S
C810 O825 1.202 . S
C811 C809 1.363 . S
C811 C813 1.408 . S
C811 C816 1.342 . S
C812 C813 1.310 . S
C812 C815 1.461 . S
C812 H832 0.932 . S
C813 C811 1.408 . S
C813 C812 1.310 . S
C813 H833 0.930 . S
C814 C815 1.474 . S
C814 C816 1.285 . S
C814 H834 0.929 . S
C815 C812 1.461 . S
C815 C814 1.474 . S
C816 C811 1.342 . S
C816 C814 1.285 . S
C816 H835 0.930 . S
C817 C820 1.424 . S
C817 C822 1.245 . S
C817 C823 1.428 . S
C818 C821 1.260 . S
C818 C822 1.477 . S
C818 H836 0.932 . S
C819 C820 1.384 . S
C819 C821 1.479 . S
C819 H837 0.929 . S
C820 C817 1.424 . S
C820 C819 1.384 . S
C820 H838 0.928 . S
C821 C818 1.260 . S
C821 C819 1.479 . S
C822 C817 1.245 . S
C822 C818 1.477 . S
C822 H839 0.932 . S
C823 U806 2.882 . S
C823 C817 1.428 . S
C823 O826 1.301 . S
C823 O827 1.282 . S
O824 U806 2.441 . S
O824 C810 1.249 . S
O825 U806 2.420 . S
O825 C810 1.202 . S
O826 U806 2.455 . S
O826 C823 1.301 . S
O827 U806 2.449 . S
O827 C823 1.282 . S
H828 C801 0.931 . S
H829 C803 0.929 . S
H830 C804 0.930 . S
H831 C805 0.931 . S
H832 C812 0.932 . S
H833 C813 0.930 . S
H834 C814 0.929 . S
H835 C816 0.930 . S
H836 C818 0.932 . S
H837 C819 0.929 . S
H838 C820 0.928 . S
H839 C822 0.932 . S
C840 C841 1.264 . S
C840 C845 1.479 . S
C840 C850 1.465 . S
C841 C840 1.264 . S
C841 C843 1.339 . S
C841 H868 0.931 . S
C842 C843 1.395 . S
C842 C844 1.320 . S
C843 C841 1.339 . S
C843 C842 1.395 . S
C843 H869 0.929 . S
C844 C842 1.320 . S
C844 C845 1.405 . S
C844 H870 0.930 . S
C845 C840 1.479 . S
C845 C844 1.405 . S
C845 H871 0.931 . S
U846 O847 2.454 . S
U846 O848 2.458 . S
U846 C849 2.984 . S
U846 C850 2.847 . S
U846 C863 2.882 . S
U846 O864 2.441 . S
U846 O865 2.420 . S
U846 O866 2.455 . S
U846 O867 2.449 . S
O847 U846 2.454 . S
O847 C849 1.353 . S
O848 U846 2.458 . S
O848 C849 1.286 . S
C849 U846 2.984 . S
C849 O847 1.353 . S
C849 O848 1.286 . S
C849 C851 1.363 . S
C850 C840 1.465 . S
C850 U846 2.847 . S
C850 O864 1.249 . S
C850 O865 1.202 . S
C851 C849 1.363 . S
C851 C853 1.408 . S
C851 C856 1.342 . S
C852 C853 1.310 . S
C852 C855 1.461 . S
C852 H872 0.932 . S
C853 C851 1.408 . S
C853 C852 1.310 . S
C853 H873 0.930 . S
C854 C855 1.474 . S
C854 C856 1.285 . S
C854 H874 0.929 . S
C855 C852 1.461 . S
C855 C854 1.474 . S
C856 C851 1.342 . S
C856 C854 1.285 . S
C856 H875 0.930 . S
C857 C860 1.424 . S
C857 C862 1.245 . S
C857 C863 1.428 . S
C858 C861 1.260 . S
C858 C862 1.477 . S
C858 H876 0.932 . S
C859 C860 1.384 . S
C859 C861 1.479 . S
C859 H877 0.929 . S
C860 C857 1.424 . S
C860 C859 1.384 . S
C860 H878 0.928 . S
C861 C858 1.260 . S
C861 C859 1.479 . S
C862 C857 1.245 . S
C862 C858 1.477 . S
C862 H879 0.932 . S
C863 U846 2.882 . S
C863 C857 1.428 . S
C863 O866 1.301 . S
C863 O867 1.282 . S
O864 U846 2.441 . S
O864 C850 1.249 . S
O865 U846 2.420 . S
O865 C850 1.202 . S
O866 U846 2.455 . S
O866 C863 1.301 . S
O867 U846 2.449 . S
O867 C863 1.282 . S
H868 C841 0.931 . S
H869 C843 0.929 . S
H870 C844 0.930 . S
H871 C845 0.931 . S
H872 C852 0.932 . S
H873 C853 0.930 . S
H874 C854 0.929 . S
H875 C856 0.930 . S
H876 C858 0.932 . S
H877 C859 0.929 . S
H878 C860 0.928 . S
H879 C862 0.932 . S
C880 C881 1.264 . S
C880 C885 1.479 . S
C880 C890 1.465 . S
C881 C880 1.264 . S
C881 C883 1.339 . S
C881 H908 0.931 . S
C882 C883 1.395 . S
C882 C884 1.320 . S
C883 C881 1.339 . S
C883 C882 1.395 . S
C883 H909 0.929 . S
C884 C882 1.320 . S
C884 C885 1.405 . S
C884 H910 0.930 . S
C885 C880 1.479 . S
C885 C884 1.405 . S
C885 H911 0.931 . S
U886 O887 2.454 . S
U886 O888 2.458 . S
U886 C889 2.984 . S
U886 C890 2.847 1_554 S
U886 C903 2.882 . S
U886 O904 2.441 1_554 S
U886 O905 2.420 1_554 S
U886 O906 2.455 . S
U886 O907 2.449 . S
O887 U886 2.454 . S
O887 C889 1.353 . S
O888 U886 2.458 . S
O888 C889 1.286 . S
C889 U886 2.984 . S
C889 O887 1.353 . S
C889 O888 1.286 . S
C889 C891 1.363 . S
C890 C880 1.465 . S
C890 U886 2.847 1_556 S
C890 O904 1.249 . S
C890 O905 1.202 . S
C891 C889 1.363 . S
C891 C893 1.408 . S
C891 C896 1.342 . S
C892 C893 1.310 . S
C892 C895 1.461 . S
C892 H912 0.932 . S
C893 C891 1.408 . S
C893 C892 1.310 . S
C893 H913 0.930 . S
C894 C895 1.474 . S
C894 C896 1.285 . S
C894 H914 0.929 . S
C895 C892 1.461 . S
C895 C894 1.474 . S
C896 C891 1.342 . S
C896 C894 1.285 . S
C896 H915 0.930 . S
C897 C900 1.424 . S
C897 C902 1.245 . S
C897 C903 1.428 . S
C898 C901 1.260 . S
C898 C902 1.477 . S
C898 H916 0.932 . S
C899 C900 1.384 . S
C899 C901 1.479 . S
C899 H917 0.929 . S
C900 C897 1.424 . S
C900 C899 1.384 . S
C900 H918 0.928 . S
C901 C898 1.260 . S
C901 C899 1.479 . S
C902 C897 1.245 . S
C902 C898 1.477 . S
C902 H919 0.932 . S
C903 U886 2.882 . S
C903 C897 1.428 . S
C903 O906 1.301 . S
C903 O907 1.282 . S
O904 U886 2.441 1_556 S
O904 C890 1.249 . S
O905 U886 2.420 1_556 S
O905 C890 1.202 . S
O906 U886 2.455 . S
O906 C903 1.301 . S
O907 U886 2.449 . S
O907 C903 1.282 . S
H908 C881 0.931 . S
H909 C883 0.929 . S
H910 C884 0.930 . S
H911 C885 0.931 . S
H912 C892 0.932 . S
H913 C893 0.930 . S
H914 C894 0.929 . S
H915 C896 0.930 . S
H916 C898 0.932 . S
H917 C899 0.929 . S
H918 C900 0.928 . S
H919 C902 0.932 . S
C920 C921 1.264 . S
C920 C925 1.479 . S
C920 C930 1.465 . S
C921 C920 1.264 . S
C921 C923 1.339 . S
C921 H948 0.931 . S
C922 C923 1.395 . S
C922 C924 1.320 . S
C923 C921 1.339 . S
C923 C922 1.395 . S
C923 H949 0.929 . S
C924 C922 1.320 . S
C924 C925 1.405 . S
C924 H950 0.930 . S
C925 C920 1.479 . S
C925 C924 1.405 . S
C925 H951 0.931 . S
U926 O927 2.454 1_565 S
U926 O928 2.458 1_565 S
U926 C929 2.984 1_565 S
U926 C930 2.847 . S
U926 C943 2.882 . S
U926 O944 2.441 . S
U926 O945 2.420 . S
U926 O946 2.455 . S
U926 O947 2.449 . S
O927 U926 2.454 1_545 S
O927 C929 1.353 . S
O928 U926 2.458 1_545 S
O928 C929 1.286 . S
C929 U926 2.984 1_545 S
C929 O927 1.353 . S
C929 O928 1.286 . S
C929 C931 1.363 . S
C930 C920 1.465 . S
C930 U926 2.847 . S
C930 O944 1.249 . S
C930 O945 1.202 . S
C931 C929 1.363 . S
C931 C933 1.408 . S
C931 C936 1.342 . S
C932 C933 1.310 . S
C932 C935 1.461 . S
C932 H952 0.932 . S
C933 C931 1.408 . S
C933 C932 1.310 . S
C933 H953 0.930 . S
C934 C935 1.474 . S
C934 C936 1.285 . S
C934 H954 0.929 . S
C935 C932 1.461 . S
C935 C934 1.474 . S
C936 C931 1.342 . S
C936 C934 1.285 . S
C936 H955 0.930 . S
C937 C940 1.424 . S
C937 C942 1.245 . S
C937 C943 1.428 . S
C938 C941 1.260 . S
C938 C942 1.477 . S
C938 H956 0.932 . S
C939 C940 1.384 . S
C939 C941 1.479 . S
C939 H957 0.929 . S
C940 C937 1.424 . S
C940 C939 1.384 . S
C940 H958 0.928 . S
C941 C938 1.260 . S
C941 C939 1.479 . S
C942 C937 1.245 . S
C942 C938 1.477 . S
C942 H959 0.932 . S
C943 U926 2.882 . S
C943 C937 1.428 . S
C943 O946 1.301 . S
C943 O947 1.282 . S
O944 U926 2.441 . S
O944 C930 1.249 . S
O945 U926 2.420 . S
O945 C930 1.202 . S
O946 U926 2.455 . S
O946 C943 1.301 . S
O947 U926 2.449 . S
O947 C943 1.282 . S
H948 C921 0.931 . S
H949 C923 0.929 . S
H950 C924 0.930 . S
H951 C925 0.931 . S
H952 C932 0.932 . S
H953 C933 0.930 . S
H954 C934 0.929 . S
H955 C936 0.930 . S
H956 C938 0.932 . S
H957 C939 0.929 . S
H958 C940 0.928 . S
H959 C942 0.932 . S
C960 C961 1.264 . S
C960 C965 1.479 . S
C960 C970 1.465 . S
C961 C960 1.264 . S
C961 C963 1.339 . S
C961 H988 0.931 . S
C962 C963 1.395 . S
C962 C964 1.320 . S
C963 C961 1.339 . S
C963 C962 1.395 . S
C963 H989 0.929 . S
C964 C962 1.320 . S
C964 C965 1.405 . S
C964 H990 0.930 . S
C965 C960 1.479 . S
C965 C964 1.405 . S
C965 H991 0.931 . S
U966 O967 2.454 1_565 S
U966 O968 2.458 1_565 S
U966 C969 2.984 1_565 S
U966 C970 2.847 . S
U966 C983 2.882 . S
U966 O984 2.441 . S
U966 O985 2.420 . S
U966 O986 2.455 . S
U966 O987 2.449 . S
O967 U966 2.454 1_545 S
O967 C969 1.353 . S
O968 U966 2.458 1_545 S
O968 C969 1.286 . S
C969 U966 2.984 1_545 S
C969 O967 1.353 . S
C969 O968 1.286 . S
C969 C971 1.363 . S
C970 C960 1.465 . S
C970 U966 2.847 . S
C970 O984 1.249 . S
C970 O985 1.202 . S
C971 C969 1.363 . S
C971 C973 1.408 . S
C971 C976 1.342 . S
C972 C973 1.310 . S
C972 C975 1.461 . S
C972 H992 0.932 . S
C973 C971 1.408 . S
C973 C972 1.310 . S
C973 H993 0.930 . S
C974 C975 1.474 . S
C974 C976 1.285 . S
C974 H994 0.929 . S
C975 C972 1.461 . S
C975 C974 1.474 . S
C976 C971 1.342 . S
C976 C974 1.285 . S
C976 H995 0.930 . S
C977 C980 1.424 . S
C977 C982 1.245 . S
C977 C983 1.428 . S
C978 C981 1.260 . S
C978 C982 1.477 . S
C978 H996 0.932 . S
C979 C980 1.384 . S
C979 C981 1.479 . S
C979 H997 0.929 . S
C980 C977 1.424 . S
C980 C979 1.384 . S
C980 H998 0.928 . S
C981 C978 1.260 . S
C981 C979 1.479 . S
C982 C977 1.245 . S
C982 C978 1.477 . S
C982 H999 0.932 . S
C983 U966 2.882 . S
C983 C977 1.428 . S
C983 O986 1.301 . S
C983 O987 1.282 . S
O984 U966 2.441 . S
O984 C970 1.249 . S
O985 U966 2.420 . S
O985 C970 1.202 . S
O986 U966 2.455 . S
O986 C983 1.301 . S
O987 U966 2.449 . S
O987 C983 1.282 . S
H988 C961 0.931 . S
H989 C963 0.929 . S
H990 C964 0.930 . S
H991 C965 0.931 . S
H992 C972 0.932 . S
H993 C973 0.930 . S
H994 C974 0.929 . S
H995 C976 0.930 . S
H996 C978 0.932 . S
H997 C979 0.929 . S
H998 C980 0.928 . S
H999 C982 0.932 . S
C1000 C1001 1.264 . S
C1000 C1005 1.479 . S
C1000 C1010 1.465 . S
C1001 C1000 1.264 . S
C1001 C1003 1.339 . S
C1001 H1028 0.931 . S
C1002 C1003 1.395 . S
C1002 C1004 1.320 . S
C1003 C1001 1.339 . S
C1003 C1002 1.395 . S
C1003 H1029 0.929 . S
C1004 C1002 1.320 . S
C1004 C1005 1.405 . S
C1004 H1030 0.930 . S
C1005 C1000 1.479 . S
C1005 C1004 1.405 . S
C1005 H1031 0.931 . S
U1006 O1007 2.454 . S
U1006 O1008 2.458 . S
U1006 C1009 2.984 . S
U1006 C1010 2.847 1_545 S
U1006 C1023 2.882 . S
U1006 O1024 2.441 1_545 S
U1006 O1025 2.420 1_545 S
U1006 O1026 2.455 . S
U1006 O1027 2.449 . S
O1007 U1006 2.454 . S
O1007 C1009 1.353 . S
O1008 U1006 2.458 . S
O1008 C1009 1.286 . S
C1009 U1006 2.984 . S
C1009 O1007 1.353 . S
C1009 O1008 1.286 . S
C1009 C1011 1.363 . S
C1010 C1000 1.465 . S
C1010 U1006 2.847 1_565 S
C1010 O1024 1.249 . S
C1010 O1025 1.202 . S
C1011 C1009 1.363 . S
C1011 C1013 1.408 . S
C1011 C1016 1.342 . S
C1012 C1013 1.310 . S
C1012 C1015 1.461 . S
C1012 H1032 0.932 . S
C1013 C1011 1.408 . S
C1013 C1012 1.310 . S
C1013 H1033 0.930 . S
C1014 C1015 1.474 . S
C1014 C1016 1.285 . S
C1014 H1034 0.929 . S
C1015 C1012 1.461 . S
C1015 C1014 1.474 . S
C1016 C1011 1.342 . S
C1016 C1014 1.285 . S
C1016 H1035 0.930 . S
C1017 C1020 1.424 . S
C1017 C1022 1.245 . S
C1017 C1023 1.428 . S
C1018 C1021 1.260 . S
C1018 C1022 1.477 . S
C1018 H1036 0.932 . S
C1019 C1020 1.384 . S
C1019 C1021 1.479 . S
C1019 H1037 0.929 . S
C1020 C1017 1.424 . S
C1020 C1019 1.384 . S
C1020 H1038 0.928 . S
C1021 C1018 1.260 . S
C1021 C1019 1.479 . S
C1022 C1017 1.245 . S
C1022 C1018 1.477 . S
C1022 H1039 0.932 . S
C1023 U1006 2.882 . S
C1023 C1017 1.428 . S
C1023 O1026 1.301 . S
C1023 O1027 1.282 . S
O1024 U1006 2.441 1_565 S
O1024 C1010 1.249 . S
O1025 U1006 2.420 1_565 S
O1025 C1010 1.202 . S
O1026 U1006 2.455 . S
O1026 C1023 1.301 . S
O1027 U1006 2.449 . S
O1027 C1023 1.282 . S
H1028 C1001 0.931 . S
H1029 C1003 0.929 . S
H1030 C1004 0.930 . S
H1031 C1005 0.931 . S
H1032 C1012 0.932 . S
H1033 C1013 0.930 . S
H1034 C1014 0.929 . S
H1035 C1016 0.930 . S
H1036 C1018 0.932 . S
H1037 C1019 0.929 . S
H1038 C1020 0.928 . S
H1039 C1022 0.932 . S
C1040 C1041 1.264 . S
C1040 C1045 1.479 . S
C1040 C1050 1.465 . S
C1041 C1040 1.264 . S
C1041 C1043 1.339 . S
C1041 H1068 0.931 . S
C1042 C1043 1.395 . S
C1042 C1044 1.320 . S
C1043 C1041 1.339 . S
C1043 C1042 1.395 . S
C1043 H1069 0.929 . S
C1044 C1042 1.320 . S
C1044 C1045 1.405 . S
C1044 H1070 0.930 . S
C1045 C1040 1.479 . S
C1045 C1044 1.405 . S
C1045 H1071 0.931 . S
U1046 O1047 2.454 . S
U1046 O1048 2.458 . S
U1046 C1049 2.984 . S
U1046 C1050 2.847 1_545 S
U1046 C1063 2.882 . S
U1046 O1064 2.441 1_545 S
U1046 O1065 2.420 1_545 S
U1046 O1066 2.455 . S
U1046 O1067 2.449 . S
O1047 U1046 2.454 . S
O1047 C1049 1.353 . S
O1048 U1046 2.458 . S
O1048 C1049 1.286 . S
C1049 U1046 2.984 . S
C1049 O1047 1.353 . S
C1049 O1048 1.286 . S
C1049 C1051 1.363 . S
C1050 C1040 1.465 . S
C1050 U1046 2.847 1_565 S
C1050 O1064 1.249 . S
C1050 O1065 1.202 . S
C1051 C1049 1.363 . S
C1051 C1053 1.408 . S
C1051 C1056 1.342 . S
C1052 C1053 1.310 . S
C1052 C1055 1.461 . S
C1052 H1072 0.932 . S
C1053 C1051 1.408 . S
C1053 C1052 1.310 . S
C1053 H1073 0.930 . S
C1054 C1055 1.474 . S
C1054 C1056 1.285 . S
C1054 H1074 0.929 . S
C1055 C1052 1.461 . S
C1055 C1054 1.474 . S
C1056 C1051 1.342 . S
C1056 C1054 1.285 . S
C1056 H1075 0.930 . S
C1057 C1060 1.424 . S
C1057 C1062 1.245 . S
C1057 C1063 1.428 . S
C1058 C1061 1.260 . S
C1058 C1062 1.477 . S
C1058 H1076 0.932 . S
C1059 C1060 1.384 . S
C1059 C1061 1.479 . S
C1059 H1077 0.929 . S
C1060 C1057 1.424 . S
C1060 C1059 1.384 . S
C1060 H1078 0.928 . S
C1061 C1058 1.260 . S
C1061 C1059 1.479 . S
C1062 C1057 1.245 . S
C1062 C1058 1.477 . S
C1062 H1079 0.932 . S
C1063 U1046 2.882 . S
C1063 C1057 1.428 . S
C1063 O1066 1.301 . S
C1063 O1067 1.282 . S
O1064 U1046 2.441 1_565 S
O1064 C1050 1.249 . S
O1065 U1046 2.420 1_565 S
O1065 C1050 1.202 . S
O1066 U1046 2.455 . S
O1066 C1063 1.301 . S
O1067 U1046 2.449 . S
O1067 C1063 1.282 . S
H1068 C1041 0.931 . S
H1069 C1043 0.929 . S
H1070 C1044 0.930 . S
H1071 C1045 0.931 . S
H1072 C1052 0.932 . S
H1073 C1053 0.930 . S
H1074 C1054 0.929 . S
H1075 C1056 0.930 . S
H1076 C1058 0.932 . S
H1077 C1059 0.929 . S
H1078 C1060 0.928 . S
H1079 C1062 0.932 . S
C1080 C1081 1.264 . S
C1080 C1085 1.479 . S
C1080 C1090 1.465 . S
C1081 C1080 1.264 . S
C1081 C1083 1.339 . S
C1081 H1108 0.931 . S
C1082 C1083 1.395 . S
C1082 C1084 1.320 . S
C1083 C1081 1.339 . S
C1083 C1082 1.395 . S
C1083 H1109 0.929 . S
C1084 C1082 1.320 . S
C1084 C1085 1.405 . S
C1084 H1110 0.930 . S
C1085 C1080 1.479 . S
C1085 C1084 1.405 . S
C1085 H1111 0.931 . S
U1086 O1087 2.454 1_556 S
U1086 O1088 2.458 1_556 S
U1086 C1089 2.984 1_556 S
U1086 C1090 2.847 . S
U1086 C1103 2.882 . S
U1086 O1104 2.441 . S
U1086 O1105 2.420 . S
U1086 O1106 2.455 . S
U1086 O1107 2.449 . S
O1087 U1086 2.454 1_554 S
O1087 C1089 1.353 . S
O1088 U1086 2.458 1_554 S
O1088 C1089 1.286 . S
C1089 U1086 2.984 1_554 S
C1089 O1087 1.353 . S
C1089 O1088 1.286 . S
C1089 C1091 1.363 . S
C1090 C1080 1.465 . S
C1090 U1086 2.847 . S
C1090 O1104 1.249 . S
C1090 O1105 1.202 . S
C1091 C1089 1.363 . S
C1091 C1093 1.408 . S
C1091 C1096 1.342 . S
C1092 C1093 1.310 . S
C1092 C1095 1.461 . S
C1092 H1112 0.932 . S
C1093 C1091 1.408 . S
C1093 C1092 1.310 . S
C1093 H1113 0.930 . S
C1094 C1095 1.474 . S
C1094 C1096 1.285 . S
C1094 H1114 0.929 . S
C1095 C1092 1.461 . S
C1095 C1094 1.474 . S
C1096 C1091 1.342 . S
C1096 C1094 1.285 . S
C1096 H1115 0.930 . S
C1097 C1100 1.424 . S
C1097 C1102 1.245 . S
C1097 C1103 1.428 . S
C1098 C1101 1.260 . S
C1098 C1102 1.477 . S
C1098 H1116 0.932 . S
C1099 C1100 1.384 . S
C1099 C1101 1.479 . S
C1099 H1117 0.929 . S
C1100 C1097 1.424 . S
C1100 C1099 1.384 . S
C1100 H1118 0.928 . S
C1101 C1098 1.260 . S
C1101 C1099 1.479 . S
C1102 C1097 1.245 . S
C1102 C1098 1.477 . S
C1102 H1119 0.932 . S
C1103 U1086 2.882 . S
C1103 C1097 1.428 . S
C1103 O1106 1.301 . S
C1103 O1107 1.282 . S
O1104 U1086 2.441 . S
O1104 C1090 1.249 . S
O1105 U1086 2.420 . S
O1105 C1090 1.202 . S
O1106 U1086 2.455 . S
O1106 C1103 1.301 . S
O1107 U1086 2.449 . S
O1107 C1103 1.282 . S
H1108 C1081 0.931 . S
H1109 C1083 0.929 . S
H1110 C1084 0.930 . S
H1111 C1085 0.931 . S
H1112 C1092 0.932 . S
H1113 C1093 0.930 . S
H1114 C1094 0.929 . S
H1115 C1096 0.930 . S
H1116 C1098 0.932 . S
H1117 C1099 0.929 . S
H1118 C1100 0.928 . S
H1119 C1102 0.932 . S
C1120 C1121 1.264 . S
C1120 C1125 1.479 . S
C1120 C1130 1.465 . S
C1121 C1120 1.264 . S
C1121 C1123 1.339 . S
C1121 H1148 0.931 . S
C1122 C1123 1.395 . S
C1122 C1124 1.320 . S
C1123 C1121 1.339 . S
C1123 C1122 1.395 . S
C1123 H1149 0.929 . S
C1124 C1122 1.320 . S
C1124 C1125 1.405 . S
C1124 H1150 0.930 . S
C1125 C1120 1.479 . S
C1125 C1124 1.405 . S
C1125 H1151 0.931 . S
U1126 O1127 2.454 . S
U1126 O1128 2.458 . S
U1126 C1129 2.984 . S
U1126 C1130 2.847 1_455 S
U1126 C1143 2.882 . S
U1126 O1144 2.441 1_455 S
U1126 O1145 2.420 1_455 S
U1126 O1146 2.455 . S
U1126 O1147 2.449 . S
O1127 U1126 2.454 . S
O1127 C1129 1.353 . S
O1128 U1126 2.458 . S
O1128 C1129 1.286 . S
C1129 U1126 2.984 . S
C1129 O1127 1.353 . S
C1129 O1128 1.286 . S
C1129 C1131 1.363 . S
C1130 C1120 1.465 . S
C1130 U1126 2.847 1_655 S
C1130 O1144 1.249 . S
C1130 O1145 1.202 . S
C1131 C1129 1.363 . S
C1131 C1133 1.408 . S
C1131 C1136 1.342 . S
C1132 C1133 1.310 . S
C1132 C1135 1.461 . S
C1132 H1152 0.932 . S
C1133 C1131 1.408 . S
C1133 C1132 1.310 . S
C1133 H1153 0.930 . S
C1134 C1135 1.474 . S
C1134 C1136 1.285 . S
C1134 H1154 0.929 . S
C1135 C1132 1.461 . S
C1135 C1134 1.474 . S
C1136 C1131 1.342 . S
C1136 C1134 1.285 . S
C1136 H1155 0.930 . S
C1137 C1140 1.424 . S
C1137 C1142 1.245 . S
C1137 C1143 1.428 . S
C1138 C1141 1.260 . S
C1138 C1142 1.477 . S
C1138 H1156 0.932 . S
C1139 C1140 1.384 . S
C1139 C1141 1.479 . S
C1139 H1157 0.929 . S
C1140 C1137 1.424 . S
C1140 C1139 1.384 . S
C1140 H1158 0.928 . S
C1141 C1138 1.260 . S
C1141 C1139 1.479 . S
C1142 C1137 1.245 . S
C1142 C1138 1.477 . S
C1142 H1159 0.932 . S
C1143 U1126 2.882 . S
C1143 C1137 1.428 . S
C1143 O1146 1.301 . S
C1143 O1147 1.282 . S
O1144 U1126 2.441 1_655 S
O1144 C1130 1.249 . S
O1145 U1126 2.420 1_655 S
O1145 C1130 1.202 . S
O1146 U1126 2.455 . S
O1146 C1143 1.301 . S
O1147 U1126 2.449 . S
O1147 C1143 1.282 . S
H1148 C1121 0.931 . S
H1149 C1123 0.929 . S
H1150 C1124 0.930 . S
H1151 C1125 0.931 . S
H1152 C1132 0.932 . S
H1153 C1133 0.930 . S
H1154 C1134 0.929 . S
H1155 C1136 0.930 . S
H1156 C1138 0.932 . S
H1157 C1139 0.929 . S
H1158 C1140 0.928 . S
H1159 C1142 0.932 . S
C1160 C1161 1.264 . S
C1160 C1165 1.479 . S
C1160 C1170 1.465 . S
C1161 C1160 1.264 . S
C1161 C1163 1.339 . S
C1161 H1188 0.931 . S
C1162 C1163 1.395 . S
C1162 C1164 1.320 . S
C1163 C1161 1.339 . S
C1163 C1162 1.395 . S
C1163 H1189 0.929 . S
C1164 C1162 1.320 . S
C1164 C1165 1.405 . S
C1164 H1190 0.930 . S
C1165 C1160 1.479 . S
C1165 C1164 1.405 . S
C1165 H1191 0.931 . S
U1166 O1167 2.454 . S
U1166 O1168 2.458 . S
U1166 C1169 2.984 . S
U1166 C1170 2.847 . S
U1166 C1183 2.882 . S
U1166 O1184 2.441 . S
U1166 O1185 2.420 . S
U1166 O1186 2.455 . S
U1166 O1187 2.449 . S
O1167 U1166 2.454 . S
O1167 C1169 1.353 . S
O1168 U1166 2.458 . S
O1168 C1169 1.286 . S
C1169 U1166 2.984 . S
C1169 O1167 1.353 . S
C1169 O1168 1.286 . S
C1169 C1171 1.363 . S
C1170 C1160 1.465 . S
C1170 U1166 2.847 . S
C1170 O1184 1.249 . S
C1170 O1185 1.202 . S
C1171 C1169 1.363 . S
C1171 C1173 1.408 . S
C1171 C1176 1.342 . S
C1172 C1173 1.310 . S
C1172 C1175 1.461 . S
C1172 H1192 0.932 . S
C1173 C1171 1.408 . S
C1173 C1172 1.310 . S
C1173 H1193 0.930 . S
C1174 C1175 1.474 . S
C1174 C1176 1.285 . S
C1174 H1194 0.929 . S
C1175 C1172 1.461 . S
C1175 C1174 1.474 . S
C1176 C1171 1.342 . S
C1176 C1174 1.285 . S
C1176 H1195 0.930 . S
C1177 C1180 1.424 . S
C1177 C1182 1.245 . S
C1177 C1183 1.428 . S
C1178 C1181 1.260 . S
C1178 C1182 1.477 . S
C1178 H1196 0.932 . S
C1179 C1180 1.384 . S
C1179 C1181 1.479 . S
C1179 H1197 0.929 . S
C1180 C1177 1.424 . S
C1180 C1179 1.384 . S
C1180 H1198 0.928 . S
C1181 C1178 1.260 . S
C1181 C1179 1.479 . S
C1182 C1177 1.245 . S
C1182 C1178 1.477 . S
C1182 H1199 0.932 . S
C1183 U1166 2.882 . S
C1183 C1177 1.428 . S
C1183 O1186 1.301 . S
C1183 O1187 1.282 . S
O1184 U1166 2.441 . S
O1184 C1170 1.249 . S
O1185 U1166 2.420 . S
O1185 C1170 1.202 . S
O1186 U1166 2.455 . S
O1186 C1183 1.301 . S
O1187 U1166 2.449 . S
O1187 C1183 1.282 . S
H1188 C1161 0.931 . S
H1189 C1163 0.929 . S
H1190 C1164 0.930 . S
H1191 C1165 0.931 . S
H1192 C1172 0.932 . S
H1193 C1173 0.930 . S
H1194 C1174 0.929 . S
H1195 C1176 0.930 . S
H1196 C1178 0.932 . S
H1197 C1179 0.929 . S
H1198 C1180 0.928 . S
H1199 C1182 0.932 . S
C1200 C1201 1.264 . S
C1200 C1205 1.479 . S
C1200 C1210 1.465 . S
C1201 C1200 1.264 . S
C1201 C1203 1.339 . S
C1201 H1228 0.931 . S
C1202 C1203 1.395 . S
C1202 C1204 1.320 . S
C1203 C1201 1.339 . S
C1203 C1202 1.395 . S
C1203 H1229 0.929 . S
C1204 C1202 1.320 . S
C1204 C1205 1.405 . S
C1204 H1230 0.930 . S
C1205 C1200 1.479 . S
C1205 C1204 1.405 . S
C1205 H1231 0.931 . S
U1206 O1207 2.454 . S
U1206 O1208 2.458 . S
U1206 C1209 2.984 . S
U1206 C1210 2.847 . S
U1206 C1223 2.882 . S
U1206 O1224 2.441 . S
U1206 O1225 2.420 . S
U1206 O1226 2.455 . S
U1206 O1227 2.449 . S
O1207 U1206 2.454 . S
O1207 C1209 1.353 . S
O1208 U1206 2.458 . S
O1208 C1209 1.286 . S
C1209 U1206 2.984 . S
C1209 O1207 1.353 . S
C1209 O1208 1.286 . S
C1209 C1211 1.363 . S
C1210 C1200 1.465 . S
C1210 U1206 2.847 . S
C1210 O1224 1.249 . S
C1210 O1225 1.202 . S
C1211 C1209 1.363 . S
C1211 C1213 1.408 . S
C1211 C1216 1.342 . S
C1212 C1213 1.310 . S
C1212 C1215 1.461 . S
C1212 H1232 0.932 . S
C1213 C1211 1.408 . S
C1213 C1212 1.310 . S
C1213 H1233 0.930 . S
C1214 C1215 1.474 . S
C1214 C1216 1.285 . S
C1214 H1234 0.929 . S
C1215 C1212 1.461 . S
C1215 C1214 1.474 . S
C1216 C1211 1.342 . S
C1216 C1214 1.285 . S
C1216 H1235 0.930 . S
C1217 C1220 1.424 . S
C1217 C1222 1.245 . S
C1217 C1223 1.428 . S
C1218 C1221 1.260 . S
C1218 C1222 1.477 . S
C1218 H1236 0.932 . S
C1219 C1220 1.384 . S
C1219 C1221 1.479 . S
C1219 H1237 0.929 . S
C1220 C1217 1.424 . S
C1220 C1219 1.384 . S
C1220 H1238 0.928 . S
C1221 C1218 1.260 . S
C1221 C1219 1.479 . S
C1222 C1217 1.245 . S
C1222 C1218 1.477 . S
C1222 H1239 0.932 . S
C1223 U1206 2.882 . S
C1223 C1217 1.428 . S
C1223 O1226 1.301 . S
C1223 O1227 1.282 . S
O1224 U1206 2.441 . S
O1224 C1210 1.249 . S
O1225 U1206 2.420 . S
O1225 C1210 1.202 . S
O1226 U1206 2.455 . S
O1226 C1223 1.301 . S
O1227 U1206 2.449 . S
O1227 C1223 1.282 . S
H1228 C1201 0.931 . S
H1229 C1203 0.929 . S
H1230 C1204 0.930 . S
H1231 C1205 0.931 . S
H1232 C1212 0.932 . S
H1233 C1213 0.930 . S
H1234 C1214 0.929 . S
H1235 C1216 0.930 . S
H1236 C1218 0.932 . S
H1237 C1219 0.929 . S
H1238 C1220 0.928 . S
H1239 C1222 0.932 . S
C1240 C1241 1.264 . S
C1240 C1245 1.479 . S
C1240 C1250 1.465 . S
C1241 C1240 1.264 . S
C1241 C1243 1.339 . S
C1241 H1268 0.931 . S
C1242 C1243 1.395 . S
C1242 C1244 1.320 . S
C1243 C1241 1.339 . S
C1243 C1242 1.395 . S
C1243 H1269 0.929 . S
C1244 C1242 1.320 . S
C1244 C1245 1.405 . S
C1244 H1270 0.930 . S
C1245 C1240 1.479 . S
C1245 C1244 1.405 . S
C1245 H1271 0.931 . S
U1246 O1247 2.454 . S
U1246 O1248 2.458 . S
U1246 C1249 2.984 . S
U1246 C1250 2.847 . S
U1246 C1263 2.882 . S
U1246 O1264 2.441 . S
U1246 O1265 2.420 . S
U1246 O1266 2.455 . S
U1246 O1267 2.449 . S
O1247 U1246 2.454 . S
O1247 C1249 1.353 . S
O1248 U1246 2.458 . S
O1248 C1249 1.286 . S
C1249 U1246 2.984 . S
C1249 O1247 1.353 . S
C1249 O1248 1.286 . S
C1249 C1251 1.445 . S
C1250 C1240 1.465 . S
C1250 U1246 2.847 . S
C1250 O1264 1.249 . S
C1250 O1265 1.202 . S
C1251 C1249 1.445 . S
C1251 C1253 1.334 1_655 S
C1251 C1256 1.341 . S
C1252 C1253 1.310 . S
C1252 C1255 1.461 . S
C1252 H1272 0.932 . S
C1253 C1251 1.334 1_455 S
C1253 C1252 1.310 . S
C1253 H1273 0.930 . S
C1254 C1255 1.474 . S
C1254 C1256 1.246 1_455 S
C1254 H1274 0.929 . S
C1255 C1252 1.461 . S
C1255 C1254 1.474 . S
C1256 C1251 1.341 . S
C1256 C1254 1.246 1_655 S
C1256 H1275 0.969 . S
C1257 C1260 1.424 . S
C1257 C1262 1.245 . S
C1257 C1263 1.428 . S
C1258 C1261 1.260 . S
C1258 C1262 1.477 . S
C1258 H1276 0.932 . S
C1259 C1260 1.384 . S
C1259 C1261 1.479 . S
C1259 H1277 0.929 . S
C1260 C1257 1.424 . S
C1260 C1259 1.384 . S
C1260 H1278 0.928 . S
C1261 C1258 1.260 . S
C1261 C1259 1.479 . S
C1262 C1257 1.245 . S
C1262 C1258 1.477 . S
C1262 H1279 0.932 . S
C1263 U1246 2.882 . S
C1263 C1257 1.428 . S
C1263 O1266 1.301 . S
C1263 O1267 1.282 . S
O1264 U1246 2.441 . S
O1264 C1250 1.249 . S
O1265 U1246 2.420 . S
O1265 C1250 1.202 . S
O1266 U1246 2.455 . S
O1266 C1263 1.301 . S
O1267 U1246 2.449 . S
O1267 C1263 1.282 . S
H1268 C1241 0.931 . S
H1269 C1243 0.929 . S
H1270 C1244 0.930 . S
H1271 C1245 0.931 . S
H1272 C1252 0.932 . S
H1273 C1253 0.930 . S
H1274 C1254 0.929 . S
H1275 C1256 0.969 . S
H1276 C1258 0.932 . S
H1277 C1259 0.929 . S
H1278 C1260 0.928 . S
H1279 C1262 0.932 . S
C1280 C1281 1.264 . S
C1280 C1285 1.479 . S
C1280 C1290 1.465 . S
C1281 C1280 1.264 . S
C1281 C1283 1.339 . S
C1281 H1308 0.931 . S
C1282 C1283 1.395 . S
C1282 C1284 1.320 . S
C1283 C1281 1.339 . S
C1283 C1282 1.395 . S
C1283 H1309 0.929 . S
C1284 C1282 1.320 . S
C1284 C1285 1.405 . S
C1284 H1310 0.930 . S
C1285 C1280 1.479 . S
C1285 C1284 1.405 . S
C1285 H1311 0.931 . S
U1286 O1287 2.454 . S
U1286 O1288 2.458 . S
U1286 C1289 2.984 . S
U1286 C1290 2.847 . S
U1286 C1303 2.882 . S
U1286 O1304 2.441 . S
U1286 O1305 2.420 . S
U1286 O1306 2.455 . S
U1286 O1307 2.449 . S
O1287 U1286 2.454 . S
O1287 C1289 1.353 . S
O1288 U1286 2.458 . S
O1288 C1289 1.286 . S
C1289 U1286 2.984 . S
C1289 O1287 1.353 . S
C1289 O1288 1.286 . S
C1289 C1291 1.363 . S
C1290 C1280 1.465 . S
C1290 U1286 2.847 . S
C1290 O1304 1.249 . S
C1290 O1305 1.202 . S
C1291 C1289 1.363 . S
C1291 C1293 1.408 . S
C1291 C1296 1.342 . S
C1292 C1293 1.310 . S
C1292 C1295 1.461 . S
C1292 H1312 0.932 . S
C1293 C1291 1.408 . S
C1293 C1292 1.310 . S
C1293 H1313 0.930 . S
C1294 C1295 1.474 . S
C1294 C1296 1.285 . S
C1294 H1314 0.929 . S
C1295 C1292 1.461 . S
C1295 C1294 1.474 . S
C1296 C1291 1.342 . S
C1296 C1294 1.285 . S
C1296 H1315 0.930 . S
C1297 C1300 1.424 . S
C1297 C1302 1.245 . S
C1297 C1303 1.428 . S
C1298 C1301 1.260 . S
C1298 C1302 1.477 . S
C1298 H1316 0.932 . S
C1299 C1300 1.384 . S
C1299 C1301 1.479 . S
C1299 H1317 0.929 . S
C1300 C1297 1.424 . S
C1300 C1299 1.384 . S
C1300 H1318 0.928 . S
C1301 C1298 1.260 . S
C1301 C1299 1.479 . S
C1302 C1297 1.245 . S
C1302 C1298 1.477 . S
C1302 H1319 0.932 . S
C1303 U1286 2.882 . S
C1303 C1297 1.428 . S
C1303 O1306 1.301 . S
C1303 O1307 1.282 . S
O1304 U1286 2.441 . S
O1304 C1290 1.249 . S
O1305 U1286 2.420 . S
O1305 C1290 1.202 . S
O1306 U1286 2.455 . S
O1306 C1303 1.301 . S
O1307 U1286 2.449 . S
O1307 C1303 1.282 . S
H1308 C1281 0.931 . S
H1309 C1283 0.929 . S
H1310 C1284 0.930 . S
H1311 C1285 0.931 . S
H1312 C1292 0.932 . S
H1313 C1293 0.930 . S
H1314 C1294 0.929 . S
H1315 C1296 0.930 . S
H1316 C1298 0.932 . S
H1317 C1299 0.929 . S
H1318 C1300 0.928 . S
H1319 C1302 0.932 . S
C1320 C1321 1.264 . S
C1320 C1325 1.479 . S
C1320 C1330 1.465 . S
C1321 C1320 1.264 . S
C1321 C1323 1.339 . S
C1321 H1348 0.931 . S
C1322 C1323 1.395 . S
C1322 C1324 1.320 . S
C1323 C1321 1.339 . S
C1323 C1322 1.395 . S
C1323 H1349 0.929 . S
C1324 C1322 1.320 . S
C1324 C1325 1.405 . S
C1324 H1350 0.930 . S
C1325 C1320 1.479 . S
C1325 C1324 1.405 . S
C1325 H1351 0.931 . S
U1326 O1327 2.454 . S
U1326 O1328 2.458 . S
U1326 C1329 2.984 . S
U1326 C1330 2.847 . S
U1326 C1343 2.882 . S
U1326 O1344 2.441 . S
U1326 O1345 2.420 . S
U1326 O1346 2.455 . S
U1326 O1347 2.449 . S
O1327 U1326 2.454 . S
O1327 C1329 1.353 . S
O1328 U1326 2.458 . S
O1328 C1329 1.286 . S
C1329 U1326 2.984 . S
C1329 O1327 1.353 . S
C1329 O1328 1.286 . S
C1329 C1331 1.363 . S
C1330 C1320 1.465 . S
C1330 U1326 2.847 . S
C1330 O1344 1.249 . S
C1330 O1345 1.202 . S
C1331 C1329 1.363 . S
C1331 C1333 1.408 1_556 S
C1331 C1336 1.342 . S
C1332 C1333 1.310 . S
C1332 C1335 1.461 . S
C1332 H1352 0.932 . S
C1333 C1331 1.408 1_554 S
C1333 C1332 1.310 . S
C1333 H1353 0.930 . S
C1334 C1335 1.474 . S
C1334 C1336 1.285 1_554 S
C1334 H1354 0.929 . S
C1335 C1332 1.461 . S
C1335 C1334 1.474 . S
C1336 C1331 1.342 . S
C1336 C1334 1.285 1_556 S
C1336 H1355 0.930 . S
C1337 C1340 1.424 . S
C1337 C1342 1.245 . S
C1337 C1343 1.428 . S
C1338 C1341 1.260 . S
C1338 C1342 1.477 . S
C1338 H1356 0.932 . S
C1339 C1340 1.384 . S
C1339 C1341 1.479 . S
C1339 H1357 0.929 . S
C1340 C1337 1.424 . S
C1340 C1339 1.384 . S
C1340 H1358 0.928 . S
C1341 C1338 1.260 . S
C1341 C1339 1.479 . S
C1342 C1337 1.245 . S
C1342 C1338 1.477 . S
C1342 H1359 0.932 . S
C1343 U1326 2.882 . S
C1343 C1337 1.428 . S
C1343 O1346 1.301 . S
C1343 O1347 1.282 . S
O1344 U1326 2.441 . S
O1344 C1330 1.249 . S
O1345 U1326 2.420 . S
O1345 C1330 1.202 . S
O1346 U1326 2.455 . S
O1346 C1343 1.301 . S
O1347 U1326 2.449 . S
O1347 C1343 1.282 . S
H1348 C1321 0.931 . S
H1349 C1323 0.929 . S
H1350 C1324 0.930 . S
H1351 C1325 0.931 . S
H1352 C1332 0.932 . S
H1353 C1333 0.930 . S
H1354 C1334 0.929 . S
H1355 C1336 0.930 . S
H1356 C1338 0.932 . S
H1357 C1339 0.929 . S
H1358 C1340 0.928 . S
H1359 C1342 0.932 . S
C1360 C1361 1.264 . S
C1360 C1365 1.479 . S
C1360 C1370 1.465 . S
C1361 C1360 1.264 . S
C1361 C1363 1.339 . S
C1361 H1388 0.931 . S
C1362 C1363 1.395 . S
C1362 C1364 1.320 . S
C1363 C1361 1.339 . S
C1363 C1362 1.395 . S
C1363 H1389 0.929 . S
C1364 C1362 1.320 . S
C1364 C1365 1.405 . S
C1364 H1390 0.930 . S
C1365 C1360 1.479 . S
C1365 C1364 1.405 . S
C1365 H1391 0.931 . S
U1366 O1367 2.454 . S
U1366 O1368 2.458 . S
U1366 C1369 2.984 . S
U1366 C1370 2.847 . S
U1366 C1383 2.882 . S
U1366 O1384 2.441 . S
U1366 O1385 2.420 . S
U1366 O1386 2.455 . S
U1366 O1387 2.449 . S
O1367 U1366 2.454 . S
O1367 C1369 1.353 . S
O1368 U1366 2.458 . S
O1368 C1369 1.286 . S
C1369 U1366 2.984 . S
C1369 O1367 1.353 . S
C1369 O1368 1.286 . S
C1369 C1371 1.363 . S
C1370 C1360 1.465 . S
C1370 U1366 2.847 . S
C1370 O1384 1.249 . S
C1370 O1385 1.202 . S
C1371 C1369 1.363 . S
C1371 C1373 1.408 . S
C1371 C1376 1.342 . S
C1372 C1373 1.310 . S
C1372 C1375 1.461 . S
C1372 H1392 0.932 . S
C1373 C1371 1.408 . S
C1373 C1372 1.310 . S
C1373 H1393 0.930 . S
C1374 C1375 1.474 . S
C1374 C1376 1.285 . S
C1374 H1394 0.929 . S
C1375 C1372 1.461 . S
C1375 C1374 1.474 . S
C1376 C1371 1.342 . S
C1376 C1374 1.285 . S
C1376 H1395 0.930 . S
C1377 C1380 1.424 . S
C1377 C1382 1.245 . S
C1377 C1383 1.428 . S
C1378 C1381 1.260 . S
C1378 C1382 1.477 . S
C1378 H1396 0.932 . S
C1379 C1380 1.384 . S
C1379 C1381 1.479 . S
C1379 H1397 0.929 . S
C1380 C1377 1.424 . S
C1380 C1379 1.384 . S
C1380 H1398 0.928 . S
C1381 C1378 1.260 . S
C1381 C1379 1.479 . S
C1382 C1377 1.245 . S
C1382 C1378 1.477 . S
C1382 H1399 0.932 . S
C1383 U1366 2.882 . S
C1383 C1377 1.428 . S
C1383 O1386 1.301 . S
C1383 O1387 1.282 . S
O1384 U1366 2.441 . S
O1384 C1370 1.249 . S
O1385 U1366 2.420 . S
O1385 C1370 1.202 . S
O1386 U1366 2.455 . S
O1386 C1383 1.301 . S
O1387 U1366 2.449 . S
O1387 C1383 1.282 . S
H1388 C1361 0.931 . S
H1389 C1363 0.929 . S
H1390 C1364 0.930 . S
H1391 C1365 0.931 . S
H1392 C1372 0.932 . S
H1393 C1373 0.930 . S
H1394 C1374 0.929 . S
H1395 C1376 0.930 . S
H1396 C1378 0.932 . S
H1397 C1379 0.929 . S
H1398 C1380 0.928 . S
H1399 C1382 0.932 . S
C1400 C1401 1.264 . S
C1400 C1405 1.479 . S
C1400 C1410 1.465 . S
C1401 C1400 1.264 . S
C1401 C1403 1.339 . S
C1401 H1428 0.931 . S
C1402 C1403 1.395 . S
C1402 C1404 1.320 . S
C1403 C1401 1.339 . S
C1403 C1402 1.395 . S
C1403 H1429 0.929 . S
C1404 C1402 1.320 . S
C1404 C1405 1.405 . S
C1404 H1430 0.930 . S
C1405 C1400 1.479 . S
C1405 C1404 1.405 . S
C1405 H1431 0.931 . S
U1406 O1407 2.454 . S
U1406 O1408 2.458 . S
U1406 C1409 2.984 . S
U1406 C1410 2.847 . S
U1406 C1423 2.882 . S
U1406 O1424 2.441 . S
U1406 O1425 2.420 . S
U1406 O1426 2.455 . S
U1406 O1427 2.449 . S
O1407 U1406 2.454 . S
O1407 C1409 1.353 . S
O1408 U1406 2.458 . S
O1408 C1409 1.286 . S
C1409 U1406 2.984 . S
C1409 O1407 1.353 . S
C1409 O1408 1.286 . S
C1409 C1411 1.363 . S
C1410 C1400 1.465 . S
C1410 U1406 2.847 . S
C1410 O1424 1.249 . S
C1410 O1425 1.202 . S
C1411 C1409 1.363 . S
C1411 C1413 1.408 . S
C1411 C1416 1.342 . S
C1412 C1413 1.310 . S
C1412 C1415 1.461 . S
C1412 H1432 0.932 . S
C1413 C1411 1.408 . S
C1413 C1412 1.310 . S
C1413 H1433 0.930 . S
C1414 C1415 1.474 . S
C1414 C1416 1.285 . S
C1414 H1434 0.929 . S
C1415 C1412 1.461 . S
C1415 C1414 1.474 . S
C1416 C1411 1.342 . S
C1416 C1414 1.285 . S
C1416 H1435 0.930 . S
C1417 C1420 1.424 . S
C1417 C1422 1.245 . S
C1417 C1423 1.428 . S
C1418 C1421 1.260 . S
C1418 C1422 1.477 . S
C1418 H1436 0.932 . S
C1419 C1420 1.384 . S
C1419 C1421 1.479 . S
C1419 H1437 0.929 . S
C1420 C1417 1.424 . S
C1420 C1419 1.384 . S
C1420 H1438 0.928 . S
C1421 C1418 1.260 . S
C1421 C1419 1.479 . S
C1422 C1417 1.245 . S
C1422 C1418 1.477 . S
C1422 H1439 0.932 . S
C1423 U1406 2.882 . S
C1423 C1417 1.428 . S
C1423 O1426 1.301 . S
C1423 O1427 1.282 . S
O1424 U1406 2.441 . S
O1424 C1410 1.249 . S
O1425 U1406 2.420 . S
O1425 C1410 1.202 . S
O1426 U1406 2.455 . S
O1426 C1423 1.301 . S
O1427 U1406 2.449 . S
O1427 C1423 1.282 . S
H1428 C1401 0.931 . S
H1429 C1403 0.929 . S
H1430 C1404 0.930 . S
H1431 C1405 0.931 . S
H1432 C1412 0.932 . S
H1433 C1413 0.930 . S
H1434 C1414 0.929 . S
H1435 C1416 0.930 . S
H1436 C1418 0.932 . S
H1437 C1419 0.929 . S
H1438 C1420 0.928 . S
H1439 C1422 0.932 . S
C1440 C1441 1.264 . S
C1440 C1445 1.479 . S
C1440 C1450 1.465 . S
C1441 C1440 1.264 . S
C1441 C1443 1.339 . S
C1441 H1468 0.931 . S
C1442 C1443 1.395 . S
C1442 C1444 1.320 . S
C1443 C1441 1.339 . S
C1443 C1442 1.395 . S
C1443 H1469 0.929 . S
C1444 C1442 1.320 . S
C1444 C1445 1.405 . S
C1444 H1470 0.930 . S
C1445 C1440 1.479 . S
C1445 C1444 1.405 . S
C1445 H1471 0.931 . S
U1446 O1447 2.454 . S
U1446 O1448 2.458 . S
U1446 C1449 2.984 . S
U1446 C1450 2.847 . S
U1446 C1463 2.882 . S
U1446 O1464 2.441 . S
U1446 O1465 2.420 . S
U1446 O1466 2.455 . S
U1446 O1467 2.449 . S
O1447 U1446 2.454 . S
O1447 C1449 1.353 . S
O1448 U1446 2.458 . S
O1448 C1449 1.286 . S
C1449 U1446 2.984 . S
C1449 O1447 1.353 . S
C1449 O1448 1.286 . S
C1449 C1451 1.363 . S
C1450 C1440 1.465 . S
C1450 U1446 2.847 . S
C1450 O1464 1.249 . S
C1450 O1465 1.202 . S
C1451 C1449 1.363 . S
C1451 C1453 1.408 . S
C1451 C1456 1.342 . S
C1452 C1453 1.310 . S
C1452 C1455 1.461 . S
C1452 H1472 0.932 . S
C1453 C1451 1.408 . S
C1453 C1452 1.310 . S
C1453 H1473 0.930 . S
C1454 C1455 1.474 . S
C1454 C1456 1.285 . S
C1454 H1474 0.929 . S
C1455 C1452 1.461 . S
C1455 C1454 1.474 . S
C1456 C1451 1.342 . S
C1456 C1454 1.285 . S
C1456 H1475 0.930 . S
C1457 C1460 1.424 . S
C1457 C1462 1.245 . S
C1457 C1463 1.428 . S
C1458 C1461 1.260 . S
C1458 C1462 1.477 . S
C1458 H1476 0.932 . S
C1459 C1460 1.384 . S
C1459 C1461 1.479 . S
C1459 H1477 0.929 . S
C1460 C1457 1.424 . S
C1460 C1459 1.384 . S
C1460 H1478 0.928 . S
C1461 C1458 1.260 . S
C1461 C1459 1.479 . S
C1462 C1457 1.245 . S
C1462 C1458 1.477 . S
C1462 H1479 0.932 . S
C1463 U1446 2.882 . S
C1463 C1457 1.428 . S
C1463 O1466 1.301 . S
C1463 O1467 1.282 . S
O1464 U1446 2.441 . S
O1464 C1450 1.249 . S
O1465 U1446 2.420 . S
O1465 C1450 1.202 . S
O1466 U1446 2.455 . S
O1466 C1463 1.301 . S
O1467 U1446 2.449 . S
O1467 C1463 1.282 . S
H1468 C1441 0.931 . S
H1469 C1443 0.929 . S
H1470 C1444 0.930 . S
H1471 C1445 0.931 . S
H1472 C1452 0.932 . S
H1473 C1453 0.930 . S
H1474 C1454 0.929 . S
H1475 C1456 0.930 . S
H1476 C1458 0.932 . S
H1477 C1459 0.929 . S
H1478 C1460 0.928 . S
H1479 C1462 0.932 . S
C1480 C1481 1.264 . S
C1480 C1485 1.479 . S
C1480 C1490 1.465 . S
C1481 C1480 1.264 . S
C1481 C1483 1.339 . S
C1481 H1508 0.931 . S
C1482 C1483 1.395 . S
C1482 C1484 1.320 . S
C1483 C1481 1.339 . S
C1483 C1482 1.395 . S
C1483 H1509 0.929 . S
C1484 C1482 1.320 . S
C1484 C1485 1.405 . S
C1484 H1510 0.930 . S
C1485 C1480 1.479 . S
C1485 C1484 1.405 . S
C1485 H1511 0.931 . S
U1486 O1487 2.454 . S
U1486 O1488 2.458 . S
U1486 C1489 2.984 . S
U1486 C1490 2.847 . S
U1486 C1503 2.882 . S
U1486 O1504 2.441 . S
U1486 O1505 2.420 . S
U1486 O1506 2.455 . S
U1486 O1507 2.449 . S
O1487 U1486 2.454 . S
O1487 C1489 1.353 . S
O1488 U1486 2.458 . S
O1488 C1489 1.286 . S
C1489 U1486 2.984 . S
C1489 O1487 1.353 . S
C1489 O1488 1.286 . S
C1489 C1491 1.363 . S
C1490 C1480 1.465 . S
C1490 U1486 2.847 . S
C1490 O1504 1.249 . S
C1490 O1505 1.202 . S
C1491 C1489 1.363 . S
C1491 C1493 1.408 . S
C1491 C1496 1.342 . S
C1492 C1493 1.310 . S
C1492 C1495 1.461 . S
C1492 H1512 0.932 . S
C1493 C1491 1.408 . S
C1493 C1492 1.310 . S
C1493 H1513 0.930 . S
C1494 C1495 1.474 . S
C1494 C1496 1.285 . S
C1494 H1514 0.929 . S
C1495 C1492 1.461 . S
C1495 C1494 1.474 . S
C1496 C1491 1.342 . S
C1496 C1494 1.285 . S
C1496 H1515 0.930 . S
C1497 C1500 1.424 . S
C1497 C1502 1.245 . S
C1497 C1503 1.428 . S
C1498 C1501 1.260 . S
C1498 C1502 1.477 . S
C1498 H1516 0.932 . S
C1499 C1500 1.384 . S
C1499 C1501 1.479 . S
C1499 H1517 0.929 . S
C1500 C1497 1.424 . S
C1500 C1499 1.384 . S
C1500 H1518 0.928 . S
C1501 C1498 1.260 . S
C1501 C1499 1.479 . S
C1502 C1497 1.245 . S
C1502 C1498 1.477 . S
C1502 H1519 0.932 . S
C1503 U1486 2.882 . S
C1503 C1497 1.428 . S
C1503 O1506 1.301 . S
C1503 O1507 1.282 . S
O1504 U1486 2.441 . S
O1504 C1490 1.249 . S
O1505 U1486 2.420 . S
O1505 C1490 1.202 . S
O1506 U1486 2.455 . S
O1506 C1503 1.301 . S
O1507 U1486 2.449 . S
O1507 C1503 1.282 . S
H1508 C1481 0.931 . S
H1509 C1483 0.929 . S
H1510 C1484 0.930 . S
H1511 C1485 0.931 . S
H1512 C1492 0.932 . S
H1513 C1493 0.930 . S
H1514 C1494 0.929 . S
H1515 C1496 0.930 . S
H1516 C1498 0.932 . S
H1517 C1499 0.929 . S
H1518 C1500 0.928 . S
H1519 C1502 0.932 . S
C1520 C1521 1.264 . S
C1520 C1525 1.479 . S
C1520 C1530 1.465 . S
C1521 C1520 1.264 . S
C1521 C1523 1.339 . S
C1521 H1548 0.931 . S
C1522 C1523 1.395 . S
C1522 C1524 1.320 . S
C1523 C1521 1.339 . S
C1523 C1522 1.395 . S
C1523 H1549 0.929 . S
C1524 C1522 1.320 . S
C1524 C1525 1.405 . S
C1524 H1550 0.930 . S
C1525 C1520 1.479 . S
C1525 C1524 1.405 . S
C1525 H1551 0.931 . S
U1526 O1527 2.454 . S
U1526 O1528 2.458 . S
U1526 C1529 2.984 . S
U1526 C1530 2.847 . S
U1526 C1543 2.882 . S
U1526 O1544 2.441 . S
U1526 O1545 2.420 . S
U1526 O1546 2.455 . S
U1526 O1547 2.449 . S
O1527 U1526 2.454 . S
O1527 C1529 1.353 . S
O1528 U1526 2.458 . S
O1528 C1529 1.286 . S
C1529 U1526 2.984 . S
C1529 O1527 1.353 . S
C1529 O1528 1.286 . S
C1529 C1531 1.363 . S
C1530 C1520 1.465 . S
C1530 U1526 2.847 . S
C1530 O1544 1.249 . S
C1530 O1545 1.202 . S
C1531 C1529 1.363 . S
C1531 C1533 1.408 . S
C1531 C1536 1.342 . S
C1532 C1533 1.310 . S
C1532 C1535 1.461 . S
C1532 H1552 0.932 . S
C1533 C1531 1.408 . S
C1533 C1532 1.310 . S
C1533 H1553 0.930 . S
C1534 C1535 1.474 . S
C1534 C1536 1.285 . S
C1534 H1554 0.929 . S
C1535 C1532 1.461 . S
C1535 C1534 1.474 . S
C1536 C1531 1.342 . S
C1536 C1534 1.285 . S
C1536 H1555 0.930 . S
C1537 C1540 1.424 . S
C1537 C1542 1.245 . S
C1537 C1543 1.428 . S
C1538 C1541 1.260 . S
C1538 C1542 1.477 . S
C1538 H1556 0.932 . S
C1539 C1540 1.384 . S
C1539 C1541 1.479 . S
C1539 H1557 0.929 . S
C1540 C1537 1.424 . S
C1540 C1539 1.384 . S
C1540 H1558 0.928 . S
C1541 C1538 1.260 . S
C1541 C1539 1.479 . S
C1542 C1537 1.245 . S
C1542 C1538 1.477 . S
C1542 H1559 0.932 . S
C1543 U1526 2.882 . S
C1543 C1537 1.428 . S
C1543 O1546 1.301 . S
C1543 O1547 1.282 . S
O1544 U1526 2.441 . S
O1544 C1530 1.249 . S
O1545 U1526 2.420 . S
O1545 C1530 1.202 . S
O1546 U1526 2.455 . S
O1546 C1543 1.301 . S
O1547 U1526 2.449 . S
O1547 C1543 1.282 . S
H1548 C1521 0.931 . S
H1549 C1523 0.929 . S
H1550 C1524 0.930 . S
H1551 C1525 0.931 . S
H1552 C1532 0.932 . S
H1553 C1533 0.930 . S
H1554 C1534 0.929 . S
H1555 C1536 0.930 . S
H1556 C1538 0.932 . S
H1557 C1539 0.929 . S
H1558 C1540 0.928 . S
H1559 C1542 0.932 . S
C1560 C1561 1.264 . S
C1560 C1565 1.479 . S
C1560 C1570 1.465 . S
C1561 C1560 1.264 . S
C1561 C1563 1.339 . S
C1561 H1588 0.931 . S
C1562 C1563 1.395 . S
C1562 C1564 1.320 . S
C1563 C1561 1.339 . S
C1563 C1562 1.395 . S
C1563 H1589 0.929 . S
C1564 C1562 1.320 . S
C1564 C1565 1.405 . S
C1564 H1590 0.930 . S
C1565 C1560 1.479 . S
C1565 C1564 1.405 . S
C1565 H1591 0.931 . S
U1566 O1567 2.454 . S
U1566 O1568 2.458 . S
U1566 C1569 2.984 . S
U1566 C1570 2.847 . S
U1566 C1583 2.882 . S
U1566 O1584 2.441 . S
U1566 O1585 2.420 . S
U1566 O1586 2.455 . S
U1566 O1587 2.449 . S
O1567 U1566 2.454 . S
O1567 C1569 1.353 . S
O1568 U1566 2.458 . S
O1568 C1569 1.286 . S
C1569 U1566 2.984 . S
C1569 O1567 1.353 . S
C1569 O1568 1.286 . S
C1569 C1571 1.363 . S
C1570 C1560 1.465 . S
C1570 U1566 2.847 . S
C1570 O1584 1.249 . S
C1570 O1585 1.202 . S
C1571 C1569 1.363 . S
C1571 C1573 1.408 . S
C1571 C1576 1.342 . S
C1572 C1573 1.310 . S
C1572 C1575 1.461 . S
C1572 H1592 0.932 . S
C1573 C1571 1.408 . S
C1573 C1572 1.310 . S
C1573 H1593 0.930 . S
C1574 C1575 1.474 . S
C1574 C1576 1.285 . S
C1574 H1594 0.929 . S
C1575 C1572 1.461 . S
C1575 C1574 1.474 . S
C1576 C1571 1.342 . S
C1576 C1574 1.285 . S
C1576 H1595 0.930 . S
C1577 C1580 1.424 . S
C1577 C1582 1.245 . S
C1577 C1583 1.428 . S
C1578 C1581 1.260 . S
C1578 C1582 1.477 . S
C1578 H1596 0.932 . S
C1579 C1580 1.384 . S
C1579 C1581 1.479 . S
C1579 H1597 0.929 . S
C1580 C1577 1.424 . S
C1580 C1579 1.384 . S
C1580 H1598 0.928 . S
C1581 C1578 1.260 . S
C1581 C1579 1.479 . S
C1582 C1577 1.245 . S
C1582 C1578 1.477 . S
C1582 H1599 0.932 . S
C1583 U1566 2.882 . S
C1583 C1577 1.428 . S
C1583 O1586 1.301 . S
C1583 O1587 1.282 . S
O1584 U1566 2.441 . S
O1584 C1570 1.249 . S
O1585 U1566 2.420 . S
O1585 C1570 1.202 . S
O1586 U1566 2.455 . S
O1586 C1583 1.301 . S
O1587 U1566 2.449 . S
O1587 C1583 1.282 . S
H1588 C1561 0.931 . S
H1589 C1563 0.929 . S
H1590 C1564 0.930 . S
H1591 C1565 0.931 . S
H1592 C1572 0.932 . S
H1593 C1573 0.930 . S
H1594 C1574 0.929 . S
H1595 C1576 0.930 . S
H1596 C1578 0.932 . S
H1597 C1579 0.929 . S
H1598 C1580 0.928 . S
H1599 C1582 0.932 . S
C1600 C1601 1.264 . S
C1600 C1605 1.479 . S
C1600 C1610 1.465 . S
C1601 C1600 1.264 . S
C1601 C1603 1.339 . S
C1601 H1628 0.931 . S
C1602 C1603 1.395 . S
C1602 C1604 1.320 . S
C1603 C1601 1.339 . S
C1603 C1602 1.395 . S
C1603 H1629 0.929 . S
C1604 C1602 1.320 . S
C1604 C1605 1.405 . S
C1604 H1630 0.930 . S
C1605 C1600 1.479 . S
C1605 C1604 1.405 . S
C1605 H1631 0.931 . S
U1606 O1607 2.454 . S
U1606 O1608 2.458 . S
U1606 C1609 2.984 . S
U1606 C1610 2.847 1_455 S
U1606 C1623 2.882 . S
U1606 O1624 2.441 1_455 S
U1606 O1625 2.420 1_455 S
U1606 O1626 2.455 . S
U1606 O1627 2.449 . S
O1607 U1606 2.454 . S
O1607 C1609 1.353 . S
O1608 U1606 2.458 . S
O1608 C1609 1.286 . S
C1609 U1606 2.984 . S
C1609 O1607 1.353 . S
C1609 O1608 1.286 . S
C1609 C1611 1.363 . S
C1610 C1600 1.465 . S
C1610 U1606 2.847 1_655 S
C1610 O1624 1.249 . S
C1610 O1625 1.202 . S
C1611 C1609 1.363 . S
C1611 C1613 1.408 . S
C1611 C1616 1.342 . S
C1612 C1613 1.310 . S
C1612 C1615 1.461 . S
C1612 H1632 0.932 . S
C1613 C1611 1.408 . S
C1613 C1612 1.310 . S
C1613 H1633 0.930 . S
C1614 C1615 1.474 . S
C1614 C1616 1.285 . S
C1614 H1634 0.929 . S
C1615 C1612 1.461 . S
C1615 C1614 1.474 . S
C1616 C1611 1.342 . S
C1616 C1614 1.285 . S
C1616 H1635 0.930 . S
C1617 C1620 1.424 . S
C1617 C1622 1.245 . S
C1617 C1623 1.428 . S
C1618 C1621 1.260 . S
C1618 C1622 1.477 . S
C1618 H1636 0.932 . S
C1619 C1620 1.384 . S
C1619 C1621 1.479 . S
C1619 H1637 0.929 . S
C1620 C1617 1.424 . S
C1620 C1619 1.384 . S
C1620 H1638 0.928 . S
C1621 C1618 1.260 . S
C1621 C1619 1.479 . S
C1622 C1617 1.245 . S
C1622 C1618 1.477 . S
C1622 H1639 0.932 . S
C1623 U1606 2.882 . S
C1623 C1617 1.428 . S
C1623 O1626 1.301 . S
C1623 O1627 1.282 . S
O1624 U1606 2.441 1_655 S
O1624 C1610 1.249 . S
O1625 U1606 2.420 1_655 S
O1625 C1610 1.202 . S
O1626 U1606 2.455 . S
O1626 C1623 1.301 . S
O1627 U1606 2.449 . S
O1627 C1623 1.282 . S
H1628 C1601 0.931 . S
H1629 C1603 0.929 . S
H1630 C1604 0.930 . S
H1631 C1605 0.931 . S
H1632 C1612 0.932 . S
H1633 C1613 0.930 . S
H1634 C1614 0.929 . S
H1635 C1616 0.930 . S
H1636 C1618 0.932 . S
H1637 C1619 0.929 . S
H1638 C1620 0.928 . S
H1639 C1622 0.932 . S
C1640 C1641 1.264 . S
C1640 C1645 1.479 . S
C1640 C1650 1.465 . S
C1641 C1640 1.264 . S
C1641 C1643 1.339 . S
C1641 H1668 0.931 . S
C1642 C1643 1.395 . S
C1642 C1644 1.320 . S
C1643 C1641 1.339 . S
C1643 C1642 1.395 . S
C1643 H1669 0.929 . S
C1644 C1642 1.320 . S
C1644 C1645 1.405 . S
C1644 H1670 0.930 . S
C1645 C1640 1.479 . S
C1645 C1644 1.405 . S
C1645 H1671 0.931 . S
U1646 O1647 2.454 . S
U1646 O1648 2.458 . S
U1646 C1649 2.984 . S
U1646 C1650 2.847 . S
U1646 C1663 2.882 . S
U1646 O1664 2.441 . S
U1646 O1665 2.420 . S
U1646 O1666 2.455 . S
U1646 O1667 2.449 . S
O1647 U1646 2.454 . S
O1647 C1649 1.353 . S
O1648 U1646 2.458 . S
O1648 C1649 1.286 . S
C1649 U1646 2.984 . S
C1649 O1647 1.353 . S
C1649 O1648 1.286 . S
C1649 C1651 1.363 . S
C1650 C1640 1.465 . S
C1650 U1646 2.847 . S
C1650 O1664 1.249 . S
C1650 O1665 1.202 . S
C1651 C1649 1.363 . S
C1651 C1653 1.408 . S
C1651 C1656 1.342 . S
C1652 C1653 1.310 . S
C1652 C1655 1.461 . S
C1652 H1672 0.932 . S
C1653 C1651 1.408 . S
C1653 C1652 1.310 . S
C1653 H1673 0.930 . S
C1654 C1655 1.474 . S
C1654 C1656 1.285 . S
C1654 H1674 0.929 . S
C1655 C1652 1.461 . S
C1655 C1654 1.474 . S
C1656 C1651 1.342 . S
C1656 C1654 1.285 . S
C1656 H1675 0.930 . S
C1657 C1660 1.424 . S
C1657 C1662 1.245 . S
C1657 C1663 1.428 . S
C1658 C1661 1.260 . S
C1658 C1662 1.477 . S
C1658 H1676 0.932 . S
C1659 C1660 1.384 . S
C1659 C1661 1.479 . S
C1659 H1677 0.929 . S
C1660 C1657 1.424 . S
C1660 C1659 1.384 . S
C1660 H1678 0.928 . S
C1661 C1658 1.260 . S
C1661 C1659 1.479 . S
C1662 C1657 1.245 . S
C1662 C1658 1.477 . S
C1662 H1679 0.932 . S
C1663 U1646 2.882 . S
C1663 C1657 1.428 . S
C1663 O1666 1.301 . S
C1663 O1667 1.282 . S
O1664 U1646 2.441 . S
O1664 C1650 1.249 . S
O1665 U1646 2.420 . S
O1665 C1650 1.202 . S
O1666 U1646 2.455 . S
O1666 C1663 1.301 . S
O1667 U1646 2.449 . S
O1667 C1663 1.282 . S
H1668 C1641 0.931 . S
H1669 C1643 0.929 . S
H1670 C1644 0.930 . S
H1671 C1645 0.931 . S
H1672 C1652 0.932 . S
H1673 C1653 0.930 . S
H1674 C1654 0.929 . S
H1675 C1656 0.930 . S
H1676 C1658 0.932 . S
H1677 C1659 0.929 . S
H1678 C1660 0.928 . S
H1679 C1662 0.932 . S
C1680 C1681 1.264 . S
C1680 C1685 1.479 . S
C1680 C1690 1.465 . S
C1681 C1680 1.264 . S
C1681 C1683 1.339 . S
C1681 H1708 0.931 . S
C1682 C1683 1.395 . S
C1682 C1684 1.320 . S
C1683 C1681 1.339 . S
C1683 C1682 1.395 . S
C1683 H1709 0.929 . S
C1684 C1682 1.320 . S
C1684 C1685 1.405 . S
C1684 H1710 0.930 . S
C1685 C1680 1.479 . S
C1685 C1684 1.405 . S
C1685 H1711 0.931 . S
U1686 O1687 2.454 1_554 S
U1686 O1688 2.458 1_554 S
U1686 C1689 2.984 1_554 S
U1686 C1690 2.847 . S
U1686 C1703 2.882 . S
U1686 O1704 2.441 . S
U1686 O1705 2.420 . S
U1686 O1706 2.455 . S
U1686 O1707 2.449 . S
O1687 U1686 2.454 1_556 S
O1687 C1689 1.353 . S
O1688 U1686 2.458 1_556 S
O1688 C1689 1.286 . S
C1689 U1686 2.984 1_556 S
C1689 O1687 1.353 . S
C1689 O1688 1.286 . S
C1689 C1691 1.363 . S
C1690 C1680 1.465 . S
C1690 U1686 2.847 . S
C1690 O1704 1.249 . S
C1690 O1705 1.202 . S
C1691 C1689 1.363 . S
C1691 C1693 1.408 . S
C1691 C1696 1.342 . S
C1692 C1693 1.310 . S
C1692 C1695 1.461 . S
C1692 H1712 0.932 . S
C1693 C1691 1.408 . S
C1693 C1692 1.310 . S
C1693 H1713 0.930 . S
C1694 C1695 1.474 . S
C1694 C1696 1.285 . S
C1694 H1714 0.929 . S
C1695 C1692 1.461 . S
C1695 C1694 1.474 . S
C1696 C1691 1.342 . S
C1696 C1694 1.285 . S
C1696 H1715 0.930 . S
C1697 C1700 1.424 . S
C1697 C1702 1.245 . S
C1697 C1703 1.428 . S
C1698 C1701 1.260 . S
C1698 C1702 1.477 . S
C1698 H1716 0.932 . S
C1699 C1700 1.384 . S
C1699 C1701 1.479 . S
C1699 H1717 0.929 . S
C1700 C1697 1.424 . S
C1700 C1699 1.384 . S
C1700 H1718 0.928 . S
C1701 C1698 1.260 . S
C1701 C1699 1.479 . S
C1702 C1697 1.245 . S
C1702 C1698 1.477 . S
C1702 H1719 0.932 . S
C1703 U1686 2.882 . S
C1703 C1697 1.428 . S
C1703 O1706 1.301 . S
C1703 O1707 1.282 . S
O1704 U1686 2.441 . S
O1704 C1690 1.249 . S
O1705 U1686 2.420 . S
O1705 C1690 1.202 . S
O1706 U1686 2.455 . S
O1706 C1703 1.301 . S
O1707 U1686 2.449 . S
O1707 C1703 1.282 . S
H1708 C1681 0.931 . S
H1709 C1683 0.929 . S
H1710 C1684 0.930 . S
H1711 C1685 0.931 . S
H1712 C1692 0.932 . S
H1713 C1693 0.930 . S
H1714 C1694 0.929 . S
H1715 C1696 0.930 . S
H1716 C1698 0.932 . S
H1717 C1699 0.929 . S
H1718 C1700 0.928 . S
H1719 C1702 0.932 . S
C1720 C1721 1.264 . S
C1720 C1725 1.479 . S
C1720 C1730 1.465 . S
C1721 C1720 1.264 . S
C1721 C1723 1.339 . S
C1721 H1748 0.931 . S
C1722 C1723 1.395 . S
C1722 C1724 1.320 . S
C1723 C1721 1.339 . S
C1723 C1722 1.395 . S
C1723 H1749 0.929 . S
C1724 C1722 1.320 . S
C1724 C1725 1.405 . S
C1724 H1750 0.930 . S
C1725 C1720 1.479 . S
C1725 C1724 1.405 . S
C1725 H1751 0.931 . S
U1726 O1727 2.454 . S
U1726 O1728 2.458 . S
U1726 C1729 2.984 . S
U1726 C1730 2.847 . S
U1726 C1743 2.882 . S
U1726 O1744 2.441 . S
U1726 O1745 2.420 . S
U1726 O1746 2.455 . S
U1726 O1747 2.449 . S
O1727 U1726 2.454 . S
O1727 C1729 1.353 . S
O1728 U1726 2.458 . S
O1728 C1729 1.286 . S
C1729 U1726 2.984 . S
C1729 O1727 1.353 . S
C1729 O1728 1.286 . S
C1729 C1731 1.363 . S
C1730 C1720 1.465 . S
C1730 U1726 2.847 . S
C1730 O1744 1.249 . S
C1730 O1745 1.202 . S
C1731 C1729 1.363 . S
C1731 C1733 1.408 . S
C1731 C1736 1.342 . S
C1732 C1733 1.310 . S
C1732 C1735 1.461 . S
C1732 H1752 0.932 . S
C1733 C1731 1.408 . S
C1733 C1732 1.310 . S
C1733 H1753 0.930 . S
C1734 C1735 1.474 . S
C1734 C1736 1.285 . S
C1734 H1754 0.929 . S
C1735 C1732 1.461 . S
C1735 C1734 1.474 . S
C1736 C1731 1.342 . S
C1736 C1734 1.285 . S
C1736 H1755 0.930 . S
C1737 C1740 1.424 . S
C1737 C1742 1.245 . S
C1737 C1743 1.428 . S
C1738 C1741 1.260 . S
C1738 C1742 1.477 . S
C1738 H1756 0.932 . S
C1739 C1740 1.384 . S
C1739 C1741 1.479 . S
C1739 H1757 0.929 . S
C1740 C1737 1.424 . S
C1740 C1739 1.384 . S
C1740 H1758 0.928 . S
C1741 C1738 1.260 . S
C1741 C1739 1.479 . S
C1742 C1737 1.245 . S
C1742 C1738 1.477 . S
C1742 H1759 0.932 . S
C1743 U1726 2.882 . S
C1743 C1737 1.428 . S
C1743 O1746 1.301 . S
C1743 O1747 1.282 . S
O1744 U1726 2.441 . S
O1744 C1730 1.249 . S
O1745 U1726 2.420 . S
O1745 C1730 1.202 . S
O1746 U1726 2.455 . S
O1746 C1743 1.301 . S
O1747 U1726 2.449 . S
O1747 C1743 1.282 . S
H1748 C1721 0.931 . S
H1749 C1723 0.929 . S
H1750 C1724 0.930 . S
H1751 C1725 0.931 . S
H1752 C1732 0.932 . S
H1753 C1733 0.930 . S
H1754 C1734 0.929 . S
H1755 C1736 0.930 . S
H1756 C1738 0.932 . S
H1757 C1739 0.929 . S
H1758 C1740 0.928 . S
H1759 C1742 0.932 . S
C1760 C1761 1.264 . S
C1760 C1765 1.479 . S
C1760 C1770 1.465 . S
C1761 C1760 1.264 . S
C1761 C1763 1.339 . S
C1761 H1788 0.931 . S
C1762 C1763 1.395 . S
C1762 C1764 1.320 . S
C1763 C1761 1.339 . S
C1763 C1762 1.395 . S
C1763 H1789 0.929 . S
C1764 C1762 1.320 . S
C1764 C1765 1.405 . S
C1764 H1790 0.930 . S
C1765 C1760 1.479 . S
C1765 C1764 1.405 . S
C1765 H1791 0.931 . S
U1766 O1767 2.454 . S
U1766 O1768 2.458 . S
U1766 C1769 2.984 . S
U1766 C1770 2.847 . S
U1766 C1783 2.882 . S
U1766 O1784 2.441 . S
U1766 O1785 2.420 . S
U1766 O1786 2.455 . S
U1766 O1787 2.449 . S
O1767 U1766 2.454 . S
O1767 C1769 1.353 . S
O1768 U1766 2.458 . S
O1768 C1769 1.286 . S
C1769 U1766 2.984 . S
C1769 O1767 1.353 . S
C1769 O1768 1.286 . S
C1769 C1771 1.363 . S
C1770 C1760 1.465 . S
C1770 U1766 2.847 . S
C1770 O1784 1.249 . S
C1770 O1785 1.202 . S
C1771 C1769 1.363 . S
C1771 C1773 1.408 . S
C1771 C1776 1.342 . S
C1772 C1773 1.310 . S
C1772 C1775 1.461 . S
C1772 H1792 0.932 . S
C1773 C1771 1.408 . S
C1773 C1772 1.310 . S
C1773 H1793 0.930 . S
C1774 C1775 1.474 . S
C1774 C1776 1.285 . S
C1774 H1794 0.929 . S
C1775 C1772 1.461 . S
C1775 C1774 1.474 . S
C1776 C1771 1.342 . S
C1776 C1774 1.285 . S
C1776 H1795 0.930 . S
C1777 C1780 1.424 . S
C1777 C1782 1.245 . S
C1777 C1783 1.428 . S
C1778 C1781 1.260 . S
C1778 C1782 1.477 . S
C1778 H1796 0.932 . S
C1779 C1780 1.384 . S
C1779 C1781 1.479 . S
C1779 H1797 0.929 . S
C1780 C1777 1.424 . S
C1780 C1779 1.384 . S
C1780 H1798 0.928 . S
C1781 C1778 1.260 . S
C1781 C1779 1.479 . S
C1782 C1777 1.245 . S
C1782 C1778 1.477 . S
C1782 H1799 0.932 . S
C1783 U1766 2.882 . S
C1783 C1777 1.428 . S
C1783 O1786 1.301 . S
C1783 O1787 1.282 . S
O1784 U1766 2.441 . S
O1784 C1770 1.249 . S
O1785 U1766 2.420 . S
O1785 C1770 1.202 . S
O1786 U1766 2.455 . S
O1786 C1783 1.301 . S
O1787 U1766 2.449 . S
O1787 C1783 1.282 . S
H1788 C1761 0.931 . S
H1789 C1763 0.929 . S
H1790 C1764 0.930 . S
H1791 C1765 0.931 . S
H1792 C1772 0.932 . S
H1793 C1773 0.930 . S
H1794 C1774 0.929 . S
H1795 C1776 0.930 . S
H1796 C1778 0.932 . S
H1797 C1779 0.929 . S
H1798 C1780 0.928 . S
H1799 C1782 0.932 . S
C1800 C1801 1.264 . S
C1800 C1805 1.479 . S
C1800 C1810 1.465 . S
C1801 C1800 1.264 . S
C1801 C1803 1.339 . S
C1801 H1828 0.931 . S
C1802 C1803 1.395 . S
C1802 C1804 1.320 . S
C1803 C1801 1.339 . S
C1803 C1802 1.395 . S
C1803 H1829 0.929 . S
C1804 C1802 1.320 . S
C1804 C1805 1.405 . S
C1804 H1830 0.930 . S
C1805 C1800 1.479 . S
C1805 C1804 1.405 . S
C1805 H1831 0.931 . S
U1806 O1807 2.454 . S
U1806 O1808 2.458 . S
U1806 C1809 2.984 . S
U1806 C1810 2.847 . S
U1806 C1823 2.882 . S
U1806 O1824 2.441 . S
U1806 O1825 2.420 . S
U1806 O1826 2.455 . S
U1806 O1827 2.449 . S
O1807 U1806 2.454 . S
O1807 C1809 1.353 . S
O1808 U1806 2.458 . S
O1808 C1809 1.286 . S
C1809 U1806 2.984 . S
C1809 O1807 1.353 . S
C1809 O1808 1.286 . S
C1809 C1811 1.363 . S
C1810 C1800 1.465 . S
C1810 U1806 2.847 . S
C1810 O1824 1.249 . S
C1810 O1825 1.202 . S
C1811 C1809 1.363 . S
C1811 C1813 1.408 . S
C1811 C1816 1.342 . S
C1812 C1813 1.310 . S
C1812 C1815 1.461 . S
C1812 H1832 0.932 . S
C1813 C1811 1.408 . S
C1813 C1812 1.310 . S
C1813 H1833 0.930 . S
C1814 C1815 1.474 . S
C1814 C1816 1.285 . S
C1814 H1834 0.929 . S
C1815 C1812 1.461 . S
C1815 C1814 1.474 . S
C1816 C1811 1.342 . S
C1816 C1814 1.285 . S
C1816 H1835 0.930 . S
C1817 C1820 1.424 . S
C1817 C1822 1.245 . S
C1817 C1823 1.428 . S
C1818 C1821 1.260 . S
C1818 C1822 1.477 . S
C1818 H1836 0.932 . S
C1819 C1820 1.384 . S
C1819 C1821 1.479 . S
C1819 H1837 0.929 . S
C1820 C1817 1.424 . S
C1820 C1819 1.384 . S
C1820 H1838 0.928 . S
C1821 C1818 1.260 . S
C1821 C1819 1.479 . S
C1822 C1817 1.245 . S
C1822 C1818 1.477 . S
C1822 H1839 0.932 . S
C1823 U1806 2.882 . S
C1823 C1817 1.428 . S
C1823 O1826 1.301 . S
C1823 O1827 1.282 . S
O1824 U1806 2.441 . S
O1824 C1810 1.249 . S
O1825 U1806 2.420 . S
O1825 C1810 1.202 . S
O1826 U1806 2.455 . S
O1826 C1823 1.301 . S
O1827 U1806 2.449 . S
O1827 C1823 1.282 . S
H1828 C1801 0.931 . S
H1829 C1803 0.929 . S
H1830 C1804 0.930 . S
H1831 C1805 0.931 . S
H1832 C1812 0.932 . S
H1833 C1813 0.930 . S
H1834 C1814 0.929 . S
H1835 C1816 0.930 . S
H1836 C1818 0.932 . S
H1837 C1819 0.929 . S
H1838 C1820 0.928 . S
H1839 C1822 0.932 . S
C1840 C1841 1.264 . S
C1840 C1845 1.479 . S
C1840 C1850 1.465 . S
C1841 C1840 1.264 . S
C1841 C1843 1.339 . S
C1841 H1868 0.931 . S
C1842 C1843 1.395 . S
C1842 C1844 1.320 . S
C1843 C1841 1.339 . S
C1843 C1842 1.395 . S
C1843 H1869 0.929 . S
C1844 C1842 1.320 . S
C1844 C1845 1.405 . S
C1844 H1870 0.930 . S
C1845 C1840 1.479 . S
C1845 C1844 1.405 . S
C1845 H1871 0.931 . S
U1846 O1847 2.454 . S
U1846 O1848 2.458 . S
U1846 C1849 2.984 . S
U1846 C1850 2.847 . S
U1846 C1863 2.882 . S
U1846 O1864 2.441 . S
U1846 O1865 2.420 . S
U1846 O1866 2.455 . S
U1846 O1867 2.449 . S
O1847 U1846 2.454 . S
O1847 C1849 1.353 . S
O1848 U1846 2.458 . S
O1848 C1849 1.286 . S
C1849 U1846 2.984 . S
C1849 O1847 1.353 . S
C1849 O1848 1.286 . S
C1849 C1851 1.363 . S
C1850 C1840 1.465 . S
C1850 U1846 2.847 . S
C1850 O1864 1.249 . S
C1850 O1865 1.202 . S
C1851 C1849 1.363 . S
C1851 C1853 1.408 . S
C1851 C1856 1.342 . S
C1852 C1853 1.310 . S
C1852 C1855 1.461 . S
C1852 H1872 0.932 . S
C1853 C1851 1.408 . S
C1853 C1852 1.310 . S
C1853 H1873 0.930 . S
C1854 C1855 1.474 . S
C1854 C1856 1.285 . S
C1854 H1874 0.929 . S
C1855 C1852 1.461 . S
C1855 C1854 1.474 . S
C1856 C1851 1.342 . S
C1856 C1854 1.285 . S
C1856 H1875 0.930 . S
C1857 C1860 1.424 . S
C1857 C1862 1.245 . S
C1857 C1863 1.428 . S
C1858 C1861 1.260 . S
C1858 C1862 1.477 . S
C1858 H1876 0.932 . S
C1859 C1860 1.384 . S
C1859 C1861 1.479 . S
C1859 H1877 0.929 . S
C1860 C1857 1.424 . S
C1860 C1859 1.384 . S
C1860 H1878 0.928 . S
C1861 C1858 1.260 . S
C1861 C1859 1.479 . S
C1862 C1857 1.245 . S
C1862 C1858 1.477 . S
C1862 H1879 0.932 . S
C1863 U1846 2.882 . S
C1863 C1857 1.428 . S
C1863 O1866 1.301 . S
C1863 O1867 1.282 . S
O1864 U1846 2.441 . S
O1864 C1850 1.249 . S
O1865 U1846 2.420 . S
O1865 C1850 1.202 . S
O1866 U1846 2.455 . S
O1866 C1863 1.301 . S
O1867 U1846 2.449 . S
O1867 C1863 1.282 . S
H1868 C1841 0.931 . S
H1869 C1843 0.929 . S
H1870 C1844 0.930 . S
H1871 C1845 0.931 . S
H1872 C1852 0.932 . S
H1873 C1853 0.930 . S
H1874 C1854 0.929 . S
H1875 C1856 0.930 . S
H1876 C1858 0.932 . S
H1877 C1859 0.929 . S
H1878 C1860 0.928 . S
H1879 C1862 0.932 . S
C1880 C1881 1.264 . S
C1880 C1885 1.479 . S
C1880 C1890 1.465 . S
C1881 C1880 1.264 . S
C1881 C1883 1.339 . S
C1881 H1908 0.931 . S
C1882 C1883 1.395 . S
C1882 C1884 1.320 . S
C1883 C1881 1.339 . S
C1883 C1882 1.395 . S
C1883 H1909 0.929 . S
C1884 C1882 1.320 . S
C1884 C1885 1.405 . S
C1884 H1910 0.930 . S
C1885 C1880 1.479 . S
C1885 C1884 1.405 . S
C1885 H1911 0.931 . S
U1886 O1887 2.454 . S
U1886 O1888 2.458 . S
U1886 C1889 2.984 . S
U1886 C1890 2.847 . S
U1886 C1903 2.882 . S
U1886 O1904 2.441 . S
U1886 O1905 2.420 . S
U1886 O1906 2.455 . S
U1886 O1907 2.449 . S
O1887 U1886 2.454 . S
O1887 C1889 1.353 . S
O1888 U1886 2.458 . S
O1888 C1889 1.286 . S
C1889 U1886 2.984 . S
C1889 O1887 1.353 . S
C1889 O1888 1.286 . S
C1889 C1891 1.363 . S
C1890 C1880 1.465 . S
C1890 U1886 2.847 . S
C1890 O1904 1.249 . S
C1890 O1905 1.202 . S
C1891 C1889 1.363 . S
C1891 C1893 1.408 . S
C1891 C1896 1.342 . S
C1892 C1893 1.310 . S
C1892 C1895 1.461 . S
C1892 H1912 0.932 . S
C1893 C1891 1.408 . S
C1893 C1892 1.310 . S
C1893 H1913 0.930 . S
C1894 C1895 1.474 . S
C1894 C1896 1.285 . S
C1894 H1914 0.929 . S
C1895 C1892 1.461 . S
C1895 C1894 1.474 . S
C1896 C1891 1.342 . S
C1896 C1894 1.285 . S
C1896 H1915 0.930 . S
C1897 C1900 1.424 . S
C1897 C1902 1.245 . S
C1897 C1903 1.428 . S
C1898 C1901 1.260 . S
C1898 C1902 1.477 . S
C1898 H1916 0.932 . S
C1899 C1900 1.384 . S
C1899 C1901 1.479 . S
C1899 H1917 0.929 . S
C1900 C1897 1.424 . S
C1900 C1899 1.384 . S
C1900 H1918 0.928 . S
C1901 C1898 1.260 . S
C1901 C1899 1.479 . S
C1902 C1897 1.245 . S
C1902 C1898 1.477 . S
C1902 H1919 0.932 . S
C1903 U1886 2.882 . S
C1903 C1897 1.428 . S
C1903 O1906 1.301 . S
C1903 O1907 1.282 . S
O1904 U1886 2.441 . S
O1904 C1890 1.249 . S
O1905 U1886 2.420 . S
O1905 C1890 1.202 . S
O1906 U1886 2.455 . S
O1906 C1903 1.301 . S
O1907 U1886 2.449 . S
O1907 C1903 1.282 . S
H1908 C1881 0.931 . S
H1909 C1883 0.929 . S
H1910 C1884 0.930 . S
H1911 C1885 0.931 . S
H1912 C1892 0.932 . S
H1913 C1893 0.930 . S
H1914 C1894 0.929 . S
H1915 C1896 0.930 . S
H1916 C1898 0.932 . S
H1917 C1899 0.929 . S
H1918 C1900 0.928 . S
H1919 C1902 0.932 . S
C1920 C1921 1.384 . S
C1920 H1933 0.947 . S
C1920 C1955 1.382 . S
C1921 C1920 1.384 . S
C1921 C1922 1.378 . S
C1922 C1921 1.378 . S
C1922 C1923 1.378 . S
C1922 H1934 0.952 . S
C1923 C1922 1.378 . S
C1923 H1935 0.950 . S
C1923 C1954 1.383 . S
H1924 C1943 0.947 . S
H1925 C1944 0.946 . S
H1926 C1946 0.953 . S
H1927 C1947 0.945 . S
H1928 C1949 0.952 . S
H1929 C1950 0.949 . S
H1930 C1952 0.950 . S
H1931 C1953 0.948 . S
H1932 C1955 0.951 . S
H1933 C1920 0.947 . S
H1934 C1922 0.952 . S
H1935 C1923 0.950 . S
N1936 C1939 1.382 . S
N1936 C1941 1.363 . S
N1937 C1939 1.371 . S
N1937 C1940 1.372 . S
N1938 C1940 1.361 . S
N1938 C1941 1.377 . S
C1939 N1936 1.382 . S
C1939 N1937 1.371 . S
C1939 C1942 1.480 . S
C1940 N1937 1.372 . S
C1940 N1938 1.361 . S
C1940 C1948 1.457 . S
C1941 N1936 1.363 . S
C1941 N1938 1.377 . S
C1941 C1954 1.479 . S
C1942 C1939 1.480 . S
C1942 C1943 1.383 . S
C1942 C1947 1.385 . S
C1943 H1924 0.947 . S
C1943 C1942 1.383 . S
C1943 C1944 1.388 . S
C1944 H1925 0.946 . S
C1944 C1943 1.388 . S
C1944 C1945 1.384 . S
C1945 C1944 1.384 . S
C1945 C1946 1.377 . S
C1946 H1926 0.953 . S
C1946 C1945 1.377 . S
C1946 C1947 1.369 . S
C1947 H1927 0.945 . S
C1947 C1942 1.385 . S
C1947 C1946 1.369 . S
C1948 C1940 1.457 . S
C1948 C1949 1.372 . S
C1948 C1953 1.364 . S
C1949 H1928 0.952 . S
C1949 C1948 1.372 . S
C1949 C1950 1.389 . S
C1950 H1929 0.949 . S
C1950 C1949 1.389 . S
C1950 C1951 1.387 . S
C1951 C1950 1.387 . S
C1951 C1952 1.372 . S
C1952 H1930 0.950 . S
C1952 C1951 1.372 . S
C1952 C1953 1.379 . S
C1953 H1931 0.948 . S
C1953 C1948 1.364 . S
C1953 C1952 1.379 . S
C1954 C1923 1.383 . S
C1954 C1941 1.479 . S
C1954 C1955 1.398 . S
C1955 C1920 1.382 . S
C1955 H1932 0.951 . S
C1955 C1954 1.398 . S
C1956 C1957 1.384 . S
C1956 H1969 0.947 . S
C1956 C1991 1.382 . S
C1957 C1956 1.384 . S
C1957 C1958 1.378 . S
C1958 C1957 1.378 . S
C1958 C1959 1.378 . S
C1958 H1970 0.952 . S
C1959 C1958 1.378 . S
C1959 H1971 0.950 . S
C1959 C1990 1.383 . S
H1960 C1979 0.947 . S
H1961 C1980 0.946 . S
H1962 C1982 0.953 . S
H1963 C1983 0.945 . S
H1964 C1985 0.952 . S
H1965 C1986 0.949 . S
H1966 C1988 0.950 . S
H1967 C1989 0.948 . S
H1968 C1991 0.951 . S
H1969 C1956 0.947 . S
H1970 C1958 0.952 . S
H1971 C1959 0.950 . S
N1972 C1975 1.382 . S
N1972 C1977 1.363 . S
N1973 C1975 1.371 . S
N1973 C1976 1.372 . S
N1974 C1976 1.361 . S
N1974 C1977 1.377 . S
C1975 N1972 1.382 . S
C1975 N1973 1.371 . S
C1975 C1978 1.480 . S
C1976 N1973 1.372 . S
C1976 N1974 1.361 . S
C1976 C1984 1.457 . S
C1977 N1972 1.363 . S
C1977 N1974 1.377 . S
C1977 C1990 1.479 . S
C1978 C1975 1.480 . S
C1978 C1979 1.383 . S
C1978 C1983 1.385 . S
C1979 H1960 0.947 . S
C1979 C1978 1.383 . S
C1979 C1980 1.388 . S
C1980 H1961 0.946 . S
C1980 C1979 1.388 . S
C1980 C1981 1.384 . S
C1981 C1980 1.384 . S
C1981 C1982 1.377 . S
C1982 H1962 0.953 . S
C1982 C1981 1.377 . S
C1982 C1983 1.369 . S
C1983 H1963 0.945 . S
C1983 C1978 1.385 . S
C1983 C1982 1.369 . S
C1984 C1976 1.457 . S
C1984 C1985 1.372 . S
C1984 C1989 1.364 . S
C1985 H1964 0.952 . S
C1985 C1984 1.372 . S
C1985 C1986 1.389 . S
C1986 H1965 0.949 . S
C1986 C1985 1.389 . S
C1986 C1987 1.387 . S
C1987 C1986 1.387 . S
C1987 C1988 1.372 . S
C1988 H1966 0.950 . S
C1988 C1987 1.372 . S
C1988 C1989 1.379 . S
C1989 H1967 0.948 . S
C1989 C1984 1.364 . S
C1989 C1988 1.379 . S
C1990 C1959 1.383 . S
C1990 C1977 1.479 . S
C1990 C1991 1.398 . S
C1991 C1956 1.382 . S
C1991 H1968 0.951 . S
C1991 C1990 1.398 . S
C1992 C1993 1.384 . S
C1992 H2005 0.947 . S
C1992 C2027 1.382 . S
C1993 C1992 1.384 . S
C1993 C1994 1.378 . S
C1994 C1993 1.378 . S
C1994 C1995 1.378 . S
C1994 H2006 0.952 . S
C1995 C1994 1.378 . S
C1995 H2007 0.950 . S
C1995 C2026 1.383 . S
H1996 C2015 0.947 . S
H1997 C2016 0.946 . S
H1998 C2018 0.953 . S
H1999 C2019 0.945 . S
H2000 C2021 0.952 . S
H2001 C2022 0.949 . S
H2002 C2024 0.950 . S
H2003 C2025 0.948 . S
H2004 C2027 0.951 . S
H2005 C1992 0.947 . S
H2006 C1994 0.952 . S
H2007 C1995 0.950 . S
N2008 C2011 1.382 . S
N2008 C2013 1.363 . S
N2009 C2011 1.371 . S
N2009 C2012 1.372 . S
N2010 C2012 1.361 . S
N2010 C2013 1.377 . S
C2011 N2008 1.382 . S
C2011 N2009 1.371 . S
C2011 C2014 1.480 . S
C2012 N2009 1.372 . S
C2012 N2010 1.361 . S
C2012 C2020 1.457 . S
C2013 N2008 1.363 . S
C2013 N2010 1.377 . S
C2013 C2026 1.479 . S
C2014 C2011 1.480 . S
C2014 C2015 1.383 . S
C2014 C2019 1.385 . S
C2015 H1996 0.947 . S
C2015 C2014 1.383 . S
C2015 C2016 1.388 . S
C2016 H1997 0.946 . S
C2016 C2015 1.388 . S
C2016 C2017 1.384 . S
C2017 C2016 1.384 . S
C2017 C2018 1.377 . S
C2018 H1998 0.953 . S
C2018 C2017 1.377 . S
C2018 C2019 1.369 . S
C2019 H1999 0.945 . S
C2019 C2014 1.385 . S
C2019 C2018 1.369 . S
C2020 C2012 1.457 . S
C2020 C2021 1.372 . S
C2020 C2025 1.364 . S
C2021 H2000 0.952 . S
C2021 C2020 1.372 . S
C2021 C2022 1.389 . S
C2022 H2001 0.949 . S
C2022 C2021 1.389 . S
C2022 C2023 1.387 . S
C2023 C2022 1.387 . S
C2023 C2024 1.372 . S
C2024 H2002 0.950 . S
C2024 C2023 1.372 . S
C2024 C2025 1.379 . S
C2025 H2003 0.948 . S
C2025 C2020 1.364 . S
C2025 C2024 1.379 . S
C2026 C1995 1.383 . S
C2026 C2013 1.479 . S
C2026 C2027 1.398 . S
C2027 C1992 1.382 . S
C2027 H2004 0.951 . S
C2027 C2026 1.398 . S
C2028 C2029 1.384 . S
C2028 H2041 0.947 . S
C2028 C2063 1.382 . S
C2029 C2028 1.384 . S
C2029 C2030 1.378 . S
C2030 C2029 1.378 . S
C2030 C2031 1.378 . S
C2030 H2042 0.952 . S
C2031 C2030 1.378 . S
C2031 H2043 0.950 . S
C2031 C2062 1.383 . S
H2032 C2051 0.947 . S
H2033 C2052 0.946 . S
H2034 C2054 0.953 . S
H2035 C2055 0.945 . S
H2036 C2057 0.952 . S
H2037 C2058 0.949 . S
H2038 C2060 0.950 . S
H2039 C2061 0.948 . S
H2040 C2063 0.951 . S
H2041 C2028 0.947 . S
H2042 C2030 0.952 . S
H2043 C2031 0.950 . S
N2044 C2047 1.382 . S
N2044 C2049 1.363 . S
N2045 C2047 1.371 . S
N2045 C2048 1.372 . S
N2046 C2048 1.361 . S
N2046 C2049 1.377 . S
C2047 N2044 1.382 . S
C2047 N2045 1.371 . S
C2047 C2050 1.480 . S
C2048 N2045 1.372 . S
C2048 N2046 1.361 . S
C2048 C2056 1.457 . S
C2049 N2044 1.363 . S
C2049 N2046 1.377 . S
C2049 C2062 1.479 . S
C2050 C2047 1.480 . S
C2050 C2051 1.383 . S
C2050 C2055 1.385 . S
C2051 H2032 0.947 . S
C2051 C2050 1.383 . S
C2051 C2052 1.388 . S
C2052 H2033 0.946 . S
C2052 C2051 1.388 . S
C2052 C2053 1.384 . S
C2053 C2052 1.384 . S
C2053 C2054 1.377 . S
C2054 H2034 0.953 . S
C2054 C2053 1.377 . S
C2054 C2055 1.369 . S
C2055 H2035 0.945 . S
C2055 C2050 1.385 . S
C2055 C2054 1.369 . S
C2056 C2048 1.457 . S
C2056 C2057 1.372 . S
C2056 C2061 1.364 . S
C2057 H2036 0.952 . S
C2057 C2056 1.372 . S
C2057 C2058 1.389 . S
C2058 H2037 0.949 . S
C2058 C2057 1.389 . S
C2058 C2059 1.387 . S
C2059 C2058 1.387 . S
C2059 C2060 1.372 . S
C2060 H2038 0.950 . S
C2060 C2059 1.372 . S
C2060 C2061 1.379 . S
C2061 H2039 0.948 . S
C2061 C2056 1.364 . S
C2061 C2060 1.379 . S
C2062 C2031 1.383 . S
C2062 C2049 1.479 . S
C2062 C2063 1.398 . S
C2063 C2028 1.382 . S
C2063 H2040 0.951 . S
C2063 C2062 1.398 . S
C2064 C2065 1.384 . S
C2064 H2077 0.947 . S
C2064 C2099 1.382 . S
C2065 C2064 1.384 . S
C2065 C2066 1.378 . S
C2066 C2065 1.378 . S
C2066 C2067 1.378 . S
C2066 H2078 0.952 . S
C2067 C2066 1.378 . S
C2067 H2079 0.950 . S
C2067 C2098 1.383 . S
H2068 C2087 0.947 . S
H2069 C2088 0.946 . S
H2070 C2090 0.953 . S
H2071 C2091 0.945 . S
H2072 C2093 0.952 . S
H2073 C2094 0.949 . S
H2074 C2096 0.950 . S
H2075 C2097 0.948 . S
H2076 C2099 0.951 . S
H2077 C2064 0.947 . S
H2078 C2066 0.952 . S
H2079 C2067 0.950 . S
N2080 C2083 1.382 . S
N2080 C2085 1.363 . S
N2081 C2083 1.371 . S
N2081 C2084 1.372 . S
N2082 C2084 1.361 . S
N2082 C2085 1.377 . S
C2083 N2080 1.382 . S
C2083 N2081 1.371 . S
C2083 C2086 1.480 . S
C2084 N2081 1.372 . S
C2084 N2082 1.361 . S
C2084 C2092 1.457 . S
C2085 N2080 1.363 . S
C2085 N2082 1.377 . S
C2085 C2098 1.479 . S
C2086 C2083 1.480 . S
C2086 C2087 1.383 . S
C2086 C2091 1.385 . S
C2087 H2068 0.947 . S
C2087 C2086 1.383 . S
C2087 C2088 1.388 . S
C2088 H2069 0.946 . S
C2088 C2087 1.388 . S
C2088 C2089 1.384 . S
C2089 C2088 1.384 . S
C2089 C2090 1.377 . S
C2090 H2070 0.953 . S
C2090 C2089 1.377 . S
C2090 C2091 1.369 . S
C2091 H2071 0.945 . S
C2091 C2086 1.385 . S
C2091 C2090 1.369 . S
C2092 C2084 1.457 . S
C2092 C2093 1.372 . S
C2092 C2097 1.364 . S
C2093 H2072 0.952 . S
C2093 C2092 1.372 . S
C2093 C2094 1.389 . S
C2094 H2073 0.949 . S
C2094 C2093 1.389 . S
C2094 C2095 1.387 . S
C2095 C2094 1.387 . S
C2095 C2096 1.372 . S
C2096 H2074 0.950 . S
C2096 C2095 1.372 . S
C2096 C2097 1.379 . S
C2097 H2075 0.948 . S
C2097 C2092 1.364 . S
C2097 C2096 1.379 . S
C2098 C2067 1.383 . S
C2098 C2085 1.479 . S
C2098 C2099 1.398 . S
C2099 C2064 1.382 . S
C2099 H2076 0.951 . S
C2099 C2098 1.398 . S
C2100 C2101 1.384 . S
C2100 H2113 0.947 . S
C2100 C2135 1.382 . S
C2101 C2100 1.384 . S
C2101 C2102 1.378 . S
C2102 C2101 1.378 . S
C2102 C2103 1.378 . S
C2102 H2114 0.952 . S
C2103 C2102 1.378 . S
C2103 H2115 0.950 . S
C2103 C2134 1.383 . S
H2104 C2123 0.947 . S
H2105 C2124 0.946 . S
H2106 C2126 0.953 . S
H2107 C2127 0.945 . S
H2108 C2129 0.952 . S
H2109 C2130 0.949 . S
H2110 C2132 0.950 . S
H2111 C2133 0.948 . S
H2112 C2135 0.951 . S
H2113 C2100 0.947 . S
H2114 C2102 0.952 . S
H2115 C2103 0.950 . S
N2116 C2119 1.382 . S
N2116 C2121 1.363 . S
N2117 C2119 1.371 . S
N2117 C2120 1.372 . S
N2118 C2120 1.361 . S
N2118 C2121 1.377 . S
C2119 N2116 1.382 . S
C2119 N2117 1.371 . S
C2119 C2122 1.480 . S
C2120 N2117 1.372 . S
C2120 N2118 1.361 . S
C2120 C2128 1.457 . S
C2121 N2116 1.363 . S
C2121 N2118 1.377 . S
C2121 C2134 1.479 . S
C2122 C2119 1.480 . S
C2122 C2123 1.383 . S
C2122 C2127 1.385 . S
C2123 H2104 0.947 . S
C2123 C2122 1.383 . S
C2123 C2124 1.388 . S
C2124 H2105 0.946 . S
C2124 C2123 1.388 . S
C2124 C2125 1.384 . S
C2125 C2124 1.384 . S
C2125 C2126 1.377 . S
C2126 H2106 0.953 . S
C2126 C2125 1.377 . S
C2126 C2127 1.369 . S
C2127 H2107 0.945 . S
C2127 C2122 1.385 . S
C2127 C2126 1.369 . S
C2128 C2120 1.457 . S
C2128 C2129 1.372 . S
C2128 C2133 1.364 . S
C2129 H2108 0.952 . S
C2129 C2128 1.372 . S
C2129 C2130 1.389 . S
C2130 H2109 0.949 . S
C2130 C2129 1.389 . S
C2130 C2131 1.387 . S
C2131 C2130 1.387 . S
C2131 C2132 1.372 . S
C2132 H2110 0.950 . S
C2132 C2131 1.372 . S
C2132 C2133 1.379 . S
C2133 H2111 0.948 . S
C2133 C2128 1.364 . S
C2133 C2132 1.379 . S
C2134 C2103 1.383 . S
C2134 C2121 1.479 . S
C2134 C2135 1.398 . S
C2135 C2100 1.382 . S
C2135 H2112 0.951 . S
C2135 C2134 1.398 . S
C2136 C2137 1.384 . S
C2136 H2149 0.947 . S
C2136 C2171 1.382 . S
C2137 C2136 1.384 . S
C2137 C2138 1.378 . S
C2138 C2137 1.378 . S
C2138 C2139 1.378 . S
C2138 H2150 0.952 . S
C2139 C2138 1.378 . S
C2139 H2151 0.950 . S
C2139 C2170 1.383 . S
H2140 C2159 0.947 . S
H2141 C2160 0.946 . S
H2142 C2162 0.953 . S
H2143 C2163 0.945 . S
H2144 C2165 0.952 . S
H2145 C2166 0.949 . S
H2146 C2168 0.950 . S
H2147 C2169 0.948 . S
H2148 C2171 0.951 . S
H2149 C2136 0.947 . S
H2150 C2138 0.952 . S
H2151 C2139 0.950 . S
N2152 C2155 1.382 . S
N2152 C2157 1.363 . S
N2153 C2155 1.371 . S
N2153 C2156 1.372 . S
N2154 C2156 1.361 . S
N2154 C2157 1.377 . S
C2155 N2152 1.382 . S
C2155 N2153 1.371 . S
C2155 C2158 1.480 . S
C2156 N2153 1.372 . S
C2156 N2154 1.361 . S
C2156 C2164 1.457 . S
C2157 N2152 1.363 . S
C2157 N2154 1.377 . S
C2157 C2170 1.479 . S
C2158 C2155 1.480 . S
C2158 C2159 1.383 . S
C2158 C2163 1.385 . S
C2159 H2140 0.947 . S
C2159 C2158 1.383 . S
C2159 C2160 1.388 . S
C2160 H2141 0.946 . S
C2160 C2159 1.388 . S
C2160 C2161 1.384 . S
C2161 C2160 1.384 . S
C2161 C2162 1.377 . S
C2162 H2142 0.953 . S
C2162 C2161 1.377 . S
C2162 C2163 1.369 . S
C2163 H2143 0.945 . S
C2163 C2158 1.385 . S
C2163 C2162 1.369 . S
C2164 C2156 1.457 . S
C2164 C2165 1.372 . S
C2164 C2169 1.364 . S
C2165 H2144 0.952 . S
C2165 C2164 1.372 . S
C2165 C2166 1.389 . S
C2166 H2145 0.949 . S
C2166 C2165 1.389 . S
C2166 C2167 1.387 . S
C2167 C2166 1.387 . S
C2167 C2168 1.372 . S
C2168 H2146 0.950 . S
C2168 C2167 1.372 . S
C2168 C2169 1.379 . S
C2169 H2147 0.948 . S
C2169 C2164 1.364 . S
C2169 C2168 1.379 . S
C2170 C2139 1.383 . S
C2170 C2157 1.479 . S
C2170 C2171 1.398 . S
C2171 C2136 1.382 . S
C2171 H2148 0.951 . S
C2171 C2170 1.398 . S
C2172 C2173 1.384 . S
C2172 H2185 0.947 . S
C2172 C2207 1.382 . S
C2173 C2172 1.384 . S
C2173 C2174 1.378 . S
C2174 C2173 1.378 . S
C2174 C2175 1.378 . S
C2174 H2186 0.952 . S
C2175 C2174 1.378 . S
C2175 H2187 0.950 . S
C2175 C2206 1.383 . S
H2176 C2195 0.947 . S
H2177 C2196 0.946 . S
H2178 C2198 0.953 . S
H2179 C2199 0.945 . S
H2180 C2201 0.952 . S
H2181 C2202 0.949 . S
H2182 C2204 0.950 . S
H2183 C2205 0.948 . S
H2184 C2207 0.951 . S
H2185 C2172 0.947 . S
H2186 C2174 0.952 . S
H2187 C2175 0.950 . S
N2188 C2191 1.382 . S
N2188 C2193 1.363 . S
N2189 C2191 1.371 . S
N2189 C2192 1.372 . S
N2190 C2192 1.361 . S
N2190 C2193 1.377 . S
C2191 N2188 1.382 . S
C2191 N2189 1.371 . S
C2191 C2194 1.480 . S
C2192 N2189 1.372 . S
C2192 N2190 1.361 . S
C2192 C2200 1.457 . S
C2193 N2188 1.363 . S
C2193 N2190 1.377 . S
C2193 C2206 1.479 . S
C2194 C2191 1.480 . S
C2194 C2195 1.383 . S
C2194 C2199 1.385 . S
C2195 H2176 0.947 . S
C2195 C2194 1.383 . S
C2195 C2196 1.388 . S
C2196 H2177 0.946 . S
C2196 C2195 1.388 . S
C2196 C2197 1.384 . S
C2197 C2196 1.384 . S
C2197 C2198 1.377 . S
C2198 H2178 0.953 . S
C2198 C2197 1.377 . S
C2198 C2199 1.369 . S
C2199 H2179 0.945 . S
C2199 C2194 1.385 . S
C2199 C2198 1.369 . S
C2200 C2192 1.457 . S
C2200 C2201 1.372 . S
C2200 C2205 1.364 . S
C2201 H2180 0.952 . S
C2201 C2200 1.372 . S
C2201 C2202 1.389 . S
C2202 H2181 0.949 . S
C2202 C2201 1.389 . S
C2202 C2203 1.387 . S
C2203 C2202 1.387 . S
C2203 C2204 1.372 . S
C2204 H2182 0.950 . S
C2204 C2203 1.372 . S
C2204 C2205 1.379 . S
C2205 H2183 0.948 . S
C2205 C2200 1.364 . S
C2205 C2204 1.379 . S
C2206 C2175 1.383 . S
C2206 C2193 1.479 . S
C2206 C2207 1.398 . S
C2207 C2172 1.382 . S
C2207 H2184 0.951 . S
C2207 C2206 1.398 . S
C2208 C2209 1.384 . S
C2208 H2221 0.947 . S
C2208 C2243 1.382 . S
C2209 C2208 1.384 . S
C2209 C2210 1.378 . S
C2210 C2209 1.378 . S
C2210 C2211 1.378 . S
C2210 H2222 0.952 . S
C2211 C2210 1.378 . S
C2211 H2223 0.950 . S
C2211 C2242 1.383 . S
H2212 C2231 0.947 . S
H2213 C2232 0.946 . S
H2214 C2234 0.953 . S
H2215 C2235 0.945 . S
H2216 C2237 0.952 . S
H2217 C2238 0.949 . S
H2218 C2240 0.950 . S
H2219 C2241 0.948 . S
H2220 C2243 0.951 . S
H2221 C2208 0.947 . S
H2222 C2210 0.952 . S
H2223 C2211 0.950 . S
N2224 C2227 1.382 . S
N2224 C2229 1.363 . S
N2225 C2227 1.371 . S
N2225 C2228 1.372 . S
N2226 C2228 1.361 . S
N2226 C2229 1.377 . S
C2227 N2224 1.382 . S
C2227 N2225 1.371 . S
C2227 C2230 1.480 . S
C2228 N2225 1.372 . S
C2228 N2226 1.361 . S
C2228 C2236 1.457 . S
C2229 N2224 1.363 . S
C2229 N2226 1.377 . S
C2229 C2242 1.479 . S
C2230 C2227 1.480 . S
C2230 C2231 1.383 . S
C2230 C2235 1.385 . S
C2231 H2212 0.947 . S
C2231 C2230 1.383 . S
C2231 C2232 1.388 . S
C2232 H2213 0.946 . S
C2232 C2231 1.388 . S
C2232 C2233 1.384 . S
C2233 C2232 1.384 . S
C2233 C2234 1.377 . S
C2234 H2214 0.953 . S
C2234 C2233 1.377 . S
C2234 C2235 1.369 . S
C2235 H2215 0.945 . S
C2235 C2230 1.385 . S
C2235 C2234 1.369 . S
C2236 C2228 1.457 . S
C2236 C2237 1.372 . S
C2236 C2241 1.364 . S
C2237 H2216 0.952 . S
C2237 C2236 1.372 . S
C2237 C2238 1.389 . S
C2238 H2217 0.949 . S
C2238 C2237 1.389 . S
C2238 C2239 1.387 . S
C2239 C2238 1.387 . S
C2239 C2240 1.372 . S
C2240 H2218 0.950 . S
C2240 C2239 1.372 . S
C2240 C2241 1.379 . S
C2241 H2219 0.948 . S
C2241 C2236 1.364 . S
C2241 C2240 1.379 . S
C2242 C2211 1.383 . S
C2242 C2229 1.479 . S
C2242 C2243 1.398 . S
C2243 C2208 1.382 . S
C2243 H2220 0.951 . S
C2243 C2242 1.398 . S
C2244 C2245 1.384 . S
C2244 H2257 0.947 . S
C2244 C2279 1.382 . S
C2245 C2244 1.384 . S
C2245 C2246 1.378 . S
C2246 C2245 1.378 . S
C2246 C2247 1.378 . S
C2246 H2258 0.952 . S
C2247 C2246 1.378 . S
C2247 H2259 0.950 . S
C2247 C2278 1.383 . S
H2248 C2267 0.947 . S
H2249 C2268 0.946 . S
H2250 C2270 0.953 . S
H2251 C2271 0.945 . S
H2252 C2273 0.952 . S
H2253 C2274 0.949 . S
H2254 C2276 0.950 . S
H2255 C2277 0.948 . S
H2256 C2279 0.951 . S
H2257 C2244 0.947 . S
H2258 C2246 0.952 . S
H2259 C2247 0.950 . S
N2260 C2263 1.382 . S
N2260 C2265 1.363 . S
N2261 C2263 1.371 . S
N2261 C2264 1.372 . S
N2262 C2264 1.361 . S
N2262 C2265 1.377 . S
C2263 N2260 1.382 . S
C2263 N2261 1.371 . S
C2263 C2266 1.480 . S
C2264 N2261 1.372 . S
C2264 N2262 1.361 . S
C2264 C2272 1.457 . S
C2265 N2260 1.363 . S
C2265 N2262 1.377 . S
C2265 C2278 1.479 . S
C2266 C2263 1.480 . S
C2266 C2267 1.383 . S
C2266 C2271 1.385 . S
C2267 H2248 0.947 . S
C2267 C2266 1.383 . S
C2267 C2268 1.388 . S
C2268 H2249 0.946 . S
C2268 C2267 1.388 . S
C2268 C2269 1.384 . S
C2269 C2268 1.384 . S
C2269 C2270 1.377 . S
C2270 H2250 0.953 . S
C2270 C2269 1.377 . S
C2270 C2271 1.369 . S
C2271 H2251 0.945 . S
C2271 C2266 1.385 . S
C2271 C2270 1.369 . S
C2272 C2264 1.457 . S
C2272 C2273 1.372 . S
C2272 C2277 1.364 . S
C2273 H2252 0.952 . S
C2273 C2272 1.372 . S
C2273 C2274 1.389 . S
C2274 H2253 0.949 . S
C2274 C2273 1.389 . S
C2274 C2275 1.387 . S
C2275 C2274 1.387 . S
C2275 C2276 1.372 . S
C2276 H2254 0.950 . S
C2276 C2275 1.372 . S
C2276 C2277 1.379 . S
C2277 H2255 0.948 . S
C2277 C2272 1.364 . S
C2277 C2276 1.379 . S
C2278 C2247 1.383 . S
C2278 C2265 1.479 . S
C2278 C2279 1.398 . S
C2279 C2244 1.382 . S
C2279 H2256 0.951 . S
C2279 C2278 1.398 . S
C2280 C2281 1.384 . S
C2280 H2293 0.947 . S
C2280 C2315 1.382 . S
C2281 C2280 1.384 . S
C2281 C2282 1.378 . S
C2282 C2281 1.378 . S
C2282 C2283 1.378 . S
C2282 H2294 0.952 . S
C2283 C2282 1.378 . S
C2283 H2295 0.950 . S
C2283 C2314 1.383 . S
H2284 C2303 0.947 . S
H2285 C2304 0.946 . S
H2286 C2306 0.953 . S
H2287 C2307 0.945 . S
H2288 C2309 0.952 . S
H2289 C2310 0.949 . S
H2290 C2312 0.950 . S
H2291 C2313 0.948 . S
H2292 C2315 0.951 . S
H2293 C2280 0.947 . S
H2294 C2282 0.952 . S
H2295 C2283 0.950 . S
N2296 C2299 1.382 . S
N2296 C2301 1.363 . S
N2297 C2299 1.371 . S
N2297 C2300 1.372 . S
N2298 C2300 1.361 . S
N2298 C2301 1.377 . S
C2299 N2296 1.382 . S
C2299 N2297 1.371 . S
C2299 C2302 1.480 . S
C2300 N2297 1.372 . S
C2300 N2298 1.361 . S
C2300 C2308 1.457 . S
C2301 N2296 1.363 . S
C2301 N2298 1.377 . S
C2301 C2314 1.479 . S
C2302 C2299 1.480 . S
C2302 C2303 1.383 . S
C2302 C2307 1.385 . S
C2303 H2284 0.947 . S
C2303 C2302 1.383 . S
C2303 C2304 1.388 . S
C2304 H2285 0.946 . S
C2304 C2303 1.388 . S
C2304 C2305 1.384 . S
C2305 C2304 1.384 . S
C2305 C2306 1.377 . S
C2306 H2286 0.953 . S
C2306 C2305 1.377 . S
C2306 C2307 1.369 . S
C2307 H2287 0.945 . S
C2307 C2302 1.385 . S
C2307 C2306 1.369 . S
C2308 C2300 1.457 . S
C2308 C2309 1.372 . S
C2308 C2313 1.364 . S
C2309 H2288 0.952 . S
C2309 C2308 1.372 . S
C2309 C2310 1.389 . S
C2310 H2289 0.949 . S
C2310 C2309 1.389 . S
C2310 C2311 1.387 . S
C2311 C2310 1.387 . S
C2311 C2312 1.372 . S
C2312 H2290 0.950 . S
C2312 C2311 1.372 . S
C2312 C2313 1.379 . S
C2313 H2291 0.948 . S
C2313 C2308 1.364 . S
C2313 C2312 1.379 . S
C2314 C2283 1.383 . S
C2314 C2301 1.479 . S
C2314 C2315 1.398 . S
C2315 C2280 1.382 . S
C2315 H2292 0.951 . S
C2315 C2314 1.398 . S
C2316 C2317 1.384 . S
C2316 H2329 0.947 . S
C2316 C2351 1.382 . S
C2317 C2316 1.384 . S
C2317 C2318 1.378 . S
C2318 C2317 1.378 . S
C2318 C2319 1.378 . S
C2318 H2330 0.952 . S
C2319 C2318 1.378 . S
C2319 H2331 0.950 . S
C2319 C2350 1.383 . S
H2320 C2339 0.947 . S
H2321 C2340 0.946 . S
H2322 C2342 0.953 . S
H2323 C2343 0.945 . S
H2324 C2345 0.952 . S
H2325 C2346 0.949 . S
H2326 C2348 0.950 . S
H2327 C2349 0.948 . S
H2328 C2351 0.951 . S
H2329 C2316 0.947 . S
H2330 C2318 0.952 . S
H2331 C2319 0.950 . S
N2332 C2335 1.382 . S
N2332 C2337 1.363 . S
N2333 C2335 1.371 . S
N2333 C2336 1.372 . S
N2334 C2336 1.361 . S
N2334 C2337 1.377 . S
C2335 N2332 1.382 . S
C2335 N2333 1.371 . S
C2335 C2338 1.480 . S
C2336 N2333 1.372 . S
C2336 N2334 1.361 . S
C2336 C2344 1.457 . S
C2337 N2332 1.363 . S
C2337 N2334 1.377 . S
C2337 C2350 1.479 . S
C2338 C2335 1.480 . S
C2338 C2339 1.383 . S
C2338 C2343 1.385 . S
C2339 H2320 0.947 . S
C2339 C2338 1.383 . S
C2339 C2340 1.388 . S
C2340 H2321 0.946 . S
C2340 C2339 1.388 . S
C2340 C2341 1.384 . S
C2341 C2340 1.384 . S
C2341 C2342 1.377 . S
C2342 H2322 0.953 . S
C2342 C2341 1.377 . S
C2342 C2343 1.369 . S
C2343 H2323 0.945 . S
C2343 C2338 1.385 . S
C2343 C2342 1.369 . S
C2344 C2336 1.457 . S
C2344 C2345 1.372 . S
C2344 C2349 1.364 . S
C2345 H2324 0.952 . S
C2345 C2344 1.372 . S
C2345 C2346 1.389 . S
C2346 H2325 0.949 . S
C2346 C2345 1.389 . S
C2346 C2347 1.387 . S
C2347 C2346 1.387 . S
C2347 C2348 1.372 . S
C2348 H2326 0.950 . S
C2348 C2347 1.372 . S
C2348 C2349 1.379 . S
C2349 H2327 0.948 . S
C2349 C2344 1.364 . S
C2349 C2348 1.379 . S
C2350 C2319 1.383 . S
C2350 C2337 1.479 . S
C2350 C2351 1.398 . S
C2351 C2316 1.382 . S
C2351 H2328 0.951 . S
C2351 C2350 1.398 . S
C2352 C2353 1.384 . S
C2352 H2365 0.947 . S
C2352 C2387 1.382 . S
C2353 C2352 1.384 . S
C2353 C2354 1.378 . S
C2354 C2353 1.378 . S
C2354 C2355 1.378 . S
C2354 H2366 0.952 . S
C2355 C2354 1.378 . S
C2355 H2367 0.950 . S
C2355 C2386 1.383 . S
H2356 C2375 0.947 . S
H2357 C2376 0.946 . S
H2358 C2378 0.953 . S
H2359 C2379 0.945 . S
H2360 C2381 0.952 . S
H2361 C2382 0.949 . S
H2362 C2384 0.950 . S
H2363 C2385 0.948 . S
H2364 C2387 0.951 . S
H2365 C2352 0.947 . S
H2366 C2354 0.952 . S
H2367 C2355 0.950 . S
N2368 C2371 1.382 . S
N2368 C2373 1.363 . S
N2369 C2371 1.371 . S
N2369 C2372 1.372 . S
N2370 C2372 1.361 . S
N2370 C2373 1.377 . S
C2371 N2368 1.382 . S
C2371 N2369 1.371 . S
C2371 C2374 1.480 . S
C2372 N2369 1.372 . S
C2372 N2370 1.361 . S
C2372 C2380 1.457 . S
C2373 N2368 1.363 . S
C2373 N2370 1.377 . S
C2373 C2386 1.479 . S
C2374 C2371 1.480 . S
C2374 C2375 1.383 . S
C2374 C2379 1.385 . S
C2375 H2356 0.947 . S
C2375 C2374 1.383 . S
C2375 C2376 1.388 . S
C2376 H2357 0.946 . S
C2376 C2375 1.388 . S
C2376 C2377 1.384 . S
C2377 C2376 1.384 . S
C2377 C2378 1.377 . S
C2378 H2358 0.953 . S
C2378 C2377 1.377 . S
C2378 C2379 1.369 . S
C2379 H2359 0.945 . S
C2379 C2374 1.385 . S
C2379 C2378 1.369 . S
C2380 C2372 1.457 . S
C2380 C2381 1.372 . S
C2380 C2385 1.364 . S
C2381 H2360 0.952 . S
C2381 C2380 1.372 . S
C2381 C2382 1.389 . S
C2382 H2361 0.949 . S
C2382 C2381 1.389 . S
C2382 C2383 1.387 . S
C2383 C2382 1.387 . S
C2383 C2384 1.372 . S
C2384 H2362 0.950 . S
C2384 C2383 1.372 . S
C2384 C2385 1.379 . S
C2385 H2363 0.948 . S
C2385 C2380 1.364 . S
C2385 C2384 1.379 . S
C2386 C2355 1.383 . S
C2386 C2373 1.479 . S
C2386 C2387 1.398 . S
C2387 C2352 1.382 . S
C2387 H2364 0.951 . S
C2387 C2386 1.398 . S
C2388 C2389 1.384 . S
C2388 H2401 0.947 . S
C2388 C2423 1.382 . S
C2389 C2388 1.384 . S
C2389 C2390 1.378 . S
C2390 C2389 1.378 . S
C2390 C2391 1.378 . S
C2390 H2402 0.952 . S
C2391 C2390 1.378 . S
C2391 H2403 0.950 . S
C2391 C2422 1.383 . S
H2392 C2411 0.947 . S
H2393 C2412 0.946 . S
H2394 C2414 0.953 . S
H2395 C2415 0.945 . S
H2396 C2417 0.952 . S
H2397 C2418 0.949 . S
H2398 C2420 0.950 . S
H2399 C2421 0.948 . S
H2400 C2423 0.951 . S
H2401 C2388 0.947 . S
H2402 C2390 0.952 . S
H2403 C2391 0.950 . S
N2404 C2407 1.382 . S
N2404 C2409 1.363 . S
N2405 C2407 1.371 . S
N2405 C2408 1.372 . S
N2406 C2408 1.361 . S
N2406 C2409 1.377 . S
C2407 N2404 1.382 . S
C2407 N2405 1.371 . S
C2407 C2410 1.480 . S
C2408 N2405 1.372 . S
C2408 N2406 1.361 . S
C2408 C2416 1.457 . S
C2409 N2404 1.363 . S
C2409 N2406 1.377 . S
C2409 C2422 1.479 . S
C2410 C2407 1.480 . S
C2410 C2411 1.383 . S
C2410 C2415 1.385 . S
C2411 H2392 0.947 . S
C2411 C2410 1.383 . S
C2411 C2412 1.388 . S
C2412 H2393 0.946 . S
C2412 C2411 1.388 . S
C2412 C2413 1.384 . S
C2413 C2412 1.384 . S
C2413 C2414 1.377 . S
C2414 H2394 0.953 . S
C2414 C2413 1.377 . S
C2414 C2415 1.369 . S
C2415 H2395 0.945 . S
C2415 C2410 1.385 . S
C2415 C2414 1.369 . S
C2416 C2408 1.457 . S
C2416 C2417 1.372 . S
C2416 C2421 1.364 . S
C2417 H2396 0.952 . S
C2417 C2416 1.372 . S
C2417 C2418 1.389 . S
C2418 H2397 0.949 . S
C2418 C2417 1.389 . S
C2418 C2419 1.387 . S
C2419 C2418 1.387 . S
C2419 C2420 1.372 . S
C2420 H2398 0.950 . S
C2420 C2419 1.372 . S
C2420 C2421 1.379 . S
C2421 H2399 0.948 . S
C2421 C2416 1.364 . S
C2421 C2420 1.379 . S
C2422 C2391 1.383 . S
C2422 C2409 1.479 . S
C2422 C2423 1.398 . S
C2423 C2388 1.382 . S
C2423 H2400 0.951 . S
C2423 C2422 1.398 . S
C2424 C2425 1.384 . S
C2424 H2437 0.947 . S
C2424 C2459 1.382 . S
C2425 C2424 1.384 . S
C2425 C2426 1.378 . S
C2426 C2425 1.378 . S
C2426 C2427 1.378 . S
C2426 H2438 0.952 . S
C2427 C2426 1.378 . S
C2427 H2439 0.950 . S
C2427 C2458 1.383 . S
H2428 C2447 0.947 . S
H2429 C2448 0.946 . S
H2430 C2450 0.953 . S
H2431 C2451 0.945 . S
H2432 C2453 0.952 . S
H2433 C2454 0.949 . S
H2434 C2456 0.950 . S
H2435 C2457 0.948 . S
H2436 C2459 0.951 . S
H2437 C2424 0.947 . S
H2438 C2426 0.952 . S
H2439 C2427 0.950 . S
N2440 C2443 1.382 . S
N2440 C2445 1.363 . S
N2441 C2443 1.371 . S
N2441 C2444 1.372 . S
N2442 C2444 1.361 . S
N2442 C2445 1.377 . S
C2443 N2440 1.382 . S
C2443 N2441 1.371 . S
C2443 C2446 1.480 . S
C2444 N2441 1.372 . S
C2444 N2442 1.361 . S
C2444 C2452 1.457 . S
C2445 N2440 1.363 . S
C2445 N2442 1.377 . S
C2445 C2458 1.479 . S
C2446 C2443 1.480 . S
C2446 C2447 1.383 . S
C2446 C2451 1.385 . S
C2447 H2428 0.947 . S
C2447 C2446 1.383 . S
C2447 C2448 1.388 . S
C2448 H2429 0.946 . S
C2448 C2447 1.388 . S
C2448 C2449 1.384 . S
C2449 C2448 1.384 . S
C2449 C2450 1.377 . S
C2450 H2430 0.953 . S
C2450 C2449 1.377 . S
C2450 C2451 1.369 . S
C2451 H2431 0.945 . S
C2451 C2446 1.385 . S
C2451 C2450 1.369 . S
C2452 C2444 1.457 . S
C2452 C2453 1.372 . S
C2452 C2457 1.364 . S
C2453 H2432 0.952 . S
C2453 C2452 1.372 . S
C2453 C2454 1.389 . S
C2454 H2433 0.949 . S
C2454 C2453 1.389 . S
C2454 C2455 1.387 . S
C2455 C2454 1.387 . S
C2455 C2456 1.372 . S
C2456 H2434 0.950 . S
C2456 C2455 1.372 . S
C2456 C2457 1.379 . S
C2457 H2435 0.948 . S
C2457 C2452 1.364 . S
C2457 C2456 1.379 . S
C2458 C2427 1.383 . S
C2458 C2445 1.479 . S
C2458 C2459 1.398 . S
C2459 C2424 1.382 . S
C2459 H2436 0.951 . S
C2459 C2458 1.398 . S
C2460 C2461 1.384 . S
C2460 H2473 0.947 . S
C2460 C2495 1.382 . S
C2461 C2460 1.384 . S
C2461 C2462 1.378 . S
C2462 C2461 1.378 . S
C2462 C2463 1.378 . S
C2462 H2474 0.952 . S
C2463 C2462 1.378 . S
C2463 H2475 0.950 . S
C2463 C2494 1.383 . S
H2464 C2483 0.947 . S
H2465 C2484 0.946 . S
H2466 C2486 0.953 . S
H2467 C2487 0.945 . S
H2468 C2489 0.952 . S
H2469 C2490 0.949 . S
H2470 C2492 0.950 . S
H2471 C2493 0.948 . S
H2472 C2495 0.951 . S
H2473 C2460 0.947 . S
H2474 C2462 0.952 . S
H2475 C2463 0.950 . S
N2476 C2479 1.382 . S
N2476 C2481 1.363 . S
N2477 C2479 1.371 . S
N2477 C2480 1.372 . S
N2478 C2480 1.361 . S
N2478 C2481 1.377 . S
C2479 N2476 1.382 . S
C2479 N2477 1.371 . S
C2479 C2482 1.480 . S
C2480 N2477 1.372 . S
C2480 N2478 1.361 . S
C2480 C2488 1.457 . S
C2481 N2476 1.363 . S
C2481 N2478 1.377 . S
C2481 C2494 1.479 . S
C2482 C2479 1.480 . S
C2482 C2483 1.383 . S
C2482 C2487 1.385 . S
C2483 H2464 0.947 . S
C2483 C2482 1.383 . S
C2483 C2484 1.388 . S
C2484 H2465 0.946 . S
C2484 C2483 1.388 . S
C2484 C2485 1.384 . S
C2485 C2484 1.384 . S
C2485 C2486 1.377 . S
C2486 H2466 0.953 . S
C2486 C2485 1.377 . S
C2486 C2487 1.369 . S
C2487 H2467 0.945 . S
C2487 C2482 1.385 . S
C2487 C2486 1.369 . S
C2488 C2480 1.457 . S
C2488 C2489 1.372 . S
C2488 C2493 1.364 . S
C2489 H2468 0.952 . S
C2489 C2488 1.372 . S
C2489 C2490 1.389 . S
C2490 H2469 0.949 . S
C2490 C2489 1.389 . S
C2490 C2491 1.387 . S
C2491 C2490 1.387 . S
C2491 C2492 1.372 . S
C2492 H2470 0.950 . S
C2492 C2491 1.372 . S
C2492 C2493 1.379 . S
C2493 H2471 0.948 . S
C2493 C2488 1.364 . S
C2493 C2492 1.379 . S
C2494 C2463 1.383 . S
C2494 C2481 1.479 . S
C2494 C2495 1.398 . S
C2495 C2460 1.382 . S
C2495 H2472 0.951 . S
C2495 C2494 1.398 . S
C2496 C2497 1.384 . S
C2496 H2509 0.947 . S
C2496 C2531 1.382 . S
C2497 C2496 1.384 . S
C2497 C2498 1.378 . S
C2498 C2497 1.378 . S
C2498 C2499 1.378 . S
C2498 H2510 0.952 . S
C2499 C2498 1.378 . S
C2499 H2511 0.950 . S
C2499 C2530 1.383 . S
H2500 C2519 0.947 . S
H2501 C2520 0.946 . S
H2502 C2522 0.953 . S
H2503 C2523 0.945 . S
H2504 C2525 0.952 . S
H2505 C2526 0.949 . S
H2506 C2528 0.950 . S
H2507 C2529 0.948 . S
H2508 C2531 0.951 . S
H2509 C2496 0.947 . S
H2510 C2498 0.952 . S
H2511 C2499 0.950 . S
N2512 C2515 1.382 . S
N2512 C2517 1.363 . S
N2513 C2515 1.371 . S
N2513 C2516 1.372 . S
N2514 C2516 1.361 . S
N2514 C2517 1.377 . S
C2515 N2512 1.382 . S
C2515 N2513 1.371 . S
C2515 C2518 1.480 . S
C2516 N2513 1.372 . S
C2516 N2514 1.361 . S
C2516 C2524 1.457 . S
C2517 N2512 1.363 . S
C2517 N2514 1.377 . S
C2517 C2530 1.479 . S
C2518 C2515 1.480 . S
C2518 C2519 1.383 . S
C2518 C2523 1.385 . S
C2519 H2500 0.947 . S
C2519 C2518 1.383 . S
C2519 C2520 1.388 . S
C2520 H2501 0.946 . S
C2520 C2519 1.388 . S
C2520 C2521 1.384 . S
C2521 C2520 1.384 . S
C2521 C2522 1.377 . S
C2522 H2502 0.953 . S
C2522 C2521 1.377 . S
C2522 C2523 1.369 . S
C2523 H2503 0.945 . S
C2523 C2518 1.385 . S
C2523 C2522 1.369 . S
C2524 C2516 1.457 . S
C2524 C2525 1.372 . S
C2524 C2529 1.364 . S
C2525 H2504 0.952 . S
C2525 C2524 1.372 . S
C2525 C2526 1.389 . S
C2526 H2505 0.949 . S
C2526 C2525 1.389 . S
C2526 C2527 1.387 . S
C2527 C2526 1.387 . S
C2527 C2528 1.372 . S
C2528 H2506 0.950 . S
C2528 C2527 1.372 . S
C2528 C2529 1.379 . S
C2529 H2507 0.948 . S
C2529 C2524 1.364 . S
C2529 C2528 1.379 . S
C2530 C2499 1.383 . S
C2530 C2517 1.479 . S
C2530 C2531 1.398 . S
C2531 C2496 1.382 . S
C2531 H2508 0.951 . S
C2531 C2530 1.398 . S
C2532 C2533 1.384 . S
C2532 H2545 0.947 . S
C2532 C2567 1.382 . S
C2533 C2532 1.384 . S
C2533 C2534 1.378 . S
C2534 C2533 1.378 . S
C2534 C2535 1.378 . S
C2534 H2546 0.952 . S
C2535 C2534 1.378 . S
C2535 H2547 0.950 . S
C2535 C2566 1.383 . S
H2536 C2555 0.947 . S
H2537 C2556 0.946 . S
H2538 C2558 0.953 . S
H2539 C2559 0.945 . S
H2540 C2561 0.952 . S
H2541 C2562 0.949 . S
H2542 C2564 0.950 . S
H2543 C2565 0.948 . S
H2544 C2567 0.951 . S
H2545 C2532 0.947 . S
H2546 C2534 0.952 . S
H2547 C2535 0.950 . S
N2548 C2551 1.382 . S
N2548 C2553 1.363 . S
N2549 C2551 1.371 . S
N2549 C2552 1.372 . S
N2550 C2552 1.361 . S
N2550 C2553 1.377 . S
C2551 N2548 1.382 . S
C2551 N2549 1.371 . S
C2551 C2554 1.480 . S
C2552 N2549 1.372 . S
C2552 N2550 1.361 . S
C2552 C2560 1.457 . S
C2553 N2548 1.363 . S
C2553 N2550 1.377 . S
C2553 C2566 1.479 . S
C2554 C2551 1.480 . S
C2554 C2555 1.383 . S
C2554 C2559 1.385 . S
C2555 H2536 0.947 . S
C2555 C2554 1.383 . S
C2555 C2556 1.388 . S
C2556 H2537 0.946 . S
C2556 C2555 1.388 . S
C2556 C2557 1.384 . S
C2557 C2556 1.384 . S
C2557 C2558 1.377 . S
C2558 H2538 0.953 . S
C2558 C2557 1.377 . S
C2558 C2559 1.369 . S
C2559 H2539 0.945 . S
C2559 C2554 1.385 . S
C2559 C2558 1.369 . S
C2560 C2552 1.457 . S
C2560 C2561 1.372 . S
C2560 C2565 1.364 . S
C2561 H2540 0.952 . S
C2561 C2560 1.372 . S
C2561 C2562 1.389 . S
C2562 H2541 0.949 . S
C2562 C2561 1.389 . S
C2562 C2563 1.387 . S
C2563 C2562 1.387 . S
C2563 C2564 1.372 . S
C2564 H2542 0.950 . S
C2564 C2563 1.372 . S
C2564 C2565 1.379 . S
C2565 H2543 0.948 . S
C2565 C2560 1.364 . S
C2565 C2564 1.379 . S
C2566 C2535 1.383 . S
C2566 C2553 1.479 . S
C2566 C2567 1.398 . S
C2567 C2532 1.382 . S
C2567 H2544 0.951 . S
C2567 C2566 1.398 . S
C2568 C2569 1.384 . S
C2568 H2581 0.947 . S
C2568 C2603 1.382 . S
C2569 C2568 1.384 . S
C2569 C2570 1.378 . S
C2570 C2569 1.378 . S
C2570 C2571 1.378 . S
C2570 H2582 0.952 . S
C2571 C2570 1.378 . S
C2571 H2583 0.950 . S
C2571 C2602 1.383 . S
H2572 C2591 0.947 . S
H2573 C2592 0.946 . S
H2574 C2594 0.953 . S
H2575 C2595 0.945 . S
H2576 C2597 0.952 . S
H2577 C2598 0.949 . S
H2578 C2600 0.950 . S
H2579 C2601 0.948 . S
H2580 C2603 0.951 . S
H2581 C2568 0.947 . S
H2582 C2570 0.952 . S
H2583 C2571 0.950 . S
N2584 C2587 1.382 . S
N2584 C2589 1.363 . S
N2585 C2587 1.371 . S
N2585 C2588 1.372 . S
N2586 C2588 1.361 . S
N2586 C2589 1.377 . S
C2587 N2584 1.382 . S
C2587 N2585 1.371 . S
C2587 C2590 1.480 . S
C2588 N2585 1.372 . S
C2588 N2586 1.361 . S
C2588 C2596 1.457 . S
C2589 N2584 1.363 . S
C2589 N2586 1.377 . S
C2589 C2602 1.479 . S
C2590 C2587 1.480 . S
C2590 C2591 1.383 . S
C2590 C2595 1.385 . S
C2591 H2572 0.947 . S
C2591 C2590 1.383 . S
C2591 C2592 1.388 . S
C2592 H2573 0.946 . S
C2592 C2591 1.388 . S
C2592 C2593 1.384 . S
C2593 C2592 1.384 . S
C2593 C2594 1.377 . S
C2594 H2574 0.953 . S
C2594 C2593 1.377 . S
C2594 C2595 1.369 . S
C2595 H2575 0.945 . S
C2595 C2590 1.385 . S
C2595 C2594 1.369 . S
C2596 C2588 1.457 . S
C2596 C2597 1.372 . S
C2596 C2601 1.364 . S
C2597 H2576 0.952 . S
C2597 C2596 1.372 . S
C2597 C2598 1.389 . S
C2598 H2577 0.949 . S
C2598 C2597 1.389 . S
C2598 C2599 1.387 . S
C2599 C2598 1.387 . S
C2599 C2600 1.372 . S
C2600 H2578 0.950 . S
C2600 C2599 1.372 . S
C2600 C2601 1.379 . S
C2601 H2579 0.948 . S
C2601 C2596 1.364 . S
C2601 C2600 1.379 . S
C2602 C2571 1.383 . S
C2602 C2589 1.479 . S
C2602 C2603 1.398 . S
C2603 C2568 1.382 . S
C2603 H2580 0.951 . S
C2603 C2602 1.398 . S
C2604 C2605 1.384 . S
C2604 H2617 0.947 . S
C2604 C2639 1.382 . S
C2605 C2604 1.384 . S
C2605 C2606 1.378 . S
C2606 C2605 1.378 . S
C2606 C2607 1.378 . S
C2606 H2618 0.952 . S
C2607 C2606 1.378 . S
C2607 H2619 0.950 . S
C2607 C2638 1.383 . S
H2608 C2627 0.947 . S
H2609 C2628 0.946 . S
H2610 C2630 0.953 . S
H2611 C2631 0.945 . S
H2612 C2633 0.952 . S
H2613 C2634 0.949 . S
H2614 C2636 0.950 . S
H2615 C2637 0.948 . S
H2616 C2639 0.951 . S
H2617 C2604 0.947 . S
H2618 C2606 0.952 . S
H2619 C2607 0.950 . S
N2620 C2623 1.382 . S
N2620 C2625 1.363 . S
N2621 C2623 1.371 . S
N2621 C2624 1.372 . S
N2622 C2624 1.361 . S
N2622 C2625 1.377 . S
C2623 N2620 1.382 . S
C2623 N2621 1.371 . S
C2623 C2626 1.480 . S
C2624 N2621 1.372 . S
C2624 N2622 1.361 . S
C2624 C2632 1.457 . S
C2625 N2620 1.363 . S
C2625 N2622 1.377 . S
C2625 C2638 1.479 . S
C2626 C2623 1.480 . S
C2626 C2627 1.383 . S
C2626 C2631 1.385 . S
C2627 H2608 0.947 . S
C2627 C2626 1.383 . S
C2627 C2628 1.388 . S
C2628 H2609 0.946 . S
C2628 C2627 1.388 . S
C2628 C2629 1.384 . S
C2629 C2628 1.384 . S
C2629 C2630 1.377 . S
C2630 H2610 0.953 . S
C2630 C2629 1.377 . S
C2630 C2631 1.369 . S
C2631 H2611 0.945 . S
C2631 C2626 1.385 . S
C2631 C2630 1.369 . S
C2632 C2624 1.457 . S
C2632 C2633 1.372 . S
C2632 C2637 1.364 . S
C2633 H2612 0.952 . S
C2633 C2632 1.372 . S
C2633 C2634 1.389 . S
C2634 H2613 0.949 . S
C2634 C2633 1.389 . S
C2634 C2635 1.387 . S
C2635 C2634 1.387 . S
C2635 C2636 1.372 . S
C2636 H2614 0.950 . S
C2636 C2635 1.372 . S
C2636 C2637 1.379 . S
C2637 H2615 0.948 . S
C2637 C2632 1.364 . S
C2637 C2636 1.379 . S
C2638 C2607 1.383 . S
C2638 C2625 1.479 . S
C2638 C2639 1.398 . S
C2639 C2604 1.382 . S
C2639 H2616 0.951 . S
C2639 C2638 1.398 . S
C2640 C2641 1.384 . S
C2640 H2653 0.947 . S
C2640 C2675 1.382 . S
C2641 C2640 1.384 . S
C2641 C2642 1.378 . S
C2642 C2641 1.378 . S
C2642 C2643 1.378 . S
C2642 H2654 0.952 . S
C2643 C2642 1.378 . S
C2643 H2655 0.950 . S
C2643 C2674 1.383 . S
H2644 C2663 0.947 . S
H2645 C2664 0.946 . S
H2646 C2666 0.953 . S
H2647 C2667 0.945 . S
H2648 C2669 0.952 . S
H2649 C2670 0.949 . S
H2650 C2672 0.950 . S
H2651 C2673 0.948 . S
H2652 C2675 0.951 . S
H2653 C2640 0.947 . S
H2654 C2642 0.952 . S
H2655 C2643 0.950 . S
N2656 C2659 1.382 . S
N2656 C2661 1.363 . S
N2657 C2659 1.371 . S
N2657 C2660 1.372 . S
N2658 C2660 1.361 . S
N2658 C2661 1.377 . S
C2659 N2656 1.382 . S
C2659 N2657 1.371 . S
C2659 C2662 1.480 . S
C2660 N2657 1.372 . S
C2660 N2658 1.361 . S
C2660 C2668 1.457 . S
C2661 N2656 1.363 . S
C2661 N2658 1.377 . S
C2661 C2674 1.479 . S
C2662 C2659 1.480 . S
C2662 C2663 1.383 . S
C2662 C2667 1.385 . S
C2663 H2644 0.947 . S
C2663 C2662 1.383 . S
C2663 C2664 1.388 . S
C2664 H2645 0.946 . S
C2664 C2663 1.388 . S
C2664 C2665 1.384 . S
C2665 C2664 1.384 . S
C2665 C2666 1.377 . S
C2666 H2646 0.953 . S
C2666 C2665 1.377 . S
C2666 C2667 1.369 . S
C2667 H2647 0.945 . S
C2667 C2662 1.385 . S
C2667 C2666 1.369 . S
C2668 C2660 1.457 . S
C2668 C2669 1.372 . S
C2668 C2673 1.364 . S
C2669 H2648 0.952 . S
C2669 C2668 1.372 . S
C2669 C2670 1.389 . S
C2670 H2649 0.949 . S
C2670 C2669 1.389 . S
C2670 C2671 1.387 . S
C2671 C2670 1.387 . S
C2671 C2672 1.372 . S
C2672 H2650 0.950 . S
C2672 C2671 1.372 . S
C2672 C2673 1.379 . S
C2673 H2651 0.948 . S
C2673 C2668 1.364 . S
C2673 C2672 1.379 . S
C2674 C2643 1.383 . S
C2674 C2661 1.479 . S
C2674 C2675 1.398 . S
C2675 C2640 1.382 . S
C2675 H2652 0.951 . S
C2675 C2674 1.398 . S
C2676 C2677 1.384 . S
C2676 H2689 0.947 . S
C2676 C2711 1.382 . S
C2677 C2676 1.384 . S
C2677 C2678 1.378 . S
C2678 C2677 1.378 . S
C2678 C2679 1.378 . S
C2678 H2690 0.952 . S
C2679 C2678 1.378 . S
C2679 H2691 0.950 . S
C2679 C2710 1.383 . S
H2680 C2699 0.947 . S
H2681 C2700 0.946 . S
H2682 C2702 0.953 . S
H2683 C2703 0.945 . S
H2684 C2705 0.952 . S
H2685 C2706 0.949 . S
H2686 C2708 0.950 . S
H2687 C2709 0.948 . S
H2688 C2711 0.951 . S
H2689 C2676 0.947 . S
H2690 C2678 0.952 . S
H2691 C2679 0.950 . S
N2692 C2695 1.382 . S
N2692 C2697 1.363 . S
N2693 C2695 1.371 . S
N2693 C2696 1.372 . S
N2694 C2696 1.361 . S
N2694 C2697 1.377 . S
C2695 N2692 1.382 . S
C2695 N2693 1.371 . S
C2695 C2698 1.480 . S
C2696 N2693 1.372 . S
C2696 N2694 1.361 . S
C2696 C2704 1.457 . S
C2697 N2692 1.363 . S
C2697 N2694 1.377 . S
C2697 C2710 1.479 . S
C2698 C2695 1.480 . S
C2698 C2699 1.383 . S
C2698 C2703 1.385 . S
C2699 H2680 0.947 . S
C2699 C2698 1.383 . S
C2699 C2700 1.388 . S
C2700 H2681 0.946 . S
C2700 C2699 1.388 . S
C2700 C2701 1.384 . S
C2701 C2700 1.384 . S
C2701 C2702 1.377 . S
C2702 H2682 0.953 . S
C2702 C2701 1.377 . S
C2702 C2703 1.369 . S
C2703 H2683 0.945 . S
C2703 C2698 1.385 . S
C2703 C2702 1.369 . S
C2704 C2696 1.457 . S
C2704 C2705 1.372 . S
C2704 C2709 1.364 . S
C2705 H2684 0.952 . S
C2705 C2704 1.372 . S
C2705 C2706 1.389 . S
C2706 H2685 0.949 . S
C2706 C2705 1.389 . S
C2706 C2707 1.387 . S
C2707 C2706 1.387 . S
C2707 C2708 1.372 . S
C2708 H2686 0.950 . S
C2708 C2707 1.372 . S
C2708 C2709 1.379 . S
C2709 H2687 0.948 . S
C2709 C2704 1.364 . S
C2709 C2708 1.379 . S
C2710 C2679 1.383 . S
C2710 C2697 1.479 . S
C2710 C2711 1.398 . S
C2711 C2676 1.382 . S
C2711 H2688 0.951 . S
C2711 C2710 1.398 . S
C2712 C2713 1.384 . S
C2712 H2725 0.947 . S
C2712 C2747 1.382 . S
C2713 C2712 1.384 . S
C2713 C2714 1.378 . S
C2714 C2713 1.378 . S
C2714 C2715 1.378 . S
C2714 H2726 0.952 . S
C2715 C2714 1.378 . S
C2715 H2727 0.950 . S
C2715 C2746 1.383 . S
H2716 C2735 0.947 . S
H2717 C2736 0.946 . S
H2718 C2738 0.953 . S
H2719 C2739 0.945 . S
H2720 C2741 0.952 . S
H2721 C2742 0.949 . S
H2722 C2744 0.950 . S
H2723 C2745 0.948 . S
H2724 C2747 0.951 . S
H2725 C2712 0.947 . S
H2726 C2714 0.952 . S
H2727 C2715 0.950 . S
N2728 C2731 1.382 . S
N2728 C2733 1.363 . S
N2729 C2731 1.371 . S
N2729 C2732 1.372 . S
N2730 C2732 1.361 . S
N2730 C2733 1.377 . S
C2731 N2728 1.382 . S
C2731 N2729 1.371 . S
C2731 C2734 1.480 . S
C2732 N2729 1.372 . S
C2732 N2730 1.361 . S
C2732 C2740 1.457 . S
C2733 N2728 1.363 . S
C2733 N2730 1.377 . S
C2733 C2746 1.479 . S
C2734 C2731 1.480 . S
C2734 C2735 1.383 . S
C2734 C2739 1.385 . S
C2735 H2716 0.947 . S
C2735 C2734 1.383 . S
C2735 C2736 1.388 . S
C2736 H2717 0.946 . S
C2736 C2735 1.388 . S
C2736 C2737 1.384 . S
C2737 C2736 1.384 . S
C2737 C2738 1.377 . S
C2738 H2718 0.953 . S
C2738 C2737 1.377 . S
C2738 C2739 1.369 . S
C2739 H2719 0.945 . S
C2739 C2734 1.385 . S
C2739 C2738 1.369 . S
C2740 C2732 1.457 . S
C2740 C2741 1.372 . S
C2740 C2745 1.364 . S
C2741 H2720 0.952 . S
C2741 C2740 1.372 . S
C2741 C2742 1.389 . S
C2742 H2721 0.949 . S
C2742 C2741 1.389 . S
C2742 C2743 1.387 . S
C2743 C2742 1.387 . S
C2743 C2744 1.372 . S
C2744 H2722 0.950 . S
C2744 C2743 1.372 . S
C2744 C2745 1.379 . S
C2745 H2723 0.948 . S
C2745 C2740 1.364 . S
C2745 C2744 1.379 . S
C2746 C2715 1.383 . S
C2746 C2733 1.479 . S
C2746 C2747 1.398 . S
C2747 C2712 1.382 . S
C2747 H2724 0.951 . S
C2747 C2746 1.398 . S
C2748 C2749 1.384 . S
C2748 H2761 0.947 . S
C2748 C2783 1.382 . S
C2749 C2748 1.384 . S
C2749 C2750 1.378 . S
C2750 C2749 1.378 . S
C2750 C2751 1.378 . S
C2750 H2762 0.952 . S
C2751 C2750 1.378 . S
C2751 H2763 0.950 . S
C2751 C2782 1.383 . S
H2752 C2771 0.947 . S
H2753 C2772 0.946 . S
H2754 C2774 0.953 . S
H2755 C2775 0.945 . S
H2756 C2777 0.952 . S
H2757 C2778 0.949 . S
H2758 C2780 0.950 . S
H2759 C2781 0.948 . S
H2760 C2783 0.951 . S
H2761 C2748 0.947 . S
H2762 C2750 0.952 . S
H2763 C2751 0.950 . S
N2764 C2767 1.382 . S
N2764 C2769 1.363 . S
N2765 C2767 1.371 . S
N2765 C2768 1.372 . S
N2766 C2768 1.361 . S
N2766 C2769 1.377 . S
C2767 N2764 1.382 . S
C2767 N2765 1.371 . S
C2767 C2770 1.480 . S
C2768 N2765 1.372 . S
C2768 N2766 1.361 . S
C2768 C2776 1.457 . S
C2769 N2764 1.363 . S
C2769 N2766 1.377 . S
C2769 C2782 1.479 . S
C2770 C2767 1.480 . S
C2770 C2771 1.383 . S
C2770 C2775 1.385 . S
C2771 H2752 0.947 . S
C2771 C2770 1.383 . S
C2771 C2772 1.388 . S
C2772 H2753 0.946 . S
C2772 C2771 1.388 . S
C2772 C2773 1.384 . S
C2773 C2772 1.384 . S
C2773 C2774 1.377 . S
C2774 H2754 0.953 . S
C2774 C2773 1.377 . S
C2774 C2775 1.369 . S
C2775 H2755 0.945 . S
C2775 C2770 1.385 . S
C2775 C2774 1.369 . S
C2776 C2768 1.457 . S
C2776 C2777 1.372 . S
C2776 C2781 1.364 . S
C2777 H2756 0.952 . S
C2777 C2776 1.372 . S
C2777 C2778 1.389 . S
C2778 H2757 0.949 . S
C2778 C2777 1.389 . S
C2778 C2779 1.387 . S
C2779 C2778 1.387 . S
C2779 C2780 1.372 . S
C2780 H2758 0.950 . S
C2780 C2779 1.372 . S
C2780 C2781 1.379 . S
C2781 H2759 0.948 . S
C2781 C2776 1.364 . S
C2781 C2780 1.379 . S
C2782 C2751 1.383 . S
C2782 C2769 1.479 . S
C2782 C2783 1.398 . S
C2783 C2748 1.382 . S
C2783 H2760 0.951 . S
C2783 C2782 1.398 . S
C2784 C2785 1.384 . S
C2784 H2797 0.947 . S
C2784 C2819 1.382 . S
C2785 C2784 1.384 . S
C2785 C2786 1.378 . S
C2786 C2785 1.378 . S
C2786 C2787 1.378 . S
C2786 H2798 0.952 . S
C2787 C2786 1.378 . S
C2787 H2799 0.950 . S
C2787 C2818 1.383 . S
H2788 C2807 0.947 . S
H2789 C2808 0.946 . S
H2790 C2810 0.953 . S
H2791 C2811 0.945 . S
H2792 C2813 0.952 . S
H2793 C2814 0.949 . S
H2794 C2816 0.950 . S
H2795 C2817 0.948 . S
H2796 C2819 0.951 . S
H2797 C2784 0.947 . S
H2798 C2786 0.952 . S
H2799 C2787 0.950 . S
N2800 C2803 1.382 . S
N2800 C2805 1.363 . S
N2801 C2803 1.371 . S
N2801 C2804 1.372 . S
N2802 C2804 1.361 . S
N2802 C2805 1.377 . S
C2803 N2800 1.382 . S
C2803 N2801 1.371 . S
C2803 C2806 1.480 . S
C2804 N2801 1.372 . S
C2804 N2802 1.361 . S
C2804 C2812 1.457 . S
C2805 N2800 1.363 . S
C2805 N2802 1.377 . S
C2805 C2818 1.479 . S
C2806 C2803 1.480 . S
C2806 C2807 1.383 . S
C2806 C2811 1.385 . S
C2807 H2788 0.947 . S
C2807 C2806 1.383 . S
C2807 C2808 1.388 . S
C2808 H2789 0.946 . S
C2808 C2807 1.388 . S
C2808 C2809 1.384 . S
C2809 C2808 1.384 . S
C2809 C2810 1.377 . S
C2810 H2790 0.953 . S
C2810 C2809 1.377 . S
C2810 C2811 1.369 . S
C2811 H2791 0.945 . S
C2811 C2806 1.385 . S
C2811 C2810 1.369 . S
C2812 C2804 1.457 . S
C2812 C2813 1.372 . S
C2812 C2817 1.364 . S
C2813 H2792 0.952 . S
C2813 C2812 1.372 . S
C2813 C2814 1.389 . S
C2814 H2793 0.949 . S
C2814 C2813 1.389 . S
C2814 C2815 1.387 . S
C2815 C2814 1.387 . S
C2815 C2816 1.372 . S
C2816 H2794 0.950 . S
C2816 C2815 1.372 . S
C2816 C2817 1.379 . S
C2817 H2795 0.948 . S
C2817 C2812 1.364 . S
C2817 C2816 1.379 . S
C2818 C2787 1.383 . S
C2818 C2805 1.479 . S
C2818 C2819 1.398 . S
C2819 C2784 1.382 . S
C2819 H2796 0.951 . S
C2819 C2818 1.398 . S
C2820 C2821 1.384 . S
C2820 H2833 0.947 . S
C2820 C2855 1.382 . S
C2821 C2820 1.384 . S
C2821 C2822 1.378 . S
C2822 C2821 1.378 . S
C2822 C2823 1.378 . S
C2822 H2834 0.952 . S
C2823 C2822 1.378 . S
C2823 H2835 0.950 . S
C2823 C2854 1.383 . S
H2824 C2843 0.947 . S
H2825 C2844 0.946 . S
H2826 C2846 0.953 . S
H2827 C2847 0.945 . S
H2828 C2849 0.952 . S
H2829 C2850 0.949 . S
H2830 C2852 0.950 . S
H2831 C2853 0.948 . S
H2832 C2855 0.951 . S
H2833 C2820 0.947 . S
H2834 C2822 0.952 . S
H2835 C2823 0.950 . S
N2836 C2839 1.382 . S
N2836 C2841 1.363 . S
N2837 C2839 1.371 . S
N2837 C2840 1.372 . S
N2838 C2840 1.361 . S
N2838 C2841 1.377 . S
C2839 N2836 1.382 . S
C2839 N2837 1.371 . S
C2839 C2842 1.480 . S
C2840 N2837 1.372 . S
C2840 N2838 1.361 . S
C2840 C2848 1.457 . S
C2841 N2836 1.363 . S
C2841 N2838 1.377 . S
C2841 C2854 1.479 . S
C2842 C2839 1.480 . S
C2842 C2843 1.383 . S
C2842 C2847 1.385 . S
C2843 H2824 0.947 . S
C2843 C2842 1.383 . S
C2843 C2844 1.388 . S
C2844 H2825 0.946 . S
C2844 C2843 1.388 . S
C2844 C2845 1.384 . S
C2845 C2844 1.384 . S
C2845 C2846 1.377 . S
C2846 H2826 0.953 . S
C2846 C2845 1.377 . S
C2846 C2847 1.369 . S
C2847 H2827 0.945 . S
C2847 C2842 1.385 . S
C2847 C2846 1.369 . S
C2848 C2840 1.457 . S
C2848 C2849 1.372 . S
C2848 C2853 1.364 . S
C2849 H2828 0.952 . S
C2849 C2848 1.372 . S
C2849 C2850 1.389 . S
C2850 H2829 0.949 . S
C2850 C2849 1.389 . S
C2850 C2851 1.387 . S
C2851 C2850 1.387 . S
C2851 C2852 1.372 . S
C2852 H2830 0.950 . S
C2852 C2851 1.372 . S
C2852 C2853 1.379 . S
C2853 H2831 0.948 . S
C2853 C2848 1.364 . S
C2853 C2852 1.379 . S
C2854 C2823 1.383 . S
C2854 C2841 1.479 . S
C2854 C2855 1.398 . S
C2855 C2820 1.382 . S
C2855 H2832 0.951 . S
C2855 C2854 1.398 . S
C2856 C2857 1.384 . S
C2856 H2869 0.947 . S
C2856 C2891 1.382 . S
C2857 C2856 1.384 . S
C2857 C2858 1.378 . S
C2858 C2857 1.378 . S
C2858 C2859 1.378 . S
C2858 H2870 0.952 . S
C2859 C2858 1.378 . S
C2859 H2871 0.950 . S
C2859 C2890 1.383 . S
H2860 C2879 0.947 . S
H2861 C2880 0.946 . S
H2862 C2882 0.953 . S
H2863 C2883 0.945 . S
H2864 C2885 0.952 . S
H2865 C2886 0.949 . S
H2866 C2888 0.950 . S
H2867 C2889 0.948 . S
H2868 C2891 0.951 . S
H2869 C2856 0.947 . S
H2870 C2858 0.952 . S
H2871 C2859 0.950 . S
N2872 C2875 1.382 . S
N2872 C2877 1.363 . S
N2873 C2875 1.371 . S
N2873 C2876 1.372 . S
N2874 C2876 1.361 . S
N2874 C2877 1.377 . S
C2875 N2872 1.382 . S
C2875 N2873 1.371 . S
C2875 C2878 1.480 . S
C2876 N2873 1.372 . S
C2876 N2874 1.361 . S
C2876 C2884 1.457 . S
C2877 N2872 1.363 . S
C2877 N2874 1.377 . S
C2877 C2890 1.479 . S
C2878 C2875 1.480 . S
C2878 C2879 1.383 . S
C2878 C2883 1.385 . S
C2879 H2860 0.947 . S
C2879 C2878 1.383 . S
C2879 C2880 1.388 . S
C2880 H2861 0.946 . S
C2880 C2879 1.388 . S
C2880 C2881 1.384 . S
C2881 C2880 1.384 . S
C2881 C2882 1.377 . S
C2882 H2862 0.953 . S
C2882 C2881 1.377 . S
C2882 C2883 1.369 . S
C2883 H2863 0.945 . S
C2883 C2878 1.385 . S
C2883 C2882 1.369 . S
C2884 C2876 1.457 . S
C2884 C2885 1.372 . S
C2884 C2889 1.364 . S
C2885 H2864 0.952 . S
C2885 C2884 1.372 . S
C2885 C2886 1.389 . S
C2886 H2865 0.949 . S
C2886 C2885 1.389 . S
C2886 C2887 1.387 . S
C2887 C2886 1.387 . S
C2887 C2888 1.372 . S
C2888 H2866 0.950 . S
C2888 C2887 1.372 . S
C2888 C2889 1.379 . S
C2889 H2867 0.948 . S
C2889 C2884 1.364 . S
C2889 C2888 1.379 . S
C2890 C2859 1.383 . S
C2890 C2877 1.479 . S
C2890 C2891 1.398 . S
C2891 C2856 1.382 . S
C2891 H2868 0.951 . S
C2891 C2890 1.398 . S
C2892 C2893 1.384 . S
C2892 H2905 0.947 . S
C2892 C2927 1.382 . S
C2893 C2892 1.384 . S
C2893 C2894 1.378 . S
C2894 C2893 1.378 . S
C2894 C2895 1.378 . S
C2894 H2906 0.952 . S
C2895 C2894 1.378 . S
C2895 H2907 0.950 . S
C2895 C2926 1.383 . S
H2896 C2915 0.947 . S
H2897 C2916 0.946 . S
H2898 C2918 0.953 . S
H2899 C2919 0.945 . S
H2900 C2921 0.952 . S
H2901 C2922 0.949 . S
H2902 C2924 0.950 . S
H2903 C2925 0.948 . S
H2904 C2927 0.951 . S
H2905 C2892 0.947 . S
H2906 C2894 0.952 . S
H2907 C2895 0.950 . S
N2908 C2911 1.382 . S
N2908 C2913 1.363 . S
N2909 C2911 1.371 . S
N2909 C2912 1.372 . S
N2910 C2912 1.361 . S
N2910 C2913 1.377 . S
C2911 N2908 1.382 . S
C2911 N2909 1.371 . S
C2911 C2914 1.480 . S
C2912 N2909 1.372 . S
C2912 N2910 1.361 . S
C2912 C2920 1.457 . S
C2913 N2908 1.363 . S
C2913 N2910 1.377 . S
C2913 C2926 1.479 . S
C2914 C2911 1.480 . S
C2914 C2915 1.383 . S
C2914 C2919 1.385 . S
C2915 H2896 0.947 . S
C2915 C2914 1.383 . S
C2915 C2916 1.388 . S
C2916 H2897 0.946 . S
C2916 C2915 1.388 . S
C2916 C2917 1.384 . S
C2917 C2916 1.384 . S
C2917 C2918 1.377 . S
C2918 H2898 0.953 . S
C2918 C2917 1.377 . S
C2918 C2919 1.369 . S
C2919 H2899 0.945 . S
C2919 C2914 1.385 . S
C2919 C2918 1.369 . S
C2920 C2912 1.457 . S
C2920 C2921 1.372 . S
C2920 C2925 1.364 . S
C2921 H2900 0.952 . S
C2921 C2920 1.372 . S
C2921 C2922 1.389 . S
C2922 H2901 0.949 . S
C2922 C2921 1.389 . S
C2922 C2923 1.387 . S
C2923 C2922 1.387 . S
C2923 C2924 1.372 . S
C2924 H2902 0.950 . S
C2924 C2923 1.372 . S
C2924 C2925 1.379 . S
C2925 H2903 0.948 . S
C2925 C2920 1.364 . S
C2925 C2924 1.379 . S
C2926 C2895 1.383 . S
C2926 C2913 1.479 . S
C2926 C2927 1.398 . S
C2927 C2892 1.382 . S
C2927 H2904 0.951 . S
C2927 C2926 1.398 . S
C2928 C2929 1.384 . S
C2928 H2941 0.947 . S
C2928 C2963 1.382 . S
C2929 C2928 1.384 . S
C2929 C2930 1.378 . S
C2930 C2929 1.378 . S
C2930 C2931 1.378 . S
C2930 H2942 0.952 . S
C2931 C2930 1.378 . S
C2931 H2943 0.950 . S
C2931 C2962 1.383 . S
H2932 C2951 0.947 . S
H2933 C2952 0.946 . S
H2934 C2954 0.953 . S
H2935 C2955 0.945 . S
H2936 C2957 0.952 . S
H2937 C2958 0.949 . S
H2938 C2960 0.950 . S
H2939 C2961 0.948 . S
H2940 C2963 0.951 . S
H2941 C2928 0.947 . S
H2942 C2930 0.952 . S
H2943 C2931 0.950 . S
N2944 C2947 1.382 . S
N2944 C2949 1.363 . S
N2945 C2947 1.371 . S
N2945 C2948 1.372 . S
N2946 C2948 1.361 . S
N2946 C2949 1.377 . S
C2947 N2944 1.382 . S
C2947 N2945 1.371 . S
C2947 C2950 1.480 . S
C2948 N2945 1.372 . S
C2948 N2946 1.361 . S
C2948 C2956 1.457 . S
C2949 N2944 1.363 . S
C2949 N2946 1.377 . S
C2949 C2962 1.479 . S
C2950 C2947 1.480 . S
C2950 C2951 1.383 . S
C2950 C2955 1.385 . S
C2951 H2932 0.947 . S
C2951 C2950 1.383 . S
C2951 C2952 1.388 . S
C2952 H2933 0.946 . S
C2952 C2951 1.388 . S
C2952 C2953 1.384 . S
C2953 C2952 1.384 . S
C2953 C2954 1.377 . S
C2954 H2934 0.953 . S
C2954 C2953 1.377 . S
C2954 C2955 1.369 . S
C2955 H2935 0.945 . S
C2955 C2950 1.385 . S
C2955 C2954 1.369 . S
C2956 C2948 1.457 . S
C2956 C2957 1.372 . S
C2956 C2961 1.364 . S
C2957 H2936 0.952 . S
C2957 C2956 1.372 . S
C2957 C2958 1.389 . S
C2958 H2937 0.949 . S
C2958 C2957 1.389 . S
C2958 C2959 1.387 . S
C2959 C2958 1.387 . S
C2959 C2960 1.372 . S
C2960 H2938 0.950 . S
C2960 C2959 1.372 . S
C2960 C2961 1.379 . S
C2961 H2939 0.948 . S
C2961 C2956 1.364 . S
C2961 C2960 1.379 . S
C2962 C2931 1.383 . S
C2962 C2949 1.479 . S
C2962 C2963 1.398 . S
C2963 C2928 1.382 . S
C2963 H2940 0.951 . S
C2963 C2962 1.398 . S
C2964 C2965 1.384 . S
C2964 H2977 0.947 . S
C2964 C2999 1.382 . S
C2965 C2964 1.384 . S
C2965 C2966 1.378 . S
C2966 C2965 1.378 . S
C2966 C2967 1.378 . S
C2966 H2978 0.952 . S
C2967 C2966 1.378 . S
C2967 H2979 0.950 . S
C2967 C2998 1.383 . S
H2968 C2987 0.947 . S
H2969 C2988 0.946 . S
H2970 C2990 0.953 . S
H2971 C2991 0.945 . S
H2972 C2993 0.952 . S
H2973 C2994 0.949 . S
H2974 C2996 0.950 . S
H2975 C2997 0.948 . S
H2976 C2999 0.951 . S
H2977 C2964 0.947 . S
H2978 C2966 0.952 . S
H2979 C2967 0.950 . S
N2980 C2983 1.382 . S
N2980 C2985 1.363 . S
N2981 C2983 1.371 . S
N2981 C2984 1.372 . S
N2982 C2984 1.361 . S
N2982 C2985 1.377 . S
C2983 N2980 1.382 . S
C2983 N2981 1.371 . S
C2983 C2986 1.480 . S
C2984 N2981 1.372 . S
C2984 N2982 1.361 . S
C2984 C2992 1.457 . S
C2985 N2980 1.363 . S
C2985 N2982 1.377 . S
C2985 C2998 1.479 . S
C2986 C2983 1.480 . S
C2986 C2987 1.383 . S
C2986 C2991 1.385 . S
C2987 H2968 0.947 . S
C2987 C2986 1.383 . S
C2987 C2988 1.388 . S
C2988 H2969 0.946 . S
C2988 C2987 1.388 . S
C2988 C2989 1.384 . S
C2989 C2988 1.384 . S
C2989 C2990 1.377 . S
C2990 H2970 0.953 . S
C2990 C2989 1.377 . S
C2990 C2991 1.369 . S
C2991 H2971 0.945 . S
C2991 C2986 1.385 . S
C2991 C2990 1.369 . S
C2992 C2984 1.457 . S
C2992 C2993 1.372 . S
C2992 C2997 1.364 . S
C2993 H2972 0.952 . S
C2993 C2992 1.372 . S
C2993 C2994 1.389 . S
C2994 H2973 0.949 . S
C2994 C2993 1.389 . S
C2994 C2995 1.387 . S
C2995 C2994 1.387 . S
C2995 C2996 1.372 . S
C2996 H2974 0.950 . S
C2996 C2995 1.372 . S
C2996 C2997 1.379 . S
C2997 H2975 0.948 . S
C2997 C2992 1.364 . S
C2997 C2996 1.379 . S
C2998 C2967 1.383 . S
C2998 C2985 1.479 . S
C2998 C2999 1.398 . S
C2999 C2964 1.382 . S
C2999 H2976 0.951 . S
C2999 C2998 1.398 . S
C3000 C3001 1.384 . S
C3000 H3013 0.947 . S
C3000 C3035 1.382 . S
C3001 C3000 1.384 . S
C3001 C3002 1.378 . S
C3002 C3001 1.378 . S
C3002 C3003 1.378 . S
C3002 H3014 0.952 . S
C3003 C3002 1.378 . S
C3003 H3015 0.950 . S
C3003 C3034 1.383 . S
H3004 C3023 0.947 . S
H3005 C3024 0.946 . S
H3006 C3026 0.953 . S
H3007 C3027 0.945 . S
H3008 C3029 0.952 . S
H3009 C3030 0.949 . S
H3010 C3032 0.950 . S
H3011 C3033 0.948 . S
H3012 C3035 0.951 . S
H3013 C3000 0.947 . S
H3014 C3002 0.952 . S
H3015 C3003 0.950 . S
N3016 C3019 1.382 . S
N3016 C3021 1.363 . S
N3017 C3019 1.371 . S
N3017 C3020 1.372 . S
N3018 C3020 1.361 . S
N3018 C3021 1.377 . S
C3019 N3016 1.382 . S
C3019 N3017 1.371 . S
C3019 C3022 1.480 . S
C3020 N3017 1.372 . S
C3020 N3018 1.361 . S
C3020 C3028 1.457 . S
C3021 N3016 1.363 . S
C3021 N3018 1.377 . S
C3021 C3034 1.479 . S
C3022 C3019 1.480 . S
C3022 C3023 1.383 . S
C3022 C3027 1.385 . S
C3023 H3004 0.947 . S
C3023 C3022 1.383 . S
C3023 C3024 1.388 . S
C3024 H3005 0.946 . S
C3024 C3023 1.388 . S
C3024 C3025 1.384 . S
C3025 C3024 1.384 . S
C3025 C3026 1.377 . S
C3026 H3006 0.953 . S
C3026 C3025 1.377 . S
C3026 C3027 1.369 . S
C3027 H3007 0.945 . S
C3027 C3022 1.385 . S
C3027 C3026 1.369 . S
C3028 C3020 1.457 . S
C3028 C3029 1.372 . S
C3028 C3033 1.364 . S
C3029 H3008 0.952 . S
C3029 C3028 1.372 . S
C3029 C3030 1.389 . S
C3030 H3009 0.949 . S
C3030 C3029 1.389 . S
C3030 C3031 1.387 . S
C3031 C3030 1.387 . S
C3031 C3032 1.372 . S
C3032 H3010 0.950 . S
C3032 C3031 1.372 . S
C3032 C3033 1.379 . S
C3033 H3011 0.948 . S
C3033 C3028 1.364 . S
C3033 C3032 1.379 . S
C3034 C3003 1.383 . S
C3034 C3021 1.479 . S
C3034 C3035 1.398 . S
C3035 C3000 1.382 . S
C3035 H3012 0.951 . S
C3035 C3034 1.398 . S
C3036 C3037 1.384 . S
C3036 H3049 0.947 . S
C3036 C3071 1.382 . S
C3037 C3036 1.384 . S
C3037 C3038 1.378 . S
C3038 C3037 1.378 . S
C3038 C3039 1.378 . S
C3038 H3050 0.952 . S
C3039 C3038 1.378 . S
C3039 H3051 0.950 . S
C3039 C3070 1.383 . S
H3040 C3059 0.947 . S
H3041 C3060 0.946 . S
H3042 C3062 0.953 . S
H3043 C3063 0.945 . S
H3044 C3065 0.952 . S
H3045 C3066 0.949 . S
H3046 C3068 0.950 . S
H3047 C3069 0.948 . S
H3048 C3071 0.951 . S
H3049 C3036 0.947 . S
H3050 C3038 0.952 . S
H3051 C3039 0.950 . S
N3052 C3055 1.382 . S
N3052 C3057 1.363 . S
N3053 C3055 1.371 . S
N3053 C3056 1.372 . S
N3054 C3056 1.361 . S
N3054 C3057 1.377 . S
C3055 N3052 1.382 . S
C3055 N3053 1.371 . S
C3055 C3058 1.480 . S
C3056 N3053 1.372 . S
C3056 N3054 1.361 . S
C3056 C3064 1.457 . S
C3057 N3052 1.363 . S
C3057 N3054 1.377 . S
C3057 C3070 1.479 . S
C3058 C3055 1.480 . S
C3058 C3059 1.383 . S
C3058 C3063 1.385 . S
C3059 H3040 0.947 . S
C3059 C3058 1.383 . S
C3059 C3060 1.388 . S
C3060 H3041 0.946 . S
C3060 C3059 1.388 . S
C3060 C3061 1.384 . S
C3061 C3060 1.384 . S
C3061 C3062 1.377 . S
C3062 H3042 0.953 . S
C3062 C3061 1.377 . S
C3062 C3063 1.369 . S
C3063 H3043 0.945 . S
C3063 C3058 1.385 . S
C3063 C3062 1.369 . S
C3064 C3056 1.457 . S
C3064 C3065 1.372 . S
C3064 C3069 1.364 . S
C3065 H3044 0.952 . S
C3065 C3064 1.372 . S
C3065 C3066 1.389 . S
C3066 H3045 0.949 . S
C3066 C3065 1.389 . S
C3066 C3067 1.387 . S
C3067 C3066 1.387 . S
C3067 C3068 1.372 . S
C3068 H3046 0.950 . S
C3068 C3067 1.372 . S
C3068 C3069 1.379 . S
C3069 H3047 0.948 . S
C3069 C3064 1.364 . S
C3069 C3068 1.379 . S
C3070 C3039 1.383 . S
C3070 C3057 1.479 . S
C3070 C3071 1.398 . S
C3071 C3036 1.382 . S
C3071 H3048 0.951 . S
C3071 C3070 1.398 . S
C3072 C3073 1.384 . S
C3072 H3085 0.947 . S
C3072 C3107 1.382 . S
C3073 C3072 1.384 . S
C3073 C3074 1.378 . S
C3074 C3073 1.378 . S
C3074 C3075 1.378 . S
C3074 H3086 0.952 . S
C3075 C3074 1.378 . S
C3075 H3087 0.950 . S
C3075 C3106 1.383 . S
H3076 C3095 0.947 . S
H3077 C3096 0.946 . S
H3078 C3098 0.953 . S
H3079 C3099 0.945 . S
H3080 C3101 0.952 . S
H3081 C3102 0.949 . S
H3082 C3104 0.950 . S
H3083 C3105 0.948 . S
H3084 C3107 0.951 . S
H3085 C3072 0.947 . S
H3086 C3074 0.952 . S
H3087 C3075 0.950 . S
N3088 C3091 1.382 . S
N3088 C3093 1.363 . S
N3089 C3091 1.371 . S
N3089 C3092 1.372 . S
N3090 C3092 1.361 . S
N3090 C3093 1.377 . S
C3091 N3088 1.382 . S
C3091 N3089 1.371 . S
C3091 C3094 1.480 . S
C3092 N3089 1.372 . S
C3092 N3090 1.361 . S
C3092 C3100 1.457 . S
C3093 N3088 1.363 . S
C3093 N3090 1.377 . S
C3093 C3106 1.479 . S
C3094 C3091 1.480 . S
C3094 C3095 1.383 . S
C3094 C3099 1.385 . S
C3095 H3076 0.947 . S
C3095 C3094 1.383 . S
C3095 C3096 1.388 . S
C3096 H3077 0.946 . S
C3096 C3095 1.388 . S
C3096 C3097 1.384 . S
C3097 C3096 1.384 . S
C3097 C3098 1.377 . S
C3098 H3078 0.953 . S
C3098 C3097 1.377 . S
C3098 C3099 1.369 . S
C3099 H3079 0.945 . S
C3099 C3094 1.385 . S
C3099 C3098 1.369 . S
C3100 C3092 1.457 . S
C3100 C3101 1.372 . S
C3100 C3105 1.364 . S
C3101 H3080 0.952 . S
C3101 C3100 1.372 . S
C3101 C3102 1.389 . S
C3102 H3081 0.949 . S
C3102 C3101 1.389 . S
C3102 C3103 1.387 . S
C3103 C3102 1.387 . S
C3103 C3104 1.372 . S
C3104 H3082 0.950 . S
C3104 C3103 1.372 . S
C3104 C3105 1.379 . S
C3105 H3083 0.948 . S
C3105 C3100 1.364 . S
C3105 C3104 1.379 . S
C3106 C3075 1.383 . S
C3106 C3093 1.479 . S
C3106 C3107 1.398 . S
C3107 C3072 1.382 . S
C3107 H3084 0.951 . S
C3107 C3106 1.398 . S
C3108 C3109 1.384 . S
C3108 H3121 0.947 . S
C3108 C3143 1.382 . S
C3109 C3108 1.384 . S
C3109 C3110 1.378 . S
C3110 C3109 1.378 . S
C3110 C3111 1.378 . S
C3110 H3122 0.952 . S
C3111 C3110 1.378 . S
C3111 H3123 0.950 . S
C3111 C3142 1.383 . S
H3112 C3131 0.947 . S
H3113 C3132 0.946 . S
H3114 C3134 0.953 . S
H3115 C3135 0.945 . S
H3116 C3137 0.952 . S
H3117 C3138 0.949 . S
H3118 C3140 0.950 . S
H3119 C3141 0.948 . S
H3120 C3143 0.951 . S
H3121 C3108 0.947 . S
H3122 C3110 0.952 . S
H3123 C3111 0.950 . S
N3124 C3127 1.382 . S
N3124 C3129 1.363 . S
N3125 C3127 1.371 . S
N3125 C3128 1.372 . S
N3126 C3128 1.361 . S
N3126 C3129 1.377 . S
C3127 N3124 1.382 . S
C3127 N3125 1.371 . S
C3127 C3130 1.480 . S
C3128 N3125 1.372 . S
C3128 N3126 1.361 . S
C3128 C3136 1.457 . S
C3129 N3124 1.363 . S
C3129 N3126 1.377 . S
C3129 C3142 1.479 . S
C3130 C3127 1.480 . S
C3130 C3131 1.383 . S
C3130 C3135 1.385 . S
C3131 H3112 0.947 . S
C3131 C3130 1.383 . S
C3131 C3132 1.388 . S
C3132 H3113 0.946 . S
C3132 C3131 1.388 . S
C3132 C3133 1.384 . S
C3133 C3132 1.384 . S
C3133 C3134 1.377 . S
C3134 H3114 0.953 . S
C3134 C3133 1.377 . S
C3134 C3135 1.369 . S
C3135 H3115 0.945 . S
C3135 C3130 1.385 . S
C3135 C3134 1.369 . S
C3136 C3128 1.457 . S
C3136 C3137 1.372 . S
C3136 C3141 1.364 . S
C3137 H3116 0.952 . S
C3137 C3136 1.372 . S
C3137 C3138 1.389 . S
C3138 H3117 0.949 . S
C3138 C3137 1.389 . S
C3138 C3139 1.387 . S
C3139 C3138 1.387 . S
C3139 C3140 1.372 . S
C3140 H3118 0.950 . S
C3140 C3139 1.372 . S
C3140 C3141 1.379 . S
C3141 H3119 0.948 . S
C3141 C3136 1.364 . S
C3141 C3140 1.379 . S
C3142 C3111 1.383 . S
C3142 C3129 1.479 . S
C3142 C3143 1.398 . S
C3143 C3108 1.382 . S
C3143 H3120 0.951 . S
C3143 C3142 1.398 . S
C3144 C3145 1.384 . S
C3144 H3157 0.947 . S
C3144 C3179 1.382 . S
C3145 C3144 1.384 . S
C3145 C3146 1.378 . S
C3146 C3145 1.378 . S
C3146 C3147 1.378 . S
C3146 H3158 0.952 . S
C3147 C3146 1.378 . S
C3147 H3159 0.950 . S
C3147 C3178 1.383 . S
H3148 C3167 0.947 . S
H3149 C3168 0.946 . S
H3150 C3170 0.953 . S
H3151 C3171 0.945 . S
H3152 C3173 0.952 . S
H3153 C3174 0.949 . S
H3154 C3176 0.950 . S
H3155 C3177 0.948 . S
H3156 C3179 0.951 . S
H3157 C3144 0.947 . S
H3158 C3146 0.952 . S
H3159 C3147 0.950 . S
N3160 C3163 1.382 . S
N3160 C3165 1.363 . S
N3161 C3163 1.371 . S
N3161 C3164 1.372 . S
N3162 C3164 1.361 . S
N3162 C3165 1.377 . S
C3163 N3160 1.382 . S
C3163 N3161 1.371 . S
C3163 C3166 1.480 . S
C3164 N3161 1.372 . S
C3164 N3162 1.361 . S
C3164 C3172 1.457 . S
C3165 N3160 1.363 . S
C3165 N3162 1.377 . S
C3165 C3178 1.479 . S
C3166 C3163 1.480 . S
C3166 C3167 1.383 . S
C3166 C3171 1.385 . S
C3167 H3148 0.947 . S
C3167 C3166 1.383 . S
C3167 C3168 1.388 . S
C3168 H3149 0.946 . S
C3168 C3167 1.388 . S
C3168 C3169 1.384 . S
C3169 C3168 1.384 . S
C3169 C3170 1.377 . S
C3170 H3150 0.953 . S
C3170 C3169 1.377 . S
C3170 C3171 1.369 . S
C3171 H3151 0.945 . S
C3171 C3166 1.385 . S
C3171 C3170 1.369 . S
C3172 C3164 1.457 . S
C3172 C3173 1.372 . S
C3172 C3177 1.364 . S
C3173 H3152 0.952 . S
C3173 C3172 1.372 . S
C3173 C3174 1.389 . S
C3174 H3153 0.949 . S
C3174 C3173 1.389 . S
C3174 C3175 1.387 . S
C3175 C3174 1.387 . S
C3175 C3176 1.372 . S
C3176 H3154 0.950 . S
C3176 C3175 1.372 . S
C3176 C3177 1.379 . S
C3177 H3155 0.948 . S
C3177 C3172 1.364 . S
C3177 C3176 1.379 . S
C3178 C3147 1.383 . S
C3178 C3165 1.479 . S
C3178 C3179 1.398 . S
C3179 C3144 1.382 . S
C3179 H3156 0.951 . S
C3179 C3178 1.398 . S
C3180 C3181 1.384 . S
C3180 H3193 0.947 . S
C3180 C3215 1.382 . S
C3181 C3180 1.384 . S
C3181 C3182 1.378 . S
C3182 C3181 1.378 . S
C3182 C3183 1.378 . S
C3182 H3194 0.952 . S
C3183 C3182 1.378 . S
C3183 H3195 0.950 . S
C3183 C3214 1.383 . S
H3184 C3203 0.947 . S
H3185 C3204 0.946 . S
H3186 C3206 0.953 . S
H3187 C3207 0.945 . S
H3188 C3209 0.952 . S
H3189 C3210 0.949 . S
H3190 C3212 0.950 . S
H3191 C3213 0.948 . S
H3192 C3215 0.951 . S
H3193 C3180 0.947 . S
H3194 C3182 0.952 . S
H3195 C3183 0.950 . S
N3196 C3199 1.382 . S
N3196 C3201 1.363 . S
N3197 C3199 1.371 . S
N3197 C3200 1.372 . S
N3198 C3200 1.361 . S
N3198 C3201 1.377 . S
C3199 N3196 1.382 . S
C3199 N3197 1.371 . S
C3199 C3202 1.480 . S
C3200 N3197 1.372 . S
C3200 N3198 1.361 . S
C3200 C3208 1.457 . S
C3201 N3196 1.363 . S
C3201 N3198 1.377 . S
C3201 C3214 1.479 . S
C3202 C3199 1.480 . S
C3202 C3203 1.383 . S
C3202 C3207 1.385 . S
C3203 H3184 0.947 . S
C3203 C3202 1.383 . S
C3203 C3204 1.388 . S
C3204 H3185 0.946 . S
C3204 C3203 1.388 . S
C3204 C3205 1.384 . S
C3205 C3204 1.384 . S
C3205 C3206 1.377 . S
C3206 H3186 0.953 . S
C3206 C3205 1.377 . S
C3206 C3207 1.369 . S
C3207 H3187 0.945 . S
C3207 C3202 1.385 . S
C3207 C3206 1.369 . S
C3208 C3200 1.457 . S
C3208 C3209 1.372 . S
C3208 C3213 1.364 . S
C3209 H3188 0.952 . S
C3209 C3208 1.372 . S
C3209 C3210 1.389 . S
C3210 H3189 0.949 . S
C3210 C3209 1.389 . S
C3210 C3211 1.387 . S
C3211 C3210 1.387 . S
C3211 C3212 1.372 . S
C3212 H3190 0.950 . S
C3212 C3211 1.372 . S
C3212 C3213 1.379 . S
C3213 H3191 0.948 . S
C3213 C3208 1.364 . S
C3213 C3212 1.379 . S
C3214 C3183 1.383 . S
C3214 C3201 1.479 . S
C3214 C3215 1.398 . S
C3215 C3180 1.382 . S
C3215 H3192 0.951 . S
C3215 C3214 1.398 . S
C3216 C3217 1.384 . S
C3216 H3229 0.947 . S
C3216 C3251 1.382 . S
C3217 C3216 1.384 . S
C3217 C3218 1.378 . S
C3218 C3217 1.378 . S
C3218 C3219 1.378 . S
C3218 H3230 0.952 . S
C3219 C3218 1.378 . S
C3219 H3231 0.950 . S
C3219 C3250 1.383 . S
H3220 C3239 0.947 . S
H3221 C3240 0.946 . S
H3222 C3242 0.953 . S
H3223 C3243 0.945 . S
H3224 C3245 0.952 . S
H3225 C3246 0.949 . S
H3226 C3248 0.950 . S
H3227 C3249 0.948 . S
H3228 C3251 0.951 . S
H3229 C3216 0.947 . S
H3230 C3218 0.952 . S
H3231 C3219 0.950 . S
N3232 C3235 1.382 . S
N3232 C3237 1.363 . S
N3233 C3235 1.371 . S
N3233 C3236 1.372 . S
N3234 C3236 1.361 . S
N3234 C3237 1.377 . S
C3235 N3232 1.382 . S
C3235 N3233 1.371 . S
C3235 C3238 1.480 . S
C3236 N3233 1.372 . S
C3236 N3234 1.361 . S
C3236 C3244 1.457 . S
C3237 N3232 1.363 . S
C3237 N3234 1.377 . S
C3237 C3250 1.479 . S
C3238 C3235 1.480 . S
C3238 C3239 1.383 . S
C3238 C3243 1.385 . S
C3239 H3220 0.947 . S
C3239 C3238 1.383 . S
C3239 C3240 1.388 . S
C3240 H3221 0.946 . S
C3240 C3239 1.388 . S
C3240 C3241 1.384 . S
C3241 C3240 1.384 . S
C3241 C3242 1.377 . S
C3242 H3222 0.953 . S
C3242 C3241 1.377 . S
C3242 C3243 1.369 . S
C3243 H3223 0.945 . S
C3243 C3238 1.385 . S
C3243 C3242 1.369 . S
C3244 C3236 1.457 . S
C3244 C3245 1.372 . S
C3244 C3249 1.364 . S
C3245 H3224 0.952 . S
C3245 C3244 1.372 . S
C3245 C3246 1.389 . S
C3246 H3225 0.949 . S
C3246 C3245 1.389 . S
C3246 C3247 1.387 . S
C3247 C3246 1.387 . S
C3247 C3248 1.372 . S
C3248 H3226 0.950 . S
C3248 C3247 1.372 . S
C3248 C3249 1.379 . S
C3249 H3227 0.948 . S
C3249 C3244 1.364 . S
C3249 C3248 1.379 . S
C3250 C3219 1.383 . S
C3250 C3237 1.479 . S
C3250 C3251 1.398 . S
C3251 C3216 1.382 . S
C3251 H3228 0.951 . S
C3251 C3250 1.398 . S
C3252 C3253 1.384 . S
C3252 H3265 0.947 . S
C3252 C3287 1.382 . S
C3253 C3252 1.384 . S
C3253 C3254 1.378 . S
C3254 C3253 1.378 . S
C3254 C3255 1.378 . S
C3254 H3266 0.952 . S
C3255 C3254 1.378 . S
C3255 H3267 0.950 . S
C3255 C3286 1.383 . S
H3256 C3275 0.947 . S
H3257 C3276 0.946 . S
H3258 C3278 0.953 . S
H3259 C3279 0.945 . S
H3260 C3281 0.952 . S
H3261 C3282 0.949 . S
H3262 C3284 0.950 . S
H3263 C3285 0.948 . S
H3264 C3287 0.951 . S
H3265 C3252 0.947 . S
H3266 C3254 0.952 . S
H3267 C3255 0.950 . S
N3268 C3271 1.382 . S
N3268 C3273 1.363 . S
N3269 C3271 1.371 . S
N3269 C3272 1.372 . S
N3270 C3272 1.361 . S
N3270 C3273 1.377 . S
C3271 N3268 1.382 . S
C3271 N3269 1.371 . S
C3271 C3274 1.480 . S
C3272 N3269 1.372 . S
C3272 N3270 1.361 . S
C3272 C3280 1.457 . S
C3273 N3268 1.363 . S
C3273 N3270 1.377 . S
C3273 C3286 1.479 . S
C3274 C3271 1.480 . S
C3274 C3275 1.383 . S
C3274 C3279 1.385 . S
C3275 H3256 0.947 . S
C3275 C3274 1.383 . S
C3275 C3276 1.388 . S
C3276 H3257 0.946 . S
C3276 C3275 1.388 . S
C3276 C3277 1.384 . S
C3277 C3276 1.384 . S
C3277 C3278 1.377 . S
C3278 H3258 0.953 . S
C3278 C3277 1.377 . S
C3278 C3279 1.369 . S
C3279 H3259 0.945 . S
C3279 C3274 1.385 . S
C3279 C3278 1.369 . S
C3280 C3272 1.457 . S
C3280 C3281 1.372 . S
C3280 C3285 1.364 . S
C3281 H3260 0.952 . S
C3281 C3280 1.372 . S
C3281 C3282 1.389 . S
C3282 H3261 0.949 . S
C3282 C3281 1.389 . S
C3282 C3283 1.387 . S
C3283 C3282 1.387 . S
C3283 C3284 1.372 . S
C3284 H3262 0.950 . S
C3284 C3283 1.372 . S
C3284 C3285 1.379 . S
C3285 H3263 0.948 . S
C3285 C3280 1.364 . S
C3285 C3284 1.379 . S
C3286 C3255 1.383 . S
C3286 C3273 1.479 . S
C3286 C3287 1.398 . S
C3287 C3252 1.382 . S
C3287 H3264 0.951 . S
C3287 C3286 1.398 . S
C3288 C3289 1.384 . S
C3288 H3301 0.947 . S
C3288 C3323 1.382 . S
C3289 C3288 1.384 . S
C3289 C3290 1.378 . S
C3290 C3289 1.378 . S
C3290 C3291 1.378 . S
C3290 H3302 0.952 . S
C3291 C3290 1.378 . S
C3291 H3303 0.950 . S
C3291 C3322 1.383 . S
H3292 C3311 0.947 . S
H3293 C3312 0.946 . S
H3294 C3314 0.953 . S
H3295 C3315 0.945 . S
H3296 C3317 0.952 . S
H3297 C3318 0.949 . S
H3298 C3320 0.950 . S
H3299 C3321 0.948 . S
H3300 C3323 0.951 . S
H3301 C3288 0.947 . S
H3302 C3290 0.952 . S
H3303 C3291 0.950 . S
N3304 C3307 1.382 . S
N3304 C3309 1.363 . S
N3305 C3307 1.371 . S
N3305 C3308 1.372 . S
N3306 C3308 1.361 . S
N3306 C3309 1.377 . S
C3307 N3304 1.382 . S
C3307 N3305 1.371 . S
C3307 C3310 1.480 . S
C3308 N3305 1.372 . S
C3308 N3306 1.361 . S
C3308 C3316 1.457 . S
C3309 N3304 1.363 . S
C3309 N3306 1.377 . S
C3309 C3322 1.479 . S
C3310 C3307 1.480 . S
C3310 C3311 1.383 . S
C3310 C3315 1.385 . S
C3311 H3292 0.947 . S
C3311 C3310 1.383 . S
C3311 C3312 1.388 . S
C3312 H3293 0.946 . S
C3312 C3311 1.388 . S
C3312 C3313 1.384 . S
C3313 C3312 1.384 . S
C3313 C3314 1.377 . S
C3314 H3294 0.953 . S
C3314 C3313 1.377 . S
C3314 C3315 1.369 . S
C3315 H3295 0.945 . S
C3315 C3310 1.385 . S
C3315 C3314 1.369 . S
C3316 C3308 1.457 . S
C3316 C3317 1.372 . S
C3316 C3321 1.364 . S
C3317 H3296 0.952 . S
C3317 C3316 1.372 . S
C3317 C3318 1.389 . S
C3318 H3297 0.949 . S
C3318 C3317 1.389 . S
C3318 C3319 1.387 . S
C3319 C3318 1.387 . S
C3319 C3320 1.372 . S
C3320 H3298 0.950 . S
C3320 C3319 1.372 . S
C3320 C3321 1.379 . S
C3321 H3299 0.948 . S
C3321 C3316 1.364 . S
C3321 C3320 1.379 . S
C3322 C3291 1.383 . S
C3322 C3309 1.479 . S
C3322 C3323 1.398 . S
C3323 C3288 1.382 . S
C3323 H3300 0.951 . S
C3323 C3322 1.398 . S
C3324 C3325 1.384 . S
C3324 H3337 0.947 . S
C3324 C3359 1.382 . S
C3325 C3324 1.384 . S
C3325 C3326 1.378 . S
C3326 C3325 1.378 . S
C3326 C3327 1.378 . S
C3326 H3338 0.952 . S
C3327 C3326 1.378 . S
C3327 H3339 0.950 . S
C3327 C3358 1.383 . S
H3328 C3347 0.947 . S
H3329 C3348 0.946 . S
H3330 C3350 0.953 . S
H3331 C3351 0.945 . S
H3332 C3353 0.952 . S
H3333 C3354 0.949 . S
H3334 C3356 0.950 . S
H3335 C3357 0.948 . S
H3336 C3359 0.951 . S
H3337 C3324 0.947 . S
H3338 C3326 0.952 . S
H3339 C3327 0.950 . S
N3340 C3343 1.382 . S
N3340 C3345 1.363 . S
N3341 C3343 1.371 . S
N3341 C3344 1.372 . S
N3342 C3344 1.361 . S
N3342 C3345 1.377 . S
C3343 N3340 1.382 . S
C3343 N3341 1.371 . S
C3343 C3346 1.480 . S
C3344 N3341 1.372 . S
C3344 N3342 1.361 . S
C3344 C3352 1.457 . S
C3345 N3340 1.363 . S
C3345 N3342 1.377 . S
C3345 C3358 1.479 . S
C3346 C3343 1.480 . S
C3346 C3347 1.383 . S
C3346 C3351 1.385 . S
C3347 H3328 0.947 . S
C3347 C3346 1.383 . S
C3347 C3348 1.388 . S
C3348 H3329 0.946 . S
C3348 C3347 1.388 . S
C3348 C3349 1.384 . S
C3349 C3348 1.384 . S
C3349 C3350 1.377 . S
C3350 H3330 0.953 . S
C3350 C3349 1.377 . S
C3350 C3351 1.369 . S
C3351 H3331 0.945 . S
C3351 C3346 1.385 . S
C3351 C3350 1.369 . S
C3352 C3344 1.457 . S
C3352 C3353 1.372 . S
C3352 C3357 1.364 . S
C3353 H3332 0.952 . S
C3353 C3352 1.372 . S
C3353 C3354 1.389 . S
C3354 H3333 0.949 . S
C3354 C3353 1.389 . S
C3354 C3355 1.387 . S
C3355 C3354 1.387 . S
C3355 C3356 1.372 . S
C3356 H3334 0.950 . S
C3356 C3355 1.372 . S
C3356 C3357 1.379 . S
C3357 H3335 0.948 . S
C3357 C3352 1.364 . S
C3357 C3356 1.379 . S
C3358 C3327 1.383 . S
C3358 C3345 1.479 . S
C3358 C3359 1.398 . S
C3359 C3324 1.382 . S
C3359 H3336 0.951 . S
C3359 C3358 1.398 . S
C3360 C3361 1.384 . S
C3360 H3373 0.947 . S
C3360 C3395 1.382 . S
C3361 C3360 1.384 . S
C3361 C3362 1.378 . S
C3362 C3361 1.378 . S
C3362 C3363 1.378 . S
C3362 H3374 0.952 . S
C3363 C3362 1.378 . S
C3363 H3375 0.950 . S
C3363 C3394 1.383 . S
H3364 C3383 0.947 . S
H3365 C3384 0.946 . S
H3366 C3386 0.953 . S
H3367 C3387 0.945 . S
H3368 C3389 0.952 . S
H3369 C3390 0.949 . S
H3370 C3392 0.950 . S
H3371 C3393 0.948 . S
H3372 C3395 0.951 . S
H3373 C3360 0.947 . S
H3374 C3362 0.952 . S
H3375 C3363 0.950 . S
N3376 C3379 1.382 . S
N3376 C3381 1.363 . S
N3377 C3379 1.371 . S
N3377 C3380 1.372 . S
N3378 C3380 1.361 . S
N3378 C3381 1.377 . S
C3379 N3376 1.382 . S
C3379 N3377 1.371 . S
C3379 C3382 1.480 . S
C3380 N3377 1.372 . S
C3380 N3378 1.361 . S
C3380 C3388 1.457 . S
C3381 N3376 1.363 . S
C3381 N3378 1.377 . S
C3381 C3394 1.479 . S
C3382 C3379 1.480 . S
C3382 C3383 1.383 . S
C3382 C3387 1.385 . S
C3383 H3364 0.947 . S
C3383 C3382 1.383 . S
C3383 C3384 1.388 . S
C3384 H3365 0.946 . S
C3384 C3383 1.388 . S
C3384 C3385 1.384 . S
C3385 C3384 1.384 . S
C3385 C3386 1.377 . S
C3386 H3366 0.953 . S
C3386 C3385 1.377 . S
C3386 C3387 1.369 . S
C3387 H3367 0.945 . S
C3387 C3382 1.385 . S
C3387 C3386 1.369 . S
C3388 C3380 1.457 . S
C3388 C3389 1.372 . S
C3388 C3393 1.364 . S
C3389 H3368 0.952 . S
C3389 C3388 1.372 . S
C3389 C3390 1.389 . S
C3390 H3369 0.949 . S
C3390 C3389 1.389 . S
C3390 C3391 1.387 . S
C3391 C3390 1.387 . S
C3391 C3392 1.372 . S
C3392 H3370 0.950 . S
C3392 C3391 1.372 . S
C3392 C3393 1.379 . S
C3393 H3371 0.948 . S
C3393 C3388 1.364 . S
C3393 C3392 1.379 . S
C3394 C3363 1.383 . S
C3394 C3381 1.479 . S
C3394 C3395 1.398 . S
C3395 C3360 1.382 . S
C3395 H3372 0.951 . S
C3395 C3394 1.398 . S
C3396 C3397 1.384 . S
C3396 H3409 0.947 . S
C3396 C3431 1.382 . S
C3397 C3396 1.384 . S
C3397 C3398 1.378 . S
C3398 C3397 1.378 . S
C3398 C3399 1.378 . S
C3398 H3410 0.952 . S
C3399 C3398 1.378 . S
C3399 H3411 0.950 . S
C3399 C3430 1.383 . S
H3400 C3419 0.947 . S
H3401 C3420 0.946 . S
H3402 C3422 0.953 . S
H3403 C3423 0.945 . S
H3404 C3425 0.952 . S
H3405 C3426 0.949 . S
H3406 C3428 0.950 . S
H3407 C3429 0.948 . S
H3408 C3431 0.951 . S
H3409 C3396 0.947 . S
H3410 C3398 0.952 . S
H3411 C3399 0.950 . S
N3412 C3415 1.382 . S
N3412 C3417 1.363 . S
N3413 C3415 1.371 . S
N3413 C3416 1.372 . S
N3414 C3416 1.361 . S
N3414 C3417 1.377 . S
C3415 N3412 1.382 . S
C3415 N3413 1.371 . S
C3415 C3418 1.480 . S
C3416 N3413 1.372 . S
C3416 N3414 1.361 . S
C3416 C3424 1.457 . S
C3417 N3412 1.363 . S
C3417 N3414 1.377 . S
C3417 C3430 1.479 . S
C3418 C3415 1.480 . S
C3418 C3419 1.383 . S
C3418 C3423 1.385 . S
C3419 H3400 0.947 . S
C3419 C3418 1.383 . S
C3419 C3420 1.388 . S
C3420 H3401 0.946 . S
C3420 C3419 1.388 . S
C3420 C3421 1.384 . S
C3421 C3420 1.384 . S
C3421 C3422 1.377 . S
C3422 H3402 0.953 . S
C3422 C3421 1.377 . S
C3422 C3423 1.369 . S
C3423 H3403 0.945 . S
C3423 C3418 1.385 . S
C3423 C3422 1.369 . S
C3424 C3416 1.457 . S
C3424 C3425 1.372 . S
C3424 C3429 1.364 . S
C3425 H3404 0.952 . S
C3425 C3424 1.372 . S
C3425 C3426 1.389 . S
C3426 H3405 0.949 . S
C3426 C3425 1.389 . S
C3426 C3427 1.387 . S
C3427 C3426 1.387 . S
C3427 C3428 1.372 . S
C3428 H3406 0.950 . S
C3428 C3427 1.372 . S
C3428 C3429 1.379 . S
C3429 H3407 0.948 . S
C3429 C3424 1.364 . S
C3429 C3428 1.379 . S
C3430 C3399 1.383 . S
C3430 C3417 1.479 . S
C3430 C3431 1.398 . S
C3431 C3396 1.382 . S
C3431 H3408 0.951 . S
C3431 C3430 1.398 . S
C3432 C3433 1.384 . S
C3432 H3445 0.947 . S
C3432 C3467 1.382 . S
C3433 C3432 1.384 . S
C3433 C3434 1.378 . S
C3434 C3433 1.378 . S
C3434 C3435 1.378 . S
C3434 H3446 0.952 . S
C3435 C3434 1.378 . S
C3435 H3447 0.950 . S
C3435 C3466 1.383 . S
H3436 C3455 0.947 . S
H3437 C3456 0.946 . S
H3438 C3458 0.953 . S
H3439 C3459 0.945 . S
H3440 C3461 0.952 . S
H3441 C3462 0.949 . S
H3442 C3464 0.950 . S
H3443 C3465 0.948 . S
H3444 C3467 0.951 . S
H3445 C3432 0.947 . S
H3446 C3434 0.952 . S
H3447 C3435 0.950 . S
N3448 C3451 1.382 . S
N3448 C3453 1.363 . S
N3449 C3451 1.371 . S
N3449 C3452 1.372 . S
N3450 C3452 1.361 . S
N3450 C3453 1.377 . S
C3451 N3448 1.382 . S
C3451 N3449 1.371 . S
C3451 C3454 1.480 . S
C3452 N3449 1.372 . S
C3452 N3450 1.361 . S
C3452 C3460 1.457 . S
C3453 N3448 1.363 . S
C3453 N3450 1.377 . S
C3453 C3466 1.479 . S
C3454 C3451 1.480 . S
C3454 C3455 1.383 . S
C3454 C3459 1.385 . S
C3455 H3436 0.947 . S
C3455 C3454 1.383 . S
C3455 C3456 1.388 . S
C3456 H3437 0.946 . S
C3456 C3455 1.388 . S
C3456 C3457 1.384 . S
C3457 C3456 1.384 . S
C3457 C3458 1.377 . S
C3458 H3438 0.953 . S
C3458 C3457 1.377 . S
C3458 C3459 1.369 . S
C3459 H3439 0.945 . S
C3459 C3454 1.385 . S
C3459 C3458 1.369 . S
C3460 C3452 1.457 . S
C3460 C3461 1.372 . S
C3460 C3465 1.364 . S
C3461 H3440 0.952 . S
C3461 C3460 1.372 . S
C3461 C3462 1.389 . S
C3462 H3441 0.949 . S
C3462 C3461 1.389 . S
C3462 C3463 1.387 . S
C3463 C3462 1.387 . S
C3463 C3464 1.372 . S
C3464 H3442 0.950 . S
C3464 C3463 1.372 . S
C3464 C3465 1.379 . S
C3465 H3443 0.948 . S
C3465 C3460 1.364 . S
C3465 C3464 1.379 . S
C3466 C3435 1.383 . S
C3466 C3453 1.479 . S
C3466 C3467 1.398 . S
C3467 C3432 1.382 . S
C3467 H3444 0.951 . S
C3467 C3466 1.398 . S
C3468 C3469 1.384 . S
C3468 H3481 0.947 . S
C3468 C3503 1.382 . S
C3469 C3468 1.384 . S
C3469 C3470 1.378 . S
C3470 C3469 1.378 . S
C3470 C3471 1.378 . S
C3470 H3482 0.952 . S
C3471 C3470 1.378 . S
C3471 H3483 0.950 . S
C3471 C3502 1.383 . S
H3472 C3491 0.947 . S
H3473 C3492 0.946 . S
H3474 C3494 0.953 . S
H3475 C3495 0.945 . S
H3476 C3497 0.952 . S
H3477 C3498 0.949 . S
H3478 C3500 0.950 . S
H3479 C3501 0.948 . S
H3480 C3503 0.951 . S
H3481 C3468 0.947 . S
H3482 C3470 0.952 . S
H3483 C3471 0.950 . S
N3484 C3487 1.382 . S
N3484 C3489 1.363 . S
N3485 C3487 1.371 . S
N3485 C3488 1.372 . S
N3486 C3488 1.361 . S
N3486 C3489 1.377 . S
C3487 N3484 1.382 . S
C3487 N3485 1.371 . S
C3487 C3490 1.480 . S
C3488 N3485 1.372 . S
C3488 N3486 1.361 . S
C3488 C3496 1.457 . S
C3489 N3484 1.363 . S
C3489 N3486 1.377 . S
C3489 C3502 1.479 . S
C3490 C3487 1.480 . S
C3490 C3491 1.383 . S
C3490 C3495 1.385 . S
C3491 H3472 0.947 . S
C3491 C3490 1.383 . S
C3491 C3492 1.388 . S
C3492 H3473 0.946 . S
C3492 C3491 1.388 . S
C3492 C3493 1.384 . S
C3493 C3492 1.384 . S
C3493 C3494 1.377 . S
C3494 H3474 0.953 . S
C3494 C3493 1.377 . S
C3494 C3495 1.369 . S
C3495 H3475 0.945 . S
C3495 C3490 1.385 . S
C3495 C3494 1.369 . S
C3496 C3488 1.457 . S
C3496 C3497 1.372 . S
C3496 C3501 1.364 . S
C3497 H3476 0.952 . S
C3497 C3496 1.372 . S
C3497 C3498 1.389 . S
C3498 H3477 0.949 . S
C3498 C3497 1.389 . S
C3498 C3499 1.387 . S
C3499 C3498 1.387 . S
C3499 C3500 1.372 . S
C3500 H3478 0.950 . S
C3500 C3499 1.372 . S
C3500 C3501 1.379 . S
C3501 H3479 0.948 . S
C3501 C3496 1.364 . S
C3501 C3500 1.379 . S
C3502 C3471 1.383 . S
C3502 C3489 1.479 . S
C3502 C3503 1.398 . S
C3503 C3468 1.382 . S
C3503 H3480 0.951 . S
C3503 C3502 1.398 . S
C3504 C3505 1.384 . S
C3504 H3517 0.947 . S
C3504 C3539 1.382 . S
C3505 C3504 1.384 . S
C3505 C3506 1.378 . S
C3506 C3505 1.378 . S
C3506 C3507 1.378 . S
C3506 H3518 0.952 . S
C3507 C3506 1.378 . S
C3507 H3519 0.950 . S
C3507 C3538 1.383 . S
H3508 C3527 0.947 . S
H3509 C3528 0.946 . S
H3510 C3530 0.953 . S
H3511 C3531 0.945 . S
H3512 C3533 0.952 . S
H3513 C3534 0.949 . S
H3514 C3536 0.950 . S
H3515 C3537 0.948 . S
H3516 C3539 0.951 . S
H3517 C3504 0.947 . S
H3518 C3506 0.952 . S
H3519 C3507 0.950 . S
N3520 C3523 1.382 . S
N3520 C3525 1.363 . S
N3521 C3523 1.371 . S
N3521 C3524 1.372 . S
N3522 C3524 1.361 . S
N3522 C3525 1.377 . S
C3523 N3520 1.382 . S
C3523 N3521 1.371 . S
C3523 C3526 1.480 . S
C3524 N3521 1.372 . S
C3524 N3522 1.361 . S
C3524 C3532 1.457 . S
C3525 N3520 1.363 . S
C3525 N3522 1.377 . S
C3525 C3538 1.479 . S
C3526 C3523 1.480 . S
C3526 C3527 1.383 . S
C3526 C3531 1.385 . S
C3527 H3508 0.947 . S
C3527 C3526 1.383 . S
C3527 C3528 1.388 . S
C3528 H3509 0.946 . S
C3528 C3527 1.388 . S
C3528 C3529 1.384 . S
C3529 C3528 1.384 . S
C3529 C3530 1.377 . S
C3530 H3510 0.953 . S
C3530 C3529 1.377 . S
C3530 C3531 1.369 . S
C3531 H3511 0.945 . S
C3531 C3526 1.385 . S
C3531 C3530 1.369 . S
C3532 C3524 1.457 . S
C3532 C3533 1.372 . S
C3532 C3537 1.364 . S
C3533 H3512 0.952 . S
C3533 C3532 1.372 . S
C3533 C3534 1.389 . S
C3534 H3513 0.949 . S
C3534 C3533 1.389 . S
C3534 C3535 1.387 . S
C3535 C3534 1.387 . S
C3535 C3536 1.372 . S
C3536 H3514 0.950 . S
C3536 C3535 1.372 . S
C3536 C3537 1.379 . S
C3537 H3515 0.948 . S
C3537 C3532 1.364 . S
C3537 C3536 1.379 . S
C3538 C3507 1.383 . S
C3538 C3525 1.479 . S
C3538 C3539 1.398 . S
C3539 C3504 1.382 . S
C3539 H3516 0.951 . S
C3539 C3538 1.398 . S
C3540 C3541 1.384 . S
C3540 H3553 0.947 . S
C3540 C3575 1.382 . S
C3541 C3540 1.384 . S
C3541 C3542 1.378 . S
C3542 C3541 1.378 . S
C3542 C3543 1.378 . S
C3542 H3554 0.952 . S
C3543 C3542 1.378 . S
C3543 H3555 0.950 . S
C3543 C3574 1.383 . S
H3544 C3563 0.947 . S
H3545 C3564 0.946 . S
H3546 C3566 0.953 . S
H3547 C3567 0.945 . S
H3548 C3569 0.952 . S
H3549 C3570 0.949 . S
H3550 C3572 0.950 . S
H3551 C3573 0.948 . S
H3552 C3575 0.951 . S
H3553 C3540 0.947 . S
H3554 C3542 0.952 . S
H3555 C3543 0.950 . S
N3556 C3559 1.382 . S
N3556 C3561 1.363 . S
N3557 C3559 1.371 . S
N3557 C3560 1.372 . S
N3558 C3560 1.361 . S
N3558 C3561 1.377 . S
C3559 N3556 1.382 . S
C3559 N3557 1.371 . S
C3559 C3562 1.480 . S
C3560 N3557 1.372 . S
C3560 N3558 1.361 . S
C3560 C3568 1.457 . S
C3561 N3556 1.363 . S
C3561 N3558 1.377 . S
C3561 C3574 1.479 . S
C3562 C3559 1.480 . S
C3562 C3563 1.383 . S
C3562 C3567 1.385 . S
C3563 H3544 0.947 . S
C3563 C3562 1.383 . S
C3563 C3564 1.388 . S
C3564 H3545 0.946 . S
C3564 C3563 1.388 . S
C3564 C3565 1.384 . S
C3565 C3564 1.384 . S
C3565 C3566 1.377 . S
C3566 H3546 0.953 . S
C3566 C3565 1.377 . S
C3566 C3567 1.369 . S
C3567 H3547 0.945 . S
C3567 C3562 1.385 . S
C3567 C3566 1.369 . S
C3568 C3560 1.457 . S
C3568 C3569 1.372 . S
C3568 C3573 1.364 . S
C3569 H3548 0.952 . S
C3569 C3568 1.372 . S
C3569 C3570 1.389 . S
C3570 H3549 0.949 . S
C3570 C3569 1.389 . S
C3570 C3571 1.387 . S
C3571 C3570 1.387 . S
C3571 C3572 1.372 . S
C3572 H3550 0.950 . S
C3572 C3571 1.372 . S
C3572 C3573 1.379 . S
C3573 H3551 0.948 . S
C3573 C3568 1.364 . S
C3573 C3572 1.379 . S
C3574 C3543 1.383 . S
C3574 C3561 1.479 . S
C3574 C3575 1.398 . S
C3575 C3540 1.382 . S
C3575 H3552 0.951 . S
C3575 C3574 1.398 . S
C3576 C3577 1.384 . S
C3576 H3589 0.947 . S
C3576 C3611 1.382 . S
C3577 C3576 1.384 . S
C3577 C3578 1.378 . S
C3578 C3577 1.378 . S
C3578 C3579 1.378 . S
C3578 H3590 0.952 . S
C3579 C3578 1.378 . S
C3579 H3591 0.950 . S
C3579 C3610 1.383 . S
H3580 C3599 0.947 . S
H3581 C3600 0.946 . S
H3582 C3602 0.953 . S
H3583 C3603 0.945 . S
H3584 C3605 0.952 . S
H3585 C3606 0.949 . S
H3586 C3608 0.950 . S
H3587 C3609 0.948 . S
H3588 C3611 0.951 . S
H3589 C3576 0.947 . S
H3590 C3578 0.952 . S
H3591 C3579 0.950 . S
N3592 C3595 1.382 . S
N3592 C3597 1.363 . S
N3593 C3595 1.371 . S
N3593 C3596 1.372 . S
N3594 C3596 1.361 . S
N3594 C3597 1.377 . S
C3595 N3592 1.382 . S
C3595 N3593 1.371 . S
C3595 C3598 1.480 . S
C3596 N3593 1.372 . S
C3596 N3594 1.361 . S
C3596 C3604 1.457 . S
C3597 N3592 1.363 . S
C3597 N3594 1.377 . S
C3597 C3610 1.479 . S
C3598 C3595 1.480 . S
C3598 C3599 1.383 . S
C3598 C3603 1.385 . S
C3599 H3580 0.947 . S
C3599 C3598 1.383 . S
C3599 C3600 1.388 . S
C3600 H3581 0.946 . S
C3600 C3599 1.388 . S
C3600 C3601 1.384 . S
C3601 C3600 1.384 . S
C3601 C3602 1.377 . S
C3602 H3582 0.953 . S
C3602 C3601 1.377 . S
C3602 C3603 1.369 . S
C3603 H3583 0.945 . S
C3603 C3598 1.385 . S
C3603 C3602 1.369 . S
C3604 C3596 1.457 . S
C3604 C3605 1.372 . S
C3604 C3609 1.364 . S
C3605 H3584 0.952 . S
C3605 C3604 1.372 . S
C3605 C3606 1.389 . S
C3606 H3585 0.949 . S
C3606 C3605 1.389 . S
C3606 C3607 1.387 . S
C3607 C3606 1.387 . S
C3607 C3608 1.372 . S
C3608 H3586 0.950 . S
C3608 C3607 1.372 . S
C3608 C3609 1.379 . S
C3609 H3587 0.948 . S
C3609 C3604 1.364 . S
C3609 C3608 1.379 . S
C3610 C3579 1.383 . S
C3610 C3597 1.479 . S
C3610 C3611 1.398 . S
C3611 C3576 1.382 . S
C3611 H3588 0.951 . S
C3611 C3610 1.398 . S
C3612 C3613 1.384 . S
C3612 H3625 0.947 . S
C3612 C3647 1.382 . S
C3613 C3612 1.384 . S
C3613 C3614 1.378 . S
C3614 C3613 1.378 . S
C3614 C3615 1.378 . S
C3614 H3626 0.952 . S
C3615 C3614 1.378 . S
C3615 H3627 0.950 . S
C3615 C3646 1.383 . S
H3616 C3635 0.947 . S
H3617 C3636 0.946 . S
H3618 C3638 0.953 . S
H3619 C3639 0.945 . S
H3620 C3641 0.952 . S
H3621 C3642 0.949 . S
H3622 C3644 0.950 . S
H3623 C3645 0.948 . S
H3624 C3647 0.951 . S
H3625 C3612 0.947 . S
H3626 C3614 0.952 . S
H3627 C3615 0.950 . S
N3628 C3631 1.382 . S
N3628 C3633 1.363 . S
N3629 C3631 1.371 . S
N3629 C3632 1.372 . S
N3630 C3632 1.361 . S
N3630 C3633 1.377 . S
C3631 N3628 1.382 . S
C3631 N3629 1.371 . S
C3631 C3634 1.480 . S
C3632 N3629 1.372 . S
C3632 N3630 1.361 . S
C3632 C3640 1.457 . S
C3633 N3628 1.363 . S
C3633 N3630 1.377 . S
C3633 C3646 1.479 . S
C3634 C3631 1.480 . S
C3634 C3635 1.383 . S
C3634 C3639 1.385 . S
C3635 H3616 0.947 . S
C3635 C3634 1.383 . S
C3635 C3636 1.388 . S
C3636 H3617 0.946 . S
C3636 C3635 1.388 . S
C3636 C3637 1.384 . S
C3637 C3636 1.384 . S
C3637 C3638 1.377 . S
C3638 H3618 0.953 . S
C3638 C3637 1.377 . S
C3638 C3639 1.369 . S
C3639 H3619 0.945 . S
C3639 C3634 1.385 . S
C3639 C3638 1.369 . S
C3640 C3632 1.457 . S
C3640 C3641 1.372 . S
C3640 C3645 1.364 . S
C3641 H3620 0.952 . S
C3641 C3640 1.372 . S
C3641 C3642 1.389 . S
C3642 H3621 0.949 . S
C3642 C3641 1.389 . S
C3642 C3643 1.387 . S
C3643 C3642 1.387 . S
C3643 C3644 1.372 . S
C3644 H3622 0.950 . S
C3644 C3643 1.372 . S
C3644 C3645 1.379 . S
C3645 H3623 0.948 . S
C3645 C3640 1.364 . S
C3645 C3644 1.379 . S
C3646 C3615 1.383 . S
C3646 C3633 1.479 . S
C3646 C3647 1.398 . S
C3647 C3612 1.382 . S
C3647 H3624 0.951 . S
C3647 C3646 1.398 . S
H3648 C3666 0.951 . S
H3649 C3668 0.951 . S
H3650 C3670 0.950 . S
H3651 C3671 0.950 . S
H3652 C3673 0.950 . S
H3653 C3676 0.950 . S
H3654 C3677 0.950 . S
H3655 C3679 0.950 . S
H3656 C3680 0.950 . S
H3657 C3681 0.951 . S
H3658 C3683 0.951 . S
H3659 C3685 0.950 . S
H3660 C3686 0.950 . S
H3661 C3688 0.950 . S
H3662 C3691 0.950 . S
H3663 C3692 0.950 . S
H3664 C3694 0.950 . S
H3665 C3695 0.950 . S
C3666 H3648 0.951 . S
C3666 C3667 1.366 . S
C3666 C3668 1.388 . S
C3667 C3666 1.366 . S
C3667 C3671 1.385 . S
C3668 H3649 0.951 . S
C3668 C3666 1.388 . S
C3668 C3669 1.366 . S
C3669 C3668 1.366 . S
C3669 C3670 1.414 . S
C3669 C3672 1.499 . S
C3670 H3650 0.950 . S
C3670 C3669 1.414 . S
C3670 C3671 1.374 . S
C3671 H3651 0.950 . S
C3671 C3667 1.385 . S
C3671 C3670 1.374 . S
C3672 C3669 1.499 . S
C3672 C3673 1.373 . S
C3672 C3674 1.389 . S
C3673 H3652 0.950 . S
C3673 C3672 1.373 . S
C3673 C3689 1.377 . S
C3674 C3672 1.389 . S
C3674 C3675 1.524 . S
C3674 C3688 1.377 . S
C3675 C3674 1.524 . S
C3675 C3676 1.397 . S
C3675 C3680 1.363 . S
C3676 H3653 0.950 . S
C3676 C3675 1.397 . S
C3676 C3677 1.334 . S
C3677 H3654 0.950 . S
C3677 C3676 1.334 . S
C3677 C3678 1.287 . S
C3678 C3677 1.287 . S
C3678 C3679 1.524 . S
C3678 H3697 0.913 . S
C3679 H3655 0.950 . S
C3679 C3678 1.524 . S
C3679 C3680 1.415 . S
C3680 H3656 0.950 . S
C3680 C3675 1.363 . S
C3680 C3679 1.415 . S
C3681 H3657 0.951 . S
C3681 C3682 1.366 . S
C3681 C3683 1.388 . S
C3682 C3681 1.366 . S
C3682 C3686 1.385 . S
C3683 H3658 0.951 . S
C3683 C3681 1.388 . S
C3683 C3684 1.366 . S
C3684 C3683 1.366 . S
C3684 C3685 1.414 . S
C3684 C3687 1.499 . S
C3685 H3659 0.950 . S
C3685 C3684 1.414 . S
C3685 C3686 1.374 . S
C3686 H3660 0.950 . S
C3686 C3682 1.385 . S
C3686 C3685 1.374 . S
C3687 C3684 1.499 . S
C3687 C3688 1.373 . S
C3687 C3689 1.389 . S
C3688 H3661 0.950 . S
C3688 C3674 1.377 . S
C3688 C3687 1.373 . S
C3689 C3673 1.377 . S
C3689 C3687 1.389 . S
C3689 C3690 1.524 . S
C3690 C3689 1.524 . S
C3690 C3691 1.397 . S
C3690 C3695 1.363 . S
C3691 H3662 0.950 . S
C3691 C3690 1.397 . S
C3691 C3692 1.334 . S
C3692 H3663 0.950 . S
C3692 C3691 1.334 . S
C3692 C3693 1.287 . S
C3693 C3692 1.287 . S
C3693 C3694 1.524 . S
C3693 H3696 0.999 . S
C3694 H3664 0.950 . S
C3694 C3693 1.524 . S
C3694 C3695 1.415 . S
C3695 H3665 0.950 . S
C3695 C3690 1.363 . S
C3695 C3694 1.415 . S
H3696 C3693 0.999 . S
H3697 C3678 0.913 . S
H3698 C3716 0.951 . S
H3699 C3718 0.951 . S
H3700 C3720 0.950 . S
H3701 C3721 0.950 . S
H3702 C3723 0.950 . S
H3703 C3726 0.950 . S
H3704 C3727 0.950 . S
H3705 C3729 0.950 . S
H3706 C3730 0.950 . S
H3707 C3731 0.951 . S
H3708 C3733 0.951 . S
H3709 C3735 0.950 . S
H3710 C3736 0.950 . S
H3711 C3738 0.950 . S
H3712 C3741 0.950 . S
H3713 C3742 0.950 . S
H3714 C3744 0.950 . S
H3715 C3745 0.950 . S
C3716 H3698 0.951 . S
C3716 C3717 1.366 . S
C3716 C3718 1.388 . S
C3717 C3716 1.366 . S
C3717 C3721 1.385 . S
C3718 H3699 0.951 . S
C3718 C3716 1.388 . S
C3718 C3719 1.366 . S
C3719 C3718 1.366 . S
C3719 C3720 1.414 . S
C3719 C3722 1.499 . S
C3720 H3700 0.950 . S
C3720 C3719 1.414 . S
C3720 C3721 1.374 . S
C3721 H3701 0.950 . S
C3721 C3717 1.385 . S
C3721 C3720 1.374 . S
C3722 C3719 1.499 . S
C3722 C3723 1.373 . S
C3722 C3724 1.389 . S
C3723 H3702 0.950 . S
C3723 C3722 1.373 . S
C3723 C3739 1.377 . S
C3724 C3722 1.389 . S
C3724 C3725 1.524 . S
C3724 C3738 1.377 . S
C3725 C3724 1.524 . S
C3725 C3726 1.397 . S
C3725 C3730 1.363 . S
C3726 H3703 0.950 . S
C3726 C3725 1.397 . S
C3726 C3727 1.334 . S
C3727 H3704 0.950 . S
C3727 C3726 1.334 . S
C3727 C3728 1.287 . S
C3728 C3727 1.287 . S
C3728 C3729 1.524 . S
C3728 H3747 0.913 . S
C3729 H3705 0.950 . S
C3729 C3728 1.524 . S
C3729 C3730 1.415 . S
C3730 H3706 0.950 . S
C3730 C3725 1.363 . S
C3730 C3729 1.415 . S
C3731 H3707 0.951 . S
C3731 C3732 1.366 . S
C3731 C3733 1.388 . S
C3732 C3731 1.366 . S
C3732 C3736 1.385 . S
C3733 H3708 0.951 . S
C3733 C3731 1.388 . S
C3733 C3734 1.366 . S
C3734 C3733 1.366 . S
C3734 C3735 1.414 . S
C3734 C3737 1.499 . S
C3735 H3709 0.950 . S
C3735 C3734 1.414 . S
C3735 C3736 1.374 . S
C3736 H3710 0.950 . S
C3736 C3732 1.385 . S
C3736 C3735 1.374 . S
C3737 C3734 1.499 . S
C3737 C3738 1.373 . S
C3737 C3739 1.389 . S
C3738 H3711 0.950 . S
C3738 C3724 1.377 . S
C3738 C3737 1.373 . S
C3739 C3723 1.377 . S
C3739 C3737 1.389 . S
C3739 C3740 1.524 . S
C3740 C3739 1.524 . S
C3740 C3741 1.397 . S
C3740 C3745 1.363 . S
C3741 H3712 0.950 . S
C3741 C3740 1.397 . S
C3741 C3742 1.334 . S
C3742 H3713 0.950 . S
C3742 C3741 1.334 . S
C3742 C3743 1.287 . S
C3743 C3742 1.287 . S
C3743 C3744 1.524 . S
C3743 H3746 0.999 . S
C3744 H3714 0.950 . S
C3744 C3743 1.524 . S
C3744 C3745 1.415 . S
C3745 H3715 0.950 . S
C3745 C3740 1.363 . S
C3745 C3744 1.415 . S
H3746 C3743 0.999 . S
H3747 C3728 0.913 . S
H3748 C3766 0.951 . S
H3749 C3768 0.951 . S
H3750 C3770 0.950 . S
H3751 C3771 0.950 . S
H3752 C3773 0.950 . S
H3753 C3776 0.950 . S
H3754 C3777 0.950 . S
H3755 C3779 0.950 . S
H3756 C3780 0.950 . S
H3757 C3781 0.951 . S
H3758 C3783 0.951 . S
H3759 C3785 0.950 . S
H3760 C3786 0.950 . S
H3761 C3788 0.950 . S
H3762 C3791 0.950 . S
H3763 C3792 0.950 . S
H3764 C3794 0.950 . S
H3765 C3795 0.950 . S
C3766 H3748 0.951 . S
C3766 C3767 1.366 . S
C3766 C3768 1.388 . S
C3767 C3766 1.366 . S
C3767 C3771 1.385 . S
C3768 H3749 0.951 . S
C3768 C3766 1.388 . S
C3768 C3769 1.366 . S
C3769 C3768 1.366 . S
C3769 C3770 1.414 . S
C3769 C3772 1.499 . S
C3770 H3750 0.950 . S
C3770 C3769 1.414 . S
C3770 C3771 1.374 . S
C3771 H3751 0.950 . S
C3771 C3767 1.385 . S
C3771 C3770 1.374 . S
C3772 C3769 1.499 . S
C3772 C3773 1.373 . S
C3772 C3774 1.389 . S
C3773 H3752 0.950 . S
C3773 C3772 1.373 . S
C3773 C3789 1.377 . S
C3774 C3772 1.389 . S
C3774 C3775 1.524 . S
C3774 C3788 1.377 . S
C3775 C3774 1.524 . S
C3775 C3776 1.397 . S
C3775 C3780 1.363 . S
C3776 H3753 0.950 . S
C3776 C3775 1.397 . S
C3776 C3777 1.334 . S
C3777 H3754 0.950 . S
C3777 C3776 1.334 . S
C3777 C3778 1.287 . S
C3778 C3777 1.287 . S
C3778 C3779 1.524 . S
C3778 H3797 0.913 . S
C3779 H3755 0.950 . S
C3779 C3778 1.524 . S
C3779 C3780 1.415 . S
C3780 H3756 0.950 . S
C3780 C3775 1.363 . S
C3780 C3779 1.415 . S
C3781 H3757 0.951 . S
C3781 C3782 1.366 . S
C3781 C3783 1.388 . S
C3782 C3781 1.366 . S
C3782 C3786 1.385 . S
C3783 H3758 0.951 . S
C3783 C3781 1.388 . S
C3783 C3784 1.366 . S
C3784 C3783 1.366 . S
C3784 C3785 1.414 . S
C3784 C3787 1.499 . S
C3785 H3759 0.950 . S
C3785 C3784 1.414 . S
C3785 C3786 1.374 . S
C3786 H3760 0.950 . S
C3786 C3782 1.385 . S
C3786 C3785 1.374 . S
C3787 C3784 1.499 . S
C3787 C3788 1.373 . S
C3787 C3789 1.389 . S
C3788 H3761 0.950 . S
C3788 C3774 1.377 . S
C3788 C3787 1.373 . S
C3789 C3773 1.377 . S
C3789 C3787 1.389 . S
C3789 C3790 1.524 . S
C3790 C3789 1.524 . S
C3790 C3791 1.397 . S
C3790 C3795 1.363 . S
C3791 H3762 0.950 . S
C3791 C3790 1.397 . S
C3791 C3792 1.334 . S
C3792 H3763 0.950 . S
C3792 C3791 1.334 . S
C3792 C3793 1.287 . S
C3793 C3792 1.287 . S
C3793 C3794 1.524 . S
C3793 H3796 0.999 . S
C3794 H3764 0.950 . S
C3794 C3793 1.524 . S
C3794 C3795 1.415 . S
C3795 H3765 0.950 . S
C3795 C3790 1.363 . S
C3795 C3794 1.415 . S
H3796 C3793 0.999 . S
H3797 C3778 0.913 . S
H3798 C3816 0.951 . S
H3799 C3818 0.951 . S
H3800 C3820 0.950 . S
H3801 C3821 0.950 . S
H3802 C3823 0.950 . S
H3803 C3826 0.950 . S
H3804 C3827 0.950 . S
H3805 C3829 0.950 . S
H3806 C3830 0.950 . S
H3807 C3831 0.951 . S
H3808 C3833 0.951 . S
H3809 C3835 0.950 . S
H3810 C3836 0.950 . S
H3811 C3838 0.950 . S
H3812 C3841 0.950 . S
H3813 C3842 0.950 . S
H3814 C3844 0.950 . S
H3815 C3845 0.950 . S
C3816 H3798 0.951 . S
C3816 C3817 1.366 . S
C3816 C3818 1.388 . S
C3817 C3816 1.366 . S
C3817 C3821 1.385 . S
C3818 H3799 0.951 . S
C3818 C3816 1.388 . S
C3818 C3819 1.366 . S
C3819 C3818 1.366 . S
C3819 C3820 1.414 . S
C3819 C3822 1.499 . S
C3820 H3800 0.950 . S
C3820 C3819 1.414 . S
C3820 C3821 1.374 . S
C3821 H3801 0.950 . S
C3821 C3817 1.385 . S
C3821 C3820 1.374 . S
C3822 C3819 1.499 . S
C3822 C3823 1.373 . S
C3822 C3824 1.389 . S
C3823 H3802 0.950 . S
C3823 C3822 1.373 . S
C3823 C3839 1.377 . S
C3824 C3822 1.389 . S
C3824 C3825 1.524 . S
C3824 C3838 1.377 . S
C3825 C3824 1.524 . S
C3825 C3826 1.397 . S
C3825 C3830 1.363 . S
C3826 H3803 0.950 . S
C3826 C3825 1.397 . S
C3826 C3827 1.334 . S
C3827 H3804 0.950 . S
C3827 C3826 1.334 . S
C3827 C3828 1.287 . S
C3828 C3827 1.287 . S
C3828 C3829 1.524 . S
C3828 H3847 0.913 . S
C3829 H3805 0.950 . S
C3829 C3828 1.524 . S
C3829 C3830 1.415 . S
C3830 H3806 0.950 . S
C3830 C3825 1.363 . S
C3830 C3829 1.415 . S
C3831 H3807 0.951 . S
C3831 C3832 1.366 . S
C3831 C3833 1.388 . S
C3832 C3831 1.366 . S
C3832 C3836 1.385 . S
C3833 H3808 0.951 . S
C3833 C3831 1.388 . S
C3833 C3834 1.366 . S
C3834 C3833 1.366 . S
C3834 C3835 1.414 . S
C3834 C3837 1.499 . S
C3835 H3809 0.950 . S
C3835 C3834 1.414 . S
C3835 C3836 1.374 . S
C3836 H3810 0.950 . S
C3836 C3832 1.385 . S
C3836 C3835 1.374 . S
C3837 C3834 1.499 . S
C3837 C3838 1.373 . S
C3837 C3839 1.389 . S
C3838 H3811 0.950 . S
C3838 C3824 1.377 . S
C3838 C3837 1.373 . S
C3839 C3823 1.377 . S
C3839 C3837 1.389 . S
C3839 C3840 1.524 . S
C3840 C3839 1.524 . S
C3840 C3841 1.397 . S
C3840 C3845 1.363 . S
C3841 H3812 0.950 . S
C3841 C3840 1.397 . S
C3841 C3842 1.334 . S
C3842 H3813 0.950 . S
C3842 C3841 1.334 . S
C3842 C3843 1.287 . S
C3843 C3842 1.287 . S
C3843 C3844 1.524 . S
C3843 H3846 0.999 . S
C3844 H3814 0.950 . S
C3844 C3843 1.524 . S
C3844 C3845 1.415 . S
C3845 H3815 0.950 . S
C3845 C3840 1.363 . S
C3845 C3844 1.415 . S
H3846 C3843 0.999 . S
H3847 C3828 0.913 . S
H3848 C3866 0.951 . S
H3849 C3868 0.951 . S
H3850 C3870 0.950 . S
H3851 C3871 0.950 . S
H3852 C3873 0.950 . S
H3853 C3876 0.950 . S
H3854 C3877 0.950 . S
H3855 C3879 0.950 . S
H3856 C3880 0.950 . S
H3857 C3881 0.951 . S
H3858 C3883 0.951 . S
H3859 C3885 0.950 . S
H3860 C3886 0.950 . S
H3861 C3888 0.950 . S
H3862 C3891 0.950 . S
H3863 C3892 0.950 . S
H3864 C3894 0.950 . S
H3865 C3895 0.950 . S
C3866 H3848 0.951 . S
C3866 C3867 1.366 . S
C3866 C3868 1.388 . S
C3867 C3866 1.366 . S
C3867 C3871 1.385 . S
C3868 H3849 0.951 . S
C3868 C3866 1.388 . S
C3868 C3869 1.366 . S
C3869 C3868 1.366 . S
C3869 C3870 1.414 . S
C3869 C3872 1.499 . S
C3870 H3850 0.950 . S
C3870 C3869 1.414 . S
C3870 C3871 1.374 . S
C3871 H3851 0.950 . S
C3871 C3867 1.385 . S
C3871 C3870 1.374 . S
C3872 C3869 1.499 . S
C3872 C3873 1.373 . S
C3872 C3874 1.389 . S
C3873 H3852 0.950 . S
C3873 C3872 1.373 . S
C3873 C3889 1.377 . S
C3874 C3872 1.389 . S
C3874 C3875 1.524 . S
C3874 C3888 1.377 . S
C3875 C3874 1.524 . S
C3875 C3876 1.397 . S
C3875 C3880 1.363 . S
C3876 H3853 0.950 . S
C3876 C3875 1.397 . S
C3876 C3877 1.334 . S
C3877 H3854 0.950 . S
C3877 C3876 1.334 . S
C3877 C3878 1.287 . S
C3878 C3877 1.287 . S
C3878 C3879 1.524 . S
C3878 H3897 0.913 . S
C3879 H3855 0.950 . S
C3879 C3878 1.524 . S
C3879 C3880 1.415 . S
C3880 H3856 0.950 . S
C3880 C3875 1.363 . S
C3880 C3879 1.415 . S
C3881 H3857 0.951 . S
C3881 C3882 1.366 . S
C3881 C3883 1.388 . S
C3882 C3881 1.366 . S
C3882 C3886 1.385 . S
C3883 H3858 0.951 . S
C3883 C3881 1.388 . S
C3883 C3884 1.366 . S
C3884 C3883 1.366 . S
C3884 C3885 1.414 . S
C3884 C3887 1.499 . S
C3885 H3859 0.950 . S
C3885 C3884 1.414 . S
C3885 C3886 1.374 . S
C3886 H3860 0.950 . S
C3886 C3882 1.385 . S
C3886 C3885 1.374 . S
C3887 C3884 1.499 . S
C3887 C3888 1.373 . S
C3887 C3889 1.389 . S
C3888 H3861 0.950 . S
C3888 C3874 1.377 . S
C3888 C3887 1.373 . S
C3889 C3873 1.377 . S
C3889 C3887 1.389 . S
C3889 C3890 1.524 . S
C3890 C3889 1.524 . S
C3890 C3891 1.397 . S
C3890 C3895 1.363 . S
C3891 H3862 0.950 . S
C3891 C3890 1.397 . S
C3891 C3892 1.334 . S
C3892 H3863 0.950 . S
C3892 C3891 1.334 . S
C3892 C3893 1.287 . S
C3893 C3892 1.287 . S
C3893 C3894 1.524 . S
C3893 H3896 0.999 . S
C3894 H3864 0.950 . S
C3894 C3893 1.524 . S
C3894 C3895 1.415 . S
C3895 H3865 0.950 . S
C3895 C3890 1.363 . S
C3895 C3894 1.415 . S
H3896 C3893 0.999 . S
H3897 C3878 0.913 . S
H3898 C3916 0.951 . S
H3899 C3918 0.951 . S
H3900 C3920 0.950 . S
H3901 C3921 0.950 . S
H3902 C3923 0.950 . S
H3903 C3926 0.950 . S
H3904 C3927 0.950 . S
H3905 C3929 0.950 . S
H3906 C3930 0.950 . S
H3907 C3931 0.951 . S
H3908 C3933 0.951 . S
H3909 C3935 0.950 . S
H3910 C3936 0.950 . S
H3911 C3938 0.950 . S
H3912 C3941 0.950 . S
H3913 C3942 0.950 . S
H3914 C3944 0.950 . S
H3915 C3945 0.950 . S
C3916 H3898 0.951 . S
C3916 C3917 1.366 . S
C3916 C3918 1.388 . S
C3917 C3916 1.366 . S
C3917 C3921 1.385 . S
C3918 H3899 0.951 . S
C3918 C3916 1.388 . S
C3918 C3919 1.366 . S
C3919 C3918 1.366 . S
C3919 C3920 1.414 . S
C3919 C3922 1.499 . S
C3920 H3900 0.950 . S
C3920 C3919 1.414 . S
C3920 C3921 1.374 . S
C3921 H3901 0.950 . S
C3921 C3917 1.385 . S
C3921 C3920 1.374 . S
C3922 C3919 1.499 . S
C3922 C3923 1.373 . S
C3922 C3924 1.389 . S
C3923 H3902 0.950 . S
C3923 C3922 1.373 . S
C3923 C3939 1.377 . S
C3924 C3922 1.389 . S
C3924 C3925 1.524 . S
C3924 C3938 1.377 . S
C3925 C3924 1.524 . S
C3925 C3926 1.397 . S
C3925 C3930 1.363 . S
C3926 H3903 0.950 . S
C3926 C3925 1.397 . S
C3926 C3927 1.334 . S
C3927 H3904 0.950 . S
C3927 C3926 1.334 . S
C3927 C3928 1.287 . S
C3928 C3927 1.287 . S
C3928 C3929 1.524 . S
C3928 H3947 0.913 . S
C3929 H3905 0.950 . S
C3929 C3928 1.524 . S
C3929 C3930 1.415 . S
C3930 H3906 0.950 . S
C3930 C3925 1.363 . S
C3930 C3929 1.415 . S
C3931 H3907 0.951 . S
C3931 C3932 1.366 . S
C3931 C3933 1.388 . S
C3932 C3931 1.366 . S
C3932 C3936 1.385 . S
C3933 H3908 0.951 . S
C3933 C3931 1.388 . S
C3933 C3934 1.366 . S
C3934 C3933 1.366 . S
C3934 C3935 1.414 . S
C3934 C3937 1.499 . S
C3935 H3909 0.950 . S
C3935 C3934 1.414 . S
C3935 C3936 1.374 . S
C3936 H3910 0.950 . S
C3936 C3932 1.385 . S
C3936 C3935 1.374 . S
C3937 C3934 1.499 . S
C3937 C3938 1.373 . S
C3937 C3939 1.389 . S
C3938 H3911 0.950 . S
C3938 C3924 1.377 . S
C3938 C3937 1.373 . S
C3939 C3923 1.377 . S
C3939 C3937 1.389 . S
C3939 C3940 1.524 . S
C3940 C3939 1.524 . S
C3940 C3941 1.397 . S
C3940 C3945 1.363 . S
C3941 H3912 0.950 . S
C3941 C3940 1.397 . S
C3941 C3942 1.334 . S
C3942 H3913 0.950 . S
C3942 C3941 1.334 . S
C3942 C3943 1.287 . S
C3943 C3942 1.287 . S
C3943 C3944 1.524 . S
C3943 H3946 0.999 . S
C3944 H3914 0.950 . S
C3944 C3943 1.524 . S
C3944 C3945 1.415 . S
C3945 H3915 0.950 . S
C3945 C3940 1.363 . S
C3945 C3944 1.415 . S
H3946 C3943 0.999 . S
H3947 C3928 0.913 . S
H3948 C3966 0.951 . S
H3949 C3968 0.951 . S
H3950 C3970 0.950 . S
H3951 C3971 0.950 . S
H3952 C3973 0.950 . S
H3953 C3976 0.950 . S
H3954 C3977 0.950 . S
H3955 C3979 0.950 . S
H3956 C3980 0.950 . S
H3957 C3981 0.951 . S
H3958 C3983 0.951 . S
H3959 C3985 0.950 . S
H3960 C3986 0.950 . S
H3961 C3988 0.950 . S
H3962 C3991 0.950 . S
H3963 C3992 0.950 . S
H3964 C3994 0.950 . S
H3965 C3995 0.950 . S
C3966 H3948 0.951 . S
C3966 C3967 1.366 . S
C3966 C3968 1.388 . S
C3967 C3966 1.366 . S
C3967 C3971 1.385 . S
C3968 H3949 0.951 . S
C3968 C3966 1.388 . S
C3968 C3969 1.366 . S
C3969 C3968 1.366 . S
C3969 C3970 1.414 . S
C3969 C3972 1.499 . S
C3970 H3950 0.950 . S
C3970 C3969 1.414 . S
C3970 C3971 1.374 . S
C3971 H3951 0.950 . S
C3971 C3967 1.385 . S
C3971 C3970 1.374 . S
C3972 C3969 1.499 . S
C3972 C3973 1.373 . S
C3972 C3974 1.389 . S
C3973 H3952 0.950 . S
C3973 C3972 1.373 . S
C3973 C3989 1.377 . S
C3974 C3972 1.389 . S
C3974 C3975 1.524 . S
C3974 C3988 1.377 . S
C3975 C3974 1.524 . S
C3975 C3976 1.397 . S
C3975 C3980 1.363 . S
C3976 H3953 0.950 . S
C3976 C3975 1.397 . S
C3976 C3977 1.334 . S
C3977 H3954 0.950 . S
C3977 C3976 1.334 . S
C3977 C3978 1.287 . S
C3978 C3977 1.287 . S
C3978 C3979 1.524 . S
C3978 H3997 0.913 . S
C3979 H3955 0.950 . S
C3979 C3978 1.524 . S
C3979 C3980 1.415 . S
C3980 H3956 0.950 . S
C3980 C3975 1.363 . S
C3980 C3979 1.415 . S
C3981 H3957 0.951 . S
C3981 C3982 1.366 . S
C3981 C3983 1.388 . S
C3982 C3981 1.366 . S
C3982 C3986 1.385 . S
C3983 H3958 0.951 . S
C3983 C3981 1.388 . S
C3983 C3984 1.366 . S
C3984 C3983 1.366 . S
C3984 C3985 1.414 . S
C3984 C3987 1.499 . S
C3985 H3959 0.950 . S
C3985 C3984 1.414 . S
C3985 C3986 1.374 . S
C3986 H3960 0.950 . S
C3986 C3982 1.385 . S
C3986 C3985 1.374 . S
C3987 C3984 1.499 . S
C3987 C3988 1.373 . S
C3987 C3989 1.389 . S
C3988 H3961 0.950 . S
C3988 C3974 1.377 . S
C3988 C3987 1.373 . S
C3989 C3973 1.377 . S
C3989 C3987 1.389 . S
C3989 C3990 1.524 . S
C3990 C3989 1.524 . S
C3990 C3991 1.397 . S
C3990 C3995 1.363 . S
C3991 H3962 0.950 . S
C3991 C3990 1.397 . S
C3991 C3992 1.334 . S
C3992 H3963 0.950 . S
C3992 C3991 1.334 . S
C3992 C3993 1.287 . S
C3993 C3992 1.287 . S
C3993 C3994 1.524 . S
C3993 H3996 0.999 . S
C3994 H3964 0.950 . S
C3994 C3993 1.524 . S
C3994 C3995 1.415 . S
C3995 H3965 0.950 . S
C3995 C3990 1.363 . S
C3995 C3994 1.415 . S
H3996 C3993 0.999 . S
H3997 C3978 0.913 . S
H3998 C4016 0.951 . S
H3999 C4018 0.951 . S
H4000 C4020 0.950 . S
H4001 C4021 0.950 . S
H4002 C4023 0.950 . S
H4003 C4026 0.950 . S
H4004 C4027 0.950 . S
H4005 C4029 0.950 . S
H4006 C4030 0.950 . S
H4007 C4031 0.951 . S
H4008 C4033 0.951 . S
H4009 C4035 0.950 . S
H4010 C4036 0.950 . S
H4011 C4038 0.950 . S
H4012 C4041 0.950 . S
H4013 C4042 0.950 . S
H4014 C4044 0.950 . S
H4015 C4045 0.950 . S
C4016 H3998 0.951 . S
C4016 C4017 1.366 . S
C4016 C4018 1.388 . S
C4017 C4016 1.366 . S
C4017 C4021 1.385 . S
C4018 H3999 0.951 . S
C4018 C4016 1.388 . S
C4018 C4019 1.366 . S
C4019 C4018 1.366 . S
C4019 C4020 1.414 . S
C4019 C4022 1.499 . S
C4020 H4000 0.950 . S
C4020 C4019 1.414 . S
C4020 C4021 1.374 . S
C4021 H4001 0.950 . S
C4021 C4017 1.385 . S
C4021 C4020 1.374 . S
C4022 C4019 1.499 . S
C4022 C4023 1.373 . S
C4022 C4024 1.389 . S
C4023 H4002 0.950 . S
C4023 C4022 1.373 . S
C4023 C4039 1.377 . S
C4024 C4022 1.389 . S
C4024 C4025 1.524 . S
C4024 C4038 1.377 . S
C4025 C4024 1.524 . S
C4025 C4026 1.397 . S
C4025 C4030 1.363 . S
C4026 H4003 0.950 . S
C4026 C4025 1.397 . S
C4026 C4027 1.334 . S
C4027 H4004 0.950 . S
C4027 C4026 1.334 . S
C4027 C4028 1.287 . S
C4028 C4027 1.287 . S
C4028 C4029 1.524 . S
C4028 H4047 0.913 . S
C4029 H4005 0.950 . S
C4029 C4028 1.524 . S
C4029 C4030 1.415 . S
C4030 H4006 0.950 . S
C4030 C4025 1.363 . S
C4030 C4029 1.415 . S
C4031 H4007 0.951 . S
C4031 C4032 1.366 . S
C4031 C4033 1.388 . S
C4032 C4031 1.366 . S
C4032 C4036 1.385 . S
C4033 H4008 0.951 . S
C4033 C4031 1.388 . S
C4033 C4034 1.366 . S
C4034 C4033 1.366 . S
C4034 C4035 1.414 . S
C4034 C4037 1.499 . S
C4035 H4009 0.950 . S
C4035 C4034 1.414 . S
C4035 C4036 1.374 . S
C4036 H4010 0.950 . S
C4036 C4032 1.385 . S
C4036 C4035 1.374 . S
C4037 C4034 1.499 . S
C4037 C4038 1.373 . S
C4037 C4039 1.389 . S
C4038 H4011 0.950 . S
C4038 C4024 1.377 . S
C4038 C4037 1.373 . S
C4039 C4023 1.377 . S
C4039 C4037 1.389 . S
C4039 C4040 1.524 . S
C4040 C4039 1.524 . S
C4040 C4041 1.397 . S
C4040 C4045 1.363 . S
C4041 H4012 0.950 . S
C4041 C4040 1.397 . S
C4041 C4042 1.334 . S
C4042 H4013 0.950 . S
C4042 C4041 1.334 . S
C4042 C4043 1.287 . S
C4043 C4042 1.287 . S
C4043 C4044 1.524 . S
C4043 H4046 0.999 . S
C4044 H4014 0.950 . S
C4044 C4043 1.524 . S
C4044 C4045 1.415 . S
C4045 H4015 0.950 . S
C4045 C4040 1.363 . S
C4045 C4044 1.415 . S
H4046 C4043 0.999 . S
H4047 C4028 0.913 . S
H4048 C4066 0.951 . S
H4049 C4068 0.951 . S
H4050 C4070 0.950 . S
H4051 C4071 0.950 . S
H4052 C4073 0.950 . S
H4053 C4076 0.950 . S
H4054 C4077 0.950 . S
H4055 C4079 0.950 . S
H4056 C4080 0.950 . S
H4057 C4081 0.951 . S
H4058 C4083 0.951 . S
H4059 C4085 0.950 . S
H4060 C4086 0.950 . S
H4061 C4088 0.950 . S
H4062 C4091 0.950 . S
H4063 C4092 0.950 . S
H4064 C4094 0.950 . S
H4065 C4095 0.950 . S
C4066 H4048 0.951 . S
C4066 C4067 1.366 . S
C4066 C4068 1.388 . S
C4067 C4066 1.366 . S
C4067 C4071 1.385 . S
C4068 H4049 0.951 . S
C4068 C4066 1.388 . S
C4068 C4069 1.366 . S
C4069 C4068 1.366 . S
C4069 C4070 1.414 . S
C4069 C4072 1.499 . S
C4070 H4050 0.950 . S
C4070 C4069 1.414 . S
C4070 C4071 1.374 . S
C4071 H4051 0.950 . S
C4071 C4067 1.385 . S
C4071 C4070 1.374 . S
C4072 C4069 1.499 . S
C4072 C4073 1.373 . S
C4072 C4074 1.389 . S
C4073 H4052 0.950 . S
C4073 C4072 1.373 . S
C4073 C4089 1.377 . S
C4074 C4072 1.389 . S
C4074 C4075 1.524 . S
C4074 C4088 1.377 . S
C4075 C4074 1.524 . S
C4075 C4076 1.397 . S
C4075 C4080 1.363 . S
C4076 H4053 0.950 . S
C4076 C4075 1.397 . S
C4076 C4077 1.334 . S
C4077 H4054 0.950 . S
C4077 C4076 1.334 . S
C4077 C4078 1.287 . S
C4078 C4077 1.287 . S
C4078 C4079 1.524 . S
C4078 H4097 0.913 . S
C4079 H4055 0.950 . S
C4079 C4078 1.524 . S
C4079 C4080 1.415 . S
C4080 H4056 0.950 . S
C4080 C4075 1.363 . S
C4080 C4079 1.415 . S
C4081 H4057 0.951 . S
C4081 C4082 1.366 . S
C4081 C4083 1.388 . S
C4082 C4081 1.366 . S
C4082 C4086 1.385 . S
C4083 H4058 0.951 . S
C4083 C4081 1.388 . S
C4083 C4084 1.366 . S
C4084 C4083 1.366 . S
C4084 C4085 1.414 . S
C4084 C4087 1.499 . S
C4085 H4059 0.950 . S
C4085 C4084 1.414 . S
C4085 C4086 1.374 . S
C4086 H4060 0.950 . S
C4086 C4082 1.385 . S
C4086 C4085 1.374 . S
C4087 C4084 1.499 . S
C4087 C4088 1.373 . S
C4087 C4089 1.389 . S
C4088 H4061 0.950 . S
C4088 C4074 1.377 . S
C4088 C4087 1.373 . S
C4089 C4073 1.377 . S
C4089 C4087 1.389 . S
C4089 C4090 1.524 . S
C4090 C4089 1.524 . S
C4090 C4091 1.397 . S
C4090 C4095 1.363 . S
C4091 H4062 0.950 . S
C4091 C4090 1.397 . S
C4091 C4092 1.334 . S
C4092 H4063 0.950 . S
C4092 C4091 1.334 . S
C4092 C4093 1.287 . S
C4093 C4092 1.287 . S
C4093 C4094 1.524 . S
C4093 H4096 0.999 . S
C4094 H4064 0.950 . S
C4094 C4093 1.524 . S
C4094 C4095 1.415 . S
C4095 H4065 0.950 . S
C4095 C4090 1.363 . S
C4095 C4094 1.415 . S
H4096 C4093 0.999 . S
H4097 C4078 0.913 . S
H4098 C4116 0.951 . S
H4099 C4118 0.951 . S
H4100 C4120 0.950 . S
H4101 C4121 0.950 . S
H4102 C4123 0.950 . S
H4103 C4126 0.950 . S
H4104 C4127 0.950 . S
H4105 C4129 0.950 . S
H4106 C4130 0.950 . S
H4107 C4131 0.951 . S
H4108 C4133 0.951 . S
H4109 C4135 0.950 . S
H4110 C4136 0.950 . S
H4111 C4138 0.950 . S
H4112 C4141 0.950 . S
H4113 C4142 0.950 . S
H4114 C4144 0.950 . S
H4115 C4145 0.950 . S
C4116 H4098 0.951 . S
C4116 C4117 1.366 . S
C4116 C4118 1.388 . S
C4117 C4116 1.366 . S
C4117 C4121 1.385 . S
C4118 H4099 0.951 . S
C4118 C4116 1.388 . S
C4118 C4119 1.366 . S
C4119 C4118 1.366 . S
C4119 C4120 1.414 . S
C4119 C4122 1.499 . S
C4120 H4100 0.950 . S
C4120 C4119 1.414 . S
C4120 C4121 1.374 . S
C4121 H4101 0.950 . S
C4121 C4117 1.385 . S
C4121 C4120 1.374 . S
C4122 C4119 1.499 . S
C4122 C4123 1.373 . S
C4122 C4124 1.389 . S
C4123 H4102 0.950 . S
C4123 C4122 1.373 . S
C4123 C4139 1.377 . S
C4124 C4122 1.389 . S
C4124 C4125 1.524 . S
C4124 C4138 1.377 . S
C4125 C4124 1.524 . S
C4125 C4126 1.397 . S
C4125 C4130 1.363 . S
C4126 H4103 0.950 . S
C4126 C4125 1.397 . S
C4126 C4127 1.334 . S
C4127 H4104 0.950 . S
C4127 C4126 1.334 . S
C4127 C4128 1.287 . S
C4128 C4127 1.287 . S
C4128 C4129 1.524 . S
C4128 H4147 0.913 . S
C4129 H4105 0.950 . S
C4129 C4128 1.524 . S
C4129 C4130 1.415 . S
C4130 H4106 0.950 . S
C4130 C4125 1.363 . S
C4130 C4129 1.415 . S
C4131 H4107 0.951 . S
C4131 C4132 1.366 . S
C4131 C4133 1.388 . S
C4132 C4131 1.366 . S
C4132 C4136 1.385 . S
C4133 H4108 0.951 . S
C4133 C4131 1.388 . S
C4133 C4134 1.366 . S
C4134 C4133 1.366 . S
C4134 C4135 1.414 . S
C4134 C4137 1.499 . S
C4135 H4109 0.950 . S
C4135 C4134 1.414 . S
C4135 C4136 1.374 . S
C4136 H4110 0.950 . S
C4136 C4132 1.385 . S
C4136 C4135 1.374 . S
C4137 C4134 1.499 . S
C4137 C4138 1.373 . S
C4137 C4139 1.389 . S
C4138 H4111 0.950 . S
C4138 C4124 1.377 . S
C4138 C4137 1.373 . S
C4139 C4123 1.377 . S
C4139 C4137 1.389 . S
C4139 C4140 1.524 . S
C4140 C4139 1.524 . S
C4140 C4141 1.397 . S
C4140 C4145 1.363 . S
C4141 H4112 0.950 . S
C4141 C4140 1.397 . S
C4141 C4142 1.334 . S
C4142 H4113 0.950 . S
C4142 C4141 1.334 . S
C4142 C4143 1.287 . S
C4143 C4142 1.287 . S
C4143 C4144 1.524 . S
C4143 H4146 0.999 . S
C4144 H4114 0.950 . S
C4144 C4143 1.524 . S
C4144 C4145 1.415 . S
C4145 H4115 0.950 . S
C4145 C4140 1.363 . S
C4145 C4144 1.415 . S
H4146 C4143 0.999 . S
H4147 C4128 0.913 . S
H4148 C4166 0.951 . S
H4149 C4168 0.951 . S
H4150 C4170 0.950 . S
H4151 C4171 0.950 . S
H4152 C4173 0.950 . S
H4153 C4176 0.950 . S
H4154 C4177 0.950 . S
H4155 C4179 0.950 . S
H4156 C4180 0.950 . S
H4157 C4181 0.951 . S
H4158 C4183 0.951 . S
H4159 C4185 0.950 . S
H4160 C4186 0.950 . S
H4161 C4188 0.950 . S
H4162 C4191 0.950 . S
H4163 C4192 0.950 . S
H4164 C4194 0.950 . S
H4165 C4195 0.950 . S
C4166 H4148 0.951 . S
C4166 C4167 1.366 . S
C4166 C4168 1.388 . S
C4167 C4166 1.366 . S
C4167 C4171 1.385 . S
C4168 H4149 0.951 . S
C4168 C4166 1.388 . S
C4168 C4169 1.366 . S
C4169 C4168 1.366 . S
C4169 C4170 1.414 . S
C4169 C4172 1.499 . S
C4170 H4150 0.950 . S
C4170 C4169 1.414 . S
C4170 C4171 1.374 . S
C4171 H4151 0.950 . S
C4171 C4167 1.385 . S
C4171 C4170 1.374 . S
C4172 C4169 1.499 . S
C4172 C4173 1.373 . S
C4172 C4174 1.389 . S
C4173 H4152 0.950 . S
C4173 C4172 1.373 . S
C4173 C4189 1.377 . S
C4174 C4172 1.389 . S
C4174 C4175 1.524 . S
C4174 C4188 1.377 . S
C4175 C4174 1.524 . S
C4175 C4176 1.397 . S
C4175 C4180 1.363 . S
C4176 H4153 0.950 . S
C4176 C4175 1.397 . S
C4176 C4177 1.334 . S
C4177 H4154 0.950 . S
C4177 C4176 1.334 . S
C4177 C4178 1.287 . S
C4178 C4177 1.287 . S
C4178 C4179 1.524 . S
C4178 H4197 0.913 . S
C4179 H4155 0.950 . S
C4179 C4178 1.524 . S
C4179 C4180 1.415 . S
C4180 H4156 0.950 . S
C4180 C4175 1.363 . S
C4180 C4179 1.415 . S
C4181 H4157 0.951 . S
C4181 C4182 1.366 . S
C4181 C4183 1.388 . S
C4182 C4181 1.366 . S
C4182 C4186 1.385 . S
C4183 H4158 0.951 . S
C4183 C4181 1.388 . S
C4183 C4184 1.366 . S
C4184 C4183 1.366 . S
C4184 C4185 1.414 . S
C4184 C4187 1.499 . S
C4185 H4159 0.950 . S
C4185 C4184 1.414 . S
C4185 C4186 1.374 . S
C4186 H4160 0.950 . S
C4186 C4182 1.385 . S
C4186 C4185 1.374 . S
C4187 C4184 1.499 . S
C4187 C4188 1.373 . S
C4187 C4189 1.389 . S
C4188 H4161 0.950 . S
C4188 C4174 1.377 . S
C4188 C4187 1.373 . S
C4189 C4173 1.377 . S
C4189 C4187 1.389 . S
C4189 C4190 1.524 . S
C4190 C4189 1.524 . S
C4190 C4191 1.397 . S
C4190 C4195 1.363 . S
C4191 H4162 0.950 . S
C4191 C4190 1.397 . S
C4191 C4192 1.334 . S
C4192 H4163 0.950 . S
C4192 C4191 1.334 . S
C4192 C4193 1.287 . S
C4193 C4192 1.287 . S
C4193 C4194 1.524 . S
C4193 H4196 0.999 . S
C4194 H4164 0.950 . S
C4194 C4193 1.524 . S
C4194 C4195 1.415 . S
C4195 H4165 0.950 . S
C4195 C4190 1.363 . S
C4195 C4194 1.415 . S
H4196 C4193 0.999 . S
H4197 C4178 0.913 . S
H4198 C4216 0.951 . S
H4199 C4218 0.951 . S
H4200 C4220 0.950 . S
H4201 C4221 0.950 . S
H4202 C4223 0.950 . S
H4203 C4226 0.950 . S
H4204 C4227 0.950 . S
H4205 C4229 0.950 . S
H4206 C4230 0.950 . S
H4207 C4231 0.951 . S
H4208 C4233 0.951 . S
H4209 C4235 0.950 . S
H4210 C4236 0.950 . S
H4211 C4238 0.950 . S
H4212 C4241 0.950 . S
H4213 C4242 0.950 . S
H4214 C4244 0.950 . S
H4215 C4245 0.950 . S
C4216 H4198 0.951 . S
C4216 C4217 1.366 . S
C4216 C4218 1.388 . S
C4217 C4216 1.366 . S
C4217 C4221 1.385 . S
C4218 H4199 0.951 . S
C4218 C4216 1.388 . S
C4218 C4219 1.366 . S
C4219 C4218 1.366 . S
C4219 C4220 1.414 . S
C4219 C4222 1.499 . S
C4220 H4200 0.950 . S
C4220 C4219 1.414 . S
C4220 C4221 1.374 . S
C4221 H4201 0.950 . S
C4221 C4217 1.385 . S
C4221 C4220 1.374 . S
C4222 C4219 1.499 . S
C4222 C4223 1.373 . S
C4222 C4224 1.389 . S
C4223 H4202 0.950 . S
C4223 C4222 1.373 . S
C4223 C4239 1.377 . S
C4224 C4222 1.389 . S
C4224 C4225 1.524 . S
C4224 C4238 1.377 . S
C4225 C4224 1.524 . S
C4225 C4226 1.397 . S
C4225 C4230 1.363 . S
C4226 H4203 0.950 . S
C4226 C4225 1.397 . S
C4226 C4227 1.334 . S
C4227 H4204 0.950 . S
C4227 C4226 1.334 . S
C4227 C4228 1.287 . S
C4228 C4227 1.287 . S
C4228 C4229 1.524 . S
C4228 H4247 0.913 . S
C4229 H4205 0.950 . S
C4229 C4228 1.524 . S
C4229 C4230 1.415 . S
C4230 H4206 0.950 . S
C4230 C4225 1.363 . S
C4230 C4229 1.415 . S
C4231 H4207 0.951 . S
C4231 C4232 1.366 . S
C4231 C4233 1.388 . S
C4232 C4231 1.366 . S
C4232 C4236 1.385 . S
C4233 H4208 0.951 . S
C4233 C4231 1.388 . S
C4233 C4234 1.366 . S
C4234 C4233 1.366 . S
C4234 C4235 1.414 . S
C4234 C4237 1.499 . S
C4235 H4209 0.950 . S
C4235 C4234 1.414 . S
C4235 C4236 1.374 . S
C4236 H4210 0.950 . S
C4236 C4232 1.385 . S
C4236 C4235 1.374 . S
C4237 C4234 1.499 . S
C4237 C4238 1.373 . S
C4237 C4239 1.389 . S
C4238 H4211 0.950 . S
C4238 C4224 1.377 . S
C4238 C4237 1.373 . S
C4239 C4223 1.377 . S
C4239 C4237 1.389 . S
C4239 C4240 1.524 . S
C4240 C4239 1.524 . S
C4240 C4241 1.397 . S
C4240 C4245 1.363 . S
C4241 H4212 0.950 . S
C4241 C4240 1.397 . S
C4241 C4242 1.334 . S
C4242 H4213 0.950 . S
C4242 C4241 1.334 . S
C4242 C4243 1.287 . S
C4243 C4242 1.287 . S
C4243 C4244 1.524 . S
C4243 H4246 0.999 . S
C4244 H4214 0.950 . S
C4244 C4243 1.524 . S
C4244 C4245 1.415 . S
C4245 H4215 0.950 . S
C4245 C4240 1.363 . S
C4245 C4244 1.415 . S
H4246 C4243 0.999 . S
H4247 C4228 0.913 . S
H4248 C4266 0.951 . S
H4249 C4268 0.951 . S
H4250 C4270 0.950 . S
H4251 C4271 0.950 . S
H4252 C4273 0.950 . S
H4253 C4276 0.950 . S
H4254 C4277 0.950 . S
H4255 C4279 0.950 . S
H4256 C4280 0.950 . S
H4257 C4281 0.951 . S
H4258 C4283 0.951 . S
H4259 C4285 0.950 . S
H4260 C4286 0.950 . S
H4261 C4288 0.950 . S
H4262 C4291 0.950 . S
H4263 C4292 0.950 . S
H4264 C4294 0.950 . S
H4265 C4295 0.950 . S
C4266 H4248 0.951 . S
C4266 C4267 1.366 . S
C4266 C4268 1.388 . S
C4267 C4266 1.366 . S
C4267 C4271 1.385 . S
C4268 H4249 0.951 . S
C4268 C4266 1.388 . S
C4268 C4269 1.366 . S
C4269 C4268 1.366 . S
C4269 C4270 1.414 . S
C4269 C4272 1.499 . S
C4270 H4250 0.950 . S
C4270 C4269 1.414 . S
C4270 C4271 1.374 . S
C4271 H4251 0.950 . S
C4271 C4267 1.385 . S
C4271 C4270 1.374 . S
C4272 C4269 1.499 . S
C4272 C4273 1.373 . S
C4272 C4274 1.389 . S
C4273 H4252 0.950 . S
C4273 C4272 1.373 . S
C4273 C4289 1.377 . S
C4274 C4272 1.389 . S
C4274 C4275 1.524 . S
C4274 C4288 1.377 . S
C4275 C4274 1.524 . S
C4275 C4276 1.397 . S
C4275 C4280 1.363 . S
C4276 H4253 0.950 . S
C4276 C4275 1.397 . S
C4276 C4277 1.334 . S
C4277 H4254 0.950 . S
C4277 C4276 1.334 . S
C4277 C4278 1.287 . S
C4278 C4277 1.287 . S
C4278 C4279 1.524 . S
C4278 H4297 0.913 . S
C4279 H4255 0.950 . S
C4279 C4278 1.524 . S
C4279 C4280 1.415 . S
C4280 H4256 0.950 . S
C4280 C4275 1.363 . S
C4280 C4279 1.415 . S
C4281 H4257 0.951 . S
C4281 C4282 1.366 . S
C4281 C4283 1.388 . S
C4282 C4281 1.366 . S
C4282 C4286 1.385 . S
C4283 H4258 0.951 . S
C4283 C4281 1.388 . S
C4283 C4284 1.366 . S
C4284 C4283 1.366 . S
C4284 C4285 1.414 . S
C4284 C4287 1.499 . S
C4285 H4259 0.950 . S
C4285 C4284 1.414 . S
C4285 C4286 1.374 . S
C4286 H4260 0.950 . S
C4286 C4282 1.385 . S
C4286 C4285 1.374 . S
C4287 C4284 1.499 . S
C4287 C4288 1.373 . S
C4287 C4289 1.389 . S
C4288 H4261 0.950 . S
C4288 C4274 1.377 . S
C4288 C4287 1.373 . S
C4289 C4273 1.377 . S
C4289 C4287 1.389 . S
C4289 C4290 1.524 . S
C4290 C4289 1.524 . S
C4290 C4291 1.397 . S
C4290 C4295 1.363 . S
C4291 H4262 0.950 . S
C4291 C4290 1.397 . S
C4291 C4292 1.334 . S
C4292 H4263 0.950 . S
C4292 C4291 1.334 . S
C4292 C4293 1.287 . S
C4293 C4292 1.287 . S
C4293 C4294 1.524 . S
C4293 H4296 0.999 . S
C4294 H4264 0.950 . S
C4294 C4293 1.524 . S
C4294 C4295 1.415 . S
C4295 H4265 0.950 . S
C4295 C4290 1.363 . S
C4295 C4294 1.415 . S
H4296 C4293 0.999 . S
H4297 C4278 0.913 . S
H4298 C4316 0.951 . S
H4299 C4318 0.951 . S
H4300 C4320 0.950 . S
H4301 C4321 0.950 . S
H4302 C4323 0.950 . S
H4303 C4326 0.950 . S
H4304 C4327 0.950 . S
H4305 C4329 0.950 . S
H4306 C4330 0.950 . S
H4307 C4331 0.951 . S
H4308 C4333 0.951 . S
H4309 C4335 0.950 . S
H4310 C4336 0.950 . S
H4311 C4338 0.950 . S
H4312 C4341 0.950 . S
H4313 C4342 0.950 . S
H4314 C4344 0.950 . S
H4315 C4345 0.950 . S
C4316 H4298 0.951 . S
C4316 C4317 1.366 . S
C4316 C4318 1.388 . S
C4317 C4316 1.366 . S
C4317 C4321 1.385 . S
C4318 H4299 0.951 . S
C4318 C4316 1.388 . S
C4318 C4319 1.366 . S
C4319 C4318 1.366 . S
C4319 C4320 1.414 . S
C4319 C4322 1.499 . S
C4320 H4300 0.950 . S
C4320 C4319 1.414 . S
C4320 C4321 1.374 . S
C4321 H4301 0.950 . S
C4321 C4317 1.385 . S
C4321 C4320 1.374 . S
C4322 C4319 1.499 . S
C4322 C4323 1.373 . S
C4322 C4324 1.389 . S
C4323 H4302 0.950 . S
C4323 C4322 1.373 . S
C4323 C4339 1.377 . S
C4324 C4322 1.389 . S
C4324 C4325 1.524 . S
C4324 C4338 1.377 . S
C4325 C4324 1.524 . S
C4325 C4326 1.397 . S
C4325 C4330 1.363 . S
C4326 H4303 0.950 . S
C4326 C4325 1.397 . S
C4326 C4327 1.334 . S
C4327 H4304 0.950 . S
C4327 C4326 1.334 . S
C4327 C4328 1.287 . S
C4328 C4327 1.287 . S
C4328 C4329 1.524 . S
C4328 H4347 0.913 . S
C4329 H4305 0.950 . S
C4329 C4328 1.524 . S
C4329 C4330 1.415 . S
C4330 H4306 0.950 . S
C4330 C4325 1.363 . S
C4330 C4329 1.415 . S
C4331 H4307 0.951 . S
C4331 C4332 1.366 . S
C4331 C4333 1.388 . S
C4332 C4331 1.366 . S
C4332 C4336 1.385 . S
C4333 H4308 0.951 . S
C4333 C4331 1.388 . S
C4333 C4334 1.366 . S
C4334 C4333 1.366 . S
C4334 C4335 1.414 . S
C4334 C4337 1.499 . S
C4335 H4309 0.950 . S
C4335 C4334 1.414 . S
C4335 C4336 1.374 . S
C4336 H4310 0.950 . S
C4336 C4332 1.385 . S
C4336 C4335 1.374 . S
C4337 C4334 1.499 . S
C4337 C4338 1.373 . S
C4337 C4339 1.389 . S
C4338 H4311 0.950 . S
C4338 C4324 1.377 . S
C4338 C4337 1.373 . S
C4339 C4323 1.377 . S
C4339 C4337 1.389 . S
C4339 C4340 1.524 . S
C4340 C4339 1.524 . S
C4340 C4341 1.397 . S
C4340 C4345 1.363 . S
C4341 H4312 0.950 . S
C4341 C4340 1.397 . S
C4341 C4342 1.334 . S
C4342 H4313 0.950 . S
C4342 C4341 1.334 . S
C4342 C4343 1.287 . S
C4343 C4342 1.287 . S
C4343 C4344 1.524 . S
C4343 H4346 0.999 . S
C4344 H4314 0.950 . S
C4344 C4343 1.524 . S
C4344 C4345 1.415 . S
C4345 H4315 0.950 . S
C4345 C4340 1.363 . S
C4345 C4344 1.415 . S
H4346 C4343 0.999 . S
H4347 C4328 0.913 . S
H4348 C4366 0.951 . S
H4349 C4368 0.951 . S
H4350 C4370 0.950 . S
H4351 C4371 0.950 . S
H4352 C4373 0.950 . S
H4353 C4376 0.950 . S
H4354 C4377 0.950 . S
H4355 C4379 0.950 . S
H4356 C4380 0.950 . S
H4357 C4381 0.951 . S
H4358 C4383 0.951 . S
H4359 C4385 0.950 . S
H4360 C4386 0.950 . S
H4361 C4388 0.950 . S
H4362 C4391 0.950 . S
H4363 C4392 0.950 . S
H4364 C4394 0.950 . S
H4365 C4395 0.950 . S
C4366 H4348 0.951 . S
C4366 C4367 1.366 . S
C4366 C4368 1.388 . S
C4367 C4366 1.366 . S
C4367 C4371 1.385 . S
C4368 H4349 0.951 . S
C4368 C4366 1.388 . S
C4368 C4369 1.366 . S
C4369 C4368 1.366 . S
C4369 C4370 1.414 . S
C4369 C4372 1.499 . S
C4370 H4350 0.950 . S
C4370 C4369 1.414 . S
C4370 C4371 1.374 . S
C4371 H4351 0.950 . S
C4371 C4367 1.385 . S
C4371 C4370 1.374 . S
C4372 C4369 1.499 . S
C4372 C4373 1.373 . S
C4372 C4374 1.389 . S
C4373 H4352 0.950 . S
C4373 C4372 1.373 . S
C4373 C4389 1.377 . S
C4374 C4372 1.389 . S
C4374 C4375 1.524 . S
C4374 C4388 1.377 . S
C4375 C4374 1.524 . S
C4375 C4376 1.397 . S
C4375 C4380 1.363 . S
C4376 H4353 0.950 . S
C4376 C4375 1.397 . S
C4376 C4377 1.334 . S
C4377 H4354 0.950 . S
C4377 C4376 1.334 . S
C4377 C4378 1.287 . S
C4378 C4377 1.287 . S
C4378 C4379 1.524 . S
C4378 H4397 0.913 . S
C4379 H4355 0.950 . S
C4379 C4378 1.524 . S
C4379 C4380 1.415 . S
C4380 H4356 0.950 . S
C4380 C4375 1.363 . S
C4380 C4379 1.415 . S
C4381 H4357 0.951 . S
C4381 C4382 1.366 . S
C4381 C4383 1.388 . S
C4382 C4381 1.366 . S
C4382 C4386 1.385 . S
C4383 H4358 0.951 . S
C4383 C4381 1.388 . S
C4383 C4384 1.366 . S
C4384 C4383 1.366 . S
C4384 C4385 1.414 . S
C4384 C4387 1.499 . S
C4385 H4359 0.950 . S
C4385 C4384 1.414 . S
C4385 C4386 1.374 . S
C4386 H4360 0.950 . S
C4386 C4382 1.385 . S
C4386 C4385 1.374 . S
C4387 C4384 1.499 . S
C4387 C4388 1.373 . S
C4387 C4389 1.389 . S
C4388 H4361 0.950 . S
C4388 C4374 1.377 . S
C4388 C4387 1.373 . S
C4389 C4373 1.377 . S
C4389 C4387 1.389 . S
C4389 C4390 1.524 . S
C4390 C4389 1.524 . S
C4390 C4391 1.397 . S
C4390 C4395 1.363 . S
C4391 H4362 0.950 . S
C4391 C4390 1.397 . S
C4391 C4392 1.334 . S
C4392 H4363 0.950 . S
C4392 C4391 1.334 . S
C4392 C4393 1.287 . S
C4393 C4392 1.287 . S
C4393 C4394 1.524 . S
C4393 H4396 0.999 . S
C4394 H4364 0.950 . S
C4394 C4393 1.524 . S
C4394 C4395 1.415 . S
C4395 H4365 0.950 . S
C4395 C4390 1.363 . S
C4395 C4394 1.415 . S
H4396 C4393 0.999 . S
H4397 C4378 0.913 . S
H4398 C4416 0.951 . S
H4399 C4418 0.951 . S
H4400 C4420 0.950 . S
H4401 C4421 0.950 . S
H4402 C4423 0.950 . S
H4403 C4426 0.950 . S
H4404 C4427 0.950 . S
H4405 C4429 0.950 . S
H4406 C4430 0.950 . S
H4407 C4431 0.951 . S
H4408 C4433 0.951 . S
H4409 C4435 0.950 . S
H4410 C4436 0.950 . S
H4411 C4438 0.950 . S
H4412 C4441 0.950 . S
H4413 C4442 0.950 . S
H4414 C4444 0.950 . S
H4415 C4445 0.950 . S
C4416 H4398 0.951 . S
C4416 C4417 1.366 . S
C4416 C4418 1.388 . S
C4417 C4416 1.366 . S
C4417 C4421 1.385 . S
C4418 H4399 0.951 . S
C4418 C4416 1.388 . S
C4418 C4419 1.366 . S
C4419 C4418 1.366 . S
C4419 C4420 1.414 . S
C4419 C4422 1.499 . S
C4420 H4400 0.950 . S
C4420 C4419 1.414 . S
C4420 C4421 1.374 . S
C4421 H4401 0.950 . S
C4421 C4417 1.385 . S
C4421 C4420 1.374 . S
C4422 C4419 1.499 . S
C4422 C4423 1.373 . S
C4422 C4424 1.389 . S
C4423 H4402 0.950 . S
C4423 C4422 1.373 . S
C4423 C4439 1.377 . S
C4424 C4422 1.389 . S
C4424 C4425 1.524 . S
C4424 C4438 1.377 . S
C4425 C4424 1.524 . S
C4425 C4426 1.397 . S
C4425 C4430 1.363 . S
C4426 H4403 0.950 . S
C4426 C4425 1.397 . S
C4426 C4427 1.334 . S
C4427 H4404 0.950 . S
C4427 C4426 1.334 . S
C4427 C4428 1.287 . S
C4428 C4427 1.287 . S
C4428 C4429 1.524 . S
C4428 H4447 0.913 . S
C4429 H4405 0.950 . S
C4429 C4428 1.524 . S
C4429 C4430 1.415 . S
C4430 H4406 0.950 . S
C4430 C4425 1.363 . S
C4430 C4429 1.415 . S
C4431 H4407 0.951 . S
C4431 C4432 1.366 . S
C4431 C4433 1.388 . S
C4432 C4431 1.366 . S
C4432 C4436 1.385 . S
C4433 H4408 0.951 . S
C4433 C4431 1.388 . S
C4433 C4434 1.366 . S
C4434 C4433 1.366 . S
C4434 C4435 1.414 . S
C4434 C4437 1.499 . S
C4435 H4409 0.950 . S
C4435 C4434 1.414 . S
C4435 C4436 1.374 . S
C4436 H4410 0.950 . S
C4436 C4432 1.385 . S
C4436 C4435 1.374 . S
C4437 C4434 1.499 . S
C4437 C4438 1.373 . S
C4437 C4439 1.389 . S
C4438 H4411 0.950 . S
C4438 C4424 1.377 . S
C4438 C4437 1.373 . S
C4439 C4423 1.377 . S
C4439 C4437 1.389 . S
C4439 C4440 1.524 . S
C4440 C4439 1.524 . S
C4440 C4441 1.397 . S
C4440 C4445 1.363 . S
C4441 H4412 0.950 . S
C4441 C4440 1.397 . S
C4441 C4442 1.334 . S
C4442 H4413 0.950 . S
C4442 C4441 1.334 . S
C4442 C4443 1.287 . S
C4443 C4442 1.287 . S
C4443 C4444 1.524 . S
C4443 H4446 0.999 . S
C4444 H4414 0.950 . S
C4444 C4443 1.524 . S
C4444 C4445 1.415 . S
C4445 H4415 0.950 . S
C4445 C4440 1.363 . S
C4445 C4444 1.415 . S
H4446 C4443 0.999 . S
H4447 C4428 0.913 . S
H4448 C4466 0.951 . S
H4449 C4468 0.951 . S
H4450 C4470 0.950 . S
H4451 C4471 0.950 . S
H4452 C4473 0.950 . S
H4453 C4476 0.950 . S
H4454 C4477 0.950 . S
H4455 C4479 0.950 . S
H4456 C4480 0.950 . S
H4457 C4481 0.951 . S
H4458 C4483 0.951 . S
H4459 C4485 0.950 . S
H4460 C4486 0.950 . S
H4461 C4488 0.950 . S
H4462 C4491 0.950 . S
H4463 C4492 0.950 . S
H4464 C4494 0.950 . S
H4465 C4495 0.950 . S
C4466 H4448 0.951 . S
C4466 C4467 1.366 . S
C4466 C4468 1.388 . S
C4467 C4466 1.366 . S
C4467 C4471 1.385 . S
C4468 H4449 0.951 . S
C4468 C4466 1.388 . S
C4468 C4469 1.366 . S
C4469 C4468 1.366 . S
C4469 C4470 1.414 . S
C4469 C4472 1.499 . S
C4470 H4450 0.950 . S
C4470 C4469 1.414 . S
C4470 C4471 1.374 . S
C4471 H4451 0.950 . S
C4471 C4467 1.385 . S
C4471 C4470 1.374 . S
C4472 C4469 1.499 . S
C4472 C4473 1.373 . S
C4472 C4474 1.389 . S
C4473 H4452 0.950 . S
C4473 C4472 1.373 . S
C4473 C4489 1.377 . S
C4474 C4472 1.389 . S
C4474 C4475 1.524 . S
C4474 C4488 1.377 . S
C4475 C4474 1.524 . S
C4475 C4476 1.397 . S
C4475 C4480 1.363 . S
C4476 H4453 0.950 . S
C4476 C4475 1.397 . S
C4476 C4477 1.334 . S
C4477 H4454 0.950 . S
C4477 C4476 1.334 . S
C4477 C4478 1.287 . S
C4478 C4477 1.287 . S
C4478 C4479 1.524 . S
C4478 H4497 0.913 . S
C4479 H4455 0.950 . S
C4479 C4478 1.524 . S
C4479 C4480 1.415 . S
C4480 H4456 0.950 . S
C4480 C4475 1.363 . S
C4480 C4479 1.415 . S
C4481 H4457 0.951 . S
C4481 C4482 1.366 . S
C4481 C4483 1.388 . S
C4482 C4481 1.366 . S
C4482 C4486 1.385 . S
C4483 H4458 0.951 . S
C4483 C4481 1.388 . S
C4483 C4484 1.366 . S
C4484 C4483 1.366 . S
C4484 C4485 1.414 . S
C4484 C4487 1.499 . S
C4485 H4459 0.950 . S
C4485 C4484 1.414 . S
C4485 C4486 1.374 . S
C4486 H4460 0.950 . S
C4486 C4482 1.385 . S
C4486 C4485 1.374 . S
C4487 C4484 1.499 . S
C4487 C4488 1.373 . S
C4487 C4489 1.389 . S
C4488 H4461 0.950 . S
C4488 C4474 1.377 . S
C4488 C4487 1.373 . S
C4489 C4473 1.377 . S
C4489 C4487 1.389 . S
C4489 C4490 1.524 . S
C4490 C4489 1.524 . S
C4490 C4491 1.397 . S
C4490 C4495 1.363 . S
C4491 H4462 0.950 . S
C4491 C4490 1.397 . S
C4491 C4492 1.334 . S
C4492 H4463 0.950 . S
C4492 C4491 1.334 . S
C4492 C4493 1.287 . S
C4493 C4492 1.287 . S
C4493 C4494 1.524 . S
C4493 H4496 0.999 . S
C4494 H4464 0.950 . S
C4494 C4493 1.524 . S
C4494 C4495 1.415 . S
C4495 H4465 0.950 . S
C4495 C4490 1.363 . S
C4495 C4494 1.415 . S
H4496 C4493 0.999 . S
H4497 C4478 0.913 . S
H4498 C4516 0.951 . S
H4499 C4518 0.951 . S
H4500 C4520 0.950 . S
H4501 C4521 0.950 . S
H4502 C4523 0.950 . S
H4503 C4526 0.950 . S
H4504 C4527 0.950 . S
H4505 C4529 0.950 . S
H4506 C4530 0.950 . S
H4507 C4531 0.951 . S
H4508 C4533 0.951 . S
H4509 C4535 0.950 . S
H4510 C4536 0.950 . S
H4511 C4538 0.950 . S
H4512 C4541 0.950 . S
H4513 C4542 0.950 . S
H4514 C4544 0.950 . S
H4515 C4545 0.950 . S
C4516 H4498 0.951 . S
C4516 C4517 1.366 . S
C4516 C4518 1.388 . S
C4517 C4516 1.366 . S
C4517 C4521 1.385 . S
C4518 H4499 0.951 . S
C4518 C4516 1.388 . S
C4518 C4519 1.366 . S
C4519 C4518 1.366 . S
C4519 C4520 1.414 . S
C4519 C4522 1.499 . S
C4520 H4500 0.950 . S
C4520 C4519 1.414 . S
C4520 C4521 1.374 . S
C4521 H4501 0.950 . S
C4521 C4517 1.385 . S
C4521 C4520 1.374 . S
C4522 C4519 1.499 . S
C4522 C4523 1.373 . S
C4522 C4524 1.389 . S
C4523 H4502 0.950 . S
C4523 C4522 1.373 . S
C4523 C4539 1.377 . S
C4524 C4522 1.389 . S
C4524 C4525 1.524 . S
C4524 C4538 1.377 . S
C4525 C4524 1.524 . S
C4525 C4526 1.397 . S
C4525 C4530 1.363 . S
C4526 H4503 0.950 . S
C4526 C4525 1.397 . S
C4526 C4527 1.334 . S
C4527 H4504 0.950 . S
C4527 C4526 1.334 . S
C4527 C4528 1.287 . S
C4528 C4527 1.287 . S
C4528 C4529 1.524 . S
C4528 H4547 0.913 . S
C4529 H4505 0.950 . S
C4529 C4528 1.524 . S
C4529 C4530 1.415 . S
C4530 H4506 0.950 . S
C4530 C4525 1.363 . S
C4530 C4529 1.415 . S
C4531 H4507 0.951 . S
C4531 C4532 1.366 . S
C4531 C4533 1.388 . S
C4532 C4531 1.366 . S
C4532 C4536 1.385 . S
C4533 H4508 0.951 . S
C4533 C4531 1.388 . S
C4533 C4534 1.366 . S
C4534 C4533 1.366 . S
C4534 C4535 1.414 . S
C4534 C4537 1.499 . S
C4535 H4509 0.950 . S
C4535 C4534 1.414 . S
C4535 C4536 1.374 . S
C4536 H4510 0.950 . S
C4536 C4532 1.385 . S
C4536 C4535 1.374 . S
C4537 C4534 1.499 . S
C4537 C4538 1.373 . S
C4537 C4539 1.389 . S
C4538 H4511 0.950 . S
C4538 C4524 1.377 . S
C4538 C4537 1.373 . S
C4539 C4523 1.377 . S
C4539 C4537 1.389 . S
C4539 C4540 1.524 . S
C4540 C4539 1.524 . S
C4540 C4541 1.397 . S
C4540 C4545 1.363 . S
C4541 H4512 0.950 . S
C4541 C4540 1.397 . S
C4541 C4542 1.334 . S
C4542 H4513 0.950 . S
C4542 C4541 1.334 . S
C4542 C4543 1.287 . S
C4543 C4542 1.287 . S
C4543 C4544 1.524 . S
C4543 H4546 0.999 . S
C4544 H4514 0.950 . S
C4544 C4543 1.524 . S
C4544 C4545 1.415 . S
C4545 H4515 0.950 . S
C4545 C4540 1.363 . S
C4545 C4544 1.415 . S
H4546 C4543 0.999 . S
H4547 C4528 0.913 . S
H4548 C4566 0.951 . S
H4549 C4568 0.951 . S
H4550 C4570 0.950 . S
H4551 C4571 0.950 . S
H4552 C4573 0.950 . S
H4553 C4576 0.950 . S
H4554 C4577 0.950 . S
H4555 C4579 0.950 . S
H4556 C4580 0.950 . S
H4557 C4581 0.951 . S
H4558 C4583 0.951 . S
H4559 C4585 0.950 . S
H4560 C4586 0.950 . S
H4561 C4588 0.950 . S
H4562 C4591 0.950 . S
H4563 C4592 0.950 . S
H4564 C4594 0.950 . S
H4565 C4595 0.950 . S
C4566 H4548 0.951 . S
C4566 C4567 1.366 . S
C4566 C4568 1.388 . S
C4567 C4566 1.366 . S
C4567 C4571 1.385 . S
C4568 H4549 0.951 . S
C4568 C4566 1.388 . S
C4568 C4569 1.366 . S
C4569 C4568 1.366 . S
C4569 C4570 1.414 . S
C4569 C4572 1.499 . S
C4570 H4550 0.950 . S
C4570 C4569 1.414 . S
C4570 C4571 1.374 . S
C4571 H4551 0.950 . S
C4571 C4567 1.385 . S
C4571 C4570 1.374 . S
C4572 C4569 1.499 . S
C4572 C4573 1.373 . S
C4572 C4574 1.389 . S
C4573 H4552 0.950 . S
C4573 C4572 1.373 . S
C4573 C4589 1.377 . S
C4574 C4572 1.389 . S
C4574 C4575 1.524 . S
C4574 C4588 1.377 . S
C4575 C4574 1.524 . S
C4575 C4576 1.397 . S
C4575 C4580 1.363 . S
C4576 H4553 0.950 . S
C4576 C4575 1.397 . S
C4576 C4577 1.334 . S
C4577 H4554 0.950 . S
C4577 C4576 1.334 . S
C4577 C4578 1.287 . S
C4578 C4577 1.287 . S
C4578 C4579 1.524 . S
C4578 H4597 0.913 . S
C4579 H4555 0.950 . S
C4579 C4578 1.524 . S
C4579 C4580 1.415 . S
C4580 H4556 0.950 . S
C4580 C4575 1.363 . S
C4580 C4579 1.415 . S
C4581 H4557 0.951 . S
C4581 C4582 1.366 . S
C4581 C4583 1.388 . S
C4582 C4581 1.366 . S
C4582 C4586 1.385 . S
C4583 H4558 0.951 . S
C4583 C4581 1.388 . S
C4583 C4584 1.366 . S
C4584 C4583 1.366 . S
C4584 C4585 1.414 . S
C4584 C4587 1.499 . S
C4585 H4559 0.950 . S
C4585 C4584 1.414 . S
C4585 C4586 1.374 . S
C4586 H4560 0.950 . S
C4586 C4582 1.385 . S
C4586 C4585 1.374 . S
C4587 C4584 1.499 . S
C4587 C4588 1.373 . S
C4587 C4589 1.389 . S
C4588 H4561 0.950 . S
C4588 C4574 1.377 . S
C4588 C4587 1.373 . S
C4589 C4573 1.377 . S
C4589 C4587 1.389 . S
C4589 C4590 1.524 . S
C4590 C4589 1.524 . S
C4590 C4591 1.397 . S
C4590 C4595 1.363 . S
C4591 H4562 0.950 . S
C4591 C4590 1.397 . S
C4591 C4592 1.334 . S
C4592 H4563 0.950 . S
C4592 C4591 1.334 . S
C4592 C4593 1.287 . S
C4593 C4592 1.287 . S
C4593 C4594 1.524 . S
C4593 H4596 0.999 . S
C4594 H4564 0.950 . S
C4594 C4593 1.524 . S
C4594 C4595 1.415 . S
C4595 H4565 0.950 . S
C4595 C4590 1.363 . S
C4595 C4594 1.415 . S
H4596 C4593 0.999 . S
H4597 C4578 0.913 . S
H4598 C4616 0.951 . S
H4599 C4618 0.951 . S
H4600 C4620 0.950 . S
H4601 C4621 0.950 . S
H4602 C4623 0.950 . S
H4603 C4626 0.950 . S
H4604 C4627 0.950 . S
H4605 C4629 0.950 . S
H4606 C4630 0.950 . S
H4607 C4631 0.951 . S
H4608 C4633 0.951 . S
H4609 C4635 0.950 . S
H4610 C4636 0.950 . S
H4611 C4638 0.950 . S
H4612 C4641 0.950 . S
H4613 C4642 0.950 . S
H4614 C4644 0.950 . S
H4615 C4645 0.950 . S
C4616 H4598 0.951 . S
C4616 C4617 1.366 . S
C4616 C4618 1.388 . S
C4617 C4616 1.366 . S
C4617 C4621 1.385 . S
C4618 H4599 0.951 . S
C4618 C4616 1.388 . S
C4618 C4619 1.366 . S
C4619 C4618 1.366 . S
C4619 C4620 1.414 . S
C4619 C4622 1.499 . S
C4620 H4600 0.950 . S
C4620 C4619 1.414 . S
C4620 C4621 1.374 . S
C4621 H4601 0.950 . S
C4621 C4617 1.385 . S
C4621 C4620 1.374 . S
C4622 C4619 1.499 . S
C4622 C4623 1.373 . S
C4622 C4624 1.389 . S
C4623 H4602 0.950 . S
C4623 C4622 1.373 . S
C4623 C4639 1.377 . S
C4624 C4622 1.389 . S
C4624 C4625 1.524 . S
C4624 C4638 1.377 . S
C4625 C4624 1.524 . S
C4625 C4626 1.397 . S
C4625 C4630 1.363 . S
C4626 H4603 0.950 . S
C4626 C4625 1.397 . S
C4626 C4627 1.334 . S
C4627 H4604 0.950 . S
C4627 C4626 1.334 . S
C4627 C4628 1.287 . S
C4628 C4627 1.287 . S
C4628 C4629 1.524 . S
C4628 H4647 0.913 . S
C4629 H4605 0.950 . S
C4629 C4628 1.524 . S
C4629 C4630 1.415 . S
C4630 H4606 0.950 . S
C4630 C4625 1.363 . S
C4630 C4629 1.415 . S
C4631 H4607 0.951 . S
C4631 C4632 1.366 . S
C4631 C4633 1.388 . S
C4632 C4631 1.366 . S
C4632 C4636 1.385 . S
C4633 H4608 0.951 . S
C4633 C4631 1.388 . S
C4633 C4634 1.366 . S
C4634 C4633 1.366 . S
C4634 C4635 1.414 . S
C4634 C4637 1.499 . S
C4635 H4609 0.950 . S
C4635 C4634 1.414 . S
C4635 C4636 1.374 . S
C4636 H4610 0.950 . S
C4636 C4632 1.385 . S
C4636 C4635 1.374 . S
C4637 C4634 1.499 . S
C4637 C4638 1.373 . S
C4637 C4639 1.389 . S
C4638 H4611 0.950 . S
C4638 C4624 1.377 . S
C4638 C4637 1.373 . S
C4639 C4623 1.377 . S
C4639 C4637 1.389 . S
C4639 C4640 1.524 . S
C4640 C4639 1.524 . S
C4640 C4641 1.397 . S
C4640 C4645 1.363 . S
C4641 H4612 0.950 . S
C4641 C4640 1.397 . S
C4641 C4642 1.334 . S
C4642 H4613 0.950 . S
C4642 C4641 1.334 . S
C4642 C4643 1.287 . S
C4643 C4642 1.287 . S
C4643 C4644 1.524 . S
C4643 H4646 0.999 . S
C4644 H4614 0.950 . S
C4644 C4643 1.524 . S
C4644 C4645 1.415 . S
C4645 H4615 0.950 . S
C4645 C4640 1.363 . S
C4645 C4644 1.415 . S
H4646 C4643 0.999 . S
H4647 C4628 0.913 . S
H4648 C4666 0.951 . S
H4649 C4668 0.951 . S
H4650 C4670 0.950 . S
H4651 C4671 0.950 . S
H4652 C4673 0.950 . S
H4653 C4676 0.950 . S
H4654 C4677 0.950 . S
H4655 C4679 0.950 . S
H4656 C4680 0.950 . S
H4657 C4681 0.951 . S
H4658 C4683 0.951 . S
H4659 C4685 0.950 . S
H4660 C4686 0.950 . S
H4661 C4688 0.950 . S
H4662 C4691 0.950 . S
H4663 C4692 0.950 . S
H4664 C4694 0.950 . S
H4665 C4695 0.950 . S
C4666 H4648 0.951 . S
C4666 C4667 1.366 . S
C4666 C4668 1.388 . S
C4667 C4666 1.366 . S
C4667 C4671 1.385 . S
C4668 H4649 0.951 . S
C4668 C4666 1.388 . S
C4668 C4669 1.366 . S
C4669 C4668 1.366 . S
C4669 C4670 1.414 . S
C4669 C4672 1.499 . S
C4670 H4650 0.950 . S
C4670 C4669 1.414 . S
C4670 C4671 1.374 . S
C4671 H4651 0.950 . S
C4671 C4667 1.385 . S
C4671 C4670 1.374 . S
C4672 C4669 1.499 . S
C4672 C4673 1.373 . S
C4672 C4674 1.389 . S
C4673 H4652 0.950 . S
C4673 C4672 1.373 . S
C4673 C4689 1.377 . S
C4674 C4672 1.389 . S
C4674 C4675 1.524 . S
C4674 C4688 1.377 . S
C4675 C4674 1.524 . S
C4675 C4676 1.397 . S
C4675 C4680 1.363 . S
C4676 H4653 0.950 . S
C4676 C4675 1.397 . S
C4676 C4677 1.334 . S
C4677 H4654 0.950 . S
C4677 C4676 1.334 . S
C4677 C4678 1.287 . S
C4678 C4677 1.287 . S
C4678 C4679 1.524 . S
C4678 H4697 0.913 . S
C4679 H4655 0.950 . S
C4679 C4678 1.524 . S
C4679 C4680 1.415 . S
C4680 H4656 0.950 . S
C4680 C4675 1.363 . S
C4680 C4679 1.415 . S
C4681 H4657 0.951 . S
C4681 C4682 1.366 . S
C4681 C4683 1.388 . S
C4682 C4681 1.366 . S
C4682 C4686 1.385 . S
C4683 H4658 0.951 . S
C4683 C4681 1.388 . S
C4683 C4684 1.366 . S
C4684 C4683 1.366 . S
C4684 C4685 1.414 . S
C4684 C4687 1.499 . S
C4685 H4659 0.950 . S
C4685 C4684 1.414 . S
C4685 C4686 1.374 . S
C4686 H4660 0.950 . S
C4686 C4682 1.385 . S
C4686 C4685 1.374 . S
C4687 C4684 1.499 . S
C4687 C4688 1.373 . S
C4687 C4689 1.389 . S
C4688 H4661 0.950 . S
C4688 C4674 1.377 . S
C4688 C4687 1.373 . S
C4689 C4673 1.377 . S
C4689 C4687 1.389 . S
C4689 C4690 1.524 . S
C4690 C4689 1.524 . S
C4690 C4691 1.397 . S
C4690 C4695 1.363 . S
C4691 H4662 0.950 . S
C4691 C4690 1.397 . S
C4691 C4692 1.334 . S
C4692 H4663 0.950 . S
C4692 C4691 1.334 . S
C4692 C4693 1.287 . S
C4693 C4692 1.287 . S
C4693 C4694 1.524 . S
C4693 H4696 0.999 . S
C4694 H4664 0.950 . S
C4694 C4693 1.524 . S
C4694 C4695 1.415 . S
C4695 H4665 0.950 . S
C4695 C4690 1.363 . S
C4695 C4694 1.415 . S
H4696 C4693 0.999 . S
H4697 C4678 0.913 . S
H4698 C4716 0.951 . S
H4699 C4718 0.951 . S
H4700 C4720 0.950 . S
H4701 C4721 0.950 . S
H4702 C4723 0.950 . S
H4703 C4726 0.950 . S
H4704 C4727 0.950 . S
H4705 C4729 0.950 . S
H4706 C4730 0.950 . S
H4707 C4731 0.951 . S
H4708 C4733 0.951 . S
H4709 C4735 0.950 . S
H4710 C4736 0.950 . S
H4711 C4738 0.950 . S
H4712 C4741 0.950 . S
H4713 C4742 0.950 . S
H4714 C4744 0.950 . S
H4715 C4745 0.950 . S
C4716 H4698 0.951 . S
C4716 C4717 1.366 . S
C4716 C4718 1.388 . S
C4717 C4716 1.366 . S
C4717 C4721 1.385 . S
C4718 H4699 0.951 . S
C4718 C4716 1.388 . S
C4718 C4719 1.366 . S
C4719 C4718 1.366 . S
C4719 C4720 1.414 . S
C4719 C4722 1.499 . S
C4720 H4700 0.950 . S
C4720 C4719 1.414 . S
C4720 C4721 1.374 . S
C4721 H4701 0.950 . S
C4721 C4717 1.385 . S
C4721 C4720 1.374 . S
C4722 C4719 1.499 . S
C4722 C4723 1.373 . S
C4722 C4724 1.389 . S
C4723 H4702 0.950 . S
C4723 C4722 1.373 . S
C4723 C4739 1.377 . S
C4724 C4722 1.389 . S
C4724 C4725 1.524 . S
C4724 C4738 1.377 . S
C4725 C4724 1.524 . S
C4725 C4726 1.397 . S
C4725 C4730 1.363 . S
C4726 H4703 0.950 . S
C4726 C4725 1.397 . S
C4726 C4727 1.334 . S
C4727 H4704 0.950 . S
C4727 C4726 1.334 . S
C4727 C4728 1.287 . S
C4728 C4727 1.287 . S
C4728 C4729 1.524 . S
C4728 H4747 0.913 . S
C4729 H4705 0.950 . S
C4729 C4728 1.524 . S
C4729 C4730 1.415 . S
C4730 H4706 0.950 . S
C4730 C4725 1.363 . S
C4730 C4729 1.415 . S
C4731 H4707 0.951 . S
C4731 C4732 1.366 . S
C4731 C4733 1.388 . S
C4732 C4731 1.366 . S
C4732 C4736 1.385 . S
C4733 H4708 0.951 . S
C4733 C4731 1.388 . S
C4733 C4734 1.366 . S
C4734 C4733 1.366 . S
C4734 C4735 1.414 . S
C4734 C4737 1.499 . S
C4735 H4709 0.950 . S
C4735 C4734 1.414 . S
C4735 C4736 1.374 . S
C4736 H4710 0.950 . S
C4736 C4732 1.385 . S
C4736 C4735 1.374 . S
C4737 C4734 1.499 . S
C4737 C4738 1.373 . S
C4737 C4739 1.389 . S
C4738 H4711 0.950 . S
C4738 C4724 1.377 . S
C4738 C4737 1.373 . S
C4739 C4723 1.377 . S
C4739 C4737 1.389 . S
C4739 C4740 1.524 . S
C4740 C4739 1.524 . S
C4740 C4741 1.397 . S
C4740 C4745 1.363 . S
C4741 H4712 0.950 . S
C4741 C4740 1.397 . S
C4741 C4742 1.334 . S
C4742 H4713 0.950 . S
C4742 C4741 1.334 . S
C4742 C4743 1.287 . S
C4743 C4742 1.287 . S
C4743 C4744 1.524 . S
C4743 H4746 0.999 . S
C4744 H4714 0.950 . S
C4744 C4743 1.524 . S
C4744 C4745 1.415 . S
C4745 H4715 0.950 . S
C4745 C4740 1.363 . S
C4745 C4744 1.415 . S
H4746 C4743 0.999 . S
H4747 C4728 0.913 . S
H4748 C4766 0.951 . S
H4749 C4768 0.951 . S
H4750 C4770 0.950 . S
H4751 C4771 0.950 . S
H4752 C4773 0.950 . S
H4753 C4776 0.950 . S
H4754 C4777 0.950 . S
H4755 C4779 0.950 . S
H4756 C4780 0.950 . S
H4757 C4781 0.951 . S
H4758 C4783 0.951 . S
H4759 C4785 0.950 . S
H4760 C4786 0.950 . S
H4761 C4788 0.950 . S
H4762 C4791 0.950 . S
H4763 C4792 0.950 . S
H4764 C4794 0.950 . S
H4765 C4795 0.950 . S
C4766 H4748 0.951 . S
C4766 C4767 1.366 . S
C4766 C4768 1.388 . S
C4767 C4766 1.366 . S
C4767 C4771 1.385 . S
C4768 H4749 0.951 . S
C4768 C4766 1.388 . S
C4768 C4769 1.366 . S
C4769 C4768 1.366 . S
C4769 C4770 1.414 . S
C4769 C4772 1.499 . S
C4770 H4750 0.950 . S
C4770 C4769 1.414 . S
C4770 C4771 1.374 . S
C4771 H4751 0.950 . S
C4771 C4767 1.385 . S
C4771 C4770 1.374 . S
C4772 C4769 1.499 . S
C4772 C4773 1.373 . S
C4772 C4774 1.389 . S
C4773 H4752 0.950 . S
C4773 C4772 1.373 . S
C4773 C4789 1.377 . S
C4774 C4772 1.389 . S
C4774 C4775 1.524 . S
C4774 C4788 1.377 . S
C4775 C4774 1.524 . S
C4775 C4776 1.397 . S
C4775 C4780 1.363 . S
C4776 H4753 0.950 . S
C4776 C4775 1.397 . S
C4776 C4777 1.334 . S
C4777 H4754 0.950 . S
C4777 C4776 1.334 . S
C4777 C4778 1.287 . S
C4778 C4777 1.287 . S
C4778 C4779 1.524 . S
C4778 H4797 0.913 . S
C4779 H4755 0.950 . S
C4779 C4778 1.524 . S
C4779 C4780 1.415 . S
C4780 H4756 0.950 . S
C4780 C4775 1.363 . S
C4780 C4779 1.415 . S
C4781 H4757 0.951 . S
C4781 C4782 1.366 . S
C4781 C4783 1.388 . S
C4782 C4781 1.366 . S
C4782 C4786 1.385 . S
C4783 H4758 0.951 . S
C4783 C4781 1.388 . S
C4783 C4784 1.366 . S
C4784 C4783 1.366 . S
C4784 C4785 1.414 . S
C4784 C4787 1.499 . S
C4785 H4759 0.950 . S
C4785 C4784 1.414 . S
C4785 C4786 1.374 . S
C4786 H4760 0.950 . S
C4786 C4782 1.385 . S
C4786 C4785 1.374 . S
C4787 C4784 1.499 . S
C4787 C4788 1.373 . S
C4787 C4789 1.389 . S
C4788 H4761 0.950 . S
C4788 C4774 1.377 . S
C4788 C4787 1.373 . S
C4789 C4773 1.377 . S
C4789 C4787 1.389 . S
C4789 C4790 1.524 . S
C4790 C4789 1.524 . S
C4790 C4791 1.397 . S
C4790 C4795 1.363 . S
C4791 H4762 0.950 . S
C4791 C4790 1.397 . S
C4791 C4792 1.334 . S
C4792 H4763 0.950 . S
C4792 C4791 1.334 . S
C4792 C4793 1.287 . S
C4793 C4792 1.287 . S
C4793 C4794 1.524 . S
C4793 H4796 0.999 . S
C4794 H4764 0.950 . S
C4794 C4793 1.524 . S
C4794 C4795 1.415 . S
C4795 H4765 0.950 . S
C4795 C4790 1.363 . S
C4795 C4794 1.415 . S
H4796 C4793 0.999 . S
H4797 C4778 0.913 . S
H4798 C4816 0.951 . S
H4799 C4818 0.951 . S
H4800 C4820 0.950 . S
H4801 C4821 0.950 . S
H4802 C4823 0.950 . S
H4803 C4826 0.950 . S
H4804 C4827 0.950 . S
H4805 C4829 0.950 . S
H4806 C4830 0.950 . S
H4807 C4831 0.951 . S
H4808 C4833 0.951 . S
H4809 C4835 0.950 . S
H4810 C4836 0.950 . S
H4811 C4838 0.950 . S
H4812 C4841 0.950 . S
H4813 C4842 0.950 . S
H4814 C4844 0.950 . S
H4815 C4845 0.950 . S
C4816 H4798 0.951 . S
C4816 C4817 1.366 . S
C4816 C4818 1.388 . S
C4817 C4816 1.366 . S
C4817 C4821 1.385 . S
C4818 H4799 0.951 . S
C4818 C4816 1.388 . S
C4818 C4819 1.366 . S
C4819 C4818 1.366 . S
C4819 C4820 1.414 . S
C4819 C4822 1.499 . S
C4820 H4800 0.950 . S
C4820 C4819 1.414 . S
C4820 C4821 1.374 . S
C4821 H4801 0.950 . S
C4821 C4817 1.385 . S
C4821 C4820 1.374 . S
C4822 C4819 1.499 . S
C4822 C4823 1.373 . S
C4822 C4824 1.389 . S
C4823 H4802 0.950 . S
C4823 C4822 1.373 . S
C4823 C4839 1.377 . S
C4824 C4822 1.389 . S
C4824 C4825 1.524 . S
C4824 C4838 1.377 . S
C4825 C4824 1.524 . S
C4825 C4826 1.397 . S
C4825 C4830 1.363 . S
C4826 H4803 0.950 . S
C4826 C4825 1.397 . S
C4826 C4827 1.334 . S
C4827 H4804 0.950 . S
C4827 C4826 1.334 . S
C4827 C4828 1.287 . S
C4828 C4827 1.287 . S
C4828 C4829 1.524 . S
C4828 H4847 0.913 . S
C4829 H4805 0.950 . S
C4829 C4828 1.524 . S
C4829 C4830 1.415 . S
C4830 H4806 0.950 . S
C4830 C4825 1.363 . S
C4830 C4829 1.415 . S
C4831 H4807 0.951 . S
C4831 C4832 1.366 . S
C4831 C4833 1.388 . S
C4832 C4831 1.366 . S
C4832 C4836 1.385 . S
C4833 H4808 0.951 . S
C4833 C4831 1.388 . S
C4833 C4834 1.366 . S
C4834 C4833 1.366 . S
C4834 C4835 1.414 . S
C4834 C4837 1.499 . S
C4835 H4809 0.950 . S
C4835 C4834 1.414 . S
C4835 C4836 1.374 . S
C4836 H4810 0.950 . S
C4836 C4832 1.385 . S
C4836 C4835 1.374 . S
C4837 C4834 1.499 . S
C4837 C4838 1.373 . S
C4837 C4839 1.389 . S
C4838 H4811 0.950 . S
C4838 C4824 1.377 . S
C4838 C4837 1.373 . S
C4839 C4823 1.377 . S
C4839 C4837 1.389 . S
C4839 C4840 1.524 . S
C4840 C4839 1.524 . S
C4840 C4841 1.397 . S
C4840 C4845 1.363 . S
C4841 H4812 0.950 . S
C4841 C4840 1.397 . S
C4841 C4842 1.334 . S
C4842 H4813 0.950 . S
C4842 C4841 1.334 . S
C4842 C4843 1.287 . S
C4843 C4842 1.287 . S
C4843 C4844 1.524 . S
C4843 H4846 0.999 . S
C4844 H4814 0.950 . S
C4844 C4843 1.524 . S
C4844 C4845 1.415 . S
C4845 H4815 0.950 . S
C4845 C4840 1.363 . S
C4845 C4844 1.415 . S
H4846 C4843 0.999 . S
H4847 C4828 0.913 . S
H4848 C4866 0.951 . S
H4849 C4868 0.951 . S
H4850 C4870 0.950 . S
H4851 C4871 0.950 . S
H4852 C4873 0.950 . S
H4853 C4876 0.950 . S
H4854 C4877 0.950 . S
H4855 C4879 0.950 . S
H4856 C4880 0.950 . S
H4857 C4881 0.951 . S
H4858 C4883 0.951 . S
H4859 C4885 0.950 . S
H4860 C4886 0.950 . S
H4861 C4888 0.950 . S
H4862 C4891 0.950 . S
H4863 C4892 0.950 . S
H4864 C4894 0.950 . S
H4865 C4895 0.950 . S
C4866 H4848 0.951 . S
C4866 C4867 1.366 . S
C4866 C4868 1.388 . S
C4867 C4866 1.366 . S
C4867 C4871 1.385 . S
C4868 H4849 0.951 . S
C4868 C4866 1.388 . S
C4868 C4869 1.366 . S
C4869 C4868 1.366 . S
C4869 C4870 1.414 . S
C4869 C4872 1.499 . S
C4870 H4850 0.950 . S
C4870 C4869 1.414 . S
C4870 C4871 1.374 . S
C4871 H4851 0.950 . S
C4871 C4867 1.385 . S
C4871 C4870 1.374 . S
C4872 C4869 1.499 . S
C4872 C4873 1.373 . S
C4872 C4874 1.389 . S
C4873 H4852 0.950 . S
C4873 C4872 1.373 . S
C4873 C4889 1.377 . S
C4874 C4872 1.389 . S
C4874 C4875 1.524 . S
C4874 C4888 1.377 . S
C4875 C4874 1.524 . S
C4875 C4876 1.397 . S
C4875 C4880 1.363 . S
C4876 H4853 0.950 . S
C4876 C4875 1.397 . S
C4876 C4877 1.334 . S
C4877 H4854 0.950 . S
C4877 C4876 1.334 . S
C4877 C4878 1.287 . S
C4878 C4877 1.287 . S
C4878 C4879 1.524 . S
C4878 H4897 0.913 . S
C4879 H4855 0.950 . S
C4879 C4878 1.524 . S
C4879 C4880 1.415 . S
C4880 H4856 0.950 . S
C4880 C4875 1.363 . S
C4880 C4879 1.415 . S
C4881 H4857 0.951 . S
C4881 C4882 1.366 . S
C4881 C4883 1.388 . S
C4882 C4881 1.366 . S
C4882 C4886 1.385 . S
C4883 H4858 0.951 . S
C4883 C4881 1.388 . S
C4883 C4884 1.366 . S
C4884 C4883 1.366 . S
C4884 C4885 1.414 . S
C4884 C4887 1.499 . S
C4885 H4859 0.950 . S
C4885 C4884 1.414 . S
C4885 C4886 1.374 . S
C4886 H4860 0.950 . S
C4886 C4882 1.385 . S
C4886 C4885 1.374 . S
C4887 C4884 1.499 . S
C4887 C4888 1.373 . S
C4887 C4889 1.389 . S
C4888 H4861 0.950 . S
C4888 C4874 1.377 . S
C4888 C4887 1.373 . S
C4889 C4873 1.377 . S
C4889 C4887 1.389 . S
C4889 C4890 1.524 . S
C4890 C4889 1.524 . S
C4890 C4891 1.397 . S
C4890 C4895 1.363 . S
C4891 H4862 0.950 . S
C4891 C4890 1.397 . S
C4891 C4892 1.334 . S
C4892 H4863 0.950 . S
C4892 C4891 1.334 . S
C4892 C4893 1.287 . S
C4893 C4892 1.287 . S
C4893 C4894 1.524 . S
C4893 H4896 0.999 . S
C4894 H4864 0.950 . S
C4894 C4893 1.524 . S
C4894 C4895 1.415 . S
C4895 H4865 0.950 . S
C4895 C4890 1.363 . S
C4895 C4894 1.415 . S
H4896 C4893 0.999 . S
H4897 C4878 0.913 . S
H4898 C4916 0.951 . S
H4899 C4918 0.951 . S
H4900 C4920 0.950 . S
H4901 C4921 0.950 . S
H4902 C4923 0.950 . S
H4903 C4926 0.950 . S
H4904 C4927 0.950 . S
H4905 C4929 0.950 . S
H4906 C4930 0.950 . S
H4907 C4931 0.951 . S
H4908 C4933 0.951 . S
H4909 C4935 0.950 . S
H4910 C4936 0.950 . S
H4911 C4938 0.950 . S
H4912 C4941 0.950 . S
H4913 C4942 0.950 . S
H4914 C4944 0.950 . S
H4915 C4945 0.950 . S
C4916 H4898 0.951 . S
C4916 C4917 1.366 . S
C4916 C4918 1.388 . S
C4917 C4916 1.366 . S
C4917 C4921 1.385 . S
C4918 H4899 0.951 . S
C4918 C4916 1.388 . S
C4918 C4919 1.366 . S
C4919 C4918 1.366 . S
C4919 C4920 1.414 . S
C4919 C4922 1.499 . S
C4920 H4900 0.950 . S
C4920 C4919 1.414 . S
C4920 C4921 1.374 . S
C4921 H4901 0.950 . S
C4921 C4917 1.385 . S
C4921 C4920 1.374 . S
C4922 C4919 1.499 . S
C4922 C4923 1.373 . S
C4922 C4924 1.389 . S
C4923 H4902 0.950 . S
C4923 C4922 1.373 . S
C4923 C4939 1.377 . S
C4924 C4922 1.389 . S
C4924 C4925 1.524 . S
C4924 C4938 1.377 . S
C4925 C4924 1.524 . S
C4925 C4926 1.397 . S
C4925 C4930 1.363 . S
C4926 H4903 0.950 . S
C4926 C4925 1.397 . S
C4926 C4927 1.334 . S
C4927 H4904 0.950 . S
C4927 C4926 1.334 . S
C4927 C4928 1.287 . S
C4928 C4927 1.287 . S
C4928 C4929 1.524 . S
C4928 H4947 0.913 . S
C4929 H4905 0.950 . S
C4929 C4928 1.524 . S
C4929 C4930 1.415 . S
C4930 H4906 0.950 . S
C4930 C4925 1.363 . S
C4930 C4929 1.415 . S
C4931 H4907 0.951 . S
C4931 C4932 1.366 . S
C4931 C4933 1.388 . S
C4932 C4931 1.366 . S
C4932 C4936 1.385 . S
C4933 H4908 0.951 . S
C4933 C4931 1.388 . S
C4933 C4934 1.366 . S
C4934 C4933 1.366 . S
C4934 C4935 1.414 . S
C4934 C4937 1.499 . S
C4935 H4909 0.950 . S
C4935 C4934 1.414 . S
C4935 C4936 1.374 . S
C4936 H4910 0.950 . S
C4936 C4932 1.385 . S
C4936 C4935 1.374 . S
C4937 C4934 1.499 . S
C4937 C4938 1.373 . S
C4937 C4939 1.389 . S
C4938 H4911 0.950 . S
C4938 C4924 1.377 . S
C4938 C4937 1.373 . S
C4939 C4923 1.377 . S
C4939 C4937 1.389 . S
C4939 C4940 1.524 . S
C4940 C4939 1.524 . S
C4940 C4941 1.397 . S
C4940 C4945 1.363 . S
C4941 H4912 0.950 . S
C4941 C4940 1.397 . S
C4941 C4942 1.334 . S
C4942 H4913 0.950 . S
C4942 C4941 1.334 . S
C4942 C4943 1.287 . S
C4943 C4942 1.287 . S
C4943 C4944 1.524 . S
C4943 H4946 0.999 . S
C4944 H4914 0.950 . S
C4944 C4943 1.524 . S
C4944 C4945 1.415 . S
C4945 H4915 0.950 . S
C4945 C4940 1.363 . S
C4945 C4944 1.415 . S
H4946 C4943 0.999 . S
H4947 C4928 0.913 . S
H4948 C4966 0.951 . S
H4949 C4968 0.951 . S
H4950 C4970 0.950 . S
H4951 C4971 0.950 . S
H4952 C4973 0.950 . S
H4953 C4976 0.950 . S
H4954 C4977 0.950 . S
H4955 C4979 0.950 . S
H4956 C4980 0.950 . S
H4957 C4981 0.951 . S
H4958 C4983 0.951 . S
H4959 C4985 0.950 . S
H4960 C4986 0.950 . S
H4961 C4988 0.950 . S
H4962 C4991 0.950 . S
H4963 C4992 0.950 . S
H4964 C4994 0.950 . S
H4965 C4995 0.950 . S
C4966 H4948 0.951 . S
C4966 C4967 1.366 . S
C4966 C4968 1.388 . S
C4967 C4966 1.366 . S
C4967 C4971 1.385 . S
C4968 H4949 0.951 . S
C4968 C4966 1.388 . S
C4968 C4969 1.366 . S
C4969 C4968 1.366 . S
C4969 C4970 1.414 . S
C4969 C4972 1.499 . S
C4970 H4950 0.950 . S
C4970 C4969 1.414 . S
C4970 C4971 1.374 . S
C4971 H4951 0.950 . S
C4971 C4967 1.385 . S
C4971 C4970 1.374 . S
C4972 C4969 1.499 . S
C4972 C4973 1.373 . S
C4972 C4974 1.389 . S
C4973 H4952 0.950 . S
C4973 C4972 1.373 . S
C4973 C4989 1.377 . S
C4974 C4972 1.389 . S
C4974 C4975 1.524 . S
C4974 C4988 1.377 . S
C4975 C4974 1.524 . S
C4975 C4976 1.397 . S
C4975 C4980 1.363 . S
C4976 H4953 0.950 . S
C4976 C4975 1.397 . S
C4976 C4977 1.334 . S
C4977 H4954 0.950 . S
C4977 C4976 1.334 . S
C4977 C4978 1.287 . S
C4978 C4977 1.287 . S
C4978 C4979 1.524 . S
C4978 H4997 0.913 . S
C4979 H4955 0.950 . S
C4979 C4978 1.524 . S
C4979 C4980 1.415 . S
C4980 H4956 0.950 . S
C4980 C4975 1.363 . S
C4980 C4979 1.415 . S
C4981 H4957 0.951 . S
C4981 C4982 1.366 . S
C4981 C4983 1.388 . S
C4982 C4981 1.366 . S
C4982 C4986 1.385 . S
C4983 H4958 0.951 . S
C4983 C4981 1.388 . S
C4983 C4984 1.366 . S
C4984 C4983 1.366 . S
C4984 C4985 1.414 . S
C4984 C4987 1.499 . S
C4985 H4959 0.950 . S
C4985 C4984 1.414 . S
C4985 C4986 1.374 . S
C4986 H4960 0.950 . S
C4986 C4982 1.385 . S
C4986 C4985 1.374 . S
C4987 C4984 1.499 . S
C4987 C4988 1.373 . S
C4987 C4989 1.389 . S
C4988 H4961 0.950 . S
C4988 C4974 1.377 . S
C4988 C4987 1.373 . S
C4989 C4973 1.377 . S
C4989 C4987 1.389 . S
C4989 C4990 1.524 . S
C4990 C4989 1.524 . S
C4990 C4991 1.397 . S
C4990 C4995 1.363 . S
C4991 H4962 0.950 . S
C4991 C4990 1.397 . S
C4991 C4992 1.334 . S
C4992 H4963 0.950 . S
C4992 C4991 1.334 . S
C4992 C4993 1.287 . S
C4993 C4992 1.287 . S
C4993 C4994 1.524 . S
C4993 H4996 0.999 . S
C4994 H4964 0.950 . S
C4994 C4993 1.524 . S
C4994 C4995 1.415 . S
C4995 H4965 0.950 . S
C4995 C4990 1.363 . S
C4995 C4994 1.415 . S
H4996 C4993 0.999 . S
H4997 C4978 0.913 . S
H4998 C5016 0.951 . S
H4999 C5018 0.951 . S
H5000 C5020 0.950 . S
H5001 C5021 0.950 . S
H5002 C5023 0.950 . S
H5003 C5026 0.950 . S
H5004 C5027 0.950 . S
H5005 C5029 0.950 . S
H5006 C5030 0.950 . S
H5007 C5031 0.951 . S
H5008 C5033 0.951 . S
H5009 C5035 0.950 . S
H5010 C5036 0.950 . S
H5011 C5038 0.950 . S
H5012 C5041 0.950 . S
H5013 C5042 0.950 . S
H5014 C5044 0.950 . S
H5015 C5045 0.950 . S
C5016 H4998 0.951 . S
C5016 C5017 1.366 . S
C5016 C5018 1.388 . S
C5017 C5016 1.366 . S
C5017 C5021 1.385 . S
C5018 H4999 0.951 . S
C5018 C5016 1.388 . S
C5018 C5019 1.366 . S
C5019 C5018 1.366 . S
C5019 C5020 1.414 . S
C5019 C5022 1.499 . S
C5020 H5000 0.950 . S
C5020 C5019 1.414 . S
C5020 C5021 1.374 . S
C5021 H5001 0.950 . S
C5021 C5017 1.385 . S
C5021 C5020 1.374 . S
C5022 C5019 1.499 . S
C5022 C5023 1.373 . S
C5022 C5024 1.389 . S
C5023 H5002 0.950 . S
C5023 C5022 1.373 . S
C5023 C5039 1.377 . S
C5024 C5022 1.389 . S
C5024 C5025 1.524 . S
C5024 C5038 1.377 . S
C5025 C5024 1.524 . S
C5025 C5026 1.397 . S
C5025 C5030 1.363 . S
C5026 H5003 0.950 . S
C5026 C5025 1.397 . S
C5026 C5027 1.334 . S
C5027 H5004 0.950 . S
C5027 C5026 1.334 . S
C5027 C5028 1.287 . S
C5028 C5027 1.287 . S
C5028 C5029 1.524 . S
C5028 H5047 0.913 . S
C5029 H5005 0.950 . S
C5029 C5028 1.524 . S
C5029 C5030 1.415 . S
C5030 H5006 0.950 . S
C5030 C5025 1.363 . S
C5030 C5029 1.415 . S
C5031 H5007 0.951 . S
C5031 C5032 1.366 . S
C5031 C5033 1.388 . S
C5032 C5031 1.366 . S
C5032 C5036 1.385 . S
C5033 H5008 0.951 . S
C5033 C5031 1.388 . S
C5033 C5034 1.366 . S
C5034 C5033 1.366 . S
C5034 C5035 1.414 . S
C5034 C5037 1.499 . S
C5035 H5009 0.950 . S
C5035 C5034 1.414 . S
C5035 C5036 1.374 . S
C5036 H5010 0.950 . S
C5036 C5032 1.385 . S
C5036 C5035 1.374 . S
C5037 C5034 1.499 . S
C5037 C5038 1.373 . S
C5037 C5039 1.389 . S
C5038 H5011 0.950 . S
C5038 C5024 1.377 . S
C5038 C5037 1.373 . S
C5039 C5023 1.377 . S
C5039 C5037 1.389 . S
C5039 C5040 1.524 . S
C5040 C5039 1.524 . S
C5040 C5041 1.397 . S
C5040 C5045 1.363 . S
C5041 H5012 0.950 . S
C5041 C5040 1.397 . S
C5041 C5042 1.334 . S
C5042 H5013 0.950 . S
C5042 C5041 1.334 . S
C5042 C5043 1.287 . S
C5043 C5042 1.287 . S
C5043 C5044 1.524 . S
C5043 H5046 0.999 . S
C5044 H5014 0.950 . S
C5044 C5043 1.524 . S
C5044 C5045 1.415 . S
C5045 H5015 0.950 . S
C5045 C5040 1.363 . S
C5045 C5044 1.415 . S
H5046 C5043 0.999 . S
H5047 C5028 0.913 . S
H5048 C5066 0.951 . S
H5049 C5068 0.951 . S
H5050 C5070 0.950 . S
H5051 C5071 0.950 . S
H5052 C5073 0.950 . S
H5053 C5076 0.950 . S
H5054 C5077 0.950 . S
H5055 C5079 0.950 . S
H5056 C5080 0.950 . S
H5057 C5081 0.951 . S
H5058 C5083 0.951 . S
H5059 C5085 0.950 . S
H5060 C5086 0.950 . S
H5061 C5088 0.950 . S
H5062 C5091 0.950 . S
H5063 C5092 0.950 . S
H5064 C5094 0.950 . S
H5065 C5095 0.950 . S
C5066 H5048 0.951 . S
C5066 C5067 1.366 . S
C5066 C5068 1.388 . S
C5067 C5066 1.366 . S
C5067 C5071 1.385 . S
C5068 H5049 0.951 . S
C5068 C5066 1.388 . S
C5068 C5069 1.366 . S
C5069 C5068 1.366 . S
C5069 C5070 1.414 . S
C5069 C5072 1.499 . S
C5070 H5050 0.950 . S
C5070 C5069 1.414 . S
C5070 C5071 1.374 . S
C5071 H5051 0.950 . S
C5071 C5067 1.385 . S
C5071 C5070 1.374 . S
C5072 C5069 1.499 . S
C5072 C5073 1.373 . S
C5072 C5074 1.389 . S
C5073 H5052 0.950 . S
C5073 C5072 1.373 . S
C5073 C5089 1.377 . S
C5074 C5072 1.389 . S
C5074 C5075 1.524 . S
C5074 C5088 1.377 . S
C5075 C5074 1.524 . S
C5075 C5076 1.397 . S
C5075 C5080 1.363 . S
C5076 H5053 0.950 . S
C5076 C5075 1.397 . S
C5076 C5077 1.334 . S
C5077 H5054 0.950 . S
C5077 C5076 1.334 . S
C5077 C5078 1.287 . S
C5078 C5077 1.287 . S
C5078 C5079 1.524 . S
C5078 H5097 0.913 . S
C5079 H5055 0.950 . S
C5079 C5078 1.524 . S
C5079 C5080 1.415 . S
C5080 H5056 0.950 . S
C5080 C5075 1.363 . S
C5080 C5079 1.415 . S
C5081 H5057 0.951 . S
C5081 C5082 1.366 . S
C5081 C5083 1.388 . S
C5082 C5081 1.366 . S
C5082 C5086 1.385 . S
C5083 H5058 0.951 . S
C5083 C5081 1.388 . S
C5083 C5084 1.366 . S
C5084 C5083 1.366 . S
C5084 C5085 1.414 . S
C5084 C5087 1.499 . S
C5085 H5059 0.950 . S
C5085 C5084 1.414 . S
C5085 C5086 1.374 . S
C5086 H5060 0.950 . S
C5086 C5082 1.385 . S
C5086 C5085 1.374 . S
C5087 C5084 1.499 . S
C5087 C5088 1.373 . S
C5087 C5089 1.389 . S
C5088 H5061 0.950 . S
C5088 C5074 1.377 . S
C5088 C5087 1.373 . S
C5089 C5073 1.377 . S
C5089 C5087 1.389 . S
C5089 C5090 1.524 . S
C5090 C5089 1.524 . S
C5090 C5091 1.397 . S
C5090 C5095 1.363 . S
C5091 H5062 0.950 . S
C5091 C5090 1.397 . S
C5091 C5092 1.334 . S
C5092 H5063 0.950 . S
C5092 C5091 1.334 . S
C5092 C5093 1.287 . S
C5093 C5092 1.287 . S
C5093 C5094 1.524 . S
C5093 H5096 0.999 . S
C5094 H5064 0.950 . S
C5094 C5093 1.524 . S
C5094 C5095 1.415 . S
C5095 H5065 0.950 . S
C5095 C5090 1.363 . S
C5095 C5094 1.415 . S
H5096 C5093 0.999 . S
H5097 C5078 0.913 . S
H5098 C5116 0.951 . S
H5099 C5118 0.951 . S
H5100 C5120 0.950 . S
H5101 C5121 0.950 . S
H5102 C5123 0.950 . S
H5103 C5126 0.950 . S
H5104 C5127 0.950 . S
H5105 C5129 0.950 . S
H5106 C5130 0.950 . S
H5107 C5131 0.951 . S
H5108 C5133 0.951 . S
H5109 C5135 0.950 . S
H5110 C5136 0.950 . S
H5111 C5138 0.950 . S
H5112 C5141 0.950 . S
H5113 C5142 0.950 . S
H5114 C5144 0.950 . S
H5115 C5145 0.950 . S
C5116 H5098 0.951 . S
C5116 C5117 1.366 . S
C5116 C5118 1.388 . S
C5117 C5116 1.366 . S
C5117 C5121 1.385 . S
C5118 H5099 0.951 . S
C5118 C5116 1.388 . S
C5118 C5119 1.366 . S
C5119 C5118 1.366 . S
C5119 C5120 1.414 . S
C5119 C5122 1.499 . S
C5120 H5100 0.950 . S
C5120 C5119 1.414 . S
C5120 C5121 1.374 . S
C5121 H5101 0.950 . S
C5121 C5117 1.385 . S
C5121 C5120 1.374 . S
C5122 C5119 1.499 . S
C5122 C5123 1.373 . S
C5122 C5124 1.389 . S
C5123 H5102 0.950 . S
C5123 C5122 1.373 . S
C5123 C5139 1.377 . S
C5124 C5122 1.389 . S
C5124 C5125 1.524 . S
C5124 C5138 1.377 . S
C5125 C5124 1.524 . S
C5125 C5126 1.397 . S
C5125 C5130 1.363 . S
C5126 H5103 0.950 . S
C5126 C5125 1.397 . S
C5126 C5127 1.334 . S
C5127 H5104 0.950 . S
C5127 C5126 1.334 . S
C5127 C5128 1.287 . S
C5128 C5127 1.287 . S
C5128 C5129 1.524 . S
C5128 H5147 0.913 . S
C5129 H5105 0.950 . S
C5129 C5128 1.524 . S
C5129 C5130 1.415 . S
C5130 H5106 0.950 . S
C5130 C5125 1.363 . S
C5130 C5129 1.415 . S
C5131 H5107 0.951 . S
C5131 C5132 1.366 . S
C5131 C5133 1.388 . S
C5132 C5131 1.366 . S
C5132 C5136 1.385 . S
C5133 H5108 0.951 . S
C5133 C5131 1.388 . S
C5133 C5134 1.366 . S
C5134 C5133 1.366 . S
C5134 C5135 1.414 . S
C5134 C5137 1.499 . S
C5135 H5109 0.950 . S
C5135 C5134 1.414 . S
C5135 C5136 1.374 . S
C5136 H5110 0.950 . S
C5136 C5132 1.385 . S
C5136 C5135 1.374 . S
C5137 C5134 1.499 . S
C5137 C5138 1.373 . S
C5137 C5139 1.389 . S
C5138 H5111 0.950 . S
C5138 C5124 1.377 . S
C5138 C5137 1.373 . S
C5139 C5123 1.377 . S
C5139 C5137 1.389 . S
C5139 C5140 1.524 . S
C5140 C5139 1.524 . S
C5140 C5141 1.397 . S
C5140 C5145 1.363 . S
C5141 H5112 0.950 . S
C5141 C5140 1.397 . S
C5141 C5142 1.334 . S
C5142 H5113 0.950 . S
C5142 C5141 1.334 . S
C5142 C5143 1.287 . S
C5143 C5142 1.287 . S
C5143 C5144 1.524 . S
C5143 H5146 0.999 . S
C5144 H5114 0.950 . S
C5144 C5143 1.524 . S
C5144 C5145 1.415 . S
C5145 H5115 0.950 . S
C5145 C5140 1.363 . S
C5145 C5144 1.415 . S
H5146 C5143 0.999 . S
H5147 C5128 0.913 . S
H5148 C5166 0.951 . S
H5149 C5168 0.951 . S
H5150 C5170 0.950 . S
H5151 C5171 0.950 . S
H5152 C5173 0.950 . S
H5153 C5176 0.950 . S
H5154 C5177 0.950 . S
H5155 C5179 0.950 . S
H5156 C5180 0.950 . S
H5157 C5181 0.951 . S
H5158 C5183 0.951 . S
H5159 C5185 0.950 . S
H5160 C5186 0.950 . S
H5161 C5188 0.950 . S
H5162 C5191 0.950 . S
H5163 C5192 0.950 . S
H5164 C5194 0.950 . S
H5165 C5195 0.950 . S
C5166 H5148 0.951 . S
C5166 C5167 1.366 . S
C5166 C5168 1.388 . S
C5167 C5166 1.366 . S
C5167 C5171 1.385 . S
C5168 H5149 0.951 . S
C5168 C5166 1.388 . S
C5168 C5169 1.366 . S
C5169 C5168 1.366 . S
C5169 C5170 1.414 . S
C5169 C5172 1.499 . S
C5170 H5150 0.950 . S
C5170 C5169 1.414 . S
C5170 C5171 1.374 . S
C5171 H5151 0.950 . S
C5171 C5167 1.385 . S
C5171 C5170 1.374 . S
C5172 C5169 1.499 . S
C5172 C5173 1.373 . S
C5172 C5174 1.389 . S
C5173 H5152 0.950 . S
C5173 C5172 1.373 . S
C5173 C5189 1.377 . S
C5174 C5172 1.389 . S
C5174 C5175 1.524 . S
C5174 C5188 1.377 . S
C5175 C5174 1.524 . S
C5175 C5176 1.397 . S
C5175 C5180 1.363 . S
C5176 H5153 0.950 . S
C5176 C5175 1.397 . S
C5176 C5177 1.334 . S
C5177 H5154 0.950 . S
C5177 C5176 1.334 . S
C5177 C5178 1.287 . S
C5178 C5177 1.287 . S
C5178 C5179 1.524 . S
C5178 H5197 0.913 . S
C5179 H5155 0.950 . S
C5179 C5178 1.524 . S
C5179 C5180 1.415 . S
C5180 H5156 0.950 . S
C5180 C5175 1.363 . S
C5180 C5179 1.415 . S
C5181 H5157 0.951 . S
C5181 C5182 1.366 . S
C5181 C5183 1.388 . S
C5182 C5181 1.366 . S
C5182 C5186 1.385 . S
C5183 H5158 0.951 . S
C5183 C5181 1.388 . S
C5183 C5184 1.366 . S
C5184 C5183 1.366 . S
C5184 C5185 1.414 . S
C5184 C5187 1.499 . S
C5185 H5159 0.950 . S
C5185 C5184 1.414 . S
C5185 C5186 1.374 . S
C5186 H5160 0.950 . S
C5186 C5182 1.385 . S
C5186 C5185 1.374 . S
C5187 C5184 1.499 . S
C5187 C5188 1.373 . S
C5187 C5189 1.389 . S
C5188 H5161 0.950 . S
C5188 C5174 1.377 . S
C5188 C5187 1.373 . S
C5189 C5173 1.377 . S
C5189 C5187 1.389 . S
C5189 C5190 1.524 . S
C5190 C5189 1.524 . S
C5190 C5191 1.397 . S
C5190 C5195 1.363 . S
C5191 H5162 0.950 . S
C5191 C5190 1.397 . S
C5191 C5192 1.334 . S
C5192 H5163 0.950 . S
C5192 C5191 1.334 . S
C5192 C5193 1.287 . S
C5193 C5192 1.287 . S
C5193 C5194 1.524 . S
C5193 H5196 0.999 . S
C5194 H5164 0.950 . S
C5194 C5193 1.524 . S
C5194 C5195 1.415 . S
C5195 H5165 0.950 . S
C5195 C5190 1.363 . S
C5195 C5194 1.415 . S
H5196 C5193 0.999 . S
H5197 C5178 0.913 . S
H5198 C5216 0.951 . S
H5199 C5218 0.951 . S
H5200 C5220 0.950 . S
H5201 C5221 0.950 . S
H5202 C5223 0.950 . S
H5203 C5226 0.950 . S
H5204 C5227 0.950 . S
H5205 C5229 0.950 . S
H5206 C5230 0.950 . S
H5207 C5231 0.951 . S
H5208 C5233 0.951 . S
H5209 C5235 0.950 . S
H5210 C5236 0.950 . S
H5211 C5238 0.950 . S
H5212 C5241 0.950 . S
H5213 C5242 0.950 . S
H5214 C5244 0.950 . S
H5215 C5245 0.950 . S
C5216 H5198 0.951 . S
C5216 C5217 1.366 . S
C5216 C5218 1.388 . S
C5217 C5216 1.366 . S
C5217 C5221 1.385 . S
C5218 H5199 0.951 . S
C5218 C5216 1.388 . S
C5218 C5219 1.366 . S
C5219 C5218 1.366 . S
C5219 C5220 1.414 . S
C5219 C5222 1.499 . S
C5220 H5200 0.950 . S
C5220 C5219 1.414 . S
C5220 C5221 1.374 . S
C5221 H5201 0.950 . S
C5221 C5217 1.385 . S
C5221 C5220 1.374 . S
C5222 C5219 1.499 . S
C5222 C5223 1.373 . S
C5222 C5224 1.389 . S
C5223 H5202 0.950 . S
C5223 C5222 1.373 . S
C5223 C5239 1.377 . S
C5224 C5222 1.389 . S
C5224 C5225 1.524 . S
C5224 C5238 1.377 . S
C5225 C5224 1.524 . S
C5225 C5226 1.397 . S
C5225 C5230 1.363 . S
C5226 H5203 0.950 . S
C5226 C5225 1.397 . S
C5226 C5227 1.334 . S
C5227 H5204 0.950 . S
C5227 C5226 1.334 . S
C5227 C5228 1.287 . S
C5228 C5227 1.287 . S
C5228 C5229 1.524 . S
C5228 H5247 0.913 . S
C5229 H5205 0.950 . S
C5229 C5228 1.524 . S
C5229 C5230 1.415 . S
C5230 H5206 0.950 . S
C5230 C5225 1.363 . S
C5230 C5229 1.415 . S
C5231 H5207 0.951 . S
C5231 C5232 1.366 . S
C5231 C5233 1.388 . S
C5232 C5231 1.366 . S
C5232 C5236 1.385 . S
C5233 H5208 0.951 . S
C5233 C5231 1.388 . S
C5233 C5234 1.366 . S
C5234 C5233 1.366 . S
C5234 C5235 1.414 . S
C5234 C5237 1.499 . S
C5235 H5209 0.950 . S
C5235 C5234 1.414 . S
C5235 C5236 1.374 . S
C5236 H5210 0.950 . S
C5236 C5232 1.385 . S
C5236 C5235 1.374 . S
C5237 C5234 1.499 . S
C5237 C5238 1.373 . S
C5237 C5239 1.389 . S
C5238 H5211 0.950 . S
C5238 C5224 1.377 . S
C5238 C5237 1.373 . S
C5239 C5223 1.377 . S
C5239 C5237 1.389 . S
C5239 C5240 1.524 . S
C5240 C5239 1.524 . S
C5240 C5241 1.397 . S
C5240 C5245 1.363 . S
C5241 H5212 0.950 . S
C5241 C5240 1.397 . S
C5241 C5242 1.334 . S
C5242 H5213 0.950 . S
C5242 C5241 1.334 . S
C5242 C5243 1.287 . S
C5243 C5242 1.287 . S
C5243 C5244 1.524 . S
C5243 H5246 0.999 . S
C5244 H5214 0.950 . S
C5244 C5243 1.524 . S
C5244 C5245 1.415 . S
C5245 H5215 0.950 . S
C5245 C5240 1.363 . S
C5245 C5244 1.415 . S
H5246 C5243 0.999 . S
H5247 C5228 0.913 . S
H5248 C5266 0.951 . S
H5249 C5268 0.951 . S
H5250 C5270 0.950 . S
H5251 C5271 0.950 . S
H5252 C5273 0.950 . S
H5253 C5276 0.950 . S
H5254 C5277 0.950 . S
H5255 C5279 0.950 . S
H5256 C5280 0.950 . S
H5257 C5281 0.951 . S
H5258 C5283 0.951 . S
H5259 C5285 0.950 . S
H5260 C5286 0.950 . S
H5261 C5288 0.950 . S
H5262 C5291 0.950 . S
H5263 C5292 0.950 . S
H5264 C5294 0.950 . S
H5265 C5295 0.950 . S
C5266 H5248 0.951 . S
C5266 C5267 1.366 . S
C5266 C5268 1.388 . S
C5267 C5266 1.366 . S
C5267 C5271 1.385 . S
C5268 H5249 0.951 . S
C5268 C5266 1.388 . S
C5268 C5269 1.366 . S
C5269 C5268 1.366 . S
C5269 C5270 1.414 . S
C5269 C5272 1.499 . S
C5270 H5250 0.950 . S
C5270 C5269 1.414 . S
C5270 C5271 1.374 . S
C5271 H5251 0.950 . S
C5271 C5267 1.385 . S
C5271 C5270 1.374 . S
C5272 C5269 1.499 . S
C5272 C5273 1.373 . S
C5272 C5274 1.389 . S
C5273 H5252 0.950 . S
C5273 C5272 1.373 . S
C5273 C5289 1.377 . S
C5274 C5272 1.389 . S
C5274 C5275 1.524 . S
C5274 C5288 1.377 . S
C5275 C5274 1.524 . S
C5275 C5276 1.397 . S
C5275 C5280 1.363 . S
C5276 H5253 0.950 . S
C5276 C5275 1.397 . S
C5276 C5277 1.334 . S
C5277 H5254 0.950 . S
C5277 C5276 1.334 . S
C5277 C5278 1.287 . S
C5278 C5277 1.287 . S
C5278 C5279 1.524 . S
C5278 H5297 0.913 . S
C5279 H5255 0.950 . S
C5279 C5278 1.524 . S
C5279 C5280 1.415 . S
C5280 H5256 0.950 . S
C5280 C5275 1.363 . S
C5280 C5279 1.415 . S
C5281 H5257 0.951 . S
C5281 C5282 1.366 . S
C5281 C5283 1.388 . S
C5282 C5281 1.366 . S
C5282 C5286 1.385 . S
C5283 H5258 0.951 . S
C5283 C5281 1.388 . S
C5283 C5284 1.366 . S
C5284 C5283 1.366 . S
C5284 C5285 1.414 . S
C5284 C5287 1.499 . S
C5285 H5259 0.950 . S
C5285 C5284 1.414 . S
C5285 C5286 1.374 . S
C5286 H5260 0.950 . S
C5286 C5282 1.385 . S
C5286 C5285 1.374 . S
C5287 C5284 1.499 . S
C5287 C5288 1.373 . S
C5287 C5289 1.389 . S
C5288 H5261 0.950 . S
C5288 C5274 1.377 . S
C5288 C5287 1.373 . S
C5289 C5273 1.377 . S
C5289 C5287 1.389 . S
C5289 C5290 1.524 . S
C5290 C5289 1.524 . S
C5290 C5291 1.397 . S
C5290 C5295 1.363 . S
C5291 H5262 0.950 . S
C5291 C5290 1.397 . S
C5291 C5292 1.334 . S
C5292 H5263 0.950 . S
C5292 C5291 1.334 . S
C5292 C5293 1.287 . S
C5293 C5292 1.287 . S
C5293 C5294 1.524 . S
C5293 H5296 0.999 . S
C5294 H5264 0.950 . S
C5294 C5293 1.524 . S
C5294 C5295 1.415 . S
C5295 H5265 0.950 . S
C5295 C5290 1.363 . S
C5295 C5294 1.415 . S
H5296 C5293 0.999 . S
H5297 C5278 0.913 . S
H5298 C5316 0.951 . S
H5299 C5318 0.951 . S
H5300 C5320 0.950 . S
H5301 C5321 0.950 . S
H5302 C5323 0.950 . S
H5303 C5326 0.950 . S
H5304 C5327 0.950 . S
H5305 C5329 0.950 . S
H5306 C5330 0.950 . S
H5307 C5331 0.951 . S
H5308 C5333 0.951 . S
H5309 C5335 0.950 . S
H5310 C5336 0.950 . S
H5311 C5338 0.950 . S
H5312 C5341 0.950 . S
H5313 C5342 0.950 . S
H5314 C5344 0.950 . S
H5315 C5345 0.950 . S
C5316 H5298 0.951 . S
C5316 C5317 1.366 . S
C5316 C5318 1.388 . S
C5317 C5316 1.366 . S
C5317 C5321 1.385 . S
C5318 H5299 0.951 . S
C5318 C5316 1.388 . S
C5318 C5319 1.366 . S
C5319 C5318 1.366 . S
C5319 C5320 1.414 . S
C5319 C5322 1.499 . S
C5320 H5300 0.950 . S
C5320 C5319 1.414 . S
C5320 C5321 1.374 . S
C5321 H5301 0.950 . S
C5321 C5317 1.385 . S
C5321 C5320 1.374 . S
C5322 C5319 1.499 . S
C5322 C5323 1.373 . S
C5322 C5324 1.389 . S
C5323 H5302 0.950 . S
C5323 C5322 1.373 . S
C5323 C5339 1.377 . S
C5324 C5322 1.389 . S
C5324 C5325 1.524 . S
C5324 C5338 1.377 . S
C5325 C5324 1.524 . S
C5325 C5326 1.397 . S
C5325 C5330 1.363 . S
C5326 H5303 0.950 . S
C5326 C5325 1.397 . S
C5326 C5327 1.334 . S
C5327 H5304 0.950 . S
C5327 C5326 1.334 . S
C5327 C5328 1.287 . S
C5328 C5327 1.287 . S
C5328 C5329 1.524 . S
C5328 H5347 0.913 . S
C5329 H5305 0.950 . S
C5329 C5328 1.524 . S
C5329 C5330 1.415 . S
C5330 H5306 0.950 . S
C5330 C5325 1.363 . S
C5330 C5329 1.415 . S
C5331 H5307 0.951 . S
C5331 C5332 1.366 . S
C5331 C5333 1.388 . S
C5332 C5331 1.366 . S
C5332 C5336 1.385 . S
C5333 H5308 0.951 . S
C5333 C5331 1.388 . S
C5333 C5334 1.366 . S
C5334 C5333 1.366 . S
C5334 C5335 1.414 . S
C5334 C5337 1.499 . S
C5335 H5309 0.950 . S
C5335 C5334 1.414 . S
C5335 C5336 1.374 . S
C5336 H5310 0.950 . S
C5336 C5332 1.385 . S
C5336 C5335 1.374 . S
C5337 C5334 1.499 . S
C5337 C5338 1.373 . S
C5337 C5339 1.389 . S
C5338 H5311 0.950 . S
C5338 C5324 1.377 . S
C5338 C5337 1.373 . S
C5339 C5323 1.377 . S
C5339 C5337 1.389 . S
C5339 C5340 1.524 . S
C5340 C5339 1.524 . S
C5340 C5341 1.397 . S
C5340 C5345 1.363 . S
C5341 H5312 0.950 . S
C5341 C5340 1.397 . S
C5341 C5342 1.334 . S
C5342 H5313 0.950 . S
C5342 C5341 1.334 . S
C5342 C5343 1.287 . S
C5343 C5342 1.287 . S
C5343 C5344 1.524 . S
C5343 H5346 0.999 . S
C5344 H5314 0.950 . S
C5344 C5343 1.524 . S
C5344 C5345 1.415 . S
C5345 H5315 0.950 . S
C5345 C5340 1.363 . S
C5345 C5344 1.415 . S
H5346 C5343 0.999 . S
H5347 C5328 0.913 . S
H5348 C5366 0.951 . S
H5349 C5368 0.951 . S
H5350 C5370 0.950 . S
H5351 C5371 0.950 . S
H5352 C5373 0.950 . S
H5353 C5376 0.950 . S
H5354 C5377 0.950 . S
H5355 C5379 0.950 . S
H5356 C5380 0.950 . S
H5357 C5381 0.951 . S
H5358 C5383 0.951 . S
H5359 C5385 0.950 . S
H5360 C5386 0.950 . S
H5361 C5388 0.950 . S
H5362 C5391 0.950 . S
H5363 C5392 0.950 . S
H5364 C5394 0.950 . S
H5365 C5395 0.950 . S
C5366 H5348 0.951 . S
C5366 C5367 1.366 . S
C5366 C5368 1.388 . S
C5367 C5366 1.366 . S
C5367 C5371 1.385 . S
C5368 H5349 0.951 . S
C5368 C5366 1.388 . S
C5368 C5369 1.366 . S
C5369 C5368 1.366 . S
C5369 C5370 1.414 . S
C5369 C5372 1.499 . S
C5370 H5350 0.950 . S
C5370 C5369 1.414 . S
C5370 C5371 1.374 . S
C5371 H5351 0.950 . S
C5371 C5367 1.385 . S
C5371 C5370 1.374 . S
C5372 C5369 1.499 . S
C5372 C5373 1.373 . S
C5372 C5374 1.389 . S
C5373 H5352 0.950 . S
C5373 C5372 1.373 . S
C5373 C5389 1.377 . S
C5374 C5372 1.389 . S
C5374 C5375 1.524 . S
C5374 C5388 1.377 . S
C5375 C5374 1.524 . S
C5375 C5376 1.397 . S
C5375 C5380 1.363 . S
C5376 H5353 0.950 . S
C5376 C5375 1.397 . S
C5376 C5377 1.334 . S
C5377 H5354 0.950 . S
C5377 C5376 1.334 . S
C5377 C5378 1.287 . S
C5378 C5377 1.287 . S
C5378 C5379 1.524 . S
C5378 H5397 0.913 . S
C5379 H5355 0.950 . S
C5379 C5378 1.524 . S
C5379 C5380 1.415 . S
C5380 H5356 0.950 . S
C5380 C5375 1.363 . S
C5380 C5379 1.415 . S
C5381 H5357 0.951 . S
C5381 C5382 1.366 . S
C5381 C5383 1.388 . S
C5382 C5381 1.366 . S
C5382 C5386 1.385 . S
C5383 H5358 0.951 . S
C5383 C5381 1.388 . S
C5383 C5384 1.366 . S
C5384 C5383 1.366 . S
C5384 C5385 1.414 . S
C5384 C5387 1.499 . S
C5385 H5359 0.950 . S
C5385 C5384 1.414 . S
C5385 C5386 1.374 . S
C5386 H5360 0.950 . S
C5386 C5382 1.385 . S
C5386 C5385 1.374 . S
C5387 C5384 1.499 . S
C5387 C5388 1.373 . S
C5387 C5389 1.389 . S
C5388 H5361 0.950 . S
C5388 C5374 1.377 . S
C5388 C5387 1.373 . S
C5389 C5373 1.377 . S
C5389 C5387 1.389 . S
C5389 C5390 1.524 . S
C5390 C5389 1.524 . S
C5390 C5391 1.397 . S
C5390 C5395 1.363 . S
C5391 H5362 0.950 . S
C5391 C5390 1.397 . S
C5391 C5392 1.334 . S
C5392 H5363 0.950 . S
C5392 C5391 1.334 . S
C5392 C5393 1.287 . S
C5393 C5392 1.287 . S
C5393 C5394 1.524 . S
C5393 H5396 0.999 . S
C5394 H5364 0.950 . S
C5394 C5393 1.524 . S
C5394 C5395 1.415 . S
C5395 H5365 0.950 . S
C5395 C5390 1.363 . S
C5395 C5394 1.415 . S
H5396 C5393 0.999 . S
H5397 C5378 0.913 . S
H5398 C5416 0.951 . S
H5399 C5418 0.951 . S
H5400 C5420 0.950 . S
H5401 C5421 0.950 . S
H5402 C5423 0.950 . S
H5403 C5426 0.950 . S
H5404 C5427 0.950 . S
H5405 C5429 0.950 . S
H5406 C5430 0.950 . S
H5407 C5431 0.951 . S
H5408 C5433 0.951 . S
H5409 C5435 0.950 . S
H5410 C5436 0.950 . S
H5411 C5438 0.950 . S
H5412 C5441 0.950 . S
H5413 C5442 0.950 . S
H5414 C5444 0.950 . S
H5415 C5445 0.950 . S
C5416 H5398 0.951 . S
C5416 C5417 1.366 . S
C5416 C5418 1.388 . S
C5417 C5416 1.366 . S
C5417 C5421 1.385 . S
C5418 H5399 0.951 . S
C5418 C5416 1.388 . S
C5418 C5419 1.366 . S
C5419 C5418 1.366 . S
C5419 C5420 1.414 . S
C5419 C5422 1.499 . S
C5420 H5400 0.950 . S
C5420 C5419 1.414 . S
C5420 C5421 1.374 . S
C5421 H5401 0.950 . S
C5421 C5417 1.385 . S
C5421 C5420 1.374 . S
C5422 C5419 1.499 . S
C5422 C5423 1.373 . S
C5422 C5424 1.389 . S
C5423 H5402 0.950 . S
C5423 C5422 1.373 . S
C5423 C5439 1.377 . S
C5424 C5422 1.389 . S
C5424 C5425 1.524 . S
C5424 C5438 1.377 . S
C5425 C5424 1.524 . S
C5425 C5426 1.397 . S
C5425 C5430 1.363 . S
C5426 H5403 0.950 . S
C5426 C5425 1.397 . S
C5426 C5427 1.334 . S
C5427 H5404 0.950 . S
C5427 C5426 1.334 . S
C5427 C5428 1.287 . S
C5428 C5427 1.287 . S
C5428 C5429 1.524 . S
C5428 H5447 0.913 . S
C5429 H5405 0.950 . S
C5429 C5428 1.524 . S
C5429 C5430 1.415 . S
C5430 H5406 0.950 . S
C5430 C5425 1.363 . S
C5430 C5429 1.415 . S
C5431 H5407 0.951 . S
C5431 C5432 1.366 . S
C5431 C5433 1.388 . S
C5432 C5431 1.366 . S
C5432 C5436 1.385 . S
C5433 H5408 0.951 . S
C5433 C5431 1.388 . S
C5433 C5434 1.366 . S
C5434 C5433 1.366 . S
C5434 C5435 1.414 . S
C5434 C5437 1.499 . S
C5435 H5409 0.950 . S
C5435 C5434 1.414 . S
C5435 C5436 1.374 . S
C5436 H5410 0.950 . S
C5436 C5432 1.385 . S
C5436 C5435 1.374 . S
C5437 C5434 1.499 . S
C5437 C5438 1.373 . S
C5437 C5439 1.389 . S
C5438 H5411 0.950 . S
C5438 C5424 1.377 . S
C5438 C5437 1.373 . S
C5439 C5423 1.377 . S
C5439 C5437 1.389 . S
C5439 C5440 1.524 . S
C5440 C5439 1.524 . S
C5440 C5441 1.397 . S
C5440 C5445 1.363 . S
C5441 H5412 0.950 . S
C5441 C5440 1.397 . S
C5441 C5442 1.334 . S
C5442 H5413 0.950 . S
C5442 C5441 1.334 . S
C5442 C5443 1.287 . S
C5443 C5442 1.287 . S
C5443 C5444 1.524 . S
C5443 H5446 0.999 . S
C5444 H5414 0.950 . S
C5444 C5443 1.524 . S
C5444 C5445 1.415 . S
C5445 H5415 0.950 . S
C5445 C5440 1.363 . S
C5445 C5444 1.415 . S
H5446 C5443 0.999 . S
H5447 C5428 0.913 . S
H5448 C5466 0.951 . S
H5449 C5468 0.951 . S
H5450 C5470 0.950 . S
H5451 C5471 0.950 . S
H5452 C5473 0.950 . S
H5453 C5476 0.950 . S
H5454 C5477 0.950 . S
H5455 C5479 0.950 . S
H5456 C5480 0.950 . S
H5457 C5481 0.951 . S
H5458 C5483 0.951 . S
H5459 C5485 0.950 . S
H5460 C5486 0.950 . S
H5461 C5488 0.950 . S
H5462 C5491 0.950 . S
H5463 C5492 0.950 . S
H5464 C5494 0.950 . S
H5465 C5495 0.950 . S
C5466 H5448 0.951 . S
C5466 C5467 1.366 . S
C5466 C5468 1.388 . S
C5467 C5466 1.366 . S
C5467 C5471 1.385 . S
C5468 H5449 0.951 . S
C5468 C5466 1.388 . S
C5468 C5469 1.366 . S
C5469 C5468 1.366 . S
C5469 C5470 1.414 . S
C5469 C5472 1.499 . S
C5470 H5450 0.950 . S
C5470 C5469 1.414 . S
C5470 C5471 1.374 . S
C5471 H5451 0.950 . S
C5471 C5467 1.385 . S
C5471 C5470 1.374 . S
C5472 C5469 1.499 . S
C5472 C5473 1.373 . S
C5472 C5474 1.389 . S
C5473 H5452 0.950 . S
C5473 C5472 1.373 . S
C5473 C5489 1.377 . S
C5474 C5472 1.389 . S
C5474 C5475 1.524 . S
C5474 C5488 1.377 . S
C5475 C5474 1.524 . S
C5475 C5476 1.397 . S
C5475 C5480 1.363 . S
C5476 H5453 0.950 . S
C5476 C5475 1.397 . S
C5476 C5477 1.334 . S
C5477 H5454 0.950 . S
C5477 C5476 1.334 . S
C5477 C5478 1.287 . S
C5478 C5477 1.287 . S
C5478 C5479 1.524 . S
C5478 H5497 0.913 . S
C5479 H5455 0.950 . S
C5479 C5478 1.524 . S
C5479 C5480 1.415 . S
C5480 H5456 0.950 . S
C5480 C5475 1.363 . S
C5480 C5479 1.415 . S
C5481 H5457 0.951 . S
C5481 C5482 1.366 . S
C5481 C5483 1.388 . S
C5482 C5481 1.366 . S
C5482 C5486 1.385 . S
C5483 H5458 0.951 . S
C5483 C5481 1.388 . S
C5483 C5484 1.366 . S
C5484 C5483 1.366 . S
C5484 C5485 1.414 . S
C5484 C5487 1.499 . S
C5485 H5459 0.950 . S
C5485 C5484 1.414 . S
C5485 C5486 1.374 . S
C5486 H5460 0.950 . S
C5486 C5482 1.385 . S
C5486 C5485 1.374 . S
C5487 C5484 1.499 . S
C5487 C5488 1.373 . S
C5487 C5489 1.389 . S
C5488 H5461 0.950 . S
C5488 C5474 1.377 . S
C5488 C5487 1.373 . S
C5489 C5473 1.377 . S
C5489 C5487 1.389 . S
C5489 C5490 1.524 . S
C5490 C5489 1.524 . S
C5490 C5491 1.397 . S
C5490 C5495 1.363 . S
C5491 H5462 0.950 . S
C5491 C5490 1.397 . S
C5491 C5492 1.334 . S
C5492 H5463 0.950 . S
C5492 C5491 1.334 . S
C5492 C5493 1.287 . S
C5493 C5492 1.287 . S
C5493 C5494 1.524 . S
C5493 H5496 0.999 . S
C5494 H5464 0.950 . S
C5494 C5493 1.524 . S
C5494 C5495 1.415 . S
C5495 H5465 0.950 . S
C5495 C5490 1.363 . S
C5495 C5494 1.415 . S
H5496 C5493 0.999 . S
H5497 C5478 0.913 . S
H5498 C5516 0.951 . S
H5499 C5518 0.951 . S
H5500 C5520 0.950 . S
H5501 C5521 0.950 . S
H5502 C5523 0.950 . S
H5503 C5526 0.950 . S
H5504 C5527 0.950 . S
H5505 C5529 0.950 . S
H5506 C5530 0.950 . S
H5507 C5531 0.951 . S
H5508 C5533 0.951 . S
H5509 C5535 0.950 . S
H5510 C5536 0.950 . S
H5511 C5538 0.950 . S
H5512 C5541 0.950 . S
H5513 C5542 0.950 . S
H5514 C5544 0.950 . S
H5515 C5545 0.950 . S
C5516 H5498 0.951 . S
C5516 C5517 1.366 . S
C5516 C5518 1.388 . S
C5517 C5516 1.366 . S
C5517 C5521 1.385 . S
C5518 H5499 0.951 . S
C5518 C5516 1.388 . S
C5518 C5519 1.366 . S
C5519 C5518 1.366 . S
C5519 C5520 1.414 . S
C5519 C5522 1.499 . S
C5520 H5500 0.950 . S
C5520 C5519 1.414 . S
C5520 C5521 1.374 . S
C5521 H5501 0.950 . S
C5521 C5517 1.385 . S
C5521 C5520 1.374 . S
C5522 C5519 1.499 . S
C5522 C5523 1.373 . S
C5522 C5524 1.389 . S
C5523 H5502 0.950 . S
C5523 C5522 1.373 . S
C5523 C5539 1.377 . S
C5524 C5522 1.389 . S
C5524 C5525 1.524 . S
C5524 C5538 1.377 . S
C5525 C5524 1.524 . S
C5525 C5526 1.397 . S
C5525 C5530 1.363 . S
C5526 H5503 0.950 . S
C5526 C5525 1.397 . S
C5526 C5527 1.334 . S
C5527 H5504 0.950 . S
C5527 C5526 1.334 . S
C5527 C5528 1.287 . S
C5528 C5527 1.287 . S
C5528 C5529 1.524 . S
C5528 H5547 0.913 . S
C5529 H5505 0.950 . S
C5529 C5528 1.524 . S
C5529 C5530 1.415 . S
C5530 H5506 0.950 . S
C5530 C5525 1.363 . S
C5530 C5529 1.415 . S
C5531 H5507 0.951 . S
C5531 C5532 1.366 . S
C5531 C5533 1.388 . S
C5532 C5531 1.366 . S
C5532 C5536 1.385 . S
C5533 H5508 0.951 . S
C5533 C5531 1.388 . S
C5533 C5534 1.366 . S
C5534 C5533 1.366 . S
C5534 C5535 1.414 . S
C5534 C5537 1.499 . S
C5535 H5509 0.950 . S
C5535 C5534 1.414 . S
C5535 C5536 1.374 . S
C5536 H5510 0.950 . S
C5536 C5532 1.385 . S
C5536 C5535 1.374 . S
C5537 C5534 1.499 . S
C5537 C5538 1.373 . S
C5537 C5539 1.389 . S
C5538 H5511 0.950 . S
C5538 C5524 1.377 . S
C5538 C5537 1.373 . S
C5539 C5523 1.377 . S
C5539 C5537 1.389 . S
C5539 C5540 1.524 . S
C5540 C5539 1.524 . S
C5540 C5541 1.397 . S
C5540 C5545 1.363 . S
C5541 H5512 0.950 . S
C5541 C5540 1.397 . S
C5541 C5542 1.334 . S
C5542 H5513 0.950 . S
C5542 C5541 1.334 . S
C5542 C5543 1.287 . S
C5543 C5542 1.287 . S
C5543 C5544 1.524 . S
C5543 H5546 0.999 . S
C5544 H5514 0.950 . S
C5544 C5543 1.524 . S
C5544 C5545 1.415 . S
C5545 H5515 0.950 . S
C5545 C5540 1.363 . S
C5545 C5544 1.415 . S
H5546 C5543 0.999 . S
H5547 C5528 0.913 . S
H5548 C5566 0.951 . S
H5549 C5568 0.951 . S
H5550 C5570 0.950 . S
H5551 C5571 0.950 . S
H5552 C5573 0.950 . S
H5553 C5576 0.950 . S
H5554 C5577 0.950 . S
H5555 C5579 0.950 . S
H5556 C5580 0.950 . S
H5557 C5581 0.951 . S
H5558 C5583 0.951 . S
H5559 C5585 0.950 . S
H5560 C5586 0.950 . S
H5561 C5588 0.950 . S
H5562 C5591 0.950 . S
H5563 C5592 0.950 . S
H5564 C5594 0.950 . S
H5565 C5595 0.950 . S
C5566 H5548 0.951 . S
C5566 C5567 1.366 . S
C5566 C5568 1.388 . S
C5567 C5566 1.366 . S
C5567 C5571 1.385 . S
C5568 H5549 0.951 . S
C5568 C5566 1.388 . S
C5568 C5569 1.366 . S
C5569 C5568 1.366 . S
C5569 C5570 1.414 . S
C5569 C5572 1.499 . S
C5570 H5550 0.950 . S
C5570 C5569 1.414 . S
C5570 C5571 1.374 . S
C5571 H5551 0.950 . S
C5571 C5567 1.385 . S
C5571 C5570 1.374 . S
C5572 C5569 1.499 . S
C5572 C5573 1.373 . S
C5572 C5574 1.389 . S
C5573 H5552 0.950 . S
C5573 C5572 1.373 . S
C5573 C5589 1.377 . S
C5574 C5572 1.389 . S
C5574 C5575 1.524 . S
C5574 C5588 1.377 . S
C5575 C5574 1.524 . S
C5575 C5576 1.397 . S
C5575 C5580 1.363 . S
C5576 H5553 0.950 . S
C5576 C5575 1.397 . S
C5576 C5577 1.334 . S
C5577 H5554 0.950 . S
C5577 C5576 1.334 . S
C5577 C5578 1.287 . S
C5578 C5577 1.287 . S
C5578 C5579 1.524 . S
C5578 H5597 0.913 . S
C5579 H5555 0.950 . S
C5579 C5578 1.524 . S
C5579 C5580 1.415 . S
C5580 H5556 0.950 . S
C5580 C5575 1.363 . S
C5580 C5579 1.415 . S
C5581 H5557 0.951 . S
C5581 C5582 1.366 . S
C5581 C5583 1.388 . S
C5582 C5581 1.366 . S
C5582 C5586 1.385 . S
C5583 H5558 0.951 . S
C5583 C5581 1.388 . S
C5583 C5584 1.366 . S
C5584 C5583 1.366 . S
C5584 C5585 1.414 . S
C5584 C5587 1.499 . S
C5585 H5559 0.950 . S
C5585 C5584 1.414 . S
C5585 C5586 1.374 . S
C5586 H5560 0.950 . S
C5586 C5582 1.385 . S
C5586 C5585 1.374 . S
C5587 C5584 1.499 . S
C5587 C5588 1.373 . S
C5587 C5589 1.389 . S
C5588 H5561 0.950 . S
C5588 C5574 1.377 . S
C5588 C5587 1.373 . S
C5589 C5573 1.377 . S
C5589 C5587 1.389 . S
C5589 C5590 1.524 . S
C5590 C5589 1.524 . S
C5590 C5591 1.397 . S
C5590 C5595 1.363 . S
C5591 H5562 0.950 . S
C5591 C5590 1.397 . S
C5591 C5592 1.334 . S
C5592 H5563 0.950 . S
C5592 C5591 1.334 . S
C5592 C5593 1.287 . S
C5593 C5592 1.287 . S
C5593 C5594 1.524 . S
C5593 H5596 0.999 . S
C5594 H5564 0.950 . S
C5594 C5593 1.524 . S
C5594 C5595 1.415 . S
C5595 H5565 0.950 . S
C5595 C5590 1.363 . S
C5595 C5594 1.415 . S
H5596 C5593 0.999 . S
H5597 C5578 0.913 . S
H5598 C5616 0.951 . S
H5599 C5618 0.951 . S
H5600 C5620 0.950 . S
H5601 C5621 0.950 . S
H5602 C5623 0.950 . S
H5603 C5626 0.950 . S
H5604 C5627 0.950 . S
H5605 C5629 0.950 . S
H5606 C5630 0.950 . S
H5607 C5631 0.951 . S
H5608 C5633 0.951 . S
H5609 C5635 0.950 . S
H5610 C5636 0.950 . S
H5611 C5638 0.950 . S
H5612 C5641 0.950 . S
H5613 C5642 0.950 . S
H5614 C5644 0.950 . S
H5615 C5645 0.950 . S
C5616 H5598 0.951 . S
C5616 C5617 1.366 . S
C5616 C5618 1.388 . S
C5617 C5616 1.366 . S
C5617 C5621 1.385 . S
C5618 H5599 0.951 . S
C5618 C5616 1.388 . S
C5618 C5619 1.366 . S
C5619 C5618 1.366 . S
C5619 C5620 1.414 . S
C5619 C5622 1.499 . S
C5620 H5600 0.950 . S
C5620 C5619 1.414 . S
C5620 C5621 1.374 . S
C5621 H5601 0.950 . S
C5621 C5617 1.385 . S
C5621 C5620 1.374 . S
C5622 C5619 1.499 . S
C5622 C5623 1.373 . S
C5622 C5624 1.389 . S
C5623 H5602 0.950 . S
C5623 C5622 1.373 . S
C5623 C5639 1.377 . S
C5624 C5622 1.389 . S
C5624 C5625 1.524 . S
C5624 C5638 1.377 . S
C5625 C5624 1.524 . S
C5625 C5626 1.397 . S
C5625 C5630 1.363 . S
C5626 H5603 0.950 . S
C5626 C5625 1.397 . S
C5626 C5627 1.334 . S
C5627 H5604 0.950 . S
C5627 C5626 1.334 . S
C5627 C5628 1.287 . S
C5628 C5627 1.287 . S
C5628 C5629 1.524 . S
C5628 H5647 0.913 . S
C5629 H5605 0.950 . S
C5629 C5628 1.524 . S
C5629 C5630 1.415 . S
C5630 H5606 0.950 . S
C5630 C5625 1.363 . S
C5630 C5629 1.415 . S
C5631 H5607 0.951 . S
C5631 C5632 1.366 . S
C5631 C5633 1.388 . S
C5632 C5631 1.366 . S
C5632 C5636 1.385 . S
C5633 H5608 0.951 . S
C5633 C5631 1.388 . S
C5633 C5634 1.366 . S
C5634 C5633 1.366 . S
C5634 C5635 1.414 . S
C5634 C5637 1.499 . S
C5635 H5609 0.950 . S
C5635 C5634 1.414 . S
C5635 C5636 1.374 . S
C5636 H5610 0.950 . S
C5636 C5632 1.385 . S
C5636 C5635 1.374 . S
C5637 C5634 1.499 . S
C5637 C5638 1.373 . S
C5637 C5639 1.389 . S
C5638 H5611 0.950 . S
C5638 C5624 1.377 . S
C5638 C5637 1.373 . S
C5639 C5623 1.377 . S
C5639 C5637 1.389 . S
C5639 C5640 1.524 . S
C5640 C5639 1.524 . S
C5640 C5641 1.397 . S
C5640 C5645 1.363 . S
C5641 H5612 0.950 . S
C5641 C5640 1.397 . S
C5641 C5642 1.334 . S
C5642 H5613 0.950 . S
C5642 C5641 1.334 . S
C5642 C5643 1.287 . S
C5643 C5642 1.287 . S
C5643 C5644 1.524 . S
C5643 H5646 0.999 . S
C5644 H5614 0.950 . S
C5644 C5643 1.524 . S
C5644 C5645 1.415 . S
C5645 H5615 0.950 . S
C5645 C5640 1.363 . S
C5645 C5644 1.415 . S
H5646 C5643 0.999 . S
H5647 C5628 0.913 . S
H5648 C5666 0.951 . S
H5649 C5668 0.951 . S
H5650 C5670 0.950 . S
H5651 C5671 0.950 . S
H5652 C5673 0.950 . S
H5653 C5676 0.950 . S
H5654 C5677 0.950 . S
H5655 C5679 0.950 . S
H5656 C5680 0.950 . S
H5657 C5681 0.951 . S
H5658 C5683 0.951 . S
H5659 C5685 0.950 . S
H5660 C5686 0.950 . S
H5661 C5688 0.950 . S
H5662 C5691 0.950 . S
H5663 C5692 0.950 . S
H5664 C5694 0.950 . S
H5665 C5695 0.950 . S
C5666 H5648 0.951 . S
C5666 C5667 1.366 . S
C5666 C5668 1.388 . S
C5667 C5666 1.366 . S
C5667 C5671 1.385 . S
C5668 H5649 0.951 . S
C5668 C5666 1.388 . S
C5668 C5669 1.366 . S
C5669 C5668 1.366 . S
C5669 C5670 1.414 . S
C5669 C5672 1.499 . S
C5670 H5650 0.950 . S
C5670 C5669 1.414 . S
C5670 C5671 1.374 . S
C5671 H5651 0.950 . S
C5671 C5667 1.385 . S
C5671 C5670 1.374 . S
C5672 C5669 1.499 . S
C5672 C5673 1.373 . S
C5672 C5674 1.389 . S
C5673 H5652 0.950 . S
C5673 C5672 1.373 . S
C5673 C5689 1.377 . S
C5674 C5672 1.389 . S
C5674 C5675 1.524 . S
C5674 C5688 1.377 . S
C5675 C5674 1.524 . S
C5675 C5676 1.397 . S
C5675 C5680 1.363 . S
C5676 H5653 0.950 . S
C5676 C5675 1.397 . S
C5676 C5677 1.334 . S
C5677 H5654 0.950 . S
C5677 C5676 1.334 . S
C5677 C5678 1.287 . S
C5678 C5677 1.287 . S
C5678 C5679 1.524 . S
C5678 H5697 0.913 . S
C5679 H5655 0.950 . S
C5679 C5678 1.524 . S
C5679 C5680 1.415 . S
C5680 H5656 0.950 . S
C5680 C5675 1.363 . S
C5680 C5679 1.415 . S
C5681 H5657 0.951 . S
C5681 C5682 1.366 . S
C5681 C5683 1.388 . S
C5682 C5681 1.366 . S
C5682 C5686 1.385 . S
C5683 H5658 0.951 . S
C5683 C5681 1.388 . S
C5683 C5684 1.366 . S
C5684 C5683 1.366 . S
C5684 C5685 1.414 . S
C5684 C5687 1.499 . S
C5685 H5659 0.950 . S
C5685 C5684 1.414 . S
C5685 C5686 1.374 . S
C5686 H5660 0.950 . S
C5686 C5682 1.385 . S
C5686 C5685 1.374 . S
C5687 C5684 1.499 . S
C5687 C5688 1.373 . S
C5687 C5689 1.389 . S
C5688 H5661 0.950 . S
C5688 C5674 1.377 . S
C5688 C5687 1.373 . S
C5689 C5673 1.377 . S
C5689 C5687 1.389 . S
C5689 C5690 1.524 . S
C5690 C5689 1.524 . S
C5690 C5691 1.397 . S
C5690 C5695 1.363 . S
C5691 H5662 0.950 . S
C5691 C5690 1.397 . S
C5691 C5692 1.334 . S
C5692 H5663 0.950 . S
C5692 C5691 1.334 . S
C5692 C5693 1.287 . S
C5693 C5692 1.287 . S
C5693 C5694 1.524 . S
C5693 H5696 0.999 . S
C5694 H5664 0.950 . S
C5694 C5693 1.524 . S
C5694 C5695 1.415 . S
C5695 H5665 0.950 . S
C5695 C5690 1.363 . S
C5695 C5694 1.415 . S
H5696 C5693 0.999 . S
H5697 C5678 0.913 . S
H5698 C5716 0.951 . S
H5699 C5718 0.951 . S
H5700 C5720 0.950 . S
H5701 C5721 0.950 . S
H5702 C5723 0.950 . S
H5703 C5726 0.950 . S
H5704 C5727 0.950 . S
H5705 C5729 0.950 . S
H5706 C5730 0.950 . S
H5707 C5731 0.951 . S
H5708 C5733 0.951 . S
H5709 C5735 0.950 . S
H5710 C5736 0.950 . S
H5711 C5738 0.950 . S
H5712 C5741 0.950 . S
H5713 C5742 0.950 . S
H5714 C5744 0.950 . S
H5715 C5745 0.950 . S
C5716 H5698 0.951 . S
C5716 C5717 1.366 . S
C5716 C5718 1.388 . S
C5717 C5716 1.366 . S
C5717 C5721 1.385 . S
C5718 H5699 0.951 . S
C5718 C5716 1.388 . S
C5718 C5719 1.366 . S
C5719 C5718 1.366 . S
C5719 C5720 1.414 . S
C5719 C5722 1.499 . S
C5720 H5700 0.950 . S
C5720 C5719 1.414 . S
C5720 C5721 1.374 . S
C5721 H5701 0.950 . S
C5721 C5717 1.385 . S
C5721 C5720 1.374 . S
C5722 C5719 1.499 . S
C5722 C5723 1.373 . S
C5722 C5724 1.389 . S
C5723 H5702 0.950 . S
C5723 C5722 1.373 . S
C5723 C5739 1.377 . S
C5724 C5722 1.389 . S
C5724 C5725 1.524 . S
C5724 C5738 1.377 . S
C5725 C5724 1.524 . S
C5725 C5726 1.397 . S
C5725 C5730 1.363 . S
C5726 H5703 0.950 . S
C5726 C5725 1.397 . S
C5726 C5727 1.334 . S
C5727 H5704 0.950 . S
C5727 C5726 1.334 . S
C5727 C5728 1.287 . S
C5728 C5727 1.287 . S
C5728 C5729 1.524 . S
C5728 H5747 0.913 . S
C5729 H5705 0.950 . S
C5729 C5728 1.524 . S
C5729 C5730 1.415 . S
C5730 H5706 0.950 . S
C5730 C5725 1.363 . S
C5730 C5729 1.415 . S
C5731 H5707 0.951 . S
C5731 C5732 1.366 . S
C5731 C5733 1.388 . S
C5732 C5731 1.366 . S
C5732 C5736 1.385 . S
C5733 H5708 0.951 . S
C5733 C5731 1.388 . S
C5733 C5734 1.366 . S
C5734 C5733 1.366 . S
C5734 C5735 1.414 . S
C5734 C5737 1.499 . S
C5735 H5709 0.950 . S
C5735 C5734 1.414 . S
C5735 C5736 1.374 . S
C5736 H5710 0.950 . S
C5736 C5732 1.385 . S
C5736 C5735 1.374 . S
C5737 C5734 1.499 . S
C5737 C5738 1.373 . S
C5737 C5739 1.389 . S
C5738 H5711 0.950 . S
C5738 C5724 1.377 . S
C5738 C5737 1.373 . S
C5739 C5723 1.377 . S
C5739 C5737 1.389 . S
C5739 C5740 1.524 . S
C5740 C5739 1.524 . S
C5740 C5741 1.397 . S
C5740 C5745 1.363 . S
C5741 H5712 0.950 . S
C5741 C5740 1.397 . S
C5741 C5742 1.334 . S
C5742 H5713 0.950 . S
C5742 C5741 1.334 . S
C5742 C5743 1.287 . S
C5743 C5742 1.287 . S
C5743 C5744 1.524 . S
C5743 H5746 0.999 . S
C5744 H5714 0.950 . S
C5744 C5743 1.524 . S
C5744 C5745 1.415 . S
C5745 H5715 0.950 . S
C5745 C5740 1.363 . S
C5745 C5744 1.415 . S
H5746 C5743 0.999 . S
H5747 C5728 0.913 . S
H5748 C5766 0.951 . S
H5749 C5768 0.951 . S
H5750 C5770 0.950 . S
H5751 C5771 0.950 . S
H5752 C5773 0.950 . S
H5753 C5776 0.950 . S
H5754 C5777 0.950 . S
H5755 C5779 0.950 . S
H5756 C5780 0.950 . S
H5757 C5781 0.951 . S
H5758 C5783 0.951 . S
H5759 C5785 0.950 . S
H5760 C5786 0.950 . S
H5761 C5788 0.950 . S
H5762 C5791 0.950 . S
H5763 C5792 0.950 . S
H5764 C5794 0.950 . S
H5765 C5795 0.950 . S
C5766 H5748 0.951 . S
C5766 C5767 1.366 . S
C5766 C5768 1.388 . S
C5767 C5766 1.366 . S
C5767 C5771 1.385 . S
C5768 H5749 0.951 . S
C5768 C5766 1.388 . S
C5768 C5769 1.366 . S
C5769 C5768 1.366 . S
C5769 C5770 1.414 . S
C5769 C5772 1.499 . S
C5770 H5750 0.950 . S
C5770 C5769 1.414 . S
C5770 C5771 1.374 . S
C5771 H5751 0.950 . S
C5771 C5767 1.385 . S
C5771 C5770 1.374 . S
C5772 C5769 1.499 . S
C5772 C5773 1.373 . S
C5772 C5774 1.389 . S
C5773 H5752 0.950 . S
C5773 C5772 1.373 . S
C5773 C5789 1.377 . S
C5774 C5772 1.389 . S
C5774 C5775 1.524 . S
C5774 C5788 1.377 . S
C5775 C5774 1.524 . S
C5775 C5776 1.397 . S
C5775 C5780 1.363 . S
C5776 H5753 0.950 . S
C5776 C5775 1.397 . S
C5776 C5777 1.334 . S
C5777 H5754 0.950 . S
C5777 C5776 1.334 . S
C5777 C5778 1.287 . S
C5778 C5777 1.287 . S
C5778 C5779 1.524 . S
C5778 H5797 0.913 . S
C5779 H5755 0.950 . S
C5779 C5778 1.524 . S
C5779 C5780 1.415 . S
C5780 H5756 0.950 . S
C5780 C5775 1.363 . S
C5780 C5779 1.415 . S
C5781 H5757 0.951 . S
C5781 C5782 1.366 . S
C5781 C5783 1.388 . S
C5782 C5781 1.366 . S
C5782 C5786 1.385 . S
C5783 H5758 0.951 . S
C5783 C5781 1.388 . S
C5783 C5784 1.366 . S
C5784 C5783 1.366 . S
C5784 C5785 1.414 . S
C5784 C5787 1.499 . S
C5785 H5759 0.950 . S
C5785 C5784 1.414 . S
C5785 C5786 1.374 . S
C5786 H5760 0.950 . S
C5786 C5782 1.385 . S
C5786 C5785 1.374 . S
C5787 C5784 1.499 . S
C5787 C5788 1.373 . S
C5787 C5789 1.389 . S
C5788 H5761 0.950 . S
C5788 C5774 1.377 . S
C5788 C5787 1.373 . S
C5789 C5773 1.377 . S
C5789 C5787 1.389 . S
C5789 C5790 1.524 . S
C5790 C5789 1.524 . S
C5790 C5791 1.397 . S
C5790 C5795 1.363 . S
C5791 H5762 0.950 . S
C5791 C5790 1.397 . S
C5791 C5792 1.334 . S
C5792 H5763 0.950 . S
C5792 C5791 1.334 . S
C5792 C5793 1.287 . S
C5793 C5792 1.287 . S
C5793 C5794 1.524 . S
C5793 H5796 0.999 . S
C5794 H5764 0.950 . S
C5794 C5793 1.524 . S
C5794 C5795 1.415 . S
C5795 H5765 0.950 . S
C5795 C5790 1.363 . S
C5795 C5794 1.415 . S
H5796 C5793 0.999 . S
H5797 C5778 0.913 . S
H5798 C5816 0.951 . S
H5799 C5818 0.951 . S
H5800 C5820 0.950 . S
H5801 C5821 0.950 . S
H5802 C5823 0.950 . S
H5803 C5826 0.950 . S
H5804 C5827 0.950 . S
H5805 C5829 0.950 . S
H5806 C5830 0.950 . S
H5807 C5831 0.951 . S
H5808 C5833 0.951 . S
H5809 C5835 0.950 . S
H5810 C5836 0.950 . S
H5811 C5838 0.950 . S
H5812 C5841 0.950 . S
H5813 C5842 0.950 . S
H5814 C5844 0.950 . S
H5815 C5845 0.950 . S
C5816 H5798 0.951 . S
C5816 C5817 1.366 . S
C5816 C5818 1.388 . S
C5817 C5816 1.366 . S
C5817 C5821 1.385 . S
C5818 H5799 0.951 . S
C5818 C5816 1.388 . S
C5818 C5819 1.366 . S
C5819 C5818 1.366 . S
C5819 C5820 1.414 . S
C5819 C5822 1.499 . S
C5820 H5800 0.950 . S
C5820 C5819 1.414 . S
C5820 C5821 1.374 . S
C5821 H5801 0.950 . S
C5821 C5817 1.385 . S
C5821 C5820 1.374 . S
C5822 C5819 1.499 . S
C5822 C5823 1.373 . S
C5822 C5824 1.389 . S
C5823 H5802 0.950 . S
C5823 C5822 1.373 . S
C5823 C5839 1.377 . S
C5824 C5822 1.389 . S
C5824 C5825 1.524 . S
C5824 C5838 1.377 . S
C5825 C5824 1.524 . S
C5825 C5826 1.397 . S
C5825 C5830 1.363 . S
C5826 H5803 0.950 . S
C5826 C5825 1.397 . S
C5826 C5827 1.334 . S
C5827 H5804 0.950 . S
C5827 C5826 1.334 . S
C5827 C5828 1.287 . S
C5828 C5827 1.287 . S
C5828 C5829 1.524 . S
C5828 H5847 0.913 . S
C5829 H5805 0.950 . S
C5829 C5828 1.524 . S
C5829 C5830 1.415 . S
C5830 H5806 0.950 . S
C5830 C5825 1.363 . S
C5830 C5829 1.415 . S
C5831 H5807 0.951 . S
C5831 C5832 1.366 . S
C5831 C5833 1.388 . S
C5832 C5831 1.366 . S
C5832 C5836 1.385 . S
C5833 H5808 0.951 . S
C5833 C5831 1.388 . S
C5833 C5834 1.366 . S
C5834 C5833 1.366 . S
C5834 C5835 1.414 . S
C5834 C5837 1.499 . S
C5835 H5809 0.950 . S
C5835 C5834 1.414 . S
C5835 C5836 1.374 . S
C5836 H5810 0.950 . S
C5836 C5832 1.385 . S
C5836 C5835 1.374 . S
C5837 C5834 1.499 . S
C5837 C5838 1.373 . S
C5837 C5839 1.389 . S
C5838 H5811 0.950 . S
C5838 C5824 1.377 . S
C5838 C5837 1.373 . S
C5839 C5823 1.377 . S
C5839 C5837 1.389 . S
C5839 C5840 1.524 . S
C5840 C5839 1.524 . S
C5840 C5841 1.397 . S
C5840 C5845 1.363 . S
C5841 H5812 0.950 . S
C5841 C5840 1.397 . S
C5841 C5842 1.334 . S
C5842 H5813 0.950 . S
C5842 C5841 1.334 . S
C5842 C5843 1.287 . S
C5843 C5842 1.287 . S
C5843 C5844 1.524 . S
C5843 H5846 0.999 . S
C5844 H5814 0.950 . S
C5844 C5843 1.524 . S
C5844 C5845 1.415 . S
C5845 H5815 0.950 . S
C5845 C5840 1.363 . S
C5845 C5844 1.415 . S
H5846 C5843 0.999 . S
H5847 C5828 0.913 . S
H5848 C5866 0.951 . S
H5849 C5868 0.951 . S
H5850 C5870 0.950 . S
H5851 C5871 0.950 . S
H5852 C5873 0.950 . S
H5853 C5876 0.950 . S
H5854 C5877 0.950 . S
H5855 C5879 0.950 . S
H5856 C5880 0.950 . S
H5857 C5881 0.951 . S
H5858 C5883 0.951 . S
H5859 C5885 0.950 . S
H5860 C5886 0.950 . S
H5861 C5888 0.950 . S
H5862 C5891 0.950 . S
H5863 C5892 0.950 . S
H5864 C5894 0.950 . S
H5865 C5895 0.950 . S
C5866 H5848 0.951 . S
C5866 C5867 1.366 . S
C5866 C5868 1.388 . S
C5867 C5866 1.366 . S
C5867 C5871 1.385 . S
C5868 H5849 0.951 . S
C5868 C5866 1.388 . S
C5868 C5869 1.366 . S
C5869 C5868 1.366 . S
C5869 C5870 1.414 . S
C5869 C5872 1.499 . S
C5870 H5850 0.950 . S
C5870 C5869 1.414 . S
C5870 C5871 1.374 . S
C5871 H5851 0.950 . S
C5871 C5867 1.385 . S
C5871 C5870 1.374 . S
C5872 C5869 1.499 . S
C5872 C5873 1.373 . S
C5872 C5874 1.389 . S
C5873 H5852 0.950 . S
C5873 C5872 1.373 . S
C5873 C5889 1.377 . S
C5874 C5872 1.389 . S
C5874 C5875 1.524 . S
C5874 C5888 1.377 . S
C5875 C5874 1.524 . S
C5875 C5876 1.397 . S
C5875 C5880 1.363 . S
C5876 H5853 0.950 . S
C5876 C5875 1.397 . S
C5876 C5877 1.334 . S
C5877 H5854 0.950 . S
C5877 C5876 1.334 . S
C5877 C5878 1.287 . S
C5878 C5877 1.287 . S
C5878 C5879 1.524 . S
C5878 H5897 0.913 . S
C5879 H5855 0.950 . S
C5879 C5878 1.524 . S
C5879 C5880 1.415 . S
C5880 H5856 0.950 . S
C5880 C5875 1.363 . S
C5880 C5879 1.415 . S
C5881 H5857 0.951 . S
C5881 C5882 1.366 . S
C5881 C5883 1.388 . S
C5882 C5881 1.366 . S
C5882 C5886 1.385 . S
C5883 H5858 0.951 . S
C5883 C5881 1.388 . S
C5883 C5884 1.366 . S
C5884 C5883 1.366 . S
C5884 C5885 1.414 . S
C5884 C5887 1.499 . S
C5885 H5859 0.950 . S
C5885 C5884 1.414 . S
C5885 C5886 1.374 . S
C5886 H5860 0.950 . S
C5886 C5882 1.385 . S
C5886 C5885 1.374 . S
C5887 C5884 1.499 . S
C5887 C5888 1.373 . S
C5887 C5889 1.389 . S
C5888 H5861 0.950 . S
C5888 C5874 1.377 . S
C5888 C5887 1.373 . S
C5889 C5873 1.377 . S
C5889 C5887 1.389 . S
C5889 C5890 1.524 . S
C5890 C5889 1.524 . S
C5890 C5891 1.397 . S
C5890 C5895 1.363 . S
C5891 H5862 0.950 . S
C5891 C5890 1.397 . S
C5891 C5892 1.334 . S
C5892 H5863 0.950 . S
C5892 C5891 1.334 . S
C5892 C5893 1.287 . S
C5893 C5892 1.287 . S
C5893 C5894 1.524 . S
C5893 H5896 0.999 . S
C5894 H5864 0.950 . S
C5894 C5893 1.524 . S
C5894 C5895 1.415 . S
C5895 H5865 0.950 . S
C5895 C5890 1.363 . S
C5895 C5894 1.415 . S
H5896 C5893 0.999 . S
H5897 C5878 0.913 . S
H5898 C5916 0.951 . S
H5899 C5918 0.951 . S
H5900 C5920 0.950 . S
H5901 C5921 0.950 . S
H5902 C5923 0.950 . S
H5903 C5926 0.950 . S
H5904 C5927 0.950 . S
H5905 C5929 0.950 . S
H5906 C5930 0.950 . S
H5907 C5931 0.951 . S
H5908 C5933 0.951 . S
H5909 C5935 0.950 . S
H5910 C5936 0.950 . S
H5911 C5938 0.950 . S
H5912 C5941 0.950 . S
H5913 C5942 0.950 . S
H5914 C5944 0.950 . S
H5915 C5945 0.950 . S
C5916 H5898 0.951 . S
C5916 C5917 1.366 . S
C5916 C5918 1.388 . S
C5917 C5916 1.366 . S
C5917 C5921 1.385 . S
C5918 H5899 0.951 . S
C5918 C5916 1.388 . S
C5918 C5919 1.366 . S
C5919 C5918 1.366 . S
C5919 C5920 1.414 . S
C5919 C5922 1.499 . S
C5920 H5900 0.950 . S
C5920 C5919 1.414 . S
C5920 C5921 1.374 . S
C5921 H5901 0.950 . S
C5921 C5917 1.385 . S
C5921 C5920 1.374 . S
C5922 C5919 1.499 . S
C5922 C5923 1.373 . S
C5922 C5924 1.389 . S
C5923 H5902 0.950 . S
C5923 C5922 1.373 . S
C5923 C5939 1.377 . S
C5924 C5922 1.389 . S
C5924 C5925 1.524 . S
C5924 C5938 1.377 . S
C5925 C5924 1.524 . S
C5925 C5926 1.397 . S
C5925 C5930 1.363 . S
C5926 H5903 0.950 . S
C5926 C5925 1.397 . S
C5926 C5927 1.334 . S
C5927 H5904 0.950 . S
C5927 C5926 1.334 . S
C5927 C5928 1.287 . S
C5928 C5927 1.287 . S
C5928 C5929 1.524 . S
C5928 H5947 0.913 . S
C5929 H5905 0.950 . S
C5929 C5928 1.524 . S
C5929 C5930 1.415 . S
C5930 H5906 0.950 . S
C5930 C5925 1.363 . S
C5930 C5929 1.415 . S
C5931 H5907 0.951 . S
C5931 C5932 1.366 . S
C5931 C5933 1.388 . S
C5932 C5931 1.366 . S
C5932 C5936 1.385 . S
C5933 H5908 0.951 . S
C5933 C5931 1.388 . S
C5933 C5934 1.366 . S
C5934 C5933 1.366 . S
C5934 C5935 1.414 . S
C5934 C5937 1.499 . S
C5935 H5909 0.950 . S
C5935 C5934 1.414 . S
C5935 C5936 1.374 . S
C5936 H5910 0.950 . S
C5936 C5932 1.385 . S
C5936 C5935 1.374 . S
C5937 C5934 1.499 . S
C5937 C5938 1.373 . S
C5937 C5939 1.389 . S
C5938 H5911 0.950 . S
C5938 C5924 1.377 . S
C5938 C5937 1.373 . S
C5939 C5923 1.377 . S
C5939 C5937 1.389 . S
C5939 C5940 1.524 . S
C5940 C5939 1.524 . S
C5940 C5941 1.397 . S
C5940 C5945 1.363 . S
C5941 H5912 0.950 . S
C5941 C5940 1.397 . S
C5941 C5942 1.334 . S
C5942 H5913 0.950 . S
C5942 C5941 1.334 . S
C5942 C5943 1.287 . S
C5943 C5942 1.287 . S
C5943 C5944 1.524 . S
C5943 H5946 0.999 . S
C5944 H5914 0.950 . S
C5944 C5943 1.524 . S
C5944 C5945 1.415 . S
C5945 H5915 0.950 . S
C5945 C5940 1.363 . S
C5945 C5944 1.415 . S
H5946 C5943 0.999 . S
H5947 C5928 0.913 . S
H5948 C5966 0.951 . S
H5949 C5968 0.951 . S
H5950 C5970 0.950 . S
H5951 C5971 0.950 . S
H5952 C5973 0.950 . S
H5953 C5976 0.950 . S
H5954 C5977 0.950 . S
H5955 C5979 0.950 . S
H5956 C5980 0.950 . S
H5957 C5981 0.951 . S
H5958 C5983 0.951 . S
H5959 C5985 0.950 . S
H5960 C5986 0.950 . S
H5961 C5988 0.950 . S
H5962 C5991 0.950 . S
H5963 C5992 0.950 . S
H5964 C5994 0.950 . S
H5965 C5995 0.950 . S
C5966 H5948 0.951 . S
C5966 C5967 1.366 . S
C5966 C5968 1.388 . S
C5967 C5966 1.366 . S
C5967 C5971 1.385 . S
C5968 H5949 0.951 . S
C5968 C5966 1.388 . S
C5968 C5969 1.366 . S
C5969 C5968 1.366 . S
C5969 C5970 1.414 . S
C5969 C5972 1.499 . S
C5970 H5950 0.950 . S
C5970 C5969 1.414 . S
C5970 C5971 1.374 . S
C5971 H5951 0.950 . S
C5971 C5967 1.385 . S
C5971 C5970 1.374 . S
C5972 C5969 1.499 . S
C5972 C5973 1.373 . S
C5972 C5974 1.389 . S
C5973 H5952 0.950 . S
C5973 C5972 1.373 . S
C5973 C5989 1.377 . S
C5974 C5972 1.389 . S
C5974 C5975 1.524 . S
C5974 C5988 1.377 . S
C5975 C5974 1.524 . S
C5975 C5976 1.397 . S
C5975 C5980 1.363 . S
C5976 H5953 0.950 . S
C5976 C5975 1.397 . S
C5976 C5977 1.334 . S
C5977 H5954 0.950 . S
C5977 C5976 1.334 . S
C5977 C5978 1.287 . S
C5978 C5977 1.287 . S
C5978 C5979 1.524 . S
C5978 H5997 0.913 . S
C5979 H5955 0.950 . S
C5979 C5978 1.524 . S
C5979 C5980 1.415 . S
C5980 H5956 0.950 . S
C5980 C5975 1.363 . S
C5980 C5979 1.415 . S
C5981 H5957 0.951 . S
C5981 C5982 1.366 . S
C5981 C5983 1.388 . S
C5982 C5981 1.366 . S
C5982 C5986 1.385 . S
C5983 H5958 0.951 . S
C5983 C5981 1.388 . S
C5983 C5984 1.366 . S
C5984 C5983 1.366 . S
C5984 C5985 1.414 . S
C5984 C5987 1.499 . S
C5985 H5959 0.950 . S
C5985 C5984 1.414 . S
C5985 C5986 1.374 . S
C5986 H5960 0.950 . S
C5986 C5982 1.385 . S
C5986 C5985 1.374 . S
C5987 C5984 1.499 . S
C5987 C5988 1.373 . S
C5987 C5989 1.389 . S
C5988 H5961 0.950 . S
C5988 C5974 1.377 . S
C5988 C5987 1.373 . S
C5989 C5973 1.377 . S
C5989 C5987 1.389 . S
C5989 C5990 1.524 . S
C5990 C5989 1.524 . S
C5990 C5991 1.397 . S
C5990 C5995 1.363 . S
C5991 H5962 0.950 . S
C5991 C5990 1.397 . S
C5991 C5992 1.334 . S
C5992 H5963 0.950 . S
C5992 C5991 1.334 . S
C5992 C5993 1.287 . S
C5993 C5992 1.287 . S
C5993 C5994 1.524 . S
C5993 H5996 0.999 . S
C5994 H5964 0.950 . S
C5994 C5993 1.524 . S
C5994 C5995 1.415 . S
C5995 H5965 0.950 . S
C5995 C5990 1.363 . S
C5995 C5994 1.415 . S
H5996 C5993 0.999 . S
H5997 C5978 0.913 . S
H5998 C6016 0.951 . S
H5999 C6018 0.951 . S
H6000 C6020 0.950 . S
H6001 C6021 0.950 . S
H6002 C6023 0.950 . S
H6003 C6026 0.950 . S
H6004 C6027 0.950 . S
H6005 C6029 0.950 . S
H6006 C6030 0.950 . S
H6007 C6031 0.951 . S
H6008 C6033 0.951 . S
H6009 C6035 0.950 . S
H6010 C6036 0.950 . S
H6011 C6038 0.950 . S
H6012 C6041 0.950 . S
H6013 C6042 0.950 . S
H6014 C6044 0.950 . S
H6015 C6045 0.950 . S
C6016 H5998 0.951 . S
C6016 C6017 1.366 . S
C6016 C6018 1.388 . S
C6017 C6016 1.366 . S
C6017 C6021 1.385 . S
C6018 H5999 0.951 . S
C6018 C6016 1.388 . S
C6018 C6019 1.366 . S
C6019 C6018 1.366 . S
C6019 C6020 1.414 . S
C6019 C6022 1.499 . S
C6020 H6000 0.950 . S
C6020 C6019 1.414 . S
C6020 C6021 1.374 . S
C6021 H6001 0.950 . S
C6021 C6017 1.385 . S
C6021 C6020 1.374 . S
C6022 C6019 1.499 . S
C6022 C6023 1.373 . S
C6022 C6024 1.389 . S
C6023 H6002 0.950 . S
C6023 C6022 1.373 . S
C6023 C6039 1.377 . S
C6024 C6022 1.389 . S
C6024 C6025 1.524 . S
C6024 C6038 1.377 . S
C6025 C6024 1.524 . S
C6025 C6026 1.397 . S
C6025 C6030 1.363 . S
C6026 H6003 0.950 . S
C6026 C6025 1.397 . S
C6026 C6027 1.334 . S
C6027 H6004 0.950 . S
C6027 C6026 1.334 . S
C6027 C6028 1.287 . S
C6028 C6027 1.287 . S
C6028 C6029 1.524 . S
C6028 H6047 0.913 . S
C6029 H6005 0.950 . S
C6029 C6028 1.524 . S
C6029 C6030 1.415 . S
C6030 H6006 0.950 . S
C6030 C6025 1.363 . S
C6030 C6029 1.415 . S
C6031 H6007 0.951 . S
C6031 C6032 1.366 . S
C6031 C6033 1.388 . S
C6032 C6031 1.366 . S
C6032 C6036 1.385 . S
C6033 H6008 0.951 . S
C6033 C6031 1.388 . S
C6033 C6034 1.366 . S
C6034 C6033 1.366 . S
C6034 C6035 1.414 . S
C6034 C6037 1.499 . S
C6035 H6009 0.950 . S
C6035 C6034 1.414 . S
C6035 C6036 1.374 . S
C6036 H6010 0.950 . S
C6036 C6032 1.385 . S
C6036 C6035 1.374 . S
C6037 C6034 1.499 . S
C6037 C6038 1.373 . S
C6037 C6039 1.389 . S
C6038 H6011 0.950 . S
C6038 C6024 1.377 . S
C6038 C6037 1.373 . S
C6039 C6023 1.377 . S
C6039 C6037 1.389 . S
C6039 C6040 1.524 . S
C6040 C6039 1.524 . S
C6040 C6041 1.397 . S
C6040 C6045 1.363 . S
C6041 H6012 0.950 . S
C6041 C6040 1.397 . S
C6041 C6042 1.334 . S
C6042 H6013 0.950 . S
C6042 C6041 1.334 . S
C6042 C6043 1.287 . S
C6043 C6042 1.287 . S
C6043 C6044 1.524 . S
C6043 H6046 0.999 . S
C6044 H6014 0.950 . S
C6044 C6043 1.524 . S
C6044 C6045 1.415 . S
C6045 H6015 0.950 . S
C6045 C6040 1.363 . S
C6045 C6044 1.415 . S
H6046 C6043 0.999 . S
H6047 C6028 0.913 . S
H6048 C6066 0.951 . S
H6049 C6068 0.951 . S
H6050 C6070 0.950 . S
H6051 C6071 0.950 . S
H6052 C6073 0.950 . S
H6053 C6076 0.950 . S
H6054 C6077 0.950 . S
H6055 C6079 0.950 . S
H6056 C6080 0.950 . S
H6057 C6081 0.951 . S
H6058 C6083 0.951 . S
H6059 C6085 0.950 . S
H6060 C6086 0.950 . S
H6061 C6088 0.950 . S
H6062 C6091 0.950 . S
H6063 C6092 0.950 . S
H6064 C6094 0.950 . S
H6065 C6095 0.950 . S
C6066 H6048 0.951 . S
C6066 C6067 1.366 . S
C6066 C6068 1.388 . S
C6067 C6066 1.366 . S
C6067 C6071 1.385 . S
C6068 H6049 0.951 . S
C6068 C6066 1.388 . S
C6068 C6069 1.366 . S
C6069 C6068 1.366 . S
C6069 C6070 1.414 . S
C6069 C6072 1.499 . S
C6070 H6050 0.950 . S
C6070 C6069 1.414 . S
C6070 C6071 1.374 . S
C6071 H6051 0.950 . S
C6071 C6067 1.385 . S
C6071 C6070 1.374 . S
C6072 C6069 1.499 . S
C6072 C6073 1.373 . S
C6072 C6074 1.389 . S
C6073 H6052 0.950 . S
C6073 C6072 1.373 . S
C6073 C6089 1.377 . S
C6074 C6072 1.389 . S
C6074 C6075 1.524 . S
C6074 C6088 1.377 . S
C6075 C6074 1.524 . S
C6075 C6076 1.397 . S
C6075 C6080 1.363 . S
C6076 H6053 0.950 . S
C6076 C6075 1.397 . S
C6076 C6077 1.334 . S
C6077 H6054 0.950 . S
C6077 C6076 1.334 . S
C6077 C6078 1.287 . S
C6078 C6077 1.287 . S
C6078 C6079 1.524 . S
C6078 H6097 0.913 . S
C6079 H6055 0.950 . S
C6079 C6078 1.524 . S
C6079 C6080 1.415 . S
C6080 H6056 0.950 . S
C6080 C6075 1.363 . S
C6080 C6079 1.415 . S
C6081 H6057 0.951 . S
C6081 C6082 1.366 . S
C6081 C6083 1.388 . S
C6082 C6081 1.366 . S
C6082 C6086 1.385 . S
C6083 H6058 0.951 . S
C6083 C6081 1.388 . S
C6083 C6084 1.366 . S
C6084 C6083 1.366 . S
C6084 C6085 1.414 . S
C6084 C6087 1.499 . S
C6085 H6059 0.950 . S
C6085 C6084 1.414 . S
C6085 C6086 1.374 . S
C6086 H6060 0.950 . S
C6086 C6082 1.385 . S
C6086 C6085 1.374 . S
C6087 C6084 1.499 . S
C6087 C6088 1.373 . S
C6087 C6089 1.389 . S
C6088 H6061 0.950 . S
C6088 C6074 1.377 . S
C6088 C6087 1.373 . S
C6089 C6073 1.377 . S
C6089 C6087 1.389 . S
C6089 C6090 1.524 . S
C6090 C6089 1.524 . S
C6090 C6091 1.397 . S
C6090 C6095 1.363 . S
C6091 H6062 0.950 . S
C6091 C6090 1.397 . S
C6091 C6092 1.334 . S
C6092 H6063 0.950 . S
C6092 C6091 1.334 . S
C6092 C6093 1.287 . S
C6093 C6092 1.287 . S
C6093 C6094 1.524 . S
C6093 H6096 0.999 . S
C6094 H6064 0.950 . S
C6094 C6093 1.524 . S
C6094 C6095 1.415 . S
C6095 H6065 0.950 . S
C6095 C6090 1.363 . S
C6095 C6094 1.415 . S
H6096 C6093 0.999 . S
H6097 C6078 0.913 . S
H6098 C6116 0.951 . S
H6099 C6118 0.951 . S
H6100 C6120 0.950 . S
H6101 C6121 0.950 . S
H6102 C6123 0.950 . S
H6103 C6126 0.950 . S
H6104 C6127 0.950 . S
H6105 C6129 0.950 . S
H6106 C6130 0.950 . S
H6107 C6131 0.951 . S
H6108 C6133 0.951 . S
H6109 C6135 0.950 . S
H6110 C6136 0.950 . S
H6111 C6138 0.950 . S
H6112 C6141 0.950 . S
H6113 C6142 0.950 . S
H6114 C6144 0.950 . S
H6115 C6145 0.950 . S
C6116 H6098 0.951 . S
C6116 C6117 1.366 . S
C6116 C6118 1.388 . S
C6117 C6116 1.366 . S
C6117 C6121 1.385 . S
C6118 H6099 0.951 . S
C6118 C6116 1.388 . S
C6118 C6119 1.366 . S
C6119 C6118 1.366 . S
C6119 C6120 1.414 . S
C6119 C6122 1.499 . S
C6120 H6100 0.950 . S
C6120 C6119 1.414 . S
C6120 C6121 1.374 . S
C6121 H6101 0.950 . S
C6121 C6117 1.385 . S
C6121 C6120 1.374 . S
C6122 C6119 1.499 . S
C6122 C6123 1.373 . S
C6122 C6124 1.389 . S
C6123 H6102 0.950 . S
C6123 C6122 1.373 . S
C6123 C6139 1.377 . S
C6124 C6122 1.389 . S
C6124 C6125 1.524 . S
C6124 C6138 1.377 . S
C6125 C6124 1.524 . S
C6125 C6126 1.397 . S
C6125 C6130 1.363 . S
C6126 H6103 0.950 . S
C6126 C6125 1.397 . S
C6126 C6127 1.334 . S
C6127 H6104 0.950 . S
C6127 C6126 1.334 . S
C6127 C6128 1.287 . S
C6128 C6127 1.287 . S
C6128 C6129 1.524 . S
C6128 H6147 0.913 . S
C6129 H6105 0.950 . S
C6129 C6128 1.524 . S
C6129 C6130 1.415 . S
C6130 H6106 0.950 . S
C6130 C6125 1.363 . S
C6130 C6129 1.415 . S
C6131 H6107 0.951 . S
C6131 C6132 1.366 . S
C6131 C6133 1.388 . S
C6132 C6131 1.366 . S
C6132 C6136 1.385 . S
C6133 H6108 0.951 . S
C6133 C6131 1.388 . S
C6133 C6134 1.366 . S
C6134 C6133 1.366 . S
C6134 C6135 1.414 . S
C6134 C6137 1.499 . S
C6135 H6109 0.950 . S
C6135 C6134 1.414 . S
C6135 C6136 1.374 . S
C6136 H6110 0.950 . S
C6136 C6132 1.385 . S
C6136 C6135 1.374 . S
C6137 C6134 1.499 . S
C6137 C6138 1.373 . S
C6137 C6139 1.389 . S
C6138 H6111 0.950 . S
C6138 C6124 1.377 . S
C6138 C6137 1.373 . S
C6139 C6123 1.377 . S
C6139 C6137 1.389 . S
C6139 C6140 1.524 . S
C6140 C6139 1.524 . S
C6140 C6141 1.397 . S
C6140 C6145 1.363 . S
C6141 H6112 0.950 . S
C6141 C6140 1.397 . S
C6141 C6142 1.334 . S
C6142 H6113 0.950 . S
C6142 C6141 1.334 . S
C6142 C6143 1.287 . S
C6143 C6142 1.287 . S
C6143 C6144 1.524 . S
C6143 H6146 0.999 . S
C6144 H6114 0.950 . S
C6144 C6143 1.524 . S
C6144 C6145 1.415 . S
C6145 H6115 0.950 . S
C6145 C6140 1.363 . S
C6145 C6144 1.415 . S
H6146 C6143 0.999 . S
H6147 C6128 0.913 . S
H6148 C6166 0.951 . S
H6149 C6168 0.951 . S
H6150 C6170 0.950 . S
H6151 C6171 0.950 . S
H6152 C6173 0.950 . S
H6153 C6176 0.950 . S
H6154 C6177 0.950 . S
H6155 C6179 0.950 . S
H6156 C6180 0.950 . S
H6157 C6181 0.951 . S
H6158 C6183 0.951 . S
H6159 C6185 0.950 . S
H6160 C6186 0.950 . S
H6161 C6188 0.950 . S
H6162 C6191 0.950 . S
H6163 C6192 0.950 . S
H6164 C6194 0.950 . S
H6165 C6195 0.950 . S
C6166 H6148 0.951 . S
C6166 C6167 1.366 . S
C6166 C6168 1.388 . S
C6167 C6166 1.366 . S
C6167 C6171 1.385 . S
C6168 H6149 0.951 . S
C6168 C6166 1.388 . S
C6168 C6169 1.366 . S
C6169 C6168 1.366 . S
C6169 C6170 1.414 . S
C6169 C6172 1.499 . S
C6170 H6150 0.950 . S
C6170 C6169 1.414 . S
C6170 C6171 1.374 . S
C6171 H6151 0.950 . S
C6171 C6167 1.385 . S
C6171 C6170 1.374 . S
C6172 C6169 1.499 . S
C6172 C6173 1.373 . S
C6172 C6174 1.389 . S
C6173 H6152 0.950 . S
C6173 C6172 1.373 . S
C6173 C6189 1.377 . S
C6174 C6172 1.389 . S
C6174 C6175 1.524 . S
C6174 C6188 1.377 . S
C6175 C6174 1.524 . S
C6175 C6176 1.397 . S
C6175 C6180 1.363 . S
C6176 H6153 0.950 . S
C6176 C6175 1.397 . S
C6176 C6177 1.334 . S
C6177 H6154 0.950 . S
C6177 C6176 1.334 . S
C6177 C6178 1.287 . S
C6178 C6177 1.287 . S
C6178 C6179 1.524 . S
C6178 H6197 0.913 . S
C6179 H6155 0.950 . S
C6179 C6178 1.524 . S
C6179 C6180 1.415 . S
C6180 H6156 0.950 . S
C6180 C6175 1.363 . S
C6180 C6179 1.415 . S
C6181 H6157 0.951 . S
C6181 C6182 1.366 . S
C6181 C6183 1.388 . S
C6182 C6181 1.366 . S
C6182 C6186 1.385 . S
C6183 H6158 0.951 . S
C6183 C6181 1.388 . S
C6183 C6184 1.366 . S
C6184 C6183 1.366 . S
C6184 C6185 1.414 . S
C6184 C6187 1.499 . S
C6185 H6159 0.950 . S
C6185 C6184 1.414 . S
C6185 C6186 1.374 . S
C6186 H6160 0.950 . S
C6186 C6182 1.385 . S
C6186 C6185 1.374 . S
C6187 C6184 1.499 . S
C6187 C6188 1.373 . S
C6187 C6189 1.389 . S
C6188 H6161 0.950 . S
C6188 C6174 1.377 . S
C6188 C6187 1.373 . S
C6189 C6173 1.377 . S
C6189 C6187 1.389 . S
C6189 C6190 1.524 . S
C6190 C6189 1.524 . S
C6190 C6191 1.397 . S
C6190 C6195 1.363 . S
C6191 H6162 0.950 . S
C6191 C6190 1.397 . S
C6191 C6192 1.334 . S
C6192 H6163 0.950 . S
C6192 C6191 1.334 . S
C6192 C6193 1.287 . S
C6193 C6192 1.287 . S
C6193 C6194 1.524 . S
C6193 H6196 0.999 . S
C6194 H6164 0.950 . S
C6194 C6193 1.524 . S
C6194 C6195 1.415 . S
C6195 H6165 0.950 . S
C6195 C6190 1.363 . S
C6195 C6194 1.415 . S
H6196 C6193 0.999 . S
H6197 C6178 0.913 . S
H6198 C6216 0.951 . S
H6199 C6218 0.951 . S
H6200 C6220 0.950 . S
H6201 C6221 0.950 . S
H6202 C6223 0.950 . S
H6203 C6226 0.950 . S
H6204 C6227 0.950 . S
H6205 C6229 0.950 . S
H6206 C6230 0.950 . S
H6207 C6231 0.951 . S
H6208 C6233 0.951 . S
H6209 C6235 0.950 . S
H6210 C6236 0.950 . S
H6211 C6238 0.950 . S
H6212 C6241 0.950 . S
H6213 C6242 0.950 . S
H6214 C6244 0.950 . S
H6215 C6245 0.950 . S
C6216 H6198 0.951 . S
C6216 C6217 1.366 . S
C6216 C6218 1.388 . S
C6217 C6216 1.366 . S
C6217 C6221 1.385 . S
C6218 H6199 0.951 . S
C6218 C6216 1.388 . S
C6218 C6219 1.366 . S
C6219 C6218 1.366 . S
C6219 C6220 1.414 . S
C6219 C6222 1.499 . S
C6220 H6200 0.950 . S
C6220 C6219 1.414 . S
C6220 C6221 1.374 . S
C6221 H6201 0.950 . S
C6221 C6217 1.385 . S
C6221 C6220 1.374 . S
C6222 C6219 1.499 . S
C6222 C6223 1.373 . S
C6222 C6224 1.389 . S
C6223 H6202 0.950 . S
C6223 C6222 1.373 . S
C6223 C6239 1.377 . S
C6224 C6222 1.389 . S
C6224 C6225 1.524 . S
C6224 C6238 1.377 . S
C6225 C6224 1.524 . S
C6225 C6226 1.397 . S
C6225 C6230 1.363 . S
C6226 H6203 0.950 . S
C6226 C6225 1.397 . S
C6226 C6227 1.334 . S
C6227 H6204 0.950 . S
C6227 C6226 1.334 . S
C6227 C6228 1.287 . S
C6228 C6227 1.287 . S
C6228 C6229 1.524 . S
C6228 H6247 0.913 . S
C6229 H6205 0.950 . S
C6229 C6228 1.524 . S
C6229 C6230 1.415 . S
C6230 H6206 0.950 . S
C6230 C6225 1.363 . S
C6230 C6229 1.415 . S
C6231 H6207 0.951 . S
C6231 C6232 1.366 . S
C6231 C6233 1.388 . S
C6232 C6231 1.366 . S
C6232 C6236 1.385 . S
C6233 H6208 0.951 . S
C6233 C6231 1.388 . S
C6233 C6234 1.366 . S
C6234 C6233 1.366 . S
C6234 C6235 1.414 . S
C6234 C6237 1.499 . S
C6235 H6209 0.950 . S
C6235 C6234 1.414 . S
C6235 C6236 1.374 . S
C6236 H6210 0.950 . S
C6236 C6232 1.385 . S
C6236 C6235 1.374 . S
C6237 C6234 1.499 . S
C6237 C6238 1.373 . S
C6237 C6239 1.389 . S
C6238 H6211 0.950 . S
C6238 C6224 1.377 . S
C6238 C6237 1.373 . S
C6239 C6223 1.377 . S
C6239 C6237 1.389 . S
C6239 C6240 1.524 . S
C6240 C6239 1.524 . S
C6240 C6241 1.397 . S
C6240 C6245 1.363 . S
C6241 H6212 0.950 . S
C6241 C6240 1.397 . S
C6241 C6242 1.334 . S
C6242 H6213 0.950 . S
C6242 C6241 1.334 . S
C6242 C6243 1.287 . S
C6243 C6242 1.287 . S
C6243 C6244 1.524 . S
C6243 H6246 0.999 . S
C6244 H6214 0.950 . S
C6244 C6243 1.524 . S
C6244 C6245 1.415 . S
C6245 H6215 0.950 . S
C6245 C6240 1.363 . S
C6245 C6244 1.415 . S
H6246 C6243 0.999 . S
H6247 C6228 0.913 . S
H6248 C6266 0.951 . S
H6249 C6268 0.951 . S
H6250 C6270 0.950 . S
H6251 C6271 0.950 . S
H6252 C6273 0.950 . S
H6253 C6276 0.950 . S
H6254 C6277 0.950 . S
H6255 C6279 0.950 . S
H6256 C6280 0.950 . S
H6257 C6281 0.951 . S
H6258 C6283 0.951 . S
H6259 C6285 0.950 . S
H6260 C6286 0.950 . S
H6261 C6288 0.950 . S
H6262 C6291 0.950 . S
H6263 C6292 0.950 . S
H6264 C6294 0.950 . S
H6265 C6295 0.950 . S
C6266 H6248 0.951 . S
C6266 C6267 1.366 . S
C6266 C6268 1.388 . S
C6267 C6266 1.366 . S
C6267 C6271 1.385 . S
C6268 H6249 0.951 . S
C6268 C6266 1.388 . S
C6268 C6269 1.366 . S
C6269 C6268 1.366 . S
C6269 C6270 1.414 . S
C6269 C6272 1.499 . S
C6270 H6250 0.950 . S
C6270 C6269 1.414 . S
C6270 C6271 1.374 . S
C6271 H6251 0.950 . S
C6271 C6267 1.385 . S
C6271 C6270 1.374 . S
C6272 C6269 1.499 . S
C6272 C6273 1.373 . S
C6272 C6274 1.389 . S
C6273 H6252 0.950 . S
C6273 C6272 1.373 . S
C6273 C6289 1.377 . S
C6274 C6272 1.389 . S
C6274 C6275 1.524 . S
C6274 C6288 1.377 . S
C6275 C6274 1.524 . S
C6275 C6276 1.397 . S
C6275 C6280 1.363 . S
C6276 H6253 0.950 . S
C6276 C6275 1.397 . S
C6276 C6277 1.334 . S
C6277 H6254 0.950 . S
C6277 C6276 1.334 . S
C6277 C6278 1.287 . S
C6278 C6277 1.287 . S
C6278 C6279 1.524 . S
C6278 H6297 0.913 . S
C6279 H6255 0.950 . S
C6279 C6278 1.524 . S
C6279 C6280 1.415 . S
C6280 H6256 0.950 . S
C6280 C6275 1.363 . S
C6280 C6279 1.415 . S
C6281 H6257 0.951 . S
C6281 C6282 1.366 . S
C6281 C6283 1.388 . S
C6282 C6281 1.366 . S
C6282 C6286 1.385 . S
C6283 H6258 0.951 . S
C6283 C6281 1.388 . S
C6283 C6284 1.366 . S
C6284 C6283 1.366 . S
C6284 C6285 1.414 . S
C6284 C6287 1.499 . S
C6285 H6259 0.950 . S
C6285 C6284 1.414 . S
C6285 C6286 1.374 . S
C6286 H6260 0.950 . S
C6286 C6282 1.385 . S
C6286 C6285 1.374 . S
C6287 C6284 1.499 . S
C6287 C6288 1.373 . S
C6287 C6289 1.389 . S
C6288 H6261 0.950 . S
C6288 C6274 1.377 . S
C6288 C6287 1.373 . S
C6289 C6273 1.377 . S
C6289 C6287 1.389 . S
C6289 C6290 1.524 . S
C6290 C6289 1.524 . S
C6290 C6291 1.397 . S
C6290 C6295 1.363 . S
C6291 H6262 0.950 . S
C6291 C6290 1.397 . S
C6291 C6292 1.334 . S
C6292 H6263 0.950 . S
C6292 C6291 1.334 . S
C6292 C6293 1.287 . S
C6293 C6292 1.287 . S
C6293 C6294 1.524 . S
C6293 H6296 0.999 . S
C6294 H6264 0.950 . S
C6294 C6293 1.524 . S
C6294 C6295 1.415 . S
C6295 H6265 0.950 . S
C6295 C6290 1.363 . S
C6295 C6294 1.415 . S
H6296 C6293 0.999 . S
H6297 C6278 0.913 . S
H6298 C6316 0.951 . S
H6299 C6318 0.951 . S
H6300 C6320 0.950 . S
H6301 C6321 0.950 . S
H6302 C6323 0.950 . S
H6303 C6326 0.950 . S
H6304 C6327 0.950 . S
H6305 C6329 0.950 . S
H6306 C6330 0.950 . S
H6307 C6331 0.951 . S
H6308 C6333 0.951 . S
H6309 C6335 0.950 . S
H6310 C6336 0.950 . S
H6311 C6338 0.950 . S
H6312 C6341 0.950 . S
H6313 C6342 0.950 . S
H6314 C6344 0.950 . S
H6315 C6345 0.950 . S
C6316 H6298 0.951 . S
C6316 C6317 1.366 . S
C6316 C6318 1.388 . S
C6317 C6316 1.366 . S
C6317 C6321 1.385 . S
C6318 H6299 0.951 . S
C6318 C6316 1.388 . S
C6318 C6319 1.366 . S
C6319 C6318 1.366 . S
C6319 C6320 1.414 . S
C6319 C6322 1.499 . S
C6320 H6300 0.950 . S
C6320 C6319 1.414 . S
C6320 C6321 1.374 . S
C6321 H6301 0.950 . S
C6321 C6317 1.385 . S
C6321 C6320 1.374 . S
C6322 C6319 1.499 . S
C6322 C6323 1.373 . S
C6322 C6324 1.389 . S
C6323 H6302 0.950 . S
C6323 C6322 1.373 . S
C6323 C6339 1.377 . S
C6324 C6322 1.389 . S
C6324 C6325 1.524 . S
C6324 C6338 1.377 . S
C6325 C6324 1.524 . S
C6325 C6326 1.397 . S
C6325 C6330 1.363 . S
C6326 H6303 0.950 . S
C6326 C6325 1.397 . S
C6326 C6327 1.334 . S
C6327 H6304 0.950 . S
C6327 C6326 1.334 . S
C6327 C6328 1.287 . S
C6328 C6327 1.287 . S
C6328 C6329 1.524 . S
C6328 H6347 0.913 . S
C6329 H6305 0.950 . S
C6329 C6328 1.524 . S
C6329 C6330 1.415 . S
C6330 H6306 0.950 . S
C6330 C6325 1.363 . S
C6330 C6329 1.415 . S
C6331 H6307 0.951 . S
C6331 C6332 1.366 . S
C6331 C6333 1.388 . S
C6332 C6331 1.366 . S
C6332 C6336 1.385 . S
C6333 H6308 0.951 . S
C6333 C6331 1.388 . S
C6333 C6334 1.366 . S
C6334 C6333 1.366 . S
C6334 C6335 1.414 . S
C6334 C6337 1.499 . S
C6335 H6309 0.950 . S
C6335 C6334 1.414 . S
C6335 C6336 1.374 . S
C6336 H6310 0.950 . S
C6336 C6332 1.385 . S
C6336 C6335 1.374 . S
C6337 C6334 1.499 . S
C6337 C6338 1.373 . S
C6337 C6339 1.389 . S
C6338 H6311 0.950 . S
C6338 C6324 1.377 . S
C6338 C6337 1.373 . S
C6339 C6323 1.377 . S
C6339 C6337 1.389 . S
C6339 C6340 1.524 . S
C6340 C6339 1.524 . S
C6340 C6341 1.397 . S
C6340 C6345 1.363 . S
C6341 H6312 0.950 . S
C6341 C6340 1.397 . S
C6341 C6342 1.334 . S
C6342 H6313 0.950 . S
C6342 C6341 1.334 . S
C6342 C6343 1.287 . S
C6343 C6342 1.287 . S
C6343 C6344 1.524 . S
C6343 H6346 0.999 . S
C6344 H6314 0.950 . S
C6344 C6343 1.524 . S
C6344 C6345 1.415 . S
C6345 H6315 0.950 . S
C6345 C6340 1.363 . S
C6345 C6344 1.415 . S
H6346 C6343 0.999 . S
H6347 C6328 0.913 . S
H6348 C6366 0.951 . S
H6349 C6368 0.951 . S
H6350 C6370 0.950 . S
H6351 C6371 0.950 . S
H6352 C6373 0.950 . S
H6353 C6376 0.950 . S
H6354 C6377 0.950 . S
H6355 C6379 0.950 . S
H6356 C6380 0.950 . S
H6357 C6381 0.951 . S
H6358 C6383 0.951 . S
H6359 C6385 0.950 . S
H6360 C6386 0.950 . S
H6361 C6388 0.950 . S
H6362 C6391 0.950 . S
H6363 C6392 0.950 . S
H6364 C6394 0.950 . S
H6365 C6395 0.950 . S
C6366 H6348 0.951 . S
C6366 C6367 1.366 . S
C6366 C6368 1.388 . S
C6367 C6366 1.366 . S
C6367 C6371 1.385 . S
C6368 H6349 0.951 . S
C6368 C6366 1.388 . S
C6368 C6369 1.366 . S
C6369 C6368 1.366 . S
C6369 C6370 1.414 . S
C6369 C6372 1.499 . S
C6370 H6350 0.950 . S
C6370 C6369 1.414 . S
C6370 C6371 1.374 . S
C6371 H6351 0.950 . S
C6371 C6367 1.385 . S
C6371 C6370 1.374 . S
C6372 C6369 1.499 . S
C6372 C6373 1.373 . S
C6372 C6374 1.389 . S
C6373 H6352 0.950 . S
C6373 C6372 1.373 . S
C6373 C6389 1.377 . S
C6374 C6372 1.389 . S
C6374 C6375 1.524 . S
C6374 C6388 1.377 . S
C6375 C6374 1.524 . S
C6375 C6376 1.397 . S
C6375 C6380 1.363 . S
C6376 H6353 0.950 . S
C6376 C6375 1.397 . S
C6376 C6377 1.334 . S
C6377 H6354 0.950 . S
C6377 C6376 1.334 . S
C6377 C6378 1.287 . S
C6378 C6377 1.287 . S
C6378 C6379 1.524 . S
C6378 H6397 0.913 . S
C6379 H6355 0.950 . S
C6379 C6378 1.524 . S
C6379 C6380 1.415 . S
C6380 H6356 0.950 . S
C6380 C6375 1.363 . S
C6380 C6379 1.415 . S
C6381 H6357 0.951 . S
C6381 C6382 1.366 . S
C6381 C6383 1.388 . S
C6382 C6381 1.366 . S
C6382 C6386 1.385 . S
C6383 H6358 0.951 . S
C6383 C6381 1.388 . S
C6383 C6384 1.366 . S
C6384 C6383 1.366 . S
C6384 C6385 1.414 . S
C6384 C6387 1.499 . S
C6385 H6359 0.950 . S
C6385 C6384 1.414 . S
C6385 C6386 1.374 . S
C6386 H6360 0.950 . S
C6386 C6382 1.385 . S
C6386 C6385 1.374 . S
C6387 C6384 1.499 . S
C6387 C6388 1.373 . S
C6387 C6389 1.389 . S
C6388 H6361 0.950 . S
C6388 C6374 1.377 . S
C6388 C6387 1.373 . S
C6389 C6373 1.377 . S
C6389 C6387 1.389 . S
C6389 C6390 1.524 . S
C6390 C6389 1.524 . S
C6390 C6391 1.397 . S
C6390 C6395 1.363 . S
C6391 H6362 0.950 . S
C6391 C6390 1.397 . S
C6391 C6392 1.334 . S
C6392 H6363 0.950 . S
C6392 C6391 1.334 . S
C6392 C6393 1.287 . S
C6393 C6392 1.287 . S
C6393 C6394 1.524 . S
C6393 H6396 0.999 . S
C6394 H6364 0.950 . S
C6394 C6393 1.524 . S
C6394 C6395 1.415 . S
C6395 H6365 0.950 . S
C6395 C6390 1.363 . S
C6395 C6394 1.415 . S
H6396 C6393 0.999 . S
H6397 C6378 0.913 . S
H6398 C6416 0.951 . S
H6399 C6418 0.951 . S
H6400 C6420 0.950 . S
H6401 C6421 0.950 . S
H6402 C6423 0.950 . S
H6403 C6426 0.950 . S
H6404 C6427 0.950 . S
H6405 C6429 0.950 . S
H6406 C6430 0.950 . S
H6407 C6431 0.951 . S
H6408 C6433 0.951 . S
H6409 C6435 0.950 . S
H6410 C6436 0.950 . S
H6411 C6438 0.950 . S
H6412 C6441 0.950 . S
H6413 C6442 0.950 . S
H6414 C6444 0.950 . S
H6415 C6445 0.950 . S
C6416 H6398 0.951 . S
C6416 C6417 1.366 . S
C6416 C6418 1.388 . S
C6417 C6416 1.366 . S
C6417 C6421 1.385 . S
C6418 H6399 0.951 . S
C6418 C6416 1.388 . S
C6418 C6419 1.366 . S
C6419 C6418 1.366 . S
C6419 C6420 1.414 . S
C6419 C6422 1.499 . S
C6420 H6400 0.950 . S
C6420 C6419 1.414 . S
C6420 C6421 1.374 . S
C6421 H6401 0.950 . S
C6421 C6417 1.385 . S
C6421 C6420 1.374 . S
C6422 C6419 1.499 . S
C6422 C6423 1.373 . S
C6422 C6424 1.389 . S
C6423 H6402 0.950 . S
C6423 C6422 1.373 . S
C6423 C6439 1.377 . S
C6424 C6422 1.389 . S
C6424 C6425 1.524 . S
C6424 C6438 1.377 . S
C6425 C6424 1.524 . S
C6425 C6426 1.397 . S
C6425 C6430 1.363 . S
C6426 H6403 0.950 . S
C6426 C6425 1.397 . S
C6426 C6427 1.334 . S
C6427 H6404 0.950 . S
C6427 C6426 1.334 . S
C6427 C6428 1.287 . S
C6428 C6427 1.287 . S
C6428 C6429 1.524 . S
C6428 H6447 0.913 . S
C6429 H6405 0.950 . S
C6429 C6428 1.524 . S
C6429 C6430 1.415 . S
C6430 H6406 0.950 . S
C6430 C6425 1.363 . S
C6430 C6429 1.415 . S
C6431 H6407 0.951 . S
C6431 C6432 1.366 . S
C6431 C6433 1.388 . S
C6432 C6431 1.366 . S
C6432 C6436 1.385 . S
C6433 H6408 0.951 . S
C6433 C6431 1.388 . S
C6433 C6434 1.366 . S
C6434 C6433 1.366 . S
C6434 C6435 1.414 . S
C6434 C6437 1.499 . S
C6435 H6409 0.950 . S
C6435 C6434 1.414 . S
C6435 C6436 1.374 . S
C6436 H6410 0.950 . S
C6436 C6432 1.385 . S
C6436 C6435 1.374 . S
C6437 C6434 1.499 . S
C6437 C6438 1.373 . S
C6437 C6439 1.389 . S
C6438 H6411 0.950 . S
C6438 C6424 1.377 . S
C6438 C6437 1.373 . S
C6439 C6423 1.377 . S
C6439 C6437 1.389 . S
C6439 C6440 1.524 . S
C6440 C6439 1.524 . S
C6440 C6441 1.397 . S
C6440 C6445 1.363 . S
C6441 H6412 0.950 . S
C6441 C6440 1.397 . S
C6441 C6442 1.334 . S
C6442 H6413 0.950 . S
C6442 C6441 1.334 . S
C6442 C6443 1.287 . S
C6443 C6442 1.287 . S
C6443 C6444 1.524 . S
C6443 H6446 0.999 . S
C6444 H6414 0.950 . S
C6444 C6443 1.524 . S
C6444 C6445 1.415 . S
C6445 H6415 0.950 . S
C6445 C6440 1.363 . S
C6445 C6444 1.415 . S
H6446 C6443 0.999 . S
H6447 C6428 0.913 . S
H6448 C6466 0.951 . S
H6449 C6468 0.951 . S
H6450 C6470 0.950 . S
H6451 C6471 0.950 . S
H6452 C6473 0.950 . S
H6453 C6476 0.950 . S
H6454 C6477 0.950 . S
H6455 C6479 0.950 . S
H6456 C6480 0.950 . S
H6457 C6481 0.951 . S
H6458 C6483 0.951 . S
H6459 C6485 0.950 . S
H6460 C6486 0.950 . S
H6461 C6488 0.950 . S
H6462 C6491 0.950 . S
H6463 C6492 0.950 . S
H6464 C6494 0.950 . S
H6465 C6495 0.950 . S
C6466 H6448 0.951 . S
C6466 C6467 1.366 . S
C6466 C6468 1.388 . S
C6467 C6466 1.366 . S
C6467 C6471 1.385 . S
C6468 H6449 0.951 . S
C6468 C6466 1.388 . S
C6468 C6469 1.366 . S
C6469 C6468 1.366 . S
C6469 C6470 1.414 . S
C6469 C6472 1.499 . S
C6470 H6450 0.950 . S
C6470 C6469 1.414 . S
C6470 C6471 1.374 . S
C6471 H6451 0.950 . S
C6471 C6467 1.385 . S
C6471 C6470 1.374 . S
C6472 C6469 1.499 . S
C6472 C6473 1.373 . S
C6472 C6474 1.389 . S
C6473 H6452 0.950 . S
C6473 C6472 1.373 . S
C6473 C6489 1.377 . S
C6474 C6472 1.389 . S
C6474 C6475 1.524 . S
C6474 C6488 1.377 . S
C6475 C6474 1.524 . S
C6475 C6476 1.397 . S
C6475 C6480 1.363 . S
C6476 H6453 0.950 . S
C6476 C6475 1.397 . S
C6476 C6477 1.334 . S
C6477 H6454 0.950 . S
C6477 C6476 1.334 . S
C6477 C6478 1.287 . S
C6478 C6477 1.287 . S
C6478 C6479 1.524 . S
C6478 H6497 0.913 . S
C6479 H6455 0.950 . S
C6479 C6478 1.524 . S
C6479 C6480 1.415 . S
C6480 H6456 0.950 . S
C6480 C6475 1.363 . S
C6480 C6479 1.415 . S
C6481 H6457 0.951 . S
C6481 C6482 1.366 . S
C6481 C6483 1.388 . S
C6482 C6481 1.366 . S
C6482 C6486 1.385 . S
C6483 H6458 0.951 . S
C6483 C6481 1.388 . S
C6483 C6484 1.366 . S
C6484 C6483 1.366 . S
C6484 C6485 1.414 . S
C6484 C6487 1.499 . S
C6485 H6459 0.950 . S
C6485 C6484 1.414 . S
C6485 C6486 1.374 . S
C6486 H6460 0.950 . S
C6486 C6482 1.385 . S
C6486 C6485 1.374 . S
C6487 C6484 1.499 . S
C6487 C6488 1.373 . S
C6487 C6489 1.389 . S
C6488 H6461 0.950 . S
C6488 C6474 1.377 . S
C6488 C6487 1.373 . S
C6489 C6473 1.377 . S
C6489 C6487 1.389 . S
C6489 C6490 1.524 . S
C6490 C6489 1.524 . S
C6490 C6491 1.397 . S
C6490 C6495 1.363 . S
C6491 H6462 0.950 . S
C6491 C6490 1.397 . S
C6491 C6492 1.334 . S
C6492 H6463 0.950 . S
C6492 C6491 1.334 . S
C6492 C6493 1.287 . S
C6493 C6492 1.287 . S
C6493 C6494 1.524 . S
C6493 H6496 0.999 . S
C6494 H6464 0.950 . S
C6494 C6493 1.524 . S
C6494 C6495 1.415 . S
C6495 H6465 0.950 . S
C6495 C6490 1.363 . S
C6495 C6494 1.415 . S
H6496 C6493 0.999 . S
H6497 C6478 0.913 . S
H6498 C6516 0.951 . S
H6499 C6518 0.951 . S
H6500 C6520 0.950 . S
H6501 C6521 0.950 . S
H6502 C6523 0.950 . S
H6503 C6526 0.950 . S
H6504 C6527 0.950 . S
H6505 C6529 0.950 . S
H6506 C6530 0.950 . S
H6507 C6531 0.951 . S
H6508 C6533 0.951 . S
H6509 C6535 0.950 . S
H6510 C6536 0.950 . S
H6511 C6538 0.950 . S
H6512 C6541 0.950 . S
H6513 C6542 0.950 . S
H6514 C6544 0.950 . S
H6515 C6545 0.950 . S
C6516 H6498 0.951 . S
C6516 C6517 1.366 . S
C6516 C6518 1.388 . S
C6517 C6516 1.366 . S
C6517 C6521 1.385 . S
C6518 H6499 0.951 . S
C6518 C6516 1.388 . S
C6518 C6519 1.366 . S
C6519 C6518 1.366 . S
C6519 C6520 1.414 . S
C6519 C6522 1.499 . S
C6520 H6500 0.950 . S
C6520 C6519 1.414 . S
C6520 C6521 1.374 . S
C6521 H6501 0.950 . S
C6521 C6517 1.385 . S
C6521 C6520 1.374 . S
C6522 C6519 1.499 . S
C6522 C6523 1.373 . S
C6522 C6524 1.389 . S
C6523 H6502 0.950 . S
C6523 C6522 1.373 . S
C6523 C6539 1.377 . S
C6524 C6522 1.389 . S
C6524 C6525 1.524 . S
C6524 C6538 1.377 . S
C6525 C6524 1.524 . S
C6525 C6526 1.397 . S
C6525 C6530 1.363 . S
C6526 H6503 0.950 . S
C6526 C6525 1.397 . S
C6526 C6527 1.334 . S
C6527 H6504 0.950 . S
C6527 C6526 1.334 . S
C6527 C6528 1.287 . S
C6528 C6527 1.287 . S
C6528 C6529 1.524 . S
C6528 H6547 0.913 . S
C6529 H6505 0.950 . S
C6529 C6528 1.524 . S
C6529 C6530 1.415 . S
C6530 H6506 0.950 . S
C6530 C6525 1.363 . S
C6530 C6529 1.415 . S
C6531 H6507 0.951 . S
C6531 C6532 1.366 . S
C6531 C6533 1.388 . S
C6532 C6531 1.366 . S
C6532 C6536 1.385 . S
C6533 H6508 0.951 . S
C6533 C6531 1.388 . S
C6533 C6534 1.366 . S
C6534 C6533 1.366 . S
C6534 C6535 1.414 . S
C6534 C6537 1.499 . S
C6535 H6509 0.950 . S
C6535 C6534 1.414 . S
C6535 C6536 1.374 . S
C6536 H6510 0.950 . S
C6536 C6532 1.385 . S
C6536 C6535 1.374 . S
C6537 C6534 1.499 . S
C6537 C6538 1.373 . S
C6537 C6539 1.389 . S
C6538 H6511 0.950 . S
C6538 C6524 1.377 . S
C6538 C6537 1.373 . S
C6539 C6523 1.377 . S
C6539 C6537 1.389 . S
C6539 C6540 1.524 . S
C6540 C6539 1.524 . S
C6540 C6541 1.397 . S
C6540 C6545 1.363 . S
C6541 H6512 0.950 . S
C6541 C6540 1.397 . S
C6541 C6542 1.334 . S
C6542 H6513 0.950 . S
C6542 C6541 1.334 . S
C6542 C6543 1.287 . S
C6543 C6542 1.287 . S
C6543 C6544 1.524 . S
C6543 H6546 0.999 . S
C6544 H6514 0.950 . S
C6544 C6543 1.524 . S
C6544 C6545 1.415 . S
C6545 H6515 0.950 . S
C6545 C6540 1.363 . S
C6545 C6544 1.415 . S
H6546 C6543 0.999 . S
H6547 C6528 0.913 . S
H6548 C6566 0.951 . S
H6549 C6568 0.951 . S
H6550 C6570 0.950 . S
H6551 C6571 0.950 . S
H6552 C6573 0.950 . S
H6553 C6576 0.950 . S
H6554 C6577 0.950 . S
H6555 C6579 0.950 . S
H6556 C6580 0.950 . S
H6557 C6581 0.951 . S
H6558 C6583 0.951 . S
H6559 C6585 0.950 . S
H6560 C6586 0.950 . S
H6561 C6588 0.950 . S
H6562 C6591 0.950 . S
H6563 C6592 0.950 . S
H6564 C6594 0.950 . S
H6565 C6595 0.950 . S
C6566 H6548 0.951 . S
C6566 C6567 1.366 . S
C6566 C6568 1.388 . S
C6567 C6566 1.366 . S
C6567 C6571 1.385 . S
C6568 H6549 0.951 . S
C6568 C6566 1.388 . S
C6568 C6569 1.366 . S
C6569 C6568 1.366 . S
C6569 C6570 1.414 . S
C6569 C6572 1.499 . S
C6570 H6550 0.950 . S
C6570 C6569 1.414 . S
C6570 C6571 1.374 . S
C6571 H6551 0.950 . S
C6571 C6567 1.385 . S
C6571 C6570 1.374 . S
C6572 C6569 1.499 . S
C6572 C6573 1.373 . S
C6572 C6574 1.389 . S
C6573 H6552 0.950 . S
C6573 C6572 1.373 . S
C6573 C6589 1.377 . S
C6574 C6572 1.389 . S
C6574 C6575 1.524 . S
C6574 C6588 1.377 . S
C6575 C6574 1.524 . S
C6575 C6576 1.397 . S
C6575 C6580 1.363 . S
C6576 H6553 0.950 . S
C6576 C6575 1.397 . S
C6576 C6577 1.334 . S
C6577 H6554 0.950 . S
C6577 C6576 1.334 . S
C6577 C6578 1.287 . S
C6578 C6577 1.287 . S
C6578 C6579 1.524 . S
C6578 H6597 0.913 . S
C6579 H6555 0.950 . S
C6579 C6578 1.524 . S
C6579 C6580 1.415 . S
C6580 H6556 0.950 . S
C6580 C6575 1.363 . S
C6580 C6579 1.415 . S
C6581 H6557 0.951 . S
C6581 C6582 1.366 . S
C6581 C6583 1.388 . S
C6582 C6581 1.366 . S
C6582 C6586 1.385 . S
C6583 H6558 0.951 . S
C6583 C6581 1.388 . S
C6583 C6584 1.366 . S
C6584 C6583 1.366 . S
C6584 C6585 1.414 . S
C6584 C6587 1.499 . S
C6585 H6559 0.950 . S
C6585 C6584 1.414 . S
C6585 C6586 1.374 . S
C6586 H6560 0.950 . S
C6586 C6582 1.385 . S
C6586 C6585 1.374 . S
C6587 C6584 1.499 . S
C6587 C6588 1.373 . S
C6587 C6589 1.389 . S
C6588 H6561 0.950 . S
C6588 C6574 1.377 . S
C6588 C6587 1.373 . S
C6589 C6573 1.377 . S
C6589 C6587 1.389 . S
C6589 C6590 1.524 . S
C6590 C6589 1.524 . S
C6590 C6591 1.397 . S
C6590 C6595 1.363 . S
C6591 H6562 0.950 . S
C6591 C6590 1.397 . S
C6591 C6592 1.334 . S
C6592 H6563 0.950 . S
C6592 C6591 1.334 . S
C6592 C6593 1.287 . S
C6593 C6592 1.287 . S
C6593 C6594 1.524 . S
C6593 H6596 0.999 . S
C6594 H6564 0.950 . S
C6594 C6593 1.524 . S
C6594 C6595 1.415 . S
C6595 H6565 0.950 . S
C6595 C6590 1.363 . S
C6595 C6594 1.415 . S
H6596 C6593 0.999 . S
H6597 C6578 0.913 . S
H6598 C6616 0.951 . S
H6599 C6618 0.951 . S
H6600 C6620 0.950 . S
H6601 C6621 0.950 . S
H6602 C6623 0.950 . S
H6603 C6626 0.950 . S
H6604 C6627 0.950 . S
H6605 C6629 0.950 . S
H6606 C6630 0.950 . S
H6607 C6631 0.951 . S
H6608 C6633 0.951 . S
H6609 C6635 0.950 . S
H6610 C6636 0.950 . S
H6611 C6638 0.950 . S
H6612 C6641 0.950 . S
H6613 C6642 0.950 . S
H6614 C6644 0.950 . S
H6615 C6645 0.950 . S
C6616 H6598 0.951 . S
C6616 C6617 1.366 . S
C6616 C6618 1.388 . S
C6617 C6616 1.366 . S
C6617 C6621 1.385 . S
C6618 H6599 0.951 . S
C6618 C6616 1.388 . S
C6618 C6619 1.366 . S
C6619 C6618 1.366 . S
C6619 C6620 1.414 . S
C6619 C6622 1.499 . S
C6620 H6600 0.950 . S
C6620 C6619 1.414 . S
C6620 C6621 1.374 . S
C6621 H6601 0.950 . S
C6621 C6617 1.385 . S
C6621 C6620 1.374 . S
C6622 C6619 1.499 . S
C6622 C6623 1.373 . S
C6622 C6624 1.389 . S
C6623 H6602 0.950 . S
C6623 C6622 1.373 . S
C6623 C6639 1.377 . S
C6624 C6622 1.389 . S
C6624 C6625 1.524 . S
C6624 C6638 1.377 . S
C6625 C6624 1.524 . S
C6625 C6626 1.397 . S
C6625 C6630 1.363 . S
C6626 H6603 0.950 . S
C6626 C6625 1.397 . S
C6626 C6627 1.334 . S
C6627 H6604 0.950 . S
C6627 C6626 1.334 . S
C6627 C6628 1.287 . S
C6628 C6627 1.287 . S
C6628 C6629 1.524 . S
C6628 H6647 0.913 . S
C6629 H6605 0.950 . S
C6629 C6628 1.524 . S
C6629 C6630 1.415 . S
C6630 H6606 0.950 . S
C6630 C6625 1.363 . S
C6630 C6629 1.415 . S
C6631 H6607 0.951 . S
C6631 C6632 1.366 . S
C6631 C6633 1.388 . S
C6632 C6631 1.366 . S
C6632 C6636 1.385 . S
C6633 H6608 0.951 . S
C6633 C6631 1.388 . S
C6633 C6634 1.366 . S
C6634 C6633 1.366 . S
C6634 C6635 1.414 . S
C6634 C6637 1.499 . S
C6635 H6609 0.950 . S
C6635 C6634 1.414 . S
C6635 C6636 1.374 . S
C6636 H6610 0.950 . S
C6636 C6632 1.385 . S
C6636 C6635 1.374 . S
C6637 C6634 1.499 . S
C6637 C6638 1.373 . S
C6637 C6639 1.389 . S
C6638 H6611 0.950 . S
C6638 C6624 1.377 . S
C6638 C6637 1.373 . S
C6639 C6623 1.377 . S
C6639 C6637 1.389 . S
C6639 C6640 1.524 . S
C6640 C6639 1.524 . S
C6640 C6641 1.397 . S
C6640 C6645 1.363 . S
C6641 H6612 0.950 . S
C6641 C6640 1.397 . S
C6641 C6642 1.334 . S
C6642 H6613 0.950 . S
C6642 C6641 1.334 . S
C6642 C6643 1.287 . S
C6643 C6642 1.287 . S
C6643 C6644 1.524 . S
C6643 H6646 0.999 . S
C6644 H6614 0.950 . S
C6644 C6643 1.524 . S
C6644 C6645 1.415 . S
C6645 H6615 0.950 . S
C6645 C6640 1.363 . S
C6645 C6644 1.415 . S
H6646 C6643 0.999 . S
H6647 C6628 0.913 . S
H6648 C6666 0.951 . S
H6649 C6668 0.951 . S
H6650 C6670 0.950 . S
H6651 C6671 0.950 . S
H6652 C6673 0.950 . S
H6653 C6676 0.950 . S
H6654 C6677 0.950 . S
H6655 C6679 0.950 . S
H6656 C6680 0.950 . S
H6657 C6681 0.951 . S
H6658 C6683 0.951 . S
H6659 C6685 0.950 . S
H6660 C6686 0.950 . S
H6661 C6688 0.950 . S
H6662 C6691 0.950 . S
H6663 C6692 0.950 . S
H6664 C6694 0.950 . S
H6665 C6695 0.950 . S
C6666 H6648 0.951 . S
C6666 C6667 1.366 . S
C6666 C6668 1.388 . S
C6667 C6666 1.366 . S
C6667 C6671 1.385 . S
C6668 H6649 0.951 . S
C6668 C6666 1.388 . S
C6668 C6669 1.366 . S
C6669 C6668 1.366 . S
C6669 C6670 1.414 . S
C6669 C6672 1.499 . S
C6670 H6650 0.950 . S
C6670 C6669 1.414 . S
C6670 C6671 1.374 . S
C6671 H6651 0.950 . S
C6671 C6667 1.385 . S
C6671 C6670 1.374 . S
C6672 C6669 1.499 . S
C6672 C6673 1.373 . S
C6672 C6674 1.389 . S
C6673 H6652 0.950 . S
C6673 C6672 1.373 . S
C6673 C6689 1.377 . S
C6674 C6672 1.389 . S
C6674 C6675 1.524 . S
C6674 C6688 1.377 . S
C6675 C6674 1.524 . S
C6675 C6676 1.397 . S
C6675 C6680 1.363 . S
C6676 H6653 0.950 . S
C6676 C6675 1.397 . S
C6676 C6677 1.334 . S
C6677 H6654 0.950 . S
C6677 C6676 1.334 . S
C6677 C6678 1.287 . S
C6678 C6677 1.287 . S
C6678 C6679 1.524 . S
C6678 H6697 0.913 . S
C6679 H6655 0.950 . S
C6679 C6678 1.524 . S
C6679 C6680 1.415 . S
C6680 H6656 0.950 . S
C6680 C6675 1.363 . S
C6680 C6679 1.415 . S
C6681 H6657 0.951 . S
C6681 C6682 1.366 . S
C6681 C6683 1.388 . S
C6682 C6681 1.366 . S
C6682 C6686 1.385 . S
C6683 H6658 0.951 . S
C6683 C6681 1.388 . S
C6683 C6684 1.366 . S
C6684 C6683 1.366 . S
C6684 C6685 1.414 . S
C6684 C6687 1.499 . S
C6685 H6659 0.950 . S
C6685 C6684 1.414 . S
C6685 C6686 1.374 . S
C6686 H6660 0.950 . S
C6686 C6682 1.385 . S
C6686 C6685 1.374 . S
C6687 C6684 1.499 . S
C6687 C6688 1.373 . S
C6687 C6689 1.389 . S
C6688 H6661 0.950 . S
C6688 C6674 1.377 . S
C6688 C6687 1.373 . S
C6689 C6673 1.377 . S
C6689 C6687 1.389 . S
C6689 C6690 1.524 . S
C6690 C6689 1.524 . S
C6690 C6691 1.397 . S
C6690 C6695 1.363 . S
C6691 H6662 0.950 . S
C6691 C6690 1.397 . S
C6691 C6692 1.334 . S
C6692 H6663 0.950 . S
C6692 C6691 1.334 . S
C6692 C6693 1.287 . S
C6693 C6692 1.287 . S
C6693 C6694 1.524 . S
C6693 H6696 0.999 . S
C6694 H6664 0.950 . S
C6694 C6693 1.524 . S
C6694 C6695 1.415 . S
C6695 H6665 0.950 . S
C6695 C6690 1.363 . S
C6695 C6694 1.415 . S
H6696 C6693 0.999 . S
H6697 C6678 0.913 . S
H6698 C6716 0.951 . S
H6699 C6718 0.951 . S
H6700 C6720 0.950 . S
H6701 C6721 0.950 . S
H6702 C6723 0.950 . S
H6703 C6726 0.950 . S
H6704 C6727 0.950 . S
H6705 C6729 0.950 . S
H6706 C6730 0.950 . S
H6707 C6731 0.951 . S
H6708 C6733 0.951 . S
H6709 C6735 0.950 . S
H6710 C6736 0.950 . S
H6711 C6738 0.950 . S
H6712 C6741 0.950 . S
H6713 C6742 0.950 . S
H6714 C6744 0.950 . S
H6715 C6745 0.950 . S
C6716 H6698 0.951 . S
C6716 C6717 1.366 . S
C6716 C6718 1.388 . S
C6717 C6716 1.366 . S
C6717 C6721 1.385 . S
C6718 H6699 0.951 . S
C6718 C6716 1.388 . S
C6718 C6719 1.366 . S
C6719 C6718 1.366 . S
C6719 C6720 1.414 . S
C6719 C6722 1.499 . S
C6720 H6700 0.950 . S
C6720 C6719 1.414 . S
C6720 C6721 1.374 . S
C6721 H6701 0.950 . S
C6721 C6717 1.385 . S
C6721 C6720 1.374 . S
C6722 C6719 1.499 . S
C6722 C6723 1.373 . S
C6722 C6724 1.389 . S
C6723 H6702 0.950 . S
C6723 C6722 1.373 . S
C6723 C6739 1.377 . S
C6724 C6722 1.389 . S
C6724 C6725 1.524 . S
C6724 C6738 1.377 . S
C6725 C6724 1.524 . S
C6725 C6726 1.397 . S
C6725 C6730 1.363 . S
C6726 H6703 0.950 . S
C6726 C6725 1.397 . S
C6726 C6727 1.334 . S
C6727 H6704 0.950 . S
C6727 C6726 1.334 . S
C6727 C6728 1.287 . S
C6728 C6727 1.287 . S
C6728 C6729 1.524 . S
C6728 H6747 0.913 . S
C6729 H6705 0.950 . S
C6729 C6728 1.524 . S
C6729 C6730 1.415 . S
C6730 H6706 0.950 . S
C6730 C6725 1.363 . S
C6730 C6729 1.415 . S
C6731 H6707 0.951 . S
C6731 C6732 1.366 . S
C6731 C6733 1.388 . S
C6732 C6731 1.366 . S
C6732 C6736 1.385 . S
C6733 H6708 0.951 . S
C6733 C6731 1.388 . S
C6733 C6734 1.366 . S
C6734 C6733 1.366 . S
C6734 C6735 1.414 . S
C6734 C6737 1.499 . S
C6735 H6709 0.950 . S
C6735 C6734 1.414 . S
C6735 C6736 1.374 . S
C6736 H6710 0.950 . S
C6736 C6732 1.385 . S
C6736 C6735 1.374 . S
C6737 C6734 1.499 . S
C6737 C6738 1.373 . S
C6737 C6739 1.389 . S
C6738 H6711 0.950 . S
C6738 C6724 1.377 . S
C6738 C6737 1.373 . S
C6739 C6723 1.377 . S
C6739 C6737 1.389 . S
C6739 C6740 1.524 . S
C6740 C6739 1.524 . S
C6740 C6741 1.397 . S
C6740 C6745 1.363 . S
C6741 H6712 0.950 . S
C6741 C6740 1.397 . S
C6741 C6742 1.334 . S
C6742 H6713 0.950 . S
C6742 C6741 1.334 . S
C6742 C6743 1.287 . S
C6743 C6742 1.287 . S
C6743 C6744 1.524 . S
C6743 H6746 0.999 . S
C6744 H6714 0.950 . S
C6744 C6743 1.524 . S
C6744 C6745 1.415 . S
C6745 H6715 0.950 . S
C6745 C6740 1.363 . S
C6745 C6744 1.415 . S
H6746 C6743 0.999 . S
H6747 C6728 0.913 . S
H6748 C6766 0.951 . S
H6749 C6768 0.951 . S
H6750 C6770 0.950 . S
H6751 C6771 0.950 . S
H6752 C6773 0.950 . S
H6753 C6776 0.950 . S
H6754 C6777 0.950 . S
H6755 C6779 0.950 . S
H6756 C6780 0.950 . S
H6757 C6781 0.951 . S
H6758 C6783 0.951 . S
H6759 C6785 0.950 . S
H6760 C6786 0.950 . S
H6761 C6788 0.950 . S
H6762 C6791 0.950 . S
H6763 C6792 0.950 . S
H6764 C6794 0.950 . S
H6765 C6795 0.950 . S
C6766 H6748 0.951 . S
C6766 C6767 1.366 . S
C6766 C6768 1.388 . S
C6767 C6766 1.366 . S
C6767 C6771 1.385 . S
C6768 H6749 0.951 . S
C6768 C6766 1.388 . S
C6768 C6769 1.366 . S
C6769 C6768 1.366 . S
C6769 C6770 1.414 . S
C6769 C6772 1.499 . S
C6770 H6750 0.950 . S
C6770 C6769 1.414 . S
C6770 C6771 1.374 . S
C6771 H6751 0.950 . S
C6771 C6767 1.385 . S
C6771 C6770 1.374 . S
C6772 C6769 1.499 . S
C6772 C6773 1.373 . S
C6772 C6774 1.389 . S
C6773 H6752 0.950 . S
C6773 C6772 1.373 . S
C6773 C6789 1.377 . S
C6774 C6772 1.389 . S
C6774 C6775 1.524 . S
C6774 C6788 1.377 . S
C6775 C6774 1.524 . S
C6775 C6776 1.397 . S
C6775 C6780 1.363 . S
C6776 H6753 0.950 . S
C6776 C6775 1.397 . S
C6776 C6777 1.334 . S
C6777 H6754 0.950 . S
C6777 C6776 1.334 . S
C6777 C6778 1.287 . S
C6778 C6777 1.287 . S
C6778 C6779 1.524 . S
C6778 H6797 0.913 . S
C6779 H6755 0.950 . S
C6779 C6778 1.524 . S
C6779 C6780 1.415 . S
C6780 H6756 0.950 . S
C6780 C6775 1.363 . S
C6780 C6779 1.415 . S
C6781 H6757 0.951 . S
C6781 C6782 1.366 . S
C6781 C6783 1.388 . S
C6782 C6781 1.366 . S
C6782 C6786 1.385 . S
C6783 H6758 0.951 . S
C6783 C6781 1.388 . S
C6783 C6784 1.366 . S
C6784 C6783 1.366 . S
C6784 C6785 1.414 . S
C6784 C6787 1.499 . S
C6785 H6759 0.950 . S
C6785 C6784 1.414 . S
C6785 C6786 1.374 . S
C6786 H6760 0.950 . S
C6786 C6782 1.385 . S
C6786 C6785 1.374 . S
C6787 C6784 1.499 . S
C6787 C6788 1.373 . S
C6787 C6789 1.389 . S
C6788 H6761 0.950 . S
C6788 C6774 1.377 . S
C6788 C6787 1.373 . S
C6789 C6773 1.377 . S
C6789 C6787 1.389 . S
C6789 C6790 1.524 . S
C6790 C6789 1.524 . S
C6790 C6791 1.397 . S
C6790 C6795 1.363 . S
C6791 H6762 0.950 . S
C6791 C6790 1.397 . S
C6791 C6792 1.334 . S
C6792 H6763 0.950 . S
C6792 C6791 1.334 . S
C6792 C6793 1.287 . S
C6793 C6792 1.287 . S
C6793 C6794 1.524 . S
C6793 H6796 0.999 . S
C6794 H6764 0.950 . S
C6794 C6793 1.524 . S
C6794 C6795 1.415 . S
C6795 H6765 0.950 . S
C6795 C6790 1.363 . S
C6795 C6794 1.415 . S
H6796 C6793 0.999 . S
H6797 C6778 0.913 . S
H6798 C6816 0.951 . S
H6799 C6818 0.951 . S
H6800 C6820 0.950 . S
H6801 C6821 0.950 . S
H6802 C6823 0.950 . S
H6803 C6826 0.950 . S
H6804 C6827 0.950 . S
H6805 C6829 0.950 . S
H6806 C6830 0.950 . S
H6807 C6831 0.951 . S
H6808 C6833 0.951 . S
H6809 C6835 0.950 . S
H6810 C6836 0.950 . S
H6811 C6838 0.950 . S
H6812 C6841 0.950 . S
H6813 C6842 0.950 . S
H6814 C6844 0.950 . S
H6815 C6845 0.950 . S
C6816 H6798 0.951 . S
C6816 C6817 1.366 . S
C6816 C6818 1.388 . S
C6817 C6816 1.366 . S
C6817 C6821 1.385 . S
C6818 H6799 0.951 . S
C6818 C6816 1.388 . S
C6818 C6819 1.366 . S
C6819 C6818 1.366 . S
C6819 C6820 1.414 . S
C6819 C6822 1.499 . S
C6820 H6800 0.950 . S
C6820 C6819 1.414 . S
C6820 C6821 1.374 . S
C6821 H6801 0.950 . S
C6821 C6817 1.385 . S
C6821 C6820 1.374 . S
C6822 C6819 1.499 . S
C6822 C6823 1.373 . S
C6822 C6824 1.389 . S
C6823 H6802 0.950 . S
C6823 C6822 1.373 . S
C6823 C6839 1.377 . S
C6824 C6822 1.389 . S
C6824 C6825 1.524 . S
C6824 C6838 1.377 . S
C6825 C6824 1.524 . S
C6825 C6826 1.397 . S
C6825 C6830 1.363 . S
C6826 H6803 0.950 . S
C6826 C6825 1.397 . S
C6826 C6827 1.334 . S
C6827 H6804 0.950 . S
C6827 C6826 1.334 . S
C6827 C6828 1.287 . S
C6828 C6827 1.287 . S
C6828 C6829 1.524 . S
C6828 H6847 0.913 . S
C6829 H6805 0.950 . S
C6829 C6828 1.524 . S
C6829 C6830 1.415 . S
C6830 H6806 0.950 . S
C6830 C6825 1.363 . S
C6830 C6829 1.415 . S
C6831 H6807 0.951 . S
C6831 C6832 1.366 . S
C6831 C6833 1.388 . S
C6832 C6831 1.366 . S
C6832 C6836 1.385 . S
C6833 H6808 0.951 . S
C6833 C6831 1.388 . S
C6833 C6834 1.366 . S
C6834 C6833 1.366 . S
C6834 C6835 1.414 . S
C6834 C6837 1.499 . S
C6835 H6809 0.950 . S
C6835 C6834 1.414 . S
C6835 C6836 1.374 . S
C6836 H6810 0.950 . S
C6836 C6832 1.385 . S
C6836 C6835 1.374 . S
C6837 C6834 1.499 . S
C6837 C6838 1.373 . S
C6837 C6839 1.389 . S
C6838 H6811 0.950 . S
C6838 C6824 1.377 . S
C6838 C6837 1.373 . S
C6839 C6823 1.377 . S
C6839 C6837 1.389 . S
C6839 C6840 1.524 . S
C6840 C6839 1.524 . S
C6840 C6841 1.397 . S
C6840 C6845 1.363 . S
C6841 H6812 0.950 . S
C6841 C6840 1.397 . S
C6841 C6842 1.334 . S
C6842 H6813 0.950 . S
C6842 C6841 1.334 . S
C6842 C6843 1.287 . S
C6843 C6842 1.287 . S
C6843 C6844 1.524 . S
C6843 H6846 0.999 . S
C6844 H6814 0.950 . S
C6844 C6843 1.524 . S
C6844 C6845 1.415 . S
C6845 H6815 0.950 . S
C6845 C6840 1.363 . S
C6845 C6844 1.415 . S
H6846 C6843 0.999 . S
H6847 C6828 0.913 . S
H6848 C6866 0.951 . S
H6849 C6868 0.951 . S
H6850 C6870 0.950 . S
H6851 C6871 0.950 . S
H6852 C6873 0.950 . S
H6853 C6876 0.950 . S
H6854 C6877 0.950 . S
H6855 C6879 0.950 . S
H6856 C6880 0.950 . S
H6857 C6881 0.951 . S
H6858 C6883 0.951 . S
H6859 C6885 0.950 . S
H6860 C6886 0.950 . S
H6861 C6888 0.950 . S
H6862 C6891 0.950 . S
H6863 C6892 0.950 . S
H6864 C6894 0.950 . S
H6865 C6895 0.950 . S
C6866 H6848 0.951 . S
C6866 C6867 1.366 . S
C6866 C6868 1.388 . S
C6867 C6866 1.366 . S
C6867 C6871 1.385 . S
C6868 H6849 0.951 . S
C6868 C6866 1.388 . S
C6868 C6869 1.366 . S
C6869 C6868 1.366 . S
C6869 C6870 1.414 . S
C6869 C6872 1.499 . S
C6870 H6850 0.950 . S
C6870 C6869 1.414 . S
C6870 C6871 1.374 . S
C6871 H6851 0.950 . S
C6871 C6867 1.385 . S
C6871 C6870 1.374 . S
C6872 C6869 1.499 . S
C6872 C6873 1.373 . S
C6872 C6874 1.389 . S
C6873 H6852 0.950 . S
C6873 C6872 1.373 . S
C6873 C6889 1.377 . S
C6874 C6872 1.389 . S
C6874 C6875 1.524 . S
C6874 C6888 1.377 . S
C6875 C6874 1.524 . S
C6875 C6876 1.397 . S
C6875 C6880 1.363 . S
C6876 H6853 0.950 . S
C6876 C6875 1.397 . S
C6876 C6877 1.334 . S
C6877 H6854 0.950 . S
C6877 C6876 1.334 . S
C6877 C6878 1.287 . S
C6878 C6877 1.287 . S
C6878 C6879 1.524 . S
C6878 H6897 0.913 . S
C6879 H6855 0.950 . S
C6879 C6878 1.524 . S
C6879 C6880 1.415 . S
C6880 H6856 0.950 . S
C6880 C6875 1.363 . S
C6880 C6879 1.415 . S
C6881 H6857 0.951 . S
C6881 C6882 1.366 . S
C6881 C6883 1.388 . S
C6882 C6881 1.366 . S
C6882 C6886 1.385 . S
C6883 H6858 0.951 . S
C6883 C6881 1.388 . S
C6883 C6884 1.366 . S
C6884 C6883 1.366 . S
C6884 C6885 1.414 . S
C6884 C6887 1.499 . S
C6885 H6859 0.950 . S
C6885 C6884 1.414 . S
C6885 C6886 1.374 . S
C6886 H6860 0.950 . S
C6886 C6882 1.385 . S
C6886 C6885 1.374 . S
C6887 C6884 1.499 . S
C6887 C6888 1.373 . S
C6887 C6889 1.389 . S
C6888 H6861 0.950 . S
C6888 C6874 1.377 . S
C6888 C6887 1.373 . S
C6889 C6873 1.377 . S
C6889 C6887 1.389 . S
C6889 C6890 1.524 . S
C6890 C6889 1.524 . S
C6890 C6891 1.397 . S
C6890 C6895 1.363 . S
C6891 H6862 0.950 . S
C6891 C6890 1.397 . S
C6891 C6892 1.334 . S
C6892 H6863 0.950 . S
C6892 C6891 1.334 . S
C6892 C6893 1.287 . S
C6893 C6892 1.287 . S
C6893 C6894 1.524 . S
C6893 H6896 0.999 . S
C6894 H6864 0.950 . S
C6894 C6893 1.524 . S
C6894 C6895 1.415 . S
C6895 H6865 0.950 . S
C6895 C6890 1.363 . S
C6895 C6894 1.415 . S
H6896 C6893 0.999 . S
H6897 C6878 0.913 . S
H6898 C6916 0.951 . S
H6899 C6918 0.951 . S
H6900 C6920 0.950 . S
H6901 C6921 0.950 . S
H6902 C6923 0.950 . S
H6903 C6926 0.950 . S
H6904 C6927 0.950 . S
H6905 C6929 0.950 . S
H6906 C6930 0.950 . S
H6907 C6931 0.951 . S
H6908 C6933 0.951 . S
H6909 C6935 0.950 . S
H6910 C6936 0.950 . S
H6911 C6938 0.950 . S
H6912 C6941 0.950 . S
H6913 C6942 0.950 . S
H6914 C6944 0.950 . S
H6915 C6945 0.950 . S
C6916 H6898 0.951 . S
C6916 C6917 1.366 . S
C6916 C6918 1.388 . S
C6917 C6916 1.366 . S
C6917 C6921 1.385 . S
C6918 H6899 0.951 . S
C6918 C6916 1.388 . S
C6918 C6919 1.366 . S
C6919 C6918 1.366 . S
C6919 C6920 1.414 . S
C6919 C6922 1.499 . S
C6920 H6900 0.950 . S
C6920 C6919 1.414 . S
C6920 C6921 1.374 . S
C6921 H6901 0.950 . S
C6921 C6917 1.385 . S
C6921 C6920 1.374 . S
C6922 C6919 1.499 . S
C6922 C6923 1.373 . S
C6922 C6924 1.389 . S
C6923 H6902 0.950 . S
C6923 C6922 1.373 . S
C6923 C6939 1.377 . S
C6924 C6922 1.389 . S
C6924 C6925 1.524 . S
C6924 C6938 1.377 . S
C6925 C6924 1.524 . S
C6925 C6926 1.397 . S
C6925 C6930 1.363 . S
C6926 H6903 0.950 . S
C6926 C6925 1.397 . S
C6926 C6927 1.334 . S
C6927 H6904 0.950 . S
C6927 C6926 1.334 . S
C6927 C6928 1.287 . S
C6928 C6927 1.287 . S
C6928 C6929 1.524 . S
C6928 H6947 0.913 . S
C6929 H6905 0.950 . S
C6929 C6928 1.524 . S
C6929 C6930 1.415 . S
C6930 H6906 0.950 . S
C6930 C6925 1.363 . S
C6930 C6929 1.415 . S
C6931 H6907 0.951 . S
C6931 C6932 1.366 . S
C6931 C6933 1.388 . S
C6932 C6931 1.366 . S
C6932 C6936 1.385 . S
C6933 H6908 0.951 . S
C6933 C6931 1.388 . S
C6933 C6934 1.366 . S
C6934 C6933 1.366 . S
C6934 C6935 1.414 . S
C6934 C6937 1.499 . S
C6935 H6909 0.950 . S
C6935 C6934 1.414 . S
C6935 C6936 1.374 . S
C6936 H6910 0.950 . S
C6936 C6932 1.385 . S
C6936 C6935 1.374 . S
C6937 C6934 1.499 . S
C6937 C6938 1.373 . S
C6937 C6939 1.389 . S
C6938 H6911 0.950 . S
C6938 C6924 1.377 . S
C6938 C6937 1.373 . S
C6939 C6923 1.377 . S
C6939 C6937 1.389 . S
C6939 C6940 1.524 . S
C6940 C6939 1.524 . S
C6940 C6941 1.397 . S
C6940 C6945 1.363 . S
C6941 H6912 0.950 . S
C6941 C6940 1.397 . S
C6941 C6942 1.334 . S
C6942 H6913 0.950 . S
C6942 C6941 1.334 . S
C6942 C6943 1.287 . S
C6943 C6942 1.287 . S
C6943 C6944 1.524 . S
C6943 H6946 0.999 . S
C6944 H6914 0.950 . S
C6944 C6943 1.524 . S
C6944 C6945 1.415 . S
C6945 H6915 0.950 . S
C6945 C6940 1.363 . S
C6945 C6944 1.415 . S
H6946 C6943 0.999 . S
H6947 C6928 0.913 . S
H6948 C6966 0.951 . S
H6949 C6968 0.951 . S
H6950 C6970 0.950 . S
H6951 C6971 0.950 . S
H6952 C6973 0.950 . S
H6953 C6976 0.950 . S
H6954 C6977 0.950 . S
H6955 C6979 0.950 . S
H6956 C6980 0.950 . S
H6957 C6981 0.951 . S
H6958 C6983 0.951 . S
H6959 C6985 0.950 . S
H6960 C6986 0.950 . S
H6961 C6988 0.950 . S
H6962 C6991 0.950 . S
H6963 C6992 0.950 . S
H6964 C6994 0.950 . S
H6965 C6995 0.950 . S
C6966 H6948 0.951 . S
C6966 C6967 1.366 . S
C6966 C6968 1.388 . S
C6967 C6966 1.366 . S
C6967 C6971 1.385 . S
C6968 H6949 0.951 . S
C6968 C6966 1.388 . S
C6968 C6969 1.366 . S
C6969 C6968 1.366 . S
C6969 C6970 1.414 . S
C6969 C6972 1.499 . S
C6970 H6950 0.950 . S
C6970 C6969 1.414 . S
C6970 C6971 1.374 . S
C6971 H6951 0.950 . S
C6971 C6967 1.385 . S
C6971 C6970 1.374 . S
C6972 C6969 1.499 . S
C6972 C6973 1.373 . S
C6972 C6974 1.389 . S
C6973 H6952 0.950 . S
C6973 C6972 1.373 . S
C6973 C6989 1.377 . S
C6974 C6972 1.389 . S
C6974 C6975 1.524 . S
C6974 C6988 1.377 . S
C6975 C6974 1.524 . S
C6975 C6976 1.397 . S
C6975 C6980 1.363 . S
C6976 H6953 0.950 . S
C6976 C6975 1.397 . S
C6976 C6977 1.334 . S
C6977 H6954 0.950 . S
C6977 C6976 1.334 . S
C6977 C6978 1.287 . S
C6978 C6977 1.287 . S
C6978 C6979 1.524 . S
C6978 H6997 0.913 . S
C6979 H6955 0.950 . S
C6979 C6978 1.524 . S
C6979 C6980 1.415 . S
C6980 H6956 0.950 . S
C6980 C6975 1.363 . S
C6980 C6979 1.415 . S
C6981 H6957 0.951 . S
C6981 C6982 1.366 . S
C6981 C6983 1.388 . S
C6982 C6981 1.366 . S
C6982 C6986 1.385 . S
C6983 H6958 0.951 . S
C6983 C6981 1.388 . S
C6983 C6984 1.366 . S
C6984 C6983 1.366 . S
C6984 C6985 1.414 . S
C6984 C6987 1.499 . S
C6985 H6959 0.950 . S
C6985 C6984 1.414 . S
C6985 C6986 1.374 . S
C6986 H6960 0.950 . S
C6986 C6982 1.385 . S
C6986 C6985 1.374 . S
C6987 C6984 1.499 . S
C6987 C6988 1.373 . S
C6987 C6989 1.389 . S
C6988 H6961 0.950 . S
C6988 C6974 1.377 . S
C6988 C6987 1.373 . S
C6989 C6973 1.377 . S
C6989 C6987 1.389 . S
C6989 C6990 1.524 . S
C6990 C6989 1.524 . S
C6990 C6991 1.397 . S
C6990 C6995 1.363 . S
C6991 H6962 0.950 . S
C6991 C6990 1.397 . S
C6991 C6992 1.334 . S
C6992 H6963 0.950 . S
C6992 C6991 1.334 . S
C6992 C6993 1.287 . S
C6993 C6992 1.287 . S
C6993 C6994 1.524 . S
C6993 H6996 0.999 . S
C6994 H6964 0.950 . S
C6994 C6993 1.524 . S
C6994 C6995 1.415 . S
C6995 H6965 0.950 . S
C6995 C6990 1.363 . S
C6995 C6994 1.415 . S
H6996 C6993 0.999 . S
H6997 C6978 0.913 . S
H6998 C7016 0.951 . S
H6999 C7018 0.951 . S
H7000 C7020 0.950 . S
H7001 C7021 0.950 . S
H7002 C7023 0.950 . S
H7003 C7026 0.950 . S
H7004 C7027 0.950 . S
H7005 C7029 0.950 . S
H7006 C7030 0.950 . S
H7007 C7031 0.951 . S
H7008 C7033 0.951 . S
H7009 C7035 0.950 . S
H7010 C7036 0.950 . S
H7011 C7038 0.950 . S
H7012 C7041 0.950 . S
H7013 C7042 0.950 . S
H7014 C7044 0.950 . S
H7015 C7045 0.950 . S
C7016 H6998 0.951 . S
C7016 C7017 1.366 . S
C7016 C7018 1.388 . S
C7017 C7016 1.366 . S
C7017 C7021 1.385 . S
C7018 H6999 0.951 . S
C7018 C7016 1.388 . S
C7018 C7019 1.366 . S
C7019 C7018 1.366 . S
C7019 C7020 1.414 . S
C7019 C7022 1.499 . S
C7020 H7000 0.950 . S
C7020 C7019 1.414 . S
C7020 C7021 1.374 . S
C7021 H7001 0.950 . S
C7021 C7017 1.385 . S
C7021 C7020 1.374 . S
C7022 C7019 1.499 . S
C7022 C7023 1.373 . S
C7022 C7024 1.389 . S
C7023 H7002 0.950 . S
C7023 C7022 1.373 . S
C7023 C7039 1.377 . S
C7024 C7022 1.389 . S
C7024 C7025 1.524 . S
C7024 C7038 1.377 . S
C7025 C7024 1.524 . S
C7025 C7026 1.397 . S
C7025 C7030 1.363 . S
C7026 H7003 0.950 . S
C7026 C7025 1.397 . S
C7026 C7027 1.334 . S
C7027 H7004 0.950 . S
C7027 C7026 1.334 . S
C7027 C7028 1.287 . S
C7028 C7027 1.287 . S
C7028 C7029 1.524 . S
C7028 H7047 0.913 . S
C7029 H7005 0.950 . S
C7029 C7028 1.524 . S
C7029 C7030 1.415 . S
C7030 H7006 0.950 . S
C7030 C7025 1.363 . S
C7030 C7029 1.415 . S
C7031 H7007 0.951 . S
C7031 C7032 1.366 . S
C7031 C7033 1.388 . S
C7032 C7031 1.366 . S
C7032 C7036 1.385 . S
C7033 H7008 0.951 . S
C7033 C7031 1.388 . S
C7033 C7034 1.366 . S
C7034 C7033 1.366 . S
C7034 C7035 1.414 . S
C7034 C7037 1.499 . S
C7035 H7009 0.950 . S
C7035 C7034 1.414 . S
C7035 C7036 1.374 . S
C7036 H7010 0.950 . S
C7036 C7032 1.385 . S
C7036 C7035 1.374 . S
C7037 C7034 1.499 . S
C7037 C7038 1.373 . S
C7037 C7039 1.389 . S
C7038 H7011 0.950 . S
C7038 C7024 1.377 . S
C7038 C7037 1.373 . S
C7039 C7023 1.377 . S
C7039 C7037 1.389 . S
C7039 C7040 1.524 . S
C7040 C7039 1.524 . S
C7040 C7041 1.397 . S
C7040 C7045 1.363 . S
C7041 H7012 0.950 . S
C7041 C7040 1.397 . S
C7041 C7042 1.334 . S
C7042 H7013 0.950 . S
C7042 C7041 1.334 . S
C7042 C7043 1.287 . S
C7043 C7042 1.287 . S
C7043 C7044 1.524 . S
C7043 H7046 0.999 . S
C7044 H7014 0.950 . S
C7044 C7043 1.524 . S
C7044 C7045 1.415 . S
C7045 H7015 0.950 . S
C7045 C7040 1.363 . S
C7045 C7044 1.415 . S
H7046 C7043 0.999 . S
H7047 C7028 0.913 . S
H7048 C7066 0.951 . S
H7049 C7068 0.951 . S
H7050 C7070 0.950 . S
H7051 C7071 0.950 . S
H7052 C7073 0.950 . S
H7053 C7076 0.950 . S
H7054 C7077 0.950 . S
H7055 C7079 0.950 . S
H7056 C7080 0.950 . S
H7057 C7081 0.951 . S
H7058 C7083 0.951 . S
H7059 C7085 0.950 . S
H7060 C7086 0.950 . S
H7061 C7088 0.950 . S
H7062 C7091 0.950 . S
H7063 C7092 0.950 . S
H7064 C7094 0.950 . S
H7065 C7095 0.950 . S
C7066 H7048 0.951 . S
C7066 C7067 1.366 . S
C7066 C7068 1.388 . S
C7067 C7066 1.366 . S
C7067 C7071 1.385 . S
C7068 H7049 0.951 . S
C7068 C7066 1.388 . S
C7068 C7069 1.366 . S
C7069 C7068 1.366 . S
C7069 C7070 1.414 . S
C7069 C7072 1.499 . S
C7070 H7050 0.950 . S
C7070 C7069 1.414 . S
C7070 C7071 1.374 . S
C7071 H7051 0.950 . S
C7071 C7067 1.385 . S
C7071 C7070 1.374 . S
C7072 C7069 1.499 . S
C7072 C7073 1.373 . S
C7072 C7074 1.389 . S
C7073 H7052 0.950 . S
C7073 C7072 1.373 . S
C7073 C7089 1.377 . S
C7074 C7072 1.389 . S
C7074 C7075 1.524 . S
C7074 C7088 1.377 . S
C7075 C7074 1.524 . S
C7075 C7076 1.397 . S
C7075 C7080 1.363 . S
C7076 H7053 0.950 . S
C7076 C7075 1.397 . S
C7076 C7077 1.334 . S
C7077 H7054 0.950 . S
C7077 C7076 1.334 . S
C7077 C7078 1.287 . S
C7078 C7077 1.287 . S
C7078 C7079 1.524 . S
C7078 H7097 0.913 . S
C7079 H7055 0.950 . S
C7079 C7078 1.524 . S
C7079 C7080 1.415 . S
C7080 H7056 0.950 . S
C7080 C7075 1.363 . S
C7080 C7079 1.415 . S
C7081 H7057 0.951 . S
C7081 C7082 1.366 . S
C7081 C7083 1.388 . S
C7082 C7081 1.366 . S
C7082 C7086 1.385 . S
C7083 H7058 0.951 . S
C7083 C7081 1.388 . S
C7083 C7084 1.366 . S
C7084 C7083 1.366 . S
C7084 C7085 1.414 . S
C7084 C7087 1.499 . S
C7085 H7059 0.950 . S
C7085 C7084 1.414 . S
C7085 C7086 1.374 . S
C7086 H7060 0.950 . S
C7086 C7082 1.385 . S
C7086 C7085 1.374 . S
C7087 C7084 1.499 . S
C7087 C7088 1.373 . S
C7087 C7089 1.389 . S
C7088 H7061 0.950 . S
C7088 C7074 1.377 . S
C7088 C7087 1.373 . S
C7089 C7073 1.377 . S
C7089 C7087 1.389 . S
C7089 C7090 1.524 . S
C7090 C7089 1.524 . S
C7090 C7091 1.397 . S
C7090 C7095 1.363 . S
C7091 H7062 0.950 . S
C7091 C7090 1.397 . S
C7091 C7092 1.334 . S
C7092 H7063 0.950 . S
C7092 C7091 1.334 . S
C7092 C7093 1.287 . S
C7093 C7092 1.287 . S
C7093 C7094 1.524 . S
C7093 H7096 0.999 . S
C7094 H7064 0.950 . S
C7094 C7093 1.524 . S
C7094 C7095 1.415 . S
C7095 H7065 0.950 . S
C7095 C7090 1.363 . S
C7095 C7094 1.415 . S
H7096 C7093 0.999 . S
H7097 C7078 0.913 . S
H7098 C7116 0.951 . S
H7099 C7118 0.951 . S
H7100 C7120 0.950 . S
H7101 C7121 0.950 . S
H7102 C7123 0.950 . S
H7103 C7126 0.950 . S
H7104 C7127 0.950 . S
H7105 C7129 0.950 . S
H7106 C7130 0.950 . S
H7107 C7131 0.951 . S
H7108 C7133 0.951 . S
H7109 C7135 0.950 . S
H7110 C7136 0.950 . S
H7111 C7138 0.950 . S
H7112 C7141 0.950 . S
H7113 C7142 0.950 . S
H7114 C7144 0.950 . S
H7115 C7145 0.950 . S
C7116 H7098 0.951 . S
C7116 C7117 1.366 . S
C7116 C7118 1.388 . S
C7117 C7116 1.366 . S
C7117 C7121 1.385 . S
C7118 H7099 0.951 . S
C7118 C7116 1.388 . S
C7118 C7119 1.366 . S
C7119 C7118 1.366 . S
C7119 C7120 1.414 . S
C7119 C7122 1.499 . S
C7120 H7100 0.950 . S
C7120 C7119 1.414 . S
C7120 C7121 1.374 . S
C7121 H7101 0.950 . S
C7121 C7117 1.385 . S
C7121 C7120 1.374 . S
C7122 C7119 1.499 . S
C7122 C7123 1.373 . S
C7122 C7124 1.389 . S
C7123 H7102 0.950 . S
C7123 C7122 1.373 . S
C7123 C7139 1.377 . S
C7124 C7122 1.389 . S
C7124 C7125 1.524 . S
C7124 C7138 1.377 . S
C7125 C7124 1.524 . S
C7125 C7126 1.397 . S
C7125 C7130 1.363 . S
C7126 H7103 0.950 . S
C7126 C7125 1.397 . S
C7126 C7127 1.334 . S
C7127 H7104 0.950 . S
C7127 C7126 1.334 . S
C7127 C7128 1.287 . S
C7128 C7127 1.287 . S
C7128 C7129 1.524 . S
C7128 H7147 0.913 . S
C7129 H7105 0.950 . S
C7129 C7128 1.524 . S
C7129 C7130 1.415 . S
C7130 H7106 0.950 . S
C7130 C7125 1.363 . S
C7130 C7129 1.415 . S
C7131 H7107 0.951 . S
C7131 C7132 1.366 . S
C7131 C7133 1.388 . S
C7132 C7131 1.366 . S
C7132 C7136 1.385 . S
C7133 H7108 0.951 . S
C7133 C7131 1.388 . S
C7133 C7134 1.366 . S
C7134 C7133 1.366 . S
C7134 C7135 1.414 . S
C7134 C7137 1.499 . S
C7135 H7109 0.950 . S
C7135 C7134 1.414 . S
C7135 C7136 1.374 . S
C7136 H7110 0.950 . S
C7136 C7132 1.385 . S
C7136 C7135 1.374 . S
C7137 C7134 1.499 . S
C7137 C7138 1.373 . S
C7137 C7139 1.389 . S
C7138 H7111 0.950 . S
C7138 C7124 1.377 . S
C7138 C7137 1.373 . S
C7139 C7123 1.377 . S
C7139 C7137 1.389 . S
C7139 C7140 1.524 . S
C7140 C7139 1.524 . S
C7140 C7141 1.397 . S
C7140 C7145 1.363 . S
C7141 H7112 0.950 . S
C7141 C7140 1.397 . S
C7141 C7142 1.334 . S
C7142 H7113 0.950 . S
C7142 C7141 1.334 . S
C7142 C7143 1.287 . S
C7143 C7142 1.287 . S
C7143 C7144 1.524 . S
C7143 H7146 0.999 . S
C7144 H7114 0.950 . S
C7144 C7143 1.524 . S
C7144 C7145 1.415 . S
C7145 H7115 0.950 . S
C7145 C7140 1.363 . S
C7145 C7144 1.415 . S
H7146 C7143 0.999 . S
H7147 C7128 0.913 . S
H7148 C7166 0.951 . S
H7149 C7168 0.951 . S
H7150 C7170 0.950 . S
H7151 C7171 0.950 . S
H7152 C7173 0.950 . S
H7153 C7176 0.950 . S
H7154 C7177 0.950 . S
H7155 C7179 0.950 . S
H7156 C7180 0.950 . S
H7157 C7181 0.951 . S
H7158 C7183 0.951 . S
H7159 C7185 0.950 . S
H7160 C7186 0.950 . S
H7161 C7188 0.950 . S
H7162 C7191 0.950 . S
H7163 C7192 0.950 . S
H7164 C7194 0.950 . S
H7165 C7195 0.950 . S
C7166 H7148 0.951 . S
C7166 C7167 1.366 . S
C7166 C7168 1.388 . S
C7167 C7166 1.366 . S
C7167 C7171 1.385 . S
C7168 H7149 0.951 . S
C7168 C7166 1.388 . S
C7168 C7169 1.366 . S
C7169 C7168 1.366 . S
C7169 C7170 1.414 . S
C7169 C7172 1.499 . S
C7170 H7150 0.950 . S
C7170 C7169 1.414 . S
C7170 C7171 1.374 . S
C7171 H7151 0.950 . S
C7171 C7167 1.385 . S
C7171 C7170 1.374 . S
C7172 C7169 1.499 . S
C7172 C7173 1.373 . S
C7172 C7174 1.389 . S
C7173 H7152 0.950 . S
C7173 C7172 1.373 . S
C7173 C7189 1.377 . S
C7174 C7172 1.389 . S
C7174 C7175 1.524 . S
C7174 C7188 1.377 . S
C7175 C7174 1.524 . S
C7175 C7176 1.397 . S
C7175 C7180 1.363 . S
C7176 H7153 0.950 . S
C7176 C7175 1.397 . S
C7176 C7177 1.334 . S
C7177 H7154 0.950 . S
C7177 C7176 1.334 . S
C7177 C7178 1.287 . S
C7178 C7177 1.287 . S
C7178 C7179 1.524 . S
C7178 H7197 0.913 . S
C7179 H7155 0.950 . S
C7179 C7178 1.524 . S
C7179 C7180 1.415 . S
C7180 H7156 0.950 . S
C7180 C7175 1.363 . S
C7180 C7179 1.415 . S
C7181 H7157 0.951 . S
C7181 C7182 1.366 . S
C7181 C7183 1.388 . S
C7182 C7181 1.366 . S
C7182 C7186 1.385 . S
C7183 H7158 0.951 . S
C7183 C7181 1.388 . S
C7183 C7184 1.366 . S
C7184 C7183 1.366 . S
C7184 C7185 1.414 . S
C7184 C7187 1.499 . S
C7185 H7159 0.950 . S
C7185 C7184 1.414 . S
C7185 C7186 1.374 . S
C7186 H7160 0.950 . S
C7186 C7182 1.385 . S
C7186 C7185 1.374 . S
C7187 C7184 1.499 . S
C7187 C7188 1.373 . S
C7187 C7189 1.389 . S
C7188 H7161 0.950 . S
C7188 C7174 1.377 . S
C7188 C7187 1.373 . S
C7189 C7173 1.377 . S
C7189 C7187 1.389 . S
C7189 C7190 1.524 . S
C7190 C7189 1.524 . S
C7190 C7191 1.397 . S
C7190 C7195 1.363 . S
C7191 H7162 0.950 . S
C7191 C7190 1.397 . S
C7191 C7192 1.334 . S
C7192 H7163 0.950 . S
C7192 C7191 1.334 . S
C7192 C7193 1.287 . S
C7193 C7192 1.287 . S
C7193 C7194 1.524 . S
C7193 H7196 0.999 . S
C7194 H7164 0.950 . S
C7194 C7193 1.524 . S
C7194 C7195 1.415 . S
C7195 H7165 0.950 . S
C7195 C7190 1.363 . S
C7195 C7194 1.415 . S
H7196 C7193 0.999 . S
H7197 C7178 0.913 . S
H7198 C7216 0.951 . S
H7199 C7218 0.951 . S
H7200 C7220 0.950 . S
H7201 C7221 0.950 . S
H7202 C7223 0.950 . S
H7203 C7226 0.950 . S
H7204 C7227 0.950 . S
H7205 C7229 0.950 . S
H7206 C7230 0.950 . S
H7207 C7231 0.951 . S
H7208 C7233 0.951 . S
H7209 C7235 0.950 . S
H7210 C7236 0.950 . S
H7211 C7238 0.950 . S
H7212 C7241 0.950 . S
H7213 C7242 0.950 . S
H7214 C7244 0.950 . S
H7215 C7245 0.950 . S
C7216 H7198 0.951 . S
C7216 C7217 1.366 . S
C7216 C7218 1.388 . S
C7217 C7216 1.366 . S
C7217 C7221 1.385 . S
C7218 H7199 0.951 . S
C7218 C7216 1.388 . S
C7218 C7219 1.366 . S
C7219 C7218 1.366 . S
C7219 C7220 1.414 . S
C7219 C7222 1.499 . S
C7220 H7200 0.950 . S
C7220 C7219 1.414 . S
C7220 C7221 1.374 . S
C7221 H7201 0.950 . S
C7221 C7217 1.385 . S
C7221 C7220 1.374 . S
C7222 C7219 1.499 . S
C7222 C7223 1.373 . S
C7222 C7224 1.389 . S
C7223 H7202 0.950 . S
C7223 C7222 1.373 . S
C7223 C7239 1.377 . S
C7224 C7222 1.389 . S
C7224 C7225 1.524 . S
C7224 C7238 1.377 . S
C7225 C7224 1.524 . S
C7225 C7226 1.397 . S
C7225 C7230 1.363 . S
C7226 H7203 0.950 . S
C7226 C7225 1.397 . S
C7226 C7227 1.334 . S
C7227 H7204 0.950 . S
C7227 C7226 1.334 . S
C7227 C7228 1.287 . S
C7228 C7227 1.287 . S
C7228 C7229 1.524 . S
C7228 H7247 0.913 . S
C7229 H7205 0.950 . S
C7229 C7228 1.524 . S
C7229 C7230 1.415 . S
C7230 H7206 0.950 . S
C7230 C7225 1.363 . S
C7230 C7229 1.415 . S
C7231 H7207 0.951 . S
C7231 C7232 1.366 . S
C7231 C7233 1.388 . S
C7232 C7231 1.366 . S
C7232 C7236 1.385 . S
C7233 H7208 0.951 . S
C7233 C7231 1.388 . S
C7233 C7234 1.366 . S
C7234 C7233 1.366 . S
C7234 C7235 1.414 . S
C7234 C7237 1.499 . S
C7235 H7209 0.950 . S
C7235 C7234 1.414 . S
C7235 C7236 1.374 . S
C7236 H7210 0.950 . S
C7236 C7232 1.385 . S
C7236 C7235 1.374 . S
C7237 C7234 1.499 . S
C7237 C7238 1.373 . S
C7237 C7239 1.389 . S
C7238 H7211 0.950 . S
C7238 C7224 1.377 . S
C7238 C7237 1.373 . S
C7239 C7223 1.377 . S
C7239 C7237 1.389 . S
C7239 C7240 1.524 . S
C7240 C7239 1.524 . S
C7240 C7241 1.397 . S
C7240 C7245 1.363 . S
C7241 H7212 0.950 . S
C7241 C7240 1.397 . S
C7241 C7242 1.334 . S
C7242 H7213 0.950 . S
C7242 C7241 1.334 . S
C7242 C7243 1.287 . S
C7243 C7242 1.287 . S
C7243 C7244 1.524 . S
C7243 H7246 0.999 . S
C7244 H7214 0.950 . S
C7244 C7243 1.524 . S
C7244 C7245 1.415 . S
C7245 H7215 0.950 . S
C7245 C7240 1.363 . S
C7245 C7244 1.415 . S
H7246 C7243 0.999 . S
H7247 C7228 0.913 . S
H7248 C7266 0.951 . S
H7249 C7268 0.951 . S
H7250 C7270 0.950 . S
H7251 C7271 0.950 . S
H7252 C7273 0.950 . S
H7253 C7276 0.950 . S
H7254 C7277 0.950 . S
H7255 C7279 0.950 . S
H7256 C7280 0.950 . S
H7257 C7281 0.951 . S
H7258 C7283 0.951 . S
H7259 C7285 0.950 . S
H7260 C7286 0.950 . S
H7261 C7288 0.950 . S
H7262 C7291 0.950 . S
H7263 C7292 0.950 . S
H7264 C7294 0.950 . S
H7265 C7295 0.950 . S
C7266 H7248 0.951 . S
C7266 C7267 1.366 . S
C7266 C7268 1.388 . S
C7267 C7266 1.366 . S
C7267 C7271 1.385 . S
C7268 H7249 0.951 . S
C7268 C7266 1.388 . S
C7268 C7269 1.366 . S
C7269 C7268 1.366 . S
C7269 C7270 1.414 . S
C7269 C7272 1.499 . S
C7270 H7250 0.950 . S
C7270 C7269 1.414 . S
C7270 C7271 1.374 . S
C7271 H7251 0.950 . S
C7271 C7267 1.385 . S
C7271 C7270 1.374 . S
C7272 C7269 1.499 . S
C7272 C7273 1.373 . S
C7272 C7274 1.389 . S
C7273 H7252 0.950 . S
C7273 C7272 1.373 . S
C7273 C7289 1.377 . S
C7274 C7272 1.389 . S
C7274 C7275 1.524 . S
C7274 C7288 1.377 . S
C7275 C7274 1.524 . S
C7275 C7276 1.397 . S
C7275 C7280 1.363 . S
C7276 H7253 0.950 . S
C7276 C7275 1.397 . S
C7276 C7277 1.334 . S
C7277 H7254 0.950 . S
C7277 C7276 1.334 . S
C7277 C7278 1.287 . S
C7278 C7277 1.287 . S
C7278 C7279 1.524 . S
C7278 H7297 0.913 . S
C7279 H7255 0.950 . S
C7279 C7278 1.524 . S
C7279 C7280 1.415 . S
C7280 H7256 0.950 . S
C7280 C7275 1.363 . S
C7280 C7279 1.415 . S
C7281 H7257 0.951 . S
C7281 C7282 1.366 . S
C7281 C7283 1.388 . S
C7282 C7281 1.366 . S
C7282 C7286 1.385 . S
C7283 H7258 0.951 . S
C7283 C7281 1.388 . S
C7283 C7284 1.366 . S
C7284 C7283 1.366 . S
C7284 C7285 1.414 . S
C7284 C7287 1.499 . S
C7285 H7259 0.950 . S
C7285 C7284 1.414 . S
C7285 C7286 1.374 . S
C7286 H7260 0.950 . S
C7286 C7282 1.385 . S
C7286 C7285 1.374 . S
C7287 C7284 1.499 . S
C7287 C7288 1.373 . S
C7287 C7289 1.389 . S
C7288 H7261 0.950 . S
C7288 C7274 1.377 . S
C7288 C7287 1.373 . S
C7289 C7273 1.377 . S
C7289 C7287 1.389 . S
C7289 C7290 1.524 . S
C7290 C7289 1.524 . S
C7290 C7291 1.397 . S
C7290 C7295 1.363 . S
C7291 H7262 0.950 . S
C7291 C7290 1.397 . S
C7291 C7292 1.334 . S
C7292 H7263 0.950 . S
C7292 C7291 1.334 . S
C7292 C7293 1.287 . S
C7293 C7292 1.287 . S
C7293 C7294 1.524 . S
C7293 H7296 0.999 . S
C7294 H7264 0.950 . S
C7294 C7293 1.524 . S
C7294 C7295 1.415 . S
C7295 H7265 0.950 . S
C7295 C7290 1.363 . S
C7295 C7294 1.415 . S
H7296 C7293 0.999 . S
H7297 C7278 0.913 . S
H7298 C7316 0.951 . S
H7299 C7318 0.951 . S
H7300 C7320 0.950 . S
H7301 C7321 0.950 . S
H7302 C7323 0.950 . S
H7303 C7326 0.950 . S
H7304 C7327 0.950 . S
H7305 C7329 0.950 . S
H7306 C7330 0.950 . S
H7307 C7331 0.951 . S
H7308 C7333 0.951 . S
H7309 C7335 0.950 . S
H7310 C7336 0.950 . S
H7311 C7338 0.950 . S
H7312 C7341 0.950 . S
H7313 C7342 0.950 . S
H7314 C7344 0.950 . S
H7315 C7345 0.950 . S
C7316 H7298 0.951 . S
C7316 C7317 1.366 . S
C7316 C7318 1.388 . S
C7317 C7316 1.366 . S
C7317 C7321 1.385 . S
C7318 H7299 0.951 . S
C7318 C7316 1.388 . S
C7318 C7319 1.366 . S
C7319 C7318 1.366 . S
C7319 C7320 1.414 . S
C7319 C7322 1.499 . S
C7320 H7300 0.950 . S
C7320 C7319 1.414 . S
C7320 C7321 1.374 . S
C7321 H7301 0.950 . S
C7321 C7317 1.385 . S
C7321 C7320 1.374 . S
C7322 C7319 1.499 . S
C7322 C7323 1.373 . S
C7322 C7324 1.389 . S
C7323 H7302 0.950 . S
C7323 C7322 1.373 . S
C7323 C7339 1.377 . S
C7324 C7322 1.389 . S
C7324 C7325 1.524 . S
C7324 C7338 1.377 . S
C7325 C7324 1.524 . S
C7325 C7326 1.397 . S
C7325 C7330 1.363 . S
C7326 H7303 0.950 . S
C7326 C7325 1.397 . S
C7326 C7327 1.334 . S
C7327 H7304 0.950 . S
C7327 C7326 1.334 . S
C7327 C7328 1.287 . S
C7328 C7327 1.287 . S
C7328 C7329 1.524 . S
C7328 H7347 0.913 . S
C7329 H7305 0.950 . S
C7329 C7328 1.524 . S
C7329 C7330 1.415 . S
C7330 H7306 0.950 . S
C7330 C7325 1.363 . S
C7330 C7329 1.415 . S
C7331 H7307 0.951 . S
C7331 C7332 1.366 . S
C7331 C7333 1.388 . S
C7332 C7331 1.366 . S
C7332 C7336 1.385 . S
C7333 H7308 0.951 . S
C7333 C7331 1.388 . S
C7333 C7334 1.366 . S
C7334 C7333 1.366 . S
C7334 C7335 1.414 . S
C7334 C7337 1.499 . S
C7335 H7309 0.950 . S
C7335 C7334 1.414 . S
C7335 C7336 1.374 . S
C7336 H7310 0.950 . S
C7336 C7332 1.385 . S
C7336 C7335 1.374 . S
C7337 C7334 1.499 . S
C7337 C7338 1.373 . S
C7337 C7339 1.389 . S
C7338 H7311 0.950 . S
C7338 C7324 1.377 . S
C7338 C7337 1.373 . S
C7339 C7323 1.377 . S
C7339 C7337 1.389 . S
C7339 C7340 1.524 . S
C7340 C7339 1.524 . S
C7340 C7341 1.397 . S
C7340 C7345 1.363 . S
C7341 H7312 0.950 . S
C7341 C7340 1.397 . S
C7341 C7342 1.334 . S
C7342 H7313 0.950 . S
C7342 C7341 1.334 . S
C7342 C7343 1.287 . S
C7343 C7342 1.287 . S
C7343 C7344 1.524 . S
C7343 H7346 0.999 . S
C7344 H7314 0.950 . S
C7344 C7343 1.524 . S
C7344 C7345 1.415 . S
C7345 H7315 0.950 . S
C7345 C7340 1.363 . S
C7345 C7344 1.415 . S
H7346 C7343 0.999 . S
H7347 C7328 0.913 . S
H7348 C7366 0.951 . S
H7349 C7368 0.951 . S
H7350 C7370 0.950 . S
H7351 C7371 0.950 . S
H7352 C7373 0.950 . S
H7353 C7376 0.950 . S
H7354 C7377 0.950 . S
H7355 C7379 0.950 . S
H7356 C7380 0.950 . S
H7357 C7381 0.951 . S
H7358 C7383 0.951 . S
H7359 C7385 0.950 . S
H7360 C7386 0.950 . S
H7361 C7388 0.950 . S
H7362 C7391 0.950 . S
H7363 C7392 0.950 . S
H7364 C7394 0.950 . S
H7365 C7395 0.950 . S
C7366 H7348 0.951 . S
C7366 C7367 1.366 . S
C7366 C7368 1.388 . S
C7367 C7366 1.366 . S
C7367 C7371 1.385 . S
C7368 H7349 0.951 . S
C7368 C7366 1.388 . S
C7368 C7369 1.366 . S
C7369 C7368 1.366 . S
C7369 C7370 1.414 . S
C7369 C7372 1.499 . S
C7370 H7350 0.950 . S
C7370 C7369 1.414 . S
C7370 C7371 1.374 . S
C7371 H7351 0.950 . S
C7371 C7367 1.385 . S
C7371 C7370 1.374 . S
C7372 C7369 1.499 . S
C7372 C7373 1.373 . S
C7372 C7374 1.389 . S
C7373 H7352 0.950 . S
C7373 C7372 1.373 . S
C7373 C7389 1.377 . S
C7374 C7372 1.389 . S
C7374 C7375 1.524 . S
C7374 C7388 1.377 . S
C7375 C7374 1.524 . S
C7375 C7376 1.397 . S
C7375 C7380 1.363 . S
C7376 H7353 0.950 . S
C7376 C7375 1.397 . S
C7376 C7377 1.334 . S
C7377 H7354 0.950 . S
C7377 C7376 1.334 . S
C7377 C7378 1.287 . S
C7378 C7377 1.287 . S
C7378 C7379 1.524 . S
C7378 H7397 0.913 . S
C7379 H7355 0.950 . S
C7379 C7378 1.524 . S
C7379 C7380 1.415 . S
C7380 H7356 0.950 . S
C7380 C7375 1.363 . S
C7380 C7379 1.415 . S
C7381 H7357 0.951 . S
C7381 C7382 1.366 . S
C7381 C7383 1.388 . S
C7382 C7381 1.366 . S
C7382 C7386 1.385 . S
C7383 H7358 0.951 . S
C7383 C7381 1.388 . S
C7383 C7384 1.366 . S
C7384 C7383 1.366 . S
C7384 C7385 1.414 . S
C7384 C7387 1.499 . S
C7385 H7359 0.950 . S
C7385 C7384 1.414 . S
C7385 C7386 1.374 . S
C7386 H7360 0.950 . S
C7386 C7382 1.385 . S
C7386 C7385 1.374 . S
C7387 C7384 1.499 . S
C7387 C7388 1.373 . S
C7387 C7389 1.389 . S
C7388 H7361 0.950 . S
C7388 C7374 1.377 . S
C7388 C7387 1.373 . S
C7389 C7373 1.377 . S
C7389 C7387 1.389 . S
C7389 C7390 1.524 . S
C7390 C7389 1.524 . S
C7390 C7391 1.397 . S
C7390 C7395 1.363 . S
C7391 H7362 0.950 . S
C7391 C7390 1.397 . S
C7391 C7392 1.334 . S
C7392 H7363 0.950 . S
C7392 C7391 1.334 . S
C7392 C7393 1.287 . S
C7393 C7392 1.287 . S
C7393 C7394 1.524 . S
C7393 H7396 0.999 . S
C7394 H7364 0.950 . S
C7394 C7393 1.524 . S
C7394 C7395 1.415 . S
C7395 H7365 0.950 . S
C7395 C7390 1.363 . S
C7395 C7394 1.415 . S
H7396 C7393 0.999 . S
H7397 C7378 0.913 . S
H7398 C7416 0.951 . S
H7399 C7418 0.951 . S
H7400 C7420 0.950 . S
H7401 C7421 0.950 . S
H7402 C7423 0.950 . S
H7403 C7426 0.950 . S
H7404 C7427 0.950 . S
H7405 C7429 0.950 . S
H7406 C7430 0.950 . S
H7407 C7431 0.951 . S
H7408 C7433 0.951 . S
H7409 C7435 0.950 . S
H7410 C7436 0.950 . S
H7411 C7438 0.950 . S
H7412 C7441 0.950 . S
H7413 C7442 0.950 . S
H7414 C7444 0.950 . S
H7415 C7445 0.950 . S
C7416 H7398 0.951 . S
C7416 C7417 1.366 . S
C7416 C7418 1.388 . S
C7417 C7416 1.366 . S
C7417 C7421 1.385 . S
C7418 H7399 0.951 . S
C7418 C7416 1.388 . S
C7418 C7419 1.366 . S
C7419 C7418 1.366 . S
C7419 C7420 1.414 . S
C7419 C7422 1.499 . S
C7420 H7400 0.950 . S
C7420 C7419 1.414 . S
C7420 C7421 1.374 . S
C7421 H7401 0.950 . S
C7421 C7417 1.385 . S
C7421 C7420 1.374 . S
C7422 C7419 1.499 . S
C7422 C7423 1.373 . S
C7422 C7424 1.389 . S
C7423 H7402 0.950 . S
C7423 C7422 1.373 . S
C7423 C7439 1.377 . S
C7424 C7422 1.389 . S
C7424 C7425 1.524 . S
C7424 C7438 1.377 . S
C7425 C7424 1.524 . S
C7425 C7426 1.397 . S
C7425 C7430 1.363 . S
C7426 H7403 0.950 . S
C7426 C7425 1.397 . S
C7426 C7427 1.334 . S
C7427 H7404 0.950 . S
C7427 C7426 1.334 . S
C7427 C7428 1.287 . S
C7428 C7427 1.287 . S
C7428 C7429 1.524 . S
C7428 H7447 0.913 . S
C7429 H7405 0.950 . S
C7429 C7428 1.524 . S
C7429 C7430 1.415 . S
C7430 H7406 0.950 . S
C7430 C7425 1.363 . S
C7430 C7429 1.415 . S
C7431 H7407 0.951 . S
C7431 C7432 1.366 . S
C7431 C7433 1.388 . S
C7432 C7431 1.366 . S
C7432 C7436 1.385 . S
C7433 H7408 0.951 . S
C7433 C7431 1.388 . S
C7433 C7434 1.366 . S
C7434 C7433 1.366 . S
C7434 C7435 1.414 . S
C7434 C7437 1.499 . S
C7435 H7409 0.950 . S
C7435 C7434 1.414 . S
C7435 C7436 1.374 . S
C7436 H7410 0.950 . S
C7436 C7432 1.385 . S
C7436 C7435 1.374 . S
C7437 C7434 1.499 . S
C7437 C7438 1.373 . S
C7437 C7439 1.389 . S
C7438 H7411 0.950 . S
C7438 C7424 1.377 . S
C7438 C7437 1.373 . S
C7439 C7423 1.377 . S
C7439 C7437 1.389 . S
C7439 C7440 1.524 . S
C7440 C7439 1.524 . S
C7440 C7441 1.397 . S
C7440 C7445 1.363 . S
C7441 H7412 0.950 . S
C7441 C7440 1.397 . S
C7441 C7442 1.334 . S
C7442 H7413 0.950 . S
C7442 C7441 1.334 . S
C7442 C7443 1.287 . S
C7443 C7442 1.287 . S
C7443 C7444 1.524 . S
C7443 H7446 0.999 . S
C7444 H7414 0.950 . S
C7444 C7443 1.524 . S
C7444 C7445 1.415 . S
C7445 H7415 0.950 . S
C7445 C7440 1.363 . S
C7445 C7444 1.415 . S
H7446 C7443 0.999 . S
H7447 C7428 0.913 . S
H7448 C7466 0.951 . S
H7449 C7468 0.951 . S
H7450 C7470 0.950 . S
H7451 C7471 0.950 . S
H7452 C7473 0.950 . S
H7453 C7476 0.950 . S
H7454 C7477 0.950 . S
H7455 C7479 0.950 . S
H7456 C7480 0.950 . S
H7457 C7481 0.951 . S
H7458 C7483 0.951 . S
H7459 C7485 0.950 . S
H7460 C7486 0.950 . S
H7461 C7488 0.950 . S
H7462 C7491 0.950 . S
H7463 C7492 0.950 . S
H7464 C7494 0.950 . S
H7465 C7495 0.950 . S
C7466 H7448 0.951 . S
C7466 C7467 1.366 . S
C7466 C7468 1.388 . S
C7467 C7466 1.366 . S
C7467 C7471 1.385 . S
C7468 H7449 0.951 . S
C7468 C7466 1.388 . S
C7468 C7469 1.366 . S
C7469 C7468 1.366 . S
C7469 C7470 1.414 . S
C7469 C7472 1.499 . S
C7470 H7450 0.950 . S
C7470 C7469 1.414 . S
C7470 C7471 1.374 . S
C7471 H7451 0.950 . S
C7471 C7467 1.385 . S
C7471 C7470 1.374 . S
C7472 C7469 1.499 . S
C7472 C7473 1.373 . S
C7472 C7474 1.389 . S
C7473 H7452 0.950 . S
C7473 C7472 1.373 . S
C7473 C7489 1.377 . S
C7474 C7472 1.389 . S
C7474 C7475 1.524 . S
C7474 C7488 1.377 . S
C7475 C7474 1.524 . S
C7475 C7476 1.397 . S
C7475 C7480 1.363 . S
C7476 H7453 0.950 . S
C7476 C7475 1.397 . S
C7476 C7477 1.334 . S
C7477 H7454 0.950 . S
C7477 C7476 1.334 . S
C7477 C7478 1.287 . S
C7478 C7477 1.287 . S
C7478 C7479 1.524 . S
C7478 H7497 0.913 . S
C7479 H7455 0.950 . S
C7479 C7478 1.524 . S
C7479 C7480 1.415 . S
C7480 H7456 0.950 . S
C7480 C7475 1.363 . S
C7480 C7479 1.415 . S
C7481 H7457 0.951 . S
C7481 C7482 1.366 . S
C7481 C7483 1.388 . S
C7482 C7481 1.366 . S
C7482 C7486 1.385 . S
C7483 H7458 0.951 . S
C7483 C7481 1.388 . S
C7483 C7484 1.366 . S
C7484 C7483 1.366 . S
C7484 C7485 1.414 . S
C7484 C7487 1.499 . S
C7485 H7459 0.950 . S
C7485 C7484 1.414 . S
C7485 C7486 1.374 . S
C7486 H7460 0.950 . S
C7486 C7482 1.385 . S
C7486 C7485 1.374 . S
C7487 C7484 1.499 . S
C7487 C7488 1.373 . S
C7487 C7489 1.389 . S
C7488 H7461 0.950 . S
C7488 C7474 1.377 . S
C7488 C7487 1.373 . S
C7489 C7473 1.377 . S
C7489 C7487 1.389 . S
C7489 C7490 1.524 . S
C7490 C7489 1.524 . S
C7490 C7491 1.397 . S
C7490 C7495 1.363 . S
C7491 H7462 0.950 . S
C7491 C7490 1.397 . S
C7491 C7492 1.334 . S
C7492 H7463 0.950 . S
C7492 C7491 1.334 . S
C7492 C7493 1.287 . S
C7493 C7492 1.287 . S
C7493 C7494 1.524 . S
C7493 H7496 0.999 . S
C7494 H7464 0.950 . S
C7494 C7493 1.524 . S
C7494 C7495 1.415 . S
C7495 H7465 0.950 . S
C7495 C7490 1.363 . S
C7495 C7494 1.415 . S
H7496 C7493 0.999 . S
H7497 C7478 0.913 . S
H7498 C7516 0.951 . S
H7499 C7518 0.951 . S
H7500 C7520 0.950 . S
H7501 C7521 0.950 . S
H7502 C7523 0.950 . S
H7503 C7526 0.950 . S
H7504 C7527 0.950 . S
H7505 C7529 0.950 . S
H7506 C7530 0.950 . S
H7507 C7531 0.951 . S
H7508 C7533 0.951 . S
H7509 C7535 0.950 . S
H7510 C7536 0.950 . S
H7511 C7538 0.950 . S
H7512 C7541 0.950 . S
H7513 C7542 0.950 . S
H7514 C7544 0.950 . S
H7515 C7545 0.950 . S
C7516 H7498 0.951 . S
C7516 C7517 1.366 . S
C7516 C7518 1.388 . S
C7517 C7516 1.366 . S
C7517 C7521 1.385 . S
C7518 H7499 0.951 . S
C7518 C7516 1.388 . S
C7518 C7519 1.366 . S
C7519 C7518 1.366 . S
C7519 C7520 1.414 . S
C7519 C7522 1.499 . S
C7520 H7500 0.950 . S
C7520 C7519 1.414 . S
C7520 C7521 1.374 . S
C7521 H7501 0.950 . S
C7521 C7517 1.385 . S
C7521 C7520 1.374 . S
C7522 C7519 1.499 . S
C7522 C7523 1.373 . S
C7522 C7524 1.389 . S
C7523 H7502 0.950 . S
C7523 C7522 1.373 . S
C7523 C7539 1.377 . S
C7524 C7522 1.389 . S
C7524 C7525 1.524 . S
C7524 C7538 1.377 . S
C7525 C7524 1.524 . S
C7525 C7526 1.397 . S
C7525 C7530 1.363 . S
C7526 H7503 0.950 . S
C7526 C7525 1.397 . S
C7526 C7527 1.334 . S
C7527 H7504 0.950 . S
C7527 C7526 1.334 . S
C7527 C7528 1.287 . S
C7528 C7527 1.287 . S
C7528 C7529 1.524 . S
C7528 H7547 0.913 . S
C7529 H7505 0.950 . S
C7529 C7528 1.524 . S
C7529 C7530 1.415 . S
C7530 H7506 0.950 . S
C7530 C7525 1.363 . S
C7530 C7529 1.415 . S
C7531 H7507 0.951 . S
C7531 C7532 1.366 . S
C7531 C7533 1.388 . S
C7532 C7531 1.366 . S
C7532 C7536 1.385 . S
C7533 H7508 0.951 . S
C7533 C7531 1.388 . S
C7533 C7534 1.366 . S
C7534 C7533 1.366 . S
C7534 C7535 1.414 . S
C7534 C7537 1.499 . S
C7535 H7509 0.950 . S
C7535 C7534 1.414 . S
C7535 C7536 1.374 . S
C7536 H7510 0.950 . S
C7536 C7532 1.385 . S
C7536 C7535 1.374 . S
C7537 C7534 1.499 . S
C7537 C7538 1.373 . S
C7537 C7539 1.389 . S
C7538 H7511 0.950 . S
C7538 C7524 1.377 . S
C7538 C7537 1.373 . S
C7539 C7523 1.377 . S
C7539 C7537 1.389 . S
C7539 C7540 1.524 . S
C7540 C7539 1.524 . S
C7540 C7541 1.397 . S
C7540 C7545 1.363 . S
C7541 H7512 0.950 . S
C7541 C7540 1.397 . S
C7541 C7542 1.334 . S
C7542 H7513 0.950 . S
C7542 C7541 1.334 . S
C7542 C7543 1.287 . S
C7543 C7542 1.287 . S
C7543 C7544 1.524 . S
C7543 H7546 0.999 . S
C7544 H7514 0.950 . S
C7544 C7543 1.524 . S
C7544 C7545 1.415 . S
C7545 H7515 0.950 . S
C7545 C7540 1.363 . S
C7545 C7544 1.415 . S
H7546 C7543 0.999 . S
H7547 C7528 0.913 . S
H7548 C7566 0.951 . S
H7549 C7568 0.951 . S
H7550 C7570 0.950 . S
H7551 C7571 0.950 . S
H7552 C7573 0.950 . S
H7553 C7576 0.950 . S
H7554 C7577 0.950 . S
H7555 C7579 0.950 . S
H7556 C7580 0.950 . S
H7557 C7581 0.951 . S
H7558 C7583 0.951 . S
H7559 C7585 0.950 . S
H7560 C7586 0.950 . S
H7561 C7588 0.950 . S
H7562 C7591 0.950 . S
H7563 C7592 0.950 . S
H7564 C7594 0.950 . S
H7565 C7595 0.950 . S
C7566 H7548 0.951 . S
C7566 C7567 1.366 . S
C7566 C7568 1.388 . S
C7567 C7566 1.366 . S
C7567 C7571 1.385 . S
C7568 H7549 0.951 . S
C7568 C7566 1.388 . S
C7568 C7569 1.366 . S
C7569 C7568 1.366 . S
C7569 C7570 1.414 . S
C7569 C7572 1.499 . S
C7570 H7550 0.950 . S
C7570 C7569 1.414 . S
C7570 C7571 1.374 . S
C7571 H7551 0.950 . S
C7571 C7567 1.385 . S
C7571 C7570 1.374 . S
C7572 C7569 1.499 . S
C7572 C7573 1.373 . S
C7572 C7574 1.389 . S
C7573 H7552 0.950 . S
C7573 C7572 1.373 . S
C7573 C7589 1.377 . S
C7574 C7572 1.389 . S
C7574 C7575 1.524 . S
C7574 C7588 1.377 . S
C7575 C7574 1.524 . S
C7575 C7576 1.397 . S
C7575 C7580 1.363 . S
C7576 H7553 0.950 . S
C7576 C7575 1.397 . S
C7576 C7577 1.334 . S
C7577 H7554 0.950 . S
C7577 C7576 1.334 . S
C7577 C7578 1.287 . S
C7578 C7577 1.287 . S
C7578 C7579 1.524 . S
C7578 H7597 0.913 . S
C7579 H7555 0.950 . S
C7579 C7578 1.524 . S
C7579 C7580 1.415 . S
C7580 H7556 0.950 . S
C7580 C7575 1.363 . S
C7580 C7579 1.415 . S
C7581 H7557 0.951 . S
C7581 C7582 1.366 . S
C7581 C7583 1.388 . S
C7582 C7581 1.366 . S
C7582 C7586 1.385 . S
C7583 H7558 0.951 . S
C7583 C7581 1.388 . S
C7583 C7584 1.366 . S
C7584 C7583 1.366 . S
C7584 C7585 1.414 . S
C7584 C7587 1.499 . S
C7585 H7559 0.950 . S
C7585 C7584 1.414 . S
C7585 C7586 1.374 . S
C7586 H7560 0.950 . S
C7586 C7582 1.385 . S
C7586 C7585 1.374 . S
C7587 C7584 1.499 . S
C7587 C7588 1.373 . S
C7587 C7589 1.389 . S
C7588 H7561 0.950 . S
C7588 C7574 1.377 . S
C7588 C7587 1.373 . S
C7589 C7573 1.377 . S
C7589 C7587 1.389 . S
C7589 C7590 1.524 . S
C7590 C7589 1.524 . S
C7590 C7591 1.397 . S
C7590 C7595 1.363 . S
C7591 H7562 0.950 . S
C7591 C7590 1.397 . S
C7591 C7592 1.334 . S
C7592 H7563 0.950 . S
C7592 C7591 1.334 . S
C7592 C7593 1.287 . S
C7593 C7592 1.287 . S
C7593 C7594 1.524 . S
C7593 H7596 0.999 . S
C7594 H7564 0.950 . S
C7594 C7593 1.524 . S
C7594 C7595 1.415 . S
C7595 H7565 0.950 . S
C7595 C7590 1.363 . S
C7595 C7594 1.415 . S
H7596 C7593 0.999 . S
H7597 C7578 0.913 . S
H7598 C7616 0.951 . S
H7599 C7618 0.951 . S
H7600 C7620 0.950 . S
H7601 C7621 0.950 . S
H7602 C7623 0.950 . S
H7603 C7626 0.950 . S
H7604 C7627 0.950 . S
H7605 C7629 0.950 . S
H7606 C7630 0.950 . S
H7607 C7631 0.951 . S
H7608 C7633 0.951 . S
H7609 C7635 0.950 . S
H7610 C7636 0.950 . S
H7611 C7638 0.950 . S
H7612 C7641 0.950 . S
H7613 C7642 0.950 . S
H7614 C7644 0.950 . S
H7615 C7645 0.950 . S
C7616 H7598 0.951 . S
C7616 C7617 1.366 . S
C7616 C7618 1.388 . S
C7617 C7616 1.366 . S
C7617 C7621 1.385 . S
C7618 H7599 0.951 . S
C7618 C7616 1.388 . S
C7618 C7619 1.366 . S
C7619 C7618 1.366 . S
C7619 C7620 1.414 . S
C7619 C7622 1.499 . S
C7620 H7600 0.950 . S
C7620 C7619 1.414 . S
C7620 C7621 1.374 . S
C7621 H7601 0.950 . S
C7621 C7617 1.385 . S
C7621 C7620 1.374 . S
C7622 C7619 1.499 . S
C7622 C7623 1.373 . S
C7622 C7624 1.389 . S
C7623 H7602 0.950 . S
C7623 C7622 1.373 . S
C7623 C7639 1.377 . S
C7624 C7622 1.389 . S
C7624 C7625 1.524 . S
C7624 C7638 1.377 . S
C7625 C7624 1.524 . S
C7625 C7626 1.397 . S
C7625 C7630 1.363 . S
C7626 H7603 0.950 . S
C7626 C7625 1.397 . S
C7626 C7627 1.334 . S
C7627 H7604 0.950 . S
C7627 C7626 1.334 . S
C7627 C7628 1.287 . S
C7628 C7627 1.287 . S
C7628 C7629 1.524 . S
C7628 H7647 0.913 . S
C7629 H7605 0.950 . S
C7629 C7628 1.524 . S
C7629 C7630 1.415 . S
C7630 H7606 0.950 . S
C7630 C7625 1.363 . S
C7630 C7629 1.415 . S
C7631 H7607 0.951 . S
C7631 C7632 1.366 . S
C7631 C7633 1.388 . S
C7632 C7631 1.366 . S
C7632 C7636 1.385 . S
C7633 H7608 0.951 . S
C7633 C7631 1.388 . S
C7633 C7634 1.366 . S
C7634 C7633 1.366 . S
C7634 C7635 1.414 . S
C7634 C7637 1.499 . S
C7635 H7609 0.950 . S
C7635 C7634 1.414 . S
C7635 C7636 1.374 . S
C7636 H7610 0.950 . S
C7636 C7632 1.385 . S
C7636 C7635 1.374 . S
C7637 C7634 1.499 . S
C7637 C7638 1.373 . S
C7637 C7639 1.389 . S
C7638 H7611 0.950 . S
C7638 C7624 1.377 . S
C7638 C7637 1.373 . S
C7639 C7623 1.377 . S
C7639 C7637 1.389 . S
C7639 C7640 1.524 . S
C7640 C7639 1.524 . S
C7640 C7641 1.397 . S
C7640 C7645 1.363 . S
C7641 H7612 0.950 . S
C7641 C7640 1.397 . S
C7641 C7642 1.334 . S
C7642 H7613 0.950 . S
C7642 C7641 1.334 . S
C7642 C7643 1.287 . S
C7643 C7642 1.287 . S
C7643 C7644 1.524 . S
C7643 H7646 0.999 . S
C7644 H7614 0.950 . S
C7644 C7643 1.524 . S
C7644 C7645 1.415 . S
C7645 H7615 0.950 . S
C7645 C7640 1.363 . S
C7645 C7644 1.415 . S
H7646 C7643 0.999 . S
H7647 C7628 0.913 . S
H7648 C7666 0.951 . S
H7649 C7668 0.951 . S
H7650 C7670 0.950 . S
H7651 C7671 0.950 . S
H7652 C7673 0.950 . S
H7653 C7676 0.950 . S
H7654 C7677 0.950 . S
H7655 C7679 0.950 . S
H7656 C7680 0.950 . S
H7657 C7681 0.951 . S
H7658 C7683 0.951 . S
H7659 C7685 0.950 . S
H7660 C7686 0.950 . S
H7661 C7688 0.950 . S
H7662 C7691 0.950 . S
H7663 C7692 0.950 . S
H7664 C7694 0.950 . S
H7665 C7695 0.950 . S
C7666 H7648 0.951 . S
C7666 C7667 1.366 . S
C7666 C7668 1.388 . S
C7667 C7666 1.366 . S
C7667 C7671 1.385 . S
C7668 H7649 0.951 . S
C7668 C7666 1.388 . S
C7668 C7669 1.366 . S
C7669 C7668 1.366 . S
C7669 C7670 1.414 . S
C7669 C7672 1.499 . S
C7670 H7650 0.950 . S
C7670 C7669 1.414 . S
C7670 C7671 1.374 . S
C7671 H7651 0.950 . S
C7671 C7667 1.385 . S
C7671 C7670 1.374 . S
C7672 C7669 1.499 . S
C7672 C7673 1.373 . S
C7672 C7674 1.389 . S
C7673 H7652 0.950 . S
C7673 C7672 1.373 . S
C7673 C7689 1.377 . S
C7674 C7672 1.389 . S
C7674 C7675 1.524 . S
C7674 C7688 1.377 . S
C7675 C7674 1.524 . S
C7675 C7676 1.397 . S
C7675 C7680 1.363 . S
C7676 H7653 0.950 . S
C7676 C7675 1.397 . S
C7676 C7677 1.334 . S
C7677 H7654 0.950 . S
C7677 C7676 1.334 . S
C7677 C7678 1.287 . S
C7678 C7677 1.287 . S
C7678 C7679 1.524 . S
C7678 H7697 0.913 . S
C7679 H7655 0.950 . S
C7679 C7678 1.524 . S
C7679 C7680 1.415 . S
C7680 H7656 0.950 . S
C7680 C7675 1.363 . S
C7680 C7679 1.415 . S
C7681 H7657 0.951 . S
C7681 C7682 1.366 . S
C7681 C7683 1.388 . S
C7682 C7681 1.366 . S
C7682 C7686 1.385 . S
C7683 H7658 0.951 . S
C7683 C7681 1.388 . S
C7683 C7684 1.366 . S
C7684 C7683 1.366 . S
C7684 C7685 1.414 . S
C7684 C7687 1.499 . S
C7685 H7659 0.950 . S
C7685 C7684 1.414 . S
C7685 C7686 1.374 . S
C7686 H7660 0.950 . S
C7686 C7682 1.385 . S
C7686 C7685 1.374 . S
C7687 C7684 1.499 . S
C7687 C7688 1.373 . S
C7687 C7689 1.389 . S
C7688 H7661 0.950 . S
C7688 C7674 1.377 . S
C7688 C7687 1.373 . S
C7689 C7673 1.377 . S
C7689 C7687 1.389 . S
C7689 C7690 1.524 . S
C7690 C7689 1.524 . S
C7690 C7691 1.397 . S
C7690 C7695 1.363 . S
C7691 H7662 0.950 . S
C7691 C7690 1.397 . S
C7691 C7692 1.334 . S
C7692 H7663 0.950 . S
C7692 C7691 1.334 . S
C7692 C7693 1.287 . S
C7693 C7692 1.287 . S
C7693 C7694 1.524 . S
C7693 H7696 0.999 . S
C7694 H7664 0.950 . S
C7694 C7693 1.524 . S
C7694 C7695 1.415 . S
C7695 H7665 0.950 . S
C7695 C7690 1.363 . S
C7695 C7694 1.415 . S
H7696 C7693 0.999 . S
H7697 C7678 0.913 . S
H7698 C7716 0.951 . S
H7699 C7718 0.951 . S
H7700 C7720 0.950 . S
H7701 C7721 0.950 . S
H7702 C7723 0.950 . S
H7703 C7726 0.950 . S
H7704 C7727 0.950 . S
H7705 C7729 0.950 . S
H7706 C7730 0.950 . S
H7707 C7731 0.951 . S
H7708 C7733 0.951 . S
H7709 C7735 0.950 . S
H7710 C7736 0.950 . S
H7711 C7738 0.950 . S
H7712 C7741 0.950 . S
H7713 C7742 0.950 . S
H7714 C7744 0.950 . S
H7715 C7745 0.950 . S
C7716 H7698 0.951 . S
C7716 C7717 1.366 . S
C7716 C7718 1.388 . S
C7717 C7716 1.366 . S
C7717 C7721 1.385 . S
C7718 H7699 0.951 . S
C7718 C7716 1.388 . S
C7718 C7719 1.366 . S
C7719 C7718 1.366 . S
C7719 C7720 1.414 . S
C7719 C7722 1.499 . S
C7720 H7700 0.950 . S
C7720 C7719 1.414 . S
C7720 C7721 1.374 . S
C7721 H7701 0.950 . S
C7721 C7717 1.385 . S
C7721 C7720 1.374 . S
C7722 C7719 1.499 . S
C7722 C7723 1.373 . S
C7722 C7724 1.389 . S
C7723 H7702 0.950 . S
C7723 C7722 1.373 . S
C7723 C7739 1.377 . S
C7724 C7722 1.389 . S
C7724 C7725 1.524 . S
C7724 C7738 1.377 . S
C7725 C7724 1.524 . S
C7725 C7726 1.397 . S
C7725 C7730 1.363 . S
C7726 H7703 0.950 . S
C7726 C7725 1.397 . S
C7726 C7727 1.334 . S
C7727 H7704 0.950 . S
C7727 C7726 1.334 . S
C7727 C7728 1.287 . S
C7728 C7727 1.287 . S
C7728 C7729 1.524 . S
C7728 H7747 0.913 . S
C7729 H7705 0.950 . S
C7729 C7728 1.524 . S
C7729 C7730 1.415 . S
C7730 H7706 0.950 . S
C7730 C7725 1.363 . S
C7730 C7729 1.415 . S
C7731 H7707 0.951 . S
C7731 C7732 1.366 . S
C7731 C7733 1.388 . S
C7732 C7731 1.366 . S
C7732 C7736 1.385 . S
C7733 H7708 0.951 . S
C7733 C7731 1.388 . S
C7733 C7734 1.366 . S
C7734 C7733 1.366 . S
C7734 C7735 1.414 . S
C7734 C7737 1.499 . S
C7735 H7709 0.950 . S
C7735 C7734 1.414 . S
C7735 C7736 1.374 . S
C7736 H7710 0.950 . S
C7736 C7732 1.385 . S
C7736 C7735 1.374 . S
C7737 C7734 1.499 . S
C7737 C7738 1.373 . S
C7737 C7739 1.389 . S
C7738 H7711 0.950 . S
C7738 C7724 1.377 . S
C7738 C7737 1.373 . S
C7739 C7723 1.377 . S
C7739 C7737 1.389 . S
C7739 C7740 1.524 . S
C7740 C7739 1.524 . S
C7740 C7741 1.397 . S
C7740 C7745 1.363 . S
C7741 H7712 0.950 . S
C7741 C7740 1.397 . S
C7741 C7742 1.334 . S
C7742 H7713 0.950 . S
C7742 C7741 1.334 . S
C7742 C7743 1.287 . S
C7743 C7742 1.287 . S
C7743 C7744 1.524 . S
C7743 H7746 0.999 . S
C7744 H7714 0.950 . S
C7744 C7743 1.524 . S
C7744 C7745 1.415 . S
C7745 H7715 0.950 . S
C7745 C7740 1.363 . S
C7745 C7744 1.415 . S
H7746 C7743 0.999 . S
H7747 C7728 0.913 . S
H7748 C7766 0.951 . S
H7749 C7768 0.951 . S
H7750 C7770 0.950 . S
H7751 C7771 0.950 . S
H7752 C7773 0.950 . S
H7753 C7776 0.950 . S
H7754 C7777 0.950 . S
H7755 C7779 0.950 . S
H7756 C7780 0.950 . S
H7757 C7781 0.951 . S
H7758 C7783 0.951 . S
H7759 C7785 0.950 . S
H7760 C7786 0.950 . S
H7761 C7788 0.950 . S
H7762 C7791 0.950 . S
H7763 C7792 0.950 . S
H7764 C7794 0.950 . S
H7765 C7795 0.950 . S
C7766 H7748 0.951 . S
C7766 C7767 1.366 . S
C7766 C7768 1.388 . S
C7767 C7766 1.366 . S
C7767 C7771 1.385 . S
C7768 H7749 0.951 . S
C7768 C7766 1.388 . S
C7768 C7769 1.366 . S
C7769 C7768 1.366 . S
C7769 C7770 1.414 . S
C7769 C7772 1.499 . S
C7770 H7750 0.950 . S
C7770 C7769 1.414 . S
C7770 C7771 1.374 . S
C7771 H7751 0.950 . S
C7771 C7767 1.385 . S
C7771 C7770 1.374 . S
C7772 C7769 1.499 . S
C7772 C7773 1.373 . S
C7772 C7774 1.389 . S
C7773 H7752 0.950 . S
C7773 C7772 1.373 . S
C7773 C7789 1.377 . S
C7774 C7772 1.389 . S
C7774 C7775 1.524 . S
C7774 C7788 1.377 . S
C7775 C7774 1.524 . S
C7775 C7776 1.397 . S
C7775 C7780 1.363 . S
C7776 H7753 0.950 . S
C7776 C7775 1.397 . S
C7776 C7777 1.334 . S
C7777 H7754 0.950 . S
C7777 C7776 1.334 . S
C7777 C7778 1.287 . S
C7778 C7777 1.287 . S
C7778 C7779 1.524 . S
C7778 H7797 0.913 . S
C7779 H7755 0.950 . S
C7779 C7778 1.524 . S
C7779 C7780 1.415 . S
C7780 H7756 0.950 . S
C7780 C7775 1.363 . S
C7780 C7779 1.415 . S
C7781 H7757 0.951 . S
C7781 C7782 1.366 . S
C7781 C7783 1.388 . S
C7782 C7781 1.366 . S
C7782 C7786 1.385 . S
C7783 H7758 0.951 . S
C7783 C7781 1.388 . S
C7783 C7784 1.366 . S
C7784 C7783 1.366 . S
C7784 C7785 1.414 . S
C7784 C7787 1.499 . S
C7785 H7759 0.950 . S
C7785 C7784 1.414 . S
C7785 C7786 1.374 . S
C7786 H7760 0.950 . S
C7786 C7782 1.385 . S
C7786 C7785 1.374 . S
C7787 C7784 1.499 . S
C7787 C7788 1.373 . S
C7787 C7789 1.389 . S
C7788 H7761 0.950 . S
C7788 C7774 1.377 . S
C7788 C7787 1.373 . S
C7789 C7773 1.377 . S
C7789 C7787 1.389 . S
C7789 C7790 1.524 . S
C7790 C7789 1.524 . S
C7790 C7791 1.397 . S
C7790 C7795 1.363 . S
C7791 H7762 0.950 . S
C7791 C7790 1.397 . S
C7791 C7792 1.334 . S
C7792 H7763 0.950 . S
C7792 C7791 1.334 . S
C7792 C7793 1.287 . S
C7793 C7792 1.287 . S
C7793 C7794 1.524 . S
C7793 H7796 0.999 . S
C7794 H7764 0.950 . S
C7794 C7793 1.524 . S
C7794 C7795 1.415 . S
C7795 H7765 0.950 . S
C7795 C7790 1.363 . S
C7795 C7794 1.415 . S
H7796 C7793 0.999 . S
H7797 C7778 0.913 . S
H7798 C7816 0.951 . S
H7799 C7818 0.951 . S
H7800 C7820 0.950 . S
H7801 C7821 0.950 . S
H7802 C7823 0.950 . S
H7803 C7826 0.950 . S
H7804 C7827 0.950 . S
H7805 C7829 0.950 . S
H7806 C7830 0.950 . S
H7807 C7831 0.951 . S
H7808 C7833 0.951 . S
H7809 C7835 0.950 . S
H7810 C7836 0.950 . S
H7811 C7838 0.950 . S
H7812 C7841 0.950 . S
H7813 C7842 0.950 . S
H7814 C7844 0.950 . S
H7815 C7845 0.950 . S
C7816 H7798 0.951 . S
C7816 C7817 1.366 . S
C7816 C7818 1.388 . S
C7817 C7816 1.366 . S
C7817 C7821 1.385 . S
C7818 H7799 0.951 . S
C7818 C7816 1.388 . S
C7818 C7819 1.366 . S
C7819 C7818 1.366 . S
C7819 C7820 1.414 . S
C7819 C7822 1.499 . S
C7820 H7800 0.950 . S
C7820 C7819 1.414 . S
C7820 C7821 1.374 . S
C7821 H7801 0.950 . S
C7821 C7817 1.385 . S
C7821 C7820 1.374 . S
C7822 C7819 1.499 . S
C7822 C7823 1.373 . S
C7822 C7824 1.389 . S
C7823 H7802 0.950 . S
C7823 C7822 1.373 . S
C7823 C7839 1.377 . S
C7824 C7822 1.389 . S
C7824 C7825 1.524 . S
C7824 C7838 1.377 . S
C7825 C7824 1.524 . S
C7825 C7826 1.397 . S
C7825 C7830 1.363 . S
C7826 H7803 0.950 . S
C7826 C7825 1.397 . S
C7826 C7827 1.334 . S
C7827 H7804 0.950 . S
C7827 C7826 1.334 . S
C7827 C7828 1.287 . S
C7828 C7827 1.287 . S
C7828 C7829 1.524 . S
C7828 H7847 0.913 . S
C7829 H7805 0.950 . S
C7829 C7828 1.524 . S
C7829 C7830 1.415 . S
C7830 H7806 0.950 . S
C7830 C7825 1.363 . S
C7830 C7829 1.415 . S
C7831 H7807 0.951 . S
C7831 C7832 1.366 . S
C7831 C7833 1.388 . S
C7832 C7831 1.366 . S
C7832 C7836 1.385 . S
C7833 H7808 0.951 . S
C7833 C7831 1.388 . S
C7833 C7834 1.366 . S
C7834 C7833 1.366 . S
C7834 C7835 1.414 . S
C7834 C7837 1.499 . S
C7835 H7809 0.950 . S
C7835 C7834 1.414 . S
C7835 C7836 1.374 . S
C7836 H7810 0.950 . S
C7836 C7832 1.385 . S
C7836 C7835 1.374 . S
C7837 C7834 1.499 . S
C7837 C7838 1.373 . S
C7837 C7839 1.389 . S
C7838 H7811 0.950 . S
C7838 C7824 1.377 . S
C7838 C7837 1.373 . S
C7839 C7823 1.377 . S
C7839 C7837 1.389 . S
C7839 C7840 1.524 . S
C7840 C7839 1.524 . S
C7840 C7841 1.397 . S
C7840 C7845 1.363 . S
C7841 H7812 0.950 . S
C7841 C7840 1.397 . S
C7841 C7842 1.334 . S
C7842 H7813 0.950 . S
C7842 C7841 1.334 . S
C7842 C7843 1.287 . S
C7843 C7842 1.287 . S
C7843 C7844 1.524 . S
C7843 H7846 0.999 . S
C7844 H7814 0.950 . S
C7844 C7843 1.524 . S
C7844 C7845 1.415 . S
C7845 H7815 0.950 . S
C7845 C7840 1.363 . S
C7845 C7844 1.415 . S
H7846 C7843 0.999 . S
H7847 C7828 0.913 . S
H7848 C7866 0.951 . S
H7849 C7868 0.951 . S
H7850 C7870 0.950 . S
H7851 C7871 0.950 . S
H7852 C7873 0.950 . S
H7853 C7876 0.950 . S
H7854 C7877 0.950 . S
H7855 C7879 0.950 . S
H7856 C7880 0.950 . S
H7857 C7881 0.951 . S
H7858 C7883 0.951 . S
H7859 C7885 0.950 . S
H7860 C7886 0.950 . S
H7861 C7888 0.950 . S
H7862 C7891 0.950 . S
H7863 C7892 0.950 . S
H7864 C7894 0.950 . S
H7865 C7895 0.950 . S
C7866 H7848 0.951 . S
C7866 C7867 1.366 . S
C7866 C7868 1.388 . S
C7867 C7866 1.366 . S
C7867 C7871 1.385 . S
C7868 H7849 0.951 . S
C7868 C7866 1.388 . S
C7868 C7869 1.366 . S
C7869 C7868 1.366 . S
C7869 C7870 1.414 . S
C7869 C7872 1.499 . S
C7870 H7850 0.950 . S
C7870 C7869 1.414 . S
C7870 C7871 1.374 . S
C7871 H7851 0.950 . S
C7871 C7867 1.385 . S
C7871 C7870 1.374 . S
C7872 C7869 1.499 . S
C7872 C7873 1.373 . S
C7872 C7874 1.389 . S
C7873 H7852 0.950 . S
C7873 C7872 1.373 . S
C7873 C7889 1.377 . S
C7874 C7872 1.389 . S
C7874 C7875 1.524 . S
C7874 C7888 1.377 . S
C7875 C7874 1.524 . S
C7875 C7876 1.397 . S
C7875 C7880 1.363 . S
C7876 H7853 0.950 . S
C7876 C7875 1.397 . S
C7876 C7877 1.334 . S
C7877 H7854 0.950 . S
C7877 C7876 1.334 . S
C7877 C7878 1.287 . S
C7878 C7877 1.287 . S
C7878 C7879 1.524 . S
C7878 H7897 0.913 . S
C7879 H7855 0.950 . S
C7879 C7878 1.524 . S
C7879 C7880 1.415 . S
C7880 H7856 0.950 . S
C7880 C7875 1.363 . S
C7880 C7879 1.415 . S
C7881 H7857 0.951 . S
C7881 C7882 1.366 . S
C7881 C7883 1.388 . S
C7882 C7881 1.366 . S
C7882 C7886 1.385 . S
C7883 H7858 0.951 . S
C7883 C7881 1.388 . S
C7883 C7884 1.366 . S
C7884 C7883 1.366 . S
C7884 C7885 1.414 . S
C7884 C7887 1.499 . S
C7885 H7859 0.950 . S
C7885 C7884 1.414 . S
C7885 C7886 1.374 . S
C7886 H7860 0.950 . S
C7886 C7882 1.385 . S
C7886 C7885 1.374 . S
C7887 C7884 1.499 . S
C7887 C7888 1.373 . S
C7887 C7889 1.389 . S
C7888 H7861 0.950 . S
C7888 C7874 1.377 . S
C7888 C7887 1.373 . S
C7889 C7873 1.377 . S
C7889 C7887 1.389 . S
C7889 C7890 1.524 . S
C7890 C7889 1.524 . S
C7890 C7891 1.397 . S
C7890 C7895 1.363 . S
C7891 H7862 0.950 . S
C7891 C7890 1.397 . S
C7891 C7892 1.334 . S
C7892 H7863 0.950 . S
C7892 C7891 1.334 . S
C7892 C7893 1.287 . S
C7893 C7892 1.287 . S
C7893 C7894 1.524 . S
C7893 H7896 0.999 . S
C7894 H7864 0.950 . S
C7894 C7893 1.524 . S
C7894 C7895 1.415 . S
C7895 H7865 0.950 . S
C7895 C7890 1.363 . S
C7895 C7894 1.415 . S
H7896 C7893 0.999 . S
H7897 C7878 0.913 . S
H7898 C7916 0.951 . S
H7899 C7918 0.951 . S
H7900 C7920 0.950 . S
H7901 C7921 0.950 . S
H7902 C7923 0.950 . S
H7903 C7926 0.950 . S
H7904 C7927 0.950 . S
H7905 C7929 0.950 . S
H7906 C7930 0.950 . S
H7907 C7931 0.951 . S
H7908 C7933 0.951 . S
H7909 C7935 0.950 . S
H7910 C7936 0.950 . S
H7911 C7938 0.950 . S
H7912 C7941 0.950 . S
H7913 C7942 0.950 . S
H7914 C7944 0.950 . S
H7915 C7945 0.950 . S
C7916 H7898 0.951 . S
C7916 C7917 1.366 . S
C7916 C7918 1.388 . S
C7917 C7916 1.366 . S
C7917 C7921 1.385 . S
C7918 H7899 0.951 . S
C7918 C7916 1.388 . S
C7918 C7919 1.366 . S
C7919 C7918 1.366 . S
C7919 C7920 1.414 . S
C7919 C7922 1.499 . S
C7920 H7900 0.950 . S
C7920 C7919 1.414 . S
C7920 C7921 1.374 . S
C7921 H7901 0.950 . S
C7921 C7917 1.385 . S
C7921 C7920 1.374 . S
C7922 C7919 1.499 . S
C7922 C7923 1.373 . S
C7922 C7924 1.389 . S
C7923 H7902 0.950 . S
C7923 C7922 1.373 . S
C7923 C7939 1.377 . S
C7924 C7922 1.389 . S
C7924 C7925 1.524 . S
C7924 C7938 1.377 . S
C7925 C7924 1.524 . S
C7925 C7926 1.397 . S
C7925 C7930 1.363 . S
C7926 H7903 0.950 . S
C7926 C7925 1.397 . S
C7926 C7927 1.334 . S
C7927 H7904 0.950 . S
C7927 C7926 1.334 . S
C7927 C7928 1.287 . S
C7928 C7927 1.287 . S
C7928 C7929 1.524 . S
C7928 H7947 0.913 . S
C7929 H7905 0.950 . S
C7929 C7928 1.524 . S
C7929 C7930 1.415 . S
C7930 H7906 0.950 . S
C7930 C7925 1.363 . S
C7930 C7929 1.415 . S
C7931 H7907 0.951 . S
C7931 C7932 1.366 . S
C7931 C7933 1.388 . S
C7932 C7931 1.366 . S
C7932 C7936 1.385 . S
C7933 H7908 0.951 . S
C7933 C7931 1.388 . S
C7933 C7934 1.366 . S
C7934 C7933 1.366 . S
C7934 C7935 1.414 . S
C7934 C7937 1.499 . S
C7935 H7909 0.950 . S
C7935 C7934 1.414 . S
C7935 C7936 1.374 . S
C7936 H7910 0.950 . S
C7936 C7932 1.385 . S
C7936 C7935 1.374 . S
C7937 C7934 1.499 . S
C7937 C7938 1.373 . S
C7937 C7939 1.389 . S
C7938 H7911 0.950 . S
C7938 C7924 1.377 . S
C7938 C7937 1.373 . S
C7939 C7923 1.377 . S
C7939 C7937 1.389 . S
C7939 C7940 1.524 . S
C7940 C7939 1.524 . S
C7940 C7941 1.397 . S
C7940 C7945 1.363 . S
C7941 H7912 0.950 . S
C7941 C7940 1.397 . S
C7941 C7942 1.334 . S
C7942 H7913 0.950 . S
C7942 C7941 1.334 . S
C7942 C7943 1.287 . S
C7943 C7942 1.287 . S
C7943 C7944 1.524 . S
C7943 H7946 0.999 . S
C7944 H7914 0.950 . S
C7944 C7943 1.524 . S
C7944 C7945 1.415 . S
C7945 H7915 0.950 . S
C7945 C7940 1.363 . S
C7945 C7944 1.415 . S
H7946 C7943 0.999 . S
H7947 C7928 0.913 . S
H7948 C7966 0.951 . S
H7949 C7968 0.951 . S
H7950 C7970 0.950 . S
H7951 C7971 0.950 . S
H7952 C7973 0.950 . S
H7953 C7976 0.950 . S
H7954 C7977 0.950 . S
H7955 C7979 0.950 . S
H7956 C7980 0.950 . S
H7957 C7981 0.951 . S
H7958 C7983 0.951 . S
H7959 C7985 0.950 . S
H7960 C7986 0.950 . S
H7961 C7988 0.950 . S
H7962 C7991 0.950 . S
H7963 C7992 0.950 . S
H7964 C7994 0.950 . S
H7965 C7995 0.950 . S
C7966 H7948 0.951 . S
C7966 C7967 1.366 . S
C7966 C7968 1.388 . S
C7967 C7966 1.366 . S
C7967 C7971 1.385 . S
C7968 H7949 0.951 . S
C7968 C7966 1.388 . S
C7968 C7969 1.366 . S
C7969 C7968 1.366 . S
C7969 C7970 1.414 . S
C7969 C7972 1.499 . S
C7970 H7950 0.950 . S
C7970 C7969 1.414 . S
C7970 C7971 1.374 . S
C7971 H7951 0.950 . S
C7971 C7967 1.385 . S
C7971 C7970 1.374 . S
C7972 C7969 1.499 . S
C7972 C7973 1.373 . S
C7972 C7974 1.389 . S
C7973 H7952 0.950 . S
C7973 C7972 1.373 . S
C7973 C7989 1.377 . S
C7974 C7972 1.389 . S
C7974 C7975 1.524 . S
C7974 C7988 1.377 . S
C7975 C7974 1.524 . S
C7975 C7976 1.397 . S
C7975 C7980 1.363 . S
C7976 H7953 0.950 . S
C7976 C7975 1.397 . S
C7976 C7977 1.334 . S
C7977 H7954 0.950 . S
C7977 C7976 1.334 . S
C7977 C7978 1.287 . S
C7978 C7977 1.287 . S
C7978 C7979 1.524 . S
C7978 H7997 0.913 . S
C7979 H7955 0.950 . S
C7979 C7978 1.524 . S
C7979 C7980 1.415 . S
C7980 H7956 0.950 . S
C7980 C7975 1.363 . S
C7980 C7979 1.415 . S
C7981 H7957 0.951 . S
C7981 C7982 1.366 . S
C7981 C7983 1.388 . S
C7982 C7981 1.366 . S
C7982 C7986 1.385 . S
C7983 H7958 0.951 . S
C7983 C7981 1.388 . S
C7983 C7984 1.366 . S
C7984 C7983 1.366 . S
C7984 C7985 1.414 . S
C7984 C7987 1.499 . S
C7985 H7959 0.950 . S
C7985 C7984 1.414 . S
C7985 C7986 1.374 . S
C7986 H7960 0.950 . S
C7986 C7982 1.385 . S
C7986 C7985 1.374 . S
C7987 C7984 1.499 . S
C7987 C7988 1.373 . S
C7987 C7989 1.389 . S
C7988 H7961 0.950 . S
C7988 C7974 1.377 . S
C7988 C7987 1.373 . S
C7989 C7973 1.377 . S
C7989 C7987 1.389 . S
C7989 C7990 1.524 . S
C7990 C7989 1.524 . S
C7990 C7991 1.397 . S
C7990 C7995 1.363 . S
C7991 H7962 0.950 . S
C7991 C7990 1.397 . S
C7991 C7992 1.334 . S
C7992 H7963 0.950 . S
C7992 C7991 1.334 . S
C7992 C7993 1.287 . S
C7993 C7992 1.287 . S
C7993 C7994 1.524 . S
C7993 H7996 0.999 . S
C7994 H7964 0.950 . S
C7994 C7993 1.524 . S
C7994 C7995 1.415 . S
C7995 H7965 0.950 . S
C7995 C7990 1.363 . S
C7995 C7994 1.415 . S
H7996 C7993 0.999 . S
H7997 C7978 0.913 . S
H7998 C8016 0.951 . S
H7999 C8018 0.951 . S
H8000 C8020 0.950 . S
H8001 C8021 0.950 . S
H8002 C8023 0.950 . S
H8003 C8026 0.950 . S
H8004 C8027 0.950 . S
H8005 C8029 0.950 . S
H8006 C8030 0.950 . S
H8007 C8031 0.951 . S
H8008 C8033 0.951 . S
H8009 C8035 0.950 . S
H8010 C8036 0.950 . S
H8011 C8038 0.950 . S
H8012 C8041 0.950 . S
H8013 C8042 0.950 . S
H8014 C8044 0.950 . S
H8015 C8045 0.950 . S
C8016 H7998 0.951 . S
C8016 C8017 1.366 . S
C8016 C8018 1.388 . S
C8017 C8016 1.366 . S
C8017 C8021 1.385 . S
C8018 H7999 0.951 . S
C8018 C8016 1.388 . S
C8018 C8019 1.366 . S
C8019 C8018 1.366 . S
C8019 C8020 1.414 . S
C8019 C8022 1.499 . S
C8020 H8000 0.950 . S
C8020 C8019 1.414 . S
C8020 C8021 1.374 . S
C8021 H8001 0.950 . S
C8021 C8017 1.385 . S
C8021 C8020 1.374 . S
C8022 C8019 1.499 . S
C8022 C8023 1.373 . S
C8022 C8024 1.389 . S
C8023 H8002 0.950 . S
C8023 C8022 1.373 . S
C8023 C8039 1.377 . S
C8024 C8022 1.389 . S
C8024 C8025 1.524 . S
C8024 C8038 1.377 . S
C8025 C8024 1.524 . S
C8025 C8026 1.397 . S
C8025 C8030 1.363 . S
C8026 H8003 0.950 . S
C8026 C8025 1.397 . S
C8026 C8027 1.334 . S
C8027 H8004 0.950 . S
C8027 C8026 1.334 . S
C8027 C8028 1.287 . S
C8028 C8027 1.287 . S
C8028 C8029 1.524 . S
C8028 H8047 0.913 . S
C8029 H8005 0.950 . S
C8029 C8028 1.524 . S
C8029 C8030 1.415 . S
C8030 H8006 0.950 . S
C8030 C8025 1.363 . S
C8030 C8029 1.415 . S
C8031 H8007 0.951 . S
C8031 C8032 1.366 . S
C8031 C8033 1.388 . S
C8032 C8031 1.366 . S
C8032 C8036 1.385 . S
C8033 H8008 0.951 . S
C8033 C8031 1.388 . S
C8033 C8034 1.366 . S
C8034 C8033 1.366 . S
C8034 C8035 1.414 . S
C8034 C8037 1.499 . S
C8035 H8009 0.950 . S
C8035 C8034 1.414 . S
C8035 C8036 1.374 . S
C8036 H8010 0.950 . S
C8036 C8032 1.385 . S
C8036 C8035 1.374 . S
C8037 C8034 1.499 . S
C8037 C8038 1.373 . S
C8037 C8039 1.389 . S
C8038 H8011 0.950 . S
C8038 C8024 1.377 . S
C8038 C8037 1.373 . S
C8039 C8023 1.377 . S
C8039 C8037 1.389 . S
C8039 C8040 1.524 . S
C8040 C8039 1.524 . S
C8040 C8041 1.397 . S
C8040 C8045 1.363 . S
C8041 H8012 0.950 . S
C8041 C8040 1.397 . S
C8041 C8042 1.334 . S
C8042 H8013 0.950 . S
C8042 C8041 1.334 . S
C8042 C8043 1.287 . S
C8043 C8042 1.287 . S
C8043 C8044 1.524 . S
C8043 H8046 0.999 . S
C8044 H8014 0.950 . S
C8044 C8043 1.524 . S
C8044 C8045 1.415 . S
C8045 H8015 0.950 . S
C8045 C8040 1.363 . S
C8045 C8044 1.415 . S
H8046 C8043 0.999 . S
H8047 C8028 0.913 . S
H8048 C8066 0.951 . S
H8049 C8068 0.951 . S
H8050 C8070 0.950 . S
H8051 C8071 0.950 . S
H8052 C8073 0.950 . S
H8053 C8076 0.950 . S
H8054 C8077 0.950 . S
H8055 C8079 0.950 . S
H8056 C8080 0.950 . S
H8057 C8081 0.951 . S
H8058 C8083 0.951 . S
H8059 C8085 0.950 . S
H8060 C8086 0.950 . S
H8061 C8088 0.950 . S
H8062 C8091 0.950 . S
H8063 C8092 0.950 . S
H8064 C8094 0.950 . S
H8065 C8095 0.950 . S
C8066 H8048 0.951 . S
C8066 C8067 1.366 . S
C8066 C8068 1.388 . S
C8067 C8066 1.366 . S
C8067 C8071 1.385 . S
C8068 H8049 0.951 . S
C8068 C8066 1.388 . S
C8068 C8069 1.366 . S
C8069 C8068 1.366 . S
C8069 C8070 1.414 . S
C8069 C8072 1.499 . S
C8070 H8050 0.950 . S
C8070 C8069 1.414 . S
C8070 C8071 1.374 . S
C8071 H8051 0.950 . S
C8071 C8067 1.385 . S
C8071 C8070 1.374 . S
C8072 C8069 1.499 . S
C8072 C8073 1.373 . S
C8072 C8074 1.389 . S
C8073 H8052 0.950 . S
C8073 C8072 1.373 . S
C8073 C8089 1.377 . S
C8074 C8072 1.389 . S
C8074 C8075 1.524 . S
C8074 C8088 1.377 . S
C8075 C8074 1.524 . S
C8075 C8076 1.397 . S
C8075 C8080 1.363 . S
C8076 H8053 0.950 . S
C8076 C8075 1.397 . S
C8076 C8077 1.334 . S
C8077 H8054 0.950 . S
C8077 C8076 1.334 . S
C8077 C8078 1.287 . S
C8078 C8077 1.287 . S
C8078 C8079 1.524 . S
C8078 H8097 0.913 . S
C8079 H8055 0.950 . S
C8079 C8078 1.524 . S
C8079 C8080 1.415 . S
C8080 H8056 0.950 . S
C8080 C8075 1.363 . S
C8080 C8079 1.415 . S
C8081 H8057 0.951 . S
C8081 C8082 1.366 . S
C8081 C8083 1.388 . S
C8082 C8081 1.366 . S
C8082 C8086 1.385 . S
C8083 H8058 0.951 . S
C8083 C8081 1.388 . S
C8083 C8084 1.366 . S
C8084 C8083 1.366 . S
C8084 C8085 1.414 . S
C8084 C8087 1.499 . S
C8085 H8059 0.950 . S
C8085 C8084 1.414 . S
C8085 C8086 1.374 . S
C8086 H8060 0.950 . S
C8086 C8082 1.385 . S
C8086 C8085 1.374 . S
C8087 C8084 1.499 . S
C8087 C8088 1.373 . S
C8087 C8089 1.389 . S
C8088 H8061 0.950 . S
C8088 C8074 1.377 . S
C8088 C8087 1.373 . S
C8089 C8073 1.377 . S
C8089 C8087 1.389 . S
C8089 C8090 1.524 . S
C8090 C8089 1.524 . S
C8090 C8091 1.397 . S
C8090 C8095 1.363 . S
C8091 H8062 0.950 . S
C8091 C8090 1.397 . S
C8091 C8092 1.334 . S
C8092 H8063 0.950 . S
C8092 C8091 1.334 . S
C8092 C8093 1.287 . S
C8093 C8092 1.287 . S
C8093 C8094 1.524 . S
C8093 H8096 0.999 . S
C8094 H8064 0.950 . S
C8094 C8093 1.524 . S
C8094 C8095 1.415 . S
C8095 H8065 0.950 . S
C8095 C8090 1.363 . S
C8095 C8094 1.415 . S
H8096 C8093 0.999 . S
H8097 C8078 0.913 . S
H8098 C8116 0.951 . S
H8099 C8118 0.951 . S
H8100 C8120 0.950 . S
H8101 C8121 0.950 . S
H8102 C8123 0.950 . S
H8103 C8126 0.950 . S
H8104 C8127 0.950 . S
H8105 C8129 0.950 . S
H8106 C8130 0.950 . S
H8107 C8131 0.951 . S
H8108 C8133 0.951 . S
H8109 C8135 0.950 . S
H8110 C8136 0.950 . S
H8111 C8138 0.950 . S
H8112 C8141 0.950 . S
H8113 C8142 0.950 . S
H8114 C8144 0.950 . S
H8115 C8145 0.950 . S
C8116 H8098 0.951 . S
C8116 C8117 1.366 . S
C8116 C8118 1.388 . S
C8117 C8116 1.366 . S
C8117 C8121 1.385 . S
C8118 H8099 0.951 . S
C8118 C8116 1.388 . S
C8118 C8119 1.366 . S
C8119 C8118 1.366 . S
C8119 C8120 1.414 . S
C8119 C8122 1.499 . S
C8120 H8100 0.950 . S
C8120 C8119 1.414 . S
C8120 C8121 1.374 . S
C8121 H8101 0.950 . S
C8121 C8117 1.385 . S
C8121 C8120 1.374 . S
C8122 C8119 1.499 . S
C8122 C8123 1.373 . S
C8122 C8124 1.389 . S
C8123 H8102 0.950 . S
C8123 C8122 1.373 . S
C8123 C8139 1.377 . S
C8124 C8122 1.389 . S
C8124 C8125 1.524 . S
C8124 C8138 1.377 . S
C8125 C8124 1.524 . S
C8125 C8126 1.397 . S
C8125 C8130 1.363 . S
C8126 H8103 0.950 . S
C8126 C8125 1.397 . S
C8126 C8127 1.334 . S
C8127 H8104 0.950 . S
C8127 C8126 1.334 . S
C8127 C8128 1.287 . S
C8128 C8127 1.287 . S
C8128 C8129 1.524 . S
C8128 H8147 0.913 . S
C8129 H8105 0.950 . S
C8129 C8128 1.524 . S
C8129 C8130 1.415 . S
C8130 H8106 0.950 . S
C8130 C8125 1.363 . S
C8130 C8129 1.415 . S
C8131 H8107 0.951 . S
C8131 C8132 1.366 . S
C8131 C8133 1.388 . S
C8132 C8131 1.366 . S
C8132 C8136 1.385 . S
C8133 H8108 0.951 . S
C8133 C8131 1.388 . S
C8133 C8134 1.366 . S
C8134 C8133 1.366 . S
C8134 C8135 1.414 . S
C8134 C8137 1.499 . S
C8135 H8109 0.950 . S
C8135 C8134 1.414 . S
C8135 C8136 1.374 . S
C8136 H8110 0.950 . S
C8136 C8132 1.385 . S
C8136 C8135 1.374 . S
C8137 C8134 1.499 . S
C8137 C8138 1.373 . S
C8137 C8139 1.389 . S
C8138 H8111 0.950 . S
C8138 C8124 1.377 . S
C8138 C8137 1.373 . S
C8139 C8123 1.377 . S
C8139 C8137 1.389 . S
C8139 C8140 1.524 . S
C8140 C8139 1.524 . S
C8140 C8141 1.397 . S
C8140 C8145 1.363 . S
C8141 H8112 0.950 . S
C8141 C8140 1.397 . S
C8141 C8142 1.334 . S
C8142 H8113 0.950 . S
C8142 C8141 1.334 . S
C8142 C8143 1.287 . S
C8143 C8142 1.287 . S
C8143 C8144 1.524 . S
C8143 H8146 0.999 . S
C8144 H8114 0.950 . S
C8144 C8143 1.524 . S
C8144 C8145 1.415 . S
C8145 H8115 0.950 . S
C8145 C8140 1.363 . S
C8145 C8144 1.415 . S
H8146 C8143 0.999 . S
H8147 C8128 0.913 . S
H8148 C8166 0.951 . S
H8149 C8168 0.951 . S
H8150 C8170 0.950 . S
H8151 C8171 0.950 . S
H8152 C8173 0.950 . S
H8153 C8176 0.950 . S
H8154 C8177 0.950 . S
H8155 C8179 0.950 . S
H8156 C8180 0.950 . S
H8157 C8181 0.951 . S
H8158 C8183 0.951 . S
H8159 C8185 0.950 . S
H8160 C8186 0.950 . S
H8161 C8188 0.950 . S
H8162 C8191 0.950 . S
H8163 C8192 0.950 . S
H8164 C8194 0.950 . S
H8165 C8195 0.950 . S
C8166 H8148 0.951 . S
C8166 C8167 1.366 . S
C8166 C8168 1.388 . S
C8167 C8166 1.366 . S
C8167 C8171 1.385 . S
C8168 H8149 0.951 . S
C8168 C8166 1.388 . S
C8168 C8169 1.366 . S
C8169 C8168 1.366 . S
C8169 C8170 1.414 . S
C8169 C8172 1.499 . S
C8170 H8150 0.950 . S
C8170 C8169 1.414 . S
C8170 C8171 1.374 . S
C8171 H8151 0.950 . S
C8171 C8167 1.385 . S
C8171 C8170 1.374 . S
C8172 C8169 1.499 . S
C8172 C8173 1.373 . S
C8172 C8174 1.389 . S
C8173 H8152 0.950 . S
C8173 C8172 1.373 . S
C8173 C8189 1.377 . S
C8174 C8172 1.389 . S
C8174 C8175 1.524 . S
C8174 C8188 1.377 . S
C8175 C8174 1.524 . S
C8175 C8176 1.397 . S
C8175 C8180 1.363 . S
C8176 H8153 0.950 . S
C8176 C8175 1.397 . S
C8176 C8177 1.334 . S
C8177 H8154 0.950 . S
C8177 C8176 1.334 . S
C8177 C8178 1.287 . S
C8178 C8177 1.287 . S
C8178 C8179 1.524 . S
C8178 H8197 0.913 . S
C8179 H8155 0.950 . S
C8179 C8178 1.524 . S
C8179 C8180 1.415 . S
C8180 H8156 0.950 . S
C8180 C8175 1.363 . S
C8180 C8179 1.415 . S
C8181 H8157 0.951 . S
C8181 C8182 1.366 . S
C8181 C8183 1.388 . S
C8182 C8181 1.366 . S
C8182 C8186 1.385 . S
C8183 H8158 0.951 . S
C8183 C8181 1.388 . S
C8183 C8184 1.366 . S
C8184 C8183 1.366 . S
C8184 C8185 1.414 . S
C8184 C8187 1.499 . S
C8185 H8159 0.950 . S
C8185 C8184 1.414 . S
C8185 C8186 1.374 . S
C8186 H8160 0.950 . S
C8186 C8182 1.385 . S
C8186 C8185 1.374 . S
C8187 C8184 1.499 . S
C8187 C8188 1.373 . S
C8187 C8189 1.389 . S
C8188 H8161 0.950 . S
C8188 C8174 1.377 . S
C8188 C8187 1.373 . S
C8189 C8173 1.377 . S
C8189 C8187 1.389 . S
C8189 C8190 1.524 . S
C8190 C8189 1.524 . S
C8190 C8191 1.397 . S
C8190 C8195 1.363 . S
C8191 H8162 0.950 . S
C8191 C8190 1.397 . S
C8191 C8192 1.334 . S
C8192 H8163 0.950 . S
C8192 C8191 1.334 . S
C8192 C8193 1.287 . S
C8193 C8192 1.287 . S
C8193 C8194 1.524 . S
C8193 H8196 0.999 . S
C8194 H8164 0.950 . S
C8194 C8193 1.524 . S
C8194 C8195 1.415 . S
C8195 H8165 0.950 . S
C8195 C8190 1.363 . S
C8195 C8194 1.415 . S
H8196 C8193 0.999 . S
H8197 C8178 0.913 . S
H8198 C8216 0.951 . S
H8199 C8218 0.951 . S
H8200 C8220 0.950 . S
H8201 C8221 0.950 . S
H8202 C8223 0.950 . S
H8203 C8226 0.950 . S
H8204 C8227 0.950 . S
H8205 C8229 0.950 . S
H8206 C8230 0.950 . S
H8207 C8231 0.951 . S
H8208 C8233 0.951 . S
H8209 C8235 0.950 . S
H8210 C8236 0.950 . S
H8211 C8238 0.950 . S
H8212 C8241 0.950 . S
H8213 C8242 0.950 . S
H8214 C8244 0.950 . S
H8215 C8245 0.950 . S
C8216 H8198 0.951 . S
C8216 C8217 1.366 . S
C8216 C8218 1.388 . S
C8217 C8216 1.366 . S
C8217 C8221 1.385 . S
C8218 H8199 0.951 . S
C8218 C8216 1.388 . S
C8218 C8219 1.366 . S
C8219 C8218 1.366 . S
C8219 C8220 1.414 . S
C8219 C8222 1.499 . S
C8220 H8200 0.950 . S
C8220 C8219 1.414 . S
C8220 C8221 1.374 . S
C8221 H8201 0.950 . S
C8221 C8217 1.385 . S
C8221 C8220 1.374 . S
C8222 C8219 1.499 . S
C8222 C8223 1.373 . S
C8222 C8224 1.389 . S
C8223 H8202 0.950 . S
C8223 C8222 1.373 . S
C8223 C8239 1.377 . S
C8224 C8222 1.389 . S
C8224 C8225 1.524 . S
C8224 C8238 1.377 . S
C8225 C8224 1.524 . S
C8225 C8226 1.397 . S
C8225 C8230 1.363 . S
C8226 H8203 0.950 . S
C8226 C8225 1.397 . S
C8226 C8227 1.334 . S
C8227 H8204 0.950 . S
C8227 C8226 1.334 . S
C8227 C8228 1.287 . S
C8228 C8227 1.287 . S
C8228 C8229 1.524 . S
C8228 H8247 0.913 . S
C8229 H8205 0.950 . S
C8229 C8228 1.524 . S
C8229 C8230 1.415 . S
C8230 H8206 0.950 . S
C8230 C8225 1.363 . S
C8230 C8229 1.415 . S
C8231 H8207 0.951 . S
C8231 C8232 1.366 . S
C8231 C8233 1.388 . S
C8232 C8231 1.366 . S
C8232 C8236 1.385 . S
C8233 H8208 0.951 . S
C8233 C8231 1.388 . S
C8233 C8234 1.366 . S
C8234 C8233 1.366 . S
C8234 C8235 1.414 . S
C8234 C8237 1.499 . S
C8235 H8209 0.950 . S
C8235 C8234 1.414 . S
C8235 C8236 1.374 . S
C8236 H8210 0.950 . S
C8236 C8232 1.385 . S
C8236 C8235 1.374 . S
C8237 C8234 1.499 . S
C8237 C8238 1.373 . S
C8237 C8239 1.389 . S
C8238 H8211 0.950 . S
C8238 C8224 1.377 . S
C8238 C8237 1.373 . S
C8239 C8223 1.377 . S
C8239 C8237 1.389 . S
C8239 C8240 1.524 . S
C8240 C8239 1.524 . S
C8240 C8241 1.397 . S
C8240 C8245 1.363 . S
C8241 H8212 0.950 . S
C8241 C8240 1.397 . S
C8241 C8242 1.334 . S
C8242 H8213 0.950 . S
C8242 C8241 1.334 . S
C8242 C8243 1.287 . S
C8243 C8242 1.287 . S
C8243 C8244 1.524 . S
C8243 H8246 0.999 . S
C8244 H8214 0.950 . S
C8244 C8243 1.524 . S
C8244 C8245 1.415 . S
C8245 H8215 0.950 . S
C8245 C8240 1.363 . S
C8245 C8244 1.415 . S
H8246 C8243 0.999 . S
H8247 C8228 0.913 . S
H8248 C8266 0.951 . S
H8249 C8268 0.951 . S
H8250 C8270 0.950 . S
H8251 C8271 0.950 . S
H8252 C8273 0.950 . S
H8253 C8276 0.950 . S
H8254 C8277 0.950 . S
H8255 C8279 0.950 . S
H8256 C8280 0.950 . S
H8257 C8281 0.951 . S
H8258 C8283 0.951 . S
H8259 C8285 0.950 . S
H8260 C8286 0.950 . S
H8261 C8288 0.950 . S
H8262 C8291 0.950 . S
H8263 C8292 0.950 . S
H8264 C8294 0.950 . S
H8265 C8295 0.950 . S
C8266 H8248 0.951 . S
C8266 C8267 1.366 . S
C8266 C8268 1.388 . S
C8267 C8266 1.366 . S
C8267 C8271 1.385 . S
C8268 H8249 0.951 . S
C8268 C8266 1.388 . S
C8268 C8269 1.366 . S
C8269 C8268 1.366 . S
C8269 C8270 1.414 . S
C8269 C8272 1.499 . S
C8270 H8250 0.950 . S
C8270 C8269 1.414 . S
C8270 C8271 1.374 . S
C8271 H8251 0.950 . S
C8271 C8267 1.385 . S
C8271 C8270 1.374 . S
C8272 C8269 1.499 . S
C8272 C8273 1.373 . S
C8272 C8274 1.389 . S
C8273 H8252 0.950 . S
C8273 C8272 1.373 . S
C8273 C8289 1.377 . S
C8274 C8272 1.389 . S
C8274 C8275 1.524 . S
C8274 C8288 1.377 . S
C8275 C8274 1.524 . S
C8275 C8276 1.397 . S
C8275 C8280 1.363 . S
C8276 H8253 0.950 . S
C8276 C8275 1.397 . S
C8276 C8277 1.334 . S
C8277 H8254 0.950 . S
C8277 C8276 1.334 . S
C8277 C8278 1.287 . S
C8278 C8277 1.287 . S
C8278 C8279 1.524 . S
C8278 H8297 0.913 . S
C8279 H8255 0.950 . S
C8279 C8278 1.524 . S
C8279 C8280 1.415 . S
C8280 H8256 0.950 . S
C8280 C8275 1.363 . S
C8280 C8279 1.415 . S
C8281 H8257 0.951 . S
C8281 C8282 1.366 . S
C8281 C8283 1.388 . S
C8282 C8281 1.366 . S
C8282 C8286 1.385 . S
C8283 H8258 0.951 . S
C8283 C8281 1.388 . S
C8283 C8284 1.366 . S
C8284 C8283 1.366 . S
C8284 C8285 1.414 . S
C8284 C8287 1.499 . S
C8285 H8259 0.950 . S
C8285 C8284 1.414 . S
C8285 C8286 1.374 . S
C8286 H8260 0.950 . S
C8286 C8282 1.385 . S
C8286 C8285 1.374 . S
C8287 C8284 1.499 . S
C8287 C8288 1.373 . S
C8287 C8289 1.389 . S
C8288 H8261 0.950 . S
C8288 C8274 1.377 . S
C8288 C8287 1.373 . S
C8289 C8273 1.377 . S
C8289 C8287 1.389 . S
C8289 C8290 1.524 . S
C8290 C8289 1.524 . S
C8290 C8291 1.397 . S
C8290 C8295 1.363 . S
C8291 H8262 0.950 . S
C8291 C8290 1.397 . S
C8291 C8292 1.334 . S
C8292 H8263 0.950 . S
C8292 C8291 1.334 . S
C8292 C8293 1.287 . S
C8293 C8292 1.287 . S
C8293 C8294 1.524 . S
C8293 H8296 0.999 . S
C8294 H8264 0.950 . S
C8294 C8293 1.524 . S
C8294 C8295 1.415 . S
C8295 H8265 0.950 . S
C8295 C8290 1.363 . S
C8295 C8294 1.415 . S
H8296 C8293 0.999 . S
H8297 C8278 0.913 . S
H8298 C8316 0.951 . S
H8299 C8318 0.951 . S
H8300 C8320 0.950 . S
H8301 C8321 0.950 . S
H8302 C8323 0.950 . S
H8303 C8326 0.950 . S
H8304 C8327 0.950 . S
H8305 C8329 0.950 . S
H8306 C8330 0.950 . S
H8307 C8331 0.951 . S
H8308 C8333 0.951 . S
H8309 C8335 0.950 . S
H8310 C8336 0.950 . S
H8311 C8338 0.950 . S
H8312 C8341 0.950 . S
H8313 C8342 0.950 . S
H8314 C8344 0.950 . S
H8315 C8345 0.950 . S
C8316 H8298 0.951 . S
C8316 C8317 1.366 . S
C8316 C8318 1.388 . S
C8317 C8316 1.366 . S
C8317 C8321 1.385 . S
C8318 H8299 0.951 . S
C8318 C8316 1.388 . S
C8318 C8319 1.366 . S
C8319 C8318 1.366 . S
C8319 C8320 1.414 . S
C8319 C8322 1.499 . S
C8320 H8300 0.950 . S
C8320 C8319 1.414 . S
C8320 C8321 1.374 . S
C8321 H8301 0.950 . S
C8321 C8317 1.385 . S
C8321 C8320 1.374 . S
C8322 C8319 1.499 . S
C8322 C8323 1.373 . S
C8322 C8324 1.389 . S
C8323 H8302 0.950 . S
C8323 C8322 1.373 . S
C8323 C8339 1.377 . S
C8324 C8322 1.389 . S
C8324 C8325 1.524 . S
C8324 C8338 1.377 . S
C8325 C8324 1.524 . S
C8325 C8326 1.397 . S
C8325 C8330 1.363 . S
C8326 H8303 0.950 . S
C8326 C8325 1.397 . S
C8326 C8327 1.334 . S
C8327 H8304 0.950 . S
C8327 C8326 1.334 . S
C8327 C8328 1.287 . S
C8328 C8327 1.287 . S
C8328 C8329 1.524 . S
C8328 H8347 0.913 . S
C8329 H8305 0.950 . S
C8329 C8328 1.524 . S
C8329 C8330 1.415 . S
C8330 H8306 0.950 . S
C8330 C8325 1.363 . S
C8330 C8329 1.415 . S
C8331 H8307 0.951 . S
C8331 C8332 1.366 . S
C8331 C8333 1.388 . S
C8332 C8331 1.366 . S
C8332 C8336 1.385 . S
C8333 H8308 0.951 . S
C8333 C8331 1.388 . S
C8333 C8334 1.366 . S
C8334 C8333 1.366 . S
C8334 C8335 1.414 . S
C8334 C8337 1.499 . S
C8335 H8309 0.950 . S
C8335 C8334 1.414 . S
C8335 C8336 1.374 . S
C8336 H8310 0.950 . S
C8336 C8332 1.385 . S
C8336 C8335 1.374 . S
C8337 C8334 1.499 . S
C8337 C8338 1.373 . S
C8337 C8339 1.389 . S
C8338 H8311 0.950 . S
C8338 C8324 1.377 . S
C8338 C8337 1.373 . S
C8339 C8323 1.377 . S
C8339 C8337 1.389 . S
C8339 C8340 1.524 . S
C8340 C8339 1.524 . S
C8340 C8341 1.397 . S
C8340 C8345 1.363 . S
C8341 H8312 0.950 . S
C8341 C8340 1.397 . S
C8341 C8342 1.334 . S
C8342 H8313 0.950 . S
C8342 C8341 1.334 . S
C8342 C8343 1.287 . S
C8343 C8342 1.287 . S
C8343 C8344 1.524 . S
C8343 H8346 0.999 . S
C8344 H8314 0.950 . S
C8344 C8343 1.524 . S
C8344 C8345 1.415 . S
C8345 H8315 0.950 . S
C8345 C8340 1.363 . S
C8345 C8344 1.415 . S
H8346 C8343 0.999 . S
H8347 C8328 0.913 . S
H8348 C8366 0.951 . S
H8349 C8368 0.951 . S
H8350 C8370 0.950 . S
H8351 C8371 0.950 . S
H8352 C8373 0.950 . S
H8353 C8376 0.950 . S
H8354 C8377 0.950 . S
H8355 C8379 0.950 . S
H8356 C8380 0.950 . S
H8357 C8381 0.951 . S
H8358 C8383 0.951 . S
H8359 C8385 0.950 . S
H8360 C8386 0.950 . S
H8361 C8388 0.950 . S
H8362 C8391 0.950 . S
H8363 C8392 0.950 . S
H8364 C8394 0.950 . S
H8365 C8395 0.950 . S
C8366 H8348 0.951 . S
C8366 C8367 1.366 . S
C8366 C8368 1.388 . S
C8367 C8366 1.366 . S
C8367 C8371 1.385 . S
C8368 H8349 0.951 . S
C8368 C8366 1.388 . S
C8368 C8369 1.366 . S
C8369 C8368 1.366 . S
C8369 C8370 1.414 . S
C8369 C8372 1.499 . S
C8370 H8350 0.950 . S
C8370 C8369 1.414 . S
C8370 C8371 1.374 . S
C8371 H8351 0.950 . S
C8371 C8367 1.385 . S
C8371 C8370 1.374 . S
C8372 C8369 1.499 . S
C8372 C8373 1.373 . S
C8372 C8374 1.389 . S
C8373 H8352 0.950 . S
C8373 C8372 1.373 . S
C8373 C8389 1.377 . S
C8374 C8372 1.389 . S
C8374 C8375 1.524 . S
C8374 C8388 1.377 . S
C8375 C8374 1.524 . S
C8375 C8376 1.397 . S
C8375 C8380 1.363 . S
C8376 H8353 0.950 . S
C8376 C8375 1.397 . S
C8376 C8377 1.334 . S
C8377 H8354 0.950 . S
C8377 C8376 1.334 . S
C8377 C8378 1.287 . S
C8378 C8377 1.287 . S
C8378 C8379 1.524 . S
C8378 H8397 0.913 . S
C8379 H8355 0.950 . S
C8379 C8378 1.524 . S
C8379 C8380 1.415 . S
C8380 H8356 0.950 . S
C8380 C8375 1.363 . S
C8380 C8379 1.415 . S
C8381 H8357 0.951 . S
C8381 C8382 1.366 . S
C8381 C8383 1.388 . S
C8382 C8381 1.366 . S
C8382 C8386 1.385 . S
C8383 H8358 0.951 . S
C8383 C8381 1.388 . S
C8383 C8384 1.366 . S
C8384 C8383 1.366 . S
C8384 C8385 1.414 . S
C8384 C8387 1.499 . S
C8385 H8359 0.950 . S
C8385 C8384 1.414 . S
C8385 C8386 1.374 . S
C8386 H8360 0.950 . S
C8386 C8382 1.385 . S
C8386 C8385 1.374 . S
C8387 C8384 1.499 . S
C8387 C8388 1.373 . S
C8387 C8389 1.389 . S
C8388 H8361 0.950 . S
C8388 C8374 1.377 . S
C8388 C8387 1.373 . S
C8389 C8373 1.377 . S
C8389 C8387 1.389 . S
C8389 C8390 1.524 . S
C8390 C8389 1.524 . S
C8390 C8391 1.397 . S
C8390 C8395 1.363 . S
C8391 H8362 0.950 . S
C8391 C8390 1.397 . S
C8391 C8392 1.334 . S
C8392 H8363 0.950 . S
C8392 C8391 1.334 . S
C8392 C8393 1.287 . S
C8393 C8392 1.287 . S
C8393 C8394 1.524 . S
C8393 H8396 0.999 . S
C8394 H8364 0.950 . S
C8394 C8393 1.524 . S
C8394 C8395 1.415 . S
C8395 H8365 0.950 . S
C8395 C8390 1.363 . S
C8395 C8394 1.415 . S
H8396 C8393 0.999 . S
H8397 C8378 0.913 . S
H8398 C8416 0.951 . S
H8399 C8418 0.951 . S
H8400 C8420 0.950 . S
H8401 C8421 0.950 . S
H8402 C8423 0.950 . S
H8403 C8426 0.950 . S
H8404 C8427 0.950 . S
H8405 C8429 0.950 . S
H8406 C8430 0.950 . S
H8407 C8431 0.951 . S
H8408 C8433 0.951 . S
H8409 C8435 0.950 . S
H8410 C8436 0.950 . S
H8411 C8438 0.950 . S
H8412 C8441 0.950 . S
H8413 C8442 0.950 . S
H8414 C8444 0.950 . S
H8415 C8445 0.950 . S
C8416 H8398 0.951 . S
C8416 C8417 1.366 . S
C8416 C8418 1.388 . S
C8417 C8416 1.366 . S
C8417 C8421 1.385 . S
C8418 H8399 0.951 . S
C8418 C8416 1.388 . S
C8418 C8419 1.366 . S
C8419 C8418 1.366 . S
C8419 C8420 1.414 . S
C8419 C8422 1.499 . S
C8420 H8400 0.950 . S
C8420 C8419 1.414 . S
C8420 C8421 1.374 . S
C8421 H8401 0.950 . S
C8421 C8417 1.385 . S
C8421 C8420 1.374 . S
C8422 C8419 1.499 . S
C8422 C8423 1.373 . S
C8422 C8424 1.389 . S
C8423 H8402 0.950 . S
C8423 C8422 1.373 . S
C8423 C8439 1.377 . S
C8424 C8422 1.389 . S
C8424 C8425 1.524 . S
C8424 C8438 1.377 . S
C8425 C8424 1.524 . S
C8425 C8426 1.397 . S
C8425 C8430 1.363 . S
C8426 H8403 0.950 . S
C8426 C8425 1.397 . S
C8426 C8427 1.334 . S
C8427 H8404 0.950 . S
C8427 C8426 1.334 . S
C8427 C8428 1.287 . S
C8428 C8427 1.287 . S
C8428 C8429 1.524 . S
C8428 H8447 0.913 . S
C8429 H8405 0.950 . S
C8429 C8428 1.524 . S
C8429 C8430 1.415 . S
C8430 H8406 0.950 . S
C8430 C8425 1.363 . S
C8430 C8429 1.415 . S
C8431 H8407 0.951 . S
C8431 C8432 1.366 . S
C8431 C8433 1.388 . S
C8432 C8431 1.366 . S
C8432 C8436 1.385 . S
C8433 H8408 0.951 . S
C8433 C8431 1.388 . S
C8433 C8434 1.366 . S
C8434 C8433 1.366 . S
C8434 C8435 1.414 . S
C8434 C8437 1.499 . S
C8435 H8409 0.950 . S
C8435 C8434 1.414 . S
C8435 C8436 1.374 . S
C8436 H8410 0.950 . S
C8436 C8432 1.385 . S
C8436 C8435 1.374 . S
C8437 C8434 1.499 . S
C8437 C8438 1.373 . S
C8437 C8439 1.389 . S
C8438 H8411 0.950 . S
C8438 C8424 1.377 . S
C8438 C8437 1.373 . S
C8439 C8423 1.377 . S
C8439 C8437 1.389 . S
C8439 C8440 1.524 . S
C8440 C8439 1.524 . S
C8440 C8441 1.397 . S
C8440 C8445 1.363 . S
C8441 H8412 0.950 . S
C8441 C8440 1.397 . S
C8441 C8442 1.334 . S
C8442 H8413 0.950 . S
C8442 C8441 1.334 . S
C8442 C8443 1.287 . S
C8443 C8442 1.287 . S
C8443 C8444 1.524 . S
C8443 H8446 0.999 . S
C8444 H8414 0.950 . S
C8444 C8443 1.524 . S
C8444 C8445 1.415 . S
C8445 H8415 0.950 . S
C8445 C8440 1.363 . S
C8445 C8444 1.415 . S
H8446 C8443 0.999 . S
H8447 C8428 0.913 . S
H8448 C8466 0.951 . S
H8449 C8468 0.951 . S
H8450 C8470 0.950 . S
H8451 C8471 0.950 . S
H8452 C8473 0.950 . S
H8453 C8476 0.950 . S
H8454 C8477 0.950 . S
H8455 C8479 0.950 . S
H8456 C8480 0.950 . S
H8457 C8481 0.951 . S
H8458 C8483 0.951 . S
H8459 C8485 0.950 . S
H8460 C8486 0.950 . S
H8461 C8488 0.950 . S
H8462 C8491 0.950 . S
H8463 C8492 0.950 . S
H8464 C8494 0.950 . S
H8465 C8495 0.950 . S
C8466 H8448 0.951 . S
C8466 C8467 1.366 . S
C8466 C8468 1.388 . S
C8467 C8466 1.366 . S
C8467 C8471 1.385 . S
C8468 H8449 0.951 . S
C8468 C8466 1.388 . S
C8468 C8469 1.366 . S
C8469 C8468 1.366 . S
C8469 C8470 1.414 . S
C8469 C8472 1.499 . S
C8470 H8450 0.950 . S
C8470 C8469 1.414 . S
C8470 C8471 1.374 . S
C8471 H8451 0.950 . S
C8471 C8467 1.385 . S
C8471 C8470 1.374 . S
C8472 C8469 1.499 . S
C8472 C8473 1.373 . S
C8472 C8474 1.389 . S
C8473 H8452 0.950 . S
C8473 C8472 1.373 . S
C8473 C8489 1.377 . S
C8474 C8472 1.389 . S
C8474 C8475 1.524 . S
C8474 C8488 1.377 . S
C8475 C8474 1.524 . S
C8475 C8476 1.397 . S
C8475 C8480 1.363 . S
C8476 H8453 0.950 . S
C8476 C8475 1.397 . S
C8476 C8477 1.334 . S
C8477 H8454 0.950 . S
C8477 C8476 1.334 . S
C8477 C8478 1.287 . S
C8478 C8477 1.287 . S
C8478 C8479 1.524 . S
C8478 H8497 0.913 . S
C8479 H8455 0.950 . S
C8479 C8478 1.524 . S
C8479 C8480 1.415 . S
C8480 H8456 0.950 . S
C8480 C8475 1.363 . S
C8480 C8479 1.415 . S
C8481 H8457 0.951 . S
C8481 C8482 1.366 . S
C8481 C8483 1.388 . S
C8482 C8481 1.366 . S
C8482 C8486 1.385 . S
C8483 H8458 0.951 . S
C8483 C8481 1.388 . S
C8483 C8484 1.366 . S
C8484 C8483 1.366 . S
C8484 C8485 1.414 . S
C8484 C8487 1.499 . S
C8485 H8459 0.950 . S
C8485 C8484 1.414 . S
C8485 C8486 1.374 . S
C8486 H8460 0.950 . S
C8486 C8482 1.385 . S
C8486 C8485 1.374 . S
C8487 C8484 1.499 . S
C8487 C8488 1.373 . S
C8487 C8489 1.389 . S
C8488 H8461 0.950 . S
C8488 C8474 1.377 . S
C8488 C8487 1.373 . S
C8489 C8473 1.377 . S
C8489 C8487 1.389 . S
C8489 C8490 1.524 . S
C8490 C8489 1.524 . S
C8490 C8491 1.397 . S
C8490 C8495 1.363 . S
C8491 H8462 0.950 . S
C8491 C8490 1.397 . S
C8491 C8492 1.334 . S
C8492 H8463 0.950 . S
C8492 C8491 1.334 . S
C8492 C8493 1.287 . S
C8493 C8492 1.287 . S
C8493 C8494 1.524 . S
C8493 H8496 0.999 . S
C8494 H8464 0.950 . S
C8494 C8493 1.524 . S
C8494 C8495 1.415 . S
C8495 H8465 0.950 . S
C8495 C8490 1.363 . S
C8495 C8494 1.415 . S
H8496 C8493 0.999 . S
H8497 C8478 0.913 . S
H8498 C8516 0.951 . S
H8499 C8518 0.951 . S
H8500 C8520 0.950 . S
H8501 C8521 0.950 . S
H8502 C8523 0.950 . S
H8503 C8526 0.950 . S
H8504 C8527 0.950 . S
H8505 C8529 0.950 . S
H8506 C8530 0.950 . S
H8507 C8531 0.951 . S
H8508 C8533 0.951 . S
H8509 C8535 0.950 . S
H8510 C8536 0.950 . S
H8511 C8538 0.950 . S
H8512 C8541 0.950 . S
H8513 C8542 0.950 . S
H8514 C8544 0.950 . S
H8515 C8545 0.950 . S
C8516 H8498 0.951 . S
C8516 C8517 1.366 . S
C8516 C8518 1.388 . S
C8517 C8516 1.366 . S
C8517 C8521 1.385 . S
C8518 H8499 0.951 . S
C8518 C8516 1.388 . S
C8518 C8519 1.366 . S
C8519 C8518 1.366 . S
C8519 C8520 1.414 . S
C8519 C8522 1.499 . S
C8520 H8500 0.950 . S
C8520 C8519 1.414 . S
C8520 C8521 1.374 . S
C8521 H8501 0.950 . S
C8521 C8517 1.385 . S
C8521 C8520 1.374 . S
C8522 C8519 1.499 . S
C8522 C8523 1.373 . S
C8522 C8524 1.389 . S
C8523 H8502 0.950 . S
C8523 C8522 1.373 . S
C8523 C8539 1.377 . S
C8524 C8522 1.389 . S
C8524 C8525 1.524 . S
C8524 C8538 1.377 . S
C8525 C8524 1.524 . S
C8525 C8526 1.397 . S
C8525 C8530 1.363 . S
C8526 H8503 0.950 . S
C8526 C8525 1.397 . S
C8526 C8527 1.334 . S
C8527 H8504 0.950 . S
C8527 C8526 1.334 . S
C8527 C8528 1.287 . S
C8528 C8527 1.287 . S
C8528 C8529 1.524 . S
C8528 H8547 0.913 . S
C8529 H8505 0.950 . S
C8529 C8528 1.524 . S
C8529 C8530 1.415 . S
C8530 H8506 0.950 . S
C8530 C8525 1.363 . S
C8530 C8529 1.415 . S
C8531 H8507 0.951 . S
C8531 C8532 1.366 . S
C8531 C8533 1.388 . S
C8532 C8531 1.366 . S
C8532 C8536 1.385 . S
C8533 H8508 0.951 . S
C8533 C8531 1.388 . S
C8533 C8534 1.366 . S
C8534 C8533 1.366 . S
C8534 C8535 1.414 . S
C8534 C8537 1.499 . S
C8535 H8509 0.950 . S
C8535 C8534 1.414 . S
C8535 C8536 1.374 . S
C8536 H8510 0.950 . S
C8536 C8532 1.385 . S
C8536 C8535 1.374 . S
C8537 C8534 1.499 . S
C8537 C8538 1.373 . S
C8537 C8539 1.389 . S
C8538 H8511 0.950 . S
C8538 C8524 1.377 . S
C8538 C8537 1.373 . S
C8539 C8523 1.377 . S
C8539 C8537 1.389 . S
C8539 C8540 1.524 . S
C8540 C8539 1.524 . S
C8540 C8541 1.397 . S
C8540 C8545 1.363 . S
C8541 H8512 0.950 . S
C8541 C8540 1.397 . S
C8541 C8542 1.334 . S
C8542 H8513 0.950 . S
C8542 C8541 1.334 . S
C8542 C8543 1.287 . S
C8543 C8542 1.287 . S
C8543 C8544 1.524 . S
C8543 H8546 0.999 . S
C8544 H8514 0.950 . S
C8544 C8543 1.524 . S
C8544 C8545 1.415 . S
C8545 H8515 0.950 . S
C8545 C8540 1.363 . S
C8545 C8544 1.415 . S
H8546 C8543 0.999 . S
H8547 C8528 0.913 . S
H8548 C8566 0.951 . S
H8549 C8568 0.951 . S
H8550 C8570 0.950 . S
H8551 C8571 0.950 . S
H8552 C8573 0.950 . S
H8553 C8576 0.950 . S
H8554 C8577 0.950 . S
H8555 C8579 0.950 . S
H8556 C8580 0.950 . S
H8557 C8581 0.951 . S
H8558 C8583 0.951 . S
H8559 C8585 0.950 . S
H8560 C8586 0.950 . S
H8561 C8588 0.950 . S
H8562 C8591 0.950 . S
H8563 C8592 0.950 . S
H8564 C8594 0.950 . S
H8565 C8595 0.950 . S
C8566 H8548 0.951 . S
C8566 C8567 1.366 . S
C8566 C8568 1.388 . S
C8567 C8566 1.366 . S
C8567 C8571 1.385 . S
C8568 H8549 0.951 . S
C8568 C8566 1.388 . S
C8568 C8569 1.366 . S
C8569 C8568 1.366 . S
C8569 C8570 1.414 . S
C8569 C8572 1.499 . S
C8570 H8550 0.950 . S
C8570 C8569 1.414 . S
C8570 C8571 1.374 . S
C8571 H8551 0.950 . S
C8571 C8567 1.385 . S
C8571 C8570 1.374 . S
C8572 C8569 1.499 . S
C8572 C8573 1.373 . S
C8572 C8574 1.389 . S
C8573 H8552 0.950 . S
C8573 C8572 1.373 . S
C8573 C8589 1.377 . S
C8574 C8572 1.389 . S
C8574 C8575 1.524 . S
C8574 C8588 1.377 . S
C8575 C8574 1.524 . S
C8575 C8576 1.397 . S
C8575 C8580 1.363 . S
C8576 H8553 0.950 . S
C8576 C8575 1.397 . S
C8576 C8577 1.334 . S
C8577 H8554 0.950 . S
C8577 C8576 1.334 . S
C8577 C8578 1.287 . S
C8578 C8577 1.287 . S
C8578 C8579 1.524 . S
C8578 H8597 0.913 . S
C8579 H8555 0.950 . S
C8579 C8578 1.524 . S
C8579 C8580 1.415 . S
C8580 H8556 0.950 . S
C8580 C8575 1.363 . S
C8580 C8579 1.415 . S
C8581 H8557 0.951 . S
C8581 C8582 1.366 . S
C8581 C8583 1.388 . S
C8582 C8581 1.366 . S
C8582 C8586 1.385 . S
C8583 H8558 0.951 . S
C8583 C8581 1.388 . S
C8583 C8584 1.366 . S
C8584 C8583 1.366 . S
C8584 C8585 1.414 . S
C8584 C8587 1.499 . S
C8585 H8559 0.950 . S
C8585 C8584 1.414 . S
C8585 C8586 1.374 . S
C8586 H8560 0.950 . S
C8586 C8582 1.385 . S
C8586 C8585 1.374 . S
C8587 C8584 1.499 . S
C8587 C8588 1.373 . S
C8587 C8589 1.389 . S
C8588 H8561 0.950 . S
C8588 C8574 1.377 . S
C8588 C8587 1.373 . S
C8589 C8573 1.377 . S
C8589 C8587 1.389 . S
C8589 C8590 1.524 . S
C8590 C8589 1.524 . S
C8590 C8591 1.397 . S
C8590 C8595 1.363 . S
C8591 H8562 0.950 . S
C8591 C8590 1.397 . S
C8591 C8592 1.334 . S
C8592 H8563 0.950 . S
C8592 C8591 1.334 . S
C8592 C8593 1.287 . S
C8593 C8592 1.287 . S
C8593 C8594 1.524 . S
C8593 H8596 0.999 . S
C8594 H8564 0.950 . S
C8594 C8593 1.524 . S
C8594 C8595 1.415 . S
C8595 H8565 0.950 . S
C8595 C8590 1.363 . S
C8595 C8594 1.415 . S
H8596 C8593 0.999 . S
H8597 C8578 0.913 . S
H8598 C8616 0.951 . S
H8599 C8618 0.951 . S
H8600 C8620 0.950 . S
H8601 C8621 0.950 . S
H8602 C8623 0.950 . S
H8603 C8626 0.950 . S
H8604 C8627 0.950 . S
H8605 C8629 0.950 . S
H8606 C8630 0.950 . S
H8607 C8631 0.951 . S
H8608 C8633 0.951 . S
H8609 C8635 0.950 . S
H8610 C8636 0.950 . S
H8611 C8638 0.950 . S
H8612 C8641 0.950 . S
H8613 C8642 0.950 . S
H8614 C8644 0.950 . S
H8615 C8645 0.950 . S
C8616 H8598 0.951 . S
C8616 C8617 1.366 . S
C8616 C8618 1.388 . S
C8617 C8616 1.366 . S
C8617 C8621 1.385 . S
C8618 H8599 0.951 . S
C8618 C8616 1.388 . S
C8618 C8619 1.366 . S
C8619 C8618 1.366 . S
C8619 C8620 1.414 . S
C8619 C8622 1.499 . S
C8620 H8600 0.950 . S
C8620 C8619 1.414 . S
C8620 C8621 1.374 . S
C8621 H8601 0.950 . S
C8621 C8617 1.385 . S
C8621 C8620 1.374 . S
C8622 C8619 1.499 . S
C8622 C8623 1.373 . S
C8622 C8624 1.389 . S
C8623 H8602 0.950 . S
C8623 C8622 1.373 . S
C8623 C8639 1.377 . S
C8624 C8622 1.389 . S
C8624 C8625 1.524 . S
C8624 C8638 1.377 . S
C8625 C8624 1.524 . S
C8625 C8626 1.397 . S
C8625 C8630 1.363 . S
C8626 H8603 0.950 . S
C8626 C8625 1.397 . S
C8626 C8627 1.334 . S
C8627 H8604 0.950 . S
C8627 C8626 1.334 . S
C8627 C8628 1.287 . S
C8628 C8627 1.287 . S
C8628 C8629 1.524 . S
C8628 H8647 0.913 . S
C8629 H8605 0.950 . S
C8629 C8628 1.524 . S
C8629 C8630 1.415 . S
C8630 H8606 0.950 . S
C8630 C8625 1.363 . S
C8630 C8629 1.415 . S
C8631 H8607 0.951 . S
C8631 C8632 1.366 . S
C8631 C8633 1.388 . S
C8632 C8631 1.366 . S
C8632 C8636 1.385 . S
C8633 H8608 0.951 . S
C8633 C8631 1.388 . S
C8633 C8634 1.366 . S
C8634 C8633 1.366 . S
C8634 C8635 1.414 . S
C8634 C8637 1.499 . S
C8635 H8609 0.950 . S
C8635 C8634 1.414 . S
C8635 C8636 1.374 . S
C8636 H8610 0.950 . S
C8636 C8632 1.385 . S
C8636 C8635 1.374 . S
C8637 C8634 1.499 . S
C8637 C8638 1.373 . S
C8637 C8639 1.389 . S
C8638 H8611 0.950 . S
C8638 C8624 1.377 . S
C8638 C8637 1.373 . S
C8639 C8623 1.377 . S
C8639 C8637 1.389 . S
C8639 C8640 1.524 . S
C8640 C8639 1.524 . S
C8640 C8641 1.397 . S
C8640 C8645 1.363 . S
C8641 H8612 0.950 . S
C8641 C8640 1.397 . S
C8641 C8642 1.334 . S
C8642 H8613 0.950 . S
C8642 C8641 1.334 . S
C8642 C8643 1.287 . S
C8643 C8642 1.287 . S
C8643 C8644 1.524 . S
C8643 H8646 0.999 . S
C8644 H8614 0.950 . S
C8644 C8643 1.524 . S
C8644 C8645 1.415 . S
C8645 H8615 0.950 . S
C8645 C8640 1.363 . S
C8645 C8644 1.415 . S
H8646 C8643 0.999 . S
H8647 C8628 0.913 . S
H8648 C8666 0.951 . S
H8649 C8668 0.951 . S
H8650 C8670 0.950 . S
H8651 C8671 0.950 . S
H8652 C8673 0.950 . S
H8653 C8676 0.950 . S
H8654 C8677 0.950 . S
H8655 C8679 0.950 . S
H8656 C8680 0.950 . S
H8657 C8681 0.951 . S
H8658 C8683 0.951 . S
H8659 C8685 0.950 . S
H8660 C8686 0.950 . S
H8661 C8688 0.950 . S
H8662 C8691 0.950 . S
H8663 C8692 0.950 . S
H8664 C8694 0.950 . S
H8665 C8695 0.950 . S
C8666 H8648 0.951 . S
C8666 C8667 1.366 . S
C8666 C8668 1.388 . S
C8667 C8666 1.366 . S
C8667 C8671 1.385 . S
C8668 H8649 0.951 . S
C8668 C8666 1.388 . S
C8668 C8669 1.366 . S
C8669 C8668 1.366 . S
C8669 C8670 1.414 . S
C8669 C8672 1.499 . S
C8670 H8650 0.950 . S
C8670 C8669 1.414 . S
C8670 C8671 1.374 . S
C8671 H8651 0.950 . S
C8671 C8667 1.385 . S
C8671 C8670 1.374 . S
C8672 C8669 1.499 . S
C8672 C8673 1.373 . S
C8672 C8674 1.389 . S
C8673 H8652 0.950 . S
C8673 C8672 1.373 . S
C8673 C8689 1.377 . S
C8674 C8672 1.389 . S
C8674 C8675 1.524 . S
C8674 C8688 1.377 . S
C8675 C8674 1.524 . S
C8675 C8676 1.397 . S
C8675 C8680 1.363 . S
C8676 H8653 0.950 . S
C8676 C8675 1.397 . S
C8676 C8677 1.334 . S
C8677 H8654 0.950 . S
C8677 C8676 1.334 . S
C8677 C8678 1.287 . S
C8678 C8677 1.287 . S
C8678 C8679 1.524 . S
C8678 H8697 0.938 . S
C8679 H8655 0.950 . S
C8679 C8678 1.524 . S
C8679 C8680 1.415 . S
C8680 H8656 0.950 . S
C8680 C8675 1.363 . S
C8680 C8679 1.415 . S
C8681 H8657 0.951 . S
C8681 C8682 1.366 . S
C8681 C8683 1.388 . S
C8682 C8681 1.366 . S
C8682 C8686 1.385 . S
C8683 H8658 0.951 . S
C8683 C8681 1.388 . S
C8683 C8684 1.366 . S
C8684 C8683 1.366 . S
C8684 C8685 1.414 . S
C8684 C8687 1.499 . S
C8685 H8659 0.950 . S
C8685 C8684 1.414 . S
C8685 C8686 1.374 . S
C8686 H8660 0.950 . S
C8686 C8682 1.385 . S
C8686 C8685 1.374 . S
C8687 C8684 1.499 . S
C8687 C8688 1.373 . S
C8687 C8689 1.389 . S
C8688 H8661 0.950 . S
C8688 C8674 1.377 . S
C8688 C8687 1.373 . S
C8689 C8673 1.377 . S
C8689 C8687 1.389 . S
C8689 C8690 1.524 . S
C8690 C8689 1.524 . S
C8690 C8691 1.397 . S
C8690 C8695 1.363 . S
C8691 H8662 0.950 . S
C8691 C8690 1.397 . S
C8691 C8692 1.334 . S
C8692 H8663 0.950 . S
C8692 C8691 1.334 . S
C8692 C8693 1.287 . S
C8693 C8692 1.287 . S
C8693 C8694 1.524 . S
C8693 H8696 0.999 . S
C8694 H8664 0.950 . S
C8694 C8693 1.524 . S
C8694 C8695 1.415 . S
C8695 H8665 0.950 . S
C8695 C8690 1.363 . S
C8695 C8694 1.415 . S
H8696 C8693 0.999 . S
H8697 C8678 0.938 . S
H8698 C8716 0.951 . S
H8699 C8718 0.951 . S
H8700 C8720 0.950 . S
H8701 C8721 0.950 . S
H8702 C8723 0.950 . S
H8703 C8726 0.950 . S
H8704 C8727 0.950 . S
H8705 C8729 0.950 . S
H8706 C8730 0.950 . S
H8707 C8731 0.951 . S
H8708 C8733 0.951 . S
H8709 C8735 0.950 . S
H8710 C8736 0.950 . S
H8711 C8738 0.950 . S
H8712 C8741 0.950 . S
H8713 C8742 0.950 . S
H8714 C8744 0.950 . S
H8715 C8745 0.950 . S
C8716 H8698 0.951 . S
C8716 C8717 1.366 . S
C8716 C8718 1.388 . S
C8717 C8716 1.366 . S
C8717 C8721 1.385 . S
C8718 H8699 0.951 . S
C8718 C8716 1.388 . S
C8718 C8719 1.366 . S
C8719 C8718 1.366 . S
C8719 C8720 1.414 . S
C8719 C8722 1.499 . S
C8720 H8700 0.950 . S
C8720 C8719 1.414 . S
C8720 C8721 1.374 . S
C8721 H8701 0.950 . S
C8721 C8717 1.385 . S
C8721 C8720 1.374 . S
C8722 C8719 1.499 . S
C8722 C8723 1.373 . S
C8722 C8724 1.389 . S
C8723 H8702 0.950 . S
C8723 C8722 1.373 . S
C8723 C8739 1.377 . S
C8724 C8722 1.389 . S
C8724 C8725 1.524 . S
C8724 C8738 1.377 . S
C8725 C8724 1.524 . S
C8725 C8726 1.397 . S
C8725 C8730 1.363 . S
C8726 H8703 0.950 . S
C8726 C8725 1.397 . S
C8726 C8727 1.334 . S
C8727 H8704 0.950 . S
C8727 C8726 1.334 . S
C8727 C8728 1.287 . S
C8728 C8727 1.287 . S
C8728 C8729 1.524 . S
C8728 H8747 0.913 . S
C8729 H8705 0.950 . S
C8729 C8728 1.524 . S
C8729 C8730 1.415 . S
C8730 H8706 0.950 . S
C8730 C8725 1.363 . S
C8730 C8729 1.415 . S
C8731 H8707 0.951 . S
C8731 C8732 1.366 . S
C8731 C8733 1.388 . S
C8732 C8731 1.366 . S
C8732 C8736 1.385 . S
C8733 H8708 0.951 . S
C8733 C8731 1.388 . S
C8733 C8734 1.366 . S
C8734 C8733 1.366 . S
C8734 C8735 1.414 . S
C8734 C8737 1.499 . S
C8735 H8709 0.950 . S
C8735 C8734 1.414 . S
C8735 C8736 1.374 . S
C8736 H8710 0.950 . S
C8736 C8732 1.385 . S
C8736 C8735 1.374 . S
C8737 C8734 1.499 . S
C8737 C8738 1.373 . S
C8737 C8739 1.389 . S
C8738 H8711 0.950 . S
C8738 C8724 1.377 . S
C8738 C8737 1.373 . S
C8739 C8723 1.377 . S
C8739 C8737 1.389 . S
C8739 C8740 1.524 . S
C8740 C8739 1.524 . S
C8740 C8741 1.397 . S
C8740 C8745 1.363 . S
C8741 H8712 0.950 . S
C8741 C8740 1.397 . S
C8741 C8742 1.334 . S
C8742 H8713 0.950 . S
C8742 C8741 1.334 . S
C8742 C8743 1.287 . S
C8743 C8742 1.287 . S
C8743 C8744 1.524 . S
C8743 H8746 0.999 . S
C8744 H8714 0.950 . S
C8744 C8743 1.524 . S
C8744 C8745 1.415 . S
C8745 H8715 0.950 . S
C8745 C8740 1.363 . S
C8745 C8744 1.415 . S
H8746 C8743 0.999 . S
H8747 C8728 0.913 . S
H8748 C8766 0.951 . S
H8749 C8768 0.951 . S
H8750 C8770 0.950 . S
H8751 C8771 0.950 . S
H8752 C8773 0.950 . S
H8753 C8776 0.950 . S
H8754 C8777 0.950 . S
H8755 C8779 0.950 . S
H8756 C8780 0.950 . S
H8757 C8781 0.951 . S
H8758 C8783 0.951 . S
H8759 C8785 0.950 . S
H8760 C8786 0.950 . S
H8761 C8788 0.950 . S
H8762 C8791 0.950 . S
H8763 C8792 0.950 . S
H8764 C8794 0.950 . S
H8765 C8795 0.950 . S
C8766 H8748 0.951 . S
C8766 C8767 1.366 . S
C8766 C8768 1.388 . S
C8767 C8766 1.366 . S
C8767 C8771 1.385 . S
C8768 H8749 0.951 . S
C8768 C8766 1.388 . S
C8768 C8769 1.366 . S
C8769 C8768 1.366 . S
C8769 C8770 1.414 . S
C8769 C8772 1.499 . S
C8770 H8750 0.950 . S
C8770 C8769 1.414 . S
C8770 C8771 1.374 . S
C8771 H8751 0.950 . S
C8771 C8767 1.385 . S
C8771 C8770 1.374 . S
C8772 C8769 1.499 . S
C8772 C8773 1.373 . S
C8772 C8774 1.389 . S
C8773 H8752 0.950 . S
C8773 C8772 1.373 . S
C8773 C8789 1.377 . S
C8774 C8772 1.389 . S
C8774 C8775 1.524 . S
C8774 C8788 1.377 . S
C8775 C8774 1.524 . S
C8775 C8776 1.397 . S
C8775 C8780 1.363 . S
C8776 H8753 0.950 . S
C8776 C8775 1.397 . S
C8776 C8777 1.334 . S
C8777 H8754 0.950 . S
C8777 C8776 1.334 . S
C8777 C8778 1.287 . S
C8778 C8777 1.287 . S
C8778 C8779 1.524 . S
C8778 H8797 0.913 . S
C8779 H8755 0.950 . S
C8779 C8778 1.524 . S
C8779 C8780 1.415 . S
C8780 H8756 0.950 . S
C8780 C8775 1.363 . S
C8780 C8779 1.415 . S
C8781 H8757 0.951 . S
C8781 C8782 1.366 . S
C8781 C8783 1.388 . S
C8782 C8781 1.366 . S
C8782 C8786 1.385 . S
C8783 H8758 0.951 . S
C8783 C8781 1.388 . S
C8783 C8784 1.366 . S
C8784 C8783 1.366 . S
C8784 C8785 1.414 . S
C8784 C8787 1.499 . S
C8785 H8759 0.950 . S
C8785 C8784 1.414 . S
C8785 C8786 1.374 . S
C8786 H8760 0.950 . S
C8786 C8782 1.385 . S
C8786 C8785 1.374 . S
C8787 C8784 1.499 . S
C8787 C8788 1.373 . S
C8787 C8789 1.389 . S
C8788 H8761 0.950 . S
C8788 C8774 1.377 . S
C8788 C8787 1.373 . S
C8789 C8773 1.377 . S
C8789 C8787 1.389 . S
C8789 C8790 1.524 . S
C8790 C8789 1.524 . S
C8790 C8791 1.397 . S
C8790 C8795 1.363 . S
C8791 H8762 0.950 . S
C8791 C8790 1.397 . S
C8791 C8792 1.334 . S
C8792 H8763 0.950 . S
C8792 C8791 1.334 . S
C8792 C8793 1.287 . S
C8793 C8792 1.287 . S
C8793 C8794 1.524 . S
C8793 H8796 0.999 . S
C8794 H8764 0.950 . S
C8794 C8793 1.524 . S
C8794 C8795 1.415 . S
C8795 H8765 0.950 . S
C8795 C8790 1.363 . S
C8795 C8794 1.415 . S
H8796 C8793 0.999 . S
H8797 C8778 0.913 . S
H8798 C8816 0.951 . S
H8799 C8818 0.951 . S
H8800 C8820 0.950 . S
H8801 C8821 0.950 . S
H8802 C8823 0.950 . S
H8803 C8826 0.950 . S
H8804 C8827 0.950 . S
H8805 C8829 0.950 . S
H8806 C8830 0.950 . S
H8807 C8831 0.951 . S
H8808 C8833 0.951 . S
H8809 C8835 0.950 . S
H8810 C8836 0.950 . S
H8811 C8838 0.950 . S
H8812 C8841 0.950 . S
H8813 C8842 0.950 . S
H8814 C8844 0.950 . S
H8815 C8845 0.950 . S
C8816 H8798 0.951 . S
C8816 C8817 1.366 . S
C8816 C8818 1.388 . S
C8817 C8816 1.366 . S
C8817 C8821 1.385 . S
C8818 H8799 0.951 . S
C8818 C8816 1.388 . S
C8818 C8819 1.366 . S
C8819 C8818 1.366 . S
C8819 C8820 1.414 . S
C8819 C8822 1.499 . S
C8820 H8800 0.950 . S
C8820 C8819 1.414 . S
C8820 C8821 1.374 . S
C8821 H8801 0.950 . S
C8821 C8817 1.385 . S
C8821 C8820 1.374 . S
C8822 C8819 1.499 . S
C8822 C8823 1.373 . S
C8822 C8824 1.389 . S
C8823 H8802 0.950 . S
C8823 C8822 1.373 . S
C8823 C8839 1.377 . S
C8824 C8822 1.389 . S
C8824 C8825 1.524 . S
C8824 C8838 1.377 . S
C8825 C8824 1.524 . S
C8825 C8826 1.397 . S
C8825 C8830 1.363 . S
C8826 H8803 0.950 . S
C8826 C8825 1.397 . S
C8826 C8827 1.334 . S
C8827 H8804 0.950 . S
C8827 C8826 1.334 . S
C8827 C8828 1.287 . S
C8828 C8827 1.287 . S
C8828 C8829 1.524 . S
C8828 H8847 0.913 . S
C8829 H8805 0.950 . S
C8829 C8828 1.524 . S
C8829 C8830 1.415 . S
C8830 H8806 0.950 . S
C8830 C8825 1.363 . S
C8830 C8829 1.415 . S
C8831 H8807 0.951 . S
C8831 C8832 1.366 . S
C8831 C8833 1.388 . S
C8832 C8831 1.366 . S
C8832 C8836 1.385 . S
C8833 H8808 0.951 . S
C8833 C8831 1.388 . S
C8833 C8834 1.366 . S
C8834 C8833 1.366 . S
C8834 C8835 1.414 . S
C8834 C8837 1.499 . S
C8835 H8809 0.950 . S
C8835 C8834 1.414 . S
C8835 C8836 1.374 . S
C8836 H8810 0.950 . S
C8836 C8832 1.385 . S
C8836 C8835 1.374 . S
C8837 C8834 1.499 . S
C8837 C8838 1.373 . S
C8837 C8839 1.389 . S
C8838 H8811 0.950 . S
C8838 C8824 1.377 . S
C8838 C8837 1.373 . S
C8839 C8823 1.377 . S
C8839 C8837 1.389 . S
C8839 C8840 1.524 . S
C8840 C8839 1.524 . S
C8840 C8841 1.397 . S
C8840 C8845 1.363 . S
C8841 H8812 0.950 . S
C8841 C8840 1.397 . S
C8841 C8842 1.334 . S
C8842 H8813 0.950 . S
C8842 C8841 1.334 . S
C8842 C8843 1.287 . S
C8843 C8842 1.287 . S
C8843 C8844 1.524 . S
C8843 H8846 0.999 . S
C8844 H8814 0.950 . S
C8844 C8843 1.524 . S
C8844 C8845 1.415 . S
C8845 H8815 0.950 . S
C8845 C8840 1.363 . S
C8845 C8844 1.415 . S
H8846 C8843 0.999 . S
H8847 C8828 0.913 . S
H8848 C8866 0.951 . S
H8849 C8868 0.951 . S
H8850 C8870 0.950 . S
H8851 C8871 0.950 . S
H8852 C8873 0.950 . S
H8853 C8876 0.950 . S
H8854 C8877 0.950 . S
H8855 C8879 0.950 . S
H8856 C8880 0.950 . S
H8857 C8881 0.951 . S
H8858 C8883 0.951 . S
H8859 C8885 0.950 . S
H8860 C8886 0.950 . S
H8861 C8888 0.950 . S
H8862 C8891 0.950 . S
H8863 C8892 0.950 . S
H8864 C8894 0.950 . S
H8865 C8895 0.950 . S
C8866 H8848 0.951 . S
C8866 C8867 1.366 . S
C8866 C8868 1.388 . S
C8867 C8866 1.366 . S
C8867 C8871 1.385 . S
C8868 H8849 0.951 . S
C8868 C8866 1.388 . S
C8868 C8869 1.366 . S
C8869 C8868 1.366 . S
C8869 C8870 1.414 . S
C8869 C8872 1.499 . S
C8870 H8850 0.950 . S
C8870 C8869 1.414 . S
C8870 C8871 1.374 . S
C8871 H8851 0.950 . S
C8871 C8867 1.385 . S
C8871 C8870 1.374 . S
C8872 C8869 1.499 . S
C8872 C8873 1.373 . S
C8872 C8874 1.389 . S
C8873 H8852 0.950 . S
C8873 C8872 1.373 . S
C8873 C8889 1.377 . S
C8874 C8872 1.389 . S
C8874 C8875 1.524 . S
C8874 C8888 1.377 . S
C8875 C8874 1.524 . S
C8875 C8876 1.397 . S
C8875 C8880 1.363 . S
C8876 H8853 0.950 . S
C8876 C8875 1.397 . S
C8876 C8877 1.334 . S
C8877 H8854 0.950 . S
C8877 C8876 1.334 . S
C8877 C8878 1.287 . S
C8878 C8877 1.287 . S
C8878 C8879 1.524 . S
C8878 H8897 0.913 . S
C8879 H8855 0.950 . S
C8879 C8878 1.524 . S
C8879 C8880 1.415 . S
C8880 H8856 0.950 . S
C8880 C8875 1.363 . S
C8880 C8879 1.415 . S
C8881 H8857 0.951 . S
C8881 C8882 1.366 . S
C8881 C8883 1.388 . S
C8882 C8881 1.366 . S
C8882 C8886 1.385 . S
C8883 H8858 0.951 . S
C8883 C8881 1.388 . S
C8883 C8884 1.366 . S
C8884 C8883 1.366 . S
C8884 C8885 1.414 . S
C8884 C8887 1.499 . S
C8885 H8859 0.950 . S
C8885 C8884 1.414 . S
C8885 C8886 1.374 . S
C8886 H8860 0.950 . S
C8886 C8882 1.385 . S
C8886 C8885 1.374 . S
C8887 C8884 1.499 . S
C8887 C8888 1.373 . S
C8887 C8889 1.389 . S
C8888 H8861 0.950 . S
C8888 C8874 1.377 . S
C8888 C8887 1.373 . S
C8889 C8873 1.377 . S
C8889 C8887 1.389 . S
C8889 C8890 1.524 . S
C8890 C8889 1.524 . S
C8890 C8891 1.397 . S
C8890 C8895 1.363 . S
C8891 H8862 0.950 . S
C8891 C8890 1.397 . S
C8891 C8892 1.334 . S
C8892 H8863 0.950 . S
C8892 C8891 1.334 . S
C8892 C8893 1.287 . S
C8893 C8892 1.287 . S
C8893 C8894 1.524 . S
C8893 H8896 0.999 . S
C8894 H8864 0.950 . S
C8894 C8893 1.524 . S
C8894 C8895 1.415 . S
C8895 H8865 0.950 . S
C8895 C8890 1.363 . S
C8895 C8894 1.415 . S
H8896 C8893 0.999 . S
H8897 C8878 0.913 . S
H8898 C8916 0.951 . S
H8899 C8918 0.951 . S
H8900 C8920 0.950 . S
H8901 C8921 0.950 . S
H8902 C8923 0.950 . S
H8903 C8926 0.950 . S
H8904 C8927 0.950 . S
H8905 C8929 0.950 . S
H8906 C8930 0.950 . S
H8907 C8931 0.951 . S
H8908 C8933 0.951 . S
H8909 C8935 0.950 . S
H8910 C8936 0.950 . S
H8911 C8938 0.950 . S
H8912 C8941 0.950 . S
H8913 C8942 0.950 . S
H8914 C8944 0.950 . S
H8915 C8945 0.950 . S
C8916 H8898 0.951 . S
C8916 C8917 1.366 . S
C8916 C8918 1.388 . S
C8917 C8916 1.366 . S
C8917 C8921 1.385 . S
C8918 H8899 0.951 . S
C8918 C8916 1.388 . S
C8918 C8919 1.366 . S
C8919 C8918 1.366 . S
C8919 C8920 1.414 . S
C8919 C8922 1.499 . S
C8920 H8900 0.950 . S
C8920 C8919 1.414 . S
C8920 C8921 1.374 . S
C8921 H8901 0.950 . S
C8921 C8917 1.385 . S
C8921 C8920 1.374 . S
C8922 C8919 1.499 . S
C8922 C8923 1.373 . S
C8922 C8924 1.389 . S
C8923 H8902 0.950 . S
C8923 C8922 1.373 . S
C8923 C8939 1.377 . S
C8924 C8922 1.389 . S
C8924 C8925 1.524 . S
C8924 C8938 1.377 . S
C8925 C8924 1.524 . S
C8925 C8926 1.397 . S
C8925 C8930 1.363 . S
C8926 H8903 0.950 . S
C8926 C8925 1.397 . S
C8926 C8927 1.334 . S
C8927 H8904 0.950 . S
C8927 C8926 1.334 . S
C8927 C8928 1.287 . S
C8928 C8927 1.287 . S
C8928 C8929 1.524 . S
C8928 H8947 0.913 . S
C8929 H8905 0.950 . S
C8929 C8928 1.524 . S
C8929 C8930 1.415 . S
C8930 H8906 0.950 . S
C8930 C8925 1.363 . S
C8930 C8929 1.415 . S
C8931 H8907 0.951 . S
C8931 C8932 1.366 . S
C8931 C8933 1.388 . S
C8932 C8931 1.366 . S
C8932 C8936 1.385 . S
C8933 H8908 0.951 . S
C8933 C8931 1.388 . S
C8933 C8934 1.366 . S
C8934 C8933 1.366 . S
C8934 C8935 1.414 . S
C8934 C8937 1.499 . S
C8935 H8909 0.950 . S
C8935 C8934 1.414 . S
C8935 C8936 1.374 . S
C8936 H8910 0.950 . S
C8936 C8932 1.385 . S
C8936 C8935 1.374 . S
C8937 C8934 1.499 . S
C8937 C8938 1.373 . S
C8937 C8939 1.389 . S
C8938 H8911 0.950 . S
C8938 C8924 1.377 . S
C8938 C8937 1.373 . S
C8939 C8923 1.377 . S
C8939 C8937 1.389 . S
C8939 C8940 1.524 . S
C8940 C8939 1.524 . S
C8940 C8941 1.397 . S
C8940 C8945 1.363 . S
C8941 H8912 0.950 . S
C8941 C8940 1.397 . S
C8941 C8942 1.334 . S
C8942 H8913 0.950 . S
C8942 C8941 1.334 . S
C8942 C8943 1.287 . S
C8943 C8942 1.287 . S
C8943 C8944 1.524 . S
C8943 H8946 0.999 . S
C8944 H8914 0.950 . S
C8944 C8943 1.524 . S
C8944 C8945 1.415 . S
C8945 H8915 0.950 . S
C8945 C8940 1.363 . S
C8945 C8944 1.415 . S
H8946 C8943 0.999 . S
H8947 C8928 0.913 . S
H8948 C8966 0.951 . S
H8949 C8968 0.951 . S
H8950 C8970 0.950 . S
H8951 C8971 0.950 . S
H8952 C8973 0.950 . S
H8953 C8976 0.950 . S
H8954 C8977 0.950 . S
H8955 C8979 0.950 . S
H8956 C8980 0.950 . S
H8957 C8981 0.951 . S
H8958 C8983 0.951 . S
H8959 C8985 0.950 . S
H8960 C8986 0.950 . S
H8961 C8988 0.950 . S
H8962 C8991 0.950 . S
H8963 C8992 0.950 . S
H8964 C8994 0.950 . S
H8965 C8995 0.950 . S
C8966 H8948 0.951 . S
C8966 C8967 1.366 . S
C8966 C8968 1.388 . S
C8967 C8966 1.366 . S
C8967 C8971 1.385 . S
C8968 H8949 0.951 . S
C8968 C8966 1.388 . S
C8968 C8969 1.366 . S
C8969 C8968 1.366 . S
C8969 C8970 1.414 . S
C8969 C8972 1.499 . S
C8970 H8950 0.950 . S
C8970 C8969 1.414 . S
C8970 C8971 1.374 . S
C8971 H8951 0.950 . S
C8971 C8967 1.385 . S
C8971 C8970 1.374 . S
C8972 C8969 1.499 . S
C8972 C8973 1.373 . S
C8972 C8974 1.389 . S
C8973 H8952 0.950 . S
C8973 C8972 1.373 . S
C8973 C8989 1.377 . S
C8974 C8972 1.389 . S
C8974 C8975 1.524 . S
C8974 C8988 1.377 . S
C8975 C8974 1.524 . S
C8975 C8976 1.397 . S
C8975 C8980 1.363 . S
C8976 H8953 0.950 . S
C8976 C8975 1.397 . S
C8976 C8977 1.334 . S
C8977 H8954 0.950 . S
C8977 C8976 1.334 . S
C8977 C8978 1.287 . S
C8978 C8977 1.287 . S
C8978 C8979 1.524 . S
C8978 H8997 0.913 1_655 S
C8979 H8955 0.950 . S
C8979 C8978 1.524 . S
C8979 C8980 1.415 . S
C8980 H8956 0.950 . S
C8980 C8975 1.363 . S
C8980 C8979 1.415 . S
C8981 H8957 0.951 . S
C8981 C8982 1.366 . S
C8981 C8983 1.388 . S
C8982 C8981 1.366 . S
C8982 C8986 1.385 . S
C8983 H8958 0.951 . S
C8983 C8981 1.388 . S
C8983 C8984 1.366 . S
C8984 C8983 1.366 . S
C8984 C8985 1.414 . S
C8984 C8987 1.499 . S
C8985 H8959 0.950 . S
C8985 C8984 1.414 . S
C8985 C8986 1.374 . S
C8986 H8960 0.950 . S
C8986 C8982 1.385 . S
C8986 C8985 1.374 . S
C8987 C8984 1.499 . S
C8987 C8988 1.373 . S
C8987 C8989 1.389 . S
C8988 H8961 0.950 . S
C8988 C8974 1.377 . S
C8988 C8987 1.373 . S
C8989 C8973 1.377 . S
C8989 C8987 1.389 . S
C8989 C8990 1.524 . S
C8990 C8989 1.524 . S
C8990 C8991 1.397 . S
C8990 C8995 1.363 . S
C8991 H8962 0.950 . S
C8991 C8990 1.397 . S
C8991 C8992 1.334 . S
C8992 H8963 0.950 . S
C8992 C8991 1.334 . S
C8992 C8993 1.287 . S
C8993 C8992 1.287 . S
C8993 C8994 1.524 . S
C8993 H8996 0.999 . S
C8994 H8964 0.950 . S
C8994 C8993 1.524 . S
C8994 C8995 1.415 . S
C8995 H8965 0.950 . S
C8995 C8990 1.363 . S
C8995 C8994 1.415 . S
H8996 C8993 0.999 . S
H8997 C8978 0.913 1_455 S
H8998 C9016 0.951 . S
H8999 C9018 0.951 . S
H9000 C9020 0.950 . S
H9001 C9021 0.950 . S
H9002 C9023 0.950 . S
H9003 C9026 0.950 . S
H9004 C9027 0.950 . S
H9005 C9029 0.950 . S
H9006 C9030 0.950 . S
H9007 C9031 0.951 . S
H9008 C9033 0.951 . S
H9009 C9035 0.950 . S
H9010 C9036 0.950 . S
H9011 C9038 0.950 . S
H9012 C9041 0.950 . S
H9013 C9042 0.950 . S
H9014 C9044 0.950 . S
H9015 C9045 0.950 . S
C9016 H8998 0.951 . S
C9016 C9017 1.366 . S
C9016 C9018 1.388 . S
C9017 C9016 1.366 . S
C9017 C9021 1.385 . S
C9018 H8999 0.951 . S
C9018 C9016 1.388 . S
C9018 C9019 1.366 . S
C9019 C9018 1.366 . S
C9019 C9020 1.414 . S
C9019 C9022 1.499 . S
C9020 H9000 0.950 . S
C9020 C9019 1.414 . S
C9020 C9021 1.374 . S
C9021 H9001 0.950 . S
C9021 C9017 1.385 . S
C9021 C9020 1.374 . S
C9022 C9019 1.499 . S
C9022 C9023 1.373 . S
C9022 C9024 1.389 . S
C9023 H9002 0.950 . S
C9023 C9022 1.373 . S
C9023 C9039 1.377 . S
C9024 C9022 1.389 . S
C9024 C9025 1.524 . S
C9024 C9038 1.377 . S
C9025 C9024 1.524 . S
C9025 C9026 1.397 . S
C9025 C9030 1.363 . S
C9026 H9003 0.950 . S
C9026 C9025 1.397 . S
C9026 C9027 1.334 . S
C9027 H9004 0.950 . S
C9027 C9026 1.334 . S
C9027 C9028 1.287 . S
C9028 C9027 1.287 . S
C9028 C9029 1.524 . S
C9028 H9047 0.913 . S
C9029 H9005 0.950 . S
C9029 C9028 1.524 . S
C9029 C9030 1.415 . S
C9030 H9006 0.950 . S
C9030 C9025 1.363 . S
C9030 C9029 1.415 . S
C9031 H9007 0.951 . S
C9031 C9032 1.366 . S
C9031 C9033 1.388 . S
C9032 C9031 1.366 . S
C9032 C9036 1.385 . S
C9033 H9008 0.951 . S
C9033 C9031 1.388 . S
C9033 C9034 1.366 . S
C9034 C9033 1.366 . S
C9034 C9035 1.414 . S
C9034 C9037 1.499 . S
C9035 H9009 0.950 . S
C9035 C9034 1.414 . S
C9035 C9036 1.374 . S
C9036 H9010 0.950 . S
C9036 C9032 1.385 . S
C9036 C9035 1.374 . S
C9037 C9034 1.499 . S
C9037 C9038 1.373 . S
C9037 C9039 1.389 . S
C9038 H9011 0.950 . S
C9038 C9024 1.377 . S
C9038 C9037 1.373 . S
C9039 C9023 1.377 . S
C9039 C9037 1.389 . S
C9039 C9040 1.524 . S
C9040 C9039 1.524 . S
C9040 C9041 1.397 . S
C9040 C9045 1.363 . S
C9041 H9012 0.950 . S
C9041 C9040 1.397 . S
C9041 C9042 1.334 . S
C9042 H9013 0.950 . S
C9042 C9041 1.334 . S
C9042 C9043 1.287 . S
C9043 C9042 1.287 . S
C9043 C9044 1.524 . S
C9043 H9046 0.999 . S
C9044 H9014 0.950 . S
C9044 C9043 1.524 . S
C9044 C9045 1.415 . S
C9045 H9015 0.950 . S
C9045 C9040 1.363 . S
C9045 C9044 1.415 . S
H9046 C9043 0.999 . S
H9047 C9028 0.913 . S
H9048 C9066 0.951 . S
H9049 C9068 0.951 . S
H9050 C9070 0.950 . S
H9051 C9071 0.950 . S
H9052 C9073 0.950 . S
H9053 C9076 0.950 . S
H9054 C9077 0.950 . S
H9055 C9079 0.950 . S
H9056 C9080 0.950 . S
H9057 C9081 0.951 . S
H9058 C9083 0.951 . S
H9059 C9085 0.950 . S
H9060 C9086 0.950 . S
H9061 C9088 0.950 . S
H9062 C9091 0.950 . S
H9063 C9092 0.950 . S
H9064 C9094 0.950 . S
H9065 C9095 0.950 . S
C9066 H9048 0.951 . S
C9066 C9067 1.366 . S
C9066 C9068 1.388 . S
C9067 C9066 1.366 . S
C9067 C9071 1.385 . S
C9068 H9049 0.951 . S
C9068 C9066 1.388 . S
C9068 C9069 1.366 . S
C9069 C9068 1.366 . S
C9069 C9070 1.414 . S
C9069 C9072 1.499 . S
C9070 H9050 0.950 . S
C9070 C9069 1.414 . S
C9070 C9071 1.374 . S
C9071 H9051 0.950 . S
C9071 C9067 1.385 . S
C9071 C9070 1.374 . S
C9072 C9069 1.499 . S
C9072 C9073 1.373 . S
C9072 C9074 1.389 . S
C9073 H9052 0.950 . S
C9073 C9072 1.373 . S
C9073 C9089 1.377 . S
C9074 C9072 1.389 . S
C9074 C9075 1.524 . S
C9074 C9088 1.377 . S
C9075 C9074 1.524 . S
C9075 C9076 1.397 . S
C9075 C9080 1.363 . S
C9076 H9053 0.950 . S
C9076 C9075 1.397 . S
C9076 C9077 1.334 . S
C9077 H9054 0.950 . S
C9077 C9076 1.334 . S
C9077 C9078 1.287 . S
C9078 C9077 1.287 . S
C9078 C9079 1.524 . S
C9078 H9097 0.913 . S
C9079 H9055 0.950 . S
C9079 C9078 1.524 . S
C9079 C9080 1.415 . S
C9080 H9056 0.950 . S
C9080 C9075 1.363 . S
C9080 C9079 1.415 . S
C9081 H9057 0.951 . S
C9081 C9082 1.366 . S
C9081 C9083 1.388 . S
C9082 C9081 1.366 . S
C9082 C9086 1.385 . S
C9083 H9058 0.951 . S
C9083 C9081 1.388 . S
C9083 C9084 1.366 . S
C9084 C9083 1.366 . S
C9084 C9085 1.414 . S
C9084 C9087 1.499 . S
C9085 H9059 0.950 . S
C9085 C9084 1.414 . S
C9085 C9086 1.374 . S
C9086 H9060 0.950 . S
C9086 C9082 1.385 . S
C9086 C9085 1.374 . S
C9087 C9084 1.499 . S
C9087 C9088 1.373 . S
C9087 C9089 1.389 . S
C9088 H9061 0.950 . S
C9088 C9074 1.377 . S
C9088 C9087 1.373 . S
C9089 C9073 1.377 . S
C9089 C9087 1.389 . S
C9089 C9090 1.524 . S
C9090 C9089 1.524 . S
C9090 C9091 1.397 . S
C9090 C9095 1.363 . S
C9091 H9062 0.950 . S
C9091 C9090 1.397 . S
C9091 C9092 1.334 . S
C9092 H9063 0.950 . S
C9092 C9091 1.334 . S
C9092 C9093 1.287 . S
C9093 C9092 1.287 . S
C9093 C9094 1.524 . S
C9093 H9096 0.999 . S
C9094 H9064 0.950 . S
C9094 C9093 1.524 . S
C9094 C9095 1.415 . S
C9095 H9065 0.950 . S
C9095 C9090 1.363 . S
C9095 C9094 1.415 . S
H9096 C9093 0.999 . S
H9097 C9078 0.913 . S
H9098 C9116 0.951 . S
H9099 C9118 0.951 . S
H9100 C9120 0.950 . S
H9101 C9121 0.950 . S
H9102 C9123 0.950 . S
H9103 C9126 0.950 . S
H9104 C9127 0.950 . S
H9105 C9129 0.950 . S
H9106 C9130 0.950 . S
H9107 C9131 0.951 . S
H9108 C9133 0.951 . S
H9109 C9135 0.950 . S
H9110 C9136 0.950 . S
H9111 C9138 0.950 . S
H9112 C9141 0.950 . S
H9113 C9142 0.950 . S
H9114 C9144 0.950 . S
H9115 C9145 0.950 . S
C9116 H9098 0.951 . S
C9116 C9117 1.366 . S
C9116 C9118 1.388 . S
C9117 C9116 1.366 . S
C9117 C9121 1.385 . S
C9118 H9099 0.951 . S
C9118 C9116 1.388 . S
C9118 C9119 1.366 . S
C9119 C9118 1.366 . S
C9119 C9120 1.414 . S
C9119 C9122 1.499 . S
C9120 H9100 0.950 . S
C9120 C9119 1.414 . S
C9120 C9121 1.374 . S
C9121 H9101 0.950 . S
C9121 C9117 1.385 . S
C9121 C9120 1.374 . S
C9122 C9119 1.499 . S
C9122 C9123 1.373 . S
C9122 C9124 1.389 . S
C9123 H9102 0.950 . S
C9123 C9122 1.373 . S
C9123 C9139 1.377 . S
C9124 C9122 1.389 . S
C9124 C9125 1.524 . S
C9124 C9138 1.377 . S
C9125 C9124 1.524 . S
C9125 C9126 1.397 . S
C9125 C9130 1.363 . S
C9126 H9103 0.950 . S
C9126 C9125 1.397 . S
C9126 C9127 1.334 . S
C9127 H9104 0.950 . S
C9127 C9126 1.334 . S
C9127 C9128 1.287 . S
C9128 C9127 1.287 . S
C9128 C9129 1.524 . S
C9128 H9147 0.913 . S
C9129 H9105 0.950 . S
C9129 C9128 1.524 . S
C9129 C9130 1.415 . S
C9130 H9106 0.950 . S
C9130 C9125 1.363 . S
C9130 C9129 1.415 . S
C9131 H9107 0.951 . S
C9131 C9132 1.366 . S
C9131 C9133 1.388 . S
C9132 C9131 1.366 . S
C9132 C9136 1.385 . S
C9133 H9108 0.951 . S
C9133 C9131 1.388 . S
C9133 C9134 1.366 . S
C9134 C9133 1.366 . S
C9134 C9135 1.414 . S
C9134 C9137 1.499 . S
C9135 H9109 0.950 . S
C9135 C9134 1.414 . S
C9135 C9136 1.374 . S
C9136 H9110 0.950 . S
C9136 C9132 1.385 . S
C9136 C9135 1.374 . S
C9137 C9134 1.499 . S
C9137 C9138 1.373 . S
C9137 C9139 1.389 . S
C9138 H9111 0.950 . S
C9138 C9124 1.377 . S
C9138 C9137 1.373 . S
C9139 C9123 1.377 . S
C9139 C9137 1.389 . S
C9139 C9140 1.524 . S
C9140 C9139 1.524 . S
C9140 C9141 1.397 . S
C9140 C9145 1.363 . S
C9141 H9112 0.950 . S
C9141 C9140 1.397 . S
C9141 C9142 1.334 . S
C9142 H9113 0.950 . S
C9142 C9141 1.334 . S
C9142 C9143 1.287 . S
C9143 C9142 1.287 . S
C9143 C9144 1.524 . S
C9143 H9146 0.999 . S
C9144 H9114 0.950 . S
C9144 C9143 1.524 . S
C9144 C9145 1.415 . S
C9145 H9115 0.950 . S
C9145 C9140 1.363 . S
C9145 C9144 1.415 . S
H9146 C9143 0.999 . S
H9147 C9128 0.913 . S
H9148 C9166 0.951 . S
H9149 C9168 0.951 . S
H9150 C9170 0.950 . S
H9151 C9171 0.950 . S
H9152 C9173 0.950 . S
H9153 C9176 0.950 . S
H9154 C9177 0.950 . S
H9155 C9179 0.950 . S
H9156 C9180 0.950 . S
H9157 C9181 0.951 . S
H9158 C9183 0.951 . S
H9159 C9185 0.950 . S
H9160 C9186 0.950 . S
H9161 C9188 0.950 . S
H9162 C9191 0.950 . S
H9163 C9192 0.950 . S
H9164 C9194 0.950 . S
H9165 C9195 0.950 . S
C9166 H9148 0.951 . S
C9166 C9167 1.366 . S
C9166 C9168 1.388 . S
C9167 C9166 1.366 . S
C9167 C9171 1.385 . S
C9168 H9149 0.951 . S
C9168 C9166 1.388 . S
C9168 C9169 1.366 . S
C9169 C9168 1.366 . S
C9169 C9170 1.414 . S
C9169 C9172 1.499 . S
C9170 H9150 0.950 . S
C9170 C9169 1.414 . S
C9170 C9171 1.374 . S
C9171 H9151 0.950 . S
C9171 C9167 1.385 . S
C9171 C9170 1.374 . S
C9172 C9169 1.499 . S
C9172 C9173 1.373 . S
C9172 C9174 1.389 . S
C9173 H9152 0.950 . S
C9173 C9172 1.373 . S
C9173 C9189 1.377 . S
C9174 C9172 1.389 . S
C9174 C9175 1.524 . S
C9174 C9188 1.377 . S
C9175 C9174 1.524 . S
C9175 C9176 1.397 . S
C9175 C9180 1.363 . S
C9176 H9153 0.950 . S
C9176 C9175 1.397 . S
C9176 C9177 1.334 . S
C9177 H9154 0.950 . S
C9177 C9176 1.334 . S
C9177 C9178 1.287 . S
C9178 C9177 1.287 . S
C9178 C9179 1.524 . S
C9178 H9197 0.913 . S
C9179 H9155 0.950 . S
C9179 C9178 1.524 . S
C9179 C9180 1.415 . S
C9180 H9156 0.950 . S
C9180 C9175 1.363 . S
C9180 C9179 1.415 . S
C9181 H9157 0.951 . S
C9181 C9182 1.366 . S
C9181 C9183 1.388 . S
C9182 C9181 1.366 . S
C9182 C9186 1.385 . S
C9183 H9158 0.951 . S
C9183 C9181 1.388 . S
C9183 C9184 1.366 . S
C9184 C9183 1.366 . S
C9184 C9185 1.414 . S
C9184 C9187 1.499 . S
C9185 H9159 0.950 . S
C9185 C9184 1.414 . S
C9185 C9186 1.374 . S
C9186 H9160 0.950 . S
C9186 C9182 1.385 . S
C9186 C9185 1.374 . S
C9187 C9184 1.499 . S
C9187 C9188 1.373 . S
C9187 C9189 1.389 . S
C9188 H9161 0.950 . S
C9188 C9174 1.377 . S
C9188 C9187 1.373 . S
C9189 C9173 1.377 . S
C9189 C9187 1.389 . S
C9189 C9190 1.524 . S
C9190 C9189 1.524 . S
C9190 C9191 1.397 . S
C9190 C9195 1.363 . S
C9191 H9162 0.950 . S
C9191 C9190 1.397 . S
C9191 C9192 1.334 . S
C9192 H9163 0.950 . S
C9192 C9191 1.334 . S
C9192 C9193 1.287 . S
C9193 C9192 1.287 . S
C9193 C9194 1.524 . S
C9193 H9196 0.999 . S
C9194 H9164 0.950 . S
C9194 C9193 1.524 . S
C9194 C9195 1.415 . S
C9195 H9165 0.950 . S
C9195 C9190 1.363 . S
C9195 C9194 1.415 . S
H9196 C9193 0.999 . S
H9197 C9178 0.913 . S
H9198 C9216 0.951 . S
H9199 C9218 0.951 . S
H9200 C9220 0.950 . S
H9201 C9221 0.950 . S
H9202 C9223 0.950 . S
H9203 C9226 0.950 . S
H9204 C9227 0.950 . S
H9205 C9229 0.950 . S
H9206 C9230 0.950 . S
H9207 C9231 0.951 . S
H9208 C9233 0.951 . S
H9209 C9235 0.950 . S
H9210 C9236 0.950 . S
H9211 C9238 0.950 . S
H9212 C9241 0.950 . S
H9213 C9242 0.950 . S
H9214 C9244 0.950 . S
H9215 C9245 0.950 . S
C9216 H9198 0.951 . S
C9216 C9217 1.366 . S
C9216 C9218 1.388 . S
C9217 C9216 1.366 . S
C9217 C9221 1.385 . S
C9218 H9199 0.951 . S
C9218 C9216 1.388 . S
C9218 C9219 1.366 . S
C9219 C9218 1.366 . S
C9219 C9220 1.414 . S
C9219 C9222 1.499 . S
C9220 H9200 0.950 . S
C9220 C9219 1.414 . S
C9220 C9221 1.374 . S
C9221 H9201 0.950 . S
C9221 C9217 1.385 . S
C9221 C9220 1.374 . S
C9222 C9219 1.499 . S
C9222 C9223 1.373 . S
C9222 C9224 1.389 . S
C9223 H9202 0.950 . S
C9223 C9222 1.373 . S
C9223 C9239 1.377 . S
C9224 C9222 1.389 . S
C9224 C9225 1.524 . S
C9224 C9238 1.377 . S
C9225 C9224 1.524 . S
C9225 C9226 1.397 . S
C9225 C9230 1.363 . S
C9226 H9203 0.950 . S
C9226 C9225 1.397 . S
C9226 C9227 1.334 . S
C9227 H9204 0.950 . S
C9227 C9226 1.334 . S
C9227 C9228 1.287 . S
C9228 C9227 1.287 . S
C9228 C9229 1.524 . S
C9228 H9247 0.913 . S
C9229 H9205 0.950 . S
C9229 C9228 1.524 . S
C9229 C9230 1.415 . S
C9230 H9206 0.950 . S
C9230 C9225 1.363 . S
C9230 C9229 1.415 . S
C9231 H9207 0.951 . S
C9231 C9232 1.366 . S
C9231 C9233 1.388 . S
C9232 C9231 1.366 . S
C9232 C9236 1.385 . S
C9233 H9208 0.951 . S
C9233 C9231 1.388 . S
C9233 C9234 1.366 . S
C9234 C9233 1.366 . S
C9234 C9235 1.414 . S
C9234 C9237 1.499 . S
C9235 H9209 0.950 . S
C9235 C9234 1.414 . S
C9235 C9236 1.374 . S
C9236 H9210 0.950 . S
C9236 C9232 1.385 . S
C9236 C9235 1.374 . S
C9237 C9234 1.499 . S
C9237 C9238 1.373 . S
C9237 C9239 1.389 . S
C9238 H9211 0.950 . S
C9238 C9224 1.377 . S
C9238 C9237 1.373 . S
C9239 C9223 1.377 . S
C9239 C9237 1.389 . S
C9239 C9240 1.524 . S
C9240 C9239 1.524 . S
C9240 C9241 1.397 . S
C9240 C9245 1.363 . S
C9241 H9212 0.950 . S
C9241 C9240 1.397 . S
C9241 C9242 1.334 . S
C9242 H9213 0.950 . S
C9242 C9241 1.334 . S
C9242 C9243 1.287 . S
C9243 C9242 1.287 . S
C9243 C9244 1.524 . S
C9243 H9246 0.999 . S
C9244 H9214 0.950 . S
C9244 C9243 1.524 . S
C9244 C9245 1.415 . S
C9245 H9215 0.950 . S
C9245 C9240 1.363 . S
C9245 C9244 1.415 . S
H9246 C9243 0.999 . S
H9247 C9228 0.913 . S
H9248 C9266 0.951 . S
H9249 C9268 0.951 . S
H9250 C9270 0.950 . S
H9251 C9271 0.950 . S
H9252 C9273 0.950 . S
H9253 C9276 0.950 . S
H9254 C9277 0.950 . S
H9255 C9279 0.950 . S
H9256 C9280 0.950 . S
H9257 C9281 0.951 . S
H9258 C9283 0.951 . S
H9259 C9285 0.950 . S
H9260 C9286 0.950 . S
H9261 C9288 0.950 . S
H9262 C9291 0.950 . S
H9263 C9292 0.950 . S
H9264 C9294 0.950 . S
H9265 C9295 0.950 . S
C9266 H9248 0.951 . S
C9266 C9267 1.366 . S
C9266 C9268 1.388 . S
C9267 C9266 1.366 . S
C9267 C9271 1.385 . S
C9268 H9249 0.951 . S
C9268 C9266 1.388 . S
C9268 C9269 1.366 . S
C9269 C9268 1.366 . S
C9269 C9270 1.414 . S
C9269 C9272 1.499 . S
C9270 H9250 0.950 . S
C9270 C9269 1.414 . S
C9270 C9271 1.374 . S
C9271 H9251 0.950 . S
C9271 C9267 1.385 . S
C9271 C9270 1.374 . S
C9272 C9269 1.499 . S
C9272 C9273 1.373 . S
C9272 C9274 1.389 . S
C9273 H9252 0.950 . S
C9273 C9272 1.373 . S
C9273 C9289 1.377 . S
C9274 C9272 1.389 . S
C9274 C9275 1.524 . S
C9274 C9288 1.377 . S
C9275 C9274 1.524 . S
C9275 C9276 1.397 . S
C9275 C9280 1.363 . S
C9276 H9253 0.950 . S
C9276 C9275 1.397 . S
C9276 C9277 1.334 . S
C9277 H9254 0.950 . S
C9277 C9276 1.334 . S
C9277 C9278 1.287 . S
C9278 C9277 1.287 . S
C9278 C9279 1.524 . S
C9278 H9297 0.913 . S
C9279 H9255 0.950 . S
C9279 C9278 1.524 . S
C9279 C9280 1.415 . S
C9280 H9256 0.950 . S
C9280 C9275 1.363 . S
C9280 C9279 1.415 . S
C9281 H9257 0.951 . S
C9281 C9282 1.366 . S
C9281 C9283 1.388 . S
C9282 C9281 1.366 . S
C9282 C9286 1.385 . S
C9283 H9258 0.951 . S
C9283 C9281 1.388 . S
C9283 C9284 1.366 . S
C9284 C9283 1.366 . S
C9284 C9285 1.414 . S
C9284 C9287 1.499 . S
C9285 H9259 0.950 . S
C9285 C9284 1.414 . S
C9285 C9286 1.374 . S
C9286 H9260 0.950 . S
C9286 C9282 1.385 . S
C9286 C9285 1.374 . S
C9287 C9284 1.499 . S
C9287 C9288 1.373 . S
C9287 C9289 1.389 . S
C9288 H9261 0.950 . S
C9288 C9274 1.377 . S
C9288 C9287 1.373 . S
C9289 C9273 1.377 . S
C9289 C9287 1.389 . S
C9289 C9290 1.524 . S
C9290 C9289 1.524 . S
C9290 C9291 1.397 . S
C9290 C9295 1.363 . S
C9291 H9262 0.950 . S
C9291 C9290 1.397 . S
C9291 C9292 1.334 . S
C9292 H9263 0.950 . S
C9292 C9291 1.334 . S
C9292 C9293 1.287 . S
C9293 C9292 1.287 . S
C9293 C9294 1.524 . S
C9293 H9296 0.999 . S
C9294 H9264 0.950 . S
C9294 C9293 1.524 . S
C9294 C9295 1.415 . S
C9295 H9265 0.950 . S
C9295 C9290 1.363 . S
C9295 C9294 1.415 . S
H9296 C9293 0.999 . S
H9297 C9278 0.913 . S
H9298 C9316 0.951 . S
H9299 C9318 0.951 . S
H9300 C9320 0.950 . S
H9301 C9321 0.950 . S
H9302 C9323 0.950 . S
H9303 C9326 0.950 . S
H9304 C9327 0.950 . S
H9305 C9329 0.950 . S
H9306 C9330 0.950 . S
H9307 C9331 0.951 . S
H9308 C9333 0.951 . S
H9309 C9335 0.950 . S
H9310 C9336 0.950 . S
H9311 C9338 0.950 . S
H9312 C9341 0.950 . S
H9313 C9342 0.950 . S
H9314 C9344 0.950 . S
H9315 C9345 0.950 . S
C9316 H9298 0.951 . S
C9316 C9317 1.366 . S
C9316 C9318 1.388 . S
C9317 C9316 1.366 . S
C9317 C9321 1.385 . S
C9318 H9299 0.951 . S
C9318 C9316 1.388 . S
C9318 C9319 1.366 . S
C9319 C9318 1.366 . S
C9319 C9320 1.414 . S
C9319 C9322 1.499 . S
C9320 H9300 0.950 . S
C9320 C9319 1.414 . S
C9320 C9321 1.374 . S
C9321 H9301 0.950 . S
C9321 C9317 1.385 . S
C9321 C9320 1.374 . S
C9322 C9319 1.499 . S
C9322 C9323 1.373 . S
C9322 C9324 1.389 . S
C9323 H9302 0.950 . S
C9323 C9322 1.373 . S
C9323 C9339 1.377 . S
C9324 C9322 1.389 . S
C9324 C9325 1.524 . S
C9324 C9338 1.377 . S
C9325 C9324 1.524 . S
C9325 C9326 1.397 . S
C9325 C9330 1.363 . S
C9326 H9303 0.950 . S
C9326 C9325 1.397 . S
C9326 C9327 1.334 . S
C9327 H9304 0.950 . S
C9327 C9326 1.334 . S
C9327 C9328 1.287 . S
C9328 C9327 1.287 . S
C9328 C9329 1.524 . S
C9328 H9347 0.913 . S
C9329 H9305 0.950 . S
C9329 C9328 1.524 . S
C9329 C9330 1.415 . S
C9330 H9306 0.950 . S
C9330 C9325 1.363 . S
C9330 C9329 1.415 . S
C9331 H9307 0.951 . S
C9331 C9332 1.366 . S
C9331 C9333 1.388 . S
C9332 C9331 1.366 . S
C9332 C9336 1.385 . S
C9333 H9308 0.951 . S
C9333 C9331 1.388 . S
C9333 C9334 1.366 . S
C9334 C9333 1.366 . S
C9334 C9335 1.414 . S
C9334 C9337 1.499 . S
C9335 H9309 0.950 . S
C9335 C9334 1.414 . S
C9335 C9336 1.374 . S
C9336 H9310 0.950 . S
C9336 C9332 1.385 . S
C9336 C9335 1.374 . S
C9337 C9334 1.499 . S
C9337 C9338 1.373 . S
C9337 C9339 1.389 . S
C9338 H9311 0.950 . S
C9338 C9324 1.377 . S
C9338 C9337 1.373 . S
C9339 C9323 1.377 . S
C9339 C9337 1.389 . S
C9339 C9340 1.524 . S
C9340 C9339 1.524 . S
C9340 C9341 1.397 . S
C9340 C9345 1.363 . S
C9341 H9312 0.950 . S
C9341 C9340 1.397 . S
C9341 C9342 1.334 . S
C9342 H9313 0.950 . S
C9342 C9341 1.334 . S
C9342 C9343 1.287 . S
C9343 C9342 1.287 . S
C9343 C9344 1.524 . S
C9343 H9346 0.999 . S
C9344 H9314 0.950 . S
C9344 C9343 1.524 . S
C9344 C9345 1.415 . S
C9345 H9315 0.950 . S
C9345 C9340 1.363 . S
C9345 C9344 1.415 . S
H9346 C9343 0.999 . S
H9347 C9328 0.913 . S
H9348 C9366 0.951 . S
H9349 C9368 0.951 . S
H9350 C9370 0.950 . S
H9351 C9371 0.950 . S
H9352 C9373 0.950 . S
H9353 C9376 0.950 . S
H9354 C9377 0.950 . S
H9355 C9379 0.950 . S
H9356 C9380 0.950 . S
H9357 C9381 0.951 . S
H9358 C9383 0.951 . S
H9359 C9385 0.950 . S
H9360 C9386 0.950 . S
H9361 C9388 0.950 . S
H9362 C9391 0.950 . S
H9363 C9392 0.950 . S
H9364 C9394 0.950 . S
H9365 C9395 0.950 . S
C9366 H9348 0.951 . S
C9366 C9367 1.366 . S
C9366 C9368 1.388 . S
C9367 C9366 1.366 . S
C9367 C9371 1.385 . S
C9368 H9349 0.951 . S
C9368 C9366 1.388 . S
C9368 C9369 1.366 . S
C9369 C9368 1.366 . S
C9369 C9370 1.414 . S
C9369 C9372 1.499 . S
C9370 H9350 0.950 . S
C9370 C9369 1.414 . S
C9370 C9371 1.374 . S
C9371 H9351 0.950 . S
C9371 C9367 1.385 . S
C9371 C9370 1.374 . S
C9372 C9369 1.499 . S
C9372 C9373 1.373 . S
C9372 C9374 1.389 . S
C9373 H9352 0.950 . S
C9373 C9372 1.373 . S
C9373 C9389 1.377 . S
C9374 C9372 1.389 . S
C9374 C9375 1.524 . S
C9374 C9388 1.377 . S
C9375 C9374 1.524 . S
C9375 C9376 1.397 . S
C9375 C9380 1.363 . S
C9376 H9353 0.950 . S
C9376 C9375 1.397 . S
C9376 C9377 1.334 . S
C9377 H9354 0.950 . S
C9377 C9376 1.334 . S
C9377 C9378 1.287 . S
C9378 C9377 1.287 . S
C9378 C9379 1.524 . S
C9378 H9397 0.913 . S
C9379 H9355 0.950 . S
C9379 C9378 1.524 . S
C9379 C9380 1.415 . S
C9380 H9356 0.950 . S
C9380 C9375 1.363 . S
C9380 C9379 1.415 . S
C9381 H9357 0.951 . S
C9381 C9382 1.366 . S
C9381 C9383 1.388 . S
C9382 C9381 1.366 . S
C9382 C9386 1.385 . S
C9383 H9358 0.951 . S
C9383 C9381 1.388 . S
C9383 C9384 1.366 . S
C9384 C9383 1.366 . S
C9384 C9385 1.414 . S
C9384 C9387 1.499 . S
C9385 H9359 0.950 . S
C9385 C9384 1.414 . S
C9385 C9386 1.374 . S
C9386 H9360 0.950 . S
C9386 C9382 1.385 . S
C9386 C9385 1.374 . S
C9387 C9384 1.499 . S
C9387 C9388 1.373 . S
C9387 C9389 1.389 . S
C9388 H9361 0.950 . S
C9388 C9374 1.377 . S
C9388 C9387 1.373 . S
C9389 C9373 1.377 . S
C9389 C9387 1.389 . S
C9389 C9390 1.524 . S
C9390 C9389 1.524 . S
C9390 C9391 1.397 . S
C9390 C9395 1.363 . S
C9391 H9362 0.950 . S
C9391 C9390 1.397 . S
C9391 C9392 1.334 . S
C9392 H9363 0.950 . S
C9392 C9391 1.334 . S
C9392 C9393 1.287 . S
C9393 C9392 1.287 . S
C9393 C9394 1.524 . S
C9393 H9396 0.999 . S
C9394 H9364 0.950 . S
C9394 C9393 1.524 . S
C9394 C9395 1.415 . S
C9395 H9365 0.950 . S
C9395 C9390 1.363 . S
C9395 C9394 1.415 . S
H9396 C9393 0.999 . S
H9397 C9378 0.913 . S
H9398 C9416 0.951 . S
H9399 C9418 0.951 . S
H9400 C9420 0.950 . S
H9401 C9421 0.950 . S
H9402 C9423 0.950 . S
H9403 C9426 0.950 . S
H9404 C9427 0.950 . S
H9405 C9429 0.950 . S
H9406 C9430 0.950 . S
H9407 C9431 0.951 . S
H9408 C9433 0.951 . S
H9409 C9435 0.950 . S
H9410 C9436 0.950 . S
H9411 C9438 0.950 . S
H9412 C9441 0.950 . S
H9413 C9442 0.950 . S
H9414 C9444 0.950 . S
H9415 C9445 0.950 . S
C9416 H9398 0.951 . S
C9416 C9417 1.366 . S
C9416 C9418 1.388 . S
C9417 C9416 1.366 . S
C9417 C9421 1.385 . S
C9418 H9399 0.951 . S
C9418 C9416 1.388 . S
C9418 C9419 1.366 . S
C9419 C9418 1.366 . S
C9419 C9420 1.414 . S
C9419 C9422 1.499 . S
C9420 H9400 0.950 . S
C9420 C9419 1.414 . S
C9420 C9421 1.374 . S
C9421 H9401 0.950 . S
C9421 C9417 1.385 . S
C9421 C9420 1.374 . S
C9422 C9419 1.499 . S
C9422 C9423 1.373 . S
C9422 C9424 1.389 . S
C9423 H9402 0.950 . S
C9423 C9422 1.373 . S
C9423 C9439 1.377 . S
C9424 C9422 1.389 . S
C9424 C9425 1.524 . S
C9424 C9438 1.377 . S
C9425 C9424 1.524 . S
C9425 C9426 1.397 . S
C9425 C9430 1.363 . S
C9426 H9403 0.950 . S
C9426 C9425 1.397 . S
C9426 C9427 1.334 . S
C9427 H9404 0.950 . S
C9427 C9426 1.334 . S
C9427 C9428 1.287 . S
C9428 C9427 1.287 . S
C9428 C9429 1.524 . S
C9428 H9447 0.913 . S
C9429 H9405 0.950 . S
C9429 C9428 1.524 . S
C9429 C9430 1.415 . S
C9430 H9406 0.950 . S
C9430 C9425 1.363 . S
C9430 C9429 1.415 . S
C9431 H9407 0.951 . S
C9431 C9432 1.366 . S
C9431 C9433 1.388 . S
C9432 C9431 1.366 . S
C9432 C9436 1.385 . S
C9433 H9408 0.951 . S
C9433 C9431 1.388 . S
C9433 C9434 1.366 . S
C9434 C9433 1.366 . S
C9434 C9435 1.414 . S
C9434 C9437 1.499 . S
C9435 H9409 0.950 . S
C9435 C9434 1.414 . S
C9435 C9436 1.374 . S
C9436 H9410 0.950 . S
C9436 C9432 1.385 . S
C9436 C9435 1.374 . S
C9437 C9434 1.499 . S
C9437 C9438 1.373 . S
C9437 C9439 1.389 . S
C9438 H9411 0.950 . S
C9438 C9424 1.377 . S
C9438 C9437 1.373 . S
C9439 C9423 1.377 . S
C9439 C9437 1.389 . S
C9439 C9440 1.524 . S
C9440 C9439 1.524 . S
C9440 C9441 1.397 . S
C9440 C9445 1.363 . S
C9441 H9412 0.950 . S
C9441 C9440 1.397 . S
C9441 C9442 1.334 . S
C9442 H9413 0.950 . S
C9442 C9441 1.334 . S
C9442 C9443 1.287 . S
C9443 C9442 1.287 . S
C9443 C9444 1.524 . S
C9443 H9446 0.999 . S
C9444 H9414 0.950 . S
C9444 C9443 1.524 . S
C9444 C9445 1.415 . S
C9445 H9415 0.950 . S
C9445 C9440 1.363 . S
C9445 C9444 1.415 . S
H9446 C9443 0.999 . S
H9447 C9428 0.913 . S
H9448 C9466 0.951 . S
H9449 C9468 0.951 . S
H9450 C9470 0.950 . S
H9451 C9471 0.950 . S
H9452 C9473 0.950 . S
H9453 C9476 0.950 . S
H9454 C9477 0.950 . S
H9455 C9479 0.950 . S
H9456 C9480 0.950 . S
H9457 C9481 0.951 . S
H9458 C9483 0.951 . S
H9459 C9485 0.950 . S
H9460 C9486 0.950 . S
H9461 C9488 0.950 . S
H9462 C9491 0.950 . S
H9463 C9492 0.950 . S
H9464 C9494 0.950 . S
H9465 C9495 0.950 . S
C9466 H9448 0.951 . S
C9466 C9467 1.366 . S
C9466 C9468 1.388 . S
C9467 C9466 1.366 . S
C9467 C9471 1.385 . S
C9468 H9449 0.951 . S
C9468 C9466 1.388 . S
C9468 C9469 1.366 . S
C9469 C9468 1.366 . S
C9469 C9470 1.414 . S
C9469 C9472 1.499 . S
C9470 H9450 0.950 . S
C9470 C9469 1.414 . S
C9470 C9471 1.374 . S
C9471 H9451 0.950 . S
C9471 C9467 1.385 . S
C9471 C9470 1.374 . S
C9472 C9469 1.499 . S
C9472 C9473 1.373 . S
C9472 C9474 1.389 . S
C9473 H9452 0.950 . S
C9473 C9472 1.373 . S
C9473 C9489 1.377 . S
C9474 C9472 1.389 . S
C9474 C9475 1.524 . S
C9474 C9488 1.377 . S
C9475 C9474 1.524 . S
C9475 C9476 1.397 . S
C9475 C9480 1.363 . S
C9476 H9453 0.950 . S
C9476 C9475 1.397 . S
C9476 C9477 1.334 . S
C9477 H9454 0.950 . S
C9477 C9476 1.334 . S
C9477 C9478 1.287 . S
C9478 C9477 1.287 . S
C9478 C9479 1.524 . S
C9478 H9497 0.913 . S
C9479 H9455 0.950 . S
C9479 C9478 1.524 . S
C9479 C9480 1.415 . S
C9480 H9456 0.950 . S
C9480 C9475 1.363 . S
C9480 C9479 1.415 . S
C9481 H9457 0.951 . S
C9481 C9482 1.366 . S
C9481 C9483 1.388 . S
C9482 C9481 1.366 . S
C9482 C9486 1.385 . S
C9483 H9458 0.951 . S
C9483 C9481 1.388 . S
C9483 C9484 1.366 . S
C9484 C9483 1.366 . S
C9484 C9485 1.414 . S
C9484 C9487 1.499 . S
C9485 H9459 0.950 . S
C9485 C9484 1.414 . S
C9485 C9486 1.374 . S
C9486 H9460 0.950 . S
C9486 C9482 1.385 . S
C9486 C9485 1.374 . S
C9487 C9484 1.499 . S
C9487 C9488 1.373 . S
C9487 C9489 1.389 . S
C9488 H9461 0.950 . S
C9488 C9474 1.377 . S
C9488 C9487 1.373 . S
C9489 C9473 1.377 . S
C9489 C9487 1.389 . S
C9489 C9490 1.524 . S
C9490 C9489 1.524 . S
C9490 C9491 1.397 . S
C9490 C9495 1.363 . S
C9491 H9462 0.950 . S
C9491 C9490 1.397 . S
C9491 C9492 1.334 . S
C9492 H9463 0.950 . S
C9492 C9491 1.334 . S
C9492 C9493 1.287 . S
C9493 C9492 1.287 . S
C9493 C9494 1.524 . S
C9493 H9496 0.999 . S
C9494 H9464 0.950 . S
C9494 C9493 1.524 . S
C9494 C9495 1.415 . S
C9495 H9465 0.950 . S
C9495 C9490 1.363 . S
C9495 C9494 1.415 . S
H9496 C9493 0.999 . S
H9497 C9478 0.913 . S
H9498 C9516 0.951 . S
H9499 C9518 0.951 . S
H9500 C9520 0.950 . S
H9501 C9521 0.950 . S
H9502 C9523 0.950 . S
H9503 C9526 0.950 . S
H9504 C9527 0.950 . S
H9505 C9529 0.950 . S
H9506 C9530 0.950 . S
H9507 C9531 0.951 . S
H9508 C9533 0.951 . S
H9509 C9535 0.950 . S
H9510 C9536 0.950 . S
H9511 C9538 0.950 . S
H9512 C9541 0.950 . S
H9513 C9542 0.950 . S
H9514 C9544 0.950 . S
H9515 C9545 0.950 . S
C9516 H9498 0.951 . S
C9516 C9517 1.366 . S
C9516 C9518 1.388 . S
C9517 C9516 1.366 . S
C9517 C9521 1.385 . S
C9518 H9499 0.951 . S
C9518 C9516 1.388 . S
C9518 C9519 1.366 . S
C9519 C9518 1.366 . S
C9519 C9520 1.414 . S
C9519 C9522 1.499 . S
C9520 H9500 0.950 . S
C9520 C9519 1.414 . S
C9520 C9521 1.374 . S
C9521 H9501 0.950 . S
C9521 C9517 1.385 . S
C9521 C9520 1.374 . S
C9522 C9519 1.499 . S
C9522 C9523 1.373 . S
C9522 C9524 1.389 . S
C9523 H9502 0.950 . S
C9523 C9522 1.373 . S
C9523 C9539 1.377 . S
C9524 C9522 1.389 . S
C9524 C9525 1.524 . S
C9524 C9538 1.377 . S
C9525 C9524 1.524 . S
C9525 C9526 1.397 . S
C9525 C9530 1.363 . S
C9526 H9503 0.950 . S
C9526 C9525 1.397 . S
C9526 C9527 1.334 . S
C9527 H9504 0.950 . S
C9527 C9526 1.334 . S
C9527 C9528 1.287 . S
C9528 C9527 1.287 . S
C9528 C9529 1.524 . S
C9528 H9547 0.913 . S
C9529 H9505 0.950 . S
C9529 C9528 1.524 . S
C9529 C9530 1.415 . S
C9530 H9506 0.950 . S
C9530 C9525 1.363 . S
C9530 C9529 1.415 . S
C9531 H9507 0.951 . S
C9531 C9532 1.366 . S
C9531 C9533 1.388 . S
C9532 C9531 1.366 . S
C9532 C9536 1.385 . S
C9533 H9508 0.951 . S
C9533 C9531 1.388 . S
C9533 C9534 1.366 . S
C9534 C9533 1.366 . S
C9534 C9535 1.414 . S
C9534 C9537 1.499 . S
C9535 H9509 0.950 . S
C9535 C9534 1.414 . S
C9535 C9536 1.374 . S
C9536 H9510 0.950 . S
C9536 C9532 1.385 . S
C9536 C9535 1.374 . S
C9537 C9534 1.499 . S
C9537 C9538 1.373 . S
C9537 C9539 1.389 . S
C9538 H9511 0.950 . S
C9538 C9524 1.377 . S
C9538 C9537 1.373 . S
C9539 C9523 1.377 . S
C9539 C9537 1.389 . S
C9539 C9540 1.524 . S
C9540 C9539 1.524 . S
C9540 C9541 1.397 . S
C9540 C9545 1.363 . S
C9541 H9512 0.950 . S
C9541 C9540 1.397 . S
C9541 C9542 1.334 . S
C9542 H9513 0.950 . S
C9542 C9541 1.334 . S
C9542 C9543 1.287 . S
C9543 C9542 1.287 . S
C9543 C9544 1.524 . S
C9543 H9546 0.999 . S
C9544 H9514 0.950 . S
C9544 C9543 1.524 . S
C9544 C9545 1.415 . S
C9545 H9515 0.950 . S
C9545 C9540 1.363 . S
C9545 C9544 1.415 . S
H9546 C9543 0.999 . S
H9547 C9528 0.913 . S
H9548 C9566 0.951 . S
H9549 C9568 0.951 . S
H9550 C9570 0.950 . S
H9551 C9571 0.950 . S
H9552 C9573 0.950 . S
H9553 C9576 0.950 . S
H9554 C9577 0.950 . S
H9555 C9579 0.950 . S
H9556 C9580 0.950 . S
H9557 C9581 0.951 . S
H9558 C9583 0.951 . S
H9559 C9585 0.950 . S
H9560 C9586 0.950 . S
H9561 C9588 0.950 . S
H9562 C9591 0.950 . S
H9563 C9592 0.950 . S
H9564 C9594 0.950 . S
H9565 C9595 0.950 . S
C9566 H9548 0.951 . S
C9566 C9567 1.366 . S
C9566 C9568 1.388 . S
C9567 C9566 1.366 . S
C9567 C9571 1.385 . S
C9568 H9549 0.951 . S
C9568 C9566 1.388 . S
C9568 C9569 1.366 . S
C9569 C9568 1.366 . S
C9569 C9570 1.414 . S
C9569 C9572 1.499 . S
C9570 H9550 0.950 . S
C9570 C9569 1.414 . S
C9570 C9571 1.374 . S
C9571 H9551 0.950 . S
C9571 C9567 1.385 . S
C9571 C9570 1.374 . S
C9572 C9569 1.499 . S
C9572 C9573 1.373 . S
C9572 C9574 1.389 . S
C9573 H9552 0.950 . S
C9573 C9572 1.373 . S
C9573 C9589 1.377 . S
C9574 C9572 1.389 . S
C9574 C9575 1.524 . S
C9574 C9588 1.377 . S
C9575 C9574 1.524 . S
C9575 C9576 1.397 . S
C9575 C9580 1.363 . S
C9576 H9553 0.950 . S
C9576 C9575 1.397 . S
C9576 C9577 1.334 . S
C9577 H9554 0.950 . S
C9577 C9576 1.334 . S
C9577 C9578 1.287 . S
C9578 C9577 1.287 . S
C9578 C9579 1.524 . S
C9578 H9597 0.913 . S
C9579 H9555 0.950 . S
C9579 C9578 1.524 . S
C9579 C9580 1.415 . S
C9580 H9556 0.950 . S
C9580 C9575 1.363 . S
C9580 C9579 1.415 . S
C9581 H9557 0.951 . S
C9581 C9582 1.366 . S
C9581 C9583 1.388 . S
C9582 C9581 1.366 . S
C9582 C9586 1.385 . S
C9583 H9558 0.951 . S
C9583 C9581 1.388 . S
C9583 C9584 1.366 . S
C9584 C9583 1.366 . S
C9584 C9585 1.414 . S
C9584 C9587 1.499 . S
C9585 H9559 0.950 . S
C9585 C9584 1.414 . S
C9585 C9586 1.374 . S
C9586 H9560 0.950 . S
C9586 C9582 1.385 . S
C9586 C9585 1.374 . S
C9587 C9584 1.499 . S
C9587 C9588 1.373 . S
C9587 C9589 1.389 . S
C9588 H9561 0.950 . S
C9588 C9574 1.377 . S
C9588 C9587 1.373 . S
C9589 C9573 1.377 . S
C9589 C9587 1.389 . S
C9589 C9590 1.524 . S
C9590 C9589 1.524 . S
C9590 C9591 1.397 . S
C9590 C9595 1.363 . S
C9591 H9562 0.950 . S
C9591 C9590 1.397 . S
C9591 C9592 1.334 . S
C9592 H9563 0.950 . S
C9592 C9591 1.334 . S
C9592 C9593 1.287 . S
C9593 C9592 1.287 . S
C9593 C9594 1.524 . S
C9593 H9596 0.999 . S
C9594 H9564 0.950 . S
C9594 C9593 1.524 . S
C9594 C9595 1.415 . S
C9595 H9565 0.950 . S
C9595 C9590 1.363 . S
C9595 C9594 1.415 . S
H9596 C9593 0.999 . S
H9597 C9578 0.913 . S
H9598 C9616 0.951 . S
H9599 C9618 0.951 . S
H9600 C9620 0.950 . S
H9601 C9621 0.950 . S
H9602 C9623 0.950 . S
H9603 C9626 0.950 . S
H9604 C9627 0.950 . S
H9605 C9629 0.950 . S
H9606 C9630 0.950 . S
H9607 C9631 0.951 . S
H9608 C9633 0.951 . S
H9609 C9635 0.950 . S
H9610 C9636 0.950 . S
H9611 C9638 0.950 . S
H9612 C9641 0.950 . S
H9613 C9642 0.950 . S
H9614 C9644 0.950 . S
H9615 C9645 0.950 . S
C9616 H9598 0.951 . S
C9616 C9617 1.366 . S
C9616 C9618 1.388 . S
C9617 C9616 1.366 . S
C9617 C9621 1.385 . S
C9618 H9599 0.951 . S
C9618 C9616 1.388 . S
C9618 C9619 1.366 . S
C9619 C9618 1.366 . S
C9619 C9620 1.414 . S
C9619 C9622 1.499 . S
C9620 H9600 0.950 . S
C9620 C9619 1.414 . S
C9620 C9621 1.374 . S
C9621 H9601 0.950 . S
C9621 C9617 1.385 . S
C9621 C9620 1.374 . S
C9622 C9619 1.499 . S
C9622 C9623 1.373 . S
C9622 C9624 1.389 . S
C9623 H9602 0.950 . S
C9623 C9622 1.373 . S
C9623 C9639 1.377 . S
C9624 C9622 1.389 . S
C9624 C9625 1.524 . S
C9624 C9638 1.377 . S
C9625 C9624 1.524 . S
C9625 C9626 1.397 . S
C9625 C9630 1.363 . S
C9626 H9603 0.950 . S
C9626 C9625 1.397 . S
C9626 C9627 1.334 . S
C9627 H9604 0.950 . S
C9627 C9626 1.334 . S
C9627 C9628 1.287 . S
C9628 C9627 1.287 . S
C9628 C9629 1.524 . S
C9628 H9647 0.913 . S
C9629 H9605 0.950 . S
C9629 C9628 1.524 . S
C9629 C9630 1.415 . S
C9630 H9606 0.950 . S
C9630 C9625 1.363 . S
C9630 C9629 1.415 . S
C9631 H9607 0.951 . S
C9631 C9632 1.366 . S
C9631 C9633 1.388 . S
C9632 C9631 1.366 . S
C9632 C9636 1.385 . S
C9633 H9608 0.951 . S
C9633 C9631 1.388 . S
C9633 C9634 1.366 . S
C9634 C9633 1.366 . S
C9634 C9635 1.414 . S
C9634 C9637 1.499 . S
C9635 H9609 0.950 . S
C9635 C9634 1.414 . S
C9635 C9636 1.374 . S
C9636 H9610 0.950 . S
C9636 C9632 1.385 . S
C9636 C9635 1.374 . S
C9637 C9634 1.499 . S
C9637 C9638 1.373 . S
C9637 C9639 1.389 . S
C9638 H9611 0.950 . S
C9638 C9624 1.377 . S
C9638 C9637 1.373 . S
C9639 C9623 1.377 . S
C9639 C9637 1.389 . S
C9639 C9640 1.524 . S
C9640 C9639 1.524 . S
C9640 C9641 1.397 . S
C9640 C9645 1.363 . S
C9641 H9612 0.950 . S
C9641 C9640 1.397 . S
C9641 C9642 1.334 . S
C9642 H9613 0.950 . S
C9642 C9641 1.334 . S
C9642 C9643 1.287 . S
C9643 C9642 1.287 . S
C9643 C9644 1.524 . S
C9643 H9646 0.999 . S
C9644 H9614 0.950 . S
C9644 C9643 1.524 . S
C9644 C9645 1.415 . S
C9645 H9615 0.950 . S
C9645 C9640 1.363 . S
C9645 C9644 1.415 . S
H9646 C9643 0.999 . S
H9647 C9628 0.913 . S
H9648 C9666 0.951 . S
H9649 C9668 0.951 . S
H9650 C9670 0.950 . S
H9651 C9671 0.950 . S
H9652 C9673 0.950 . S
H9653 C9676 0.950 . S
H9654 C9677 0.950 . S
H9655 C9679 0.950 . S
H9656 C9680 0.950 . S
H9657 C9681 0.951 . S
H9658 C9683 0.951 . S
H9659 C9685 0.950 . S
H9660 C9686 0.950 . S
H9661 C9688 0.950 . S
H9662 C9691 0.950 . S
H9663 C9692 0.950 . S
H9664 C9694 0.950 . S
H9665 C9695 0.950 . S
C9666 H9648 0.951 . S
C9666 C9667 1.366 . S
C9666 C9668 1.388 . S
C9667 C9666 1.366 . S
C9667 C9671 1.385 . S
C9668 H9649 0.951 . S
C9668 C9666 1.388 . S
C9668 C9669 1.366 . S
C9669 C9668 1.366 . S
C9669 C9670 1.414 . S
C9669 C9672 1.499 . S
C9670 H9650 0.950 . S
C9670 C9669 1.414 . S
C9670 C9671 1.374 . S
C9671 H9651 0.950 . S
C9671 C9667 1.385 . S
C9671 C9670 1.374 . S
C9672 C9669 1.499 . S
C9672 C9673 1.373 . S
C9672 C9674 1.389 . S
C9673 H9652 0.950 . S
C9673 C9672 1.373 . S
C9673 C9689 1.377 . S
C9674 C9672 1.389 . S
C9674 C9675 1.524 . S
C9674 C9688 1.377 . S
C9675 C9674 1.524 . S
C9675 C9676 1.397 . S
C9675 C9680 1.363 . S
C9676 H9653 0.950 . S
C9676 C9675 1.397 . S
C9676 C9677 1.334 . S
C9677 H9654 0.950 . S
C9677 C9676 1.334 . S
C9677 C9678 1.287 . S
C9678 C9677 1.287 . S
C9678 C9679 1.524 . S
C9678 H9697 0.913 . S
C9679 H9655 0.950 . S
C9679 C9678 1.524 . S
C9679 C9680 1.415 . S
C9680 H9656 0.950 . S
C9680 C9675 1.363 . S
C9680 C9679 1.415 . S
C9681 H9657 0.951 . S
C9681 C9682 1.366 . S
C9681 C9683 1.388 . S
C9682 C9681 1.366 . S
C9682 C9686 1.385 . S
C9683 H9658 0.951 . S
C9683 C9681 1.388 . S
C9683 C9684 1.366 . S
C9684 C9683 1.366 . S
C9684 C9685 1.414 . S
C9684 C9687 1.499 . S
C9685 H9659 0.950 . S
C9685 C9684 1.414 . S
C9685 C9686 1.374 . S
C9686 H9660 0.950 . S
C9686 C9682 1.385 . S
C9686 C9685 1.374 . S
C9687 C9684 1.499 . S
C9687 C9688 1.373 . S
C9687 C9689 1.389 . S
C9688 H9661 0.950 . S
C9688 C9674 1.377 . S
C9688 C9687 1.373 . S
C9689 C9673 1.377 . S
C9689 C9687 1.389 . S
C9689 C9690 1.524 . S
C9690 C9689 1.524 . S
C9690 C9691 1.397 . S
C9690 C9695 1.363 . S
C9691 H9662 0.950 . S
C9691 C9690 1.397 . S
C9691 C9692 1.334 . S
C9692 H9663 0.950 . S
C9692 C9691 1.334 . S
C9692 C9693 1.287 . S
C9693 C9692 1.287 . S
C9693 C9694 1.524 . S
C9693 H9696 0.999 . S
C9694 H9664 0.950 . S
C9694 C9693 1.524 . S
C9694 C9695 1.415 . S
C9695 H9665 0.950 . S
C9695 C9690 1.363 . S
C9695 C9694 1.415 . S
H9696 C9693 0.999 . S
H9697 C9678 0.913 . S
H9698 C9716 0.951 . S
H9699 C9718 0.951 . S
H9700 C9720 0.950 . S
H9701 C9721 0.950 . S
H9702 C9723 0.950 . S
H9703 C9726 0.950 . S
H9704 C9727 0.950 . S
H9705 C9729 0.950 . S
H9706 C9730 0.950 . S
H9707 C9731 0.951 . S
H9708 C9733 0.951 . S
H9709 C9735 0.950 . S
H9710 C9736 0.950 . S
H9711 C9738 0.950 . S
H9712 C9741 0.950 . S
H9713 C9742 0.950 . S
H9714 C9744 0.950 . S
H9715 C9745 0.950 . S
C9716 H9698 0.951 . S
C9716 C9717 1.366 . S
C9716 C9718 1.388 . S
C9717 C9716 1.366 . S
C9717 C9721 1.385 . S
C9718 H9699 0.951 . S
C9718 C9716 1.388 . S
C9718 C9719 1.366 . S
C9719 C9718 1.366 . S
C9719 C9720 1.414 . S
C9719 C9722 1.499 . S
C9720 H9700 0.950 . S
C9720 C9719 1.414 . S
C9720 C9721 1.374 . S
C9721 H9701 0.950 . S
C9721 C9717 1.385 . S
C9721 C9720 1.374 . S
C9722 C9719 1.499 . S
C9722 C9723 1.373 . S
C9722 C9724 1.389 . S
C9723 H9702 0.950 . S
C9723 C9722 1.373 . S
C9723 C9739 1.377 . S
C9724 C9722 1.389 . S
C9724 C9725 1.524 . S
C9724 C9738 1.377 . S
C9725 C9724 1.524 . S
C9725 C9726 1.397 . S
C9725 C9730 1.363 . S
C9726 H9703 0.950 . S
C9726 C9725 1.397 . S
C9726 C9727 1.334 . S
C9727 H9704 0.950 . S
C9727 C9726 1.334 . S
C9727 C9728 1.287 . S
C9728 C9727 1.287 . S
C9728 C9729 1.524 . S
C9728 H9747 0.913 . S
C9729 H9705 0.950 . S
C9729 C9728 1.524 . S
C9729 C9730 1.415 . S
C9730 H9706 0.950 . S
C9730 C9725 1.363 . S
C9730 C9729 1.415 . S
C9731 H9707 0.951 . S
C9731 C9732 1.366 . S
C9731 C9733 1.388 . S
C9732 C9731 1.366 . S
C9732 C9736 1.385 . S
C9733 H9708 0.951 . S
C9733 C9731 1.388 . S
C9733 C9734 1.366 . S
C9734 C9733 1.366 . S
C9734 C9735 1.414 . S
C9734 C9737 1.499 . S
C9735 H9709 0.950 . S
C9735 C9734 1.414 . S
C9735 C9736 1.374 . S
C9736 H9710 0.950 . S
C9736 C9732 1.385 . S
C9736 C9735 1.374 . S
C9737 C9734 1.499 . S
C9737 C9738 1.373 . S
C9737 C9739 1.389 . S
C9738 H9711 0.950 . S
C9738 C9724 1.377 . S
C9738 C9737 1.373 . S
C9739 C9723 1.377 . S
C9739 C9737 1.389 . S
C9739 C9740 1.524 . S
C9740 C9739 1.524 . S
C9740 C9741 1.397 . S
C9740 C9745 1.363 . S
C9741 H9712 0.950 . S
C9741 C9740 1.397 . S
C9741 C9742 1.334 . S
C9742 H9713 0.950 . S
C9742 C9741 1.334 . S
C9742 C9743 1.287 . S
C9743 C9742 1.287 . S
C9743 C9744 1.524 . S
C9743 H9746 0.999 . S
C9744 H9714 0.950 . S
C9744 C9743 1.524 . S
C9744 C9745 1.415 . S
C9745 H9715 0.950 . S
C9745 C9740 1.363 . S
C9745 C9744 1.415 . S
H9746 C9743 0.999 . S
H9747 C9728 0.913 . S
H9748 C9766 0.951 . S
H9749 C9768 0.951 . S
H9750 C9770 0.950 . S
H9751 C9771 0.950 . S
H9752 C9773 0.950 . S
H9753 C9776 0.950 . S
H9754 C9777 0.950 . S
H9755 C9779 0.950 . S
H9756 C9780 0.950 . S
H9757 C9781 0.951 . S
H9758 C9783 0.951 . S
H9759 C9785 0.950 . S
H9760 C9786 0.950 . S
H9761 C9788 0.950 . S
H9762 C9791 0.950 . S
H9763 C9792 0.950 . S
H9764 C9794 0.950 . S
H9765 C9795 0.950 . S
C9766 H9748 0.951 . S
C9766 C9767 1.366 . S
C9766 C9768 1.388 . S
C9767 C9766 1.366 . S
C9767 C9771 1.385 . S
C9768 H9749 0.951 . S
C9768 C9766 1.388 . S
C9768 C9769 1.366 . S
C9769 C9768 1.366 . S
C9769 C9770 1.414 . S
C9769 C9772 1.499 . S
C9770 H9750 0.950 . S
C9770 C9769 1.414 . S
C9770 C9771 1.374 . S
C9771 H9751 0.950 . S
C9771 C9767 1.385 . S
C9771 C9770 1.374 . S
C9772 C9769 1.499 . S
C9772 C9773 1.373 . S
C9772 C9774 1.389 . S
C9773 H9752 0.950 . S
C9773 C9772 1.373 . S
C9773 C9789 1.377 . S
C9774 C9772 1.389 . S
C9774 C9775 1.524 . S
C9774 C9788 1.377 . S
C9775 C9774 1.524 . S
C9775 C9776 1.397 . S
C9775 C9780 1.363 . S
C9776 H9753 0.950 . S
C9776 C9775 1.397 . S
C9776 C9777 1.334 . S
C9777 H9754 0.950 . S
C9777 C9776 1.334 . S
C9777 C9778 1.287 . S
C9778 C9777 1.287 . S
C9778 C9779 1.524 . S
C9778 H9797 0.913 . S
C9779 H9755 0.950 . S
C9779 C9778 1.524 . S
C9779 C9780 1.415 . S
C9780 H9756 0.950 . S
C9780 C9775 1.363 . S
C9780 C9779 1.415 . S
C9781 H9757 0.951 . S
C9781 C9782 1.366 . S
C9781 C9783 1.388 . S
C9782 C9781 1.366 . S
C9782 C9786 1.385 . S
C9783 H9758 0.951 . S
C9783 C9781 1.388 . S
C9783 C9784 1.366 . S
C9784 C9783 1.366 . S
C9784 C9785 1.414 . S
C9784 C9787 1.499 . S
C9785 H9759 0.950 . S
C9785 C9784 1.414 . S
C9785 C9786 1.374 . S
C9786 H9760 0.950 . S
C9786 C9782 1.385 . S
C9786 C9785 1.374 . S
C9787 C9784 1.499 . S
C9787 C9788 1.373 . S
C9787 C9789 1.389 . S
C9788 H9761 0.950 . S
C9788 C9774 1.377 . S
C9788 C9787 1.373 . S
C9789 C9773 1.377 . S
C9789 C9787 1.389 . S
C9789 C9790 1.524 . S
C9790 C9789 1.524 . S
C9790 C9791 1.397 . S
C9790 C9795 1.363 . S
C9791 H9762 0.950 . S
C9791 C9790 1.397 . S
C9791 C9792 1.334 . S
C9792 H9763 0.950 . S
C9792 C9791 1.334 . S
C9792 C9793 1.287 . S
C9793 C9792 1.287 . S
C9793 C9794 1.524 . S
C9793 H9796 0.999 . S
C9794 H9764 0.950 . S
C9794 C9793 1.524 . S
C9794 C9795 1.415 . S
C9795 H9765 0.950 . S
C9795 C9790 1.363 . S
C9795 C9794 1.415 . S
H9796 C9793 0.999 . S
H9797 C9778 0.913 . S
H9798 C9816 0.951 . S
H9799 C9818 0.951 . S
H9800 C9820 0.950 . S
H9801 C9821 0.950 . S
H9802 C9823 0.950 . S
H9803 C9826 0.950 . S
H9804 C9827 0.950 . S
H9805 C9829 0.950 . S
H9806 C9830 0.950 . S
H9807 C9831 0.951 . S
H9808 C9833 0.951 . S
H9809 C9835 0.950 . S
H9810 C9836 0.950 . S
H9811 C9838 0.950 . S
H9812 C9841 0.950 . S
H9813 C9842 0.950 . S
H9814 C9844 0.950 . S
H9815 C9845 0.950 . S
C9816 H9798 0.951 . S
C9816 C9817 1.366 . S
C9816 C9818 1.388 . S
C9817 C9816 1.366 . S
C9817 C9821 1.385 . S
C9818 H9799 0.951 . S
C9818 C9816 1.388 . S
C9818 C9819 1.366 . S
C9819 C9818 1.366 . S
C9819 C9820 1.414 . S
C9819 C9822 1.499 . S
C9820 H9800 0.950 . S
C9820 C9819 1.414 . S
C9820 C9821 1.374 . S
C9821 H9801 0.950 . S
C9821 C9817 1.385 . S
C9821 C9820 1.374 . S
C9822 C9819 1.499 . S
C9822 C9823 1.373 . S
C9822 C9824 1.389 . S
C9823 H9802 0.950 . S
C9823 C9822 1.373 . S
C9823 C9839 1.377 . S
C9824 C9822 1.389 . S
C9824 C9825 1.524 . S
C9824 C9838 1.377 . S
C9825 C9824 1.524 . S
C9825 C9826 1.397 . S
C9825 C9830 1.363 . S
C9826 H9803 0.950 . S
C9826 C9825 1.397 . S
C9826 C9827 1.334 . S
C9827 H9804 0.950 . S
C9827 C9826 1.334 . S
C9827 C9828 1.287 . S
C9828 C9827 1.287 . S
C9828 C9829 1.524 . S
C9828 H9847 0.913 . S
C9829 H9805 0.950 . S
C9829 C9828 1.524 . S
C9829 C9830 1.415 . S
C9830 H9806 0.950 . S
C9830 C9825 1.363 . S
C9830 C9829 1.415 . S
C9831 H9807 0.951 . S
C9831 C9832 1.366 . S
C9831 C9833 1.388 . S
C9832 C9831 1.366 . S
C9832 C9836 1.385 . S
C9833 H9808 0.951 . S
C9833 C9831 1.388 . S
C9833 C9834 1.366 . S
C9834 C9833 1.366 . S
C9834 C9835 1.414 . S
C9834 C9837 1.499 . S
C9835 H9809 0.950 . S
C9835 C9834 1.414 . S
C9835 C9836 1.374 . S
C9836 H9810 0.950 . S
C9836 C9832 1.385 . S
C9836 C9835 1.374 . S
C9837 C9834 1.499 . S
C9837 C9838 1.373 . S
C9837 C9839 1.389 . S
C9838 H9811 0.950 . S
C9838 C9824 1.377 . S
C9838 C9837 1.373 . S
C9839 C9823 1.377 . S
C9839 C9837 1.389 . S
C9839 C9840 1.524 . S
C9840 C9839 1.524 . S
C9840 C9841 1.397 . S
C9840 C9845 1.363 . S
C9841 H9812 0.950 . S
C9841 C9840 1.397 . S
C9841 C9842 1.334 . S
C9842 H9813 0.950 . S
C9842 C9841 1.334 . S
C9842 C9843 1.287 . S
C9843 C9842 1.287 . S
C9843 C9844 1.524 . S
C9843 H9846 0.999 . S
C9844 H9814 0.950 . S
C9844 C9843 1.524 . S
C9844 C9845 1.415 . S
C9845 H9815 0.950 . S
C9845 C9840 1.363 . S
C9845 C9844 1.415 . S
H9846 C9843 0.999 . S
H9847 C9828 0.913 . S
H9848 C9866 0.951 . S
H9849 C9868 0.951 . S
H9850 C9870 0.950 . S
H9851 C9871 0.950 . S
H9852 C9873 0.950 . S
H9853 C9876 0.950 . S
H9854 C9877 0.950 . S
H9855 C9879 0.950 . S
H9856 C9880 0.950 . S
H9857 C9881 0.951 . S
H9858 C9883 0.951 . S
H9859 C9885 0.950 . S
H9860 C9886 0.950 . S
H9861 C9888 0.950 . S
H9862 C9891 0.950 . S
H9863 C9892 0.950 . S
H9864 C9894 0.950 . S
H9865 C9895 0.950 . S
C9866 H9848 0.951 . S
C9866 C9867 1.366 . S
C9866 C9868 1.388 . S
C9867 C9866 1.366 . S
C9867 C9871 1.385 . S
C9868 H9849 0.951 . S
C9868 C9866 1.388 . S
C9868 C9869 1.366 . S
C9869 C9868 1.366 . S
C9869 C9870 1.414 . S
C9869 C9872 1.499 . S
C9870 H9850 0.950 . S
C9870 C9869 1.414 . S
C9870 C9871 1.374 . S
C9871 H9851 0.950 . S
C9871 C9867 1.385 . S
C9871 C9870 1.374 . S
C9872 C9869 1.499 . S
C9872 C9873 1.373 . S
C9872 C9874 1.389 . S
C9873 H9852 0.950 . S
C9873 C9872 1.373 . S
C9873 C9889 1.377 . S
C9874 C9872 1.389 . S
C9874 C9875 1.524 . S
C9874 C9888 1.377 . S
C9875 C9874 1.524 . S
C9875 C9876 1.397 . S
C9875 C9880 1.363 . S
C9876 H9853 0.950 . S
C9876 C9875 1.397 . S
C9876 C9877 1.334 . S
C9877 H9854 0.950 . S
C9877 C9876 1.334 . S
C9877 C9878 1.287 . S
C9878 C9877 1.287 . S
C9878 C9879 1.524 . S
C9878 H9897 0.913 . S
C9879 H9855 0.950 . S
C9879 C9878 1.524 . S
C9879 C9880 1.415 . S
C9880 H9856 0.950 . S
C9880 C9875 1.363 . S
C9880 C9879 1.415 . S
C9881 H9857 0.951 . S
C9881 C9882 1.366 . S
C9881 C9883 1.388 . S
C9882 C9881 1.366 . S
C9882 C9886 1.385 . S
C9883 H9858 0.951 . S
C9883 C9881 1.388 . S
C9883 C9884 1.366 . S
C9884 C9883 1.366 . S
C9884 C9885 1.414 . S
C9884 C9887 1.499 . S
C9885 H9859 0.950 . S
C9885 C9884 1.414 . S
C9885 C9886 1.374 . S
C9886 H9860 0.950 . S
C9886 C9882 1.385 . S
C9886 C9885 1.374 . S
C9887 C9884 1.499 . S
C9887 C9888 1.373 . S
C9887 C9889 1.389 . S
C9888 H9861 0.950 . S
C9888 C9874 1.377 . S
C9888 C9887 1.373 . S
C9889 C9873 1.377 . S
C9889 C9887 1.389 . S
C9889 C9890 1.524 . S
C9890 C9889 1.524 . S
C9890 C9891 1.397 . S
C9890 C9895 1.363 . S
C9891 H9862 0.950 . S
C9891 C9890 1.397 . S
C9891 C9892 1.334 . S
C9892 H9863 0.950 . S
C9892 C9891 1.334 . S
C9892 C9893 1.287 . S
C9893 C9892 1.287 . S
C9893 C9894 1.524 . S
C9893 H9896 0.999 . S
C9894 H9864 0.950 . S
C9894 C9893 1.524 . S
C9894 C9895 1.415 . S
C9895 H9865 0.950 . S
C9895 C9890 1.363 . S
C9895 C9894 1.415 . S
H9896 C9893 0.999 . S
H9897 C9878 0.913 . S
H9898 C9916 0.951 . S
H9899 C9918 0.951 . S
H9900 C9920 0.950 . S
H9901 C9921 0.950 . S
H9902 C9923 0.950 . S
H9903 C9926 0.950 . S
H9904 C9927 0.950 . S
H9905 C9929 0.950 . S
H9906 C9930 0.950 . S
H9907 C9931 0.951 . S
H9908 C9933 0.951 . S
H9909 C9935 0.950 . S
H9910 C9936 0.950 . S
H9911 C9938 0.950 . S
H9912 C9941 0.950 . S
H9913 C9942 0.950 . S
H9914 C9944 0.950 . S
H9915 C9945 0.950 . S
C9916 H9898 0.951 . S
C9916 C9917 1.366 . S
C9916 C9918 1.388 . S
C9917 C9916 1.366 . S
C9917 C9921 1.385 . S
C9918 H9899 0.951 . S
C9918 C9916 1.388 . S
C9918 C9919 1.366 . S
C9919 C9918 1.366 . S
C9919 C9920 1.414 . S
C9919 C9922 1.499 . S
C9920 H9900 0.950 . S
C9920 C9919 1.414 . S
C9920 C9921 1.374 . S
C9921 H9901 0.950 . S
C9921 C9917 1.385 . S
C9921 C9920 1.374 . S
C9922 C9919 1.499 . S
C9922 C9923 1.373 . S
C9922 C9924 1.389 . S
C9923 H9902 0.950 . S
C9923 C9922 1.373 . S
C9923 C9939 1.377 . S
C9924 C9922 1.389 . S
C9924 C9925 1.524 . S
C9924 C9938 1.377 . S
C9925 C9924 1.524 . S
C9925 C9926 1.397 . S
C9925 C9930 1.363 . S
C9926 H9903 0.950 . S
C9926 C9925 1.397 . S
C9926 C9927 1.334 . S
C9927 H9904 0.950 . S
C9927 C9926 1.334 . S
C9927 C9928 1.287 . S
C9928 C9927 1.287 . S
C9928 C9929 1.524 . S
C9928 H9947 0.913 . S
C9929 H9905 0.950 . S
C9929 C9928 1.524 . S
C9929 C9930 1.415 . S
C9930 H9906 0.950 . S
C9930 C9925 1.363 . S
C9930 C9929 1.415 . S
C9931 H9907 0.951 . S
C9931 C9932 1.366 . S
C9931 C9933 1.388 . S
C9932 C9931 1.366 . S
C9932 C9936 1.385 . S
C9933 H9908 0.951 . S
C9933 C9931 1.388 . S
C9933 C9934 1.366 . S
C9934 C9933 1.366 . S
C9934 C9935 1.414 . S
C9934 C9937 1.499 . S
C9935 H9909 0.950 . S
C9935 C9934 1.414 . S
C9935 C9936 1.374 . S
C9936 H9910 0.950 . S
C9936 C9932 1.385 . S
C9936 C9935 1.374 . S
C9937 C9934 1.499 . S
C9937 C9938 1.373 . S
C9937 C9939 1.389 . S
C9938 H9911 0.950 . S
C9938 C9924 1.377 . S
C9938 C9937 1.373 . S
C9939 C9923 1.377 . S
C9939 C9937 1.389 . S
C9939 C9940 1.524 . S
C9940 C9939 1.524 . S
C9940 C9941 1.397 . S
C9940 C9945 1.363 . S
C9941 H9912 0.950 . S
C9941 C9940 1.397 . S
C9941 C9942 1.334 . S
C9942 H9913 0.950 . S
C9942 C9941 1.334 . S
C9942 C9943 1.287 . S
C9943 C9942 1.287 . S
C9943 C9944 1.524 . S
C9943 H9946 0.999 . S
C9944 H9914 0.950 . S
C9944 C9943 1.524 . S
C9944 C9945 1.415 . S
C9945 H9915 0.950 . S
C9945 C9940 1.363 . S
C9945 C9944 1.415 . S
H9946 C9943 0.999 . S
H9947 C9928 0.913 . S
H9948 C9966 0.951 . S
H9949 C9968 0.951 . S
H9950 C9970 0.950 . S
H9951 C9971 0.950 . S
H9952 C9973 0.950 . S
H9953 C9976 0.950 . S
H9954 C9977 0.950 . S
H9955 C9979 0.950 . S
H9956 C9980 0.950 . S
H9957 C9981 0.951 . S
H9958 C9983 0.951 . S
H9959 C9985 0.950 . S
H9960 C9986 0.950 . S
H9961 C9988 0.950 . S
H9962 C9991 0.950 . S
H9963 C9992 0.950 . S
H9964 C9994 0.950 . S
H9965 C9995 0.950 . S
C9966 H9948 0.951 . S
C9966 C9967 1.366 . S
C9966 C9968 1.388 . S
C9967 C9966 1.366 . S
C9967 C9971 1.385 . S
C9968 H9949 0.951 . S
C9968 C9966 1.388 . S
C9968 C9969 1.366 . S
C9969 C9968 1.366 . S
C9969 C9970 1.414 . S
C9969 C9972 1.499 . S
C9970 H9950 0.950 . S
C9970 C9969 1.414 . S
C9970 C9971 1.374 . S
C9971 H9951 0.950 . S
C9971 C9967 1.385 . S
C9971 C9970 1.374 . S
C9972 C9969 1.499 . S
C9972 C9973 1.373 . S
C9972 C9974 1.389 . S
C9973 H9952 0.950 . S
C9973 C9972 1.373 . S
C9973 C9989 1.377 . S
C9974 C9972 1.389 . S
C9974 C9975 1.524 . S
C9974 C9988 1.377 . S
C9975 C9974 1.524 . S
C9975 C9976 1.397 . S
C9975 C9980 1.363 . S
C9976 H9953 0.950 . S
C9976 C9975 1.397 . S
C9976 C9977 1.334 . S
C9977 H9954 0.950 . S
C9977 C9976 1.334 . S
C9977 C9978 1.287 . S
C9978 C9977 1.287 . S
C9978 C9979 1.524 . S
C9978 H9997 0.913 . S
C9979 H9955 0.950 . S
C9979 C9978 1.524 . S
C9979 C9980 1.415 . S
C9980 H9956 0.950 . S
C9980 C9975 1.363 . S
C9980 C9979 1.415 . S
C9981 H9957 0.951 . S
C9981 C9982 1.366 . S
C9981 C9983 1.388 . S
C9982 C9981 1.366 . S
C9982 C9986 1.385 . S
C9983 H9958 0.951 . S
C9983 C9981 1.388 . S
C9983 C9984 1.366 . S
C9984 C9983 1.366 . S
C9984 C9985 1.414 . S
C9984 C9987 1.499 . S
C9985 H9959 0.950 . S
C9985 C9984 1.414 . S
C9985 C9986 1.374 . S
C9986 H9960 0.950 . S
C9986 C9982 1.385 . S
C9986 C9985 1.374 . S
C9987 C9984 1.499 . S
C9987 C9988 1.373 . S
C9987 C9989 1.389 . S
C9988 H9961 0.950 . S
C9988 C9974 1.377 . S
C9988 C9987 1.373 . S
C9989 C9973 1.377 . S
C9989 C9987 1.389 . S
C9989 C9990 1.524 . S
C9990 C9989 1.524 . S
C9990 C9991 1.397 . S
C9990 C9995 1.363 . S
C9991 H9962 0.950 . S
C9991 C9990 1.397 . S
C9991 C9992 1.334 . S
C9992 H9963 0.950 . S
C9992 C9991 1.334 . S
C9992 C9993 1.287 . S
C9993 C9992 1.287 . S
C9993 C9994 1.524 . S
C9993 H9996 0.999 . S
C9994 H9964 0.950 . S
C9994 C9993 1.524 . S
C9994 C9995 1.415 . S
C9995 H9965 0.950 . S
C9995 C9990 1.363 . S
C9995 C9994 1.415 . S
H9996 C9993 0.999 . S
H9997 C9978 0.913 . S
H9998 C10016 0.951 . S
H9999 C10018 0.951 . S
H10000 C10020 0.950 . S
H10001 C10021 0.950 . S
H10002 C10023 0.950 . S
H10003 C10026 0.950 . S
H10004 C10027 0.950 . S
H10005 C10029 0.950 . S
H10006 C10030 0.950 . S
H10007 C10031 0.951 . S
H10008 C10033 0.951 . S
H10009 C10035 0.950 . S
H10010 C10036 0.950 . S
H10011 C10038 0.950 . S
H10012 C10041 0.950 . S
H10013 C10042 0.950 . S
H10014 C10044 0.950 . S
H10015 C10045 0.950 . S
C10016 H9998 0.951 . S
C10016 C10017 1.366 . S
C10016 C10018 1.388 . S
C10017 C10016 1.366 . S
C10017 C10021 1.385 . S
C10018 H9999 0.951 . S
C10018 C10016 1.388 . S
C10018 C10019 1.366 . S
C10019 C10018 1.366 . S
C10019 C10020 1.414 . S
C10019 C10022 1.499 . S
C10020 H10000 0.950 . S
C10020 C10019 1.414 . S
C10020 C10021 1.374 . S
C10021 H10001 0.950 . S
C10021 C10017 1.385 . S
C10021 C10020 1.374 . S
C10022 C10019 1.499 . S
C10022 C10023 1.373 . S
C10022 C10024 1.389 . S
C10023 H10002 0.950 . S
C10023 C10022 1.373 . S
C10023 C10039 1.377 . S
C10024 C10022 1.389 . S
C10024 C10025 1.524 . S
C10024 C10038 1.377 . S
C10025 C10024 1.524 . S
C10025 C10026 1.397 . S
C10025 C10030 1.363 . S
C10026 H10003 0.950 . S
C10026 C10025 1.397 . S
C10026 C10027 1.334 . S
C10027 H10004 0.950 . S
C10027 C10026 1.334 . S
C10027 C10028 1.287 . S
C10028 C10027 1.287 . S
C10028 C10029 1.524 . S
C10028 H10047 0.913 . S
C10029 H10005 0.950 . S
C10029 C10028 1.524 . S
C10029 C10030 1.415 . S
C10030 H10006 0.950 . S
C10030 C10025 1.363 . S
C10030 C10029 1.415 . S
C10031 H10007 0.951 . S
C10031 C10032 1.366 . S
C10031 C10033 1.388 . S
C10032 C10031 1.366 . S
C10032 C10036 1.385 . S
C10033 H10008 0.951 . S
C10033 C10031 1.388 . S
C10033 C10034 1.366 . S
C10034 C10033 1.366 . S
C10034 C10035 1.414 . S
C10034 C10037 1.499 . S
C10035 H10009 0.950 . S
C10035 C10034 1.414 . S
C10035 C10036 1.374 . S
C10036 H10010 0.950 . S
C10036 C10032 1.385 . S
C10036 C10035 1.374 . S
C10037 C10034 1.499 . S
C10037 C10038 1.373 . S
C10037 C10039 1.389 . S
C10038 H10011 0.950 . S
C10038 C10024 1.377 . S
C10038 C10037 1.373 . S
C10039 C10023 1.377 . S
C10039 C10037 1.389 . S
C10039 C10040 1.524 . S
C10040 C10039 1.524 . S
C10040 C10041 1.397 . S
C10040 C10045 1.363 . S
C10041 H10012 0.950 . S
C10041 C10040 1.397 . S
C10041 C10042 1.334 . S
C10042 H10013 0.950 . S
C10042 C10041 1.334 . S
C10042 C10043 1.287 . S
C10043 C10042 1.287 . S
C10043 C10044 1.524 . S
C10043 H10046 0.999 . S
C10044 H10014 0.950 . S
C10044 C10043 1.524 . S
C10044 C10045 1.415 . S
C10045 H10015 0.950 . S
C10045 C10040 1.363 . S
C10045 C10044 1.415 . S
H10046 C10043 0.999 . S
H10047 C10028 0.913 . S
H10048 C10066 0.951 . S
H10049 C10068 0.951 . S
H10050 C10070 0.950 . S
H10051 C10071 0.950 . S
H10052 C10073 0.950 . S
H10053 C10076 0.950 . S
H10054 C10077 0.950 . S
H10055 C10079 0.950 . S
H10056 C10080 0.950 . S
H10057 C10081 0.951 . S
H10058 C10083 0.951 . S
H10059 C10085 0.950 . S
H10060 C10086 0.950 . S
H10061 C10088 0.950 . S
H10062 C10091 0.950 . S
H10063 C10092 0.950 . S
H10064 C10094 0.950 . S
H10065 C10095 0.950 . S
C10066 H10048 0.951 . S
C10066 C10067 1.366 . S
C10066 C10068 1.388 . S
C10067 C10066 1.366 . S
C10067 C10071 1.385 . S
C10068 H10049 0.951 . S
C10068 C10066 1.388 . S
C10068 C10069 1.366 . S
C10069 C10068 1.366 . S
C10069 C10070 1.414 . S
C10069 C10072 1.499 . S
C10070 H10050 0.950 . S
C10070 C10069 1.414 . S
C10070 C10071 1.374 . S
C10071 H10051 0.950 . S
C10071 C10067 1.385 . S
C10071 C10070 1.374 . S
C10072 C10069 1.499 . S
C10072 C10073 1.373 . S
C10072 C10074 1.389 . S
C10073 H10052 0.950 . S
C10073 C10072 1.373 . S
C10073 C10089 1.377 . S
C10074 C10072 1.389 . S
C10074 C10075 1.524 . S
C10074 C10088 1.377 . S
C10075 C10074 1.524 . S
C10075 C10076 1.397 . S
C10075 C10080 1.363 . S
C10076 H10053 0.950 . S
C10076 C10075 1.397 . S
C10076 C10077 1.334 . S
C10077 H10054 0.950 . S
C10077 C10076 1.334 . S
C10077 C10078 1.287 . S
C10078 C10077 1.287 . S
C10078 C10079 1.524 . S
C10078 H10097 0.913 . S
C10079 H10055 0.950 . S
C10079 C10078 1.524 . S
C10079 C10080 1.415 . S
C10080 H10056 0.950 . S
C10080 C10075 1.363 . S
C10080 C10079 1.415 . S
C10081 H10057 0.951 . S
C10081 C10082 1.366 . S
C10081 C10083 1.388 . S
C10082 C10081 1.366 . S
C10082 C10086 1.385 . S
C10083 H10058 0.951 . S
C10083 C10081 1.388 . S
C10083 C10084 1.366 . S
C10084 C10083 1.366 . S
C10084 C10085 1.414 . S
C10084 C10087 1.499 . S
C10085 H10059 0.950 . S
C10085 C10084 1.414 . S
C10085 C10086 1.374 . S
C10086 H10060 0.950 . S
C10086 C10082 1.385 . S
C10086 C10085 1.374 . S
C10087 C10084 1.499 . S
C10087 C10088 1.373 . S
C10087 C10089 1.389 . S
C10088 H10061 0.950 . S
C10088 C10074 1.377 . S
C10088 C10087 1.373 . S
C10089 C10073 1.377 . S
C10089 C10087 1.389 . S
C10089 C10090 1.524 . S
C10090 C10089 1.524 . S
C10090 C10091 1.397 . S
C10090 C10095 1.363 . S
C10091 H10062 0.950 . S
C10091 C10090 1.397 . S
C10091 C10092 1.334 . S
C10092 H10063 0.950 . S
C10092 C10091 1.334 . S
C10092 C10093 1.287 . S
C10093 C10092 1.287 . S
C10093 C10094 1.524 . S
C10093 H10096 0.999 . S
C10094 H10064 0.950 . S
C10094 C10093 1.524 . S
C10094 C10095 1.415 . S
C10095 H10065 0.950 . S
C10095 C10090 1.363 . S
C10095 C10094 1.415 . S
H10096 C10093 0.999 . S
H10097 C10078 0.913 . S
H10098 C10116 0.951 . S
H10099 C10118 0.951 . S
H10100 C10120 0.950 . S
H10101 C10121 0.950 . S
H10102 C10123 0.950 . S
H10103 C10126 0.950 . S
H10104 C10127 0.950 . S
H10105 C10129 0.950 . S
H10106 C10130 0.950 . S
H10107 C10131 0.951 . S
H10108 C10133 0.951 . S
H10109 C10135 0.950 . S
H10110 C10136 0.950 . S
H10111 C10138 0.950 . S
H10112 C10141 0.950 . S
H10113 C10142 0.950 . S
H10114 C10144 0.950 . S
H10115 C10145 0.950 . S
C10116 H10098 0.951 . S
C10116 C10117 1.366 . S
C10116 C10118 1.388 . S
C10117 C10116 1.366 . S
C10117 C10121 1.385 . S
C10118 H10099 0.951 . S
C10118 C10116 1.388 . S
C10118 C10119 1.366 . S
C10119 C10118 1.366 . S
C10119 C10120 1.414 . S
C10119 C10122 1.499 . S
C10120 H10100 0.950 . S
C10120 C10119 1.414 . S
C10120 C10121 1.374 . S
C10121 H10101 0.950 . S
C10121 C10117 1.385 . S
C10121 C10120 1.374 . S
C10122 C10119 1.499 . S
C10122 C10123 1.373 . S
C10122 C10124 1.389 . S
C10123 H10102 0.950 . S
C10123 C10122 1.373 . S
C10123 C10139 1.377 . S
C10124 C10122 1.389 . S
C10124 C10125 1.524 . S
C10124 C10138 1.377 . S
C10125 C10124 1.524 . S
C10125 C10126 1.397 . S
C10125 C10130 1.363 . S
C10126 H10103 0.950 . S
C10126 C10125 1.397 . S
C10126 C10127 1.334 . S
C10127 H10104 0.950 . S
C10127 C10126 1.334 . S
C10127 C10128 1.287 . S
C10128 C10127 1.287 . S
C10128 C10129 1.524 . S
C10128 H10147 0.913 . S
C10129 H10105 0.950 . S
C10129 C10128 1.524 . S
C10129 C10130 1.415 . S
C10130 H10106 0.950 . S
C10130 C10125 1.363 . S
C10130 C10129 1.415 . S
C10131 H10107 0.951 . S
C10131 C10132 1.366 . S
C10131 C10133 1.388 . S
C10132 C10131 1.366 . S
C10132 C10136 1.385 . S
C10133 H10108 0.951 . S
C10133 C10131 1.388 . S
C10133 C10134 1.366 . S
C10134 C10133 1.366 . S
C10134 C10135 1.414 . S
C10134 C10137 1.499 . S
C10135 H10109 0.950 . S
C10135 C10134 1.414 . S
C10135 C10136 1.374 . S
C10136 H10110 0.950 . S
C10136 C10132 1.385 . S
C10136 C10135 1.374 . S
C10137 C10134 1.499 . S
C10137 C10138 1.373 . S
C10137 C10139 1.389 . S
C10138 H10111 0.950 . S
C10138 C10124 1.377 . S
C10138 C10137 1.373 . S
C10139 C10123 1.377 . S
C10139 C10137 1.389 . S
C10139 C10140 1.524 . S
C10140 C10139 1.524 . S
C10140 C10141 1.397 . S
C10140 C10145 1.363 . S
C10141 H10112 0.950 . S
C10141 C10140 1.397 . S
C10141 C10142 1.334 . S
C10142 H10113 0.950 . S
C10142 C10141 1.334 . S
C10142 C10143 1.287 . S
C10143 C10142 1.287 . S
C10143 C10144 1.524 . S
C10143 H10146 0.999 . S
C10144 H10114 0.950 . S
C10144 C10143 1.524 . S
C10144 C10145 1.415 . S
C10145 H10115 0.950 . S
C10145 C10140 1.363 . S
C10145 C10144 1.415 . S
H10146 C10143 0.999 . S
H10147 C10128 0.913 . S
H10148 C10166 0.951 . S
H10149 C10168 0.951 . S
H10150 C10170 0.950 . S
H10151 C10171 0.950 . S
H10152 C10173 0.950 . S
H10153 C10176 0.950 . S
H10154 C10177 0.950 . S
H10155 C10179 0.950 . S
H10156 C10180 0.950 . S
H10157 C10181 0.951 . S
H10158 C10183 0.951 . S
H10159 C10185 0.950 . S
H10160 C10186 0.950 . S
H10161 C10188 0.950 . S
H10162 C10191 0.950 . S
H10163 C10192 0.950 . S
H10164 C10194 0.950 . S
H10165 C10195 0.950 . S
C10166 H10148 0.951 . S
C10166 C10167 1.366 . S
C10166 C10168 1.388 . S
C10167 C10166 1.366 . S
C10167 C10171 1.385 . S
C10168 H10149 0.951 . S
C10168 C10166 1.388 . S
C10168 C10169 1.366 . S
C10169 C10168 1.366 . S
C10169 C10170 1.414 . S
C10169 C10172 1.499 . S
C10170 H10150 0.950 . S
C10170 C10169 1.414 . S
C10170 C10171 1.374 . S
C10171 H10151 0.950 . S
C10171 C10167 1.385 . S
C10171 C10170 1.374 . S
C10172 C10169 1.499 . S
C10172 C10173 1.373 . S
C10172 C10174 1.389 . S
C10173 H10152 0.950 . S
C10173 C10172 1.373 . S
C10173 C10189 1.377 . S
C10174 C10172 1.389 . S
C10174 C10175 1.524 . S
C10174 C10188 1.377 . S
C10175 C10174 1.524 . S
C10175 C10176 1.397 . S
C10175 C10180 1.363 . S
C10176 H10153 0.950 . S
C10176 C10175 1.397 . S
C10176 C10177 1.334 . S
C10177 H10154 0.950 . S
C10177 C10176 1.334 . S
C10177 C10178 1.287 . S
C10178 C10177 1.287 . S
C10178 C10179 1.524 . S
C10178 H10197 0.913 . S
C10179 H10155 0.950 . S
C10179 C10178 1.524 . S
C10179 C10180 1.415 . S
C10180 H10156 0.950 . S
C10180 C10175 1.363 . S
C10180 C10179 1.415 . S
C10181 H10157 0.951 . S
C10181 C10182 1.366 . S
C10181 C10183 1.388 . S
C10182 C10181 1.366 . S
C10182 C10186 1.385 . S
C10183 H10158 0.951 . S
C10183 C10181 1.388 . S
C10183 C10184 1.366 . S
C10184 C10183 1.366 . S
C10184 C10185 1.414 . S
C10184 C10187 1.499 . S
C10185 H10159 0.950 . S
C10185 C10184 1.414 . S
C10185 C10186 1.374 . S
C10186 H10160 0.950 . S
C10186 C10182 1.385 . S
C10186 C10185 1.374 . S
C10187 C10184 1.499 . S
C10187 C10188 1.373 . S
C10187 C10189 1.389 . S
C10188 H10161 0.950 . S
C10188 C10174 1.377 . S
C10188 C10187 1.373 . S
C10189 C10173 1.377 . S
C10189 C10187 1.389 . S
C10189 C10190 1.524 . S
C10190 C10189 1.524 . S
C10190 C10191 1.397 . S
C10190 C10195 1.363 . S
C10191 H10162 0.950 . S
C10191 C10190 1.397 . S
C10191 C10192 1.334 . S
C10192 H10163 0.950 . S
C10192 C10191 1.334 . S
C10192 C10193 1.287 . S
C10193 C10192 1.287 . S
C10193 C10194 1.524 . S
C10193 H10196 0.999 . S
C10194 H10164 0.950 . S
C10194 C10193 1.524 . S
C10194 C10195 1.415 . S
C10195 H10165 0.950 . S
C10195 C10190 1.363 . S
C10195 C10194 1.415 . S
H10196 C10193 0.999 . S
H10197 C10178 0.913 . S
H10198 C10216 0.951 . S
H10199 C10218 0.951 . S
H10200 C10220 0.950 . S
H10201 C10221 0.950 . S
H10202 C10223 0.950 . S
H10203 C10226 0.950 . S
H10204 C10227 0.950 . S
H10205 C10229 0.950 . S
H10206 C10230 0.950 . S
H10207 C10231 0.951 . S
H10208 C10233 0.951 . S
H10209 C10235 0.950 . S
H10210 C10236 0.950 . S
H10211 C10238 0.950 . S
H10212 C10241 0.950 . S
H10213 C10242 0.950 . S
H10214 C10244 0.950 . S
H10215 C10245 0.950 . S
C10216 H10198 0.951 . S
C10216 C10217 1.366 . S
C10216 C10218 1.388 . S
C10217 C10216 1.366 . S
C10217 C10221 1.385 . S
C10218 H10199 0.951 . S
C10218 C10216 1.388 . S
C10218 C10219 1.366 . S
C10219 C10218 1.366 . S
C10219 C10220 1.414 . S
C10219 C10222 1.499 . S
C10220 H10200 0.950 . S
C10220 C10219 1.414 . S
C10220 C10221 1.374 . S
C10221 H10201 0.950 . S
C10221 C10217 1.385 . S
C10221 C10220 1.374 . S
C10222 C10219 1.499 . S
C10222 C10223 1.373 . S
C10222 C10224 1.389 . S
C10223 H10202 0.950 . S
C10223 C10222 1.373 . S
C10223 C10239 1.377 . S
C10224 C10222 1.389 . S
C10224 C10225 1.524 . S
C10224 C10238 1.377 . S
C10225 C10224 1.524 . S
C10225 C10226 1.397 . S
C10225 C10230 1.363 . S
C10226 H10203 0.950 . S
C10226 C10225 1.397 . S
C10226 C10227 1.334 . S
C10227 H10204 0.950 . S
C10227 C10226 1.334 . S
C10227 C10228 1.287 . S
C10228 C10227 1.287 . S
C10228 C10229 1.524 . S
C10228 H10247 0.913 . S
C10229 H10205 0.950 . S
C10229 C10228 1.524 . S
C10229 C10230 1.415 . S
C10230 H10206 0.950 . S
C10230 C10225 1.363 . S
C10230 C10229 1.415 . S
C10231 H10207 0.951 . S
C10231 C10232 1.366 . S
C10231 C10233 1.388 . S
C10232 C10231 1.366 . S
C10232 C10236 1.385 . S
C10233 H10208 0.951 . S
C10233 C10231 1.388 . S
C10233 C10234 1.366 . S
C10234 C10233 1.366 . S
C10234 C10235 1.414 . S
C10234 C10237 1.499 . S
C10235 H10209 0.950 . S
C10235 C10234 1.414 . S
C10235 C10236 1.374 . S
C10236 H10210 0.950 . S
C10236 C10232 1.385 . S
C10236 C10235 1.374 . S
C10237 C10234 1.499 . S
C10237 C10238 1.373 . S
C10237 C10239 1.389 . S
C10238 H10211 0.950 . S
C10238 C10224 1.377 . S
C10238 C10237 1.373 . S
C10239 C10223 1.377 . S
C10239 C10237 1.389 . S
C10239 C10240 1.524 . S
C10240 C10239 1.524 . S
C10240 C10241 1.397 . S
C10240 C10245 1.363 . S
C10241 H10212 0.950 . S
C10241 C10240 1.397 . S
C10241 C10242 1.334 . S
C10242 H10213 0.950 . S
C10242 C10241 1.334 . S
C10242 C10243 1.287 . S
C10243 C10242 1.287 . S
C10243 C10244 1.524 . S
C10243 H10246 0.999 . S
C10244 H10214 0.950 . S
C10244 C10243 1.524 . S
C10244 C10245 1.415 . S
C10245 H10215 0.950 . S
C10245 C10240 1.363 . S
C10245 C10244 1.415 . S
H10246 C10243 0.999 . S
H10247 C10228 0.913 . S
H10248 C10266 0.951 . S
H10249 C10268 0.951 . S
H10250 C10270 0.950 . S
H10251 C10271 0.950 . S
H10252 C10273 0.950 . S
H10253 C10276 0.950 . S
H10254 C10277 0.950 . S
H10255 C10279 0.950 . S
H10256 C10280 0.950 . S
H10257 C10281 0.951 . S
H10258 C10283 0.951 . S
H10259 C10285 0.950 . S
H10260 C10286 0.950 . S
H10261 C10288 0.950 . S
H10262 C10291 0.950 . S
H10263 C10292 0.950 . S
H10264 C10294 0.950 . S
H10265 C10295 0.950 . S
C10266 H10248 0.951 . S
C10266 C10267 1.366 . S
C10266 C10268 1.388 . S
C10267 C10266 1.366 . S
C10267 C10271 1.385 . S
C10268 H10249 0.951 . S
C10268 C10266 1.388 . S
C10268 C10269 1.366 . S
C10269 C10268 1.366 . S
C10269 C10270 1.414 . S
C10269 C10272 1.499 . S
C10270 H10250 0.950 . S
C10270 C10269 1.414 . S
C10270 C10271 1.374 . S
C10271 H10251 0.950 . S
C10271 C10267 1.385 . S
C10271 C10270 1.374 . S
C10272 C10269 1.499 . S
C10272 C10273 1.373 . S
C10272 C10274 1.389 . S
C10273 H10252 0.950 . S
C10273 C10272 1.373 . S
C10273 C10289 1.377 . S
C10274 C10272 1.389 . S
C10274 C10275 1.524 . S
C10274 C10288 1.377 . S
C10275 C10274 1.524 . S
C10275 C10276 1.397 . S
C10275 C10280 1.363 . S
C10276 H10253 0.950 . S
C10276 C10275 1.397 . S
C10276 C10277 1.334 . S
C10277 H10254 0.950 . S
C10277 C10276 1.334 . S
C10277 C10278 1.287 . S
C10278 C10277 1.287 . S
C10278 C10279 1.524 . S
C10278 H10297 0.913 . S
C10279 H10255 0.950 . S
C10279 C10278 1.524 . S
C10279 C10280 1.415 . S
C10280 H10256 0.950 . S
C10280 C10275 1.363 . S
C10280 C10279 1.415 . S
C10281 H10257 0.951 . S
C10281 C10282 1.366 . S
C10281 C10283 1.388 . S
C10282 C10281 1.366 . S
C10282 C10286 1.385 . S
C10283 H10258 0.951 . S
C10283 C10281 1.388 . S
C10283 C10284 1.366 . S
C10284 C10283 1.366 . S
C10284 C10285 1.414 . S
C10284 C10287 1.499 . S
C10285 H10259 0.950 . S
C10285 C10284 1.414 . S
C10285 C10286 1.374 . S
C10286 H10260 0.950 . S
C10286 C10282 1.385 . S
C10286 C10285 1.374 . S
C10287 C10284 1.499 . S
C10287 C10288 1.373 . S
C10287 C10289 1.389 . S
C10288 H10261 0.950 . S
C10288 C10274 1.377 . S
C10288 C10287 1.373 . S
C10289 C10273 1.377 . S
C10289 C10287 1.389 . S
C10289 C10290 1.524 . S
C10290 C10289 1.524 . S
C10290 C10291 1.397 . S
C10290 C10295 1.363 . S
C10291 H10262 0.950 . S
C10291 C10290 1.397 . S
C10291 C10292 1.334 . S
C10292 H10263 0.950 . S
C10292 C10291 1.334 . S
C10292 C10293 1.287 . S
C10293 C10292 1.287 . S
C10293 C10294 1.524 . S
C10293 H10296 0.999 . S
C10294 H10264 0.950 . S
C10294 C10293 1.524 . S
C10294 C10295 1.415 . S
C10295 H10265 0.950 . S
C10295 C10290 1.363 . S
C10295 C10294 1.415 . S
H10296 C10293 0.999 . S
H10297 C10278 0.913 . S
H10298 C10316 0.951 . S
H10299 C10318 0.951 . S
H10300 C10320 0.950 . S
H10301 C10321 0.950 . S
H10302 C10323 0.950 . S
H10303 C10326 0.950 . S
H10304 C10327 0.950 . S
H10305 C10329 0.950 . S
H10306 C10330 0.950 . S
H10307 C10331 0.951 . S
H10308 C10333 0.951 . S
H10309 C10335 0.950 . S
H10310 C10336 0.950 . S
H10311 C10338 0.950 . S
H10312 C10341 0.950 . S
H10313 C10342 0.950 . S
H10314 C10344 0.950 . S
H10315 C10345 0.950 . S
C10316 H10298 0.951 . S
C10316 C10317 1.366 . S
C10316 C10318 1.388 . S
C10317 C10316 1.366 . S
C10317 C10321 1.385 . S
C10318 H10299 0.951 . S
C10318 C10316 1.388 . S
C10318 C10319 1.366 . S
C10319 C10318 1.366 . S
C10319 C10320 1.414 . S
C10319 C10322 1.499 . S
C10320 H10300 0.950 . S
C10320 C10319 1.414 . S
C10320 C10321 1.374 . S
C10321 H10301 0.950 . S
C10321 C10317 1.385 . S
C10321 C10320 1.374 . S
C10322 C10319 1.499 . S
C10322 C10323 1.373 . S
C10322 C10324 1.389 . S
C10323 H10302 0.950 . S
C10323 C10322 1.373 . S
C10323 C10339 1.377 . S
C10324 C10322 1.389 . S
C10324 C10325 1.524 . S
C10324 C10338 1.377 . S
C10325 C10324 1.524 . S
C10325 C10326 1.397 . S
C10325 C10330 1.363 . S
C10326 H10303 0.950 . S
C10326 C10325 1.397 . S
C10326 C10327 1.334 . S
C10327 H10304 0.950 . S
C10327 C10326 1.334 . S
C10327 C10328 1.287 . S
C10328 C10327 1.287 . S
C10328 C10329 1.524 . S
C10328 H10347 0.913 . S
C10329 H10305 0.950 . S
C10329 C10328 1.524 . S
C10329 C10330 1.415 . S
C10330 H10306 0.950 . S
C10330 C10325 1.363 . S
C10330 C10329 1.415 . S
C10331 H10307 0.951 . S
C10331 C10332 1.366 . S
C10331 C10333 1.388 . S
C10332 C10331 1.366 . S
C10332 C10336 1.385 . S
C10333 H10308 0.951 . S
C10333 C10331 1.388 . S
C10333 C10334 1.366 . S
C10334 C10333 1.366 . S
C10334 C10335 1.414 . S
C10334 C10337 1.499 . S
C10335 H10309 0.950 . S
C10335 C10334 1.414 . S
C10335 C10336 1.374 . S
C10336 H10310 0.950 . S
C10336 C10332 1.385 . S
C10336 C10335 1.374 . S
C10337 C10334 1.499 . S
C10337 C10338 1.373 . S
C10337 C10339 1.389 . S
C10338 H10311 0.950 . S
C10338 C10324 1.377 . S
C10338 C10337 1.373 . S
C10339 C10323 1.377 . S
C10339 C10337 1.389 . S
C10339 C10340 1.524 . S
C10340 C10339 1.524 . S
C10340 C10341 1.397 . S
C10340 C10345 1.363 . S
C10341 H10312 0.950 . S
C10341 C10340 1.397 . S
C10341 C10342 1.334 . S
C10342 H10313 0.950 . S
C10342 C10341 1.334 . S
C10342 C10343 1.287 . S
C10343 C10342 1.287 . S
C10343 C10344 1.524 . S
C10343 H10346 0.999 . S
C10344 H10314 0.950 . S
C10344 C10343 1.524 . S
C10344 C10345 1.415 . S
C10345 H10315 0.950 . S
C10345 C10340 1.363 . S
C10345 C10344 1.415 . S
H10346 C10343 0.999 . S
H10347 C10328 0.913 . S
H10348 C10366 0.951 . S
H10349 C10368 0.951 . S
H10350 C10370 0.950 . S
H10351 C10371 0.950 . S
H10352 C10373 0.950 . S
H10353 C10376 0.950 . S
H10354 C10377 0.950 . S
H10355 C10379 0.950 . S
H10356 C10380 0.950 . S
H10357 C10381 0.951 . S
H10358 C10383 0.951 . S
H10359 C10385 0.950 . S
H10360 C10386 0.950 . S
H10361 C10388 0.950 . S
H10362 C10391 0.950 . S
H10363 C10392 0.950 . S
H10364 C10394 0.950 . S
H10365 C10395 0.950 . S
C10366 H10348 0.951 . S
C10366 C10367 1.366 . S
C10366 C10368 1.388 . S
C10367 C10366 1.366 . S
C10367 C10371 1.385 . S
C10368 H10349 0.951 . S
C10368 C10366 1.388 . S
C10368 C10369 1.366 . S
C10369 C10368 1.366 . S
C10369 C10370 1.414 . S
C10369 C10372 1.499 . S
C10370 H10350 0.950 . S
C10370 C10369 1.414 . S
C10370 C10371 1.374 . S
C10371 H10351 0.950 . S
C10371 C10367 1.385 . S
C10371 C10370 1.374 . S
C10372 C10369 1.499 . S
C10372 C10373 1.373 . S
C10372 C10374 1.389 . S
C10373 H10352 0.950 . S
C10373 C10372 1.373 . S
C10373 C10389 1.377 . S
C10374 C10372 1.389 . S
C10374 C10375 1.524 . S
C10374 C10388 1.377 . S
C10375 C10374 1.524 . S
C10375 C10376 1.397 . S
C10375 C10380 1.363 . S
C10376 H10353 0.950 . S
C10376 C10375 1.397 . S
C10376 C10377 1.334 . S
C10377 H10354 0.950 . S
C10377 C10376 1.334 . S
C10377 C10378 1.287 . S
C10378 C10377 1.287 . S
C10378 C10379 1.524 . S
C10378 H10397 0.913 . S
C10379 H10355 0.950 . S
C10379 C10378 1.524 . S
C10379 C10380 1.415 . S
C10380 H10356 0.950 . S
C10380 C10375 1.363 . S
C10380 C10379 1.415 . S
C10381 H10357 0.951 . S
C10381 C10382 1.366 . S
C10381 C10383 1.388 . S
C10382 C10381 1.366 . S
C10382 C10386 1.385 . S
C10383 H10358 0.951 . S
C10383 C10381 1.388 . S
C10383 C10384 1.366 . S
C10384 C10383 1.366 . S
C10384 C10385 1.414 . S
C10384 C10387 1.499 . S
C10385 H10359 0.950 . S
C10385 C10384 1.414 . S
C10385 C10386 1.374 . S
C10386 H10360 0.950 . S
C10386 C10382 1.385 . S
C10386 C10385 1.374 . S
C10387 C10384 1.499 . S
C10387 C10388 1.373 . S
C10387 C10389 1.389 . S
C10388 H10361 0.950 . S
C10388 C10374 1.377 . S
C10388 C10387 1.373 . S
C10389 C10373 1.377 . S
C10389 C10387 1.389 . S
C10389 C10390 1.524 . S
C10390 C10389 1.524 . S
C10390 C10391 1.397 . S
C10390 C10395 1.363 . S
C10391 H10362 0.950 . S
C10391 C10390 1.397 . S
C10391 C10392 1.334 . S
C10392 H10363 0.950 . S
C10392 C10391 1.334 . S
C10392 C10393 1.287 . S
C10393 C10392 1.287 . S
C10393 C10394 1.524 . S
C10393 H10396 0.999 . S
C10394 H10364 0.950 . S
C10394 C10393 1.524 . S
C10394 C10395 1.415 . S
C10395 H10365 0.950 . S
C10395 C10390 1.363 . S
C10395 C10394 1.415 . S
H10396 C10393 0.999 . S
H10397 C10378 0.913 . S
H10398 C10416 0.951 . S
H10399 C10418 0.951 . S
H10400 C10420 0.950 . S
H10401 C10421 0.950 . S
H10402 C10423 0.950 . S
H10403 C10426 0.950 . S
H10404 C10427 0.950 . S
H10405 C10429 0.950 . S
H10406 C10430 0.950 . S
H10407 C10431 0.951 . S
H10408 C10433 0.951 . S
H10409 C10435 0.950 . S
H10410 C10436 0.950 . S
H10411 C10438 0.950 . S
H10412 C10441 0.950 . S
H10413 C10442 0.950 . S
H10414 C10444 0.950 . S
H10415 C10445 0.950 . S
C10416 H10398 0.951 . S
C10416 C10417 1.366 . S
C10416 C10418 1.388 . S
C10417 C10416 1.366 . S
C10417 C10421 1.385 . S
C10418 H10399 0.951 . S
C10418 C10416 1.388 . S
C10418 C10419 1.366 . S
C10419 C10418 1.366 . S
C10419 C10420 1.414 . S
C10419 C10422 1.499 . S
C10420 H10400 0.950 . S
C10420 C10419 1.414 . S
C10420 C10421 1.374 . S
C10421 H10401 0.950 . S
C10421 C10417 1.385 . S
C10421 C10420 1.374 . S
C10422 C10419 1.499 . S
C10422 C10423 1.373 . S
C10422 C10424 1.389 . S
C10423 H10402 0.950 . S
C10423 C10422 1.373 . S
C10423 C10439 1.377 . S
C10424 C10422 1.389 . S
C10424 C10425 1.524 . S
C10424 C10438 1.377 . S
C10425 C10424 1.524 . S
C10425 C10426 1.397 . S
C10425 C10430 1.363 . S
C10426 H10403 0.950 . S
C10426 C10425 1.397 . S
C10426 C10427 1.334 . S
C10427 H10404 0.950 . S
C10427 C10426 1.334 . S
C10427 C10428 1.287 . S
C10428 C10427 1.287 . S
C10428 C10429 1.524 . S
C10428 H10447 0.913 . S
C10429 H10405 0.950 . S
C10429 C10428 1.524 . S
C10429 C10430 1.415 . S
C10430 H10406 0.950 . S
C10430 C10425 1.363 . S
C10430 C10429 1.415 . S
C10431 H10407 0.951 . S
C10431 C10432 1.366 . S
C10431 C10433 1.388 . S
C10432 C10431 1.366 . S
C10432 C10436 1.385 . S
C10433 H10408 0.951 . S
C10433 C10431 1.388 . S
C10433 C10434 1.366 . S
C10434 C10433 1.366 . S
C10434 C10435 1.414 . S
C10434 C10437 1.499 . S
C10435 H10409 0.950 . S
C10435 C10434 1.414 . S
C10435 C10436 1.374 . S
C10436 H10410 0.950 . S
C10436 C10432 1.385 . S
C10436 C10435 1.374 . S
C10437 C10434 1.499 . S
C10437 C10438 1.373 . S
C10437 C10439 1.389 . S
C10438 H10411 0.950 . S
C10438 C10424 1.377 . S
C10438 C10437 1.373 . S
C10439 C10423 1.377 . S
C10439 C10437 1.389 . S
C10439 C10440 1.524 . S
C10440 C10439 1.524 . S
C10440 C10441 1.397 . S
C10440 C10445 1.363 . S
C10441 H10412 0.950 . S
C10441 C10440 1.397 . S
C10441 C10442 1.334 . S
C10442 H10413 0.950 . S
C10442 C10441 1.334 . S
C10442 C10443 1.287 . S
C10443 C10442 1.287 . S
C10443 C10444 1.524 . S
C10443 H10446 0.999 . S
C10444 H10414 0.950 . S
C10444 C10443 1.524 . S
C10444 C10445 1.415 . S
C10445 H10415 0.950 . S
C10445 C10440 1.363 . S
C10445 C10444 1.415 . S
H10446 C10443 0.999 . S
H10447 C10428 0.913 . S
H10448 C10466 0.951 . S
H10449 C10468 0.951 . S
H10450 C10470 0.950 . S
H10451 C10471 0.950 . S
H10452 C10473 0.950 . S
H10453 C10476 0.950 . S
H10454 C10477 0.950 . S
H10455 C10479 0.950 . S
H10456 C10480 0.950 . S
H10457 C10481 0.951 . S
H10458 C10483 0.951 . S
H10459 C10485 0.950 . S
H10460 C10486 0.950 . S
H10461 C10488 0.950 . S
H10462 C10491 0.950 . S
H10463 C10492 0.950 . S
H10464 C10494 0.950 . S
H10465 C10495 0.950 . S
C10466 H10448 0.951 . S
C10466 C10467 1.366 . S
C10466 C10468 1.388 . S
C10467 C10466 1.366 . S
C10467 C10471 1.385 . S
C10468 H10449 0.951 . S
C10468 C10466 1.388 . S
C10468 C10469 1.366 . S
C10469 C10468 1.366 . S
C10469 C10470 1.414 . S
C10469 C10472 1.499 . S
C10470 H10450 0.950 . S
C10470 C10469 1.414 . S
C10470 C10471 1.374 . S
C10471 H10451 0.950 . S
C10471 C10467 1.385 . S
C10471 C10470 1.374 . S
C10472 C10469 1.499 . S
C10472 C10473 1.373 . S
C10472 C10474 1.389 . S
C10473 H10452 0.950 . S
C10473 C10472 1.373 . S
C10473 C10489 1.377 . S
C10474 C10472 1.389 . S
C10474 C10475 1.524 . S
C10474 C10488 1.377 . S
C10475 C10474 1.524 . S
C10475 C10476 1.397 . S
C10475 C10480 1.363 . S
C10476 H10453 0.950 . S
C10476 C10475 1.397 . S
C10476 C10477 1.334 . S
C10477 H10454 0.950 . S
C10477 C10476 1.334 . S
C10477 C10478 1.287 . S
C10478 C10477 1.287 . S
C10478 C10479 1.524 . S
C10478 H10497 0.913 . S
C10479 H10455 0.950 . S
C10479 C10478 1.524 . S
C10479 C10480 1.415 . S
C10480 H10456 0.950 . S
C10480 C10475 1.363 . S
C10480 C10479 1.415 . S
C10481 H10457 0.951 . S
C10481 C10482 1.366 . S
C10481 C10483 1.388 . S
C10482 C10481 1.366 . S
C10482 C10486 1.385 . S
C10483 H10458 0.951 . S
C10483 C10481 1.388 . S
C10483 C10484 1.366 . S
C10484 C10483 1.366 . S
C10484 C10485 1.414 . S
C10484 C10487 1.499 . S
C10485 H10459 0.950 . S
C10485 C10484 1.414 . S
C10485 C10486 1.374 . S
C10486 H10460 0.950 . S
C10486 C10482 1.385 . S
C10486 C10485 1.374 . S
C10487 C10484 1.499 . S
C10487 C10488 1.373 . S
C10487 C10489 1.389 . S
C10488 H10461 0.950 . S
C10488 C10474 1.377 . S
C10488 C10487 1.373 . S
C10489 C10473 1.377 . S
C10489 C10487 1.389 . S
C10489 C10490 1.524 . S
C10490 C10489 1.524 . S
C10490 C10491 1.397 . S
C10490 C10495 1.363 . S
C10491 H10462 0.950 . S
C10491 C10490 1.397 . S
C10491 C10492 1.334 . S
C10492 H10463 0.950 . S
C10492 C10491 1.334 . S
C10492 C10493 1.287 . S
C10493 C10492 1.287 . S
C10493 C10494 1.524 . S
C10493 H10496 0.999 . S
C10494 H10464 0.950 . S
C10494 C10493 1.524 . S
C10494 C10495 1.415 . S
C10495 H10465 0.950 . S
C10495 C10490 1.363 . S
C10495 C10494 1.415 . S
H10496 C10493 0.999 . S
H10497 C10478 0.913 . S
H10498 C10516 0.951 . S
H10499 C10518 0.951 . S
H10500 C10520 0.950 . S
H10501 C10521 0.950 . S
H10502 C10523 0.950 . S
H10503 C10526 0.950 . S
H10504 C10527 0.950 . S
H10505 C10529 0.950 . S
H10506 C10530 0.950 . S
H10507 C10531 0.951 . S
H10508 C10533 0.951 . S
H10509 C10535 0.950 . S
H10510 C10536 0.950 . S
H10511 C10538 0.950 . S
H10512 C10541 0.950 . S
H10513 C10542 0.950 . S
H10514 C10544 0.950 . S
H10515 C10545 0.950 . S
C10516 H10498 0.951 . S
C10516 C10517 1.366 . S
C10516 C10518 1.388 . S
C10517 C10516 1.366 . S
C10517 C10521 1.385 . S
C10518 H10499 0.951 . S
C10518 C10516 1.388 . S
C10518 C10519 1.366 . S
C10519 C10518 1.366 . S
C10519 C10520 1.414 . S
C10519 C10522 1.499 . S
C10520 H10500 0.950 . S
C10520 C10519 1.414 . S
C10520 C10521 1.374 . S
C10521 H10501 0.950 . S
C10521 C10517 1.385 . S
C10521 C10520 1.374 . S
C10522 C10519 1.499 . S
C10522 C10523 1.373 . S
C10522 C10524 1.389 . S
C10523 H10502 0.950 . S
C10523 C10522 1.373 . S
C10523 C10539 1.377 . S
C10524 C10522 1.389 . S
C10524 C10525 1.524 . S
C10524 C10538 1.377 . S
C10525 C10524 1.524 . S
C10525 C10526 1.397 . S
C10525 C10530 1.363 . S
C10526 H10503 0.950 . S
C10526 C10525 1.397 . S
C10526 C10527 1.334 . S
C10527 H10504 0.950 . S
C10527 C10526 1.334 . S
C10527 C10528 1.287 . S
C10528 C10527 1.287 . S
C10528 C10529 1.524 . S
C10528 H10547 0.913 . S
C10529 H10505 0.950 . S
C10529 C10528 1.524 . S
C10529 C10530 1.415 . S
C10530 H10506 0.950 . S
C10530 C10525 1.363 . S
C10530 C10529 1.415 . S
C10531 H10507 0.951 . S
C10531 C10532 1.366 . S
C10531 C10533 1.388 . S
C10532 C10531 1.366 . S
C10532 C10536 1.385 . S
C10533 H10508 0.951 . S
C10533 C10531 1.388 . S
C10533 C10534 1.366 . S
C10534 C10533 1.366 . S
C10534 C10535 1.414 . S
C10534 C10537 1.499 . S
C10535 H10509 0.950 . S
C10535 C10534 1.414 . S
C10535 C10536 1.374 . S
C10536 H10510 0.950 . S
C10536 C10532 1.385 . S
C10536 C10535 1.374 . S
C10537 C10534 1.499 . S
C10537 C10538 1.373 . S
C10537 C10539 1.389 . S
C10538 H10511 0.950 . S
C10538 C10524 1.377 . S
C10538 C10537 1.373 . S
C10539 C10523 1.377 . S
C10539 C10537 1.389 . S
C10539 C10540 1.524 . S
C10540 C10539 1.524 . S
C10540 C10541 1.397 . S
C10540 C10545 1.363 . S
C10541 H10512 0.950 . S
C10541 C10540 1.397 . S
C10541 C10542 1.334 . S
C10542 H10513 0.950 . S
C10542 C10541 1.334 . S
C10542 C10543 1.287 . S
C10543 C10542 1.287 . S
C10543 C10544 1.524 . S
C10543 H10546 0.999 . S
C10544 H10514 0.950 . S
C10544 C10543 1.524 . S
C10544 C10545 1.415 . S
C10545 H10515 0.950 . S
C10545 C10540 1.363 . S
C10545 C10544 1.415 . S
H10546 C10543 0.999 . S
H10547 C10528 0.913 . S
H10548 C10566 0.951 . S
H10549 C10568 0.951 . S
H10550 C10570 0.950 . S
H10551 C10571 0.950 . S
H10552 C10573 0.950 . S
H10553 C10576 0.950 . S
H10554 C10577 0.950 . S
H10555 C10579 0.950 . S
H10556 C10580 0.950 . S
H10557 C10581 0.951 . S
H10558 C10583 0.951 . S
H10559 C10585 0.950 . S
H10560 C10586 0.950 . S
H10561 C10588 0.950 . S
H10562 C10591 0.950 . S
H10563 C10592 0.950 . S
H10564 C10594 0.950 . S
H10565 C10595 0.950 . S
C10566 H10548 0.951 . S
C10566 C10567 1.366 . S
C10566 C10568 1.388 . S
C10567 C10566 1.366 . S
C10567 C10571 1.385 . S
C10568 H10549 0.951 . S
C10568 C10566 1.388 . S
C10568 C10569 1.366 . S
C10569 C10568 1.366 . S
C10569 C10570 1.414 . S
C10569 C10572 1.499 . S
C10570 H10550 0.950 . S
C10570 C10569 1.414 . S
C10570 C10571 1.374 . S
C10571 H10551 0.950 . S
C10571 C10567 1.385 . S
C10571 C10570 1.374 . S
C10572 C10569 1.499 . S
C10572 C10573 1.373 . S
C10572 C10574 1.389 . S
C10573 H10552 0.950 . S
C10573 C10572 1.373 . S
C10573 C10589 1.377 . S
C10574 C10572 1.389 . S
C10574 C10575 1.524 . S
C10574 C10588 1.377 . S
C10575 C10574 1.524 . S
C10575 C10576 1.397 . S
C10575 C10580 1.363 . S
C10576 H10553 0.950 . S
C10576 C10575 1.397 . S
C10576 C10577 1.334 . S
C10577 H10554 0.950 . S
C10577 C10576 1.334 . S
C10577 C10578 1.287 . S
C10578 C10577 1.287 . S
C10578 C10579 1.524 . S
C10578 H10597 0.913 . S
C10579 H10555 0.950 . S
C10579 C10578 1.524 . S
C10579 C10580 1.415 . S
C10580 H10556 0.950 . S
C10580 C10575 1.363 . S
C10580 C10579 1.415 . S
C10581 H10557 0.951 . S
C10581 C10582 1.366 . S
C10581 C10583 1.388 . S
C10582 C10581 1.366 . S
C10582 C10586 1.385 . S
C10583 H10558 0.951 . S
C10583 C10581 1.388 . S
C10583 C10584 1.366 . S
C10584 C10583 1.366 . S
C10584 C10585 1.414 . S
C10584 C10587 1.499 . S
C10585 H10559 0.950 . S
C10585 C10584 1.414 . S
C10585 C10586 1.374 . S
C10586 H10560 0.950 . S
C10586 C10582 1.385 . S
C10586 C10585 1.374 . S
C10587 C10584 1.499 . S
C10587 C10588 1.373 . S
C10587 C10589 1.389 . S
C10588 H10561 0.950 . S
C10588 C10574 1.377 . S
C10588 C10587 1.373 . S
C10589 C10573 1.377 . S
C10589 C10587 1.389 . S
C10589 C10590 1.524 . S
C10590 C10589 1.524 . S
C10590 C10591 1.397 . S
C10590 C10595 1.363 . S
C10591 H10562 0.950 . S
C10591 C10590 1.397 . S
C10591 C10592 1.334 . S
C10592 H10563 0.950 . S
C10592 C10591 1.334 . S
C10592 C10593 1.287 . S
C10593 C10592 1.287 . S
C10593 C10594 1.524 . S
C10593 H10596 0.999 . S
C10594 H10564 0.950 . S
C10594 C10593 1.524 . S
C10594 C10595 1.415 . S
C10595 H10565 0.950 . S
C10595 C10590 1.363 . S
C10595 C10594 1.415 . S
H10596 C10593 0.999 . S
H10597 C10578 0.913 . S
H10598 C10616 0.951 . S
H10599 C10618 0.951 . S
H10600 C10620 0.950 . S
H10601 C10621 0.950 . S
H10602 C10623 0.950 . S
H10603 C10626 0.950 . S
H10604 C10627 0.950 . S
H10605 C10629 0.950 . S
H10606 C10630 0.950 . S
H10607 C10631 0.951 . S
H10608 C10633 0.951 . S
H10609 C10635 0.950 . S
H10610 C10636 0.950 . S
H10611 C10638 0.950 . S
H10612 C10641 0.950 . S
H10613 C10642 0.950 . S
H10614 C10644 0.950 . S
H10615 C10645 0.950 . S
C10616 H10598 0.951 . S
C10616 C10617 1.366 . S
C10616 C10618 1.388 . S
C10617 C10616 1.366 . S
C10617 C10621 1.385 . S
C10618 H10599 0.951 . S
C10618 C10616 1.388 . S
C10618 C10619 1.366 . S
C10619 C10618 1.366 . S
C10619 C10620 1.414 . S
C10619 C10622 1.499 . S
C10620 H10600 0.950 . S
C10620 C10619 1.414 . S
C10620 C10621 1.374 . S
C10621 H10601 0.950 . S
C10621 C10617 1.385 . S
C10621 C10620 1.374 . S
C10622 C10619 1.499 . S
C10622 C10623 1.373 . S
C10622 C10624 1.389 . S
C10623 H10602 0.950 . S
C10623 C10622 1.373 . S
C10623 C10639 1.377 . S
C10624 C10622 1.389 . S
C10624 C10625 1.524 . S
C10624 C10638 1.377 . S
C10625 C10624 1.524 . S
C10625 C10626 1.397 . S
C10625 C10630 1.363 . S
C10626 H10603 0.950 . S
C10626 C10625 1.397 . S
C10626 C10627 1.334 . S
C10627 H10604 0.950 . S
C10627 C10626 1.334 . S
C10627 C10628 1.287 . S
C10628 C10627 1.287 . S
C10628 C10629 1.524 . S
C10628 H10647 0.913 . S
C10629 H10605 0.950 . S
C10629 C10628 1.524 . S
C10629 C10630 1.415 . S
C10630 H10606 0.950 . S
C10630 C10625 1.363 . S
C10630 C10629 1.415 . S
C10631 H10607 0.951 . S
C10631 C10632 1.366 . S
C10631 C10633 1.388 . S
C10632 C10631 1.366 . S
C10632 C10636 1.385 . S
C10633 H10608 0.951 . S
C10633 C10631 1.388 . S
C10633 C10634 1.366 . S
C10634 C10633 1.366 . S
C10634 C10635 1.414 . S
C10634 C10637 1.499 . S
C10635 H10609 0.950 . S
C10635 C10634 1.414 . S
C10635 C10636 1.374 . S
C10636 H10610 0.950 . S
C10636 C10632 1.385 . S
C10636 C10635 1.374 . S
C10637 C10634 1.499 . S
C10637 C10638 1.373 . S
C10637 C10639 1.389 . S
C10638 H10611 0.950 . S
C10638 C10624 1.377 . S
C10638 C10637 1.373 . S
C10639 C10623 1.377 . S
C10639 C10637 1.389 . S
C10639 C10640 1.524 . S
C10640 C10639 1.524 . S
C10640 C10641 1.397 . S
C10640 C10645 1.363 . S
C10641 H10612 0.950 . S
C10641 C10640 1.397 . S
C10641 C10642 1.334 . S
C10642 H10613 0.950 . S
C10642 C10641 1.334 . S
C10642 C10643 1.287 . S
C10643 C10642 1.287 . S
C10643 C10644 1.524 . S
C10643 H10646 0.999 . S
C10644 H10614 0.950 . S
C10644 C10643 1.524 . S
C10644 C10645 1.415 . S
C10645 H10615 0.950 . S
C10645 C10640 1.363 . S
C10645 C10644 1.415 . S
H10646 C10643 0.999 . S
H10647 C10628 0.913 . S
H10648 C10666 0.951 . S
H10649 C10668 0.951 . S
H10650 C10670 0.950 . S
H10651 C10671 0.950 . S
H10652 C10673 0.950 . S
H10653 C10676 0.950 . S
H10654 C10677 0.950 . S
H10655 C10679 0.950 . S
H10656 C10680 0.950 . S
H10657 C10681 0.951 . S
H10658 C10683 0.951 . S
H10659 C10685 0.950 . S
H10660 C10686 0.950 . S
H10661 C10688 0.950 . S
H10662 C10691 0.950 . S
H10663 C10692 0.950 . S
H10664 C10694 0.950 . S
H10665 C10695 0.950 . S
C10666 H10648 0.951 . S
C10666 C10667 1.366 . S
C10666 C10668 1.388 . S
C10667 C10666 1.366 . S
C10667 C10671 1.385 . S
C10668 H10649 0.951 . S
C10668 C10666 1.388 . S
C10668 C10669 1.366 . S
C10669 C10668 1.366 . S
C10669 C10670 1.414 . S
C10669 C10672 1.499 . S
C10670 H10650 0.950 . S
C10670 C10669 1.414 . S
C10670 C10671 1.374 . S
C10671 H10651 0.950 . S
C10671 C10667 1.385 . S
C10671 C10670 1.374 . S
C10672 C10669 1.499 . S
C10672 C10673 1.373 . S
C10672 C10674 1.389 . S
C10673 H10652 0.950 . S
C10673 C10672 1.373 . S
C10673 C10689 1.377 . S
C10674 C10672 1.389 . S
C10674 C10675 1.524 . S
C10674 C10688 1.377 . S
C10675 C10674 1.524 . S
C10675 C10676 1.397 . S
C10675 C10680 1.363 . S
C10676 H10653 0.950 . S
C10676 C10675 1.397 . S
C10676 C10677 1.334 . S
C10677 H10654 0.950 . S
C10677 C10676 1.334 . S
C10677 C10678 1.287 . S
C10678 C10677 1.287 . S
C10678 C10679 1.524 . S
C10678 H10697 0.913 . S
C10679 H10655 0.950 . S
C10679 C10678 1.524 . S
C10679 C10680 1.415 . S
C10680 H10656 0.950 . S
C10680 C10675 1.363 . S
C10680 C10679 1.415 . S
C10681 H10657 0.951 . S
C10681 C10682 1.366 . S
C10681 C10683 1.388 . S
C10682 C10681 1.366 . S
C10682 C10686 1.385 . S
C10683 H10658 0.951 . S
C10683 C10681 1.388 . S
C10683 C10684 1.366 . S
C10684 C10683 1.366 . S
C10684 C10685 1.414 . S
C10684 C10687 1.499 . S
C10685 H10659 0.950 . S
C10685 C10684 1.414 . S
C10685 C10686 1.374 . S
C10686 H10660 0.950 . S
C10686 C10682 1.385 . S
C10686 C10685 1.374 . S
C10687 C10684 1.499 . S
C10687 C10688 1.373 . S
C10687 C10689 1.389 . S
C10688 H10661 0.950 . S
C10688 C10674 1.377 . S
C10688 C10687 1.373 . S
C10689 C10673 1.377 . S
C10689 C10687 1.389 . S
C10689 C10690 1.524 . S
C10690 C10689 1.524 . S
C10690 C10691 1.397 . S
C10690 C10695 1.363 . S
C10691 H10662 0.950 . S
C10691 C10690 1.397 . S
C10691 C10692 1.334 . S
C10692 H10663 0.950 . S
C10692 C10691 1.334 . S
C10692 C10693 1.287 . S
C10693 C10692 1.287 . S
C10693 C10694 1.524 . S
C10693 H10696 0.999 . S
C10694 H10664 0.950 . S
C10694 C10693 1.524 . S
C10694 C10695 1.415 . S
C10695 H10665 0.950 . S
C10695 C10690 1.363 . S
C10695 C10694 1.415 . S
H10696 C10693 0.999 . S
H10697 C10678 0.913 . S
H10698 C10716 0.951 . S
H10699 C10718 0.951 . S
H10700 C10720 0.950 . S
H10701 C10721 0.950 . S
H10702 C10723 0.950 . S
H10703 C10726 0.950 . S
H10704 C10727 0.950 . S
H10705 C10729 0.950 . S
H10706 C10730 0.950 . S
H10707 C10731 0.951 . S
H10708 C10733 0.951 . S
H10709 C10735 0.950 . S
H10710 C10736 0.950 . S
H10711 C10738 0.950 . S
H10712 C10741 0.950 . S
H10713 C10742 0.950 . S
H10714 C10744 0.950 . S
H10715 C10745 0.950 . S
C10716 H10698 0.951 . S
C10716 C10717 1.366 . S
C10716 C10718 1.388 . S
C10717 C10716 1.366 . S
C10717 C10721 1.385 . S
C10718 H10699 0.951 . S
C10718 C10716 1.388 . S
C10718 C10719 1.366 . S
C10719 C10718 1.366 . S
C10719 C10720 1.414 . S
C10719 C10722 1.499 . S
C10720 H10700 0.950 . S
C10720 C10719 1.414 . S
C10720 C10721 1.374 . S
C10721 H10701 0.950 . S
C10721 C10717 1.385 . S
C10721 C10720 1.374 . S
C10722 C10719 1.499 . S
C10722 C10723 1.373 . S
C10722 C10724 1.389 . S
C10723 H10702 0.950 . S
C10723 C10722 1.373 . S
C10723 C10739 1.377 . S
C10724 C10722 1.389 . S
C10724 C10725 1.524 . S
C10724 C10738 1.377 . S
C10725 C10724 1.524 . S
C10725 C10726 1.397 . S
C10725 C10730 1.363 . S
C10726 H10703 0.950 . S
C10726 C10725 1.397 . S
C10726 C10727 1.334 . S
C10727 H10704 0.950 . S
C10727 C10726 1.334 . S
C10727 C10728 1.287 . S
C10728 C10727 1.287 . S
C10728 C10729 1.524 . S
C10728 H10747 0.913 . S
C10729 H10705 0.950 . S
C10729 C10728 1.524 . S
C10729 C10730 1.415 . S
C10730 H10706 0.950 . S
C10730 C10725 1.363 . S
C10730 C10729 1.415 . S
C10731 H10707 0.951 . S
C10731 C10732 1.366 . S
C10731 C10733 1.388 . S
C10732 C10731 1.366 . S
C10732 C10736 1.385 . S
C10733 H10708 0.951 . S
C10733 C10731 1.388 . S
C10733 C10734 1.366 . S
C10734 C10733 1.366 . S
C10734 C10735 1.414 . S
C10734 C10737 1.499 . S
C10735 H10709 0.950 . S
C10735 C10734 1.414 . S
C10735 C10736 1.374 . S
C10736 H10710 0.950 . S
C10736 C10732 1.385 . S
C10736 C10735 1.374 . S
C10737 C10734 1.499 . S
C10737 C10738 1.373 . S
C10737 C10739 1.389 . S
C10738 H10711 0.950 . S
C10738 C10724 1.377 . S
C10738 C10737 1.373 . S
C10739 C10723 1.377 . S
C10739 C10737 1.389 . S
C10739 C10740 1.524 . S
C10740 C10739 1.524 . S
C10740 C10741 1.397 . S
C10740 C10745 1.363 . S
C10741 H10712 0.950 . S
C10741 C10740 1.397 . S
C10741 C10742 1.334 . S
C10742 H10713 0.950 . S
C10742 C10741 1.334 . S
C10742 C10743 1.287 . S
C10743 C10742 1.287 . S
C10743 C10744 1.524 . S
C10743 H10746 0.999 . S
C10744 H10714 0.950 . S
C10744 C10743 1.524 . S
C10744 C10745 1.415 . S
C10745 H10715 0.950 . S
C10745 C10740 1.363 . S
C10745 C10744 1.415 . S
H10746 C10743 0.999 . S
H10747 C10728 0.913 . S
H10748 C10766 0.951 . S
H10749 C10768 0.951 . S
H10750 C10770 0.950 . S
H10751 C10771 0.950 . S
H10752 C10773 0.950 . S
H10753 C10776 0.950 . S
H10754 C10777 0.950 . S
H10755 C10779 0.950 . S
H10756 C10780 0.950 . S
H10757 C10781 0.951 . S
H10758 C10783 0.951 . S
H10759 C10785 0.950 . S
H10760 C10786 0.950 . S
H10761 C10788 0.950 . S
H10762 C10791 0.950 . S
H10763 C10792 0.950 . S
H10764 C10794 0.950 . S
H10765 C10795 0.950 . S
C10766 H10748 0.951 . S
C10766 C10767 1.366 . S
C10766 C10768 1.388 . S
C10767 C10766 1.366 . S
C10767 C10771 1.385 . S
C10768 H10749 0.951 . S
C10768 C10766 1.388 . S
C10768 C10769 1.366 . S
C10769 C10768 1.366 . S
C10769 C10770 1.414 . S
C10769 C10772 1.499 . S
C10770 H10750 0.950 . S
C10770 C10769 1.414 . S
C10770 C10771 1.374 . S
C10771 H10751 0.950 . S
C10771 C10767 1.385 . S
C10771 C10770 1.374 . S
C10772 C10769 1.499 . S
C10772 C10773 1.373 . S
C10772 C10774 1.389 . S
C10773 H10752 0.950 . S
C10773 C10772 1.373 . S
C10773 C10789 1.377 . S
C10774 C10772 1.389 . S
C10774 C10775 1.524 . S
C10774 C10788 1.377 . S
C10775 C10774 1.524 . S
C10775 C10776 1.397 . S
C10775 C10780 1.363 . S
C10776 H10753 0.950 . S
C10776 C10775 1.397 . S
C10776 C10777 1.334 . S
C10777 H10754 0.950 . S
C10777 C10776 1.334 . S
C10777 C10778 1.287 . S
C10778 C10777 1.287 . S
C10778 C10779 1.524 . S
C10778 H10797 0.913 . S
C10779 H10755 0.950 . S
C10779 C10778 1.524 . S
C10779 C10780 1.415 . S
C10780 H10756 0.950 . S
C10780 C10775 1.363 . S
C10780 C10779 1.415 . S
C10781 H10757 0.951 . S
C10781 C10782 1.366 . S
C10781 C10783 1.388 . S
C10782 C10781 1.366 . S
C10782 C10786 1.385 . S
C10783 H10758 0.951 . S
C10783 C10781 1.388 . S
C10783 C10784 1.366 . S
C10784 C10783 1.366 . S
C10784 C10785 1.414 . S
C10784 C10787 1.499 . S
C10785 H10759 0.950 . S
C10785 C10784 1.414 . S
C10785 C10786 1.374 . S
C10786 H10760 0.950 . S
C10786 C10782 1.385 . S
C10786 C10785 1.374 . S
C10787 C10784 1.499 . S
C10787 C10788 1.373 . S
C10787 C10789 1.389 . S
C10788 H10761 0.950 . S
C10788 C10774 1.377 . S
C10788 C10787 1.373 . S
C10789 C10773 1.377 . S
C10789 C10787 1.389 . S
C10789 C10790 1.524 . S
C10790 C10789 1.524 . S
C10790 C10791 1.397 . S
C10790 C10795 1.363 . S
C10791 H10762 0.950 . S
C10791 C10790 1.397 . S
C10791 C10792 1.334 . S
C10792 H10763 0.950 . S
C10792 C10791 1.334 . S
C10792 C10793 1.287 . S
C10793 C10792 1.287 . S
C10793 C10794 1.524 . S
C10793 H10796 0.999 . S
C10794 H10764 0.950 . S
C10794 C10793 1.524 . S
C10794 C10795 1.415 . S
C10795 H10765 0.950 . S
C10795 C10790 1.363 . S
C10795 C10794 1.415 . S
H10796 C10793 0.999 . S
H10797 C10778 0.913 . S
H10798 C10816 0.951 . S
H10799 C10818 0.951 . S
H10800 C10820 0.950 . S
H10801 C10821 0.950 . S
H10802 C10823 0.950 . S
H10803 C10826 0.950 . S
H10804 C10827 0.950 . S
H10805 C10829 0.950 . S
H10806 C10830 0.950 . S
H10807 C10831 0.951 . S
H10808 C10833 0.951 . S
H10809 C10835 0.950 . S
H10810 C10836 0.950 . S
H10811 C10838 0.950 . S
H10812 C10841 0.950 . S
H10813 C10842 0.950 . S
H10814 C10844 0.950 . S
H10815 C10845 0.950 . S
C10816 H10798 0.951 . S
C10816 C10817 1.366 . S
C10816 C10818 1.388 . S
C10817 C10816 1.366 . S
C10817 C10821 1.385 . S
C10818 H10799 0.951 . S
C10818 C10816 1.388 . S
C10818 C10819 1.366 . S
C10819 C10818 1.366 . S
C10819 C10820 1.414 . S
C10819 C10822 1.499 . S
C10820 H10800 0.950 . S
C10820 C10819 1.414 . S
C10820 C10821 1.374 . S
C10821 H10801 0.950 . S
C10821 C10817 1.385 . S
C10821 C10820 1.374 . S
C10822 C10819 1.499 . S
C10822 C10823 1.373 . S
C10822 C10824 1.389 . S
C10823 H10802 0.950 . S
C10823 C10822 1.373 . S
C10823 C10839 1.377 . S
C10824 C10822 1.389 . S
C10824 C10825 1.524 . S
C10824 C10838 1.377 . S
C10825 C10824 1.524 . S
C10825 C10826 1.397 . S
C10825 C10830 1.363 . S
C10826 H10803 0.950 . S
C10826 C10825 1.397 . S
C10826 C10827 1.334 . S
C10827 H10804 0.950 . S
C10827 C10826 1.334 . S
C10827 C10828 1.287 . S
C10828 C10827 1.287 . S
C10828 C10829 1.524 . S
C10828 H10847 0.913 . S
C10829 H10805 0.950 . S
C10829 C10828 1.524 . S
C10829 C10830 1.415 . S
C10830 H10806 0.950 . S
C10830 C10825 1.363 . S
C10830 C10829 1.415 . S
C10831 H10807 0.951 . S
C10831 C10832 1.366 . S
C10831 C10833 1.388 . S
C10832 C10831 1.366 . S
C10832 C10836 1.385 . S
C10833 H10808 0.951 . S
C10833 C10831 1.388 . S
C10833 C10834 1.366 . S
C10834 C10833 1.366 . S
C10834 C10835 1.414 . S
C10834 C10837 1.499 . S
C10835 H10809 0.950 . S
C10835 C10834 1.414 . S
C10835 C10836 1.374 . S
C10836 H10810 0.950 . S
C10836 C10832 1.385 . S
C10836 C10835 1.374 . S
C10837 C10834 1.499 . S
C10837 C10838 1.373 . S
C10837 C10839 1.389 . S
C10838 H10811 0.950 . S
C10838 C10824 1.377 . S
C10838 C10837 1.373 . S
C10839 C10823 1.377 . S
C10839 C10837 1.389 . S
C10839 C10840 1.524 . S
C10840 C10839 1.524 . S
C10840 C10841 1.397 . S
C10840 C10845 1.363 . S
C10841 H10812 0.950 . S
C10841 C10840 1.397 . S
C10841 C10842 1.334 . S
C10842 H10813 0.950 . S
C10842 C10841 1.334 . S
C10842 C10843 1.287 . S
C10843 C10842 1.287 . S
C10843 C10844 1.524 . S
C10843 H10846 0.999 . S
C10844 H10814 0.950 . S
C10844 C10843 1.524 . S
C10844 C10845 1.415 . S
C10845 H10815 0.950 . S
C10845 C10840 1.363 . S
C10845 C10844 1.415 . S
H10846 C10843 0.999 . S
H10847 C10828 0.913 . S
C3667 C1781 1.660 . S
C3682 C1951 1.694 . S
C3717 C981 1.661 . S
C3732 C1987 1.661 . S
C3782 C2023 1.651 . S
C3767 C1861 1.697 . S
C3817 C1061 1.731 . S
C3832 C2059 1.717 . S
C3867 C1901 1.680 . S
C3882 C2095 1.714 . S
C3917 C941 1.657 . S
C3932 C2131 1.690 . S
C3967 C1821 1.712 . S
C3982 C2167 1.699 . S
C4017 C1021 1.700 . S
C4032 C2203 1.654 . S
C4067 C661 1.666 . S
C4082 C2239 1.701 . S
C4117 C1621 1.730 . S
C4132 C2275 1.717 . S
C4167 C741 1.662 . S
C4182 C2311 1.697 . S
C4217 C1581 1.661 . S
C4232 C2347 1.695 . S
C4267 C901 1.718 . S
C4282 C2383 1.672 . S
C4332 C2419 1.701 . S
C4317 C1661 1.714 . S
C4382 C2455 1.729 . S
C4367 C821 1.693 . S
C4417 C1141 1.716 . S
C4432 C2491 1.670 . S
C4482 C2527 1.692 . S
C4467 C781 1.705 . S
C4532 C2563 1.733 . S
C4517 C1701 1.696 . S
C4567 C861 1.725 . S
C4582 C2599 1.680 . S
C4617 C1181 1.656 . S
C4632 C2635 1.691 . S
C4682 C2671 1.707 . S
C4667 C1101 1.672 . S
C4717 C1421 1.664 . S
C4732 C2707 1.701 . S
C4782 C2743 1.693 . S
C4767 C381 1.702 . S
C4832 C2779 1.693 . S
C4817 C1501 1.702 . S
C4882 C2815 1.736 . S
C4867 C461 1.698 . S
C4932 C2851 1.727 . S
C4917 C1541 1.689 . S
C4967 C341 1.668 . S
C4982 C2887 1.706 . S
C5032 C2923 1.701 . S
C5017 C1461 1.709 . S
C5067 C421 1.697 . S
C5082 C2959 1.689 . S
C5132 C2995 1.699 . S
C5117 C61 1.660 . S
C5182 C3031 1.738 . S
C5167 C1261 1.698 . S
C5217 C141 1.678 . S
C5232 C3067 1.718 . S
C5282 C3103 1.698 . S
C5267 C1221 1.706 . S
C5332 C3139 1.655 . S
C5317 C301 1.704 . S
C5367 C1301 1.719 . S
C5382 C3175 1.667 . S
C5432 C3211 1.730 . S
C5417 C221 1.691 . S
C5482 C3247 1.650 . S
C5467 C541 1.701 . S
C5517 C181 1.711 . S
C5532 C3283 1.659 . S
C5582 C3319 1.724 . S
C5567 C1341 1.687 . S
C5617 C261 1.710 . S
C5632 C3355 1.659 . S
C5682 C3391 1.726 . S
C5667 C581 1.686 . S
C5717 C501 1.652 . S
C5732 C3427 1.690 . S
C5767 C701 1.732 . S
C5782 C3463 1.719 . S
C5832 C3499 1.694 . S
C5817 C621 1.660 . S
C5867 C1741 1.715 . S
C5882 C3535 1.668 . S
C5917 C101 1.685 . S
C5932 C3571 1.725 . S
C5982 C3607 1.712 . S
C5967 C21 1.721 . S
C6032 C3643 1.658 . S
C6017 C1381 1.707 . S
C6067 C1335 1.995 . S
C6082 C1921 2.018 . S
C6117 C535 1.535 . S
C6132 C1957 1.510 . S
C6167 C1362 2.084 . S
C6182 C2017 1.969 . S
C6232 C2053 1.565 . S
C6217 C1295 1.570 . S
C6267 C575 2.023 . S
C6282 C2065 2.047 . S
C6317 C1215 1.547 . S
C6332 C2125 1.543 . S
C6382 C2137 2.055 . S
C6367 C495 2.032 . S
C6417 C1242 1.530 . S
C6432 C2173 1.529 . S
C6467 C1255 2.037 . S
C6482 C2209 2.060 . S
C6532 C2269 1.547 . S
C6517 C562 1.524 . S
C6567 C1202 2.073 . S
C6582 C2281 2.042 . S
C6632 C2341 1.513 . S
C6617 C482 1.493 . S
C6667 C522 2.106 . S
C6682 C2377 1.991 . S
C6717 C1375 1.547 . S
C6732 C2413 1.541 . S
C6782 C2425 2.054 . S
C6767 C1282 2.085 . S
C6832 C2461 1.512 . S
C6817 C1322 1.515 . S
C6867 C455 2.003 . S
C6882 C2317 2.026 . S
C6917 C1415 2.025 . S
C6932 C2497 2.047 . S
C6967 C1455 1.564 . S
C6982 C2557 1.561 . S
C7032 C2593 1.969 . S
C7017 C1482 2.081 . S
C7082 C2353 1.529 . S
C7067 C442 1.532 . S
C7117 C362 2.097 . S
C7132 C2245 2.065 . S
C7167 C1495 1.547 . S
C7182 C2629 1.541 . S
C7232 C2665 1.528 . S
C7217 C1402 1.508 . S
C7282 C2677 1.568 . S
C7267 C1695 1.564 . S
C7317 C1135 2.036 . S
C7332 C2737 2.045 . S
C7382 C2749 1.536 . S
C7367 C1722 1.547 . S
C7432 C2809 2.060 . S
C7417 C1655 2.053 . S
C7467 C1175 1.558 . S
C7482 C2821 1.562 . S
C7517 C1562 2.002 . S
C7532 C2881 2.049 . S
C7567 C1095 1.536 . S
C7582 C2893 1.539 . S
C7632 C2953 2.023 . S
C7617 C1615 2.015 . S
C7682 C2965 1.543 . S
C7667 C1602 1.554 . S
C7717 C1162 2.024 . S
C7732 C3025 2.073 . S
C7782 C3037 1.542 . S
C7767 C1575 1.539 . S
C7817 C1082 1.982 . S
C7832 C3097 2.032 . S
C7882 C3133 1.480 . S
C7867 C1122 1.529 . S
C7917 C1735 2.039 . S
C7932 C3145 2.000 . S
C7982 C3181 1.549 . S
C7967 C1642 1.560 . S
C8017 C1682 1.989 . S
C8032 C3217 1.993 . S
C8067 C1042 1.548 . S
C8082 C3073 1.538 . S
C8117 C1775 1.524 . S
C8132 C3277 1.485 . S
C8167 C1815 2.039 . S
C8182 C3313 2.047 . S
C8232 C3349 1.496 . S
C8217 C1842 1.548 . S
C8267 C1055 2.002 . S
C8282 C3109 1.966 . S
C8317 C975 1.555 . S
C8332 C3001 1.557 . S
C8382 C3385 2.045 . S
C8367 C1855 2.037 . S
C8417 C1762 1.973 . S
C8432 C3421 2.019 . S
C8482 C2101 2.026 . S
C8467 C215 2.003 . S
C8532 C2161 1.548 . S
C8517 C255 1.553 . S
C8582 C2197 1.960 . S
C8567 C282 2.075 . S
C8632 C2089 1.550 . S
C8617 C175 1.555 . S
C8682 C2029 2.075 . S
C8667 C135 2.052 . S
C8717 C15 1.548 . S
C8732 C1945 1.544 . S
C8767 C55 2.001 . S
C8782 C1981 1.944 . S
C8817 C82 1.528 . S
C8832 C1993 1.527 . S
C8867 C95 2.015 . S
C8882 C2641 2.040 . S
C8917 C122 1.530 . S
C8932 C3457 1.552 . S
C8967 C2 2.094 . S
C8982 C2605 2.061 . S
C9017 C42 1.484 . S
C9032 C3493 1.506 . S
C9067 C242 2.102 . S
C9082 C3529 1.987 . S
C9132 C2521 1.531 . S
C9117 C295 1.537 . S
C9167 C162 2.089 . S
C9182 C2533 2.059 . S
C9217 C202 1.525 . S
C9232 C2569 1.523 . S
C9282 C3469 2.020 . S
C9267 C1535 1.997 . S
C9317 C335 2.034 . S
C9332 C2389 2.056 . S
C9367 C375 1.556 . S
C9382 C2449 1.552 . S
C9417 C402 2.072 . S
C9432 C2485 1.959 . S
C9482 C3505 1.520 . S
C9467 C1522 1.523 . S
C9532 C3433 2.070 . S
C9517 C1442 2.101 . S
C9582 C2305 1.528 . S
C9567 C415 1.532 . S
C9617 C322 1.520 . S
C9632 C2233 1.540 . S
C9667 C815 1.568 . S
C9682 C2857 1.571 . S
C9717 C855 2.036 . S
C9732 C2917 2.044 . S
C9767 C882 1.542 . S
C9782 C2929 1.532 . S
C9817 C775 2.054 . S
C9832 C2845 2.061 . S
C9882 C2785 1.563 . S
C9867 C735 1.559 . S
C9932 C2701 2.045 . S
C9917 C602 1.999 . S
C9982 C2713 1.537 . S
C9967 C655 1.535 . S
C10017 C695 2.021 . S
C10032 C2773 2.028 . S
C10082 C3397 1.545 . S
C10067 C682 1.556 . S
C10117 C722 2.022 . S
C10132 C3565 2.071 . S
C10167 C615 1.538 . S
C10182 C3361 1.541 . S
C10232 C3601 2.035 . S
C10217 C642 1.985 . S
C10267 C842 1.548 . S
C10282 C3637 1.499 . S
C10332 C3253 1.991 . S
C10317 C895 2.030 . S
C10367 C762 1.543 . S
C10382 C3289 1.532 . S
C10417 C802 1.996 . S
C10432 C3325 2.000 . S
C10467 C1895 1.542 . S
C10482 C3577 1.545 . S
C10532 C3169 1.489 . S
C10517 C935 1.528 . S
C10567 C962 2.000 . S
C10582 C3205 2.047 . S
C10617 C1002 1.544 . S
C10632 C3241 1.493 . S
C10667 C1882 1.966 . S
C10682 C3613 1.970 . S
C10717 C1802 1.565 . S
C10732 C3541 1.554 . S
C10782 C3061 2.045 . S
C10767 C1015 2.038 . S
C10832 C2989 2.019 . S
C10817 C922 1.972 . S
