# Generated by pormake.
# Topology anh, (6,3)-cn, num edge types: 1
# Building blocks:
#     Node 0, Type 0, BuildingBlock: BETDEL_clean_sbu_0, # of connection points: 6
#     Node 1, Type 0, BuildingBlock: BETDEL_clean_sbu_0, # of connection points: 6
#     Node 2, Type 0, BuildingBlock: BETDEL_clean_sbu_0, # of connection points: 6
#     Node 3, Type 1, BuildingBlock: BETDIP_clean_linker_0, # of connection points: 3
#     Node 4, Type 1, BuildingBlock: BETDIP_clean_linker_0, # of connection points: 3
#     Node 5, Type 1, BuildingBlock: BETDIP_clean_linker_0, # of connection points: 3
#     Node 6, Type 1, BuildingBlock: BETDIP_clean_linker_0, # of connection points: 3
#     Node 7, Type 1, BuildingBlock: BETDIP_clean_linker_0, # of connection points: 3
#     Node 8, Type 1, BuildingBlock: BETDIP_clean_linker_0, # of connection points: 3
#     Edge 9, Type (0, 1), BuildingBlock: AJUNOK_clean_linker_0, # of connection points: 2
#     Edge 10, Type (0, 1), BuildingBlock: AJUNOK_clean_linker_0, # of connection points: 2
#     Edge 11, Type (0, 1), BuildingBlock: AJUNOK_clean_linker_0, # of connection points: 2
#     Edge 12, Type (0, 1), BuildingBlock: AJUNOK_clean_linker_0, # of connection points: 2
#     Edge 13, Type (0, 1), BuildingBlock: AJUNOK_clean_linker_0, # of connection points: 2
#     Edge 14, Type (0, 1), BuildingBlock: AJUNOK_clean_linker_0, # of connection points: 2
#     Edge 15, Type (0, 1), BuildingBlock: AJUNOK_clean_linker_0, # of connection points: 2
#     Edge 16, Type (0, 1), BuildingBlock: AJUNOK_clean_linker_0, # of connection points: 2
#     Edge 17, Type (0, 1), BuildingBlock: AJUNOK_clean_linker_0, # of connection points: 2
#     Edge 18, Type (0, 1), BuildingBlock: AJUNOK_clean_linker_0, # of connection points: 2
#     Edge 19, Type (0, 1), BuildingBlock: AJUNOK_clean_linker_0, # of connection points: 2
#     Edge 20, Type (0, 1), BuildingBlock: AJUNOK_clean_linker_0, # of connection points: 2
#     Edge 21, Type (0, 1), BuildingBlock: AJUNOK_clean_linker_0, # of connection points: 2
#     Edge 22, Type (0, 1), BuildingBlock: AJUNOK_clean_linker_0, # of connection points: 2
#     Edge 23, Type (0, 1), BuildingBlock: AJUNOK_clean_linker_0, # of connection points: 2
#     Edge 24, Type (0, 1), BuildingBlock: AJUNOK_clean_linker_0, # of connection points: 2
#     Edge 25, Type (0, 1), BuildingBlock: AJUNOK_clean_linker_0, # of connection points: 2
#     Edge 26, Type (0, 1), BuildingBlock: AJUNOK_clean_linker_0, # of connection points: 2
# Relax obj value: 0.124
# Max RMSD: 0.167
# Mean RMSD: 0.118
data_MOF--net-anh--node1-BETDEL_clean_sbu_0--node2-BETDIP_clean_linker_0--edge1-AJUNOK_clean_linker_0
_symmetry_space_group_name_H-M    P1
_symmetry_Int_Tables_number       1
_symmetry_cell_setting            triclinic
loop_
_symmetry_equiv_pos_as_xyz
'x, y, z'
_cell_length_a     21.883747
_cell_length_b     21.847961
_cell_length_c     34.847204
_cell_angle_alpha  92.989804
_cell_angle_beta   90.276091
_cell_angle_gamma 119.90321
loop_
_atom_site_label
_atom_site_type_symbol
_atom_site_fract_x
_atom_site_fract_y
_atom_site_fract_z
_atom_type_partial_charge
Dy0 Dy 0.09447 0.50423 0.15218 0.0
C1 C 0.9324 0.6347 0.18352 0.0
C2 C 0.18917 0.45959 0.13773 0.0
Dy3 Dy 1.02192 0.58879 0.15926 0.0
O4 O 0.1679 0.4676 0.17121 0.0
O5 O 0.15595 0.4733 0.11153 0.0
O6 O 0.05794 0.46405 0.21034 0.0
O7 O 0.08356 0.56759 0.19888 0.0
C8 C 0.05884 0.52135 0.22319 0.0
C9 C 0.0534 0.57157 0.08671 0.0
O10 O 0.13059 0.6758 0.17728 0.0
O11 O 0.18511 0.61844 0.14953 0.0
O12 O 0.93435 0.58071 0.19565 0.0
O13 O 0.97966 0.66395 0.15783 0.0
O14 O 0.05186 0.62698 0.10064 0.0
O15 O 1.03164 0.52497 0.11117 0.0
O16 O 0.98387 0.40981 0.14552 0.0
O17 O 0.93226 0.47704 0.16241 0.0
C18 C 0.18844 0.67708 0.16505 0.0
C19 C 0.92761 0.41453 0.15542 0.0
Dy20 Dy 0.47649 1.02131 0.48692 0.0
C21 C 0.76939 0.21327 0.53358 0.0
C22 C 0.34863 0.92519 0.45571 0.0
Dy23 Dy 0.64079 0.11276 0.50314 0.0
O24 O 0.35988 0.9775 0.47985 0.0
O25 O 0.40787 0.92856 0.44698 0.0
O26 O 0.44378 1.00576 0.5491 0.0
O27 O 0.54805 0.06039 0.5354 0.0
C28 C 0.50804 0.03958 0.56312 0.0
C29 C 0.59881 0.06493 0.42962 0.0
O30 O 0.62024 1.00744 0.52134 0.0
O31 O 0.51418 0.94137 0.48633 0.0
O32 O 0.75903 0.16972 0.50413 0.0
O33 O 0.70907 0.20043 0.54676 0.0
O34 O 0.65856 0.07706 0.44479 0.0
O35 O 0.56833 0.08562 0.45325 0.0
O36 O 0.49008 0.12996 0.48065 0.0
O37 O 0.61013 0.19664 0.49803 0.0
C38 C 0.56858 0.94596 0.5062 0.0
C39 C 0.5488 0.19187 0.48855 0.0
Dy40 Dy 0.63286 0.60113 0.82127 0.0
C41 C 0.50573 0.30623 0.85412 0.0
C42 C 0.68553 0.73733 0.80327 0.0
Dy43 Dy 0.54636 0.43447 0.82608 0.0
O44 O 0.66474 0.71372 0.83695 0.0
O45 O 0.67751 0.6862 0.7791 0.0
O46 O 0.67374 0.60855 0.88135 0.0
O47 O 0.57235 0.52706 0.86415 0.0
C48 C 0.61804 0.55152 0.89124 0.0
C49 C 0.57433 0.47048 0.75295 0.0
O50 O 0.45657 0.4569 0.83097 0.0
O51 O 0.51895 0.57537 0.81538 0.0
O52 O 0.47245 0.31765 0.82672 0.0
O53 O 0.55752 0.36652 0.86792 0.0
O54 O 0.53841 0.40503 0.76188 0.0
O55 O 0.5914 0.50902 0.78332 0.0
O56 O 0.72159 0.57848 0.81393 0.0
O57 O 0.66071 0.46181 0.83178 0.0
C58 C 0.45889 0.51705 0.82288 0.0
C59 C 0.71991 0.51932 0.82296 0.0
H60 H 0.50607 0.97319 0.15326 0.0
H61 H 0.63392 0.09211 0.25379 0.0
H62 H 0.43439 0.90562 0.26699 0.0
H63 H 0.62304 0.17717 0.20896 0.0
C64 C 0.65447 0.16551 0.18903 0.0
C65 C 0.51451 0.97957 0.1842 0.0
C66 C 0.46166 0.93112 0.20801 0.0
C67 C 0.57655 0.03892 0.20072 0.0
C68 C 0.58636 0.04733 0.24093 0.0
C69 C 0.53526 0.99996 0.26485 0.0
C70 C 0.47337 0.94242 0.24828 0.0
N71 N 0.6277 0.09238 0.17769 0.0
H72 H 0.54521 0.50982 0.4799 0.0
H73 H 0.59177 0.62018 0.59183 0.0
H74 H 0.55301 0.40745 0.58036 0.0
H75 H 0.5289 0.66503 0.56974 0.0
C76 C 0.54664 0.67699 0.54063 0.0
C77 C 0.55212 0.51083 0.51076 0.0
C78 C 0.55012 0.45223 0.5276 0.0
C79 C 0.56241 0.57052 0.53423 0.0
C80 C 0.57606 0.57235 0.57403 0.0
C81 C 0.57132 0.5135 0.59115 0.0
C82 C 0.55724 0.45359 0.56761 0.0
N83 N 0.56 0.62847 0.51794 0.0
H84 H 1.02086 0.49827 0.8092 0.0
H85 H 0.13554 0.51596 0.91422 0.0
H86 H 0.94751 0.53073 0.91891 0.0
H87 H 0.22579 0.60054 0.86355 0.0
C88 C 0.21202 0.55104 0.84751 0.0
C89 C 1.02621 0.50449 0.84029 0.0
C90 C 0.97648 0.51406 0.86186 0.0
C91 C 0.08511 0.50698 0.85909 0.0
C92 C 0.09128 0.51493 0.89948 0.0
C93 C 1.0415 0.5228 0.92095 0.0
C94 C 0.98517 0.52332 0.90207 0.0
N95 N 0.13911 0.50335 0.8378 0.0
H96 H 0.06858 0.62485 0.49032 0.0
H97 H 0.94103 0.47417 0.39835 0.0
H98 H 0.10322 0.6834 0.37409 0.0
H99 H 0.98853 0.53992 0.52943 0.0
C100 C 0.97429 0.49116 0.51259 0.0
C101 C 0.05167 0.61223 0.46029 0.0
C102 C 0.0874 0.6628 0.43346 0.0
C103 C 0.99831 0.54395 0.44741 0.0
C104 C 0.98077 0.52762 0.40804 0.0
C105 C 1.01755 0.57772 0.38111 0.0
C106 C 0.07034 0.64543 0.39433 0.0
N107 N 0.96703 0.48747 0.47196 0.0
H108 H 0.63575 0.08905 0.8341 0.0
H109 H 0.65622 0.03317 0.71679 0.0
H110 H 0.53407 0.13286 0.74179 0.0
H111 H 0.75244 0.03329 0.73932 0.0
C112 C 0.73513 1.01224 0.76724 0.0
C113 C 0.62498 0.08924 0.80376 0.0
C114 C 0.58072 0.11443 0.79157 0.0
C115 C 0.65504 0.06291 0.777 0.0
C116 C 0.6373 0.05763 0.73765 0.0
C117 C 0.59202 0.08099 0.72502 0.0
C118 C 0.56587 0.11125 0.75195 0.0
N119 N 0.69853 0.03722 0.79092 0.0
H120 H 0.52643 0.56842 0.16092 0.0
H121 H 0.66492 0.62048 0.0669 0.0
H122 H 0.44192 0.48872 0.04549 0.0
H123 H 0.62926 0.5949 0.19456 0.0
C124 C 0.67321 0.63293 0.17865 0.0
C125 C 0.53354 0.56384 0.13045 0.0
C126 C 0.4746 0.5271 0.10476 0.0
C127 C 0.60182 0.59861 0.11641 0.0
C128 C 0.6119 0.59168 0.07736 0.0
C129 C 0.55493 0.54851 0.05195 0.0
C130 C 0.48624 0.5178 0.06567 0.0
N131 N 0.66198 0.64375 0.14013 0.0
C132 C 0.27347 0.42769 0.10693 0.0
C133 C 0.26046 0.47063 0.13287 0.0
C134 C 0.34287 0.44362 0.09992 0.0
C135 C 0.40159 0.50476 0.11738 0.0
H136 H 0.22993 0.38203 0.09179 0.0
H137 H 0.35038 0.40853 0.07991 0.0
S138 S 0.39282 0.63459 0.1875 0.0
N139 N 0.30981 0.5746 0.17721 0.0
N140 N 0.43977 0.6087 0.16171 0.0
C141 C 0.38822 0.54756 0.14381 0.0
C142 C 0.31776 0.5296 0.15197 0.0
C143 C 0.83211 0.33795 0.56039 0.0
C144 C 0.83502 0.28132 0.54093 0.0
C145 C 0.88372 0.40819 0.55518 0.0
C146 C 0.93917 0.42304 0.53047 0.0
H147 H 0.78616 0.32847 0.57637 0.0
H148 H 0.87585 0.4505 0.56703 0.0
S149 S 0.98085 0.29404 0.48199 0.0
N150 N 0.90578 0.24488 0.50309 0.0
N151 N 1.00235 0.37696 0.49306 0.0
C152 C 0.94786 0.36714 0.51545 0.0
C153 C 0.89574 0.29591 0.52084 0.0
C154 C 0.70979 0.85821 0.82283 0.0
C155 C 0.708 0.81022 0.79376 0.0
C156 C 0.72218 0.92511 0.81432 0.0
C157 C 0.73365 0.94651 0.77646 0.0
H158 H 0.69911 0.84322 0.85225 0.0
H159 H 0.72067 0.95942 0.83745 0.0
S160 S 0.74029 0.84301 0.6905 0.0
N161 N 0.72321 0.79017 0.72603 0.0
N162 N 0.74716 0.91682 0.71006 0.0
C163 C 0.73595 0.90071 0.74746 0.0
C164 C 0.72282 0.83217 0.75608 0.0
C165 C 0.81784 0.60238 0.21289 0.0
C166 C 0.87469 0.64925 0.1913 0.0
C167 C 0.75381 0.60228 0.2121 0.0
C168 C 0.74512 0.64923 0.18981 0.0
H169 H 0.82088 0.56195 0.22811 0.0
H170 H 0.70928 0.56127 0.22621 0.0
S171 S 0.88389 0.79459 0.13683 0.0
N172 N 0.92269 0.75248 0.15332 0.0
N173 N 0.8026 0.7531 0.15225 0.0
C174 C 0.80437 0.70218 0.17224 0.0
C175 C 0.86932 0.70199 0.17288 0.0
C176 C 0.27943 0.79734 0.43775 0.0
C177 C 0.28018 0.86033 0.44925 0.0
C178 C 0.21664 0.73277 0.43533 0.0
C179 C 0.15244 0.72904 0.44398 0.0
H180 H 0.32783 0.79754 0.43105 0.0
H181 H 0.21791 0.68549 0.42558 0.0
S182 S 0.12502 0.87815 0.47417 0.0
N183 N 0.21114 0.91507 0.46926 0.0
N184 N 0.09194 0.79263 0.46335 0.0
C185 C 0.15189 0.79117 0.45533 0.0
C186 C 0.2162 0.85724 0.45826 0.0
C187 C 0.46329 0.18331 0.82861 0.0
C188 C 0.50991 0.24084 0.85347 0.0
C189 C 0.48373 0.13694 0.81191 0.0
C190 C 0.55181 0.14727 0.81909 0.0
H191 H 0.41402 0.17858 0.81869 0.0
H192 H 0.44827 0.09663 0.7906 0.0
S193 S 0.68344 0.27616 0.8922 0.0
N194 N 0.61839 0.2938 0.89281 0.0
N195 N 0.65883 0.2094 0.85989 0.0
C196 C 0.59412 0.19764 0.84863 0.0
C197 C 0.57239 0.2437 0.86634 0.0
C198 C 0.53676 0.81988 0.48663 0.0
C199 C 0.56963 0.87944 0.51314 0.0
C200 C 0.53354 0.7553 0.49404 0.0
C201 C 0.5616 0.74755 0.52865 0.0
H202 H 0.51254 0.82287 0.46014 0.0
H203 H 0.5059 0.71036 0.47349 0.0
S204 S 0.65351 0.88638 0.60735 0.0
N205 N 0.6325 0.92588 0.57493 0.0
N206 N 0.62409 0.80476 0.58925 0.0
C207 C 0.59538 0.80677 0.55498 0.0
C208 C 0.60011 0.87262 0.54714 0.0
C209 C 0.84948 0.58051 0.84086 0.0
C210 C 0.78794 0.519 0.82666 0.0
C211 C 0.91174 0.5794 0.84976 0.0
C212 C 0.91588 0.51723 0.84399 0.0
H213 H 0.84852 0.62911 0.84714 0.0
H214 H 0.95633 0.62699 0.86279 0.0
S215 S 0.77301 0.34428 0.80269 0.0
N216 N 0.73723 0.39543 0.80418 0.0
N217 N 0.85471 0.39412 0.82015 0.0
C218 C 0.85627 0.45653 0.82761 0.0
C219 C 0.79228 0.4572 0.81919 0.0
C220 C 0.26407 0.79649 0.19965 0.0
C221 C 0.25842 0.74391 0.17227 0.0
C222 C 0.32914 0.85754 0.20952 0.0
C223 C 0.39233 0.86986 0.19246 0.0
H224 H 0.21802 0.78973 0.21459 0.0
H225 H 0.33009 0.89508 0.23144 0.0
S226 S 0.40626 0.7533 0.1158 0.0
N227 N 0.32172 0.71157 0.12577 0.0
N228 N 0.44389 0.8261 0.14455 0.0
C229 C 0.38722 0.81953 0.16369 0.0
C230 C 0.32061 0.75672 0.15369 0.0
C231 C 0.48329 0.25956 0.49732 0.0
C232 C 0.54627 0.25935 0.48914 0.0
C233 C 0.48303 0.32337 0.50573 0.0
C234 C 0.5453 0.38962 0.50533 0.0
H235 H 0.43474 0.21007 0.50003 0.0
H236 H 0.43473 0.32068 0.51523 0.0
S237 S 0.72247 0.41939 0.48133 0.0
N238 N 0.67153 0.33247 0.47777 0.0
N239 N 0.67025 0.45119 0.49328 0.0
C240 C 0.6073 0.39033 0.49441 0.0
C241 C 0.60798 0.32564 0.48635 0.0
C242 C 0.39941 0.58964 0.83189 0.0
C243 C 0.39326 0.52249 0.82558 0.0
C244 C 0.34007 0.59735 0.83773 0.0
C245 C 0.27133 0.53866 0.83679 0.0
H246 H 0.45085 0.637 0.83365 0.0
H247 H 0.34835 0.65017 0.84369 0.0
S248 S 0.22458 0.35114 0.8192 0.0
N249 N 0.3115 0.39572 0.81744 0.0
N250 N 0.20006 0.41077 0.82766 0.0
C251 C 0.26364 0.4712 0.8292 0.0
C252 C 0.32451 0.4631 0.82385 0.0
C253 C 0.84053 0.28045 0.14898 0.0
C254 C 0.85736 0.34972 0.16209 0.0
C255 C 0.77466 0.22025 0.15659 0.0
C256 C 0.72332 0.22704 0.17786 0.0
H257 H 0.87846 0.27258 0.13283 0.0
H258 H 0.76443 0.16829 0.14625 0.0
S259 S 0.74082 0.39501 0.22001 0.0
N260 N 0.81566 0.41942 0.19845 0.0
N261 N 0.69456 0.30842 0.21211 0.0
C262 C 0.73967 0.2957 0.19097 0.0
C263 C 0.80574 0.3563 0.18331 0.0
C264 C 0.06968 0.61251 0.0203 0.0
C265 C 0.05593 0.55809 0.04481 0.0
C266 C 0.06621 0.60082 0.98028 0.0
C267 C 0.04993 0.53463 0.96324 0.0
H268 H 0.08162 0.66434 0.03204 0.0
H269 H 0.07546 0.64364 0.96246 0.0
S270 S 1.01243 0.37531 0.01396 0.0
N271 N 1.02723 0.43579 0.04885 0.0
N272 N 1.02191 0.41441 0.97331 0.0
C273 C 1.03831 0.4803 0.98715 0.0
C274 C 1.04112 0.49192 0.02805 0.0
C275 C 0.62422 0.03445 0.36379 0.0
C276 C 0.57846 0.04447 0.38821 0.0
C277 C 0.60918 1.01896 0.32413 0.0
C278 C 0.54722 1.01175 0.30733 0.0
H279 H 0.67288 0.03983 0.37523 0.0
H280 H 0.6466 1.01292 0.3064 0.0
S281 S 0.40919 0.03162 0.35838 0.0
N282 N 0.46821 0.04577 0.39254 0.0
N283 N 0.43922 1.01496 0.31809 0.0
C284 C 0.50011 1.02 0.33143 0.0
C285 C 0.51591 0.03683 0.37183 0.0
C286 C 0.61578 0.46826 0.68736 0.0
C287 C 0.58407 0.49351 0.71363 0.0
C288 C 0.61541 0.47922 0.64819 0.0
C289 C 0.58058 0.51324 0.63361 0.0
H290 H 0.63972 0.43844 0.69706 0.0
H291 H 0.64073 0.45873 0.62904 0.0
S292 S 0.49047 0.59014 0.69201 0.0
N293 N 0.52067 0.55726 0.72377 0.0
N294 N 0.51486 0.57377 0.64972 0.0
C295 C 0.55054 0.54081 0.66018 0.0
C296 C 0.55326 0.53162 0.70032 0.0
C297 C 0.60026 0.08182 0.61603 0.0
C298 C 0.52895 0.0514 0.60432 0.0
C299 C 0.6205 0.09169 0.65514 0.0
C300 C 0.57005 0.07151 0.6838 0.0
H301 H 0.64061 0.09733 0.5949 0.0
H302 H 0.67602 0.11546 0.66301 0.0
S303 S 0.3762 0.98651 0.66796 0.0
N304 N 0.40768 0.99979 0.62436 0.0
N305 N 0.44557 1.01718 0.69767 0.0
C306 C 0.49855 0.04054 0.67236 0.0
C307 C 0.47802 1.03065 0.63266 0.0
C308 C 0.54003 0.5471 0.94341 0.0
C309 C 0.59845 0.54176 0.93145 0.0
C310 C 0.52513 0.54727 0.98237 0.0
C311 C 0.56741 0.54072 0.01059 0.0
H312 H 0.50755 0.55453 0.9227 0.0
H313 H 0.48189 0.55546 0.99044 0.0
S314 S 0.7205 0.51479 0.99256 0.0
N315 N 0.69558 0.52455 0.94957 0.0
N316 N 0.66554 0.52047 0.02294 0.0
C317 C 0.62367 0.53113 -0.00154 0.0
C318 C 0.63973 0.53276 0.95882 0.0
C319 C 1.02465 0.48234 0.28928 0.0
C320 C 1.03908 0.53264 0.26211 0.0
C321 C 1.01211 0.49469 0.32743 0.0
C322 C 1.01185 0.55711 0.33947 0.0
H323 H 1.0264 0.43458 0.28154 0.0
H324 H 1.00698 0.45699 0.34803 0.0
S325 S 1.03579 0.70033 0.2778 0.0
N326 N 0.04796 0.6451 0.24912 0.0
N327 N 1.01673 0.66464 0.31977 0.0
C328 C 1.01994 0.6047 0.31165 0.0
C329 C 1.03575 0.59368 0.27324 0.0
loop_
_geom_bond_atom_site_label_1
_geom_bond_atom_site_label_2
_geom_bond_distance
_geom_bond_site_symmetry_2
_ccdc_geom_bond_type
Dy0 O4 2.398 . S
Dy0 O5 2.491 . S
Dy0 O6 2.403 . S
Dy0 O7 2.664 . S
Dy0 O11 2.326 . S
Dy0 O15 2.310 . S
Dy0 O16 2.351 1_455 S
C1 O12 1.185 . S
C1 O13 1.355 . S
C2 O4 1.185 . S
C2 O5 1.355 . S
Dy3 O7 2.310 . S
Dy3 O10 2.351 . S
Dy3 O12 2.398 1_455 S
Dy3 O13 2.491 1_455 S
Dy3 O14 2.403 . S
Dy3 O15 2.664 . S
Dy3 O17 2.326 1_455 S
O4 Dy0 2.398 . S
O4 C2 1.185 . S
O5 Dy0 2.491 . S
O5 C2 1.355 . S
O6 Dy0 2.403 . S
O6 C8 1.254 . S
O7 Dy0 2.664 . S
O7 Dy3 2.310 . S
O7 C8 1.268 . S
C8 O6 1.254 . S
C8 O7 1.268 . S
C9 O14 1.254 . S
C9 O15 1.268 . S
O10 Dy3 2.351 . S
O10 C18 1.249 . S
O11 Dy0 2.326 . S
O11 C18 1.267 . S
O12 C1 1.185 . S
O12 Dy3 2.398 1_655 S
O13 C1 1.355 . S
O13 Dy3 2.491 1_655 S
O14 Dy3 2.403 . S
O14 C9 1.254 . S
O15 Dy0 2.310 . S
O15 Dy3 2.664 . S
O15 C9 1.268 . S
O16 Dy0 2.351 1_655 S
O16 C19 1.249 . S
O17 Dy3 2.326 1_655 S
O17 C19 1.267 . S
C18 O10 1.249 . S
C18 O11 1.267 . S
C19 O16 1.249 . S
C19 O17 1.267 . S
Dy20 O24 2.398 . S
Dy20 O25 2.491 . S
Dy20 O26 2.403 . S
Dy20 O27 2.664 1_565 S
Dy20 O31 2.326 . S
Dy20 O35 2.310 . S
Dy20 O36 2.351 1_565 S
C21 O32 1.185 . S
C21 O33 1.355 . S
C22 O24 1.185 . S
C22 O25 1.355 . S
Dy23 O27 2.310 . S
Dy23 O30 2.351 1_545 S
Dy23 O32 2.398 . S
Dy23 O33 2.491 . S
Dy23 O34 2.403 . S
Dy23 O35 2.664 1_545 S
Dy23 O37 2.326 . S
O24 Dy20 2.398 . S
O24 C22 1.185 . S
O25 Dy20 2.491 . S
O25 C22 1.355 . S
O26 Dy20 2.403 . S
O26 C28 1.254 1_565 S
O27 Dy20 2.664 1_545 S
O27 Dy23 2.310 . S
O27 C28 1.268 . S
C28 O26 1.254 1_545 S
C28 O27 1.268 . S
C29 O34 1.254 . S
C29 O35 1.268 1_545 S
O30 Dy23 2.351 1_565 S
O30 C38 1.249 . S
O31 Dy20 2.326 . S
O31 C38 1.267 . S
O32 C21 1.185 . S
O32 Dy23 2.398 . S
O33 C21 1.355 . S
O33 Dy23 2.491 . S
O34 Dy23 2.403 . S
O34 C29 1.254 . S
O35 Dy20 2.310 . S
O35 Dy23 2.664 1_565 S
O35 C29 1.268 1_565 S
O36 Dy20 2.351 1_545 S
O36 C39 1.249 . S
O37 Dy23 2.326 . S
O37 C39 1.267 . S
C38 O30 1.249 . S
C38 O31 1.267 . S
C39 O36 1.249 . S
C39 O37 1.267 . S
Dy40 O44 2.398 . S
Dy40 O45 2.491 . S
Dy40 O46 2.403 . S
Dy40 O47 2.664 . S
Dy40 O51 2.326 . S
Dy40 O55 2.310 . S
Dy40 O56 2.351 . S
C41 O52 1.185 . S
C41 O53 1.355 . S
C42 O44 1.185 . S
C42 O45 1.355 . S
Dy43 O47 2.310 . S
Dy43 O50 2.351 . S
Dy43 O52 2.398 . S
Dy43 O53 2.491 . S
Dy43 O54 2.403 . S
Dy43 O55 2.664 . S
Dy43 O57 2.326 . S
O44 Dy40 2.398 . S
O44 C42 1.185 . S
O45 Dy40 2.491 . S
O45 C42 1.355 . S
O46 Dy40 2.403 . S
O46 C48 1.254 . S
O47 Dy40 2.664 . S
O47 Dy43 2.310 . S
O47 C48 1.268 . S
C48 O46 1.254 . S
C48 O47 1.268 . S
C49 O54 1.254 . S
C49 O55 1.268 . S
O50 Dy43 2.351 . S
O50 C58 1.249 . S
O51 Dy40 2.326 . S
O51 C58 1.267 . S
O52 C41 1.185 . S
O52 Dy43 2.398 . S
O53 C41 1.355 . S
O53 Dy43 2.491 . S
O54 Dy43 2.403 . S
O54 C49 1.254 . S
O55 Dy40 2.310 . S
O55 Dy43 2.664 . S
O55 C49 1.268 . S
O56 Dy40 2.351 . S
O56 C59 1.249 . S
O57 Dy43 2.326 . S
O57 C59 1.267 . S
C58 O50 1.249 . S
C58 O51 1.267 . S
C59 O56 1.249 . S
C59 O57 1.267 . S
H60 C65 0.930 . S
H61 C68 0.930 . S
H62 C70 0.930 . S
H63 C64 1.016 . S
C64 H63 1.016 . S
C64 N71 1.286 . S
C65 H60 0.930 . S
C65 C66 1.397 . S
C65 C67 1.361 1_565 S
C66 C65 1.397 . S
C66 C70 1.390 . S
C67 C65 1.361 1_545 S
C67 C68 1.393 . S
C67 N71 1.413 . S
C68 H61 0.930 . S
C68 C67 1.393 . S
C68 C69 1.399 1_545 S
C69 C68 1.399 1_565 S
C69 C70 1.381 . S
C70 H62 0.930 . S
C70 C66 1.390 . S
C70 C69 1.381 . S
N71 C64 1.286 . S
N71 C67 1.413 . S
H72 C77 0.930 . S
H73 C80 0.930 . S
H74 C82 0.930 . S
H75 C76 1.016 . S
C76 H75 1.016 . S
C76 N83 1.286 . S
C77 H72 0.930 . S
C77 C78 1.397 . S
C77 C79 1.361 . S
C78 C77 1.397 . S
C78 C82 1.390 . S
C79 C77 1.361 . S
C79 C80 1.393 . S
C79 N83 1.413 . S
C80 H73 0.930 . S
C80 C79 1.393 . S
C80 C81 1.399 . S
C81 C80 1.399 . S
C81 C82 1.381 . S
C82 H74 0.930 . S
C82 C78 1.390 . S
C82 C81 1.381 . S
N83 C76 1.286 . S
N83 C79 1.413 . S
H84 C89 0.930 1_655 S
H85 C92 0.930 . S
H86 C94 0.930 . S
H87 C88 1.016 . S
C88 H87 1.016 . S
C88 N95 1.286 . S
C89 H84 0.930 1_455 S
C89 C90 1.397 1_455 S
C89 C91 1.361 . S
C90 C89 1.397 1_655 S
C90 C94 1.390 . S
C91 C89 1.361 . S
C91 C92 1.393 . S
C91 N95 1.413 . S
C92 H85 0.930 . S
C92 C91 1.393 . S
C92 C93 1.399 . S
C93 C92 1.399 . S
C93 C94 1.381 1_455 S
C94 H86 0.930 . S
C94 C90 1.390 . S
C94 C93 1.381 1_655 S
N95 C88 1.286 . S
N95 C91 1.413 . S
H96 C101 0.930 . S
H97 C104 0.930 . S
H98 C106 0.930 . S
H99 C100 1.016 . S
C100 H99 1.016 . S
C100 N107 1.286 . S
C101 H96 0.930 . S
C101 C102 1.397 . S
C101 C103 1.361 1_455 S
C102 C101 1.397 . S
C102 C106 1.390 . S
C103 C101 1.361 1_655 S
C103 C104 1.393 . S
C103 N107 1.413 . S
C104 H97 0.930 . S
C104 C103 1.393 . S
C104 C105 1.399 1_655 S
C105 C104 1.399 1_455 S
C105 C106 1.381 . S
C106 H98 0.930 . S
C106 C102 1.390 . S
C106 C105 1.381 . S
N107 C100 1.286 . S
N107 C103 1.413 . S
H108 C113 0.930 . S
H109 C116 0.930 1_565 S
H110 C118 0.930 . S
H111 C112 1.016 . S
C112 H111 1.016 . S
C112 N119 1.286 . S
C113 H108 0.930 . S
C113 C114 1.397 . S
C113 C115 1.361 . S
C114 C113 1.397 . S
C114 C118 1.390 . S
C115 C113 1.361 . S
C115 C116 1.393 . S
C115 N119 1.413 1_545 S
C116 H109 0.930 1_545 S
C116 C115 1.393 . S
C116 C117 1.399 . S
C117 C116 1.399 . S
C117 C118 1.381 . S
C118 H110 0.930 . S
C118 C114 1.390 . S
C118 C117 1.381 . S
N119 C112 1.286 . S
N119 C115 1.413 1_565 S
H120 C125 0.930 . S
H121 C128 0.930 . S
H122 C130 0.930 . S
H123 C124 1.016 . S
C124 H123 1.016 . S
C124 N131 1.286 . S
C125 H120 0.930 . S
C125 C126 1.397 . S
C125 C127 1.361 . S
C126 C125 1.397 . S
C126 C130 1.390 . S
C127 C125 1.361 . S
C127 C128 1.393 . S
C127 N131 1.413 . S
C128 H121 0.930 . S
C128 C127 1.393 . S
C128 C129 1.399 . S
C129 C128 1.399 . S
C129 C130 1.381 . S
C130 H122 0.930 . S
C130 C126 1.390 . S
C130 C129 1.381 . S
N131 C124 1.286 . S
N131 C127 1.413 . S
C132 C133 1.369 . S
C132 C134 1.419 . S
C132 H136 0.930 . S
C133 C132 1.369 . S
C133 C142 1.429 . S
C134 C132 1.419 . S
C134 C135 1.363 . S
C134 H137 0.929 . S
C135 C134 1.363 . S
C135 C141 1.428 . S
H136 C132 0.930 . S
H137 C134 0.929 . S
S138 N139 1.613 . S
S138 N140 1.610 . S
N139 S138 1.613 . S
N139 C142 1.350 . S
N140 S138 1.610 . S
N140 C141 1.351 . S
C141 C135 1.428 . S
C141 N140 1.351 . S
C141 C142 1.434 . S
C142 C133 1.429 . S
C142 N139 1.350 . S
C142 C141 1.434 . S
C143 C144 1.369 . S
C143 C145 1.419 . S
C143 H147 0.930 . S
C144 C143 1.369 . S
C144 C153 1.429 . S
C145 C143 1.419 . S
C145 C146 1.363 . S
C145 H148 0.929 . S
C146 C145 1.363 . S
C146 C152 1.428 . S
H147 C143 0.930 . S
H148 C145 0.929 . S
S149 N150 1.613 . S
S149 N151 1.610 . S
N150 S149 1.613 . S
N150 C153 1.350 . S
N151 S149 1.610 . S
N151 C152 1.351 . S
C152 C146 1.428 . S
C152 N151 1.351 . S
C152 C153 1.434 . S
C153 C144 1.429 . S
C153 N150 1.350 . S
C153 C152 1.434 . S
C154 C155 1.369 . S
C154 C156 1.419 . S
C154 H158 0.930 . S
C155 C154 1.369 . S
C155 C164 1.429 . S
C156 C154 1.419 . S
C156 C157 1.363 . S
C156 H159 0.929 . S
C157 C156 1.363 . S
C157 C163 1.428 . S
H158 C154 0.930 . S
H159 C156 0.929 . S
S160 N161 1.613 . S
S160 N162 1.610 . S
N161 S160 1.613 . S
N161 C164 1.350 . S
N162 S160 1.610 . S
N162 C163 1.351 . S
C163 C157 1.428 . S
C163 N162 1.351 . S
C163 C164 1.434 . S
C164 C155 1.429 . S
C164 N161 1.350 . S
C164 C163 1.434 . S
C165 C166 1.369 . S
C165 C167 1.419 . S
C165 H169 0.930 . S
C166 C165 1.369 . S
C166 C175 1.429 . S
C167 C165 1.419 . S
C167 C168 1.363 . S
C167 H170 0.929 . S
C168 C167 1.363 . S
C168 C174 1.428 . S
H169 C165 0.930 . S
H170 C167 0.929 . S
S171 N172 1.613 . S
S171 N173 1.610 . S
N172 S171 1.613 . S
N172 C175 1.350 . S
N173 S171 1.610 . S
N173 C174 1.351 . S
C174 C168 1.428 . S
C174 N173 1.351 . S
C174 C175 1.434 . S
C175 C166 1.429 . S
C175 N172 1.350 . S
C175 C174 1.434 . S
C176 C177 1.369 . S
C176 C178 1.419 . S
C176 H180 0.930 . S
C177 C176 1.369 . S
C177 C186 1.429 . S
C178 C176 1.419 . S
C178 C179 1.363 . S
C178 H181 0.929 . S
C179 C178 1.363 . S
C179 C185 1.428 . S
H180 C176 0.930 . S
H181 C178 0.929 . S
S182 N183 1.613 . S
S182 N184 1.610 . S
N183 S182 1.613 . S
N183 C186 1.350 . S
N184 S182 1.610 . S
N184 C185 1.351 . S
C185 C179 1.428 . S
C185 N184 1.351 . S
C185 C186 1.434 . S
C186 C177 1.429 . S
C186 N183 1.350 . S
C186 C185 1.434 . S
C187 C188 1.369 . S
C187 C189 1.419 . S
C187 H191 0.930 . S
C188 C187 1.369 . S
C188 C197 1.429 . S
C189 C187 1.419 . S
C189 C190 1.363 . S
C189 H192 0.929 . S
C190 C189 1.363 . S
C190 C196 1.428 . S
H191 C187 0.930 . S
H192 C189 0.929 . S
S193 N194 1.613 . S
S193 N195 1.610 . S
N194 S193 1.613 . S
N194 C197 1.350 . S
N195 S193 1.610 . S
N195 C196 1.351 . S
C196 C190 1.428 . S
C196 N195 1.351 . S
C196 C197 1.434 . S
C197 C188 1.429 . S
C197 N194 1.350 . S
C197 C196 1.434 . S
C198 C199 1.369 . S
C198 C200 1.419 . S
C198 H202 0.930 . S
C199 C198 1.369 . S
C199 C208 1.429 . S
C200 C198 1.419 . S
C200 C201 1.363 . S
C200 H203 0.929 . S
C201 C200 1.363 . S
C201 C207 1.428 . S
H202 C198 0.930 . S
H203 C200 0.929 . S
S204 N205 1.613 . S
S204 N206 1.610 . S
N205 S204 1.613 . S
N205 C208 1.350 . S
N206 S204 1.610 . S
N206 C207 1.351 . S
C207 C201 1.428 . S
C207 N206 1.351 . S
C207 C208 1.434 . S
C208 C199 1.429 . S
C208 N205 1.350 . S
C208 C207 1.434 . S
C209 C210 1.369 . S
C209 C211 1.419 . S
C209 H213 0.930 . S
C210 C209 1.369 . S
C210 C219 1.429 . S
C211 C209 1.419 . S
C211 C212 1.363 . S
C211 H214 0.929 . S
C212 C211 1.363 . S
C212 C218 1.428 . S
H213 C209 0.930 . S
H214 C211 0.929 . S
S215 N216 1.613 . S
S215 N217 1.610 . S
N216 S215 1.613 . S
N216 C219 1.350 . S
N217 S215 1.610 . S
N217 C218 1.351 . S
C218 C212 1.428 . S
C218 N217 1.351 . S
C218 C219 1.434 . S
C219 C210 1.429 . S
C219 N216 1.350 . S
C219 C218 1.434 . S
C220 C221 1.369 . S
C220 C222 1.419 . S
C220 H224 0.930 . S
C221 C220 1.369 . S
C221 C230 1.429 . S
C222 C220 1.419 . S
C222 C223 1.363 . S
C222 H225 0.929 . S
C223 C222 1.363 . S
C223 C229 1.428 . S
H224 C220 0.930 . S
H225 C222 0.929 . S
S226 N227 1.613 . S
S226 N228 1.610 . S
N227 S226 1.613 . S
N227 C230 1.350 . S
N228 S226 1.610 . S
N228 C229 1.351 . S
C229 C223 1.428 . S
C229 N228 1.351 . S
C229 C230 1.434 . S
C230 C221 1.429 . S
C230 N227 1.350 . S
C230 C229 1.434 . S
C231 C232 1.369 . S
C231 C233 1.419 . S
C231 H235 0.930 . S
C232 C231 1.369 . S
C232 C241 1.429 . S
C233 C231 1.419 . S
C233 C234 1.363 . S
C233 H236 0.929 . S
C234 C233 1.363 . S
C234 C240 1.428 . S
H235 C231 0.930 . S
H236 C233 0.929 . S
S237 N238 1.613 . S
S237 N239 1.610 . S
N238 S237 1.613 . S
N238 C241 1.350 . S
N239 S237 1.610 . S
N239 C240 1.351 . S
C240 C234 1.428 . S
C240 N239 1.351 . S
C240 C241 1.434 . S
C241 C232 1.429 . S
C241 N238 1.350 . S
C241 C240 1.434 . S
C242 C243 1.369 . S
C242 C244 1.419 . S
C242 H246 0.930 . S
C243 C242 1.369 . S
C243 C252 1.429 . S
C244 C242 1.419 . S
C244 C245 1.363 . S
C244 H247 0.929 . S
C245 C244 1.363 . S
C245 C251 1.428 . S
H246 C242 0.930 . S
H247 C244 0.929 . S
S248 N249 1.613 . S
S248 N250 1.610 . S
N249 S248 1.613 . S
N249 C252 1.350 . S
N250 S248 1.610 . S
N250 C251 1.351 . S
C251 C245 1.428 . S
C251 N250 1.351 . S
C251 C252 1.434 . S
C252 C243 1.429 . S
C252 N249 1.350 . S
C252 C251 1.434 . S
C253 C254 1.369 . S
C253 C255 1.419 . S
C253 H257 0.930 . S
C254 C253 1.369 . S
C254 C263 1.429 . S
C255 C253 1.419 . S
C255 C256 1.363 . S
C255 H258 0.929 . S
C256 C255 1.363 . S
C256 C262 1.428 . S
H257 C253 0.930 . S
H258 C255 0.929 . S
S259 N260 1.613 . S
S259 N261 1.610 . S
N260 S259 1.613 . S
N260 C263 1.350 . S
N261 S259 1.610 . S
N261 C262 1.351 . S
C262 C256 1.428 . S
C262 N261 1.351 . S
C262 C263 1.434 . S
C263 C254 1.429 . S
C263 N260 1.350 . S
C263 C262 1.434 . S
C264 C265 1.369 . S
C264 C266 1.419 1_554 S
C264 H268 0.930 . S
C265 C264 1.369 . S
C265 C274 1.429 1_455 S
C266 C264 1.419 1_556 S
C266 C267 1.363 . S
C266 H269 0.929 . S
C267 C266 1.363 . S
C267 C273 1.428 1_455 S
H268 C264 0.930 . S
H269 C266 0.929 . S
S270 N271 1.613 . S
S270 N272 1.610 1_554 S
N271 S270 1.613 . S
N271 C274 1.350 . S
N272 S270 1.610 1_556 S
N272 C273 1.351 . S
C273 C267 1.428 1_655 S
C273 N272 1.351 . S
C273 C274 1.434 1_556 S
C274 C265 1.429 1_655 S
C274 N271 1.350 . S
C274 C273 1.434 1_554 S
C275 C276 1.369 . S
C275 C277 1.419 . S
C275 H279 0.930 . S
C276 C275 1.369 . S
C276 C285 1.429 1_545 S
C277 C275 1.419 . S
C277 C278 1.363 . S
C277 H280 0.929 . S
C278 C277 1.363 . S
C278 C284 1.428 1_545 S
H279 C275 0.930 . S
H280 C277 0.929 . S
S281 N282 1.613 . S
S281 N283 1.610 . S
N282 S281 1.613 . S
N282 C285 1.350 . S
N283 S281 1.610 . S
N283 C284 1.351 . S
C284 C278 1.428 1_565 S
C284 N283 1.351 . S
C284 C285 1.434 . S
C285 C276 1.429 1_565 S
C285 N282 1.350 . S
C285 C284 1.434 . S
C286 C287 1.369 . S
C286 C288 1.419 . S
C286 H290 0.930 . S
C287 C286 1.369 . S
C287 C296 1.429 . S
C288 C286 1.419 . S
C288 C289 1.363 . S
C288 H291 0.929 . S
C289 C288 1.363 . S
C289 C295 1.428 . S
H290 C286 0.930 . S
H291 C288 0.929 . S
S292 N293 1.613 . S
S292 N294 1.610 . S
N293 S292 1.613 . S
N293 C296 1.350 . S
N294 S292 1.610 . S
N294 C295 1.351 . S
C295 C289 1.428 . S
C295 N294 1.351 . S
C295 C296 1.434 . S
C296 C287 1.429 . S
C296 N293 1.350 . S
C296 C295 1.434 . S
C297 C298 1.369 . S
C297 C299 1.419 . S
C297 H301 0.930 . S
C298 C297 1.369 . S
C298 C307 1.429 1_545 S
C299 C297 1.419 . S
C299 C300 1.363 . S
C299 H302 0.929 . S
C300 C299 1.363 . S
C300 C306 1.428 1_545 S
H301 C297 0.930 . S
H302 C299 0.929 . S
S303 N304 1.613 . S
S303 N305 1.610 . S
N304 S303 1.613 . S
N304 C307 1.350 . S
N305 S303 1.610 . S
N305 C306 1.351 . S
C306 C300 1.428 1_565 S
C306 N305 1.351 . S
C306 C307 1.434 . S
C307 C298 1.429 1_565 S
C307 N304 1.350 . S
C307 C306 1.434 . S
C308 C309 1.369 . S
C308 C310 1.419 1_556 S
C308 H312 0.930 . S
C309 C308 1.369 . S
C309 C318 1.429 . S
C310 C308 1.419 1_554 S
C310 C311 1.363 . S
C310 H313 0.929 . S
C311 C310 1.363 . S
C311 C317 1.428 . S
H312 C308 0.930 . S
H313 C310 0.929 . S
S314 N315 1.613 1_554 S
S314 N316 1.610 . S
N315 S314 1.613 1_556 S
N315 C318 1.350 . S
N316 S314 1.610 . S
N316 C317 1.351 . S
C317 C311 1.428 . S
C317 N316 1.351 . S
C317 C318 1.434 1_554 S
C318 C309 1.429 . S
C318 N315 1.350 . S
C318 C317 1.434 1_556 S
C319 C320 1.369 . S
C319 C321 1.419 . S
C319 H323 0.930 . S
C320 C319 1.369 . S
C320 C329 1.429 . S
C321 C319 1.419 . S
C321 C322 1.363 . S
C321 H324 0.929 . S
C322 C321 1.363 . S
C322 C328 1.428 1_455 S
H323 C319 0.930 . S
H324 C321 0.929 . S
S325 N326 1.613 . S
S325 N327 1.610 . S
N326 S325 1.613 . S
N326 C329 1.350 1_655 S
N327 S325 1.610 . S
N327 C328 1.351 . S
C328 C322 1.428 1_655 S
C328 N327 1.351 . S
C328 C329 1.434 1_655 S
C329 C320 1.429 . S
C329 N326 1.350 1_455 S
C329 C328 1.434 1_455 S
C133 C2 1.253 . S
C135 C126 1.268 . S
C144 C21 1.093 . S
C146 C100 1.100 . S
C155 C42 1.154 . S
C157 C112 1.132 . S
C166 C1 0.925 . S
C168 C124 0.901 . S
C179 C102 1.015 . S
C177 C22 1.020 . S
C190 C114 0.974 . S
C188 C41 0.975 . S
C199 C38 1.957 . S
C201 C76 1.897 . S
C210 C59 2.144 . S
C212 C90 2.123 . S
C221 C18 1.842 . S
C223 C66 1.818 . S
C234 C78 1.863 . S
C232 C39 1.899 . S
C245 C88 1.676 . S
C243 C58 1.785 . S
C254 C19 2.018 . S
C256 C64 1.933 . S
C267 C93 1.625 . S
C265 C9 1.535 . S
C276 C29 1.528 . S
C278 C69 1.626 1_545 S
C287 C49 1.538 . S
C289 C81 1.576 . S
C300 C117 1.495 . S
C298 C28 1.483 . S
C311 C129 1.479 . S
C309 C48 1.441 . S
C320 C8 1.410 . S
C322 C105 1.440 . S
