# Generated by pormake.
# Topology nom, (4,4)-cn, num edge types: 1
# Building blocks:
#     Node 0, Type 0, BuildingBlock: GIZVER_clean_linker_0, # of connection points: 4
#     Node 1, Type 0, BuildingBlock: GIZVER_clean_linker_0, # of connection points: 4
#     Node 2, Type 0, BuildingBlock: GIZVER_clean_linker_0, # of connection points: 4
#     Node 3, Type 0, BuildingBlock: GIZVER_clean_linker_0, # of connection points: 4
#     Node 4, Type 0, BuildingBlock: GIZVER_clean_linker_0, # of connection points: 4
#     Node 5, Type 0, BuildingBlock: GIZVER_clean_linker_0, # of connection points: 4
#     Node 6, Type 1, BuildingBlock: AZAVOO_clean_sbu_0, # of connection points: 4
#     Node 7, Type 1, BuildingBlock: AZAVOO_clean_sbu_0, # of connection points: 4
#     Node 8, Type 1, BuildingBlock: AZAVOO_clean_sbu_0, # of connection points: 4
#     Node 9, Type 1, BuildingBlock: AZAVOO_clean_sbu_0, # of connection points: 4
#     Node 10, Type 1, BuildingBlock: AZAVOO_clean_sbu_0, # of connection points: 4
#     Node 11, Type 1, BuildingBlock: AZAVOO_clean_sbu_0, # of connection points: 4
#     Edge 12, Type (0, 1), BuildingBlock: OJICUG_clean_linker_0, # of connection points: 2
#     Edge 13, Type (0, 1), BuildingBlock: OJICUG_clean_linker_0, # of connection points: 2
#     Edge 14, Type (0, 1), BuildingBlock: OJICUG_clean_linker_0, # of connection points: 2
#     Edge 15, Type (0, 1), BuildingBlock: OJICUG_clean_linker_0, # of connection points: 2
#     Edge 16, Type (0, 1), BuildingBlock: OJICUG_clean_linker_0, # of connection points: 2
#     Edge 17, Type (0, 1), BuildingBlock: OJICUG_clean_linker_0, # of connection points: 2
#     Edge 18, Type (0, 1), BuildingBlock: OJICUG_clean_linker_0, # of connection points: 2
#     Edge 19, Type (0, 1), BuildingBlock: OJICUG_clean_linker_0, # of connection points: 2
#     Edge 20, Type (0, 1), BuildingBlock: OJICUG_clean_linker_0, # of connection points: 2
#     Edge 21, Type (0, 1), BuildingBlock: OJICUG_clean_linker_0, # of connection points: 2
#     Edge 22, Type (0, 1), BuildingBlock: OJICUG_clean_linker_0, # of connection points: 2
#     Edge 23, Type (0, 1), BuildingBlock: OJICUG_clean_linker_0, # of connection points: 2
#     Edge 24, Type (0, 1), BuildingBlock: OJICUG_clean_linker_0, # of connection points: 2
#     Edge 25, Type (0, 1), BuildingBlock: OJICUG_clean_linker_0, # of connection points: 2
#     Edge 26, Type (0, 1), BuildingBlock: OJICUG_clean_linker_0, # of connection points: 2
#     Edge 27, Type (0, 1), BuildingBlock: OJICUG_clean_linker_0, # of connection points: 2
#     Edge 28, Type (0, 1), BuildingBlock: OJICUG_clean_linker_0, # of connection points: 2
#     Edge 29, Type (0, 1), BuildingBlock: OJICUG_clean_linker_0, # of connection points: 2
#     Edge 30, Type (0, 1), BuildingBlock: OJICUG_clean_linker_0, # of connection points: 2
#     Edge 31, Type (0, 1), BuildingBlock: OJICUG_clean_linker_0, # of connection points: 2
#     Edge 32, Type (0, 1), BuildingBlock: OJICUG_clean_linker_0, # of connection points: 2
#     Edge 33, Type (0, 1), BuildingBlock: OJICUG_clean_linker_0, # of connection points: 2
#     Edge 34, Type (0, 1), BuildingBlock: OJICUG_clean_linker_0, # of connection points: 2
#     Edge 35, Type (0, 1), BuildingBlock: OJICUG_clean_linker_0, # of connection points: 2
# Relax obj value: 0.032
# Max RMSD: 0.163
# Mean RMSD: 0.107
data_MOF--net-nom--node1-AZAVOO_clean_sbu_0--node2-GIZVER_clean_linker_0--edge1-OJICUG_clean_linker_0
_symmetry_space_group_name_H-M    P1
_symmetry_Int_Tables_number       1
_symmetry_cell_setting            triclinic
loop_
_symmetry_equiv_pos_as_xyz
'x, y, z'
_cell_length_a     34.497787
_cell_length_b     34.829769
_cell_length_c     33.637338
_cell_angle_alpha  92.292315
_cell_angle_beta   92.446391
_cell_angle_gamma 120.08139
loop_
_atom_site_label
_atom_site_type_symbol
_atom_site_fract_x
_atom_site_fract_y
_atom_site_fract_z
_atom_type_partial_charge
H0 H 0.92546 0.5409 0.36924 0.0
H1 H 0.97937 0.55469 0.254 0.0
H2 H 0.84521 0.45074 0.26943 0.0
H3 H 0.99436 0.60539 0.35944 0.0
H4 H 1.00273 0.62034 0.30929 0.0
H5 H 0.03371 0.56999 0.39111 0.0
H6 H 0.15771 0.59941 0.34205 0.0
H7 H 0.06129 0.61878 0.274 0.0
C8 C 0.92251 0.52836 0.33859 0.0
C9 C 0.88162 0.49183 0.32277 0.0
C10 C 0.95841 0.55073 0.31414 0.0
C11 C 0.95306 0.53607 0.27361 0.0
C12 C 0.9122 0.49993 0.25764 0.0
C13 C 0.87734 0.47735 0.28253 0.0
C14 C 0.99902 0.59431 0.32944 0.0
C15 C 0.04154 0.59191 0.33128 0.0
C16 C 0.0549 0.57944 0.36624 0.0
C17 C 0.09732 0.58321 0.37049 0.0
C18 C 0.1251 0.59692 0.3387 0.0
C19 C 0.11295 0.61059 0.30402 0.0
C20 C 0.07055 0.60704 0.30008 0.0
H21 H 0.40094 0.93635 0.52028 0.0
H22 H 0.43227 0.97902 0.40161 0.0
H23 H 0.41121 0.85133 0.43022 0.0
H24 H 0.39907 1.00052 0.50182 0.0
H25 H 0.3955 0.00816 0.45005 0.0
H26 H 0.47456 0.03543 0.53999 0.0
H27 H 0.57311 0.15924 0.49729 0.0
H28 H 0.45704 0.06759 0.42079 0.0
C29 C 0.40889 0.93085 0.49053 0.0
C30 C 0.40501 0.8898 0.47878 0.0
C31 C 0.41947 0.96355 0.46297 0.0
C32 C 0.42664 0.95507 0.42352 0.0
C33 C 0.42283 0.91422 0.41162 0.0
C34 C 0.41375 0.88269 0.43967 0.0
C35 C 0.41645 0.00433 0.47388 0.0
C36 C 0.46215 0.04581 0.47899 0.0
C37 C 0.4874 0.05733 0.5159 0.0
C38 C 0.52695 0.09872 0.52283 0.0
C39 C 0.54232 0.12744 0.49189 0.0
C40 C 0.51717 0.11705 0.45516 0.0
C41 C 0.47751 0.07557 0.44856 0.0
H42 H 0.40112 0.45972 0.56391 0.0
H43 H 0.48423 0.48314 0.67139 0.0
H44 H 0.44689 0.57888 0.63952 0.0
H45 H 0.41103 0.40146 0.5854 0.0
H46 H 0.42175 0.40378 0.638 0.0
H47 H 0.47965 0.43726 0.5426 0.0
H48 H 0.58242 0.40932 0.58175 0.0
H49 H 0.48449 0.39922 0.66208 0.0
C50 C 0.42173 0.4816 0.58941 0.0
C51 C 0.42267 0.52195 0.59761 0.0
C52 C 0.44427 0.46766 0.61572 0.0
C53 C 0.46888 0.49493 0.65 0.0
C54 C 0.47072 0.53564 0.65835 0.0
C55 C 0.4485 0.54928 0.63146 0.0
C56 C 0.43624 0.42098 0.61066 0.0
C57 C 0.47897 0.42072 0.60383 0.0
C58 C 0.49641 0.42934 0.56615 0.0
C59 C 0.53314 0.4243 0.55799 0.0
C60 C 0.55369 0.41269 0.58822 0.0
C61 C 0.53614 0.40282 0.62571 0.0
C62 C 0.49917 0.40779 0.63363 0.0
H63 H 0.95354 0.39005 0.76328 0.0
H64 H 0.00614 0.47743 0.8701 0.0
H65 H 0.87165 0.43205 0.82228 0.0
H66 H 0.02552 0.40905 0.79153 0.0
H67 H 0.03052 0.41882 0.8447 0.0
H68 H 0.04191 0.48841 0.75742 0.0
H69 H 0.17871 0.58509 0.79406 0.0
H70 H 0.10577 0.47268 0.86322 0.0
C71 C 0.94979 0.41025 0.78644 0.0
C72 C 0.90875 0.40938 0.78827 0.0
C73 C 0.98516 0.43519 0.81566 0.0
C74 C 0.97954 0.45974 0.84667 0.0
C75 C 0.93888 0.45938 0.84885 0.0
C76 C 0.90414 0.43496 0.81905 0.0
C77 C 0.02734 0.43235 0.81611 0.0
C78 C 0.06821 0.4773 0.81242 0.0
C79 C 0.0703 0.50151 0.77937 0.0
C80 C 0.10982 0.541 0.77313 0.0
C81 C 0.14718 0.55648 0.8006 0.0
C82 C 0.14645 0.5318 0.83282 0.0
C83 C 0.10644 0.49254 0.83898 0.0
H84 H 0.62834 0.10404 0.04081 0.0
H85 H 0.55619 0.03784 0.92855 0.0
H86 H 0.59461 0.17401 0.95649 0.0
H87 H 0.60825 0.02877 0.0269 0.0
H88 H 0.61573 0.02226 0.97536 0.0
H89 H 0.52312 0.00438 0.04138 0.0
H90 H 0.43365 0.87258 -0.01209 0.0
H91 H 0.56347 0.95238 0.94356 0.0
C92 C 0.61113 0.10406 0.01309 0.0
C93 C 0.61266 0.14341 0.00253 0.0
C94 C 0.58995 0.06555 -0.01315 0.0
C95 C 0.57021 0.06658 0.94983 0.0
C96 C 0.57088 0.10533 0.93917 0.0
C97 C 0.59112 0.14314 0.96606 0.0
C98 C 0.59297 0.02513 -0.00381 0.0
C99 C 0.54741 0.9835 -0.0081 0.0
C100 C 0.51518 0.97808 0.0186 0.0
C101 C 0.47397 0.93812 0.01748 0.0
C102 C 0.4648 0.90407 -0.01171 0.0
C103 C 0.4969 0.90861 0.9617 0.0
C104 C 0.53799 0.94883 0.96326 0.0
H105 H 0.6258 0.57513 0.10277 0.0
H106 H 0.53413 0.53738 0.19573 0.0
H107 H 0.56678 0.44349 0.14318 0.0
H108 H 0.61745 0.6308 0.13806 0.0
H109 H 0.5955 0.61827 0.18607 0.0
H110 H 0.55169 0.59148 0.07737 0.0
H111 H 0.45352 0.63056 0.09536 0.0
H112 H 0.53832 0.63532 0.19502 0.0
C113 C 0.60229 0.54978 0.12085 0.0
C114 C 0.59822 0.50757 0.11917 0.0
C115 C 0.57872 0.56047 0.14813 0.0
C116 C 0.55049 0.52839 0.17339 0.0
C117 C 0.54602 0.486 0.17193 0.0
C118 C 0.56878 0.47557 0.14371 0.0
C119 C 0.58768 0.60746 0.15373 0.0
C120 C 0.54785 0.61072 0.13829 0.0
C121 C 0.53427 0.60183 0.09737 0.0
C122 C 0.50037 0.60911 0.08186 0.0
C123 C 0.47895 0.62386 0.10765 0.0
C124 C 0.49228 0.63331 0.14849 0.0
C125 C 0.52688 0.62672 0.16372 0.0
Mg126 Mg 0.59652 0.35715 0.32774 0.0
O127 O 0.58333 0.38613 0.38383 0.0
O128 O 0.60674 0.45835 0.38041 0.0
Mg129 Mg 0.63746 0.47627 0.32028 0.0
C130 C 0.58841 0.42275 0.39878 0.0
C131 C 0.56442 0.25602 0.34596 0.0
O132 O 0.55638 0.24735 0.30715 0.0
O133 O 0.6712 0.391 0.34833 0.0
O134 O 0.69323 0.46251 0.34132 0.0
O135 O 0.53062 0.34339 0.29793 0.0
O136 O 0.59525 0.40645 0.29679 0.0
C137 C 0.7017 0.43207 0.35048 0.0
C138 C 0.55262 0.3841 0.28807 0.0
O139 O 0.5807 0.29574 0.36065 0.0
Mg140 Mg 0.25966 0.63944 0.593 0.0
O141 O 0.21051 0.61273 0.53804 0.0
O142 O 0.16126 0.5404 0.54043 0.0
Mg143 Mg 0.17985 0.52073 0.59942 0.0
C144 C 0.17679 0.57656 0.52299 0.0
C145 C 0.32782 0.74055 0.57817 0.0
O146 O 0.33191 0.74616 0.61729 0.0
O147 O 0.29676 0.60524 0.56968 0.0
O148 O 0.24786 0.53396 0.57829 0.0
O149 O 0.21337 0.65447 0.62598 0.0
O150 O 0.21186 0.59018 0.62497 0.0
C151 C 0.28609 0.56435 0.56842 0.0
C152 C 0.19481 0.61392 0.6363 0.0
O153 O 0.30283 0.7018 0.56132 0.0
Mg154 Mg 0.62924 0.24704 0.75302 0.0
O155 O 0.6075 0.20091 0.69678 0.0
O156 O 0.62947 0.15091 0.70153 0.0
Mg157 Mg 0.66515 0.16524 0.76417 0.0
C158 C 0.6099 0.16793 0.68213 0.0
C159 C 0.60016 0.31805 0.73374 0.0
O160 O 0.59781 0.3212 0.77251 0.0
O161 O 0.7018 0.28306 0.73646 0.0
O162 O 0.72305 0.23347 0.74883 0.0
O163 O 0.56603 0.20128 0.7808 0.0
O164 O 0.62832 0.1978 0.78607 0.0
C165 C 0.73198 0.27208 0.73916 0.0
C166 C 0.58713 0.18189 0.79421 0.0
O167 O 0.61295 0.29249 0.71885 0.0
Mg168 Mg 0.42943 0.65105 0.84351 0.0
O169 O 0.45209 0.63143 0.89975 0.0
O170 O 0.42736 0.55856 0.89549 0.0
Mg171 Mg 0.39082 0.53172 0.83351 0.0
C172 C 0.44824 0.59667 0.91461 0.0
C173 C 0.46448 0.75427 0.86198 0.0
O174 O 0.47506 0.7573 0.82472 0.0
O175 O 0.35783 0.61743 0.86296 0.0
O176 O 0.335 0.54522 0.85193 0.0
O177 O 0.49091 0.66342 0.81272 0.0
O178 O 0.42806 0.59862 0.8111 0.0
C179 C 0.3274 0.57645 0.86225 0.0
C180 C 0.4685 0.6216 0.80079 0.0
O181 O 0.44619 0.7165 0.8766 0.0
Mg182 Mg 0.77823 0.42543 0.01904 0.0
O183 O 0.82394 0.44686 0.07653 0.0
O184 O 0.87072 0.42017 0.07351 0.0
Mg185 Mg 0.85595 0.38271 0.01226 0.0
C186 C 0.85567 0.44216 0.09194 0.0
C187 C 0.7159 0.4666 0.03223 0.0
O188 O 0.72532 0.478 -0.00441 0.0
O189 O 0.7382 0.35422 0.03807 0.0
O190 O 0.78617 0.32964 0.02935 0.0
O191 O 0.82783 0.48569 -0.01083 0.0
O192 O 0.82719 0.4219 -0.01111 0.0
C193 C 0.74775 0.32318 0.03819 0.0
C194 C 0.84587 0.46225 0.97894 0.0
O195 O 0.73223 0.44517 0.04894 0.0
Mg196 Mg 0.35149 0.77392 0.17642 0.0
O197 O 0.38053 0.81935 0.23351 0.0
O198 O 0.45297 0.86948 0.22972 0.0
Mg199 Mg 0.47064 0.85543 0.16805 0.0
C200 C 0.4174 0.85233 0.24858 0.0
C201 C 0.25032 0.70404 0.19472 0.0
O202 O 0.24087 0.70281 0.15628 0.0
O203 O 0.38808 0.73672 0.19354 0.0
O204 O 0.45942 0.78759 0.18505 0.0
O205 O 0.33487 0.82204 0.14827 0.0
O206 O 0.39958 0.82345 0.14568 0.0
C207 C 0.4297 0.74864 0.19352 0.0
C208 C 0.37565 0.84126 0.13754 0.0
O209 O 0.29064 0.7281 0.20925 0.0
C210 C 0.13656 0.62675 0.23363 0.0
C211 C 0.14728 0.63401 0.27507 0.0
H212 H 0.16088 0.64302 0.1754 0.0
C213 C 0.19167 0.66477 0.28941 0.0
H214 H 0.10263 0.60332 0.22172 0.0
C215 C 0.22478 0.68692 0.26322 0.0
C216 C 0.21445 0.67947 0.22181 0.0
H217 H 0.20092 0.67227 0.32113 0.0
H218 H 0.25852 0.71034 0.27562 0.0
C219 C 0.16991 0.64933 0.20718 0.0
C220 C 0.52596 0.14216 0.38491 0.0
C221 C 0.52964 0.15203 0.42634 0.0
H222 H 0.53436 0.16738 0.32675 0.0
C223 C 0.54455 0.19607 0.44065 0.0
H224 H 0.51457 0.10856 0.37297 0.0
C225 C 0.55621 0.22951 0.41449 0.0
C226 C 0.55281 0.21992 0.37312 0.0
H227 H 0.54657 0.20476 0.47225 0.0
H228 H 0.56736 0.26292 0.42686 0.0
C229 C 0.53745 0.17584 0.35851 0.0
C230 C 0.40067 0.57535 0.5709 0.0
C231 C 0.38957 0.53135 0.57697 0.0
H232 H 0.37649 0.62053 0.56271 0.0
C233 C 0.34435 0.49745 0.57082 0.0
H234 H 0.43531 0.60211 0.57469 0.0
C235 C 0.31065 0.50792 0.56369 0.0
C236 C 0.32139 0.55252 0.56278 0.0
H237 H 0.3344 0.46319 0.57528 0.0
H238 H 0.27599 0.48125 0.5623 0.0
C239 C 0.3669 0.58587 0.56388 0.0
C240 C 0.85758 0.33131 0.75983 0.0
C241 C 0.86795 0.37586 0.76352 0.0
H242 H 0.80636 0.26326 0.74823 0.0
C243 C 0.83529 0.38618 0.75012 0.0
H244 H 0.88187 0.32211 0.7699 0.0
C245 C 0.79165 0.35228 0.73795 0.0
C246 C 0.77985 0.30738 0.73904 0.0
H247 H 0.84258 0.42032 0.7519 0.0
H248 H 0.76644 0.36129 0.7309 0.0
C249 C 0.814 0.29742 0.74761 0.0
C250 C 0.50024 0.87372 0.89568 0.0
C251 C 0.48908 0.86954 0.93561 0.0
H252 H 0.50099 0.8405 0.84086 0.0
C253 C 0.47068 0.82747 0.95106 0.0
H254 H 0.51445 0.90571 0.88296 0.0
C255 C 0.46286 0.79034 0.92712 0.0
C256 C 0.47343 0.79423 0.88707 0.0
H257 H 0.46272 0.82324 -0.01804 0.0
H258 H 0.44858 0.75853 0.94018 0.0
C259 C 0.49239 0.83637 0.87159 0.0
C260 C 0.65045 0.47772 0.11475 0.0
C261 C 0.62894 0.49832 0.09636 0.0
H262 H 0.69435 0.45161 0.10912 0.0
C263 C 0.63731 0.50981 0.0568 0.0
H264 H 0.64573 0.46952 0.14557 0.0
C265 C 0.66575 0.49976 0.0358 0.0
C266 C 0.68642 0.47827 0.05411 0.0
H267 H 0.6213 0.52583 0.04195 0.0
H268 H 0.67122 0.50851 0.00519 0.0
C269 C 0.67864 0.46769 0.0939 0.0
C270 C 0.35497 0.8091 0.48859 0.0
C271 C 0.3864 0.85209 0.50505 0.0
H272 H 0.31259 0.74068 0.49838 0.0
C273 C 0.39868 0.85828 0.54622 0.0
H274 H 0.34357 0.80317 0.45726 0.0
C275 C 0.38009 0.82207 0.57022 0.0
C276 C 0.34904 0.7791 0.55339 0.0
H277 H 0.42283 0.89095 0.55979 0.0
H278 H 0.39003 0.82771 0.60185 0.0
C279 C 0.33687 0.77314 0.51231 0.0
C280 C 0.55823 0.39302 0.69555 0.0
C281 C 0.55331 0.38232 0.65419 0.0
H282 H 0.57728 0.38129 0.75342 0.0
C283 C 0.56406 0.35063 0.63966 0.0
H284 H 0.55029 0.41735 0.70765 0.0
C285 C 0.57996 0.33065 0.66553 0.0
C286 C 0.58494 0.3412 0.70683 0.0
H287 H 0.55945 0.3405 0.60814 0.0
H288 H 0.58757 0.30623 0.65304 0.0
C289 C 0.57388 0.37256 0.72169 0.0
C290 C 0.201 0.50888 0.85632 0.0
C291 C 0.18992 0.54244 0.85361 0.0
H292 H 0.2534 0.49332 0.8619 0.0
C293 C 0.22377 0.58694 0.86279 0.0
H294 H 0.17584 0.47426 0.84936 0.0
C295 C 0.26858 0.59802 0.86951 0.0
C296 C 0.28028 0.56473 0.86721 0.0
H297 H 0.21607 0.61347 0.86158 0.0
H298 H 0.29422 0.63286 0.8733 0.0
C299 C 0.24573 0.51991 0.86313 0.0
C300 C 0.63269 0.22047 0.02797 0.0
C301 C 0.64403 0.18695 0.02447 0.0
H302 H 0.65675 0.29031 0.0358 0.0
C303 C 0.68859 0.19813 0.03454 0.0
H304 H 0.59847 0.21272 0.02098 0.0
C305 C 0.72196 0.24251 0.0431 0.0
C306 C 0.71149 0.27665 0.04174 0.0
H307 H 0.69858 0.17324 0.0321 0.0
H308 H 0.75648 0.25026 0.04762 0.0
C309 C 0.66612 0.26495 0.03659 0.0
C310 C 0.50462 0.69927 0.19092 0.0
C311 C 0.47467 0.65682 0.17276 0.0
H312 H 0.51348 0.76196 0.21257 0.0
C313 C 0.42837 0.64164 0.17057 0.0
H314 H 0.54047 0.71184 0.19287 0.0
C315 C 0.41279 0.67024 0.1821 0.0
C316 C 0.4434 0.71467 0.19537 0.0
H317 H 0.40461 0.60888 0.15687 0.0
H318 H 0.37734 0.65883 0.17677 0.0
C319 C 0.48913 0.72805 0.20199 0.0
C320 C 0.82735 0.50465 0.35912 0.0
C321 C 0.8401 0.47465 0.34434 0.0
H322 H 0.77291 0.51435 0.37329 0.0
C323 C 0.80829 0.42888 0.34126 0.0
H324 H 0.85102 0.5401 0.36171 0.0
C325 C 0.76331 0.41403 0.34778 0.0
C326 C 0.74951 0.44484 0.35715 0.0
H327 H 0.8174 0.40503 0.33022 0.0
H328 H 0.73888 0.37905 0.34158 0.0
C329 C 0.7824 0.48988 0.36537 0.0
C330 C 0.09352 0.54353 0.43256 0.0
C331 C 0.11634 0.58038 0.4098 0.0
H332 H 0.09507 0.51291 0.4863 0.0
C333 C 0.15844 0.61572 0.4247 0.0
H334 H 0.06094 0.51598 0.42168 0.0
C335 C 0.17773 0.61421 0.46131 0.0
C336 C 0.15552 0.5772 0.48404 0.0
H337 H 0.17644 0.6449 0.40805 0.0
H338 H 0.2103 0.64215 0.47165 0.0
C339 C 0.11315 0.54177 0.46933 0.0
C340 C 0.55726 0.15743 0.57862 0.0
C341 C 0.54863 0.11546 0.56363 0.0
H342 H 0.58321 0.20667 0.62731 0.0
C343 C 0.56019 0.09032 0.58792 0.0
H344 H 0.548 0.17724 0.56081 0.0
C345 C 0.58078 0.10739 0.62639 0.0
C346 C 0.58931 0.14949 0.64129 0.0
H347 H 0.55373 0.05781 0.57701 0.0
H348 H 0.58949 0.08747 0.64457 0.0
C349 C 0.57721 0.17417 0.6169 0.0
C350 C 0.46804 0.53445 0.73214 0.0
C351 C 0.48579 0.55888 0.69875 0.0
H352 H 0.44973 0.53585 0.79182 0.0
C353 C 0.50855 0.60562 0.70347 0.0
H354 H 0.45027 0.49842 0.72954 0.0
C355 C 0.5082 0.62712 0.73939 0.0
C356 C 0.48465 0.60202 0.77073 0.0
H357 H 0.52289 0.62525 0.67827 0.0
H358 H 0.52194 0.6628 0.74092 0.0
C359 C 0.46733 0.55588 0.7678 0.0
C360 C 0.9362 0.46192 0.92265 0.0
C361 C 0.92845 0.4757 0.88594 0.0
H362 H 0.91641 0.44816 -0.01786 0.0
C363 C 0.90223 0.49622 0.88422 0.0
H364 H 0.95621 0.44598 0.92501 0.0
C365 C 0.87943 0.49749 0.91719 0.0
C366 C 0.88232 0.47781 0.95192 0.0
H367 H 0.89616 0.50756 0.85636 0.0
H368 H 0.8558 0.50923 0.9139 0.0
C369 C 0.91312 0.46281 0.95535 0.0
C370 C 0.46427 0.93685 0.09042 0.0
C371 C 0.44463 0.9277 0.05118 0.0
H372 H 0.45606 0.91681 0.15014 0.0
C373 C 0.39779 0.89971 0.04468 0.0
H374 H 0.50014 0.95836 0.09669 0.0
C375 C 0.37255 0.87564 0.07557 0.0
C376 C 0.39408 0.87954 0.11304 0.0
H377 H 0.38158 0.89284 0.01488 0.0
H378 H 0.33777 0.85008 0.06875 0.0
C379 C 0.43908 0.91285 0.12114 0.0
C380 C 0.50669 0.41014 0.19816 0.0
C381 C 0.52797 0.45668 0.2053 0.0
H382 H 0.49744 0.3494 0.22029 0.0
C383 C 0.54352 0.47534 0.24455 0.0
H384 H 0.49352 0.39473 0.16834 0.0
C385 C 0.54537 0.44933 0.27417 0.0
C386 C 0.53155 0.40449 0.26494 0.0
H387 H 0.55974 0.51093 0.25134 0.0
H388 H 0.56203 0.46538 0.30302 0.0
C389 C 0.50864 0.38409 0.22791 0.0
C390 C 0.45712 0.92576 0.34547 0.0
C391 C 0.4214 0.90092 0.36908 0.0
H392 H 0.48427 0.92959 0.28858 0.0
C393 C 0.38393 0.86148 0.35239 0.0
H394 H 0.48628 0.95633 0.35782 0.0
C395 C 0.38252 0.84635 0.31316 0.0
C396 C 0.41875 0.87017 0.28964 0.0
H397 H 0.35571 0.84203 0.36994 0.0
H398 H 0.35324 0.81545 0.30158 0.0
C399 C 0.45597 0.91031 0.30605 0.0
C400 C 0.549 0.38811 0.501 0.0
C401 C 0.54638 0.42457 0.5168 0.0
H402 H 0.5641 0.35893 0.45161 0.0
C403 C 0.55648 0.46034 0.49324 0.0
H404 H 0.54066 0.35978 0.5184 0.0
C405 C 0.57026 0.46004 0.4547 0.0
C406 C 0.57336 0.42363 0.4391 0.0
H407 H 0.5545 0.48871 0.50488 0.0
H408 H 0.5784 0.48821 0.43718 0.0
C409 C 0.56219 0.38756 0.46262 0.0
C410 C 0.10864 0.53289 0.6994 0.0
C411 C 0.11671 0.56052 0.734 0.0
H412 H 0.12685 0.52876 0.64017 0.0
C413 C 0.14135 0.60693 0.73188 0.0
H414 H 0.08978 0.49702 0.70009 0.0
C415 C 0.16267 0.62511 0.69738 0.0
C416 C 0.15991 0.59698 0.66497 0.0
H417 H 0.1477 0.62889 0.75812 0.0
H418 H 0.18518 0.66073 0.69784 0.0
C419 C 0.13031 0.55104 0.66517 0.0
C420 C 0.58197 0.10165 0.86697 0.0
C421 C 0.56025 0.11047 0.89736 0.0
H422 H 0.60684 0.11713 0.80923 0.0
C423 C 0.53744 0.13348 0.88884 0.0
H424 H 0.59987 0.08404 0.8727 0.0
C425 C 0.54126 0.15227 0.85225 0.0
C426 C 0.56852 0.14879 0.82418 0.0
H427 H 0.52019 0.14038 0.91177 0.0
H428 H 0.52708 0.17352 0.8479 0.0
C429 C 0.58627 0.1209 0.83068 0.0
C430 C 0.478 0.5673 0.01455 0.0
C431 C 0.49035 0.60626 0.03837 0.0
H432 H 0.45462 0.53343 0.95637 0.0
C433 C 0.49194 0.64279 0.02074 0.0
H434 H 0.47676 0.53881 0.02762 0.0
C435 C 0.47988 0.64005 0.98027 0.0
C436 C 0.46549 0.60049 0.9565 0.0
H437 H 0.50207 0.67344 0.03845 0.0
H438 H 0.48062 0.66865 0.96795 0.0
C439 C 0.46532 0.5643 0.97391 0.0
C440 C 0.92432 0.47308 0.19153 0.0
C441 C 0.90222 0.48986 0.21416 0.0
H442 H 0.92675 0.44439 0.13475 0.0
C443 C 0.86733 0.49398 0.19579 0.0
H444 H 0.95131 0.46966 0.20528 0.0
C445 C 0.85339 0.47989 0.15579 0.0
C446 C 0.87381 0.46098 0.13327 0.0
H447 H 0.85006 0.50716 0.21277 0.0
H448 H 0.82561 0.48261 0.14294 0.0
C449 C 0.91007 0.45851 0.15134 0.0
loop_
_geom_bond_atom_site_label_1
_geom_bond_atom_site_label_2
_geom_bond_distance
_geom_bond_site_symmetry_2
_ccdc_geom_bond_type
H0 C8 0.930 . S
H1 C11 0.930 . S
H2 C13 0.930 . S
H3 C14 0.970 1_655 S
H4 C14 0.970 . S
H5 C16 0.930 . S
H6 C18 0.930 . S
H7 C20 0.930 . S
C8 H0 0.930 . S
C8 C9 1.382 . S
C8 C10 1.426 . S
C9 C8 1.382 . S
C9 C13 1.389 . S
C10 C8 1.426 . S
C10 C11 1.375 . S
C10 C14 1.532 1_655 S
C11 H1 0.930 . S
C11 C10 1.375 . S
C11 C12 1.416 . S
C12 C11 1.416 . S
C12 C13 1.371 . S
C13 H2 0.930 . S
C13 C9 1.389 . S
C13 C12 1.371 . S
C14 H3 0.970 1_455 S
C14 H4 0.970 . S
C14 C10 1.532 1_455 S
C14 C15 1.499 . S
C15 C14 1.499 . S
C15 C16 1.370 . S
C15 C20 1.415 . S
C16 H5 0.930 . S
C16 C15 1.370 . S
C16 C17 1.407 . S
C17 C16 1.407 . S
C17 C18 1.365 . S
C18 H6 0.930 . S
C18 C17 1.365 . S
C18 C19 1.393 . S
C19 C18 1.393 . S
C19 C20 1.387 . S
C20 H7 0.930 . S
C20 C15 1.415 . S
C20 C19 1.387 . S
H21 C29 0.930 . S
H22 C32 0.930 . S
H23 C34 0.930 . S
H24 C35 0.970 . S
H25 C35 0.970 . S
H26 C37 0.930 . S
H27 C39 0.930 . S
H28 C41 0.930 . S
C29 H21 0.930 . S
C29 C30 1.382 . S
C29 C31 1.426 . S
C30 C29 1.382 . S
C30 C34 1.389 . S
C31 C29 1.426 . S
C31 C32 1.375 . S
C31 C35 1.532 1_565 S
C32 H22 0.930 . S
C32 C31 1.375 . S
C32 C33 1.416 . S
C33 C32 1.416 . S
C33 C34 1.371 . S
C34 H23 0.930 . S
C34 C30 1.389 . S
C34 C33 1.371 . S
C35 H24 0.970 . S
C35 H25 0.970 . S
C35 C31 1.532 1_545 S
C35 C36 1.499 . S
C36 C35 1.499 . S
C36 C37 1.370 . S
C36 C41 1.415 . S
C37 H26 0.930 . S
C37 C36 1.370 . S
C37 C38 1.407 . S
C38 C37 1.407 . S
C38 C39 1.365 . S
C39 H27 0.930 . S
C39 C38 1.365 . S
C39 C40 1.393 . S
C40 C39 1.393 . S
C40 C41 1.387 . S
C41 H28 0.930 . S
C41 C36 1.415 . S
C41 C40 1.387 . S
H42 C50 0.930 . S
H43 C53 0.930 . S
H44 C55 0.930 . S
H45 C56 0.970 . S
H46 C56 0.970 . S
H47 C58 0.930 . S
H48 C60 0.930 . S
H49 C62 0.930 . S
C50 H42 0.930 . S
C50 C51 1.382 . S
C50 C52 1.426 . S
C51 C50 1.382 . S
C51 C55 1.389 . S
C52 C50 1.426 . S
C52 C53 1.375 . S
C52 C56 1.532 . S
C53 H43 0.930 . S
C53 C52 1.375 . S
C53 C54 1.416 . S
C54 C53 1.416 . S
C54 C55 1.371 . S
C55 H44 0.930 . S
C55 C51 1.389 . S
C55 C54 1.371 . S
C56 H45 0.970 . S
C56 H46 0.970 . S
C56 C52 1.532 . S
C56 C57 1.499 . S
C57 C56 1.499 . S
C57 C58 1.370 . S
C57 C62 1.415 . S
C58 H47 0.930 . S
C58 C57 1.370 . S
C58 C59 1.407 . S
C59 C58 1.407 . S
C59 C60 1.365 . S
C60 H48 0.930 . S
C60 C59 1.365 . S
C60 C61 1.393 . S
C61 C60 1.393 . S
C61 C62 1.387 . S
C62 H49 0.930 . S
C62 C57 1.415 . S
C62 C61 1.387 . S
H63 C71 0.930 . S
H64 C74 0.930 . S
H65 C76 0.930 . S
H66 C77 0.970 . S
H67 C77 0.970 . S
H68 C79 0.930 . S
H69 C81 0.930 . S
H70 C83 0.930 . S
C71 H63 0.930 . S
C71 C72 1.382 . S
C71 C73 1.426 . S
C72 C71 1.382 . S
C72 C76 1.389 . S
C73 C71 1.426 . S
C73 C74 1.375 . S
C73 C77 1.532 1_655 S
C74 H64 0.930 . S
C74 C73 1.375 . S
C74 C75 1.416 . S
C75 C74 1.416 . S
C75 C76 1.371 . S
C76 H65 0.930 . S
C76 C72 1.389 . S
C76 C75 1.371 . S
C77 H66 0.970 . S
C77 H67 0.970 . S
C77 C73 1.532 1_455 S
C77 C78 1.499 . S
C78 C77 1.499 . S
C78 C79 1.370 . S
C78 C83 1.415 . S
C79 H68 0.930 . S
C79 C78 1.370 . S
C79 C80 1.407 . S
C80 C79 1.407 . S
C80 C81 1.365 . S
C81 H69 0.930 . S
C81 C80 1.365 . S
C81 C82 1.393 . S
C82 C81 1.393 . S
C82 C83 1.387 . S
C83 H70 0.930 . S
C83 C78 1.415 . S
C83 C82 1.387 . S
H84 C92 0.930 . S
H85 C95 0.930 . S
H86 C97 0.930 . S
H87 C98 0.970 1_554 S
H88 C98 0.970 . S
H89 C100 0.930 . S
H90 C102 0.930 . S
H91 C104 0.930 . S
C92 H84 0.930 . S
C92 C93 1.382 . S
C92 C94 1.426 1_554 S
C93 C92 1.382 . S
C93 C97 1.389 1_554 S
C94 C92 1.426 1_556 S
C94 C95 1.375 . S
C94 C98 1.532 . S
C95 H85 0.930 . S
C95 C94 1.375 . S
C95 C96 1.416 . S
C96 C95 1.416 . S
C96 C97 1.371 . S
C97 H86 0.930 . S
C97 C93 1.389 1_556 S
C97 C96 1.371 . S
C98 H87 0.970 1_556 S
C98 H88 0.970 . S
C98 C94 1.532 . S
C98 C99 1.499 1_546 S
C99 C98 1.499 1_564 S
C99 C100 1.370 . S
C99 C104 1.415 1_554 S
C100 H89 0.930 . S
C100 C99 1.370 . S
C100 C101 1.407 . S
C101 C100 1.407 . S
C101 C102 1.365 . S
C102 H90 0.930 . S
C102 C101 1.365 . S
C102 C103 1.393 1_554 S
C103 C102 1.393 1_556 S
C103 C104 1.387 . S
C104 H91 0.930 . S
C104 C99 1.415 1_556 S
C104 C103 1.387 . S
H105 C113 0.930 . S
H106 C116 0.930 . S
H107 C118 0.930 . S
H108 C119 0.970 . S
H109 C119 0.970 . S
H110 C121 0.930 . S
H111 C123 0.930 . S
H112 C125 0.930 . S
C113 H105 0.930 . S
C113 C114 1.382 . S
C113 C115 1.426 . S
C114 C113 1.382 . S
C114 C118 1.389 . S
C115 C113 1.426 . S
C115 C116 1.375 . S
C115 C119 1.532 . S
C116 H106 0.930 . S
C116 C115 1.375 . S
C116 C117 1.416 . S
C117 C116 1.416 . S
C117 C118 1.371 . S
C118 H107 0.930 . S
C118 C114 1.389 . S
C118 C117 1.371 . S
C119 H108 0.970 . S
C119 H109 0.970 . S
C119 C115 1.532 . S
C119 C120 1.499 . S
C120 C119 1.499 . S
C120 C121 1.370 . S
C120 C125 1.415 . S
C121 H110 0.930 . S
C121 C120 1.370 . S
C121 C122 1.407 . S
C122 C121 1.407 . S
C122 C123 1.365 . S
C123 H111 0.930 . S
C123 C122 1.365 . S
C123 C124 1.393 . S
C124 C123 1.393 . S
C124 C125 1.387 . S
C125 H112 0.930 . S
C125 C120 1.415 . S
C125 C124 1.387 . S
Mg126 O127 2.028 . S
Mg126 O133 1.986 . S
Mg126 O135 2.114 . S
Mg126 O136 2.251 . S
Mg126 O139 2.010 . S
O127 Mg126 2.028 . S
O127 C130 1.250 . S
O128 Mg129 2.028 . S
O128 C130 1.248 . S
Mg129 O128 2.028 . S
Mg129 O134 2.032 . S
Mg129 O136 2.079 . S
C130 O127 1.250 . S
C130 O128 1.248 . S
C131 O132 1.264 . S
C131 O139 1.249 . S
O132 C131 1.264 . S
O133 Mg126 1.986 . S
O133 C137 1.246 . S
O134 Mg129 2.032 . S
O134 C137 1.259 . S
O135 Mg126 2.114 . S
O135 C138 1.252 . S
O136 Mg126 2.251 . S
O136 Mg129 2.079 . S
O136 C138 1.273 . S
C137 O133 1.246 . S
C137 O134 1.259 . S
C138 O135 1.252 . S
C138 O136 1.273 . S
O139 Mg126 2.010 . S
O139 C131 1.249 . S
Mg140 O141 2.028 . S
Mg140 O147 1.986 . S
Mg140 O149 2.114 . S
Mg140 O150 2.251 . S
Mg140 O153 2.010 . S
O141 Mg140 2.028 . S
O141 C144 1.250 . S
O142 Mg143 2.028 . S
O142 C144 1.248 . S
Mg143 O142 2.028 . S
Mg143 O148 2.032 . S
Mg143 O150 2.079 . S
C144 O141 1.250 . S
C144 O142 1.248 . S
C145 O146 1.264 . S
C145 O153 1.249 . S
O146 C145 1.264 . S
O147 Mg140 1.986 . S
O147 C151 1.246 . S
O148 Mg143 2.032 . S
O148 C151 1.259 . S
O149 Mg140 2.114 . S
O149 C152 1.252 . S
O150 Mg140 2.251 . S
O150 Mg143 2.079 . S
O150 C152 1.273 . S
C151 O147 1.246 . S
C151 O148 1.259 . S
C152 O149 1.252 . S
C152 O150 1.273 . S
O153 Mg140 2.010 . S
O153 C145 1.249 . S
Mg154 O155 2.028 . S
Mg154 O161 1.986 . S
Mg154 O163 2.114 . S
Mg154 O164 2.251 . S
Mg154 O167 2.010 . S
O155 Mg154 2.028 . S
O155 C158 1.250 . S
O156 Mg157 2.028 . S
O156 C158 1.248 . S
Mg157 O156 2.028 . S
Mg157 O162 2.032 . S
Mg157 O164 2.079 . S
C158 O155 1.250 . S
C158 O156 1.248 . S
C159 O160 1.264 . S
C159 O167 1.249 . S
O160 C159 1.264 . S
O161 Mg154 1.986 . S
O161 C165 1.246 . S
O162 Mg157 2.032 . S
O162 C165 1.259 . S
O163 Mg154 2.114 . S
O163 C166 1.252 . S
O164 Mg154 2.251 . S
O164 Mg157 2.079 . S
O164 C166 1.273 . S
C165 O161 1.246 . S
C165 O162 1.259 . S
C166 O163 1.252 . S
C166 O164 1.273 . S
O167 Mg154 2.010 . S
O167 C159 1.249 . S
Mg168 O169 2.028 . S
Mg168 O175 1.986 . S
Mg168 O177 2.114 . S
Mg168 O178 2.251 . S
Mg168 O181 2.010 . S
O169 Mg168 2.028 . S
O169 C172 1.250 . S
O170 Mg171 2.028 . S
O170 C172 1.248 . S
Mg171 O170 2.028 . S
Mg171 O176 2.032 . S
Mg171 O178 2.079 . S
C172 O169 1.250 . S
C172 O170 1.248 . S
C173 O174 1.264 . S
C173 O181 1.249 . S
O174 C173 1.264 . S
O175 Mg168 1.986 . S
O175 C179 1.246 . S
O176 Mg171 2.032 . S
O176 C179 1.259 . S
O177 Mg168 2.114 . S
O177 C180 1.252 . S
O178 Mg168 2.251 . S
O178 Mg171 2.079 . S
O178 C180 1.273 . S
C179 O175 1.246 . S
C179 O176 1.259 . S
C180 O177 1.252 . S
C180 O178 1.273 . S
O181 Mg168 2.010 . S
O181 C173 1.249 . S
Mg182 O183 2.028 . S
Mg182 O189 1.986 . S
Mg182 O191 2.114 . S
Mg182 O192 2.251 . S
Mg182 O195 2.010 . S
O183 Mg182 2.028 . S
O183 C186 1.250 . S
O184 Mg185 2.028 . S
O184 C186 1.248 . S
Mg185 O184 2.028 . S
Mg185 O190 2.032 . S
Mg185 O192 2.079 . S
C186 O183 1.250 . S
C186 O184 1.248 . S
C187 O188 1.264 . S
C187 O195 1.249 . S
O188 C187 1.264 . S
O189 Mg182 1.986 . S
O189 C193 1.246 . S
O190 Mg185 2.032 . S
O190 C193 1.259 . S
O191 Mg182 2.114 . S
O191 C194 1.252 . S
O192 Mg182 2.251 . S
O192 Mg185 2.079 . S
O192 C194 1.273 . S
C193 O189 1.246 . S
C193 O190 1.259 . S
C194 O191 1.252 . S
C194 O192 1.273 . S
O195 Mg182 2.010 . S
O195 C187 1.249 . S
Mg196 O197 2.028 . S
Mg196 O203 1.986 . S
Mg196 O205 2.114 . S
Mg196 O206 2.251 . S
Mg196 O209 2.010 . S
O197 Mg196 2.028 . S
O197 C200 1.250 . S
O198 Mg199 2.028 . S
O198 C200 1.248 . S
Mg199 O198 2.028 . S
Mg199 O204 2.032 . S
Mg199 O206 2.079 . S
C200 O197 1.250 . S
C200 O198 1.248 . S
C201 O202 1.264 . S
C201 O209 1.249 . S
O202 C201 1.264 . S
O203 Mg196 1.986 . S
O203 C207 1.246 . S
O204 Mg199 2.032 . S
O204 C207 1.259 . S
O205 Mg196 2.114 . S
O205 C208 1.252 . S
O206 Mg196 2.251 . S
O206 Mg199 2.079 . S
O206 C208 1.273 . S
C207 O203 1.246 . S
C207 O204 1.259 . S
C208 O205 1.252 . S
C208 O206 1.273 . S
O209 Mg196 2.010 . S
O209 C201 1.249 . S
C210 C211 1.387 . S
C210 H214 0.950 . S
C210 C219 1.390 . S
C211 C210 1.387 . S
C211 C213 1.387 . S
H212 C219 0.950 . S
C213 C211 1.387 . S
C213 C215 1.390 . S
C213 H217 0.950 . S
H214 C210 0.950 . S
C215 C213 1.390 . S
C215 C216 1.387 . S
C215 H218 0.950 . S
C216 C215 1.387 . S
C216 C219 1.387 . S
H217 C213 0.950 . S
H218 C215 0.950 . S
C219 C210 1.390 . S
C219 H212 0.950 . S
C219 C216 1.387 . S
C220 C221 1.387 . S
C220 H224 0.950 . S
C220 C229 1.390 . S
C221 C220 1.387 . S
C221 C223 1.387 . S
H222 C229 0.950 . S
C223 C221 1.387 . S
C223 C225 1.390 . S
C223 H227 0.950 . S
H224 C220 0.950 . S
C225 C223 1.390 . S
C225 C226 1.387 . S
C225 H228 0.950 . S
C226 C225 1.387 . S
C226 C229 1.387 . S
H227 C223 0.950 . S
H228 C225 0.950 . S
C229 C220 1.390 . S
C229 H222 0.950 . S
C229 C226 1.387 . S
C230 C231 1.387 . S
C230 H234 0.950 . S
C230 C239 1.390 . S
C231 C230 1.387 . S
C231 C233 1.387 . S
H232 C239 0.950 . S
C233 C231 1.387 . S
C233 C235 1.390 . S
C233 H237 0.950 . S
H234 C230 0.950 . S
C235 C233 1.390 . S
C235 C236 1.387 . S
C235 H238 0.950 . S
C236 C235 1.387 . S
C236 C239 1.387 . S
H237 C233 0.950 . S
H238 C235 0.950 . S
C239 C230 1.390 . S
C239 H232 0.950 . S
C239 C236 1.387 . S
C240 C241 1.387 . S
C240 H244 0.950 . S
C240 C249 1.390 . S
C241 C240 1.387 . S
C241 C243 1.387 . S
H242 C249 0.950 . S
C243 C241 1.387 . S
C243 C245 1.390 . S
C243 H247 0.950 . S
H244 C240 0.950 . S
C245 C243 1.390 . S
C245 C246 1.387 . S
C245 H248 0.950 . S
C246 C245 1.387 . S
C246 C249 1.387 . S
H247 C243 0.950 . S
H248 C245 0.950 . S
C249 C240 1.390 . S
C249 H242 0.950 . S
C249 C246 1.387 . S
C250 C251 1.387 . S
C250 H254 0.950 . S
C250 C259 1.390 . S
C251 C250 1.387 . S
C251 C253 1.387 . S
H252 C259 0.950 . S
C253 C251 1.387 . S
C253 C255 1.390 . S
C253 H257 0.950 1_556 S
H254 C250 0.950 . S
C255 C253 1.390 . S
C255 C256 1.387 . S
C255 H258 0.950 . S
C256 C255 1.387 . S
C256 C259 1.387 . S
H257 C253 0.950 1_554 S
H258 C255 0.950 . S
C259 C250 1.390 . S
C259 H252 0.950 . S
C259 C256 1.387 . S
C260 C261 1.387 . S
C260 H264 0.950 . S
C260 C269 1.390 . S
C261 C260 1.387 . S
C261 C263 1.387 . S
H262 C269 0.950 . S
C263 C261 1.387 . S
C263 C265 1.390 . S
C263 H267 0.950 . S
H264 C260 0.950 . S
C265 C263 1.390 . S
C265 C266 1.387 . S
C265 H268 0.950 . S
C266 C265 1.387 . S
C266 C269 1.387 . S
H267 C263 0.950 . S
H268 C265 0.950 . S
C269 C260 1.390 . S
C269 H262 0.950 . S
C269 C266 1.387 . S
C270 C271 1.387 . S
C270 H274 0.950 . S
C270 C279 1.390 . S
C271 C270 1.387 . S
C271 C273 1.387 . S
H272 C279 0.950 . S
C273 C271 1.387 . S
C273 C275 1.390 . S
C273 H277 0.950 . S
H274 C270 0.950 . S
C275 C273 1.390 . S
C275 C276 1.387 . S
C275 H278 0.950 . S
C276 C275 1.387 . S
C276 C279 1.387 . S
H277 C273 0.950 . S
H278 C275 0.950 . S
C279 C270 1.390 . S
C279 H272 0.950 . S
C279 C276 1.387 . S
C280 C281 1.387 . S
C280 H284 0.950 . S
C280 C289 1.390 . S
C281 C280 1.387 . S
C281 C283 1.387 . S
H282 C289 0.950 . S
C283 C281 1.387 . S
C283 C285 1.390 . S
C283 H287 0.950 . S
H284 C280 0.950 . S
C285 C283 1.390 . S
C285 C286 1.387 . S
C285 H288 0.950 . S
C286 C285 1.387 . S
C286 C289 1.387 . S
H287 C283 0.950 . S
H288 C285 0.950 . S
C289 C280 1.390 . S
C289 H282 0.950 . S
C289 C286 1.387 . S
C290 C291 1.387 . S
C290 H294 0.950 . S
C290 C299 1.390 . S
C291 C290 1.387 . S
C291 C293 1.387 . S
H292 C299 0.950 . S
C293 C291 1.387 . S
C293 C295 1.390 . S
C293 H297 0.950 . S
H294 C290 0.950 . S
C295 C293 1.390 . S
C295 C296 1.387 . S
C295 H298 0.950 . S
C296 C295 1.387 . S
C296 C299 1.387 . S
H297 C293 0.950 . S
H298 C295 0.950 . S
C299 C290 1.390 . S
C299 H292 0.950 . S
C299 C296 1.387 . S
C300 C301 1.387 1_556 S
C300 H304 0.950 . S
C300 C309 1.390 1_556 S
C301 C300 1.387 1_554 S
C301 C303 1.387 . S
H302 C309 0.950 1_556 S
C303 C301 1.387 . S
C303 C305 1.390 . S
C303 H307 0.950 . S
H304 C300 0.950 . S
C305 C303 1.390 . S
C305 C306 1.387 . S
C305 H308 0.950 . S
C306 C305 1.387 . S
C306 C309 1.387 . S
H307 C303 0.950 . S
H308 C305 0.950 . S
C309 C300 1.390 1_554 S
C309 H302 0.950 1_554 S
C309 C306 1.387 . S
C310 C311 1.387 . S
C310 H314 0.950 . S
C310 C319 1.390 . S
C311 C310 1.387 . S
C311 C313 1.387 . S
H312 C319 0.950 . S
C313 C311 1.387 . S
C313 C315 1.390 . S
C313 H317 0.950 . S
H314 C310 0.950 . S
C315 C313 1.390 . S
C315 C316 1.387 . S
C315 H318 0.950 . S
C316 C315 1.387 . S
C316 C319 1.387 . S
H317 C313 0.950 . S
H318 C315 0.950 . S
C319 C310 1.390 . S
C319 H312 0.950 . S
C319 C316 1.387 . S
C320 C321 1.387 . S
C320 H324 0.950 . S
C320 C329 1.390 . S
C321 C320 1.387 . S
C321 C323 1.387 . S
H322 C329 0.950 . S
C323 C321 1.387 . S
C323 C325 1.390 . S
C323 H327 0.950 . S
H324 C320 0.950 . S
C325 C323 1.390 . S
C325 C326 1.387 . S
C325 H328 0.950 . S
C326 C325 1.387 . S
C326 C329 1.387 . S
H327 C323 0.950 . S
H328 C325 0.950 . S
C329 C320 1.390 . S
C329 H322 0.950 . S
C329 C326 1.387 . S
C330 C331 1.387 . S
C330 H334 0.950 . S
C330 C339 1.390 . S
C331 C330 1.387 . S
C331 C333 1.387 . S
H332 C339 0.950 . S
C333 C331 1.387 . S
C333 C335 1.390 . S
C333 H337 0.950 . S
H334 C330 0.950 . S
C335 C333 1.390 . S
C335 C336 1.387 . S
C335 H338 0.950 . S
C336 C335 1.387 . S
C336 C339 1.387 . S
H337 C333 0.950 . S
H338 C335 0.950 . S
C339 C330 1.390 . S
C339 H332 0.950 . S
C339 C336 1.387 . S
C340 C341 1.387 . S
C340 H344 0.950 . S
C340 C349 1.390 . S
C341 C340 1.387 . S
C341 C343 1.387 . S
H342 C349 0.950 . S
C343 C341 1.387 . S
C343 C345 1.390 . S
C343 H347 0.950 . S
H344 C340 0.950 . S
C345 C343 1.390 . S
C345 C346 1.387 . S
C345 H348 0.950 . S
C346 C345 1.387 . S
C346 C349 1.387 . S
H347 C343 0.950 . S
H348 C345 0.950 . S
C349 C340 1.390 . S
C349 H342 0.950 . S
C349 C346 1.387 . S
C350 C351 1.387 . S
C350 H354 0.950 . S
C350 C359 1.390 . S
C351 C350 1.387 . S
C351 C353 1.387 . S
H352 C359 0.950 . S
C353 C351 1.387 . S
C353 C355 1.390 . S
C353 H357 0.950 . S
H354 C350 0.950 . S
C355 C353 1.390 . S
C355 C356 1.387 . S
C355 H358 0.950 . S
C356 C355 1.387 . S
C356 C359 1.387 . S
H357 C353 0.950 . S
H358 C355 0.950 . S
C359 C350 1.390 . S
C359 H352 0.950 . S
C359 C356 1.387 . S
C360 C361 1.387 . S
C360 H364 0.950 . S
C360 C369 1.390 . S
C361 C360 1.387 . S
C361 C363 1.387 . S
H362 C369 0.950 1_554 S
C363 C361 1.387 . S
C363 C365 1.390 . S
C363 H367 0.950 . S
H364 C360 0.950 . S
C365 C363 1.390 . S
C365 C366 1.387 . S
C365 H368 0.950 . S
C366 C365 1.387 . S
C366 C369 1.387 . S
H367 C363 0.950 . S
H368 C365 0.950 . S
C369 C360 1.390 . S
C369 H362 0.950 1_556 S
C369 C366 1.387 . S
C370 C371 1.387 . S
C370 H374 0.950 . S
C370 C379 1.390 . S
C371 C370 1.387 . S
C371 C373 1.387 . S
H372 C379 0.950 . S
C373 C371 1.387 . S
C373 C375 1.390 . S
C373 H377 0.950 . S
H374 C370 0.950 . S
C375 C373 1.390 . S
C375 C376 1.387 . S
C375 H378 0.950 . S
C376 C375 1.387 . S
C376 C379 1.387 . S
H377 C373 0.950 . S
H378 C375 0.950 . S
C379 C370 1.390 . S
C379 H372 0.950 . S
C379 C376 1.387 . S
C380 C381 1.387 . S
C380 H384 0.950 . S
C380 C389 1.390 . S
C381 C380 1.387 . S
C381 C383 1.387 . S
H382 C389 0.950 . S
C383 C381 1.387 . S
C383 C385 1.390 . S
C383 H387 0.950 . S
H384 C380 0.950 . S
C385 C383 1.390 . S
C385 C386 1.387 . S
C385 H388 0.950 . S
C386 C385 1.387 . S
C386 C389 1.387 . S
H387 C383 0.950 . S
H388 C385 0.950 . S
C389 C380 1.390 . S
C389 H382 0.950 . S
C389 C386 1.387 . S
C390 C391 1.387 . S
C390 H394 0.950 . S
C390 C399 1.390 . S
C391 C390 1.387 . S
C391 C393 1.387 . S
H392 C399 0.950 . S
C393 C391 1.387 . S
C393 C395 1.390 . S
C393 H397 0.950 . S
H394 C390 0.950 . S
C395 C393 1.390 . S
C395 C396 1.387 . S
C395 H398 0.950 . S
C396 C395 1.387 . S
C396 C399 1.387 . S
H397 C393 0.950 . S
H398 C395 0.950 . S
C399 C390 1.390 . S
C399 H392 0.950 . S
C399 C396 1.387 . S
C400 C401 1.387 . S
C400 H404 0.950 . S
C400 C409 1.390 . S
C401 C400 1.387 . S
C401 C403 1.387 . S
H402 C409 0.950 . S
C403 C401 1.387 . S
C403 C405 1.390 . S
C403 H407 0.950 . S
H404 C400 0.950 . S
C405 C403 1.390 . S
C405 C406 1.387 . S
C405 H408 0.950 . S
C406 C405 1.387 . S
C406 C409 1.387 . S
H407 C403 0.950 . S
H408 C405 0.950 . S
C409 C400 1.390 . S
C409 H402 0.950 . S
C409 C406 1.387 . S
C410 C411 1.387 . S
C410 H414 0.950 . S
C410 C419 1.390 . S
C411 C410 1.387 . S
C411 C413 1.387 . S
H412 C419 0.950 . S
C413 C411 1.387 . S
C413 C415 1.390 . S
C413 H417 0.950 . S
H414 C410 0.950 . S
C415 C413 1.390 . S
C415 C416 1.387 . S
C415 H418 0.950 . S
C416 C415 1.387 . S
C416 C419 1.387 . S
H417 C413 0.950 . S
H418 C415 0.950 . S
C419 C410 1.390 . S
C419 H412 0.950 . S
C419 C416 1.387 . S
C420 C421 1.387 . S
C420 H424 0.950 . S
C420 C429 1.390 . S
C421 C420 1.387 . S
C421 C423 1.387 . S
H422 C429 0.950 . S
C423 C421 1.387 . S
C423 C425 1.390 . S
C423 H427 0.950 . S
H424 C420 0.950 . S
C425 C423 1.390 . S
C425 C426 1.387 . S
C425 H428 0.950 . S
C426 C425 1.387 . S
C426 C429 1.387 . S
H427 C423 0.950 . S
H428 C425 0.950 . S
C429 C420 1.390 . S
C429 H422 0.950 . S
C429 C426 1.387 . S
C430 C431 1.387 . S
C430 H434 0.950 . S
C430 C439 1.390 . S
C431 C430 1.387 . S
C431 C433 1.387 . S
H432 C439 0.950 1_556 S
C433 C431 1.387 . S
C433 C435 1.390 . S
C433 H437 0.950 . S
H434 C430 0.950 . S
C435 C433 1.390 . S
C435 C436 1.387 1_554 S
C435 H438 0.950 . S
C436 C435 1.387 1_556 S
C436 C439 1.387 1_556 S
H437 C433 0.950 . S
H438 C435 0.950 . S
C439 C430 1.390 . S
C439 H432 0.950 1_554 S
C439 C436 1.387 1_554 S
C440 C441 1.387 . S
C440 H444 0.950 . S
C440 C449 1.390 . S
C441 C440 1.387 . S
C441 C443 1.387 . S
H442 C449 0.950 . S
C443 C441 1.387 . S
C443 C445 1.390 . S
C443 H447 0.950 . S
H444 C440 0.950 . S
C445 C443 1.390 . S
C445 C446 1.387 . S
C445 H448 0.950 . S
C446 C445 1.387 . S
C446 C449 1.387 . S
H447 C443 0.950 . S
H448 C445 0.950 . S
C449 C440 1.390 . S
C449 H442 0.950 . S
C449 C446 1.387 . S
C216 C201 1.313 . S
C211 C19 1.448 . S
C221 C40 1.469 . S
C226 C131 1.337 . S
C231 C51 1.437 . S
C236 C151 1.556 . S
C241 C72 1.402 . S
C246 C165 1.501 . S
C256 C173 1.280 . S
C251 C103 1.421 . S
C261 C114 1.413 . S
C266 C187 1.292 . S
C271 C30 1.441 . S
C276 C145 1.325 . S
C281 C61 1.427 . S
C286 C159 1.289 . S
C291 C82 1.400 . S
C296 C179 1.484 . S
C306 C193 1.519 . S
C301 C93 1.403 . S
C316 C207 1.524 . S
C311 C124 1.441 . S
C326 C137 1.542 . S
C321 C9 1.440 . S
C331 C17 1.424 . S
C336 C144 1.483 . S
C341 C38 1.422 . S
C346 C158 1.478 . S
C356 C180 1.491 . S
C351 C54 1.408 . S
C361 C75 1.416 . S
C366 C194 1.506 1_556 S
C376 C208 1.473 . S
C371 C101 1.381 . S
C386 C138 1.468 . S
C381 C117 1.379 . S
C396 C200 1.464 . S
C391 C33 1.406 . S
C401 C59 1.417 . S
C406 C130 1.475 . S
C416 C152 1.499 . S
C411 C80 1.415 . S
C421 C96 1.403 . S
C426 C166 1.491 . S
C431 C122 1.455 . S
C436 C172 1.506 . S
C441 C12 1.445 . S
C446 C186 1.501 . S
