# Generated by pormake.
# Topology zzz, (3,6)-cn, num edge types: 1
# Building blocks:
#     Node 0, Type 0, BuildingBlock: KAKCAD_clean_linker_0, # of connection points: 3
#     Node 1, Type 0, BuildingBlock: KAKCAD_clean_linker_0, # of connection points: 3
#     Node 2, Type 0, BuildingBlock: KAKCAD_clean_linker_0, # of connection points: 3
#     Node 3, Type 0, BuildingBlock: KAKCAD_clean_linker_0, # of connection points: 3
#     Node 4, Type 0, BuildingBlock: KAKCAD_clean_linker_0, # of connection points: 3
#     Node 5, Type 0, BuildingBlock: KAKCAD_clean_linker_0, # of connection points: 3
#     Node 6, Type 0, BuildingBlock: KAKCAD_clean_linker_0, # of connection points: 3
#     Node 7, Type 0, BuildingBlock: KAKCAD_clean_linker_0, # of connection points: 3
#     Node 8, Type 1, BuildingBlock: PAMTOO_clean_sbu_0, # of connection points: 6
#     Node 9, Type 1, BuildingBlock: PAMTOO_clean_sbu_0, # of connection points: 6
#     Node 10, Type 1, BuildingBlock: PAMTOO_clean_sbu_0, # of connection points: 6
#     Node 11, Type 1, BuildingBlock: PAMTOO_clean_sbu_0, # of connection points: 6
#     Edge 12, Type (0, 1), BuildingBlock: XUDNAN_clean_linker_2, # of connection points: 2
#     Edge 13, Type (0, 1), BuildingBlock: XUDNAN_clean_linker_2, # of connection points: 2
#     Edge 14, Type (0, 1), BuildingBlock: XUDNAN_clean_linker_2, # of connection points: 2
#     Edge 15, Type (0, 1), BuildingBlock: XUDNAN_clean_linker_2, # of connection points: 2
#     Edge 16, Type (0, 1), BuildingBlock: XUDNAN_clean_linker_2, # of connection points: 2
#     Edge 17, Type (0, 1), BuildingBlock: XUDNAN_clean_linker_2, # of connection points: 2
#     Edge 18, Type (0, 1), BuildingBlock: XUDNAN_clean_linker_2, # of connection points: 2
#     Edge 19, Type (0, 1), BuildingBlock: XUDNAN_clean_linker_2, # of connection points: 2
#     Edge 20, Type (0, 1), BuildingBlock: XUDNAN_clean_linker_2, # of connection points: 2
#     Edge 21, Type (0, 1), BuildingBlock: XUDNAN_clean_linker_2, # of connection points: 2
#     Edge 22, Type (0, 1), BuildingBlock: XUDNAN_clean_linker_2, # of connection points: 2
#     Edge 23, Type (0, 1), BuildingBlock: XUDNAN_clean_linker_2, # of connection points: 2
#     Edge 24, Type (0, 1), BuildingBlock: XUDNAN_clean_linker_2, # of connection points: 2
#     Edge 25, Type (0, 1), BuildingBlock: XUDNAN_clean_linker_2, # of connection points: 2
#     Edge 26, Type (0, 1), BuildingBlock: XUDNAN_clean_linker_2, # of connection points: 2
#     Edge 27, Type (0, 1), BuildingBlock: XUDNAN_clean_linker_2, # of connection points: 2
#     Edge 28, Type (0, 1), BuildingBlock: XUDNAN_clean_linker_2, # of connection points: 2
#     Edge 29, Type (0, 1), BuildingBlock: XUDNAN_clean_linker_2, # of connection points: 2
#     Edge 30, Type (0, 1), BuildingBlock: XUDNAN_clean_linker_2, # of connection points: 2
#     Edge 31, Type (0, 1), BuildingBlock: XUDNAN_clean_linker_2, # of connection points: 2
#     Edge 32, Type (0, 1), BuildingBlock: XUDNAN_clean_linker_2, # of connection points: 2
#     Edge 33, Type (0, 1), BuildingBlock: XUDNAN_clean_linker_2, # of connection points: 2
#     Edge 34, Type (0, 1), BuildingBlock: XUDNAN_clean_linker_2, # of connection points: 2
#     Edge 35, Type (0, 1), BuildingBlock: XUDNAN_clean_linker_2, # of connection points: 2
# Relax obj value: 0.347
# Max RMSD: 0.276
# Mean RMSD: 0.219
data_MOF--net-zzz--node1-PAMTOO_clean_sbu_0--node2-KAKCAD_clean_linker_0--edge1-XUDNAN_clean_linker_2
_symmetry_space_group_name_H-M    P1
_symmetry_Int_Tables_number       1
_symmetry_cell_setting            triclinic
loop_
_symmetry_equiv_pos_as_xyz
'x, y, z'
_cell_length_a     64.114118
_cell_length_b     55.936248
_cell_length_c     20.880918
_cell_angle_alpha  91.38792
_cell_angle_beta   81.669508
_cell_angle_gamma 84.749416
loop_
_atom_site_label
_atom_site_type_symbol
_atom_site_fract_x
_atom_site_fract_y
_atom_site_fract_z
_atom_type_partial_charge
C0 C 0.80844 0.44572 0.1391 0.0
C1 C 0.82528 0.42816 0.14286 0.0
C2 C 0.79748 0.45769 0.19501 0.0
C3 C 0.80283 0.45211 0.25632 0.0
C4 C 0.81899 0.43371 0.26039 0.0
C5 C 0.83014 0.42191 0.20426 0.0
C6 C 0.79214 0.46628 0.31506 0.0
C7 C 0.77064 0.47417 0.3206 0.0
C8 C 0.7607 0.49012 0.37099 0.0
C9 C 0.77251 0.49761 0.4187 0.0
C10 C 0.79406 0.48871 0.41609 0.0
C11 C 0.80366 0.47345 0.36318 0.0
C12 C 0.80741 0.49586 0.46537 0.0
C13 C 0.806 0.51961 0.49032 0.0
C14 C 0.82328 0.47922 0.48297 0.0
C15 C 0.83835 0.48648 0.51966 0.0
C16 C 0.83785 0.51057 0.54123 0.0
C17 C 0.73857 0.49993 0.36713 0.0
C18 C 0.73398 0.52445 0.35716 0.0
C19 C 0.72373 0.48398 0.35524 0.0
C20 C 0.70613 0.49175 0.32612 0.0
C21 C 0.70269 0.51584 0.30904 0.0
C22 C 0.71613 0.53236 0.3288 0.0
C23 C 0.82094 0.52683 0.52804 0.0
H24 H 0.80414 0.45079 0.09267 0.0
H25 H 0.78533 0.47196 0.18971 0.0
H26 H 0.82331 0.42874 0.30687 0.0
H27 H 0.8432 0.40868 0.20897 0.0
H28 H 0.76164 0.46859 0.28364 0.0
H29 H 0.8205 0.468 0.35773 0.0
H30 H 0.7649 0.50998 0.45762 0.0
H31 H 0.794 0.53294 0.4782 0.0
H32 H 0.82458 0.4606 0.46619 0.0
H33 H 0.851 0.47329 0.52812 0.0
H34 H 0.74515 0.53715 0.36569 0.0
H35 H 0.72688 0.46495 0.36249 0.0
H36 H 0.81952 0.5454 0.54524 0.0
H37 H 0.71367 0.55121 0.3187 0.0
H38 H 0.69639 0.47831 0.31204 0.0
C39 C 0.07835 0.74665 0.10754 0.0
C40 C 0.08688 0.76862 0.11622 0.0
C41 C 0.067 0.73599 0.15959 0.0
C42 C 0.06493 0.74609 0.22298 0.0
C43 C 0.07631 0.76589 0.23278 0.0
C44 C 0.08659 0.77736 0.18031 0.0
C45 C 0.04926 0.73787 0.27654 0.0
C46 C 0.0422 0.71488 0.27394 0.0
C47 C 0.02461 0.70867 0.31663 0.0
C48 C 0.01516 0.72509 0.36714 0.0
C49 C 0.0227 0.74778 0.37271 0.0
C50 C 0.03936 0.75404 0.32678 0.0
C51 C 0.01339 0.76576 0.42498 0.0
C52 C 1.00793 0.78958 0.40921 0.0
C53 C 0.0133 0.76042 0.49033 0.0
C54 C 1.00963 0.77892 0.53835 0.0
C55 C 1.00597 0.80308 0.52184 0.0
C56 C 0.01451 0.68688 0.29968 0.0
C57 C 0.99293 0.68887 0.29304 0.0
C58 C 0.02718 0.66585 0.27529 0.0
C59 C 0.01929 0.64896 0.23709 0.0
C60 C 0.99839 0.65247 0.22344 0.0
C61 C 0.98492 0.67175 0.25563 0.0
C62 C 1.00431 0.80801 0.45693 0.0
H63 H 0.07926 0.73816 0.06003 0.0
H64 H 0.05889 0.72067 0.14841 0.0
H65 H 0.07645 0.77353 0.28078 0.0
H66 H 0.09306 0.79392 0.19096 0.0
H67 H 0.04954 0.70208 0.23591 0.0
H68 H 0.04411 0.77204 0.32984 0.0
H69 H 1.00163 0.72058 0.40047 0.0
H70 H 1.00775 0.79416 0.35915 0.0
H71 H 0.01749 0.74221 0.50377 0.0
H72 H 1.0106 0.77439 0.58803 0.0
H73 H 0.98268 0.70476 0.31146 0.0
H74 H 0.04379 0.66357 0.28068 0.0
H75 H 1.00168 0.8263 0.44195 0.0
H76 H 0.96853 0.67461 0.24821 0.0
H77 H 0.03022 0.63436 0.21378 0.0
C78 C 0.73992 0.0586 0.03693 0.0
C79 C 0.7189 0.06893 0.05375 0.0
C80 C 0.75052 0.04654 0.08245 0.0
C81 C 0.7408 0.04531 0.14712 0.0
C82 C 0.7203 0.05692 0.16479 0.0
C83 C 0.70937 0.06799 0.11876 0.0
C84 C 0.75166 0.03158 0.19557 0.0
C85 C 0.77382 0.0291 0.19057 0.0
C86 C 0.78426 0.01569 0.23464 0.0
C87 C 0.77204 0.00554 0.2873 0.0
C88 C 0.74965 0.00833 0.29393 0.0
C89 C 0.73985 0.02068 0.2469 0.0
C90 C 0.7356 0.99989 0.35055 0.0
C91 C 0.71981 0.98492 0.34043 0.0
C92 C 0.73478 0.01078 0.41225 0.0
C93 C 0.71789 0.00786 0.46159 0.0
C94 C 0.70142 0.99381 0.45068 0.0
C95 C 0.8079 0.01201 0.22145 0.0
C96 C 0.81848 0.98877 0.21191 0.0
C97 C 0.8196 0.03174 0.20604 0.0
C98 C 0.84087 0.02834 0.17767 0.0
C99 C 0.85115 0.00509 0.16392 0.0
C100 C 0.83988 0.98534 0.1835 0.0
C101 C 0.70307 0.98178 0.38981 0.0
H102 H 0.74825 0.05935 0.98824 0.0
H103 H 0.76617 0.03772 0.06597 0.0
H104 H 0.71236 0.05728 0.21424 0.0
H105 H 0.69315 0.07508 0.1347 0.0
H106 H 0.78322 0.03742 0.15154 0.0
H107 H 0.72275 0.02191 0.25123 0.0
H108 H 0.77982 0.99565 0.32258 0.0
H109 H 0.71991 0.97648 0.29311 0.0
H110 H 0.74641 0.02288 0.42105 0.0
H111 H 0.71725 0.01771 0.5072 0.0
H112 H 0.80986 0.97321 0.2224 0.0
H113 H 0.81194 0.04989 0.21307 0.0
H114 H 0.69113 0.97034 0.37954 0.0
H115 H 0.84722 0.96716 0.17365 0.0
H116 H 0.84912 0.04399 0.16488 0.0
C117 C 0.49631 0.7036 0.46202 0.0
C118 C 0.51699 0.6946 0.46971 0.0
C119 C 0.49293 0.72149 0.41791 0.0
C120 C 0.51012 0.73093 0.38065 0.0
C121 C 0.5307 0.72357 0.39241 0.0
C122 C 0.53412 0.7056 0.43656 0.0
C123 C 0.50703 0.74154 0.31787 0.0
C124 C 0.51171 0.76499 0.30104 0.0
C125 C 0.51024 0.7728 0.23756 0.0
C126 C 0.50445 0.75661 0.19187 0.0
C127 C 0.50084 0.73304 0.20759 0.0
C128 C 0.50134 0.72605 0.27113 0.0
C129 C 0.49973 0.71468 0.15613 0.0
C130 C 0.48785 0.71934 0.10539 0.0
C131 C 0.51202 0.69256 0.15577 0.0
C132 C 0.51273 0.67564 0.10565 0.0
C133 C 0.50137 0.68042 0.05405 0.0
C134 C 0.51514 0.79733 0.2164 0.0
C135 C 0.50825 0.81799 0.25619 0.0
C136 C 0.52512 0.80035 0.15288 0.0
C137 C 0.52636 0.82316 0.12777 0.0
C138 C 0.51839 0.84398 0.16599 0.0
C139 C 0.51002 0.84101 0.2315 0.0
C140 C 0.48856 0.7022 0.05478 0.0
H141 H 0.48272 0.69597 0.48771 0.0
H142 H 0.47692 0.72656 0.40899 0.0
H143 H 0.54424 0.73007 0.36316 0.0
H144 H 0.55027 0.69912 0.44094 0.0
H145 H 0.51678 0.77677 0.33649 0.0
H146 H 0.49841 0.70781 0.28356 0.0
H147 H 0.50352 0.76201 0.14283 0.0
H148 H 0.4782 0.73623 0.10463 0.0
H149 H 0.52166 0.68853 0.19338 0.0
H150 H 0.52243 0.65879 0.10696 0.0
H151 H 0.50067 0.81643 0.30553 0.0
H152 H 0.53136 0.78495 0.1212 0.0
H153 H 0.47959 0.7062 0.01557 0.0
H154 H 0.50434 0.85641 0.26369 0.0
H155 H 0.53277 0.8241 0.07719 0.0
C156 C 0.21548 0.43665 0.30167 0.0
C157 C 0.19769 0.42535 0.28984 0.0
C158 C 0.2312 0.44063 0.25068 0.0
C159 C 0.22957 0.43304 0.18696 0.0
C160 C 0.21356 0.41826 0.17736 0.0
C161 C 0.19759 0.41466 0.22834 0.0
C162 C 0.24137 0.44478 0.13143 0.0
C163 C 0.26142 0.4523 0.1353 0.0
C164 C 0.27 0.46929 0.09323 0.0
C165 C 0.2587 0.47793 0.04383 0.0
C166 C 0.23931 0.46893 0.03588 0.0
C167 C 0.23084 0.45262 0.08025 0.0
C168 C 0.22628 0.47748 0.98584 0.0
C169 C 0.21987 0.50201 0.98148 0.0
C170 C 0.21725 0.46066 0.94979 0.0
C171 C 0.20127 0.46798 0.91347 0.0
C172 C 0.19385 0.49238 0.91212 0.0
C173 C 0.28953 0.47934 0.10799 0.0
C174 C 0.28905 0.50373 0.12645 0.0
C175 C 0.30712 0.46364 0.11755 0.0
C176 C 0.32306 0.4717 0.14938 0.0
C177 C 0.32177 0.49566 0.17279 0.0
C178 C 0.30503 0.51183 0.15856 0.0
C179 C 0.20381 0.50938 0.94502 0.0
H180 H 0.216 0.44516 0.34852 0.0
H181 H 0.24318 0.45205 0.26063 0.0
H182 H 0.21225 0.41135 0.12936 0.0
H183 H 0.18415 0.40557 0.21826 0.0
H184 H 0.26978 0.44623 0.17436 0.0
H185 H 0.21506 0.44757 0.07754 0.0
H186 H 0.26497 0.49139 0.01193 0.0
H187 H 0.22632 0.51535 0.00942 0.0
H188 H 0.22193 0.44162 0.95202 0.0
H189 H 0.19439 0.45442 0.88759 0.0
H190 H 0.27552 0.51614 0.12061 0.0
H191 H 0.30788 0.44474 0.10386 0.0
H192 H 0.19847 0.52832 0.94538 0.0
H193 H 0.30348 0.53039 0.17596 0.0
H194 H 0.33596 0.45888 0.15804 0.0
C195 C 0.94752 0.26215 0.34255 0.0
C196 C 0.95688 0.24252 0.37229 0.0
C197 C 0.95967 0.27419 0.29471 0.0
C198 C 0.98112 0.26628 0.27518 0.0
C199 C 0.99049 0.24688 0.3054 0.0
C200 C 0.97852 0.23521 0.35388 0.0
C201 C 0.99377 0.27748 0.22164 0.0
C202 C 0.9985 0.3012 0.22809 0.0
C203 C 1.01213 0.31127 0.17935 0.0
C204 C 0.02055 0.29742 0.12245 0.0
C205 C 0.01524 0.27369 0.11525 0.0
C206 C 1.00214 0.26384 0.16537 0.0
C207 C 0.02255 0.25841 0.05612 0.0
C208 C 1.01023 0.25897 1.00579 0.0
C209 C 0.03819 0.23925 0.05745 0.0
C210 C 0.04064 0.22022 0.01136 0.0
C211 C 0.02725 0.21978 0.96357 0.0
C212 C 0.01809 0.33572 0.19216 0.0
C213 C 1.00207 0.35446 0.21066 0.0
C214 C 0.03903 0.33923 0.19961 0.0
C215 C 0.04353 0.36034 0.23041 0.0
C216 C 0.02713 0.3782 0.25417 0.0
C217 C 1.00655 0.37549 0.24108 0.0
C218 C 0.01256 0.23987 0.95989 0.0
H219 H 0.93083 0.26796 0.35582 0.0
H220 H 0.95222 0.28914 0.27161 0.0
H221 H 1.00704 0.24058 0.29089 0.0
H222 H 0.98603 0.21987 0.37533 0.0
H223 H 0.99232 0.31149 0.27258 0.0
H224 H 0.99831 0.24545 0.16035 0.0
H225 H 0.03099 0.30501 0.08441 0.0
H226 H 0.99769 0.27327 1.00493 0.0
H227 H 0.04757 0.23825 0.09665 0.0
H228 H 0.0524 0.20533 0.01501 0.0
H229 H 0.9858 0.35216 0.2054 0.0
H230 H 0.05159 0.3249 0.18647 0.0
H231 H 1.0018 0.24014 0.9244 0.0
H232 H 0.99364 0.38913 0.2575 0.0
H233 H 0.05954 0.36185 0.23984 0.0
C234 C 0.29683 0.9482 0.43374 0.0
C235 C 0.31647 0.95678 0.43869 0.0
C236 C 0.28379 0.95889 0.39191 0.0
C237 C 0.29027 0.97828 0.35487 0.0
C238 C 0.3093 0.98768 0.36315 0.0
C239 C 0.32226 0.97704 0.40451 0.0
C240 C 0.27831 0.98768 0.30386 0.0
C241 C 0.25645 0.99374 0.31636 0.0
C242 C 0.24538 0.00345 0.2681 0.0
C243 C 0.25661 0.00686 0.20573 0.0
C244 C 0.27876 1.00041 0.19252 0.0
C245 C 0.2892 0.99092 0.24217 0.0
C246 C 0.29224 0.00423 0.1296 0.0
C247 C 0.30764 0.98579 0.10247 0.0
C248 C 0.29336 0.02731 0.10511 0.0
C249 C 0.31059 0.03223 0.05903 0.0
C250 C 0.32727 0.01427 0.03695 0.0
C251 C 0.22214 0.00973 0.28586 0.0
C252 C 0.20764 0.99642 0.25969 0.0
C253 C 0.21458 0.02588 0.3385 0.0
C254 C 0.19325 0.02787 0.36641 0.0
C255 C 0.17884 0.01354 0.34299 0.0
C256 C 0.18624 0.99827 0.28796 0.0
C257 C 0.32495 0.99073 0.05739 0.0
H258 H 0.29202 0.93265 0.45989 0.0
H259 H 0.26917 0.95133 0.38631 0.0
H260 H 0.31443 0.00295 0.33628 0.0
H261 H 0.33709 0.98437 0.40875 0.0
H262 H 0.24801 0.99119 0.36424 0.0
H263 H 0.30619 0.98623 0.23291 0.0
H264 H 0.24827 0.01448 0.16831 0.0
H265 H 0.3072 0.96777 0.12018 0.0
H266 H 0.28182 0.04193 0.12503 0.0
H267 H 0.31126 0.05045 0.04309 0.0
H268 H 0.21311 0.98349 0.22001 0.0
H269 H 0.22546 0.03624 0.35995 0.0
H270 H 0.33721 0.97627 0.04244 0.0
H271 H 0.17577 0.98678 0.26862 0.0
H272 H 0.18818 0.04027 0.40751 0.0
C273 C 0.48394 0.29538 0.07233 0.0
C274 C 0.49881 0.30108 0.0197 0.0
C275 C 0.48952 0.27812 0.11606 0.0
C276 C 0.51004 0.26625 0.10815 0.0
C277 C 0.52424 0.27033 0.05259 0.0
C278 C 0.51864 0.2874 0.00859 0.0
C279 C 0.51846 0.25649 0.16561 0.0
C280 C 0.51267 0.23498 0.19405 0.0
C281 C 0.51919 0.22848 0.25373 0.0
C282 C 0.53105 0.24406 0.28462 0.0
C283 C 0.53627 0.26579 0.25742 0.0
C284 C 0.53065 0.27126 0.19681 0.0
C285 C 0.54462 0.28442 0.296 0.0
C286 C 0.56021 0.27858 0.33569 0.0
C287 C 0.53555 0.30829 0.29686 0.0
C288 C 0.54126 0.32569 0.33785 0.0
C289 C 0.55609 0.3197 0.3794 0.0
C290 C 0.51311 0.20616 0.28652 0.0
C291 C 0.50644 0.20688 0.35385 0.0
C292 C 0.51552 0.18381 0.25259 0.0
C293 C 0.51244 0.16257 0.28592 0.0
C294 C 0.50693 0.16329 0.35381 0.0
C295 C 0.50348 0.18578 0.387 0.0
C296 C 0.56599 0.29619 0.37702 0.0
H297 H 0.46858 0.30556 0.08288 0.0
H298 H 0.47847 0.27576 0.15937 0.0
H299 H 0.54028 0.2617 0.046 0.0
H300 H 0.53033 0.29083 0.96783 0.0
H301 H 0.50278 0.2238 0.17089 0.0
H302 H 0.53467 0.28802 0.17533 0.0
H303 H 0.53551 0.23971 0.33137 0.0
H304 H 0.56755 0.26036 0.33581 0.0
H305 H 0.52322 0.31341 0.26806 0.0
H306 H 0.53343 0.34374 0.33895 0.0
H307 H 0.50389 0.22383 0.38137 0.0
H308 H 0.52069 0.18263 0.20079 0.0
H309 H 0.5774 0.29123 0.40904 0.0
H310 H 0.4987 0.18706 0.43899 0.0
H311 H 0.51522 0.14553 0.25888 0.0
Dy312 Dy 0.99679 0.01648 0.70826 0.0
Dy313 Dy 0.03303 0.00273 0.79946 0.0
C314 C 0.04581 0.01219 0.65053 0.0
O315 O 0.9968 0.97667 0.71532 0.0
O316 O 0.02971 0.96858 0.74566 0.0
O317 O 0.98741 0.02417 0.61524 0.0
O318 O 0.96367 0.02513 0.7002 0.0
O319 O 1.00252 0.99196 0.85265 0.0
O320 O 0.98114 0.02052 0.8117 0.0
O321 O 0.02299 0.04168 0.82282 0.0
O322 O 1.01008 0.05106 0.72867 0.0
O323 O 0.04334 0.99795 0.8929 0.0
O324 O 0.06573 0.99126 0.80491 0.0
C325 C 0.01293 0.96147 0.72413 0.0
O326 O 0.02713 0.0061 0.64125 0.0
O327 O 0.04948 0.01755 0.70913 0.0
C328 C 0.95909 0.05459 0.62399 0.0
C329 C 0.94242 0.10099 0.59651 0.0
C330 C 0.96427 0.09579 0.59758 0.0
C331 C 0.97247 0.07295 0.61177 0.0
C332 C 0.93729 0.05958 0.62338 0.0
C333 C 0.92898 0.08262 0.60984 0.0
C334 C 0.96776 0.03057 0.63974 0.0
C335 C 0.98423 0.00495 0.85615 0.0
C336 C 0.01699 0.05758 0.78215 0.0
C337 C 0.06825 0.96398 0.88606 0.0
C338 C 0.08143 0.91539 0.90196 0.0
C339 C 0.09566 0.93301 0.90404 0.0
C340 C 0.08912 0.95717 0.89576 0.0
C341 C 0.0539 0.94653 0.88581 0.0
C342 C 0.06039 0.92251 0.89396 0.0
C343 C 0.06211 0.98838 0.86708 0.0
H344 H 0.97524 0.10921 0.58601 0.0
H345 H 0.98934 0.06964 0.6127 0.0
H346 H 0.92669 0.04568 0.63355 0.0
H347 H 0.91208 0.08604 0.60994 0.0
H348 H 0.11197 0.92801 0.91007 0.0
H349 H 0.10048 0.97039 0.89492 0.0
H350 H 0.03779 0.95139 0.87742 0.0
H351 H 0.04891 0.90947 0.89354 0.0
Dy352 Dy 0.51216 0.98236 0.72548 0.0
Dy353 Dy 0.52273 0.02875 0.80758 0.0
C354 C 0.51138 0.03366 0.66518 0.0
O355 O 0.54534 0.98876 0.6824 0.0
O356 O 0.55375 0.00715 0.77278 0.0
O357 O 0.50756 0.96367 0.63734 0.0
O358 O 0.50593 0.94515 0.72732 0.0
O359 O 0.51246 1.00136 0.87862 0.0
O360 O 0.52682 0.9698 0.81159 0.0
O361 O 0.48731 0.03311 0.81831 0.0
O362 O 0.48125 0.99473 0.78852 0.0
O363 O 0.53527 0.0432 0.88907 0.0
O364 O 0.52461 0.06708 0.81797 0.0
C365 C 0.55952 0.99664 0.71518 0.0
O366 O 0.50089 0.01461 0.67377 0.0
O367 O 0.52487 0.03868 0.70401 0.0
C368 C 0.48207 0.93614 0.65735 0.0
C369 C 0.44251 0.9233 0.63238 0.0
C370 C 0.44381 0.93912 0.68465 0.0
C371 C 0.4634 0.94551 0.6969 0.0
C372 C 0.48099 0.91969 0.60662 0.0
C373 C 0.46134 0.91328 0.59419 0.0
C374 C 0.50245 0.94442 0.66743 0.0
C375 C 0.51967 0.97867 0.87019 0.0
C376 C 0.47443 0.01621 0.81486 0.0
C377 C 0.55588 0.07452 0.85823 0.0
C378 C 0.59672 0.09015 0.85183 0.0
C379 C 0.59366 0.06827 0.82137 0.0
C380 C 0.57349 0.06072 0.82407 0.0
C381 C 0.55849 0.09684 0.88626 0.0
C382 C 0.57876 0.1047 0.88274 0.0
C383 C 0.53519 0.06477 0.86664 0.0
H384 H 0.42964 0.94747 0.71427 0.0
H385 H 0.46392 0.95829 0.73624 0.0
H386 H 0.49528 0.91225 0.57575 0.0
H387 H 0.46083 0.90093 0.5538 0.0
H388 H 0.6069 0.05618 0.79825 0.0
H389 H 0.57181 0.04354 0.8016 0.0
H390 H 0.54499 0.10787 0.91221 0.0
H391 H 0.5804 0.12183 0.90578 0.0
Dy392 Dy 0.5304 0.49834 0.78436 0.0
Dy393 Dy 0.48698 0.49707 0.70685 0.0
C394 C 0.49954 0.4568 0.80733 0.0
O395 O 0.543 0.47389 0.69889 0.0
O396 O 0.51116 0.46769 0.6636 0.0
O397 O 0.56262 0.50498 0.79657 0.0
O398 O 0.53933 0.49812 0.88034 0.0
O399 O 0.50566 0.52453 0.65424 0.0
O400 O 0.52968 0.53106 0.72435 0.0
O401 O 0.48267 0.53159 0.76554 0.0
O402 O 0.49932 0.51278 0.8393 0.0
O403 O 0.45273 0.50067 0.70776 0.0
O404 O 0.47425 0.48702 0.62171 0.0
C405 C 0.53169 0.46251 0.66242 0.0
O406 O 0.51932 0.46204 0.79962 0.0
O407 O 0.48421 0.47127 0.78879 0.0
C408 C 0.5744 0.50576 0.90369 0.0
C409 C 0.60383 0.51406 0.98924 0.0
C410 C 0.58288 0.50987 0.01344 0.0
C411 C 0.56836 0.50578 0.9712 0.0
C412 C 0.59539 0.50948 0.87935 0.0
C413 C 0.60993 0.51352 0.92156 0.0
C414 C 0.55856 0.50307 0.85931 0.0
C415 C 0.52014 0.53704 0.67436 0.0
C416 C 0.48933 0.53231 0.82164 0.0
C417 C 0.44002 0.50319 0.60448 0.0
C418 C 0.41365 0.51344 0.50881 0.0
C419 C 0.4343 0.52072 0.5019 0.0
C420 C 0.44738 0.51559 0.54917 0.0
C421 C 0.41906 0.49719 0.61321 0.0
C422 C 0.40601 0.50226 0.56605 0.0
C423 C 0.4546 0.49275 0.64753 0.0
H424 H 0.5775 0.51038 0.0651 0.0
H425 H 0.55226 0.50311 0.99158 0.0
H426 H 0.60056 0.50952 0.82762 0.0
H427 H 0.62601 0.51623 0.90101 0.0
H428 H 0.44076 0.52927 0.45842 0.0
H429 H 0.46355 0.5203 0.54097 0.0
H430 H 0.41306 0.48749 0.65521 0.0
H431 H 0.39008 0.49682 0.57366 0.0
Dy432 Dy 0.02041 0.54645 0.67979 0.0
Dy433 Dy 1.01031 0.4999 0.76613 0.0
C434 C 0.02503 0.49452 0.61651 0.0
O435 O 0.98723 0.54102 0.66713 0.0
O436 O 0.97813 0.5131 0.74325 0.0
O437 O 0.01821 0.5645 0.59051 0.0
O438 O 0.03579 0.57901 0.66067 0.0
O439 O 1.01037 0.53111 0.83567 0.0
O440 O 1.00131 0.56191 0.77143 0.0
O441 O 0.04567 0.50056 0.7565 0.0
O442 O 0.04761 0.54027 0.73467 0.0
O443 O 0.99559 0.48371 0.85152 0.0
O444 O 0.01611 0.46165 0.77671 0.0
C445 C 0.97323 0.52831 0.69934 0.0
O446 O 0.03549 0.51316 0.62372 0.0
O447 O 1.01011 0.48957 0.66249 0.0
C448 C 0.0532 0.57204 0.55297 0.0
C449 C 0.08748 0.53978 0.49604 0.0
C450 C 0.069 0.54307 0.46706 0.0
C451 C 0.05215 0.55939 0.49464 0.0
C452 C 0.07289 0.57172 0.5753 0.0
C453 C 0.08989 0.55568 0.5471 0.0
C454 C 0.03349 0.57754 0.59953 0.0
C455 C 1.00279 0.55342 0.82887 0.0
C456 C 0.05622 0.51968 0.75176 0.0
C457 C 0.98588 0.44557 0.82909 0.0
C458 C 0.94967 0.42038 0.84429 0.0
C459 C 0.96547 0.41579 0.88391 0.0
C460 C 0.98343 0.4284 0.87645 0.0
C461 C 0.97103 0.44888 0.78612 0.0
C462 C 0.95303 0.43635 0.79365 0.0
C463 C 1.00241 0.46193 0.82947 0.0
H464 H 0.06657 0.53146 0.42712 0.0
H465 H 0.03736 0.55962 0.47516 0.0
H466 H 0.07451 0.58176 0.61905 0.0
H467 H 0.10433 0.55449 0.56857 0.0
H468 H 0.96321 0.4039 0.92397 0.0
H469 H 0.99476 0.42573 0.91001 0.0
H470 H 0.97278 0.46209 0.7491 0.0
H471 H 0.94115 0.44018 0.76234 0.0
H472 H 0.16497 0.01782 0.47493 0.0
H473 H 0.14205 0.00931 0.29075 0.0
H474 H 0.10573 0.00823 0.34872 0.0
H475 H 0.1312 0.97933 0.56431 0.0
H476 H 0.12712 0.9978 0.6378 0.0
H477 H 0.15125 0.99808 0.58181 0.0
H478 H 0.1445 0.04426 0.57494 0.0
H479 H 0.12037 0.04413 0.6311 0.0
H480 H 0.11979 0.0571 0.55311 0.0
H481 H 0.07162 0.00733 0.42799 0.0
H482 H 0.04292 0.00733 0.52086 0.0
H483 H 0.08803 0.01777 0.65283 0.0
C484 C 0.15234 0.01611 0.4464 0.0
C485 C 0.15659 0.0137 0.3778 0.0
C486 C 0.13944 0.01092 0.34312 0.0
C487 C 0.11866 0.01042 0.3757 0.0
C488 C 0.11512 0.0128 0.4432 0.0
C489 C 0.13151 0.01568 0.47809 0.0
C490 C 0.12356 0.0177 0.55033 0.0
C491 C 0.1339 0.99699 0.58562 0.0
C492 C 0.12728 0.04226 0.57905 0.0
C493 C 0.10013 0.01543 0.55078 0.0
C494 C 0.09557 0.01257 0.48851 0.0
C495 C 0.07505 0.00967 0.47688 0.0
C496 C 0.05882 0.00966 0.53007 0.0
C497 C 0.06309 0.01264 0.59442 0.0
C498 C 0.08411 0.01562 0.60443 0.0
H499 H 0.52286 0.15299 0.46594 0.0
H500 H 0.4881 0.12273 0.32526 0.0
H501 H 0.48537 0.08599 0.38888 0.0
H502 H 0.55273 0.09791 0.49659 0.0
H503 H 0.55173 0.10525 0.58158 0.0
H504 H 0.55086 0.12887 0.52467 0.0
H505 H 0.51574 0.14824 0.59055 0.0
H506 H 0.5165 0.12467 0.64761 0.0
H507 H 0.4936 0.13052 0.60742 0.0
H508 H 0.4856 0.05283 0.47154 0.0
H509 H 0.49025 0.02584 0.56178 0.0
H510 H 0.52548 0.0781 0.64587 0.0
C511 C 0.51454 0.13872 0.44862 0.0
C512 C 0.50555 0.14083 0.39075 0.0
C513 C 0.49519 0.12149 0.36923 0.0
C514 C 0.49348 0.10061 0.40524 0.0
C515 C 0.50239 0.09924 0.4624 0.0
C516 C 0.51284 0.11776 0.48359 0.0
C517 C 0.52128 0.11189 0.54606 0.0
C518 C 0.54559 0.11092 0.53662 0.0
C519 C 0.51117 0.1299 0.60116 0.0
C520 C 0.51386 0.08719 0.55714 0.0
C521 C 0.50291 0.08017 0.50864 0.0
C522 C 0.49425 0.05815 0.50952 0.0
C523 C 0.49693 0.04294 0.56107 0.0
C524 C 0.50831 0.04973 0.61089 0.0
C525 C 0.51683 0.0722 0.60845 0.0
H526 H 0.33638 0.47024 0.27065 0.0
H527 H 0.3407 0.53805 0.17532 0.0
H528 H 0.36449 0.5504 0.251 0.0
H529 H 0.33547 0.4934 0.43152 0.0
H530 H 0.35113 0.46774 0.45595 0.0
H531 H 0.33484 0.46423 0.39362 0.0
H532 H 0.36759 0.44553 0.31494 0.0
H533 H 0.38395 0.44881 0.37719 0.0
H534 H 0.3907 0.4618 0.29963 0.0
H535 H 0.38819 0.55506 0.33851 0.0
H536 H 0.40904 0.55174 0.42943 0.0
H537 H 0.38901 0.48065 0.46542 0.0
C538 C 0.34255 0.48756 0.26483 0.0
C539 C 0.33676 0.50308 0.21644 0.0
C540 C 0.34482 0.52586 0.21201 0.0
C541 C 0.3584 0.53299 0.25469 0.0
C542 C 0.36373 0.51722 0.30185 0.0
C543 C 0.35602 0.49496 0.30702 0.0
C544 C 0.36381 0.48139 0.36223 0.0
C545 C 0.3452 0.47641 0.41388 0.0
C546 C 0.37732 0.458 0.33697 0.0
C547 C 0.37716 0.49943 0.38749 0.0
C548 C 0.377 0.51998 0.35209 0.0
C549 C 0.3884 0.53902 0.36645 0.0
C550 C 0.40027 0.53694 0.41807 0.0
C551 C 0.40062 0.51601 0.45507 0.0
C552 C 0.38883 0.49709 0.43912 0.0
H553 H 1.00242 0.39369 0.36751 0.0
H554 H 0.06031 0.40686 0.24379 0.0
H555 H 0.06634 0.43861 0.32236 0.0
H556 H 0.98571 0.45528 0.4204 0.0
H557 H 0.9754 0.44735 0.50123 0.0
H558 H 0.97568 0.42647 0.43404 0.0
H559 H 0.99692 0.39408 0.49184 0.0
H560 H 0.99681 0.41491 0.55899 0.0
H561 H 0.02157 0.40068 0.51713 0.0
H562 H 0.06568 0.46922 0.4171 0.0
H563 H 0.05872 0.49462 0.5182 0.0
H564 H 1.00152 0.46006 0.57787 0.0
C565 C 0.0162 0.40351 0.35617 0.0
C566 C 0.03075 0.39802 0.29899 0.0
C567 C 0.04893 0.41081 0.28722 0.0
C568 C 0.05244 0.42888 0.33151 0.0
C569 C 0.03772 0.43378 0.38752 0.0
C570 C 0.01998 0.42136 0.3998 0.0
C571 C 1.00677 0.42935 0.46398 0.0
C572 C 0.98458 0.44027 0.4543 0.0
C573 C 1.00545 0.40851 0.51073 0.0
C574 C 0.01978 0.44827 0.48626 0.0
C575 C 0.03754 0.45075 0.44163 0.0
C576 C 0.0518 0.46736 0.4522 0.0
C577 C 0.0477 0.48174 0.50972 0.0
C578 C 0.02959 0.47932 0.55602 0.0
C579 C 0.01557 0.4623 0.54376 0.0
H580 H 0.86768 0.02988 0.05881 0.0
H581 H 0.8843 0.97215 0.18267 0.0
H582 H 0.92018 0.9661 0.1189 0.0
H583 H 0.89569 0.00273 0.91052 0.0
H584 H 0.90386 0.03059 0.87847 0.0
H585 H 0.87974 0.0306 0.93466 0.0
H586 H 0.89325 0.06125 0.01016 0.0
H587 H 0.91741 0.06136 0.95413 0.0
H588 H 0.91846 0.05439 0.03749 0.0
H589 H 0.95464 0.96648 0.04034 0.0
H590 H 0.98398 0.97253 0.95326 0.0
H591 H 0.9446 0.02998 0.88085 0.0
C592 C 0.87891 0.01615 0.07324 0.0
C593 C 0.87307 1.00159 0.12634 0.0
C594 C 0.88823 0.98346 0.14218 0.0
C595 C 0.90872 0.97997 0.10634 0.0
C596 C 0.9139 0.99466 0.05441 0.0
C597 C 0.89937 0.01236 0.03786 0.0
C598 C 0.90868 0.02543 0.97915 0.0
C599 C 0.89625 0.02213 0.92235 0.0
C600 C 0.9095 0.0522 0.99628 0.0
C601 C 0.93075 0.01237 0.96512 0.0
C602 C 0.9335 0.99472 0.00916 0.0
C603 C 0.9526 0.98027 1.00571 0.0
C604 C 0.96923 0.98388 0.95599 0.0
C605 C 0.96673 1.00175 0.90993 0.0
C606 C 0.94715 0.01617 0.91509 0.0
H607 H 0.54467 0.85956 0.05978 0.0
H608 H 0.48977 0.88392 0.20182 0.0
H609 H 0.48654 0.92219 0.14741 0.0
H610 H 0.5655 0.91722 0.02945 0.0
H611 H 0.57232 0.91079 0.94357 0.0
H612 H 0.57248 0.88664 0.99915 0.0
H613 H 0.54652 0.8655 0.9378 0.0
H614 H 0.54627 0.88955 0.88212 0.0
H615 H 0.52175 0.88161 0.92635 0.0
H616 H 0.48795 0.95742 0.07392 0.0
H617 H 0.49242 0.98517 0.98373 0.0
H618 H 0.54339 0.93586 0.88254 0.0
C619 C 0.53184 0.87271 0.07993 0.0
C620 C 0.51759 0.86825 0.13615 0.0
C621 C 0.50139 0.88666 0.16035 0.0
C622 C 0.49926 0.90857 0.12927 0.0
C623 C 0.5132 0.91191 0.07324 0.0
C624 C 0.52908 0.8944 0.04851 0.0
C625 C 0.5408 0.90153 0.98439 0.0
C626 C 0.56416 0.90421 0.98947 0.0
C627 C 0.5387 0.88348 0.92943 0.0
C628 C 0.52881 0.92567 0.97642 0.0
C629 C 0.51323 0.93155 0.0289 0.0
C630 C 0.50011 0.95298 0.03267 0.0
C631 C 0.5028 0.96867 0.98124 0.0
C632 C 0.51822 0.96268 0.92605 0.0
C633 C 0.53143 0.9409 0.92398 0.0
H634 H 0.66439 0.49748 0.29766 0.0
H635 H 0.70635 0.54897 0.21364 0.0
H636 H 0.68403 0.55628 0.12875 0.0
H637 H 0.65795 0.47058 0.14957 0.0
H638 H 0.63058 0.46548 0.17305 0.0
H639 H 0.64784 0.4668 0.23351 0.0
H640 H 0.62222 0.50061 0.29697 0.0
H641 H 0.60478 0.49929 0.23686 0.0
H642 H 0.61458 0.52736 0.25628 0.0
H643 H 0.65931 0.55529 0.04616 0.0
H644 H 0.63345 0.54675 0.97408 0.0
H645 H 0.60884 0.49394 0.10661 0.0
C646 C 0.66886 0.5105 0.26198 0.0
C647 C 0.68724 0.52274 0.26349 0.0
C648 C 0.69218 0.53973 0.21546 0.0
C649 C 0.67966 0.54388 0.16627 0.0
C650 C 0.66218 0.53092 0.16515 0.0
C651 C 0.65668 0.51466 0.21193 0.0
C652 C 0.63797 0.50183 0.19693 0.0
C653 C 0.64395 0.47456 0.18771 0.0
C654 C 0.61875 0.50763 0.24991 0.0
C655 C 0.63416 0.51302 0.13364 0.0
C656 C 0.64817 0.52993 0.11657 0.0
C657 C 0.6482 0.54215 0.05921 0.0
C658 C 0.63355 0.53698 0.01818 0.0
C659 C 0.61909 0.51955 0.03416 0.0
C660 C 0.61943 0.50757 0.09312 0.0
H661 H 1.00986 0.60469 0.18404 0.0
H662 H 0.97328 0.66926 0.13546 0.0
H663 H 0.96731 0.64912 0.03502 0.0
H664 H 0.0371 0.59219 0.02957 0.0
H665 H 0.03751 0.55997 0.03197 0.0
H666 H 0.03596 0.57764 0.10593 0.0
H667 H 1.00172 0.55905 0.15308 0.0
H668 H 1.00326 0.54111 0.07934 0.0
H669 H 0.97959 0.56049 0.10852 0.0
H670 H 0.96956 0.62465 0.93271 0.0
H671 H 0.9783 0.59635 0.83813 0.0
H672 H 0.01385 0.54762 0.95046 0.0
C673 C 1.00025 0.61449 0.153 0.0
C674 C 0.99189 0.6386 0.16869 0.0
C675 C 0.97943 0.65064 0.12615 0.0
C676 C 0.97608 0.63939 0.06833 0.0
C677 C 0.98519 0.61602 0.05338 0.0
C678 C 0.99683 0.60356 0.09472 0.0
C679 C 1.00632 0.57931 0.06454 0.0
C680 C 0.03066 0.57717 0.05759 0.0
C681 C 0.99717 0.55878 0.10371 0.0
C682 C 0.99878 0.58049 0.99901 0.0
C683 C 0.98646 0.60176 0.99386 0.0
C684 C 0.97887 0.60774 0.93651 0.0
C685 C 0.98403 0.5916 0.8829 0.0
C686 C 0.99665 0.5697 0.88691 0.0
C687 C 1.00389 0.56403 0.94612 0.0
H688 H 0.96516 0.22894 0.49075 0.0
H689 H 0.92108 0.22214 0.35426 0.0
H690 H 0.90596 0.18919 0.41639 0.0
H691 H 0.97936 0.17195 0.50031 0.0
H692 H 0.9816 0.17111 0.58532 0.0
H693 H 0.98432 0.19858 0.54388 0.0
H694 H 0.95414 0.22052 0.62627 0.0
H695 H 0.95149 0.19306 0.66894 0.0
H696 H 0.92879 0.20855 0.64099 0.0
H697 H 0.90319 0.15074 0.47222 0.0
H698 H 0.91144 0.11196 0.52066 0.0
H699 H 0.95555 0.14453 0.62711 0.0
C700 C 0.95163 0.22121 0.47602 0.0
C701 C 0.94413 0.22803 0.4183 0.0
C702 C 0.92675 0.21737 0.39911 0.0
C703 C 0.9181 0.19863 0.43411 0.0
C704 C 0.92673 0.19122 0.48882 0.0
C705 C 0.94279 0.20263 0.5107 0.0
C706 C 0.95153 0.18912 0.56443 0.0
C707 C 0.9756 0.18228 0.54738 0.0
C708 C 0.94616 0.20368 0.62899 0.0
C709 C 0.93928 0.16726 0.56529 0.0
C710 C 0.92468 0.16902 0.52254 0.0
C711 C 0.91395 0.14949 0.50767 0.0
C712 C 0.91874 0.12747 0.53558 0.0
C713 C 0.93419 0.12513 0.57772 0.0
C714 C 0.94375 0.14566 0.59486 0.0
H715 H 0.358 0.94348 0.39773 0.0
H716 H 0.30927 0.94256 0.56445 0.0
H717 H 0.3364 0.92685 0.63028 0.0
H718 H 0.39267 0.88976 0.43682 0.0
H719 H 0.41628 0.90373 0.40747 0.0
H720 H 0.39257 0.91026 0.37154 0.0
H721 H 0.39391 0.95579 0.39509 0.0
H722 H 0.41752 0.94942 0.43092 0.0
H723 H 0.39475 0.96641 0.47681 0.0
H724 H 0.36962 0.91795 0.681 0.0
H725 H 0.40552 0.91635 0.71185 0.0
H726 H 0.43196 0.92369 0.51084 0.0
C727 C 0.35299 0.93945 0.44777 0.0
C728 C 0.33166 0.94424 0.47634 0.0
C729 C 0.32558 0.93879 0.54178 0.0
C730 C 0.34086 0.92987 0.57934 0.0
C731 C 0.36198 0.92618 0.55014 0.0
C732 C 0.36796 0.93057 0.48552 0.0
C733 C 0.39174 0.92774 0.46694 0.0
C734 C 0.39872 0.90661 0.41779 0.0
C735 C 0.39994 0.95124 0.44097 0.0
C736 C 0.39835 0.92222 0.5319 0.0
C737 C 0.38103 0.92095 0.57918 0.0
C738 C 0.38329 0.91839 0.64413 0.0
C739 C 0.40372 0.91764 0.66124 0.0
C740 C 0.42155 0.91967 0.6136 0.0
C741 C 0.41876 0.92134 0.54806 0.0
H742 H 0.52556 0.34142 0.46886 0.0
H743 H 0.59276 0.33895 0.40005 0.0
H744 H 0.59519 0.37411 0.47317 0.0
H745 H 0.51505 0.4023 0.46898 0.0
H746 H 0.49537 0.4048 0.54041 0.0
H747 H 0.4999 0.37741 0.49159 0.0
H748 H 0.50737 0.35318 0.59161 0.0
H749 H 0.50252 0.38051 0.64113 0.0
H750 H 0.52715 0.36193 0.63837 0.0
H751 H 0.58858 0.41287 0.54684 0.0
H752 H 0.5739 0.44984 0.61292 0.0
H753 H 0.51112 0.42552 0.62697 0.0
C754 C 0.54089 0.34794 0.47045 0.0
C755 C 0.55898 0.33766 0.4294 0.0
C756 C 0.57879 0.3466 0.43197 0.0
C757 C 0.58026 0.36654 0.47311 0.0
C758 C 0.5618 0.37692 0.51141 0.0
C759 C 0.54256 0.36761 0.51073 0.0
C760 C 0.52465 0.38277 0.55161 0.0
C761 C 0.50777 0.39239 0.51069 0.0
C762 C 0.51486 0.36876 0.60909 0.0
C763 C 0.53657 0.40261 0.57389 0.0
C764 C 0.55802 0.39897 0.55144 0.0
C765 C 0.57183 0.41573 0.56501 0.0
C766 C 0.56339 0.43667 0.6023 0.0
C767 C 0.54135 0.44071 0.62419 0.0
C768 C 0.528 0.42324 0.61014 0.0
H769 H 0.1608 0.44482 0.25788 0.0
H770 H 0.19057 0.42162 0.42217 0.0
H771 H 0.16166 0.44467 0.49605 0.0
H772 H 0.15112 0.50119 0.30429 0.0
H773 H 0.12587 0.50766 0.27693 0.0
H774 H 0.14416 0.48363 0.23833 0.0
H775 H 0.11614 0.45329 0.26237 0.0
H776 H 0.09731 0.4773 0.29988 0.0
H777 H 0.10312 0.45084 0.34411 0.0
H778 H 0.13425 0.47655 0.54865 0.0
H779 H 0.10935 0.51264 0.57707 0.0
H780 H 0.09994 0.51745 0.37568 0.0
C781 C 0.16052 0.44332 0.30961 0.0
C782 C 0.17766 0.43111 0.33454 0.0
C783 C 0.17735 0.43056 0.40238 0.0
C784 C 0.16103 0.44365 0.44456 0.0
C785 C 0.14517 0.45704 0.41794 0.0
C786 C 0.14458 0.4566 0.35197 0.0
C787 C 0.12806 0.47542 0.33438 0.0
C788 C 0.13791 0.493 0.28566 0.0
C789 C 0.11009 0.46351 0.30866 0.0
C790 C 0.12049 0.48762 0.39998 0.0
C791 C 0.13006 0.47635 0.44783 0.0
C792 C 0.12646 0.48531 0.51165 0.0
C793 C 0.11259 0.50615 0.52701 0.0
C794 C 0.10282 0.51822 0.47843 0.0
C795 C 0.10686 0.50861 0.4142 0.0
H796 H 0.11277 0.80632 0.10787 0.0
H797 H 0.07406 0.76705 0.9949 0.0
H798 H 0.0774 0.79689 0.9128 0.0
H799 H 0.08463 0.85861 0.09706 0.0
H800 H 0.10601 0.87759 0.09354 0.0
H801 H 0.10809 0.84929 0.13185 0.0
H802 H 0.14316 0.8363 0.05582 0.0
H803 H 0.14124 0.86477 0.01729 0.0
H804 H 0.14385 0.83715 0.96929 0.0
H805 H 0.07696 0.83443 0.85565 0.0
H806 H 0.07158 0.87723 0.83187 0.0
H807 H 0.1058 0.89541 0.98817 0.0
C808 C 0.10518 0.80354 0.06573 0.0
C809 C 0.09308 0.78383 0.05953 0.0
C810 C 0.08398 0.7812 1.00182 0.0
C811 C 0.08567 0.79835 0.95419 0.0
C812 C 0.09626 0.81835 0.96458 0.0
C813 C 0.10591 0.82107 0.01896 0.0
C814 C 0.11237 0.84633 0.02551 0.0
C815 C 0.10215 0.85867 0.09081 0.0
C816 C 0.1366 0.84612 0.01641 0.0
C817 C 0.10337 0.8578 0.96917 0.0
C818 C 0.09495 0.84105 0.93312 0.0
C819 C 0.08384 0.84763 0.88271 0.0
C820 C 0.08065 0.87202 0.87006 0.0
C821 C 0.08814 0.88962 0.90857 0.0
C822 C 0.10026 0.8823 0.95723 0.0
H823 H 0.68405 0.10299 0.07013 0.0
H824 H 0.72432 0.05685 0.9223 0.0
H825 H 0.70051 0.06826 0.84465 0.0
H826 H 0.63995 0.08001 0.03989 0.0
H827 H 0.62238 0.10717 0.0574 0.0
H828 H 0.64595 0.1031 0.09427 0.0
H829 H 0.65768 0.14313 0.04757 0.0
H830 H 0.63407 0.14715 0.00988 0.0
H831 H 0.65975 0.14739 0.96167 0.0
H832 H 0.66965 0.07818 0.78794 0.0
H833 H 0.63316 0.07996 0.76372 0.0
H834 H 0.61025 0.1125 0.95487 0.0
C835 C 0.6882 0.09534 0.02144 0.0
C836 C 0.70639 0.07891 1.00345 0.0
C837 C 0.71102 0.06998 0.93813 0.0
C838 C 0.69744 0.07634 0.89311 0.0
C839 C 0.67905 0.09139 0.91384 0.0
C840 C 0.67431 0.10057 0.97681 0.0
C841 C 0.6516 0.11165 0.99136 0.0
C842 C 0.63926 0.09975 0.04906 0.0
C843 C 0.65073 0.13896 1.00331 0.0
C844 C 0.64389 0.1057 0.92822 0.0
C845 C 0.66025 0.0952 0.88302 0.0
C846 C 0.65674 0.0865 0.82285 0.0
C847 C 0.63587 0.08734 0.80988 0.0
C848 C 0.61863 0.09585 0.85795 0.0
C849 C 0.62292 0.10621 0.91654 0.0
H850 H 0.46977 0.66185 0.99766 0.0
H851 H 0.53798 0.65797 0.99039 0.0
H852 H 0.54205 0.62166 0.91944 0.0
H853 H 0.46398 0.60305 0.00991 0.0
H854 H 0.44437 0.60043 0.95704 0.0
H855 H 0.44635 0.62888 0.99656 0.0
H856 H 0.4515 0.64916 0.88596 0.0
H857 H 0.44901 0.62084 0.84593 0.0
H858 H 0.47203 0.63665 0.82266 0.0
H859 H 0.5384 0.58175 0.87771 0.0
H860 H 0.52797 0.54313 0.84252 0.0
H861 H 0.46255 0.57323 0.85971 0.0
C862 C 0.48555 0.65388 0.97871 0.0
C863 C 0.50356 0.66242 0.99997 0.0
C864 C 0.524 0.65142 0.97531 0.0
C865 C 0.52648 0.63088 0.93477 0.0
C866 C 0.5084 0.62197 0.91789 0.0
C867 C 0.48835 0.63343 0.93698 0.0
C868 C 0.47161 0.61883 0.91518 0.0
C869 C 0.45565 0.61243 0.97314 0.0
C870 C 0.46037 0.63217 0.8644 0.0
C871 C 0.48535 0.59672 0.88513 0.0
C872 C 0.50651 0.59909 0.88756 0.0
C873 C 0.52205 0.58002 0.87248 0.0
C874 C 0.51593 0.55806 0.85296 0.0
C875 C 0.4946 0.55547 0.84641 0.0
C876 C 0.47906 0.57507 0.86246 0.0
H877 H 0.83891 0.45297 0.03675 0.0
H878 H 0.84425 0.38208 0.1158 0.0
H879 H 0.87285 0.36894 0.02622 0.0
H880 H 0.85451 0.43235 0.85727 0.0
H881 H 0.86862 0.45855 0.84224 0.0
H882 H 0.84497 0.46028 0.90122 0.0
H883 H 0.86579 0.4763 0.98812 0.0
H884 H 0.88929 0.47462 0.92966 0.0
H885 H 0.88951 0.45904 1.0042 0.0
H886 H 0.90566 0.36666 0.946 0.0
H887 H 0.93966 0.37575 0.88399 0.0
H888 H 0.91214 0.44761 0.85485 0.0
C889 C 0.8453 0.43432 0.03349 0.0
C890 C 0.83927 0.41853 0.08313 0.0
C891 C 0.84869 0.39453 0.07847 0.0
C892 C 0.86478 0.38683 0.02731 0.0
C893 C 0.87101 0.40322 0.98064 0.0
C894 C 0.86129 0.4264 0.98278 0.0
C895 C 0.87293 0.4417 0.93342 0.0
C896 C 0.85945 0.44862 0.88038 0.0
C897 C 0.87979 0.4642 0.96583 0.0
C898 C 0.8917 0.42411 0.90695 0.0
C899 C 0.89002 0.40177 0.93323 0.0
C900 C 0.90687 0.3838 0.92351 0.0
C901 C 0.92615 0.38913 0.88849 0.0
C902 C 0.92842 0.41229 0.86413 0.0
C903 C 0.91065 0.4295 0.87098 0.0
H904 H 0.03223 0.17269 0.99834 0.0
H905 H 0.02133 0.21651 0.83538 0.0
H906 H 0.01782 0.17987 0.77084 0.0
H907 H 0.06358 0.1227 0.90293 0.0
H908 H 0.05258 0.10049 0.95552 0.0
H909 H 0.0549 0.13015 0.98767 0.0
H910 H 0.01476 0.13466 0.03167 0.0
H911 H 1.01227 0.10512 0.99917 0.0
H912 H 0.99598 0.13065 0.9768 0.0
H913 H 0.01365 0.13829 0.72595 0.0
H914 H 1.01104 0.09526 0.70267 0.0
H915 H 0.02598 0.07876 0.89402 0.0
C916 C 0.02961 0.17466 0.9486 0.0
C917 C 0.02712 0.19765 0.9221 0.0
C918 C 0.02311 0.19923 0.8572 0.0
C919 C 0.02117 0.17848 0.82 0.0
C920 C 0.02341 0.1562 0.8481 0.0
C921 C 0.02775 0.15417 0.91075 0.0
C922 C 0.02908 0.1282 0.93012 0.0
C923 C 0.05136 0.1199 0.94491 0.0
C924 C 1.012 0.12445 0.98785 0.0
C925 C 0.02465 0.1159 0.86877 0.0
C926 C 0.02137 0.13234 0.82203 0.0
C927 C 0.01639 0.12525 0.76202 0.0
C928 C 0.01488 0.10073 0.74932 0.0
C929 C 0.01841 0.08351 0.79631 0.0
C930 C 0.02335 0.09136 0.85677 0.0
H931 H 0.356 0.98565 0.94643 0.0
H932 H 0.34623 0.05645 0.04268 0.0
H933 H 0.38122 0.06538 0.98963 0.0
H934 H 0.40971 0.97439 0.96805 0.0
H935 H 0.41813 0.95855 0.89109 0.0
H936 H 0.3912 0.95851 0.93024 0.0
H937 H 0.37773 0.97526 0.82765 0.0
H938 H 0.40463 0.97548 0.78823 0.0
H939 H 0.38692 1.00265 0.79531 0.0
H940 H 0.41848 0.06594 0.93283 0.0
H941 H 0.45514 0.05788 0.87729 0.0
H942 H 0.44212 0.98602 0.8218 0.0
C943 C 0.36104 0.00312 0.95641 0.0
C944 C 0.34783 0.02036 0.99885 0.0
C945 C 0.35541 0.04301 0.00938 0.0
C946 C 0.3755 0.04825 0.9798 0.0
C947 C 0.38815 0.03069 0.93966 0.0
C948 C 0.38123 0.00858 0.92781 0.0
C949 C 0.3985 0.99241 0.88556 0.0
C950 C 0.40475 0.96962 0.92086 0.0
C951 C 0.39152 0.98608 0.82032 0.0
C952 C 0.41633 0.00873 0.87678 0.0
C953 C 0.4099 0.03083 0.90782 0.0
C954 C 0.42364 0.04874 0.90804 0.0
C955 C 0.44452 0.04394 0.87625 0.0
C956 C 0.45173 0.0213 0.84476 0.0
C957 C 0.43724 0.00356 0.84487 0.0
H958 H 0.52672 0.33353 0.97538 0.0
H959 H 0.46128 0.31868 0.97927 0.0
H960 H 0.45408 0.35675 0.92489 0.0
H961 H 0.51711 0.39576 0.00811 0.0
H962 H 0.54008 0.40328 0.95472 0.0
H963 H 0.54023 0.37443 0.99107 0.0
H964 H 0.54941 0.35311 0.87749 0.0
H965 H 0.54953 0.38192 0.84083 0.0
H966 H 0.53279 0.36022 0.81656 0.0
H967 H 0.45398 0.39787 0.87298 0.0
H968 H 0.46129 0.43702 0.82603 0.0
H969 H 0.52694 0.42374 0.85555 0.0
C970 C 0.51096 0.33786 0.96352 0.0
C971 C 0.49462 0.32285 0.98147 0.0
C972 C 0.47408 0.32984 0.96652 0.0
C973 C 0.46985 0.35142 0.93538 0.0
C974 C 0.48632 0.36588 0.91922 0.0
C975 C 0.5065 0.35923 0.93243 0.0
C976 C 0.52139 0.37804 0.91156 0.0
C977 C 0.53021 0.38849 0.96984 0.0
C978 C 0.53934 0.3677 0.85845 0.0
C979 C 0.50643 0.39649 0.88507 0.0
C980 C 0.48626 0.38922 0.8897 0.0
C981 C 0.46976 0.40364 0.86894 0.0
C982 C 0.47405 0.42591 0.8425 0.0
C983 C 0.49468 0.43361 0.83703 0.0
C984 C 0.51098 0.41854 0.85884 0.0
H985 H 0.15741 0.46973 0.91131 0.0
H986 H 0.18773 0.53202 0.83897 0.0
H987 H 0.15638 0.54489 0.78762 0.0
H988 H 0.13203 0.45818 0.76966 0.0
H989 H 0.10841 0.44923 0.81699 0.0
H990 H 0.13347 0.44456 0.84648 0.0
H991 H 0.11748 0.4686 0.95256 0.0
H992 H 0.0924 0.47338 0.92338 0.0
H993 H 0.10518 0.49871 0.94829 0.0
H994 H 0.12134 0.55155 0.74638 0.0
H995 H 0.08516 0.55192 0.71939 0.0
H996 H 0.07752 0.48491 0.81694 0.0
C997 C 0.15765 0.48589 0.88381 0.0
C998 C 0.17519 0.49981 0.87913 0.0
C999 C 0.17451 0.52113 0.84386 0.0
C1000 C 0.15679 0.52852 0.81415 0.0
C1001 C 0.13981 0.51441 0.81996 0.0
C1002 C 0.14009 0.49352 0.85386 0.0
C1003 C 0.11954 0.48195 0.85423 0.0
C1004 C 0.12361 0.457 0.81978 0.0
C1005 C 0.10797 0.48059 0.92374 0.0
C1006 C 0.10755 0.4997 0.81565 0.0
C1007 C 0.11959 0.51824 0.79621 0.0
C1008 C 0.11181 0.53709 0.76127 0.0
C1009 C 0.09116 0.53716 0.74634 0.0
C1010 C 0.07837 0.51848 0.76614 0.0
C1011 C 0.08687 0.49938 0.80074 0.0
H1012 H 0.98216 0.84725 0.53439 0.0
H1013 H 0.03163 0.80518 0.61567 0.0
H1014 H 0.03634 0.84026 0.6837 0.0
H1015 H 1.00769 0.89947 0.5188 0.0
H1016 H 0.98421 0.92005 0.5395 0.0
H1017 H 0.98233 0.89081 0.50418 0.0
H1018 H 0.95454 0.88192 0.60147 0.0
H1019 H 0.95621 0.91126 0.63695 0.0
H1020 H 0.96074 0.88483 0.68264 0.0
H1021 H 0.03901 0.881 0.73247 0.0
H1022 H 0.03815 0.92401 0.76238 0.0
H1023 H 0.98722 0.94014 0.64927 0.0
C1024 C 0.99376 0.84526 0.56722 0.0
C1025 C 1.0064 0.82325 0.56974 0.0
C1026 C 0.02138 0.82155 0.61361 0.0
C1027 C 0.02431 0.84149 0.65223 0.0
C1028 C 1.01208 0.86305 0.64693 0.0
C1029 C 0.99693 0.86502 0.60606 0.0
C1030 C 0.98689 0.89067 0.60628 0.0
C1031 C 0.99051 0.90084 0.53815 0.0
C1032 C 0.96319 0.89225 0.63347 0.0
C1033 C 0.99923 0.90295 0.65209 0.0
C1034 C 0.01357 0.88664 0.67534 0.0
C1035 C 0.02763 0.89387 0.71532 0.0
C1036 C 0.02708 0.9184 0.73179 0.0
C1037 C 0.01255 0.9355 0.70845 0.0
C1038 C 0.99831 0.92752 0.66863 0.0
H1039 H 0.65958 0.99058 0.43302 0.0
H1040 H 0.69936 0.99447 0.58391 0.0
H1041 H 0.66776 0.9949 0.66676 0.0
H1042 H 0.61539 0.02858 0.51175 0.0
H1043 H 0.59578 0.01122 0.48461 0.0
H1044 H 0.62153 0.01099 0.43676 0.0
H1045 H 0.62657 0.96459 0.43979 0.0
H1046 H 0.60079 0.96467 0.48753 0.0
H1047 H 0.62377 0.95042 0.5168 0.0
H1048 H 0.63141 0.99698 0.73395 0.0
H1049 H 0.59358 0.99845 0.77981 0.0
H1050 H 0.57737 0.99052 0.58623 0.0
C1051 C 0.66183 0.99108 0.48337 0.0
C1052 C 0.68226 0.99261 0.50125 0.0
C1053 C 0.68406 0.99374 0.56822 0.0
C1054 C 0.66614 0.99381 0.61593 0.0
C1055 C 0.64636 0.99249 0.59645 0.0
C1056 C 0.64411 0.99092 0.53175 0.0
C1057 C 0.621 0.98979 0.5238 0.0
C1058 C 0.61296 0.01143 0.48706 0.0
C1059 C 0.61786 0.96594 0.48998 0.0
C1060 C 0.61058 0.99111 0.59413 0.0
C1061 C 0.6255 0.99281 0.63522 0.0
C1062 C 0.61965 0.99535 0.70218 0.0
C1063 C 0.59806 0.9962 0.72782 0.0
C1064 C 0.58242 0.9943 0.68688 0.0
C1065 C 0.58891 0.99156 0.61904 0.0
H1066 H 0.49574 0.65389 0.47294 0.0
H1067 H 0.54689 0.68496 0.5505 0.0
H1068 H 0.5541 0.64755 0.60752 0.0
H1069 H 0.47687 0.62254 0.61659 0.0
H1070 H 0.47056 0.59701 0.57126 0.0
H1071 H 0.4695 0.62627 0.53706 0.0
H1072 H 0.49548 0.6091 0.43632 0.0
H1073 H 0.49679 0.57985 0.47062 0.0
H1074 H 0.52075 0.59398 0.44692 0.0
H1075 H 0.55556 0.60666 0.65675 0.0
H1076 H 0.55072 0.56614 0.69656 0.0
H1077 H 0.49852 0.56159 0.58678 0.0
C1078 C 0.50826 0.65305 0.50268 0.0
C1079 C 0.52069 0.67256 0.50731 0.0
C1080 C 0.53724 0.6703 0.54568 0.0
C1081 C 0.54142 0.64911 0.57841 0.0
C1082 C 0.52897 0.63022 0.57228 0.0
C1083 C 0.51267 0.63202 0.53555 0.0
C1084 C 0.50164 0.60911 0.53685 0.0
C1085 C 0.47826 0.61403 0.56726 0.0
C1086 C 0.5038 0.59732 0.46861 0.0
C1087 C 0.51425 0.5941 0.58016 0.0
C1088 C 0.52995 0.60662 0.60003 0.0
C1089 C 0.54337 0.59669 0.64126 0.0
C1090 C 0.5405 0.57355 0.6635 0.0
C1091 C 0.52434 0.56041 0.64454 0.0
C1092 C 0.51121 0.57089 0.60165 0.0
H1093 H 0.86326 0.48575 0.62065 0.0
H1094 H 0.85425 0.55424 0.52929 0.0
H1095 H 0.88553 0.56716 0.57027 0.0
H1096 H 0.88474 0.50822 0.76327 0.0
H1097 H 0.90384 0.48241 0.76199 0.0
H1098 H 0.87903 0.47946 0.73293 0.0
H1099 H 0.89937 0.46181 0.62325 0.0
H1100 H 0.92416 0.46488 0.65209 0.0
H1101 H 0.91886 0.47866 0.57822 0.0
H1102 H 0.91953 0.5716 0.61046 0.0
H1103 H 0.95426 0.56728 0.64807 0.0
H1104 H 0.94286 0.49571 0.71198 0.0
C1105 C 0.86768 0.50356 0.60952 0.0
C1106 C 0.85582 0.51899 0.57198 0.0
C1107 C 0.86241 0.54217 0.55923 0.0
C1108 C 0.88038 0.54968 0.58195 0.0
C1109 C 0.89182 0.5339 0.61747 0.0
C1110 C 0.88577 0.51132 0.63145 0.0
C1111 C 0.90184 0.49731 0.66679 0.0
C1112 C 0.89176 0.49152 0.73533 0.0
C1113 C 0.91163 0.47431 0.62773 0.0
C1114 C 0.91806 0.5154 0.66907 0.0
C1115 C 0.91178 0.53643 0.64071 0.0
C1116 C 0.9245 0.55534 0.63343 0.0
C1117 C 0.94428 0.55266 0.6548 0.0
C1118 C 0.95131 0.53122 0.68332 0.0
C1119 C 0.9378 0.51248 0.69143 0.0
loop_
_geom_bond_atom_site_label_1
_geom_bond_atom_site_label_2
_geom_bond_distance
_geom_bond_site_symmetry_2
_ccdc_geom_bond_type
C0 C1 1.386 . S
C0 C2 1.397 . S
C0 H24 0.931 . S
C1 C0 1.386 . S
C1 C5 1.397 . S
C2 C0 1.397 . S
C2 C3 1.384 . S
C2 H25 0.930 . S
C3 C2 1.384 . S
C3 C4 1.377 . S
C3 C6 1.481 . S
C4 C3 1.377 . S
C4 C5 1.389 . S
C4 H26 0.929 . S
C5 C1 1.397 . S
C5 C4 1.389 . S
C5 H27 0.931 . S
C6 C3 1.481 . S
C6 C7 1.387 . S
C6 C11 1.390 . S
C7 C6 1.387 . S
C7 C8 1.401 . S
C7 H28 0.930 . S
C8 C7 1.401 . S
C8 C9 1.376 . S
C8 C17 1.511 . S
C9 C8 1.376 . S
C9 C10 1.392 . S
C9 H30 0.931 . S
C10 C9 1.392 . S
C10 C11 1.361 . S
C10 C12 1.500 . S
C11 C6 1.390 . S
C11 C10 1.361 . S
C11 H29 0.931 . S
C12 C10 1.500 . S
C12 C13 1.371 . S
C12 C14 1.365 . S
C13 C12 1.371 . S
C13 C23 1.386 . S
C13 H31 0.931 . S
C14 C12 1.365 . S
C14 C15 1.409 . S
C14 H32 0.929 . S
C15 C14 1.409 . S
C15 C16 1.380 . S
C15 H33 0.930 . S
C16 C15 1.380 . S
C16 C23 1.357 . S
C17 C8 1.511 . S
C17 C18 1.341 . S
C17 C19 1.371 . S
C18 C17 1.341 . S
C18 C22 1.394 . S
C18 H34 0.930 . S
C19 C17 1.371 . S
C19 C20 1.392 . S
C19 H35 0.931 . S
C20 C19 1.392 . S
C20 C21 1.331 . S
C20 H38 0.932 . S
C21 C20 1.331 . S
C21 C22 1.336 . S
C22 C18 1.394 . S
C22 C21 1.336 . S
C22 H37 0.929 . S
C23 C13 1.386 . S
C23 C16 1.357 . S
C23 H36 0.928 . S
H24 C0 0.931 . S
H25 C2 0.930 . S
H26 C4 0.929 . S
H27 C5 0.931 . S
H28 C7 0.930 . S
H29 C11 0.931 . S
H30 C9 0.931 . S
H31 C13 0.931 . S
H32 C14 0.929 . S
H33 C15 0.930 . S
H34 C18 0.930 . S
H35 C19 0.931 . S
H36 C23 0.928 . S
H37 C22 0.929 . S
H38 C20 0.932 . S
C39 C40 1.386 . S
C39 C41 1.397 . S
C39 H63 0.931 . S
C40 C39 1.386 . S
C40 C44 1.397 1_655 S
C41 C39 1.397 . S
C41 C42 1.384 . S
C41 H64 0.930 . S
C42 C41 1.384 . S
C42 C43 1.377 1_655 S
C42 C45 1.481 . S
C43 C42 1.377 1_455 S
C43 C44 1.389 . S
C43 H65 0.929 . S
C44 C40 1.397 1_455 S
C44 C43 1.389 . S
C44 H66 0.931 . S
C45 C42 1.481 . S
C45 C46 1.387 . S
C45 C50 1.390 . S
C46 C45 1.387 . S
C46 C47 1.401 . S
C46 H67 0.930 . S
C47 C46 1.401 . S
C47 C48 1.376 . S
C47 C56 1.511 . S
C48 C47 1.376 . S
C48 C49 1.392 . S
C48 H69 0.931 . S
C49 C48 1.392 . S
C49 C50 1.361 . S
C49 C51 1.500 . S
C50 C45 1.390 . S
C50 C49 1.361 . S
C50 H68 0.931 . S
C51 C49 1.500 . S
C51 C52 1.371 . S
C51 C53 1.365 1_655 S
C52 C51 1.371 . S
C52 C62 1.386 . S
C52 H70 0.931 . S
C53 C51 1.365 1_455 S
C53 C54 1.409 . S
C53 H71 0.929 . S
C54 C53 1.409 . S
C54 C55 1.380 1_455 S
C54 H72 0.930 . S
C55 C54 1.380 1_655 S
C55 C62 1.357 . S
C56 C47 1.511 . S
C56 C57 1.341 . S
C56 C58 1.371 . S
C57 C56 1.341 . S
C57 C61 1.394 . S
C57 H73 0.930 . S
C58 C56 1.371 . S
C58 C59 1.392 . S
C58 H74 0.931 1_655 S
C59 C58 1.392 . S
C59 C60 1.331 . S
C59 H77 0.932 1_655 S
C60 C59 1.331 . S
C60 C61 1.336 . S
C61 C57 1.394 . S
C61 C60 1.336 . S
C61 H76 0.929 . S
C62 C52 1.386 . S
C62 C55 1.357 . S
C62 H75 0.928 . S
H63 C39 0.931 . S
H64 C41 0.930 . S
H65 C43 0.929 . S
H66 C44 0.931 . S
H67 C46 0.930 . S
H68 C50 0.931 . S
H69 C48 0.931 . S
H70 C52 0.931 . S
H71 C53 0.929 . S
H72 C54 0.930 . S
H73 C57 0.930 . S
H74 C58 0.931 1_455 S
H75 C62 0.928 . S
H76 C61 0.929 . S
H77 C59 0.932 1_455 S
C78 C79 1.393 . S
C78 C80 1.397 . S
C78 H102 0.931 . S
C79 C78 1.393 . S
C79 C83 1.389 1_565 S
C80 C78 1.397 . S
C80 C81 1.388 . S
C80 H103 0.930 . S
C81 C80 1.388 . S
C81 C82 1.373 1_565 S
C81 C84 1.482 . S
C82 C81 1.373 1_545 S
C82 C83 1.389 . S
C82 H104 0.929 . S
C83 C79 1.389 1_545 S
C83 C82 1.389 . S
C83 H105 0.931 . S
C84 C81 1.482 . S
C84 C85 1.385 . S
C84 C89 1.391 . S
C85 C84 1.385 . S
C85 C86 1.404 . S
C85 H106 0.930 . S
C86 C85 1.404 . S
C86 C87 1.375 . S
C86 C95 1.509 . S
C87 C86 1.375 . S
C87 C88 1.396 . S
C87 H108 0.932 . S
C88 C87 1.396 . S
C88 C89 1.361 . S
C88 C90 1.501 1_565 S
C89 C84 1.391 . S
C89 C88 1.361 . S
C89 H107 0.932 . S
C90 C88 1.501 1_545 S
C90 C91 1.363 1_545 S
C90 C92 1.373 . S
C91 C90 1.363 1_565 S
C91 C101 1.386 . S
C91 H109 0.931 . S
C92 C90 1.373 . S
C92 C93 1.409 . S
C92 H110 0.929 . S
C93 C92 1.409 . S
C93 C94 1.379 . S
C93 H111 0.930 . S
C94 C93 1.379 . S
C94 C101 1.358 1_545 S
C95 C86 1.509 . S
C95 C96 1.341 . S
C95 C97 1.371 1_565 S
C96 C95 1.341 . S
C96 C100 1.394 . S
C96 H112 0.930 . S
C97 C95 1.371 1_545 S
C97 C98 1.392 . S
C97 H113 0.931 . S
C98 C97 1.392 . S
C98 C99 1.324 1_545 S
C98 H116 0.932 . S
C99 C98 1.324 1_565 S
C99 C100 1.347 . S
C100 C96 1.394 . S
C100 C99 1.347 . S
C100 H115 0.929 . S
C101 C91 1.386 . S
C101 C94 1.358 1_565 S
C101 H114 0.928 . S
H102 C78 0.931 . S
H103 C80 0.930 . S
H104 C82 0.929 . S
H105 C83 0.931 . S
H106 C85 0.930 . S
H107 C89 0.932 . S
H108 C87 0.932 . S
H109 C91 0.931 . S
H110 C92 0.929 . S
H111 C93 0.930 . S
H112 C96 0.930 . S
H113 C97 0.931 . S
H114 C101 0.928 . S
H115 C100 0.929 . S
H116 C98 0.932 . S
C117 C118 1.386 . S
C117 C119 1.397 . S
C117 H141 0.931 . S
C118 C117 1.386 . S
C118 C122 1.397 . S
C119 C117 1.397 . S
C119 C120 1.384 . S
C119 H142 0.930 . S
C120 C119 1.384 . S
C120 C121 1.377 . S
C120 C123 1.481 . S
C121 C120 1.377 . S
C121 C122 1.389 . S
C121 H143 0.929 . S
C122 C118 1.397 . S
C122 C121 1.389 . S
C122 H144 0.931 . S
C123 C120 1.481 . S
C123 C124 1.387 . S
C123 C128 1.390 . S
C124 C123 1.387 . S
C124 C125 1.401 . S
C124 H145 0.930 . S
C125 C124 1.401 . S
C125 C126 1.376 . S
C125 C134 1.511 . S
C126 C125 1.376 . S
C126 C127 1.392 . S
C126 H147 0.931 . S
C127 C126 1.392 . S
C127 C128 1.361 . S
C127 C129 1.500 . S
C128 C123 1.390 . S
C128 C127 1.361 . S
C128 H146 0.931 . S
C129 C127 1.500 . S
C129 C130 1.371 1_554 S
C129 C131 1.365 . S
C130 C129 1.371 1_556 S
C130 C140 1.386 . S
C130 H148 0.931 . S
C131 C129 1.365 . S
C131 C132 1.409 1_554 S
C131 H149 0.929 . S
C132 C131 1.409 1_556 S
C132 C133 1.380 . S
C132 H150 0.930 . S
C133 C132 1.380 . S
C133 C140 1.357 . S
C134 C125 1.511 . S
C134 C135 1.341 . S
C134 C136 1.371 . S
C135 C134 1.341 . S
C135 C139 1.394 . S
C135 H151 0.930 . S
C136 C134 1.371 . S
C136 C137 1.392 . S
C136 H152 0.931 1_554 S
C137 C136 1.392 . S
C137 C138 1.331 . S
C137 H155 0.932 1_554 S
C138 C137 1.331 . S
C138 C139 1.336 . S
C139 C135 1.394 . S
C139 C138 1.336 . S
C139 H154 0.929 . S
C140 C130 1.386 . S
C140 C133 1.357 . S
C140 H153 0.928 . S
H141 C117 0.931 . S
H142 C119 0.930 . S
H143 C121 0.929 . S
H144 C122 0.931 . S
H145 C124 0.930 . S
H146 C128 0.931 . S
H147 C126 0.931 . S
H148 C130 0.931 . S
H149 C131 0.929 . S
H150 C132 0.930 . S
H151 C135 0.930 . S
H152 C136 0.931 1_556 S
H153 C140 0.928 . S
H154 C139 0.929 . S
H155 C137 0.932 1_556 S
C156 C157 1.386 . S
C156 C158 1.397 . S
C156 H180 0.931 . S
C157 C156 1.386 . S
C157 C161 1.397 . S
C158 C156 1.397 . S
C158 C159 1.384 . S
C158 H181 0.930 . S
C159 C158 1.384 . S
C159 C160 1.377 . S
C159 C162 1.481 . S
C160 C159 1.377 . S
C160 C161 1.389 . S
C160 H182 0.929 . S
C161 C157 1.397 . S
C161 C160 1.389 . S
C161 H183 0.931 . S
C162 C159 1.481 . S
C162 C163 1.387 . S
C162 C167 1.390 1_554 S
C163 C162 1.387 . S
C163 C164 1.401 . S
C163 H184 0.930 . S
C164 C163 1.401 . S
C164 C165 1.376 1_554 S
C164 C173 1.511 . S
C165 C164 1.376 1_556 S
C165 C166 1.392 . S
C165 H186 0.931 . S
C166 C165 1.392 . S
C166 C167 1.361 . S
C166 C168 1.500 . S
C167 C162 1.390 1_556 S
C167 C166 1.361 . S
C167 H185 0.931 . S
C168 C166 1.500 . S
C168 C169 1.371 . S
C168 C170 1.365 . S
C169 C168 1.371 . S
C169 C179 1.386 . S
C169 H187 0.931 . S
C170 C168 1.365 . S
C170 C171 1.409 . S
C170 H188 0.929 . S
C171 C170 1.409 . S
C171 C172 1.380 . S
C171 H189 0.930 . S
C172 C171 1.380 . S
C172 C179 1.357 . S
C173 C164 1.511 . S
C173 C174 1.341 . S
C173 C175 1.371 1_554 S
C174 C173 1.341 . S
C174 C178 1.394 . S
C174 H190 0.930 . S
C175 C173 1.371 1_556 S
C175 C176 1.392 . S
C175 H191 0.931 . S
C176 C175 1.392 . S
C176 C177 1.331 1_556 S
C176 H194 0.932 . S
C177 C176 1.331 1_554 S
C177 C178 1.336 . S
C178 C174 1.394 . S
C178 C177 1.336 . S
C178 H193 0.929 . S
C179 C169 1.386 . S
C179 C172 1.357 . S
C179 H192 0.928 . S
H180 C156 0.931 . S
H181 C158 0.930 . S
H182 C160 0.929 . S
H183 C161 0.931 . S
H184 C163 0.930 . S
H185 C167 0.931 . S
H186 C165 0.931 . S
H187 C169 0.931 . S
H188 C170 0.929 . S
H189 C171 0.930 . S
H190 C174 0.930 . S
H191 C175 0.931 . S
H192 C179 0.928 . S
H193 C178 0.929 . S
H194 C176 0.932 . S
C195 C196 1.386 1_655 S
C195 C197 1.397 . S
C195 H219 0.931 . S
C196 C195 1.386 1_455 S
C196 C200 1.397 . S
C197 C195 1.397 . S
C197 C198 1.384 1_655 S
C197 H220 0.930 . S
C198 C197 1.384 1_455 S
C198 C199 1.377 . S
C198 C201 1.481 . S
C199 C198 1.377 . S
C199 C200 1.389 . S
C199 H221 0.929 . S
C200 C196 1.397 . S
C200 C199 1.389 . S
C200 H222 0.931 . S
C201 C198 1.481 . S
C201 C202 1.387 . S
C201 C206 1.390 . S
C202 C201 1.387 . S
C202 C203 1.401 . S
C202 H223 0.930 . S
C203 C202 1.401 . S
C203 C204 1.376 . S
C203 C212 1.511 . S
C204 C203 1.376 . S
C204 C205 1.392 . S
C204 H225 0.931 . S
C205 C204 1.392 . S
C205 C206 1.361 . S
C205 C207 1.500 1_554 S
C206 C201 1.390 . S
C206 C205 1.361 . S
C206 H224 0.931 . S
C207 C205 1.500 1_556 S
C207 C208 1.371 . S
C207 C209 1.365 . S
C208 C207 1.371 . S
C208 C218 1.386 . S
C208 H226 0.931 1_455 S
C209 C207 1.365 . S
C209 C210 1.409 . S
C209 H227 0.929 . S
C210 C209 1.409 . S
C210 C211 1.380 . S
C210 H228 0.930 . S
C211 C210 1.380 . S
C211 C218 1.357 . S
C212 C203 1.511 . S
C212 C213 1.341 . S
C212 C214 1.371 . S
C213 C212 1.341 . S
C213 C217 1.394 . S
C213 H229 0.923 1_455 S
C214 C212 1.371 . S
C214 C215 1.392 . S
C214 H230 0.931 . S
C215 C214 1.392 . S
C215 C216 1.331 . S
C215 H233 0.932 . S
C216 C215 1.331 . S
C216 C217 1.336 . S
C217 C213 1.394 . S
C217 C216 1.336 . S
C217 H232 0.932 . S
C218 C208 1.386 . S
C218 C211 1.357 . S
C218 H231 0.928 1_455 S
H219 C195 0.931 . S
H220 C197 0.930 . S
H221 C199 0.929 . S
H222 C200 0.931 . S
H223 C202 0.930 . S
H224 C206 0.931 . S
H225 C204 0.931 . S
H226 C208 0.931 1_655 S
H227 C209 0.929 . S
H228 C210 0.930 . S
H229 C213 0.923 1_655 S
H230 C214 0.931 . S
H231 C218 0.928 1_655 S
H232 C217 0.932 . S
H233 C215 0.932 . S
C234 C235 1.388 . S
C234 C236 1.397 . S
C234 H258 0.931 . S
C235 C234 1.388 . S
C235 C239 1.395 1_565 S
C236 C234 1.397 . S
C236 C237 1.382 . S
C236 H259 0.930 . S
C237 C236 1.382 . S
C237 C238 1.380 1_565 S
C237 C240 1.479 . S
C238 C237 1.380 1_545 S
C238 C239 1.389 . S
C238 H260 0.929 . S
C239 C235 1.395 1_545 S
C239 C238 1.389 . S
C239 H261 0.931 . S
C240 C237 1.479 . S
C240 C241 1.390 . S
C240 C245 1.389 . S
C241 C240 1.390 . S
C241 C242 1.401 . S
C241 H262 0.930 . S
C242 C241 1.401 . S
C242 C243 1.377 . S
C242 C251 1.514 . S
C243 C242 1.377 . S
C243 C244 1.388 1_565 S
C243 H264 0.935 . S
C244 C243 1.388 1_545 S
C244 C245 1.361 1_545 S
C244 C246 1.497 . S
C245 C240 1.389 . S
C245 C244 1.361 1_565 S
C245 H263 0.930 . S
C246 C244 1.497 . S
C246 C247 1.356 1_545 S
C246 C248 1.383 . S
C247 C246 1.356 1_565 S
C247 C257 1.386 1_554 S
C247 H265 0.931 . S
C248 C246 1.383 . S
C248 C249 1.409 1_554 S
C248 H266 0.929 . S
C249 C248 1.409 1_556 S
C249 C250 1.385 . S
C249 H267 0.930 . S
C250 C249 1.385 . S
C250 C257 1.352 1_545 S
C251 C242 1.514 . S
C251 C252 1.341 . S
C251 C253 1.371 1_565 S
C252 C251 1.341 . S
C252 C256 1.394 . S
C252 H268 0.930 . S
C253 C251 1.371 1_545 S
C253 C254 1.392 . S
C253 H269 0.931 . S
C254 C253 1.392 . S
C254 C255 1.324 1_545 S
C254 H272 0.932 . S
C255 C254 1.324 1_565 S
C255 C256 1.341 . S
C256 C252 1.394 . S
C256 C255 1.341 . S
C256 H271 0.929 . S
C257 C247 1.386 1_556 S
C257 C250 1.352 1_565 S
C257 H270 0.928 . S
H258 C234 0.931 . S
H259 C236 0.930 . S
H260 C238 0.929 . S
H261 C239 0.931 . S
H262 C241 0.930 . S
H263 C245 0.930 . S
H264 C243 0.935 . S
H265 C247 0.931 . S
H266 C248 0.929 . S
H267 C249 0.930 . S
H268 C252 0.930 . S
H269 C253 0.931 . S
H270 C257 0.928 . S
H271 C256 0.929 . S
H272 C254 0.932 . S
C273 C274 1.386 . S
C273 C275 1.397 . S
C273 H297 0.931 . S
C274 C273 1.386 . S
C274 C278 1.397 . S
C275 C273 1.397 . S
C275 C276 1.384 . S
C275 H298 0.930 . S
C276 C275 1.384 . S
C276 C277 1.377 . S
C276 C279 1.481 . S
C277 C276 1.377 . S
C277 C278 1.389 . S
C277 H299 0.929 . S
C278 C274 1.397 . S
C278 C277 1.389 . S
C278 H300 0.931 . S
C279 C276 1.481 . S
C279 C280 1.387 . S
C279 C284 1.390 . S
C280 C279 1.387 . S
C280 C281 1.401 . S
C280 H301 0.930 . S
C281 C280 1.401 . S
C281 C282 1.376 . S
C281 C290 1.511 . S
C282 C281 1.376 . S
C282 C283 1.392 . S
C282 H303 0.931 . S
C283 C282 1.392 . S
C283 C284 1.361 . S
C283 C285 1.500 . S
C284 C279 1.390 . S
C284 C283 1.361 . S
C284 H302 0.931 . S
C285 C283 1.500 . S
C285 C286 1.371 . S
C285 C287 1.365 . S
C286 C285 1.371 . S
C286 C296 1.386 . S
C286 H304 0.931 . S
C287 C285 1.365 . S
C287 C288 1.409 . S
C287 H305 0.929 . S
C288 C287 1.409 . S
C288 C289 1.380 . S
C288 H306 0.930 . S
C289 C288 1.380 . S
C289 C296 1.357 . S
C290 C281 1.511 . S
C290 C291 1.341 . S
C290 C292 1.371 . S
C291 C290 1.341 . S
C291 C295 1.394 . S
C291 H307 0.930 . S
C292 C290 1.371 . S
C292 C293 1.392 . S
C292 H308 0.931 . S
C293 C292 1.392 . S
C293 C294 1.331 . S
C293 H311 0.932 . S
C294 C293 1.331 . S
C294 C295 1.336 . S
C295 C291 1.394 . S
C295 C294 1.336 . S
C295 H310 0.929 . S
C296 C286 1.386 . S
C296 C289 1.357 . S
C296 H309 0.928 . S
H297 C273 0.931 . S
H298 C275 0.930 . S
H299 C277 0.929 . S
H300 C278 0.931 . S
H301 C280 0.930 . S
H302 C284 0.931 . S
H303 C282 0.931 . S
H304 C286 0.931 . S
H305 C287 0.929 . S
H306 C288 0.930 . S
H307 C291 0.930 . S
H308 C292 0.931 . S
H309 C296 0.928 . S
H310 C295 0.929 . S
H311 C293 0.932 . S
Dy312 O315 2.307 1_545 S
Dy312 O317 2.395 1_655 S
Dy312 O318 2.379 . S
Dy312 O320 2.339 . S
Dy312 O322 2.298 . S
Dy312 O326 2.275 1_655 S
Dy312 C334 2.738 . S
Dy313 O316 2.298 . S
Dy313 O319 2.275 1_455 S
Dy313 O321 2.307 1_565 S
Dy313 O323 2.384 1_455 S
Dy313 O324 2.379 . S
Dy313 O327 2.339 . S
Dy313 C343 2.738 . S
C314 O326 1.254 1_565 S
C314 O327 1.257 . S
O315 Dy312 2.307 1_565 S
O315 C325 1.266 . S
O316 Dy313 2.298 . S
O316 C325 1.236 1_455 S
O317 Dy312 2.395 1_455 S
O317 C334 1.255 1_455 S
O318 Dy312 2.379 . S
O318 C334 1.249 . S
O319 Dy313 2.275 1_655 S
O319 C335 1.254 1_565 S
O320 Dy312 2.339 . S
O320 C335 1.257 . S
O321 Dy313 2.307 1_545 S
O321 C336 1.266 . S
O322 Dy312 2.298 . S
O322 C336 1.236 1_655 S
O323 Dy313 2.384 1_655 S
O323 C343 1.233 1_655 S
O324 Dy313 2.379 . S
O324 C343 1.249 . S
C325 O315 1.266 . S
C325 O316 1.236 1_655 S
O326 Dy312 2.275 1_455 S
O326 C314 1.254 1_545 S
O327 Dy313 2.339 . S
O327 C314 1.257 . S
C328 C331 1.344 1_655 S
C328 C332 1.328 . S
C328 C334 1.516 . S
C329 C330 1.304 1_655 S
C329 C333 1.323 . S
C330 C329 1.304 1_455 S
C330 C331 1.371 . S
C330 H344 0.930 . S
C331 C328 1.344 1_455 S
C331 C330 1.371 . S
C331 H345 0.931 . S
C332 C328 1.328 . S
C332 C333 1.433 . S
C332 H346 0.931 . S
C333 C329 1.323 . S
C333 C332 1.433 . S
C333 H347 0.933 . S
C334 Dy312 2.738 . S
C334 O317 1.255 1_655 S
C334 O318 1.249 . S
C334 C328 1.516 . S
C335 O319 1.254 1_545 S
C335 O320 1.257 . S
C336 O321 1.266 . S
C336 O322 1.236 1_455 S
C337 C340 1.369 . S
C337 C341 1.328 . S
C337 C343 1.516 . S
C338 C339 1.304 . S
C338 C342 1.323 . S
C339 C338 1.304 . S
C339 C340 1.373 . S
C339 H348 0.930 1_455 S
C340 C337 1.369 . S
C340 C339 1.373 . S
C340 H349 0.904 1_455 S
C341 C337 1.328 . S
C341 C342 1.433 . S
C341 H350 0.931 . S
C342 C338 1.323 . S
C342 C341 1.433 . S
C342 H351 0.933 . S
C343 Dy313 2.738 . S
C343 O323 1.233 1_455 S
C343 O324 1.249 . S
C343 C337 1.516 . S
H344 C330 0.930 . S
H345 C331 0.931 . S
H346 C332 0.931 . S
H347 C333 0.933 . S
H348 C339 0.930 1_655 S
H349 C340 0.904 1_655 S
H350 C341 0.931 . S
H351 C342 0.933 . S
Dy352 O355 2.307 . S
Dy352 O357 2.395 1_565 S
Dy352 O358 2.379 . S
Dy352 O360 2.339 . S
Dy352 O362 2.298 . S
Dy352 O366 2.275 1_565 S
Dy352 C374 2.738 . S
Dy353 O356 2.298 . S
Dy353 O359 2.275 1_545 S
Dy353 O361 2.307 . S
Dy353 O363 2.395 1_545 S
Dy353 O364 2.379 . S
Dy353 O367 2.339 . S
Dy353 C383 2.738 . S
C354 O366 1.254 . S
C354 O367 1.257 . S
O355 Dy352 2.307 . S
O355 C365 1.266 . S
O356 Dy353 2.298 . S
O356 C365 1.236 1_545 S
O357 Dy352 2.395 1_545 S
O357 C374 1.255 1_545 S
O358 Dy352 2.379 . S
O358 C374 1.249 . S
O359 Dy353 2.275 1_565 S
O359 C375 1.254 . S
O360 Dy352 2.339 . S
O360 C375 1.257 . S
O361 Dy353 2.307 . S
O361 C376 1.266 . S
O362 Dy352 2.298 . S
O362 C376 1.236 1_565 S
O363 Dy353 2.395 1_565 S
O363 C383 1.255 1_565 S
O364 Dy353 2.379 . S
O364 C383 1.249 . S
C365 O355 1.266 . S
C365 O356 1.236 1_565 S
O366 Dy352 2.275 1_545 S
O366 C354 1.254 . S
O367 Dy353 2.339 . S
O367 C354 1.257 . S
C368 C371 1.327 1_565 S
C368 C372 1.328 . S
C368 C374 1.516 . S
C369 C370 1.304 . S
C369 C373 1.323 . S
C370 C369 1.304 . S
C370 C371 1.368 1_565 S
C370 H384 0.930 1_565 S
C371 C368 1.327 1_545 S
C371 C370 1.368 1_545 S
C371 H385 0.951 . S
C372 C368 1.328 . S
C372 C373 1.433 . S
C372 H386 0.931 . S
C373 C369 1.323 . S
C373 C372 1.433 . S
C373 H387 0.933 . S
C374 Dy352 2.738 . S
C374 O357 1.255 1_565 S
C374 O358 1.249 . S
C374 C368 1.516 . S
C375 O359 1.254 . S
C375 O360 1.257 . S
C376 O361 1.266 . S
C376 O362 1.236 1_545 S
C377 C380 1.336 1_545 S
C377 C381 1.328 . S
C377 C383 1.516 . S
C378 C379 1.304 . S
C378 C382 1.323 . S
C379 C378 1.304 . S
C379 C380 1.369 1_545 S
C379 H388 0.930 1_545 S
C380 C377 1.336 1_565 S
C380 C379 1.369 1_565 S
C380 H389 0.941 . S
C381 C377 1.328 . S
C381 C382 1.433 . S
C381 H390 0.931 . S
C382 C378 1.323 . S
C382 C381 1.433 . S
C382 H391 0.933 . S
C383 Dy353 2.738 . S
C383 O363 1.255 1_545 S
C383 O364 1.249 . S
C383 C377 1.516 . S
H384 C370 0.930 1_545 S
H385 C371 0.951 . S
H386 C372 0.931 . S
H387 C373 0.933 . S
H388 C379 0.930 1_565 S
H389 C380 0.941 . S
H390 C381 0.931 . S
H391 C382 0.933 . S
Dy392 O395 2.307 . S
Dy392 O397 2.395 . S
Dy392 O398 2.379 . S
Dy392 O400 2.339 . S
Dy392 O402 2.298 . S
Dy392 O406 2.275 . S
Dy392 C414 2.738 . S
Dy393 O396 2.298 . S
Dy393 O399 2.275 . S
Dy393 O401 2.307 . S
Dy393 O403 2.395 . S
Dy393 O404 2.379 . S
Dy393 O407 2.339 . S
Dy393 C423 2.738 . S
C394 O406 1.254 . S
C394 O407 1.257 . S
O395 Dy392 2.307 . S
O395 C405 1.266 . S
O396 Dy393 2.298 . S
O396 C405 1.236 . S
O397 Dy392 2.395 . S
O397 C414 1.255 . S
O398 Dy392 2.379 . S
O398 C414 1.249 . S
O399 Dy393 2.275 . S
O399 C415 1.254 . S
O400 Dy392 2.339 . S
O400 C415 1.257 . S
O401 Dy393 2.307 . S
O401 C416 1.266 . S
O402 Dy392 2.298 . S
O402 C416 1.236 . S
O403 Dy393 2.395 . S
O403 C423 1.255 . S
O404 Dy393 2.379 . S
O404 C423 1.249 . S
C405 O395 1.266 . S
C405 O396 1.236 . S
O406 Dy392 2.275 . S
O406 C394 1.254 . S
O407 Dy393 2.339 . S
O407 C394 1.257 . S
C408 C411 1.344 . S
C408 C412 1.328 . S
C408 C414 1.516 . S
C409 C410 1.304 . S
C409 C413 1.323 . S
C410 C409 1.304 . S
C410 C411 1.371 . S
C410 H424 0.930 . S
C411 C408 1.344 . S
C411 C410 1.371 . S
C411 H425 0.931 . S
C412 C408 1.328 . S
C412 C413 1.433 . S
C412 H426 0.931 . S
C413 C409 1.323 . S
C413 C412 1.433 . S
C413 H427 0.933 . S
C414 Dy392 2.738 . S
C414 O397 1.255 . S
C414 O398 1.249 . S
C414 C408 1.516 . S
C415 O399 1.254 . S
C415 O400 1.257 . S
C416 O401 1.266 . S
C416 O402 1.236 . S
C417 C420 1.344 . S
C417 C421 1.328 . S
C417 C423 1.516 . S
C418 C419 1.304 . S
C418 C422 1.323 . S
C419 C418 1.304 . S
C419 C420 1.371 . S
C419 H428 0.930 . S
C420 C417 1.344 . S
C420 C419 1.371 . S
C420 H429 0.931 . S
C421 C417 1.328 . S
C421 C422 1.433 . S
C421 H430 0.931 . S
C422 C418 1.323 . S
C422 C421 1.433 . S
C422 H431 0.933 . S
C423 Dy393 2.738 . S
C423 O403 1.255 . S
C423 O404 1.249 . S
C423 C417 1.516 . S
H424 C410 0.930 . S
H425 C411 0.931 . S
H426 C412 0.931 . S
H427 C413 0.933 . S
H428 C419 0.930 . S
H429 C420 0.931 . S
H430 C421 0.931 . S
H431 C422 0.933 . S
Dy432 O435 2.307 1_455 S
Dy432 O437 2.395 . S
Dy432 O438 2.379 . S
Dy432 O440 2.339 . S
Dy432 O442 2.298 . S
Dy432 O446 2.275 . S
Dy432 C454 2.738 . S
Dy433 O436 2.298 . S
Dy433 O439 2.275 . S
Dy433 O441 2.307 1_655 S
Dy433 O443 2.395 . S
Dy433 O444 2.379 . S
Dy433 O447 2.339 . S
Dy433 C463 2.738 . S
C434 O446 1.271 . S
C434 O447 1.236 1_455 S
O435 Dy432 2.307 1_655 S
O435 C445 1.266 . S
O436 Dy433 2.298 . S
O436 C445 1.236 . S
O437 Dy432 2.395 . S
O437 C454 1.255 . S
O438 Dy432 2.379 . S
O438 C454 1.249 . S
O439 Dy433 2.275 . S
O439 C455 1.254 1_655 S
O440 Dy432 2.339 . S
O440 C455 1.257 . S
O441 Dy433 2.307 1_455 S
O441 C456 1.266 . S
O442 Dy432 2.298 . S
O442 C456 1.236 . S
O443 Dy433 2.395 . S
O443 C463 1.255 . S
O444 Dy433 2.379 . S
O444 C463 1.249 . S
C445 O435 1.266 . S
C445 O436 1.236 . S
O446 Dy432 2.275 . S
O446 C434 1.271 . S
O447 Dy433 2.339 . S
O447 C434 1.236 1_655 S
C448 C451 1.344 . S
C448 C452 1.328 . S
C448 C454 1.516 . S
C449 C450 1.304 . S
C449 C453 1.323 . S
C450 C449 1.304 . S
C450 C451 1.371 . S
C450 H464 0.930 . S
C451 C448 1.344 . S
C451 C450 1.371 . S
C451 H465 0.931 . S
C452 C448 1.328 . S
C452 C453 1.433 . S
C452 H466 0.931 . S
C453 C449 1.323 . S
C453 C452 1.433 . S
C453 H467 0.933 . S
C454 Dy432 2.738 . S
C454 O437 1.255 . S
C454 O438 1.249 . S
C454 C448 1.516 . S
C455 O439 1.254 1_455 S
C455 O440 1.257 . S
C456 O441 1.266 . S
C456 O442 1.236 . S
C457 C460 1.344 . S
C457 C461 1.328 . S
C457 C463 1.516 . S
C458 C459 1.304 1_554 S
C458 C462 1.323 1_554 S
C459 C458 1.304 1_556 S
C459 C460 1.371 . S
C459 H468 0.930 1_556 S
C460 C457 1.344 . S
C460 C459 1.371 . S
C460 H469 0.931 . S
C461 C457 1.328 . S
C461 C462 1.433 . S
C461 H470 0.931 . S
C462 C458 1.323 1_556 S
C462 C461 1.433 . S
C462 H471 0.933 . S
C463 Dy433 2.738 . S
C463 O443 1.255 . S
C463 O444 1.249 . S
C463 C457 1.516 . S
H464 C450 0.930 . S
H465 C451 0.931 . S
H466 C452 0.931 . S
H467 C453 0.933 . S
H468 C459 0.930 1_554 S
H469 C460 0.931 . S
H470 C461 0.931 . S
H471 C462 0.933 . S
H472 C484 0.930 . S
H473 C486 0.930 . S
H474 C487 0.930 . S
H475 C491 0.959 . S
H476 C491 0.959 . S
H477 C491 0.961 . S
H478 C492 0.960 . S
H479 C492 0.961 . S
H480 C492 0.959 . S
H481 C495 0.929 . S
H482 C496 0.931 . S
H483 C498 0.930 . S
C484 H472 0.930 . S
C484 C485 1.378 1_545 S
C484 C489 1.399 . S
C485 C484 1.378 1_565 S
C485 C486 1.406 . S
C486 H473 0.930 . S
C486 C485 1.406 . S
C486 C487 1.388 . S
C487 H474 0.930 . S
C487 C486 1.388 . S
C487 C488 1.390 . S
C488 C487 1.390 . S
C488 C489 1.394 1_565 S
C488 C494 1.465 . S
C489 C484 1.399 . S
C489 C488 1.394 1_545 S
C489 C490 1.516 . S
C490 C489 1.516 . S
C490 C491 1.502 . S
C490 C492 1.561 . S
C490 C493 1.526 . S
C491 H475 0.959 . S
C491 H476 0.959 . S
C491 H477 0.961 . S
C491 C490 1.502 . S
C492 H478 0.960 . S
C492 H479 0.961 . S
C492 H480 0.959 . S
C492 C490 1.561 . S
C493 C490 1.526 . S
C493 C494 1.396 1_545 S
C493 C498 1.390 . S
C494 C488 1.465 . S
C494 C493 1.396 1_565 S
C494 C495 1.399 . S
C495 H481 0.929 . S
C495 C494 1.399 . S
C495 C496 1.385 . S
C496 H482 0.931 . S
C496 C495 1.385 . S
C496 C497 1.389 . S
C497 C496 1.389 . S
C497 C498 1.387 1_565 S
C498 H483 0.930 . S
C498 C493 1.390 . S
C498 C497 1.387 1_545 S
H499 C511 0.930 . S
H500 C513 0.930 . S
H501 C514 0.930 . S
H502 C518 0.959 . S
H503 C518 0.959 . S
H504 C518 0.961 . S
H505 C519 0.960 . S
H506 C519 0.961 . S
H507 C519 0.959 . S
H508 C522 0.929 . S
H509 C523 0.931 . S
H510 C525 0.930 . S
C511 H499 0.930 . S
C511 C512 1.399 . S
C511 C516 1.399 . S
C512 C511 1.399 . S
C512 C513 1.376 . S
C513 H500 0.930 . S
C513 C512 1.376 . S
C513 C514 1.388 . S
C514 H501 0.930 . S
C514 C513 1.388 . S
C514 C515 1.390 . S
C515 C514 1.390 . S
C515 C516 1.394 . S
C515 C521 1.465 . S
C516 C511 1.399 . S
C516 C515 1.394 . S
C516 C517 1.516 . S
C517 C516 1.516 . S
C517 C518 1.502 . S
C517 C519 1.561 . S
C517 C520 1.526 . S
C518 H502 0.959 . S
C518 H503 0.959 . S
C518 H504 0.961 . S
C518 C517 1.502 . S
C519 H505 0.960 . S
C519 H506 0.961 . S
C519 H507 0.959 . S
C519 C517 1.561 . S
C520 C517 1.526 . S
C520 C521 1.396 . S
C520 C525 1.390 . S
C521 C515 1.465 . S
C521 C520 1.396 . S
C521 C522 1.399 . S
C522 H508 0.929 . S
C522 C521 1.399 . S
C522 C523 1.385 . S
C523 H509 0.931 . S
C523 C522 1.385 . S
C523 C524 1.389 . S
C524 C523 1.389 . S
C524 C525 1.387 . S
C525 H510 0.930 . S
C525 C520 1.390 . S
C525 C524 1.387 . S
H526 C538 0.930 . S
H527 C540 0.930 . S
H528 C541 0.930 . S
H529 C545 0.959 . S
H530 C545 0.959 . S
H531 C545 0.961 . S
H532 C546 0.960 . S
H533 C546 0.961 . S
H534 C546 0.959 . S
H535 C549 0.929 . S
H536 C550 0.931 . S
H537 C552 0.930 . S
C538 H526 0.930 . S
C538 C539 1.399 . S
C538 C543 1.399 . S
C539 C538 1.399 . S
C539 C540 1.376 . S
C540 H527 0.930 . S
C540 C539 1.376 . S
C540 C541 1.388 . S
C541 H528 0.930 . S
C541 C540 1.388 . S
C541 C542 1.390 . S
C542 C541 1.390 . S
C542 C543 1.394 . S
C542 C548 1.465 . S
C543 C538 1.399 . S
C543 C542 1.394 . S
C543 C544 1.516 . S
C544 C543 1.516 . S
C544 C545 1.502 . S
C544 C546 1.561 . S
C544 C547 1.526 . S
C545 H529 0.959 . S
C545 H530 0.959 . S
C545 H531 0.961 . S
C545 C544 1.502 . S
C546 H532 0.960 . S
C546 H533 0.961 . S
C546 H534 0.959 . S
C546 C544 1.561 . S
C547 C544 1.526 . S
C547 C548 1.396 . S
C547 C552 1.390 . S
C548 C542 1.465 . S
C548 C547 1.396 . S
C548 C549 1.399 . S
C549 H535 0.929 . S
C549 C548 1.399 . S
C549 C550 1.385 . S
C550 H536 0.931 . S
C550 C549 1.385 . S
C550 C551 1.389 . S
C551 C550 1.389 . S
C551 C552 1.387 . S
C552 H537 0.930 . S
C552 C547 1.390 . S
C552 C551 1.387 . S
H553 C565 0.930 . S
H554 C567 0.930 . S
H555 C568 0.930 . S
H556 C572 0.959 . S
H557 C572 0.959 . S
H558 C572 0.961 . S
H559 C573 0.960 . S
H560 C573 0.961 . S
H561 C573 0.959 1_455 S
H562 C576 0.929 . S
H563 C577 0.931 . S
H564 C579 0.930 . S
C565 H553 0.930 . S
C565 C566 1.399 1_655 S
C565 C570 1.399 1_655 S
C566 C565 1.399 1_455 S
C566 C567 1.376 . S
C567 H554 0.930 . S
C567 C566 1.376 . S
C567 C568 1.388 . S
C568 H555 0.930 . S
C568 C567 1.388 . S
C568 C569 1.390 . S
C569 C568 1.390 . S
C569 C570 1.394 . S
C569 C575 1.465 . S
C570 C565 1.399 1_455 S
C570 C569 1.394 . S
C570 C571 1.516 1_455 S
C571 C570 1.516 1_655 S
C571 C572 1.502 . S
C571 C573 1.561 . S
C571 C574 1.512 1_655 S
C572 H556 0.959 . S
C572 H557 0.959 . S
C572 H558 0.961 . S
C572 C571 1.502 . S
C573 H559 0.960 . S
C573 H560 0.961 . S
C573 H561 0.959 1_655 S
C573 C571 1.561 . S
C574 C571 1.512 1_455 S
C574 C575 1.413 . S
C574 C579 1.388 1_455 S
C575 C569 1.465 . S
C575 C574 1.413 . S
C575 C576 1.399 . S
C576 H562 0.929 . S
C576 C575 1.399 . S
C576 C577 1.385 . S
C577 H563 0.931 . S
C577 C576 1.385 . S
C577 C578 1.389 . S
C578 C577 1.389 . S
C578 C579 1.387 1_455 S
C579 H564 0.930 . S
C579 C574 1.388 1_655 S
C579 C578 1.387 1_655 S
H580 C592 0.930 . S
H581 C594 0.930 . S
H582 C595 0.930 . S
H583 C599 0.959 . S
H584 C599 0.959 . S
H585 C599 0.961 . S
H586 C600 0.960 . S
H587 C600 0.961 1_556 S
H588 C600 0.959 . S
H589 C603 0.929 . S
H590 C604 0.931 . S
H591 C606 0.930 . S
C592 H580 0.930 . S
C592 C593 1.399 1_545 S
C592 C597 1.399 . S
C593 C592 1.399 1_565 S
C593 C594 1.376 . S
C594 H581 0.930 . S
C594 C593 1.376 . S
C594 C595 1.388 . S
C595 H582 0.930 . S
C595 C594 1.388 . S
C595 C596 1.390 . S
C596 C595 1.390 . S
C596 C597 1.394 1_565 S
C596 C602 1.465 1_554 S
C597 C592 1.399 . S
C597 C596 1.394 1_545 S
C597 C598 1.516 1_554 S
C598 C597 1.516 1_556 S
C598 C599 1.502 . S
C598 C600 1.561 1_556 S
C598 C601 1.526 . S
C599 H583 0.959 . S
C599 H584 0.959 . S
C599 H585 0.961 . S
C599 C598 1.502 . S
C600 H586 0.960 . S
C600 H587 0.961 1_554 S
C600 H588 0.959 . S
C600 C598 1.561 1_554 S
C601 C598 1.526 . S
C601 C602 1.396 1_545 S
C601 C606 1.390 . S
C602 C596 1.465 1_556 S
C602 C601 1.396 1_565 S
C602 C603 1.399 . S
C603 H589 0.929 . S
C603 C602 1.399 . S
C603 C604 1.385 . S
C604 H590 0.931 . S
C604 C603 1.385 . S
C604 C605 1.389 . S
C605 C604 1.389 . S
C605 C606 1.387 1_565 S
C606 H591 0.930 . S
C606 C601 1.390 . S
C606 C605 1.387 1_545 S
H607 C619 0.930 . S
H608 C621 0.930 1_554 S
H609 C622 0.930 . S
H610 C626 0.959 . S
H611 C626 0.959 . S
H612 C626 0.961 . S
H613 C627 0.960 . S
H614 C627 0.961 . S
H615 C627 0.959 . S
H616 C630 0.929 . S
H617 C631 0.931 . S
H618 C633 0.930 . S
C619 H607 0.930 . S
C619 C620 1.399 1_556 S
C619 C624 1.399 . S
C620 C619 1.399 1_554 S
C620 C621 1.376 1_554 S
C621 H608 0.930 1_556 S
C621 C620 1.376 1_556 S
C621 C622 1.388 . S
C622 H609 0.930 . S
C622 C621 1.388 . S
C622 C623 1.390 . S
C623 C622 1.390 . S
C623 C624 1.394 . S
C623 C629 1.465 . S
C624 C619 1.399 . S
C624 C623 1.394 . S
C624 C625 1.516 . S
C625 C624 1.516 . S
C625 C626 1.502 . S
C625 C627 1.561 . S
C625 C628 1.526 . S
C626 H610 0.959 . S
C626 H611 0.959 . S
C626 H612 0.961 . S
C626 C625 1.502 . S
C627 H613 0.960 . S
C627 H614 0.961 . S
C627 H615 0.959 . S
C627 C625 1.561 . S
C628 C625 1.526 . S
C628 C629 1.396 . S
C628 C633 1.390 . S
C629 C623 1.465 . S
C629 C628 1.396 . S
C629 C630 1.399 . S
C630 H616 0.929 . S
C630 C629 1.399 . S
C630 C631 1.385 . S
C631 H617 0.931 . S
C631 C630 1.385 . S
C631 C632 1.389 . S
C632 C631 1.389 . S
C632 C633 1.387 . S
C633 H618 0.930 . S
C633 C628 1.390 . S
C633 C632 1.387 . S
H634 C646 0.930 . S
H635 C648 0.930 . S
H636 C649 0.930 . S
H637 C653 0.959 . S
H638 C653 0.959 . S
H639 C653 0.961 . S
H640 C654 0.960 . S
H641 C654 0.961 . S
H642 C654 0.959 . S
H643 C657 0.929 . S
H644 C658 0.931 . S
H645 C660 0.930 . S
C646 H634 0.930 . S
C646 C647 1.399 . S
C646 C651 1.399 . S
C647 C646 1.399 . S
C647 C648 1.376 . S
C648 H635 0.930 . S
C648 C647 1.376 . S
C648 C649 1.388 . S
C649 H636 0.930 . S
C649 C648 1.388 . S
C649 C650 1.390 . S
C650 C649 1.390 . S
C650 C651 1.394 . S
C650 C656 1.465 . S
C651 C646 1.399 . S
C651 C650 1.394 . S
C651 C652 1.516 . S
C652 C651 1.516 . S
C652 C653 1.502 . S
C652 C654 1.561 . S
C652 C655 1.526 . S
C653 H637 0.959 . S
C653 H638 0.959 . S
C653 H639 0.961 . S
C653 C652 1.502 . S
C654 H640 0.960 . S
C654 H641 0.961 . S
C654 H642 0.959 . S
C654 C652 1.561 . S
C655 C652 1.526 . S
C655 C656 1.396 . S
C655 C660 1.390 . S
C656 C650 1.465 . S
C656 C655 1.396 . S
C656 C657 1.399 . S
C657 H643 0.929 . S
C657 C656 1.399 . S
C657 C658 1.385 . S
C658 H644 0.931 . S
C658 C657 1.385 . S
C658 C659 1.389 . S
C659 C658 1.389 . S
C659 C660 1.387 . S
C660 H645 0.930 . S
C660 C655 1.390 . S
C660 C659 1.387 . S
H661 C673 0.915 1_455 S
H662 C675 0.930 . S
H663 C676 0.930 . S
H664 C680 0.959 . S
H665 C680 0.959 . S
H666 C680 0.961 . S
H667 C681 0.960 . S
H668 C681 0.961 . S
H669 C681 0.959 . S
H670 C684 0.929 . S
H671 C685 0.931 . S
H672 C687 0.930 . S
C673 H661 0.915 1_655 S
C673 C674 1.406 . S
C673 C678 1.408 . S
C674 C673 1.406 . S
C674 C675 1.376 . S
C675 H662 0.930 . S
C675 C674 1.376 . S
C675 C676 1.388 . S
C676 H663 0.930 . S
C676 C675 1.388 . S
C676 C677 1.390 . S
C677 C676 1.390 . S
C677 C678 1.394 . S
C677 C683 1.465 . S
C678 C673 1.408 . S
C678 C677 1.394 . S
C678 C679 1.516 1_655 S
C679 C678 1.516 1_455 S
C679 C680 1.502 . S
C679 C681 1.561 1_455 S
C679 C682 1.513 1_454 S
C680 H664 0.959 . S
C680 H665 0.959 . S
C680 H666 0.961 . S
C680 C679 1.502 . S
C681 H667 0.960 . S
C681 H668 0.961 . S
C681 H669 0.959 . S
C681 C679 1.561 1_655 S
C682 C679 1.513 1_656 S
C682 C683 1.411 1_556 S
C682 C687 1.392 1_655 S
C683 C677 1.465 . S
C683 C682 1.411 1_554 S
C683 C684 1.399 1_554 S
C684 H670 0.929 . S
C684 C683 1.399 1_556 S
C684 C685 1.385 . S
C685 H671 0.931 . S
C685 C684 1.385 . S
C685 C686 1.389 . S
C686 C685 1.389 . S
C686 C687 1.387 1_655 S
C687 H672 0.930 . S
C687 C682 1.392 1_455 S
C687 C686 1.387 1_455 S
H688 C700 0.930 . S
H689 C702 0.930 . S
H690 C703 0.930 . S
H691 C707 0.959 . S
H692 C707 0.959 . S
H693 C707 0.961 . S
H694 C708 0.960 1_455 S
H695 C708 0.962 1_455 S
H696 C708 0.959 . S
H697 C711 0.929 . S
H698 C712 0.931 . S
H699 C714 0.930 . S
C700 H688 0.930 . S
C700 C701 1.399 . S
C700 C705 1.399 . S
C701 C700 1.399 . S
C701 C702 1.376 1_455 S
C702 H689 0.930 . S
C702 C701 1.376 1_655 S
C702 C703 1.388 . S
C703 H690 0.930 . S
C703 C702 1.388 . S
C703 C704 1.390 . S
C704 C703 1.390 . S
C704 C705 1.394 1_655 S
C704 C710 1.465 . S
C705 C700 1.399 . S
C705 C704 1.394 1_455 S
C705 C706 1.516 . S
C706 C705 1.516 . S
C706 C707 1.502 . S
C706 C708 1.561 1_455 S
C706 C709 1.526 1_455 S
C707 H691 0.959 . S
C707 H692 0.959 . S
C707 H693 0.961 . S
C707 C706 1.502 . S
C708 H694 0.960 1_655 S
C708 H695 0.962 1_655 S
C708 H696 0.959 . S
C708 C706 1.561 1_655 S
C709 C706 1.526 1_655 S
C709 C710 1.396 . S
C709 C714 1.390 . S
C710 C704 1.465 . S
C710 C709 1.396 . S
C710 C711 1.399 . S
C711 H697 0.929 . S
C711 C710 1.399 . S
C711 C712 1.385 . S
C712 H698 0.931 . S
C712 C711 1.385 . S
C712 C713 1.389 . S
C713 C712 1.389 . S
C713 C714 1.387 . S
C714 H699 0.930 . S
C714 C709 1.390 . S
C714 C713 1.387 . S
H715 C727 0.930 . S
H716 C729 0.930 . S
H717 C730 0.930 . S
H718 C734 0.959 . S
H719 C734 0.959 . S
H720 C734 0.961 . S
H721 C735 0.960 . S
H722 C735 0.961 . S
H723 C735 0.959 1_545 S
H724 C738 0.929 . S
H725 C739 0.931 . S
H726 C741 0.930 . S
C727 H715 0.930 . S
C727 C728 1.399 1_565 S
C727 C732 1.399 . S
C728 C727 1.399 1_545 S
C728 C729 1.376 . S
C729 H716 0.930 . S
C729 C728 1.376 . S
C729 C730 1.388 . S
C730 H717 0.930 . S
C730 C729 1.388 . S
C730 C731 1.388 1_545 S
C731 C730 1.388 1_565 S
C731 C732 1.396 . S
C731 C737 1.466 . S
C732 C727 1.399 . S
C732 C731 1.396 . S
C732 C733 1.516 . S
C733 C732 1.516 . S
C733 C734 1.502 . S
C733 C735 1.561 . S
C733 C736 1.526 . S
C734 H718 0.959 . S
C734 H719 0.959 . S
C734 H720 0.961 . S
C734 C733 1.502 . S
C735 H721 0.960 . S
C735 H722 0.961 . S
C735 H723 0.959 1_565 S
C735 C733 1.561 . S
C736 C733 1.526 . S
C736 C737 1.396 . S
C736 C741 1.390 . S
C737 C731 1.466 . S
C737 C736 1.396 . S
C737 C738 1.399 1_565 S
C738 H724 0.929 . S
C738 C737 1.399 1_545 S
C738 C739 1.385 1_545 S
C739 H725 0.931 . S
C739 C738 1.385 1_565 S
C739 C740 1.389 . S
C740 C739 1.389 . S
C740 C741 1.387 . S
C741 H726 0.930 . S
C741 C736 1.390 . S
C741 C740 1.387 . S
H742 C754 0.930 . S
H743 C756 0.930 . S
H744 C757 0.930 . S
H745 C761 0.959 . S
H746 C761 0.959 . S
H747 C761 0.961 . S
H748 C762 0.960 . S
H749 C762 0.961 . S
H750 C762 0.959 . S
H751 C765 0.929 . S
H752 C766 0.931 . S
H753 C768 0.930 . S
C754 H742 0.930 . S
C754 C755 1.399 . S
C754 C759 1.399 . S
C755 C754 1.399 . S
C755 C756 1.376 . S
C756 H743 0.930 . S
C756 C755 1.376 . S
C756 C757 1.388 . S
C757 H744 0.930 . S
C757 C756 1.388 . S
C757 C758 1.390 . S
C758 C757 1.390 . S
C758 C759 1.394 . S
C758 C764 1.465 . S
C759 C754 1.399 . S
C759 C758 1.394 . S
C759 C760 1.516 . S
C760 C759 1.516 . S
C760 C761 1.502 . S
C760 C762 1.561 . S
C760 C763 1.526 . S
C761 H745 0.959 . S
C761 H746 0.959 . S
C761 H747 0.961 . S
C761 C760 1.502 . S
C762 H748 0.960 . S
C762 H749 0.961 . S
C762 H750 0.959 . S
C762 C760 1.561 . S
C763 C760 1.526 . S
C763 C764 1.396 . S
C763 C768 1.390 . S
C764 C758 1.465 . S
C764 C763 1.396 . S
C764 C765 1.399 . S
C765 H751 0.929 . S
C765 C764 1.399 . S
C765 C766 1.385 . S
C766 H752 0.931 . S
C766 C765 1.385 . S
C766 C767 1.389 . S
C767 C766 1.389 . S
C767 C768 1.387 . S
C768 H753 0.930 . S
C768 C763 1.390 . S
C768 C767 1.387 . S
H769 C781 0.930 . S
H770 C783 0.930 . S
H771 C784 0.930 . S
H772 C788 0.959 . S
H773 C788 0.959 . S
H774 C788 0.961 . S
H775 C789 0.960 . S
H776 C789 0.961 . S
H777 C789 0.959 . S
H778 C792 0.929 . S
H779 C793 0.931 . S
H780 C795 0.930 . S
C781 H769 0.930 . S
C781 C782 1.399 . S
C781 C786 1.399 . S
C782 C781 1.399 . S
C782 C783 1.376 . S
C783 H770 0.930 . S
C783 C782 1.376 . S
C783 C784 1.388 . S
C784 H771 0.930 . S
C784 C783 1.388 . S
C784 C785 1.390 . S
C785 C784 1.390 . S
C785 C786 1.394 . S
C785 C791 1.465 . S
C786 C781 1.399 . S
C786 C785 1.394 . S
C786 C787 1.516 . S
C787 C786 1.516 . S
C787 C788 1.502 . S
C787 C789 1.561 . S
C787 C790 1.526 . S
C788 H772 0.959 . S
C788 H773 0.959 . S
C788 H774 0.961 . S
C788 C787 1.502 . S
C789 H775 0.960 . S
C789 H776 0.961 . S
C789 H777 0.959 . S
C789 C787 1.561 . S
C790 C787 1.526 . S
C790 C791 1.396 . S
C790 C795 1.390 . S
C791 C785 1.465 . S
C791 C790 1.396 . S
C791 C792 1.399 . S
C792 H778 0.929 . S
C792 C791 1.399 . S
C792 C793 1.385 . S
C793 H779 0.931 . S
C793 C792 1.385 . S
C793 C794 1.389 . S
C794 C793 1.389 . S
C794 C795 1.387 . S
C795 H780 0.930 . S
C795 C790 1.390 . S
C795 C794 1.387 . S
H796 C808 0.930 . S
H797 C810 0.930 . S
H798 C811 0.930 . S
H799 C815 0.959 . S
H800 C815 0.954 1_556 S
H801 C815 0.961 . S
H802 C816 0.960 . S
H803 C816 0.961 . S
H804 C816 0.959 . S
H805 C819 0.929 . S
H806 C820 0.930 1_656 S
H807 C822 0.930 . S
C808 H796 0.930 . S
C808 C809 1.399 1_455 S
C808 C813 1.399 . S
C809 C808 1.399 1_655 S
C809 C810 1.376 . S
C810 H797 0.930 . S
C810 C809 1.376 . S
C810 C811 1.388 . S
C811 H798 0.930 . S
C811 C810 1.388 . S
C811 C812 1.390 . S
C812 C811 1.390 . S
C812 C813 1.394 1_655 S
C812 C818 1.465 1_655 S
C813 C808 1.399 . S
C813 C812 1.394 1_455 S
C813 C814 1.516 . S
C814 C813 1.516 . S
C814 C815 1.502 . S
C814 C816 1.561 1_554 S
C814 C817 1.526 . S
C815 H799 0.959 . S
C815 H800 0.954 1_554 S
C815 H801 0.961 . S
C815 C814 1.502 . S
C816 H802 0.960 . S
C816 H803 0.961 . S
C816 H804 0.959 . S
C816 C814 1.561 1_556 S
C817 C814 1.526 . S
C817 C818 1.396 . S
C817 C822 1.390 1_554 S
C818 C812 1.465 1_455 S
C818 C817 1.396 . S
C818 C819 1.399 1_455 S
C819 H805 0.929 . S
C819 C818 1.399 1_655 S
C819 C820 1.388 1_655 S
C820 H806 0.930 1_454 S
C820 C819 1.388 1_455 S
C820 C821 1.388 1_554 S
C821 C820 1.388 1_556 S
C821 C822 1.387 . S
C822 H807 0.930 . S
C822 C817 1.390 1_556 S
C822 C821 1.387 . S
H823 C835 0.930 . S
H824 C837 0.930 1_556 S
H825 C838 0.930 . S
H826 C842 0.959 . S
H827 C842 0.959 . S
H828 C842 0.961 . S
H829 C843 0.960 . S
H830 C843 0.961 . S
H831 C843 0.959 1_556 S
H832 C846 0.929 . S
H833 C847 0.931 1_565 S
H834 C849 0.930 1_554 S
C835 H823 0.930 . S
C835 C836 1.399 1_545 S
C835 C840 1.399 . S
C836 C835 1.399 1_565 S
C836 C837 1.376 . S
C837 H824 0.930 1_554 S
C837 C836 1.376 . S
C837 C838 1.388 1_554 S
C838 H825 0.930 . S
C838 C837 1.388 1_556 S
C838 C839 1.390 1_565 S
C839 C838 1.390 1_545 S
C839 C840 1.394 1_556 S
C839 C845 1.465 . S
C840 C835 1.399 . S
C840 C839 1.394 1_554 S
C840 C841 1.516 . S
C841 C840 1.516 . S
C841 C842 1.502 . S
C841 C843 1.561 . S
C841 C844 1.526 . S
C842 H826 0.959 . S
C842 H827 0.959 . S
C842 H828 0.961 . S
C842 C841 1.502 . S
C843 H829 0.960 . S
C843 H830 0.961 . S
C843 H831 0.959 1_554 S
C843 C841 1.561 . S
C844 C841 1.526 . S
C844 C845 1.396 1_554 S
C844 C849 1.390 1_554 S
C845 C839 1.465 . S
C845 C844 1.396 1_556 S
C845 C846 1.399 1_545 S
C846 H832 0.929 . S
C846 C845 1.399 1_565 S
C846 C847 1.385 1_565 S
C847 H833 0.931 1_545 S
C847 C846 1.385 1_545 S
C847 C848 1.389 . S
C848 C847 1.389 . S
C848 C849 1.387 . S
C849 H834 0.930 1_556 S
C849 C844 1.390 1_556 S
C849 C848 1.387 . S
H850 C862 0.930 . S
H851 C864 0.930 . S
H852 C865 0.930 . S
H853 C869 0.961 . S
H854 C869 0.959 1_554 S
H855 C869 0.961 1_554 S
H856 C870 0.960 . S
H857 C870 0.961 . S
H858 C870 0.959 . S
H859 C873 0.929 . S
H860 C874 0.931 . S
H861 C876 0.930 . S
C862 H850 0.930 . S
C862 C863 1.399 . S
C862 C867 1.399 . S
C863 C862 1.399 . S
C863 C864 1.376 . S
C864 H851 0.930 . S
C864 C863 1.376 . S
C864 C865 1.388 . S
C865 H852 0.930 . S
C865 C864 1.388 . S
C865 C866 1.390 . S
C866 C865 1.390 . S
C866 C867 1.394 . S
C866 C872 1.465 . S
C867 C862 1.399 . S
C867 C866 1.394 . S
C867 C868 1.516 . S
C868 C867 1.516 . S
C868 C869 1.502 . S
C868 C870 1.561 . S
C868 C871 1.526 . S
C869 H853 0.961 . S
C869 H854 0.959 1_556 S
C869 H855 0.961 1_556 S
C869 C868 1.502 . S
C870 H856 0.960 . S
C870 H857 0.961 . S
C870 H858 0.959 . S
C870 C868 1.561 . S
C871 C868 1.526 . S
C871 C872 1.396 . S
C871 C876 1.390 . S
C872 C866 1.465 . S
C872 C871 1.396 . S
C872 C873 1.399 . S
C873 H859 0.929 . S
C873 C872 1.399 . S
C873 C874 1.385 . S
C874 H860 0.931 . S
C874 C873 1.385 . S
C874 C875 1.389 . S
C875 C874 1.389 . S
C875 C876 1.387 . S
C876 H861 0.930 . S
C876 C871 1.390 . S
C876 C875 1.387 . S
H877 C889 0.930 . S
H878 C891 0.930 . S
H879 C892 0.930 . S
H880 C896 0.959 . S
H881 C896 0.959 . S
H882 C896 0.961 . S
H883 C897 0.960 . S
H884 C897 0.961 . S
H885 C897 0.959 . S
H886 C900 0.929 . S
H887 C901 0.931 . S
H888 C903 0.930 . S
C889 H877 0.930 . S
C889 C890 1.399 . S
C889 C894 1.399 . S
C890 C889 1.399 . S
C890 C891 1.376 . S
C891 H878 0.930 . S
C891 C890 1.376 . S
C891 C892 1.388 . S
C892 H879 0.930 . S
C892 C891 1.388 . S
C892 C893 1.390 . S
C893 C892 1.390 . S
C893 C894 1.394 . S
C893 C899 1.465 . S
C894 C889 1.399 . S
C894 C893 1.394 . S
C894 C895 1.516 . S
C895 C894 1.516 . S
C895 C896 1.502 . S
C895 C897 1.561 . S
C895 C898 1.526 . S
C896 H880 0.959 . S
C896 H881 0.959 . S
C896 H882 0.961 . S
C896 C895 1.502 . S
C897 H883 0.960 . S
C897 H884 0.961 . S
C897 H885 0.959 . S
C897 C895 1.561 . S
C898 C895 1.526 . S
C898 C899 1.396 . S
C898 C903 1.390 . S
C899 C893 1.465 . S
C899 C898 1.396 . S
C899 C900 1.399 . S
C900 H886 0.929 . S
C900 C899 1.399 . S
C900 C901 1.385 . S
C901 H887 0.931 . S
C901 C900 1.385 . S
C901 C902 1.389 . S
C902 C901 1.389 . S
C902 C903 1.387 . S
C903 H888 0.930 . S
C903 C898 1.390 . S
C903 C902 1.387 . S
H904 C916 0.930 . S
H905 C918 0.930 1_655 S
H906 C919 0.940 . S
H907 C923 0.959 . S
H908 C923 0.959 . S
H909 C923 0.961 . S
H910 C924 0.972 . S
H911 C924 0.970 . S
H912 C924 0.915 1_655 S
H913 C927 0.922 1_655 S
H914 C928 0.923 1_655 S
H915 C930 0.930 . S
C916 H904 0.930 . S
C916 C917 1.399 . S
C916 C921 1.399 . S
C917 C916 1.399 . S
C917 C918 1.376 . S
C918 H905 0.930 1_455 S
C918 C917 1.376 . S
C918 C919 1.384 1_455 S
C919 H906 0.940 . S
C919 C918 1.384 1_655 S
C919 C920 1.384 1_655 S
C920 C919 1.384 1_455 S
C920 C921 1.394 . S
C920 C926 1.465 . S
C921 C916 1.399 . S
C921 C920 1.394 . S
C921 C922 1.516 . S
C922 C921 1.516 . S
C922 C923 1.502 . S
C922 C924 1.587 . S
C922 C925 1.526 . S
C923 H907 0.959 . S
C923 H908 0.959 . S
C923 H909 0.961 . S
C923 C922 1.502 . S
C924 H910 0.972 . S
C924 H911 0.970 . S
C924 H912 0.915 1_455 S
C924 C922 1.587 . S
C925 C922 1.526 . S
C925 C926 1.396 . S
C925 C930 1.390 . S
C926 C920 1.465 . S
C926 C925 1.396 . S
C926 C927 1.406 . S
C927 H913 0.922 1_455 S
C927 C926 1.406 . S
C927 C928 1.386 . S
C928 H914 0.923 1_455 S
C928 C927 1.386 . S
C928 C929 1.389 . S
C929 C928 1.389 . S
C929 C930 1.387 . S
C930 H915 0.930 . S
C930 C925 1.390 . S
C930 C929 1.387 . S
H931 C943 0.930 . S
H932 C945 0.930 . S
H933 C946 0.930 . S
H934 C950 0.959 . S
H935 C950 0.959 . S
H936 C950 0.961 . S
H937 C951 0.960 . S
H938 C951 0.961 . S
H939 C951 0.959 . S
H940 C954 0.929 . S
H941 C955 0.931 . S
H942 C957 0.930 . S
C943 H931 0.930 . S
C943 C944 1.399 1_565 S
C943 C948 1.399 . S
C944 C943 1.399 1_545 S
C944 C945 1.376 . S
C945 H932 0.930 . S
C945 C944 1.376 . S
C945 C946 1.388 . S
C946 H933 0.930 . S
C946 C945 1.388 . S
C946 C947 1.390 . S
C947 C946 1.390 . S
C947 C948 1.394 1_545 S
C947 C953 1.465 . S
C948 C943 1.399 . S
C948 C947 1.394 1_565 S
C948 C949 1.516 . S
C949 C948 1.516 . S
C949 C950 1.502 . S
C949 C951 1.561 . S
C949 C952 1.526 . S
C950 H934 0.959 . S
C950 H935 0.959 . S
C950 H936 0.961 . S
C950 C949 1.502 . S
C951 H937 0.960 . S
C951 H938 0.961 . S
C951 H939 0.959 . S
C951 C949 1.561 . S
C952 C949 1.526 . S
C952 C953 1.396 1_565 S
C952 C957 1.390 . S
C953 C947 1.465 . S
C953 C952 1.396 1_545 S
C953 C954 1.399 . S
C954 H940 0.929 . S
C954 C953 1.399 . S
C954 C955 1.385 . S
C955 H941 0.931 . S
C955 C954 1.385 . S
C955 C956 1.389 . S
C956 C955 1.389 . S
C956 C957 1.387 1_545 S
C957 H942 0.930 . S
C957 C952 1.390 . S
C957 C956 1.387 1_565 S
H958 C970 0.930 . S
H959 C972 0.930 . S
H960 C973 0.930 . S
H961 C977 0.959 . S
H962 C977 0.959 . S
H963 C977 0.961 . S
H964 C978 0.960 . S
H965 C978 0.961 . S
H966 C978 0.959 . S
H967 C981 0.929 . S
H968 C982 0.931 . S
H969 C984 0.930 . S
C970 H958 0.930 . S
C970 C971 1.399 . S
C970 C975 1.399 . S
C971 C970 1.399 . S
C971 C972 1.376 1_554 S
C972 H959 0.930 . S
C972 C971 1.376 1_556 S
C972 C973 1.388 . S
C973 H960 0.930 . S
C973 C972 1.388 . S
C973 C974 1.390 . S
C974 C973 1.390 . S
C974 C975 1.394 1_556 S
C974 C980 1.465 . S
C975 C970 1.399 . S
C975 C974 1.394 1_554 S
C975 C976 1.516 . S
C976 C975 1.516 . S
C976 C977 1.502 . S
C976 C978 1.561 . S
C976 C979 1.526 1_554 S
C977 H961 0.959 . S
C977 H962 0.959 . S
C977 H963 0.961 . S
C977 C976 1.502 . S
C978 H964 0.960 . S
C978 H965 0.961 . S
C978 H966 0.959 . S
C978 C976 1.561 . S
C979 C976 1.526 1_556 S
C979 C980 1.396 . S
C979 C984 1.390 . S
C980 C974 1.465 . S
C980 C979 1.396 . S
C980 C981 1.399 . S
C981 H967 0.929 . S
C981 C980 1.399 . S
C981 C982 1.385 . S
C982 H968 0.931 . S
C982 C981 1.385 . S
C982 C983 1.389 . S
C983 C982 1.389 . S
C983 C984 1.387 . S
C984 H969 0.930 . S
C984 C979 1.390 . S
C984 C983 1.387 . S
H985 C997 0.930 . S
H986 C999 0.930 . S
H987 C1000 0.930 . S
H988 C1004 0.959 . S
H989 C1004 0.959 . S
H990 C1004 0.961 . S
H991 C1005 0.960 . S
H992 C1005 0.961 . S
H993 C1005 0.959 . S
H994 C1008 0.929 . S
H995 C1009 0.931 . S
H996 C1011 0.930 . S
C997 H985 0.930 . S
C997 C998 1.399 . S
C997 C1002 1.399 . S
C998 C997 1.399 . S
C998 C999 1.376 . S
C999 H986 0.930 . S
C999 C998 1.376 . S
C999 C1000 1.388 . S
C1000 H987 0.930 . S
C1000 C999 1.388 . S
C1000 C1001 1.390 . S
C1001 C1000 1.390 . S
C1001 C1002 1.394 . S
C1001 C1007 1.465 . S
C1002 C997 1.399 . S
C1002 C1001 1.394 . S
C1002 C1003 1.516 . S
C1003 C1002 1.516 . S
C1003 C1004 1.502 . S
C1003 C1005 1.561 . S
C1003 C1006 1.526 . S
C1004 H988 0.959 . S
C1004 H989 0.959 . S
C1004 H990 0.961 . S
C1004 C1003 1.502 . S
C1005 H991 0.960 . S
C1005 H992 0.961 . S
C1005 H993 0.959 . S
C1005 C1003 1.561 . S
C1006 C1003 1.526 . S
C1006 C1007 1.396 . S
C1006 C1011 1.390 . S
C1007 C1001 1.465 . S
C1007 C1006 1.396 . S
C1007 C1008 1.399 . S
C1008 H994 0.929 . S
C1008 C1007 1.399 . S
C1008 C1009 1.385 . S
C1009 H995 0.931 . S
C1009 C1008 1.385 . S
C1009 C1010 1.389 . S
C1010 C1009 1.389 . S
C1010 C1011 1.387 . S
C1011 H996 0.930 . S
C1011 C1006 1.390 . S
C1011 C1010 1.387 . S
H1012 C1024 0.930 . S
H1013 C1026 0.930 . S
H1014 C1027 0.930 . S
H1015 C1031 0.959 . S
H1016 C1031 0.959 . S
H1017 C1031 0.961 . S
H1018 C1032 0.960 . S
H1019 C1032 0.961 . S
H1020 C1032 0.959 1_455 S
H1021 C1035 0.929 . S
H1022 C1036 0.931 . S
H1023 C1038 0.930 . S
C1024 H1012 0.930 . S
C1024 C1025 1.399 . S
C1024 C1029 1.399 . S
C1025 C1024 1.399 . S
C1025 C1026 1.376 1_655 S
C1026 H1013 0.930 . S
C1026 C1025 1.376 1_455 S
C1026 C1027 1.388 . S
C1027 H1014 0.930 . S
C1027 C1026 1.388 . S
C1027 C1028 1.387 1_455 S
C1028 C1027 1.387 1_655 S
C1028 C1029 1.401 . S
C1028 C1034 1.468 . S
C1029 C1024 1.399 . S
C1029 C1028 1.401 . S
C1029 C1030 1.516 . S
C1030 C1029 1.516 . S
C1030 C1031 1.502 . S
C1030 C1032 1.561 . S
C1030 C1033 1.526 . S
C1031 H1015 0.959 . S
C1031 H1016 0.959 . S
C1031 H1017 0.961 . S
C1031 C1030 1.502 . S
C1032 H1018 0.960 . S
C1032 H1019 0.961 . S
C1032 H1020 0.959 1_655 S
C1032 C1030 1.561 . S
C1033 C1030 1.526 . S
C1033 C1034 1.409 . S
C1033 C1038 1.390 . S
C1034 C1028 1.468 . S
C1034 C1033 1.409 . S
C1034 C1035 1.386 1_655 S
C1035 H1021 0.929 . S
C1035 C1034 1.386 1_455 S
C1035 C1036 1.385 . S
C1036 H1022 0.931 . S
C1036 C1035 1.385 . S
C1036 C1037 1.389 1_455 S
C1037 C1036 1.389 1_655 S
C1037 C1038 1.387 . S
C1038 H1023 0.930 . S
C1038 C1033 1.390 . S
C1038 C1037 1.387 . S
H1039 C1051 0.930 . S
H1040 C1053 0.930 . S
H1041 C1054 0.930 . S
H1042 C1058 0.959 . S
H1043 C1058 0.959 . S
H1044 C1058 0.961 . S
H1045 C1059 0.960 . S
H1046 C1059 0.961 . S
H1047 C1059 0.959 . S
H1048 C1062 0.929 . S
H1049 C1063 0.931 . S
H1050 C1065 0.930 . S
C1051 H1039 0.930 . S
C1051 C1052 1.402 . S
C1051 C1056 1.399 . S
C1052 C1051 1.402 . S
C1052 C1053 1.373 1_565 S
C1053 H1040 0.930 . S
C1053 C1052 1.373 1_545 S
C1053 C1054 1.388 . S
C1054 H1041 0.930 . S
C1054 C1053 1.388 . S
C1054 C1055 1.390 . S
C1055 C1054 1.390 . S
C1055 C1056 1.394 1_545 S
C1055 C1061 1.465 . S
C1056 C1051 1.399 . S
C1056 C1055 1.394 1_565 S
C1056 C1057 1.516 . S
C1057 C1056 1.516 . S
C1057 C1058 1.502 . S
C1057 C1059 1.561 . S
C1057 C1060 1.526 . S
C1058 H1042 0.959 . S
C1058 H1043 0.959 . S
C1058 H1044 0.961 . S
C1058 C1057 1.502 . S
C1059 H1045 0.960 . S
C1059 H1046 0.961 . S
C1059 H1047 0.959 . S
C1059 C1057 1.561 . S
C1060 C1057 1.526 . S
C1060 C1061 1.396 1_565 S
C1060 C1065 1.390 . S
C1061 C1055 1.465 . S
C1061 C1060 1.396 1_545 S
C1061 C1062 1.399 . S
C1062 H1048 0.929 . S
C1062 C1061 1.399 . S
C1062 C1063 1.385 . S
C1063 H1049 0.931 . S
C1063 C1062 1.385 . S
C1063 C1064 1.389 1_545 S
C1064 C1063 1.389 1_565 S
C1064 C1065 1.387 . S
C1065 H1050 0.930 . S
C1065 C1060 1.390 . S
C1065 C1064 1.387 . S
H1066 C1078 0.930 . S
H1067 C1080 0.930 . S
H1068 C1081 0.930 . S
H1069 C1085 0.959 . S
H1070 C1085 0.959 . S
H1071 C1085 0.961 . S
H1072 C1086 0.960 . S
H1073 C1086 0.961 . S
H1074 C1086 0.959 . S
H1075 C1089 0.929 . S
H1076 C1090 0.931 . S
H1077 C1092 0.930 . S
C1078 H1066 0.930 . S
C1078 C1079 1.399 . S
C1078 C1083 1.399 . S
C1079 C1078 1.399 . S
C1079 C1080 1.376 . S
C1080 H1067 0.930 . S
C1080 C1079 1.376 . S
C1080 C1081 1.388 . S
C1081 H1068 0.930 . S
C1081 C1080 1.388 . S
C1081 C1082 1.390 . S
C1082 C1081 1.390 . S
C1082 C1083 1.394 . S
C1082 C1088 1.465 . S
C1083 C1078 1.399 . S
C1083 C1082 1.394 . S
C1083 C1084 1.516 . S
C1084 C1083 1.516 . S
C1084 C1085 1.502 . S
C1084 C1086 1.561 . S
C1084 C1087 1.526 . S
C1085 H1069 0.959 . S
C1085 H1070 0.959 . S
C1085 H1071 0.961 . S
C1085 C1084 1.502 . S
C1086 H1072 0.960 . S
C1086 H1073 0.961 . S
C1086 H1074 0.959 . S
C1086 C1084 1.561 . S
C1087 C1084 1.526 . S
C1087 C1088 1.396 . S
C1087 C1092 1.390 . S
C1088 C1082 1.465 . S
C1088 C1087 1.396 . S
C1088 C1089 1.399 . S
C1089 H1075 0.929 . S
C1089 C1088 1.399 . S
C1089 C1090 1.385 . S
C1090 H1076 0.931 . S
C1090 C1089 1.385 . S
C1090 C1091 1.389 . S
C1091 C1090 1.389 . S
C1091 C1092 1.387 . S
C1092 H1077 0.930 . S
C1092 C1087 1.390 . S
C1092 C1091 1.387 . S
H1093 C1105 0.930 . S
H1094 C1107 0.930 . S
H1095 C1108 0.930 . S
H1096 C1112 0.959 . S
H1097 C1112 0.959 . S
H1098 C1112 0.961 . S
H1099 C1113 0.960 . S
H1100 C1113 0.961 . S
H1101 C1113 0.959 . S
H1102 C1116 0.929 . S
H1103 C1117 0.931 . S
H1104 C1119 0.930 . S
C1105 H1093 0.930 . S
C1105 C1106 1.399 . S
C1105 C1110 1.399 . S
C1106 C1105 1.399 . S
C1106 C1107 1.376 . S
C1107 H1094 0.930 . S
C1107 C1106 1.376 . S
C1107 C1108 1.388 . S
C1108 H1095 0.930 . S
C1108 C1107 1.388 . S
C1108 C1109 1.390 . S
C1109 C1108 1.390 . S
C1109 C1110 1.394 . S
C1109 C1115 1.465 . S
C1110 C1105 1.399 . S
C1110 C1109 1.394 . S
C1110 C1111 1.516 . S
C1111 C1110 1.516 . S
C1111 C1112 1.502 . S
C1111 C1113 1.561 . S
C1111 C1114 1.526 . S
C1112 H1096 0.959 . S
C1112 H1097 0.959 . S
C1112 H1098 0.961 . S
C1112 C1111 1.502 . S
C1113 H1099 0.960 . S
C1113 H1100 0.961 . S
C1113 H1101 0.959 . S
C1113 C1111 1.561 . S
C1114 C1111 1.526 . S
C1114 C1115 1.396 . S
C1114 C1119 1.390 . S
C1115 C1109 1.465 . S
C1115 C1114 1.396 . S
C1115 C1116 1.399 . S
C1116 H1102 0.929 . S
C1116 C1115 1.399 . S
C1116 C1117 1.385 . S
C1117 H1103 0.931 . S
C1117 C1116 1.385 . S
C1117 C1118 1.389 . S
C1118 C1117 1.389 . S
C1118 C1119 1.387 . S
C1119 H1104 0.930 . S
C1119 C1114 1.390 . S
C1119 C1118 1.387 . S
C485 C255 2.076 . S
C497 C314 2.123 . S
C524 C354 2.145 . S
C512 C294 2.072 . S
C551 C418 2.498 . S
C539 C177 2.442 . S
C578 C434 2.192 . S
C566 C216 1.997 . S
C605 C335 2.143 1_565 S
C593 C99 2.072 . S
C620 C138 2.046 . S
C632 C375 2.150 . S
C647 C21 2.456 . S
C659 C409 2.500 1_554 S
C674 C60 1.949 . S
C686 C455 2.210 1_655 S
C713 C329 0.523 . S
C701 C196 0.188 . S
C740 C369 0.481 . S
C728 C235 0.630 1_545 S
C767 C405 0.678 . S
C755 C289 0.384 . S
C782 C157 0.759 . S
C794 C449 0.562 . S
C809 C40 0.414 . S
C821 C338 0.293 . S
C848 C378 0.483 . S
C836 C79 0.637 . S
C875 C416 0.397 . S
C863 C133 0.646 . S
C890 C1 0.558 . S
C902 C458 0.796 . S
C917 C211 2.629 . S
C929 C336 2.922 . S
C944 C250 2.453 . S
C956 C376 2.733 . S
C983 C394 1.942 . S
C971 C274 1.943 . S
C1010 C456 3.334 . S
C998 C172 2.957 . S
C1025 C55 2.576 . S
C1037 C325 2.946 . S
C1064 C365 2.708 . S
C1052 C94 2.466 1_565 S
C1091 C415 1.929 . S
C1079 C118 1.953 . S
C1106 C16 2.928 . S
C1118 C445 3.362 . S
