# Generated by pormake.
# Topology nom, (4,4)-cn, num edge types: 1
# Building blocks:
#     Node 0, Type 0, BuildingBlock: NAWXER_clean_linker_0, # of connection points: 4
#     Node 1, Type 0, BuildingBlock: NAWXER_clean_linker_0, # of connection points: 4
#     Node 2, Type 0, BuildingBlock: NAWXER_clean_linker_0, # of connection points: 4
#     Node 3, Type 0, BuildingBlock: NAWXER_clean_linker_0, # of connection points: 4
#     Node 4, Type 0, BuildingBlock: NAWXER_clean_linker_0, # of connection points: 4
#     Node 5, Type 0, BuildingBlock: NAWXER_clean_linker_0, # of connection points: 4
#     Node 6, Type 1, BuildingBlock: QUQFOY_clean_sbu_1, # of connection points: 4
#     Node 7, Type 1, BuildingBlock: QUQFOY_clean_sbu_1, # of connection points: 4
#     Node 8, Type 1, BuildingBlock: QUQFOY_clean_sbu_1, # of connection points: 4
#     Node 9, Type 1, BuildingBlock: QUQFOY_clean_sbu_1, # of connection points: 4
#     Node 10, Type 1, BuildingBlock: QUQFOY_clean_sbu_1, # of connection points: 4
#     Node 11, Type 1, BuildingBlock: QUQFOY_clean_sbu_1, # of connection points: 4
#     Edge 12, Type (0, 1), BuildingBlock: CIFDUS_clean_linker_0, # of connection points: 2
#     Edge 13, Type (0, 1), BuildingBlock: CIFDUS_clean_linker_0, # of connection points: 2
#     Edge 14, Type (0, 1), BuildingBlock: CIFDUS_clean_linker_0, # of connection points: 2
#     Edge 15, Type (0, 1), BuildingBlock: CIFDUS_clean_linker_0, # of connection points: 2
#     Edge 16, Type (0, 1), BuildingBlock: CIFDUS_clean_linker_0, # of connection points: 2
#     Edge 17, Type (0, 1), BuildingBlock: CIFDUS_clean_linker_0, # of connection points: 2
#     Edge 18, Type (0, 1), BuildingBlock: CIFDUS_clean_linker_0, # of connection points: 2
#     Edge 19, Type (0, 1), BuildingBlock: CIFDUS_clean_linker_0, # of connection points: 2
#     Edge 20, Type (0, 1), BuildingBlock: CIFDUS_clean_linker_0, # of connection points: 2
#     Edge 21, Type (0, 1), BuildingBlock: CIFDUS_clean_linker_0, # of connection points: 2
#     Edge 22, Type (0, 1), BuildingBlock: CIFDUS_clean_linker_0, # of connection points: 2
#     Edge 23, Type (0, 1), BuildingBlock: CIFDUS_clean_linker_0, # of connection points: 2
#     Edge 24, Type (0, 1), BuildingBlock: CIFDUS_clean_linker_0, # of connection points: 2
#     Edge 25, Type (0, 1), BuildingBlock: CIFDUS_clean_linker_0, # of connection points: 2
#     Edge 26, Type (0, 1), BuildingBlock: CIFDUS_clean_linker_0, # of connection points: 2
#     Edge 27, Type (0, 1), BuildingBlock: CIFDUS_clean_linker_0, # of connection points: 2
#     Edge 28, Type (0, 1), BuildingBlock: CIFDUS_clean_linker_0, # of connection points: 2
#     Edge 29, Type (0, 1), BuildingBlock: CIFDUS_clean_linker_0, # of connection points: 2
#     Edge 30, Type (0, 1), BuildingBlock: CIFDUS_clean_linker_0, # of connection points: 2
#     Edge 31, Type (0, 1), BuildingBlock: CIFDUS_clean_linker_0, # of connection points: 2
#     Edge 32, Type (0, 1), BuildingBlock: CIFDUS_clean_linker_0, # of connection points: 2
#     Edge 33, Type (0, 1), BuildingBlock: CIFDUS_clean_linker_0, # of connection points: 2
#     Edge 34, Type (0, 1), BuildingBlock: CIFDUS_clean_linker_0, # of connection points: 2
#     Edge 35, Type (0, 1), BuildingBlock: CIFDUS_clean_linker_0, # of connection points: 2
# Relax obj value: 0.026
# Max RMSD: 0.133
# Mean RMSD: 0.124
data_MOF--net-nom--node1-QUQFOY_clean_sbu_1--node2-NAWXER_clean_linker_0--edge1-CIFDUS_clean_linker_0
_symmetry_space_group_name_H-M    P1
_symmetry_Int_Tables_number       1
_symmetry_cell_setting            triclinic
loop_
_symmetry_equiv_pos_as_xyz
'x, y, z'
_cell_length_a     49.162029
_cell_length_b     49.096186
_cell_length_c     49.324605
_cell_angle_alpha  89.919761
_cell_angle_beta   90.06523
_cell_angle_gamma 120.01182
loop_
_atom_site_label
_atom_site_type_symbol
_atom_site_fract_x
_atom_site_fract_y
_atom_site_fract_z
_atom_type_partial_charge
C0 C 0.89932 0.48314 0.35083 0.0
C1 C 0.88597 0.4565 0.36771 0.0
C2 C 0.92948 0.49486 0.34037 0.0
C3 C 0.94698 0.48019 0.34652 0.0
C4 C 0.90355 0.44188 0.37402 0.0
C5 C 0.93404 0.4539 0.36375 0.0
C6 C 0.97894 0.49303 0.33522 0.0
C7 C 0.91071 0.44489 0.26731 0.0
C8 C 0.91264 0.46489 0.24602 0.0
C9 C 0.93415 0.4554 0.28715 0.0
C10 C 0.95977 0.48628 0.28635 0.0
C11 C 0.93858 0.4956 0.24506 0.0
C12 C 0.96188 0.50612 0.26496 0.0
C13 C 0.98496 0.49795 0.30713 0.0
C14 C 0.12827 0.56976 0.30305 0.0
C15 C 0.13173 0.59335 0.28478 0.0
C16 C 0.09846 0.5474 0.31258 0.0
C17 C 0.07168 0.54866 0.30443 0.0
C18 C 0.10461 0.59305 0.27528 0.0
C19 C 0.07501 0.57105 0.28502 0.0
C20 C 0.04007 0.52759 0.31603 0.0
C21 C 0.10247 0.5822 0.38596 0.0
C22 C 0.10515 0.5633 0.40606 0.0
C23 C 0.07936 0.56884 0.36592 0.0
C24 C 0.05891 0.53617 0.3651 0.0
C25 C 0.08423 0.53062 0.40543 0.0
C26 C 0.06128 0.51724 0.3852 0.0
C27 C 0.03407 0.52184 0.34416 0.0
H28 H 0.88624 0.49474 0.34542 0.0
H29 H 0.9392 0.51547 0.32745 0.0
H30 H 0.89386 0.42143 0.38712 0.0
H31 H 0.94731 0.44245 0.3689 0.0
H32 H 0.89102 0.42114 0.26872 0.0
H33 H 0.93234 0.43927 0.30297 0.0
H34 H 0.94117 0.51143 0.22868 0.0
H35 H 0.98155 0.52993 0.2637 0.0
H36 H 0.14863 0.56921 0.31073 0.0
H37 H 0.09647 0.52967 0.3268 0.0
H38 H 0.10626 0.61025 0.26062 0.0
H39 H 0.05475 0.57224 0.27798 0.0
H40 H 0.11825 0.6074 0.38566 0.0
H41 H 0.07744 0.58409 0.3511 0.0
H42 H 0.08515 0.51541 0.42088 0.0
H43 H 0.04537 0.49204 0.38523 0.0
N44 N 0.0037 0.50476 0.35264 0.0
N45 N 0.01522 0.51528 0.29872 0.0
C46 C 0.42396 0.90296 0.50846 0.0
C47 C 0.43405 0.89055 0.52933 0.0
C48 C 0.4434 0.9335 0.49899 0.0
C49 C 0.47355 0.9523 0.50995 0.0
C50 C 0.46413 0.9095 0.54054 0.0
C51 C 0.4836 0.94024 0.53108 0.0
C52 C 0.49397 0.98473 0.49972 0.0
C53 C 0.48869 0.92001 0.4337 0.0
C54 C 0.47234 0.92046 0.41048 0.0
C55 C 0.49745 0.94313 0.45361 0.0
C56 C 0.48987 0.96705 0.45076 0.0
C57 C 0.46517 0.94468 0.4075 0.0
C58 C 0.47405 0.96787 0.42738 0.0
C59 C 0.49914 0.99168 0.47175 0.0
C60 C 0.57841 0.13408 0.46902 0.0
C61 C 0.56119 0.14031 0.4496 0.0
C62 C 0.56705 0.10363 0.47909 0.0
C63 C 0.53778 0.07888 0.47066 0.0
C64 C 0.53258 0.11507 0.44024 0.0
C65 C 0.52101 0.08479 0.45071 0.0
C66 C 0.52459 0.04654 0.48161 0.0
C67 C 0.52258 0.09875 0.55929 0.0
C68 C 0.55263 0.11103 0.57108 0.0
C69 C 0.51249 0.07578 0.53904 0.0
C70 C 0.53191 0.06413 0.5306 0.0
C71 C 0.57197 0.09917 0.56219 0.0
C72 C 0.56139 0.07547 0.54266 0.0
C73 C 0.52119 0.03958 0.50964 0.0
H74 H 0.40107 0.88892 0.49922 0.0
H75 H 0.43478 0.94248 0.48311 0.0
H76 H 0.47242 0.90071 0.55683 0.0
H77 H 0.50663 0.95447 0.54003 0.0
H78 H 0.49448 0.90162 0.4366 0.0
H79 H 0.51032 0.9424 0.47118 0.0
H80 H 0.45304 0.94595 0.38961 0.0
H81 H 0.46825 0.98628 0.42462 0.0
H82 H 0.60051 0.15275 0.47678 0.0
H83 H 0.58141 0.09953 0.49323 0.0
H84 H 0.51903 0.11859 0.42474 0.0
H85 H 0.49868 0.06598 0.44339 0.0
H86 H 0.50653 0.10645 0.56588 0.0
H87 H 0.48939 0.06684 0.53018 0.0
H88 H 0.59551 0.10831 0.57003 0.0
H89 H 0.5766 0.06656 0.5364 0.0
N90 N 0.50564 0.00896 0.51768 0.0
N91 N 0.51359 0.02226 0.46374 0.0
C92 C 0.58279 0.48777 0.59371 0.0
C93 C 0.56247 0.46455 0.57528 0.0
C94 C 0.57098 0.49938 0.61348 0.0
C95 C 0.53871 0.48867 0.61489 0.0
C96 C 0.52999 0.45375 0.57702 0.0
C97 C 0.51832 0.46611 0.59634 0.0
C98 C 0.52657 0.50104 0.636 0.0
C99 C 0.5297 0.42135 0.67544 0.0
C100 C 0.55273 0.42929 0.69553 0.0
C101 C 0.52339 0.44396 0.66493 0.0
C102 C 0.54018 0.47525 0.67396 0.0
C103 C 0.5698 0.46067 0.70451 0.0
C104 C 0.56331 0.48342 0.694 0.0
C105 C 0.53145 0.49831 0.6638 0.0
C106 C 0.46449 0.5482 0.72641 0.0
C107 C 0.48791 0.57711 0.73722 0.0
C108 C 0.47155 0.53344 0.7056 0.0
C109 C 0.50221 0.547 0.69554 0.0
C110 C 0.51858 0.59068 0.72664 0.0
C111 C 0.52573 0.57549 0.70632 0.0
C112 C 0.51011 0.53116 0.67428 0.0
C113 C 0.46895 0.58585 0.636 0.0
C114 C 0.44247 0.567 0.61982 0.0
C115 C 0.48909 0.57492 0.64423 0.0
C116 C 0.48285 0.54466 0.6369 0.0
C117 C 0.43728 0.53738 0.61142 0.0
C118 C 0.45719 0.52639 0.61987 0.0
C119 C 0.5024 0.53135 0.64667 0.0
H120 H 0.60795 0.49743 0.59274 0.0
H121 H 0.58712 0.51709 0.62751 0.0
H122 H 0.51338 0.43546 0.56372 0.0
H123 H 0.49329 0.45745 0.59728 0.0
H124 H 0.51631 0.39747 0.66792 0.0
H125 H 0.50471 0.43671 0.65017 0.0
H126 H 0.58752 0.46739 0.72013 0.0
H127 H 0.57624 0.5073 0.70156 0.0
H128 H 0.44079 0.53653 0.73434 0.0
H129 H 0.45322 0.51121 0.69763 0.0
H130 H 0.53715 0.61314 0.73392 0.0
H131 H 0.54955 0.58623 0.69867 0.0
H132 H 0.4738 0.6088 0.64284 0.0
H133 H 0.50945 0.59017 0.65633 0.0
H134 H 0.41768 0.52253 0.59835 0.0
H135 H 0.45209 0.50318 0.61353 0.0
N136 N 0.51145 0.51664 0.62844 0.0
N137 N 0.52374 0.51413 0.68195 0.0
C138 C 0.9089 0.4098 0.80811 0.0
C139 C 0.89396 0.41986 0.78962 0.0
C140 C 0.93838 0.43097 0.81858 0.0
C141 C 0.9535 0.46283 0.81115 0.0
C142 C 0.90904 0.4518 0.78218 0.0
C143 C 0.93875 0.47308 0.79269 0.0
C144 C 0.98562 0.48453 0.82117 0.0
C145 C 0.92851 0.47246 0.89793 0.0
C146 C 0.9255 0.44668 0.91307 0.0
C147 C 0.94996 0.48501 0.87655 0.0
C148 C 0.96941 0.47264 0.87033 0.0
C149 C 0.94464 0.43391 0.90603 0.0
C150 C 0.9668 0.4472 0.88528 0.0
C151 C 0.99336 0.48704 0.84894 0.0
C152 C 0.13418 0.57695 0.84919 0.0
C153 C 0.14309 0.56005 0.86662 0.0
C154 C 0.1031 0.56378 0.84031 0.0
C155 C 0.08045 0.53317 0.84814 0.0
C156 C 0.11994 0.53002 0.87549 0.0
C157 C 0.08902 0.51675 0.86631 0.0
C158 C 0.04767 0.51804 0.83811 0.0
C159 C 0.1012 0.52304 0.76068 0.0
C160 C 0.11124 0.5527 0.74875 0.0
C161 C 0.07809 0.51138 0.78078 0.0
C162 C 0.06401 0.52872 0.78897 0.0
C163 C 0.09686 0.56994 0.75721 0.0
C164 C 0.07306 0.55777 0.77674 0.0
C165 C 0.03989 0.51636 0.81034 0.0
H166 H 0.89783 0.38543 0.81445 0.0
H167 H 0.9497 0.4222 0.832 0.0
H168 H 0.89822 0.46017 0.76778 0.0
H169 H 0.95025 0.49747 0.78636 0.0
H170 H 0.91492 0.48358 0.9029 0.0
H171 H 0.95198 0.50493 0.86533 0.0
H172 H 0.94264 0.4136 0.91648 0.0
H173 H 0.98164 0.43732 0.88062 0.0
H174 H 0.15129 0.60011 0.84193 0.0
H175 H 0.09684 0.57763 0.82743 0.0
H176 H 0.12568 0.51663 0.88949 0.0
H177 H 0.07186 0.49333 0.87308 0.0
H178 H 0.11084 0.50851 0.75436 0.0
H179 H 0.07103 0.48868 0.78985 0.0
H180 H 0.10417 0.59309 0.74912 0.0
H181 H 0.06234 0.57143 0.78289 0.0
N182 N 0.00919 0.49947 0.80283 0.0
N183 N 0.02403 0.50334 0.85639 0.0
C184 C 0.47026 0.90196 0.97121 0.0
C185 C 0.44747 0.88801 0.95075 0.0
C186 C 0.478 0.93134 0.98163 0.0
C187 C 0.46298 0.94739 0.97202 0.0
C188 C 0.43242 0.90406 0.94105 0.0
C189 C 0.44039 0.93373 0.95142 0.0
C190 C 0.47234 0.97905 0.98271 0.0
C191 C 0.41981 0.91081 0.04937 0.0
C192 C 0.43815 0.91335 0.07216 0.0
C193 C 0.43151 0.93417 0.0294 0.0
C194 C 0.46185 0.96041 0.03173 0.0
C195 C 0.46833 0.93986 0.0746 0.0
C196 C 0.47998 0.9632 0.05466 0.0
C197 C 0.47459 0.98543 0.01078 0.0
C198 C 0.53996 0.12885 0.01318 0.0
C199 C 0.5637 0.1338 0.03185 0.0
C200 C 0.51863 0.09843 0.0041 0.0
C201 C 0.5212 0.07258 0.01302 0.0
C202 C 0.56439 0.10751 0.04235 0.0
C203 C 0.5435 0.07734 0.03298 0.0
C204 C 0.50193 0.04056 0.0015 0.0
C205 C 0.55397 0.1057 0.93202 0.0
C206 C 0.53386 0.10615 0.91188 0.0
C207 C 0.54259 0.08206 0.95173 0.0
C208 C 0.51066 0.05889 0.95222 0.0
C209 C 0.50211 0.08222 0.91196 0.0
C210 C 0.49068 0.05884 0.9319 0.0
C211 C 0.49798 0.03411 0.97332 0.0
H212 H 0.48207 0.89008 0.97926 0.0
H213 H 0.49606 0.9417 0.99706 0.0
H214 H 0.41495 0.89395 0.92514 0.0
H215 H 0.42882 0.94591 0.94349 0.0
H216 H 0.3965 0.89066 0.04688 0.0
H217 H 0.41673 0.93181 0.01223 0.0
H218 H 0.48282 0.94279 0.09214 0.0
H219 H 0.50333 0.98335 0.05705 0.0
H220 H 0.53858 0.1485 0.00479 0.0
H221 H 0.50085 0.09528 0.98947 0.0
H222 H 0.58162 0.11028 0.05743 0.0
H223 H 0.54561 0.05779 0.04066 0.0
H224 H 0.57849 0.12378 0.93276 0.0
H225 H 0.55868 0.08208 0.96675 0.0
H226 H 0.48609 0.08127 0.89642 0.0
H227 H 0.46609 0.04081 0.93159 0.0
N228 N 0.48348 0.00358 0.96504 0.0
N229 N 0.48979 0.01589 0.01904 0.0
C230 C 0.51989 0.62627 0.17733 0.0
C231 C 0.49601 0.61557 0.19694 0.0
C232 C 0.52862 0.60579 0.16596 0.0
C233 C 0.51348 0.57402 0.17373 0.0
C234 C 0.48085 0.58376 0.20481 0.0
C235 C 0.48976 0.56322 0.19347 0.0
C236 C 0.52386 0.55283 0.16233 0.0
C237 C 0.47704 0.57377 0.09406 0.0
C238 C 0.49686 0.5907 0.07235 0.0
C239 C 0.48735 0.56108 0.11428 0.0
C240 C 0.51782 0.56535 0.11335 0.0
C241 C 0.52725 0.59471 0.07137 0.0
C242 C 0.53754 0.58203 0.09159 0.0
C243 C 0.52876 0.55133 0.13428 0.0
C244 C 0.58643 0.46665 0.13096 0.0
C245 C 0.61272 0.48587 0.11473 0.0
C246 C 0.56614 0.47725 0.13944 0.0
C247 C 0.57221 0.50754 0.13238 0.0
C248 C 0.61725 0.51517 0.10609 0.0
C249 C 0.59727 0.52587 0.11485 0.0
C250 C 0.55355 0.52113 0.14346 0.0
C251 C 0.59576 0.49729 0.2143 0.0
C252 C 0.57265 0.47411 0.23111 0.0
C253 C 0.58767 0.51307 0.19516 0.0
C254 C 0.55626 0.50561 0.19221 0.0
C255 C 0.54141 0.46748 0.22863 0.0
C256 C 0.53335 0.48318 0.20945 0.0
C257 C 0.54697 0.52107 0.1714 0.0
H258 H 0.53183 0.65056 0.17067 0.0
H259 H 0.54756 0.61494 0.15131 0.0
H260 H 0.46257 0.57494 0.22006 0.0
H261 H 0.47807 0.53891 0.20003 0.0
H262 H 0.45355 0.57037 0.09547 0.0
H263 H 0.47134 0.5476 0.13044 0.0
H264 H 0.5429 0.60716 0.05468 0.0
H265 H 0.56102 0.58535 0.09027 0.0
H266 H 0.58214 0.44392 0.13793 0.0
H267 H 0.54628 0.46213 0.15215 0.0
H268 H 0.63667 0.53021 0.09293 0.0
H269 H 0.60212 0.54906 0.10865 0.0
H270 H 0.62002 0.50293 0.21564 0.0
H271 H 0.60586 0.53083 0.18244 0.0
H272 H 0.52317 0.4503 0.24168 0.0
H273 H 0.50906 0.47743 0.20776 0.0
N274 N 0.53253 0.53707 0.17977 0.0
N275 N 0.54396 0.53608 0.12601 0.0
O276 O 0.59449 0.38175 0.42845 0.0
Cd277 Cd 0.60774 0.36288 0.39746 0.0
Cd278 Cd 0.66397 0.41386 0.40756 0.0
O279 O 0.64213 0.41554 0.44291 0.0
O280 O 0.57327 0.31837 0.39561 0.0
O281 O 0.62228 0.33205 0.40594 0.0
C282 C 0.59336 0.31016 0.40283 0.0
C283 C 0.71632 0.42545 0.40891 0.0
C284 C 0.61249 0.40193 0.44568 0.0
C285 C 0.63068 0.41137 0.35495 0.0
O286 O 0.65197 0.42796 0.37205 0.0
O287 O 0.6114 0.3826 0.35992 0.0
O288 O 0.70874 0.44676 0.41263 0.0
O289 O 0.69387 0.39687 0.40537 0.0
O290 O 0.23416 0.60597 0.61282 0.0
Cd291 Cd 0.25983 0.60855 0.57868 0.0
Cd292 Cd 0.25824 0.66449 0.57197 0.0
O293 O 0.2328 0.64994 0.60743 0.0
O294 O 0.26912 0.57386 0.58468 0.0
O295 O 0.30635 0.62366 0.58195 0.0
C296 C 0.29855 0.59458 0.58558 0.0
C297 C 0.29561 0.71796 0.56708 0.0
C298 C 0.22534 0.62497 0.62069 0.0
C299 C 0.22805 0.61484 0.52851 0.0
O300 O 0.23452 0.64173 0.53732 0.0
O301 O 0.23677 0.59813 0.54155 0.0
O302 O 0.26591 0.708 0.56675 0.0
O303 O 0.30442 0.69744 0.57065 0.0
O304 O 0.64531 0.23672 0.78062 0.0
Cd305 Cd 0.66423 0.26189 0.74561 0.0
Cd306 Cd 0.60897 0.25987 0.74258 0.0
O307 O 0.60039 0.2365 0.77945 0.0
O308 O 0.70986 0.27636 0.74824 0.0
O309 O 0.69134 0.30912 0.74727 0.0
C310 C 0.71514 0.30483 0.74909 0.0
C311 C 0.6041 0.30459 0.73801 0.0
C312 C 0.61871 0.22876 0.79098 0.0
C313 C 0.62316 0.22699 0.69838 0.0
O314 O 0.60331 0.23386 0.70789 0.0
O315 O 0.64945 0.23658 0.71008 0.0
O316 O 0.57976 0.27679 0.73935 0.0
O317 O 0.63148 0.30709 0.73992 0.0
O318 O 0.43624 0.65652 0.93831 0.0
Cd319 Cd 0.43 0.67613 0.90371 0.0
Cd320 Cd 0.37307 0.6203 0.90205 0.0
O321 O 0.39035 0.61269 0.93786 0.0
O322 O 0.46142 0.72168 0.90616 0.0
O323 O 0.41016 0.70338 0.90624 0.0
C324 C 0.43839 0.72713 0.90764 0.0
C325 C 0.31914 0.602 0.89946 0.0
C326 C 0.41692 0.63023 0.94888 0.0
C327 C 0.41866 0.63548 0.85537 0.0
O328 O 0.39205 0.61696 0.86578 0.0
O329 O 0.43796 0.66082 0.86726 0.0
O330 O 0.33014 0.5831 0.89984 0.0
O331 O 0.33888 0.63177 0.90142 0.0
O332 O 0.79117 0.36693 0.04184 0.0
Cd333 Cd 0.76228 0.3459 0.07467 0.0
Cd334 Cd 0.76173 0.40009 0.07611 0.0
O335 O 0.78342 0.40735 0.03872 0.0
O336 O 0.74754 0.30039 0.07063 0.0
O337 O 0.71541 0.3197 0.0695 0.0
C338 C 0.71942 0.29567 0.06783 0.0
C339 C 0.72144 0.41182 0.08099 0.0
C340 C 0.79533 0.39146 0.02956 0.0
C341 C 0.79309 0.38586 0.12256 0.0
O342 O 0.78817 0.40602 0.1107 0.0
O343 O 0.78281 0.35875 0.11229 0.0
O344 O 0.75046 0.43359 0.07931 0.0
O345 O 0.71501 0.38294 0.0793 0.0
O346 O 0.42314 0.7915 0.20919 0.0
Cd347 Cd 0.41583 0.76573 0.2442 0.0
Cd348 Cd 0.35956 0.76144 0.24176 0.0
O349 O 0.37518 0.78381 0.20482 0.0
O350 O 0.44836 0.75295 0.24373 0.0
O351 O 0.39741 0.71889 0.24119 0.0
C352 C 0.42596 0.72424 0.24109 0.0
C353 C 0.30978 0.71704 0.24593 0.0
C354 C 0.4031 0.79538 0.19601 0.0
C355 C 0.40113 0.79675 0.28907 0.0
O356 O 0.37598 0.78896 0.27603 0.0
O357 O 0.4203 0.78845 0.28056 0.0
O358 O 0.31348 0.74477 0.24285 0.0
O359 O 0.33456 0.71425 0.24566 0.0
H360 H 0.18459 0.59011 0.27271 0.0
H361 H 0.15022 0.65542 0.27929 0.0
H362 H 0.20141 0.69856 0.26623 0.0
H363 H 0.25614 0.71833 0.2543 0.0
H364 H 0.29241 0.65457 0.24967 0.0
H365 H 0.24035 0.61035 0.26077 0.0
C366 C 0.18836 0.6138 0.27143 0.0
C367 C 0.16336 0.61932 0.27673 0.0
C368 C 0.2182 0.63884 0.26428 0.0
C369 C 0.1687 0.65022 0.27475 0.0
C370 C 0.19809 0.67504 0.26748 0.0
C371 C 0.25271 0.69475 0.25551 0.0
C372 C 0.27813 0.68978 0.25109 0.0
C373 C 0.22298 0.66965 0.26227 0.0
C374 C 0.27322 0.65906 0.25295 0.0
C375 C 0.24347 0.63377 0.25935 0.0
H376 H 0.52615 0.16738 0.43637 0.0
H377 H 0.62215 0.18719 0.44017 0.0
H378 H 0.64064 0.24126 0.42589 0.0
H379 H 0.62959 0.28342 0.41306 0.0
H380 H 0.53322 0.2619 0.4068 0.0
H381 H 0.51499 0.20782 0.42046 0.0
C382 C 0.55112 0.1832 0.43359 0.0
C383 C 0.57261 0.17298 0.43956 0.0
C384 C 0.56162 0.21407 0.42478 0.0
C385 C 0.60495 0.19436 0.43632 0.0
C386 C 0.6156 0.22531 0.42791 0.0
C387 C 0.60461 0.26682 0.4145 0.0
C388 C 0.58285 0.2768 0.409 0.0
C389 C 0.59415 0.23551 0.42227 0.0
C390 C 0.55054 0.25493 0.41086 0.0
C391 C 0.54004 0.22395 0.41878 0.0
H392 H 0.37878 0.53151 0.61701 0.0
H393 H 0.45507 0.62654 0.60587 0.0
H394 H 0.41754 0.64365 0.59437 0.0
H395 H 0.36272 0.63149 0.58743 0.0
H396 H 0.28726 0.53572 0.59725 0.0
H397 H 0.32489 0.51908 0.60865 0.0
C398 C 0.38737 0.5559 0.61166 0.0
C399 C 0.41982 0.57761 0.61228 0.0
C400 C 0.36574 0.5655 0.60471 0.0
C401 C 0.43025 0.6093 0.60591 0.0
C402 C 0.40879 0.6191 0.59914 0.0
C403 C 0.35455 0.60697 0.59196 0.0
C404 C 0.32214 0.58494 0.59148 0.0
C405 C 0.37643 0.5974 0.59851 0.0
C406 C 0.312 0.55325 0.59741 0.0
C407 C 0.33352 0.54365 0.60401 0.0
H408 H 0.84209 0.42599 0.78253 0.0
H409 H 0.87651 0.36146 0.77041 0.0
H410 H 0.82467 0.32094 0.75532 0.0
H411 H 0.76904 0.30268 0.74829 0.0
H412 H 0.73368 0.36645 0.76015 0.0
H413 H 0.7865 0.40857 0.77212 0.0
C414 C 0.8383 0.40321 0.77619 0.0
C415 C 0.86303 0.39662 0.77799 0.0
C416 C 0.80828 0.37986 0.76756 0.0
C417 C 0.85773 0.36693 0.76979 0.0
C418 C 0.82812 0.34377 0.76103 0.0
C419 C 0.77287 0.32585 0.75328 0.0
C420 C 0.74741 0.33132 0.75355 0.0
C421 C 0.80312 0.34978 0.76033 0.0
C422 C 0.75288 0.36158 0.75984 0.0
C423 C 0.78306 0.38565 0.76677 0.0
H424 H 0.48864 0.86966 0.9353 0.0
H425 H 0.38947 0.83668 0.94128 0.0
H426 H 0.37756 0.78411 0.92677 0.0
H427 H 0.39568 0.74671 0.91537 0.0
H428 H 0.49527 0.78061 0.91022 0.0
H429 H 0.50659 0.8335 0.92149 0.0
C430 C 0.4644 0.85095 0.93342 0.0
C431 C 0.43998 0.85692 0.93964 0.0
C432 C 0.45781 0.82088 0.92534 0.0
C433 C 0.40869 0.83266 0.93654 0.0
C434 C 0.40189 0.80258 0.9284 0.0
C435 C 0.41983 0.76574 0.91648 0.0
C436 C 0.44456 0.75957 0.91215 0.0
C437 C 0.42629 0.79628 0.92317 0.0
C438 C 0.47574 0.78455 0.91359 0.0
C439 C 0.4823 0.81487 0.92007 0.0
H440 H 0.60274 0.42728 0.10132 0.0
H441 H 0.67637 0.52341 0.11374 0.0
H442 H 0.71587 0.50909 0.10318 0.0
H443 H 0.72991 0.46953 0.09157 0.0
H444 H 0.65742 0.37272 0.08109 0.0
H445 H 0.61713 0.38703 0.09006 0.0
C446 C 0.62742 0.44505 0.10187 0.0
C447 C 0.63642 0.47648 0.10805 0.0
C448 C 0.65027 0.43656 0.09621 0.0
C449 C 0.66859 0.4992 0.10845 0.0
C450 C 0.6913 0.49101 0.10263 0.0
C451 C 0.7053 0.4515 0.0911 0.0
C452 C 0.6967 0.42012 0.0856 0.0
C453 C 0.68242 0.45981 0.09655 0.0
C454 C 0.66468 0.39708 0.08526 0.0
C455 C 0.64165 0.40525 0.09041 0.0
H456 H 0.37176 0.86286 0.54019 0.0
H457 H 0.44917 0.84499 0.54057 0.0
H458 H 0.41356 0.79025 0.55371 0.0
H459 H 0.35966 0.74665 0.56261 0.0
H460 H 0.28266 0.76535 0.56119 0.0
H461 H 0.31881 0.82037 0.55076 0.0
C462 C 0.38084 0.84697 0.54307 0.0
C463 C 0.41301 0.85793 0.53916 0.0
C464 C 0.36025 0.81557 0.55032 0.0
C465 C 0.42452 0.8372 0.54358 0.0
C466 C 0.40413 0.80585 0.55092 0.0
C467 C 0.35085 0.76282 0.5602 0.0
C468 C 0.31842 0.75175 0.56253 0.0
C469 C 0.37184 0.79464 0.55401 0.0
C470 C 0.30743 0.77309 0.55939 0.0
C471 C 0.3281 0.80464 0.55341 0.0
H472 H 0.6086 0.43141 0.70508 0.0
H473 H 0.50827 0.37109 0.71237 0.0
H474 H 0.51549 0.32786 0.72751 0.0
H475 H 0.54982 0.30615 0.73604 0.0
H476 H 0.65026 0.36557 0.72867 0.0
H477 H 0.64353 0.41022 0.7166 0.0
C478 C 0.5884 0.40892 0.71037 0.0
C479 C 0.55793 0.40437 0.70727 0.0
C480 C 0.59271 0.38395 0.71894 0.0
C481 C 0.53194 0.37504 0.7141 0.0
C482 C 0.53604 0.35032 0.72285 0.0
C483 C 0.57031 0.3289 0.732 0.0
C484 C 0.60048 0.33241 0.73307 0.0
C485 C 0.56625 0.35433 0.72487 0.0
C486 C 0.62674 0.36216 0.72793 0.0
C487 C 0.6229 0.38771 0.72096 0.0
H488 H 0.1748 0.52825 0.87238 0.0
H489 H 0.18684 0.62133 0.87901 0.0
H490 H 0.24225 0.64262 0.89031 0.0
H491 H 0.28768 0.63483 0.89735 0.0
H492 H 0.27407 0.54099 0.89215 0.0
H493 H 0.21871 0.51999 0.88202 0.0
C494 C 0.18928 0.55312 0.87679 0.0
C495 C 0.17652 0.57308 0.87478 0.0
C496 C 0.22092 0.56512 0.88364 0.0
C497 C 0.19605 0.6054 0.87998 0.0
C498 C 0.22773 0.6176 0.88663 0.0
C499 C 0.27253 0.60977 0.89421 0.0
C500 C 0.28511 0.58959 0.89541 0.0
C501 C 0.2405 0.59769 0.88834 0.0
C502 C 0.26511 0.55714 0.89132 0.0
C503 C 0.2334 0.54505 0.88545 0.0
H504 H 0.62568 0.15419 0.03847 0.0
H505 H 0.55857 0.18639 0.04139 0.0
H506 H 0.60072 0.23944 0.05281 0.0
H507 H 0.65697 0.27667 0.06203 0.0
H508 H 0.72276 0.24266 0.06032 0.0
H509 H 0.68057 0.19017 0.04903 0.0
C510 C 0.62003 0.17259 0.04207 0.0
C511 C 0.58887 0.16613 0.03927 0.0
C512 C 0.64419 0.20277 0.04894 0.0
C513 C 0.58235 0.19067 0.04321 0.0
C514 C 0.60643 0.22099 0.04989 0.0
C515 C 0.66201 0.25773 0.05929 0.0
C516 C 0.69304 0.26368 0.06202 0.0
C517 C 0.63749 0.22733 0.0528 0.0
C518 C 0.69916 0.23884 0.05839 0.0
C519 C 0.67503 0.20875 0.05187 0.0
H520 H 0.43727 0.60663 0.20589 0.0
H521 H 0.53568 0.67473 0.21538 0.0
H522 H 0.52247 0.71357 0.23164 0.0
H523 H 0.48339 0.72928 0.2404 0.0
H524 H 0.38481 0.662 0.23048 0.0
H525 H 0.39763 0.62159 0.21765 0.0
C526 C 0.45576 0.62982 0.21191 0.0
C527 C 0.48742 0.63789 0.20913 0.0
C528 C 0.44799 0.6522 0.22111 0.0
C529 C 0.51115 0.66811 0.21686 0.0
C530 C 0.50362 0.6903 0.22627 0.0
C531 C 0.46463 0.70571 0.2357 0.0
C532 C 0.4332 0.69876 0.23624 0.0
C533 C 0.47218 0.68279 0.228 0.0
C534 C 0.40922 0.66802 0.23018 0.0
C535 C 0.41654 0.64492 0.22275 0.0
H536 H 0.86236 0.4898 0.39158 0.0
H537 H 0.83721 0.39573 0.36748 0.0
H538 H 0.78246 0.37685 0.38032 0.0
H539 H 0.741 0.38831 0.39471 0.0
H540 H 0.76715 0.48305 0.41815 0.0
H541 H 0.82211 0.50034 0.40934 0.0
C542 C 0.84488 0.46513 0.38928 0.0
C543 C 0.85367 0.44425 0.37833 0.0
C544 C 0.81357 0.45459 0.39645 0.0
C545 C 0.83098 0.41223 0.37592 0.0
C546 C 0.79967 0.40149 0.3831 0.0
C547 C 0.75879 0.41263 0.39824 0.0
C548 C 0.74985 0.43438 0.40682 0.0
C549 C 0.79056 0.4226 0.39288 0.0
C550 C 0.77324 0.46581 0.41136 0.0
C551 C 0.80475 0.47579 0.40628 0.0
H552 H 0.14064 0.54075 0.42926 0.0
H553 H 0.12298 0.61846 0.43276 0.0
H554 H 0.16104 0.64212 0.4693 0.0
H555 H 0.19748 0.63984 0.5016 0.0
H556 H 0.21354 0.56107 0.50027 0.0
H557 H 0.17777 0.53869 0.46169 0.0
C558 C 0.14495 0.56276 0.43812 0.0
C559 C 0.12892 0.57777 0.4281 0.0
C560 C 0.16654 0.57606 0.45958 0.0
C561 C 0.13525 0.60656 0.43964 0.0
C562 C 0.15689 0.62005 0.46072 0.0
C563 C 0.19344 0.6179 0.49279 0.0
C564 C 0.20825 0.6022 0.50388 0.0
C565 C 0.1725 0.60492 0.47096 0.0
C566 C 0.20248 0.57368 0.4922 0.0
C567 C 0.18197 0.56082 0.47015 0.0
H568 H 0.59277 0.12045 0.61328 0.0
H569 H 0.53747 0.1577 0.57809 0.0
H570 H 0.55367 0.19616 0.61447 0.0
H571 H 0.58354 0.21934 0.65665 0.0
H572 H 0.64341 0.18581 0.68813 0.0
H573 H 0.62634 0.14666 0.6521 0.0
C574 C 0.5847 0.13733 0.61294 0.0
C575 C 0.56357 0.13563 0.59275 0.0
C576 C 0.59516 0.16036 0.63326 0.0
C577 C 0.55301 0.15755 0.59356 0.0
C578 C 0.56256 0.17992 0.61427 0.0
C579 C 0.59295 0.20357 0.65545 0.0
C580 C 0.61458 0.20537 0.67506 0.0
C581 C 0.58353 0.18147 0.6343 0.0
C582 C 0.62686 0.18502 0.67318 0.0
C583 C 0.61698 0.1625 0.65268 0.0
H584 H 0.43309 0.57732 0.74652 0.0
H585 H 0.52622 0.61179 0.77936 0.0
H586 H 0.51409 0.63609 0.81678 0.0
H587 H 0.47601 0.64466 0.84212 0.0
H588 H 0.38109 0.60446 0.81252 0.0
H589 H 0.39478 0.58486 0.7722 0.0
C590 C 0.45071 0.58978 0.76196 0.0
C591 C 0.4806 0.5926 0.75983 0.0
C592 C 0.4432 0.60265 0.78417 0.0
C593 C 0.50321 0.60962 0.77992 0.0
C594 C 0.49622 0.62335 0.80159 0.0
C595 C 0.4585 0.63198 0.82661 0.0
C596 C 0.4277 0.62616 0.83006 0.0
C597 C 0.46621 0.61973 0.80408 0.0
C598 C 0.40498 0.6092 0.81018 0.0
C599 C 0.41278 0.59797 0.7872 0.0
H600 H 0.86906 0.44489 0.92 0.0
H601 H 0.93187 0.41966 0.95979 0.0
H602 H 0.8959 0.39818 0.99772 0.0
H603 H 0.84763 0.38812 0.02075 0.0
H604 H 0.78846 0.41973 0.98444 0.0
H605 H 0.82253 0.43802 0.94437 0.0
C606 C 0.87533 0.43522 0.93706 0.0
C607 C 0.90329 0.43376 0.93651 0.0
C608 C 0.85522 0.42418 0.95963 0.0
C609 C 0.91027 0.42042 0.95889 0.0
C610 C 0.88983 0.40839 0.98091 0.0
C611 C 0.84214 0.39886 0.00396 0.0
C612 C 0.81551 0.40235 0.0053 0.0
C613 C 0.86234 0.41023 0.98154 0.0
C614 C 0.80889 0.41683 0.98374 0.0
C615 C 0.82831 0.42722 0.96088 0.0
H616 H 0.46909 0.88791 0.09794 0.0
H617 H 0.37933 0.8836 0.09449 0.0
H618 H 0.3598 0.84507 0.13129 0.0
H619 H 0.3692 0.81484 0.16611 0.0
H620 H 0.45964 0.82044 0.17012 0.0
H621 H 0.47787 0.85629 0.13155 0.0
C622 C 0.44529 0.87863 0.10531 0.0
C623 C 0.42579 0.88878 0.0936 0.0
C624 C 0.43433 0.85676 0.12664 0.0
C625 C 0.39478 0.87603 0.10301 0.0
C626 C 0.38364 0.85413 0.12416 0.0
C627 C 0.39281 0.82367 0.15842 0.0
C628 C 0.41303 0.81503 0.17116 0.0
C629 C 0.40333 0.84459 0.13634 0.0
C630 C 0.44357 0.82675 0.16086 0.0
C631 C 0.45408 0.84732 0.13879 0.0
H632 H 0.624 0.49826 0.26411 0.0
H633 H 0.53994 0.4115 0.24369 0.0
H634 H 0.55156 0.38396 0.27902 0.0
H635 H 0.58405 0.38509 0.31723 0.0
H636 H 0.66815 0.47191 0.33766 0.0
H637 H 0.6584 0.49857 0.30036 0.0
C638 C 0.60847 0.47322 0.26708 0.0
C639 C 0.58098 0.45707 0.25142 0.0
C640 C 0.6153 0.45749 0.28742 0.0
C641 C 0.56095 0.42467 0.25579 0.0
C642 C 0.56767 0.40884 0.27589 0.0
C643 C 0.60048 0.40975 0.31336 0.0
C644 C 0.62668 0.42646 0.33039 0.0
C645 C 0.59454 0.42511 0.29208 0.0
C646 C 0.6477 0.45844 0.32499 0.0
C647 C 0.64211 0.47377 0.30369 0.0
H648 H 0.41633 0.889 0.38431 0.0
H649 H 0.50765 0.89695 0.38908 0.0
H650 H 0.49306 0.8579 0.35308 0.0
H651 H 0.4552 0.82334 0.31881 0.0
H652 H 0.36418 0.81631 0.31369 0.0
H653 H 0.37789 0.85317 0.35118 0.0
C654 C 0.43308 0.88228 0.37737 0.0
C655 C 0.46307 0.89598 0.38924 0.0
C656 C 0.42462 0.85999 0.35658 0.0
C657 C 0.48432 0.88659 0.38041 0.0
C658 C 0.47605 0.86438 0.35973 0.0
C659 C 0.43825 0.82965 0.32602 0.0
C660 C 0.40876 0.81713 0.3133 0.0
C661 C 0.44636 0.85112 0.3475 0.0
C662 C 0.38711 0.82562 0.32297 0.0
C663 C 0.39493 0.84677 0.34442 0.0
H664 H 0.53987 0.44425 0.52407 0.0
H665 H 0.614 0.45649 0.57871 0.0
H666 H 0.6366 0.43944 0.54334 0.0
H667 H 0.63568 0.42127 0.49654 0.0
H668 H 0.55815 0.40337 0.44417 0.0
H669 H 0.53605 0.42145 0.47937 0.0
C670 C 0.56056 0.44261 0.52865 0.0
C671 C 0.57524 0.45217 0.55416 0.0
C672 C 0.57286 0.4316 0.50858 0.0
C673 C 0.6025 0.45028 0.55914 0.0
C674 C 0.61537 0.44018 0.53897 0.0
C675 C 0.6139 0.42126 0.49296 0.0
C676 C 0.59865 0.4112 0.46782 0.0
C677 C 0.60088 0.43099 0.51354 0.0
C678 C 0.57025 0.4109 0.46345 0.0
C679 C 0.55766 0.42135 0.48351 0.0
H680 H 0.11788 0.5911 0.70574 0.0
H681 H 0.16176 0.54326 0.74359 0.0
H682 H 0.20048 0.56101 0.70741 0.0
H683 H 0.22153 0.58934 0.66436 0.0
H684 H 0.18106 0.64167 0.6295 0.0
H685 H 0.14216 0.62387 0.66582 0.0
C686 C 0.13622 0.585 0.70662 0.0
C687 C 0.13626 0.56532 0.72745 0.0
C688 C 0.15929 0.5963 0.68629 0.0
C689 C 0.16021 0.55747 0.72754 0.0
C690 C 0.18272 0.56793 0.70695 0.0
C691 C 0.20432 0.597 0.66488 0.0
C692 C 0.20403 0.61661 0.64422 0.0
C693 C 0.18232 0.58711 0.68609 0.0
C694 C 0.18185 0.62667 0.64525 0.0
C695 C 0.15948 0.61636 0.66592 0.0
H696 H 0.5908 0.13305 0.88656 0.0
H697 H 0.50426 0.13549 0.88913 0.0
H698 H 0.52309 0.17427 0.85264 0.0
H699 H 0.56357 0.20639 0.81896 0.0
H700 H 0.65071 0.20496 0.81793 0.0
H701 H 0.63245 0.16764 0.85535 0.0
C702 C 0.57619 0.14241 0.87955 0.0
C703 C 0.54601 0.13105 0.89057 0.0
C704 C 0.58731 0.16505 0.85882 0.0
C705 C 0.52733 0.14322 0.88073 0.0
C706 C 0.53817 0.16563 0.85997 0.0
C707 C 0.57868 0.19814 0.82707 0.0
C708 C 0.60841 0.20842 0.81544 0.0
C709 C 0.56802 0.17651 0.84867 0.0
C710 C 0.62769 0.19749 0.82634 0.0
C711 C 0.61724 0.17602 0.84775 0.0
H712 H 0.43961 0.5621 0.0477 0.0
H713 H 0.52919 0.64813 0.04769 0.0
H714 H 0.51194 0.66832 0.01015 0.0
H715 H 0.47213 0.66092 0.97652 0.0
H716 H 0.38241 0.5749 0.9765 0.0
H717 H 0.39887 0.55563 0.01524 0.0
C718 C 0.45521 0.58545 0.03975 0.0
C719 C 0.4857 0.60351 0.05043 0.0
C720 C 0.44514 0.59693 0.01817 0.0
C721 C 0.50577 0.63354 0.03959 0.0
C722 C 0.49587 0.64518 0.01822 0.0
C723 C 0.45605 0.63802 0.98505 0.0
C724 C 0.4261 0.61937 0.97348 0.0
C725 C 0.46572 0.62695 0.00719 0.0
C726 C 0.40562 0.58977 0.98491 0.0
C727 C 0.41503 0.57868 0.00706 0.0
H728 H 0.88314 0.40742 0.2215 0.0
H729 H 0.88712 0.49728 0.22204 0.0
H730 H 0.84965 0.48035 0.18463 0.0
H731 H 0.81737 0.44088 0.15063 0.0
H732 H 0.81276 0.3507 0.15054 0.0
H733 H 0.84829 0.36674 0.18932 0.0
C734 C 0.87544 0.42315 0.21376 0.0
C735 C 0.88818 0.45369 0.22447 0.0
C736 C 0.85374 0.41322 0.19232 0.0
C737 C 0.87819 0.47385 0.21388 0.0
C738 C 0.8566 0.46414 0.19257 0.0
C739 C 0.82393 0.42461 0.15918 0.0
C740 C 0.81251 0.39469 0.14751 0.0
C741 C 0.84453 0.43402 0.18142 0.0
C742 C 0.82119 0.3739 0.15902 0.0
C743 C 0.8416 0.38307 0.18118 0.0
loop_
_geom_bond_atom_site_label_1
_geom_bond_atom_site_label_2
_geom_bond_distance
_geom_bond_site_symmetry_2
_ccdc_geom_bond_type
C0 C1 1.384 . S
C0 C2 1.384 . S
C0 H28 0.931 . S
C1 C0 1.384 . S
C1 C4 1.382 . S
C2 C0 1.384 . S
C2 C3 1.381 . S
C2 H29 0.930 . S
C3 C2 1.381 . S
C3 C5 1.381 . S
C3 C6 1.487 . S
C4 C1 1.382 . S
C4 C5 1.387 . S
C4 H30 0.930 . S
C5 C3 1.381 . S
C5 C4 1.387 . S
C5 H31 0.931 . S
C6 C3 1.487 . S
C6 C13 1.399 . S
C6 N44 1.321 1_655 S
C7 C8 1.384 . S
C7 C9 1.384 . S
C7 H32 0.931 . S
C8 C7 1.384 . S
C8 C11 1.382 . S
C9 C7 1.384 . S
C9 C10 1.381 . S
C9 H33 0.930 . S
C10 C9 1.381 . S
C10 C12 1.381 . S
C10 C13 1.487 . S
C11 C8 1.382 . S
C11 C12 1.387 . S
C11 H34 0.930 . S
C12 C10 1.381 . S
C12 C11 1.387 . S
C12 H35 0.931 . S
C13 C6 1.399 . S
C13 C10 1.487 . S
C13 N45 1.343 1_655 S
C14 C15 1.384 . S
C14 C16 1.384 . S
C14 H36 0.931 . S
C15 C14 1.384 . S
C15 C18 1.382 . S
C16 C14 1.384 . S
C16 C17 1.381 . S
C16 H37 0.930 . S
C17 C16 1.381 . S
C17 C19 1.381 . S
C17 C20 1.487 . S
C18 C15 1.382 . S
C18 C19 1.387 . S
C18 H38 0.930 . S
C19 C17 1.381 . S
C19 C18 1.387 . S
C19 H39 0.931 . S
C20 C17 1.487 . S
C20 C27 1.399 . S
C20 N45 1.343 . S
C21 C22 1.384 . S
C21 C23 1.384 . S
C21 H40 0.931 . S
C22 C21 1.384 . S
C22 C25 1.382 . S
C23 C21 1.384 . S
C23 C24 1.381 . S
C23 H41 0.930 . S
C24 C23 1.381 . S
C24 C26 1.381 . S
C24 C27 1.487 . S
C25 C22 1.382 . S
C25 C26 1.387 . S
C25 H42 0.930 . S
C26 C24 1.381 . S
C26 C25 1.387 . S
C26 H43 0.931 . S
C27 C20 1.399 . S
C27 C24 1.487 . S
C27 N44 1.374 . S
H28 C0 0.931 . S
H29 C2 0.930 . S
H30 C4 0.930 . S
H31 C5 0.931 . S
H32 C7 0.931 . S
H33 C9 0.930 . S
H34 C11 0.930 . S
H35 C12 0.931 . S
H36 C14 0.931 . S
H37 C16 0.930 . S
H38 C18 0.930 . S
H39 C19 0.931 . S
H40 C21 0.931 . S
H41 C23 0.930 . S
H42 C25 0.930 . S
H43 C26 0.931 . S
N44 C6 1.321 1_455 S
N44 C27 1.374 . S
N45 C13 1.343 1_455 S
N45 C20 1.343 . S
C46 C47 1.384 . S
C46 C48 1.384 . S
C46 H74 0.931 . S
C47 C46 1.384 . S
C47 C50 1.382 . S
C48 C46 1.384 . S
C48 C49 1.381 . S
C48 H75 0.930 . S
C49 C48 1.381 . S
C49 C51 1.381 . S
C49 C52 1.487 . S
C50 C47 1.382 . S
C50 C51 1.387 . S
C50 H76 0.930 . S
C51 C49 1.381 . S
C51 C50 1.387 . S
C51 H77 0.931 . S
C52 C49 1.487 . S
C52 C59 1.399 . S
C52 N90 1.343 1_565 S
C53 C54 1.384 . S
C53 C55 1.384 . S
C53 H78 0.931 . S
C54 C53 1.384 . S
C54 C57 1.382 . S
C55 C53 1.384 . S
C55 C56 1.381 . S
C55 H79 0.930 . S
C56 C55 1.381 . S
C56 C58 1.381 . S
C56 C59 1.487 . S
C57 C54 1.382 . S
C57 C58 1.387 . S
C57 H80 0.930 . S
C58 C56 1.381 . S
C58 C57 1.387 . S
C58 H81 0.931 . S
C59 C52 1.399 . S
C59 C56 1.487 . S
C59 N91 1.343 1_565 S
C60 C61 1.384 . S
C60 C62 1.384 . S
C60 H82 0.931 . S
C61 C60 1.384 . S
C61 C64 1.382 . S
C62 C60 1.384 . S
C62 C63 1.381 . S
C62 H83 0.930 . S
C63 C62 1.381 . S
C63 C65 1.381 . S
C63 C66 1.487 . S
C64 C61 1.382 . S
C64 C65 1.387 . S
C64 H84 0.930 . S
C65 C63 1.381 . S
C65 C64 1.387 . S
C65 H85 0.931 . S
C66 C63 1.487 . S
C66 C73 1.399 . S
C66 N91 1.343 . S
C67 C68 1.384 . S
C67 C69 1.384 . S
C67 H86 0.931 . S
C68 C67 1.384 . S
C68 C71 1.382 . S
C69 C67 1.384 . S
C69 C70 1.381 . S
C69 H87 0.930 . S
C70 C69 1.381 . S
C70 C72 1.381 . S
C70 C73 1.487 . S
C71 C68 1.382 . S
C71 C72 1.387 . S
C71 H88 0.930 . S
C72 C70 1.381 . S
C72 C71 1.387 . S
C72 H89 0.931 . S
C73 C66 1.399 . S
C73 C70 1.487 . S
C73 N90 1.343 . S
H74 C46 0.931 . S
H75 C48 0.930 . S
H76 C50 0.930 . S
H77 C51 0.931 . S
H78 C53 0.931 . S
H79 C55 0.930 . S
H80 C57 0.930 . S
H81 C58 0.931 . S
H82 C60 0.931 . S
H83 C62 0.930 . S
H84 C64 0.930 . S
H85 C65 0.931 . S
H86 C67 0.931 . S
H87 C69 0.930 . S
H88 C71 0.930 . S
H89 C72 0.931 . S
N90 C52 1.343 1_545 S
N90 C73 1.343 . S
N91 C59 1.343 1_545 S
N91 C66 1.343 . S
C92 C93 1.384 . S
C92 C94 1.384 . S
C92 H120 0.931 . S
C93 C92 1.384 . S
C93 C96 1.382 . S
C94 C92 1.384 . S
C94 C95 1.381 . S
C94 H121 0.930 . S
C95 C94 1.381 . S
C95 C97 1.381 . S
C95 C98 1.487 . S
C96 C93 1.382 . S
C96 C97 1.387 . S
C96 H122 0.930 . S
C97 C95 1.381 . S
C97 C96 1.387 . S
C97 H123 0.931 . S
C98 C95 1.487 . S
C98 C105 1.399 . S
C98 N136 1.343 . S
C99 C100 1.384 . S
C99 C101 1.384 . S
C99 H124 0.931 . S
C100 C99 1.384 . S
C100 C103 1.382 . S
C101 C99 1.384 . S
C101 C102 1.381 . S
C101 H125 0.930 . S
C102 C101 1.381 . S
C102 C104 1.381 . S
C102 C105 1.487 . S
C103 C100 1.382 . S
C103 C104 1.387 . S
C103 H126 0.930 . S
C104 C102 1.381 . S
C104 C103 1.387 . S
C104 H127 0.931 . S
C105 C98 1.399 . S
C105 C102 1.487 . S
C105 N137 1.343 . S
C106 C107 1.384 . S
C106 C108 1.384 . S
C106 H128 0.931 . S
C107 C106 1.384 . S
C107 C110 1.382 . S
C108 C106 1.384 . S
C108 C109 1.381 . S
C108 H129 0.930 . S
C109 C108 1.381 . S
C109 C111 1.381 . S
C109 C112 1.487 . S
C110 C107 1.382 . S
C110 C111 1.387 . S
C110 H130 0.930 . S
C111 C109 1.381 . S
C111 C110 1.387 . S
C111 H131 0.931 . S
C112 C109 1.487 . S
C112 C119 1.399 . S
C112 N137 1.343 . S
C113 C114 1.384 . S
C113 C115 1.384 . S
C113 H132 0.931 . S
C114 C113 1.384 . S
C114 C117 1.382 . S
C115 C113 1.384 . S
C115 C116 1.381 . S
C115 H133 0.930 . S
C116 C115 1.381 . S
C116 C118 1.381 . S
C116 C119 1.487 . S
C117 C114 1.382 . S
C117 C118 1.387 . S
C117 H134 0.930 . S
C118 C116 1.381 . S
C118 C117 1.387 . S
C118 H135 0.931 . S
C119 C112 1.399 . S
C119 C116 1.487 . S
C119 N136 1.343 . S
H120 C92 0.931 . S
H121 C94 0.930 . S
H122 C96 0.930 . S
H123 C97 0.931 . S
H124 C99 0.931 . S
H125 C101 0.930 . S
H126 C103 0.930 . S
H127 C104 0.931 . S
H128 C106 0.931 . S
H129 C108 0.930 . S
H130 C110 0.930 . S
H131 C111 0.931 . S
H132 C113 0.931 . S
H133 C115 0.930 . S
H134 C117 0.930 . S
H135 C118 0.931 . S
N136 C98 1.343 . S
N136 C119 1.343 . S
N137 C105 1.343 . S
N137 C112 1.343 . S
C138 C139 1.384 . S
C138 C140 1.384 . S
C138 H166 0.931 . S
C139 C138 1.384 . S
C139 C142 1.382 . S
C140 C138 1.384 . S
C140 C141 1.381 . S
C140 H167 0.930 . S
C141 C140 1.381 . S
C141 C143 1.381 . S
C141 C144 1.487 . S
C142 C139 1.382 . S
C142 C143 1.387 . S
C142 H168 0.930 . S
C143 C141 1.381 . S
C143 C142 1.387 . S
C143 H169 0.931 . S
C144 C141 1.487 . S
C144 C151 1.399 . S
C144 N182 1.343 1_655 S
C145 C146 1.384 . S
C145 C147 1.384 . S
C145 H170 0.931 . S
C146 C145 1.384 . S
C146 C149 1.382 . S
C147 C145 1.384 . S
C147 C148 1.381 . S
C147 H171 0.930 . S
C148 C147 1.381 . S
C148 C150 1.381 . S
C148 C151 1.487 . S
C149 C146 1.382 . S
C149 C150 1.387 . S
C149 H172 0.930 . S
C150 C148 1.381 . S
C150 C149 1.387 . S
C150 H173 0.931 . S
C151 C144 1.399 . S
C151 C148 1.487 . S
C151 N183 1.343 1_655 S
C152 C153 1.384 . S
C152 C154 1.384 . S
C152 H174 0.931 . S
C153 C152 1.384 . S
C153 C156 1.382 . S
C154 C152 1.384 . S
C154 C155 1.381 . S
C154 H175 0.930 . S
C155 C154 1.381 . S
C155 C157 1.381 . S
C155 C158 1.487 . S
C156 C153 1.382 . S
C156 C157 1.387 . S
C156 H176 0.930 . S
C157 C155 1.381 . S
C157 C156 1.387 . S
C157 H177 0.931 . S
C158 C155 1.487 . S
C158 C165 1.399 . S
C158 N183 1.343 . S
C159 C160 1.384 . S
C159 C161 1.384 . S
C159 H178 0.931 . S
C160 C159 1.384 . S
C160 C163 1.382 . S
C161 C159 1.384 . S
C161 C162 1.381 . S
C161 H179 0.930 . S
C162 C161 1.381 . S
C162 C164 1.381 . S
C162 C165 1.487 . S
C163 C160 1.382 . S
C163 C164 1.387 . S
C163 H180 0.930 . S
C164 C162 1.381 . S
C164 C163 1.387 . S
C164 H181 0.931 . S
C165 C158 1.399 . S
C165 C162 1.487 . S
C165 N182 1.343 . S
H166 C138 0.931 . S
H167 C140 0.930 . S
H168 C142 0.930 . S
H169 C143 0.931 . S
H170 C145 0.931 . S
H171 C147 0.930 . S
H172 C149 0.930 . S
H173 C150 0.931 . S
H174 C152 0.931 . S
H175 C154 0.930 . S
H176 C156 0.930 . S
H177 C157 0.931 . S
H178 C159 0.931 . S
H179 C161 0.930 . S
H180 C163 0.930 . S
H181 C164 0.931 . S
N182 C144 1.343 1_455 S
N182 C165 1.343 . S
N183 C151 1.343 1_455 S
N183 C158 1.343 . S
C184 C185 1.384 . S
C184 C186 1.384 . S
C184 H212 0.931 . S
C185 C184 1.384 . S
C185 C188 1.382 . S
C186 C184 1.384 . S
C186 C187 1.381 . S
C186 H213 0.914 1_556 S
C187 C186 1.381 . S
C187 C189 1.381 . S
C187 C190 1.487 . S
C188 C185 1.382 . S
C188 C189 1.387 . S
C188 H214 0.930 . S
C189 C187 1.381 . S
C189 C188 1.387 . S
C189 H215 0.931 . S
C190 C187 1.487 . S
C190 C197 1.399 1_556 S
C190 N228 1.343 1_565 S
C191 C192 1.384 . S
C191 C193 1.384 . S
C191 H216 0.931 . S
C192 C191 1.384 . S
C192 C195 1.382 . S
C193 C191 1.384 . S
C193 C194 1.381 . S
C193 H217 0.930 . S
C194 C193 1.381 . S
C194 C196 1.381 . S
C194 C197 1.487 . S
C195 C192 1.382 . S
C195 C196 1.387 . S
C195 H218 0.930 . S
C196 C194 1.381 . S
C196 C195 1.387 . S
C196 H219 0.931 . S
C197 C190 1.399 1_554 S
C197 C194 1.487 . S
C197 N229 1.343 1_565 S
C198 C199 1.384 . S
C198 C200 1.384 1_554 S
C198 H220 0.920 1_554 S
C199 C198 1.384 . S
C199 C202 1.382 . S
C200 C198 1.384 1_556 S
C200 C201 1.381 1_556 S
C200 H221 0.930 . S
C201 C200 1.381 1_554 S
C201 C203 1.381 . S
C201 C204 1.487 1_554 S
C202 C199 1.382 . S
C202 C203 1.387 . S
C202 H222 0.930 . S
C203 C201 1.381 . S
C203 C202 1.387 . S
C203 H223 0.931 . S
C204 C201 1.487 1_556 S
C204 C211 1.399 . S
C204 N229 1.343 1_556 S
C205 C206 1.384 . S
C205 C207 1.384 . S
C205 H224 0.931 . S
C206 C205 1.384 . S
C206 C209 1.382 . S
C207 C205 1.384 . S
C207 C208 1.381 . S
C207 H225 0.930 . S
C208 C207 1.381 . S
C208 C210 1.381 . S
C208 C211 1.487 . S
C209 C206 1.382 . S
C209 C210 1.387 . S
C209 H226 0.930 . S
C210 C208 1.381 . S
C210 C209 1.387 . S
C210 H227 0.931 . S
C211 C204 1.399 . S
C211 C208 1.487 . S
C211 N228 1.343 . S
H212 C184 0.931 . S
H213 C186 0.914 1_554 S
H214 C188 0.930 . S
H215 C189 0.931 . S
H216 C191 0.931 . S
H217 C193 0.930 . S
H218 C195 0.930 . S
H219 C196 0.931 . S
H220 C198 0.920 1_556 S
H221 C200 0.930 . S
H222 C202 0.930 . S
H223 C203 0.931 . S
H224 C205 0.931 . S
H225 C207 0.930 . S
H226 C209 0.930 . S
H227 C210 0.931 . S
N228 C190 1.343 1_545 S
N228 C211 1.343 . S
N229 C197 1.343 1_545 S
N229 C204 1.343 1_554 S
C230 C231 1.384 . S
C230 C232 1.384 . S
C230 H258 0.931 . S
C231 C230 1.384 . S
C231 C234 1.382 . S
C232 C230 1.384 . S
C232 C233 1.381 . S
C232 H259 0.930 . S
C233 C232 1.381 . S
C233 C235 1.381 . S
C233 C236 1.487 . S
C234 C231 1.382 . S
C234 C235 1.387 . S
C234 H260 0.930 . S
C235 C233 1.381 . S
C235 C234 1.387 . S
C235 H261 0.931 . S
C236 C233 1.487 . S
C236 C243 1.399 . S
C236 N274 1.343 . S
C237 C238 1.384 . S
C237 C239 1.384 . S
C237 H262 0.931 . S
C238 C237 1.384 . S
C238 C241 1.382 . S
C239 C237 1.384 . S
C239 C240 1.381 . S
C239 H263 0.930 . S
C240 C239 1.381 . S
C240 C242 1.381 . S
C240 C243 1.487 . S
C241 C238 1.382 . S
C241 C242 1.387 . S
C241 H264 0.930 . S
C242 C240 1.381 . S
C242 C241 1.387 . S
C242 H265 0.931 . S
C243 C236 1.399 . S
C243 C240 1.487 . S
C243 N275 1.343 . S
C244 C245 1.384 . S
C244 C246 1.384 . S
C244 H266 0.931 . S
C245 C244 1.384 . S
C245 C248 1.382 . S
C246 C244 1.384 . S
C246 C247 1.381 . S
C246 H267 0.930 . S
C247 C246 1.381 . S
C247 C249 1.381 . S
C247 C250 1.487 . S
C248 C245 1.382 . S
C248 C249 1.387 . S
C248 H268 0.930 . S
C249 C247 1.381 . S
C249 C248 1.387 . S
C249 H269 0.931 . S
C250 C247 1.487 . S
C250 C257 1.399 . S
C250 N275 1.343 . S
C251 C252 1.384 . S
C251 C253 1.384 . S
C251 H270 0.931 . S
C252 C251 1.384 . S
C252 C255 1.382 . S
C253 C251 1.384 . S
C253 C254 1.381 . S
C253 H271 0.930 . S
C254 C253 1.381 . S
C254 C256 1.381 . S
C254 C257 1.487 . S
C255 C252 1.382 . S
C255 C256 1.387 . S
C255 H272 0.930 . S
C256 C254 1.381 . S
C256 C255 1.387 . S
C256 H273 0.931 . S
C257 C250 1.399 . S
C257 C254 1.487 . S
C257 N274 1.343 . S
H258 C230 0.931 . S
H259 C232 0.930 . S
H260 C234 0.930 . S
H261 C235 0.931 . S
H262 C237 0.931 . S
H263 C239 0.930 . S
H264 C241 0.930 . S
H265 C242 0.931 . S
H266 C244 0.931 . S
H267 C246 0.930 . S
H268 C248 0.930 . S
H269 C249 0.931 . S
H270 C251 0.931 . S
H271 C253 0.930 . S
H272 C255 0.930 . S
H273 C256 0.931 . S
N274 C236 1.343 . S
N274 C257 1.343 . S
N275 C243 1.343 . S
N275 C250 1.343 . S
O276 Cd277 2.223 . S
O276 C284 1.315 . S
Cd277 O276 2.223 . S
Cd277 O280 2.297 . S
Cd277 O281 2.439 . S
Cd277 O287 2.240 . S
Cd278 O279 2.240 . S
Cd278 O286 2.223 . S
Cd278 O288 2.297 . S
Cd278 O289 2.439 . S
O279 Cd278 2.240 . S
O279 C284 1.279 . S
O280 Cd277 2.297 . S
O280 C282 1.247 . S
O281 Cd277 2.439 . S
O281 C282 1.208 . S
C282 O280 1.247 . S
C282 O281 1.208 . S
C283 O288 1.247 . S
C283 O289 1.208 . S
C284 O276 1.315 . S
C284 O279 1.279 . S
C285 O286 1.315 . S
C285 O287 1.279 . S
O286 Cd278 2.223 . S
O286 C285 1.315 . S
O287 Cd277 2.240 . S
O287 C285 1.279 . S
O288 Cd278 2.297 . S
O288 C283 1.247 . S
O289 Cd278 2.439 . S
O289 C283 1.208 . S
O290 Cd291 2.223 . S
O290 C298 1.315 . S
Cd291 O290 2.223 . S
Cd291 O294 2.297 . S
Cd291 O295 2.439 . S
Cd291 O301 2.240 . S
Cd292 O293 2.240 . S
Cd292 O300 2.223 . S
Cd292 O302 2.297 . S
Cd292 O303 2.439 . S
O293 Cd292 2.240 . S
O293 C298 1.279 . S
O294 Cd291 2.297 . S
O294 C296 1.247 . S
O295 Cd291 2.439 . S
O295 C296 1.208 . S
C296 O294 1.247 . S
C296 O295 1.208 . S
C297 O302 1.247 . S
C297 O303 1.208 . S
C298 O290 1.315 . S
C298 O293 1.279 . S
C299 O300 1.315 . S
C299 O301 1.279 . S
O300 Cd292 2.223 . S
O300 C299 1.315 . S
O301 Cd291 2.240 . S
O301 C299 1.279 . S
O302 Cd292 2.297 . S
O302 C297 1.247 . S
O303 Cd292 2.439 . S
O303 C297 1.208 . S
O304 Cd305 2.223 . S
O304 C312 1.315 . S
Cd305 O304 2.223 . S
Cd305 O308 2.297 . S
Cd305 O309 2.439 . S
Cd305 O315 2.240 . S
Cd306 O307 2.240 . S
Cd306 O314 2.223 . S
Cd306 O316 2.297 . S
Cd306 O317 2.439 . S
O307 Cd306 2.240 . S
O307 C312 1.279 . S
O308 Cd305 2.297 . S
O308 C310 1.247 . S
O309 Cd305 2.439 . S
O309 C310 1.208 . S
C310 O308 1.247 . S
C310 O309 1.208 . S
C311 O316 1.247 . S
C311 O317 1.208 . S
C312 O304 1.315 . S
C312 O307 1.279 . S
C313 O314 1.315 . S
C313 O315 1.279 . S
O314 Cd306 2.223 . S
O314 C313 1.315 . S
O315 Cd305 2.240 . S
O315 C313 1.279 . S
O316 Cd306 2.297 . S
O316 C311 1.247 . S
O317 Cd306 2.439 . S
O317 C311 1.208 . S
O318 Cd319 2.223 . S
O318 C326 1.315 . S
Cd319 O318 2.223 . S
Cd319 O322 2.297 . S
Cd319 O323 2.439 . S
Cd319 O329 2.240 . S
Cd320 O321 2.240 . S
Cd320 O328 2.223 . S
Cd320 O330 2.297 . S
Cd320 O331 2.439 . S
O321 Cd320 2.240 . S
O321 C326 1.279 . S
O322 Cd319 2.297 . S
O322 C324 1.247 . S
O323 Cd319 2.439 . S
O323 C324 1.208 . S
C324 O322 1.247 . S
C324 O323 1.208 . S
C325 O330 1.247 . S
C325 O331 1.208 . S
C326 O318 1.315 . S
C326 O321 1.279 . S
C327 O328 1.315 . S
C327 O329 1.279 . S
O328 Cd320 2.223 . S
O328 C327 1.315 . S
O329 Cd319 2.240 . S
O329 C327 1.279 . S
O330 Cd320 2.297 . S
O330 C325 1.247 . S
O331 Cd320 2.439 . S
O331 C325 1.208 . S
O332 Cd333 2.223 . S
O332 C340 1.315 . S
Cd333 O332 2.223 . S
Cd333 O336 2.297 . S
Cd333 O337 2.439 . S
Cd333 O343 2.240 . S
Cd334 O335 2.240 . S
Cd334 O342 2.223 . S
Cd334 O344 2.297 . S
Cd334 O345 2.439 . S
O335 Cd334 2.240 . S
O335 C340 1.279 . S
O336 Cd333 2.297 . S
O336 C338 1.247 . S
O337 Cd333 2.439 . S
O337 C338 1.208 . S
C338 O336 1.247 . S
C338 O337 1.208 . S
C339 O344 1.247 . S
C339 O345 1.208 . S
C340 O332 1.315 . S
C340 O335 1.279 . S
C341 O342 1.315 . S
C341 O343 1.279 . S
O342 Cd334 2.223 . S
O342 C341 1.315 . S
O343 Cd333 2.240 . S
O343 C341 1.279 . S
O344 Cd334 2.297 . S
O344 C339 1.247 . S
O345 Cd334 2.439 . S
O345 C339 1.208 . S
O346 Cd347 2.223 . S
O346 C354 1.315 . S
Cd347 O346 2.223 . S
Cd347 O350 2.297 . S
Cd347 O351 2.439 . S
Cd347 O357 2.240 . S
Cd348 O349 2.240 . S
Cd348 O356 2.223 . S
Cd348 O358 2.297 . S
Cd348 O359 2.439 . S
O349 Cd348 2.240 . S
O349 C354 1.279 . S
O350 Cd347 2.297 . S
O350 C352 1.247 . S
O351 Cd347 2.439 . S
O351 C352 1.208 . S
C352 O350 1.247 . S
C352 O351 1.208 . S
C353 O358 1.247 . S
C353 O359 1.208 . S
C354 O346 1.315 . S
C354 O349 1.279 . S
C355 O356 1.315 . S
C355 O357 1.279 . S
O356 Cd348 2.223 . S
O356 C355 1.315 . S
O357 Cd347 2.240 . S
O357 C355 1.279 . S
O358 Cd348 2.297 . S
O358 C353 1.247 . S
O359 Cd348 2.439 . S
O359 C353 1.208 . S
H360 C366 0.930 . S
H361 C369 0.930 . S
H362 C370 0.930 . S
H363 C371 0.930 . S
H364 C374 0.930 . S
H365 C375 0.930 . S
C366 H360 0.930 . S
C366 C367 1.355 . S
C366 C368 1.415 . S
C367 C366 1.355 . S
C367 C369 1.419 . S
C368 C366 1.415 . S
C368 C373 1.425 . S
C368 C375 1.409 . S
C369 H361 0.930 . S
C369 C367 1.419 . S
C369 C370 1.362 . S
C370 H362 0.930 . S
C370 C369 1.362 . S
C370 C373 1.409 . S
C371 H363 0.930 . S
C371 C372 1.355 . S
C371 C373 1.415 . S
C372 C371 1.355 . S
C372 C374 1.419 . S
C373 C368 1.425 . S
C373 C370 1.409 . S
C373 C371 1.415 . S
C374 H364 0.930 . S
C374 C372 1.419 . S
C374 C375 1.362 . S
C375 H365 0.930 . S
C375 C368 1.409 . S
C375 C374 1.362 . S
H376 C382 0.930 . S
H377 C385 0.930 . S
H378 C386 0.930 . S
H379 C387 0.930 . S
H380 C390 0.930 . S
H381 C391 0.930 . S
C382 H376 0.930 . S
C382 C383 1.355 . S
C382 C384 1.415 . S
C383 C382 1.355 . S
C383 C385 1.419 . S
C384 C382 1.415 . S
C384 C389 1.425 . S
C384 C391 1.409 . S
C385 H377 0.930 . S
C385 C383 1.419 . S
C385 C386 1.362 . S
C386 H378 0.930 . S
C386 C385 1.362 . S
C386 C389 1.409 . S
C387 H379 0.930 . S
C387 C388 1.355 . S
C387 C389 1.415 . S
C388 C387 1.355 . S
C388 C390 1.419 . S
C389 C384 1.425 . S
C389 C386 1.409 . S
C389 C387 1.415 . S
C390 H380 0.930 . S
C390 C388 1.419 . S
C390 C391 1.362 . S
C391 H381 0.930 . S
C391 C384 1.409 . S
C391 C390 1.362 . S
H392 C398 0.930 . S
H393 C401 0.930 . S
H394 C402 0.930 . S
H395 C403 0.930 . S
H396 C406 0.930 . S
H397 C407 0.930 . S
C398 H392 0.930 . S
C398 C399 1.355 . S
C398 C400 1.415 . S
C399 C398 1.355 . S
C399 C401 1.419 . S
C400 C398 1.415 . S
C400 C405 1.425 . S
C400 C407 1.409 . S
C401 H393 0.930 . S
C401 C399 1.419 . S
C401 C402 1.362 . S
C402 H394 0.930 . S
C402 C401 1.362 . S
C402 C405 1.409 . S
C403 H395 0.930 . S
C403 C404 1.355 . S
C403 C405 1.415 . S
C404 C403 1.355 . S
C404 C406 1.419 . S
C405 C400 1.425 . S
C405 C402 1.409 . S
C405 C403 1.415 . S
C406 H396 0.930 . S
C406 C404 1.419 . S
C406 C407 1.362 . S
C407 H397 0.930 . S
C407 C400 1.409 . S
C407 C406 1.362 . S
H408 C414 0.930 . S
H409 C417 0.930 . S
H410 C418 0.930 . S
H411 C419 0.930 . S
H412 C422 0.930 . S
H413 C423 0.930 . S
C414 H408 0.930 . S
C414 C415 1.355 . S
C414 C416 1.415 . S
C415 C414 1.355 . S
C415 C417 1.419 . S
C416 C414 1.415 . S
C416 C421 1.425 . S
C416 C423 1.409 . S
C417 H409 0.930 . S
C417 C415 1.419 . S
C417 C418 1.362 . S
C418 H410 0.930 . S
C418 C417 1.362 . S
C418 C421 1.409 . S
C419 H411 0.930 . S
C419 C420 1.355 . S
C419 C421 1.415 . S
C420 C419 1.355 . S
C420 C422 1.419 . S
C421 C416 1.425 . S
C421 C418 1.409 . S
C421 C419 1.415 . S
C422 H412 0.930 . S
C422 C420 1.419 . S
C422 C423 1.362 . S
C423 H413 0.930 . S
C423 C416 1.409 . S
C423 C422 1.362 . S
H424 C430 0.930 . S
H425 C433 0.930 . S
H426 C434 0.930 . S
H427 C435 0.930 . S
H428 C438 0.930 . S
H429 C439 0.930 . S
C430 H424 0.930 . S
C430 C431 1.355 . S
C430 C432 1.415 . S
C431 C430 1.355 . S
C431 C433 1.419 . S
C432 C430 1.415 . S
C432 C437 1.425 . S
C432 C439 1.409 . S
C433 H425 0.930 . S
C433 C431 1.419 . S
C433 C434 1.362 . S
C434 H426 0.930 . S
C434 C433 1.362 . S
C434 C437 1.409 . S
C435 H427 0.930 . S
C435 C436 1.355 . S
C435 C437 1.415 . S
C436 C435 1.355 . S
C436 C438 1.419 . S
C437 C432 1.425 . S
C437 C434 1.409 . S
C437 C435 1.415 . S
C438 H428 0.930 . S
C438 C436 1.419 . S
C438 C439 1.362 . S
C439 H429 0.930 . S
C439 C432 1.409 . S
C439 C438 1.362 . S
H440 C446 0.930 . S
H441 C449 0.930 . S
H442 C450 0.930 . S
H443 C451 0.930 . S
H444 C454 0.930 . S
H445 C455 0.930 . S
C446 H440 0.930 . S
C446 C447 1.355 . S
C446 C448 1.415 . S
C447 C446 1.355 . S
C447 C449 1.419 . S
C448 C446 1.415 . S
C448 C453 1.425 . S
C448 C455 1.409 . S
C449 H441 0.930 . S
C449 C447 1.419 . S
C449 C450 1.362 . S
C450 H442 0.930 . S
C450 C449 1.362 . S
C450 C453 1.409 . S
C451 H443 0.930 . S
C451 C452 1.355 . S
C451 C453 1.415 . S
C452 C451 1.355 . S
C452 C454 1.419 . S
C453 C448 1.425 . S
C453 C450 1.409 . S
C453 C451 1.415 . S
C454 H444 0.930 . S
C454 C452 1.419 . S
C454 C455 1.362 . S
C455 H445 0.930 . S
C455 C448 1.409 . S
C455 C454 1.362 . S
H456 C462 0.930 . S
H457 C465 0.930 . S
H458 C466 0.930 . S
H459 C467 0.930 . S
H460 C470 0.930 . S
H461 C471 0.930 . S
C462 H456 0.930 . S
C462 C463 1.355 . S
C462 C464 1.415 . S
C463 C462 1.355 . S
C463 C465 1.419 . S
C464 C462 1.415 . S
C464 C469 1.425 . S
C464 C471 1.409 . S
C465 H457 0.930 . S
C465 C463 1.419 . S
C465 C466 1.362 . S
C466 H458 0.930 . S
C466 C465 1.362 . S
C466 C469 1.409 . S
C467 H459 0.930 . S
C467 C468 1.355 . S
C467 C469 1.415 . S
C468 C467 1.355 . S
C468 C470 1.419 . S
C469 C464 1.425 . S
C469 C466 1.409 . S
C469 C467 1.415 . S
C470 H460 0.930 . S
C470 C468 1.419 . S
C470 C471 1.362 . S
C471 H461 0.930 . S
C471 C464 1.409 . S
C471 C470 1.362 . S
H472 C478 0.930 . S
H473 C481 0.930 . S
H474 C482 0.930 . S
H475 C483 0.930 . S
H476 C486 0.930 . S
H477 C487 0.930 . S
C478 H472 0.930 . S
C478 C479 1.355 . S
C478 C480 1.415 . S
C479 C478 1.355 . S
C479 C481 1.419 . S
C480 C478 1.415 . S
C480 C485 1.425 . S
C480 C487 1.409 . S
C481 H473 0.930 . S
C481 C479 1.419 . S
C481 C482 1.362 . S
C482 H474 0.930 . S
C482 C481 1.362 . S
C482 C485 1.409 . S
C483 H475 0.930 . S
C483 C484 1.355 . S
C483 C485 1.415 . S
C484 C483 1.355 . S
C484 C486 1.419 . S
C485 C480 1.425 . S
C485 C482 1.409 . S
C485 C483 1.415 . S
C486 H476 0.930 . S
C486 C484 1.419 . S
C486 C487 1.362 . S
C487 H477 0.930 . S
C487 C480 1.409 . S
C487 C486 1.362 . S
H488 C494 0.930 . S
H489 C497 0.930 . S
H490 C498 0.930 . S
H491 C499 0.930 . S
H492 C502 0.930 . S
H493 C503 0.930 . S
C494 H488 0.930 . S
C494 C495 1.355 . S
C494 C496 1.415 . S
C495 C494 1.355 . S
C495 C497 1.419 . S
C496 C494 1.415 . S
C496 C501 1.425 . S
C496 C503 1.409 . S
C497 H489 0.930 . S
C497 C495 1.419 . S
C497 C498 1.362 . S
C498 H490 0.930 . S
C498 C497 1.362 . S
C498 C501 1.409 . S
C499 H491 0.930 . S
C499 C500 1.355 . S
C499 C501 1.415 . S
C500 C499 1.355 . S
C500 C502 1.419 . S
C501 C496 1.425 . S
C501 C498 1.409 . S
C501 C499 1.415 . S
C502 H492 0.930 . S
C502 C500 1.419 . S
C502 C503 1.362 . S
C503 H493 0.930 . S
C503 C496 1.409 . S
C503 C502 1.362 . S
H504 C510 0.930 . S
H505 C513 0.930 . S
H506 C514 0.930 . S
H507 C515 0.930 . S
H508 C518 0.930 . S
H509 C519 0.930 . S
C510 H504 0.930 . S
C510 C511 1.355 . S
C510 C512 1.415 . S
C511 C510 1.355 . S
C511 C513 1.419 . S
C512 C510 1.415 . S
C512 C517 1.425 . S
C512 C519 1.409 . S
C513 H505 0.930 . S
C513 C511 1.419 . S
C513 C514 1.362 . S
C514 H506 0.930 . S
C514 C513 1.362 . S
C514 C517 1.409 . S
C515 H507 0.930 . S
C515 C516 1.355 . S
C515 C517 1.415 . S
C516 C515 1.355 . S
C516 C518 1.419 . S
C517 C512 1.425 . S
C517 C514 1.409 . S
C517 C515 1.415 . S
C518 H508 0.930 . S
C518 C516 1.419 . S
C518 C519 1.362 . S
C519 H509 0.930 . S
C519 C512 1.409 . S
C519 C518 1.362 . S
H520 C526 0.930 . S
H521 C529 0.930 . S
H522 C530 0.930 . S
H523 C531 0.930 . S
H524 C534 0.930 . S
H525 C535 0.930 . S
C526 H520 0.930 . S
C526 C527 1.355 . S
C526 C528 1.415 . S
C527 C526 1.355 . S
C527 C529 1.419 . S
C528 C526 1.415 . S
C528 C533 1.425 . S
C528 C535 1.409 . S
C529 H521 0.930 . S
C529 C527 1.419 . S
C529 C530 1.362 . S
C530 H522 0.930 . S
C530 C529 1.362 . S
C530 C533 1.409 . S
C531 H523 0.930 . S
C531 C532 1.355 . S
C531 C533 1.415 . S
C532 C531 1.355 . S
C532 C534 1.419 . S
C533 C528 1.425 . S
C533 C530 1.409 . S
C533 C531 1.415 . S
C534 H524 0.930 . S
C534 C532 1.419 . S
C534 C535 1.362 . S
C535 H525 0.930 . S
C535 C528 1.409 . S
C535 C534 1.362 . S
H536 C542 0.930 . S
H537 C545 0.930 . S
H538 C546 0.930 . S
H539 C547 0.930 . S
H540 C550 0.930 . S
H541 C551 0.930 . S
C542 H536 0.930 . S
C542 C543 1.355 . S
C542 C544 1.415 . S
C543 C542 1.355 . S
C543 C545 1.419 . S
C544 C542 1.415 . S
C544 C549 1.425 . S
C544 C551 1.409 . S
C545 H537 0.930 . S
C545 C543 1.419 . S
C545 C546 1.362 . S
C546 H538 0.930 . S
C546 C545 1.362 . S
C546 C549 1.409 . S
C547 H539 0.930 . S
C547 C548 1.355 . S
C547 C549 1.415 . S
C548 C547 1.355 . S
C548 C550 1.419 . S
C549 C544 1.425 . S
C549 C546 1.409 . S
C549 C547 1.415 . S
C550 H540 0.930 . S
C550 C548 1.419 . S
C550 C551 1.362 . S
C551 H541 0.930 . S
C551 C544 1.409 . S
C551 C550 1.362 . S
H552 C558 0.930 . S
H553 C561 0.930 . S
H554 C562 0.930 . S
H555 C563 0.930 . S
H556 C566 0.930 . S
H557 C567 0.930 . S
C558 H552 0.930 . S
C558 C559 1.355 . S
C558 C560 1.415 . S
C559 C558 1.355 . S
C559 C561 1.419 . S
C560 C558 1.415 . S
C560 C565 1.425 . S
C560 C567 1.409 . S
C561 H553 0.930 . S
C561 C559 1.419 . S
C561 C562 1.362 . S
C562 H554 0.930 . S
C562 C561 1.362 . S
C562 C565 1.409 . S
C563 H555 0.930 . S
C563 C564 1.355 . S
C563 C565 1.415 . S
C564 C563 1.355 . S
C564 C566 1.419 . S
C565 C560 1.425 . S
C565 C562 1.409 . S
C565 C563 1.415 . S
C566 H556 0.930 . S
C566 C564 1.419 . S
C566 C567 1.362 . S
C567 H557 0.930 . S
C567 C560 1.409 . S
C567 C566 1.362 . S
H568 C574 0.930 . S
H569 C577 0.930 . S
H570 C578 0.930 . S
H571 C579 0.930 . S
H572 C582 0.930 . S
H573 C583 0.930 . S
C574 H568 0.930 . S
C574 C575 1.355 . S
C574 C576 1.415 . S
C575 C574 1.355 . S
C575 C577 1.419 . S
C576 C574 1.415 . S
C576 C581 1.425 . S
C576 C583 1.409 . S
C577 H569 0.930 . S
C577 C575 1.419 . S
C577 C578 1.362 . S
C578 H570 0.930 . S
C578 C577 1.362 . S
C578 C581 1.409 . S
C579 H571 0.930 . S
C579 C580 1.355 . S
C579 C581 1.415 . S
C580 C579 1.355 . S
C580 C582 1.419 . S
C581 C576 1.425 . S
C581 C578 1.409 . S
C581 C579 1.415 . S
C582 H572 0.930 . S
C582 C580 1.419 . S
C582 C583 1.362 . S
C583 H573 0.930 . S
C583 C576 1.409 . S
C583 C582 1.362 . S
H584 C590 0.930 . S
H585 C593 0.930 . S
H586 C594 0.930 . S
H587 C595 0.930 . S
H588 C598 0.930 . S
H589 C599 0.930 . S
C590 H584 0.930 . S
C590 C591 1.355 . S
C590 C592 1.415 . S
C591 C590 1.355 . S
C591 C593 1.419 . S
C592 C590 1.415 . S
C592 C597 1.425 . S
C592 C599 1.409 . S
C593 H585 0.930 . S
C593 C591 1.419 . S
C593 C594 1.362 . S
C594 H586 0.930 . S
C594 C593 1.362 . S
C594 C597 1.409 . S
C595 H587 0.930 . S
C595 C596 1.355 . S
C595 C597 1.415 . S
C596 C595 1.355 . S
C596 C598 1.419 . S
C597 C592 1.425 . S
C597 C594 1.409 . S
C597 C595 1.415 . S
C598 H588 0.930 . S
C598 C596 1.419 . S
C598 C599 1.362 . S
C599 H589 0.930 . S
C599 C592 1.409 . S
C599 C598 1.362 . S
H600 C606 0.930 . S
H601 C609 0.930 . S
H602 C610 0.930 1_554 S
H603 C611 0.930 . S
H604 C614 0.930 . S
H605 C615 0.930 . S
C606 H600 0.930 . S
C606 C607 1.355 . S
C606 C608 1.415 . S
C607 C606 1.355 . S
C607 C609 1.419 . S
C608 C606 1.415 . S
C608 C613 1.425 . S
C608 C615 1.409 . S
C609 H601 0.930 . S
C609 C607 1.419 . S
C609 C610 1.362 . S
C610 H602 0.930 1_556 S
C610 C609 1.362 . S
C610 C613 1.409 . S
C611 H603 0.930 . S
C611 C612 1.355 . S
C611 C613 1.415 1_554 S
C612 C611 1.355 . S
C612 C614 1.419 1_554 S
C613 C608 1.425 . S
C613 C610 1.409 . S
C613 C611 1.415 1_556 S
C614 H604 0.930 . S
C614 C612 1.419 1_556 S
C614 C615 1.362 . S
C615 H605 0.930 . S
C615 C608 1.409 . S
C615 C614 1.362 . S
H616 C622 0.930 . S
H617 C625 0.930 . S
H618 C626 0.930 . S
H619 C627 0.930 . S
H620 C630 0.930 . S
H621 C631 0.930 . S
C622 H616 0.930 . S
C622 C623 1.355 . S
C622 C624 1.415 . S
C623 C622 1.355 . S
C623 C625 1.419 . S
C624 C622 1.415 . S
C624 C629 1.425 . S
C624 C631 1.409 . S
C625 H617 0.930 . S
C625 C623 1.419 . S
C625 C626 1.362 . S
C626 H618 0.930 . S
C626 C625 1.362 . S
C626 C629 1.409 . S
C627 H619 0.930 . S
C627 C628 1.355 . S
C627 C629 1.415 . S
C628 C627 1.355 . S
C628 C630 1.419 . S
C629 C624 1.425 . S
C629 C626 1.409 . S
C629 C627 1.415 . S
C630 H620 0.930 . S
C630 C628 1.419 . S
C630 C631 1.362 . S
C631 H621 0.930 . S
C631 C624 1.409 . S
C631 C630 1.362 . S
H632 C638 0.930 . S
H633 C641 0.930 . S
H634 C642 0.930 . S
H635 C643 0.930 . S
H636 C646 0.930 . S
H637 C647 0.930 . S
C638 H632 0.930 . S
C638 C639 1.355 . S
C638 C640 1.415 . S
C639 C638 1.355 . S
C639 C641 1.419 . S
C640 C638 1.415 . S
C640 C645 1.425 . S
C640 C647 1.409 . S
C641 H633 0.930 . S
C641 C639 1.419 . S
C641 C642 1.362 . S
C642 H634 0.930 . S
C642 C641 1.362 . S
C642 C645 1.409 . S
C643 H635 0.930 . S
C643 C644 1.355 . S
C643 C645 1.415 . S
C644 C643 1.355 . S
C644 C646 1.419 . S
C645 C640 1.425 . S
C645 C642 1.409 . S
C645 C643 1.415 . S
C646 H636 0.930 . S
C646 C644 1.419 . S
C646 C647 1.362 . S
C647 H637 0.930 . S
C647 C640 1.409 . S
C647 C646 1.362 . S
H648 C654 0.930 . S
H649 C657 0.930 . S
H650 C658 0.930 . S
H651 C659 0.930 . S
H652 C662 0.930 . S
H653 C663 0.930 . S
C654 H648 0.930 . S
C654 C655 1.355 . S
C654 C656 1.415 . S
C655 C654 1.355 . S
C655 C657 1.419 . S
C656 C654 1.415 . S
C656 C661 1.425 . S
C656 C663 1.409 . S
C657 H649 0.930 . S
C657 C655 1.419 . S
C657 C658 1.362 . S
C658 H650 0.930 . S
C658 C657 1.362 . S
C658 C661 1.409 . S
C659 H651 0.930 . S
C659 C660 1.355 . S
C659 C661 1.415 . S
C660 C659 1.355 . S
C660 C662 1.419 . S
C661 C656 1.425 . S
C661 C658 1.409 . S
C661 C659 1.415 . S
C662 H652 0.930 . S
C662 C660 1.419 . S
C662 C663 1.362 . S
C663 H653 0.930 . S
C663 C656 1.409 . S
C663 C662 1.362 . S
H664 C670 0.930 . S
H665 C673 0.930 . S
H666 C674 0.930 . S
H667 C675 0.930 . S
H668 C678 0.930 . S
H669 C679 0.930 . S
C670 H664 0.930 . S
C670 C671 1.355 . S
C670 C672 1.415 . S
C671 C670 1.355 . S
C671 C673 1.419 . S
C672 C670 1.415 . S
C672 C677 1.425 . S
C672 C679 1.409 . S
C673 H665 0.930 . S
C673 C671 1.419 . S
C673 C674 1.362 . S
C674 H666 0.930 . S
C674 C673 1.362 . S
C674 C677 1.409 . S
C675 H667 0.930 . S
C675 C676 1.355 . S
C675 C677 1.415 . S
C676 C675 1.355 . S
C676 C678 1.419 . S
C677 C672 1.425 . S
C677 C674 1.409 . S
C677 C675 1.415 . S
C678 H668 0.930 . S
C678 C676 1.419 . S
C678 C679 1.362 . S
C679 H669 0.930 . S
C679 C672 1.409 . S
C679 C678 1.362 . S
H680 C686 0.930 . S
H681 C689 0.930 . S
H682 C690 0.930 . S
H683 C691 0.930 . S
H684 C694 0.930 . S
H685 C695 0.930 . S
C686 H680 0.930 . S
C686 C687 1.355 . S
C686 C688 1.415 . S
C687 C686 1.355 . S
C687 C689 1.419 . S
C688 C686 1.415 . S
C688 C693 1.425 . S
C688 C695 1.409 . S
C689 H681 0.930 . S
C689 C687 1.419 . S
C689 C690 1.362 . S
C690 H682 0.930 . S
C690 C689 1.362 . S
C690 C693 1.409 . S
C691 H683 0.930 . S
C691 C692 1.355 . S
C691 C693 1.415 . S
C692 C691 1.355 . S
C692 C694 1.419 . S
C693 C688 1.425 . S
C693 C690 1.409 . S
C693 C691 1.415 . S
C694 H684 0.930 . S
C694 C692 1.419 . S
C694 C695 1.362 . S
C695 H685 0.930 . S
C695 C688 1.409 . S
C695 C694 1.362 . S
H696 C702 0.930 . S
H697 C705 0.930 . S
H698 C706 0.930 . S
H699 C707 0.930 . S
H700 C710 0.930 . S
H701 C711 0.930 . S
C702 H696 0.930 . S
C702 C703 1.355 . S
C702 C704 1.415 . S
C703 C702 1.355 . S
C703 C705 1.419 . S
C704 C702 1.415 . S
C704 C709 1.425 . S
C704 C711 1.409 . S
C705 H697 0.930 . S
C705 C703 1.419 . S
C705 C706 1.362 . S
C706 H698 0.930 . S
C706 C705 1.362 . S
C706 C709 1.409 . S
C707 H699 0.930 . S
C707 C708 1.355 . S
C707 C709 1.415 . S
C708 C707 1.355 . S
C708 C710 1.419 . S
C709 C704 1.425 . S
C709 C706 1.409 . S
C709 C707 1.415 . S
C710 H700 0.930 . S
C710 C708 1.419 . S
C710 C711 1.362 . S
C711 H701 0.930 . S
C711 C704 1.409 . S
C711 C710 1.362 . S
H712 C718 0.930 . S
H713 C721 0.930 . S
H714 C722 0.930 . S
H715 C723 0.930 . S
H716 C726 0.930 . S
H717 C727 0.930 . S
C718 H712 0.930 . S
C718 C719 1.355 . S
C718 C720 1.415 . S
C719 C718 1.355 . S
C719 C721 1.419 . S
C720 C718 1.415 . S
C720 C725 1.425 . S
C720 C727 1.409 1_554 S
C721 H713 0.930 . S
C721 C719 1.419 . S
C721 C722 1.362 . S
C722 H714 0.930 . S
C722 C721 1.362 . S
C722 C725 1.409 . S
C723 H715 0.930 . S
C723 C724 1.355 . S
C723 C725 1.415 1_556 S
C724 C723 1.355 . S
C724 C726 1.419 . S
C725 C720 1.425 . S
C725 C722 1.409 . S
C725 C723 1.415 1_554 S
C726 H716 0.930 . S
C726 C724 1.419 . S
C726 C727 1.362 . S
C727 H717 0.930 . S
C727 C720 1.409 1_556 S
C727 C726 1.362 . S
H728 C734 0.930 . S
H729 C737 0.930 . S
H730 C738 0.930 . S
H731 C739 0.930 . S
H732 C742 0.930 . S
H733 C743 0.930 . S
C734 H728 0.930 . S
C734 C735 1.355 . S
C734 C736 1.415 . S
C735 C734 1.355 . S
C735 C737 1.419 . S
C736 C734 1.415 . S
C736 C741 1.425 . S
C736 C743 1.409 . S
C737 H729 0.930 . S
C737 C735 1.419 . S
C737 C738 1.362 . S
C738 H730 0.930 . S
C738 C737 1.362 . S
C738 C741 1.409 . S
C739 H731 0.930 . S
C739 C740 1.355 . S
C739 C741 1.415 . S
C740 C739 1.355 . S
C740 C742 1.419 . S
C741 C736 1.425 . S
C741 C738 1.409 . S
C741 C739 1.415 . S
C742 H732 0.930 . S
C742 C740 1.419 . S
C742 C743 1.362 . S
C743 H733 0.930 . S
C743 C736 1.409 . S
C743 C742 1.362 . S
C372 C353 1.595 . S
C367 C15 1.547 . S
C383 C61 1.478 . S
C388 C282 1.447 . S
C399 C114 1.596 . S
C404 C296 1.575 . S
C415 C139 1.459 . S
C420 C310 1.447 . S
C436 C324 1.583 . S
C431 C185 1.612 . S
C447 C245 1.452 . S
C452 C339 1.446 . S
C463 C47 1.458 . S
C468 C297 1.412 . S
C479 C100 1.566 . S
C484 C311 1.589 . S
C495 C153 1.477 . S
C500 C325 1.439 . S
C516 C338 1.589 . S
C511 C199 1.606 . S
C532 C352 1.447 . S
C527 C231 1.459 . S
C548 C283 1.588 . S
C543 C1 1.614 . S
C559 C22 1.486 . S
C564 C299 1.467 . S
C575 C68 1.671 . S
C580 C313 1.674 . S
C596 C327 1.440 . S
C591 C107 1.475 . S
C607 C146 1.683 . S
C612 C340 1.638 . S
C628 C354 1.439 . S
C623 C192 1.482 . S
C644 C285 1.650 . S
C639 C252 1.652 . S
C660 C355 1.631 . S
C655 C54 1.668 . S
C671 C93 1.470 . S
C676 C284 1.477 . S
C692 C298 1.691 . S
C687 C160 1.693 . S
C703 C206 1.473 . S
C708 C312 1.439 . S
C719 C238 1.704 . S
C724 C326 1.691 . S
C735 C8 1.473 . S
C740 C341 1.482 . S
