# Generated by pormake.
# Topology dag, (6,3)-cn, num edge types: 1
# Building blocks:
#     Node 0, Type 0, BuildingBlock: IZENUY_clean_sbu_0, # of connection points: 6
#     Node 1, Type 0, BuildingBlock: IZENUY_clean_sbu_0, # of connection points: 6
#     Node 2, Type 0, BuildingBlock: IZENUY_clean_sbu_0, # of connection points: 6
#     Node 3, Type 0, BuildingBlock: IZENUY_clean_sbu_0, # of connection points: 6
#     Node 4, Type 1, BuildingBlock: BETDAH_clean_linker_0, # of connection points: 3
#     Node 5, Type 1, BuildingBlock: BETDAH_clean_linker_0, # of connection points: 3
#     Node 6, Type 1, BuildingBlock: BETDAH_clean_linker_0, # of connection points: 3
#     Node 7, Type 1, BuildingBlock: BETDAH_clean_linker_0, # of connection points: 3
#     Node 8, Type 1, BuildingBlock: BETDAH_clean_linker_0, # of connection points: 3
#     Node 9, Type 1, BuildingBlock: BETDAH_clean_linker_0, # of connection points: 3
#     Node 10, Type 1, BuildingBlock: BETDAH_clean_linker_0, # of connection points: 3
#     Node 11, Type 1, BuildingBlock: BETDAH_clean_linker_0, # of connection points: 3
#     Edge 12, Type (0, 1), BuildingBlock: UVAHIK_clean_linker_0, # of connection points: 2
#     Edge 13, Type (0, 1), BuildingBlock: UVAHIK_clean_linker_0, # of connection points: 2
#     Edge 14, Type (0, 1), BuildingBlock: UVAHIK_clean_linker_0, # of connection points: 2
#     Edge 15, Type (0, 1), BuildingBlock: UVAHIK_clean_linker_0, # of connection points: 2
#     Edge 16, Type (0, 1), BuildingBlock: UVAHIK_clean_linker_0, # of connection points: 2
#     Edge 17, Type (0, 1), BuildingBlock: UVAHIK_clean_linker_0, # of connection points: 2
#     Edge 18, Type (0, 1), BuildingBlock: UVAHIK_clean_linker_0, # of connection points: 2
#     Edge 19, Type (0, 1), BuildingBlock: UVAHIK_clean_linker_0, # of connection points: 2
#     Edge 20, Type (0, 1), BuildingBlock: UVAHIK_clean_linker_0, # of connection points: 2
#     Edge 21, Type (0, 1), BuildingBlock: UVAHIK_clean_linker_0, # of connection points: 2
#     Edge 22, Type (0, 1), BuildingBlock: UVAHIK_clean_linker_0, # of connection points: 2
#     Edge 23, Type (0, 1), BuildingBlock: UVAHIK_clean_linker_0, # of connection points: 2
#     Edge 24, Type (0, 1), BuildingBlock: UVAHIK_clean_linker_0, # of connection points: 2
#     Edge 25, Type (0, 1), BuildingBlock: UVAHIK_clean_linker_0, # of connection points: 2
#     Edge 26, Type (0, 1), BuildingBlock: UVAHIK_clean_linker_0, # of connection points: 2
#     Edge 27, Type (0, 1), BuildingBlock: UVAHIK_clean_linker_0, # of connection points: 2
#     Edge 28, Type (0, 1), BuildingBlock: UVAHIK_clean_linker_0, # of connection points: 2
#     Edge 29, Type (0, 1), BuildingBlock: UVAHIK_clean_linker_0, # of connection points: 2
#     Edge 30, Type (0, 1), BuildingBlock: UVAHIK_clean_linker_0, # of connection points: 2
#     Edge 31, Type (0, 1), BuildingBlock: UVAHIK_clean_linker_0, # of connection points: 2
#     Edge 32, Type (0, 1), BuildingBlock: UVAHIK_clean_linker_0, # of connection points: 2
#     Edge 33, Type (0, 1), BuildingBlock: UVAHIK_clean_linker_0, # of connection points: 2
#     Edge 34, Type (0, 1), BuildingBlock: UVAHIK_clean_linker_0, # of connection points: 2
#     Edge 35, Type (0, 1), BuildingBlock: UVAHIK_clean_linker_0, # of connection points: 2
# Relax obj value: 0.095
# Max RMSD: 0.099
# Mean RMSD: 0.084
data_MOF--net-dag--node1-IZENUY_clean_sbu_0--node2-BETDAH_clean_linker_0--edge1-UVAHIK_clean_linker_0
_symmetry_space_group_name_H-M    P1
_symmetry_Int_Tables_number       1
_symmetry_cell_setting            triclinic
loop_
_symmetry_equiv_pos_as_xyz
'x, y, z'
_cell_length_a     49.642318
_cell_length_b     52.800513
_cell_length_c     45.601906
_cell_angle_alpha  93.815804
_cell_angle_beta   89.797407
_cell_angle_gamma 89.979286
loop_
_atom_site_label
_atom_site_type_symbol
_atom_site_fract_x
_atom_site_fract_y
_atom_site_fract_z
_atom_type_partial_charge
Fe0 Fe 0.18767 0.85988 0.08952 0.0
Fe1 Fe 0.13073 0.8756 0.07237 0.0
O2 O 0.15479 0.85157 0.07701 0.0
Fe3 Fe 0.14595 0.81927 0.06925 0.0
O4 O 0.15307 0.81206 0.10666 0.0
O5 O 0.19236 0.8312 0.10973 0.0
O6 O 0.17474 0.87533 0.12356 0.0
C7 C 0.15743 0.89287 0.1247 0.0
C8 C 0.19913 0.82238 0.04689 0.0
O9 O 0.14339 0.89701 0.10241 0.0
C10 C 0.12176 0.84099 0.02346 0.0
O11 O 0.1889 0.89011 0.07157 0.0
O12 O 0.15175 0.88989 0.04554 0.0
O13 O 0.17982 0.8095 0.05645 0.0
O14 O 0.20276 0.84511 0.05637 0.0
C15 C 0.09905 0.84038 0.09703 0.0
O16 O 0.11375 0.85872 0.04138 0.0
O17 O 0.138 0.82437 0.03124 0.0
C18 C 0.17545 0.89762 0.05022 0.0
O19 O 0.10811 0.86274 0.0989 0.0
O20 O 0.11049 0.82326 0.08061 0.0
C21 C 0.17511 0.8163 0.11972 0.0
Fe22 Fe 0.6581 0.66282 0.48617 0.0
Fe23 Fe 0.61403 0.70312 0.49873 0.0
O24 O 0.62418 0.67084 0.49462 0.0
Fe25 Fe 0.60038 0.64646 0.49875 0.0
O26 O 0.61902 0.63432 0.52901 0.0
O27 O 0.65816 0.63395 0.50641 0.0
O28 O 0.66972 0.67974 0.51947 0.0
C29 C 0.66525 0.70288 0.52641 0.0
C30 C 0.6321 0.62713 0.45069 0.0
O31 O 0.64631 0.71459 0.51448 0.0
C32 C 0.57065 0.67883 0.46772 0.0
O33 O 0.66424 0.69021 0.46452 0.0
O34 O 0.62473 0.70854 0.46147 0.0
O35 O 0.61628 0.62373 0.47189 0.0
O36 O 0.64869 0.64525 0.45213 0.0
C37 C 0.58526 0.68387 0.54333 0.0
O38 O 0.57985 0.69733 0.48383 0.0
O39 O 0.58051 0.65692 0.46874 0.0
C40 C 0.64809 0.70407 0.45138 0.0
O41 O 0.60259 0.69986 0.53625 0.0
O42 O 0.57985 0.66471 0.52621 0.0
C43 C 0.6432 0.62703 0.52695 0.0
Fe44 Fe 0.85901 0.17534 0.98381 0.0
Fe45 Fe 0.87127 0.1183 0.97485 0.0
O46 O 0.84811 0.14372 0.97521 0.0
Fe47 Fe 0.81371 0.13728 0.96695 0.0
O48 O 0.81543 0.15612 0.93532 0.0
O49 O 0.83552 0.1891 0.95805 0.0
O50 O 0.88368 0.17405 0.9542 0.0
C51 C 0.90136 0.15707 0.94982 0.0
C52 C 0.81038 0.17639 0.01233 0.0
O53 O 0.89987 0.13632 0.96201 0.0
C54 C 0.82527 0.0993 0.00254 0.0
O55 O 0.88434 0.16684 0.01085 0.0
O56 O 0.87996 0.12549 0.01291 0.0
O57 O 0.80024 0.16409 0.9903 0.0
O58 O 0.83549 0.17926 0.01429 0.0
C59 C 0.84136 0.10268 0.92723 0.0
O60 O 0.8468 0.09562 0.98788 0.0
O61 O 0.8103 0.11805 0.99836 0.0
C62 C 0.88788 0.14668 0.02399 0.0
O63 O 0.86426 0.10936 0.93662 0.0
O64 O 0.82041 0.10913 0.94182 0.0
C65 C 0.8231 0.17895 0.93595 0.0
Fe66 Fe 0.39719 0.355 0.54515 0.0
Fe67 Fe 0.3415 0.33883 0.56603 0.0
O68 O 0.37456 0.33085 0.55401 0.0
Fe69 Fe 0.38513 0.29866 0.55099 0.0
O70 O 0.41168 0.3049 0.57778 0.0
O71 O 0.42724 0.33853 0.55741 0.0
O72 O 0.39513 0.37006 0.58188 0.0
C73 C 0.37365 0.37749 0.59448 0.0
C74 C 0.40935 0.31937 0.50125 0.0
O75 O 0.35099 0.36931 0.58526 0.0
C76 C 0.33443 0.29453 0.52811 0.0
O77 O 0.37125 0.37595 0.53142 0.0
O78 O 0.33383 0.35384 0.53251 0.0
O79 O 0.40841 0.30255 0.51986 0.0
O80 O 0.40071 0.34147 0.50788 0.0
C81 C 0.35327 0.30185 0.60292 0.0
O82 O 0.32614 0.30976 0.54891 0.0
O83 O 0.35928 0.2906 0.52408 0.0
C84 C 0.34731 0.37174 0.52291 0.0
O85 O 0.34684 0.32465 0.60043 0.0
O86 O 0.36382 0.2888 0.58151 0.0
C87 C 0.42974 0.32147 0.57548 0.0
H88 H 0.07693 0.09998 0.25872 0.0
H89 H 0.14213 0.13643 0.30644 0.0
H90 H 0.08277 0.1816 0.26567 0.0
C91 C 0.0868 0.11731 0.26697 0.0
C92 C 0.07659 0.14098 0.25994 0.0
C93 C 0.11059 0.11556 0.28324 0.0
C94 C 0.12357 0.1378 0.29423 0.0
C95 C 0.11285 0.16168 0.28859 0.0
C96 C 0.08985 0.16307 0.27108 0.0
N97 N 0.12519 0.18475 0.29903 0.0
C98 C 0.14433 0.18682 0.32119 0.0
H99 H 0.43015 0.61391 0.7509 0.0
H100 H 0.40719 0.67438 0.81394 0.0
H101 H 0.37071 0.60062 0.81684 0.0
C102 C 0.41849 0.62054 0.77005 0.0
C103 C 0.40003 0.60414 0.78231 0.0
C104 C 0.42131 0.64579 0.78136 0.0
C105 C 0.40515 0.6549 0.80522 0.0
C106 C 0.38702 0.63834 0.81818 0.0
C107 C 0.3847 0.61317 0.80668 0.0
N108 N 0.37105 0.64581 0.84312 0.0
C109 C 0.36602 0.67056 0.85399 0.0
H110 H 0.83959 0.8805 0.15939 0.0
H111 H 0.80593 0.80852 0.17925 0.0
H112 H 0.75532 0.86558 0.14518 0.0
C113 C 0.82235 0.86804 0.16064 0.0
C114 C 0.79703 0.87631 0.15146 0.0
C115 C 0.82601 0.84353 0.1702 0.0
C116 C 0.80351 0.82752 0.17202 0.0
C117 C 0.77795 0.83579 0.16343 0.0
C118 C 0.77495 0.85985 0.1527 0.0
N119 N 0.75518 0.81974 0.16395 0.0
C120 C 0.74779 0.80773 0.18888 0.0
H121 H 0.66747 0.39229 0.66324 0.0
H122 H 0.71628 0.32879 0.68362 0.0
H123 H 0.75398 0.39854 0.66198 0.0
C124 C 0.68727 0.38437 0.66674 0.0
C125 C 0.71039 0.39884 0.662 0.0
C126 C 0.6893 0.3592 0.67447 0.0
C127 C 0.71475 0.34834 0.67796 0.0
C128 C 0.73813 0.36272 0.67357 0.0
C129 C 0.73582 0.38769 0.66523 0.0
N130 N 0.76425 0.35257 0.67719 0.0
C131 C 0.76955 0.33425 0.69682 0.0
H132 H 0.59901 0.38712 0.31361 0.0
H133 H 0.6348 0.40208 0.23065 0.0
H134 H 0.59925 0.32924 0.24234 0.0
C135 C 0.60502 0.38051 0.29154 0.0
C136 C 0.59763 0.35602 0.2804 0.0
C137 C 0.61854 0.39724 0.27391 0.0
C138 C 0.62464 0.3893 0.24469 0.0
C139 C 0.61836 0.36468 0.23353 0.0
C140 C 0.60483 0.34801 0.25135 0.0
N141 N 0.62443 0.35773 0.20372 0.0
C142 C 0.6372 0.33516 0.19455 0.0
H143 H 0.1644 0.11817 0.89923 0.0
H144 H 0.19381 0.18968 0.87233 0.0
H145 H 0.24851 0.1366 0.90788 0.0
C146 C 0.18108 0.13091 0.89584 0.0
C147 C 0.20711 0.12411 0.90433 0.0
C148 C 0.176 0.15449 0.88444 0.0
C149 C 0.19748 0.17138 0.881 0.0
C150 C 0.22365 0.16475 0.88943 0.0
C151 C 0.22824 0.14144 0.90151 0.0
N152 N 0.24564 0.18147 0.88665 0.0
C153 C 0.25087 0.19315 0.86087 0.0
H154 H 0.31626 0.60455 0.41276 0.0
H155 H 0.27743 0.67082 0.38272 0.0
H156 H 0.22988 0.60788 0.40917 0.0
C157 C 0.298 0.6147 0.40777 0.0
C158 C 0.27293 0.60343 0.4122 0.0
C159 C 0.29977 0.63891 0.39701 0.0
C160 C 0.27608 0.65202 0.39075 0.0
C161 C 0.25075 0.64071 0.39499 0.0
C162 C 0.24936 0.61652 0.40583 0.0
N163 N 0.22632 0.65315 0.38878 0.0
C164 C 0.22433 0.67153 0.36851 0.0
H165 H 0.92579 0.88476 0.80691 0.0
H166 H 0.92829 0.80604 0.77625 0.0
H167 H 0.8639 0.85377 0.74939 0.0
C168 C 0.91766 0.86892 0.7934 0.0
C169 C 0.89383 0.87229 0.77758 0.0
C170 C 0.93035 0.84516 0.79321 0.0
C171 C 0.91876 0.82453 0.7769 0.0
C172 C 0.89499 0.82742 0.76103 0.0
C173 C 0.8824 0.85138 0.76141 0.0
N174 N 0.88432 0.80556 0.74546 0.0
C175 C 0.86323 0.80542 0.72554 0.0
C176 C 0.13335 0.92791 0.15316 0.0
C177 C 0.15489 0.91061 0.15116 0.0
C178 C 0.13119 0.94578 0.1769 0.0
C179 C 0.17148 0.98164 0.23225 0.0
H180 H 0.10042 0.00362 0.25856 0.0
C181 C 0.10904 0.07064 0.29705 0.0
C182 C 0.1232 0.09036 0.28479 0.0
C183 C 0.11715 0.04543 0.29128 0.0
C184 C 0.12058 0.99758 0.25228 0.0
H185 H 0.19074 0.89809 0.17311 0.0
H186 H 0.1869 0.92963 0.21496 0.0
H187 H 0.1054 0.96429 0.22879 0.0
H188 H 0.1578 0.09966 0.25869 0.0
H189 H 0.17142 0.05585 0.24751 0.0
H190 H 0.18665 0.0151 0.25568 0.0
C191 C 0.1718 0.92931 0.19786 0.0
C192 C 0.12335 0.97508 0.23472 0.0
C193 C 0.17393 0.91121 0.17398 0.0
C194 C 0.14677 0.08472 0.26864 0.0
C195 C 0.15457 0.0595 0.26231 0.0
C196 C 0.16876 0.00411 0.25017 0.0
C197 C 0.15044 0.94689 0.19946 0.0
C198 C 0.14863 0.96747 0.22331 0.0
C199 C 0.13908 0.03943 0.27236 0.0
C200 C 0.1431 0.01297 0.25933 0.0
H201 H 0.11823 0.92796 0.1361 0.0
H202 H 0.11476 0.9593 0.17704 0.0
H203 H 0.19128 0.97627 0.22394 0.0
H204 H 0.09079 0.07463 0.3096 0.0
H205 H 0.10519 0.0306 0.30018 0.0
C206 C 0.54533 0.67451 0.57427 0.0
C207 C 0.56907 0.68848 0.57056 0.0
C208 C 0.52998 0.67819 0.59985 0.0
C209 C 0.53481 0.69753 0.67771 0.0
H210 H 0.45687 0.69482 0.67289 0.0
C211 C 0.43219 0.68362 0.75311 0.0
C212 C 0.44089 0.66216 0.76701 0.0
C213 C 0.44924 0.69516 0.73338 0.0
C214 C 0.47856 0.69619 0.67484 0.0
H215 H 0.59523 0.7174 0.59095 0.0
H216 H 0.56838 0.72356 0.63619 0.0
H217 H 0.48338 0.69932 0.62856 0.0
H218 H 0.47469 0.63723 0.77333 0.0
H219 H 0.5044 0.65725 0.7392 0.0
H220 H 0.52997 0.69346 0.72389 0.0
C221 C 0.56172 0.70986 0.61902 0.0
C222 C 0.49378 0.69846 0.64932 0.0
C223 C 0.57701 0.70638 0.59312 0.0
C224 C 0.46756 0.65379 0.76285 0.0
C225 C 0.48461 0.66537 0.74337 0.0
C226 C 0.51957 0.69515 0.70328 0.0
C227 C 0.538 0.6958 0.62259 0.0
C228 C 0.52207 0.69821 0.6503 0.0
C229 C 0.4753 0.6855 0.72743 0.0
C230 C 0.49128 0.69355 0.70197 0.0
H231 H 0.53854 0.6606 0.55738 0.0
H232 H 0.5121 0.66673 0.60211 0.0
H233 H 0.55658 0.69728 0.67917 0.0
H234 H 0.41165 0.69032 0.75588 0.0
H235 H 0.44158 0.71083 0.7217 0.0
C236 C 0.7911 0.07946 0.03508 0.0
C237 C 0.8173 0.0803 0.02332 0.0
C238 C 0.78417 0.06083 0.05432 0.0
C239 C 0.81518 0.01591 0.10319 0.0
H240 H 0.75387 0.97231 0.08457 0.0
C241 C 0.81478 0.91113 0.12211 0.0
C242 C 0.79419 0.90176 0.13965 0.0
C243 C 0.81329 0.93554 0.11247 0.0
C244 C 0.77071 0.98467 0.09039 0.0
H245 H 0.85687 0.06273 0.02309 0.0
H246 H 0.84485 0.03059 0.05615 0.0
H247 H 0.75927 0.01192 0.05984 0.0
H248 H 0.75527 0.9105 0.15975 0.0
H249 H 0.75231 0.95322 0.14168 0.0
H250 H 0.82761 0.9879 0.13215 0.0
C251 C 0.82965 0.04426 0.05082 0.0
C252 C 0.77379 0.0073 0.07634 0.0
C253 C 0.83646 0.06256 0.03156 0.0
C254 C 0.77143 0.9171 0.14621 0.0
C255 C 0.76975 0.94153 0.13606 0.0
C256 C 0.81223 0.99332 0.11695 0.0
C257 C 0.80348 0.04312 0.06241 0.0
C258 C 0.7967 0.02254 0.08172 0.0
C259 C 0.79096 0.95102 0.11962 0.0
C260 C 0.79056 0.97707 0.10982 0.0
H261 H 0.77592 0.09292 0.02915 0.0
H262 H 0.76383 0.06033 0.06294 0.0
H263 H 0.83274 0.02757 0.10821 0.0
H264 H 0.83217 0.89962 0.11579 0.0
H265 H 0.82963 0.94235 0.09928 0.0
C266 C 0.46135 0.29928 0.60856 0.0
C267 C 0.455 0.32035 0.59252 0.0
C268 C 0.48549 0.29869 0.62438 0.0
C269 C 0.53788 0.34119 0.65714 0.0
H270 H 0.58611 0.28355 0.64605 0.0
C271 C 0.64507 0.3516 0.69805 0.0
C272 C 0.66436 0.3443 0.67662 0.0
C273 C 0.61872 0.34248 0.69555 0.0
C274 C 0.57281 0.29974 0.64953 0.0
H275 H 0.46886 0.35737 0.58085 0.0
H276 H 0.51058 0.35627 0.60817 0.0
H277 H 0.54052 0.28081 0.62581 0.0
H278 H 0.67217 0.32066 0.63697 0.0
H279 H 0.62597 0.30524 0.63191 0.0
H280 H 0.57023 0.36083 0.67904 0.0
C281 C 0.49696 0.34029 0.60876 0.0
C282 C 0.54663 0.29807 0.63816 0.0
C283 C 0.4731 0.34081 0.59286 0.0
C284 C 0.65758 0.32627 0.65391 0.0
C285 C 0.63109 0.31744 0.65111 0.0
C286 C 0.56391 0.34288 0.66841 0.0
C287 C 0.50344 0.31929 0.62474 0.0
C288 C 0.52928 0.31913 0.64097 0.0
C289 C 0.61105 0.32642 0.67114 0.0
C290 C 0.58203 0.32248 0.66398 0.0
H291 H 0.4478 0.28322 0.60875 0.0
H292 H 0.49 0.28228 0.63654 0.0
H293 H 0.52479 0.35759 0.66005 0.0
H294 H 0.64999 0.36556 0.71572 0.0
H295 H 0.60399 0.3493 0.71178 0.0
C296 C 0.61057 0.59178 0.42033 0.0
C297 C 0.63285 0.60781 0.42566 0.0
C298 C 0.61155 0.57216 0.39832 0.0
C299 C 0.6588 0.52902 0.36004 0.0
H300 H 0.59673 0.51083 0.31168 0.0
C301 C 0.61927 0.4445 0.27011 0.0
C302 C 0.62526 0.42327 0.28596 0.0
C303 C 0.62351 0.46907 0.28267 0.0
C304 C 0.61441 0.51581 0.32465 0.0
H305 H 0.6734 0.61632 0.41148 0.0
H306 H 0.67525 0.58155 0.37307 0.0
H307 H 0.59721 0.55122 0.34098 0.0
H308 H 0.64158 0.41107 0.32672 0.0
H309 H 0.6489 0.4539 0.34867 0.0
H310 H 0.67563 0.49323 0.3444 0.0
C311 C 0.65703 0.58432 0.38602 0.0
C312 C 0.61458 0.53884 0.34161 0.0
C313 C 0.65592 0.60425 0.40788 0.0
C314 C 0.63655 0.42709 0.31411 0.0
C315 C 0.641 0.45161 0.32655 0.0
C316 C 0.65854 0.50588 0.34324 0.0
C317 C 0.63492 0.56793 0.38125 0.0
C318 C 0.63649 0.54541 0.36002 0.0
C319 C 0.63409 0.47288 0.31119 0.0
C320 C 0.63606 0.49877 0.3259 0.0
H321 H 0.59243 0.59414 0.43352 0.0
H322 H 0.5943 0.5597 0.39541 0.0
H323 H 0.67589 0.5335 0.37414 0.0
H324 H 0.61042 0.44212 0.24843 0.0
H325 H 0.61815 0.4851 0.27025 0.0
C326 C 0.93989 0.18489 0.93671 0.0
C327 C 0.92579 0.16189 0.93264 0.0
C328 C 0.96565 0.18731 0.92446 0.0
C329 C 0.02214 0.14545 0.89929 0.0
H330 H 0.05545 0.20783 0.87717 0.0
C331 C 0.13119 0.14407 0.8622 0.0
C332 C 0.14777 0.16147 0.87824 0.0
C333 C 0.10331 0.14734 0.86221 0.0
C334 C 0.04633 0.19029 0.88324 0.0
H335 H 0.92613 0.1243 0.91064 0.0
H336 H 0.97012 0.12889 0.88794 0.0
H337 H 0.00725 0.2073 0.88918 0.0
H338 H 0.14851 0.197 0.90481 0.0
H339 H 0.09951 0.20273 0.90497 0.0
H340 H 0.06095 0.12845 0.89371 0.0
C341 C 0.96215 0.1447 0.90163 0.0
C342 C 0.01877 0.18998 0.89023 0.0
C343 C 0.93682 0.14211 0.91439 0.0
C344 C 0.13615 0.18339 0.89216 0.0
C345 C 0.10812 0.18664 0.89226 0.0
C346 C 0.0494 0.14571 0.89206 0.0
C347 C 0.97746 0.16688 0.90756 0.0
C348 C 0.00635 0.16751 0.89845 0.0
C349 C 0.09138 0.16801 0.8784 0.0
C350 C 0.06189 0.16809 0.88404 0.0
H351 H 0.93178 0.20037 0.95085 0.0
H352 H 0.97681 0.20463 0.92962 0.0
H353 H 0.01369 0.12798 0.90643 0.0
H354 H 0.13971 0.12715 0.85102 0.0
H355 H 0.09096 0.13295 0.85082 0.0
C356 C 0.30579 0.39427 0.50754 0.0
C357 C 0.3338 0.39057 0.50545 0.0
C358 C 0.29362 0.41448 0.49431 0.0
C359 C 0.30229 0.46085 0.4385 0.0
H360 H 0.26445 0.50779 0.49332 0.0
C361 C 0.28384 0.57319 0.45008 0.0
C362 C 0.27181 0.5778 0.42317 0.0
C363 C 0.28551 0.54851 0.45914 0.0
C364 C 0.27466 0.4947 0.47771 0.0
H365 H 0.37075 0.40407 0.4864 0.0
H366 H 0.34938 0.43901 0.46274 0.0
H367 H 0.27868 0.46641 0.50898 0.0
H368 H 0.25164 0.56068 0.3848 0.0
H369 H 0.25523 0.51711 0.40034 0.0
H370 H 0.29892 0.48946 0.40749 0.0
C371 C 0.33691 0.42643 0.47482 0.0
C372 C 0.28266 0.47102 0.48658 0.0
C373 C 0.34915 0.40655 0.48849 0.0
C374 C 0.26083 0.55748 0.40574 0.0
C375 C 0.26299 0.53267 0.41453 0.0
C376 C 0.29388 0.48436 0.42947 0.0
C377 C 0.30917 0.43097 0.47825 0.0
C378 C 0.29718 0.45419 0.4673 0.0
C379 C 0.27564 0.52798 0.44115 0.0
C380 C 0.28065 0.50174 0.44926 0.0
H381 H 0.29345 0.3823 0.52055 0.0
H382 H 0.27217 0.41758 0.49716 0.0
H383 H 0.31341 0.44815 0.42325 0.0
H384 H 0.29248 0.58865 0.46377 0.0
H385 H 0.29561 0.54536 0.47961 0.0
C386 C 0.10563 0.86083 0.97909 0.0
C387 C 0.10949 0.83882 0.99411 0.0
C388 C 0.09069 0.85999 0.95324 0.0
C389 C 0.05634 0.81648 0.8969 0.0
H390 H 0.01033 0.87534 0.89122 0.0
C391 C 0.95865 0.82015 0.82681 0.0
C392 C 0.95506 0.8419 0.81099 0.0
C393 C 0.98065 0.81827 0.84564 0.0
C394 C 0.02327 0.8589 0.89229 0.0
H395 H 0.10181 0.79846 0.99361 0.0
H396 H 0.0744 0.79706 0.94904 0.0
H397 H 0.04289 0.87482 0.93062 0.0
H398 H 0.97284 0.87794 0.80116 0.0
H399 H 0.01068 0.87494 0.83469 0.0
H400 H 0.03526 0.80024 0.8591 0.0
C401 C 0.08355 0.8149 0.95663 0.0
C402 C 0.04213 0.85861 0.91481 0.0
C403 C 0.09917 0.81565 0.98222 0.0
C404 C 0.97459 0.86121 0.81354 0.0
C405 C 0.99636 0.85945 0.83258 0.0
C406 C 0.03706 0.81664 0.87454 0.0
C407 C 0.07849 0.83725 0.94227 0.0
C408 C 0.05903 0.83746 0.91744 0.0
C409 C 0.99931 0.8382 0.84922 0.0
C410 C 0.02042 0.83791 0.87204 0.0
H411 H 0.11374 0.87886 0.98773 0.0
H412 H 0.08809 0.87742 0.94232 0.0
H413 H 0.06913 0.79997 0.898 0.0
H414 H 0.9439 0.80503 0.82564 0.0
H415 H 0.98236 0.80178 0.85843 0.0
C416 C 0.81585 0.06927 0.89698 0.0
C417 C 0.83959 0.08337 0.90217 0.0
C418 C 0.81544 0.04869 0.87599 0.0
C419 C 0.85316 0.0172 0.81314 0.0
H420 H 0.82788 0.95499 0.84453 0.0
C421 C 0.8964 0.91956 0.77759 0.0
C422 C 0.8807 0.89762 0.77968 0.0
C423 C 0.88567 0.94351 0.78528 0.0
C424 C 0.83443 0.97218 0.83496 0.0
H425 H 0.88096 0.08796 0.88799 0.0
H426 H 0.88022 0.0522 0.85145 0.0
H427 H 0.8194 0.99542 0.87163 0.0
H428 H 0.84083 0.88366 0.78928 0.0
H429 H 0.82177 0.92571 0.80229 0.0
H430 H 0.86895 0.99386 0.7769 0.0
C431 C 0.86191 0.05699 0.86357 0.0
C432 C 0.8296 0.99542 0.85059 0.0
C433 C 0.8624 0.0774 0.88469 0.0
C434 C 0.85339 0.90026 0.78746 0.0
C435 C 0.84259 0.92431 0.7952 0.0
C436 C 0.85784 0.99396 0.79739 0.0
C437 C 0.83866 0.04198 0.85952 0.0
C438 C 0.8397 0.0181 0.84035 0.0
C439 C 0.85889 0.94615 0.79519 0.0
C440 C 0.84937 0.97107 0.80863 0.0
H441 H 0.79789 0.07341 0.90998 0.0
H442 H 0.79715 0.03763 0.87316 0.0
H443 H 0.86079 0.0344 0.80445 0.0
H444 H 0.91746 0.91808 0.77135 0.0
H445 H 0.89895 0.95977 0.7852 0.0
C446 C 0.43999 0.29244 0.4679 0.0
C447 C 0.42468 0.31469 0.47341 0.0
C448 C 0.45692 0.28962 0.44324 0.0
C449 C 0.47292 0.31733 0.37198 0.0
H450 H 0.54559 0.29491 0.38728 0.0
C451 C 0.58523 0.33935 0.32887 0.0
C452 C 0.58032 0.34021 0.29862 0.0
C453 C 0.5662 0.32899 0.34726 0.0
C454 C 0.52537 0.30116 0.38258 0.0
H455 H 0.41415 0.35081 0.45639 0.0
H456 H 0.44371 0.34606 0.41393 0.0
H457 H 0.51074 0.2913 0.42452 0.0
H458 H 0.55242 0.32916 0.26363 0.0
H459 H 0.51942 0.31045 0.29565 0.0
H460 H 0.48785 0.32872 0.33088 0.0
C461 C 0.44257 0.33064 0.42839 0.0
C462 C 0.50527 0.2988 0.40382 0.0
C463 C 0.42573 0.33346 0.45296 0.0
C464 C 0.55685 0.32873 0.28683 0.0
C465 C 0.53778 0.3183 0.30526 0.0
C466 C 0.49301 0.31978 0.35081 0.0
C467 C 0.45881 0.30892 0.42349 0.0
C468 C 0.47898 0.3076 0.39915 0.0
C469 C 0.54179 0.31912 0.33586 0.0
C470 C 0.51969 0.31243 0.35618 0.0
H471 H 0.43958 0.27754 0.48312 0.0
H472 H 0.46889 0.27251 0.43993 0.0
H473 H 0.45278 0.32388 0.36743 0.0
H474 H 0.60329 0.34777 0.33856 0.0
H475 H 0.57 0.33016 0.37068 0.0
C476 C 0.20784 0.9332 0.04316 0.0
C477 C 0.18611 0.91807 0.03282 0.0
C478 C 0.21625 0.95391 0.02786 0.0
C479 C 0.21276 0.98213 0.95607 0.0
H480 H 0.21594 0.04657 0.00195 0.0
C481 C 0.19851 0.07736 0.90456 0.0
C482 C 0.21178 0.09912 0.91663 0.0
C483 C 0.20088 0.05425 0.91747 0.0
C484 C 0.21576 0.02872 0.98881 0.0
H485 H 0.15706 0.91205 0.99761 0.0
H486 H 0.17187 0.94802 0.97089 0.0
H487 H 0.21056 0.00745 0.02679 0.0
H488 H 0.23883 0.11337 0.95113 0.0
H489 H 0.24357 0.07277 0.97327 0.0
H490 H 0.21758 0.00334 0.91804 0.0
C491 C 0.18235 0.94392 0.99082 0.0
C492 C 0.21261 0.00629 0.00308 0.0
C493 C 0.17374 0.92343 0.00626 0.0
C494 C 0.22842 0.09695 0.94122 0.0
C495 C 0.23089 0.07374 0.9541 0.0
C496 C 0.21615 0.00452 0.9418 0.0
C497 C 0.20336 0.95964 0.00173 0.0
C498 C 0.21039 0.98286 0.98681 0.0
C499 C 0.21676 0.05221 0.94268 0.0
C500 C 0.21695 0.02817 0.95794 0.0
H501 H 0.21781 0.92954 0.06354 0.0
H502 H 0.23261 0.96563 0.03665 0.0
H503 H 0.21149 0.96426 0.94302 0.0
H504 H 0.18589 0.07827 0.88533 0.0
H505 H 0.18944 0.0382 0.90823 0.0
C506 C 0.53902 0.66369 0.42803 0.0
C507 C 0.54536 0.6815 0.45121 0.0
C508 C 0.51352 0.66343 0.41528 0.0
C509 C 0.44823 0.69809 0.41179 0.0
H510 H 0.41973 0.62967 0.40321 0.0
C511 C 0.33431 0.67239 0.40951 0.0
C512 C 0.3267 0.65013 0.3931 0.0
C513 C 0.3614 0.67979 0.41069 0.0
C514 C 0.42741 0.64891 0.40484 0.0
H515 H 0.53054 0.71403 0.47802 0.0
H516 H 0.48559 0.71314 0.45628 0.0
H517 H 0.46654 0.63616 0.41599 0.0
H518 H 0.34058 0.61943 0.36302 0.0
H519 H 0.38765 0.63269 0.36425 0.0
H520 H 0.40843 0.71069 0.40151 0.0
C521 C 0.50048 0.69961 0.44762 0.0
C522 C 0.45438 0.65265 0.4122 0.0
C523 C 0.52621 0.70008 0.46016 0.0
C524 C 0.34609 0.63655 0.37603 0.0
C525 C 0.37302 0.64406 0.37693 0.0
C526 C 0.42105 0.69432 0.40443 0.0
C527 C 0.49357 0.68071 0.42572 0.0
C528 C 0.46517 0.67725 0.41592 0.0
C529 C 0.38119 0.66509 0.3953 0.0
C530 C 0.41033 0.66965 0.401 0.0
H531 H 0.55353 0.64939 0.42034 0.0
H532 H 0.50913 0.64905 0.3979 0.0
H533 H 0.45595 0.71729 0.41434 0.0
H534 H 0.31964 0.68304 0.42297 0.0
H535 H 0.36702 0.69603 0.42513 0.0
C536 C 0.39992 0.40755 0.62829 0.0
C537 C 0.3749 0.39797 0.61832 0.0
C538 C 0.4012 0.42771 0.64967 0.0
C539 C 0.36144 0.48199 0.68039 0.0
H540 H 0.41693 0.48572 0.74018 0.0
C541 C 0.37002 0.5681 0.76445 0.0
C542 C 0.3961 0.578 0.76881 0.0
C543 C 0.3662 0.54441 0.74947 0.0
C544 C 0.4014 0.48501 0.72352 0.0
H545 H 0.3316 0.40162 0.62379 0.0
H546 H 0.33389 0.43675 0.66126 0.0
H547 H 0.41234 0.44728 0.70778 0.0
H548 H 0.43865 0.57027 0.76201 0.0
H549 H 0.43197 0.52917 0.73545 0.0
H550 H 0.35082 0.51985 0.69568 0.0
C551 C 0.3525 0.42885 0.65219 0.0
C552 C 0.39878 0.46299 0.70496 0.0
C553 C 0.35121 0.40863 0.63081 0.0
C554 C 0.41829 0.5633 0.75871 0.0
C555 C 0.41447 0.53961 0.74377 0.0
C556 C 0.36406 0.50399 0.69894 0.0
C557 C 0.37751 0.4388 0.66164 0.0
C558 C 0.379 0.46136 0.6829 0.0
C559 C 0.38836 0.53007 0.73855 0.0
C560 C 0.3843 0.5059 0.72046 0.0
H561 H 0.41859 0.39976 0.61924 0.0
H562 H 0.42079 0.43509 0.65618 0.0
H563 H 0.34625 0.48151 0.66337 0.0
H564 H 0.35249 0.57902 0.77177 0.0
H565 H 0.34584 0.53746 0.74612 0.0
C566 C 0.06064 0.85314 0.13085 0.0
C567 C 0.07302 0.83487 0.11138 0.0
C568 C 0.03528 0.84859 0.14285 0.0
C569 C 0.97374 0.81257 0.12613 0.0
H570 H 0.9535 0.83506 0.20584 0.0
C571 C 0.86283 0.81146 0.16075 0.0
C572 C 0.8539 0.83441 0.17489 0.0
C573 C 0.89039 0.80594 0.15872 0.0
C574 C 0.95878 0.8287 0.1835 0.0
H575 H 0.06875 0.79706 0.09015 0.0
H576 H 0.02442 0.78924 0.11098 0.0
H577 H 1.00069 0.83667 0.19071 0.0
H578 H 0.86657 0.86824 0.20066 0.0
H579 H 0.91443 0.85904 0.19661 0.0
H580 H 0.93192 0.80575 0.11829 0.0
C581 C 0.03432 0.80715 0.11678 0.0
C582 C 0.98583 0.82962 0.17485 0.0
C583 C 0.05977 0.81162 0.10493 0.0
C584 C 0.87289 0.85056 0.18926 0.0
C585 C 0.90039 0.84514 0.18711 0.0
C586 C 0.94671 0.81182 0.13468 0.0
C587 C 0.02162 0.82571 0.13556 0.0
C588 C 0.99352 0.82207 0.14589 0.0
C589 C 0.90958 0.8233 0.17072 0.0
C590 C 0.93876 0.82041 0.16329 0.0
H591 H 0.07032 0.8712 0.13643 0.0
H592 H 0.02593 0.86339 0.15701 0.0
H593 H 0.97894 0.80689 0.10355 0.0
H594 H 0.8487 0.79863 0.14943 0.0
H595 H 0.89671 0.78865 0.14651 0.0
C596 C 0.63686 0.59784 0.56784 0.0
C597 C 0.65314 0.60718 0.54568 0.0
C598 C 0.64565 0.57752 0.58355 0.0
C599 C 0.68924 0.522 0.57437 0.0
H600 H 0.68128 0.51842 0.65859 0.0
C601 C 0.72488 0.43415 0.6311 0.0
C602 C 0.70771 0.42518 0.65267 0.0
C603 C 0.72082 0.4581 0.62055 0.0
C604 C 0.68342 0.51903 0.63501 0.0
H605 H 0.69197 0.60322 0.52368 0.0
H606 H 0.70703 0.56781 0.5509 0.0
H607 H 0.66861 0.55725 0.6357 0.0
H608 H 0.67369 0.43503 0.68122 0.0
H609 H 0.6659 0.4762 0.66198 0.0
H610 H 0.70307 0.48368 0.57323 0.0
C611 C 0.68742 0.57604 0.5559 0.0
C612 C 0.67622 0.54128 0.62196 0.0
C613 C 0.67877 0.5964 0.54039 0.0
C614 C 0.68699 0.44113 0.66419 0.0
C615 C 0.68276 0.46495 0.65344 0.0
C616 C 0.69616 0.49971 0.58731 0.0
C617 C 0.67077 0.56609 0.57724 0.0
C618 C 0.67902 0.54293 0.5915 0.0
C619 C 0.69934 0.47356 0.63112 0.0
C620 C 0.69327 0.49788 0.61778 0.0
H621 H 0.61708 0.60579 0.57256 0.0
H622 H 0.63237 0.57013 0.59983 0.0
H623 H 0.6912 0.5226 0.55076 0.0
H624 H 0.74095 0.42236 0.62159 0.0
H625 H 0.7343 0.46431 0.60375 0.0
C626 C 0.9151 0.12518 0.06107 0.0
C627 C 0.90359 0.1475 0.05156 0.0
C628 C 0.9307 0.12584 0.08649 0.0
C629 C 0.96946 0.17012 0.13706 0.0
H630 H 0.97253 0.11102 0.18312 0.0
C631 C 0.03481 0.16275 0.24234 0.0
C632 C 0.05334 0.14249 0.23944 0.0
C633 C 0.01391 0.16464 0.22207 0.0
C634 C 0.97172 0.12769 0.17051 0.0
H635 H 0.89874 0.18793 0.06176 0.0
H636 H 0.92524 0.18899 0.10682 0.0
H637 H 0.93992 0.11235 0.14341 0.0
H638 H 0.06421 0.10852 0.21236 0.0
H639 H 0.02705 0.11125 0.17823 0.0
H640 H 0.00117 0.18542 0.16477 0.0
C641 C 0.92288 0.17105 0.09416 0.0
C642 C 0.95323 0.12842 0.14758 0.0
C643 C 0.90757 0.17045 0.06839 0.0
C644 C 0.05005 0.124 0.216 0.0
C645 C 0.02886 0.12562 0.19622 0.0
C646 C 0.98761 0.16956 0.16041 0.0
C647 C 0.93484 0.14876 0.10343 0.0
C648 C 0.95235 0.14933 0.12998 0.0
C649 C 0.01077 0.14604 0.19891 0.0
C650 C 0.98931 0.14807 0.17682 0.0
H651 H 0.9126 0.1072 0.0485 0.0
H652 H 0.94004 0.10837 0.09239 0.0
H653 H 0.96966 0.18643 0.12388 0.0
H654 H 0.03637 0.17716 0.26028 0.0
H655 H 1.00008 0.18052 0.22458 0.0
C656 C 0.16176 0.78741 0.15865 0.0
C657 C 0.18135 0.80272 0.14625 0.0
C658 C 0.16732 0.77506 0.18407 0.0
C659 C 0.22294 0.75161 0.22777 0.0
H660 H 0.16842 0.75025 0.28876 0.0
C661 C 0.24148 0.70387 0.33655 0.0
C662 C 0.22024 0.68898 0.34604 0.0
C663 C 0.23749 0.71978 0.31359 0.0
C664 C 0.18378 0.75029 0.27184 0.0
H665 H 0.22222 0.81699 0.15091 0.0
H666 H 0.23191 0.79531 0.19533 0.0
H667 H 0.16009 0.7739 0.24558 0.0
H668 H 0.17842 0.67866 0.33976 0.0
H669 H 0.17136 0.70617 0.29947 0.0
H670 H 0.24644 0.72761 0.25377 0.0
C671 C 0.2123 0.7928 0.1852 0.0
C672 C 0.179 0.76384 0.24711 0.0
C673 C 0.2067 0.80528 0.15982 0.0
C674 C 0.19497 0.69024 0.33275 0.0
C675 C 0.19095 0.70607 0.30984 0.0
C676 C 0.22769 0.73797 0.25248 0.0
C677 C 0.19262 0.77765 0.19766 0.0
C678 C 0.19838 0.76439 0.22463 0.0
C679 C 0.2122 0.72093 0.29986 0.0
C680 C 0.20802 0.73689 0.27463 0.0
H681 H 0.142 0.78504 0.14883 0.0
H682 H 0.15186 0.76323 0.19292 0.0
H683 H 0.23815 0.75149 0.21068 0.0
H684 H 0.26115 0.70303 0.34664 0.0
H685 H 0.25418 0.73116 0.30661 0.0
C686 C 0.67784 0.74125 0.55912 0.0
C687 C 0.6843 0.71701 0.54633 0.0
C688 C 0.69626 0.75459 0.57751 0.0
C689 C 0.76849 0.75955 0.59273 0.0
H690 H 0.74812 0.78577 0.67113 0.0
C691 C 0.84693 0.7802 0.68248 0.0
C692 C 0.843 0.80047 0.70338 0.0
C693 C 0.82703 0.77374 0.66183 0.0
C694 C 0.75405 0.77904 0.6491 0.0
H695 H 0.71515 0.68779 0.54293 0.0
H696 H 0.74723 0.71116 0.57456 0.0
H697 H 0.71375 0.7675 0.63773 0.0
H698 H 0.81579 0.83027 0.71944 0.0
H699 H 0.78072 0.81926 0.68279 0.0
H700 H 0.80868 0.77086 0.60384 0.0
C701 C 0.72796 0.71985 0.57035 0.0
C702 C 0.73437 0.76852 0.63004 0.0
C703 C 0.70949 0.7064 0.55239 0.0
C704 C 0.8191 0.81457 0.70329 0.0
C705 C 0.79907 0.80815 0.68249 0.0
C706 C 0.78806 0.77027 0.6116 0.0
C707 C 0.7216 0.74409 0.58301 0.0
C708 C 0.74157 0.75804 0.60198 0.0
C709 C 0.80277 0.78753 0.6616 0.0
C710 C 0.78125 0.77946 0.64033 0.0
H711 H 0.65854 0.74988 0.55497 0.0
H712 H 0.69089 0.77326 0.58703 0.0
H713 H 0.77448 0.75203 0.571 0.0
H714 H 0.86522 0.76897 0.68248 0.0
H715 H 0.83041 0.75744 0.64657 0.0
C716 C 0.80327 0.20293 0.05951 0.0
C717 C 0.79246 0.18958 0.03455 0.0
C718 C 0.78643 0.21612 0.07989 0.0
C719 C 0.71501 0.22256 0.10442 0.0
H720 H 0.73808 0.28956 0.13402 0.0
C721 C 0.64299 0.29835 0.15898 0.0
C722 C 0.6531 0.31423 0.18219 0.0
C723 C 0.65984 0.28055 0.14399 0.0
C724 C 0.73149 0.27072 0.12637 0.0
H725 H 0.7553 0.17926 0.01184 0.0
H726 H 0.72604 0.2026 0.04706 0.0
H727 H 0.76787 0.26362 0.10199 0.0
H728 H 0.68803 0.3239 0.20878 0.0
H729 H 0.71755 0.29261 0.18289 0.0
H730 H 0.67831 0.23004 0.12837 0.0
C731 C 0.74752 0.2026 0.05113 0.0
C732 C 0.7486 0.25582 0.10797 0.0
C733 C 0.76435 0.18934 0.0308 0.0
C734 C 0.67988 0.31163 0.19099 0.0
C735 C 0.69677 0.29391 0.17601 0.0
C736 C 0.69784 0.23753 0.12279 0.0
C737 C 0.75835 0.21635 0.0758 0.0
C738 C 0.74053 0.23162 0.09657 0.0
C739 C 0.68711 0.27855 0.15189 0.0
C740 C 0.70581 0.26187 0.13382 0.0
H741 H 0.82481 0.20334 0.06326 0.0
H742 H 0.79544 0.22615 0.09888 0.0
H743 H 0.7083 0.20386 0.09641 0.0
H744 H 0.62238 0.30036 0.15171 0.0
H745 H 0.65182 0.26923 0.12536 0.0
C746 C 0.34617 0.26329 0.63161 0.0
C747 C 0.34529 0.28978 0.63005 0.0
C748 C 0.33679 0.2521 0.6567 0.0
C749 C 0.32077 0.2663 0.73542 0.0
H750 H 0.27388 0.20768 0.72521 0.0
C751 C 0.26001 0.23003 0.83201 0.0
C752 C 0.25917 0.20371 0.834 0.0
C753 C 0.27031 0.24018 0.80673 0.0
C754 C 0.28717 0.22388 0.72846 0.0
H755 H 0.33461 0.32531 0.65403 0.0
H756 H 0.31828 0.30584 0.69747 0.0
H757 H 0.2939 0.22554 0.68221 0.0
H758 H 0.26791 0.16716 0.81181 0.0
H759 H 0.28612 0.18477 0.76757 0.0
H760 H 0.31407 0.26471 0.78161 0.0
C761 C 0.3263 0.29369 0.67944 0.0
C762 C 0.29869 0.23407 0.70382 0.0
C763 C 0.33551 0.30483 0.6544 0.0
C764 C 0.26824 0.18757 0.81043 0.0
C765 C 0.27856 0.19767 0.78515 0.0
C766 C 0.3093 0.2561 0.76004 0.0
C767 C 0.32656 0.26719 0.68079 0.0
C768 C 0.31547 0.2555 0.70701 0.0
C769 C 0.28001 0.22411 0.78313 0.0
C770 C 0.29222 0.23487 0.75686 0.0
H771 H 0.35361 0.25116 0.61326 0.0
H772 H 0.33753 0.23164 0.65723 0.0
H773 H 0.33393 0.28259 0.73865 0.0
H774 H 0.25313 0.24272 0.85015 0.0
H775 H 0.27077 0.26061 0.80571 0.0
C776 C 0.68425 0.71204 0.41488 0.0
C777 C 0.65756 0.71589 0.42464 0.0
C778 C 0.69331 0.72217 0.38917 0.0
C779 C 0.67896 0.77131 0.33771 0.0
H780 H 0.72513 0.72963 0.28535 0.0
C781 C 0.71064 0.80131 0.22309 0.0
C782 C 0.7375 0.79695 0.2148 0.0
C783 C 0.7004 0.79137 0.24847 0.0
C784 C 0.7125 0.7416 0.29988 0.0
H785 H 0.61948 0.73363 0.41497 0.0
H786 H 0.63534 0.75128 0.36975 0.0
H787 H 0.70763 0.71252 0.32993 0.0
H788 H 0.77501 0.77916 0.22586 0.0
H789 H 0.75723 0.7617 0.27056 0.0
H790 H 0.68389 0.80041 0.3076 0.0
C791 C 0.64929 0.74056 0.3823 0.0
C792 C 0.70244 0.7318 0.32542 0.0
C793 C 0.64018 0.7304 0.40815 0.0
C794 C 0.75414 0.78254 0.23198 0.0
C795 C 0.74391 0.77252 0.25739 0.0
C796 C 0.68901 0.78111 0.31211 0.0
C797 C 0.67592 0.73637 0.37243 0.0
C798 C 0.68571 0.74659 0.34474 0.0
C799 C 0.71691 0.77688 0.26595 0.0
C800 C 0.70601 0.76641 0.29299 0.0
H801 H 0.69828 0.70106 0.42705 0.0
H802 H 0.71406 0.71898 0.38251 0.0
H803 H 0.66641 0.78329 0.35231 0.0
H804 H 0.69756 0.81243 0.20996 0.0
H805 H 0.67946 0.79479 0.25423 0.0
C806 C 0.82638 0.21932 0.91029 0.0
C807 C 0.81657 0.1944 0.91101 0.0
C808 C 0.82123 0.23355 0.88619 0.0
C809 C 0.7755 0.23866 0.82359 0.0
H810 H 0.83385 0.27779 0.79247 0.0
C811 C 0.76428 0.29279 0.71802 0.0
C812 C 0.77552 0.31714 0.71913 0.0
C813 C 0.76961 0.27666 0.74043 0.0
C814 C 0.81728 0.26715 0.80106 0.0
H815 H 0.7934 0.16498 0.88702 0.0
H816 H 0.78442 0.18991 0.84499 0.0
H817 H 0.84211 0.25212 0.834 0.0
H818 H 0.80077 0.34418 0.74379 0.0
H819 H 0.80992 0.31624 0.78319 0.0
H820 H 0.75057 0.25395 0.79087 0.0
C821 C 0.79595 0.19844 0.86318 0.0
C822 C 0.82201 0.25246 0.82484 0.0
C823 C 0.8012 0.18415 0.88723 0.0
C824 C 0.79213 0.32529 0.74259 0.0
C825 C 0.79744 0.30925 0.76498 0.0
C826 C 0.77072 0.25344 0.79982 0.0
C827 C 0.80609 0.22322 0.86232 0.0
C828 C 0.80113 0.23823 0.83652 0.0
C829 C 0.78621 0.28475 0.76421 0.0
C830 C 0.79152 0.26803 0.78846 0.0
H831 H 0.8383 0.22781 0.9282 0.0
H832 H 0.829 0.25272 0.88632 0.0
H833 H 0.75895 0.22806 0.8323 0.0
H834 H 0.75133 0.28632 0.69997 0.0
H835 H 0.76087 0.25782 0.73906 0.0
C836 C 0.28696 0.28185 0.51556 0.0
C837 C 0.31466 0.28024 0.50921 0.0
C838 C 0.26824 0.26913 0.49714 0.0
C839 C 0.26155 0.2181 0.43741 0.0
H840 H 0.19627 0.25447 0.42005 0.0
C841 C 0.19085 0.18928 0.33984 0.0
C842 C 0.16314 0.19221 0.34472 0.0
C843 C 0.20915 0.19742 0.36176 0.0
C844 C 0.2142 0.24388 0.42498 0.0
H845 H 0.34439 0.26376 0.47857 0.0
H846 H 0.31171 0.24198 0.44617 0.0
H847 H 0.22854 0.27381 0.45471 0.0
H848 H 0.13234 0.20503 0.37591 0.0
H849 H 0.16421 0.21913 0.41445 0.0
H850 H 0.24731 0.18839 0.40703 0.0
C851 C 0.30447 0.2527 0.46569 0.0
C852 C 0.23272 0.25497 0.4449 0.0
C853 C 0.32322 0.26532 0.4842 0.0
C854 C 0.15375 0.2026 0.37188 0.0
C855 C 0.17197 0.2108 0.39377 0.0
C856 C 0.24304 0.20704 0.41735 0.0
C857 C 0.27673 0.25462 0.4718 0.0
C858 C 0.25668 0.24228 0.4513 0.0
C859 C 0.19989 0.20877 0.38875 0.0
C860 C 0.21919 0.21985 0.41087 0.0
H861 H 0.27966 0.29304 0.53474 0.0
H862 H 0.24706 0.27069 0.50277 0.0
H863 H 0.27963 0.20765 0.44213 0.0
H864 H 0.19837 0.18143 0.31882 0.0
H865 H 0.23051 0.19581 0.35713 0.0
C866 C 0.24105 0.82338 0.01574 0.0
C867 C 0.21846 0.81012 0.02546 0.0
C868 C 0.25891 0.81181 0.99511 0.0
C869 C 0.30132 0.77666 0.96484 0.0
H870 H 0.27202 0.73364 0.90049 0.0
C871 C 0.3625 0.69918 0.89852 0.0
C872 C 0.35589 0.69352 0.86898 0.0
C873 C 0.34819 0.71785 0.9153 0.0
C874 C 0.28061 0.74589 0.91801 0.0
H875 H 0.19707 0.77423 0.02102 0.0
H876 H 0.22821 0.75412 0.98535 0.0
H877 H 0.24164 0.75721 0.9342 0.0
H878 H 0.33034 0.70326 0.83314 0.0
H879 H 0.30555 0.73634 0.86222 0.0
H880 H 0.34035 0.76513 0.94867 0.0
C881 C 0.23198 0.77355 0.99341 0.0
C882 C 0.26315 0.75914 0.93761 0.0
C883 C 0.21421 0.78504 0.01407 0.0
C884 C 0.33587 0.7076 0.85588 0.0
C885 C 0.32154 0.72629 0.87263 0.0
C886 C 0.31884 0.76333 0.94523 0.0
C887 C 0.25449 0.78679 0.98359 0.0
C888 C 0.27325 0.77433 0.96156 0.0
C889 C 0.3269 0.73102 0.90281 0.0
C890 C 0.30868 0.74748 0.92182 0.0
H891 H 0.2449 0.84275 0.02396 0.0
H892 H 0.27595 0.82259 0.98784 0.0
H893 H 0.30976 0.78814 0.98312 0.0
H894 H 0.37766 0.68818 0.90907 0.0
H895 H 0.3527 0.72077 0.9385 0.0
loop_
_geom_bond_atom_site_label_1
_geom_bond_atom_site_label_2
_geom_bond_distance
_geom_bond_site_symmetry_2
_ccdc_geom_bond_type
Fe0 O2 1.918 . S
Fe0 O5 1.997 . S
Fe0 O6 2.002 . S
Fe0 O11 1.976 . S
Fe0 O14 1.996 . S
Fe1 O2 1.918 . S
Fe1 O9 1.997 . S
Fe1 O12 1.996 . S
Fe1 O16 1.976 . S
Fe1 O19 2.002 . S
O2 Fe0 1.918 . S
O2 Fe1 1.918 . S
O2 Fe3 1.918 . S
Fe3 O2 1.918 . S
Fe3 O4 2.002 . S
Fe3 O13 1.976 . S
Fe3 O17 1.996 . S
Fe3 O20 1.997 . S
O4 Fe3 2.002 . S
O4 C21 1.295 . S
O5 Fe0 1.997 . S
O5 C21 1.235 . S
O6 Fe0 2.002 . S
O6 C7 1.295 . S
C7 O6 1.295 . S
C7 O9 1.235 . S
C8 O13 1.287 . S
C8 O14 1.255 . S
O9 Fe1 1.997 . S
O9 C7 1.235 . S
C10 O16 1.287 1_556 S
C10 O17 1.255 1_556 S
O11 Fe0 1.976 . S
O11 C18 1.287 . S
O12 Fe1 1.996 . S
O12 C18 1.255 . S
O13 Fe3 1.976 . S
O13 C8 1.287 . S
O14 Fe0 1.996 . S
O14 C8 1.255 . S
C15 O19 1.295 . S
C15 O20 1.235 . S
O16 Fe1 1.976 . S
O16 C10 1.287 1_554 S
O17 Fe3 1.996 . S
O17 C10 1.255 1_554 S
C18 O11 1.287 . S
C18 O12 1.255 . S
O19 Fe1 2.002 . S
O19 C15 1.295 . S
O20 Fe3 1.997 . S
O20 C15 1.235 . S
C21 O4 1.295 . S
C21 O5 1.235 . S
Fe22 O24 1.918 . S
Fe22 O27 1.997 . S
Fe22 O28 2.002 . S
Fe22 O33 1.976 . S
Fe22 O36 1.996 . S
Fe23 O24 1.918 . S
Fe23 O31 1.997 . S
Fe23 O34 1.996 . S
Fe23 O38 1.976 . S
Fe23 O41 2.002 . S
O24 Fe22 1.918 . S
O24 Fe23 1.918 . S
O24 Fe25 1.918 . S
Fe25 O24 1.918 . S
Fe25 O26 2.002 . S
Fe25 O35 1.976 . S
Fe25 O39 1.996 . S
Fe25 O42 1.997 . S
O26 Fe25 2.002 . S
O26 C43 1.295 . S
O27 Fe22 1.997 . S
O27 C43 1.235 . S
O28 Fe22 2.002 . S
O28 C29 1.295 . S
C29 O28 1.295 . S
C29 O31 1.235 . S
C30 O35 1.287 . S
C30 O36 1.255 . S
O31 Fe23 1.997 . S
O31 C29 1.235 . S
C32 O38 1.287 . S
C32 O39 1.255 . S
O33 Fe22 1.976 . S
O33 C40 1.287 . S
O34 Fe23 1.996 . S
O34 C40 1.255 . S
O35 Fe25 1.976 . S
O35 C30 1.287 . S
O36 Fe22 1.996 . S
O36 C30 1.255 . S
C37 O41 1.295 . S
C37 O42 1.235 . S
O38 Fe23 1.976 . S
O38 C32 1.287 . S
O39 Fe25 1.996 . S
O39 C32 1.255 . S
C40 O33 1.287 . S
C40 O34 1.255 . S
O41 Fe23 2.002 . S
O41 C37 1.295 . S
O42 Fe25 1.997 . S
O42 C37 1.235 . S
C43 O26 1.295 . S
C43 O27 1.235 . S
Fe44 O46 1.918 . S
Fe44 O49 1.997 1_554 S
Fe44 O50 2.002 1_554 S
Fe44 O55 1.976 . S
Fe44 O58 1.996 . S
Fe45 O46 1.918 . S
Fe45 O53 1.997 1_554 S
Fe45 O56 1.996 . S
Fe45 O60 1.976 . S
Fe45 O63 2.002 1_554 S
O46 Fe44 1.918 . S
O46 Fe45 1.918 . S
O46 Fe47 1.918 1_554 S
Fe47 O46 1.918 1_556 S
Fe47 O48 2.002 . S
Fe47 O57 1.976 1_556 S
Fe47 O61 1.996 1_556 S
Fe47 O64 1.997 . S
O48 Fe47 2.002 . S
O48 C65 1.295 . S
O49 Fe44 1.997 1_556 S
O49 C65 1.235 . S
O50 Fe44 2.002 1_556 S
O50 C51 1.295 . S
C51 O50 1.295 . S
C51 O53 1.235 . S
C52 O57 1.287 . S
C52 O58 1.255 . S
O53 Fe45 1.997 1_556 S
O53 C51 1.235 . S
C54 O60 1.287 . S
C54 O61 1.255 . S
O55 Fe44 1.976 . S
O55 C62 1.287 . S
O56 Fe45 1.996 . S
O56 C62 1.255 . S
O57 Fe47 1.976 1_554 S
O57 C52 1.287 . S
O58 Fe44 1.996 . S
O58 C52 1.255 . S
C59 O63 1.295 . S
C59 O64 1.235 . S
O60 Fe45 1.976 . S
O60 C54 1.287 . S
O61 Fe47 1.996 1_554 S
O61 C54 1.255 . S
C62 O55 1.287 . S
C62 O56 1.255 . S
O63 Fe45 2.002 1_556 S
O63 C59 1.295 . S
O64 Fe47 1.997 . S
O64 C59 1.235 . S
C65 O48 1.295 . S
C65 O49 1.235 . S
Fe66 O68 1.918 . S
Fe66 O71 1.997 . S
Fe66 O72 2.002 . S
Fe66 O77 1.976 . S
Fe66 O80 1.996 . S
Fe67 O68 1.918 . S
Fe67 O75 1.997 . S
Fe67 O78 1.996 . S
Fe67 O82 1.976 . S
Fe67 O85 2.002 . S
O68 Fe66 1.918 . S
O68 Fe67 1.918 . S
O68 Fe69 1.918 . S
Fe69 O68 1.918 . S
Fe69 O70 2.002 . S
Fe69 O79 1.976 . S
Fe69 O83 1.996 . S
Fe69 O86 1.997 . S
O70 Fe69 2.002 . S
O70 C87 1.295 . S
O71 Fe66 1.997 . S
O71 C87 1.235 . S
O72 Fe66 2.002 . S
O72 C73 1.295 . S
C73 O72 1.295 . S
C73 O75 1.235 . S
C74 O79 1.287 . S
C74 O80 1.255 . S
O75 Fe67 1.997 . S
O75 C73 1.235 . S
C76 O82 1.287 . S
C76 O83 1.255 . S
O77 Fe66 1.976 . S
O77 C84 1.287 . S
O78 Fe67 1.996 . S
O78 C84 1.255 . S
O79 Fe69 1.976 . S
O79 C74 1.287 . S
O80 Fe66 1.996 . S
O80 C74 1.255 . S
C81 O85 1.295 . S
C81 O86 1.235 . S
O82 Fe67 1.976 . S
O82 C76 1.287 . S
O83 Fe69 1.996 . S
O83 C76 1.255 . S
C84 O77 1.287 . S
C84 O78 1.255 . S
O85 Fe67 2.002 . S
O85 C81 1.295 . S
O86 Fe69 1.997 . S
O86 C81 1.235 . S
C87 O70 1.295 . S
C87 O71 1.235 . S
H88 C91 0.929 . S
H89 C94 0.929 . S
H90 C96 0.930 . S
C91 H88 0.929 . S
C91 C92 1.398 . S
C91 C93 1.396 . S
C92 C91 1.398 . S
C92 C96 1.407 . S
C93 C91 1.396 . S
C93 C94 1.394 . S
C94 H89 0.929 . S
C94 C93 1.394 . S
C94 C95 1.382 . S
C95 C94 1.382 . S
C95 C96 1.392 . S
C95 N97 1.420 . S
C96 H90 0.930 . S
C96 C92 1.407 . S
C96 C95 1.392 . S
N97 C95 1.420 . S
N97 C98 1.244 . S
C98 N97 1.244 . S
H99 C102 0.929 . S
H100 C105 0.929 . S
H101 C107 0.930 . S
C102 H99 0.929 . S
C102 C103 1.398 . S
C102 C104 1.396 . S
C103 C102 1.398 . S
C103 C107 1.407 . S
C104 C102 1.396 . S
C104 C105 1.394 . S
C105 H100 0.929 . S
C105 C104 1.394 . S
C105 C106 1.382 . S
C106 C105 1.382 . S
C106 C107 1.392 . S
C106 N108 1.420 . S
C107 H101 0.930 . S
C107 C103 1.407 . S
C107 C106 1.392 . S
N108 C106 1.420 . S
N108 C109 1.244 . S
C109 N108 1.244 . S
H110 C113 0.929 . S
H111 C116 0.929 . S
H112 C118 0.930 . S
C113 H110 0.929 . S
C113 C114 1.398 . S
C113 C115 1.396 . S
C114 C113 1.398 . S
C114 C118 1.407 . S
C115 C113 1.396 . S
C115 C116 1.394 . S
C116 H111 0.929 . S
C116 C115 1.394 . S
C116 C117 1.382 . S
C117 C116 1.382 . S
C117 C118 1.392 . S
C117 N119 1.420 . S
C118 H112 0.930 . S
C118 C114 1.407 . S
C118 C117 1.392 . S
N119 C117 1.420 . S
N119 C120 1.244 . S
C120 N119 1.244 . S
H121 C124 0.929 . S
H122 C127 0.929 . S
H123 C129 0.930 . S
C124 H121 0.929 . S
C124 C125 1.398 . S
C124 C126 1.396 . S
C125 C124 1.398 . S
C125 C129 1.407 . S
C126 C124 1.396 . S
C126 C127 1.394 . S
C127 H122 0.929 . S
C127 C126 1.394 . S
C127 C128 1.382 . S
C128 C127 1.382 . S
C128 C129 1.392 . S
C128 N130 1.420 . S
C129 H123 0.930 . S
C129 C125 1.407 . S
C129 C128 1.392 . S
N130 C128 1.420 . S
N130 C131 1.244 . S
C131 N130 1.244 . S
H132 C135 0.929 . S
H133 C138 0.929 . S
H134 C140 0.930 . S
C135 H132 0.929 . S
C135 C136 1.398 . S
C135 C137 1.396 . S
C136 C135 1.398 . S
C136 C140 1.407 . S
C137 C135 1.396 . S
C137 C138 1.394 . S
C138 H133 0.929 . S
C138 C137 1.394 . S
C138 C139 1.382 . S
C139 C138 1.382 . S
C139 C140 1.392 . S
C139 N141 1.420 . S
C140 H134 0.930 . S
C140 C136 1.407 . S
C140 C139 1.392 . S
N141 C139 1.420 . S
N141 C142 1.244 . S
C142 N141 1.244 . S
H143 C146 0.929 . S
H144 C149 0.929 . S
H145 C151 0.930 . S
C146 H143 0.929 . S
C146 C147 1.398 . S
C146 C148 1.396 . S
C147 C146 1.398 . S
C147 C151 1.407 . S
C148 C146 1.396 . S
C148 C149 1.394 . S
C149 H144 0.929 . S
C149 C148 1.394 . S
C149 C150 1.382 . S
C150 C149 1.382 . S
C150 C151 1.392 . S
C150 N152 1.420 . S
C151 H145 0.930 . S
C151 C147 1.407 . S
C151 C150 1.392 . S
N152 C150 1.420 . S
N152 C153 1.244 . S
C153 N152 1.244 . S
H154 C157 0.929 . S
H155 C160 0.929 . S
H156 C162 0.930 . S
C157 H154 0.929 . S
C157 C158 1.398 . S
C157 C159 1.396 . S
C158 C157 1.398 . S
C158 C162 1.407 . S
C159 C157 1.396 . S
C159 C160 1.394 . S
C160 H155 0.929 . S
C160 C159 1.394 . S
C160 C161 1.382 . S
C161 C160 1.382 . S
C161 C162 1.392 . S
C161 N163 1.420 . S
C162 H156 0.930 . S
C162 C158 1.407 . S
C162 C161 1.392 . S
N163 C161 1.420 . S
N163 C164 1.244 . S
C164 N163 1.244 . S
H165 C168 0.929 . S
H166 C171 0.929 . S
H167 C173 0.930 . S
C168 H165 0.929 . S
C168 C169 1.398 . S
C168 C170 1.396 . S
C169 C168 1.398 . S
C169 C173 1.407 . S
C170 C168 1.396 . S
C170 C171 1.394 . S
C171 H166 0.929 . S
C171 C170 1.394 . S
C171 C172 1.382 . S
C172 C171 1.382 . S
C172 C173 1.392 . S
C172 N174 1.420 . S
C173 H167 0.930 . S
C173 C169 1.407 . S
C173 C172 1.392 . S
N174 C172 1.420 . S
N174 C175 1.244 . S
C175 N174 1.244 . S
C176 C177 1.349 . S
C176 C178 1.327 . S
C176 H201 0.950 . S
C177 C176 1.349 . S
C177 C193 1.349 . S
C178 C176 1.327 . S
C178 C197 1.429 . S
C178 H202 0.950 . S
C179 C196 1.574 1_565 S
C179 C198 1.368 . S
C179 H203 0.949 . S
H180 C184 0.949 . S
C181 C182 1.349 . S
C181 C183 1.327 . S
C181 H204 0.950 . S
C182 C181 1.349 . S
C182 C194 1.349 . S
C183 C181 1.327 . S
C183 C199 1.429 . S
C183 H205 0.950 . S
C184 H180 0.949 . S
C184 C192 1.574 . S
C184 C200 1.368 . S
H185 C193 0.950 . S
H186 C191 0.950 . S
H187 C192 0.949 . S
H188 C194 0.950 . S
H189 C195 0.950 . S
H190 C196 0.949 . S
C191 H186 0.950 . S
C191 C193 1.327 . S
C191 C197 1.429 . S
C192 C184 1.574 . S
C192 H187 0.949 . S
C192 C198 1.368 1_545 S
C193 C177 1.349 . S
C193 H185 0.950 . S
C193 C191 1.327 . S
C194 C182 1.349 . S
C194 H188 0.950 . S
C194 C195 1.327 . S
C195 H189 0.950 . S
C195 C194 1.327 . S
C195 C199 1.429 . S
C196 C179 1.574 1_545 S
C196 H190 0.949 . S
C196 C200 1.368 . S
C197 C178 1.429 . S
C197 C191 1.429 . S
C197 C198 1.523 . S
C198 C179 1.368 . S
C198 C192 1.368 1_565 S
C198 C197 1.523 . S
C199 C183 1.429 . S
C199 C195 1.429 . S
C199 C200 1.523 . S
C200 C184 1.368 . S
C200 C196 1.368 . S
C200 C199 1.523 . S
H201 C176 0.950 . S
H202 C178 0.950 . S
H203 C179 0.949 . S
H204 C181 0.950 . S
H205 C183 0.950 . S
C206 C207 1.349 . S
C206 C208 1.327 . S
C206 H231 0.950 . S
C207 C206 1.349 . S
C207 C223 1.349 . S
C208 C206 1.327 . S
C208 C227 1.429 . S
C208 H232 0.950 . S
C209 C226 1.574 . S
C209 C228 1.368 . S
C209 H233 0.949 . S
H210 C214 0.949 . S
C211 C212 1.349 . S
C211 C213 1.327 . S
C211 H234 0.950 . S
C212 C211 1.349 . S
C212 C224 1.349 . S
C213 C211 1.327 . S
C213 C229 1.429 . S
C213 H235 0.950 . S
C214 H210 0.949 . S
C214 C222 1.574 . S
C214 C230 1.368 . S
H215 C223 0.950 . S
H216 C221 0.950 . S
H217 C222 0.949 . S
H218 C224 0.950 . S
H219 C225 0.950 . S
H220 C226 0.949 . S
C221 H216 0.950 . S
C221 C223 1.327 . S
C221 C227 1.429 . S
C222 C214 1.574 . S
C222 H217 0.949 . S
C222 C228 1.368 . S
C223 C207 1.349 . S
C223 H215 0.950 . S
C223 C221 1.327 . S
C224 C212 1.349 . S
C224 H218 0.950 . S
C224 C225 1.327 . S
C225 H219 0.950 . S
C225 C224 1.327 . S
C225 C229 1.429 . S
C226 C209 1.574 . S
C226 H220 0.949 . S
C226 C230 1.368 . S
C227 C208 1.429 . S
C227 C221 1.429 . S
C227 C228 1.523 . S
C228 C209 1.368 . S
C228 C222 1.368 . S
C228 C227 1.523 . S
C229 C213 1.429 . S
C229 C225 1.429 . S
C229 C230 1.523 . S
C230 C214 1.368 . S
C230 C226 1.368 . S
C230 C229 1.523 . S
H231 C206 0.950 . S
H232 C208 0.950 . S
H233 C209 0.949 . S
H234 C211 0.950 . S
H235 C213 0.950 . S
C236 C237 1.349 . S
C236 C238 1.327 . S
C236 H261 0.950 . S
C237 C236 1.349 . S
C237 C253 1.349 . S
C238 C236 1.327 . S
C238 C257 1.429 . S
C238 H262 0.950 . S
C239 C256 1.574 . S
C239 C258 1.368 1_565 S
C239 H263 0.949 . S
H240 C244 0.949 . S
C241 C242 1.349 . S
C241 C243 1.327 . S
C241 H264 0.950 . S
C242 C241 1.349 . S
C242 C254 1.349 . S
C243 C241 1.327 . S
C243 C259 1.429 . S
C243 H265 0.950 . S
C244 H240 0.949 . S
C244 C252 1.574 1_565 S
C244 C260 1.368 . S
H245 C253 0.950 . S
H246 C251 0.950 . S
H247 C252 0.949 . S
H248 C254 0.950 . S
H249 C255 0.950 . S
H250 C256 0.949 . S
C251 H246 0.950 . S
C251 C253 1.327 . S
C251 C257 1.429 . S
C252 C244 1.574 1_545 S
C252 H247 0.949 . S
C252 C258 1.368 . S
C253 C237 1.349 . S
C253 H245 0.950 . S
C253 C251 1.327 . S
C254 C242 1.349 . S
C254 H248 0.950 . S
C254 C255 1.327 . S
C255 H249 0.950 . S
C255 C254 1.327 . S
C255 C259 1.429 . S
C256 C239 1.574 . S
C256 H250 0.949 . S
C256 C260 1.368 . S
C257 C238 1.429 . S
C257 C251 1.429 . S
C257 C258 1.523 . S
C258 C239 1.368 1_545 S
C258 C252 1.368 . S
C258 C257 1.523 . S
C259 C243 1.429 . S
C259 C255 1.429 . S
C259 C260 1.523 . S
C260 C244 1.368 . S
C260 C256 1.368 . S
C260 C259 1.523 . S
H261 C236 0.950 . S
H262 C238 0.950 . S
H263 C239 0.949 . S
H264 C241 0.950 . S
H265 C243 0.950 . S
C266 C267 1.349 . S
C266 C268 1.327 . S
C266 H291 0.950 . S
C267 C266 1.349 . S
C267 C283 1.349 . S
C268 C266 1.327 . S
C268 C287 1.429 . S
C268 H292 0.950 . S
C269 C286 1.574 . S
C269 C288 1.368 . S
C269 H293 0.949 . S
H270 C274 0.949 . S
C271 C272 1.349 . S
C271 C273 1.327 . S
C271 H294 0.950 . S
C272 C271 1.349 . S
C272 C284 1.349 . S
C273 C271 1.327 . S
C273 C289 1.429 . S
C273 H295 0.950 . S
C274 H270 0.949 . S
C274 C282 1.574 . S
C274 C290 1.368 . S
H275 C283 0.950 . S
H276 C281 0.950 . S
H277 C282 0.949 . S
H278 C284 0.950 . S
H279 C285 0.950 . S
H280 C286 0.949 . S
C281 H276 0.950 . S
C281 C283 1.327 . S
C281 C287 1.429 . S
C282 C274 1.574 . S
C282 H277 0.949 . S
C282 C288 1.368 . S
C283 C267 1.349 . S
C283 H275 0.950 . S
C283 C281 1.327 . S
C284 C272 1.349 . S
C284 H278 0.950 . S
C284 C285 1.327 . S
C285 H279 0.950 . S
C285 C284 1.327 . S
C285 C289 1.429 . S
C286 C269 1.574 . S
C286 H280 0.949 . S
C286 C290 1.368 . S
C287 C268 1.429 . S
C287 C281 1.429 . S
C287 C288 1.523 . S
C288 C269 1.368 . S
C288 C282 1.368 . S
C288 C287 1.523 . S
C289 C273 1.429 . S
C289 C285 1.429 . S
C289 C290 1.523 . S
C290 C274 1.368 . S
C290 C286 1.368 . S
C290 C289 1.523 . S
H291 C266 0.950 . S
H292 C268 0.950 . S
H293 C269 0.949 . S
H294 C271 0.950 . S
H295 C273 0.950 . S
C296 C297 1.349 . S
C296 C298 1.327 . S
C296 H321 0.950 . S
C297 C296 1.349 . S
C297 C313 1.349 . S
C298 C296 1.327 . S
C298 C317 1.429 . S
C298 H322 0.950 . S
C299 C316 1.574 . S
C299 C318 1.368 . S
C299 H323 0.949 . S
H300 C304 0.949 . S
C301 C302 1.349 . S
C301 C303 1.327 . S
C301 H324 0.950 . S
C302 C301 1.349 . S
C302 C314 1.349 . S
C303 C301 1.327 . S
C303 C319 1.429 . S
C303 H325 0.950 . S
C304 H300 0.949 . S
C304 C312 1.574 . S
C304 C320 1.368 . S
H305 C313 0.950 . S
H306 C311 0.950 . S
H307 C312 0.949 . S
H308 C314 0.950 . S
H309 C315 0.950 . S
H310 C316 0.949 . S
C311 H306 0.950 . S
C311 C313 1.327 . S
C311 C317 1.429 . S
C312 C304 1.574 . S
C312 H307 0.949 . S
C312 C318 1.368 . S
C313 C297 1.349 . S
C313 H305 0.950 . S
C313 C311 1.327 . S
C314 C302 1.349 . S
C314 H308 0.950 . S
C314 C315 1.327 . S
C315 H309 0.950 . S
C315 C314 1.327 . S
C315 C319 1.429 . S
C316 C299 1.574 . S
C316 H310 0.949 . S
C316 C320 1.368 . S
C317 C298 1.429 . S
C317 C311 1.429 . S
C317 C318 1.523 . S
C318 C299 1.368 . S
C318 C312 1.368 . S
C318 C317 1.523 . S
C319 C303 1.429 . S
C319 C315 1.429 . S
C319 C320 1.523 . S
C320 C304 1.368 . S
C320 C316 1.368 . S
C320 C319 1.523 . S
H321 C296 0.950 . S
H322 C298 0.950 . S
H323 C299 0.949 . S
H324 C301 0.950 . S
H325 C303 0.950 . S
C326 C327 1.349 . S
C326 C328 1.327 . S
C326 H351 0.950 . S
C327 C326 1.349 . S
C327 C343 1.349 . S
C328 C326 1.327 . S
C328 C347 1.429 1_655 S
C328 H352 0.950 . S
C329 C346 1.574 . S
C329 C348 1.368 . S
C329 H353 0.949 . S
H330 C334 0.949 . S
C331 C332 1.349 . S
C331 C333 1.327 . S
C331 H354 0.950 . S
C332 C331 1.349 . S
C332 C344 1.349 . S
C333 C331 1.327 . S
C333 C349 1.429 . S
C333 H355 0.950 . S
C334 H330 0.949 . S
C334 C342 1.574 . S
C334 C350 1.368 . S
H335 C343 0.950 . S
H336 C341 0.950 1_455 S
H337 C342 0.949 . S
H338 C344 0.950 . S
H339 C345 0.950 . S
H340 C346 0.949 . S
C341 H336 0.950 1_655 S
C341 C343 1.327 . S
C341 C347 1.429 1_655 S
C342 C334 1.574 . S
C342 H337 0.949 . S
C342 C348 1.368 . S
C343 C327 1.349 . S
C343 H335 0.950 . S
C343 C341 1.327 . S
C344 C332 1.349 . S
C344 H338 0.950 . S
C344 C345 1.327 . S
C345 H339 0.950 . S
C345 C344 1.327 . S
C345 C349 1.429 . S
C346 C329 1.574 . S
C346 H340 0.949 . S
C346 C350 1.368 . S
C347 C328 1.429 1_455 S
C347 C341 1.429 1_455 S
C347 C348 1.523 . S
C348 C329 1.368 . S
C348 C342 1.368 . S
C348 C347 1.523 . S
C349 C333 1.429 . S
C349 C345 1.429 . S
C349 C350 1.523 . S
C350 C334 1.368 . S
C350 C346 1.368 . S
C350 C349 1.523 . S
H351 C326 0.950 . S
H352 C328 0.950 . S
H353 C329 0.949 . S
H354 C331 0.950 . S
H355 C333 0.950 . S
C356 C357 1.349 . S
C356 C358 1.327 . S
C356 H381 0.950 . S
C357 C356 1.349 . S
C357 C373 1.349 . S
C358 C356 1.327 . S
C358 C377 1.429 . S
C358 H382 0.950 . S
C359 C376 1.574 . S
C359 C378 1.368 . S
C359 H383 0.949 . S
H360 C364 0.949 . S
C361 C362 1.349 . S
C361 C363 1.327 . S
C361 H384 0.950 . S
C362 C361 1.349 . S
C362 C374 1.349 . S
C363 C361 1.327 . S
C363 C379 1.429 . S
C363 H385 0.950 . S
C364 H360 0.949 . S
C364 C372 1.574 . S
C364 C380 1.368 . S
H365 C373 0.950 . S
H366 C371 0.950 . S
H367 C372 0.949 . S
H368 C374 0.950 . S
H369 C375 0.950 . S
H370 C376 0.949 . S
C371 H366 0.950 . S
C371 C373 1.327 . S
C371 C377 1.429 . S
C372 C364 1.574 . S
C372 H367 0.949 . S
C372 C378 1.368 . S
C373 C357 1.349 . S
C373 H365 0.950 . S
C373 C371 1.327 . S
C374 C362 1.349 . S
C374 H368 0.950 . S
C374 C375 1.327 . S
C375 H369 0.950 . S
C375 C374 1.327 . S
C375 C379 1.429 . S
C376 C359 1.574 . S
C376 H370 0.949 . S
C376 C380 1.368 . S
C377 C358 1.429 . S
C377 C371 1.429 . S
C377 C378 1.523 . S
C378 C359 1.368 . S
C378 C372 1.368 . S
C378 C377 1.523 . S
C379 C363 1.429 . S
C379 C375 1.429 . S
C379 C380 1.523 . S
C380 C364 1.368 . S
C380 C376 1.368 . S
C380 C379 1.523 . S
H381 C356 0.950 . S
H382 C358 0.950 . S
H383 C359 0.949 . S
H384 C361 0.950 . S
H385 C363 0.950 . S
C386 C387 1.349 . S
C386 C388 1.327 . S
C386 H411 0.950 . S
C387 C386 1.349 . S
C387 C403 1.349 . S
C388 C386 1.327 . S
C388 C407 1.429 . S
C388 H412 0.950 . S
C389 C406 1.574 1_455 S
C389 C408 1.368 . S
C389 H413 0.949 . S
H390 C394 0.949 . S
C391 C392 1.349 . S
C391 C393 1.327 . S
C391 H414 0.950 . S
C392 C391 1.349 . S
C392 C404 1.349 . S
C393 C391 1.327 . S
C393 C409 1.429 . S
C393 H415 0.950 . S
C394 H390 0.949 . S
C394 C402 1.574 . S
C394 C410 1.368 1_455 S
H395 C403 0.950 . S
H396 C401 0.950 . S
H397 C402 0.949 . S
H398 C404 0.950 . S
H399 C405 0.950 . S
H400 C406 0.949 . S
C401 H396 0.950 . S
C401 C403 1.327 . S
C401 C407 1.429 . S
C402 C394 1.574 . S
C402 H397 0.949 . S
C402 C408 1.368 . S
C403 C387 1.349 . S
C403 H395 0.950 . S
C403 C401 1.327 . S
C404 C392 1.349 . S
C404 H398 0.950 . S
C404 C405 1.327 . S
C405 H399 0.950 . S
C405 C404 1.327 . S
C405 C409 1.429 . S
C406 C389 1.574 1_655 S
C406 H400 0.949 . S
C406 C410 1.368 . S
C407 C388 1.429 . S
C407 C401 1.429 . S
C407 C408 1.523 . S
C408 C389 1.368 . S
C408 C402 1.368 . S
C408 C407 1.523 . S
C409 C393 1.429 . S
C409 C405 1.429 . S
C409 C410 1.523 . S
C410 C394 1.368 1_655 S
C410 C406 1.368 . S
C410 C409 1.523 . S
H411 C386 0.950 . S
H412 C388 0.950 . S
H413 C389 0.949 . S
H414 C391 0.950 . S
H415 C393 0.950 . S
C416 C417 1.349 . S
C416 C418 1.327 . S
C416 H441 0.950 . S
C417 C416 1.349 . S
C417 C433 1.349 . S
C418 C416 1.327 . S
C418 C437 1.429 . S
C418 H442 0.950 . S
C419 C436 1.574 1_545 S
C419 C438 1.368 . S
C419 H443 0.949 . S
H420 C424 0.949 . S
C421 C422 1.349 . S
C421 C423 1.327 . S
C421 H444 0.950 . S
C422 C421 1.349 . S
C422 C434 1.349 . S
C423 C421 1.327 . S
C423 C439 1.429 . S
C423 H445 0.950 . S
C424 H420 0.949 . S
C424 C432 1.574 . S
C424 C440 1.368 . S
H425 C433 0.950 . S
H426 C431 0.950 . S
H427 C432 0.949 . S
H428 C434 0.950 . S
H429 C435 0.950 . S
H430 C436 0.949 . S
C431 H426 0.950 . S
C431 C433 1.327 . S
C431 C437 1.429 . S
C432 C424 1.574 . S
C432 H427 0.949 . S
C432 C438 1.368 1_565 S
C433 C417 1.349 . S
C433 H425 0.950 . S
C433 C431 1.327 . S
C434 C422 1.349 . S
C434 H428 0.950 . S
C434 C435 1.327 . S
C435 H429 0.950 . S
C435 C434 1.327 . S
C435 C439 1.429 . S
C436 C419 1.574 1_565 S
C436 H430 0.949 . S
C436 C440 1.368 . S
C437 C418 1.429 . S
C437 C431 1.429 . S
C437 C438 1.523 . S
C438 C419 1.368 . S
C438 C432 1.368 1_545 S
C438 C437 1.523 . S
C439 C423 1.429 . S
C439 C435 1.429 . S
C439 C440 1.523 . S
C440 C424 1.368 . S
C440 C436 1.368 . S
C440 C439 1.523 . S
H441 C416 0.950 . S
H442 C418 0.950 . S
H443 C419 0.949 . S
H444 C421 0.950 . S
H445 C423 0.950 . S
C446 C447 1.349 . S
C446 C448 1.327 . S
C446 H471 0.950 . S
C447 C446 1.349 . S
C447 C463 1.349 . S
C448 C446 1.327 . S
C448 C467 1.429 . S
C448 H472 0.950 . S
C449 C466 1.574 . S
C449 C468 1.368 . S
C449 H473 0.949 . S
H450 C454 0.949 . S
C451 C452 1.349 . S
C451 C453 1.327 . S
C451 H474 0.950 . S
C452 C451 1.349 . S
C452 C464 1.349 . S
C453 C451 1.327 . S
C453 C469 1.429 . S
C453 H475 0.950 . S
C454 H450 0.949 . S
C454 C462 1.574 . S
C454 C470 1.368 . S
H455 C463 0.950 . S
H456 C461 0.950 . S
H457 C462 0.949 . S
H458 C464 0.950 . S
H459 C465 0.950 . S
H460 C466 0.949 . S
C461 H456 0.950 . S
C461 C463 1.327 . S
C461 C467 1.429 . S
C462 C454 1.574 . S
C462 H457 0.949 . S
C462 C468 1.368 . S
C463 C447 1.349 . S
C463 H455 0.950 . S
C463 C461 1.327 . S
C464 C452 1.349 . S
C464 H458 0.950 . S
C464 C465 1.327 . S
C465 H459 0.950 . S
C465 C464 1.327 . S
C465 C469 1.429 . S
C466 C449 1.574 . S
C466 H460 0.949 . S
C466 C470 1.368 . S
C467 C448 1.429 . S
C467 C461 1.429 . S
C467 C468 1.523 . S
C468 C449 1.368 . S
C468 C462 1.368 . S
C468 C467 1.523 . S
C469 C453 1.429 . S
C469 C465 1.429 . S
C469 C470 1.523 . S
C470 C454 1.368 . S
C470 C466 1.368 . S
C470 C469 1.523 . S
H471 C446 0.950 . S
H472 C448 0.950 . S
H473 C449 0.949 . S
H474 C451 0.950 . S
H475 C453 0.950 . S
C476 C477 1.349 . S
C476 C478 1.327 . S
C476 H501 0.950 . S
C477 C476 1.349 . S
C477 C493 1.349 1_554 S
C478 C476 1.327 . S
C478 C497 1.429 1_554 S
C478 H502 0.950 . S
C479 C496 1.574 . S
C479 C498 1.369 1_545 S
C479 H503 0.949 1_545 S
H480 C484 0.949 . S
C481 C482 1.349 . S
C481 C483 1.327 . S
C481 H504 0.950 . S
C482 C481 1.349 . S
C482 C494 1.349 . S
C483 C481 1.327 . S
C483 C499 1.429 . S
C483 H505 0.950 . S
C484 H480 0.949 . S
C484 C492 1.574 . S
C484 C500 1.368 . S
H485 C493 0.950 . S
H486 C491 0.950 . S
H487 C492 0.949 1_554 S
H488 C494 0.950 . S
H489 C495 0.950 . S
H490 C496 0.949 . S
C491 H486 0.950 . S
C491 C493 1.327 . S
C491 C497 1.429 . S
C492 C484 1.574 . S
C492 H487 0.949 1_556 S
C492 C498 1.370 1_545 S
C493 C477 1.349 1_556 S
C493 H485 0.950 . S
C493 C491 1.327 . S
C494 C482 1.349 . S
C494 H488 0.950 . S
C494 C495 1.327 . S
C495 H489 0.950 . S
C495 C494 1.327 . S
C495 C499 1.429 . S
C496 C479 1.574 . S
C496 H490 0.949 . S
C496 C500 1.368 . S
C497 C478 1.429 1_556 S
C497 C491 1.429 . S
C497 C498 1.520 . S
C498 C479 1.369 1_565 S
C498 C492 1.370 1_565 S
C498 C497 1.520 . S
C499 C483 1.429 . S
C499 C495 1.429 . S
C499 C500 1.523 . S
C500 C484 1.368 . S
C500 C496 1.368 . S
C500 C499 1.523 . S
H501 C476 0.950 . S
H502 C478 0.950 . S
H503 C479 0.949 1_565 S
H504 C481 0.950 . S
H505 C483 0.950 . S
C506 C507 1.349 . S
C506 C508 1.327 . S
C506 H531 0.950 . S
C507 C506 1.349 . S
C507 C523 1.349 . S
C508 C506 1.327 . S
C508 C527 1.429 . S
C508 H532 0.950 . S
C509 C526 1.574 . S
C509 C528 1.368 . S
C509 H533 0.949 . S
H510 C514 0.949 . S
C511 C512 1.349 . S
C511 C513 1.327 . S
C511 H534 0.950 . S
C512 C511 1.349 . S
C512 C524 1.349 . S
C513 C511 1.327 . S
C513 C529 1.429 . S
C513 H535 0.950 . S
C514 H510 0.949 . S
C514 C522 1.574 . S
C514 C530 1.368 . S
H515 C523 0.950 . S
H516 C521 0.950 . S
H517 C522 0.949 . S
H518 C524 0.950 . S
H519 C525 0.950 . S
H520 C526 0.949 . S
C521 H516 0.950 . S
C521 C523 1.327 . S
C521 C527 1.429 . S
C522 C514 1.574 . S
C522 H517 0.949 . S
C522 C528 1.368 . S
C523 C507 1.349 . S
C523 H515 0.950 . S
C523 C521 1.327 . S
C524 C512 1.349 . S
C524 H518 0.950 . S
C524 C525 1.327 . S
C525 H519 0.950 . S
C525 C524 1.327 . S
C525 C529 1.429 . S
C526 C509 1.574 . S
C526 H520 0.949 . S
C526 C530 1.368 . S
C527 C508 1.429 . S
C527 C521 1.429 . S
C527 C528 1.523 . S
C528 C509 1.368 . S
C528 C522 1.368 . S
C528 C527 1.523 . S
C529 C513 1.429 . S
C529 C525 1.429 . S
C529 C530 1.523 . S
C530 C514 1.368 . S
C530 C526 1.368 . S
C530 C529 1.523 . S
H531 C506 0.950 . S
H532 C508 0.950 . S
H533 C509 0.949 . S
H534 C511 0.950 . S
H535 C513 0.950 . S
C536 C537 1.349 . S
C536 C538 1.327 . S
C536 H561 0.950 . S
C537 C536 1.349 . S
C537 C553 1.349 . S
C538 C536 1.327 . S
C538 C557 1.429 . S
C538 H562 0.950 . S
C539 C556 1.574 . S
C539 C558 1.368 . S
C539 H563 0.949 . S
H540 C544 0.949 . S
C541 C542 1.349 . S
C541 C543 1.327 . S
C541 H564 0.950 . S
C542 C541 1.349 . S
C542 C554 1.349 . S
C543 C541 1.327 . S
C543 C559 1.429 . S
C543 H565 0.950 . S
C544 H540 0.949 . S
C544 C552 1.574 . S
C544 C560 1.368 . S
H545 C553 0.950 . S
H546 C551 0.950 . S
H547 C552 0.949 . S
H548 C554 0.950 . S
H549 C555 0.950 . S
H550 C556 0.949 . S
C551 H546 0.950 . S
C551 C553 1.327 . S
C551 C557 1.429 . S
C552 C544 1.574 . S
C552 H547 0.949 . S
C552 C558 1.368 . S
C553 C537 1.349 . S
C553 H545 0.950 . S
C553 C551 1.327 . S
C554 C542 1.349 . S
C554 H548 0.950 . S
C554 C555 1.327 . S
C555 H549 0.950 . S
C555 C554 1.327 . S
C555 C559 1.429 . S
C556 C539 1.574 . S
C556 H550 0.949 . S
C556 C560 1.368 . S
C557 C538 1.429 . S
C557 C551 1.429 . S
C557 C558 1.523 . S
C558 C539 1.368 . S
C558 C552 1.368 . S
C558 C557 1.523 . S
C559 C543 1.429 . S
C559 C555 1.429 . S
C559 C560 1.523 . S
C560 C544 1.368 . S
C560 C556 1.368 . S
C560 C559 1.523 . S
H561 C536 0.950 . S
H562 C538 0.950 . S
H563 C539 0.949 . S
H564 C541 0.950 . S
H565 C543 0.950 . S
C566 C567 1.349 . S
C566 C568 1.327 . S
C566 H591 0.950 . S
C567 C566 1.349 . S
C567 C583 1.349 . S
C568 C566 1.327 . S
C568 C587 1.429 1_455 S
C568 H592 0.950 . S
C569 C586 1.574 . S
C569 C588 1.368 . S
C569 H593 0.949 . S
H570 C574 0.949 . S
C571 C572 1.349 . S
C571 C573 1.327 . S
C571 H594 0.950 . S
C572 C571 1.349 . S
C572 C584 1.349 . S
C573 C571 1.327 . S
C573 C589 1.429 . S
C573 H595 0.950 . S
C574 H570 0.949 . S
C574 C582 1.574 . S
C574 C590 1.368 . S
H575 C583 0.950 . S
H576 C581 0.950 1_655 S
H577 C582 0.949 . S
H578 C584 0.950 . S
H579 C585 0.950 . S
H580 C586 0.949 . S
C581 H576 0.950 1_455 S
C581 C583 1.327 . S
C581 C587 1.429 1_455 S
C582 C574 1.574 . S
C582 H577 0.949 . S
C582 C588 1.368 . S
C583 C567 1.349 . S
C583 H575 0.950 . S
C583 C581 1.327 . S
C584 C572 1.349 . S
C584 H578 0.950 . S
C584 C585 1.327 . S
C585 H579 0.950 . S
C585 C584 1.327 . S
C585 C589 1.429 . S
C586 C569 1.574 . S
C586 H580 0.949 . S
C586 C590 1.368 . S
C587 C568 1.429 1_655 S
C587 C581 1.429 1_655 S
C587 C588 1.523 . S
C588 C569 1.368 . S
C588 C582 1.368 . S
C588 C587 1.523 . S
C589 C573 1.429 . S
C589 C585 1.429 . S
C589 C590 1.523 . S
C590 C574 1.368 . S
C590 C586 1.368 . S
C590 C589 1.523 . S
H591 C566 0.950 . S
H592 C568 0.950 . S
H593 C569 0.949 . S
H594 C571 0.950 . S
H595 C573 0.950 . S
C596 C597 1.349 . S
C596 C598 1.327 . S
C596 H621 0.950 . S
C597 C596 1.349 . S
C597 C613 1.349 . S
C598 C596 1.327 . S
C598 C617 1.429 . S
C598 H622 0.950 . S
C599 C616 1.574 . S
C599 C618 1.368 . S
C599 H623 0.949 . S
H600 C604 0.949 . S
C601 C602 1.349 . S
C601 C603 1.327 . S
C601 H624 0.950 . S
C602 C601 1.349 . S
C602 C614 1.349 . S
C603 C601 1.327 . S
C603 C619 1.429 . S
C603 H625 0.950 . S
C604 H600 0.949 . S
C604 C612 1.574 . S
C604 C620 1.368 . S
H605 C613 0.950 . S
H606 C611 0.950 . S
H607 C612 0.949 . S
H608 C614 0.950 . S
H609 C615 0.950 . S
H610 C616 0.949 . S
C611 H606 0.950 . S
C611 C613 1.327 . S
C611 C617 1.429 . S
C612 C604 1.574 . S
C612 H607 0.949 . S
C612 C618 1.368 . S
C613 C597 1.349 . S
C613 H605 0.950 . S
C613 C611 1.327 . S
C614 C602 1.349 . S
C614 H608 0.950 . S
C614 C615 1.327 . S
C615 H609 0.950 . S
C615 C614 1.327 . S
C615 C619 1.429 . S
C616 C599 1.574 . S
C616 H610 0.949 . S
C616 C620 1.368 . S
C617 C598 1.429 . S
C617 C611 1.429 . S
C617 C618 1.523 . S
C618 C599 1.368 . S
C618 C612 1.368 . S
C618 C617 1.523 . S
C619 C603 1.429 . S
C619 C615 1.429 . S
C619 C620 1.523 . S
C620 C604 1.368 . S
C620 C616 1.368 . S
C620 C619 1.523 . S
H621 C596 0.950 . S
H622 C598 0.950 . S
H623 C599 0.949 . S
H624 C601 0.950 . S
H625 C603 0.950 . S
C626 C627 1.349 . S
C626 C628 1.327 . S
C626 H651 0.950 . S
C627 C626 1.349 . S
C627 C643 1.349 . S
C628 C626 1.327 . S
C628 C647 1.429 . S
C628 H652 0.950 . S
C629 C646 1.574 . S
C629 C648 1.368 . S
C629 H653 0.949 . S
H630 C634 0.949 . S
C631 C632 1.349 . S
C631 C633 1.327 . S
C631 H654 0.950 . S
C632 C631 1.349 . S
C632 C644 1.349 . S
C633 C631 1.327 . S
C633 C649 1.429 . S
C633 H655 0.950 . S
C634 H630 0.949 . S
C634 C642 1.574 1_455 S
C634 C650 1.368 . S
H635 C643 0.950 . S
H636 C641 0.950 . S
H637 C642 0.949 . S
H638 C644 0.950 . S
H639 C645 0.950 . S
H640 C646 0.949 . S
C641 H636 0.950 . S
C641 C643 1.327 . S
C641 C647 1.429 . S
C642 C634 1.574 1_655 S
C642 H637 0.949 . S
C642 C648 1.368 . S
C643 C627 1.349 . S
C643 H635 0.950 . S
C643 C641 1.327 . S
C644 C632 1.349 . S
C644 H638 0.950 . S
C644 C645 1.327 . S
C645 H639 0.950 . S
C645 C644 1.327 . S
C645 C649 1.429 . S
C646 C629 1.574 . S
C646 H640 0.949 . S
C646 C650 1.368 1_655 S
C647 C628 1.429 . S
C647 C641 1.429 . S
C647 C648 1.523 . S
C648 C629 1.368 . S
C648 C642 1.368 . S
C648 C647 1.523 . S
C649 C633 1.429 . S
C649 C645 1.429 . S
C649 C650 1.523 . S
C650 C634 1.368 . S
C650 C646 1.368 1_455 S
C650 C649 1.523 . S
H651 C626 0.950 . S
H652 C628 0.950 . S
H653 C629 0.949 . S
H654 C631 0.950 . S
H655 C633 0.950 . S
C656 C657 1.349 . S
C656 C658 1.327 . S
C656 H681 0.950 . S
C657 C656 1.349 . S
C657 C673 1.349 . S
C658 C656 1.327 . S
C658 C677 1.429 . S
C658 H682 0.950 . S
C659 C676 1.574 . S
C659 C678 1.368 . S
C659 H683 0.949 . S
H660 C664 0.949 . S
C661 C662 1.349 . S
C661 C663 1.327 . S
C661 H684 0.950 . S
C662 C661 1.349 . S
C662 C674 1.349 . S
C663 C661 1.327 . S
C663 C679 1.429 . S
C663 H685 0.950 . S
C664 H660 0.949 . S
C664 C672 1.574 . S
C664 C680 1.368 . S
H665 C673 0.950 . S
H666 C671 0.950 . S
H667 C672 0.949 . S
H668 C674 0.950 . S
H669 C675 0.950 . S
H670 C676 0.949 . S
C671 H666 0.950 . S
C671 C673 1.327 . S
C671 C677 1.429 . S
C672 C664 1.574 . S
C672 H667 0.949 . S
C672 C678 1.368 . S
C673 C657 1.349 . S
C673 H665 0.950 . S
C673 C671 1.327 . S
C674 C662 1.349 . S
C674 H668 0.950 . S
C674 C675 1.327 . S
C675 H669 0.950 . S
C675 C674 1.327 . S
C675 C679 1.429 . S
C676 C659 1.574 . S
C676 H670 0.949 . S
C676 C680 1.368 . S
C677 C658 1.429 . S
C677 C671 1.429 . S
C677 C678 1.523 . S
C678 C659 1.368 . S
C678 C672 1.368 . S
C678 C677 1.523 . S
C679 C663 1.429 . S
C679 C675 1.429 . S
C679 C680 1.523 . S
C680 C664 1.368 . S
C680 C676 1.368 . S
C680 C679 1.523 . S
H681 C656 0.950 . S
H682 C658 0.950 . S
H683 C659 0.949 . S
H684 C661 0.950 . S
H685 C663 0.950 . S
C686 C687 1.349 . S
C686 C688 1.327 . S
C686 H711 0.950 . S
C687 C686 1.349 . S
C687 C703 1.349 . S
C688 C686 1.327 . S
C688 C707 1.429 . S
C688 H712 0.950 . S
C689 C706 1.574 . S
C689 C708 1.368 . S
C689 H713 0.949 . S
H690 C694 0.949 . S
C691 C692 1.349 . S
C691 C693 1.327 . S
C691 H714 0.950 . S
C692 C691 1.349 . S
C692 C704 1.349 . S
C693 C691 1.327 . S
C693 C709 1.429 . S
C693 H715 0.950 . S
C694 H690 0.949 . S
C694 C702 1.574 . S
C694 C710 1.368 . S
H695 C703 0.950 . S
H696 C701 0.950 . S
H697 C702 0.949 . S
H698 C704 0.950 . S
H699 C705 0.950 . S
H700 C706 0.949 . S
C701 H696 0.950 . S
C701 C703 1.327 . S
C701 C707 1.429 . S
C702 C694 1.574 . S
C702 H697 0.949 . S
C702 C708 1.368 . S
C703 C687 1.349 . S
C703 H695 0.950 . S
C703 C701 1.327 . S
C704 C692 1.349 . S
C704 H698 0.950 . S
C704 C705 1.327 . S
C705 H699 0.950 . S
C705 C704 1.327 . S
C705 C709 1.429 . S
C706 C689 1.574 . S
C706 H700 0.949 . S
C706 C710 1.368 . S
C707 C688 1.429 . S
C707 C701 1.429 . S
C707 C708 1.523 . S
C708 C689 1.368 . S
C708 C702 1.368 . S
C708 C707 1.523 . S
C709 C693 1.429 . S
C709 C705 1.429 . S
C709 C710 1.523 . S
C710 C694 1.368 . S
C710 C706 1.368 . S
C710 C709 1.523 . S
H711 C686 0.950 . S
H712 C688 0.950 . S
H713 C689 0.949 . S
H714 C691 0.950 . S
H715 C693 0.950 . S
C716 C717 1.349 . S
C716 C718 1.327 . S
C716 H741 0.950 . S
C717 C716 1.349 . S
C717 C733 1.349 . S
C718 C716 1.327 . S
C718 C737 1.429 . S
C718 H742 0.950 . S
C719 C736 1.574 . S
C719 C738 1.368 . S
C719 H743 0.949 . S
H720 C724 0.949 . S
C721 C722 1.349 . S
C721 C723 1.327 . S
C721 H744 0.950 . S
C722 C721 1.349 . S
C722 C734 1.349 . S
C723 C721 1.327 . S
C723 C739 1.429 . S
C723 H745 0.950 . S
C724 H720 0.949 . S
C724 C732 1.574 . S
C724 C740 1.368 . S
H725 C733 0.950 . S
H726 C731 0.950 . S
H727 C732 0.949 . S
H728 C734 0.950 . S
H729 C735 0.950 . S
H730 C736 0.949 . S
C731 H726 0.950 . S
C731 C733 1.327 . S
C731 C737 1.429 . S
C732 C724 1.574 . S
C732 H727 0.949 . S
C732 C738 1.368 . S
C733 C717 1.349 . S
C733 H725 0.950 . S
C733 C731 1.327 . S
C734 C722 1.349 . S
C734 H728 0.950 . S
C734 C735 1.327 . S
C735 H729 0.950 . S
C735 C734 1.327 . S
C735 C739 1.429 . S
C736 C719 1.574 . S
C736 H730 0.949 . S
C736 C740 1.368 . S
C737 C718 1.429 . S
C737 C731 1.429 . S
C737 C738 1.523 . S
C738 C719 1.368 . S
C738 C732 1.368 . S
C738 C737 1.523 . S
C739 C723 1.429 . S
C739 C735 1.429 . S
C739 C740 1.523 . S
C740 C724 1.368 . S
C740 C736 1.368 . S
C740 C739 1.523 . S
H741 C716 0.950 . S
H742 C718 0.950 . S
H743 C719 0.949 . S
H744 C721 0.950 . S
H745 C723 0.950 . S
C746 C747 1.349 . S
C746 C748 1.327 . S
C746 H771 0.950 . S
C747 C746 1.349 . S
C747 C763 1.349 . S
C748 C746 1.327 . S
C748 C767 1.429 . S
C748 H772 0.950 . S
C749 C766 1.574 . S
C749 C768 1.368 . S
C749 H773 0.949 . S
H750 C754 0.949 . S
C751 C752 1.349 . S
C751 C753 1.327 . S
C751 H774 0.950 . S
C752 C751 1.349 . S
C752 C764 1.349 . S
C753 C751 1.327 . S
C753 C769 1.429 . S
C753 H775 0.950 . S
C754 H750 0.949 . S
C754 C762 1.574 . S
C754 C770 1.368 . S
H755 C763 0.950 . S
H756 C761 0.950 . S
H757 C762 0.949 . S
H758 C764 0.950 . S
H759 C765 0.950 . S
H760 C766 0.949 . S
C761 H756 0.950 . S
C761 C763 1.327 . S
C761 C767 1.429 . S
C762 C754 1.574 . S
C762 H757 0.949 . S
C762 C768 1.368 . S
C763 C747 1.349 . S
C763 H755 0.950 . S
C763 C761 1.327 . S
C764 C752 1.349 . S
C764 H758 0.950 . S
C764 C765 1.327 . S
C765 H759 0.950 . S
C765 C764 1.327 . S
C765 C769 1.429 . S
C766 C749 1.574 . S
C766 H760 0.949 . S
C766 C770 1.368 . S
C767 C748 1.429 . S
C767 C761 1.429 . S
C767 C768 1.523 . S
C768 C749 1.368 . S
C768 C762 1.368 . S
C768 C767 1.523 . S
C769 C753 1.429 . S
C769 C765 1.429 . S
C769 C770 1.523 . S
C770 C754 1.368 . S
C770 C766 1.368 . S
C770 C769 1.523 . S
H771 C746 0.950 . S
H772 C748 0.950 . S
H773 C749 0.949 . S
H774 C751 0.950 . S
H775 C753 0.950 . S
C776 C777 1.349 . S
C776 C778 1.327 . S
C776 H801 0.950 . S
C777 C776 1.349 . S
C777 C793 1.349 . S
C778 C776 1.327 . S
C778 C797 1.429 . S
C778 H802 0.950 . S
C779 C796 1.574 . S
C779 C798 1.368 . S
C779 H803 0.949 . S
H780 C784 0.949 . S
C781 C782 1.349 . S
C781 C783 1.327 . S
C781 H804 0.950 . S
C782 C781 1.349 . S
C782 C794 1.349 . S
C783 C781 1.327 . S
C783 C799 1.429 . S
C783 H805 0.950 . S
C784 H780 0.949 . S
C784 C792 1.574 . S
C784 C800 1.368 . S
H785 C793 0.950 . S
H786 C791 0.950 . S
H787 C792 0.949 . S
H788 C794 0.950 . S
H789 C795 0.950 . S
H790 C796 0.949 . S
C791 H786 0.950 . S
C791 C793 1.327 . S
C791 C797 1.429 . S
C792 C784 1.574 . S
C792 H787 0.949 . S
C792 C798 1.368 . S
C793 C777 1.349 . S
C793 H785 0.950 . S
C793 C791 1.327 . S
C794 C782 1.349 . S
C794 H788 0.950 . S
C794 C795 1.327 . S
C795 H789 0.950 . S
C795 C794 1.327 . S
C795 C799 1.429 . S
C796 C779 1.574 . S
C796 H790 0.949 . S
C796 C800 1.368 . S
C797 C778 1.429 . S
C797 C791 1.429 . S
C797 C798 1.523 . S
C798 C779 1.368 . S
C798 C792 1.368 . S
C798 C797 1.523 . S
C799 C783 1.429 . S
C799 C795 1.429 . S
C799 C800 1.523 . S
C800 C784 1.368 . S
C800 C796 1.368 . S
C800 C799 1.523 . S
H801 C776 0.950 . S
H802 C778 0.950 . S
H803 C779 0.949 . S
H804 C781 0.950 . S
H805 C783 0.950 . S
C806 C807 1.349 . S
C806 C808 1.327 . S
C806 H831 0.950 . S
C807 C806 1.349 . S
C807 C823 1.349 . S
C808 C806 1.327 . S
C808 C827 1.429 . S
C808 H832 0.950 . S
C809 C826 1.574 . S
C809 C828 1.368 . S
C809 H833 0.949 . S
H810 C814 0.949 . S
C811 C812 1.349 . S
C811 C813 1.327 . S
C811 H834 0.950 . S
C812 C811 1.349 . S
C812 C824 1.349 . S
C813 C811 1.327 . S
C813 C829 1.429 . S
C813 H835 0.950 . S
C814 H810 0.949 . S
C814 C822 1.574 . S
C814 C830 1.368 . S
H815 C823 0.950 . S
H816 C821 0.950 . S
H817 C822 0.949 . S
H818 C824 0.950 . S
H819 C825 0.950 . S
H820 C826 0.949 . S
C821 H816 0.950 . S
C821 C823 1.327 . S
C821 C827 1.429 . S
C822 C814 1.574 . S
C822 H817 0.949 . S
C822 C828 1.368 . S
C823 C807 1.349 . S
C823 H815 0.950 . S
C823 C821 1.327 . S
C824 C812 1.349 . S
C824 H818 0.950 . S
C824 C825 1.327 . S
C825 H819 0.950 . S
C825 C824 1.327 . S
C825 C829 1.429 . S
C826 C809 1.574 . S
C826 H820 0.949 . S
C826 C830 1.368 . S
C827 C808 1.429 . S
C827 C821 1.429 . S
C827 C828 1.523 . S
C828 C809 1.368 . S
C828 C822 1.368 . S
C828 C827 1.523 . S
C829 C813 1.429 . S
C829 C825 1.429 . S
C829 C830 1.523 . S
C830 C814 1.368 . S
C830 C826 1.368 . S
C830 C829 1.523 . S
H831 C806 0.950 . S
H832 C808 0.950 . S
H833 C809 0.949 . S
H834 C811 0.950 . S
H835 C813 0.950 . S
C836 C837 1.349 . S
C836 C838 1.327 . S
C836 H861 0.950 . S
C837 C836 1.349 . S
C837 C853 1.349 . S
C838 C836 1.327 . S
C838 C857 1.429 . S
C838 H862 0.950 . S
C839 C856 1.574 . S
C839 C858 1.368 . S
C839 H863 0.949 . S
H840 C844 0.949 . S
C841 C842 1.349 . S
C841 C843 1.327 . S
C841 H864 0.950 . S
C842 C841 1.349 . S
C842 C854 1.349 . S
C843 C841 1.327 . S
C843 C859 1.429 . S
C843 H865 0.950 . S
C844 H840 0.949 . S
C844 C852 1.574 . S
C844 C860 1.368 . S
H845 C853 0.950 . S
H846 C851 0.950 . S
H847 C852 0.949 . S
H848 C854 0.950 . S
H849 C855 0.950 . S
H850 C856 0.949 . S
C851 H846 0.950 . S
C851 C853 1.327 . S
C851 C857 1.429 . S
C852 C844 1.574 . S
C852 H847 0.949 . S
C852 C858 1.368 . S
C853 C837 1.349 . S
C853 H845 0.950 . S
C853 C851 1.327 . S
C854 C842 1.349 . S
C854 H848 0.950 . S
C854 C855 1.327 . S
C855 H849 0.950 . S
C855 C854 1.327 . S
C855 C859 1.429 . S
C856 C839 1.574 . S
C856 H850 0.949 . S
C856 C860 1.368 . S
C857 C838 1.429 . S
C857 C851 1.429 . S
C857 C858 1.523 . S
C858 C839 1.368 . S
C858 C852 1.368 . S
C858 C857 1.523 . S
C859 C843 1.429 . S
C859 C855 1.429 . S
C859 C860 1.523 . S
C860 C844 1.368 . S
C860 C856 1.368 . S
C860 C859 1.523 . S
H861 C836 0.950 . S
H862 C838 0.950 . S
H863 C839 0.949 . S
H864 C841 0.950 . S
H865 C843 0.950 . S
C866 C867 1.349 . S
C866 C868 1.327 . S
C866 H891 0.950 . S
C867 C866 1.349 . S
C867 C883 1.349 1_556 S
C868 C866 1.327 . S
C868 C887 1.429 . S
C868 H892 0.950 . S
C869 C886 1.574 . S
C869 C888 1.368 . S
C869 H893 0.949 . S
H870 C874 0.949 . S
C871 C872 1.349 . S
C871 C873 1.327 . S
C871 H894 0.950 . S
C872 C871 1.349 . S
C872 C884 1.349 . S
C873 C871 1.327 . S
C873 C889 1.429 . S
C873 H895 0.950 . S
C874 H870 0.949 . S
C874 C882 1.574 . S
C874 C890 1.368 . S
H875 C883 0.950 . S
H876 C881 0.949 . S
H877 C882 0.949 . S
H878 C884 0.950 . S
H879 C885 0.950 . S
H880 C886 0.949 . S
C881 H876 0.949 . S
C881 C883 1.327 . S
C881 C887 1.429 1_554 S
C882 C874 1.574 . S
C882 H877 0.949 . S
C882 C888 1.368 . S
C883 C867 1.349 1_554 S
C883 H875 0.950 . S
C883 C881 1.327 . S
C884 C872 1.349 . S
C884 H878 0.950 . S
C884 C885 1.327 . S
C885 H879 0.950 . S
C885 C884 1.327 . S
C885 C889 1.429 . S
C886 C869 1.574 . S
C886 H880 0.949 . S
C886 C890 1.368 . S
C887 C868 1.429 . S
C887 C881 1.429 1_556 S
C887 C888 1.523 . S
C888 C869 1.368 . S
C888 C882 1.368 . S
C888 C887 1.523 . S
C889 C873 1.429 . S
C889 C885 1.429 . S
C889 C890 1.523 . S
C890 C874 1.368 . S
C890 C886 1.368 . S
C890 C889 1.523 . S
H891 C866 0.950 . S
H892 C868 0.950 . S
H893 C869 0.949 . S
H894 C871 0.950 . S
H895 C873 0.950 . S
C177 C7 1.400 . S
C182 C93 1.347 . S
C207 C37 1.318 . S
C212 C104 1.251 . S
C237 C54 1.270 . S
C242 C114 1.220 . S
C272 C126 1.330 . S
C267 C87 1.352 . S
C302 C137 1.305 . S
C297 C30 1.364 . S
C327 C51 1.366 . S
C332 C148 1.343 . S
C357 C84 1.316 . S
C362 C158 1.261 . S
C387 C10 1.282 . S
C392 C170 1.212 . S
C417 C59 1.281 . S
C422 C169 1.264 . S
C452 C136 1.071 . S
C447 C74 1.101 . S
C482 C147 1.228 . S
C477 C18 1.267 . S
C507 C32 1.363 . S
C512 C159 1.325 . S
C542 C103 1.249 . S
C537 C73 1.269 . S
C567 C15 1.370 . S
C572 C115 1.345 . S
C602 C125 1.264 . S
C597 C43 1.294 . S
C632 C92 1.072 . S
C627 C62 1.101 . S
C662 C164 1.420 . S
C657 C21 1.439 . S
C692 C175 1.395 . S
C687 C29 1.391 . S
C717 C52 1.303 . S
C722 C142 1.295 . S
C752 C153 1.357 . S
C747 C81 1.378 . S
C782 C120 1.384 . S
C777 C40 1.404 . S
C807 C65 1.382 . S
C812 C131 1.361 . S
C842 C98 1.306 . S
C837 C76 1.314 . S
C872 C109 1.397 . S
C867 C8 1.402 1_556 S
