# Generated by pormake.
# Topology sqc, (4,8)-cn, num edge types: 1
# Building blocks:
#     Node 0, Type 0, BuildingBlock: NAWXER_clean_linker_0, # of connection points: 4
#     Node 1, Type 0, BuildingBlock: NAWXER_clean_linker_0, # of connection points: 4
#     Node 2, Type 0, BuildingBlock: NAWXER_clean_linker_0, # of connection points: 4
#     Node 3, Type 0, BuildingBlock: NAWXER_clean_linker_0, # of connection points: 4
#     Node 4, Type 0, BuildingBlock: NAWXER_clean_linker_0, # of connection points: 4
#     Node 5, Type 0, BuildingBlock: NAWXER_clean_linker_0, # of connection points: 4
#     Node 6, Type 0, BuildingBlock: NAWXER_clean_linker_0, # of connection points: 4
#     Node 7, Type 0, BuildingBlock: NAWXER_clean_linker_0, # of connection points: 4
#     Node 8, Type 1, BuildingBlock: VETTIZ_charged_sbu_0, # of connection points: 8
#     Node 9, Type 1, BuildingBlock: VETTIZ_charged_sbu_0, # of connection points: 8
#     Node 10, Type 1, BuildingBlock: VETTIZ_charged_sbu_0, # of connection points: 8
#     Node 11, Type 1, BuildingBlock: VETTIZ_charged_sbu_0, # of connection points: 8
#     Edge 12, Type (0, 1), BuildingBlock: ZUJKAS_clean_linker_0, # of connection points: 2
#     Edge 13, Type (0, 1), BuildingBlock: ZUJKAS_clean_linker_0, # of connection points: 2
#     Edge 14, Type (0, 1), BuildingBlock: ZUJKAS_clean_linker_0, # of connection points: 2
#     Edge 15, Type (0, 1), BuildingBlock: ZUJKAS_clean_linker_0, # of connection points: 2
#     Edge 16, Type (0, 1), BuildingBlock: ZUJKAS_clean_linker_0, # of connection points: 2
#     Edge 17, Type (0, 1), BuildingBlock: ZUJKAS_clean_linker_0, # of connection points: 2
#     Edge 18, Type (0, 1), BuildingBlock: ZUJKAS_clean_linker_0, # of connection points: 2
#     Edge 19, Type (0, 1), BuildingBlock: ZUJKAS_clean_linker_0, # of connection points: 2
#     Edge 20, Type (0, 1), BuildingBlock: ZUJKAS_clean_linker_0, # of connection points: 2
#     Edge 21, Type (0, 1), BuildingBlock: ZUJKAS_clean_linker_0, # of connection points: 2
#     Edge 22, Type (0, 1), BuildingBlock: ZUJKAS_clean_linker_0, # of connection points: 2
#     Edge 23, Type (0, 1), BuildingBlock: ZUJKAS_clean_linker_0, # of connection points: 2
#     Edge 24, Type (0, 1), BuildingBlock: ZUJKAS_clean_linker_0, # of connection points: 2
#     Edge 25, Type (0, 1), BuildingBlock: ZUJKAS_clean_linker_0, # of connection points: 2
#     Edge 26, Type (0, 1), BuildingBlock: ZUJKAS_clean_linker_0, # of connection points: 2
#     Edge 27, Type (0, 1), BuildingBlock: ZUJKAS_clean_linker_0, # of connection points: 2
#     Edge 28, Type (0, 1), BuildingBlock: ZUJKAS_clean_linker_0, # of connection points: 2
#     Edge 29, Type (0, 1), BuildingBlock: ZUJKAS_clean_linker_0, # of connection points: 2
#     Edge 30, Type (0, 1), BuildingBlock: ZUJKAS_clean_linker_0, # of connection points: 2
#     Edge 31, Type (0, 1), BuildingBlock: ZUJKAS_clean_linker_0, # of connection points: 2
#     Edge 32, Type (0, 1), BuildingBlock: ZUJKAS_clean_linker_0, # of connection points: 2
#     Edge 33, Type (0, 1), BuildingBlock: ZUJKAS_clean_linker_0, # of connection points: 2
#     Edge 34, Type (0, 1), BuildingBlock: ZUJKAS_clean_linker_0, # of connection points: 2
#     Edge 35, Type (0, 1), BuildingBlock: ZUJKAS_clean_linker_0, # of connection points: 2
#     Edge 36, Type (0, 1), BuildingBlock: ZUJKAS_clean_linker_0, # of connection points: 2
#     Edge 37, Type (0, 1), BuildingBlock: ZUJKAS_clean_linker_0, # of connection points: 2
#     Edge 38, Type (0, 1), BuildingBlock: ZUJKAS_clean_linker_0, # of connection points: 2
#     Edge 39, Type (0, 1), BuildingBlock: ZUJKAS_clean_linker_0, # of connection points: 2
#     Edge 40, Type (0, 1), BuildingBlock: ZUJKAS_clean_linker_0, # of connection points: 2
#     Edge 41, Type (0, 1), BuildingBlock: ZUJKAS_clean_linker_0, # of connection points: 2
#     Edge 42, Type (0, 1), BuildingBlock: ZUJKAS_clean_linker_0, # of connection points: 2
#     Edge 43, Type (0, 1), BuildingBlock: ZUJKAS_clean_linker_0, # of connection points: 2
# Relax obj value: 0.124
# Max RMSD: 0.266
# Mean RMSD: 0.155
data_MOF--net-sqc--node1-VETTIZ_charged_sbu_0--node2-NAWXER_clean_linker_0--edge1-ZUJKAS_clean_linker_0
_symmetry_space_group_name_H-M    P1
_symmetry_Int_Tables_number       1
_symmetry_cell_setting            triclinic
loop_
_symmetry_equiv_pos_as_xyz
'x, y, z'
_cell_length_a     34.817421
_cell_length_b     34.797873
_cell_length_c     103.45123
_cell_angle_alpha  90.245013
_cell_angle_beta   90.112861
_cell_angle_gamma 90.42811
loop_
_atom_site_label
_atom_site_type_symbol
_atom_site_fract_x
_atom_site_fract_y
_atom_site_fract_z
_atom_type_partial_charge
C0 C 0.12575 0.00928 0.48764 0.0
C1 C 0.12688 0.97105 0.48315 0.0
C2 C 0.09561 0.02171 0.49555 0.0
C3 C 0.0661 0.99611 0.49909 0.0
C4 C 0.09746 0.94552 0.48685 0.0
C5 C 0.06732 0.95799 0.49465 0.0
C6 C 0.03196 0.00923 0.50634 0.0
C7 C 0.1317 0.02274 0.53447 0.0
C8 C 0.13622 0.05987 0.53978 0.0
C9 C 0.09893 0.01298 0.52722 0.0
C10 C 0.07005 0.04025 0.52498 0.0
C11 C 0.10715 0.08696 0.53755 0.0
C12 C 0.07451 0.07722 0.5303 0.0
C13 C 0.0337 0.03008 0.51811 0.0
C14 C 0.8688 0.02607 0.5358 0.0
C15 C 0.86571 0.06327 0.54107 0.0
C16 C 0.90096 0.01578 0.52852 0.0
C17 C 0.93046 0.04264 0.52618 0.0
C18 C 0.89577 0.08976 0.53896 0.0
C19 C 0.92783 0.07949 0.53164 0.0
C20 C 0.96491 0.03216 0.51857 0.0
C21 C 0.86405 0.02353 0.49126 0.0
C22 C 0.85923 0.98808 0.4848 0.0
C23 C 0.89765 0.03174 0.49825 0.0
C24 C 0.9269 0.00425 0.49934 0.0
C25 C 0.88919 0.96116 0.48557 0.0
C26 C 0.92243 0.96911 0.49276 0.0
C27 C 0.96322 0.01248 0.50657 0.0
H28 H 0.14807 0.02959 0.48499 0.0
H29 H 0.09487 0.05149 0.49861 0.0
H30 H 0.09712 0.91608 0.48341 0.0
H31 H 0.04461 0.93787 0.49712 0.0
H32 H 0.15349 1.00114 0.53593 0.0
H33 H 0.09585 0.98387 0.52361 0.0
H34 H 0.10912 0.11557 0.54166 0.0
H35 H 0.05249 0.09866 0.52892 0.0
H36 H 0.84617 0.00498 0.53719 0.0
H37 H 0.90278 0.98678 0.52473 0.0
H38 H 0.89478 0.11838 0.54309 0.0
H39 H 0.9505 0.1005 0.53016 0.0
H40 H 0.84178 0.04505 0.49103 0.0
H41 H 0.90075 0.05979 0.50271 0.0
H42 H 0.88735 0.93398 0.48048 0.0
H43 H 0.94476 0.94763 0.49317 0.0
N44 N 0.99687 1.00143 0.50108 0.0
N45 N 1.00001 0.0406 0.52371 0.0
C46 C 0.30562 0.63123 0.74679 0.0
C47 C 0.29681 0.62333 0.73376 0.0
C48 C 0.28951 0.6629 0.7531 0.0
C49 C 0.26384 0.68705 0.74657 0.0
C50 C 0.27115 0.64762 0.72726 0.0
C51 C 0.25504 0.6792 0.73357 0.0
C52 C 0.24827 0.7221 0.75281 0.0
C53 C 0.19938 0.62284 0.77559 0.0
C54 C 0.20981 0.62245 0.78875 0.0
C55 C 0.20705 0.65507 0.76793 0.0
C56 C 0.22568 0.68754 0.7732 0.0
C57 C 0.22858 0.65498 0.79397 0.0
C58 C 0.23617 0.6872 0.7863 0.0
C59 C 0.2323 0.7227 0.76538 0.0
C60 C 0.17225 0.88562 0.76905 0.0
C61 C 0.18267 0.89473 0.78187 0.0
C62 C 0.18476 0.85157 0.76324 0.0
C63 C 0.2088 0.82624 0.76997 0.0
C64 C 0.20546 0.86847 0.78875 0.0
C65 C 0.21832 0.83465 0.78287 0.0
C66 C 0.22368 0.79074 0.76376 0.0
C67 C 0.27079 0.8904 0.74093 0.0
C68 C 0.2596 0.89075 0.72786 0.0
C69 C 0.26459 0.85778 0.74853 0.0
C70 C 0.24633 0.82506 0.7433 0.0
C71 C 0.24208 0.85768 0.72257 0.0
C72 C 0.23561 0.82518 0.73021 0.0
C73 C 0.23973 0.79007 0.75119 0.0
H74 H 0.32577 0.61353 0.75203 0.0
H75 H 0.29782 0.66897 0.763 0.0
H76 H 0.26335 0.64215 0.71728 0.0
H77 H 0.23557 0.69755 0.72829 0.0
H78 H 0.18421 0.59869 0.77129 0.0
H79 H 0.19759 0.65492 0.75795 0.0
H80 H 0.23744 0.65561 0.804 0.0
H81 H 0.25038 0.71192 0.79063 0.0
H82 H 0.15491 0.90504 0.7634 0.0
H83 H 0.17584 0.84524 0.75342 0.0
H84 H 0.21328 0.87387 0.79873 0.0
H85 H 0.23623 0.81529 0.78836 0.0
H86 H 0.28513 0.91508 0.74523 0.0
H87 H 0.27439 0.85805 0.75847 0.0
H88 H 0.23301 0.85706 0.71255 0.0
H89 H 0.22186 0.80018 0.7259 0.0
N90 N 0.25108 0.75576 0.74622 0.0
N91 N 0.2209 0.75706 0.77037 0.0
C92 C 0.37159 0.05425 0.99724 0.0
C93 C 0.37085 0.09362 0.99431 0.0
C94 C 0.40499 0.03745 1.00205 0.0
C95 C 0.43807 0.05989 0.00435 0.0
C96 C 0.40424 0.11585 0.99627 0.0
C97 C 0.43752 0.09913 1.00124 0.0
C98 C 0.47371 0.04247 0.00949 0.0
C99 C 0.38535 0.02311 0.0411 0.0
C100 C 0.37911 0.98429 0.04428 0.0
C101 C 0.41561 0.03371 0.03293 0.0
C102 C 0.43977 0.0056 0.02762 0.0
C103 C 0.40319 0.95628 0.03886 0.0
C104 C 0.43325 0.96685 0.03068 0.0
C105 C 0.47398 0.01613 0.01986 0.0
C106 C 0.63761 0.99954 0.03451 0.0
C107 C 0.63644 0.96071 0.03828 0.0
C108 C 0.60797 0.01503 0.02706 0.0
C109 C 0.57676 0.99189 0.02318 0.0
C110 C 0.60591 0.93736 0.03392 0.0
C111 C 0.57635 0.95284 0.02651 0.0
C112 C 0.54179 0.00893 0.01752 0.0
C113 C 0.63294 0.02606 0.98728 0.0
C114 C 0.64073 0.06461 0.9841 0.0
C115 C 0.60115 0.01642 0.9949 0.0
C116 C 0.57657 0.04515 0.99958 0.0
C117 C 0.61597 0.09326 0.98875 0.0
C118 C 0.58412 0.08359 0.99633 0.0
C119 C 0.54173 0.03526 0.00716 0.0
H120 H 0.34656 0.03624 0.99554 0.0
H121 H 0.40499 0.00681 0.00383 0.0
H122 H 0.40449 0.14626 0.99407 0.0
H123 H 0.46278 0.11695 1.00278 0.0
H124 H 0.3676 0.0454 0.04525 0.0
H125 H 0.4207 0.0639 0.03104 0.0
H126 H 0.39883 0.9261 0.04097 0.0
H127 H 0.45164 0.94467 0.02678 0.0
H128 H 0.66093 0.01819 0.03761 0.0
H129 H 0.60855 0.04545 0.02489 0.0
H130 H 0.60381 0.9075 0.03677 0.0
H131 H 0.55234 0.93454 0.02376 0.0
H132 H 0.65149 0.0033 0.9839 0.0
H133 H 0.59546 0.98642 0.99694 0.0
H134 H 0.62076 0.12316 0.98632 0.0
H135 H 0.56533 0.10623 0.99967 0.0
N136 N 0.50766 0.05113 0.00361 0.0
N137 N 0.50794 1.00042 0.02337 0.0
C138 C 0.22767 0.14065 0.24137 0.0
C139 C 0.18939 0.13873 0.23694 0.0
C140 C 0.24122 0.17282 0.24827 0.0
C141 C 0.21675 0.20376 0.25102 0.0
C142 C 0.16512 0.16994 0.23962 0.0
C143 C 0.17871 0.20208 0.2465 0.0
C144 C 0.23078 0.23893 0.2579 0.0
C145 C 0.24936 0.14407 0.28775 0.0
C146 C 0.28845 0.13962 0.29084 0.0
C147 C 0.2373 0.17539 0.28036 0.0
C148 C 0.26417 0.20273 0.27606 0.0
C149 C 0.31521 0.16669 0.28627 0.0
C150 C 0.30314 0.19806 0.27904 0.0
C151 C 0.25219 0.23824 0.26951 0.0
C152 C 0.24967 0.40406 0.2872 0.0
C153 C 0.28407 0.40422 0.29439 0.0
C154 C 0.24032 0.3731 0.27901 0.0
C155 C 0.26548 0.34187 0.27762 0.0
C156 C 0.30924 0.37308 0.29292 0.0
C157 C 0.30003 0.34235 0.28468 0.0
C158 C 0.25479 0.30701 0.26991 0.0
C159 C 0.25873 0.40021 0.23997 0.0
C160 C 0.22551 0.40468 0.23243 0.0
C161 C 0.26183 0.36934 0.24851 0.0
C162 C 0.23131 0.34295 0.24993 0.0
C163 C 0.19498 0.37844 0.23388 0.0
C164 C 0.19786 0.34791 0.24253 0.0
C165 C 0.2357 0.30774 0.25781 0.0
H166 H 0.2472 0.11718 0.23955 0.0
H167 H 0.27104 0.17368 0.25125 0.0
H168 H 0.13572 0.16991 0.2362 0.0
H169 H 0.15935 0.22573 0.2483 0.0
H170 H 0.22817 0.12354 0.29114 0.0
H171 H 0.20699 0.17887 0.27833 0.0
H172 H 0.34541 0.16436 0.28866 0.0
H173 H 0.32425 0.21908 0.27591 0.0
H174 H 0.22937 0.42729 0.28823 0.0
H175 H 0.21287 0.37314 0.27407 0.0
H176 H 0.33619 0.37242 0.29815 0.0
H177 H 0.31994 0.31867 0.2839 0.0
H178 H 0.28288 0.41974 0.2389 0.0
H179 H 0.28864 0.36545 0.25364 0.0
H180 H 0.1689 0.38143 0.22825 0.0
H181 H 0.1741 0.32777 0.24331 0.0
N182 N 0.22375 0.27375 0.25248 0.0
N183 N 0.26284 0.27215 0.27508 0.0
C184 C 0.82057 0.12257 0.2506 0.0
C185 C 0.80715 0.11431 0.23804 0.0
C186 C 0.80662 0.15424 0.25743 0.0
C187 C 0.77877 0.17809 0.25188 0.0
C188 C 0.77905 0.13814 0.23257 0.0
C189 C 0.76523 0.16985 0.2394 0.0
C190 C 0.76587 0.2133 0.25858 0.0
C191 C 0.72065 0.11597 0.28348 0.0
C192 C 0.73363 0.11633 0.29638 0.0
C193 C 0.72818 0.14708 0.27528 0.0
C194 C 0.74917 0.17915 0.27976 0.0
C195 C 0.75508 0.14828 0.30076 0.0
C196 C 0.76252 0.17936 0.29258 0.0
C197 C 0.75426 0.21404 0.27166 0.0
C198 C 0.69123 0.37186 0.27902 0.0
C199 C 0.70352 0.37844 0.2918 0.0
C200 C 0.70607 0.34128 0.27184 0.0
C201 C 0.73387 0.31711 0.27726 0.0
C202 C 0.73177 0.35455 0.29711 0.0
C203 C 0.74665 0.32412 0.28993 0.0
C204 C 0.74686 0.2822 0.27041 0.0
C205 C 0.78823 0.38166 0.24618 0.0
C206 C 0.77529 0.38168 0.23328 0.0
C207 C 0.78262 0.34945 0.25405 0.0
C208 C 0.76332 0.31667 0.24928 0.0
C209 C 0.75632 0.34871 0.2285 0.0
C210 C 0.75052 0.31659 0.23639 0.0
C211 C 0.75849 0.28154 0.25732 0.0
H212 H 0.84269 0.10523 0.255 0.0
H213 H 0.81839 0.16066 0.2669 0.0
H214 H 0.76771 0.13232 0.223 0.0
H215 H 0.74393 0.18802 0.2349 0.0
H216 H 0.70346 0.09224 0.27982 0.0
H217 H 0.71646 0.14656 0.26557 0.0
H218 H 0.76603 0.14942 0.31056 0.0
H219 H 0.77856 0.20381 0.29631 0.0
H220 H 0.66908 0.38944 0.27473 0.0
H221 H 0.69485 0.33578 0.26223 0.0
H222 H 0.74213 0.35918 0.30688 0.0
H223 H 0.76788 0.30567 0.29433 0.0
H224 H 0.8037 0.40619 0.25011 0.0
H225 H 0.79413 0.34995 0.26378 0.0
H226 H 0.74576 0.34778 0.21864 0.0
H227 H 0.73589 0.29161 0.23241 0.0
N228 N 0.76733 0.24699 0.25193 0.0
N229 N 0.74542 0.24853 0.27702 0.0
C230 C 0.73146 0.90196 0.74045 0.0
C231 C 0.74754 0.90445 0.72799 0.0
C232 C 0.73779 0.86963 0.74817 0.0
C233 C 0.76049 0.83931 0.7436 0.0
C234 C 0.77079 0.87422 0.72359 0.0
C235 C 0.77691 0.84193 0.73127 0.0
C236 C 0.76516 0.80346 0.75107 0.0
C237 C 0.82313 0.89825 0.77417 0.0
C238 C 0.80898 0.90245 0.78683 0.0
C239 C 0.81346 0.86589 0.76669 0.0
C240 C 0.78893 0.83724 0.77163 0.0
C241 C 0.78475 0.8735 0.79178 0.0
C242 C 0.77502 0.84126 0.78429 0.0
C243 C 0.7786 0.80231 0.76398 0.0
C244 C 0.8135 0.63354 0.76935 0.0
C245 C 0.80635 0.62838 0.78261 0.0
C246 C 0.80291 0.66749 0.76316 0.0
C247 C 0.78416 0.69689 0.77 0.0
C248 C 0.78803 0.65808 0.78948 0.0
C249 C 0.77721 0.69198 0.78325 0.0
C250 C 0.77402 0.73357 0.76354 0.0
C251 C 0.70075 0.64414 0.74362 0.0
C252 C 0.70904 0.63796 0.73046 0.0
C253 C 0.71703 0.67526 0.75034 0.0
C254 C 0.74218 0.70088 0.74408 0.0
C255 C 0.73418 0.66379 0.72423 0.0
C256 C 0.75029 0.69502 0.73094 0.0
C257 C 0.75808 0.73507 0.75097 0.0
H258 H 0.71292 0.92438 0.74409 0.0
H259 H 0.72411 0.86786 0.75755 0.0
H260 H 0.78414 0.87537 0.71415 0.0
H261 H 0.79443 0.81881 0.72753 0.0
H262 H 0.84246 0.91955 0.77013 0.0
H263 H 0.82566 0.86303 0.75712 0.0
H264 H 0.773 0.87587 0.80143 0.0
H265 H 0.75625 0.81953 0.78837 0.0
H266 H 0.82731 0.61132 0.76371 0.0
H267 H 0.80995 0.6709 0.75304 0.0
H268 H 0.78272 0.65551 0.79975 0.0
H269 H 0.76339 0.71441 0.7888 0.0
H270 H 0.68094 0.62544 0.7487 0.0
H271 H 0.70931 0.67972 0.76037 0.0
H272 H 0.74169 0.65977 0.71417 0.0
H273 H 0.76936 0.71451 0.72587 0.0
N274 N 0.75511 0.76987 0.74516 0.0
N275 N 0.78282 0.7673 0.76965 0.0
C276 C 0.63658 0.47564 1.00088 0.0
C277 C 0.63883 0.43682 0.99713 0.0
C278 C 0.60312 0.48997 0.00657 0.0
C279 C 0.57154 0.46556 0.0089 0.0
C280 C 0.60695 0.41265 0.99925 0.0
C281 C 0.57369 0.42689 0.00505 0.0
C282 C 0.53548 0.48014 0.01474 0.0
C283 C 0.62889 0.501 0.04459 0.0
C284 C 0.63339 0.53968 0.04839 0.0
C285 C 0.59691 0.48915 0.03729 0.0
C286 C 0.56906 0.51584 0.03341 0.0
C287 C 0.60515 0.56616 0.04465 0.0
C288 C 0.57336 0.55435 0.0373 0.0
C289 C 0.53441 0.50395 0.02588 0.0
C290 C 0.36807 0.50309 0.0406 0.0
C291 C 0.36327 0.5418 0.04418 0.0
C292 C 0.40096 0.49145 0.03392 0.0
C293 C 0.42971 0.51831 0.03071 0.0
C294 C 0.39205 0.56859 0.04091 0.0
C295 C 0.42508 0.55688 0.03436 0.0
C296 C 0.46577 0.50605 0.02437 0.0
C297 C 0.37185 0.48995 0.99469 0.0
C298 C 0.36839 0.45299 0.98917 0.0
C299 C 0.40348 0.4998 1.00246 0.0
C300 C 0.43211 0.47269 0.00522 0.0
C301 C 0.3975 0.42616 0.99176 0.0
C302 C 0.42886 0.4359 0.99966 0.0
C303 C 0.46681 0.483 0.01306 0.0
H304 H 0.66036 0.49516 0.99914 0.0
H305 H 0.60183 0.52024 0.00899 0.0
H306 H 0.60783 0.38258 0.99652 0.0
H307 H 0.54963 0.40754 0.00661 0.0
H308 H 0.64971 0.47971 0.04747 0.0
H309 H 0.59377 0.45902 0.03481 0.0
H310 H 0.6078 0.59622 0.04729 0.0
H311 H 0.5522 0.57549 0.03455 0.0
H312 H 0.34635 0.48181 0.04295 0.0
H313 H 0.40423 0.46138 0.03145 0.0
H314 H 0.38943 0.59851 0.04368 0.0
H315 H 0.44708 0.578 0.03213 0.0
H316 H 0.35009 0.51145 0.99306 0.0
H317 H 0.40572 0.52893 0.00611 0.0
H318 H 0.39657 0.39772 0.9875 0.0
H319 H 0.45075 0.41455 1.00139 0.0
N320 N 0.50166 0.4707 0.00883 0.0
N321 N 0.49956 0.51591 0.03018 0.0
C322 C 0.87622 0.49201 0.52726 0.0
C323 C 0.87054 0.45453 0.53202 0.0
C324 C 0.90702 0.50026 0.51898 0.0
C325 C 0.93246 0.4711 0.51524 0.0
C326 C 0.8951 0.42522 0.52776 0.0
C327 C 0.92579 0.43347 0.51956 0.0
C328 C 0.96915 0.48002 0.50864 0.0
C329 C 0.87914 0.50835 0.4785 0.0
C330 C 0.8827 0.54489 0.47285 0.0
C331 C 0.90767 0.4947 0.48682 0.0
C332 C 0.93985 0.51771 0.48987 0.0
C333 C 0.91459 0.56799 0.47604 0.0
C334 C 0.9428 0.55456 0.48444 0.0
C335 C 0.97274 0.50266 0.49739 0.0
C336 C 0.14057 0.48569 0.48374 0.0
C337 C 0.14668 0.52221 0.47832 0.0
C338 C 0.10673 0.4775 0.49052 0.0
C339 C 0.0786 0.50589 0.49222 0.0
C340 C 0.11854 0.55054 0.48005 0.0
C341 C 0.08489 0.54243 0.48689 0.0
C342 C 0.04128 0.4972 0.49856 0.0
C343 C 0.12566 0.47829 0.53138 0.0
C344 C 0.12525 0.44095 0.53655 0.0
C345 C 0.0983 0.48912 0.5222 0.0
C346 C 0.07024 0.46271 0.51796 0.0
C347 C 0.09787 0.4143 0.53195 0.0
C348 C 0.0705 0.42517 0.52283 0.0
C349 C 0.03755 0.47516 0.50992 0.0
H350 H 0.85802 0.51532 0.53042 0.0
H351 H 0.91206 0.52971 0.51605 0.0
H352 H 0.89111 0.3959 0.531 0.0
H353 H 0.94511 0.41053 0.51686 0.0
H354 H 0.85502 0.4898 0.47609 0.0
H355 H 0.9052 0.46566 0.49045 0.0
H356 H 0.91784 0.59646 0.47197 0.0
H357 H 0.96737 0.57285 0.48655 0.0
H358 H 0.16144 0.4631 0.48242 0.0
H359 H 0.10217 0.44864 0.4941 0.0
H360 H 0.12256 0.57911 0.47614 0.0
H361 H 0.06363 0.56479 0.48797 0.0
H362 H 0.14606 0.49965 0.53482 0.0
H363 H 0.09803 0.51858 0.51886 0.0
H364 H 0.09719 0.38512 0.53555 0.0
H365 H 0.04896 0.40441 0.51976 0.0
N366 N 1.00173 0.46729 0.51439 0.0
N367 N 0.00869 0.51019 0.49284 0.0
Fe368 Fe 0.0111 0.72771 0.16935 0.0
O369 O 0.01149 0.73036 0.15039 0.0
Fe370 Fe 0.96157 0.75079 0.14124 0.0
Fe371 Fe 0.05052 0.76051 0.14046 0.0
O372 O 0.0075 0.72937 0.15031 0.0
O373 O 1.00087 0.78064 0.1313 0.0
O374 O 0.00467 0.78137 0.13132 0.0
Fe375 Fe 1.00085 0.78507 0.11246 0.0
C376 C 0.0527 0.80515 0.16559 0.0
O377 O 0.06005 0.69646 0.16613 0.0
O378 O 0.09367 0.73346 0.15137 0.0
O379 O 0.96224 0.74041 0.10978 0.0
O380 O 0.96128 0.70633 0.12797 0.0
O381 O 0.92684 0.71484 0.15316 0.0
O382 O 0.97098 0.68494 0.16644 0.0
O383 O 0.05538 0.71594 0.12734 0.0
O384 O 0.0456 0.74786 0.10901 0.0
C385 C 0.93742 0.68735 0.16099 0.0
O386 O 0.95304 0.81782 0.11634 0.0
O387 O 0.91881 0.7788 0.13035 0.0
O388 O 0.04737 0.77451 0.17206 0.0
O389 O 0.04825 0.80593 0.15338 0.0
C390 C 0.09097 0.70618 0.15993 0.0
C391 C 0.05989 0.71976 0.11519 0.0
C392 C 0.07689 0.82197 0.12039 0.0
O393 O 0.08547 0.79534 0.12872 0.0
O394 O 0.04311 0.82649 0.11525 0.0
C395 C 0.95302 0.71026 0.11604 0.0
O396 O 0.95908 0.79563 0.15414 0.0
O397 O 0.96501 0.76348 0.17248 0.0
C398 C 0.92157 0.80705 0.1221 0.0
C399 C 0.95582 0.7936 0.16633 0.0
Fe400 Fe 0.50437 0.76467 0.42056 0.0
O401 O 0.49416 0.76122 0.40209 0.0
Fe402 Fe 0.49994 0.81219 0.39021 0.0
Fe403 Fe 0.50055 0.71652 0.39007 0.0
O404 O 0.50888 0.76756 0.40192 0.0
O405 O 0.49122 0.7671 0.37846 0.0
O406 O 0.50586 0.76153 0.37825 0.0
Fe407 Fe 0.49694 0.76416 0.35979 0.0
C408 C 0.57189 0.71901 0.40886 0.0
O409 O 0.47372 0.71356 0.42114 0.0
O410 O 0.48618 0.67564 0.40375 0.0
O411 O 0.46353 0.81332 0.36016 0.0
O412 O 0.48212 0.85197 0.37683 0.0
O413 O 0.44509 0.81372 0.39907 0.0
O414 O 0.45425 0.79591 0.42021 0.0
O415 O 0.44405 0.71202 0.38251 0.0
O416 O 0.44948 0.72855 0.36115 0.0
C417 C 0.43389 0.81036 0.41099 0.0
O418 O 0.54477 0.79956 0.36021 0.0
O419 O 0.55465 0.81565 0.38144 0.0
O420 O 0.55404 0.73339 0.41868 0.0
O421 O 0.55751 0.71574 0.39732 0.0
C422 C 0.47165 0.6814 0.41502 0.0
C423 C 0.4321 0.71162 0.37058 0.0
C424 C 0.53049 0.68234 0.36516 0.0
O425 O 0.51516 0.67659 0.37628 0.0
O426 O 0.53033 0.71491 0.35929 0.0
C427 C 0.46413 0.84586 0.36613 0.0
O428 O 0.51813 0.85327 0.40341 0.0
O429 O 0.5355 0.81565 0.42029 0.0
C430 C 0.56444 0.81577 0.36934 0.0
C431 C 0.53594 0.84754 0.41411 0.0
Fe432 Fe 0.50795 0.23327 0.66734 0.0
O433 O 0.50755 0.23487 0.64835 0.0
Fe434 Fe 0.45829 0.25735 0.63941 0.0
Fe435 Fe 0.54738 0.26272 0.63802 0.0
O436 O 0.50356 0.2342 0.64833 0.0
O437 O 0.4983 0.28472 0.629 0.0
O438 O 0.50209 0.28511 0.62897 0.0
Fe439 Fe 0.49748 0.28791 0.61012 0.0
C440 C 0.55259 0.3084 0.66278 0.0
O441 O 0.55511 0.19941 0.66406 0.0
O442 O 0.58978 0.23426 0.64898 0.0
O443 O 0.45728 0.24462 0.60792 0.0
O444 O 0.4551 0.21207 0.62643 0.0
O445 O 0.42254 0.22382 0.65166 0.0
O446 O 0.46571 0.19237 0.66489 0.0
O447 O 0.54974 0.21744 0.62521 0.0
O448 O 0.54054 0.24865 0.6067 0.0
C449 C 0.43215 0.1961 0.65953 0.0
O450 O 0.45105 0.32279 0.61396 0.0
O451 O 0.41639 0.28658 0.62865 0.0
O452 O 0.54656 0.27839 0.66952 0.0
O453 O 0.54735 0.30869 0.65061 0.0
C454 C 0.58619 0.20742 0.65769 0.0
C455 C 0.55406 0.22047 0.61304 0.0
C456 C 0.5754 0.3218 0.6173 0.0
O457 O 0.58327 0.29543 0.62582 0.0
O458 O 0.54147 0.32767 0.61243 0.0
C459 C 0.44733 0.21522 0.61443 0.0
O460 O 0.45837 0.30311 0.6521 0.0
O461 O 0.46371 0.27136 0.67054 0.0
C462 C 0.41959 0.31391 0.62009 0.0
C463 C 0.45504 0.30149 0.66431 0.0
Fe464 Fe 0.00371 0.26414 0.90316 0.0
O465 O 0.02763 0.23483 0.8887 0.0
Fe466 Fe 0.98263 0.3517 0.88938 0.0
Fe467 Fe 0.02673 0.17851 0.88828 0.0
O468 O 0.98107 0.29538 0.88901 0.0
O469 O 0.98098 0.29535 0.88768 0.0
O470 O 0.02779 0.23495 0.88734 0.0
Fe471 Fe 0.00427 0.2656 0.87302 0.0
C472 C 0.05982 0.20346 0.91414 0.0
O473 O 0.95612 0.22935 0.90285 0.0
O474 O 0.98505 0.17279 0.90258 0.0
O475 O 0.97578 0.30316 0.86023 0.0
O476 O 0.9457 0.34698 0.87373 0.0
O477 O 0.94341 0.34355 0.90398 0.0
O478 O 0.97382 0.29867 0.91662 0.0
O479 O 0.98446 0.17251 0.87463 0.0
O480 O 0.95645 0.22962 0.87198 0.0
C481 C 0.94747 0.32454 0.91466 0.0
O482 O 0.0522 0.30132 0.87241 0.0
O483 O 0.0252 0.35852 0.87594 0.0
O484 O 0.03248 0.22813 0.91626 0.0
O485 O 0.06532 0.18586 0.9032 0.0
C486 C 0.9561 0.19363 0.90522 0.0
C487 C 0.95684 0.19309 0.87066 0.0
C488 C 0.0568 0.20111 0.86167 0.0
O489 O 0.06371 0.18486 0.87275 0.0
O490 O 0.0323 0.22889 0.85981 0.0
C491 C 0.95128 0.33067 0.86254 0.0
O492 O 0.02417 0.3559 0.90397 0.0
O493 O 0.05142 0.29852 0.90404 0.0
C494 C 0.05244 0.33794 0.87166 0.0
C495 C 0.05195 0.33391 0.90696 0.0
H496 H 0.16652 0.90364 0.48416 0.0
H497 H 0.21459 0.88001 0.46894 0.0
H498 H 0.20469 0.98419 0.44679 0.0
H499 H 0.15665 0.00816 0.46205 0.0
H500 H 0.20616 0.86622 0.44277 0.0
H501 H 0.32035 0.97585 0.45169 0.0
H502 H 0.27986 0.96973 0.46237 0.0
H503 H 0.27422 0.99462 0.44731 0.0
C504 C 0.17464 0.92158 0.47606 0.0
C505 C 0.15781 0.95781 0.47433 0.0
C506 C 0.20214 0.90806 0.46738 0.0
C507 C 0.21351 0.93044 0.45678 0.0
C508 C 0.19695 0.96673 0.45503 0.0
H509 H 0.3944 0.87095 0.40061 0.0
H510 H 0.33641 0.90114 0.4095 0.0
C511 C 0.16951 0.9804 0.46377 0.0
C512 C 0.24203 0.91505 0.44747 0.0
H513 H 0.33282 0.92889 0.43581 0.0
C514 C 0.23374 0.88009 0.44118 0.0
C515 C 0.2779 0.93331 0.44531 0.0
C516 C 0.2889 0.97029 0.45208 0.0
C517 C 0.26072 0.86239 0.43308 0.0
C518 C 0.29707 0.87991 0.43131 0.0
C519 C 0.30481 0.91564 0.43714 0.0
C520 C 0.32897 0.85955 0.4248 0.0
C521 C 0.25036 0.82473 0.42664 0.0
C522 C 0.34359 0.82601 0.43036 0.0
C523 C 0.37659 0.80901 0.42539 0.0
C524 C 0.3957 0.82511 0.41472 0.0
C525 C 0.38008 0.85773 0.40876 0.0
C526 C 0.34714 0.87508 0.41387 0.0
H527 H 0.21874 0.82106 0.42573 0.0
H528 H 0.26344 0.82258 0.41689 0.0
H529 H 0.26138 0.80074 0.4326 0.0
H530 H 0.33041 0.81387 0.43891 0.0
H531 H 0.38785 0.78384 0.43018 0.0
H532 H 0.24888 0.96651 0.73413 0.0
H533 H 0.26452 0.02305 0.72108 0.0
H534 H 0.30386 0.94929 0.6903 0.0
H535 H 0.2879 0.89279 0.70321 0.0
H536 H 0.33338 0.0446 0.71299 0.0
H537 H 0.24088 0.02438 0.67 0.0
H538 H 0.23381 0.99742 0.6847 0.0
H539 H 0.26926 0.98261 0.67307 0.0
C540 C 0.26061 0.96237 0.72454 0.0
C541 C 0.26711 0.92514 0.7197 0.0
C542 C 0.26932 0.9947 0.71706 0.0
C543 C 0.28469 0.99053 0.70459 0.0
C544 C 0.29089 0.95335 0.69971 0.0
H545 H 0.4455 0.12094 0.66373 0.0
H546 H 0.40294 0.07414 0.67389 0.0
C547 C 0.28195 0.92102 0.70714 0.0
C548 C 0.29781 0.02482 0.69721 0.0
H549 H 0.2962 0.06636 0.66728 0.0
C550 C 0.32455 0.04975 0.70309 0.0
C551 C 0.28615 0.03191 0.6843 0.0
C552 C 0.25563 0.00787 0.6777 0.0
C553 C 0.34153 0.08007 0.69622 0.0
C554 C 0.33187 0.08545 0.68308 0.0
C555 C 0.30367 0.06197 0.67735 0.0
C556 C 0.3544 0.11233 0.67497 0.0
C557 C 0.37096 0.10531 0.7029 0.0
C558 C 0.34055 0.14889 0.67172 0.0
C559 C 0.36496 0.17592 0.66579 0.0
C560 C 0.40342 0.16659 0.6632 0.0
C561 C 0.41613 0.12911 0.66575 0.0
C562 C 0.39186 0.10228 0.67153 0.0
H563 H 0.36942 0.10273 0.71359 0.0
H564 H 0.40014 0.09668 0.69977 0.0
H565 H 0.36695 0.13588 0.70022 0.0
H566 H 0.31163 0.15708 0.67432 0.0
H567 H 0.35451 0.20465 0.66397 0.0
H568 H 0.36522 0.14055 0.97334 0.0
H569 H 0.30677 0.16498 0.9633 0.0
H570 H 0.23853 0.1107 0.99294 0.0
H571 H 0.29703 0.08531 1.00282 0.0
H572 H 0.21051 0.09404 0.97032 0.0
H573 H 0.23537 0.25076 0.97156 0.0
H574 H 0.27496 0.22704 0.964 0.0
H575 H 0.26438 0.21787 0.98077 0.0
C576 C 0.33779 0.13444 0.97784 0.0
C577 C 0.33564 0.11104 0.98885 0.0
C578 C 0.30437 0.14865 0.97215 0.0
C579 C 0.26819 0.14038 0.97749 0.0
C580 C 0.2661 0.11768 0.98867 0.0
H581 H 0.06491 0.23706 0.9383 0.0
H582 H 0.11129 0.22251 0.95546 0.0
C583 C 0.29949 0.10307 0.99428 0.0
C584 C 0.23256 0.15212 0.97067 0.0
H585 H 0.19024 0.2276 0.95533 0.0
C586 C 0.2058 0.12342 0.96726 0.0
C587 C 0.22577 0.19055 0.96687 0.0
C588 C 0.25147 0.22333 0.97113 0.0
C589 C 0.17384 0.13161 0.95951 0.0
C590 C 0.16903 0.1693 0.95473 0.0
C591 C 0.19432 0.19855 0.95881 0.0
C592 C 0.14015 0.17796 0.94462 0.0
C593 C 0.14587 0.09957 0.95635 0.0
C594 C 0.1414 0.15821 0.9328 0.0
C595 C 0.11502 0.16623 0.92306 0.0
C596 C 0.08687 0.19459 0.92482 0.0
C597 C 0.08589 0.21476 0.93665 0.0
C598 C 0.11244 0.20659 0.94645 0.0
H599 H 0.14561 0.0774 0.96405 0.0
H600 H 0.11625 0.11057 0.95509 0.0
H601 H 0.15478 0.08535 0.94722 0.0
H602 H 0.16318 0.13676 0.93103 0.0
H603 H 0.11704 0.15025 0.91408 0.0
H604 H 0.11886 0.10291 0.23858 0.0
H605 H 0.0952 0.04743 0.22623 0.0
H606 H 0.20295 0.04176 0.2059 0.0
H607 H 0.22681 0.0973 0.21815 0.0
H608 H 0.08516 0.03665 0.19993 0.0
H609 H 0.19046 0.93234 0.21904 0.0
H610 H 0.18343 0.97902 0.22629 0.0
H611 H 0.21214 0.97416 0.21194 0.0
C612 C 0.13753 0.09004 0.23143 0.0
C613 C 0.17492 0.10462 0.22945 0.0
C614 C 0.12395 0.05818 0.2244 0.0
C615 C 0.14742 0.03994 0.21524 0.0
C616 C 0.18455 0.05469 0.21311 0.0
H617 H 0.07233 0.87586 0.15551 0.0
H618 H 0.09399 0.93334 0.1673 0.0
C619 C 0.19819 0.0865 0.22015 0.0
C620 C 0.13296 0.00571 0.2079 0.0
H621 H 0.15131 0.91104 0.2016 0.0
C622 C 0.0996 0.00917 0.20032 0.0
C623 C 0.15144 0.96963 0.20849 0.0
C624 C 0.18613 0.96331 0.21697 0.0
C625 C 0.08461 0.97782 0.19321 0.0
C626 C 0.10376 0.94206 0.19352 0.0
C627 C 0.13681 0.93849 0.20124 0.0
C628 C 0.08953 0.90761 0.18625 0.0
C629 C 0.04802 0.98314 0.18561 0.0
C630 C 0.08026 0.87374 0.19291 0.0
C631 C 0.06811 0.84078 0.18621 0.0
C632 C 0.0651 0.8407 0.17262 0.0
C633 C 0.07422 0.87477 0.16595 0.0
C634 C 0.08642 0.9078 0.1727 0.0
H635 H 0.03125 0.00795 0.18927 0.0
H636 H 0.05532 0.98872 0.17535 0.0
H637 H 0.0296 0.957 0.18598 0.0
H638 H 0.08241 0.87279 0.20336 0.0
H639 H 0.0612 0.81528 0.19172 0.0
H640 H 0.17653 0.12802 0.54019 0.0
H641 H 0.23067 0.14616 0.55404 0.0
H642 H 0.22835 0.03391 0.57148 0.0
H643 H 0.1737 0.0156 0.55778 0.0
H644 H 0.23321 0.14782 0.58128 0.0
H645 H 0.34189 0.04808 0.56105 0.0
H646 H 0.2977 0.05898 0.55271 0.0
H647 H 0.29745 0.02625 0.56608 0.0
C648 C 0.18733 0.10715 0.547 0.0
C649 C 0.17055 0.07029 0.54783 0.0
C650 C 0.21847 0.11755 0.55488 0.0
C651 C 0.23386 0.09133 0.56373 0.0
C652 C 0.21744 0.05443 0.56457 0.0
H653 H 0.39227 0.16881 0.62552 0.0
H654 H 0.34077 0.13349 0.6142 0.0
C655 C 0.18619 0.04399 0.55669 0.0
C656 C 0.2664 0.10322 0.57228 0.0
H657 H 0.36111 0.08634 0.57887 0.0
C658 C 0.26109 0.13418 0.58083 0.0
C659 C 0.30286 0.08557 0.57162 0.0
C660 C 0.31064 0.05307 0.56232 0.0
C661 C 0.29127 0.14824 0.58862 0.0
C662 C 0.32774 0.13063 0.58796 0.0
C663 C 0.333 0.09944 0.5795 0.0
C664 C 0.36153 0.14681 0.59501 0.0
C665 C 0.28435 0.18283 0.59713 0.0
C666 C 0.3912 0.16446 0.58802 0.0
C667 C 0.42052 0.18455 0.59443 0.0
C668 C 0.4211 0.18715 0.60801 0.0
C669 C 0.39281 0.16719 0.61506 0.0
C670 C 0.36316 0.14731 0.6086 0.0
H671 H 0.25651 0.19684 0.59495 0.0
H672 H 0.28405 0.17376 0.6074 0.0
H673 H 0.30778 0.20436 0.59595 0.0
H674 H 0.39065 0.16433 0.57754 0.0
H675 H 0.44194 0.19944 0.5887 0.0
H676 H 0.11369 0.93198 0.77894 0.0
H677 H 0.09336 0.99207 0.789 0.0
H678 H 0.2011 0.99947 0.80953 0.0
H679 H 0.22265 0.94088 0.7989 0.0
H680 H 0.08127 0.00789 0.81347 0.0
H681 H 0.1949 0.10664 0.79625 0.0
H682 H 0.18824 0.05908 0.78955 0.0
H683 H 0.21511 0.06601 0.8043 0.0
C684 C 0.13349 0.94678 0.78536 0.0
C685 C 0.16997 0.93143 0.78803 0.0
C686 C 0.12166 0.98107 0.79119 0.0
C687 C 0.14594 1.00086 0.79984 0.0
C688 C 0.1822 0.98546 0.80262 0.0
H689 H 0.12486 0.16304 0.86057 0.0
H690 H 0.14591 0.11899 0.84358 0.0
C691 C 0.19422 0.95142 0.79669 0.0
C692 C 0.13251 0.03617 0.8066 0.0
H693 H 0.15905 0.1279 0.81488 0.0
C694 C 0.09795 0.03434 0.81357 0.0
C695 C 0.15411 0.07088 0.8067 0.0
C696 C 0.18992 0.07593 0.79868 0.0
C697 C 0.08543 0.06546 0.82112 0.0
C698 C 0.108 0.09939 0.8217 0.0
C699 C 0.14188 0.10178 0.81443 0.0
C700 C 0.09848 0.13106 0.83074 0.0
C701 C 0.04897 0.06129 0.82888 0.0
C702 C 0.06577 0.15376 0.82887 0.0
C703 C 0.05382 0.17935 0.83854 0.0
C704 C 0.07426 0.18226 0.85026 0.0
C705 C 0.10843 0.16136 0.85168 0.0
C706 C 0.1205 0.13615 0.84198 0.0
H707 H 0.03733 0.03147 0.82861 0.0
H708 H 0.05417 0.06963 0.83911 0.0
H709 H 0.0268 0.08079 0.82493 0.0
H710 H 0.04854 0.15038 0.82021 0.0
H711 H 0.0272 0.19476 0.8372 0.0
H712 H 0.30509 0.0105 0.04533 0.0
H713 H 0.2539 0.98981 0.06005 0.0
H714 H 0.33184 0.91098 0.07831 0.0
H715 H 0.38325 0.93207 0.06389 0.0
H716 H 0.22528 0.91438 0.06231 0.0
H717 H 0.2834 0.96694 0.10917 0.0
H718 H 0.30091 0.98411 0.0938 0.0
H719 H 0.31649 0.93856 0.09995 0.0
C720 C 0.31146 0.98921 0.05262 0.0
C721 C 0.34821 0.97287 0.05342 0.0
C722 C 0.28217 0.97732 0.06098 0.0
C723 C 0.28923 0.94926 0.07038 0.0
C724 C 0.32595 0.93318 0.07129 0.0
H725 H 0.15461 0.81124 0.12285 0.0
H726 H 0.20575 0.8453 0.11132 0.0
C727 C 0.35517 0.94493 0.06292 0.0
C728 C 0.25765 0.93492 0.07871 0.0
H729 H 0.23045 0.92316 0.11017 0.0
C730 C 0.22617 0.91666 0.07277 0.0
C731 C 0.2591 0.9377 0.09235 0.0
C732 C 0.29161 0.95819 0.09922 0.0
C733 C 0.19654 0.90015 0.0801 0.0
C734 C 0.19803 0.90274 0.09376 0.0
C735 C 0.22936 0.9213 0.09971 0.0
C736 C 0.16766 0.8854 0.10195 0.0
C737 C 0.16454 0.87894 0.07317 0.0
C738 C 0.12953 0.89771 0.10092 0.0
C739 C 0.10021 0.87828 0.10745 0.0
C740 C 0.1085 0.8463 0.11524 0.0
C741 C 0.14712 0.83567 0.11693 0.0
C742 C 0.17642 0.85506 0.11033 0.0
H743 H 0.17247 0.87154 0.06307 0.0
H744 H 0.15678 0.85205 0.07832 0.0
H745 H 0.13874 0.89743 0.07284 0.0
H746 H 0.12228 0.92165 0.09474 0.0
H747 H 0.0709 0.88764 0.10605 0.0
H748 H 0.25665 0.11568 0.31361 0.0
H749 H 0.28263 0.06834 0.32873 0.0
H750 H 0.37564 0.04548 0.30238 0.0
H751 H 0.35008 0.09287 0.28732 0.0
H752 H 0.29746 0.99144 0.32637 0.0
H753 H 0.4324 0.07202 0.33565 0.0
H754 H 0.39179 0.09313 0.32755 0.0
H755 H 0.4247 0.06319 0.31875 0.0
C756 C 0.28238 0.10018 0.31099 0.0
C757 C 0.30156 0.10815 0.29935 0.0
C758 C 0.2973 0.07338 0.31966 0.0
C759 C 0.3316 0.05419 0.31682 0.0
C760 C 0.34979 0.06085 0.30494 0.0
H761 H 0.4261 0.84521 0.34302 0.0
H762 H 0.39142 0.89737 0.33289 0.0
C763 C 0.33506 0.08774 0.29632 0.0
C764 C 0.34841 0.02691 0.32617 0.0
H765 H 0.43173 0.00569 0.34196 0.0
C766 C 0.32664 0.99478 0.32992 0.0
C767 C 0.38617 0.03178 0.33105 0.0
C768 C 0.40997 0.06712 0.32816 0.0
C769 C 0.3424 0.96626 0.33783 0.0
C770 C 0.38114 0.9697 0.34187 0.0
C771 C 0.40219 0.00287 0.33872 0.0
C772 C 0.40124 0.93795 0.34847 0.0
C773 C 0.31751 0.93254 0.34168 0.0
C774 C 0.41934 0.94375 0.36047 0.0
C775 C 0.43971 0.9139 0.36631 0.0
C776 C 0.44251 0.87784 0.36018 0.0
C777 C 0.42442 0.8724 0.34811 0.0
C778 C 0.40423 0.90215 0.34232 0.0
H779 H 0.28659 0.94024 0.34162 0.0
H780 H 0.32152 0.9088 0.33463 0.0
H781 H 0.32522 0.92192 0.35145 0.0
H782 H 0.41769 0.97136 0.36531 0.0
H783 H 0.4533 0.91914 0.37558 0.0
H784 H 0.82615 0.02033 0.55894 0.0
H785 H 0.77042 0.03966 0.57177 0.0
H786 H 0.77241 0.15099 0.55366 0.0
H787 H 0.82757 0.1318 0.54064 0.0
H788 H 0.76823 0.15228 0.5813 0.0
H789 H 0.65814 0.05584 0.55904 0.0
H790 H 0.7017 0.03339 0.56441 0.0
H791 H 0.70327 0.06678 0.55125 0.0
C792 C 0.8144 0.04874 0.55754 0.0
C793 C 0.83141 0.07451 0.54875 0.0
C794 C 0.78258 0.05973 0.5649 0.0
C795 C 0.76713 0.09663 0.56358 0.0
C796 C 0.78394 0.12237 0.55482 0.0
H797 H 0.56151 0.20973 0.58699 0.0
H798 H 0.61222 0.17481 0.57575 0.0
C799 C 0.81563 0.11141 0.54745 0.0
C800 C 0.73419 0.10909 0.57158 0.0
H801 H 0.63817 0.09457 0.57657 0.0
C802 C 0.73985 0.13951 0.58034 0.0
C803 C 0.69718 0.09249 0.57022 0.0
C804 C 0.68939 0.06049 0.56067 0.0
C805 C 0.70939 0.15406 0.58771 0.0
C806 C 0.67238 0.13747 0.58636 0.0
C807 C 0.66671 0.10687 0.57767 0.0
C808 C 0.63882 0.15367 0.59321 0.0
C809 C 0.71673 0.18793 0.59657 0.0
C810 C 0.6362 0.15213 0.60673 0.0
C811 C 0.60714 0.17199 0.6132 0.0
C812 C 0.58032 0.19383 0.60625 0.0
C813 C 0.58182 0.19341 0.59265 0.0
C814 C 0.61074 0.17341 0.5862 0.0
H815 H 0.74527 0.20142 0.59484 0.0
H816 H 0.69423 0.21005 0.59527 0.0
H817 H 0.71567 0.17818 0.60676 0.0
H818 H 0.65745 0.13672 0.6123 0.0
H819 H 0.60692 0.17186 0.62366 0.0
H820 H 0.71304 0.1214 0.32192 0.0
H821 H 0.6949 0.06941 0.33653 0.0
H822 H 0.71095 0.98697 0.30582 0.0
H823 H 0.73061 0.03867 0.29126 0.0
H824 H 0.63415 0.02078 0.33414 0.0
H825 H 0.76828 0.9363 0.33526 0.0
H826 H 0.76653 0.98465 0.32903 0.0
H827 H 0.75097 0.94473 0.31918 0.0
C828 C 0.71357 0.09215 0.31832 0.0
C829 C 0.72358 0.08433 0.30539 0.0
C830 C 0.70291 0.06243 0.32668 0.0
C831 C 0.70214 0.02413 0.32237 0.0
C832 C 0.71215 0.01615 0.30949 0.0
H833 H 0.60616 0.81065 0.34708 0.0
H834 H 0.64472 0.86161 0.3373 0.0
C835 C 0.72289 0.04587 0.30111 0.0
C836 C 0.68841 0.99297 0.33109 0.0
H837 H 0.71194 0.90536 0.34361 0.0
C838 C 0.65138 0.99581 0.33635 0.0
C839 C 0.71086 0.96031 0.33398 0.0
C840 C 0.75151 0.95639 0.32917 0.0
C841 C 0.63564 0.96636 0.34399 0.0
C842 C 0.65778 0.93334 0.34667 0.0
C843 C 0.69509 0.93076 0.34162 0.0
C844 C 0.64119 0.89999 0.35374 0.0
C845 C 0.59477 0.97012 0.34866 0.0
C846 C 0.62827 0.90366 0.36655 0.0
C847 C 0.60621 0.87439 0.37222 0.0
C848 C 0.59668 0.84099 0.36515 0.0
C849 C 0.6127 0.83608 0.35277 0.0
C850 C 0.63478 0.86524 0.34714 0.0
H851 H 0.57929 0.99361 0.34367 0.0
H852 H 0.57859 0.94284 0.34713 0.0
H853 H 0.59489 0.97657 0.35917 0.0
H854 H 0.63348 0.93001 0.3719 0.0
H855 H 0.5942 0.87929 0.38173 0.0
H856 H 0.67106 0.89023 0.03765 0.0
H857 H 0.71451 0.86294 0.05374 0.0
H858 H 0.71101 0.96866 0.07559 0.0
H859 H 0.66655 0.9957 0.0598 0.0
H860 H 0.78583 0.88808 0.06129 0.0
H861 H 0.68609 0.8882 0.10303 0.0
H862 H 0.67001 0.89484 0.08659 0.0
H863 H 0.69115 0.93426 0.09544 0.0
C864 C 0.67931 0.90758 0.04593 0.0
C865 C 0.66522 0.94511 0.04746 0.0
C866 C 0.7042 0.89198 0.05509 0.0
C867 C 0.71533 0.91348 0.066 0.0
C868 C 0.70207 0.95124 0.06741 0.0
H869 H 0.91403 0.8801 0.11336 0.0
H870 H 0.86052 0.90575 0.10087 0.0
C871 C 0.67716 0.96687 0.05825 0.0
C872 C 0.74199 0.89691 0.07563 0.0
H873 H 0.75215 0.87599 0.10772 0.0
C874 C 0.77835 0.88522 0.07142 0.0
C875 C 0.73197 0.89271 0.08881 0.0
C876 C 0.69255 0.9028 0.09374 0.0
C877 C 0.8054 0.8705 0.0801 0.0
C878 C 0.79603 0.86795 0.09337 0.0
C879 C 0.75931 0.87848 0.09756 0.0
C880 C 0.82474 0.85511 0.10294 0.0
C881 C 0.84391 0.85779 0.07502 0.0
C882 C 0.82129 0.819 0.10885 0.0
C883 C 0.85181 0.80431 0.11612 0.0
C884 C 0.8861 0.82558 0.11748 0.0
C885 C 0.88809 0.86293 0.11238 0.0
C886 C 0.85762 0.8776 0.10522 0.0
H887 H 0.84339 0.85337 0.06437 0.0
H888 H 0.86579 0.8802 0.07726 0.0
H889 H 0.853 0.83065 0.07969 0.0
H890 H 0.796 0.80132 0.1072 0.0
H891 H 0.84959 0.77534 0.11985 0.0
H892 H 0.81577 0.97827 0.77962 0.0
H893 H 0.8357 0.03322 0.79306 0.0
H894 H 0.84643 0.95843 0.82596 0.0
H895 H 0.82755 0.90341 0.81259 0.0
H896 H 0.80309 0.06341 0.81644 0.0
H897 H 0.95191 0.01232 0.82384 0.0
H898 H 0.92077 0.99288 0.81142 0.0
H899 H 0.91597 0.97713 0.82788 0.0
C900 C 0.82267 0.97346 0.7897 0.0
C901 C 0.82019 0.93628 0.79499 0.0
C902 C 0.83377 0.00497 0.79738 0.0
C903 C 0.84299 0.99989 0.81048 0.0
C904 C 0.83995 0.96299 0.81584 0.0
H905 H 0.92375 0.12477 0.87619 0.0
H906 H 0.89108 0.08164 0.86101 0.0
C907 C 0.82878 0.93157 0.80819 0.0
C908 C 0.85626 0.03286 0.8186 0.0
H909 H 0.93112 0.06315 0.83754 0.0
C910 C 0.83121 0.06362 0.82096 0.0
C911 C 0.8931 0.03329 0.8244 0.0
C912 C 0.92218 1.00235 0.82168 0.0
C913 C 0.84144 0.09386 0.82944 0.0
C914 C 0.8777 0.09338 0.83561 0.0
C915 C 0.90313 0.06328 0.83291 0.0
C916 C 0.88973 0.12264 0.84537 0.0
C917 C 0.81306 0.12539 0.83211 0.0
C918 C 0.8983 0.16074 0.84182 0.0
C919 C 0.91672 0.18576 0.8506 0.0
C920 C 0.92709 0.17277 0.86297 0.0
C921 C 0.91591 0.13559 0.86675 0.0
C922 C 0.89743 0.11084 0.85805 0.0
H923 H 0.78417 0.11866 0.82809 0.0
H924 H 0.81044 0.13037 0.84269 0.0
H925 H 0.82354 0.1525 0.8277 0.0
H926 H 0.89307 0.17032 0.83203 0.0
H927 H 0.92571 0.21399 0.84736 0.0
H928 H 0.81352 0.03781 0.47092 0.0
H929 H 0.75441 0.02319 0.45913 0.0
H930 H 0.76608 0.90331 0.46861 0.0
H931 H 0.82317 0.91797 0.48132 0.0
H932 H 0.73943 0.98274 0.43872 0.0
H933 H 0.65768 0.91731 0.47869 0.0
H934 H 0.70265 0.94212 0.48134 0.0
H935 H 0.70194 0.8924 0.47632 0.0
C936 C 0.80313 0.00842 0.4708 0.0
C937 C 0.82334 0.97922 0.47727 0.0
C938 C 0.76941 1.00003 0.46389 0.0
C939 C 0.75508 0.96223 0.46317 0.0
C940 C 0.77567 0.93291 0.46932 0.0
H941 H 0.60754 0.86091 0.40542 0.0
H942 H 0.65904 0.89481 0.41689 0.0
C943 C 0.80897 0.94133 0.47641 0.0
C944 C 0.71932 0.95319 0.4557 0.0
H945 H 0.63476 0.90309 0.45726 0.0
C946 C 0.71631 0.96574 0.44284 0.0
C947 C 0.68848 0.93187 0.46109 0.0
C948 C 0.68765 0.92057 0.47516 0.0
C949 C 0.68427 0.95624 0.43511 0.0
C950 C 0.65491 0.93229 0.4402 0.0
C951 C 0.65726 0.92107 0.45322 0.0
C952 C 0.62256 0.91675 0.43215 0.0
C953 C 0.68221 0.97245 0.42162 0.0
C954 C 0.58458 0.91738 0.43681 0.0
C955 C 0.55524 0.89721 0.43035 0.0
C956 C 0.56315 0.8768 0.41896 0.0
C957 C 0.60053 0.87768 0.41393 0.0
C958 C 0.63001 0.89713 0.42051 0.0
H959 H 0.69739 1.0006 0.42106 0.0
H960 H 0.69668 0.95254 0.41482 0.0
H961 H 0.65207 0.97639 0.4184 0.0
H962 H 0.57794 0.93203 0.44579 0.0
H963 H 0.52681 0.89602 0.43458 0.0
H964 H 0.82561 0.11237 0.21234 0.0
H965 H 0.85147 0.05848 0.19997 0.0
H966 H 0.85188 0.98883 0.23433 0.0
H967 H 0.82523 0.04234 0.24678 0.0
H968 H 0.92267 0.98885 0.21884 0.0
H969 H 0.79049 0.95854 0.19013 0.0
H970 H 0.80671 0.00772 0.19037 0.0
H971 H 0.78982 0.98587 0.20501 0.0
C972 C 0.83068 0.08545 0.21725 0.0
C973 C 0.82306 0.08159 0.23054 0.0
C974 C 0.84561 0.05477 0.21017 0.0
C975 C 0.85318 0.01968 0.21623 0.0
C976 C 0.84615 0.01577 0.2295 0.0
H977 H 0.94554 0.80037 0.19246 0.0
H978 H 0.92201 0.85602 0.20442 0.0
C979 C 0.83108 0.0464 0.2366 0.0
C980 C 0.86861 0.98708 0.20871 0.0
H981 H 0.84598 0.92347 0.18464 0.0
C982 C 0.90595 0.97444 0.21137 0.0
C983 C 0.84671 0.96863 0.19895 0.0
C984 C 0.80608 0.98057 0.19596 0.0
C985 C 0.92219 0.94392 0.20441 0.0
C986 C 0.90007 0.92512 0.19476 0.0
C987 C 0.86282 0.93797 0.19205 0.0
C988 C 0.91472 0.89157 0.1875 0.0
C989 C 0.96303 0.93251 0.20733 0.0
C990 C 0.91754 0.89283 0.17398 0.0
C991 C 0.93067 0.86095 0.16708 0.0
C992 C 0.941 0.82711 0.17358 0.0
C993 C 0.93785 0.82593 0.18713 0.0
C994 C 0.92469 0.85781 0.19401 0.0
H995 H 0.9796 0.95665 0.21174 0.0
H996 H 0.96278 0.9084 0.21432 0.0
H997 H 0.97815 0.92283 0.19847 0.0
H998 H 0.90978 0.9186 0.16878 0.0
H999 H 0.93281 0.86291 0.15666 0.0
H1000 H 0.66575 0.02787 0.96221 0.0
H1001 H 0.72019 0.04542 0.94842 0.0
H1002 H 0.74495 0.14268 0.97309 0.0
H1003 H 0.69111 0.12491 0.98708 0.0
H1004 H 0.73189 0.11532 0.93499 0.0
H1005 H 0.84926 0.08782 0.97005 0.0
H1006 H 0.80113 0.06918 0.97217 0.0
H1007 H 0.81199 0.11845 0.97608 0.0
C1008 C 0.6831 0.0527 0.96481 0.0
C1009 C 0.67415 0.07489 0.97579 0.0
C1010 C 0.71404 0.06282 0.95687 0.0
C1011 C 0.7369 0.09507 0.95982 0.0
C1012 C 0.72806 0.11733 0.97075 0.0
H1013 H 0.88979 0.22962 0.91243 0.0
H1014 H 0.83654 0.20327 0.92496 0.0
C1015 C 0.69703 0.10734 0.97866 0.0
C1016 C 0.76932 0.10616 0.95126 0.0
H1017 H 0.86638 0.12134 0.95087 0.0
C1018 C 0.76133 0.11641 0.93843 0.0
C1019 C 0.80776 0.10711 0.95572 0.0
C1020 C 0.81825 0.09473 0.96922 0.0
C1021 C 0.79064 0.12869 0.93005 0.0
C1022 C 0.82887 0.13109 0.93466 0.0
C1023 C 0.83701 0.11974 0.94737 0.0
C1024 C 0.86064 0.14638 0.92658 0.0
C1025 C 0.7805 0.1389 0.91631 0.0
C1026 C 0.89219 0.12326 0.92344 0.0
C1027 C 0.92285 0.13824 0.91625 0.0
C1028 C 0.92272 0.1768 0.91218 0.0
C1029 C 0.89088 0.19976 0.91532 0.0
C1030 C 0.86025 0.18471 0.92245 0.0
H1031 H 0.75246 0.12617 0.91334 0.0
H1032 H 0.77836 0.1706 0.91548 0.0
H1033 H 0.80299 0.12897 0.90949 0.0
H1034 H 0.89313 0.09364 0.92659 0.0
H1035 H 0.94689 0.11976 0.91406 0.0
H1036 H 0.74162 0.98093 0.73447 0.0
H1037 H 0.72372 0.03427 0.72034 0.0
H1038 H 0.71719 0.9564 0.68787 0.0
H1039 H 0.73344 0.90283 0.70194 0.0
H1040 H 0.75782 0.06362 0.69746 0.0
H1041 H 0.61105 0.00575 0.68835 0.0
H1042 H 0.64149 0.98778 0.70106 0.0
H1043 H 0.649 0.97293 0.68459 0.0
C1044 C 0.73611 0.9751 0.72434 0.0
C1045 C 0.73876 0.93748 0.71938 0.0
C1046 C 0.72624 0.00567 0.71626 0.0
C1047 C 0.71867 0.9992 0.70309 0.0
C1048 C 0.72238 0.96196 0.69804 0.0
H1049 H 0.61386 0.1451 0.64505 0.0
H1050 H 0.6546 0.09537 0.65454 0.0
C1051 C 0.73209 0.9314 0.70609 0.0
C1052 C 0.70555 0.03108 0.69473 0.0
H1053 H 0.62933 0.06087 0.67667 0.0
C1054 C 0.72977 0.06304 0.69288 0.0
C1055 C 0.66896 0.03023 0.68876 0.0
C1056 C 0.64092 0.99754 0.69085 0.0
C1057 C 0.71836 0.09417 0.68517 0.0
C1058 C 0.68162 0.09344 0.67931 0.0
C1059 C 0.65769 0.06121 0.68103 0.0
C1060 C 0.66563 0.12684 0.67228 0.0
C1061 C 0.74574 0.12747 0.68333 0.0
C1062 C 0.6595 0.1616 0.67888 0.0
C1063 C 0.6366 0.19006 0.67339 0.0
C1064 C 0.61963 0.18429 0.66122 0.0
C1065 C 0.62774 0.15068 0.65425 0.0
C1066 C 0.65064 0.12214 0.65974 0.0
H1067 H 0.77601 0.11868 0.68487 0.0
H1068 H 0.74298 0.13984 0.6735 0.0
H1069 H 0.73905 0.15027 0.69049 0.0
H1070 H 0.66986 0.16554 0.68867 0.0
H1071 H 0.62974 0.21533 0.67907 0.0
H1072 H 0.643 0.39052 0.97577 0.0
H1073 H 0.70052 0.36745 0.96481 0.0
H1074 H 0.77165 0.42572 0.99303 0.0
H1075 H 0.71402 0.44953 0.00391 0.0
H1076 H 0.79673 0.43985 0.96961 0.0
H1077 H 0.77376 0.28317 0.9734 0.0
H1078 H 0.7331 0.3058 0.9661 0.0
H1079 H 0.74586 0.31721 0.98258 0.0
C1080 C 0.67088 0.39795 0.97976 0.0
C1081 C 0.67394 0.42175 0.99074 0.0
C1082 C 0.7038 0.38453 0.97352 0.0
C1083 C 0.74054 0.39405 0.97824 0.0
C1084 C 0.74366 0.41772 0.98925 0.0
H1085 H 0.94354 0.29433 0.93935 0.0
H1086 H 0.89715 0.31056 0.95637 0.0
C1087 C 0.71072 0.43146 0.99542 0.0
C1088 C 0.7755 0.38172 0.97111 0.0
H1089 H 0.81762 0.30414 0.9567 0.0
C1090 C 0.80156 0.41007 0.96698 0.0
C1091 C 0.78247 0.34277 0.96786 0.0
C1092 C 0.75751 0.31049 0.97285 0.0
C1093 C 0.833 0.4009 0.9591 0.0
C1094 C 0.83808 0.36244 0.95496 0.0
C1095 C 0.81342 0.33371 0.9597 0.0
C1096 C 0.86663 0.35227 0.94487 0.0
C1097 C 0.86021 0.43268 0.95516 0.0
C1098 C 0.8644 0.36969 0.93271 0.0
C1099 C 0.89072 0.36069 0.92305 0.0
C1100 C 0.91991 0.33361 0.92522 0.0
C1101 C 0.92171 0.31551 0.93735 0.0
C1102 C 0.89519 0.3247 0.94709 0.0
H1103 H 0.86051 0.4564 0.96238 0.0
H1104 H 0.88995 0.42193 0.95397 0.0
H1105 H 0.85057 0.44481 0.9458 0.0
H1106 H 0.84199 0.3902 0.93063 0.0
H1107 H 0.88787 0.37501 0.91383 0.0
H1108 H 0.76928 0.45832 0.23933 0.0
H1109 H 0.78478 0.51355 0.22566 0.0
H1110 H 0.81426 0.43691 0.19442 0.0
H1111 H 0.79864 0.38166 0.20798 0.0
H1112 H 0.85293 0.53175 0.21566 0.0
H1113 H 0.74952 0.51397 0.1754 0.0
H1114 H 0.74485 0.48806 0.19041 0.0
H1115 H 0.77703 0.47133 0.17803 0.0
C1116 C 0.77886 0.45321 0.22952 0.0
C1117 C 0.78266 0.41548 0.22476 0.0
C1118 C 0.7875 0.48485 0.22169 0.0
C1119 C 0.80005 0.47955 0.2089 0.0
C1120 C 0.80354 0.44192 0.20409 0.0
H1121 H 0.95301 0.61214 0.16403 0.0
H1122 H 0.91371 0.5638 0.17487 0.0
C1123 C 0.79473 0.41027 0.2119 0.0
C1124 C 0.81279 0.51308 0.20101 0.0
H1125 H 0.80426 0.55517 0.17128 0.0
C1126 C 0.84174 0.53717 0.20605 0.0
C1127 C 0.79808 0.52055 0.18848 0.0
C1128 C 0.76537 0.49734 0.18281 0.0
C1129 C 0.85758 0.56719 0.19872 0.0
C1130 C 0.8445 0.57317 0.18594 0.0
C1131 C 0.8144 0.55034 0.18106 0.0
C1132 C 0.86461 0.60071 0.17732 0.0
C1133 C 0.88912 0.59171 0.20455 0.0
C1134 C 0.84928 0.63705 0.17454 0.0
C1135 C 0.87178 0.66494 0.1682 0.0
C1136 C 0.90985 0.65671 0.16469 0.0
C1137 C 0.92387 0.6194 0.1667 0.0
C1138 C 0.90148 0.59173 0.17291 0.0
H1139 H 0.89033 0.58893 0.21524 0.0
H1140 H 0.91719 0.58259 0.20055 0.0
H1141 H 0.88503 0.62243 0.20207 0.0
H1142 H 0.82082 0.64449 0.17788 0.0
H1143 H 0.86039 0.69353 0.16686 0.0
H1144 H 0.80445 0.54318 0.47497 0.0
H1145 H 0.75739 0.56977 0.45992 0.0
H1146 H 0.84898 0.60394 0.43428 0.0
H1147 H 0.89613 0.57822 0.44946 0.0
H1148 H 0.80157 0.66106 0.43774 0.0
H1149 H 0.71525 0.53173 0.42614 0.0
H1150 H 0.71783 0.53914 0.44328 0.0
H1151 H 0.761 0.5291 0.43432 0.0
C1152 C 0.81444 0.55587 0.46604 0.0
C1153 C 0.85391 0.55875 0.4634 0.0
C1154 C 0.78754 0.57084 0.45739 0.0
C1155 C 0.79955 0.58825 0.44583 0.0
C1156 C 0.83898 0.59052 0.4431 0.0
H1157 H 0.61319 0.66663 0.39459 0.0
H1158 H 0.67365 0.63585 0.40089 0.0
C1159 C 0.86588 0.57596 0.4518 0.0
C1160 C 0.77124 0.60681 0.43714 0.0
H1161 H 0.68431 0.59285 0.42246 0.0
C1162 C 0.77628 0.64591 0.43421 0.0
C1163 C 0.73866 0.58699 0.43222 0.0
C1164 C 0.73309 0.54432 0.43403 0.0
C1165 C 0.74847 0.66624 0.42726 0.0
C1166 C 0.71423 0.64723 0.42341 0.0
C1167 C 0.71033 0.60758 0.42556 0.0
C1168 C 0.68047 0.66867 0.41858 0.0
C1169 C 0.75577 0.7081 0.42433 0.0
C1170 C 0.66452 0.69753 0.42635 0.0
C1171 C 0.63033 0.71512 0.42278 0.0
C1172 C 0.6109 0.704 0.41141 0.0
C1173 C 0.62755 0.67602 0.40337 0.0
C1174 C 0.66197 0.65829 0.40698 0.0
H1175 H 0.78702 0.71415 0.4234 0.0
H1176 H 0.74116 0.71699 0.41529 0.0
H1177 H 0.74481 0.72592 0.43243 0.0
H1178 H 0.6777 0.70543 0.43548 0.0
H1179 H 0.6185 0.73664 0.42921 0.0
H1180 H 0.68296 0.63633 0.70534 0.0
H1181 H 0.65429 0.58219 0.69355 0.0
H1182 H 0.66504 0.51111 0.72735 0.0
H1183 H 0.69467 0.56469 0.73915 0.0
H1184 H 0.68758 0.50745 0.68918 0.0
H1185 H 0.55033 0.49924 0.71633 0.0
H1186 H 0.5811 0.54127 0.71666 0.0
H1187 H 0.59298 0.49993 0.72616 0.0
C1188 C 0.67962 0.60913 0.71027 0.0
C1189 C 0.69121 0.60505 0.72325 0.0
C1190 C 0.66293 0.57827 0.70352 0.0
C1191 C 0.65705 0.54279 0.70962 0.0
C1192 C 0.66862 0.53848 0.72253 0.0
H1193 H 0.57024 0.31812 0.68842 0.0
H1194 H 0.59475 0.37589 0.69919 0.0
C1195 C 0.68551 0.56923 0.72927 0.0
C1196 C 0.63996 0.5099 0.70237 0.0
H1197 H 0.56317 0.44817 0.70174 0.0
C1198 C 0.66026 0.49461 0.69185 0.0
C1199 C 0.60434 0.49322 0.70589 0.0
C1200 C 0.58065 0.50936 0.7168 0.0
C1201 C 0.64648 0.46234 0.685 0.0
C1202 C 0.61096 0.44543 0.68859 0.0
C1203 C 0.59041 0.46109 0.699 0.0
C1204 C 0.59523 0.41074 0.68192 0.0
C1205 C 0.67071 0.4459 0.67427 0.0
C1206 C 0.58673 0.4112 0.66865 0.0
C1207 C 0.57286 0.37807 0.66241 0.0
C1208 C 0.56691 0.34383 0.66936 0.0
C1209 C 0.57467 0.3438 0.68272 0.0
C1210 C 0.58861 0.37688 0.68892 0.0
H1211 H 0.701 0.45602 0.67489 0.0
H1212 H 0.67033 0.414 0.67449 0.0
H1213 H 0.65894 0.4552 0.66482 0.0
H1214 H 0.59076 0.43723 0.66309 0.0
H1215 H 0.56682 0.37933 0.65215 0.0
H1216 H 0.70895 0.51892 0.04567 0.0
H1217 H 0.76445 0.54194 0.05812 0.0
H1218 H 0.69002 0.61246 0.08138 0.0
H1219 H 0.6345 0.58974 0.06894 0.0
H1220 H 0.75134 0.65248 0.07321 0.0
H1221 H 0.80068 0.51508 0.09413 0.0
H1222 H 0.79667 0.5136 0.07684 0.0
H1223 H 0.7543 0.52004 0.08651 0.0
C1224 C 0.70431 0.53889 0.05356 0.0
C1225 C 0.66718 0.55246 0.05628 0.0
C1226 C 0.73611 0.55196 0.06071 0.0
C1227 C 0.73147 0.57853 0.07085 0.0
C1228 C 0.69441 0.5919 0.07364 0.0
H1229 H 0.90288 0.65878 0.1273 0.0
H1230 H 0.84988 0.62419 0.11658 0.0
C1231 C 0.66267 0.57901 0.06646 0.0
C1232 C 0.76533 0.59413 0.07809 0.0
H1233 H 0.84372 0.56863 0.09607 0.0
C1234 C 0.77139 0.63408 0.07825 0.0
C1235 C 0.79132 0.57029 0.08485 0.0
C1236 C 0.78528 0.52741 0.08571 0.0
C1237 C 0.80297 0.65073 0.0847 0.0
C1238 C 0.82988 0.62679 0.09097 0.0
C1239 C 0.82341 0.58691 0.09111 0.0
C1240 C 0.86488 0.64302 0.09732 0.0
C1241 C 0.807 0.69398 0.08487 0.0
C1242 C 0.89195 0.66353 0.09001 0.0
C1243 C 0.92215 0.68323 0.09607 0.0
C1244 C 0.92624 0.68264 0.10962 0.0
C1245 C 0.90072 0.65974 0.11686 0.0
C1246 C 0.87027 0.6401 0.11075 0.0
H1247 H 0.7793 0.70828 0.08271 0.0
H1248 H 0.81762 0.70441 0.0944 0.0
H1249 H 0.82801 0.70287 0.07738 0.0
H1250 H 0.88889 0.66547 0.07961 0.0
H1251 H 0.94144 0.70026 0.09017 0.0
H1252 H 0.68006 0.37366 0.31691 0.0
H1253 H 0.64981 0.42361 0.33001 0.0
H1254 H 0.6566 0.50204 0.29791 0.0
H1255 H 0.68687 0.45216 0.28472 0.0
H1256 H 0.67724 0.49566 0.33699 0.0
H1257 H 0.54352 0.50693 0.30805 0.0
H1258 H 0.57655 0.46756 0.30621 0.0
H1259 H 0.5865 0.51307 0.29871 0.0
C1260 C 0.67536 0.40164 0.31267 0.0
C1261 C 0.68578 0.40901 0.29978 0.0
C1262 C 0.65791 0.43004 0.32014 0.0
C1263 C 0.65043 0.46626 0.31486 0.0
C1264 C 0.66132 0.47395 0.30206 0.0
H1265 H 0.56247 0.6818 0.34105 0.0
H1266 H 0.59156 0.62794 0.32972 0.0
C1267 C 0.67865 0.44549 0.29456 0.0
C1268 C 0.63184 0.49622 0.32282 0.0
H1269 H 0.55429 0.55552 0.32396 0.0
C1270 C 0.6502 0.50856 0.33422 0.0
C1271 C 0.59645 0.51275 0.31919 0.0
C1272 C 0.57437 0.49918 0.30744 0.0
C1273 C 0.63471 0.538 0.34187 0.0
C1274 C 0.59983 0.55511 0.33806 0.0
C1275 C 0.58113 0.54232 0.3268 0.0
C1276 C 0.58302 0.58756 0.34529 0.0
C1277 C 0.65627 0.55141 0.35374 0.0
C1278 C 0.56851 0.58255 0.35782 0.0
C1279 C 0.55172 0.61337 0.36438 0.0
C1280 C 0.54914 0.64966 0.35849 0.0
C1281 C 0.56396 0.65438 0.34593 0.0
C1282 C 0.58058 0.62361 0.3394 0.0
H1283 H 0.686 0.54007 0.35405 0.0
H1284 H 0.65759 0.5833 0.35412 0.0
H1285 H 0.64091 0.54135 0.3625 0.0
H1286 H 0.56973 0.55472 0.36244 0.0
H1287 H 0.54055 0.60865 0.37401 0.0
H1288 H 0.79636 0.48106 0.53311 0.0
H1289 H 0.74725 0.46577 0.54931 0.0
H1290 H 0.82752 0.39292 0.56918 0.0
H1291 H 0.8769 0.40894 0.55337 0.0
H1292 H 0.71747 0.39401 0.55489 0.0
H1293 H 0.78507 0.45702 0.59872 0.0
H1294 H 0.8011 0.46852 0.5826 0.0
H1295 H 0.81591 0.4246 0.59018 0.0
C1296 C 0.8037 0.46225 0.54104 0.0
C1297 C 0.84054 0.44611 0.54189 0.0
C1298 C 0.77558 0.45343 0.55026 0.0
C1299 C 0.78388 0.42865 0.56057 0.0
C1300 C 0.82065 0.41271 0.56147 0.0
H1301 H 0.65261 0.30609 0.61842 0.0
H1302 H 0.70361 0.33522 0.60535 0.0
C1303 C 0.8487 0.42147 0.55229 0.0
C1304 C 0.75352 0.41747 0.56994 0.0
H1305 H 0.73208 0.41415 0.60217 0.0
C1306 C 0.72047 0.39881 0.56521 0.0
C1307 C 0.75759 0.42352 0.58342 0.0
C1308 C 0.79166 0.44483 0.58904 0.0
C1309 C 0.69186 0.38517 0.5736 0.0
C1310 C 0.69609 0.3909 0.58708 0.0
C1311 C 0.72896 0.40979 0.59183 0.0
C1312 C 0.66661 0.37696 0.59631 0.0
C1313 C 0.65781 0.36374 0.56798 0.0
C1314 C 0.62935 0.3919 0.59598 0.0
C1315 C 0.60018 0.37542 0.60342 0.0
C1316 C 0.6077 0.34368 0.61142 0.0
C1317 C 0.64573 0.33048 0.6124 0.0
C1318 C 0.67492 0.347 0.6049 0.0
H1319 H 0.66306 0.35431 0.55787 0.0
H1320 H 0.65071 0.33808 0.57389 0.0
H1321 H 0.63246 0.38286 0.56799 0.0
H1322 H 0.62251 0.4155 0.58959 0.0
H1323 H 0.57139 0.38669 0.60252 0.0
H1324 H 0.87253 0.58732 0.77884 0.0
H1325 H 0.89365 0.52986 0.79025 0.0
H1326 H 0.79056 0.53144 0.81323 0.0
H1327 H 0.7686 0.58839 0.80165 0.0
H1328 H 0.8621 0.52767 0.82736 0.0
H1329 H 0.85246 0.41685 0.78858 0.0
H1330 H 0.87693 0.46083 0.78446 0.0
H1331 H 0.82642 0.46153 0.78788 0.0
C1332 C 0.85388 0.57507 0.78612 0.0
C1333 C 0.81876 0.59261 0.78929 0.0
C1334 C 0.86606 0.54217 0.79264 0.0
C1335 C 0.84345 0.52611 0.80247 0.0
C1336 C 0.80834 0.5433 0.80562 0.0
H1337 H 0.87833 0.35756 0.86234 0.0
H1338 H 0.85027 0.40132 0.84657 0.0
C1339 C 0.79601 0.57607 0.79906 0.0
C1340 C 0.85768 0.49316 0.81012 0.0
H1341 H 0.88146 0.3981 0.80832 0.0
C1342 C 0.86613 0.49929 0.82322 0.0
C1343 C 0.86338 0.45633 0.80463 0.0
C1344 C 0.85412 0.44818 0.79064 0.0
C1345 C 0.88044 0.46971 0.83099 0.0
C1346 C 0.88542 0.43256 0.8256 0.0
C1347 C 0.87734 0.42646 0.81245 0.0
C1348 C 0.89901 0.40007 0.83364 0.0
C1349 C 0.89096 0.47883 0.84484 0.0
C1350 C 0.93446 0.38254 0.8311 0.0
C1351 C 0.95026 0.35677 0.84001 0.0
C1352 C 0.93086 0.3485 0.85158 0.0
C1353 C 0.89402 0.36367 0.85354 0.0
C1354 C 0.87809 0.38889 0.84459 0.0
H1355 H 0.89551 0.51015 0.84638 0.0
H1356 H 0.86723 0.46944 0.85126 0.0
H1357 H 0.91746 0.46356 0.84778 0.0
H1358 H 0.95096 0.39057 0.82265 0.0
H1359 H 0.97884 0.34574 0.83832 0.0
H1360 H 0.33044 0.50724 0.06521 0.0
H1361 H 0.27506 0.52935 0.0778 0.0
H1362 H 0.26333 0.62659 0.05246 0.0
H1363 H 0.31853 0.6047 0.03984 0.0
H1364 H 0.26911 0.60766 0.08996 0.0
H1365 H 0.15346 0.57372 0.05453 0.0
H1366 H 0.19962 0.55029 0.05426 0.0
H1367 H 0.19495 0.59828 0.0482 0.0
C1368 C 0.31575 0.53308 0.06224 0.0
C1369 C 0.3288 0.55422 0.05152 0.0
C1370 C 0.28428 0.54574 0.06947 0.0
C1371 C 0.26496 0.57939 0.06599 0.0
C1372 C 0.27765 0.60033 0.05523 0.0
H1373 H 0.08466 0.72604 0.09027 0.0
H1374 H 0.13278 0.6877 0.07926 0.0
C1375 C 0.30932 0.58793 0.04808 0.0
C1376 C 0.23243 0.59365 0.07384 0.0
H1377 H 0.13658 0.61307 0.0724 0.0
C1378 C 0.23999 0.60846 0.08623 0.0
C1379 C 0.19461 0.59464 0.0689 0.0
C1380 C 0.18489 0.57814 0.05578 0.0
C1381 C 0.21098 0.62594 0.09359 0.0
C1382 C 0.17317 0.62769 0.08854 0.0
C1383 C 0.16548 0.61168 0.0763 0.0
C1384 C 0.14201 0.64893 0.09525 0.0
C1385 C 0.22158 0.6441 0.1064 0.0
C1386 C 0.13028 0.63936 0.10783 0.0
C1387 C 0.10271 0.66155 0.11425 0.0
C1388 C 0.08611 0.69347 0.10815 0.0
C1389 C 0.09677 0.70178 0.09533 0.0
C1390 C 0.12438 0.67983 0.08899 0.0
H1391 H 0.25313 0.64803 0.10745 0.0
H1392 H 0.20768 0.67253 0.10755 0.0
H1393 H 0.21157 0.62526 0.11435 0.0
H1394 H 0.14273 0.61503 0.11275 0.0
H1395 H 0.09484 0.65405 0.12405 0.0
H1396 H 0.21252 0.54528 0.78276 0.0
H1397 H 0.1922 0.49101 0.79624 0.0
H1398 H 0.16503 0.5694 0.82721 0.0
H1399 H 0.18392 0.62369 0.81374 0.0
H1400 H 0.21713 0.46573 0.82115 0.0
H1401 H 0.06443 0.50958 0.82144 0.0
H1402 H 0.09895 0.52923 0.81022 0.0
H1403 H 0.09666 0.5472 0.82653 0.0
C1404 C 0.20199 0.551 0.79242 0.0
C1405 C 0.19966 0.589 0.79711 0.0
C1406 C 0.1907 0.5199 0.80014 0.0
C1407 C 0.1766 0.52618 0.81267 0.0
C1408 C 0.17528 0.5639 0.81751 0.0
H1409 H 0.08217 0.40825 0.87694 0.0
H1410 H 0.11773 0.44979 0.86218 0.0
C1411 C 0.18651 0.59493 0.80982 0.0
C1412 C 0.16216 0.49368 0.82064 0.0
H1413 H 0.08258 0.46221 0.83679 0.0
C1414 C 0.18762 0.46465 0.82447 0.0
C1415 C 0.12354 0.49207 0.82485 0.0
C1416 C 0.09418 0.52095 0.82045 0.0
C1417 C 0.17582 0.43512 0.8329 0.0
C1418 C 0.13766 0.43463 0.83752 0.0
C1419 C 0.11197 0.46287 0.83333 0.0
C1420 C 0.12375 0.40658 0.84726 0.0
C1421 C 0.20439 0.40546 0.83721 0.0
C1422 C 0.11671 0.36789 0.84399 0.0
C1423 C 0.09647 0.34381 0.85251 0.0
C1424 C 0.08272 0.35837 0.86432 0.0
C1425 C 0.09233 0.39627 0.8679 0.0
C1426 C 0.11258 0.42008 0.85946 0.0
H1427 H 0.23399 0.41225 0.83389 0.0
H1428 H 0.2044 0.40328 0.84792 0.0
H1429 H 0.19588 0.37693 0.83326 0.0
H1430 H 0.1247 0.35702 0.83456 0.0
H1431 H 0.08901 0.3149 0.84944 0.0
H1432 H 0.20161 0.45972 0.53902 0.0
H1433 H 0.24552 0.44134 0.55642 0.0
H1434 H 0.15374 0.37957 0.57525 0.0
H1435 H 0.10947 0.39832 0.55807 0.0
H1436 H 0.23669 0.45379 0.58472 0.0
H1437 H 0.242 0.29976 0.56996 0.0
H1438 H 0.22599 0.33697 0.55914 0.0
H1439 H 0.1952 0.32053 0.57189 0.0
C1440 C 0.19068 0.44252 0.54692 0.0
C1441 C 0.15212 0.43017 0.54708 0.0
C1442 C 0.2158 0.43199 0.55682 0.0
C1443 C 0.20286 0.40883 0.56701 0.0
C1444 C 0.16433 0.39701 0.56735 0.0
H1445 H 0.34455 0.29298 0.62451 0.0
H1446 H 0.28744 0.31926 0.61405 0.0
C1447 C 0.13918 0.40758 0.55748 0.0
C1448 C 0.22995 0.3964 0.57715 0.0
H1449 H 0.27823 0.31813 0.58814 0.0
C1450 C 0.24566 0.42411 0.58555 0.0
C1451 C 0.24114 0.35761 0.57827 0.0
C1452 C 0.2255 0.32689 0.56931 0.0
C1453 C 0.27292 0.41409 0.59494 0.0
C1454 C 0.28532 0.37553 0.59571 0.0
C1455 C 0.26858 0.34765 0.58758 0.0
C1456 C 0.3183 0.36399 0.60385 0.0
C1457 C 0.28821 0.44491 0.60391 0.0
C1458 C 0.35443 0.38095 0.60182 0.0
C1459 C 0.38701 0.36616 0.6078 0.0
C1460 C 0.38426 0.33374 0.61584 0.0
C1461 C 0.34773 0.31803 0.61842 0.0
C1462 C 0.31505 0.33293 0.61242 0.0
H1463 H 0.26689 0.46817 0.6053 0.0
H1464 H 0.29587 0.43299 0.61351 0.0
H1465 H 0.31435 0.45799 0.59961 0.0
H1466 H 0.35783 0.40437 0.59504 0.0
H1467 H 0.41461 0.37913 0.60562 0.0
H1468 H 0.27502 0.48201 0.29097 0.0
H1469 H 0.29257 0.53408 0.30595 0.0
H1470 H 0.33086 0.45074 0.33378 0.0
H1471 H 0.31382 0.39873 0.31884 0.0
H1472 H 0.26929 0.55249 0.33053 0.0
H1473 H 0.42471 0.51881 0.33081 0.0
H1474 H 0.39175 0.49754 0.31932 0.0
H1475 H 0.39496 0.47896 0.33549 0.0
C1476 C 0.28703 0.47476 0.3003 0.0
C1477 C 0.29345 0.43614 0.30361 0.0
C1478 C 0.29711 0.50459 0.30886 0.0
C1479 C 0.3138 0.49648 0.32093 0.0
C1480 C 0.31907 0.4579 0.32441 0.0
H1481 H 0.41494 0.6419 0.38121 0.0
H1482 H 0.3799 0.58921 0.3706 0.0
C1483 C 0.30928 0.42813 0.31584 0.0
C1484 C 0.326 0.52828 0.3298 0.0
H1485 H 0.40388 0.56576 0.34578 0.0
C1486 C 0.29873 0.55538 0.33386 0.0
C1487 C 0.36445 0.53222 0.33417 0.0
C1488 C 0.39575 0.50559 0.32964 0.0
C1489 C 0.30878 0.58599 0.3422 0.0
C1490 C 0.34717 0.58983 0.34655 0.0
C1491 C 0.37432 0.56256 0.34259 0.0
C1492 C 0.36082 0.62329 0.3544 0.0
C1493 C 0.27819 0.61384 0.34636 0.0
C1494 C 0.36049 0.66039 0.34913 0.0
C1495 C 0.38038 0.69057 0.35522 0.0
C1496 C 0.40105 0.68434 0.36672 0.0
C1497 C 0.3987 0.64793 0.37253 0.0
C1498 C 0.37905 0.61762 0.36638 0.0
H1499 H 0.24893 0.60129 0.34524 0.0
H1500 H 0.28236 0.62275 0.3566 0.0
H1501 H 0.27995 0.63993 0.34026 0.0
H1502 H 0.34719 0.66545 0.33982 0.0
H1503 H 0.3819 0.71815 0.35041 0.0
H1504 H 0.3309 0.38324 0.98685 0.0
H1505 H 0.27809 0.36594 0.97238 0.0
H1506 H 0.27501 0.48223 0.95823 0.0
H1507 H 0.32951 0.4992 0.972 0.0
H1508 H 0.20653 0.38947 0.9711 0.0
H1509 H 0.27682 0.42565 0.92467 0.0
H1510 H 0.30298 0.42402 0.93971 0.0
H1511 H 0.27529 0.46574 0.93559 0.0
C1512 C 0.31962 0.40507 0.98049 0.0
C1513 C 0.33505 0.44263 0.98059 0.0
C1514 C 0.28903 0.39516 0.97228 0.0
C1515 C 0.27285 0.42251 0.96397 0.0
C1516 C 0.28752 0.46024 0.96425 0.0
H1517 H 0.07161 0.40911 0.91255 0.0
H1518 H 0.1246 0.43214 0.92638 0.0
C1519 C 0.31842 0.47009 0.97235 0.0
C1520 C 0.24013 0.41163 0.95529 0.0
H1521 H 0.21 0.41111 0.92374 0.0
C1522 C 0.20745 0.39416 0.96075 0.0
C1523 C 0.24111 0.41759 0.94173 0.0
C1524 C 0.27608 0.43391 0.93505 0.0
C1525 C 0.17591 0.38274 0.95309 0.0
C1526 C 0.17687 0.38896 0.9396 0.0
C1527 C 0.20922 0.40673 0.93411 0.0
C1528 C 0.14529 0.37537 0.93098 0.0
C1529 C 0.14163 0.36409 0.95946 0.0
C1530 C 0.13977 0.3359 0.92884 0.0
C1531 C 0.1099 0.32271 0.92089 0.0
C1532 C 0.0846 0.34869 0.91493 0.0
C1533 C 0.09043 0.38832 0.917 0.0
C1534 C 0.1207 0.40153 0.92489 0.0
H1535 H 0.14206 0.36799 0.97013 0.0
H1536 H 0.1145 0.37609 0.95558 0.0
H1537 H 0.14167 0.3328 0.95733 0.0
H1538 H 0.15859 0.31523 0.93336 0.0
H1539 H 0.10635 0.29198 0.91959 0.0
H1540 H 0.32486 0.62126 0.70904 0.0
H1541 H 0.35261 0.56655 0.69755 0.0
H1542 H 0.33862 0.49643 0.7315 0.0
H1543 H 0.3097 0.55066 0.74295 0.0
H1544 H 0.41776 0.52275 0.70355 0.0
H1545 H 0.28521 0.43289 0.70316 0.0
H1546 H 0.28477 0.48354 0.707 0.0
H1547 H 0.29989 0.44933 0.71891 0.0
C1548 C 0.32725 0.59408 0.71403 0.0
C1549 C 0.31468 0.59028 0.72689 0.0
C1550 C 0.34342 0.56294 0.70748 0.0
C1551 C 0.34719 0.52728 0.7136 0.0
C1552 C 0.33538 0.52352 0.72651 0.0
H1553 H 0.43493 0.30537 0.68984 0.0
H1554 H 0.41043 0.36077 0.70174 0.0
C1555 C 0.31921 0.55467 0.73308 0.0
C1556 C 0.36344 0.49408 0.70646 0.0
H1557 H 0.34209 0.40358 0.69556 0.0
C1558 C 0.4012 0.49673 0.70176 0.0
C1559 C 0.34176 0.46018 0.70413 0.0
C1560 C 0.30055 0.45627 0.70845 0.0
C1561 C 0.41804 0.46613 0.69496 0.0
C1562 C 0.39632 0.4323 0.69265 0.0
C1563 C 0.35864 0.4296 0.69736 0.0
C1564 C 0.41214 0.3992 0.68539 0.0
C1565 C 0.45916 0.46986 0.69052 0.0
C1566 C 0.42091 0.4024 0.67219 0.0
C1567 C 0.43471 0.37067 0.66531 0.0
C1568 C 0.44003 0.33517 0.6715 0.0
C1569 C 0.43123 0.33221 0.68474 0.0
C1570 C 0.41722 0.36385 0.69158 0.0
H1571 H 0.47439 0.49405 0.69541 0.0
H1572 H 0.47512 0.44291 0.69237 0.0
H1573 H 0.45963 0.47518 0.67995 0.0
H1574 H 0.41667 0.42933 0.6672 0.0
H1575 H 0.44127 0.37402 0.65514 0.0
H1576 H 0.15169 0.56073 0.45541 0.0
H1577 H 0.20958 0.57783 0.44335 0.0
H1578 H 0.27916 0.52061 0.47182 0.0
H1579 H 0.2212 0.50316 0.48391 0.0
H1580 H 0.26721 0.62294 0.45187 0.0
H1581 H 0.32525 0.48044 0.43839 0.0
H1582 H 0.2768 0.48673 0.44419 0.0
H1583 H 0.31634 0.48558 0.4554 0.0
C1584 C 0.1793 0.55166 0.45909 0.0
C1585 C 0.18186 0.53075 0.47066 0.0
C1586 C 0.21236 0.56124 0.45214 0.0
C1587 C 0.24873 0.55009 0.45657 0.0
C1588 C 0.25139 0.52872 0.46803 0.0
H1589 H 0.4585 0.67082 0.44064 0.0
H1590 H 0.40644 0.63364 0.45033 0.0
C1591 C 0.21824 0.51891 0.47497 0.0
C1592 C 0.28384 0.56376 0.44978 0.0
H1593 H 0.36739 0.53448 0.43555 0.0
C1594 C 0.28891 0.60351 0.44823 0.0
C1595 C 0.31206 0.53842 0.4449 0.0
C1596 C 0.30726 0.49539 0.44568 0.0
C1597 C 0.3217 0.61869 0.44222 0.0
C1598 C 0.35067 0.59351 0.43785 0.0
C1599 C 0.34531 0.55368 0.43906 0.0
C1600 C 0.38687 0.60878 0.43228 0.0
C1601 C 0.32506 0.6617 0.4406 0.0
C1602 C 0.39465 0.6051 0.41901 0.0
C1603 C 0.42485 0.62612 0.41342 0.0
C1604 C 0.44728 0.6513 0.42103 0.0
C1605 C 0.44139 0.6521 0.43448 0.0
C1606 C 0.41161 0.63093 0.44004 0.0
H1607 H 0.2968 0.67603 0.44157 0.0
H1608 H 0.34448 0.67354 0.44817 0.0
H1609 H 0.33739 0.66901 0.43102 0.0
H1610 H 0.37596 0.58793 0.41287 0.0
H1611 H 0.42878 0.62479 0.40306 0.0
H1612 H 0.20305 0.39881 0.20726 0.0
H1613 H 0.19579 0.45065 0.19157 0.0
H1614 H 0.23383 0.53293 0.22028 0.0
H1615 H 0.24214 0.48092 0.23588 0.0
H1616 H 0.14746 0.50751 0.19337 0.0
H1617 H 0.29342 0.57009 0.18963 0.0
H1618 H 0.28433 0.52415 0.19711 0.0
H1619 H 0.27741 0.56806 0.20607 0.0
C1620 C 0.21019 0.42794 0.21017 0.0
C1621 C 0.22299 0.43594 0.22279 0.0
C1622 C 0.20627 0.45749 0.20118 0.0
C1623 C 0.21486 0.49566 0.20465 0.0
C1624 C 0.22814 0.50363 0.21723 0.0
H1625 H 0.13018 0.70991 0.18232 0.0
H1626 H 0.17013 0.65872 0.19117 0.0
C1627 C 0.23256 0.47396 0.22618 0.0
C1628 C 0.20586 0.52737 0.1956 0.0
H1629 H 0.24129 0.61024 0.18236 0.0
C1630 C 0.16826 0.52949 0.19076 0.0
C1631 C 0.23296 0.55616 0.19219 0.0
C1632 C 0.27438 0.55431 0.19642 0.0
C1633 C 0.15653 0.56035 0.18309 0.0
C1634 C 0.18317 0.58984 0.18011 0.0
C1635 C 0.22107 0.5874 0.18463 0.0
C1636 C 0.17029 0.6251 0.17355 0.0
C1637 C 0.11517 0.56214 0.17871 0.0
C1638 C 0.15919 0.62407 0.16049 0.0
C1639 C 0.1367 0.65357 0.15539 0.0
C1640 C 0.12518 0.68413 0.16333 0.0
C1641 C 0.13935 0.68684 0.176 0.0
C1642 C 0.16204 0.65761 0.18106 0.0
H1643 H 0.09723 0.53899 0.18301 0.0
H1644 H 0.10258 0.59034 0.18134 0.0
H1645 H 0.11383 0.55925 0.16803 0.0
H1646 H 0.16517 0.59904 0.15459 0.0
H1647 H 0.12539 0.65063 0.14567 0.0
loop_
_geom_bond_atom_site_label_1
_geom_bond_atom_site_label_2
_geom_bond_distance
_geom_bond_site_symmetry_2
_ccdc_geom_bond_type
C0 C1 1.388 . S
C0 C2 1.383 1_565 S
C0 H28 0.928 1_565 S
C1 C0 1.388 . S
C1 C4 1.382 . S
C2 C0 1.383 1_545 S
C2 C3 1.381 1_545 S
C2 H29 0.930 . S
C3 C2 1.381 1_565 S
C3 C5 1.381 . S
C3 C6 1.487 1_565 S
C4 C1 1.382 . S
C4 C5 1.387 . S
C4 H30 0.930 . S
C5 C3 1.381 . S
C5 C4 1.387 . S
C5 H31 0.931 . S
C6 C3 1.487 1_545 S
C6 C13 1.399 . S
C6 N44 1.343 1_545 S
C7 C8 1.384 . S
C7 C9 1.384 . S
C7 H32 0.931 . S
C8 C7 1.384 . S
C8 C11 1.382 . S
C9 C7 1.384 . S
C9 C10 1.381 . S
C9 H33 0.930 1_545 S
C10 C9 1.381 . S
C10 C12 1.381 . S
C10 C13 1.487 . S
C11 C8 1.382 . S
C11 C12 1.387 . S
C11 H34 0.930 . S
C12 C10 1.381 . S
C12 C11 1.387 . S
C12 H35 0.931 . S
C13 C6 1.399 . S
C13 C10 1.487 . S
C13 N45 1.343 . S
C14 C15 1.384 . S
C14 C16 1.384 . S
C14 H36 0.931 . S
C15 C14 1.384 . S
C15 C18 1.382 . S
C16 C14 1.384 . S
C16 C17 1.381 . S
C16 H37 0.930 1_545 S
C17 C16 1.381 . S
C17 C19 1.381 . S
C17 C20 1.487 . S
C18 C15 1.382 . S
C18 C19 1.387 . S
C18 H38 0.930 . S
C19 C17 1.381 . S
C19 C18 1.387 . S
C19 H39 0.931 . S
C20 C17 1.487 . S
C20 C27 1.399 . S
C20 N45 1.343 1_655 S
C21 C22 1.388 . S
C21 C23 1.383 1_565 S
C21 H40 0.928 1_565 S
C22 C21 1.388 . S
C22 C25 1.382 . S
C23 C21 1.383 1_545 S
C23 C24 1.381 1_545 S
C23 H41 0.930 . S
C24 C23 1.381 1_565 S
C24 C26 1.381 . S
C24 C27 1.487 1_565 S
C25 C22 1.382 . S
C25 C26 1.387 . S
C25 H42 0.930 . S
C26 C24 1.381 . S
C26 C25 1.387 . S
C26 H43 0.931 . S
C27 C20 1.399 . S
C27 C24 1.487 1_545 S
C27 N44 1.343 1_645 S
H28 C0 0.928 1_545 S
H29 C2 0.930 . S
H30 C4 0.930 . S
H31 C5 0.931 . S
H32 C7 0.931 . S
H33 C9 0.930 1_565 S
H34 C11 0.930 . S
H35 C12 0.931 . S
H36 C14 0.931 . S
H37 C16 0.930 1_565 S
H38 C18 0.930 . S
H39 C19 0.931 . S
H40 C21 0.928 1_545 S
H41 C23 0.930 . S
H42 C25 0.930 . S
H43 C26 0.931 . S
N44 C6 1.343 1_565 S
N44 C27 1.343 1_465 S
N45 C13 1.343 . S
N45 C20 1.343 1_455 S
C46 C47 1.384 . S
C46 C48 1.384 . S
C46 H74 0.931 . S
C47 C46 1.384 . S
C47 C50 1.382 . S
C48 C46 1.384 . S
C48 C49 1.381 . S
C48 H75 0.930 . S
C49 C48 1.381 . S
C49 C51 1.381 . S
C49 C52 1.487 . S
C50 C47 1.382 . S
C50 C51 1.387 . S
C50 H76 0.930 . S
C51 C49 1.381 . S
C51 C50 1.387 . S
C51 H77 0.931 . S
C52 C49 1.487 . S
C52 C59 1.399 . S
C52 N90 1.343 . S
C53 C54 1.384 . S
C53 C55 1.384 . S
C53 H78 0.931 . S
C54 C53 1.384 . S
C54 C57 1.382 . S
C55 C53 1.384 . S
C55 C56 1.381 . S
C55 H79 0.930 . S
C56 C55 1.381 . S
C56 C58 1.381 . S
C56 C59 1.487 . S
C57 C54 1.382 . S
C57 C58 1.387 . S
C57 H80 0.930 . S
C58 C56 1.381 . S
C58 C57 1.387 . S
C58 H81 0.931 . S
C59 C52 1.399 . S
C59 C56 1.487 . S
C59 N91 1.343 . S
C60 C61 1.384 . S
C60 C62 1.384 . S
C60 H82 0.931 . S
C61 C60 1.384 . S
C61 C64 1.382 . S
C62 C60 1.384 . S
C62 C63 1.381 . S
C62 H83 0.930 . S
C63 C62 1.381 . S
C63 C65 1.381 . S
C63 C66 1.487 . S
C64 C61 1.382 . S
C64 C65 1.387 . S
C64 H84 0.930 . S
C65 C63 1.381 . S
C65 C64 1.387 . S
C65 H85 0.931 . S
C66 C63 1.487 . S
C66 C73 1.399 . S
C66 N91 1.343 . S
C67 C68 1.384 . S
C67 C69 1.384 . S
C67 H86 0.931 . S
C68 C67 1.384 . S
C68 C71 1.382 . S
C69 C67 1.384 . S
C69 C70 1.381 . S
C69 H87 0.930 . S
C70 C69 1.381 . S
C70 C72 1.381 . S
C70 C73 1.487 . S
C71 C68 1.382 . S
C71 C72 1.387 . S
C71 H88 0.930 . S
C72 C70 1.381 . S
C72 C71 1.387 . S
C72 H89 0.931 . S
C73 C66 1.399 . S
C73 C70 1.487 . S
C73 N90 1.343 . S
H74 C46 0.931 . S
H75 C48 0.930 . S
H76 C50 0.930 . S
H77 C51 0.931 . S
H78 C53 0.931 . S
H79 C55 0.930 . S
H80 C57 0.930 . S
H81 C58 0.931 . S
H82 C60 0.931 . S
H83 C62 0.930 . S
H84 C64 0.930 . S
H85 C65 0.931 . S
H86 C67 0.931 . S
H87 C69 0.930 . S
H88 C71 0.930 . S
H89 C72 0.931 . S
N90 C52 1.343 . S
N90 C73 1.343 . S
N91 C59 1.343 . S
N91 C66 1.343 . S
C92 C93 1.384 . S
C92 C94 1.384 . S
C92 H120 0.931 1_545 S
C93 C92 1.384 . S
C93 C96 1.382 . S
C94 C92 1.384 . S
C94 C95 1.381 . S
C94 H121 0.930 1_545 S
C95 C94 1.381 . S
C95 C97 1.381 . S
C95 C98 1.487 1_556 S
C96 C93 1.382 . S
C96 C97 1.387 . S
C96 H122 0.930 . S
C97 C95 1.381 . S
C97 C96 1.387 . S
C97 H123 0.931 . S
C98 C95 1.487 1_554 S
C98 C105 1.399 1_545 S
C98 N136 1.316 1_554 S
C99 C100 1.384 . S
C99 C101 1.384 . S
C99 H124 0.931 1_565 S
C100 C99 1.384 . S
C100 C103 1.382 . S
C101 C99 1.384 . S
C101 C102 1.381 . S
C101 H125 0.930 1_565 S
C102 C101 1.381 . S
C102 C104 1.381 . S
C102 C105 1.487 . S
C103 C100 1.382 . S
C103 C104 1.387 . S
C103 H126 0.930 . S
C104 C102 1.381 . S
C104 C103 1.387 . S
C104 H127 0.931 . S
C105 C98 1.399 1_565 S
C105 C102 1.487 . S
C105 N137 1.343 . S
C106 C107 1.384 . S
C106 C108 1.384 . S
C106 H128 0.931 1_565 S
C107 C106 1.384 . S
C107 C110 1.382 . S
C108 C106 1.384 . S
C108 C109 1.381 . S
C108 H129 0.930 1_565 S
C109 C108 1.381 . S
C109 C111 1.381 . S
C109 C112 1.487 . S
C110 C107 1.382 . S
C110 C111 1.387 . S
C110 H130 0.930 . S
C111 C109 1.381 . S
C111 C110 1.387 . S
C111 H131 0.931 . S
C112 C109 1.487 . S
C112 C119 1.399 1_565 S
C112 N137 1.343 . S
C113 C114 1.384 . S
C113 C115 1.384 . S
C113 H132 0.931 1_545 S
C114 C113 1.384 . S
C114 C117 1.382 . S
C115 C113 1.384 . S
C115 C116 1.381 . S
C115 H133 0.930 1_545 S
C116 C115 1.381 . S
C116 C118 1.381 . S
C116 C119 1.487 1_556 S
C117 C114 1.382 . S
C117 C118 1.387 . S
C117 H134 0.930 . S
C118 C116 1.381 . S
C118 C117 1.387 . S
C118 H135 0.931 . S
C119 C112 1.399 1_545 S
C119 C116 1.487 1_554 S
C119 N136 1.316 1_554 S
H120 C92 0.931 1_565 S
H121 C94 0.930 1_565 S
H122 C96 0.930 . S
H123 C97 0.931 . S
H124 C99 0.931 1_545 S
H125 C101 0.930 1_545 S
H126 C103 0.930 . S
H127 C104 0.931 . S
H128 C106 0.931 1_545 S
H129 C108 0.930 1_545 S
H130 C110 0.930 . S
H131 C111 0.931 . S
H132 C113 0.931 1_565 S
H133 C115 0.930 1_565 S
H134 C117 0.930 . S
H135 C118 0.931 . S
N136 C98 1.316 1_556 S
N136 C119 1.316 1_556 S
N137 C105 1.343 . S
N137 C112 1.343 . S
C138 C139 1.384 . S
C138 C140 1.384 . S
C138 H166 0.931 . S
C139 C138 1.384 . S
C139 C142 1.382 . S
C140 C138 1.384 . S
C140 C141 1.381 . S
C140 H167 0.930 . S
C141 C140 1.381 . S
C141 C143 1.381 . S
C141 C144 1.487 . S
C142 C139 1.382 . S
C142 C143 1.387 . S
C142 H168 0.930 . S
C143 C141 1.381 . S
C143 C142 1.387 . S
C143 H169 0.931 . S
C144 C141 1.487 . S
C144 C151 1.399 . S
C144 N182 1.343 . S
C145 C146 1.384 . S
C145 C147 1.384 . S
C145 H170 0.931 . S
C146 C145 1.384 . S
C146 C149 1.382 . S
C147 C145 1.384 . S
C147 C148 1.381 . S
C147 H171 0.930 . S
C148 C147 1.381 . S
C148 C150 1.381 . S
C148 C151 1.487 . S
C149 C146 1.382 . S
C149 C150 1.387 . S
C149 H172 0.930 . S
C150 C148 1.381 . S
C150 C149 1.387 . S
C150 H173 0.931 . S
C151 C144 1.399 . S
C151 C148 1.487 . S
C151 N183 1.343 . S
C152 C153 1.384 . S
C152 C154 1.384 . S
C152 H174 0.931 . S
C153 C152 1.384 . S
C153 C156 1.382 . S
C154 C152 1.384 . S
C154 C155 1.381 . S
C154 H175 0.930 . S
C155 C154 1.381 . S
C155 C157 1.381 . S
C155 C158 1.487 . S
C156 C153 1.382 . S
C156 C157 1.387 . S
C156 H176 0.930 . S
C157 C155 1.381 . S
C157 C156 1.387 . S
C157 H177 0.931 . S
C158 C155 1.487 . S
C158 C165 1.399 . S
C158 N183 1.343 . S
C159 C160 1.384 . S
C159 C161 1.384 . S
C159 H178 0.931 . S
C160 C159 1.384 . S
C160 C163 1.382 . S
C161 C159 1.384 . S
C161 C162 1.381 . S
C161 H179 0.930 . S
C162 C161 1.381 . S
C162 C164 1.381 . S
C162 C165 1.487 . S
C163 C160 1.382 . S
C163 C164 1.387 . S
C163 H180 0.930 . S
C164 C162 1.381 . S
C164 C163 1.387 . S
C164 H181 0.931 . S
C165 C158 1.399 . S
C165 C162 1.487 . S
C165 N182 1.343 . S
H166 C138 0.931 . S
H167 C140 0.930 . S
H168 C142 0.930 . S
H169 C143 0.931 . S
H170 C145 0.931 . S
H171 C147 0.930 . S
H172 C149 0.930 . S
H173 C150 0.931 . S
H174 C152 0.931 . S
H175 C154 0.930 . S
H176 C156 0.930 . S
H177 C157 0.931 . S
H178 C159 0.931 . S
H179 C161 0.930 . S
H180 C163 0.930 . S
H181 C164 0.931 . S
N182 C144 1.343 . S
N182 C165 1.343 . S
N183 C151 1.343 . S
N183 C158 1.343 . S
C184 C185 1.384 . S
C184 C186 1.384 . S
C184 H212 0.931 . S
C185 C184 1.384 . S
C185 C188 1.382 . S
C186 C184 1.384 . S
C186 C187 1.381 . S
C186 H213 0.930 . S
C187 C186 1.381 . S
C187 C189 1.381 . S
C187 C190 1.487 . S
C188 C185 1.382 . S
C188 C189 1.387 . S
C188 H214 0.930 . S
C189 C187 1.381 . S
C189 C188 1.387 . S
C189 H215 0.931 . S
C190 C187 1.487 . S
C190 C197 1.399 . S
C190 N228 1.343 . S
C191 C192 1.384 . S
C191 C193 1.384 . S
C191 H216 0.931 . S
C192 C191 1.384 . S
C192 C195 1.382 . S
C193 C191 1.384 . S
C193 C194 1.381 . S
C193 H217 0.930 . S
C194 C193 1.381 . S
C194 C196 1.381 . S
C194 C197 1.487 . S
C195 C192 1.382 . S
C195 C196 1.387 . S
C195 H218 0.930 . S
C196 C194 1.381 . S
C196 C195 1.387 . S
C196 H219 0.931 . S
C197 C190 1.399 . S
C197 C194 1.487 . S
C197 N229 1.343 . S
C198 C199 1.384 . S
C198 C200 1.384 . S
C198 H220 0.931 . S
C199 C198 1.384 . S
C199 C202 1.382 . S
C200 C198 1.384 . S
C200 C201 1.381 . S
C200 H221 0.930 . S
C201 C200 1.381 . S
C201 C203 1.381 . S
C201 C204 1.487 . S
C202 C199 1.382 . S
C202 C203 1.387 . S
C202 H222 0.930 . S
C203 C201 1.381 . S
C203 C202 1.387 . S
C203 H223 0.931 . S
C204 C201 1.487 . S
C204 C211 1.399 . S
C204 N229 1.343 . S
C205 C206 1.384 . S
C205 C207 1.384 . S
C205 H224 0.931 . S
C206 C205 1.384 . S
C206 C209 1.382 . S
C207 C205 1.384 . S
C207 C208 1.381 . S
C207 H225 0.930 . S
C208 C207 1.381 . S
C208 C210 1.381 . S
C208 C211 1.487 . S
C209 C206 1.382 . S
C209 C210 1.387 . S
C209 H226 0.930 . S
C210 C208 1.381 . S
C210 C209 1.387 . S
C210 H227 0.931 . S
C211 C204 1.399 . S
C211 C208 1.487 . S
C211 N228 1.343 . S
H212 C184 0.931 . S
H213 C186 0.930 . S
H214 C188 0.930 . S
H215 C189 0.931 . S
H216 C191 0.931 . S
H217 C193 0.930 . S
H218 C195 0.930 . S
H219 C196 0.931 . S
H220 C198 0.931 . S
H221 C200 0.930 . S
H222 C202 0.930 . S
H223 C203 0.931 . S
H224 C205 0.931 . S
H225 C207 0.930 . S
H226 C209 0.930 . S
H227 C210 0.931 . S
N228 C190 1.343 . S
N228 C211 1.343 . S
N229 C197 1.343 . S
N229 C204 1.343 . S
C230 C231 1.384 . S
C230 C232 1.384 . S
C230 H258 0.931 . S
C231 C230 1.384 . S
C231 C234 1.382 . S
C232 C230 1.384 . S
C232 C233 1.381 . S
C232 H259 0.930 . S
C233 C232 1.381 . S
C233 C235 1.381 . S
C233 C236 1.487 . S
C234 C231 1.382 . S
C234 C235 1.387 . S
C234 H260 0.930 . S
C235 C233 1.381 . S
C235 C234 1.387 . S
C235 H261 0.931 . S
C236 C233 1.487 . S
C236 C243 1.399 . S
C236 N274 1.343 . S
C237 C238 1.384 . S
C237 C239 1.384 . S
C237 H262 0.931 . S
C238 C237 1.384 . S
C238 C241 1.382 . S
C239 C237 1.384 . S
C239 C240 1.381 . S
C239 H263 0.930 . S
C240 C239 1.381 . S
C240 C242 1.381 . S
C240 C243 1.487 . S
C241 C238 1.382 . S
C241 C242 1.387 . S
C241 H264 0.930 . S
C242 C240 1.381 . S
C242 C241 1.387 . S
C242 H265 0.931 . S
C243 C236 1.399 . S
C243 C240 1.487 . S
C243 N275 1.343 . S
C244 C245 1.384 . S
C244 C246 1.384 . S
C244 H266 0.931 . S
C245 C244 1.384 . S
C245 C248 1.382 . S
C246 C244 1.384 . S
C246 C247 1.381 . S
C246 H267 0.930 . S
C247 C246 1.381 . S
C247 C249 1.381 . S
C247 C250 1.487 . S
C248 C245 1.382 . S
C248 C249 1.387 . S
C248 H268 0.930 . S
C249 C247 1.381 . S
C249 C248 1.387 . S
C249 H269 0.931 . S
C250 C247 1.487 . S
C250 C257 1.399 . S
C250 N275 1.343 . S
C251 C252 1.384 . S
C251 C253 1.384 . S
C251 H270 0.931 . S
C252 C251 1.384 . S
C252 C255 1.382 . S
C253 C251 1.384 . S
C253 C254 1.381 . S
C253 H271 0.930 . S
C254 C253 1.381 . S
C254 C256 1.381 . S
C254 C257 1.487 . S
C255 C252 1.382 . S
C255 C256 1.387 . S
C255 H272 0.930 . S
C256 C254 1.381 . S
C256 C255 1.387 . S
C256 H273 0.931 . S
C257 C250 1.399 . S
C257 C254 1.487 . S
C257 N274 1.343 . S
H258 C230 0.931 . S
H259 C232 0.930 . S
H260 C234 0.930 . S
H261 C235 0.931 . S
H262 C237 0.931 . S
H263 C239 0.930 . S
H264 C241 0.930 . S
H265 C242 0.931 . S
H266 C244 0.931 . S
H267 C246 0.930 . S
H268 C248 0.930 . S
H269 C249 0.931 . S
H270 C251 0.931 . S
H271 C253 0.930 . S
H272 C255 0.930 . S
H273 C256 0.931 . S
N274 C236 1.343 . S
N274 C257 1.343 . S
N275 C243 1.343 . S
N275 C250 1.343 . S
C276 C277 1.384 . S
C276 C278 1.384 . S
C276 H304 0.931 . S
C277 C276 1.384 . S
C277 C280 1.382 . S
C278 C276 1.384 . S
C278 C279 1.381 . S
C278 H305 0.930 . S
C279 C278 1.381 . S
C279 C281 1.381 . S
C279 C282 1.487 1_556 S
C280 C277 1.382 . S
C280 C281 1.387 . S
C280 H306 0.930 . S
C281 C279 1.381 . S
C281 C280 1.387 . S
C281 H307 0.931 . S
C282 C279 1.487 1_554 S
C282 C289 1.399 . S
C282 N320 1.316 1_554 S
C283 C284 1.384 . S
C283 C285 1.384 . S
C283 H308 0.931 . S
C284 C283 1.384 . S
C284 C287 1.382 . S
C285 C283 1.384 . S
C285 C286 1.381 . S
C285 H309 0.930 . S
C286 C285 1.381 . S
C286 C288 1.381 . S
C286 C289 1.487 . S
C287 C284 1.382 . S
C287 C288 1.387 . S
C287 H310 0.930 . S
C288 C286 1.381 . S
C288 C287 1.387 . S
C288 H311 0.931 . S
C289 C282 1.399 . S
C289 C286 1.487 . S
C289 N321 1.343 . S
C290 C291 1.384 . S
C290 C292 1.384 . S
C290 H312 0.931 . S
C291 C290 1.384 . S
C291 C294 1.382 . S
C292 C290 1.384 . S
C292 C293 1.381 . S
C292 H313 0.930 . S
C293 C292 1.381 . S
C293 C295 1.381 . S
C293 C296 1.487 . S
C294 C291 1.382 . S
C294 C295 1.387 . S
C294 H314 0.930 . S
C295 C293 1.381 . S
C295 C294 1.387 . S
C295 H315 0.931 . S
C296 C293 1.487 . S
C296 C303 1.399 . S
C296 N321 1.343 . S
C297 C298 1.384 . S
C297 C299 1.384 . S
C297 H316 0.931 . S
C298 C297 1.384 . S
C298 C301 1.382 . S
C299 C297 1.384 . S
C299 C300 1.381 . S
C299 H317 0.930 . S
C300 C299 1.381 . S
C300 C302 1.381 . S
C300 C303 1.487 1_556 S
C301 C298 1.382 . S
C301 C302 1.387 . S
C301 H318 0.930 . S
C302 C300 1.381 . S
C302 C301 1.387 . S
C302 H319 0.931 . S
C303 C296 1.399 . S
C303 C300 1.487 1_554 S
C303 N320 1.316 1_554 S
H304 C276 0.931 . S
H305 C278 0.930 . S
H306 C280 0.930 . S
H307 C281 0.931 . S
H308 C283 0.931 . S
H309 C285 0.930 . S
H310 C287 0.930 . S
H311 C288 0.931 . S
H312 C290 0.931 . S
H313 C292 0.930 . S
H314 C294 0.930 . S
H315 C295 0.931 . S
H316 C297 0.931 . S
H317 C299 0.930 . S
H318 C301 0.930 . S
H319 C302 0.931 . S
N320 C282 1.316 1_556 S
N320 C303 1.316 1_556 S
N321 C289 1.343 . S
N321 C296 1.343 . S
C322 C323 1.384 . S
C322 C324 1.384 . S
C322 H350 0.931 . S
C323 C322 1.384 . S
C323 C326 1.382 . S
C324 C322 1.384 . S
C324 C325 1.381 . S
C324 H351 0.930 . S
C325 C324 1.381 . S
C325 C327 1.381 . S
C325 C328 1.487 . S
C326 C323 1.382 . S
C326 C327 1.387 . S
C326 H352 0.930 . S
C327 C325 1.381 . S
C327 C326 1.387 . S
C327 H353 0.931 . S
C328 C325 1.487 . S
C328 C335 1.399 . S
C328 N366 1.343 1_655 S
C329 C330 1.384 . S
C329 C331 1.384 . S
C329 H354 0.931 . S
C330 C329 1.384 . S
C330 C333 1.382 . S
C331 C329 1.384 . S
C331 C332 1.381 . S
C331 H355 0.930 . S
C332 C331 1.381 . S
C332 C334 1.381 . S
C332 C335 1.487 . S
C333 C330 1.382 . S
C333 C334 1.387 . S
C333 H356 0.930 . S
C334 C332 1.381 . S
C334 C333 1.387 . S
C334 H357 0.931 . S
C335 C328 1.399 . S
C335 C332 1.487 . S
C335 N367 1.343 1_655 S
C336 C337 1.384 . S
C336 C338 1.384 . S
C336 H358 0.931 . S
C337 C336 1.384 . S
C337 C340 1.382 . S
C338 C336 1.384 . S
C338 C339 1.381 . S
C338 H359 0.930 . S
C339 C338 1.381 . S
C339 C341 1.381 . S
C339 C342 1.487 . S
C340 C337 1.382 . S
C340 C341 1.387 . S
C340 H360 0.930 . S
C341 C339 1.381 . S
C341 C340 1.387 . S
C341 H361 0.931 . S
C342 C339 1.487 . S
C342 C349 1.399 . S
C342 N367 1.343 . S
C343 C344 1.384 . S
C343 C345 1.384 . S
C343 H362 0.931 . S
C344 C343 1.384 . S
C344 C347 1.382 . S
C345 C343 1.384 . S
C345 C346 1.381 . S
C345 H363 0.930 . S
C346 C345 1.381 . S
C346 C348 1.381 . S
C346 C349 1.487 . S
C347 C344 1.382 . S
C347 C348 1.387 . S
C347 H364 0.930 . S
C348 C346 1.381 . S
C348 C347 1.387 . S
C348 H365 0.931 . S
C349 C342 1.399 . S
C349 C346 1.487 . S
C349 N366 1.343 . S
H350 C322 0.931 . S
H351 C324 0.930 . S
H352 C326 0.930 . S
H353 C327 0.931 . S
H354 C329 0.931 . S
H355 C331 0.930 . S
H356 C333 0.930 . S
H357 C334 0.931 . S
H358 C336 0.931 . S
H359 C338 0.930 . S
H360 C340 0.930 . S
H361 C341 0.931 . S
H362 C343 0.931 . S
H363 C345 0.930 . S
H364 C347 0.930 . S
H365 C348 0.931 . S
N366 C328 1.343 1_455 S
N366 C349 1.343 . S
N367 C335 1.343 1_455 S
N367 C342 1.343 . S
Fe368 O369 1.886 . S
Fe368 O372 1.715 1_455 S
Fe368 O377 2.077 . S
Fe368 O382 1.935 1_455 S
Fe368 O388 2.077 . S
Fe368 O397 1.935 1_455 S
O369 Fe368 1.886 . S
O369 Fe371 1.715 . S
Fe370 O372 1.886 . S
Fe370 O373 1.715 . S
Fe370 O380 1.935 . S
Fe370 O381 2.077 . S
Fe370 O387 1.935 . S
Fe370 O396 2.077 . S
Fe371 O369 1.715 . S
Fe371 O374 1.886 . S
Fe371 O378 1.935 . S
Fe371 O383 2.077 . S
Fe371 O389 1.935 . S
Fe371 O393 2.077 . S
O372 Fe368 1.715 1_655 S
O372 Fe370 1.886 . S
O373 Fe370 1.715 . S
O373 Fe375 1.904 . S
O374 Fe371 1.886 . S
O374 Fe375 1.696 1_455 S
Fe375 O373 1.904 . S
Fe375 O374 1.696 1_655 S
Fe375 O379 2.094 . S
Fe375 O384 1.921 1_655 S
Fe375 O386 2.094 . S
Fe375 O394 1.921 1_655 S
C376 O388 1.381 . S
C376 O389 1.421 . S
O377 Fe368 2.077 . S
O377 C390 1.381 . S
O378 Fe371 1.935 . S
O378 C390 1.421 . S
O379 Fe375 2.094 . S
O379 C395 1.381 . S
O380 Fe370 1.935 . S
O380 C395 1.421 . S
O381 Fe370 2.077 . S
O381 C385 1.381 . S
O382 Fe368 1.935 1_655 S
O382 C385 1.421 . S
O383 Fe371 2.077 . S
O383 C391 1.381 . S
O384 Fe375 1.921 1_455 S
O384 C391 1.421 . S
C385 O381 1.381 . S
C385 O382 1.421 . S
O386 Fe375 2.094 . S
O386 C398 1.381 . S
O387 Fe370 1.935 . S
O387 C398 1.421 . S
O388 Fe368 2.077 . S
O388 C376 1.381 . S
O389 Fe371 1.935 . S
O389 C376 1.421 . S
C390 O377 1.381 . S
C390 O378 1.421 . S
C391 O383 1.381 . S
C391 O384 1.421 . S
C392 O393 1.381 . S
C392 O394 1.421 . S
O393 Fe371 2.077 . S
O393 C392 1.381 . S
O394 Fe375 1.921 1_455 S
O394 C392 1.421 . S
C395 O379 1.381 . S
C395 O380 1.421 . S
O396 Fe370 2.077 . S
O396 C399 1.381 . S
O397 Fe368 1.935 1_655 S
O397 C399 1.421 . S
C398 O386 1.381 . S
C398 O387 1.421 . S
C399 O396 1.381 . S
C399 O397 1.421 . S
Fe400 O401 1.886 . S
Fe400 O404 1.715 . S
Fe400 O409 2.077 . S
Fe400 O414 1.935 . S
Fe400 O420 2.077 . S
Fe400 O429 1.935 . S
O401 Fe400 1.886 . S
O401 Fe403 1.715 . S
Fe402 O404 1.886 . S
Fe402 O405 1.715 . S
Fe402 O412 1.935 . S
Fe402 O413 2.077 . S
Fe402 O419 1.935 . S
Fe402 O428 2.077 . S
Fe403 O401 1.715 . S
Fe403 O406 1.886 . S
Fe403 O410 1.935 . S
Fe403 O415 2.077 . S
Fe403 O421 1.935 . S
Fe403 O425 2.077 . S
O404 Fe400 1.715 . S
O404 Fe402 1.886 . S
O405 Fe402 1.715 . S
O405 Fe407 1.886 . S
O406 Fe403 1.886 . S
O406 Fe407 1.715 . S
Fe407 O405 1.886 . S
Fe407 O406 1.715 . S
Fe407 O411 2.077 . S
Fe407 O416 1.935 . S
Fe407 O418 2.077 . S
Fe407 O426 1.935 . S
C408 O420 1.381 . S
C408 O421 1.421 . S
O409 Fe400 2.077 . S
O409 C422 1.381 . S
O410 Fe403 1.935 . S
O410 C422 1.421 . S
O411 Fe407 2.077 . S
O411 C427 1.381 . S
O412 Fe402 1.935 . S
O412 C427 1.421 . S
O413 Fe402 2.077 . S
O413 C417 1.381 . S
O414 Fe400 1.935 . S
O414 C417 1.421 . S
O415 Fe403 2.077 . S
O415 C423 1.381 . S
O416 Fe407 1.935 . S
O416 C423 1.421 . S
C417 O413 1.381 . S
C417 O414 1.421 . S
O418 Fe407 2.077 . S
O418 C430 1.381 . S
O419 Fe402 1.935 . S
O419 C430 1.421 . S
O420 Fe400 2.077 . S
O420 C408 1.381 . S
O421 Fe403 1.935 . S
O421 C408 1.421 . S
C422 O409 1.381 . S
C422 O410 1.421 . S
C423 O415 1.381 . S
C423 O416 1.421 . S
C424 O425 1.381 . S
C424 O426 1.421 . S
O425 Fe403 2.077 . S
O425 C424 1.381 . S
O426 Fe407 1.935 . S
O426 C424 1.421 . S
C427 O411 1.381 . S
C427 O412 1.421 . S
O428 Fe402 2.077 . S
O428 C431 1.381 . S
O429 Fe400 1.935 . S
O429 C431 1.421 . S
C430 O418 1.381 . S
C430 O419 1.421 . S
C431 O428 1.381 . S
C431 O429 1.421 . S
Fe432 O433 1.886 . S
Fe432 O436 1.715 . S
Fe432 O441 2.077 . S
Fe432 O446 1.935 . S
Fe432 O452 2.077 . S
Fe432 O461 1.935 . S
O433 Fe432 1.886 . S
O433 Fe435 1.715 . S
Fe434 O436 1.886 . S
Fe434 O437 1.715 . S
Fe434 O444 1.935 . S
Fe434 O445 2.077 . S
Fe434 O451 1.935 . S
Fe434 O460 2.077 . S
Fe435 O433 1.715 . S
Fe435 O438 1.886 . S
Fe435 O442 1.935 . S
Fe435 O447 2.077 . S
Fe435 O453 1.935 . S
Fe435 O457 2.077 . S
O436 Fe432 1.715 . S
O436 Fe434 1.886 . S
O437 Fe434 1.715 . S
O437 Fe439 1.886 . S
O438 Fe435 1.886 . S
O438 Fe439 1.715 . S
Fe439 O437 1.886 . S
Fe439 O438 1.715 . S
Fe439 O443 2.077 . S
Fe439 O448 1.935 . S
Fe439 O450 2.077 . S
Fe439 O458 1.935 . S
C440 O452 1.381 . S
C440 O453 1.421 . S
O441 Fe432 2.077 . S
O441 C454 1.381 . S
O442 Fe435 1.935 . S
O442 C454 1.421 . S
O443 Fe439 2.077 . S
O443 C459 1.381 . S
O444 Fe434 1.935 . S
O444 C459 1.421 . S
O445 Fe434 2.077 . S
O445 C449 1.381 . S
O446 Fe432 1.935 . S
O446 C449 1.421 . S
O447 Fe435 2.077 . S
O447 C455 1.381 . S
O448 Fe439 1.935 . S
O448 C455 1.421 . S
C449 O445 1.381 . S
C449 O446 1.421 . S
O450 Fe439 2.077 . S
O450 C462 1.381 . S
O451 Fe434 1.935 . S
O451 C462 1.421 . S
O452 Fe432 2.077 . S
O452 C440 1.381 . S
O453 Fe435 1.935 . S
O453 C440 1.421 . S
C454 O441 1.381 . S
C454 O442 1.421 . S
C455 O447 1.381 . S
C455 O448 1.421 . S
C456 O457 1.381 . S
C456 O458 1.421 . S
O457 Fe435 2.077 . S
O457 C456 1.381 . S
O458 Fe439 1.935 . S
O458 C456 1.421 . S
C459 O443 1.381 . S
C459 O444 1.421 . S
O460 Fe434 2.077 . S
O460 C463 1.381 . S
O461 Fe432 1.935 . S
O461 C463 1.421 . S
C462 O450 1.381 . S
C462 O451 1.421 . S
C463 O460 1.381 . S
C463 O461 1.421 . S
Fe464 O465 1.886 . S
Fe464 O468 1.715 . S
Fe464 O473 2.077 1_455 S
Fe464 O478 1.935 1_455 S
Fe464 O484 2.077 . S
Fe464 O493 1.935 . S
O465 Fe464 1.886 . S
O465 Fe467 1.715 . S
Fe466 O468 1.886 . S
Fe466 O469 1.715 . S
Fe466 O476 1.935 1_455 S
Fe466 O477 2.077 1_455 S
Fe466 O483 1.935 . S
Fe466 O492 2.077 . S
Fe467 O465 1.715 . S
Fe467 O470 1.886 . S
Fe467 O474 1.935 1_455 S
Fe467 O479 2.077 1_455 S
Fe467 O485 1.935 . S
Fe467 O489 2.077 . S
O468 Fe464 1.715 . S
O468 Fe466 1.886 . S
O469 Fe466 1.715 . S
O469 Fe471 1.886 . S
O470 Fe467 1.886 . S
O470 Fe471 1.715 . S
Fe471 O469 1.886 . S
Fe471 O470 1.715 . S
Fe471 O475 2.077 1_455 S
Fe471 O480 1.935 1_455 S
Fe471 O482 2.077 . S
Fe471 O490 1.935 . S
C472 O484 1.381 . S
C472 O485 1.421 . S
O473 Fe464 2.077 1_655 S
O473 C486 1.381 . S
O474 Fe467 1.935 1_655 S
O474 C486 1.421 . S
O475 Fe471 2.077 1_655 S
O475 C491 1.381 . S
O476 Fe466 1.935 1_655 S
O476 C491 1.421 . S
O477 Fe466 2.077 1_655 S
O477 C481 1.381 . S
O478 Fe464 1.935 1_655 S
O478 C481 1.421 . S
O479 Fe467 2.077 1_655 S
O479 C487 1.381 . S
O480 Fe471 1.935 1_655 S
O480 C487 1.421 . S
C481 O477 1.381 . S
C481 O478 1.421 . S
O482 Fe471 2.077 . S
O482 C494 1.381 . S
O483 Fe466 1.935 . S
O483 C494 1.421 . S
O484 Fe464 2.077 . S
O484 C472 1.381 . S
O485 Fe467 1.935 . S
O485 C472 1.421 . S
C486 O473 1.381 . S
C486 O474 1.421 . S
C487 O479 1.381 . S
C487 O480 1.421 . S
C488 O489 1.381 . S
C488 O490 1.421 . S
O489 Fe467 2.077 . S
O489 C488 1.381 . S
O490 Fe471 1.935 . S
O490 C488 1.421 . S
C491 O475 1.381 . S
C491 O476 1.421 . S
O492 Fe466 2.077 . S
O492 C495 1.381 . S
O493 Fe464 1.935 . S
O493 C495 1.421 . S
C494 O482 1.381 . S
C494 O483 1.421 . S
C495 O492 1.381 . S
C495 O493 1.421 . S
H496 C504 0.929 . S
H497 C506 0.930 . S
H498 C508 0.930 . S
H499 C511 0.929 . S
H500 C514 0.930 . S
H501 C516 0.960 . S
H502 C516 0.960 . S
H503 C516 0.960 . S
C504 H496 0.929 . S
C504 C505 1.377 . S
C504 C506 1.384 . S
C505 C504 1.377 . S
C505 C511 1.390 . S
C506 H497 0.930 . S
C506 C504 1.384 . S
C506 C507 1.372 . S
C507 C506 1.372 . S
C507 C508 1.400 . S
C507 C512 1.490 . S
C508 H498 0.930 . S
C508 C507 1.400 . S
C508 C511 1.386 . S
H509 C525 0.930 . S
H510 C526 0.931 . S
C511 H499 0.929 . S
C511 C505 1.390 . S
C511 C508 1.386 . S
C512 C507 1.490 . S
C512 C514 1.395 . S
C512 C515 1.403 . S
H513 C519 0.930 . S
C514 H500 0.930 . S
C514 C512 1.395 . S
C514 C517 1.403 . S
C515 C512 1.403 . S
C515 C516 1.524 . S
C515 C519 1.400 . S
C516 H501 0.960 . S
C516 H502 0.960 . S
C516 H503 0.960 . S
C516 C515 1.524 . S
C517 C514 1.403 . S
C517 C518 1.392 . S
C517 C521 1.495 . S
C518 C517 1.392 . S
C518 C519 1.385 . S
C518 C520 1.478 . S
C519 H513 0.930 . S
C519 C515 1.400 . S
C519 C518 1.385 . S
C520 C518 1.478 . S
C520 C522 1.381 . S
C520 C526 1.383 . S
C521 C517 1.495 . S
C521 H527 0.959 . S
C521 H528 0.961 . S
C521 H529 0.960 . S
C522 C520 1.381 . S
C522 C523 1.394 . S
C522 H530 0.930 . S
C523 C522 1.394 . S
C523 C524 1.383 . S
C523 H531 0.929 . S
C524 C523 1.383 . S
C524 C525 1.377 . S
C525 H509 0.930 . S
C525 C524 1.377 . S
C525 C526 1.379 . S
C526 H510 0.931 . S
C526 C520 1.383 . S
C526 C525 1.379 . S
H527 C521 0.959 . S
H528 C521 0.961 . S
H529 C521 0.960 . S
H530 C522 0.930 . S
H531 C523 0.929 . S
H532 C540 0.929 . S
H533 C542 0.930 1_545 S
H534 C544 0.930 . S
H535 C547 0.929 . S
H536 C550 0.930 . S
H537 C552 0.960 . S
H538 C552 0.960 . S
H539 C552 0.960 . S
C540 H532 0.929 . S
C540 C541 1.377 . S
C540 C542 1.384 . S
C541 C540 1.377 . S
C541 C547 1.390 . S
C542 H533 0.930 1_565 S
C542 C540 1.384 . S
C542 C543 1.372 . S
C543 C542 1.372 . S
C543 C544 1.400 . S
C543 C548 1.490 1_565 S
C544 H534 0.930 . S
C544 C543 1.400 . S
C544 C547 1.386 . S
H545 C561 0.930 . S
H546 C562 0.931 . S
C547 H535 0.929 . S
C547 C541 1.390 . S
C547 C544 1.386 . S
C548 C543 1.490 1_545 S
C548 C550 1.395 . S
C548 C551 1.403 . S
H549 C555 0.930 . S
C550 H536 0.930 . S
C550 C548 1.395 . S
C550 C553 1.403 . S
C551 C548 1.403 . S
C551 C552 1.524 1_545 S
C551 C555 1.400 . S
C552 H537 0.960 . S
C552 H538 0.960 . S
C552 H539 0.960 . S
C552 C551 1.524 1_565 S
C553 C550 1.403 . S
C553 C554 1.392 . S
C553 C557 1.495 . S
C554 C553 1.392 . S
C554 C555 1.385 . S
C554 C556 1.478 . S
C555 H549 0.930 . S
C555 C551 1.400 . S
C555 C554 1.385 . S
C556 C554 1.478 . S
C556 C558 1.381 . S
C556 C562 1.383 . S
C557 C553 1.495 . S
C557 H563 0.959 . S
C557 H564 0.961 . S
C557 H565 0.960 . S
C558 C556 1.381 . S
C558 C559 1.394 . S
C558 H566 0.930 . S
C559 C558 1.394 . S
C559 C560 1.383 . S
C559 H567 0.929 . S
C560 C559 1.383 . S
C560 C561 1.377 . S
C561 H545 0.930 . S
C561 C560 1.377 . S
C561 C562 1.379 . S
C562 H546 0.931 . S
C562 C556 1.383 . S
C562 C561 1.379 . S
H563 C557 0.959 . S
H564 C557 0.961 . S
H565 C557 0.960 . S
H566 C558 0.930 . S
H567 C559 0.929 . S
H568 C576 0.929 . S
H569 C578 0.930 . S
H570 C580 0.930 . S
H571 C583 0.929 . S
H572 C586 0.930 . S
H573 C588 0.960 . S
H574 C588 0.960 . S
H575 C588 0.960 . S
C576 H568 0.929 . S
C576 C577 1.377 . S
C576 C578 1.384 . S
C577 C576 1.377 . S
C577 C583 1.390 . S
C578 H569 0.930 . S
C578 C576 1.384 . S
C578 C579 1.372 . S
C579 C578 1.372 . S
C579 C580 1.400 . S
C579 C584 1.490 . S
C580 H570 0.930 . S
C580 C579 1.400 . S
C580 C583 1.386 . S
H581 C597 0.930 . S
H582 C598 0.931 . S
C583 H571 0.929 . S
C583 C577 1.390 . S
C583 C580 1.386 . S
C584 C579 1.490 . S
C584 C586 1.395 . S
C584 C587 1.403 . S
H585 C591 0.930 . S
C586 H572 0.930 . S
C586 C584 1.395 . S
C586 C589 1.403 . S
C587 C584 1.403 . S
C587 C588 1.524 . S
C587 C591 1.400 . S
C588 H573 0.960 . S
C588 H574 0.960 . S
C588 H575 0.960 . S
C588 C587 1.524 . S
C589 C586 1.403 . S
C589 C590 1.392 . S
C589 C593 1.495 . S
C590 C589 1.392 . S
C590 C591 1.385 . S
C590 C592 1.478 . S
C591 H585 0.930 . S
C591 C587 1.400 . S
C591 C590 1.385 . S
C592 C590 1.478 . S
C592 C594 1.381 . S
C592 C598 1.383 . S
C593 C589 1.495 . S
C593 H599 0.959 . S
C593 H600 0.961 . S
C593 H601 0.960 . S
C594 C592 1.381 . S
C594 C595 1.394 . S
C594 H602 0.930 . S
C595 C594 1.394 . S
C595 C596 1.383 . S
C595 H603 0.929 . S
C596 C595 1.383 . S
C596 C597 1.377 . S
C597 H581 0.930 . S
C597 C596 1.377 . S
C597 C598 1.379 . S
C598 H582 0.931 . S
C598 C592 1.383 . S
C598 C597 1.379 . S
H599 C593 0.959 . S
H600 C593 0.961 . S
H601 C593 0.960 . S
H602 C594 0.930 . S
H603 C595 0.929 . S
H604 C612 0.929 . S
H605 C614 0.930 . S
H606 C616 0.930 . S
H607 C619 0.929 . S
H608 C622 0.930 . S
H609 C624 0.960 . S
H610 C624 0.960 . S
H611 C624 0.960 . S
C612 H604 0.929 . S
C612 C613 1.377 . S
C612 C614 1.384 . S
C613 C612 1.377 . S
C613 C619 1.390 . S
C614 H605 0.930 . S
C614 C612 1.384 . S
C614 C615 1.372 . S
C615 C614 1.372 . S
C615 C616 1.400 . S
C615 C620 1.490 . S
C616 H606 0.930 . S
C616 C615 1.400 . S
C616 C619 1.386 . S
H617 C633 0.930 . S
H618 C634 0.931 . S
C619 H607 0.929 . S
C619 C613 1.390 . S
C619 C616 1.386 . S
C620 C615 1.490 . S
C620 C622 1.395 . S
C620 C623 1.403 1_545 S
H621 C627 0.930 . S
C622 H608 0.930 . S
C622 C620 1.395 . S
C622 C625 1.403 1_545 S
C623 C620 1.403 1_565 S
C623 C624 1.524 . S
C623 C627 1.400 . S
C624 H609 0.960 . S
C624 H610 0.960 . S
C624 H611 0.960 . S
C624 C623 1.524 . S
C625 C622 1.403 1_565 S
C625 C626 1.392 . S
C625 C629 1.495 . S
C626 C625 1.392 . S
C626 C627 1.385 . S
C626 C628 1.478 . S
C627 H621 0.930 . S
C627 C623 1.400 . S
C627 C626 1.385 . S
C628 C626 1.478 . S
C628 C630 1.381 . S
C628 C634 1.383 . S
C629 C625 1.495 . S
C629 H635 0.959 1_565 S
C629 H636 0.961 . S
C629 H637 0.960 . S
C630 C628 1.381 . S
C630 C631 1.394 . S
C630 H638 0.930 . S
C631 C630 1.394 . S
C631 C632 1.383 . S
C631 H639 0.929 . S
C632 C631 1.383 . S
C632 C633 1.377 . S
C633 H617 0.930 . S
C633 C632 1.377 . S
C633 C634 1.379 . S
C634 H618 0.931 . S
C634 C628 1.383 . S
C634 C633 1.379 . S
H635 C629 0.959 1_545 S
H636 C629 0.961 . S
H637 C629 0.960 . S
H638 C630 0.930 . S
H639 C631 0.929 . S
H640 C648 0.929 . S
H641 C650 0.930 . S
H642 C652 0.930 . S
H643 C655 0.929 . S
H644 C658 0.930 . S
H645 C660 0.960 . S
H646 C660 0.960 . S
H647 C660 0.960 . S
C648 H640 0.929 . S
C648 C649 1.377 . S
C648 C650 1.384 . S
C649 C648 1.377 . S
C649 C655 1.390 . S
C650 H641 0.930 . S
C650 C648 1.384 . S
C650 C651 1.372 . S
C651 C650 1.372 . S
C651 C652 1.400 . S
C651 C656 1.490 . S
C652 H642 0.930 . S
C652 C651 1.400 . S
C652 C655 1.386 . S
H653 C669 0.930 . S
H654 C670 0.931 . S
C655 H643 0.929 . S
C655 C649 1.390 . S
C655 C652 1.386 . S
C656 C651 1.490 . S
C656 C658 1.395 . S
C656 C659 1.403 . S
H657 C663 0.930 . S
C658 H644 0.930 . S
C658 C656 1.395 . S
C658 C661 1.403 . S
C659 C656 1.403 . S
C659 C660 1.524 . S
C659 C663 1.400 . S
C660 H645 0.960 . S
C660 H646 0.960 . S
C660 H647 0.960 . S
C660 C659 1.524 . S
C661 C658 1.403 . S
C661 C662 1.392 . S
C661 C665 1.495 . S
C662 C661 1.392 . S
C662 C663 1.385 . S
C662 C664 1.478 . S
C663 H657 0.930 . S
C663 C659 1.400 . S
C663 C662 1.385 . S
C664 C662 1.478 . S
C664 C666 1.381 . S
C664 C670 1.383 . S
C665 C661 1.495 . S
C665 H671 0.959 . S
C665 H672 0.961 . S
C665 H673 0.960 . S
C666 C664 1.381 . S
C666 C667 1.394 . S
C666 H674 0.930 . S
C667 C666 1.394 . S
C667 C668 1.383 . S
C667 H675 0.929 . S
C668 C667 1.383 . S
C668 C669 1.377 . S
C669 H653 0.930 . S
C669 C668 1.377 . S
C669 C670 1.379 . S
C670 H654 0.931 . S
C670 C664 1.383 . S
C670 C669 1.379 . S
H671 C665 0.959 . S
H672 C665 0.961 . S
H673 C665 0.960 . S
H674 C666 0.930 . S
H675 C667 0.929 . S
H676 C684 0.929 . S
H677 C686 0.930 . S
H678 C688 0.930 . S
H679 C691 0.929 . S
H680 C694 0.930 1_565 S
H681 C696 0.960 . S
H682 C696 0.960 . S
H683 C696 0.960 . S
C684 H676 0.929 . S
C684 C685 1.377 . S
C684 C686 1.384 . S
C685 C684 1.377 . S
C685 C691 1.390 . S
C686 H677 0.930 . S
C686 C684 1.384 . S
C686 C687 1.372 . S
C687 C686 1.372 . S
C687 C688 1.400 . S
C687 C692 1.490 1_565 S
C688 H678 0.930 . S
C688 C687 1.400 . S
C688 C691 1.386 . S
H689 C705 0.930 . S
H690 C706 0.931 . S
C691 H679 0.929 . S
C691 C685 1.390 . S
C691 C688 1.386 . S
C692 C687 1.490 1_545 S
C692 C694 1.395 . S
C692 C695 1.403 . S
H693 C699 0.930 . S
C694 H680 0.930 1_545 S
C694 C692 1.395 . S
C694 C697 1.403 . S
C695 C692 1.403 . S
C695 C696 1.524 . S
C695 C699 1.400 . S
C696 H681 0.960 . S
C696 H682 0.960 . S
C696 H683 0.960 . S
C696 C695 1.524 . S
C697 C694 1.403 . S
C697 C698 1.392 . S
C697 C701 1.495 . S
C698 C697 1.392 . S
C698 C699 1.385 . S
C698 C700 1.478 . S
C699 H693 0.930 . S
C699 C695 1.400 . S
C699 C698 1.385 . S
C700 C698 1.478 . S
C700 C702 1.381 . S
C700 C706 1.383 . S
C701 C697 1.495 . S
C701 H707 0.959 . S
C701 H708 0.961 . S
C701 H709 0.960 . S
C702 C700 1.381 . S
C702 C703 1.394 . S
C702 H710 0.930 . S
C703 C702 1.394 . S
C703 C704 1.383 . S
C703 H711 0.929 . S
C704 C703 1.383 . S
C704 C705 1.377 . S
C705 H689 0.930 . S
C705 C704 1.377 . S
C705 C706 1.379 . S
C706 H690 0.931 . S
C706 C700 1.383 . S
C706 C705 1.379 . S
H707 C701 0.959 . S
H708 C701 0.961 . S
H709 C701 0.960 . S
H710 C702 0.930 . S
H711 C703 0.929 . S
H712 C720 0.929 . S
H713 C722 0.930 . S
H714 C724 0.930 . S
H715 C727 0.929 . S
H716 C730 0.930 . S
H717 C732 0.960 . S
H718 C732 0.960 . S
H719 C732 0.960 . S
C720 H712 0.929 . S
C720 C721 1.377 . S
C720 C722 1.384 . S
C721 C720 1.377 . S
C721 C727 1.390 . S
C722 H713 0.930 . S
C722 C720 1.384 . S
C722 C723 1.372 . S
C723 C722 1.372 . S
C723 C724 1.400 . S
C723 C728 1.490 . S
C724 H714 0.930 . S
C724 C723 1.400 . S
C724 C727 1.386 . S
H725 C741 0.930 . S
H726 C742 0.931 . S
C727 H715 0.929 . S
C727 C721 1.390 . S
C727 C724 1.386 . S
C728 C723 1.490 . S
C728 C730 1.395 . S
C728 C731 1.403 . S
H729 C735 0.930 . S
C730 H716 0.930 . S
C730 C728 1.395 . S
C730 C733 1.403 . S
C731 C728 1.403 . S
C731 C732 1.524 . S
C731 C735 1.400 . S
C732 H717 0.960 . S
C732 H718 0.960 . S
C732 H719 0.960 . S
C732 C731 1.524 . S
C733 C730 1.403 . S
C733 C734 1.392 . S
C733 C737 1.495 . S
C734 C733 1.392 . S
C734 C735 1.385 . S
C734 C736 1.478 . S
C735 H729 0.930 . S
C735 C731 1.400 . S
C735 C734 1.385 . S
C736 C734 1.478 . S
C736 C738 1.381 . S
C736 C742 1.383 . S
C737 C733 1.495 . S
C737 H743 0.959 . S
C737 H744 0.961 . S
C737 H745 0.960 . S
C738 C736 1.381 . S
C738 C739 1.394 . S
C738 H746 0.930 . S
C739 C738 1.394 . S
C739 C740 1.383 . S
C739 H747 0.929 . S
C740 C739 1.383 . S
C740 C741 1.377 . S
C741 H725 0.930 . S
C741 C740 1.377 . S
C741 C742 1.379 . S
C742 H726 0.931 . S
C742 C736 1.383 . S
C742 C741 1.379 . S
H743 C737 0.959 . S
H744 C737 0.961 . S
H745 C737 0.960 . S
H746 C738 0.930 . S
H747 C739 0.929 . S
H748 C756 0.929 . S
H749 C758 0.930 . S
H750 C760 0.930 . S
H751 C763 0.929 . S
H752 C766 0.930 . S
H753 C768 0.960 . S
H754 C768 0.960 . S
H755 C768 0.960 . S
C756 H748 0.929 . S
C756 C757 1.377 . S
C756 C758 1.384 . S
C757 C756 1.377 . S
C757 C763 1.390 . S
C758 H749 0.930 . S
C758 C756 1.384 . S
C758 C759 1.372 . S
C759 C758 1.372 . S
C759 C760 1.400 . S
C759 C764 1.490 . S
C760 H750 0.930 . S
C760 C759 1.400 . S
C760 C763 1.386 . S
H761 C777 0.930 . S
H762 C778 0.931 . S
C763 H751 0.929 . S
C763 C757 1.390 . S
C763 C760 1.386 . S
C764 C759 1.490 . S
C764 C766 1.395 1_545 S
C764 C767 1.403 1_545 S
H765 C771 0.930 . S
C766 H752 0.930 . S
C766 C764 1.395 1_565 S
C766 C769 1.403 . S
C767 C764 1.403 1_565 S
C767 C768 1.524 1_565 S
C767 C771 1.400 . S
C768 H753 0.960 . S
C768 H754 0.960 . S
C768 H755 0.960 . S
C768 C767 1.524 1_545 S
C769 C766 1.403 . S
C769 C770 1.392 . S
C769 C773 1.495 . S
C770 C769 1.392 . S
C770 C771 1.385 . S
C770 C772 1.478 . S
C771 H765 0.930 . S
C771 C767 1.400 . S
C771 C770 1.385 . S
C772 C770 1.478 . S
C772 C774 1.381 . S
C772 C778 1.383 . S
C773 C769 1.495 . S
C773 H779 0.959 . S
C773 H780 0.961 . S
C773 H781 0.960 . S
C774 C772 1.381 . S
C774 C775 1.394 . S
C774 H782 0.930 . S
C775 C774 1.394 . S
C775 C776 1.383 . S
C775 H783 0.929 . S
C776 C775 1.383 . S
C776 C777 1.377 . S
C777 H761 0.930 . S
C777 C776 1.377 . S
C777 C778 1.379 . S
C778 H762 0.931 . S
C778 C772 1.383 . S
C778 C777 1.379 . S
H779 C773 0.959 . S
H780 C773 0.961 . S
H781 C773 0.960 . S
H782 C774 0.930 . S
H783 C775 0.929 . S
H784 C792 0.929 . S
H785 C794 0.930 . S
H786 C796 0.930 . S
H787 C799 0.929 . S
H788 C802 0.930 . S
H789 C804 0.960 . S
H790 C804 0.960 . S
H791 C804 0.960 . S
C792 H784 0.929 . S
C792 C793 1.377 . S
C792 C794 1.384 . S
C793 C792 1.377 . S
C793 C799 1.390 . S
C794 H785 0.930 . S
C794 C792 1.384 . S
C794 C795 1.372 . S
C795 C794 1.372 . S
C795 C796 1.400 . S
C795 C800 1.490 . S
C796 H786 0.930 . S
C796 C795 1.400 . S
C796 C799 1.386 . S
H797 C813 0.930 . S
H798 C814 0.931 . S
C799 H787 0.929 . S
C799 C793 1.390 . S
C799 C796 1.386 . S
C800 C795 1.490 . S
C800 C802 1.395 . S
C800 C803 1.403 . S
H801 C807 0.930 . S
C802 H788 0.930 . S
C802 C800 1.395 . S
C802 C805 1.403 . S
C803 C800 1.403 . S
C803 C804 1.524 . S
C803 C807 1.400 . S
C804 H789 0.960 . S
C804 H790 0.960 . S
C804 H791 0.960 . S
C804 C803 1.524 . S
C805 C802 1.403 . S
C805 C806 1.392 . S
C805 C809 1.495 . S
C806 C805 1.392 . S
C806 C807 1.385 . S
C806 C808 1.478 . S
C807 H801 0.930 . S
C807 C803 1.400 . S
C807 C806 1.385 . S
C808 C806 1.478 . S
C808 C810 1.381 . S
C808 C814 1.383 . S
C809 C805 1.495 . S
C809 H815 0.959 . S
C809 H816 0.961 . S
C809 H817 0.960 . S
C810 C808 1.381 . S
C810 C811 1.394 . S
C810 H818 0.930 . S
C811 C810 1.394 . S
C811 C812 1.383 . S
C811 H819 0.929 . S
C812 C811 1.383 . S
C812 C813 1.377 . S
C813 H797 0.930 . S
C813 C812 1.377 . S
C813 C814 1.379 . S
C814 H798 0.931 . S
C814 C808 1.383 . S
C814 C813 1.379 . S
H815 C809 0.959 . S
H816 C809 0.961 . S
H817 C809 0.960 . S
H818 C810 0.930 . S
H819 C811 0.929 . S
H820 C828 0.929 . S
H821 C830 0.930 . S
H822 C832 0.930 . S
H823 C835 0.929 . S
H824 C838 0.930 . S
H825 C840 0.960 1_565 S
H826 C840 0.960 . S
H827 C840 0.960 . S
C828 H820 0.929 . S
C828 C829 1.377 . S
C828 C830 1.384 . S
C829 C828 1.377 . S
C829 C835 1.390 . S
C830 H821 0.930 . S
C830 C828 1.384 . S
C830 C831 1.372 . S
C831 C830 1.372 . S
C831 C832 1.400 . S
C831 C836 1.490 . S
C832 H822 0.930 . S
C832 C831 1.400 . S
C832 C835 1.386 . S
H833 C849 0.930 . S
H834 C850 0.931 . S
C835 H823 0.929 . S
C835 C829 1.390 . S
C835 C832 1.386 . S
C836 C831 1.490 . S
C836 C838 1.395 1_545 S
C836 C839 1.403 1_545 S
H837 C843 0.930 . S
C838 H824 0.930 . S
C838 C836 1.395 1_565 S
C838 C841 1.403 . S
C839 C836 1.403 1_565 S
C839 C840 1.524 1_565 S
C839 C843 1.400 . S
C840 H825 0.960 1_545 S
C840 H826 0.960 . S
C840 H827 0.960 . S
C840 C839 1.524 1_545 S
C841 C838 1.403 . S
C841 C842 1.392 . S
C841 C845 1.495 . S
C842 C841 1.392 . S
C842 C843 1.385 . S
C842 C844 1.478 . S
C843 H837 0.930 . S
C843 C839 1.400 . S
C843 C842 1.385 . S
C844 C842 1.478 . S
C844 C846 1.381 . S
C844 C850 1.383 . S
C845 C841 1.495 . S
C845 H851 0.959 . S
C845 H852 0.961 . S
C845 H853 0.960 . S
C846 C844 1.381 . S
C846 C847 1.394 . S
C846 H854 0.930 . S
C847 C846 1.394 . S
C847 C848 1.383 . S
C847 H855 0.929 . S
C848 C847 1.383 . S
C848 C849 1.377 . S
C849 H833 0.930 . S
C849 C848 1.377 . S
C849 C850 1.379 . S
C850 H834 0.931 . S
C850 C844 1.383 . S
C850 C849 1.379 . S
H851 C845 0.959 . S
H852 C845 0.961 . S
H853 C845 0.960 . S
H854 C846 0.930 . S
H855 C847 0.929 . S
H856 C864 0.929 . S
H857 C866 0.930 . S
H858 C868 0.930 . S
H859 C871 0.929 . S
H860 C874 0.930 . S
H861 C876 0.960 . S
H862 C876 0.960 . S
H863 C876 0.960 . S
C864 H856 0.929 . S
C864 C865 1.377 . S
C864 C866 1.384 . S
C865 C864 1.377 . S
C865 C871 1.390 . S
C866 H857 0.930 . S
C866 C864 1.384 . S
C866 C867 1.372 . S
C867 C866 1.372 . S
C867 C868 1.400 . S
C867 C872 1.490 . S
C868 H858 0.930 . S
C868 C867 1.400 . S
C868 C871 1.386 . S
H869 C885 0.930 . S
H870 C886 0.931 . S
C871 H859 0.929 . S
C871 C865 1.390 . S
C871 C868 1.386 . S
C872 C867 1.490 . S
C872 C874 1.395 . S
C872 C875 1.403 . S
H873 C879 0.930 . S
C874 H860 0.930 . S
C874 C872 1.395 . S
C874 C877 1.403 . S
C875 C872 1.403 . S
C875 C876 1.524 . S
C875 C879 1.400 . S
C876 H861 0.960 . S
C876 H862 0.960 . S
C876 H863 0.960 . S
C876 C875 1.524 . S
C877 C874 1.403 . S
C877 C878 1.392 . S
C877 C881 1.495 . S
C878 C877 1.392 . S
C878 C879 1.385 . S
C878 C880 1.478 . S
C879 H873 0.930 . S
C879 C875 1.400 . S
C879 C878 1.385 . S
C880 C878 1.478 . S
C880 C882 1.381 . S
C880 C886 1.383 . S
C881 C877 1.495 . S
C881 H887 0.959 . S
C881 H888 0.961 . S
C881 H889 0.960 . S
C882 C880 1.381 . S
C882 C883 1.394 . S
C882 H890 0.930 . S
C883 C882 1.394 . S
C883 C884 1.383 . S
C883 H891 0.929 . S
C884 C883 1.383 . S
C884 C885 1.377 . S
C885 H869 0.930 . S
C885 C884 1.377 . S
C885 C886 1.379 . S
C886 H870 0.931 . S
C886 C880 1.383 . S
C886 C885 1.379 . S
H887 C881 0.959 . S
H888 C881 0.961 . S
H889 C881 0.960 . S
H890 C882 0.930 . S
H891 C883 0.929 . S
H892 C900 0.929 . S
H893 C902 0.930 1_545 S
H894 C904 0.930 . S
H895 C907 0.929 . S
H896 C910 0.930 . S
H897 C912 0.960 . S
H898 C912 0.960 . S
H899 C912 0.960 . S
C900 H892 0.929 . S
C900 C901 1.377 . S
C900 C902 1.384 . S
C901 C900 1.377 . S
C901 C907 1.390 . S
C902 H893 0.930 1_565 S
C902 C900 1.384 . S
C902 C903 1.372 . S
C903 C902 1.372 . S
C903 C904 1.400 . S
C903 C908 1.490 1_565 S
C904 H894 0.930 . S
C904 C903 1.400 . S
C904 C907 1.386 . S
H905 C921 0.930 . S
H906 C922 0.931 . S
C907 H895 0.929 . S
C907 C901 1.390 . S
C907 C904 1.386 . S
C908 C903 1.490 1_545 S
C908 C910 1.395 . S
C908 C911 1.403 . S
H909 C915 0.930 . S
C910 H896 0.930 . S
C910 C908 1.395 . S
C910 C913 1.403 . S
C911 C908 1.403 . S
C911 C912 1.524 1_545 S
C911 C915 1.400 . S
C912 H897 0.960 . S
C912 H898 0.960 . S
C912 H899 0.960 . S
C912 C911 1.524 1_565 S
C913 C910 1.403 . S
C913 C914 1.392 . S
C913 C917 1.495 . S
C914 C913 1.392 . S
C914 C915 1.385 . S
C914 C916 1.478 . S
C915 H909 0.930 . S
C915 C911 1.400 . S
C915 C914 1.385 . S
C916 C914 1.478 . S
C916 C918 1.381 . S
C916 C922 1.383 . S
C917 C913 1.495 . S
C917 H923 0.959 . S
C917 H924 0.961 . S
C917 H925 0.960 . S
C918 C916 1.381 . S
C918 C919 1.394 . S
C918 H926 0.930 . S
C919 C918 1.394 . S
C919 C920 1.383 . S
C919 H927 0.929 . S
C920 C919 1.383 . S
C920 C921 1.377 . S
C921 H905 0.930 . S
C921 C920 1.377 . S
C921 C922 1.379 . S
C922 H906 0.931 . S
C922 C916 1.383 . S
C922 C921 1.379 . S
H923 C917 0.959 . S
H924 C917 0.961 . S
H925 C917 0.960 . S
H926 C918 0.930 . S
H927 C919 0.929 . S
H928 C936 0.937 . S
H929 C938 0.930 . S
H930 C940 0.930 . S
H931 C943 0.929 . S
H932 C946 0.930 . S
H933 C948 0.960 . S
H934 C948 0.960 . S
H935 C948 0.960 . S
C936 H928 0.937 . S
C936 C937 1.377 . S
C936 C938 1.384 . S
C937 C936 1.377 . S
C937 C943 1.390 . S
C938 H929 0.930 . S
C938 C936 1.384 . S
C938 C939 1.372 . S
C939 C938 1.372 . S
C939 C940 1.400 . S
C939 C944 1.490 . S
C940 H930 0.930 . S
C940 C939 1.400 . S
C940 C943 1.386 . S
H941 C957 0.930 . S
H942 C958 0.931 . S
C943 H931 0.929 . S
C943 C937 1.390 . S
C943 C940 1.386 . S
C944 C939 1.490 . S
C944 C946 1.395 . S
C944 C947 1.403 . S
H945 C951 0.930 . S
C946 H932 0.930 . S
C946 C944 1.395 . S
C946 C949 1.403 . S
C947 C944 1.403 . S
C947 C948 1.524 . S
C947 C951 1.400 . S
C948 H933 0.960 . S
C948 H934 0.960 . S
C948 H935 0.960 . S
C948 C947 1.524 . S
C949 C946 1.403 . S
C949 C950 1.392 . S
C949 C953 1.495 . S
C950 C949 1.392 . S
C950 C951 1.385 . S
C950 C952 1.478 . S
C951 H945 0.930 . S
C951 C947 1.400 . S
C951 C950 1.385 . S
C952 C950 1.478 . S
C952 C954 1.381 . S
C952 C958 1.383 . S
C953 C949 1.495 . S
C953 H959 0.959 . S
C953 H960 0.961 . S
C953 H961 0.960 . S
C954 C952 1.381 . S
C954 C955 1.394 . S
C954 H962 0.930 . S
C955 C954 1.394 . S
C955 C956 1.383 . S
C955 H963 0.929 . S
C956 C955 1.383 . S
C956 C957 1.377 . S
C957 H941 0.930 . S
C957 C956 1.377 . S
C957 C958 1.379 . S
C958 H942 0.931 . S
C958 C952 1.383 . S
C958 C957 1.379 . S
H959 C953 0.959 . S
H960 C953 0.961 . S
H961 C953 0.960 . S
H962 C954 0.930 . S
H963 C955 0.929 . S
H964 C972 0.929 . S
H965 C974 0.930 . S
H966 C976 0.930 . S
H967 C979 0.929 . S
H968 C982 0.930 . S
H969 C984 0.960 1_565 S
H970 C984 0.960 . S
H971 C984 0.960 . S
C972 H964 0.929 . S
C972 C973 1.377 . S
C972 C974 1.384 . S
C973 C972 1.377 . S
C973 C979 1.390 . S
C974 H965 0.930 . S
C974 C972 1.384 . S
C974 C975 1.372 . S
C975 C974 1.372 . S
C975 C976 1.400 . S
C975 C980 1.490 . S
C976 H966 0.930 . S
C976 C975 1.400 . S
C976 C979 1.386 . S
H977 C993 0.930 . S
H978 C994 0.931 . S
C979 H967 0.929 . S
C979 C973 1.390 . S
C979 C976 1.386 . S
C980 C975 1.490 . S
C980 C982 1.395 1_545 S
C980 C983 1.403 1_545 S
H981 C987 0.930 . S
C982 H968 0.930 . S
C982 C980 1.395 1_565 S
C982 C985 1.403 . S
C983 C980 1.403 1_565 S
C983 C984 1.524 1_565 S
C983 C987 1.400 . S
C984 H969 0.960 1_545 S
C984 H970 0.960 . S
C984 H971 0.960 . S
C984 C983 1.524 1_545 S
C985 C982 1.403 . S
C985 C986 1.392 . S
C985 C989 1.495 . S
C986 C985 1.392 . S
C986 C987 1.385 . S
C986 C988 1.478 . S
C987 H981 0.930 . S
C987 C983 1.400 . S
C987 C986 1.385 . S
C988 C986 1.478 . S
C988 C990 1.381 . S
C988 C994 1.383 . S
C989 C985 1.495 . S
C989 H995 0.959 . S
C989 H996 0.961 . S
C989 H997 0.960 . S
C990 C988 1.381 . S
C990 C991 1.394 . S
C990 H998 0.930 . S
C991 C990 1.394 . S
C991 C992 1.383 . S
C991 H999 0.929 . S
C992 C991 1.383 . S
C992 C993 1.377 . S
C993 H977 0.930 . S
C993 C992 1.377 . S
C993 C994 1.379 . S
C994 H978 0.931 . S
C994 C988 1.383 . S
C994 C993 1.379 . S
H995 C989 0.959 . S
H996 C989 0.961 . S
H997 C989 0.960 . S
H998 C990 0.930 . S
H999 C991 0.929 . S
H1000 C1008 0.929 . S
H1001 C1010 0.930 . S
H1002 C1012 0.930 . S
H1003 C1015 0.929 . S
H1004 C1018 0.930 . S
H1005 C1020 0.960 . S
H1006 C1020 0.960 . S
H1007 C1020 0.960 . S
C1008 H1000 0.929 . S
C1008 C1009 1.377 . S
C1008 C1010 1.384 . S
C1009 C1008 1.377 . S
C1009 C1015 1.390 . S
C1010 H1001 0.930 . S
C1010 C1008 1.384 . S
C1010 C1011 1.372 . S
C1011 C1010 1.372 . S
C1011 C1012 1.400 . S
C1011 C1016 1.490 . S
C1012 H1002 0.930 . S
C1012 C1011 1.400 . S
C1012 C1015 1.386 . S
H1013 C1029 0.930 . S
H1014 C1030 0.931 . S
C1015 H1003 0.929 . S
C1015 C1009 1.390 . S
C1015 C1012 1.386 . S
C1016 C1011 1.490 . S
C1016 C1018 1.395 . S
C1016 C1019 1.403 . S
H1017 C1023 0.930 . S
C1018 H1004 0.930 . S
C1018 C1016 1.395 . S
C1018 C1021 1.403 . S
C1019 C1016 1.403 . S
C1019 C1020 1.524 . S
C1019 C1023 1.400 . S
C1020 H1005 0.960 . S
C1020 H1006 0.960 . S
C1020 H1007 0.960 . S
C1020 C1019 1.524 . S
C1021 C1018 1.403 . S
C1021 C1022 1.392 . S
C1021 C1025 1.495 . S
C1022 C1021 1.392 . S
C1022 C1023 1.385 . S
C1022 C1024 1.478 . S
C1023 H1017 0.930 . S
C1023 C1019 1.400 . S
C1023 C1022 1.385 . S
C1024 C1022 1.478 . S
C1024 C1026 1.381 . S
C1024 C1030 1.383 . S
C1025 C1021 1.495 . S
C1025 H1031 0.959 . S
C1025 H1032 0.961 . S
C1025 H1033 0.960 . S
C1026 C1024 1.381 . S
C1026 C1027 1.394 . S
C1026 H1034 0.930 . S
C1027 C1026 1.394 . S
C1027 C1028 1.383 . S
C1027 H1035 0.929 . S
C1028 C1027 1.383 . S
C1028 C1029 1.377 . S
C1029 H1013 0.930 . S
C1029 C1028 1.377 . S
C1029 C1030 1.379 . S
C1030 H1014 0.931 . S
C1030 C1024 1.383 . S
C1030 C1029 1.379 . S
H1031 C1025 0.959 . S
H1032 C1025 0.961 . S
H1033 C1025 0.960 . S
H1034 C1026 0.930 . S
H1035 C1027 0.929 . S
H1036 C1044 0.929 . S
H1037 C1046 0.930 1_545 S
H1038 C1048 0.930 . S
H1039 C1051 0.929 . S
H1040 C1054 0.930 . S
H1041 C1056 0.960 . S
H1042 C1056 0.960 . S
H1043 C1056 0.960 . S
C1044 H1036 0.929 . S
C1044 C1045 1.377 . S
C1044 C1046 1.384 . S
C1045 C1044 1.377 . S
C1045 C1051 1.390 . S
C1046 H1037 0.930 1_565 S
C1046 C1044 1.384 . S
C1046 C1047 1.372 . S
C1047 C1046 1.372 . S
C1047 C1048 1.400 . S
C1047 C1052 1.490 1_565 S
C1048 H1038 0.930 . S
C1048 C1047 1.400 . S
C1048 C1051 1.386 . S
H1049 C1065 0.930 . S
H1050 C1066 0.931 . S
C1051 H1039 0.929 . S
C1051 C1045 1.390 . S
C1051 C1048 1.386 . S
C1052 C1047 1.490 1_545 S
C1052 C1054 1.395 . S
C1052 C1055 1.403 . S
H1053 C1059 0.930 . S
C1054 H1040 0.930 . S
C1054 C1052 1.395 . S
C1054 C1057 1.403 . S
C1055 C1052 1.403 . S
C1055 C1056 1.524 1_545 S
C1055 C1059 1.400 . S
C1056 H1041 0.960 . S
C1056 H1042 0.960 . S
C1056 H1043 0.960 . S
C1056 C1055 1.524 1_565 S
C1057 C1054 1.403 . S
C1057 C1058 1.392 . S
C1057 C1061 1.495 . S
C1058 C1057 1.392 . S
C1058 C1059 1.385 . S
C1058 C1060 1.478 . S
C1059 H1053 0.930 . S
C1059 C1055 1.400 . S
C1059 C1058 1.385 . S
C1060 C1058 1.478 . S
C1060 C1062 1.381 . S
C1060 C1066 1.383 . S
C1061 C1057 1.495 . S
C1061 H1067 0.959 . S
C1061 H1068 0.961 . S
C1061 H1069 0.960 . S
C1062 C1060 1.381 . S
C1062 C1063 1.394 . S
C1062 H1070 0.930 . S
C1063 C1062 1.394 . S
C1063 C1064 1.383 . S
C1063 H1071 0.929 . S
C1064 C1063 1.383 . S
C1064 C1065 1.377 . S
C1065 H1049 0.930 . S
C1065 C1064 1.377 . S
C1065 C1066 1.379 . S
C1066 H1050 0.931 . S
C1066 C1060 1.383 . S
C1066 C1065 1.379 . S
H1067 C1061 0.959 . S
H1068 C1061 0.961 . S
H1069 C1061 0.960 . S
H1070 C1062 0.930 . S
H1071 C1063 0.929 . S
H1072 C1080 0.929 . S
H1073 C1082 0.930 . S
H1074 C1084 0.930 . S
H1075 C1087 0.929 . S
H1076 C1090 0.930 . S
H1077 C1092 0.960 . S
H1078 C1092 0.960 . S
H1079 C1092 0.960 . S
C1080 H1072 0.929 . S
C1080 C1081 1.377 . S
C1080 C1082 1.384 . S
C1081 C1080 1.377 . S
C1081 C1087 1.390 . S
C1082 H1073 0.930 . S
C1082 C1080 1.384 . S
C1082 C1083 1.372 . S
C1083 C1082 1.372 . S
C1083 C1084 1.400 . S
C1083 C1088 1.490 . S
C1084 H1074 0.930 . S
C1084 C1083 1.400 . S
C1084 C1087 1.386 . S
H1085 C1101 0.930 . S
H1086 C1102 0.931 . S
C1087 H1075 0.929 . S
C1087 C1081 1.390 . S
C1087 C1084 1.386 . S
C1088 C1083 1.490 . S
C1088 C1090 1.395 . S
C1088 C1091 1.403 . S
H1089 C1095 0.930 . S
C1090 H1076 0.930 . S
C1090 C1088 1.395 . S
C1090 C1093 1.403 . S
C1091 C1088 1.403 . S
C1091 C1092 1.524 . S
C1091 C1095 1.400 . S
C1092 H1077 0.960 . S
C1092 H1078 0.960 . S
C1092 H1079 0.960 . S
C1092 C1091 1.524 . S
C1093 C1090 1.403 . S
C1093 C1094 1.392 . S
C1093 C1097 1.495 . S
C1094 C1093 1.392 . S
C1094 C1095 1.385 . S
C1094 C1096 1.478 . S
C1095 H1089 0.930 . S
C1095 C1091 1.400 . S
C1095 C1094 1.385 . S
C1096 C1094 1.478 . S
C1096 C1098 1.381 . S
C1096 C1102 1.383 . S
C1097 C1093 1.495 . S
C1097 H1103 0.959 . S
C1097 H1104 0.961 . S
C1097 H1105 0.960 . S
C1098 C1096 1.381 . S
C1098 C1099 1.394 . S
C1098 H1106 0.930 . S
C1099 C1098 1.394 . S
C1099 C1100 1.383 . S
C1099 H1107 0.929 . S
C1100 C1099 1.383 . S
C1100 C1101 1.377 . S
C1101 H1085 0.930 . S
C1101 C1100 1.377 . S
C1101 C1102 1.379 . S
C1102 H1086 0.931 . S
C1102 C1096 1.383 . S
C1102 C1101 1.379 . S
H1103 C1097 0.959 . S
H1104 C1097 0.961 . S
H1105 C1097 0.960 . S
H1106 C1098 0.930 . S
H1107 C1099 0.929 . S
H1108 C1116 0.929 . S
H1109 C1118 0.930 . S
H1110 C1120 0.930 . S
H1111 C1123 0.929 . S
H1112 C1126 0.930 . S
H1113 C1128 0.960 . S
H1114 C1128 0.960 . S
H1115 C1128 0.960 . S
C1116 H1108 0.929 . S
C1116 C1117 1.377 . S
C1116 C1118 1.384 . S
C1117 C1116 1.377 . S
C1117 C1123 1.390 . S
C1118 H1109 0.930 . S
C1118 C1116 1.384 . S
C1118 C1119 1.372 . S
C1119 C1118 1.372 . S
C1119 C1120 1.400 . S
C1119 C1124 1.490 . S
C1120 H1110 0.930 . S
C1120 C1119 1.400 . S
C1120 C1123 1.386 . S
H1121 C1137 0.930 . S
H1122 C1138 0.931 . S
C1123 H1111 0.929 . S
C1123 C1117 1.390 . S
C1123 C1120 1.386 . S
C1124 C1119 1.490 . S
C1124 C1126 1.395 . S
C1124 C1127 1.403 . S
H1125 C1131 0.930 . S
C1126 H1112 0.930 . S
C1126 C1124 1.395 . S
C1126 C1129 1.403 . S
C1127 C1124 1.403 . S
C1127 C1128 1.524 . S
C1127 C1131 1.400 . S
C1128 H1113 0.960 . S
C1128 H1114 0.960 . S
C1128 H1115 0.960 . S
C1128 C1127 1.524 . S
C1129 C1126 1.403 . S
C1129 C1130 1.392 . S
C1129 C1133 1.495 . S
C1130 C1129 1.392 . S
C1130 C1131 1.385 . S
C1130 C1132 1.478 . S
C1131 H1125 0.930 . S
C1131 C1127 1.400 . S
C1131 C1130 1.385 . S
C1132 C1130 1.478 . S
C1132 C1134 1.381 . S
C1132 C1138 1.383 . S
C1133 C1129 1.495 . S
C1133 H1139 0.959 . S
C1133 H1140 0.961 . S
C1133 H1141 0.960 . S
C1134 C1132 1.381 . S
C1134 C1135 1.394 . S
C1134 H1142 0.930 . S
C1135 C1134 1.394 . S
C1135 C1136 1.383 . S
C1135 H1143 0.929 . S
C1136 C1135 1.383 . S
C1136 C1137 1.377 . S
C1137 H1121 0.930 . S
C1137 C1136 1.377 . S
C1137 C1138 1.379 . S
C1138 H1122 0.931 . S
C1138 C1132 1.383 . S
C1138 C1137 1.379 . S
H1139 C1133 0.959 . S
H1140 C1133 0.961 . S
H1141 C1133 0.960 . S
H1142 C1134 0.930 . S
H1143 C1135 0.929 . S
H1144 C1152 0.929 . S
H1145 C1154 0.930 . S
H1146 C1156 0.930 . S
H1147 C1159 0.929 . S
H1148 C1162 0.930 . S
H1149 C1164 0.960 . S
H1150 C1164 0.960 . S
H1151 C1164 0.960 . S
C1152 H1144 0.929 . S
C1152 C1153 1.377 . S
C1152 C1154 1.384 . S
C1153 C1152 1.377 . S
C1153 C1159 1.390 . S
C1154 H1145 0.930 . S
C1154 C1152 1.384 . S
C1154 C1155 1.372 . S
C1155 C1154 1.372 . S
C1155 C1156 1.400 . S
C1155 C1160 1.490 . S
C1156 H1146 0.930 . S
C1156 C1155 1.400 . S
C1156 C1159 1.386 . S
H1157 C1173 0.930 . S
H1158 C1174 0.931 . S
C1159 H1147 0.929 . S
C1159 C1153 1.390 . S
C1159 C1156 1.386 . S
C1160 C1155 1.490 . S
C1160 C1162 1.395 . S
C1160 C1163 1.403 . S
H1161 C1167 0.930 . S
C1162 H1148 0.930 . S
C1162 C1160 1.395 . S
C1162 C1165 1.403 . S
C1163 C1160 1.403 . S
C1163 C1164 1.524 . S
C1163 C1167 1.400 . S
C1164 H1149 0.960 . S
C1164 H1150 0.960 . S
C1164 H1151 0.960 . S
C1164 C1163 1.524 . S
C1165 C1162 1.403 . S
C1165 C1166 1.392 . S
C1165 C1169 1.495 . S
C1166 C1165 1.392 . S
C1166 C1167 1.385 . S
C1166 C1168 1.478 . S
C1167 H1161 0.930 . S
C1167 C1163 1.400 . S
C1167 C1166 1.385 . S
C1168 C1166 1.478 . S
C1168 C1170 1.381 . S
C1168 C1174 1.383 . S
C1169 C1165 1.495 . S
C1169 H1175 0.959 . S
C1169 H1176 0.961 . S
C1169 H1177 0.960 . S
C1170 C1168 1.381 . S
C1170 C1171 1.394 . S
C1170 H1178 0.930 . S
C1171 C1170 1.394 . S
C1171 C1172 1.383 . S
C1171 H1179 0.929 . S
C1172 C1171 1.383 . S
C1172 C1173 1.377 . S
C1173 H1157 0.930 . S
C1173 C1172 1.377 . S
C1173 C1174 1.379 . S
C1174 H1158 0.931 . S
C1174 C1168 1.383 . S
C1174 C1173 1.379 . S
H1175 C1169 0.959 . S
H1176 C1169 0.961 . S
H1177 C1169 0.960 . S
H1178 C1170 0.930 . S
H1179 C1171 0.929 . S
H1180 C1188 0.929 . S
H1181 C1190 0.930 . S
H1182 C1192 0.930 . S
H1183 C1195 0.929 . S
H1184 C1198 0.930 . S
H1185 C1200 0.960 . S
H1186 C1200 0.960 . S
H1187 C1200 0.960 . S
C1188 H1180 0.929 . S
C1188 C1189 1.377 . S
C1188 C1190 1.384 . S
C1189 C1188 1.377 . S
C1189 C1195 1.390 . S
C1190 H1181 0.930 . S
C1190 C1188 1.384 . S
C1190 C1191 1.372 . S
C1191 C1190 1.372 . S
C1191 C1192 1.400 . S
C1191 C1196 1.490 . S
C1192 H1182 0.930 . S
C1192 C1191 1.400 . S
C1192 C1195 1.386 . S
H1193 C1209 0.930 . S
H1194 C1210 0.931 . S
C1195 H1183 0.929 . S
C1195 C1189 1.390 . S
C1195 C1192 1.386 . S
C1196 C1191 1.490 . S
C1196 C1198 1.395 . S
C1196 C1199 1.403 . S
H1197 C1203 0.930 . S
C1198 H1184 0.930 . S
C1198 C1196 1.395 . S
C1198 C1201 1.403 . S
C1199 C1196 1.403 . S
C1199 C1200 1.524 . S
C1199 C1203 1.400 . S
C1200 H1185 0.960 . S
C1200 H1186 0.960 . S
C1200 H1187 0.960 . S
C1200 C1199 1.524 . S
C1201 C1198 1.403 . S
C1201 C1202 1.392 . S
C1201 C1205 1.495 . S
C1202 C1201 1.392 . S
C1202 C1203 1.385 . S
C1202 C1204 1.478 . S
C1203 H1197 0.930 . S
C1203 C1199 1.400 . S
C1203 C1202 1.385 . S
C1204 C1202 1.478 . S
C1204 C1206 1.381 . S
C1204 C1210 1.383 . S
C1205 C1201 1.495 . S
C1205 H1211 0.959 . S
C1205 H1212 0.961 . S
C1205 H1213 0.960 . S
C1206 C1204 1.381 . S
C1206 C1207 1.394 . S
C1206 H1214 0.930 . S
C1207 C1206 1.394 . S
C1207 C1208 1.383 . S
C1207 H1215 0.929 . S
C1208 C1207 1.383 . S
C1208 C1209 1.377 . S
C1209 H1193 0.930 . S
C1209 C1208 1.377 . S
C1209 C1210 1.379 . S
C1210 H1194 0.931 . S
C1210 C1204 1.383 . S
C1210 C1209 1.379 . S
H1211 C1205 0.959 . S
H1212 C1205 0.961 . S
H1213 C1205 0.960 . S
H1214 C1206 0.930 . S
H1215 C1207 0.929 . S
H1216 C1224 0.929 . S
H1217 C1226 0.930 . S
H1218 C1228 0.930 . S
H1219 C1231 0.929 . S
H1220 C1234 0.930 . S
H1221 C1236 0.960 . S
H1222 C1236 0.960 . S
H1223 C1236 0.960 . S
C1224 H1216 0.929 . S
C1224 C1225 1.377 . S
C1224 C1226 1.384 . S
C1225 C1224 1.377 . S
C1225 C1231 1.390 . S
C1226 H1217 0.930 . S
C1226 C1224 1.384 . S
C1226 C1227 1.372 . S
C1227 C1226 1.372 . S
C1227 C1228 1.400 . S
C1227 C1232 1.490 . S
C1228 H1218 0.930 . S
C1228 C1227 1.400 . S
C1228 C1231 1.386 . S
H1229 C1245 0.930 . S
H1230 C1246 0.931 . S
C1231 H1219 0.929 . S
C1231 C1225 1.390 . S
C1231 C1228 1.386 . S
C1232 C1227 1.490 . S
C1232 C1234 1.395 . S
C1232 C1235 1.403 . S
H1233 C1239 0.930 . S
C1234 H1220 0.930 . S
C1234 C1232 1.395 . S
C1234 C1237 1.403 . S
C1235 C1232 1.403 . S
C1235 C1236 1.524 . S
C1235 C1239 1.400 . S
C1236 H1221 0.960 . S
C1236 H1222 0.960 . S
C1236 H1223 0.960 . S
C1236 C1235 1.524 . S
C1237 C1234 1.403 . S
C1237 C1238 1.392 . S
C1237 C1241 1.495 . S
C1238 C1237 1.392 . S
C1238 C1239 1.385 . S
C1238 C1240 1.478 . S
C1239 H1233 0.930 . S
C1239 C1235 1.400 . S
C1239 C1238 1.385 . S
C1240 C1238 1.478 . S
C1240 C1242 1.381 . S
C1240 C1246 1.383 . S
C1241 C1237 1.495 . S
C1241 H1247 0.959 . S
C1241 H1248 0.961 . S
C1241 H1249 0.960 . S
C1242 C1240 1.381 . S
C1242 C1243 1.394 . S
C1242 H1250 0.930 . S
C1243 C1242 1.394 . S
C1243 C1244 1.383 . S
C1243 H1251 0.929 . S
C1244 C1243 1.383 . S
C1244 C1245 1.377 . S
C1245 H1229 0.930 . S
C1245 C1244 1.377 . S
C1245 C1246 1.379 . S
C1246 H1230 0.931 . S
C1246 C1240 1.383 . S
C1246 C1245 1.379 . S
H1247 C1241 0.959 . S
H1248 C1241 0.961 . S
H1249 C1241 0.960 . S
H1250 C1242 0.930 . S
H1251 C1243 0.929 . S
H1252 C1260 0.929 . S
H1253 C1262 0.930 . S
H1254 C1264 0.930 . S
H1255 C1267 0.929 . S
H1256 C1270 0.930 . S
H1257 C1272 0.960 . S
H1258 C1272 0.960 . S
H1259 C1272 0.960 . S
C1260 H1252 0.929 . S
C1260 C1261 1.377 . S
C1260 C1262 1.384 . S
C1261 C1260 1.377 . S
C1261 C1267 1.390 . S
C1262 H1253 0.930 . S
C1262 C1260 1.384 . S
C1262 C1263 1.372 . S
C1263 C1262 1.372 . S
C1263 C1264 1.400 . S
C1263 C1268 1.490 . S
C1264 H1254 0.930 . S
C1264 C1263 1.400 . S
C1264 C1267 1.386 . S
H1265 C1281 0.930 . S
H1266 C1282 0.931 . S
C1267 H1255 0.929 . S
C1267 C1261 1.390 . S
C1267 C1264 1.386 . S
C1268 C1263 1.490 . S
C1268 C1270 1.395 . S
C1268 C1271 1.403 . S
H1269 C1275 0.930 . S
C1270 H1256 0.930 . S
C1270 C1268 1.395 . S
C1270 C1273 1.403 . S
C1271 C1268 1.403 . S
C1271 C1272 1.524 . S
C1271 C1275 1.400 . S
C1272 H1257 0.960 . S
C1272 H1258 0.960 . S
C1272 H1259 0.960 . S
C1272 C1271 1.524 . S
C1273 C1270 1.403 . S
C1273 C1274 1.392 . S
C1273 C1277 1.495 . S
C1274 C1273 1.392 . S
C1274 C1275 1.385 . S
C1274 C1276 1.478 . S
C1275 H1269 0.930 . S
C1275 C1271 1.400 . S
C1275 C1274 1.385 . S
C1276 C1274 1.478 . S
C1276 C1278 1.381 . S
C1276 C1282 1.383 . S
C1277 C1273 1.495 . S
C1277 H1283 0.959 . S
C1277 H1284 0.961 . S
C1277 H1285 0.960 . S
C1278 C1276 1.381 . S
C1278 C1279 1.394 . S
C1278 H1286 0.930 . S
C1279 C1278 1.394 . S
C1279 C1280 1.383 . S
C1279 H1287 0.929 . S
C1280 C1279 1.383 . S
C1280 C1281 1.377 . S
C1281 H1265 0.930 . S
C1281 C1280 1.377 . S
C1281 C1282 1.379 . S
C1282 H1266 0.931 . S
C1282 C1276 1.383 . S
C1282 C1281 1.379 . S
H1283 C1277 0.959 . S
H1284 C1277 0.961 . S
H1285 C1277 0.960 . S
H1286 C1278 0.930 . S
H1287 C1279 0.929 . S
H1288 C1296 0.929 . S
H1289 C1298 0.930 . S
H1290 C1300 0.930 . S
H1291 C1303 0.929 . S
H1292 C1306 0.930 . S
H1293 C1308 0.960 . S
H1294 C1308 0.960 . S
H1295 C1308 0.960 . S
C1296 H1288 0.929 . S
C1296 C1297 1.377 . S
C1296 C1298 1.384 . S
C1297 C1296 1.377 . S
C1297 C1303 1.390 . S
C1298 H1289 0.930 . S
C1298 C1296 1.384 . S
C1298 C1299 1.372 . S
C1299 C1298 1.372 . S
C1299 C1300 1.400 . S
C1299 C1304 1.490 . S
C1300 H1290 0.930 . S
C1300 C1299 1.400 . S
C1300 C1303 1.386 . S
H1301 C1317 0.930 . S
H1302 C1318 0.931 . S
C1303 H1291 0.929 . S
C1303 C1297 1.390 . S
C1303 C1300 1.386 . S
C1304 C1299 1.490 . S
C1304 C1306 1.395 . S
C1304 C1307 1.403 . S
H1305 C1311 0.930 . S
C1306 H1292 0.930 . S
C1306 C1304 1.395 . S
C1306 C1309 1.403 . S
C1307 C1304 1.403 . S
C1307 C1308 1.524 . S
C1307 C1311 1.400 . S
C1308 H1293 0.960 . S
C1308 H1294 0.960 . S
C1308 H1295 0.960 . S
C1308 C1307 1.524 . S
C1309 C1306 1.403 . S
C1309 C1310 1.392 . S
C1309 C1313 1.495 . S
C1310 C1309 1.392 . S
C1310 C1311 1.385 . S
C1310 C1312 1.478 . S
C1311 H1305 0.930 . S
C1311 C1307 1.400 . S
C1311 C1310 1.385 . S
C1312 C1310 1.478 . S
C1312 C1314 1.381 . S
C1312 C1318 1.383 . S
C1313 C1309 1.495 . S
C1313 H1319 0.959 . S
C1313 H1320 0.961 . S
C1313 H1321 0.960 . S
C1314 C1312 1.381 . S
C1314 C1315 1.394 . S
C1314 H1322 0.930 . S
C1315 C1314 1.394 . S
C1315 C1316 1.383 . S
C1315 H1323 0.929 . S
C1316 C1315 1.383 . S
C1316 C1317 1.377 . S
C1317 H1301 0.930 . S
C1317 C1316 1.377 . S
C1317 C1318 1.379 . S
C1318 H1302 0.931 . S
C1318 C1312 1.383 . S
C1318 C1317 1.379 . S
H1319 C1313 0.959 . S
H1320 C1313 0.961 . S
H1321 C1313 0.960 . S
H1322 C1314 0.930 . S
H1323 C1315 0.929 . S
H1324 C1332 0.929 . S
H1325 C1334 0.930 . S
H1326 C1336 0.930 . S
H1327 C1339 0.929 . S
H1328 C1342 0.930 . S
H1329 C1344 0.960 . S
H1330 C1344 0.960 . S
H1331 C1344 0.960 . S
C1332 H1324 0.929 . S
C1332 C1333 1.377 . S
C1332 C1334 1.384 . S
C1333 C1332 1.377 . S
C1333 C1339 1.390 . S
C1334 H1325 0.930 . S
C1334 C1332 1.384 . S
C1334 C1335 1.372 . S
C1335 C1334 1.372 . S
C1335 C1336 1.400 . S
C1335 C1340 1.490 . S
C1336 H1326 0.930 . S
C1336 C1335 1.400 . S
C1336 C1339 1.386 . S
H1337 C1353 0.930 . S
H1338 C1354 0.931 . S
C1339 H1327 0.929 . S
C1339 C1333 1.390 . S
C1339 C1336 1.386 . S
C1340 C1335 1.490 . S
C1340 C1342 1.395 . S
C1340 C1343 1.403 . S
H1341 C1347 0.930 . S
C1342 H1328 0.930 . S
C1342 C1340 1.395 . S
C1342 C1345 1.403 . S
C1343 C1340 1.403 . S
C1343 C1344 1.524 . S
C1343 C1347 1.400 . S
C1344 H1329 0.960 . S
C1344 H1330 0.960 . S
C1344 H1331 0.960 . S
C1344 C1343 1.524 . S
C1345 C1342 1.403 . S
C1345 C1346 1.392 . S
C1345 C1349 1.495 . S
C1346 C1345 1.392 . S
C1346 C1347 1.385 . S
C1346 C1348 1.478 . S
C1347 H1341 0.930 . S
C1347 C1343 1.400 . S
C1347 C1346 1.385 . S
C1348 C1346 1.478 . S
C1348 C1350 1.381 . S
C1348 C1354 1.383 . S
C1349 C1345 1.495 . S
C1349 H1355 0.959 . S
C1349 H1356 0.961 . S
C1349 H1357 0.960 . S
C1350 C1348 1.381 . S
C1350 C1351 1.394 . S
C1350 H1358 0.930 . S
C1351 C1350 1.394 . S
C1351 C1352 1.383 . S
C1351 H1359 0.929 . S
C1352 C1351 1.383 . S
C1352 C1353 1.377 . S
C1353 H1337 0.930 . S
C1353 C1352 1.377 . S
C1353 C1354 1.379 . S
C1354 H1338 0.931 . S
C1354 C1348 1.383 . S
C1354 C1353 1.379 . S
H1355 C1349 0.959 . S
H1356 C1349 0.961 . S
H1357 C1349 0.960 . S
H1358 C1350 0.930 . S
H1359 C1351 0.929 . S
H1360 C1368 0.929 . S
H1361 C1370 0.930 . S
H1362 C1372 0.930 . S
H1363 C1375 0.929 . S
H1364 C1378 0.930 . S
H1365 C1380 0.960 . S
H1366 C1380 0.960 . S
H1367 C1380 0.960 . S
C1368 H1360 0.929 . S
C1368 C1369 1.377 . S
C1368 C1370 1.384 . S
C1369 C1368 1.377 . S
C1369 C1375 1.390 . S
C1370 H1361 0.930 . S
C1370 C1368 1.384 . S
C1370 C1371 1.372 . S
C1371 C1370 1.372 . S
C1371 C1372 1.400 . S
C1371 C1376 1.490 . S
C1372 H1362 0.930 . S
C1372 C1371 1.400 . S
C1372 C1375 1.386 . S
H1373 C1389 0.930 . S
H1374 C1390 0.931 . S
C1375 H1363 0.929 . S
C1375 C1369 1.390 . S
C1375 C1372 1.386 . S
C1376 C1371 1.490 . S
C1376 C1378 1.395 . S
C1376 C1379 1.403 . S
H1377 C1383 0.930 . S
C1378 H1364 0.930 . S
C1378 C1376 1.395 . S
C1378 C1381 1.403 . S
C1379 C1376 1.403 . S
C1379 C1380 1.524 . S
C1379 C1383 1.400 . S
C1380 H1365 0.960 . S
C1380 H1366 0.960 . S
C1380 H1367 0.960 . S
C1380 C1379 1.524 . S
C1381 C1378 1.403 . S
C1381 C1382 1.392 . S
C1381 C1385 1.495 . S
C1382 C1381 1.392 . S
C1382 C1383 1.385 . S
C1382 C1384 1.478 . S
C1383 H1377 0.930 . S
C1383 C1379 1.400 . S
C1383 C1382 1.385 . S
C1384 C1382 1.478 . S
C1384 C1386 1.381 . S
C1384 C1390 1.383 . S
C1385 C1381 1.495 . S
C1385 H1391 0.959 . S
C1385 H1392 0.961 . S
C1385 H1393 0.960 . S
C1386 C1384 1.381 . S
C1386 C1387 1.394 . S
C1386 H1394 0.930 . S
C1387 C1386 1.394 . S
C1387 C1388 1.383 . S
C1387 H1395 0.929 . S
C1388 C1387 1.383 . S
C1388 C1389 1.377 . S
C1389 H1373 0.930 . S
C1389 C1388 1.377 . S
C1389 C1390 1.379 . S
C1390 H1374 0.931 . S
C1390 C1384 1.383 . S
C1390 C1389 1.379 . S
H1391 C1385 0.959 . S
H1392 C1385 0.961 . S
H1393 C1385 0.960 . S
H1394 C1386 0.930 . S
H1395 C1387 0.929 . S
H1396 C1404 0.929 . S
H1397 C1406 0.930 . S
H1398 C1408 0.930 . S
H1399 C1411 0.929 . S
H1400 C1414 0.930 . S
H1401 C1416 0.960 . S
H1402 C1416 0.960 . S
H1403 C1416 0.960 . S
C1404 H1396 0.929 . S
C1404 C1405 1.377 . S
C1404 C1406 1.384 . S
C1405 C1404 1.377 . S
C1405 C1411 1.390 . S
C1406 H1397 0.930 . S
C1406 C1404 1.384 . S
C1406 C1407 1.372 . S
C1407 C1406 1.372 . S
C1407 C1408 1.400 . S
C1407 C1412 1.490 . S
C1408 H1398 0.930 . S
C1408 C1407 1.400 . S
C1408 C1411 1.386 . S
H1409 C1425 0.930 . S
H1410 C1426 0.931 . S
C1411 H1399 0.929 . S
C1411 C1405 1.390 . S
C1411 C1408 1.386 . S
C1412 C1407 1.490 . S
C1412 C1414 1.395 . S
C1412 C1415 1.403 . S
H1413 C1419 0.930 . S
C1414 H1400 0.930 . S
C1414 C1412 1.395 . S
C1414 C1417 1.403 . S
C1415 C1412 1.403 . S
C1415 C1416 1.524 . S
C1415 C1419 1.400 . S
C1416 H1401 0.960 . S
C1416 H1402 0.960 . S
C1416 H1403 0.960 . S
C1416 C1415 1.524 . S
C1417 C1414 1.403 . S
C1417 C1418 1.392 . S
C1417 C1421 1.495 . S
C1418 C1417 1.392 . S
C1418 C1419 1.385 . S
C1418 C1420 1.478 . S
C1419 H1413 0.930 . S
C1419 C1415 1.400 . S
C1419 C1418 1.385 . S
C1420 C1418 1.478 . S
C1420 C1422 1.381 . S
C1420 C1426 1.383 . S
C1421 C1417 1.495 . S
C1421 H1427 0.959 . S
C1421 H1428 0.961 . S
C1421 H1429 0.960 . S
C1422 C1420 1.381 . S
C1422 C1423 1.394 . S
C1422 H1430 0.930 . S
C1423 C1422 1.394 . S
C1423 C1424 1.383 . S
C1423 H1431 0.929 . S
C1424 C1423 1.383 . S
C1424 C1425 1.377 . S
C1425 H1409 0.930 . S
C1425 C1424 1.377 . S
C1425 C1426 1.379 . S
C1426 H1410 0.931 . S
C1426 C1420 1.383 . S
C1426 C1425 1.379 . S
H1427 C1421 0.959 . S
H1428 C1421 0.961 . S
H1429 C1421 0.960 . S
H1430 C1422 0.930 . S
H1431 C1423 0.929 . S
H1432 C1440 0.929 . S
H1433 C1442 0.930 . S
H1434 C1444 0.930 . S
H1435 C1447 0.929 . S
H1436 C1450 0.930 . S
H1437 C1452 0.960 . S
H1438 C1452 0.960 . S
H1439 C1452 0.960 . S
C1440 H1432 0.929 . S
C1440 C1441 1.377 . S
C1440 C1442 1.384 . S
C1441 C1440 1.377 . S
C1441 C1447 1.390 . S
C1442 H1433 0.930 . S
C1442 C1440 1.384 . S
C1442 C1443 1.372 . S
C1443 C1442 1.372 . S
C1443 C1444 1.400 . S
C1443 C1448 1.490 . S
C1444 H1434 0.930 . S
C1444 C1443 1.400 . S
C1444 C1447 1.386 . S
H1445 C1461 0.930 . S
H1446 C1462 0.931 . S
C1447 H1435 0.929 . S
C1447 C1441 1.390 . S
C1447 C1444 1.386 . S
C1448 C1443 1.490 . S
C1448 C1450 1.395 . S
C1448 C1451 1.403 . S
H1449 C1455 0.930 . S
C1450 H1436 0.930 . S
C1450 C1448 1.395 . S
C1450 C1453 1.403 . S
C1451 C1448 1.403 . S
C1451 C1452 1.524 . S
C1451 C1455 1.400 . S
C1452 H1437 0.960 . S
C1452 H1438 0.960 . S
C1452 H1439 0.960 . S
C1452 C1451 1.524 . S
C1453 C1450 1.403 . S
C1453 C1454 1.392 . S
C1453 C1457 1.495 . S
C1454 C1453 1.392 . S
C1454 C1455 1.385 . S
C1454 C1456 1.478 . S
C1455 H1449 0.930 . S
C1455 C1451 1.400 . S
C1455 C1454 1.385 . S
C1456 C1454 1.478 . S
C1456 C1458 1.381 . S
C1456 C1462 1.383 . S
C1457 C1453 1.495 . S
C1457 H1463 0.959 . S
C1457 H1464 0.961 . S
C1457 H1465 0.960 . S
C1458 C1456 1.381 . S
C1458 C1459 1.394 . S
C1458 H1466 0.930 . S
C1459 C1458 1.394 . S
C1459 C1460 1.383 . S
C1459 H1467 0.929 . S
C1460 C1459 1.383 . S
C1460 C1461 1.377 . S
C1461 H1445 0.930 . S
C1461 C1460 1.377 . S
C1461 C1462 1.379 . S
C1462 H1446 0.931 . S
C1462 C1456 1.383 . S
C1462 C1461 1.379 . S
H1463 C1457 0.959 . S
H1464 C1457 0.961 . S
H1465 C1457 0.960 . S
H1466 C1458 0.930 . S
H1467 C1459 0.929 . S
H1468 C1476 0.929 . S
H1469 C1478 0.930 . S
H1470 C1480 0.930 . S
H1471 C1483 0.929 . S
H1472 C1486 0.930 . S
H1473 C1488 0.960 . S
H1474 C1488 0.960 . S
H1475 C1488 0.960 . S
C1476 H1468 0.929 . S
C1476 C1477 1.377 . S
C1476 C1478 1.384 . S
C1477 C1476 1.377 . S
C1477 C1483 1.390 . S
C1478 H1469 0.930 . S
C1478 C1476 1.384 . S
C1478 C1479 1.372 . S
C1479 C1478 1.372 . S
C1479 C1480 1.400 . S
C1479 C1484 1.490 . S
C1480 H1470 0.930 . S
C1480 C1479 1.400 . S
C1480 C1483 1.386 . S
H1481 C1497 0.930 . S
H1482 C1498 0.931 . S
C1483 H1471 0.929 . S
C1483 C1477 1.390 . S
C1483 C1480 1.386 . S
C1484 C1479 1.490 . S
C1484 C1486 1.395 . S
C1484 C1487 1.403 . S
H1485 C1491 0.930 . S
C1486 H1472 0.930 . S
C1486 C1484 1.395 . S
C1486 C1489 1.403 . S
C1487 C1484 1.403 . S
C1487 C1488 1.524 . S
C1487 C1491 1.400 . S
C1488 H1473 0.960 . S
C1488 H1474 0.960 . S
C1488 H1475 0.960 . S
C1488 C1487 1.524 . S
C1489 C1486 1.403 . S
C1489 C1490 1.392 . S
C1489 C1493 1.495 . S
C1490 C1489 1.392 . S
C1490 C1491 1.385 . S
C1490 C1492 1.478 . S
C1491 H1485 0.930 . S
C1491 C1487 1.400 . S
C1491 C1490 1.385 . S
C1492 C1490 1.478 . S
C1492 C1494 1.381 . S
C1492 C1498 1.383 . S
C1493 C1489 1.495 . S
C1493 H1499 0.959 . S
C1493 H1500 0.961 . S
C1493 H1501 0.960 . S
C1494 C1492 1.381 . S
C1494 C1495 1.394 . S
C1494 H1502 0.930 . S
C1495 C1494 1.394 . S
C1495 C1496 1.383 . S
C1495 H1503 0.929 . S
C1496 C1495 1.383 . S
C1496 C1497 1.377 . S
C1497 H1481 0.930 . S
C1497 C1496 1.377 . S
C1497 C1498 1.379 . S
C1498 H1482 0.931 . S
C1498 C1492 1.383 . S
C1498 C1497 1.379 . S
H1499 C1493 0.959 . S
H1500 C1493 0.961 . S
H1501 C1493 0.960 . S
H1502 C1494 0.930 . S
H1503 C1495 0.929 . S
H1504 C1512 0.929 . S
H1505 C1514 0.930 . S
H1506 C1516 0.930 . S
H1507 C1519 0.929 . S
H1508 C1522 0.930 . S
H1509 C1524 0.960 . S
H1510 C1524 0.960 . S
H1511 C1524 0.960 . S
C1512 H1504 0.929 . S
C1512 C1513 1.377 . S
C1512 C1514 1.384 . S
C1513 C1512 1.377 . S
C1513 C1519 1.390 . S
C1514 H1505 0.930 . S
C1514 C1512 1.384 . S
C1514 C1515 1.372 . S
C1515 C1514 1.372 . S
C1515 C1516 1.400 . S
C1515 C1520 1.490 . S
C1516 H1506 0.930 . S
C1516 C1515 1.400 . S
C1516 C1519 1.386 . S
H1517 C1533 0.930 . S
H1518 C1534 0.931 . S
C1519 H1507 0.929 . S
C1519 C1513 1.390 . S
C1519 C1516 1.386 . S
C1520 C1515 1.490 . S
C1520 C1522 1.395 . S
C1520 C1523 1.403 . S
H1521 C1527 0.930 . S
C1522 H1508 0.930 . S
C1522 C1520 1.395 . S
C1522 C1525 1.403 . S
C1523 C1520 1.403 . S
C1523 C1524 1.524 . S
C1523 C1527 1.400 . S
C1524 H1509 0.960 . S
C1524 H1510 0.960 . S
C1524 H1511 0.960 . S
C1524 C1523 1.524 . S
C1525 C1522 1.403 . S
C1525 C1526 1.392 . S
C1525 C1529 1.495 . S
C1526 C1525 1.392 . S
C1526 C1527 1.385 . S
C1526 C1528 1.478 . S
C1527 H1521 0.930 . S
C1527 C1523 1.400 . S
C1527 C1526 1.385 . S
C1528 C1526 1.478 . S
C1528 C1530 1.381 . S
C1528 C1534 1.383 . S
C1529 C1525 1.495 . S
C1529 H1535 0.959 . S
C1529 H1536 0.961 . S
C1529 H1537 0.960 . S
C1530 C1528 1.381 . S
C1530 C1531 1.394 . S
C1530 H1538 0.930 . S
C1531 C1530 1.394 . S
C1531 C1532 1.383 . S
C1531 H1539 0.929 . S
C1532 C1531 1.383 . S
C1532 C1533 1.377 . S
C1533 H1517 0.930 . S
C1533 C1532 1.377 . S
C1533 C1534 1.379 . S
C1534 H1518 0.931 . S
C1534 C1528 1.383 . S
C1534 C1533 1.379 . S
H1535 C1529 0.959 . S
H1536 C1529 0.961 . S
H1537 C1529 0.960 . S
H1538 C1530 0.930 . S
H1539 C1531 0.929 . S
H1540 C1548 0.929 . S
H1541 C1550 0.930 . S
H1542 C1552 0.930 . S
H1543 C1555 0.929 . S
H1544 C1558 0.930 . S
H1545 C1560 0.960 . S
H1546 C1560 0.960 . S
H1547 C1560 0.960 . S
C1548 H1540 0.929 . S
C1548 C1549 1.377 . S
C1548 C1550 1.384 . S
C1549 C1548 1.377 . S
C1549 C1555 1.390 . S
C1550 H1541 0.930 . S
C1550 C1548 1.384 . S
C1550 C1551 1.372 . S
C1551 C1550 1.372 . S
C1551 C1552 1.400 . S
C1551 C1556 1.490 . S
C1552 H1542 0.930 . S
C1552 C1551 1.400 . S
C1552 C1555 1.386 . S
H1553 C1569 0.930 . S
H1554 C1570 0.931 . S
C1555 H1543 0.929 . S
C1555 C1549 1.390 . S
C1555 C1552 1.386 . S
C1556 C1551 1.490 . S
C1556 C1558 1.395 . S
C1556 C1559 1.403 . S
H1557 C1563 0.930 . S
C1558 H1544 0.930 . S
C1558 C1556 1.395 . S
C1558 C1561 1.403 . S
C1559 C1556 1.403 . S
C1559 C1560 1.524 . S
C1559 C1563 1.400 . S
C1560 H1545 0.960 . S
C1560 H1546 0.960 . S
C1560 H1547 0.960 . S
C1560 C1559 1.524 . S
C1561 C1558 1.403 . S
C1561 C1562 1.392 . S
C1561 C1565 1.495 . S
C1562 C1561 1.392 . S
C1562 C1563 1.385 . S
C1562 C1564 1.478 . S
C1563 H1557 0.930 . S
C1563 C1559 1.400 . S
C1563 C1562 1.385 . S
C1564 C1562 1.478 . S
C1564 C1566 1.381 . S
C1564 C1570 1.383 . S
C1565 C1561 1.495 . S
C1565 H1571 0.959 . S
C1565 H1572 0.961 . S
C1565 H1573 0.960 . S
C1566 C1564 1.381 . S
C1566 C1567 1.394 . S
C1566 H1574 0.930 . S
C1567 C1566 1.394 . S
C1567 C1568 1.383 . S
C1567 H1575 0.929 . S
C1568 C1567 1.383 . S
C1568 C1569 1.377 . S
C1569 H1553 0.930 . S
C1569 C1568 1.377 . S
C1569 C1570 1.379 . S
C1570 H1554 0.931 . S
C1570 C1564 1.383 . S
C1570 C1569 1.379 . S
H1571 C1565 0.959 . S
H1572 C1565 0.961 . S
H1573 C1565 0.960 . S
H1574 C1566 0.930 . S
H1575 C1567 0.929 . S
H1576 C1584 0.929 . S
H1577 C1586 0.930 . S
H1578 C1588 0.930 . S
H1579 C1591 0.929 . S
H1580 C1594 0.930 . S
H1581 C1596 0.960 . S
H1582 C1596 0.960 . S
H1583 C1596 0.960 . S
C1584 H1576 0.929 . S
C1584 C1585 1.377 . S
C1584 C1586 1.384 . S
C1585 C1584 1.377 . S
C1585 C1591 1.390 . S
C1586 H1577 0.930 . S
C1586 C1584 1.384 . S
C1586 C1587 1.372 . S
C1587 C1586 1.372 . S
C1587 C1588 1.400 . S
C1587 C1592 1.490 . S
C1588 H1578 0.930 . S
C1588 C1587 1.400 . S
C1588 C1591 1.386 . S
H1589 C1605 0.930 . S
H1590 C1606 0.931 . S
C1591 H1579 0.929 . S
C1591 C1585 1.390 . S
C1591 C1588 1.386 . S
C1592 C1587 1.490 . S
C1592 C1594 1.395 . S
C1592 C1595 1.403 . S
H1593 C1599 0.930 . S
C1594 H1580 0.930 . S
C1594 C1592 1.395 . S
C1594 C1597 1.403 . S
C1595 C1592 1.403 . S
C1595 C1596 1.524 . S
C1595 C1599 1.400 . S
C1596 H1581 0.960 . S
C1596 H1582 0.960 . S
C1596 H1583 0.960 . S
C1596 C1595 1.524 . S
C1597 C1594 1.403 . S
C1597 C1598 1.392 . S
C1597 C1601 1.495 . S
C1598 C1597 1.392 . S
C1598 C1599 1.385 . S
C1598 C1600 1.478 . S
C1599 H1593 0.930 . S
C1599 C1595 1.400 . S
C1599 C1598 1.385 . S
C1600 C1598 1.478 . S
C1600 C1602 1.381 . S
C1600 C1606 1.383 . S
C1601 C1597 1.495 . S
C1601 H1607 0.959 . S
C1601 H1608 0.961 . S
C1601 H1609 0.960 . S
C1602 C1600 1.381 . S
C1602 C1603 1.394 . S
C1602 H1610 0.930 . S
C1603 C1602 1.394 . S
C1603 C1604 1.383 . S
C1603 H1611 0.929 . S
C1604 C1603 1.383 . S
C1604 C1605 1.377 . S
C1605 H1589 0.930 . S
C1605 C1604 1.377 . S
C1605 C1606 1.379 . S
C1606 H1590 0.931 . S
C1606 C1600 1.383 . S
C1606 C1605 1.379 . S
H1607 C1601 0.959 . S
H1608 C1601 0.961 . S
H1609 C1601 0.960 . S
H1610 C1602 0.930 . S
H1611 C1603 0.929 . S
H1612 C1620 0.929 . S
H1613 C1622 0.930 . S
H1614 C1624 0.930 . S
H1615 C1627 0.929 . S
H1616 C1630 0.930 . S
H1617 C1632 0.960 . S
H1618 C1632 0.960 . S
H1619 C1632 0.960 . S
C1620 H1612 0.929 . S
C1620 C1621 1.377 . S
C1620 C1622 1.384 . S
C1621 C1620 1.377 . S
C1621 C1627 1.390 . S
C1622 H1613 0.930 . S
C1622 C1620 1.384 . S
C1622 C1623 1.372 . S
C1623 C1622 1.372 . S
C1623 C1624 1.400 . S
C1623 C1628 1.490 . S
C1624 H1614 0.930 . S
C1624 C1623 1.400 . S
C1624 C1627 1.386 . S
H1625 C1641 0.930 . S
H1626 C1642 0.931 . S
C1627 H1615 0.929 . S
C1627 C1621 1.390 . S
C1627 C1624 1.386 . S
C1628 C1623 1.490 . S
C1628 C1630 1.395 . S
C1628 C1631 1.403 . S
H1629 C1635 0.930 . S
C1630 H1616 0.930 . S
C1630 C1628 1.395 . S
C1630 C1633 1.403 . S
C1631 C1628 1.403 . S
C1631 C1632 1.524 . S
C1631 C1635 1.400 . S
C1632 H1617 0.960 . S
C1632 H1618 0.960 . S
C1632 H1619 0.960 . S
C1632 C1631 1.524 . S
C1633 C1630 1.403 . S
C1633 C1634 1.392 . S
C1633 C1637 1.495 . S
C1634 C1633 1.392 . S
C1634 C1635 1.385 . S
C1634 C1636 1.478 . S
C1635 H1629 0.930 . S
C1635 C1631 1.400 . S
C1635 C1634 1.385 . S
C1636 C1634 1.478 . S
C1636 C1638 1.381 . S
C1636 C1642 1.383 . S
C1637 C1633 1.495 . S
C1637 H1643 0.959 . S
C1637 H1644 0.961 . S
C1637 H1645 0.960 . S
C1638 C1636 1.381 . S
C1638 C1639 1.394 . S
C1638 H1646 0.930 . S
C1639 C1638 1.394 . S
C1639 C1640 1.383 . S
C1639 H1647 0.929 . S
C1640 C1639 1.383 . S
C1640 C1641 1.377 . S
C1641 H1625 0.930 . S
C1641 C1640 1.377 . S
C1641 C1642 1.379 . S
C1642 H1626 0.931 . S
C1642 C1636 1.383 . S
C1642 C1641 1.379 . S
H1643 C1637 0.959 . S
H1644 C1637 0.961 . S
H1645 C1637 0.960 . S
H1646 C1638 0.930 . S
H1647 C1639 0.929 . S
C524 C417 1.480 . S
C505 C1 1.493 . S
C541 C68 1.494 . S
C560 C449 1.453 . S
C577 C93 1.496 . S
C596 C472 1.477 . S
C632 C376 1.490 . S
C613 C139 1.495 . S
C668 C459 1.282 . S
C649 C8 1.450 . S
C704 C488 1.300 . S
C685 C61 1.450 . S
C740 C392 1.305 . S
C721 C100 1.449 . S
C776 C427 1.366 . S
C757 C146 1.452 . S
C793 C15 1.452 . S
C812 C455 1.320 . S
C829 C192 1.449 . S
C848 C430 1.294 . S
C865 C107 1.452 . S
C884 C398 1.321 . S
C920 C487 1.363 . S
C901 C238 1.453 . S
C956 C431 1.487 . S
C937 C22 1.499 . S
C973 C185 1.494 . S
C992 C399 1.458 . S
C1009 C114 1.496 . S
C1028 C486 1.496 . S
C1064 C454 1.471 . S
C1045 C231 1.496 . S
C1081 C277 1.496 . S
C1100 C481 1.482 . S
C1117 C206 1.494 . S
C1136 C385 1.454 . S
C1153 C330 1.496 . S
C1172 C408 1.484 . S
C1189 C252 1.495 . S
C1208 C440 1.482 . S
C1244 C395 1.305 . S
C1225 C284 1.455 . S
C1261 C199 1.451 . S
C1280 C424 1.365 . S
C1297 C323 1.452 . S
C1316 C456 1.302 . S
C1352 C491 1.319 . S
C1333 C245 1.452 . S
C1369 C291 1.452 . S
C1388 C391 1.321 . S
C1405 C54 1.451 . S
C1424 C494 1.363 . S
C1441 C344 1.452 . S
C1460 C462 1.363 . S
C1496 C423 1.373 . S
C1477 C153 1.453 . S
C1532 C495 1.453 . S
C1513 C298 1.493 . S
C1568 C463 1.480 . S
C1549 C47 1.493 . S
C1604 C422 1.475 . S
C1585 C337 1.493 . S
C1640 C390 1.486 . S
C1621 C160 1.495 . S
