# Generated by pormake.
# Topology tsx, (6,3)-cn, num edge types: 1
# Building blocks:
#     Node 0, Type 0, BuildingBlock: VOLQOD_clean_sbu_1, # of connection points: 6
#     Node 1, Type 0, BuildingBlock: VOLQOD_clean_sbu_1, # of connection points: 6
#     Node 2, Type 1, BuildingBlock: KAKCAD_clean_linker_0, # of connection points: 3
#     Node 3, Type 1, BuildingBlock: KAKCAD_clean_linker_0, # of connection points: 3
#     Node 4, Type 1, BuildingBlock: KAKCAD_clean_linker_0, # of connection points: 3
#     Node 5, Type 1, BuildingBlock: KAKCAD_clean_linker_0, # of connection points: 3
#     Edge 6, Type (0, 1), BuildingBlock: XIVTED_clean_linker_0, # of connection points: 2
#     Edge 7, Type (0, 1), BuildingBlock: XIVTED_clean_linker_0, # of connection points: 2
#     Edge 8, Type (0, 1), BuildingBlock: XIVTED_clean_linker_0, # of connection points: 2
#     Edge 9, Type (0, 1), BuildingBlock: XIVTED_clean_linker_0, # of connection points: 2
#     Edge 10, Type (0, 1), BuildingBlock: XIVTED_clean_linker_0, # of connection points: 2
#     Edge 11, Type (0, 1), BuildingBlock: XIVTED_clean_linker_0, # of connection points: 2
#     Edge 12, Type (0, 1), BuildingBlock: XIVTED_clean_linker_0, # of connection points: 2
#     Edge 13, Type (0, 1), BuildingBlock: XIVTED_clean_linker_0, # of connection points: 2
#     Edge 14, Type (0, 1), BuildingBlock: XIVTED_clean_linker_0, # of connection points: 2
#     Edge 15, Type (0, 1), BuildingBlock: XIVTED_clean_linker_0, # of connection points: 2
#     Edge 16, Type (0, 1), BuildingBlock: XIVTED_clean_linker_0, # of connection points: 2
#     Edge 17, Type (0, 1), BuildingBlock: XIVTED_clean_linker_0, # of connection points: 2
# Relax obj value: 0.075
# Max RMSD: 0.108
# Mean RMSD: 0.083
data_MOF--net-tsx--node1-VOLQOD_clean_sbu_1--node2-KAKCAD_clean_linker_0--edge1-XIVTED_clean_linker_0
_symmetry_space_group_name_H-M    P1
_symmetry_Int_Tables_number       1
_symmetry_cell_setting            triclinic
loop_
_symmetry_equiv_pos_as_xyz
'x, y, z'
_cell_length_a     25.219588
_cell_length_b     26.108076
_cell_length_c     49.548108
_cell_angle_alpha  90.680391
_cell_angle_beta   90.009261
_cell_angle_gamma 90.178696
loop_
_atom_site_label
_atom_site_type_symbol
_atom_site_fract_x
_atom_site_fract_y
_atom_site_fract_z
_atom_type_partial_charge
O0 O 0.0404 0.99221 0.07425 0.0
Zn1 Zn 0.06058 0.99098 0.03495 0.0
O2 O -0.00103 0.00019 0.01169 0.0
Zn3 Zn 0.99001 0.94009 0.98836 0.0
Zn4 Zn 0.93607 0.00873 0.03419 0.0
Zn5 Zn 0.00908 0.06069 0.98938 0.0
O6 O -0.00638 0.95855 0.94913 0.0
O7 O 0.00982 0.04215 0.94973 0.0
O8 O 0.09673 0.92433 0.02725 0.0
O9 O 0.04683 0.88848 0.99526 0.0
O10 O 0.92071 0.90496 0.99506 0.0
O11 O 0.8835 0.9523 0.02731 0.0
O12 O 0.89939 0.07448 0.02626 0.0
O13 O 0.11404 0.04668 0.02922 0.0
O14 O 0.95018 0.11115 0.99535 0.0
O15 O 0.07757 0.09638 0.99829 0.0
C16 C -0.00311 0.0002 0.08659 0.0
C17 C 0.0024 0.00026 0.93682 0.0
C18 C 0.88255 0.91403 0.01118 0.0
C19 C 0.08646 0.88735 0.01113 0.0
C20 C 0.90943 0.11137 0.01051 0.0
C21 C 0.11543 0.08597 0.01428 0.0
O22 O 0.95404 0.00814 0.07374 0.0
O23 O 0.54235 0.4886 0.57684 0.0
Zn24 Zn 0.56225 0.48683 0.53759 0.0
O25 O 0.50158 0.49945 0.51431 0.0
Zn26 Zn 0.48849 0.43921 0.49123 0.0
Zn27 Zn 0.43973 0.51199 0.53686 0.0
Zn28 Zn 0.51573 0.55971 0.49215 0.0
O29 O 0.49222 0.4582 0.45204 0.0
O30 O 0.51611 0.54021 0.45272 0.0
O31 O 0.59578 0.41913 0.52905 0.0
O32 O 0.54408 0.38517 0.49725 0.0
O33 O 0.41686 0.40736 0.49847 0.0
O34 O 0.38435 0.45866 0.53034 0.0
O35 O 0.40649 0.57944 0.52861 0.0
O36 O 0.61782 0.54041 0.53268 0.0
O37 O 0.45865 0.61309 0.49735 0.0
O38 O 0.58644 0.59215 0.50131 0.0
C39 C 0.49937 0.4989 0.58917 0.0
C40 C 0.50486 0.49911 0.4398 0.0
C41 C 0.37996 0.4198 0.51479 0.0
C42 C 0.58429 0.38276 0.51274 0.0
C43 C 0.41786 0.61539 0.51248 0.0
C44 C 0.62262 0.57964 0.5179 0.0
O45 O 0.45716 0.50955 0.57636 0.0
C46 C 0.00185 0.94562 0.30287 0.0
C47 C -0.00578 0.9916 0.28898 0.0
C48 C 0.00119 0.94507 0.33106 0.0
C49 C -0.00665 0.9906 0.34598 0.0
C50 C 0.9859 0.03662 0.332 0.0
C51 C 0.98609 0.03705 0.30382 0.0
C52 C -0.00677 0.99022 0.37598 0.0
C53 C 0.02895 0.95926 0.39015 0.0
C54 C 0.02959 0.9595 0.41848 0.0
C55 C -0.00608 0.99061 0.4328 0.0
C56 C 0.95794 0.02155 0.41897 0.0
C57 C 0.9578 0.02127 0.39065 0.0
C58 C 0.92066 0.05468 0.434 0.0
C59 C 0.88688 0.03405 0.45364 0.0
C60 C 0.91799 0.1071 0.42829 0.0
C61 C 0.88189 0.13844 0.44189 0.0
C62 C 0.84726 0.11772 0.46111 0.0
C63 C 0.06836 0.92781 0.43301 0.0
C64 C 0.07256 0.87532 0.42704 0.0
C65 C 0.10229 0.95009 0.45236 0.0
C66 C 0.14076 0.92046 0.46509 0.0
C67 C 0.14504 0.86797 0.45904 0.0
C68 C 0.11029 0.84555 0.44012 0.0
C69 C 0.85 0.06528 0.46691 0.0
H70 H 0.00755 0.9099 0.29192 0.0
H71 H 0.00616 0.90883 0.34114 0.0
H72 H 0.98074 0.07254 0.34281 0.0
H73 H 0.98082 0.07316 0.29363 0.0
H74 H 0.05749 0.93604 0.3792 0.0
H75 H 0.92921 0.0446 0.38008 0.0
H76 H -0.00566 0.99095 0.45469 0.0
H77 H 0.88823 -0.00639 0.45824 0.0
H78 H 0.94387 0.1238 0.4133 0.0
H79 H 0.88014 0.1787 0.4369 0.0
H80 H 0.04663 0.85738 0.41225 0.0
H81 H 0.09985 0.99061 0.45714 0.0
H82 H 0.82369 0.04856 0.4817 0.0
H83 H 0.11317 0.8052 0.43498 0.0
H84 H 0.16709 0.93847 0.47967 0.0
C85 C -0.00343 0.04457 0.71953 0.0
C86 C 0.01163 0.00099 0.73404 0.0
C87 C -0.0034 0.04378 0.69133 0.0
C88 C 0.01151 -0.00064 0.677 0.0
C89 C 0.02671 0.95583 0.69146 0.0
C90 C 0.02687 0.95666 0.71966 0.0
C91 C 0.01095 -0.00166 0.64705 0.0
C92 C 0.03079 0.04 0.63244 0.0
C93 C 0.03051 0.03907 0.60412 0.0
C94 C 0.00933 -0.00338 0.59029 0.0
C95 C 0.98874 0.95506 0.60458 0.0
C96 C 0.9902 0.95583 0.63291 0.0
C97 C 0.96326 0.91192 0.59002 0.0
C98 C 0.92332 0.92134 0.57103 0.0
C99 C 0.97664 0.86123 0.59602 0.0
C100 C 0.9493 0.82053 0.58383 0.0
C101 C 0.90734 0.82979 0.56581 0.0
C102 C 0.05378 0.08195 0.58902 0.0
C103 C 0.03777 0.1324 0.59442 0.0
C104 C 0.09381 0.07272 0.56996 0.0
C105 C 0.11935 0.11354 0.55744 0.0
C106 C 0.10473 0.16441 0.56344 0.0
C107 C 0.0626 0.17322 0.58154 0.0
C108 C 0.89539 0.88073 0.55917 0.0
H109 H 0.9838 0.07907 0.72995 0.0
H110 H 0.98399 0.0777 0.68074 0.0
H111 H 0.03915 0.92127 0.68097 0.0
H112 H 0.03957 0.92271 0.73018 0.0
H113 H 0.04792 0.07259 0.64308 0.0
H114 H 0.97337 0.92408 0.64396 0.0
H115 H 0.00863 -0.00395 0.5684 0.0
H116 H 0.91208 0.96022 0.56625 0.0
H117 H 0.00786 0.85313 0.61036 0.0
H118 H 0.96044 0.78183 0.58896 0.0
H119 H 0.00639 0.14023 0.60881 0.0
H120 H 0.10689 0.034 0.56561 0.0
H121 H 0.86287 0.88952 0.54575 0.0
H122 H 0.04936 0.21174 0.58618 0.0
H123 H 0.15208 0.10513 0.54398 0.0
C124 C 0.47852 0.44315 0.80453 0.0
C125 C 0.48716 0.48934 0.79095 0.0
C126 C 0.47816 0.44227 0.8327 0.0
C127 C 0.48545 0.48771 0.8477 0.0
C128 C 0.49352 0.53397 0.83411 0.0
C129 C 0.49482 0.53471 0.80595 0.0
C130 C 0.48503 0.48692 0.87748 0.0
C131 C 0.51749 0.45261 0.89142 0.0
C132 C 0.51868 0.45316 0.91973 0.0
C133 C 0.48579 0.48689 0.93409 0.0
C134 C 0.45267 0.52075 0.92039 0.0
C135 C 0.45293 0.52116 0.89209 0.0
C136 C 0.41786 0.55568 0.93575 0.0
C137 C 0.38487 0.53662 0.95617 0.0
C138 C 0.41729 0.60814 0.93001 0.0
C139 C 0.38389 0.64106 0.94434 0.0
C140 C 0.35008 0.62188 0.96437 0.0
C141 C 0.55589 0.42012 0.93438 0.0
C142 C 0.55887 0.36762 0.9283 0.0
C143 C 0.5894 0.44136 0.95423 0.0
C144 C 0.62616 0.41072 0.96741 0.0
C145 C 0.62943 0.35828 0.9612 0.0
C146 C 0.59514 0.33682 0.94176 0.0
C147 C 0.35089 0.56945 0.97024 0.0
H148 H 0.4728 0.40766 0.79334 0.0
H149 H 0.47167 0.4062 0.8428 0.0
H150 H 0.49953 0.56943 0.84529 0.0
H151 H 0.50126 0.57081 0.79588 0.0
H152 H 0.54336 0.42694 0.88022 0.0
H153 H 0.42725 0.54729 0.88141 0.0
H154 H 0.48633 0.48711 0.95598 0.0
H155 H 0.3846 0.49618 0.96084 0.0
H156 H 0.44274 0.62364 0.91448 0.0
H157 H 0.38345 0.6813 0.93926 0.0
H158 H 0.53319 0.35047 0.91314 0.0
H159 H 0.58795 0.4819 0.9591 0.0
H160 H 0.32513 0.5539 0.98563 0.0
H161 H 0.59738 0.2965 0.93647 0.0
H162 H 0.65218 0.42799 0.98238 0.0
C163 C 0.50737 0.53872 0.22299 0.0
C164 C 0.51443 0.49292 0.23719 0.0
C165 C 0.5078 0.53868 0.19482 0.0
C166 C 0.51504 0.4928 0.1802 0.0
C167 C 0.52223 0.44702 0.19433 0.0
C168 C 0.52206 0.44708 0.22252 0.0
C169 C 0.5145 0.49268 0.15029 0.0
C170 C 0.54207 0.53048 0.13603 0.0
C171 C 0.54082 0.5313 0.1077 0.0
C172 C 0.51202 0.49339 0.09368 0.0
C173 C 0.48428 0.45523 0.10758 0.0
C174 C 0.48569 0.45523 0.13593 0.0
C175 C 0.45288 0.41615 0.0925 0.0
C176 C 0.42398 0.42965 0.06938 0.0
C177 C 0.45099 0.36522 0.10128 0.0
C178 C 0.4198 0.32897 0.08773 0.0
C179 C 0.39024 0.34265 0.06486 0.0
C180 C 0.56909 0.57196 0.09269 0.0
C181 C 0.56968 0.62265 0.10253 0.0
C182 C 0.59536 0.5605 0.06834 0.0
C183 C 0.62183 0.59879 0.05424 0.0
C184 C 0.62332 0.6493 0.06436 0.0
C185 C 0.59673 0.6608 0.08862 0.0
C186 C 0.39336 0.39325 0.05561 0.0
H187 H 0.5005 0.57456 0.23364 0.0
H188 H 0.50143 0.57443 0.18445 0.0
H189 H 0.52857 0.41119 0.18357 0.0
H190 H 0.52851 0.41127 0.2328 0.0
H191 H 0.56534 0.55873 0.14706 0.0
H192 H 0.46299 0.42701 0.14693 0.0
H193 H 0.5109 0.49378 0.07184 0.0
H194 H 0.42399 0.46866 0.06219 0.0
H195 H 0.47342 0.35332 0.11875 0.0
H196 H 0.41782 0.29057 0.09568 0.0
H197 H 0.54914 0.63299 0.12099 0.0
H198 H 0.5962 0.52176 0.06031 0.0
H199 H 0.37174 0.40499 0.03786 0.0
H200 H 0.5977 0.69907 0.09726 0.0
H201 H 0.64132 0.58866 0.03546 0.0
H202 H 0.21225 0.06795 0.03703 0.0
H203 H 0.29179 0.36001 0.04334 0.0
H204 H 0.12184 0.18489 0.99694 0.0
H205 H 0.40537 0.23931 0.05667 0.0
H206 H 0.22937 0.29666 0.02579 0.0
H207 H 0.28374 0.12983 0.04445 0.0
C208 C 0.2076 0.10654 0.02962 0.0
C209 C 0.16082 0.12148 0.0166 0.0
C210 C 0.2682 0.28413 0.03226 0.0
C211 C 0.2422 0.19241 0.02519 0.0
C212 C 0.30409 0.32035 0.04217 0.0
C213 C 0.35394 0.30504 0.05175 0.0
C214 C 0.28182 0.23209 0.03229 0.0
C215 C 0.36698 0.25281 0.05013 0.0
C216 C 0.24851 0.14174 0.03375 0.0
C217 C 0.15714 0.17181 0.00717 0.0
N218 N 0.33088 0.21812 0.04092 0.0
N219 N 0.19704 0.20571 0.01198 0.0
H220 H 0.06783 0.79307 0.98848 0.0
H221 H 0.36954 0.71508 0.9879 0.0
H222 H 0.18753 0.88132 0.03079 0.0
H223 H 0.24397 0.60689 0.97087 0.0
H224 H 0.30364 0.77608 0.00484 0.0
H225 H 0.13138 0.72348 0.98272 0.0
C226 C 0.10737 0.79764 0.99674 0.0
C227 C 0.12267 0.84324 0.00984 0.0
C228 C 0.29058 0.7387 0.99779 0.0
C229 C 0.19552 0.76403 0.00318 0.0
C230 C 0.32808 0.7041 0.98804 0.0
C231 C 0.31189 0.65628 0.97783 0.0
C232 C 0.23656 0.7256 0.99682 0.0
C233 C 0.25791 0.64345 0.97864 0.0
C234 C 0.14351 0.75782 0.99357 0.0
C235 C 0.17418 0.8469 0.02042 0.0
N236 N 0.22198 0.67828 0.9876 0.0
N237 N 0.20907 0.80805 0.01651 0.0
H238 H 0.87698 0.81752 0.98927 0.0
H239 H 0.59996 0.75149 0.05879 0.0
H240 H 0.78687 0.92692 0.03641 0.0
H241 H 0.71875 0.63854 0.03841 0.0
H242 H 0.65769 0.81805 0.04056 0.0
H243 H 0.80759 0.75374 0.99668 0.0
C244 C 0.84229 0.82838 0.00086 0.0
C245 C 0.83805 0.87738 0.0126 0.0
C246 C 0.67067 0.77855 0.03986 0.0
C247 C 0.75873 0.80468 0.02105 0.0
C248 C 0.63798 0.74057 0.0504 0.0
C249 C 0.65478 0.68931 0.05053 0.0
C250 C 0.72024 0.76512 0.02915 0.0
C251 C 0.70383 0.67735 0.03863 0.0
C252 C 0.80285 0.79191 0.00514 0.0
C253 C 0.79209 0.88936 0.02732 0.0
N254 N 0.73497 0.71504 0.02859 0.0
N255 N 0.75431 0.85309 0.0313 0.0
H256 H 0.92284 0.20395 0.98597 0.0
H257 H 0.61643 0.26535 0.98493 0.0
H258 H 0.80828 0.11464 0.03018 0.0
H259 H 0.73504 0.37866 0.96584 0.0
H260 H 0.68629 0.20937 0.00187 0.0
H261 H 0.85513 0.26905 0.97864 0.0
C262 C 0.88362 0.19825 0.99434 0.0
C263 C 0.871 0.15356 0.00844 0.0
C264 C 0.69697 0.24675 0.99431 0.0
C265 C 0.79345 0.22752 -5e-05 0.0
C266 C 0.65722 0.27847 0.98454 0.0
C267 C 0.67028 0.32633 0.97389 0.0
C268 C 0.75011 0.26277 0.99291 0.0
C269 C 0.72351 0.34199 0.974 0.0
C270 C 0.84507 0.23549 0.99024 0.0
C271 C 0.81968 0.14838 0.01906 0.0
N272 N 0.76168 0.30994 0.98304 0.0
N273 N 0.78254 0.18461 0.01427 0.0
H274 H 0.65089 0.6652 0.48928 0.0
H275 H 0.87699 0.74367 0.59291 0.0
H276 H 0.70306 0.56848 0.5542 0.0
H277 H 0.85868 0.8186 0.51617 0.0
H278 H 0.81422 0.67843 0.57829 0.0
H279 H 0.72672 0.72185 0.49805 0.0
C280 C 0.67841 0.65564 0.50521 0.0
C281 C 0.67023 0.61229 0.52121 0.0
C282 C 0.82433 0.70882 0.5645 0.0
C283 C 0.75668 0.67692 0.53137 0.0
C284 C 0.86064 0.74604 0.57276 0.0
C285 C 0.87324 0.78706 0.55582 0.0
C286 C 0.7996 0.71283 0.53924 0.0
C287 C 0.84944 0.78834 0.53016 0.0
C288 C 0.72174 0.6879 0.51014 0.0
C289 C 0.70741 0.60163 0.54147 0.0
N290 N 0.81329 0.75209 0.52276 0.0
N291 N 0.74863 0.63398 0.54612 0.0
H292 H 0.68371 0.37339 0.53413 0.0
H293 H 0.74061 0.10102 0.46492 0.0
H294 H 0.56762 0.29137 0.48609 0.0
H295 H 0.86302 0.20972 0.48647 0.0
H296 H 0.6737 0.16121 0.48212 0.0
H297 H 0.74652 0.30386 0.52626 0.0
C298 C 0.67115 0.34052 0.52219 0.0
C299 C 0.62048 0.3385 0.51047 0.0
C300 C 0.71526 0.17156 0.48332 0.0
C301 C 0.69224 0.25884 0.50149 0.0
C302 C 0.75334 0.13723 0.47369 0.0
C303 C 0.80717 0.15081 0.47416 0.0
C304 C 0.73139 0.21935 0.49375 0.0
C305 C 0.82177 0.1982 0.48552 0.0
C306 C 0.70713 0.30096 0.51765 0.0
C307 C 0.60646 0.2948 0.49525 0.0
N308 N 0.78405 0.23089 0.49482 0.0
N309 N 0.64228 0.25674 0.49108 0.0
H310 H 0.35504 0.33182 0.48628 0.0
H311 H 0.12993 0.25477 0.58913 0.0
H312 H 0.29615 0.43304 0.54897 0.0
H313 H 0.15278 0.17324 0.51361 0.0
H314 H 0.18895 0.32161 0.57355 0.0
H315 H 0.28034 0.27396 0.49464 0.0
C316 C 0.3262 0.34217 0.50158 0.0
C317 C 0.33234 0.38702 0.51721 0.0
C318 C 0.18061 0.28942 0.56021 0.0
C319 C 0.24723 0.32101 0.52692 0.0
C320 C 0.14643 0.25122 0.56903 0.0
C321 C 0.13629 0.20789 0.55276 0.0
C322 C 0.20578 0.28412 0.53509 0.0
C323 C 0.16022 0.20531 0.52713 0.0
C324 C 0.28354 0.30919 0.50629 0.0
C325 C 0.29351 0.39865 0.53662 0.0
N326 N 0.1944 0.24259 0.51921 0.0
N327 N 0.25304 0.36558 0.54112 0.0
H328 H 0.31847 0.62401 0.53402 0.0
H329 H 0.25123 0.88805 0.46191 0.0
H330 H 0.43152 0.70486 0.48461 0.0
H331 H 0.13317 0.77663 0.48444 0.0
H332 H 0.32057 0.83131 0.4792 0.0
H333 H 0.25327 0.69052 0.52517 0.0
C334 C 0.32989 0.65604 0.52157 0.0
C335 C 0.38044 0.65852 0.50977 0.0
C336 C 0.27943 0.8196 0.48056 0.0
C337 C 0.30582 0.73475 0.49964 0.0
C338 C 0.23997 0.85196 0.47087 0.0
C339 C 0.18666 0.83663 0.47165 0.0
C340 C 0.26518 0.77208 0.49141 0.0
C341 C 0.17396 0.78946 0.48325 0.0
C342 C 0.29251 0.69386 0.51647 0.0
C343 C 0.39287 0.70112 0.49389 0.0
N344 N 0.21299 0.75877 0.49266 0.0
N345 N 0.35567 0.7375 0.48917 0.0
H346 H 0.91632 0.03007 0.12034 0.0
H347 H 0.06494 0.94484 0.25492 0.0
H348 H 0.07525 0.96892 0.12093 0.0
H349 H 0.92524 0.03982 0.25513 0.0
H350 H 0.06567 0.94678 0.20556 0.0
H351 H 0.91542 0.0279 0.16962 0.0
C352 C 0.95104 0.01617 0.1308 0.0
C353 C -0.00404 -0.00032 0.11645 0.0
C354 C 0.03491 0.96726 0.21641 0.0
C355 C -0.00498 -0.00311 0.17286 0.0
C356 C 0.03429 0.96589 0.24454 0.0
C357 C -0.00502 0.99223 0.25909 0.0
C358 C -0.00437 -0.00525 0.20271 0.0
C359 C 0.95655 0.01941 0.24467 0.0
C360 C 0.95052 0.01508 0.15895 0.0
C361 C 0.03981 0.98217 0.13114 0.0
N362 N 0.95771 0.01981 0.21726 0.0
N363 N 0.03815 0.98105 0.15853 0.0
H364 H 0.98218 0.91979 0.90229 0.0
H365 H 0.04189 0.07889 0.76854 0.0
H366 H 0.02619 0.07982 0.90311 0.0
H367 H 0.97994 0.92452 0.76802 0.0
H368 H 0.03954 0.0792 0.81783 0.0
H369 H 0.98484 0.91991 0.85309 0.0
C370 C -0.00756 0.95499 0.89216 0.0
C371 C 0.00395 -0.0001 0.90693 0.0
C372 C 0.02646 0.04527 0.80692 0.0
C373 C 0.0071 0.00021 0.85046 0.0
C374 C 0.02753 0.04514 0.77876 0.0
C375 C 0.01104 0.00161 0.76404 0.0
C376 C 0.00889 0.00151 0.82055 0.0
C377 C -0.00627 0.95868 0.77846 0.0
C378 C -0.00612 0.95502 0.86402 0.0
C379 C 0.01694 0.04432 0.8926 0.0
N380 N -0.00689 0.95974 0.80587 0.0
N381 N 0.01822 0.04333 0.86517 0.0
H382 H 0.58333 0.50626 0.62396 0.0
H383 H 0.41424 0.44938 0.7558 0.0
H384 H 0.41302 0.48908 0.62209 0.0
H385 H 0.56299 0.5312 0.75866 0.0
H386 H 0.417 0.45175 0.70633 0.0
H387 H 0.58051 0.50392 0.67332 0.0
C388 C 0.54538 0.50191 0.63393 0.0
C389 C 0.49831 0.49795 0.61894 0.0
C390 C 0.44894 0.46924 0.71783 0.0
C391 C 0.49497 0.49475 0.67521 0.0
C392 C 0.44753 0.46764 0.74594 0.0
C393 C 0.48841 0.49022 0.76116 0.0
C394 C 0.49202 0.49277 0.70494 0.0
C395 C 0.53054 0.51373 0.74755 0.0
C396 C 0.54382 0.5008 0.66205 0.0
C397 C 0.45021 0.49256 0.63289 0.0
N398 N 0.53146 0.51413 0.72015 0.0
N399 N 0.4498 0.49076 0.66027 0.0
H400 H 0.53895 0.5756 0.40649 0.0
H401 H 0.46955 0.42162 0.27049 0.0
H402 H 0.47492 0.42193 0.40498 0.0
H403 H 0.55663 0.5643 0.27228 0.0
H404 H 0.46785 0.42262 0.31974 0.0
H405 H 0.54175 0.57404 0.35724 0.0
C406 C 0.52543 0.54153 0.39584 0.0
C407 C 0.50667 0.49881 0.40995 0.0
C408 C 0.48741 0.45367 0.30935 0.0
C409 C 0.50974 0.49686 0.35351 0.0
C410 C 0.48867 0.45299 0.28121 0.0
C411 C 0.51334 0.49291 0.26716 0.0
C412 C 0.51077 0.49468 0.32362 0.0
C413 C 0.53652 0.53306 0.2822 0.0
C414 C 0.52716 0.54065 0.3677 0.0
C415 C 0.48977 0.45573 0.395 0.0
N416 N 0.53461 0.53294 0.3096 0.0
N417 N 0.49162 0.45591 0.3676 0.0
loop_
_geom_bond_atom_site_label_1
_geom_bond_atom_site_label_2
_geom_bond_distance
_geom_bond_site_symmetry_2
_ccdc_geom_bond_type
O0 Zn1 1.953 . S
O0 C16 1.225 1_565 S
Zn1 O0 1.953 . S
Zn1 O2 1.949 1_565 S
Zn1 O8 1.919 . S
Zn1 O13 1.924 1_565 S
O2 Zn1 1.949 1_545 S
O2 Zn3 1.923 1_444 S
O2 Zn4 1.950 1_455 S
O2 Zn5 1.945 1_554 S
Zn3 O2 1.923 1_666 S
Zn3 O6 1.933 . S
Zn3 O9 1.941 1_655 S
Zn3 O10 1.957 1_556 S
Zn4 O2 1.950 1_655 S
Zn4 O11 1.938 1_545 S
Zn4 O12 1.906 . S
Zn4 O22 1.953 . S
Zn5 O2 1.945 1_556 S
Zn5 O7 1.932 . S
Zn5 O14 1.977 1_455 S
Zn5 O15 1.910 1_556 S
O6 Zn3 1.933 . S
O6 C17 1.226 1_665 S
O7 Zn5 1.932 . S
O7 C17 1.307 . S
O8 Zn1 1.919 . S
O8 C19 1.253 . S
O9 Zn3 1.941 1_455 S
O9 C19 1.283 1_556 S
O10 Zn3 1.957 1_554 S
O10 C18 1.332 . S
O11 Zn4 1.938 1_565 S
O11 C18 1.247 . S
O12 Zn4 1.906 . S
O12 C20 1.304 . S
O13 Zn1 1.924 1_545 S
O13 C21 1.311 . S
O14 Zn5 1.977 1_655 S
O14 C20 1.272 1_556 S
O15 Zn5 1.910 1_554 S
O15 C21 1.231 . S
C16 O0 1.225 1_545 S
C16 O22 1.298 1_455 S
C17 O6 1.226 1_445 S
C17 O7 1.307 . S
C18 O10 1.332 . S
C18 O11 1.247 . S
C19 O8 1.253 . S
C19 O9 1.283 1_554 S
C20 O12 1.304 . S
C20 O14 1.272 1_554 S
C21 O13 1.311 . S
C21 O15 1.231 . S
O22 Zn4 1.953 . S
O22 C16 1.298 1_655 S
O23 Zn24 1.953 . S
O23 C39 1.225 . S
Zn24 O23 1.953 . S
Zn24 O25 1.949 . S
Zn24 O31 1.919 . S
Zn24 O36 1.924 . S
O25 Zn24 1.949 . S
O25 Zn26 1.923 . S
O25 Zn27 1.950 . S
O25 Zn28 1.945 . S
Zn26 O25 1.923 . S
Zn26 O29 1.933 . S
Zn26 O32 1.941 . S
Zn26 O33 1.965 . S
Zn27 O25 1.950 . S
Zn27 O34 1.938 . S
Zn27 O35 1.906 . S
Zn27 O45 1.953 . S
Zn28 O25 1.945 . S
Zn28 O30 1.932 . S
Zn28 O37 1.977 . S
Zn28 O38 1.910 . S
O29 Zn26 1.933 . S
O29 C40 1.226 . S
O30 Zn28 1.932 . S
O30 C40 1.307 . S
O31 Zn24 1.919 . S
O31 C42 1.253 . S
O32 Zn26 1.941 . S
O32 C42 1.283 . S
O33 Zn26 1.965 . S
O33 C41 1.303 . S
O34 Zn27 1.938 . S
O34 C41 1.247 . S
O35 Zn27 1.906 . S
O35 C43 1.304 . S
O36 Zn24 1.924 . S
O36 C44 1.311 . S
O37 Zn28 1.977 . S
O37 C43 1.272 . S
O38 Zn28 1.910 . S
O38 C44 1.231 . S
C39 O23 1.225 . S
C39 O45 1.298 . S
C40 O29 1.226 . S
C40 O30 1.307 . S
C41 O33 1.303 . S
C41 O34 1.247 . S
C42 O31 1.253 . S
C42 O32 1.283 . S
C43 O35 1.304 . S
C43 O37 1.272 . S
C44 O36 1.311 . S
C44 O38 1.231 . S
O45 Zn27 1.953 . S
O45 C39 1.298 . S
C46 C47 1.391 1_455 S
C46 C48 1.397 . S
C46 H70 0.931 . S
C47 C46 1.391 1_655 S
C47 C51 1.392 1_665 S
C48 C46 1.397 . S
C48 C49 1.384 . S
C48 H71 0.930 . S
C49 C48 1.384 . S
C49 C50 1.377 1_565 S
C49 C52 1.481 . S
C50 C49 1.377 1_545 S
C50 C51 1.389 . S
C50 H72 0.929 . S
C51 C47 1.392 1_445 S
C51 C50 1.389 . S
C51 H73 0.931 . S
C52 C49 1.481 . S
C52 C53 1.394 . S
C52 C57 1.383 1_465 S
C53 C52 1.394 . S
C53 C54 1.401 . S
C53 H74 0.930 . S
C54 C53 1.401 . S
C54 C55 1.366 1_455 S
C54 C63 1.511 . S
C55 C54 1.366 1_655 S
C55 C56 1.402 1_565 S
C55 H76 0.932 . S
C56 C55 1.402 1_545 S
C56 C57 1.361 . S
C56 C58 1.500 . S
C57 C52 1.383 1_645 S
C57 C56 1.361 . S
C57 H75 0.931 . S
C58 C56 1.500 . S
C58 C59 1.371 . S
C58 C60 1.365 . S
C59 C58 1.371 . S
C59 C69 1.386 . S
C59 H77 0.931 . S
C60 C58 1.365 . S
C60 C61 1.409 . S
C60 H78 0.929 . S
C61 C60 1.409 . S
C61 C62 1.380 . S
C61 H79 0.930 . S
C62 C61 1.380 . S
C62 C69 1.357 . S
C63 C54 1.511 . S
C63 C64 1.341 . S
C63 C65 1.371 . S
C64 C63 1.341 . S
C64 C68 1.394 . S
C64 H80 0.930 . S
C65 C63 1.371 . S
C65 C66 1.392 . S
C65 H81 0.931 . S
C66 C65 1.392 . S
C66 C67 1.331 . S
C66 H84 0.932 . S
C67 C66 1.331 . S
C67 C68 1.336 . S
C68 C64 1.394 . S
C68 C67 1.336 . S
C68 H83 0.929 . S
C69 C59 1.386 . S
C69 C62 1.357 . S
C69 H82 0.928 . S
H70 C46 0.931 . S
H71 C48 0.930 . S
H72 C50 0.929 . S
H73 C51 0.931 . S
H74 C53 0.930 . S
H75 C57 0.931 . S
H76 C55 0.932 . S
H77 C59 0.931 . S
H78 C60 0.929 . S
H79 C61 0.930 . S
H80 C64 0.930 . S
H81 C65 0.931 . S
H82 C69 0.928 . S
H83 C68 0.929 . S
H84 C66 0.932 . S
C85 C86 1.386 . S
C85 C87 1.397 . S
C85 H109 0.931 . S
C86 C85 1.386 . S
C86 C90 1.397 1_545 S
C87 C85 1.397 . S
C87 C88 1.384 . S
C87 H110 0.930 . S
C88 C87 1.384 . S
C88 C89 1.377 1_545 S
C88 C91 1.481 . S
C89 C88 1.377 1_565 S
C89 C90 1.389 . S
C89 H111 0.929 . S
C90 C86 1.397 1_565 S
C90 C89 1.389 . S
C90 H112 0.931 . S
C91 C88 1.481 . S
C91 C92 1.387 . S
C91 C96 1.390 1_445 S
C92 C91 1.387 . S
C92 C93 1.401 . S
C92 H113 0.930 . S
C93 C92 1.401 . S
C93 C94 1.376 . S
C93 C102 1.511 . S
C94 C93 1.376 . S
C94 C95 1.392 1_445 S
C94 H115 0.931 . S
C95 C94 1.392 1_665 S
C95 C96 1.361 . S
C95 C97 1.500 . S
C96 C91 1.390 1_665 S
C96 C95 1.361 . S
C96 H114 0.931 . S
C97 C95 1.500 . S
C97 C98 1.371 . S
C97 C99 1.365 . S
C98 C97 1.371 . S
C98 C108 1.386 . S
C98 H116 0.931 . S
C99 C97 1.365 . S
C99 C100 1.409 . S
C99 H117 0.929 . S
C100 C99 1.409 . S
C100 C101 1.380 . S
C100 H118 0.930 . S
C101 C100 1.380 . S
C101 C108 1.357 . S
C102 C93 1.511 . S
C102 C103 1.341 . S
C102 C104 1.371 . S
C103 C102 1.341 . S
C103 C107 1.394 . S
C103 H119 0.930 . S
C104 C102 1.371 . S
C104 C105 1.392 . S
C104 H120 0.931 . S
C105 C104 1.392 . S
C105 C106 1.331 . S
C105 H123 0.932 . S
C106 C105 1.331 . S
C106 C107 1.336 . S
C107 C103 1.394 . S
C107 C106 1.336 . S
C107 H122 0.929 . S
C108 C98 1.386 . S
C108 C101 1.357 . S
C108 H121 0.928 . S
H109 C85 0.931 . S
H110 C87 0.930 . S
H111 C89 0.929 . S
H112 C90 0.931 . S
H113 C92 0.930 . S
H114 C96 0.931 . S
H115 C94 0.931 . S
H116 C98 0.931 . S
H117 C99 0.929 . S
H118 C100 0.930 . S
H119 C103 0.930 . S
H120 C104 0.931 . S
H121 C108 0.928 . S
H122 C107 0.929 . S
H123 C105 0.932 . S
C124 C125 1.386 . S
C124 C126 1.397 . S
C124 H148 0.931 . S
C125 C124 1.386 . S
C125 C129 1.397 . S
C126 C124 1.397 . S
C126 C127 1.384 . S
C126 H149 0.930 . S
C127 C126 1.384 . S
C127 C128 1.377 . S
C127 C130 1.481 . S
C128 C127 1.377 . S
C128 C129 1.389 . S
C128 H150 0.929 . S
C129 C125 1.397 . S
C129 C128 1.389 . S
C129 H151 0.931 . S
C130 C127 1.481 . S
C130 C131 1.387 . S
C130 C135 1.390 . S
C131 C130 1.387 . S
C131 C132 1.401 . S
C131 H152 0.930 . S
C132 C131 1.401 . S
C132 C133 1.376 . S
C132 C141 1.511 . S
C133 C132 1.376 . S
C133 C134 1.392 . S
C133 H154 0.931 . S
C134 C133 1.392 . S
C134 C135 1.361 . S
C134 C136 1.500 . S
C135 C130 1.390 . S
C135 C134 1.361 . S
C135 H153 0.931 . S
C136 C134 1.500 . S
C136 C137 1.371 . S
C136 C138 1.365 . S
C137 C136 1.371 . S
C137 C147 1.386 . S
C137 H155 0.931 . S
C138 C136 1.365 . S
C138 C139 1.409 . S
C138 H156 0.929 . S
C139 C138 1.409 . S
C139 C140 1.380 . S
C139 H157 0.930 . S
C140 C139 1.380 . S
C140 C147 1.357 . S
C141 C132 1.511 . S
C141 C142 1.341 . S
C141 C143 1.371 . S
C142 C141 1.341 . S
C142 C146 1.394 . S
C142 H158 0.930 . S
C143 C141 1.371 . S
C143 C144 1.392 . S
C143 H159 0.931 . S
C144 C143 1.392 . S
C144 C145 1.331 . S
C144 H162 0.932 . S
C145 C144 1.331 . S
C145 C146 1.336 . S
C146 C142 1.394 . S
C146 C145 1.336 . S
C146 H161 0.929 . S
C147 C137 1.386 . S
C147 C140 1.357 . S
C147 H160 0.928 . S
H148 C124 0.931 . S
H149 C126 0.930 . S
H150 C128 0.929 . S
H151 C129 0.931 . S
H152 C131 0.930 . S
H153 C135 0.931 . S
H154 C133 0.931 . S
H155 C137 0.931 . S
H156 C138 0.929 . S
H157 C139 0.930 . S
H158 C142 0.930 . S
H159 C143 0.931 . S
H160 C147 0.928 . S
H161 C146 0.929 . S
H162 C144 0.932 . S
C163 C164 1.386 . S
C163 C165 1.397 . S
C163 H187 0.931 . S
C164 C163 1.386 . S
C164 C168 1.397 . S
C165 C163 1.397 . S
C165 C166 1.384 . S
C165 H188 0.930 . S
C166 C165 1.384 . S
C166 C167 1.377 . S
C166 C169 1.481 . S
C167 C166 1.377 . S
C167 C168 1.389 . S
C167 H189 0.929 . S
C168 C164 1.397 . S
C168 C167 1.389 . S
C168 H190 0.931 . S
C169 C166 1.481 . S
C169 C170 1.387 . S
C169 C174 1.390 . S
C170 C169 1.387 . S
C170 C171 1.401 . S
C170 H191 0.930 . S
C171 C170 1.401 . S
C171 C172 1.376 . S
C171 C180 1.511 . S
C172 C171 1.376 . S
C172 C173 1.392 . S
C172 H193 0.931 . S
C173 C172 1.392 . S
C173 C174 1.361 . S
C173 C175 1.500 . S
C174 C169 1.390 . S
C174 C173 1.361 . S
C174 H192 0.931 . S
C175 C173 1.500 . S
C175 C176 1.371 . S
C175 C177 1.365 . S
C176 C175 1.371 . S
C176 C186 1.386 . S
C176 H194 0.931 . S
C177 C175 1.365 . S
C177 C178 1.409 . S
C177 H195 0.929 . S
C178 C177 1.409 . S
C178 C179 1.380 . S
C178 H196 0.930 . S
C179 C178 1.380 . S
C179 C186 1.357 . S
C180 C171 1.511 . S
C180 C181 1.341 . S
C180 C182 1.371 . S
C181 C180 1.341 . S
C181 C185 1.394 . S
C181 H197 0.930 . S
C182 C180 1.371 . S
C182 C183 1.392 . S
C182 H198 0.931 . S
C183 C182 1.392 . S
C183 C184 1.331 . S
C183 H201 0.932 . S
C184 C183 1.331 . S
C184 C185 1.336 . S
C185 C181 1.394 . S
C185 C184 1.336 . S
C185 H200 0.929 . S
C186 C176 1.386 . S
C186 C179 1.357 . S
C186 H199 0.928 . S
H187 C163 0.931 . S
H188 C165 0.930 . S
H189 C167 0.929 . S
H190 C168 0.931 . S
H191 C170 0.930 . S
H192 C174 0.931 . S
H193 C172 0.931 . S
H194 C176 0.931 . S
H195 C177 0.929 . S
H196 C178 0.930 . S
H197 C181 0.930 . S
H198 C182 0.931 . S
H199 C186 0.928 . S
H200 C185 0.929 . S
H201 C183 0.932 . S
H202 C208 0.930 . S
H203 C212 0.930 . S
H204 C217 0.929 . S
H205 C215 0.929 . S
H206 C210 0.929 . S
H207 C216 0.929 . S
C208 H202 0.930 . S
C208 C209 1.367 . S
C208 C216 1.378 . S
C209 C208 1.367 . S
C209 C217 1.433 . S
C210 H206 0.929 . S
C210 C212 1.378 . S
C210 C214 1.350 . S
C211 C214 1.463 . S
C211 C216 1.350 . S
C211 N219 1.427 . S
C212 H203 0.930 . S
C212 C210 1.378 . S
C212 C213 1.367 . S
C213 C212 1.367 . S
C213 C215 1.433 . S
C214 C210 1.350 . S
C214 C211 1.463 . S
C214 N218 1.427 . S
C215 H205 0.929 . S
C215 C213 1.433 . S
C215 N218 1.384 . S
C216 H207 0.929 . S
C216 C208 1.378 . S
C216 C211 1.350 . S
C217 H204 0.929 . S
C217 C209 1.433 . S
C217 N219 1.384 . S
N218 C214 1.427 . S
N218 C215 1.384 . S
N219 C211 1.427 . S
N219 C217 1.384 . S
H220 C226 0.930 . S
H221 C230 0.930 . S
H222 C235 0.929 . S
H223 C233 0.948 . S
H224 C228 0.929 . S
H225 C234 0.929 . S
C226 H220 0.930 . S
C226 C227 1.367 1_554 S
C226 C234 1.378 . S
C227 C226 1.367 1_556 S
C227 C235 1.433 . S
C228 H224 0.929 . S
C228 C230 1.378 . S
C228 C232 1.350 . S
C229 C232 1.463 . S
C229 C234 1.350 1_556 S
C229 N237 1.427 . S
C230 H221 0.930 . S
C230 C228 1.378 . S
C230 C231 1.367 . S
C231 C230 1.367 . S
C231 C233 1.433 . S
C232 C228 1.350 . S
C232 C229 1.463 . S
C232 N236 1.427 . S
C233 H223 0.948 . S
C233 C231 1.433 . S
C233 N236 1.384 . S
C234 H225 0.929 . S
C234 C226 1.378 . S
C234 C229 1.350 1_554 S
C235 H222 0.929 . S
C235 C227 1.433 . S
C235 N237 1.384 . S
N236 C232 1.427 . S
N236 C233 1.384 . S
N237 C229 1.427 . S
N237 C235 1.384 . S
H238 C244 0.929 1_556 S
H239 C248 0.930 . S
H240 C253 0.929 . S
H241 C251 0.929 . S
H242 C246 0.929 . S
H243 C252 0.929 . S
C244 H238 0.929 1_554 S
C244 C245 1.367 . S
C244 C252 1.378 . S
C245 C244 1.367 . S
C245 C253 1.433 . S
C246 H242 0.929 . S
C246 C248 1.378 . S
C246 C250 1.350 . S
C247 C250 1.463 . S
C247 C252 1.350 . S
C247 N255 1.427 . S
C248 H239 0.930 . S
C248 C246 1.378 . S
C248 C249 1.367 . S
C249 C248 1.367 . S
C249 C251 1.433 . S
C250 C246 1.350 . S
C250 C247 1.463 . S
C250 N254 1.427 . S
C251 H241 0.929 . S
C251 C249 1.433 . S
C251 N254 1.384 . S
C252 H243 0.929 . S
C252 C244 1.378 . S
C252 C247 1.350 . S
C253 H240 0.929 . S
C253 C245 1.433 . S
C253 N255 1.384 . S
N254 C250 1.427 . S
N254 C251 1.384 . S
N255 C247 1.427 . S
N255 C253 1.384 . S
H256 C262 0.930 . S
H257 C266 0.930 . S
H258 C271 0.929 . S
H259 C269 0.929 . S
H260 C264 0.929 . S
H261 C270 0.929 . S
C262 H256 0.930 . S
C262 C263 1.367 1_554 S
C262 C270 1.378 . S
C263 C262 1.367 1_556 S
C263 C271 1.433 . S
C264 H260 0.929 . S
C264 C266 1.378 . S
C264 C268 1.350 . S
C265 C268 1.463 . S
C265 C270 1.350 1_556 S
C265 N273 1.427 . S
C266 H257 0.930 . S
C266 C264 1.378 . S
C266 C267 1.367 . S
C267 C266 1.367 . S
C267 C269 1.433 . S
C268 C264 1.350 . S
C268 C265 1.463 . S
C268 N272 1.427 . S
C269 H259 0.929 . S
C269 C267 1.433 . S
C269 N272 1.384 . S
C270 H261 0.929 . S
C270 C262 1.378 . S
C270 C265 1.350 1_554 S
C271 H258 0.929 . S
C271 C263 1.433 . S
C271 N273 1.384 . S
N272 C268 1.427 . S
N272 C269 1.384 . S
N273 C265 1.427 . S
N273 C271 1.384 . S
H274 C280 0.930 . S
H275 C284 0.930 . S
H276 C289 0.929 . S
H277 C287 0.929 . S
H278 C282 0.929 . S
H279 C288 0.929 . S
C280 H274 0.930 . S
C280 C281 1.367 . S
C280 C288 1.378 . S
C281 C280 1.367 . S
C281 C289 1.433 . S
C282 H278 0.929 . S
C282 C284 1.378 . S
C282 C286 1.350 . S
C283 C286 1.463 . S
C283 C288 1.350 . S
C283 N291 1.427 . S
C284 H275 0.930 . S
C284 C282 1.378 . S
C284 C285 1.367 . S
C285 C284 1.367 . S
C285 C287 1.433 . S
C286 C282 1.350 . S
C286 C283 1.463 . S
C286 N290 1.427 . S
C287 H277 0.929 . S
C287 C285 1.433 . S
C287 N290 1.384 . S
C288 H279 0.929 . S
C288 C280 1.378 . S
C288 C283 1.350 . S
C289 H276 0.929 . S
C289 C281 1.433 . S
C289 N291 1.384 . S
N290 C286 1.427 . S
N290 C287 1.384 . S
N291 C283 1.427 . S
N291 C289 1.384 . S
H292 C298 0.930 . S
H293 C302 0.930 . S
H294 C307 0.929 . S
H295 C305 0.929 . S
H296 C300 0.929 . S
H297 C306 0.929 . S
C298 H292 0.930 . S
C298 C299 1.367 . S
C298 C306 1.378 . S
C299 C298 1.367 . S
C299 C307 1.433 . S
C300 H296 0.929 . S
C300 C302 1.378 . S
C300 C304 1.350 . S
C301 C304 1.463 . S
C301 C306 1.350 . S
C301 N309 1.427 . S
C302 H293 0.930 . S
C302 C300 1.378 . S
C302 C303 1.367 . S
C303 C302 1.367 . S
C303 C305 1.433 . S
C304 C300 1.350 . S
C304 C301 1.463 . S
C304 N308 1.427 . S
C305 H295 0.929 . S
C305 C303 1.433 . S
C305 N308 1.384 . S
C306 H297 0.929 . S
C306 C298 1.378 . S
C306 C301 1.350 . S
C307 H294 0.929 . S
C307 C299 1.433 . S
C307 N309 1.384 . S
N308 C304 1.427 . S
N308 C305 1.384 . S
N309 C301 1.427 . S
N309 C307 1.384 . S
H310 C316 0.930 . S
H311 C320 0.930 . S
H312 C325 0.929 . S
H313 C323 0.929 . S
H314 C318 0.929 . S
H315 C324 0.929 . S
C316 H310 0.930 . S
C316 C317 1.367 . S
C316 C324 1.378 . S
C317 C316 1.367 . S
C317 C325 1.433 . S
C318 H314 0.929 . S
C318 C320 1.378 . S
C318 C322 1.350 . S
C319 C322 1.463 . S
C319 C324 1.350 . S
C319 N327 1.427 . S
C320 H311 0.930 . S
C320 C318 1.378 . S
C320 C321 1.367 . S
C321 C320 1.367 . S
C321 C323 1.433 . S
C322 C318 1.350 . S
C322 C319 1.463 . S
C322 N326 1.427 . S
C323 H313 0.929 . S
C323 C321 1.433 . S
C323 N326 1.384 . S
C324 H315 0.929 . S
C324 C316 1.378 . S
C324 C319 1.350 . S
C325 H312 0.929 . S
C325 C317 1.433 . S
C325 N327 1.384 . S
N326 C322 1.427 . S
N326 C323 1.384 . S
N327 C319 1.427 . S
N327 C325 1.384 . S
H328 C334 0.930 . S
H329 C338 0.930 . S
H330 C343 0.929 . S
H331 C341 0.929 . S
H332 C336 0.929 . S
H333 C342 0.929 . S
C334 H328 0.930 . S
C334 C335 1.367 . S
C334 C342 1.378 . S
C335 C334 1.367 . S
C335 C343 1.433 . S
C336 H332 0.929 . S
C336 C338 1.378 . S
C336 C340 1.350 . S
C337 C340 1.463 . S
C337 C342 1.350 . S
C337 N345 1.427 . S
C338 H329 0.930 . S
C338 C336 1.378 . S
C338 C339 1.367 . S
C339 C338 1.367 . S
C339 C341 1.433 . S
C340 C336 1.350 . S
C340 C337 1.463 . S
C340 N344 1.427 . S
C341 H331 0.929 . S
C341 C339 1.433 . S
C341 N344 1.384 . S
C342 H333 0.929 . S
C342 C334 1.378 . S
C342 C337 1.350 . S
C343 H330 0.929 . S
C343 C335 1.433 . S
C343 N345 1.384 . S
N344 C340 1.427 . S
N344 C341 1.384 . S
N345 C337 1.427 . S
N345 C343 1.384 . S
H346 C352 0.930 . S
H347 C356 0.930 . S
H348 C361 0.929 . S
H349 C359 0.929 . S
H350 C354 0.929 . S
H351 C360 0.929 . S
C352 H346 0.930 . S
C352 C353 1.367 1_655 S
C352 C360 1.378 . S
C353 C352 1.367 1_455 S
C353 C361 1.433 1_545 S
C354 H350 0.929 . S
C354 C356 1.378 . S
C354 C358 1.350 1_565 S
C355 C358 1.463 . S
C355 C360 1.350 1_455 S
C355 N363 1.427 1_545 S
C356 H347 0.930 . S
C356 C354 1.378 . S
C356 C357 1.364 1_565 S
C357 C356 1.364 1_545 S
C357 C359 1.436 1_455 S
C358 C354 1.350 1_545 S
C358 C355 1.463 . S
C358 N362 1.427 1_455 S
C359 H349 0.929 . S
C359 C357 1.436 1_655 S
C359 N362 1.384 . S
C360 H351 0.929 . S
C360 C352 1.378 . S
C360 C355 1.350 1_655 S
C361 H348 0.929 . S
C361 C353 1.433 1_565 S
C361 N363 1.384 . S
N362 C358 1.427 1_655 S
N362 C359 1.384 . S
N363 C355 1.427 1_565 S
N363 C361 1.384 . S
H364 C370 0.930 . S
H365 C374 0.930 . S
H366 C379 0.929 . S
H367 C377 0.929 . S
H368 C372 0.929 . S
H369 C378 0.929 . S
C370 H364 0.930 . S
C370 C371 1.367 1_665 S
C370 C378 1.378 . S
C371 C370 1.367 1_445 S
C371 C379 1.433 . S
C372 H368 0.929 . S
C372 C374 1.378 . S
C372 C376 1.350 . S
C373 C376 1.463 . S
C373 C378 1.350 1_445 S
C373 N381 1.427 . S
C374 H365 0.930 . S
C374 C372 1.378 . S
C374 C375 1.367 . S
C375 C374 1.367 . S
C375 C377 1.433 1_445 S
C376 C372 1.350 . S
C376 C373 1.463 . S
C376 N380 1.427 1_445 S
C377 H367 0.929 . S
C377 C375 1.433 1_665 S
C377 N380 1.384 . S
C378 H369 0.929 . S
C378 C370 1.378 . S
C378 C373 1.350 1_665 S
C379 H366 0.929 . S
C379 C371 1.433 . S
C379 N381 1.384 . S
N380 C376 1.427 1_665 S
N380 C377 1.384 . S
N381 C373 1.427 . S
N381 C379 1.384 . S
H382 C388 0.930 . S
H383 C392 0.930 . S
H384 C397 0.929 . S
H385 C395 0.929 . S
H386 C390 0.929 . S
H387 C396 0.929 . S
C388 H382 0.930 . S
C388 C389 1.367 . S
C388 C396 1.378 . S
C389 C388 1.367 . S
C389 C397 1.433 . S
C390 H386 0.929 . S
C390 C392 1.378 . S
C390 C394 1.350 . S
C391 C394 1.463 . S
C391 C396 1.350 . S
C391 N399 1.427 . S
C392 H383 0.930 . S
C392 C390 1.378 . S
C392 C393 1.367 . S
C393 C392 1.367 . S
C393 C395 1.433 . S
C394 C390 1.350 . S
C394 C391 1.463 . S
C394 N398 1.427 . S
C395 H385 0.929 . S
C395 C393 1.433 . S
C395 N398 1.384 . S
C396 H387 0.929 . S
C396 C388 1.378 . S
C396 C391 1.350 . S
C397 H384 0.929 . S
C397 C389 1.433 . S
C397 N399 1.384 . S
N398 C394 1.427 . S
N398 C395 1.384 . S
N399 C391 1.427 . S
N399 C397 1.384 . S
H400 C406 0.930 . S
H401 C410 0.930 . S
H402 C415 0.929 . S
H403 C413 0.929 . S
H404 C408 0.929 . S
H405 C414 0.929 . S
C406 H400 0.930 . S
C406 C407 1.367 . S
C406 C414 1.378 . S
C407 C406 1.367 . S
C407 C415 1.433 . S
C408 H404 0.929 . S
C408 C410 1.378 . S
C408 C412 1.350 . S
C409 C412 1.463 . S
C409 C414 1.350 . S
C409 N417 1.427 . S
C410 H401 0.930 . S
C410 C408 1.378 . S
C410 C411 1.367 . S
C411 C410 1.367 . S
C411 C413 1.433 . S
C412 C408 1.350 . S
C412 C409 1.463 . S
C412 N416 1.427 . S
C413 H403 0.929 . S
C413 C411 1.433 . S
C413 N416 1.384 . S
C414 H405 0.929 . S
C414 C406 1.378 . S
C414 C409 1.350 . S
C415 H402 0.929 . S
C415 C407 1.433 . S
C415 N417 1.384 . S
N416 C412 1.427 . S
N416 C413 1.384 . S
N417 C409 1.427 . S
N417 C415 1.384 . S
C213 C179 1.448 . S
C209 C21 1.449 . S
C227 C19 1.438 1_556 S
C231 C140 1.439 . S
C245 C18 1.414 . S
C249 C184 1.414 . S
C263 C20 1.433 1_556 S
C267 C145 1.429 . S
C281 C44 1.449 . S
C285 C101 1.444 . S
C299 C42 1.445 . S
C303 C62 1.444 . S
C321 C106 1.414 . S
C317 C41 1.412 . S
C339 C67 1.429 . S
C335 C43 1.436 . S
C353 C16 1.493 . S
C357 C47 1.491 1_445 S
C371 C17 1.456 . S
C375 C86 1.457 . S
C393 C125 1.493 . S
C389 C39 1.492 . S
C407 C40 1.458 . S
C411 C164 1.457 . S
