# Generated by pormake.
# Topology anh, (6,3)-cn, num edge types: 1
# Building blocks:
#     Node 0, Type 0, BuildingBlock: NUHQIS_clean_sbu_0, # of connection points: 6
#     Node 1, Type 0, BuildingBlock: NUHQIS_clean_sbu_0, # of connection points: 6
#     Node 2, Type 0, BuildingBlock: NUHQIS_clean_sbu_0, # of connection points: 6
#     Node 3, Type 1, BuildingBlock: KAKCAD_clean_linker_0, # of connection points: 3
#     Node 4, Type 1, BuildingBlock: KAKCAD_clean_linker_0, # of connection points: 3
#     Node 5, Type 1, BuildingBlock: KAKCAD_clean_linker_0, # of connection points: 3
#     Node 6, Type 1, BuildingBlock: KAKCAD_clean_linker_0, # of connection points: 3
#     Node 7, Type 1, BuildingBlock: KAKCAD_clean_linker_0, # of connection points: 3
#     Node 8, Type 1, BuildingBlock: KAKCAD_clean_linker_0, # of connection points: 3
#     Edge 9, Type (0, 1), BuildingBlock: MIFKUJ_clean_linker_0, # of connection points: 2
#     Edge 10, Type (0, 1), BuildingBlock: MIFKUJ_clean_linker_0, # of connection points: 2
#     Edge 11, Type (0, 1), BuildingBlock: MIFKUJ_clean_linker_0, # of connection points: 2
#     Edge 12, Type (0, 1), BuildingBlock: MIFKUJ_clean_linker_0, # of connection points: 2
#     Edge 13, Type (0, 1), BuildingBlock: MIFKUJ_clean_linker_0, # of connection points: 2
#     Edge 14, Type (0, 1), BuildingBlock: MIFKUJ_clean_linker_0, # of connection points: 2
#     Edge 15, Type (0, 1), BuildingBlock: MIFKUJ_clean_linker_0, # of connection points: 2
#     Edge 16, Type (0, 1), BuildingBlock: MIFKUJ_clean_linker_0, # of connection points: 2
#     Edge 17, Type (0, 1), BuildingBlock: MIFKUJ_clean_linker_0, # of connection points: 2
#     Edge 18, Type (0, 1), BuildingBlock: MIFKUJ_clean_linker_0, # of connection points: 2
#     Edge 19, Type (0, 1), BuildingBlock: MIFKUJ_clean_linker_0, # of connection points: 2
#     Edge 20, Type (0, 1), BuildingBlock: MIFKUJ_clean_linker_0, # of connection points: 2
#     Edge 21, Type (0, 1), BuildingBlock: MIFKUJ_clean_linker_0, # of connection points: 2
#     Edge 22, Type (0, 1), BuildingBlock: MIFKUJ_clean_linker_0, # of connection points: 2
#     Edge 23, Type (0, 1), BuildingBlock: MIFKUJ_clean_linker_0, # of connection points: 2
#     Edge 24, Type (0, 1), BuildingBlock: MIFKUJ_clean_linker_0, # of connection points: 2
#     Edge 25, Type (0, 1), BuildingBlock: MIFKUJ_clean_linker_0, # of connection points: 2
#     Edge 26, Type (0, 1), BuildingBlock: MIFKUJ_clean_linker_0, # of connection points: 2
# Relax obj value: 0.201
# Max RMSD: 0.184
# Mean RMSD: 0.149
data_MOF--net-anh--node1-NUHQIS_clean_sbu_0--node2-KAKCAD_clean_linker_0--edge1-MIFKUJ_clean_linker_0
_symmetry_space_group_name_H-M    P1
_symmetry_Int_Tables_number       1
_symmetry_cell_setting            triclinic
loop_
_symmetry_equiv_pos_as_xyz
'x, y, z'
_cell_length_a     45.684605
_cell_length_b     45.672421
_cell_length_c     82.618219
_cell_angle_alpha  90.896353
_cell_angle_beta   91.624067
_cell_angle_gamma 119.97437
loop_
_atom_site_label
_atom_site_type_symbol
_atom_site_fract_x
_atom_site_fract_y
_atom_site_fract_z
_atom_type_partial_charge
Tb0 Tb 0.12002 0.55491 0.15924 0.0
Eu1 Eu 0.0776 0.59447 0.159 0.0
C2 C 0.09735 0.57108 0.19072 0.0
C3 C 1.03769 0.51207 0.15884 0.0
C4 C 0.18346 0.53207 0.17213 0.0
C5 C 0.21022 0.51473 0.19267 0.0
C6 C 0.18178 0.50827 0.18314 0.0
C7 C 0.21376 0.56298 0.17117 0.0
C8 C 0.2423 0.56931 0.18056 0.0
C9 C 0.24102 0.54501 0.19123 0.0
C10 C 0.15304 0.52468 0.1623 0.0
O11 O 0.10426 0.55251 0.13378 0.0
O12 O 0.09293 0.59626 0.13323 0.0
O13 O 0.13245 0.63655 0.16377 0.0
O14 O 0.16107 0.60811 0.15851 0.0
C15 C 0.09884 0.5742 0.12578 0.0
O16 O 1.03971 0.6063 0.14959 0.0
O17 O 1.06663 0.62901 0.17251 0.0
O18 O 0.07148 0.56781 0.18221 0.0
O19 O 0.12451 0.57657 0.18345 0.0
O20 O 1.06706 0.51351 0.16164 0.0
O21 O 1.03636 0.53948 0.15546 0.0
C22 C 0.16106 0.63651 0.16188 0.0
O23 O 0.1266 0.51774 0.17056 0.0
O24 O 0.15682 0.54473 0.15046 0.0
C25 C 1.00789 0.60583 0.17132 0.0
C26 C 0.94246 0.56786 0.18292 0.0
C27 C 0.952 0.59805 0.1748 0.0
C28 C 0.98455 0.61686 0.16895 0.0
C29 C 0.99893 0.5768 0.18025 0.0
C30 C 0.96653 0.55795 0.18597 0.0
C31 C 1.04013 0.62162 0.16317 0.0
H32 H 0.20832 0.49565 0.20088 0.0
H33 H 0.15848 0.4845 0.18427 0.0
H34 H 0.21565 0.58207 0.16296 0.0
H35 H 0.26574 0.59264 0.17891 0.0
H36 H 0.93371 0.60599 0.17212 0.0
H37 H 0.99097 0.63904 0.16199 0.0
H38 H 1.01647 0.56773 0.18218 0.0
H39 H 0.95989 0.53493 0.19226 0.0
Tb40 Tb 0.63614 0.08752 0.49366 0.0
Eu41 Eu 0.55441 0.04657 0.48999 0.0
C42 C 0.59288 0.06833 0.52393 0.0
C43 C 0.5957 1.00595 0.49333 0.0
C44 C 0.72139 0.15243 0.50669 0.0
C45 C 0.77387 0.19159 0.52128 0.0
C46 C 0.75318 0.16029 0.51326 0.0
C47 C 0.70995 0.17551 0.50871 0.0
C48 C 0.73054 0.2067 0.51654 0.0
C49 C 0.76295 0.21537 0.52276 0.0
C50 C 0.69948 0.11988 0.49817 0.0
O51 O 0.624 0.07127 0.46802 0.0
O52 O 0.57132 0.06559 0.46521 0.0
O53 O 0.56778 0.10138 0.49442 0.0
O54 O 0.62532 0.1296 0.49182 0.0
C55 C 0.59888 0.06921 0.45888 0.0
O56 O 0.50554 1.006 0.48032 0.0
O57 O 0.50772 1.04206 0.49838 0.0
O58 O 0.56954 1.04234 0.51545 0.0
O59 O 0.61774 0.09337 0.51675 0.0
O60 O 0.62222 1.03468 0.49861 0.0
O61 O 0.56869 1.00551 0.48696 0.0
C62 C 0.59681 0.12987 0.49377 0.0
O63 O 0.67919 0.09578 0.50736 0.0
O64 O 0.68385 0.12112 0.48495 0.0
C65 C 0.4655 0.98568 0.50106 0.0
C66 C 0.42296 0.93502 0.52205 0.0
C67 C 0.44159 0.92857 0.51067 0.0
C68 C 0.46268 0.95363 0.50031 0.0
C69 C 0.44741 0.99238 0.51259 0.0
C70 C 0.42653 0.9674 0.52304 0.0
C71 C 0.4888 1.01304 0.49078 0.0
H72 H 0.79861 0.19743 0.52602 0.0
H73 H 0.76212 0.14245 0.51204 0.0
H74 H 0.68531 0.16973 0.50393 0.0
H75 H 0.72149 0.22454 0.51704 0.0
H76 H 0.43906 0.90379 0.50932 0.0
H77 H 0.47657 0.94775 0.49168 0.0
H78 H 0.4495 1.01705 0.51355 0.0
H79 H 0.41281 0.97334 0.53175 0.0
Tb80 Tb 0.61654 0.60956 0.82704 0.0
Eu81 Eu 0.57466 0.52814 0.82304 0.0
C82 C 0.59583 0.56497 0.85745 0.0
C83 C 0.65771 0.5696 0.82737 0.0
C84 C 0.63055 0.69366 0.83543 0.0
C85 C 0.58983 0.69889 0.85175 0.0
C86 C 0.60925 0.68376 0.84863 0.0
C87 C 0.63341 0.71997 0.82592 0.0
C88 C 0.61368 0.73475 0.82888 0.0
C89 C 0.5909 0.72374 0.84155 0.0
C90 C 0.64462 0.67284 0.82966 0.0
O91 O 0.6215 0.59577 0.80211 0.0
O92 O 0.57013 0.54826 0.79906 0.0
O93 O 0.53409 0.54146 0.82877 0.0
O94 O 0.56353 0.59858 0.8248 0.0
C95 C 0.59619 0.57352 0.79268 0.0
O96 O 0.56354 0.48155 0.81009 0.0
O97 O 0.53655 0.47939 0.83166 0.0
O98 O 0.59541 0.54086 0.84856 0.0
O99 O 0.59686 0.59132 0.85079 0.0
O100 O 0.65669 0.597 0.8318 0.0
O101 O 0.6302 0.54228 0.82155 0.0
C102 C 0.53492 0.57061 0.82753 0.0
O103 O 0.64905 0.65452 0.84034 0.0
O104 O 0.63014 0.65561 0.81623 0.0
C105 C 0.55257 0.43858 0.82839 0.0
C106 C 0.56924 0.39396 0.84365 0.0
C107 C 0.59473 0.4267 0.84009 0.0
C108 C 0.58643 0.44892 0.83261 0.0
C109 C 0.52704 0.40611 0.83208 0.0
C110 C 0.53529 0.38392 0.83968 0.0
C111 C 0.54375 0.46244 0.82122 0.0
H112 H 0.57306 0.69016 0.86177 0.0
H113 H 0.60625 0.66317 0.85605 0.0
H114 H 0.64926 0.72756 0.81553 0.0
H115 H 0.61485 0.75332 0.82054 0.0
H116 H 0.62104 0.43509 0.8431 0.0
H117 H 0.60646 0.47421 0.83017 0.0
H118 H 0.50076 0.39795 0.82909 0.0
H119 H 0.5152 0.35865 0.84209 0.0
C120 C 0.6194 0.10868 0.2756 0.0
C121 C 0.60735 0.07829 0.28379 0.0
C122 C 0.61866 0.10871 0.2586 0.0
C123 C 0.60639 0.07838 0.2493 0.0
C124 C 0.59486 0.04804 0.25762 0.0
C125 C 0.59504 0.04798 0.27459 0.0
C126 C 0.60537 0.07827 0.23107 0.0
C127 C 0.63045 0.10549 0.22273 0.0
C128 C 0.62999 0.10625 0.20566 0.0
C129 C 0.60327 0.07783 0.19673 0.0
C130 C 0.57761 0.04973 0.20495 0.0
C131 C 0.57922 0.05088 0.22201 0.0
C132 C 0.54852 1.01822 0.1967 0.0
C133 C 0.52198 1.01897 0.18793 0.0
C134 C 0.54379 0.98609 0.20038 0.0
C135 C 0.51357 0.95599 0.19588 0.0
C136 C 0.48635 0.95651 0.18762 0.0
C137 C 0.65811 0.13752 0.19808 0.0
C138 C 0.6662 0.17005 0.20394 0.0
C139 C 0.68024 0.13583 0.18703 0.0
C140 C 0.70995 0.16548 0.18255 0.0
C141 C 0.71854 0.19801 0.18883 0.0
C142 C 0.69556 0.19952 0.1994 0.0
C143 C 0.49145 0.98871 0.18351 0.0
H144 H 0.62875 0.13242 0.28234 0.0
H145 H 0.62719 0.13256 0.25279 0.0
H146 H 0.58596 1.02421 0.25106 0.0
H147 H 0.58599 1.02419 0.28055 0.0
H148 H 0.6512 0.12625 0.22959 0.0
H149 H 0.55927 1.03019 0.22829 0.0
H150 H 0.60243 0.07761 0.18362 0.0
H151 H 0.52416 1.04306 0.18515 0.0
H152 H 0.56319 0.9843 0.20741 0.0
H153 H 0.5111 0.93225 0.19958 0.0
H154 H 0.65015 0.17267 0.21256 0.0
H155 H 0.67538 0.11144 0.18238 0.0
H156 H 0.47161 0.99067 0.17703 0.0
H157 H 0.70081 0.22351 0.20477 0.0
H158 H 0.72639 0.16278 0.17422 0.0
C159 C 0.57829 0.57893 0.60813 0.0
C160 C 0.60184 0.57389 0.61721 0.0
C161 C 0.57799 0.57836 0.59115 0.0
C162 C 0.601 0.5724 0.58276 0.0
C163 C 0.62441 0.56713 0.59183 0.0
C164 C 0.62495 0.56806 0.60883 0.0
C165 C 0.60053 0.57182 0.56463 0.0
C166 C 0.59763 0.59664 0.55611 0.0
C167 C 0.59608 0.59657 0.53902 0.0
C168 C 0.59823 0.57025 0.53034 0.0
C169 C 0.60172 0.54488 0.53882 0.0
C170 C 0.60269 0.54641 0.55591 0.0
C171 C 0.60448 0.51609 0.53085 0.0
C172 C 0.57938 0.49206 0.51988 0.0
C173 C 0.62986 0.50922 0.53646 0.0
C174 C 0.62942 0.47908 0.532 0.0
C175 C 0.60349 0.45408 0.5217 0.0
C176 C 0.59237 0.62478 0.53126 0.0
C177 C 0.57133 0.63562 0.53828 0.0
C178 C 0.61242 0.64412 0.51855 0.0
C179 C 0.61261 0.67402 0.51374 0.0
C180 C 0.59309 0.6858 0.5216 0.0
C181 C 0.57195 0.66549 0.53371 0.0
C182 C 0.57893 0.46164 0.51536 0.0
H183 H 0.5603 0.58376 0.61416 0.0
H184 H 0.55943 0.58225 0.58457 0.0
H185 H 0.64263 0.56269 0.58577 0.0
H186 H 0.64324 0.56378 0.61542 0.0
H187 H 0.59725 0.61681 0.56302 0.0
H188 H 0.60439 0.527 0.56256 0.0
H189 H 0.59724 0.56953 0.51722 0.0
H190 H 0.55906 0.49591 0.51544 0.0
H191 H 0.64974 0.52691 0.54487 0.0
H192 H 0.64945 0.47527 0.53689 0.0
H193 H 0.55483 0.62138 0.54783 0.0
H194 H 0.62914 0.63707 0.51283 0.0
H195 H 0.55838 0.44339 0.50744 0.0
H196 H 0.55588 0.67288 0.53984 0.0
H197 H 0.62919 0.6887 0.50431 0.0
C198 C 0.13026 0.5885 0.94219 0.0
C199 C 0.10004 0.56991 0.95032 0.0
C200 C 0.13009 0.58869 0.92521 0.0
C201 C 0.09973 0.56985 0.91584 0.0
C202 C 0.06958 0.55086 0.92407 0.0
C203 C 0.06971 0.55115 0.94104 0.0
C204 C 0.09939 0.57011 0.89763 0.0
C205 C 0.12654 0.57212 0.88912 0.0
C206 C 0.12699 0.57261 0.87206 0.0
C207 C 0.09827 0.57017 0.8633 0.0
C208 C 0.07017 0.56778 0.87169 0.0
C209 C 0.07179 0.56831 0.88876 0.0
C210 C 1.03817 0.56436 0.86364 0.0
C211 C 1.03855 0.58869 0.8532 0.0
C212 C 1.0063 0.53925 0.86875 0.0
C213 C 0.9763 0.53929 0.86433 0.0
C214 C 0.97658 0.5645 0.85458 0.0
C215 C 0.15829 0.57584 0.86434 0.0
C216 C 0.19073 0.60083 0.87034 0.0
C217 C 0.15681 0.55156 0.85307 0.0
C218 C 0.18661 0.55162 0.84852 0.0
C219 C 0.21907 0.57611 0.85497 0.0
C220 C 0.22033 0.60103 0.86576 0.0
C221 C 1.00827 0.58872 0.84872 0.0
H222 H 0.15402 0.6035 0.949 0.0
H223 H 0.15379 0.60414 0.91946 0.0
H224 H 1.04575 0.53537 0.91743 0.0
H225 H 1.04605 0.5362 0.94693 0.0
H226 H 0.14751 0.57265 0.89585 0.0
H227 H 1.05128 0.56785 0.89524 0.0
H228 H 0.09779 0.57012 0.85019 0.0
H229 H 1.06243 0.60878 0.84918 0.0
H230 H 1.00468 0.51997 0.87675 0.0
H231 H 0.95276 0.51955 0.86883 0.0
H232 H 0.19318 0.61986 0.87913 0.0
H233 H 0.13249 0.53159 0.84831 0.0
H234 H 1.01001 0.6087 0.84121 0.0
H235 H 0.24423 0.62019 0.87129 0.0
H236 H 0.18408 0.53213 0.84002 0.0
C237 C 1.02281 0.60775 0.36379 0.0
C238 C 1.05412 0.61323 0.35851 0.0
C239 C 1.01863 0.61246 0.38014 0.0
C240 C 1.04573 0.62299 0.39152 0.0
C241 C 0.07712 0.62887 0.38622 0.0
C242 C 0.08124 0.62399 0.36991 0.0
C243 C 1.04103 0.62623 0.409 0.0
C244 C 1.01319 0.60004 0.41653 0.0
C245 C 1.01102 0.60089 0.43339 0.0
C246 C 1.03558 0.62876 0.44259 0.0
C247 C 1.06378 0.65464 0.43541 0.0
C248 C 1.06629 0.65347 0.41855 0.0
C249 C 0.09281 0.67841 0.44613 0.0
C250 C 0.08737 0.69244 0.4602 0.0
C251 C 0.12458 0.68135 0.44416 0.0
C252 C 0.14946 0.69552 0.45661 0.0
C253 C 0.14299 0.70697 0.47125 0.0
C254 C 0.98753 0.57056 0.44203 0.0
C255 C 0.95234 0.5558 0.43997 0.0
C256 C 1.00112 0.55771 0.45345 0.0
C257 C 0.98009 0.53147 0.46313 0.0
C258 C 0.94485 0.51712 0.46154 0.0
C259 C 0.93105 0.52926 0.44976 0.0
C260 C 0.11221 0.70652 0.47267 0.0
H261 H 1.00153 0.59993 0.35529 0.0
H262 H 0.99422 0.60792 0.3839 0.0
H263 H 0.09828 0.63631 0.39475 0.0
H264 H 0.1055 0.62781 0.36633 0.0
H265 H 0.9948 0.57781 0.4095 0.0
H266 H 0.08843 0.67316 0.41297 0.0
H267 H 1.03426 0.62856 0.45568 0.0
H268 H 1.06308 0.69054 0.46198 0.0
H269 H 0.1294 0.6705 0.43352 0.0
H270 H 0.17333 0.69641 0.455 0.0
H271 H 0.94146 0.56544 0.43121 0.0
H272 H 1.02825 0.56862 0.45515 0.0
H273 H 0.10652 0.71527 0.48376 0.0
H274 H 0.90393 0.51839 0.44819 0.0
H275 H 0.99159 0.52311 0.47223 0.0
C276 C 0.49743 1.01568 0.69669 0.0
C277 C 0.52943 1.04284 0.69322 0.0
C278 C 0.48799 1.008 0.71267 0.0
C279 C 0.51055 1.02674 0.72569 0.0
C280 C 0.54261 0.05382 0.72223 0.0
C281 C 0.55176 0.06199 0.70623 0.0
C282 C 0.50089 1.01773 0.74276 0.0
C283 C 0.48039 0.9837 0.74681 0.0
C284 C 0.47171 0.97503 0.7629 0.0
C285 C 0.48398 1.00052 0.77508 0.0
C286 C 0.50526 1.03438 0.77138 0.0
C287 C 0.51309 1.04291 0.75521 0.0
C288 C 0.52095 0.06045 0.78461 0.0
C289 C 0.50131 0.06192 0.79701 0.0
C290 C 0.55593 0.08328 0.78519 0.0
C291 C 0.57096 0.10743 0.79785 0.0
C292 C 0.55124 0.10941 0.81012 0.0
C293 C 0.45369 0.93928 0.76751 0.0
C294 C 0.42722 0.92756 0.7783 0.0
C295 C 0.46605 0.91801 0.76282 0.0
C296 C 0.45412 0.88668 0.76978 0.0
C297 C 0.42916 0.87564 0.78145 0.0
C298 C 0.41483 0.89588 0.7851 0.0
C299 C 0.51626 0.08626 0.80958 0.0
H300 H 0.47966 0.99986 0.68707 0.0
H301 H 0.46289 0.98732 0.71478 0.0
H302 H 0.56101 0.06856 0.73185 0.0
H303 H 0.57641 0.08343 0.70414 0.0
H304 H 0.47186 0.96371 0.73758 0.0
H305 H 0.52868 0.0693 0.75241 0.0
H306 H 0.47872 0.99376 0.78762 0.0
H307 H 0.47426 1.04466 0.79679 0.0
H308 H 0.57173 0.08222 0.77592 0.0
H309 H 0.59799 0.12466 0.79799 0.0
H310 H 0.41712 0.94352 0.78197 0.0
H311 H 0.48676 0.92662 0.75468 0.0
H312 H 0.50017 0.08758 0.81861 0.0
H313 H 0.39515 0.888 0.79377 0.0
H314 H 0.46643 0.8724 0.76682 0.0
C315 C 0.56814 0.47372 0.03301 0.0
C316 C 0.56599 0.50158 0.02767 0.0
C317 C 0.56142 0.46379 0.04903 0.0
C318 C 0.55307 0.482 0.0601 0.0
C319 C 0.55175 0.51044 0.05467 0.0
C320 C 0.55772 0.51984 0.03858 0.0
C321 C 0.54595 0.47159 0.07721 0.0
C322 C 0.56383 0.45813 0.08543 0.0
C323 C 0.55825 0.44978 0.10178 0.0
C324 C 0.53431 0.45455 0.10982 0.0
C325 C 0.51704 0.46884 0.10209 0.0
C326 C 0.52239 0.47663 0.0857 0.0
C327 C 0.49692 0.47924 0.11192 0.0
C328 C 0.47685 0.45847 0.12414 0.0
C329 C 0.50161 0.51197 0.11078 0.0
C330 C 0.48821 0.52435 0.12222 0.0
C331 C 0.47002 0.50433 0.13509 0.0
C332 C 0.57948 0.4393 0.11113 0.0
C333 C 0.58795 0.41597 0.10464 0.0
C334 C 0.59169 0.45315 0.12683 0.0
C335 C 0.61158 0.4438 0.1359 0.0
C336 C 0.62024 0.42067 0.12947 0.0
C337 C 0.60834 0.40684 0.11373 0.0
C338 C 0.46378 0.47094 0.13567 0.0
H339 H 0.57425 0.45918 0.02468 0.0
H340 H 0.56223 0.44151 0.05264 0.0
H341 H 0.5464 0.52575 0.06285 0.0
H342 H 0.55619 0.54159 0.03466 0.0
H343 H 0.58336 0.4558 0.07941 0.0
H344 H 0.50829 0.48687 0.07967 0.0
H345 H 0.53042 0.44871 0.12251 0.0
H346 H 0.47248 0.433 0.12522 0.0
H347 H 0.51716 0.52868 0.10157 0.0
H348 H 0.49277 0.54989 0.12119 0.0
H349 H 0.57884 0.40485 0.09258 0.0
H350 H 0.58661 0.472 0.13203 0.0
H351 H 0.45002 0.45479 0.14542 0.0
H352 H 0.61508 0.38928 0.10843 0.0
H353 H 0.62139 0.45587 0.14775 0.0
H354 H 0.29504 0.60268 0.20512 0.0
H355 H 0.3525 0.61233 0.2095 0.0
H356 H 0.31589 0.50666 0.19856 0.0
H357 H 0.25918 0.49693 0.19418 0.0
H358 H 0.3733 0.53359 0.21777 0.0
H359 H 0.33213 0.563 0.16654 0.0
H360 H 0.31036 0.59692 0.15337 0.0
H361 H 0.39505 0.68808 0.17375 0.0
H362 H 0.41711 0.65454 0.18711 0.0
H363 H 0.41075 0.47197 0.15087 0.0
H364 H 0.39182 0.49463 0.17241 0.0
H365 H 0.483 0.59142 0.17021 0.0
H366 H 0.50304 0.5685 0.14896 0.0
H367 H 0.42338 0.59417 0.16762 0.0
H368 H 0.47354 0.5536 0.20451 0.0
H369 H 0.49048 0.5143 0.2157 0.0
H370 H 0.3863 0.44018 0.22158 0.0
H371 H 0.36864 0.47875 0.2102 0.0
C372 C 0.29917 0.58135 0.20417 0.0
C373 C 0.27275 0.54924 0.19883 0.0
C374 C 0.33194 0.58686 0.20682 0.0
C375 C 0.33857 0.5604 0.20394 0.0
C376 C 0.31143 0.52752 0.20083 0.0
C377 C 0.27882 0.52198 0.19825 0.0
C378 C 0.37271 0.56714 0.19995 0.0
C379 C 0.38496 0.54745 0.20705 0.0
C380 C 0.38862 0.58618 0.18627 0.0
C381 C 0.37612 0.60638 0.17783 0.0
C382 C 0.3461 0.5903 0.16813 0.0
C383 C 0.33369 0.60941 0.16068 0.0
C384 C 0.3513 0.64463 0.16273 0.0
C385 C 0.38144 0.6608 0.17218 0.0
C386 C 0.39391 0.64177 0.17969 0.0
C387 C 0.42724 0.49785 0.15517 0.0
C388 C 0.45843 0.51836 0.14815 0.0
C389 C 0.41642 0.51075 0.16754 0.0
C390 C 0.43637 0.5445 0.17311 0.0
C391 C 0.46749 0.56519 0.16619 0.0
C392 C 0.47861 0.55215 0.1539 0.0
C393 C 0.4221 0.55844 0.18471 0.0
C394 C 0.41363 0.58206 0.17898 0.0
C395 C 0.40946 0.54264 0.19951 0.0
C396 C 0.41978 0.51923 0.20653 0.0
C397 C 0.45421 0.52888 0.20813 0.0
C398 C 0.46394 0.50671 0.21451 0.0
C399 C 0.43948 0.47478 0.21937 0.0
C400 C 0.40523 0.46496 0.21786 0.0
C401 C 0.39534 0.48703 0.21148 0.0
H402 H 0.44707 0.45765 0.22429 0.0
H403 H 0.34161 0.65939 0.15699 0.0
H404 H 0.74851 0.25682 0.54117 0.0
H405 H 0.78061 0.31859 0.54165 0.0
H406 H 0.86251 0.3156 0.51853 0.0
H407 H 0.83026 0.2542 0.51728 0.0
H408 H 0.8816 0.37719 0.53954 0.0
H409 H 0.80969 0.30916 0.4916 0.0
H410 H 0.75552 0.26276 0.48001 0.0
H411 H 0.7022 0.30592 0.50326 0.0
H412 H 0.75615 0.35259 0.51492 0.0
H413 H 0.95161 0.46387 0.47085 0.0
H414 H 0.92038 0.423 0.4912 0.0
H415 H 0.85736 0.46756 0.49742 0.0
H416 H 0.88948 0.50969 0.47726 0.0
H417 H 0.82251 0.39573 0.49284 0.0
H418 H 0.90856 0.4797 0.52764 0.0
H419 H 0.96658 0.52331 0.53626 0.0
H420 H 0.99714 0.44839 0.5367 0.0
H421 H 0.93945 0.40438 0.52783 0.0
C422 C 0.7738 0.26932 0.53664 0.0
C423 C 0.78634 0.25064 0.52865 0.0
C424 C 0.79223 0.30459 0.53713 0.0
C425 C 0.82359 0.32143 0.52991 0.0
C426 C 0.83832 0.30291 0.52421 0.0
C427 C 0.81974 0.26768 0.52349 0.0
C428 C 0.83647 0.35593 0.52417 0.0
C429 C 0.8686 0.38171 0.52956 0.0
C430 C 0.81913 0.36165 0.51126 0.0
C431 C 0.78674 0.33416 0.50411 0.0
C432 C 0.78635 0.30869 0.49419 0.0
C433 C 0.75575 0.2824 0.4876 0.0
C434 C 0.72545 0.28147 0.4908 0.0
C435 C 0.72568 0.30676 0.50068 0.0
C436 C 0.75626 0.33317 0.50726 0.0
C437 C 0.93136 0.46529 0.47664 0.0
C438 C 0.92325 0.49024 0.4726 0.0
C439 C 0.91364 0.44201 0.48831 0.0
C440 C 0.88727 0.44298 0.49609 0.0
C441 C 0.87807 0.46691 0.49169 0.0
C442 C 0.89613 0.4906 0.48007 0.0
C443 C 0.8682 0.41702 0.50792 0.0
C444 C 0.83491 0.39241 0.50349 0.0
C445 C 0.8848 0.41241 0.52155 0.0
C446 C 0.91958 0.4387 0.52705 0.0
C447 C 0.92767 0.47252 0.52949 0.0
C448 C 0.96052 0.49733 0.53443 0.0
C449 C 0.98553 0.48863 0.53703 0.0
C450 C 0.97772 0.45509 0.53471 0.0
C451 C 0.94492 0.43018 0.52976 0.0
H452 H 1.01095 0.50788 0.54084 0.0
H453 H 0.70188 0.26118 0.48557 0.0
H454 H 0.52456 0.68774 0.85027 0.0
H455 H 0.48228 0.70532 0.84829 0.0
H456 H 0.55786 0.80283 0.83226 0.0
H457 H 0.60086 0.78697 0.83585 0.0
H458 H 0.51837 0.81287 0.84728 0.0
H459 H 0.49943 0.7243 0.80735 0.0
H460 H 0.48463 0.66683 0.7979 0.0
H461 H 0.38841 0.62608 0.81974 0.0
H462 H 0.40326 0.68296 0.83001 0.0
H463 H 0.42761 0.817 0.77176 0.0
H464 H 0.43811 0.78093 0.78934 0.0
H465 H 0.42214 0.82803 0.83124 0.0
H466 H 0.4155 0.86693 0.81386 0.0
H467 H 0.41892 0.73853 0.81114 0.0
H468 H 0.47968 0.84253 0.86063 0.0
H469 H 0.50091 0.90367 0.86483 0.0
H470 H 0.52505 0.91958 0.81471 0.0
H471 H 0.50432 0.85863 0.81029 0.0
C472 C 0.53256 0.71342 0.84695 0.0
C473 C 0.5662 0.73577 0.84293 0.0
C474 C 0.5081 0.7232 0.8456 0.0
C475 C 0.51645 0.75495 0.83969 0.0
C476 C 0.55044 0.77801 0.83674 0.0
C477 C 0.57507 0.76871 0.83855 0.0
C478 C 0.49005 0.76376 0.83528 0.0
C479 C 0.49645 0.79638 0.83951 0.0
C480 C 0.46098 0.74222 0.8253 0.0
C481 C 0.45271 0.70783 0.81968 0.0
C482 C 0.47535 0.70298 0.81037 0.0
C483 C 0.46697 0.67048 0.80491 0.0
C484 C 0.4357 0.64274 0.80834 0.0
C485 C 0.41281 0.64745 0.8173 0.0
C486 C 0.42126 0.67979 0.82301 0.0
C487 C 0.4261 0.81964 0.78471 0.0
C488 C 0.42249 0.84613 0.79137 0.0
C489 C 0.43156 0.79851 0.79479 0.0
C490 C 0.43245 0.80278 0.8117 0.0
C491 C 0.42291 0.82518 0.81825 0.0
C492 C 0.41864 0.8472 0.8082 0.0
C493 C 0.44915 0.78847 0.82198 0.0
C494 C 0.44043 0.75463 0.81922 0.0
C495 C 0.47729 0.80942 0.83254 0.0
C496 C 0.49001 0.84607 0.8351 0.0
C497 C 0.48955 0.85914 0.85053 0.0
C498 C 0.50151 0.89372 0.85295 0.0
C499 C 0.51418 0.91547 0.84003 0.0
C500 C 0.51513 0.9027 0.82469 0.0
C501 C 0.50331 0.86817 0.82222 0.0
H502 H 0.52336 0.94222 0.84192 0.0
H503 H 0.42915 0.61762 0.80402 0.0
H504 H 0.89795 0.58277 0.19721 0.0
H505 H 0.83641 0.54615 0.19753 0.0
H506 H 0.84488 0.46446 0.17557 0.0
H507 H 0.90602 0.5006 0.17547 0.0
H508 H 0.80312 0.52709 0.17006 0.0
H509 H 0.77329 0.38746 0.18129 0.0
H510 H 0.78863 0.3572 0.20117 0.0
H511 H 0.82171 0.43999 0.23565 0.0
H512 H 0.80583 0.47049 0.21619 0.0
H513 H 0.67695 0.42377 0.11815 0.0
H514 H 0.72683 0.4351 0.13467 0.0
H515 H 0.67096 0.41865 0.17801 0.0
H516 H 0.6206 0.40666 0.1615 0.0
H517 H 0.72945 0.40486 0.1797 0.0
H518 H 0.69961 0.49035 0.16872 0.0
H519 H 0.67932 0.5198 0.15083 0.0
H520 H 0.76366 0.5481 0.12057 0.0
H521 H 0.78405 0.51816 0.13811 0.0
C522 C 0.88663 0.5567 0.19289 0.0
C523 C 0.90658 0.54458 0.18618 0.0
C524 C 0.85159 0.53576 0.19317 0.0
C525 C 0.83604 0.50253 0.18661 0.0
C526 C 0.85626 0.48974 0.18098 0.0
C527 C 0.89125 0.51054 0.18083 0.0
C528 C 0.79936 0.484 0.18232 0.0
C529 C 0.78701 0.50053 0.17249 0.0
C530 C 0.77806 0.44934 0.18553 0.0
C531 C 0.78858 0.43146 0.19716 0.0
C532 C 0.78369 0.39921 0.19313 0.0
C533 C 0.79241 0.38195 0.20435 0.0
C534 C 0.80619 0.39668 0.21964 0.0
C535 C 0.81111 0.42864 0.22378 0.0
C536 C 0.80232 0.44597 0.21264 0.0
C537 C 0.67471 0.42075 0.13112 0.0
C538 C 0.64522 0.41511 0.1386 0.0
C539 C 0.70325 0.42727 0.14055 0.0
C540 C 0.70256 0.42829 0.15752 0.0
C541 C 0.67188 0.41801 0.16492 0.0
C542 C 0.64328 0.41146 0.15549 0.0
C543 C 0.73467 0.44784 0.16703 0.0
C544 C 0.74582 0.43156 0.17769 0.0
C545 C 0.75483 0.48299 0.16498 0.0
C546 C 0.74316 0.50177 0.15464 0.0
C547 C 0.71368 0.50264 0.15818 0.0
C548 C 0.70217 0.51942 0.14811 0.0
C549 C 0.72014 0.53574 0.13455 0.0
C550 C 0.74973 0.5354 0.13106 0.0
C551 C 0.76128 0.51854 0.14107 0.0
H552 H 0.71119 0.54872 0.12676 0.0
H553 H 0.81308 0.38334 0.22827 0.0
H554 H 0.42609 0.88207 0.5358 0.0
H555 H 0.37716 0.82745 0.54159 0.0
H556 H 0.31188 0.8696 0.53493 0.0
H557 H 0.35995 0.92354 0.52871 0.0
H558 H 0.28335 0.81008 0.55431 0.0
H559 H 0.33099 0.84996 0.50011 0.0
H560 H 0.38063 0.87582 0.48301 0.0
H561 H 0.40502 0.79966 0.4962 0.0
H562 H 0.3555 0.77351 0.51348 0.0
H563 H 0.16217 0.76083 0.49234 0.0
H564 H 0.20639 0.78166 0.51374 0.0
H565 H 0.22412 0.69915 0.5031 0.0
H566 H 0.17943 0.6778 0.48177 0.0
H567 H 0.27913 0.75927 0.50014 0.0
H568 H 0.20238 0.70735 0.54119 0.0
H569 H 0.15042 0.68817 0.55624 0.0
H570 H 0.17775 0.79129 0.56678 0.0
H571 H 0.22962 0.81116 0.55159 0.0
C572 C 0.40144 0.87999 0.53611 0.0
C573 C 0.39674 0.90677 0.53116 0.0
C574 C 0.37361 0.84891 0.53969 0.0
C575 C 0.34092 0.84441 0.53832 0.0
C576 C 0.33693 0.87257 0.53604 0.0
C577 C 0.36461 0.90352 0.53237 0.0
C578 C 0.31176 0.81082 0.53385 0.0
C579 C 0.2823 0.79824 0.54266 0.0
C580 C 0.31075 0.79526 0.51875 0.0
C581 C 0.33982 0.80996 0.50807 0.0
C582 C 0.34694 0.83873 0.4993 0.0
C583 C 0.375 0.85343 0.4896 0.0
C584 C 0.39595 0.83939 0.48852 0.0
C585 C 0.38877 0.8105 0.49706 0.0
C586 C 0.36069 0.7957 0.5068 0.0
C587 C 0.17483 0.7466 0.49483 0.0
C588 C 0.16776 0.71806 0.48517 0.0
C589 C 0.19991 0.75833 0.50718 0.0
C590 C 0.21827 0.74169 0.51015 0.0
C591 C 0.21007 0.71219 0.50108 0.0
C592 C 0.18493 0.70038 0.48874 0.0
C593 C 0.24996 0.75907 0.52025 0.0
C594 C 0.28007 0.76903 0.51233 0.0
C595 C 0.25116 0.7724 0.53599 0.0
C596 C 0.22 0.76075 0.54522 0.0
C597 C 0.19725 0.72597 0.54663 0.0
C598 C 0.1678 0.71497 0.5552 0.0
C599 C 0.1608 0.7385 0.56247 0.0
C600 C 0.18325 0.77309 0.56118 0.0
C601 C 0.21274 0.78424 0.55262 0.0
H602 H 0.13797 0.72992 0.56909 0.0
H603 H 0.41775 0.85102 0.48108 0.0
H604 H 0.54024 0.35129 0.86857 0.0
H605 H 0.54885 0.30449 0.87633 0.0
H606 H 0.62553 0.33391 0.84089 0.0
H607 H 0.61766 0.38085 0.83352 0.0
H608 H 0.53282 0.25476 0.85719 0.0
H609 H 0.67667 0.30486 0.84579 0.0
H610 H 0.7318 0.35457 0.85374 0.0
H611 H 0.68831 0.37436 0.89493 0.0
H612 H 0.633 0.32451 0.8874 0.0
H613 H 0.59856 0.17543 0.80596 0.0
H614 H 0.6137 0.22313 0.8245 0.0
H615 H 0.55256 0.15507 0.8609 0.0
H616 H 0.53767 0.10677 0.84242 0.0
H617 H 0.63816 0.24857 0.85667 0.0
H618 H 0.50124 0.18513 0.87236 0.0
H619 H 0.44579 0.13623 0.86376 0.0
H620 H 0.47627 0.14686 0.81449 0.0
H621 H 0.53161 0.19609 0.8228 0.0
C622 C 0.55951 0.34814 0.86277 0.0
C623 C 0.57808 0.36942 0.85035 0.0
C624 C 0.56457 0.32158 0.86728 0.0
C625 C 0.58802 0.31571 0.85931 0.0
C626 C 0.60796 0.33829 0.84758 0.0
C627 C 0.60323 0.36504 0.84324 0.0
C628 C 0.5872 0.28296 0.8607 0.0
C629 C 0.55586 0.25339 0.85778 0.0
C630 C 0.61715 0.28091 0.86135 0.0
C631 C 0.65057 0.31082 0.86601 0.0
C632 C 0.67887 0.31959 0.85663 0.0
C633 C 0.71016 0.34788 0.86104 0.0
C634 C 0.71354 0.36758 0.87483 0.0
C635 C 0.68563 0.35909 0.88423 0.0
C636 C 0.65429 0.33085 0.87988 0.0
C637 C 0.58939 0.17037 0.81811 0.0
C638 C 0.56629 0.13732 0.82258 0.0
C639 C 0.59821 0.19775 0.82875 0.0
C640 C 0.58389 0.1926 0.84397 0.0
C641 C 0.56367 0.1595 0.84914 0.0
C642 C 0.55488 0.13201 0.8385 0.0
C643 C 0.58418 0.22148 0.85242 0.0
C644 C 0.61524 0.25008 0.85705 0.0
C645 C 0.55403 0.22283 0.85344 0.0
C646 C 0.52059 0.1939 0.84824 0.0
C647 C 0.49599 0.17704 0.8597 0.0
C648 C 0.46461 0.14931 0.85487 0.0
C649 C 0.45756 0.13837 0.8386 0.0
C650 C 0.48178 0.15529 0.8271 0.0
C651 C 0.51313 0.18311 0.83185 0.0
H652 H 0.4333 0.11684 0.8349 0.0
H653 H 0.73778 0.38938 0.87825 0.0
H654 H 0.5707 0.95019 0.47227 0.0
H655 H 0.57214 0.89774 0.47548 0.0
H656 H 0.61945 0.93307 0.52317 0.0
H657 H 0.62105 0.98679 0.51912 0.0
H658 H 0.64429 0.901 0.51435 0.0
H659 H 0.52523 0.86375 0.5103 0.0
H660 H 0.47196 0.85628 0.49801 0.0
H661 H 0.48334 0.80628 0.45623 0.0
H662 H 0.53688 0.81385 0.46818 0.0
H663 H 0.59769 0.73519 0.54292 0.0
H664 H 0.59915 0.78839 0.53723 0.0
H665 H 0.5936 0.76627 0.48602 0.0
H666 H 0.5928 0.71304 0.49168 0.0
H667 H 0.54793 0.78988 0.49576 0.0
H668 H 0.66618 0.82502 0.50243 0.0
H669 H 0.71653 0.8299 0.51684 0.0
H670 H 0.70203 0.88165 0.55693 0.0
H671 H 0.65129 0.87665 0.54285 0.0
C672 C 0.58148 0.94679 0.48343 0.0
C673 C 0.59572 0.97304 0.49541 0.0
C674 C 0.58189 0.91624 0.48543 0.0
C675 C 0.59495 0.90985 0.49987 0.0
C676 C 0.60914 0.93635 0.51184 0.0
C677 C 0.60994 0.96739 0.50955 0.0
C678 C 0.59464 0.87642 0.50249 0.0
C679 C 0.62271 0.87689 0.51046 0.0
C680 C 0.56725 0.844 0.49727 0.0
C681 C 0.53521 0.83968 0.49006 0.0
C682 C 0.51646 0.85137 0.49845 0.0
C683 C 0.48621 0.84709 0.49154 0.0
C684 C 0.47433 0.83087 0.47633 0.0
C685 C 0.49262 0.81887 0.468 0.0
C686 C 0.52289 0.82315 0.47483 0.0
C687 C 0.5968 0.74149 0.5304 0.0
C688 C 0.59507 0.7193 0.5178 0.0
C689 C 0.59776 0.77224 0.52715 0.0
C690 C 0.5965 0.78193 0.51115 0.0
C691 C 0.59458 0.75978 0.4985 0.0
C692 C 0.59433 0.72925 0.50176 0.0
C693 C 0.5971 0.81493 0.50775 0.0
C694 C 0.56921 0.81423 0.49966 0.0
C695 C 0.62417 0.84699 0.51321 0.0
C696 C 0.65476 0.85018 0.52164 0.0
C697 C 0.67357 0.8372 0.51437 0.0
C698 C 0.70221 0.84003 0.52247 0.0
C699 C 0.71242 0.856 0.53781 0.0
C700 C 0.69406 0.86925 0.54506 0.0
C701 C 0.66539 0.86645 0.53702 0.0
H702 H 0.7346 0.85817 0.54406 0.0
H703 H 0.45091 0.82747 0.47097 0.0
H704 H 0.71923 0.61915 0.84103 0.0
H705 H 0.77202 0.61823 0.84493 0.0
H706 H 0.72507 0.51871 0.82213 0.0
H707 H 0.67183 0.51914 0.81864 0.0
H708 H 0.76226 0.51822 0.84541 0.0
H709 H 0.7868 0.59677 0.8034 0.0
H710 H 0.79127 0.64688 0.79025 0.0
H711 H 0.86143 0.7114 0.82809 0.0
H712 H 0.85705 0.66162 0.84158 0.0
H713 H 0.95517 0.5836 0.8267 0.0
H714 H 0.90223 0.58399 0.82137 0.0
H715 H 0.87127 0.54962 0.86947 0.0
H716 H 0.92361 0.54883 0.87477 0.0
H717 H 0.87266 0.61539 0.83152 0.0
H718 H 0.78692 0.50598 0.87256 0.0
H719 H 0.78094 0.4526 0.88235 0.0
H720 H 0.83116 0.44437 0.84083 0.0
H721 H 0.83727 0.49763 0.83075 0.0
C722 C 0.71999 0.59702 0.83674 0.0
C723 C 0.69077 0.56931 0.82938 0.0
C724 C 0.7506 0.59659 0.83892 0.0
C725 C 0.75351 0.56862 0.83363 0.0
C726 C 0.7242 0.5408 0.82638 0.0
C727 C 0.6935 0.54113 0.82429 0.0
C728 C 0.78661 0.56812 0.83584 0.0
C729 C 0.7863 0.53963 0.84238 0.0
C730 C 0.81856 0.59546 0.83167 0.0
C731 C 0.82135 0.62544 0.82357 0.0
C732 C 0.80302 0.62163 0.80897 0.0
C733 C 0.80556 0.64997 0.80145 0.0
C734 C 0.82656 0.6823 0.80835 0.0
C735 C 0.84514 0.68635 0.82277 0.0
C736 C 0.84267 0.65808 0.83035 0.0
C737 C 0.93721 0.57616 0.8362 0.0
C738 C 0.94413 0.56571 0.85114 0.0
C739 C 0.90661 0.57635 0.83311 0.0
C740 C 0.88165 0.56615 0.84482 0.0
C741 C 0.889 0.55662 0.85988 0.0
C742 C 0.91937 0.5562 0.86294 0.0
C743 C 0.84837 0.56577 0.84142 0.0
C744 C 0.84863 0.59405 0.83463 0.0
C745 C 0.81626 0.53793 0.84503 0.0
C746 C 0.81282 0.50595 0.85099 0.0
C747 C 0.79662 0.49274 0.86551 0.0
C748 C 0.79323 0.46251 0.87111 0.0
C749 C 0.80569 0.44511 0.86222 0.0
C750 C 0.82161 0.45792 0.84772 0.0
C751 C 0.82511 0.48817 0.84208 0.0
H752 H 0.80298 0.42167 0.86656 0.0
H753 H 0.82849 0.70421 0.80251 0.0
H754 H 0.17258 0.70115 0.16876 0.0
H755 H 0.22642 0.75411 0.17262 0.0
H756 H 0.2803 0.70084 0.16362 0.0
H757 H 0.22643 0.64763 0.16003 0.0
H758 H 0.31283 0.74458 0.18726 0.0
H759 H 0.27177 0.75567 0.13517 0.0
H760 H 0.23086 0.75617 0.11522 0.0
H761 H 0.23083 0.8371 0.14237 0.0
H762 H 0.27144 0.83678 0.1626 0.0
H763 H 0.47494 0.89221 0.17936 0.0
H764 H 0.42141 0.83948 0.17468 0.0
H765 H 0.36692 0.89242 0.18281 0.0
H766 H 0.42054 0.94545 0.18739 0.0
H767 H 0.33473 0.84859 0.15945 0.0
H768 H 0.3761 0.8371 0.21164 0.0
H769 H 0.41683 0.83595 0.2315 0.0
H770 H 0.41623 0.75512 0.20395 0.0
H771 H 0.37584 0.7561 0.18381 0.0
C772 C 0.19579 0.70052 0.16752 0.0
C773 C 0.19455 0.66956 0.16394 0.0
C774 C 0.22691 0.73119 0.16966 0.0
C775 C 0.25821 0.73232 0.16822 0.0
C776 C 0.257 0.70133 0.16481 0.0
C777 C 0.22587 0.67063 0.16266 0.0
C778 C 0.2919 0.76543 0.17044 0.0
C779 C 0.31761 0.7671 0.18095 0.0
C780 C 0.29873 0.79565 0.16263 0.0
C781 C 0.27438 0.79597 0.15049 0.0
C782 C 0.26285 0.7734 0.13695 0.0
C783 C 0.23975 0.77368 0.12558 0.0
C784 C 0.22818 0.79659 0.12755 0.0
C785 C 0.23977 0.81934 0.14087 0.0
C786 C 0.26286 0.81914 0.15229 0.0
C787 C 0.45169 0.89287 0.18031 0.0
C788 C 0.45281 0.9238 0.18394 0.0
C789 C 0.4207 0.86228 0.17763 0.0
C790 C 0.38929 0.86102 0.17867 0.0
C791 C 0.39031 0.89199 0.18192 0.0
C792 C 0.42135 0.92267 0.18451 0.0
C793 C 0.35568 0.8278 0.17631 0.0
C794 C 0.32997 0.82609 0.16577 0.0
C795 C 0.34888 0.7975 0.18407 0.0
C796 C 0.37323 0.79694 0.19613 0.0
C797 C 0.38486 0.81927 0.20975 0.0
C798 C 0.40786 0.81862 0.22107 0.0
C799 C 0.41919 0.79555 0.21896 0.0
C800 C 0.40749 0.77303 0.20555 0.0
C801 C 0.38454 0.77361 0.19419 0.0
H802 H 0.43698 0.79508 0.22774 0.0
H803 H 0.2103 0.79677 0.11873 0.0
H804 H 0.54324 0.14072 0.49876 0.0
H805 H 0.54361 0.19416 0.50266 0.0
H806 H 0.65143 0.2491 0.4982 0.0
H807 H 0.65135 0.19575 0.49391 0.0
H808 H 0.56948 0.24388 0.52461 0.0
H809 H 0.67703 0.329 0.48265 0.0
H810 H 0.70379 0.3228 0.45833 0.0
H811 H 0.61165 0.23235 0.44363 0.0
H812 H 0.58426 0.23813 0.46781 0.0
H813 H 0.62142 0.41717 0.54197 0.0
H814 H 0.62 0.36383 0.53653 0.0
H815 H 0.57966 0.35886 0.48818 0.0
H816 H 0.58181 0.41303 0.49342 0.0
H817 H 0.62493 0.33797 0.48688 0.0
H818 H 0.52972 0.30865 0.5195 0.0
H819 H 0.49995 0.31239 0.5432 0.0
H820 H 0.56119 0.28842 0.57447 0.0
H821 H 0.59164 0.28499 0.55098 0.0
C822 C 0.56718 0.16409 0.49846 0.0
C823 C 0.59724 0.16329 0.49584 0.0
C824 C 0.56736 0.19494 0.5008 0.0
C825 C 0.59755 0.2264 0.50054 0.0
C826 C 0.62764 0.22564 0.49811 0.0
C827 C 0.62752 0.1948 0.49573 0.0
C828 C 0.59752 0.25965 0.50289 0.0
C829 C 0.58179 0.26437 0.51633 0.0
C830 C 0.61296 0.28685 0.49209 0.0
C831 C 0.62878 0.28373 0.47721 0.0
C832 C 0.66244 0.30783 0.47421 0.0
C833 C 0.67773 0.30438 0.46045 0.0
C834 C 0.65948 0.27711 0.44948 0.0
C835 C 0.62582 0.25336 0.45219 0.0
C836 C 0.61043 0.25668 0.46594 0.0
C837 C 0.61252 0.40517 0.53006 0.0
C838 C 0.60189 0.42026 0.51817 0.0
C839 C 0.61136 0.37407 0.527 0.0
C840 C 0.59938 0.35639 0.51193 0.0
C841 C 0.58901 0.37145 0.49995 0.0
C842 C 0.58999 0.40259 0.50304 0.0
C843 C 0.59757 0.32243 0.50881 0.0
C844 C 0.61284 0.31754 0.49521 0.0
C845 C 0.58149 0.29493 0.51937 0.0
C846 C 0.56316 0.29687 0.5335 0.0
C847 C 0.53699 0.30441 0.53145 0.0
C848 C 0.51998 0.30644 0.54484 0.0
C849 C 0.52873 0.30073 0.56034 0.0
C850 C 0.55446 0.29288 0.56247 0.0
C851 C 0.57159 0.29087 0.54912 0.0
H852 H 0.51552 0.30231 0.57069 0.0
H853 H 0.67138 0.27444 0.43885 0.0
H854 H 0.5262 0.62661 0.83016 0.0
H855 H 0.47395 0.62813 0.83423 0.0
H856 H 0.41742 0.51922 0.83363 0.0
H857 H 0.46943 0.51756 0.82957 0.0
H858 H 0.38162 0.54074 0.81707 0.0
H859 H 0.44415 0.57319 0.86775 0.0
H860 H 0.49317 0.60833 0.88613 0.0
H861 H 0.47771 0.6928 0.88008 0.0
H862 H 0.43002 0.65895 0.86064 0.0
H863 H 0.22781 0.52082 0.84874 0.0
H864 H 0.2799 0.51992 0.84375 0.0
H865 H 0.33661 0.62875 0.84735 0.0
H866 H 0.2847 0.62987 0.8523 0.0
H867 H 0.37233 0.60727 0.86254 0.0
H868 H 0.31788 0.58047 0.80985 0.0
H869 H 0.27158 0.54925 0.78935 0.0
H870 H 0.27218 0.45759 0.79943 0.0
H871 H 0.31824 0.48821 0.82014 0.0
C872 C 0.50268 0.60288 0.83081 0.0
C873 C 0.50257 0.57191 0.82951 0.0
C874 C 0.47254 0.60378 0.83321 0.0
C875 C 0.44106 0.57377 0.83441 0.0
C876 C 0.44091 0.54289 0.83279 0.0
C877 C 0.471 0.54198 0.83051 0.0
C878 C 0.40848 0.5742 0.83754 0.0
C879 C 0.37969 0.55501 0.82718 0.0
C880 C 0.4054 0.59341 0.85047 0.0
C881 C 0.43382 0.61362 0.8624 0.0
C882 C 0.45148 0.59942 0.87007 0.0
C883 C 0.47909 0.61914 0.88071 0.0
C884 C 0.48857 0.65277 0.88431 0.0
C885 C 0.47043 0.66676 0.87724 0.0
C886 C 0.44329 0.6474 0.86628 0.0
C887 C 0.25116 0.54471 0.84826 0.0
C888 C 0.25127 0.57542 0.85101 0.0
C889 C 0.28131 0.54416 0.8454 0.0
C890 C 0.31292 0.57429 0.845 0.0
C891 C 0.31307 0.60494 0.84766 0.0
C892 C 0.28298 0.60552 0.85055 0.0
C893 C 0.34565 0.57399 0.84202 0.0
C894 C 0.37437 0.59304 0.85244 0.0
C895 C 0.34889 0.55503 0.82907 0.0
C896 C 0.32121 0.53653 0.81667 0.0
C897 C 0.30794 0.55359 0.80779 0.0
C898 C 0.28179 0.53603 0.79611 0.0
C899 C 0.26887 0.50144 0.79313 0.0
C900 C 0.28217 0.48437 0.80178 0.0
C901 C 0.30831 0.50182 0.81348 0.0
H902 H 0.24863 0.48788 0.78408 0.0
H903 H 0.50991 0.66796 0.89258 0.0
H904 H 0.97278 0.5016 0.16051 0.0
H905 H 0.92012 0.44917 0.16505 0.0
H906 H 0.97437 0.39454 0.16655 0.0
H907 H 1.02736 0.44712 0.16202 0.0
H908 H 0.91416 0.35678 0.14984 0.0
H909 H 0.94719 0.41287 0.20195 0.0
H910 H 0.96694 0.46207 0.22085 0.0
H911 H 0.87721 0.46674 0.2095 0.0
H912 H 0.8574 0.41819 0.19006 0.0
H913 H 0.78211 0.20615 0.18346 0.0
H914 H 0.83502 0.25779 0.17825 0.0
H915 H 0.78375 0.31524 0.18002 0.0
H916 H 0.73082 0.26379 0.18537 0.0
H917 H 0.84316 0.35195 0.19517 0.0
H918 H 0.80971 0.29327 0.14331 0.0
H919 H 0.7924 0.24523 0.12395 0.0
H920 H 0.88519 0.24585 0.13479 0.0
H921 H 0.90288 0.29365 0.15437 0.0
C922 C 0.97371 0.47848 0.16167 0.0
C923 C 1.00486 0.47909 0.1608 0.0
C924 C 0.9433 0.44827 0.16441 0.0
C925 C 0.94269 0.41732 0.16635 0.0
C926 C 0.97364 0.4177 0.16513 0.0
C927 C 1.00417 0.44803 0.16255 0.0
C928 C 0.91006 0.38497 0.16987 0.0
C929 C 0.89896 0.35571 0.1599 0.0
C930 C 0.88935 0.38306 0.18279 0.0
C931 C 0.9007 0.4118 0.19463 0.0
C932 C 0.93168 0.42444 0.20345 0.0
C933 C 0.94295 0.45228 0.2142 0.0
C934 C 0.92328 0.46748 0.21636 0.0
C935 C 0.89231 0.45486 0.20779 0.0
C936 C 0.88104 0.42718 0.19692 0.0
C937 C 0.78174 0.22958 0.18257 0.0
C938 C 0.75141 0.23003 0.18488 0.0
C939 C 0.8124 0.25948 0.17958 0.0
C940 C 0.8141 0.29116 0.17855 0.0
C941 C 0.78387 0.29167 0.18085 0.0
C942 C 0.75326 0.26184 0.18393 0.0
C943 C 0.84703 0.32348 0.17509 0.0
C944 C 0.85824 0.35287 0.18509 0.0
C945 C 0.86796 0.32545 0.16221 0.0
C946 C 0.85745 0.29681 0.15042 0.0
C947 C 0.82631 0.28301 0.14164 0.0
C948 C 0.81645 0.25584 0.13062 0.0
C949 C 0.83764 0.24243 0.12817 0.0
C950 C 0.86878 0.25623 0.13671 0.0
C951 C 0.87875 0.28337 0.14777 0.0
H952 H 0.82996 0.2214 0.11963 0.0
H953 H 0.93204 0.48905 0.22467 0.0
H954 H 0.06968 0.59854 0.10444 0.0
H955 H 0.06969 0.59683 0.07476 0.0
H956 H 0.12877 0.54713 0.07654 0.0
H957 H 0.12828 0.54806 0.10622 0.0
H958 H 0.1528 0.60457 0.05506 0.0
H959 H 1.05162 0.50049 0.06646 0.0
H960 H 0.99665 0.46613 0.07887 0.0
H961 H 0.95665 0.52097 0.05375 0.0
H962 H 1.01159 0.55603 0.04138 0.0
H963 H 0.14182 0.56069 0.97146 0.0
H964 H 0.14148 0.5606 0.00107 0.0
H965 H 1.05871 0.58081 -0.00031 0.0
H966 H 1.05815 0.57947 0.97005 0.0
H967 H 1.04691 0.53831 0.02147 0.0
H968 H 0.14534 0.64313 0.01042 0.0
H969 H 0.19997 0.68087 0.9984 0.0
H970 H 0.24501 0.63012 0.02307 0.0
H971 H 0.19051 0.59176 0.03507 0.0
C972 C 0.08269 0.58723 0.09853 0.0
C973 C 0.09893 0.57337 0.10774 0.0
C974 C 0.08259 0.58621 0.08156 0.0
C975 C 0.09918 0.5718 0.07341 0.0
C976 C 0.11582 0.55837 0.08256 0.0
C977 C 0.11538 0.5588 0.09953 0.0
C978 C 0.09911 0.57072 0.05536 0.0
C979 C 0.12975 0.58975 0.04768 0.0
C980 C 0.0689 0.55225 0.04574 0.0
C981 C 1.03583 0.53113 0.05313 0.0
C982 C 1.03121 0.50545 0.0637 0.0
C983 C 1.00003 0.4858 0.07071 0.0
C984 C 0.9732 0.49143 0.06714 0.0
C985 C 0.97747 0.51667 0.05653 0.0
C986 C 1.00862 0.53642 0.04951 0.0
C987 C 0.12365 0.56525 0.97749 0.0
C988 C 0.1001 0.57022 0.9684 0.0
C989 C 0.12355 0.56535 0.99447 0.0
C990 C 0.10049 0.57136 0.00281 0.0
C991 C 0.07681 0.57611 0.99368 0.0
C992 C 0.0765 0.57539 0.9767 0.0
C993 C 0.10074 0.57231 0.02097 0.0
C994 C 0.07009 0.55324 0.02874 0.0
C995 C 0.13092 0.5913 0.03068 0.0
C996 C 0.16375 0.61436 0.02352 0.0
C997 C 0.16684 0.63986 0.01319 0.0
C998 C 0.19778 0.66139 0.00639 0.0
C999 C 0.22592 0.65784 0.00993 0.0
C1000 C 0.22318 0.6328 0.02032 0.0
C1001 C 0.19228 0.61118 0.02713 0.0
H1002 H 0.24986 0.67453 0.00466 0.0
H1003 H 0.94908 0.47618 0.07257 0.0
H1004 H 0.65581 0.09641 0.44094 0.0
H1005 H 0.65874 0.09885 0.41129 0.0
H1006 H 0.54988 0.04561 0.40661 0.0
H1007 H 0.54673 1.04379 0.43614 0.0
H1008 H 0.58415 1.02029 0.38565 0.0
H1009 H 0.58512 0.1233 0.40133 0.0
H1010 H 0.60706 0.17736 0.41676 0.0
H1011 H 0.70384 0.21469 0.39583 0.0
H1012 H 0.6826 0.16061 0.38046 0.0
H1013 H 0.55536 1.03777 0.30292 0.0
H1014 H 0.5552 1.03709 0.3325 0.0
H1015 H 0.65964 0.11683 0.33515 0.0
H1016 H 0.65926 0.11854 0.30551 0.0
H1017 H 0.63017 0.129 0.35769 0.0
H1018 H 0.6319 1.02901 0.34179 0.0
H1019 H 0.6134 0.97489 0.32697 0.0
H1020 H 0.51687 0.93157 0.34873 0.0
H1021 H 0.53463 0.98558 0.36353 0.0
C1022 C 0.63251 0.08516 0.43359 0.0
C1023 C 0.60104 0.06997 0.44093 0.0
C1024 C 0.63422 0.08666 0.41666 0.0
C1025 C 0.60451 0.07246 0.40673 0.0
C1026 C 0.57311 0.05672 0.41402 0.0
C1027 C 0.57139 0.05582 0.43092 0.0
C1028 C 0.60601 0.07412 0.38875 0.0
C1029 C 0.59388 1.04399 0.37949 0.0
C1030 C 0.61968 0.10515 0.38076 0.0
C1031 C 0.63238 0.13776 0.38989 0.0
C1032 C 0.61117 0.14291 0.40013 0.0
C1033 C 0.62346 0.17358 0.40885 0.0
C1034 C 0.65686 0.1994 0.40732 0.0
C1035 C 0.678 0.19464 0.39703 0.0
C1036 C 0.66584 0.164 0.3883 0.0
C1037 C 0.5783 0.05509 0.30982 0.0
C1038 C 0.60738 0.07805 0.30186 0.0
C1039 C 0.57829 0.05459 0.32678 0.0
C1040 C 0.60766 0.07637 0.33623 0.0
C1041 C 0.63662 0.09966 0.32826 0.0
C1042 C 0.63643 0.10061 0.31128 0.0
C1043 C 0.60805 0.07498 0.35437 0.0
C1044 C 0.62055 0.1052 0.36373 0.0
C1045 C 0.59525 1.04401 0.36249 0.0
C1046 C 0.5845 1.01145 0.35365 0.0
C1047 C 0.60664 1.00801 0.34333 0.0
C1048 C 0.5963 0.97735 0.33495 0.0
C1049 C 0.56395 0.94984 0.33688 0.0
C1050 C 0.5419 0.95291 0.34723 0.0
C1051 C 0.55211 0.98353 0.35563 0.0
H1052 H 0.55599 0.92612 0.33037 0.0
H1053 H 0.66632 0.22312 0.41408 0.0
H1054 H 0.65106 0.61268 0.77444 0.0
H1055 H 0.65339 0.61381 0.74488 0.0
H1056 H 0.54676 0.54072 0.74063 0.0
H1057 H 0.5446 0.5386 0.77009 0.0
H1058 H 0.57642 0.52364 0.71992 0.0
H1059 H 0.58197 0.62884 0.73323 0.0
H1060 H 0.60413 0.68459 0.74705 0.0
H1061 H 0.70042 0.71931 0.72601 0.0
H1062 H 0.67896 0.66359 0.71222 0.0
H1063 H 0.54766 0.545 0.63686 0.0
H1064 H 0.54816 0.54631 0.6665 0.0
H1065 H 0.65704 0.60554 0.66837 0.0
H1066 H 0.65672 0.60457 0.63867 0.0
H1067 H 0.62794 0.6302 0.68999 0.0
H1068 H 0.61977 0.52367 0.67603 0.0
H1069 H 0.59528 0.46799 0.66184 0.0
H1070 H 0.50048 0.43608 0.68394 0.0
H1071 H 0.52428 0.49177 0.69809 0.0
C1072 C 0.62807 0.59697 0.76721 0.0
C1073 C 0.59764 0.57557 0.7747 0.0
C1074 C 0.62938 0.59775 0.75025 0.0
C1075 C 0.60015 0.57765 0.74036 0.0
C1076 C 0.56974 0.55644 0.74787 0.0
C1077 C 0.56852 0.55533 0.76478 0.0
C1078 C 0.60119 0.578 0.72223 0.0
C1079 C 0.58731 0.54701 0.71343 0.0
C1080 C 0.616 0.60839 0.71358 0.0
C1081 C 0.62896 0.64192 0.72183 0.0
C1082 C 0.60795 0.64828 0.73165 0.0
C1083 C 0.62037 0.67989 0.73946 0.0
C1084 C 0.65369 0.70544 0.73745 0.0
C1085 C 0.67464 0.69947 0.72758 0.0
C1086 C 0.66235 0.66789 0.71976 0.0
C1087 C 0.57173 0.55849 0.64356 0.0
C1088 C 0.60216 0.57462 0.63534 0.0
C1089 C 0.57198 0.55903 0.66053 0.0
C1090 C 0.60265 0.57582 0.66973 0.0
C1091 C 0.63306 0.59236 0.66157 0.0
C1092 C 0.63285 0.59156 0.64458 0.0
C1093 C 0.60293 0.57591 0.68782 0.0
C1094 C 0.6171 0.60693 0.69656 0.0
C1095 C 0.58802 0.54556 0.69642 0.0
C1096 C 0.57372 0.512 0.688 0.0
C1097 C 0.59363 0.50487 0.67777 0.0
C1098 C 0.57988 0.4733 0.66975 0.0
C1099 C 0.54632 0.44854 0.67196 0.0
C1100 C 0.52646 0.45529 0.68223 0.0
C1101 C 0.54007 0.48685 0.69026 0.0
H1102 H 0.53573 0.42411 0.66574 0.0
H1103 H 0.66326 0.7299 0.74351 0.0
H1104 H 0.53623 1.03405 0.5411 0.0
H1105 H 0.53123 1.03681 0.57039 0.0
H1106 H 0.63808 0.10808 0.57609 0.0
H1107 H 0.64326 0.10613 0.54662 0.0
H1108 H 0.6065 0.04591 0.59736 0.0
H1109 H 0.59764 0.14218 0.58092 0.0
H1110 H 0.57489 0.17073 0.56393 0.0
H1111 H 0.4748 0.10295 0.57941 0.0
H1112 H 0.49689 0.07363 0.59629 0.0
H1113 H 0.5928 0.06769 0.68106 0.0
H1114 H 0.60884 0.07956 0.65308 0.0
H1115 H 0.50498 0.04501 0.6383 0.0
H1116 H 0.48927 1.03632 0.66641 0.0
H1117 H 0.54172 0.09506 0.62156 0.0
H1118 H 0.54559 0.99478 0.63498 0.0
H1119 H 0.56369 0.96048 0.65054 0.0
H1120 H 0.66704 1.02843 0.63954 0.0
H1121 H 0.64958 0.06336 0.62408 0.0
C1122 C 0.5587 0.05031 0.54857 0.0
C1123 C 0.59016 0.06987 0.54161 0.0
C1124 C 0.55575 0.05192 0.56526 0.0
C1125 C 0.58427 0.07271 0.57529 0.0
C1126 C 0.61584 0.09196 0.56846 0.0
C1127 C 0.61871 0.09088 0.55168 0.0
C1128 C 0.58076 0.07378 0.59294 0.0
C1129 C 0.59297 0.05722 0.60279 0.0
C1130 C 0.56218 0.08766 0.59976 0.0
C1131 C 0.5489 0.10553 0.58977 0.0
C1132 C 0.57074 0.13318 0.5806 0.0
C1133 C 0.55797 0.14954 0.57101 0.0
C1134 C 0.52341 0.13862 0.57057 0.0
C1135 C 0.50156 0.11137 0.57975 0.0
C1136 C 0.5142 0.0949 0.58935 0.0
C1137 C 0.57339 0.06331 0.67196 0.0
C1138 C 0.53957 0.05071 0.67612 0.0
C1139 C 0.58258 0.0696 0.65586 0.0
C1140 C 0.55802 0.06241 0.64347 0.0
C1141 C 0.52443 0.05057 0.6476 0.0
C1142 C 0.51536 0.04508 0.66372 0.0
C1143 C 0.56697 0.06658 0.62617 0.0
C1144 C 0.55571 0.08409 0.61631 0.0
C1145 C 0.58579 0.05285 0.61926 0.0
C1146 C 0.59632 1.03188 0.62855 0.0
C1147 C 0.5722 1.00253 0.63599 0.0
C1148 C 0.58234 0.98296 0.64477 0.0
C1149 C 0.6165 0.99233 0.64607 0.0
C1150 C 0.64059 1.02124 0.63855 0.0
C1151 C 0.63059 1.04092 0.62977 0.0
H1152 H 0.6243 0.97715 0.65287 0.0
H1153 H 0.51357 0.15132 0.56313 0.0
H1154 H 0.5716 0.50677 0.87374 0.0
H1155 H 0.56825 0.49979 0.90287 0.0
H1156 H 0.61363 0.60783 0.91053 0.0
H1157 H 0.61545 0.61474 0.88114 0.0
H1158 H 0.61174 0.51675 0.9254 0.0
H1159 H 0.59166 0.62722 0.94508 0.0
H1160 H 0.56302 0.65776 0.93538 0.0
H1161 H 0.49257 0.57037 0.90639 0.0
H1162 H 0.52102 0.5396 0.91577 0.0
H1163 H 0.62356 0.523 0.01118 0.0
H1164 H 0.63222 0.53881 0.98274 0.0
H1165 H 0.52829 0.51534 0.97736 0.0
H1166 H 0.52047 0.50163 0.00599 0.0
H1167 H 0.56302 0.56733 0.9617 0.0
H1168 H 0.55832 0.46027 0.964 0.0
H1169 H 0.57464 0.41922 0.97341 0.0
H1170 H 0.67514 0.48235 0.95716 0.0
H1171 H 0.65951 0.52399 0.94783 0.0
C1172 C 0.58076 0.52908 0.88161 0.0
C1173 C 0.59383 0.56133 0.87517 0.0
C1174 C 0.57892 0.52506 0.8983 0.0
C1175 C 0.59056 0.55322 0.90898 0.0
C1176 C 0.60386 0.58559 0.90257 0.0
C1177 C 0.60507 0.58957 0.88578 0.0
C1178 C 0.58912 0.54833 0.92677 0.0
C1179 C 0.60112 0.5279 0.93332 0.0
C1180 C 0.57496 0.56244 0.93717 0.0
C1181 C 0.55869 0.58131 0.93097 0.0
C1182 C 0.57019 0.61467 0.93655 0.0
C1183 C 0.55403 0.63204 0.93109 0.0
C1184 C 0.52612 0.61613 0.9202 0.0
C1185 C 0.5144 0.58286 0.91469 0.0
C1186 C 0.53062 0.56549 0.92001 0.0
C1187 C 0.60275 0.52143 0.00385 0.0
C1188 C 0.57136 0.51106 0.0106 0.0
C1189 C 0.60759 0.53027 0.98762 0.0
C1190 C 0.58075 0.52776 0.97777 0.0
C1191 C 0.54944 0.51763 0.98466 0.0
C1192 C 0.54489 0.50963 0.00097 0.0
C1193 C 0.58484 0.53507 0.96024 0.0
C1194 C 0.57378 0.55632 0.95378 0.0
C1195 C 0.59836 0.52036 0.94979 0.0
C1196 C 0.60786 0.49541 0.9554 0.0
C1197 C 0.58397 0.46551 0.96255 0.0
C1198 C 0.59308 0.44212 0.96785 0.0
C1199 C 0.62594 0.44823 0.96593 0.0
C1200 C 0.64972 0.47769 0.95867 0.0
C1201 C 0.64075 0.50119 0.95337 0.0
H1202 H 0.63294 0.43008 0.97004 0.0
H1203 H 0.51347 0.62952 0.91611 0.0
H1204 H 1.04277 0.52986 0.20753 0.0
H1205 H 1.03627 0.532 0.23668 0.0
H1206 H 0.14012 0.61252 0.24268 0.0
H1207 H 0.14723 0.60884 0.21351 0.0
H1208 H 0.12446 0.57448 0.26773 0.0
H1209 H 0.07072 0.62659 0.23834 0.0
H1210 H 1.03163 0.62845 0.21769 0.0
H1211 H 0.94721 0.54722 0.24022 0.0
H1212 H 0.98584 0.5444 0.26082 0.0
H1213 H 0.10881 0.65072 0.34012 0.0
H1214 H 0.11656 0.63939 0.31204 0.0
H1215 H 1.01691 0.55114 0.30961 0.0
H1216 H 1.00917 0.5618 0.33783 0.0
H1217 H 1.02943 0.5912 0.28312 0.0
H1218 H 0.08367 0.54102 0.31311 0.0
H1219 H 0.12316 0.53963 0.33364 0.0
H1220 H 0.20721 0.61895 0.30998 0.0
H1221 H 0.16817 0.62116 0.28943 0.0
C1222 C 1.06436 0.54756 0.21516 0.0
C1223 C 0.0954 0.56946 0.20839 0.0
C1224 C 1.06058 0.54893 0.23177 0.0
C1225 C 0.08736 0.57321 0.24179 0.0
C1226 C 0.11902 0.5938 0.23515 0.0
C1227 C 0.12309 0.59172 0.21853 0.0
C1228 C 0.08177 0.57846 0.25893 0.0
C1229 C 0.10392 0.57854 0.27107 0.0
C1230 C 1.05453 0.58311 0.26332 0.0
C1231 C 1.03122 0.58516 0.25107 0.0
C1232 C 1.04384 0.60901 0.23884 0.0
C1233 C 1.02177 0.61022 0.22714 0.0
C1234 C 0.98697 0.58798 0.22765 0.0
C1235 C 0.97417 0.56443 0.23984 0.0
C1236 C 0.99614 0.56302 0.25154 0.0
C1237 C 0.08865 0.6287 0.33368 0.0
C1238 C 1.0584 0.6071 0.34126 0.0
C1239 C 0.0931 0.62232 0.31763 0.0
C1240 C 0.06743 0.59425 0.30883 0.0
C1241 C 1.03701 0.57295 0.31622 0.0
C1242 C 1.03258 0.5792 0.33231 0.0
C1243 C 0.07221 0.58738 0.29184 0.0
C1244 C 1.04991 0.58707 0.27974 0.0
C1245 C 0.09942 0.58279 0.28749 0.0
C1246 C 0.12296 0.58148 0.29982 0.0
C1247 C 0.11055 0.55838 0.31236 0.0
C1248 C 0.13286 0.5574 0.32399 0.0
C1249 C 0.16766 0.57925 0.32314 0.0
C1250 C 0.18024 0.60207 0.31063 0.0
C1251 C 0.15803 0.60318 0.29899 0.0
H1252 H 0.1849 0.57844 0.33214 0.0
H1253 H 0.96991 0.58907 0.21865 0.0
loop_
_geom_bond_atom_site_label_1
_geom_bond_atom_site_label_2
_geom_bond_distance
_geom_bond_site_symmetry_2
_ccdc_geom_bond_type
Tb0 C10 2.825 . S
Tb0 O11 2.347 . S
Tb0 O14 2.366 . S
Tb0 O19 2.418 . S
Tb0 O20 2.384 1_455 S
Tb0 O23 2.479 . S
Tb0 O24 2.471 . S
Eu1 O12 2.418 . S
Eu1 O13 2.384 . S
Eu1 O16 2.479 1_455 S
Eu1 O17 2.471 1_455 S
Eu1 O18 2.347 . S
Eu1 O21 2.366 1_455 S
Eu1 C31 2.825 1_455 S
C2 O18 1.259 . S
C2 O19 1.265 . S
C3 O20 1.255 . S
C3 O21 1.265 . S
C4 C6 1.380 . S
C4 C7 1.374 . S
C4 C10 1.507 . S
C5 C6 1.384 . S
C5 C9 1.387 . S
C5 H32 0.930 . S
C6 C4 1.380 . S
C6 C5 1.384 . S
C6 H33 0.931 . S
C7 C4 1.374 . S
C7 C8 1.390 . S
C7 H34 0.930 . S
C8 C7 1.390 . S
C8 C9 1.391 . S
C8 H35 0.930 . S
C9 C5 1.387 . S
C9 C8 1.391 . S
C10 Tb0 2.825 . S
C10 C4 1.507 . S
C10 O23 1.238 . S
C10 O24 1.247 . S
O11 Tb0 2.347 . S
O11 C15 1.259 . S
O12 Eu1 2.418 . S
O12 C15 1.265 . S
O13 Eu1 2.384 . S
O13 C22 1.255 . S
O14 Tb0 2.366 . S
O14 C22 1.265 . S
C15 O11 1.259 . S
C15 O12 1.265 . S
O16 Eu1 2.479 1_655 S
O16 C31 1.238 . S
O17 Eu1 2.471 1_655 S
O17 C31 1.247 . S
O18 Eu1 2.347 . S
O18 C2 1.259 . S
O19 Tb0 2.418 . S
O19 C2 1.265 . S
O20 Tb0 2.384 1_655 S
O20 C3 1.255 . S
O21 Eu1 2.366 1_655 S
O21 C3 1.265 . S
C22 O13 1.255 . S
C22 O14 1.265 . S
O23 Tb0 2.479 . S
O23 C10 1.238 . S
O24 Tb0 2.471 . S
O24 C10 1.247 . S
C25 C28 1.380 . S
C25 C29 1.374 . S
C25 C31 1.507 . S
C26 C27 1.387 . S
C26 C30 1.391 . S
C27 C26 1.387 . S
C27 C28 1.384 . S
C27 H36 0.930 . S
C28 C25 1.380 . S
C28 C27 1.384 . S
C28 H37 0.931 . S
C29 C25 1.374 . S
C29 C30 1.390 . S
C29 H38 0.930 . S
C30 C26 1.391 . S
C30 C29 1.390 . S
C30 H39 0.930 . S
C31 Eu1 2.825 1_655 S
C31 O16 1.238 . S
C31 O17 1.247 . S
C31 C25 1.507 . S
H32 C5 0.930 . S
H33 C6 0.931 . S
H34 C7 0.930 . S
H35 C8 0.930 . S
H36 C27 0.930 . S
H37 C28 0.931 . S
H38 C29 0.930 . S
H39 C30 0.930 . S
Tb40 C50 2.825 . S
Tb40 O51 2.347 . S
Tb40 O54 2.366 . S
Tb40 O59 2.418 . S
Tb40 O60 2.384 . S
Tb40 O63 2.479 . S
Tb40 O64 2.471 . S
Eu41 O52 2.418 . S
Eu41 O53 2.384 . S
Eu41 O56 2.479 1_545 S
Eu41 O57 2.471 1_545 S
Eu41 O58 2.347 . S
Eu41 O61 2.366 1_545 S
Eu41 C71 2.825 1_545 S
C42 O58 1.259 . S
C42 O59 1.265 . S
C43 O60 1.255 1_565 S
C43 O61 1.265 . S
C44 C46 1.380 . S
C44 C47 1.374 . S
C44 C50 1.507 . S
C45 C46 1.384 . S
C45 C49 1.387 . S
C45 H72 0.930 . S
C46 C44 1.380 . S
C46 C45 1.384 . S
C46 H73 0.931 . S
C47 C44 1.374 . S
C47 C48 1.390 . S
C47 H74 0.930 . S
C48 C47 1.390 . S
C48 C49 1.391 . S
C48 H75 0.930 . S
C49 C45 1.387 . S
C49 C48 1.391 . S
C50 Tb40 2.825 . S
C50 C44 1.507 . S
C50 O63 1.238 . S
C50 O64 1.247 . S
O51 Tb40 2.347 . S
O51 C55 1.259 . S
O52 Eu41 2.418 . S
O52 C55 1.265 . S
O53 Eu41 2.384 . S
O53 C62 1.255 . S
O54 Tb40 2.366 . S
O54 C62 1.265 . S
C55 O51 1.259 . S
C55 O52 1.265 . S
O56 Eu41 2.479 1_565 S
O56 C71 1.238 . S
O57 Eu41 2.471 1_565 S
O57 C71 1.247 . S
O58 Eu41 2.347 . S
O58 C42 1.259 . S
O59 Tb40 2.418 . S
O59 C42 1.265 . S
O60 Tb40 2.384 . S
O60 C43 1.255 1_545 S
O61 Eu41 2.366 1_565 S
O61 C43 1.265 . S
C62 O53 1.255 . S
C62 O54 1.265 . S
O63 Tb40 2.479 . S
O63 C50 1.238 . S
O64 Tb40 2.471 . S
O64 C50 1.247 . S
C65 C68 1.380 . S
C65 C69 1.374 . S
C65 C71 1.507 . S
C66 C67 1.387 . S
C66 C70 1.391 . S
C67 C66 1.387 . S
C67 C68 1.384 . S
C67 H76 0.930 . S
C68 C65 1.380 . S
C68 C67 1.384 . S
C68 H77 0.931 . S
C69 C65 1.374 . S
C69 C70 1.390 . S
C69 H78 0.930 . S
C70 C66 1.391 . S
C70 C69 1.390 . S
C70 H79 0.930 . S
C71 Eu41 2.825 1_565 S
C71 O56 1.238 . S
C71 O57 1.247 . S
C71 C65 1.507 . S
H72 C45 0.930 . S
H73 C46 0.931 . S
H74 C47 0.930 . S
H75 C48 0.930 . S
H76 C67 0.930 . S
H77 C68 0.931 . S
H78 C69 0.930 . S
H79 C70 0.930 . S
Tb80 C90 2.825 . S
Tb80 O91 2.347 . S
Tb80 O94 2.366 . S
Tb80 O99 2.418 . S
Tb80 O100 2.384 . S
Tb80 O103 2.479 . S
Tb80 O104 2.471 . S
Eu81 O92 2.418 . S
Eu81 O93 2.384 . S
Eu81 O96 2.479 . S
Eu81 O97 2.471 . S
Eu81 O98 2.347 . S
Eu81 O101 2.366 . S
Eu81 C111 2.825 . S
C82 O98 1.259 . S
C82 O99 1.265 . S
C83 O100 1.255 . S
C83 O101 1.265 . S
C84 C86 1.380 . S
C84 C87 1.374 . S
C84 C90 1.507 . S
C85 C86 1.384 . S
C85 C89 1.387 . S
C85 H112 0.930 . S
C86 C84 1.380 . S
C86 C85 1.384 . S
C86 H113 0.931 . S
C87 C84 1.374 . S
C87 C88 1.390 . S
C87 H114 0.930 . S
C88 C87 1.390 . S
C88 C89 1.391 . S
C88 H115 0.930 . S
C89 C85 1.387 . S
C89 C88 1.391 . S
C90 Tb80 2.825 . S
C90 C84 1.507 . S
C90 O103 1.238 . S
C90 O104 1.247 . S
O91 Tb80 2.347 . S
O91 C95 1.259 . S
O92 Eu81 2.418 . S
O92 C95 1.265 . S
O93 Eu81 2.384 . S
O93 C102 1.255 . S
O94 Tb80 2.366 . S
O94 C102 1.265 . S
C95 O91 1.259 . S
C95 O92 1.265 . S
O96 Eu81 2.479 . S
O96 C111 1.238 . S
O97 Eu81 2.471 . S
O97 C111 1.247 . S
O98 Eu81 2.347 . S
O98 C82 1.259 . S
O99 Tb80 2.418 . S
O99 C82 1.265 . S
O100 Tb80 2.384 . S
O100 C83 1.255 . S
O101 Eu81 2.366 . S
O101 C83 1.265 . S
C102 O93 1.255 . S
C102 O94 1.265 . S
O103 Tb80 2.479 . S
O103 C90 1.238 . S
O104 Tb80 2.471 . S
O104 C90 1.247 . S
C105 C108 1.380 . S
C105 C109 1.374 . S
C105 C111 1.507 . S
C106 C107 1.387 . S
C106 C110 1.391 . S
C107 C106 1.387 . S
C107 C108 1.384 . S
C107 H116 0.930 . S
C108 C105 1.380 . S
C108 C107 1.384 . S
C108 H117 0.931 . S
C109 C105 1.374 . S
C109 C110 1.390 . S
C109 H118 0.930 . S
C110 C106 1.391 . S
C110 C109 1.390 . S
C110 H119 0.930 . S
C111 Eu81 2.825 . S
C111 O96 1.238 . S
C111 O97 1.247 . S
C111 C105 1.507 . S
H112 C85 0.930 . S
H113 C86 0.931 . S
H114 C87 0.930 . S
H115 C88 0.930 . S
H116 C107 0.930 . S
H117 C108 0.931 . S
H118 C109 0.930 . S
H119 C110 0.930 . S
C120 C121 1.386 . S
C120 C122 1.397 . S
C120 H144 0.931 . S
C121 C120 1.386 . S
C121 C125 1.397 1_545 S
C122 C120 1.397 . S
C122 C123 1.384 . S
C122 H145 0.930 . S
C123 C122 1.384 . S
C123 C124 1.377 1_545 S
C123 C126 1.481 . S
C124 C123 1.377 1_565 S
C124 C125 1.389 . S
C124 H146 0.929 . S
C125 C121 1.397 1_565 S
C125 C124 1.389 . S
C125 H147 0.931 . S
C126 C123 1.481 . S
C126 C127 1.387 . S
C126 C131 1.390 1_545 S
C127 C126 1.387 . S
C127 C128 1.401 . S
C127 H148 0.930 . S
C128 C127 1.401 . S
C128 C129 1.376 . S
C128 C137 1.511 . S
C129 C128 1.376 . S
C129 C130 1.392 1_545 S
C129 H150 0.931 . S
C130 C129 1.392 1_565 S
C130 C131 1.361 . S
C130 C132 1.500 . S
C131 C126 1.390 1_565 S
C131 C130 1.361 . S
C131 H149 0.931 . S
C132 C130 1.500 . S
C132 C133 1.371 . S
C132 C134 1.365 . S
C133 C132 1.371 . S
C133 C143 1.386 . S
C133 H151 0.931 . S
C134 C132 1.365 . S
C134 C135 1.409 . S
C134 H152 0.929 . S
C135 C134 1.409 . S
C135 C136 1.380 . S
C135 H153 0.930 . S
C136 C135 1.380 . S
C136 C143 1.357 . S
C137 C128 1.511 . S
C137 C138 1.341 . S
C137 C139 1.371 . S
C138 C137 1.341 . S
C138 C142 1.394 . S
C138 H154 0.930 . S
C139 C137 1.371 . S
C139 C140 1.392 . S
C139 H155 0.931 . S
C140 C139 1.392 . S
C140 C141 1.331 . S
C140 H158 0.932 . S
C141 C140 1.331 . S
C141 C142 1.336 . S
C142 C138 1.394 . S
C142 C141 1.336 . S
C142 H157 0.929 . S
C143 C133 1.386 . S
C143 C136 1.357 . S
C143 H156 0.928 . S
H144 C120 0.931 . S
H145 C122 0.930 . S
H146 C124 0.929 . S
H147 C125 0.931 . S
H148 C127 0.930 . S
H149 C131 0.931 . S
H150 C129 0.931 . S
H151 C133 0.931 . S
H152 C134 0.929 . S
H153 C135 0.930 . S
H154 C138 0.930 . S
H155 C139 0.931 . S
H156 C143 0.928 . S
H157 C142 0.929 . S
H158 C140 0.932 . S
C159 C160 1.386 . S
C159 C161 1.397 . S
C159 H183 0.931 . S
C160 C159 1.386 . S
C160 C164 1.397 . S
C161 C159 1.397 . S
C161 C162 1.384 . S
C161 H184 0.930 . S
C162 C161 1.384 . S
C162 C163 1.377 . S
C162 C165 1.481 . S
C163 C162 1.377 . S
C163 C164 1.389 . S
C163 H185 0.929 . S
C164 C160 1.397 . S
C164 C163 1.389 . S
C164 H186 0.931 . S
C165 C162 1.481 . S
C165 C166 1.387 . S
C165 C170 1.390 . S
C166 C165 1.387 . S
C166 C167 1.401 . S
C166 H187 0.930 . S
C167 C166 1.401 . S
C167 C168 1.376 . S
C167 C176 1.511 . S
C168 C167 1.376 . S
C168 C169 1.392 . S
C168 H189 0.931 . S
C169 C168 1.392 . S
C169 C170 1.361 . S
C169 C171 1.500 . S
C170 C165 1.390 . S
C170 C169 1.361 . S
C170 H188 0.931 . S
C171 C169 1.500 . S
C171 C172 1.371 . S
C171 C173 1.365 . S
C172 C171 1.371 . S
C172 C182 1.386 . S
C172 H190 0.931 . S
C173 C171 1.365 . S
C173 C174 1.409 . S
C173 H191 0.929 . S
C174 C173 1.409 . S
C174 C175 1.380 . S
C174 H192 0.930 . S
C175 C174 1.380 . S
C175 C182 1.357 . S
C176 C167 1.511 . S
C176 C177 1.341 . S
C176 C178 1.371 . S
C177 C176 1.341 . S
C177 C181 1.394 . S
C177 H193 0.930 . S
C178 C176 1.371 . S
C178 C179 1.392 . S
C178 H194 0.931 . S
C179 C178 1.392 . S
C179 C180 1.331 . S
C179 H197 0.932 . S
C180 C179 1.331 . S
C180 C181 1.336 . S
C181 C177 1.394 . S
C181 C180 1.336 . S
C181 H196 0.929 . S
C182 C172 1.386 . S
C182 C175 1.357 . S
C182 H195 0.928 . S
H183 C159 0.931 . S
H184 C161 0.930 . S
H185 C163 0.929 . S
H186 C164 0.931 . S
H187 C166 0.930 . S
H188 C170 0.931 . S
H189 C168 0.931 . S
H190 C172 0.931 . S
H191 C173 0.929 . S
H192 C174 0.930 . S
H193 C177 0.930 . S
H194 C178 0.931 . S
H195 C182 0.928 . S
H196 C181 0.929 . S
H197 C179 0.932 . S
C198 C199 1.386 . S
C198 C200 1.397 . S
C198 H222 0.931 . S
C199 C198 1.386 . S
C199 C203 1.397 1_455 S
C200 C198 1.397 . S
C200 C201 1.384 . S
C200 H223 0.930 . S
C201 C200 1.384 . S
C201 C202 1.377 1_455 S
C201 C204 1.481 . S
C202 C201 1.377 1_655 S
C202 C203 1.389 . S
C202 H224 0.929 . S
C203 C199 1.397 1_655 S
C203 C202 1.389 . S
C203 H225 0.931 . S
C204 C201 1.481 . S
C204 C205 1.387 . S
C204 C209 1.390 1_455 S
C205 C204 1.387 . S
C205 C206 1.401 . S
C205 H226 0.930 . S
C206 C205 1.401 . S
C206 C207 1.376 . S
C206 C215 1.511 . S
C207 C206 1.376 . S
C207 C208 1.392 1_455 S
C207 H228 0.931 . S
C208 C207 1.392 1_655 S
C208 C209 1.361 . S
C208 C210 1.500 . S
C209 C204 1.390 1_655 S
C209 C208 1.361 . S
C209 H227 0.931 . S
C210 C208 1.500 . S
C210 C211 1.371 . S
C210 C212 1.365 . S
C211 C210 1.371 . S
C211 C221 1.386 . S
C211 H229 0.931 . S
C212 C210 1.365 . S
C212 C213 1.409 . S
C212 H230 0.929 . S
C213 C212 1.409 . S
C213 C214 1.380 . S
C213 H231 0.930 . S
C214 C213 1.380 . S
C214 C221 1.357 . S
C215 C206 1.511 . S
C215 C216 1.341 . S
C215 C217 1.371 . S
C216 C215 1.341 . S
C216 C220 1.394 . S
C216 H232 0.930 . S
C217 C215 1.371 . S
C217 C218 1.392 . S
C217 H233 0.931 . S
C218 C217 1.392 . S
C218 C219 1.331 . S
C218 H236 0.932 . S
C219 C218 1.331 . S
C219 C220 1.336 . S
C220 C216 1.394 . S
C220 C219 1.336 . S
C220 H235 0.929 . S
C221 C211 1.386 . S
C221 C214 1.357 . S
C221 H234 0.928 . S
H222 C198 0.931 . S
H223 C200 0.930 . S
H224 C202 0.929 . S
H225 C203 0.931 . S
H226 C205 0.930 . S
H227 C209 0.931 . S
H228 C207 0.931 . S
H229 C211 0.931 . S
H230 C212 0.929 . S
H231 C213 0.930 . S
H232 C216 0.930 . S
H233 C217 0.931 . S
H234 C221 0.928 . S
H235 C220 0.929 . S
H236 C218 0.932 . S
C237 C238 1.386 1_655 S
C237 C239 1.397 . S
C237 H261 0.931 . S
C238 C237 1.386 1_455 S
C238 C242 1.397 . S
C239 C237 1.397 . S
C239 C240 1.384 1_655 S
C239 H262 0.930 . S
C240 C239 1.384 1_455 S
C240 C241 1.377 . S
C240 C243 1.481 . S
C241 C240 1.377 . S
C241 C242 1.389 . S
C241 H263 0.929 . S
C242 C238 1.397 . S
C242 C241 1.389 . S
C242 H264 0.931 . S
C243 C240 1.481 . S
C243 C244 1.387 1_455 S
C243 C248 1.390 . S
C244 C243 1.387 1_655 S
C244 C245 1.401 . S
C244 H265 0.930 . S
C245 C244 1.401 . S
C245 C246 1.376 1_655 S
C245 C254 1.511 . S
C246 C245 1.376 1_455 S
C246 C247 1.392 . S
C246 H267 0.931 . S
C247 C246 1.392 . S
C247 C248 1.361 . S
C247 C249 1.500 . S
C248 C243 1.390 . S
C248 C247 1.361 . S
C248 H266 0.931 . S
C249 C247 1.500 . S
C249 C250 1.371 . S
C249 C251 1.365 . S
C250 C249 1.371 . S
C250 C260 1.386 . S
C250 H268 0.931 . S
C251 C249 1.365 . S
C251 C252 1.409 . S
C251 H269 0.929 . S
C252 C251 1.409 . S
C252 C253 1.380 . S
C252 H270 0.930 . S
C253 C252 1.380 . S
C253 C260 1.357 . S
C254 C245 1.511 . S
C254 C255 1.341 . S
C254 C256 1.371 . S
C255 C254 1.341 . S
C255 C259 1.394 . S
C255 H271 0.930 . S
C256 C254 1.371 . S
C256 C257 1.392 . S
C256 H272 0.931 . S
C257 C256 1.392 . S
C257 C258 1.331 . S
C257 H275 0.932 . S
C258 C257 1.331 . S
C258 C259 1.336 . S
C259 C255 1.394 . S
C259 C258 1.336 . S
C259 H274 0.929 . S
C260 C250 1.386 . S
C260 C253 1.357 . S
C260 H273 0.928 . S
H261 C237 0.931 . S
H262 C239 0.930 . S
H263 C241 0.929 . S
H264 C242 0.931 . S
H265 C244 0.930 . S
H266 C248 0.931 . S
H267 C246 0.931 . S
H268 C250 0.931 . S
H269 C251 0.929 . S
H270 C252 0.930 . S
H271 C255 0.930 . S
H272 C256 0.931 . S
H273 C260 0.928 . S
H274 C259 0.929 . S
H275 C257 0.932 . S
C276 C277 1.386 1_565 S
C276 C278 1.397 . S
C276 H300 0.931 . S
C277 C276 1.386 1_545 S
C277 C281 1.397 . S
C278 C276 1.397 . S
C278 C279 1.384 1_565 S
C278 H301 0.930 . S
C279 C278 1.384 1_545 S
C279 C280 1.377 . S
C279 C282 1.482 . S
C280 C279 1.377 . S
C280 C281 1.389 . S
C280 H302 0.929 . S
C281 C277 1.397 . S
C281 C280 1.389 . S
C281 H303 0.931 . S
C282 C279 1.482 . S
C282 C283 1.355 1_545 S
C282 C287 1.423 . S
C283 C282 1.355 1_565 S
C283 C284 1.401 . S
C283 H304 0.930 . S
C284 C283 1.401 . S
C284 C285 1.369 1_565 S
C284 C293 1.511 . S
C285 C284 1.369 1_545 S
C285 C286 1.399 . S
C285 H306 0.931 1_545 S
C286 C285 1.399 . S
C286 C287 1.361 . S
C286 C288 1.500 . S
C287 C282 1.423 . S
C287 C286 1.361 . S
C287 H305 0.931 . S
C288 C286 1.500 . S
C288 C289 1.371 . S
C288 C290 1.365 . S
C289 C288 1.371 . S
C289 C299 1.386 . S
C289 H307 0.931 . S
C290 C288 1.365 . S
C290 C291 1.409 . S
C290 H308 0.929 . S
C291 C290 1.409 . S
C291 C292 1.380 . S
C291 H309 0.930 . S
C292 C291 1.380 . S
C292 C299 1.357 . S
C293 C284 1.511 . S
C293 C294 1.341 . S
C293 C295 1.371 . S
C294 C293 1.341 . S
C294 C298 1.394 . S
C294 H310 0.930 . S
C295 C293 1.371 . S
C295 C296 1.392 . S
C295 H311 0.931 . S
C296 C295 1.392 . S
C296 C297 1.331 . S
C296 H314 0.932 . S
C297 C296 1.331 . S
C297 C298 1.336 . S
C298 C294 1.394 . S
C298 C297 1.336 . S
C298 H313 0.929 . S
C299 C289 1.386 . S
C299 C292 1.357 . S
C299 H312 0.928 . S
H300 C276 0.931 . S
H301 C278 0.930 . S
H302 C280 0.929 . S
H303 C281 0.931 . S
H304 C283 0.930 . S
H305 C287 0.931 . S
H306 C285 0.931 1_565 S
H307 C289 0.931 . S
H308 C290 0.929 . S
H309 C291 0.930 . S
H310 C294 0.930 . S
H311 C295 0.931 . S
H312 C299 0.928 . S
H313 C298 0.929 . S
H314 C296 0.932 . S
C315 C316 1.386 . S
C315 C317 1.397 . S
C315 H339 0.931 . S
C316 C315 1.386 . S
C316 C320 1.397 . S
C317 C315 1.397 . S
C317 C318 1.384 . S
C317 H340 0.930 . S
C318 C317 1.384 . S
C318 C319 1.377 . S
C318 C321 1.481 . S
C319 C318 1.377 . S
C319 C320 1.389 . S
C319 H341 0.929 . S
C320 C316 1.397 . S
C320 C319 1.389 . S
C320 H342 0.931 . S
C321 C318 1.481 . S
C321 C322 1.387 . S
C321 C326 1.390 . S
C322 C321 1.387 . S
C322 C323 1.401 . S
C322 H343 0.930 . S
C323 C322 1.401 . S
C323 C324 1.376 . S
C323 C332 1.511 . S
C324 C323 1.376 . S
C324 C325 1.392 . S
C324 H345 0.931 . S
C325 C324 1.392 . S
C325 C326 1.361 . S
C325 C327 1.500 . S
C326 C321 1.390 . S
C326 C325 1.361 . S
C326 H344 0.931 . S
C327 C325 1.500 . S
C327 C328 1.371 . S
C327 C329 1.365 . S
C328 C327 1.371 . S
C328 C338 1.386 . S
C328 H346 0.931 . S
C329 C327 1.365 . S
C329 C330 1.409 . S
C329 H347 0.929 . S
C330 C329 1.409 . S
C330 C331 1.380 . S
C330 H348 0.930 . S
C331 C330 1.380 . S
C331 C338 1.357 . S
C332 C323 1.511 . S
C332 C333 1.341 . S
C332 C334 1.371 . S
C333 C332 1.341 . S
C333 C337 1.394 . S
C333 H349 0.930 . S
C334 C332 1.371 . S
C334 C335 1.392 . S
C334 H350 0.931 . S
C335 C334 1.392 . S
C335 C336 1.331 . S
C335 H353 0.932 . S
C336 C335 1.331 . S
C336 C337 1.336 . S
C337 C333 1.394 . S
C337 C336 1.336 . S
C337 H352 0.929 . S
C338 C328 1.386 . S
C338 C331 1.357 . S
C338 H351 0.928 . S
H339 C315 0.931 . S
H340 C317 0.930 . S
H341 C319 0.929 . S
H342 C320 0.931 . S
H343 C322 0.930 . S
H344 C326 0.931 . S
H345 C324 0.931 . S
H346 C328 0.931 . S
H347 C329 0.929 . S
H348 C330 0.930 . S
H349 C333 0.930 . S
H350 C334 0.931 . S
H351 C338 0.928 . S
H352 C337 0.929 . S
H353 C335 0.932 . S
H354 C372 0.951 . S
H355 C374 0.951 . S
H356 C376 0.950 . S
H357 C377 0.950 . S
H358 C379 0.950 . S
H359 C382 0.950 . S
H360 C383 0.950 . S
H361 C385 0.950 . S
H362 C386 0.950 . S
H363 C387 0.951 . S
H364 C389 0.951 . S
H365 C391 0.950 . S
H366 C392 0.950 . S
H367 C394 0.950 . S
H368 C397 0.950 . S
H369 C398 0.950 . S
H370 C400 0.950 . S
H371 C401 0.950 . S
C372 H354 0.951 . S
C372 C373 1.366 . S
C372 C374 1.388 . S
C373 C372 1.366 . S
C373 C377 1.385 . S
C374 H355 0.951 . S
C374 C372 1.388 . S
C374 C375 1.366 . S
C375 C374 1.366 . S
C375 C376 1.414 . S
C375 C378 1.499 . S
C376 H356 0.950 . S
C376 C375 1.414 . S
C376 C377 1.374 . S
C377 H357 0.950 . S
C377 C373 1.385 . S
C377 C376 1.374 . S
C378 C375 1.499 . S
C378 C379 1.373 . S
C378 C380 1.389 . S
C379 H358 0.950 . S
C379 C378 1.373 . S
C379 C395 1.377 . S
C380 C378 1.389 . S
C380 C381 1.524 . S
C380 C394 1.377 . S
C381 C380 1.524 . S
C381 C382 1.397 . S
C381 C386 1.363 . S
C382 H359 0.950 . S
C382 C381 1.397 . S
C382 C383 1.334 . S
C383 H360 0.950 . S
C383 C382 1.334 . S
C383 C384 1.287 . S
C384 C383 1.287 . S
C384 C385 1.524 . S
C384 H403 0.913 . S
C385 H361 0.950 . S
C385 C384 1.524 . S
C385 C386 1.415 . S
C386 H362 0.950 . S
C386 C381 1.363 . S
C386 C385 1.415 . S
C387 H363 0.951 . S
C387 C388 1.366 . S
C387 C389 1.388 . S
C388 C387 1.366 . S
C388 C392 1.385 . S
C389 H364 0.951 . S
C389 C387 1.388 . S
C389 C390 1.366 . S
C390 C389 1.366 . S
C390 C391 1.414 . S
C390 C393 1.499 . S
C391 H365 0.950 . S
C391 C390 1.414 . S
C391 C392 1.374 . S
C392 H366 0.950 . S
C392 C388 1.385 . S
C392 C391 1.374 . S
C393 C390 1.499 . S
C393 C394 1.373 . S
C393 C395 1.389 . S
C394 H367 0.950 . S
C394 C380 1.377 . S
C394 C393 1.373 . S
C395 C379 1.377 . S
C395 C393 1.389 . S
C395 C396 1.524 . S
C396 C395 1.524 . S
C396 C397 1.397 . S
C396 C401 1.363 . S
C397 H368 0.950 . S
C397 C396 1.397 . S
C397 C398 1.334 . S
C398 H369 0.950 . S
C398 C397 1.334 . S
C398 C399 1.287 . S
C399 C398 1.287 . S
C399 C400 1.524 . S
C399 H402 0.999 . S
C400 H370 0.950 . S
C400 C399 1.524 . S
C400 C401 1.415 . S
C401 H371 0.950 . S
C401 C396 1.363 . S
C401 C400 1.415 . S
H402 C399 0.999 . S
H403 C384 0.913 . S
H404 C422 0.951 . S
H405 C424 0.951 . S
H406 C426 0.950 . S
H407 C427 0.950 . S
H408 C429 0.950 . S
H409 C432 0.950 . S
H410 C433 0.950 . S
H411 C435 0.950 . S
H412 C436 0.950 . S
H413 C437 0.951 . S
H414 C439 0.951 . S
H415 C441 0.950 . S
H416 C442 0.950 . S
H417 C444 0.950 . S
H418 C447 0.950 . S
H419 C448 0.950 . S
H420 C450 0.950 . S
H421 C451 0.950 . S
C422 H404 0.951 . S
C422 C423 1.366 . S
C422 C424 1.388 . S
C423 C422 1.366 . S
C423 C427 1.385 . S
C424 H405 0.951 . S
C424 C422 1.388 . S
C424 C425 1.366 . S
C425 C424 1.366 . S
C425 C426 1.414 . S
C425 C428 1.499 . S
C426 H406 0.950 . S
C426 C425 1.414 . S
C426 C427 1.374 . S
C427 H407 0.950 . S
C427 C423 1.385 . S
C427 C426 1.374 . S
C428 C425 1.499 . S
C428 C429 1.373 . S
C428 C430 1.389 . S
C429 H408 0.950 . S
C429 C428 1.373 . S
C429 C445 1.377 . S
C430 C428 1.389 . S
C430 C431 1.524 . S
C430 C444 1.377 . S
C431 C430 1.524 . S
C431 C432 1.397 . S
C431 C436 1.363 . S
C432 H409 0.950 . S
C432 C431 1.397 . S
C432 C433 1.334 . S
C433 H410 0.950 . S
C433 C432 1.334 . S
C433 C434 1.287 . S
C434 C433 1.287 . S
C434 C435 1.524 . S
C434 H453 0.913 . S
C435 H411 0.950 . S
C435 C434 1.524 . S
C435 C436 1.415 . S
C436 H412 0.950 . S
C436 C431 1.363 . S
C436 C435 1.415 . S
C437 H413 0.951 . S
C437 C438 1.366 . S
C437 C439 1.388 . S
C438 C437 1.366 . S
C438 C442 1.385 . S
C439 H414 0.951 . S
C439 C437 1.388 . S
C439 C440 1.366 . S
C440 C439 1.366 . S
C440 C441 1.414 . S
C440 C443 1.499 . S
C441 H415 0.950 . S
C441 C440 1.414 . S
C441 C442 1.374 . S
C442 H416 0.950 . S
C442 C438 1.385 . S
C442 C441 1.374 . S
C443 C440 1.499 . S
C443 C444 1.373 . S
C443 C445 1.389 . S
C444 H417 0.950 . S
C444 C430 1.377 . S
C444 C443 1.373 . S
C445 C429 1.377 . S
C445 C443 1.389 . S
C445 C446 1.524 . S
C446 C445 1.524 . S
C446 C447 1.397 . S
C446 C451 1.363 . S
C447 H418 0.950 . S
C447 C446 1.397 . S
C447 C448 1.334 . S
C448 H419 0.950 . S
C448 C447 1.334 . S
C448 C449 1.287 . S
C449 C448 1.287 . S
C449 C450 1.524 . S
C449 H452 0.999 . S
C450 H420 0.950 . S
C450 C449 1.524 . S
C450 C451 1.415 . S
C451 H421 0.950 . S
C451 C446 1.363 . S
C451 C450 1.415 . S
H452 C449 0.999 . S
H453 C434 0.913 . S
H454 C472 0.951 . S
H455 C474 0.951 . S
H456 C476 0.950 . S
H457 C477 0.950 . S
H458 C479 0.950 . S
H459 C482 0.950 . S
H460 C483 0.950 . S
H461 C485 0.950 . S
H462 C486 0.950 . S
H463 C487 0.951 . S
H464 C489 0.951 . S
H465 C491 0.950 . S
H466 C492 0.950 . S
H467 C494 0.950 . S
H468 C497 0.950 . S
H469 C498 0.950 . S
H470 C500 0.950 . S
H471 C501 0.950 . S
C472 H454 0.951 . S
C472 C473 1.366 . S
C472 C474 1.388 . S
C473 C472 1.366 . S
C473 C477 1.385 . S
C474 H455 0.951 . S
C474 C472 1.388 . S
C474 C475 1.366 . S
C475 C474 1.366 . S
C475 C476 1.414 . S
C475 C478 1.499 . S
C476 H456 0.950 . S
C476 C475 1.414 . S
C476 C477 1.374 . S
C477 H457 0.950 . S
C477 C473 1.385 . S
C477 C476 1.374 . S
C478 C475 1.499 . S
C478 C479 1.373 . S
C478 C480 1.389 . S
C479 H458 0.950 . S
C479 C478 1.373 . S
C479 C495 1.377 . S
C480 C478 1.389 . S
C480 C481 1.524 . S
C480 C494 1.377 . S
C481 C480 1.524 . S
C481 C482 1.397 . S
C481 C486 1.363 . S
C482 H459 0.950 . S
C482 C481 1.397 . S
C482 C483 1.334 . S
C483 H460 0.950 . S
C483 C482 1.334 . S
C483 C484 1.287 . S
C484 C483 1.287 . S
C484 C485 1.524 . S
C484 H503 0.913 . S
C485 H461 0.950 . S
C485 C484 1.524 . S
C485 C486 1.415 . S
C486 H462 0.950 . S
C486 C481 1.363 . S
C486 C485 1.415 . S
C487 H463 0.951 . S
C487 C488 1.366 . S
C487 C489 1.388 . S
C488 C487 1.366 . S
C488 C492 1.385 . S
C489 H464 0.951 . S
C489 C487 1.388 . S
C489 C490 1.366 . S
C490 C489 1.366 . S
C490 C491 1.414 . S
C490 C493 1.499 . S
C491 H465 0.950 . S
C491 C490 1.414 . S
C491 C492 1.374 . S
C492 H466 0.950 . S
C492 C488 1.385 . S
C492 C491 1.374 . S
C493 C490 1.499 . S
C493 C494 1.373 . S
C493 C495 1.389 . S
C494 H467 0.950 . S
C494 C480 1.377 . S
C494 C493 1.373 . S
C495 C479 1.377 . S
C495 C493 1.389 . S
C495 C496 1.524 . S
C496 C495 1.524 . S
C496 C497 1.397 . S
C496 C501 1.363 . S
C497 H468 0.950 . S
C497 C496 1.397 . S
C497 C498 1.334 . S
C498 H469 0.950 . S
C498 C497 1.334 . S
C498 C499 1.287 . S
C499 C498 1.287 . S
C499 C500 1.524 . S
C499 H502 0.999 . S
C500 H470 0.950 . S
C500 C499 1.524 . S
C500 C501 1.415 . S
C501 H471 0.950 . S
C501 C496 1.363 . S
C501 C500 1.415 . S
H502 C499 0.999 . S
H503 C484 0.913 . S
H504 C522 0.951 . S
H505 C524 0.951 . S
H506 C526 0.950 . S
H507 C527 0.950 . S
H508 C529 0.950 . S
H509 C532 0.950 . S
H510 C533 0.950 . S
H511 C535 0.950 . S
H512 C536 0.950 . S
H513 C537 0.951 . S
H514 C539 0.951 . S
H515 C541 0.950 . S
H516 C542 0.950 . S
H517 C544 0.950 . S
H518 C547 0.950 . S
H519 C548 0.950 . S
H520 C550 0.950 . S
H521 C551 0.950 . S
C522 H504 0.951 . S
C522 C523 1.366 . S
C522 C524 1.388 . S
C523 C522 1.366 . S
C523 C527 1.385 . S
C524 H505 0.951 . S
C524 C522 1.388 . S
C524 C525 1.366 . S
C525 C524 1.366 . S
C525 C526 1.414 . S
C525 C528 1.499 . S
C526 H506 0.950 . S
C526 C525 1.414 . S
C526 C527 1.374 . S
C527 H507 0.950 . S
C527 C523 1.385 . S
C527 C526 1.374 . S
C528 C525 1.499 . S
C528 C529 1.373 . S
C528 C530 1.389 . S
C529 H508 0.950 . S
C529 C528 1.373 . S
C529 C545 1.377 . S
C530 C528 1.389 . S
C530 C531 1.524 . S
C530 C544 1.377 . S
C531 C530 1.524 . S
C531 C532 1.397 . S
C531 C536 1.363 . S
C532 H509 0.950 . S
C532 C531 1.397 . S
C532 C533 1.334 . S
C533 H510 0.950 . S
C533 C532 1.334 . S
C533 C534 1.287 . S
C534 C533 1.287 . S
C534 C535 1.524 . S
C534 H553 0.913 . S
C535 H511 0.950 . S
C535 C534 1.524 . S
C535 C536 1.415 . S
C536 H512 0.950 . S
C536 C531 1.363 . S
C536 C535 1.415 . S
C537 H513 0.951 . S
C537 C538 1.366 . S
C537 C539 1.388 . S
C538 C537 1.366 . S
C538 C542 1.385 . S
C539 H514 0.951 . S
C539 C537 1.388 . S
C539 C540 1.366 . S
C540 C539 1.366 . S
C540 C541 1.414 . S
C540 C543 1.499 . S
C541 H515 0.950 . S
C541 C540 1.414 . S
C541 C542 1.374 . S
C542 H516 0.950 . S
C542 C538 1.385 . S
C542 C541 1.374 . S
C543 C540 1.499 . S
C543 C544 1.373 . S
C543 C545 1.389 . S
C544 H517 0.950 . S
C544 C530 1.377 . S
C544 C543 1.373 . S
C545 C529 1.377 . S
C545 C543 1.389 . S
C545 C546 1.524 . S
C546 C545 1.524 . S
C546 C547 1.397 . S
C546 C551 1.363 . S
C547 H518 0.950 . S
C547 C546 1.397 . S
C547 C548 1.334 . S
C548 H519 0.950 . S
C548 C547 1.334 . S
C548 C549 1.287 . S
C549 C548 1.287 . S
C549 C550 1.524 . S
C549 H552 0.999 . S
C550 H520 0.950 . S
C550 C549 1.524 . S
C550 C551 1.415 . S
C551 H521 0.950 . S
C551 C546 1.363 . S
C551 C550 1.415 . S
H552 C549 0.999 . S
H553 C534 0.913 . S
H554 C572 0.951 . S
H555 C574 0.951 . S
H556 C576 0.950 . S
H557 C577 0.950 . S
H558 C579 0.950 . S
H559 C582 0.950 . S
H560 C583 0.950 . S
H561 C585 0.950 . S
H562 C586 0.950 . S
H563 C587 0.951 . S
H564 C589 0.951 . S
H565 C591 0.950 . S
H566 C592 0.950 . S
H567 C594 0.950 . S
H568 C597 0.950 . S
H569 C598 0.950 . S
H570 C600 0.950 . S
H571 C601 0.950 . S
C572 H554 0.951 . S
C572 C573 1.366 . S
C572 C574 1.388 . S
C573 C572 1.366 . S
C573 C577 1.385 . S
C574 H555 0.951 . S
C574 C572 1.388 . S
C574 C575 1.366 . S
C575 C574 1.366 . S
C575 C576 1.414 . S
C575 C578 1.499 . S
C576 H556 0.950 . S
C576 C575 1.414 . S
C576 C577 1.374 . S
C577 H557 0.950 . S
C577 C573 1.385 . S
C577 C576 1.374 . S
C578 C575 1.499 . S
C578 C579 1.373 . S
C578 C580 1.389 . S
C579 H558 0.950 . S
C579 C578 1.373 . S
C579 C595 1.377 . S
C580 C578 1.389 . S
C580 C581 1.524 . S
C580 C594 1.377 . S
C581 C580 1.524 . S
C581 C582 1.397 . S
C581 C586 1.363 . S
C582 H559 0.950 . S
C582 C581 1.397 . S
C582 C583 1.334 . S
C583 H560 0.950 . S
C583 C582 1.334 . S
C583 C584 1.287 . S
C584 C583 1.287 . S
C584 C585 1.524 . S
C584 H603 0.913 . S
C585 H561 0.950 . S
C585 C584 1.524 . S
C585 C586 1.415 . S
C586 H562 0.950 . S
C586 C581 1.363 . S
C586 C585 1.415 . S
C587 H563 0.951 . S
C587 C588 1.366 . S
C587 C589 1.388 . S
C588 C587 1.366 . S
C588 C592 1.385 . S
C589 H564 0.951 . S
C589 C587 1.388 . S
C589 C590 1.366 . S
C590 C589 1.366 . S
C590 C591 1.414 . S
C590 C593 1.499 . S
C591 H565 0.950 . S
C591 C590 1.414 . S
C591 C592 1.374 . S
C592 H566 0.950 . S
C592 C588 1.385 . S
C592 C591 1.374 . S
C593 C590 1.499 . S
C593 C594 1.373 . S
C593 C595 1.389 . S
C594 H567 0.950 . S
C594 C580 1.377 . S
C594 C593 1.373 . S
C595 C579 1.377 . S
C595 C593 1.389 . S
C595 C596 1.524 . S
C596 C595 1.524 . S
C596 C597 1.397 . S
C596 C601 1.363 . S
C597 H568 0.950 . S
C597 C596 1.397 . S
C597 C598 1.334 . S
C598 H569 0.950 . S
C598 C597 1.334 . S
C598 C599 1.287 . S
C599 C598 1.287 . S
C599 C600 1.524 . S
C599 H602 0.999 . S
C600 H570 0.950 . S
C600 C599 1.524 . S
C600 C601 1.415 . S
C601 H571 0.950 . S
C601 C596 1.363 . S
C601 C600 1.415 . S
H602 C599 0.999 . S
H603 C584 0.913 . S
H604 C622 0.951 . S
H605 C624 0.951 . S
H606 C626 0.950 . S
H607 C627 0.950 . S
H608 C629 0.950 . S
H609 C632 0.950 . S
H610 C633 0.950 . S
H611 C635 0.950 . S
H612 C636 0.950 . S
H613 C637 0.951 . S
H614 C639 0.951 . S
H615 C641 0.950 . S
H616 C642 0.950 . S
H617 C644 0.950 . S
H618 C647 0.950 . S
H619 C648 0.950 . S
H620 C650 0.950 . S
H621 C651 0.950 . S
C622 H604 0.951 . S
C622 C623 1.366 . S
C622 C624 1.388 . S
C623 C622 1.366 . S
C623 C627 1.385 . S
C624 H605 0.951 . S
C624 C622 1.388 . S
C624 C625 1.366 . S
C625 C624 1.366 . S
C625 C626 1.414 . S
C625 C628 1.499 . S
C626 H606 0.950 . S
C626 C625 1.414 . S
C626 C627 1.374 . S
C627 H607 0.950 . S
C627 C623 1.385 . S
C627 C626 1.374 . S
C628 C625 1.499 . S
C628 C629 1.373 . S
C628 C630 1.389 . S
C629 H608 0.950 . S
C629 C628 1.373 . S
C629 C645 1.377 . S
C630 C628 1.389 . S
C630 C631 1.524 . S
C630 C644 1.377 . S
C631 C630 1.524 . S
C631 C632 1.397 . S
C631 C636 1.363 . S
C632 H609 0.950 . S
C632 C631 1.397 . S
C632 C633 1.334 . S
C633 H610 0.950 . S
C633 C632 1.334 . S
C633 C634 1.287 . S
C634 C633 1.287 . S
C634 C635 1.524 . S
C634 H653 0.913 . S
C635 H611 0.950 . S
C635 C634 1.524 . S
C635 C636 1.415 . S
C636 H612 0.950 . S
C636 C631 1.363 . S
C636 C635 1.415 . S
C637 H613 0.951 . S
C637 C638 1.366 . S
C637 C639 1.388 . S
C638 C637 1.366 . S
C638 C642 1.385 . S
C639 H614 0.951 . S
C639 C637 1.388 . S
C639 C640 1.366 . S
C640 C639 1.366 . S
C640 C641 1.414 . S
C640 C643 1.499 . S
C641 H615 0.950 . S
C641 C640 1.414 . S
C641 C642 1.374 . S
C642 H616 0.950 . S
C642 C638 1.385 . S
C642 C641 1.374 . S
C643 C640 1.499 . S
C643 C644 1.373 . S
C643 C645 1.389 . S
C644 H617 0.950 . S
C644 C630 1.377 . S
C644 C643 1.373 . S
C645 C629 1.377 . S
C645 C643 1.389 . S
C645 C646 1.524 . S
C646 C645 1.524 . S
C646 C647 1.397 . S
C646 C651 1.363 . S
C647 H618 0.950 . S
C647 C646 1.397 . S
C647 C648 1.334 . S
C648 H619 0.950 . S
C648 C647 1.334 . S
C648 C649 1.287 . S
C649 C648 1.287 . S
C649 C650 1.524 . S
C649 H652 0.999 . S
C650 H620 0.950 . S
C650 C649 1.524 . S
C650 C651 1.415 . S
C651 H621 0.950 . S
C651 C646 1.363 . S
C651 C650 1.415 . S
H652 C649 0.999 . S
H653 C634 0.913 . S
H654 C672 0.951 . S
H655 C674 0.951 . S
H656 C676 0.950 . S
H657 C677 0.950 . S
H658 C679 0.950 . S
H659 C682 0.950 . S
H660 C683 0.950 . S
H661 C685 0.950 . S
H662 C686 0.950 . S
H663 C687 0.951 . S
H664 C689 0.951 . S
H665 C691 0.950 . S
H666 C692 0.950 . S
H667 C694 0.950 . S
H668 C697 0.950 . S
H669 C698 0.950 . S
H670 C700 0.950 . S
H671 C701 0.950 . S
C672 H654 0.951 . S
C672 C673 1.366 . S
C672 C674 1.388 . S
C673 C672 1.366 . S
C673 C677 1.385 . S
C674 H655 0.951 . S
C674 C672 1.388 . S
C674 C675 1.366 . S
C675 C674 1.366 . S
C675 C676 1.414 . S
C675 C678 1.499 . S
C676 H656 0.950 . S
C676 C675 1.414 . S
C676 C677 1.374 . S
C677 H657 0.950 . S
C677 C673 1.385 . S
C677 C676 1.374 . S
C678 C675 1.499 . S
C678 C679 1.373 . S
C678 C680 1.389 . S
C679 H658 0.950 . S
C679 C678 1.373 . S
C679 C695 1.377 . S
C680 C678 1.389 . S
C680 C681 1.524 . S
C680 C694 1.377 . S
C681 C680 1.524 . S
C681 C682 1.397 . S
C681 C686 1.363 . S
C682 H659 0.950 . S
C682 C681 1.397 . S
C682 C683 1.334 . S
C683 H660 0.950 . S
C683 C682 1.334 . S
C683 C684 1.287 . S
C684 C683 1.287 . S
C684 C685 1.524 . S
C684 H703 0.913 . S
C685 H661 0.950 . S
C685 C684 1.524 . S
C685 C686 1.415 . S
C686 H662 0.950 . S
C686 C681 1.363 . S
C686 C685 1.415 . S
C687 H663 0.951 . S
C687 C688 1.366 . S
C687 C689 1.388 . S
C688 C687 1.366 . S
C688 C692 1.385 . S
C689 H664 0.951 . S
C689 C687 1.388 . S
C689 C690 1.366 . S
C690 C689 1.366 . S
C690 C691 1.414 . S
C690 C693 1.499 . S
C691 H665 0.950 . S
C691 C690 1.414 . S
C691 C692 1.374 . S
C692 H666 0.950 . S
C692 C688 1.385 . S
C692 C691 1.374 . S
C693 C690 1.499 . S
C693 C694 1.373 . S
C693 C695 1.389 . S
C694 H667 0.950 . S
C694 C680 1.377 . S
C694 C693 1.373 . S
C695 C679 1.377 . S
C695 C693 1.389 . S
C695 C696 1.524 . S
C696 C695 1.524 . S
C696 C697 1.397 . S
C696 C701 1.363 . S
C697 H668 0.950 . S
C697 C696 1.397 . S
C697 C698 1.334 . S
C698 H669 0.950 . S
C698 C697 1.334 . S
C698 C699 1.287 . S
C699 C698 1.287 . S
C699 C700 1.524 . S
C699 H702 0.999 . S
C700 H670 0.950 . S
C700 C699 1.524 . S
C700 C701 1.415 . S
C701 H671 0.950 . S
C701 C696 1.363 . S
C701 C700 1.415 . S
H702 C699 0.999 . S
H703 C684 0.913 . S
H704 C722 0.951 . S
H705 C724 0.951 . S
H706 C726 0.950 . S
H707 C727 0.950 . S
H708 C729 0.950 . S
H709 C732 0.950 . S
H710 C733 0.950 . S
H711 C735 0.950 . S
H712 C736 0.950 . S
H713 C737 0.951 . S
H714 C739 0.951 . S
H715 C741 0.950 . S
H716 C742 0.950 . S
H717 C744 0.950 . S
H718 C747 0.950 . S
H719 C748 0.950 . S
H720 C750 0.950 . S
H721 C751 0.950 . S
C722 H704 0.951 . S
C722 C723 1.366 . S
C722 C724 1.388 . S
C723 C722 1.366 . S
C723 C727 1.385 . S
C724 H705 0.951 . S
C724 C722 1.388 . S
C724 C725 1.366 . S
C725 C724 1.366 . S
C725 C726 1.414 . S
C725 C728 1.499 . S
C726 H706 0.950 . S
C726 C725 1.414 . S
C726 C727 1.374 . S
C727 H707 0.950 . S
C727 C723 1.385 . S
C727 C726 1.374 . S
C728 C725 1.499 . S
C728 C729 1.373 . S
C728 C730 1.389 . S
C729 H708 0.950 . S
C729 C728 1.373 . S
C729 C745 1.377 . S
C730 C728 1.389 . S
C730 C731 1.524 . S
C730 C744 1.377 . S
C731 C730 1.524 . S
C731 C732 1.397 . S
C731 C736 1.363 . S
C732 H709 0.950 . S
C732 C731 1.397 . S
C732 C733 1.334 . S
C733 H710 0.950 . S
C733 C732 1.334 . S
C733 C734 1.287 . S
C734 C733 1.287 . S
C734 C735 1.524 . S
C734 H753 0.913 . S
C735 H711 0.950 . S
C735 C734 1.524 . S
C735 C736 1.415 . S
C736 H712 0.950 . S
C736 C731 1.363 . S
C736 C735 1.415 . S
C737 H713 0.951 . S
C737 C738 1.366 . S
C737 C739 1.388 . S
C738 C737 1.366 . S
C738 C742 1.385 . S
C739 H714 0.951 . S
C739 C737 1.388 . S
C739 C740 1.366 . S
C740 C739 1.366 . S
C740 C741 1.414 . S
C740 C743 1.499 . S
C741 H715 0.950 . S
C741 C740 1.414 . S
C741 C742 1.374 . S
C742 H716 0.950 . S
C742 C738 1.385 . S
C742 C741 1.374 . S
C743 C740 1.499 . S
C743 C744 1.373 . S
C743 C745 1.389 . S
C744 H717 0.950 . S
C744 C730 1.377 . S
C744 C743 1.373 . S
C745 C729 1.377 . S
C745 C743 1.389 . S
C745 C746 1.524 . S
C746 C745 1.524 . S
C746 C747 1.397 . S
C746 C751 1.363 . S
C747 H718 0.950 . S
C747 C746 1.397 . S
C747 C748 1.334 . S
C748 H719 0.950 . S
C748 C747 1.334 . S
C748 C749 1.287 . S
C749 C748 1.287 . S
C749 C750 1.524 . S
C749 H752 0.999 . S
C750 H720 0.950 . S
C750 C749 1.524 . S
C750 C751 1.415 . S
C751 H721 0.950 . S
C751 C746 1.363 . S
C751 C750 1.415 . S
H752 C749 0.999 . S
H753 C734 0.913 . S
H754 C772 0.951 . S
H755 C774 0.951 . S
H756 C776 0.950 . S
H757 C777 0.950 . S
H758 C779 0.950 . S
H759 C782 0.950 . S
H760 C783 0.950 . S
H761 C785 0.950 . S
H762 C786 0.950 . S
H763 C787 0.951 . S
H764 C789 0.951 . S
H765 C791 0.950 . S
H766 C792 0.950 . S
H767 C794 0.950 . S
H768 C797 0.950 . S
H769 C798 0.950 . S
H770 C800 0.950 . S
H771 C801 0.950 . S
C772 H754 0.951 . S
C772 C773 1.366 . S
C772 C774 1.388 . S
C773 C772 1.366 . S
C773 C777 1.385 . S
C774 H755 0.951 . S
C774 C772 1.388 . S
C774 C775 1.366 . S
C775 C774 1.366 . S
C775 C776 1.414 . S
C775 C778 1.499 . S
C776 H756 0.950 . S
C776 C775 1.414 . S
C776 C777 1.374 . S
C777 H757 0.950 . S
C777 C773 1.385 . S
C777 C776 1.374 . S
C778 C775 1.499 . S
C778 C779 1.373 . S
C778 C780 1.389 . S
C779 H758 0.950 . S
C779 C778 1.373 . S
C779 C795 1.377 . S
C780 C778 1.389 . S
C780 C781 1.524 . S
C780 C794 1.377 . S
C781 C780 1.524 . S
C781 C782 1.397 . S
C781 C786 1.363 . S
C782 H759 0.950 . S
C782 C781 1.397 . S
C782 C783 1.334 . S
C783 H760 0.950 . S
C783 C782 1.334 . S
C783 C784 1.287 . S
C784 C783 1.287 . S
C784 C785 1.524 . S
C784 H803 0.913 . S
C785 H761 0.950 . S
C785 C784 1.524 . S
C785 C786 1.415 . S
C786 H762 0.950 . S
C786 C781 1.363 . S
C786 C785 1.415 . S
C787 H763 0.951 . S
C787 C788 1.366 . S
C787 C789 1.388 . S
C788 C787 1.366 . S
C788 C792 1.385 . S
C789 H764 0.951 . S
C789 C787 1.388 . S
C789 C790 1.366 . S
C790 C789 1.366 . S
C790 C791 1.414 . S
C790 C793 1.499 . S
C791 H765 0.950 . S
C791 C790 1.414 . S
C791 C792 1.374 . S
C792 H766 0.950 . S
C792 C788 1.385 . S
C792 C791 1.374 . S
C793 C790 1.499 . S
C793 C794 1.373 . S
C793 C795 1.389 . S
C794 H767 0.950 . S
C794 C780 1.377 . S
C794 C793 1.373 . S
C795 C779 1.377 . S
C795 C793 1.389 . S
C795 C796 1.524 . S
C796 C795 1.524 . S
C796 C797 1.397 . S
C796 C801 1.363 . S
C797 H768 0.950 . S
C797 C796 1.397 . S
C797 C798 1.334 . S
C798 H769 0.950 . S
C798 C797 1.334 . S
C798 C799 1.287 . S
C799 C798 1.287 . S
C799 C800 1.524 . S
C799 H802 0.999 . S
C800 H770 0.950 . S
C800 C799 1.524 . S
C800 C801 1.415 . S
C801 H771 0.950 . S
C801 C796 1.363 . S
C801 C800 1.415 . S
H802 C799 0.999 . S
H803 C784 0.913 . S
H804 C822 0.951 . S
H805 C824 0.951 . S
H806 C826 0.950 . S
H807 C827 0.950 . S
H808 C829 0.950 . S
H809 C832 0.950 . S
H810 C833 0.950 . S
H811 C835 0.950 . S
H812 C836 0.950 . S
H813 C837 0.951 . S
H814 C839 0.951 . S
H815 C841 0.950 . S
H816 C842 0.950 . S
H817 C844 0.950 . S
H818 C847 0.950 . S
H819 C848 0.950 . S
H820 C850 0.950 . S
H821 C851 0.950 . S
C822 H804 0.951 . S
C822 C823 1.366 . S
C822 C824 1.388 . S
C823 C822 1.366 . S
C823 C827 1.385 . S
C824 H805 0.951 . S
C824 C822 1.388 . S
C824 C825 1.366 . S
C825 C824 1.366 . S
C825 C826 1.414 . S
C825 C828 1.499 . S
C826 H806 0.950 . S
C826 C825 1.414 . S
C826 C827 1.374 . S
C827 H807 0.950 . S
C827 C823 1.385 . S
C827 C826 1.374 . S
C828 C825 1.499 . S
C828 C829 1.373 . S
C828 C830 1.389 . S
C829 H808 0.950 . S
C829 C828 1.373 . S
C829 C845 1.377 . S
C830 C828 1.389 . S
C830 C831 1.524 . S
C830 C844 1.377 . S
C831 C830 1.524 . S
C831 C832 1.397 . S
C831 C836 1.363 . S
C832 H809 0.950 . S
C832 C831 1.397 . S
C832 C833 1.334 . S
C833 H810 0.950 . S
C833 C832 1.334 . S
C833 C834 1.287 . S
C834 C833 1.287 . S
C834 C835 1.524 . S
C834 H853 0.913 . S
C835 H811 0.950 . S
C835 C834 1.524 . S
C835 C836 1.415 . S
C836 H812 0.950 . S
C836 C831 1.363 . S
C836 C835 1.415 . S
C837 H813 0.951 . S
C837 C838 1.366 . S
C837 C839 1.388 . S
C838 C837 1.366 . S
C838 C842 1.385 . S
C839 H814 0.951 . S
C839 C837 1.388 . S
C839 C840 1.366 . S
C840 C839 1.366 . S
C840 C841 1.414 . S
C840 C843 1.499 . S
C841 H815 0.950 . S
C841 C840 1.414 . S
C841 C842 1.374 . S
C842 H816 0.950 . S
C842 C838 1.385 . S
C842 C841 1.374 . S
C843 C840 1.499 . S
C843 C844 1.373 . S
C843 C845 1.389 . S
C844 H817 0.950 . S
C844 C830 1.377 . S
C844 C843 1.373 . S
C845 C829 1.377 . S
C845 C843 1.389 . S
C845 C846 1.524 . S
C846 C845 1.524 . S
C846 C847 1.397 . S
C846 C851 1.363 . S
C847 H818 0.950 . S
C847 C846 1.397 . S
C847 C848 1.334 . S
C848 H819 0.950 . S
C848 C847 1.334 . S
C848 C849 1.287 . S
C849 C848 1.287 . S
C849 C850 1.524 . S
C849 H852 0.999 . S
C850 H820 0.950 . S
C850 C849 1.524 . S
C850 C851 1.415 . S
C851 H821 0.950 . S
C851 C846 1.363 . S
C851 C850 1.415 . S
H852 C849 0.999 . S
H853 C834 0.913 . S
H854 C872 0.951 . S
H855 C874 0.951 . S
H856 C876 0.950 . S
H857 C877 0.950 . S
H858 C879 0.950 . S
H859 C882 0.950 . S
H860 C883 0.950 . S
H861 C885 0.950 . S
H862 C886 0.950 . S
H863 C887 0.951 . S
H864 C889 0.951 . S
H865 C891 0.950 . S
H866 C892 0.950 . S
H867 C894 0.950 . S
H868 C897 0.950 . S
H869 C898 0.950 . S
H870 C900 0.950 . S
H871 C901 0.950 . S
C872 H854 0.951 . S
C872 C873 1.366 . S
C872 C874 1.388 . S
C873 C872 1.366 . S
C873 C877 1.385 . S
C874 H855 0.951 . S
C874 C872 1.388 . S
C874 C875 1.366 . S
C875 C874 1.366 . S
C875 C876 1.414 . S
C875 C878 1.499 . S
C876 H856 0.950 . S
C876 C875 1.414 . S
C876 C877 1.374 . S
C877 H857 0.950 . S
C877 C873 1.385 . S
C877 C876 1.374 . S
C878 C875 1.499 . S
C878 C879 1.373 . S
C878 C880 1.389 . S
C879 H858 0.950 . S
C879 C878 1.373 . S
C879 C895 1.377 . S
C880 C878 1.389 . S
C880 C881 1.524 . S
C880 C894 1.377 . S
C881 C880 1.524 . S
C881 C882 1.397 . S
C881 C886 1.363 . S
C882 H859 0.950 . S
C882 C881 1.397 . S
C882 C883 1.334 . S
C883 H860 0.950 . S
C883 C882 1.334 . S
C883 C884 1.287 . S
C884 C883 1.287 . S
C884 C885 1.524 . S
C884 H903 0.913 . S
C885 H861 0.950 . S
C885 C884 1.524 . S
C885 C886 1.415 . S
C886 H862 0.950 . S
C886 C881 1.363 . S
C886 C885 1.415 . S
C887 H863 0.951 . S
C887 C888 1.366 . S
C887 C889 1.388 . S
C888 C887 1.366 . S
C888 C892 1.385 . S
C889 H864 0.951 . S
C889 C887 1.388 . S
C889 C890 1.366 . S
C890 C889 1.366 . S
C890 C891 1.414 . S
C890 C893 1.499 . S
C891 H865 0.950 . S
C891 C890 1.414 . S
C891 C892 1.374 . S
C892 H866 0.950 . S
C892 C888 1.385 . S
C892 C891 1.374 . S
C893 C890 1.499 . S
C893 C894 1.373 . S
C893 C895 1.389 . S
C894 H867 0.950 . S
C894 C880 1.377 . S
C894 C893 1.373 . S
C895 C879 1.377 . S
C895 C893 1.389 . S
C895 C896 1.524 . S
C896 C895 1.524 . S
C896 C897 1.397 . S
C896 C901 1.363 . S
C897 H868 0.950 . S
C897 C896 1.397 . S
C897 C898 1.334 . S
C898 H869 0.950 . S
C898 C897 1.334 . S
C898 C899 1.287 . S
C899 C898 1.287 . S
C899 C900 1.524 . S
C899 H902 0.999 . S
C900 H870 0.950 . S
C900 C899 1.524 . S
C900 C901 1.415 . S
C901 H871 0.950 . S
C901 C896 1.363 . S
C901 C900 1.415 . S
H902 C899 0.999 . S
H903 C884 0.913 . S
H904 C922 0.951 . S
H905 C924 0.951 . S
H906 C926 0.950 . S
H907 C927 0.950 . S
H908 C929 0.950 . S
H909 C932 0.950 . S
H910 C933 0.950 . S
H911 C935 0.950 . S
H912 C936 0.950 . S
H913 C937 0.951 . S
H914 C939 0.951 . S
H915 C941 0.950 . S
H916 C942 0.950 . S
H917 C944 0.950 . S
H918 C947 0.950 . S
H919 C948 0.950 . S
H920 C950 0.950 . S
H921 C951 0.950 . S
C922 H904 0.951 . S
C922 C923 1.366 . S
C922 C924 1.388 . S
C923 C922 1.366 . S
C923 C927 1.385 . S
C924 H905 0.951 . S
C924 C922 1.388 . S
C924 C925 1.366 . S
C925 C924 1.366 . S
C925 C926 1.414 . S
C925 C928 1.499 . S
C926 H906 0.950 . S
C926 C925 1.414 . S
C926 C927 1.374 . S
C927 H907 0.950 . S
C927 C923 1.385 . S
C927 C926 1.374 . S
C928 C925 1.499 . S
C928 C929 1.373 . S
C928 C930 1.389 . S
C929 H908 0.950 . S
C929 C928 1.373 . S
C929 C945 1.377 . S
C930 C928 1.389 . S
C930 C931 1.524 . S
C930 C944 1.377 . S
C931 C930 1.524 . S
C931 C932 1.397 . S
C931 C936 1.363 . S
C932 H909 0.950 . S
C932 C931 1.397 . S
C932 C933 1.334 . S
C933 H910 0.950 . S
C933 C932 1.334 . S
C933 C934 1.287 . S
C934 C933 1.287 . S
C934 C935 1.524 . S
C934 H953 0.913 . S
C935 H911 0.950 . S
C935 C934 1.524 . S
C935 C936 1.415 . S
C936 H912 0.950 . S
C936 C931 1.363 . S
C936 C935 1.415 . S
C937 H913 0.951 . S
C937 C938 1.366 . S
C937 C939 1.388 . S
C938 C937 1.366 . S
C938 C942 1.385 . S
C939 H914 0.951 . S
C939 C937 1.388 . S
C939 C940 1.366 . S
C940 C939 1.366 . S
C940 C941 1.414 . S
C940 C943 1.499 . S
C941 H915 0.950 . S
C941 C940 1.414 . S
C941 C942 1.374 . S
C942 H916 0.950 . S
C942 C938 1.385 . S
C942 C941 1.374 . S
C943 C940 1.499 . S
C943 C944 1.373 . S
C943 C945 1.389 . S
C944 H917 0.950 . S
C944 C930 1.377 . S
C944 C943 1.373 . S
C945 C929 1.377 . S
C945 C943 1.389 . S
C945 C946 1.524 . S
C946 C945 1.524 . S
C946 C947 1.397 . S
C946 C951 1.363 . S
C947 H918 0.950 . S
C947 C946 1.397 . S
C947 C948 1.334 . S
C948 H919 0.950 . S
C948 C947 1.334 . S
C948 C949 1.287 . S
C949 C948 1.287 . S
C949 C950 1.524 . S
C949 H952 0.999 . S
C950 H920 0.950 . S
C950 C949 1.524 . S
C950 C951 1.415 . S
C951 H921 0.950 . S
C951 C946 1.363 . S
C951 C950 1.415 . S
H952 C949 0.999 . S
H953 C934 0.913 . S
H954 C972 0.951 . S
H955 C974 0.951 . S
H956 C976 0.950 . S
H957 C977 0.950 . S
H958 C979 0.950 . S
H959 C982 0.950 . S
H960 C983 0.965 . S
H961 C985 0.950 . S
H962 C986 0.950 . S
H963 C987 0.951 . S
H964 C989 0.951 . S
H965 C991 0.950 . S
H966 C992 0.950 . S
H967 C994 0.950 1_655 S
H968 C997 0.950 . S
H969 C998 0.950 . S
H970 C1000 0.950 . S
H971 C1001 0.950 . S
C972 H954 0.951 . S
C972 C973 1.366 1_655 S
C972 C974 1.388 . S
C973 C972 1.366 1_455 S
C973 C977 1.385 . S
C974 H955 0.951 . S
C974 C972 1.388 . S
C974 C975 1.366 1_655 S
C975 C974 1.366 1_455 S
C975 C976 1.414 . S
C975 C978 1.499 . S
C976 H956 0.950 . S
C976 C975 1.414 . S
C976 C977 1.374 . S
C977 H957 0.950 . S
C977 C973 1.385 . S
C977 C976 1.374 . S
C978 C975 1.499 . S
C978 C979 1.373 . S
C978 C980 1.389 . S
C979 H958 0.950 . S
C979 C978 1.373 . S
C979 C995 1.377 . S
C980 C978 1.389 . S
C980 C981 1.524 1_455 S
C980 C994 1.377 . S
C981 C980 1.524 1_655 S
C981 C982 1.397 1_655 S
C981 C986 1.363 . S
C982 H959 0.950 . S
C982 C981 1.397 1_455 S
C982 C983 1.332 . S
C983 H960 0.965 . S
C983 C982 1.332 . S
C983 C984 1.274 1_455 S
C984 C983 1.274 1_655 S
C984 C985 1.524 . S
C984 H1003 0.913 . S
C985 H961 0.950 . S
C985 C984 1.524 . S
C985 C986 1.415 . S
C986 H962 0.950 . S
C986 C981 1.363 . S
C986 C985 1.415 . S
C987 H963 0.951 . S
C987 C988 1.366 . S
C987 C989 1.388 1_556 S
C988 C987 1.366 . S
C988 C992 1.385 1_455 S
C989 H964 0.951 . S
C989 C987 1.388 1_554 S
C989 C990 1.366 . S
C990 C989 1.366 . S
C990 C991 1.414 1_455 S
C990 C993 1.499 . S
C991 H965 0.950 . S
C991 C990 1.414 1_655 S
C991 C992 1.374 1_554 S
C992 H966 0.950 . S
C992 C988 1.385 1_655 S
C992 C991 1.374 1_556 S
C993 C990 1.499 . S
C993 C994 1.373 . S
C993 C995 1.389 . S
C994 H967 0.950 1_455 S
C994 C980 1.377 . S
C994 C993 1.373 . S
C995 C979 1.377 . S
C995 C993 1.389 . S
C995 C996 1.524 . S
C996 C995 1.524 . S
C996 C997 1.397 . S
C996 C1001 1.363 . S
C997 H968 0.950 . S
C997 C996 1.397 . S
C997 C998 1.334 . S
C998 H969 0.950 . S
C998 C997 1.334 . S
C998 C999 1.287 . S
C999 C998 1.287 . S
C999 C1000 1.524 . S
C999 H1002 0.999 . S
C1000 H970 0.950 . S
C1000 C999 1.524 . S
C1000 C1001 1.415 . S
C1001 H971 0.950 . S
C1001 C996 1.363 . S
C1001 C1000 1.415 . S
H1002 C999 0.999 . S
H1003 C984 0.913 . S
H1004 C1022 0.951 . S
H1005 C1024 0.951 . S
H1006 C1026 0.950 . S
H1007 C1027 0.950 . S
H1008 C1029 0.950 1_565 S
H1009 C1032 0.950 . S
H1010 C1033 0.950 . S
H1011 C1035 0.950 . S
H1012 C1036 0.950 . S
H1013 C1037 0.951 . S
H1014 C1039 0.951 . S
H1015 C1041 0.950 . S
H1016 C1042 0.950 . S
H1017 C1044 0.950 . S
H1018 C1047 0.950 . S
H1019 C1048 0.950 . S
H1020 C1050 0.950 . S
H1021 C1051 0.950 . S
C1022 H1004 0.951 . S
C1022 C1023 1.366 . S
C1022 C1024 1.388 . S
C1023 C1022 1.366 . S
C1023 C1027 1.385 . S
C1024 H1005 0.951 . S
C1024 C1022 1.388 . S
C1024 C1025 1.366 . S
C1025 C1024 1.366 . S
C1025 C1026 1.414 . S
C1025 C1028 1.499 . S
C1026 H1006 0.950 . S
C1026 C1025 1.414 . S
C1026 C1027 1.374 . S
C1027 H1007 0.950 . S
C1027 C1023 1.385 . S
C1027 C1026 1.374 . S
C1028 C1025 1.499 . S
C1028 C1029 1.373 . S
C1028 C1030 1.389 . S
C1029 H1008 0.950 1_545 S
C1029 C1028 1.373 . S
C1029 C1045 1.377 . S
C1030 C1028 1.389 . S
C1030 C1031 1.524 . S
C1030 C1044 1.377 . S
C1031 C1030 1.524 . S
C1031 C1032 1.397 . S
C1031 C1036 1.363 . S
C1032 H1009 0.950 . S
C1032 C1031 1.397 . S
C1032 C1033 1.334 . S
C1033 H1010 0.950 . S
C1033 C1032 1.334 . S
C1033 C1034 1.287 . S
C1034 C1033 1.287 . S
C1034 C1035 1.524 . S
C1034 H1053 0.913 . S
C1035 H1011 0.950 . S
C1035 C1034 1.524 . S
C1035 C1036 1.415 . S
C1036 H1012 0.950 . S
C1036 C1031 1.363 . S
C1036 C1035 1.415 . S
C1037 H1013 0.951 . S
C1037 C1038 1.366 . S
C1037 C1039 1.388 . S
C1038 C1037 1.366 . S
C1038 C1042 1.385 . S
C1039 H1014 0.951 . S
C1039 C1037 1.388 . S
C1039 C1040 1.366 . S
C1040 C1039 1.366 . S
C1040 C1041 1.414 . S
C1040 C1043 1.499 . S
C1041 H1015 0.950 . S
C1041 C1040 1.414 . S
C1041 C1042 1.374 . S
C1042 H1016 0.950 . S
C1042 C1038 1.385 . S
C1042 C1041 1.374 . S
C1043 C1040 1.499 . S
C1043 C1044 1.373 . S
C1043 C1045 1.389 . S
C1044 H1017 0.950 . S
C1044 C1030 1.377 . S
C1044 C1043 1.373 . S
C1045 C1029 1.377 . S
C1045 C1043 1.389 . S
C1045 C1046 1.524 1_545 S
C1046 C1045 1.524 1_565 S
C1046 C1047 1.397 . S
C1046 C1051 1.363 . S
C1047 H1018 0.950 . S
C1047 C1046 1.397 . S
C1047 C1048 1.334 . S
C1048 H1019 0.950 . S
C1048 C1047 1.334 . S
C1048 C1049 1.287 . S
C1049 C1048 1.287 . S
C1049 C1050 1.524 . S
C1049 H1052 0.999 . S
C1050 H1020 0.950 . S
C1050 C1049 1.524 . S
C1050 C1051 1.415 . S
C1051 H1021 0.950 . S
C1051 C1046 1.363 . S
C1051 C1050 1.415 . S
H1052 C1049 0.999 . S
H1053 C1034 0.913 . S
H1054 C1072 0.951 . S
H1055 C1074 0.951 . S
H1056 C1076 0.950 . S
H1057 C1077 0.950 . S
H1058 C1079 0.950 . S
H1059 C1082 0.950 . S
H1060 C1083 0.950 . S
H1061 C1085 0.950 . S
H1062 C1086 0.950 . S
H1063 C1087 0.951 . S
H1064 C1089 0.951 . S
H1065 C1091 0.950 . S
H1066 C1092 0.950 . S
H1067 C1094 0.950 . S
H1068 C1097 0.950 . S
H1069 C1098 0.950 . S
H1070 C1100 0.950 . S
H1071 C1101 0.950 . S
C1072 H1054 0.951 . S
C1072 C1073 1.366 . S
C1072 C1074 1.388 . S
C1073 C1072 1.366 . S
C1073 C1077 1.385 . S
C1074 H1055 0.951 . S
C1074 C1072 1.388 . S
C1074 C1075 1.366 . S
C1075 C1074 1.366 . S
C1075 C1076 1.414 . S
C1075 C1078 1.499 . S
C1076 H1056 0.950 . S
C1076 C1075 1.414 . S
C1076 C1077 1.374 . S
C1077 H1057 0.950 . S
C1077 C1073 1.385 . S
C1077 C1076 1.374 . S
C1078 C1075 1.499 . S
C1078 C1079 1.373 . S
C1078 C1080 1.389 . S
C1079 H1058 0.950 . S
C1079 C1078 1.373 . S
C1079 C1095 1.377 . S
C1080 C1078 1.389 . S
C1080 C1081 1.524 . S
C1080 C1094 1.377 . S
C1081 C1080 1.524 . S
C1081 C1082 1.397 . S
C1081 C1086 1.363 . S
C1082 H1059 0.950 . S
C1082 C1081 1.397 . S
C1082 C1083 1.334 . S
C1083 H1060 0.950 . S
C1083 C1082 1.334 . S
C1083 C1084 1.287 . S
C1084 C1083 1.287 . S
C1084 C1085 1.524 . S
C1084 H1103 0.913 . S
C1085 H1061 0.950 . S
C1085 C1084 1.524 . S
C1085 C1086 1.415 . S
C1086 H1062 0.950 . S
C1086 C1081 1.363 . S
C1086 C1085 1.415 . S
C1087 H1063 0.951 . S
C1087 C1088 1.366 . S
C1087 C1089 1.388 . S
C1088 C1087 1.366 . S
C1088 C1092 1.385 . S
C1089 H1064 0.951 . S
C1089 C1087 1.388 . S
C1089 C1090 1.366 . S
C1090 C1089 1.366 . S
C1090 C1091 1.414 . S
C1090 C1093 1.499 . S
C1091 H1065 0.950 . S
C1091 C1090 1.414 . S
C1091 C1092 1.374 . S
C1092 H1066 0.950 . S
C1092 C1088 1.385 . S
C1092 C1091 1.374 . S
C1093 C1090 1.499 . S
C1093 C1094 1.373 . S
C1093 C1095 1.389 . S
C1094 H1067 0.950 . S
C1094 C1080 1.377 . S
C1094 C1093 1.373 . S
C1095 C1079 1.377 . S
C1095 C1093 1.389 . S
C1095 C1096 1.524 . S
C1096 C1095 1.524 . S
C1096 C1097 1.397 . S
C1096 C1101 1.363 . S
C1097 H1068 0.950 . S
C1097 C1096 1.397 . S
C1097 C1098 1.334 . S
C1098 H1069 0.950 . S
C1098 C1097 1.334 . S
C1098 C1099 1.287 . S
C1099 C1098 1.287 . S
C1099 C1100 1.524 . S
C1099 H1102 0.999 . S
C1100 H1070 0.950 . S
C1100 C1099 1.524 . S
C1100 C1101 1.415 . S
C1101 H1071 0.950 . S
C1101 C1096 1.363 . S
C1101 C1100 1.415 . S
H1102 C1099 0.999 . S
H1103 C1084 0.913 . S
H1104 C1122 0.951 . S
H1105 C1124 0.951 . S
H1106 C1126 0.950 . S
H1107 C1127 0.950 . S
H1108 C1129 0.950 . S
H1109 C1132 0.950 . S
H1110 C1133 0.950 . S
H1111 C1135 0.950 . S
H1112 C1136 0.950 . S
H1113 C1137 0.951 . S
H1114 C1139 0.951 . S
H1115 C1141 0.950 . S
H1116 C1142 0.950 . S
H1117 C1144 0.950 . S
H1118 C1147 0.950 . S
H1119 C1148 0.950 . S
H1120 C1150 0.950 1_545 S
H1121 C1151 0.950 . S
C1122 H1104 0.951 . S
C1122 C1123 1.366 . S
C1122 C1124 1.388 . S
C1123 C1122 1.366 . S
C1123 C1127 1.385 . S
C1124 H1105 0.951 . S
C1124 C1122 1.388 . S
C1124 C1125 1.366 . S
C1125 C1124 1.366 . S
C1125 C1126 1.414 . S
C1125 C1128 1.499 . S
C1126 H1106 0.950 . S
C1126 C1125 1.414 . S
C1126 C1127 1.374 . S
C1127 H1107 0.950 . S
C1127 C1123 1.385 . S
C1127 C1126 1.374 . S
C1128 C1125 1.499 . S
C1128 C1129 1.373 . S
C1128 C1130 1.389 . S
C1129 H1108 0.950 . S
C1129 C1128 1.373 . S
C1129 C1145 1.377 . S
C1130 C1128 1.389 . S
C1130 C1131 1.524 . S
C1130 C1144 1.377 . S
C1131 C1130 1.524 . S
C1131 C1132 1.397 . S
C1131 C1136 1.363 . S
C1132 H1109 0.950 . S
C1132 C1131 1.397 . S
C1132 C1133 1.334 . S
C1133 H1110 0.950 . S
C1133 C1132 1.334 . S
C1133 C1134 1.287 . S
C1134 C1133 1.287 . S
C1134 C1135 1.524 . S
C1134 H1153 0.913 . S
C1135 H1111 0.950 . S
C1135 C1134 1.524 . S
C1135 C1136 1.415 . S
C1136 H1112 0.950 . S
C1136 C1131 1.363 . S
C1136 C1135 1.415 . S
C1137 H1113 0.951 . S
C1137 C1138 1.366 . S
C1137 C1139 1.388 . S
C1138 C1137 1.366 . S
C1138 C1142 1.385 1_545 S
C1139 H1114 0.951 . S
C1139 C1137 1.388 . S
C1139 C1140 1.366 . S
C1140 C1139 1.366 . S
C1140 C1141 1.414 1_545 S
C1140 C1143 1.499 . S
C1141 H1115 0.950 . S
C1141 C1140 1.414 1_565 S
C1141 C1142 1.374 . S
C1142 H1116 0.950 . S
C1142 C1138 1.385 1_565 S
C1142 C1141 1.374 . S
C1143 C1140 1.499 . S
C1143 C1144 1.373 . S
C1143 C1145 1.389 . S
C1144 H1117 0.950 . S
C1144 C1130 1.377 . S
C1144 C1143 1.373 . S
C1145 C1129 1.377 . S
C1145 C1143 1.389 . S
C1145 C1146 1.524 1_545 S
C1146 C1145 1.524 1_565 S
C1146 C1147 1.397 . S
C1146 C1151 1.363 1_565 S
C1147 H1118 0.950 . S
C1147 C1146 1.397 . S
C1147 C1148 1.334 . S
C1148 H1119 0.950 . S
C1148 C1147 1.334 . S
C1148 C1149 1.287 . S
C1149 C1148 1.287 . S
C1149 C1150 1.524 . S
C1149 H1152 0.999 . S
C1150 H1120 0.950 1_565 S
C1150 C1149 1.524 . S
C1150 C1151 1.415 1_565 S
C1151 H1121 0.950 . S
C1151 C1146 1.363 1_545 S
C1151 C1150 1.415 1_545 S
H1152 C1149 0.999 . S
H1153 C1134 0.913 . S
H1154 C1172 0.951 . S
H1155 C1174 0.951 . S
H1156 C1176 0.950 . S
H1157 C1177 0.950 . S
H1158 C1179 0.950 . S
H1159 C1182 0.950 . S
H1160 C1183 0.950 . S
H1161 C1185 0.950 . S
H1162 C1186 0.950 . S
H1163 C1187 0.951 . S
H1164 C1189 0.951 . S
H1165 C1191 0.950 . S
H1166 C1192 0.950 . S
H1167 C1194 0.950 . S
H1168 C1197 0.950 . S
H1169 C1198 0.950 . S
H1170 C1200 0.950 . S
H1171 C1201 0.950 . S
C1172 H1154 0.951 . S
C1172 C1173 1.366 . S
C1172 C1174 1.388 . S
C1173 C1172 1.366 . S
C1173 C1177 1.385 . S
C1174 H1155 0.951 . S
C1174 C1172 1.388 . S
C1174 C1175 1.366 . S
C1175 C1174 1.366 . S
C1175 C1176 1.414 . S
C1175 C1178 1.499 . S
C1176 H1156 0.950 . S
C1176 C1175 1.414 . S
C1176 C1177 1.374 . S
C1177 H1157 0.950 . S
C1177 C1173 1.385 . S
C1177 C1176 1.374 . S
C1178 C1175 1.499 . S
C1178 C1179 1.373 . S
C1178 C1180 1.389 . S
C1179 H1158 0.950 . S
C1179 C1178 1.373 . S
C1179 C1195 1.377 . S
C1180 C1178 1.389 . S
C1180 C1181 1.524 . S
C1180 C1194 1.377 . S
C1181 C1180 1.524 . S
C1181 C1182 1.397 . S
C1181 C1186 1.363 . S
C1182 H1159 0.950 . S
C1182 C1181 1.397 . S
C1182 C1183 1.334 . S
C1183 H1160 0.950 . S
C1183 C1182 1.334 . S
C1183 C1184 1.287 . S
C1184 C1183 1.287 . S
C1184 C1185 1.524 . S
C1184 H1203 0.913 . S
C1185 H1161 0.950 . S
C1185 C1184 1.524 . S
C1185 C1186 1.415 . S
C1186 H1162 0.950 . S
C1186 C1181 1.363 . S
C1186 C1185 1.415 . S
C1187 H1163 0.951 . S
C1187 C1188 1.366 . S
C1187 C1189 1.388 1_554 S
C1188 C1187 1.366 . S
C1188 C1192 1.385 . S
C1189 H1164 0.951 . S
C1189 C1187 1.388 1_556 S
C1189 C1190 1.366 . S
C1190 C1189 1.366 . S
C1190 C1191 1.414 . S
C1190 C1193 1.499 . S
C1191 H1165 0.950 . S
C1191 C1190 1.414 . S
C1191 C1192 1.374 1_556 S
C1192 H1166 0.950 . S
C1192 C1188 1.385 . S
C1192 C1191 1.374 1_554 S
C1193 C1190 1.499 . S
C1193 C1194 1.373 . S
C1193 C1195 1.389 . S
C1194 H1167 0.950 . S
C1194 C1180 1.377 . S
C1194 C1193 1.373 . S
C1195 C1179 1.377 . S
C1195 C1193 1.389 . S
C1195 C1196 1.524 . S
C1196 C1195 1.524 . S
C1196 C1197 1.397 . S
C1196 C1201 1.363 . S
C1197 H1168 0.950 . S
C1197 C1196 1.397 . S
C1197 C1198 1.334 . S
C1198 H1169 0.950 . S
C1198 C1197 1.334 . S
C1198 C1199 1.287 . S
C1199 C1198 1.287 . S
C1199 C1200 1.524 . S
C1199 H1202 0.999 . S
C1200 H1170 0.950 . S
C1200 C1199 1.524 . S
C1200 C1201 1.415 . S
C1201 H1171 0.950 . S
C1201 C1196 1.363 . S
C1201 C1200 1.415 . S
H1202 C1199 0.999 . S
H1203 C1184 0.913 . S
H1204 C1222 0.951 . S
H1205 C1224 0.951 1_655 S
H1206 C1226 0.950 . S
H1207 C1227 0.950 . S
H1208 C1229 0.950 . S
H1209 C1232 0.950 . S
H1210 C1233 0.950 . S
H1211 C1235 0.950 . S
H1212 C1236 0.950 . S
H1213 C1237 0.951 . S
H1214 C1239 0.951 . S
H1215 C1241 0.950 . S
H1216 C1242 0.950 . S
H1217 C1244 0.950 . S
H1218 C1247 0.950 . S
H1219 C1248 0.950 . S
H1220 C1250 0.950 . S
H1221 C1251 0.950 . S
C1222 H1204 0.951 . S
C1222 C1223 1.366 . S
C1222 C1224 1.388 . S
C1223 C1222 1.366 . S
C1223 C1227 1.385 . S
C1224 H1205 0.951 1_455 S
C1224 C1222 1.388 . S
C1224 C1225 1.366 . S
C1225 C1224 1.366 . S
C1225 C1226 1.414 . S
C1225 C1228 1.499 . S
C1226 H1206 0.950 . S
C1226 C1225 1.414 . S
C1226 C1227 1.374 . S
C1227 H1207 0.950 . S
C1227 C1223 1.385 . S
C1227 C1226 1.374 . S
C1228 C1225 1.499 . S
C1228 C1229 1.373 . S
C1228 C1230 1.389 1_455 S
C1229 H1208 0.950 . S
C1229 C1228 1.373 . S
C1229 C1245 1.377 . S
C1230 C1228 1.389 1_655 S
C1230 C1231 1.524 . S
C1230 C1244 1.377 . S
C1231 C1230 1.524 . S
C1231 C1232 1.397 . S
C1231 C1236 1.363 . S
C1232 H1209 0.950 . S
C1232 C1231 1.397 . S
C1232 C1233 1.334 . S
C1233 H1210 0.950 . S
C1233 C1232 1.334 . S
C1233 C1234 1.287 . S
C1234 C1233 1.287 . S
C1234 C1235 1.524 . S
C1234 H1253 0.913 . S
C1235 H1211 0.950 . S
C1235 C1234 1.524 . S
C1235 C1236 1.415 . S
C1236 H1212 0.950 . S
C1236 C1231 1.363 . S
C1236 C1235 1.415 . S
C1237 H1213 0.951 . S
C1237 C1238 1.366 . S
C1237 C1239 1.388 . S
C1238 C1237 1.366 . S
C1238 C1242 1.385 1_455 S
C1239 H1214 0.951 . S
C1239 C1237 1.388 . S
C1239 C1240 1.366 . S
C1240 C1239 1.366 . S
C1240 C1241 1.414 1_455 S
C1240 C1243 1.499 . S
C1241 H1215 0.950 . S
C1241 C1240 1.414 1_655 S
C1241 C1242 1.374 . S
C1242 H1216 0.950 . S
C1242 C1238 1.385 1_655 S
C1242 C1241 1.374 . S
C1243 C1240 1.499 . S
C1243 C1244 1.373 1_455 S
C1243 C1245 1.389 . S
C1244 H1217 0.950 . S
C1244 C1230 1.377 . S
C1244 C1243 1.373 1_655 S
C1245 C1229 1.377 . S
C1245 C1243 1.389 . S
C1245 C1246 1.524 . S
C1246 C1245 1.524 . S
C1246 C1247 1.397 . S
C1246 C1251 1.363 . S
C1247 H1218 0.950 . S
C1247 C1246 1.397 . S
C1247 C1248 1.334 . S
C1248 H1219 0.950 . S
C1248 C1247 1.334 . S
C1248 C1249 1.287 . S
C1249 C1248 1.287 . S
C1249 C1250 1.524 . S
C1249 H1252 0.999 . S
C1250 H1220 0.950 . S
C1250 C1249 1.524 . S
C1250 C1251 1.415 . S
C1251 H1221 0.950 . S
C1251 C1246 1.363 . S
C1251 C1250 1.415 . S
H1252 C1249 0.999 . S
H1253 C1234 0.913 . S
C373 C9 0.411 . S
C388 C331 0.384 . S
C423 C49 0.255 . S
C438 C258 0.247 . S
C473 C89 0.249 . S
C488 C297 0.259 . S
C523 C26 0.331 . S
C538 C336 0.237 . S
C588 C253 0.304 . S
C573 C66 0.398 . S
C638 C292 0.326 . S
C623 C106 0.421 . S
C673 C43 2.881 . S
C688 C180 2.845 . S
C723 C83 3.051 . S
C738 C214 3.002 . S
C773 C22 3.105 . S
C788 C136 3.051 . S
C838 C175 3.041 . S
C823 C62 3.093 . S
C888 C219 2.877 . S
C873 C102 2.917 . S
C923 C3 2.870 . S
C938 C141 2.837 . S
C988 C199 1.775 . S
C973 C15 1.716 . S
C1023 C55 1.731 . S
C1038 C121 1.776 . S
C1073 C95 1.725 . S
C1088 C160 1.770 . S
C1138 C277 1.101 . S
C1123 C42 1.085 . S
C1188 C316 1.109 . S
C1173 C82 1.093 . S
C1223 C2 1.084 . S
C1238 C238 1.099 . S
