# Generated by pormake.
# Topology tsx, (6,3)-cn, num edge types: 1
# Building blocks:
#     Node 0, Type 0, BuildingBlock: CIFDUS_clean_sbu_1, # of connection points: 6
#     Node 1, Type 0, BuildingBlock: CIFDUS_clean_sbu_1, # of connection points: 6
#     Node 2, Type 1, BuildingBlock: QEWDON_clean_linker_0, # of connection points: 3
#     Node 3, Type 1, BuildingBlock: QEWDON_clean_linker_0, # of connection points: 3
#     Node 4, Type 1, BuildingBlock: QEWDON_clean_linker_0, # of connection points: 3
#     Node 5, Type 1, BuildingBlock: QEWDON_clean_linker_0, # of connection points: 3
#     Edge 6, Type (0, 1), BuildingBlock: XIVTED_clean_linker_0, # of connection points: 2
#     Edge 7, Type (0, 1), BuildingBlock: XIVTED_clean_linker_0, # of connection points: 2
#     Edge 8, Type (0, 1), BuildingBlock: XIVTED_clean_linker_0, # of connection points: 2
#     Edge 9, Type (0, 1), BuildingBlock: XIVTED_clean_linker_0, # of connection points: 2
#     Edge 10, Type (0, 1), BuildingBlock: XIVTED_clean_linker_0, # of connection points: 2
#     Edge 11, Type (0, 1), BuildingBlock: XIVTED_clean_linker_0, # of connection points: 2
#     Edge 12, Type (0, 1), BuildingBlock: XIVTED_clean_linker_0, # of connection points: 2
#     Edge 13, Type (0, 1), BuildingBlock: XIVTED_clean_linker_0, # of connection points: 2
#     Edge 14, Type (0, 1), BuildingBlock: XIVTED_clean_linker_0, # of connection points: 2
#     Edge 15, Type (0, 1), BuildingBlock: XIVTED_clean_linker_0, # of connection points: 2
#     Edge 16, Type (0, 1), BuildingBlock: XIVTED_clean_linker_0, # of connection points: 2
#     Edge 17, Type (0, 1), BuildingBlock: XIVTED_clean_linker_0, # of connection points: 2
# Relax obj value: 0.104
# Max RMSD: 0.201
# Mean RMSD: 0.146
data_MOF--net-tsx--node1-CIFDUS_clean_sbu_1--node2-QEWDON_clean_linker_0--edge1-XIVTED_clean_linker_0
_symmetry_space_group_name_H-M    P1
_symmetry_Int_Tables_number       1
_symmetry_cell_setting            triclinic
loop_
_symmetry_equiv_pos_as_xyz
'x, y, z'
_cell_length_a     19.285949
_cell_length_b     25.183286
_cell_length_c     33.704086
_cell_angle_alpha  99.37073
_cell_angle_beta   111.71104
_cell_angle_gamma 91.006242
loop_
_atom_site_label
_atom_site_type_symbol
_atom_site_fract_x
_atom_site_fract_y
_atom_site_fract_z
_atom_type_partial_charge
O0 O 0.05066 0.09064 0.0461 0.0
Mn1 Mn 0.1033 0.01892 0.04183 0.0
O2 O 0.92879 0.06666 0.0245 0.0
Mn3 Mn 0.93654 0.00712 0.98765 0.0
O4 O 0.16108 0.94995 0.0396 0.0
O5 O 0.19979 0.0648 0.06314 0.0
Mn6 Mn 0.26638 0.04582 0.1092 0.0
O7 O 0.11278 0.01523 0.10541 0.0
O8 O 0.27839 0.97493 0.08972 0.0
O9 O 0.09001 0.02206 0.97776 0.0
O10 O 0.9648 0.01881 0.9428 0.0
O11 O 0.31347 0.10112 0.09597 0.0
O12 O 0.22472 0.05648 0.15082 0.0
C13 C 0.95384 0.93297 1.00914 0.0
C14 C 0.98458 0.10118 0.04364 0.0
C15 C 0.22911 0.94044 0.06045 0.0
C16 C 0.25008 0.09945 0.06385 0.0
C17 C 0.15974 0.03554 0.14377 0.0
C18 C 1.03127 0.02232 0.94331 0.0
O19 O 1.00671 0.97107 1.01946 0.0
O20 O 0.88793 0.94291 0.9841 0.0
O21 O 0.51947 0.55791 0.51225 0.0
Mn22 Mn 0.59795 0.50059 0.52644 0.0
O23 O 0.42287 0.51974 0.45136 0.0
Mn24 Mn 0.46502 0.4559 0.44017 0.0
O25 O 0.67744 0.44417 0.5417 0.0
O26 O 0.67797 0.5596 0.56124 0.0
Mn27 Mn 0.7262 0.54821 0.61431 0.0
O28 O 0.57229 0.49185 0.58064 0.0
O29 O 0.76568 0.48179 0.60697 0.0
O30 O 0.6239 0.50846 0.472 0.0
O31 O 0.53243 0.45922 0.41365 0.0
O32 O 0.77209 0.61087 0.60927 0.0
O33 O 0.65387 0.54877 0.6381 0.0
C34 C 0.47248 0.39843 0.48159 0.0
C35 C 0.454 0.55894 0.48298 0.0
C36 C 0.73857 0.443 0.57449 0.0
C37 C 0.72352 0.60154 0.5698 0.0
C38 C 0.59471 0.51662 0.62032 0.0
C39 C 0.59562 0.48663 0.43149 0.0
O40 O 0.51754 0.44119 0.49157 0.0
O41 O 0.42265 0.39079 0.44247 0.0
H42 H 0.12208 0.03441 0.44745 0.0
C43 C 0.13544 -0.00566 0.45361 0.0
C44 C 0.14694 0.95761 0.42114 0.0
C45 C 0.14224 -0.01992 0.49348 0.0
H46 H 0.18051 0.87872 0.40488 0.0
C47 C 0.16854 0.90647 0.42926 0.0
C48 C 0.17948 0.89204 0.46953 0.0
C49 C 0.1653 0.92867 0.50139 0.0
C50 C 0.12703 0.01994 0.52645 0.0
H51 H 0.17149 0.91647 0.53177 0.0
C52 C 0.07144 0.07037 0.50939 0.0
C53 C 0.065 0.13791 0.57611 0.0
C54 C 0.16964 0.01786 0.58023 0.0
H55 H 0.20553 -0.0143 0.58873 0.0
C56 C 0.16614 0.06168 0.62356 0.0
H57 H 0.0431 0.06834 0.47438 0.0
C58 C 0.11826 0.11758 0.62334 0.0
H59 H 0.12097 0.1406 0.654 0.0
H60 H 0.19846 0.05266 0.6552 0.0
H61 H 0.05054 0.04659 0.64554 0.0
C62 C 1.03369 0.00799 0.62388 0.0
C63 C 1.01439 0.96444 0.63971 0.0
C64 C 1.02857 0.0024 0.5806 0.0
H65 H 0.96431 0.88276 0.6227 0.0
C66 C 0.98237 0.91601 0.611 0.0
C67 C 0.96926 0.9111 0.56676 0.0
C68 C 0.99343 0.95395 0.55163 0.0
C69 C 0.04598 0.05055 0.56289 0.0
H70 H 0.98269 0.95035 0.51734 0.0
C71 C 0.16408 0.10871 0.56708 0.0
C72 C 0.13812 0.1569 0.53568 0.0
C73 C 0.96614 0.0732 0.52885 0.0
H74 H 0.91214 0.05358 0.52325 0.0
C75 C 0.96927 0.12536 0.50325 0.0
H76 H 0.22415 0.10736 0.58505 0.0
C77 C 0.0464 0.16282 0.50642 0.0
H78 H 1.03483 0.19404 0.48686 0.0
H79 H 0.91581 0.13626 0.4824 0.0
H80 H 0.58337 0.51779 0.91826 0.0
C81 C 0.60222 0.48064 0.92875 0.0
C82 C 0.61286 0.43939 0.89833 0.0
C83 C 0.62001 0.47522 0.97245 0.0
H84 H 0.6595 0.36227 0.89145 0.0
C85 C 0.64827 0.39423 0.91335 0.0
C86 C 0.67144 0.3902 0.95726 0.0
C87 C 0.65266 0.42863 0.98567 0.0
C88 C 0.60948 0.5193 1.00471 0.0
H89 H 0.66764 0.42277 1.01866 0.0
C90 C 0.55606 0.56993 0.98619 0.0
C91 C 0.55437 0.64269 0.05086 0.0
C92 C 0.65433 0.52075 0.05918 0.0
H93 H 0.69009 0.48926 0.06963 0.0
C94 C 0.65422 0.56834 0.10136 0.0
H95 H 0.52588 0.56571 0.95117 0.0
C96 C 0.60794 0.625 0.09913 0.0
H97 H 0.61205 0.65038 0.12922 0.0
H98 H 0.68782 0.56148 0.13353 0.0
H99 H 0.5507 0.55658 0.13064 0.0
C100 C 0.53331 0.51653 0.1115 0.0
C101 C 0.52714 0.47382 0.13224 0.0
C102 C 0.52091 0.50719 0.06688 0.0
H103 H 0.48566 0.39053 0.12172 0.0
C104 C 0.49554 0.42321 0.10661 0.0
C105 C 0.47136 0.41568 0.06119 0.0
C106 C 0.48598 0.45714 0.04156 0.0
C107 C 0.53161 0.5556 0.04181 0.0
H108 H 0.4686 0.45107 1.00656 0.0
C109 C 0.65131 0.60902 0.04199 0.0
C110 C 0.62749 0.65486 1.00906 0.0
C111 C 0.44962 0.58011 1.00504 0.0
H112 H 0.48769 0.56361 0.02524 0.0
C113 C 0.45791 0.62935 0.97777 0.0
H114 H 0.71155 0.60714 0.05941 0.0
C115 C 0.53711 0.66258 0.97956 0.0
H116 H 0.52813 0.69368 0.95993 0.0
H117 H 0.40571 0.64158 0.95658 0.0
H118 H 0.16593 0.18457 0.04898 0.0
H119 H 0.32214 0.40673 1.01361 0.0
H120 H 0.32331 0.09345 1.00944 0.0
H121 H 0.51325 0.31334 0.05149 0.0
H122 H 0.23915 0.32276 0.98758 0.0
H123 H 0.20173 0.26219 0.0236 0.0
C124 C 0.2044 0.17994 0.03226 0.0
C125 C 0.24182 0.13303 0.03114 0.0
C126 C 0.29923 0.3206 1.00067 0.0
C127 C 0.2856 0.22165 1.00372 0.0
C128 C 0.34645 0.36828 1.01507 0.0
C129 C 0.42412 0.36638 0.03497 0.0
C130 C 0.33053 0.27114 1.00644 0.0
C131 C 0.45345 0.31609 0.03655 0.0
C132 C 0.22558 0.22443 1.01807 0.0
C133 C 0.29348 0.12932 1.0108 0.0
N134 N 0.40648 0.27036 0.0229 0.0
N135 N 0.31573 0.1737 0.99914 0.0
H136 H 0.21358 0.84553 0.08623 0.0
H137 H 0.57628 0.75061 0.04467 0.0
H138 H 0.31382 0.9226 1.01302 0.0
H139 H 0.43598 0.64348 0.07645 0.0
H140 H 0.48745 0.81934 0.04195 0.0
H141 H 0.29601 0.77196 0.0869 0.0
C142 C 0.25092 0.84562 0.06885 0.0
C143 C 0.25651 0.88907 0.04879 0.0
C144 C 0.47566 0.7805 0.04899 0.0
C145 C 0.35288 0.8078 0.05146 0.0
C146 C 0.52626 0.74135 0.05049 0.0
C147 C 0.50966 0.68985 0.05698 0.0
C148 C 0.41 0.76861 0.05593 0.0
C149 C 0.44785 0.68165 0.06843 0.0
C150 C 0.29867 0.80436 0.06983 0.0
C151 C 0.3074 0.88897 0.0281 0.0
N152 N 0.39929 0.72031 0.0668 0.0
N153 N 0.35439 0.84923 0.03038 0.0
H154 H 0.9535 0.83797 0.95943 0.0
H155 H 0.72688 0.71407 0.08221 0.0
H156 H 0.96256 0.91001 0.08621 0.0
H157 H 0.66984 0.67742 0.94389 0.0
H158 H 0.83892 0.76873 0.0905 0.0
H159 H 0.88328 0.75787 0.96223 0.0
C160 C 0.94493 0.83537 0.98911 0.0
C161 C 0.96293 0.88057 0.02252 0.0
C162 C 0.80221 0.74862 0.05834 0.0
C163 C 0.88033 0.79081 0.02518 0.0
C164 C 0.73811 0.71792 0.05353 0.0
C165 C 0.68915 0.69215 1.01224 0.0
C166 C 0.8177 0.75327 0.02154 0.0
C167 C 0.70584 0.69776 0.97611 0.0
C168 C 0.90322 0.79028 0.9902 0.0
C169 C 0.94982 0.87577 0.05994 0.0
N170 N 0.76903 0.72795 0.98157 0.0
N171 N 0.90713 0.83225 0.05981 0.0
H172 H 0.89283 0.13844 0.08429 0.0
H173 H 0.79798 0.36823 0.94256 0.0
H174 H 1.03083 0.18829 1.01924 0.0
H175 H 0.6679 0.32532 1.0146 0.0
H176 H 0.89313 0.31047 0.97799 0.0
H177 H 0.82443 0.21855 0.07141 0.0
C178 C 0.91067 0.16764 0.06891 0.0
C179 C 0.96699 0.15698 0.05255 0.0
C180 C 0.84394 0.31375 0.9862 0.0
C181 C 0.8872 0.24686 0.03584 0.0
C182 C 0.78903 0.34592 0.96541 0.0
C183 C 0.72452 0.35069 0.97517 0.0
C184 C 0.83403 0.28583 1.01678 0.0
C185 C 0.7167 0.32238 1.006 0.0
C186 C 0.87108 0.21295 0.06104 0.0
C187 C 0.98806 0.1955 0.03263 0.0
N188 N 0.77068 0.29083 0.02554 0.0
N189 N 0.94675 0.23823 0.02377 0.0
H190 H 0.8174 0.58848 0.52703 0.0
H191 H 0.81912 0.90224 0.52319 0.0
H192 H 0.65006 0.68931 0.54558 0.0
H193 H 1.01231 0.81068 0.54791 0.0
H194 H 0.73822 0.81765 0.49967 0.0
H195 H 0.86673 0.66138 0.50222 0.0
C196 C 0.78877 0.62513 0.52376 0.0
C197 C 0.7296 0.63312 0.53812 0.0
C198 C 0.79807 0.81596 0.50866 0.0
C199 C 0.78723 0.7172 0.51153 0.0
C200 C 0.8441 0.86414 0.52159 0.0
C201 C 0.92219 0.86309 0.53726 0.0
C202 C 0.83067 0.76659 0.51168 0.0
C203 C 0.95222 0.81293 0.5357 0.0
C204 C 0.81746 0.66693 0.51013 0.0
C205 C 0.69544 0.68163 0.53436 0.0
N206 N 0.90647 0.7666 0.52386 0.0
N207 N 0.72569 0.72239 0.52223 0.0
H208 H 0.7974 0.40158 0.51521 0.0
H209 H 0.93791 0.13746 0.59494 0.0
H210 H 0.78049 0.37856 0.63536 0.0
H211 H 0.0963 0.24757 0.58059 0.0
H212 H 0.85676 0.21146 0.59648 0.0
H213 H 0.88263 0.32879 0.52115 0.0
C214 C 0.81068 0.38048 0.54235 0.0
C215 C 0.78199 0.3955 0.57474 0.0
C216 C 0.90898 0.21899 0.5924 0.0
C217 C 0.87778 0.31282 0.58141 0.0
C218 C 0.95501 0.17697 0.59129 0.0
C219 C 1.0206 0.18537 0.58338 0.0
C220 C 0.92911 0.26953 0.58572 0.0
C221 C 0.04298 0.2383 0.58244 0.0
C222 C 0.85958 0.33962 0.54592 0.0
C223 C 0.80154 0.36772 0.60971 0.0
N224 N 0.99615 0.27815 0.58202 0.0
N225 N 0.84773 0.32711 0.61195 0.0
H226 H 0.49787 0.29362 0.48448 0.0
H227 H 0.13315 0.26368 0.52641 0.0
H228 H 0.41631 0.43043 0.54311 0.0
H229 H 0.27909 0.13402 0.54048 0.0
H230 H 0.23583 0.32466 0.53012 0.0
H231 H 0.42465 0.23325 0.50721 0.0
C232 C 0.46762 0.31092 0.50421 0.0
C233 C 0.46346 0.36686 0.5124 0.0
C234 C 0.24563 0.28304 0.53322 0.0
C235 C 0.37587 0.29847 0.53571 0.0
C236 C 0.18675 0.24795 0.53076 0.0
C237 C 0.19784 0.19382 0.53453 0.0
C238 C 0.31542 0.26348 0.53791 0.0
C239 C 0.26846 0.1758 0.53891 0.0
C240 C 0.42491 0.27652 0.51656 0.0
C241 C 0.42158 0.38742 0.53677 0.0
N242 N 0.32436 0.2104 0.54005 0.0
N243 N 0.3774 0.35316 0.54644 0.0
H244 H 0.49791 0.65408 0.54303 0.0
H245 H 0.12773 0.79236 0.41967 0.0
H246 H 0.31251 0.5739 0.42914 0.0
H247 H 0.30238 0.87338 0.53796 0.0
H248 H 0.19142 0.70951 0.42674 0.0
H249 H 0.42571 0.73301 0.54511 0.0
C250 C 0.44212 0.6529 0.51856 0.0
C251 C 0.41163 0.60721 0.48569 0.0
C252 C 0.21563 0.7451 0.45153 0.0
C253 C 0.32868 0.6973 0.48804 0.0
C254 C 0.17904 0.79232 0.44754 0.0
C255 C 0.21008 0.83969 0.47817 0.0
C256 C 0.28445 0.74526 0.48616 0.0
C257 C 0.27652 0.83752 0.51377 0.0
C258 C 0.40086 0.69794 0.51986 0.0
C259 C 0.33886 0.60811 0.45497 0.0
N260 N 0.31214 0.79123 0.51652 0.0
N261 N 0.30025 0.65235 0.45684 0.0
H262 H 0.06007 0.96157 0.15025 0.0
H263 H 0.19986 0.05224 0.40827 0.0
H264 H 0.22032 0.09718 0.22471 0.0
H265 H 0.07644 0.89912 0.3389 0.0
H266 H 0.18979 0.07666 0.33931 0.0
H267 H 0.04656 0.94604 0.21709 0.0
C268 C 0.09125 -0.01135 0.18047 0.0
C269 C 0.14184 0.03038 0.18202 0.0
C270 C 0.16453 0.03781 0.3391 0.0
C271 C 0.12731 0.0127 0.25842 0.0
C272 C 0.16997 0.02396 0.37845 0.0
C273 C 0.13917 0.97347 0.3793 0.0
C274 C 0.12798 0.00098 0.30021 0.0
C275 C 0.10184 0.93816 0.33969 0.0
C276 C 0.08402 -0.02047 0.21863 0.0
C277 C 0.18135 0.06409 0.22212 0.0
N278 N 0.09744 0.95251 0.3017 0.0
N279 N 0.17358 0.05432 0.25872 0.0
H280 H 0.15733 0.01441 0.92218 0.0
H281 H 0.90855 0.93911 0.67059 0.0
H282 H 0.9188 0.02865 0.86686 0.0
H283 H 0.13688 0.00643 0.7126 0.0
H284 H 0.91865 0.95627 0.74601 0.0
H285 H 0.15837 0.00046 0.84822 0.0
C286 C 0.10561 0.01525 0.8948 0.0
C287 C 0.03776 0.02192 0.90082 0.0
C288 C 0.96667 0.96719 0.73875 0.0
C289 C 0.03852 0.00494 0.81696 0.0
C290 C 0.96109 0.95694 0.69584 0.0
C291 C 1.02194 0.97144 0.68556 0.0
C292 C 1.03378 -0.00841 0.77171 0.0
C293 C 0.08861 -0.00495 0.71943 0.0
C294 C 0.10626 0.00713 0.85276 0.0
C295 C 0.97242 0.02283 0.86409 0.0
N296 N 0.09299 0.00434 0.76125 0.0
N297 N 0.97435 0.01371 0.82389 0.0
H298 H 0.56658 0.41436 0.62962 0.0
H299 H 0.49826 0.49427 0.84915 0.0
H300 H 0.55446 0.58114 0.67994 0.0
H301 H 0.67725 0.39796 0.83985 0.0
H302 H 0.47091 0.50891 0.77501 0.0
H303 H 0.55349 0.3891 0.69413 0.0
C304 C 0.55774 0.44529 0.65328 0.0
C305 C 0.56162 0.49987 0.64973 0.0
C306 C 0.51519 0.48385 0.78935 0.0
C307 C 0.54655 0.47138 0.72283 0.0
C308 C 0.53181 0.47595 0.8319 0.0
C309 C 0.59113 0.44521 0.85175 0.0
C310 C 0.55623 0.45938 0.76582 0.0
C311 C 0.63026 0.42114 0.82647 0.0
C312 C 0.55115 0.43094 0.69014 0.0
C313 C 0.5516 0.53864 0.68168 0.0
N314 N 0.61203 0.4287 0.78493 0.0
N315 N 0.54502 0.52371 0.71719 0.0
H316 H 0.66275 0.41516 0.39177 0.0
H317 H 0.51396 0.56119 0.18931 0.0
H318 H 0.5993 0.57836 0.39988 0.0
H319 H 0.60456 0.40573 0.18543 0.0
H320 H 0.56151 0.57366 0.26837 0.0
H321 H 0.66508 0.41771 0.32013 0.0
C322 C 0.65299 0.4525 0.37923 0.0
C323 C 0.63136 0.49675 0.40163 0.0
C324 C 0.57167 0.53703 0.25029 0.0
C325 C 0.62918 0.49902 0.31873 0.0
C326 C 0.54441 0.52982 0.20502 0.0
C327 C 0.55459 0.48204 0.18048 0.0
C328 C 0.60892 0.49603 0.27134 0.0
C329 C 0.59383 0.44266 0.20286 0.0
C330 C 0.65297 0.4537 0.338 0.0
C331 C 0.61713 0.54369 0.38367 0.0
N332 N 0.61899 0.45035 0.24691 0.0
N333 N 0.61445 0.5432 0.34271 0.0
loop_
_geom_bond_atom_site_label_1
_geom_bond_atom_site_label_2
_geom_bond_distance
_geom_bond_site_symmetry_2
_ccdc_geom_bond_type
O0 Mn1 2.163 . S
O0 C14 1.244 1_454 S
Mn1 O0 2.163 . S
Mn1 O4 2.160 1_545 S
Mn1 O5 2.221 . S
Mn1 O7 2.163 1_545 S
Mn1 O9 2.160 1_554 S
Mn1 O19 2.221 1_444 S
O2 Mn3 2.087 1_545 S
O2 C14 1.256 . S
Mn3 O2 2.087 1_565 S
Mn3 O10 2.089 1_565 S
Mn3 O19 2.290 . S
Mn3 O20 2.251 . S
O4 Mn1 2.160 1_565 S
O4 C15 1.239 . S
O5 Mn1 2.221 . S
O5 Mn6 2.290 . S
O5 C16 1.278 . S
Mn6 O5 2.290 . S
Mn6 O8 2.089 1_545 S
Mn6 O11 2.251 . S
Mn6 O12 2.087 . S
O7 Mn1 2.163 1_565 S
O7 C17 1.244 1_565 S
O8 Mn6 2.089 1_565 S
O8 C15 1.256 . S
O9 Mn1 2.160 1_556 S
O9 C18 1.239 . S
O10 Mn3 2.089 1_545 S
O10 C18 1.256 1_655 S
O11 Mn6 2.251 . S
O11 C16 1.241 . S
O12 Mn6 2.087 . S
O12 C17 1.256 . S
C13 O19 1.278 . S
C13 O20 1.241 . S
C14 O0 1.244 1_656 S
C14 O2 1.256 . S
C15 O4 1.239 . S
C15 O8 1.256 . S
C16 O5 1.278 . S
C16 O11 1.241 . S
C17 O7 1.244 1_545 S
C17 O12 1.256 . S
C18 O9 1.239 . S
C18 O10 1.256 1_455 S
O19 Mn1 2.221 1_666 S
O19 Mn3 2.290 . S
O19 C13 1.278 . S
O20 Mn3 2.251 . S
O20 C13 1.241 . S
O21 Mn22 2.163 . S
O21 C35 1.244 . S
Mn22 O21 2.163 . S
Mn22 O25 2.160 . S
Mn22 O26 2.221 . S
Mn22 O28 2.163 . S
Mn22 O30 2.160 . S
Mn22 O40 2.221 . S
O23 Mn24 2.087 . S
O23 C35 1.256 . S
Mn24 O23 2.087 . S
Mn24 O31 2.089 . S
Mn24 O40 2.290 . S
Mn24 O41 2.251 . S
O25 Mn22 2.160 . S
O25 C36 1.239 . S
O26 Mn22 2.221 . S
O26 Mn27 2.290 . S
O26 C37 1.278 . S
Mn27 O26 2.290 . S
Mn27 O29 2.089 . S
Mn27 O32 2.251 . S
Mn27 O33 2.087 . S
O28 Mn22 2.163 . S
O28 C38 1.244 . S
O29 Mn27 2.089 . S
O29 C36 1.256 . S
O30 Mn22 2.160 . S
O30 C39 1.239 . S
O31 Mn24 2.089 . S
O31 C39 1.256 . S
O32 Mn27 2.251 . S
O32 C37 1.241 . S
O33 Mn27 2.087 . S
O33 C38 1.256 . S
C34 O40 1.278 . S
C34 O41 1.241 . S
C35 O21 1.244 . S
C35 O23 1.256 . S
C36 O25 1.239 . S
C36 O29 1.256 . S
C37 O26 1.278 . S
C37 O32 1.241 . S
C38 O28 1.244 . S
C38 O33 1.256 . S
C39 O30 1.239 . S
C39 O31 1.256 . S
O40 Mn22 2.221 . S
O40 Mn24 2.290 . S
O40 C34 1.278 . S
O41 Mn24 2.251 . S
O41 C34 1.241 . S
H42 C43 0.949 . S
C43 H42 0.949 . S
C43 C44 1.395 1_545 S
C43 C45 1.391 . S
C44 C43 1.395 1_565 S
C44 C47 1.390 . S
C45 C43 1.391 . S
C45 C49 1.387 1_545 S
C45 C50 1.491 . S
H46 C47 0.950 . S
C47 C44 1.390 . S
C47 H46 0.950 . S
C47 C48 1.378 . S
C48 C47 1.378 . S
C48 C49 1.409 . S
C49 C45 1.387 1_565 S
C49 C48 1.409 . S
C49 H51 0.951 . S
C50 C45 1.491 . S
C50 C52 1.382 . S
C50 C54 1.404 . S
H51 C49 0.951 . S
C52 C50 1.382 . S
C52 C53 1.390 1_455 S
C52 H57 0.949 1_455 S
C53 C52 1.390 1_655 S
C53 C58 1.399 1_655 S
C54 C50 1.404 . S
C54 H55 0.950 . S
C54 C56 1.375 . S
H55 C54 0.950 . S
C56 C54 1.375 . S
C56 C58 1.382 . S
C56 H60 0.950 . S
H57 C52 0.949 1_655 S
C58 C53 1.399 1_455 S
C58 C56 1.382 . S
C58 H59 0.952 . S
H59 C58 0.952 . S
H60 C56 0.950 . S
H61 C62 0.951 . S
C62 H61 0.951 . S
C62 C63 1.392 1_455 S
C62 C64 1.391 1_455 S
C63 C62 1.392 1_655 S
C63 C66 1.390 1_545 S
C64 C62 1.391 1_655 S
C64 C68 1.387 . S
C64 C69 1.491 1_655 S
H65 C66 0.950 . S
C66 C63 1.390 1_565 S
C66 H65 0.950 . S
C66 C67 1.378 . S
C67 C66 1.378 . S
C67 C68 1.409 1_565 S
C68 C64 1.387 . S
C68 C67 1.409 1_545 S
C68 H70 0.951 . S
C69 C64 1.491 1_455 S
C69 C71 1.382 . S
C69 C73 1.404 1_455 S
H70 C68 0.951 . S
C71 C69 1.382 . S
C71 C72 1.390 . S
C71 H76 0.949 . S
C72 C71 1.390 . S
C72 C77 1.399 . S
C73 C69 1.404 1_655 S
C73 H74 0.950 . S
C73 C75 1.375 . S
H74 C73 0.950 . S
C75 C73 1.375 . S
C75 C77 1.382 1_655 S
C75 H79 0.950 . S
H76 C71 0.949 . S
C77 C72 1.399 . S
C77 C75 1.382 1_455 S
C77 H78 0.952 . S
H78 C77 0.952 . S
H79 C75 0.950 . S
H80 C81 0.949 . S
C81 H80 0.949 . S
C81 C82 1.395 . S
C81 C83 1.391 . S
C82 C81 1.395 . S
C82 C85 1.390 . S
C83 C81 1.391 . S
C83 C87 1.387 . S
C83 C88 1.491 1_556 S
H84 C85 0.950 . S
C85 C82 1.390 . S
C85 H84 0.950 . S
C85 C86 1.378 . S
C86 C85 1.378 . S
C86 C87 1.409 . S
C87 C83 1.387 . S
C87 C86 1.409 . S
C87 H89 0.951 1_556 S
C88 C83 1.491 1_554 S
C88 C90 1.382 1_554 S
C88 C92 1.404 . S
H89 C87 0.951 1_554 S
C90 C88 1.382 1_556 S
C90 C91 1.390 1_556 S
C90 H95 0.949 . S
C91 C90 1.390 1_554 S
C91 C96 1.399 . S
C92 C88 1.404 . S
C92 H93 0.950 . S
C92 C94 1.375 . S
H93 C92 0.950 . S
C94 C92 1.375 . S
C94 C96 1.382 . S
C94 H98 0.950 . S
H95 C90 0.949 . S
C96 C91 1.399 . S
C96 C94 1.382 . S
C96 H97 0.952 . S
H97 C96 0.952 . S
H98 C94 0.950 . S
H99 C100 0.949 . S
C100 H99 0.949 . S
C100 C101 1.395 . S
C100 C102 1.391 . S
C101 C100 1.395 . S
C101 C104 1.390 . S
C102 C100 1.391 . S
C102 C106 1.387 . S
C102 C107 1.491 . S
H103 C104 0.950 . S
C104 C101 1.390 . S
C104 H103 0.950 . S
C104 C105 1.378 . S
C105 C104 1.378 . S
C105 C106 1.409 . S
C106 C102 1.387 . S
C106 C105 1.409 . S
C106 H108 0.957 . S
C107 C102 1.491 . S
C107 C109 1.382 . S
C107 C111 1.404 1_554 S
H108 C106 0.957 . S
C109 C107 1.382 . S
C109 C110 1.390 . S
C109 H114 0.949 . S
C110 C109 1.390 . S
C110 C115 1.399 1_554 S
C111 C107 1.404 1_556 S
C111 H112 0.950 . S
C111 C113 1.375 . S
H112 C111 0.950 . S
C113 C111 1.375 . S
C113 C115 1.382 . S
C113 H117 0.950 . S
H114 C109 0.949 . S
C115 C110 1.399 1_556 S
C115 C113 1.382 . S
C115 H116 0.952 . S
H116 C115 0.952 . S
H117 C113 0.950 . S
H118 C124 0.930 . S
H119 C128 0.930 1_556 S
H120 C133 0.929 . S
H121 C131 0.929 . S
H122 C126 0.949 . S
H123 C132 0.929 . S
C124 H118 0.930 . S
C124 C125 1.367 . S
C124 C132 1.378 . S
C125 C124 1.367 . S
C125 C133 1.433 1_554 S
C126 H122 0.949 . S
C126 C128 1.383 1_556 S
C126 C130 1.325 1_556 S
C127 C130 1.463 . S
C127 C132 1.350 . S
C127 N135 1.427 1_554 S
C128 H119 0.930 1_554 S
C128 C126 1.383 1_554 S
C128 C129 1.367 . S
C129 C128 1.367 . S
C129 C131 1.433 . S
C130 C126 1.325 1_554 S
C130 C127 1.463 . S
C130 N134 1.427 . S
C131 H121 0.929 . S
C131 C129 1.433 . S
C131 N134 1.384 . S
C132 H123 0.929 . S
C132 C124 1.378 . S
C132 C127 1.350 . S
C133 H120 0.929 . S
C133 C125 1.433 1_556 S
C133 N135 1.384 . S
N134 C130 1.427 . S
N134 C131 1.384 . S
N135 C127 1.427 1_556 S
N135 C133 1.384 . S
H136 C142 0.930 1_556 S
H137 C146 0.930 . S
H138 C151 0.929 . S
H139 C149 0.929 . S
H140 C144 0.929 . S
H141 C150 0.929 . S
C142 H136 0.930 1_554 S
C142 C143 1.368 . S
C142 C150 1.377 1_554 S
C143 C142 1.368 . S
C143 C151 1.433 . S
C144 H140 0.929 . S
C144 C146 1.378 . S
C144 C148 1.350 . S
C145 C148 1.463 . S
C145 C150 1.350 1_554 S
C145 N153 1.427 . S
C146 H137 0.930 . S
C146 C144 1.378 . S
C146 C147 1.367 . S
C147 C146 1.367 . S
C147 C149 1.433 1_554 S
C148 C144 1.350 . S
C148 C145 1.463 . S
C148 N152 1.427 1_554 S
C149 H139 0.929 . S
C149 C147 1.433 1_556 S
C149 N152 1.384 . S
C150 H141 0.929 . S
C150 C142 1.377 1_556 S
C150 C145 1.350 1_556 S
C151 H138 0.929 . S
C151 C143 1.433 . S
C151 N153 1.384 . S
N152 C148 1.427 1_556 S
N152 C149 1.384 . S
N153 C145 1.427 . S
N153 C151 1.384 . S
H154 C160 0.930 . S
H155 C164 0.930 . S
H156 C169 0.929 . S
H157 C167 0.929 . S
H158 C162 0.929 . S
H159 C168 0.929 . S
C160 H154 0.930 . S
C160 C161 1.367 1_556 S
C160 C168 1.378 . S
C161 C160 1.367 1_554 S
C161 C169 1.433 . S
C162 H158 0.929 . S
C162 C164 1.378 . S
C162 C166 1.350 . S
C163 C166 1.463 . S
C163 C168 1.350 1_554 S
C163 N171 1.427 . S
C164 H155 0.930 . S
C164 C162 1.378 . S
C164 C165 1.367 . S
C165 C164 1.367 . S
C165 C167 1.433 1_554 S
C166 C162 1.350 . S
C166 C163 1.463 . S
C166 N170 1.427 1_554 S
C167 H157 0.929 . S
C167 C165 1.433 1_556 S
C167 N170 1.384 . S
C168 H159 0.929 . S
C168 C160 1.378 . S
C168 C163 1.350 1_556 S
C169 H156 0.929 . S
C169 C161 1.433 . S
C169 N171 1.384 . S
N170 C166 1.427 1_556 S
N170 C167 1.384 . S
N171 C163 1.427 . S
N171 C169 1.384 . S
H172 C178 0.930 . S
H173 C182 0.930 . S
H174 C187 0.929 . S
H175 C185 0.929 . S
H176 C180 0.929 . S
H177 C186 0.929 . S
C178 H172 0.930 . S
C178 C179 1.367 1_554 S
C178 C186 1.378 . S
C179 C178 1.367 1_556 S
C179 C187 1.433 . S
C180 H176 0.929 . S
C180 C182 1.378 . S
C180 C184 1.350 . S
C181 C184 1.463 . S
C181 C186 1.350 1_556 S
C181 N189 1.427 . S
C182 H173 0.930 . S
C182 C180 1.378 . S
C182 C183 1.367 . S
C183 C182 1.367 . S
C183 C185 1.433 1_556 S
C184 C180 1.350 . S
C184 C181 1.463 . S
C184 N188 1.427 1_556 S
C185 H175 0.929 . S
C185 C183 1.433 1_554 S
C185 N188 1.384 . S
C186 H177 0.929 . S
C186 C178 1.378 . S
C186 C181 1.350 1_554 S
C187 H174 0.929 . S
C187 C179 1.433 . S
C187 N189 1.384 . S
N188 C184 1.427 1_554 S
N188 C185 1.384 . S
N189 C181 1.427 . S
N189 C187 1.384 . S
H190 C196 0.930 . S
H191 C200 0.930 . S
H192 C205 0.929 . S
H193 C203 0.929 . S
H194 C198 0.929 . S
H195 C204 0.929 . S
C196 H190 0.930 . S
C196 C197 1.367 . S
C196 C204 1.378 . S
C197 C196 1.367 . S
C197 C205 1.433 . S
C198 H194 0.929 . S
C198 C200 1.378 . S
C198 C202 1.350 . S
C199 C202 1.463 . S
C199 C204 1.350 . S
C199 N207 1.427 . S
C200 H191 0.930 . S
C200 C198 1.378 . S
C200 C201 1.367 . S
C201 C200 1.367 . S
C201 C203 1.433 . S
C202 C198 1.350 . S
C202 C199 1.463 . S
C202 N206 1.427 . S
C203 H193 0.929 . S
C203 C201 1.433 . S
C203 N206 1.384 . S
C204 H195 0.929 . S
C204 C196 1.378 . S
C204 C199 1.350 . S
C205 H192 0.929 . S
C205 C197 1.433 . S
C205 N207 1.384 . S
N206 C202 1.427 . S
N206 C203 1.384 . S
N207 C199 1.427 . S
N207 C205 1.384 . S
H208 C214 0.930 . S
H209 C218 0.930 . S
H210 C223 0.929 . S
H211 C221 0.929 . S
H212 C216 0.929 . S
H213 C222 0.929 . S
C214 H208 0.930 . S
C214 C215 1.367 . S
C214 C222 1.378 . S
C215 C214 1.367 . S
C215 C223 1.433 . S
C216 H212 0.929 . S
C216 C218 1.378 . S
C216 C220 1.350 . S
C217 C220 1.463 . S
C217 C222 1.350 . S
C217 N225 1.427 . S
C218 H209 0.930 . S
C218 C216 1.378 . S
C218 C219 1.367 . S
C219 C218 1.367 . S
C219 C221 1.433 . S
C220 C216 1.350 . S
C220 C217 1.463 . S
C220 N224 1.427 . S
C221 H211 0.929 . S
C221 C219 1.433 . S
C221 N224 1.384 . S
C222 H213 0.929 . S
C222 C214 1.378 . S
C222 C217 1.350 . S
C223 H210 0.929 . S
C223 C215 1.433 . S
C223 N225 1.384 . S
N224 C220 1.427 . S
N224 C221 1.384 . S
N225 C217 1.427 . S
N225 C223 1.384 . S
H226 C232 0.930 . S
H227 C236 0.930 . S
H228 C241 0.929 . S
H229 C239 0.929 . S
H230 C234 0.929 . S
H231 C240 0.929 . S
C232 H226 0.930 . S
C232 C233 1.367 . S
C232 C240 1.378 . S
C233 C232 1.367 . S
C233 C241 1.433 . S
C234 H230 0.929 . S
C234 C236 1.378 . S
C234 C238 1.350 . S
C235 C238 1.463 . S
C235 C240 1.350 . S
C235 N243 1.427 . S
C236 H227 0.930 . S
C236 C234 1.378 . S
C236 C237 1.367 . S
C237 C236 1.367 . S
C237 C239 1.433 . S
C238 C234 1.350 . S
C238 C235 1.463 . S
C238 N242 1.427 . S
C239 H229 0.929 . S
C239 C237 1.433 . S
C239 N242 1.384 . S
C240 H231 0.929 . S
C240 C232 1.378 . S
C240 C235 1.350 . S
C241 H228 0.929 . S
C241 C233 1.433 . S
C241 N243 1.384 . S
N242 C238 1.427 . S
N242 C239 1.384 . S
N243 C235 1.427 . S
N243 C241 1.384 . S
H244 C250 0.930 . S
H245 C254 0.930 . S
H246 C259 0.929 . S
H247 C257 0.929 . S
H248 C252 0.929 . S
H249 C258 0.929 . S
C250 H244 0.930 . S
C250 C251 1.367 . S
C250 C258 1.378 . S
C251 C250 1.367 . S
C251 C259 1.433 . S
C252 H248 0.929 . S
C252 C254 1.378 . S
C252 C256 1.350 . S
C253 C256 1.463 . S
C253 C258 1.350 . S
C253 N261 1.427 . S
C254 H245 0.930 . S
C254 C252 1.378 . S
C254 C255 1.367 . S
C255 C254 1.367 . S
C255 C257 1.433 . S
C256 C252 1.350 . S
C256 C253 1.463 . S
C256 N260 1.427 . S
C257 H247 0.929 . S
C257 C255 1.433 . S
C257 N260 1.384 . S
C258 H249 0.929 . S
C258 C250 1.378 . S
C258 C253 1.350 . S
C259 H246 0.929 . S
C259 C251 1.433 . S
C259 N261 1.384 . S
N260 C256 1.427 . S
N260 C257 1.384 . S
N261 C253 1.427 . S
N261 C259 1.384 . S
H262 C268 0.930 . S
H263 C272 0.930 . S
H264 C277 0.929 . S
H265 C275 0.929 . S
H266 C270 0.929 . S
H267 C276 0.929 . S
C268 H262 0.930 . S
C268 C269 1.367 . S
C268 C276 1.378 . S
C269 C268 1.367 . S
C269 C277 1.433 1_565 S
C270 H266 0.929 . S
C270 C272 1.378 . S
C270 C274 1.350 1_545 S
C271 C274 1.463 . S
C271 C276 1.350 . S
C271 N279 1.427 1_565 S
C272 H263 0.930 . S
C272 C270 1.378 . S
C272 C273 1.367 1_545 S
C273 C272 1.367 1_565 S
C273 C275 1.433 . S
C274 C270 1.350 1_565 S
C274 C271 1.463 . S
C274 N278 1.427 . S
C275 H265 0.929 . S
C275 C273 1.433 . S
C275 N278 1.384 . S
C276 H267 0.929 . S
C276 C268 1.378 . S
C276 C271 1.350 . S
C277 H264 0.929 . S
C277 C269 1.433 1_545 S
C277 N279 1.384 . S
N278 C274 1.427 . S
N278 C275 1.384 . S
N279 C271 1.427 1_545 S
N279 C277 1.384 . S
H280 C286 0.930 . S
H281 C290 0.930 . S
H282 C295 0.929 1_565 S
H283 C293 0.929 . S
H284 C288 0.929 . S
H285 C294 0.929 . S
C286 H280 0.930 . S
C286 C287 1.367 . S
C286 C294 1.378 . S
C287 C286 1.367 . S
C287 C295 1.433 1_455 S
C288 H284 0.929 . S
C288 C290 1.378 . S
C288 C292 1.350 1_655 S
C289 C292 1.463 . S
C289 C294 1.350 . S
C289 N297 1.427 1_455 S
C290 H281 0.930 . S
C290 C288 1.378 . S
C290 C291 1.367 . S
C291 C290 1.367 . S
C291 C293 1.433 1_655 S
C292 C288 1.350 1_455 S
C292 C289 1.463 . S
C292 N296 1.427 . S
C293 H283 0.929 . S
C293 C291 1.433 1_455 S
C293 N296 1.384 . S
C294 H285 0.929 . S
C294 C286 1.378 . S
C294 C289 1.350 . S
C295 H282 0.929 1_545 S
C295 C287 1.433 1_655 S
C295 N297 1.384 . S
N296 C292 1.427 . S
N296 C293 1.384 . S
N297 C289 1.427 1_655 S
N297 C295 1.384 . S
H298 C304 0.930 . S
H299 C308 0.930 . S
H300 C313 0.929 . S
H301 C311 0.929 . S
H302 C306 0.929 . S
H303 C312 0.929 . S
C304 H298 0.930 . S
C304 C305 1.367 . S
C304 C312 1.378 . S
C305 C304 1.367 . S
C305 C313 1.433 . S
C306 H302 0.929 . S
C306 C308 1.378 . S
C306 C310 1.350 . S
C307 C310 1.463 . S
C307 C312 1.350 . S
C307 N315 1.427 . S
C308 H299 0.930 . S
C308 C306 1.378 . S
C308 C309 1.367 . S
C309 C308 1.367 . S
C309 C311 1.433 . S
C310 C306 1.350 . S
C310 C307 1.463 . S
C310 N314 1.427 . S
C311 H301 0.929 . S
C311 C309 1.433 . S
C311 N314 1.384 . S
C312 H303 0.929 . S
C312 C304 1.378 . S
C312 C307 1.350 . S
C313 H300 0.929 . S
C313 C305 1.433 . S
C313 N315 1.384 . S
N314 C310 1.427 . S
N314 C311 1.384 . S
N315 C307 1.427 . S
N315 C313 1.384 . S
H316 C322 0.930 . S
H317 C326 0.930 . S
H318 C331 0.929 . S
H319 C329 0.929 . S
H320 C324 0.929 . S
H321 C330 0.929 . S
C322 H316 0.930 . S
C322 C323 1.367 . S
C322 C330 1.378 . S
C323 C322 1.367 . S
C323 C331 1.433 . S
C324 H320 0.929 . S
C324 C326 1.378 . S
C324 C328 1.350 . S
C325 C328 1.463 . S
C325 C330 1.350 . S
C325 N333 1.427 . S
C326 H317 0.930 . S
C326 C324 1.378 . S
C326 C327 1.367 . S
C327 C326 1.367 . S
C327 C329 1.433 . S
C328 C324 1.350 . S
C328 C325 1.463 . S
C328 N332 1.427 . S
C329 H319 0.929 . S
C329 C327 1.433 . S
C329 N332 1.384 . S
C330 H321 0.929 . S
C330 C322 1.378 . S
C330 C325 1.350 . S
C331 H318 0.929 . S
C331 C323 1.433 . S
C331 N333 1.384 . S
N332 C328 1.427 . S
N332 C329 1.384 . S
N333 C325 1.427 . S
N333 C331 1.384 . S
C129 C105 1.533 . S
C125 C16 1.396 . S
C143 C15 1.441 . S
C147 C91 1.416 . S
C161 C13 1.268 1_554 S
C165 C110 1.446 . S
C179 C14 1.500 . S
C183 C86 1.519 . S
C197 C37 1.396 . S
C201 C67 1.532 . S
C215 C36 1.434 . S
C219 C53 1.423 . S
C237 C72 1.440 . S
C233 C34 1.281 . S
C255 C48 1.519 . S
C251 C35 1.502 . S
C269 C17 1.638 1_565 S
C273 C44 1.666 . S
C287 C18 1.419 . S
C291 C63 1.426 . S
C309 C82 1.667 . S
C305 C38 1.634 . S
C323 C39 1.409 . S
C327 C101 1.434 . S
