# Generated by pormake.
# Topology rtl, (3,6)-cn, num edge types: 1
# Building blocks:
#     Node 0, Type 0, BuildingBlock: ESEHIV_clean_linker_0, # of connection points: 3
#     Node 1, Type 0, BuildingBlock: ESEHIV_clean_linker_0, # of connection points: 3
#     Node 2, Type 0, BuildingBlock: ESEHIV_clean_linker_0, # of connection points: 3
#     Node 3, Type 0, BuildingBlock: ESEHIV_clean_linker_0, # of connection points: 3
#     Node 4, Type 1, BuildingBlock: KUMBUR_clean_sbu_1, # of connection points: 6
#     Node 5, Type 1, BuildingBlock: KUMBUR_clean_sbu_1, # of connection points: 6
#     Edge 6, Type (0, 1), BuildingBlock: CIFDUS_clean_linker_0, # of connection points: 2
#     Edge 7, Type (0, 1), BuildingBlock: CIFDUS_clean_linker_0, # of connection points: 2
#     Edge 8, Type (0, 1), BuildingBlock: CIFDUS_clean_linker_0, # of connection points: 2
#     Edge 9, Type (0, 1), BuildingBlock: CIFDUS_clean_linker_0, # of connection points: 2
#     Edge 10, Type (0, 1), BuildingBlock: CIFDUS_clean_linker_0, # of connection points: 2
#     Edge 11, Type (0, 1), BuildingBlock: CIFDUS_clean_linker_0, # of connection points: 2
#     Edge 12, Type (0, 1), BuildingBlock: CIFDUS_clean_linker_0, # of connection points: 2
#     Edge 13, Type (0, 1), BuildingBlock: CIFDUS_clean_linker_0, # of connection points: 2
#     Edge 14, Type (0, 1), BuildingBlock: CIFDUS_clean_linker_0, # of connection points: 2
#     Edge 15, Type (0, 1), BuildingBlock: CIFDUS_clean_linker_0, # of connection points: 2
#     Edge 16, Type (0, 1), BuildingBlock: CIFDUS_clean_linker_0, # of connection points: 2
#     Edge 17, Type (0, 1), BuildingBlock: CIFDUS_clean_linker_0, # of connection points: 2
# Relax obj value: 0.018
# Max RMSD: 0.128
# Mean RMSD: 0.076
data_MOF--net-rtl--node1-KUMBUR_clean_sbu_1--node2-ESEHIV_clean_linker_0--edge1-CIFDUS_clean_linker_0
_symmetry_space_group_name_H-M    P1
_symmetry_Int_Tables_number       1
_symmetry_cell_setting            triclinic
loop_
_symmetry_equiv_pos_as_xyz
'x, y, z'
_cell_length_a     26.698166
_cell_length_b     27.573703
_cell_length_c     24.648514
_cell_angle_alpha  75.357947
_cell_angle_beta   98.651048
_cell_angle_gamma 90.662831
loop_
_atom_site_label
_atom_site_type_symbol
_atom_site_fract_x
_atom_site_fract_y
_atom_site_fract_z
_atom_type_partial_charge
H0 H 0.16581 0.91879 0.01289 0.0
H1 H 0.25709 0.79832 0.13026 0.0
H2 H 0.24617 0.81717 0.94941 0.0
C3 C 0.19178 0.88691 0.02112 0.0
C4 C 0.20378 0.87035 0.97545 0.0
C5 C 0.21082 0.86118 0.07719 0.0
C6 C 0.24282 0.81857 0.08704 0.0
C7 C 0.25618 0.80213 0.04115 0.0
C8 C 0.23615 0.82851 0.98549 0.0
H9 H 0.60929 0.64416 0.65239 0.0
H10 H 0.71679 0.72287 0.55199 0.0
H11 H 0.72936 0.72385 0.72771 0.0
C12 C 0.64214 0.66756 0.6491 0.0
C13 C 0.66696 0.68202 0.69703 0.0
C14 C 0.66036 0.6818 0.59704 0.0
C15 C 0.70365 0.71077 0.59273 0.0
C16 C 0.72878 0.72622 0.63946 0.0
C17 C 0.71017 0.71185 0.69156 0.0
H18 H 0.90132 0.14572 0.11597 0.0
H19 H 0.80341 0.22312 0.19016 0.0
H20 H 0.77497 0.23552 0.01026 0.0
C21 C 0.8684 0.16997 0.11093 0.0
C22 C 0.84003 0.18923 0.05685 0.0
C23 C 0.85446 0.18108 0.15905 0.0
C24 C 0.81276 0.21334 0.1529 0.0
C25 C 0.7839 0.23372 0.09938 0.0
C26 C 0.79778 0.22131 0.05143 0.0
H27 H 0.37494 0.37265 0.43867 0.0
H28 H 0.27749 0.27357 0.53471 0.0
H29 H 0.27224 0.28152 0.35695 0.0
C30 C 0.34563 0.34501 0.44036 0.0
C31 C 0.3246 0.33063 0.39101 0.0
C32 C 0.32899 0.32353 0.49206 0.0
C33 C 0.2909 0.28829 0.49451 0.0
C34 C 0.27042 0.27181 0.4466 0.0
C35 C 0.28707 0.29389 0.39444 0.0
Tb36 Tb 0.04206 0.94893 0.53946 0.0
C37 C 0.95509 0.15511 0.50874 0.0
N38 N 0.99221 0.13166 0.55074 0.0
C39 C 0.04341 0.20437 0.53057 0.0
C40 C 0.96178 0.20296 0.47362 0.0
C41 C 0.03428 0.1573 0.56491 0.0
C42 C 0.00755 0.22676 0.48375 0.0
C43 C 0.86685 0.15823 0.46648 0.0
C44 C 0.90843 0.13327 0.50513 0.0
C45 C 0.87412 0.20422 0.42838 0.0
C46 C 0.92162 0.22653 0.43186 0.0
Tb47 Tb 0.9749 0.05224 0.59992 0.0
N48 N 0.90315 0.08874 0.54237 0.0
C49 C 0.81906 0.13698 0.46878 0.0
C50 C 0.85624 0.06938 0.54748 0.0
C51 C 0.81358 0.09284 0.51023 0.0
H52 H 0.06133 0.1413 0.60235 0.0
H53 H 0.77662 0.07677 0.51329 0.0
H54 H 0.00597 0.83735 0.60286 0.0
H55 H 0.23292 0.01468 0.522 0.0
H56 H 0.85219 0.03512 0.57931 0.0
H57 H 0.78604 0.155 0.43989 0.0
H58 H 0.14199 0.00915 0.48792 0.0
H59 H 0.07782 0.22354 0.54065 0.0
H60 H 0.84289 0.22365 0.39754 0.0
H61 H 0.92623 0.26297 0.40383 0.0
H62 H 0.04154 0.76489 0.68097 0.0
H63 H 0.01435 0.2635 0.45768 0.0
H64 H 0.27275 0.95722 0.61216 0.0
N65 N 0.07277 0.87943 0.60844 0.0
C66 C 0.12203 0.87958 0.6318 0.0
C67 C 0.06448 0.79712 0.66786 0.0
C68 C 0.14399 0.83957 0.67653 0.0
C69 C 0.04442 0.83804 0.62375 0.0
C70 C 0.11421 0.7983 0.69516 0.0
N71 N 0.12858 0.9537 0.56175 0.0
C72 C 0.1582 0.98542 0.52867 0.0
C73 C 0.20311 0.91904 0.62824 0.0
C74 C 0.15084 0.91877 0.60817 0.0
C75 C 0.23244 0.95559 0.59819 0.0
C76 C 0.21011 0.98805 0.54729 0.0
H77 H 0.12964 0.76668 0.7294 0.0
H78 H 0.21266 0.8115 0.73475 0.0
H79 H 0.26466 0.88119 0.69223 0.0
O80 O 0.0796 0.91527 0.48833 0.0
O81 O 0.03385 0.9353 0.6294 0.0
O82 O 0.04482 0.01258 0.64681 0.0
O83 O 0.99907 0.9119 0.48418 0.0
O84 O 0.06267 0.02821 0.51401 0.0
O85 O 0.0563 0.05557 0.59353 0.0
O86 O 0.94646 0.02859 0.67727 0.0
O87 O 0.94083 0.03121 0.52237 0.0
O88 O 0.00868 0.01788 0.48076 0.0
O89 O 0.96139 0.10582 0.64397 0.0
O90 O 0.9386 0.97906 0.61511 0.0
O91 O 0.96495 0.92997 0.55835 0.0
C92 C 0.04976 0.96359 0.66362 0.0
C93 C 0.03224 0.92153 0.39839 0.0
C94 C 0.06221 0.92067 0.30973 0.0
C95 C 0.02665 0.95923 0.28065 0.0
C96 C 0.99663 0.95965 0.36826 0.0
C97 C 0.99399 0.97837 0.30979 0.0
C98 C 0.06463 0.90178 0.36878 0.0
C99 C 0.07649 0.05786 0.5475 0.0
C100 C 0.03767 0.90403 0.46079 0.0
C101 C 0.19517 0.84144 0.69966 0.0
C102 C 0.22472 0.88121 0.67556 0.0
C103 C 0.96228 0.0348 0.47709 0.0
C104 C 0.97459 0.07521 0.74294 0.0
C105 C 0.97116 0.08482 0.83786 0.0
C106 C 0.02375 0.07547 0.85164 0.0
C107 C 0.02727 0.06738 0.75683 0.0
C108 C 0.94665 0.08469 0.78328 0.0
C109 C 0.05166 0.06721 0.81108 0.0
C110 C 0.93465 0.94007 0.59247 0.0
C111 C 0.94858 0.07279 0.68685 0.0
H112 H 0.02363 0.97412 0.23514 0.0
H113 H 0.97098 0.97517 0.38988 0.0
H114 H 0.96658 0.00788 0.28699 0.0
H115 H 0.09238 0.87258 0.39181 0.0
H116 H 0.04329 0.07536 0.89351 0.0
H117 H 0.04941 0.06148 0.72568 0.0
H118 H 0.90597 0.09118 0.77258 0.0
H119 H 0.09227 0.06078 0.82169 0.0
Tb120 Tb 0.4499 0.46961 0.99263 0.0
C121 C 0.65875 0.55781 0.09069 0.0
N122 N 0.63223 0.5179 0.11476 0.0
C123 C 0.70937 0.46924 0.15129 0.0
C124 C 0.71191 0.55481 0.09533 0.0
C125 C 0.65664 0.47422 0.1459 0.0
C126 C 0.73712 0.50961 0.12561 0.0
C127 C 0.65846 0.64489 0.03768 0.0
C128 C 0.63243 0.60221 0.06228 0.0
C129 C 0.71143 0.64196 0.04137 0.0
C130 C 0.73809 0.59701 0.07007 0.0
Tb131 Tb 0.54652 0.52953 0.09958 0.0
N132 N 0.58109 0.60327 0.05837 0.0
C133 C 0.63045 0.68921 0.01031 0.0
C134 C 0.55369 0.64686 0.03347 0.0
C135 C 0.57791 0.69028 0.00863 0.0
H136 H 0.63544 0.44324 0.16677 0.0
H137 H 0.55602 0.72451 0.98807 0.0
H138 H 0.33324 0.50483 0.99749 0.0
H139 H 0.5383 0.28376 0.04559 0.0
H140 H 0.51308 0.64802 0.03158 0.0
H141 H 0.64904 0.72286 0.99081 0.0
H142 H 0.52634 0.37248 0.99451 0.0
H143 H 0.72857 0.43438 0.17543 0.0
H144 H 0.73215 0.67429 0.02246 0.0
H145 H 0.77896 0.59541 0.07293 0.0
H146 H 0.25871 0.46704 0.03904 0.0
H147 H 0.77797 0.5057 0.13004 0.0
H148 H 0.47568 0.24267 0.10556 0.0
N149 N 0.37873 0.43791 0.02821 0.0
C150 C 0.38134 0.38884 0.05717 0.0
C151 C 0.293 0.44466 0.0445 0.0
C152 C 0.33999 0.36583 0.08194 0.0
C153 C 0.3352 0.46594 0.02101 0.0
C154 C 0.29548 0.39446 0.07538 0.0
N155 N 0.46348 0.38512 0.03392 0.0
C156 C 0.50125 0.35665 0.02439 0.0
C157 C 0.42904 0.31013 0.08838 0.0
C158 C 0.42563 0.36179 0.06107 0.0
C159 C 0.47156 0.28244 0.08524 0.0
C160 C 0.50711 0.30555 0.05171 0.0
H161 H 0.26284 0.37817 0.09379 0.0
H162 H 0.31323 0.29686 0.13197 0.0
H163 H 0.39103 0.24783 0.13701 0.0
O164 O 0.45916 0.44627 0.91981 0.0
O165 O 0.43502 0.46731 0.07908 0.0
O166 O 0.51517 0.45586 0.12639 0.0
O167 O 0.3885 0.47839 0.92572 0.0
O168 O 0.53258 0.458 0.99896 0.0
O169 O 0.55851 0.45361 0.0926 0.0
O170 O 0.50498 0.54844 0.15734 0.0
O171 O 0.55541 0.55384 0.00939 0.0
O172 O 0.47938 0.5426 0.95437 0.0
O173 O 0.58595 0.5371 0.17783 0.0
O174 O 0.47225 0.56819 0.06946 0.0
O175 O 0.42286 0.54369 0.99403 0.0
C176 C 0.46645 0.45136 0.12652 0.0
C177 C 0.38663 0.41827 0.87213 0.0
C178 C 0.3635 0.38233 0.79143 0.0
C179 C 0.34433 0.3406 0.82729 0.0
C180 C 0.36696 0.37656 0.90722 0.0
C181 C 0.34578 0.33799 0.8848 0.0
C182 C 0.3843 0.42133 0.81407 0.0
C183 C 0.56674 0.44506 0.04476 0.0
C184 C 0.41272 0.45724 0.89571 0.0
C185 C 0.34436 0.31515 0.11205 0.0
C186 C 0.3888 0.28732 0.11524 0.0
C187 C 0.52482 0.56142 0.96058 0.0
C188 C 0.54883 0.59734 0.21381 0.0
C189 C 0.56946 0.63733 0.29176 0.0
C190 C 0.55014 0.68322 0.25536 0.0
C191 C 0.53074 0.64378 0.1778 0.0
C192 C 0.56885 0.59441 0.27065 0.0
C193 C 0.53123 0.68639 0.19859 0.0
C194 C 0.43172 0.57212 0.03029 0.0
C195 C 0.54532 0.55155 0.19321 0.0
H196 H 0.32788 0.31021 0.81067 0.0
H197 H 0.36841 0.37349 0.95188 0.0
H198 H 0.33083 0.30581 0.91215 0.0
H199 H 0.39993 0.45329 0.78689 0.0
H200 H 0.55055 0.7168 0.27062 0.0
H201 H 0.51578 0.64705 0.13379 0.0
H202 H 0.58312 0.5587 0.29861 0.0
H203 H 0.51686 0.72197 0.17063 0.0
H204 H 0.26753 0.19208 0.53764 0.0
H205 H 0.18805 0.25873 0.3694 0.0
H206 H 0.12321 0.19526 0.38407 0.0
H207 H 0.08586 0.12418 0.4478 0.0
H208 H 0.15964 0.06805 0.62027 0.0
H209 H 0.22926 0.12535 0.60162 0.0
C210 C 0.23564 0.19374 0.50426 0.0
C211 C 0.23258 0.23109 0.45275 0.0
C212 C 0.19718 0.15915 0.51411 0.0
C213 C 0.19188 0.23051 0.40939 0.0
C214 C 0.15443 0.19447 0.41796 0.0
C215 C 0.11749 0.12456 0.48094 0.0
C216 C 0.11822 0.09213 0.53519 0.0
C217 C 0.15626 0.15912 0.47052 0.0
C218 C 0.15856 0.09306 0.57836 0.0
C219 C 0.19828 0.1256 0.56763 0.0
H220 H 0.25144 0.731 0.98114 0.0
H221 H 0.34071 0.77416 0.12182 0.0
H222 H 0.40168 0.70588 0.132 0.0
H223 H 0.43124 0.63629 0.09847 0.0
H224 H 0.3453 0.59818 0.95266 0.0
H225 H 0.28194 0.66293 0.94647 0.0
C226 C 0.28448 0.72603 0.01371 0.0
C227 C 0.29144 0.75821 0.05034 0.0
C228 C 0.32027 0.68783 0.01813 0.0
C229 C 0.33384 0.74983 0.09336 0.0
C230 C 0.36908 0.71105 0.09887 0.0
C231 C 0.39907 0.64236 0.06491 0.0
C232 C 0.39365 0.61239 0.02587 0.0
C233 C 0.36299 0.68026 0.06099 0.0
C234 C 0.35086 0.62049 0.98335 0.0
C235 C 0.31444 0.65759 0.97974 0.0
H236 H 0.74905 0.81171 0.67449 0.0
H237 H 0.80861 0.71343 0.58698 0.0
H238 H 0.87686 0.77105 0.56407 0.0
H239 H 0.91724 0.85085 0.56491 0.0
H240 H 0.85971 0.9486 0.65474 0.0
H241 H 0.79299 0.88991 0.68014 0.0
C242 C 0.7775 0.80255 0.65128 0.0
C243 C 0.77352 0.75851 0.63215 0.0
C244 C 0.81665 0.83605 0.63794 0.0
C245 C 0.81043 0.74741 0.60159 0.0
C246 C 0.84948 0.78033 0.58844 0.0
C247 C 0.89046 0.85937 0.59038 0.0
C248 C 0.8938 0.90435 0.60767 0.0
C249 C 0.8525 0.82513 0.60559 0.0
C250 C 0.85826 0.91447 0.6405 0.0
C251 C 0.82002 0.8808 0.65528 0.0
H252 H 0.75121 0.31794 0.01489 0.0
H253 H 0.7154 0.2253 0.17311 0.0
H254 H 0.64774 0.28407 0.17151 0.0
H255 H 0.59911 0.36213 0.12642 0.0
H256 H 0.62771 0.45123 0.96402 0.0
H257 H 0.69755 0.39335 0.96567 0.0
C258 C 0.72818 0.31017 0.04861 0.0
C259 C 0.73938 0.26759 0.09465 0.0
C260 C 0.68821 0.34367 0.04688 0.0
C261 C 0.70893 0.25842 0.13797 0.0
C262 C 0.66989 0.29188 0.137 0.0
C263 C 0.62096 0.36897 0.09162 0.0
C264 C 0.60911 0.411 0.04557 0.0
C265 C 0.65962 0.33486 0.09211 0.0
C266 C 0.63659 0.41904 1.0 0.0
C267 C 0.67635 0.38598 1.00096 0.0
H268 H 0.17485 0.80493 0.17061 0.0
H269 H 0.20985 0.95651 0.08907 0.0
H270 H 0.17008 0.98797 0.1568 0.0
H271 H 0.11827 0.97335 0.23312 0.0
H272 H 0.08205 0.82239 0.3149 0.0
H273 H 0.13011 0.78959 0.25405 0.0
C274 C 0.17476 0.84468 0.16858 0.0
C275 C 0.19471 0.87842 0.12451 0.0
C276 C 0.1512 0.86265 0.20737 0.0
C277 C 0.19406 0.9299 0.12214 0.0
C278 C 0.17131 0.94792 0.1608 0.0
C279 C 0.12121 0.93324 0.2378 0.0
C280 C 0.09616 0.90036 0.27782 0.0
C281 C 0.14847 0.91482 0.20248 0.0
C282 C 0.10105 0.84843 0.28432 0.0
C283 C 0.12829 0.82971 0.24936 0.0
H284 H 0.56889 0.67464 0.71682 0.0
H285 H 0.72311 0.6499 0.80301 0.0
H286 H 0.69262 0.61495 0.89311 0.0
H287 H 0.62242 0.58456 0.94591 0.0
H288 H 0.46848 0.60561 0.85825 0.0
H289 H 0.49877 0.64797 0.77028 0.0
C290 C 0.59594 0.66143 0.75521 0.0
C291 C 0.6483 0.66459 0.75274 0.0
C292 C 0.57821 0.64023 0.80668 0.0
C293 C 0.68262 0.6484 0.80342 0.0
C294 C 0.66522 0.62798 0.85501 0.0
C295 C 0.59539 0.59912 0.90784 0.0
C296 C 0.54319 0.59169 0.90885 0.0
C297 C 0.61311 0.62284 0.85697 0.0
C298 C 0.50886 0.61041 0.85878 0.0
C299 C 0.52614 0.63469 0.80834 0.0
H300 H 0.81465 0.13295 0.2521 0.0
H301 H 0.95687 0.17562 0.1933 0.0
H302 H 1.00293 0.13424 0.28703 0.0
H303 H 1.00249 0.08576 0.38546 0.0
H304 H 0.86044 0.03915 0.4424 0.0
H305 H 0.8143 0.08307 0.34991 0.0
C306 C 0.85571 0.13358 0.26009 0.0
C307 C 0.88241 0.15745 0.21616 0.0
C308 C 0.88181 0.10927 0.31368 0.0
C309 C 0.93561 0.15727 0.22655 0.0
C310 C 0.96188 0.13376 0.28006 0.0
C311 C 0.96143 0.08518 0.37746 0.0
C312 C 0.93468 0.06022 0.42085 0.0
C313 C 0.93536 0.1095 0.32384 0.0
C314 C 0.88162 0.05935 0.41001 0.0
C315 C 0.85532 0.08406 0.35704 0.0
H316 H 0.31481 0.40723 0.52748 0.0
H317 H 0.39193 0.26289 0.57675 0.0
H318 H 0.4136 0.2703 0.67424 0.0
H319 H 0.40096 0.31284 0.74742 0.0
H320 H 0.32287 0.45666 0.69988 0.0
H321 H 0.3114 0.45501 0.59973 0.0
C322 C 0.33772 0.37835 0.55939 0.0
C323 C 0.35219 0.33477 0.54547 0.0
C324 C 0.34893 0.38241 0.61568 0.0
C325 C 0.381 0.29691 0.58691 0.0
C326 C 0.39292 0.30094 0.64259 0.0
C327 C 0.38193 0.34399 0.71492 0.0
C328 C 0.36208 0.38442 0.73067 0.0
C329 C 0.37551 0.34265 0.65782 0.0
C330 C 0.33824 0.42507 0.68845 0.0
C331 C 0.33158 0.42405 0.63134 0.0
H332 H 0.7001 0.63608 0.52729 0.0
H333 H 0.56074 0.69881 0.55206 0.0
H334 H 0.51901 0.68805 0.46046 0.0
H335 H 0.52455 0.66727 0.36987 0.0
H336 H 0.66327 0.60248 0.34626 0.0
H337 H 0.703 0.60719 0.441 0.0
C338 C 0.66042 0.64678 0.51276 0.0
C339 C 0.6335 0.66853 0.54589 0.0
C340 C 0.63681 0.64042 0.46023 0.0
C341 C 0.58203 0.68182 0.52721 0.0
C342 C 0.55833 0.67599 0.47476 0.0
C343 C 0.56332 0.65381 0.38588 0.0
C344 C 0.59124 0.63501 0.35126 0.0
C345 C 0.58568 0.65637 0.44039 0.0
C346 C 0.64117 0.61702 0.37239 0.0
C347 C 0.6639 0.61992 0.42635 0.0
H348 H 0.87595 0.09859 0.05186 0.0
H349 H 0.83829 0.24881 0.9486 0.0
H350 H 0.8708 0.22796 0.86947 0.0
H351 H 0.91709 0.16909 0.83238 0.0
H352 H 0.96206 0.02236 0.93985 0.0
H353 H 0.92051 0.04002 0.01505 0.0
C354 C 0.87519 0.12707 0.01229 0.0
C355 C 0.85527 0.17549 1.00672 0.0
C356 C 0.8957 0.11547 0.96782 0.0
C357 C 0.85308 0.21117 0.95423 0.0
C358 C 0.8721 0.1994 0.90904 0.0
C359 C 0.9171 0.14095 0.87211 0.0
C360 C 0.94234 0.09452 0.8809 0.0
C361 C 0.89444 0.152 0.91573 0.0
C362 C 0.94283 0.05835 0.93252 0.0
C363 C 0.91915 0.06846 0.97538 0.0
H364 H 0.42206 0.34153 0.37183 0.0
H365 H 0.26776 0.37061 0.28764 0.0
H366 H 0.2978 0.41174 0.19851 0.0
H367 H 0.36822 0.44208 0.14581 0.0
H368 H 0.52237 0.40797 0.22912 0.0
H369 H 0.49217 0.36782 0.3178 0.0
C370 C 0.39505 0.35699 0.33395 0.0
C371 C 0.34279 0.3534 0.33635 0.0
C372 C 0.41258 0.38015 0.28292 0.0
C373 C 0.30817 0.37279 0.28675 0.0
C374 C 0.32533 0.39652 0.23592 0.0
C375 C 0.39517 0.42496 0.18294 0.0
C376 C 0.44744 0.42744 0.18028 0.0
C377 C 0.37748 0.40067 0.2336 0.0
C378 C 0.48188 0.40652 0.22963 0.0
C379 C 0.46466 0.38338 0.28046 0.0
H380 H 0.13895 0.82983 0.90587 0.0
H381 H 0.21527 0.9664 0.91606 0.0
H382 H 0.17503 0.00758 0.8192 0.0
H383 H 0.11835 0.00394 0.73175 0.0
H384 H 0.03557 0.86963 0.72618 0.0
H385 H 0.07876 0.82774 0.82067 0.0
C386 C 0.14675 0.86855 0.88654 0.0
C387 C 0.18013 0.89516 0.91717 0.0
C388 C 0.12252 0.8921 0.83182 0.0
C389 C 0.18969 0.94544 0.89267 0.0
C390 C 0.16673 0.96885 0.83754 0.0
C391 C 0.10921 0.96579 0.75163 0.0
C392 C 0.07428 0.93965 0.72185 0.0
C393 C 0.13293 0.94255 0.80679 0.0
C394 C 0.06326 0.89005 0.74777 0.0
C395 C 0.08761 0.86623 0.80197 0.0
loop_
_geom_bond_atom_site_label_1
_geom_bond_atom_site_label_2
_geom_bond_distance
_geom_bond_site_symmetry_2
_ccdc_geom_bond_type
H0 C3 0.930 . S
H1 C6 0.928 . S
H2 C8 0.930 . S
C3 H0 0.930 . S
C3 C4 1.413 1_554 S
C3 C5 1.360 . S
C4 C3 1.413 1_556 S
C4 C8 1.429 . S
C5 C3 1.360 . S
C5 C6 1.372 . S
C6 H1 0.928 . S
C6 C5 1.372 . S
C6 C7 1.404 . S
C7 C6 1.404 . S
C7 C8 1.391 1_554 S
C8 H2 0.930 . S
C8 C4 1.429 . S
C8 C7 1.391 1_556 S
H9 C12 0.931 . S
H10 C15 0.928 . S
H11 C17 0.930 . S
C12 H9 0.931 . S
C12 C13 1.413 . S
C12 C14 1.360 . S
C13 C12 1.413 . S
C13 C17 1.429 . S
C14 C12 1.360 . S
C14 C15 1.372 . S
C15 H10 0.928 . S
C15 C14 1.372 . S
C15 C16 1.404 . S
C16 C15 1.404 . S
C16 C17 1.391 . S
C17 H11 0.930 . S
C17 C13 1.429 . S
C17 C16 1.391 . S
H18 C21 0.931 . S
H19 C24 0.928 . S
H20 C26 0.930 1_556 S
C21 H18 0.931 . S
C21 C22 1.413 . S
C21 C23 1.360 . S
C22 C21 1.413 . S
C22 C26 1.429 . S
C23 C21 1.360 . S
C23 C24 1.372 . S
C24 H19 0.928 . S
C24 C23 1.372 . S
C24 C25 1.404 . S
C25 C24 1.404 . S
C25 C26 1.391 . S
C26 H20 0.930 1_554 S
C26 C22 1.429 . S
C26 C25 1.391 . S
H27 C30 0.931 . S
H28 C33 0.928 . S
H29 C35 0.930 . S
C30 H27 0.931 . S
C30 C31 1.413 . S
C30 C32 1.360 . S
C31 C30 1.413 . S
C31 C35 1.429 . S
C32 C30 1.360 . S
C32 C33 1.372 . S
C33 H28 0.928 . S
C33 C32 1.372 . S
C33 C34 1.404 . S
C34 C33 1.404 . S
C34 C35 1.391 . S
C35 H29 0.930 . S
C35 C31 1.429 . S
C35 C34 1.391 . S
Tb36 N65 2.617 . S
Tb36 N71 2.572 . S
Tb36 O80 2.465 . S
Tb36 O81 2.387 . S
Tb36 O83 2.428 . S
Tb36 O84 2.308 1_565 S
Tb36 O88 2.349 1_465 S
Tb36 O91 2.393 1_455 S
Tb36 C100 2.802 . S
C37 N38 1.379 . S
C37 C40 1.416 . S
C37 C44 1.424 . S
N38 C37 1.379 . S
N38 C41 1.334 . S
N38 Tb47 2.617 . S
C39 C41 1.390 . S
C39 C42 1.339 . S
C39 H59 0.930 1_655 S
C40 C37 1.416 . S
C40 C42 1.416 . S
C40 C46 1.448 . S
C41 N38 1.334 . S
C41 C39 1.390 . S
C41 H52 0.930 1_655 S
C42 C39 1.339 . S
C42 C40 1.416 . S
C42 H63 0.930 . S
C43 C44 1.413 . S
C43 C45 1.427 . S
C43 C49 1.416 . S
C44 C37 1.424 . S
C44 C43 1.413 . S
C44 N48 1.361 . S
C45 C43 1.427 . S
C45 C46 1.328 . S
C45 H60 0.929 . S
C46 C40 1.448 . S
C46 C45 1.328 . S
C46 H61 0.930 . S
Tb47 N38 2.617 . S
Tb47 N48 2.572 . S
Tb47 O82 2.349 1_655 S
Tb47 O85 2.393 1_655 S
Tb47 O86 2.465 . S
Tb47 O87 2.387 . S
Tb47 O89 2.428 . S
Tb47 O90 2.308 1_545 S
Tb47 C111 2.802 . S
N48 C44 1.361 . S
N48 Tb47 2.572 . S
N48 C50 1.340 . S
C49 C43 1.416 . S
C49 C51 1.332 . S
C49 H57 0.931 . S
C50 N48 1.340 . S
C50 C51 1.407 . S
C50 H56 0.930 . S
C51 C49 1.332 . S
C51 C50 1.407 . S
C51 H53 0.929 . S
H52 C41 0.930 1_455 S
H53 C51 0.929 . S
H54 C69 0.930 1_655 S
H55 C76 0.929 . S
H56 C50 0.930 . S
H57 C49 0.931 . S
H58 C72 0.930 . S
H59 C39 0.930 1_455 S
H60 C45 0.929 . S
H61 C46 0.930 . S
H62 C67 0.930 1_655 S
H63 C42 0.930 . S
H64 C75 0.931 . S
N65 Tb36 2.617 . S
N65 C66 1.379 . S
N65 C69 1.334 . S
C66 N65 1.379 . S
C66 C68 1.416 . S
C66 C74 1.424 . S
C67 H62 0.930 1_455 S
C67 C69 1.390 . S
C67 C70 1.339 . S
C68 C66 1.416 . S
C68 C70 1.416 . S
C68 C101 1.448 . S
C69 H54 0.930 1_455 S
C69 N65 1.334 . S
C69 C67 1.390 . S
C70 C67 1.339 . S
C70 C68 1.416 . S
C70 H77 0.930 . S
N71 Tb36 2.572 . S
N71 C72 1.340 . S
N71 C74 1.361 . S
C72 H58 0.930 . S
C72 N71 1.340 . S
C72 C76 1.407 . S
C73 C74 1.413 . S
C73 C75 1.416 . S
C73 C102 1.427 . S
C74 C66 1.424 . S
C74 N71 1.361 . S
C74 C73 1.413 . S
C75 H64 0.931 . S
C75 C73 1.416 . S
C75 C76 1.332 . S
C76 H55 0.929 . S
C76 C72 1.407 . S
C76 C75 1.332 . S
H77 C70 0.930 . S
H78 C101 0.930 . S
H79 C102 0.929 . S
O80 Tb36 2.465 . S
O80 C100 1.264 . S
O81 Tb36 2.387 . S
O81 C92 1.264 . S
O82 Tb47 2.349 1_455 S
O82 C92 1.243 1_545 S
O83 Tb36 2.428 . S
O83 C100 1.256 . S
O84 Tb36 2.308 1_545 S
O84 C99 1.266 . S
O85 Tb47 2.393 1_455 S
O85 C99 1.248 . S
O86 Tb47 2.465 . S
O86 C111 1.264 . S
O87 Tb47 2.387 . S
O87 C103 1.264 . S
O88 Tb36 2.349 1_645 S
O88 C103 1.243 . S
O89 Tb47 2.428 . S
O89 C111 1.256 . S
O90 Tb47 2.308 1_565 S
O90 C110 1.266 . S
O91 Tb36 2.393 1_655 S
O91 C110 1.248 . S
C92 O81 1.264 . S
C92 O82 1.243 1_565 S
C93 C96 1.399 . S
C93 C98 1.383 . S
C93 C100 1.496 . S
C94 C95 1.399 . S
C94 C98 1.389 . S
C95 C94 1.399 . S
C95 C97 1.380 . S
C95 H112 0.929 . S
C96 C93 1.399 . S
C96 C97 1.392 . S
C96 H113 0.929 . S
C97 C95 1.380 . S
C97 C96 1.392 . S
C97 H114 0.929 . S
C98 C93 1.383 . S
C98 C94 1.389 . S
C98 H115 0.931 . S
C99 O84 1.266 . S
C99 O85 1.248 . S
C100 Tb36 2.802 . S
C100 O80 1.264 . S
C100 O83 1.256 . S
C100 C93 1.496 . S
C101 C68 1.448 . S
C101 H78 0.930 . S
C101 C102 1.328 . S
C102 C73 1.427 . S
C102 H79 0.929 . S
C102 C101 1.328 . S
C103 O87 1.264 . S
C103 O88 1.243 . S
C104 C107 1.399 . S
C104 C108 1.383 . S
C104 C111 1.496 . S
C105 C106 1.399 . S
C105 C108 1.389 . S
C106 C105 1.399 . S
C106 C109 1.380 . S
C106 H116 0.929 . S
C107 C104 1.399 . S
C107 C109 1.392 . S
C107 H117 0.929 . S
C108 C104 1.383 . S
C108 C105 1.389 . S
C108 H118 0.931 . S
C109 C106 1.380 . S
C109 C107 1.392 . S
C109 H119 0.929 . S
C110 O90 1.266 . S
C110 O91 1.248 . S
C111 Tb47 2.802 . S
C111 O86 1.264 . S
C111 O89 1.256 . S
C111 C104 1.496 . S
H112 C95 0.929 . S
H113 C96 0.929 . S
H114 C97 0.929 . S
H115 C98 0.931 . S
H116 C106 0.929 . S
H117 C107 0.929 . S
H118 C108 0.931 . S
H119 C109 0.929 . S
Tb120 N149 2.617 1_556 S
Tb120 N155 2.572 1_556 S
Tb120 O164 2.465 . S
Tb120 O165 2.387 1_556 S
Tb120 O167 2.428 . S
Tb120 O168 2.308 1_556 S
Tb120 O172 2.349 . S
Tb120 O175 2.393 1_556 S
Tb120 C184 2.802 . S
C121 N122 1.379 . S
C121 C124 1.416 . S
C121 C128 1.424 . S
N122 C121 1.379 . S
N122 C125 1.334 . S
N122 Tb131 2.617 . S
C123 C125 1.390 . S
C123 C126 1.339 . S
C123 H143 0.930 . S
C124 C121 1.416 . S
C124 C126 1.416 . S
C124 C130 1.448 . S
C125 N122 1.334 . S
C125 C123 1.390 . S
C125 H136 0.930 . S
C126 C123 1.339 . S
C126 C124 1.416 . S
C126 H147 0.930 . S
C127 C128 1.413 . S
C127 C129 1.427 . S
C127 C133 1.416 . S
C128 C121 1.424 . S
C128 C127 1.413 . S
C128 N132 1.361 . S
C129 C127 1.427 . S
C129 C130 1.328 . S
C129 H144 0.929 . S
C130 C124 1.448 . S
C130 C129 1.328 . S
C130 H145 0.930 . S
Tb131 N122 2.617 . S
Tb131 N132 2.572 . S
Tb131 O166 2.349 . S
Tb131 O169 2.393 . S
Tb131 O170 2.465 . S
Tb131 O171 2.387 . S
Tb131 O173 2.428 . S
Tb131 O174 2.308 . S
Tb131 C195 2.802 . S
N132 C128 1.361 . S
N132 Tb131 2.572 . S
N132 C134 1.340 . S
C133 C127 1.416 . S
C133 C135 1.332 . S
C133 H141 0.931 . S
C134 N132 1.340 . S
C134 C135 1.407 . S
C134 H140 0.930 . S
C135 C133 1.332 . S
C135 C134 1.407 . S
C135 H137 0.929 . S
H136 C125 0.930 . S
H137 C135 0.929 . S
H138 C153 0.930 . S
H139 C160 0.929 . S
H140 C134 0.930 . S
H141 C133 0.931 . S
H142 C156 0.930 . S
H143 C123 0.930 . S
H144 C129 0.929 . S
H145 C130 0.930 . S
H146 C151 0.930 . S
H147 C126 0.930 . S
H148 C159 0.931 . S
N149 Tb120 2.617 1_554 S
N149 C150 1.379 . S
N149 C153 1.334 1_554 S
C150 N149 1.379 . S
C150 C152 1.416 . S
C150 C158 1.424 . S
C151 H146 0.930 . S
C151 C153 1.390 . S
C151 C154 1.339 1_556 S
C152 C150 1.416 . S
C152 C154 1.416 . S
C152 C185 1.448 . S
C153 H138 0.930 . S
C153 N149 1.334 1_556 S
C153 C151 1.390 . S
C154 C151 1.339 1_554 S
C154 C152 1.416 . S
C154 H161 0.930 . S
N155 Tb120 2.572 1_554 S
N155 C156 1.340 . S
N155 C158 1.361 . S
C156 H142 0.930 . S
C156 N155 1.340 . S
C156 C160 1.407 . S
C157 C158 1.413 . S
C157 C159 1.416 . S
C157 C186 1.427 . S
C158 C150 1.424 . S
C158 N155 1.361 . S
C158 C157 1.413 . S
C159 H148 0.931 . S
C159 C157 1.416 . S
C159 C160 1.332 . S
C160 H139 0.929 . S
C160 C156 1.407 . S
C160 C159 1.332 . S
H161 C154 0.930 . S
H162 C185 0.930 . S
H163 C186 0.929 . S
O164 Tb120 2.465 . S
O164 C184 1.264 . S
O165 Tb120 2.387 1_554 S
O165 C176 1.264 . S
O166 Tb131 2.349 . S
O166 C176 1.243 . S
O167 Tb120 2.428 . S
O167 C184 1.256 . S
O168 Tb120 2.308 1_554 S
O168 C183 1.266 . S
O169 Tb131 2.393 . S
O169 C183 1.248 . S
O170 Tb131 2.465 . S
O170 C195 1.264 . S
O171 Tb131 2.387 . S
O171 C187 1.264 1_554 S
O172 Tb120 2.349 . S
O172 C187 1.243 . S
O173 Tb131 2.428 . S
O173 C195 1.256 . S
O174 Tb131 2.308 . S
O174 C194 1.266 . S
O175 Tb120 2.393 1_554 S
O175 C194 1.248 . S
C176 O165 1.264 . S
C176 O166 1.243 . S
C177 C180 1.399 . S
C177 C182 1.383 . S
C177 C184 1.496 . S
C178 C179 1.399 . S
C178 C182 1.389 . S
C179 C178 1.399 . S
C179 C181 1.380 . S
C179 H196 0.929 . S
C180 C177 1.399 . S
C180 C181 1.392 . S
C180 H197 0.929 . S
C181 C179 1.380 . S
C181 C180 1.392 . S
C181 H198 0.929 . S
C182 C177 1.383 . S
C182 C178 1.389 . S
C182 H199 0.931 . S
C183 O168 1.266 . S
C183 O169 1.248 . S
C184 Tb120 2.802 . S
C184 O164 1.264 . S
C184 O167 1.256 . S
C184 C177 1.496 . S
C185 C152 1.448 . S
C185 H162 0.930 . S
C185 C186 1.328 . S
C186 C157 1.427 . S
C186 H163 0.929 . S
C186 C185 1.328 . S
C187 O171 1.264 1_556 S
C187 O172 1.243 . S
C188 C191 1.399 . S
C188 C192 1.383 . S
C188 C195 1.496 . S
C189 C190 1.399 . S
C189 C192 1.389 . S
C190 C189 1.399 . S
C190 C193 1.380 . S
C190 H200 0.929 . S
C191 C188 1.399 . S
C191 C193 1.392 . S
C191 H201 0.929 . S
C192 C188 1.383 . S
C192 C189 1.389 . S
C192 H202 0.931 . S
C193 C190 1.380 . S
C193 C191 1.392 . S
C193 H203 0.929 . S
C194 O174 1.266 . S
C194 O175 1.248 . S
C195 Tb131 2.802 . S
C195 O170 1.264 . S
C195 O173 1.256 . S
C195 C188 1.496 . S
H196 C179 0.929 . S
H197 C180 0.929 . S
H198 C181 0.929 . S
H199 C182 0.931 . S
H200 C190 0.929 . S
H201 C191 0.929 . S
H202 C192 0.931 . S
H203 C193 0.929 . S
H204 C210 0.930 . S
H205 C213 0.930 . S
H206 C214 0.930 . S
H207 C215 0.930 . S
H208 C218 0.930 . S
H209 C219 0.930 . S
C210 H204 0.930 . S
C210 C211 1.355 . S
C210 C212 1.415 . S
C211 C210 1.355 . S
C211 C213 1.419 . S
C212 C210 1.415 . S
C212 C217 1.425 . S
C212 C219 1.409 . S
C213 H205 0.930 . S
C213 C211 1.419 . S
C213 C214 1.362 . S
C214 H206 0.930 . S
C214 C213 1.362 . S
C214 C217 1.409 . S
C215 H207 0.930 . S
C215 C216 1.355 . S
C215 C217 1.415 . S
C216 C215 1.355 . S
C216 C218 1.419 . S
C217 C212 1.425 . S
C217 C214 1.409 . S
C217 C215 1.415 . S
C218 H208 0.930 . S
C218 C216 1.419 . S
C218 C219 1.362 . S
C219 H209 0.930 . S
C219 C212 1.409 . S
C219 C218 1.362 . S
H220 C226 0.930 . S
H221 C229 0.930 . S
H222 C230 0.930 . S
H223 C231 0.930 . S
H224 C234 0.930 . S
H225 C235 0.930 . S
C226 H220 0.930 . S
C226 C227 1.355 1_556 S
C226 C228 1.415 1_556 S
C227 C226 1.355 1_554 S
C227 C229 1.419 . S
C228 C226 1.415 1_554 S
C228 C233 1.425 . S
C228 C235 1.409 1_554 S
C229 H221 0.930 . S
C229 C227 1.419 . S
C229 C230 1.362 . S
C230 H222 0.930 . S
C230 C229 1.362 . S
C230 C233 1.409 . S
C231 H223 0.930 . S
C231 C232 1.355 . S
C231 C233 1.415 . S
C232 C231 1.355 . S
C232 C234 1.419 1_554 S
C233 C228 1.425 . S
C233 C230 1.409 . S
C233 C231 1.415 . S
C234 H224 0.930 . S
C234 C232 1.419 1_556 S
C234 C235 1.362 . S
C235 H225 0.930 . S
C235 C228 1.409 1_556 S
C235 C234 1.362 . S
H236 C242 0.930 . S
H237 C245 0.930 . S
H238 C246 0.930 . S
H239 C247 0.930 . S
H240 C250 0.930 . S
H241 C251 0.930 . S
C242 H236 0.930 . S
C242 C243 1.355 . S
C242 C244 1.415 . S
C243 C242 1.355 . S
C243 C245 1.419 . S
C244 C242 1.415 . S
C244 C249 1.425 . S
C244 C251 1.409 . S
C245 H237 0.930 . S
C245 C243 1.419 . S
C245 C246 1.362 . S
C246 H238 0.930 . S
C246 C245 1.362 . S
C246 C249 1.409 . S
C247 H239 0.930 . S
C247 C248 1.355 . S
C247 C249 1.415 . S
C248 C247 1.355 . S
C248 C250 1.419 . S
C249 C244 1.425 . S
C249 C246 1.409 . S
C249 C247 1.415 . S
C250 H240 0.930 . S
C250 C248 1.419 . S
C250 C251 1.362 . S
C251 H241 0.930 . S
C251 C244 1.409 . S
C251 C250 1.362 . S
H252 C258 0.930 . S
H253 C261 0.930 . S
H254 C262 0.930 . S
H255 C263 0.930 . S
H256 C266 0.930 1_556 S
H257 C267 0.930 1_556 S
C258 H252 0.930 . S
C258 C259 1.355 . S
C258 C260 1.415 . S
C259 C258 1.355 . S
C259 C261 1.419 . S
C260 C258 1.415 . S
C260 C265 1.425 . S
C260 C267 1.409 . S
C261 H253 0.930 . S
C261 C259 1.419 . S
C261 C262 1.362 . S
C262 H254 0.930 . S
C262 C261 1.362 . S
C262 C265 1.409 . S
C263 H255 0.930 . S
C263 C264 1.355 . S
C263 C265 1.415 . S
C264 C263 1.355 . S
C264 C266 1.419 . S
C265 C260 1.425 . S
C265 C262 1.409 . S
C265 C263 1.415 . S
C266 H256 0.930 1_554 S
C266 C264 1.419 . S
C266 C267 1.362 . S
C267 H257 0.930 1_554 S
C267 C260 1.409 . S
C267 C266 1.362 . S
H268 C274 0.930 . S
H269 C277 0.930 . S
H270 C278 0.930 . S
H271 C279 0.930 . S
H272 C282 0.930 . S
H273 C283 0.930 . S
C274 H268 0.930 . S
C274 C275 1.355 . S
C274 C276 1.415 . S
C275 C274 1.355 . S
C275 C277 1.419 . S
C276 C274 1.415 . S
C276 C281 1.425 . S
C276 C283 1.409 . S
C277 H269 0.930 . S
C277 C275 1.419 . S
C277 C278 1.362 . S
C278 H270 0.930 . S
C278 C277 1.362 . S
C278 C281 1.409 . S
C279 H271 0.930 . S
C279 C280 1.355 . S
C279 C281 1.415 . S
C280 C279 1.355 . S
C280 C282 1.419 . S
C281 C276 1.425 . S
C281 C278 1.409 . S
C281 C279 1.415 . S
C282 H272 0.930 . S
C282 C280 1.419 . S
C282 C283 1.362 . S
C283 H273 0.930 . S
C283 C276 1.409 . S
C283 C282 1.362 . S
H284 C290 0.930 . S
H285 C293 0.930 . S
H286 C294 0.930 . S
H287 C295 0.930 . S
H288 C298 0.930 . S
H289 C299 0.930 . S
C290 H284 0.930 . S
C290 C291 1.355 . S
C290 C292 1.415 . S
C291 C290 1.355 . S
C291 C293 1.419 . S
C292 C290 1.415 . S
C292 C297 1.425 . S
C292 C299 1.409 . S
C293 H285 0.930 . S
C293 C291 1.419 . S
C293 C294 1.362 . S
C294 H286 0.930 . S
C294 C293 1.362 . S
C294 C297 1.409 . S
C295 H287 0.930 . S
C295 C296 1.355 . S
C295 C297 1.415 . S
C296 C295 1.355 . S
C296 C298 1.419 . S
C297 C292 1.425 . S
C297 C294 1.409 . S
C297 C295 1.415 . S
C298 H288 0.930 . S
C298 C296 1.419 . S
C298 C299 1.362 . S
C299 H289 0.930 . S
C299 C292 1.409 . S
C299 C298 1.362 . S
H300 C306 0.930 . S
H301 C309 0.930 . S
H302 C310 0.930 . S
H303 C311 0.930 . S
H304 C314 0.930 1_565 S
H305 C315 0.930 1_565 S
C306 H300 0.930 . S
C306 C307 1.355 . S
C306 C308 1.415 . S
C307 C306 1.355 . S
C307 C309 1.419 . S
C308 C306 1.415 . S
C308 C313 1.425 . S
C308 C315 1.409 . S
C309 H301 0.930 . S
C309 C307 1.419 . S
C309 C310 1.362 . S
C310 H302 0.930 . S
C310 C309 1.362 . S
C310 C313 1.409 . S
C311 H303 0.930 . S
C311 C312 1.355 . S
C311 C313 1.415 . S
C312 C311 1.355 . S
C312 C314 1.419 . S
C313 C308 1.425 . S
C313 C310 1.409 . S
C313 C311 1.415 . S
C314 H304 0.930 1_545 S
C314 C312 1.419 . S
C314 C315 1.362 . S
C315 H305 0.930 1_545 S
C315 C308 1.409 . S
C315 C314 1.362 . S
H316 C322 0.930 . S
H317 C325 0.930 . S
H318 C326 0.930 . S
H319 C327 0.930 . S
H320 C330 0.930 . S
H321 C331 0.930 . S
C322 H316 0.930 . S
C322 C323 1.355 . S
C322 C324 1.415 . S
C323 C322 1.355 . S
C323 C325 1.419 . S
C324 C322 1.415 . S
C324 C329 1.425 . S
C324 C331 1.409 . S
C325 H317 0.930 . S
C325 C323 1.419 . S
C325 C326 1.362 . S
C326 H318 0.930 . S
C326 C325 1.362 . S
C326 C329 1.409 . S
C327 H319 0.930 . S
C327 C328 1.355 . S
C327 C329 1.415 . S
C328 C327 1.355 . S
C328 C330 1.419 . S
C329 C324 1.425 . S
C329 C326 1.409 . S
C329 C327 1.415 . S
C330 H320 0.930 . S
C330 C328 1.419 . S
C330 C331 1.362 . S
C331 H321 0.930 . S
C331 C324 1.409 . S
C331 C330 1.362 . S
H332 C338 0.930 . S
H333 C341 0.930 . S
H334 C342 0.930 . S
H335 C343 0.930 . S
H336 C346 0.930 . S
H337 C347 0.930 . S
C338 H332 0.930 . S
C338 C339 1.355 . S
C338 C340 1.415 . S
C339 C338 1.355 . S
C339 C341 1.419 . S
C340 C338 1.415 . S
C340 C345 1.425 . S
C340 C347 1.409 . S
C341 H333 0.930 . S
C341 C339 1.419 . S
C341 C342 1.362 . S
C342 H334 0.930 . S
C342 C341 1.362 . S
C342 C345 1.409 . S
C343 H335 0.930 . S
C343 C344 1.355 . S
C343 C345 1.415 . S
C344 C343 1.355 . S
C344 C346 1.419 . S
C345 C340 1.425 . S
C345 C342 1.409 . S
C345 C343 1.415 . S
C346 H336 0.930 . S
C346 C344 1.419 . S
C346 C347 1.362 . S
C347 H337 0.930 . S
C347 C340 1.409 . S
C347 C346 1.362 . S
H348 C354 0.930 1_554 S
H349 C357 0.930 . S
H350 C358 0.930 . S
H351 C359 0.930 . S
H352 C362 0.930 1_565 S
H353 C363 0.930 1_565 S
C354 H348 0.930 1_556 S
C354 C355 1.355 . S
C354 C356 1.415 . S
C355 C354 1.355 . S
C355 C357 1.419 . S
C356 C354 1.415 . S
C356 C361 1.425 . S
C356 C363 1.409 . S
C357 H349 0.930 . S
C357 C355 1.419 . S
C357 C358 1.362 . S
C358 H350 0.930 . S
C358 C357 1.362 . S
C358 C361 1.409 . S
C359 H351 0.930 . S
C359 C360 1.355 . S
C359 C361 1.415 . S
C360 C359 1.355 . S
C360 C362 1.419 . S
C361 C356 1.425 . S
C361 C358 1.409 . S
C361 C359 1.415 . S
C362 H352 0.930 1_545 S
C362 C360 1.419 . S
C362 C363 1.362 . S
C363 H353 0.930 1_545 S
C363 C356 1.409 . S
C363 C362 1.362 . S
H364 C370 0.930 . S
H365 C373 0.930 . S
H366 C374 0.930 . S
H367 C375 0.930 . S
H368 C378 0.930 . S
H369 C379 0.930 . S
C370 H364 0.930 . S
C370 C371 1.355 . S
C370 C372 1.415 . S
C371 C370 1.355 . S
C371 C373 1.419 . S
C372 C370 1.415 . S
C372 C377 1.425 . S
C372 C379 1.409 . S
C373 H365 0.930 . S
C373 C371 1.419 . S
C373 C374 1.362 . S
C374 H366 0.930 . S
C374 C373 1.362 . S
C374 C377 1.409 . S
C375 H367 0.930 . S
C375 C376 1.355 . S
C375 C377 1.415 . S
C376 C375 1.355 . S
C376 C378 1.419 . S
C377 C372 1.425 . S
C377 C374 1.409 . S
C377 C375 1.415 . S
C378 H368 0.930 . S
C378 C376 1.419 . S
C378 C379 1.362 . S
C379 H369 0.930 . S
C379 C372 1.409 . S
C379 C378 1.362 . S
H380 C386 0.930 . S
H381 C389 0.930 . S
H382 C390 0.930 . S
H383 C391 0.930 . S
H384 C394 0.930 . S
H385 C395 0.930 . S
C386 H380 0.930 . S
C386 C387 1.355 . S
C386 C388 1.415 . S
C387 C386 1.355 . S
C387 C389 1.419 . S
C388 C386 1.415 . S
C388 C393 1.425 . S
C388 C395 1.409 . S
C389 H381 0.930 . S
C389 C387 1.419 . S
C389 C390 1.362 . S
C390 H382 0.930 . S
C390 C389 1.362 . S
C390 C393 1.409 . S
C391 H383 0.930 . S
C391 C392 1.355 . S
C391 C393 1.415 . S
C392 C391 1.355 . S
C392 C394 1.419 . S
C393 C388 1.425 . S
C393 C390 1.409 . S
C393 C391 1.415 . S
C394 H384 0.930 . S
C394 C392 1.419 . S
C394 C395 1.362 . S
C395 H385 0.930 . S
C395 C388 1.409 . S
C395 C394 1.362 . S
C216 C99 1.529 . S
C211 C34 1.566 . S
C227 C7 1.547 . S
C232 C194 1.507 . S
C243 C16 1.545 . S
C248 C110 1.570 . S
C259 C25 1.539 . S
C264 C183 1.551 . S
C280 C94 1.358 . S
C275 C5 1.515 . S
C296 C187 1.564 . S
C291 C13 1.550 . S
C307 C23 1.529 . S
C312 C103 1.546 . S
C323 C32 1.505 . S
C328 C178 1.343 . S
C344 C189 1.369 . S
C339 C14 1.501 . S
C360 C105 1.404 . S
C355 C22 1.513 1_556 S
C376 C176 1.563 . S
C371 C31 1.544 . S
C387 C4 1.544 . S
C392 C92 1.544 . S
