# Generated by pormake.
# Topology zzz, (3,6)-cn, num edge types: 1
# Building blocks:
#     Node 0, Type 0, BuildingBlock: BETDIP_clean_linker_0, # of connection points: 3
#     Node 1, Type 0, BuildingBlock: BETDIP_clean_linker_0, # of connection points: 3
#     Node 2, Type 0, BuildingBlock: BETDIP_clean_linker_0, # of connection points: 3
#     Node 3, Type 0, BuildingBlock: BETDIP_clean_linker_0, # of connection points: 3
#     Node 4, Type 0, BuildingBlock: BETDIP_clean_linker_0, # of connection points: 3
#     Node 5, Type 0, BuildingBlock: BETDIP_clean_linker_0, # of connection points: 3
#     Node 6, Type 0, BuildingBlock: BETDIP_clean_linker_0, # of connection points: 3
#     Node 7, Type 0, BuildingBlock: BETDIP_clean_linker_0, # of connection points: 3
#     Node 8, Type 1, BuildingBlock: CUKXOW_clean_sbu_0, # of connection points: 6
#     Node 9, Type 1, BuildingBlock: CUKXOW_clean_sbu_0, # of connection points: 6
#     Node 10, Type 1, BuildingBlock: CUKXOW_clean_sbu_0, # of connection points: 6
#     Node 11, Type 1, BuildingBlock: CUKXOW_clean_sbu_0, # of connection points: 6
#     Edge 12, Type (0, 1), BuildingBlock: KIFKEQ_clean_linker_1, # of connection points: 2
#     Edge 13, Type (0, 1), BuildingBlock: KIFKEQ_clean_linker_1, # of connection points: 2
#     Edge 14, Type (0, 1), BuildingBlock: KIFKEQ_clean_linker_1, # of connection points: 2
#     Edge 15, Type (0, 1), BuildingBlock: KIFKEQ_clean_linker_1, # of connection points: 2
#     Edge 16, Type (0, 1), BuildingBlock: KIFKEQ_clean_linker_1, # of connection points: 2
#     Edge 17, Type (0, 1), BuildingBlock: KIFKEQ_clean_linker_1, # of connection points: 2
#     Edge 18, Type (0, 1), BuildingBlock: KIFKEQ_clean_linker_1, # of connection points: 2
#     Edge 19, Type (0, 1), BuildingBlock: KIFKEQ_clean_linker_1, # of connection points: 2
#     Edge 20, Type (0, 1), BuildingBlock: KIFKEQ_clean_linker_1, # of connection points: 2
#     Edge 21, Type (0, 1), BuildingBlock: KIFKEQ_clean_linker_1, # of connection points: 2
#     Edge 22, Type (0, 1), BuildingBlock: KIFKEQ_clean_linker_1, # of connection points: 2
#     Edge 23, Type (0, 1), BuildingBlock: KIFKEQ_clean_linker_1, # of connection points: 2
#     Edge 24, Type (0, 1), BuildingBlock: KIFKEQ_clean_linker_1, # of connection points: 2
#     Edge 25, Type (0, 1), BuildingBlock: KIFKEQ_clean_linker_1, # of connection points: 2
#     Edge 26, Type (0, 1), BuildingBlock: KIFKEQ_clean_linker_1, # of connection points: 2
#     Edge 27, Type (0, 1), BuildingBlock: KIFKEQ_clean_linker_1, # of connection points: 2
#     Edge 28, Type (0, 1), BuildingBlock: KIFKEQ_clean_linker_1, # of connection points: 2
#     Edge 29, Type (0, 1), BuildingBlock: KIFKEQ_clean_linker_1, # of connection points: 2
#     Edge 30, Type (0, 1), BuildingBlock: KIFKEQ_clean_linker_1, # of connection points: 2
#     Edge 31, Type (0, 1), BuildingBlock: KIFKEQ_clean_linker_1, # of connection points: 2
#     Edge 32, Type (0, 1), BuildingBlock: KIFKEQ_clean_linker_1, # of connection points: 2
#     Edge 33, Type (0, 1), BuildingBlock: KIFKEQ_clean_linker_1, # of connection points: 2
#     Edge 34, Type (0, 1), BuildingBlock: KIFKEQ_clean_linker_1, # of connection points: 2
#     Edge 35, Type (0, 1), BuildingBlock: KIFKEQ_clean_linker_1, # of connection points: 2
# Relax obj value: 0.065
# Max RMSD: 0.115
# Mean RMSD: 0.081
data_MOF--net-zzz--node1-CUKXOW_clean_sbu_0--node2-BETDIP_clean_linker_0--edge1-KIFKEQ_clean_linker_1
_symmetry_space_group_name_H-M    P1
_symmetry_Int_Tables_number       1
_symmetry_cell_setting            triclinic
loop_
_symmetry_equiv_pos_as_xyz
'x, y, z'
_cell_length_a     51.82168
_cell_length_b     53.805176
_cell_length_c     15.89081
_cell_angle_alpha  93.221022
_cell_angle_beta   86.716186
_cell_angle_gamma 93.742624
loop_
_atom_site_label
_atom_site_type_symbol
_atom_site_fract_x
_atom_site_fract_y
_atom_site_fract_z
_atom_type_partial_charge
H0 H 0.74645 0.49966 0.27316 0.0
H1 H 0.76681 0.49597 0.0056 0.0
H2 H 0.8217 0.47789 0.18073 0.0
H3 H 0.73841 0.53185 0.02811 0.0
C4 C 0.72286 0.5197 0.05508 0.0
C5 C 0.76006 0.49532 0.2209 0.0
C6 C 0.7848 0.48803 0.23659 0.0
C7 C 0.75325 0.49792 0.1375 0.0
C8 C 0.77155 0.49353 0.07001 0.0
C9 C 0.79602 0.48575 0.08576 0.0
C10 C 0.80226 0.48266 0.16864 0.0
N11 N 0.72796 0.50473 0.1224 0.0
H12 H 0.97999 0.76211 0.1691 0.0
H13 H 0.992 0.78693 0.91504 0.0
H14 H 0.96985 0.83827 0.11735 0.0
H15 H 0.98292 0.74778 0.87693 0.0
C16 C 0.98898 0.73631 0.9253 0.0
C17 C 0.97959 0.77652 0.12429 0.0
C18 C 0.97378 0.80078 0.15272 0.0
C19 C 0.98491 0.77087 0.03776 0.0
C20 C 0.98607 0.79022 0.98083 0.0
C21 C 0.98014 0.81439 0.00935 0.0
C22 C 0.97347 0.81932 0.09472 0.0
N23 N 0.98969 0.74584 0.01055 0.0
H24 H 0.74063 0.98298 0.23943 0.0
H25 H 0.7271 0.96978 0.97454 0.0
H26 H 0.66326 0.97958 0.15364 0.0
H27 H 0.76365 0.94714 0.98074 0.0
C28 C 0.77542 0.96108 0.01604 0.0
C29 C 0.72742 0.9797 0.18897 0.0
C30 C 0.70073 0.9816 0.20599 0.0
C31 C 0.73711 0.97439 0.10581 0.0
C32 C 0.71988 0.97189 0.03968 0.0
C33 C 0.69323 0.97334 0.05725 0.0
C34 C 0.68384 0.97756 0.14045 0.0
N35 N 0.7643 0.97366 0.08899 0.0
H36 H 0.56926 0.75217 0.244 0.0
H37 H 0.55789 0.73242 0.98095 0.0
H38 H 0.5665 0.67535 0.15297 0.0
H39 H 0.58567 0.76976 0.97195 0.0
C40 C 0.57388 0.78105 0.01593 0.0
C41 C 0.56779 0.73823 0.19228 0.0
C42 C 0.56886 0.71286 0.20736 0.0
C43 C 0.5651 0.74557 0.10973 0.0
C44 C 0.56167 0.72719 0.04371 0.0
C45 C 0.56242 0.70189 0.05919 0.0
C46 C 0.56664 0.69499 0.14044 0.0
N47 N 0.56488 0.77135 0.0945 0.0
H48 H 0.2593 0.50571 0.14576 0.0
H49 H 0.23496 0.5095 0.41125 0.0
H50 H 0.17909 0.49283 0.22546 0.0
H51 H 0.27094 0.53457 0.41949 0.0
C52 C 0.28481 0.52467 0.37864 0.0
C53 C 0.2443 0.50412 0.19586 0.0
C54 C 0.21842 0.49835 0.17605 0.0
C55 C 0.25067 0.50821 0.28088 0.0
C56 C 0.23076 0.50666 0.34539 0.0
C57 C 0.20507 0.50095 0.32512 0.0
C58 C 0.19917 0.49654 0.24096 0.0
N59 N 0.27708 0.5133 0.3002 0.0
H60 H 0.03474 0.25063 0.21667 0.0
H61 H 0.02524 0.22837 0.47391 0.0
H62 H 0.0457 0.17514 0.27431 0.0
H63 H 0.99593 0.25988 0.47701 0.0
C64 C 0.00834 0.27413 0.44633 0.0
C65 C 0.0357 0.23663 0.26263 0.0
C66 C 0.04161 0.21227 0.23578 0.0
C67 C 0.02993 0.24269 0.34848 0.0
C68 C 0.02991 0.22409 0.40762 0.0
C69 C 0.03607 0.19979 0.38108 0.0
C70 C 0.04232 0.19423 0.29555 0.0
N71 N 0.02416 0.26756 0.37352 0.0
H72 H 0.2708 0.02431 0.16292 0.0
H73 H 0.29046 0.03799 0.42307 0.0
H74 H 0.35031 0.032 0.22757 0.0
H75 H 0.25335 0.01731 0.44853 0.0
C76 C 0.2404 0.02304 0.40296 0.0
C77 C 0.28508 0.02799 0.21 0.0
C78 C 0.31158 0.02865 0.1857 0.0
C79 C 0.27709 0.03087 0.29603 0.0
C80 C 0.29598 0.03513 0.35678 0.0
C81 C 0.32241 0.03551 0.33248 0.0
C82 C 0.32991 0.03262 0.24689 0.0
N83 N 0.25015 0.02869 0.32014 0.0
H84 H 0.45558 0.26674 0.13513 0.0
H85 H 0.47077 0.28901 0.39401 0.0
H86 H 0.46246 0.34443 0.21579 0.0
H87 H 0.4393 0.25271 0.40664 0.0
C88 C 0.45164 0.24085 0.36655 0.0
C89 C 0.45846 0.28118 0.18458 0.0
C90 C 0.45819 0.30642 0.16639 0.0
C91 C 0.462 0.27471 0.26766 0.0
C92 C 0.4668 0.29368 0.33078 0.0
C93 C 0.46684 0.31876 0.31188 0.0
C94 C 0.46209 0.32493 0.23042 0.0
N95 N 0.46137 0.24917 0.28677 0.0
Tb96 Tb 0.99963 0.98478 0.62946 0.0
C97 C 0.05422 0.01355 0.62018 0.0
Tb98 Tb 0.00935 0.02962 0.75717 0.0
O99 O 1.00086 0.01031 0.52648 0.0
O100 O 0.98836 0.02192 0.64835 0.0
O101 O 0.04048 0.99276 0.59746 0.0
C102 C 0.0174 0.07554 0.82754 0.0
O103 O 0.04548 0.03056 0.67732 0.0
C104 C 0.01711 0.98578 0.81203 0.0
C105 C 0.95586 0.99996 0.7655 0.0
O106 O 0.02667 0.06796 0.75376 0.0
O107 O 0.00397 0.05724 0.86194 0.0
O108 O 0.01192 0.00497 0.86183 0.0
O109 O 0.02075 0.99288 0.73833 0.0
O110 O 0.9674 0.02272 0.77215 0.0
O111 O 0.96686 0.98142 0.72156 0.0
C112 C 0.98876 0.93963 0.55725 0.0
O113 O 0.97709 0.9596 0.54427 0.0
O114 O 0.00682 0.94522 0.60946 0.0
C115 C 0.99406 0.02921 0.57551 0.0
Tb116 Tb 0.50879 0.04001 0.68358 0.0
C117 C 0.55415 0.00764 0.61033 0.0
Tb118 Tb 0.51012 0.98467 0.73631 0.0
O119 O 0.54352 0.05154 0.75089 0.0
O120 O 0.51999 0.021 0.78712 0.0
O121 O 0.54064 0.02732 0.60014 0.0
C122 C 0.52254 0.94271 0.80163 0.0
O123 O 0.54681 0.9901 0.66368 0.0
C124 C 0.47719 0.99144 0.62189 0.0
C125 C 0.46339 0.0158 0.80368 0.0
O126 O 0.51838 0.94527 0.72285 0.0
O127 O 0.51956 0.96379 0.84396 0.0
O128 O 0.4758 0.97215 0.66805 0.0
O129 O 0.49848 0.00368 0.63348 0.0
O130 O 0.477 0.99627 0.8156 0.0
O131 O 0.47128 0.03381 0.75235 0.0
C132 C 0.49931 0.08266 0.616 0.0
O133 O 0.49747 0.07868 0.69613 0.0
O134 O 0.50654 0.06267 0.57405 0.0
C135 C 0.54159 0.03251 0.7981 0.0
Tb136 Tb 0.51709 0.53222 0.63652 0.0
C137 C 0.45872 0.51307 0.62256 0.0
Tb138 Tb 0.4939 0.49156 0.75926 0.0
O139 O 0.51609 0.50523 0.52723 0.0
O140 O 0.51835 0.49367 0.64957 0.0
O141 O 0.47699 0.53059 0.60253 0.0
C142 C 0.47829 0.44696 0.81567 0.0
O143 O 0.46171 0.49577 0.67758 0.0
C144 C 0.49608 0.53752 0.82144 0.0
C145 C 0.55164 0.51278 0.7773 0.0
O146 O 0.46715 0.46761 0.83636 0.0
O147 O 0.49824 0.4516 0.76474 0.0
O148 O 0.49605 0.51832 0.86804 0.0
O149 O 0.49229 0.53002 0.74642 0.0
O150 O 0.53384 0.49472 0.79616 0.0
O151 O 0.54843 0.5299 0.72212 0.0
C152 C 0.53568 0.57548 0.57565 0.0
O153 O 0.54422 0.55377 0.55307 0.0
O154 O 0.51663 0.57268 0.63142 0.0
C155 C 0.51497 0.48615 0.57443 0.0
Tb156 Tb 0.9801 0.50707 0.64746 0.0
C157 C 0.00134 0.45322 0.6644 0.0
Tb158 Tb 0.0233 0.50023 0.77218 0.0
O159 O 0.00811 0.52189 0.55048 0.0
O160 O 0.01927 0.49908 0.64113 0.0
O161 O 0.98226 0.46635 0.64121 0.0
C162 C 0.06951 0.50011 0.83878 0.0
O163 O 0.02123 0.46355 0.70606 0.0
C164 C 0.97513 0.4941 0.83155 0.0
C165 C 0.00272 0.55426 0.75401 0.0
O166 O 0.04813 0.48926 0.86931 0.0
O167 O 0.0647 0.5114 0.77203 0.0
O168 O 0.99409 0.48364 0.86302 0.0
O169 O 0.9843 0.50889 0.77808 0.0
O170 O 0.02156 0.54107 0.7789 0.0
O171 O 0.98275 0.54385 0.7127 0.0
C172 C 0.93315 0.50448 0.58527 0.0
O173 O 0.95224 0.52012 0.56352 0.0
O174 O 0.94071 0.49007 0.64047 0.0
C175 C 0.02767 0.51387 0.58643 0.0
H176 H 0.19872 0.02687 0.30493 0.0
H177 H 0.21981 0.02112 0.56176 0.0
H178 H 0.15289 0.02675 0.35365 0.0
H179 H 0.17429 0.02127 0.61031 0.0
H180 H 0.09299 0.04633 0.6755 0.0
H181 H 0.13766 0.05089 0.61805 0.0
H182 H 0.12043 0.99438 0.42219 0.0
H183 H 0.07575 0.98965 0.47951 0.0
C184 C 0.19357 0.02578 0.3717 0.0
C185 C 0.21271 0.02398 0.42978 0.0
C186 C 0.16741 0.02563 0.39947 0.0
C187 C 0.1601 0.02411 0.48576 0.0
C188 C 0.17938 0.02277 0.54362 0.0
C189 C 0.20538 0.02254 0.51581 0.0
C190 C 0.09863 0.035 0.61982 0.0
C191 C 0.08087 0.01744 0.58261 0.0
C192 C 0.12423 0.03758 0.58712 0.0
C193 C 0.13248 0.02293 0.51588 0.0
C194 C 0.11452 0.00602 0.47683 0.0
C195 C 0.08901 0.00319 0.51015 0.0
H196 H 0.48686 0.20814 0.29791 0.0
H197 H 0.43122 0.21956 0.50687 0.0
H198 H 0.49889 0.16995 0.35778 0.0
H199 H 0.44245 0.18104 0.56539 0.0
H200 H 0.48773 0.12678 0.69718 0.0
H201 H 0.47658 0.16475 0.63438 0.0
H202 H 0.48428 0.12799 0.38597 0.0
H203 H 0.49632 0.09036 0.44914 0.0
C204 C 0.47698 0.2023 0.35608 0.0
C205 C 0.45812 0.21678 0.39795 0.0
C206 C 0.48379 0.18036 0.39032 0.0
C207 C 0.47177 0.17243 0.46685 0.0
C208 C 0.45252 0.18678 0.50741 0.0
C209 C 0.44589 0.20874 0.47353 0.0
C210 C 0.48712 0.12692 0.62918 0.0
C211 C 0.49291 0.10572 0.57797 0.0
C212 C 0.48055 0.14859 0.59308 0.0
C213 C 0.47937 0.14946 0.50495 0.0
C214 C 0.48531 0.12816 0.45387 0.0
C215 C 0.49208 0.10654 0.49003 0.0
H216 H 0.32873 0.50884 0.2906 0.0
H217 H 0.29931 0.53463 0.53761 0.0
H218 H 0.37133 0.50479 0.34704 0.0
H219 H 0.34154 0.53018 0.59403 0.0
H220 H 0.41195 0.49163 0.6778 0.0
H221 H 0.37014 0.49331 0.61512 0.0
H222 H 0.40675 0.53595 0.41418 0.0
H223 H 0.44858 0.53461 0.47717 0.0
C224 C 0.33136 0.51355 0.35684 0.0
C225 C 0.31079 0.52206 0.40992 0.0
C226 C 0.35569 0.5113 0.389 0.0
C227 C 0.35963 0.51704 0.47496 0.0
C228 C 0.33896 0.52537 0.52778 0.0
C229 C 0.31488 0.52805 0.49542 0.0
C230 C 0.41114 0.50126 0.62005 0.0
C231 C 0.43356 0.51315 0.58284 0.0
C232 C 0.3872 0.50228 0.58439 0.0
C233 C 0.38525 0.5148 0.50994 0.0
C234 C 0.40775 0.52607 0.47133 0.0
C235 C 0.43163 0.52544 0.5078 0.0
H236 H 0.97293 0.29316 0.56 0.0
H237 H 0.0408 0.31427 0.40335 0.0
H238 H 0.97058 0.33653 0.61439 0.0
H239 H 0.03858 0.35747 0.45819 0.0
H240 H 0.0426 0.42396 0.6551 0.0
H241 H 0.04389 0.3806 0.60213 0.0
H242 H 0.96254 0.37885 0.55533 0.0
H243 H 0.96116 0.42238 0.60792 0.0
C244 C 0.98727 0.30711 0.53716 0.0
C245 C 0.00695 0.30044 0.47738 0.0
C246 C 0.98588 0.33187 0.56798 0.0
C247 C 0.00442 0.3503 0.5405 0.0
C248 C 0.02416 0.34358 0.48085 0.0
C249 C 0.02533 0.31889 0.44915 0.0
C250 C 0.02493 0.41433 0.63398 0.0
C251 C 0.00177 0.42662 0.63562 0.0
C252 C 0.02575 0.38956 0.60313 0.0
C253 C 0.00335 0.37645 0.57439 0.0
C254 C 0.98006 0.38853 0.5775 0.0
C255 C 0.97931 0.41345 0.60725 0.0
H256 H 0.79956 0.94076 0.8768 0.0
H257 H 0.81184 0.99501 0.08356 0.0
H258 H 0.84329 0.95076 0.81883 0.0
H259 H 0.856 0.00472 0.02656 0.0
H260 H 0.92289 0.03342 0.84208 0.0
H261 H 0.87955 0.02428 0.90651 0.0
H262 H 0.88748 0.94558 0.84971 0.0
H263 H 0.93025 0.95464 0.78418 0.0
C264 C 0.81176 0.95469 0.91019 0.0
C265 C 0.80238 0.96702 0.98465 0.0
C266 C 0.83685 0.96035 0.87727 0.0
C267 C 0.85322 0.97846 0.91828 0.0
C268 C 0.8438 0.99084 0.99305 0.0
C269 C 0.81859 0.98516 0.02601 0.0
C270 C 0.91535 0.01418 0.84346 0.0
C271 C 0.9299 0.99481 0.80699 0.0
C272 C 0.89059 0.00894 0.88082 0.0
C273 C 0.87996 0.98421 0.8826 0.0
C274 C 0.89483 0.96487 0.84784 0.0
C275 C 0.91944 0.97009 0.8104 0.0
H276 H 0.54283 0.81486 0.10208 0.0
H277 H 0.59008 0.80299 0.8725 0.0
H278 H 0.53056 0.85452 0.05268 0.0
H279 H 0.57833 0.84268 0.82383 0.0
H280 H 0.52748 0.89776 0.71815 0.0
H281 H 0.54009 0.85934 0.77395 0.0
H282 H 0.5475 0.89698 0.01965 0.0
H283 H 0.53436 0.93547 0.96357 0.0
C284 C 0.55078 0.82085 0.04149 0.0
C285 C 0.56732 0.80584 0.99079 0.0
C286 C 0.54385 0.8436 0.01333 0.0
C287 C 0.55329 0.85168 0.93395 0.0
C288 C 0.57032 0.83682 0.88453 0.0
C289 C 0.5772 0.81417 0.9126 0.0
C290 C 0.53177 0.89781 0.78409 0.0
C291 C 0.52996 0.91953 0.83658 0.0
C292 C 0.53915 0.87584 0.81602 0.0
C293 C 0.54497 0.8751 0.9012 0.0
C294 C 0.54293 0.89686 0.95397 0.0
C295 C 0.53553 0.9189 0.92187 0.0
H296 H 0.70477 0.55433 0.96068 0.0
H297 H 0.68256 0.48436 0.07239 0.0
H298 H 0.66284 0.55375 0.8985 0.0
H299 H 0.64119 0.48277 0.0062 0.0
H300 H 0.56024 0.49549 0.93094 0.0
H301 H 0.6006 0.49839 0.00329 0.0
H302 H 0.63932 0.53487 0.79092 0.0
H303 H 0.59862 0.53318 0.72141 0.0
C304 C 0.69084 0.53878 0.97164 0.0
C305 C 0.69682 0.51948 0.02149 0.0
C306 C 0.66687 0.53826 0.93529 0.0
C307 C 0.64848 0.51808 0.94628 0.0
C308 C 0.65452 0.49885 0.99717 0.0
C309 C 0.67834 0.49965 0.03492 0.0
C310 C 0.57743 0.50412 0.8999 0.0
C311 C 0.57628 0.51408 0.82046 0.0
C312 C 0.60066 0.50569 0.94119 0.0
C313 C 0.62346 0.51686 0.90333 0.0
C314 C 0.62219 0.52664 0.82334 0.0
C315 C 0.59885 0.5255 0.78291 0.0
H316 H 0.00152 0.69935 0.02639 0.0
H317 H 0.98693 0.71402 0.76955 0.0
H318 H 0.00662 0.65542 0.98402 0.0
H319 H 0.99243 0.67036 0.72692 0.0
H320 H 0.96894 0.58723 0.70854 0.0
H321 H 0.96748 0.63114 0.75088 0.0
H322 H 0.03468 0.62684 0.89686 0.0
H323 H 0.03602 0.58243 0.8553 0.0
C324 C 0.99962 0.69323 0.96083 0.0
C325 C 0.99361 0.70999 0.9012 0.0
C326 C 0.00269 0.66813 0.93648 0.0
C327 C 0.99974 0.6594 0.85224 0.0
C328 C 0.9944 0.67641 0.79254 0.0
C329 C 0.99137 0.70141 0.81681 0.0
C330 C 0.98349 0.59553 0.74957 0.0
C331 C 0.0026 0.58123 0.77857 0.0
C332 C 0.98273 0.62081 0.77341 0.0
C333 C 0.00103 0.6325 0.82691 0.0
C334 C 0.0202 0.61829 0.85604 0.0
C335 C 0.02104 0.5929 0.83183 0.0
H336 H 0.07106 0.16585 0.40684 0.0
H337 H 0.9935 0.18623 0.48037 0.0
H338 H 0.06168 0.12533 0.46733 0.0
H339 H 0.98383 0.14549 0.5396 0.0
H340 H 0.97937 0.07059 0.66824 0.0
H341 H 0.99205 0.11422 0.64131 0.0
H342 H 0.03431 0.09026 0.4118 0.0
H343 H 0.02219 0.04691 0.43997 0.0
C344 C 0.05223 0.16186 0.43814 0.0
C345 C 0.03292 0.17899 0.43848 0.0
C346 C 0.04676 0.13861 0.47194 0.0
C347 C 0.0218 0.13199 0.50616 0.0
C348 C 0.00323 0.15003 0.51359 0.0
C349 C 0.00878 0.1734 0.48005 0.0
C350 C 0.99134 0.07479 0.61206 0.0
C351 C 0.9999 0.05549 0.55623 0.0
C352 C 0.99859 0.0997 0.59669 0.0
C353 C 0.01448 0.10568 0.52508 0.0
C354 C 0.02258 0.08627 0.46863 0.0
C355 C 0.01534 0.06145 0.48402 0.0
H356 H 0.36921 0.0619 0.33231 0.0
H357 H 0.32121 0.00807 0.47202 0.0
H358 H 0.40632 0.05275 0.40948 0.0
H359 H 0.35807 0.9998 0.55272 0.0
H360 H 0.43504 0.96328 0.57224 0.0
H361 H 0.39591 0.97735 0.51667 0.0
H362 H 0.42796 0.05355 0.5372 0.0
H363 H 0.46691 0.03902 0.59066 0.0
C364 C 0.36646 0.04865 0.38142 0.0
C365 C 0.34246 0.03539 0.39518 0.0
C366 C 0.3877 0.04347 0.42603 0.0
C367 C 0.3853 0.02511 0.486 0.0
C368 C 0.36069 0.01356 0.50527 0.0
C369 C 0.33946 0.01862 0.46013 0.0
C370 C 0.43375 0.983 0.56393 0.0
C371 C 0.4544 1.00012 0.58346 0.0
C372 C 0.4112 0.99113 0.5333 0.0
C373 C 0.40871 0.01664 0.52266 0.0
C374 C 0.42934 0.03373 0.5431 0.0
C375 C 0.45192 0.02547 0.57281 0.0
H376 H 0.43475 0.35267 0.38199 0.0
H377 H 0.51374 0.3316 0.37439 0.0
H378 H 0.44744 0.39236 0.45497 0.0
H379 H 0.5267 0.37151 0.44745 0.0
H380 H 0.53941 0.45932 0.4475 0.0
H381 H 0.52848 0.416 0.39836 0.0
H382 H 0.46513 0.41175 0.5869 0.0
H383 H 0.47552 0.45476 0.63294 0.0
C384 C 0.45468 0.3563 0.39875 0.0
C385 C 0.47326 0.33917 0.374 0.0
C386 C 0.46199 0.37899 0.44007 0.0
C387 C 0.48811 0.38506 0.45616 0.0
C388 C 0.5065 0.36734 0.43502 0.0
C389 C 0.49908 0.34446 0.39449 0.0
C390 C 0.52328 0.44895 0.4784 0.0
C391 C 0.50867 0.46015 0.5454 0.0
C392 C 0.51719 0.42418 0.45106 0.0
C393 C 0.49612 0.41045 0.48958 0.0
C394 C 0.48152 0.42182 0.55627 0.0
C395 C 0.48769 0.44643 0.58345 0.0
H396 H 0.17128 0.4627 0.36866 0.0
H397 H 0.18931 0.54128 0.41914 0.0
H398 H 0.12875 0.46633 0.44106 0.0
H399 H 0.14641 0.54537 0.48878 0.0
H400 H 0.06932 0.54063 0.64636 0.0
H401 H 0.11482 0.53607 0.6009 0.0
H402 H 0.0907 0.48398 0.3988 0.0
H403 H 0.04551 0.48765 0.44799 0.0
C404 C 0.1663 0.48059 0.39764 0.0
C405 C 0.1834 0.50169 0.38905 0.0
C406 C 0.14186 0.48281 0.43775 0.0
C407 C 0.13392 0.50627 0.46864 0.0
C408 C 0.15189 0.52702 0.46583 0.0
C409 C 0.17651 0.52471 0.42645 0.0
C410 C 0.07398 0.52821 0.59238 0.0
C411 C 0.05429 0.51433 0.55068 0.0
C412 C 0.09992 0.52568 0.56606 0.0
C413 C 0.10645 0.50934 0.49708 0.0
C414 C 0.08642 0.4962 0.45361 0.0
C415 C 0.06056 0.49859 0.48053 0.0
H416 H 0.9444 0.84692 0.97827 0.0
H417 H 0.02393 0.83017 0.92057 0.0
H418 H 0.95292 0.88766 0.9186 0.0
H419 H 0.03288 0.87123 0.86334 0.0
H420 H 0.03757 0.94497 0.73238 0.0
H421 H 0.0264 0.90119 0.76052 0.0
H422 H 0.97615 0.92457 0.97301 0.0
H423 H 0.98633 0.96802 0.9416 0.0
C424 C 0.96355 0.85181 0.95077 0.0
C425 C 0.98354 0.83559 0.95396 0.0
C426 C 0.96855 0.8752 0.91764 0.0
C427 C 0.99374 0.88294 0.8882 0.0
C428 C 0.01326 0.86586 0.88532 0.0
C429 C 0.00816 0.84231 0.91777 0.0
C430 C 0.02388 0.94056 0.78428 0.0
C431 C 0.01243 0.95966 0.83396 0.0
C432 C 0.01766 0.91558 0.80088 0.0
C433 C 1.00007 0.90934 0.86821 0.0
C434 C 0.98923 0.92866 0.91925 0.0
C435 C 0.99536 0.95356 0.90227 0.0
H436 H 0.69434 0.00925 0.94557 0.0
H437 H 0.65046 0.94298 0.02442 0.0
H438 H 0.6577 0.02121 0.8722 0.0
H439 H 0.61393 0.95389 0.94623 0.0
H440 H 0.59059 0.03793 0.73085 0.0
H441 H 0.62838 0.01776 0.76939 0.0
H442 H 0.58232 0.98257 0.97096 0.0
H443 H 0.54406 0.00156 0.92721 0.0
C444 C 0.67721 0.9966 0.94324 0.0
C445 C 0.67511 0.97524 0.99016 0.0
C446 C 0.65605 0.00344 0.90135 0.0
C447 C 0.63248 0.98879 0.90445 0.0
C448 C 0.63143 0.96604 0.94456 0.0
C449 C 0.65247 0.95949 0.98795 0.0
C450 C 0.58856 0.02571 0.783 0.0
C451 C 0.56445 0.02111 0.82593 0.0
C452 C 0.61028 0.01419 0.80543 0.0
C453 C 0.60865 0.99853 0.8737 0.0
C454 C 0.58436 0.99401 0.91679 0.0
C455 C 0.56243 0.00505 0.89256 0.0
H456 H 0.59213 0.66434 0.00011 0.0
H457 H 0.51752 0.69387 0.97917 0.0
H458 H 0.57689 0.62525 0.92849 0.0
H459 H 0.5018 0.65452 0.91007 0.0
H460 H 0.48391 0.58115 0.75944 0.0
H461 H 0.50281 0.62308 0.79521 0.0
H462 H 0.54764 0.59258 0.98167 0.0
H463 H 0.52966 0.55083 0.94275 0.0
C464 C 0.57269 0.66263 0.97776 0.0
C465 C 0.55594 0.68195 0.99497 0.0
C466 C 0.56383 0.6402 0.93789 0.0
C467 C 0.53792 0.63654 0.91567 0.0
C468 C 0.52186 0.65672 0.92626 0.0
C469 C 0.53085 0.6793 0.96548 0.0
C470 C 0.49809 0.58355 0.80722 0.0
C471 C 0.50573 0.5629 0.84744 0.0
C472 C 0.50875 0.6075 0.82814 0.0
C473 C 0.52707 0.61116 0.89031 0.0
C474 C 0.53414 0.59039 0.93185 0.0
C475 C 0.52354 0.56652 0.91068 0.0
H476 H 0.81887 0.52346 -0.00193 0.0
H477 H 0.82122 0.44469 0.03063 0.0
H478 H 0.86149 0.52394 0.92571 0.0
H479 H 0.86338 0.44451 0.95354 0.0
H480 H 0.95152 0.46181 0.94305 0.0
H481 H 0.90558 0.45774 0.98676 0.0
H482 H 0.89028 0.514 0.81497 0.0
H483 H 0.93626 0.51949 0.77794 0.0
C484 C 0.82808 0.506 0.98582 0.0
C485 C 0.81689 0.48404 0.01922 0.0
C486 C 0.8526 0.5062 0.94452 0.0
C487 C 0.86625 0.4843 0.93487 0.0
C488 C 0.85383 0.46186 0.96186 0.0
C489 C 0.82951 0.4618 0.00456 0.0
C490 C 0.93824 0.47327 0.91505 0.0
C491 C 0.94737 0.49078 0.85671 0.0
C492 C 0.91183 0.47074 0.93902 0.0
C493 C 0.894 0.48545 0.90412 0.0
C494 C 0.90331 0.50259 0.8443 0.0
C495 C 0.9297 0.50553 0.82215 0.0
H496 H 0.00361 0.21352 0.12655 0.0
H497 H 0.08081 0.18974 0.14631 0.0
H498 H 0.99798 0.18483 0.00316 0.0
H499 H 0.07535 0.16127 0.02229 0.0
H500 H 0.05472 0.11182 0.78632 0.0
H501 H 0.06273 0.15263 0.8614 0.0
H502 H 0.99603 0.13681 0.02974 0.0
H503 H 0.98855 0.09612 0.95691 0.0
C504 C 0.01987 0.2032 0.1016 0.0
C505 C 0.04258 0.20368 0.14581 0.0
C506 C 0.01657 0.18663 0.03155 0.0
C507 C 0.0361 0.17064 0.00422 0.0
C508 C 0.06004 0.17348 0.04189 0.0
C509 C 0.0632 0.18978 0.11267 0.0
C510 C 0.04169 0.1173 0.83883 0.0
C511 C 0.02119 0.10086 0.86667 0.0
C512 C 0.04621 0.14058 0.88137 0.0
C513 C 0.02982 0.14792 0.95058 0.0
C514 C 0.00869 0.13181 0.97565 0.0
C515 C 0.00457 0.10843 0.9346 0.0
H516 H 0.31918 0.06 0.05665 0.0
H517 H 0.32911 0.98504 0.12481 0.0
H518 H 0.35221 0.05555 0.94168 0.0
H519 H 0.36318 0.98086 0.01555 0.0
H520 H 0.42782 0.97701 0.82333 0.0
H521 H 0.38394 0.9781 0.88637 0.0
H522 H 0.39654 0.05764 0.94032 0.0
H523 H 0.43954 0.0565 0.8709 0.0
C524 C 0.32767 0.04219 0.0444 0.0
C525 C 0.3216 0.02279 0.09877 0.0
C526 C 0.3471 0.03978 0.98001 0.0
C527 C 0.36124 0.01816 0.97064 0.0
C528 C 0.35294 0.99781 0.01962 0.0
C529 C 0.33319 1.00007 0.08243 0.0
C530 C 0.42105 0.99467 0.84879 0.0
C531 C 0.43715 0.01659 0.84412 0.0
C532 C 0.39586 0.99537 0.88496 0.0
C533 C 0.38644 0.01792 0.91975 0.0
C534 C 0.40261 0.03994 0.9131 0.0
C535 C 0.42751 0.03931 0.87456 0.0
H536 H 0.41523 0.32241 0.10259 0.0
H537 H 0.4962 0.31235 0.04477 0.0
H538 H 0.41575 0.35307 0.99467 0.0
H539 H 0.49727 0.3435 0.93925 0.0
H540 H 0.49585 0.40249 0.75641 0.0
H541 H 0.48607 0.36171 0.81472 0.0
H542 H 0.43367 0.39496 0.00389 0.0
H543 H 0.44286 0.43543 0.94335 0.0
C544 C 0.43279 0.32587 0.06356 0.0
C545 C 0.45561 0.31493 0.081 0.0
C546 C 0.43328 0.34379 0.00299 0.0
C547 C 0.45671 0.35132 0.95978 0.0
C548 C 0.47883 0.3382 0.9708 0.0
C549 C 0.47825 0.32014 0.0309 0.0
C550 C 0.48198 0.40092 0.80981 0.0
C551 C 0.47035 0.4221 0.84631 0.0
C552 C 0.47638 0.37757 0.84325 0.0
C553 C 0.4592 0.37495 0.91444 0.0
C554 C 0.44669 0.39607 0.94827 0.0
C555 C 0.45212 0.41938 0.91425 0.0
H556 H 0.20178 0.45633 0.08863 0.0
H557 H 0.21217 0.53612 0.07513 0.0
H558 H 0.1684 0.45505 0.9858 0.0
H559 H 0.17854 0.53507 0.97316 0.0
H560 H 0.11512 0.52353 0.78275 0.0
H561 H 0.15807 0.52095 0.83796 0.0
H562 H 0.12494 0.4704 0.02261 0.0
H563 H 0.08232 0.47299 0.96758 0.0
C564 C 0.19794 0.4734 0.05983 0.0
C565 C 0.20957 0.4963 0.08924 0.0
C566 C 0.1785 0.47276 0.00223 0.0
C567 C 0.17033 0.49504 0.9733 0.0
C568 C 0.18436 0.51759 0.99433 0.0
C569 C 0.20385 0.5182 0.05205 0.0
C570 C 0.11714 0.51183 0.835 0.0
C571 C 0.09542 0.49858 0.87145 0.0
C572 C 0.14169 0.51031 0.86635 0.0
C573 C 0.14499 0.49525 0.93394 0.0
C574 C 0.12321 0.48175 0.96927 0.0
C575 C 0.09871 0.48345 0.9385 0.0
H576 H 0.01213 0.80714 0.26109 0.0
H577 H 0.93047 0.81478 0.24215 0.0
H578 H 0.0126 0.83736 0.38089 0.0
H579 H 0.93041 0.84431 0.3646 0.0
H580 H 0.95452 0.92693 0.43676 0.0
H581 H 0.94709 0.8865 0.36311 0.0
H582 H 0.00134 0.8551 0.51816 0.0
H583 H 0.00932 0.89606 0.59011 0.0
C584 C 0.99396 0.81417 0.28612 0.0
C585 C 0.97129 0.80875 0.24282 0.0
C586 C 0.9942 0.83165 0.35458 0.0
C587 C 0.97166 0.84385 0.38094 0.0
C588 C 0.94825 0.8358 0.34436 0.0
C589 C 0.94812 0.81856 0.27528 0.0
C590 C 0.96464 0.91132 0.4556 0.0
C591 C 0.98274 0.91463 0.51807 0.0
C592 C 0.96016 0.888 0.41416 0.0
C593 C 0.97356 0.8674 0.43475 0.0
C594 C 0.99089 0.87058 0.5001 0.0
C595 C 0.99547 0.894 0.54125 0.0
H596 H 0.69516 0.95651 0.3515 0.0
H597 H 0.67946 0.02524 0.24333 0.0
H598 H 0.66376 0.96524 0.46883 0.0
H599 H 0.64715 0.03337 0.35547 0.0
H600 H 0.58802 0.04556 0.5611 0.0
H601 H 0.63042 0.04237 0.48842 0.0
H602 H 0.61904 0.96184 0.47996 0.0
H603 H 0.57766 0.96531 0.5582 0.0
C604 C 0.68562 0.9739 0.3547 0.0
C605 C 0.68955 0.99023 0.28896 0.0
C606 C 0.66724 0.97872 0.42076 0.0
C607 C 0.65221 0.99968 0.42083 0.0
C608 C 0.65823 0.01713 0.35881 0.0
C609 C 0.67682 0.01251 0.29407 0.0
C610 C 0.59471 0.02722 0.54358 0.0
C611 C 0.57942 0.00568 0.56379 0.0
C612 C 0.61905 0.02533 0.50199 0.0
C613 C 0.62832 0.00183 0.4772 0.0
C614 C 0.61303 0.9803 0.49913 0.0
C615 C 0.58903 0.98223 0.54286 0.0
H616 H 0.60905 0.69263 0.2745 0.0
H617 H 0.52945 0.70971 0.32588 0.0
H618 H 0.60495 0.66261 0.38499 0.0
H619 H 0.52478 0.67915 0.43406 0.0
H620 H 0.52112 0.62182 0.62747 0.0
H621 H 0.53381 0.6612 0.56252 0.0
H622 H 0.58336 0.62214 0.37867 0.0
H623 H 0.57124 0.58312 0.44542 0.0
C624 C 0.59103 0.69074 0.31234 0.0
C625 C 0.56962 0.70354 0.29259 0.0
C626 C 0.58848 0.67323 0.37449 0.0
C627 C 0.56434 0.66794 0.41696 0.0
C628 C 0.5437 0.68274 0.40308 0.0
C629 C 0.54636 0.70043 0.34142 0.0
C630 C 0.535 0.62181 0.57384 0.0
C631 C 0.54504 0.59945 0.54079 0.0
C632 C 0.54224 0.64435 0.53654 0.0
C633 C 0.55958 0.64494 0.46515 0.0
C634 C 0.57034 0.62258 0.43442 0.0
C635 C 0.56321 0.60011 0.47204 0.0
H636 H 0.79222 0.52939 0.33969 0.0
H637 H 0.8026 0.4504 0.31945 0.0
H638 H 0.82466 0.53486 0.44628 0.0
H639 H 0.83503 0.4557 0.42528 0.0
H640 H 0.89252 0.47191 0.62595 0.0
H641 H 0.84961 0.46859 0.56782 0.0
H642 H 0.87185 0.53138 0.41577 0.0
H643 H 0.91455 0.5347 0.47419 0.0
C644 C 0.80046 0.51305 0.36136 0.0
C645 C 0.79496 0.48948 0.32177 0.0
C646 C 0.81933 0.51621 0.42128 0.0
C647 C 0.8328 0.4958 0.44279 0.0
C648 C 0.825 0.4718 0.41033 0.0
C649 C 0.80631 0.4687 0.35005 0.0
C650 C 0.88809 0.48509 0.58056 0.0
C651 C 0.90689 0.50337 0.55359 0.0
C652 C 0.86354 0.48323 0.54753 0.0
C653 C 0.85728 0.49976 0.48746 0.0
C654 C 0.87588 0.51861 0.46301 0.0
C655 C 0.90044 0.52036 0.49565 0.0
loop_
_geom_bond_atom_site_label_1
_geom_bond_atom_site_label_2
_geom_bond_distance
_geom_bond_site_symmetry_2
_ccdc_geom_bond_type
H0 C5 0.930 . S
H1 C8 0.921 1_556 S
H2 C10 0.930 . S
H3 C4 1.016 1_556 S
C4 H3 1.016 1_554 S
C4 N11 1.286 . S
C5 H0 0.930 . S
C5 C6 1.397 . S
C5 C7 1.361 . S
C6 C5 1.397 . S
C6 C10 1.390 . S
C7 C5 1.361 . S
C7 C8 1.401 . S
C7 N11 1.413 . S
C8 H1 0.921 1_554 S
C8 C7 1.401 . S
C8 C9 1.400 . S
C9 C8 1.400 . S
C9 C10 1.381 . S
C10 H2 0.930 . S
C10 C6 1.390 . S
C10 C9 1.381 . S
N11 C4 1.286 . S
N11 C7 1.413 . S
H12 C17 0.930 . S
H13 C20 0.930 . S
H14 C22 0.930 . S
H15 C16 1.016 . S
C16 H15 1.016 . S
C16 N23 1.286 1_556 S
C17 H12 0.930 . S
C17 C18 1.397 . S
C17 C19 1.361 . S
C18 C17 1.397 . S
C18 C22 1.390 . S
C19 C17 1.361 . S
C19 C20 1.393 1_554 S
C19 N23 1.413 . S
C20 H13 0.930 . S
C20 C19 1.393 1_556 S
C20 C21 1.399 . S
C21 C20 1.399 . S
C21 C22 1.381 1_556 S
C22 H14 0.930 . S
C22 C18 1.390 . S
C22 C21 1.381 1_554 S
N23 C16 1.286 1_554 S
N23 C19 1.413 . S
H24 C29 0.930 . S
H25 C32 0.930 1_556 S
H26 C34 0.930 . S
H27 C28 1.016 1_556 S
C28 H27 1.016 1_554 S
C28 N35 1.286 . S
C29 H24 0.930 . S
C29 C30 1.397 . S
C29 C31 1.361 . S
C30 C29 1.397 . S
C30 C34 1.390 . S
C31 C29 1.361 . S
C31 C32 1.393 . S
C31 N35 1.413 . S
C32 H25 0.930 1_554 S
C32 C31 1.393 . S
C32 C33 1.399 . S
C33 C32 1.399 . S
C33 C34 1.381 . S
C34 H26 0.930 . S
C34 C30 1.390 . S
C34 C33 1.381 . S
N35 C28 1.286 . S
N35 C31 1.413 . S
H36 C41 0.930 . S
H37 C44 0.930 1_556 S
H38 C46 0.930 . S
H39 C40 1.016 1_556 S
C40 H39 1.016 1_554 S
C40 N47 1.286 . S
C41 H36 0.930 . S
C41 C42 1.397 . S
C41 C43 1.361 . S
C42 C41 1.397 . S
C42 C46 1.390 . S
C43 C41 1.361 . S
C43 C44 1.393 . S
C43 N47 1.413 . S
C44 H37 0.930 1_554 S
C44 C43 1.393 . S
C44 C45 1.399 . S
C45 C44 1.399 . S
C45 C46 1.381 . S
C46 H38 0.930 . S
C46 C42 1.390 . S
C46 C45 1.381 . S
N47 C40 1.286 . S
N47 C43 1.413 . S
H48 C53 0.930 . S
H49 C56 0.930 . S
H50 C58 0.930 . S
H51 C52 1.016 . S
C52 H51 1.016 . S
C52 N59 1.286 . S
C53 H48 0.930 . S
C53 C54 1.397 . S
C53 C55 1.361 . S
C54 C53 1.397 . S
C54 C58 1.390 . S
C55 C53 1.361 . S
C55 C56 1.393 . S
C55 N59 1.413 . S
C56 H49 0.930 . S
C56 C55 1.393 . S
C56 C57 1.399 . S
C57 C56 1.399 . S
C57 C58 1.381 . S
C58 H50 0.930 . S
C58 C54 1.390 . S
C58 C57 1.381 . S
N59 C52 1.286 . S
N59 C55 1.413 . S
H60 C65 0.930 . S
H61 C68 0.930 . S
H62 C70 0.930 . S
H63 C64 1.016 . S
C64 H63 1.016 . S
C64 N71 1.286 . S
C65 H60 0.930 . S
C65 C66 1.397 . S
C65 C67 1.361 . S
C66 C65 1.397 . S
C66 C70 1.390 . S
C67 C65 1.361 . S
C67 C68 1.393 . S
C67 N71 1.413 . S
C68 H61 0.930 . S
C68 C67 1.393 . S
C68 C69 1.399 . S
C69 C68 1.399 . S
C69 C70 1.381 . S
C70 H62 0.930 . S
C70 C66 1.390 . S
C70 C69 1.381 . S
N71 C64 1.286 . S
N71 C67 1.413 . S
H72 C77 0.930 . S
H73 C80 0.930 . S
H74 C82 0.930 . S
H75 C76 1.016 . S
C76 H75 1.016 . S
C76 N83 1.286 . S
C77 H72 0.930 . S
C77 C78 1.397 . S
C77 C79 1.361 . S
C78 C77 1.397 . S
C78 C82 1.390 . S
C79 C77 1.361 . S
C79 C80 1.393 . S
C79 N83 1.413 . S
C80 H73 0.930 . S
C80 C79 1.393 . S
C80 C81 1.399 . S
C81 C80 1.399 . S
C81 C82 1.381 . S
C82 H74 0.930 . S
C82 C78 1.390 . S
C82 C81 1.381 . S
N83 C76 1.286 . S
N83 C79 1.413 . S
H84 C89 0.930 . S
H85 C92 0.930 . S
H86 C94 0.930 . S
H87 C88 1.016 . S
C88 H87 1.016 . S
C88 N95 1.286 . S
C89 H84 0.930 . S
C89 C90 1.397 . S
C89 C91 1.361 . S
C90 C89 1.397 . S
C90 C94 1.390 . S
C91 C89 1.361 . S
C91 C92 1.393 . S
C91 N95 1.413 . S
C92 H85 0.930 . S
C92 C91 1.393 . S
C92 C93 1.399 . S
C93 C92 1.399 . S
C93 C94 1.381 . S
C94 H86 0.930 . S
C94 C90 1.390 . S
C94 C93 1.381 . S
N95 C88 1.286 . S
N95 C91 1.413 . S
Tb96 O99 2.453 1_565 S
Tb96 O100 2.596 1_665 S
Tb96 O101 2.374 1_665 S
Tb96 O109 2.343 1_655 S
Tb96 O111 2.353 1_565 S
Tb96 O113 2.427 . S
Tb96 O114 2.513 1_655 S
C97 O101 1.260 . S
C97 O103 1.263 . S
Tb98 O100 2.343 . S
Tb98 O103 2.353 . S
Tb98 O106 2.427 . S
Tb98 O107 2.514 . S
Tb98 O108 2.453 1_545 S
Tb98 O109 2.596 1_545 S
Tb98 O110 2.374 1_455 S
O99 Tb96 2.453 1_545 S
O99 C115 1.245 1_655 S
O100 Tb96 2.596 1_445 S
O100 Tb98 2.343 . S
O100 C115 1.259 . S
O101 Tb96 2.374 1_445 S
O101 C97 1.260 . S
C102 O106 1.275 . S
C102 O107 1.249 . S
O103 C97 1.263 . S
O103 Tb98 2.353 . S
C104 O108 1.245 . S
C104 O109 1.259 . S
C105 O110 1.250 . S
C105 O111 1.263 . S
O106 Tb98 2.427 . S
O106 C102 1.275 . S
O107 Tb98 2.514 . S
O107 C102 1.249 . S
O108 Tb98 2.453 1_565 S
O108 C104 1.245 . S
O109 Tb96 2.343 1_455 S
O109 Tb98 2.596 1_565 S
O109 C104 1.259 . S
O110 Tb98 2.374 1_655 S
O110 C105 1.250 . S
O111 Tb96 2.353 1_545 S
O111 C105 1.263 . S
C112 O113 1.275 . S
C112 O114 1.246 1_655 S
O113 Tb96 2.427 . S
O113 C112 1.275 . S
O114 Tb96 2.513 1_455 S
O114 C112 1.246 1_455 S
C115 O99 1.245 1_455 S
C115 O100 1.259 . S
Tb116 O119 2.453 . S
Tb116 O120 2.596 1_545 S
Tb116 O121 2.374 . S
Tb116 O129 2.343 . S
Tb116 O131 2.353 . S
Tb116 O133 2.427 . S
Tb116 O134 2.513 . S
C117 O121 1.251 1_565 S
C117 O123 1.263 . S
Tb118 O120 2.343 . S
Tb118 O123 2.353 . S
Tb118 O126 2.427 . S
Tb118 O127 2.513 . S
Tb118 O128 2.453 . S
Tb118 O129 2.596 1_565 S
Tb118 O130 2.374 . S
O119 Tb116 2.453 . S
O119 C135 1.245 . S
O120 Tb116 2.596 1_565 S
O120 Tb118 2.343 . S
O120 C135 1.259 1_565 S
O121 Tb116 2.374 . S
O121 C117 1.251 1_545 S
C122 O126 1.275 . S
C122 O127 1.246 . S
O123 C117 1.263 . S
O123 Tb118 2.353 . S
C124 O128 1.245 1_545 S
C124 O129 1.259 . S
C125 O130 1.250 1_545 S
C125 O131 1.263 . S
O126 Tb118 2.427 . S
O126 C122 1.275 . S
O127 Tb118 2.513 . S
O127 C122 1.246 . S
O128 Tb118 2.453 . S
O128 C124 1.245 1_565 S
O129 Tb116 2.343 . S
O129 Tb118 2.596 1_545 S
O129 C124 1.259 . S
O130 Tb118 2.374 . S
O130 C125 1.250 1_565 S
O131 Tb116 2.353 . S
O131 C125 1.263 . S
C132 O133 1.275 . S
C132 O134 1.246 . S
O133 Tb116 2.427 . S
O133 C132 1.275 . S
O134 Tb116 2.513 . S
O134 C132 1.246 . S
C135 O119 1.245 . S
C135 O120 1.259 1_545 S
Tb136 O139 2.453 . S
Tb136 O140 2.596 . S
Tb136 O141 2.374 . S
Tb136 O149 2.343 . S
Tb136 O151 2.353 . S
Tb136 O153 2.427 . S
Tb136 O154 2.513 . S
C137 O141 1.251 . S
C137 O143 1.263 . S
Tb138 O140 2.343 . S
Tb138 O143 2.353 . S
Tb138 O146 2.427 . S
Tb138 O147 2.513 . S
Tb138 O148 2.453 . S
Tb138 O149 2.596 . S
Tb138 O150 2.374 . S
O139 Tb136 2.453 . S
O139 C155 1.245 . S
O140 Tb136 2.596 . S
O140 Tb138 2.343 . S
O140 C155 1.259 . S
O141 Tb136 2.374 . S
O141 C137 1.251 . S
C142 O146 1.275 . S
C142 O147 1.246 . S
O143 C137 1.263 . S
O143 Tb138 2.353 . S
C144 O148 1.245 . S
C144 O149 1.259 . S
C145 O150 1.250 . S
C145 O151 1.263 . S
O146 Tb138 2.427 . S
O146 C142 1.275 . S
O147 Tb138 2.513 . S
O147 C142 1.246 . S
O148 Tb138 2.453 . S
O148 C144 1.245 . S
O149 Tb136 2.343 . S
O149 Tb138 2.596 . S
O149 C144 1.259 . S
O150 Tb138 2.374 . S
O150 C145 1.250 . S
O151 Tb136 2.353 . S
O151 C145 1.263 . S
C152 O153 1.275 . S
C152 O154 1.246 . S
O153 Tb136 2.427 . S
O153 C152 1.275 . S
O154 Tb136 2.513 . S
O154 C152 1.246 . S
C155 O139 1.245 . S
C155 O140 1.259 . S
Tb156 O159 2.453 1_655 S
Tb156 O160 2.596 1_655 S
Tb156 O161 2.374 1_655 S
Tb156 O169 2.343 . S
Tb156 O171 2.353 1_655 S
Tb156 O173 2.427 . S
Tb156 O174 2.513 . S
C157 O161 1.251 . S
C157 O163 1.263 . S
Tb158 O160 2.343 . S
Tb158 O163 2.353 . S
Tb158 O166 2.427 . S
Tb158 O167 2.513 . S
Tb158 O168 2.453 1_455 S
Tb158 O169 2.596 1_455 S
Tb158 O170 2.374 . S
O159 Tb156 2.453 1_455 S
O159 C175 1.245 . S
O160 Tb156 2.596 1_455 S
O160 Tb158 2.343 . S
O160 C175 1.259 . S
O161 Tb156 2.374 1_455 S
O161 C157 1.251 . S
C162 O166 1.275 . S
C162 O167 1.246 . S
O163 C157 1.263 . S
O163 Tb158 2.353 . S
C164 O168 1.245 . S
C164 O169 1.259 . S
C165 O170 1.250 . S
C165 O171 1.263 . S
O166 Tb158 2.427 . S
O166 C162 1.275 . S
O167 Tb158 2.513 . S
O167 C162 1.246 . S
O168 Tb158 2.453 1_655 S
O168 C164 1.245 . S
O169 Tb156 2.343 . S
O169 Tb158 2.596 1_655 S
O169 C164 1.259 . S
O170 Tb158 2.374 . S
O170 C165 1.250 . S
O171 Tb156 2.353 1_455 S
O171 C165 1.263 . S
C172 O173 1.275 . S
C172 O174 1.246 . S
O173 Tb156 2.427 . S
O173 C172 1.275 . S
O174 Tb156 2.513 . S
O174 C172 1.246 . S
C175 O159 1.245 . S
C175 O160 1.259 . S
H176 C184 0.950 . S
H177 C189 0.950 . S
H178 C186 0.950 . S
H179 C188 0.950 . S
H180 C190 0.950 . S
H181 C192 0.950 . S
H182 C194 0.950 . S
H183 C195 0.950 . S
C184 H176 0.950 . S
C184 C185 1.386 . S
C184 C186 1.391 . S
C185 C184 1.386 . S
C185 C189 1.393 . S
C186 H178 0.950 . S
C186 C184 1.391 . S
C186 C187 1.400 . S
C187 C186 1.400 . S
C187 C188 1.398 . S
C187 C193 1.491 . S
C188 H179 0.950 . S
C188 C187 1.398 . S
C188 C189 1.391 . S
C189 H177 0.950 . S
C189 C185 1.393 . S
C189 C188 1.391 . S
C190 H180 0.950 . S
C190 C191 1.386 . S
C190 C192 1.391 . S
C191 C190 1.386 . S
C191 C195 1.393 . S
C192 H181 0.950 . S
C192 C190 1.391 . S
C192 C193 1.400 . S
C193 C187 1.491 . S
C193 C192 1.400 . S
C193 C194 1.398 . S
C194 H182 0.950 . S
C194 C193 1.398 . S
C194 C195 1.391 . S
C195 H183 0.950 . S
C195 C191 1.393 . S
C195 C194 1.391 . S
H196 C204 0.950 . S
H197 C209 0.950 . S
H198 C206 0.950 . S
H199 C208 0.950 . S
H200 C210 0.950 . S
H201 C212 0.950 . S
H202 C214 0.950 . S
H203 C215 0.950 . S
C204 H196 0.950 . S
C204 C205 1.386 . S
C204 C206 1.391 . S
C205 C204 1.386 . S
C205 C209 1.393 . S
C206 H198 0.950 . S
C206 C204 1.391 . S
C206 C207 1.400 . S
C207 C206 1.400 . S
C207 C208 1.398 . S
C207 C213 1.491 . S
C208 H199 0.950 . S
C208 C207 1.398 . S
C208 C209 1.391 . S
C209 H197 0.950 . S
C209 C205 1.393 . S
C209 C208 1.391 . S
C210 H200 0.950 . S
C210 C211 1.386 . S
C210 C212 1.391 . S
C211 C210 1.386 . S
C211 C215 1.393 . S
C212 H201 0.950 . S
C212 C210 1.391 . S
C212 C213 1.400 . S
C213 C207 1.491 . S
C213 C212 1.400 . S
C213 C214 1.398 . S
C214 H202 0.950 . S
C214 C213 1.398 . S
C214 C215 1.391 . S
C215 H203 0.950 . S
C215 C211 1.393 . S
C215 C214 1.391 . S
H216 C224 0.950 . S
H217 C229 0.950 . S
H218 C226 0.950 . S
H219 C228 0.950 . S
H220 C230 0.950 . S
H221 C232 0.950 . S
H222 C234 0.950 . S
H223 C235 0.950 . S
C224 H216 0.950 . S
C224 C225 1.386 . S
C224 C226 1.391 . S
C225 C224 1.386 . S
C225 C229 1.393 . S
C226 H218 0.950 . S
C226 C224 1.391 . S
C226 C227 1.400 . S
C227 C226 1.400 . S
C227 C228 1.398 . S
C227 C233 1.491 . S
C228 H219 0.950 . S
C228 C227 1.398 . S
C228 C229 1.391 . S
C229 H217 0.950 . S
C229 C225 1.393 . S
C229 C228 1.391 . S
C230 H220 0.950 . S
C230 C231 1.386 . S
C230 C232 1.391 . S
C231 C230 1.386 . S
C231 C235 1.393 . S
C232 H221 0.950 . S
C232 C230 1.391 . S
C232 C233 1.400 . S
C233 C227 1.491 . S
C233 C232 1.400 . S
C233 C234 1.398 . S
C234 H222 0.950 . S
C234 C233 1.398 . S
C234 C235 1.391 . S
C235 H223 0.950 . S
C235 C231 1.393 . S
C235 C234 1.391 . S
H236 C244 0.950 . S
H237 C249 0.950 . S
H238 C246 0.950 . S
H239 C248 0.950 . S
H240 C250 0.950 . S
H241 C252 0.950 . S
H242 C254 0.950 1_655 S
H243 C255 0.950 . S
C244 H236 0.950 . S
C244 C245 1.386 . S
C244 C246 1.391 . S
C245 C244 1.386 . S
C245 C249 1.393 . S
C246 H238 0.950 . S
C246 C244 1.391 . S
C246 C247 1.400 . S
C247 C246 1.400 . S
C247 C248 1.398 . S
C247 C253 1.491 . S
C248 H239 0.950 . S
C248 C247 1.398 . S
C248 C249 1.391 . S
C249 H237 0.950 . S
C249 C245 1.393 . S
C249 C248 1.391 . S
C250 H240 0.950 . S
C250 C251 1.386 . S
C250 C252 1.391 . S
C251 C250 1.386 . S
C251 C255 1.393 1_455 S
C252 H241 0.950 . S
C252 C250 1.391 . S
C252 C253 1.400 . S
C253 C247 1.491 . S
C253 C252 1.400 . S
C253 C254 1.398 . S
C254 H242 0.950 1_455 S
C254 C253 1.398 . S
C254 C255 1.391 1_455 S
C255 H243 0.950 . S
C255 C251 1.393 1_655 S
C255 C254 1.391 1_655 S
H256 C264 0.950 . S
H257 C269 0.950 . S
H258 C266 0.950 . S
H259 C268 0.950 1_554 S
H260 C270 0.950 . S
H261 C272 0.950 . S
H262 C274 0.950 . S
H263 C275 0.950 1_545 S
C264 H256 0.950 . S
C264 C265 1.386 . S
C264 C266 1.391 . S
C265 C264 1.386 . S
C265 C269 1.393 1_556 S
C266 H258 0.950 . S
C266 C264 1.391 . S
C266 C267 1.400 . S
C267 C266 1.400 . S
C267 C268 1.398 . S
C267 C273 1.491 . S
C268 H259 0.950 1_556 S
C268 C267 1.398 . S
C268 C269 1.391 1_556 S
C269 H257 0.950 . S
C269 C265 1.393 1_554 S
C269 C268 1.391 1_554 S
C270 H260 0.950 . S
C270 C271 1.386 . S
C270 C272 1.391 . S
C271 C270 1.386 . S
C271 C275 1.393 . S
C272 H261 0.950 . S
C272 C270 1.391 . S
C272 C273 1.400 . S
C273 C267 1.491 . S
C273 C272 1.400 . S
C273 C274 1.398 . S
C274 H262 0.950 . S
C274 C273 1.398 . S
C274 C275 1.391 . S
C275 H263 0.950 1_565 S
C275 C271 1.393 . S
C275 C274 1.391 . S
H276 C284 0.950 . S
H277 C289 0.950 . S
H278 C286 0.950 . S
H279 C288 0.950 . S
H280 C290 0.950 . S
H281 C292 0.950 . S
H282 C294 0.950 1_554 S
H283 C295 0.950 . S
C284 H276 0.950 . S
C284 C285 1.386 . S
C284 C286 1.391 . S
C285 C284 1.386 . S
C285 C289 1.393 1_554 S
C286 H278 0.950 . S
C286 C284 1.391 . S
C286 C287 1.400 1_554 S
C287 C286 1.400 1_556 S
C287 C288 1.398 . S
C287 C293 1.491 . S
C288 H279 0.950 . S
C288 C287 1.398 . S
C288 C289 1.391 . S
C289 H277 0.950 . S
C289 C285 1.393 1_556 S
C289 C288 1.391 . S
C290 H280 0.950 . S
C290 C291 1.386 . S
C290 C292 1.391 . S
C291 C290 1.386 . S
C291 C295 1.393 . S
C292 H281 0.950 . S
C292 C290 1.391 . S
C292 C293 1.400 . S
C293 C287 1.491 . S
C293 C292 1.400 . S
C293 C294 1.398 . S
C294 H282 0.950 1_556 S
C294 C293 1.398 . S
C294 C295 1.391 . S
C295 H283 0.950 . S
C295 C291 1.393 . S
C295 C294 1.391 . S
H296 C304 0.950 . S
H297 C309 0.950 . S
H298 C306 0.950 . S
H299 C308 0.950 . S
H300 C310 0.950 . S
H301 C312 0.950 . S
H302 C314 0.950 . S
H303 C315 0.950 . S
C304 H296 0.950 . S
C304 C305 1.386 1_554 S
C304 C306 1.391 1_554 S
C305 C304 1.386 1_556 S
C305 C309 1.393 . S
C306 H298 0.950 . S
C306 C304 1.391 1_556 S
C306 C307 1.400 . S
C307 C306 1.400 . S
C307 C308 1.398 . S
C307 C313 1.491 . S
C308 H299 0.950 . S
C308 C307 1.398 . S
C308 C309 1.391 . S
C309 H297 0.950 . S
C309 C305 1.393 . S
C309 C308 1.391 . S
C310 H300 0.950 . S
C310 C311 1.386 . S
C310 C312 1.391 . S
C311 C310 1.386 . S
C311 C315 1.393 . S
C312 H301 0.950 . S
C312 C310 1.391 . S
C312 C313 1.400 . S
C313 C307 1.491 . S
C313 C312 1.400 . S
C313 C314 1.398 . S
C314 H302 0.950 . S
C314 C313 1.398 . S
C314 C315 1.391 . S
C315 H303 0.950 . S
C315 C311 1.393 . S
C315 C314 1.391 . S
H316 C324 0.950 . S
H317 C329 0.950 . S
H318 C326 0.950 1_455 S
H319 C328 0.950 . S
H320 C330 0.950 . S
H321 C332 0.950 . S
H322 C334 0.950 . S
H323 C335 0.950 . S
C324 H316 0.950 . S
C324 C325 1.386 . S
C324 C326 1.391 . S
C325 C324 1.386 . S
C325 C329 1.393 . S
C326 H318 0.950 1_655 S
C326 C324 1.391 . S
C326 C327 1.400 . S
C327 C326 1.400 . S
C327 C328 1.398 . S
C327 C333 1.491 . S
C328 H319 0.950 . S
C328 C327 1.398 . S
C328 C329 1.391 . S
C329 H317 0.950 . S
C329 C325 1.393 . S
C329 C328 1.391 . S
C330 H320 0.950 . S
C330 C331 1.386 . S
C330 C332 1.391 . S
C331 C330 1.386 . S
C331 C335 1.393 1_655 S
C332 H321 0.950 . S
C332 C330 1.391 . S
C332 C333 1.400 . S
C333 C327 1.491 . S
C333 C332 1.400 . S
C333 C334 1.398 1_655 S
C334 H322 0.950 . S
C334 C333 1.398 1_455 S
C334 C335 1.391 . S
C335 H323 0.950 . S
C335 C331 1.393 1_455 S
C335 C334 1.391 . S
H336 C344 0.950 . S
H337 C349 0.950 . S
H338 C346 0.950 . S
H339 C348 0.950 . S
H340 C350 0.950 . S
H341 C352 0.950 1_655 S
H342 C354 0.950 . S
H343 C355 0.950 . S
C344 H336 0.950 . S
C344 C345 1.386 . S
C344 C346 1.391 . S
C345 C344 1.386 . S
C345 C349 1.393 . S
C346 H338 0.950 . S
C346 C344 1.391 . S
C346 C347 1.400 . S
C347 C346 1.400 . S
C347 C348 1.398 . S
C347 C353 1.491 . S
C348 H339 0.950 . S
C348 C347 1.398 . S
C348 C349 1.391 . S
C349 H337 0.950 . S
C349 C345 1.393 . S
C349 C348 1.391 . S
C350 H340 0.950 . S
C350 C351 1.386 1_655 S
C350 C352 1.391 1_655 S
C351 C350 1.386 1_455 S
C351 C355 1.393 . S
C352 H341 0.950 1_455 S
C352 C350 1.391 1_455 S
C352 C353 1.400 . S
C353 C347 1.491 . S
C353 C352 1.400 . S
C353 C354 1.398 . S
C354 H342 0.950 . S
C354 C353 1.398 . S
C354 C355 1.391 . S
C355 H343 0.950 . S
C355 C351 1.393 . S
C355 C354 1.391 . S
H356 C364 0.950 . S
H357 C369 0.950 . S
H358 C366 0.950 . S
H359 C368 0.950 . S
H360 C370 0.950 1_565 S
H361 C372 0.932 1_565 S
H362 C374 0.950 . S
H363 C375 0.950 . S
C364 H356 0.950 . S
C364 C365 1.386 . S
C364 C366 1.391 . S
C365 C364 1.386 . S
C365 C369 1.393 . S
C366 H358 0.950 . S
C366 C364 1.391 . S
C366 C367 1.400 . S
C367 C366 1.400 . S
C367 C368 1.398 . S
C367 C373 1.491 . S
C368 H359 0.950 . S
C368 C367 1.398 . S
C368 C369 1.391 . S
C369 H357 0.950 . S
C369 C365 1.393 . S
C369 C368 1.391 . S
C370 H360 0.950 1_545 S
C370 C371 1.386 . S
C370 C372 1.391 . S
C371 C370 1.386 . S
C371 C375 1.393 . S
C372 H361 0.932 1_545 S
C372 C370 1.391 . S
C372 C373 1.400 . S
C373 C367 1.491 . S
C373 C372 1.400 . S
C373 C374 1.398 . S
C374 H362 0.950 . S
C374 C373 1.398 . S
C374 C375 1.391 . S
C375 H363 0.950 . S
C375 C371 1.393 . S
C375 C374 1.391 . S
H376 C384 0.950 . S
H377 C389 0.950 . S
H378 C386 0.950 . S
H379 C388 0.950 . S
H380 C390 0.950 . S
H381 C392 0.950 . S
H382 C394 0.950 . S
H383 C395 0.950 . S
C384 H376 0.950 . S
C384 C385 1.386 . S
C384 C386 1.391 . S
C385 C384 1.386 . S
C385 C389 1.393 . S
C386 H378 0.950 . S
C386 C384 1.391 . S
C386 C387 1.400 . S
C387 C386 1.400 . S
C387 C388 1.398 . S
C387 C393 1.491 . S
C388 H379 0.950 . S
C388 C387 1.398 . S
C388 C389 1.391 . S
C389 H377 0.950 . S
C389 C385 1.393 . S
C389 C388 1.391 . S
C390 H380 0.950 . S
C390 C391 1.386 . S
C390 C392 1.391 . S
C391 C390 1.386 . S
C391 C395 1.393 . S
C392 H381 0.950 . S
C392 C390 1.391 . S
C392 C393 1.400 . S
C393 C387 1.491 . S
C393 C392 1.400 . S
C393 C394 1.398 . S
C394 H382 0.950 . S
C394 C393 1.398 . S
C394 C395 1.391 . S
C395 H383 0.950 . S
C395 C391 1.393 . S
C395 C394 1.391 . S
H396 C404 0.950 . S
H397 C409 0.950 . S
H398 C406 0.950 . S
H399 C408 0.950 . S
H400 C410 0.950 . S
H401 C412 0.950 . S
H402 C414 0.950 . S
H403 C415 0.950 . S
C404 H396 0.950 . S
C404 C405 1.386 . S
C404 C406 1.391 . S
C405 C404 1.386 . S
C405 C409 1.393 . S
C406 H398 0.950 . S
C406 C404 1.391 . S
C406 C407 1.400 . S
C407 C406 1.400 . S
C407 C408 1.398 . S
C407 C413 1.491 . S
C408 H399 0.950 . S
C408 C407 1.398 . S
C408 C409 1.391 . S
C409 H397 0.950 . S
C409 C405 1.393 . S
C409 C408 1.391 . S
C410 H400 0.950 . S
C410 C411 1.386 . S
C410 C412 1.391 . S
C411 C410 1.386 . S
C411 C415 1.393 . S
C412 H401 0.950 . S
C412 C410 1.391 . S
C412 C413 1.400 . S
C413 C407 1.491 . S
C413 C412 1.400 . S
C413 C414 1.398 . S
C414 H402 0.950 . S
C414 C413 1.398 . S
C414 C415 1.391 . S
C415 H403 0.950 . S
C415 C411 1.393 . S
C415 C414 1.391 . S
H416 C424 0.950 . S
H417 C429 0.950 . S
H418 C426 0.950 . S
H419 C428 0.950 1_455 S
H420 C430 0.950 . S
H421 C432 0.950 . S
H422 C434 0.950 . S
H423 C435 0.950 . S
C424 H416 0.950 . S
C424 C425 1.386 . S
C424 C426 1.391 . S
C425 C424 1.386 . S
C425 C429 1.393 . S
C426 H418 0.950 . S
C426 C424 1.391 . S
C426 C427 1.400 . S
C427 C426 1.400 . S
C427 C428 1.398 . S
C427 C433 1.491 . S
C428 H419 0.950 1_655 S
C428 C427 1.398 . S
C428 C429 1.391 . S
C429 H417 0.950 . S
C429 C425 1.393 . S
C429 C428 1.391 . S
C430 H420 0.950 . S
C430 C431 1.386 1_455 S
C430 C432 1.391 . S
C431 C430 1.386 1_655 S
C431 C435 1.393 . S
C432 H421 0.950 . S
C432 C430 1.391 . S
C432 C433 1.400 1_455 S
C433 C427 1.491 . S
C433 C432 1.400 1_655 S
C433 C434 1.398 . S
C434 H422 0.950 . S
C434 C433 1.398 . S
C434 C435 1.391 . S
C435 H423 0.950 . S
C435 C431 1.393 . S
C435 C434 1.391 . S
H436 C444 0.950 . S
H437 C449 0.950 . S
H438 C446 0.950 1_554 S
H439 C448 0.950 . S
H440 C450 0.950 . S
H441 C452 0.950 . S
H442 C454 0.950 1_545 S
H443 C455 0.950 . S
C444 H436 0.950 . S
C444 C445 1.386 1_554 S
C444 C446 1.391 1_554 S
C445 C444 1.386 1_556 S
C445 C449 1.393 . S
C446 H438 0.950 1_556 S
C446 C444 1.391 1_556 S
C446 C447 1.400 . S
C447 C446 1.400 . S
C447 C448 1.398 . S
C447 C453 1.491 . S
C448 H439 0.950 . S
C448 C447 1.398 . S
C448 C449 1.391 . S
C449 H437 0.950 . S
C449 C445 1.393 . S
C449 C448 1.391 . S
C450 H440 0.950 . S
C450 C451 1.386 . S
C450 C452 1.391 . S
C451 C450 1.386 . S
C451 C455 1.393 1_565 S
C452 H441 0.950 . S
C452 C450 1.391 . S
C452 C453 1.400 . S
C453 C447 1.491 . S
C453 C452 1.400 . S
C453 C454 1.398 . S
C454 H442 0.950 1_565 S
C454 C453 1.398 . S
C454 C455 1.391 1_565 S
C455 H443 0.950 . S
C455 C451 1.393 1_545 S
C455 C454 1.391 1_545 S
H456 C464 0.950 . S
H457 C469 0.950 . S
H458 C466 0.950 . S
H459 C468 0.950 . S
H460 C470 0.950 . S
H461 C472 0.950 . S
H462 C474 0.950 . S
H463 C475 0.950 . S
C464 H456 0.950 . S
C464 C465 1.386 1_554 S
C464 C466 1.391 1_554 S
C465 C464 1.386 1_556 S
C465 C469 1.393 . S
C466 H458 0.950 . S
C466 C464 1.391 1_556 S
C466 C467 1.400 . S
C467 C466 1.400 . S
C467 C468 1.398 . S
C467 C473 1.491 . S
C468 H459 0.950 . S
C468 C467 1.398 . S
C468 C469 1.391 . S
C469 H457 0.950 . S
C469 C465 1.393 . S
C469 C468 1.391 . S
C470 H460 0.950 . S
C470 C471 1.386 . S
C470 C472 1.391 . S
C471 C470 1.386 . S
C471 C475 1.393 . S
C472 H461 0.950 . S
C472 C470 1.391 . S
C472 C473 1.400 . S
C473 C467 1.491 . S
C473 C472 1.400 . S
C473 C474 1.398 . S
C474 H462 0.950 . S
C474 C473 1.398 . S
C474 C475 1.391 . S
C475 H463 0.950 . S
C475 C471 1.393 . S
C475 C474 1.391 . S
H476 C484 0.950 . S
H477 C489 0.950 . S
H478 C486 0.950 . S
H479 C488 0.950 . S
H480 C490 0.950 . S
H481 C492 0.950 . S
H482 C494 0.950 . S
H483 C495 0.950 . S
C484 H476 0.950 . S
C484 C485 1.386 . S
C484 C486 1.391 . S
C485 C484 1.386 . S
C485 C489 1.393 1_556 S
C486 H478 0.950 . S
C486 C484 1.391 . S
C486 C487 1.400 . S
C487 C486 1.400 . S
C487 C488 1.398 . S
C487 C493 1.491 . S
C488 H479 0.950 . S
C488 C487 1.398 . S
C488 C489 1.391 1_556 S
C489 H477 0.950 . S
C489 C485 1.393 1_554 S
C489 C488 1.391 1_554 S
C490 H480 0.950 . S
C490 C491 1.386 . S
C490 C492 1.391 . S
C491 C490 1.386 . S
C491 C495 1.393 . S
C492 H481 0.950 . S
C492 C490 1.391 . S
C492 C493 1.400 . S
C493 C487 1.491 . S
C493 C492 1.400 . S
C493 C494 1.398 . S
C494 H482 0.950 . S
C494 C493 1.398 . S
C494 C495 1.391 . S
C495 H483 0.950 . S
C495 C491 1.393 . S
C495 C494 1.391 . S
H496 C504 0.950 . S
H497 C509 0.950 . S
H498 C506 0.950 . S
H499 C508 0.950 . S
H500 C510 0.950 . S
H501 C512 0.950 . S
H502 C514 0.950 . S
H503 C515 0.950 . S
C504 H496 0.950 . S
C504 C505 1.386 . S
C504 C506 1.391 . S
C505 C504 1.386 . S
C505 C509 1.393 . S
C506 H498 0.950 . S
C506 C504 1.391 . S
C506 C507 1.400 . S
C507 C506 1.400 . S
C507 C508 1.398 . S
C507 C513 1.491 . S
C508 H499 0.950 . S
C508 C507 1.398 . S
C508 C509 1.391 . S
C509 H497 0.950 . S
C509 C505 1.393 . S
C509 C508 1.391 . S
C510 H500 0.950 . S
C510 C511 1.386 . S
C510 C512 1.391 . S
C511 C510 1.386 . S
C511 C515 1.393 1_556 S
C512 H501 0.950 . S
C512 C510 1.391 . S
C512 C513 1.400 1_556 S
C513 C507 1.491 . S
C513 C512 1.400 1_554 S
C513 C514 1.398 . S
C514 H502 0.950 . S
C514 C513 1.398 . S
C514 C515 1.391 . S
C515 H503 0.950 . S
C515 C511 1.393 1_554 S
C515 C514 1.391 . S
H516 C524 0.950 . S
H517 C529 0.950 . S
H518 C526 0.950 . S
H519 C528 0.950 . S
H520 C530 0.950 1_565 S
H521 C532 0.950 . S
H522 C534 0.950 . S
H523 C535 0.950 . S
C524 H516 0.950 . S
C524 C525 1.386 . S
C524 C526 1.391 . S
C525 C524 1.386 . S
C525 C529 1.393 . S
C526 H518 0.950 . S
C526 C524 1.391 . S
C526 C527 1.400 . S
C527 C526 1.400 . S
C527 C528 1.398 . S
C527 C533 1.491 1_554 S
C528 H519 0.950 . S
C528 C527 1.398 . S
C528 C529 1.391 . S
C529 H517 0.950 . S
C529 C525 1.393 . S
C529 C528 1.391 . S
C530 H520 0.950 1_545 S
C530 C531 1.386 . S
C530 C532 1.391 . S
C531 C530 1.386 . S
C531 C535 1.393 . S
C532 H521 0.950 . S
C532 C530 1.391 . S
C532 C533 1.400 . S
C533 C527 1.491 1_556 S
C533 C532 1.400 . S
C533 C534 1.398 1_556 S
C534 H522 0.950 . S
C534 C533 1.398 1_554 S
C534 C535 1.391 1_554 S
C535 H523 0.950 . S
C535 C531 1.393 . S
C535 C534 1.391 1_556 S
H536 C544 0.950 . S
H537 C549 0.950 . S
H538 C546 0.950 . S
H539 C548 0.950 1_556 S
H540 C550 0.950 . S
H541 C552 0.950 . S
H542 C554 0.950 . S
H543 C555 0.950 1_554 S
C544 H536 0.950 . S
C544 C545 1.386 . S
C544 C546 1.391 . S
C545 C544 1.386 . S
C545 C549 1.393 . S
C546 H538 0.950 . S
C546 C544 1.391 . S
C546 C547 1.400 . S
C547 C546 1.400 . S
C547 C548 1.398 . S
C547 C553 1.491 1_554 S
C548 H539 0.950 1_554 S
C548 C547 1.398 . S
C548 C549 1.391 . S
C549 H537 0.950 . S
C549 C545 1.393 . S
C549 C548 1.391 . S
C550 H540 0.950 . S
C550 C551 1.386 . S
C550 C552 1.391 . S
C551 C550 1.386 . S
C551 C555 1.393 . S
C552 H541 0.950 . S
C552 C550 1.391 . S
C552 C553 1.400 . S
C553 C547 1.491 1_556 S
C553 C552 1.400 . S
C553 C554 1.398 1_556 S
C554 H542 0.950 . S
C554 C553 1.398 1_554 S
C554 C555 1.391 1_554 S
C555 H543 0.950 1_556 S
C555 C551 1.393 . S
C555 C554 1.391 1_556 S
H556 C564 0.950 . S
H557 C569 0.950 . S
H558 C566 0.950 . S
H559 C568 0.950 . S
H560 C570 0.950 . S
H561 C572 0.950 . S
H562 C574 0.950 . S
H563 C575 0.950 . S
C564 H556 0.950 . S
C564 C565 1.386 . S
C564 C566 1.391 . S
C565 C564 1.386 . S
C565 C569 1.393 . S
C566 H558 0.950 . S
C566 C564 1.391 . S
C566 C567 1.400 . S
C567 C566 1.400 . S
C567 C568 1.398 . S
C567 C573 1.491 . S
C568 H559 0.950 . S
C568 C567 1.398 . S
C568 C569 1.391 . S
C569 H557 0.950 . S
C569 C565 1.393 . S
C569 C568 1.391 . S
C570 H560 0.950 . S
C570 C571 1.386 . S
C570 C572 1.391 . S
C571 C570 1.386 . S
C571 C575 1.393 . S
C572 H561 0.950 . S
C572 C570 1.391 . S
C572 C573 1.400 1_556 S
C573 C567 1.491 . S
C573 C572 1.400 1_554 S
C573 C574 1.398 1_554 S
C574 H562 0.950 . S
C574 C573 1.398 1_556 S
C574 C575 1.391 . S
C575 H563 0.950 . S
C575 C571 1.393 . S
C575 C574 1.391 . S
H576 C584 0.950 . S
H577 C589 0.950 . S
H578 C586 0.950 1_455 S
H579 C588 0.950 . S
H580 C590 0.950 . S
H581 C592 0.950 . S
H582 C594 0.950 1_455 S
H583 C595 0.950 . S
C584 H576 0.950 . S
C584 C585 1.386 . S
C584 C586 1.391 . S
C585 C584 1.386 . S
C585 C589 1.393 . S
C586 H578 0.950 1_655 S
C586 C584 1.391 . S
C586 C587 1.400 . S
C587 C586 1.400 . S
C587 C588 1.398 . S
C587 C593 1.491 . S
C588 H579 0.950 . S
C588 C587 1.398 . S
C588 C589 1.391 . S
C589 H577 0.950 . S
C589 C585 1.393 . S
C589 C588 1.391 . S
C590 H580 0.950 . S
C590 C591 1.386 . S
C590 C592 1.391 . S
C591 C590 1.386 . S
C591 C595 1.393 1_655 S
C592 H581 0.950 . S
C592 C590 1.391 . S
C592 C593 1.400 . S
C593 C587 1.491 . S
C593 C592 1.400 . S
C593 C594 1.398 . S
C594 H582 0.950 1_655 S
C594 C593 1.398 . S
C594 C595 1.391 1_655 S
C595 H583 0.950 . S
C595 C591 1.393 1_455 S
C595 C594 1.391 1_455 S
H596 C604 0.950 . S
H597 C609 0.950 . S
H598 C606 0.950 . S
H599 C608 0.950 . S
H600 C610 0.949 . S
H601 C612 0.955 . S
H602 C614 0.950 . S
H603 C615 0.950 . S
C604 H596 0.950 . S
C604 C605 1.386 . S
C604 C606 1.391 . S
C605 C604 1.386 . S
C605 C609 1.393 . S
C606 H598 0.950 . S
C606 C604 1.391 . S
C606 C607 1.400 . S
C607 C606 1.400 . S
C607 C608 1.398 . S
C607 C613 1.491 . S
C608 H599 0.950 . S
C608 C607 1.398 . S
C608 C609 1.391 . S
C609 H597 0.950 . S
C609 C605 1.393 . S
C609 C608 1.391 . S
C610 H600 0.949 . S
C610 C611 1.386 1_545 S
C610 C612 1.391 1_545 S
C611 C610 1.386 1_565 S
C611 C615 1.393 . S
C612 H601 0.955 . S
C612 C610 1.391 1_565 S
C612 C613 1.400 . S
C613 C607 1.491 . S
C613 C612 1.400 . S
C613 C614 1.398 . S
C614 H602 0.950 . S
C614 C613 1.398 . S
C614 C615 1.391 . S
C615 H603 0.950 . S
C615 C611 1.393 . S
C615 C614 1.391 . S
H616 C624 0.950 . S
H617 C629 0.950 . S
H618 C626 0.950 . S
H619 C628 0.950 . S
H620 C630 0.950 . S
H621 C632 0.950 . S
H622 C634 0.950 . S
H623 C635 0.950 . S
C624 H616 0.950 . S
C624 C625 1.386 . S
C624 C626 1.391 . S
C625 C624 1.386 . S
C625 C629 1.393 . S
C626 H618 0.950 . S
C626 C624 1.391 . S
C626 C627 1.400 . S
C627 C626 1.400 . S
C627 C628 1.398 . S
C627 C633 1.491 . S
C628 H619 0.950 . S
C628 C627 1.398 . S
C628 C629 1.391 . S
C629 H617 0.950 . S
C629 C625 1.393 . S
C629 C628 1.391 . S
C630 H620 0.950 . S
C630 C631 1.386 . S
C630 C632 1.391 . S
C631 C630 1.386 . S
C631 C635 1.393 . S
C632 H621 0.950 . S
C632 C630 1.391 . S
C632 C633 1.400 . S
C633 C627 1.491 . S
C633 C632 1.400 . S
C633 C634 1.398 . S
C634 H622 0.950 . S
C634 C633 1.398 . S
C634 C635 1.391 . S
C635 H623 0.950 . S
C635 C631 1.393 . S
C635 C634 1.391 . S
H636 C644 0.950 . S
H637 C649 0.950 . S
H638 C646 0.950 . S
H639 C648 0.950 . S
H640 C650 0.950 . S
H641 C652 0.950 . S
H642 C654 0.950 . S
H643 C655 0.950 . S
C644 H636 0.950 . S
C644 C645 1.386 . S
C644 C646 1.391 . S
C645 C644 1.386 . S
C645 C649 1.393 . S
C646 H638 0.950 . S
C646 C644 1.391 . S
C646 C647 1.400 . S
C647 C646 1.400 . S
C647 C648 1.398 . S
C647 C653 1.491 . S
C648 H639 0.950 . S
C648 C647 1.398 . S
C648 C649 1.391 . S
C649 H637 0.950 . S
C649 C645 1.393 . S
C649 C648 1.391 . S
C650 H640 0.950 . S
C650 C651 1.386 . S
C650 C652 1.391 . S
C651 C650 1.386 . S
C651 C655 1.393 . S
C652 H641 0.950 . S
C652 C650 1.391 . S
C652 C653 1.400 . S
C653 C647 1.491 . S
C653 C652 1.400 . S
C653 C654 1.398 . S
C654 H642 0.950 . S
C654 C653 1.398 . S
C654 C655 1.391 . S
C655 H643 0.950 . S
C655 C651 1.393 . S
C655 C654 1.391 . S
C185 C76 1.556 . S
C191 C97 1.607 . S
C211 C132 1.617 . S
C205 C88 1.540 . S
C231 C137 1.341 . S
C225 C52 1.311 . S
C251 C157 1.467 . S
C245 C64 1.430 . S
C271 C105 1.609 1_565 S
C265 C28 1.576 1_556 S
C285 C40 1.576 . S
C291 C122 1.608 . S
C305 C4 1.299 1_556 S
C311 C145 1.329 . S
C325 C16 1.453 . S
C331 C165 1.471 1_655 S
C351 C115 1.221 . S
C345 C69 1.234 . S
C371 C124 0.987 . S
C365 C81 0.976 . S
C391 C155 1.300 . S
C385 C93 1.300 . S
C405 C57 0.983 . S
C411 C175 0.956 . S
C425 C21 1.193 . S
C431 C104 1.249 1_655 S
C451 C135 0.988 1_565 S
C445 C33 0.967 1_556 S
C471 C144 1.319 . S
C465 C45 1.265 1_556 S
C485 C9 0.961 1_556 S
C491 C164 0.979 . S
C505 C66 1.478 . S
C511 C102 1.475 . S
C525 C78 1.450 . S
C531 C125 1.513 . S
C551 C142 1.589 . S
C545 C90 1.545 . S
C571 C162 1.594 . S
C565 C54 1.550 . S
C585 C18 1.452 . S
C591 C112 1.490 . S
C611 C117 1.508 . S
C605 C30 1.459 . S
C631 C152 1.578 . S
C625 C42 1.545 . S
C645 C6 1.567 . S
C651 C172 1.580 . S
