# Generated by pormake.
# Topology anh, (6,3)-cn, num edge types: 1
# Building blocks:
#     Node 0, Type 0, BuildingBlock: HISSIN_clean_sbu_0, # of connection points: 6
#     Node 1, Type 0, BuildingBlock: HISSIN_clean_sbu_0, # of connection points: 6
#     Node 2, Type 0, BuildingBlock: HISSIN_clean_sbu_0, # of connection points: 6
#     Node 3, Type 1, BuildingBlock: CUQRIR_clean_linker_1, # of connection points: 3
#     Node 4, Type 1, BuildingBlock: CUQRIR_clean_linker_1, # of connection points: 3
#     Node 5, Type 1, BuildingBlock: CUQRIR_clean_linker_1, # of connection points: 3
#     Node 6, Type 1, BuildingBlock: CUQRIR_clean_linker_1, # of connection points: 3
#     Node 7, Type 1, BuildingBlock: CUQRIR_clean_linker_1, # of connection points: 3
#     Node 8, Type 1, BuildingBlock: CUQRIR_clean_linker_1, # of connection points: 3
#     Edge 9, Type (0, 1), BuildingBlock: XIVTED_clean_linker_0, # of connection points: 2
#     Edge 10, Type (0, 1), BuildingBlock: XIVTED_clean_linker_0, # of connection points: 2
#     Edge 11, Type (0, 1), BuildingBlock: XIVTED_clean_linker_0, # of connection points: 2
#     Edge 12, Type (0, 1), BuildingBlock: XIVTED_clean_linker_0, # of connection points: 2
#     Edge 13, Type (0, 1), BuildingBlock: XIVTED_clean_linker_0, # of connection points: 2
#     Edge 14, Type (0, 1), BuildingBlock: XIVTED_clean_linker_0, # of connection points: 2
#     Edge 15, Type (0, 1), BuildingBlock: XIVTED_clean_linker_0, # of connection points: 2
#     Edge 16, Type (0, 1), BuildingBlock: XIVTED_clean_linker_0, # of connection points: 2
#     Edge 17, Type (0, 1), BuildingBlock: XIVTED_clean_linker_0, # of connection points: 2
#     Edge 18, Type (0, 1), BuildingBlock: XIVTED_clean_linker_0, # of connection points: 2
#     Edge 19, Type (0, 1), BuildingBlock: XIVTED_clean_linker_0, # of connection points: 2
#     Edge 20, Type (0, 1), BuildingBlock: XIVTED_clean_linker_0, # of connection points: 2
#     Edge 21, Type (0, 1), BuildingBlock: XIVTED_clean_linker_0, # of connection points: 2
#     Edge 22, Type (0, 1), BuildingBlock: XIVTED_clean_linker_0, # of connection points: 2
#     Edge 23, Type (0, 1), BuildingBlock: XIVTED_clean_linker_0, # of connection points: 2
#     Edge 24, Type (0, 1), BuildingBlock: XIVTED_clean_linker_0, # of connection points: 2
#     Edge 25, Type (0, 1), BuildingBlock: XIVTED_clean_linker_0, # of connection points: 2
#     Edge 26, Type (0, 1), BuildingBlock: XIVTED_clean_linker_0, # of connection points: 2
# Relax obj value: 0.298
# Max RMSD: 0.204
# Mean RMSD: 0.159
data_MOF--net-anh--node1-HISSIN_clean_sbu_0--node2-CUQRIR_clean_linker_1--edge1-XIVTED_clean_linker_0
_symmetry_space_group_name_H-M    P1
_symmetry_Int_Tables_number       1
_symmetry_cell_setting            triclinic
loop_
_symmetry_equiv_pos_as_xyz
'x, y, z'
_cell_length_a     28.568245
_cell_length_b     28.378943
_cell_length_c     47.15301
_cell_angle_alpha  90.141096
_cell_angle_beta   90.97057
_cell_angle_gamma 120.05415
loop_
_atom_site_label
_atom_site_type_symbol
_atom_site_fract_x
_atom_site_fract_y
_atom_site_fract_z
_atom_type_partial_charge
Eu0 Eu 0.13677 0.51736 0.16136 0.0
Eu1 Eu 0.19835 0.645 0.1473 0.0
C2 C 0.17604 0.60503 0.21363 0.0
C3 C 1.02594 0.38968 0.18977 0.0
C4 C 1.02132 0.41651 0.21374 0.0
C5 C 0.92949 0.32564 0.19092 0.0
C6 C 0.97109 0.39871 0.22584 0.0
C7 C 0.97992 0.34338 0.17887 0.0
C8 C 0.92437 0.35407 0.21407 0.0
C9 C 1.07602 0.41512 0.17349 0.0
O10 O 0.26575 0.62335 0.14229 0.0
O11 O 0.22617 0.5368 0.16007 0.0
C12 C 0.26944 0.58048 0.15017 0.0
O13 O 0.16461 0.52116 0.11727 0.0
O14 O 0.20497 0.7099 0.12006 0.0
O15 O 0.26559 0.72803 0.15289 0.0
O16 O 0.163 0.59796 0.10594 0.0
C17 C 0.16057 0.55227 0.09831 0.0
O18 O 1.06808 0.53716 0.15026 0.0
O19 O 1.11294 0.62986 0.15456 0.0
O20 O 0.19936 0.64581 0.19583 0.0
O21 O 1.07239 0.43572 0.14941 0.0
O22 O 1.12047 0.44777 0.18763 0.0
O23 O 0.14803 0.5545 0.20468 0.0
C24 C 0.24296 0.79511 0.14281 0.0
C25 C 0.20349 0.78958 0.16196 0.0
C26 C 0.28039 0.89268 0.14326 0.0
C27 C 0.20313 0.83572 0.17216 0.0
C28 C 0.28062 0.84664 0.1331 0.0
C29 C 0.24232 0.88795 0.16335 0.0
C30 C 0.24686 0.74783 0.13383 0.0
C31 C 1.06709 0.58354 0.15088 0.0
H32 H 1.05607 0.45277 0.22243 0.0
H33 H 0.8942 0.29138 0.18119 0.0
H34 H 0.96864 0.42086 0.24396 0.0
H35 H 0.9825 0.32266 0.16014 0.0
H36 H 0.17395 0.74978 0.16957 0.0
H37 H 0.31198 0.93217 0.13644 0.0
H38 H 0.17315 0.83064 0.18746 0.0
H39 H 0.31136 0.85145 0.11834 0.0
Eu40 Eu 0.83095 0.16286 0.48781 0.0
Eu41 Eu 0.7702 0.2314 0.49041 0.0
C42 C 0.79559 0.18737 0.54825 0.0
C43 C 0.84297 1.04047 0.48076 0.0
C44 C 0.78867 1.01426 0.47163 0.0
C45 C 0.83016 0.9541 0.49742 0.0
C46 C 0.7546 0.95918 0.47683 0.0
C47 C 0.86409 1.00977 0.49271 0.0
C48 C 0.77424 0.92872 0.49097 0.0
C49 C 0.87267 0.09999 0.48352 0.0
O50 O 0.85958 0.29975 0.49424 0.0
O51 O 0.90041 0.25158 0.48016 0.0
C52 C 0.90336 0.29898 0.48584 0.0
O53 O 0.78468 0.15218 0.44649 0.0
O54 O 0.72314 0.25733 0.46527 0.0
O55 O 0.74329 0.28403 0.50928 0.0
O56 O 0.8097 0.23958 0.44887 0.0
C57 C 0.7907 0.19544 0.43364 0.0
O58 O 0.74194 0.09549 0.49406 0.0
O59 O 0.70061 0.14361 0.48097 0.0
O60 O 0.76119 0.19744 0.53459 0.0
O61 O 0.86836 0.12681 0.46214 0.0
O62 O 0.86548 0.11761 0.50768 0.0
O63 O 0.83359 0.18403 0.53458 0.0
C64 C 0.65766 0.26676 0.49073 0.0
C65 C 0.61935 0.24358 0.46832 0.0
C66 C 0.59 0.27156 0.5191 0.0
C67 C 0.56734 0.23575 0.47106 0.0
C68 C 0.64201 0.27947 0.51636 0.0
C69 C 0.5526 0.25115 0.49619 0.0
C70 C 0.7144 0.28082 0.48673 0.0
C71 C 0.69742 0.09636 0.48662 0.0
H72 H 0.77146 1.03726 0.46239 0.0
H73 H 0.84742 0.93179 0.50737 0.0
H74 H 0.71213 0.94196 0.47153 0.0
H75 H 0.90592 1.02938 0.49997 0.0
H76 H 0.63004 0.23326 0.44824 0.0
H77 H 0.58044 0.28494 0.53858 0.0
H78 H 0.53942 0.21986 0.45307 0.0
H79 H 0.67061 0.29759 0.53395 0.0
Eu80 Eu 0.66454 0.6543 0.83078 0.0
Eu81 Eu 0.79174 0.71551 0.82012 0.0
C82 C 0.74724 0.6812 0.88306 0.0
C83 C 0.51793 0.55556 0.85387 0.0
C84 C 0.51747 0.54902 0.88344 0.0
C85 C 0.42708 0.47769 0.85034 0.0
C86 C 0.47118 0.50844 0.89642 0.0
C87 C 0.47317 0.5183 0.83741 0.0
C88 C 0.4247 0.47383 0.88006 0.0
C89 C 0.56121 0.60405 0.8401 0.0
O90 O 0.77107 0.62676 0.82388 0.0
O91 O 0.67887 0.58309 0.8185 0.0
C92 C 0.72445 0.58131 0.81994 0.0
O93 O 0.67634 0.68637 0.78686 0.0
O94 O 0.87401 0.73752 0.83299 0.0
O95 O 0.85948 0.76363 0.79235 0.0
O96 O 0.74759 0.6748 0.77872 0.0
C97 C 0.70668 0.67926 0.76911 0.0
O98 O 0.68868 0.74569 0.83248 0.0
O99 O 0.7742 0.78568 0.81468 0.0
O100 O 0.78378 0.72172 0.8681 0.0
O101 O 0.59735 0.6431 0.85644 0.0
O102 O 0.58175 0.59611 0.81725 0.0
O103 O 0.70204 0.64437 0.8709 0.0
C104 C 0.91725 0.72653 0.79409 0.0
C105 C 0.88814 0.68753 0.77269 0.0
C106 C 0.97834 0.69083 0.79858 0.0
C107 C 0.90287 0.64925 0.76506 0.0
C108 C 0.96375 0.72934 0.80609 0.0
C109 C 0.94655 0.64881 0.77892 0.0
C110 C 0.89296 0.75552 0.8079 0.0
C111 C 0.73156 0.78908 0.82212 0.0
H112 H 0.55168 0.57688 0.89668 0.0
H113 H 0.39184 0.45227 0.83709 0.0
H114 H 0.47069 0.50609 0.91935 0.0
H115 H 0.47258 0.52257 0.81459 0.0
H116 H 0.85173 0.68407 0.76321 0.0
H117 H 1.0119 0.69148 0.80996 0.0
H118 H 0.87805 0.61801 0.74955 0.0
H119 H 0.98632 0.75861 0.82286 0.0
C120 C 0.51382 0.2463 0.26093 0.0
N121 N 0.55535 0.25378 0.27805 0.0
N122 N 0.46613 0.20426 0.26978 0.0
C123 C 0.52106 0.27743 0.23403 0.0
C124 C 0.48043 0.18805 0.29391 0.0
N125 N 0.53444 0.21809 0.29881 0.0
C126 C 0.44247 0.13937 0.31097 0.0
H127 H 0.48189 0.27162 0.22576 0.0
H128 H 0.53958 0.26384 0.21779 0.0
H129 H 0.54941 0.3214 0.23814 0.0
H130 H 0.42817 0.1018 0.29797 0.0
H131 H 0.40672 0.14252 0.31678 0.0
H132 H 0.46187 0.13608 0.33083 0.0
C133 C 0.4606 0.53272 0.54751 0.0
N134 N 0.49623 0.57062 0.56615 0.0
N135 N 0.44393 0.48149 0.55672 0.0
C136 C 0.44603 0.54569 0.51884 0.0
C137 C 0.46912 0.49002 0.58249 0.0
N138 N 0.50128 0.54389 0.58798 0.0
C139 C 0.46541 0.44541 0.60125 0.0
H140 H 0.42949 0.57335 0.52147 0.0
H141 H 0.41509 0.50848 0.50747 0.0
H142 H 0.48285 0.56698 0.50587 0.0
H143 H 0.48682 0.42627 0.59127 0.0
H144 H 0.42256 0.41364 0.60376 0.0
H145 H 0.48284 0.46063 0.62274 0.0
C146 C 1.03281 0.35782 0.86514 0.0
N147 N 1.05035 0.36288 0.89244 0.0
N148 N 0.99463 0.37263 0.86228 0.0
C149 C 1.05905 0.34677 0.84054 0.0
C150 C 0.98835 0.38509 0.88921 0.0
N151 N 1.0229 0.38041 0.90742 0.0
C152 C 0.95231 0.40748 0.89707 0.0
H153 H 1.10148 0.38045 0.83888 0.0
H154 H 1.03685 0.34258 0.82029 0.0
H155 H 1.05998 0.30867 0.84419 0.0
H156 H 0.97066 0.45021 0.88987 0.0
H157 H 0.94615 0.40605 0.92029 0.0
H158 H 0.9123 0.3836 0.88625 0.0
C159 C 0.29724 0.69475 0.46322 0.0
N160 N 0.25497 0.66046 0.44521 0.0
N161 N 0.33514 0.74113 0.44985 0.0
C162 C 0.30031 0.68431 0.49414 0.0
C163 C 0.31443 0.73301 0.42299 0.0
N164 N 0.26633 0.68549 0.42019 0.0
C165 C 0.34408 0.76966 0.39862 0.0
H166 H 0.25924 0.66285 0.50318 0.0
H167 H 0.32603 0.72297 0.50599 0.0
H168 H 0.31845 0.65791 0.49661 0.0
H169 H 0.33614 0.74586 0.37864 0.0
H170 H 0.38838 0.79254 0.40281 0.0
H171 H 0.32995 0.79932 0.39559 0.0
C172 C 0.72872 0.18285 0.79898 0.0
N173 N 0.73754 0.15003 0.78074 0.0
N174 N 0.73695 0.22991 0.78622 0.0
C175 C 0.71505 0.17078 0.82963 0.0
C176 C 0.75097 0.22434 0.75966 0.0
N177 N 0.75164 0.17704 0.75628 0.0
C178 C 0.76296 0.26507 0.73644 0.0
H179 H 0.67074 0.14344 0.8313 0.0
H180 H 0.72674 0.20873 0.84181 0.0
H181 H 0.73567 0.14994 0.83893 0.0
H182 H 0.80745 0.29169 0.73511 0.0
H183 H 0.74484 0.29094 0.74068 0.0
H184 H 0.74755 0.24441 0.71557 0.0
C185 C 0.67233 0.587 0.1296 0.0
N186 N 0.71572 0.59893 0.11247 0.0
N187 N 0.63552 0.59876 0.11683 0.0
C188 C 0.66716 0.56668 0.15932 0.0
C189 C 0.6582 0.61762 0.09124 0.0
N190 N 0.70603 0.61839 0.08866 0.0
C191 C 0.63157 0.63219 0.06763 0.0
H192 H 0.64819 0.52169 0.15865 0.0
H193 H 0.64121 0.57736 0.17188 0.0
H194 H 0.7076 0.58386 0.1698 0.0
H195 H 0.58697 0.61033 0.06965 0.0
H196 H 0.64116 0.62221 0.04654 0.0
H197 H 0.64689 0.67664 0.06854 0.0
H198 H 0.36875 0.66617 0.13363 0.0
H199 H 0.54252 0.50954 0.13679 0.0
H200 H 0.29778 0.49917 0.15942 0.0
H201 H 0.6094 0.67929 0.11832 0.0
H202 H 0.45429 0.50337 0.14602 0.0
H203 H 0.45569 0.66986 0.1282 0.0
C204 C 0.37095 0.62996 0.13823 0.0
C205 C 0.32422 0.58222 0.14712 0.0
C206 C 0.48831 0.54216 0.14018 0.0
C207 C 0.42693 0.58633 0.14063 0.0
C208 C 0.53925 0.54582 0.13514 0.0
C209 C 0.58471 0.59521 0.12681 0.0
C210 C 0.48164 0.58812 0.13684 0.0
C211 C 0.57635 0.64027 0.12462 0.0
C212 C 0.42137 0.63222 0.1351 0.0
C213 C 0.33167 0.53717 0.15259 0.0
N214 N 0.52676 0.63556 0.12936 0.0
N215 N 0.38121 0.54031 0.14922 0.0
H216 H 0.91902 0.40348 0.4789 0.0
H217 H 0.24633 0.568 0.46928 0.0
H218 H 1.01035 0.32041 0.48082 0.0
H219 H 0.14855 0.63176 0.43594 0.0
H220 H 0.16298 0.48119 0.47922 0.0
H221 H 1.00267 0.48922 0.46908 0.0
C222 C 0.95652 0.4029 0.47754 0.0
C223 C 0.95627 0.35322 0.48092 0.0
C224 C 0.15951 0.51407 0.46977 0.0
C225 C 1.05477 0.45402 0.4697 0.0
C226 C 0.20746 0.56411 0.46418 0.0
C227 C 0.20539 0.60828 0.45169 0.0
C228 C 1.10789 0.50734 0.46352 0.0
C229 C 0.15294 0.59948 0.44544 0.0
C230 C 1.00471 0.45241 0.47173 0.0
C231 C 1.00735 0.35674 0.47849 0.0
N232 N 1.10705 0.55097 0.45158 0.0
N233 N 1.0538 0.40557 0.47335 0.0
H234 H 0.65274 0.81724 0.83481 0.0
H235 H 0.81216 0.12016 0.76682 0.0
H236 H 0.81003 0.88553 0.79784 0.0
H237 H 0.66009 1.05889 0.80852 0.0
H238 H 0.81038 1.03426 0.77696 0.0
H239 H 0.65336 0.903 0.82514 0.0
C240 C 0.68765 0.85003 0.82479 0.0
C241 C 0.73153 0.84287 0.81742 0.0
C242 C 0.77723 1.03929 0.78397 0.0
C243 C 0.73222 0.94319 0.80578 0.0
C244 C 0.77804 0.08868 0.77793 0.0
C245 C 0.73625 0.09799 0.78666 0.0
C246 C 0.73409 0.99731 0.79891 0.0
C247 C 0.69377 1.05483 0.80154 0.0
C248 C 0.68789 0.89944 0.81918 0.0
C249 C 0.77512 0.88801 0.80423 0.0
N250 N 0.6938 1.00709 0.80704 0.0
N251 N 0.77422 0.93527 0.7989 0.0
H252 H 1.05282 0.6721 0.14033 0.0
H253 H 0.72353 0.51239 0.13422 0.0
H254 H 0.95778 0.49834 0.14991 0.0
H255 H 0.82263 0.67611 0.10501 0.0
H256 H 0.8063 0.50719 0.14373 0.0
H257 H 0.96934 0.67495 0.13129 0.0
C258 C 1.01457 0.63427 0.14074 0.0
C259 C 1.01389 0.58482 0.14607 0.0
C260 C 0.81018 0.54437 0.13526 0.0
C261 C 0.91518 0.5881 0.13561 0.0
C262 C 0.76249 0.54751 0.12992 0.0
C263 C 0.76493 0.5949 0.11869 0.0
C264 C 0.86204 0.58918 0.12984 0.0
C265 C 0.81765 0.63846 0.11338 0.0
C266 C 0.96634 0.63603 0.1354 0.0
C267 C 0.96165 0.53768 0.14597 0.0
N268 N 0.86319 0.63464 0.11909 0.0
N269 N 0.91523 0.54056 0.14105 0.0
H270 H 0.59784 1.08071 0.46738 0.0
H271 H 0.42684 0.74943 0.47575 0.0
H272 H 0.66985 0.98824 0.49803 0.0
H273 H 0.36018 0.84728 0.44642 0.0
H274 H 0.5141 0.83392 0.48591 0.0
H275 H 0.51115 0.99575 0.46106 0.0
C276 C 0.59582 1.04274 0.47292 0.0
C277 C 0.64267 1.04301 0.48332 0.0
C278 C 0.4803 0.8371 0.47749 0.0
C279 C 0.54075 0.94282 0.47585 0.0
C280 C 0.42997 0.7885 0.47193 0.0
C281 C 0.38498 0.79035 0.46033 0.0
C282 C 0.48667 0.88888 0.47148 0.0
C283 C 0.39298 0.84306 0.4554 0.0
C284 C 0.5457 0.99365 0.46922 0.0
C285 C 0.63581 0.99115 0.48983 0.0
N286 N 0.44198 0.88928 0.46082 0.0
N287 N 0.58659 0.94391 0.48601 0.0
H288 H 0.81196 0.56431 0.82092 0.0
H289 H 0.64626 0.23561 0.79864 0.0
H290 H 0.63825 0.47362 0.81185 0.0
H291 H 0.81925 0.33389 0.79544 0.0
H292 H 0.6411 0.31894 0.80776 0.0
H293 H 0.81376 0.47932 0.81615 0.0
C294 C 0.77391 0.52672 0.81788 0.0
C295 C 0.72478 0.52748 0.81684 0.0
C296 C 0.68035 0.3224 0.8055 0.0
C297 C 0.72697 0.42752 0.81078 0.0
C298 C 0.68331 0.27446 0.80063 0.0
C299 C 0.73343 0.27696 0.79693 0.0
C300 C 0.72787 0.3741 0.80678 0.0
C301 C 0.77982 0.32933 0.79878 0.0
C302 C 0.77514 0.47771 0.81499 0.0
C303 C 0.67731 0.47614 0.8128 0.0
N304 N 0.77592 0.37506 0.80354 0.0
N305 N 0.67963 0.42891 0.80993 0.0
H306 H 0.78394 0.87885 0.5391 0.0
H307 H 0.48009 0.65288 0.54917 0.0
H308 H 0.67483 0.85151 0.46806 0.0
H309 H 0.60377 0.61088 0.56455 0.0
H310 H 0.54925 0.74057 0.52973 0.0
H311 H 0.71642 0.79227 0.55869 0.0
C312 C 0.74644 0.85476 0.52727 0.0
C313 C 0.73561 0.8733 0.50167 0.0
C314 C 0.56096 0.71213 0.53773 0.0
C315 C 0.65716 0.77561 0.52521 0.0
C316 C 0.52181 0.66247 0.54873 0.0
C317 C 0.53651 0.62499 0.55849 0.0
C318 C 0.61505 0.72455 0.53734 0.0
C319 C 0.59116 0.63933 0.55789 0.0
C320 C 0.70769 0.80566 0.5388 0.0
C321 C 0.685 0.84019 0.48812 0.0
N322 N 0.62866 0.68823 0.54764 0.0
N323 N 0.64737 0.79331 0.50026 0.0
H324 H 0.8677 0.54129 0.77511 0.0
H325 H 1.07338 0.45473 0.83346 0.0
H326 H 1.04123 0.64555 0.77819 0.0
H327 H 0.90035 0.35255 0.83671 0.0
H328 H 1.06205 0.51373 0.80008 0.0
H329 H 0.87903 0.463 0.78394 0.0
C330 C 0.90831 0.5477 0.77689 0.0
C331 C 0.95361 0.60049 0.77673 0.0
C332 C 1.0264 0.4778 0.8075 0.0
C333 C 0.9666 0.51087 0.78747 0.0
C334 C 1.03292 0.4438 0.82633 0.0
C335 C 0.98766 0.39895 0.83784 0.0
C336 C 0.97416 0.46774 0.80068 0.0
C337 C 0.93611 0.38717 0.82845 0.0
C338 C 0.91465 0.50285 0.78216 0.0
C339 C 1.00509 0.6059 0.77907 0.0
N340 N 0.93065 0.42207 0.81081 0.0
N341 N 1.01015 0.56182 0.78489 0.0
H342 H 0.23051 0.90352 0.21971 0.0
H343 H 0.47015 0.17042 0.21696 0.0
H344 H 0.27011 0.98662 0.13954 0.0
H345 H 0.35843 0.15609 0.28132 0.0
H346 H 0.39539 0.10258 0.18838 0.0
H347 H 0.26885 0.99142 0.24417 0.0
C348 C 0.24532 0.93994 0.20713 0.0
C349 C 0.24885 0.93778 0.1775 0.0
C350 C 0.3869 0.11525 0.20842 0.0
C351 C 0.2936 1.03806 0.20549 0.0
C352 C 0.42962 0.15442 0.2247 0.0
C353 C 0.42059 0.16956 0.25149 0.0
C354 C 0.33486 0.08867 0.21951 0.0
C355 C 0.36718 0.14485 0.26101 0.0
C356 C 0.26719 0.99013 0.22119 0.0
C357 C 0.2686 0.98653 0.16246 0.0
N358 N 0.32623 0.10419 0.24537 0.0
N359 N 0.29198 1.03489 0.17666 0.0
H360 H 0.48159 0.22665 0.53991 0.0
H361 H 0.49073 0.48189 0.50757 0.0
H362 H 0.5119 0.28803 0.45456 0.0
H363 H 0.36743 0.37491 0.56491 0.0
H364 H 0.4846 0.4039 0.48345 0.0
H365 H 0.42427 0.26693 0.54662 0.0
C366 C 0.47468 0.24695 0.52226 0.0
C367 C 0.50326 0.25589 0.49704 0.0
C368 C 0.45756 0.39695 0.50079 0.0
C369 C 0.43829 0.30209 0.50462 0.0
C370 C 0.46079 0.44178 0.51451 0.0
C371 C 0.43007 0.43508 0.53862 0.0
C372 C 0.42571 0.34501 0.51215 0.0
C373 C 0.39325 0.38187 0.54705 0.0
C374 C 0.44161 0.26956 0.52603 0.0
C375 C 0.49164 0.28106 0.47459 0.0
N376 N 0.3935 0.33872 0.53451 0.0
N377 N 0.46141 0.30485 0.47921 0.0
H378 H 0.34189 0.37073 0.86604 0.0
H379 H 0.1378 0.45569 0.91039 0.0
H380 H 0.38513 0.50495 0.92401 0.0
H381 H 1.08139 0.28686 0.89165 0.0
H382 H 0.22846 0.47081 0.91884 0.0
H383 H 0.24688 0.33309 0.87844 0.0
C384 C 0.33161 0.39142 0.88196 0.0
C385 C 0.37135 0.44171 0.8935 0.0
C386 C 0.1962 0.43002 0.91359 0.0
C387 C 0.26318 0.39936 0.90747 0.0
C388 C 0.14434 0.42138 0.90897 0.0
C389 C 1.10215 0.3698 0.90082 0.0
C390 C 0.20658 0.3873 0.90881 0.0
C391 C 1.11322 0.32719 0.89791 0.0
C392 C 0.27745 0.36984 0.8891 0.0
C393 C 0.35598 0.46632 0.9144 0.0
N394 N 0.1648 0.33708 0.90133 0.0
N395 N 0.30294 0.44563 0.92017 0.0
H396 H 0.83744 0.25214 0.22188 0.0
H397 H 0.64168 0.35648 0.27877 0.0
H398 H 0.88781 0.42268 0.23025 0.0
H399 H 0.58894 0.19075 0.25477 0.0
H400 H 0.73398 0.3828 0.26372 0.0
H401 H 0.74738 0.22914 0.23714 0.0
C402 C 0.82954 0.28475 0.2269 0.0
C403 C 0.87024 0.33937 0.22475 0.0
C404 C 0.7021 0.34072 0.26162 0.0
C405 C 0.76721 0.31342 0.2424 0.0
C406 C 0.64982 0.32603 0.27007 0.0
C407 C 0.60861 0.27168 0.26779 0.0
C408 C 0.71252 0.30044 0.25108 0.0
C409 C 0.62028 0.23307 0.25669 0.0
C410 C 0.77814 0.27164 0.23568 0.0
C411 C 0.85788 0.37998 0.23198 0.0
N412 N 0.6712 0.24809 0.24885 0.0
N413 N 0.80741 0.36618 0.24045 0.0
H414 H 0.13719 0.59806 0.05277 0.0
H415 H 1.03416 0.33223 0.95417 0.0
H416 H 0.14778 0.45693 0.07695 0.0
H417 H 1.0508 0.48278 0.92396 0.0
H418 H 1.07053 0.37571 0.00067 0.0
H419 H 1.10193 0.55587 0.00604 0.0
C420 C 0.13269 0.55856 0.04819 0.0
C421 C 0.14535 0.53101 0.06888 0.0
C422 C 1.06565 0.3991 0.98397 0.0
C423 C 1.10427 0.48217 0.01571 0.0
C424 C 1.04456 0.37413 0.95763 0.0
C425 C 1.0382 0.40357 0.93563 0.0
C426 C 1.0806 0.45402 0.98822 0.0
C427 C 1.05325 0.45818 0.94075 0.0
C428 C 1.11233 0.53438 0.02157 0.0
C429 C 0.13846 0.47975 0.06176 0.0
N430 N 1.07372 0.48166 0.96652 0.0
N431 N 1.1181 0.45691 0.03589 0.0
H432 H 0.70132 0.10516 0.41062 0.0
H433 H 0.60903 0.29368 0.33348 0.0
H434 H 0.80529 0.278 0.39959 0.0
H435 H 0.53691 0.12488 0.30915 0.0
H436 H 0.67521 0.28492 0.36318 0.0
H437 H 0.63627 0.10698 0.37638 0.0
C438 C 0.71122 0.14308 0.40037 0.0
C439 C 0.75857 0.19164 0.40804 0.0
C440 C 0.64466 0.24954 0.35157 0.0
C441 C 0.68404 0.19418 0.36992 0.0
C442 C 0.60669 0.25448 0.33499 0.0
C443 C 0.56707 0.20973 0.31955 0.0
C444 C 0.64295 0.19927 0.35281 0.0
C445 C 0.56599 0.15983 0.32153 0.0
C446 C 0.67389 0.14416 0.38111 0.0
C447 C 0.76906 0.23975 0.39446 0.0
N448 N 0.60342 0.15577 0.33802 0.0
N449 N 0.73174 0.23996 0.37644 0.0
H450 H 0.65107 0.7197 0.7414 0.0
H451 H 0.58037 0.52396 0.60605 0.0
H452 H 0.72217 0.61856 0.72851 0.0
H453 H 0.50819 0.62254 0.62261 0.0
H454 H 0.64062 0.56504 0.64768 0.0
H455 H 0.60826 0.69336 0.69458 0.0
C456 C 0.65822 0.69238 0.72848 0.0
C457 C 0.68971 0.67077 0.73893 0.0
C458 C 0.61172 0.57781 0.64221 0.0
C459 C 0.63987 0.63955 0.68529 0.0
C460 C 0.57714 0.55406 0.61869 0.0
C461 C 0.53836 0.56888 0.61168 0.0
C462 C 0.60766 0.61696 0.65861 0.0
C463 C 0.53699 0.60953 0.62781 0.0
C464 C 0.63362 0.67723 0.70173 0.0
C465 C 0.69813 0.63607 0.72119 0.0
N466 N 0.57077 0.63183 0.65069 0.0
N467 N 0.67261 0.62083 0.69532 0.0
H468 H 0.87187 0.19404 0.58739 0.0
H469 H 0.67256 0.11041 0.71965 0.0
H470 H 0.70683 0.15938 0.58075 0.0
H471 H 0.84527 0.20656 0.72979 0.0
H472 H 0.68296 0.10614 0.66815 0.0
H473 H 0.86152 0.18003 0.63891 0.0
C474 C 0.83341 0.18326 0.59668 0.0
C475 C 0.79033 0.17843 0.57959 0.0
C476 C 0.71875 0.12691 0.68169 0.0
C477 C 0.77788 0.16108 0.63859 0.0
C478 C 0.71278 0.12833 0.7111 0.0
C479 C 0.75815 0.15772 0.72903 0.0
C480 C 0.77064 0.15491 0.67003 0.0
C481 C 0.80943 0.18235 0.71674 0.0
C482 C 0.82756 0.17526 0.62611 0.0
C483 C 0.7414 0.16419 0.59297 0.0
N484 N 0.81433 0.18073 0.68805 0.0
N485 N 0.7365 0.15589 0.62151 0.0
H486 H 0.70631 0.58624 0.91174 0.0
H487 H 0.76663 0.71789 0.06609 0.0
H488 H 0.80623 0.75953 0.92485 0.0
H489 H 0.70635 0.54772 0.05038 0.0
H490 H 0.78862 0.73612 0.01561 0.0
H491 H 0.71083 0.57275 0.96249 0.0
C492 C 0.72962 0.62163 0.9253 0.0
C493 C 0.75566 0.67422 0.91384 0.0
C494 C 0.7721 0.69498 0.02326 0.0
C495 C 0.7605 0.65888 0.97275 0.0
C496 C 0.76029 0.68473 0.05215 0.0
C497 C 0.73567 0.63136 0.06251 0.0
C498 C 0.75808 0.65128 0.00435 0.0
C499 C 0.72637 0.5895 0.04338 0.0
C500 C 0.73234 0.6138 0.95441 0.0
C501 C 0.78558 0.71828 0.93265 0.0
N502 N 0.73667 0.60016 0.01525 0.0
N503 N 0.78649 0.7097 0.9612 0.0
H504 H 0.15756 0.53056 0.25502 0.0
H505 H 0.22701 0.73529 0.38676 0.0
H506 H 0.20965 0.70074 0.24453 0.0
H507 H 0.24131 0.59175 0.39198 0.0
H508 H 0.20059 0.71475 0.33641 0.0
H509 H 0.17021 0.54516 0.30629 0.0
C510 C 0.17134 0.57108 0.26342 0.0
C511 C 0.18262 0.61455 0.24511 0.0
C512 C 0.20863 0.68721 0.34862 0.0
C513 C 0.19663 0.63122 0.30445 0.0
C514 C 0.22302 0.69853 0.37741 0.0
C515 C 0.23642 0.66519 0.39355 0.0
C516 C 0.2066 0.64152 0.33578 0.0
C517 C 0.23088 0.6182 0.3804 0.0
C518 C 0.17868 0.57928 0.29282 0.0
C519 C 0.20061 0.66602 0.25761 0.0
N520 N 0.21673 0.60792 0.35227 0.0
N521 N 0.20681 0.67284 0.28643 0.0
loop_
_geom_bond_atom_site_label_1
_geom_bond_atom_site_label_2
_geom_bond_distance
_geom_bond_site_symmetry_2
_ccdc_geom_bond_type
Eu0 C9 2.828 . S
Eu0 O11 2.392 1_655 S
Eu0 O13 2.418 . S
Eu0 O18 2.373 . S
Eu0 O21 2.488 . S
Eu0 O22 2.471 . S
Eu0 O23 2.349 . S
Eu1 O10 2.373 . S
Eu1 O14 2.488 . S
Eu1 O15 2.471 . S
Eu1 O16 2.349 . S
Eu1 O19 2.392 1_455 S
Eu1 O20 2.418 . S
Eu1 C30 2.828 . S
C2 O20 1.244 . S
C2 O23 1.265 1_455 S
C3 C4 1.379 . S
C3 C7 1.373 . S
C3 C9 1.505 . S
C4 C3 1.379 . S
C4 C6 1.369 . S
C4 H32 0.930 . S
C5 C7 1.383 . S
C5 C8 1.382 . S
C5 H33 0.930 . S
C6 C4 1.369 . S
C6 C8 1.392 . S
C6 H34 0.930 . S
C7 C3 1.373 . S
C7 C5 1.383 . S
C7 H35 0.931 . S
C8 C5 1.382 . S
C8 C6 1.392 . S
C9 Eu0 2.828 . S
C9 C3 1.505 . S
C9 O21 1.249 . S
C9 O22 1.244 . S
O10 Eu1 2.373 . S
O10 C12 1.258 . S
O11 Eu0 2.392 1_455 S
O11 C12 1.242 . S
C12 O10 1.258 . S
C12 O11 1.242 . S
O13 Eu0 2.418 . S
O13 C17 1.244 . S
O14 Eu1 2.488 . S
O14 C30 1.249 . S
O15 Eu1 2.471 . S
O15 C30 1.244 . S
O16 Eu1 2.349 . S
O16 C17 1.265 1_455 S
C17 O13 1.244 . S
C17 O16 1.265 1_655 S
O18 Eu0 2.373 . S
O18 C31 1.258 . S
O19 Eu1 2.392 1_655 S
O19 C31 1.242 . S
O20 Eu1 2.418 . S
O20 C2 1.244 . S
O21 Eu0 2.488 . S
O21 C9 1.249 . S
O22 Eu0 2.471 . S
O22 C9 1.244 . S
O23 Eu0 2.349 . S
O23 C2 1.265 1_655 S
C24 C25 1.379 . S
C24 C28 1.373 . S
C24 C30 1.505 . S
C25 C24 1.379 . S
C25 C27 1.369 . S
C25 H36 0.930 . S
C26 C28 1.383 . S
C26 C29 1.382 . S
C26 H37 0.930 . S
C27 C25 1.369 . S
C27 C29 1.392 . S
C27 H38 0.930 . S
C28 C24 1.373 . S
C28 C26 1.383 . S
C28 H39 0.931 . S
C29 C26 1.382 . S
C29 C27 1.392 . S
C30 Eu1 2.828 . S
C30 O14 1.249 . S
C30 O15 1.244 . S
C30 C24 1.505 . S
C31 O18 1.258 . S
C31 O19 1.242 . S
H32 C4 0.930 . S
H33 C5 0.930 . S
H34 C6 0.930 . S
H35 C7 0.931 . S
H36 C25 0.930 . S
H37 C26 0.930 . S
H38 C27 0.930 . S
H39 C28 0.931 . S
Eu40 C49 2.828 . S
Eu40 O51 2.392 1_565 S
Eu40 O53 2.422 . S
Eu40 O58 2.373 . S
Eu40 O61 2.488 . S
Eu40 O62 2.471 . S
Eu40 O63 2.349 1_565 S
Eu41 O50 2.373 . S
Eu41 O54 2.488 . S
Eu41 O55 2.471 . S
Eu41 O56 2.349 . S
Eu41 O59 2.392 1_545 S
Eu41 O60 2.418 . S
Eu41 C70 2.828 . S
C42 O60 1.244 . S
C42 O63 1.265 . S
C43 C44 1.379 . S
C43 C47 1.373 . S
C43 C49 1.505 . S
C44 C43 1.379 . S
C44 C46 1.369 . S
C44 H72 0.930 . S
C45 C47 1.383 . S
C45 C48 1.382 . S
C45 H73 0.930 . S
C46 C44 1.369 . S
C46 C48 1.392 . S
C46 H74 0.930 . S
C47 C43 1.373 . S
C47 C45 1.383 . S
C47 H75 0.931 . S
C48 C45 1.382 . S
C48 C46 1.392 . S
C49 Eu40 2.828 . S
C49 C43 1.505 . S
C49 O61 1.249 . S
C49 O62 1.244 . S
O50 Eu41 2.373 . S
O50 C52 1.258 . S
O51 Eu40 2.392 1_545 S
O51 C52 1.242 . S
C52 O50 1.258 . S
C52 O51 1.242 . S
O53 Eu40 2.422 . S
O53 C57 1.222 1_565 S
O54 Eu41 2.488 . S
O54 C70 1.249 . S
O55 Eu41 2.471 . S
O55 C70 1.244 . S
O56 Eu41 2.349 . S
O56 C57 1.265 . S
C57 O53 1.222 1_545 S
C57 O56 1.265 . S
O58 Eu40 2.373 . S
O58 C71 1.258 . S
O59 Eu41 2.392 1_565 S
O59 C71 1.242 . S
O60 Eu41 2.418 . S
O60 C42 1.244 . S
O61 Eu40 2.488 . S
O61 C49 1.249 . S
O62 Eu40 2.471 . S
O62 C49 1.244 . S
O63 Eu40 2.349 1_545 S
O63 C42 1.265 . S
C64 C65 1.379 . S
C64 C68 1.373 . S
C64 C70 1.505 . S
C65 C64 1.379 . S
C65 C67 1.369 . S
C65 H76 0.930 . S
C66 C68 1.383 . S
C66 C69 1.382 . S
C66 H77 0.930 . S
C67 C65 1.369 . S
C67 C69 1.392 . S
C67 H78 0.930 . S
C68 C64 1.373 . S
C68 C66 1.383 . S
C68 H79 0.931 . S
C69 C66 1.382 . S
C69 C67 1.392 . S
C70 Eu41 2.828 . S
C70 O54 1.249 . S
C70 O55 1.244 . S
C70 C64 1.505 . S
C71 O58 1.258 . S
C71 O59 1.242 . S
H72 C44 0.930 . S
H73 C45 0.930 . S
H74 C46 0.930 . S
H75 C47 0.931 . S
H76 C65 0.930 . S
H77 C66 0.930 . S
H78 C67 0.930 . S
H79 C68 0.931 . S
Eu80 C89 2.828 . S
Eu80 O91 2.392 . S
Eu80 O93 2.418 . S
Eu80 O98 2.373 . S
Eu80 O101 2.488 . S
Eu80 O102 2.471 . S
Eu80 O103 2.349 . S
Eu81 O90 2.373 . S
Eu81 O94 2.488 . S
Eu81 O95 2.471 . S
Eu81 O96 2.349 . S
Eu81 O99 2.392 . S
Eu81 O100 2.418 . S
Eu81 C110 2.828 . S
C82 O100 1.244 . S
C82 O103 1.265 . S
C83 C84 1.379 . S
C83 C87 1.373 . S
C83 C89 1.505 . S
C84 C83 1.379 . S
C84 C86 1.369 . S
C84 H112 0.930 . S
C85 C87 1.383 . S
C85 C88 1.382 . S
C85 H113 0.930 . S
C86 C84 1.369 . S
C86 C88 1.392 . S
C86 H114 0.930 . S
C87 C83 1.373 . S
C87 C85 1.383 . S
C87 H115 0.931 . S
C88 C85 1.382 . S
C88 C86 1.392 . S
C89 Eu80 2.828 . S
C89 C83 1.505 . S
C89 O101 1.249 . S
C89 O102 1.244 . S
O90 Eu81 2.373 . S
O90 C92 1.258 . S
O91 Eu80 2.392 . S
O91 C92 1.242 . S
C92 O90 1.258 . S
C92 O91 1.242 . S
O93 Eu80 2.418 . S
O93 C97 1.244 . S
O94 Eu81 2.488 . S
O94 C110 1.249 . S
O95 Eu81 2.471 . S
O95 C110 1.244 . S
O96 Eu81 2.349 . S
O96 C97 1.265 . S
C97 O93 1.244 . S
C97 O96 1.265 . S
O98 Eu80 2.373 . S
O98 C111 1.258 . S
O99 Eu81 2.392 . S
O99 C111 1.242 . S
O100 Eu81 2.418 . S
O100 C82 1.244 . S
O101 Eu80 2.488 . S
O101 C89 1.249 . S
O102 Eu80 2.471 . S
O102 C89 1.244 . S
O103 Eu80 2.349 . S
O103 C82 1.265 . S
C104 C105 1.379 . S
C104 C108 1.373 . S
C104 C110 1.505 . S
C105 C104 1.379 . S
C105 C107 1.369 . S
C105 H116 0.930 . S
C106 C108 1.383 . S
C106 C109 1.382 . S
C106 H117 0.930 . S
C107 C105 1.369 . S
C107 C109 1.392 . S
C107 H118 0.930 . S
C108 C104 1.373 . S
C108 C106 1.383 . S
C108 H119 0.931 . S
C109 C106 1.382 . S
C109 C107 1.392 . S
C110 Eu81 2.828 . S
C110 O94 1.249 . S
C110 O95 1.244 . S
C110 C104 1.505 . S
C111 O98 1.258 . S
C111 O99 1.242 . S
H112 C84 0.930 . S
H113 C85 0.930 . S
H114 C86 0.930 . S
H115 C87 0.931 . S
H116 C105 0.930 . S
H117 C106 0.930 . S
H118 C107 0.930 . S
H119 C108 0.931 . S
C120 N121 1.317 . S
C120 N122 1.348 1_545 S
C120 C123 1.485 . S
N121 C120 1.317 . S
N121 N125 1.370 . S
N122 C120 1.348 1_565 S
N122 C124 1.346 . S
C123 C120 1.485 . S
C123 H127 0.960 . S
C123 H128 0.961 1_545 S
C123 H129 0.960 . S
C124 N122 1.346 . S
C124 N125 1.307 1_565 S
C124 C126 1.486 . S
N125 N121 1.370 . S
N125 C124 1.307 1_545 S
C126 C124 1.486 . S
C126 H130 0.960 . S
C126 H131 0.960 . S
C126 H132 0.959 . S
H127 C123 0.960 . S
H128 C123 0.961 1_565 S
H129 C123 0.960 . S
H130 C126 0.960 . S
H131 C126 0.960 . S
H132 C126 0.959 . S
C133 N134 1.317 . S
C133 N135 1.348 . S
C133 C136 1.485 . S
N134 C133 1.317 . S
N134 N138 1.370 . S
N135 C133 1.348 . S
N135 C137 1.346 . S
C136 C133 1.485 . S
C136 H140 0.960 . S
C136 H141 0.961 . S
C136 H142 0.960 . S
C137 N135 1.346 . S
C137 N138 1.307 . S
C137 C139 1.486 . S
N138 N134 1.370 . S
N138 C137 1.307 . S
C139 C137 1.486 . S
C139 H143 0.960 . S
C139 H144 0.960 . S
C139 H145 0.959 . S
H140 C136 0.960 . S
H141 C136 0.961 . S
H142 C136 0.960 . S
H143 C139 0.960 . S
H144 C139 0.960 . S
H145 C139 0.959 . S
C146 N147 1.317 . S
C146 N148 1.348 1_455 S
C146 C149 1.485 . S
N147 C146 1.317 . S
N147 N151 1.370 . S
N148 C146 1.348 1_655 S
N148 C150 1.346 . S
C149 C146 1.485 . S
C149 H153 0.960 . S
C149 H154 0.961 . S
C149 H155 0.960 . S
C150 N148 1.346 . S
C150 N151 1.307 1_655 S
C150 C152 1.486 . S
N151 N147 1.370 . S
N151 C150 1.307 1_455 S
C152 C150 1.486 . S
C152 H156 0.960 . S
C152 H157 0.960 . S
C152 H158 0.959 . S
H153 C149 0.960 . S
H154 C149 0.961 . S
H155 C149 0.960 . S
H156 C152 0.960 . S
H157 C152 0.960 . S
H158 C152 0.959 . S
C159 N160 1.317 . S
C159 N161 1.348 . S
C159 C162 1.485 . S
N160 C159 1.317 . S
N160 N164 1.370 . S
N161 C159 1.348 . S
N161 C163 1.346 . S
C162 C159 1.485 . S
C162 H166 0.960 . S
C162 H167 0.961 . S
C162 H168 0.960 . S
C163 N161 1.346 . S
C163 N164 1.307 . S
C163 C165 1.486 . S
N164 N160 1.370 . S
N164 C163 1.307 . S
C165 C163 1.486 . S
C165 H169 0.960 . S
C165 H170 0.960 . S
C165 H171 0.959 . S
H166 C162 0.960 . S
H167 C162 0.961 . S
H168 C162 0.960 . S
H169 C165 0.960 . S
H170 C165 0.960 . S
H171 C165 0.959 . S
C172 N173 1.317 . S
C172 N174 1.348 . S
C172 C175 1.485 . S
N173 C172 1.317 . S
N173 N177 1.370 . S
N174 C172 1.348 . S
N174 C176 1.346 . S
C175 C172 1.485 . S
C175 H179 0.960 . S
C175 H180 0.961 . S
C175 H181 0.960 . S
C176 N174 1.346 . S
C176 N177 1.307 . S
C176 C178 1.486 . S
N177 N173 1.370 . S
N177 C176 1.307 . S
C178 C176 1.486 . S
C178 H182 0.960 . S
C178 H183 0.960 . S
C178 H184 0.959 . S
H179 C175 0.960 . S
H180 C175 0.961 . S
H181 C175 0.960 . S
H182 C178 0.960 . S
H183 C178 0.960 . S
H184 C178 0.959 . S
C185 N186 1.317 . S
C185 N187 1.348 . S
C185 C188 1.485 . S
N186 C185 1.317 . S
N186 N190 1.370 . S
N187 C185 1.348 . S
N187 C189 1.346 . S
C188 C185 1.485 . S
C188 H192 0.960 . S
C188 H193 0.961 . S
C188 H194 0.960 . S
C189 N187 1.346 . S
C189 N190 1.307 . S
C189 C191 1.486 . S
N190 N186 1.370 . S
N190 C189 1.307 . S
C191 C189 1.486 . S
C191 H195 0.960 . S
C191 H196 0.960 . S
C191 H197 0.959 . S
H192 C188 0.960 . S
H193 C188 0.961 . S
H194 C188 0.960 . S
H195 C191 0.960 . S
H196 C191 0.960 . S
H197 C191 0.959 . S
H198 C204 0.930 . S
H199 C208 0.930 . S
H200 C213 0.929 . S
H201 C211 0.929 . S
H202 C206 0.929 . S
H203 C212 0.929 . S
C204 H198 0.930 . S
C204 C205 1.367 . S
C204 C212 1.378 . S
C205 C204 1.367 . S
C205 C213 1.433 . S
C206 H202 0.929 . S
C206 C208 1.378 . S
C206 C210 1.350 . S
C207 C210 1.463 . S
C207 C212 1.350 . S
C207 N215 1.427 . S
C208 H199 0.930 . S
C208 C206 1.378 . S
C208 C209 1.367 . S
C209 C208 1.367 . S
C209 C211 1.433 . S
C210 C206 1.350 . S
C210 C207 1.463 . S
C210 N214 1.427 . S
C211 H201 0.929 . S
C211 C209 1.433 . S
C211 N214 1.384 . S
C212 H203 0.929 . S
C212 C204 1.378 . S
C212 C207 1.350 . S
C213 H200 0.929 . S
C213 C205 1.433 . S
C213 N215 1.384 . S
N214 C210 1.427 . S
N214 C211 1.384 . S
N215 C207 1.427 . S
N215 C213 1.384 . S
H216 C222 0.930 . S
H217 C226 0.930 . S
H218 C231 0.929 . S
H219 C229 0.929 . S
H220 C224 0.929 . S
H221 C230 0.929 . S
C222 H216 0.930 . S
C222 C223 1.367 . S
C222 C230 1.378 . S
C223 C222 1.367 . S
C223 C231 1.433 . S
C224 H220 0.929 . S
C224 C226 1.378 . S
C224 C228 1.350 . S
C225 C228 1.463 . S
C225 C230 1.350 . S
C225 N233 1.427 . S
C226 H217 0.930 . S
C226 C224 1.378 . S
C226 C227 1.367 . S
C227 C226 1.367 . S
C227 C229 1.433 . S
C228 C224 1.350 . S
C228 C225 1.463 . S
C228 N232 1.427 . S
C229 H219 0.929 . S
C229 C227 1.433 . S
C229 N232 1.384 . S
C230 H221 0.929 . S
C230 C222 1.378 . S
C230 C225 1.350 . S
C231 H218 0.929 . S
C231 C223 1.433 . S
C231 N233 1.384 . S
N232 C228 1.427 . S
N232 C229 1.384 . S
N233 C225 1.427 . S
N233 C231 1.384 . S
H234 C240 0.930 . S
H235 C244 0.930 . S
H236 C249 0.929 . S
H237 C247 0.929 . S
H238 C242 0.929 . S
H239 C248 0.929 . S
C240 H234 0.930 . S
C240 C241 1.367 . S
C240 C248 1.378 . S
C241 C240 1.367 . S
C241 C249 1.433 . S
C242 H238 0.929 . S
C242 C244 1.378 . S
C242 C246 1.350 . S
C243 C246 1.463 . S
C243 C248 1.350 . S
C243 N251 1.427 . S
C244 H235 0.930 . S
C244 C242 1.378 . S
C244 C245 1.367 . S
C245 C244 1.367 . S
C245 C247 1.433 . S
C246 C242 1.350 . S
C246 C243 1.463 . S
C246 N250 1.427 . S
C247 H237 0.929 . S
C247 C245 1.433 . S
C247 N250 1.384 . S
C248 H239 0.929 . S
C248 C240 1.378 . S
C248 C243 1.350 . S
C249 H236 0.929 . S
C249 C241 1.433 . S
C249 N251 1.384 . S
N250 C246 1.427 . S
N250 C247 1.384 . S
N251 C243 1.427 . S
N251 C249 1.384 . S
H252 C258 0.930 . S
H253 C262 0.930 . S
H254 C267 0.929 . S
H255 C265 0.929 . S
H256 C260 0.929 . S
H257 C266 0.929 . S
C258 H252 0.930 . S
C258 C259 1.367 . S
C258 C266 1.378 . S
C259 C258 1.367 . S
C259 C267 1.433 . S
C260 H256 0.929 . S
C260 C262 1.378 . S
C260 C264 1.350 . S
C261 C264 1.463 . S
C261 C266 1.350 . S
C261 N269 1.427 . S
C262 H253 0.930 . S
C262 C260 1.378 . S
C262 C263 1.367 . S
C263 C262 1.367 . S
C263 C265 1.433 . S
C264 C260 1.350 . S
C264 C261 1.463 . S
C264 N268 1.427 . S
C265 H255 0.929 . S
C265 C263 1.433 . S
C265 N268 1.384 . S
C266 H257 0.929 . S
C266 C258 1.378 . S
C266 C261 1.350 . S
C267 H254 0.929 . S
C267 C259 1.433 . S
C267 N269 1.384 . S
N268 C264 1.427 . S
N268 C265 1.384 . S
N269 C261 1.427 . S
N269 C267 1.384 . S
H270 C276 0.930 . S
H271 C280 0.930 . S
H272 C285 0.929 . S
H273 C283 0.929 . S
H274 C278 0.929 . S
H275 C284 0.929 . S
C276 H270 0.930 . S
C276 C277 1.367 . S
C276 C284 1.378 . S
C277 C276 1.367 . S
C277 C285 1.433 . S
C278 H274 0.929 . S
C278 C280 1.378 . S
C278 C282 1.350 . S
C279 C282 1.463 . S
C279 C284 1.350 . S
C279 N287 1.427 . S
C280 H271 0.930 . S
C280 C278 1.378 . S
C280 C281 1.367 . S
C281 C280 1.367 . S
C281 C283 1.433 . S
C282 C278 1.350 . S
C282 C279 1.463 . S
C282 N286 1.427 . S
C283 H273 0.929 . S
C283 C281 1.433 . S
C283 N286 1.384 . S
C284 H275 0.929 . S
C284 C276 1.378 . S
C284 C279 1.350 . S
C285 H272 0.929 . S
C285 C277 1.433 . S
C285 N287 1.384 . S
N286 C282 1.427 . S
N286 C283 1.384 . S
N287 C279 1.427 . S
N287 C285 1.384 . S
H288 C294 0.930 . S
H289 C298 0.930 . S
H290 C303 0.929 . S
H291 C301 0.929 . S
H292 C296 0.929 . S
H293 C302 0.929 . S
C294 H288 0.930 . S
C294 C295 1.367 . S
C294 C302 1.378 . S
C295 C294 1.367 . S
C295 C303 1.433 . S
C296 H292 0.929 . S
C296 C298 1.378 . S
C296 C300 1.350 . S
C297 C300 1.463 . S
C297 C302 1.350 . S
C297 N305 1.427 . S
C298 H289 0.930 . S
C298 C296 1.378 . S
C298 C299 1.367 . S
C299 C298 1.367 . S
C299 C301 1.433 . S
C300 C296 1.350 . S
C300 C297 1.463 . S
C300 N304 1.427 . S
C301 H291 0.929 . S
C301 C299 1.433 . S
C301 N304 1.384 . S
C302 H293 0.929 . S
C302 C294 1.378 . S
C302 C297 1.350 . S
C303 H290 0.929 . S
C303 C295 1.433 . S
C303 N305 1.384 . S
N304 C300 1.427 . S
N304 C301 1.384 . S
N305 C297 1.427 . S
N305 C303 1.384 . S
H306 C312 0.930 . S
H307 C316 0.930 . S
H308 C321 0.929 . S
H309 C319 0.929 . S
H310 C314 0.929 . S
H311 C320 0.929 . S
C312 H306 0.930 . S
C312 C313 1.367 . S
C312 C320 1.378 . S
C313 C312 1.367 . S
C313 C321 1.433 . S
C314 H310 0.929 . S
C314 C316 1.378 . S
C314 C318 1.350 . S
C315 C318 1.463 . S
C315 C320 1.350 . S
C315 N323 1.427 . S
C316 H307 0.930 . S
C316 C314 1.378 . S
C316 C317 1.367 . S
C317 C316 1.367 . S
C317 C319 1.433 . S
C318 C314 1.350 . S
C318 C315 1.463 . S
C318 N322 1.427 . S
C319 H309 0.929 . S
C319 C317 1.433 . S
C319 N322 1.384 . S
C320 H311 0.929 . S
C320 C312 1.378 . S
C320 C315 1.350 . S
C321 H308 0.929 . S
C321 C313 1.433 . S
C321 N323 1.384 . S
N322 C318 1.427 . S
N322 C319 1.384 . S
N323 C315 1.427 . S
N323 C321 1.384 . S
H324 C330 0.930 . S
H325 C334 0.930 . S
H326 C339 0.929 . S
H327 C337 0.929 . S
H328 C332 0.929 . S
H329 C338 0.929 . S
C330 H324 0.930 . S
C330 C331 1.367 . S
C330 C338 1.378 . S
C331 C330 1.367 . S
C331 C339 1.433 . S
C332 H328 0.929 . S
C332 C334 1.378 . S
C332 C336 1.350 . S
C333 C336 1.463 . S
C333 C338 1.350 . S
C333 N341 1.427 . S
C334 H325 0.930 . S
C334 C332 1.378 . S
C334 C335 1.367 . S
C335 C334 1.367 . S
C335 C337 1.433 . S
C336 C332 1.350 . S
C336 C333 1.463 . S
C336 N340 1.427 . S
C337 H327 0.929 . S
C337 C335 1.433 . S
C337 N340 1.384 . S
C338 H329 0.929 . S
C338 C330 1.378 . S
C338 C333 1.350 . S
C339 H326 0.929 . S
C339 C331 1.433 . S
C339 N341 1.384 . S
N340 C336 1.427 . S
N340 C337 1.384 . S
N341 C333 1.427 . S
N341 C339 1.384 . S
H342 C348 0.930 . S
H343 C352 0.930 . S
H344 C357 0.929 . S
H345 C355 0.929 . S
H346 C350 0.929 . S
H347 C356 0.929 . S
C348 H342 0.930 . S
C348 C349 1.367 . S
C348 C356 1.378 . S
C349 C348 1.367 . S
C349 C357 1.433 . S
C350 H346 0.929 . S
C350 C352 1.378 . S
C350 C354 1.350 . S
C351 C354 1.463 . S
C351 C356 1.350 . S
C351 N359 1.427 . S
C352 H343 0.930 . S
C352 C350 1.378 . S
C352 C353 1.367 . S
C353 C352 1.367 . S
C353 C355 1.433 . S
C354 C350 1.350 . S
C354 C351 1.463 . S
C354 N358 1.427 . S
C355 H345 0.929 . S
C355 C353 1.433 . S
C355 N358 1.384 . S
C356 H347 0.929 . S
C356 C348 1.378 . S
C356 C351 1.350 . S
C357 H344 0.929 . S
C357 C349 1.433 . S
C357 N359 1.384 . S
N358 C354 1.427 . S
N358 C355 1.384 . S
N359 C351 1.427 . S
N359 C357 1.384 . S
H360 C366 0.930 . S
H361 C370 0.930 . S
H362 C375 0.929 . S
H363 C373 0.929 . S
H364 C368 0.929 . S
H365 C374 0.929 . S
C366 H360 0.930 . S
C366 C367 1.367 . S
C366 C374 1.378 . S
C367 C366 1.367 . S
C367 C375 1.433 . S
C368 H364 0.929 . S
C368 C370 1.378 . S
C368 C372 1.350 . S
C369 C372 1.463 . S
C369 C374 1.350 . S
C369 N377 1.427 . S
C370 H361 0.930 . S
C370 C368 1.378 . S
C370 C371 1.367 . S
C371 C370 1.367 . S
C371 C373 1.433 . S
C372 C368 1.350 . S
C372 C369 1.463 . S
C372 N376 1.427 . S
C373 H363 0.929 . S
C373 C371 1.433 . S
C373 N376 1.384 . S
C374 H365 0.929 . S
C374 C366 1.378 . S
C374 C369 1.350 . S
C375 H362 0.929 . S
C375 C367 1.433 . S
C375 N377 1.384 . S
N376 C372 1.427 . S
N376 C373 1.384 . S
N377 C369 1.427 . S
N377 C375 1.384 . S
H378 C384 0.930 . S
H379 C388 0.930 . S
H380 C393 0.929 . S
H381 C391 0.929 . S
H382 C386 0.929 . S
H383 C392 0.929 . S
C384 H378 0.930 . S
C384 C385 1.367 . S
C384 C392 1.378 . S
C385 C384 1.367 . S
C385 C393 1.433 . S
C386 H382 0.929 . S
C386 C388 1.378 . S
C386 C390 1.350 . S
C387 C390 1.463 . S
C387 C392 1.350 . S
C387 N395 1.427 . S
C388 H379 0.930 . S
C388 C386 1.378 . S
C388 C389 1.367 . S
C389 C388 1.367 . S
C389 C391 1.433 . S
C390 C386 1.350 . S
C390 C387 1.463 . S
C390 N394 1.427 . S
C391 H381 0.929 . S
C391 C389 1.433 . S
C391 N394 1.384 . S
C392 H383 0.929 . S
C392 C384 1.378 . S
C392 C387 1.350 . S
C393 H380 0.929 . S
C393 C385 1.433 . S
C393 N395 1.384 . S
N394 C390 1.427 . S
N394 C391 1.384 . S
N395 C387 1.427 . S
N395 C393 1.384 . S
H396 C402 0.930 . S
H397 C406 0.930 . S
H398 C411 0.929 . S
H399 C409 0.929 . S
H400 C404 0.929 . S
H401 C410 0.929 . S
C402 H396 0.930 . S
C402 C403 1.367 . S
C402 C410 1.378 . S
C403 C402 1.367 . S
C403 C411 1.433 . S
C404 H400 0.929 . S
C404 C406 1.378 . S
C404 C408 1.350 . S
C405 C408 1.463 . S
C405 C410 1.350 . S
C405 N413 1.427 . S
C406 H397 0.930 . S
C406 C404 1.378 . S
C406 C407 1.367 . S
C407 C406 1.367 . S
C407 C409 1.433 . S
C408 C404 1.350 . S
C408 C405 1.463 . S
C408 N412 1.427 . S
C409 H399 0.929 . S
C409 C407 1.433 . S
C409 N412 1.384 . S
C410 H401 0.929 . S
C410 C402 1.378 . S
C410 C405 1.350 . S
C411 H398 0.929 . S
C411 C403 1.433 . S
C411 N413 1.384 . S
N412 C408 1.427 . S
N412 C409 1.384 . S
N413 C405 1.427 . S
N413 C411 1.384 . S
H414 C420 0.930 . S
H415 C424 0.930 . S
H416 C429 0.929 . S
H417 C427 0.929 . S
H418 C422 0.929 . S
H419 C428 0.929 . S
C420 H414 0.930 . S
C420 C421 1.367 1_655 S
C420 C428 1.378 . S
C421 C420 1.367 1_455 S
C421 C429 1.433 . S
C422 H418 0.929 . S
C422 C424 1.378 . S
C422 C426 1.350 . S
C423 C426 1.463 1_554 S
C423 C428 1.350 1_455 S
C423 N431 1.427 . S
C424 H415 0.930 . S
C424 C422 1.378 . S
C424 C425 1.367 . S
C425 C424 1.367 . S
C425 C427 1.433 . S
C426 C422 1.350 . S
C426 C423 1.463 1_556 S
C426 N430 1.427 . S
C427 H417 0.929 . S
C427 C425 1.433 . S
C427 N430 1.384 . S
C428 H419 0.929 . S
C428 C420 1.378 . S
C428 C423 1.350 1_655 S
C429 H416 0.929 . S
C429 C421 1.433 . S
C429 N431 1.384 . S
N430 C426 1.427 . S
N430 C427 1.384 . S
N431 C423 1.427 . S
N431 C429 1.384 . S
H432 C438 0.930 . S
H433 C442 0.930 . S
H434 C447 0.929 . S
H435 C445 0.929 . S
H436 C440 0.929 . S
H437 C446 0.929 . S
C438 H432 0.930 . S
C438 C439 1.367 . S
C438 C446 1.378 . S
C439 C438 1.367 . S
C439 C447 1.433 . S
C440 H436 0.929 . S
C440 C442 1.378 . S
C440 C444 1.350 . S
C441 C444 1.463 . S
C441 C446 1.350 . S
C441 N449 1.427 . S
C442 H433 0.930 . S
C442 C440 1.378 . S
C442 C443 1.367 . S
C443 C442 1.367 . S
C443 C445 1.433 . S
C444 C440 1.350 . S
C444 C441 1.463 . S
C444 N448 1.427 . S
C445 H435 0.929 . S
C445 C443 1.433 . S
C445 N448 1.384 . S
C446 H437 0.929 . S
C446 C438 1.378 . S
C446 C441 1.350 . S
C447 H434 0.929 . S
C447 C439 1.433 . S
C447 N449 1.384 . S
N448 C444 1.427 . S
N448 C445 1.384 . S
N449 C441 1.427 . S
N449 C447 1.384 . S
H450 C456 0.930 . S
H451 C460 0.930 . S
H452 C465 0.929 . S
H453 C463 0.929 . S
H454 C458 0.929 . S
H455 C464 0.929 . S
C456 H450 0.930 . S
C456 C457 1.367 . S
C456 C464 1.378 . S
C457 C456 1.367 . S
C457 C465 1.433 . S
C458 H454 0.929 . S
C458 C460 1.378 . S
C458 C462 1.350 . S
C459 C462 1.463 . S
C459 C464 1.350 . S
C459 N467 1.427 . S
C460 H451 0.930 . S
C460 C458 1.378 . S
C460 C461 1.367 . S
C461 C460 1.367 . S
C461 C463 1.433 . S
C462 C458 1.350 . S
C462 C459 1.463 . S
C462 N466 1.427 . S
C463 H453 0.929 . S
C463 C461 1.433 . S
C463 N466 1.384 . S
C464 H455 0.929 . S
C464 C456 1.378 . S
C464 C459 1.350 . S
C465 H452 0.929 . S
C465 C457 1.433 . S
C465 N467 1.384 . S
N466 C462 1.427 . S
N466 C463 1.384 . S
N467 C459 1.427 . S
N467 C465 1.384 . S
H468 C474 0.930 . S
H469 C478 0.930 . S
H470 C483 0.929 . S
H471 C481 0.929 . S
H472 C476 0.929 . S
H473 C482 0.929 . S
C474 H468 0.930 . S
C474 C475 1.367 . S
C474 C482 1.378 . S
C475 C474 1.367 . S
C475 C483 1.433 . S
C476 H472 0.929 . S
C476 C478 1.378 . S
C476 C480 1.350 . S
C477 C480 1.463 . S
C477 C482 1.350 . S
C477 N485 1.427 . S
C478 H469 0.930 . S
C478 C476 1.378 . S
C478 C479 1.367 . S
C479 C478 1.367 . S
C479 C481 1.433 . S
C480 C476 1.350 . S
C480 C477 1.463 . S
C480 N484 1.427 . S
C481 H471 0.929 . S
C481 C479 1.433 . S
C481 N484 1.384 . S
C482 H473 0.929 . S
C482 C474 1.378 . S
C482 C477 1.350 . S
C483 H470 0.929 . S
C483 C475 1.433 . S
C483 N485 1.384 . S
N484 C480 1.427 . S
N484 C481 1.384 . S
N485 C477 1.427 . S
N485 C483 1.384 . S
H486 C492 0.930 . S
H487 C496 0.930 . S
H488 C501 0.929 . S
H489 C499 0.929 . S
H490 C494 0.929 . S
H491 C500 0.929 . S
C492 H486 0.930 . S
C492 C493 1.367 . S
C492 C500 1.378 . S
C493 C492 1.367 . S
C493 C501 1.433 . S
C494 H490 0.929 . S
C494 C496 1.378 . S
C494 C498 1.350 . S
C495 C498 1.463 1_556 S
C495 C500 1.350 . S
C495 N503 1.427 . S
C496 H487 0.930 . S
C496 C494 1.378 . S
C496 C497 1.367 . S
C497 C496 1.367 . S
C497 C499 1.433 . S
C498 C494 1.350 . S
C498 C495 1.463 1_554 S
C498 N502 1.427 . S
C499 H489 0.929 . S
C499 C497 1.433 . S
C499 N502 1.384 . S
C500 H491 0.929 . S
C500 C492 1.378 . S
C500 C495 1.350 . S
C501 H488 0.929 . S
C501 C493 1.433 . S
C501 N503 1.384 . S
N502 C498 1.427 . S
N502 C499 1.384 . S
N503 C495 1.427 . S
N503 C501 1.384 . S
H504 C510 0.930 . S
H505 C514 0.930 . S
H506 C519 0.914 1_655 S
H507 C517 0.929 . S
H508 C512 0.929 . S
H509 C518 0.929 . S
C510 H504 0.930 . S
C510 C511 1.367 . S
C510 C518 1.378 . S
C511 C510 1.367 . S
C511 C519 1.433 . S
C512 H508 0.929 . S
C512 C514 1.378 . S
C512 C516 1.350 . S
C513 C516 1.463 . S
C513 C518 1.350 . S
C513 N521 1.427 . S
C514 H505 0.930 . S
C514 C512 1.378 . S
C514 C515 1.367 . S
C515 C514 1.367 . S
C515 C517 1.433 . S
C516 C512 1.350 . S
C516 C513 1.463 . S
C516 N520 1.427 . S
C517 H507 0.929 . S
C517 C515 1.433 . S
C517 N520 1.384 . S
C518 H509 0.929 . S
C518 C510 1.378 . S
C518 C513 1.350 . S
C519 H506 0.914 1_455 S
C519 C511 1.433 . S
C519 N521 1.384 . S
N520 C516 1.427 . S
N520 C517 1.384 . S
N521 C513 1.427 . S
N521 C519 1.384 . S
C205 C12 2.699 . S
C209 N187 2.652 . S
C223 C52 2.864 . S
C227 N160 2.866 1_655 S
C241 C111 2.897 . S
C245 N173 2.897 1_565 S
C259 C31 3.343 . S
C263 N186 3.356 . S
C281 N161 3.108 . S
C277 C71 3.143 . S
C299 N174 3.082 . S
C295 C92 3.109 . S
C313 C48 0.296 . S
C317 N134 0.246 . S
C331 C109 0.446 . S
C335 N148 0.162 . S
C349 C29 0.602 . S
C353 N122 0.564 . S
C371 N135 0.426 . S
C367 C69 0.560 . S
C389 N147 0.542 . S
C385 C88 0.548 . S
C403 C8 0.274 . S
C407 N121 0.326 . S
C425 N151 1.216 . S
C421 C17 1.228 1_455 S
C439 C57 1.268 . S
C443 N125 1.262 . S
C457 C97 1.187 . S
C461 N138 1.222 . S
C479 N177 1.820 . S
C475 C42 1.732 . S
C497 N190 1.742 . S
C493 C82 1.726 . S
C511 C2 1.713 . S
C515 N164 1.775 . S
