# Generated by pormake.
# Topology zzz, (3,6)-cn, num edge types: 1
# Building blocks:
#     Node 0, Type 0, BuildingBlock: BELTOD_clean_linker_0, # of connection points: 3
#     Node 1, Type 0, BuildingBlock: BELTOD_clean_linker_0, # of connection points: 3
#     Node 2, Type 0, BuildingBlock: BELTOD_clean_linker_0, # of connection points: 3
#     Node 3, Type 0, BuildingBlock: BELTOD_clean_linker_0, # of connection points: 3
#     Node 4, Type 0, BuildingBlock: BELTOD_clean_linker_0, # of connection points: 3
#     Node 5, Type 0, BuildingBlock: BELTOD_clean_linker_0, # of connection points: 3
#     Node 6, Type 0, BuildingBlock: BELTOD_clean_linker_0, # of connection points: 3
#     Node 7, Type 0, BuildingBlock: BELTOD_clean_linker_0, # of connection points: 3
#     Node 8, Type 1, BuildingBlock: KUMJIN_clean_sbu_0, # of connection points: 6
#     Node 9, Type 1, BuildingBlock: KUMJIN_clean_sbu_0, # of connection points: 6
#     Node 10, Type 1, BuildingBlock: KUMJIN_clean_sbu_0, # of connection points: 6
#     Node 11, Type 1, BuildingBlock: KUMJIN_clean_sbu_0, # of connection points: 6
#     Edge 12, Type (0, 1), BuildingBlock: UVAHIK_clean_linker_0, # of connection points: 2
#     Edge 13, Type (0, 1), BuildingBlock: UVAHIK_clean_linker_0, # of connection points: 2
#     Edge 14, Type (0, 1), BuildingBlock: UVAHIK_clean_linker_0, # of connection points: 2
#     Edge 15, Type (0, 1), BuildingBlock: UVAHIK_clean_linker_0, # of connection points: 2
#     Edge 16, Type (0, 1), BuildingBlock: UVAHIK_clean_linker_0, # of connection points: 2
#     Edge 17, Type (0, 1), BuildingBlock: UVAHIK_clean_linker_0, # of connection points: 2
#     Edge 18, Type (0, 1), BuildingBlock: UVAHIK_clean_linker_0, # of connection points: 2
#     Edge 19, Type (0, 1), BuildingBlock: UVAHIK_clean_linker_0, # of connection points: 2
#     Edge 20, Type (0, 1), BuildingBlock: UVAHIK_clean_linker_0, # of connection points: 2
#     Edge 21, Type (0, 1), BuildingBlock: UVAHIK_clean_linker_0, # of connection points: 2
#     Edge 22, Type (0, 1), BuildingBlock: UVAHIK_clean_linker_0, # of connection points: 2
#     Edge 23, Type (0, 1), BuildingBlock: UVAHIK_clean_linker_0, # of connection points: 2
#     Edge 24, Type (0, 1), BuildingBlock: UVAHIK_clean_linker_0, # of connection points: 2
#     Edge 25, Type (0, 1), BuildingBlock: UVAHIK_clean_linker_0, # of connection points: 2
#     Edge 26, Type (0, 1), BuildingBlock: UVAHIK_clean_linker_0, # of connection points: 2
#     Edge 27, Type (0, 1), BuildingBlock: UVAHIK_clean_linker_0, # of connection points: 2
#     Edge 28, Type (0, 1), BuildingBlock: UVAHIK_clean_linker_0, # of connection points: 2
#     Edge 29, Type (0, 1), BuildingBlock: UVAHIK_clean_linker_0, # of connection points: 2
#     Edge 30, Type (0, 1), BuildingBlock: UVAHIK_clean_linker_0, # of connection points: 2
#     Edge 31, Type (0, 1), BuildingBlock: UVAHIK_clean_linker_0, # of connection points: 2
#     Edge 32, Type (0, 1), BuildingBlock: UVAHIK_clean_linker_0, # of connection points: 2
#     Edge 33, Type (0, 1), BuildingBlock: UVAHIK_clean_linker_0, # of connection points: 2
#     Edge 34, Type (0, 1), BuildingBlock: UVAHIK_clean_linker_0, # of connection points: 2
#     Edge 35, Type (0, 1), BuildingBlock: UVAHIK_clean_linker_0, # of connection points: 2
# Relax obj value: 0.262
# Max RMSD: 0.213
# Mean RMSD: 0.200
data_MOF--net-zzz--node1-KUMJIN_clean_sbu_0--node2-BELTOD_clean_linker_0--edge1-UVAHIK_clean_linker_0
_symmetry_space_group_name_H-M    P1
_symmetry_Int_Tables_number       1
_symmetry_cell_setting            triclinic
loop_
_symmetry_equiv_pos_as_xyz
'x, y, z'
_cell_length_a     67.649454
_cell_length_b     67.565175
_cell_length_c     23.359205
_cell_angle_alpha  90.180305
_cell_angle_beta   90.131027
_cell_angle_gamma 89.972368
loop_
_atom_site_label
_atom_site_type_symbol
_atom_site_fract_x
_atom_site_fract_y
_atom_site_fract_z
_atom_type_partial_charge
P0 P 0.74954 0.52094 0.09421 0.0
H1 H 0.77079 0.48984 0.15505 0.0
H2 H 0.79224 0.49061 0.23792 0.0
H3 H 0.77312 0.55033 0.27538 0.0
H4 H 0.7518 0.54955 0.1901 0.0
H5 H 0.71813 0.49167 0.08468 0.0
H6 H 0.68458 0.49409 0.04677 0.0
H7 H 0.68872 0.55782 0.05004 0.0
H8 H 0.72251 0.55531 0.0881 0.0
H9 H 0.78589 0.54415 0.1132 0.0
H10 H 0.74109 0.53825 0.98239 0.0
O11 O 0.75548 0.49986 0.06093 0.0
H12 H 0.80518 0.56501 0.05053 0.0
H13 H 0.76055 0.55934 0.91896 0.0
C14 C 0.7597 0.51969 0.16593 0.0
C15 C 0.7707 0.50297 0.18169 0.0
C16 C 0.78304 0.50342 0.22968 0.0
C17 C 0.78471 0.52062 0.26345 0.0
C18 C 0.77252 0.53692 0.24992 0.0
C19 C 0.76007 0.53642 0.20165 0.0
C20 C 0.723 0.5233 0.08809 0.0
C21 C 0.71168 0.5062 0.07889 0.0
C22 C 0.69252 0.50759 0.05679 0.0
C23 C 0.6842 0.52613 0.04411 0.0
C24 C 0.69478 0.54333 0.05912 0.0
C25 C 0.71408 0.54191 0.08101 0.0
C26 C 0.76168 0.53998 0.05332 0.0
C27 C 0.77972 0.54795 0.07196 0.0
C28 C 0.79083 0.55999 0.03585 0.0
C29 C 0.78434 0.56398 0.97982 0.0
C30 C 0.7659 0.55659 0.96194 0.0
C31 C 0.75473 0.54462 0.99833 0.0
P32 P 0.99426 0.75611 0.10714 0.0
H33 H 0.02381 0.76763 0.19234 0.0
H34 H 0.02235 0.79073 0.27244 0.0
H35 H 0.95869 0.79211 0.25896 0.0
H36 H 0.96029 0.76871 0.17845 0.0
H37 H 0.02471 0.72551 0.10298 0.0
H38 H 0.02419 0.69198 0.06452 0.0
H39 H 0.96043 0.69411 0.05614 0.0
H40 H 0.96109 0.72765 0.09659 0.0
H41 H 0.97628 0.79563 0.10378 0.0
H42 H 0.97692 0.74331 0.99731 0.0
O43 O 0.01649 0.76263 0.08275 0.0
H44 H 0.95728 0.81296 0.0315 0.0
H45 H 0.95751 0.76054 0.92515 0.0
C46 C 0.9922 0.76676 0.17834 0.0
C47 C 0.00946 0.77238 0.20755 0.0
C48 C 0.0086 0.78567 0.25359 0.0
C49 C 0.99042 0.79368 0.2715 0.0
C50 C 0.97297 0.78657 0.24552 0.0
C51 C 0.97385 0.77301 0.19985 0.0
C52 C 0.99297 0.72936 0.10122 0.0
C53 C 0.01055 0.71862 0.09455 0.0
C54 C 0.01024 0.69945 0.07178 0.0
C55 C 0.99231 0.69056 0.05506 0.0
C56 C 0.97454 0.70052 0.06791 0.0
C57 C 0.97488 0.71972 0.09129 0.0
C58 C 0.97716 0.76769 0.05798 0.0
C59 C 0.97153 0.78747 0.0663 0.0
C60 C 0.96063 0.79745 0.0246 0.0
C61 C 0.95555 0.78804 0.97285 0.0
C62 C 0.96101 0.76816 0.96476 0.0
C63 C 0.97193 0.75819 0.00657 0.0
P64 P 0.76092 0.9942 0.13488 0.0
H65 H 0.75222 0.02027 0.23172 0.0
H66 H 0.72683 0.01809 0.30527 0.0
H67 H 0.71703 0.95676 0.26086 0.0
H68 H 0.74251 0.95911 0.18689 0.0
H69 H 0.79467 0.02045 0.11992 0.0
H70 H 0.82831 0.01442 0.08958 0.0
H71 H 0.81943 0.95148 0.10933 0.0
H72 H 0.78519 0.95775 0.13971 0.0
H73 H 0.71903 0.99034 0.11303 0.0
H74 H 0.77291 0.96967 0.0344 0.0
O75 O 0.75734 0.01803 0.1191 0.0
H76 H 0.69991 0.9752 0.03674 0.0
H77 H 0.7538 0.95345 0.95947 0.0
C78 C 0.749 0.98997 0.20297 0.0
C79 C 0.74513 0.00614 0.23907 0.0
C80 C 0.73053 0.00487 0.28125 0.0
C81 C 0.71951 0.98737 0.2881 0.0
C82 C 0.72491 0.97059 0.25581 0.0
C83 C 0.73966 0.97184 0.21391 0.0
C84 C 0.78723 0.98953 0.13124 0.0
C85 C 0.79998 0.00534 0.11933 0.0
C86 C 0.8194 1.00185 0.10205 0.0
C87 C 0.82662 0.98242 0.09618 0.0
C88 C 0.81427 0.96661 0.11251 0.0
C89 C 0.79477 0.97018 0.13051 0.0
C90 C 0.7474 0.98073 0.08069 0.0
C91 C 0.72674 0.98199 0.0803 0.0
C92 C 0.71578 0.97311 0.03668 0.0
C93 C 0.72524 0.96276 0.99207 0.0
C94 C 0.74599 0.96128 0.993 0.0
C95 C 0.75698 0.9704 0.03652 0.0
P96 P 0.52374 0.77935 0.16425 0.0
H97 H 0.49853 0.76643 0.25847 0.0
H98 H 0.50344 0.74107 0.33039 0.0
H99 H 0.56572 0.73924 0.28976 0.0
H100 H 0.56048 0.76449 0.2162 0.0
H101 H 0.50463 0.81807 0.16374 0.0
H102 H 0.51496 0.84956 0.12419 0.0
H103 H 0.5744 0.82707 0.10494 0.0
H104 H 0.56372 0.79519 0.14413 0.0
H105 H 0.52811 0.73647 0.15421 0.0
H106 H 0.53726 0.78742 0.04646 0.0
O107 O 0.49923 0.78033 0.15625 0.0
H108 H 0.53859 0.71488 0.07691 0.0
H109 H 0.54846 0.76581 0.96913 0.0
C110 C 0.5291 0.76729 0.2315 0.0
C111 C 0.51339 0.76112 0.26617 0.0
C112 C 0.51625 0.74652 0.30764 0.0
C113 C 0.53493 0.73774 0.31538 0.0
C114 C 0.55104 0.74535 0.2842 0.0
C115 C 0.54815 0.76003 0.24268 0.0
C116 C 0.53331 0.80413 0.15598 0.0
C117 C 0.52004 0.82002 0.1527 0.0
C118 C 0.52602 0.83816 0.13008 0.0
C119 C 0.54546 0.84081 0.11027 0.0
C120 C 0.55922 0.82541 0.1187 0.0
C121 C 0.55321 0.80725 0.14177 0.0
C122 C 0.5327 0.76368 0.10726 0.0
C123 C 0.53293 0.74311 0.11452 0.0
C124 C 0.53904 0.73072 0.07013 0.0
C125 C 0.54482 0.73861 0.01708 0.0
C126 C 0.54425 0.75925 0.00954 0.0
C127 C 0.53804 0.77165 0.05407 0.0
P128 P 0.27904 0.42799 0.01592 0.0
H129 H 0.27265 0.42671 0.89179 0.0
H130 H 0.24687 0.4411 0.8318 0.0
H131 H 0.22744 0.47692 0.97454 0.0
H132 H 0.2537 0.46291 0.03371 0.0
H133 H 0.31347 0.40821 0.06111 0.0
H134 H 0.34239 0.41942 0.11373 0.0
H135 H 0.32341 0.48008 0.0931 0.0
H136 H 0.294 0.46851 0.04073 0.0
H137 H 0.24782 0.39855 0.02808 0.0
H138 H 0.27288 0.44592 0.12879 0.0
O139 O 0.28438 0.40688 0.982 0.0
H140 H 0.22127 0.39486 0.0981 0.0
H141 H 0.24625 0.44284 0.19757 0.0
C142 C 0.26504 0.44353 0.96757 0.0
C143 C 0.26326 0.4381 0.9098 0.0
C144 C 0.24828 0.44618 0.87563 0.0
C145 C 0.23466 0.45982 0.89859 0.0
C146 C 0.23757 0.46647 0.95521 0.0
C147 C 0.25266 0.45844 0.98927 0.0
C148 C 0.3018 0.43753 0.04573 0.0
C149 C 0.31571 0.42397 0.06664 0.0
C150 C 0.33233 0.43044 0.09685 0.0
C151 C 0.33542 0.4507 0.10746 0.0
C152 C 0.32149 0.46436 0.08596 0.0
C153 C 0.30478 0.45781 0.05543 0.0
C154 C 0.26248 0.4223 0.07363 0.0
C155 C 0.2479 0.4078 0.06602 0.0
C156 C 0.23264 0.40584 0.10583 0.0
C157 C 0.23155 0.4186 0.15345 0.0
C158 C 0.24677 0.43248 0.16214 0.0
C159 C 0.26205 0.43433 0.12254 0.0
P160 P 0.06319 0.27611 0.01455 0.0
H161 H 0.07038 0.26343 0.89675 0.0
H162 H 0.05769 0.23597 0.84158 0.0
H163 H 0.01139 0.22761 0.96673 0.0
H164 H 0.02543 0.25436 0.02432 0.0
H165 H 0.08156 0.31354 0.04355 0.0
H166 H 0.07126 0.34146 0.10196 0.0
H167 H 0.0127 0.31658 0.11498 0.0
H168 H 0.02316 0.28838 0.0554 0.0
H169 H 0.08213 0.23754 0.01585 0.0
H170 H 0.05812 0.27825 0.14047 0.0
O171 O 0.08438 0.28197 0.98225 0.0
H172 H 0.08799 0.21332 0.09168 0.0
H173 H 0.06367 0.25415 0.21567 0.0
C174 C 0.04879 0.26129 0.96471 0.0
C175 C 0.05716 0.25611 0.91184 0.0
C176 C 0.04975 0.2402 0.87986 0.0
C177 C 0.0335 0.22907 0.89937 0.0
C178 C 0.02422 0.23531 0.9505 0.0
C179 C 0.03193 0.25105 0.98309 0.0
C180 C 0.05309 0.29889 0.04389 0.0
C181 C 0.0663 0.31424 0.05729 0.0
C182 C 0.06047 0.33016 0.09158 0.0
C183 C 0.04124 0.33116 0.11393 0.0
C184 C 0.02762 0.31629 0.09827 0.0
C185 C 0.03355 0.30019 0.06389 0.0
C186 C 0.06948 0.25962 0.07217 0.0
C187 C 0.0783 0.24135 0.05952 0.0
C188 C 0.08161 0.22752 0.10281 0.0
C189 C 0.07624 0.23181 0.15961 0.0
C190 C 0.0682 0.25049 0.17247 0.0
C191 C 0.06483 0.26427 0.12913 0.0
P192 P 0.24284 0.07894 0.00843 0.0
H193 H 0.25768 0.08644 0.89325 0.0
H194 H 0.28389 0.07131 0.83842 0.0
H195 H 0.28605 0.02287 0.95918 0.0
H196 H 0.26112 0.03939 0.01696 0.0
H197 H 0.20689 0.09885 0.04329 0.0
H198 H 0.17777 0.08825 0.09567 0.0
H199 H 0.1987 0.02788 0.09053 0.0
H200 H 0.22794 0.03864 0.03751 0.0
H201 H 0.2798 0.10063 0.01516 0.0
H202 H 0.243 0.06706 0.1301 0.0
O203 O 0.23812 0.10062 0.9771 0.0
H204 H 0.30479 0.10404 0.09054 0.0
H205 H 0.26784 0.07027 0.20497 0.0
C206 C 0.25694 0.06391 0.95888 0.0
C207 C 0.26339 0.0723 0.90737 0.0
C208 C 0.27853 0.06347 0.87559 0.0
C209 C 0.28752 0.04576 0.89399 0.0
C210 C 0.28002 0.03671 0.94383 0.0
C211 C 0.2652 0.04587 0.97641 0.0
C212 C 0.21958 0.06955 0.03541 0.0
C213 C 0.20502 0.08322 0.05181 0.0
C214 C 0.1883 0.07713 0.082 0.0
C215 C 0.18584 0.0572 0.09743 0.0
C216 C 0.2002 0.04338 0.07968 0.0
C217 C 0.2169 0.0495 0.04885 0.0
C218 C 0.25947 0.08374 0.06702 0.0
C219 C 0.27694 0.09431 0.05689 0.0
C220 C 0.29124 0.09615 0.09983 0.0
C221 C 0.28826 0.08745 0.1537 0.0
C222 C 0.27043 0.07742 0.16423 0.0
C223 C 0.25621 0.07549 0.12117 0.0
P224 P 0.42001 0.23833 0.01063 0.0
H225 H 0.42013 0.24505 0.8864 0.0
H226 H 0.4367 0.27 0.82811 0.0
H227 H 0.47198 0.28725 0.97427 0.0
H228 H 0.45528 0.26233 0.03238 0.0
H229 H 0.40044 0.20311 0.05251 0.0
H230 H 0.41209 0.17379 0.10282 0.0
H231 H 0.47233 0.19408 0.08489 0.0
H232 H 0.46041 0.22365 0.0349 0.0
H233 H 0.39518 0.27341 0.01655 0.0
H234 H 0.43346 0.24091 0.13038 0.0
O235 O 0.39908 0.23339 0.97539 0.0
H236 H 0.39225 0.29982 0.08803 0.0
H237 H 0.43084 0.26719 0.20131 0.0
C238 C 0.43634 0.25191 0.96393 0.0
C239 C 0.43182 0.25379 0.90554 0.0
C240 C 0.44133 0.26809 0.87217 0.0
C241 C 0.45543 0.28085 0.89679 0.0
C242 C 0.46094 0.27789 0.95427 0.0
C243 C 0.45152 0.26351 0.98744 0.0
C244 C 0.42956 0.21539 0.03892 0.0
C245 C 0.4162 0.20105 0.05822 0.0
C246 C 0.4229 0.18424 0.08703 0.0
C247 C 0.44318 0.18148 0.09782 0.0
C248 C 0.45661 0.19579 0.07763 0.0
C249 C 0.44984 0.21262 0.04853 0.0
C250 C 0.4143 0.25507 0.06836 0.0
C251 C 0.40249 0.2717 0.05753 0.0
C252 C 0.40096 0.28684 0.09822 0.0
C253 C 0.41133 0.28562 0.15035 0.0
C254 C 0.42238 0.26846 0.16207 0.0
C255 C 0.42395 0.25338 0.12129 0.0
Eu256 Eu 0.02907 0.00509 0.65577 0.0
C257 C 0.95587 0.97883 0.51054 0.0
C258 C 0.97052 0.95877 0.43607 0.0
C259 C 0.93771 0.95086 0.47086 0.0
C260 C 0.97169 0.97468 0.47546 0.0
C261 C 0.93844 0.96737 0.50736 0.0
C262 C 0.95373 0.94658 0.43519 0.0
C263 C 0.92282 0.99085 0.57076 0.0
N264 N 0.95692 0.99502 0.5446 0.0
C265 C 0.94035 1.00177 0.57198 0.0
C266 C 0.92197 0.97333 0.53919 0.0
Eu267 Eu 0.98778 0.01176 0.55177 0.0
N268 N 0.98771 0.98682 0.47752 0.0
C269 C 0.00225 0.98467 0.43701 0.0
C270 C 0.986 0.95589 0.39756 0.0
C271 C 1.00171 0.96915 0.3973 0.0
H272 H 0.94088 0.01548 0.59595 0.0
H273 H 0.01354 0.96739 0.36658 0.0
H274 H 0.95275 0.93417 0.40582 0.0
H275 H 0.90998 0.99601 0.59399 0.0
H276 H 0.01467 0.99446 0.43428 0.0
H277 H 0.9979 0.04289 0.84467 0.0
H278 H 0.98569 0.94384 0.36687 0.0
H279 H 0.07664 0.00783 0.61405 0.0
H280 H 1.00011 0.01723 0.77207 0.0
H281 H 0.10454 0.03132 0.61807 0.0
H282 H 0.92456 0.94172 0.46843 0.0
H283 H 0.02255 0.06974 0.84838 0.0
H284 H 0.05339 0.08493 0.80917 0.0
H285 H 0.90833 0.96493 0.5379 0.0
H286 H 0.08223 0.08219 0.74582 0.0
N287 N 0.02582 0.02911 0.73116 0.0
C288 C 0.0111 0.02866 0.77143 0.0
C289 C 0.02364 0.05847 0.81548 0.0
C290 C 0.03914 0.05851 0.77614 0.0
C291 C 0.00975 0.0433 0.81365 0.0
C292 C 0.04004 0.04326 0.73463 0.0
H293 H 0.10162 0.06208 0.67512 0.0
N294 N 0.05741 0.02596 0.6635 0.0
C295 C 0.09093 0.03464 0.64039 0.0
C296 C 0.05621 0.04178 0.69907 0.0
C297 C 0.07503 0.02147 0.63779 0.0
C298 C 0.08921 0.05198 0.67254 0.0
C299 C 0.07196 0.05541 0.70396 0.0
O300 O 0.0537 0.985 0.67215 0.0
O301 O 0.00791 0.99031 0.59506 0.0
O302 O 0.97408 0.99911 0.63227 0.0
O303 O 1.00015 0.9954 0.69736 0.0
O304 O 0.03717 0.98135 0.59102 0.0
O305 O 0.02984 0.98717 0.73327 0.0
O306 O 0.96445 0.03107 0.51883 0.0
O307 O 0.00815 0.0263 0.61481 0.0
O308 O 0.04231 0.01871 0.57608 0.0
O309 O 0.01733 0.01605 0.50711 0.0
O310 O 0.97846 0.03348 0.62082 0.0
O311 O 0.99438 0.03554 0.49141 0.0
C312 C 0.01962 0.97826 0.5714 0.0
C313 C 0.04365 0.95564 0.71579 0.0
C314 C 0.0239 0.92576 0.70133 0.0
C315 C 0.02551 0.94651 0.7027 0.0
C316 C 0.04103 0.91433 0.71101 0.0
C317 C 0.06046 0.944 0.72516 0.0
C318 C 0.05915 0.92342 0.72238 0.0
C319 C 0.98118 0.99443 0.68328 0.0
C320 C 0.04541 0.97728 0.71696 0.0
C321 C 0.07044 0.07141 0.74218 0.0
C322 C 0.05406 0.07293 0.77834 0.0
C323 C 0.9959 0.03735 0.64022 0.0
C324 C 0.97609 0.06411 0.51556 0.0
C325 C 0.99096 0.07741 0.49903 0.0
C326 C 0.99189 0.09656 0.52275 0.0
C327 C 0.97769 0.10232 0.56335 0.0
C328 C 0.96177 0.07037 0.55538 0.0
C329 C 0.96269 0.08931 0.57925 0.0
C330 C 0.0358 0.01967 0.52276 0.0
C331 C 0.97685 0.0433 0.4956 0.0
H332 H 0.01265 0.95558 0.69394 0.0
H333 H 0.04038 0.89833 0.71178 0.0
H334 H 0.0746 0.95083 0.73443 0.0
H335 H 0.07216 0.91447 0.73 0.0
H336 H 1.00181 0.07281 0.46762 0.0
H337 H 0.97821 0.11686 0.58292 0.0
H338 H 0.95015 0.06049 0.56934 0.0
H339 H 0.95183 0.09385 0.6106 0.0
Eu340 Eu 0.50645 0.03503 0.65355 0.0
C341 C 0.53766 0.95529 0.54273 0.0
C342 C 0.55677 0.96449 0.45955 0.0
C343 C 0.56519 0.93467 0.51205 0.0
C344 C 0.54129 0.96832 0.49854 0.0
C345 C 0.54928 0.93809 0.54928 0.0
C346 C 0.56894 0.94787 0.46729 0.0
C347 C 0.52769 0.9281 0.62619 0.0
N348 N 0.52221 0.95897 0.57795 0.0
C349 C 0.51662 0.94534 0.61799 0.0
C350 C 0.54427 0.92458 0.59219 0.0
Eu351 Eu 0.50468 0.98898 0.56456 0.0
N352 N 0.52929 0.98433 0.49245 0.0
C353 C 0.5313 0.99632 0.44565 0.0
C354 C 0.55939 0.97729 0.41334 0.0
C355 C 0.54642 0.9931 0.40597 0.0
H356 H 0.50395 0.94815 0.64494 0.0
H357 H 0.54813 0.00293 0.36982 0.0
H358 H 0.58103 0.94486 0.43817 0.0
H359 H 0.52351 0.91762 0.65893 0.0
H360 H 0.52165 0.00868 0.43831 0.0
H361 H 0.46393 0.01453 0.84454 0.0
H362 H 0.57114 0.97491 0.38263 0.0
H363 H 0.50574 0.07964 0.59068 0.0
H364 H 0.49118 0.0127 0.77646 0.0
H365 H 0.48287 0.10778 0.57692 0.0
H366 H 0.57441 0.92166 0.51676 0.0
H367 H 0.43753 0.03943 0.83192 0.0
H368 H 0.42385 0.06802 0.77644 0.0
H369 H 0.55285 0.91122 0.5986 0.0
H370 H 0.4287 0.09323 0.70198 0.0
N371 N 0.4806 0.03603 0.72327 0.0
C372 C 0.47998 0.02365 0.76947 0.0
C373 C 0.44949 0.0386 0.80127 0.0
C374 C 0.45059 0.05185 0.75563 0.0
C375 C 0.46442 0.02464 0.8087 0.0
C376 C 0.46671 0.05039 0.71752 0.0
H377 H 0.45085 0.1084 0.62793 0.0
N378 N 0.48612 0.06367 0.64429 0.0
C379 C 0.47874 0.0956 0.60436 0.0
C380 C 0.46943 0.06453 0.67603 0.0
C381 C 0.49157 0.07958 0.61181 0.0
C382 C 0.46069 0.09587 0.63312 0.0
C383 C 0.45611 0.08054 0.67095 0.0
O384 O 0.52485 0.06077 0.67197 0.0
O385 O 0.52257 0.01381 0.59816 0.0
O386 O 0.5255 0.98382 0.63905 0.0
O387 O 0.51442 0.00719 0.70523 0.0
O388 O 0.53096 0.04294 0.59008 0.0
O389 O 0.52457 0.03621 0.73103 0.0
O390 O 0.48415 0.96443 0.55343 0.0
O391 O 0.48782 0.01061 0.61858 0.0
O392 O 0.49264 0.0431 0.56832 0.0
O393 O 0.49895 0.01597 0.50809 0.0
O394 O 0.48319 0.98096 0.63535 0.0
O395 O 0.48506 0.98772 0.49012 0.0
C396 C 0.53448 0.02512 0.57314 0.0
C397 C 0.55515 0.052 0.71255 0.0
C398 C 0.58599 0.03387 0.69908 0.0
C399 C 0.56543 0.03398 0.70694 0.0
C400 C 0.59616 0.052 0.69615 0.0
C401 C 0.56559 0.0699 0.71007 0.0
C402 C 0.58599 0.06987 0.70172 0.0
C403 C 0.52408 0.99067 0.692 0.0
C404 C 0.53346 0.05245 0.71547 0.0
C405 C 0.43925 0.08123 0.70583 0.0
C406 C 0.43652 0.06692 0.74827 0.0
C407 C 0.47765 0.99869 0.64762 0.0
C408 C 0.45347 0.97564 0.51851 0.0
C409 C 0.44383 0.99245 0.49668 0.0
C410 C 0.42372 0.99591 0.50798 0.0
C411 C 0.4133 0.98236 0.54213 0.0
C412 C 0.44264 0.96214 0.55169 0.0
C413 C 0.42274 0.96559 0.56367 0.0
C414 C 0.49328 0.0345 0.51734 0.0
C415 C 0.47502 0.97285 0.51084 0.0
H416 H 0.55748 0.02007 0.70793 0.0
H417 H 0.61207 0.05236 0.69107 0.0
H418 H 0.55788 0.08391 0.7136 0.0
H419 H 0.59396 0.08373 0.69971 0.0
H420 H 0.45203 0.00306 0.47169 0.0
H421 H 0.39775 0.98446 0.55112 0.0
H422 H 0.44964 0.94908 0.56927 0.0
H423 H 0.41457 0.95519 0.58964 0.0
Eu424 Eu 0.53051 0.49517 0.55178 0.0
C425 C 0.43995 0.49678 0.55971 0.0
C426 C 0.43202 0.51696 0.47731 0.0
C427 C 0.40964 0.49076 0.50573 0.0
C428 C 0.44487 0.51195 0.52291 0.0
C429 C 0.42201 0.48632 0.55223 0.0
C430 C 0.41461 0.50609 0.46843 0.0
C431 C 0.42857 0.46937 0.64086 0.0
N432 N 0.45215 0.49283 0.60438 0.0
C433 C 0.446 0.48026 0.64673 0.0
C434 C 0.41669 0.47213 0.59277 0.0
Eu435 Eu 0.48207 0.51151 0.6113 0.0
N436 N 0.46206 0.52194 0.53183 0.0
C437 C 0.46656 0.53782 0.49782 0.0
C438 C 0.43694 0.53283 0.442 0.0
C439 C 0.4542 0.5434 0.45266 0.0
H440 H 0.45462 0.47852 0.68539 0.0
H441 H 0.4581 0.55582 0.42581 0.0
H442 H 0.40476 0.50958 0.43323 0.0
H443 H 0.42419 0.45905 0.67382 0.0
H444 H 0.4797 0.5464 0.50391 0.0
H445 H 0.55378 0.45297 0.74226 0.0
H446 H 0.42747 0.53711 0.40666 0.0
H447 H 0.55808 0.5264 0.47357 0.0
H448 H 0.53182 0.46244 0.66513 0.0
H449 H 0.58955 0.54456 0.48003 0.0
H450 H 0.39596 0.48273 0.49903 0.0
H451 H 0.58573 0.46998 0.75553 0.0
H452 H 0.6099 0.49517 0.72193 0.0
H453 H 0.40307 0.46381 0.5885 0.0
H454 H 0.61922 0.52072 0.65253 0.0
N455 N 0.55052 0.48521 0.63183 0.0
C456 C 0.54555 0.4702 0.66847 0.0
C457 C 0.57607 0.47428 0.72065 0.0
C458 C 0.58146 0.48923 0.68267 0.0
C459 C 0.55809 0.46466 0.71325 0.0
C460 C 0.56828 0.4944 0.63801 0.0
H461 H 0.61166 0.53943 0.56304 0.0
N462 N 0.56095 0.51296 0.5555 0.0
C463 C 0.58512 0.53482 0.51439 0.0
C464 C 0.57352 0.50885 0.59918 0.0
C465 C 0.56711 0.52478 0.51145 0.0
C466 C 0.59755 0.53185 0.56117 0.0
C467 C 0.5921 0.51833 0.60347 0.0
O468 O 0.54643 0.49011 0.4721 0.0
O469 O 0.49771 0.4962 0.53963 0.0
O470 O 0.48471 0.47877 0.62874 0.0
O471 O 0.5136 0.46802 0.5832 0.0
O472 O 0.51483 0.50304 0.4689 0.0
O473 O 0.53957 0.4653 0.52701 0.0
O474 O 0.46583 0.51599 0.69083 0.0
O475 O 0.51487 0.5106 0.6232 0.0
O476 O 0.52895 0.52845 0.5386 0.0
O477 O 0.49923 0.53858 0.58072 0.0
O478 O 0.49788 0.50425 0.69448 0.0
O479 O 0.47267 0.5411 0.63721 0.0
C480 C 0.49705 0.50043 0.48714 0.0
C481 C 0.54147 0.4595 0.42648 0.0
C482 C 0.52106 0.43554 0.37541 0.0
C483 C 0.52494 0.44686 0.42475 0.0
C484 C 0.53342 0.43743 0.32743 0.0
C485 C 0.55362 0.46118 0.37813 0.0
C486 C 0.54952 0.45028 0.32876 0.0
C487 C 0.49736 0.46484 0.61352 0.0
C488 C 0.5467 0.47099 0.47788 0.0
C489 C 0.60497 0.51352 0.64846 0.0
C490 C 0.5997 0.49894 0.68782 0.0
C491 C 0.51563 0.50683 0.67601 0.0
C492 C 0.47433 0.54552 0.73809 0.0
C493 C 0.48938 0.55978 0.73339 0.0
C494 C 0.49694 0.56927 0.78237 0.0
C495 C 0.4896 0.5639 0.83648 0.0
C496 C 0.46712 0.54055 0.79245 0.0
C497 C 0.47484 0.5496 0.84134 0.0
C498 C 0.51592 0.54222 0.55294 0.0
C499 C 0.4665 0.53519 0.68722 0.0
H500 H 0.51547 0.44543 0.46189 0.0
H501 H 0.5306 0.42892 0.28887 0.0
H502 H 0.56636 0.4709 0.37867 0.0
H503 H 0.55895 0.45166 0.29163 0.0
H504 H 0.49528 0.56352 0.69176 0.0
H505 H 0.49483 0.57117 0.87502 0.0
H506 H 0.45559 0.52954 0.7971 0.0
H507 H 0.46919 0.54569 0.88313 0.0
Eu508 Eu 0.01373 0.52877 0.56462 0.0
C509 C 0.02368 0.43932 0.62114 0.0
C510 C 0.00761 0.42119 0.54462 0.0
C511 C 0.03589 0.4068 0.59338 0.0
C512 C 0.00925 0.43827 0.57934 0.0
C513 C 0.03686 0.42338 0.62963 0.0
C514 C 0.02129 0.4057 0.55093 0.0
C515 C 0.0497 0.44052 0.71266 0.0
N516 N 0.02413 0.45543 0.65574 0.0
C517 C 0.0363 0.45588 0.70265 0.0
C518 C 0.0502 0.42432 0.67544 0.0
Eu519 Eu 1.00167 0.48145 0.63507 0.0
N520 N 0.99626 0.45352 0.57431 0.0
C521 C 0.98042 0.45185 0.53812 0.0
C522 C 0.992 0.41995 0.50548 0.0
C523 C 0.97819 0.43523 0.50286 0.0
H524 H 0.03604 0.46848 0.73128 0.0
H525 H 0.96586 0.43429 0.47338 0.0
H526 H 0.02039 0.39261 0.52415 0.0
H527 H 0.05967 0.44121 0.74891 0.0
H528 H 0.96958 0.46338 0.53474 0.0
H529 H 0.04538 0.57799 0.72938 0.0
H530 H 0.99027 0.40713 0.47793 0.0
H531 H 0.98348 0.54144 0.45646 0.0
H532 H 0.04375 0.54843 0.66963 0.0
H533 H 0.96098 0.56874 0.43043 0.0
H534 H 0.04602 0.39452 0.59882 0.0
H535 H 0.02077 0.60466 0.71756 0.0
H536 H 0.992 0.61843 0.66345 0.0
H537 H 0.06056 0.4124 0.68335 0.0
H538 H 0.96896 0.61593 0.58228 0.0
N539 N 0.01768 0.55715 0.62461 0.0
C540 C 0.03266 0.55954 0.66347 0.0
C541 C 0.01987 0.59153 0.69089 0.0
C542 C 0.00536 0.58972 0.64854 0.0
C543 C 0.03378 0.57652 0.69765 0.0
C544 C 0.00475 0.57225 0.61507 0.0
H545 H 0.95765 0.59774 0.49453 0.0
N546 N 0.99235 0.55458 0.53541 0.0
C547 C 0.96941 0.56947 0.46982 0.0
C548 C 0.99168 0.57088 0.56938 0.0
C549 C 0.98216 0.55404 0.48472 0.0
C550 C 0.96752 0.58577 0.50622 0.0
C551 C 0.97901 0.58684 0.55605 0.0
O552 O 0.02552 0.54891 0.50023 0.0
O553 O 0.01237 0.49599 0.55575 0.0
O554 O 0.03489 0.48452 0.62303 0.0
O555 O 0.03888 0.5187 0.62362 0.0
O556 O 0.00326 0.51189 0.48524 0.0
O557 O 0.04306 0.52411 0.52779 0.0
O558 O 0.99535 0.46827 0.71792 0.0
O559 O 1.00162 0.51447 0.64287 0.0
O560 O 0.9802 0.52631 0.56859 0.0
O561 O 0.97476 0.49266 0.58518 0.0
O562 O 0.01078 0.49907 0.71432 0.0
O563 O 0.97116 0.47584 0.66127 0.0
C564 C 0.00624 0.49435 0.50499 0.0
C565 C 0.04479 0.53256 0.42974 0.0
C566 C 0.06337 0.51324 0.35979 0.0
C567 C 0.05938 0.51845 0.4168 0.0
C568 C 0.05258 0.52218 0.31545 0.0
C569 C 0.03405 0.54131 0.38475 0.0
C570 C 0.03792 0.53606 0.32801 0.0
C571 C 0.0458 0.50052 0.63162 0.0
C572 C 0.04098 0.53805 0.49001 0.0
C573 C 0.97878 0.60366 0.59142 0.0
C574 C 0.99191 0.60509 0.6376 0.0
C575 C 0.00687 0.51637 0.69436 0.0
C576 C 0.96754 0.48242 0.76092 0.0
C577 C 0.95656 0.49981 0.75107 0.0
C578 C 0.95015 0.5115 0.79729 0.0
C579 C 0.95492 0.50574 0.85343 0.0
C580 C 0.97181 0.47676 0.8174 0.0
C581 C 0.9656 0.48843 0.8633 0.0
C582 C 0.96851 0.51059 0.57056 0.0
C583 C 0.97639 0.47112 0.71335 0.0
H584 H 0.06796 0.5118 0.451 0.0
H585 H 0.0555 0.5184 0.27116 0.0
H586 H 0.02269 0.55222 0.39325 0.0
H587 H 0.02962 0.54286 0.29365 0.0
H588 H 0.95326 0.50446 0.70771 0.0
H589 H 0.9499 0.51434 0.88983 0.0
H590 H 0.98035 0.46352 0.82593 0.0
H591 H 0.96907 0.48403 0.90669 0.0
C592 C 0.17215 0.03862 0.18179 0.0
C593 C 0.16904 0.05132 0.13506 0.0
C594 C 0.15687 0.03459 0.22038 0.0
C595 C 0.10901 0.05492 0.27218 0.0
H596 H 0.10434 0.0035 0.34395 0.0
C597 C 0.0449 0.03439 0.42756 0.0
C598 C 0.05036 0.02389 0.47701 0.0
C599 C 0.05866 0.03773 0.38375 0.0
C600 C 0.10552 0.018 0.32464 0.0
H601 H 0.14709 0.06907 0.09107 0.0
H602 H 0.12037 0.06184 0.15778 0.0
H603 H 0.12934 0.00874 0.27065 0.0
H604 H 0.07425 0.00789 0.51769 0.0
H605 H 0.09826 0.014 0.44257 0.0
H606 H 0.08512 0.06411 0.32635 0.0
C607 C 0.13477 0.05534 0.16547 0.0
C608 C 0.1199 0.02102 0.28257 0.0
C609 C 0.15008 0.05943 0.12702 0.0
C610 C 0.06975 0.01662 0.4813 0.0
C611 C 0.08343 0.0198 0.43754 0.0
C612 C 0.09454 0.05185 0.31411 0.0
C613 C 0.138 0.04308 0.21319 0.0
C614 C 0.12201 0.03958 0.25611 0.0
C615 C 0.07808 0.03034 0.38807 0.0
C616 C 0.09277 0.03341 0.34135 0.0
H617 H 0.18663 0.03236 0.18984 0.0
H618 H 0.16006 0.02531 0.25696 0.0
H619 H 0.11032 0.0695 0.25348 0.0
H620 H 0.03001 0.04008 0.42282 0.0
H621 H 0.05399 0.04576 0.34602 0.0
C622 C 0.44124 0.14552 0.12617 0.0
C623 C 0.45 0.16429 0.13271 0.0
C624 C 0.44664 0.12978 0.16182 0.0
C625 C 0.48576 0.11322 0.26317 0.0
H626 H 0.44438 0.07984 0.32492 0.0
C627 C 0.4973 0.0662 0.46474 0.0
C628 C 0.48906 0.04718 0.46724 0.0
C629 C 0.49305 0.07881 0.41917 0.0
C630 C 0.45615 0.08882 0.3074 0.0
H631 H 0.47142 0.18109 0.18205 0.0
H632 H 0.48083 0.15375 0.244 0.0
H633 H 0.43612 0.1051 0.25418 0.0
H634 H 0.47082 0.02595 0.42207 0.0
H635 H 0.46302 0.04817 0.34211 0.0
H636 H 0.50572 0.09725 0.31724 0.0
C637 C 0.46999 0.15106 0.21071 0.0
C638 C 0.45143 0.10332 0.2668 0.0
C639 C 0.4646 0.16678 0.17506 0.0
C640 C 0.47701 0.04069 0.42188 0.0
C641 C 0.47255 0.05343 0.37622 0.0
C642 C 0.49046 0.09879 0.30377 0.0
C643 C 0.46096 0.13238 0.20494 0.0
C644 C 0.46614 0.11594 0.24487 0.0
C645 C 0.4805 0.07269 0.37451 0.0
C646 C 0.47568 0.08664 0.32717 0.0
H647 H 0.43014 0.14299 0.09347 0.0
H648 H 0.4396 0.11554 0.15551 0.0
H649 H 0.49755 0.12234 0.24635 0.0
H650 H 0.50737 0.07125 0.49758 0.0
H651 H 0.49942 0.09352 0.41943 0.0
C652 C 0.35074 0.47223 0.18431 0.0
C653 C 0.3527 0.45718 0.14292 0.0
C654 C 0.36654 0.47707 0.22073 0.0
C655 C 0.41272 0.4561 0.28079 0.0
H656 H 0.42485 0.51063 0.31917 0.0
C657 C 0.46839 0.47883 0.45954 0.0
C658 C 0.4809 0.49488 0.44753 0.0
C659 C 0.45309 0.47376 0.42173 0.0
C660 C 0.42171 0.49533 0.30864 0.0
H661 H 0.37328 0.43609 0.10594 0.0
H662 H 0.40065 0.44443 0.16946 0.0
H663 H 0.39752 0.5033 0.25397 0.0
H664 H 0.4884 0.51708 0.38476 0.0
H665 H 0.46156 0.50842 0.31885 0.0
H666 H 0.43702 0.44816 0.33523 0.0
C667 C 0.38678 0.45225 0.17452 0.0
C668 C 0.40592 0.49111 0.27171 0.0
C669 C 0.37105 0.44749 0.13799 0.0
C670 C 0.4786 0.50499 0.3956 0.0
C671 C 0.46321 0.50007 0.35807 0.0
C672 C 0.42842 0.46031 0.31809 0.0
C673 C 0.38468 0.46694 0.21682 0.0
C674 C 0.40129 0.47145 0.25698 0.0
C675 C 0.45009 0.48457 0.37102 0.0
C676 C 0.43319 0.47998 0.33215 0.0
H677 H 0.33679 0.47985 0.18994 0.0
H678 H 0.36435 0.48836 0.25311 0.0
H679 H 0.40943 0.44078 0.27097 0.0
H680 H 0.47028 0.47039 0.49852 0.0
H681 H 0.4433 0.46171 0.43293 0.0
C682 C 0.01831 0.35778 0.15192 0.0
C683 C 0.0361 0.34709 0.15596 0.0
C684 C 0.01421 0.37331 0.19032 0.0
C685 C 0.02807 0.39346 0.3332 0.0
H686 H 0.00826 0.44315 0.27375 0.0
C687 C 0.02525 0.46427 0.47384 0.0
C688 C 0.00905 0.47704 0.46684 0.0
C689 C 0.02823 0.4484 0.43596 0.0
C690 C 0.01352 0.42932 0.29142 0.0
H691 H 0.06313 0.34388 0.20513 0.0
H692 H 0.05602 0.37076 0.2717 0.0
H693 H 0.01308 0.41518 0.20907 0.0
H694 H 0.98387 0.48392 0.41337 0.0
H695 H 0.98853 0.45591 0.34838 0.0
H696 H 0.02838 0.40746 0.41558 0.0
C697 C 0.04523 0.36728 0.23885 0.0
C698 C 0.01629 0.41324 0.25415 0.0
C699 C 0.0494 0.35196 0.20023 0.0
C700 C 0.99629 0.47407 0.42018 0.0
C701 C 0.99911 0.4581 0.38266 0.0
C702 C 0.02515 0.40948 0.37055 0.0
C703 C 0.02767 0.3783 0.23421 0.0
C704 C 0.02375 0.39513 0.27443 0.0
C705 C 0.01508 0.44494 0.39006 0.0
C706 C 0.01796 0.42772 0.35022 0.0
H707 H 0.00776 0.35443 0.11832 0.0
H708 H 1.00046 0.38137 0.1858 0.0
H709 H 0.03358 0.37966 0.35051 0.0
H710 H 0.03569 0.46663 0.50843 0.0
H711 H 0.04095 0.43895 0.44249 0.0
C712 C 0.84808 0.9642 0.02525 0.0
C713 C 0.84606 0.97899 0.06749 0.0
C714 C 0.86502 0.96333 0.99082 0.0
C715 C 0.90182 0.99709 0.9322 0.0
H716 H 0.9281 0.94975 0.87666 0.0
C717 C 0.94744 0.99705 0.72619 0.0
C718 C 0.96676 0.98945 0.72894 0.0
C719 C 0.93412 0.99407 0.77084 0.0
C720 C 0.92097 0.96308 0.89219 0.0
H721 H 0.86114 0.00332 0.1097 0.0
H722 H 0.89048 1.00194 0.04932 0.0
H723 H 0.90283 0.94714 0.95182 0.0
H724 H 0.98721 0.9727 0.78144 0.0
H725 H 0.96354 0.96698 0.85944 0.0
H726 H 0.91942 0.01298 0.87176 0.0
C727 C 0.87882 0.99122 0.04225 0.0
C728 C 0.90645 0.96158 0.93487 0.0
C729 C 0.86198 0.99201 0.07685 0.0
C730 C 0.97234 0.9785 0.77755 0.0
C731 C 0.95883 0.97523 0.82215 0.0
C732 C 0.91604 0.99853 0.88916 0.0
C733 C 0.88028 0.97728 0.99764 0.0
C734 C 0.89663 0.9786 0.95513 0.0
C735 C 0.93968 0.98332 0.81959 0.0
C736 C 0.92563 0.98155 0.86821 0.0
H737 H 0.83608 0.95404 0.01635 0.0
H738 H 0.86563 0.95248 0.95665 0.0
H739 H 0.8944 0.01046 0.94623 0.0
H740 H 0.94277 0.00608 0.69066 0.0
H741 H 0.91947 1.00045 0.76756 0.0
C742 C 0.56144 0.85633 0.02426 0.0
C743 C 0.55042 0.8585 0.07492 0.0
C744 C 0.56331 0.87206 0.98581 0.0
C745 C 0.55498 0.92638 0.96764 0.0
H746 H 0.54581 0.91165 0.80925 0.0
C747 C 0.52676 0.98115 0.79578 0.0
C748 C 0.53272 0.9785 0.73867 0.0
C749 C 0.53282 0.96791 0.83832 0.0
C750 C 0.54877 0.91607 0.85305 0.0
H751 H 0.53392 0.87948 0.12653 0.0
H752 H 0.53682 0.90675 0.0591 0.0
H753 H 0.54953 0.88601 0.88111 0.0
H754 H 0.55152 0.96104 0.68282 0.0
H755 H 0.56203 0.93794 0.75683 0.0
H756 H 0.55364 0.95652 0.93943 0.0
C757 C 0.54413 0.89291 0.0491 0.0
C758 C 0.55092 0.90131 0.89443 0.0
C759 C 0.54229 0.87718 0.08761 0.0
C760 C 0.54608 0.96314 0.72598 0.0
C761 C 0.55214 0.9499 0.76847 0.0
C762 C 0.5528 0.94117 0.92616 0.0
C763 C 0.55418 0.89039 0.99689 0.0
C764 C 0.55377 0.90624 0.95244 0.0
C765 C 0.54512 0.95176 0.82488 0.0
C766 C 0.54938 0.9362 0.86843 0.0
H767 H 0.56778 0.84216 0.01267 0.0
H768 H 0.57146 0.86967 0.94655 0.0
H769 H 0.55745 0.93073 0.01173 0.0
H770 H 0.51676 0.99296 0.80748 0.0
H771 H 0.52707 0.96982 0.88121 0.0
C772 C 0.65011 0.54 0.02431 0.0
C773 C 0.66576 0.5273 0.00932 0.0
C774 C 0.633 0.54094 0.9902 0.0
C775 C 0.61531 0.53209 0.84322 0.0
H776 H 0.5636 0.52412 0.91032 0.0
C777 C 0.54502 0.52787 0.70172 0.0
C778 C 0.53183 0.51256 0.7154 0.0
C779 C 0.56028 0.53306 0.73962 0.0
C780 C 0.57792 0.52637 0.8908 0.0
H781 H 0.67598 0.50613 0.94603 0.0
H782 H 0.6464 0.50797 0.8865 0.0
H783 H 0.59269 0.5266 0.9723 0.0
H784 H 0.5232 0.49178 0.78094 0.0
H785 H 0.55004 0.5003 0.84634 0.0
H786 H 0.60079 0.53186 0.76198 0.0
C787 C 0.64721 0.51705 0.92474 0.0
C788 C 0.59455 0.52798 0.92645 0.0
C789 C 0.66407 0.51585 0.95918 0.0
C790 C 0.53344 0.50338 0.76896 0.0
C791 C 0.54873 0.50844 0.80667 0.0
C792 C 0.59867 0.5308 0.8077 0.0
C793 C 0.63146 0.52956 0.93979 0.0
C794 C 0.6135 0.53031 0.9029 0.0
C795 C 0.56256 0.52317 0.7923 0.0
C796 C 0.57981 0.52726 0.83077 0.0
H797 H 0.65104 0.54902 0.06264 0.0
H798 H 0.6211 0.55075 0.00275 0.0
H799 H 0.62969 0.53417 0.82386 0.0
H800 H 0.54366 0.53568 0.66147 0.0
H801 H 0.57037 0.54474 0.72743 0.0
C802 C 0.00671 0.66968 0.97621 0.0
C803 C 0.99248 0.67205 0.01956 0.0
C804 C 0.00704 0.65272 0.94181 0.0
C805 C 0.9769 0.60975 0.89295 0.0
H806 H 0.02826 0.5887 0.85171 0.0
C807 C 0.01571 0.53625 0.7805 0.0
C808 C 0.00376 0.53377 0.73189 0.0
C809 C 0.01305 0.55248 0.81695 0.0
C810 C 0.01376 0.59418 0.8632 0.0
H811 H 0.96715 0.65828 0.05973 0.0
H812 H 0.96784 0.62843 0.99987 0.0
H813 H 0.02619 0.61761 0.91323 0.0
H814 H 0.97837 0.54521 0.68615 0.0
H815 H 0.97388 0.57397 0.7492 0.0
H816 H 0.96456 0.58597 0.84334 0.0
C817 C 0.97869 0.6399 0.9923 0.0
C818 C 0.01256 0.61102 0.89799 0.0
C819 C 0.97832 0.65699 0.02682 0.0
C820 C 0.98823 0.54719 0.7223 0.0
C821 C 0.98551 0.5635 0.75894 0.0
C822 C 0.97811 0.59282 0.858 0.0
C823 C 0.99317 0.63747 0.94952 0.0
C824 C 0.99415 0.61913 0.91333 0.0
C825 C 0.99819 0.5666 0.80613 0.0
C826 C 0.99658 0.58474 0.84286 0.0
H827 H 0.01749 0.68117 0.968 0.0
H828 H 0.0181 0.65172 0.90848 0.0
H829 H 0.96245 0.61565 0.90326 0.0
H830 H 0.02742 0.52578 0.78977 0.0
H831 H 0.02273 0.55399 0.85366 0.0
C832 C 0.08295 0.22096 0.26059 0.0
C833 C 0.07713 0.21631 0.20435 0.0
C834 C 0.08081 0.20709 0.30442 0.0
C835 C 0.05758 0.18267 0.38927 0.0
H836 H 0.05869 0.12595 0.36405 0.0
C837 C 1.00188 0.13034 0.49066 0.0
C838 C 0.00715 0.11072 0.50311 0.0
C839 C 0.01552 0.14317 0.46593 0.0
C840 C 0.05865 0.14171 0.37256 0.0
H841 H 0.06537 0.19317 0.14948 0.0
H842 H 0.06141 0.16916 0.22555 0.0
H843 H 0.07526 0.14779 0.29677 0.0
H844 H 0.03126 0.08955 0.5032 0.0
H845 H 0.05516 0.11203 0.45951 0.0
H846 H 0.04067 0.17662 0.46444 0.0
C847 C 0.068 0.18333 0.23598 0.0
C848 C 0.06796 0.15426 0.33358 0.0
C849 C 0.07022 0.19715 0.19222 0.0
C850 C 0.02667 0.10449 0.49297 0.0
C851 C 0.04035 0.11736 0.46813 0.0
C852 C 0.04838 0.17014 0.42838 0.0
C853 C 0.0727 0.18833 0.2929 0.0
C854 C 0.0668 0.17492 0.34018 0.0
C855 C 0.03478 0.13672 0.45315 0.0
C856 C 0.04808 0.14958 0.41913 0.0
H857 H 0.08862 0.23553 0.271 0.0
H858 H 0.08488 0.21129 0.34765 0.0
H859 H 0.0563 0.1985 0.3957 0.0
H860 H 0.98691 0.13553 0.49735 0.0
H861 H 0.01059 0.15786 0.45407 0.0
C862 C 0.30007 0.08985 0.25547 0.0
C863 C 0.3043 0.08718 0.1971 0.0
C864 C 0.31468 0.08673 0.29686 0.0
C865 C 0.36867 0.07737 0.31749 0.0
H866 H 0.35026 0.04268 0.438 0.0
C867 C 0.41704 0.01841 0.42496 0.0
C868 C 0.41337 0.01311 0.48212 0.0
C869 C 0.40567 0.03295 0.39824 0.0
C870 C 0.35567 0.05273 0.40559 0.0
H871 H 0.3274 0.08005 0.13619 0.0
H872 H 0.35277 0.07439 0.20812 0.0
H873 H 0.32644 0.05872 0.37589 0.0
H874 H 0.396 0.02013 0.55739 0.0
H875 H 0.37601 0.04545 0.51056 0.0
H876 H 0.39803 0.07048 0.34584 0.0
C877 C 0.3383 0.07923 0.22213 0.0
C878 C 0.34197 0.06197 0.36986 0.0
C879 C 0.32372 0.08243 0.18079 0.0
C880 C 0.39887 0.02354 0.51294 0.0
C881 C 0.38747 0.03808 0.48619 0.0
C882 C 0.38241 0.06807 0.35326 0.0
C883 C 0.33381 0.08077 0.28073 0.0
C884 C 0.3483 0.07392 0.32429 0.0
C885 C 0.39035 0.04252 0.42803 0.0
C886 C 0.37606 0.05517 0.39661 0.0
H887 H 0.2853 0.09381 0.26922 0.0
H888 H 0.31084 0.08839 0.3416 0.0
H889 H 0.37402 0.08676 0.28339 0.0
H890 H 0.42799 0.01059 0.39979 0.0
H891 H 0.40814 0.03584 0.35324 0.0
C892 C 0.413 0.30064 0.24894 0.0
C893 C 0.41276 0.30303 0.18918 0.0
C894 C 0.41803 0.31649 0.28482 0.0
C895 C 0.42961 0.37075 0.28646 0.0
H896 H 0.47139 0.35454 0.39004 0.0
C897 C 0.48519 0.42663 0.38548 0.0
C898 C 0.50477 0.42098 0.37404 0.0
C899 C 0.46974 0.41301 0.37836 0.0
C900 C 0.45959 0.35932 0.36187 0.0
H901 H 0.41645 0.32424 0.12051 0.0
H902 H 0.42535 0.35166 0.18258 0.0
H903 H 0.45014 0.32965 0.34689 0.0
H904 H 0.52381 0.39669 0.34926 0.0
H905 H 0.49709 0.37297 0.33713 0.0
H906 H 0.4402 0.40038 0.29844 0.0
C907 C 0.42136 0.33772 0.20214 0.0
C908 C 0.44723 0.34506 0.3375 0.0
C909 C 0.41628 0.32192 0.16637 0.0
C910 C 0.5088 0.40139 0.35798 0.0
C911 C 0.4935 0.38779 0.35162 0.0
C912 C 0.44202 0.38505 0.31088 0.0
C913 C 0.42301 0.33502 0.26164 0.0
C914 C 0.43267 0.3505 0.29747 0.0
C915 C 0.47377 0.39349 0.36076 0.0
C916 C 0.45772 0.37934 0.34669 0.0
H917 H 0.41005 0.28633 0.26783 0.0
H918 H 0.41882 0.314 0.33054 0.0
H919 H 0.41829 0.37547 0.25659 0.0
H920 H 0.4818 0.44171 0.39777 0.0
H921 H 0.45467 0.41779 0.38574 0.0
C922 C 0.2148 0.42404 0.24825 0.0
C923 C 0.2135 0.41939 0.18962 0.0
C924 C 0.19786 0.42905 0.27918 0.0
C925 C 0.14304 0.4309 0.27556 0.0
H926 H 0.15033 0.48351 0.33922 0.0
C927 C 0.08047 0.48064 0.37292 0.0
C928 C 0.07957 0.49931 0.34665 0.0
C929 C 0.09636 0.46792 0.36198 0.0
C930 C 0.14813 0.46873 0.32221 0.0
H931 H 0.1931 0.41482 0.11888 0.0
H932 H 0.16366 0.4232 0.17303 0.0
H933 H 0.17905 0.46445 0.30862 0.0
H934 H 0.09434 0.51943 0.28885 0.0
H935 H 0.12229 0.49738 0.27058 0.0
H936 H 0.11192 0.43569 0.28751 0.0
C937 C 0.17776 0.42296 0.19511 0.0
C938 C 0.16455 0.45774 0.30521 0.0
C939 C 0.1947 0.41812 0.16404 0.0
C940 C 0.09468 0.50505 0.30925 0.0
C941 C 0.11069 0.49253 0.2992 0.0
C942 C 0.12658 0.44184 0.29341 0.0
C943 C 0.17928 0.42929 0.25224 0.0
C944 C 0.16214 0.43896 0.28011 0.0
C945 C 0.11173 0.47393 0.32569 0.0
C946 C 0.12901 0.46109 0.3151 0.0
H947 H 0.22902 0.42473 0.26958 0.0
H948 H 0.19939 0.43363 0.32346 0.0
H949 H 0.1408 0.41645 0.25646 0.0
H950 H 0.06889 0.47593 0.40181 0.0
H951 H 0.09688 0.45361 0.38273 0.0
C952 C 0.95563 0.79821 0.87004 0.0
C953 C 0.94732 0.79989 0.92492 0.0
C954 C 0.95171 0.81244 0.82839 0.0
C955 C 0.94382 0.86512 0.83083 0.0
H956 H 0.95312 0.8591 0.66805 0.0
C957 C 0.98758 0.92415 0.72332 0.0
C958 C 0.00424 0.91596 0.69613 0.0
C959 C 0.97059 0.9128 0.73162 0.0
C960 C 0.95037 0.86112 0.71334 0.0
H961 H 0.92639 0.81631 0.9767 0.0
H962 H 0.91955 0.84126 0.90381 0.0
H963 H 0.94007 0.83131 0.72286 0.0
H964 H 0.01474 0.89065 0.64761 0.0
H965 H 0.98589 0.87042 0.66552 0.0
H966 H 0.9556 0.89411 0.82326 0.0
C967 C 0.9294 0.82914 0.8934 0.0
C968 C 0.94283 0.84521 0.74469 0.0
C969 C 0.93336 0.81489 0.93519 0.0
C970 C 0.00252 0.89711 0.67102 0.0
C971 C 0.9857 0.88561 0.68037 0.0
C972 C 0.95143 0.88093 0.79972 0.0
C973 C 0.93942 0.82869 0.8407 0.0
C974 C 0.94065 0.84669 0.80443 0.0
C975 C 0.97007 0.89286 0.71421 0.0
C976 C 0.95601 0.87874 0.74128 0.0
H977 H 0.96653 0.78692 0.86069 0.0
H978 H 0.95985 0.81166 0.78857 0.0
H979 H 0.94245 0.86685 0.87676 0.0
H980 H 0.98816 0.93869 0.74269 0.0
H981 H 0.95855 0.91916 0.75601 0.0
C982 C 0.7207 0.95795 0.8861 0.0
C983 C 0.71347 0.95566 0.9421 0.0
C984 C 0.70806 0.95592 0.83908 0.0
C985 C 0.65498 0.94663 0.79766 0.0
H986 H 0.66317 0.99516 0.71321 0.0
C987 C 0.59384 1.00076 0.74091 0.0
C988 C 0.59719 0.01502 0.69841 0.0
C989 C 0.60743 0.98547 0.7495 0.0
C990 C 0.66068 0.9812 0.73467 0.0
H991 H 0.68802 0.94651 0.9918 0.0
H992 H 0.66576 0.9443 0.91067 0.0
H993 H 0.68981 0.98167 0.7686 0.0
H994 H 0.61552 0.02282 0.62606 0.0
H995 H 0.63912 0.99595 0.64042 0.0
H996 H 0.62516 0.94723 0.76635 0.0
C997 C 0.68118 0.94746 0.90252 0.0
C998 C 0.67615 0.97337 0.76679 0.0
C999 C 0.69391 0.9491 0.94941 0.0
C1000 C 0.61296 0.01234 0.66026 0.0
C1001 C 0.62642 0.99693 0.66843 0.0
C1002 C 0.63939 0.95454 0.76545 0.0
C1003 C 0.68782 0.952 0.84708 0.0
C1004 C 0.67324 0.95656 0.80109 0.0
C1005 C 0.62452 0.98411 0.71543 0.0
C1006 C 0.64182 0.97249 0.73591 0.0
H1007 H 0.73569 0.96285 0.87847 0.0
H1008 H 0.71384 0.9589 0.79679 0.0
H1009 H 0.65235 0.93338 0.82249 0.0
H1010 H 0.5817 1.00238 0.77074 0.0
H1011 H 0.60541 0.97592 0.78616 0.0
C1012 C 0.54266 0.72862 0.91355 0.0
C1013 C 0.5499 0.72507 0.96905 0.0
C1014 C 0.54426 0.7141 0.87105 0.0
C1015 C 0.56415 0.6632 0.84083 0.0
H1016 H 0.51189 0.65555 0.77629 0.0
C1017 C 0.5263 0.5884 0.81794 0.0
C1018 C 0.51122 0.58584 0.77713 0.0
C1019 C 0.53706 0.60601 0.82012 0.0
C1020 C 0.52679 0.65757 0.79235 0.0
H1021 H 0.56646 0.70443 0.0215 0.0
H1022 H 0.5684 0.67885 0.9487 0.0
H1023 H 0.5202 0.68691 0.8197 0.0
H1024 H 0.49711 0.59888 0.70265 0.0
H1025 H 0.51615 0.62942 0.70589 0.0
H1026 H 0.57005 0.63311 0.81686 0.0
C1027 C 0.56167 0.69284 0.93738 0.0
C1028 C 0.5316 0.67569 0.81738 0.0
C1029 C 0.56026 0.70742 0.9796 0.0
C1030 C 0.50853 0.6004 0.73492 0.0
C1031 C 0.51935 0.61799 0.73696 0.0
C1032 C 0.55927 0.64497 0.81599 0.0
C1033 C 0.55292 0.69566 0.88333 0.0
C1034 C 0.55001 0.67844 0.84433 0.0
C1035 C 0.53301 0.62139 0.78136 0.0
C1036 C 0.54021 0.6417 0.7938 0.0
H1037 H 0.53464 0.74207 0.9038 0.0
H1038 H 0.53773 0.71693 0.8295 0.0
H1039 H 0.57863 0.66497 0.86003 0.0
H1040 H 0.52907 0.57722 0.85012 0.0
H1041 H 0.54745 0.60812 0.85495 0.0
C1042 C 0.81093 0.58841 0.955 0.0
C1043 C 0.79828 0.57292 0.93829 0.0
C1044 C 0.82754 0.59304 0.92218 0.0
C1045 C 0.85546 0.57888 0.78941 0.0
H1046 H 0.8985 0.57309 0.8977 0.0
C1047 C 0.91998 0.52685 0.75471 0.0
C1048 C 0.93715 0.52883 0.78801 0.0
C1049 C 0.90521 0.54127 0.75704 0.0
C1050 C 0.88696 0.57531 0.86619 0.0
H1051 H 0.79196 0.55163 0.87102 0.0
H1052 H 0.82085 0.55948 0.81448 0.0
H1053 H 0.86655 0.58345 0.93135 0.0
H1054 H 0.95364 0.54852 0.84365 0.0
H1055 H 0.92815 0.5741 0.84634 0.0
H1056 H 0.87584 0.56947 0.72474 0.0
C1057 C 0.81798 0.56826 0.85241 0.0
C1058 C 0.86845 0.58131 0.88573 0.0
C1059 C 0.80135 0.5637 0.88505 0.0
C1060 C 0.94031 0.54649 0.81852 0.0
C1061 C 0.92568 0.56108 0.82012 0.0
C1062 C 0.87408 0.57295 0.76973 0.0
C1063 C 0.83188 0.58217 0.8723 0.0
C1064 C 0.85221 0.58207 0.84819 0.0
C1065 C 0.90745 0.55808 0.79229 0.0
C1066 C 0.88976 0.56998 0.80851 0.0
H1067 H 0.8087 0.59604 0.99531 0.0
H1068 H 0.83773 0.60415 0.93802 0.0
H1069 H 0.84333 0.57974 0.7592 0.0
H1070 H 0.91719 0.51337 0.73075 0.0
H1071 H 0.8914 0.5383 0.73517 0.0
C1072 C 0.01957 0.19418 0.89963 0.0
C1073 C 0.02748 0.21026 0.86903 0.0
C1074 C 0.01557 0.17607 0.8725 0.0
C1075 C 0.01245 0.15139 0.72697 0.0
H1076 H 0.01632 0.10394 0.81907 0.0
C1077 C 0.01604 0.06869 0.64391 0.0
C1078 C 1.00032 0.05714 0.66463 0.0
C1079 C 0.01929 0.08785 0.66545 0.0
C1080 C 0.01524 0.11707 0.79283 0.0
H1081 H 0.03641 0.2196 0.78396 0.0
H1082 H 0.0309 0.18793 0.73815 0.0
H1083 H 0.0223 0.13601 0.86309 0.0
H1084 H 0.97503 0.05695 0.72111 0.0
H1085 H 0.9813 0.09001 0.76082 0.0
H1086 H 0.00634 0.13183 0.65611 0.0
C1087 C 0.02725 0.18935 0.78304 0.0
C1088 C 0.0184 0.13561 0.81817 0.0
C1089 C 0.0308 0.20762 0.80989 0.0
C1090 C 0.98755 0.06536 0.70559 0.0
C1091 C 0.99108 0.08425 0.72811 0.0
C1092 C 0.00979 0.13272 0.70136 0.0
C1093 C 0.01978 0.17312 0.81397 0.0
C1094 C 0.01679 0.15319 0.78599 0.0
C1095 C 0.00701 0.09566 0.70848 0.0
C1096 C 0.01094 0.11542 0.73426 0.0
H1097 H 0.01694 0.19522 0.9452 0.0
H1098 H 0.00927 0.16433 0.89803 0.0
H1099 H 0.01072 0.16436 0.70042 0.0
H1100 H 0.02572 0.06294 0.61092 0.0
H1101 H 0.0316 0.09642 0.64936 0.0
C1102 C 0.32034 0.0277 0.89506 0.0
C1103 C 0.3056 0.03788 0.86425 0.0
C1104 C 0.338 0.02188 0.8688 0.0
C1105 C 0.36351 0.01811 0.72541 0.0
H1106 H 0.41012 0.01649 0.82198 0.0
C1107 C 0.44537 0.01704 0.64403 0.0
C1108 C 0.45751 1.0026 0.66931 0.0
C1109 C 0.42613 0.02023 0.66433 0.0
C1110 C 0.39724 0.01691 0.79444 0.0
H1111 H 0.29802 0.0489 0.77965 0.0
H1112 H 0.32918 0.04029 0.73556 0.0
H1113 H 0.37839 0.02462 0.86389 0.0
H1114 H 0.45873 0.97928 0.73246 0.0
H1115 H 0.42539 0.98533 0.76939 0.0
H1116 H 0.38304 0.0114 0.65549 0.0
C1117 C 0.32695 0.03624 0.77984 0.0
C1118 C 0.37886 0.02133 0.81857 0.0
C1119 C 0.30903 0.04158 0.80573 0.0
C1120 C 0.4498 0.99082 0.71327 0.0
C1121 C 0.43076 0.99426 0.73428 0.0
C1122 C 0.38206 0.01423 0.70105 0.0
C1123 C 0.34188 0.02653 0.81114 0.0
C1124 C 0.36159 0.02184 0.78467 0.0
C1125 C 0.4188 0.00912 0.71043 0.0
C1126 C 0.39908 0.01348 0.73544 0.0
H1127 H 0.31868 0.02467 0.94023 0.0
H1128 H 0.34869 0.0139 0.89438 0.0
H1129 H 0.35069 0.01794 0.69764 0.0
H1130 H 0.45078 0.02592 0.60885 0.0
H1131 H 0.41722 0.03178 0.64519 0.0
C1132 C 0.46828 0.29698 0.80673 0.0
C1133 C 0.46281 0.29838 0.86466 0.0
C1134 C 0.47406 0.31388 0.77629 0.0
C1135 C 0.48964 0.36659 0.7981 0.0
H1136 H 0.47281 0.37294 0.64038 0.0
C1137 C 0.48474 0.44249 0.68986 0.0
C1138 C 0.49389 0.4447 0.63632 0.0
C1139 C 0.48244 0.42379 0.71416 0.0
C1140 C 0.47779 0.37125 0.6842 0.0
H1141 H 0.45874 0.31874 0.93555 0.0
H1142 H 0.46834 0.34804 0.88279 0.0
H1143 H 0.46623 0.34181 0.69012 0.0
H1144 H 0.50765 0.42897 0.56592 0.0
H1145 H 0.5031 0.39595 0.60812 0.0
H1146 H 0.5004 0.39634 0.79278 0.0
C1147 C 0.46887 0.33389 0.86095 0.0
C1148 C 0.4741 0.35339 0.71276 0.0
C1149 C 0.4633 0.31703 0.89138 0.0
C1150 C 0.50048 0.4277 0.60715 0.0
C1151 C 0.49784 0.40885 0.63117 0.0
C1152 C 0.49306 0.38446 0.76986 0.0
C1153 C 0.47431 0.33263 0.80291 0.0
C1154 C 0.47967 0.35093 0.77052 0.0
C1155 C 0.48903 0.40678 0.68533 0.0
C1156 C 0.4869 0.3871 0.71294 0.0
H1157 H 0.46813 0.2828 0.78498 0.0
H1158 H 0.47838 0.31222 0.73194 0.0
H1159 H 0.49468 0.36515 0.84191 0.0
H1160 H 0.4799 0.45529 0.71404 0.0
H1161 H 0.4755 0.42264 0.75578 0.0
C1162 C 0.20869 0.48488 0.86924 0.0
C1163 C 0.21661 0.46565 0.86549 0.0
C1164 C 0.19106 0.48976 0.84078 0.0
C1165 C 0.15717 0.47269 0.72449 0.0
H1166 H 0.1184 0.50483 0.80385 0.0
C1167 C 0.07601 0.47945 0.64672 0.0
C1168 C 0.06641 0.49781 0.65276 0.0
C1169 C 0.09486 0.47638 0.66996 0.0
C1170 C 0.12914 0.49606 0.78065 0.0
H1171 H 0.2118 0.43644 0.8291 0.0
H1172 H 0.18135 0.44494 0.77963 0.0
H1173 H 0.15025 0.4982 0.84893 0.0
H1174 H 0.0696 0.52752 0.68678 0.0
H1175 H 0.10252 0.52234 0.72624 0.0
H1176 H 0.136 0.4704 0.65644 0.0
C1177 C 0.18892 0.4564 0.80362 0.0
C1178 C 0.14746 0.49226 0.80656 0.0
C1179 C 0.20649 0.45153 0.83202 0.0
C1180 C 0.07643 0.5132 0.68122 0.0
C1181 C 0.0953 0.51014 0.70447 0.0
C1182 C 0.13886 0.47649 0.69859 0.0
C1183 C 0.18087 0.47554 0.80782 0.0
C1184 C 0.16169 0.48039 0.77905 0.0
C1185 C 0.10472 0.49163 0.69968 0.0
C1186 C 0.12452 0.48812 0.72644 0.0
H1187 H 0.21613 0.4962 0.89411 0.0
H1188 H 0.18547 0.50473 0.84442 0.0
H1189 H 0.16785 0.46377 0.70151 0.0
H1190 H 0.06888 0.46732 0.62435 0.0
H1191 H 0.10152 0.46187 0.66572 0.0
C1192 C 0.00282 0.81122 0.36035 0.0
C1193 C 0.99003 0.81068 0.3128 0.0
C1194 C 0.00421 0.82821 0.39482 0.0
C1195 C 0.98023 0.87721 0.42678 0.0
H1196 H 0.03315 0.8913 0.47577 0.0
C1197 C 0.99714 0.94871 0.55989 0.0
C1198 C 0.01431 0.95909 0.54447 0.0
C1199 C 0.99324 0.92989 0.53658 0.0
C1200 C 0.01826 0.88771 0.46222 0.0
H1201 H 0.96833 0.82764 0.26528 0.0
H1202 H 0.97087 0.85722 0.3247 0.0
H1203 H 0.02766 0.86017 0.42619 0.0
H1204 H 0.04122 0.95768 0.49489 0.0
H1205 H 0.03427 0.92538 0.45291 0.0
H1206 H 0.97106 0.90524 0.46114 0.0
C1207 C 0.97962 0.84441 0.33621 0.0
C1208 C 0.01503 0.86961 0.43438 0.0
C1209 C 0.97814 0.82737 0.30197 0.0
C1210 C 0.02773 0.95011 0.50678 0.0
C1211 C 0.0238 0.93148 0.48321 0.0
C1212 C 0.98348 0.8954 0.45461 0.0
C1213 C 0.99297 0.84526 0.38253 0.0
C1214 C 0.99601 0.86412 0.4156 0.0
C1215 C 0.00654 0.92102 0.49775 0.0
C1216 C 0.00262 0.90105 0.47194 0.0
H1217 H 0.01202 0.79858 0.37048 0.0
H1218 H 0.01433 0.82802 0.4308 0.0
H1219 H 0.96532 0.87347 0.4138 0.0
H1220 H 0.98686 0.95504 0.59036 0.0
H1221 H 0.97996 0.9222 0.54959 0.0
C1222 C 0.68364 0.97892 0.30175 0.0
C1223 C 0.7011 0.98749 0.32333 0.0
C1224 C 0.66569 0.98112 0.33078 0.0
C1225 C 0.64338 0.99449 0.47058 0.0
H1226 H 0.59801 0.00913 0.37811 0.0
C1227 C 0.56435 0.00332 0.5648 0.0
C1228 C 0.55307 0.01931 0.54458 0.0
C1229 C 0.58242 0.99849 0.53914 0.0
C1230 C 0.61054 0.00514 0.40461 0.0
H1231 H 0.71342 0.00439 0.39389 0.0
H1232 H 0.68207 0.00823 0.44461 0.0
H1233 H 0.62953 1.00195 0.33193 0.0
H1234 H 0.55236 0.04359 0.48453 0.0
H1235 H 0.58382 0.03509 0.43906 0.0
H1236 H 0.62438 0.99789 0.54315 0.0
C1237 C 0.68229 0.99978 0.40514 0.0
C1238 C 0.62858 1.00079 0.37808 0.0
C1239 C 0.70025 0.99769 0.37588 0.0
C1240 C 0.56055 0.03087 0.49983 0.0
C1241 C 0.57852 0.02594 0.47377 0.0
C1242 C 0.62527 0.99868 0.49706 0.0
C1243 C 0.6647 0.99187 0.38234 0.0
C1244 C 0.64529 0.99559 0.41073 0.0
C1245 C 0.58963 0.0096 0.49281 0.0
C1246 C 0.60869 0.0043 0.46451 0.0
H1247 H 0.68364 0.97118 0.26108 0.0
H1248 H 0.65249 0.97462 0.31235 0.0
H1249 H 0.65587 0.99034 0.49702 0.0
H1250 H 0.55934 0.99464 0.60074 0.0
H1251 H 0.59058 0.98585 0.55504 0.0
C1252 C 0.54839 0.70339 0.3297 0.0
C1253 C 0.53687 0.71926 0.35 0.0
C1254 C 0.54794 0.68497 0.35688 0.0
C1255 C 0.53214 0.65854 0.4891 0.0
H1256 H 0.52902 0.61365 0.3857 0.0
C1257 C 0.50983 0.57898 0.56123 0.0
C1258 C 0.51996 0.56303 0.53572 0.0
C1259 C 0.513 0.59845 0.54265 0.0
C1260 C 0.53014 0.62596 0.41536 0.0
H1261 H 0.51676 0.72835 0.41736 0.0
H1262 H 0.51568 0.69612 0.46408 0.0
H1263 H 0.53318 0.64671 0.34714 0.0
H1264 H 0.5411 0.55533 0.46976 0.0
H1265 H 0.54697 0.58896 0.43859 0.0
H1266 H 0.5288 0.63759 0.55734 0.0
C1267 C 0.52515 0.69795 0.42717 0.0
C1268 C 0.53257 0.64498 0.39318 0.0
C1269 C 0.52564 0.71643 0.40001 0.0
C1270 C 0.5334 0.56712 0.49151 0.0
C1271 C 0.53652 0.58649 0.47289 0.0
C1272 C 0.52967 0.63943 0.51138 0.0
C1273 C 0.5359 0.68183 0.40504 0.0
C1274 C 0.53368 0.66155 0.42965 0.0
C1275 C 0.52621 0.60242 0.49765 0.0
C1276 C 0.52872 0.62287 0.47472 0.0
H1277 H 0.55707 0.70484 0.29105 0.0
H1278 H 0.55673 0.67303 0.33924 0.0
H1279 H 0.53307 0.67092 0.51853 0.0
H1280 H 0.49926 0.57644 0.5951 0.0
H1281 H 0.50466 0.61032 0.56242 0.0
C1282 C 0.8115 0.53933 0.31625 0.0
C1283 C 0.8004 0.52189 0.30869 0.0
C1284 C 0.828 0.53968 0.35271 0.0
C1285 C 0.85472 0.51046 0.46588 0.0
H1286 H 0.90006 0.54001 0.41184 0.0
C1287 C 0.9353 0.49644 0.54275 0.0
C1288 C 0.94755 0.513 0.55178 0.0
C1289 C 0.91626 0.49865 0.51989 0.0
C1290 C 0.88747 0.53186 0.42795 0.0
H1291 H 0.79743 0.49149 0.33705 0.0
H1292 H 0.82644 0.49185 0.39834 0.0
H1293 H 0.8689 0.54199 0.35994 0.0
H1294 H 0.94833 0.54507 0.54909 0.0
H1295 H 0.9155 0.54886 0.50727 0.0
H1296 H 0.87374 0.49975 0.53264 0.0
C1297 C 0.82236 0.5054 0.37676 0.0
C1298 C 0.86949 0.53305 0.39829 0.0
C1299 C 0.80577 0.50511 0.34078 0.0
C1300 C 0.93976 0.5319 0.54031 0.0
C1301 C 0.92084 0.53411 0.51674 0.0
C1302 C 0.87279 0.50909 0.49512 0.0
C1303 C 0.83401 0.52257 0.38239 0.0
C1304 C 0.85284 0.52225 0.41647 0.0
C1305 C 0.90897 0.51748 0.50534 0.0
C1306 C 0.88942 0.51967 0.47628 0.0
H1307 H 0.80801 0.55254 0.29213 0.0
H1308 H 0.83625 0.55334 0.35672 0.0
H1309 H 0.84222 0.50221 0.4821 0.0
H1310 H 0.94052 0.48166 0.55208 0.0
H1311 H 0.90749 0.48553 0.51174 0.0
loop_
_geom_bond_atom_site_label_1
_geom_bond_atom_site_label_2
_geom_bond_distance
_geom_bond_site_symmetry_2
_ccdc_geom_bond_type
P0 O11 1.490 . S
P0 C14 1.812 . S
P0 C20 1.803 . S
P0 C26 1.819 . S
H1 C15 0.941 . S
H2 C16 0.939 . S
H3 C18 0.940 . S
H4 C19 0.940 . S
H5 C21 0.939 . S
H6 C22 0.942 . S
H7 C24 0.940 . S
H8 C25 0.939 . S
H9 C27 0.941 . S
H10 C31 0.939 . S
O11 P0 1.490 . S
H12 C28 0.939 . S
H13 C30 0.940 . S
C14 P0 1.812 . S
C14 C15 1.389 . S
C14 C19 1.391 . S
C15 H1 0.941 . S
C15 C14 1.389 . S
C15 C16 1.397 . S
C16 H2 0.939 . S
C16 C15 1.397 . S
C16 C17 1.378 . S
C17 C16 1.378 . S
C17 C18 1.378 . S
C18 H3 0.940 . S
C18 C17 1.378 . S
C18 C19 1.396 . S
C19 H4 0.940 . S
C19 C14 1.391 . S
C19 C18 1.396 . S
C20 P0 1.803 . S
C20 C21 1.378 . S
C20 C25 1.400 . S
C21 H5 0.939 . S
C21 C20 1.378 . S
C21 C22 1.361 . S
C22 H6 0.942 . S
C22 C21 1.361 . S
C22 C23 1.369 . S
C23 C22 1.369 . S
C23 C24 1.404 . S
C24 H7 0.940 . S
C24 C23 1.404 . S
C24 C25 1.389 . S
C25 H8 0.939 . S
C25 C20 1.400 . S
C25 C24 1.389 . S
C26 P0 1.819 . S
C26 C27 1.391 . S
C26 C31 1.391 . S
C27 H9 0.941 . S
C27 C26 1.391 . S
C27 C28 1.396 . S
C28 H12 0.939 . S
C28 C27 1.396 . S
C28 C29 1.397 . S
C29 C28 1.397 . S
C29 C30 1.385 . S
C30 H13 0.940 . S
C30 C29 1.385 . S
C30 C31 1.388 . S
C31 H10 0.939 . S
C31 C26 1.391 . S
C31 C30 1.388 . S
P32 O43 1.490 . S
P32 C46 1.812 . S
P32 C52 1.803 . S
P32 C58 1.819 . S
H33 C47 0.941 . S
H34 C48 0.939 . S
H35 C50 0.940 . S
H36 C51 0.940 . S
H37 C53 0.939 . S
H38 C54 0.942 . S
H39 C56 0.940 . S
H40 C57 0.939 . S
H41 C59 0.941 . S
H42 C63 0.939 . S
O43 P32 1.490 . S
H44 C60 0.939 . S
H45 C62 0.940 . S
C46 P32 1.812 . S
C46 C47 1.389 . S
C46 C51 1.391 . S
C47 H33 0.941 . S
C47 C46 1.389 . S
C47 C48 1.397 . S
C48 H34 0.939 . S
C48 C47 1.397 . S
C48 C49 1.378 . S
C49 C48 1.378 . S
C49 C50 1.378 . S
C50 H35 0.940 . S
C50 C49 1.378 . S
C50 C51 1.396 . S
C51 H36 0.940 . S
C51 C46 1.391 . S
C51 C50 1.396 . S
C52 P32 1.803 . S
C52 C53 1.378 . S
C52 C57 1.400 . S
C53 H37 0.939 . S
C53 C52 1.378 . S
C53 C54 1.361 . S
C54 H38 0.942 . S
C54 C53 1.361 . S
C54 C55 1.369 . S
C55 C54 1.369 . S
C55 C56 1.404 . S
C56 H39 0.940 . S
C56 C55 1.404 . S
C56 C57 1.389 . S
C57 H40 0.939 . S
C57 C52 1.400 . S
C57 C56 1.389 . S
C58 P32 1.819 . S
C58 C59 1.391 . S
C58 C63 1.391 . S
C59 H41 0.941 . S
C59 C58 1.391 . S
C59 C60 1.396 . S
C60 H44 0.939 . S
C60 C59 1.396 . S
C60 C61 1.397 . S
C61 C60 1.397 . S
C61 C62 1.385 . S
C62 H45 0.940 . S
C62 C61 1.385 . S
C62 C63 1.388 . S
C63 H42 0.939 . S
C63 C58 1.391 . S
C63 C62 1.388 . S
P64 O75 1.490 . S
P64 C78 1.812 . S
P64 C84 1.803 . S
P64 C90 1.819 . S
H65 C79 0.941 . S
H66 C80 0.939 . S
H67 C82 0.940 . S
H68 C83 0.940 . S
H69 C85 0.939 . S
H70 C86 0.942 . S
H71 C88 0.940 . S
H72 C89 0.939 . S
H73 C91 0.941 . S
H74 C95 0.939 . S
O75 P64 1.490 . S
H76 C92 0.939 . S
H77 C94 0.940 . S
C78 P64 1.812 . S
C78 C79 1.389 . S
C78 C83 1.391 . S
C79 H65 0.941 . S
C79 C78 1.389 . S
C79 C80 1.397 . S
C80 H66 0.939 . S
C80 C79 1.397 . S
C80 C81 1.378 . S
C81 C80 1.378 . S
C81 C82 1.378 . S
C82 H67 0.940 . S
C82 C81 1.378 . S
C82 C83 1.396 . S
C83 H68 0.940 . S
C83 C78 1.391 . S
C83 C82 1.396 . S
C84 P64 1.803 . S
C84 C85 1.378 . S
C84 C89 1.400 . S
C85 H69 0.939 . S
C85 C84 1.378 . S
C85 C86 1.361 . S
C86 H70 0.942 . S
C86 C85 1.361 . S
C86 C87 1.369 . S
C87 C86 1.369 . S
C87 C88 1.404 . S
C88 H71 0.940 . S
C88 C87 1.404 . S
C88 C89 1.389 . S
C89 H72 0.939 . S
C89 C84 1.400 . S
C89 C88 1.389 . S
C90 P64 1.819 . S
C90 C91 1.391 . S
C90 C95 1.391 . S
C91 H73 0.941 . S
C91 C90 1.391 . S
C91 C92 1.396 . S
C92 H76 0.939 . S
C92 C91 1.396 . S
C92 C93 1.397 . S
C93 C92 1.397 . S
C93 C94 1.385 . S
C94 H77 0.940 . S
C94 C93 1.385 . S
C94 C95 1.388 . S
C95 H74 0.939 . S
C95 C90 1.391 . S
C95 C94 1.388 . S
P96 O107 1.490 . S
P96 C110 1.812 . S
P96 C116 1.803 . S
P96 C122 1.819 . S
H97 C111 0.941 . S
H98 C112 0.939 . S
H99 C114 0.940 . S
H100 C115 0.940 . S
H101 C117 0.939 . S
H102 C118 0.942 . S
H103 C120 0.940 . S
H104 C121 0.939 . S
H105 C123 0.941 . S
H106 C127 0.939 . S
O107 P96 1.490 . S
H108 C124 0.939 . S
H109 C126 0.940 . S
C110 P96 1.812 . S
C110 C111 1.389 . S
C110 C115 1.391 . S
C111 H97 0.941 . S
C111 C110 1.389 . S
C111 C112 1.397 . S
C112 H98 0.939 . S
C112 C111 1.397 . S
C112 C113 1.378 . S
C113 C112 1.378 . S
C113 C114 1.378 . S
C114 H99 0.940 . S
C114 C113 1.378 . S
C114 C115 1.396 . S
C115 H100 0.940 . S
C115 C110 1.391 . S
C115 C114 1.396 . S
C116 P96 1.803 . S
C116 C117 1.378 . S
C116 C121 1.400 . S
C117 H101 0.939 . S
C117 C116 1.378 . S
C117 C118 1.361 . S
C118 H102 0.942 . S
C118 C117 1.361 . S
C118 C119 1.369 . S
C119 C118 1.369 . S
C119 C120 1.404 . S
C120 H103 0.940 . S
C120 C119 1.404 . S
C120 C121 1.389 . S
C121 H104 0.939 . S
C121 C116 1.400 . S
C121 C120 1.389 . S
C122 P96 1.819 . S
C122 C123 1.391 . S
C122 C127 1.391 . S
C123 H105 0.941 . S
C123 C122 1.391 . S
C123 C124 1.396 . S
C124 H108 0.939 . S
C124 C123 1.396 . S
C124 C125 1.397 . S
C125 C124 1.397 . S
C125 C126 1.385 . S
C126 H109 0.940 . S
C126 C125 1.385 . S
C126 C127 1.388 . S
C127 H106 0.939 . S
C127 C122 1.391 . S
C127 C126 1.388 . S
P128 O139 1.490 . S
P128 C142 1.812 1_554 S
P128 C148 1.803 . S
P128 C154 1.819 . S
H129 C143 0.941 . S
H130 C144 0.939 . S
H131 C146 0.940 . S
H132 C147 0.940 . S
H133 C149 0.939 . S
H134 C150 0.942 . S
H135 C152 0.940 . S
H136 C153 0.939 1_556 S
H137 C155 0.941 . S
H138 C159 0.939 . S
O139 P128 1.490 . S
H140 C156 0.939 . S
H141 C158 0.940 . S
C142 P128 1.812 1_556 S
C142 C143 1.389 . S
C142 C147 1.391 . S
C143 H129 0.941 . S
C143 C142 1.389 . S
C143 C144 1.397 . S
C144 H130 0.939 . S
C144 C143 1.397 . S
C144 C145 1.378 . S
C145 C144 1.378 . S
C145 C146 1.378 . S
C146 H131 0.940 . S
C146 C145 1.378 . S
C146 C147 1.396 . S
C147 H132 0.940 . S
C147 C142 1.391 . S
C147 C146 1.396 . S
C148 P128 1.803 . S
C148 C149 1.378 . S
C148 C153 1.400 . S
C149 H133 0.939 . S
C149 C148 1.378 . S
C149 C150 1.361 . S
C150 H134 0.942 . S
C150 C149 1.361 . S
C150 C151 1.369 . S
C151 C150 1.369 . S
C151 C152 1.404 . S
C152 H135 0.940 . S
C152 C151 1.404 . S
C152 C153 1.389 . S
C153 H136 0.939 1_554 S
C153 C148 1.400 . S
C153 C152 1.389 . S
C154 P128 1.819 . S
C154 C155 1.391 . S
C154 C159 1.391 . S
C155 H137 0.941 . S
C155 C154 1.391 . S
C155 C156 1.396 . S
C156 H140 0.939 . S
C156 C155 1.396 . S
C156 C157 1.397 . S
C157 C156 1.397 . S
C157 C158 1.385 . S
C158 H141 0.940 . S
C158 C157 1.385 . S
C158 C159 1.388 . S
C159 H138 0.939 . S
C159 C154 1.391 . S
C159 C158 1.388 . S
P160 O171 1.490 . S
P160 C174 1.812 1_554 S
P160 C180 1.803 . S
P160 C186 1.819 . S
H161 C175 0.941 . S
H162 C176 0.939 . S
H163 C178 0.940 . S
H164 C179 0.940 . S
H165 C181 0.939 . S
H166 C182 0.942 . S
H167 C184 0.940 . S
H168 C185 0.939 1_556 S
H169 C187 0.941 . S
H170 C191 0.939 . S
O171 P160 1.490 . S
H172 C188 0.939 . S
H173 C190 0.940 . S
C174 P160 1.812 1_556 S
C174 C175 1.389 . S
C174 C179 1.391 . S
C175 H161 0.941 . S
C175 C174 1.389 . S
C175 C176 1.397 . S
C176 H162 0.939 . S
C176 C175 1.397 . S
C176 C177 1.378 . S
C177 C176 1.378 . S
C177 C178 1.378 . S
C178 H163 0.940 . S
C178 C177 1.378 . S
C178 C179 1.396 . S
C179 H164 0.940 . S
C179 C174 1.391 . S
C179 C178 1.396 . S
C180 P160 1.803 . S
C180 C181 1.378 . S
C180 C185 1.400 . S
C181 H165 0.939 . S
C181 C180 1.378 . S
C181 C182 1.361 . S
C182 H166 0.942 . S
C182 C181 1.361 . S
C182 C183 1.369 . S
C183 C182 1.369 . S
C183 C184 1.404 . S
C184 H167 0.940 . S
C184 C183 1.404 . S
C184 C185 1.389 . S
C185 H168 0.939 1_554 S
C185 C180 1.400 . S
C185 C184 1.389 . S
C186 P160 1.819 . S
C186 C187 1.391 . S
C186 C191 1.391 . S
C187 H169 0.941 . S
C187 C186 1.391 . S
C187 C188 1.396 . S
C188 H172 0.939 . S
C188 C187 1.396 . S
C188 C189 1.397 . S
C189 C188 1.397 . S
C189 C190 1.385 . S
C190 H173 0.940 . S
C190 C189 1.385 . S
C190 C191 1.388 . S
C191 H170 0.939 . S
C191 C186 1.391 . S
C191 C190 1.388 . S
P192 O203 1.490 . S
P192 C206 1.812 1_554 S
P192 C212 1.803 . S
P192 C218 1.819 . S
H193 C207 0.941 . S
H194 C208 0.939 . S
H195 C210 0.940 . S
H196 C211 0.940 . S
H197 C213 0.939 . S
H198 C214 0.942 . S
H199 C216 0.940 . S
H200 C217 0.939 1_556 S
H201 C219 0.941 . S
H202 C223 0.939 . S
O203 P192 1.490 . S
H204 C220 0.939 . S
H205 C222 0.940 . S
C206 P192 1.812 1_556 S
C206 C207 1.389 . S
C206 C211 1.391 . S
C207 H193 0.941 . S
C207 C206 1.389 . S
C207 C208 1.397 . S
C208 H194 0.939 . S
C208 C207 1.397 . S
C208 C209 1.378 . S
C209 C208 1.378 . S
C209 C210 1.378 . S
C210 H195 0.940 . S
C210 C209 1.378 . S
C210 C211 1.396 . S
C211 H196 0.940 . S
C211 C206 1.391 . S
C211 C210 1.396 . S
C212 P192 1.803 . S
C212 C213 1.378 . S
C212 C217 1.400 . S
C213 H197 0.939 . S
C213 C212 1.378 . S
C213 C214 1.361 . S
C214 H198 0.942 . S
C214 C213 1.361 . S
C214 C215 1.369 . S
C215 C214 1.369 . S
C215 C216 1.404 . S
C216 H199 0.940 . S
C216 C215 1.404 . S
C216 C217 1.389 . S
C217 H200 0.939 1_554 S
C217 C212 1.400 . S
C217 C216 1.389 . S
C218 P192 1.819 . S
C218 C219 1.391 . S
C218 C223 1.391 . S
C219 H201 0.941 . S
C219 C218 1.391 . S
C219 C220 1.396 . S
C220 H204 0.939 . S
C220 C219 1.396 . S
C220 C221 1.397 . S
C221 C220 1.397 . S
C221 C222 1.385 . S
C222 H205 0.940 . S
C222 C221 1.385 . S
C222 C223 1.388 . S
C223 H202 0.939 . S
C223 C218 1.391 . S
C223 C222 1.388 . S
P224 O235 1.490 . S
P224 C238 1.812 1_554 S
P224 C244 1.803 . S
P224 C250 1.819 . S
H225 C239 0.941 . S
H226 C240 0.939 . S
H227 C242 0.940 . S
H228 C243 0.940 . S
H229 C245 0.939 . S
H230 C246 0.942 . S
H231 C248 0.940 . S
H232 C249 0.939 1_556 S
H233 C251 0.941 . S
H234 C255 0.939 . S
O235 P224 1.490 . S
H236 C252 0.939 . S
H237 C254 0.940 . S
C238 P224 1.812 1_556 S
C238 C239 1.389 . S
C238 C243 1.391 . S
C239 H225 0.941 . S
C239 C238 1.389 . S
C239 C240 1.397 . S
C240 H226 0.939 . S
C240 C239 1.397 . S
C240 C241 1.378 . S
C241 C240 1.378 . S
C241 C242 1.378 . S
C242 H227 0.940 . S
C242 C241 1.378 . S
C242 C243 1.396 . S
C243 H228 0.940 . S
C243 C238 1.391 . S
C243 C242 1.396 . S
C244 P224 1.803 . S
C244 C245 1.378 . S
C244 C249 1.400 . S
C245 H229 0.939 . S
C245 C244 1.378 . S
C245 C246 1.361 . S
C246 H230 0.942 . S
C246 C245 1.361 . S
C246 C247 1.369 . S
C247 C246 1.369 . S
C247 C248 1.404 . S
C248 H231 0.940 . S
C248 C247 1.404 . S
C248 C249 1.389 . S
C249 H232 0.939 1_554 S
C249 C244 1.400 . S
C249 C248 1.389 . S
C250 P224 1.819 . S
C250 C251 1.391 . S
C250 C255 1.391 . S
C251 H233 0.941 . S
C251 C250 1.391 . S
C251 C252 1.396 . S
C252 H236 0.939 . S
C252 C251 1.396 . S
C252 C253 1.397 . S
C253 C252 1.397 . S
C253 C254 1.385 . S
C254 H237 0.940 . S
C254 C253 1.385 . S
C254 C255 1.388 . S
C255 H234 0.939 . S
C255 C250 1.391 . S
C255 C254 1.388 . S
Eu256 N287 2.657 1_565 S
Eu256 N294 2.609 . S
Eu256 O300 2.558 . S
Eu256 O301 2.612 1_455 S
Eu256 O303 2.339 1_455 S
Eu256 O304 2.563 . S
Eu256 O305 2.419 . S
Eu256 O307 2.380 1_565 S
Eu256 O308 2.432 . S
Eu256 C320 2.848 . S
C257 C260 1.429 1_545 S
C257 C261 1.411 . S
C257 N264 1.377 . S
C258 C260 1.420 . S
C258 C262 1.423 . S
C258 C270 1.392 . S
C259 C261 1.420 1_565 S
C259 C262 1.351 . S
C259 H282 0.931 . S
C260 C257 1.429 1_565 S
C260 C258 1.420 . S
C260 N268 1.362 1_565 S
C261 C257 1.411 . S
C261 C259 1.420 1_545 S
C261 C266 1.395 . S
C262 C258 1.423 . S
C262 C259 1.351 . S
C262 H274 0.930 . S
C263 C265 1.400 . S
C263 C266 1.386 . S
C263 H275 0.930 . S
N264 C257 1.377 . S
N264 C265 1.321 . S
N264 Eu267 2.609 . S
C265 C263 1.400 . S
C265 N264 1.321 . S
C265 H272 0.930 . S
C266 C261 1.395 . S
C266 C263 1.386 . S
C266 H285 0.930 . S
Eu267 N264 2.609 . S
Eu267 N268 2.657 . S
Eu267 O301 2.380 1_545 S
Eu267 O302 2.432 . S
Eu267 O306 2.558 . S
Eu267 O307 2.612 1_655 S
Eu267 O309 2.339 1_655 S
Eu267 O310 2.563 1_655 S
Eu267 O311 2.419 . S
Eu267 C331 2.848 . S
N268 C260 1.362 1_545 S
N268 Eu267 2.657 . S
N268 C269 1.334 1_645 S
C269 N268 1.334 1_465 S
C269 C271 1.413 . S
C269 H276 0.929 . S
C270 C258 1.392 . S
C270 C271 1.367 1_655 S
C270 H278 0.930 . S
C271 C269 1.413 . S
C271 C270 1.367 1_455 S
C271 H273 0.930 . S
H272 C265 0.930 . S
H273 C271 0.930 . S
H274 C262 0.930 . S
H275 C263 0.930 . S
H276 C269 0.929 . S
H277 C291 0.930 1_655 S
H278 C270 0.930 . S
H279 C297 0.930 . S
H280 C288 0.929 1_655 S
H281 C295 0.930 . S
H282 C259 0.931 . S
H283 C289 0.930 . S
H284 C322 0.930 . S
H285 C266 0.930 . S
H286 C321 0.931 . S
N287 Eu256 2.657 1_545 S
N287 C288 1.334 . S
N287 C292 1.362 . S
C288 H280 0.929 1_455 S
C288 N287 1.334 . S
C288 C291 1.413 . S
C289 H283 0.930 . S
C289 C290 1.392 . S
C289 C291 1.367 . S
C290 C289 1.392 . S
C290 C292 1.420 . S
C290 C322 1.423 . S
C291 H277 0.930 1_455 S
C291 C288 1.413 . S
C291 C289 1.367 . S
C292 N287 1.362 . S
C292 C290 1.420 . S
C292 C296 1.429 . S
H293 C298 0.930 . S
N294 Eu256 2.609 . S
N294 C296 1.377 1_565 S
N294 C297 1.321 . S
C295 H281 0.930 . S
C295 C297 1.400 . S
C295 C298 1.386 . S
C296 C292 1.429 . S
C296 N294 1.377 1_545 S
C296 C299 1.411 . S
C297 H279 0.930 . S
C297 N294 1.321 . S
C297 C295 1.400 . S
C298 H293 0.930 . S
C298 C295 1.386 . S
C298 C299 1.395 1_565 S
C299 C296 1.411 . S
C299 C298 1.395 1_545 S
C299 C321 1.420 . S
O300 Eu256 2.558 . S
O300 C320 1.257 . S
O301 Eu256 2.612 1_655 S
O301 Eu267 2.380 1_565 S
O301 C312 1.276 . S
O302 Eu267 2.432 . S
O302 C319 1.264 . S
O303 Eu256 2.339 1_655 S
O303 C319 1.254 1_565 S
O304 Eu256 2.563 . S
O304 C312 1.235 1_455 S
O305 Eu256 2.419 . S
O305 C320 1.249 . S
O306 Eu267 2.558 . S
O306 C331 1.257 . S
O307 Eu256 2.380 1_545 S
O307 Eu267 2.612 1_455 S
O307 C323 1.276 . S
O308 Eu256 2.432 . S
O308 C330 1.264 1_565 S
O309 Eu267 2.339 1_455 S
O309 C330 1.254 . S
O310 Eu267 2.563 1_455 S
O310 C323 1.235 . S
O311 Eu267 2.419 . S
O311 C331 1.249 . S
C312 O301 1.276 . S
C312 O304 1.235 1_655 S
C313 C315 1.393 . S
C313 C317 1.395 . S
C313 C320 1.492 . S
C314 C315 1.392 . S
C314 C316 1.386 . S
C315 C313 1.393 . S
C315 C314 1.392 . S
C315 H332 0.930 1_455 S
C316 C314 1.386 . S
C316 C318 1.395 . S
C316 H333 0.930 . S
C317 C313 1.395 . S
C317 C318 1.379 . S
C317 H334 0.930 . S
C318 C316 1.395 . S
C318 C317 1.379 . S
C318 H335 0.930 . S
C319 O302 1.264 . S
C319 O303 1.254 1_545 S
C320 Eu256 2.848 . S
C320 O300 1.257 . S
C320 O305 1.249 . S
C320 C313 1.492 . S
C321 H286 0.931 . S
C321 C299 1.420 . S
C321 C322 1.351 . S
C322 H284 0.930 . S
C322 C290 1.423 . S
C322 C321 1.351 . S
C323 O307 1.276 . S
C323 O310 1.235 . S
C324 C325 1.393 . S
C324 C328 1.395 . S
C324 C331 1.492 . S
C325 C324 1.393 . S
C325 C326 1.392 . S
C325 H336 0.930 1_655 S
C326 C325 1.392 . S
C326 C327 1.386 . S
C327 C326 1.386 . S
C327 C329 1.395 . S
C327 H337 0.930 . S
C328 C324 1.395 . S
C328 C329 1.379 . S
C328 H338 0.930 . S
C329 C327 1.395 . S
C329 C328 1.379 . S
C329 H339 0.930 . S
C330 O308 1.264 1_545 S
C330 O309 1.254 . S
C331 Eu267 2.848 . S
C331 O306 1.257 . S
C331 O311 1.249 . S
C331 C324 1.492 . S
H332 C315 0.930 1_655 S
H333 C316 0.930 . S
H334 C317 0.930 . S
H335 C318 0.930 . S
H336 C325 0.930 1_455 S
H337 C327 0.930 . S
H338 C328 0.930 . S
H339 C329 0.930 . S
Eu340 N371 2.657 . S
Eu340 N378 2.609 . S
Eu340 O384 2.558 . S
Eu340 O385 2.612 1_545 S
Eu340 O387 2.339 1_545 S
Eu340 O388 2.563 . S
Eu340 O389 2.419 . S
Eu340 O391 2.380 . S
Eu340 O392 2.432 . S
Eu340 C404 2.848 . S
C341 C344 1.429 . S
C341 C345 1.411 . S
C341 N348 1.377 . S
C342 C344 1.420 . S
C342 C346 1.423 . S
C342 C354 1.392 . S
C343 C345 1.420 . S
C343 C346 1.351 . S
C343 H366 0.931 . S
C344 C341 1.429 . S
C344 C342 1.420 . S
C344 N352 1.362 . S
C345 C341 1.411 . S
C345 C343 1.420 . S
C345 C350 1.395 . S
C346 C342 1.423 . S
C346 C343 1.351 . S
C346 H358 0.930 . S
C347 C349 1.400 . S
C347 C350 1.386 . S
C347 H359 0.930 . S
N348 C341 1.377 . S
N348 C349 1.321 . S
N348 Eu351 2.609 . S
C349 C347 1.400 . S
C349 N348 1.321 . S
C349 H356 0.930 . S
C350 C345 1.395 . S
C350 C347 1.386 . S
C350 H369 0.930 . S
Eu351 N348 2.609 . S
Eu351 N352 2.657 . S
Eu351 O385 2.380 . S
Eu351 O386 2.432 . S
Eu351 O390 2.558 . S
Eu351 O391 2.612 1_565 S
Eu351 O393 2.339 1_565 S
Eu351 O394 2.563 1_565 S
Eu351 O395 2.419 . S
Eu351 C415 2.848 . S
N352 C344 1.362 . S
N352 Eu351 2.657 . S
N352 C353 1.334 1_565 S
C353 N352 1.334 1_545 S
C353 C355 1.413 . S
C353 H360 0.929 . S
C354 C342 1.392 . S
C354 C355 1.367 1_565 S
C354 H362 0.930 . S
C355 C353 1.413 . S
C355 C354 1.367 1_545 S
C355 H357 0.930 . S
H356 C349 0.930 . S
H357 C355 0.930 . S
H358 C346 0.930 . S
H359 C347 0.930 . S
H360 C353 0.929 . S
H361 C375 0.930 1_565 S
H362 C354 0.930 . S
H363 C381 0.930 . S
H364 C372 0.929 1_565 S
H365 C379 0.930 . S
H366 C343 0.931 . S
H367 C373 0.930 . S
H368 C406 0.930 . S
H369 C350 0.930 . S
H370 C405 0.931 . S
N371 Eu340 2.657 . S
N371 C372 1.334 . S
N371 C376 1.362 . S
C372 H364 0.929 1_545 S
C372 N371 1.334 . S
C372 C375 1.413 . S
C373 H367 0.930 . S
C373 C374 1.392 . S
C373 C375 1.367 . S
C374 C373 1.392 . S
C374 C376 1.420 . S
C374 C406 1.423 . S
C375 H361 0.930 1_545 S
C375 C372 1.413 . S
C375 C373 1.367 . S
C376 N371 1.362 . S
C376 C374 1.420 . S
C376 C380 1.429 . S
H377 C382 0.930 . S
N378 Eu340 2.609 . S
N378 C380 1.377 . S
N378 C381 1.321 . S
C379 H365 0.930 . S
C379 C381 1.400 . S
C379 C382 1.386 . S
C380 C376 1.429 . S
C380 N378 1.377 . S
C380 C383 1.411 . S
C381 H363 0.930 . S
C381 N378 1.321 . S
C381 C379 1.400 . S
C382 H377 0.930 . S
C382 C379 1.386 . S
C382 C383 1.395 . S
C383 C380 1.411 . S
C383 C382 1.395 . S
C383 C405 1.420 . S
O384 Eu340 2.558 . S
O384 C404 1.257 . S
O385 Eu340 2.612 1_565 S
O385 Eu351 2.380 . S
O385 C396 1.276 . S
O386 Eu351 2.432 . S
O386 C403 1.264 . S
O387 Eu340 2.339 1_565 S
O387 C403 1.254 . S
O388 Eu340 2.563 . S
O388 C396 1.235 1_545 S
O389 Eu340 2.419 . S
O389 C404 1.249 . S
O390 Eu351 2.558 . S
O390 C415 1.257 . S
O391 Eu340 2.380 . S
O391 Eu351 2.612 1_545 S
O391 C407 1.276 . S
O392 Eu340 2.432 . S
O392 C414 1.264 . S
O393 Eu351 2.339 1_545 S
O393 C414 1.254 . S
O394 Eu351 2.563 1_545 S
O394 C407 1.235 . S
O395 Eu351 2.419 . S
O395 C415 1.249 . S
C396 O385 1.276 . S
C396 O388 1.235 1_565 S
C397 C399 1.393 . S
C397 C401 1.395 . S
C397 C404 1.492 . S
C398 C399 1.392 . S
C398 C400 1.386 . S
C399 C397 1.393 . S
C399 C398 1.392 . S
C399 H416 0.964 . S
C400 C398 1.386 . S
C400 C402 1.395 . S
C400 H417 0.930 . S
C401 C397 1.395 . S
C401 C402 1.379 . S
C401 H418 0.930 . S
C402 C400 1.395 . S
C402 C401 1.379 . S
C402 H419 0.930 . S
C403 O386 1.264 . S
C403 O387 1.254 . S
C404 Eu340 2.848 . S
C404 O384 1.257 . S
C404 O389 1.249 . S
C404 C397 1.492 . S
C405 H370 0.931 . S
C405 C383 1.420 . S
C405 C406 1.351 . S
C406 H368 0.930 . S
C406 C374 1.423 . S
C406 C405 1.351 . S
C407 O391 1.276 . S
C407 O394 1.235 . S
C408 C409 1.393 . S
C408 C412 1.395 . S
C408 C415 1.492 . S
C409 C408 1.393 . S
C409 C410 1.392 . S
C409 H420 0.930 1_565 S
C410 C409 1.392 . S
C410 C411 1.386 . S
C411 C410 1.386 . S
C411 C413 1.395 . S
C411 H421 0.930 . S
C412 C408 1.395 . S
C412 C413 1.379 . S
C412 H422 0.930 . S
C413 C411 1.395 . S
C413 C412 1.379 . S
C413 H423 0.930 . S
C414 O392 1.264 . S
C414 O393 1.254 . S
C415 Eu351 2.848 . S
C415 O390 1.257 . S
C415 O395 1.249 . S
C415 C408 1.492 . S
H416 C399 0.964 . S
H417 C400 0.930 . S
H418 C401 0.930 . S
H419 C402 0.930 . S
H420 C409 0.930 1_545 S
H421 C411 0.930 . S
H422 C412 0.930 . S
H423 C413 0.930 . S
Eu424 N455 2.657 . S
Eu424 N462 2.609 . S
Eu424 O468 2.558 . S
Eu424 O469 2.612 . S
Eu424 O471 2.339 . S
Eu424 O472 2.563 . S
Eu424 O473 2.419 . S
Eu424 O475 2.380 . S
Eu424 O476 2.432 . S
Eu424 C488 2.848 . S
C425 C428 1.429 . S
C425 C429 1.411 . S
C425 N432 1.377 . S
C426 C428 1.420 . S
C426 C430 1.423 . S
C426 C438 1.392 . S
C427 C429 1.420 . S
C427 C430 1.351 . S
C427 H450 0.931 . S
C428 C425 1.429 . S
C428 C426 1.420 . S
C428 N436 1.362 . S
C429 C425 1.411 . S
C429 C427 1.420 . S
C429 C434 1.395 . S
C430 C426 1.423 . S
C430 C427 1.351 . S
C430 H442 0.930 . S
C431 C433 1.400 . S
C431 C434 1.386 . S
C431 H443 0.930 . S
N432 C425 1.377 . S
N432 C433 1.321 . S
N432 Eu435 2.609 . S
C433 C431 1.400 . S
C433 N432 1.321 . S
C433 H440 0.930 . S
C434 C429 1.395 . S
C434 C431 1.386 . S
C434 H453 0.930 . S
Eu435 N432 2.609 . S
Eu435 N436 2.657 . S
Eu435 O469 2.380 . S
Eu435 O470 2.432 . S
Eu435 O474 2.558 . S
Eu435 O475 2.612 . S
Eu435 O477 2.339 . S
Eu435 O478 2.563 . S
Eu435 O479 2.419 . S
Eu435 C499 2.848 . S
N436 C428 1.362 . S
N436 Eu435 2.657 . S
N436 C437 1.334 . S
C437 N436 1.334 . S
C437 C439 1.413 . S
C437 H444 0.929 . S
C438 C426 1.392 . S
C438 C439 1.367 . S
C438 H446 0.930 . S
C439 C437 1.413 . S
C439 C438 1.367 . S
C439 H441 0.930 . S
H440 C433 0.930 . S
H441 C439 0.930 . S
H442 C430 0.930 . S
H443 C431 0.930 . S
H444 C437 0.929 . S
H445 C459 0.930 . S
H446 C438 0.930 . S
H447 C465 0.930 . S
H448 C456 0.929 . S
H449 C463 0.930 . S
H450 C427 0.931 . S
H451 C457 0.930 . S
H452 C490 0.930 . S
H453 C434 0.930 . S
H454 C489 0.931 . S
N455 Eu424 2.657 . S
N455 C456 1.334 . S
N455 C460 1.362 . S
C456 H448 0.929 . S
C456 N455 1.334 . S
C456 C459 1.413 . S
C457 H451 0.930 . S
C457 C458 1.392 . S
C457 C459 1.367 . S
C458 C457 1.392 . S
C458 C460 1.420 . S
C458 C490 1.423 . S
C459 H445 0.930 . S
C459 C456 1.413 . S
C459 C457 1.367 . S
C460 N455 1.362 . S
C460 C458 1.420 . S
C460 C464 1.429 . S
H461 C466 0.930 . S
N462 Eu424 2.609 . S
N462 C464 1.377 . S
N462 C465 1.321 . S
C463 H449 0.930 . S
C463 C465 1.400 . S
C463 C466 1.386 . S
C464 C460 1.429 . S
C464 N462 1.377 . S
C464 C467 1.411 . S
C465 H447 0.930 . S
C465 N462 1.321 . S
C465 C463 1.400 . S
C466 H461 0.930 . S
C466 C463 1.386 . S
C466 C467 1.395 . S
C467 C464 1.411 . S
C467 C466 1.395 . S
C467 C489 1.420 . S
O468 Eu424 2.558 . S
O468 C488 1.257 . S
O469 Eu424 2.612 . S
O469 Eu435 2.380 . S
O469 C480 1.276 . S
O470 Eu435 2.432 . S
O470 C487 1.264 . S
O471 Eu424 2.339 . S
O471 C487 1.254 . S
O472 Eu424 2.563 . S
O472 C480 1.235 . S
O473 Eu424 2.419 . S
O473 C488 1.249 . S
O474 Eu435 2.558 . S
O474 C499 1.257 . S
O475 Eu424 2.380 . S
O475 Eu435 2.612 . S
O475 C491 1.276 . S
O476 Eu424 2.432 . S
O476 C498 1.264 . S
O477 Eu435 2.339 . S
O477 C498 1.254 . S
O478 Eu435 2.563 . S
O478 C491 1.235 . S
O479 Eu435 2.419 . S
O479 C499 1.249 . S
C480 O469 1.276 . S
C480 O472 1.235 . S
C481 C483 1.393 . S
C481 C485 1.395 . S
C481 C488 1.492 . S
C482 C483 1.392 . S
C482 C484 1.386 . S
C483 C481 1.393 . S
C483 C482 1.392 . S
C483 H500 0.930 . S
C484 C482 1.386 . S
C484 C486 1.395 . S
C484 H501 0.930 . S
C485 C481 1.395 . S
C485 C486 1.379 . S
C485 H502 0.930 . S
C486 C484 1.395 . S
C486 C485 1.379 . S
C486 H503 0.930 . S
C487 O470 1.264 . S
C487 O471 1.254 . S
C488 Eu424 2.848 . S
C488 O468 1.257 . S
C488 O473 1.249 . S
C488 C481 1.492 . S
C489 H454 0.931 . S
C489 C467 1.420 . S
C489 C490 1.351 . S
C490 H452 0.930 . S
C490 C458 1.423 . S
C490 C489 1.351 . S
C491 O475 1.276 . S
C491 O478 1.235 . S
C492 C493 1.393 . S
C492 C496 1.395 . S
C492 C499 1.492 . S
C493 C492 1.393 . S
C493 C494 1.392 . S
C493 H504 0.930 . S
C494 C493 1.392 . S
C494 C495 1.386 . S
C495 C494 1.386 . S
C495 C497 1.395 . S
C495 H505 0.930 . S
C496 C492 1.395 . S
C496 C497 1.379 . S
C496 H506 0.930 . S
C497 C495 1.395 . S
C497 C496 1.379 . S
C497 H507 0.930 . S
C498 O476 1.264 . S
C498 O477 1.254 . S
C499 Eu435 2.848 . S
C499 O474 1.257 . S
C499 O479 1.249 . S
C499 C492 1.492 . S
H500 C483 0.930 . S
H501 C484 0.930 . S
H502 C485 0.930 . S
H503 C486 0.930 . S
H504 C493 0.930 . S
H505 C495 0.930 . S
H506 C496 0.930 . S
H507 C497 0.930 . S
Eu508 N539 2.657 . S
Eu508 N546 2.609 . S
Eu508 O552 2.558 . S
Eu508 O553 2.612 . S
Eu508 O555 2.339 . S
Eu508 O556 2.563 . S
Eu508 O557 2.419 . S
Eu508 O559 2.402 . S
Eu508 O560 2.432 1_455 S
Eu508 C572 2.848 . S
C509 C512 1.429 . S
C509 C513 1.411 . S
C509 N516 1.377 . S
C510 C512 1.420 . S
C510 C514 1.423 . S
C510 C522 1.392 . S
C511 C513 1.420 . S
C511 C514 1.351 . S
C511 H534 0.931 . S
C512 C509 1.429 . S
C512 C510 1.420 . S
C512 N520 1.362 . S
C513 C509 1.411 . S
C513 C511 1.420 . S
C513 C518 1.395 . S
C514 C510 1.423 . S
C514 C511 1.351 . S
C514 H526 0.930 . S
C515 C517 1.400 . S
C515 C518 1.386 1_455 S
C515 H527 0.930 . S
N516 C509 1.377 . S
N516 C517 1.321 1_655 S
N516 Eu519 2.609 . S
C517 C515 1.400 . S
C517 N516 1.321 1_455 S
C517 H524 0.930 . S
C518 C513 1.395 . S
C518 C515 1.386 1_655 S
C518 H537 0.930 . S
Eu519 N516 2.609 . S
Eu519 N520 2.657 . S
Eu519 O553 2.380 1_655 S
Eu519 O554 2.432 1_655 S
Eu519 O558 2.558 . S
Eu519 O559 2.599 1_655 S
Eu519 O561 2.339 . S
Eu519 O562 2.563 . S
Eu519 O563 2.419 . S
Eu519 C583 2.848 . S
N520 C512 1.362 . S
N520 Eu519 2.657 . S
N520 C521 1.334 . S
C521 N520 1.334 . S
C521 C523 1.413 . S
C521 H528 0.929 . S
C522 C510 1.392 . S
C522 C523 1.367 . S
C522 H530 0.930 . S
C523 C521 1.413 . S
C523 C522 1.367 . S
C523 H525 0.930 . S
H524 C517 0.930 . S
H525 C523 0.930 . S
H526 C514 0.930 . S
H527 C515 0.930 . S
H528 C521 0.929 . S
H529 C543 0.930 . S
H530 C522 0.930 . S
H531 C549 0.930 1_655 S
H532 C540 0.929 . S
H533 C547 0.930 1_655 S
H534 C511 0.931 . S
H535 C541 0.930 . S
H536 C574 0.930 . S
H537 C518 0.930 . S
H538 C573 0.931 . S
N539 Eu508 2.657 . S
N539 C540 1.334 . S
N539 C544 1.362 . S
C540 H532 0.929 . S
C540 N539 1.334 . S
C540 C543 1.413 . S
C541 H535 0.930 . S
C541 C542 1.392 . S
C541 C543 1.367 . S
C542 C541 1.392 . S
C542 C544 1.420 . S
C542 C574 1.423 . S
C543 H529 0.930 . S
C543 C540 1.413 . S
C543 C541 1.367 . S
C544 N539 1.362 . S
C544 C542 1.420 . S
C544 C548 1.429 . S
H545 C550 0.930 . S
N546 Eu508 2.609 . S
N546 C548 1.377 . S
N546 C549 1.321 . S
C547 H533 0.930 1_455 S
C547 C549 1.400 . S
C547 C550 1.386 . S
C548 C544 1.429 . S
C548 N546 1.377 . S
C548 C551 1.411 . S
C549 H531 0.930 1_455 S
C549 N546 1.321 . S
C549 C547 1.400 . S
C550 H545 0.930 . S
C550 C547 1.386 . S
C550 C551 1.395 . S
C551 C548 1.411 . S
C551 C550 1.395 . S
C551 C573 1.420 . S
O552 Eu508 2.558 . S
O552 C572 1.257 . S
O553 Eu508 2.612 . S
O553 Eu519 2.380 1_455 S
O553 C564 1.276 . S
O554 Eu519 2.432 1_455 S
O554 C571 1.264 . S
O555 Eu508 2.339 . S
O555 C571 1.254 . S
O556 Eu508 2.563 . S
O556 C564 1.235 . S
O557 Eu508 2.419 . S
O557 C572 1.249 . S
O558 Eu519 2.558 . S
O558 C583 1.257 . S
O559 Eu508 2.402 . S
O559 Eu519 2.599 1_455 S
O559 C575 1.261 1_455 S
O560 Eu508 2.432 1_655 S
O560 C582 1.264 . S
O561 Eu519 2.339 . S
O561 C582 1.254 . S
O562 Eu519 2.563 . S
O562 C575 1.235 . S
O563 Eu519 2.419 . S
O563 C583 1.249 . S
C564 O553 1.276 . S
C564 O556 1.235 . S
C565 C567 1.393 . S
C565 C569 1.395 . S
C565 C572 1.492 . S
C566 C567 1.392 . S
C566 C568 1.386 . S
C567 C565 1.393 . S
C567 C566 1.392 . S
C567 H584 0.930 . S
C568 C566 1.386 . S
C568 C570 1.395 . S
C568 H585 0.930 . S
C569 C565 1.395 . S
C569 C570 1.379 . S
C569 H586 0.930 . S
C570 C568 1.395 . S
C570 C569 1.379 . S
C570 H587 0.930 . S
C571 O554 1.264 . S
C571 O555 1.254 . S
C572 Eu508 2.848 . S
C572 O552 1.257 . S
C572 O557 1.249 . S
C572 C565 1.492 . S
C573 H538 0.931 . S
C573 C551 1.420 . S
C573 C574 1.351 . S
C574 H536 0.930 . S
C574 C542 1.423 . S
C574 C573 1.351 . S
C575 O559 1.261 1_655 S
C575 O562 1.235 . S
C576 C577 1.393 . S
C576 C580 1.395 . S
C576 C583 1.492 . S
C577 C576 1.393 . S
C577 C578 1.392 . S
C577 H588 0.930 . S
C578 C577 1.392 . S
C578 C579 1.386 . S
C579 C578 1.386 . S
C579 C581 1.395 . S
C579 H589 0.930 . S
C580 C576 1.395 . S
C580 C581 1.379 . S
C580 H590 0.930 . S
C581 C579 1.395 . S
C581 C580 1.379 . S
C581 H591 0.930 . S
C582 O560 1.264 . S
C582 O561 1.254 . S
C583 Eu519 2.848 . S
C583 O558 1.257 . S
C583 O563 1.249 . S
C583 C576 1.492 . S
H584 C567 0.930 . S
H585 C568 0.930 . S
H586 C569 0.930 . S
H587 C570 0.930 . S
H588 C577 0.930 . S
H589 C579 0.930 . S
H590 C580 0.930 . S
H591 C581 0.930 . S
C592 C593 1.349 . S
C592 C594 1.327 . S
C592 H617 0.950 . S
C593 C592 1.349 . S
C593 C609 1.349 . S
C594 C592 1.327 . S
C594 C613 1.429 . S
C594 H618 0.950 . S
C595 C612 1.574 . S
C595 C614 1.368 . S
C595 H619 0.949 . S
H596 C600 0.949 . S
C597 C598 1.349 . S
C597 C599 1.327 . S
C597 H620 0.950 . S
C598 C597 1.349 . S
C598 C610 1.349 . S
C599 C597 1.327 . S
C599 C615 1.429 . S
C599 H621 0.950 . S
C600 H596 0.949 . S
C600 C608 1.574 . S
C600 C616 1.368 . S
H601 C609 0.950 . S
H602 C607 0.950 . S
H603 C608 0.949 . S
H604 C610 0.950 1_565 S
H605 C611 0.950 . S
H606 C612 0.949 . S
C607 H602 0.950 . S
C607 C609 1.327 . S
C607 C613 1.429 . S
C608 C600 1.574 . S
C608 H603 0.949 . S
C608 C614 1.368 . S
C609 C593 1.349 . S
C609 H601 0.950 . S
C609 C607 1.327 . S
C610 C598 1.349 . S
C610 H604 0.950 1_545 S
C610 C611 1.327 . S
C611 H605 0.950 . S
C611 C610 1.327 . S
C611 C615 1.429 . S
C612 C595 1.574 . S
C612 H606 0.949 . S
C612 C616 1.368 . S
C613 C594 1.429 . S
C613 C607 1.429 . S
C613 C614 1.523 . S
C614 C595 1.368 . S
C614 C608 1.368 . S
C614 C613 1.523 . S
C615 C599 1.429 . S
C615 C611 1.429 . S
C615 C616 1.523 . S
C616 C600 1.368 . S
C616 C612 1.368 . S
C616 C615 1.523 . S
H617 C592 0.950 . S
H618 C594 0.950 . S
H619 C595 0.949 . S
H620 C597 0.950 . S
H621 C599 0.950 . S
C622 C623 1.349 . S
C622 C624 1.327 . S
C622 H647 0.950 . S
C623 C622 1.349 . S
C623 C639 1.349 . S
C624 C622 1.327 . S
C624 C643 1.429 . S
C624 H648 0.950 . S
C625 C642 1.574 . S
C625 C644 1.368 . S
C625 H649 0.949 . S
H626 C630 0.949 . S
C627 C628 1.349 . S
C627 C629 1.327 . S
C627 H650 0.950 . S
C628 C627 1.349 . S
C628 C640 1.349 . S
C629 C627 1.327 . S
C629 C645 1.429 . S
C629 H651 0.950 . S
C630 H626 0.949 . S
C630 C638 1.574 . S
C630 C646 1.368 . S
H631 C639 0.950 . S
H632 C637 0.950 . S
H633 C638 0.949 . S
H634 C640 0.950 . S
H635 C641 0.950 . S
H636 C642 0.949 . S
C637 H632 0.950 . S
C637 C639 1.327 . S
C637 C643 1.429 . S
C638 C630 1.574 . S
C638 H633 0.949 . S
C638 C644 1.368 . S
C639 C623 1.349 . S
C639 H631 0.950 . S
C639 C637 1.327 . S
C640 C628 1.349 . S
C640 H634 0.950 . S
C640 C641 1.327 . S
C641 H635 0.950 . S
C641 C640 1.327 . S
C641 C645 1.429 . S
C642 C625 1.574 . S
C642 H636 0.949 . S
C642 C646 1.368 . S
C643 C624 1.429 . S
C643 C637 1.429 . S
C643 C644 1.523 . S
C644 C625 1.368 . S
C644 C638 1.368 . S
C644 C643 1.523 . S
C645 C629 1.429 . S
C645 C641 1.429 . S
C645 C646 1.523 . S
C646 C630 1.368 . S
C646 C642 1.368 . S
C646 C645 1.523 . S
H647 C622 0.950 . S
H648 C624 0.950 . S
H649 C625 0.949 . S
H650 C627 0.950 . S
H651 C629 0.950 . S
C652 C653 1.349 . S
C652 C654 1.327 . S
C652 H677 0.950 . S
C653 C652 1.349 . S
C653 C669 1.349 . S
C654 C652 1.327 . S
C654 C673 1.429 . S
C654 H678 0.950 . S
C655 C672 1.574 . S
C655 C674 1.368 . S
C655 H679 0.949 . S
H656 C660 0.949 . S
C657 C658 1.349 . S
C657 C659 1.327 . S
C657 H680 0.950 . S
C658 C657 1.349 . S
C658 C670 1.349 . S
C659 C657 1.327 . S
C659 C675 1.429 . S
C659 H681 0.950 . S
C660 H656 0.949 . S
C660 C668 1.574 . S
C660 C676 1.368 . S
H661 C669 0.950 . S
H662 C667 0.950 . S
H663 C668 0.949 . S
H664 C670 0.950 . S
H665 C671 0.950 . S
H666 C672 0.949 . S
C667 H662 0.950 . S
C667 C669 1.327 . S
C667 C673 1.429 . S
C668 C660 1.574 . S
C668 H663 0.949 . S
C668 C674 1.368 . S
C669 C653 1.349 . S
C669 H661 0.950 . S
C669 C667 1.327 . S
C670 C658 1.349 . S
C670 H664 0.950 . S
C670 C671 1.327 . S
C671 H665 0.950 . S
C671 C670 1.327 . S
C671 C675 1.429 . S
C672 C655 1.574 . S
C672 H666 0.949 . S
C672 C676 1.368 . S
C673 C654 1.429 . S
C673 C667 1.429 . S
C673 C674 1.523 . S
C674 C655 1.368 . S
C674 C668 1.368 . S
C674 C673 1.523 . S
C675 C659 1.429 . S
C675 C671 1.429 . S
C675 C676 1.523 . S
C676 C660 1.368 . S
C676 C672 1.368 . S
C676 C675 1.523 . S
H677 C652 0.950 . S
H678 C654 0.950 . S
H679 C655 0.949 . S
H680 C657 0.950 . S
H681 C659 0.950 . S
C682 C683 1.349 . S
C682 C684 1.327 . S
C682 H707 0.950 . S
C683 C682 1.349 . S
C683 C699 1.349 . S
C684 C682 1.327 . S
C684 C703 1.429 . S
C684 H708 0.950 . S
C685 C702 1.574 . S
C685 C704 1.368 . S
C685 H709 0.949 . S
H686 C690 0.949 . S
C687 C688 1.349 . S
C687 C689 1.327 . S
C687 H710 0.950 . S
C688 C687 1.349 . S
C688 C700 1.349 . S
C689 C687 1.327 . S
C689 C705 1.429 . S
C689 H711 0.950 . S
C690 H686 0.949 . S
C690 C698 1.574 . S
C690 C706 1.368 . S
H691 C699 0.950 . S
H692 C697 0.950 . S
H693 C698 0.949 . S
H694 C700 0.950 . S
H695 C701 0.950 . S
H696 C702 0.949 . S
C697 H692 0.950 . S
C697 C699 1.327 . S
C697 C703 1.429 . S
C698 C690 1.574 . S
C698 H693 0.949 . S
C698 C704 1.368 . S
C699 C683 1.349 . S
C699 H691 0.950 . S
C699 C697 1.327 . S
C700 C688 1.349 . S
C700 H694 0.950 . S
C700 C701 1.327 . S
C701 H695 0.950 . S
C701 C700 1.327 . S
C701 C705 1.429 . S
C702 C685 1.574 . S
C702 H696 0.949 . S
C702 C706 1.368 . S
C703 C684 1.429 . S
C703 C697 1.429 . S
C703 C704 1.523 . S
C704 C685 1.368 . S
C704 C698 1.368 . S
C704 C703 1.523 . S
C705 C689 1.429 . S
C705 C701 1.429 . S
C705 C706 1.523 . S
C706 C690 1.368 . S
C706 C702 1.368 . S
C706 C705 1.523 . S
H707 C682 0.950 . S
H708 C684 0.950 . S
H709 C685 0.949 . S
H710 C687 0.950 . S
H711 C689 0.950 . S
C712 C713 1.349 . S
C712 C714 1.327 1_554 S
C712 H737 0.950 . S
C713 C712 1.349 . S
C713 C729 1.349 . S
C714 C712 1.327 1_556 S
C714 C733 1.429 . S
C714 H738 0.950 . S
C715 C732 1.574 . S
C715 C734 1.368 . S
C715 H739 0.949 . S
H716 C720 0.949 . S
C717 C718 1.349 1_545 S
C717 C719 1.325 1_545 S
C717 H740 0.950 . S
C718 C717 1.349 1_565 S
C718 C730 1.349 . S
C719 C717 1.325 1_565 S
C719 C735 1.438 . S
C719 H741 0.942 1_565 S
C720 H716 0.949 . S
C720 C728 1.574 . S
C720 C736 1.368 . S
H721 C729 0.950 . S
H722 C727 0.950 . S
H723 C728 0.949 . S
H724 C730 0.950 . S
H725 C731 0.950 . S
H726 C732 0.949 1_545 S
C727 H722 0.950 . S
C727 C729 1.327 . S
C727 C733 1.429 1_554 S
C728 C720 1.574 . S
C728 H723 0.949 . S
C728 C734 1.368 . S
C729 C713 1.349 . S
C729 H721 0.950 . S
C729 C727 1.327 . S
C730 C718 1.349 . S
C730 H724 0.950 . S
C730 C731 1.327 . S
C731 H725 0.950 . S
C731 C730 1.327 . S
C731 C735 1.429 . S
C732 C715 1.574 . S
C732 H726 0.949 1_565 S
C732 C736 1.368 . S
C733 C714 1.429 . S
C733 C727 1.429 1_556 S
C733 C734 1.523 . S
C734 C715 1.368 . S
C734 C728 1.368 . S
C734 C733 1.523 . S
C735 C719 1.438 . S
C735 C731 1.429 . S
C735 C736 1.523 . S
C736 C720 1.368 . S
C736 C732 1.368 . S
C736 C735 1.523 . S
H737 C712 0.950 . S
H738 C714 0.950 . S
H739 C715 0.949 . S
H740 C717 0.950 . S
H741 C719 0.942 1_545 S
C742 C743 1.349 . S
C742 C744 1.327 1_554 S
C742 H767 0.950 . S
C743 C742 1.349 . S
C743 C759 1.349 . S
C744 C742 1.327 1_556 S
C744 C763 1.429 . S
C744 H768 0.950 . S
C745 C762 1.574 . S
C745 C764 1.368 . S
C745 H769 0.949 . S
H746 C750 0.949 . S
C747 C748 1.349 . S
C747 C749 1.327 . S
C747 H770 0.950 . S
C748 C747 1.349 . S
C748 C760 1.349 . S
C749 C747 1.327 . S
C749 C765 1.429 . S
C749 H771 0.950 . S
C750 H746 0.949 . S
C750 C758 1.574 . S
C750 C766 1.368 . S
H751 C759 0.950 . S
H752 C757 0.950 . S
H753 C758 0.949 . S
H754 C760 0.950 . S
H755 C761 0.950 . S
H756 C762 0.949 . S
C757 H752 0.950 . S
C757 C759 1.327 . S
C757 C763 1.429 1_554 S
C758 C750 1.574 . S
C758 H753 0.949 . S
C758 C764 1.368 . S
C759 C743 1.349 . S
C759 H751 0.950 . S
C759 C757 1.327 . S
C760 C748 1.349 . S
C760 H754 0.950 . S
C760 C761 1.327 . S
C761 H755 0.950 . S
C761 C760 1.327 . S
C761 C765 1.429 . S
C762 C745 1.574 . S
C762 H756 0.949 . S
C762 C766 1.368 . S
C763 C744 1.429 . S
C763 C757 1.429 1_556 S
C763 C764 1.523 . S
C764 C745 1.368 . S
C764 C758 1.368 . S
C764 C763 1.523 . S
C765 C749 1.429 . S
C765 C761 1.429 . S
C765 C766 1.523 . S
C766 C750 1.368 . S
C766 C762 1.368 . S
C766 C765 1.523 . S
H767 C742 0.950 . S
H768 C744 0.950 . S
H769 C745 0.949 . S
H770 C747 0.950 . S
H771 C749 0.950 . S
C772 C773 1.349 . S
C772 C774 1.327 . S
C772 H797 0.950 . S
C773 C772 1.349 . S
C773 C789 1.349 . S
C774 C772 1.327 . S
C774 C793 1.429 1_554 S
C774 H798 0.950 . S
C775 C792 1.574 . S
C775 C794 1.368 . S
C775 H799 0.949 . S
H776 C780 0.949 . S
C777 C778 1.349 . S
C777 C779 1.327 . S
C777 H800 0.950 . S
C778 C777 1.349 . S
C778 C790 1.349 . S
C779 C777 1.327 . S
C779 C795 1.429 . S
C779 H801 0.950 . S
C780 H776 0.949 . S
C780 C788 1.574 . S
C780 C796 1.368 . S
H781 C789 0.950 1_556 S
H782 C787 0.950 . S
H783 C788 0.949 . S
H784 C790 0.950 . S
H785 C791 0.950 . S
H786 C792 0.949 . S
C787 H782 0.950 . S
C787 C789 1.327 1_556 S
C787 C793 1.429 . S
C788 C780 1.574 . S
C788 H783 0.949 . S
C788 C794 1.368 . S
C789 C773 1.349 . S
C789 H781 0.950 1_554 S
C789 C787 1.327 1_554 S
C790 C778 1.349 . S
C790 H784 0.950 . S
C790 C791 1.327 . S
C791 H785 0.950 . S
C791 C790 1.327 . S
C791 C795 1.429 . S
C792 C775 1.574 . S
C792 H786 0.949 . S
C792 C796 1.368 . S
C793 C774 1.429 1_556 S
C793 C787 1.429 . S
C793 C794 1.523 . S
C794 C775 1.368 . S
C794 C788 1.368 . S
C794 C793 1.523 . S
C795 C779 1.429 . S
C795 C791 1.429 . S
C795 C796 1.523 . S
C796 C780 1.368 . S
C796 C792 1.368 . S
C796 C795 1.523 . S
H797 C772 0.950 . S
H798 C774 0.950 . S
H799 C775 0.949 . S
H800 C777 0.950 . S
H801 C779 0.950 . S
C802 C803 1.349 . S
C802 C804 1.327 1_554 S
C802 H827 0.950 . S
C803 C802 1.349 . S
C803 C819 1.349 . S
C804 C802 1.327 1_556 S
C804 C823 1.429 . S
C804 H828 0.950 . S
C805 C822 1.574 . S
C805 C824 1.368 . S
C805 H829 0.949 . S
H806 C810 0.949 . S
C807 C808 1.349 . S
C807 C809 1.327 . S
C807 H830 0.950 . S
C808 C807 1.349 . S
C808 C820 1.349 . S
C809 C807 1.327 . S
C809 C825 1.429 . S
C809 H831 0.950 . S
C810 H806 0.949 . S
C810 C818 1.574 . S
C810 C826 1.368 . S
H811 C819 0.950 . S
H812 C817 0.950 . S
H813 C818 0.949 . S
H814 C820 0.950 1_455 S
H815 C821 0.950 . S
H816 C822 0.949 . S
C817 H812 0.950 . S
C817 C819 1.327 . S
C817 C823 1.429 1_554 S
C818 C810 1.574 . S
C818 H813 0.949 . S
C818 C824 1.368 . S
C819 C803 1.349 . S
C819 H811 0.950 . S
C819 C817 1.327 . S
C820 C808 1.349 . S
C820 H814 0.950 1_655 S
C820 C821 1.327 . S
C821 H815 0.950 . S
C821 C820 1.327 . S
C821 C825 1.429 . S
C822 C805 1.574 . S
C822 H816 0.949 . S
C822 C826 1.368 . S
C823 C804 1.429 . S
C823 C817 1.429 1_556 S
C823 C824 1.523 . S
C824 C805 1.368 . S
C824 C818 1.368 . S
C824 C823 1.523 . S
C825 C809 1.429 . S
C825 C821 1.429 . S
C825 C826 1.523 . S
C826 C810 1.368 . S
C826 C822 1.368 . S
C826 C825 1.523 . S
H827 C802 0.950 . S
H828 C804 0.950 . S
H829 C805 0.949 . S
H830 C807 0.950 . S
H831 C809 0.950 . S
C832 C833 1.349 . S
C832 C834 1.327 . S
C832 H857 0.950 . S
C833 C832 1.349 . S
C833 C849 1.349 . S
C834 C832 1.327 . S
C834 C853 1.429 . S
C834 H858 0.950 . S
C835 C852 1.574 . S
C835 C854 1.368 . S
C835 H859 0.949 . S
H836 C840 0.949 . S
C837 C838 1.349 1_655 S
C837 C839 1.308 1_655 S
C837 H860 0.950 . S
C838 C837 1.349 1_455 S
C838 C850 1.349 . S
C839 C837 1.308 1_455 S
C839 C855 1.474 . S
C839 H861 0.924 1_455 S
C840 H836 0.949 . S
C840 C848 1.574 . S
C840 C856 1.368 . S
H841 C849 0.950 . S
H842 C847 0.950 . S
H843 C848 0.949 . S
H844 C850 0.950 . S
H845 C851 0.950 . S
H846 C852 0.949 . S
C847 H842 0.950 . S
C847 C849 1.327 . S
C847 C853 1.429 . S
C848 C840 1.574 . S
C848 H843 0.949 . S
C848 C854 1.368 . S
C849 C833 1.349 . S
C849 H841 0.950 . S
C849 C847 1.327 . S
C850 C838 1.349 . S
C850 H844 0.950 . S
C850 C851 1.327 . S
C851 H845 0.950 . S
C851 C850 1.327 . S
C851 C855 1.429 . S
C852 C835 1.574 . S
C852 H846 0.949 . S
C852 C856 1.368 . S
C853 C834 1.429 . S
C853 C847 1.429 . S
C853 C854 1.523 . S
C854 C835 1.368 . S
C854 C848 1.368 . S
C854 C853 1.523 . S
C855 C839 1.474 . S
C855 C851 1.429 . S
C855 C856 1.523 . S
C856 C840 1.368 . S
C856 C852 1.368 . S
C856 C855 1.523 . S
H857 C832 0.950 . S
H858 C834 0.950 . S
H859 C835 0.949 . S
H860 C837 0.950 . S
H861 C839 0.924 1_655 S
C862 C863 1.349 . S
C862 C864 1.327 . S
C862 H887 0.950 . S
C863 C862 1.349 . S
C863 C879 1.349 . S
C864 C862 1.327 . S
C864 C883 1.429 . S
C864 H888 0.950 . S
C865 C882 1.574 . S
C865 C884 1.368 . S
C865 H889 0.949 . S
H866 C870 0.949 . S
C867 C868 1.349 . S
C867 C869 1.327 . S
C867 H890 0.950 . S
C868 C867 1.349 . S
C868 C880 1.355 . S
C869 C867 1.327 . S
C869 C885 1.429 . S
C869 H891 0.950 . S
C870 H866 0.949 . S
C870 C878 1.574 . S
C870 C886 1.368 . S
H871 C879 0.950 . S
H872 C877 0.950 . S
H873 C878 0.949 . S
H874 C880 0.926 1_565 S
H875 C881 0.950 . S
H876 C882 0.949 . S
C877 H872 0.950 . S
C877 C879 1.327 . S
C877 C883 1.429 . S
C878 C870 1.574 . S
C878 H873 0.949 . S
C878 C884 1.368 . S
C879 C863 1.349 . S
C879 H871 0.950 . S
C879 C877 1.327 . S
C880 C868 1.355 . S
C880 H874 0.926 1_545 S
C880 C881 1.347 . S
C881 H875 0.950 . S
C881 C880 1.347 . S
C881 C885 1.429 . S
C882 C865 1.574 . S
C882 H876 0.949 . S
C882 C886 1.368 . S
C883 C864 1.429 . S
C883 C877 1.429 . S
C883 C884 1.523 . S
C884 C865 1.368 . S
C884 C878 1.368 . S
C884 C883 1.523 . S
C885 C869 1.429 . S
C885 C881 1.429 . S
C885 C886 1.523 . S
C886 C870 1.368 . S
C886 C882 1.368 . S
C886 C885 1.523 . S
H887 C862 0.950 . S
H888 C864 0.950 . S
H889 C865 0.949 . S
H890 C867 0.950 . S
H891 C869 0.950 . S
C892 C893 1.349 . S
C892 C894 1.327 . S
C892 H917 0.950 . S
C893 C892 1.349 . S
C893 C909 1.349 . S
C894 C892 1.327 . S
C894 C913 1.429 . S
C894 H918 0.950 . S
C895 C912 1.574 . S
C895 C914 1.368 . S
C895 H919 0.949 . S
H896 C900 0.949 . S
C897 C898 1.349 . S
C897 C899 1.327 . S
C897 H920 0.950 . S
C898 C897 1.349 . S
C898 C910 1.349 . S
C899 C897 1.327 . S
C899 C915 1.429 . S
C899 H921 0.950 . S
C900 H896 0.949 . S
C900 C908 1.574 . S
C900 C916 1.368 . S
H901 C909 0.950 . S
H902 C907 0.950 . S
H903 C908 0.949 . S
H904 C910 0.950 . S
H905 C911 0.950 . S
H906 C912 0.949 . S
C907 H902 0.950 . S
C907 C909 1.327 . S
C907 C913 1.429 . S
C908 C900 1.574 . S
C908 H903 0.949 . S
C908 C914 1.368 . S
C909 C893 1.349 . S
C909 H901 0.950 . S
C909 C907 1.327 . S
C910 C898 1.349 . S
C910 H904 0.950 . S
C910 C911 1.327 . S
C911 H905 0.950 . S
C911 C910 1.327 . S
C911 C915 1.429 . S
C912 C895 1.574 . S
C912 H906 0.949 . S
C912 C916 1.368 . S
C913 C894 1.429 . S
C913 C907 1.429 . S
C913 C914 1.523 . S
C914 C895 1.368 . S
C914 C908 1.368 . S
C914 C913 1.523 . S
C915 C899 1.429 . S
C915 C911 1.429 . S
C915 C916 1.523 . S
C916 C900 1.368 . S
C916 C912 1.368 . S
C916 C915 1.523 . S
H917 C892 0.950 . S
H918 C894 0.950 . S
H919 C895 0.949 . S
H920 C897 0.950 . S
H921 C899 0.950 . S
C922 C923 1.349 . S
C922 C924 1.327 . S
C922 H947 0.950 . S
C923 C922 1.349 . S
C923 C939 1.349 . S
C924 C922 1.327 . S
C924 C943 1.429 . S
C924 H948 0.950 . S
C925 C942 1.574 . S
C925 C944 1.368 . S
C925 H949 0.949 . S
H926 C930 0.949 . S
C927 C928 1.349 . S
C927 C929 1.327 . S
C927 H950 0.950 . S
C928 C927 1.349 . S
C928 C940 1.349 . S
C929 C927 1.327 . S
C929 C945 1.429 . S
C929 H951 0.950 . S
C930 H926 0.949 . S
C930 C938 1.574 . S
C930 C946 1.368 . S
H931 C939 0.950 . S
H932 C937 0.950 . S
H933 C938 0.949 . S
H934 C940 0.950 . S
H935 C941 0.950 . S
H936 C942 0.949 . S
C937 H932 0.950 . S
C937 C939 1.327 . S
C937 C943 1.429 . S
C938 C930 1.574 . S
C938 H933 0.949 . S
C938 C944 1.368 . S
C939 C923 1.349 . S
C939 H931 0.950 . S
C939 C937 1.327 . S
C940 C928 1.349 . S
C940 H934 0.950 . S
C940 C941 1.327 . S
C941 H935 0.950 . S
C941 C940 1.327 . S
C941 C945 1.429 . S
C942 C925 1.574 . S
C942 H936 0.949 . S
C942 C946 1.368 . S
C943 C924 1.429 . S
C943 C937 1.429 . S
C943 C944 1.523 . S
C944 C925 1.368 . S
C944 C938 1.368 . S
C944 C943 1.523 . S
C945 C929 1.429 . S
C945 C941 1.429 . S
C945 C946 1.523 . S
C946 C930 1.368 . S
C946 C942 1.368 . S
C946 C945 1.523 . S
H947 C922 0.950 . S
H948 C924 0.950 . S
H949 C925 0.949 . S
H950 C927 0.950 . S
H951 C929 0.950 . S
C952 C953 1.349 1_556 S
C952 C954 1.327 . S
C952 H977 0.950 . S
C953 C952 1.349 1_554 S
C953 C969 1.349 . S
C954 C952 1.327 . S
C954 C973 1.429 . S
C954 H978 0.950 . S
C955 C972 1.574 . S
C955 C974 1.368 . S
C955 H979 0.949 1_556 S
H956 C960 0.949 . S
C957 C958 1.349 . S
C957 C959 1.327 1_455 S
C957 H980 0.950 . S
C958 C957 1.349 . S
C958 C970 1.349 1_455 S
C959 C957 1.327 1_655 S
C959 C975 1.429 . S
C959 H981 0.950 . S
C960 H956 0.949 . S
C960 C968 1.574 . S
C960 C976 1.368 . S
H961 C969 0.950 . S
H962 C967 0.950 . S
H963 C968 0.949 . S
H964 C970 0.950 . S
H965 C971 0.950 . S
H966 C972 0.949 . S
C967 H962 0.950 . S
C967 C969 1.327 . S
C967 C973 1.429 1_554 S
C968 C960 1.574 . S
C968 H963 0.949 . S
C968 C974 1.368 . S
C969 C953 1.349 . S
C969 H961 0.950 . S
C969 C967 1.327 . S
C970 C958 1.349 1_655 S
C970 H964 0.950 . S
C970 C971 1.327 . S
C971 H965 0.950 . S
C971 C970 1.327 . S
C971 C975 1.429 . S
C972 C955 1.574 . S
C972 H966 0.949 . S
C972 C976 1.368 . S
C973 C954 1.429 . S
C973 C967 1.429 1_556 S
C973 C974 1.523 . S
C974 C955 1.368 . S
C974 C968 1.368 . S
C974 C973 1.523 . S
C975 C959 1.429 . S
C975 C971 1.429 . S
C975 C976 1.523 . S
C976 C960 1.368 . S
C976 C972 1.368 . S
C976 C975 1.523 . S
H977 C952 0.950 . S
H978 C954 0.950 . S
H979 C955 0.949 1_554 S
H980 C957 0.950 . S
H981 C959 0.950 . S
C982 C983 1.349 . S
C982 C984 1.327 1_554 S
C982 H1007 0.950 . S
C983 C982 1.349 . S
C983 C999 1.349 . S
C984 C982 1.327 1_556 S
C984 C1003 1.429 . S
C984 H1008 0.950 . S
C985 C1002 1.574 . S
C985 C1004 1.368 . S
C985 H1009 0.949 . S
H986 C990 0.949 1_545 S
C987 C988 1.349 1_565 S
C987 C989 1.327 . S
C987 H1010 0.950 . S
C988 C987 1.349 1_545 S
C988 C1000 1.349 . S
C989 C987 1.327 . S
C989 C1005 1.429 . S
C989 H1011 0.950 . S
C990 H986 0.949 1_565 S
C990 C998 1.574 . S
C990 C1006 1.368 . S
H991 C999 0.950 . S
H992 C997 0.950 . S
H993 C998 0.949 . S
H994 C1000 0.950 . S
H995 C1001 0.950 . S
H996 C1002 0.949 . S
C997 H992 0.950 . S
C997 C999 1.327 1_556 S
C997 C1003 1.429 . S
C998 C990 1.574 . S
C998 H993 0.949 . S
C998 C1004 1.368 . S
C999 C983 1.349 . S
C999 H991 0.950 . S
C999 C997 1.327 1_554 S
C1000 C988 1.349 . S
C1000 H994 0.950 . S
C1000 C1001 1.327 . S
C1001 H995 0.950 . S
C1001 C1000 1.327 . S
C1001 C1005 1.429 1_545 S
C1002 C985 1.574 . S
C1002 H996 0.949 . S
C1002 C1006 1.368 . S
C1003 C984 1.429 . S
C1003 C997 1.429 . S
C1003 C1004 1.523 . S
C1004 C985 1.368 . S
C1004 C998 1.368 . S
C1004 C1003 1.523 . S
C1005 C989 1.429 . S
C1005 C1001 1.429 1_565 S
C1005 C1006 1.523 . S
C1006 C990 1.368 . S
C1006 C1002 1.368 . S
C1006 C1005 1.523 . S
H1007 C982 0.950 . S
H1008 C984 0.950 . S
H1009 C985 0.949 . S
H1010 C987 0.950 . S
H1011 C989 0.950 . S
C1012 C1013 1.349 . S
C1012 C1014 1.327 . S
C1012 H1037 0.950 . S
C1013 C1012 1.349 . S
C1013 C1029 1.349 1_554 S
C1014 C1012 1.327 . S
C1014 C1033 1.429 1_554 S
C1014 H1038 0.950 . S
C1015 C1032 1.574 . S
C1015 C1034 1.368 . S
C1015 H1039 0.949 . S
H1016 C1020 0.949 . S
C1017 C1018 1.349 . S
C1017 C1019 1.327 . S
C1017 H1040 0.950 . S
C1018 C1017 1.349 . S
C1018 C1030 1.349 . S
C1019 C1017 1.327 . S
C1019 C1035 1.429 . S
C1019 H1041 0.950 . S
C1020 H1016 0.949 . S
C1020 C1028 1.574 . S
C1020 C1036 1.368 . S
H1021 C1029 0.950 . S
H1022 C1027 0.950 . S
H1023 C1028 0.949 . S
H1024 C1030 0.950 . S
H1025 C1031 0.950 . S
H1026 C1032 0.949 . S
C1027 H1022 0.950 . S
C1027 C1029 1.327 . S
C1027 C1033 1.429 . S
C1028 C1020 1.574 . S
C1028 H1023 0.949 . S
C1028 C1034 1.368 . S
C1029 C1013 1.349 1_556 S
C1029 H1021 0.950 . S
C1029 C1027 1.327 . S
C1030 C1018 1.349 . S
C1030 H1024 0.950 . S
C1030 C1031 1.327 . S
C1031 H1025 0.950 . S
C1031 C1030 1.327 . S
C1031 C1035 1.429 . S
C1032 C1015 1.574 . S
C1032 H1026 0.949 . S
C1032 C1036 1.368 . S
C1033 C1014 1.429 1_556 S
C1033 C1027 1.429 . S
C1033 C1034 1.523 . S
C1034 C1015 1.368 . S
C1034 C1028 1.368 . S
C1034 C1033 1.523 . S
C1035 C1019 1.429 . S
C1035 C1031 1.429 . S
C1035 C1036 1.523 . S
C1036 C1020 1.368 . S
C1036 C1032 1.368 . S
C1036 C1035 1.523 . S
H1037 C1012 0.950 . S
H1038 C1014 0.950 . S
H1039 C1015 0.949 . S
H1040 C1017 0.950 . S
H1041 C1019 0.950 . S
C1042 C1043 1.349 . S
C1042 C1044 1.327 . S
C1042 H1067 0.950 . S
C1043 C1042 1.349 . S
C1043 C1059 1.349 1_554 S
C1044 C1042 1.327 . S
C1044 C1063 1.429 1_554 S
C1044 H1068 0.950 . S
C1045 C1062 1.574 . S
C1045 C1064 1.368 . S
C1045 H1069 0.949 . S
H1046 C1050 0.949 . S
C1047 C1048 1.349 . S
C1047 C1049 1.327 . S
C1047 H1070 0.950 . S
C1048 C1047 1.349 . S
C1048 C1060 1.349 . S
C1049 C1047 1.327 . S
C1049 C1065 1.429 . S
C1049 H1071 0.950 . S
C1050 H1046 0.949 . S
C1050 C1058 1.574 . S
C1050 C1066 1.368 . S
H1051 C1059 0.950 . S
H1052 C1057 0.950 . S
H1053 C1058 0.949 1_554 S
H1054 C1060 0.950 . S
H1055 C1061 0.950 . S
H1056 C1062 0.949 . S
C1057 H1052 0.950 . S
C1057 C1059 1.327 . S
C1057 C1063 1.429 . S
C1058 C1050 1.574 . S
C1058 H1053 0.949 1_556 S
C1058 C1064 1.368 . S
C1059 C1043 1.349 1_556 S
C1059 H1051 0.950 . S
C1059 C1057 1.327 . S
C1060 C1048 1.349 . S
C1060 H1054 0.950 . S
C1060 C1061 1.327 . S
C1061 H1055 0.950 . S
C1061 C1060 1.327 . S
C1061 C1065 1.429 . S
C1062 C1045 1.574 . S
C1062 H1056 0.949 . S
C1062 C1066 1.368 . S
C1063 C1044 1.429 1_556 S
C1063 C1057 1.429 . S
C1063 C1064 1.523 . S
C1064 C1045 1.368 . S
C1064 C1058 1.368 . S
C1064 C1063 1.523 . S
C1065 C1049 1.429 . S
C1065 C1061 1.429 . S
C1065 C1066 1.523 . S
C1066 C1050 1.368 . S
C1066 C1062 1.368 . S
C1066 C1065 1.523 . S
H1067 C1042 0.950 . S
H1068 C1044 0.950 . S
H1069 C1045 0.949 . S
H1070 C1047 0.950 . S
H1071 C1049 0.950 . S
C1072 C1073 1.349 . S
C1072 C1074 1.327 . S
C1072 H1097 0.950 . S
C1073 C1072 1.349 . S
C1073 C1089 1.349 . S
C1074 C1072 1.327 . S
C1074 C1093 1.429 . S
C1074 H1098 0.950 . S
C1075 C1092 1.574 . S
C1075 C1094 1.368 . S
C1075 H1099 0.949 . S
H1076 C1080 0.949 . S
C1077 C1078 1.349 . S
C1077 C1079 1.327 . S
C1077 H1100 0.950 . S
C1078 C1077 1.349 . S
C1078 C1090 1.349 . S
C1079 C1077 1.327 . S
C1079 C1095 1.429 . S
C1079 H1101 0.950 . S
C1080 H1076 0.949 . S
C1080 C1088 1.574 . S
C1080 C1096 1.368 . S
H1081 C1089 0.950 . S
H1082 C1087 0.950 . S
H1083 C1088 0.949 . S
H1084 C1090 0.950 . S
H1085 C1091 0.950 . S
H1086 C1092 0.949 . S
C1087 H1082 0.950 . S
C1087 C1089 1.327 . S
C1087 C1093 1.429 . S
C1088 C1080 1.574 . S
C1088 H1083 0.949 . S
C1088 C1094 1.368 . S
C1089 C1073 1.349 . S
C1089 H1081 0.950 . S
C1089 C1087 1.327 . S
C1090 C1078 1.349 . S
C1090 H1084 0.950 . S
C1090 C1091 1.327 . S
C1091 H1085 0.950 . S
C1091 C1090 1.327 . S
C1091 C1095 1.429 . S
C1092 C1075 1.574 . S
C1092 H1086 0.949 . S
C1092 C1096 1.368 . S
C1093 C1074 1.429 . S
C1093 C1087 1.429 . S
C1093 C1094 1.523 . S
C1094 C1075 1.368 . S
C1094 C1088 1.368 . S
C1094 C1093 1.523 . S
C1095 C1079 1.429 . S
C1095 C1091 1.429 . S
C1095 C1096 1.523 . S
C1096 C1080 1.368 . S
C1096 C1092 1.368 . S
C1096 C1095 1.523 . S
H1097 C1072 0.950 . S
H1098 C1074 0.950 . S
H1099 C1075 0.949 . S
H1100 C1077 0.950 . S
H1101 C1079 0.950 . S
C1102 C1103 1.349 . S
C1102 C1104 1.327 . S
C1102 H1127 0.950 . S
C1103 C1102 1.349 . S
C1103 C1119 1.349 . S
C1104 C1102 1.327 . S
C1104 C1123 1.429 . S
C1104 H1128 0.950 . S
C1105 C1122 1.574 . S
C1105 C1124 1.368 . S
C1105 H1129 0.949 . S
H1106 C1110 0.949 . S
C1107 C1108 1.349 . S
C1107 C1109 1.327 . S
C1107 H1130 0.950 . S
C1108 C1107 1.349 . S
C1108 C1120 1.349 . S
C1109 C1107 1.327 . S
C1109 C1125 1.429 . S
C1109 H1131 0.950 . S
C1110 H1106 0.949 . S
C1110 C1118 1.574 . S
C1110 C1126 1.368 . S
H1111 C1119 0.950 . S
H1112 C1117 0.950 . S
H1113 C1118 0.949 . S
H1114 C1120 0.950 . S
H1115 C1121 0.950 . S
H1116 C1122 0.949 . S
C1117 H1112 0.950 . S
C1117 C1119 1.327 . S
C1117 C1123 1.429 . S
C1118 C1110 1.574 . S
C1118 H1113 0.949 . S
C1118 C1124 1.368 . S
C1119 C1103 1.349 . S
C1119 H1111 0.950 . S
C1119 C1117 1.327 . S
C1120 C1108 1.349 . S
C1120 H1114 0.950 . S
C1120 C1121 1.327 . S
C1121 H1115 0.950 . S
C1121 C1120 1.327 . S
C1121 C1125 1.429 . S
C1122 C1105 1.574 . S
C1122 H1116 0.949 . S
C1122 C1126 1.368 . S
C1123 C1104 1.429 . S
C1123 C1117 1.429 . S
C1123 C1124 1.523 . S
C1124 C1105 1.368 . S
C1124 C1118 1.368 . S
C1124 C1123 1.523 . S
C1125 C1109 1.429 . S
C1125 C1121 1.429 . S
C1125 C1126 1.523 . S
C1126 C1110 1.368 . S
C1126 C1122 1.368 . S
C1126 C1125 1.523 . S
H1127 C1102 0.950 . S
H1128 C1104 0.950 . S
H1129 C1105 0.949 . S
H1130 C1107 0.950 . S
H1131 C1109 0.950 . S
C1132 C1133 1.349 . S
C1132 C1134 1.327 . S
C1132 H1157 0.950 . S
C1133 C1132 1.349 . S
C1133 C1149 1.349 . S
C1134 C1132 1.327 . S
C1134 C1153 1.429 . S
C1134 H1158 0.950 . S
C1135 C1152 1.574 . S
C1135 C1154 1.368 . S
C1135 H1159 0.949 . S
H1136 C1140 0.949 . S
C1137 C1138 1.349 . S
C1137 C1139 1.327 . S
C1137 H1160 0.950 . S
C1138 C1137 1.349 . S
C1138 C1150 1.349 . S
C1139 C1137 1.327 . S
C1139 C1155 1.429 . S
C1139 H1161 0.950 . S
C1140 H1136 0.949 . S
C1140 C1148 1.574 . S
C1140 C1156 1.368 . S
H1141 C1149 0.950 . S
H1142 C1147 0.950 . S
H1143 C1148 0.949 . S
H1144 C1150 0.950 . S
H1145 C1151 0.950 . S
H1146 C1152 0.949 . S
C1147 H1142 0.950 . S
C1147 C1149 1.327 . S
C1147 C1153 1.429 . S
C1148 C1140 1.574 . S
C1148 H1143 0.949 . S
C1148 C1154 1.368 . S
C1149 C1133 1.349 . S
C1149 H1141 0.950 . S
C1149 C1147 1.327 . S
C1150 C1138 1.349 . S
C1150 H1144 0.950 . S
C1150 C1151 1.327 . S
C1151 H1145 0.950 . S
C1151 C1150 1.327 . S
C1151 C1155 1.429 . S
C1152 C1135 1.574 . S
C1152 H1146 0.949 . S
C1152 C1156 1.368 . S
C1153 C1134 1.429 . S
C1153 C1147 1.429 . S
C1153 C1154 1.523 . S
C1154 C1135 1.368 . S
C1154 C1148 1.368 . S
C1154 C1153 1.523 . S
C1155 C1139 1.429 . S
C1155 C1151 1.429 . S
C1155 C1156 1.523 . S
C1156 C1140 1.368 . S
C1156 C1152 1.368 . S
C1156 C1155 1.523 . S
H1157 C1132 0.950 . S
H1158 C1134 0.950 . S
H1159 C1135 0.949 . S
H1160 C1137 0.950 . S
H1161 C1139 0.950 . S
C1162 C1163 1.349 . S
C1162 C1164 1.327 . S
C1162 H1187 0.950 . S
C1163 C1162 1.349 . S
C1163 C1179 1.349 . S
C1164 C1162 1.327 . S
C1164 C1183 1.429 . S
C1164 H1188 0.950 . S
C1165 C1182 1.574 . S
C1165 C1184 1.368 . S
C1165 H1189 0.949 . S
H1166 C1170 0.949 . S
C1167 C1168 1.349 . S
C1167 C1169 1.327 . S
C1167 H1190 0.950 . S
C1168 C1167 1.349 . S
C1168 C1180 1.349 . S
C1169 C1167 1.327 . S
C1169 C1185 1.429 . S
C1169 H1191 0.950 . S
C1170 H1166 0.949 . S
C1170 C1178 1.574 . S
C1170 C1186 1.368 . S
H1171 C1179 0.950 . S
H1172 C1177 0.950 . S
H1173 C1178 0.949 . S
H1174 C1180 0.950 . S
H1175 C1181 0.950 . S
H1176 C1182 0.949 . S
C1177 H1172 0.950 . S
C1177 C1179 1.327 . S
C1177 C1183 1.429 . S
C1178 C1170 1.574 . S
C1178 H1173 0.949 . S
C1178 C1184 1.368 . S
C1179 C1163 1.349 . S
C1179 H1171 0.950 . S
C1179 C1177 1.327 . S
C1180 C1168 1.349 . S
C1180 H1174 0.950 . S
C1180 C1181 1.327 . S
C1181 H1175 0.950 . S
C1181 C1180 1.327 . S
C1181 C1185 1.429 . S
C1182 C1165 1.574 . S
C1182 H1176 0.949 . S
C1182 C1186 1.368 . S
C1183 C1164 1.429 . S
C1183 C1177 1.429 . S
C1183 C1184 1.523 . S
C1184 C1165 1.368 . S
C1184 C1178 1.368 . S
C1184 C1183 1.523 . S
C1185 C1169 1.429 . S
C1185 C1181 1.429 . S
C1185 C1186 1.523 . S
C1186 C1170 1.368 . S
C1186 C1182 1.368 . S
C1186 C1185 1.523 . S
H1187 C1162 0.950 . S
H1188 C1164 0.950 . S
H1189 C1165 0.949 . S
H1190 C1167 0.950 . S
H1191 C1169 0.950 . S
C1192 C1193 1.349 . S
C1192 C1194 1.327 . S
C1192 H1217 0.950 . S
C1193 C1192 1.349 . S
C1193 C1209 1.349 . S
C1194 C1192 1.327 . S
C1194 C1213 1.429 . S
C1194 H1218 0.950 . S
C1195 C1212 1.574 . S
C1195 C1214 1.368 . S
C1195 H1219 0.949 . S
H1196 C1200 0.949 . S
C1197 C1198 1.349 . S
C1197 C1199 1.327 . S
C1197 H1220 0.950 . S
C1198 C1197 1.349 . S
C1198 C1210 1.349 . S
C1199 C1197 1.327 . S
C1199 C1215 1.429 . S
C1199 H1221 0.950 . S
C1200 H1196 0.949 . S
C1200 C1208 1.574 . S
C1200 C1216 1.368 . S
H1201 C1209 0.950 . S
H1202 C1207 0.950 . S
H1203 C1208 0.949 . S
H1204 C1210 0.950 . S
H1205 C1211 0.950 . S
H1206 C1212 0.949 . S
C1207 H1202 0.950 . S
C1207 C1209 1.327 . S
C1207 C1213 1.429 . S
C1208 C1200 1.574 . S
C1208 H1203 0.949 . S
C1208 C1214 1.368 . S
C1209 C1193 1.349 . S
C1209 H1201 0.950 . S
C1209 C1207 1.327 . S
C1210 C1198 1.349 . S
C1210 H1204 0.950 . S
C1210 C1211 1.327 . S
C1211 H1205 0.950 . S
C1211 C1210 1.327 . S
C1211 C1215 1.429 . S
C1212 C1195 1.574 . S
C1212 H1206 0.949 . S
C1212 C1216 1.368 . S
C1213 C1194 1.429 . S
C1213 C1207 1.429 . S
C1213 C1214 1.523 . S
C1214 C1195 1.368 . S
C1214 C1208 1.368 . S
C1214 C1213 1.523 . S
C1215 C1199 1.429 . S
C1215 C1211 1.429 . S
C1215 C1216 1.523 . S
C1216 C1200 1.368 . S
C1216 C1212 1.368 . S
C1216 C1215 1.523 . S
H1217 C1192 0.950 . S
H1218 C1194 0.950 . S
H1219 C1195 0.949 . S
H1220 C1197 0.950 . S
H1221 C1199 0.950 . S
C1222 C1223 1.349 . S
C1222 C1224 1.327 . S
C1222 H1247 0.950 . S
C1223 C1222 1.349 . S
C1223 C1239 1.349 . S
C1224 C1222 1.327 . S
C1224 C1243 1.429 . S
C1224 H1248 0.950 . S
C1225 C1242 1.574 . S
C1225 C1244 1.368 . S
C1225 H1249 0.949 . S
H1226 C1230 0.949 . S
C1227 C1228 1.349 . S
C1227 C1229 1.327 . S
C1227 H1250 0.950 . S
C1228 C1227 1.349 . S
C1228 C1240 1.349 . S
C1229 C1227 1.327 . S
C1229 C1245 1.429 . S
C1229 H1251 0.950 . S
C1230 H1226 0.949 . S
C1230 C1238 1.574 . S
C1230 C1246 1.368 . S
H1231 C1239 0.950 . S
H1232 C1237 0.950 . S
H1233 C1238 0.949 . S
H1234 C1240 0.950 . S
H1235 C1241 0.950 . S
H1236 C1242 0.949 . S
C1237 H1232 0.950 . S
C1237 C1239 1.327 . S
C1237 C1243 1.429 . S
C1238 C1230 1.574 . S
C1238 H1233 0.949 . S
C1238 C1244 1.368 . S
C1239 C1223 1.349 . S
C1239 H1231 0.950 . S
C1239 C1237 1.327 . S
C1240 C1228 1.349 . S
C1240 H1234 0.950 . S
C1240 C1241 1.327 . S
C1241 H1235 0.950 . S
C1241 C1240 1.327 . S
C1241 C1245 1.429 . S
C1242 C1225 1.574 . S
C1242 H1236 0.949 . S
C1242 C1246 1.368 . S
C1243 C1224 1.429 . S
C1243 C1237 1.429 . S
C1243 C1244 1.523 . S
C1244 C1225 1.368 . S
C1244 C1238 1.368 . S
C1244 C1243 1.523 . S
C1245 C1229 1.429 . S
C1245 C1241 1.429 . S
C1245 C1246 1.523 . S
C1246 C1230 1.368 . S
C1246 C1242 1.368 . S
C1246 C1245 1.523 . S
H1247 C1222 0.950 . S
H1248 C1224 0.950 . S
H1249 C1225 0.949 . S
H1250 C1227 0.950 . S
H1251 C1229 0.950 . S
C1252 C1253 1.349 . S
C1252 C1254 1.327 . S
C1252 H1277 0.950 . S
C1253 C1252 1.349 . S
C1253 C1269 1.349 . S
C1254 C1252 1.327 . S
C1254 C1273 1.429 . S
C1254 H1278 0.950 . S
C1255 C1272 1.574 . S
C1255 C1274 1.368 . S
C1255 H1279 0.949 . S
H1256 C1260 0.949 . S
C1257 C1258 1.349 . S
C1257 C1259 1.327 . S
C1257 H1280 0.950 . S
C1258 C1257 1.349 . S
C1258 C1270 1.349 . S
C1259 C1257 1.327 . S
C1259 C1275 1.429 . S
C1259 H1281 0.950 . S
C1260 H1256 0.949 . S
C1260 C1268 1.574 . S
C1260 C1276 1.368 . S
H1261 C1269 0.950 . S
H1262 C1267 0.950 . S
H1263 C1268 0.949 . S
H1264 C1270 0.950 . S
H1265 C1271 0.950 . S
H1266 C1272 0.949 . S
C1267 H1262 0.950 . S
C1267 C1269 1.327 . S
C1267 C1273 1.429 . S
C1268 C1260 1.574 . S
C1268 H1263 0.949 . S
C1268 C1274 1.368 . S
C1269 C1253 1.349 . S
C1269 H1261 0.950 . S
C1269 C1267 1.327 . S
C1270 C1258 1.349 . S
C1270 H1264 0.950 . S
C1270 C1271 1.327 . S
C1271 H1265 0.950 . S
C1271 C1270 1.327 . S
C1271 C1275 1.429 . S
C1272 C1255 1.574 . S
C1272 H1266 0.949 . S
C1272 C1276 1.368 . S
C1273 C1254 1.429 . S
C1273 C1267 1.429 . S
C1273 C1274 1.523 . S
C1274 C1255 1.368 . S
C1274 C1268 1.368 . S
C1274 C1273 1.523 . S
C1275 C1259 1.429 . S
C1275 C1271 1.429 . S
C1275 C1276 1.523 . S
C1276 C1260 1.368 . S
C1276 C1272 1.368 . S
C1276 C1275 1.523 . S
H1277 C1252 0.950 . S
H1278 C1254 0.950 . S
H1279 C1255 0.949 . S
H1280 C1257 0.950 . S
H1281 C1259 0.950 . S
C1282 C1283 1.349 . S
C1282 C1284 1.327 . S
C1282 H1307 0.950 . S
C1283 C1282 1.349 . S
C1283 C1299 1.349 . S
C1284 C1282 1.327 . S
C1284 C1303 1.429 . S
C1284 H1308 0.950 . S
C1285 C1302 1.574 . S
C1285 C1304 1.368 . S
C1285 H1309 0.949 . S
H1286 C1290 0.949 . S
C1287 C1288 1.349 . S
C1287 C1289 1.327 . S
C1287 H1310 0.950 . S
C1288 C1287 1.349 . S
C1288 C1300 1.349 . S
C1289 C1287 1.327 . S
C1289 C1305 1.429 . S
C1289 H1311 0.950 . S
C1290 H1286 0.949 . S
C1290 C1298 1.574 . S
C1290 C1306 1.368 . S
H1291 C1299 0.950 . S
H1292 C1297 0.950 . S
H1293 C1298 0.949 . S
H1294 C1300 0.950 . S
H1295 C1301 0.950 . S
H1296 C1302 0.949 . S
C1297 H1292 0.950 . S
C1297 C1299 1.327 . S
C1297 C1303 1.429 . S
C1298 C1290 1.574 . S
C1298 H1293 0.949 . S
C1298 C1304 1.368 . S
C1299 C1283 1.349 . S
C1299 H1291 0.950 . S
C1299 C1297 1.327 . S
C1300 C1288 1.349 . S
C1300 H1294 0.950 . S
C1300 C1301 1.327 . S
C1301 H1295 0.950 . S
C1301 C1300 1.327 . S
C1301 C1305 1.429 . S
C1302 C1285 1.574 . S
C1302 H1296 0.949 . S
C1302 C1306 1.368 . S
C1303 C1284 1.429 . S
C1303 C1297 1.429 . S
C1303 C1304 1.523 . S
C1304 C1285 1.368 . S
C1304 C1298 1.368 . S
C1304 C1303 1.523 . S
C1305 C1289 1.429 . S
C1305 C1301 1.429 . S
C1305 C1306 1.523 . S
C1306 C1290 1.368 . S
C1306 C1302 1.368 . S
C1306 C1305 1.523 . S
H1307 C1282 0.950 . S
H1308 C1284 0.950 . S
H1309 C1285 0.949 . S
H1310 C1287 0.950 . S
H1311 C1289 0.950 . S
C593 C215 1.971 . S
C598 C330 1.970 . S
C628 C414 2.006 . S
C623 C247 2.008 . S
C658 C480 1.994 . S
C653 C151 2.140 . S
C688 C564 1.968 . S
C683 C183 2.112 . S
C718 C319 1.970 1_565 S
C713 C87 1.869 . S
C743 C119 1.896 . S
C748 C403 2.006 . S
C773 C23 2.020 . S
C778 C491 1.994 . S
C803 C55 2.000 . S
C808 C575 1.969 . S
C838 C326 0.447 1_455 S
C833 C189 0.350 . S
C868 C410 0.426 1_545 S
C863 C221 0.294 . S
C898 C482 0.464 . S
C893 C253 0.240 . S
C923 C157 0.291 . S
C928 C566 0.469 . S
C953 C61 0.585 . S
C958 C314 0.447 . S
C988 C398 0.427 . S
C983 C93 0.568 . S
C1018 C494 0.464 . S
C1013 C125 0.584 . S
C1043 C29 0.590 . S
C1048 C578 0.469 . S
C1073 C177 2.380 . S
C1078 C323 2.408 . S
C1103 C209 2.332 . S
C1108 C407 2.363 . S
C1138 C487 2.344 . S
C1133 C241 2.210 . S
C1168 C571 2.383 . S
C1163 C145 2.250 . S
C1193 C49 2.282 . S
C1198 C312 2.409 . S
C1228 C396 2.363 . S
C1223 C81 2.242 . S
C1258 C498 2.344 . S
C1253 C113 2.112 . S
C1283 C17 2.146 . S
C1288 C582 2.383 . S
