# Generated by pormake.
# Topology rtl, (3,6)-cn, num edge types: 1
# Building blocks:
#     Node 0, Type 0, BuildingBlock: VETTIZ_charged_linker_0, # of connection points: 3
#     Node 1, Type 0, BuildingBlock: VETTIZ_charged_linker_0, # of connection points: 3
#     Node 2, Type 0, BuildingBlock: VETTIZ_charged_linker_0, # of connection points: 3
#     Node 3, Type 0, BuildingBlock: VETTIZ_charged_linker_0, # of connection points: 3
#     Node 4, Type 1, BuildingBlock: CIFDUS_clean_sbu_1, # of connection points: 6
#     Node 5, Type 1, BuildingBlock: CIFDUS_clean_sbu_1, # of connection points: 6
#     Edge 6, Type (0, 1), BuildingBlock: FUNLAD_clean_linker_1, # of connection points: 2
#     Edge 7, Type (0, 1), BuildingBlock: FUNLAD_clean_linker_1, # of connection points: 2
#     Edge 8, Type (0, 1), BuildingBlock: FUNLAD_clean_linker_1, # of connection points: 2
#     Edge 9, Type (0, 1), BuildingBlock: FUNLAD_clean_linker_1, # of connection points: 2
#     Edge 10, Type (0, 1), BuildingBlock: FUNLAD_clean_linker_1, # of connection points: 2
#     Edge 11, Type (0, 1), BuildingBlock: FUNLAD_clean_linker_1, # of connection points: 2
#     Edge 12, Type (0, 1), BuildingBlock: FUNLAD_clean_linker_1, # of connection points: 2
#     Edge 13, Type (0, 1), BuildingBlock: FUNLAD_clean_linker_1, # of connection points: 2
#     Edge 14, Type (0, 1), BuildingBlock: FUNLAD_clean_linker_1, # of connection points: 2
#     Edge 15, Type (0, 1), BuildingBlock: FUNLAD_clean_linker_1, # of connection points: 2
#     Edge 16, Type (0, 1), BuildingBlock: FUNLAD_clean_linker_1, # of connection points: 2
#     Edge 17, Type (0, 1), BuildingBlock: FUNLAD_clean_linker_1, # of connection points: 2
# Relax obj value: 0.030
# Max RMSD: 0.064
# Mean RMSD: 0.050
data_MOF--net-rtl--node1-CIFDUS_clean_sbu_1--node2-VETTIZ_charged_linker_0--edge1-FUNLAD_clean_linker_1
_symmetry_space_group_name_H-M    P1
_symmetry_Int_Tables_number       1
_symmetry_cell_setting            triclinic
loop_
_symmetry_equiv_pos_as_xyz
'x, y, z'
_cell_length_a     38.15987
_cell_length_b     43.612277
_cell_length_c     30.491097
_cell_angle_alpha  90.154818
_cell_angle_beta   97.973222
_cell_angle_gamma 90.112784
loop_
_atom_site_label
_atom_site_type_symbol
_atom_site_fract_x
_atom_site_fract_y
_atom_site_fract_z
_atom_type_partial_charge
C0 C 0.16585 0.87286 0.9428 0.0
C1 C 0.14263 0.89798 0.93477 0.0
C2 C 0.13513 0.91569 0.97105 0.0
C3 C 0.17365 0.88385 0.0219 0.0
C4 C 0.18101 0.86632 0.98644 0.0
C5 C 0.20716 0.84122 1.00074 0.0
H6 H 0.3182 0.77256 0.16444 0.0
C7 C 0.1947 0.87179 0.06264 0.0
C8 C 0.2145 0.84681 0.05042 0.0
H9 H 0.29888 0.74819 0.02561 0.0
H10 H 0.25578 0.78848 0.01217 0.0
H11 H 0.31864 0.84471 0.1509 0.0
H12 H 0.23628 0.78203 0.17467 0.0
H13 H 0.23075 0.81513 0.20574 0.0
H14 H 0.27111 0.79336 0.21737 0.0
H15 H 0.31692 0.82751 0.20397 0.0
H16 H 0.29423 0.8629 0.18822 0.0
C17 C 0.24051 0.84662 0.978 0.0
C18 C 0.18863 0.80998 0.98953 0.0
C19 C 0.18416 0.92016 0.2127 0.0
C20 C 0.20041 0.9136 0.2561 0.0
C21 C 0.22683 0.89092 0.26213 0.0
C22 C 0.23596 0.87413 0.22619 0.0
C23 C 0.21861 0.88009 0.18337 0.0
C24 C 0.1936 0.90309 0.17703 0.0
C25 C 0.17856 0.90657 0.12891 0.0
C26 C 0.19786 0.8812 0.10775 0.0
C27 C 0.22125 0.86581 0.1399 0.0
C28 C 0.18878 0.93881 0.1135 0.0
C29 C 0.13821 0.90052 0.12418 0.0
C30 C 0.30448 0.77583 0.13123 0.0
C31 C 0.31155 0.75672 0.09642 0.0
C32 C 0.29331 0.76187 0.05348 0.0
C33 C 0.26848 0.78559 0.04555 0.0
C34 C 0.26171 0.80452 0.08077 0.0
C35 C 0.27935 0.79925 0.12282 0.0
C36 C 0.26821 0.82111 0.15645 0.0
C37 C 0.24139 0.84065 0.1276 0.0
C38 C 0.23782 0.83101 0.08321 0.0
C39 C 0.30108 0.84002 0.17637 0.0
C40 C 0.25087 0.80215 0.19069 0.0
H41 H 0.14351 0.92324 0.0404 0.0
H42 H 0.17312 0.8591 0.91594 0.0
H43 H 0.16011 0.81115 0.99351 0.0
H44 H 0.19945 0.79142 0.01198 0.0
H45 H 0.19029 0.8031 0.95478 0.0
H46 H 0.24688 0.8715 0.9772 0.0
H47 H 0.23637 0.83811 0.94329 0.0
H48 H 0.2645 0.83585 0.99573 0.0
H49 H 0.16455 0.93803 0.20626 0.0
H50 H 0.23994 0.8856 0.29507 0.0
H51 H 0.25593 0.85689 0.23331 0.0
H52 H 0.21485 0.94628 0.13132 0.0
H53 H 0.1689 0.95624 0.11991 0.0
H54 H 0.19215 0.93942 0.07811 0.0
H55 H 0.13233 0.8811 0.14561 0.0
H56 H 0.12672 0.89376 0.09032 0.0
H57 H 0.12392 0.92099 0.1342 0.0
H58 H 0.11757 0.93523 0.96578 0.0
C59 C 0.15031 0.90874 0.01441 0.0
C60 C 0.71203 0.65056 0.73616 0.0
C61 C 0.69208 0.62352 0.73708 0.0
C62 C 0.68096 0.60785 0.69699 0.0
C63 C 0.70797 0.64692 0.65607 0.0
C64 C 0.72006 0.66159 0.69553 0.0
C65 C 0.74145 0.68978 0.68866 0.0
H66 H 0.80613 0.78832 0.54834 0.0
C67 C 0.71884 0.66537 0.61956 0.0
C68 C 0.73883 0.69033 0.63847 0.0
H69 H 0.82403 0.78841 0.69177 0.0
H70 H 0.78735 0.74386 0.69286 0.0
H71 H 0.81379 0.71437 0.53627 0.0
H72 H 0.72308 0.77277 0.53935 0.0
H73 H 0.71145 0.74461 0.49864 0.0
H74 H 0.74654 0.77135 0.49229 0.0
H75 H 0.7996 0.7418 0.49368 0.0
H76 H 0.78081 0.70386 0.4925 0.0
C77 C 0.77994 0.68447 0.71121 0.0
C78 C 0.723 0.71784 0.70658 0.0
C79 C 0.67541 0.63532 0.46007 0.0
C80 C 0.6784 0.64886 0.419 0.0
C81 C 0.69806 0.67629 0.41825 0.0
C82 C 0.71425 0.68992 0.45784 0.0
C83 C 0.71074 0.67611 0.49869 0.0
C84 C 0.69135 0.64935 0.49922 0.0
C85 C 0.68946 0.63823 0.54548 0.0
C86 C 0.7111 0.66259 0.57276 0.0
C87 C 0.72373 0.68467 0.54528 0.0
C88 C 0.70725 0.60628 0.55091 0.0
C89 C 0.6501 0.63864 0.55294 0.0
C90 C 0.80216 0.77875 0.58004 0.0
C91 C 0.81826 0.79228 0.61983 0.0
C92 C 0.81227 0.77897 0.66036 0.0
C93 C 0.79086 0.75281 0.66102 0.0
C94 C 0.77518 0.73959 0.62092 0.0
C95 C 0.78093 0.75258 0.58129 0.0
C96 C 0.76218 0.73535 0.5419 0.0
C97 C 0.74487 0.70949 0.56445 0.0
C98 C 0.75244 0.71222 0.61076 0.0
C99 C 0.79035 0.72326 0.51424 0.0
C100 C 0.73446 0.75702 0.51629 0.0
H101 H 0.67906 0.60671 0.62723 0.0
H102 H 0.72094 0.66301 0.76648 0.0
H103 H 0.69381 0.71629 0.69723 0.0
H104 H 0.73075 0.7398 0.69279 0.0
H105 H 0.72856 0.71907 0.74328 0.0
H106 H 0.78687 0.65969 0.71189 0.0
H107 H 0.78371 0.69286 0.74598 0.0
H108 H 0.79981 0.69539 0.69311 0.0
H109 H 0.6606 0.61422 0.46174 0.0
H110 H 0.70162 0.68695 0.38717 0.0
H111 H 0.72902 0.71062 0.4551 0.0
H112 H 0.72931 0.60444 0.53071 0.0
H113 H 0.68802 0.58769 0.5401 0.0
H114 H 0.71967 0.6018 0.58523 0.0
H115 H 0.63634 0.65906 0.53701 0.0
H116 H 0.64655 0.6404 0.58814 0.0
H117 H 0.63593 0.61792 0.53844 0.0
H118 H 0.66491 0.58732 0.69648 0.0
C119 C 0.68882 0.61939 0.6566 0.0
C120 C 0.8584 0.1814 0.15772 0.0
C121 C 0.8844 0.15882 0.16799 0.0
C122 C 0.89621 0.14219 0.13301 0.0
C123 C 0.85539 0.17003 0.07913 0.0
C124 C 0.84456 0.18679 0.11337 0.0
C125 C 0.81682 0.21009 0.09711 0.0
H126 H 0.70486 0.27142 0.92859 0.0
C127 C 0.83434 0.18026 0.03714 0.0
C128 C 0.81189 0.20391 0.0476 0.0
H129 H 0.72097 0.29843 0.06654 0.0
H130 H 0.76616 0.26027 0.08235 0.0
H131 H 0.78852 0.26469 0.92049 0.0
H132 H 0.70838 0.19997 0.94496 0.0
H133 H 0.73513 0.18122 0.91094 0.0
H134 H 0.71089 0.21503 0.89078 0.0
H135 H 0.7536 0.2526 0.8784 0.0
H136 H 0.79454 0.23165 0.88942 0.0
C137 C 0.83232 0.2425 0.10862 0.0
C138 C 0.78294 0.20257 0.11774 0.0
C139 C 0.84937 0.12893 0.89014 0.0
C140 C 0.83223 0.13313 0.84647 0.0
C141 C 0.80428 0.15432 0.83899 0.0
C142 C 0.79426 0.17184 0.87369 0.0
C143 C 0.81218 0.16811 0.91678 0.0
C144 C 0.83886 0.14662 0.92465 0.0
C145 C 0.85399 0.14522 0.97303 0.0
C146 C 0.83261 0.16995 0.99251 0.0
C147 C 0.80825 0.18329 0.95922 0.0
C148 C 0.89379 0.15354 0.9776 0.0
C149 C 0.84631 0.11292 0.99042 0.0
C150 C 0.71838 0.2692 0.9621 0.0
C151 C 0.70977 0.2885 0.99597 0.0
C152 C 0.72772 0.28467 0.03934 0.0
C153 C 0.75382 0.26217 0.04866 0.0
C154 C 0.76222 0.24311 0.01443 0.0
C155 C 0.74487 0.247 0.97193 0.0
C156 C 0.75794 0.22511 0.93961 0.0
C157 C 0.78588 0.20743 0.9698 0.0
C158 C 0.78798 0.21788 0.01364 0.0
C159 C 0.77435 0.24427 0.90482 0.0
C160 C 0.7266 0.20428 0.92012 0.0
H161 H 0.89161 0.13404 0.06372 0.0
H162 H 0.84876 0.19448 0.18383 0.0
H163 H 0.77811 0.17739 0.11745 0.0
H164 H 0.75877 0.21257 0.09927 0.0
H165 H 0.78543 0.21052 0.15267 0.0
H166 H 0.86164 0.24271 0.11033 0.0
H167 H 0.82593 0.25052 0.14119 0.0
H168 H 0.82306 0.2597 0.08305 0.0
H169 H 0.87027 0.11226 0.89762 0.0
H170 H 0.79052 0.15782 0.80584 0.0
H171 H 0.77305 0.18781 0.86547 0.0
H172 H 0.89844 0.17212 0.95412 0.0
H173 H 0.90984 0.13343 0.97024 0.0
H174 H 0.90421 0.1626 0.0107 0.0
H175 H 0.81958 0.10482 0.97564 0.0
H176 H 0.84593 0.1124 0.02651 0.0
H177 H 0.86593 0.09596 0.98171 0.0
H178 H 0.9156 0.12413 0.13975 0.0
C179 C 0.88187 0.1477 0.08874 0.0
C180 C 0.31043 0.39299 0.36506 0.0
C181 C 0.33483 0.4175 0.36801 0.0
C182 C 0.34942 0.42832 0.41016 0.0
C183 C 0.31608 0.39057 0.44545 0.0
C184 C 0.30155 0.37991 0.40414 0.0
C185 C 0.27744 0.35282 0.40733 0.0
H186 H 0.20692 0.24904 0.53568 0.0
C187 C 0.30231 0.37154 0.47935 0.0
C188 C 0.2795 0.3494 0.45726 0.0
H189 H 0.1943 0.25289 0.39265 0.0
H190 H 0.22905 0.29934 0.39632 0.0
H191 H 0.29044 0.26755 0.5524 0.0
H192 H 0.19454 0.31968 0.55061 0.0
H193 H 0.22616 0.33707 0.59029 0.0
H194 H 0.21263 0.29797 0.59827 0.0
H195 H 0.26006 0.26285 0.59195 0.0
H196 H 0.29429 0.29145 0.5996 0.0
C197 C 0.29334 0.32479 0.38583 0.0
C198 C 0.23979 0.36168 0.3855 0.0
C199 C 0.34279 0.39276 0.64282 0.0
C200 C 0.33262 0.38071 0.68192 0.0
C201 C 0.30678 0.35744 0.6788 0.0
C202 C 0.29197 0.34566 0.63742 0.0
C203 C 0.30259 0.35773 0.59856 0.0
C204 C 0.32714 0.38126 0.6017 0.0
C205 C 0.33309 0.39299 0.55694 0.0
C206 C 0.30857 0.37227 0.52641 0.0
C207 C 0.29123 0.35132 0.55093 0.0
C208 C 0.37246 0.38767 0.5519 0.0
C209 C 0.32125 0.42701 0.55332 0.0
C210 C 0.21155 0.25996 0.50511 0.0
C211 C 0.19762 0.24723 0.46395 0.0
C212 C 0.20414 0.26224 0.42491 0.0
C213 C 0.22469 0.28916 0.42711 0.0
C214 C 0.23902 0.3012 0.46867 0.0
C215 C 0.23193 0.28677 0.50677 0.0
C216 C 0.24892 0.3028 0.54811 0.0
C217 C 0.26841 0.32869 0.52866 0.0
C218 C 0.26253 0.32771 0.48209 0.0
C219 C 0.27472 0.28009 0.5748 0.0
C220 C 0.21924 0.31491 0.57352 0.0
H221 H 0.35236 0.42448 0.47973 0.0
H222 H 0.29943 0.38339 0.33336 0.0
H223 H 0.2337 0.38581 0.39364 0.0
H224 H 0.21887 0.34779 0.39749 0.0
H225 H 0.23727 0.35968 0.34887 0.0
H226 H 0.32276 0.32532 0.39219 0.0
H227 H 0.28539 0.32452 0.34938 0.0
H228 H 0.28596 0.30271 0.39963 0.0
H229 H 0.3616 0.41149 0.64409 0.0
H230 H 0.29819 0.34825 0.70853 0.0
H231 H 0.27267 0.32774 0.63726 0.0
H232 H 0.38177 0.36526 0.56648 0.0
H233 H 0.38957 0.40587 0.56916 0.0
H234 H 0.3772 0.38644 0.51705 0.0
H235 H 0.29921 0.43142 0.57286 0.0
H236 H 0.31053 0.4337 0.51916 0.0
H237 H 0.34335 0.44269 0.56601 0.0
H238 H 0.36844 0.44696 0.41327 0.0
C239 C 0.34009 0.41518 0.44876 0.0
O240 O 0.99479 0.0543 0.50029 0.0
Mn241 Mn 0.01401 0.02197 0.54901 0.0
O242 O 0.94841 0.03297 0.45755 0.0
Mn243 Mn 0.95992 0.99327 0.47491 0.0
O244 O 0.0342 0.98994 0.59769 0.0
O245 O 0.05569 0.04917 0.56508 0.0
Mn246 Mn 0.06795 0.05288 0.62241 0.0
O247 O 0.98697 0.04398 0.59545 0.0
O248 O 0.07881 0.01336 0.64165 0.0
O249 O 0.04099 1.00006 0.50275 0.0
O250 O 0.99936 0.97756 0.45304 0.0
O251 O 0.09829 0.07767 0.59519 0.0
O252 O 0.02817 0.06924 0.64257 0.0
C253 C 0.94727 0.97501 0.53636 0.0
C254 C 0.96877 0.05572 0.46861 0.0
C255 C 0.05982 0.98977 0.6301 0.0
C256 C 0.07968 0.06865 0.55869 0.0
C257 C 0.99615 0.06174 0.62893 0.0
C258 C 0.03157 0.98373 0.46787 0.0
O259 O 0.97202 0.99457 0.53269 0.0
O260 O 0.92887 0.96771 0.49884 0.0
O261 O 0.53143 0.54643 0.09948 0.0
Mn262 Mn 0.50599 0.51915 0.04752 0.0
O263 O 0.55772 0.51441 0.15184 0.0
Mn264 Mn 0.53718 0.47864 0.12715 0.0
O265 O 0.48095 0.49198 0.99504 0.0
O266 O 0.4767 0.55548 0.02607 0.0
Mn267 Mn 0.47415 0.55993 0.96852 0.0
O268 O 0.54516 0.53144 0.0087 0.0
O269 O 0.45271 0.52437 0.94456 0.0
O270 O 0.46647 0.50651 0.0859 0.0
O271 O 0.49084 0.47229 0.13629 0.0
O272 O 0.44812 0.59165 0.9882 0.0
O273 O 0.52043 0.56554 0.95829 0.0
C274 C 0.55547 0.45939 0.06942 0.0
C275 C 0.55103 0.54134 0.13664 0.0
C276 C 0.46037 0.49733 0.95866 0.0
C277 C 0.45726 0.5795 0.02671 0.0
C278 C 0.54697 0.55023 0.97658 0.0
C279 C 0.46432 0.48738 0.11755 0.0
O280 O 0.53539 0.48303 0.0695 0.0
O281 O 0.56418 0.44732 0.10807 0.0
H282 H 0.18196 0.20449 0.4945 0.0
C283 C 0.17838 0.21748 0.46376 0.0
H284 H 0.15002 0.21831 0.39857 0.0
H285 H 0.15755 0.07514 0.47954 0.0
H286 H 0.21579 0.07413 0.45497 0.0
H287 H 0.23888 0.11976 0.42047 0.0
H288 H 0.20392 0.16662 0.41019 0.0
C289 C 0.15645 0.20577 0.42929 0.0
C290 C 0.13872 0.17579 0.4348 0.0
C291 C 0.15904 0.14859 0.43942 0.0
C292 C 0.14581 0.12237 0.45927 0.0
C293 C 0.16689 0.09569 0.46495 0.0
C294 C 0.20009 0.09484 0.45084 0.0
C295 C 0.21308 0.12053 0.43138 0.0
C296 C 0.19294 0.14724 0.42581 0.0
H297 H 0.06596 0.07592 0.48593 0.0
C298 C 0.0837 0.08249 0.51546 0.0
H299 H 0.12596 0.11043 0.54375 0.0
H300 H 0.08944 0.2209 0.41744 0.0
H301 H 0.02871 0.21952 0.43388 0.0
H302 H 0.00594 0.17412 0.4691 0.0
H303 H 0.04347 0.12981 0.4879 0.0
C304 C 0.10788 0.10481 0.51402 0.0
C305 C 0.11256 0.12353 0.47462 0.0
C306 C 0.08986 0.14875 0.46282 0.0
C307 C 0.10303 0.175 0.44265 0.0
C308 C 0.08054 0.2005 0.43282 0.0
C309 C 0.04576 0.19996 0.44204 0.0
C310 C 0.03292 0.17437 0.46188 0.0
C311 C 0.05473 0.1491 0.47262 0.0
H312 H 0.36158 0.73746 0.13113 0.0
C313 C 0.33967 0.73308 0.10504 0.0
H314 H 0.31779 0.70195 0.05542 0.0
H315 H 0.4627 0.65365 0.00961 0.0
H316 H 0.44933 0.69153 0.95237 0.0
H317 H 0.40058 0.72828 0.95453 0.0
H318 H 0.36478 0.72704 0.01414 0.0
C319 C 0.33958 0.70709 0.08124 0.0
C320 C 0.37136 0.68711 0.08388 0.0
C321 C 0.39262 0.68847 0.04936 0.0
C322 C 0.42108 0.66757 0.04862 0.0
C323 C 0.44108 0.66905 0.01273 0.0
C324 C 0.43365 0.69075 0.97934 0.0
C325 C 0.4062 0.7114 0.98052 0.0
C326 C 0.38581 0.71036 0.01495 0.0
H327 H 0.41848 0.58508 0.07158 0.0
C328 C 0.44467 0.5926 0.06602 0.0
H329 H 0.48106 0.62867 0.07103 0.0
H330 H 0.33673 0.67929 0.15575 0.0
H331 H 0.35169 0.64286 0.21559 0.0
H332 H 0.40242 0.60783 0.21577 0.0
H333 H 0.43825 0.60865 0.15575 0.0
C334 C 0.45528 0.62113 0.07817 0.0
C335 C 0.42835 0.6453 0.08267 0.0
C336 C 0.40823 0.64504 0.11842 0.0
C337 C 0.37948 0.6658 0.11884 0.0
C338 C 0.35913 0.66436 0.15418 0.0
C339 C 0.36742 0.64355 0.18866 0.0
C340 C 0.39594 0.62376 0.18871 0.0
C341 C 0.41619 0.62436 0.15405 0.0
H342 H 0.84431 0.82769 0.58393 0.0
C343 C 0.84113 0.81983 0.61701 0.0
H344 H 0.85534 0.82981 0.68556 0.0
H345 H 0.96501 0.90183 0.56407 0.0
H346 H 0.98812 0.85105 0.55252 0.0
H347 H 0.963 0.80537 0.58439 0.0
H348 H 0.91421 0.81024 0.6275 0.0
C349 C 0.85814 0.83569 0.65174 0.0
C350 C 0.87997 0.86311 0.64399 0.0
C351 C 0.90955 0.86002 0.62084 0.0
C352 C 0.92457 0.88642 0.6034 0.0
C353 C 0.95276 0.88256 0.57825 0.0
C354 C 0.96635 0.85355 0.57153 0.0
C355 C 0.95218 0.82783 0.58943 0.0
C356 C 0.92409 0.83089 0.61383 0.0
H357 H 0.96319 0.95908 0.60565 0.0
C358 C 0.94236 0.9587 0.57749 0.0
H359 H 0.89317 0.94059 0.5489 0.0
H360 H 0.8299 0.87758 0.69685 0.0
H361 H 0.81153 0.92889 0.71513 0.0
H362 H 0.83865 0.9746 0.68589 0.0
H363 H 0.88438 0.9692 0.63787 0.0
C364 C 0.91401 0.94024 0.57709 0.0
C365 C 0.91039 0.9158 0.60996 0.0
C366 C 0.88469 0.91916 0.63882 0.0
C367 C 0.86935 0.89277 0.65595 0.0
C368 C 0.84258 0.89685 0.68319 0.0
C369 C 0.83183 0.92615 0.6939 0.0
C370 C 0.84705 0.95191 0.67737 0.0
C371 C 0.87306 0.94857 0.64985 0.0
H372 H 0.65854 0.30516 0.96077 0.0
C373 C 0.68041 0.3109 0.98629 0.0
H374 H 0.70108 0.34369 0.03419 0.0
H375 H 0.57766 0.43511 0.9412 0.0
H376 H 0.61408 0.4397 0.88209 0.0
H377 H 0.66564 0.40595 0.87977 0.0
H378 H 0.68101 0.36721 0.93637 0.0
C379 C 0.67925 0.33719 0.00915 0.0
C380 C 0.64629 0.35558 0.00706 0.0
C381 C 0.63776 0.37808 0.97388 0.0
C382 C 0.60838 0.39794 0.97567 0.0
C383 C 0.60015 0.41995 0.94185 0.0
C384 C 0.62071 0.4227 0.90768 0.0
C385 C 0.64973 0.40366 0.90635 0.0
C386 C 0.65829 0.38155 0.939 0.0
H387 H 0.59581 0.45557 0.02621 0.0
C388 C 0.56976 0.44711 0.03077 0.0
H389 H 0.53465 0.41007 0.02357 0.0
H390 H 0.65363 0.31287 0.07326 0.0
H391 H 0.61758 0.30807 0.13228 0.0
H392 H 0.56779 0.34329 0.13707 0.0
H393 H 0.55363 0.38321 0.08302 0.0
C394 C 0.56025 0.4186 0.01721 0.0
C395 C 0.58797 0.3955 0.01101 0.0
C396 C 0.59569 0.37201 0.04317 0.0
C397 C 0.62477 0.35202 0.041 0.0
C398 C 0.63209 0.32892 0.07361 0.0
C399 C 0.61157 0.32584 0.10768 0.0
C400 C 0.58353 0.34563 0.11032 0.0
C401 C 0.57562 0.36849 0.07873 0.0
H402 H 0.20764 0.92632 0.32719 0.0
C403 C 0.19003 0.9288 0.29614 0.0
H404 H 0.13948 0.94461 0.26754 0.0
H405 H 0.10383 0.92396 0.46889 0.0
H406 H 0.11138 0.86972 0.45442 0.0
H407 H 0.13405 0.85256 0.38651 0.0
H408 H 0.14995 0.88934 0.33327 0.0
C409 C 0.1584 0.94211 0.29728 0.0
C410 C 0.1469 0.95218 0.33978 0.0
C411 C 0.13687 0.93013 0.36992 0.0
C412 C 0.12226 0.93989 0.40804 0.0
C413 C 0.11372 0.91759 0.43855 0.0
C414 C 0.11815 0.88646 0.4308 0.0
C415 C 0.13103 0.87681 0.39265 0.0
C416 C 0.14024 0.89825 0.36241 0.0
H417 H 0.04913 0.95697 0.41403 0.0
C418 C 0.05839 0.97215 0.44162 0.0
H419 H 0.10203 0.9975 0.47336 0.0
H420 H 0.16749 1.00018 0.29189 0.0
H421 H 0.16089 0.05439 0.30756 0.0
H422 H 0.13366 0.0712 0.37237 0.0
H423 H 0.11306 0.03403 0.42211 0.0
C424 C 0.09244 0.98112 0.44753 0.0
C425 C 0.11598 0.97147 0.41481 0.0
C426 C 0.12831 0.99356 0.38651 0.0
C427 C 0.14374 0.98387 0.34888 0.0
C428 C 0.15535 0.00635 0.32072 0.0
C429 C 0.15177 0.0375 0.32937 0.0
C430 C 0.13645 0.04697 0.36589 0.0
C431 C 0.12469 0.02537 0.39416 0.0
H432 H 0.67407 0.63176 0.80187 0.0
C433 C 0.68 0.61384 0.77916 0.0
H434 H 0.68074 0.56622 0.76712 0.0
H435 H 0.64031 0.59047 0.97361 0.0
H436 H 0.69962 0.61162 0.99134 0.0
H437 H 0.73921 0.61549 0.93408 0.0
H438 H 0.71958 0.59871 0.85854 0.0
C439 C 0.67426 0.58435 0.78907 0.0
C440 C 0.65413 0.57619 0.82604 0.0
C441 C 0.66657 0.58492 0.87039 0.0
C442 C 0.64415 0.58183 0.90377 0.0
C443 C 0.6565 0.59202 0.94724 0.0
C444 C 0.69046 0.60412 0.95783 0.0
C445 C 0.71273 0.60636 0.92555 0.0
C446 C 0.70108 0.59687 0.88229 0.0
H447 H 0.60061 0.53507 0.96535 0.0
C448 C 0.58011 0.5521 0.95649 0.0
H449 H 0.5622 0.58876 0.91419 0.0
H450 H 0.62356 0.55309 0.74567 0.0
H451 H 0.5665 0.52813 0.73004 0.0
H452 H 0.52887 0.52099 0.78881 0.0
H453 H 0.54809 0.53913 0.86357 0.0
C454 C 0.5831 0.57221 0.92376 0.0
C455 C 0.60985 0.56922 0.89295 0.0
C456 C 0.59886 0.55761 0.84977 0.0
C457 C 0.62089 0.56122 0.81617 0.0
C458 C 0.60835 0.55059 0.77282 0.0
C459 C 0.57552 0.53623 0.76329 0.0
C460 C 0.5543 0.53227 0.79633 0.0
C461 C 0.56562 0.54287 0.83907 0.0
H462 H 0.87746 0.15516 0.23866 0.0
C463 C 0.89616 0.15128 0.21534 0.0
H464 H 0.94727 0.13534 0.20802 0.0
H465 H 0.94271 0.14257 0.42773 0.0
H466 H 0.94083 0.19789 0.41837 0.0
H467 H 0.93717 0.2209 0.34403 0.0
H468 H 0.93512 0.18875 0.27846 0.0
C469 C 0.9279 0.13905 0.23042 0.0
C470 C 0.93537 0.1261 0.27608 0.0
C471 C 0.93728 0.14522 0.31415 0.0
C472 C 0.94023 0.13198 0.35723 0.0
C473 C 0.94096 0.1515 0.39444 0.0
C474 C 0.93988 0.18325 0.3895 0.0
C475 C 0.93777 0.19621 0.34761 0.0
C476 C 0.93643 0.17753 0.31025 0.0
H477 H 0.98932 0.09685 0.4379 0.0
C478 C 0.96615 0.08234 0.43811 0.0
H479 H 0.91603 0.0696 0.40536 0.0
H480 H 0.93634 0.08287 0.21067 0.0
H481 H 0.94352 0.0281 0.22074 0.0
H482 H 0.95088 0.00543 0.29545 0.0
H483 H 0.95081 0.03741 0.3605 0.0
C484 C 0.93874 0.08469 0.40528 0.0
C485 C 0.94189 0.09971 0.36213 0.0
C486 C 0.94297 0.08082 0.32435 0.0
C487 C 0.93951 0.09396 0.28134 0.0
C488 C 0.93943 0.07429 0.24422 0.0
C489 C 0.94347 0.04273 0.24948 0.0
C490 C 0.94754 0.02996 0.29152 0.0
C491 C 0.94727 0.04862 0.32859 0.0
H492 H 0.32834 0.39755 0.74953 0.0
C493 C 0.34675 0.39368 0.72589 0.0
H494 H 0.39957 0.39634 0.71364 0.0
H495 H 0.44964 0.50706 0.83793 0.0
H496 H 0.45883 0.5256 0.76562 0.0
H497 H 0.43799 0.49576 0.69821 0.0
H498 H 0.40828 0.4471 0.7027 0.0
C499 C 0.38117 0.40085 0.73706 0.0
C500 C 0.39443 0.4182 0.7785 0.0
C501 C 0.41124 0.447 0.77513 0.0
C502 C 0.42221 0.46472 0.81387 0.0
C503 C 0.43979 0.49302 0.80954 0.0
C504 C 0.44545 0.5039 0.76822 0.0
C505 C 0.4338 0.48707 0.7303 0.0
C506 C 0.41684 0.45902 0.73346 0.0
H507 H 0.46127 0.44953 0.93341 0.0
C508 C 0.44757 0.47136 0.92915 0.0
H509 H 0.40885 0.49773 0.89029 0.0
H510 H 0.37072 0.36122 0.79832 0.0
H511 H 0.36044 0.34318 0.87065 0.0
H512 H 0.37376 0.37619 0.93671 0.0
H513 H 0.39832 0.42712 0.93105 0.0
C514 C 0.42202 0.47563 0.89445 0.0
C515 C 0.41542 0.45422 0.85592 0.0
C516 C 0.39974 0.425 0.85958 0.0
C517 C 0.39019 0.4066 0.821 0.0
C518 C 0.3767 0.37675 0.82606 0.0
C519 C 0.37098 0.36601 0.86747 0.0
C520 C 0.37861 0.38455 0.90469 0.0
C521 C 0.39282 0.41372 0.901 0.0
H522 H 0.65667 0.60852 0.38027 0.0
C523 C 0.66195 0.63295 0.37796 0.0
H524 H 0.65447 0.67159 0.33563 0.0
H525 H 0.6482 0.55167 0.19831 0.0
H526 H 0.71183 0.55017 0.21981 0.0
H527 H 0.74113 0.58511 0.27738 0.0
H528 H 0.70694 0.62171 0.3139 0.0
C529 C 0.65204 0.64693 0.33888 0.0
C530 C 0.6351 0.62893 0.29982 0.0
C531 C 0.65547 0.60803 0.27826 0.0
C532 C 0.63857 0.58799 0.24492 0.0
C533 C 0.65961 0.56718 0.22422 0.0
C534 C 0.69618 0.56618 0.23607 0.0
C535 C 0.71267 0.58585 0.26848 0.0
C536 C 0.69272 0.60662 0.28936 0.0
H537 H 0.56351 0.59069 0.14957 0.0
C538 C 0.56646 0.56777 0.16348 0.0
H539 H 0.58723 0.54075 0.21831 0.0
H540 H 0.58914 0.66901 0.3304 0.0
H541 H 0.52562 0.67147 0.30785 0.0
H542 H 0.49594 0.63587 0.25148 0.0
H543 H 0.52947 0.59781 0.21709 0.0
C544 C 0.58367 0.56375 0.20479 0.0
C545 C 0.6013 0.58893 0.23291 0.0
C546 C 0.58116 0.61114 0.25258 0.0
C547 C 0.59821 0.63138 0.28572 0.0
C548 C 0.5775 0.65307 0.30523 0.0
C549 C 0.54104 0.65471 0.29263 0.0
C550 C 0.52433 0.63468 0.26085 0.0
C551 C 0.54397 0.61299 0.24117 0.0
H552 H 0.82414 0.11647 0.7771 0.0
C553 C 0.8428 0.11666 0.80751 0.0
H554 H 0.8952 0.10539 0.83525 0.0
H555 H 0.92645 0.00971 0.69086 0.0
H556 H 0.915 0.97483 0.74905 0.0
H557 H 0.88983 0.99367 0.81436 0.0
H558 H 0.87617 0.04767 0.82202 0.0
C559 C 0.87538 0.1053 0.80609 0.0
C560 C 0.88623 0.09345 0.76402 0.0
C561 C 0.89346 0.06179 0.75961 0.0
C562 C 0.90763 0.05085 0.72167 0.0
C563 C 0.9155 0.01925 0.71878 0.0
C564 C 0.90903 0.99895 0.75196 0.0
C565 C 0.89486 0.00957 0.78874 0.0
C566 C 0.88719 0.0406 0.79275 0.0
H567 H 0.97819 0.09114 0.6797 0.0
C568 C 0.96944 0.07355 0.65521 0.0
H569 H 0.92805 0.04284 0.63195 0.0
H570 H 0.87555 0.15585 0.7613 0.0
H571 H 0.88261 0.18968 0.70036 0.0
H572 H 0.90268 0.16975 0.63227 0.0
H573 H 0.91653 0.11574 0.6253 0.0
C574 C 0.93678 0.06174 0.65411 0.0
C575 C 0.91456 0.07165 0.68824 0.0
C576 C 0.90448 0.1028 0.69086 0.0
C577 C 0.89123 0.11394 0.72926 0.0
C578 C 0.88421 0.14572 0.73228 0.0
C579 C 0.88839 0.16552 0.69758 0.0
C580 C 0.89981 0.15433 0.65932 0.0
C581 C 0.90788 0.12337 0.65586 0.0
H582 H 0.37396 0.44176 0.33392 0.0
C583 C 0.34804 0.43085 0.32857 0.0
H584 H 0.30424 0.42001 0.28041 0.0
H585 H 0.41666 0.51902 0.20062 0.0
H586 H 0.39734 0.55587 0.25185 0.0
H587 H 0.35363 0.54147 0.30071 0.0
H588 H 0.32962 0.48971 0.29932 0.0
C589 C 0.33031 0.43037 0.28718 0.0
C590 C 0.34768 0.44176 0.24931 0.0
C591 C 0.35985 0.47251 0.24857 0.0
C592 C 0.38401 0.48113 0.21913 0.0
C593 C 0.39769 0.51137 0.22145 0.0
C594 C 0.38679 0.53279 0.25072 0.0
C595 C 0.36225 0.52465 0.27834 0.0
C596 C 0.34887 0.49488 0.27744 0.0
H597 H 0.40708 0.49615 0.11993 0.0
C598 C 0.43002 0.48316 0.13452 0.0
H599 H 0.45024 0.45061 0.18264 0.0
H600 H 0.3237 0.38273 0.2359 0.0
H601 H 0.3388 0.34725 0.18008 0.0
H602 H 0.37902 0.3628 0.12733 0.0
H603 H 0.40455 0.41404 0.1303 0.0
C604 C 0.42755 0.46422 0.16885 0.0
C605 C 0.39484 0.4592 0.18937 0.0
C606 C 0.37907 0.42969 0.1863 0.0
C607 C 0.35551 0.42089 0.21634 0.0
C608 C 0.34148 0.39075 0.21369 0.0
C609 C 0.34993 0.37014 0.18179 0.0
C610 C 0.37262 0.37888 0.15212 0.0
C611 C 0.38718 0.40825 0.15427 0.0
H612 H 0.11832 0.93149 0.88551 0.0
C613 C 0.12753 0.90792 0.88932 0.0
H614 H 0.13315 0.86627 0.85501 0.0
H615 H 0.02676 0.96146 0.72294 0.0
H616 H 0.98447 0.95334 0.7741 0.0
H617 H 0.99945 0.92102 0.84031 0.0
H618 H 0.05726 0.89707 0.85609 0.0
C619 C 0.12459 0.88998 0.85291 0.0
C620 C 0.11226 0.90309 0.80815 0.0
C621 C 0.07778 0.91562 0.79809 0.0
C622 C 0.0687 0.93333 0.75898 0.0
C623 C 0.03488 0.94721 0.75144 0.0
C624 C 0.0103 0.94276 0.78062 0.0
C625 C 0.01877 0.92462 0.81796 0.0
C626 C 0.05208 0.91117 0.82677 0.0
H627 H 0.04936 0.94187 0.6501 0.0
C628 C 0.06584 0.96199 0.65819 0.0
H629 H 0.106 0.98257 0.70358 0.0
H630 H 0.17854 0.87807 0.81366 0.0
H631 H 0.21917 0.88281 0.75951 0.0
H632 H 0.20265 0.91208 0.69064 0.0
H633 H 0.14527 0.93692 0.67557 0.0
C634 C 0.08912 0.96265 0.69581 0.0
C635 C 0.09379 0.93759 0.72923 0.0
C636 C 0.1268 0.92231 0.73703 0.0
C637 C 0.13611 0.9051 0.77651 0.0
C638 C 0.1699 0.89117 0.78407 0.0
C639 C 0.19351 0.89372 0.75326 0.0
C640 C 0.18424 0.91024 0.71451 0.0
C641 C 0.15134 0.92447 0.70635 0.0
loop_
_geom_bond_atom_site_label_1
_geom_bond_atom_site_label_2
_geom_bond_distance
_geom_bond_site_symmetry_2
_ccdc_geom_bond_type
C0 C1 1.391 . S
C0 C4 1.391 . S
C0 H42 0.948 . S
C1 C0 1.391 . S
C1 C2 1.391 . S
C2 C1 1.391 . S
C2 H58 0.947 . S
C2 C59 1.392 1_556 S
C3 C4 1.391 1_554 S
C3 C7 1.397 . S
C3 C59 1.419 . S
C4 C0 1.391 . S
C4 C3 1.391 1_556 S
C4 C5 1.399 . S
C5 C4 1.399 . S
C5 C8 1.396 1_556 S
C5 C17 1.453 . S
C5 C18 1.684 . S
H6 C30 0.948 . S
C7 C3 1.397 . S
C7 C8 1.394 . S
C7 C26 1.723 . S
C8 C5 1.396 1_554 S
C8 C7 1.394 . S
C8 C38 1.723 . S
H9 C32 0.947 . S
H10 C33 0.948 . S
H11 C39 0.982 . S
H12 C40 0.979 . S
H13 C40 0.980 . S
H14 C40 0.983 . S
H15 C39 0.979 . S
H16 C39 0.977 . S
C17 C5 1.453 . S
C17 H46 0.982 . S
C17 H47 0.979 . S
C17 H48 0.977 . S
C18 C5 1.684 . S
C18 H43 0.979 . S
C18 H44 0.980 . S
C18 H45 0.983 . S
C19 C20 1.391 . S
C19 C24 1.391 . S
C19 H49 0.948 . S
C20 C19 1.391 . S
C20 C21 1.391 . S
C21 C20 1.391 . S
C21 C22 1.392 . S
C21 H50 0.947 . S
C22 C21 1.392 . S
C22 C23 1.419 . S
C22 H51 0.948 . S
C23 C22 1.419 . S
C23 C24 1.391 . S
C23 C27 1.397 . S
C24 C19 1.391 . S
C24 C23 1.391 . S
C24 C25 1.399 . S
C25 C24 1.399 . S
C25 C26 1.396 . S
C25 C28 1.453 . S
C25 C29 1.684 . S
C26 C7 1.723 . S
C26 C25 1.396 . S
C26 C27 1.394 . S
C27 C23 1.397 . S
C27 C26 1.394 . S
C27 C37 1.723 . S
C28 C25 1.453 . S
C28 H52 0.982 . S
C28 H53 0.979 . S
C28 H54 0.977 . S
C29 C25 1.684 . S
C29 H55 0.979 . S
C29 H56 0.980 . S
C29 H57 0.983 . S
C30 H6 0.948 . S
C30 C31 1.391 . S
C30 C35 1.391 . S
C31 C30 1.391 . S
C31 C32 1.391 . S
C32 H9 0.947 . S
C32 C31 1.391 . S
C32 C33 1.392 . S
C33 H10 0.948 . S
C33 C32 1.392 . S
C33 C34 1.419 . S
C34 C33 1.419 . S
C34 C35 1.391 . S
C34 C38 1.397 . S
C35 C30 1.391 . S
C35 C34 1.391 . S
C35 C36 1.399 . S
C36 C35 1.399 . S
C36 C37 1.396 . S
C36 C39 1.453 . S
C36 C40 1.684 . S
C37 C27 1.723 . S
C37 C36 1.396 . S
C37 C38 1.394 . S
C38 C8 1.723 . S
C38 C34 1.397 . S
C38 C37 1.394 . S
C39 H11 0.982 . S
C39 H15 0.979 . S
C39 H16 0.977 . S
C39 C36 1.453 . S
C40 H12 0.979 . S
C40 H13 0.980 . S
C40 H14 0.983 . S
C40 C36 1.684 . S
H41 C59 0.948 . S
H42 C0 0.948 . S
H43 C18 0.979 . S
H44 C18 0.980 . S
H45 C18 0.983 . S
H46 C17 0.982 . S
H47 C17 0.979 . S
H48 C17 0.977 . S
H49 C19 0.948 . S
H50 C21 0.947 . S
H51 C22 0.948 . S
H52 C28 0.982 . S
H53 C28 0.979 . S
H54 C28 0.977 . S
H55 C29 0.979 . S
H56 C29 0.980 . S
H57 C29 0.983 . S
H58 C2 0.947 . S
C59 C2 1.392 1_554 S
C59 C3 1.419 . S
C59 H41 0.948 . S
C60 C61 1.391 . S
C60 C64 1.391 . S
C60 H102 0.948 . S
C61 C60 1.391 . S
C61 C62 1.391 . S
C62 C61 1.391 . S
C62 H118 0.947 . S
C62 C119 1.392 . S
C63 C64 1.391 . S
C63 C67 1.397 . S
C63 C119 1.419 . S
C64 C60 1.391 . S
C64 C63 1.391 . S
C64 C65 1.399 . S
C65 C64 1.399 . S
C65 C68 1.396 . S
C65 C77 1.453 . S
C65 C78 1.684 . S
H66 C90 0.948 . S
C67 C63 1.397 . S
C67 C68 1.394 . S
C67 C86 1.723 . S
C68 C65 1.396 . S
C68 C67 1.394 . S
C68 C98 1.723 . S
H69 C92 0.947 . S
H70 C93 0.948 . S
H71 C99 0.982 . S
H72 C100 0.979 . S
H73 C100 0.980 . S
H74 C100 0.983 . S
H75 C99 0.979 . S
H76 C99 0.977 . S
C77 C65 1.453 . S
C77 H106 0.982 . S
C77 H107 0.979 . S
C77 H108 0.977 . S
C78 C65 1.684 . S
C78 H103 0.979 . S
C78 H104 0.980 . S
C78 H105 0.983 . S
C79 C80 1.391 . S
C79 C84 1.391 . S
C79 H109 0.948 . S
C80 C79 1.391 . S
C80 C81 1.391 . S
C81 C80 1.391 . S
C81 C82 1.392 . S
C81 H110 0.947 . S
C82 C81 1.392 . S
C82 C83 1.419 . S
C82 H111 0.948 . S
C83 C82 1.419 . S
C83 C84 1.391 . S
C83 C87 1.397 . S
C84 C79 1.391 . S
C84 C83 1.391 . S
C84 C85 1.399 . S
C85 C84 1.399 . S
C85 C86 1.396 . S
C85 C88 1.453 . S
C85 C89 1.684 . S
C86 C67 1.723 . S
C86 C85 1.396 . S
C86 C87 1.394 . S
C87 C83 1.397 . S
C87 C86 1.394 . S
C87 C97 1.723 . S
C88 C85 1.453 . S
C88 H112 0.982 . S
C88 H113 0.979 . S
C88 H114 0.977 . S
C89 C85 1.684 . S
C89 H115 0.979 . S
C89 H116 0.980 . S
C89 H117 0.983 . S
C90 H66 0.948 . S
C90 C91 1.391 . S
C90 C95 1.391 . S
C91 C90 1.391 . S
C91 C92 1.391 . S
C92 H69 0.947 . S
C92 C91 1.391 . S
C92 C93 1.392 . S
C93 H70 0.948 . S
C93 C92 1.392 . S
C93 C94 1.419 . S
C94 C93 1.419 . S
C94 C95 1.391 . S
C94 C98 1.397 . S
C95 C90 1.391 . S
C95 C94 1.391 . S
C95 C96 1.399 . S
C96 C95 1.399 . S
C96 C97 1.396 . S
C96 C99 1.453 . S
C96 C100 1.684 . S
C97 C87 1.723 . S
C97 C96 1.396 . S
C97 C98 1.394 . S
C98 C68 1.723 . S
C98 C94 1.397 . S
C98 C97 1.394 . S
C99 H71 0.982 . S
C99 H75 0.979 . S
C99 H76 0.977 . S
C99 C96 1.453 . S
C100 H72 0.979 . S
C100 H73 0.980 . S
C100 H74 0.983 . S
C100 C96 1.684 . S
H101 C119 0.948 . S
H102 C60 0.948 . S
H103 C78 0.979 . S
H104 C78 0.980 . S
H105 C78 0.983 . S
H106 C77 0.982 . S
H107 C77 0.979 . S
H108 C77 0.977 . S
H109 C79 0.948 . S
H110 C81 0.947 . S
H111 C82 0.948 . S
H112 C88 0.982 . S
H113 C88 0.979 . S
H114 C88 0.977 . S
H115 C89 0.979 . S
H116 C89 0.980 . S
H117 C89 0.983 . S
H118 C62 0.947 . S
C119 C62 1.392 . S
C119 C63 1.419 . S
C119 H101 0.948 . S
C120 C121 1.391 . S
C120 C124 1.391 . S
C120 H162 0.948 . S
C121 C120 1.391 . S
C121 C122 1.391 . S
C122 C121 1.391 . S
C122 H178 0.947 . S
C122 C179 1.392 . S
C123 C124 1.391 . S
C123 C127 1.397 . S
C123 C179 1.419 . S
C124 C120 1.391 . S
C124 C123 1.391 . S
C124 C125 1.399 . S
C125 C124 1.399 . S
C125 C128 1.396 . S
C125 C137 1.453 . S
C125 C138 1.684 . S
H126 C150 0.948 . S
C127 C123 1.397 . S
C127 C128 1.394 . S
C127 C146 1.723 1_554 S
C128 C125 1.396 . S
C128 C127 1.394 . S
C128 C158 1.723 . S
H129 C152 0.947 . S
H130 C153 0.948 . S
H131 C159 0.982 . S
H132 C160 0.979 . S
H133 C160 0.980 . S
H134 C160 0.983 . S
H135 C159 0.979 . S
H136 C159 0.977 . S
C137 C125 1.453 . S
C137 H166 0.982 . S
C137 H167 0.979 . S
C137 H168 0.977 . S
C138 C125 1.684 . S
C138 H163 0.979 . S
C138 H164 0.980 . S
C138 H165 0.983 . S
C139 C140 1.391 . S
C139 C144 1.391 . S
C139 H169 0.948 . S
C140 C139 1.391 . S
C140 C141 1.391 . S
C141 C140 1.391 . S
C141 C142 1.392 . S
C141 H170 0.947 . S
C142 C141 1.392 . S
C142 C143 1.419 . S
C142 H171 0.948 . S
C143 C142 1.419 . S
C143 C144 1.391 . S
C143 C147 1.397 . S
C144 C139 1.391 . S
C144 C143 1.391 . S
C144 C145 1.399 . S
C145 C144 1.399 . S
C145 C146 1.396 . S
C145 C148 1.453 . S
C145 C149 1.684 . S
C146 C127 1.723 1_556 S
C146 C145 1.396 . S
C146 C147 1.394 . S
C147 C143 1.397 . S
C147 C146 1.394 . S
C147 C157 1.723 . S
C148 C145 1.453 . S
C148 H172 0.982 . S
C148 H173 0.979 . S
C148 H174 0.977 1_556 S
C149 C145 1.684 . S
C149 H175 0.979 . S
C149 H176 0.980 1_556 S
C149 H177 0.983 . S
C150 H126 0.948 . S
C150 C151 1.393 . S
C150 C155 1.391 . S
C151 C150 1.393 . S
C151 C152 1.389 1_556 S
C152 H129 0.947 . S
C152 C151 1.389 1_554 S
C152 C153 1.392 . S
C153 H130 0.948 . S
C153 C152 1.392 . S
C153 C154 1.419 . S
C154 C153 1.419 . S
C154 C155 1.391 1_554 S
C154 C158 1.397 . S
C155 C150 1.391 . S
C155 C154 1.391 1_556 S
C155 C156 1.399 . S
C156 C155 1.399 . S
C156 C157 1.396 . S
C156 C159 1.453 . S
C156 C160 1.684 . S
C157 C147 1.723 . S
C157 C156 1.396 . S
C157 C158 1.394 1_556 S
C158 C128 1.723 . S
C158 C154 1.397 . S
C158 C157 1.394 1_554 S
C159 H131 0.982 . S
C159 H135 0.979 . S
C159 H136 0.977 . S
C159 C156 1.453 . S
C160 H132 0.979 . S
C160 H133 0.980 . S
C160 H134 0.983 . S
C160 C156 1.684 . S
H161 C179 0.948 . S
H162 C120 0.948 . S
H163 C138 0.979 . S
H164 C138 0.980 . S
H165 C138 0.983 . S
H166 C137 0.982 . S
H167 C137 0.979 . S
H168 C137 0.977 . S
H169 C139 0.948 . S
H170 C141 0.947 . S
H171 C142 0.948 . S
H172 C148 0.982 . S
H173 C148 0.979 . S
H174 C148 0.977 1_554 S
H175 C149 0.979 . S
H176 C149 0.980 1_554 S
H177 C149 0.983 . S
H178 C122 0.947 . S
C179 C122 1.392 . S
C179 C123 1.419 . S
C179 H161 0.948 . S
C180 C181 1.391 . S
C180 C184 1.391 . S
C180 H222 0.948 . S
C181 C180 1.391 . S
C181 C182 1.391 . S
C182 C181 1.391 . S
C182 H238 0.947 . S
C182 C239 1.392 . S
C183 C184 1.391 . S
C183 C187 1.397 . S
C183 C239 1.419 . S
C184 C180 1.391 . S
C184 C183 1.391 . S
C184 C185 1.399 . S
C185 C184 1.399 . S
C185 C188 1.396 . S
C185 C197 1.453 . S
C185 C198 1.684 . S
H186 C210 0.948 . S
C187 C183 1.397 . S
C187 C188 1.394 . S
C187 C206 1.723 . S
C188 C185 1.396 . S
C188 C187 1.394 . S
C188 C218 1.723 . S
H189 C212 0.947 . S
H190 C213 0.948 . S
H191 C219 0.982 . S
H192 C220 0.979 . S
H193 C220 0.980 . S
H194 C220 0.983 . S
H195 C219 0.979 . S
H196 C219 0.977 . S
C197 C185 1.453 . S
C197 H226 0.982 . S
C197 H227 0.979 . S
C197 H228 0.977 . S
C198 C185 1.684 . S
C198 H223 0.979 . S
C198 H224 0.980 . S
C198 H225 0.983 . S
C199 C200 1.391 . S
C199 C204 1.391 . S
C199 H229 0.948 . S
C200 C199 1.391 . S
C200 C201 1.391 . S
C201 C200 1.391 . S
C201 C202 1.392 . S
C201 H230 0.947 . S
C202 C201 1.392 . S
C202 C203 1.419 . S
C202 H231 0.948 . S
C203 C202 1.419 . S
C203 C204 1.391 . S
C203 C207 1.397 . S
C204 C199 1.391 . S
C204 C203 1.391 . S
C204 C205 1.399 . S
C205 C204 1.399 . S
C205 C206 1.396 . S
C205 C208 1.453 . S
C205 C209 1.684 . S
C206 C187 1.723 . S
C206 C205 1.396 . S
C206 C207 1.394 . S
C207 C203 1.397 . S
C207 C206 1.394 . S
C207 C217 1.723 . S
C208 C205 1.453 . S
C208 H232 0.982 . S
C208 H233 0.979 . S
C208 H234 0.977 . S
C209 C205 1.684 . S
C209 H235 0.979 . S
C209 H236 0.980 . S
C209 H237 0.983 . S
C210 H186 0.948 . S
C210 C211 1.391 . S
C210 C215 1.391 . S
C211 C210 1.391 . S
C211 C212 1.391 . S
C212 H189 0.947 . S
C212 C211 1.391 . S
C212 C213 1.392 . S
C213 H190 0.948 . S
C213 C212 1.392 . S
C213 C214 1.419 . S
C214 C213 1.419 . S
C214 C215 1.391 . S
C214 C218 1.397 . S
C215 C210 1.391 . S
C215 C214 1.391 . S
C215 C216 1.399 . S
C216 C215 1.399 . S
C216 C217 1.396 . S
C216 C219 1.453 . S
C216 C220 1.684 . S
C217 C207 1.723 . S
C217 C216 1.396 . S
C217 C218 1.394 . S
C218 C188 1.723 . S
C218 C214 1.397 . S
C218 C217 1.394 . S
C219 H191 0.982 . S
C219 H195 0.979 . S
C219 H196 0.977 . S
C219 C216 1.453 . S
C220 H192 0.979 . S
C220 H193 0.980 . S
C220 H194 0.983 . S
C220 C216 1.684 . S
H221 C239 0.948 . S
H222 C180 0.948 . S
H223 C198 0.979 . S
H224 C198 0.980 . S
H225 C198 0.983 . S
H226 C197 0.982 . S
H227 C197 0.979 . S
H228 C197 0.977 . S
H229 C199 0.948 . S
H230 C201 0.947 . S
H231 C202 0.948 . S
H232 C208 0.982 . S
H233 C208 0.979 . S
H234 C208 0.977 . S
H235 C209 0.979 . S
H236 C209 0.980 . S
H237 C209 0.983 . S
H238 C182 0.947 . S
C239 C182 1.392 . S
C239 C183 1.419 . S
C239 H221 0.948 . S
O240 Mn241 2.163 1_655 S
O240 C254 1.244 . S
Mn241 O240 2.163 1_455 S
Mn241 O244 2.160 1_545 S
Mn241 O245 2.221 . S
Mn241 O247 2.163 1_455 S
Mn241 O249 2.160 1_545 S
Mn241 O259 2.221 1_445 S
O242 Mn243 2.087 1_545 S
O242 C254 1.256 . S
Mn243 O242 2.087 1_565 S
Mn243 O250 2.089 1_655 S
Mn243 O259 2.290 . S
Mn243 O260 2.251 . S
O244 Mn241 2.160 1_565 S
O244 C255 1.239 . S
O245 Mn241 2.221 . S
O245 Mn246 2.290 . S
O245 C256 1.278 . S
Mn246 O245 2.290 . S
Mn246 O248 2.089 . S
Mn246 O251 2.251 . S
Mn246 O252 2.087 1_455 S
O247 Mn241 2.163 1_655 S
O247 C257 1.244 . S
O248 Mn246 2.089 . S
O248 C255 1.256 1_545 S
O249 Mn241 2.160 1_565 S
O249 C258 1.239 . S
O250 Mn243 2.089 1_455 S
O250 C258 1.256 . S
O251 Mn246 2.251 . S
O251 C256 1.241 . S
O252 Mn246 2.087 1_655 S
O252 C257 1.256 . S
C253 O259 1.278 . S
C253 O260 1.241 . S
C254 O240 1.244 . S
C254 O242 1.256 . S
C255 O244 1.239 . S
C255 O248 1.256 1_565 S
C256 O245 1.278 . S
C256 O251 1.241 . S
C257 O247 1.244 . S
C257 O252 1.256 . S
C258 O249 1.239 . S
C258 O250 1.256 . S
O259 Mn241 2.221 1_665 S
O259 Mn243 2.290 . S
O259 C253 1.278 . S
O260 Mn243 2.251 . S
O260 C253 1.241 . S
O261 Mn262 2.163 . S
O261 C275 1.244 . S
Mn262 O261 2.163 . S
Mn262 O265 2.160 1_554 S
Mn262 O266 2.221 . S
Mn262 O268 2.163 1_554 S
Mn262 O270 2.160 . S
Mn262 O280 2.221 . S
O263 Mn264 2.087 . S
O263 C275 1.256 . S
Mn264 O263 2.087 . S
Mn264 O271 2.089 . S
Mn264 O280 2.290 . S
Mn264 O281 2.251 . S
O265 Mn262 2.160 1_556 S
O265 C276 1.239 . S
O266 Mn262 2.221 . S
O266 Mn267 2.290 1_554 S
O266 C277 1.278 . S
Mn267 O266 2.290 1_556 S
Mn267 O269 2.089 . S
Mn267 O272 2.251 1_556 S
Mn267 O273 2.087 . S
O268 Mn262 2.163 1_556 S
O268 C278 1.244 . S
O269 Mn267 2.089 . S
O269 C276 1.256 . S
O270 Mn262 2.160 . S
O270 C279 1.239 . S
O271 Mn264 2.089 . S
O271 C279 1.256 . S
O272 Mn267 2.251 1_554 S
O272 C277 1.241 . S
O273 Mn267 2.087 . S
O273 C278 1.256 . S
C274 O280 1.278 . S
C274 O281 1.241 . S
C275 O261 1.244 . S
C275 O263 1.256 . S
C276 O265 1.239 . S
C276 O269 1.256 . S
C277 O266 1.278 . S
C277 O272 1.241 . S
C278 O268 1.244 . S
C278 O273 1.256 . S
C279 O270 1.239 . S
C279 O271 1.256 . S
O280 Mn262 2.221 . S
O280 Mn264 2.290 . S
O280 C274 1.278 . S
O281 Mn264 2.251 . S
O281 C274 1.241 . S
H282 C283 0.951 . S
C283 H282 0.951 . S
C283 C289 1.265 . S
H284 C289 0.950 . S
H285 C293 0.949 . S
H286 C294 0.950 . S
H287 C295 0.951 . S
H288 C296 0.951 . S
C289 C283 1.265 . S
C289 H284 0.950 . S
C289 C290 1.478 . S
C290 C289 1.478 . S
C290 C291 1.397 . S
C290 C307 1.394 . S
C291 C290 1.397 . S
C291 C292 1.438 . S
C291 C296 1.429 . S
C292 C291 1.438 . S
C292 C293 1.428 . S
C292 C305 1.394 . S
C293 H285 0.949 . S
C293 C292 1.428 . S
C293 C294 1.345 . S
C294 H286 0.950 . S
C294 C293 1.345 . S
C294 C295 1.424 . S
C295 H287 0.951 . S
C295 C294 1.424 . S
C295 C296 1.347 . S
C296 H288 0.951 . S
C296 C291 1.429 . S
C296 C295 1.347 . S
H297 C298 0.951 . S
C298 H297 0.951 . S
C298 C304 1.265 . S
H299 C304 0.950 . S
H300 C308 0.949 . S
H301 C309 0.950 . S
H302 C310 0.951 . S
H303 C311 0.951 . S
C304 C298 1.265 . S
C304 H299 0.950 . S
C304 C305 1.478 . S
C305 C292 1.394 . S
C305 C304 1.478 . S
C305 C306 1.397 . S
C306 C305 1.397 . S
C306 C307 1.438 . S
C306 C311 1.429 . S
C307 C290 1.394 . S
C307 C306 1.438 . S
C307 C308 1.428 . S
C308 H300 0.949 . S
C308 C307 1.428 . S
C308 C309 1.345 . S
C309 H301 0.950 . S
C309 C308 1.345 . S
C309 C310 1.424 . S
C310 H302 0.951 . S
C310 C309 1.424 . S
C310 C311 1.347 . S
C311 H303 0.951 . S
C311 C306 1.429 . S
C311 C310 1.347 . S
H312 C313 0.951 . S
C313 H312 0.951 . S
C313 C319 1.265 . S
H314 C319 0.950 . S
H315 C323 0.949 . S
H316 C324 0.950 . S
H317 C325 0.951 . S
H318 C326 0.951 . S
C319 C313 1.265 . S
C319 H314 0.950 . S
C319 C320 1.478 . S
C320 C319 1.478 . S
C320 C321 1.397 . S
C320 C337 1.394 . S
C321 C320 1.397 . S
C321 C322 1.438 . S
C321 C326 1.429 1_554 S
C322 C321 1.438 . S
C322 C323 1.428 1_554 S
C322 C335 1.394 . S
C323 H315 0.949 . S
C323 C322 1.428 1_556 S
C323 C324 1.345 . S
C324 H316 0.950 . S
C324 C323 1.345 . S
C324 C325 1.424 . S
C325 H317 0.951 . S
C325 C324 1.424 . S
C325 C326 1.347 . S
C326 H318 0.951 . S
C326 C321 1.429 1_556 S
C326 C325 1.347 . S
H327 C328 0.951 . S
C328 H327 0.951 . S
C328 C334 1.265 . S
H329 C334 0.950 . S
H330 C338 0.949 . S
H331 C339 0.950 . S
H332 C340 0.951 . S
H333 C341 0.951 . S
C334 C328 1.265 . S
C334 H329 0.950 . S
C334 C335 1.478 . S
C335 C322 1.394 . S
C335 C334 1.478 . S
C335 C336 1.397 . S
C336 C335 1.397 . S
C336 C337 1.438 . S
C336 C341 1.429 . S
C337 C320 1.394 . S
C337 C336 1.438 . S
C337 C338 1.428 . S
C338 H330 0.949 . S
C338 C337 1.428 . S
C338 C339 1.345 . S
C339 H331 0.950 . S
C339 C338 1.345 . S
C339 C340 1.424 . S
C340 H332 0.951 . S
C340 C339 1.424 . S
C340 C341 1.347 . S
C341 H333 0.951 . S
C341 C336 1.429 . S
C341 C340 1.347 . S
H342 C343 0.951 . S
C343 H342 0.951 . S
C343 C349 1.265 . S
H344 C349 0.950 . S
H345 C353 0.949 . S
H346 C354 0.950 . S
H347 C355 0.951 . S
H348 C356 0.951 . S
C349 C343 1.265 . S
C349 H344 0.950 . S
C349 C350 1.478 . S
C350 C349 1.478 . S
C350 C351 1.397 . S
C350 C367 1.394 . S
C351 C350 1.397 . S
C351 C352 1.438 . S
C351 C356 1.429 . S
C352 C351 1.438 . S
C352 C353 1.428 . S
C352 C365 1.394 . S
C353 H345 0.949 . S
C353 C352 1.428 . S
C353 C354 1.345 . S
C354 H346 0.950 . S
C354 C353 1.345 . S
C354 C355 1.424 . S
C355 H347 0.951 . S
C355 C354 1.424 . S
C355 C356 1.347 . S
C356 H348 0.951 . S
C356 C351 1.429 . S
C356 C355 1.347 . S
H357 C358 0.951 . S
C358 H357 0.951 . S
C358 C364 1.265 . S
H359 C364 0.950 . S
H360 C368 0.949 . S
H361 C369 0.950 . S
H362 C370 0.951 . S
H363 C371 0.951 . S
C364 C358 1.265 . S
C364 H359 0.950 . S
C364 C365 1.478 . S
C365 C352 1.394 . S
C365 C364 1.478 . S
C365 C366 1.397 . S
C366 C365 1.397 . S
C366 C367 1.438 . S
C366 C371 1.429 . S
C367 C350 1.394 . S
C367 C366 1.438 . S
C367 C368 1.428 . S
C368 H360 0.949 . S
C368 C367 1.428 . S
C368 C369 1.345 . S
C369 H361 0.950 . S
C369 C368 1.345 . S
C369 C370 1.424 . S
C370 H362 0.951 . S
C370 C369 1.424 . S
C370 C371 1.347 . S
C371 H363 0.951 . S
C371 C366 1.429 . S
C371 C370 1.347 . S
H372 C373 0.951 . S
C373 H372 0.951 . S
C373 C379 1.265 . S
H374 C379 0.950 . S
H375 C383 0.949 . S
H376 C384 0.950 . S
H377 C385 0.951 . S
H378 C386 0.951 . S
C379 C373 1.265 . S
C379 H374 0.950 . S
C379 C380 1.478 1_556 S
C380 C379 1.478 1_554 S
C380 C381 1.397 1_554 S
C380 C397 1.394 . S
C381 C380 1.397 1_556 S
C381 C382 1.438 . S
C381 C386 1.429 . S
C382 C381 1.438 . S
C382 C383 1.428 . S
C382 C395 1.394 1_556 S
C383 H375 0.949 . S
C383 C382 1.428 . S
C383 C384 1.345 . S
C384 H376 0.950 . S
C384 C383 1.345 . S
C384 C385 1.424 . S
C385 H377 0.951 . S
C385 C384 1.424 . S
C385 C386 1.347 . S
C386 H378 0.951 . S
C386 C381 1.429 . S
C386 C385 1.347 . S
H387 C388 0.951 . S
C388 H387 0.951 . S
C388 C394 1.265 . S
H389 C394 0.950 . S
H390 C398 0.949 . S
H391 C399 0.950 . S
H392 C400 0.951 . S
H393 C401 0.951 . S
C394 C388 1.265 . S
C394 H389 0.950 . S
C394 C395 1.478 . S
C395 C382 1.394 1_554 S
C395 C394 1.478 . S
C395 C396 1.397 . S
C396 C395 1.397 . S
C396 C397 1.438 . S
C396 C401 1.429 . S
C397 C380 1.394 . S
C397 C396 1.438 . S
C397 C398 1.428 . S
C398 H390 0.949 . S
C398 C397 1.428 . S
C398 C399 1.345 . S
C399 H391 0.950 . S
C399 C398 1.345 . S
C399 C400 1.424 . S
C400 H392 0.951 . S
C400 C399 1.424 . S
C400 C401 1.347 . S
C401 H393 0.951 . S
C401 C396 1.429 . S
C401 C400 1.347 . S
H402 C403 0.951 . S
C403 H402 0.951 . S
C403 C409 1.265 . S
H404 C409 0.950 . S
H405 C413 0.949 . S
H406 C414 0.950 . S
H407 C415 0.951 . S
H408 C416 0.951 . S
C409 C403 1.265 . S
C409 H404 0.950 . S
C409 C410 1.478 . S
C410 C409 1.478 . S
C410 C411 1.397 . S
C410 C427 1.394 . S
C411 C410 1.397 . S
C411 C412 1.438 . S
C411 C416 1.429 . S
C412 C411 1.438 . S
C412 C413 1.428 . S
C412 C425 1.394 . S
C413 H405 0.949 . S
C413 C412 1.428 . S
C413 C414 1.345 . S
C414 H406 0.950 . S
C414 C413 1.345 . S
C414 C415 1.424 . S
C415 H407 0.951 . S
C415 C414 1.424 . S
C415 C416 1.347 . S
C416 H408 0.951 . S
C416 C411 1.429 . S
C416 C415 1.347 . S
H417 C418 0.951 . S
C418 H417 0.951 . S
C418 C424 1.265 . S
H419 C424 0.950 . S
H420 C428 0.949 . S
H421 C429 0.950 . S
H422 C430 0.951 . S
H423 C431 0.951 . S
C424 C418 1.265 . S
C424 H419 0.950 . S
C424 C425 1.478 . S
C425 C412 1.394 . S
C425 C424 1.478 . S
C425 C426 1.397 . S
C426 C425 1.397 . S
C426 C427 1.438 . S
C426 C431 1.429 1_565 S
C427 C410 1.394 . S
C427 C426 1.438 . S
C427 C428 1.428 1_565 S
C428 H420 0.949 . S
C428 C427 1.428 1_545 S
C428 C429 1.345 . S
C429 H421 0.950 . S
C429 C428 1.345 . S
C429 C430 1.424 . S
C430 H422 0.951 . S
C430 C429 1.424 . S
C430 C431 1.347 . S
C431 H423 0.951 . S
C431 C426 1.429 1_545 S
C431 C430 1.347 . S
H432 C433 0.951 . S
C433 H432 0.951 . S
C433 C439 1.265 . S
H434 C439 0.950 . S
H435 C443 0.949 . S
H436 C444 0.950 . S
H437 C445 0.951 . S
H438 C446 0.951 . S
C439 C433 1.265 . S
C439 H434 0.950 . S
C439 C440 1.478 . S
C440 C439 1.478 . S
C440 C441 1.397 . S
C440 C457 1.394 . S
C441 C440 1.397 . S
C441 C442 1.438 . S
C441 C446 1.429 . S
C442 C441 1.438 . S
C442 C443 1.428 . S
C442 C455 1.394 . S
C443 H435 0.949 . S
C443 C442 1.428 . S
C443 C444 1.345 . S
C444 H436 0.950 . S
C444 C443 1.345 . S
C444 C445 1.424 . S
C445 H437 0.951 . S
C445 C444 1.424 . S
C445 C446 1.347 . S
C446 H438 0.951 . S
C446 C441 1.429 . S
C446 C445 1.347 . S
H447 C448 0.951 . S
C448 H447 0.951 . S
C448 C454 1.265 . S
H449 C454 0.950 . S
H450 C458 0.949 . S
H451 C459 0.950 . S
H452 C460 0.951 . S
H453 C461 0.951 . S
C454 C448 1.265 . S
C454 H449 0.950 . S
C454 C455 1.478 . S
C455 C442 1.394 . S
C455 C454 1.478 . S
C455 C456 1.397 . S
C456 C455 1.397 . S
C456 C457 1.438 . S
C456 C461 1.429 . S
C457 C440 1.394 . S
C457 C456 1.438 . S
C457 C458 1.428 . S
C458 H450 0.949 . S
C458 C457 1.428 . S
C458 C459 1.345 . S
C459 H451 0.950 . S
C459 C458 1.345 . S
C459 C460 1.424 . S
C460 H452 0.951 . S
C460 C459 1.424 . S
C460 C461 1.347 . S
C461 H453 0.951 . S
C461 C456 1.429 . S
C461 C460 1.347 . S
H462 C463 0.951 . S
C463 H462 0.951 . S
C463 C469 1.265 . S
H464 C469 0.950 . S
H465 C473 0.949 . S
H466 C474 0.950 . S
H467 C475 0.951 . S
H468 C476 0.951 . S
C469 C463 1.265 . S
C469 H464 0.950 . S
C469 C470 1.478 . S
C470 C469 1.478 . S
C470 C471 1.397 . S
C470 C487 1.394 . S
C471 C470 1.397 . S
C471 C472 1.438 . S
C471 C476 1.429 . S
C472 C471 1.438 . S
C472 C473 1.428 . S
C472 C485 1.394 . S
C473 H465 0.949 . S
C473 C472 1.428 . S
C473 C474 1.345 . S
C474 H466 0.950 . S
C474 C473 1.345 . S
C474 C475 1.424 . S
C475 H467 0.951 . S
C475 C474 1.424 . S
C475 C476 1.347 . S
C476 H468 0.951 . S
C476 C471 1.429 . S
C476 C475 1.347 . S
H477 C478 0.951 . S
C478 H477 0.951 . S
C478 C484 1.265 . S
H479 C484 0.950 . S
H480 C488 0.949 . S
H481 C489 0.950 . S
H482 C490 0.951 . S
H483 C491 0.951 . S
C484 C478 1.265 . S
C484 H479 0.950 . S
C484 C485 1.478 . S
C485 C472 1.394 . S
C485 C484 1.478 . S
C485 C486 1.397 . S
C486 C485 1.397 . S
C486 C487 1.438 . S
C486 C491 1.429 . S
C487 C470 1.394 . S
C487 C486 1.438 . S
C487 C488 1.428 . S
C488 H480 0.949 . S
C488 C487 1.428 . S
C488 C489 1.345 1_545 S
C489 H481 0.950 . S
C489 C488 1.345 1_565 S
C489 C490 1.424 . S
C490 H482 0.951 . S
C490 C489 1.424 . S
C490 C491 1.347 1_565 S
C491 H483 0.951 . S
C491 C486 1.429 . S
C491 C490 1.347 1_545 S
H492 C493 0.951 . S
C493 H492 0.951 . S
C493 C499 1.265 . S
H494 C499 0.950 . S
H495 C503 0.949 . S
H496 C504 0.950 . S
H497 C505 0.951 . S
H498 C506 0.951 . S
C499 C493 1.265 . S
C499 H494 0.950 . S
C499 C500 1.478 . S
C500 C499 1.478 . S
C500 C501 1.397 . S
C500 C517 1.394 . S
C501 C500 1.397 . S
C501 C502 1.438 . S
C501 C506 1.429 . S
C502 C501 1.438 . S
C502 C503 1.428 . S
C502 C515 1.394 . S
C503 H495 0.949 . S
C503 C502 1.428 . S
C503 C504 1.345 . S
C504 H496 0.950 . S
C504 C503 1.345 . S
C504 C505 1.424 . S
C505 H497 0.951 . S
C505 C504 1.424 . S
C505 C506 1.347 . S
C506 H498 0.951 . S
C506 C501 1.429 . S
C506 C505 1.347 . S
H507 C508 0.951 . S
C508 H507 0.951 . S
C508 C514 1.265 . S
H509 C514 0.950 . S
H510 C518 0.949 . S
H511 C519 0.950 . S
H512 C520 0.951 . S
H513 C521 0.951 . S
C514 C508 1.265 . S
C514 H509 0.950 . S
C514 C515 1.478 . S
C515 C502 1.394 . S
C515 C514 1.478 . S
C515 C516 1.397 . S
C516 C515 1.397 . S
C516 C517 1.438 . S
C516 C521 1.429 . S
C517 C500 1.394 . S
C517 C516 1.438 . S
C517 C518 1.428 . S
C518 H510 0.949 . S
C518 C517 1.428 . S
C518 C519 1.345 . S
C519 H511 0.950 . S
C519 C518 1.345 . S
C519 C520 1.424 . S
C520 H512 0.951 . S
C520 C519 1.424 . S
C520 C521 1.347 . S
C521 H513 0.951 . S
C521 C516 1.429 . S
C521 C520 1.347 . S
H522 C523 0.951 . S
C523 H522 0.951 . S
C523 C529 1.265 . S
H524 C529 0.950 . S
H525 C533 0.949 . S
H526 C534 0.950 . S
H527 C535 0.951 . S
H528 C536 0.951 . S
C529 C523 1.265 . S
C529 H524 0.950 . S
C529 C530 1.478 . S
C530 C529 1.478 . S
C530 C531 1.397 . S
C530 C547 1.394 . S
C531 C530 1.397 . S
C531 C532 1.438 . S
C531 C536 1.429 . S
C532 C531 1.438 . S
C532 C533 1.428 . S
C532 C545 1.394 . S
C533 H525 0.949 . S
C533 C532 1.428 . S
C533 C534 1.345 . S
C534 H526 0.950 . S
C534 C533 1.345 . S
C534 C535 1.424 . S
C535 H527 0.951 . S
C535 C534 1.424 . S
C535 C536 1.347 . S
C536 H528 0.951 . S
C536 C531 1.429 . S
C536 C535 1.347 . S
H537 C538 0.951 . S
C538 H537 0.951 . S
C538 C544 1.265 . S
H539 C544 0.950 . S
H540 C548 0.949 . S
H541 C549 0.950 . S
H542 C550 0.951 . S
H543 C551 0.951 . S
C544 C538 1.265 . S
C544 H539 0.950 . S
C544 C545 1.478 . S
C545 C532 1.394 . S
C545 C544 1.478 . S
C545 C546 1.397 . S
C546 C545 1.397 . S
C546 C547 1.438 . S
C546 C551 1.429 . S
C547 C530 1.394 . S
C547 C546 1.438 . S
C547 C548 1.428 . S
C548 H540 0.949 . S
C548 C547 1.428 . S
C548 C549 1.345 . S
C549 H541 0.950 . S
C549 C548 1.345 . S
C549 C550 1.424 . S
C550 H542 0.951 . S
C550 C549 1.424 . S
C550 C551 1.347 . S
C551 H543 0.951 . S
C551 C546 1.429 . S
C551 C550 1.347 . S
H552 C553 0.951 . S
C553 H552 0.951 . S
C553 C559 1.265 . S
H554 C559 0.950 . S
H555 C563 0.949 . S
H556 C564 0.936 1_565 S
H557 C565 0.966 . S
H558 C566 0.951 . S
C559 C553 1.265 . S
C559 H554 0.950 . S
C559 C560 1.478 . S
C560 C559 1.478 . S
C560 C561 1.397 . S
C560 C577 1.394 . S
C561 C560 1.397 . S
C561 C562 1.438 . S
C561 C566 1.429 . S
C562 C561 1.438 . S
C562 C563 1.428 . S
C562 C575 1.394 . S
C563 H555 0.949 . S
C563 C562 1.428 . S
C563 C564 1.353 . S
C564 H556 0.936 1_545 S
C564 C563 1.353 . S
C564 C565 1.430 . S
C565 H557 0.966 . S
C565 C564 1.430 . S
C565 C566 1.347 . S
C566 H558 0.951 . S
C566 C561 1.429 . S
C566 C565 1.347 . S
H567 C568 0.951 . S
C568 H567 0.951 . S
C568 C574 1.265 . S
H569 C574 0.950 . S
H570 C578 0.949 . S
H571 C579 0.950 . S
H572 C580 0.951 . S
H573 C581 0.951 . S
C574 C568 1.265 . S
C574 H569 0.950 . S
C574 C575 1.478 . S
C575 C562 1.394 . S
C575 C574 1.478 . S
C575 C576 1.397 . S
C576 C575 1.397 . S
C576 C577 1.438 . S
C576 C581 1.429 . S
C577 C560 1.394 . S
C577 C576 1.438 . S
C577 C578 1.428 . S
C578 H570 0.949 . S
C578 C577 1.428 . S
C578 C579 1.345 . S
C579 H571 0.950 . S
C579 C578 1.345 . S
C579 C580 1.424 . S
C580 H572 0.951 . S
C580 C579 1.424 . S
C580 C581 1.347 . S
C581 H573 0.951 . S
C581 C576 1.429 . S
C581 C580 1.347 . S
H582 C583 0.951 . S
C583 H582 0.951 . S
C583 C589 1.265 . S
H584 C589 0.950 . S
H585 C593 0.949 . S
H586 C594 0.950 . S
H587 C595 0.951 . S
H588 C596 0.951 . S
C589 C583 1.265 . S
C589 H584 0.950 . S
C589 C590 1.478 . S
C590 C589 1.478 . S
C590 C591 1.397 . S
C590 C607 1.394 . S
C591 C590 1.397 . S
C591 C592 1.438 . S
C591 C596 1.429 . S
C592 C591 1.438 . S
C592 C593 1.428 . S
C592 C605 1.394 . S
C593 H585 0.949 . S
C593 C592 1.428 . S
C593 C594 1.345 . S
C594 H586 0.950 . S
C594 C593 1.345 . S
C594 C595 1.424 . S
C595 H587 0.951 . S
C595 C594 1.424 . S
C595 C596 1.347 . S
C596 H588 0.951 . S
C596 C591 1.429 . S
C596 C595 1.347 . S
H597 C598 0.951 . S
C598 H597 0.951 . S
C598 C604 1.265 . S
H599 C604 0.950 . S
H600 C608 0.949 . S
H601 C609 0.950 . S
H602 C610 0.951 . S
H603 C611 0.951 . S
C604 C598 1.265 . S
C604 H599 0.950 . S
C604 C605 1.478 . S
C605 C592 1.394 . S
C605 C604 1.478 . S
C605 C606 1.397 . S
C606 C605 1.397 . S
C606 C607 1.438 . S
C606 C611 1.429 . S
C607 C590 1.394 . S
C607 C606 1.438 . S
C607 C608 1.428 . S
C608 H600 0.949 . S
C608 C607 1.428 . S
C608 C609 1.345 . S
C609 H601 0.950 . S
C609 C608 1.345 . S
C609 C610 1.424 . S
C610 H602 0.951 . S
C610 C609 1.424 . S
C610 C611 1.347 . S
C611 H603 0.951 . S
C611 C606 1.429 . S
C611 C610 1.347 . S
H612 C613 0.951 . S
C613 H612 0.951 . S
C613 C619 1.265 . S
H614 C619 0.950 . S
H615 C623 0.949 . S
H616 C624 0.950 . S
H617 C625 0.951 . S
H618 C626 0.951 . S
C619 C613 1.265 . S
C619 H614 0.950 . S
C619 C620 1.478 . S
C620 C619 1.478 . S
C620 C621 1.397 . S
C620 C637 1.394 . S
C621 C620 1.397 . S
C621 C622 1.438 . S
C621 C626 1.429 . S
C622 C621 1.438 . S
C622 C623 1.428 . S
C622 C635 1.394 . S
C623 H615 0.949 . S
C623 C622 1.428 . S
C623 C624 1.345 . S
C624 H616 0.950 . S
C624 C623 1.345 . S
C624 C625 1.424 . S
C625 H617 0.951 . S
C625 C624 1.424 . S
C625 C626 1.347 . S
C626 H618 0.951 . S
C626 C621 1.429 . S
C626 C625 1.347 . S
H627 C628 0.951 . S
C628 H627 0.951 . S
C628 C634 1.265 . S
H629 C634 0.950 1_545 S
H630 C638 0.949 . S
H631 C639 0.950 . S
H632 C640 0.951 . S
H633 C641 0.951 . S
C634 C628 1.265 . S
C634 H629 0.950 1_565 S
C634 C635 1.478 . S
C635 C622 1.394 . S
C635 C634 1.478 . S
C635 C636 1.397 . S
C636 C635 1.397 . S
C636 C637 1.438 . S
C636 C641 1.429 1_565 S
C637 C620 1.394 . S
C637 C636 1.438 . S
C637 C638 1.428 . S
C638 H630 0.949 . S
C638 C637 1.428 . S
C638 C639 1.345 1_565 S
C639 H631 0.950 . S
C639 C638 1.345 1_545 S
C639 C640 1.424 . S
C640 H632 0.951 . S
C640 C639 1.424 . S
C640 C641 1.347 . S
C641 H633 0.951 . S
C641 C636 1.429 1_545 S
C641 C640 1.347 . S
C298 C256 1.350 . S
C283 C211 1.542 . S
C313 C31 1.497 . S
C328 C277 1.320 . S
C343 C91 1.597 . S
C358 C253 1.469 . S
C373 C151 1.659 . S
C388 C274 1.481 . S
C418 C258 1.600 . S
C403 C20 1.628 . S
C448 C278 1.567 . S
C433 C61 1.570 . S
C463 C121 1.586 . S
C478 C254 1.523 . S
C493 C200 1.610 . S
C508 C276 1.546 . S
C538 C275 1.485 . S
C523 C80 1.508 . S
C568 C257 1.540 . S
C553 C140 1.613 . S
C598 C279 1.659 . S
C583 C181 1.572 . S
C613 C1 1.564 . S
C628 C255 1.601 . S
