# Generated by pormake.
# Topology zzz, (3,6)-cn, num edge types: 1
# Building blocks:
#     Node 0, Type 0, BuildingBlock: MIDCAF_clean_linker_0, # of connection points: 3
#     Node 1, Type 0, BuildingBlock: MIDCAF_clean_linker_0, # of connection points: 3
#     Node 2, Type 0, BuildingBlock: MIDCAF_clean_linker_0, # of connection points: 3
#     Node 3, Type 0, BuildingBlock: MIDCAF_clean_linker_0, # of connection points: 3
#     Node 4, Type 0, BuildingBlock: MIDCAF_clean_linker_0, # of connection points: 3
#     Node 5, Type 0, BuildingBlock: MIDCAF_clean_linker_0, # of connection points: 3
#     Node 6, Type 0, BuildingBlock: MIDCAF_clean_linker_0, # of connection points: 3
#     Node 7, Type 0, BuildingBlock: MIDCAF_clean_linker_0, # of connection points: 3
#     Node 8, Type 1, BuildingBlock: BETFAJ_clean_sbu_0, # of connection points: 6
#     Node 9, Type 1, BuildingBlock: BETFAJ_clean_sbu_0, # of connection points: 6
#     Node 10, Type 1, BuildingBlock: BETFAJ_clean_sbu_0, # of connection points: 6
#     Node 11, Type 1, BuildingBlock: BETFAJ_clean_sbu_0, # of connection points: 6
#     Edge 12, Type (0, 1), BuildingBlock: CIFDUS_clean_linker_0, # of connection points: 2
#     Edge 13, Type (0, 1), BuildingBlock: CIFDUS_clean_linker_0, # of connection points: 2
#     Edge 14, Type (0, 1), BuildingBlock: CIFDUS_clean_linker_0, # of connection points: 2
#     Edge 15, Type (0, 1), BuildingBlock: CIFDUS_clean_linker_0, # of connection points: 2
#     Edge 16, Type (0, 1), BuildingBlock: CIFDUS_clean_linker_0, # of connection points: 2
#     Edge 17, Type (0, 1), BuildingBlock: CIFDUS_clean_linker_0, # of connection points: 2
#     Edge 18, Type (0, 1), BuildingBlock: CIFDUS_clean_linker_0, # of connection points: 2
#     Edge 19, Type (0, 1), BuildingBlock: CIFDUS_clean_linker_0, # of connection points: 2
#     Edge 20, Type (0, 1), BuildingBlock: CIFDUS_clean_linker_0, # of connection points: 2
#     Edge 21, Type (0, 1), BuildingBlock: CIFDUS_clean_linker_0, # of connection points: 2
#     Edge 22, Type (0, 1), BuildingBlock: CIFDUS_clean_linker_0, # of connection points: 2
#     Edge 23, Type (0, 1), BuildingBlock: CIFDUS_clean_linker_0, # of connection points: 2
#     Edge 24, Type (0, 1), BuildingBlock: CIFDUS_clean_linker_0, # of connection points: 2
#     Edge 25, Type (0, 1), BuildingBlock: CIFDUS_clean_linker_0, # of connection points: 2
#     Edge 26, Type (0, 1), BuildingBlock: CIFDUS_clean_linker_0, # of connection points: 2
#     Edge 27, Type (0, 1), BuildingBlock: CIFDUS_clean_linker_0, # of connection points: 2
#     Edge 28, Type (0, 1), BuildingBlock: CIFDUS_clean_linker_0, # of connection points: 2
#     Edge 29, Type (0, 1), BuildingBlock: CIFDUS_clean_linker_0, # of connection points: 2
#     Edge 30, Type (0, 1), BuildingBlock: CIFDUS_clean_linker_0, # of connection points: 2
#     Edge 31, Type (0, 1), BuildingBlock: CIFDUS_clean_linker_0, # of connection points: 2
#     Edge 32, Type (0, 1), BuildingBlock: CIFDUS_clean_linker_0, # of connection points: 2
#     Edge 33, Type (0, 1), BuildingBlock: CIFDUS_clean_linker_0, # of connection points: 2
#     Edge 34, Type (0, 1), BuildingBlock: CIFDUS_clean_linker_0, # of connection points: 2
#     Edge 35, Type (0, 1), BuildingBlock: CIFDUS_clean_linker_0, # of connection points: 2
# Relax obj value: 0.474
# Max RMSD: 0.270
# Mean RMSD: 0.256
data_MOF--net-zzz--node1-BETFAJ_clean_sbu_0--node2-MIDCAF_clean_linker_0--edge1-CIFDUS_clean_linker_0
_symmetry_space_group_name_H-M    P1
_symmetry_Int_Tables_number       1
_symmetry_cell_setting            triclinic
loop_
_symmetry_equiv_pos_as_xyz
'x, y, z'
_cell_length_a     53.170879
_cell_length_b     53.153921
_cell_length_c     16.492154
_cell_angle_alpha  89.580486
_cell_angle_beta   89.863556
_cell_angle_gamma 89.97487
loop_
_atom_site_label
_atom_site_type_symbol
_atom_site_fract_x
_atom_site_fract_y
_atom_site_fract_z
_atom_type_partial_charge
C0 C 0.81454 0.47806 0.49663 0.0
C1 C 0.82533 0.50159 0.47848 0.0
C2 C 0.81324 0.51703 0.4203 0.0
C3 C 0.79214 0.50832 0.37731 0.0
H4 H 0.72324 0.51602 0.17092 0.0
H5 H 0.68618 0.52818 0.0897 0.0
H6 H 0.65251 0.45589 0.14124 0.0
H7 H 0.68912 0.44394 0.22057 0.0
H8 H 0.76683 0.42539 0.09036 0.0
H9 H 0.80021 0.40012 0.03416 0.0
H10 H 0.81494 0.36847 0.27209 0.0
H11 H 0.78272 0.39584 0.32888 0.0
H12 H 0.78698 0.45049 0.46587 0.0
H13 H 0.82323 0.46541 0.54003 0.0
H14 H 0.82071 0.53545 0.40547 0.0
H15 H 0.78439 0.51985 0.32904 0.0
N16 N 0.74584 0.48224 0.29646 0.0
N17 N 0.74049 0.44616 0.21555 0.0
N18 N 0.77357 0.4479 0.30798 0.0
C19 C 0.73244 0.46925 0.23942 0.0
C20 C 0.76097 0.4354 0.24979 0.0
C21 C 0.76639 0.47117 0.33182 0.0
C22 C 0.70896 0.47911 0.20245 0.0
C23 C 0.70759 0.50309 0.16617 0.0
C24 C 0.68653 0.50989 0.11904 0.0
C25 C 0.66633 0.49301 0.10893 0.0
C26 C 0.66749 0.4695 0.14831 0.0
C27 C 0.68853 0.46261 0.19377 0.0
C28 C 0.77278 0.41303 0.21408 0.0
C29 C 0.77657 0.41231 0.13005 0.0
C30 C 0.79584 0.39759 0.09779 0.0
C31 C 0.81132 0.38293 0.14903 0.0
C32 C 0.80437 0.38046 0.23122 0.0
C33 C 0.78567 0.39587 0.26384 0.0
C34 C 0.7828 0.48397 0.39149 0.0
C35 C 0.79366 0.46942 0.45378 0.0
C36 C 0.97673 0.81742 0.4384 0.0
C37 C 0.99786 0.83016 0.46959 0.0
C38 C 0.02176 0.81945 0.45737 0.0
C39 C 0.02463 0.79776 0.41051 0.0
H40 H 0.03511 0.69003 0.30204 0.0
H41 H 0.03756 0.64894 0.23688 0.0
H42 H 0.96973 0.66569 0.10377 0.0
H43 H 0.96738 0.70666 0.16951 0.0
H44 H 0.06868 0.74473 0.11013 0.0
H45 H 0.09469 0.76615 1.00692 0.0
H46 H 0.03815 0.82406 0.98438 0.0
H47 H 0.013 0.80349 0.0896 0.0
H48 H 0.96323 0.78705 0.36439 0.0
H49 H 0.95801 0.82498 0.44713 0.0
H50 H 0.0385 0.82877 0.47933 0.0
H51 H 0.04345 0.7911 0.39728 0.0
N52 N 1.00104 0.74348 0.30991 0.0
N53 N 0.01916 0.73811 0.18044 0.0
N54 N 0.02006 0.77761 0.24134 0.0
C55 C 1.00671 0.72842 0.24525 0.0
C56 C 0.02565 0.76261 0.17791 0.0
C57 C 1.00794 0.76833 0.30758 0.0
C58 C 1.00083 0.70136 0.24191 0.0
C59 C 0.01987 0.68424 0.26285 0.0
C60 C 0.02151 0.66089 0.22422 0.0
C61 C 1.00414 0.65423 0.16373 0.0
C62 C 0.98338 0.67012 0.15017 0.0
C63 C 0.98185 0.69354 0.18857 0.0
C64 C 0.03916 0.77281 0.1077 0.0
C65 C 0.0617 0.76174 0.08137 0.0
C66 C 0.07641 0.77376 0.02227 0.0
C67 C 0.06812 0.79639 0.98715 0.0
C68 C 0.04462 0.80631 0.00947 0.0
C69 C 0.03042 0.7948 0.07017 0.0
C70 C 1.0037 0.78587 0.37574 0.0
C71 C 0.97963 0.79546 0.39208 0.0
C72 C 0.72077 1.00612 0.48653 0.0
C73 C 0.71112 0.02426 0.54041 0.0
C74 C 0.72429 0.04705 0.54838 0.0
C75 C 0.74544 0.05222 0.50047 0.0
H76 H 0.79983 0.01694 0.13311 0.0
H77 H 0.83362 1.0022 0.04608 0.0
H78 H 0.88579 1.00799 0.24567 0.0
H79 H 0.85148 0.02328 0.33262 0.0
H80 H 0.78099 0.0812 0.1189 0.0
H81 H 0.75188 0.10759 0.04624 0.0
H82 H 0.73372 0.14651 0.26862 0.0
H83 H 0.7615 0.11807 0.34259 0.0
H84 H 0.74837 0.99748 0.39497 0.0
H85 H 0.71127 0.98826 0.47933 0.0
H86 H 0.71742 0.06161 0.58836 0.0
H87 H 0.75416 0.07058 0.50503 0.0
N88 N 0.79014 0.02795 0.3465 0.0
N89 N 0.79931 0.05945 0.24949 0.0
N90 N 0.76835 0.06651 0.34723 0.0
C91 C 0.80416 0.03646 0.28212 0.0
C92 C 0.78166 0.07468 0.28212 0.0
C93 C 0.77224 0.04331 0.37983 0.0
C94 C 0.82292 0.02067 0.24 0.0
C95 C 0.81832 0.01411 0.15917 0.0
C96 C 0.83783 1.00573 0.10918 0.0
C97 C 0.86264 1.0039 0.13837 0.0
C98 C 0.86701 1.00936 0.22075 0.0
C99 C 0.84731 0.01768 0.27108 0.0
C100 C 0.77268 0.09693 0.2368 0.0
C101 C 0.77142 0.09594 0.15196 0.0
C102 C 0.75464 0.11139 0.10993 0.0
C103 C 0.73915 0.12848 0.15195 0.0
C104 C 0.74416 0.1326 0.23473 0.0
C105 C 0.7603 0.1165 0.27725 0.0
C106 C 0.75432 0.03469 0.44369 0.0
C107 C 0.74226 1.01122 0.43903 0.0
C108 C 0.39563 0.72338 0.233 0.0
C109 C 0.39974 0.7189 0.1499 0.0
C110 C 0.41395 0.73665 0.10535 0.0
C111 C 0.42716 0.75557 0.14512 0.0
H112 H 0.46232 0.84005 0.23894 0.0
H113 H 0.47751 0.87349 0.15013 0.0
H114 H 0.54687 0.83273 0.11391 0.0
H115 H 0.53141 0.799 0.20432 0.0
H116 H 0.45864 0.74378 0.49727 0.0
H117 H 0.47078 0.70779 0.58004 0.0
H118 H 0.54157 0.70366 0.45182 0.0
H119 H 0.52908 0.73998 0.36798 0.0
H120 H 0.40844 0.74275 0.33864 0.0
H121 H 0.3838 0.71096 0.26878 0.0
H122 H 0.41753 0.73429 0.04125 0.0
H123 H 0.44015 0.76703 0.11015 0.0
N124 N 0.4607 0.78791 0.23953 0.0
N125 N 0.49475 0.78121 0.32858 0.0
N126 N 0.45897 0.7552 0.3344 0.0
C127 C 0.4836 0.79495 0.26793 0.0
C128 C 0.48199 0.76147 0.36311 0.0
C129 C 0.44831 0.76807 0.27236 0.0
C130 C 0.49576 0.81703 0.22902 0.0
C131 C 0.48112 0.83855 0.21386 0.0
C132 C 0.48987 0.85776 0.16293 0.0
C133 C 0.51341 0.85584 0.12451 0.0
C134 C 0.52859 0.83473 0.14224 0.0
C135 C 0.51992 0.81557 0.19466 0.0
C136 C 0.49295 0.7448 0.42639 0.0
C137 C 0.47717 0.73572 0.48854 0.0
C138 C 0.48416 0.71502 0.53612 0.0
C139 C 0.50708 0.70254 0.52236 0.0
C140 C 0.52365 0.71262 0.4635 0.0
C141 C 0.5167 0.73365 0.41623 0.0
C142 C 0.42678 0.75674 0.23004 0.0
C143 C 0.40951 0.74178 0.27312 0.0
C144 C 0.21563 0.51789 0.03296 0.0
C145 C 0.20474 0.50411 0.96919 0.0
C146 C 0.21874 0.48424 0.93574 0.0
C147 C 0.24151 0.47663 0.97079 0.0
H148 H 0.33921 0.49545 0.14712 0.0
H149 H 0.37713 0.50505 0.22594 0.0
H150 H 0.34152 0.47412 0.44042 0.0
H151 H 0.30469 0.46372 0.3616 0.0
H152 H 0.26303 0.4247 0.34613 0.0
H153 H 0.223 0.41622 0.41231 0.0
H154 H 0.18895 0.40326 0.1788 0.0
H155 H 0.22905 0.41036 0.11353 0.0
H156 H 0.24505 0.5197 0.12191 0.0
H157 H 0.20565 0.53359 0.05943 0.0
H158 H 0.21108 0.47304 0.8871 0.0
H159 H 0.25038 0.4596 0.94896 0.0
N160 N 0.28694 0.483 0.13726 0.0
N161 N 0.28574 0.44773 0.22506 0.0
N162 N 0.25623 0.45169 0.12169 0.0
C163 C 0.29711 0.46944 0.20027 0.0
C164 C 0.2654 0.43862 0.18559 0.0
C165 C 0.26647 0.47373 0.09711 0.0
C166 C 0.31903 0.47857 0.24777 0.0
C167 C 0.33955 0.49095 0.21126 0.0
C168 C 0.36128 0.49642 0.25663 0.0
C169 C 0.36282 0.48989 0.33969 0.0
C170 C 0.34166 0.47864 0.37631 0.0
C171 C 0.32029 0.47289 0.33106 0.0
C172 C 0.24867 0.41981 0.22427 0.0
C173 C 0.24743 0.41845 0.30928 0.0
C174 C 0.22434 0.41381 0.34727 0.0
C175 C 0.20245 0.41088 0.30033 0.0
C176 C 0.2052 0.40627 0.21697 0.0
C177 C 0.22833 0.41048 0.1792 0.0
C178 C 0.25103 0.48874 0.03978 0.0
C179 C 0.23856 0.51031 0.06775 0.0
C180 C 1.01061 0.22717 0.95341 0.0
C181 C 0.02921 0.21369 0.91083 0.0
C182 C 0.05355 0.22382 0.90611 0.0
C183 C 0.05975 0.2456 0.94845 0.0
H184 H 0.0655 0.3564 0.1573 0.0
H185 H 0.05129 0.39012 0.24582 0.0
H186 H 0.98831 0.34414 0.32178 0.0
H187 H 1.00217 0.31098 0.22974 0.0
H188 H 0.07853 0.27791 0.33095 0.0
H189 H 0.08645 0.2393 0.40357 0.0
H190 H 0.13064 0.21203 0.20201 0.0
H191 H 0.12097 0.25039 0.12679 0.0
H192 H 1.0028 0.25786 0.03451 0.0
H193 H 0.99167 0.21979 0.95811 0.0
H194 H 0.06819 0.21414 0.87282 0.0
H195 H 0.07914 0.25187 0.94758 0.0
N196 N 0.03822 0.29555 0.08838 0.0
N197 N 0.06835 0.30074 0.19194 0.0
N198 N 0.07222 0.26755 0.10125 0.0
C199 C 0.04751 0.309 0.15232 0.0
C200 C 0.08082 0.28002 0.16669 0.0
C201 C 0.05117 0.27493 0.06155 0.0
C202 C 0.03468 0.33131 0.18569 0.0
C203 C 0.04805 0.35401 0.19056 0.0
C204 C 0.04013 0.37313 0.24264 0.0
C205 C 0.01892 0.36979 0.29294 0.0
C206 C 1.00463 0.34761 0.28394 0.0
C207 C 0.01242 0.32859 0.23075 0.0
C208 C 0.09799 0.26647 0.22172 0.0
C209 C 0.09108 0.2643 0.30362 0.0
C210 C 0.09569 0.24189 0.34558 0.0
C211 C 0.10776 0.22172 0.30632 0.0
C212 C 0.12001 0.22664 0.23211 0.0
C213 C 0.11477 0.24878 0.18926 0.0
C214 C 0.04186 0.25788 0.99719 0.0
C215 C 0.0169 0.24909 0.99656 0.0
C216 C 0.31139 0.01629 0.99907 0.0
C217 C 0.31943 0.03013 0.93051 0.0
C218 C 0.30376 0.04947 0.90111 0.0
C219 C 0.28194 0.05632 0.94339 0.0
H220 H 0.20967 1.01164 0.18768 0.0
H221 H 0.17527 0.99664 0.27492 0.0
H222 H 0.15472 0.07345 0.32666 0.0
H223 H 0.18883 0.08832 0.2401 0.0
H224 H 0.24942 0.11034 0.31994 0.0
H225 H 0.28255 0.12294 0.41226 0.0
H226 H 0.33541 0.1232 0.21193 0.0
H227 H 0.30216 0.1132 0.12064 0.0
H228 H 0.28481 0.0134 0.09721 0.0
H229 H 0.32285 1.00112 0.02293 0.0
H230 H 0.30938 0.06069 0.84906 0.0
H231 H 0.27164 0.07284 0.92362 0.0
N232 N 0.23756 0.04781 0.10733 0.0
N233 N 0.23632 0.08187 0.19824 0.0
N234 N 0.26929 0.07854 0.1056 0.0
C235 C 0.22552 0.06072 0.16777 0.0
C236 C 0.25827 0.09085 0.16771 0.0
C237 C 0.25929 0.05729 0.07479 0.0
C238 C 0.20217 0.05116 0.20747 0.0
C239 C 0.19742 0.02528 0.21611 0.0
C240 C 0.17781 0.01671 0.26658 0.0
C241 C 0.16231 0.03386 0.30842 0.0
C242 C 0.16609 0.05971 0.29515 0.0
C243 C 0.18582 0.06822 0.24583 0.0
C244 C 0.27358 0.10909 0.21386 0.0
C245 C 0.26792 0.11428 0.29529 0.0
C246 C 0.28715 0.12111 0.34864 0.0
C247 C 0.31236 0.12193 0.3217 0.0
C248 C 0.3167 0.12187 0.23729 0.0
C249 C 0.2974 0.11584 0.18393 0.0
C250 C 0.27494 0.04371 0.01515 0.0
C251 C 0.28932 0.02297 0.04079 0.0
C252 C 0.39954 0.31227 0.23236 0.0
C253 C 0.39855 0.30932 0.31741 0.0
C254 C 0.39967 0.28457 0.34894 0.0
C255 C 0.40805 0.2648 0.30017 0.0
H256 H 0.51345 0.20464 0.2118 0.0
H257 H 0.52623 0.16899 0.2979 0.0
H258 H 0.44813 0.15098 0.34122 0.0
H259 H 0.43552 0.1865 0.25756 0.0
H260 H 0.4548 0.27577 0.953 0.0
H261 H 0.47078 0.31372 0.88836 0.0
H262 H 0.53488 0.31253 0.04894 0.0
H263 H 0.51824 0.2745 0.11498 0.0
H264 H 0.41066 0.29624 0.11989 0.0
H265 H 0.39789 0.33048 0.20331 0.0
H266 H 0.39703 0.28091 0.41299 0.0
H267 H 0.41234 0.24688 0.32874 0.0
N268 N 0.4429 0.23274 0.21217 0.0
N269 N 0.47938 0.23453 0.1305 0.0
N270 N 0.4482 0.26569 0.11988 0.0
C271 C 0.46501 0.22229 0.18758 0.0
C272 C 0.47049 0.25613 0.09516 0.0
C273 C 0.43438 0.25448 0.17869 0.0
C274 C 0.47348 0.19872 0.22872 0.0
C275 C 0.49909 0.19282 0.23877 0.0
C276 C 0.50638 0.17236 0.28814 0.0
C277 C 0.4882 0.15738 0.32802 0.0
C278 C 0.46267 0.16248 0.31359 0.0
C279 C 0.45544 0.18286 0.26507 0.0
C280 C 0.48536 0.27202 0.0386 0.0
C281 C 0.47289 0.28298 0.97209 0.0
C282 C 0.48207 0.30491 0.93516 0.0
C283 C 0.50397 0.31663 0.96404 0.0
C284 C 0.51769 0.30434 0.02596 0.0
C285 C 0.50848 0.28223 0.06285 0.0
C286 C 0.41444 0.26942 0.21874 0.0
C287 C 0.40716 0.29241 0.18349 0.0
Sm288 Sm 0.03545 1.0076 0.80993 0.0
Sm289 Sm 0.99758 0.02441 0.67446 0.0
C290 C 0.05796 0.99019 0.94081 0.0
C291 C 0.07794 0.97135 0.94958 0.0
C292 C 0.07997 0.9573 0.02128 0.0
C293 C 0.09499 0.93573 0.02329 0.0
C294 C 0.10793 0.92788 0.95324 0.0
C295 C 0.10767 0.94335 0.88401 0.0
C296 C 0.09273 0.96489 0.88217 0.0
C297 C 0.0617 0.01509 0.66535 0.0
C298 C 1.01143 0.96472 0.6869 0.0
C299 C 0.97893 0.04838 0.54889 0.0
C300 C 0.99023 0.07103 0.51086 0.0
C301 C 1.00717 0.06824 0.446 0.0
C302 C 0.02406 0.08742 0.42635 0.0
C303 C 0.02403 0.11009 0.46988 0.0
C304 C 1.00533 0.1138 0.52914 0.0
C305 C 0.98866 0.09447 0.54955 0.0
C306 C 0.97526 1.00829 0.8169 0.0
C307 C 0.0243 0.0675 0.79082 0.0
O308 O 0.03639 0.98134 0.91497 0.0
O309 O 0.06456 1.01126 0.90495 0.0
O310 O 0.03859 0.01777 0.67814 0.0
O311 O 0.07216 1.00773 0.73204 0.0
O312 O 0.02192 0.96955 0.75798 0.0
O313 O 1.0026 0.98283 0.63933 0.0
O314 O 0.99226 0.02776 0.54164 0.0
O315 O 0.96974 0.05115 0.62218 0.0
O316 O 0.99498 0.02158 0.81152 0.0
O317 O 0.96611 1.00409 0.7451 0.0
O318 O 0.01321 0.06257 0.72093 0.0
O319 O 0.03194 0.04941 0.84016 0.0
H320 H 0.06864 0.96198 0.07373 0.0
H321 H 0.09453 0.92398 0.07721 0.0
H322 H 0.11743 0.93771 0.82932 0.0
H323 H 0.09145 0.97548 0.82617 0.0
H324 H 1.00879 0.05047 0.41466 0.0
H325 H 0.03804 0.0838 0.38012 0.0
H326 H 1.00405 0.13135 0.56181 0.0
H327 H 0.97563 0.09745 0.59916 0.0
Sm328 Sm 0.52516 0.03048 0.8248 0.0
Sm329 Sm 0.50714 1.00274 0.68328 0.0
C330 C 0.54558 0.048 0.95915 0.0
C331 C 0.56525 0.06541 0.9853 0.0
C332 C 0.5757 0.06219 0.06229 0.0
C333 C 0.59421 0.07861 0.08951 0.0
C334 C 0.60254 0.09873 0.04032 0.0
C335 C 0.59191 0.10195 0.96288 0.0
C336 C 0.57338 0.08537 0.93551 0.0
C337 C 0.50916 0.06194 0.70137 0.0
C338 C 0.56719 0.01198 0.68818 0.0
C339 C 0.48183 0.99244 0.55072 0.0
C340 C 0.46556 1.01025 0.50605 0.0
C341 C 0.47475 0.0341 0.48314 0.0
C342 C 0.4583 0.05311 0.45847 0.0
C343 C 0.4323 0.04872 0.45597 0.0
C344 C 0.42331 0.02434 0.47376 0.0
C345 C 0.43977 1.00534 0.49888 0.0
C346 C 0.52051 0.97109 0.81075 0.0
C347 C 0.46644 0.02105 0.81675 0.0
O348 O 0.55297 0.02712 0.9249 0.0
O349 O 0.526 0.05813 0.92413 0.0
O350 O 0.52228 0.0424 0.69199 0.0
O351 O 0.50493 0.06593 0.77746 0.0
O352 O 0.56337 0.02086 0.76204 0.0
O353 O 0.54816 1.00507 0.64247 0.0
O354 O 0.5059 0.99739 0.54989 0.0
O355 O 0.47374 0.98605 0.62284 0.0
O356 O 0.50889 0.99161 0.81592 0.0
O357 O 0.52385 0.9654 0.73497 0.0
O358 O 0.47096 0.02073 0.73807 0.0
O359 O 0.48551 0.01954 0.86733 0.0
H360 H 0.56966 0.04684 0.1013 0.0
H361 H 0.60244 0.07508 0.14851 0.0
H362 H 0.59789 0.11723 0.92358 0.0
H363 H 0.56542 0.0881 0.87566 0.0
H364 H 0.49455 0.03852 0.48797 0.0
H365 H 0.46589 0.07153 0.44472 0.0
H366 H 0.40345 0.02004 0.46996 0.0
H367 H 0.43221 0.98716 0.51634 0.0
Sm368 Sm 0.50782 0.51293 0.78723 0.0
Sm369 Sm 0.53056 0.49782 0.63409 0.0
C370 C 0.49415 0.53124 0.92951 0.0
C371 C 0.47667 0.54999 0.96188 0.0
C372 C 0.48185 0.56098 0.03672 0.0
C373 C 0.46536 0.5786 0.06945 0.0
C374 C 0.44322 0.58548 0.0281 0.0
C375 C 0.43807 0.57436 0.95281 0.0
C376 C 0.45471 0.55676 0.91985 0.0
C377 C 0.47247 0.50013 0.6717 0.0
C378 C 0.52257 0.55743 0.65234 0.0
C379 C 0.53607 0.47487 0.49463 0.0
C380 C 0.51659 0.45939 0.45519 0.0
C381 C 0.49308 0.46991 0.4348 0.0
C382 C 0.47267 0.45447 0.41639 0.0
C383 C 0.47525 0.42822 0.41849 0.0
C384 C 0.49918 0.41779 0.43336 0.0
C385 C 0.51962 0.43322 0.45153 0.0
C386 C 0.56641 0.50923 0.74976 0.0
C387 C 0.51527 0.45467 0.76414 0.0
O388 O 0.51351 0.53976 0.8886 0.0
O389 O 0.48393 0.51141 0.89698 0.0
O390 O 0.49179 0.51328 0.65901 0.0
O391 O 0.47077 0.494 0.74754 0.0
O392 O 0.51626 0.55231 0.72848 0.0
O393 O 0.52728 0.53925 0.60086 0.0
O394 O 0.53134 0.49893 0.49948 0.0
O395 O 0.54509 0.46561 0.56226 0.0
O396 O 0.54636 0.49717 0.76239 0.0
O397 O 0.56907 0.51399 0.67287 0.0
O398 O 0.51296 0.46135 0.68742 0.0
O399 O 0.51921 0.47224 0.81846 0.0
H400 H 0.49876 0.55601 0.06973 0.0
H401 H 0.4703 0.58726 0.12648 0.0
H402 H 0.42119 0.57919 0.91953 0.0
H403 H 0.45044 0.54843 0.86173 0.0
H404 H 0.48999 0.49003 0.43707 0.0
H405 H 0.45462 0.46309 0.40409 0.0
H406 H 0.50201 0.39762 0.43277 0.0
H407 H 0.53747 0.42461 0.46691 0.0
Sm408 Sm 1.00652 0.49149 0.81087 0.0
Sm409 Sm 0.0193 0.52362 0.67297 0.0
C410 C 1.00146 0.46662 0.94978 0.0
C411 C 0.98486 0.44745 0.98604 0.0
C412 C 0.97475 0.45168 0.06314 0.0
C413 C 0.95748 0.43484 0.09674 0.0
C414 C 0.95007 0.41319 0.05414 0.0
C415 C 0.96114 0.40843 0.97818 0.0
C416 C 0.97828 0.42548 0.94419 0.0
C417 C 0.01167 0.46544 0.66744 0.0
C418 C 0.95935 0.50815 0.70138 0.0
C419 C 0.02909 0.54028 0.52573 0.0
C420 C 0.04674 0.52846 0.46823 0.0
C421 C 0.04462 0.50264 0.45139 0.0
C422 C 0.0651 0.48932 0.42101 0.0
C423 C 0.08817 0.50144 0.40682 0.0
C424 C 0.08919 0.52785 0.41389 0.0
C425 C 0.06869 0.54121 0.44486 0.0
C426 C 0.01268 0.55074 0.81386 0.0
C427 C 0.06504 0.50656 0.78101 0.0
O428 O 0.99149 0.48877 0.93658 0.0
O429 O 0.01634 0.4594 0.89125 0.0
O430 O 0.02637 0.48229 0.69249 0.0
O431 O 0.99356 0.46156 0.71877 0.0
O432 O 0.96566 0.49883 0.77291 0.0
O433 O 0.97665 0.51712 0.65123 0.0
O434 O 1.00885 0.52733 0.5432 0.0
O435 O 0.03957 0.54993 0.59013 0.0
O436 O 0.99892 0.53287 0.79088 0.0
O437 O 0.02959 0.55595 0.75961 0.0
O438 O 0.05835 0.50825 0.70451 0.0
O439 O 0.04739 0.50504 0.83719 0.0
H440 H 0.97962 0.46849 0.09642 0.0
H441 H 0.94905 0.43952 0.15452 0.0
H442 H 0.95613 0.39184 0.94409 0.0
H443 H 0.98592 0.42173 0.88454 0.0
H444 H 0.02788 0.49217 0.46791 0.0
H445 H 0.06329 0.46919 0.41498 0.0
H446 H 0.10631 0.53805 0.40012 0.0
H447 H 0.07072 0.56114 0.45648 0.0
H448 H 0.11398 0.05019 0.33788 0.0
H449 H 0.17042 0.99831 0.42499 0.0
H450 H 0.14377 0.98724 0.54027 0.0
H451 H 0.10591 0.9944 0.62214 0.0
H452 H 0.04854 0.04509 0.53614 0.0
H453 H 0.07398 0.0546 0.41491 0.0
C454 C 0.12033 0.03631 0.38177 0.0
C455 C 0.14428 0.02513 0.3725 0.0
C456 C 0.1048 0.02998 0.44851 0.0
C457 C 0.15205 1.007 0.42969 0.0
C458 C 0.13688 1.0008 0.49621 0.0
C459 C 0.09887 1.00737 0.57643 0.0
C460 C 0.07546 0.01917 0.58806 0.0
C461 C 0.11346 0.01248 0.50701 0.0
C462 C 0.06644 0.03573 0.52815 0.0
C463 C 0.08106 0.04123 0.45917 0.0
H464 H 0.46632 0.14745 0.47383 0.0
H465 H 0.52662 0.12262 0.3184 0.0
H466 H 0.53825 0.09038 0.41865 0.0
H467 H 0.53131 0.06935 0.5523 0.0
H468 H 0.47103 0.09529 0.70587 0.0
H469 H 0.45909 0.12657 0.60403 0.0
C470 C 0.48185 0.13483 0.46117 0.0
C471 C 0.49547 0.13747 0.38819 0.0
C472 C 0.48845 0.11647 0.51904 0.0
C473 C 0.5159 0.12121 0.37415 0.0
C474 C 0.52249 0.10268 0.43139 0.0
C475 C 0.51553 0.08183 0.56305 0.0
C476 C 0.50204 0.08002 0.63653 0.0
C477 C 0.50895 0.10017 0.50432 0.0
C478 C 0.48174 0.09638 0.64998 0.0
C479 C 0.4749 0.11428 0.59176 0.0
H480 H 0.38233 0.46038 0.4608 0.0
H481 H 0.39643 0.52948 0.32923 0.0
H482 H 0.43282 0.53779 0.41544 0.0
H483 H 0.45918 0.52681 0.53516 0.0
H484 H 0.44209 0.4595 0.67189 0.0
H485 H 0.40825 0.44937 0.57774 0.0
C486 C 0.39304 0.47751 0.4513 0.0
C487 C 0.38614 0.49443 0.3888 0.0
C488 C 0.41342 0.48262 0.50283 0.0
C489 C 0.40113 0.51597 0.37623 0.0
C490 C 0.4219 0.52087 0.42613 0.0
C491 C 0.44805 0.50991 0.5439 0.0
C492 C 0.45301 0.49398 0.61069 0.0
C493 C 0.42801 0.50455 0.49055 0.0
C494 C 0.43847 0.47216 0.62144 0.0
C495 C 0.41912 0.46635 0.56759 0.0
H496 H 0.05209 0.39655 0.38544 0.0
H497 H 0.97251 0.38473 0.35029 0.0
H498 H 0.96331 0.41266 0.46359 0.0
H499 H 0.9779 0.44017 0.57476 0.0
H500 H 0.05728 0.45403 0.60241 0.0
H501 H 0.06647 0.42563 0.49009 0.0
C502 C 0.03266 0.40036 0.40112 0.0
C503 C 0.01307 0.38831 0.35868 0.0
C504 C 0.02745 0.41675 0.46573 0.0
C505 C 0.98807 0.39329 0.38208 0.0
C506 C 0.98275 0.40941 0.44683 0.0
C507 C 0.99718 0.437 0.55577 0.0
C508 C 0.01691 0.44906 0.59703 0.0
C509 C 1.00229 0.42112 0.48952 0.0
C510 C 0.04179 0.44497 0.57163 0.0
C511 C 0.04704 0.42869 0.50747 0.0
H512 H 0.91 0.02472 0.13279 0.0
H513 H 0.86294 0.97034 0.01285 0.0
H514 H 0.89427 0.96583 0.90585 0.0
H515 H 0.93337 0.97993 0.83961 0.0
H516 H 0.98127 0.03316 0.96053 0.0
H517 H 0.95165 0.03503 0.0743 0.0
C518 C 0.90679 1.01143 0.08437 0.0
C519 C 0.88375 0.99825 0.08071 0.0
C520 C 0.92505 1.0088 0.02264 0.0
C521 C 0.88009 0.98124 0.01669 0.0
C522 C 0.89809 0.97855 0.95538 0.0
C523 C 0.93749 0.99169 0.8914 0.0
C524 C 0.95938 1.00659 0.89109 0.0
C525 C 0.92034 0.9927 0.95657 0.0
C526 C 0.96455 0.02154 0.95902 0.0
C527 C 0.94753 0.0227 0.02401 0.0
H528 H 0.50887 0.90689 0.13205 0.0
H529 H 0.53391 0.84756 0.97431 0.0
H530 H 0.54008 0.87805 0.86413 0.0
H531 H 0.53473 0.92131 0.80875 0.0
H532 H 0.50918 0.98011 0.96809 0.0
H533 H 0.50676 0.95023 0.08057 0.0
C534 C 0.51585 0.90063 0.07372 0.0
C535 C 0.52073 0.87489 0.06157 0.0
C536 C 0.51902 0.91822 0.0103 0.0
C537 C 0.53017 0.86724 0.98582 0.0
C538 C 0.53349 0.88467 0.92242 0.0
C539 C 0.5289 0.92759 0.86831 0.0
C540 C 0.52184 0.95289 0.87954 0.0
C541 C 0.52745 0.91017 0.93333 0.0
C542 C 0.51448 0.96074 0.95734 0.0
C543 C 0.51308 0.94364 0.02191 0.0
H544 H 0.66689 0.51325 0.95546 0.0
H545 H 0.61651 0.48534 0.14066 0.0
H546 H 0.5811 0.4889 0.04735 0.0
H547 H 0.56474 0.49711 0.91025 0.0
H548 H 0.61479 0.52492 0.72414 0.0
H549 H 0.64979 0.52448 0.82036 0.0
C550 C 0.64808 0.50843 0.97584 0.0
C551 C 0.64447 0.49884 0.05499 0.0
C552 C 0.6277 0.51027 0.92128 0.0
C553 C 0.61994 0.49245 0.07992 0.0
C554 C 0.59963 0.49449 0.02653 0.0
C555 C 0.58328 0.50323 0.89088 0.0
C556 C 0.58717 0.51079 0.80981 0.0
C557 C 0.60336 0.50284 0.94654 0.0
C558 C 0.61127 0.51887 0.78599 0.0
C559 C 0.63133 0.51861 0.84106 0.0
H560 H 0.97247 0.61801 0.1026 0.0
H561 H 0.04905 0.6447 0.09139 0.0
H562 H 0.05852 0.61485 0.98429 0.0
H563 H 0.04464 0.58287 0.88745 0.0
H564 H 0.96881 0.55453 0.90024 0.0
H565 H 0.95946 0.58319 0.01223 0.0
C566 C 0.99127 0.61708 0.07721 0.0
C567 C 1.01001 0.63358 0.1056 0.0
C568 C 0.99669 0.59972 0.01509 0.0
C569 C 0.03433 0.63202 0.07203 0.0
C570 C 0.03974 0.61508 0.01001 0.0
C571 C 0.02609 0.58292 0.91501 0.0
C572 C 1.00736 0.56687 0.88492 0.0
C573 C 0.021 0.59913 0.98016 0.0
C574 C 0.98353 0.56682 0.92204 0.0
C575 C 0.97817 0.58323 0.98605 0.0
H576 H 0.09976 0.20147 0.4584 0.0
H577 H 0.09831 0.18266 0.20372 0.0
H578 H 0.07398 0.14539 0.23349 0.0
H579 H 0.04653 0.1226 0.32635 0.0
H580 H 0.04668 0.14087 0.58117 0.0
H581 H 0.07678 0.17461 0.55548 0.0
C582 C 0.09446 0.18904 0.40949 0.0
C583 C 0.10063 0.19544 0.32881 0.0
C584 C 0.07924 0.16803 0.42627 0.0
C585 C 0.09419 0.17851 0.2667 0.0
C586 C 0.07974 0.15725 0.28332 0.0
C587 C 0.0535 0.13348 0.37688 0.0
C588 C 0.04378 0.12945 0.45524 0.0
C589 C 0.07113 0.15256 0.36213 0.0
C590 C 0.05306 0.14406 0.51954 0.0
C591 C 0.07058 0.16318 0.50518 0.0
H592 H 0.36316 0.13271 0.30494 0.0
H593 H 0.31025 0.09692 0.46914 0.0
H594 H 0.34413 0.07436 0.53339 0.0
H595 H 0.38669 0.05751 0.52463 0.0
H596 H 0.43821 0.08738 0.34552 0.0
H597 H 0.40701 0.11862 0.30467 0.0
C598 C 0.35881 0.11994 0.35447 0.0
C599 C 0.3336 0.11593 0.37844 0.0
C600 C 0.3782 0.10512 0.38734 0.0
C601 C 0.32907 0.10059 0.44725 0.0
C602 C 0.34854 0.08712 0.48377 0.0
C603 C 0.39111 0.07074 0.47628 0.0
C604 C 0.4145 0.06949 0.43655 0.0
C605 C 0.37278 0.08798 0.45078 0.0
C606 C 0.42028 0.08764 0.37676 0.0
C607 C 0.40239 0.10551 0.35311 0.0
H608 H 0.38818 0.35991 0.28993 0.0
H609 H 0.42161 0.3098 0.46778 0.0
H610 H 0.4449 0.34433 0.52364 0.0
H611 H 0.46392 0.3856 0.50192 0.0
H612 H 0.43635 0.43388 0.31034 0.0
H613 H 0.40362 0.40323 0.27895 0.0
C614 C 0.40058 0.35631 0.34071 0.0
C615 C 0.40392 0.33153 0.37044 0.0
C616 C 0.41588 0.37593 0.36879 0.0
C617 C 0.41859 0.32817 0.44103 0.0
C618 C 0.43249 0.348 0.47284 0.0
C619 C 0.45075 0.38944 0.45324 0.0
C620 C 0.45316 0.41156 0.40667 0.0
C621 C 0.43266 0.37137 0.43341 0.0
C622 C 0.43519 0.41682 0.34643 0.0
C623 C 0.41649 0.39925 0.32829 0.0
H624 H 0.19525 0.45123 0.396 0.0
H625 H 0.1545 0.39366 0.26793 0.0
H626 H 0.11533 0.41717 0.28719 0.0
H627 H 0.09383 0.45609 0.32867 0.0
H628 H 0.13525 0.51204 0.46295 0.0
H629 H 0.17327 0.48725 0.45018 0.0
C630 C 0.17776 0.44318 0.37462 0.0
C631 C 0.17794 0.4206 0.33053 0.0
C632 C 0.15558 0.45697 0.38432 0.0
C633 C 0.15498 0.41103 0.30179 0.0
C634 C 0.13262 0.42458 0.31218 0.0
C635 C 0.11104 0.46281 0.3561 0.0
C636 C 0.11153 0.48636 0.39518 0.0
C637 C 0.13288 0.44799 0.35115 0.0
C638 C 0.13426 0.4946 0.42964 0.0
C639 C 0.15603 0.48019 0.42376 0.0
H640 H 0.1102 0.81667 0.04514 0.0
H641 H 0.06325 0.81452 0.83299 0.0
H642 H 0.07933 0.85549 0.78912 0.0
H643 H 0.09556 0.89579 0.83483 0.0
H644 H 0.13659 0.90027 0.05944 0.0
H645 H 0.13468 0.8545 0.07445 0.0
C646 C 0.10461 0.82465 0.98714 0.0
C647 C 0.08549 0.81299 0.94253 0.0
C648 C 0.11238 0.84902 0.96618 0.0
C649 C 0.07799 0.82336 0.86796 0.0
C650 C 0.08692 0.84691 0.84368 0.0
C651 C 0.10515 0.88665 0.88506 0.0
C652 C 0.11578 0.90129 0.94688 0.0
C653 C 0.10249 0.86066 0.89576 0.0
C654 C 0.128 0.88929 0.01187 0.0
C655 C 0.12674 0.86318 0.02062 0.0
H656 H 0.69456 0.13619 0.23093 0.0
H657 H 0.72726 0.13801 0.99067 0.0
H658 H 0.68565 0.13229 0.93187 0.0
H659 H 0.6423 0.11679 0.95198 0.0
H660 H 0.61006 0.11712 0.19255 0.0
H661 H 0.64949 0.13266 0.24761 0.0
C662 C 0.69287 0.1365 0.16552 0.0
C663 C 0.7145 0.13616 0.11583 0.0
C664 C 0.66896 0.13302 0.13208 0.0
C665 C 0.71121 0.13696 0.03104 0.0
C666 C 0.68736 0.13371 0.99715 0.0
C667 C 0.64356 0.12109 0.016 0.0
C668 C 0.62358 0.11479 0.0686 0.0
C669 C 0.66638 0.13 0.04753 0.0
C670 C 0.62551 0.12082 0.15123 0.0
C671 C 0.64802 0.12983 0.18277 0.0
H672 H 0.40127 0.67391 0.23018 0.0
H673 H 0.38928 0.70561 0.99126 0.0
H674 H 0.39889 0.66492 0.93101 0.0
H675 H 0.41935 0.62351 0.94639 0.0
H676 H 0.42961 0.59211 0.18631 0.0
H677 H 0.41144 0.62976 0.24589 0.0
C678 C 0.39959 0.672 0.16508 0.0
C679 C 0.39551 0.69333 0.11546 0.0
C680 C 0.40541 0.64869 0.1308 0.0
C681 C 0.39339 0.68988 0.03113 0.0
C682 C 0.3989 0.66657 0.99647 0.0
C683 C 0.41689 0.62451 0.01156 0.0
C684 C 0.42669 0.60538 0.06195 0.0
C685 C 0.40642 0.64629 0.04565 0.0
C686 C 0.42311 0.60697 0.14626 0.0
C687 C 0.41258 0.62844 0.18042 0.0
H688 H 0.85429 0.38085 0.23977 0.0
H689 H 0.82744 0.36925 0.9956 0.0
H690 H 0.87017 0.37416 0.9441 0.0
H691 H 0.91254 0.39114 0.96676 0.0
H692 H 0.93952 0.40002 0.2118 0.0
H693 H 0.899 0.38606 0.26454 0.0
C694 C 0.85757 0.37824 0.17555 0.0
C695 C 0.83718 0.37586 0.12149 0.0
C696 C 0.88216 0.38111 0.14621 0.0
C697 C 0.84246 0.37231 0.0386 0.0
C698 C 0.86696 0.37506 0.00894 0.0
C699 C 0.91002 0.38915 0.03172 0.0
C700 C 0.92878 0.39767 0.08517 0.0
C701 C 0.88665 0.38104 0.06184 0.0
C702 C 0.92505 0.39465 0.16918 0.0
C703 C 0.9019 0.38653 0.19947 0.0
H704 H 0.05632 0.17172 0.94104 0.0
H705 H 0.99121 0.1977 0.81003 0.0
H706 H 0.98453 0.15509 0.75693 0.0
H707 H 0.99724 0.10996 0.74952 0.0
H708 H 0.0611 0.08466 0.88922 0.0
H709 H 0.06835 0.12736 0.93625 0.0
C710 C 0.04074 0.1681 0.90042 0.0
C711 C 0.02444 0.18791 0.87885 0.0
C712 C 0.03682 0.14359 0.87157 0.0
C713 C 1.00402 0.18278 0.82754 0.0
C714 C 1.00027 0.15843 0.79703 0.0
C715 C 0.0128 0.11388 0.78987 0.0
C716 C 0.02862 0.09403 0.81567 0.0
C717 C 0.01655 0.13861 0.8187 0.0
C718 C 0.04855 0.09944 0.86866 0.0
C719 C 0.05274 0.12391 0.89564 0.0
H720 H 0.3636 0.02369 0.01142 0.0
H721 H 0.33329 0.02923 0.76969 0.0
H722 H 0.37581 0.02698 0.71272 0.0
H723 H 0.422 0.02439 0.73188 0.0
H724 H 0.45167 0.01954 0.975 0.0
H725 H 0.40922 0.02045 0.03047 0.0
C726 C 0.36621 0.02395 0.94618 0.0
C727 C 0.34513 0.02643 0.89507 0.0
C728 C 0.39075 0.02297 0.91387 0.0
C729 C 0.34909 0.02737 0.81064 0.0
C730 C 0.37344 0.02609 0.77797 0.0
C731 C 0.41918 0.02353 0.79699 0.0
C732 C 0.44019 0.02196 0.84896 0.0
C733 C 0.39449 0.02412 0.82901 0.0
C734 C 0.43603 0.02084 0.93324 0.0
C735 C 0.41167 0.0213 0.96525 0.0
H736 H 0.50021 0.33714 0.81086 0.0
H737 H 0.52171 0.35565 0.05552 0.0
H738 H 0.52766 0.39947 0.01547 0.0
H739 H 0.52446 0.43335 0.91291 0.0
H740 H 0.50208 0.41496 0.66901 0.0
H741 H 0.49834 0.37069 0.70733 0.0
C742 C 0.50622 0.3507 0.85557 0.0
C743 C 0.51048 0.34281 0.93632 0.0
C744 C 0.50915 0.37615 0.83251 0.0
C745 C 0.51866 0.36082 0.99269 0.0
C746 C 0.5218 0.38608 0.97004 0.0
C747 C 0.51877 0.41967 0.86809 0.0
C748 C 0.51341 0.42765 0.78825 0.0
C749 C 0.51673 0.39406 0.89044 0.0
C750 C 0.50627 0.40951 0.73096 0.0
C751 C 0.50414 0.3841 0.7528 0.0
H752 H 0.18385 0.50213 0.81666 0.0
H753 H 0.16451 0.51418 0.06769 0.0
H754 H 0.12007 0.51625 0.03235 0.0
H755 H 0.08613 0.5127 0.93117 0.0
H756 H 0.10542 0.50071 0.68011 0.0
H757 H 0.15004 0.5002 0.71466 0.0
C758 C 0.16995 0.50529 0.8637 0.0
C759 C 0.17781 0.50808 0.94486 0.0
C760 C 0.14419 0.50619 0.84308 0.0
C761 C 0.15932 0.51242 1.00454 0.0
C762 C 0.13375 0.51333 0.98451 0.0
C763 C 0.10008 0.50996 0.88399 0.0
C764 C 0.09226 0.50656 0.80316 0.0
C765 C 0.12589 0.50993 0.90416 0.0
C766 C 0.11074 0.50332 0.74285 0.0
C767 C 0.13636 0.50303 0.76256 0.0
H768 H 0.02264 0.84885 0.60234 0.0
H769 H 0.96813 0.86939 0.42013 0.0
H770 H 0.96701 0.91232 0.4716 0.0
H771 H 0.98304 0.94488 0.56411 0.0
H772 H 0.03723 0.9242 0.74735 0.0
H773 H 0.03704 0.88087 0.69944 0.0
C774 C 1.01044 0.86268 0.574 0.0
C775 C 0.99549 0.85569 0.50721 0.0
C776 C 1.00996 0.88753 0.60375 0.0
C777 C 0.9796 0.87395 0.47217 0.0
C778 C 0.97911 0.89866 0.50117 0.0
C779 C 0.99477 0.93091 0.59378 0.0
C780 C 1.01022 0.93803 0.65916 0.0
C781 C 0.99444 0.90579 0.56627 0.0
C782 C 0.02509 0.91944 0.69708 0.0
C783 C 0.02505 0.89457 0.66956 0.0
H784 H 0.66757 1.0041 0.48126 0.0
H785 H 0.69899 0.03675 0.69715 0.0
H786 H 0.65775 0.03534 0.76287 0.0
H787 H 0.61203 0.0267 0.75697 0.0
H788 H 0.58107 0.99407 0.53995 0.0
H789 H 0.62262 0.99342 0.47798 0.0
C790 C 0.66556 1.01047 0.54325 0.0
C791 C 0.68652 0.02059 0.58378 0.0
C792 C 0.64166 1.00979 0.58069 0.0
C793 C 0.68325 0.02912 0.66382 0.0
C794 C 0.65961 0.02829 0.70165 0.0
C795 C 0.61437 0.01929 0.69635 0.0
C796 C 0.59318 1.01057 0.65348 0.0
C797 C 0.63854 0.01902 0.66029 0.0
C798 C 0.59681 1.00103 0.5748 0.0
C799 C 0.62067 1.00062 0.53899 0.0
H800 H 0.52682 0.66003 0.4559 0.0
H801 H 0.49802 0.68904 0.68129 0.0
H802 H 0.50096 0.64715 0.74297 0.0
H803 H 0.50942 0.6014 0.73036 0.0
H804 H 0.53817 0.57326 0.50318 0.0
H805 H 0.53778 0.61545 0.44599 0.0
C806 C 0.52171 0.65739 0.51908 0.0
C807 C 0.51216 0.67782 0.56352 0.0
C808 C 0.52322 0.63317 0.55405 0.0
C809 C 0.50519 0.67371 0.64506 0.0
C810 C 0.50688 0.6497 0.68053 0.0
C811 C 0.51579 0.60452 0.66861 0.0
C812 C 0.52362 0.58391 0.62138 0.0
C813 C 0.51545 0.62912 0.63519 0.0
C814 C 0.53183 0.58852 0.54131 0.0
C815 C 0.53167 0.61277 0.5082 0.0
H816 H 0.84317 0.49224 0.63241 0.0
H817 H 0.86465 0.52579 0.40328 0.0
H818 H 0.90724 0.53209 0.45341 0.0
H819 H 0.93947 0.52516 0.55811 0.0
H820 H 0.91851 0.4901 0.78534 0.0
H821 H 0.87499 0.48699 0.73949 0.0
C822 C 0.85711 0.50096 0.59325 0.0
C823 C 0.85043 0.50841 0.51372 0.0
C824 C 0.88191 0.50401 0.62181 0.0
C825 C 0.86886 0.52014 0.46498 0.0
C826 C 0.89343 0.52352 0.49334 0.0
C827 C 0.9254 0.51697 0.59801 0.0
C828 C 0.93249 0.50775 0.67513 0.0
C829 C 0.90032 0.51508 0.57105 0.0
C830 C 0.9138 0.4973 0.72568 0.0
C831 C 0.88882 0.4955 0.69945 0.0
loop_
_geom_bond_atom_site_label_1
_geom_bond_atom_site_label_2
_geom_bond_distance
_geom_bond_site_symmetry_2
_ccdc_geom_bond_type
C0 C1 1.384 . S
C0 H13 0.947 . S
C0 C35 1.382 . S
C1 C0 1.384 . S
C1 C2 1.378 . S
C2 C1 1.378 . S
C2 C3 1.378 . S
C2 H14 0.952 . S
C3 C2 1.378 . S
C3 H15 0.950 . S
C3 C34 1.383 . S
H4 C23 0.947 . S
H5 C24 0.946 . S
H6 C26 0.953 . S
H7 C27 0.945 . S
H8 C29 0.952 . S
H9 C30 0.949 . S
H10 C32 0.950 . S
H11 C33 0.948 . S
H12 C35 0.951 . S
H13 C0 0.947 . S
H14 C2 0.952 . S
H15 C3 0.950 . S
N16 C19 1.382 . S
N16 C21 1.363 . S
N17 C19 1.371 . S
N17 C20 1.372 . S
N18 C20 1.361 . S
N18 C21 1.377 . S
C19 N16 1.382 . S
C19 N17 1.371 . S
C19 C22 1.480 . S
C20 N17 1.372 . S
C20 N18 1.361 . S
C20 C28 1.457 . S
C21 N16 1.363 . S
C21 N18 1.377 . S
C21 C34 1.479 . S
C22 C19 1.480 . S
C22 C23 1.383 . S
C22 C27 1.385 . S
C23 H4 0.947 . S
C23 C22 1.383 . S
C23 C24 1.388 . S
C24 H5 0.946 . S
C24 C23 1.388 . S
C24 C25 1.384 . S
C25 C24 1.384 . S
C25 C26 1.377 . S
C26 H6 0.953 . S
C26 C25 1.377 . S
C26 C27 1.369 . S
C27 H7 0.945 . S
C27 C22 1.385 . S
C27 C26 1.369 . S
C28 C20 1.457 . S
C28 C29 1.372 . S
C28 C33 1.364 . S
C29 H8 0.952 . S
C29 C28 1.372 . S
C29 C30 1.389 . S
C30 H9 0.949 . S
C30 C29 1.389 . S
C30 C31 1.387 . S
C31 C30 1.387 . S
C31 C32 1.372 . S
C32 H10 0.950 . S
C32 C31 1.372 . S
C32 C33 1.379 . S
C33 H11 0.948 . S
C33 C28 1.364 . S
C33 C32 1.379 . S
C34 C3 1.383 . S
C34 C21 1.479 . S
C34 C35 1.398 . S
C35 C0 1.382 . S
C35 H12 0.951 . S
C35 C34 1.398 . S
C36 C37 1.384 1_655 S
C36 H49 0.948 . S
C36 C71 1.382 1_655 S
C37 C36 1.384 1_455 S
C37 C38 1.378 . S
C38 C37 1.378 . S
C38 C39 1.378 . S
C38 H50 0.952 . S
C39 C38 1.378 . S
C39 H51 0.950 . S
C39 C70 1.383 . S
H40 C59 0.947 . S
H41 C60 0.952 . S
H42 C62 0.953 . S
H43 C63 0.945 . S
H44 C65 0.949 1_655 S
H45 C66 0.956 . S
H46 C68 0.950 . S
H47 C69 0.948 . S
H48 C71 0.951 1_655 S
H49 C36 0.948 . S
H50 C38 0.952 . S
H51 C39 0.950 . S
N52 C55 1.382 . S
N52 C57 1.363 . S
N53 C55 1.371 . S
N53 C56 1.372 . S
N54 C56 1.361 . S
N54 C57 1.377 . S
C55 N52 1.382 . S
C55 N53 1.371 . S
C55 C58 1.480 . S
C56 N53 1.372 . S
C56 N54 1.361 . S
C56 C64 1.457 . S
C57 N52 1.363 . S
C57 N54 1.377 . S
C57 C70 1.479 . S
C58 C55 1.480 . S
C58 C59 1.383 . S
C58 C63 1.385 . S
C59 H40 0.947 . S
C59 C58 1.383 . S
C59 C60 1.386 1_455 S
C60 H41 0.952 . S
C60 C59 1.386 1_655 S
C60 C61 1.381 1_655 S
C61 C60 1.381 1_455 S
C61 C62 1.377 . S
C62 H42 0.953 . S
C62 C61 1.377 . S
C62 C63 1.369 . S
C63 H43 0.945 . S
C63 C58 1.385 . S
C63 C62 1.369 . S
C64 C56 1.457 . S
C64 C65 1.376 . S
C64 C69 1.364 . S
C65 H44 0.949 1_455 S
C65 C64 1.376 . S
C65 C66 1.386 1_455 S
C66 H45 0.956 . S
C66 C65 1.386 1_655 S
C66 C67 1.383 1_655 S
C67 C66 1.383 1_455 S
C67 C68 1.372 . S
C68 H46 0.950 . S
C68 C67 1.372 . S
C68 C69 1.379 . S
C69 H47 0.948 . S
C69 C64 1.364 . S
C69 C68 1.379 . S
C70 C39 1.383 . S
C70 C57 1.479 . S
C70 C71 1.398 . S
C71 C36 1.382 1_455 S
C71 H48 0.951 1_455 S
C71 C70 1.398 . S
C72 C73 1.384 1_565 S
C72 H85 0.948 . S
C72 C107 1.382 1_565 S
C73 C72 1.384 1_545 S
C73 C74 1.378 . S
C74 C73 1.378 . S
C74 C75 1.378 . S
C74 H86 0.952 . S
C75 C74 1.378 . S
C75 H87 0.950 . S
C75 C106 1.383 . S
H76 C95 0.947 . S
H77 C96 0.952 . S
H78 C98 0.953 . S
H79 C99 0.945 . S
H80 C101 0.949 1_565 S
H81 C102 0.957 . S
H82 C104 0.950 . S
H83 C105 0.948 . S
H84 C107 0.951 1_565 S
H85 C72 0.948 . S
H86 C74 0.952 . S
H87 C75 0.950 . S
N88 C91 1.382 . S
N88 C93 1.363 . S
N89 C91 1.371 . S
N89 C92 1.372 . S
N90 C92 1.361 . S
N90 C93 1.377 . S
C91 N88 1.382 . S
C91 N89 1.371 . S
C91 C94 1.480 . S
C92 N89 1.372 . S
C92 N90 1.361 . S
C92 C100 1.457 . S
C93 N88 1.363 . S
C93 N90 1.377 . S
C93 C106 1.479 . S
C94 C91 1.480 . S
C94 C95 1.383 . S
C94 C99 1.385 . S
C95 H76 0.947 . S
C95 C94 1.383 . S
C95 C96 1.386 1_545 S
C96 H77 0.952 . S
C96 C95 1.386 1_565 S
C96 C97 1.382 1_565 S
C97 C96 1.382 1_545 S
C97 C98 1.377 . S
C98 H78 0.953 . S
C98 C97 1.377 . S
C98 C99 1.369 . S
C99 H79 0.945 . S
C99 C94 1.385 . S
C99 C98 1.369 . S
C100 C92 1.457 . S
C100 C101 1.377 . S
C100 C105 1.364 . S
C101 H80 0.949 1_545 S
C101 C100 1.377 . S
C101 C102 1.386 1_545 S
C102 H81 0.957 . S
C102 C101 1.386 1_565 S
C102 C103 1.383 1_565 S
C103 C102 1.383 1_545 S
C103 C104 1.372 . S
C104 H82 0.950 . S
C104 C103 1.372 . S
C104 C105 1.379 . S
C105 H83 0.948 . S
C105 C100 1.364 . S
C105 C104 1.379 . S
C106 C75 1.383 . S
C106 C93 1.479 . S
C106 C107 1.398 . S
C107 C72 1.382 1_545 S
C107 H84 0.951 1_545 S
C107 C106 1.398 . S
C108 C109 1.384 . S
C108 H121 0.947 . S
C108 C143 1.382 . S
C109 C108 1.384 . S
C109 C110 1.378 . S
C110 C109 1.378 . S
C110 C111 1.378 . S
C110 H122 0.952 . S
C111 C110 1.378 . S
C111 H123 0.950 . S
C111 C142 1.383 . S
H112 C131 0.947 . S
H113 C132 0.946 . S
H114 C134 0.953 . S
H115 C135 0.945 . S
H116 C137 0.952 . S
H117 C138 0.949 . S
H118 C140 0.950 . S
H119 C141 0.948 . S
H120 C143 0.951 . S
H121 C108 0.947 . S
H122 C110 0.952 . S
H123 C111 0.950 . S
N124 C127 1.382 . S
N124 C129 1.363 . S
N125 C127 1.371 . S
N125 C128 1.372 . S
N126 C128 1.361 . S
N126 C129 1.377 . S
C127 N124 1.382 . S
C127 N125 1.371 . S
C127 C130 1.480 . S
C128 N125 1.372 . S
C128 N126 1.361 . S
C128 C136 1.457 . S
C129 N124 1.363 . S
C129 N126 1.377 . S
C129 C142 1.479 . S
C130 C127 1.480 . S
C130 C131 1.383 . S
C130 C135 1.385 . S
C131 H112 0.947 . S
C131 C130 1.383 . S
C131 C132 1.388 . S
C132 H113 0.946 . S
C132 C131 1.388 . S
C132 C133 1.384 . S
C133 C132 1.384 . S
C133 C134 1.377 . S
C134 H114 0.953 . S
C134 C133 1.377 . S
C134 C135 1.369 . S
C135 H115 0.945 . S
C135 C130 1.385 . S
C135 C134 1.369 . S
C136 C128 1.457 . S
C136 C137 1.372 . S
C136 C141 1.364 . S
C137 H116 0.952 . S
C137 C136 1.372 . S
C137 C138 1.389 . S
C138 H117 0.949 . S
C138 C137 1.389 . S
C138 C139 1.387 . S
C139 C138 1.387 . S
C139 C140 1.372 . S
C140 H118 0.950 . S
C140 C139 1.372 . S
C140 C141 1.379 . S
C141 H119 0.948 . S
C141 C136 1.364 . S
C141 C140 1.379 . S
C142 C111 1.383 . S
C142 C129 1.479 . S
C142 C143 1.398 . S
C143 C108 1.382 . S
C143 H120 0.951 . S
C143 C142 1.398 . S
C144 C145 1.384 . S
C144 H157 0.947 . S
C144 C179 1.382 . S
C145 C144 1.384 . S
C145 C146 1.378 . S
C146 C145 1.378 . S
C146 C147 1.378 . S
C146 H158 0.952 . S
C147 C146 1.378 . S
C147 H159 0.950 . S
C147 C178 1.383 . S
H148 C167 0.947 1_556 S
H149 C168 0.946 . S
H150 C170 0.953 . S
H151 C171 0.945 . S
H152 C173 0.952 . S
H153 C174 0.949 . S
H154 C176 0.950 . S
H155 C177 0.948 . S
H156 C179 0.951 . S
H157 C144 0.947 . S
H158 C146 0.952 . S
H159 C147 0.950 . S
N160 C163 1.382 1_556 S
N160 C165 1.363 . S
N161 C163 1.371 . S
N161 C164 1.372 . S
N162 C164 1.361 . S
N162 C165 1.377 1_554 S
C163 N160 1.382 1_554 S
C163 N161 1.371 . S
C163 C166 1.480 . S
C164 N161 1.372 . S
C164 N162 1.361 . S
C164 C172 1.457 . S
C165 N160 1.363 . S
C165 N162 1.377 1_556 S
C165 C178 1.479 . S
C166 C163 1.480 . S
C166 C167 1.383 . S
C166 C171 1.385 . S
C167 H148 0.947 1_554 S
C167 C166 1.383 . S
C167 C168 1.388 . S
C168 H149 0.946 . S
C168 C167 1.388 . S
C168 C169 1.384 . S
C169 C168 1.384 . S
C169 C170 1.377 . S
C170 H150 0.953 . S
C170 C169 1.377 . S
C170 C171 1.369 . S
C171 H151 0.945 . S
C171 C166 1.385 . S
C171 C170 1.369 . S
C172 C164 1.457 . S
C172 C173 1.372 . S
C172 C177 1.364 . S
C173 H152 0.952 . S
C173 C172 1.372 . S
C173 C174 1.389 . S
C174 H153 0.949 . S
C174 C173 1.389 . S
C174 C175 1.387 . S
C175 C174 1.387 . S
C175 C176 1.372 . S
C176 H154 0.950 . S
C176 C175 1.372 . S
C176 C177 1.379 . S
C177 H155 0.948 . S
C177 C172 1.364 . S
C177 C176 1.379 . S
C178 C147 1.383 . S
C178 C165 1.479 . S
C178 C179 1.398 . S
C179 C144 1.382 . S
C179 H156 0.951 . S
C179 C178 1.398 . S
C180 C181 1.384 . S
C180 H193 0.948 1_455 S
C180 C215 1.382 . S
C181 C180 1.384 . S
C181 C182 1.378 . S
C182 C181 1.378 . S
C182 C183 1.378 . S
C182 H194 0.952 . S
C183 C182 1.378 . S
C183 H195 0.950 . S
C183 C214 1.383 . S
H184 C203 0.947 1_556 S
H185 C204 0.949 . S
H186 C206 0.953 . S
H187 C207 0.945 . S
H188 C209 0.947 1_655 S
H189 C210 0.954 . S
H190 C212 0.950 . S
H191 C213 0.948 . S
H192 C215 0.950 1_655 S
H193 C180 0.948 1_655 S
H194 C182 0.952 . S
H195 C183 0.950 . S
N196 C199 1.382 1_556 S
N196 C201 1.363 . S
N197 C199 1.371 . S
N197 C200 1.372 . S
N198 C200 1.361 . S
N198 C201 1.377 1_554 S
C199 N196 1.382 1_554 S
C199 N197 1.371 . S
C199 C202 1.480 . S
C200 N197 1.372 . S
C200 N198 1.361 . S
C200 C208 1.457 . S
C201 N196 1.363 . S
C201 N198 1.377 1_556 S
C201 C214 1.479 . S
C202 C199 1.480 . S
C202 C203 1.383 . S
C202 C207 1.385 . S
C203 H184 0.947 1_554 S
C203 C202 1.383 . S
C203 C204 1.387 1_455 S
C204 H185 0.949 . S
C204 C203 1.387 1_655 S
C204 C205 1.382 1_655 S
C205 C204 1.382 1_455 S
C205 C206 1.377 . S
C206 H186 0.953 . S
C206 C205 1.377 . S
C206 C207 1.369 . S
C207 H187 0.945 . S
C207 C202 1.385 . S
C207 C206 1.369 . S
C208 C200 1.457 . S
C208 C209 1.379 . S
C208 C213 1.364 . S
C209 H188 0.947 1_455 S
C209 C208 1.379 . S
C209 C210 1.387 1_455 S
C210 H189 0.954 . S
C210 C209 1.387 1_655 S
C210 C211 1.384 1_655 S
C211 C210 1.384 1_455 S
C211 C212 1.372 . S
C212 H190 0.950 . S
C212 C211 1.372 . S
C212 C213 1.379 . S
C213 H191 0.948 . S
C213 C208 1.364 . S
C213 C212 1.379 . S
C214 C183 1.383 . S
C214 C201 1.479 . S
C214 C215 1.399 . S
C215 C180 1.382 . S
C215 H192 0.950 1_455 S
C215 C214 1.399 . S
C216 C217 1.384 . S
C216 H229 0.948 1_545 S
C216 C251 1.382 . S
C217 C216 1.384 . S
C217 C218 1.378 . S
C218 C217 1.378 . S
C218 C219 1.378 . S
C218 H230 0.952 . S
C219 C218 1.378 . S
C219 H231 0.950 . S
C219 C250 1.383 . S
H220 C239 0.947 1_556 S
H221 C240 0.949 . S
H222 C242 0.953 . S
H223 C243 0.945 . S
H224 C245 0.947 1_565 S
H225 C246 0.954 . S
H226 C248 0.950 . S
H227 C249 0.948 . S
H228 C251 0.950 1_565 S
H229 C216 0.948 1_565 S
H230 C218 0.952 . S
H231 C219 0.950 . S
N232 C235 1.382 1_556 S
N232 C237 1.363 . S
N233 C235 1.371 . S
N233 C236 1.372 . S
N234 C236 1.361 . S
N234 C237 1.377 1_554 S
C235 N232 1.382 1_554 S
C235 N233 1.371 . S
C235 C238 1.480 . S
C236 N233 1.372 . S
C236 N234 1.361 . S
C236 C244 1.457 . S
C237 N232 1.363 . S
C237 N234 1.377 1_556 S
C237 C250 1.479 . S
C238 C235 1.480 . S
C238 C239 1.383 . S
C238 C243 1.385 . S
C239 H220 0.947 1_554 S
C239 C238 1.383 . S
C239 C240 1.387 1_545 S
C240 H221 0.949 . S
C240 C239 1.387 1_565 S
C240 C241 1.382 1_565 S
C241 C240 1.382 1_545 S
C241 C242 1.377 . S
C242 H222 0.953 . S
C242 C241 1.377 . S
C242 C243 1.369 . S
C243 H223 0.945 . S
C243 C238 1.385 . S
C243 C242 1.369 . S
C244 C236 1.457 . S
C244 C245 1.379 . S
C244 C249 1.364 . S
C245 H224 0.947 1_545 S
C245 C244 1.379 . S
C245 C246 1.387 1_545 S
C246 H225 0.954 . S
C246 C245 1.387 1_565 S
C246 C247 1.384 1_565 S
C247 C246 1.384 1_545 S
C247 C248 1.372 . S
C248 H226 0.950 . S
C248 C247 1.372 . S
C248 C249 1.379 . S
C249 H227 0.948 . S
C249 C244 1.364 . S
C249 C248 1.379 . S
C250 C219 1.383 . S
C250 C237 1.479 . S
C250 C251 1.399 . S
C251 C216 1.382 . S
C251 H228 0.950 1_545 S
C251 C250 1.399 . S
C252 C253 1.384 . S
C252 H265 0.947 . S
C252 C287 1.382 . S
C253 C252 1.384 . S
C253 C254 1.378 . S
C254 C253 1.378 . S
C254 C255 1.378 . S
C254 H266 0.952 . S
C255 C254 1.378 . S
C255 H267 0.950 . S
C255 C286 1.383 . S
H256 C275 0.947 . S
H257 C276 0.946 . S
H258 C278 0.953 1_556 S
H259 C279 0.945 1_556 S
H260 C281 0.952 . S
H261 C282 0.949 . S
H262 C284 0.950 . S
H263 C285 0.948 . S
H264 C287 0.951 . S
H265 C252 0.947 . S
H266 C254 0.952 . S
H267 C255 0.950 . S
N268 C271 1.382 . S
N268 C273 1.363 . S
N269 C271 1.371 1_556 S
N269 C272 1.372 . S
N270 C272 1.361 1_554 S
N270 C273 1.377 . S
C271 N268 1.382 . S
C271 N269 1.371 1_554 S
C271 C274 1.480 . S
C272 N269 1.372 . S
C272 N270 1.361 1_556 S
C272 C280 1.457 . S
C273 N268 1.363 . S
C273 N270 1.377 . S
C273 C286 1.479 . S
C274 C271 1.480 . S
C274 C275 1.383 . S
C274 C279 1.385 . S
C275 H256 0.947 . S
C275 C274 1.383 . S
C275 C276 1.388 . S
C276 H257 0.946 . S
C276 C275 1.388 . S
C276 C277 1.384 . S
C277 C276 1.384 . S
C277 C278 1.377 . S
C278 H258 0.953 1_554 S
C278 C277 1.377 . S
C278 C279 1.369 . S
C279 H259 0.945 1_554 S
C279 C274 1.385 . S
C279 C278 1.369 . S
C280 C272 1.457 . S
C280 C281 1.372 . S
C280 C285 1.364 . S
C281 H260 0.952 . S
C281 C280 1.372 . S
C281 C282 1.389 . S
C282 H261 0.949 . S
C282 C281 1.389 . S
C282 C283 1.387 . S
C283 C282 1.387 . S
C283 C284 1.372 . S
C284 H262 0.950 . S
C284 C283 1.372 . S
C284 C285 1.379 . S
C285 H263 0.948 . S
C285 C280 1.364 . S
C285 C284 1.379 . S
C286 C255 1.383 . S
C286 C273 1.479 . S
C286 C287 1.398 . S
C287 C252 1.382 . S
C287 H264 0.951 . S
C287 C286 1.398 . S
Sm288 C290 2.846 . S
Sm288 O308 2.543 . S
Sm288 O309 2.450 . S
Sm288 O310 2.681 1_565 S
Sm288 O311 2.464 . S
Sm288 O312 2.396 . S
Sm288 O316 2.386 1_455 S
Sm288 O319 2.408 1_565 S
Sm289 C299 2.846 . S
Sm289 O310 2.386 1_655 S
Sm289 O313 2.408 1_545 S
Sm289 O314 2.543 . S
Sm289 O315 2.450 . S
Sm289 O316 2.681 1_545 S
Sm289 O317 2.464 . S
Sm289 O318 2.396 . S
C290 Sm288 2.846 . S
C290 C291 1.506 . S
C290 O308 1.261 . S
C290 O309 1.242 . S
C291 C290 1.506 . S
C291 C292 1.358 . S
C291 C296 1.382 . S
C292 C291 1.358 . S
C292 C293 1.385 . S
C292 H320 0.930 1_455 S
C293 C292 1.385 . S
C293 C294 1.395 . S
C293 H321 0.959 1_556 S
C294 C293 1.395 . S
C294 C295 1.335 . S
C295 C294 1.335 . S
C295 C296 1.398 . S
C295 H322 0.930 . S
C296 C291 1.382 . S
C296 C295 1.398 . S
C296 H323 0.929 . S
C297 O310 1.271 1_565 S
C297 O311 1.251 . S
C298 O312 1.252 1_655 S
C298 O313 1.272 . S
C299 Sm289 2.846 . S
C299 C300 1.506 . S
C299 O314 1.261 . S
C299 O315 1.242 . S
C300 C299 1.506 . S
C300 C301 1.358 . S
C300 C305 1.382 . S
C301 C300 1.358 . S
C301 C302 1.385 . S
C301 H324 0.930 1_655 S
C302 C301 1.385 . S
C302 C303 1.395 . S
C302 H325 0.950 . S
C303 C302 1.395 . S
C303 C304 1.335 . S
C304 C303 1.335 . S
C304 C305 1.398 . S
C304 H326 0.930 . S
C305 C300 1.382 . S
C305 C304 1.398 . S
C305 H327 0.929 . S
C306 O316 1.271 1_545 S
C306 O317 1.251 . S
C307 O318 1.252 1_455 S
C307 O319 1.272 . S
O308 Sm288 2.543 . S
O308 C290 1.261 . S
O309 Sm288 2.450 . S
O309 C290 1.242 . S
O310 Sm288 2.681 1_545 S
O310 Sm289 2.386 1_455 S
O310 C297 1.271 1_545 S
O311 Sm288 2.464 . S
O311 C297 1.251 . S
O312 Sm288 2.396 . S
O312 C298 1.252 1_455 S
O313 Sm289 2.408 1_565 S
O313 C298 1.272 . S
O314 Sm289 2.543 . S
O314 C299 1.261 . S
O315 Sm289 2.450 . S
O315 C299 1.242 . S
O316 Sm288 2.386 1_655 S
O316 Sm289 2.681 1_565 S
O316 C306 1.271 1_565 S
O317 Sm289 2.464 . S
O317 C306 1.251 . S
O318 Sm289 2.396 . S
O318 C307 1.252 1_655 S
O319 Sm288 2.408 1_545 S
O319 C307 1.272 . S
H320 C292 0.930 1_655 S
H321 C293 0.959 1_554 S
H322 C295 0.930 . S
H323 C296 0.929 . S
H324 C301 0.930 1_455 S
H325 C302 0.950 . S
H326 C304 0.930 . S
H327 C305 0.929 . S
Sm328 C330 2.846 . S
Sm328 O348 2.543 . S
Sm328 O349 2.450 . S
Sm328 O350 2.681 . S
Sm328 O351 2.464 . S
Sm328 O352 2.396 . S
Sm328 O356 2.386 1_545 S
Sm328 O359 2.408 . S
Sm329 C339 2.846 . S
Sm329 O350 2.386 1_565 S
Sm329 O353 2.408 . S
Sm329 O354 2.543 . S
Sm329 O355 2.450 . S
Sm329 O356 2.681 . S
Sm329 O357 2.464 . S
Sm329 O358 2.396 . S
C330 Sm328 2.846 . S
C330 C331 1.506 . S
C330 O348 1.261 . S
C330 O349 1.242 . S
C331 C330 1.506 . S
C331 C332 1.358 . S
C331 C336 1.382 . S
C332 C331 1.358 . S
C332 C333 1.385 . S
C332 H360 0.930 1_545 S
C333 C332 1.385 . S
C333 C334 1.395 . S
C333 H361 0.928 1_546 S
C334 C333 1.395 . S
C334 C335 1.335 . S
C335 C334 1.335 . S
C335 C336 1.398 . S
C335 H362 0.930 . S
C336 C331 1.382 . S
C336 C335 1.398 . S
C336 H363 0.929 . S
C337 O350 1.271 . S
C337 O351 1.251 . S
C338 O352 1.252 1_565 S
C338 O353 1.272 . S
C339 Sm329 2.846 . S
C339 C340 1.506 . S
C339 O354 1.261 . S
C339 O355 1.242 . S
C340 C339 1.506 . S
C340 C341 1.358 . S
C340 C345 1.382 . S
C341 C340 1.358 . S
C341 C342 1.385 . S
C341 H364 0.930 1_565 S
C342 C341 1.385 . S
C342 C343 1.395 . S
C342 H365 0.919 1_565 S
C343 C342 1.395 . S
C343 C344 1.335 . S
C344 C343 1.335 . S
C344 C345 1.398 . S
C344 H366 0.930 . S
C345 C340 1.382 . S
C345 C344 1.398 . S
C345 H367 0.929 . S
C346 O356 1.271 . S
C346 O357 1.251 . S
C347 O358 1.252 1_545 S
C347 O359 1.272 . S
O348 Sm328 2.543 . S
O348 C330 1.261 . S
O349 Sm328 2.450 . S
O349 C330 1.242 . S
O350 Sm328 2.681 . S
O350 Sm329 2.386 1_545 S
O350 C337 1.271 . S
O351 Sm328 2.464 . S
O351 C337 1.251 . S
O352 Sm328 2.396 . S
O352 C338 1.252 1_545 S
O353 Sm329 2.408 . S
O353 C338 1.272 . S
O354 Sm329 2.543 . S
O354 C339 1.261 . S
O355 Sm329 2.450 . S
O355 C339 1.242 . S
O356 Sm328 2.386 1_565 S
O356 Sm329 2.681 . S
O356 C346 1.271 . S
O357 Sm329 2.464 . S
O357 C346 1.251 . S
O358 Sm329 2.396 . S
O358 C347 1.252 1_565 S
O359 Sm328 2.408 . S
O359 C347 1.272 . S
H360 C332 0.930 1_565 S
H361 C333 0.928 1_564 S
H362 C335 0.930 . S
H363 C336 0.929 . S
H364 C341 0.930 1_545 S
H365 C342 0.919 1_545 S
H366 C344 0.930 . S
H367 C345 0.929 . S
Sm368 C370 2.846 . S
Sm368 O388 2.543 . S
Sm368 O389 2.450 . S
Sm368 O390 2.681 . S
Sm368 O391 2.464 . S
Sm368 O392 2.396 . S
Sm368 O396 2.386 . S
Sm368 O399 2.408 . S
Sm369 C379 2.846 . S
Sm369 O390 2.386 . S
Sm369 O393 2.408 . S
Sm369 O394 2.543 . S
Sm369 O395 2.450 . S
Sm369 O396 2.681 . S
Sm369 O397 2.464 . S
Sm369 O398 2.396 . S
C370 Sm368 2.846 . S
C370 C371 1.506 . S
C370 O388 1.261 . S
C370 O389 1.242 . S
C371 C370 1.506 . S
C371 C372 1.358 . S
C371 C376 1.382 . S
C372 C371 1.358 . S
C372 C373 1.385 . S
C372 H400 0.930 . S
C373 C372 1.385 . S
C373 C374 1.395 . S
C373 H401 0.929 1_556 S
C374 C373 1.395 . S
C374 C375 1.335 . S
C375 C374 1.335 . S
C375 C376 1.398 . S
C375 H402 0.930 . S
C376 C371 1.382 . S
C376 C375 1.398 . S
C376 H403 0.929 . S
C377 O390 1.271 . S
C377 O391 1.251 . S
C378 O392 1.252 . S
C378 O393 1.272 . S
C379 Sm369 2.846 . S
C379 C380 1.506 . S
C379 O394 1.261 . S
C379 O395 1.242 . S
C380 C379 1.506 . S
C380 C381 1.358 . S
C380 C385 1.382 . S
C381 C380 1.358 . S
C381 C382 1.385 . S
C381 H404 0.930 . S
C382 C381 1.385 . S
C382 C383 1.395 . S
C382 H405 0.929 . S
C383 C382 1.395 . S
C383 C384 1.335 . S
C384 C383 1.335 . S
C384 C385 1.398 . S
C384 H406 0.930 . S
C385 C380 1.382 . S
C385 C384 1.398 . S
C385 H407 0.929 . S
C386 O396 1.271 . S
C386 O397 1.251 . S
C387 O398 1.252 . S
C387 O399 1.272 . S
O388 Sm368 2.543 . S
O388 C370 1.261 . S
O389 Sm368 2.450 . S
O389 C370 1.242 . S
O390 Sm368 2.681 . S
O390 Sm369 2.386 . S
O390 C377 1.271 . S
O391 Sm368 2.464 . S
O391 C377 1.251 . S
O392 Sm368 2.396 . S
O392 C378 1.252 . S
O393 Sm369 2.408 . S
O393 C378 1.272 . S
O394 Sm369 2.543 . S
O394 C379 1.261 . S
O395 Sm369 2.450 . S
O395 C379 1.242 . S
O396 Sm368 2.386 . S
O396 Sm369 2.681 . S
O396 C386 1.271 . S
O397 Sm369 2.464 . S
O397 C386 1.251 . S
O398 Sm369 2.396 . S
O398 C387 1.252 . S
O399 Sm368 2.408 . S
O399 C387 1.272 . S
H400 C372 0.930 . S
H401 C373 0.929 1_554 S
H402 C375 0.930 . S
H403 C376 0.929 . S
H404 C381 0.930 . S
H405 C382 0.929 . S
H406 C384 0.930 . S
H407 C385 0.929 . S
Sm408 C410 2.846 . S
Sm408 O428 2.543 . S
Sm408 O429 2.450 . S
Sm408 O430 2.681 1_655 S
Sm408 O431 2.464 . S
Sm408 O432 2.396 . S
Sm408 O436 2.386 . S
Sm408 O439 2.408 1_655 S
Sm409 C419 2.846 . S
Sm409 O430 2.386 . S
Sm409 O433 2.408 1_455 S
Sm409 O434 2.543 . S
Sm409 O435 2.450 . S
Sm409 O436 2.681 1_455 S
Sm409 O437 2.464 . S
Sm409 O438 2.396 . S
C410 Sm408 2.846 . S
C410 C411 1.506 . S
C410 O428 1.261 . S
C410 O429 1.242 . S
C411 C410 1.506 . S
C411 C412 1.358 . S
C411 C416 1.382 . S
C412 C411 1.358 . S
C412 C413 1.385 . S
C412 H440 0.930 . S
C413 C412 1.385 . S
C413 C414 1.395 . S
C413 H441 0.929 1_556 S
C414 C413 1.395 . S
C414 C415 1.335 . S
C415 C414 1.335 . S
C415 C416 1.398 . S
C415 H442 0.930 . S
C416 C411 1.382 . S
C416 C415 1.398 . S
C416 H443 0.929 . S
C417 O430 1.264 1_655 S
C417 O431 1.264 . S
C418 O432 1.252 . S
C418 O433 1.272 . S
C419 Sm409 2.846 . S
C419 C420 1.506 . S
C419 O434 1.261 . S
C419 O435 1.242 . S
C420 C419 1.506 . S
C420 C421 1.358 . S
C420 C425 1.382 . S
C421 C420 1.358 . S
C421 C422 1.385 . S
C421 H444 0.930 . S
C422 C421 1.385 . S
C422 C423 1.395 . S
C422 H445 0.929 . S
C423 C422 1.395 . S
C423 C424 1.335 . S
C424 C423 1.335 . S
C424 C425 1.398 . S
C424 H446 0.930 . S
C425 C420 1.382 . S
C425 C424 1.398 . S
C425 H447 0.929 . S
C426 O436 1.261 1_455 S
C426 O437 1.269 . S
C427 O438 1.252 . S
C427 O439 1.272 . S
O428 Sm408 2.543 . S
O428 C410 1.261 . S
O429 Sm408 2.450 . S
O429 C410 1.242 . S
O430 Sm408 2.681 1_455 S
O430 Sm409 2.386 . S
O430 C417 1.264 1_455 S
O431 Sm408 2.464 . S
O431 C417 1.264 . S
O432 Sm408 2.396 . S
O432 C418 1.252 . S
O433 Sm409 2.408 1_655 S
O433 C418 1.272 . S
O434 Sm409 2.543 . S
O434 C419 1.261 . S
O435 Sm409 2.450 . S
O435 C419 1.242 . S
O436 Sm408 2.386 . S
O436 Sm409 2.681 1_655 S
O436 C426 1.261 1_655 S
O437 Sm409 2.464 . S
O437 C426 1.269 . S
O438 Sm409 2.396 . S
O438 C427 1.252 . S
O439 Sm408 2.408 1_455 S
O439 C427 1.272 . S
H440 C412 0.930 . S
H441 C413 0.929 1_554 S
H442 C415 0.930 . S
H443 C416 0.929 . S
H444 C421 0.930 . S
H445 C422 0.929 . S
H446 C424 0.930 . S
H447 C425 0.929 . S
H448 C454 0.930 . S
H449 C457 0.930 . S
H450 C458 0.930 . S
H451 C459 0.930 . S
H452 C462 0.930 . S
H453 C463 0.930 . S
C454 H448 0.930 . S
C454 C455 1.355 1_545 S
C454 C456 1.415 . S
C455 C454 1.355 1_565 S
C455 C457 1.419 . S
C456 C454 1.415 . S
C456 C461 1.425 1_545 S
C456 C463 1.409 . S
C457 H449 0.930 . S
C457 C455 1.419 . S
C457 C458 1.362 . S
C458 H450 0.930 . S
C458 C457 1.362 . S
C458 C461 1.409 . S
C459 H451 0.930 . S
C459 C460 1.355 1_565 S
C459 C461 1.415 . S
C460 C459 1.355 1_545 S
C460 C462 1.419 . S
C461 C456 1.425 1_565 S
C461 C458 1.409 . S
C461 C459 1.415 . S
C462 H452 0.930 . S
C462 C460 1.419 . S
C462 C463 1.362 . S
C463 H453 0.930 . S
C463 C456 1.409 . S
C463 C462 1.362 . S
H464 C470 0.930 . S
H465 C473 0.930 . S
H466 C474 0.930 . S
H467 C475 0.930 . S
H468 C478 0.930 . S
H469 C479 0.930 . S
C470 H464 0.930 . S
C470 C471 1.355 . S
C470 C472 1.415 . S
C471 C470 1.355 . S
C471 C473 1.419 . S
C472 C470 1.415 . S
C472 C477 1.425 . S
C472 C479 1.409 . S
C473 H465 0.930 . S
C473 C471 1.419 . S
C473 C474 1.362 . S
C474 H466 0.930 . S
C474 C473 1.362 . S
C474 C477 1.409 . S
C475 H467 0.930 . S
C475 C476 1.355 . S
C475 C477 1.415 . S
C476 C475 1.355 . S
C476 C478 1.419 . S
C477 C472 1.425 . S
C477 C474 1.409 . S
C477 C475 1.415 . S
C478 H468 0.930 . S
C478 C476 1.419 . S
C478 C479 1.362 . S
C479 H469 0.930 . S
C479 C472 1.409 . S
C479 C478 1.362 . S
H480 C486 0.930 . S
H481 C489 0.930 . S
H482 C490 0.930 . S
H483 C491 0.930 . S
H484 C494 0.930 . S
H485 C495 0.930 . S
C486 H480 0.930 . S
C486 C487 1.355 . S
C486 C488 1.415 . S
C487 C486 1.355 . S
C487 C489 1.419 . S
C488 C486 1.415 . S
C488 C493 1.425 . S
C488 C495 1.409 . S
C489 H481 0.930 . S
C489 C487 1.419 . S
C489 C490 1.362 . S
C490 H482 0.930 . S
C490 C489 1.362 . S
C490 C493 1.409 . S
C491 H483 0.930 . S
C491 C492 1.355 . S
C491 C493 1.415 . S
C492 C491 1.355 . S
C492 C494 1.419 . S
C493 C488 1.425 . S
C493 C490 1.409 . S
C493 C491 1.415 . S
C494 H484 0.930 . S
C494 C492 1.419 . S
C494 C495 1.362 . S
C495 H485 0.930 . S
C495 C488 1.409 . S
C495 C494 1.362 . S
H496 C502 0.930 . S
H497 C505 0.930 . S
H498 C506 0.930 . S
H499 C507 0.930 . S
H500 C510 0.930 . S
H501 C511 0.930 . S
C502 H496 0.930 . S
C502 C503 1.355 1_455 S
C502 C504 1.415 . S
C503 C502 1.355 1_655 S
C503 C505 1.419 . S
C504 C502 1.415 . S
C504 C509 1.425 1_455 S
C504 C511 1.409 . S
C505 H497 0.930 . S
C505 C503 1.419 . S
C505 C506 1.362 . S
C506 H498 0.930 . S
C506 C505 1.362 . S
C506 C509 1.409 . S
C507 H499 0.930 . S
C507 C508 1.355 1_655 S
C507 C509 1.415 . S
C508 C507 1.355 1_455 S
C508 C510 1.419 . S
C509 C504 1.425 1_655 S
C509 C506 1.409 . S
C509 C507 1.415 . S
C510 H500 0.930 . S
C510 C508 1.419 . S
C510 C511 1.362 . S
C511 H501 0.930 . S
C511 C504 1.409 . S
C511 C510 1.362 . S
H512 C518 0.930 . S
H513 C521 0.930 . S
H514 C522 0.930 . S
H515 C523 0.930 . S
H516 C526 0.930 . S
H517 C527 0.930 . S
C518 H512 0.930 . S
C518 C519 1.355 1_545 S
C518 C520 1.415 . S
C519 C518 1.355 1_565 S
C519 C521 1.419 . S
C520 C518 1.415 . S
C520 C525 1.425 1_545 S
C520 C527 1.409 . S
C521 H513 0.930 . S
C521 C519 1.419 . S
C521 C522 1.362 . S
C522 H514 0.930 . S
C522 C521 1.362 . S
C522 C525 1.409 . S
C523 H515 0.930 . S
C523 C524 1.355 1_565 S
C523 C525 1.415 1_556 S
C524 C523 1.355 1_545 S
C524 C526 1.419 . S
C525 C520 1.425 1_565 S
C525 C522 1.409 . S
C525 C523 1.415 1_554 S
C526 H516 0.930 . S
C526 C524 1.419 . S
C526 C527 1.362 1_556 S
C527 H517 0.930 . S
C527 C520 1.409 . S
C527 C526 1.362 1_554 S
H528 C534 0.930 . S
H529 C537 0.930 . S
H530 C538 0.930 . S
H531 C539 0.930 . S
H532 C542 0.930 . S
H533 C543 0.930 . S
C534 H528 0.930 . S
C534 C535 1.355 . S
C534 C536 1.415 . S
C535 C534 1.355 . S
C535 C537 1.419 . S
C536 C534 1.415 . S
C536 C541 1.425 . S
C536 C543 1.409 . S
C537 H529 0.930 . S
C537 C535 1.419 . S
C537 C538 1.362 . S
C538 H530 0.930 . S
C538 C537 1.362 . S
C538 C541 1.409 . S
C539 H531 0.930 . S
C539 C540 1.355 . S
C539 C541 1.415 1_556 S
C540 C539 1.355 . S
C540 C542 1.419 . S
C541 C536 1.425 . S
C541 C538 1.409 . S
C541 C539 1.415 1_554 S
C542 H532 0.930 . S
C542 C540 1.419 . S
C542 C543 1.362 1_556 S
C543 H533 0.930 . S
C543 C536 1.409 . S
C543 C542 1.362 1_554 S
H544 C550 0.930 . S
H545 C553 0.930 . S
H546 C554 0.930 . S
H547 C555 0.930 . S
H548 C558 0.930 . S
H549 C559 0.930 1_554 S
C550 H544 0.930 . S
C550 C551 1.355 . S
C550 C552 1.415 . S
C551 C550 1.355 . S
C551 C553 1.419 . S
C552 C550 1.415 . S
C552 C557 1.425 . S
C552 C559 1.409 1_554 S
C553 H545 0.930 . S
C553 C551 1.419 . S
C553 C554 1.362 . S
C554 H546 0.930 . S
C554 C553 1.362 . S
C554 C557 1.409 . S
C555 H547 0.930 . S
C555 C556 1.355 . S
C555 C557 1.415 1_556 S
C556 C555 1.355 . S
C556 C558 1.419 . S
C557 C552 1.425 . S
C557 C554 1.409 . S
C557 C555 1.415 1_554 S
C558 H548 0.930 . S
C558 C556 1.419 . S
C558 C559 1.362 . S
C559 H549 0.930 1_556 S
C559 C552 1.409 1_556 S
C559 C558 1.362 . S
H560 C566 0.930 . S
H561 C569 0.930 . S
H562 C570 0.930 . S
H563 C571 0.930 . S
H564 C574 0.930 . S
H565 C575 0.930 . S
C566 H560 0.930 . S
C566 C567 1.355 1_655 S
C566 C568 1.415 . S
C567 C566 1.355 1_455 S
C567 C569 1.419 . S
C568 C566 1.415 . S
C568 C573 1.425 1_655 S
C568 C575 1.409 . S
C569 H561 0.930 . S
C569 C567 1.419 . S
C569 C570 1.362 . S
C570 H562 0.930 . S
C570 C569 1.362 . S
C570 C573 1.409 . S
C571 H563 0.930 . S
C571 C572 1.355 1_455 S
C571 C573 1.415 1_556 S
C572 C571 1.355 1_655 S
C572 C574 1.419 . S
C573 C568 1.425 1_455 S
C573 C570 1.409 . S
C573 C571 1.415 1_554 S
C574 H564 0.930 . S
C574 C572 1.419 . S
C574 C575 1.362 1_556 S
C575 H565 0.930 . S
C575 C568 1.409 . S
C575 C574 1.362 1_554 S
H576 C582 0.930 . S
H577 C585 0.930 . S
H578 C586 0.930 . S
H579 C587 0.930 . S
H580 C590 0.930 . S
H581 C591 0.930 . S
C582 H576 0.930 . S
C582 C583 1.355 . S
C582 C584 1.415 1_455 S
C583 C582 1.355 . S
C583 C585 1.419 1_455 S
C584 C582 1.415 1_655 S
C584 C589 1.425 . S
C584 C591 1.409 . S
C585 H577 0.930 . S
C585 C583 1.419 1_655 S
C585 C586 1.362 . S
C586 H578 0.930 . S
C586 C585 1.362 . S
C586 C589 1.409 . S
C587 H579 0.930 . S
C587 C588 1.355 . S
C587 C589 1.415 . S
C588 C587 1.355 . S
C588 C590 1.419 . S
C589 C584 1.425 . S
C589 C586 1.409 . S
C589 C587 1.415 . S
C590 H580 0.930 . S
C590 C588 1.419 . S
C590 C591 1.362 . S
C591 H581 0.930 . S
C591 C584 1.409 . S
C591 C590 1.362 . S
H592 C598 0.930 . S
H593 C601 0.930 . S
H594 C602 0.930 . S
H595 C603 0.930 . S
H596 C606 0.930 . S
H597 C607 0.930 1_545 S
C598 H592 0.930 . S
C598 C599 1.354 . S
C598 C600 1.415 1_545 S
C599 C598 1.354 . S
C599 C601 1.422 1_545 S
C600 C598 1.415 1_565 S
C600 C605 1.425 . S
C600 C607 1.409 . S
C601 H593 0.930 . S
C601 C599 1.422 1_565 S
C601 C602 1.362 . S
C602 H594 0.930 . S
C602 C601 1.362 . S
C602 C605 1.409 . S
C603 H595 0.930 . S
C603 C604 1.355 . S
C603 C605 1.415 . S
C604 C603 1.355 . S
C604 C606 1.419 . S
C605 C600 1.425 . S
C605 C602 1.409 . S
C605 C603 1.415 . S
C606 H596 0.930 . S
C606 C604 1.419 . S
C606 C607 1.362 . S
C607 H597 0.930 1_565 S
C607 C600 1.409 . S
C607 C606 1.362 . S
H608 C614 0.930 . S
H609 C617 0.930 . S
H610 C618 0.930 . S
H611 C619 0.930 . S
H612 C622 0.930 . S
H613 C623 0.930 . S
C614 H608 0.930 . S
C614 C615 1.355 . S
C614 C616 1.415 . S
C615 C614 1.355 . S
C615 C617 1.419 . S
C616 C614 1.415 . S
C616 C621 1.425 . S
C616 C623 1.409 . S
C617 H609 0.930 . S
C617 C615 1.419 . S
C617 C618 1.362 . S
C618 H610 0.930 . S
C618 C617 1.362 . S
C618 C621 1.409 . S
C619 H611 0.930 . S
C619 C620 1.355 . S
C619 C621 1.415 . S
C620 C619 1.355 . S
C620 C622 1.419 . S
C621 C616 1.425 . S
C621 C618 1.409 . S
C621 C619 1.415 . S
C622 H612 0.930 . S
C622 C620 1.419 . S
C622 C623 1.362 . S
C623 H613 0.930 . S
C623 C616 1.409 . S
C623 C622 1.362 . S
H624 C630 0.930 . S
H625 C633 0.930 . S
H626 C634 0.930 . S
H627 C635 0.930 . S
H628 C638 0.930 . S
H629 C639 0.930 . S
C630 H624 0.930 . S
C630 C631 1.355 . S
C630 C632 1.415 . S
C631 C630 1.355 . S
C631 C633 1.419 . S
C632 C630 1.415 . S
C632 C637 1.425 . S
C632 C639 1.409 . S
C633 H625 0.930 . S
C633 C631 1.419 . S
C633 C634 1.362 . S
C634 H626 0.930 . S
C634 C633 1.362 . S
C634 C637 1.409 . S
C635 H627 0.930 . S
C635 C636 1.355 . S
C635 C637 1.415 . S
C636 C635 1.355 . S
C636 C638 1.419 . S
C637 C632 1.425 . S
C637 C634 1.409 . S
C637 C635 1.415 . S
C638 H628 0.930 . S
C638 C636 1.419 . S
C638 C639 1.362 . S
C639 H629 0.930 . S
C639 C632 1.409 . S
C639 C638 1.362 . S
H640 C646 0.930 . S
H641 C649 0.930 . S
H642 C650 0.930 1_556 S
H643 C651 0.930 . S
H644 C654 0.930 . S
H645 C655 0.930 . S
C646 H640 0.930 . S
C646 C647 1.355 1_455 S
C646 C648 1.415 . S
C647 C646 1.355 1_655 S
C647 C649 1.419 . S
C648 C646 1.415 . S
C648 C653 1.425 . S
C648 C655 1.409 . S
C649 H641 0.930 . S
C649 C647 1.419 . S
C649 C650 1.362 . S
C650 H642 0.930 1_554 S
C650 C649 1.362 . S
C650 C653 1.409 1_655 S
C651 H643 0.930 . S
C651 C652 1.355 1_556 S
C651 C653 1.415 1_556 S
C652 C651 1.355 1_554 S
C652 C654 1.419 . S
C653 C648 1.425 . S
C653 C650 1.409 1_455 S
C653 C651 1.415 1_554 S
C654 H644 0.930 . S
C654 C652 1.419 . S
C654 C655 1.362 . S
C655 H645 0.930 . S
C655 C648 1.409 . S
C655 C654 1.362 . S
H656 C662 0.930 1_565 S
H657 C665 0.941 . S
H658 C666 0.930 . S
H659 C667 0.930 . S
H660 C670 0.930 . S
H661 C671 0.930 . S
C662 H656 0.930 1_545 S
C662 C663 1.355 1_545 S
C662 C664 1.415 . S
C663 C662 1.355 1_565 S
C663 C665 1.419 1_565 S
C664 C662 1.415 . S
C664 C669 1.425 . S
C664 C671 1.409 . S
C665 H657 0.941 . S
C665 C663 1.419 1_545 S
C665 C666 1.362 1_554 S
C666 H658 0.930 . S
C666 C665 1.362 1_556 S
C666 C669 1.409 1_556 S
C667 H659 0.930 . S
C667 C668 1.355 1_556 S
C667 C669 1.415 1_556 S
C668 C667 1.355 1_554 S
C668 C670 1.419 . S
C669 C664 1.425 . S
C669 C666 1.409 1_554 S
C669 C667 1.415 1_554 S
C670 H660 0.930 . S
C670 C668 1.419 . S
C670 C671 1.362 . S
C671 H661 0.930 . S
C671 C664 1.409 . S
C671 C670 1.362 . S
H672 C678 0.930 . S
H673 C681 0.930 . S
H674 C682 0.930 . S
H675 C683 0.930 . S
H676 C686 0.930 . S
H677 C687 0.930 . S
C678 H672 0.930 . S
C678 C679 1.355 . S
C678 C680 1.415 . S
C679 C678 1.355 . S
C679 C681 1.419 . S
C680 C678 1.415 . S
C680 C685 1.425 . S
C680 C687 1.409 . S
C681 H673 0.930 . S
C681 C679 1.419 . S
C681 C682 1.362 1_554 S
C682 H674 0.930 . S
C682 C681 1.362 1_556 S
C682 C685 1.409 1_556 S
C683 H675 0.930 . S
C683 C684 1.355 1_556 S
C683 C685 1.415 1_556 S
C684 C683 1.355 1_554 S
C684 C686 1.419 . S
C685 C680 1.425 . S
C685 C682 1.409 1_554 S
C685 C683 1.415 1_554 S
C686 H676 0.930 . S
C686 C684 1.419 . S
C686 C687 1.362 . S
C687 H677 0.930 . S
C687 C680 1.409 . S
C687 C686 1.362 . S
H688 C694 0.930 . S
H689 C697 0.930 . S
H690 C698 0.930 . S
H691 C699 0.930 . S
H692 C702 0.930 . S
H693 C703 0.930 . S
C694 H688 0.930 . S
C694 C695 1.355 . S
C694 C696 1.415 . S
C695 C694 1.355 . S
C695 C697 1.419 . S
C696 C694 1.415 . S
C696 C701 1.425 . S
C696 C703 1.409 . S
C697 H689 0.930 . S
C697 C695 1.419 . S
C697 C698 1.362 1_554 S
C698 H690 0.930 . S
C698 C697 1.362 1_556 S
C698 C701 1.409 1_556 S
C699 H691 0.930 . S
C699 C700 1.355 1_556 S
C699 C701 1.415 1_556 S
C700 C699 1.355 1_554 S
C700 C702 1.419 . S
C701 C696 1.425 . S
C701 C698 1.409 1_554 S
C701 C699 1.415 1_554 S
C702 H692 0.930 . S
C702 C700 1.419 . S
C702 C703 1.362 . S
C703 H693 0.930 . S
C703 C696 1.409 . S
C703 C702 1.362 . S
H704 C710 0.930 . S
H705 C713 0.930 . S
H706 C714 0.930 . S
H707 C715 0.930 . S
H708 C718 0.930 . S
H709 C719 0.930 . S
C710 H704 0.930 . S
C710 C711 1.355 . S
C710 C712 1.415 . S
C711 C710 1.355 . S
C711 C713 1.419 1_455 S
C712 C710 1.415 . S
C712 C717 1.425 1_455 S
C712 C719 1.409 . S
C713 H705 0.930 . S
C713 C711 1.419 1_655 S
C713 C714 1.362 . S
C714 H706 0.930 . S
C714 C713 1.362 . S
C714 C717 1.409 . S
C715 H707 0.930 . S
C715 C716 1.355 1_655 S
C715 C717 1.415 . S
C716 C715 1.355 1_455 S
C716 C718 1.419 . S
C717 C712 1.425 1_655 S
C717 C714 1.409 . S
C717 C715 1.415 . S
C718 H708 0.930 . S
C718 C716 1.419 . S
C718 C719 1.362 . S
C719 H709 0.930 . S
C719 C712 1.409 . S
C719 C718 1.362 . S
H720 C726 0.930 . S
H721 C729 0.930 . S
H722 C730 0.930 . S
H723 C731 0.930 . S
H724 C734 0.930 . S
H725 C735 0.930 . S
C726 H720 0.930 . S
C726 C727 1.355 . S
C726 C728 1.415 . S
C727 C726 1.355 . S
C727 C729 1.419 . S
C728 C726 1.415 . S
C728 C733 1.425 . S
C728 C735 1.409 . S
C729 H721 0.930 . S
C729 C727 1.419 . S
C729 C730 1.362 . S
C730 H722 0.930 . S
C730 C729 1.362 . S
C730 C733 1.409 . S
C731 H723 0.930 . S
C731 C732 1.355 . S
C731 C733 1.415 . S
C732 C731 1.355 . S
C732 C734 1.419 . S
C733 C728 1.425 . S
C733 C730 1.409 . S
C733 C731 1.415 . S
C734 H724 0.930 . S
C734 C732 1.419 . S
C734 C735 1.362 . S
C735 H725 0.930 . S
C735 C728 1.409 . S
C735 C734 1.362 . S
H736 C742 0.930 . S
H737 C745 0.930 . S
H738 C746 0.930 . S
H739 C747 0.930 . S
H740 C750 0.930 . S
H741 C751 0.930 . S
C742 H736 0.930 . S
C742 C743 1.355 . S
C742 C744 1.415 . S
C743 C742 1.355 . S
C743 C745 1.419 . S
C744 C742 1.415 . S
C744 C749 1.425 . S
C744 C751 1.409 . S
C745 H737 0.930 . S
C745 C743 1.419 . S
C745 C746 1.362 . S
C746 H738 0.930 . S
C746 C745 1.362 . S
C746 C749 1.409 . S
C747 H739 0.930 . S
C747 C748 1.355 . S
C747 C749 1.415 . S
C748 C747 1.355 . S
C748 C750 1.419 . S
C749 C744 1.425 . S
C749 C746 1.409 . S
C749 C747 1.415 . S
C750 H740 0.930 . S
C750 C748 1.419 . S
C750 C751 1.362 . S
C751 H741 0.930 . S
C751 C744 1.409 . S
C751 C750 1.362 . S
H752 C758 0.930 . S
H753 C761 0.930 . S
H754 C762 0.930 . S
H755 C763 0.930 . S
H756 C766 0.930 . S
H757 C767 0.930 . S
C758 H752 0.930 . S
C758 C759 1.355 . S
C758 C760 1.415 . S
C759 C758 1.355 . S
C759 C761 1.419 . S
C760 C758 1.415 . S
C760 C765 1.425 . S
C760 C767 1.409 . S
C761 H753 0.930 . S
C761 C759 1.419 . S
C761 C762 1.362 . S
C762 H754 0.930 . S
C762 C761 1.362 . S
C762 C765 1.409 . S
C763 H755 0.930 . S
C763 C764 1.355 . S
C763 C765 1.415 . S
C764 C763 1.355 . S
C764 C766 1.419 . S
C765 C760 1.425 . S
C765 C762 1.409 . S
C765 C763 1.415 . S
C766 H756 0.930 . S
C766 C764 1.419 . S
C766 C767 1.362 . S
C767 H757 0.930 . S
C767 C760 1.409 . S
C767 C766 1.362 . S
H768 C774 0.930 . S
H769 C777 0.935 . S
H770 C778 0.930 . S
H771 C779 0.930 . S
H772 C782 0.930 . S
H773 C783 0.930 . S
C774 H768 0.930 . S
C774 C775 1.355 . S
C774 C776 1.415 . S
C775 C774 1.355 . S
C775 C777 1.419 . S
C776 C774 1.415 . S
C776 C781 1.425 . S
C776 C783 1.409 . S
C777 H769 0.935 . S
C777 C775 1.419 . S
C777 C778 1.362 . S
C778 H770 0.930 . S
C778 C777 1.362 . S
C778 C781 1.409 . S
C779 H771 0.930 . S
C779 C780 1.355 . S
C779 C781 1.415 . S
C780 C779 1.355 . S
C780 C782 1.419 . S
C781 C776 1.425 . S
C781 C778 1.409 . S
C781 C779 1.415 . S
C782 H772 0.930 . S
C782 C780 1.419 . S
C782 C783 1.362 . S
C783 H773 0.930 . S
C783 C776 1.409 . S
C783 C782 1.362 . S
H784 C790 0.930 . S
H785 C793 0.930 . S
H786 C794 0.930 . S
H787 C795 0.930 . S
H788 C798 0.930 . S
H789 C799 0.930 . S
C790 H784 0.930 . S
C790 C791 1.355 . S
C790 C792 1.415 . S
C791 C790 1.355 . S
C791 C793 1.419 1_565 S
C792 C790 1.415 . S
C792 C797 1.425 . S
C792 C799 1.409 . S
C793 H785 0.930 . S
C793 C791 1.419 1_545 S
C793 C794 1.362 . S
C794 H786 0.930 . S
C794 C793 1.362 . S
C794 C797 1.409 1_545 S
C795 H787 0.930 . S
C795 C796 1.355 . S
C795 C797 1.415 . S
C796 C795 1.355 . S
C796 C798 1.419 . S
C797 C792 1.425 . S
C797 C794 1.409 1_565 S
C797 C795 1.415 . S
C798 H788 0.930 . S
C798 C796 1.419 . S
C798 C799 1.362 . S
C799 H789 0.930 . S
C799 C792 1.409 . S
C799 C798 1.362 . S
H800 C806 0.930 . S
H801 C809 0.930 . S
H802 C810 0.930 . S
H803 C811 0.930 . S
H804 C814 0.930 . S
H805 C815 0.930 . S
C806 H800 0.930 . S
C806 C807 1.355 . S
C806 C808 1.415 . S
C807 C806 1.355 . S
C807 C809 1.419 . S
C808 C806 1.415 . S
C808 C813 1.425 . S
C808 C815 1.409 . S
C809 H801 0.930 . S
C809 C807 1.419 . S
C809 C810 1.362 . S
C810 H802 0.930 . S
C810 C809 1.362 . S
C810 C813 1.409 . S
C811 H803 0.930 . S
C811 C812 1.355 . S
C811 C813 1.415 . S
C812 C811 1.355 . S
C812 C814 1.419 . S
C813 C808 1.425 . S
C813 C810 1.409 . S
C813 C811 1.415 . S
C814 H804 0.930 . S
C814 C812 1.419 . S
C814 C815 1.362 . S
C815 H805 0.930 . S
C815 C808 1.409 . S
C815 C814 1.362 . S
H816 C822 0.930 . S
H817 C825 0.930 . S
H818 C826 0.930 . S
H819 C827 0.930 . S
H820 C830 0.930 . S
H821 C831 0.930 . S
C822 H816 0.930 . S
C822 C823 1.355 . S
C822 C824 1.415 . S
C823 C822 1.355 . S
C823 C825 1.419 . S
C824 C822 1.415 . S
C824 C829 1.425 . S
C824 C831 1.409 . S
C825 H817 0.930 . S
C825 C823 1.419 . S
C825 C826 1.362 . S
C826 H818 0.930 . S
C826 C825 1.362 . S
C826 C829 1.409 . S
C827 H819 0.930 . S
C827 C828 1.355 . S
C827 C829 1.415 . S
C828 C827 1.355 . S
C828 C830 1.419 . S
C829 C824 1.425 . S
C829 C826 1.409 . S
C829 C827 1.415 . S
C830 H820 0.930 . S
C830 C828 1.419 . S
C830 C831 1.362 . S
C831 H821 0.930 . S
C831 C824 1.409 . S
C831 C830 1.362 . S
C455 C241 2.229 1_565 S
C460 C297 2.523 1_545 S
C476 C337 2.562 . S
C471 C277 2.353 . S
C492 C377 2.546 . S
C487 C169 2.280 . S
C508 C417 2.536 1_455 S
C503 C205 2.247 1_655 S
C524 C306 2.510 . S
C519 C97 2.235 1_565 S
C535 C133 2.291 . S
C540 C346 2.546 . S
C551 C25 2.289 . S
C556 C386 2.543 . S
C567 C61 2.218 . S
C572 C426 2.531 1_655 S
C588 C303 0.564 . S
C583 C211 0.477 . S
C604 C343 0.488 . S
C599 C247 0.539 . S
C620 C383 0.533 . S
C615 C253 0.574 . S
C631 C175 0.604 . S
C636 C423 0.673 . S
C647 C67 0.698 1_655 S
C652 C294 0.692 1_554 S
C668 C334 0.631 1_554 S
C663 C103 0.691 1_565 S
C684 C374 0.609 1_554 S
C679 C109 0.604 . S
C695 C31 0.679 . S
C700 C414 0.620 1_554 S
C711 C181 3.012 . S
C716 C307 3.431 . S
C727 C217 3.008 . S
C732 C347 3.393 . S
C748 C387 3.396 . S
C743 C283 2.884 . S
C764 C427 3.402 . S
C759 C145 2.954 . S
C775 C37 2.991 1_655 S
C780 C298 3.422 . S
C796 C338 3.402 . S
C791 C73 3.013 1_565 S
C812 C378 3.393 . S
C807 C139 2.924 . S
C823 C1 2.986 . S
C828 C418 3.399 . S
