# Generated by pormake.
# Topology pyr, (3,6)-cn, num edge types: 1
# Building blocks:
#     Node 0, Type 0, BuildingBlock: VETTIZ_charged_linker_0, # of connection points: 3
#     Node 1, Type 0, BuildingBlock: VETTIZ_charged_linker_0, # of connection points: 3
#     Node 2, Type 0, BuildingBlock: VETTIZ_charged_linker_0, # of connection points: 3
#     Node 3, Type 0, BuildingBlock: VETTIZ_charged_linker_0, # of connection points: 3
#     Node 4, Type 0, BuildingBlock: VETTIZ_charged_linker_0, # of connection points: 3
#     Node 5, Type 0, BuildingBlock: VETTIZ_charged_linker_0, # of connection points: 3
#     Node 6, Type 0, BuildingBlock: VETTIZ_charged_linker_0, # of connection points: 3
#     Node 7, Type 0, BuildingBlock: VETTIZ_charged_linker_0, # of connection points: 3
#     Node 8, Type 1, BuildingBlock: BETDIP_clean_sbu_0, # of connection points: 6
#     Node 9, Type 1, BuildingBlock: BETDIP_clean_sbu_0, # of connection points: 6
#     Node 10, Type 1, BuildingBlock: BETDIP_clean_sbu_0, # of connection points: 6
#     Node 11, Type 1, BuildingBlock: BETDIP_clean_sbu_0, # of connection points: 6
#     Edge 12, Type (0, 1), BuildingBlock: AJUNOK_clean_linker_0, # of connection points: 2
#     Edge 13, Type (0, 1), BuildingBlock: AJUNOK_clean_linker_0, # of connection points: 2
#     Edge 14, Type (0, 1), BuildingBlock: AJUNOK_clean_linker_0, # of connection points: 2
#     Edge 15, Type (0, 1), BuildingBlock: AJUNOK_clean_linker_0, # of connection points: 2
#     Edge 16, Type (0, 1), BuildingBlock: AJUNOK_clean_linker_0, # of connection points: 2
#     Edge 17, Type (0, 1), BuildingBlock: AJUNOK_clean_linker_0, # of connection points: 2
#     Edge 18, Type (0, 1), BuildingBlock: AJUNOK_clean_linker_0, # of connection points: 2
#     Edge 19, Type (0, 1), BuildingBlock: AJUNOK_clean_linker_0, # of connection points: 2
#     Edge 20, Type (0, 1), BuildingBlock: AJUNOK_clean_linker_0, # of connection points: 2
#     Edge 21, Type (0, 1), BuildingBlock: AJUNOK_clean_linker_0, # of connection points: 2
#     Edge 22, Type (0, 1), BuildingBlock: AJUNOK_clean_linker_0, # of connection points: 2
#     Edge 23, Type (0, 1), BuildingBlock: AJUNOK_clean_linker_0, # of connection points: 2
#     Edge 24, Type (0, 1), BuildingBlock: AJUNOK_clean_linker_0, # of connection points: 2
#     Edge 25, Type (0, 1), BuildingBlock: AJUNOK_clean_linker_0, # of connection points: 2
#     Edge 26, Type (0, 1), BuildingBlock: AJUNOK_clean_linker_0, # of connection points: 2
#     Edge 27, Type (0, 1), BuildingBlock: AJUNOK_clean_linker_0, # of connection points: 2
#     Edge 28, Type (0, 1), BuildingBlock: AJUNOK_clean_linker_0, # of connection points: 2
#     Edge 29, Type (0, 1), BuildingBlock: AJUNOK_clean_linker_0, # of connection points: 2
#     Edge 30, Type (0, 1), BuildingBlock: AJUNOK_clean_linker_0, # of connection points: 2
#     Edge 31, Type (0, 1), BuildingBlock: AJUNOK_clean_linker_0, # of connection points: 2
#     Edge 32, Type (0, 1), BuildingBlock: AJUNOK_clean_linker_0, # of connection points: 2
#     Edge 33, Type (0, 1), BuildingBlock: AJUNOK_clean_linker_0, # of connection points: 2
#     Edge 34, Type (0, 1), BuildingBlock: AJUNOK_clean_linker_0, # of connection points: 2
#     Edge 35, Type (0, 1), BuildingBlock: AJUNOK_clean_linker_0, # of connection points: 2
# Relax obj value: 0.155
# Max RMSD: 0.204
# Mean RMSD: 0.093
data_MOF--net-pyr--node1-BETDIP_clean_sbu_0--node2-VETTIZ_charged_linker_0--edge1-AJUNOK_clean_linker_0
_symmetry_space_group_name_H-M    P1
_symmetry_Int_Tables_number       1
_symmetry_cell_setting            triclinic
loop_
_symmetry_equiv_pos_as_xyz
'x, y, z'
_cell_length_a     34.08954
_cell_length_b     36.571599
_cell_length_c     35.315045
_cell_angle_alpha  89.119097
_cell_angle_beta   93.073426
_cell_angle_gamma 102.2111
loop_
_atom_site_label
_atom_site_type_symbol
_atom_site_fract_x
_atom_site_fract_y
_atom_site_fract_z
_atom_type_partial_charge
C0 C 0.35922 0.26201 0.41604 0.0
C1 C 0.32531 0.27165 0.43099 0.0
C2 C 0.30953 0.30074 0.41354 0.0
C3 C 0.35553 0.30419 0.36301 0.0
C4 C 0.37323 0.2779 0.38168 0.0
C5 C 0.40296 0.26482 0.35792 0.0
H6 H 0.46195 0.2408 0.18317 0.0
C7 C 0.37089 0.30929 0.32453 0.0
C8 C 0.39879 0.2864 0.3213 0.0
H9 H 0.49817 0.19338 0.28876 0.0
H10 H 0.46572 0.23397 0.3238 0.0
H11 H 0.47737 0.33008 0.21656 0.0
H12 H 0.37561 0.23814 0.20097 0.0
H13 H 0.35939 0.27907 0.18752 0.0
H14 H 0.39806 0.26519 0.16186 0.0
H15 H 0.45526 0.31527 0.17057 0.0
H16 H 0.43642 0.34831 0.19825 0.0
C17 C 0.44534 0.27705 0.37757 0.0
C18 C 0.38875 0.22191 0.3525 0.0
C19 C 0.3018 0.38109 0.22778 0.0
C20 C 0.30191 0.38365 0.18815 0.0
C21 C 0.3298 0.36848 0.16885 0.0
C22 C 0.35651 0.34988 0.18895 0.0
C23 C 0.35448 0.3457 0.22857 0.0
C24 C 0.32779 0.36171 0.24728 0.0
C25 C 0.32705 0.35204 0.28872 0.0
C26 C 0.35851 0.32826 0.29218 0.0
C27 C 0.37438 0.32448 0.25691 0.0
C28 C 0.34044 0.38875 0.31155 0.0
C29 C 0.28423 0.32942 0.2969 0.0
C30 C 0.46366 0.23992 0.21389 0.0
C31 C 0.4819 0.21361 0.23337 0.0
C32 C 0.48365 0.21311 0.27329 0.0
C33 C 0.46466 0.2365 0.29348 0.0
C34 C 0.44306 0.26002 0.27348 0.0
C35 C 0.44437 0.26278 0.23447 0.0
C36 C 0.41969 0.28935 0.21806 0.0
C37 C 0.40249 0.30122 0.25355 0.0
C38 C 0.41562 0.2833 0.28583 0.0
C39 C 0.44839 0.32249 0.19957 0.0
C40 C 0.38653 0.26715 0.19043 0.0
H41 H 0.31068 0.33845 0.36738 0.0
H42 H 0.3723 0.24004 0.42903 0.0
H43 H 0.3555 0.21417 0.34773 0.0
H44 H 0.4006 0.21106 0.32762 0.0
H45 H 0.39707 0.20646 0.37797 0.0
H46 H 0.44817 0.3037 0.3933 0.0
H47 H 0.45176 0.2556 0.39823 0.0
H48 H 0.46933 0.28301 0.35708 0.0
H49 H 0.27995 0.3918 0.24313 0.0
H50 H 0.33018 0.37024 0.13822 0.0
H51 H 0.37661 0.33824 0.17274 0.0
H52 H 0.36648 0.40739 0.29866 0.0
H53 H 0.31573 0.40425 0.31189 0.0
H54 H 0.35071 0.38398 0.34107 0.0
H55 H 0.26694 0.3178 0.27059 0.0
H56 H 0.28491 0.30449 0.31488 0.0
H57 H 0.2663 0.34713 0.31053 0.0
H58 H 0.28318 0.3086 0.4239 0.0
C59 C 0.32498 0.3175 0.38004 0.0
C60 C 0.08831 0.85132 0.70131 0.0
C61 C 0.07125 0.87803 0.71888 0.0
C62 C 0.07027 0.87816 0.75866 0.0
C63 C 0.10758 0.82857 0.76291 0.0
C64 C 0.10589 0.82664 0.72382 0.0
C65 C 0.12673 0.79738 0.70992 0.0
H66 H 0.26008 0.68825 0.74765 0.0
C67 C 0.13153 0.80188 0.77802 0.0
C68 C 0.14183 0.7826 0.74718 0.0
H69 H 0.20528 0.7098 0.63877 0.0
H70 H 0.1601 0.7414 0.66965 0.0
H71 H 0.26698 0.76915 0.78026 0.0
H72 H 0.17974 0.66664 0.79219 0.0
H73 H 0.1795 0.69114 0.83459 0.0
H74 H 0.22478 0.67682 0.82217 0.0
H75 H 0.27704 0.72784 0.80357 0.0
H76 H 0.25812 0.76189 0.82864 0.0
C77 C 0.16161 0.81743 0.68573 0.0
C78 C 0.09521 0.76706 0.68833 0.0
C79 C 0.19369 0.81835 0.91184 0.0
C80 C 0.22254 0.80159 0.93115 0.0
C81 C 0.22962 0.76774 0.91745 0.0
C82 C 0.21199 0.75337 0.8826 0.0
C83 C 0.1877 0.77343 0.86109 0.0
C84 C 0.17661 0.8038 0.87683 0.0
C85 C 0.14893 0.82046 0.85031 0.0
C86 C 0.148 0.79681 0.81504 0.0
C87 C 0.17175 0.77007 0.82134 0.0
C88 C 0.16874 0.86209 0.8435 0.0
C89 C 0.10716 0.81444 0.86762 0.0
C90 C 0.23773 0.69902 0.73047 0.0
C91 C 0.23683 0.69733 0.69075 0.0
C92 C 0.20726 0.71166 0.66941 0.0
C93 C 0.18115 0.73001 0.68739 0.0
C94 C 0.18502 0.73443 0.72701 0.0
C95 C 0.21186 0.71772 0.74793 0.0
C96 C 0.21268 0.72573 0.78957 0.0
C97 C 0.18209 0.75044 0.79027 0.0
C98 C 0.16661 0.75611 0.75346 0.0
C99 C 0.25583 0.74712 0.8015 0.0
C100 C 0.19874 0.68826 0.81097 0.0
H101 H 0.08757 0.85536 0.81098 0.0
H102 H 0.08891 0.8504 0.6707 0.0
H103 H 0.06496 0.76421 0.69986 0.0
H104 H 0.10204 0.73888 0.69143 0.0
H105 H 0.09255 0.77409 0.65772 0.0
H106 H 0.17808 0.84365 0.69979 0.0
H107 H 0.15007 0.82503 0.65732 0.0
H108 H 0.18448 0.80082 0.68177 0.0
H109 H 0.18714 0.84402 0.92219 0.0
H110 H 0.25075 0.75372 0.93257 0.0
H111 H 0.22005 0.72857 0.87257 0.0
H112 H 0.2007 0.86489 0.83658 0.0
H113 H 0.168 0.87907 0.86916 0.0
H114 H 0.15432 0.87498 0.81973 0.0
H115 H 0.10305 0.79162 0.88918 0.0
H116 H 0.08227 0.80555 0.84602 0.0
H117 H 0.10297 0.84017 0.88175 0.0
H118 H 0.05726 0.89856 0.77268 0.0
C119 C 0.08815 0.85336 0.78078 0.0
C120 C 0.60834 0.258 0.96321 0.0
C121 C 0.57102 0.23611 0.95104 0.0
C122 C 0.54924 0.24985 0.92072 0.0
C123 C 0.60284 0.30573 0.91494 0.0
C124 C 0.62325 0.29232 0.94532 0.0
C125 C 0.66129 0.31906 0.95739 0.0
H126 H 0.79315 0.48352 0.94162 0.0
C127 C 0.62764 0.34284 0.90313 0.0
C128 C 0.66172 0.35029 0.9286 0.0
H129 H 0.79259 0.39637 1.02575 0.0
H130 H 0.73385 0.35888 0.99473 0.0
H131 H 0.69396 0.478 0.93464 0.0
H132 H 0.77641 0.43136 0.87275 0.0
H133 H 0.73569 0.43214 0.8403 0.0
H134 H 0.76498 0.47556 0.85952 0.0
H135 H 0.7336 0.50426 0.90747 0.0
H136 H 0.68514 0.4848 0.88551 0.0
C137 C 0.65684 0.33208 0.99836 0.0
C138 C 0.69674 0.29919 0.953 0.0
C139 C 0.58766 0.42129 0.78915 0.0
C140 C 0.6081 0.45513 0.77231 0.0
C141 C 0.64751 0.4706 0.78659 0.0
C142 C 0.66495 0.45527 0.81812 0.0
C143 C 0.64363 0.42315 0.83587 0.0
C144 C 0.60623 0.40562 0.82077 0.0
C145 C 0.59031 0.36958 0.84239 0.0
C146 C 0.62387 0.36926 0.87312 0.0
C147 C 0.65461 0.40154 0.86926 0.0
C148 C 0.55056 0.37259 0.85969 0.0
C149 C 0.58569 0.33643 0.81488 0.0
C150 C 0.78008 0.4564 0.9533 0.0
C151 C 0.79695 0.44342 0.98694 0.0
C152 C 0.77951 0.40764 1.00072 0.0
C153 C 0.74533 0.38573 0.98245 0.0
C154 C 0.72789 0.3994 0.9497 0.0
C155 C 0.74545 0.434 0.93533 0.0
C156 C 0.72298 0.44324 0.89963 0.0
C157 C 0.68815 0.40917 0.89608 0.0
C158 C 0.69149 0.38369 0.92545 0.0
C159 C 0.70815 0.47958 0.90685 0.0
C160 C 0.75133 0.44599 0.86625 0.0
H161 H 0.54716 0.29319 0.87959 0.0
H162 H 0.62534 0.24901 0.98709 0.0
H163 H 0.69153 0.28116 0.92734 0.0
H164 H 0.7256 0.31887 0.94883 0.0
H165 H 0.70041 0.28104 0.97789 0.0
H166 H 0.62478 0.33015 1.00448 0.0
H167 H 0.66953 0.31468 1.01984 0.0
H168 H 0.67099 0.36187 1.00317 0.0
H169 H 0.55785 0.40779 0.77847 0.0
H170 H 0.66523 0.49505 0.77333 0.0
H171 H 0.69458 0.46929 0.82758 0.0
H172 H 0.55393 0.39987 0.87434 0.0
H173 H 0.52603 0.37062 0.8373 0.0
H174 H 0.54114 0.3507 0.88114 0.0
H175 H 0.61348 0.33852 0.79914 0.0
H176 H 0.5807 0.30921 0.82966 0.0
H177 H 0.56023 0.33626 0.79382 0.0
H178 H 0.5201 0.23378 0.91099 0.0
C179 C 0.56504 0.28429 0.90245 0.0
C180 C 0.94471 0.8386 0.42238 0.0
C181 C 0.93079 0.85725 0.45238 0.0
C182 C 0.89429 0.8399 0.46802 0.0
C183 C 0.88745 0.7862 0.42682 0.0
C184 C 0.92233 0.80314 0.40991 0.0
C185 C 0.93117 0.77896 0.37804 0.0
H186 H 0.87953 0.61272 0.27989 0.0
C187 C 0.87162 0.74921 0.40898 0.0
C188 C 0.89677 0.74438 0.38 0.0
H189 H 0.97605 0.70647 0.25764 0.0
H190 H 0.95799 0.74039 0.31032 0.0
H191 H 0.89039 0.61645 0.37372 0.0
H192 H 0.81355 0.66313 0.29381 0.0
H193 H 0.78536 0.64278 0.33196 0.0
H194 H 0.80681 0.61363 0.30192 0.0
H195 H 0.85009 0.58761 0.34607 0.0
H196 H 0.84133 0.6082 0.39002 0.0
C197 C 0.97251 0.76913 0.38717 0.0
C198 C 0.9288 0.8006 0.34036 0.0
C199 C 0.74776 0.66766 0.46298 0.0
C200 C 0.72438 0.63201 0.45445 0.0
C201 C 0.73661 0.61125 0.4255 0.0
C202 C 0.77081 0.62631 0.40489 0.0
C203 C 0.79327 0.66257 0.41328 0.0
C204 C 0.78142 0.68229 0.44213 0.0
C205 C 0.80807 0.7202 0.44772 0.0
C206 C 0.83822 0.7204 0.41758 0.0
C207 C 0.8297 0.6867 0.39722 0.0
C208 C 0.82799 0.72138 0.48841 0.0
C209 C 0.7821 0.74989 0.43944 0.0
C210 C 0.89684 0.6405 0.28645 0.0
C211 C 0.92926 0.65684 0.26428 0.0
C212 C 0.95072 0.69328 0.27383 0.0
C213 C 0.94018 0.71298 0.3045 0.0
C214 C 0.90734 0.69652 0.32599 0.0
C215 C 0.88619 0.66081 0.31662 0.0
C216 C 0.85129 0.64801 0.3416 0.0
C217 C 0.85475 0.68165 0.36738 0.0
C218 C 0.888 0.71025 0.35851 0.0
C219 C 0.85823 0.61306 0.36399 0.0
C220 C 0.81203 0.64121 0.31621 0.0
H221 H 0.84582 0.79369 0.4696 0.0
H222 H 0.97253 0.85087 0.40941 0.0
H223 H 0.90319 0.81511 0.33966 0.0
H224 H 0.92329 0.78215 0.31538 0.0
H225 H 0.95674 0.82213 0.33687 0.0
H226 H 0.97476 0.75952 0.4171 0.0
H227 H 0.99719 0.79392 0.38333 0.0
H228 H 0.9777 0.74618 0.3695 0.0
H229 H 0.74011 0.68407 0.48566 0.0
H230 H 0.71931 0.58361 0.41838 0.0
H231 H 0.77831 0.60926 0.38304 0.0
H232 H 0.83389 0.69353 0.49694 0.0
H233 H 0.8083 0.72935 0.50951 0.0
H234 H 0.85777 0.74047 0.49106 0.0
H235 H 0.75644 0.73927 0.41891 0.0
H236 H 0.79891 0.77547 0.42579 0.0
H237 H 0.76939 0.75773 0.4657 0.0
H238 H 0.88189 0.85355 0.49012 0.0
C239 C 0.87294 0.80488 0.45572 0.0
C240 C 0.69396 0.70542 0.95176 0.0
C241 C 0.72217 0.68746 0.93652 0.0
C242 C 0.72326 0.68483 0.89685 0.0
C243 C 0.67554 0.72497 0.88857 0.0
C244 C 0.67071 0.72381 0.92715 0.0
C245 C 0.6412 0.74667 0.93814 0.0
H246 H 0.55243 0.89071 0.89713 0.0
C247 C 0.65305 0.75182 0.87145 0.0
C248 C 0.63151 0.76366 0.89999 0.0
H249 H 0.55096 0.82705 1.00113 0.0
H250 H 0.58017 0.7812 0.97039 0.0
H251 H 0.52798 0.81589 0.83831 0.0
H252 H 0.6374 0.88881 0.87989 0.0
H253 H 0.64323 0.88079 0.83203 0.0
H254 H 0.60388 0.90346 0.84473 0.0
H255 H 0.54332 0.86322 0.82198 0.0
H256 H 0.55983 0.82508 0.80019 0.0
C257 C 0.60396 0.71987 0.95369 0.0
C258 C 0.66317 0.77679 0.96679 0.0
C259 C 0.69686 0.81149 0.7461 0.0
C260 C 0.68906 0.84335 0.72704 0.0
C261 C 0.65714 0.85905 0.73814 0.0
C262 C 0.63535 0.84488 0.76966 0.0
C263 C 0.64623 0.81529 0.79073 0.0
C264 C 0.67538 0.79811 0.77792 0.0
C265 C 0.68383 0.76773 0.80427 0.0
C266 C 0.65577 0.77033 0.83575 0.0
C267 C 0.63439 0.79872 0.82796 0.0
C268 C 0.67206 0.72978 0.78314 0.0
C269 C 0.72875 0.77856 0.81803 0.0
C270 C 0.55719 0.86614 0.91274 0.0
C271 C 0.54964 0.86223 0.9514 0.0
C272 C 0.55668 0.83038 0.97125 0.0
C273 C 0.57401 0.80413 0.95351 0.0
C274 C 0.5852 0.81036 0.91588 0.0
C275 C 0.57509 0.83993 0.89555 0.0
C276 C 0.59031 0.84258 0.85619 0.0
C277 C 0.61134 0.80983 0.85636 0.0
C278 C 0.60904 0.79167 0.89178 0.0
C279 C 0.55366 0.83669 0.82742 0.0
C280 C 0.62006 0.88086 0.85258 0.0
H281 H 0.70299 0.70155 0.8429 0.0
H282 H 0.69162 0.70671 0.98215 0.0
H283 H 0.6928 0.79102 0.95638 0.0
H284 H 0.64672 0.79906 0.97136 0.0
H285 H 0.66859 0.76399 0.99479 0.0
H286 H 0.60124 0.69067 0.94375 0.0
H287 H 0.60556 0.71921 0.98518 0.0
H288 H 0.57544 0.72755 0.94351 0.0
H289 H 0.72095 0.7987 0.73774 0.0
H290 H 0.6507 0.88378 0.72401 0.0
H291 H 0.61246 0.85891 0.77771 0.0
H292 H 0.6512 0.7311 0.75806 0.0
H293 H 0.69891 0.72107 0.77286 0.0
H294 H 0.65558 0.70724 0.80123 0.0
H295 H 0.73656 0.80818 0.82761 0.0
H296 H 0.73688 0.76187 0.84217 0.0
H297 H 0.74857 0.77554 0.79483 0.0
H298 H 0.74435 0.6707 0.88444 0.0
C299 C 0.6997 0.70316 0.87279 0.0
C300 C 0.93146 0.24269 0.43757 0.0
C301 C 0.95307 0.21863 0.42151 0.0
C302 C 0.96102 0.22225 0.38277 0.0
C303 C 0.92076 0.26951 0.37565 0.0
C304 C 0.91583 0.26798 0.41424 0.0
C305 C 0.88978 0.29369 0.4263 0.0
H306 H 0.75961 0.40393 0.37697 0.0
C307 C 0.89719 0.29584 0.35885 0.0
C308 C 0.87992 0.31096 0.38853 0.0
H309 H 0.78628 0.3611 0.48798 0.0
H310 H 0.84001 0.33653 0.46333 0.0
H311 H 0.77859 0.32764 0.30294 0.0
H312 H 0.8577 0.42583 0.34938 0.0
H313 H 0.85167 0.41173 0.30139 0.0
H314 H 0.81201 0.42869 0.32274 0.0
H315 H 0.75018 0.34502 0.33563 0.0
H316 H 0.76745 0.37347 0.29616 0.0
C317 C 0.85196 0.26943 0.44379 0.0
C318 C 0.91536 0.32326 0.4535 0.0
C319 C 0.85215 0.28644 0.22018 0.0
C320 C 0.82394 0.30292 0.19935 0.0
C321 C 0.81504 0.33611 0.2129 0.0
C322 C 0.82975 0.34974 0.24887 0.0
C323 C 0.85279 0.32953 0.27161 0.0
C324 C 0.86627 0.30022 0.25631 0.0
C325 C 0.89155 0.2829 0.28483 0.0
C326 C 0.8868 0.30392 0.32062 0.0
C327 C 0.86323 0.3306 0.31266 0.0
C328 C 0.87295 0.24051 0.2879 0.0
C329 C 0.93557 0.29163 0.27259 0.0
C330 C 0.77698 0.38918 0.39596 0.0
C331 C 0.76798 0.38364 0.43424 0.0
C332 C 0.79236 0.36555 0.45828 0.0
C333 C 0.82331 0.35094 0.44382 0.0
C334 C 0.82947 0.35371 0.40475 0.0
C335 C 0.80699 0.37322 0.38164 0.0
C336 C 0.81584 0.37152 0.34053 0.0
C337 C 0.8465 0.34662 0.34269 0.0
C338 C 0.85461 0.33665 0.3804 0.0
C339 C 0.77625 0.35367 0.3175 0.0
C340 C 0.83515 0.41155 0.32751 0.0
H341 H 0.95086 0.24864 0.33015 0.0
H342 H 0.92545 0.24075 0.46744 0.0
H343 H 0.94629 0.33267 0.44347 0.0
H344 H 0.90334 0.34894 0.45504 0.0
H345 H 0.91799 0.31156 0.48252 0.0
H346 H 0.84466 0.24069 0.43179 0.0
H347 H 0.85651 0.26669 0.475 0.0
H348 H 0.82447 0.28031 0.43744 0.0
H349 H 0.85972 0.26103 0.21037 0.0
H350 H 0.79422 0.34983 0.1969 0.0
H351 H 0.82074 0.37415 0.25857 0.0
H352 H 0.84007 0.23595 0.29165 0.0
H353 H 0.87754 0.22554 0.26193 0.0
H354 H 0.88562 0.22675 0.31211 0.0
H355 H 0.94146 0.31598 0.25289 0.0
H356 H 0.95739 0.2996 0.297 0.0
H357 H 0.94281 0.26744 0.25788 0.0
H358 H 0.9779 0.20409 0.37002 0.0
C359 C 0.94512 0.24781 0.35975 0.0
C360 C 0.4439 0.67053 0.36977 0.0
C361 C 0.42468 0.6358 0.38572 0.0
C362 C 0.38672 0.61825 0.36942 0.0
C363 C 0.38875 0.66729 0.32184 0.0
C364 C 0.42522 0.68585 0.33808 0.0
C365 C 0.44052 0.72247 0.31736 0.0
H366 H 0.40752 0.84472 0.17424 0.0
C367 C 0.37738 0.68947 0.2889 0.0
C368 C 0.40737 0.72248 0.28624 0.0
H369 H 0.51113 0.85836 0.25239 0.0
H370 H 0.48289 0.79907 0.28293 0.0
H371 H 0.33996 0.81164 0.23382 0.0
H372 H 0.40698 0.76343 0.15615 0.0
H373 H 0.35999 0.73277 0.15605 0.0
H374 H 0.36325 0.78062 0.14076 0.0
H375 H 0.33108 0.81249 0.1833 0.0
H376 H 0.30597 0.77417 0.21187 0.0
C377 C 0.44357 0.75493 0.3455 0.0
C378 C 0.48096 0.72076 0.30058 0.0
C379 C 0.25148 0.63641 0.20434 0.0
C380 C 0.23354 0.65061 0.17186 0.0
C381 C 0.25121 0.68663 0.15875 0.0
C382 C 0.28586 0.7079 0.17698 0.0
C383 C 0.30371 0.69334 0.20898 0.0
C384 C 0.28643 0.65827 0.2224 0.0
C385 C 0.30948 0.64798 0.25734 0.0
C386 C 0.34397 0.68221 0.26185 0.0
C387 C 0.34024 0.70856 0.23335 0.0
C388 C 0.28148 0.64354 0.29107 0.0
C389 C 0.3248 0.61232 0.24829 0.0
C390 C 0.42389 0.83535 0.19834 0.0
C391 C 0.46141 0.85661 0.21101 0.0
C392 C 0.4821 0.84261 0.24196 0.0
C393 C 0.46564 0.80816 0.2597 0.0
C394 C 0.42815 0.78695 0.24622 0.0
C395 C 0.40829 0.80088 0.21579 0.0
C396 C 0.37027 0.77429 0.20308 0.0
C397 C 0.36965 0.74238 0.23117 0.0
C398 C 0.4034 0.74955 0.257 0.0
C399 C 0.33478 0.79399 0.20789 0.0
C400 C 0.37492 0.76218 0.16184 0.0
H401 H 0.34036 0.61812 0.3271 0.0
H402 H 0.47309 0.68504 0.38101 0.0
H403 H 0.47904 0.69331 0.28666 0.0
H404 H 0.48956 0.74217 0.2785 0.0
H405 H 0.50545 0.72419 0.32313 0.0
H406 H 0.41567 0.75132 0.36135 0.0
H407 H 0.46926 0.75584 0.36646 0.0
H408 H 0.44709 0.78238 0.33126 0.0
H409 H 0.23898 0.6088 0.2152 0.0
H410 H 0.23787 0.69868 0.13436 0.0
H411 H 0.29735 0.73503 0.16529 0.0
H412 H 0.25798 0.66041 0.28671 0.0
H413 H 0.26585 0.61393 0.29486 0.0
H414 H 0.29775 0.65402 0.31802 0.0
H415 H 0.33753 0.61467 0.21978 0.0
H416 H 0.3492 0.60744 0.26822 0.0
H417 H 0.29992 0.58718 0.24825 0.0
H418 H 0.37037 0.59227 0.38113 0.0
C419 C 0.36898 0.6335 0.3379 0.0
C420 C 0.08118 0.25392 0.73022 0.0
C421 C 0.09616 0.23561 0.70066 0.0
C422 C 0.1351 0.25088 0.68895 0.0
C423 C 0.14086 0.30424 0.73026 0.0
C424 C 0.1043 0.28829 0.74478 0.0
C425 C 0.09475 0.31235 0.77648 0.0
H426 H 0.14441 0.48044 0.87194 0.0
C427 C 0.15589 0.34146 0.74769 0.0
C428 C 0.12928 0.34689 0.77515 0.0
H429 H 0.05118 0.38531 0.89854 0.0
H430 H 0.06846 0.35108 0.84555 0.0
H431 H 0.12647 0.47615 0.78279 0.0
H432 H 0.21462 0.43318 0.85251 0.0
H433 H 0.23727 0.46071 0.8146 0.0
H434 H 0.21269 0.48189 0.84917 0.0
H435 H 0.17285 0.50589 0.79936 0.0
H436 H 0.16913 0.47907 0.75624 0.0
C437 C 0.05357 0.3223 0.76705 0.0
C438 C 0.09651 0.29047 0.81409 0.0
C439 C 0.27863 0.42471 0.69301 0.0
C440 C 0.29577 0.46327 0.69506 0.0
C441 C 0.27795 0.48543 0.71878 0.0
C442 C 0.24537 0.46932 0.74087 0.0
C443 C 0.22914 0.43066 0.73857 0.0
C444 C 0.24515 0.40946 0.71393 0.0
C445 C 0.2211 0.37012 0.71076 0.0
C446 C 0.18853 0.37074 0.73836 0.0
C447 C 0.19394 0.40586 0.75564 0.0
C448 C 0.20401 0.36387 0.66904 0.0
C449 C 0.24867 0.34336 0.72462 0.0
C450 C 0.12762 0.45226 0.86643 0.0
C451 C 0.09622 0.4358 0.88974 0.0
C452 C 0.07567 0.39873 0.88147 0.0
C453 C 0.08581 0.37879 0.85069 0.0
C454 C 0.11743 0.39562 0.8279 0.0
C455 C 0.13777 0.43186 0.83615 0.0
C456 C 0.17058 0.44565 0.80916 0.0
C457 C 0.16828 0.41124 0.78478 0.0
C458 C 0.13648 0.38186 0.79517 0.0
C459 C 0.15959 0.47858 0.78572 0.0
C460 C 0.21108 0.45612 0.8324 0.0
H461 H 0.18615 0.29483 0.69221 0.0
H462 H 0.05199 0.2423 0.74097 0.0
H463 H 0.12197 0.27576 0.81506 0.0
H464 H 0.10187 0.30882 0.83914 0.0
H465 H 0.06838 0.26908 0.81721 0.0
H466 H 0.05232 0.33358 0.73768 0.0
H467 H 0.02891 0.29717 0.76907 0.0
H468 H 0.04759 0.34393 0.78605 0.0
H469 H 0.29067 0.40639 0.67516 0.0
H470 H 0.28844 0.51546 0.71987 0.0
H471 H 0.23363 0.48766 0.75853 0.0
H472 H 0.20321 0.39074 0.6541 0.0
H473 H 0.22247 0.34896 0.65241 0.0
H474 H 0.17239 0.34833 0.66703 0.0
H475 H 0.26881 0.35558 0.74914 0.0
H476 H 0.23172 0.31629 0.73515 0.0
H477 H 0.268 0.3381 0.70183 0.0
H478 H 0.14849 0.23668 0.668 0.0
C479 C 0.15719 0.28482 0.70327 0.0
Tb480 Tb 0.96938 1.04081 0.58397 0.0
Tb481 Tb 0.05226 0.058 0.56103 0.0
C482 C 0.89395 1.02245 0.58489 0.0
C483 C 0.86349 0.9923 0.60025 0.0
C484 C 0.87267 0.95803 0.61166 0.0
C485 C 0.84348 0.93045 0.62793 0.0
C486 C 0.80481 0.93683 0.63306 0.0
C487 C 0.79582 0.97112 0.62116 0.0
C488 C 0.8249 0.99854 0.60477 0.0
C489 C 0.01681 0.09586 0.62345 0.0
C490 C 0.0258 0.99708 0.62681 0.0
C491 C 0.12765 0.07788 0.56238 0.0
C492 C 0.15823 0.11023 0.55139 0.0
C493 C 0.19868 0.10776 0.55453 0.0
C494 C 0.22822 0.13675 0.54116 0.0
C495 C 0.2177 0.16873 0.5246 0.0
C496 C 0.17724 0.17189 0.523 0.0
C497 C 0.1476 0.1427 0.53626 0.0
C498 C 1.00531 1.00276 0.52135 0.0
C499 C 0.99492 0.10005 0.51706 0.0
O500 O 0.91469 1.01332 0.55778 0.0
O501 O 0.91646 1.04448 0.60991 0.0
O502 O 0.01653 0.0901 0.58828 0.0
O503 O 0.98869 0.07073 0.63759 0.0
O504 O 0.98778 0.99675 0.61745 0.0
O505 O 0.05497 1.02071 0.61035 0.0
O506 O 0.106 0.08297 0.59052 0.0
O507 O 0.10604 0.05909 0.53456 0.0
O508 O 1.00515 1.00874 0.55645 0.0
O509 O 0.03427 1.02737 0.50766 0.0
O510 O 0.03302 0.10167 0.5273 0.0
O511 O 0.96623 0.07556 0.53302 0.0
H512 H 0.90246 0.95285 0.60849 0.0
H513 H 0.85128 0.90434 0.63699 0.0
H514 H 0.76675 0.97733 0.62574 0.0
H515 H 0.81751 1.02501 0.59636 0.0
H516 H 0.20731 0.08289 0.56628 0.0
H517 H 0.2592 0.13371 0.54263 0.0
H518 H 0.16834 0.19601 0.50979 0.0
H519 H 0.11638 0.14492 0.5336 0.0
Tb520 Tb 0.56297 0.05491 0.08832 0.0
Tb521 Tb 0.47561 1.0383 0.07675 0.0
C522 C 0.6373 0.08212 0.0949 0.0
C523 C 0.66468 0.11859 0.09994 0.0
C524 C 0.65168 0.15216 0.0932 0.0
C525 C 0.67821 0.18649 0.10016 0.0
C526 C 0.71801 0.1876 0.11386 0.0
C527 C 0.73091 0.15378 0.11959 0.0
C528 C 0.70449 0.11963 0.11257 0.0
C529 C 0.52779 0.99215 0.12326 0.0
C530 C 0.51231 0.09762 0.13655 0.0
C531 C 0.40129 1.01133 1.06938 0.0
C532 C 0.37478 0.97577 1.05813 0.0
C533 C 0.3881 0.94197 1.06037 0.0
C534 C 0.36316 0.909 1.04647 0.0
C535 C 0.32485 0.90958 1.02982 0.0
C536 C 0.31124 0.94329 1.02907 0.0
C537 C 0.33603 0.97609 1.04311 0.0
C538 C 0.51141 0.10108 1.04195 0.0
C539 C 0.52661 0.99264 1.03144 0.0
O540 O 0.6168 0.07668 1.06247 0.0
O541 O 0.61542 0.06963 0.12353 0.0
O542 O 0.51489 1.02215 0.12026 0.0
O543 O 0.56257 0.99811 0.10887 0.0
O544 O 0.54615 0.10037 0.11917 0.0
O545 O 0.48081 0.07087 0.12793 0.0
O546 O 0.42249 1.01138 0.10133 0.0
O547 O 0.42232 1.0295 1.04252 0.0
O548 O 0.52366 0.0707 1.04451 0.0
O549 O 0.4774 0.09603 1.05786 0.0
O550 O 0.49166 0.99246 1.04589 0.0
O551 O 0.55831 1.01929 1.03955 0.0
H552 H 0.62094 0.15176 0.08334 0.0
H553 H 0.66742 0.21212 0.09576 0.0
H554 H 0.76091 0.15359 0.13123 0.0
H555 H 0.71489 0.09391 0.11798 0.0
H556 H 0.41798 0.94125 1.07203 0.0
H557 H 0.37416 0.88329 1.04788 0.0
H558 H 0.28207 0.94466 1.01607 0.0
H559 H 0.32538 1.00199 1.04118 0.0
Tb560 Tb 0.51743 0.58313 0.59901 0.0
Tb561 Tb 0.51225 0.50662 0.56456 0.0
C562 C 0.5005 0.64147 0.62379 0.0
C563 C 0.46112 0.6507 0.62974 0.0
C564 C 0.43372 0.65337 0.59905 0.0
C565 C 0.39532 0.65897 0.60546 0.0
C566 C 0.38356 0.66172 0.64259 0.0
C567 C 0.41091 0.65921 0.6732 0.0
C568 C 0.44941 0.65399 0.66683 0.0
C569 C 0.5536 0.53704 0.64041 0.0
C570 C 0.43827 0.51903 0.60747 0.0
C571 C 0.53174 0.44483 0.558 0.0
C572 C 0.55955 0.43113 0.53432 0.0
C573 C 0.58118 0.40553 0.55013 0.0
C574 C 0.61366 0.39769 0.53174 0.0
C575 C 0.62469 0.41509 0.4971 0.0
C576 C 0.60204 0.43958 0.48043 0.0
C577 C 0.56982 0.44784 0.49912 0.0
C578 C 0.48539 0.5503 0.51185 0.0
C579 C 0.58444 0.575 0.54486 0.0
O580 O 0.50948 0.63777 0.58872 0.0
O581 O 0.50971 0.61514 0.64576 0.0
O582 O 0.52053 0.52861 0.62117 0.0
O583 O 0.56752 0.57264 0.63593 0.0
O584 O 0.45487 0.55519 0.60701 0.0
O585 O 0.45619 0.49359 0.5939 0.0
O586 O 0.54985 0.47084 0.58179 0.0
O587 O 0.49898 0.4525 0.54134 0.0
O588 O 0.49828 0.55839 0.54567 0.0
O589 O 0.4862 0.51529 0.50743 0.0
O590 O 0.57105 0.53826 0.54721 0.0
O591 O 0.56645 0.59884 0.56125 0.0
H592 H 0.44156 0.6505 0.57011 0.0
H593 H 0.3746 0.66057 0.58144 0.0
H594 H 0.40255 0.66154 0.7021 0.0
H595 H 0.46982 0.65183 0.69096 0.0
H596 H 0.57414 0.39296 0.5776 0.0
H597 H 0.63075 0.37866 0.54496 0.0
H598 H 0.61035 0.45346 0.45383 0.0
H599 H 0.55409 0.4684 0.48694 0.0
Tb600 Tb 1.01158 0.5789 1.05294 0.0
Tb601 Tb 0.01845 0.51545 0.10305 0.0
C602 C 0.98426 0.62755 1.01522 0.0
C603 C 0.9448 0.63767 1.01375 0.0
C604 C 0.91117 0.61253 1.02696 0.0
C605 C 0.87287 0.62036 1.02175 0.0
C606 C 0.86778 0.65366 1.00377 0.0
C607 C 0.90176 0.6794 0.99196 0.0
C608 C 0.94001 0.67142 0.99691 0.0
C609 C 0.08434 0.58415 0.0864 0.0
C610 C 0.9807 0.57703 0.13753 0.0
C611 C 0.04598 0.46668 0.14027 0.0
C612 C 0.08362 0.45365 0.13793 0.0
C613 C 0.11737 0.47711 0.12287 0.0
C614 C 0.1541 0.46595 0.12345 0.0
C615 C 0.15745 0.43097 0.13857 0.0
C616 C 0.12324 0.40699 0.1523 0.0
C617 C 0.08656 0.4183 0.152 0.0
C618 C 0.94555 0.5109 1.07085 0.0
C619 C 0.04741 0.51675 1.0174 0.0
O620 O 0.98402 0.59411 1.00261 0.0
O621 O 1.00603 0.63493 1.04687 0.0
O622 O 0.05099 0.57177 0.10046 0.0
O623 O 0.07735 0.59687 1.05279 0.0
O624 O 0.97664 0.58802 0.1018 0.0
O625 O 0.99954 0.54961 0.14594 0.0
O626 O 0.05028 0.50131 0.15132 0.0
O627 O 0.02013 0.45871 0.11134 0.0
O628 O 0.9786 0.52265 1.05591 0.0
O629 O 0.95294 0.49838 0.10447 0.0
O630 O 0.05132 0.50484 1.05288 0.0
O631 O 0.02908 0.54457 1.00981 0.0
H632 H 0.91439 0.58632 1.04016 0.0
H633 H 0.84713 0.60006 1.03096 0.0
H634 H 0.89853 0.70495 0.97736 0.0
H635 H 0.96564 0.69102 0.98648 0.0
H636 H 0.11559 0.5045 0.11165 0.0
H637 H 0.18009 0.48492 0.11287 0.0
H638 H 0.12529 0.38016 0.16477 0.0
H639 H 0.0608 0.3999 0.16367 0.0
C640 C 0.29555 0.20764 0.45428 0.0
C641 C 0.30194 0.24665 0.45924 0.0
C642 C 0.26935 0.18288 0.47655 0.0
C643 C 0.24802 0.19598 0.50448 0.0
H644 H 0.30941 0.19598 0.43177 0.0
H645 H 0.26445 0.1532 0.47073 0.0
S646 S 0.25664 0.29487 0.53185 0.0
N647 N 0.28718 0.29698 0.49672 0.0
N648 N 0.23675 0.25003 0.53798 0.0
C649 C 0.25487 0.23469 0.51078 0.0
C650 C 0.28209 0.26009 0.48834 0.0
C651 C 0.23378 0.83979 0.99056 0.0
C652 C 0.24962 0.82282 0.96117 0.0
C653 C 0.25875 0.8661 1.01449 0.0
C654 C 0.30038 0.8765 1.00971 0.0
H655 H 0.20166 0.83384 0.99404 0.0
H656 H 0.24515 0.8796 1.03586 0.0
S657 S 0.35674 0.83969 0.93733 0.0
N658 N 0.30966 0.81747 0.92928 0.0
N659 N 0.35642 0.867 0.97403 0.0
C660 C 0.31682 0.85839 0.98159 0.0
C661 C 0.29146 0.83155 0.95735 0.0
C662 C 0.56906 0.45644 0.7082 0.0
C663 C 0.5899 0.47538 0.74028 0.0
C664 C 0.55643 0.47615 0.67641 0.0
C665 C 0.56492 0.51569 0.67484 0.0
H666 H 0.56343 0.42619 0.70715 0.0
H667 H 0.54067 0.46018 0.65265 0.0
S668 S 0.61163 0.57854 0.75406 0.0
N669 N 0.61234 0.53616 0.77034 0.0
N670 N 0.5912 0.57262 0.71058 0.0
C671 C 0.58391 0.53474 0.70748 0.0
C672 C 0.59568 0.51482 0.74004 0.0
C673 C 0.94976 0.60052 0.23621 0.0
C674 C 0.94064 0.63621 0.23128 0.0
C675 C 0.96216 0.58151 0.2059 0.0
C676 C 0.96521 0.59687 0.16893 0.0
H677 H 0.9482 0.5875 0.264 0.0
H678 H 0.96958 0.55453 0.21164 0.0
S679 S 0.94214 0.68871 0.14038 0.0
N680 N 0.93416 0.68553 0.18614 0.0
N681 N 0.95639 0.64994 0.12937 0.0
C682 C 0.95504 0.63217 0.1635 0.0
C683 C 0.94312 0.65174 0.19451 0.0
C684 C 0.52045 0.19207 0.18262 0.0
C685 C 0.49368 0.18351 0.21199 0.0
C686 C 0.52803 0.1638 0.15935 0.0
C687 C 0.50825 0.12628 0.16418 0.0
H688 H 0.53495 0.22086 0.17716 0.0
H689 H 0.54807 0.1716 0.13641 0.0
S690 S 0.43651 0.08932 0.2379 0.0
N691 N 0.44853 0.13485 0.24548 0.0
N692 N 0.46231 0.08189 0.20157 0.0
C693 C 0.48227 0.11733 0.19409 0.0
C694 C 0.47509 0.14593 0.21806 0.0
C695 C 0.08603 0.93092 0.67316 0.0
C696 C 0.05832 0.908 0.69599 0.0
C697 C 0.07543 0.96019 0.65177 0.0
C698 C 0.03646 0.96741 0.65195 0.0
H699 H 0.11636 0.92638 0.67209 0.0
H700 H 0.09792 0.97681 0.63445 0.0
S701 S 0.95268 0.91494 0.70712 0.0
N702 N 0.99046 0.89422 0.71793 0.0
N703 N 0.97 0.94898 0.67722 0.0
C704 C 1.00838 0.9446 0.67478 0.0
C705 C 0.01946 0.915 0.69697 0.0
C706 C 0.86838 0.48078 0.98898 0.0
C707 C 0.83304 0.46606 1.00782 0.0
C708 C 0.9044 0.49702 1.00934 0.0
C709 C 0.90636 0.49897 1.04927 0.0
H710 H 0.86872 0.47811 0.9585 0.0
H711 H 0.93125 0.50656 0.99381 0.0
S712 S 0.8207 0.47048 0.11136 0.0
N713 N 0.8012 0.45914 1.06824 0.0
N714 N 0.86869 0.48899 0.1063 0.0
C715 C 0.87064 0.48665 1.0681 0.0
C716 C 0.83408 0.47036 1.04745 0.0
C717 C 0.68033 0.58062 0.49123 0.0
C718 C 0.68751 0.61709 0.47589 0.0
C719 C 0.64709 0.56721 0.51348 0.0
C720 C 0.61977 0.5898 0.52154 0.0
H721 H 0.70101 0.56253 0.48668 0.0
H722 H 0.64313 0.53906 0.52484 0.0
S723 S 0.62208 0.68567 0.48405 0.0
N724 N 0.66216 0.67418 0.46743 0.0
N725 N 0.60057 0.64947 0.50952 0.0
C726 C 0.62602 0.62593 0.50544 0.0
C727 C 0.65958 0.63941 0.4826 0.0
C728 C 0.2637 0.43408 0.17675 0.0
C729 C 0.26961 0.39842 0.16772 0.0
C730 C 0.22824 0.44539 0.16488 0.0
C731 C 0.19729 0.42115 0.14411 0.0
H732 H 0.28577 0.45257 0.19475 0.0
H733 H 0.22399 0.47235 0.17408 0.0
S734 S 0.19977 0.32631 0.11023 0.0
N735 N 0.24316 0.34008 0.13435 0.0
N736 N 0.17625 0.36133 0.11212 0.0
C737 C 0.20385 0.38631 0.13301 0.0
C738 C 0.24015 0.37496 0.14475 0.0
C739 C 0.51815 0.19457 0.98919 0.0
C740 C 0.55492 0.20003 0.9714 0.0
C741 C 0.50464 0.16262 1.01174 0.0
C742 C 0.52687 0.13423 1.01707 0.0
H743 H 0.50023 0.21575 0.98663 0.0
H744 H 0.47649 0.16033 1.02535 0.0
S745 S 0.62398 0.13384 0.97452 0.0
N746 N 0.61285 0.1737 0.9598 0.0
N747 N 0.58671 0.11327 1.00059 0.0
C748 C 0.56309 0.13886 0.99845 0.0
C749 C 0.57726 0.17176 0.97611 0.0
C750 C 0.9544 0.89989 0.50842 0.0
C751 C 0.95307 0.89419 0.46879 0.0
C752 C 0.97072 0.93494 0.5249 0.0
C753 C 0.98734 0.96608 0.50275 0.0
H754 H 0.94233 0.87699 0.52711 0.0
H755 H 0.97051 0.93751 0.55541 0.0
S756 S 0.9924 0.96697 0.39795 0.0
N757 N 0.97013 0.9235 0.40792 0.0
N758 N 1.00211 0.98893 0.43901 0.0
C759 C 0.98722 0.96083 0.46325 0.0
C760 C 0.97001 0.92509 0.4463 0.0
C761 C 0.28277 0.65266 0.68607 0.0
C762 C 0.26989 0.68479 0.67245 0.0
C763 C 0.31885 0.6445 0.67505 0.0
C764 C 0.34315 0.66801 0.6498 0.0
H765 H 0.26563 0.6345 0.70659 0.0
H766 H 0.32839 0.62021 0.6872 0.0
S767 S 0.32251 0.75468 0.60486 0.0
N768 N 0.28394 0.73961 0.63147 0.0
N769 N 0.35136 0.72376 0.6103 0.0
C770 C 0.32972 0.6991 0.63446 0.0
C771 C 0.29314 0.70759 0.64585 0.0
C772 C 0.75921 0.87213 0.71119 0.0
C773 C 0.71804 0.86346 0.70008 0.0
C774 C 0.78719 0.89466 0.68858 0.0
C775 C 0.77512 0.90939 0.65393 0.0
H776 H 0.76972 0.86273 0.73839 0.0
H777 H 0.81827 0.90189 0.69915 0.0
S778 S 0.67158 0.89114 0.60984 0.0
N779 N 0.66697 0.86868 0.65084 0.0
N780 N 0.71974 0.91084 0.60789 0.0
C781 C 0.73429 0.89955 0.64165 0.0
C782 C 0.70572 0.87667 0.66484 0.0
C783 C 0.75545 0.274 0.17315 0.0
C784 C 0.79731 0.28087 0.16948 0.0
C785 C 0.7295 0.24565 0.15249 0.0
C786 C 0.74442 0.22309 0.12738 0.0
H787 H 0.74281 0.28848 0.19441 0.0
H788 H 0.69795 0.2395 0.15856 0.0
S789 S 0.8504 0.23515 0.10135 0.0
N790 N 0.85174 0.26688 0.13446 0.0
N791 N 0.8028 0.21353 0.09527 0.0
C792 C 0.78569 0.23206 0.12068 0.0
C793 C 0.81218 0.26095 0.14182 0.0
C794 C 0.43882 0.57689 0.41717 0.0
C795 C 0.44324 0.61616 0.41808 0.0
C796 C 0.45244 0.55668 0.44757 0.0
C797 C 0.47157 0.57434 0.48085 0.0
H798 H 0.42451 0.56127 0.39254 0.0
H799 H 0.44763 0.52657 0.44485 0.0
S800 S 0.49424 0.67686 0.49731 0.0
N801 N 0.47014 0.67216 0.45523 0.0
N802 N 0.49689 0.63416 0.51156 0.0
C803 C 0.47757 0.61368 0.48189 0.0
C804 C 0.46336 0.6345 0.45079 0.0
C805 C 0.08009 0.44121 0.95882 0.0
C806 C 0.08476 0.45723 0.92226 0.0
C807 C 0.06934 0.46089 0.98953 0.0
C808 C 0.06201 0.49737 0.98509 0.0
H809 H 0.08504 0.41321 0.96386 0.0
H810 H 0.06594 0.447 1.01683 0.0
S811 S 0.06976 0.55201 0.89505 0.0
N812 N 0.08104 0.512 0.88364 0.0
N813 N 0.06076 0.54862 0.94058 0.0
C814 C 0.06672 0.51369 0.94862 0.0
C815 C 0.07809 0.49381 0.91755 0.0
C816 C 0.50688 0.90764 0.96691 0.0
C817 C 0.54268 0.89455 0.97251 0.0
C818 C 0.50147 0.93944 0.98624 0.0
C819 C 0.53227 0.95959 1.01064 0.0
H820 H 0.48299 0.89314 0.94771 0.0
H821 H 0.47337 0.9486 0.98168 0.0
S822 S 0.63128 0.93583 1.03495 0.0
N823 N 0.60878 0.90335 1.00447 0.0
N824 N 0.59924 0.96327 1.04006 0.0
C825 C 0.56813 0.94655 1.01628 0.0
C826 C 0.57319 0.91398 0.99734 0.0
C827 C 1.00364 0.1839 0.45018 0.0
C828 C 0.96354 0.18749 0.44436 0.0
C829 C 1.01356 0.15512 0.47318 0.0
C830 C 0.98362 0.12863 0.49064 0.0
H831 H 0.02751 0.20395 0.43759 0.0
H832 H 0.04496 0.15397 0.47762 0.0
S833 S 0.87357 0.12479 0.48129 0.0
N834 N 0.89363 0.16157 0.4559 0.0
N835 N 0.91169 0.10733 0.49858 0.0
C836 C 0.9432 0.13147 0.48384 0.0
C837 C 0.93333 0.16094 0.46085 0.0
C838 C 0.194 0.62844 0.11116 0.0
C839 C 0.19647 0.62899 0.15117 0.0
C840 C 0.1581 0.61267 0.09059 0.0
C841 C 0.12299 0.5966 0.10905 0.0
H842 H 0.21993 0.64108 0.09547 0.0
H843 H 0.15764 0.61392 1.05991 0.0
S844 S 0.11343 0.58908 0.21332 0.0
N845 N 0.16057 0.61075 0.20841 0.0
N846 N 0.09342 0.58071 0.16989 0.0
C847 C 0.12537 0.59546 0.14903 0.0
C848 C 0.16197 0.61168 0.17002 0.0
C849 C 0.33579 0.46461 0.63618 0.0
C850 C 0.33145 0.47971 0.67205 0.0
C851 C 0.3701 0.4774 0.61524 0.0
C852 C 0.40099 0.50684 0.62848 0.0
H853 H 0.31254 0.44249 0.62397 0.0
H854 H 0.37231 0.46431 0.58835 0.0
S855 S 0.40591 0.5564 0.72009 0.0
N856 N 0.363 0.52539 0.71999 0.0
N857 N 0.4255 0.55099 0.67938 0.0
C858 C 0.39683 0.52303 0.66355 0.0
C859 C 0.3626 0.50923 0.68553 0.0
C860 C 0.76404 0.64109 0.95568 0.0
C861 C 0.75434 0.67613 0.96086 0.0
C862 C 0.79968 0.63305 0.97196 0.0
C863 C 0.82703 0.65997 0.99357 0.0
H864 H 0.74489 0.62044 0.93741 0.0
H865 H 0.80704 0.60647 0.96561 0.0
S866 S 0.81378 0.75442 1.01881 0.0
N867 N 0.77346 0.73684 0.99163 0.0
N868 N 0.84035 0.72152 1.02236 0.0
C869 C 0.8165 0.69416 1.00095 0.0
C870 C 0.78011 0.70227 0.98462 0.0
C871 C 0.4578 0.92069 0.18381 0.0
C872 C 0.47941 0.89199 0.19033 0.0
C873 C 0.47353 0.9532 0.16265 0.0
C874 C 0.51119 0.95807 0.14642 0.0
H875 H 0.42847 0.91801 0.19524 0.0
H876 H 0.45588 0.97447 0.15874 0.0
S877 S 0.57865 0.89018 0.15311 0.0
N878 N 0.53992 0.87038 0.17778 0.0
N879 N 0.56902 0.93036 0.13768 0.0
C880 C 0.53277 0.92929 0.15243 0.0
C881 C 0.51706 0.89664 0.17441 0.0
C882 C 0.05388 0.16928 0.70122 0.0
C883 C 0.07248 0.20111 0.68084 0.0
C884 C 0.0359 0.13544 0.68254 0.0
C885 C 0.03597 0.13195 0.64275 0.0
H886 H 0.05425 0.17015 0.73188 0.0
H887 H 0.02241 0.11162 0.69949 0.0
S888 S 0.0768 0.20811 0.57586 0.0
N889 N 0.08642 0.22761 0.61811 0.0
N890 N 0.05409 0.16434 0.58362 0.0
C891 C 0.05346 0.16388 0.62207 0.0
C892 C 0.07122 0.19829 0.64091 0.0
C893 C 0.73322 0.41099 0.48415 0.0
C894 C 0.73149 0.39382 0.44854 0.0
C895 C 0.69854 0.41822 0.49943 0.0
C896 C 0.66102 0.40886 0.47949 0.0
H897 H 0.76153 0.41864 0.50049 0.0
H898 H 0.70103 0.43111 0.52712 0.0
S899 S 0.63957 0.36233 0.3861 0.0
N900 N 0.68844 0.36647 0.39442 0.0
N901 N 0.62369 0.38138 0.42287 0.0
C902 C 0.65879 0.39225 0.44375 0.0
C903 C 0.69393 0.38442 0.42833 0.0
loop_
_geom_bond_atom_site_label_1
_geom_bond_atom_site_label_2
_geom_bond_distance
_geom_bond_site_symmetry_2
_ccdc_geom_bond_type
C0 C1 1.391 . S
C0 C4 1.391 . S
C0 H42 0.948 . S
C1 C0 1.391 . S
C1 C2 1.391 . S
C2 C1 1.391 . S
C2 H58 0.947 . S
C2 C59 1.392 . S
C3 C4 1.391 . S
C3 C7 1.397 . S
C3 C59 1.419 . S
C4 C0 1.391 . S
C4 C3 1.391 . S
C4 C5 1.399 . S
C5 C4 1.399 . S
C5 C8 1.396 . S
C5 C17 1.453 . S
C5 C18 1.684 . S
H6 C30 0.948 . S
C7 C3 1.397 . S
C7 C8 1.394 . S
C7 C26 1.723 . S
C8 C5 1.396 . S
C8 C7 1.394 . S
C8 C38 1.723 . S
H9 C32 0.947 . S
H10 C33 0.948 . S
H11 C39 0.982 . S
H12 C40 0.979 . S
H13 C40 0.980 . S
H14 C40 0.983 . S
H15 C39 0.979 . S
H16 C39 0.977 . S
C17 C5 1.453 . S
C17 H46 0.982 . S
C17 H47 0.979 . S
C17 H48 0.977 . S
C18 C5 1.684 . S
C18 H43 0.979 . S
C18 H44 0.980 . S
C18 H45 0.983 . S
C19 C20 1.391 . S
C19 C24 1.391 . S
C19 H49 0.948 . S
C20 C19 1.391 . S
C20 C21 1.391 . S
C21 C20 1.391 . S
C21 C22 1.392 . S
C21 H50 0.947 . S
C22 C21 1.392 . S
C22 C23 1.419 . S
C22 H51 0.948 . S
C23 C22 1.419 . S
C23 C24 1.391 . S
C23 C27 1.397 . S
C24 C19 1.391 . S
C24 C23 1.391 . S
C24 C25 1.399 . S
C25 C24 1.399 . S
C25 C26 1.396 . S
C25 C28 1.453 . S
C25 C29 1.684 . S
C26 C7 1.723 . S
C26 C25 1.396 . S
C26 C27 1.394 . S
C27 C23 1.397 . S
C27 C26 1.394 . S
C27 C37 1.723 . S
C28 C25 1.453 . S
C28 H52 0.982 . S
C28 H53 0.979 . S
C28 H54 0.977 . S
C29 C25 1.684 . S
C29 H55 0.979 . S
C29 H56 0.980 . S
C29 H57 0.983 . S
C30 H6 0.948 . S
C30 C31 1.391 . S
C30 C35 1.391 . S
C31 C30 1.391 . S
C31 C32 1.391 . S
C32 H9 0.947 . S
C32 C31 1.391 . S
C32 C33 1.392 . S
C33 H10 0.948 . S
C33 C32 1.392 . S
C33 C34 1.419 . S
C34 C33 1.419 . S
C34 C35 1.391 . S
C34 C38 1.397 . S
C35 C30 1.391 . S
C35 C34 1.391 . S
C35 C36 1.399 . S
C36 C35 1.399 . S
C36 C37 1.396 . S
C36 C39 1.453 . S
C36 C40 1.684 . S
C37 C27 1.723 . S
C37 C36 1.396 . S
C37 C38 1.394 . S
C38 C8 1.723 . S
C38 C34 1.397 . S
C38 C37 1.394 . S
C39 H11 0.982 . S
C39 H15 0.979 . S
C39 H16 0.977 . S
C39 C36 1.453 . S
C40 H12 0.979 . S
C40 H13 0.980 . S
C40 H14 0.983 . S
C40 C36 1.684 . S
H41 C59 0.948 . S
H42 C0 0.948 . S
H43 C18 0.979 . S
H44 C18 0.980 . S
H45 C18 0.983 . S
H46 C17 0.982 . S
H47 C17 0.979 . S
H48 C17 0.977 . S
H49 C19 0.948 . S
H50 C21 0.947 . S
H51 C22 0.948 . S
H52 C28 0.982 . S
H53 C28 0.979 . S
H54 C28 0.977 . S
H55 C29 0.979 . S
H56 C29 0.980 . S
H57 C29 0.983 . S
H58 C2 0.947 . S
C59 C2 1.392 . S
C59 C3 1.419 . S
C59 H41 0.948 . S
C60 C61 1.391 . S
C60 C64 1.391 . S
C60 H102 0.948 . S
C61 C60 1.391 . S
C61 C62 1.391 . S
C62 C61 1.391 . S
C62 H118 0.947 . S
C62 C119 1.392 . S
C63 C64 1.391 . S
C63 C67 1.397 . S
C63 C119 1.419 . S
C64 C60 1.391 . S
C64 C63 1.391 . S
C64 C65 1.399 . S
C65 C64 1.399 . S
C65 C68 1.396 . S
C65 C77 1.453 . S
C65 C78 1.684 . S
H66 C90 0.948 . S
C67 C63 1.397 . S
C67 C68 1.394 . S
C67 C86 1.723 . S
C68 C65 1.396 . S
C68 C67 1.394 . S
C68 C98 1.723 . S
H69 C92 0.947 . S
H70 C93 0.948 . S
H71 C99 0.982 . S
H72 C100 0.979 . S
H73 C100 0.980 . S
H74 C100 0.983 . S
H75 C99 0.979 . S
H76 C99 0.977 . S
C77 C65 1.453 . S
C77 H106 0.982 . S
C77 H107 0.979 . S
C77 H108 0.977 . S
C78 C65 1.684 . S
C78 H103 0.979 . S
C78 H104 0.980 . S
C78 H105 0.983 . S
C79 C80 1.391 . S
C79 C84 1.391 . S
C79 H109 0.948 . S
C80 C79 1.391 . S
C80 C81 1.391 . S
C81 C80 1.391 . S
C81 C82 1.392 . S
C81 H110 0.947 . S
C82 C81 1.392 . S
C82 C83 1.419 . S
C82 H111 0.948 . S
C83 C82 1.419 . S
C83 C84 1.391 . S
C83 C87 1.397 . S
C84 C79 1.391 . S
C84 C83 1.391 . S
C84 C85 1.399 . S
C85 C84 1.399 . S
C85 C86 1.396 . S
C85 C88 1.453 . S
C85 C89 1.684 . S
C86 C67 1.723 . S
C86 C85 1.396 . S
C86 C87 1.394 . S
C87 C83 1.397 . S
C87 C86 1.394 . S
C87 C97 1.723 . S
C88 C85 1.453 . S
C88 H112 0.982 . S
C88 H113 0.979 . S
C88 H114 0.977 . S
C89 C85 1.684 . S
C89 H115 0.979 . S
C89 H116 0.980 . S
C89 H117 0.983 . S
C90 H66 0.948 . S
C90 C91 1.391 . S
C90 C95 1.391 . S
C91 C90 1.391 . S
C91 C92 1.391 . S
C92 H69 0.947 . S
C92 C91 1.391 . S
C92 C93 1.392 . S
C93 H70 0.948 . S
C93 C92 1.392 . S
C93 C94 1.419 . S
C94 C93 1.419 . S
C94 C95 1.391 . S
C94 C98 1.397 . S
C95 C90 1.391 . S
C95 C94 1.391 . S
C95 C96 1.399 . S
C96 C95 1.399 . S
C96 C97 1.396 . S
C96 C99 1.453 . S
C96 C100 1.684 . S
C97 C87 1.723 . S
C97 C96 1.396 . S
C97 C98 1.394 . S
C98 C68 1.723 . S
C98 C94 1.397 . S
C98 C97 1.394 . S
C99 H71 0.982 . S
C99 H75 0.979 . S
C99 H76 0.977 . S
C99 C96 1.453 . S
C100 H72 0.979 . S
C100 H73 0.980 . S
C100 H74 0.983 . S
C100 C96 1.684 . S
H101 C119 0.948 . S
H102 C60 0.948 . S
H103 C78 0.979 . S
H104 C78 0.980 . S
H105 C78 0.983 . S
H106 C77 0.982 . S
H107 C77 0.979 . S
H108 C77 0.977 . S
H109 C79 0.948 . S
H110 C81 0.947 . S
H111 C82 0.948 . S
H112 C88 0.982 . S
H113 C88 0.979 . S
H114 C88 0.977 . S
H115 C89 0.979 . S
H116 C89 0.980 . S
H117 C89 0.983 . S
H118 C62 0.947 . S
C119 C62 1.392 . S
C119 C63 1.419 . S
C119 H101 0.948 . S
C120 C121 1.391 . S
C120 C124 1.391 . S
C120 H162 0.948 . S
C121 C120 1.391 . S
C121 C122 1.391 . S
C122 C121 1.391 . S
C122 H178 0.947 . S
C122 C179 1.392 . S
C123 C124 1.391 . S
C123 C127 1.397 . S
C123 C179 1.419 . S
C124 C120 1.391 . S
C124 C123 1.391 . S
C124 C125 1.399 . S
C125 C124 1.399 . S
C125 C128 1.396 . S
C125 C137 1.453 . S
C125 C138 1.684 . S
H126 C150 0.948 . S
C127 C123 1.397 . S
C127 C128 1.394 . S
C127 C146 1.723 . S
C128 C125 1.396 . S
C128 C127 1.394 . S
C128 C158 1.723 . S
H129 C152 0.947 . S
H130 C153 0.948 . S
H131 C159 0.982 . S
H132 C160 0.979 . S
H133 C160 0.980 . S
H134 C160 0.983 . S
H135 C159 0.979 . S
H136 C159 0.977 . S
C137 C125 1.453 . S
C137 H166 0.982 . S
C137 H167 0.979 . S
C137 H168 0.977 . S
C138 C125 1.684 . S
C138 H163 0.979 . S
C138 H164 0.980 . S
C138 H165 0.983 . S
C139 C140 1.391 . S
C139 C144 1.391 . S
C139 H169 0.948 . S
C140 C139 1.391 . S
C140 C141 1.391 . S
C141 C140 1.391 . S
C141 C142 1.392 . S
C141 H170 0.947 . S
C142 C141 1.392 . S
C142 C143 1.419 . S
C142 H171 0.948 . S
C143 C142 1.419 . S
C143 C144 1.391 . S
C143 C147 1.397 . S
C144 C139 1.391 . S
C144 C143 1.391 . S
C144 C145 1.399 . S
C145 C144 1.399 . S
C145 C146 1.396 . S
C145 C148 1.453 . S
C145 C149 1.684 . S
C146 C127 1.723 . S
C146 C145 1.396 . S
C146 C147 1.394 . S
C147 C143 1.397 . S
C147 C146 1.394 . S
C147 C157 1.723 . S
C148 C145 1.453 . S
C148 H172 0.982 . S
C148 H173 0.979 . S
C148 H174 0.977 . S
C149 C145 1.684 . S
C149 H175 0.979 . S
C149 H176 0.980 . S
C149 H177 0.983 . S
C150 H126 0.948 . S
C150 C151 1.391 . S
C150 C155 1.391 . S
C151 C150 1.391 . S
C151 C152 1.391 . S
C152 H129 0.947 . S
C152 C151 1.391 . S
C152 C153 1.392 . S
C153 H130 0.948 . S
C153 C152 1.392 . S
C153 C154 1.419 . S
C154 C153 1.419 . S
C154 C155 1.391 . S
C154 C158 1.397 . S
C155 C150 1.391 . S
C155 C154 1.391 . S
C155 C156 1.399 . S
C156 C155 1.399 . S
C156 C157 1.396 . S
C156 C159 1.453 . S
C156 C160 1.684 . S
C157 C147 1.723 . S
C157 C156 1.396 . S
C157 C158 1.394 . S
C158 C128 1.723 . S
C158 C154 1.397 . S
C158 C157 1.394 . S
C159 H131 0.982 . S
C159 H135 0.979 . S
C159 H136 0.977 . S
C159 C156 1.453 . S
C160 H132 0.979 . S
C160 H133 0.980 . S
C160 H134 0.983 . S
C160 C156 1.684 . S
H161 C179 0.948 . S
H162 C120 0.948 . S
H163 C138 0.979 . S
H164 C138 0.980 . S
H165 C138 0.983 . S
H166 C137 0.982 . S
H167 C137 0.979 . S
H168 C137 0.977 . S
H169 C139 0.948 . S
H170 C141 0.947 . S
H171 C142 0.948 . S
H172 C148 0.982 . S
H173 C148 0.979 . S
H174 C148 0.977 . S
H175 C149 0.979 . S
H176 C149 0.980 . S
H177 C149 0.983 . S
H178 C122 0.947 . S
C179 C122 1.392 . S
C179 C123 1.419 . S
C179 H161 0.948 . S
C180 C181 1.391 . S
C180 C184 1.391 . S
C180 H222 0.948 . S
C181 C180 1.391 . S
C181 C182 1.391 . S
C182 C181 1.391 . S
C182 H238 0.947 . S
C182 C239 1.392 . S
C183 C184 1.391 . S
C183 C187 1.397 . S
C183 C239 1.419 . S
C184 C180 1.391 . S
C184 C183 1.391 . S
C184 C185 1.399 . S
C185 C184 1.399 . S
C185 C188 1.396 . S
C185 C197 1.453 . S
C185 C198 1.684 . S
H186 C210 0.948 . S
C187 C183 1.397 . S
C187 C188 1.394 . S
C187 C206 1.723 . S
C188 C185 1.396 . S
C188 C187 1.394 . S
C188 C218 1.723 . S
H189 C212 0.947 . S
H190 C213 0.948 . S
H191 C219 0.982 . S
H192 C220 0.979 . S
H193 C220 0.980 . S
H194 C220 0.983 . S
H195 C219 0.979 . S
H196 C219 0.977 . S
C197 C185 1.453 . S
C197 H226 0.982 . S
C197 H227 0.979 . S
C197 H228 0.977 . S
C198 C185 1.684 . S
C198 H223 0.979 . S
C198 H224 0.980 . S
C198 H225 0.983 . S
C199 C200 1.391 . S
C199 C204 1.391 . S
C199 H229 0.948 . S
C200 C199 1.391 . S
C200 C201 1.391 . S
C201 C200 1.391 . S
C201 C202 1.392 . S
C201 H230 0.947 . S
C202 C201 1.392 . S
C202 C203 1.419 . S
C202 H231 0.948 . S
C203 C202 1.419 . S
C203 C204 1.391 . S
C203 C207 1.397 . S
C204 C199 1.391 . S
C204 C203 1.391 . S
C204 C205 1.399 . S
C205 C204 1.399 . S
C205 C206 1.396 . S
C205 C208 1.453 . S
C205 C209 1.684 . S
C206 C187 1.723 . S
C206 C205 1.396 . S
C206 C207 1.394 . S
C207 C203 1.397 . S
C207 C206 1.394 . S
C207 C217 1.723 . S
C208 C205 1.453 . S
C208 H232 0.982 . S
C208 H233 0.979 . S
C208 H234 0.977 . S
C209 C205 1.684 . S
C209 H235 0.979 . S
C209 H236 0.980 . S
C209 H237 0.983 . S
C210 H186 0.948 . S
C210 C211 1.391 . S
C210 C215 1.391 . S
C211 C210 1.391 . S
C211 C212 1.391 . S
C212 H189 0.947 . S
C212 C211 1.391 . S
C212 C213 1.392 . S
C213 H190 0.948 . S
C213 C212 1.392 . S
C213 C214 1.419 . S
C214 C213 1.419 . S
C214 C215 1.391 . S
C214 C218 1.397 . S
C215 C210 1.391 . S
C215 C214 1.391 . S
C215 C216 1.399 . S
C216 C215 1.399 . S
C216 C217 1.396 . S
C216 C219 1.453 . S
C216 C220 1.684 . S
C217 C207 1.723 . S
C217 C216 1.396 . S
C217 C218 1.394 . S
C218 C188 1.723 . S
C218 C214 1.397 . S
C218 C217 1.394 . S
C219 H191 0.982 . S
C219 H195 0.979 . S
C219 H196 0.977 . S
C219 C216 1.453 . S
C220 H192 0.979 . S
C220 H193 0.980 . S
C220 H194 0.983 . S
C220 C216 1.684 . S
H221 C239 0.948 . S
H222 C180 0.948 . S
H223 C198 0.979 . S
H224 C198 0.980 . S
H225 C198 0.983 . S
H226 C197 0.982 . S
H227 C197 0.979 . S
H228 C197 0.977 . S
H229 C199 0.948 . S
H230 C201 0.947 . S
H231 C202 0.948 . S
H232 C208 0.982 . S
H233 C208 0.979 . S
H234 C208 0.977 . S
H235 C209 0.979 . S
H236 C209 0.980 . S
H237 C209 0.983 . S
H238 C182 0.947 . S
C239 C182 1.392 . S
C239 C183 1.419 . S
C239 H221 0.948 . S
C240 C241 1.391 . S
C240 C244 1.391 . S
C240 H282 0.948 . S
C241 C240 1.391 . S
C241 C242 1.391 . S
C242 C241 1.391 . S
C242 H298 0.947 . S
C242 C299 1.392 . S
C243 C244 1.391 . S
C243 C247 1.397 . S
C243 C299 1.419 . S
C244 C240 1.391 . S
C244 C243 1.391 . S
C244 C245 1.399 . S
C245 C244 1.399 . S
C245 C248 1.396 . S
C245 C257 1.453 . S
C245 C258 1.684 . S
H246 C270 0.948 . S
C247 C243 1.397 . S
C247 C248 1.394 . S
C247 C266 1.723 . S
C248 C245 1.396 . S
C248 C247 1.394 . S
C248 C278 1.723 . S
H249 C272 0.947 . S
H250 C273 0.948 . S
H251 C279 0.982 . S
H252 C280 0.979 . S
H253 C280 0.980 . S
H254 C280 0.983 . S
H255 C279 0.979 . S
H256 C279 0.977 . S
C257 C245 1.453 . S
C257 H286 0.982 . S
C257 H287 0.979 . S
C257 H288 0.977 . S
C258 C245 1.684 . S
C258 H283 0.979 . S
C258 H284 0.980 . S
C258 H285 0.983 . S
C259 C260 1.391 . S
C259 C264 1.391 . S
C259 H289 0.948 . S
C260 C259 1.391 . S
C260 C261 1.391 . S
C261 C260 1.391 . S
C261 C262 1.392 . S
C261 H290 0.947 . S
C262 C261 1.392 . S
C262 C263 1.419 . S
C262 H291 0.948 . S
C263 C262 1.419 . S
C263 C264 1.391 . S
C263 C267 1.397 . S
C264 C259 1.391 . S
C264 C263 1.391 . S
C264 C265 1.399 . S
C265 C264 1.399 . S
C265 C266 1.396 . S
C265 C268 1.453 . S
C265 C269 1.684 . S
C266 C247 1.723 . S
C266 C265 1.396 . S
C266 C267 1.394 . S
C267 C263 1.397 . S
C267 C266 1.394 . S
C267 C277 1.723 . S
C268 C265 1.453 . S
C268 H292 0.982 . S
C268 H293 0.979 . S
C268 H294 0.977 . S
C269 C265 1.684 . S
C269 H295 0.979 . S
C269 H296 0.980 . S
C269 H297 0.983 . S
C270 H246 0.948 . S
C270 C271 1.391 . S
C270 C275 1.391 . S
C271 C270 1.391 . S
C271 C272 1.391 . S
C272 H249 0.947 . S
C272 C271 1.391 . S
C272 C273 1.392 . S
C273 H250 0.948 . S
C273 C272 1.392 . S
C273 C274 1.419 . S
C274 C273 1.419 . S
C274 C275 1.391 . S
C274 C278 1.397 . S
C275 C270 1.391 . S
C275 C274 1.391 . S
C275 C276 1.399 . S
C276 C275 1.399 . S
C276 C277 1.396 . S
C276 C279 1.453 . S
C276 C280 1.684 . S
C277 C267 1.723 . S
C277 C276 1.396 . S
C277 C278 1.394 . S
C278 C248 1.723 . S
C278 C274 1.397 . S
C278 C277 1.394 . S
C279 H251 0.982 . S
C279 H255 0.979 . S
C279 H256 0.977 . S
C279 C276 1.453 . S
C280 H252 0.979 . S
C280 H253 0.980 . S
C280 H254 0.983 . S
C280 C276 1.684 . S
H281 C299 0.948 . S
H282 C240 0.948 . S
H283 C258 0.979 . S
H284 C258 0.980 . S
H285 C258 0.983 . S
H286 C257 0.982 . S
H287 C257 0.979 . S
H288 C257 0.977 . S
H289 C259 0.948 . S
H290 C261 0.947 . S
H291 C262 0.948 . S
H292 C268 0.982 . S
H293 C268 0.979 . S
H294 C268 0.977 . S
H295 C269 0.979 . S
H296 C269 0.980 . S
H297 C269 0.983 . S
H298 C242 0.947 . S
C299 C242 1.392 . S
C299 C243 1.419 . S
C299 H281 0.948 . S
C300 C301 1.391 . S
C300 C304 1.391 . S
C300 H342 0.948 . S
C301 C300 1.391 . S
C301 C302 1.391 . S
C302 C301 1.391 . S
C302 H358 0.947 . S
C302 C359 1.392 . S
C303 C304 1.391 . S
C303 C307 1.397 . S
C303 C359 1.419 . S
C304 C300 1.391 . S
C304 C303 1.391 . S
C304 C305 1.399 . S
C305 C304 1.399 . S
C305 C308 1.396 . S
C305 C317 1.453 . S
C305 C318 1.684 . S
H306 C330 0.948 . S
C307 C303 1.397 . S
C307 C308 1.394 . S
C307 C326 1.723 . S
C308 C305 1.396 . S
C308 C307 1.394 . S
C308 C338 1.723 . S
H309 C332 0.947 . S
H310 C333 0.948 . S
H311 C339 0.982 . S
H312 C340 0.979 . S
H313 C340 0.980 . S
H314 C340 0.983 . S
H315 C339 0.979 . S
H316 C339 0.977 . S
C317 C305 1.453 . S
C317 H346 0.982 . S
C317 H347 0.979 . S
C317 H348 0.977 . S
C318 C305 1.684 . S
C318 H343 0.979 . S
C318 H344 0.980 . S
C318 H345 0.983 . S
C319 C320 1.391 . S
C319 C324 1.391 . S
C319 H349 0.948 . S
C320 C319 1.391 . S
C320 C321 1.391 . S
C321 C320 1.391 . S
C321 C322 1.392 . S
C321 H350 0.947 . S
C322 C321 1.392 . S
C322 C323 1.419 . S
C322 H351 0.948 . S
C323 C322 1.419 . S
C323 C324 1.391 . S
C323 C327 1.397 . S
C324 C319 1.391 . S
C324 C323 1.391 . S
C324 C325 1.399 . S
C325 C324 1.399 . S
C325 C326 1.396 . S
C325 C328 1.453 . S
C325 C329 1.684 . S
C326 C307 1.723 . S
C326 C325 1.396 . S
C326 C327 1.394 . S
C327 C323 1.397 . S
C327 C326 1.394 . S
C327 C337 1.723 . S
C328 C325 1.453 . S
C328 H352 0.982 . S
C328 H353 0.979 . S
C328 H354 0.977 . S
C329 C325 1.684 . S
C329 H355 0.979 . S
C329 H356 0.980 . S
C329 H357 0.983 . S
C330 H306 0.948 . S
C330 C331 1.391 . S
C330 C335 1.391 . S
C331 C330 1.391 . S
C331 C332 1.391 . S
C332 H309 0.947 . S
C332 C331 1.391 . S
C332 C333 1.392 . S
C333 H310 0.948 . S
C333 C332 1.392 . S
C333 C334 1.419 . S
C334 C333 1.419 . S
C334 C335 1.391 . S
C334 C338 1.397 . S
C335 C330 1.391 . S
C335 C334 1.391 . S
C335 C336 1.399 . S
C336 C335 1.399 . S
C336 C337 1.396 . S
C336 C339 1.453 . S
C336 C340 1.684 . S
C337 C327 1.723 . S
C337 C336 1.396 . S
C337 C338 1.394 . S
C338 C308 1.723 . S
C338 C334 1.397 . S
C338 C337 1.394 . S
C339 H311 0.982 . S
C339 H315 0.979 . S
C339 H316 0.977 . S
C339 C336 1.453 . S
C340 H312 0.979 . S
C340 H313 0.980 . S
C340 H314 0.983 . S
C340 C336 1.684 . S
H341 C359 0.948 . S
H342 C300 0.948 . S
H343 C318 0.979 . S
H344 C318 0.980 . S
H345 C318 0.983 . S
H346 C317 0.982 . S
H347 C317 0.979 . S
H348 C317 0.977 . S
H349 C319 0.948 . S
H350 C321 0.947 . S
H351 C322 0.948 . S
H352 C328 0.982 . S
H353 C328 0.979 . S
H354 C328 0.977 . S
H355 C329 0.979 . S
H356 C329 0.980 . S
H357 C329 0.983 . S
H358 C302 0.947 . S
C359 C302 1.392 . S
C359 C303 1.419 . S
C359 H341 0.948 . S
C360 C361 1.391 . S
C360 C364 1.391 . S
C360 H402 0.948 . S
C361 C360 1.391 . S
C361 C362 1.391 . S
C362 C361 1.391 . S
C362 H418 0.947 . S
C362 C419 1.392 . S
C363 C364 1.391 . S
C363 C367 1.397 . S
C363 C419 1.419 . S
C364 C360 1.391 . S
C364 C363 1.391 . S
C364 C365 1.399 . S
C365 C364 1.399 . S
C365 C368 1.396 . S
C365 C377 1.453 . S
C365 C378 1.684 . S
H366 C390 0.948 . S
C367 C363 1.397 . S
C367 C368 1.394 . S
C367 C386 1.723 . S
C368 C365 1.396 . S
C368 C367 1.394 . S
C368 C398 1.723 . S
H369 C392 0.947 . S
H370 C393 0.948 . S
H371 C399 0.982 . S
H372 C400 0.979 . S
H373 C400 0.980 . S
H374 C400 0.983 . S
H375 C399 0.979 . S
H376 C399 0.977 . S
C377 C365 1.453 . S
C377 H406 0.982 . S
C377 H407 0.979 . S
C377 H408 0.977 . S
C378 C365 1.684 . S
C378 H403 0.979 . S
C378 H404 0.980 . S
C378 H405 0.983 . S
C379 C380 1.391 . S
C379 C384 1.391 . S
C379 H409 0.948 . S
C380 C379 1.391 . S
C380 C381 1.391 . S
C381 C380 1.391 . S
C381 C382 1.392 . S
C381 H410 0.947 . S
C382 C381 1.392 . S
C382 C383 1.419 . S
C382 H411 0.948 . S
C383 C382 1.419 . S
C383 C384 1.391 . S
C383 C387 1.397 . S
C384 C379 1.391 . S
C384 C383 1.391 . S
C384 C385 1.399 . S
C385 C384 1.399 . S
C385 C386 1.396 . S
C385 C388 1.453 . S
C385 C389 1.684 . S
C386 C367 1.723 . S
C386 C385 1.396 . S
C386 C387 1.394 . S
C387 C383 1.397 . S
C387 C386 1.394 . S
C387 C397 1.723 . S
C388 C385 1.453 . S
C388 H412 0.982 . S
C388 H413 0.979 . S
C388 H414 0.977 . S
C389 C385 1.684 . S
C389 H415 0.979 . S
C389 H416 0.980 . S
C389 H417 0.983 . S
C390 H366 0.948 . S
C390 C391 1.391 . S
C390 C395 1.391 . S
C391 C390 1.391 . S
C391 C392 1.391 . S
C392 H369 0.947 . S
C392 C391 1.391 . S
C392 C393 1.392 . S
C393 H370 0.948 . S
C393 C392 1.392 . S
C393 C394 1.419 . S
C394 C393 1.419 . S
C394 C395 1.391 . S
C394 C398 1.397 . S
C395 C390 1.391 . S
C395 C394 1.391 . S
C395 C396 1.399 . S
C396 C395 1.399 . S
C396 C397 1.396 . S
C396 C399 1.453 . S
C396 C400 1.684 . S
C397 C387 1.723 . S
C397 C396 1.396 . S
C397 C398 1.394 . S
C398 C368 1.723 . S
C398 C394 1.397 . S
C398 C397 1.394 . S
C399 H371 0.982 . S
C399 H375 0.979 . S
C399 H376 0.977 . S
C399 C396 1.453 . S
C400 H372 0.979 . S
C400 H373 0.980 . S
C400 H374 0.983 . S
C400 C396 1.684 . S
H401 C419 0.948 . S
H402 C360 0.948 . S
H403 C378 0.979 . S
H404 C378 0.980 . S
H405 C378 0.983 . S
H406 C377 0.982 . S
H407 C377 0.979 . S
H408 C377 0.977 . S
H409 C379 0.948 . S
H410 C381 0.947 . S
H411 C382 0.948 . S
H412 C388 0.982 . S
H413 C388 0.979 . S
H414 C388 0.977 . S
H415 C389 0.979 . S
H416 C389 0.980 . S
H417 C389 0.983 . S
H418 C362 0.947 . S
C419 C362 1.392 . S
C419 C363 1.419 . S
C419 H401 0.948 . S
C420 C421 1.391 . S
C420 C424 1.391 . S
C420 H462 0.948 . S
C421 C420 1.391 . S
C421 C422 1.391 . S
C422 C421 1.391 . S
C422 H478 0.947 . S
C422 C479 1.392 . S
C423 C424 1.391 . S
C423 C427 1.397 . S
C423 C479 1.419 . S
C424 C420 1.391 . S
C424 C423 1.391 . S
C424 C425 1.399 . S
C425 C424 1.399 . S
C425 C428 1.396 . S
C425 C437 1.453 . S
C425 C438 1.684 . S
H426 C450 0.948 . S
C427 C423 1.397 . S
C427 C428 1.394 . S
C427 C446 1.723 . S
C428 C425 1.396 . S
C428 C427 1.394 . S
C428 C458 1.723 . S
H429 C452 0.947 . S
H430 C453 0.948 . S
H431 C459 0.982 . S
H432 C460 0.979 . S
H433 C460 0.980 . S
H434 C460 0.983 . S
H435 C459 0.979 . S
H436 C459 0.977 . S
C437 C425 1.453 . S
C437 H466 0.982 . S
C437 H467 0.979 . S
C437 H468 0.977 . S
C438 C425 1.684 . S
C438 H463 0.979 . S
C438 H464 0.980 . S
C438 H465 0.983 . S
C439 C440 1.391 . S
C439 C444 1.391 . S
C439 H469 0.948 . S
C440 C439 1.391 . S
C440 C441 1.391 . S
C441 C440 1.391 . S
C441 C442 1.392 . S
C441 H470 0.947 . S
C442 C441 1.392 . S
C442 C443 1.419 . S
C442 H471 0.948 . S
C443 C442 1.419 . S
C443 C444 1.391 . S
C443 C447 1.397 . S
C444 C439 1.391 . S
C444 C443 1.391 . S
C444 C445 1.399 . S
C445 C444 1.399 . S
C445 C446 1.396 . S
C445 C448 1.453 . S
C445 C449 1.684 . S
C446 C427 1.723 . S
C446 C445 1.396 . S
C446 C447 1.394 . S
C447 C443 1.397 . S
C447 C446 1.394 . S
C447 C457 1.723 . S
C448 C445 1.453 . S
C448 H472 0.982 . S
C448 H473 0.979 . S
C448 H474 0.977 . S
C449 C445 1.684 . S
C449 H475 0.979 . S
C449 H476 0.980 . S
C449 H477 0.983 . S
C450 H426 0.948 . S
C450 C451 1.391 . S
C450 C455 1.391 . S
C451 C450 1.391 . S
C451 C452 1.391 . S
C452 H429 0.947 . S
C452 C451 1.391 . S
C452 C453 1.392 . S
C453 H430 0.948 . S
C453 C452 1.392 . S
C453 C454 1.419 . S
C454 C453 1.419 . S
C454 C455 1.391 . S
C454 C458 1.397 . S
C455 C450 1.391 . S
C455 C454 1.391 . S
C455 C456 1.399 . S
C456 C455 1.399 . S
C456 C457 1.396 . S
C456 C459 1.453 . S
C456 C460 1.684 . S
C457 C447 1.723 . S
C457 C456 1.396 . S
C457 C458 1.394 . S
C458 C428 1.723 . S
C458 C454 1.397 . S
C458 C457 1.394 . S
C459 H431 0.982 . S
C459 H435 0.979 . S
C459 H436 0.977 . S
C459 C456 1.453 . S
C460 H432 0.979 . S
C460 H433 0.980 . S
C460 H434 0.983 . S
C460 C456 1.684 . S
H461 C479 0.948 . S
H462 C420 0.948 . S
H463 C438 0.979 . S
H464 C438 0.980 . S
H465 C438 0.983 . S
H466 C437 0.982 . S
H467 C437 0.979 . S
H468 C437 0.977 . S
H469 C439 0.948 . S
H470 C441 0.947 . S
H471 C442 0.948 . S
H472 C448 0.982 . S
H473 C448 0.979 . S
H474 C448 0.977 . S
H475 C449 0.979 . S
H476 C449 0.980 . S
H477 C449 0.983 . S
H478 C422 0.947 . S
C479 C422 1.392 . S
C479 C423 1.419 . S
C479 H461 0.948 . S
Tb480 C482 2.809 . S
Tb480 O500 2.484 . S
Tb480 O501 2.440 . S
Tb480 O502 2.658 1_665 S
Tb480 O503 2.409 1_565 S
Tb480 O504 2.367 1_655 S
Tb480 O508 2.325 . S
Tb480 O511 2.341 1_565 S
Tb481 C491 2.809 . S
Tb481 O502 2.325 . S
Tb481 O505 2.341 1_545 S
Tb481 O506 2.484 . S
Tb481 O507 2.440 . S
Tb481 O508 2.658 1_445 S
Tb481 O509 2.409 1_545 S
Tb481 O510 2.373 1_455 S
C482 Tb480 2.809 . S
C482 C483 1.514 . S
C482 O500 1.248 . S
C482 O501 1.266 . S
C483 C482 1.514 . S
C483 C484 1.359 . S
C483 C488 1.348 . S
C484 C483 1.359 . S
C484 C485 1.380 . S
C484 H512 0.929 . S
C485 C484 1.380 . S
C485 C486 1.347 . S
C485 H513 0.931 . S
C486 C485 1.347 . S
C486 C487 1.369 . S
C487 C486 1.369 . S
C487 C488 1.408 . S
C487 H514 0.930 . S
C488 C483 1.348 . S
C488 C487 1.408 . S
C488 H515 0.930 . S
C489 O502 1.281 . S
C489 O503 1.254 1_455 S
C490 O504 1.248 . S
C490 O505 1.266 . S
C491 Tb481 2.809 . S
C491 C492 1.514 . S
C491 O506 1.248 . S
C491 O507 1.266 . S
C492 C491 1.514 . S
C492 C493 1.359 . S
C492 C497 1.348 . S
C493 C492 1.359 . S
C493 C494 1.380 . S
C493 H516 0.929 . S
C494 C493 1.380 . S
C494 C495 1.347 . S
C494 H517 0.931 . S
C495 C494 1.347 . S
C495 C496 1.369 . S
C496 C495 1.369 . S
C496 C497 1.408 . S
C496 H518 0.930 . S
C497 C492 1.348 . S
C497 C496 1.408 . S
C497 H519 0.930 . S
C498 O508 1.281 . S
C498 O509 1.254 1_655 S
C499 O510 1.242 . S
C499 O511 1.266 . S
O500 Tb480 2.484 . S
O500 C482 1.248 . S
O501 Tb480 2.440 . S
O501 C482 1.266 . S
O502 Tb480 2.658 1_445 S
O502 Tb481 2.325 . S
O502 C489 1.281 . S
O503 Tb480 2.409 1_545 S
O503 C489 1.254 1_655 S
O504 Tb480 2.367 1_455 S
O504 C490 1.248 . S
O505 Tb481 2.341 1_565 S
O505 C490 1.266 . S
O506 Tb481 2.484 . S
O506 C491 1.248 . S
O507 Tb481 2.440 . S
O507 C491 1.266 . S
O508 Tb480 2.325 . S
O508 Tb481 2.658 1_665 S
O508 C498 1.281 . S
O509 Tb481 2.409 1_565 S
O509 C498 1.254 1_455 S
O510 Tb481 2.373 1_655 S
O510 C499 1.242 . S
O511 Tb480 2.341 1_545 S
O511 C499 1.266 . S
H512 C484 0.929 . S
H513 C485 0.931 . S
H514 C487 0.930 . S
H515 C488 0.930 . S
H516 C493 0.929 . S
H517 C494 0.931 . S
H518 C496 0.930 . S
H519 C497 0.930 . S
Tb520 C522 2.809 . S
Tb520 O540 2.484 . S
Tb520 O541 2.440 . S
Tb520 O542 2.658 1_545 S
Tb520 O543 2.409 1_545 S
Tb520 O544 2.378 . S
Tb520 O548 2.325 1_554 S
Tb520 O551 2.341 1_544 S
Tb521 C531 2.809 . S
Tb521 O542 2.325 1_556 S
Tb521 O545 2.341 1_566 S
Tb521 O546 2.484 . S
Tb521 O547 2.440 . S
Tb521 O548 2.658 1_565 S
Tb521 O549 2.409 1_565 S
Tb521 O550 2.378 . S
C522 Tb520 2.809 . S
C522 C523 1.514 . S
C522 O540 1.248 . S
C522 O541 1.266 . S
C523 C522 1.514 . S
C523 C524 1.359 . S
C523 C528 1.348 . S
C524 C523 1.359 . S
C524 C525 1.380 . S
C524 H552 0.929 . S
C525 C524 1.380 . S
C525 C526 1.347 . S
C525 H553 0.931 . S
C526 C525 1.347 . S
C526 C527 1.369 . S
C527 C526 1.369 . S
C527 C528 1.408 . S
C527 H554 0.930 . S
C528 C523 1.348 . S
C528 C527 1.408 . S
C528 H555 0.930 . S
C529 O542 1.281 . S
C529 O543 1.254 . S
C530 O544 1.236 . S
C530 O545 1.266 . S
C531 Tb521 2.809 . S
C531 C532 1.514 . S
C531 O546 1.248 . S
C531 O547 1.266 . S
C532 C531 1.514 . S
C532 C533 1.359 . S
C532 C537 1.348 . S
C533 C532 1.359 . S
C533 C534 1.380 . S
C533 H556 0.929 . S
C534 C533 1.380 . S
C534 C535 1.347 . S
C534 H557 0.931 . S
C535 C534 1.347 . S
C535 C536 1.369 . S
C536 C535 1.369 . S
C536 C537 1.408 . S
C536 H558 0.930 . S
C537 C532 1.348 . S
C537 C536 1.408 . S
C537 H559 0.930 . S
C538 O548 1.281 . S
C538 O549 1.254 . S
C539 O550 1.236 . S
C539 O551 1.266 . S
O540 Tb520 2.484 . S
O540 C522 1.248 . S
O541 Tb520 2.440 . S
O541 C522 1.266 . S
O542 Tb520 2.658 1_565 S
O542 Tb521 2.325 1_554 S
O542 C529 1.281 . S
O543 Tb520 2.409 1_565 S
O543 C529 1.254 . S
O544 Tb520 2.378 . S
O544 C530 1.236 . S
O545 Tb521 2.341 1_544 S
O545 C530 1.266 . S
O546 Tb521 2.484 . S
O546 C531 1.248 . S
O547 Tb521 2.440 . S
O547 C531 1.266 . S
O548 Tb520 2.325 1_556 S
O548 Tb521 2.658 1_545 S
O548 C538 1.281 . S
O549 Tb521 2.409 1_545 S
O549 C538 1.254 . S
O550 Tb521 2.378 . S
O550 C539 1.236 . S
O551 Tb520 2.341 1_566 S
O551 C539 1.266 . S
H552 C524 0.929 . S
H553 C525 0.931 . S
H554 C527 0.930 . S
H555 C528 0.930 . S
H556 C533 0.929 . S
H557 C534 0.931 . S
H558 C536 0.930 . S
H559 C537 0.930 . S
Tb560 C562 2.809 . S
Tb560 O580 2.484 . S
Tb560 O581 2.440 . S
Tb560 O582 2.658 . S
Tb560 O583 2.409 . S
Tb560 O584 2.378 . S
Tb560 O588 2.325 . S
Tb560 O591 2.341 . S
Tb561 C571 2.809 . S
Tb561 O582 2.325 . S
Tb561 O585 2.341 . S
Tb561 O586 2.484 . S
Tb561 O587 2.440 . S
Tb561 O588 2.658 . S
Tb561 O589 2.409 . S
Tb561 O590 2.378 . S
C562 Tb560 2.809 . S
C562 C563 1.514 . S
C562 O580 1.248 . S
C562 O581 1.266 . S
C563 C562 1.514 . S
C563 C564 1.359 . S
C563 C568 1.348 . S
C564 C563 1.359 . S
C564 C565 1.380 . S
C564 H592 0.929 . S
C565 C564 1.380 . S
C565 C566 1.347 . S
C565 H593 0.931 . S
C566 C565 1.347 . S
C566 C567 1.369 . S
C567 C566 1.369 . S
C567 C568 1.408 . S
C567 H594 0.930 . S
C568 C563 1.348 . S
C568 C567 1.408 . S
C568 H595 0.930 . S
C569 O582 1.281 . S
C569 O583 1.254 . S
C570 O584 1.236 . S
C570 O585 1.266 . S
C571 Tb561 2.809 . S
C571 C572 1.514 . S
C571 O586 1.248 . S
C571 O587 1.266 . S
C572 C571 1.514 . S
C572 C573 1.359 . S
C572 C577 1.348 . S
C573 C572 1.359 . S
C573 C574 1.380 . S
C573 H596 0.929 . S
C574 C573 1.380 . S
C574 C575 1.347 . S
C574 H597 0.931 . S
C575 C574 1.347 . S
C575 C576 1.369 . S
C576 C575 1.369 . S
C576 C577 1.408 . S
C576 H598 0.930 . S
C577 C572 1.348 . S
C577 C576 1.408 . S
C577 H599 0.930 . S
C578 O588 1.281 . S
C578 O589 1.254 . S
C579 O590 1.236 . S
C579 O591 1.266 . S
O580 Tb560 2.484 . S
O580 C562 1.248 . S
O581 Tb560 2.440 . S
O581 C562 1.266 . S
O582 Tb560 2.658 . S
O582 Tb561 2.325 . S
O582 C569 1.281 . S
O583 Tb560 2.409 . S
O583 C569 1.254 . S
O584 Tb560 2.378 . S
O584 C570 1.236 . S
O585 Tb561 2.341 . S
O585 C570 1.266 . S
O586 Tb561 2.484 . S
O586 C571 1.248 . S
O587 Tb561 2.440 . S
O587 C571 1.266 . S
O588 Tb560 2.325 . S
O588 Tb561 2.658 . S
O588 C578 1.281 . S
O589 Tb561 2.409 . S
O589 C578 1.254 . S
O590 Tb561 2.378 . S
O590 C579 1.236 . S
O591 Tb560 2.341 . S
O591 C579 1.266 . S
H592 C564 0.929 . S
H593 C565 0.931 . S
H594 C567 0.930 . S
H595 C568 0.930 . S
H596 C573 0.929 . S
H597 C574 0.931 . S
H598 C576 0.930 . S
H599 C577 0.930 . S
Tb600 C602 2.809 . S
Tb600 O620 2.484 . S
Tb600 O621 2.440 . S
Tb600 O622 2.658 1_656 S
Tb600 O623 2.401 1_656 S
Tb600 O624 2.378 1_556 S
Tb600 O628 2.325 . S
Tb600 O631 2.341 1_655 S
Tb601 C611 2.809 . S
Tb601 O622 2.325 . S
Tb601 O625 2.341 1_455 S
Tb601 O626 2.484 . S
Tb601 O627 2.440 . S
Tb601 O628 2.658 1_454 S
Tb601 O629 2.406 1_454 S
Tb601 O630 2.378 1_554 S
C602 Tb600 2.809 . S
C602 C603 1.514 . S
C602 O620 1.248 . S
C602 O621 1.266 . S
C603 C602 1.514 . S
C603 C604 1.359 . S
C603 C608 1.348 . S
C604 C603 1.359 . S
C604 C605 1.380 . S
C604 H632 0.929 . S
C605 C604 1.380 . S
C605 C606 1.347 . S
C605 H633 0.931 . S
C606 C605 1.347 . S
C606 C607 1.369 . S
C607 C606 1.369 . S
C607 C608 1.408 . S
C607 H634 0.930 . S
C608 C603 1.348 . S
C608 C607 1.408 . S
C608 H635 0.930 . S
C609 O622 1.281 . S
C609 O623 1.262 . S
C610 O624 1.236 . S
C610 O625 1.266 . S
C611 Tb601 2.809 . S
C611 C612 1.514 . S
C611 O626 1.248 . S
C611 O627 1.266 . S
C612 C611 1.514 . S
C612 C613 1.359 . S
C612 C617 1.348 . S
C613 C612 1.359 . S
C613 C614 1.380 . S
C613 H636 0.929 . S
C614 C613 1.380 . S
C614 C615 1.347 . S
C614 H637 0.931 . S
C615 C614 1.347 . S
C615 C616 1.369 . S
C616 C615 1.369 . S
C616 C617 1.408 . S
C616 H638 0.930 . S
C617 C612 1.348 . S
C617 C616 1.408 . S
C617 H639 0.930 . S
C618 O628 1.281 . S
C618 O629 1.257 . S
C619 O630 1.236 . S
C619 O631 1.266 . S
O620 Tb600 2.484 . S
O620 C602 1.248 . S
O621 Tb600 2.440 . S
O621 C602 1.266 . S
O622 Tb600 2.658 1_454 S
O622 Tb601 2.325 . S
O622 C609 1.281 . S
O623 Tb600 2.401 1_454 S
O623 C609 1.262 . S
O624 Tb600 2.378 1_554 S
O624 C610 1.236 . S
O625 Tb601 2.341 1_655 S
O625 C610 1.266 . S
O626 Tb601 2.484 . S
O626 C611 1.248 . S
O627 Tb601 2.440 . S
O627 C611 1.266 . S
O628 Tb600 2.325 . S
O628 Tb601 2.658 1_656 S
O628 C618 1.281 . S
O629 Tb601 2.406 1_656 S
O629 C618 1.257 . S
O630 Tb601 2.378 1_556 S
O630 C619 1.236 . S
O631 Tb600 2.341 1_455 S
O631 C619 1.266 . S
H632 C604 0.929 . S
H633 C605 0.931 . S
H634 C607 0.930 . S
H635 C608 0.930 . S
H636 C613 0.929 . S
H637 C614 0.931 . S
H638 C616 0.930 . S
H639 C617 0.930 . S
C640 C641 1.369 . S
C640 C642 1.419 . S
C640 H644 0.930 . S
C641 C640 1.369 . S
C641 C650 1.429 . S
C642 C640 1.419 . S
C642 C643 1.363 . S
C642 H645 0.929 . S
C643 C642 1.363 . S
C643 C649 1.428 . S
H644 C640 0.930 . S
H645 C642 0.929 . S
S646 N647 1.613 . S
S646 N648 1.610 . S
N647 S646 1.613 . S
N647 C650 1.350 . S
N648 S646 1.610 . S
N648 C649 1.351 . S
C649 C643 1.428 . S
C649 N648 1.351 . S
C649 C650 1.434 . S
C650 C641 1.429 . S
C650 N647 1.350 . S
C650 C649 1.434 . S
C651 C652 1.369 . S
C651 C653 1.419 . S
C651 H655 0.930 . S
C652 C651 1.369 . S
C652 C661 1.429 . S
C653 C651 1.419 . S
C653 C654 1.363 . S
C653 H656 0.929 . S
C654 C653 1.363 . S
C654 C660 1.428 . S
H655 C651 0.930 . S
H656 C653 0.929 . S
S657 N658 1.613 . S
S657 N659 1.610 . S
N658 S657 1.613 . S
N658 C661 1.350 . S
N659 S657 1.610 . S
N659 C660 1.351 . S
C660 C654 1.428 . S
C660 N659 1.351 . S
C660 C661 1.434 . S
C661 C652 1.429 . S
C661 N658 1.350 . S
C661 C660 1.434 . S
C662 C663 1.369 . S
C662 C664 1.419 . S
C662 H666 0.930 . S
C663 C662 1.369 . S
C663 C672 1.429 . S
C664 C662 1.419 . S
C664 C665 1.363 . S
C664 H667 0.929 . S
C665 C664 1.363 . S
C665 C671 1.428 . S
H666 C662 0.930 . S
H667 C664 0.929 . S
S668 N669 1.613 . S
S668 N670 1.610 . S
N669 S668 1.613 . S
N669 C672 1.350 . S
N670 S668 1.610 . S
N670 C671 1.351 . S
C671 C665 1.428 . S
C671 N670 1.351 . S
C671 C672 1.434 . S
C672 C663 1.429 . S
C672 N669 1.350 . S
C672 C671 1.434 . S
C673 C674 1.369 . S
C673 C675 1.419 . S
C673 H677 0.930 . S
C674 C673 1.369 . S
C674 C683 1.429 . S
C675 C673 1.419 . S
C675 C676 1.363 . S
C675 H678 0.929 . S
C676 C675 1.363 . S
C676 C682 1.428 . S
H677 C673 0.930 . S
H678 C675 0.929 . S
S679 N680 1.613 . S
S679 N681 1.610 . S
N680 S679 1.613 . S
N680 C683 1.350 . S
N681 S679 1.610 . S
N681 C682 1.351 . S
C682 C676 1.428 . S
C682 N681 1.351 . S
C682 C683 1.434 . S
C683 C674 1.429 . S
C683 N680 1.350 . S
C683 C682 1.434 . S
C684 C685 1.369 . S
C684 C686 1.419 . S
C684 H688 0.930 . S
C685 C684 1.369 . S
C685 C694 1.429 . S
C686 C684 1.419 . S
C686 C687 1.363 . S
C686 H689 0.929 . S
C687 C686 1.363 . S
C687 C693 1.428 . S
H688 C684 0.930 . S
H689 C686 0.929 . S
S690 N691 1.613 . S
S690 N692 1.610 . S
N691 S690 1.613 . S
N691 C694 1.350 . S
N692 S690 1.610 . S
N692 C693 1.351 . S
C693 C687 1.428 . S
C693 N692 1.351 . S
C693 C694 1.434 . S
C694 C685 1.429 . S
C694 N691 1.350 . S
C694 C693 1.434 . S
C695 C696 1.369 . S
C695 C697 1.419 . S
C695 H699 0.930 . S
C696 C695 1.369 . S
C696 C705 1.429 1_455 S
C697 C695 1.419 . S
C697 C698 1.363 . S
C697 H700 0.929 . S
C698 C697 1.363 . S
C698 C704 1.428 1_455 S
H699 C695 0.930 . S
H700 C697 0.929 . S
S701 N702 1.613 . S
S701 N703 1.610 . S
N702 S701 1.613 . S
N702 C705 1.350 . S
N703 S701 1.610 . S
N703 C704 1.351 . S
C704 C698 1.428 1_655 S
C704 N703 1.351 . S
C704 C705 1.434 . S
C705 C696 1.429 1_655 S
C705 N702 1.350 . S
C705 C704 1.434 . S
C706 C707 1.369 . S
C706 C708 1.419 . S
C706 H710 0.930 . S
C707 C706 1.369 . S
C707 C716 1.429 . S
C708 C706 1.419 . S
C708 C709 1.363 . S
C708 H711 0.929 . S
C709 C708 1.363 . S
C709 C715 1.428 . S
H710 C706 0.930 . S
H711 C708 0.929 . S
S712 N713 1.613 . S
S712 N714 1.610 . S
N713 S712 1.613 . S
N713 C716 1.350 . S
N714 S712 1.610 . S
N714 C715 1.351 . S
C715 C709 1.428 . S
C715 N714 1.351 . S
C715 C716 1.434 . S
C716 C707 1.429 . S
C716 N713 1.350 . S
C716 C715 1.434 . S
C717 C718 1.369 . S
C717 C719 1.419 . S
C717 H721 0.930 . S
C718 C717 1.369 . S
C718 C727 1.429 . S
C719 C717 1.419 . S
C719 C720 1.363 . S
C719 H722 0.929 . S
C720 C719 1.363 . S
C720 C726 1.428 . S
H721 C717 0.930 . S
H722 C719 0.929 . S
S723 N724 1.613 . S
S723 N725 1.610 . S
N724 S723 1.613 . S
N724 C727 1.350 . S
N725 S723 1.610 . S
N725 C726 1.351 . S
C726 C720 1.428 . S
C726 N725 1.351 . S
C726 C727 1.434 . S
C727 C718 1.429 . S
C727 N724 1.350 . S
C727 C726 1.434 . S
C728 C729 1.369 . S
C728 C730 1.419 . S
C728 H732 0.930 . S
C729 C728 1.369 . S
C729 C738 1.429 . S
C730 C728 1.419 . S
C730 C731 1.363 . S
C730 H733 0.929 . S
C731 C730 1.363 . S
C731 C737 1.428 . S
H732 C728 0.930 . S
H733 C730 0.929 . S
S734 N735 1.613 . S
S734 N736 1.610 . S
N735 S734 1.613 . S
N735 C738 1.350 . S
N736 S734 1.610 . S
N736 C737 1.351 . S
C737 C731 1.428 . S
C737 N736 1.351 . S
C737 C738 1.434 . S
C738 C729 1.429 . S
C738 N735 1.350 . S
C738 C737 1.434 . S
C739 C740 1.369 . S
C739 C741 1.419 . S
C739 H743 0.930 . S
C740 C739 1.369 . S
C740 C749 1.429 . S
C741 C739 1.419 . S
C741 C742 1.363 . S
C741 H744 0.929 . S
C742 C741 1.363 . S
C742 C748 1.428 . S
H743 C739 0.930 . S
H744 C741 0.929 . S
S745 N746 1.613 . S
S745 N747 1.610 . S
N746 S745 1.613 . S
N746 C749 1.350 . S
N747 S745 1.610 . S
N747 C748 1.351 . S
C748 C742 1.428 . S
C748 N747 1.351 . S
C748 C749 1.434 . S
C749 C740 1.429 . S
C749 N746 1.350 . S
C749 C748 1.434 . S
C750 C751 1.369 . S
C750 C752 1.419 . S
C750 H754 0.930 . S
C751 C750 1.369 . S
C751 C760 1.429 . S
C752 C750 1.419 . S
C752 C753 1.363 . S
C752 H755 0.929 . S
C753 C752 1.363 . S
C753 C759 1.428 . S
H754 C750 0.930 . S
H755 C752 0.929 . S
S756 N757 1.613 . S
S756 N758 1.610 . S
N757 S756 1.613 . S
N757 C760 1.350 . S
N758 S756 1.610 . S
N758 C759 1.351 . S
C759 C753 1.428 . S
C759 N758 1.351 . S
C759 C760 1.434 . S
C760 C751 1.429 . S
C760 N757 1.350 . S
C760 C759 1.434 . S
C761 C762 1.369 . S
C761 C763 1.419 . S
C761 H765 0.930 . S
C762 C761 1.369 . S
C762 C771 1.429 . S
C763 C761 1.419 . S
C763 C764 1.363 . S
C763 H766 0.929 . S
C764 C763 1.363 . S
C764 C770 1.428 . S
H765 C761 0.930 . S
H766 C763 0.929 . S
S767 N768 1.613 . S
S767 N769 1.610 . S
N768 S767 1.613 . S
N768 C771 1.350 . S
N769 S767 1.610 . S
N769 C770 1.351 . S
C770 C764 1.428 . S
C770 N769 1.351 . S
C770 C771 1.434 . S
C771 C762 1.429 . S
C771 N768 1.350 . S
C771 C770 1.434 . S
C772 C773 1.369 . S
C772 C774 1.419 . S
C772 H776 0.930 . S
C773 C772 1.369 . S
C773 C782 1.429 . S
C774 C772 1.419 . S
C774 C775 1.363 . S
C774 H777 0.929 . S
C775 C774 1.363 . S
C775 C781 1.428 . S
H776 C772 0.930 . S
H777 C774 0.929 . S
S778 N779 1.613 . S
S778 N780 1.610 . S
N779 S778 1.613 . S
N779 C782 1.350 . S
N780 S778 1.610 . S
N780 C781 1.351 . S
C781 C775 1.428 . S
C781 N780 1.351 . S
C781 C782 1.434 . S
C782 C773 1.429 . S
C782 N779 1.350 . S
C782 C781 1.434 . S
C783 C784 1.369 . S
C783 C785 1.419 . S
C783 H787 0.930 . S
C784 C783 1.369 . S
C784 C793 1.429 . S
C785 C783 1.419 . S
C785 C786 1.363 . S
C785 H788 0.929 . S
C786 C785 1.363 . S
C786 C792 1.428 . S
H787 C783 0.930 . S
H788 C785 0.929 . S
S789 N790 1.613 . S
S789 N791 1.610 . S
N790 S789 1.613 . S
N790 C793 1.350 . S
N791 S789 1.610 . S
N791 C792 1.351 . S
C792 C786 1.428 . S
C792 N791 1.351 . S
C792 C793 1.434 . S
C793 C784 1.429 . S
C793 N790 1.350 . S
C793 C792 1.434 . S
C794 C795 1.369 . S
C794 C796 1.419 . S
C794 H798 0.930 . S
C795 C794 1.369 . S
C795 C804 1.429 . S
C796 C794 1.419 . S
C796 C797 1.363 . S
C796 H799 0.929 . S
C797 C796 1.363 . S
C797 C803 1.428 . S
H798 C794 0.930 . S
H799 C796 0.929 . S
S800 N801 1.613 . S
S800 N802 1.610 . S
N801 S800 1.613 . S
N801 C804 1.350 . S
N802 S800 1.610 . S
N802 C803 1.351 . S
C803 C797 1.428 . S
C803 N802 1.351 . S
C803 C804 1.434 . S
C804 C795 1.429 . S
C804 N801 1.350 . S
C804 C803 1.434 . S
C805 C806 1.369 . S
C805 C807 1.419 . S
C805 H809 0.930 . S
C806 C805 1.369 . S
C806 C815 1.429 . S
C807 C805 1.419 . S
C807 C808 1.363 . S
C807 H810 0.929 . S
C808 C807 1.363 . S
C808 C814 1.428 . S
H809 C805 0.930 . S
H810 C807 0.929 . S
S811 N812 1.613 . S
S811 N813 1.610 . S
N812 S811 1.613 . S
N812 C815 1.350 . S
N813 S811 1.610 . S
N813 C814 1.351 . S
C814 C808 1.428 . S
C814 N813 1.351 . S
C814 C815 1.434 . S
C815 C806 1.429 . S
C815 N812 1.350 . S
C815 C814 1.434 . S
C816 C817 1.369 . S
C816 C818 1.419 . S
C816 H820 0.930 . S
C817 C816 1.369 . S
C817 C826 1.429 . S
C818 C816 1.419 . S
C818 C819 1.363 . S
C818 H821 0.929 . S
C819 C818 1.363 . S
C819 C825 1.428 . S
H820 C816 0.930 . S
H821 C818 0.929 . S
S822 N823 1.613 . S
S822 N824 1.610 . S
N823 S822 1.613 . S
N823 C826 1.350 . S
N824 S822 1.610 . S
N824 C825 1.351 . S
C825 C819 1.428 . S
C825 N824 1.351 . S
C825 C826 1.434 . S
C826 C817 1.429 . S
C826 N823 1.350 . S
C826 C825 1.434 . S
C827 C828 1.369 1_455 S
C827 C829 1.419 . S
C827 H831 0.930 . S
C828 C827 1.369 1_655 S
C828 C837 1.429 . S
C829 C827 1.419 . S
C829 C830 1.363 1_455 S
C829 H832 0.929 . S
C830 C829 1.363 1_655 S
C830 C836 1.428 . S
H831 C827 0.930 . S
H832 C829 0.929 . S
S833 N834 1.613 . S
S833 N835 1.610 . S
N834 S833 1.613 . S
N834 C837 1.350 . S
N835 S833 1.610 . S
N835 C836 1.351 . S
C836 C830 1.428 . S
C836 N835 1.351 . S
C836 C837 1.434 . S
C837 C828 1.429 . S
C837 N834 1.350 . S
C837 C836 1.434 . S
C838 C839 1.369 . S
C838 C840 1.419 . S
C838 H842 0.930 . S
C839 C838 1.369 . S
C839 C848 1.429 . S
C840 C838 1.419 . S
C840 C841 1.363 . S
C840 H843 0.929 . S
C841 C840 1.363 . S
C841 C847 1.428 . S
H842 C838 0.930 . S
H843 C840 0.929 . S
S844 N845 1.613 . S
S844 N846 1.610 . S
N845 S844 1.613 . S
N845 C848 1.350 . S
N846 S844 1.610 . S
N846 C847 1.351 . S
C847 C841 1.428 . S
C847 N846 1.351 . S
C847 C848 1.434 . S
C848 C839 1.429 . S
C848 N845 1.350 . S
C848 C847 1.434 . S
C849 C850 1.369 . S
C849 C851 1.419 . S
C849 H853 0.930 . S
C850 C849 1.369 . S
C850 C859 1.429 . S
C851 C849 1.419 . S
C851 C852 1.363 . S
C851 H854 0.929 . S
C852 C851 1.363 . S
C852 C858 1.428 . S
H853 C849 0.930 . S
H854 C851 0.929 . S
S855 N856 1.613 . S
S855 N857 1.610 . S
N856 S855 1.613 . S
N856 C859 1.350 . S
N857 S855 1.610 . S
N857 C858 1.351 . S
C858 C852 1.428 . S
C858 N857 1.351 . S
C858 C859 1.434 . S
C859 C850 1.429 . S
C859 N856 1.350 . S
C859 C858 1.434 . S
C860 C861 1.369 . S
C860 C862 1.419 . S
C860 H864 0.930 . S
C861 C860 1.369 . S
C861 C870 1.429 . S
C862 C860 1.419 . S
C862 C863 1.363 . S
C862 H865 0.929 . S
C863 C862 1.363 . S
C863 C869 1.428 . S
H864 C860 0.930 . S
H865 C862 0.929 . S
S866 N867 1.613 . S
S866 N868 1.610 . S
N867 S866 1.613 . S
N867 C870 1.350 . S
N868 S866 1.610 . S
N868 C869 1.351 . S
C869 C863 1.428 . S
C869 N868 1.351 . S
C869 C870 1.434 . S
C870 C861 1.429 . S
C870 N867 1.350 . S
C870 C869 1.434 . S
C871 C872 1.369 . S
C871 C873 1.419 . S
C871 H875 0.930 . S
C872 C871 1.369 . S
C872 C881 1.429 . S
C873 C871 1.419 . S
C873 C874 1.363 . S
C873 H876 0.929 . S
C874 C873 1.363 . S
C874 C880 1.428 . S
H875 C871 0.930 . S
H876 C873 0.929 . S
S877 N878 1.613 . S
S877 N879 1.610 . S
N878 S877 1.613 . S
N878 C881 1.350 . S
N879 S877 1.610 . S
N879 C880 1.351 . S
C880 C874 1.428 . S
C880 N879 1.351 . S
C880 C881 1.434 . S
C881 C872 1.429 . S
C881 N878 1.350 . S
C881 C880 1.434 . S
C882 C883 1.369 . S
C882 C884 1.419 . S
C882 H886 0.930 . S
C883 C882 1.369 . S
C883 C892 1.429 . S
C884 C882 1.419 . S
C884 C885 1.363 . S
C884 H887 0.929 . S
C885 C884 1.363 . S
C885 C891 1.428 . S
H886 C882 0.930 . S
H887 C884 0.929 . S
S888 N889 1.613 . S
S888 N890 1.610 . S
N889 S888 1.613 . S
N889 C892 1.350 . S
N890 S888 1.610 . S
N890 C891 1.351 . S
C891 C885 1.428 . S
C891 N890 1.351 . S
C891 C892 1.434 . S
C892 C883 1.429 . S
C892 N889 1.350 . S
C892 C891 1.434 . S
C893 C894 1.369 . S
C893 C895 1.419 . S
C893 H897 0.930 . S
C894 C893 1.369 . S
C894 C903 1.429 . S
C895 C893 1.419 . S
C895 C896 1.363 . S
C895 H898 0.929 . S
C896 C895 1.363 . S
C896 C902 1.428 . S
H897 C893 0.930 . S
H898 C895 0.929 . S
S899 N900 1.613 . S
S899 N901 1.610 . S
N900 S899 1.613 . S
N900 C903 1.350 . S
N901 S899 1.610 . S
N901 C902 1.351 . S
C902 C896 1.428 . S
C902 N901 1.351 . S
C902 C903 1.434 . S
C903 C894 1.429 . S
C903 N900 1.350 . S
C903 C902 1.434 . S
C641 C1 1.266 . S
C643 C495 1.432 . S
C652 C80 1.449 . S
C654 C535 1.509 . S
C665 C569 2.380 . S
C663 C140 2.324 . S
C674 C211 2.676 . S
C676 C610 2.606 . S
C687 C530 1.626 . S
C685 C31 1.376 . S
C698 C490 2.354 . S
C696 C61 2.148 . S
C709 C618 1.719 . S
C707 C151 1.660 . S
C720 C579 1.895 . S
C718 C200 2.031 . S
C729 C20 1.618 . S
C731 C615 1.733 . S
C742 C538 2.066 . S
C740 C121 2.150 . S
C751 C181 2.409 . S
C753 C498 2.392 . S
C762 C91 1.800 . S
C764 C566 1.795 . S
C775 C486 1.428 . S
C773 C260 1.410 . S
C784 C320 1.455 . S
C786 C526 1.504 . S
C795 C361 2.300 . S
C797 C578 2.382 . S
C806 C451 2.676 . S
C808 C619 2.608 . S
C817 C271 1.446 . S
C819 C539 1.629 . S
C830 C499 2.355 . S
C828 C301 2.142 . S
C841 C609 1.716 . S
C839 C380 1.619 . S
C852 C570 1.894 . S
C850 C440 2.031 . S
C861 C241 1.521 . S
C863 C606 1.733 . S
C874 C529 2.064 . S
C872 C391 2.123 . S
C885 C489 2.391 . S
C883 C421 2.407 . S
C894 C331 1.795 . S
C896 C575 1.801 . S
