# Generated by pormake.
# Topology eea, (3,6)-cn, num edge types: 1
# Building blocks:
#     Node 0, Type 0, BuildingBlock: BETDIP_clean_linker_0, # of connection points: 3
#     Node 1, Type 0, BuildingBlock: BETDIP_clean_linker_0, # of connection points: 3
#     Node 2, Type 0, BuildingBlock: BETDIP_clean_linker_0, # of connection points: 3
#     Node 3, Type 0, BuildingBlock: BETDIP_clean_linker_0, # of connection points: 3
#     Node 4, Type 0, BuildingBlock: BETDIP_clean_linker_0, # of connection points: 3
#     Node 5, Type 0, BuildingBlock: BETDIP_clean_linker_0, # of connection points: 3
#     Node 6, Type 0, BuildingBlock: BETDIP_clean_linker_0, # of connection points: 3
#     Node 7, Type 0, BuildingBlock: BETDIP_clean_linker_0, # of connection points: 3
#     Node 8, Type 0, BuildingBlock: BETDIP_clean_linker_0, # of connection points: 3
#     Node 9, Type 0, BuildingBlock: BETDIP_clean_linker_0, # of connection points: 3
#     Node 10, Type 0, BuildingBlock: BETDIP_clean_linker_0, # of connection points: 3
#     Node 11, Type 0, BuildingBlock: BETDIP_clean_linker_0, # of connection points: 3
#     Node 12, Type 0, BuildingBlock: BETDIP_clean_linker_0, # of connection points: 3
#     Node 13, Type 0, BuildingBlock: BETDIP_clean_linker_0, # of connection points: 3
#     Node 14, Type 0, BuildingBlock: BETDIP_clean_linker_0, # of connection points: 3
#     Node 15, Type 0, BuildingBlock: BETDIP_clean_linker_0, # of connection points: 3
#     Node 16, Type 0, BuildingBlock: BETDIP_clean_linker_0, # of connection points: 3
#     Node 17, Type 0, BuildingBlock: BETDIP_clean_linker_0, # of connection points: 3
#     Node 18, Type 1, BuildingBlock: CUWYAW_clean_sbu_0, # of connection points: 6
#     Node 19, Type 1, BuildingBlock: CUWYAW_clean_sbu_0, # of connection points: 6
#     Node 20, Type 1, BuildingBlock: CUWYAW_clean_sbu_0, # of connection points: 6
#     Node 21, Type 1, BuildingBlock: CUWYAW_clean_sbu_0, # of connection points: 6
#     Node 22, Type 1, BuildingBlock: CUWYAW_clean_sbu_0, # of connection points: 6
#     Node 23, Type 1, BuildingBlock: CUWYAW_clean_sbu_0, # of connection points: 6
#     Node 24, Type 1, BuildingBlock: CUWYAW_clean_sbu_0, # of connection points: 6
#     Node 25, Type 1, BuildingBlock: CUWYAW_clean_sbu_0, # of connection points: 6
#     Node 26, Type 1, BuildingBlock: CUWYAW_clean_sbu_0, # of connection points: 6
#     Edge 27, Type (0, 1), BuildingBlock: MIFKUJ_clean_linker_0, # of connection points: 2
#     Edge 28, Type (0, 1), BuildingBlock: MIFKUJ_clean_linker_0, # of connection points: 2
#     Edge 29, Type (0, 1), BuildingBlock: MIFKUJ_clean_linker_0, # of connection points: 2
#     Edge 30, Type (0, 1), BuildingBlock: MIFKUJ_clean_linker_0, # of connection points: 2
#     Edge 31, Type (0, 1), BuildingBlock: MIFKUJ_clean_linker_0, # of connection points: 2
#     Edge 32, Type (0, 1), BuildingBlock: MIFKUJ_clean_linker_0, # of connection points: 2
#     Edge 33, Type (0, 1), BuildingBlock: MIFKUJ_clean_linker_0, # of connection points: 2
#     Edge 34, Type (0, 1), BuildingBlock: MIFKUJ_clean_linker_0, # of connection points: 2
#     Edge 35, Type (0, 1), BuildingBlock: MIFKUJ_clean_linker_0, # of connection points: 2
#     Edge 36, Type (0, 1), BuildingBlock: MIFKUJ_clean_linker_0, # of connection points: 2
#     Edge 37, Type (0, 1), BuildingBlock: MIFKUJ_clean_linker_0, # of connection points: 2
#     Edge 38, Type (0, 1), BuildingBlock: MIFKUJ_clean_linker_0, # of connection points: 2
#     Edge 39, Type (0, 1), BuildingBlock: MIFKUJ_clean_linker_0, # of connection points: 2
#     Edge 40, Type (0, 1), BuildingBlock: MIFKUJ_clean_linker_0, # of connection points: 2
#     Edge 41, Type (0, 1), BuildingBlock: MIFKUJ_clean_linker_0, # of connection points: 2
#     Edge 42, Type (0, 1), BuildingBlock: MIFKUJ_clean_linker_0, # of connection points: 2
#     Edge 43, Type (0, 1), BuildingBlock: MIFKUJ_clean_linker_0, # of connection points: 2
#     Edge 44, Type (0, 1), BuildingBlock: MIFKUJ_clean_linker_0, # of connection points: 2
#     Edge 45, Type (0, 1), BuildingBlock: MIFKUJ_clean_linker_0, # of connection points: 2
#     Edge 46, Type (0, 1), BuildingBlock: MIFKUJ_clean_linker_0, # of connection points: 2
#     Edge 47, Type (0, 1), BuildingBlock: MIFKUJ_clean_linker_0, # of connection points: 2
#     Edge 48, Type (0, 1), BuildingBlock: MIFKUJ_clean_linker_0, # of connection points: 2
#     Edge 49, Type (0, 1), BuildingBlock: MIFKUJ_clean_linker_0, # of connection points: 2
#     Edge 50, Type (0, 1), BuildingBlock: MIFKUJ_clean_linker_0, # of connection points: 2
#     Edge 51, Type (0, 1), BuildingBlock: MIFKUJ_clean_linker_0, # of connection points: 2
#     Edge 52, Type (0, 1), BuildingBlock: MIFKUJ_clean_linker_0, # of connection points: 2
#     Edge 53, Type (0, 1), BuildingBlock: MIFKUJ_clean_linker_0, # of connection points: 2
#     Edge 54, Type (0, 1), BuildingBlock: MIFKUJ_clean_linker_0, # of connection points: 2
#     Edge 55, Type (0, 1), BuildingBlock: MIFKUJ_clean_linker_0, # of connection points: 2
#     Edge 56, Type (0, 1), BuildingBlock: MIFKUJ_clean_linker_0, # of connection points: 2
#     Edge 57, Type (0, 1), BuildingBlock: MIFKUJ_clean_linker_0, # of connection points: 2
#     Edge 58, Type (0, 1), BuildingBlock: MIFKUJ_clean_linker_0, # of connection points: 2
#     Edge 59, Type (0, 1), BuildingBlock: MIFKUJ_clean_linker_0, # of connection points: 2
#     Edge 60, Type (0, 1), BuildingBlock: MIFKUJ_clean_linker_0, # of connection points: 2
#     Edge 61, Type (0, 1), BuildingBlock: MIFKUJ_clean_linker_0, # of connection points: 2
#     Edge 62, Type (0, 1), BuildingBlock: MIFKUJ_clean_linker_0, # of connection points: 2
#     Edge 63, Type (0, 1), BuildingBlock: MIFKUJ_clean_linker_0, # of connection points: 2
#     Edge 64, Type (0, 1), BuildingBlock: MIFKUJ_clean_linker_0, # of connection points: 2
#     Edge 65, Type (0, 1), BuildingBlock: MIFKUJ_clean_linker_0, # of connection points: 2
#     Edge 66, Type (0, 1), BuildingBlock: MIFKUJ_clean_linker_0, # of connection points: 2
#     Edge 67, Type (0, 1), BuildingBlock: MIFKUJ_clean_linker_0, # of connection points: 2
#     Edge 68, Type (0, 1), BuildingBlock: MIFKUJ_clean_linker_0, # of connection points: 2
#     Edge 69, Type (0, 1), BuildingBlock: MIFKUJ_clean_linker_0, # of connection points: 2
#     Edge 70, Type (0, 1), BuildingBlock: MIFKUJ_clean_linker_0, # of connection points: 2
#     Edge 71, Type (0, 1), BuildingBlock: MIFKUJ_clean_linker_0, # of connection points: 2
#     Edge 72, Type (0, 1), BuildingBlock: MIFKUJ_clean_linker_0, # of connection points: 2
#     Edge 73, Type (0, 1), BuildingBlock: MIFKUJ_clean_linker_0, # of connection points: 2
#     Edge 74, Type (0, 1), BuildingBlock: MIFKUJ_clean_linker_0, # of connection points: 2
#     Edge 75, Type (0, 1), BuildingBlock: MIFKUJ_clean_linker_0, # of connection points: 2
#     Edge 76, Type (0, 1), BuildingBlock: MIFKUJ_clean_linker_0, # of connection points: 2
#     Edge 77, Type (0, 1), BuildingBlock: MIFKUJ_clean_linker_0, # of connection points: 2
#     Edge 78, Type (0, 1), BuildingBlock: MIFKUJ_clean_linker_0, # of connection points: 2
#     Edge 79, Type (0, 1), BuildingBlock: MIFKUJ_clean_linker_0, # of connection points: 2
#     Edge 80, Type (0, 1), BuildingBlock: MIFKUJ_clean_linker_0, # of connection points: 2
# Relax obj value: 0.058
# Max RMSD: 0.198
# Mean RMSD: 0.137
data_MOF--net-eea--node1-CUWYAW_clean_sbu_0--node2-BETDIP_clean_linker_0--edge1-MIFKUJ_clean_linker_0
_symmetry_space_group_name_H-M    P1
_symmetry_Int_Tables_number       1
_symmetry_cell_setting            triclinic
loop_
_symmetry_equiv_pos_as_xyz
'x, y, z'
_cell_length_a     71.439459
_cell_length_b     71.206888
_cell_length_c     86.298219
_cell_angle_alpha  93.357302
_cell_angle_beta   93.490501
_cell_angle_gamma 119.81821
loop_
_atom_site_label
_atom_site_type_symbol
_atom_site_fract_x
_atom_site_fract_y
_atom_site_fract_z
_atom_type_partial_charge
H0 H 0.22304 0.10778 0.38254 0.0
H1 H 0.24062 0.15008 0.42507 0.0
H2 H 0.23977 0.08943 0.42564 0.0
H3 H 0.2528 0.17593 0.40725 0.0
C4 C 0.23876 0.16825 0.39857 0.0
C5 C 0.22806 0.11119 0.39498 0.0
C6 C 0.2312 0.09626 0.40311 0.0
C7 C 0.23197 0.13089 0.40269 0.0
C8 C 0.23843 0.13536 0.41885 0.0
C9 C 0.2411 0.12038 0.42721 0.0
C10 C 0.23762 0.10098 0.41923 0.0
N11 N 0.22849 0.1455 0.39408 0.0
H12 H 0.91228 0.12542 0.39032 0.0
H13 H 0.87466 0.10441 0.42927 0.0
H14 H 0.93442 0.16539 0.43445 0.0
H15 H 0.84704 0.08984 0.40862 0.0
C16 C 0.8537 0.08205 0.40139 0.0
C17 C 0.9102 0.12829 0.40239 0.0
C18 C 0.92571 0.14755 0.41153 0.0
C19 C 0.89154 0.1129 0.40858 0.0
C20 C 0.88873 0.11644 0.42424 0.0
C21 C 0.90404 0.13543 0.43355 0.0
C22 C 0.92239 0.15095 0.42712 0.0
N23 N 0.87605 0.09373 0.39901 0.0
H24 H 0.8984 0.79729 0.40586 0.0
H25 H 0.9225 0.77929 0.44588 0.0
H26 H 0.86172 0.7779 0.4455 0.0
H27 H 0.9547 0.80398 0.43812 0.0
C28 C 0.9521 0.80019 0.42553 0.0
C29 C 0.89647 0.79175 0.4174 0.0
C30 C 0.87816 0.78812 0.42485 0.0
C31 C 0.91282 0.78919 0.42504 0.0
C32 C 0.9103 0.78192 0.44001 0.0
C33 C 0.892 0.77803 0.44753 0.0
C34 C 0.87609 0.78126 0.43988 0.0
N35 N 0.93161 0.79403 0.41744 0.0
H36 H 0.09914 0.21698 0.62155 0.0
H37 H 0.13107 0.2301 0.57964 0.0
H38 H 0.07665 0.2394 0.58322 0.0
H39 H 0.15961 0.23714 0.59541 0.0
C40 C 0.15337 0.22526 0.60383 0.0
C41 C 0.10038 0.22208 0.60989 0.0
C42 C 0.08548 0.22768 0.60333 0.0
C43 C 0.11735 0.22362 0.60167 0.0
C44 C 0.11893 0.23011 0.58651 0.0
C45 C 0.10463 0.2363 0.57989 0.0
C46 C 0.08786 0.23487 0.58834 0.0
N47 N 0.13248 0.21842 0.60883 0.0
H48 H 0.79492 0.88624 0.6424 0.0
H49 H 0.7763 0.90734 0.60156 0.0
H50 H 0.77509 0.84636 0.59838 0.0
H51 H 0.76245 0.92012 0.62117 0.0
C52 C 0.77737 0.92851 0.629 0.0
C53 C 0.78935 0.88345 0.63007 0.0
C54 C 0.78523 0.86426 0.62127 0.0
C55 C 0.78552 0.89873 0.62316 0.0
C56 C 0.7786 0.8953 0.60713 0.0
C57 C 0.77477 0.87643 0.59815 0.0
C58 C 0.7778 0.86084 0.60534 0.0
N59 N 0.7891 0.91766 0.63239 0.0
H60 H 0.11361 0.91074 0.62629 0.0
H61 H 0.08967 0.86772 0.58368 0.0
H62 H 0.1517 0.92611 0.58722 0.0
H63 H 0.05732 0.86084 0.59174 0.0
C64 C 0.05957 0.85989 0.60418 0.0
C65 C 0.11581 0.90676 0.61448 0.0
C66 C 0.1347 0.92097 0.60779 0.0
C67 C 0.09923 0.88779 0.60578 0.0
C68 C 0.10202 0.88255 0.59042 0.0
C69 C 0.1208 0.89651 0.58361 0.0
C70 C 0.13699 0.91561 0.59237 0.0
N71 N 0.08003 0.87427 0.61279 0.0
H72 H 0.88197 0.43538 0.71906 0.0
H73 H 0.90091 0.48041 0.76025 0.0
H74 H 0.89776 0.41898 0.76336 0.0
H75 H 0.91482 0.50474 0.74119 0.0
C76 C 0.90043 0.49721 0.73283 0.0
C77 C 0.88692 0.43941 0.73149 0.0
C78 C 0.88953 0.42473 0.74033 0.0
C79 C 0.89151 0.45974 0.73848 0.0
C80 C 0.89805 0.46509 0.7546 0.0
C81 C 0.90009 0.45035 0.76364 0.0
C82 C 0.89593 0.43029 0.75642 0.0
N83 N 0.88885 0.47424 0.72918 0.0
H84 H 0.579 0.45591 0.72418 0.0
H85 H 0.54031 0.43583 0.76271 0.0
H86 H 0.60069 0.49627 0.76809 0.0
H87 H 0.51301 0.42152 0.74203 0.0
C88 C 0.51948 0.41354 0.73481 0.0
C89 C 0.57654 0.45902 0.73612 0.0
C90 C 0.59229 0.47801 0.74539 0.0
C91 C 0.55755 0.44395 0.74216 0.0
C92 C 0.55462 0.44762 0.75778 0.0
C93 C 0.57011 0.46645 0.76718 0.0
C94 C 0.58879 0.48164 0.76088 0.0
N95 N 0.5419 0.4249 0.73252 0.0
H96 H 0.56738 0.1354 0.74054 0.0
H97 H 0.58948 0.11586 0.78071 0.0
H98 H 0.52968 0.11641 0.77974 0.0
H99 H 0.60656 0.10702 0.76304 0.0
C100 C 0.61196 0.12002 0.75546 0.0
C101 C 0.56498 0.12971 0.75203 0.0
C102 C 0.54666 0.12658 0.75926 0.0
C103 C 0.58034 0.12555 0.7595 0.0
C104 C 0.57747 0.11847 0.77453 0.0
C105 C 0.55933 0.11541 0.78194 0.0
C106 C 0.54404 0.11946 0.77423 0.0
N107 N 0.59876 0.12924 0.75179 0.0
H108 H 0.76419 0.54527 0.95426 0.0
H109 H 0.79955 0.56123 0.91399 0.0
H110 H 0.74415 0.56941 0.91574 0.0
H111 H 0.82754 0.57072 0.93248 0.0
C112 C 0.82055 0.55682 0.93925 0.0
C113 C 0.76623 0.55098 0.94278 0.0
C114 C 0.75178 0.5569 0.93589 0.0
C115 C 0.78389 0.55316 0.93518 0.0
C116 C 0.78664 0.56057 0.9203 0.0
C117 C 0.77256 0.56673 0.91328 0.0
C118 C 0.75512 0.56475 0.92112 0.0
N119 N 0.79866 0.54777 0.94266 0.0
H120 H 0.45077 0.21401 0.97694 0.0
H121 H 0.42998 0.23212 0.93558 0.0
H122 H 0.42845 0.17094 0.93437 0.0
H123 H 0.4182 0.24761 0.95472 0.0
C124 C 0.4334 0.25592 0.96225 0.0
C125 C 0.44442 0.21025 0.96474 0.0
C126 C 0.4401 0.19063 0.95654 0.0
C127 C 0.44004 0.22487 0.9574 0.0
C128 C 0.43213 0.22024 0.94152 0.0
C129 C 0.42794 0.20085 0.93306 0.0
C130 C 0.43173 0.18601 0.94074 0.0
N131 N 0.44447 0.24454 0.966 0.0
H132 H 0.78473 0.24012 0.96204 0.0
H133 H 0.75897 0.19895 0.91857 0.0
H134 H 0.8191 0.25917 0.92125 0.0
H135 H 0.74239 0.17289 0.93393 0.0
C136 C 0.73809 0.18024 0.94341 0.0
C137 C 0.78599 0.23697 0.94982 0.0
C138 C 0.80398 0.25203 0.9427 0.0
C139 C 0.7699 0.21747 0.94139 0.0
C140 C 0.77157 0.21342 0.9255 0.0
C141 C 0.78925 0.22842 0.91822 0.0
C142 C 0.80537 0.24763 0.92687 0.0
N143 N 0.75207 0.20252 0.94907 0.0
H144 H 0.54965 0.77087 0.05165 0.0
H145 H 0.57147 0.8148 0.09362 0.0
H146 H 0.5689 0.75345 0.09431 0.0
H147 H 0.58363 0.84001 0.07538 0.0
C148 C 0.56912 0.83258 0.06714 0.0
C149 C 0.55585 0.77466 0.06388 0.0
C150 C 0.55853 0.75942 0.072 0.0
C151 C 0.56107 0.79489 0.07145 0.0
C152 C 0.56837 0.79968 0.08747 0.0
C153 C 0.57076 0.78455 0.0958 0.0
C154 C 0.56615 0.76468 0.08795 0.0
N155 N 0.5579 0.80973 0.06289 0.0
H156 H 0.24778 0.78756 0.05856 0.0
H157 H 0.20852 0.771 0.09678 0.0
H158 H 0.26634 0.8337 0.09907 0.0
H159 H 0.18154 0.75344 0.07622 0.0
C160 C 0.18856 0.74539 0.06969 0.0
C161 C 0.2448 0.7919 0.07002 0.0
C162 C 0.25935 0.81237 0.0781 0.0
C163 C 0.22596 0.77729 0.07641 0.0
C164 C 0.22232 0.78278 0.0914 0.0
C165 C 0.2368 0.80306 0.09974 0.0
C166 C 0.25516 0.81789 0.09288 0.0
N167 N 0.21107 0.75702 0.06772 0.0
H168 H 0.2275 0.45358 0.06881 0.0
H169 H 0.25373 0.43788 0.10887 0.0
H170 H 0.19286 0.43615 0.10956 0.0
H171 H 0.26663 0.42512 0.08836 0.0
C172 C 0.27317 0.43974 0.08234 0.0
C173 C 0.22616 0.44882 0.08057 0.0
C174 C 0.20795 0.44503 0.08823 0.0
C175 C 0.24244 0.44578 0.08778 0.0
C176 C 0.24082 0.43946 0.103 0.0
C177 C 0.22301 0.43609 0.11097 0.0
C178 C 0.20666 0.43882 0.10346 0.0
N179 N 0.26066 0.44994 0.07971 0.0
H180 H 0.42395 0.87125 0.28602 0.0
H181 H 0.46406 0.88876 0.24829 0.0
H182 H 0.41331 0.90451 0.2494 0.0
H183 H 0.46332 0.85662 0.25386 0.0
C184 C 0.46755 0.86081 0.26639 0.0
C185 C 0.42824 0.87878 0.27525 0.0
C186 C 0.41624 0.8875 0.26842 0.0
C187 C 0.44522 0.87885 0.26791 0.0
C188 C 0.45077 0.88846 0.25389 0.0
C189 C 0.43937 0.89778 0.24708 0.0
C190 C 0.42205 0.89712 0.25441 0.0
N191 N 0.45685 0.86963 0.275 0.0
H192 H 0.12204 0.55136 0.31073 0.0
H193 H 0.10264 0.56945 0.26874 0.0
H194 H 0.09877 0.50728 0.26861 0.0
H195 H 0.0916 0.58618 0.28731 0.0
C196 C 0.10664 0.59423 0.29502 0.0
C197 C 0.11577 0.54746 0.29851 0.0
C198 C 0.1108 0.52741 0.29061 0.0
C199 C 0.11212 0.56233 0.29084 0.0
C200 C 0.10427 0.55747 0.27494 0.0
C201 C 0.09939 0.53765 0.26679 0.0
C202 C 0.10253 0.52264 0.27478 0.0
N203 N 0.1171 0.58239 0.29914 0.0
H204 H 0.45035 0.57552 0.29551 0.0
H205 H 0.42763 0.53327 0.25256 0.0
H206 H 0.49098 0.59004 0.25796 0.0
H207 H 0.39491 0.52627 0.25967 0.0
C208 C 0.39664 0.52539 0.27216 0.0
C209 C 0.45301 0.57164 0.28382 0.0
C210 C 0.47286 0.58506 0.27792 0.0
C211 C 0.43641 0.55318 0.27469 0.0
C212 C 0.43993 0.54785 0.25958 0.0
C213 C 0.45971 0.56097 0.25361 0.0
C214 C 0.476 0.57952 0.26281 0.0
N215 N 0.41667 0.53996 0.28118 0.0
C216 C 0.52459 0.01504 0.05862 0.0
Eu217 Eu 0.50814 0.013 0.03032 0.0
C218 C 0.51789 0.00428 0.07289 0.0
C219 C 0.53157 0.01366 0.08683 0.0
C220 C 0.52505 0.00443 0.10076 0.0
C221 C 0.50468 0.98565 0.10099 0.0
C222 C 0.49113 0.97612 0.0869 0.0
C223 C 0.49768 0.98537 0.07296 0.0
C224 C 0.49486 0.0402 0.02051 0.0
C225 C 0.45653 0.97671 0.02449 0.0
C226 C 0.46824 0.99968 0.96936 0.0
Eu227 Eu 0.48425 1.0004 0.99747 0.0
C228 C 0.47674 0.00858 0.95475 0.0
C229 C 0.46624 0.99621 0.94044 0.0
C230 C 0.47398 0.00443 0.92642 0.0
C231 C 0.49225 0.02524 0.92652 0.0
C232 C 0.50291 0.0375 0.94088 0.0
C233 C 0.49528 0.02921 0.95489 0.0
C234 C 0.49803 0.97347 0.00716 0.0
C235 C 0.53641 0.0363 0.00295 0.0
O236 O 0.52572 0.00357 0.04669 0.0
O237 O 0.51574 0.02653 0.05464 0.0
O238 O 0.51308 0.0467 0.0289 0.0
O239 O 0.48405 0.01973 0.01827 0.0
O240 O 0.47531 0.9833 0.03281 0.0
O241 O 0.45539 0.98414 0.01103 0.0
O242 O 0.47093 0.01375 0.98097 0.0
O243 O 0.47195 0.98447 0.97375 0.0
O244 O 0.47977 0.96673 0.9987 0.0
O245 O 0.50852 0.99394 0.00944 0.0
O246 O 0.51799 0.02759 0.99372 0.0
O247 O 0.53729 0.03143 0.01741 0.0
H248 H 0.54717 0.02835 0.08698 0.0
H249 H 0.53575 0.01234 0.11142 0.0
H250 H 0.47548 0.9615 0.08664 0.0
H251 H 0.48691 0.9779 0.06228 0.0
H252 H 0.45199 0.98022 0.94011 0.0
H253 H 0.46546 0.99471 0.9155 0.0
H254 H 0.51726 0.05341 0.94122 0.0
H255 H 0.50382 0.03894 0.96581 0.0
C256 C 0.01127 0.51871 0.05597 0.0
Eu257 Eu 0.00497 0.49894 0.02819 0.0
C258 C 0.01847 0.51781 0.07211 0.0
C259 C 0.00627 0.51831 0.08406 0.0
C260 C 0.01285 0.518 0.09955 0.0
C261 C 0.03199 0.51747 0.10347 0.0
C262 C 0.04407 0.51669 0.09139 0.0
C263 C 0.03729 0.51671 0.07584 0.0
C264 C 0.97484 0.45716 0.01843 0.0
C265 C 0.0372 0.47878 0.02424 0.0
C266 C 0.00328 0.4649 0.96755 0.0
Eu267 Eu 0.00936 0.48271 0.996 0.0
C268 C 0.9935 0.46613 0.95241 0.0
C269 C 0.00451 0.46811 0.93917 0.0
C270 C 0.99614 0.47032 0.92479 0.0
C271 C 0.97651 0.47047 0.92337 0.0
C272 C 0.96534 0.46825 0.93663 0.0
C273 C 0.97386 0.46626 0.95106 0.0
C274 C 0.03884 0.52479 0.00596 0.0
C275 C 0.97643 0.50154 0.99999 0.0
O276 O 0.02586 0.52548 0.046 0.0
O277 O 0.99256 0.50231 0.05 0.0
O278 O 0.97091 0.47024 0.02685 0.0
O279 O 0.99469 0.46613 0.01647 0.0
O280 O 0.0321 0.49128 0.03286 0.0
O281 O 0.02796 0.47057 0.00989 0.0
O282 O 0.99014 0.45557 0.97815 0.0
O283 O 0.02112 0.48254 0.9733 0.0
O284 O 0.04348 0.51189 0.99802 0.0
O285 O 0.01892 0.51532 0.00757 0.0
O286 O 0.98058 0.48791 0.99192 0.0
O287 O 0.98722 0.5115 0.01368 0.0
H288 H 0.9916 0.51898 0.0814 0.0
H289 H 0.00282 0.51806 0.10844 0.0
H290 H 0.05901 0.51652 0.09395 0.0
H291 H 0.04695 0.51623 0.06679 0.0
H292 H 0.01971 0.46811 0.93999 0.0
H293 H 0.00494 0.4717 0.91474 0.0
H294 H 0.95024 0.46841 0.93588 0.0
H295 H 0.96518 0.46499 0.96117 0.0
C296 C 0.49218 0.4951 0.96556 0.0
Eu297 Eu 0.50679 0.51069 0.99456 0.0
C298 C 0.50132 0.49467 0.95078 0.0
C299 C 0.49297 0.49904 0.93721 0.0
C300 C 0.50124 0.49864 0.92301 0.0
C301 C 0.51794 0.49372 0.92211 0.0
C302 C 0.5264 0.48949 0.93575 0.0
C303 C 0.51825 0.49008 0.94999 0.0
C304 C 0.51861 0.5509 0.00736 0.0
C305 C 0.55906 0.52843 8e-05 0.0
C306 C 0.54425 0.53513 0.05679 0.0
Eu307 Eu 0.52962 0.52189 0.02749 0.0
C308 C 0.53579 0.53678 0.07165 0.0
C309 C 0.54029 0.52789 0.08444 0.0
C310 C 0.53244 0.52897 0.09868 0.0
C311 C 0.52007 0.53921 0.10051 0.0
C312 C 0.51544 0.54799 0.08761 0.0
C313 C 0.52315 0.54671 0.07329 0.0
C314 C 0.5167 0.48138 0.01425 0.0
C315 C 0.4778 0.5051 0.02217 0.0
O316 O 0.49423 0.48376 0.97626 0.0
O317 O 0.49564 0.51407 0.97134 0.0
O318 O 0.50134 0.53916 0.99772 0.0
O319 O 0.52993 0.54187 0.00881 0.0
O320 O 0.54077 0.51763 0.99072 0.0
O321 O 0.55939 0.53461 0.01486 0.0
O322 O 0.54511 0.54817 0.04642 0.0
O323 O 0.53769 0.51541 0.05056 0.0
O324 O 0.53495 0.49337 0.02284 0.0
O325 O 0.50589 0.49093 0.01348 0.0
O326 O 0.49627 0.51686 0.03122 0.0
O327 O 0.47732 0.49778 0.00764 0.0
H328 H 0.47994 0.50265 0.93758 0.0
H329 H 0.49426 0.50174 0.91267 0.0
H330 H 0.53942 0.48586 0.93541 0.0
H331 H 0.52514 0.48688 0.96033 0.0
H332 H 0.54985 0.51999 0.08339 0.0
H333 H 0.53595 0.52161 0.10823 0.0
H334 H 0.50615 0.55616 0.08861 0.0
H335 H 0.51927 0.55354 0.06357 0.0
C336 C 0.19008 0.34596 0.39072 0.0
Eu337 Eu 0.17501 0.34605 0.36247 0.0
C338 C 0.18084 0.33702 0.4051 0.0
C339 C 0.19236 0.34779 0.41956 0.0
C340 C 0.18367 0.33978 0.43337 0.0
C341 C 0.16329 0.32074 0.43296 0.0
C342 C 0.15168 0.31013 0.41839 0.0
C343 C 0.16039 0.31824 0.40458 0.0
C344 C 0.16184 0.37379 0.35367 0.0
C345 C 0.12282 0.31091 0.35663 0.0
C346 C 0.13617 0.33579 0.30193 0.0
Eu347 Eu 0.1512 0.33466 0.32991 0.0
C348 C 0.14569 0.34386 0.28745 0.0
C349 C 0.16638 0.34737 0.28499 0.0
C350 C 0.1755 0.35559 0.27132 0.0
C351 C 0.16411 0.36056 0.25996 0.0
C352 C 0.14339 0.35703 0.26253 0.0
C353 C 0.13427 0.34874 0.27617 0.0
C354 C 0.16502 0.30729 0.33862 0.0
C355 C 0.20369 0.36934 0.33549 0.0
O356 O 0.18736 0.33192 0.37908 0.0
O357 O 0.18688 0.36146 0.38629 0.0
O358 O 0.1801 0.37992 0.36189 0.0
O359 O 0.15091 0.35334 0.35107 0.0
O360 O 0.1415 0.3175 0.36508 0.0
O361 O 0.122 0.31829 0.34309 0.0
O362 O 0.14098 0.35072 0.31346 0.0
O363 O 0.13715 0.31903 0.3064 0.0
O364 O 0.14678 0.30085 0.33023 0.0
O365 O 0.17549 0.32772 0.34123 0.0
O366 O 0.1851 0.36202 0.32669 0.0
O367 O 0.20441 0.36306 0.34951 0.0
H368 H 0.20807 0.36247 0.42016 0.0
H369 H 0.19287 0.34861 0.44437 0.0
H370 H 0.13611 0.29528 0.41761 0.0
H371 H 0.15125 0.3097 0.39352 0.0
H372 H 0.17551 0.34386 0.29367 0.0
H373 H 0.19159 0.35838 0.26976 0.0
H374 H 0.13413 0.36047 0.25391 0.0
H375 H 0.11831 0.3462 0.27793 0.0
C376 C 0.67665 0.85363 0.38965 0.0
Eu377 Eu 0.67109 0.83423 0.36183 0.0
C378 C 0.68571 0.85354 0.4054 0.0
C379 C 0.67384 0.85219 0.41805 0.0
C380 C 0.68192 0.8519 0.43312 0.0
C381 C 0.70213 0.85319 0.4358 0.0
C382 C 0.71403 0.85453 0.42313 0.0
C383 C 0.7058 0.85452 0.408 0.0
C384 C 0.64145 0.79238 0.3521 0.0
C385 C 0.70412 0.81495 0.35872 0.0
C386 C 0.67137 0.79948 0.30191 0.0
Eu387 Eu 0.67645 0.81793 0.33 0.0
C388 C 0.66227 0.80017 0.28631 0.0
C389 C 0.67517 0.80477 0.27389 0.0
C390 C 0.66719 0.80608 0.25907 0.0
C391 C 0.64607 0.80265 0.25636 0.0
C392 C 0.63307 0.79788 0.26878 0.0
C393 C 0.64115 0.79676 0.28365 0.0
C394 C 0.70541 0.86017 0.33985 0.0
C395 C 0.64257 0.83601 0.33301 0.0
O396 O 0.6903 0.86201 0.37918 0.0
O397 O 0.65882 0.83582 0.38409 0.0
O398 O 0.63714 0.80545 0.36014 0.0
O399 O 0.66141 0.80144 0.35041 0.0
O400 O 0.69898 0.82777 0.36689 0.0
O401 O 0.69472 0.80604 0.34452 0.0
O402 O 0.65773 0.79052 0.31229 0.0
O403 O 0.68909 0.8172 0.30776 0.0
O404 O 0.71039 0.84735 0.33219 0.0
O405 O 0.68542 0.85054 0.34126 0.0
O406 O 0.64801 0.82341 0.32492 0.0
O407 O 0.65209 0.84532 0.34714 0.0
H408 H 0.65829 0.85137 0.41627 0.0
H409 H 0.67254 0.85108 0.44273 0.0
H410 H 0.72963 0.85546 0.42492 0.0
H411 H 0.7152 0.85545 0.3984 0.0
H412 H 0.69149 0.80742 0.27568 0.0
H413 H 0.67746 0.8095 0.24967 0.0
H414 H 0.61679 0.79532 0.26703 0.0
H415 H 0.63092 0.79335 0.29307 0.0
C416 C 0.15716 0.82477 0.29907 0.0
Eu417 Eu 0.17247 0.84369 0.32735 0.0
C418 C 0.16533 0.82445 0.28385 0.0
C419 C 0.15379 0.82512 0.27038 0.0
C420 C 0.1611 0.82487 0.25577 0.0
C421 C 0.18007 0.82378 0.2543 0.0
C422 C 0.19168 0.82323 0.26789 0.0
C423 C 0.18441 0.82363 0.28253 0.0
C424 C 0.18398 0.88493 0.33763 0.0
C425 C 0.22534 0.86412 0.33242 0.0
C426 C 0.21079 0.87682 0.38867 0.0
Eu427 Eu 0.19653 0.85932 0.36 0.0
C428 C 0.20107 0.87656 0.40334 0.0
C429 C 0.20802 0.87037 0.41665 0.0
C430 C 0.1988 0.86955 0.43059 0.0
C431 C 0.18255 0.87511 0.43153 0.0
C432 C 0.17562 0.88137 0.41821 0.0
C433 C 0.18471 0.88199 0.40421 0.0
C434 C 0.18434 0.8179 0.34954 0.0
C435 C 0.14387 0.83937 0.35499 0.0
O436 O 0.16253 0.81598 0.31013 0.0
O437 O 0.15802 0.84288 0.30413 0.0
O438 O 0.16608 0.87171 0.32898 0.0
O439 O 0.1956 0.87635 0.33968 0.0
O440 O 0.20683 0.85173 0.3235 0.0
O441 O 0.22587 0.87182 0.34683 0.0
O442 O 0.20737 0.88687 0.37757 0.0
O443 O 0.20934 0.85851 0.3834 0.0
O444 O 0.20257 0.83094 0.35789 0.0
O445 O 0.1731 0.82688 0.34778 0.0
O446 O 0.16243 0.85212 0.36372 0.0
O447 O 0.14327 0.83116 0.34073 0.0
H448 H 0.13911 0.8259 0.27117 0.0
H449 H 0.15197 0.82577 0.24564 0.0
H450 H 0.20618 0.82211 0.2672 0.0
H451 H 0.19361 0.82312 0.29278 0.0
H452 H 0.2206 0.86611 0.41624 0.0
H453 H 0.20461 0.86489 0.44072 0.0
H454 H 0.16298 0.88555 0.41857 0.0
H455 H 0.17885 0.88663 0.39409 0.0
C456 C 0.8565 0.67948 0.72427 0.0
Eu457 Eu 0.84075 0.67861 0.69604 0.0
C458 C 0.84784 0.67038 0.73874 0.0
C459 C 0.85886 0.68202 0.75311 0.0
C460 C 0.85065 0.67385 0.76701 0.0
C461 C 0.83124 0.65383 0.76677 0.0
C462 C 0.82008 0.64236 0.75227 0.0
C463 C 0.82836 0.65055 0.73837 0.0
C464 C 0.82885 0.70677 0.68621 0.0
C465 C 0.78815 0.6441 0.69061 0.0
C466 C 0.80202 0.66634 0.63514 0.0
Eu467 Eu 0.81678 0.66618 0.66343 0.0
C468 C 0.81201 0.67573 0.62107 0.0
C469 C 0.83262 0.67912 0.61844 0.0
C470 C 0.84212 0.68846 0.60516 0.0
C471 C 0.83124 0.69472 0.59438 0.0
C472 C 0.81068 0.69147 0.59715 0.0
C473 C 0.80114 0.68202 0.61039 0.0
C474 C 0.82973 0.63861 0.6732 0.0
C475 C 0.86917 0.70103 0.66871 0.0
O476 O 0.8544 0.66565 0.71266 0.0
O477 O 0.85215 0.69425 0.71983 0.0
O478 O 0.84694 0.7127 0.6946 0.0
O479 O 0.81736 0.6863 0.68404 0.0
O480 O 0.80676 0.65128 0.69939 0.0
O481 O 0.78752 0.6502 0.67653 0.0
O482 O 0.80455 0.68035 0.64672 0.0
O483 O 0.8048 0.65061 0.6397 0.0
O484 O 0.81144 0.63219 0.66487 0.0
O485 O 0.84065 0.65908 0.67529 0.0
O486 O 0.85054 0.69341 0.65992 0.0
O487 O 0.87001 0.6952 0.68287 0.0
H488 H 0.8738 0.69748 0.75359 0.0
H489 H 0.85944 0.68332 0.77795 0.0
H490 H 0.80526 0.62678 0.75163 0.0
H491 H 0.81972 0.64127 0.72736 0.0
H492 H 0.84139 0.67461 0.62668 0.0
H493 H 0.85809 0.69103 0.60343 0.0
H494 H 0.80183 0.69596 0.58896 0.0
H495 H 0.78529 0.67964 0.6123 0.0
C496 C 0.34222 0.18587 0.72221 0.0
Eu497 Eu 0.33597 0.16562 0.69461 0.0
C498 C 0.34964 0.18547 0.73841 0.0
C499 C 0.33701 0.18527 0.75025 0.0
C500 C 0.34358 0.1851 0.76577 0.0
C501 C 0.36312 0.18542 0.76982 0.0
C502 C 0.37571 0.18547 0.75786 0.0
C503 C 0.36896 0.18537 0.74228 0.0
C504 C 0.30745 0.12319 0.68551 0.0
C505 C 0.36991 0.14753 0.69082 0.0
C506 C 0.33478 0.13163 0.63411 0.0
Eu507 Eu 0.34106 0.14993 0.6624 0.0
C508 C 0.32576 0.13332 0.61874 0.0
C509 C 0.33885 0.1392 0.60641 0.0
C510 C 0.33087 0.14122 0.59181 0.0
C511 C 0.30952 0.13721 0.5892 0.0
C512 C 0.29634 0.13124 0.60152 0.0
C513 C 0.30441 0.12943 0.6162 0.0
C514 C 0.36937 0.19231 0.67214 0.0
C515 C 0.30663 0.16716 0.66608 0.0
O516 O 0.35668 0.19268 0.71216 0.0
O517 O 0.32366 0.1691 0.71642 0.0
O518 O 0.30305 0.13562 0.69425 0.0
O519 O 0.32715 0.13309 0.68303 0.0
O520 O 0.3641 0.15949 0.69935 0.0
O521 O 0.36077 0.139 0.67647 0.0
O522 O 0.32121 0.123 0.64458 0.0
O523 O 0.35317 0.14859 0.64 0.0
O524 O 0.37447 0.17995 0.66399 0.0
O525 O 0.34947 0.18222 0.67394 0.0
O526 O 0.31288 0.15577 0.65743 0.0
O527 O 0.3154 0.17548 0.68049 0.0
H528 H 0.32197 0.18519 0.74749 0.0
H529 H 0.33318 0.18453 0.77457 0.0
H530 H 0.39098 0.18599 0.76054 0.0
H531 H 0.37898 0.18548 0.73332 0.0
H532 H 0.35532 0.14223 0.60807 0.0
H533 H 0.34128 0.14554 0.58246 0.0
H534 H 0.27987 0.12816 0.59985 0.0
H535 H 0.29394 0.12501 0.62551 0.0
C536 C 0.82464 0.15848 0.63214 0.0
Eu537 Eu 0.83871 0.17696 0.6606 0.0
C538 C 0.834 0.15861 0.61736 0.0
C539 C 0.82494 0.16211 0.60373 0.0
C540 C 0.83345 0.16231 0.58955 0.0
C541 C 0.8511 0.15884 0.58872 0.0
C542 C 0.86024 0.15542 0.6024 0.0
C543 C 0.85184 0.15542 0.61662 0.0
C544 C 0.85052 0.2184 0.67047 0.0
C545 C 0.89137 0.19667 0.66685 0.0
C546 C 0.87512 0.21015 0.7223 0.0
Eu547 Eu 0.86155 0.19263 0.69355 0.0
C548 C 0.86511 0.20988 0.73676 0.0
C549 C 0.87453 0.20787 0.75082 0.0
C550 C 0.86496 0.20678 0.76462 0.0
C551 C 0.84578 0.20776 0.76463 0.0
C552 C 0.83639 0.20989 0.75052 0.0
C553 C 0.84593 0.21086 0.73669 0.0
C554 C 0.84887 0.15085 0.68362 0.0
C555 C 0.80926 0.17382 0.68724 0.0
O556 O 0.8291 0.14932 0.64341 0.0
O557 O 0.82529 0.17652 0.6371 0.0
O558 O 0.83276 0.20527 0.66166 0.0
O559 O 0.86182 0.20957 0.67295 0.0
O560 O 0.87311 0.18432 0.65767 0.0
O561 O 0.89146 0.20469 0.68106 0.0
O562 O 0.8718 0.2201 0.71109 0.0
O563 O 0.87366 0.19179 0.71716 0.0
O564 O 0.86689 0.16378 0.69222 0.0
O565 O 0.838 0.16012 0.68132 0.0
O566 O 0.82763 0.18689 0.69609 0.0
O567 O 0.80902 0.16462 0.67344 0.0
H568 H 0.81119 0.16461 0.60404 0.0
H569 H 0.82594 0.16474 0.57917 0.0
H570 H 0.87397 0.15289 0.60211 0.0
H571 H 0.8593 0.1529 0.627 0.0
H572 H 0.88929 0.20704 0.75111 0.0
H573 H 0.8727 0.20541 0.77534 0.0
H574 H 0.8215 0.21046 0.75015 0.0
H575 H 0.83828 0.21224 0.72594 0.0
H576 H 0.2722 0.85454 0.07383 0.0
H577 H 0.30534 0.88104 0.06323 0.0
H578 H 0.32405 0.83238 0.05655 0.0
H579 H 0.29066 0.80565 0.06685 0.0
H580 H 0.35677 0.87481 0.07353 0.0
H581 H 0.30873 0.84374 0.02595 0.0
H582 H 0.27504 0.83233 0.00901 0.0
H583 H 0.28799 0.89822 0.01249 0.0
H584 H 0.32161 0.90996 0.02966 0.0
H585 H 0.45017 0.93975 0.03628 0.0
H586 H 0.41641 0.91031 0.04385 0.0
H587 H 0.38427 0.94661 0.0335 0.0
H588 H 0.41765 0.9751 0.02451 0.0
H589 H 0.35764 0.90838 0.02461 0.0
H590 H 0.40115 0.9394 0.07444 0.0
H591 H 0.43365 0.95248 0.09306 0.0
H592 H 0.42896 0.88994 0.08675 0.0
H593 H 0.39604 0.87634 0.06838 0.0
C594 C 0.28335 0.8495 0.07001 0.0
C595 C 0.27894 0.8281 0.07114 0.0
C596 C 0.30218 0.86459 0.06392 0.0
C597 C 0.31706 0.85861 0.05909 0.0
C598 C 0.31271 0.83725 0.0602 0.0
C599 C 0.29365 0.82202 0.06601 0.0
C600 C 0.33754 0.87495 0.05342 0.0
C601 C 0.35706 0.88197 0.06272 0.0
C602 C 0.33775 0.88471 0.03959 0.0
C603 C 0.31758 0.87769 0.02922 0.0
C604 C 0.30429 0.85576 0.02323 0.0
C605 C 0.28523 0.84924 0.01356 0.0
C606 C 0.27935 0.86453 0.00971 0.0
C607 C 0.29255 0.88638 0.01549 0.0
C608 C 0.31162 0.89298 0.02518 0.0
C609 C 0.43587 0.94141 0.03571 0.0
C610 C 0.43645 0.95969 0.02996 0.0
C611 C 0.41658 0.92466 0.04019 0.0
C612 C 0.39772 0.92632 0.03973 0.0
C613 C 0.39846 0.94478 0.03402 0.0
C614 C 0.41755 0.96114 0.02897 0.0
C615 C 0.37716 0.90872 0.04485 0.0
C616 C 0.35753 0.90135 0.03544 0.0
C617 C 0.37674 0.89895 0.0588 0.0
C618 C 0.39626 0.90692 0.07002 0.0
C619 C 0.40704 0.92844 0.07709 0.0
C620 C 0.42547 0.93589 0.08767 0.0
C621 C 0.43331 0.92199 0.09123 0.0
C622 C 0.42271 0.9006 0.08419 0.0
C623 C 0.4041 0.89297 0.07375 0.0
H624 H 0.44761 0.92776 0.0994 0.0
H625 H 0.26458 0.85945 0.00221 0.0
H626 H 0.21138 0.47649 0.06971 0.0
H627 H 0.18205 0.48116 0.05808 0.0
H628 H 0.13521 0.42439 0.07817 0.0
H629 H 0.16423 0.41895 0.08908 0.0
H630 H 0.11962 0.42421 0.05031 0.0
H631 H 0.15325 0.47697 0.09493 0.0
H632 H 0.18346 0.50751 0.11178 0.0
H633 H 0.19572 0.54888 0.07491 0.0
H634 H 0.16574 0.51848 0.05776 0.0
H635 H 0.05438 0.48592 0.05467 0.0
H636 H 0.08262 0.47898 0.06529 0.0
H637 H 0.08675 0.45515 0.01921 0.0
H638 H 0.05809 0.4614 0.00861 0.0
H639 H 0.12305 0.49515 0.06085 0.0
H640 H 0.1013 0.41698 0.02107 0.0
H641 H 0.06893 0.385 0.0071 0.0
H642 H 0.02887 0.39177 0.03952 0.0
H643 H 0.06103 0.4236 0.05379 0.0
C644 C 0.19481 0.4648 0.07144 0.0
C645 C 0.1902 0.44748 0.08048 0.0
C646 C 0.17807 0.46763 0.06493 0.0
C647 C 0.15644 0.45336 0.06748 0.0
C648 C 0.15176 0.43569 0.0761 0.0
C649 C 0.16843 0.43275 0.08248 0.0
C650 C 0.13866 0.45697 0.06149 0.0
C651 C 0.12041 0.43974 0.05258 0.0
C652 C 0.13941 0.47707 0.06473 0.0
C653 C 0.1574 0.4954 0.07502 0.0
C654 C 0.16249 0.49254 0.09038 0.0
C655 C 0.17956 0.50983 0.09999 0.0
C656 C 0.19154 0.53011 0.09441 0.0
C657 C 0.18644 0.53315 0.07921 0.0
C658 C 0.16941 0.5159 0.06955 0.0
C659 C 0.0612 0.47906 0.04681 0.0
C660 C 0.05388 0.47408 0.03081 0.0
C661 C 0.0774 0.47518 0.05289 0.0
C662 C 0.08668 0.46633 0.04309 0.0
C663 C 0.07954 0.46155 0.02708 0.0
C664 C 0.06317 0.46519 0.02102 0.0
C665 C 0.10407 0.46244 0.04957 0.0
C666 C 0.12228 0.47963 0.05854 0.0
C667 C 0.10298 0.4421 0.04679 0.0
C668 C 0.08356 0.42281 0.03839 0.0
C669 C 0.0856 0.41159 0.02524 0.0
C670 C 0.06728 0.3935 0.01727 0.0
C671 C 0.04685 0.3864 0.02239 0.0
C672 C 0.04469 0.39734 0.03553 0.0
C673 C 0.06296 0.41542 0.04355 0.0
H674 H 0.03269 0.37241 0.01619 0.0
H675 H 0.20474 0.54347 0.10187 0.0
H676 H 0.54015 0.71973 0.08362 0.0
H677 H 0.53527 0.68558 0.07146 0.0
H678 H 0.55981 0.71599 0.02983 0.0
H679 H 0.56581 0.75068 0.04217 0.0
H680 H 0.51942 0.67223 0.02574 0.0
H681 H 0.59295 0.71026 0.05063 0.0
H682 H 0.62093 0.73048 0.0728 0.0
H683 H 0.58981 0.67597 0.09956 0.0
H684 H 0.56143 0.65554 0.07762 0.0
H685 H 0.52791 0.58496 0.99067 0.0
H686 H 0.53655 0.62165 0.00063 0.0
H687 H 0.53169 0.60305 0.04761 0.0
H688 H 0.52371 0.56664 0.03757 0.0
H689 H 0.56372 0.64247 0.04811 0.0
H690 H 0.48977 0.60493 0.02576 0.0
H691 H 0.4593 0.58374 0.00531 0.0
H692 H 0.4878 0.63544 0.97583 0.0
H693 H 0.51859 0.65683 0.99604 0.0
C694 C 0.54476 0.71932 0.07194 0.0
C695 C 0.55369 0.73813 0.06398 0.0
C696 C 0.54178 0.69971 0.06497 0.0
C697 C 0.54736 0.69838 0.04983 0.0
C698 C 0.55542 0.71677 0.04155 0.0
C699 C 0.55872 0.73654 0.0486 0.0
C700 C 0.54526 0.67783 0.0429 0.0
C701 C 0.52933 0.66584 0.03041 0.0
C702 C 0.55775 0.66929 0.04939 0.0
C703 C 0.57496 0.68145 0.06253 0.0
C704 C 0.59197 0.70265 0.06128 0.0
C705 C 0.60792 0.71414 0.0738 0.0
C706 C 0.60712 0.70454 0.0876 0.0
C707 C 0.5904 0.68339 0.08888 0.0
C708 C 0.57439 0.67185 0.0764 0.0
C709 C 0.52906 0.58894 0.00313 0.0
C710 C 0.52562 0.57331 0.01346 0.0
C711 C 0.53381 0.60979 0.00881 0.0
C712 C 0.53447 0.61508 0.02487 0.0
C713 C 0.5314 0.59945 0.03519 0.0
C714 C 0.52701 0.57872 0.02951 0.0
C715 C 0.53776 0.63662 0.03088 0.0
C716 C 0.55389 0.64883 0.04328 0.0
C717 C 0.52512 0.64516 0.0245 0.0
C718 C 0.50659 0.63238 0.01234 0.0
C719 C 0.48961 0.61171 0.01487 0.0
C720 C 0.47228 0.59967 0.00333 0.0
C721 C 0.47165 0.60821 0.98926 0.0
C722 C 0.48833 0.62883 0.98672 0.0
C723 C 0.50572 0.64093 0.99822 0.0
H724 H 0.45822 0.59887 0.98034 0.0
H725 H 0.61948 0.71346 0.09728 0.0
H726 H 0.84762 0.26853 0.9432 0.0
H727 H 0.87676 0.30296 0.9566 0.0
H728 H 0.82941 0.3158 0.97578 0.0
H729 H 0.80007 0.28133 0.96226 0.0
H730 H 0.86136 0.35118 0.96254 0.0
H731 H 0.85745 0.30089 0.99882 0.0
H732 H 0.85701 0.26803 0.00688 0.0
H733 H 0.92057 0.29086 0.99231 0.0
H734 H 0.92127 0.32373 0.98395 0.0
H735 H 0.93129 0.4395 0.0181 0.0
H736 H 0.90281 0.40438 0.00522 0.0
H737 H 0.95139 0.39116 0.98883 0.0
H738 H 0.98007 0.42635 0.00193 0.0
H739 H 0.91924 0.35596 0.00023 0.0
H740 H 0.92399 0.40576 0.96393 0.0
H741 H 0.9248 0.43818 0.95455 0.0
H742 H 0.86086 0.41649 0.96791 0.0
H743 H 0.85968 0.38398 0.9775 0.0
C744 C 0.84341 0.27868 0.95029 0.0
C745 C 0.82157 0.27228 0.95166 0.0
C746 C 0.86008 0.29828 0.95801 0.0
C747 C 0.85525 0.31189 0.96723 0.0
C748 C 0.83346 0.3055 0.96872 0.0
C749 C 0.81675 0.28577 0.9611 0.0
C750 C 0.87299 0.33304 0.97499 0.0
C751 C 0.87384 0.35224 0.97097 0.0
C752 C 0.88967 0.3344 0.98556 0.0
C753 C 0.88932 0.31467 0.99062 0.0
C754 C 0.87126 0.29882 0.99721 0.0
C755 C 0.87098 0.28021 0.00186 0.0
C756 C 0.88873 0.27733 7e-05 0.0
C757 C 0.90682 0.29309 0.99367 0.0
C758 C 0.90718 0.31173 0.98899 0.0
C759 C 0.93591 0.42908 0.01179 0.0
C760 C 0.95786 0.43564 0.01095 0.0
C761 C 0.91962 0.40908 0.00436 0.0
C762 C 0.92496 0.39527 0.99589 0.0
C763 C 0.94691 0.40162 0.99526 0.0
C764 C 0.96326 0.4217 0.00269 0.0
C765 C 0.90753 0.37413 0.98788 0.0
C766 C 0.90677 0.35493 0.99182 0.0
C767 C 0.89104 0.37278 0.97711 0.0
C768 C 0.89182 0.3925 0.97157 0.0
C769 C 0.91018 0.40799 0.96502 0.0
C770 C 0.91069 0.42637 0.95963 0.0
C771 C 0.89293 0.42942 0.96067 0.0
C772 C 0.87461 0.41411 0.96712 0.0
C773 C 0.87399 0.39568 0.97251 0.0
H774 H 0.8933 0.44357 0.95639 0.0
H775 H 0.88848 0.26291 0.00368 0.0
H776 H 0.72475 0.5242 0.95275 0.0
H777 H 0.69321 0.52062 0.96487 0.0
H778 H 0.70496 0.58156 0.94901 0.0
H779 H 0.73707 0.58579 0.93761 0.0
H780 H 0.69294 0.5792 0.97699 0.0
H781 H 0.66647 0.53198 0.92928 0.0
H782 H 0.66228 0.50256 0.91028 0.0
H783 H 0.63476 0.45653 0.94393 0.0
H784 H 0.63905 0.48575 0.96321 0.0
H785 H 0.56619 0.525 0.96956 0.0
H786 H 0.59978 0.5314 0.95935 0.0
H787 H 0.6317 0.54767 0.00626 0.0
H788 H 0.59835 0.54198 0.01652 0.0
H789 H 0.6219 0.51199 0.96233 0.0
H790 H 0.68529 0.58341 0.00659 0.0
H791 H 0.68863 0.61486 0.0228 0.0
H792 H 0.64067 0.61618 0.9911 0.0
H793 H 0.63726 0.58494 0.97461 0.0
C794 C 0.72083 0.53701 0.95207 0.0
C795 C 0.7333 0.55515 0.94404 0.0
C796 C 0.70267 0.53484 0.95887 0.0
C797 C 0.69647 0.55063 0.9576 0.0
C798 C 0.70933 0.5691 0.95006 0.0
C799 C 0.72756 0.57137 0.94339 0.0
C800 C 0.67628 0.54769 0.9637 0.0
C801 C 0.67742 0.56447 0.97383 0.0
C802 C 0.65593 0.5287 0.9593 0.0
C803 C 0.65329 0.51109 0.94774 0.0
C804 C 0.65967 0.51561 0.93267 0.0
C805 C 0.65726 0.49897 0.92184 0.0
C806 C 0.64832 0.4777 0.92591 0.0
C807 C 0.64172 0.47302 0.9408 0.0
C808 C 0.64412 0.48961 0.95168 0.0
C809 C 0.5804 0.53011 0.97771 0.0
C810 C 0.57962 0.53309 0.99386 0.0
C811 C 0.59959 0.53369 0.97185 0.0
C812 C 0.61835 0.54019 0.98201 0.0
C813 C 0.61758 0.54308 0.99816 0.0
C814 C 0.59846 0.53976 0.00401 0.0
C815 C 0.63854 0.54346 0.97571 0.0
C816 C 0.63743 0.5267 0.96556 0.0
C817 C 0.65879 0.56275 0.97971 0.0
C818 C 0.66087 0.58169 0.98946 0.0
C819 C 0.67552 0.59046 0.00306 0.0
C820 C 0.67741 0.60824 0.0123 0.0
C821 C 0.66482 0.61746 0.00801 0.0
C822 C 0.65035 0.60897 0.99444 0.0
C823 C 0.64841 0.59121 0.98516 0.0
H824 H 0.6663 0.63121 0.01518 0.0
H825 H 0.64646 0.46484 0.91751 0.0
H826 H 0.41411 0.14648 0.95517 0.0
H827 H 0.42255 0.12056 0.96659 0.0
H828 H 0.48468 0.17355 0.9868 0.0
H829 H 0.47645 0.19956 0.9752 0.0
H830 H 0.48791 0.14051 0.97164 0.0
H831 H 0.44498 0.14802 0.00956 0.0
H832 H 0.41292 0.14792 0.01873 0.0
H833 H 0.37291 0.08064 0.00111 0.0
H834 H 0.4047 0.08041 0.99163 0.0
H835 H 0.51866 0.08423 0.02232 0.0
H836 H 0.50818 0.10908 0.01166 0.0
H837 H 0.44568 0.05461 0.99366 0.0
H838 H 0.45596 0.02961 0.00468 0.0
H839 H 0.4419 0.08764 0.00713 0.0
H840 H 0.48484 0.07974 0.9697 0.0
H841 H 0.51685 0.07972 0.96062 0.0
H842 H 0.55667 0.14747 0.97688 0.0
H843 H 0.52497 0.14787 0.98636 0.0
C844 C 0.42956 0.1526 0.96206 0.0
C845 C 0.44464 0.17504 0.96428 0.0
C846 C 0.43429 0.1378 0.96866 0.0
C847 C 0.45419 0.14515 0.9776 0.0
C848 C 0.46921 0.16756 0.97995 0.0
C849 C 0.46443 0.18239 0.97342 0.0
C850 C 0.45962 0.12942 0.98408 0.0
C851 C 0.47803 0.12914 0.97958 0.0
C852 C 0.44633 0.11417 0.99405 0.0
C853 C 0.42719 0.11426 0.99974 0.0
C854 C 0.42931 0.13325 0.00751 0.0
C855 C 0.4112 0.13325 0.01279 0.0
C856 C 0.39088 0.1143 0.01047 0.0
C857 C 0.38865 0.09531 0.00288 0.0
C858 C 0.40672 0.09523 0.99756 0.0
C859 C 0.50266 0.07754 0.01612 0.0
C860 C 0.48817 0.055 0.0142 0.0
C861 C 0.49674 0.09175 0.00997 0.0
C862 C 0.47628 0.08368 0.00166 0.0
C863 C 0.46159 0.06117 0.99997 0.0
C864 C 0.46751 0.04691 0.00618 0.0
C865 C 0.4703 0.09884 0.99479 0.0
C866 C 0.45177 0.09898 0.99918 0.0
C867 C 0.48345 0.11393 0.98467 0.0
C868 C 0.50254 0.11378 0.97888 0.0
C869 C 0.50044 0.09461 0.97146 0.0
C870 C 0.51853 0.09452 0.96622 0.0
C871 C 0.53878 0.11355 0.96818 0.0
C872 C 0.54098 0.13273 0.97538 0.0
C873 C 0.52295 0.1329 0.98069 0.0
H874 H 0.55276 0.11343 0.9641 0.0
H875 H 0.37688 0.11433 0.01457 0.0
H876 H 0.70703 0.13947 0.93233 0.0
H877 H 0.67266 0.11606 0.94277 0.0
H878 H 0.68853 0.16611 0.98017 0.0
H879 H 0.72297 0.18976 0.96968 0.0
H880 H 0.67248 0.12141 0.989 0.0
H881 H 0.65059 0.16055 0.95356 0.0
H882 H 0.6507 0.17403 0.92782 0.0
H883 H 0.6228 0.10905 0.9054 0.0
H884 H 0.62221 0.09517 0.93104 0.0
H885 H 0.57126 0.07175 0.01889 0.0
H886 H 0.60497 0.09761 0.0089 0.0
H887 H 0.58156 0.06113 0.96338 0.0
H888 H 0.54711 0.03626 0.97313 0.0
H889 H 0.60233 0.09988 0.95859 0.0
H890 H 0.62051 0.05871 0.99167 0.0
H891 H 0.62268 0.04237 0.01565 0.0
H892 H 0.66048 0.106 0.04061 0.0
H893 H 0.6583 0.12272 0.01681 0.0
C894 C 0.70318 0.14547 0.94278 0.0
C895 C 0.7176 0.16641 0.95016 0.0
C896 C 0.68355 0.13213 0.9487 0.0
C897 C 0.67803 0.13943 0.96217 0.0
C898 C 0.69253 0.16023 0.96974 0.0
C899 C 0.71213 0.17372 0.96372 0.0
C900 C 0.65703 0.12525 0.96825 0.0
C901 C 0.65709 0.11693 0.98254 0.0
C902 C 0.63708 0.11875 0.95945 0.0
C903 C 0.63633 0.12686 0.94416 0.0
C904 C 0.64437 0.14915 0.94312 0.0
C905 C 0.6445 0.15685 0.92857 0.0
C906 C 0.63676 0.1424 0.91498 0.0
C907 C 0.62878 0.12021 0.91593 0.0
C908 C 0.62836 0.1124 0.93048 0.0
C909 C 0.57336 0.0693 0.00675 0.0
C910 C 0.55674 0.05188 0.99682 0.0
C911 C 0.59271 0.08401 0.00105 0.0
C912 C 0.59626 0.08106 0.98546 0.0
C913 C 0.5794 0.06381 0.97546 0.0
C914 C 0.55974 0.04952 0.98105 0.0
C915 C 0.61749 0.09587 0.97961 0.0
C916 C 0.61757 0.10431 0.96525 0.0
C917 C 0.63764 0.10193 0.98817 0.0
C918 C 0.63905 0.09195 0.0025 0.0
C919 C 0.62916 0.06921 0.0023 0.0
C920 C 0.63041 0.05989 0.01585 0.0
C921 C 0.64166 0.07314 0.02965 0.0
C922 C 0.65175 0.09575 0.02991 0.0
C923 C 0.65053 0.10516 0.01639 0.0
H924 H 0.6426 0.06589 0.04014 0.0
H925 H 0.63693 0.14839 0.90372 0.0
H926 H 0.8106 0.52317 0.95749 0.0
H927 H 0.83501 0.51056 0.96723 0.0
H928 H 0.88661 0.55943 0.94413 0.0
H929 H 0.86227 0.57187 0.93425 0.0
H930 H 0.88586 0.52137 0.94025 0.0
H931 H 0.88391 0.56732 0.98295 0.0
H932 H 0.86616 0.57866 0.00201 0.0
H933 H 0.84069 0.51704 0.0208 0.0
H934 H 0.85808 0.50525 0.0017 0.0
H935 H 0.97139 0.53639 0.00755 0.0
H936 H 0.94304 0.54305 0.99672 0.0
H937 H 0.91383 0.48191 0.96774 0.0
H938 H 0.94258 0.47557 0.97806 0.0
H939 H 0.90141 0.52346 0.99736 0.0
H940 H 0.8892 0.48262 0.93586 0.0
H941 H 0.90994 0.47455 0.91734 0.0
H942 H 0.96851 0.53241 0.93649 0.0
H943 H 0.94818 0.5406 0.95528 0.0
C944 C 0.82713 0.53116 0.95447 0.0
C945 C 0.83465 0.54859 0.9452 0.0
C946 C 0.84105 0.52396 0.96004 0.0
C947 C 0.86267 0.53415 0.95647 0.0
C948 C 0.86999 0.55128 0.94698 0.0
C949 C 0.85612 0.55845 0.94143 0.0
C950 C 0.87804 0.52764 0.96301 0.0
C951 C 0.88915 0.52169 0.95273 0.0
C952 C 0.88251 0.52824 0.97929 0.0
C953 C 0.87208 0.53532 0.99079 0.0
C954 C 0.87438 0.55614 0.99106 0.0
C955 C 0.86441 0.56265 0.00189 0.0
C956 C 0.85224 0.54855 0.01258 0.0
C957 C 0.85008 0.52793 0.01249 0.0
C958 C 0.86 0.52133 0.00168 0.0
C959 C 0.95897 0.52443 0.99881 0.0
C960 C 0.95933 0.5056 0.99351 0.0
C961 C 0.94273 0.5282 0.99267 0.0
C962 C 0.92642 0.51311 0.98126 0.0
C963 C 0.9265 0.49403 0.97624 0.0
C964 C 0.94294 0.49042 0.98217 0.0
C965 C 0.90946 0.51749 0.97461 0.0
C966 C 0.89796 0.52291 0.98486 0.0
C967 C 0.90494 0.51682 0.95833 0.0
C968 C 0.91719 0.5122 0.94694 0.0
C969 C 0.90649 0.49363 0.93607 0.0
C970 C 0.91818 0.48898 0.9256 0.0
C971 C 0.94049 0.50304 0.92569 0.0
C972 C 0.95122 0.52158 0.93641 0.0
C973 C 0.93965 0.52617 0.94703 0.0
H974 H 0.94945 0.49962 0.91743 0.0
H975 H 0.84454 0.55363 0.02096 0.0
H976 H 0.41434 0.28005 0.95792 0.0
H977 H 0.42868 0.31848 0.96673 0.0
H978 H 0.48661 0.3222 0.98849 0.0
H979 H 0.47209 0.28362 0.97997 0.0
H980 H 0.47288 0.34307 0.0071 0.0
H981 H 0.48635 0.34249 0.95343 0.0
H982 H 0.47718 0.33127 0.92515 0.0
H983 H 0.43247 0.35503 0.92383 0.0
H984 H 0.44114 0.36613 0.95216 0.0
H985 H 0.53746 0.45826 0.01684 0.0
H986 H 0.52332 0.4199 0.0079 0.0
H987 H 0.46327 0.41458 0.98924 0.0
H988 H 0.47732 0.45298 0.99823 0.0
H989 H 0.47843 0.39477 0.96902 0.0
H990 H 0.46516 0.39517 0.02292 0.0
H991 H 0.47503 0.40682 0.05111 0.0
H992 H 0.5203 0.38374 0.05181 0.0
H993 H 0.51093 0.37224 0.02355 0.0
C994 C 0.43009 0.28908 0.96465 0.0
C995 C 0.44211 0.27891 0.96823 0.0
C996 C 0.43833 0.31104 0.96959 0.0
C997 C 0.45888 0.32331 0.97806 0.0
C998 C 0.47074 0.31305 0.98193 0.0
C999 C 0.46245 0.29102 0.97704 0.0
C1000 C 0.46794 0.34684 0.98286 0.0
C1001 C 0.47438 0.35442 0.99874 0.0
C1002 C 0.46948 0.36159 0.97199 0.0
C1003 C 0.46424 0.35494 0.95495 0.0
C1004 C 0.47443 0.34516 0.94714 0.0
C1005 C 0.46935 0.33885 0.93109 0.0
C1006 C 0.45421 0.34238 0.92271 0.0
C1007 C 0.44417 0.35228 0.93034 0.0
C1008 C 0.44917 0.3586 0.94639 0.0
C1009 C 0.52126 0.44892 0.01079 0.0
C1010 C 0.50844 0.45853 0.00825 0.0
C1011 C 0.5132 0.42702 0.00574 0.0
C1012 C 0.49217 0.41436 0.99806 0.0
C1013 C 0.47953 0.42408 0.99517 0.0
C1014 C 0.48756 0.44597 0.0003 0.0
C1015 C 0.48331 0.39092 0.99322 0.0
C1016 C 0.47693 0.38338 0.97735 0.0
C1017 C 0.48191 0.37623 0.00408 0.0
C1018 C 0.4875 0.38304 0.02108 0.0
C1019 C 0.47735 0.39274 0.02905 0.0
C1020 C 0.48283 0.39929 0.04505 0.0
C1021 C 0.49833 0.39607 0.05324 0.0
C1022 C 0.50833 0.38625 0.04545 0.0
C1023 C 0.50292 0.3797 0.02944 0.0
H1024 H 0.50254 0.40115 0.06563 0.0
H1025 H 0.45031 0.33749 0.91029 0.0
H1026 H 0.19909 0.7184 0.05289 0.0
H1027 H 0.17437 0.68068 0.04194 0.0
H1028 H 0.12062 0.68382 0.05953 0.0
H1029 H 0.14532 0.72134 0.0707 0.0
H1030 H 0.11871 0.64686 0.06542 0.0
H1031 H 0.12895 0.6867 0.02062 0.0
H1032 H 0.14998 0.71204 0.00185 0.0
H1033 H 0.17697 0.67194 0.98916 0.0
H1034 H 0.15631 0.64649 0.00803 0.0
H1035 H 0.03087 0.55397 0.02172 0.0
H1036 H 0.05729 0.59125 0.03255 0.0
H1037 H 0.10894 0.58375 0.01542 0.0
H1038 H 0.08253 0.54648 0.00447 0.0
H1039 H 0.11293 0.62238 0.00943 0.0
H1040 H 0.10178 0.58208 0.05404 0.0
H1041 H 0.0805 0.55691 0.07281 0.0
H1042 H 0.05443 0.59782 0.08555 0.0
H1043 H 0.07552 0.62322 0.0668 0.0
C1044 C 0.182 0.71106 0.05436 0.0
C1045 C 0.17406 0.72279 0.06259 0.0
C1046 C 0.16787 0.68952 0.04807 0.0
C1047 C 0.14558 0.67945 0.04979 0.0
C1048 C 0.13773 0.69121 0.05806 0.0
C1049 C 0.15182 0.71265 0.06438 0.0
C1050 C 0.13038 0.65662 0.04316 0.0
C1051 C 0.11728 0.64159 0.05314 0.0
C1052 C 0.12884 0.64956 0.02721 0.0
C1053 C 0.14127 0.66483 0.01586 0.0
C1054 C 0.13951 0.68338 0.01392 0.0
C1055 C 0.15134 0.69775 0.00325 0.0
C1056 C 0.16485 0.69364 0.99435 0.0
C1057 C 0.16653 0.67512 0.99608 0.0
C1058 C 0.15475 0.66072 0.00676 0.0
C1059 C 0.04787 0.56028 0.0203 0.0
C1060 C 0.0547 0.54735 0.01232 0.0
C1061 C 0.06295 0.58153 0.02653 0.0
C1062 C 0.08513 0.5902 0.02495 0.0
C1063 C 0.09192 0.57738 0.0168 0.0
C1064 C 0.07684 0.5561 0.01057 0.0
C1065 C 0.1012 0.61272 0.03168 0.0
C1066 C 0.11444 0.62766 0.02173 0.0
C1067 C 0.10282 0.61972 0.04765 0.0
C1068 C 0.0901 0.60446 0.05892 0.0
C1069 C 0.09139 0.58563 0.06076 0.0
C1070 C 0.07938 0.57133 0.07142 0.0
C1071 C 0.06605 0.57572 0.08033 0.0
C1072 C 0.06475 0.59444 0.07863 0.0
C1073 C 0.07677 0.60882 0.06802 0.0
H1074 H 0.0568 0.56468 0.08861 0.0
H1075 H 0.17399 0.70477 0.98609 0.0
H1076 H 0.29575 0.41866 0.07977 0.0
H1077 H 0.33107 0.43164 0.06989 0.0
H1078 H 0.33417 0.49234 0.06178 0.0
H1079 H 0.29842 0.47898 0.07102 0.0
H1080 H 0.34823 0.48086 0.03865 0.0
H1081 H 0.36374 0.48689 0.09386 0.0
H1082 H 0.35981 0.47461 0.12021 0.0
H1083 H 0.37671 0.4267 0.10576 0.0
H1084 H 0.38045 0.43848 0.07925 0.0
H1085 H 0.47256 0.52046 0.05042 0.0
H1086 H 0.43858 0.51191 0.06099 0.0
H1087 H 0.40252 0.46905 0.01938 0.0
H1088 H 0.43641 0.47786 0.00856 0.0
H1089 H 0.4067 0.47574 0.06871 0.0
H1090 H 0.35588 0.46924 0.01121 0.0
H1091 H 0.3617 0.48579 0.98633 0.0
H1092 H 0.41894 0.54284 0.00826 0.0
H1093 H 0.41329 0.52678 0.0333 0.0
C1094 C 0.30398 0.43474 0.07581 0.0
C1095 C 0.29439 0.44779 0.07614 0.0
C1096 C 0.32423 0.44222 0.07028 0.0
C1097 C 0.33553 0.46316 0.06534 0.0
C1098 C 0.32582 0.47615 0.06553 0.0
C1099 C 0.30539 0.46852 0.07084 0.0
C1100 C 0.35733 0.47137 0.0598 0.0
C1101 C 0.361 0.47976 0.04526 0.0
C1102 C 0.37427 0.47048 0.06855 0.0
C1103 C 0.37215 0.46342 0.08452 0.0
C1104 C 0.36645 0.47362 0.09626 0.0
C1105 C 0.36426 0.46675 0.11123 0.0
C1106 C 0.36787 0.44979 0.11462 0.0
C1107 C 0.37382 0.43976 0.10309 0.0
C1108 C 0.37601 0.44655 0.0881 0.0
C1109 C 0.45741 0.50925 0.04347 0.0
C1110 C 0.45721 0.49989 0.0286 0.0
C1111 C 0.43799 0.50435 0.04957 0.0
C1112 C 0.41799 0.49002 0.04092 0.0
C1113 C 0.41775 0.48048 0.02614 0.0
C1114 C 0.43716 0.48546 0.02 0.0
C1115 C 0.39736 0.48474 0.04745 0.0
C1116 C 0.39392 0.47689 0.06216 0.0
C1117 C 0.3809 0.48677 0.03908 0.0
C1118 C 0.38425 0.49669 0.0241 0.0
C1119 C 0.36965 0.48535 0.01074 0.0
C1120 C 0.37293 0.49465 0.9966 0.0
C1121 C 0.39071 0.51533 0.99571 0.0
C1122 C 0.40521 0.52679 0.00895 0.0
C1123 C 0.40199 0.51759 0.02311 0.0
H1124 H 0.39323 0.52248 0.98475 0.0
H1125 H 0.36617 0.4445 0.12622 0.0
H1126 H 0.58945 0.87649 0.07143 0.0
H1127 H 0.5774 0.90039 0.06099 0.0
H1128 H 0.51994 0.8444 0.03746 0.0
H1129 H 0.53221 0.82049 0.04758 0.0
H1130 H 0.53625 0.87571 0.01883 0.0
H1131 H 0.51843 0.87138 0.07153 0.0
H1132 H 0.52488 0.87366 0.10015 0.0
H1133 H 0.57208 0.94158 0.1016 0.0
H1134 H 0.56615 0.93964 0.07295 0.0
H1135 H 0.476 0.92922 0.00438 0.0
H1136 H 0.48832 0.90523 0.01427 0.0
H1137 H 0.54913 0.96122 0.03334 0.0
H1138 H 0.53699 0.9853 0.02326 0.0
H1139 H 0.53075 0.92987 0.05421 0.0
H1140 H 0.54789 0.93349 0.00104 0.0
H1141 H 0.54001 0.93067 0.97251 0.0
H1142 H 0.49222 0.86311 0.97222 0.0
H1143 H 0.4996 0.86561 0.0008 0.0
C1144 C 0.57428 0.86932 0.06398 0.0
C1145 C 0.56176 0.84669 0.06033 0.0
C1146 C 0.56734 0.88296 0.0581 0.0
C1147 C 0.54758 0.87418 0.04864 0.0
C1148 C 0.53521 0.85154 0.04477 0.0
C1149 C 0.54223 0.83789 0.05058 0.0
C1150 C 0.53989 0.88862 0.04274 0.0
C1151 C 0.53477 0.88733 0.0266 0.0
C1152 C 0.53832 0.90409 0.05283 0.0
C1153 C 0.54201 0.9053 0.07007 0.0
C1154 C 0.53033 0.88676 0.07793 0.0
C1155 C 0.53386 0.888 0.09416 0.0
C1156 C 0.54892 0.90774 0.10268 0.0
C1157 C 0.56045 0.92629 0.09498 0.0
C1158 C 0.557 0.92513 0.07875 0.0
C1159 C 0.49202 0.93639 0.01063 0.0
C1160 C 0.50553 0.95909 0.01311 0.0
C1161 C 0.49904 0.92269 0.01626 0.0
C1162 C 0.51968 0.93146 0.02446 0.0
C1163 C 0.53313 0.95414 0.02706 0.0
C1164 C 0.52617 0.96786 0.02133 0.0
C1165 C 0.5272 0.91695 0.03036 0.0
C1166 C 0.53226 0.91823 0.04648 0.0
C1167 C 0.52853 0.90136 0.02027 0.0
C1168 C 0.52415 0.89979 0.00308 0.0
C1169 C 0.53557 0.91808 0.99491 0.0
C1170 C 0.53122 0.91653 0.97873 0.0
C1171 C 0.51558 0.89674 0.97056 0.0
C1172 C 0.50431 0.87844 0.97856 0.0
C1173 C 0.50858 0.87991 0.99475 0.0
H1174 H 0.51224 0.89557 0.95803 0.0
H1175 H 0.55163 0.90867 0.11525 0.0
H1176 H 0.9511 0.14063 0.39199 0.0
H1177 H 0.98442 0.16795 0.38224 0.0
H1178 H 0.9786 0.21908 0.4067 0.0
H1179 H 0.94508 0.19196 0.41621 0.0
H1180 H 0.99334 0.20119 0.36437 0.0
H1181 H 0.03048 0.2595 0.42178 0.0
H1182 H 0.03 0.25762 0.45022 0.0
H1183 H 0.01361 0.19072 0.44401 0.0
H1184 H 0.01448 0.19232 0.41559 0.0
H1185 H 0.0814 0.30172 0.34799 0.0
H1186 H 0.04785 0.27385 0.35714 0.0
H1187 H 0.08478 0.25448 0.38682 0.0
H1188 H 0.11829 0.28261 0.37803 0.0
H1189 H 0.05502 0.25479 0.40203 0.0
H1190 H 0.05601 0.22501 0.35104 0.0
H1191 H 0.05831 0.22453 0.32263 0.0
H1192 H 1.0011 0.2298 0.31605 0.0
H1193 H 0.99862 0.2306 0.34445 0.0
C1194 C 0.95672 0.15768 0.39511 0.0
C1195 C 0.94546 0.16407 0.40499 0.0
C1196 C 0.97582 0.17327 0.38958 0.0
C1197 C 0.98412 0.19552 0.3939 0.0
C1198 C 0.97267 0.20198 0.40343 0.0
C1199 C 0.95355 0.18643 0.40891 0.0
C1200 C 0.00493 0.21202 0.38865 0.0
C1201 C 0.00683 0.21294 0.37259 0.0
C1202 C 0.02267 0.22706 0.3994 0.0
C1203 C 0.02225 0.22597 0.41652 0.0
C1204 C 0.02683 0.24441 0.42649 0.0
C1205 C 0.02651 0.24339 0.44261 0.0
C1206 C 0.02167 0.22403 0.44891 0.0
C1207 C 0.01723 0.20567 0.4391 0.0
C1208 C 0.01764 0.20663 0.42299 0.0
C1209 C 0.08234 0.29154 0.3565 0.0
C1210 C 0.1025 0.29443 0.36234 0.0
C1211 C 0.06315 0.27554 0.36167 0.0
C1212 C 0.06372 0.26182 0.37252 0.0
C1213 C 0.08389 0.26487 0.37848 0.0
C1214 C 0.10307 0.28102 0.37346 0.0
C1215 C 0.04337 0.24426 0.3777 0.0
C1216 C 0.04153 0.24312 0.39378 0.0
C1217 C 0.02588 0.2287 0.36697 0.0
C1218 C 0.02725 0.22806 0.34988 0.0
C1219 C 0.044 0.22621 0.34354 0.0
C1220 C 0.04533 0.22586 0.32744 0.0
C1221 C 0.02989 0.22718 0.31755 0.0
C1222 C 0.01306 0.2288 0.32373 0.0
C1223 C 0.01167 0.22918 0.33982 0.0
H1224 H 0.03095 0.22691 0.30508 0.0
H1225 H 0.02144 0.22328 0.46139 0.0
H1226 H 0.85817 0.77397 0.39501 0.0
H1227 H 0.82844 0.77797 0.38316 0.0
H1228 H 0.83038 0.81445 0.42558 0.0
H1229 H 0.85975 0.81015 0.4375 0.0
H1230 H 0.79018 0.78533 0.41587 0.0
H1231 H 0.85059 0.83895 0.39197 0.0
H1232 H 0.88246 0.85264 0.37708 0.0
H1233 H 0.8428 0.80851 0.3372 0.0
H1234 H 0.81073 0.79435 0.35193 0.0
H1235 H 0.72718 0.83024 0.38758 0.0
H1236 H 0.75646 0.82491 0.3982 0.0
H1237 H 0.74902 0.78517 0.35602 0.0
H1238 H 0.71988 0.79063 0.34519 0.0
H1239 H 0.79126 0.81465 0.36498 0.0
H1240 H 0.73055 0.7619 0.38919 0.0
H1241 H 0.69892 0.74935 0.40425 0.0
H1242 H 0.7397 0.79329 0.44388 0.0
H1243 H 0.77155 0.80629 0.42898 0.0
C1244 C 0.85238 0.78304 0.40171 0.0
C1245 C 0.8612 0.79169 0.41718 0.0
C1246 C 0.83541 0.78533 0.39495 0.0
C1247 C 0.82723 0.79663 0.40345 0.0
C1248 C 0.83631 0.80557 0.41882 0.0
C1249 C 0.85309 0.80311 0.42561 0.0
C1250 C 0.80885 0.79871 0.39658 0.0
C1251 C 0.79056 0.792 0.40483 0.0
C1252 C 0.80906 0.80691 0.382 0.0
C1253 C 0.82831 0.81543 0.37311 0.0
C1254 C 0.8487 0.83205 0.38006 0.0
C1255 C 0.86679 0.83991 0.37165 0.0
C1256 C 0.86467 0.83141 0.35622 0.0
C1257 C 0.84443 0.81506 0.34916 0.0
C1258 C 0.82629 0.80712 0.35753 0.0
C1259 C 0.73165 0.82026 0.38057 0.0
C1260 C 0.72112 0.81083 0.36553 0.0
C1261 C 0.74837 0.81718 0.38669 0.0
C1262 C 0.75481 0.8045 0.37795 0.0
C1263 C 0.74431 0.79502 0.36296 0.0
C1264 C 0.72758 0.79809 0.35682 0.0
C1265 C 0.77276 0.80145 0.38434 0.0
C1266 C 0.79091 0.80794 0.376 0.0
C1267 C 0.77249 0.79317 0.39888 0.0
C1268 C 0.7534 0.78519 0.40792 0.0
C1269 C 0.73275 0.76898 0.40108 0.0
C1270 C 0.71478 0.76177 0.4096 0.0
C1271 C 0.71729 0.77055 0.425 0.0
C1272 C 0.73778 0.78651 0.43194 0.0
C1273 C 0.7558 0.79378 0.42348 0.0
H1274 H 0.70335 0.76496 0.43157 0.0
H1275 H 0.8787 0.83752 0.34972 0.0
H1276 H 0.19733 0.0676 0.38182 0.0
H1277 H 0.1905 0.03243 0.36979 0.0
H1278 H 0.24998 0.04297 0.39417 0.0
H1279 H 0.25709 0.07828 0.40602 0.0
H1280 H 0.2442 0.02557 0.36384 0.0
H1281 H 0.20303 0.01118 0.40806 0.0
H1282 H 0.17677 0.01291 0.42449 0.0
H1283 H 0.12622 0.98008 0.38666 0.0
H1284 H 0.15227 0.97844 0.36992 0.0
H1285 H 0.22159 0.91569 0.35484 0.0
H1286 H 0.23063 0.95226 0.36547 0.0
H1287 H 0.16907 0.94101 0.34446 0.0
H1288 H 0.15974 0.90434 0.33427 0.0
H1289 H 0.17647 0.95911 0.37325 0.0
H1290 H 0.21746 0.97335 0.32892 0.0
H1291 H 0.24368 0.97169 0.3124 0.0
H1292 H 0.2944 0.00472 0.3501 0.0
H1293 H 0.2684 0.00632 0.36692 0.0
C1294 C 0.20909 0.06254 0.38444 0.0
C1295 C 0.22766 0.07561 0.39496 0.0
C1296 C 0.2051 0.0424 0.37765 0.0
C1297 C 0.21961 0.03498 0.38125 0.0
C1298 C 0.23854 0.04834 0.39129 0.0
C1299 C 0.24248 0.06842 0.39813 0.0
C1300 C 0.2147 0.01297 0.37498 0.0
C1301 C 0.22951 0.011 0.36602 0.0
C1302 C 0.19537 0.99401 0.37763 0.0
C1303 C 0.17965 0.99489 0.38769 0.0
C1304 C 0.18635 0.00449 0.40321 0.0
C1305 C 0.1715 0.00543 0.41258 0.0
C1306 C 0.14985 0.99667 0.40661 0.0
C1307 C 0.143 0.9869 0.39126 0.0
C1308 C 0.1578 0.98594 0.38183 0.0
C1309 C 0.21 0.92104 0.35255 0.0
C1310 C 0.18995 0.90719 0.34378 0.0
C1311 C 0.21523 0.94198 0.35852 0.0
C1312 C 0.20061 0.94949 0.35563 0.0
C1313 C 0.1806 0.9356 0.34685 0.0
C1314 C 0.17533 0.91468 0.34099 0.0
C1315 C 0.20587 0.97164 0.36195 0.0
C1316 C 0.19115 0.97365 0.37099 0.0
C1317 C 0.22525 0.99061 0.35934 0.0
C1318 C 0.24093 0.98976 0.34922 0.0
C1319 C 0.23417 0.98011 0.33372 0.0
C1320 C 0.24899 0.97921 0.3243 0.0
C1321 C 0.27068 0.98804 0.33021 0.0
C1322 C 0.27759 0.99786 0.34554 0.0
C1323 C 0.26282 0.99878 0.35502 0.0
H1324 H 0.28213 0.98733 0.32289 0.0
H1325 H 0.13837 0.99741 0.41389 0.0
H1326 H 0.51657 0.60046 0.28085 0.0
H1327 H 0.54531 0.63524 0.29393 0.0
H1328 H 0.49731 0.65008 0.30924 0.0
H1329 H 0.46842 0.61554 0.29568 0.0
H1330 H 0.52896 0.68417 0.29734 0.0
H1331 H 0.52554 0.63558 0.33467 0.0
H1332 H 0.52539 0.60338 0.34389 0.0
H1333 H 0.58929 0.62604 0.33003 0.0
H1334 H 0.5897 0.65824 0.32052 0.0
H1335 H 0.59792 0.77383 0.35224 0.0
H1336 H 0.56982 0.73819 0.33993 0.0
H1337 H 0.61897 0.72601 0.32337 0.0
H1338 H 0.64732 0.76172 0.33597 0.0
H1339 H 0.58722 0.69078 0.33557 0.0
H1340 H 0.59066 0.74007 0.2987 0.0
H1341 H 0.59068 0.77256 0.2902 0.0
H1342 H 0.52655 0.74887 0.30381 0.0
H1343 H 0.52619 0.71633 0.31256 0.0
C1344 C 0.51211 0.61111 0.287 0.0
C1345 C 0.49019 0.60525 0.28718 0.0
C1346 C 0.52857 0.63093 0.29459 0.0
C1347 C 0.52348 0.64523 0.30266 0.0
C1348 C 0.50161 0.63928 0.30309 0.0
C1349 C 0.48511 0.61945 0.29547 0.0
C1350 C 0.54102 0.66666 0.31022 0.0
C1351 C 0.54152 0.6856 0.30587 0.0
C1352 C 0.55775 0.66856 0.32103 0.0
C1353 C 0.55756 0.64922 0.32674 0.0
C1354 C 0.53949 0.63361 0.33347 0.0
C1355 C 0.53937 0.61537 0.33877 0.0
C1356 C 0.55729 0.61264 0.33751 0.0
C1357 C 0.5754 0.62816 0.33098 0.0
C1358 C 0.57559 0.64642 0.32565 0.0
C1359 C 0.60276 0.76354 0.34602 0.0
C1360 C 0.62477 0.77055 0.34497 0.0
C1361 C 0.58668 0.74323 0.33892 0.0
C1362 C 0.59229 0.72959 0.33053 0.0
C1363 C 0.61431 0.73636 0.32972 0.0
C1364 C 0.63045 0.75674 0.33686 0.0
C1365 C 0.57508 0.70822 0.32274 0.0
C1366 C 0.57466 0.68932 0.32702 0.0
C1367 C 0.5584 0.70637 0.3119 0.0
C1368 C 0.55847 0.72581 0.30642 0.0
C1369 C 0.57661 0.74184 0.29998 0.0
C1370 C 0.57669 0.76027 0.29511 0.0
C1371 C 0.55869 0.76282 0.29653 0.0
C1372 C 0.54051 0.74689 0.30274 0.0
C1373 C 0.54034 0.72843 0.30764 0.0
H1374 H 0.5588 0.77712 0.29277 0.0
H1375 H 0.55717 0.59851 0.34162 0.0
H1376 H 0.37639 0.87555 0.25388 0.0
H1377 H 0.34525 0.87359 0.26552 0.0
H1378 H 0.38202 0.89449 0.31088 0.0
H1379 H 0.41326 0.89623 0.29927 0.0
H1380 H 0.34217 0.86207 0.31283 0.0
H1381 H 0.37247 0.92954 0.29019 0.0
H1382 H 0.38674 0.95385 0.26943 0.0
H1383 H 0.32524 0.91734 0.24164 0.0
H1384 H 0.31068 0.8926 0.26215 0.0
H1385 H 0.2659 0.88282 0.34825 0.0
H1386 H 0.29938 0.88872 0.33798 0.0
H1387 H 0.26491 0.86223 0.29213 0.0
H1388 H 0.2314 0.85634 0.30224 0.0
H1389 H 0.30484 0.89949 0.29156 0.0
H1390 H 0.27535 0.83121 0.3139 0.0
H1391 H 0.26112 0.80723 0.33486 0.0
H1392 H 0.32158 0.84611 0.36352 0.0
H1393 H 0.33605 0.87054 0.34281 0.0
C1394 C 0.37791 0.8799 0.26632 0.0
C1395 C 0.39733 0.88621 0.27564 0.0
C1396 C 0.3601 0.8788 0.27296 0.0
C1397 C 0.36139 0.88427 0.28904 0.0
C1398 C 0.38066 0.89026 0.29844 0.0
C1399 C 0.39848 0.89121 0.2918 0.0
C1400 C 0.3425 0.88342 0.29601 0.0
C1401 C 0.33425 0.87056 0.30835 0.0
C1402 C 0.33188 0.89417 0.28999 0.0
C1403 C 0.34054 0.9091 0.27767 0.0
C1404 C 0.36203 0.9266 0.27961 0.0
C1405 C 0.37017 0.94047 0.26789 0.0
C1406 C 0.35692 0.93711 0.25421 0.0
C1407 C 0.33549 0.91991 0.25224 0.0
C1408 C 0.32728 0.90597 0.26392 0.0
C1409 C 0.26545 0.8784 0.33596 0.0
C1410 C 0.24592 0.86898 0.32609 0.0
C1411 C 0.28459 0.88171 0.33013 0.0
C1412 C 0.28456 0.87571 0.31433 0.0
C1413 C 0.26526 0.86693 0.30436 0.0
C1414 C 0.2461 0.86349 0.31019 0.0
C1415 C 0.30451 0.87806 0.30825 0.0
C1416 C 0.31291 0.89116 0.29609 0.0
C1417 C 0.31531 0.86761 0.31446 0.0
C1418 C 0.3067 0.85284 0.32687 0.0
C1419 C 0.28555 0.83475 0.32472 0.0
C1420 C 0.27745 0.82106 0.33655 0.0
C1421 C 0.29042 0.82517 0.35053 0.0
C1422 C 0.31154 0.84296 0.35269 0.0
C1423 C 0.3197 0.85673 0.34091 0.0
H1424 H 0.28412 0.81455 0.35967 0.0
H1425 H 0.36325 0.94787 0.24515 0.0
H1426 H 0.14623 0.53551 0.31013 0.0
H1427 H 0.15349 0.50894 0.32177 0.0
H1428 H 0.09149 0.45682 0.30057 0.0
H1429 H 0.08392 0.48334 0.28921 0.0
H1430 H 0.10005 0.45024 0.33032 0.0
H1431 H 0.1366 0.46811 0.28398 0.0
H1432 H 0.16114 0.49247 0.26611 0.0
H1433 H 0.21495 0.51616 0.30143 0.0
H1434 H 0.19065 0.49217 0.31961 0.0
H1435 H 0.1233 0.36402 0.33761 0.0
H1436 H 0.11331 0.3897 0.3275 0.0
H1437 H 0.17556 0.4434 0.34686 0.0
H1438 H 0.18571 0.41786 0.35668 0.0
H1439 H 0.16603 0.44852 0.31764 0.0
H1440 H 0.12922 0.43055 0.36408 0.0
H1441 H 0.10453 0.40597 0.38178 0.0
H1442 H 0.0511 0.38207 0.34611 0.0
H1443 H 0.07555 0.40632 0.32811 0.0
C1444 C 0.13401 0.51842 0.30815 0.0
C1445 C 0.11458 0.51151 0.29865 0.0
C1446 C 0.13824 0.50324 0.3147 0.0
C1447 C 0.12316 0.48087 0.31184 0.0
C1448 C 0.1034 0.47399 0.30286 0.0
C1449 C 0.09918 0.48914 0.29628 0.0
C1450 C 0.1283 0.46462 0.31775 0.0
C1451 C 0.11434 0.44968 0.32741 0.0
C1452 C 0.1471 0.4641 0.31413 0.0
C1453 C 0.16176 0.4785 0.30321 0.0
C1454 C 0.15363 0.47864 0.28798 0.0
C1455 C 0.1675 0.49237 0.27779 0.0
C1456 C 0.18958 0.5059 0.28265 0.0
C1457 C 0.19784 0.5057 0.2977 0.0
C1458 C 0.18403 0.49203 0.30795 0.0
C1459 C 0.1348 0.38131 0.33969 0.0
C1460 C 0.15528 0.38898 0.34789 0.0
C1461 C 0.12905 0.39596 0.33399 0.0
C1462 C 0.14363 0.4185 0.33653 0.0
C1463 C 0.16406 0.4261 0.34475 0.0
C1464 C 0.1698 0.41149 0.35041 0.0
C1465 C 0.13793 0.43426 0.33037 0.0
C1466 C 0.15175 0.44907 0.32059 0.0
C1467 C 0.119 0.43462 0.33388 0.0
C1468 C 0.10426 0.42009 0.3447 0.0
C1469 C 0.11224 0.41993 0.35997 0.0
C1470 C 0.09828 0.40608 0.37006 0.0
C1471 C 0.07627 0.39242 0.36506 0.0
C1472 C 0.06816 0.39263 0.34996 0.0
C1473 C 0.08205 0.40644 0.33981 0.0
H1474 H 0.06549 0.38171 0.37289 0.0
H1475 H 0.2003 0.5165 0.27473 0.0
H1476 H 0.35623 0.49862 0.25791 0.0
H1477 H 0.32408 0.47249 0.26952 0.0
H1478 H 0.36151 0.49073 0.31452 0.0
H1479 H 0.3938 0.51686 0.30293 0.0
H1480 H 0.33575 0.44631 0.30805 0.0
H1481 H 0.32705 0.50888 0.30693 0.0
H1482 H 0.32518 0.53854 0.29488 0.0
H1483 H 0.27119 0.49179 0.26289 0.0
H1484 H 0.27292 0.46184 0.27461 0.0
H1485 H 0.24448 0.39242 0.35113 0.0
H1486 H 0.27782 0.41914 0.34111 0.0
H1487 H 0.24258 0.40811 0.29596 0.0
H1488 H 0.20913 0.38188 0.30597 0.0
H1489 H 0.26806 0.4499 0.30355 0.0
H1490 H 0.27703 0.38743 0.30357 0.0
H1491 H 0.27865 0.35724 0.31496 0.0
H1492 H 0.33169 0.40285 0.34809 0.0
H1493 H 0.3302 0.43332 0.33703 0.0
C1494 C 0.35757 0.49709 0.27029 0.0
C1495 C 0.37744 0.50984 0.27952 0.0
C1496 C 0.3392 0.48221 0.27691 0.0
C1497 C 0.34034 0.47984 0.29292 0.0
C1498 C 0.36027 0.49236 0.30215 0.0
C1499 C 0.37867 0.50733 0.29553 0.0
C1500 C 0.32071 0.46418 0.29994 0.0
C1501 C 0.32104 0.44726 0.30729 0.0
C1502 C 0.30137 0.46513 0.2986 0.0
C1503 C 0.30024 0.48312 0.29156 0.0
C1504 C 0.31488 0.50492 0.29725 0.0
C1505 C 0.31383 0.52179 0.29049 0.0
C1506 C 0.29811 0.51705 0.2781 0.0
C1507 C 0.28337 0.49544 0.27247 0.0
C1508 C 0.28437 0.47851 0.27918 0.0
C1509 C 0.24384 0.39559 0.33904 0.0
C1510 C 0.22412 0.38495 0.32935 0.0
C1511 C 0.26295 0.41083 0.33331 0.0
C1512 C 0.26279 0.41549 0.31772 0.0
C1513 C 0.24313 0.40482 0.30803 0.0
C1514 C 0.224 0.38974 0.31377 0.0
C1515 C 0.28296 0.43183 0.31156 0.0
C1516 C 0.28276 0.44892 0.30437 0.0
C1517 C 0.30236 0.43092 0.31295 0.0
C1518 C 0.30335 0.41264 0.31958 0.0
C1519 C 0.28893 0.39102 0.31336 0.0
C1520 C 0.28984 0.37385 0.31974 0.0
C1521 C 0.30522 0.37812 0.33227 0.0
C1522 C 0.31976 0.39957 0.33841 0.0
C1523 C 0.3189 0.41679 0.33208 0.0
H1524 H 0.3059 0.36481 0.33719 0.0
H1525 H 0.29732 0.53013 0.27289 0.0
H1526 H 0.48808 0.84198 0.25283 0.0
H1527 H 0.51719 0.8371 0.26468 0.0
H1528 H 0.51436 0.86673 0.30887 0.0
H1529 H 0.48526 0.87173 0.29704 0.0
H1530 H 0.55593 0.88352 0.30114 0.0
H1531 H 0.49397 0.81258 0.3031 0.0
H1532 H 0.46104 0.77837 0.29255 0.0
H1533 H 0.49804 0.76379 0.26164 0.0
H1534 H 0.53114 0.7981 0.27183 0.0
H1535 H 0.62398 0.85731 0.34692 0.0
H1536 H 0.59391 0.86117 0.33593 0.0
H1537 H 0.59147 0.82619 0.29258 0.0
H1538 H 0.62117 0.82179 0.3036 0.0
H1539 H 0.55218 0.812 0.30026 0.0
H1540 H 0.61343 0.88242 0.29681 0.0
H1541 H 0.64694 0.91664 0.30645 0.0
H1542 H 0.61219 0.93243 0.33874 0.0
H1543 H 0.57852 0.89813 0.32943 0.0
C1544 C 0.49357 0.84728 0.26511 0.0
C1545 C 0.48439 0.85713 0.27403 0.0
C1546 C 0.51014 0.84443 0.27187 0.0
C1547 C 0.51781 0.85138 0.28769 0.0
C1548 C 0.50863 0.86121 0.29665 0.0
C1549 C 0.49196 0.86398 0.28989 0.0
C1550 C 0.53591 0.84902 0.29473 0.0
C1551 C 0.55501 0.86785 0.30117 0.0
C1552 C 0.53492 0.82864 0.29431 0.0
C1553 C 0.515 0.80805 0.28812 0.0
C1554 C 0.49505 0.80219 0.29394 0.0
C1555 C 0.47636 0.78276 0.28805 0.0
C1556 C 0.47743 0.76895 0.2764 0.0
C1557 C 0.49722 0.77452 0.27064 0.0
C1558 C 0.51595 0.79396 0.27648 0.0
C1559 C 0.61717 0.85057 0.33501 0.0
C1560 C 0.62509 0.83935 0.32612 0.0
C1561 C 0.6 0.85285 0.32872 0.0
C1562 C 0.59061 0.84424 0.31335 0.0
C1563 C 0.59848 0.83302 0.30445 0.0
C1564 C 0.61554 0.8306 0.31077 0.0
C1565 C 0.57227 0.84652 0.30664 0.0
C1566 C 0.55312 0.82768 0.30026 0.0
C1567 C 0.5733 0.86692 0.30694 0.0
C1568 C 0.5935 0.8876 0.31253 0.0
C1569 C 0.61297 0.89311 0.30605 0.0
C1570 C 0.63199 0.91253 0.31144 0.0
C1571 C 0.63171 0.92668 0.32323 0.0
C1572 C 0.61239 0.92145 0.32962 0.0
C1573 C 0.59333 0.90202 0.32428 0.0
H1574 H 0.64645 0.94171 0.32739 0.0
H1575 H 0.46295 0.7539 0.27186 0.0
H1576 H 0.14514 0.62163 0.31309 0.0
H1577 H 0.15944 0.65999 0.3222 0.0
H1578 H 0.10214 0.65692 0.29984 0.0
H1579 H 0.08805 0.61873 0.29043 0.0
H1580 H 0.13694 0.69301 0.29428 0.0
H1581 H 0.10972 0.65646 0.33977 0.0
H1582 H 0.10597 0.63222 0.3601 0.0
H1583 H 0.17399 0.67157 0.37531 0.0
H1584 H 0.1782 0.6959 0.35492 0.0
H1585 H 0.14556 0.78802 0.33356 0.0
H1586 H 0.13376 0.75033 0.32404 0.0
H1587 H 0.19498 0.75879 0.34322 0.0
H1588 H 0.20693 0.79658 0.35269 0.0
H1589 H 0.15975 0.72064 0.35028 0.0
H1590 H 0.1862 0.75804 0.30497 0.0
H1591 H 0.18893 0.78257 0.28511 0.0
H1592 H 0.12102 0.7418 0.27006 0.0
H1593 H 0.11784 0.7171 0.28994 0.0
C1594 C 0.13557 0.62912 0.31018 0.0
C1595 C 0.11542 0.61721 0.30113 0.0
C1596 C 0.14373 0.65103 0.31542 0.0
C1597 C 0.13177 0.66131 0.31184 0.0
C1598 C 0.11168 0.64938 0.30275 0.0
C1599 C 0.1036 0.62755 0.29744 0.0
C1600 C 0.14015 0.68451 0.31748 0.0
C1601 C 0.1417 0.69898 0.30655 0.0
C1602 C 0.1468 0.69246 0.33344 0.0
C1603 C 0.14432 0.67786 0.34571 0.0
C1604 C 0.12391 0.65984 0.34737 0.0
C1605 C 0.12169 0.64611 0.35892 0.0
C1606 C 0.13974 0.65032 0.36896 0.0
C1607 C 0.16003 0.66831 0.3675 0.0
C1608 C 0.16234 0.68208 0.35596 0.0
C1609 C 0.15654 0.78187 0.33565 0.0
C1610 C 0.17719 0.79521 0.34378 0.0
C1611 C 0.1498 0.76037 0.33021 0.0
C1612 C 0.16358 0.75184 0.33282 0.0
C1613 C 0.18413 0.76508 0.34108 0.0
C1614 C 0.19093 0.78664 0.34645 0.0
C1615 C 0.1564 0.729 0.32711 0.0
C1616 C 0.15508 0.71464 0.33801 0.0
C1617 C 0.14983 0.72114 0.31114 0.0
C1618 C 0.15175 0.7358 0.29903 0.0
C1619 C 0.17182 0.75437 0.29749 0.0
C1620 C 0.17345 0.7683 0.28622 0.0
C1621 C 0.15514 0.76379 0.27636 0.0
C1622 C 0.13518 0.74528 0.27772 0.0
C1623 C 0.13347 0.73129 0.28896 0.0
H1624 H 0.15642 0.77458 0.26764 0.0
H1625 H 0.13799 0.63967 0.3779 0.0
H1626 H 0.86383 0.05533 0.38388 0.0
H1627 H 0.83909 0.01753 0.37318 0.0
H1628 H 0.7858 0.02026 0.39202 0.0
H1629 H 0.81057 0.05787 0.40299 0.0
H1630 H 0.78464 0.98373 0.39789 0.0
H1631 H 0.79254 0.02234 0.35268 0.0
H1632 H 0.81248 0.04737 0.33341 0.0
H1633 H 0.84 0.00788 0.32035 0.0
H1634 H 0.82043 0.98276 0.3397 0.0
H1635 H 0.69685 0.88923 0.35517 0.0
H1636 H 0.72287 0.92679 0.36568 0.0
H1637 H 0.77503 0.91999 0.34879 0.0
H1638 H 0.74905 0.88237 0.33831 0.0
H1639 H 0.77747 0.95811 0.34197 0.0
H1640 H 0.76941 0.91952 0.38721 0.0
H1641 H 0.74973 0.89481 0.4067 0.0
H1642 H 0.7219 0.93413 0.41939 0.0
H1643 H 0.74144 0.95912 0.39995 0.0
C1644 C 0.84683 0.0479 0.38565 0.0
C1645 C 0.83905 0.05952 0.39421 0.0
C1646 C 0.83268 0.02631 0.3795 0.0
C1647 C 0.81052 0.01609 0.38167 0.0
C1648 C 0.80281 0.02777 0.3902 0.0
C1649 C 0.81694 0.04926 0.3964 0.0
C1650 C 0.79537 0.99311 0.37533 0.0
C1651 C 0.78288 0.97822 0.38562 0.0
C1652 C 0.79343 0.98573 0.3594 0.0
C1653 C 0.8052 1.0008 0.34775 0.0
C1654 C 0.80298 0.01909 0.34579 0.0
C1655 C 0.81419 0.03327 0.33483 0.0
C1656 C 0.82755 0.02925 0.32569 0.0
C1657 C 0.82967 0.01099 0.32745 0.0
C1658 C 0.81852 0.99677 0.3384 0.0
C1659 C 0.71388 0.89573 0.35377 0.0
C1660 C 0.72098 0.88289 0.34602 0.0
C1661 C 0.72873 0.91716 0.3598 0.0
C1662 C 0.75092 0.92611 0.35815 0.0
C1663 C 0.75798 0.91338 0.35021 0.0
C1664 C 0.74315 0.89191 0.34425 0.0
C1665 C 0.7667 0.94886 0.36451 0.0
C1666 C 0.77928 0.96367 0.35424 0.0
C1667 C 0.76869 0.95618 0.38044 0.0
C1668 C 0.75674 0.94108 0.39203 0.0
C1669 C 0.75895 0.9228 0.39407 0.0
C1670 C 0.74786 0.90877 0.40513 0.0
C1671 C 0.73449 0.91284 0.41424 0.0
C1672 C 0.73224 0.93099 0.41232 0.0
C1673 C 0.74337 0.94513 0.40131 0.0
H1674 H 0.72595 0.902 0.42283 0.0
H1675 H 0.83621 0.04024 0.31721 0.0
H1676 H 0.99322 0.81576 0.43814 0.0
H1677 H 0.02476 0.82194 0.42481 0.0
H1678 H 0.9848 0.79839 0.38071 0.0
H1679 H 0.95309 0.79207 0.39405 0.0
H1680 H 0.01236 0.7816 0.38457 0.0
H1681 H 0.01768 0.85157 0.38912 0.0
H1682 H 0.01849 0.88338 0.40283 0.0
H1683 H 0.07479 0.89605 0.43257 0.0
H1684 H 0.07414 0.86413 0.41917 0.0
H1685 H 0.10284 0.81905 0.33969 0.0
H1686 H 0.06928 0.81186 0.35046 0.0
H1687 H 0.10485 0.84059 0.39578 0.0
H1688 H 0.13847 0.84832 0.38506 0.0
H1689 H 0.07814 0.85494 0.38963 0.0
H1690 H 0.07217 0.7845 0.38652 0.0
H1691 H 0.07157 0.75239 0.37354 0.0
H1692 H 0.01697 0.74019 0.342 0.0
H1693 H 0.01743 0.77242 0.35467 0.0
C1694 C 0.99119 0.81192 0.4256 0.0
C1695 C 0.9708 0.80359 0.41712 0.0
C1696 C 0.0092 0.81551 0.418 0.0
C1697 C 0.00716 0.81086 0.40175 0.0
C1698 C 0.98671 0.80215 0.39325 0.0
C1699 C 0.96865 0.79863 0.40087 0.0
C1700 C 0.02649 0.81516 0.39374 0.0
C1701 C 0.02664 0.7977 0.38544 0.0
C1702 C 0.04525 0.83606 0.39519 0.0
C1703 C 0.04575 0.85534 0.40322 0.0
C1704 C 0.03014 0.86104 0.39866 0.0
C1705 C 0.03059 0.87911 0.40636 0.0
C1706 C 0.04665 0.8917 0.41858 0.0
C1707 C 0.06234 0.88628 0.4231 0.0
C1708 C 0.06196 0.86821 0.41545 0.0
C1709 C 0.1035 0.82374 0.35197 0.0
C1710 C 0.12334 0.83424 0.36151 0.0
C1711 C 0.08428 0.81955 0.35812 0.0
C1712 C 0.08448 0.82548 0.37398 0.0
C1713 C 0.10427 0.83589 0.38351 0.0
C1714 C 0.1235 0.84025 0.37736 0.0
C1715 C 0.06422 0.82131 0.38063 0.0
C1716 C 0.06386 0.83884 0.38867 0.0
C1717 C 0.04535 0.80043 0.37903 0.0
C1718 C 0.04499 0.78101 0.37143 0.0
C1719 C 0.06014 0.77507 0.37674 0.0
C1720 C 0.05981 0.75683 0.36945 0.0
C1721 C 0.04428 0.74429 0.35692 0.0
C1722 C 0.02901 0.74994 0.35169 0.0
C1723 C 0.02929 0.76818 0.35892 0.0
H1724 H 0.04405 0.73018 0.35129 0.0
H1725 H 0.04697 0.90568 0.42453 0.0
H1726 H 0.20242 0.15542 0.37813 0.0
H1727 H 0.18987 0.17873 0.36729 0.0
H1728 H 0.24584 0.23541 0.39164 0.0
H1729 H 0.25811 0.21209 0.40282 0.0
H1730 H 0.21111 0.23792 0.39522 0.0
H1731 H 0.24093 0.22199 0.3514 0.0
H1732 H 0.24565 0.19861 0.33166 0.0
H1733 H 0.1785 0.16886 0.31405 0.0
H1734 H 0.1733 0.19187 0.33383 0.0
H1735 H 0.20358 0.31876 0.35516 0.0
H1736 H 0.21556 0.29449 0.36503 0.0
H1737 H 0.15561 0.23875 0.34438 0.0
H1738 H 0.14343 0.26297 0.33463 0.0
H1739 H 0.19157 0.23533 0.33867 0.0
H1740 H 0.16203 0.2512 0.38286 0.0
H1741 H 0.1574 0.27408 0.40304 0.0
H1742 H 0.22495 0.30461 0.41972 0.0
H1743 H 0.22999 0.28188 0.39959 0.0
C1744 C 0.21211 0.17286 0.38108 0.0
C1745 C 0.23129 0.182 0.39128 0.0
C1746 C 0.20497 0.18619 0.37483 0.0
C1747 C 0.21703 0.20889 0.3785 0.0
C1748 C 0.23625 0.21797 0.38863 0.0
C1749 C 0.24329 0.20466 0.39496 0.0
C1750 C 0.20932 0.22317 0.37224 0.0
C1751 C 0.20716 0.23756 0.38283 0.0
C1752 C 0.2036 0.22235 0.3561 0.0
C1753 C 0.20668 0.20849 0.3442 0.0
C1754 C 0.22712 0.21033 0.3434 0.0
C1755 C 0.22989 0.19718 0.33219 0.0
C1756 C 0.21237 0.18222 0.32164 0.0
C1757 C 0.19205 0.18043 0.32225 0.0
C1758 C 0.18919 0.19354 0.33345 0.0
C1759 C 0.19291 0.30133 0.35281 0.0
C1760 C 0.17251 0.29272 0.34425 0.0
C1761 C 0.19977 0.28749 0.35845 0.0
C1762 C 0.18639 0.26481 0.35556 0.0
C1763 C 0.16616 0.2562 0.34676 0.0
C1764 C 0.15923 0.27004 0.34122 0.0
C1765 C 0.19357 0.25012 0.36166 0.0
C1766 C 0.19559 0.23567 0.35105 0.0
C1767 C 0.19928 0.25094 0.37777 0.0
C1768 C 0.19642 0.26498 0.38964 0.0
C1769 C 0.17594 0.26294 0.39073 0.0
C1770 C 0.17324 0.27584 0.4022 0.0
C1771 C 0.1909 0.29084 0.41264 0.0
C1772 C 0.2113 0.29299 0.41162 0.0
C1773 C 0.21407 0.28006 0.40021 0.0
H1774 H 0.18878 0.30071 0.42158 0.0
H1775 H 0.21455 0.17205 0.31296 0.0
H1776 H 0.63385 0.49852 0.75949 0.0
H1777 H 0.66657 0.52678 0.74981 0.0
H1778 H 0.629 0.5226 0.70734 0.0
H1779 H 0.59613 0.49413 0.71694 0.0
H1780 H 0.66693 0.52605 0.70123 0.0
H1781 H 0.64452 0.56387 0.73662 0.0
H1782 H 0.63358 0.5717 0.76164 0.0
H1783 H 0.69501 0.58695 0.78504 0.0
H1784 H 0.7062 0.5789 0.76019 0.0
H1785 H 0.74698 0.62458 0.67564 0.0
H1786 H 0.71344 0.59682 0.68473 0.0
H1787 H 0.74901 0.59934 0.72777 0.0
H1788 H 0.78253 0.62739 0.71891 0.0
H1789 H 0.71153 0.59707 0.73326 0.0
H1790 H 0.73373 0.55856 0.69835 0.0
H1791 H 0.74487 0.55031 0.67356 0.0
H1792 H 0.68415 0.53608 0.6495 0.0
H1793 H 0.67277 0.54457 0.67412 0.0
C1794 C 0.63253 0.50365 0.7481 0.0
C1795 C 0.61236 0.49423 0.73904 0.0
C1796 C 0.65126 0.51982 0.74258 0.0
C1797 C 0.6502 0.52713 0.72797 0.0
C1798 C 0.6302 0.51729 0.71867 0.0
C1799 C 0.61145 0.50099 0.72416 0.0
C1800 C 0.66993 0.54519 0.72249 0.0
C1801 C 0.6765 0.54169 0.70813 0.0
C1802 C 0.68271 0.56546 0.73164 0.0
C1803 C 0.67612 0.5706 0.74656 0.0
C1804 C 0.65565 0.56876 0.74712 0.0
C1805 C 0.6494 0.57326 0.76127 0.0
C1806 C 0.66357 0.57977 0.77492 0.0
C1807 C 0.68404 0.58188 0.77445 0.0
C1808 C 0.69035 0.57738 0.76033 0.0
C1809 C 0.7477 0.61936 0.68708 0.0
C1810 C 0.76757 0.62815 0.69648 0.0
C1811 C 0.72849 0.60338 0.69223 0.0
C1812 C 0.72874 0.59572 0.70683 0.0
C1813 C 0.74842 0.60491 0.71643 0.0
C1814 C 0.76762 0.62093 0.71131 0.0
C1815 C 0.70857 0.57791 0.71202 0.0
C1816 C 0.70191 0.58146 0.72634 0.0
C1817 C 0.69575 0.55767 0.70285 0.0
C1818 C 0.70249 0.55241 0.68805 0.0
C1819 C 0.72282 0.55383 0.68775 0.0
C1820 C 0.72916 0.54909 0.67373 0.0
C1821 C 0.71525 0.54273 0.65996 0.0
C1822 C 0.69492 0.54104 0.66018 0.0
C1823 C 0.68851 0.5458 0.67416 0.0
H1824 H 0.72019 0.53906 0.64912 0.0
H1825 H 0.6587 0.58322 0.78587 0.0
H1826 H 0.52614 0.14686 0.77151 0.0
H1827 H 0.49621 0.14974 0.75895 0.0
H1828 H 0.49905 0.11711 0.7162 0.0
H1829 H 0.52905 0.11412 0.72873 0.0
H1830 H 0.49278 0.15096 0.71065 0.0
H1831 H 0.461 0.0893 0.73991 0.0
H1832 H 0.45623 0.06964 0.76327 0.0
H1833 H 0.43865 0.11211 0.78746 0.0
H1834 H 0.44366 0.13226 0.76431 0.0
H1835 H 0.38904 0.12707 0.67635 0.0
H1836 H 0.41897 0.12279 0.68723 0.0
H1837 H 0.42025 0.15559 0.73126 0.0
H1838 H 0.39025 0.15977 0.72057 0.0
H1839 H 0.42387 0.11992 0.73527 0.0
H1840 H 0.45696 0.18232 0.70627 0.0
H1841 H 0.46198 0.20209 0.68294 0.0
H1842 H 0.47698 0.15794 0.65818 0.0
H1843 H 0.47172 0.13769 0.6813 0.0
C1844 C 0.5204 0.1403 0.75943 0.0
C1845 C 0.52983 0.13007 0.75116 0.0
C1846 C 0.50331 0.14196 0.75226 0.0
C1847 C 0.49514 0.13329 0.73672 0.0
C1848 C 0.50506 0.12385 0.72822 0.0
C1849 C 0.52224 0.12222 0.73538 0.0
C1850 C 0.47588 0.1336 0.72954 0.0
C1851 C 0.47761 0.14389 0.71589 0.0
C1852 C 0.45618 0.12466 0.73653 0.0
C1853 C 0.45289 0.11241 0.75041 0.0
C1854 C 0.45626 0.09454 0.75024 0.0
C1855 C 0.4535 0.0833 0.76344 0.0
C1856 C 0.44719 0.08966 0.77685 0.0
C1857 C 0.44356 0.10723 0.77707 0.0
C1858 C 0.44634 0.11855 0.76391 0.0
C1859 C 0.39558 0.13326 0.68838 0.0
C1860 C 0.38727 0.14385 0.69756 0.0
C1861 C 0.41277 0.13089 0.69456 0.0
C1862 C 0.42201 0.1391 0.71 0.0
C1863 C 0.41339 0.14917 0.7193 0.0
C1864 C 0.39627 0.1516 0.71314 0.0
C1865 C 0.44084 0.13748 0.71646 0.0
C1866 C 0.43901 0.12691 0.72998 0.0
C1867 C 0.46042 0.14612 0.70933 0.0
C1868 C 0.46372 0.15835 0.69546 0.0
C1869 C 0.46115 0.17672 0.69581 0.0
C1870 C 0.46407 0.18803 0.68263 0.0
C1871 C 0.46974 0.18124 0.66907 0.0
C1872 C 0.47256 0.16316 0.66868 0.0
C1873 C 0.46962 0.15177 0.68182 0.0
H1874 H 0.472 0.19002 0.65888 0.0
H1875 H 0.44507 0.08094 0.78706 0.0
H1876 H 0.91562 0.40719 0.74423 0.0
H1877 H 0.90959 0.37227 0.73246 0.0
H1878 H 0.84968 0.36004 0.70771 0.0
H1879 H 0.85555 0.39497 0.71958 0.0
H1880 H 0.84592 0.32435 0.72243 0.0
H1881 H 0.89245 0.37508 0.68839 0.0
H1882 H 0.92509 0.40796 0.68216 0.0
H1883 H 0.96539 0.38437 0.70147 0.0
H1884 H 0.93299 0.35147 0.70803 0.0
H1885 H 0.82509 0.23663 0.66843 0.0
H1886 H 0.83272 0.27184 0.68066 0.0
H1887 H 0.89497 0.28407 0.70096 0.0
H1888 H 0.88758 0.24891 0.68834 0.0
H1889 H 0.89832 0.31969 0.68948 0.0
H1890 H 0.8528 0.26886 0.72308 0.0
H1891 H 0.82074 0.23595 0.72996 0.0
H1892 H 0.77936 0.25937 0.71262 0.0
H1893 H 0.81113 0.29234 0.70546 0.0
C1894 C 0.90112 0.39702 0.73632 0.0
C1895 C 0.88602 0.40378 0.73283 0.0
C1896 C 0.89777 0.37715 0.72954 0.0
C1897 C 0.87924 0.36363 0.71916 0.0
C1898 C 0.86408 0.37026 0.71569 0.0
C1899 C 0.86752 0.39025 0.72238 0.0
C1900 C 0.87567 0.34251 0.71201 0.0
C1901 C 0.8572 0.32331 0.71506 0.0
C1902 C 0.89081 0.34118 0.70283 0.0
C1903 C 0.9103 0.36092 0.69885 0.0
C1904 C 0.90828 0.37699 0.69143 0.0
C1905 C 0.92674 0.39561 0.68782 0.0
C1906 C 0.94731 0.39828 0.69145 0.0
C1907 C 0.94945 0.3823 0.69868 0.0
C1908 C 0.93104 0.36365 0.70234 0.0
C1909 C 0.84044 0.24685 0.67545 0.0
C1910 C 0.85569 0.24 0.67756 0.0
C1911 C 0.84473 0.26691 0.68252 0.0
C1912 C 0.86425 0.28043 0.69196 0.0
C1913 C 0.87974 0.27383 0.69381 0.0
C1914 C 0.87548 0.25374 0.68666 0.0
C1915 C 0.86843 0.30149 0.69976 0.0
C1916 C 0.88703 0.32068 0.69688 0.0
C1917 C 0.85351 0.30279 0.70923 0.0
C1918 C 0.83436 0.28302 0.71361 0.0
C1919 C 0.83685 0.26694 0.72063 0.0
C1920 C 0.81873 0.24827 0.72459 0.0
C1921 C 0.79803 0.24554 0.72169 0.0
C1922 C 0.79541 0.2615 0.71485 0.0
C1923 C 0.81347 0.2802 0.71086 0.0
H1924 H 0.78404 0.2311 0.72479 0.0
H1925 H 0.96157 0.41271 0.68864 0.0
H1926 H 0.15728 0.96097 0.5972 0.0
H1927 H 0.18757 0.99415 0.61095 0.0
H1928 H 0.18136 0.96125 0.65239 0.0
H1929 H 0.15146 0.92762 0.63845 0.0
H1930 H 0.1913 0.0198 0.63527 0.0
H1931 H 0.23165 0.98149 0.67222 0.0
H1932 H 0.23543 0.94884 0.67076 0.0
H1933 H 0.22609 0.9432 0.62072 0.0
H1934 H 0.22256 0.97598 0.62187 0.0
H1935 H 0.26571 0.10027 0.69196 0.0
H1936 H 0.23753 0.06444 0.6801 0.0
H1937 H 0.28395 0.05946 0.65298 0.0
H1938 H 0.31265 0.09499 0.66559 0.0
H1939 H 0.25535 0.02032 0.66158 0.0
H1940 H 0.25157 0.07774 0.63781 0.0
H1941 H 0.25095 0.11212 0.63938 0.0
H1942 H 0.19026 0.08106 0.65925 0.0
H1943 H 0.19081 0.04664 0.65819 0.0
C1944 C 0.16245 0.96071 0.60921 0.0
C1945 C 0.15209 0.94154 0.61666 0.0
C1946 C 0.17967 0.97977 0.6171 0.0
C1947 C 0.18697 0.98017 0.63265 0.0
C1948 C 0.17626 0.96125 0.64031 0.0
C1949 C 0.15902 0.9421 0.63238 0.0
C1950 C 0.20582 1.0004 0.64072 0.0
C1951 C 0.20527 0.01986 0.64101 0.0
C1952 C 0.2243 1.00066 0.64799 0.0
C1953 C 0.2266 0.98105 0.64716 0.0
C1954 C 0.23047 0.97332 0.66091 0.0
C1955 C 0.23256 0.95478 0.66013 0.0
C1956 C 0.23092 0.94391 0.64566 0.0
C1957 C 0.22727 0.95159 0.63192 0.0
C1958 C 0.2252 0.97013 0.63263 0.0
C1959 C 0.27001 0.09143 0.68363 0.0
C1960 C 0.29123 0.10063 0.67937 0.0
C1961 C 0.25387 0.07097 0.67683 0.0
C1962 C 0.25848 0.05952 0.66532 0.0
C1963 C 0.27997 0.06811 0.66171 0.0
C1964 C 0.29629 0.08848 0.66877 0.0
C1965 C 0.24055 0.03949 0.65635 0.0
C1966 C 0.24133 0.02017 0.65584 0.0
C1967 C 0.22249 0.03943 0.64852 0.0
C1968 C 0.22131 0.05964 0.64803 0.0
C1969 C 0.23808 0.07823 0.6425 0.0
C1970 C 0.23778 0.09775 0.64336 0.0
C1971 C 0.22061 0.09877 0.64946 0.0
C1972 C 0.20357 0.08023 0.65455 0.0
C1973 C 0.20387 0.06071 0.65383 0.0
H1974 H 0.22052 0.11394 0.65033 0.0
H1975 H 0.23253 0.92956 0.64508 0.0
H1976 H 0.06009 0.19582 0.62143 0.0
H1977 H 0.02874 0.19194 0.63397 0.0
H1978 H 0.03784 0.25124 0.61666 0.0
H1979 H 0.06987 0.2559 0.60491 0.0
H1980 H 0.02594 0.24971 0.64448 0.0
H1981 H 1.00019 0.19999 0.59801 0.0
H1982 H 0.99698 0.17017 0.57992 0.0
H1983 H 0.97189 0.12609 0.61506 0.0
H1984 H 0.97522 0.15575 0.63343 0.0
H1985 H 0.89882 0.19108 0.63671 0.0
H1986 H 0.93284 0.1979 0.62708 0.0
H1987 H 0.9647 0.21859 0.67406 0.0
H1988 H 0.93087 0.21254 0.68371 0.0
H1989 H 0.9563 0.18046 0.63138 0.0
H1990 H 0.0181 0.2551 0.67396 0.0
H1991 H 0.02027 0.28683 0.68896 0.0
H1992 H 0.97122 0.28446 0.65623 0.0
H1993 H 0.96896 0.25291 0.64092 0.0
C1994 C 0.05569 0.20827 0.62055 0.0
C1995 C 0.06736 0.22602 0.61196 0.0
C1996 C 0.0376 0.2059 0.62758 0.0
C1997 C 0.03062 0.22105 0.62599 0.0
C1998 C 0.04278 0.23924 0.61798 0.0
C1999 C 0.06096 0.24174 0.61109 0.0
C2000 C 0.01023 0.21761 0.6321 0.0
C2001 C 0.01073 0.23453 0.64167 0.0
C2002 C 0.99025 0.19801 0.62816 0.0
C2003 C 0.98817 0.18013 0.61714 0.0
C2004 C 0.99413 0.18397 0.60191 0.0
C2005 C 0.99227 0.1671 0.5916 0.0
C2006 C 0.98429 0.14626 0.59635 0.0
C2007 C 0.9781 0.14225 0.61141 0.0
C2008 C 0.97996 0.15908 0.62177 0.0
C2009 C 0.9131 0.19723 0.645 0.0
C2010 C 0.91216 0.20138 0.66098 0.0
C2011 C 0.93255 0.20105 0.63947 0.0
C2012 C 0.95145 0.20894 0.6498 0.0
C2013 C 0.9505 0.21294 0.66579 0.0
C2014 C 0.9311 0.2094 0.67131 0.0
C2015 C 0.97196 0.21254 0.64381 0.0
C2016 C 0.97151 0.19561 0.63428 0.0
C2017 C 0.99182 0.2324 0.64737 0.0
C2018 C 0.9932 0.2515 0.6564 0.0
C2019 C 0.00783 0.2614 0.66994 0.0
C2020 C 0.00907 0.27935 0.6785 0.0
C2021 C 0.99584 0.28761 0.67358 0.0
C2022 C 0.98139 0.27799 0.66006 0.0
C2023 C 0.98011 0.26006 0.65145 0.0
H2024 H 0.99681 0.30149 0.68023 0.0
H2025 H 0.98286 0.13322 0.58836 0.0
H2026 H 0.82055 0.87099 0.64026 0.0
H2027 H 0.82709 0.84339 0.65102 0.0
H2028 H 0.76466 0.7928 0.62925 0.0
H2029 H 0.75801 0.82029 0.61853 0.0
H2030 H 0.77263 0.7867 0.65969 0.0
H2031 H 0.80854 0.80213 0.61315 0.0
H2032 H 0.83369 0.82444 0.59477 0.0
H2033 H 0.88773 0.84466 0.62932 0.0
H2034 H 0.86286 0.82283 0.64805 0.0
H2035 H 0.79059 0.69784 0.67016 0.0
H2036 H 0.78216 0.72389 0.65875 0.0
H2037 H 0.84608 0.77643 0.6762 0.0
H2038 H 0.85469 0.7505 0.68723 0.0
H2039 H 0.83634 0.78057 0.64707 0.0
H2040 H 0.80057 0.76682 0.69405 0.0
H2041 H 0.77568 0.74406 0.71242 0.0
H2042 H 0.72184 0.72049 0.67714 0.0
H2043 H 0.74647 0.74291 0.65848 0.0
C2044 C 0.80816 0.85399 0.63791 0.0
C2045 C 0.78881 0.84777 0.62852 0.0
C2046 C 0.81197 0.83825 0.64395 0.0
C2047 C 0.79645 0.81605 0.64078 0.0
C2048 C 0.77688 0.80984 0.63177 0.0
C2049 C 0.77315 0.82554 0.6256 0.0
C2050 C 0.80062 0.79926 0.64683 0.0
C2051 C 0.78641 0.78517 0.65679 0.0
C2052 C 0.81881 0.79754 0.64323 0.0
C2053 C 0.83377 0.81107 0.63209 0.0
C2054 C 0.82575 0.81157 0.61692 0.0
C2055 C 0.83997 0.82409 0.60641 0.0
C2056 C 0.86228 0.83603 0.61089 0.0
C2057 C 0.87043 0.83547 0.62589 0.0
C2058 C 0.85627 0.82304 0.63646 0.0
C2059 C 0.80281 0.71495 0.6715 0.0
C2060 C 0.82327 0.72218 0.67956 0.0
C2061 C 0.79795 0.72982 0.66508 0.0
C2062 C 0.81343 0.75216 0.66676 0.0
C2063 C 0.83389 0.75931 0.67476 0.0
C2064 C 0.83875 0.74448 0.68113 0.0
C2065 C 0.80853 0.76819 0.66011 0.0
C2066 C 0.82256 0.7821 0.64999 0.0
C2067 C 0.79024 0.7698 0.66361 0.0
C2068 C 0.7754 0.75637 0.67482 0.0
C2069 C 0.78345 0.75666 0.69017 0.0
C2070 C 0.76938 0.74384 0.70064 0.0
C2071 C 0.7472 0.73079 0.69594 0.0
C2072 C 0.73903 0.73058 0.68076 0.0
C2073 C 0.75303 0.74335 0.67023 0.0
H2074 H 0.73634 0.72088 0.70406 0.0
H2075 H 0.87327 0.84566 0.60273 0.0
H2076 H 0.05753 0.85163 0.63505 0.0
H2077 H 0.02566 0.82554 0.64704 0.0
H2078 H 0.98697 0.80733 0.60256 0.0
H2079 H 0.01871 0.83349 0.59058 0.0
H2080 H 0.96551 0.81226 0.62576 0.0
H2081 H 0.00559 0.77536 0.61653 0.0
H2082 H 0.03772 0.77091 0.61856 0.0
H2083 H 0.03921 0.7751 0.66851 0.0
H2084 H 0.00724 0.77987 0.66677 0.0
H2085 H 0.87439 0.71323 0.63909 0.0
H2086 H 0.90725 0.74083 0.62927 0.0
H2087 H 0.94262 0.75335 0.67458 0.0
H2088 H 0.90985 0.72527 0.68442 0.0
H2089 H 0.96637 0.75279 0.65244 0.0
H2090 H 0.92462 0.78738 0.66164 0.0
H2091 H 0.89198 0.79098 0.65941 0.0
H2092 H 0.89337 0.79119 0.60975 0.0
H2093 H 0.92584 0.78724 0.61168 0.0
C2094 C 0.04222 0.84211 0.62785 0.0
C2095 C 0.04057 0.84454 0.61186 0.0
C2096 C 0.02403 0.82715 0.6347 0.0
C2097 C 0.00394 0.81434 0.62568 0.0
C2098 C 0.00227 0.81704 0.60977 0.0
C2099 C 0.02042 0.83192 0.60292 0.0
C2100 C 0.98467 0.7979 0.63268 0.0
C2101 C 0.96562 0.79914 0.63148 0.0
C2102 C 0.98496 0.78108 0.64047 0.0
C2103 C 0.00418 0.77822 0.64153 0.0
C2104 C 0.01289 0.77552 0.62795 0.0
C2105 C 0.03104 0.7729 0.62905 0.0
C2106 C 0.04054 0.77279 0.64366 0.0
C2107 C 0.03186 0.77523 0.6572 0.0
C2108 C 0.01372 0.77788 0.65617 0.0
C2109 C 0.88915 0.72175 0.64698 0.0
C2110 C 0.88944 0.71706 0.66258 0.0
C2111 C 0.90793 0.73766 0.64136 0.0
C2112 C 0.92734 0.7495 0.65126 0.0
C2113 C 0.92782 0.74451 0.66674 0.0
C2114 C 0.90906 0.72844 0.67235 0.0
C2115 C 0.94712 0.76703 0.64544 0.0
C2116 C 0.96627 0.766 0.64685 0.0
C2117 C 0.94691 0.78408 0.63788 0.0
C2118 C 0.92757 0.78683 0.63677 0.0
C2119 C 0.9179 0.78806 0.65023 0.0
C2120 C 0.89943 0.79018 0.64903 0.0
C2121 C 0.89059 0.79128 0.63445 0.0
C2122 C 0.90023 0.79033 0.62104 0.0
C2123 C 0.91867 0.78816 0.62218 0.0
H2124 H 0.87628 0.79289 0.63354 0.0
H2125 H 0.05459 0.77075 0.64448 0.0
H2126 H 0.14822 0.20095 0.62862 0.0
H2127 H 0.1729 0.18885 0.63879 0.0
H2128 H 0.21476 0.21904 0.60301 0.0
H2129 H 0.19033 0.23134 0.59294 0.0
H2130 H 0.20737 0.17704 0.60702 0.0
H2131 H 0.22886 0.2447 0.63776 0.0
H2132 H 0.223 0.26986 0.65488 0.0
H2133 H 0.20215 0.22439 0.68939 0.0
H2134 H 0.20761 0.19882 0.67235 0.0
H2135 H 0.30247 0.17775 0.63682 0.0
H2136 H 0.27526 0.18588 0.62583 0.0
H2137 H 0.24432 0.17152 0.66851 0.0
H2138 H 0.27277 0.16538 0.67993 0.0
H2139 H 0.24466 0.20433 0.66065 0.0
H2140 H 0.2228 0.13614 0.63006 0.0
H2141 H 0.22827 0.11065 0.61288 0.0
H2142 H 0.24902 0.15588 0.57825 0.0
H2143 H 0.24369 0.1816 0.59525 0.0
C2144 C 0.16263 0.20491 0.62291 0.0
C2145 C 0.16746 0.21713 0.61002 0.0
C2146 C 0.17671 0.19803 0.62872 0.0
C2147 C 0.19567 0.20311 0.62166 0.0
C2148 C 0.2002 0.2149 0.60859 0.0
C2149 C 0.1863 0.22198 0.60291 0.0
C2150 C 0.21121 0.19681 0.62813 0.0
C2151 C 0.21564 0.18303 0.61872 0.0
C2152 C 0.22168 0.20438 0.64346 0.0
C2153 C 0.2184 0.21974 0.65371 0.0
C2154 C 0.22283 0.23998 0.64893 0.0
C2155 C 0.21962 0.25433 0.65863 0.0
C2156 C 0.21214 0.2487 0.67319 0.0
C2157 C 0.2079 0.22872 0.67809 0.0
C2158 C 0.21106 0.21429 0.66843 0.0
C2159 C 0.28981 0.17637 0.6438 0.0
C2160 C 0.2897 0.17112 0.65922 0.0
C2161 C 0.27407 0.18073 0.63746 0.0
C2162 C 0.25729 0.17888 0.64616 0.0
C2163 C 0.25704 0.17315 0.66151 0.0
C2164 C 0.27326 0.16962 0.66805 0.0
C2165 C 0.24074 0.18408 0.63968 0.0
C2166 C 0.23621 0.19789 0.64904 0.0
C2167 C 0.23006 0.17636 0.62432 0.0
C2168 C 0.23304 0.16083 0.614 0.0
C2169 C 0.22865 0.14065 0.61883 0.0
C2170 C 0.23169 0.12618 0.60912 0.0
C2171 C 0.23907 0.13169 0.59452 0.0
C2172 C 0.24331 0.15164 0.58957 0.0
C2173 C 0.24022 0.16614 0.59921 0.0
H2174 H 0.24144 0.12048 0.58702 0.0
H2175 H 0.20968 0.25984 0.68069 0.0
H2176 H 0.75691 0.95134 0.62491 0.0
H2177 H 0.76935 0.98905 0.63465 0.0
H2178 H 0.82748 0.99441 0.65751 0.0
H2179 H 0.81487 0.95647 0.64798 0.0
H2180 H 0.81115 0.01326 0.67606 0.0
H2181 H 0.8285 0.01616 0.62323 0.0
H2182 H 0.82149 0.00614 0.59478 0.0
H2183 H 0.77441 0.02688 0.59213 0.0
H2184 H 0.7809 0.03674 0.62062 0.0
H2185 H 0.87063 0.12899 0.68825 0.0
H2186 H 0.85852 0.09102 0.67944 0.0
H2187 H 0.79855 0.08314 0.65801 0.0
H2188 H 0.81058 0.12115 0.66684 0.0
H2189 H 0.81655 0.06582 0.63879 0.0
H2190 H 0.79917 0.06261 0.69179 0.0
H2191 H 0.80665 0.07297 0.7202 0.0
H2192 H 0.85448 0.05318 0.72242 0.0
H2193 H 0.8475 0.04298 0.69396 0.0
C2194 C 0.7723 0.96055 0.63208 0.0
C2195 C 0.78495 0.95104 0.63565 0.0
C2196 C 0.77944 0.98212 0.63757 0.0
C2197 C 0.79951 0.99468 0.6466 0.0
C2198 C 0.81197 0.98504 0.65051 0.0
C2199 C 0.80478 0.96339 0.64504 0.0
C2200 C 0.80746 0.01789 0.65187 0.0
C2201 C 0.81264 0.02482 0.66789 0.0
C2202 C 0.80898 0.03289 0.64123 0.0
C2203 C 0.80504 0.02699 0.62409 0.0
C2204 C 0.81652 0.01842 0.6166 0.0
C2205 C 0.81266 0.0128 0.60046 0.0
C2206 C 0.79747 0.01582 0.59166 0.0
C2207 C 0.78615 0.02452 0.59897 0.0
C2208 C 0.78992 0.03015 0.61511 0.0
C2209 C 0.85485 0.11914 0.68168 0.0
C2210 C 0.84153 0.12797 0.67822 0.0
C2211 C 0.84793 0.09745 0.6767 0.0
C2212 C 0.82755 0.0842 0.66819 0.0
C2213 C 0.81432 0.09308 0.66457 0.0
C2214 C 0.8212 0.11476 0.66962 0.0
C2215 C 0.82012 0.06112 0.66297 0.0
C2216 C 0.81508 0.05424 0.64694 0.0
C2217 C 0.8188 0.0462 0.6736 0.0
C2218 C 0.82297 0.05224 0.69072 0.0
C2219 C 0.81141 0.06064 0.69831 0.0
C2220 C 0.81554 0.06645 0.71443 0.0
C2221 C 0.83108 0.06379 0.72311 0.0
C2222 C 0.84248 0.05526 0.71568 0.0
C2223 C 0.83843 0.04944 0.69956 0.0
H2224 H 0.83424 0.0683 0.73558 0.0
H2225 H 0.79452 0.01146 0.57916 0.0
H2226 H 0.52883 0.38649 0.71688 0.0
H2227 H 0.50349 0.3489 0.70598 0.0
H2228 H 0.45101 0.3525 0.72547 0.0
H2229 H 0.47635 0.38989 0.73661 0.0
H2230 H 0.44904 0.31539 0.73079 0.0
H2231 H 0.45726 0.35503 0.68618 0.0
H2232 H 0.47727 0.38029 0.66706 0.0
H2233 H 0.50369 0.34017 0.65296 0.0
H2234 H 0.48404 0.3148 0.67215 0.0
H2235 H 0.36073 0.22086 0.68824 0.0
H2236 H 0.38664 0.25847 0.69878 0.0
H2237 H 0.43867 0.25262 0.68063 0.0
H2238 H 0.41282 0.21507 0.67002 0.0
H2239 H 0.44116 0.2906 0.67462 0.0
H2240 H 0.43258 0.25089 0.71939 0.0
H2241 H 0.41235 0.22578 0.73852 0.0
H2242 H 0.38582 0.26601 0.75204 0.0
H2243 H 0.40584 0.29133 0.73292 0.0
C2244 C 0.51188 0.37929 0.71876 0.0
C2245 C 0.5045 0.3911 0.72754 0.0
C2246 C 0.49738 0.35782 0.71249 0.0
C2247 C 0.47527 0.34789 0.71478 0.0
C2248 C 0.46796 0.35976 0.72355 0.0
C2249 C 0.48243 0.38114 0.72985 0.0
C2250 C 0.45973 0.32505 0.70828 0.0
C2251 C 0.44713 0.31006 0.71847 0.0
C2252 C 0.45754 0.31792 0.69227 0.0
C2253 C 0.46936 0.33314 0.68072 0.0
C2254 C 0.46748 0.35169 0.67909 0.0
C2255 C 0.47873 0.36601 0.66822 0.0
C2256 C 0.49179 0.36187 0.65883 0.0
C2257 C 0.49359 0.34337 0.66026 0.0
C2258 C 0.48239 0.329 0.67112 0.0
C2259 C 0.3777 0.22761 0.68654 0.0
C2260 C 0.38481 0.21506 0.67837 0.0
C2261 C 0.3925 0.24906 0.69259 0.0
C2262 C 0.41464 0.2583 0.69062 0.0
C2263 C 0.42168 0.24583 0.6823 0.0
C2264 C 0.40691 0.22439 0.67627 0.0
C2265 C 0.43046 0.28101 0.69713 0.0
C2266 C 0.44311 0.29596 0.68694 0.0
C2267 C 0.43265 0.28813 0.71314 0.0
C2268 C 0.42057 0.27291 0.72463 0.0
C2269 C 0.42231 0.2543 0.72636 0.0
C2270 C 0.4109 0.24004 0.73722 0.0
C2271 C 0.39774 0.24425 0.74645 0.0
C2272 C 0.396 0.26276 0.74487 0.0
C2273 C 0.40742 0.27709 0.73405 0.0
H2274 H 0.38895 0.23325 0.75489 0.0
H2275 H 0.50048 0.37298 0.65042 0.0
H2276 H 0.63231 0.15276 0.73653 0.0
H2277 H 0.66593 0.16293 0.7247 0.0
H2278 H 0.67086 0.11198 0.74597 0.0
H2279 H 0.6375 0.10211 0.75811 0.0
H2280 H 0.70924 0.14726 0.74855 0.0
H2281 H 0.65249 0.10616 0.70697 0.0
H2282 H 0.61995 0.09695 0.68935 0.0
H2283 H 0.65365 0.15943 0.67187 0.0
H2284 H 0.68632 0.16911 0.68954 0.0
H2285 H 0.7685 0.13958 0.67793 0.0
H2286 H 0.73477 0.13135 0.68898 0.0
H2287 H 0.76961 0.19017 0.72052 0.0
H2288 H 0.80333 0.19817 0.70983 0.0
H2289 H 0.71123 0.15043 0.69133 0.0
H2290 H 0.75196 0.18423 0.75366 0.0
H2291 H 0.78419 0.18961 0.76999 0.0
H2292 H 0.78026 0.13384 0.74467 0.0
H2293 H 0.74811 0.12821 0.72814 0.0
C2294 C 0.64055 0.14373 0.73868 0.0
C2295 C 0.63224 0.12653 0.74816 0.0
C2296 C 0.65975 0.14952 0.73187 0.0
C2297 C 0.67082 0.13806 0.73429 0.0
C2298 C 0.66263 0.12108 0.74394 0.0
C2299 C 0.64354 0.11538 0.7508 0.0
C2300 C 0.69081 0.14358 0.7267 0.0
C2301 C 0.70963 0.14799 0.73605 0.0
C2302 C 0.69136 0.14424 0.71034 0.0
C2303 C 0.67176 0.13844 0.69969 0.0
C2304 C 0.6529 0.118 0.69945 0.0
C2305 C 0.63445 0.11268 0.68944 0.0
C2306 C 0.63471 0.12762 0.67953 0.0
C2307 C 0.65346 0.14788 0.67957 0.0
C2308 C 0.67195 0.15329 0.68957 0.0
C2309 C 0.76893 0.15077 0.68719 0.0
C2310 C 0.78861 0.16931 0.6932 0.0
C2311 C 0.74964 0.14609 0.69346 0.0
C2312 C 0.7497 0.15995 0.70576 0.0
C2313 C 0.76922 0.17896 0.7113 0.0
C2314 C 0.78851 0.1835 0.70518 0.0
C2315 C 0.72955 0.15418 0.71319 0.0
C2316 C 0.71079 0.14979 0.70384 0.0
C2317 C 0.72884 0.15294 0.72947 0.0
C2318 C 0.74766 0.1558 0.73971 0.0
C2319 C 0.75791 0.17304 0.75167 0.0
C2320 C 0.77621 0.17619 0.7609 0.0
C2321 C 0.78421 0.16202 0.7584 0.0
C2322 C 0.77402 0.14476 0.74661 0.0
C2323 C 0.75581 0.14162 0.73728 0.0
H2324 H 0.79829 0.16439 0.76559 0.0
H2325 H 0.62041 0.12347 0.67179 0.0
H2326 H 0.8636 0.48506 0.71313 0.0
H2327 H 0.85205 0.50903 0.70214 0.0
H2328 H 0.91045 0.56512 0.72452 0.0
H2329 H 0.92177 0.54116 0.73584 0.0
H2330 H 0.87693 0.56945 0.72917 0.0
H2331 H 0.90271 0.55011 0.68442 0.0
H2332 H 0.90528 0.52534 0.6646 0.0
H2333 H 0.83767 0.49735 0.64896 0.0
H2334 H 0.83463 0.52178 0.66884 0.0
H2335 H 0.86869 0.64986 0.68901 0.0
H2336 H 0.88057 0.62544 0.69872 0.0
H2337 H 0.81937 0.56991 0.67973 0.0
H2338 H 0.80734 0.59429 0.67012 0.0
H2339 H 0.85412 0.56524 0.67302 0.0
H2340 H 0.82809 0.58293 0.71865 0.0
H2341 H 0.82506 0.60658 0.73911 0.0
H2342 H 0.89357 0.63795 0.75273 0.0
H2343 H 0.89694 0.61425 0.73239 0.0
C2344 C 0.87405 0.5025 0.7156 0.0
C2345 C 0.89362 0.5113 0.72531 0.0
C2346 C 0.86748 0.5162 0.70925 0.0
C2347 C 0.88048 0.53892 0.71236 0.0
C2348 C 0.90014 0.54767 0.72195 0.0
C2349 C 0.90662 0.53399 0.72836 0.0
C2350 C 0.87324 0.5536 0.70622 0.0
C2351 C 0.87229 0.56873 0.71685 0.0
C2352 C 0.86661 0.55233 0.6902 0.0
C2353 C 0.86839 0.53763 0.67823 0.0
C2354 C 0.88835 0.53856 0.67684 0.0
C2355 C 0.8899 0.5246 0.66558 0.0
C2356 C 0.87164 0.50974 0.65556 0.0
C2357 C 0.8518 0.50885 0.65675 0.0
C2358 C 0.85015 0.52276 0.668 0.0
C2359 C 0.85772 0.63245 0.68701 0.0
C2360 C 0.83704 0.62395 0.67892 0.0
C2361 C 0.86452 0.61853 0.69256 0.0
C2362 C 0.85078 0.59586 0.69006 0.0
C2363 C 0.83022 0.58734 0.68179 0.0
C2364 C 0.82336 0.60128 0.67633 0.0
C2365 C 0.85795 0.58106 0.69598 0.0
C2366 C 0.85886 0.56594 0.68532 0.0
C2367 C 0.86463 0.58235 0.71196 0.0
C2368 C 0.86279 0.59698 0.72392 0.0
C2369 C 0.84253 0.59501 0.72592 0.0
C2370 C 0.84075 0.60838 0.73753 0.0
C2371 C 0.85915 0.62387 0.74718 0.0
C2372 C 0.87935 0.62597 0.74524 0.0
C2373 C 0.88119 0.61251 0.73372 0.0
H2374 H 0.85776 0.63417 0.75621 0.0
H2375 H 0.87287 0.49895 0.64684 0.0
H2376 H 0.48026 0.92288 0.23837 0.0
H2377 H 0.49028 0.93814 0.21364 0.0
H2378 H 0.42274 0.91251 0.19782 0.0
H2379 H 0.41249 0.89597 0.22219 0.0
H2380 H 0.44142 0.9051 0.17555 0.0
H2381 H 0.45845 0.96797 0.20927 0.0
H2382 H 0.47473 0.99453 0.23263 0.0
H2383 H 0.53846 0.01089 0.22134 0.0
H2384 H 0.52256 0.98419 0.19801 0.0
H2385 H 0.46465 0.97033 0.1112 0.0
H2386 H 0.45258 0.95501 0.13576 0.0
H2387 H 0.51663 0.96632 0.14972 0.0
H2388 H 0.52852 0.98066 0.12482 0.0
H2389 H 0.49854 0.98168 0.17263 0.0
H2390 H 0.47941 0.91696 0.13867 0.0
H2391 H 0.46144 0.8899 0.11567 0.0
H2392 H 0.39926 0.87817 0.12749 0.0
H2393 H 0.41687 0.90539 0.15044 0.0
C2394 C 0.46749 0.92028 0.22959 0.0
C2395 C 0.44554 0.90809 0.23229 0.0
C2396 C 0.47328 0.92932 0.21552 0.0
C2397 C 0.4573 0.92677 0.20392 0.0
C2398 C 0.43538 0.91478 0.20661 0.0
C2399 C 0.42955 0.90551 0.22063 0.0
C2400 C 0.46344 0.93591 0.18878 0.0
C2401 C 0.45364 0.92196 0.17493 0.0
C2402 C 0.47963 0.95783 0.18793 0.0
C2403 C 0.48929 0.97392 0.20196 0.0
C2404 C 0.47593 0.9771 0.21183 0.0
C2405 C 0.48509 0.99221 0.22506 0.0
C2406 C 0.50761 0.00435 0.22849 0.0
C2407 C 0.52102 0.00145 0.21868 0.0
C2408 C 0.51194 0.98634 0.20544 0.0
C2409 C 0.476 0.96905 0.11932 0.0
C2410 C 0.49742 0.97639 0.11594 0.0
C2411 C 0.46915 0.96051 0.13341 0.0
C2412 C 0.4837 0.95946 0.14449 0.0
C2413 C 0.50518 0.96703 0.14129 0.0
C2414 C 0.51195 0.97528 0.1271 0.0
C2415 C 0.47662 0.95081 0.15955 0.0
C2416 C 0.48624 0.96487 0.17333 0.0
C2417 C 0.45999 0.92912 0.16033 0.0
C2418 C 0.44948 0.91335 0.14621 0.0
C2419 C 0.46193 0.90882 0.13626 0.0
C2420 C 0.4518 0.89338 0.12327 0.0
C2421 C 0.42922 0.88226 0.12017 0.0
C2422 C 0.41674 0.88674 0.12994 0.0
C2423 C 0.42678 0.90217 0.14294 0.0
H2424 H 0.42138 0.87012 0.11023 0.0
H2425 H 0.51468 0.01605 0.23874 0.0
H2426 H 0.11035 0.51782 0.2437 0.0
H2427 H 0.09816 0.51117 0.21585 0.0
H2428 H 0.05943 0.5412 0.22359 0.0
H2429 H 0.07054 0.54677 0.25155 0.0
H2430 H 0.03775 0.50685 0.20346 0.0
H2431 H 0.11005 0.56855 0.20948 0.0
H2432 H 0.14935 0.58867 0.21777 0.0
H2433 H 0.15742 0.54249 0.18894 0.0
H2434 H 0.1181 0.52192 0.18064 0.0
H2435 H 0.029 0.54024 0.12899 0.0
H2436 H 0.03967 0.5401 0.15633 0.0
H2437 H 0.06339 0.497 0.1432 0.0
H2438 H 0.05184 0.49615 0.11573 0.0
H2439 H 0.0924 0.53472 0.16533 0.0
H2440 H 0.01912 0.47496 0.15788 0.0
H2441 H 0.97997 0.45696 0.14939 0.0
H2442 H 0.97407 0.50226 0.18089 0.0
H2443 H 0.01327 0.52075 0.18941 0.0
C2444 C 0.09894 0.52268 0.23953 0.0
C2445 C 0.09152 0.53295 0.24988 0.0
C2446 C 0.0922 0.5191 0.22356 0.0
C2447 C 0.07817 0.52603 0.21758 0.0
C2448 C 0.07034 0.53581 0.22792 0.0
C2449 C 0.0769 0.53919 0.24389 0.0
C2450 C 0.07187 0.52344 0.20054 0.0
C2451 C 0.04973 0.51312 0.19516 0.0
C2452 C 0.08746 0.53121 0.18963 0.0
C2453 C 0.11111 0.54356 0.19458 0.0
C2454 C 0.12019 0.56259 0.20501 0.0
C2455 C 0.14247 0.57409 0.20969 0.0
C2456 C 0.15587 0.56682 0.20392 0.0
C2457 C 0.14702 0.54807 0.19342 0.0
C2458 C 0.12474 0.53649 0.18872 0.0
C2459 C 0.03615 0.53042 0.13185 0.0
C2460 C 0.03932 0.51801 0.1201 0.0
C2461 C 0.04238 0.5305 0.1475 0.0
C2462 C 0.05213 0.51841 0.15174 0.0
C2463 C 0.05586 0.50643 0.14011 0.0
C2464 C 0.04935 0.50608 0.12442 0.0
C2465 C 0.05839 0.51843 0.16839 0.0
C2466 C 0.08048 0.52828 0.17366 0.0
C2467 C 0.04279 0.51051 0.17922 0.0
C2468 C 0.01918 0.49936 0.17418 0.0
C2469 C 0.00952 0.48121 0.1629 0.0
C2470 C 0.9873 0.47089 0.1581 0.0
C2471 C 0.97455 0.47849 0.16457 0.0
C2472 C 0.98397 0.4964 0.17588 0.0
C2473 C 0.00618 0.50679 0.18071 0.0
H2474 H 0.95735 0.47048 0.16084 0.0
H2475 H 0.17311 0.57575 0.20756 0.0
H2476 H 0.49475 0.55916 0.24474 0.0
H2477 H 0.50265 0.55383 0.21821 0.0
H2478 H 0.4414 0.54617 0.1999 0.0
H2479 H 0.43321 0.55101 0.22655 0.0
H2480 H 0.44977 0.51847 0.18381 0.0
H2481 H 0.48868 0.59482 0.20032 0.0
H2482 H 0.51315 0.62784 0.21801 0.0
H2483 H 0.56567 0.61558 0.21299 0.0
H2484 H 0.54142 0.58229 0.19546 0.0
H2485 H 0.4811 0.53574 0.10643 0.0
H2486 H 0.46892 0.53885 0.13182 0.0
H2487 H 0.52888 0.54854 0.15477 0.0
H2488 H 0.5417 0.5468 0.12953 0.0
H2489 H 0.51925 0.57611 0.16784 0.0
H2490 H 0.47893 0.49845 0.15168 0.0
H2491 H 0.45375 0.46576 0.1339 0.0
H2492 H 0.40328 0.48137 0.13783 0.0
H2493 H 0.42821 0.51425 0.15543 0.0
C2494 C 0.48293 0.5562 0.23505 0.0
C2495 C 0.46348 0.55572 0.23765 0.0
C2496 C 0.48746 0.5532 0.21991 0.0
C2497 C 0.47284 0.5501 0.20705 0.0
C2498 C 0.45296 0.54865 0.20964 0.0
C2499 C 0.4483 0.5514 0.22484 0.0
C2500 C 0.47874 0.54923 0.19093 0.0
C2501 C 0.46483 0.5312 0.18024 0.0
C2502 C 0.49846 0.56577 0.1863 0.0
C2503 C 0.51318 0.58597 0.19667 0.0
C2504 C 0.50541 0.5991 0.20306 0.0
C2505 C 0.51925 0.61786 0.21306 0.0
C2506 C 0.54094 0.62378 0.21665 0.0
C2507 C 0.54886 0.61097 0.21021 0.0
C2508 C 0.53508 0.59216 0.20023 0.0
C2509 C 0.49181 0.53879 0.11687 0.0
C2510 C 0.51236 0.5409 0.11589 0.0
C2511 C 0.48469 0.54028 0.1314 0.0
C2512 C 0.49783 0.54357 0.14524 0.0
C2513 C 0.51839 0.54587 0.14427 0.0
C2514 C 0.52561 0.54463 0.1298 0.0
C2515 C 0.49054 0.54508 0.16078 0.0
C2516 C 0.50417 0.56336 0.17137 0.0
C2517 C 0.47051 0.52883 0.16524 0.0
C2518 C 0.45549 0.50892 0.15475 0.0
C2519 C 0.4625 0.49497 0.14866 0.0
C2520 C 0.44826 0.47639 0.13862 0.0
C2521 C 0.42693 0.47151 0.13468 0.0
C2522 C 0.41979 0.48516 0.14083 0.0
C2523 C 0.43396 0.50376 0.15086 0.0
H2524 H 0.41594 0.45713 0.12691 0.0
H2525 H 0.55163 0.63831 0.22439 0.0
H2526 H 0.93467 0.48738 0.77854 0.0
H2527 H 0.94704 0.4952 0.80655 0.0
H2528 H 0.89277 0.43361 0.81496 0.0
H2529 H 0.88045 0.42562 0.78697 0.0
H2530 H 0.90267 0.47086 0.83743 0.0
H2531 H 0.93694 0.43442 0.81231 0.0
H2532 H 0.95871 0.43047 0.79264 0.0
H2533 H 0.0126 0.49347 0.8095 0.0
H2534 H 0.99099 0.49793 0.82913 0.0
H2535 H 0.9349 0.44667 0.90941 0.0
H2536 H 0.9214 0.44832 0.88309 0.0
H2537 H 0.98482 0.50121 0.87647 0.0
H2538 H 0.99842 0.49937 0.9027 0.0
H2539 H 0.97137 0.47216 0.85293 0.0
H2540 H 0.94049 0.50935 0.87863 0.0
H2541 H 0.91995 0.5168 0.8976 0.0
H2542 H 0.86213 0.45712 0.8801 0.0
H2543 H 0.88231 0.44935 0.86096 0.0
C2544 C 0.92526 0.47567 0.78641 0.0
C2545 C 0.90671 0.45584 0.78064 0.0
C2546 C 0.93233 0.48013 0.80236 0.0
C2547 C 0.92082 0.46494 0.81276 0.0
C2548 C 0.90181 0.44554 0.8071 0.0
C2549 C 0.89491 0.44093 0.79114 0.0
C2550 C 0.92941 0.4685 0.82935 0.0
C2551 C 0.9176 0.471 0.84089 0.0
C2552 C 0.94924 0.4694 0.83375 0.0
C2553 C 0.96228 0.46661 0.82206 0.0
C2554 C 0.95337 0.44751 0.81173 0.0
C2555 C 0.96569 0.44516 0.80061 0.0
C2556 C 0.98701 0.46173 0.79979 0.0
C2557 C 0.99607 0.48066 0.81013 0.0
C2558 C 0.9838 0.48311 0.82126 0.0
C2559 C 0.94585 0.45885 0.90241 0.0
C2560 C 0.96776 0.47273 0.90801 0.0
C2561 C 0.93811 0.45987 0.8874 0.0
C2562 C 0.95207 0.47497 0.87779 0.0
C2563 C 0.97377 0.48936 0.88362 0.0
C2564 C 0.98154 0.48824 0.89857 0.0
C2565 C 0.94459 0.4744 0.86123 0.0
C2566 C 0.95657 0.47233 0.84961 0.0
C2567 C 0.92514 0.47433 0.8568 0.0
C2568 C 0.91296 0.4787 0.86844 0.0
C2569 C 0.92343 0.49775 0.87888 0.0
C2570 C 0.91182 0.50208 0.88961 0.0
C2571 C 0.88976 0.48742 0.89007 0.0
C2572 C 0.87922 0.46846 0.87973 0.0
C2573 C 0.89071 0.46413 0.86889 0.0
H2574 H 0.88084 0.49076 0.89845 0.0
H2575 H 0.99652 0.45989 0.79117 0.0
H2576 H 0.57389 0.50335 0.78195 0.0
H2577 H 0.56696 0.50901 0.80876 0.0
H2578 H 0.55204 0.44379 0.81624 0.0
H2579 H 0.55843 0.43793 0.78932 0.0
H2580 H 0.52315 0.45104 0.82745 0.0
H2581 H 0.60087 0.49042 0.83178 0.0
H2582 H 0.63697 0.51726 0.82485 0.0
H2583 H 0.62372 0.56887 0.83568 0.0
H2584 H 0.5874 0.54229 0.84248 0.0
H2585 H 0.52513 0.46196 0.90976 0.0
H2586 H 0.53618 0.4586 0.88391 0.0
H2587 H 0.53978 0.51896 0.87414 0.0
H2588 H 0.52881 0.52247 0.90004 0.0
H2589 H 0.57493 0.51464 0.8645 0.0
H2590 H 0.49681 0.4744 0.85975 0.0
H2591 H 0.46102 0.44716 0.86689 0.0
H2592 H 0.47598 0.39652 0.85715 0.0
H2593 H 0.51202 0.42354 0.85017 0.0
C2594 C 0.56932 0.49032 0.78939 0.0
C2595 C 0.56669 0.47021 0.78358 0.0
C2596 C 0.56541 0.49357 0.80471 0.0
C2597 C 0.55923 0.47692 0.81462 0.0
C2598 C 0.55675 0.45687 0.80884 0.0
C2599 C 0.56039 0.45353 0.79346 0.0
C2600 C 0.55466 0.48009 0.83085 0.0
C2601 C 0.53466 0.46478 0.8356 0.0
C2602 C 0.56942 0.49828 0.84143 0.0
C2603 C 0.59133 0.51433 0.8375 0.0
C2604 C 0.60559 0.50747 0.83258 0.0
C2605 C 0.6261 0.52265 0.82869 0.0
C2606 C 0.63261 0.54475 0.82978 0.0
C2607 C 0.61865 0.55174 0.83482 0.0
C2608 C 0.59811 0.53663 0.83871 0.0
C2609 C 0.52856 0.47466 0.90218 0.0
C2610 C 0.52601 0.49243 0.90687 0.0
C2611 C 0.53476 0.47267 0.88741 0.0
C2612 C 0.53863 0.48846 0.8771 0.0
C2613 C 0.53684 0.5066 0.88194 0.0
C2614 C 0.53044 0.5085 0.89666 0.0
C2615 C 0.54359 0.48552 0.86102 0.0
C2616 C 0.56356 0.50088 0.85631 0.0
C2617 C 0.5289 0.46731 0.8505 0.0
C2618 C 0.50719 0.45102 0.8546 0.0
C2619 C 0.49254 0.45748 0.85926 0.0
C2620 C 0.47219 0.44208 0.86325 0.0
C2621 C 0.46625 0.42013 0.86252 0.0
C2622 C 0.48062 0.41353 0.85774 0.0
C2623 C 0.501 0.42888 0.85375 0.0
H2624 H 0.45049 0.40822 0.86561 0.0
H2625 H 0.64849 0.55647 0.82676 0.0
H2626 H 0.56184 0.08095 0.79192 0.0
H2627 H 0.55308 0.06602 0.8171 0.0
H2628 H 0.54026 0.11692 0.83235 0.0
H2629 H 0.54894 0.13188 0.8072 0.0
H2630 H 0.56409 0.10763 0.85561 0.0
H2631 H 0.49921 0.0708 0.81916 0.0
H2632 H 0.47805 0.0498 0.79437 0.0
H2633 H 0.48973 0.99793 0.80444 0.0
H2634 H 0.51124 0.0188 0.8292 0.0
H2635 H 0.50143 0.06491 0.91805 0.0
H2636 H 0.51444 0.08013 0.89364 0.0
H2637 H 0.51418 0.02149 0.87737 0.0
H2638 H 0.50035 0.00592 0.9016 0.0
H2639 H 0.49908 0.03425 0.85456 0.0
H2640 H 0.56063 0.06915 0.89257 0.0
H2641 H 0.58009 0.08931 0.91794 0.0
H2642 H 0.57621 0.14475 0.90522 0.0
H2643 H 0.55582 0.12458 0.88001 0.0
C2644 C 0.55747 0.08912 0.80075 0.0
C2645 C 0.55594 0.10748 0.79761 0.0
C2646 C 0.55241 0.08055 0.81507 0.0
C2647 C 0.54592 0.09032 0.82652 0.0
C2648 C 0.54526 0.10918 0.82366 0.0
C2649 C 0.55007 0.1176 0.80928 0.0
C2650 C 0.53845 0.08012 0.84107 0.0
C2651 C 0.54981 0.09166 0.85545 0.0
C2652 C 0.5201 0.05909 0.84076 0.0
C2653 C 0.50703 0.04646 0.82594 0.0
C2654 C 0.49742 0.055 0.81603 0.0
C2655 C 0.48534 0.04311 0.80199 0.0
C2656 C 0.4826 0.02257 0.79781 0.0
C2657 C 0.49189 0.01386 0.80768 0.0
C2658 C 0.50402 0.0257 0.82172 0.0
C2659 C 0.5042 0.05533 0.90926 0.0
C2660 C 0.50005 0.03433 0.91171 0.0
C2661 C 0.51168 0.06403 0.89534 0.0
C2662 C 0.51572 0.05214 0.88378 0.0
C2663 C 0.51125 0.031 0.88613 0.0
C2664 C 0.5034 0.02213 0.89995 0.0
C2665 C 0.52461 0.06177 0.86925 0.0
C2666 C 0.51351 0.05013 0.85483 0.0
C2667 C 0.54331 0.08266 0.86957 0.0
C2668 C 0.55647 0.09523 0.88443 0.0
C2669 C 0.56377 0.08559 0.89521 0.0
C2670 C 0.57489 0.09699 0.9096 0.0
C2671 C 0.57935 0.11829 0.91321 0.0
C2672 C 0.57269 0.12823 0.90242 0.0
C2673 C 0.56127 0.11678 0.88809 0.0
H2674 H 0.58804 0.12712 0.92434 0.0
H2675 H 0.47324 0.01338 0.78695 0.0
H2676 H 0.14295 0.26329 0.56856 0.0
H2677 H 0.14854 0.27718 0.54318 0.0
H2678 H 0.07932 0.24412 0.53086 0.0
H2679 H 0.07355 0.22894 0.55604 0.0
H2680 H 0.09819 0.23976 0.50692 0.0
H2681 H 0.10908 0.29989 0.54071 0.0
H2682 H 0.12337 0.32656 0.56404 0.0
H2683 H 0.18829 0.35093 0.55182 0.0
H2684 H 0.17442 0.32419 0.52852 0.0
H2685 H 0.12106 0.3019 0.44 0.0
H2686 H 0.10694 0.28725 0.46439 0.0
H2687 H 0.17143 0.30511 0.48364 0.0
H2688 H 0.18556 0.31913 0.45927 0.0
H2689 H 0.14933 0.31813 0.50353 0.0
H2690 H 0.1364 0.25407 0.47054 0.0
H2691 H 0.12042 0.22779 0.447 0.0
H2692 H 0.05652 0.21166 0.45767 0.0
H2693 H 0.07213 0.23825 0.48108 0.0
C2694 C 0.12886 0.25868 0.56042 0.0
C2695 C 0.10778 0.24492 0.56437 0.0
C2696 C 0.13209 0.26693 0.54596 0.0
C2697 C 0.11435 0.26208 0.53521 0.0
C2698 C 0.09325 0.24823 0.53902 0.0
C2699 C 0.08999 0.23973 0.55348 0.0
C2700 C 0.11811 0.27123 0.51994 0.0
C2701 C 0.10901 0.25697 0.50618 0.0
C2702 C 0.13224 0.2937 0.51893 0.0
C2703 C 0.1407 0.30992 0.5329 0.0
C2704 C 0.12642 0.31084 0.54304 0.0
C2705 C 0.13444 0.32599 0.55626 0.0
C2706 C 0.15673 0.34041 0.55942 0.0
C2707 C 0.17103 0.33975 0.54935 0.0
C2708 C 0.16309 0.32461 0.53613 0.0
C2709 C 0.1322 0.30249 0.44936 0.0
C2710 C 0.15449 0.3118 0.44769 0.0
C2711 C 0.12411 0.29421 0.4633 0.0
C2712 C 0.13817 0.29515 0.47579 0.0
C2713 C 0.16036 0.30441 0.47417 0.0
C2714 C 0.16842 0.31252 0.46024 0.0
C2715 C 0.13002 0.28655 0.49066 0.0
C2716 C 0.13824 0.30098 0.50432 0.0
C2717 C 0.11481 0.26435 0.49152 0.0
C2718 C 0.10545 0.24835 0.47746 0.0
C2719 C 0.11895 0.2451 0.46777 0.0
C2720 C 0.10995 0.23015 0.45445 0.0
C2721 C 0.08746 0.21816 0.45079 0.0
C2722 C 0.07392 0.22106 0.46046 0.0
C2723 C 0.08284 0.23607 0.47376 0.0
H2724 H 0.08052 0.20657 0.44048 0.0
H2725 H 0.16291 0.35213 0.56966 0.0
H2726 H 0.74114 0.84038 0.58144 0.0
H2727 H 0.72963 0.83541 0.55347 0.0
H2728 H 0.78197 0.90008 0.54871 0.0
H2729 H 0.79305 0.9053 0.57673 0.0
H2730 H 0.74715 0.89415 0.53317 0.0
H2731 H 0.78297 0.85261 0.53638 0.0
H2732 H 0.79059 0.82494 0.54605 0.0
H2733 H 0.72553 0.77473 0.52985 0.0
H2734 H 0.71742 0.80215 0.52027 0.0
H2735 H 0.74207 0.88247 0.45042 0.0
H2736 H 0.75543 0.88517 0.47781 0.0
H2737 H 0.69531 0.82795 0.48474 0.0
H2738 H 0.6818 0.8253 0.45741 0.0
H2739 H 0.73442 0.82977 0.49868 0.0
H2740 H 0.69924 0.87265 0.49607 0.0
H2741 H 0.69284 0.90088 0.48597 0.0
H2742 H 0.75906 0.94945 0.50071 0.0
H2743 H 0.76594 0.92142 0.51068 0.0
C2744 C 0.75021 0.85346 0.57437 0.0
C2745 C 0.76796 0.87321 0.5812 0.0
C2746 C 0.7437 0.85059 0.5584 0.0
C2747 C 0.75512 0.86726 0.54892 0.0
C2748 C 0.77288 0.887 0.55577 0.0
C2749 C 0.7792 0.88997 0.57176 0.0
C2750 C 0.74828 0.8644 0.53193 0.0
C2751 C 0.74471 0.88022 0.52562 0.0
C2752 C 0.74467 0.84602 0.52208 0.0
C2753 C 0.74953 0.82947 0.52774 0.0
C2754 C 0.77024 0.83569 0.53498 0.0
C2755 C 0.77466 0.82005 0.54043 0.0
C2756 C 0.75854 0.7981 0.5386 0.0
C2757 C 0.73799 0.79174 0.53128 0.0
C2758 C 0.73348 0.80733 0.52582 0.0
C2759 C 0.73187 0.87032 0.45776 0.0
C2760 C 0.7109 0.85373 0.45189 0.0
C2761 C 0.73946 0.87191 0.47336 0.0
C2762 C 0.72628 0.85681 0.48325 0.0
C2763 C 0.70568 0.83973 0.47726 0.0
C2764 C 0.69797 0.83831 0.46172 0.0
C2765 C 0.73349 0.85956 0.50007 0.0
C2766 C 0.73703 0.84371 0.5063 0.0
C2767 C 0.73731 0.87801 0.50984 0.0
C2768 C 0.73316 0.8949 0.50396 0.0
C2769 C 0.71248 0.88932 0.49703 0.0
C2770 C 0.70876 0.90529 0.49135 0.0
C2771 C 0.72555 0.92694 0.49265 0.0
C2772 C 0.74608 0.93267 0.49968 0.0
C2773 C 0.7499 0.91675 0.50536 0.0
H2774 H 0.72264 0.93928 0.48825 0.0
H2775 H 0.76199 0.78601 0.54283 0.0
H2776 H 0.13338 0.92368 0.56065 0.0
H2777 H 0.14003 0.91617 0.53415 0.0
H2778 H 0.12143 0.85052 0.5432 0.0
H2779 H 0.11483 0.85801 0.56986 0.0
H2780 H 0.16038 0.87164 0.52979 0.0
H2781 H 0.08794 0.85809 0.52006 0.0
H2782 H 0.05818 0.86605 0.52151 0.0
H2783 H 0.09301 0.92276 0.49742 0.0
H2784 H 0.12314 0.91532 0.49603 0.0
H2785 H 0.16819 0.84306 0.45118 0.0
H2786 H 0.15405 0.84312 0.47631 0.0
H2787 H 0.16213 0.90652 0.47085 0.0
H2788 H 0.17575 0.90626 0.44555 0.0
H2789 H 0.12547 0.88253 0.48237 0.0
H2790 H 0.19912 0.89876 0.49435 0.0
H2791 H 0.22991 0.8923 0.4934 0.0
H2792 H 0.19404 0.83227 0.51371 0.0
H2793 H 0.16291 0.83825 0.51459 0.0
C2794 C 0.13066 0.90762 0.55697 0.0
C2795 C 0.12363 0.89143 0.5673 0.0
C2796 C 0.13432 0.90331 0.54181 0.0
C2797 C 0.13107 0.88274 0.53669 0.0
C2798 C 0.12394 0.86647 0.54693 0.0
C2799 C 0.12007 0.87072 0.56209 0.0
C2800 C 0.13601 0.87868 0.52081 0.0
C2801 C 0.15247 0.87359 0.51937 0.0
C2802 C 0.12602 0.88176 0.5073 0.0
C2803 C 0.10788 0.88624 0.50805 0.0
C2804 C 0.08934 0.87236 0.51518 0.0
C2805 C 0.07239 0.87676 0.51597 0.0
C2806 C 0.07373 0.89492 0.50959 0.0
C2807 C 0.092 0.9087 0.50237 0.0
C2808 C 0.10901 0.90438 0.50156 0.0
C2809 C 0.16692 0.85699 0.45536 0.0
C2810 C 0.17318 0.87472 0.44647 0.0
C2811 C 0.15888 0.85703 0.46973 0.0
C2812 C 0.15736 0.87499 0.47562 0.0
C2813 C 0.16314 0.89248 0.46657 0.0
C2814 C 0.17092 0.89232 0.45212 0.0
C2815 C 0.15014 0.87583 0.49132 0.0
C2816 C 0.13325 0.88033 0.49274 0.0
C2817 C 0.15988 0.87241 0.50485 0.0
C2818 C 0.17861 0.86884 0.50438 0.0
C2819 C 0.19774 0.88411 0.49851 0.0
C2820 C 0.21526 0.88054 0.498 0.0
C2821 C 0.21391 0.86185 0.50345 0.0
C2822 C 0.19505 0.84672 0.50946 0.0
C2823 C 0.17747 0.85019 0.50998 0.0
H2824 H 0.22749 0.85912 0.50304 0.0
H2825 H 0.06058 0.8983 0.51021 0.0
H2826 H 0.60464 0.82174 0.11137 0.0
H2827 H 0.61713 0.82848 0.13932 0.0
H2828 H 0.56524 0.76465 0.14634 0.0
H2829 H 0.55264 0.75788 0.11849 0.0
H2830 H 0.57138 0.79728 0.1695 0.0
H2831 H 0.61348 0.77133 0.14319 0.0
H2832 H 0.6377 0.77225 0.1237 0.0
H2833 H 0.68638 0.83653 0.14324 0.0
H2834 H 0.66229 0.8361 0.16272 0.0
H2835 H 0.60675 0.77403 0.24038 0.0
H2836 H 0.59374 0.77471 0.21367 0.0
H2837 H 0.65324 0.83454 0.20996 0.0
H2838 H 0.66647 0.83366 0.23659 0.0
H2839 H 0.64421 0.80776 0.1852 0.0
H2840 H 0.60409 0.83302 0.21307 0.0
H2841 H 0.58025 0.83272 0.23267 0.0
H2842 H 0.52843 0.7716 0.21055 0.0
H2843 H 0.55206 0.77136 0.19095 0.0
C2844 C 0.59579 0.80927 0.11893 0.0
C2845 C 0.57779 0.78923 0.11278 0.0
C2846 C 0.60296 0.8131 0.13485 0.0
C2847 C 0.59216 0.797 0.14484 0.0
C2848 C 0.57377 0.77727 0.13881 0.0
C2849 C 0.56672 0.77336 0.1229 0.0
C2850 C 0.60056 0.80017 0.16146 0.0
C2851 C 0.58724 0.79945 0.17298 0.0
C2852 C 0.62147 0.80357 0.16594 0.0
C2853 C 0.63599 0.80378 0.15429 0.0
C2854 C 0.62927 0.78573 0.14325 0.0
C2855 C 0.64299 0.78615 0.13222 0.0
C2856 C 0.66354 0.80446 0.1322 0.0
C2857 C 0.67044 0.82237 0.14325 0.0
C2858 C 0.65677 0.82205 0.15429 0.0
C2859 C 0.61691 0.78747 0.23393 0.0
C2860 C 0.63762 0.80378 0.24053 0.0
C2861 C 0.60946 0.78789 0.21868 0.0
C2862 C 0.62241 0.80483 0.20985 0.0
C2863 C 0.64297 0.8213 0.21654 0.0
C2864 C 0.65052 0.82077 0.23173 0.0
C2865 C 0.61497 0.80469 0.19338 0.0
C2866 C 0.62845 0.80591 0.18183 0.0
C2867 C 0.59427 0.80193 0.18891 0.0
C2868 C 0.57992 0.80209 0.2006 0.0
C2869 C 0.58766 0.81944 0.21244 0.0
C2870 C 0.57418 0.81938 0.22355 0.0
C2871 C 0.55286 0.80213 0.22288 0.0
C2872 C 0.54495 0.78494 0.21107 0.0
C2873 C 0.55838 0.78491 0.19994 0.0
H2874 H 0.54245 0.80211 0.23149 0.0
H2875 H 0.67414 0.80475 0.12366 0.0
H2876 H 0.19801 0.79389 0.11023 0.0
H2877 H 0.19102 0.80034 0.13674 0.0
H2878 H 0.25945 0.8316 0.15187 0.0
H2879 H 0.26646 0.82418 0.12546 0.0
H2880 H 0.23739 0.80493 0.172 0.0
H2881 H 0.23297 0.8611 0.14781 0.0
H2882 H 0.22119 0.87752 0.12785 0.0
H2883 H 0.15508 0.83823 0.13749 0.0
H2884 H 0.16642 0.82134 0.15736 0.0
H2885 H 0.2219 0.84358 0.24632 0.0
H2886 H 0.23385 0.84261 0.22044 0.0
H2887 H 0.16728 0.80227 0.20089 0.0
H2888 H 0.15519 0.80251 0.2267 0.0
H2889 H 0.19166 0.83727 0.18372 0.0
H2890 H 0.19709 0.77962 0.20683 0.0
H2891 H 0.20991 0.76447 0.22714 0.0
H2892 H 0.27598 0.80901 0.21986 0.0
H2893 H 0.26355 0.82463 0.19965 0.0
C2894 C 0.21159 0.80205 0.1192 0.0
C2895 C 0.2328 0.80845 0.11569 0.0
C2896 C 0.2076 0.80598 0.13434 0.0
C2897 C 0.22474 0.81673 0.1463 0.0
C2898 C 0.24597 0.82336 0.14283 0.0
C2899 C 0.24997 0.81929 0.12768 0.0
C2900 C 0.22028 0.8202 0.16251 0.0
C2901 C 0.22774 0.81239 0.17459 0.0
C2902 C 0.20745 0.82968 0.16592 0.0
C2903 C 0.20054 0.83983 0.15399 0.0
C2904 C 0.2159 0.85584 0.14559 0.0
C2905 C 0.2093 0.86525 0.13431 0.0
C2906 C 0.18739 0.85889 0.13138 0.0
C2907 C 0.17204 0.84313 0.13976 0.0
C2908 C 0.17855 0.83365 0.15105 0.0
C2909 C 0.20979 0.83426 0.23656 0.0
C2910 C 0.18755 0.82316 0.23863 0.0
C2911 C 0.21666 0.83384 0.22177 0.0
C2912 C 0.20143 0.82237 0.20877 0.0
C2913 C 0.17927 0.81135 0.21076 0.0
C2914 C 0.1724 0.8116 0.22554 0.0
C2915 C 0.20847 0.8217 0.19304 0.0
C2916 C 0.2015 0.83004 0.18109 0.0
C2917 C 0.22193 0.81294 0.18979 0.0
C2918 C 0.2294 0.80345 0.20185 0.0
C2919 C 0.21436 0.7863 0.20965 0.0
C2920 C 0.22155 0.77761 0.22113 0.0
C2921 C 0.24375 0.78582 0.22482 0.0
C2922 C 0.25879 0.80269 0.21701 0.0
C2923 C 0.25169 0.81146 0.20553 0.0
H2924 H 0.24928 0.77906 0.23371 0.0
H2925 H 0.18232 0.8662 0.12264 0.0
H2926 H 0.21095 0.45204 0.13557 0.0
H2927 H 0.20564 0.43985 0.16161 0.0
H2928 H 0.22644 0.39402 0.14919 0.0
H2929 H 0.23116 0.40572 0.12285 0.0
H2930 H 0.1899 0.37509 0.16306 0.0
H2931 H 0.25884 0.43934 0.17435 0.0
H2932 H 0.2863 0.47807 0.17428 0.0
H2933 H 0.24718 0.4965 0.19979 0.0
H2934 H 0.21932 0.45788 0.19982 0.0
H2935 H 0.18557 0.34693 0.24126 0.0
H2936 H 0.20018 0.36066 0.21679 0.0
H2937 H 0.17865 0.4074 0.22131 0.0
H2938 H 0.16441 0.39407 0.24591 0.0
H2939 H 0.21959 0.42523 0.2119 0.0
H2940 H 0.14918 0.36109 0.19783 0.0
H2941 H 0.12165 0.32233 0.19774 0.0
H2942 H 0.16424 0.30386 0.17736 0.0
H2943 H 0.19215 0.34254 0.17753 0.0
C2944 C 0.21439 0.43935 0.13837 0.0
C2945 C 0.22135 0.42974 0.12713 0.0
C2946 C 0.21158 0.43257 0.15332 0.0
C2947 C 0.21587 0.41619 0.15741 0.0
C2948 C 0.22313 0.40676 0.14629 0.0
C2949 C 0.22595 0.41355 0.1313 0.0
C2950 C 0.21151 0.40813 0.173 0.0
C2951 C 0.19677 0.38599 0.17376 0.0
C2952 C 0.22017 0.42241 0.18694 0.0
C2953 C 0.2369 0.44569 0.18698 0.0
C2954 C 0.25601 0.45165 0.17984 0.0
C2955 C 0.27166 0.47359 0.17983 0.0
C2956 C 0.26847 0.48974 0.187 0.0
C2957 C 0.24963 0.48397 0.19423 0.0
C2958 C 0.23391 0.46206 0.19427 0.0
C2959 C 0.18419 0.36031 0.23713 0.0
C2960 C 0.17372 0.36934 0.24544 0.0
C2961 C 0.19242 0.36803 0.22311 0.0
C2962 C 0.19031 0.3849 0.21718 0.0
C2963 C 0.1804 0.39434 0.22568 0.0
C2964 C 0.17211 0.38658 0.23964 0.0
C2965 C 0.19775 0.39233 0.20188 0.0
C2966 C 0.21302 0.41433 0.20119 0.0
C2967 C 0.18963 0.37793 0.188 0.0
C2968 C 0.17285 0.35469 0.18787 0.0
C2969 C 0.15274 0.34876 0.19345 0.0
C2970 C 0.13706 0.32681 0.19336 0.0
C2971 C 0.14122 0.31064 0.18759 0.0
C2972 C 0.16106 0.3164 0.18186 0.0
C2973 C 0.17681 0.33833 0.18194 0.0
H2974 H 0.12905 0.29366 0.18753 0.0
H2975 H 0.28061 0.50672 0.18698 0.0
H2976 H 0.74258 0.55887 0.88857 0.0
H2977 H 0.74944 0.57407 0.86346 0.0
H2978 H 0.8182 0.6094 0.87798 0.0
H2979 H 0.81142 0.59521 0.90332 0.0
H2980 H 0.80702 0.63453 0.86391 0.0
H2981 H 0.7933 0.56122 0.85312 0.0
H2982 H 0.77206 0.52124 0.85244 0.0
H2983 H 0.72046 0.51992 0.82324 0.0
H2984 H 0.7413 0.55994 0.82392 0.0
H2985 H 0.85484 0.65488 0.79329 0.0
H2986 H 0.84154 0.64054 0.81779 0.0
H2987 H 0.77579 0.61704 0.79825 0.0
H2988 H 0.789 0.63196 0.77375 0.0
H2989 H 0.78142 0.58635 0.81416 0.0
H2990 H 0.79774 0.66012 0.8231 0.0
H2991 H 0.82021 0.69995 0.8235 0.0
H2992 H 0.86823 0.70024 0.85611 0.0
H2993 H 0.8462 0.66034 0.85572 0.0
C2994 C 0.75914 0.57007 0.88648 0.0
C2995 C 0.77647 0.57572 0.89793 0.0
C2996 C 0.76305 0.57857 0.87206 0.0
C2997 C 0.78436 0.59266 0.86876 0.0
C2998 C 0.80162 0.59851 0.88024 0.0
C2999 C 0.79773 0.59018 0.89467 0.0
C3000 C 0.78889 0.60136 0.85338 0.0
C3001 C 0.80155 0.62396 0.85305 0.0
C3002 C 0.78125 0.58763 0.83917 0.0
C3003 C 0.76874 0.56358 0.83872 0.0
C3004 C 0.77735 0.55241 0.84666 0.0
C3005 C 0.7654 0.52975 0.84625 0.0
C3006 C 0.7449 0.51805 0.83784 0.0
C3007 C 0.73633 0.529 0.82978 0.0
C3008 C 0.7482 0.55167 0.83016 0.0
C3009 C 0.83757 0.64697 0.79424 0.0
C3010 C 0.82301 0.64477 0.78158 0.0
C3011 C 0.83 0.63868 0.80823 0.0
C3012 C 0.80772 0.62795 0.80985 0.0
C3013 C 0.79306 0.62532 0.7972 0.0
C3014 C 0.80064 0.63377 0.7832 0.0
C3015 C 0.79993 0.6194 0.8248 0.0
C3016 C 0.78665 0.59688 0.82503 0.0
C3017 C 0.80713 0.63317 0.83894 0.0
C3018 C 0.82038 0.6572 0.83928 0.0
C3019 C 0.81317 0.66865 0.83026 0.0
C3020 C 0.82581 0.69125 0.8305 0.0
C3021 C 0.84565 0.70262 0.8398 0.0
C3022 C 0.85286 0.69141 0.84891 0.0
C3023 C 0.84029 0.6688 0.84869 0.0
H3024 H 0.85542 0.72011 0.83998 0.0
H3025 H 0.73567 0.50051 0.83754 0.0
H3026 H 0.39848 0.20939 0.91808 0.0
H3027 H 0.38745 0.20426 0.89016 0.0
H3028 H 0.42786 0.1763 0.88179 0.0
H3029 H 0.44001 0.18261 0.90965 0.0
H3030 H 0.43319 0.20345 0.8614 0.0
H3031 H 0.37144 0.14464 0.87933 0.0
H3032 H 0.34165 0.12634 0.89581 0.0
H3033 H 0.31396 0.16438 0.88047 0.0
H3034 H 0.34376 0.18314 0.86406 0.0
H3035 H 0.38387 0.16494 0.78203 0.0
H3036 H 0.39504 0.16548 0.80952 0.0
H3037 H 0.36899 0.20649 0.8228 0.0
H3038 H 0.35865 0.20693 0.79543 0.0
H3039 H 0.356 0.16921 0.84004 0.0
H3040 H 0.42034 0.22937 0.82336 0.0
H3041 H 0.44993 0.24608 0.80649 0.0
H3042 H 0.47214 0.20246 0.81913 0.0
H3043 H 0.44246 0.18527 0.83591 0.0
C3044 C 0.40515 0.20228 0.91031 0.0
C3045 C 0.42016 0.19644 0.91614 0.0
C3046 C 0.3986 0.19908 0.89435 0.0
C3047 C 0.40656 0.18958 0.88388 0.0
C3048 C 0.42141 0.18356 0.88965 0.0
C3049 C 0.42817 0.18697 0.90562 0.0
C3050 C 0.40001 0.18674 0.86686 0.0
C3051 C 0.41628 0.19558 0.85672 0.0
C3052 C 0.37796 0.1767 0.86072 0.0
C3053 C 0.35995 0.16542 0.87055 0.0
C3054 C 0.35909 0.14922 0.87956 0.0
C3055 C 0.34219 0.13875 0.88887 0.0
C3056 C 0.32595 0.14423 0.88921 0.0
C3057 C 0.32656 0.16017 0.8802 0.0
C3058 C 0.34344 0.17071 0.87088 0.0
C3059 C 0.38079 0.17435 0.79076 0.0
C3060 C 0.37026 0.18583 0.78647 0.0
C3061 C 0.38705 0.17449 0.80646 0.0
C3062 C 0.38273 0.18595 0.81813 0.0
C3063 C 0.37226 0.19739 0.81394 0.0
C3064 C 0.36626 0.19751 0.79827 0.0
C3065 C 0.38917 0.18617 0.83477 0.0
C3066 C 0.37286 0.17683 0.84478 0.0
C3067 C 0.41114 0.19546 0.84076 0.0
C3068 C 0.42903 0.20587 0.83074 0.0
C3069 C 0.43141 0.22321 0.82243 0.0
C3070 C 0.44822 0.23279 0.8129 0.0
C3071 C 0.46286 0.22529 0.8117 0.0
C3072 C 0.46076 0.20823 0.82005 0.0
C3073 C 0.44396 0.19856 0.82957 0.0
H3074 H 0.47587 0.23274 0.80432 0.0
H3075 H 0.31287 0.1361 0.89643 0.0
H3076 H 0.78641 0.19175 0.90406 0.0
H3077 H 0.7922 0.18532 0.87698 0.0
H3078 H 0.80213 0.2484 0.86793 0.0
H3079 H 0.79665 0.25503 0.89506 0.0
H3080 H 0.77424 0.21168 0.84367 0.0
H3081 H 0.84443 0.24659 0.87461 0.0
H3082 H 0.86966 0.24977 0.89677 0.0
H3083 H 0.8599 0.18675 0.88151 0.0
H3084 H 0.83431 0.18306 0.85939 0.0
H3085 H 0.82989 0.23326 0.77572 0.0
H3086 H 0.81567 0.233 0.80082 0.0
H3087 H 0.82463 0.17944 0.8118 0.0
H3088 H 0.83917 0.17989 0.78682 0.0
H3089 H 0.84094 0.2089 0.8352 0.0
H3090 H 0.77132 0.17164 0.80561 0.0
H3091 H 0.74284 0.16408 0.78453 0.0
H3092 H 0.74918 0.22643 0.79684 0.0
H3093 H 0.77738 0.23415 0.81824 0.0
C3094 C 0.78958 0.2041 0.89622 0.0
C3095 C 0.79119 0.22391 0.90161 0.0
C3096 C 0.7929 0.20044 0.88081 0.0
C3097 C 0.79762 0.21642 0.87053 0.0
C3098 C 0.79845 0.23588 0.87572 0.0
C3099 C 0.79547 0.23969 0.89119 0.0
C3100 C 0.80299 0.21339 0.85464 0.0
C3101 C 0.78891 0.21128 0.84175 0.0
C3102 C 0.82174 0.21213 0.85225 0.0
C3103 C 0.83728 0.21445 0.86545 0.0
C3104 C 0.84751 0.23333 0.87606 0.0
C3105 C 0.8619 0.23524 0.8886 0.0
C3106 C 0.86633 0.21845 0.89057 0.0
C3107 C 0.85642 0.19973 0.87998 0.0
C3108 C 0.84199 0.19773 0.86744 0.0
C3109 C 0.82855 0.22125 0.78341 0.0
C3110 C 0.83579 0.2067 0.77937 0.0
C3111 C 0.82029 0.22102 0.79772 0.0
C3112 C 0.81889 0.20607 0.80818 0.0
C3113 C 0.82561 0.19117 0.80396 0.0
C3114 C 0.83402 0.19151 0.78973 0.0
C3115 C 0.81222 0.20722 0.82402 0.0
C3116 C 0.82613 0.2091 0.83699 0.0
C3117 C 0.79309 0.20781 0.82647 0.0
C3118 C 0.77657 0.20355 0.81341 0.0
C3119 C 0.76671 0.18378 0.80376 0.0
C3120 C 0.75053 0.17941 0.79182 0.0
C3121 C 0.74431 0.19483 0.78927 0.0
C3122 C 0.75406 0.21453 0.7988 0.0
C3123 C 0.77003 0.21885 0.8109 0.0
H3124 H 0.73189 0.19146 0.77994 0.0
H3125 H 0.87748 0.21996 0.90029 0.0
H3126 H 0.22256 0.09278 0.44937 0.0
H3127 H 0.23354 0.09934 0.47748 0.0
H3128 H 0.28441 0.1643 0.47181 0.0
H3129 H 0.27353 0.15777 0.44359 0.0
H3130 H 0.29843 0.14123 0.48947 0.0
H3131 H 0.24158 0.15842 0.48808 0.0
H3132 H 0.20482 0.15211 0.48088 0.0
H3133 H 0.17758 0.09523 0.50564 0.0
H3134 H 0.21417 0.10101 0.51279 0.0
H3135 H 0.32898 0.16968 0.57033 0.0
H3136 H 0.31647 0.17042 0.54347 0.0
H3137 H 0.25862 0.10848 0.54563 0.0
H3138 H 0.27083 0.108 0.57265 0.0
H3139 H 0.24882 0.13318 0.52967 0.0
H3140 H 0.304 0.11321 0.52895 0.0
H3141 H 0.34014 0.11767 0.53566 0.0
H3142 H 0.36978 0.17748 0.51432 0.0
H3143 H 0.33382 0.17352 0.50767 0.0
C3144 C 0.23607 0.10846 0.45413 0.0
C3145 C 0.24725 0.12475 0.44431 0.0
C3146 C 0.24221 0.11225 0.47018 0.0
C3147 C 0.25968 0.13236 0.47672 0.0
C3148 C 0.27083 0.1487 0.46697 0.0
C3149 C 0.26455 0.145 0.45091 0.0
C3150 C 0.26683 0.13588 0.49365 0.0
C3151 C 0.28775 0.1399 0.49829 0.0
C3152 C 0.25264 0.13352 0.50508 0.0
C3153 C 0.23062 0.13006 0.50087 0.0
C3154 C 0.22774 0.14446 0.49189 0.0
C3155 C 0.20694 0.141 0.48783 0.0
C3156 C 0.18888 0.12325 0.49277 0.0
C3157 C 0.19159 0.10896 0.50181 0.0
C3158 C 0.21236 0.11234 0.50588 0.0
C3159 C 0.31353 0.1563 0.56508 0.0
C3160 C 0.30099 0.13865 0.57349 0.0
C3161 C 0.30641 0.15671 0.54974 0.0
C3162 C 0.28684 0.13926 0.54239 0.0
C3163 C 0.27382 0.12209 0.55102 0.0
C3164 C 0.2808 0.12182 0.56645 0.0
C3165 C 0.28041 0.13835 0.52553 0.0
C3166 C 0.25961 0.13476 0.52088 0.0
C3167 C 0.29463 0.14084 0.51404 0.0
C3168 C 0.31625 0.14319 0.51796 0.0
C3169 C 0.31824 0.12739 0.52579 0.0
C3170 C 0.33869 0.12982 0.52957 0.0
C3171 C 0.35725 0.14787 0.52546 0.0
C3172 C 0.35539 0.16352 0.51752 0.0
C3173 C 0.33499 0.16119 0.51373 0.0
H3174 H 0.37307 0.14972 0.52839 0.0
H3175 H 0.17278 0.1206 0.48962 0.0
H3176 H 0.90679 0.17172 0.44849 0.0
H3177 H 0.89995 0.17691 0.47541 0.0
H3178 H 0.88766 0.11245 0.48274 0.0
H3179 H 0.89388 0.10702 0.45569 0.0
H3180 H 0.85804 0.11815 0.49413 0.0
H3181 H 0.93563 0.16021 0.49814 0.0
H3182 H 0.97121 0.18813 0.49114 0.0
H3183 H 0.95546 0.23787 0.5023 0.0
H3184 H 0.91964 0.21021 0.50916 0.0
H3185 H 0.86055 0.12869 0.57647 0.0
H3186 H 0.87199 0.12619 0.55061 0.0
H3187 H 0.87177 0.18477 0.54076 0.0
H3188 H 0.86037 0.1874 0.56665 0.0
H3189 H 0.90832 0.18256 0.5311 0.0
H3190 H 0.83024 0.13947 0.52655 0.0
H3191 H 0.79508 0.11111 0.53384 0.0
H3192 H 0.81294 0.06261 0.52407 0.0
H3193 H 0.84837 0.09076 0.51694 0.0
C3194 C 0.90281 0.15876 0.45592 0.0
C3195 C 0.90084 0.13897 0.45004 0.0
C3196 C 0.89897 0.16175 0.47131 0.0
C3197 C 0.89354 0.14517 0.4812 0.0
C3198 C 0.89178 0.12546 0.47534 0.0
C3199 C 0.89533 0.12237 0.45991 0.0
C3200 C 0.88891 0.14798 0.49746 0.0
C3201 C 0.86924 0.13208 0.50226 0.0
C3202 C 0.90325 0.1664 0.50801 0.0
C3203 C 0.92486 0.1831 0.50402 0.0
C3204 C 0.93969 0.17708 0.499 0.0
C3205 C 0.95991 0.19287 0.49507 0.0
C3206 C 0.96557 0.21475 0.49624 0.0
C3207 C 0.95105 0.22091 0.50138 0.0
C3208 C 0.93079 0.20519 0.50531 0.0
C3209 C 0.86324 0.1412 0.56887 0.0
C3210 C 0.85947 0.15818 0.57352 0.0
C3211 C 0.86966 0.1397 0.5541 0.0
C3212 C 0.87256 0.15522 0.54377 0.0
C3213 C 0.86959 0.17264 0.54858 0.0
C3214 C 0.86295 0.17402 0.5633 0.0
C3215 C 0.87764 0.15266 0.52768 0.0
C3216 C 0.89728 0.16862 0.52293 0.0
C3217 C 0.86339 0.13422 0.51719 0.0
C3218 C 0.84204 0.11725 0.52137 0.0
C3219 C 0.82675 0.12279 0.52608 0.0
C3220 C 0.80675 0.10675 0.53016 0.0
C3221 C 0.8018 0.08508 0.52946 0.0
C3222 C 0.81681 0.07941 0.52463 0.0
C3223 C 0.83684 0.09539 0.52056 0.0
H3224 H 0.78632 0.07269 0.53262 0.0
H3225 H 0.98124 0.22694 0.49318 0.0
H3226 H 0.89906 0.74657 0.45861 0.0
H3227 H 0.89297 0.73325 0.48441 0.0
H3228 H 0.87242 0.77898 0.49782 0.0
H3229 H 0.87901 0.79273 0.47224 0.0
H3230 H 0.89837 0.77689 0.52121 0.0
H3231 H 0.83554 0.72651 0.4859 0.0
H3232 H 0.81644 0.70081 0.46235 0.0
H3233 H 0.84137 0.66018 0.4771 0.0
H3234 H 0.86087 0.68581 0.50064 0.0
H3235 H 0.83331 0.73017 0.58219 0.0
H3236 H 0.84797 0.74499 0.55804 0.0
H3237 H 0.86632 0.69616 0.5504 0.0
H3238 H 0.85135 0.68102 0.57447 0.0
H3239 H 0.84475 0.69913 0.52443 0.0
H3240 H 0.90537 0.74786 0.56068 0.0
H3241 H 0.92464 0.77343 0.58421 0.0
H3242 H 0.90393 0.81676 0.56805 0.0
H3243 H 0.88443 0.79135 0.54441 0.0
C3244 C 0.89354 0.75398 0.46714 0.0
C3245 C 0.88936 0.77058 0.46337 0.0
C3246 C 0.88992 0.74626 0.48182 0.0
C3247 C 0.88201 0.75497 0.49295 0.0
C3248 C 0.87847 0.772 0.48938 0.0
C3249 C 0.88206 0.7797 0.47472 0.0
C3250 C 0.87663 0.7459 0.50814 0.0
C3251 C 0.88653 0.75992 0.52193 0.0
C3252 C 0.86161 0.72364 0.50906 0.0
C3253 C 0.84986 0.7082 0.49493 0.0
C3254 C 0.83709 0.71219 0.48405 0.0
C3255 C 0.82617 0.69762 0.47072 0.0
C3256 C 0.82775 0.67891 0.46821 0.0
C3257 C 0.8402 0.6747 0.47905 0.0
C3258 C 0.85118 0.68924 0.49239 0.0
C3259 C 0.84048 0.7226 0.57537 0.0
C3260 C 0.84114 0.70441 0.58018 0.0
C3261 C 0.84902 0.7312 0.56165 0.0
C3262 C 0.85839 0.72177 0.55251 0.0
C3263 C 0.85924 0.70371 0.55734 0.0
C3264 C 0.8508 0.69518 0.57111 0.0
C3265 C 0.86628 0.73017 0.53751 0.0
C3266 C 0.8568 0.71603 0.52374 0.0
C3267 C 0.88168 0.7523 0.53662 0.0
C3268 C 0.89331 0.76762 0.55083 0.0
C3269 C 0.90479 0.76277 0.5622 0.0
C3270 C 0.91579 0.77726 0.57555 0.0
C3271 C 0.91546 0.79669 0.57766 0.0
C3272 C 0.90416 0.80169 0.5664 0.0
C3273 C 0.89318 0.78728 0.553 0.0
H3274 H 0.92401 0.80791 0.58799 0.0
H3275 H 0.81927 0.66765 0.45788 0.0
loop_
_geom_bond_atom_site_label_1
_geom_bond_atom_site_label_2
_geom_bond_distance
_geom_bond_site_symmetry_2
_ccdc_geom_bond_type
H0 C5 0.930 . S
H1 C8 0.930 . S
H2 C10 0.930 . S
H3 C4 1.016 . S
C4 H3 1.016 . S
C4 N11 1.286 . S
C5 H0 0.930 . S
C5 C6 1.397 . S
C5 C7 1.361 . S
C6 C5 1.397 . S
C6 C10 1.390 . S
C7 C5 1.361 . S
C7 C8 1.393 . S
C7 N11 1.413 . S
C8 H1 0.930 . S
C8 C7 1.393 . S
C8 C9 1.399 . S
C9 C8 1.399 . S
C9 C10 1.381 . S
C10 H2 0.930 . S
C10 C6 1.390 . S
C10 C9 1.381 . S
N11 C4 1.286 . S
N11 C7 1.413 . S
H12 C17 0.930 . S
H13 C20 0.930 . S
H14 C22 0.930 . S
H15 C16 1.016 . S
C16 H15 1.016 . S
C16 N23 1.286 . S
C17 H12 0.930 . S
C17 C18 1.397 . S
C17 C19 1.361 . S
C18 C17 1.397 . S
C18 C22 1.390 . S
C19 C17 1.361 . S
C19 C20 1.393 . S
C19 N23 1.413 . S
C20 H13 0.930 . S
C20 C19 1.393 . S
C20 C21 1.399 . S
C21 C20 1.399 . S
C21 C22 1.381 . S
C22 H14 0.930 . S
C22 C18 1.390 . S
C22 C21 1.381 . S
N23 C16 1.286 . S
N23 C19 1.413 . S
H24 C29 0.930 . S
H25 C32 0.930 . S
H26 C34 0.930 . S
H27 C28 1.016 . S
C28 H27 1.016 . S
C28 N35 1.286 . S
C29 H24 0.930 . S
C29 C30 1.397 . S
C29 C31 1.361 . S
C30 C29 1.397 . S
C30 C34 1.390 . S
C31 C29 1.361 . S
C31 C32 1.393 . S
C31 N35 1.413 . S
C32 H25 0.930 . S
C32 C31 1.393 . S
C32 C33 1.399 . S
C33 C32 1.399 . S
C33 C34 1.381 . S
C34 H26 0.930 . S
C34 C30 1.390 . S
C34 C33 1.381 . S
N35 C28 1.286 . S
N35 C31 1.413 . S
H36 C41 0.930 . S
H37 C44 0.930 . S
H38 C46 0.930 . S
H39 C40 1.016 . S
C40 H39 1.016 . S
C40 N47 1.286 . S
C41 H36 0.930 . S
C41 C42 1.397 . S
C41 C43 1.361 . S
C42 C41 1.397 . S
C42 C46 1.390 . S
C43 C41 1.361 . S
C43 C44 1.393 . S
C43 N47 1.413 . S
C44 H37 0.930 . S
C44 C43 1.393 . S
C44 C45 1.399 . S
C45 C44 1.399 . S
C45 C46 1.381 . S
C46 H38 0.930 . S
C46 C42 1.390 . S
C46 C45 1.381 . S
N47 C40 1.286 . S
N47 C43 1.413 . S
H48 C53 0.930 . S
H49 C56 0.930 . S
H50 C58 0.930 . S
H51 C52 1.016 . S
C52 H51 1.016 . S
C52 N59 1.286 . S
C53 H48 0.930 . S
C53 C54 1.397 . S
C53 C55 1.361 . S
C54 C53 1.397 . S
C54 C58 1.390 . S
C55 C53 1.361 . S
C55 C56 1.393 . S
C55 N59 1.413 . S
C56 H49 0.930 . S
C56 C55 1.393 . S
C56 C57 1.399 . S
C57 C56 1.399 . S
C57 C58 1.381 . S
C58 H50 0.930 . S
C58 C54 1.390 . S
C58 C57 1.381 . S
N59 C52 1.286 . S
N59 C55 1.413 . S
H60 C65 0.930 . S
H61 C68 0.930 . S
H62 C70 0.930 . S
H63 C64 1.016 . S
C64 H63 1.016 . S
C64 N71 1.286 . S
C65 H60 0.930 . S
C65 C66 1.397 . S
C65 C67 1.361 . S
C66 C65 1.397 . S
C66 C70 1.390 . S
C67 C65 1.361 . S
C67 C68 1.393 . S
C67 N71 1.413 . S
C68 H61 0.930 . S
C68 C67 1.393 . S
C68 C69 1.399 . S
C69 C68 1.399 . S
C69 C70 1.381 . S
C70 H62 0.930 . S
C70 C66 1.390 . S
C70 C69 1.381 . S
N71 C64 1.286 . S
N71 C67 1.413 . S
H72 C77 0.930 . S
H73 C80 0.930 . S
H74 C82 0.930 . S
H75 C76 1.016 . S
C76 H75 1.016 . S
C76 N83 1.286 . S
C77 H72 0.930 . S
C77 C78 1.397 . S
C77 C79 1.361 . S
C78 C77 1.397 . S
C78 C82 1.390 . S
C79 C77 1.361 . S
C79 C80 1.393 . S
C79 N83 1.413 . S
C80 H73 0.930 . S
C80 C79 1.393 . S
C80 C81 1.399 . S
C81 C80 1.399 . S
C81 C82 1.381 . S
C82 H74 0.930 . S
C82 C78 1.390 . S
C82 C81 1.381 . S
N83 C76 1.286 . S
N83 C79 1.413 . S
H84 C89 0.930 . S
H85 C92 0.930 . S
H86 C94 0.930 . S
H87 C88 1.016 . S
C88 H87 1.016 . S
C88 N95 1.286 . S
C89 H84 0.930 . S
C89 C90 1.397 . S
C89 C91 1.361 . S
C90 C89 1.397 . S
C90 C94 1.390 . S
C91 C89 1.361 . S
C91 C92 1.393 . S
C91 N95 1.413 . S
C92 H85 0.930 . S
C92 C91 1.393 . S
C92 C93 1.399 . S
C93 C92 1.399 . S
C93 C94 1.381 . S
C94 H86 0.930 . S
C94 C90 1.390 . S
C94 C93 1.381 . S
N95 C88 1.286 . S
N95 C91 1.413 . S
H96 C101 0.930 . S
H97 C104 0.930 . S
H98 C106 0.930 . S
H99 C100 1.016 . S
C100 H99 1.016 . S
C100 N107 1.286 . S
C101 H96 0.930 . S
C101 C102 1.397 . S
C101 C103 1.361 . S
C102 C101 1.397 . S
C102 C106 1.390 . S
C103 C101 1.361 . S
C103 C104 1.393 . S
C103 N107 1.413 . S
C104 H97 0.930 . S
C104 C103 1.393 . S
C104 C105 1.399 . S
C105 C104 1.399 . S
C105 C106 1.381 . S
C106 H98 0.930 . S
C106 C102 1.390 . S
C106 C105 1.381 . S
N107 C100 1.286 . S
N107 C103 1.413 . S
H108 C113 0.930 . S
H109 C116 0.930 . S
H110 C118 0.930 . S
H111 C112 1.016 . S
C112 H111 1.016 . S
C112 N119 1.286 . S
C113 H108 0.930 . S
C113 C114 1.397 . S
C113 C115 1.361 . S
C114 C113 1.397 . S
C114 C118 1.390 . S
C115 C113 1.361 . S
C115 C116 1.393 . S
C115 N119 1.413 . S
C116 H109 0.930 . S
C116 C115 1.393 . S
C116 C117 1.399 . S
C117 C116 1.399 . S
C117 C118 1.381 . S
C118 H110 0.930 . S
C118 C114 1.390 . S
C118 C117 1.381 . S
N119 C112 1.286 . S
N119 C115 1.413 . S
H120 C125 0.930 . S
H121 C128 0.930 . S
H122 C130 0.930 . S
H123 C124 1.016 . S
C124 H123 1.016 . S
C124 N131 1.286 . S
C125 H120 0.930 . S
C125 C126 1.397 . S
C125 C127 1.361 . S
C126 C125 1.397 . S
C126 C130 1.390 . S
C127 C125 1.361 . S
C127 C128 1.393 . S
C127 N131 1.413 . S
C128 H121 0.930 . S
C128 C127 1.393 . S
C128 C129 1.399 . S
C129 C128 1.399 . S
C129 C130 1.381 . S
C130 H122 0.930 . S
C130 C126 1.390 . S
C130 C129 1.381 . S
N131 C124 1.286 . S
N131 C127 1.413 . S
H132 C137 0.930 . S
H133 C140 0.930 . S
H134 C142 0.930 . S
H135 C136 1.016 . S
C136 H135 1.016 . S
C136 N143 1.286 . S
C137 H132 0.930 . S
C137 C138 1.397 . S
C137 C139 1.361 . S
C138 C137 1.397 . S
C138 C142 1.390 . S
C139 C137 1.361 . S
C139 C140 1.393 . S
C139 N143 1.413 . S
C140 H133 0.930 . S
C140 C139 1.393 . S
C140 C141 1.399 . S
C141 C140 1.399 . S
C141 C142 1.381 . S
C142 H134 0.930 . S
C142 C138 1.390 . S
C142 C141 1.381 . S
N143 C136 1.286 . S
N143 C139 1.413 . S
H144 C149 0.930 . S
H145 C152 0.930 . S
H146 C154 0.930 . S
H147 C148 1.016 . S
C148 H147 1.016 . S
C148 N155 1.286 . S
C149 H144 0.930 . S
C149 C150 1.397 . S
C149 C151 1.361 . S
C150 C149 1.397 . S
C150 C154 1.390 . S
C151 C149 1.361 . S
C151 C152 1.393 . S
C151 N155 1.413 . S
C152 H145 0.930 . S
C152 C151 1.393 . S
C152 C153 1.399 . S
C153 C152 1.399 . S
C153 C154 1.381 . S
C154 H146 0.930 . S
C154 C150 1.390 . S
C154 C153 1.381 . S
N155 C148 1.286 . S
N155 C151 1.413 . S
H156 C161 0.930 . S
H157 C164 0.930 . S
H158 C166 0.930 . S
H159 C160 1.016 . S
C160 H159 1.016 . S
C160 N167 1.286 . S
C161 H156 0.930 . S
C161 C162 1.397 . S
C161 C163 1.361 . S
C162 C161 1.397 . S
C162 C166 1.390 . S
C163 C161 1.361 . S
C163 C164 1.393 . S
C163 N167 1.413 . S
C164 H157 0.930 . S
C164 C163 1.393 . S
C164 C165 1.399 . S
C165 C164 1.399 . S
C165 C166 1.381 . S
C166 H158 0.930 . S
C166 C162 1.390 . S
C166 C165 1.381 . S
N167 C160 1.286 . S
N167 C163 1.413 . S
H168 C173 0.930 . S
H169 C176 0.930 . S
H170 C178 0.930 . S
H171 C172 1.016 . S
C172 H171 1.016 . S
C172 N179 1.286 . S
C173 H168 0.930 . S
C173 C174 1.397 . S
C173 C175 1.361 . S
C174 C173 1.397 . S
C174 C178 1.390 . S
C175 C173 1.361 . S
C175 C176 1.393 . S
C175 N179 1.413 . S
C176 H169 0.930 . S
C176 C175 1.393 . S
C176 C177 1.399 . S
C177 C176 1.399 . S
C177 C178 1.381 . S
C178 H170 0.930 . S
C178 C174 1.390 . S
C178 C177 1.381 . S
N179 C172 1.286 . S
N179 C175 1.413 . S
H180 C185 0.930 . S
H181 C188 0.930 . S
H182 C190 0.930 . S
H183 C184 1.016 . S
C184 H183 1.016 . S
C184 N191 1.286 . S
C185 H180 0.930 . S
C185 C186 1.397 . S
C185 C187 1.361 . S
C186 C185 1.397 . S
C186 C190 1.390 . S
C187 C185 1.361 . S
C187 C188 1.393 . S
C187 N191 1.413 . S
C188 H181 0.930 . S
C188 C187 1.393 . S
C188 C189 1.399 . S
C189 C188 1.399 . S
C189 C190 1.381 . S
C190 H182 0.930 . S
C190 C186 1.390 . S
C190 C189 1.381 . S
N191 C184 1.286 . S
N191 C187 1.413 . S
H192 C197 0.930 . S
H193 C200 0.930 . S
H194 C202 0.930 . S
H195 C196 1.016 . S
C196 H195 1.016 . S
C196 N203 1.286 . S
C197 H192 0.930 . S
C197 C198 1.397 . S
C197 C199 1.361 . S
C198 C197 1.397 . S
C198 C202 1.390 . S
C199 C197 1.361 . S
C199 C200 1.393 . S
C199 N203 1.413 . S
C200 H193 0.930 . S
C200 C199 1.393 . S
C200 C201 1.399 . S
C201 C200 1.399 . S
C201 C202 1.381 . S
C202 H194 0.930 . S
C202 C198 1.390 . S
C202 C201 1.381 . S
N203 C196 1.286 . S
N203 C199 1.413 . S
H204 C209 0.930 . S
H205 C212 0.930 . S
H206 C214 0.930 . S
H207 C208 1.016 . S
C208 H207 1.016 . S
C208 N215 1.286 . S
C209 H204 0.930 . S
C209 C210 1.397 . S
C209 C211 1.361 . S
C210 C209 1.397 . S
C210 C214 1.390 . S
C211 C209 1.361 . S
C211 C212 1.393 . S
C211 N215 1.413 . S
C212 H205 0.930 . S
C212 C211 1.393 . S
C212 C213 1.399 . S
C213 C212 1.399 . S
C213 C214 1.381 . S
C214 H206 0.930 . S
C214 C210 1.390 . S
C214 C213 1.381 . S
N215 C208 1.286 . S
N215 C211 1.413 . S
C216 Eu217 2.835 . S
C216 C218 1.500 1_545 S
C216 O236 1.257 1_545 S
C216 O237 1.260 . S
Eu217 C216 2.835 . S
Eu217 O236 2.473 1_545 S
Eu217 O237 2.480 . S
Eu217 O238 2.430 . S
Eu217 O239 2.670 . S
Eu217 O240 2.394 1_545 S
Eu217 O245 2.355 1_545 S
Eu217 O247 2.374 . S
C218 C216 1.500 1_565 S
C218 C219 1.377 1_565 S
C218 C223 1.377 . S
C219 C218 1.377 1_545 S
C219 C220 1.386 1_545 S
C219 H248 0.931 . S
C220 C219 1.386 1_565 S
C220 C221 1.424 . S
C220 H249 0.900 1_565 S
C221 C220 1.424 . S
C221 C222 1.394 . S
C222 C221 1.394 . S
C222 C223 1.378 . S
C222 H250 0.931 . S
C223 C218 1.377 . S
C223 C222 1.378 . S
C223 H251 0.931 . S
C224 O238 1.259 . S
C224 O239 1.270 . S
C225 O240 1.251 . S
C225 O241 1.251 . S
C226 Eu227 2.835 1_545 S
C226 C228 1.500 . S
C226 O242 1.257 . S
C226 O243 1.260 1_545 S
Eu227 C226 2.835 1_565 S
Eu227 O239 2.355 1_566 S
Eu227 O241 2.374 1_556 S
Eu227 O242 2.473 1_565 S
Eu227 O243 2.480 . S
Eu227 O244 2.430 . S
Eu227 O245 2.670 1_556 S
Eu227 O246 2.394 1_565 S
C228 C226 1.500 . S
C228 C229 1.377 . S
C228 C233 1.377 . S
C229 C228 1.377 . S
C229 C230 1.395 . S
C229 H252 0.931 1_545 S
C230 C229 1.395 . S
C230 C231 1.383 . S
C230 H253 0.931 . S
C231 C230 1.383 . S
C231 C232 1.394 . S
C232 C231 1.394 . S
C232 C233 1.378 . S
C232 H254 0.931 . S
C233 C228 1.377 . S
C233 C232 1.378 . S
C233 H255 0.931 . S
C234 O244 1.259 1_554 S
C234 O245 1.270 . S
C235 O246 1.251 1_554 S
C235 O247 1.251 . S
O236 C216 1.257 1_565 S
O236 Eu217 2.473 1_565 S
O237 C216 1.260 . S
O237 Eu217 2.480 . S
O238 Eu217 2.430 . S
O238 C224 1.259 . S
O239 Eu217 2.670 . S
O239 C224 1.270 . S
O239 Eu227 2.355 1_544 S
O240 Eu217 2.394 1_565 S
O240 C225 1.251 . S
O241 C225 1.251 . S
O241 Eu227 2.374 1_554 S
O242 C226 1.257 . S
O242 Eu227 2.473 1_545 S
O243 C226 1.260 1_565 S
O243 Eu227 2.480 . S
O244 Eu227 2.430 . S
O244 C234 1.259 1_556 S
O245 Eu217 2.355 1_565 S
O245 Eu227 2.670 1_554 S
O245 C234 1.270 . S
O246 Eu227 2.394 1_545 S
O246 C235 1.251 1_556 S
O247 Eu217 2.374 . S
O247 C235 1.251 . S
H248 C219 0.931 . S
H249 C220 0.900 1_545 S
H250 C222 0.931 . S
H251 C223 0.931 . S
H252 C229 0.931 1_565 S
H253 C230 0.931 . S
H254 C232 0.931 . S
H255 C233 0.931 . S
C256 Eu257 2.835 1_455 S
C256 C258 1.500 . S
C256 O276 1.257 . S
C256 O277 1.260 1_455 S
Eu257 C256 2.835 1_655 S
Eu257 O276 2.473 1_655 S
Eu257 O277 2.480 . S
Eu257 O278 2.430 . S
Eu257 O279 2.670 . S
Eu257 O280 2.394 1_655 S
Eu257 O285 2.355 1_655 S
Eu257 O287 2.374 . S
C258 C256 1.500 . S
C258 C259 1.377 . S
C258 C263 1.377 . S
C259 C258 1.377 . S
C259 C260 1.395 . S
C259 H288 0.931 1_455 S
C260 C259 1.395 . S
C260 C261 1.383 . S
C260 H289 0.931 . S
C261 C260 1.383 . S
C261 C262 1.394 . S
C262 C261 1.394 . S
C262 C263 1.378 . S
C262 H290 0.931 . S
C263 C258 1.377 . S
C263 C262 1.378 . S
C263 H291 0.931 . S
C264 O278 1.259 . S
C264 O279 1.270 . S
C265 O280 1.251 . S
C265 O281 1.251 . S
C266 Eu267 2.835 1_655 S
C266 C268 1.500 . S
C266 O282 1.257 . S
C266 O283 1.260 1_655 S
Eu267 C266 2.835 1_455 S
Eu267 O279 2.355 1_456 S
Eu267 O281 2.374 1_556 S
Eu267 O282 2.473 1_455 S
Eu267 O283 2.480 . S
Eu267 O284 2.430 . S
Eu267 O285 2.670 1_556 S
Eu267 O286 2.394 1_455 S
C268 C266 1.500 . S
C268 C269 1.377 1_655 S
C268 C273 1.377 . S
C269 C268 1.377 1_455 S
C269 C270 1.395 1_455 S
C269 H292 0.931 . S
C270 C269 1.395 1_655 S
C270 C271 1.383 . S
C270 H293 0.931 1_655 S
C271 C270 1.383 . S
C271 C272 1.394 . S
C272 C271 1.394 . S
C272 C273 1.378 . S
C272 H294 0.931 . S
C273 C268 1.377 . S
C273 C272 1.378 . S
C273 H295 0.931 . S
C274 O284 1.259 1_554 S
C274 O285 1.270 . S
C275 O286 1.294 . S
C275 O287 1.181 1_556 S
O276 C256 1.257 . S
O276 Eu257 2.473 1_455 S
O277 C256 1.260 1_655 S
O277 Eu257 2.480 . S
O278 Eu257 2.430 . S
O278 C264 1.259 . S
O279 Eu257 2.670 . S
O279 C264 1.270 . S
O279 Eu267 2.355 1_654 S
O280 Eu257 2.394 1_455 S
O280 C265 1.251 . S
O281 C265 1.251 . S
O281 Eu267 2.374 1_554 S
O282 C266 1.257 . S
O282 Eu267 2.473 1_655 S
O283 C266 1.260 1_455 S
O283 Eu267 2.480 . S
O284 Eu267 2.430 . S
O284 C274 1.259 1_556 S
O285 Eu257 2.355 1_455 S
O285 Eu267 2.670 1_554 S
O285 C274 1.270 . S
O286 Eu267 2.394 1_655 S
O286 C275 1.294 . S
O287 Eu257 2.374 . S
O287 C275 1.181 1_554 S
H288 C259 0.931 1_655 S
H289 C260 0.931 . S
H290 C262 0.931 . S
H291 C263 0.931 . S
H292 C269 0.931 . S
H293 C270 0.931 1_455 S
H294 C272 0.931 . S
H295 C273 0.931 . S
C296 Eu297 2.835 . S
C296 C298 1.500 . S
C296 O316 1.257 . S
C296 O317 1.260 . S
Eu297 C296 2.835 . S
Eu297 O316 2.473 . S
Eu297 O317 2.480 . S
Eu297 O318 2.430 1_556 S
Eu297 O319 2.670 1_556 S
Eu297 O320 2.394 . S
Eu297 O325 2.355 1_556 S
Eu297 O327 2.374 1_556 S
C298 C296 1.500 . S
C298 C299 1.377 . S
C298 C303 1.377 . S
C299 C298 1.377 . S
C299 C300 1.395 . S
C299 H328 0.931 . S
C300 C299 1.395 . S
C300 C301 1.383 . S
C300 H329 0.931 . S
C301 C300 1.383 . S
C301 C302 1.394 . S
C302 C301 1.394 . S
C302 C303 1.378 . S
C302 H330 0.931 . S
C303 C298 1.377 . S
C303 C302 1.378 . S
C303 H331 0.931 . S
C304 O318 1.259 . S
C304 O319 1.270 . S
C305 O320 1.251 1_554 S
C305 O321 1.251 . S
C306 Eu307 2.835 . S
C306 C308 1.500 . S
C306 O322 1.257 . S
C306 O323 1.260 . S
Eu307 C306 2.835 . S
Eu307 O319 2.355 . S
Eu307 O321 2.374 . S
Eu307 O322 2.473 . S
Eu307 O323 2.480 . S
Eu307 O324 2.430 . S
Eu307 O325 2.670 . S
Eu307 O326 2.394 . S
C308 C306 1.500 . S
C308 C309 1.377 . S
C308 C313 1.377 . S
C309 C308 1.377 . S
C309 C310 1.395 . S
C309 H332 0.931 . S
C310 C309 1.395 . S
C310 C311 1.383 . S
C310 H333 0.931 . S
C311 C310 1.383 . S
C311 C312 1.394 . S
C312 C311 1.394 . S
C312 C313 1.378 . S
C312 H334 0.931 . S
C313 C308 1.377 . S
C313 C312 1.378 . S
C313 H335 0.931 . S
C314 O324 1.259 . S
C314 O325 1.270 . S
C315 O326 1.251 . S
C315 O327 1.251 . S
O316 C296 1.257 . S
O316 Eu297 2.473 . S
O317 C296 1.260 . S
O317 Eu297 2.480 . S
O318 Eu297 2.430 1_554 S
O318 C304 1.259 . S
O319 Eu297 2.670 1_554 S
O319 C304 1.270 . S
O319 Eu307 2.355 . S
O320 Eu297 2.394 . S
O320 C305 1.251 1_556 S
O321 C305 1.251 . S
O321 Eu307 2.374 . S
O322 C306 1.257 . S
O322 Eu307 2.473 . S
O323 C306 1.260 . S
O323 Eu307 2.480 . S
O324 Eu307 2.430 . S
O324 C314 1.259 . S
O325 Eu297 2.355 1_554 S
O325 Eu307 2.670 . S
O325 C314 1.270 . S
O326 Eu307 2.394 . S
O326 C315 1.251 . S
O327 Eu297 2.374 1_554 S
O327 C315 1.251 . S
H328 C299 0.931 . S
H329 C300 0.931 . S
H330 C302 0.931 . S
H331 C303 0.931 . S
H332 C309 0.931 . S
H333 C310 0.931 . S
H334 C312 0.931 . S
H335 C313 0.931 . S
C336 Eu337 2.835 . S
C336 C338 1.500 . S
C336 O356 1.257 . S
C336 O357 1.260 . S
Eu337 C336 2.835 . S
Eu337 O356 2.473 . S
Eu337 O357 2.480 . S
Eu337 O358 2.430 . S
Eu337 O359 2.670 . S
Eu337 O360 2.394 . S
Eu337 O365 2.355 . S
Eu337 O367 2.374 . S
C338 C336 1.500 . S
C338 C339 1.377 . S
C338 C343 1.377 . S
C339 C338 1.377 . S
C339 C340 1.395 . S
C339 H368 0.931 . S
C340 C339 1.395 . S
C340 C341 1.383 . S
C340 H369 0.931 . S
C341 C340 1.383 . S
C341 C342 1.394 . S
C342 C341 1.394 . S
C342 C343 1.378 . S
C342 H370 0.931 . S
C343 C338 1.377 . S
C343 C342 1.378 . S
C343 H371 0.931 . S
C344 O358 1.259 . S
C344 O359 1.270 . S
C345 O360 1.251 . S
C345 O361 1.251 . S
C346 Eu347 2.835 . S
C346 C348 1.500 . S
C346 O362 1.257 . S
C346 O363 1.260 . S
Eu347 C346 2.835 . S
Eu347 O359 2.355 . S
Eu347 O361 2.374 . S
Eu347 O362 2.473 . S
Eu347 O363 2.480 . S
Eu347 O364 2.430 . S
Eu347 O365 2.670 . S
Eu347 O366 2.394 . S
C348 C346 1.500 . S
C348 C349 1.377 . S
C348 C353 1.377 . S
C349 C348 1.377 . S
C349 C350 1.395 . S
C349 H372 0.931 . S
C350 C349 1.395 . S
C350 C351 1.383 . S
C350 H373 0.931 . S
C351 C350 1.383 . S
C351 C352 1.394 . S
C352 C351 1.394 . S
C352 C353 1.378 . S
C352 H374 0.931 . S
C353 C348 1.377 . S
C353 C352 1.378 . S
C353 H375 0.931 . S
C354 O364 1.259 . S
C354 O365 1.270 . S
C355 O366 1.251 . S
C355 O367 1.251 . S
O356 C336 1.257 . S
O356 Eu337 2.473 . S
O357 C336 1.260 . S
O357 Eu337 2.480 . S
O358 Eu337 2.430 . S
O358 C344 1.259 . S
O359 Eu337 2.670 . S
O359 C344 1.270 . S
O359 Eu347 2.355 . S
O360 Eu337 2.394 . S
O360 C345 1.251 . S
O361 C345 1.251 . S
O361 Eu347 2.374 . S
O362 C346 1.257 . S
O362 Eu347 2.473 . S
O363 C346 1.260 . S
O363 Eu347 2.480 . S
O364 Eu347 2.430 . S
O364 C354 1.259 . S
O365 Eu337 2.355 . S
O365 Eu347 2.670 . S
O365 C354 1.270 . S
O366 Eu347 2.394 . S
O366 C355 1.251 . S
O367 Eu337 2.374 . S
O367 C355 1.251 . S
H368 C339 0.931 . S
H369 C340 0.931 . S
H370 C342 0.931 . S
H371 C343 0.931 . S
H372 C349 0.931 . S
H373 C350 0.931 . S
H374 C352 0.931 . S
H375 C353 0.931 . S
C376 Eu377 2.835 . S
C376 C378 1.500 . S
C376 O396 1.257 . S
C376 O397 1.260 . S
Eu377 C376 2.835 . S
Eu377 O396 2.473 . S
Eu377 O397 2.480 . S
Eu377 O398 2.430 . S
Eu377 O399 2.670 . S
Eu377 O400 2.394 . S
Eu377 O405 2.355 . S
Eu377 O407 2.374 . S
C378 C376 1.500 . S
C378 C379 1.377 . S
C378 C383 1.377 . S
C379 C378 1.377 . S
C379 C380 1.395 . S
C379 H408 0.931 . S
C380 C379 1.395 . S
C380 C381 1.383 . S
C380 H409 0.931 . S
C381 C380 1.383 . S
C381 C382 1.394 . S
C382 C381 1.394 . S
C382 C383 1.378 . S
C382 H410 0.931 . S
C383 C378 1.377 . S
C383 C382 1.378 . S
C383 H411 0.931 . S
C384 O398 1.259 . S
C384 O399 1.270 . S
C385 O400 1.251 . S
C385 O401 1.251 . S
C386 Eu387 2.835 . S
C386 C388 1.500 . S
C386 O402 1.257 . S
C386 O403 1.260 . S
Eu387 C386 2.835 . S
Eu387 O399 2.355 . S
Eu387 O401 2.374 . S
Eu387 O402 2.473 . S
Eu387 O403 2.480 . S
Eu387 O404 2.430 . S
Eu387 O405 2.670 . S
Eu387 O406 2.394 . S
C388 C386 1.500 . S
C388 C389 1.377 . S
C388 C393 1.377 . S
C389 C388 1.377 . S
C389 C390 1.395 . S
C389 H412 0.931 . S
C390 C389 1.395 . S
C390 C391 1.383 . S
C390 H413 0.931 . S
C391 C390 1.383 . S
C391 C392 1.394 . S
C392 C391 1.394 . S
C392 C393 1.378 . S
C392 H414 0.931 . S
C393 C388 1.377 . S
C393 C392 1.378 . S
C393 H415 0.931 . S
C394 O404 1.259 . S
C394 O405 1.270 . S
C395 O406 1.251 . S
C395 O407 1.251 . S
O396 C376 1.257 . S
O396 Eu377 2.473 . S
O397 C376 1.260 . S
O397 Eu377 2.480 . S
O398 Eu377 2.430 . S
O398 C384 1.259 . S
O399 Eu377 2.670 . S
O399 C384 1.270 . S
O399 Eu387 2.355 . S
O400 Eu377 2.394 . S
O400 C385 1.251 . S
O401 C385 1.251 . S
O401 Eu387 2.374 . S
O402 C386 1.257 . S
O402 Eu387 2.473 . S
O403 C386 1.260 . S
O403 Eu387 2.480 . S
O404 Eu387 2.430 . S
O404 C394 1.259 . S
O405 Eu377 2.355 . S
O405 Eu387 2.670 . S
O405 C394 1.270 . S
O406 Eu387 2.394 . S
O406 C395 1.251 . S
O407 Eu377 2.374 . S
O407 C395 1.251 . S
H408 C379 0.931 . S
H409 C380 0.931 . S
H410 C382 0.931 . S
H411 C383 0.931 . S
H412 C389 0.931 . S
H413 C390 0.931 . S
H414 C392 0.931 . S
H415 C393 0.931 . S
C416 Eu417 2.835 . S
C416 C418 1.500 . S
C416 O436 1.257 . S
C416 O437 1.260 . S
Eu417 C416 2.835 . S
Eu417 O436 2.473 . S
Eu417 O437 2.480 . S
Eu417 O438 2.430 . S
Eu417 O439 2.670 . S
Eu417 O440 2.394 . S
Eu417 O445 2.355 . S
Eu417 O447 2.374 . S
C418 C416 1.500 . S
C418 C419 1.377 . S
C418 C423 1.377 . S
C419 C418 1.377 . S
C419 C420 1.395 . S
C419 H448 0.931 . S
C420 C419 1.395 . S
C420 C421 1.383 . S
C420 H449 0.931 . S
C421 C420 1.383 . S
C421 C422 1.394 . S
C422 C421 1.394 . S
C422 C423 1.378 . S
C422 H450 0.931 . S
C423 C418 1.377 . S
C423 C422 1.378 . S
C423 H451 0.931 . S
C424 O438 1.259 . S
C424 O439 1.270 . S
C425 O440 1.251 . S
C425 O441 1.251 . S
C426 Eu427 2.835 . S
C426 C428 1.500 . S
C426 O442 1.257 . S
C426 O443 1.260 . S
Eu427 C426 2.835 . S
Eu427 O439 2.355 . S
Eu427 O441 2.374 . S
Eu427 O442 2.473 . S
Eu427 O443 2.480 . S
Eu427 O444 2.430 . S
Eu427 O445 2.670 . S
Eu427 O446 2.394 . S
C428 C426 1.500 . S
C428 C429 1.377 . S
C428 C433 1.377 . S
C429 C428 1.377 . S
C429 C430 1.395 . S
C429 H452 0.931 . S
C430 C429 1.395 . S
C430 C431 1.383 . S
C430 H453 0.931 . S
C431 C430 1.383 . S
C431 C432 1.394 . S
C432 C431 1.394 . S
C432 C433 1.378 . S
C432 H454 0.931 . S
C433 C428 1.377 . S
C433 C432 1.378 . S
C433 H455 0.931 . S
C434 O444 1.259 . S
C434 O445 1.270 . S
C435 O446 1.251 . S
C435 O447 1.251 . S
O436 C416 1.257 . S
O436 Eu417 2.473 . S
O437 C416 1.260 . S
O437 Eu417 2.480 . S
O438 Eu417 2.430 . S
O438 C424 1.259 . S
O439 Eu417 2.670 . S
O439 C424 1.270 . S
O439 Eu427 2.355 . S
O440 Eu417 2.394 . S
O440 C425 1.251 . S
O441 C425 1.251 . S
O441 Eu427 2.374 . S
O442 C426 1.257 . S
O442 Eu427 2.473 . S
O443 C426 1.260 . S
O443 Eu427 2.480 . S
O444 Eu427 2.430 . S
O444 C434 1.259 . S
O445 Eu417 2.355 . S
O445 Eu427 2.670 . S
O445 C434 1.270 . S
O446 Eu427 2.394 . S
O446 C435 1.251 . S
O447 Eu417 2.374 . S
O447 C435 1.251 . S
H448 C419 0.931 . S
H449 C420 0.931 . S
H450 C422 0.931 . S
H451 C423 0.931 . S
H452 C429 0.931 . S
H453 C430 0.931 . S
H454 C432 0.931 . S
H455 C433 0.931 . S
C456 Eu457 2.835 . S
C456 C458 1.500 . S
C456 O476 1.257 . S
C456 O477 1.260 . S
Eu457 C456 2.835 . S
Eu457 O476 2.473 . S
Eu457 O477 2.480 . S
Eu457 O478 2.430 . S
Eu457 O479 2.670 . S
Eu457 O480 2.394 . S
Eu457 O485 2.355 . S
Eu457 O487 2.374 . S
C458 C456 1.500 . S
C458 C459 1.377 . S
C458 C463 1.377 . S
C459 C458 1.377 . S
C459 C460 1.395 . S
C459 H488 0.931 . S
C460 C459 1.395 . S
C460 C461 1.383 . S
C460 H489 0.931 . S
C461 C460 1.383 . S
C461 C462 1.394 . S
C462 C461 1.394 . S
C462 C463 1.378 . S
C462 H490 0.931 . S
C463 C458 1.377 . S
C463 C462 1.378 . S
C463 H491 0.931 . S
C464 O478 1.259 . S
C464 O479 1.270 . S
C465 O480 1.251 . S
C465 O481 1.251 . S
C466 Eu467 2.835 . S
C466 C468 1.500 . S
C466 O482 1.257 . S
C466 O483 1.260 . S
Eu467 C466 2.835 . S
Eu467 O479 2.355 . S
Eu467 O481 2.374 . S
Eu467 O482 2.473 . S
Eu467 O483 2.480 . S
Eu467 O484 2.430 . S
Eu467 O485 2.670 . S
Eu467 O486 2.394 . S
C468 C466 1.500 . S
C468 C469 1.377 . S
C468 C473 1.377 . S
C469 C468 1.377 . S
C469 C470 1.395 . S
C469 H492 0.931 . S
C470 C469 1.395 . S
C470 C471 1.383 . S
C470 H493 0.931 . S
C471 C470 1.383 . S
C471 C472 1.394 . S
C472 C471 1.394 . S
C472 C473 1.378 . S
C472 H494 0.931 . S
C473 C468 1.377 . S
C473 C472 1.378 . S
C473 H495 0.931 . S
C474 O484 1.259 . S
C474 O485 1.270 . S
C475 O486 1.251 . S
C475 O487 1.251 . S
O476 C456 1.257 . S
O476 Eu457 2.473 . S
O477 C456 1.260 . S
O477 Eu457 2.480 . S
O478 Eu457 2.430 . S
O478 C464 1.259 . S
O479 Eu457 2.670 . S
O479 C464 1.270 . S
O479 Eu467 2.355 . S
O480 Eu457 2.394 . S
O480 C465 1.251 . S
O481 C465 1.251 . S
O481 Eu467 2.374 . S
O482 C466 1.257 . S
O482 Eu467 2.473 . S
O483 C466 1.260 . S
O483 Eu467 2.480 . S
O484 Eu467 2.430 . S
O484 C474 1.259 . S
O485 Eu457 2.355 . S
O485 Eu467 2.670 . S
O485 C474 1.270 . S
O486 Eu467 2.394 . S
O486 C475 1.251 . S
O487 Eu457 2.374 . S
O487 C475 1.251 . S
H488 C459 0.931 . S
H489 C460 0.931 . S
H490 C462 0.931 . S
H491 C463 0.931 . S
H492 C469 0.931 . S
H493 C470 0.931 . S
H494 C472 0.931 . S
H495 C473 0.931 . S
C496 Eu497 2.835 . S
C496 C498 1.500 . S
C496 O516 1.257 . S
C496 O517 1.260 . S
Eu497 C496 2.835 . S
Eu497 O516 2.473 . S
Eu497 O517 2.480 . S
Eu497 O518 2.430 . S
Eu497 O519 2.670 . S
Eu497 O520 2.394 . S
Eu497 O525 2.355 . S
Eu497 O527 2.374 . S
C498 C496 1.500 . S
C498 C499 1.377 . S
C498 C503 1.377 . S
C499 C498 1.377 . S
C499 C500 1.395 . S
C499 H528 0.931 . S
C500 C499 1.395 . S
C500 C501 1.383 . S
C500 H529 0.931 . S
C501 C500 1.383 . S
C501 C502 1.394 . S
C502 C501 1.394 . S
C502 C503 1.378 . S
C502 H530 0.931 . S
C503 C498 1.377 . S
C503 C502 1.378 . S
C503 H531 0.931 . S
C504 O518 1.259 . S
C504 O519 1.270 . S
C505 O520 1.251 . S
C505 O521 1.251 . S
C506 Eu507 2.835 . S
C506 C508 1.500 . S
C506 O522 1.257 . S
C506 O523 1.260 . S
Eu507 C506 2.835 . S
Eu507 O519 2.355 . S
Eu507 O521 2.374 . S
Eu507 O522 2.473 . S
Eu507 O523 2.480 . S
Eu507 O524 2.430 . S
Eu507 O525 2.670 . S
Eu507 O526 2.394 . S
C508 C506 1.500 . S
C508 C509 1.377 . S
C508 C513 1.377 . S
C509 C508 1.377 . S
C509 C510 1.395 . S
C509 H532 0.931 . S
C510 C509 1.395 . S
C510 C511 1.383 . S
C510 H533 0.931 . S
C511 C510 1.383 . S
C511 C512 1.394 . S
C512 C511 1.394 . S
C512 C513 1.378 . S
C512 H534 0.931 . S
C513 C508 1.377 . S
C513 C512 1.378 . S
C513 H535 0.931 . S
C514 O524 1.259 . S
C514 O525 1.270 . S
C515 O526 1.251 . S
C515 O527 1.251 . S
O516 C496 1.257 . S
O516 Eu497 2.473 . S
O517 C496 1.260 . S
O517 Eu497 2.480 . S
O518 Eu497 2.430 . S
O518 C504 1.259 . S
O519 Eu497 2.670 . S
O519 C504 1.270 . S
O519 Eu507 2.355 . S
O520 Eu497 2.394 . S
O520 C505 1.251 . S
O521 C505 1.251 . S
O521 Eu507 2.374 . S
O522 C506 1.257 . S
O522 Eu507 2.473 . S
O523 C506 1.260 . S
O523 Eu507 2.480 . S
O524 Eu507 2.430 . S
O524 C514 1.259 . S
O525 Eu497 2.355 . S
O525 Eu507 2.670 . S
O525 C514 1.270 . S
O526 Eu507 2.394 . S
O526 C515 1.251 . S
O527 Eu497 2.374 . S
O527 C515 1.251 . S
H528 C499 0.931 . S
H529 C500 0.931 . S
H530 C502 0.931 . S
H531 C503 0.931 . S
H532 C509 0.931 . S
H533 C510 0.931 . S
H534 C512 0.931 . S
H535 C513 0.931 . S
C536 Eu537 2.835 . S
C536 C538 1.500 . S
C536 O556 1.257 . S
C536 O557 1.260 . S
Eu537 C536 2.835 . S
Eu537 O556 2.473 . S
Eu537 O557 2.480 . S
Eu537 O558 2.430 . S
Eu537 O559 2.670 . S
Eu537 O560 2.394 . S
Eu537 O565 2.355 . S
Eu537 O567 2.374 . S
C538 C536 1.500 . S
C538 C539 1.377 . S
C538 C543 1.377 . S
C539 C538 1.377 . S
C539 C540 1.395 . S
C539 H568 0.931 . S
C540 C539 1.395 . S
C540 C541 1.383 . S
C540 H569 0.931 . S
C541 C540 1.383 . S
C541 C542 1.394 . S
C542 C541 1.394 . S
C542 C543 1.378 . S
C542 H570 0.931 . S
C543 C538 1.377 . S
C543 C542 1.378 . S
C543 H571 0.931 . S
C544 O558 1.259 . S
C544 O559 1.270 . S
C545 O560 1.251 . S
C545 O561 1.251 . S
C546 Eu547 2.835 . S
C546 C548 1.500 . S
C546 O562 1.257 . S
C546 O563 1.260 . S
Eu547 C546 2.835 . S
Eu547 O559 2.355 . S
Eu547 O561 2.374 . S
Eu547 O562 2.473 . S
Eu547 O563 2.480 . S
Eu547 O564 2.430 . S
Eu547 O565 2.670 . S
Eu547 O566 2.394 . S
C548 C546 1.500 . S
C548 C549 1.377 . S
C548 C553 1.377 . S
C549 C548 1.377 . S
C549 C550 1.395 . S
C549 H572 0.931 . S
C550 C549 1.395 . S
C550 C551 1.383 . S
C550 H573 0.931 . S
C551 C550 1.383 . S
C551 C552 1.394 . S
C552 C551 1.394 . S
C552 C553 1.378 . S
C552 H574 0.931 . S
C553 C548 1.377 . S
C553 C552 1.378 . S
C553 H575 0.931 . S
C554 O564 1.259 . S
C554 O565 1.270 . S
C555 O566 1.251 . S
C555 O567 1.251 . S
O556 C536 1.257 . S
O556 Eu537 2.473 . S
O557 C536 1.260 . S
O557 Eu537 2.480 . S
O558 Eu537 2.430 . S
O558 C544 1.259 . S
O559 Eu537 2.670 . S
O559 C544 1.270 . S
O559 Eu547 2.355 . S
O560 Eu537 2.394 . S
O560 C545 1.251 . S
O561 C545 1.251 . S
O561 Eu547 2.374 . S
O562 C546 1.257 . S
O562 Eu547 2.473 . S
O563 C546 1.260 . S
O563 Eu547 2.480 . S
O564 Eu547 2.430 . S
O564 C554 1.259 . S
O565 Eu537 2.355 . S
O565 Eu547 2.670 . S
O565 C554 1.270 . S
O566 Eu547 2.394 . S
O566 C555 1.251 . S
O567 Eu537 2.374 . S
O567 C555 1.251 . S
H568 C539 0.931 . S
H569 C540 0.931 . S
H570 C542 0.931 . S
H571 C543 0.931 . S
H572 C549 0.931 . S
H573 C550 0.931 . S
H574 C552 0.931 . S
H575 C553 0.931 . S
H576 C594 0.951 . S
H577 C596 0.951 . S
H578 C598 0.950 . S
H579 C599 0.950 . S
H580 C601 0.950 . S
H581 C604 0.950 . S
H582 C605 0.935 1_556 S
H583 C607 0.950 . S
H584 C608 0.950 . S
H585 C609 0.951 . S
H586 C611 0.951 . S
H587 C613 0.950 . S
H588 C614 0.950 . S
H589 C616 0.950 . S
H590 C619 0.950 . S
H591 C620 0.950 . S
H592 C622 0.950 . S
H593 C623 0.950 . S
C594 H576 0.951 . S
C594 C595 1.366 . S
C594 C596 1.388 . S
C595 C594 1.366 . S
C595 C599 1.385 . S
C596 H577 0.951 . S
C596 C594 1.388 . S
C596 C597 1.366 . S
C597 C596 1.366 . S
C597 C598 1.414 . S
C597 C600 1.499 . S
C598 H578 0.950 . S
C598 C597 1.414 . S
C598 C599 1.374 . S
C599 H579 0.950 . S
C599 C595 1.385 . S
C599 C598 1.374 . S
C600 C597 1.499 . S
C600 C601 1.373 . S
C600 C602 1.389 . S
C601 H580 0.950 . S
C601 C600 1.373 . S
C601 C617 1.377 . S
C602 C600 1.389 . S
C602 C603 1.524 . S
C602 C616 1.377 . S
C603 C602 1.524 . S
C603 C604 1.397 . S
C603 C608 1.363 . S
C604 H581 0.950 . S
C604 C603 1.397 . S
C604 C605 1.363 . S
C605 H582 0.935 1_554 S
C605 C604 1.363 . S
C605 C606 1.277 1_554 S
C606 C605 1.277 1_556 S
C606 C607 1.524 1_556 S
C606 H625 0.913 . S
C607 H583 0.950 . S
C607 C606 1.524 1_554 S
C607 C608 1.415 . S
C608 H584 0.950 . S
C608 C603 1.363 . S
C608 C607 1.415 . S
C609 H585 0.951 . S
C609 C610 1.366 . S
C609 C611 1.388 . S
C610 C609 1.366 . S
C610 C614 1.385 . S
C611 H586 0.951 . S
C611 C609 1.388 . S
C611 C612 1.366 . S
C612 C611 1.366 . S
C612 C613 1.414 . S
C612 C615 1.499 . S
C613 H587 0.950 . S
C613 C612 1.414 . S
C613 C614 1.374 . S
C614 H588 0.950 . S
C614 C610 1.385 . S
C614 C613 1.374 . S
C615 C612 1.499 . S
C615 C616 1.373 . S
C615 C617 1.389 . S
C616 H589 0.950 . S
C616 C602 1.377 . S
C616 C615 1.373 . S
C617 C601 1.377 . S
C617 C615 1.389 . S
C617 C618 1.524 . S
C618 C617 1.524 . S
C618 C619 1.397 . S
C618 C623 1.363 . S
C619 H590 0.950 . S
C619 C618 1.397 . S
C619 C620 1.334 . S
C620 H591 0.950 . S
C620 C619 1.334 . S
C620 C621 1.287 . S
C621 C620 1.287 . S
C621 C622 1.524 . S
C621 H624 0.999 . S
C622 H592 0.950 . S
C622 C621 1.524 . S
C622 C623 1.415 . S
C623 H593 0.950 . S
C623 C618 1.363 . S
C623 C622 1.415 . S
H624 C621 0.999 . S
H625 C606 0.913 . S
H626 C644 0.951 . S
H627 C646 0.951 . S
H628 C648 0.950 . S
H629 C649 0.950 . S
H630 C651 0.950 . S
H631 C654 0.950 . S
H632 C655 0.950 . S
H633 C657 0.950 . S
H634 C658 0.950 . S
H635 C659 0.951 . S
H636 C661 0.951 . S
H637 C663 0.950 . S
H638 C664 0.950 . S
H639 C666 0.950 . S
H640 C669 0.950 . S
H641 C670 0.950 . S
H642 C672 0.950 . S
H643 C673 0.950 . S
C644 H626 0.951 . S
C644 C645 1.366 . S
C644 C646 1.388 . S
C645 C644 1.366 . S
C645 C649 1.385 . S
C646 H627 0.951 . S
C646 C644 1.388 . S
C646 C647 1.366 . S
C647 C646 1.366 . S
C647 C648 1.414 . S
C647 C650 1.499 . S
C648 H628 0.950 . S
C648 C647 1.414 . S
C648 C649 1.374 . S
C649 H629 0.950 . S
C649 C645 1.385 . S
C649 C648 1.374 . S
C650 C647 1.499 . S
C650 C651 1.373 . S
C650 C652 1.389 . S
C651 H630 0.950 . S
C651 C650 1.373 . S
C651 C667 1.377 . S
C652 C650 1.389 . S
C652 C653 1.524 . S
C652 C666 1.377 . S
C653 C652 1.524 . S
C653 C654 1.397 . S
C653 C658 1.363 . S
C654 H631 0.950 . S
C654 C653 1.397 . S
C654 C655 1.334 . S
C655 H632 0.950 . S
C655 C654 1.334 . S
C655 C656 1.287 . S
C656 C655 1.287 . S
C656 C657 1.524 . S
C656 H675 0.913 . S
C657 H633 0.950 . S
C657 C656 1.524 . S
C657 C658 1.415 . S
C658 H634 0.950 . S
C658 C653 1.363 . S
C658 C657 1.415 . S
C659 H635 0.951 . S
C659 C660 1.366 . S
C659 C661 1.388 . S
C660 C659 1.366 . S
C660 C664 1.385 . S
C661 H636 0.951 . S
C661 C659 1.388 . S
C661 C662 1.366 . S
C662 C661 1.366 . S
C662 C663 1.414 . S
C662 C665 1.499 . S
C663 H637 0.950 . S
C663 C662 1.414 . S
C663 C664 1.374 . S
C664 H638 0.950 . S
C664 C660 1.385 . S
C664 C663 1.374 . S
C665 C662 1.499 . S
C665 C666 1.373 . S
C665 C667 1.389 . S
C666 H639 0.950 . S
C666 C652 1.377 . S
C666 C665 1.373 . S
C667 C651 1.377 . S
C667 C665 1.389 . S
C667 C668 1.524 . S
C668 C667 1.524 . S
C668 C669 1.397 . S
C668 C673 1.363 . S
C669 H640 0.950 . S
C669 C668 1.397 . S
C669 C670 1.334 . S
C670 H641 0.950 . S
C670 C669 1.334 . S
C670 C671 1.287 . S
C671 C670 1.287 . S
C671 C672 1.524 . S
C671 H674 0.999 . S
C672 H642 0.950 . S
C672 C671 1.524 . S
C672 C673 1.415 . S
C673 H643 0.950 . S
C673 C668 1.363 . S
C673 C672 1.415 . S
H674 C671 0.999 . S
H675 C656 0.913 . S
H676 C694 0.951 . S
H677 C696 0.951 . S
H678 C698 0.950 . S
H679 C699 0.950 . S
H680 C701 0.950 . S
H681 C704 0.950 . S
H682 C705 0.950 . S
H683 C707 0.950 . S
H684 C708 0.950 . S
H685 C709 0.951 . S
H686 C711 0.951 . S
H687 C713 0.950 . S
H688 C714 0.950 . S
H689 C716 0.950 . S
H690 C719 0.950 . S
H691 C720 0.950 . S
H692 C722 0.950 . S
H693 C723 0.950 . S
C694 H676 0.951 . S
C694 C695 1.366 . S
C694 C696 1.388 . S
C695 C694 1.366 . S
C695 C699 1.385 . S
C696 H677 0.951 . S
C696 C694 1.388 . S
C696 C697 1.366 . S
C697 C696 1.366 . S
C697 C698 1.414 . S
C697 C700 1.499 . S
C698 H678 0.950 . S
C698 C697 1.414 . S
C698 C699 1.374 . S
C699 H679 0.950 . S
C699 C695 1.385 . S
C699 C698 1.374 . S
C700 C697 1.499 . S
C700 C701 1.373 . S
C700 C702 1.389 . S
C701 H680 0.950 . S
C701 C700 1.373 . S
C701 C717 1.377 . S
C702 C700 1.389 . S
C702 C703 1.524 . S
C702 C716 1.377 . S
C703 C702 1.524 . S
C703 C704 1.397 . S
C703 C708 1.363 . S
C704 H681 0.950 . S
C704 C703 1.397 . S
C704 C705 1.334 . S
C705 H682 0.950 . S
C705 C704 1.334 . S
C705 C706 1.287 . S
C706 C705 1.287 . S
C706 C707 1.524 . S
C706 H725 0.913 . S
C707 H683 0.950 . S
C707 C706 1.524 . S
C707 C708 1.415 . S
C708 H684 0.950 . S
C708 C703 1.363 . S
C708 C707 1.415 . S
C709 H685 0.951 . S
C709 C710 1.366 . S
C709 C711 1.388 . S
C710 C709 1.366 . S
C710 C714 1.385 . S
C711 H686 0.951 . S
C711 C709 1.388 . S
C711 C712 1.366 . S
C712 C711 1.366 . S
C712 C713 1.414 . S
C712 C715 1.499 . S
C713 H687 0.950 . S
C713 C712 1.414 . S
C713 C714 1.374 . S
C714 H688 0.950 . S
C714 C710 1.385 . S
C714 C713 1.374 . S
C715 C712 1.499 . S
C715 C716 1.373 . S
C715 C717 1.389 . S
C716 H689 0.950 . S
C716 C702 1.377 . S
C716 C715 1.373 . S
C717 C701 1.377 . S
C717 C715 1.389 . S
C717 C718 1.524 . S
C718 C717 1.524 . S
C718 C719 1.397 . S
C718 C723 1.363 1_554 S
C719 H690 0.950 . S
C719 C718 1.397 . S
C719 C720 1.334 1_554 S
C720 H691 0.950 . S
C720 C719 1.334 1_556 S
C720 C721 1.287 . S
C721 C720 1.287 . S
C721 C722 1.524 . S
C721 H724 0.999 . S
C722 H692 0.950 . S
C722 C721 1.524 . S
C722 C723 1.415 . S
C723 H693 0.950 . S
C723 C718 1.363 1_556 S
C723 C722 1.415 . S
H724 C721 0.999 . S
H725 C706 0.913 . S
H726 C744 0.951 . S
H727 C746 0.951 . S
H728 C748 0.950 . S
H729 C749 0.950 . S
H730 C751 0.950 . S
H731 C754 0.950 . S
H732 C755 0.950 . S
H733 C757 0.950 . S
H734 C758 0.950 . S
H735 C759 0.951 . S
H736 C761 0.951 . S
H737 C763 0.950 . S
H738 C764 0.950 . S
H739 C766 0.941 1_554 S
H740 C769 0.950 . S
H741 C770 0.950 . S
H742 C772 0.950 . S
H743 C773 0.950 . S
C744 H726 0.951 . S
C744 C745 1.366 . S
C744 C746 1.388 . S
C745 C744 1.366 . S
C745 C749 1.385 . S
C746 H727 0.951 . S
C746 C744 1.388 . S
C746 C747 1.366 . S
C747 C746 1.366 . S
C747 C748 1.414 . S
C747 C750 1.499 . S
C748 H728 0.950 . S
C748 C747 1.414 . S
C748 C749 1.374 . S
C749 H729 0.950 . S
C749 C745 1.385 . S
C749 C748 1.374 . S
C750 C747 1.499 . S
C750 C751 1.373 . S
C750 C752 1.389 . S
C751 H730 0.950 . S
C751 C750 1.373 . S
C751 C767 1.377 . S
C752 C750 1.389 . S
C752 C753 1.524 1_556 S
C752 C766 1.377 . S
C753 C752 1.524 1_554 S
C753 C754 1.397 . S
C753 C758 1.363 . S
C754 H731 0.950 . S
C754 C753 1.397 . S
C754 C755 1.334 . S
C755 H732 0.950 . S
C755 C754 1.334 . S
C755 C756 1.287 . S
C756 C755 1.287 . S
C756 C757 1.524 . S
C756 H775 0.913 . S
C757 H733 0.950 . S
C757 C756 1.524 . S
C757 C758 1.415 . S
C758 H734 0.950 . S
C758 C753 1.363 . S
C758 C757 1.415 . S
C759 H735 0.951 . S
C759 C760 1.337 1_556 S
C759 C761 1.388 . S
C760 C759 1.337 1_554 S
C760 C764 1.407 . S
C761 H736 0.951 . S
C761 C759 1.388 . S
C761 C762 1.366 . S
C762 C761 1.366 . S
C762 C763 1.414 1_556 S
C762 C765 1.499 . S
C763 H737 0.950 . S
C763 C762 1.414 1_554 S
C763 C764 1.374 . S
C764 H738 0.950 . S
C764 C760 1.407 . S
C764 C763 1.374 . S
C765 C762 1.499 . S
C765 C766 1.381 . S
C765 C767 1.389 . S
C766 H739 0.941 1_556 S
C766 C752 1.377 . S
C766 C765 1.381 . S
C767 C751 1.377 . S
C767 C765 1.389 . S
C767 C768 1.524 . S
C768 C767 1.524 . S
C768 C769 1.397 . S
C768 C773 1.363 . S
C769 H740 0.950 . S
C769 C768 1.397 . S
C769 C770 1.334 . S
C770 H741 0.950 . S
C770 C769 1.334 . S
C770 C771 1.287 . S
C771 C770 1.287 . S
C771 C772 1.524 . S
C771 H774 0.999 . S
C772 H742 0.950 . S
C772 C771 1.524 . S
C772 C773 1.415 . S
C773 H743 0.950 . S
C773 C768 1.363 . S
C773 C772 1.415 . S
H774 C771 0.999 . S
H775 C756 0.913 . S
H776 C794 0.951 . S
H777 C796 0.951 . S
H778 C798 0.950 . S
H779 C799 0.950 . S
H780 C801 0.950 . S
H781 C804 0.950 . S
H782 C805 0.950 . S
H783 C807 0.950 . S
H784 C808 0.950 . S
H785 C809 0.951 . S
H786 C811 0.951 . S
H787 C813 0.950 . S
H788 C814 0.952 1_554 S
H789 C816 0.950 . S
H790 C819 0.950 . S
H791 C820 0.950 . S
H792 C822 0.950 . S
H793 C823 0.950 . S
C794 H776 0.951 . S
C794 C795 1.366 . S
C794 C796 1.388 . S
C795 C794 1.366 . S
C795 C799 1.385 . S
C796 H777 0.951 . S
C796 C794 1.388 . S
C796 C797 1.366 . S
C797 C796 1.366 . S
C797 C798 1.414 . S
C797 C800 1.499 . S
C798 H778 0.950 . S
C798 C797 1.414 . S
C798 C799 1.374 . S
C799 H779 0.950 . S
C799 C795 1.385 . S
C799 C798 1.374 . S
C800 C797 1.499 . S
C800 C801 1.373 . S
C800 C802 1.389 . S
C801 H780 0.950 . S
C801 C800 1.373 . S
C801 C817 1.377 . S
C802 C800 1.389 . S
C802 C803 1.524 . S
C802 C816 1.377 . S
C803 C802 1.524 . S
C803 C804 1.397 . S
C803 C808 1.363 . S
C804 H781 0.950 . S
C804 C803 1.397 . S
C804 C805 1.334 . S
C805 H782 0.950 . S
C805 C804 1.334 . S
C805 C806 1.287 . S
C806 C805 1.287 . S
C806 C807 1.524 . S
C806 H825 0.913 . S
C807 H783 0.950 . S
C807 C806 1.524 . S
C807 C808 1.415 . S
C808 H784 0.950 . S
C808 C803 1.363 . S
C808 C807 1.415 . S
C809 H785 0.951 . S
C809 C810 1.366 . S
C809 C811 1.388 . S
C810 C809 1.366 . S
C810 C814 1.384 . S
C811 H786 0.951 . S
C811 C809 1.388 . S
C811 C812 1.366 . S
C812 C811 1.366 . S
C812 C813 1.414 . S
C812 C815 1.499 . S
C813 H787 0.950 . S
C813 C812 1.414 . S
C813 C814 1.372 . S
C814 H788 0.952 1_556 S
C814 C810 1.384 . S
C814 C813 1.372 . S
C815 C812 1.499 . S
C815 C816 1.373 . S
C815 C817 1.389 . S
C816 H789 0.950 . S
C816 C802 1.377 . S
C816 C815 1.373 . S
C817 C801 1.377 . S
C817 C815 1.389 . S
C817 C818 1.524 . S
C818 C817 1.524 . S
C818 C819 1.397 1_556 S
C818 C823 1.363 . S
C819 H790 0.950 . S
C819 C818 1.397 1_554 S
C819 C820 1.334 . S
C820 H791 0.950 . S
C820 C819 1.334 . S
C820 C821 1.287 . S
C821 C820 1.287 . S
C821 C822 1.524 . S
C821 H824 0.999 . S
C822 H792 0.950 . S
C822 C821 1.524 . S
C822 C823 1.415 1_554 S
C823 H793 0.950 . S
C823 C818 1.363 . S
C823 C822 1.415 1_556 S
H824 C821 0.999 . S
H825 C806 0.913 . S
H826 C844 0.951 . S
H827 C846 0.951 . S
H828 C848 0.950 . S
H829 C849 0.950 . S
H830 C851 0.950 . S
H831 C854 0.950 . S
H832 C855 0.950 . S
H833 C857 0.950 . S
H834 C858 0.950 . S
H835 C859 0.951 . S
H836 C861 0.957 . S
H837 C863 0.950 . S
H838 C864 0.950 . S
H839 C866 0.950 . S
H840 C869 0.950 . S
H841 C870 0.950 . S
H842 C872 0.950 . S
H843 C873 0.950 . S
C844 H826 0.951 . S
C844 C845 1.366 . S
C844 C846 1.388 . S
C845 C844 1.366 . S
C845 C849 1.385 . S
C846 H827 0.951 . S
C846 C844 1.388 . S
C846 C847 1.366 . S
C847 C846 1.366 . S
C847 C848 1.414 . S
C847 C850 1.499 . S
C848 H828 0.950 . S
C848 C847 1.414 . S
C848 C849 1.374 . S
C849 H829 0.950 . S
C849 C845 1.385 . S
C849 C848 1.374 . S
C850 C847 1.499 . S
C850 C851 1.373 . S
C850 C852 1.389 1_556 S
C851 H830 0.950 . S
C851 C850 1.373 . S
C851 C867 1.377 . S
C852 C850 1.389 1_554 S
C852 C853 1.524 . S
C852 C866 1.377 . S
C853 C852 1.524 . S
C853 C854 1.397 . S
C853 C858 1.363 . S
C854 H831 0.950 . S
C854 C853 1.397 . S
C854 C855 1.334 . S
C855 H832 0.950 . S
C855 C854 1.334 . S
C855 C856 1.287 . S
C856 C855 1.287 . S
C856 C857 1.524 . S
C856 H875 0.913 . S
C857 H833 0.950 . S
C857 C856 1.524 . S
C857 C858 1.415 . S
C858 H834 0.950 . S
C858 C853 1.363 . S
C858 C857 1.415 . S
C859 H835 0.951 . S
C859 C860 1.366 . S
C859 C861 1.383 1_554 S
C860 C859 1.366 . S
C860 C864 1.385 . S
C861 H836 0.957 . S
C861 C859 1.383 1_556 S
C861 C862 1.365 . S
C862 C861 1.365 . S
C862 C863 1.414 1_556 S
C862 C865 1.499 . S
C863 H837 0.950 . S
C863 C862 1.414 1_554 S
C863 C864 1.374 . S
C864 H838 0.950 . S
C864 C860 1.385 . S
C864 C863 1.374 . S
C865 C862 1.499 . S
C865 C866 1.373 1_556 S
C865 C867 1.389 . S
C866 H839 0.950 . S
C866 C852 1.377 . S
C866 C865 1.373 1_554 S
C867 C851 1.377 . S
C867 C865 1.389 . S
C867 C868 1.524 . S
C868 C867 1.524 . S
C868 C869 1.397 . S
C868 C873 1.363 . S
C869 H840 0.950 . S
C869 C868 1.397 . S
C869 C870 1.334 . S
C870 H841 0.950 . S
C870 C869 1.334 . S
C870 C871 1.287 . S
C871 C870 1.287 . S
C871 C872 1.524 . S
C871 H874 0.999 . S
C872 H842 0.950 . S
C872 C871 1.524 . S
C872 C873 1.415 . S
C873 H843 0.950 . S
C873 C868 1.363 . S
C873 C872 1.415 . S
H874 C871 0.999 . S
H875 C856 0.913 . S
H876 C894 0.951 . S
H877 C896 0.951 . S
H878 C898 0.950 . S
H879 C899 0.950 . S
H880 C901 0.950 1_554 S
H881 C904 0.950 . S
H882 C905 0.950 . S
H883 C907 0.950 . S
H884 C908 0.950 . S
H885 C909 0.951 1_554 S
H886 C911 0.951 . S
H887 C913 0.950 . S
H888 C914 0.950 . S
H889 C916 0.950 . S
H890 C919 0.950 . S
H891 C920 0.950 . S
H892 C922 0.950 . S
H893 C923 0.950 . S
C894 H876 0.951 . S
C894 C895 1.366 . S
C894 C896 1.388 . S
C895 C894 1.366 . S
C895 C899 1.385 . S
C896 H877 0.951 . S
C896 C894 1.388 . S
C896 C897 1.366 . S
C897 C896 1.366 . S
C897 C898 1.414 . S
C897 C900 1.499 . S
C898 H878 0.950 . S
C898 C897 1.414 . S
C898 C899 1.374 . S
C899 H879 0.950 . S
C899 C895 1.385 . S
C899 C898 1.374 . S
C900 C897 1.499 . S
C900 C901 1.373 . S
C900 C902 1.389 . S
C901 H880 0.950 1_556 S
C901 C900 1.373 . S
C901 C917 1.404 . S
C902 C900 1.389 . S
C902 C903 1.524 . S
C902 C916 1.377 . S
C903 C902 1.524 . S
C903 C904 1.397 . S
C903 C908 1.363 . S
C904 H881 0.950 . S
C904 C903 1.397 . S
C904 C905 1.334 . S
C905 H882 0.950 . S
C905 C904 1.334 . S
C905 C906 1.287 . S
C906 C905 1.287 . S
C906 C907 1.524 . S
C906 H925 0.913 . S
C907 H883 0.950 . S
C907 C906 1.524 . S
C907 C908 1.415 . S
C908 H884 0.950 . S
C908 C903 1.363 . S
C908 C907 1.415 . S
C909 H885 0.951 1_556 S
C909 C910 1.366 . S
C909 C911 1.387 . S
C910 C909 1.366 . S
C910 C914 1.385 . S
C911 H886 0.951 . S
C911 C909 1.387 . S
C911 C912 1.366 . S
C912 C911 1.366 . S
C912 C913 1.414 . S
C912 C915 1.499 . S
C913 H887 0.950 . S
C913 C912 1.414 . S
C913 C914 1.374 . S
C914 H888 0.950 . S
C914 C910 1.385 . S
C914 C913 1.374 . S
C915 C912 1.499 . S
C915 C916 1.373 . S
C915 C917 1.429 . S
C916 H889 0.950 . S
C916 C902 1.377 . S
C916 C915 1.373 . S
C917 C901 1.404 . S
C917 C915 1.429 . S
C917 C918 1.457 1_556 S
C918 C917 1.457 1_554 S
C918 C919 1.397 . S
C918 C923 1.363 . S
C919 H890 0.950 . S
C919 C918 1.397 . S
C919 C920 1.334 . S
C920 H891 0.950 . S
C920 C919 1.334 . S
C920 C921 1.287 . S
C921 C920 1.287 . S
C921 C922 1.524 . S
C921 H924 0.999 . S
C922 H892 0.950 . S
C922 C921 1.524 . S
C922 C923 1.415 . S
C923 H893 0.950 . S
C923 C918 1.363 . S
C923 C922 1.415 . S
H924 C921 0.999 . S
H925 C906 0.913 . S
H926 C944 0.951 . S
H927 C946 0.951 . S
H928 C948 0.950 . S
H929 C949 0.950 . S
H930 C951 0.950 . S
H931 C954 0.950 . S
H932 C955 0.950 . S
H933 C957 0.950 . S
H934 C958 0.950 . S
H935 C959 0.951 . S
H936 C961 0.951 . S
H937 C963 0.950 . S
H938 C964 0.950 . S
H939 C966 0.950 . S
H940 C969 0.950 . S
H941 C970 0.950 . S
H942 C972 0.950 . S
H943 C973 0.950 . S
C944 H926 0.951 . S
C944 C945 1.366 . S
C944 C946 1.388 . S
C945 C944 1.366 . S
C945 C949 1.385 . S
C946 H927 0.951 . S
C946 C944 1.388 . S
C946 C947 1.366 . S
C947 C946 1.366 . S
C947 C948 1.414 . S
C947 C950 1.499 . S
C948 H928 0.950 . S
C948 C947 1.414 . S
C948 C949 1.374 . S
C949 H929 0.950 . S
C949 C945 1.385 . S
C949 C948 1.374 . S
C950 C947 1.499 . S
C950 C951 1.373 . S
C950 C952 1.389 . S
C951 H930 0.950 . S
C951 C950 1.373 . S
C951 C967 1.377 . S
C952 C950 1.389 . S
C952 C953 1.524 . S
C952 C966 1.377 . S
C953 C952 1.524 . S
C953 C954 1.397 1_556 S
C953 C958 1.363 . S
C954 H931 0.950 . S
C954 C953 1.397 1_554 S
C954 C955 1.334 . S
C955 H932 0.950 . S
C955 C954 1.334 . S
C955 C956 1.287 . S
C956 C955 1.287 . S
C956 C957 1.524 . S
C956 H975 0.913 . S
C957 H933 0.950 . S
C957 C956 1.524 . S
C957 C958 1.415 1_554 S
C958 H934 0.950 . S
C958 C953 1.363 . S
C958 C957 1.415 1_556 S
C959 H935 0.951 . S
C959 C960 1.366 . S
C959 C961 1.388 . S
C960 C959 1.366 . S
C960 C964 1.385 . S
C961 H936 0.951 . S
C961 C959 1.388 . S
C961 C962 1.366 . S
C962 C961 1.366 . S
C962 C963 1.414 . S
C962 C965 1.499 . S
C963 H937 0.950 . S
C963 C962 1.414 . S
C963 C964 1.374 . S
C964 H938 0.950 . S
C964 C960 1.385 . S
C964 C963 1.374 . S
C965 C962 1.499 . S
C965 C966 1.373 . S
C965 C967 1.389 . S
C966 H939 0.950 . S
C966 C952 1.377 . S
C966 C965 1.373 . S
C967 C951 1.377 . S
C967 C965 1.389 . S
C967 C968 1.524 . S
C968 C967 1.524 . S
C968 C969 1.397 . S
C968 C973 1.363 . S
C969 H940 0.950 . S
C969 C968 1.397 . S
C969 C970 1.334 . S
C970 H941 0.950 . S
C970 C969 1.334 . S
C970 C971 1.287 . S
C971 C970 1.287 . S
C971 C972 1.524 . S
C971 H974 0.999 . S
C972 H942 0.950 . S
C972 C971 1.524 . S
C972 C973 1.415 . S
C973 H943 0.950 . S
C973 C968 1.363 . S
C973 C972 1.415 . S
H974 C971 0.999 . S
H975 C956 0.913 . S
H976 C994 0.951 . S
H977 C996 0.951 . S
H978 C998 0.944 1_554 S
H979 C999 0.950 . S
H980 C1001 0.950 . S
H981 C1004 0.950 . S
H982 C1005 0.950 . S
H983 C1007 0.950 . S
H984 C1008 0.950 . S
H985 C1009 0.951 . S
H986 C1011 0.951 . S
H987 C1013 0.950 1_556 S
H988 C1014 0.950 . S
H989 C1016 0.950 . S
H990 C1019 0.950 . S
H991 C1020 0.950 . S
H992 C1022 0.950 . S
H993 C1023 0.950 . S
C994 H976 0.951 . S
C994 C995 1.366 . S
C994 C996 1.388 . S
C995 C994 1.366 . S
C995 C999 1.385 . S
C996 H977 0.951 . S
C996 C994 1.388 . S
C996 C997 1.366 . S
C997 C996 1.366 . S
C997 C998 1.414 . S
C997 C1000 1.499 . S
C998 H978 0.944 1_556 S
C998 C997 1.414 . S
C998 C999 1.374 . S
C999 H979 0.950 . S
C999 C995 1.385 . S
C999 C998 1.374 . S
C1000 C997 1.499 . S
C1000 C1001 1.373 1_556 S
C1000 C1002 1.389 . S
C1001 H980 0.950 . S
C1001 C1000 1.373 1_554 S
C1001 C1017 1.377 . S
C1002 C1000 1.389 . S
C1002 C1003 1.524 . S
C1002 C1016 1.377 . S
C1003 C1002 1.524 . S
C1003 C1004 1.397 . S
C1003 C1008 1.363 . S
C1004 H981 0.950 . S
C1004 C1003 1.397 . S
C1004 C1005 1.334 . S
C1005 H982 0.950 . S
C1005 C1004 1.334 . S
C1005 C1006 1.287 . S
C1006 C1005 1.287 . S
C1006 C1007 1.524 . S
C1006 H1025 0.913 . S
C1007 H983 0.950 . S
C1007 C1006 1.524 . S
C1007 C1008 1.415 . S
C1008 H984 0.950 . S
C1008 C1003 1.363 . S
C1008 C1007 1.415 . S
C1009 H985 0.951 . S
C1009 C1010 1.366 . S
C1009 C1011 1.388 . S
C1010 C1009 1.366 . S
C1010 C1014 1.385 . S
C1011 H986 0.951 . S
C1011 C1009 1.388 . S
C1011 C1012 1.366 . S
C1012 C1011 1.366 . S
C1012 C1013 1.414 . S
C1012 C1015 1.499 . S
C1013 H987 0.950 1_554 S
C1013 C1012 1.414 . S
C1013 C1014 1.374 . S
C1014 H988 0.950 . S
C1014 C1010 1.385 . S
C1014 C1013 1.374 . S
C1015 C1012 1.499 . S
C1015 C1016 1.373 1_554 S
C1015 C1017 1.389 . S
C1016 H989 0.950 . S
C1016 C1002 1.377 . S
C1016 C1015 1.373 1_556 S
C1017 C1001 1.377 . S
C1017 C1015 1.389 . S
C1017 C1018 1.524 . S
C1018 C1017 1.524 . S
C1018 C1019 1.397 . S
C1018 C1023 1.363 . S
C1019 H990 0.950 . S
C1019 C1018 1.397 . S
C1019 C1020 1.334 . S
C1020 H991 0.950 . S
C1020 C1019 1.334 . S
C1020 C1021 1.287 . S
C1021 C1020 1.287 . S
C1021 C1022 1.524 . S
C1021 H1024 0.999 . S
C1022 H992 0.950 . S
C1022 C1021 1.524 . S
C1022 C1023 1.415 . S
C1023 H993 0.950 . S
C1023 C1018 1.363 . S
C1023 C1022 1.415 . S
H1024 C1021 0.999 . S
H1025 C1006 0.913 . S
H1026 C1044 0.951 . S
H1027 C1046 0.951 . S
H1028 C1048 0.950 . S
H1029 C1049 0.950 . S
H1030 C1051 0.950 . S
H1031 C1054 0.950 . S
H1032 C1055 0.950 . S
H1033 C1057 0.950 . S
H1034 C1058 0.950 . S
H1035 C1059 0.951 . S
H1036 C1061 0.951 . S
H1037 C1063 0.950 . S
H1038 C1064 0.950 . S
H1039 C1066 0.950 . S
H1040 C1069 0.950 . S
H1041 C1070 0.950 . S
H1042 C1072 0.950 . S
H1043 C1073 0.950 . S
C1044 H1026 0.951 . S
C1044 C1045 1.366 . S
C1044 C1046 1.388 . S
C1045 C1044 1.366 . S
C1045 C1049 1.385 . S
C1046 H1027 0.951 . S
C1046 C1044 1.388 . S
C1046 C1047 1.366 . S
C1047 C1046 1.366 . S
C1047 C1048 1.414 . S
C1047 C1050 1.499 . S
C1048 H1028 0.950 . S
C1048 C1047 1.414 . S
C1048 C1049 1.374 . S
C1049 H1029 0.950 . S
C1049 C1045 1.385 . S
C1049 C1048 1.374 . S
C1050 C1047 1.499 . S
C1050 C1051 1.373 . S
C1050 C1052 1.389 . S
C1051 H1030 0.950 . S
C1051 C1050 1.373 . S
C1051 C1067 1.377 . S
C1052 C1050 1.389 . S
C1052 C1053 1.524 . S
C1052 C1066 1.377 . S
C1053 C1052 1.524 . S
C1053 C1054 1.397 . S
C1053 C1058 1.363 1_554 S
C1054 H1031 0.950 . S
C1054 C1053 1.397 . S
C1054 C1055 1.334 1_554 S
C1055 H1032 0.950 . S
C1055 C1054 1.334 1_556 S
C1055 C1056 1.287 . S
C1056 C1055 1.287 . S
C1056 C1057 1.524 . S
C1056 H1075 0.913 . S
C1057 H1033 0.950 . S
C1057 C1056 1.524 . S
C1057 C1058 1.415 . S
C1058 H1034 0.950 . S
C1058 C1053 1.363 1_556 S
C1058 C1057 1.415 . S
C1059 H1035 0.951 . S
C1059 C1060 1.366 . S
C1059 C1061 1.388 . S
C1060 C1059 1.366 . S
C1060 C1064 1.385 . S
C1061 H1036 0.951 . S
C1061 C1059 1.388 . S
C1061 C1062 1.366 . S
C1062 C1061 1.366 . S
C1062 C1063 1.414 . S
C1062 C1065 1.499 . S
C1063 H1037 0.950 . S
C1063 C1062 1.414 . S
C1063 C1064 1.374 . S
C1064 H1038 0.950 . S
C1064 C1060 1.385 . S
C1064 C1063 1.374 . S
C1065 C1062 1.499 . S
C1065 C1066 1.373 . S
C1065 C1067 1.389 . S
C1066 H1039 0.950 . S
C1066 C1052 1.377 . S
C1066 C1065 1.373 . S
C1067 C1051 1.377 . S
C1067 C1065 1.389 . S
C1067 C1068 1.524 . S
C1068 C1067 1.524 . S
C1068 C1069 1.397 . S
C1068 C1073 1.363 . S
C1069 H1040 0.950 . S
C1069 C1068 1.397 . S
C1069 C1070 1.334 . S
C1070 H1041 0.950 . S
C1070 C1069 1.334 . S
C1070 C1071 1.287 . S
C1071 C1070 1.287 . S
C1071 C1072 1.524 . S
C1071 H1074 0.999 . S
C1072 H1042 0.950 . S
C1072 C1071 1.524 . S
C1072 C1073 1.415 . S
C1073 H1043 0.950 . S
C1073 C1068 1.363 . S
C1073 C1072 1.415 . S
H1074 C1071 0.999 . S
H1075 C1056 0.913 . S
H1076 C1094 0.951 . S
H1077 C1096 0.951 . S
H1078 C1098 0.950 . S
H1079 C1099 0.950 . S
H1080 C1101 0.950 . S
H1081 C1104 0.950 . S
H1082 C1105 0.950 . S
H1083 C1107 0.950 . S
H1084 C1108 0.950 . S
H1085 C1109 0.951 . S
H1086 C1111 0.951 . S
H1087 C1113 0.950 . S
H1088 C1114 0.950 . S
H1089 C1116 0.950 . S
H1090 C1119 0.950 . S
H1091 C1120 0.950 . S
H1092 C1122 0.952 . S
H1093 C1123 0.950 . S
C1094 H1076 0.951 . S
C1094 C1095 1.366 . S
C1094 C1096 1.388 . S
C1095 C1094 1.366 . S
C1095 C1099 1.385 . S
C1096 H1077 0.951 . S
C1096 C1094 1.388 . S
C1096 C1097 1.366 . S
C1097 C1096 1.366 . S
C1097 C1098 1.414 . S
C1097 C1100 1.499 . S
C1098 H1078 0.950 . S
C1098 C1097 1.414 . S
C1098 C1099 1.374 . S
C1099 H1079 0.950 . S
C1099 C1095 1.385 . S
C1099 C1098 1.374 . S
C1100 C1097 1.499 . S
C1100 C1101 1.373 . S
C1100 C1102 1.389 . S
C1101 H1080 0.950 . S
C1101 C1100 1.373 . S
C1101 C1117 1.377 . S
C1102 C1100 1.389 . S
C1102 C1103 1.524 . S
C1102 C1116 1.377 . S
C1103 C1102 1.524 . S
C1103 C1104 1.397 . S
C1103 C1108 1.363 . S
C1104 H1081 0.950 . S
C1104 C1103 1.397 . S
C1104 C1105 1.334 . S
C1105 H1082 0.950 . S
C1105 C1104 1.334 . S
C1105 C1106 1.287 . S
C1106 C1105 1.287 . S
C1106 C1107 1.524 . S
C1106 H1125 0.913 . S
C1107 H1083 0.950 . S
C1107 C1106 1.524 . S
C1107 C1108 1.415 . S
C1108 H1084 0.950 . S
C1108 C1103 1.363 . S
C1108 C1107 1.415 . S
C1109 H1085 0.951 . S
C1109 C1110 1.366 . S
C1109 C1111 1.388 . S
C1110 C1109 1.366 . S
C1110 C1114 1.385 . S
C1111 H1086 0.951 . S
C1111 C1109 1.388 . S
C1111 C1112 1.366 . S
C1112 C1111 1.366 . S
C1112 C1113 1.414 . S
C1112 C1115 1.499 . S
C1113 H1087 0.950 . S
C1113 C1112 1.414 . S
C1113 C1114 1.374 . S
C1114 H1088 0.950 . S
C1114 C1110 1.385 . S
C1114 C1113 1.374 . S
C1115 C1112 1.499 . S
C1115 C1116 1.373 . S
C1115 C1117 1.389 . S
C1116 H1089 0.950 . S
C1116 C1102 1.377 . S
C1116 C1115 1.373 . S
C1117 C1101 1.377 . S
C1117 C1115 1.389 . S
C1117 C1118 1.524 . S
C1118 C1117 1.524 . S
C1118 C1119 1.397 . S
C1118 C1123 1.363 . S
C1119 H1090 0.950 . S
C1119 C1118 1.397 . S
C1119 C1120 1.334 1_554 S
C1120 H1091 0.950 . S
C1120 C1119 1.334 1_556 S
C1120 C1121 1.287 . S
C1121 C1120 1.287 . S
C1121 C1122 1.524 1_556 S
C1121 H1124 0.999 . S
C1122 H1092 0.952 . S
C1122 C1121 1.524 1_554 S
C1122 C1123 1.415 . S
C1123 H1093 0.950 . S
C1123 C1118 1.363 . S
C1123 C1122 1.415 . S
H1124 C1121 0.999 . S
H1125 C1106 0.913 . S
H1126 C1144 0.951 . S
H1127 C1146 0.951 . S
H1128 C1148 0.950 . S
H1129 C1149 0.950 . S
H1130 C1151 0.950 . S
H1131 C1154 0.950 . S
H1132 C1155 0.950 . S
H1133 C1157 0.950 . S
H1134 C1158 0.950 . S
H1135 C1159 0.951 . S
H1136 C1161 0.951 . S
H1137 C1163 0.950 . S
H1138 C1164 0.950 . S
H1139 C1166 0.950 . S
H1140 C1169 0.950 . S
H1141 C1170 0.950 . S
H1142 C1172 0.950 . S
H1143 C1173 0.950 1_554 S
C1144 H1126 0.951 . S
C1144 C1145 1.366 . S
C1144 C1146 1.388 . S
C1145 C1144 1.366 . S
C1145 C1149 1.385 . S
C1146 H1127 0.951 . S
C1146 C1144 1.388 . S
C1146 C1147 1.366 . S
C1147 C1146 1.366 . S
C1147 C1148 1.414 . S
C1147 C1150 1.499 . S
C1148 H1128 0.950 . S
C1148 C1147 1.414 . S
C1148 C1149 1.374 . S
C1149 H1129 0.950 . S
C1149 C1145 1.385 . S
C1149 C1148 1.374 . S
C1150 C1147 1.499 . S
C1150 C1151 1.373 . S
C1150 C1152 1.389 . S
C1151 H1130 0.950 . S
C1151 C1150 1.373 . S
C1151 C1167 1.377 . S
C1152 C1150 1.389 . S
C1152 C1153 1.524 . S
C1152 C1166 1.377 . S
C1153 C1152 1.524 . S
C1153 C1154 1.397 . S
C1153 C1158 1.363 . S
C1154 H1131 0.950 . S
C1154 C1153 1.397 . S
C1154 C1155 1.334 . S
C1155 H1132 0.950 . S
C1155 C1154 1.334 . S
C1155 C1156 1.287 . S
C1156 C1155 1.287 . S
C1156 C1157 1.524 . S
C1156 H1175 0.913 . S
C1157 H1133 0.950 . S
C1157 C1156 1.524 . S
C1157 C1158 1.415 . S
C1158 H1134 0.950 . S
C1158 C1153 1.363 . S
C1158 C1157 1.415 . S
C1159 H1135 0.951 . S
C1159 C1160 1.366 . S
C1159 C1161 1.388 . S
C1160 C1159 1.366 . S
C1160 C1164 1.385 . S
C1161 H1136 0.951 . S
C1161 C1159 1.388 . S
C1161 C1162 1.366 . S
C1162 C1161 1.366 . S
C1162 C1163 1.414 . S
C1162 C1165 1.499 . S
C1163 H1137 0.950 . S
C1163 C1162 1.414 . S
C1163 C1164 1.374 . S
C1164 H1138 0.950 . S
C1164 C1160 1.385 . S
C1164 C1163 1.374 . S
C1165 C1162 1.499 . S
C1165 C1166 1.373 . S
C1165 C1167 1.389 . S
C1166 H1139 0.950 . S
C1166 C1152 1.377 . S
C1166 C1165 1.373 . S
C1167 C1151 1.377 . S
C1167 C1165 1.389 . S
C1167 C1168 1.530 . S
C1168 C1167 1.530 . S
C1168 C1169 1.391 1_554 S
C1168 C1173 1.363 1_554 S
C1169 H1140 0.950 . S
C1169 C1168 1.391 1_556 S
C1169 C1170 1.334 . S
C1170 H1141 0.950 . S
C1170 C1169 1.334 . S
C1170 C1171 1.287 . S
C1171 C1170 1.287 . S
C1171 C1172 1.524 . S
C1171 H1174 0.999 . S
C1172 H1142 0.950 . S
C1172 C1171 1.524 . S
C1172 C1173 1.415 . S
C1173 H1143 0.950 1_556 S
C1173 C1168 1.363 1_556 S
C1173 C1172 1.415 . S
H1174 C1171 0.999 . S
H1175 C1156 0.913 . S
H1176 C1194 0.951 . S
H1177 C1196 0.951 . S
H1178 C1198 0.950 . S
H1179 C1199 0.950 . S
H1180 C1201 0.950 . S
H1181 C1204 0.950 . S
H1182 C1205 0.950 . S
H1183 C1207 0.950 . S
H1184 C1208 0.950 . S
H1185 C1209 0.951 . S
H1186 C1211 0.951 . S
H1187 C1213 0.950 . S
H1188 C1214 0.950 . S
H1189 C1216 0.950 . S
H1190 C1219 0.950 . S
H1191 C1220 0.950 . S
H1192 C1222 0.950 . S
H1193 C1223 0.950 . S
C1194 H1176 0.951 . S
C1194 C1195 1.366 . S
C1194 C1196 1.388 . S
C1195 C1194 1.366 . S
C1195 C1199 1.385 . S
C1196 H1177 0.951 . S
C1196 C1194 1.388 . S
C1196 C1197 1.366 . S
C1197 C1196 1.366 . S
C1197 C1198 1.414 . S
C1197 C1200 1.499 . S
C1198 H1178 0.950 . S
C1198 C1197 1.414 . S
C1198 C1199 1.374 . S
C1199 H1179 0.950 . S
C1199 C1195 1.385 . S
C1199 C1198 1.374 . S
C1200 C1197 1.499 . S
C1200 C1201 1.373 . S
C1200 C1202 1.389 . S
C1201 H1180 0.950 . S
C1201 C1200 1.373 . S
C1201 C1217 1.377 . S
C1202 C1200 1.389 . S
C1202 C1203 1.524 . S
C1202 C1216 1.377 1_655 S
C1203 C1202 1.524 . S
C1203 C1204 1.397 . S
C1203 C1208 1.363 1_655 S
C1204 H1181 0.950 . S
C1204 C1203 1.397 . S
C1204 C1205 1.334 . S
C1205 H1182 0.950 . S
C1205 C1204 1.334 . S
C1205 C1206 1.287 . S
C1206 C1205 1.287 . S
C1206 C1207 1.524 1_655 S
C1206 H1225 0.913 . S
C1207 H1183 0.950 . S
C1207 C1206 1.524 1_455 S
C1207 C1208 1.415 . S
C1208 H1184 0.950 . S
C1208 C1203 1.363 1_455 S
C1208 C1207 1.415 . S
C1209 H1185 0.951 . S
C1209 C1210 1.366 . S
C1209 C1211 1.388 . S
C1210 C1209 1.366 . S
C1210 C1214 1.385 . S
C1211 H1186 0.951 . S
C1211 C1209 1.388 . S
C1211 C1212 1.366 . S
C1212 C1211 1.366 . S
C1212 C1213 1.414 . S
C1212 C1215 1.499 . S
C1213 H1187 0.950 . S
C1213 C1212 1.414 . S
C1213 C1214 1.374 . S
C1214 H1188 0.950 . S
C1214 C1210 1.385 . S
C1214 C1213 1.374 . S
C1215 C1212 1.499 . S
C1215 C1216 1.373 . S
C1215 C1217 1.389 1_455 S
C1216 H1189 0.950 . S
C1216 C1202 1.377 1_455 S
C1216 C1215 1.373 . S
C1217 C1201 1.377 . S
C1217 C1215 1.389 1_655 S
C1217 C1218 1.524 . S
C1218 C1217 1.524 . S
C1218 C1219 1.397 1_655 S
C1218 C1223 1.363 . S
C1219 H1190 0.950 . S
C1219 C1218 1.397 1_455 S
C1219 C1220 1.334 . S
C1220 H1191 0.950 . S
C1220 C1219 1.334 . S
C1220 C1221 1.287 1_455 S
C1221 C1220 1.287 1_655 S
C1221 C1222 1.524 . S
C1221 H1224 0.999 . S
C1222 H1192 0.950 . S
C1222 C1221 1.524 . S
C1222 C1223 1.415 . S
C1223 H1193 0.950 . S
C1223 C1218 1.363 . S
C1223 C1222 1.415 . S
H1224 C1221 0.999 . S
H1225 C1206 0.913 . S
H1226 C1244 0.951 . S
H1227 C1246 0.951 . S
H1228 C1248 0.950 . S
H1229 C1249 0.950 . S
H1230 C1251 0.950 . S
H1231 C1254 0.950 . S
H1232 C1255 0.950 . S
H1233 C1257 0.950 . S
H1234 C1258 0.950 . S
H1235 C1259 0.951 . S
H1236 C1261 0.951 . S
H1237 C1263 0.950 . S
H1238 C1264 0.950 . S
H1239 C1266 0.950 . S
H1240 C1269 0.950 . S
H1241 C1270 0.950 . S
H1242 C1272 0.950 . S
H1243 C1273 0.950 . S
C1244 H1226 0.951 . S
C1244 C1245 1.366 . S
C1244 C1246 1.388 . S
C1245 C1244 1.366 . S
C1245 C1249 1.385 . S
C1246 H1227 0.951 . S
C1246 C1244 1.388 . S
C1246 C1247 1.366 . S
C1247 C1246 1.366 . S
C1247 C1248 1.414 . S
C1247 C1250 1.499 . S
C1248 H1228 0.950 . S
C1248 C1247 1.414 . S
C1248 C1249 1.374 . S
C1249 H1229 0.950 . S
C1249 C1245 1.385 . S
C1249 C1248 1.374 . S
C1250 C1247 1.499 . S
C1250 C1251 1.373 . S
C1250 C1252 1.389 . S
C1251 H1230 0.950 . S
C1251 C1250 1.373 . S
C1251 C1267 1.377 . S
C1252 C1250 1.389 . S
C1252 C1253 1.524 . S
C1252 C1266 1.377 . S
C1253 C1252 1.524 . S
C1253 C1254 1.397 . S
C1253 C1258 1.363 . S
C1254 H1231 0.950 . S
C1254 C1253 1.397 . S
C1254 C1255 1.334 . S
C1255 H1232 0.950 . S
C1255 C1254 1.334 . S
C1255 C1256 1.287 . S
C1256 C1255 1.287 . S
C1256 C1257 1.524 . S
C1256 H1275 0.913 . S
C1257 H1233 0.950 . S
C1257 C1256 1.524 . S
C1257 C1258 1.415 . S
C1258 H1234 0.950 . S
C1258 C1253 1.363 . S
C1258 C1257 1.415 . S
C1259 H1235 0.951 . S
C1259 C1260 1.366 . S
C1259 C1261 1.388 . S
C1260 C1259 1.366 . S
C1260 C1264 1.385 . S
C1261 H1236 0.951 . S
C1261 C1259 1.388 . S
C1261 C1262 1.366 . S
C1262 C1261 1.366 . S
C1262 C1263 1.414 . S
C1262 C1265 1.499 . S
C1263 H1237 0.950 . S
C1263 C1262 1.414 . S
C1263 C1264 1.374 . S
C1264 H1238 0.950 . S
C1264 C1260 1.385 . S
C1264 C1263 1.374 . S
C1265 C1262 1.499 . S
C1265 C1266 1.373 . S
C1265 C1267 1.389 . S
C1266 H1239 0.950 . S
C1266 C1252 1.377 . S
C1266 C1265 1.373 . S
C1267 C1251 1.377 . S
C1267 C1265 1.389 . S
C1267 C1268 1.524 . S
C1268 C1267 1.524 . S
C1268 C1269 1.397 . S
C1268 C1273 1.363 . S
C1269 H1240 0.950 . S
C1269 C1268 1.397 . S
C1269 C1270 1.334 . S
C1270 H1241 0.950 . S
C1270 C1269 1.334 . S
C1270 C1271 1.287 . S
C1271 C1270 1.287 . S
C1271 C1272 1.524 . S
C1271 H1274 0.999 . S
C1272 H1242 0.950 . S
C1272 C1271 1.524 . S
C1272 C1273 1.415 . S
C1273 H1243 0.950 . S
C1273 C1268 1.363 . S
C1273 C1272 1.415 . S
H1274 C1271 0.999 . S
H1275 C1256 0.913 . S
H1276 C1294 0.951 . S
H1277 C1296 0.951 . S
H1278 C1298 0.950 . S
H1279 C1299 0.950 . S
H1280 C1301 0.950 . S
H1281 C1304 0.950 . S
H1282 C1305 0.950 . S
H1283 C1307 0.950 . S
H1284 C1308 0.950 . S
H1285 C1309 0.951 . S
H1286 C1311 0.951 . S
H1287 C1313 0.950 . S
H1288 C1314 0.950 . S
H1289 C1316 0.950 1_565 S
H1290 C1319 0.950 . S
H1291 C1320 0.950 . S
H1292 C1322 0.950 . S
H1293 C1323 0.950 . S
C1294 H1276 0.951 . S
C1294 C1295 1.366 . S
C1294 C1296 1.388 . S
C1295 C1294 1.366 . S
C1295 C1299 1.385 . S
C1296 H1277 0.951 . S
C1296 C1294 1.388 . S
C1296 C1297 1.366 . S
C1297 C1296 1.366 . S
C1297 C1298 1.414 . S
C1297 C1300 1.499 . S
C1298 H1278 0.950 . S
C1298 C1297 1.414 . S
C1298 C1299 1.374 . S
C1299 H1279 0.950 . S
C1299 C1295 1.385 . S
C1299 C1298 1.374 . S
C1300 C1297 1.499 . S
C1300 C1301 1.373 . S
C1300 C1302 1.389 . S
C1301 H1280 0.950 . S
C1301 C1300 1.373 . S
C1301 C1317 1.377 . S
C1302 C1300 1.389 . S
C1302 C1303 1.524 . S
C1302 C1316 1.377 . S
C1303 C1302 1.524 . S
C1303 C1304 1.397 . S
C1303 C1308 1.363 . S
C1304 H1281 0.950 . S
C1304 C1303 1.397 . S
C1304 C1305 1.334 . S
C1305 H1282 0.950 . S
C1305 C1304 1.334 . S
C1305 C1306 1.287 . S
C1306 C1305 1.287 . S
C1306 C1307 1.524 . S
C1306 H1325 0.913 . S
C1307 H1283 0.950 . S
C1307 C1306 1.524 . S
C1307 C1308 1.415 . S
C1308 H1284 0.950 . S
C1308 C1303 1.363 . S
C1308 C1307 1.415 . S
C1309 H1285 0.951 . S
C1309 C1310 1.366 . S
C1309 C1311 1.388 . S
C1310 C1309 1.366 . S
C1310 C1314 1.385 . S
C1311 H1286 0.951 . S
C1311 C1309 1.388 . S
C1311 C1312 1.366 . S
C1312 C1311 1.366 . S
C1312 C1313 1.414 . S
C1312 C1315 1.499 . S
C1313 H1287 0.950 . S
C1313 C1312 1.414 . S
C1313 C1314 1.374 . S
C1314 H1288 0.950 . S
C1314 C1310 1.385 . S
C1314 C1313 1.374 . S
C1315 C1312 1.499 . S
C1315 C1316 1.373 1_565 S
C1315 C1317 1.389 1_565 S
C1316 H1289 0.950 1_545 S
C1316 C1302 1.377 . S
C1316 C1315 1.373 1_545 S
C1317 C1301 1.377 . S
C1317 C1315 1.389 1_545 S
C1317 C1318 1.524 . S
C1318 C1317 1.524 . S
C1318 C1319 1.397 1_545 S
C1318 C1323 1.363 . S
C1319 H1290 0.950 . S
C1319 C1318 1.397 1_565 S
C1319 C1320 1.334 . S
C1320 H1291 0.950 . S
C1320 C1319 1.334 . S
C1320 C1321 1.287 1_565 S
C1321 C1320 1.287 1_545 S
C1321 C1322 1.524 . S
C1321 H1324 0.999 . S
C1322 H1292 0.950 . S
C1322 C1321 1.524 . S
C1322 C1323 1.415 . S
C1323 H1293 0.950 . S
C1323 C1318 1.363 . S
C1323 C1322 1.415 . S
H1324 C1321 0.999 . S
H1325 C1306 0.913 . S
H1326 C1344 0.951 . S
H1327 C1346 0.951 . S
H1328 C1348 0.950 . S
H1329 C1349 0.950 . S
H1330 C1351 0.950 . S
H1331 C1354 0.950 . S
H1332 C1355 0.950 . S
H1333 C1357 0.950 . S
H1334 C1358 0.950 . S
H1335 C1359 0.951 . S
H1336 C1361 0.951 . S
H1337 C1363 0.950 . S
H1338 C1364 0.950 . S
H1339 C1366 0.950 . S
H1340 C1369 0.950 . S
H1341 C1370 0.950 . S
H1342 C1372 0.950 . S
H1343 C1373 0.950 . S
C1344 H1326 0.951 . S
C1344 C1345 1.366 . S
C1344 C1346 1.388 . S
C1345 C1344 1.366 . S
C1345 C1349 1.385 . S
C1346 H1327 0.951 . S
C1346 C1344 1.388 . S
C1346 C1347 1.366 . S
C1347 C1346 1.366 . S
C1347 C1348 1.414 . S
C1347 C1350 1.499 . S
C1348 H1328 0.950 . S
C1348 C1347 1.414 . S
C1348 C1349 1.374 . S
C1349 H1329 0.950 . S
C1349 C1345 1.385 . S
C1349 C1348 1.374 . S
C1350 C1347 1.499 . S
C1350 C1351 1.373 . S
C1350 C1352 1.389 . S
C1351 H1330 0.950 . S
C1351 C1350 1.373 . S
C1351 C1367 1.377 . S
C1352 C1350 1.389 . S
C1352 C1353 1.524 . S
C1352 C1366 1.377 . S
C1353 C1352 1.524 . S
C1353 C1354 1.397 . S
C1353 C1358 1.363 . S
C1354 H1331 0.950 . S
C1354 C1353 1.397 . S
C1354 C1355 1.334 . S
C1355 H1332 0.950 . S
C1355 C1354 1.334 . S
C1355 C1356 1.287 . S
C1356 C1355 1.287 . S
C1356 C1357 1.524 . S
C1356 H1375 0.913 . S
C1357 H1333 0.950 . S
C1357 C1356 1.524 . S
C1357 C1358 1.415 . S
C1358 H1334 0.950 . S
C1358 C1353 1.363 . S
C1358 C1357 1.415 . S
C1359 H1335 0.951 . S
C1359 C1360 1.366 . S
C1359 C1361 1.388 . S
C1360 C1359 1.366 . S
C1360 C1364 1.385 . S
C1361 H1336 0.951 . S
C1361 C1359 1.388 . S
C1361 C1362 1.366 . S
C1362 C1361 1.366 . S
C1362 C1363 1.414 . S
C1362 C1365 1.499 . S
C1363 H1337 0.950 . S
C1363 C1362 1.414 . S
C1363 C1364 1.374 . S
C1364 H1338 0.950 . S
C1364 C1360 1.385 . S
C1364 C1363 1.374 . S
C1365 C1362 1.499 . S
C1365 C1366 1.373 . S
C1365 C1367 1.389 . S
C1366 H1339 0.950 . S
C1366 C1352 1.377 . S
C1366 C1365 1.373 . S
C1367 C1351 1.377 . S
C1367 C1365 1.389 . S
C1367 C1368 1.524 . S
C1368 C1367 1.524 . S
C1368 C1369 1.397 . S
C1368 C1373 1.363 . S
C1369 H1340 0.950 . S
C1369 C1368 1.397 . S
C1369 C1370 1.334 . S
C1370 H1341 0.950 . S
C1370 C1369 1.334 . S
C1370 C1371 1.287 . S
C1371 C1370 1.287 . S
C1371 C1372 1.524 . S
C1371 H1374 0.999 . S
C1372 H1342 0.950 . S
C1372 C1371 1.524 . S
C1372 C1373 1.415 . S
C1373 H1343 0.950 . S
C1373 C1368 1.363 . S
C1373 C1372 1.415 . S
H1374 C1371 0.999 . S
H1375 C1356 0.913 . S
H1376 C1394 0.951 . S
H1377 C1396 0.951 . S
H1378 C1398 0.950 . S
H1379 C1399 0.950 . S
H1380 C1401 0.950 . S
H1381 C1404 0.950 . S
H1382 C1405 0.950 . S
H1383 C1407 0.950 . S
H1384 C1408 0.950 . S
H1385 C1409 0.951 . S
H1386 C1411 0.951 . S
H1387 C1413 0.950 . S
H1388 C1414 0.950 . S
H1389 C1416 0.950 . S
H1390 C1419 0.950 . S
H1391 C1420 0.950 . S
H1392 C1422 0.950 . S
H1393 C1423 0.950 . S
C1394 H1376 0.951 . S
C1394 C1395 1.366 . S
C1394 C1396 1.388 . S
C1395 C1394 1.366 . S
C1395 C1399 1.385 . S
C1396 H1377 0.951 . S
C1396 C1394 1.388 . S
C1396 C1397 1.366 . S
C1397 C1396 1.366 . S
C1397 C1398 1.414 . S
C1397 C1400 1.499 . S
C1398 H1378 0.950 . S
C1398 C1397 1.414 . S
C1398 C1399 1.374 . S
C1399 H1379 0.950 . S
C1399 C1395 1.385 . S
C1399 C1398 1.374 . S
C1400 C1397 1.499 . S
C1400 C1401 1.373 . S
C1400 C1402 1.389 . S
C1401 H1380 0.950 . S
C1401 C1400 1.373 . S
C1401 C1417 1.377 . S
C1402 C1400 1.389 . S
C1402 C1403 1.524 . S
C1402 C1416 1.377 . S
C1403 C1402 1.524 . S
C1403 C1404 1.397 . S
C1403 C1408 1.363 . S
C1404 H1381 0.950 . S
C1404 C1403 1.397 . S
C1404 C1405 1.334 . S
C1405 H1382 0.950 . S
C1405 C1404 1.334 . S
C1405 C1406 1.287 . S
C1406 C1405 1.287 . S
C1406 C1407 1.524 . S
C1406 H1425 0.913 . S
C1407 H1383 0.950 . S
C1407 C1406 1.524 . S
C1407 C1408 1.415 . S
C1408 H1384 0.950 . S
C1408 C1403 1.363 . S
C1408 C1407 1.415 . S
C1409 H1385 0.951 . S
C1409 C1410 1.366 . S
C1409 C1411 1.388 . S
C1410 C1409 1.366 . S
C1410 C1414 1.385 . S
C1411 H1386 0.951 . S
C1411 C1409 1.388 . S
C1411 C1412 1.366 . S
C1412 C1411 1.366 . S
C1412 C1413 1.414 . S
C1412 C1415 1.499 . S
C1413 H1387 0.950 . S
C1413 C1412 1.414 . S
C1413 C1414 1.374 . S
C1414 H1388 0.950 . S
C1414 C1410 1.385 . S
C1414 C1413 1.374 . S
C1415 C1412 1.499 . S
C1415 C1416 1.373 . S
C1415 C1417 1.389 . S
C1416 H1389 0.950 . S
C1416 C1402 1.377 . S
C1416 C1415 1.373 . S
C1417 C1401 1.377 . S
C1417 C1415 1.389 . S
C1417 C1418 1.524 . S
C1418 C1417 1.524 . S
C1418 C1419 1.397 . S
C1418 C1423 1.363 . S
C1419 H1390 0.950 . S
C1419 C1418 1.397 . S
C1419 C1420 1.334 . S
C1420 H1391 0.950 . S
C1420 C1419 1.334 . S
C1420 C1421 1.287 . S
C1421 C1420 1.287 . S
C1421 C1422 1.524 . S
C1421 H1424 0.999 . S
C1422 H1392 0.950 . S
C1422 C1421 1.524 . S
C1422 C1423 1.415 . S
C1423 H1393 0.950 . S
C1423 C1418 1.363 . S
C1423 C1422 1.415 . S
H1424 C1421 0.999 . S
H1425 C1406 0.913 . S
H1426 C1444 0.951 . S
H1427 C1446 0.951 . S
H1428 C1448 0.950 . S
H1429 C1449 0.950 . S
H1430 C1451 0.950 . S
H1431 C1454 0.950 . S
H1432 C1455 0.950 . S
H1433 C1457 0.950 . S
H1434 C1458 0.950 . S
H1435 C1459 0.951 . S
H1436 C1461 0.951 . S
H1437 C1463 0.950 . S
H1438 C1464 0.950 . S
H1439 C1466 0.950 . S
H1440 C1469 0.950 . S
H1441 C1470 0.950 . S
H1442 C1472 0.950 . S
H1443 C1473 0.950 . S
C1444 H1426 0.951 . S
C1444 C1445 1.366 . S
C1444 C1446 1.388 . S
C1445 C1444 1.366 . S
C1445 C1449 1.385 . S
C1446 H1427 0.951 . S
C1446 C1444 1.388 . S
C1446 C1447 1.366 . S
C1447 C1446 1.366 . S
C1447 C1448 1.414 . S
C1447 C1450 1.499 . S
C1448 H1428 0.950 . S
C1448 C1447 1.414 . S
C1448 C1449 1.374 . S
C1449 H1429 0.950 . S
C1449 C1445 1.385 . S
C1449 C1448 1.374 . S
C1450 C1447 1.499 . S
C1450 C1451 1.373 . S
C1450 C1452 1.389 . S
C1451 H1430 0.950 . S
C1451 C1450 1.373 . S
C1451 C1467 1.377 . S
C1452 C1450 1.389 . S
C1452 C1453 1.524 . S
C1452 C1466 1.377 . S
C1453 C1452 1.524 . S
C1453 C1454 1.397 . S
C1453 C1458 1.363 . S
C1454 H1431 0.950 . S
C1454 C1453 1.397 . S
C1454 C1455 1.334 . S
C1455 H1432 0.950 . S
C1455 C1454 1.334 . S
C1455 C1456 1.287 . S
C1456 C1455 1.287 . S
C1456 C1457 1.524 . S
C1456 H1475 0.913 . S
C1457 H1433 0.950 . S
C1457 C1456 1.524 . S
C1457 C1458 1.415 . S
C1458 H1434 0.950 . S
C1458 C1453 1.363 . S
C1458 C1457 1.415 . S
C1459 H1435 0.951 . S
C1459 C1460 1.366 . S
C1459 C1461 1.388 . S
C1460 C1459 1.366 . S
C1460 C1464 1.385 . S
C1461 H1436 0.951 . S
C1461 C1459 1.388 . S
C1461 C1462 1.366 . S
C1462 C1461 1.366 . S
C1462 C1463 1.414 . S
C1462 C1465 1.499 . S
C1463 H1437 0.950 . S
C1463 C1462 1.414 . S
C1463 C1464 1.374 . S
C1464 H1438 0.950 . S
C1464 C1460 1.385 . S
C1464 C1463 1.374 . S
C1465 C1462 1.499 . S
C1465 C1466 1.373 . S
C1465 C1467 1.389 . S
C1466 H1439 0.950 . S
C1466 C1452 1.377 . S
C1466 C1465 1.373 . S
C1467 C1451 1.377 . S
C1467 C1465 1.389 . S
C1467 C1468 1.524 . S
C1468 C1467 1.524 . S
C1468 C1469 1.397 . S
C1468 C1473 1.363 . S
C1469 H1440 0.950 . S
C1469 C1468 1.397 . S
C1469 C1470 1.334 . S
C1470 H1441 0.950 . S
C1470 C1469 1.334 . S
C1470 C1471 1.287 . S
C1471 C1470 1.287 . S
C1471 C1472 1.524 . S
C1471 H1474 0.999 . S
C1472 H1442 0.950 . S
C1472 C1471 1.524 . S
C1472 C1473 1.415 . S
C1473 H1443 0.950 . S
C1473 C1468 1.363 . S
C1473 C1472 1.415 . S
H1474 C1471 0.999 . S
H1475 C1456 0.913 . S
H1476 C1494 0.951 . S
H1477 C1496 0.951 . S
H1478 C1498 0.950 . S
H1479 C1499 0.950 . S
H1480 C1501 0.950 . S
H1481 C1504 0.950 . S
H1482 C1505 0.950 . S
H1483 C1507 0.950 . S
H1484 C1508 0.950 . S
H1485 C1509 0.951 . S
H1486 C1511 0.951 . S
H1487 C1513 0.950 . S
H1488 C1514 0.950 . S
H1489 C1516 0.950 . S
H1490 C1519 0.950 . S
H1491 C1520 0.950 . S
H1492 C1522 0.950 . S
H1493 C1523 0.950 . S
C1494 H1476 0.951 . S
C1494 C1495 1.366 . S
C1494 C1496 1.388 . S
C1495 C1494 1.366 . S
C1495 C1499 1.385 . S
C1496 H1477 0.951 . S
C1496 C1494 1.388 . S
C1496 C1497 1.366 . S
C1497 C1496 1.366 . S
C1497 C1498 1.414 . S
C1497 C1500 1.499 . S
C1498 H1478 0.950 . S
C1498 C1497 1.414 . S
C1498 C1499 1.374 . S
C1499 H1479 0.950 . S
C1499 C1495 1.385 . S
C1499 C1498 1.374 . S
C1500 C1497 1.499 . S
C1500 C1501 1.373 . S
C1500 C1502 1.389 . S
C1501 H1480 0.950 . S
C1501 C1500 1.373 . S
C1501 C1517 1.377 . S
C1502 C1500 1.389 . S
C1502 C1503 1.524 . S
C1502 C1516 1.377 . S
C1503 C1502 1.524 . S
C1503 C1504 1.397 . S
C1503 C1508 1.363 . S
C1504 H1481 0.950 . S
C1504 C1503 1.397 . S
C1504 C1505 1.334 . S
C1505 H1482 0.950 . S
C1505 C1504 1.334 . S
C1505 C1506 1.287 . S
C1506 C1505 1.287 . S
C1506 C1507 1.524 . S
C1506 H1525 0.913 . S
C1507 H1483 0.950 . S
C1507 C1506 1.524 . S
C1507 C1508 1.415 . S
C1508 H1484 0.950 . S
C1508 C1503 1.363 . S
C1508 C1507 1.415 . S
C1509 H1485 0.951 . S
C1509 C1510 1.366 . S
C1509 C1511 1.388 . S
C1510 C1509 1.366 . S
C1510 C1514 1.385 . S
C1511 H1486 0.951 . S
C1511 C1509 1.388 . S
C1511 C1512 1.366 . S
C1512 C1511 1.366 . S
C1512 C1513 1.414 . S
C1512 C1515 1.499 . S
C1513 H1487 0.950 . S
C1513 C1512 1.414 . S
C1513 C1514 1.374 . S
C1514 H1488 0.950 . S
C1514 C1510 1.385 . S
C1514 C1513 1.374 . S
C1515 C1512 1.499 . S
C1515 C1516 1.373 . S
C1515 C1517 1.389 . S
C1516 H1489 0.950 . S
C1516 C1502 1.377 . S
C1516 C1515 1.373 . S
C1517 C1501 1.377 . S
C1517 C1515 1.389 . S
C1517 C1518 1.524 . S
C1518 C1517 1.524 . S
C1518 C1519 1.397 . S
C1518 C1523 1.363 . S
C1519 H1490 0.950 . S
C1519 C1518 1.397 . S
C1519 C1520 1.334 . S
C1520 H1491 0.950 . S
C1520 C1519 1.334 . S
C1520 C1521 1.287 . S
C1521 C1520 1.287 . S
C1521 C1522 1.524 . S
C1521 H1524 0.999 . S
C1522 H1492 0.950 . S
C1522 C1521 1.524 . S
C1522 C1523 1.415 . S
C1523 H1493 0.950 . S
C1523 C1518 1.363 . S
C1523 C1522 1.415 . S
H1524 C1521 0.999 . S
H1525 C1506 0.913 . S
H1526 C1544 0.951 . S
H1527 C1546 0.951 . S
H1528 C1548 0.950 . S
H1529 C1549 0.950 . S
H1530 C1551 0.950 . S
H1531 C1554 0.950 . S
H1532 C1555 0.950 . S
H1533 C1557 0.950 . S
H1534 C1558 0.950 . S
H1535 C1559 0.951 . S
H1536 C1561 0.951 . S
H1537 C1563 0.950 . S
H1538 C1564 0.950 . S
H1539 C1566 0.950 . S
H1540 C1569 0.950 . S
H1541 C1570 0.950 . S
H1542 C1572 0.950 . S
H1543 C1573 0.950 . S
C1544 H1526 0.951 . S
C1544 C1545 1.366 . S
C1544 C1546 1.388 . S
C1545 C1544 1.366 . S
C1545 C1549 1.385 . S
C1546 H1527 0.951 . S
C1546 C1544 1.388 . S
C1546 C1547 1.366 . S
C1547 C1546 1.366 . S
C1547 C1548 1.414 . S
C1547 C1550 1.499 . S
C1548 H1528 0.950 . S
C1548 C1547 1.414 . S
C1548 C1549 1.374 . S
C1549 H1529 0.950 . S
C1549 C1545 1.385 . S
C1549 C1548 1.374 . S
C1550 C1547 1.499 . S
C1550 C1551 1.373 . S
C1550 C1552 1.389 . S
C1551 H1530 0.950 . S
C1551 C1550 1.373 . S
C1551 C1567 1.377 . S
C1552 C1550 1.389 . S
C1552 C1553 1.524 . S
C1552 C1566 1.377 . S
C1553 C1552 1.524 . S
C1553 C1554 1.397 . S
C1553 C1558 1.363 . S
C1554 H1531 0.950 . S
C1554 C1553 1.397 . S
C1554 C1555 1.334 . S
C1555 H1532 0.950 . S
C1555 C1554 1.334 . S
C1555 C1556 1.287 . S
C1556 C1555 1.287 . S
C1556 C1557 1.524 . S
C1556 H1575 0.913 . S
C1557 H1533 0.950 . S
C1557 C1556 1.524 . S
C1557 C1558 1.415 . S
C1558 H1534 0.950 . S
C1558 C1553 1.363 . S
C1558 C1557 1.415 . S
C1559 H1535 0.951 . S
C1559 C1560 1.366 . S
C1559 C1561 1.388 . S
C1560 C1559 1.366 . S
C1560 C1564 1.385 . S
C1561 H1536 0.951 . S
C1561 C1559 1.388 . S
C1561 C1562 1.366 . S
C1562 C1561 1.366 . S
C1562 C1563 1.414 . S
C1562 C1565 1.499 . S
C1563 H1537 0.950 . S
C1563 C1562 1.414 . S
C1563 C1564 1.374 . S
C1564 H1538 0.950 . S
C1564 C1560 1.385 . S
C1564 C1563 1.374 . S
C1565 C1562 1.499 . S
C1565 C1566 1.373 . S
C1565 C1567 1.389 . S
C1566 H1539 0.950 . S
C1566 C1552 1.377 . S
C1566 C1565 1.373 . S
C1567 C1551 1.377 . S
C1567 C1565 1.389 . S
C1567 C1568 1.524 . S
C1568 C1567 1.524 . S
C1568 C1569 1.397 . S
C1568 C1573 1.363 . S
C1569 H1540 0.950 . S
C1569 C1568 1.397 . S
C1569 C1570 1.334 . S
C1570 H1541 0.950 . S
C1570 C1569 1.334 . S
C1570 C1571 1.287 . S
C1571 C1570 1.287 . S
C1571 C1572 1.524 . S
C1571 H1574 0.999 . S
C1572 H1542 0.950 . S
C1572 C1571 1.524 . S
C1572 C1573 1.415 . S
C1573 H1543 0.950 . S
C1573 C1568 1.363 . S
C1573 C1572 1.415 . S
H1574 C1571 0.999 . S
H1575 C1556 0.913 . S
H1576 C1594 0.951 . S
H1577 C1596 0.951 . S
H1578 C1598 0.950 . S
H1579 C1599 0.950 . S
H1580 C1601 0.950 . S
H1581 C1604 0.950 . S
H1582 C1605 0.950 . S
H1583 C1607 0.950 . S
H1584 C1608 0.950 . S
H1585 C1609 0.951 . S
H1586 C1611 0.951 . S
H1587 C1613 0.950 . S
H1588 C1614 0.950 . S
H1589 C1616 0.950 . S
H1590 C1619 0.950 . S
H1591 C1620 0.950 . S
H1592 C1622 0.950 . S
H1593 C1623 0.950 . S
C1594 H1576 0.951 . S
C1594 C1595 1.366 . S
C1594 C1596 1.388 . S
C1595 C1594 1.366 . S
C1595 C1599 1.385 . S
C1596 H1577 0.951 . S
C1596 C1594 1.388 . S
C1596 C1597 1.366 . S
C1597 C1596 1.366 . S
C1597 C1598 1.414 . S
C1597 C1600 1.499 . S
C1598 H1578 0.950 . S
C1598 C1597 1.414 . S
C1598 C1599 1.374 . S
C1599 H1579 0.950 . S
C1599 C1595 1.385 . S
C1599 C1598 1.374 . S
C1600 C1597 1.499 . S
C1600 C1601 1.373 . S
C1600 C1602 1.389 . S
C1601 H1580 0.950 . S
C1601 C1600 1.373 . S
C1601 C1617 1.377 . S
C1602 C1600 1.389 . S
C1602 C1603 1.524 . S
C1602 C1616 1.377 . S
C1603 C1602 1.524 . S
C1603 C1604 1.397 . S
C1603 C1608 1.363 . S
C1604 H1581 0.950 . S
C1604 C1603 1.397 . S
C1604 C1605 1.334 . S
C1605 H1582 0.950 . S
C1605 C1604 1.334 . S
C1605 C1606 1.287 . S
C1606 C1605 1.287 . S
C1606 C1607 1.524 . S
C1606 H1625 0.913 . S
C1607 H1583 0.950 . S
C1607 C1606 1.524 . S
C1607 C1608 1.415 . S
C1608 H1584 0.950 . S
C1608 C1603 1.363 . S
C1608 C1607 1.415 . S
C1609 H1585 0.951 . S
C1609 C1610 1.366 . S
C1609 C1611 1.388 . S
C1610 C1609 1.366 . S
C1610 C1614 1.385 . S
C1611 H1586 0.951 . S
C1611 C1609 1.388 . S
C1611 C1612 1.366 . S
C1612 C1611 1.366 . S
C1612 C1613 1.414 . S
C1612 C1615 1.499 . S
C1613 H1587 0.950 . S
C1613 C1612 1.414 . S
C1613 C1614 1.374 . S
C1614 H1588 0.950 . S
C1614 C1610 1.385 . S
C1614 C1613 1.374 . S
C1615 C1612 1.499 . S
C1615 C1616 1.373 . S
C1615 C1617 1.389 . S
C1616 H1589 0.950 . S
C1616 C1602 1.377 . S
C1616 C1615 1.373 . S
C1617 C1601 1.377 . S
C1617 C1615 1.389 . S
C1617 C1618 1.524 . S
C1618 C1617 1.524 . S
C1618 C1619 1.397 . S
C1618 C1623 1.363 . S
C1619 H1590 0.950 . S
C1619 C1618 1.397 . S
C1619 C1620 1.334 . S
C1620 H1591 0.950 . S
C1620 C1619 1.334 . S
C1620 C1621 1.287 . S
C1621 C1620 1.287 . S
C1621 C1622 1.524 . S
C1621 H1624 0.999 . S
C1622 H1592 0.950 . S
C1622 C1621 1.524 . S
C1622 C1623 1.415 . S
C1623 H1593 0.950 . S
C1623 C1618 1.363 . S
C1623 C1622 1.415 . S
H1624 C1621 0.999 . S
H1625 C1606 0.913 . S
H1626 C1644 0.951 . S
H1627 C1646 0.951 . S
H1628 C1648 0.950 . S
H1629 C1649 0.950 . S
H1630 C1651 0.950 . S
H1631 C1654 0.950 . S
H1632 C1655 0.950 . S
H1633 C1657 0.950 . S
H1634 C1658 0.950 . S
H1635 C1659 0.951 . S
H1636 C1661 0.951 . S
H1637 C1663 0.950 . S
H1638 C1664 0.950 . S
H1639 C1666 0.950 . S
H1640 C1669 0.950 . S
H1641 C1670 0.950 . S
H1642 C1672 0.950 . S
H1643 C1673 0.950 . S
C1644 H1626 0.951 . S
C1644 C1645 1.366 . S
C1644 C1646 1.388 . S
C1645 C1644 1.366 . S
C1645 C1649 1.385 . S
C1646 H1627 0.951 . S
C1646 C1644 1.388 . S
C1646 C1647 1.366 . S
C1647 C1646 1.366 . S
C1647 C1648 1.414 . S
C1647 C1650 1.499 1_545 S
C1648 H1628 0.950 . S
C1648 C1647 1.414 . S
C1648 C1649 1.374 . S
C1649 H1629 0.950 . S
C1649 C1645 1.385 . S
C1649 C1648 1.374 . S
C1650 C1647 1.499 1_565 S
C1650 C1651 1.373 . S
C1650 C1652 1.389 . S
C1651 H1630 0.950 . S
C1651 C1650 1.373 . S
C1651 C1667 1.377 . S
C1652 C1650 1.389 . S
C1652 C1653 1.524 . S
C1652 C1666 1.377 . S
C1653 C1652 1.524 . S
C1653 C1654 1.397 1_565 S
C1653 C1658 1.363 . S
C1654 H1631 0.950 . S
C1654 C1653 1.397 1_545 S
C1654 C1655 1.334 . S
C1655 H1632 0.950 . S
C1655 C1654 1.334 . S
C1655 C1656 1.287 . S
C1656 C1655 1.287 . S
C1656 C1657 1.524 1_545 S
C1656 H1675 0.913 . S
C1657 H1633 0.950 . S
C1657 C1656 1.524 1_565 S
C1657 C1658 1.415 . S
C1658 H1634 0.950 . S
C1658 C1653 1.363 . S
C1658 C1657 1.415 . S
C1659 H1635 0.951 . S
C1659 C1660 1.366 . S
C1659 C1661 1.388 . S
C1660 C1659 1.366 . S
C1660 C1664 1.385 . S
C1661 H1636 0.951 . S
C1661 C1659 1.388 . S
C1661 C1662 1.366 . S
C1662 C1661 1.366 . S
C1662 C1663 1.414 . S
C1662 C1665 1.499 . S
C1663 H1637 0.950 . S
C1663 C1662 1.414 . S
C1663 C1664 1.374 . S
C1664 H1638 0.950 . S
C1664 C1660 1.385 . S
C1664 C1663 1.374 . S
C1665 C1662 1.499 . S
C1665 C1666 1.373 . S
C1665 C1667 1.389 . S
C1666 H1639 0.950 . S
C1666 C1652 1.377 . S
C1666 C1665 1.373 . S
C1667 C1651 1.377 . S
C1667 C1665 1.389 . S
C1667 C1668 1.524 . S
C1668 C1667 1.524 . S
C1668 C1669 1.397 . S
C1668 C1673 1.363 . S
C1669 H1640 0.950 . S
C1669 C1668 1.397 . S
C1669 C1670 1.334 . S
C1670 H1641 0.950 . S
C1670 C1669 1.334 . S
C1670 C1671 1.287 . S
C1671 C1670 1.287 . S
C1671 C1672 1.524 . S
C1671 H1674 0.999 . S
C1672 H1642 0.950 . S
C1672 C1671 1.524 . S
C1672 C1673 1.415 . S
C1673 H1643 0.950 . S
C1673 C1668 1.363 . S
C1673 C1672 1.415 . S
H1674 C1671 0.999 . S
H1675 C1656 0.913 . S
H1676 C1694 0.951 . S
H1677 C1696 0.951 . S
H1678 C1698 0.950 . S
H1679 C1699 0.950 . S
H1680 C1701 0.950 . S
H1681 C1704 0.950 . S
H1682 C1705 0.950 . S
H1683 C1707 0.950 . S
H1684 C1708 0.950 . S
H1685 C1709 0.951 . S
H1686 C1711 0.951 . S
H1687 C1713 0.950 . S
H1688 C1714 0.950 . S
H1689 C1716 0.950 . S
H1690 C1719 0.950 . S
H1691 C1720 0.950 . S
H1692 C1722 0.950 . S
H1693 C1723 0.950 . S
C1694 H1676 0.951 . S
C1694 C1695 1.366 . S
C1694 C1696 1.388 1_655 S
C1695 C1694 1.366 . S
C1695 C1699 1.385 . S
C1696 H1677 0.951 . S
C1696 C1694 1.388 1_455 S
C1696 C1697 1.366 . S
C1697 C1696 1.366 . S
C1697 C1698 1.414 1_455 S
C1697 C1700 1.499 . S
C1698 H1678 0.950 . S
C1698 C1697 1.414 1_655 S
C1698 C1699 1.374 . S
C1699 H1679 0.950 . S
C1699 C1695 1.385 . S
C1699 C1698 1.374 . S
C1700 C1697 1.499 . S
C1700 C1701 1.373 . S
C1700 C1702 1.389 . S
C1701 H1680 0.950 . S
C1701 C1700 1.373 . S
C1701 C1717 1.377 . S
C1702 C1700 1.389 . S
C1702 C1703 1.524 . S
C1702 C1716 1.377 . S
C1703 C1702 1.524 . S
C1703 C1704 1.397 . S
C1703 C1708 1.363 . S
C1704 H1681 0.950 . S
C1704 C1703 1.397 . S
C1704 C1705 1.334 . S
C1705 H1682 0.950 . S
C1705 C1704 1.334 . S
C1705 C1706 1.287 . S
C1706 C1705 1.287 . S
C1706 C1707 1.524 . S
C1706 H1725 0.913 . S
C1707 H1683 0.950 . S
C1707 C1706 1.524 . S
C1707 C1708 1.415 . S
C1708 H1684 0.950 . S
C1708 C1703 1.363 . S
C1708 C1707 1.415 . S
C1709 H1685 0.951 . S
C1709 C1710 1.366 . S
C1709 C1711 1.388 . S
C1710 C1709 1.366 . S
C1710 C1714 1.385 . S
C1711 H1686 0.951 . S
C1711 C1709 1.388 . S
C1711 C1712 1.366 . S
C1712 C1711 1.366 . S
C1712 C1713 1.414 . S
C1712 C1715 1.499 . S
C1713 H1687 0.950 . S
C1713 C1712 1.414 . S
C1713 C1714 1.374 . S
C1714 H1688 0.950 . S
C1714 C1710 1.385 . S
C1714 C1713 1.374 . S
C1715 C1712 1.499 . S
C1715 C1716 1.373 . S
C1715 C1717 1.389 . S
C1716 H1689 0.950 . S
C1716 C1702 1.377 . S
C1716 C1715 1.373 . S
C1717 C1701 1.377 . S
C1717 C1715 1.389 . S
C1717 C1718 1.524 . S
C1718 C1717 1.524 . S
C1718 C1719 1.397 . S
C1718 C1723 1.363 . S
C1719 H1690 0.950 . S
C1719 C1718 1.397 . S
C1719 C1720 1.334 . S
C1720 H1691 0.950 . S
C1720 C1719 1.334 . S
C1720 C1721 1.287 . S
C1721 C1720 1.287 . S
C1721 C1722 1.524 . S
C1721 H1724 0.999 . S
C1722 H1692 0.950 . S
C1722 C1721 1.524 . S
C1722 C1723 1.415 . S
C1723 H1693 0.950 . S
C1723 C1718 1.363 . S
C1723 C1722 1.415 . S
H1724 C1721 0.999 . S
H1725 C1706 0.913 . S
H1726 C1744 0.951 . S
H1727 C1746 0.951 . S
H1728 C1748 0.950 . S
H1729 C1749 0.950 . S
H1730 C1751 0.950 . S
H1731 C1754 0.950 . S
H1732 C1755 0.950 . S
H1733 C1757 0.950 . S
H1734 C1758 0.950 . S
H1735 C1759 0.951 . S
H1736 C1761 0.951 . S
H1737 C1763 0.950 . S
H1738 C1764 0.950 . S
H1739 C1766 0.950 . S
H1740 C1769 0.950 . S
H1741 C1770 0.950 . S
H1742 C1772 0.950 . S
H1743 C1773 0.950 . S
C1744 H1726 0.951 . S
C1744 C1745 1.366 . S
C1744 C1746 1.388 . S
C1745 C1744 1.366 . S
C1745 C1749 1.385 . S
C1746 H1727 0.951 . S
C1746 C1744 1.388 . S
C1746 C1747 1.366 . S
C1747 C1746 1.366 . S
C1747 C1748 1.414 . S
C1747 C1750 1.499 . S
C1748 H1728 0.950 . S
C1748 C1747 1.414 . S
C1748 C1749 1.374 . S
C1749 H1729 0.950 . S
C1749 C1745 1.385 . S
C1749 C1748 1.374 . S
C1750 C1747 1.499 . S
C1750 C1751 1.373 . S
C1750 C1752 1.389 . S
C1751 H1730 0.950 . S
C1751 C1750 1.373 . S
C1751 C1767 1.377 . S
C1752 C1750 1.389 . S
C1752 C1753 1.524 . S
C1752 C1766 1.377 . S
C1753 C1752 1.524 . S
C1753 C1754 1.397 . S
C1753 C1758 1.363 . S
C1754 H1731 0.950 . S
C1754 C1753 1.397 . S
C1754 C1755 1.334 . S
C1755 H1732 0.950 . S
C1755 C1754 1.334 . S
C1755 C1756 1.287 . S
C1756 C1755 1.287 . S
C1756 C1757 1.524 . S
C1756 H1775 0.913 . S
C1757 H1733 0.950 . S
C1757 C1756 1.524 . S
C1757 C1758 1.415 . S
C1758 H1734 0.950 . S
C1758 C1753 1.363 . S
C1758 C1757 1.415 . S
C1759 H1735 0.951 . S
C1759 C1760 1.366 . S
C1759 C1761 1.388 . S
C1760 C1759 1.366 . S
C1760 C1764 1.385 . S
C1761 H1736 0.951 . S
C1761 C1759 1.388 . S
C1761 C1762 1.366 . S
C1762 C1761 1.366 . S
C1762 C1763 1.414 . S
C1762 C1765 1.499 . S
C1763 H1737 0.950 . S
C1763 C1762 1.414 . S
C1763 C1764 1.374 . S
C1764 H1738 0.950 . S
C1764 C1760 1.385 . S
C1764 C1763 1.374 . S
C1765 C1762 1.499 . S
C1765 C1766 1.373 . S
C1765 C1767 1.389 . S
C1766 H1739 0.950 . S
C1766 C1752 1.377 . S
C1766 C1765 1.373 . S
C1767 C1751 1.377 . S
C1767 C1765 1.389 . S
C1767 C1768 1.524 . S
C1768 C1767 1.524 . S
C1768 C1769 1.397 . S
C1768 C1773 1.363 . S
C1769 H1740 0.950 . S
C1769 C1768 1.397 . S
C1769 C1770 1.334 . S
C1770 H1741 0.950 . S
C1770 C1769 1.334 . S
C1770 C1771 1.287 . S
C1771 C1770 1.287 . S
C1771 C1772 1.524 . S
C1771 H1774 0.999 . S
C1772 H1742 0.950 . S
C1772 C1771 1.524 . S
C1772 C1773 1.415 . S
C1773 H1743 0.950 . S
C1773 C1768 1.363 . S
C1773 C1772 1.415 . S
H1774 C1771 0.999 . S
H1775 C1756 0.913 . S
H1776 C1794 0.951 . S
H1777 C1796 0.951 . S
H1778 C1798 0.950 . S
H1779 C1799 0.950 . S
H1780 C1801 0.950 . S
H1781 C1804 0.950 . S
H1782 C1805 0.950 . S
H1783 C1807 0.950 . S
H1784 C1808 0.950 . S
H1785 C1809 0.951 . S
H1786 C1811 0.951 . S
H1787 C1813 0.950 . S
H1788 C1814 0.950 . S
H1789 C1816 0.950 . S
H1790 C1819 0.950 . S
H1791 C1820 0.950 . S
H1792 C1822 0.950 . S
H1793 C1823 0.950 . S
C1794 H1776 0.951 . S
C1794 C1795 1.366 . S
C1794 C1796 1.388 . S
C1795 C1794 1.366 . S
C1795 C1799 1.385 . S
C1796 H1777 0.951 . S
C1796 C1794 1.388 . S
C1796 C1797 1.366 . S
C1797 C1796 1.366 . S
C1797 C1798 1.414 . S
C1797 C1800 1.499 . S
C1798 H1778 0.950 . S
C1798 C1797 1.414 . S
C1798 C1799 1.374 . S
C1799 H1779 0.950 . S
C1799 C1795 1.385 . S
C1799 C1798 1.374 . S
C1800 C1797 1.499 . S
C1800 C1801 1.373 . S
C1800 C1802 1.389 . S
C1801 H1780 0.950 . S
C1801 C1800 1.373 . S
C1801 C1817 1.377 . S
C1802 C1800 1.389 . S
C1802 C1803 1.524 . S
C1802 C1816 1.377 . S
C1803 C1802 1.524 . S
C1803 C1804 1.397 . S
C1803 C1808 1.363 . S
C1804 H1781 0.950 . S
C1804 C1803 1.397 . S
C1804 C1805 1.334 . S
C1805 H1782 0.950 . S
C1805 C1804 1.334 . S
C1805 C1806 1.287 . S
C1806 C1805 1.287 . S
C1806 C1807 1.524 . S
C1806 H1825 0.913 . S
C1807 H1783 0.950 . S
C1807 C1806 1.524 . S
C1807 C1808 1.415 . S
C1808 H1784 0.950 . S
C1808 C1803 1.363 . S
C1808 C1807 1.415 . S
C1809 H1785 0.951 . S
C1809 C1810 1.366 . S
C1809 C1811 1.388 . S
C1810 C1809 1.366 . S
C1810 C1814 1.385 . S
C1811 H1786 0.951 . S
C1811 C1809 1.388 . S
C1811 C1812 1.366 . S
C1812 C1811 1.366 . S
C1812 C1813 1.414 . S
C1812 C1815 1.499 . S
C1813 H1787 0.950 . S
C1813 C1812 1.414 . S
C1813 C1814 1.374 . S
C1814 H1788 0.950 . S
C1814 C1810 1.385 . S
C1814 C1813 1.374 . S
C1815 C1812 1.499 . S
C1815 C1816 1.373 . S
C1815 C1817 1.389 . S
C1816 H1789 0.950 . S
C1816 C1802 1.377 . S
C1816 C1815 1.373 . S
C1817 C1801 1.377 . S
C1817 C1815 1.389 . S
C1817 C1818 1.524 . S
C1818 C1817 1.524 . S
C1818 C1819 1.397 . S
C1818 C1823 1.363 . S
C1819 H1790 0.950 . S
C1819 C1818 1.397 . S
C1819 C1820 1.334 . S
C1820 H1791 0.950 . S
C1820 C1819 1.334 . S
C1820 C1821 1.287 . S
C1821 C1820 1.287 . S
C1821 C1822 1.524 . S
C1821 H1824 0.999 . S
C1822 H1792 0.950 . S
C1822 C1821 1.524 . S
C1822 C1823 1.415 . S
C1823 H1793 0.950 . S
C1823 C1818 1.363 . S
C1823 C1822 1.415 . S
H1824 C1821 0.999 . S
H1825 C1806 0.913 . S
H1826 C1844 0.951 . S
H1827 C1846 0.951 . S
H1828 C1848 0.950 . S
H1829 C1849 0.950 . S
H1830 C1851 0.950 . S
H1831 C1854 0.950 . S
H1832 C1855 0.950 . S
H1833 C1857 0.950 . S
H1834 C1858 0.950 . S
H1835 C1859 0.951 . S
H1836 C1861 0.951 . S
H1837 C1863 0.950 . S
H1838 C1864 0.950 . S
H1839 C1866 0.950 . S
H1840 C1869 0.950 . S
H1841 C1870 0.950 . S
H1842 C1872 0.950 . S
H1843 C1873 0.950 . S
C1844 H1826 0.951 . S
C1844 C1845 1.366 . S
C1844 C1846 1.388 . S
C1845 C1844 1.366 . S
C1845 C1849 1.385 . S
C1846 H1827 0.951 . S
C1846 C1844 1.388 . S
C1846 C1847 1.366 . S
C1847 C1846 1.366 . S
C1847 C1848 1.414 . S
C1847 C1850 1.499 . S
C1848 H1828 0.950 . S
C1848 C1847 1.414 . S
C1848 C1849 1.374 . S
C1849 H1829 0.950 . S
C1849 C1845 1.385 . S
C1849 C1848 1.374 . S
C1850 C1847 1.499 . S
C1850 C1851 1.373 . S
C1850 C1852 1.389 . S
C1851 H1830 0.950 . S
C1851 C1850 1.373 . S
C1851 C1867 1.377 . S
C1852 C1850 1.389 . S
C1852 C1853 1.524 . S
C1852 C1866 1.377 . S
C1853 C1852 1.524 . S
C1853 C1854 1.397 . S
C1853 C1858 1.363 . S
C1854 H1831 0.950 . S
C1854 C1853 1.397 . S
C1854 C1855 1.334 . S
C1855 H1832 0.950 . S
C1855 C1854 1.334 . S
C1855 C1856 1.287 . S
C1856 C1855 1.287 . S
C1856 C1857 1.524 . S
C1856 H1875 0.913 . S
C1857 H1833 0.950 . S
C1857 C1856 1.524 . S
C1857 C1858 1.415 . S
C1858 H1834 0.950 . S
C1858 C1853 1.363 . S
C1858 C1857 1.415 . S
C1859 H1835 0.951 . S
C1859 C1860 1.366 . S
C1859 C1861 1.388 . S
C1860 C1859 1.366 . S
C1860 C1864 1.385 . S
C1861 H1836 0.951 . S
C1861 C1859 1.388 . S
C1861 C1862 1.366 . S
C1862 C1861 1.366 . S
C1862 C1863 1.414 . S
C1862 C1865 1.499 . S
C1863 H1837 0.950 . S
C1863 C1862 1.414 . S
C1863 C1864 1.374 . S
C1864 H1838 0.950 . S
C1864 C1860 1.385 . S
C1864 C1863 1.374 . S
C1865 C1862 1.499 . S
C1865 C1866 1.373 . S
C1865 C1867 1.389 . S
C1866 H1839 0.950 . S
C1866 C1852 1.377 . S
C1866 C1865 1.373 . S
C1867 C1851 1.377 . S
C1867 C1865 1.389 . S
C1867 C1868 1.524 . S
C1868 C1867 1.524 . S
C1868 C1869 1.397 . S
C1868 C1873 1.363 . S
C1869 H1840 0.950 . S
C1869 C1868 1.397 . S
C1869 C1870 1.334 . S
C1870 H1841 0.950 . S
C1870 C1869 1.334 . S
C1870 C1871 1.287 . S
C1871 C1870 1.287 . S
C1871 C1872 1.524 . S
C1871 H1874 0.999 . S
C1872 H1842 0.950 . S
C1872 C1871 1.524 . S
C1872 C1873 1.415 . S
C1873 H1843 0.950 . S
C1873 C1868 1.363 . S
C1873 C1872 1.415 . S
H1874 C1871 0.999 . S
H1875 C1856 0.913 . S
H1876 C1894 0.951 . S
H1877 C1896 0.951 . S
H1878 C1898 0.950 . S
H1879 C1899 0.950 . S
H1880 C1901 0.950 . S
H1881 C1904 0.950 . S
H1882 C1905 0.950 . S
H1883 C1907 0.950 1_455 S
H1884 C1908 0.950 . S
H1885 C1909 0.951 . S
H1886 C1911 0.951 . S
H1887 C1913 0.950 . S
H1888 C1914 0.950 . S
H1889 C1916 0.950 . S
H1890 C1919 0.950 . S
H1891 C1920 0.950 . S
H1892 C1922 0.950 . S
H1893 C1923 0.950 . S
C1894 H1876 0.951 . S
C1894 C1895 1.366 . S
C1894 C1896 1.388 . S
C1895 C1894 1.366 . S
C1895 C1899 1.385 . S
C1896 H1877 0.951 . S
C1896 C1894 1.388 . S
C1896 C1897 1.366 . S
C1897 C1896 1.366 . S
C1897 C1898 1.414 . S
C1897 C1900 1.499 . S
C1898 H1878 0.950 . S
C1898 C1897 1.414 . S
C1898 C1899 1.374 . S
C1899 H1879 0.950 . S
C1899 C1895 1.385 . S
C1899 C1898 1.374 . S
C1900 C1897 1.499 . S
C1900 C1901 1.373 . S
C1900 C1902 1.389 . S
C1901 H1880 0.950 . S
C1901 C1900 1.373 . S
C1901 C1917 1.377 . S
C1902 C1900 1.389 . S
C1902 C1903 1.524 . S
C1902 C1916 1.377 . S
C1903 C1902 1.524 . S
C1903 C1904 1.397 . S
C1903 C1908 1.363 . S
C1904 H1881 0.950 . S
C1904 C1903 1.397 . S
C1904 C1905 1.334 . S
C1905 H1882 0.950 . S
C1905 C1904 1.334 . S
C1905 C1906 1.287 . S
C1906 C1905 1.287 . S
C1906 C1907 1.524 . S
C1906 H1925 0.913 1_655 S
C1907 H1883 0.950 1_655 S
C1907 C1906 1.524 . S
C1907 C1908 1.415 . S
C1908 H1884 0.950 . S
C1908 C1903 1.363 . S
C1908 C1907 1.415 . S
C1909 H1885 0.951 . S
C1909 C1910 1.366 . S
C1909 C1911 1.388 . S
C1910 C1909 1.366 . S
C1910 C1914 1.385 . S
C1911 H1886 0.951 . S
C1911 C1909 1.388 . S
C1911 C1912 1.366 . S
C1912 C1911 1.366 . S
C1912 C1913 1.414 . S
C1912 C1915 1.499 . S
C1913 H1887 0.950 . S
C1913 C1912 1.414 . S
C1913 C1914 1.374 . S
C1914 H1888 0.950 . S
C1914 C1910 1.385 . S
C1914 C1913 1.374 . S
C1915 C1912 1.499 . S
C1915 C1916 1.373 . S
C1915 C1917 1.389 . S
C1916 H1889 0.950 . S
C1916 C1902 1.377 . S
C1916 C1915 1.373 . S
C1917 C1901 1.377 . S
C1917 C1915 1.389 . S
C1917 C1918 1.524 . S
C1918 C1917 1.524 . S
C1918 C1919 1.397 . S
C1918 C1923 1.363 . S
C1919 H1890 0.950 . S
C1919 C1918 1.397 . S
C1919 C1920 1.334 . S
C1920 H1891 0.950 . S
C1920 C1919 1.334 . S
C1920 C1921 1.287 . S
C1921 C1920 1.287 . S
C1921 C1922 1.524 . S
C1921 H1924 0.999 . S
C1922 H1892 0.950 . S
C1922 C1921 1.524 . S
C1922 C1923 1.415 . S
C1923 H1893 0.950 . S
C1923 C1918 1.363 . S
C1923 C1922 1.415 . S
H1924 C1921 0.999 . S
H1925 C1906 0.913 1_455 S
H1926 C1944 0.951 . S
H1927 C1946 0.951 . S
H1928 C1948 0.950 . S
H1929 C1949 0.950 . S
H1930 C1951 0.950 . S
H1931 C1954 0.950 . S
H1932 C1955 0.950 . S
H1933 C1957 0.950 . S
H1934 C1958 0.950 . S
H1935 C1959 0.951 . S
H1936 C1961 0.951 . S
H1937 C1963 0.950 . S
H1938 C1964 0.950 . S
H1939 C1966 0.950 . S
H1940 C1969 0.950 . S
H1941 C1970 0.950 . S
H1942 C1972 0.950 . S
H1943 C1973 0.950 1_565 S
C1944 H1926 0.951 . S
C1944 C1945 1.366 . S
C1944 C1946 1.388 . S
C1945 C1944 1.366 . S
C1945 C1949 1.385 . S
C1946 H1927 0.951 . S
C1946 C1944 1.388 . S
C1946 C1947 1.366 . S
C1947 C1946 1.366 . S
C1947 C1948 1.414 . S
C1947 C1950 1.499 . S
C1948 H1928 0.950 . S
C1948 C1947 1.414 . S
C1948 C1949 1.374 . S
C1949 H1929 0.950 . S
C1949 C1945 1.385 . S
C1949 C1948 1.374 . S
C1950 C1947 1.499 . S
C1950 C1951 1.373 . S
C1950 C1952 1.389 . S
C1951 H1930 0.950 . S
C1951 C1950 1.373 . S
C1951 C1967 1.377 1_565 S
C1952 C1950 1.389 . S
C1952 C1953 1.524 . S
C1952 C1966 1.377 1_565 S
C1953 C1952 1.524 . S
C1953 C1954 1.397 . S
C1953 C1958 1.363 . S
C1954 H1931 0.950 . S
C1954 C1953 1.397 . S
C1954 C1955 1.334 . S
C1955 H1932 0.950 . S
C1955 C1954 1.334 . S
C1955 C1956 1.287 . S
C1956 C1955 1.287 . S
C1956 C1957 1.524 . S
C1956 H1975 0.913 . S
C1957 H1933 0.950 . S
C1957 C1956 1.524 . S
C1957 C1958 1.415 . S
C1958 H1934 0.950 . S
C1958 C1953 1.363 . S
C1958 C1957 1.415 . S
C1959 H1935 0.951 . S
C1959 C1960 1.366 . S
C1959 C1961 1.388 . S
C1960 C1959 1.366 . S
C1960 C1964 1.385 . S
C1961 H1936 0.951 . S
C1961 C1959 1.388 . S
C1961 C1962 1.366 . S
C1962 C1961 1.366 . S
C1962 C1963 1.414 . S
C1962 C1965 1.499 . S
C1963 H1937 0.950 . S
C1963 C1962 1.414 . S
C1963 C1964 1.374 . S
C1964 H1938 0.950 . S
C1964 C1960 1.385 . S
C1964 C1963 1.374 . S
C1965 C1962 1.499 . S
C1965 C1966 1.373 . S
C1965 C1967 1.389 . S
C1966 H1939 0.950 . S
C1966 C1952 1.377 1_545 S
C1966 C1965 1.373 . S
C1967 C1951 1.377 1_545 S
C1967 C1965 1.389 . S
C1967 C1968 1.524 . S
C1968 C1967 1.524 . S
C1968 C1969 1.397 . S
C1968 C1973 1.363 . S
C1969 H1940 0.950 . S
C1969 C1968 1.397 . S
C1969 C1970 1.334 . S
C1970 H1941 0.950 . S
C1970 C1969 1.334 . S
C1970 C1971 1.287 . S
C1971 C1970 1.287 . S
C1971 C1972 1.524 . S
C1971 H1974 0.999 . S
C1972 H1942 0.950 . S
C1972 C1971 1.524 . S
C1972 C1973 1.415 . S
C1973 H1943 0.950 1_545 S
C1973 C1968 1.363 . S
C1973 C1972 1.415 . S
H1974 C1971 0.999 . S
H1975 C1956 0.913 . S
H1976 C1994 0.951 . S
H1977 C1996 0.951 . S
H1978 C1998 0.950 . S
H1979 C1999 0.950 . S
H1980 C2001 0.950 . S
H1981 C2004 0.950 . S
H1982 C2005 0.950 . S
H1983 C2007 0.950 . S
H1984 C2008 0.950 . S
H1985 C2009 0.951 . S
H1986 C2011 0.951 . S
H1987 C2013 0.950 . S
H1988 C2014 0.950 . S
H1989 C2016 0.950 . S
H1990 C2019 0.955 1_655 S
H1991 C2020 0.950 1_655 S
H1992 C2022 0.950 . S
H1993 C2023 0.950 . S
C1994 H1976 0.951 . S
C1994 C1995 1.366 . S
C1994 C1996 1.388 . S
C1995 C1994 1.366 . S
C1995 C1999 1.385 . S
C1996 H1977 0.951 . S
C1996 C1994 1.388 . S
C1996 C1997 1.366 . S
C1997 C1996 1.366 . S
C1997 C1998 1.414 . S
C1997 C2000 1.499 . S
C1998 H1978 0.950 . S
C1998 C1997 1.414 . S
C1998 C1999 1.374 . S
C1999 H1979 0.950 . S
C1999 C1995 1.385 . S
C1999 C1998 1.374 . S
C2000 C1997 1.499 . S
C2000 C2001 1.373 . S
C2000 C2002 1.389 . S
C2001 H1980 0.950 . S
C2001 C2000 1.373 . S
C2001 C2017 1.377 . S
C2002 C2000 1.389 . S
C2002 C2003 1.533 1_455 S
C2002 C2016 1.377 1_455 S
C2003 C2002 1.533 1_655 S
C2003 C2004 1.392 1_655 S
C2003 C2008 1.362 . S
C2004 H1981 0.950 . S
C2004 C2003 1.392 1_455 S
C2004 C2005 1.334 . S
C2005 H1982 0.950 . S
C2005 C2004 1.334 . S
C2005 C2006 1.287 1_455 S
C2006 C2005 1.287 1_655 S
C2006 C2007 1.524 . S
C2006 H2025 0.913 . S
C2007 H1983 0.950 . S
C2007 C2006 1.524 . S
C2007 C2008 1.415 . S
C2008 H1984 0.950 . S
C2008 C2003 1.362 . S
C2008 C2007 1.415 . S
C2009 H1985 0.951 . S
C2009 C2010 1.366 . S
C2009 C2011 1.388 . S
C2010 C2009 1.366 . S
C2010 C2014 1.385 . S
C2011 H1986 0.951 . S
C2011 C2009 1.388 . S
C2011 C2012 1.366 . S
C2012 C2011 1.366 . S
C2012 C2013 1.414 . S
C2012 C2015 1.499 . S
C2013 H1987 0.950 . S
C2013 C2012 1.414 . S
C2013 C2014 1.374 . S
C2014 H1988 0.950 . S
C2014 C2010 1.385 . S
C2014 C2013 1.374 . S
C2015 C2012 1.499 . S
C2015 C2016 1.373 . S
C2015 C2017 1.389 1_655 S
C2016 H1989 0.950 . S
C2016 C2002 1.377 1_655 S
C2016 C2015 1.373 . S
C2017 C2001 1.377 . S
C2017 C2015 1.389 1_455 S
C2017 C2018 1.524 . S
C2018 C2017 1.524 . S
C2018 C2019 1.406 . S
C2018 C2023 1.363 . S
C2019 H1990 0.955 1_455 S
C2019 C2018 1.406 . S
C2019 C2020 1.322 . S
C2020 H1991 0.950 1_455 S
C2020 C2019 1.322 . S
C2020 C2021 1.287 . S
C2021 C2020 1.287 . S
C2021 C2022 1.524 . S
C2021 H2024 0.999 . S
C2022 H1992 0.950 . S
C2022 C2021 1.524 . S
C2022 C2023 1.415 . S
C2023 H1993 0.950 . S
C2023 C2018 1.363 . S
C2023 C2022 1.415 . S
H2024 C2021 0.999 . S
H2025 C2006 0.913 . S
H2026 C2044 0.951 . S
H2027 C2046 0.951 . S
H2028 C2048 0.950 . S
H2029 C2049 0.950 . S
H2030 C2051 0.950 . S
H2031 C2054 0.950 . S
H2032 C2055 0.950 . S
H2033 C2057 0.950 . S
H2034 C2058 0.950 . S
H2035 C2059 0.951 . S
H2036 C2061 0.951 . S
H2037 C2063 0.950 . S
H2038 C2064 0.950 . S
H2039 C2066 0.950 . S
H2040 C2069 0.950 . S
H2041 C2070 0.950 . S
H2042 C2072 0.950 . S
H2043 C2073 0.950 . S
C2044 H2026 0.951 . S
C2044 C2045 1.366 . S
C2044 C2046 1.388 . S
C2045 C2044 1.366 . S
C2045 C2049 1.385 . S
C2046 H2027 0.951 . S
C2046 C2044 1.388 . S
C2046 C2047 1.366 . S
C2047 C2046 1.366 . S
C2047 C2048 1.414 . S
C2047 C2050 1.499 . S
C2048 H2028 0.950 . S
C2048 C2047 1.414 . S
C2048 C2049 1.374 . S
C2049 H2029 0.950 . S
C2049 C2045 1.385 . S
C2049 C2048 1.374 . S
C2050 C2047 1.499 . S
C2050 C2051 1.373 . S
C2050 C2052 1.389 . S
C2051 H2030 0.950 . S
C2051 C2050 1.373 . S
C2051 C2067 1.377 . S
C2052 C2050 1.389 . S
C2052 C2053 1.524 . S
C2052 C2066 1.377 . S
C2053 C2052 1.524 . S
C2053 C2054 1.397 . S
C2053 C2058 1.363 . S
C2054 H2031 0.950 . S
C2054 C2053 1.397 . S
C2054 C2055 1.334 . S
C2055 H2032 0.950 . S
C2055 C2054 1.334 . S
C2055 C2056 1.287 . S
C2056 C2055 1.287 . S
C2056 C2057 1.524 . S
C2056 H2075 0.913 . S
C2057 H2033 0.950 . S
C2057 C2056 1.524 . S
C2057 C2058 1.415 . S
C2058 H2034 0.950 . S
C2058 C2053 1.363 . S
C2058 C2057 1.415 . S
C2059 H2035 0.951 . S
C2059 C2060 1.366 . S
C2059 C2061 1.388 . S
C2060 C2059 1.366 . S
C2060 C2064 1.385 . S
C2061 H2036 0.951 . S
C2061 C2059 1.388 . S
C2061 C2062 1.366 . S
C2062 C2061 1.366 . S
C2062 C2063 1.414 . S
C2062 C2065 1.499 . S
C2063 H2037 0.950 . S
C2063 C2062 1.414 . S
C2063 C2064 1.374 . S
C2064 H2038 0.950 . S
C2064 C2060 1.385 . S
C2064 C2063 1.374 . S
C2065 C2062 1.499 . S
C2065 C2066 1.373 . S
C2065 C2067 1.389 . S
C2066 H2039 0.950 . S
C2066 C2052 1.377 . S
C2066 C2065 1.373 . S
C2067 C2051 1.377 . S
C2067 C2065 1.389 . S
C2067 C2068 1.524 . S
C2068 C2067 1.524 . S
C2068 C2069 1.397 . S
C2068 C2073 1.363 . S
C2069 H2040 0.950 . S
C2069 C2068 1.397 . S
C2069 C2070 1.334 . S
C2070 H2041 0.950 . S
C2070 C2069 1.334 . S
C2070 C2071 1.287 . S
C2071 C2070 1.287 . S
C2071 C2072 1.524 . S
C2071 H2074 0.999 . S
C2072 H2042 0.950 . S
C2072 C2071 1.524 . S
C2072 C2073 1.415 . S
C2073 H2043 0.950 . S
C2073 C2068 1.363 . S
C2073 C2072 1.415 . S
H2074 C2071 0.999 . S
H2075 C2056 0.913 . S
H2076 C2094 0.951 . S
H2077 C2096 0.951 . S
H2078 C2098 0.950 . S
H2079 C2099 0.950 . S
H2080 C2101 0.950 . S
H2081 C2104 0.950 . S
H2082 C2105 0.949 1_455 S
H2083 C2107 0.950 . S
H2084 C2108 0.950 . S
H2085 C2109 0.951 . S
H2086 C2111 0.951 . S
H2087 C2113 0.950 . S
H2088 C2114 0.950 . S
H2089 C2116 0.950 . S
H2090 C2119 0.950 . S
H2091 C2120 0.950 . S
H2092 C2122 0.950 . S
H2093 C2123 0.950 . S
C2094 H2076 0.951 . S
C2094 C2095 1.366 . S
C2094 C2096 1.388 . S
C2095 C2094 1.366 . S
C2095 C2099 1.385 . S
C2096 H2077 0.951 . S
C2096 C2094 1.388 . S
C2096 C2097 1.366 . S
C2097 C2096 1.366 . S
C2097 C2098 1.414 . S
C2097 C2100 1.499 1_455 S
C2098 H2078 0.950 . S
C2098 C2097 1.414 . S
C2098 C2099 1.374 . S
C2099 H2079 0.950 . S
C2099 C2095 1.385 . S
C2099 C2098 1.374 . S
C2100 C2097 1.499 1_655 S
C2100 C2101 1.373 . S
C2100 C2102 1.389 . S
C2101 H2080 0.950 . S
C2101 C2100 1.373 . S
C2101 C2117 1.377 . S
C2102 C2100 1.389 . S
C2102 C2103 1.524 . S
C2102 C2116 1.377 . S
C2103 C2102 1.524 . S
C2103 C2104 1.397 . S
C2103 C2108 1.363 . S
C2104 H2081 0.950 . S
C2104 C2103 1.397 . S
C2104 C2105 1.336 . S
C2105 H2082 0.949 1_655 S
C2105 C2104 1.336 . S
C2105 C2106 1.290 . S
C2106 C2105 1.290 . S
C2106 C2107 1.528 . S
C2106 H2125 0.903 1_655 S
C2107 H2083 0.950 . S
C2107 C2106 1.528 . S
C2107 C2108 1.415 . S
C2108 H2084 0.950 . S
C2108 C2103 1.363 . S
C2108 C2107 1.415 . S
C2109 H2085 0.951 . S
C2109 C2110 1.366 . S
C2109 C2111 1.388 . S
C2110 C2109 1.366 . S
C2110 C2114 1.385 . S
C2111 H2086 0.951 . S
C2111 C2109 1.388 . S
C2111 C2112 1.366 . S
C2112 C2111 1.366 . S
C2112 C2113 1.414 . S
C2112 C2115 1.499 . S
C2113 H2087 0.950 . S
C2113 C2112 1.414 . S
C2113 C2114 1.374 . S
C2114 H2088 0.950 . S
C2114 C2110 1.385 . S
C2114 C2113 1.374 . S
C2115 C2112 1.499 . S
C2115 C2116 1.373 . S
C2115 C2117 1.389 . S
C2116 H2089 0.950 . S
C2116 C2102 1.377 . S
C2116 C2115 1.373 . S
C2117 C2101 1.377 . S
C2117 C2115 1.389 . S
C2117 C2118 1.524 . S
C2118 C2117 1.524 . S
C2118 C2119 1.397 . S
C2118 C2123 1.363 . S
C2119 H2090 0.950 . S
C2119 C2118 1.397 . S
C2119 C2120 1.334 . S
C2120 H2091 0.950 . S
C2120 C2119 1.334 . S
C2120 C2121 1.287 . S
C2121 C2120 1.287 . S
C2121 C2122 1.524 . S
C2121 H2124 0.999 . S
C2122 H2092 0.950 . S
C2122 C2121 1.524 . S
C2122 C2123 1.415 . S
C2123 H2093 0.950 . S
C2123 C2118 1.363 . S
C2123 C2122 1.415 . S
H2124 C2121 0.999 . S
H2125 C2106 0.903 1_455 S
H2126 C2144 0.951 . S
H2127 C2146 0.951 . S
H2128 C2148 0.950 . S
H2129 C2149 0.950 . S
H2130 C2151 0.950 . S
H2131 C2154 0.950 . S
H2132 C2155 0.950 . S
H2133 C2157 0.950 . S
H2134 C2158 0.950 . S
H2135 C2159 0.951 . S
H2136 C2161 0.951 . S
H2137 C2163 0.950 . S
H2138 C2164 0.950 . S
H2139 C2166 0.950 . S
H2140 C2169 0.950 . S
H2141 C2170 0.950 . S
H2142 C2172 0.950 . S
H2143 C2173 0.950 . S
C2144 H2126 0.951 . S
C2144 C2145 1.366 . S
C2144 C2146 1.388 . S
C2145 C2144 1.366 . S
C2145 C2149 1.385 . S
C2146 H2127 0.951 . S
C2146 C2144 1.388 . S
C2146 C2147 1.366 . S
C2147 C2146 1.366 . S
C2147 C2148 1.414 . S
C2147 C2150 1.499 . S
C2148 H2128 0.950 . S
C2148 C2147 1.414 . S
C2148 C2149 1.374 . S
C2149 H2129 0.950 . S
C2149 C2145 1.385 . S
C2149 C2148 1.374 . S
C2150 C2147 1.499 . S
C2150 C2151 1.373 . S
C2150 C2152 1.389 . S
C2151 H2130 0.950 . S
C2151 C2150 1.373 . S
C2151 C2167 1.377 . S
C2152 C2150 1.389 . S
C2152 C2153 1.524 . S
C2152 C2166 1.377 . S
C2153 C2152 1.524 . S
C2153 C2154 1.397 . S
C2153 C2158 1.363 . S
C2154 H2131 0.950 . S
C2154 C2153 1.397 . S
C2154 C2155 1.334 . S
C2155 H2132 0.950 . S
C2155 C2154 1.334 . S
C2155 C2156 1.287 . S
C2156 C2155 1.287 . S
C2156 C2157 1.524 . S
C2156 H2175 0.913 . S
C2157 H2133 0.950 . S
C2157 C2156 1.524 . S
C2157 C2158 1.415 . S
C2158 H2134 0.950 . S
C2158 C2153 1.363 . S
C2158 C2157 1.415 . S
C2159 H2135 0.951 . S
C2159 C2160 1.366 . S
C2159 C2161 1.388 . S
C2160 C2159 1.366 . S
C2160 C2164 1.385 . S
C2161 H2136 0.951 . S
C2161 C2159 1.388 . S
C2161 C2162 1.366 . S
C2162 C2161 1.366 . S
C2162 C2163 1.414 . S
C2162 C2165 1.499 . S
C2163 H2137 0.950 . S
C2163 C2162 1.414 . S
C2163 C2164 1.374 . S
C2164 H2138 0.950 . S
C2164 C2160 1.385 . S
C2164 C2163 1.374 . S
C2165 C2162 1.499 . S
C2165 C2166 1.373 . S
C2165 C2167 1.389 . S
C2166 H2139 0.950 . S
C2166 C2152 1.377 . S
C2166 C2165 1.373 . S
C2167 C2151 1.377 . S
C2167 C2165 1.389 . S
C2167 C2168 1.524 . S
C2168 C2167 1.524 . S
C2168 C2169 1.397 . S
C2168 C2173 1.363 . S
C2169 H2140 0.950 . S
C2169 C2168 1.397 . S
C2169 C2170 1.334 . S
C2170 H2141 0.950 . S
C2170 C2169 1.334 . S
C2170 C2171 1.287 . S
C2171 C2170 1.287 . S
C2171 C2172 1.524 . S
C2171 H2174 0.999 . S
C2172 H2142 0.950 . S
C2172 C2171 1.524 . S
C2172 C2173 1.415 . S
C2173 H2143 0.950 . S
C2173 C2168 1.363 . S
C2173 C2172 1.415 . S
H2174 C2171 0.999 . S
H2175 C2156 0.913 . S
H2176 C2194 0.951 . S
H2177 C2196 0.951 . S
H2178 C2198 0.950 . S
H2179 C2199 0.950 . S
H2180 C2201 0.950 . S
H2181 C2204 0.950 . S
H2182 C2205 0.950 1_565 S
H2183 C2207 0.950 . S
H2184 C2208 0.950 . S
H2185 C2209 0.951 . S
H2186 C2211 0.951 . S
H2187 C2213 0.950 . S
H2188 C2214 0.950 . S
H2189 C2216 0.950 . S
H2190 C2219 0.950 . S
H2191 C2220 0.950 . S
H2192 C2222 0.950 . S
H2193 C2223 0.950 . S
C2194 H2176 0.951 . S
C2194 C2195 1.366 . S
C2194 C2196 1.388 . S
C2195 C2194 1.366 . S
C2195 C2199 1.385 . S
C2196 H2177 0.951 . S
C2196 C2194 1.388 . S
C2196 C2197 1.366 . S
C2197 C2196 1.366 . S
C2197 C2198 1.414 . S
C2197 C2200 1.499 1_565 S
C2198 H2178 0.950 . S
C2198 C2197 1.414 . S
C2198 C2199 1.374 . S
C2199 H2179 0.950 . S
C2199 C2195 1.385 . S
C2199 C2198 1.374 . S
C2200 C2197 1.499 1_545 S
C2200 C2201 1.373 . S
C2200 C2202 1.389 . S
C2201 H2180 0.950 . S
C2201 C2200 1.373 . S
C2201 C2217 1.377 . S
C2202 C2200 1.389 . S
C2202 C2203 1.524 . S
C2202 C2216 1.377 . S
C2203 C2202 1.524 . S
C2203 C2204 1.397 . S
C2203 C2208 1.363 . S
C2204 H2181 0.950 . S
C2204 C2203 1.397 . S
C2204 C2205 1.334 . S
C2205 H2182 0.950 1_545 S
C2205 C2204 1.334 . S
C2205 C2206 1.287 . S
C2206 C2205 1.287 . S
C2206 C2207 1.524 . S
C2206 H2225 0.907 1_545 S
C2207 H2183 0.950 . S
C2207 C2206 1.524 . S
C2207 C2208 1.415 . S
C2208 H2184 0.950 . S
C2208 C2203 1.363 . S
C2208 C2207 1.415 . S
C2209 H2185 0.951 . S
C2209 C2210 1.366 . S
C2209 C2211 1.388 . S
C2210 C2209 1.366 . S
C2210 C2214 1.385 . S
C2211 H2186 0.951 . S
C2211 C2209 1.388 . S
C2211 C2212 1.366 . S
C2212 C2211 1.366 . S
C2212 C2213 1.414 . S
C2212 C2215 1.499 . S
C2213 H2187 0.950 . S
C2213 C2212 1.414 . S
C2213 C2214 1.374 . S
C2214 H2188 0.950 . S
C2214 C2210 1.385 . S
C2214 C2213 1.374 . S
C2215 C2212 1.499 . S
C2215 C2216 1.373 . S
C2215 C2217 1.389 . S
C2216 H2189 0.950 . S
C2216 C2202 1.377 . S
C2216 C2215 1.373 . S
C2217 C2201 1.377 . S
C2217 C2215 1.389 . S
C2217 C2218 1.524 . S
C2218 C2217 1.524 . S
C2218 C2219 1.397 . S
C2218 C2223 1.363 . S
C2219 H2190 0.950 . S
C2219 C2218 1.397 . S
C2219 C2220 1.334 . S
C2220 H2191 0.950 . S
C2220 C2219 1.334 . S
C2220 C2221 1.287 . S
C2221 C2220 1.287 . S
C2221 C2222 1.524 . S
C2221 H2224 0.999 . S
C2222 H2192 0.950 . S
C2222 C2221 1.524 . S
C2222 C2223 1.415 . S
C2223 H2193 0.950 . S
C2223 C2218 1.363 . S
C2223 C2222 1.415 . S
H2224 C2221 0.999 . S
H2225 C2206 0.907 1_565 S
H2226 C2244 0.951 . S
H2227 C2246 0.951 . S
H2228 C2248 0.950 . S
H2229 C2249 0.950 . S
H2230 C2251 0.950 . S
H2231 C2254 0.950 . S
H2232 C2255 0.950 . S
H2233 C2257 0.950 . S
H2234 C2258 0.950 . S
H2235 C2259 0.951 . S
H2236 C2261 0.951 . S
H2237 C2263 0.950 . S
H2238 C2264 0.950 . S
H2239 C2266 0.950 . S
H2240 C2269 0.950 . S
H2241 C2270 0.950 . S
H2242 C2272 0.950 . S
H2243 C2273 0.950 . S
C2244 H2226 0.951 . S
C2244 C2245 1.366 . S
C2244 C2246 1.388 . S
C2245 C2244 1.366 . S
C2245 C2249 1.385 . S
C2246 H2227 0.951 . S
C2246 C2244 1.388 . S
C2246 C2247 1.366 . S
C2247 C2246 1.366 . S
C2247 C2248 1.414 . S
C2247 C2250 1.499 . S
C2248 H2228 0.950 . S
C2248 C2247 1.414 . S
C2248 C2249 1.374 . S
C2249 H2229 0.950 . S
C2249 C2245 1.385 . S
C2249 C2248 1.374 . S
C2250 C2247 1.499 . S
C2250 C2251 1.373 . S
C2250 C2252 1.389 . S
C2251 H2230 0.950 . S
C2251 C2250 1.373 . S
C2251 C2267 1.377 . S
C2252 C2250 1.389 . S
C2252 C2253 1.524 . S
C2252 C2266 1.377 . S
C2253 C2252 1.524 . S
C2253 C2254 1.397 . S
C2253 C2258 1.363 . S
C2254 H2231 0.950 . S
C2254 C2253 1.397 . S
C2254 C2255 1.334 . S
C2255 H2232 0.950 . S
C2255 C2254 1.334 . S
C2255 C2256 1.287 . S
C2256 C2255 1.287 . S
C2256 C2257 1.524 . S
C2256 H2275 0.913 . S
C2257 H2233 0.950 . S
C2257 C2256 1.524 . S
C2257 C2258 1.415 . S
C2258 H2234 0.950 . S
C2258 C2253 1.363 . S
C2258 C2257 1.415 . S
C2259 H2235 0.951 . S
C2259 C2260 1.366 . S
C2259 C2261 1.388 . S
C2260 C2259 1.366 . S
C2260 C2264 1.385 . S
C2261 H2236 0.951 . S
C2261 C2259 1.388 . S
C2261 C2262 1.366 . S
C2262 C2261 1.366 . S
C2262 C2263 1.414 . S
C2262 C2265 1.499 . S
C2263 H2237 0.950 . S
C2263 C2262 1.414 . S
C2263 C2264 1.374 . S
C2264 H2238 0.950 . S
C2264 C2260 1.385 . S
C2264 C2263 1.374 . S
C2265 C2262 1.499 . S
C2265 C2266 1.373 . S
C2265 C2267 1.389 . S
C2266 H2239 0.950 . S
C2266 C2252 1.377 . S
C2266 C2265 1.373 . S
C2267 C2251 1.377 . S
C2267 C2265 1.389 . S
C2267 C2268 1.524 . S
C2268 C2267 1.524 . S
C2268 C2269 1.397 . S
C2268 C2273 1.363 . S
C2269 H2240 0.950 . S
C2269 C2268 1.397 . S
C2269 C2270 1.334 . S
C2270 H2241 0.950 . S
C2270 C2269 1.334 . S
C2270 C2271 1.287 . S
C2271 C2270 1.287 . S
C2271 C2272 1.524 . S
C2271 H2274 0.999 . S
C2272 H2242 0.950 . S
C2272 C2271 1.524 . S
C2272 C2273 1.415 . S
C2273 H2243 0.950 . S
C2273 C2268 1.363 . S
C2273 C2272 1.415 . S
H2274 C2271 0.999 . S
H2275 C2256 0.913 . S
H2276 C2294 0.951 . S
H2277 C2296 0.951 . S
H2278 C2298 0.950 . S
H2279 C2299 0.950 . S
H2280 C2301 0.950 . S
H2281 C2304 0.950 . S
H2282 C2305 0.950 . S
H2283 C2307 0.950 . S
H2284 C2308 0.950 . S
H2285 C2309 0.951 . S
H2286 C2311 0.951 . S
H2287 C2313 0.950 . S
H2288 C2314 0.950 . S
H2289 C2316 0.950 . S
H2290 C2319 0.950 . S
H2291 C2320 0.950 . S
H2292 C2322 0.950 . S
H2293 C2323 0.950 . S
C2294 H2276 0.951 . S
C2294 C2295 1.366 . S
C2294 C2296 1.388 . S
C2295 C2294 1.366 . S
C2295 C2299 1.385 . S
C2296 H2277 0.951 . S
C2296 C2294 1.388 . S
C2296 C2297 1.366 . S
C2297 C2296 1.366 . S
C2297 C2298 1.414 . S
C2297 C2300 1.499 . S
C2298 H2278 0.950 . S
C2298 C2297 1.414 . S
C2298 C2299 1.374 . S
C2299 H2279 0.950 . S
C2299 C2295 1.385 . S
C2299 C2298 1.374 . S
C2300 C2297 1.499 . S
C2300 C2301 1.373 . S
C2300 C2302 1.389 . S
C2301 H2280 0.950 . S
C2301 C2300 1.373 . S
C2301 C2317 1.377 . S
C2302 C2300 1.389 . S
C2302 C2303 1.524 . S
C2302 C2316 1.377 . S
C2303 C2302 1.524 . S
C2303 C2304 1.397 . S
C2303 C2308 1.363 . S
C2304 H2281 0.950 . S
C2304 C2303 1.397 . S
C2304 C2305 1.334 . S
C2305 H2282 0.950 . S
C2305 C2304 1.334 . S
C2305 C2306 1.287 . S
C2306 C2305 1.287 . S
C2306 C2307 1.524 . S
C2306 H2325 0.913 . S
C2307 H2283 0.950 . S
C2307 C2306 1.524 . S
C2307 C2308 1.415 . S
C2308 H2284 0.950 . S
C2308 C2303 1.363 . S
C2308 C2307 1.415 . S
C2309 H2285 0.951 . S
C2309 C2310 1.366 . S
C2309 C2311 1.388 . S
C2310 C2309 1.366 . S
C2310 C2314 1.385 . S
C2311 H2286 0.951 . S
C2311 C2309 1.388 . S
C2311 C2312 1.366 . S
C2312 C2311 1.366 . S
C2312 C2313 1.414 . S
C2312 C2315 1.499 . S
C2313 H2287 0.950 . S
C2313 C2312 1.414 . S
C2313 C2314 1.374 . S
C2314 H2288 0.950 . S
C2314 C2310 1.385 . S
C2314 C2313 1.374 . S
C2315 C2312 1.499 . S
C2315 C2316 1.373 . S
C2315 C2317 1.389 . S
C2316 H2289 0.950 . S
C2316 C2302 1.377 . S
C2316 C2315 1.373 . S
C2317 C2301 1.377 . S
C2317 C2315 1.389 . S
C2317 C2318 1.524 . S
C2318 C2317 1.524 . S
C2318 C2319 1.397 . S
C2318 C2323 1.363 . S
C2319 H2290 0.950 . S
C2319 C2318 1.397 . S
C2319 C2320 1.334 . S
C2320 H2291 0.950 . S
C2320 C2319 1.334 . S
C2320 C2321 1.287 . S
C2321 C2320 1.287 . S
C2321 C2322 1.524 . S
C2321 H2324 0.999 . S
C2322 H2292 0.950 . S
C2322 C2321 1.524 . S
C2322 C2323 1.415 . S
C2323 H2293 0.950 . S
C2323 C2318 1.363 . S
C2323 C2322 1.415 . S
H2324 C2321 0.999 . S
H2325 C2306 0.913 . S
H2326 C2344 0.951 . S
H2327 C2346 0.951 . S
H2328 C2348 0.950 . S
H2329 C2349 0.950 . S
H2330 C2351 0.950 . S
H2331 C2354 0.950 . S
H2332 C2355 0.950 . S
H2333 C2357 0.950 . S
H2334 C2358 0.950 . S
H2335 C2359 0.951 . S
H2336 C2361 0.951 . S
H2337 C2363 0.950 . S
H2338 C2364 0.950 . S
H2339 C2366 0.950 . S
H2340 C2369 0.950 . S
H2341 C2370 0.950 . S
H2342 C2372 0.950 . S
H2343 C2373 0.950 . S
C2344 H2326 0.951 . S
C2344 C2345 1.366 . S
C2344 C2346 1.388 . S
C2345 C2344 1.366 . S
C2345 C2349 1.385 . S
C2346 H2327 0.951 . S
C2346 C2344 1.388 . S
C2346 C2347 1.366 . S
C2347 C2346 1.366 . S
C2347 C2348 1.414 . S
C2347 C2350 1.499 . S
C2348 H2328 0.950 . S
C2348 C2347 1.414 . S
C2348 C2349 1.374 . S
C2349 H2329 0.950 . S
C2349 C2345 1.385 . S
C2349 C2348 1.374 . S
C2350 C2347 1.499 . S
C2350 C2351 1.373 . S
C2350 C2352 1.389 . S
C2351 H2330 0.950 . S
C2351 C2350 1.373 . S
C2351 C2367 1.377 . S
C2352 C2350 1.389 . S
C2352 C2353 1.524 . S
C2352 C2366 1.377 . S
C2353 C2352 1.524 . S
C2353 C2354 1.397 . S
C2353 C2358 1.363 . S
C2354 H2331 0.950 . S
C2354 C2353 1.397 . S
C2354 C2355 1.334 . S
C2355 H2332 0.950 . S
C2355 C2354 1.334 . S
C2355 C2356 1.287 . S
C2356 C2355 1.287 . S
C2356 C2357 1.524 . S
C2356 H2375 0.913 . S
C2357 H2333 0.950 . S
C2357 C2356 1.524 . S
C2357 C2358 1.415 . S
C2358 H2334 0.950 . S
C2358 C2353 1.363 . S
C2358 C2357 1.415 . S
C2359 H2335 0.951 . S
C2359 C2360 1.366 . S
C2359 C2361 1.388 . S
C2360 C2359 1.366 . S
C2360 C2364 1.385 . S
C2361 H2336 0.951 . S
C2361 C2359 1.388 . S
C2361 C2362 1.366 . S
C2362 C2361 1.366 . S
C2362 C2363 1.414 . S
C2362 C2365 1.499 . S
C2363 H2337 0.950 . S
C2363 C2362 1.414 . S
C2363 C2364 1.374 . S
C2364 H2338 0.950 . S
C2364 C2360 1.385 . S
C2364 C2363 1.374 . S
C2365 C2362 1.499 . S
C2365 C2366 1.373 . S
C2365 C2367 1.389 . S
C2366 H2339 0.950 . S
C2366 C2352 1.377 . S
C2366 C2365 1.373 . S
C2367 C2351 1.377 . S
C2367 C2365 1.389 . S
C2367 C2368 1.524 . S
C2368 C2367 1.524 . S
C2368 C2369 1.397 . S
C2368 C2373 1.363 . S
C2369 H2340 0.950 . S
C2369 C2368 1.397 . S
C2369 C2370 1.334 . S
C2370 H2341 0.950 . S
C2370 C2369 1.334 . S
C2370 C2371 1.287 . S
C2371 C2370 1.287 . S
C2371 C2372 1.524 . S
C2371 H2374 0.999 . S
C2372 H2342 0.950 . S
C2372 C2371 1.524 . S
C2372 C2373 1.415 . S
C2373 H2343 0.950 . S
C2373 C2368 1.363 . S
C2373 C2372 1.415 . S
H2374 C2371 0.999 . S
H2375 C2356 0.913 . S
H2376 C2394 0.951 . S
H2377 C2396 0.951 . S
H2378 C2398 0.950 . S
H2379 C2399 0.950 . S
H2380 C2401 0.950 . S
H2381 C2404 0.950 . S
H2382 C2405 0.950 . S
H2383 C2407 0.950 . S
H2384 C2408 0.950 . S
H2385 C2409 0.951 . S
H2386 C2411 0.951 . S
H2387 C2413 0.950 . S
H2388 C2414 0.950 . S
H2389 C2416 0.950 . S
H2390 C2419 0.950 . S
H2391 C2420 0.950 . S
H2392 C2422 0.950 . S
H2393 C2423 0.950 . S
C2394 H2376 0.951 . S
C2394 C2395 1.366 . S
C2394 C2396 1.388 . S
C2395 C2394 1.366 . S
C2395 C2399 1.385 . S
C2396 H2377 0.951 . S
C2396 C2394 1.388 . S
C2396 C2397 1.366 . S
C2397 C2396 1.366 . S
C2397 C2398 1.414 . S
C2397 C2400 1.499 . S
C2398 H2378 0.950 . S
C2398 C2397 1.414 . S
C2398 C2399 1.374 . S
C2399 H2379 0.950 . S
C2399 C2395 1.385 . S
C2399 C2398 1.374 . S
C2400 C2397 1.499 . S
C2400 C2401 1.373 . S
C2400 C2402 1.389 . S
C2401 H2380 0.950 . S
C2401 C2400 1.373 . S
C2401 C2417 1.377 . S
C2402 C2400 1.389 . S
C2402 C2403 1.524 . S
C2402 C2416 1.377 . S
C2403 C2402 1.524 . S
C2403 C2404 1.397 . S
C2403 C2408 1.363 1_565 S
C2404 H2381 0.950 . S
C2404 C2403 1.397 . S
C2404 C2405 1.334 . S
C2405 H2382 0.950 . S
C2405 C2404 1.334 . S
C2405 C2406 1.287 1_565 S
C2406 C2405 1.287 1_545 S
C2406 C2407 1.524 . S
C2406 H2425 0.913 . S
C2407 H2383 0.950 . S
C2407 C2406 1.524 . S
C2407 C2408 1.415 . S
C2408 H2384 0.950 . S
C2408 C2403 1.363 1_545 S
C2408 C2407 1.415 . S
C2409 H2385 0.951 . S
C2409 C2410 1.366 . S
C2409 C2411 1.388 . S
C2410 C2409 1.366 . S
C2410 C2414 1.385 . S
C2411 H2386 0.951 . S
C2411 C2409 1.388 . S
C2411 C2412 1.366 . S
C2412 C2411 1.366 . S
C2412 C2413 1.414 . S
C2412 C2415 1.499 . S
C2413 H2387 0.950 . S
C2413 C2412 1.414 . S
C2413 C2414 1.374 . S
C2414 H2388 0.950 . S
C2414 C2410 1.385 . S
C2414 C2413 1.374 . S
C2415 C2412 1.499 . S
C2415 C2416 1.373 . S
C2415 C2417 1.389 . S
C2416 H2389 0.950 . S
C2416 C2402 1.377 . S
C2416 C2415 1.373 . S
C2417 C2401 1.377 . S
C2417 C2415 1.389 . S
C2417 C2418 1.524 . S
C2418 C2417 1.524 . S
C2418 C2419 1.397 . S
C2418 C2423 1.363 . S
C2419 H2390 0.950 . S
C2419 C2418 1.397 . S
C2419 C2420 1.334 . S
C2420 H2391 0.950 . S
C2420 C2419 1.334 . S
C2420 C2421 1.287 . S
C2421 C2420 1.287 . S
C2421 C2422 1.524 . S
C2421 H2424 0.999 . S
C2422 H2392 0.950 . S
C2422 C2421 1.524 . S
C2422 C2423 1.415 . S
C2423 H2393 0.950 . S
C2423 C2418 1.363 . S
C2423 C2422 1.415 . S
H2424 C2421 0.999 . S
H2425 C2406 0.913 . S
H2426 C2444 0.951 . S
H2427 C2446 0.951 . S
H2428 C2448 0.950 . S
H2429 C2449 0.950 . S
H2430 C2451 0.950 . S
H2431 C2454 0.950 . S
H2432 C2455 0.950 . S
H2433 C2457 0.950 . S
H2434 C2458 0.950 . S
H2435 C2459 0.951 . S
H2436 C2461 0.951 . S
H2437 C2463 0.950 . S
H2438 C2464 0.950 . S
H2439 C2466 0.950 . S
H2440 C2469 0.950 . S
H2441 C2470 0.950 . S
H2442 C2472 0.950 . S
H2443 C2473 0.950 . S
C2444 H2426 0.951 . S
C2444 C2445 1.366 . S
C2444 C2446 1.388 . S
C2445 C2444 1.366 . S
C2445 C2449 1.385 . S
C2446 H2427 0.951 . S
C2446 C2444 1.388 . S
C2446 C2447 1.366 . S
C2447 C2446 1.366 . S
C2447 C2448 1.414 . S
C2447 C2450 1.499 . S
C2448 H2428 0.950 . S
C2448 C2447 1.414 . S
C2448 C2449 1.374 . S
C2449 H2429 0.950 . S
C2449 C2445 1.385 . S
C2449 C2448 1.374 . S
C2450 C2447 1.499 . S
C2450 C2451 1.373 . S
C2450 C2452 1.389 . S
C2451 H2430 0.950 . S
C2451 C2450 1.373 . S
C2451 C2467 1.377 . S
C2452 C2450 1.389 . S
C2452 C2453 1.524 . S
C2452 C2466 1.377 . S
C2453 C2452 1.524 . S
C2453 C2454 1.397 . S
C2453 C2458 1.363 . S
C2454 H2431 0.950 . S
C2454 C2453 1.397 . S
C2454 C2455 1.334 . S
C2455 H2432 0.950 . S
C2455 C2454 1.334 . S
C2455 C2456 1.287 . S
C2456 C2455 1.287 . S
C2456 C2457 1.524 . S
C2456 H2475 0.913 . S
C2457 H2433 0.950 . S
C2457 C2456 1.524 . S
C2457 C2458 1.415 . S
C2458 H2434 0.950 . S
C2458 C2453 1.363 . S
C2458 C2457 1.415 . S
C2459 H2435 0.951 . S
C2459 C2460 1.366 . S
C2459 C2461 1.388 . S
C2460 C2459 1.366 . S
C2460 C2464 1.385 . S
C2461 H2436 0.951 . S
C2461 C2459 1.388 . S
C2461 C2462 1.366 . S
C2462 C2461 1.366 . S
C2462 C2463 1.414 . S
C2462 C2465 1.499 . S
C2463 H2437 0.950 . S
C2463 C2462 1.414 . S
C2463 C2464 1.374 . S
C2464 H2438 0.950 . S
C2464 C2460 1.385 . S
C2464 C2463 1.374 . S
C2465 C2462 1.499 . S
C2465 C2466 1.373 . S
C2465 C2467 1.389 . S
C2466 H2439 0.950 . S
C2466 C2452 1.377 . S
C2466 C2465 1.373 . S
C2467 C2451 1.377 . S
C2467 C2465 1.389 . S
C2467 C2468 1.524 . S
C2468 C2467 1.524 . S
C2468 C2469 1.397 . S
C2468 C2473 1.363 1_455 S
C2469 H2440 0.950 . S
C2469 C2468 1.397 . S
C2469 C2470 1.334 1_455 S
C2470 H2441 0.950 . S
C2470 C2469 1.334 1_655 S
C2470 C2471 1.287 . S
C2471 C2470 1.287 . S
C2471 C2472 1.524 . S
C2471 H2474 0.999 . S
C2472 H2442 0.950 . S
C2472 C2471 1.524 . S
C2472 C2473 1.415 . S
C2473 H2443 0.950 . S
C2473 C2468 1.363 1_655 S
C2473 C2472 1.415 . S
H2474 C2471 0.999 . S
H2475 C2456 0.913 . S
H2476 C2494 0.951 . S
H2477 C2496 0.951 . S
H2478 C2498 0.950 . S
H2479 C2499 0.950 . S
H2480 C2501 0.950 . S
H2481 C2504 0.950 . S
H2482 C2505 0.950 . S
H2483 C2507 0.950 . S
H2484 C2508 0.950 . S
H2485 C2509 0.951 . S
H2486 C2511 0.951 . S
H2487 C2513 0.950 . S
H2488 C2514 0.950 . S
H2489 C2516 0.950 . S
H2490 C2519 0.950 . S
H2491 C2520 0.950 . S
H2492 C2522 0.950 . S
H2493 C2523 0.950 . S
C2494 H2476 0.951 . S
C2494 C2495 1.366 . S
C2494 C2496 1.388 . S
C2495 C2494 1.366 . S
C2495 C2499 1.385 . S
C2496 H2477 0.951 . S
C2496 C2494 1.388 . S
C2496 C2497 1.366 . S
C2497 C2496 1.366 . S
C2497 C2498 1.414 . S
C2497 C2500 1.499 . S
C2498 H2478 0.950 . S
C2498 C2497 1.414 . S
C2498 C2499 1.374 . S
C2499 H2479 0.950 . S
C2499 C2495 1.385 . S
C2499 C2498 1.374 . S
C2500 C2497 1.499 . S
C2500 C2501 1.373 . S
C2500 C2502 1.389 . S
C2501 H2480 0.950 . S
C2501 C2500 1.373 . S
C2501 C2517 1.377 . S
C2502 C2500 1.389 . S
C2502 C2503 1.524 . S
C2502 C2516 1.377 . S
C2503 C2502 1.524 . S
C2503 C2504 1.397 . S
C2503 C2508 1.363 . S
C2504 H2481 0.950 . S
C2504 C2503 1.397 . S
C2504 C2505 1.334 . S
C2505 H2482 0.950 . S
C2505 C2504 1.334 . S
C2505 C2506 1.287 . S
C2506 C2505 1.287 . S
C2506 C2507 1.524 . S
C2506 H2525 0.913 . S
C2507 H2483 0.950 . S
C2507 C2506 1.524 . S
C2507 C2508 1.415 . S
C2508 H2484 0.950 . S
C2508 C2503 1.363 . S
C2508 C2507 1.415 . S
C2509 H2485 0.951 . S
C2509 C2510 1.366 . S
C2509 C2511 1.388 . S
C2510 C2509 1.366 . S
C2510 C2514 1.385 . S
C2511 H2486 0.951 . S
C2511 C2509 1.388 . S
C2511 C2512 1.366 . S
C2512 C2511 1.366 . S
C2512 C2513 1.414 . S
C2512 C2515 1.499 . S
C2513 H2487 0.950 . S
C2513 C2512 1.414 . S
C2513 C2514 1.374 . S
C2514 H2488 0.950 . S
C2514 C2510 1.385 . S
C2514 C2513 1.374 . S
C2515 C2512 1.499 . S
C2515 C2516 1.373 . S
C2515 C2517 1.389 . S
C2516 H2489 0.950 . S
C2516 C2502 1.377 . S
C2516 C2515 1.373 . S
C2517 C2501 1.377 . S
C2517 C2515 1.389 . S
C2517 C2518 1.524 . S
C2518 C2517 1.524 . S
C2518 C2519 1.397 . S
C2518 C2523 1.363 . S
C2519 H2490 0.950 . S
C2519 C2518 1.397 . S
C2519 C2520 1.334 . S
C2520 H2491 0.950 . S
C2520 C2519 1.334 . S
C2520 C2521 1.287 . S
C2521 C2520 1.287 . S
C2521 C2522 1.524 . S
C2521 H2524 0.999 . S
C2522 H2492 0.950 . S
C2522 C2521 1.524 . S
C2522 C2523 1.415 . S
C2523 H2493 0.950 . S
C2523 C2518 1.363 . S
C2523 C2522 1.415 . S
H2524 C2521 0.999 . S
H2525 C2506 0.913 . S
H2526 C2544 0.951 . S
H2527 C2546 0.951 . S
H2528 C2548 0.950 . S
H2529 C2549 0.950 . S
H2530 C2551 0.950 . S
H2531 C2554 0.950 1_655 S
H2532 C2555 0.950 . S
H2533 C2557 0.950 . S
H2534 C2558 0.950 . S
H2535 C2559 0.951 . S
H2536 C2561 0.951 . S
H2537 C2563 0.950 . S
H2538 C2564 0.950 . S
H2539 C2566 0.950 . S
H2540 C2569 0.950 . S
H2541 C2570 0.950 . S
H2542 C2572 0.950 . S
H2543 C2573 0.950 . S
C2544 H2526 0.951 . S
C2544 C2545 1.366 . S
C2544 C2546 1.388 . S
C2545 C2544 1.366 . S
C2545 C2549 1.385 . S
C2546 H2527 0.951 . S
C2546 C2544 1.388 . S
C2546 C2547 1.366 . S
C2547 C2546 1.366 . S
C2547 C2548 1.414 . S
C2547 C2550 1.499 . S
C2548 H2528 0.950 . S
C2548 C2547 1.414 . S
C2548 C2549 1.374 . S
C2549 H2529 0.950 . S
C2549 C2545 1.385 . S
C2549 C2548 1.374 . S
C2550 C2547 1.499 . S
C2550 C2551 1.373 . S
C2550 C2552 1.389 . S
C2551 H2530 0.950 . S
C2551 C2550 1.373 . S
C2551 C2567 1.377 . S
C2552 C2550 1.389 . S
C2552 C2553 1.509 1_655 S
C2552 C2566 1.377 . S
C2553 C2552 1.509 1_455 S
C2553 C2554 1.407 . S
C2553 C2558 1.369 . S
C2554 H2531 0.950 1_455 S
C2554 C2553 1.407 . S
C2554 C2555 1.334 . S
C2555 H2532 0.950 . S
C2555 C2554 1.334 . S
C2555 C2556 1.287 . S
C2556 C2555 1.287 . S
C2556 C2557 1.524 . S
C2556 H2575 0.913 . S
C2557 H2533 0.950 . S
C2557 C2556 1.524 . S
C2557 C2558 1.415 . S
C2558 H2534 0.950 . S
C2558 C2553 1.369 . S
C2558 C2557 1.415 . S
C2559 H2535 0.951 . S
C2559 C2560 1.366 . S
C2559 C2561 1.388 . S
C2560 C2559 1.366 . S
C2560 C2564 1.385 . S
C2561 H2536 0.951 . S
C2561 C2559 1.388 . S
C2561 C2562 1.366 . S
C2562 C2561 1.366 . S
C2562 C2563 1.414 . S
C2562 C2565 1.499 . S
C2563 H2537 0.950 . S
C2563 C2562 1.414 . S
C2563 C2564 1.374 . S
C2564 H2538 0.950 . S
C2564 C2560 1.385 . S
C2564 C2563 1.374 . S
C2565 C2562 1.499 . S
C2565 C2566 1.373 . S
C2565 C2567 1.389 . S
C2566 H2539 0.950 . S
C2566 C2552 1.377 . S
C2566 C2565 1.373 . S
C2567 C2551 1.377 . S
C2567 C2565 1.389 . S
C2567 C2568 1.524 . S
C2568 C2567 1.524 . S
C2568 C2569 1.397 . S
C2568 C2573 1.363 . S
C2569 H2540 0.950 . S
C2569 C2568 1.397 . S
C2569 C2570 1.334 . S
C2570 H2541 0.950 . S
C2570 C2569 1.334 . S
C2570 C2571 1.287 . S
C2571 C2570 1.287 . S
C2571 C2572 1.524 . S
C2571 H2574 0.999 . S
C2572 H2542 0.950 . S
C2572 C2571 1.524 . S
C2572 C2573 1.415 . S
C2573 H2543 0.950 . S
C2573 C2568 1.363 . S
C2573 C2572 1.415 . S
H2574 C2571 0.999 . S
H2575 C2556 0.913 . S
H2576 C2594 0.951 . S
H2577 C2596 0.951 . S
H2578 C2598 0.950 . S
H2579 C2599 0.950 . S
H2580 C2601 0.950 . S
H2581 C2604 0.950 . S
H2582 C2605 0.950 . S
H2583 C2607 0.950 . S
H2584 C2608 0.950 . S
H2585 C2609 0.951 . S
H2586 C2611 0.951 . S
H2587 C2613 0.950 . S
H2588 C2614 0.950 . S
H2589 C2616 0.950 . S
H2590 C2619 0.950 . S
H2591 C2620 0.950 . S
H2592 C2622 0.950 . S
H2593 C2623 0.950 . S
C2594 H2576 0.951 . S
C2594 C2595 1.366 . S
C2594 C2596 1.388 . S
C2595 C2594 1.366 . S
C2595 C2599 1.385 . S
C2596 H2577 0.951 . S
C2596 C2594 1.388 . S
C2596 C2597 1.366 . S
C2597 C2596 1.366 . S
C2597 C2598 1.414 . S
C2597 C2600 1.499 . S
C2598 H2578 0.950 . S
C2598 C2597 1.414 . S
C2598 C2599 1.374 . S
C2599 H2579 0.950 . S
C2599 C2595 1.385 . S
C2599 C2598 1.374 . S
C2600 C2597 1.499 . S
C2600 C2601 1.373 . S
C2600 C2602 1.389 . S
C2601 H2580 0.950 . S
C2601 C2600 1.373 . S
C2601 C2617 1.377 . S
C2602 C2600 1.389 . S
C2602 C2603 1.524 . S
C2602 C2616 1.377 . S
C2603 C2602 1.524 . S
C2603 C2604 1.397 . S
C2603 C2608 1.363 . S
C2604 H2581 0.950 . S
C2604 C2603 1.397 . S
C2604 C2605 1.334 . S
C2605 H2582 0.950 . S
C2605 C2604 1.334 . S
C2605 C2606 1.287 . S
C2606 C2605 1.287 . S
C2606 C2607 1.524 . S
C2606 H2625 0.913 . S
C2607 H2583 0.950 . S
C2607 C2606 1.524 . S
C2607 C2608 1.415 . S
C2608 H2584 0.950 . S
C2608 C2603 1.363 . S
C2608 C2607 1.415 . S
C2609 H2585 0.951 . S
C2609 C2610 1.366 . S
C2609 C2611 1.388 . S
C2610 C2609 1.366 . S
C2610 C2614 1.385 . S
C2611 H2586 0.951 . S
C2611 C2609 1.388 . S
C2611 C2612 1.366 . S
C2612 C2611 1.366 . S
C2612 C2613 1.414 . S
C2612 C2615 1.499 . S
C2613 H2587 0.950 . S
C2613 C2612 1.414 . S
C2613 C2614 1.374 . S
C2614 H2588 0.950 . S
C2614 C2610 1.385 . S
C2614 C2613 1.374 . S
C2615 C2612 1.499 . S
C2615 C2616 1.373 . S
C2615 C2617 1.389 . S
C2616 H2589 0.950 . S
C2616 C2602 1.377 . S
C2616 C2615 1.373 . S
C2617 C2601 1.377 . S
C2617 C2615 1.389 . S
C2617 C2618 1.524 . S
C2618 C2617 1.524 . S
C2618 C2619 1.397 . S
C2618 C2623 1.363 . S
C2619 H2590 0.950 . S
C2619 C2618 1.397 . S
C2619 C2620 1.334 . S
C2620 H2591 0.950 . S
C2620 C2619 1.334 . S
C2620 C2621 1.287 . S
C2621 C2620 1.287 . S
C2621 C2622 1.524 . S
C2621 H2624 0.999 . S
C2622 H2592 0.950 . S
C2622 C2621 1.524 . S
C2622 C2623 1.415 . S
C2623 H2593 0.950 . S
C2623 C2618 1.363 . S
C2623 C2622 1.415 . S
H2624 C2621 0.999 . S
H2625 C2606 0.913 . S
H2626 C2644 0.951 . S
H2627 C2646 0.951 . S
H2628 C2648 0.950 . S
H2629 C2649 0.950 . S
H2630 C2651 0.950 . S
H2631 C2654 0.950 . S
H2632 C2655 0.950 . S
H2633 C2657 0.950 . S
H2634 C2658 0.950 . S
H2635 C2659 0.951 . S
H2636 C2661 0.951 . S
H2637 C2663 0.950 . S
H2638 C2664 0.950 . S
H2639 C2666 0.950 . S
H2640 C2669 0.950 . S
H2641 C2670 0.950 . S
H2642 C2672 0.950 . S
H2643 C2673 0.950 . S
C2644 H2626 0.951 . S
C2644 C2645 1.366 . S
C2644 C2646 1.388 . S
C2645 C2644 1.366 . S
C2645 C2649 1.385 . S
C2646 H2627 0.951 . S
C2646 C2644 1.388 . S
C2646 C2647 1.366 . S
C2647 C2646 1.366 . S
C2647 C2648 1.414 . S
C2647 C2650 1.499 . S
C2648 H2628 0.950 . S
C2648 C2647 1.414 . S
C2648 C2649 1.374 . S
C2649 H2629 0.950 . S
C2649 C2645 1.385 . S
C2649 C2648 1.374 . S
C2650 C2647 1.499 . S
C2650 C2651 1.373 . S
C2650 C2652 1.389 . S
C2651 H2630 0.950 . S
C2651 C2650 1.373 . S
C2651 C2667 1.377 . S
C2652 C2650 1.389 . S
C2652 C2653 1.524 . S
C2652 C2666 1.377 . S
C2653 C2652 1.524 . S
C2653 C2654 1.397 . S
C2653 C2658 1.363 . S
C2654 H2631 0.950 . S
C2654 C2653 1.397 . S
C2654 C2655 1.334 . S
C2655 H2632 0.950 . S
C2655 C2654 1.334 . S
C2655 C2656 1.287 1_545 S
C2656 C2655 1.287 1_565 S
C2656 C2657 1.524 . S
C2656 H2675 0.913 . S
C2657 H2633 0.950 . S
C2657 C2656 1.524 . S
C2657 C2658 1.415 1_565 S
C2658 H2634 0.950 . S
C2658 C2653 1.363 . S
C2658 C2657 1.415 1_545 S
C2659 H2635 0.951 . S
C2659 C2660 1.366 . S
C2659 C2661 1.388 . S
C2660 C2659 1.366 . S
C2660 C2664 1.385 . S
C2661 H2636 0.951 . S
C2661 C2659 1.388 . S
C2661 C2662 1.366 . S
C2662 C2661 1.366 . S
C2662 C2663 1.414 . S
C2662 C2665 1.499 . S
C2663 H2637 0.950 . S
C2663 C2662 1.414 . S
C2663 C2664 1.374 . S
C2664 H2638 0.950 . S
C2664 C2660 1.385 . S
C2664 C2663 1.374 . S
C2665 C2662 1.499 . S
C2665 C2666 1.373 . S
C2665 C2667 1.389 . S
C2666 H2639 0.950 . S
C2666 C2652 1.377 . S
C2666 C2665 1.373 . S
C2667 C2651 1.377 . S
C2667 C2665 1.389 . S
C2667 C2668 1.524 . S
C2668 C2667 1.524 . S
C2668 C2669 1.397 . S
C2668 C2673 1.363 . S
C2669 H2640 0.950 . S
C2669 C2668 1.397 . S
C2669 C2670 1.334 . S
C2670 H2641 0.950 . S
C2670 C2669 1.334 . S
C2670 C2671 1.287 . S
C2671 C2670 1.287 . S
C2671 C2672 1.524 . S
C2671 H2674 0.999 . S
C2672 H2642 0.950 . S
C2672 C2671 1.524 . S
C2672 C2673 1.415 . S
C2673 H2643 0.950 . S
C2673 C2668 1.363 . S
C2673 C2672 1.415 . S
H2674 C2671 0.999 . S
H2675 C2656 0.913 . S
H2676 C2694 0.951 . S
H2677 C2696 0.951 . S
H2678 C2698 0.950 . S
H2679 C2699 0.950 . S
H2680 C2701 0.950 . S
H2681 C2704 0.950 . S
H2682 C2705 0.950 . S
H2683 C2707 0.950 . S
H2684 C2708 0.950 . S
H2685 C2709 0.951 . S
H2686 C2711 0.951 . S
H2687 C2713 0.950 . S
H2688 C2714 0.950 . S
H2689 C2716 0.950 . S
H2690 C2719 0.950 . S
H2691 C2720 0.950 . S
H2692 C2722 0.950 . S
H2693 C2723 0.950 . S
C2694 H2676 0.951 . S
C2694 C2695 1.366 . S
C2694 C2696 1.388 . S
C2695 C2694 1.366 . S
C2695 C2699 1.385 . S
C2696 H2677 0.951 . S
C2696 C2694 1.388 . S
C2696 C2697 1.366 . S
C2697 C2696 1.366 . S
C2697 C2698 1.414 . S
C2697 C2700 1.499 . S
C2698 H2678 0.950 . S
C2698 C2697 1.414 . S
C2698 C2699 1.374 . S
C2699 H2679 0.950 . S
C2699 C2695 1.385 . S
C2699 C2698 1.374 . S
C2700 C2697 1.499 . S
C2700 C2701 1.373 . S
C2700 C2702 1.389 . S
C2701 H2680 0.950 . S
C2701 C2700 1.373 . S
C2701 C2717 1.377 . S
C2702 C2700 1.389 . S
C2702 C2703 1.524 . S
C2702 C2716 1.377 . S
C2703 C2702 1.524 . S
C2703 C2704 1.397 . S
C2703 C2708 1.363 . S
C2704 H2681 0.950 . S
C2704 C2703 1.397 . S
C2704 C2705 1.334 . S
C2705 H2682 0.950 . S
C2705 C2704 1.334 . S
C2705 C2706 1.287 . S
C2706 C2705 1.287 . S
C2706 C2707 1.524 . S
C2706 H2725 0.913 . S
C2707 H2683 0.950 . S
C2707 C2706 1.524 . S
C2707 C2708 1.415 . S
C2708 H2684 0.950 . S
C2708 C2703 1.363 . S
C2708 C2707 1.415 . S
C2709 H2685 0.951 . S
C2709 C2710 1.366 . S
C2709 C2711 1.388 . S
C2710 C2709 1.366 . S
C2710 C2714 1.385 . S
C2711 H2686 0.951 . S
C2711 C2709 1.388 . S
C2711 C2712 1.366 . S
C2712 C2711 1.366 . S
C2712 C2713 1.414 . S
C2712 C2715 1.499 . S
C2713 H2687 0.950 . S
C2713 C2712 1.414 . S
C2713 C2714 1.374 . S
C2714 H2688 0.950 . S
C2714 C2710 1.385 . S
C2714 C2713 1.374 . S
C2715 C2712 1.499 . S
C2715 C2716 1.373 . S
C2715 C2717 1.389 . S
C2716 H2689 0.950 . S
C2716 C2702 1.377 . S
C2716 C2715 1.373 . S
C2717 C2701 1.377 . S
C2717 C2715 1.389 . S
C2717 C2718 1.524 . S
C2718 C2717 1.524 . S
C2718 C2719 1.397 . S
C2718 C2723 1.363 . S
C2719 H2690 0.950 . S
C2719 C2718 1.397 . S
C2719 C2720 1.334 . S
C2720 H2691 0.950 . S
C2720 C2719 1.334 . S
C2720 C2721 1.287 . S
C2721 C2720 1.287 . S
C2721 C2722 1.524 . S
C2721 H2724 0.999 . S
C2722 H2692 0.950 . S
C2722 C2721 1.524 . S
C2722 C2723 1.415 . S
C2723 H2693 0.950 . S
C2723 C2718 1.363 . S
C2723 C2722 1.415 . S
H2724 C2721 0.999 . S
H2725 C2706 0.913 . S
H2726 C2744 0.951 . S
H2727 C2746 0.951 . S
H2728 C2748 0.950 . S
H2729 C2749 0.950 . S
H2730 C2751 0.950 . S
H2731 C2754 0.950 . S
H2732 C2755 0.950 . S
H2733 C2757 0.950 . S
H2734 C2758 0.950 . S
H2735 C2759 0.951 . S
H2736 C2761 0.951 . S
H2737 C2763 0.950 . S
H2738 C2764 0.950 . S
H2739 C2766 0.950 . S
H2740 C2769 0.950 . S
H2741 C2770 0.950 . S
H2742 C2772 0.950 . S
H2743 C2773 0.950 . S
C2744 H2726 0.951 . S
C2744 C2745 1.366 . S
C2744 C2746 1.388 . S
C2745 C2744 1.366 . S
C2745 C2749 1.385 . S
C2746 H2727 0.951 . S
C2746 C2744 1.388 . S
C2746 C2747 1.366 . S
C2747 C2746 1.366 . S
C2747 C2748 1.414 . S
C2747 C2750 1.499 . S
C2748 H2728 0.950 . S
C2748 C2747 1.414 . S
C2748 C2749 1.374 . S
C2749 H2729 0.950 . S
C2749 C2745 1.385 . S
C2749 C2748 1.374 . S
C2750 C2747 1.499 . S
C2750 C2751 1.373 . S
C2750 C2752 1.389 . S
C2751 H2730 0.950 . S
C2751 C2750 1.373 . S
C2751 C2767 1.377 . S
C2752 C2750 1.389 . S
C2752 C2753 1.524 . S
C2752 C2766 1.377 . S
C2753 C2752 1.524 . S
C2753 C2754 1.397 . S
C2753 C2758 1.363 . S
C2754 H2731 0.950 . S
C2754 C2753 1.397 . S
C2754 C2755 1.334 . S
C2755 H2732 0.950 . S
C2755 C2754 1.334 . S
C2755 C2756 1.287 . S
C2756 C2755 1.287 . S
C2756 C2757 1.524 . S
C2756 H2775 0.913 . S
C2757 H2733 0.950 . S
C2757 C2756 1.524 . S
C2757 C2758 1.415 . S
C2758 H2734 0.950 . S
C2758 C2753 1.363 . S
C2758 C2757 1.415 . S
C2759 H2735 0.951 . S
C2759 C2760 1.366 . S
C2759 C2761 1.388 . S
C2760 C2759 1.366 . S
C2760 C2764 1.385 . S
C2761 H2736 0.951 . S
C2761 C2759 1.388 . S
C2761 C2762 1.366 . S
C2762 C2761 1.366 . S
C2762 C2763 1.414 . S
C2762 C2765 1.499 . S
C2763 H2737 0.950 . S
C2763 C2762 1.414 . S
C2763 C2764 1.374 . S
C2764 H2738 0.950 . S
C2764 C2760 1.385 . S
C2764 C2763 1.374 . S
C2765 C2762 1.499 . S
C2765 C2766 1.373 . S
C2765 C2767 1.389 . S
C2766 H2739 0.950 . S
C2766 C2752 1.377 . S
C2766 C2765 1.373 . S
C2767 C2751 1.377 . S
C2767 C2765 1.389 . S
C2767 C2768 1.524 . S
C2768 C2767 1.524 . S
C2768 C2769 1.397 . S
C2768 C2773 1.363 . S
C2769 H2740 0.950 . S
C2769 C2768 1.397 . S
C2769 C2770 1.334 . S
C2770 H2741 0.950 . S
C2770 C2769 1.334 . S
C2770 C2771 1.287 . S
C2771 C2770 1.287 . S
C2771 C2772 1.524 . S
C2771 H2774 0.999 . S
C2772 H2742 0.950 . S
C2772 C2771 1.524 . S
C2772 C2773 1.415 . S
C2773 H2743 0.950 . S
C2773 C2768 1.363 . S
C2773 C2772 1.415 . S
H2774 C2771 0.999 . S
H2775 C2756 0.913 . S
H2776 C2794 0.951 . S
H2777 C2796 0.951 . S
H2778 C2798 0.950 . S
H2779 C2799 0.950 . S
H2780 C2801 0.950 . S
H2781 C2804 0.950 . S
H2782 C2805 0.950 . S
H2783 C2807 0.950 . S
H2784 C2808 0.950 . S
H2785 C2809 0.951 . S
H2786 C2811 0.951 . S
H2787 C2813 0.950 . S
H2788 C2814 0.950 . S
H2789 C2816 0.950 . S
H2790 C2819 0.950 . S
H2791 C2820 0.950 . S
H2792 C2822 0.950 . S
H2793 C2823 0.950 . S
C2794 H2776 0.951 . S
C2794 C2795 1.366 . S
C2794 C2796 1.388 . S
C2795 C2794 1.366 . S
C2795 C2799 1.385 . S
C2796 H2777 0.951 . S
C2796 C2794 1.388 . S
C2796 C2797 1.366 . S
C2797 C2796 1.366 . S
C2797 C2798 1.414 . S
C2797 C2800 1.499 . S
C2798 H2778 0.950 . S
C2798 C2797 1.414 . S
C2798 C2799 1.374 . S
C2799 H2779 0.950 . S
C2799 C2795 1.385 . S
C2799 C2798 1.374 . S
C2800 C2797 1.499 . S
C2800 C2801 1.373 . S
C2800 C2802 1.389 . S
C2801 H2780 0.950 . S
C2801 C2800 1.373 . S
C2801 C2817 1.377 . S
C2802 C2800 1.389 . S
C2802 C2803 1.524 . S
C2802 C2816 1.377 . S
C2803 C2802 1.524 . S
C2803 C2804 1.397 . S
C2803 C2808 1.363 . S
C2804 H2781 0.950 . S
C2804 C2803 1.397 . S
C2804 C2805 1.334 . S
C2805 H2782 0.950 . S
C2805 C2804 1.334 . S
C2805 C2806 1.287 . S
C2806 C2805 1.287 . S
C2806 C2807 1.524 . S
C2806 H2825 0.913 . S
C2807 H2783 0.950 . S
C2807 C2806 1.524 . S
C2807 C2808 1.415 . S
C2808 H2784 0.950 . S
C2808 C2803 1.363 . S
C2808 C2807 1.415 . S
C2809 H2785 0.951 . S
C2809 C2810 1.366 . S
C2809 C2811 1.388 . S
C2810 C2809 1.366 . S
C2810 C2814 1.385 . S
C2811 H2786 0.951 . S
C2811 C2809 1.388 . S
C2811 C2812 1.366 . S
C2812 C2811 1.366 . S
C2812 C2813 1.414 . S
C2812 C2815 1.499 . S
C2813 H2787 0.950 . S
C2813 C2812 1.414 . S
C2813 C2814 1.374 . S
C2814 H2788 0.950 . S
C2814 C2810 1.385 . S
C2814 C2813 1.374 . S
C2815 C2812 1.499 . S
C2815 C2816 1.373 . S
C2815 C2817 1.389 . S
C2816 H2789 0.950 . S
C2816 C2802 1.377 . S
C2816 C2815 1.373 . S
C2817 C2801 1.377 . S
C2817 C2815 1.389 . S
C2817 C2818 1.524 . S
C2818 C2817 1.524 . S
C2818 C2819 1.397 . S
C2818 C2823 1.363 . S
C2819 H2790 0.950 . S
C2819 C2818 1.397 . S
C2819 C2820 1.334 . S
C2820 H2791 0.950 . S
C2820 C2819 1.334 . S
C2820 C2821 1.287 . S
C2821 C2820 1.287 . S
C2821 C2822 1.524 . S
C2821 H2824 0.999 . S
C2822 H2792 0.950 . S
C2822 C2821 1.524 . S
C2822 C2823 1.415 . S
C2823 H2793 0.950 . S
C2823 C2818 1.363 . S
C2823 C2822 1.415 . S
H2824 C2821 0.999 . S
H2825 C2806 0.913 . S
H2826 C2844 0.951 . S
H2827 C2846 0.951 . S
H2828 C2848 0.950 . S
H2829 C2849 0.950 . S
H2830 C2851 0.950 . S
H2831 C2854 0.950 . S
H2832 C2855 0.950 . S
H2833 C2857 0.950 . S
H2834 C2858 0.950 . S
H2835 C2859 0.951 . S
H2836 C2861 0.951 . S
H2837 C2863 0.950 . S
H2838 C2864 0.950 . S
H2839 C2866 0.950 . S
H2840 C2869 0.950 . S
H2841 C2870 0.950 . S
H2842 C2872 0.950 . S
H2843 C2873 0.950 . S
C2844 H2826 0.951 . S
C2844 C2845 1.366 . S
C2844 C2846 1.388 . S
C2845 C2844 1.366 . S
C2845 C2849 1.385 . S
C2846 H2827 0.951 . S
C2846 C2844 1.388 . S
C2846 C2847 1.366 . S
C2847 C2846 1.366 . S
C2847 C2848 1.414 . S
C2847 C2850 1.499 . S
C2848 H2828 0.950 . S
C2848 C2847 1.414 . S
C2848 C2849 1.374 . S
C2849 H2829 0.950 . S
C2849 C2845 1.385 . S
C2849 C2848 1.374 . S
C2850 C2847 1.499 . S
C2850 C2851 1.373 . S
C2850 C2852 1.389 . S
C2851 H2830 0.950 . S
C2851 C2850 1.373 . S
C2851 C2867 1.377 . S
C2852 C2850 1.389 . S
C2852 C2853 1.524 . S
C2852 C2866 1.377 . S
C2853 C2852 1.524 . S
C2853 C2854 1.397 . S
C2853 C2858 1.363 . S
C2854 H2831 0.950 . S
C2854 C2853 1.397 . S
C2854 C2855 1.334 . S
C2855 H2832 0.950 . S
C2855 C2854 1.334 . S
C2855 C2856 1.287 . S
C2856 C2855 1.287 . S
C2856 C2857 1.524 . S
C2856 H2875 0.913 . S
C2857 H2833 0.950 . S
C2857 C2856 1.524 . S
C2857 C2858 1.415 . S
C2858 H2834 0.950 . S
C2858 C2853 1.363 . S
C2858 C2857 1.415 . S
C2859 H2835 0.951 . S
C2859 C2860 1.366 . S
C2859 C2861 1.388 . S
C2860 C2859 1.366 . S
C2860 C2864 1.385 . S
C2861 H2836 0.951 . S
C2861 C2859 1.388 . S
C2861 C2862 1.366 . S
C2862 C2861 1.366 . S
C2862 C2863 1.414 . S
C2862 C2865 1.499 . S
C2863 H2837 0.950 . S
C2863 C2862 1.414 . S
C2863 C2864 1.374 . S
C2864 H2838 0.950 . S
C2864 C2860 1.385 . S
C2864 C2863 1.374 . S
C2865 C2862 1.499 . S
C2865 C2866 1.373 . S
C2865 C2867 1.389 . S
C2866 H2839 0.950 . S
C2866 C2852 1.377 . S
C2866 C2865 1.373 . S
C2867 C2851 1.377 . S
C2867 C2865 1.389 . S
C2867 C2868 1.524 . S
C2868 C2867 1.524 . S
C2868 C2869 1.397 . S
C2868 C2873 1.363 . S
C2869 H2840 0.950 . S
C2869 C2868 1.397 . S
C2869 C2870 1.334 . S
C2870 H2841 0.950 . S
C2870 C2869 1.334 . S
C2870 C2871 1.287 . S
C2871 C2870 1.287 . S
C2871 C2872 1.524 . S
C2871 H2874 0.999 . S
C2872 H2842 0.950 . S
C2872 C2871 1.524 . S
C2872 C2873 1.415 . S
C2873 H2843 0.950 . S
C2873 C2868 1.363 . S
C2873 C2872 1.415 . S
H2874 C2871 0.999 . S
H2875 C2856 0.913 . S
H2876 C2894 0.951 . S
H2877 C2896 0.951 . S
H2878 C2898 0.950 . S
H2879 C2899 0.950 . S
H2880 C2901 0.950 . S
H2881 C2904 0.950 . S
H2882 C2905 0.950 . S
H2883 C2907 0.950 . S
H2884 C2908 0.950 . S
H2885 C2909 0.951 . S
H2886 C2911 0.951 . S
H2887 C2913 0.950 . S
H2888 C2914 0.950 . S
H2889 C2916 0.950 . S
H2890 C2919 0.950 . S
H2891 C2920 0.950 . S
H2892 C2922 0.950 . S
H2893 C2923 0.950 . S
C2894 H2876 0.951 . S
C2894 C2895 1.366 . S
C2894 C2896 1.388 . S
C2895 C2894 1.366 . S
C2895 C2899 1.385 . S
C2896 H2877 0.951 . S
C2896 C2894 1.388 . S
C2896 C2897 1.366 . S
C2897 C2896 1.366 . S
C2897 C2898 1.414 . S
C2897 C2900 1.499 . S
C2898 H2878 0.950 . S
C2898 C2897 1.414 . S
C2898 C2899 1.374 . S
C2899 H2879 0.950 . S
C2899 C2895 1.385 . S
C2899 C2898 1.374 . S
C2900 C2897 1.499 . S
C2900 C2901 1.373 . S
C2900 C2902 1.389 . S
C2901 H2880 0.950 . S
C2901 C2900 1.373 . S
C2901 C2917 1.377 . S
C2902 C2900 1.389 . S
C2902 C2903 1.524 . S
C2902 C2916 1.377 . S
C2903 C2902 1.524 . S
C2903 C2904 1.397 . S
C2903 C2908 1.363 . S
C2904 H2881 0.950 . S
C2904 C2903 1.397 . S
C2904 C2905 1.334 . S
C2905 H2882 0.950 . S
C2905 C2904 1.334 . S
C2905 C2906 1.287 . S
C2906 C2905 1.287 . S
C2906 C2907 1.524 . S
C2906 H2925 0.913 . S
C2907 H2883 0.950 . S
C2907 C2906 1.524 . S
C2907 C2908 1.415 . S
C2908 H2884 0.950 . S
C2908 C2903 1.363 . S
C2908 C2907 1.415 . S
C2909 H2885 0.951 . S
C2909 C2910 1.366 . S
C2909 C2911 1.388 . S
C2910 C2909 1.366 . S
C2910 C2914 1.385 . S
C2911 H2886 0.951 . S
C2911 C2909 1.388 . S
C2911 C2912 1.366 . S
C2912 C2911 1.366 . S
C2912 C2913 1.414 . S
C2912 C2915 1.499 . S
C2913 H2887 0.950 . S
C2913 C2912 1.414 . S
C2913 C2914 1.374 . S
C2914 H2888 0.950 . S
C2914 C2910 1.385 . S
C2914 C2913 1.374 . S
C2915 C2912 1.499 . S
C2915 C2916 1.373 . S
C2915 C2917 1.389 . S
C2916 H2889 0.950 . S
C2916 C2902 1.377 . S
C2916 C2915 1.373 . S
C2917 C2901 1.377 . S
C2917 C2915 1.389 . S
C2917 C2918 1.524 . S
C2918 C2917 1.524 . S
C2918 C2919 1.397 . S
C2918 C2923 1.363 . S
C2919 H2890 0.950 . S
C2919 C2918 1.397 . S
C2919 C2920 1.334 . S
C2920 H2891 0.950 . S
C2920 C2919 1.334 . S
C2920 C2921 1.287 . S
C2921 C2920 1.287 . S
C2921 C2922 1.524 . S
C2921 H2924 0.999 . S
C2922 H2892 0.950 . S
C2922 C2921 1.524 . S
C2922 C2923 1.415 . S
C2923 H2893 0.950 . S
C2923 C2918 1.363 . S
C2923 C2922 1.415 . S
H2924 C2921 0.999 . S
H2925 C2906 0.913 . S
H2926 C2944 0.951 . S
H2927 C2946 0.951 . S
H2928 C2948 0.950 . S
H2929 C2949 0.950 . S
H2930 C2951 0.950 . S
H2931 C2954 0.950 . S
H2932 C2955 0.950 . S
H2933 C2957 0.950 . S
H2934 C2958 0.950 . S
H2935 C2959 0.951 . S
H2936 C2961 0.951 . S
H2937 C2963 0.950 . S
H2938 C2964 0.950 . S
H2939 C2966 0.950 . S
H2940 C2969 0.950 . S
H2941 C2970 0.950 . S
H2942 C2972 0.950 . S
H2943 C2973 0.950 . S
C2944 H2926 0.951 . S
C2944 C2945 1.366 . S
C2944 C2946 1.388 . S
C2945 C2944 1.366 . S
C2945 C2949 1.385 . S
C2946 H2927 0.951 . S
C2946 C2944 1.388 . S
C2946 C2947 1.366 . S
C2947 C2946 1.366 . S
C2947 C2948 1.414 . S
C2947 C2950 1.499 . S
C2948 H2928 0.950 . S
C2948 C2947 1.414 . S
C2948 C2949 1.374 . S
C2949 H2929 0.950 . S
C2949 C2945 1.385 . S
C2949 C2948 1.374 . S
C2950 C2947 1.499 . S
C2950 C2951 1.373 . S
C2950 C2952 1.389 . S
C2951 H2930 0.950 . S
C2951 C2950 1.373 . S
C2951 C2967 1.377 . S
C2952 C2950 1.389 . S
C2952 C2953 1.524 . S
C2952 C2966 1.377 . S
C2953 C2952 1.524 . S
C2953 C2954 1.397 . S
C2953 C2958 1.363 . S
C2954 H2931 0.950 . S
C2954 C2953 1.397 . S
C2954 C2955 1.334 . S
C2955 H2932 0.950 . S
C2955 C2954 1.334 . S
C2955 C2956 1.287 . S
C2956 C2955 1.287 . S
C2956 C2957 1.524 . S
C2956 H2975 0.913 . S
C2957 H2933 0.950 . S
C2957 C2956 1.524 . S
C2957 C2958 1.415 . S
C2958 H2934 0.950 . S
C2958 C2953 1.363 . S
C2958 C2957 1.415 . S
C2959 H2935 0.951 . S
C2959 C2960 1.366 . S
C2959 C2961 1.388 . S
C2960 C2959 1.366 . S
C2960 C2964 1.385 . S
C2961 H2936 0.951 . S
C2961 C2959 1.388 . S
C2961 C2962 1.366 . S
C2962 C2961 1.366 . S
C2962 C2963 1.414 . S
C2962 C2965 1.499 . S
C2963 H2937 0.950 . S
C2963 C2962 1.414 . S
C2963 C2964 1.374 . S
C2964 H2938 0.950 . S
C2964 C2960 1.385 . S
C2964 C2963 1.374 . S
C2965 C2962 1.499 . S
C2965 C2966 1.373 . S
C2965 C2967 1.389 . S
C2966 H2939 0.950 . S
C2966 C2952 1.377 . S
C2966 C2965 1.373 . S
C2967 C2951 1.377 . S
C2967 C2965 1.389 . S
C2967 C2968 1.524 . S
C2968 C2967 1.524 . S
C2968 C2969 1.397 . S
C2968 C2973 1.363 . S
C2969 H2940 0.950 . S
C2969 C2968 1.397 . S
C2969 C2970 1.334 . S
C2970 H2941 0.950 . S
C2970 C2969 1.334 . S
C2970 C2971 1.287 . S
C2971 C2970 1.287 . S
C2971 C2972 1.524 . S
C2971 H2974 0.999 . S
C2972 H2942 0.950 . S
C2972 C2971 1.524 . S
C2972 C2973 1.415 . S
C2973 H2943 0.950 . S
C2973 C2968 1.363 . S
C2973 C2972 1.415 . S
H2974 C2971 0.999 . S
H2975 C2956 0.913 . S
H2976 C2994 0.951 . S
H2977 C2996 0.951 . S
H2978 C2998 0.950 . S
H2979 C2999 0.950 . S
H2980 C3001 0.950 . S
H2981 C3004 0.950 . S
H2982 C3005 0.950 . S
H2983 C3007 0.950 . S
H2984 C3008 0.950 . S
H2985 C3009 0.951 . S
H2986 C3011 0.951 . S
H2987 C3013 0.950 . S
H2988 C3014 0.950 . S
H2989 C3016 0.950 . S
H2990 C3019 0.950 . S
H2991 C3020 0.950 . S
H2992 C3022 0.950 . S
H2993 C3023 0.950 . S
C2994 H2976 0.951 . S
C2994 C2995 1.366 . S
C2994 C2996 1.388 . S
C2995 C2994 1.366 . S
C2995 C2999 1.385 . S
C2996 H2977 0.951 . S
C2996 C2994 1.388 . S
C2996 C2997 1.366 . S
C2997 C2996 1.366 . S
C2997 C2998 1.414 . S
C2997 C3000 1.499 . S
C2998 H2978 0.950 . S
C2998 C2997 1.414 . S
C2998 C2999 1.374 . S
C2999 H2979 0.950 . S
C2999 C2995 1.385 . S
C2999 C2998 1.374 . S
C3000 C2997 1.499 . S
C3000 C3001 1.373 . S
C3000 C3002 1.389 . S
C3001 H2980 0.950 . S
C3001 C3000 1.373 . S
C3001 C3017 1.377 . S
C3002 C3000 1.389 . S
C3002 C3003 1.524 . S
C3002 C3016 1.377 . S
C3003 C3002 1.524 . S
C3003 C3004 1.397 . S
C3003 C3008 1.363 . S
C3004 H2981 0.950 . S
C3004 C3003 1.397 . S
C3004 C3005 1.334 . S
C3005 H2982 0.950 . S
C3005 C3004 1.334 . S
C3005 C3006 1.287 . S
C3006 C3005 1.287 . S
C3006 C3007 1.524 . S
C3006 H3025 0.913 . S
C3007 H2983 0.950 . S
C3007 C3006 1.524 . S
C3007 C3008 1.415 . S
C3008 H2984 0.950 . S
C3008 C3003 1.363 . S
C3008 C3007 1.415 . S
C3009 H2985 0.951 . S
C3009 C3010 1.366 . S
C3009 C3011 1.388 . S
C3010 C3009 1.366 . S
C3010 C3014 1.385 . S
C3011 H2986 0.951 . S
C3011 C3009 1.388 . S
C3011 C3012 1.366 . S
C3012 C3011 1.366 . S
C3012 C3013 1.414 . S
C3012 C3015 1.499 . S
C3013 H2987 0.950 . S
C3013 C3012 1.414 . S
C3013 C3014 1.374 . S
C3014 H2988 0.950 . S
C3014 C3010 1.385 . S
C3014 C3013 1.374 . S
C3015 C3012 1.499 . S
C3015 C3016 1.373 . S
C3015 C3017 1.389 . S
C3016 H2989 0.950 . S
C3016 C3002 1.377 . S
C3016 C3015 1.373 . S
C3017 C3001 1.377 . S
C3017 C3015 1.389 . S
C3017 C3018 1.524 . S
C3018 C3017 1.524 . S
C3018 C3019 1.397 . S
C3018 C3023 1.363 . S
C3019 H2990 0.950 . S
C3019 C3018 1.397 . S
C3019 C3020 1.334 . S
C3020 H2991 0.950 . S
C3020 C3019 1.334 . S
C3020 C3021 1.287 . S
C3021 C3020 1.287 . S
C3021 C3022 1.524 . S
C3021 H3024 0.999 . S
C3022 H2992 0.950 . S
C3022 C3021 1.524 . S
C3022 C3023 1.415 . S
C3023 H2993 0.950 . S
C3023 C3018 1.363 . S
C3023 C3022 1.415 . S
H3024 C3021 0.999 . S
H3025 C3006 0.913 . S
H3026 C3044 0.951 . S
H3027 C3046 0.951 . S
H3028 C3048 0.950 . S
H3029 C3049 0.950 . S
H3030 C3051 0.950 . S
H3031 C3054 0.950 . S
H3032 C3055 0.950 . S
H3033 C3057 0.950 . S
H3034 C3058 0.950 . S
H3035 C3059 0.951 . S
H3036 C3061 0.951 . S
H3037 C3063 0.950 . S
H3038 C3064 0.950 . S
H3039 C3066 0.950 . S
H3040 C3069 0.950 . S
H3041 C3070 0.950 . S
H3042 C3072 0.950 . S
H3043 C3073 0.950 . S
C3044 H3026 0.951 . S
C3044 C3045 1.366 . S
C3044 C3046 1.388 . S
C3045 C3044 1.366 . S
C3045 C3049 1.385 . S
C3046 H3027 0.951 . S
C3046 C3044 1.388 . S
C3046 C3047 1.366 . S
C3047 C3046 1.366 . S
C3047 C3048 1.414 . S
C3047 C3050 1.499 . S
C3048 H3028 0.950 . S
C3048 C3047 1.414 . S
C3048 C3049 1.374 . S
C3049 H3029 0.950 . S
C3049 C3045 1.385 . S
C3049 C3048 1.374 . S
C3050 C3047 1.499 . S
C3050 C3051 1.373 . S
C3050 C3052 1.389 . S
C3051 H3030 0.950 . S
C3051 C3050 1.373 . S
C3051 C3067 1.377 . S
C3052 C3050 1.389 . S
C3052 C3053 1.524 . S
C3052 C3066 1.377 . S
C3053 C3052 1.524 . S
C3053 C3054 1.397 . S
C3053 C3058 1.363 . S
C3054 H3031 0.950 . S
C3054 C3053 1.397 . S
C3054 C3055 1.334 . S
C3055 H3032 0.950 . S
C3055 C3054 1.334 . S
C3055 C3056 1.287 . S
C3056 C3055 1.287 . S
C3056 C3057 1.524 . S
C3056 H3075 0.913 . S
C3057 H3033 0.950 . S
C3057 C3056 1.524 . S
C3057 C3058 1.415 . S
C3058 H3034 0.950 . S
C3058 C3053 1.363 . S
C3058 C3057 1.415 . S
C3059 H3035 0.951 . S
C3059 C3060 1.366 . S
C3059 C3061 1.388 . S
C3060 C3059 1.366 . S
C3060 C3064 1.385 . S
C3061 H3036 0.951 . S
C3061 C3059 1.388 . S
C3061 C3062 1.366 . S
C3062 C3061 1.366 . S
C3062 C3063 1.414 . S
C3062 C3065 1.499 . S
C3063 H3037 0.950 . S
C3063 C3062 1.414 . S
C3063 C3064 1.374 . S
C3064 H3038 0.950 . S
C3064 C3060 1.385 . S
C3064 C3063 1.374 . S
C3065 C3062 1.499 . S
C3065 C3066 1.373 . S
C3065 C3067 1.389 . S
C3066 H3039 0.950 . S
C3066 C3052 1.377 . S
C3066 C3065 1.373 . S
C3067 C3051 1.377 . S
C3067 C3065 1.389 . S
C3067 C3068 1.524 . S
C3068 C3067 1.524 . S
C3068 C3069 1.397 . S
C3068 C3073 1.363 . S
C3069 H3040 0.950 . S
C3069 C3068 1.397 . S
C3069 C3070 1.334 . S
C3070 H3041 0.950 . S
C3070 C3069 1.334 . S
C3070 C3071 1.287 . S
C3071 C3070 1.287 . S
C3071 C3072 1.524 . S
C3071 H3074 0.999 . S
C3072 H3042 0.950 . S
C3072 C3071 1.524 . S
C3072 C3073 1.415 . S
C3073 H3043 0.950 . S
C3073 C3068 1.363 . S
C3073 C3072 1.415 . S
H3074 C3071 0.999 . S
H3075 C3056 0.913 . S
H3076 C3094 0.951 . S
H3077 C3096 0.951 . S
H3078 C3098 0.950 . S
H3079 C3099 0.950 . S
H3080 C3101 0.950 . S
H3081 C3104 0.950 . S
H3082 C3105 0.950 . S
H3083 C3107 0.950 . S
H3084 C3108 0.950 . S
H3085 C3109 0.951 . S
H3086 C3111 0.951 . S
H3087 C3113 0.950 . S
H3088 C3114 0.950 . S
H3089 C3116 0.950 . S
H3090 C3119 0.950 . S
H3091 C3120 0.950 . S
H3092 C3122 0.950 . S
H3093 C3123 0.950 . S
C3094 H3076 0.951 . S
C3094 C3095 1.366 . S
C3094 C3096 1.388 . S
C3095 C3094 1.366 . S
C3095 C3099 1.385 . S
C3096 H3077 0.951 . S
C3096 C3094 1.388 . S
C3096 C3097 1.366 . S
C3097 C3096 1.366 . S
C3097 C3098 1.414 . S
C3097 C3100 1.499 . S
C3098 H3078 0.950 . S
C3098 C3097 1.414 . S
C3098 C3099 1.374 . S
C3099 H3079 0.950 . S
C3099 C3095 1.385 . S
C3099 C3098 1.374 . S
C3100 C3097 1.499 . S
C3100 C3101 1.373 . S
C3100 C3102 1.389 . S
C3101 H3080 0.950 . S
C3101 C3100 1.373 . S
C3101 C3117 1.377 . S
C3102 C3100 1.389 . S
C3102 C3103 1.524 . S
C3102 C3116 1.377 . S
C3103 C3102 1.524 . S
C3103 C3104 1.397 . S
C3103 C3108 1.363 . S
C3104 H3081 0.950 . S
C3104 C3103 1.397 . S
C3104 C3105 1.334 . S
C3105 H3082 0.950 . S
C3105 C3104 1.334 . S
C3105 C3106 1.287 . S
C3106 C3105 1.287 . S
C3106 C3107 1.524 . S
C3106 H3125 0.913 . S
C3107 H3083 0.950 . S
C3107 C3106 1.524 . S
C3107 C3108 1.415 . S
C3108 H3084 0.950 . S
C3108 C3103 1.363 . S
C3108 C3107 1.415 . S
C3109 H3085 0.951 . S
C3109 C3110 1.366 . S
C3109 C3111 1.388 . S
C3110 C3109 1.366 . S
C3110 C3114 1.385 . S
C3111 H3086 0.951 . S
C3111 C3109 1.388 . S
C3111 C3112 1.366 . S
C3112 C3111 1.366 . S
C3112 C3113 1.414 . S
C3112 C3115 1.499 . S
C3113 H3087 0.950 . S
C3113 C3112 1.414 . S
C3113 C3114 1.374 . S
C3114 H3088 0.950 . S
C3114 C3110 1.385 . S
C3114 C3113 1.374 . S
C3115 C3112 1.499 . S
C3115 C3116 1.373 . S
C3115 C3117 1.389 . S
C3116 H3089 0.950 . S
C3116 C3102 1.377 . S
C3116 C3115 1.373 . S
C3117 C3101 1.377 . S
C3117 C3115 1.389 . S
C3117 C3118 1.524 . S
C3118 C3117 1.524 . S
C3118 C3119 1.397 . S
C3118 C3123 1.363 . S
C3119 H3090 0.950 . S
C3119 C3118 1.397 . S
C3119 C3120 1.334 . S
C3120 H3091 0.950 . S
C3120 C3119 1.334 . S
C3120 C3121 1.287 . S
C3121 C3120 1.287 . S
C3121 C3122 1.524 . S
C3121 H3124 0.999 . S
C3122 H3092 0.950 . S
C3122 C3121 1.524 . S
C3122 C3123 1.415 . S
C3123 H3093 0.950 . S
C3123 C3118 1.363 . S
C3123 C3122 1.415 . S
H3124 C3121 0.999 . S
H3125 C3106 0.913 . S
H3126 C3144 0.951 . S
H3127 C3146 0.951 . S
H3128 C3148 0.950 . S
H3129 C3149 0.950 . S
H3130 C3151 0.950 . S
H3131 C3154 0.950 . S
H3132 C3155 0.950 . S
H3133 C3157 0.950 . S
H3134 C3158 0.950 . S
H3135 C3159 0.951 . S
H3136 C3161 0.951 . S
H3137 C3163 0.950 . S
H3138 C3164 0.950 . S
H3139 C3166 0.950 . S
H3140 C3169 0.950 . S
H3141 C3170 0.950 . S
H3142 C3172 0.950 . S
H3143 C3173 0.950 . S
C3144 H3126 0.951 . S
C3144 C3145 1.366 . S
C3144 C3146 1.388 . S
C3145 C3144 1.366 . S
C3145 C3149 1.385 . S
C3146 H3127 0.951 . S
C3146 C3144 1.388 . S
C3146 C3147 1.366 . S
C3147 C3146 1.366 . S
C3147 C3148 1.414 . S
C3147 C3150 1.499 . S
C3148 H3128 0.950 . S
C3148 C3147 1.414 . S
C3148 C3149 1.374 . S
C3149 H3129 0.950 . S
C3149 C3145 1.385 . S
C3149 C3148 1.374 . S
C3150 C3147 1.499 . S
C3150 C3151 1.373 . S
C3150 C3152 1.389 . S
C3151 H3130 0.950 . S
C3151 C3150 1.373 . S
C3151 C3167 1.377 . S
C3152 C3150 1.389 . S
C3152 C3153 1.524 . S
C3152 C3166 1.377 . S
C3153 C3152 1.524 . S
C3153 C3154 1.397 . S
C3153 C3158 1.363 . S
C3154 H3131 0.950 . S
C3154 C3153 1.397 . S
C3154 C3155 1.334 . S
C3155 H3132 0.950 . S
C3155 C3154 1.334 . S
C3155 C3156 1.287 . S
C3156 C3155 1.287 . S
C3156 C3157 1.524 . S
C3156 H3175 0.913 . S
C3157 H3133 0.950 . S
C3157 C3156 1.524 . S
C3157 C3158 1.415 . S
C3158 H3134 0.950 . S
C3158 C3153 1.363 . S
C3158 C3157 1.415 . S
C3159 H3135 0.951 . S
C3159 C3160 1.366 . S
C3159 C3161 1.388 . S
C3160 C3159 1.366 . S
C3160 C3164 1.385 . S
C3161 H3136 0.951 . S
C3161 C3159 1.388 . S
C3161 C3162 1.366 . S
C3162 C3161 1.366 . S
C3162 C3163 1.414 . S
C3162 C3165 1.499 . S
C3163 H3137 0.950 . S
C3163 C3162 1.414 . S
C3163 C3164 1.374 . S
C3164 H3138 0.950 . S
C3164 C3160 1.385 . S
C3164 C3163 1.374 . S
C3165 C3162 1.499 . S
C3165 C3166 1.373 . S
C3165 C3167 1.389 . S
C3166 H3139 0.950 . S
C3166 C3152 1.377 . S
C3166 C3165 1.373 . S
C3167 C3151 1.377 . S
C3167 C3165 1.389 . S
C3167 C3168 1.524 . S
C3168 C3167 1.524 . S
C3168 C3169 1.397 . S
C3168 C3173 1.363 . S
C3169 H3140 0.950 . S
C3169 C3168 1.397 . S
C3169 C3170 1.334 . S
C3170 H3141 0.950 . S
C3170 C3169 1.334 . S
C3170 C3171 1.287 . S
C3171 C3170 1.287 . S
C3171 C3172 1.524 . S
C3171 H3174 0.999 . S
C3172 H3142 0.950 . S
C3172 C3171 1.524 . S
C3172 C3173 1.415 . S
C3173 H3143 0.950 . S
C3173 C3168 1.363 . S
C3173 C3172 1.415 . S
H3174 C3171 0.999 . S
H3175 C3156 0.913 . S
H3176 C3194 0.951 . S
H3177 C3196 0.951 . S
H3178 C3198 0.950 . S
H3179 C3199 0.950 . S
H3180 C3201 0.950 . S
H3181 C3204 0.950 . S
H3182 C3205 0.950 . S
H3183 C3207 0.950 . S
H3184 C3208 0.950 . S
H3185 C3209 0.951 . S
H3186 C3211 0.951 . S
H3187 C3213 0.950 . S
H3188 C3214 0.950 . S
H3189 C3216 0.950 . S
H3190 C3219 0.950 . S
H3191 C3220 0.950 . S
H3192 C3222 0.950 . S
H3193 C3223 0.950 . S
C3194 H3176 0.951 . S
C3194 C3195 1.366 . S
C3194 C3196 1.388 . S
C3195 C3194 1.366 . S
C3195 C3199 1.385 . S
C3196 H3177 0.951 . S
C3196 C3194 1.388 . S
C3196 C3197 1.366 . S
C3197 C3196 1.366 . S
C3197 C3198 1.414 . S
C3197 C3200 1.499 . S
C3198 H3178 0.950 . S
C3198 C3197 1.414 . S
C3198 C3199 1.374 . S
C3199 H3179 0.950 . S
C3199 C3195 1.385 . S
C3199 C3198 1.374 . S
C3200 C3197 1.499 . S
C3200 C3201 1.373 . S
C3200 C3202 1.389 . S
C3201 H3180 0.950 . S
C3201 C3200 1.373 . S
C3201 C3217 1.377 . S
C3202 C3200 1.389 . S
C3202 C3203 1.524 . S
C3202 C3216 1.377 . S
C3203 C3202 1.524 . S
C3203 C3204 1.397 . S
C3203 C3208 1.363 . S
C3204 H3181 0.950 . S
C3204 C3203 1.397 . S
C3204 C3205 1.334 . S
C3205 H3182 0.950 . S
C3205 C3204 1.334 . S
C3205 C3206 1.287 . S
C3206 C3205 1.287 . S
C3206 C3207 1.524 . S
C3206 H3225 0.913 . S
C3207 H3183 0.950 . S
C3207 C3206 1.524 . S
C3207 C3208 1.415 . S
C3208 H3184 0.950 . S
C3208 C3203 1.363 . S
C3208 C3207 1.415 . S
C3209 H3185 0.951 . S
C3209 C3210 1.366 . S
C3209 C3211 1.388 . S
C3210 C3209 1.366 . S
C3210 C3214 1.385 . S
C3211 H3186 0.951 . S
C3211 C3209 1.388 . S
C3211 C3212 1.366 . S
C3212 C3211 1.366 . S
C3212 C3213 1.414 . S
C3212 C3215 1.499 . S
C3213 H3187 0.950 . S
C3213 C3212 1.414 . S
C3213 C3214 1.374 . S
C3214 H3188 0.950 . S
C3214 C3210 1.385 . S
C3214 C3213 1.374 . S
C3215 C3212 1.499 . S
C3215 C3216 1.373 . S
C3215 C3217 1.389 . S
C3216 H3189 0.950 . S
C3216 C3202 1.377 . S
C3216 C3215 1.373 . S
C3217 C3201 1.377 . S
C3217 C3215 1.389 . S
C3217 C3218 1.524 . S
C3218 C3217 1.524 . S
C3218 C3219 1.397 . S
C3218 C3223 1.363 . S
C3219 H3190 0.950 . S
C3219 C3218 1.397 . S
C3219 C3220 1.334 . S
C3220 H3191 0.950 . S
C3220 C3219 1.334 . S
C3220 C3221 1.287 . S
C3221 C3220 1.287 . S
C3221 C3222 1.524 . S
C3221 H3224 0.999 . S
C3222 H3192 0.950 . S
C3222 C3221 1.524 . S
C3222 C3223 1.415 . S
C3223 H3193 0.950 . S
C3223 C3218 1.363 . S
C3223 C3222 1.415 . S
H3224 C3221 0.999 . S
H3225 C3206 0.913 . S
H3226 C3244 0.951 . S
H3227 C3246 0.951 . S
H3228 C3248 0.950 . S
H3229 C3249 0.950 . S
H3230 C3251 0.950 . S
H3231 C3254 0.950 . S
H3232 C3255 0.950 . S
H3233 C3257 0.950 . S
H3234 C3258 0.950 . S
H3235 C3259 0.951 . S
H3236 C3261 0.951 . S
H3237 C3263 0.950 . S
H3238 C3264 0.950 . S
H3239 C3266 0.950 . S
H3240 C3269 0.950 . S
H3241 C3270 0.950 . S
H3242 C3272 0.950 . S
H3243 C3273 0.950 . S
C3244 H3226 0.951 . S
C3244 C3245 1.366 . S
C3244 C3246 1.388 . S
C3245 C3244 1.366 . S
C3245 C3249 1.385 . S
C3246 H3227 0.951 . S
C3246 C3244 1.388 . S
C3246 C3247 1.366 . S
C3247 C3246 1.366 . S
C3247 C3248 1.414 . S
C3247 C3250 1.499 . S
C3248 H3228 0.950 . S
C3248 C3247 1.414 . S
C3248 C3249 1.374 . S
C3249 H3229 0.950 . S
C3249 C3245 1.385 . S
C3249 C3248 1.374 . S
C3250 C3247 1.499 . S
C3250 C3251 1.373 . S
C3250 C3252 1.389 . S
C3251 H3230 0.950 . S
C3251 C3250 1.373 . S
C3251 C3267 1.377 . S
C3252 C3250 1.389 . S
C3252 C3253 1.524 . S
C3252 C3266 1.377 . S
C3253 C3252 1.524 . S
C3253 C3254 1.397 . S
C3253 C3258 1.363 . S
C3254 H3231 0.950 . S
C3254 C3253 1.397 . S
C3254 C3255 1.334 . S
C3255 H3232 0.950 . S
C3255 C3254 1.334 . S
C3255 C3256 1.287 . S
C3256 C3255 1.287 . S
C3256 C3257 1.524 . S
C3256 H3275 0.913 . S
C3257 H3233 0.950 . S
C3257 C3256 1.524 . S
C3257 C3258 1.415 . S
C3258 H3234 0.950 . S
C3258 C3253 1.363 . S
C3258 C3257 1.415 . S
C3259 H3235 0.951 . S
C3259 C3260 1.366 . S
C3259 C3261 1.388 . S
C3260 C3259 1.366 . S
C3260 C3264 1.385 . S
C3261 H3236 0.951 . S
C3261 C3259 1.388 . S
C3261 C3262 1.366 . S
C3262 C3261 1.366 . S
C3262 C3263 1.414 . S
C3262 C3265 1.499 . S
C3263 H3237 0.950 . S
C3263 C3262 1.414 . S
C3263 C3264 1.374 . S
C3264 H3238 0.950 . S
C3264 C3260 1.385 . S
C3264 C3263 1.374 . S
C3265 C3262 1.499 . S
C3265 C3266 1.373 . S
C3265 C3267 1.389 . S
C3266 H3239 0.950 . S
C3266 C3252 1.377 . S
C3266 C3265 1.373 . S
C3267 C3251 1.377 . S
C3267 C3265 1.389 . S
C3267 C3268 1.524 . S
C3268 C3267 1.524 . S
C3268 C3269 1.397 . S
C3268 C3273 1.363 . S
C3269 H3240 0.950 . S
C3269 C3268 1.397 . S
C3269 C3270 1.334 . S
C3270 H3241 0.950 . S
C3270 C3269 1.334 . S
C3270 C3271 1.287 . S
C3271 C3270 1.287 . S
C3271 C3272 1.524 . S
C3271 H3274 0.999 . S
C3272 H3242 0.950 . S
C3272 C3271 1.524 . S
C3272 C3273 1.415 . S
C3273 H3243 0.950 . S
C3273 C3268 1.363 . S
C3273 C3272 1.415 . S
H3274 C3271 0.999 . S
H3275 C3256 0.913 . S
C595 C162 1.680 . S
C610 C225 1.673 . S
C645 C174 1.835 . S
C660 C265 1.826 . S
C695 C150 1.606 . S
C710 C304 1.570 . S
C745 C138 1.467 . S
C760 C264 1.448 . S
C810 C305 1.486 1_556 S
C795 C114 1.491 . S
C845 C126 1.316 . S
C860 C224 1.293 . S
C910 C235 1.641 1_556 S
C895 C136 1.649 . S
C960 C275 1.696 . S
C945 C112 1.679 . S
C995 C124 1.658 . S
C1010 C314 1.678 . S
C1045 C160 1.482 . S
C1060 C274 1.487 . S
C1095 C172 1.433 . S
C1110 C315 1.419 . S
C1160 C234 1.434 . S
C1145 C148 1.414 . S
C1210 C345 1.673 . S
C1195 C18 1.680 . S
C1245 C30 1.834 . S
C1260 C385 1.826 . S
C1295 C6 1.606 . S
C1310 C424 1.570 . S
C1345 C210 1.467 . S
C1360 C384 1.425 . S
C1395 C186 1.491 . S
C1410 C425 1.485 . S
C1445 C198 1.316 . S
C1460 C344 1.294 . S
C1495 C208 1.649 . S
C1510 C355 1.642 . S
C1545 C184 1.679 . S
C1560 C395 1.671 . S
C1610 C434 1.677 . S
C1595 C196 1.656 . S
C1645 C16 1.483 . S
C1660 C394 1.487 . S
C1710 C435 1.419 . S
C1695 C28 1.432 . S
C1745 C4 1.413 . S
C1760 C354 1.433 . S
C1810 C465 1.673 . S
C1795 C90 1.680 . S
C1845 C102 1.835 . S
C1860 C505 1.826 . S
C1910 C544 1.570 . S
C1895 C78 1.606 . S
C1960 C504 1.426 . S
C1945 C66 1.467 . S
C2010 C545 1.485 . S
C1995 C42 1.491 . S
C2045 C54 1.316 . S
C2060 C464 1.294 . S
C2095 C64 1.649 . S
C2110 C475 1.641 . S
C2145 C40 1.679 . S
C2160 C515 1.671 . S
C2210 C554 1.678 . S
C2195 C52 1.658 . S
C2245 C88 1.483 . S
C2260 C514 1.487 . S
C2295 C100 1.432 . S
C2310 C555 1.418 . S
C2345 C76 1.413 . S
C2360 C474 1.433 . S
C2395 C189 1.432 . S
C2410 C221 1.424 . S
C2460 C261 1.987 . S
C2445 C201 1.990 . S
C2495 C213 1.573 . S
C2510 C311 1.586 . S
C2545 C81 1.834 . S
C2560 C271 1.847 . S
C2595 C93 1.700 . S
C2610 C301 1.700 . S
C2660 C231 1.268 . S
C2645 C105 1.261 . S
C2695 C45 1.432 . S
C2710 C341 1.424 . S
C2745 C57 1.991 . S
C2760 C381 1.987 . S
C2795 C69 1.573 . S
C2810 C431 1.586 . S
C2845 C153 1.834 . S
C2860 C391 1.847 . S
C2910 C421 1.699 . S
C2895 C165 1.699 . S
C2945 C177 1.261 . S
C2960 C351 1.268 . S
C2995 C117 1.432 . S
C3010 C461 1.423 . S
C3045 C129 1.990 . S
C3060 C501 1.987 . S
C3110 C551 1.587 . S
C3095 C141 1.573 . S
C3145 C9 1.834 . S
C3160 C511 1.847 . S
C3195 C21 1.699 . S
C3210 C541 1.699 . S
C3245 C33 1.261 . S
C3260 C471 1.269 . S
