# Generated by pormake.
# Topology rtl, (3,6)-cn, num edge types: 1
# Building blocks:
#     Node 0, Type 0, BuildingBlock: ESEHIV_clean_linker_0, # of connection points: 3
#     Node 1, Type 0, BuildingBlock: ESEHIV_clean_linker_0, # of connection points: 3
#     Node 2, Type 0, BuildingBlock: ESEHIV_clean_linker_0, # of connection points: 3
#     Node 3, Type 0, BuildingBlock: ESEHIV_clean_linker_0, # of connection points: 3
#     Node 4, Type 1, BuildingBlock: KUMBUR_clean_sbu_1, # of connection points: 6
#     Node 5, Type 1, BuildingBlock: KUMBUR_clean_sbu_1, # of connection points: 6
#     Edge 6, Type (0, 1), BuildingBlock: KIFKEQ_clean_linker_1, # of connection points: 2
#     Edge 7, Type (0, 1), BuildingBlock: KIFKEQ_clean_linker_1, # of connection points: 2
#     Edge 8, Type (0, 1), BuildingBlock: KIFKEQ_clean_linker_1, # of connection points: 2
#     Edge 9, Type (0, 1), BuildingBlock: KIFKEQ_clean_linker_1, # of connection points: 2
#     Edge 10, Type (0, 1), BuildingBlock: KIFKEQ_clean_linker_1, # of connection points: 2
#     Edge 11, Type (0, 1), BuildingBlock: KIFKEQ_clean_linker_1, # of connection points: 2
#     Edge 12, Type (0, 1), BuildingBlock: KIFKEQ_clean_linker_1, # of connection points: 2
#     Edge 13, Type (0, 1), BuildingBlock: KIFKEQ_clean_linker_1, # of connection points: 2
#     Edge 14, Type (0, 1), BuildingBlock: KIFKEQ_clean_linker_1, # of connection points: 2
#     Edge 15, Type (0, 1), BuildingBlock: KIFKEQ_clean_linker_1, # of connection points: 2
#     Edge 16, Type (0, 1), BuildingBlock: KIFKEQ_clean_linker_1, # of connection points: 2
#     Edge 17, Type (0, 1), BuildingBlock: KIFKEQ_clean_linker_1, # of connection points: 2
# Relax obj value: 0.018
# Max RMSD: 0.115
# Mean RMSD: 0.068
data_MOF--net-rtl--node1-KUMBUR_clean_sbu_1--node2-ESEHIV_clean_linker_0--edge1-KIFKEQ_clean_linker_1
_symmetry_space_group_name_H-M    P1
_symmetry_Int_Tables_number       1
_symmetry_cell_setting            triclinic
loop_
_symmetry_equiv_pos_as_xyz
'x, y, z'
_cell_length_a     31.160677
_cell_length_b     31.965071
_cell_length_c     28.188595
_cell_angle_alpha  77.470399
_cell_angle_beta   99.103002
_cell_angle_gamma 91.219527
loop_
_atom_site_label
_atom_site_type_symbol
_atom_site_fract_x
_atom_site_fract_y
_atom_site_fract_z
_atom_type_partial_charge
H0 H 0.1357 0.87989 0.01873 0.0
H1 H 0.22743 0.78325 0.10574 0.0
H2 H 0.22021 0.81679 0.94877 0.0
C3 C 0.16119 0.85657 0.02139 0.0
C4 C 0.17589 0.85131 0.97834 0.0
C5 C 0.1801 0.83263 0.06782 0.0
C6 C 0.21356 0.80292 0.07047 0.0
C7 C 0.22793 0.79689 0.0277 0.0
C8 C 0.20916 0.82139 0.98191 0.0
H9 H 0.63565 0.64133 0.64327 0.0
H10 H 0.72489 0.71657 0.55893 0.0
H11 H 0.72238 0.72738 0.70809 0.0
C12 C 0.6608 0.66528 0.64001 0.0
C13 C 0.67663 0.68327 0.68055 0.0
C14 C 0.67859 0.67648 0.59623 0.0
C15 C 0.71187 0.70684 0.59306 0.0
C16 C 0.72768 0.72571 0.63294 0.0
C17 C 0.71006 0.71351 0.67683 0.0
H18 H 0.87198 0.13835 0.08909 0.0
H19 H 0.77615 0.19988 0.14481 0.0
H20 H 0.77795 0.22468 0.9885 0.0
C21 C 0.84424 0.15996 0.08215 0.0
C22 C 0.82715 0.18047 0.03375 0.0
C23 C 0.82563 0.16662 0.12193 0.0
C24 C 0.78945 0.19388 0.11357 0.0
C25 C 0.77216 0.21537 0.06555 0.0
C26 C 0.79097 0.2082 0.02565 0.0
H27 H 0.37979 0.38259 0.45214 0.0
H28 H 0.30075 0.29574 0.53875 0.0
H29 H 0.30852 0.2844 0.39097 0.0
C30 C 0.35831 0.35535 0.45583 0.0
C31 C 0.34675 0.33501 0.41613 0.0
C32 C 0.34213 0.34113 0.50023 0.0
C33 C 0.31413 0.30609 0.50492 0.0
C34 C 0.30143 0.28567 0.46562 0.0
C35 C 0.31768 0.30045 0.42114 0.0
Tb36 Tb 0.04207 0.96757 0.52148 0.0
C37 C 0.94597 0.1363 0.49506 0.0
N38 N 0.98299 0.12159 0.5263 0.0
C39 C 0.01697 0.18911 0.50044 0.0
C40 C 0.94379 0.17717 0.46335 0.0
C41 C 0.01705 0.14871 0.53191 0.0
C42 C 0.98051 0.20305 0.4652 0.0
C43 C 0.86898 0.12691 0.46924 0.0
C44 C 0.90906 0.1117 0.49787 0.0
C45 C 0.86713 0.1666 0.43567 0.0
C46 C 0.90451 0.19163 0.43262 0.0
Tb47 Tb 0.97946 0.05361 0.57343 0.0
N48 N 0.91231 0.0731 0.52992 0.0
C49 C 0.83197 0.10203 0.47586 0.0
C50 C 0.87609 0.04963 0.53843 0.0
C51 C 0.83546 0.06348 0.51109 0.0
H52 H 0.04401 0.13997 0.56136 0.0
H53 H 0.80691 0.04445 0.51719 0.0
H54 H 1.00048 0.87638 0.57353 0.0
H55 H 0.20942 0.01898 0.52775 0.0
H56 H 0.87868 0.02004 0.56592 0.0
H57 H 0.80051 0.11261 0.45464 0.0
H58 H 0.13236 0.01857 0.49122 0.0
H59 H 0.04463 0.20987 0.5042 0.0
H60 H 0.83678 0.17864 0.41277 0.0
H61 H 0.90234 0.22275 0.40762 0.0
H62 H 0.02437 0.81354 0.64044 0.0
H63 H 0.98023 0.23466 0.44145 0.0
H64 H 0.23794 0.9647 0.60247 0.0
N65 N 0.06156 0.90718 0.58092 0.0
C66 C 0.10364 0.90414 0.60316 0.0
C67 C 0.04692 0.83896 0.63054 0.0
C68 C 0.11872 0.86913 0.6416 0.0
C69 C 0.03344 0.87457 0.59279 0.0
C70 C 0.0896 0.83648 0.65552 0.0
N71 N 0.11558 0.96845 0.54828 0.0
C72 C 0.14358 0.99641 0.52544 0.0
C73 C 0.17571 0.9341 0.60788 0.0
C74 C 0.13144 0.93633 0.5868 0.0
C75 C 0.20369 0.96523 0.58741 0.0
C76 C 0.18768 0.99601 0.54536 0.0
H77 H 0.0999 0.80897 0.68489 0.0
H78 H 0.17454 0.84124 0.69428 0.0
H79 H 0.2246 0.89807 0.66451 0.0
O80 O 0.07705 0.94674 0.47262 0.0
O81 O 0.0363 0.95826 0.59975 0.0
O82 O 0.04185 0.02599 0.61322 0.0
O83 O 0.00947 0.93235 0.47189 0.0
O84 O 0.06034 0.0356 0.50198 0.0
O85 O 0.04887 0.06491 0.56724 0.0
O86 O 0.95714 0.03485 0.64158 0.0
O87 O 0.95222 0.03619 0.5035 0.0
O88 O 0.01371 0.02614 0.47285 0.0
O89 O 0.96651 0.10108 0.61059 0.0
O90 O 0.95606 0.98718 0.58935 0.0
O91 O 0.97373 0.9535 0.52888 0.0
C92 C 0.04883 0.98471 0.62859 0.0
C93 C 0.05234 0.88583 0.44252 0.0
C94 C 0.07546 0.84538 0.38647 0.0
C95 C 0.0692 0.80707 0.42005 0.0
C96 C 0.04586 0.84732 0.47529 0.0
C97 C 0.05442 0.80815 0.46409 0.0
C98 C 0.06704 0.88468 0.39825 0.0
C99 C 0.06974 0.06354 0.53027 0.0
C100 C 0.04396 0.92784 0.45278 0.0
C101 C 0.16233 0.86767 0.66433 0.0
C102 C 0.19079 0.90011 0.64748 0.0
C103 C 0.97255 0.03675 0.46605 0.0
C104 C 0.98044 0.07975 0.69633 0.0
C105 C 0.97844 0.09686 0.77621 0.0
C106 C 0.02413 0.0935 0.7863 0.0
C107 C 0.02593 0.07727 0.70674 0.0
C108 C 0.95681 0.08955 0.73101 0.0
C109 C 0.0476 0.0837 0.75175 0.0
C110 C 0.95064 0.95683 0.56357 0.0
C111 C 0.95749 0.07367 0.64875 0.0
H112 H 0.07502 0.77628 0.41191 0.0
H113 H 0.03401 0.84742 0.5092 0.0
H114 H 0.04935 0.77849 0.4895 0.0
H115 H 0.0723 0.91454 0.37314 0.0
H116 H 0.04184 0.09944 0.82042 0.0
H117 H 0.04464 0.07095 0.67983 0.0
H118 H 0.92163 0.09147 0.7227 0.0
H119 H 0.08273 0.08168 0.7596 0.0
Tb120 Tb 0.45986 0.48837 0.99313 0.0
C121 C 0.63552 0.55973 0.04746 0.0
N122 N 0.61813 0.5244 0.07348 0.0
C123 C 0.68377 0.48462 0.07817 0.0
C124 C 0.67679 0.55826 0.03336 0.0
C125 C 0.64293 0.48799 0.09179 0.0
C126 C 0.70041 0.51964 0.04791 0.0
C127 C 0.6304 0.63619 0.01299 0.0
C128 C 0.61291 0.59815 0.03757 0.0
C129 C 0.67054 0.63459 0.99667 0.0
C130 C 0.69368 0.59566 1.00678 0.0
Tb131 Tb 0.5493 0.53324 0.08951 0.0
N132 N 0.57358 0.59813 0.0525 0.0
C133 C 0.60716 0.67463 1.00611 0.0
C134 C 0.55193 0.63576 0.0486 0.0
C135 C 0.56807 0.67449 0.02467 0.0
H136 H 0.63172 0.46161 0.11758 0.0
H137 H 0.55035 0.70416 0.02045 0.0
H138 H 0.36887 0.53169 1.00611 0.0
H139 H 0.50011 0.32308 0.99849 0.0
H140 H 0.52172 0.63561 0.06291 0.0
H141 H 0.61948 0.70462 0.98739 0.0
H142 H 0.50559 0.40138 0.97208 0.0
H143 H 0.70267 0.45523 0.09168 0.0
H144 H 0.68434 0.66336 0.97708 0.0
H145 H 0.7251 0.59506 0.99507 0.0
H146 H 0.30201 0.5076 0.04091 0.0
H147 H 0.73225 0.5171 0.03784 0.0
H148 H 0.44248 0.29205 0.04621 0.0
N149 N 0.39666 0.46908 0.02258 0.0
C150 C 0.39062 0.42653 0.0385 0.0
C151 C 0.32687 0.4845 0.04084 0.0
C152 C 0.35332 0.41123 0.05876 0.0
C153 C 0.36468 0.49807 0.02128 0.0
C154 C 0.32149 0.44094 0.06045 0.0
N155 N 0.45515 0.41503 0.00969 0.0
C156 C 0.48178 0.38846 0.99508 0.0
C157 C 0.41584 0.35392 0.0468 0.0
C158 C 0.42144 0.39851 0.03263 0.0
C159 C 0.44556 0.32654 0.03593 0.0
C160 C 0.47817 0.34393 0.00909 0.0
H161 H 0.29226 0.43051 0.07568 0.0
H162 H 0.32047 0.3544 0.09169 0.0
H163 H 0.37528 0.3041 0.08116 0.0
O164 O 0.43201 0.46643 0.92896 0.0
O165 O 0.44879 0.48545 0.06913 0.0
O166 O 0.51625 0.47353 0.11623 0.0
O167 O 0.43023 0.53384 0.93224 0.0
O168 O 0.52676 0.46298 1.00578 0.0
O169 O 0.55532 0.4652 0.08628 0.0
O170 O 0.53246 0.55836 0.14732 0.0
O171 O 0.53356 0.56468 0.01097 0.0
O172 O 0.52191 0.51017 0.9703 0.0
O173 O 0.59705 0.53529 0.1508 0.0
O174 O 0.48335 0.5598 0.07947 0.0
O175 O 0.45088 0.55443 1.00067 0.0
C176 C 0.47399 0.46786 0.11024 0.0
C177 C 0.39608 0.51693 0.85546 0.0
C178 C 0.37702 0.50374 0.77258 0.0
C179 C 0.35554 0.54374 0.75746 0.0
C180 C 0.3742 0.5567 0.83948 0.0
C181 C 0.35389 0.56983 0.79085 0.0
C182 C 0.39679 0.4901 0.82198 0.0
C183 C 0.55308 0.44813 0.04728 0.0
C184 C 0.42005 0.50523 0.90609 0.0
C185 C 0.34864 0.36689 0.0754 0.0
C186 C 0.3799 0.33827 0.06949 0.0
C187 C 0.53936 0.54712 0.97453 0.0
C188 C 0.57051 0.52807 0.22574 0.0
C189 C 0.58103 0.53013 0.31304 0.0
C190 C 0.57048 0.48639 0.32409 0.0
C191 C 0.56057 0.48447 0.23764 0.0
C192 C 0.58063 0.5508 0.26338 0.0
C193 C 0.56026 0.46385 0.28658 0.0
C194 C 0.45412 0.57173 0.03958 0.0
C195 C 0.5704 0.55024 0.17425 0.0
H196 H 0.3398 0.5547 0.71974 0.0
H197 H 0.37305 0.57788 0.86451 0.0
H198 H 0.33717 0.60055 0.77887 0.0
H199 H 0.41397 0.45956 0.83373 0.0
H200 H 0.57101 0.46928 0.36181 0.0
H201 H 0.55333 0.46644 0.20913 0.0
H202 H 0.58793 0.58461 0.25385 0.0
H203 H 0.55251 0.43016 0.29553 0.0
H204 H 0.30383 0.21688 0.54266 0.0
H205 H 0.22825 0.27367 0.40226 0.0
H206 H 0.24912 0.16193 0.55686 0.0
H207 H 0.17278 0.21917 0.41676 0.0
H208 H 0.09738 0.09384 0.44204 0.0
H209 H 0.15532 0.14473 0.42443 0.0
H210 H 0.1772 0.15628 0.57632 0.0
H211 H 0.12056 0.10409 0.59413 0.0
C212 C 0.27546 0.21753 0.51478 0.0
C213 C 0.27021 0.24974 0.47147 0.0
C214 C 0.24393 0.18618 0.52302 0.0
C215 C 0.20612 0.18635 0.48831 0.0
C216 C 0.2016 0.21776 0.44416 0.0
C217 C 0.23338 0.24903 0.43577 0.0
C218 C 0.11485 0.10708 0.47169 0.0
C219 C 0.10448 0.09494 0.51949 0.0
C220 C 0.14781 0.13654 0.46152 0.0
C221 C 0.17114 0.15466 0.49892 0.0
C222 C 0.16052 0.14252 0.54672 0.0
C223 C 0.12771 0.11294 0.55689 0.0
H224 H 0.22539 0.73585 0.97347 0.0
H225 H 0.30623 0.78391 0.08845 0.0
H226 H 0.28058 0.68194 0.97728 0.0
H227 H 0.3624 0.7308 0.0914 0.0
H228 H 0.43395 0.60196 0.11714 0.0
H229 H 0.37953 0.65622 0.11512 0.0
H230 H 0.3502 0.67458 0.95678 0.0
H231 H 0.4033 0.61935 0.95907 0.0
C232 C 0.25528 0.7351 0.99921 0.0
C233 C 0.26168 0.76411 0.03051 0.0
C234 C 0.28703 0.70433 1.0013 0.0
C235 C 0.3262 0.70214 0.0344 0.0
C236 C 0.33245 0.73115 0.06592 0.0
C237 C 0.3004 0.76167 0.06416 0.0
C238 C 0.41598 0.61774 0.0819 0.0
C239 C 0.42279 0.60619 0.03831 0.0
C240 C 0.38488 0.64901 0.0807 0.0
C241 C 0.36022 0.66971 0.03581 0.0
C242 C 0.36784 0.6587 0.99214 0.0
C243 C 0.39855 0.62718 0.99341 0.0
H244 H 0.73028 0.80402 0.65785 0.0
H245 H 0.80297 0.72138 0.59623 0.0
H246 H 0.78384 0.86027 0.64222 0.0
H247 H 0.85711 0.77684 0.58178 0.0
H248 H 0.91751 0.89915 0.50902 0.0
H249 H 0.86458 0.8437 0.52828 0.0
H250 H 0.85643 0.8828 0.6641 0.0
H251 H 0.90853 0.93935 0.64396 0.0
C252 C 0.75813 0.79766 0.64173 0.0
C253 C 0.76226 0.75845 0.6279 0.0
C254 C 0.7889 0.82987 0.63278 0.0
C255 C 0.82469 0.82342 0.61016 0.0
C256 C 0.82947 0.78349 0.59805 0.0
C257 C 0.79857 0.75154 0.60658 0.0
C258 C 0.9044 0.89606 0.54297 0.0
C259 C 0.91738 0.92377 0.57493 0.0
C260 C 0.8742 0.86394 0.55426 0.0
C261 C 0.85636 0.85834 0.59804 0.0
C262 C 0.86905 0.88636 0.62982 0.0
C263 C 0.89909 0.91876 0.61833 0.0
H264 H 0.69891 0.20774 0.1088 0.0
H265 H 0.76536 0.29562 1.00628 0.0
H266 H 0.64433 0.26298 0.10316 0.0
H267 H 0.71099 0.35091 1.00079 0.0
H268 H 0.58521 0.42873 0.97026 0.0
H269 H 0.63516 0.37065 0.97183 0.0
H270 H 0.6404 0.33049 0.12927 0.0
H271 H 0.58917 0.38794 0.1273 0.0
C272 C 0.70175 0.23883 0.08493 0.0
C273 C 0.73648 0.24735 0.05806 0.0
C274 C 0.6706 0.27051 0.08186 0.0
C275 C 0.67349 0.31146 0.05184 0.0
C276 C 0.70752 0.31956 0.02384 0.0
C277 C 0.73864 0.28785 0.02687 0.0
C278 C 0.59674 0.40723 1.00514 0.0
C279 C 0.58328 0.41274 0.04868 0.0
C280 C 0.62565 0.37419 1.00609 0.0
C281 C 0.6418 0.34592 0.05065 0.0
C282 C 0.62812 0.35136 0.09422 0.0
C283 C 0.59914 0.38445 0.09323 0.0
H284 H 0.09613 0.84169 0.08253 0.0
H285 H 0.22896 0.83488 0.15688 0.0
H286 H 0.07078 0.84596 0.159 0.0
H287 H 0.20358 0.83879 0.23328 0.0
H288 H 0.13949 0.79483 0.37119 0.0
H289 H 0.1642 0.79325 0.29365 0.0
H290 H 0.07116 0.89315 0.21756 0.0
H291 H 0.04562 0.8939 0.29492 0.0
C292 C 0.11995 0.84165 0.11499 0.0
C293 C 0.16458 0.83769 0.1136 0.0
C294 C 0.10541 0.84402 0.15885 0.0
C295 C 0.13515 0.84239 0.20232 0.0
C296 C 0.17979 0.83929 0.20067 0.0
C297 C 0.19432 0.83707 0.15686 0.0
C298 C 0.12408 0.81621 0.33785 0.0
C299 C 0.0906 0.84448 0.33924 0.0
C300 C 0.13855 0.81564 0.2935 0.0
C301 C 0.11975 0.84319 0.24944 0.0
C302 C 0.0861 0.87131 0.25078 0.0
C303 C 0.07178 0.87203 0.29518 0.0
H304 H 0.59238 0.6866 0.69443 0.0
H305 H 0.72092 0.64698 0.7711 0.0
H306 H 0.56199 0.6573 0.76976 0.0
H307 H 0.69035 0.61658 0.84623 0.0
H308 H 0.59659 0.51372 0.92918 0.0
H309 H 0.63332 0.55113 0.86158 0.0
H310 H 0.57078 0.66976 0.8636 0.0
H311 H 0.53484 0.63243 0.93215 0.0
C312 C 0.61408 0.67197 0.7276 0.0
C313 C 0.65892 0.66905 0.72716 0.0
C314 C 0.59678 0.6554 0.77062 0.0
C315 C 0.62389 0.63472 0.81365 0.0
C316 C 0.66884 0.63237 0.81345 0.0
C317 C 0.68628 0.64985 0.77069 0.0
C318 C 0.591 0.54784 0.91531 0.0
C319 C 0.56283 0.57027 0.93547 0.0
C320 C 0.6122 0.56925 0.87701 0.0
C321 C 0.60474 0.61325 0.85743 0.0
C322 C 0.57692 0.63579 0.87803 0.0
C323 C 0.5565 0.61454 0.91714 0.0
H324 H 0.90626 0.18066 0.16651 0.0
H325 H 0.79018 0.10867 0.19037 0.0
H326 H 0.94057 0.14878 0.24996 0.0
H327 H 0.82517 0.07412 0.27313 0.0
H328 H 0.88522 0.04954 0.43467 0.0
H329 H 0.84905 0.08255 0.35258 0.0
H330 H 0.97215 0.08647 0.2991 0.0
H331 H 0.00854 0.05784 0.38212 0.0
C332 C 0.8884 0.15751 0.18978 0.0
C333 C 0.84582 0.1469 0.17248 0.0
C334 C 0.90808 0.13887 0.23743 0.0
C335 C 0.88594 0.10838 0.26847 0.0
C336 C 0.84309 0.09787 0.25077 0.0
C337 C 0.82307 0.11733 0.20334 0.0
C338 C 0.9046 0.05863 0.4056 0.0
C339 C 0.94987 0.05269 0.41534 0.0
C340 C 0.88376 0.0767 0.35814 0.0
C341 C 0.90763 0.08787 0.31892 0.0
C342 C 0.95274 0.07971 0.32843 0.0
C343 C 0.97363 0.0627 0.37608 0.0
H344 H 0.36908 0.30643 0.5978 0.0
H345 H 0.33855 0.42711 0.49502 0.0
H346 H 0.38332 0.3438 0.66552 0.0
H347 H 0.35109 0.46446 0.5624 0.0
H348 H 0.40588 0.52746 0.68479 0.0
H349 H 0.40319 0.48677 0.62066 0.0
H350 H 0.34761 0.38008 0.71288 0.0
H351 H 0.35242 0.42051 0.77784 0.0
C352 C 0.36536 0.34099 0.58979 0.0
C353 C 0.35284 0.3639 0.54116 0.0
C354 C 0.37329 0.36243 0.62859 0.0
C355 C 0.36839 0.40727 0.61969 0.0
C356 C 0.35619 0.43008 0.5708 0.0
C357 C 0.34879 0.40869 0.53204 0.0
C358 C 0.39355 0.4951 0.69139 0.0
C359 C 0.37909 0.47714 0.73601 0.0
C360 C 0.39166 0.47184 0.65453 0.0
C361 C 0.37451 0.43025 0.66104 0.0
C362 C 0.36142 0.41179 0.70656 0.0
C363 C 0.36399 0.43492 0.7438 0.0
H364 H 0.72772 0.64577 0.53881 0.0
H365 H 0.59468 0.66051 0.55854 0.0
H366 H 0.70303 0.61188 0.47005 0.0
H367 H 0.56976 0.62703 0.48916 0.0
H368 H 0.5454 0.52374 0.3974 0.0
H369 H 0.56848 0.55919 0.46529 0.0
H370 H 0.66641 0.62696 0.38684 0.0
H371 H 0.64483 0.58989 0.32015 0.0
C372 C 0.69312 0.6422 0.52808 0.0
C373 C 0.66317 0.65595 0.55409 0.0
C374 C 0.67892 0.62283 0.48853 0.0
C375 C 0.63435 0.61683 0.47378 0.0
C376 C 0.60435 0.63059 0.49986 0.0
C377 C 0.61861 0.64983 0.5396 0.0
C378 C 0.57209 0.54595 0.39478 0.0
C379 C 0.59337 0.55371 0.3533 0.0
C380 C 0.58498 0.56672 0.4335 0.0
C381 C 0.61944 0.59589 0.43174 0.0
C382 C 0.64017 0.60424 0.38985 0.0
C383 C 0.62738 0.58339 0.35122 0.0
H384 H 0.91374 0.17813 0.02907 0.0
H385 H 0.78748 0.1655 0.94498 0.0
H386 H 0.94846 0.15832 0.96546 0.0
H387 H 0.82245 0.14584 0.88081 0.0
H388 H 0.90843 0.15185 0.75797 0.0
H389 H 0.87027 0.17411 0.81792 0.0
H390 H 0.95472 0.0918 0.93599 0.0
H391 H 0.9925 0.06919 0.87629 0.0
C392 C 0.89339 0.17109 0.99694 0.0
C393 C 0.84784 0.1728 0.99236 0.0
C394 C 0.91329 0.15968 0.96054 0.0
C395 C 0.88819 0.14987 0.9185 0.0
C396 C 0.84264 0.15332 0.91278 0.0
C397 C 0.82263 0.16466 0.94942 0.0
C398 C 0.91846 0.13805 0.79669 0.0
C399 C 0.95373 0.10892 0.81235 0.0
C400 C 0.89664 0.1509 0.83099 0.0
C401 C 0.90978 0.13505 0.88165 0.0
C402 C 0.94441 0.10527 0.89722 0.0
C403 C 0.96608 0.09232 0.86301 0.0
H404 H 0.30495 0.34642 0.32061 0.0
H405 H 0.43044 0.3583 0.40661 0.0
H406 H 0.33498 0.37473 0.2451 0.0
H407 H 0.45997 0.38787 0.3316 0.0
H408 H 0.51102 0.40507 0.18674 0.0
H409 H 0.47994 0.36956 0.2591 0.0
H410 H 0.36091 0.44274 0.2019 0.0
H411 H 0.39236 0.4785 0.13 0.0
C412 C 0.33898 0.35478 0.32342 0.0
C413 C 0.36519 0.35027 0.36974 0.0
C414 C 0.3561 0.37143 0.28016 0.0
C415 C 0.3999 0.38374 0.28219 0.0
C416 C 0.42625 0.37835 0.3285 0.0
C417 C 0.40915 0.36184 0.37163 0.0
C418 C 0.47826 0.41361 0.18975 0.0
C419 C 0.45418 0.44468 0.15275 0.0
C420 C 0.4604 0.39325 0.23119 0.0
C421 C 0.41791 0.40335 0.23654 0.0
C422 C 0.39348 0.43371 0.19879 0.0
C423 C 0.41147 0.45421 0.15748 0.0
H424 H 0.08967 0.86191 0.93995 0.0
H425 H 0.21784 0.89575 0.90572 0.0
H426 H 0.05781 0.89671 0.8558 0.0
H427 H 0.1861 0.93038 0.82174 0.0
H428 H 0.10766 0.02193 0.6884 0.0
H429 H 0.13701 0.99326 0.77504 0.0
H430 H 0.06026 0.87948 0.77203 0.0
H431 H 0.03046 0.90849 0.68583 0.0
C432 C 0.11091 0.87734 0.91463 0.0
C433 C 0.15618 0.87606 0.92919 0.0
C434 C 0.09276 0.89689 0.86645 0.0
C435 C 0.11954 0.91603 0.83223 0.0
C436 C 0.16469 0.9161 0.8474 0.0
C437 C 0.18283 0.8961 0.89531 0.0
C438 C 0.09683 0.991 0.70651 0.0
C439 C 0.06676 0.96744 0.68063 0.0
C440 C 0.11381 0.97448 0.75587 0.0
C441 C 0.10073 0.93425 0.78029 0.0
C442 C 0.0705 0.91081 0.75432 0.0
C443 C 0.05383 0.92717 0.7049 0.0
loop_
_geom_bond_atom_site_label_1
_geom_bond_atom_site_label_2
_geom_bond_distance
_geom_bond_site_symmetry_2
_ccdc_geom_bond_type
H0 C3 0.931 . S
H1 C6 0.928 . S
H2 C8 0.930 . S
C3 H0 0.931 . S
C3 C4 1.413 1_554 S
C3 C5 1.360 . S
C4 C3 1.413 1_556 S
C4 C8 1.429 . S
C5 C3 1.360 . S
C5 C6 1.372 . S
C6 H1 0.928 . S
C6 C5 1.372 . S
C6 C7 1.404 . S
C7 C6 1.404 . S
C7 C8 1.391 1_554 S
C8 H2 0.930 . S
C8 C4 1.429 . S
C8 C7 1.391 1_556 S
H9 C12 0.931 . S
H10 C15 0.928 . S
H11 C17 0.930 . S
C12 H9 0.931 . S
C12 C13 1.413 . S
C12 C14 1.360 . S
C13 C12 1.413 . S
C13 C17 1.429 . S
C14 C12 1.360 . S
C14 C15 1.372 . S
C15 H10 0.928 . S
C15 C14 1.372 . S
C15 C16 1.404 . S
C16 C15 1.404 . S
C16 C17 1.391 . S
C17 H11 0.930 . S
C17 C13 1.429 . S
C17 C16 1.391 . S
H18 C21 0.931 . S
H19 C24 0.928 . S
H20 C26 0.930 1_556 S
C21 H18 0.931 . S
C21 C22 1.413 . S
C21 C23 1.360 . S
C22 C21 1.413 . S
C22 C26 1.429 . S
C23 C21 1.360 . S
C23 C24 1.372 . S
C24 H19 0.928 . S
C24 C23 1.372 . S
C24 C25 1.404 . S
C25 C24 1.404 . S
C25 C26 1.391 . S
C26 H20 0.930 1_554 S
C26 C22 1.429 . S
C26 C25 1.391 . S
H27 C30 0.931 . S
H28 C33 0.928 . S
H29 C35 0.930 . S
C30 H27 0.931 . S
C30 C31 1.413 . S
C30 C32 1.360 . S
C31 C30 1.413 . S
C31 C35 1.429 . S
C32 C30 1.360 . S
C32 C33 1.372 . S
C33 H28 0.928 . S
C33 C32 1.372 . S
C33 C34 1.404 . S
C34 C33 1.404 . S
C34 C35 1.391 . S
C35 H29 0.930 . S
C35 C31 1.429 . S
C35 C34 1.391 . S
Tb36 N65 2.617 . S
Tb36 N71 2.572 . S
Tb36 O80 2.465 . S
Tb36 O81 2.387 . S
Tb36 O83 2.428 . S
Tb36 O84 2.308 1_565 S
Tb36 O88 2.347 1_465 S
Tb36 O91 2.393 1_455 S
Tb36 C100 2.802 . S
C37 N38 1.379 . S
C37 C40 1.416 . S
C37 C44 1.424 . S
N38 C37 1.379 . S
N38 C41 1.334 . S
N38 Tb47 2.617 . S
C39 C41 1.390 . S
C39 C42 1.339 . S
C39 H59 0.930 1_655 S
C40 C37 1.416 . S
C40 C42 1.416 . S
C40 C46 1.448 . S
C41 N38 1.334 . S
C41 C39 1.390 . S
C41 H52 0.930 1_655 S
C42 C39 1.339 . S
C42 C40 1.416 . S
C42 H63 0.930 . S
C43 C44 1.413 . S
C43 C45 1.427 . S
C43 C49 1.416 . S
C44 C37 1.424 . S
C44 C43 1.413 . S
C44 N48 1.361 . S
C45 C43 1.427 . S
C45 C46 1.328 . S
C45 H60 0.929 . S
C46 C40 1.448 . S
C46 C45 1.328 . S
C46 H61 0.930 . S
Tb47 N38 2.617 . S
Tb47 N48 2.572 . S
Tb47 O82 2.349 1_655 S
Tb47 O85 2.393 1_655 S
Tb47 O86 2.465 . S
Tb47 O87 2.387 . S
Tb47 O89 2.428 . S
Tb47 O90 2.308 1_545 S
Tb47 C111 2.802 . S
N48 C44 1.361 . S
N48 Tb47 2.572 . S
N48 C50 1.340 . S
C49 C43 1.416 . S
C49 C51 1.332 . S
C49 H57 0.931 . S
C50 N48 1.340 . S
C50 C51 1.407 . S
C50 H56 0.930 . S
C51 C49 1.332 . S
C51 C50 1.407 . S
C51 H53 0.929 . S
H52 C41 0.930 1_455 S
H53 C51 0.929 . S
H54 C69 0.930 1_655 S
H55 C76 0.929 . S
H56 C50 0.930 . S
H57 C49 0.931 . S
H58 C72 0.930 . S
H59 C39 0.930 1_455 S
H60 C45 0.929 . S
H61 C46 0.930 . S
H62 C67 0.930 1_655 S
H63 C42 0.930 . S
H64 C75 0.931 . S
N65 Tb36 2.617 . S
N65 C66 1.379 . S
N65 C69 1.334 . S
C66 N65 1.379 . S
C66 C68 1.416 . S
C66 C74 1.424 . S
C67 H62 0.930 1_455 S
C67 C69 1.390 . S
C67 C70 1.339 . S
C68 C66 1.416 . S
C68 C70 1.416 . S
C68 C101 1.448 . S
C69 H54 0.930 1_455 S
C69 N65 1.334 . S
C69 C67 1.390 . S
C70 C67 1.339 . S
C70 C68 1.416 . S
C70 H77 0.930 . S
N71 Tb36 2.572 . S
N71 C72 1.340 . S
N71 C74 1.361 . S
C72 H58 0.930 . S
C72 N71 1.340 . S
C72 C76 1.407 . S
C73 C74 1.413 . S
C73 C75 1.416 . S
C73 C102 1.427 . S
C74 C66 1.424 . S
C74 N71 1.361 . S
C74 C73 1.413 . S
C75 H64 0.931 . S
C75 C73 1.416 . S
C75 C76 1.332 . S
C76 H55 0.929 . S
C76 C72 1.407 . S
C76 C75 1.332 . S
H77 C70 0.930 . S
H78 C101 0.930 . S
H79 C102 0.929 . S
O80 Tb36 2.465 . S
O80 C100 1.264 . S
O81 Tb36 2.387 . S
O81 C92 1.264 . S
O82 Tb47 2.349 1_455 S
O82 C92 1.243 1_545 S
O83 Tb36 2.428 . S
O83 C100 1.256 . S
O84 Tb36 2.308 1_545 S
O84 C99 1.266 . S
O85 Tb47 2.393 1_455 S
O85 C99 1.248 . S
O86 Tb47 2.465 . S
O86 C111 1.264 . S
O87 Tb47 2.387 . S
O87 C103 1.264 . S
O88 Tb36 2.347 1_645 S
O88 C103 1.246 . S
O89 Tb47 2.428 . S
O89 C111 1.256 . S
O90 Tb47 2.308 1_565 S
O90 C110 1.266 . S
O91 Tb36 2.393 1_655 S
O91 C110 1.248 . S
C92 O81 1.264 . S
C92 O82 1.243 1_565 S
C93 C96 1.399 . S
C93 C98 1.383 . S
C93 C100 1.496 . S
C94 C95 1.399 . S
C94 C98 1.389 . S
C95 C94 1.399 . S
C95 C97 1.380 . S
C95 H112 0.929 . S
C96 C93 1.399 . S
C96 C97 1.392 . S
C96 H113 0.929 . S
C97 C95 1.380 . S
C97 C96 1.392 . S
C97 H114 0.929 . S
C98 C93 1.383 . S
C98 C94 1.389 . S
C98 H115 0.931 . S
C99 O84 1.266 . S
C99 O85 1.248 . S
C100 Tb36 2.802 . S
C100 O80 1.264 . S
C100 O83 1.256 . S
C100 C93 1.496 . S
C101 C68 1.448 . S
C101 H78 0.930 . S
C101 C102 1.328 . S
C102 C73 1.427 . S
C102 H79 0.929 . S
C102 C101 1.328 . S
C103 O87 1.264 . S
C103 O88 1.246 . S
C104 C107 1.399 . S
C104 C108 1.383 . S
C104 C111 1.496 . S
C105 C106 1.399 . S
C105 C108 1.389 . S
C106 C105 1.399 . S
C106 C109 1.380 . S
C106 H116 0.929 . S
C107 C104 1.399 . S
C107 C109 1.392 . S
C107 H117 0.929 . S
C108 C104 1.383 . S
C108 C105 1.389 . S
C108 H118 0.931 . S
C109 C106 1.380 . S
C109 C107 1.392 . S
C109 H119 0.929 . S
C110 O90 1.266 . S
C110 O91 1.248 . S
C111 Tb47 2.802 . S
C111 O86 1.264 . S
C111 O89 1.256 . S
C111 C104 1.496 . S
H112 C95 0.929 . S
H113 C96 0.929 . S
H114 C97 0.929 . S
H115 C98 0.931 . S
H116 C106 0.929 . S
H117 C107 0.929 . S
H118 C108 0.931 . S
H119 C109 0.929 . S
Tb120 N149 2.618 . S
Tb120 N155 2.572 1_556 S
Tb120 O164 2.465 . S
Tb120 O165 2.387 1_556 S
Tb120 O167 2.428 . S
Tb120 O168 2.308 1_556 S
Tb120 O172 2.349 . S
Tb120 O175 2.393 1_556 S
Tb120 C184 2.802 . S
C121 N122 1.379 . S
C121 C124 1.416 . S
C121 C128 1.424 . S
N122 C121 1.379 . S
N122 C125 1.334 . S
N122 Tb131 2.617 . S
C123 C125 1.390 . S
C123 C126 1.339 . S
C123 H143 0.930 . S
C124 C121 1.416 . S
C124 C126 1.416 . S
C124 C130 1.448 . S
C125 N122 1.334 . S
C125 C123 1.390 . S
C125 H136 0.930 . S
C126 C123 1.339 . S
C126 C124 1.416 . S
C126 H147 0.930 . S
C127 C128 1.413 . S
C127 C129 1.427 . S
C127 C133 1.416 . S
C128 C121 1.424 . S
C128 C127 1.413 . S
C128 N132 1.361 . S
C129 C127 1.427 . S
C129 C130 1.328 . S
C129 H144 0.929 . S
C130 C124 1.448 . S
C130 C129 1.328 . S
C130 H145 0.930 . S
Tb131 N122 2.617 . S
Tb131 N132 2.572 . S
Tb131 O166 2.349 . S
Tb131 O169 2.393 . S
Tb131 O170 2.465 . S
Tb131 O171 2.387 . S
Tb131 O173 2.428 . S
Tb131 O174 2.308 . S
Tb131 C195 2.802 . S
N132 C128 1.361 . S
N132 Tb131 2.572 . S
N132 C134 1.340 . S
C133 C127 1.416 . S
C133 C135 1.332 . S
C133 H141 0.931 . S
C134 N132 1.340 . S
C134 C135 1.407 . S
C134 H140 0.930 . S
C135 C133 1.332 . S
C135 C134 1.407 . S
C135 H137 0.929 . S
H136 C125 0.930 . S
H137 C135 0.929 . S
H138 C153 0.930 . S
H139 C160 0.929 . S
H140 C134 0.930 . S
H141 C133 0.931 . S
H142 C156 0.930 . S
H143 C123 0.930 . S
H144 C129 0.929 . S
H145 C130 0.930 . S
H146 C151 0.930 . S
H147 C126 0.930 . S
H148 C159 0.931 . S
N149 Tb120 2.618 . S
N149 C150 1.378 1_556 S
N149 C153 1.334 . S
C150 N149 1.378 1_554 S
C150 C152 1.416 . S
C150 C158 1.424 . S
C151 H146 0.930 . S
C151 C153 1.390 . S
C151 C154 1.339 1_556 S
C152 C150 1.416 . S
C152 C154 1.416 . S
C152 C185 1.448 . S
C153 H138 0.930 . S
C153 N149 1.334 . S
C153 C151 1.390 . S
C154 C151 1.339 1_554 S
C154 C152 1.416 . S
C154 H161 0.930 . S
N155 Tb120 2.572 1_554 S
N155 C156 1.340 . S
N155 C158 1.361 . S
C156 H142 0.930 . S
C156 N155 1.340 . S
C156 C160 1.407 . S
C157 C158 1.413 . S
C157 C159 1.416 . S
C157 C186 1.427 . S
C158 C150 1.424 . S
C158 N155 1.361 . S
C158 C157 1.413 . S
C159 H148 0.931 . S
C159 C157 1.416 . S
C159 C160 1.332 . S
C160 H139 0.929 . S
C160 C156 1.407 . S
C160 C159 1.332 . S
H161 C154 0.930 . S
H162 C185 0.930 . S
H163 C186 0.929 . S
O164 Tb120 2.465 . S
O164 C184 1.264 . S
O165 Tb120 2.387 1_554 S
O165 C176 1.264 . S
O166 Tb131 2.349 . S
O166 C176 1.243 . S
O167 Tb120 2.428 . S
O167 C184 1.256 . S
O168 Tb120 2.308 1_554 S
O168 C183 1.266 . S
O169 Tb131 2.393 . S
O169 C183 1.248 . S
O170 Tb131 2.465 . S
O170 C195 1.264 . S
O171 Tb131 2.387 . S
O171 C187 1.264 1_554 S
O172 Tb120 2.349 . S
O172 C187 1.243 . S
O173 Tb131 2.428 . S
O173 C195 1.256 . S
O174 Tb131 2.308 . S
O174 C194 1.266 . S
O175 Tb120 2.393 1_554 S
O175 C194 1.248 . S
C176 O165 1.264 . S
C176 O166 1.243 . S
C177 C180 1.399 . S
C177 C182 1.383 . S
C177 C184 1.496 . S
C178 C179 1.399 . S
C178 C182 1.389 . S
C179 C178 1.399 . S
C179 C181 1.380 . S
C179 H196 0.929 . S
C180 C177 1.399 . S
C180 C181 1.392 . S
C180 H197 0.929 . S
C181 C179 1.380 . S
C181 C180 1.392 . S
C181 H198 0.929 . S
C182 C177 1.383 . S
C182 C178 1.389 . S
C182 H199 0.931 . S
C183 O168 1.266 . S
C183 O169 1.248 . S
C184 Tb120 2.802 . S
C184 O164 1.264 . S
C184 O167 1.256 . S
C184 C177 1.496 . S
C185 C152 1.448 . S
C185 H162 0.930 . S
C185 C186 1.328 . S
C186 C157 1.427 . S
C186 H163 0.929 . S
C186 C185 1.328 . S
C187 O171 1.264 1_556 S
C187 O172 1.243 . S
C188 C191 1.399 . S
C188 C192 1.383 . S
C188 C195 1.496 . S
C189 C190 1.399 . S
C189 C192 1.389 . S
C190 C189 1.399 . S
C190 C193 1.380 . S
C190 H200 0.929 . S
C191 C188 1.399 . S
C191 C193 1.392 . S
C191 H201 0.929 . S
C192 C188 1.383 . S
C192 C189 1.389 . S
C192 H202 0.931 . S
C193 C190 1.380 . S
C193 C191 1.392 . S
C193 H203 0.929 . S
C194 O174 1.266 . S
C194 O175 1.248 . S
C195 Tb131 2.802 . S
C195 O170 1.264 . S
C195 O173 1.256 . S
C195 C188 1.496 . S
H196 C179 0.929 . S
H197 C180 0.929 . S
H198 C181 0.929 . S
H199 C182 0.931 . S
H200 C190 0.929 . S
H201 C191 0.929 . S
H202 C192 0.931 . S
H203 C193 0.929 . S
H204 C212 0.950 . S
H205 C217 0.950 . S
H206 C214 0.950 . S
H207 C216 0.950 . S
H208 C218 0.950 . S
H209 C220 0.950 . S
H210 C222 0.950 . S
H211 C223 0.950 . S
C212 H204 0.950 . S
C212 C213 1.386 . S
C212 C214 1.391 . S
C213 C212 1.386 . S
C213 C217 1.393 . S
C214 H206 0.950 . S
C214 C212 1.391 . S
C214 C215 1.400 . S
C215 C214 1.400 . S
C215 C216 1.398 . S
C215 C221 1.491 . S
C216 H207 0.950 . S
C216 C215 1.398 . S
C216 C217 1.391 . S
C217 H205 0.950 . S
C217 C213 1.393 . S
C217 C216 1.391 . S
C218 H208 0.950 . S
C218 C219 1.386 . S
C218 C220 1.391 . S
C219 C218 1.386 . S
C219 C223 1.393 . S
C220 H209 0.950 . S
C220 C218 1.391 . S
C220 C221 1.400 . S
C221 C215 1.491 . S
C221 C220 1.400 . S
C221 C222 1.398 . S
C222 H210 0.950 . S
C222 C221 1.398 . S
C222 C223 1.391 . S
C223 H211 0.950 . S
C223 C219 1.393 . S
C223 C222 1.391 . S
H224 C232 0.946 1_556 S
H225 C237 0.950 . S
H226 C234 0.950 1_556 S
H227 C236 0.950 . S
H228 C238 0.950 . S
H229 C240 0.950 . S
H230 C242 0.950 1_556 S
H231 C243 0.950 1_556 S
C232 H224 0.946 1_554 S
C232 C233 1.391 . S
C232 C234 1.389 . S
C233 C232 1.391 . S
C233 C237 1.393 . S
C234 H226 0.950 1_554 S
C234 C232 1.389 . S
C234 C235 1.400 . S
C235 C234 1.400 . S
C235 C236 1.398 . S
C235 C241 1.491 . S
C236 H227 0.950 . S
C236 C235 1.398 . S
C236 C237 1.391 . S
C237 H225 0.950 . S
C237 C233 1.393 . S
C237 C236 1.391 . S
C238 H228 0.950 . S
C238 C239 1.386 . S
C238 C240 1.391 . S
C239 C238 1.386 . S
C239 C243 1.393 . S
C240 H229 0.950 . S
C240 C238 1.391 . S
C240 C241 1.400 . S
C241 C235 1.491 . S
C241 C240 1.400 . S
C241 C242 1.398 . S
C242 H230 0.950 1_554 S
C242 C241 1.398 . S
C242 C243 1.391 . S
C243 H231 0.950 1_554 S
C243 C239 1.393 . S
C243 C242 1.391 . S
H244 C252 0.950 . S
H245 C257 0.950 . S
H246 C254 0.950 . S
H247 C256 0.950 . S
H248 C258 0.950 . S
H249 C260 0.950 . S
H250 C262 0.950 . S
H251 C263 0.950 . S
C252 H244 0.950 . S
C252 C253 1.386 . S
C252 C254 1.391 . S
C253 C252 1.386 . S
C253 C257 1.393 . S
C254 H246 0.950 . S
C254 C252 1.391 . S
C254 C255 1.400 . S
C255 C254 1.400 . S
C255 C256 1.398 . S
C255 C261 1.491 . S
C256 H247 0.950 . S
C256 C255 1.398 . S
C256 C257 1.391 . S
C257 H245 0.950 . S
C257 C253 1.393 . S
C257 C256 1.391 . S
C258 H248 0.950 . S
C258 C259 1.386 . S
C258 C260 1.391 . S
C259 C258 1.386 . S
C259 C263 1.393 . S
C260 H249 0.950 . S
C260 C258 1.391 . S
C260 C261 1.400 . S
C261 C255 1.491 . S
C261 C260 1.400 . S
C261 C262 1.398 . S
C262 H250 0.950 . S
C262 C261 1.398 . S
C262 C263 1.391 . S
C263 H251 0.950 . S
C263 C259 1.393 . S
C263 C262 1.391 . S
H264 C272 0.950 . S
H265 C277 0.950 . S
H266 C274 0.950 . S
H267 C276 0.950 . S
H268 C278 0.949 . S
H269 C280 0.950 . S
H270 C282 0.950 . S
H271 C283 0.950 . S
C272 H264 0.950 . S
C272 C273 1.386 . S
C272 C274 1.391 . S
C273 C272 1.386 . S
C273 C277 1.393 . S
C274 H266 0.950 . S
C274 C272 1.391 . S
C274 C275 1.400 . S
C275 C274 1.400 . S
C275 C276 1.398 . S
C275 C281 1.491 . S
C276 H267 0.950 . S
C276 C275 1.398 . S
C276 C277 1.391 . S
C277 H265 0.950 . S
C277 C273 1.393 . S
C277 C276 1.391 . S
C278 H268 0.949 . S
C278 C279 1.386 . S
C278 C280 1.391 . S
C279 C278 1.386 . S
C279 C283 1.393 . S
C280 H269 0.950 . S
C280 C278 1.391 . S
C280 C281 1.400 . S
C281 C275 1.491 . S
C281 C280 1.400 . S
C281 C282 1.398 . S
C282 H270 0.950 . S
C282 C281 1.398 . S
C282 C283 1.391 . S
C283 H271 0.950 . S
C283 C279 1.393 . S
C283 C282 1.391 . S
H284 C292 0.950 . S
H285 C297 0.950 . S
H286 C294 0.950 . S
H287 C296 0.950 . S
H288 C298 0.950 . S
H289 C300 0.950 . S
H290 C302 0.950 . S
H291 C303 0.950 . S
C292 H284 0.950 . S
C292 C293 1.386 . S
C292 C294 1.391 . S
C293 C292 1.386 . S
C293 C297 1.393 . S
C294 H286 0.950 . S
C294 C292 1.391 . S
C294 C295 1.400 . S
C295 C294 1.400 . S
C295 C296 1.398 . S
C295 C301 1.491 . S
C296 H287 0.950 . S
C296 C295 1.398 . S
C296 C297 1.391 . S
C297 H285 0.950 . S
C297 C293 1.393 . S
C297 C296 1.391 . S
C298 H288 0.950 . S
C298 C299 1.386 . S
C298 C300 1.391 . S
C299 C298 1.386 . S
C299 C303 1.393 . S
C300 H289 0.950 . S
C300 C298 1.391 . S
C300 C301 1.400 . S
C301 C295 1.491 . S
C301 C300 1.400 . S
C301 C302 1.398 . S
C302 H290 0.950 . S
C302 C301 1.398 . S
C302 C303 1.391 . S
C303 H291 0.950 . S
C303 C299 1.393 . S
C303 C302 1.391 . S
H304 C312 0.950 . S
H305 C317 0.950 . S
H306 C314 0.950 . S
H307 C316 0.950 . S
H308 C318 0.950 . S
H309 C320 0.950 . S
H310 C322 0.950 . S
H311 C323 0.950 . S
C312 H304 0.950 . S
C312 C313 1.386 . S
C312 C314 1.391 . S
C313 C312 1.386 . S
C313 C317 1.393 . S
C314 H306 0.950 . S
C314 C312 1.391 . S
C314 C315 1.400 . S
C315 C314 1.400 . S
C315 C316 1.398 . S
C315 C321 1.491 . S
C316 H307 0.950 . S
C316 C315 1.398 . S
C316 C317 1.391 . S
C317 H305 0.950 . S
C317 C313 1.393 . S
C317 C316 1.391 . S
C318 H308 0.950 . S
C318 C319 1.386 . S
C318 C320 1.391 . S
C319 C318 1.386 . S
C319 C323 1.393 . S
C320 H309 0.950 . S
C320 C318 1.391 . S
C320 C321 1.400 . S
C321 C315 1.491 . S
C321 C320 1.400 . S
C321 C322 1.398 . S
C322 H310 0.950 . S
C322 C321 1.398 . S
C322 C323 1.391 . S
C323 H311 0.950 . S
C323 C319 1.393 . S
C323 C322 1.391 . S
H324 C332 0.950 . S
H325 C337 0.950 . S
H326 C334 0.950 . S
H327 C336 0.950 . S
H328 C338 0.950 . S
H329 C340 0.950 . S
H330 C342 0.950 . S
H331 C343 0.950 . S
C332 H324 0.950 . S
C332 C333 1.386 . S
C332 C334 1.391 . S
C333 C332 1.386 . S
C333 C337 1.393 . S
C334 H326 0.950 . S
C334 C332 1.391 . S
C334 C335 1.400 . S
C335 C334 1.400 . S
C335 C336 1.398 . S
C335 C341 1.491 . S
C336 H327 0.950 . S
C336 C335 1.398 . S
C336 C337 1.391 . S
C337 H325 0.950 . S
C337 C333 1.393 . S
C337 C336 1.391 . S
C338 H328 0.950 . S
C338 C339 1.386 . S
C338 C340 1.391 . S
C339 C338 1.386 . S
C339 C343 1.393 . S
C340 H329 0.950 . S
C340 C338 1.391 . S
C340 C341 1.400 . S
C341 C335 1.491 . S
C341 C340 1.400 . S
C341 C342 1.398 . S
C342 H330 0.950 . S
C342 C341 1.398 . S
C342 C343 1.391 . S
C343 H331 0.950 . S
C343 C339 1.393 . S
C343 C342 1.391 . S
H344 C352 0.950 . S
H345 C357 0.950 . S
H346 C354 0.950 . S
H347 C356 0.950 . S
H348 C358 0.950 . S
H349 C360 0.950 . S
H350 C362 0.950 . S
H351 C363 0.950 . S
C352 H344 0.950 . S
C352 C353 1.386 . S
C352 C354 1.391 . S
C353 C352 1.386 . S
C353 C357 1.393 . S
C354 H346 0.950 . S
C354 C352 1.391 . S
C354 C355 1.400 . S
C355 C354 1.400 . S
C355 C356 1.398 . S
C355 C361 1.491 . S
C356 H347 0.950 . S
C356 C355 1.398 . S
C356 C357 1.391 . S
C357 H345 0.950 . S
C357 C353 1.393 . S
C357 C356 1.391 . S
C358 H348 0.950 . S
C358 C359 1.386 . S
C358 C360 1.391 . S
C359 C358 1.386 . S
C359 C363 1.393 . S
C360 H349 0.950 . S
C360 C358 1.391 . S
C360 C361 1.400 . S
C361 C355 1.491 . S
C361 C360 1.400 . S
C361 C362 1.398 . S
C362 H350 0.950 . S
C362 C361 1.398 . S
C362 C363 1.391 . S
C363 H351 0.950 . S
C363 C359 1.393 . S
C363 C362 1.391 . S
H364 C372 0.950 . S
H365 C377 0.950 . S
H366 C374 0.950 . S
H367 C376 0.950 . S
H368 C378 0.950 . S
H369 C380 0.950 . S
H370 C382 0.950 . S
H371 C383 0.950 . S
C372 H364 0.950 . S
C372 C373 1.386 . S
C372 C374 1.391 . S
C373 C372 1.386 . S
C373 C377 1.393 . S
C374 H366 0.950 . S
C374 C372 1.391 . S
C374 C375 1.400 . S
C375 C374 1.400 . S
C375 C376 1.398 . S
C375 C381 1.491 . S
C376 H367 0.950 . S
C376 C375 1.398 . S
C376 C377 1.391 . S
C377 H365 0.950 . S
C377 C373 1.393 . S
C377 C376 1.391 . S
C378 H368 0.950 . S
C378 C379 1.386 . S
C378 C380 1.391 . S
C379 C378 1.386 . S
C379 C383 1.393 . S
C380 H369 0.950 . S
C380 C378 1.391 . S
C380 C381 1.400 . S
C381 C375 1.491 . S
C381 C380 1.400 . S
C381 C382 1.398 . S
C382 H370 0.950 . S
C382 C381 1.398 . S
C382 C383 1.391 . S
C383 H371 0.950 . S
C383 C379 1.393 . S
C383 C382 1.391 . S
H384 C392 0.950 1_554 S
H385 C397 0.950 . S
H386 C394 0.950 . S
H387 C396 0.950 . S
H388 C398 0.950 . S
H389 C400 0.950 . S
H390 C402 0.950 . S
H391 C403 0.950 . S
C392 H384 0.950 1_556 S
C392 C393 1.386 . S
C392 C394 1.391 . S
C393 C392 1.386 . S
C393 C397 1.393 . S
C394 H386 0.950 . S
C394 C392 1.391 . S
C394 C395 1.400 . S
C395 C394 1.400 . S
C395 C396 1.398 . S
C395 C401 1.491 . S
C396 H387 0.950 . S
C396 C395 1.398 . S
C396 C397 1.391 . S
C397 H385 0.950 . S
C397 C393 1.393 . S
C397 C396 1.391 . S
C398 H388 0.950 . S
C398 C399 1.386 . S
C398 C400 1.391 . S
C399 C398 1.386 . S
C399 C403 1.393 . S
C400 H389 0.950 . S
C400 C398 1.391 . S
C400 C401 1.400 . S
C401 C395 1.491 . S
C401 C400 1.400 . S
C401 C402 1.398 . S
C402 H390 0.950 . S
C402 C401 1.398 . S
C402 C403 1.391 . S
C403 H391 0.950 . S
C403 C399 1.393 . S
C403 C402 1.391 . S
H404 C412 0.950 . S
H405 C417 0.950 . S
H406 C414 0.950 . S
H407 C416 0.950 . S
H408 C418 0.950 . S
H409 C420 0.950 . S
H410 C422 0.950 . S
H411 C423 0.950 . S
C412 H404 0.950 . S
C412 C413 1.386 . S
C412 C414 1.391 . S
C413 C412 1.386 . S
C413 C417 1.393 . S
C414 H406 0.950 . S
C414 C412 1.391 . S
C414 C415 1.400 . S
C415 C414 1.400 . S
C415 C416 1.398 . S
C415 C421 1.491 . S
C416 H407 0.950 . S
C416 C415 1.398 . S
C416 C417 1.391 . S
C417 H405 0.950 . S
C417 C413 1.393 . S
C417 C416 1.391 . S
C418 H408 0.950 . S
C418 C419 1.386 . S
C418 C420 1.391 . S
C419 C418 1.386 . S
C419 C423 1.393 . S
C420 H409 0.950 . S
C420 C418 1.391 . S
C420 C421 1.400 . S
C421 C415 1.491 . S
C421 C420 1.400 . S
C421 C422 1.398 . S
C422 H410 0.950 . S
C422 C421 1.398 . S
C422 C423 1.391 . S
C423 H411 0.950 . S
C423 C419 1.393 . S
C423 C422 1.391 . S
H424 C432 0.950 . S
H425 C437 0.950 . S
H426 C434 0.950 . S
H427 C436 0.950 . S
H428 C438 0.950 1_545 S
H429 C440 0.950 1_545 S
H430 C442 0.950 . S
H431 C443 0.950 . S
C432 H424 0.950 . S
C432 C433 1.386 . S
C432 C434 1.391 . S
C433 C432 1.386 . S
C433 C437 1.393 . S
C434 H426 0.950 . S
C434 C432 1.391 . S
C434 C435 1.400 . S
C435 C434 1.400 . S
C435 C436 1.398 . S
C435 C441 1.491 . S
C436 H427 0.950 . S
C436 C435 1.398 . S
C436 C437 1.391 . S
C437 H425 0.950 . S
C437 C433 1.393 . S
C437 C436 1.391 . S
C438 H428 0.950 1_565 S
C438 C439 1.386 . S
C438 C440 1.391 . S
C439 C438 1.386 . S
C439 C443 1.393 . S
C440 H429 0.950 1_565 S
C440 C438 1.391 . S
C440 C441 1.400 . S
C441 C435 1.491 . S
C441 C440 1.400 . S
C441 C442 1.398 . S
C442 H430 0.950 . S
C442 C441 1.398 . S
C442 C443 1.391 . S
C443 H431 0.950 . S
C443 C439 1.393 . S
C443 C442 1.391 . S
C219 C99 1.557 . S
C213 C34 1.562 . S
C233 C7 1.550 . S
C239 C194 1.539 . S
C253 C16 1.566 . S
C259 C110 1.543 . S
C273 C25 1.541 . S
C279 C183 1.540 . S
C299 C94 1.370 . S
C293 C5 1.526 . S
C319 C187 1.567 . S
C313 C13 1.556 . S
C333 C23 1.535 . S
C339 C103 1.550 . S
C353 C32 1.521 . S
C359 C178 1.352 . S
C379 C189 1.381 . S
C373 C14 1.516 . S
C399 C105 1.346 . S
C393 C22 1.525 1_556 S
C419 C176 1.565 . S
C413 C31 1.555 . S
C433 C4 1.533 . S
C439 C92 1.549 . S
