# Generated by pormake.
# Topology tsx, (6,3)-cn, num edge types: 1
# Building blocks:
#     Node 0, Type 0, BuildingBlock: FUNLAD_clean_sbu_0, # of connection points: 6
#     Node 1, Type 0, BuildingBlock: FUNLAD_clean_sbu_0, # of connection points: 6
#     Node 2, Type 1, BuildingBlock: BETDIP_clean_linker_0, # of connection points: 3
#     Node 3, Type 1, BuildingBlock: BETDIP_clean_linker_0, # of connection points: 3
#     Node 4, Type 1, BuildingBlock: BETDIP_clean_linker_0, # of connection points: 3
#     Node 5, Type 1, BuildingBlock: BETDIP_clean_linker_0, # of connection points: 3
#     Edge 6, Type (0, 1), BuildingBlock: XUDNAN_clean_linker_2, # of connection points: 2
#     Edge 7, Type (0, 1), BuildingBlock: XUDNAN_clean_linker_2, # of connection points: 2
#     Edge 8, Type (0, 1), BuildingBlock: XUDNAN_clean_linker_2, # of connection points: 2
#     Edge 9, Type (0, 1), BuildingBlock: XUDNAN_clean_linker_2, # of connection points: 2
#     Edge 10, Type (0, 1), BuildingBlock: XUDNAN_clean_linker_2, # of connection points: 2
#     Edge 11, Type (0, 1), BuildingBlock: XUDNAN_clean_linker_2, # of connection points: 2
#     Edge 12, Type (0, 1), BuildingBlock: XUDNAN_clean_linker_2, # of connection points: 2
#     Edge 13, Type (0, 1), BuildingBlock: XUDNAN_clean_linker_2, # of connection points: 2
#     Edge 14, Type (0, 1), BuildingBlock: XUDNAN_clean_linker_2, # of connection points: 2
#     Edge 15, Type (0, 1), BuildingBlock: XUDNAN_clean_linker_2, # of connection points: 2
#     Edge 16, Type (0, 1), BuildingBlock: XUDNAN_clean_linker_2, # of connection points: 2
#     Edge 17, Type (0, 1), BuildingBlock: XUDNAN_clean_linker_2, # of connection points: 2
# Relax obj value: 0.112
# Max RMSD: 0.116
# Mean RMSD: 0.112
data_MOF--net-tsx--node1-FUNLAD_clean_sbu_0--node2-BETDIP_clean_linker_0--edge1-XUDNAN_clean_linker_2
_symmetry_space_group_name_H-M    P1
_symmetry_Int_Tables_number       1
_symmetry_cell_setting            triclinic
loop_
_symmetry_equiv_pos_as_xyz
'x, y, z'
_cell_length_a     19.411995
_cell_length_b     21.431608
_cell_length_c     39.5973
_cell_angle_alpha  90.997083
_cell_angle_beta   102.32824
_cell_angle_gamma 89.932304
loop_
_atom_site_label
_atom_site_type_symbol
_atom_site_fract_x
_atom_site_fract_y
_atom_site_fract_z
_atom_type_partial_charge
C0 C 0.95993 0.9609 -0.00234 0.0
N1 N 0.10369 0.04405 0.07953 0.0
C2 C 0.04871 0.0421 0.09578 0.0
C3 C 0.06061 0.03713 0.13147 0.0
C4 C 0.12987 0.03376 0.15096 0.0
C5 C 0.18602 0.03657 0.13372 0.0
C6 C 0.17161 0.04162 0.09767 0.0
Zn7 Zn 0.07732 0.05133 0.02708 0.0
C8 C 0.1596 0.97117 0.98952 0.0
N9 N 0.00751 0.06794 0.91844 0.0
C10 C 0.9385 0.06799 0.90172 0.0
C11 C 0.06016 0.07321 0.90084 0.0
C12 C 0.04452 0.07683 0.86495 0.0
C13 C 0.974 0.07585 0.84698 0.0
C14 C 0.92042 0.07237 0.86571 0.0
Zn15 Zn 0.03578 0.05907 0.97077 0.0
O16 O -0.00084 0.982 0.02532 0.0
C17 C 0.95531 0.14103 0.00789 0.0
O18 O 0.96609 0.98239 0.96877 0.0
H19 H 0.11461 0.07392 0.91461 0.0
H20 H 0.99511 0.04453 0.08103 0.0
H21 H 0.89752 0.06381 0.91625 0.0
O22 O 0.00261 0.12239 0.03298 0.0
O23 O 0.95417 0.12006 0.97759 0.0
H24 H 0.21449 0.04342 0.08418 0.0
O25 O 0.10527 0.1364 0.97336 0.0
O26 O 0.15365 0.12119 0.02796 0.0
O27 O 0.11819 0.99812 0.96489 0.0
O28 O 0.15309 0.98132 0.02044 0.0
C29 C 0.15077 0.15152 0.00039 0.0
H30 H 0.01575 0.03654 0.1437 0.0
H31 H 0.24022 0.03395 0.14785 0.0
H32 H 0.08719 0.08008 0.85133 0.0
H33 H 0.86541 0.07111 0.85258 0.0
C34 C 0.39107 0.36832 0.49091 0.0
N35 N 0.50598 0.43477 0.58632 0.0
C36 C 0.44289 0.43019 0.59592 0.0
C37 C 0.44035 0.42333 0.63052 0.0
C38 C 0.50322 0.42263 0.65561 0.0
C39 C 0.56771 0.4278 0.64526 0.0
C40 C 0.56793 0.43325 0.61014 0.0
Zn41 Zn 0.50375 0.44762 0.53514 0.0
C42 C 0.59657 0.36022 0.50658 0.0
N43 N 0.49142 0.47601 0.42787 0.0
C44 C 0.42834 0.49107 0.4072 0.0
C45 C 0.55211 0.47709 0.41587 0.0
C46 C 0.551 0.4952 0.38207 0.0
C47 C 0.48713 0.51363 0.36087 0.0
C48 C 0.42513 0.51085 0.37353 0.0
Zn49 Zn 0.49623 0.46004 0.47901 0.0
O50 O 0.41699 0.38592 0.52176 0.0
C51 C 0.40335 0.54755 0.50718 0.0
O52 O 0.41595 0.38989 0.46627 0.0
H53 H 0.60181 0.46574 0.43282 0.0
H54 H 0.39414 0.43282 0.57679 0.0
H55 H 0.38063 0.4895 0.41711 0.0
O56 O 0.43316 0.52368 0.53568 0.0
O57 O 0.41941 0.52815 0.47944 0.0
H58 H 0.61745 0.43702 0.60197 0.0
O59 O 0.57636 0.52974 0.49202 0.0
O60 O 0.59079 0.50986 0.54727 0.0
O61 O 0.5734 0.39192 0.47975 0.0
O62 O 0.5744 0.3713 0.5341 0.0
C63 C 0.60897 0.53961 0.52306 0.0
H64 H 0.38967 0.4203 0.63772 0.0
H65 H 0.61721 0.42738 0.66409 0.0
H66 H 0.5998 0.49706 0.373 0.0
H67 H 0.3749 0.52427 0.35761 0.0
H68 H 0.02279 0.9163 0.47059 0.0
H69 H -0.00056 0.03757 0.38325 0.0
H70 H 0.16374 0.9015 0.40023 0.0
H71 H 0.9559 0.10231 0.41715 0.0
C72 C 0.92913 0.07476 0.4332 0.0
C73 C 0.04033 0.93196 0.44797 0.0
C74 C 0.09703 0.90217 0.43761 0.0
C75 C 0.006 0.98212 0.42928 0.0
C76 C 0.02733 0.00122 0.39922 0.0
C77 C 0.08443 0.97229 0.38907 0.0
C78 C 0.11952 0.92351 0.4084 0.0
N79 N 0.951 0.01267 0.44161 0.0
H80 H 0.94697 0.91726 0.51185 0.0
H81 H 0.98105 0.07422 0.58341 0.0
H82 H 0.8879 0.90678 0.6104 0.0
H83 H 0.97244 0.12739 0.53349 0.0
C84 C 0.00692 0.09886 0.52132 0.0
C85 C 0.94232 0.93887 0.53617 0.0
C86 C 0.91417 0.90467 0.56012 0.0
C87 C 0.96614 1.00055 0.5441 0.0
C88 C 0.96051 0.02789 0.57604 0.0
C89 C 0.93241 0.99403 0.59979 0.0
C90 C 0.90943 0.93281 0.59175 0.0
N91 N 4e-05 0.03272 0.52095 0.0
H92 H 0.58207 0.51737 0.00179 0.0
H93 H 0.47507 0.56371 0.89843 0.0
H94 H 0.58704 0.39181 0.91581 0.0
H95 H 0.52858 0.66127 0.9224 0.0
C96 C 0.50242 0.66068 0.9441 0.0
C97 C 0.56664 0.50503 0.97458 0.0
C98 C 0.58883 0.44799 0.96208 0.0
C99 C 0.52661 0.54751 0.95167 0.0
C100 C 0.50684 0.53192 0.91629 0.0
C101 C 0.52731 0.47509 0.90377 0.0
C102 C 0.56825 0.43379 0.92652 0.0
N103 N 0.50695 0.606 0.96424 0.0
H104 H 0.47383 0.56012 0.01885 0.0
H105 H 0.54557 0.66197 0.1145 0.0
H106 H 0.41615 0.49985 0.11202 0.0
H107 H 0.56806 0.73731 0.08103 0.0
C108 C 0.58119 0.7147 0.0585 0.0
C109 C 0.47496 0.56648 0.04604 0.0
C110 C 0.44081 0.5232 0.06307 0.0
C111 C 0.51213 0.61719 0.06397 0.0
C112 C 0.51512 0.6247 0.09967 0.0
C113 C 0.4812 0.58182 0.11697 0.0
C114 C 0.44378 0.53176 0.09855 0.0
N115 N 0.54946 0.65693 0.0457 0.0
H116 H 0.26273 0.18894 0.05113 0.0
H117 H 0.14283 0.23775 0.94949 0.0
H118 H 0.21316 0.33421 0.95169 0.0
H119 H 0.27213 0.33661 0.08778 0.0
H120 H 0.36086 0.32981 0.11287 0.0
H121 H 0.30731 0.2611 0.10152 0.0
H122 H 0.40305 0.21161 0.07282 0.0
H123 H 0.45725 0.28018 0.08432 0.0
H124 H 0.43407 0.25363 0.0399 0.0
H125 H 0.28637 0.43126 0.96819 0.0
H126 H 0.35843 0.51953 -0.00284 0.0
H127 H 0.4347 0.4041 0.08643 0.0
C128 C 0.25209 0.21931 0.02905 0.0
C129 C 0.19729 0.20591 0.00018 0.0
C130 C 0.18477 0.24699 0.97186 0.0
C131 C 0.2245 0.30185 0.97283 0.0
C132 C 0.27717 0.31436 0.00204 0.0
C133 C 0.2916 0.27385 0.02945 0.0
C134 C 0.34808 0.29973 0.05866 0.0
C135 C 0.3204 0.30727 0.09217 0.0
C136 C 0.41456 0.25885 0.06424 0.0
C137 C 0.36101 0.36226 0.04403 0.0
C138 C 0.32026 0.36969 0.01121 0.0
C139 C 0.3196 0.42554 0.99361 0.0
C140 C 0.36091 0.47537 0.01025 0.0
C141 C 0.40216 0.46895 0.04416 0.0
C142 C 0.40318 0.41097 0.06071 0.0
H143 H 0.22214 0.86468 0.02171 0.0
H144 H 0.22896 0.99303 0.93886 0.0
H145 H 0.32432 0.9319 0.92252 0.0
H146 H 0.41374 0.82812 0.04353 0.0
H147 H 0.39974 0.74662 0.05039 0.0
H148 H 0.33709 0.80386 0.05886 0.0
H149 H 0.23658 0.74422 0.01721 0.0
H150 H 0.29905 0.68696 0.00879 0.0
H151 H 0.24466 0.72775 0.97341 0.0
H152 H 0.41406 0.85713 0.91304 0.0
H153 H 0.48885 0.7661 0.90782 0.0
H154 H 0.42242 0.67994 0.99405 0.0
C155 C 0.2447 0.88016 0.00052 0.0
C156 C 0.21847 0.93379 0.98162 0.0
C157 C 0.24811 0.95206 0.9536 0.0
C158 C 0.30267 0.9179 0.94426 0.0
C159 C 0.32688 0.86502 0.96295 0.0
C160 C 0.29883 0.84561 0.99033 0.0
C161 C 0.33121 0.78377 0.0039 0.0
C162 C 0.37291 0.79105 0.0414 0.0
C163 C 0.27448 0.73266 0.00061 0.0
C164 C 0.38034 0.7713 0.97935 0.0
C165 C 0.37774 0.81964 0.95649 0.0
C166 C 0.41687 0.81903 0.93086 0.0
C167 C 0.45913 0.76716 0.92808 0.0
C168 C 0.46144 0.71622 0.95048 0.0
C169 C 0.4221 0.71852 0.97675 0.0
H170 H 0.89064 0.95173 0.04992 0.0
H171 H 0.90079 0.87113 0.94989 0.0
H172 H 0.80414 0.79791 0.95423 0.0
H173 H 0.85221 0.81265 0.09093 0.0
H174 H 0.79169 0.85069 0.11333 0.0
H175 H 0.86301 0.89431 0.10256 0.0
H176 H 0.77364 0.97434 0.07009 0.0
H177 H 0.70197 0.93089 0.08066 0.0
H178 H 0.70193 0.94742 0.03618 0.0
H179 H 0.7098 0.73059 0.97151 0.0
H180 H 0.61979 0.68055 -0.00223 0.0
H181 H 0.66489 0.81327 0.08349 0.0
C182 C 0.87303 0.91821 0.02907 0.0
C183 C 0.90364 0.91612 -0.0002 0.0
C184 C 0.87809 0.87291 0.97261 0.0
C185 C 0.82342 0.8313 0.97489 0.0
C186 C 0.79426 0.8347 0.00419 0.0
C187 C 0.81769 0.87766 0.03055 0.0
C188 C 0.7758 0.87403 0.05856 0.0
C189 C 0.82354 0.85688 0.09339 0.0
C190 C 0.73597 0.9353 0.06152 0.0
C191 C 0.72563 0.82152 0.04419 0.0
C192 C 0.73738 0.79901 0.01296 0.0
C193 C 0.69942 0.74857 -0.00436 0.0
C194 C 0.64812 0.72063 0.01065 0.0
C195 C 0.6344 0.74406 0.04221 0.0
C196 C 0.67363 0.79516 0.05904 0.0
H197 H 0.81577 0.14447 0.97751 0.0
H198 H 0.97846 0.24355 0.05062 0.0
H199 H 0.89409 0.32868 0.055 0.0
H200 H 0.73942 0.26839 0.93166 0.0
H201 H 0.64943 0.24212 0.92593 0.0
H202 H 0.71983 0.18625 0.93235 0.0
H203 H 0.67686 0.14191 0.98482 0.0
H204 H 0.60611 0.19796 0.97854 0.0
H205 H 0.66669 0.19359 0.01982 0.0
H206 H 0.79873 0.41085 0.04209 0.0
H207 H 0.70042 0.47925 0.01557 0.0
H208 H 0.59373 0.32007 0.95806 0.0
C209 C 0.83297 0.18354 -0.00501 0.0
C210 C 0.90331 0.18798 0.01362 0.0
C211 C 0.92444 0.23946 0.0363 0.0
C212 C 0.87689 0.28784 0.03898 0.0
C213 C 0.80792 0.28276 0.01972 0.0
C214 C 0.78563 0.23109 -0.0012 0.0
C215 C 0.71007 0.23816 0.97941 0.0
C216 C 0.70443 0.23349 0.94003 0.0
C217 C 0.6621 0.19004 0.99138 0.0
C218 C 0.6948 0.30354 0.99082 0.0
C219 C 0.75153 0.32851 0.01427 0.0
C220 C 0.75308 0.3912 0.02459 0.0
C221 C 0.69657 0.42977 0.00952 0.0
C222 C 0.63912 0.4054 0.98448 0.0
C223 C 0.63699 0.34062 0.97677 0.0
H224 H 0.62976 0.64292 0.48637 0.0
H225 H 0.72106 0.53804 0.57776 0.0
H226 H 0.81965 0.61335 0.59173 0.0
H227 H 0.79662 0.69574 0.46493 0.0
H228 H 0.76252 0.77221 0.45262 0.0
H229 H 0.7039 0.70585 0.44696 0.0
H230 H 0.62551 0.76183 0.48345 0.0
H231 H 0.68343 0.82839 0.48889 0.0
H232 H 0.66491 0.79053 0.52628 0.0
H233 H 0.90333 0.70221 0.59808 0.0
H234 H 0.95956 0.80582 0.6005 0.0
H235 H 0.81257 0.8572 0.5066 0.0
C236 C 0.67126 0.63534 0.50898 0.0
C237 C 0.66832 0.58438 0.53085 0.0
C238 C 0.72246 0.57673 0.56067 0.0
C239 C 0.77893 0.61895 0.56863 0.0
C240 C 0.7802 0.66887 0.54667 0.0
C241 C 0.72745 0.67779 0.51767 0.0
C242 C 0.73757 0.739 0.50058 0.0
C243 C 0.75095 0.72749 0.4641 0.0
C244 C 0.6741 0.7825 0.49978 0.0
C245 C 0.80326 0.76381 0.52502 0.0
C246 C 0.82773 0.72177 0.55095 0.0
C247 C 0.88514 0.73524 0.57776 0.0
C248 C 0.91678 0.79408 0.57889 0.0
C249 C 0.89061 0.83904 0.5536 0.0
C250 C 0.83448 0.82306 0.52576 0.0
H251 H 0.69838 0.36238 0.46956 0.0
H252 H 0.61161 0.24786 0.53957 0.0
H253 H 0.69144 0.1614 0.53053 0.0
H254 H 0.71391 0.2486 0.40904 0.0
H255 H 0.79665 0.27592 0.40104 0.0
H256 H 0.7377 0.32991 0.41557 0.0
H257 H 0.83668 0.36318 0.46783 0.0
H258 H 0.89636 0.30985 0.45315 0.0
H259 H 0.88167 0.30449 0.49642 0.0
H260 H 0.7716 0.08403 0.50785 0.0
H261 H 0.85304 0.02634 0.47831 0.0
H262 H 0.89037 0.19531 0.42619 0.0
C263 C 0.69695 0.31937 0.48338 0.0
C264 C 0.64891 0.31123 0.50506 0.0
C265 C 0.64854 0.25473 0.52296 0.0
C266 C 0.69343 0.20552 0.51789 0.0
C267 C 0.73909 0.21454 0.49552 0.0
C268 C 0.74211 0.27066 0.47918 0.0
C269 C 0.79453 0.26866 0.45596 0.0
C270 C 0.75851 0.28151 0.41818 0.0
C271 C 0.85594 0.31424 0.46914 0.0
C272 C 0.81851 0.20179 0.46055 0.0
C273 C 0.78637 0.17117 0.48353 0.0
C274 C 0.79792 0.10791 0.49029 0.0
C275 C 0.844 0.0755 0.47332 0.0
C276 C 0.87828 0.1068 0.45028 0.0
C277 C 0.86512 0.17052 0.44389 0.0
H278 H 0.27219 0.37642 0.51588 0.0
H279 H 0.3784 0.25967 0.45268 0.0
H280 H 0.28608 0.17825 0.44964 0.0
H281 H 0.22151 0.2621 0.56549 0.0
H282 H 0.13616 0.29438 0.56649 0.0
H283 H 0.20658 0.34485 0.56081 0.0
H284 H 0.12891 0.38608 0.50406 0.0
H285 H 0.05782 0.33599 0.50969 0.0
H286 H 0.08982 0.33157 0.47021 0.0
H287 H 0.19184 0.10386 0.46199 0.0
H288 H 0.09663 0.04881 0.48233 0.0
H289 H 0.04537 0.21963 0.5315 0.0
C290 C 0.27496 0.3342 0.50078 0.0
C291 C 0.33187 0.32384 0.48448 0.0
C292 C 0.33451 0.2683 0.46502 0.0
C293 C 0.28255 0.22192 0.46329 0.0
C294 C 0.22763 0.23295 0.48038 0.0
C295 C 0.22265 0.28854 0.49798 0.0
C296 C 0.15957 0.28883 0.51474 0.0
C297 C 0.18236 0.29806 0.55421 0.0
C298 C 0.10585 0.33857 0.49871 0.0
C299 C 0.13137 0.22375 0.50517 0.0
C300 C 0.17124 0.19195 0.48543 0.0
C301 C 0.15905 0.12898 0.47653 0.0
C302 C 0.10476 0.09804 0.4881 0.0
C303 C 0.06262 0.13048 0.50766 0.0
C304 C 0.07586 0.19416 0.51589 0.0
H305 H 0.31542 0.59042 0.44971 0.0
H306 H 0.37342 0.61838 0.56099 0.0
H307 H 0.29089 0.70778 0.55642 0.0
H308 H 0.30944 0.74584 0.42787 0.0
H309 H 0.23543 0.73767 0.39183 0.0
H310 H 0.29265 0.67238 0.40468 0.0
H311 H 0.18553 0.60531 0.41157 0.0
H312 H 0.12773 0.67045 0.39858 0.0
H313 H 0.12875 0.63312 0.43912 0.0
H314 H 0.21022 0.80097 0.53811 0.0
H315 H 0.14001 0.88815 0.50794 0.0
H316 H 0.13467 0.79428 0.40949 0.0
C317 C 0.31025 0.6147 0.47326 0.0
C318 C 0.35088 0.59773 0.50569 0.0
C319 C 0.34251 0.63068 0.53586 0.0
C320 C 0.29574 0.68134 0.53351 0.0
C321 C 0.25736 0.69754 0.5009 0.0
C322 C 0.26387 0.66467 0.4714 0.0
C323 C 0.22041 0.69297 0.43917 0.0
C324 C 0.26729 0.71343 0.41446 0.0
C325 C 0.16214 0.64776 0.42106 0.0
C326 C 0.19002 0.7483 0.45491 0.0
C327 C 0.21107 0.75012 0.49054 0.0
C328 C 0.1926 0.79947 0.51027 0.0
C329 C 0.15265 0.84862 0.49298 0.0
C330 C 0.13238 0.84793 0.45642 0.0
C331 C 0.15001 0.79632 0.43744 0.0
H332 H 0.05752 0.95974 0.18678 0.0
H333 H 0.2285 0.09437 0.20101 0.0
H334 H 0.23907 0.09106 0.26443 0.0
H335 H 0.97438 0.02348 0.24978 0.0
H336 H 0.94813 0.94933 0.26384 0.0
H337 H 0.95917 0.95761 0.22016 0.0
H338 H 0.04853 0.86623 0.2283 0.0
H339 H 0.03725 0.85719 0.27194 0.0
H340 H 0.12412 0.86912 0.26381 0.0
H341 H 0.22495 0.07736 0.32639 0.0
H342 H 0.18939 0.05175 0.3813 0.0
H343 H 0.02512 0.93002 0.32489 0.0
C344 C 0.09749 0.98838 0.20319 0.0
C345 C 0.14202 0.02753 0.189 0.0
C346 C 0.19431 0.06357 0.2114 0.0
C347 C 0.20038 0.06225 0.24739 0.0
C348 C 0.15399 0.02446 0.2604 0.0
C349 C 0.10392 0.98787 0.23891 0.0
C350 C 0.05834 0.95319 0.25889 0.0
C351 C 0.98041 0.97206 0.24748 0.0
C352 C 0.06766 0.88223 0.25554 0.0
C353 C 0.08966 0.9767 0.29505 0.0
C354 C 0.14516 0.01743 0.29557 0.0
C355 C 0.18176 0.04541 0.32626 0.0
C356 C 0.16124 0.03094 0.35716 0.0
C357 C 0.1045 0.98952 0.35678 0.0
C358 C 0.06839 0.9622 0.32548 0.0
H359 H 0.02932 0.99896 0.8046 0.0
H360 H 0.88069 0.15035 0.8036 0.0
H361 H 0.85625 0.14948 0.73942 0.0
H362 H 0.10035 0.04749 0.7326 0.0
H363 H 0.10739 0.96901 0.71658 0.0
H364 H 0.114 0.98334 0.76212 0.0
H365 H 0.01208 0.90499 0.76175 0.0
H366 H 0.00539 0.89021 0.71627 0.0
H367 H 0.92895 0.91545 0.73181 0.0
H368 H 0.85124 0.13259 0.67491 0.0
H369 H 0.85772 0.09449 0.61598 0.0
H370 H 0.00546 0.95159 0.66086 0.0
C371 C 0.992 0.03223 0.79084 0.0
C372 C 0.95733 0.07517 0.8088 0.0
C373 C 0.9077 0.11715 0.79009 0.0
C374 C 0.89387 0.11716 0.75377 0.0
C375 C 0.92961 0.07442 0.73681 0.0
C376 C 0.97705 0.03229 0.75482 0.0
C377 C 0.00657 0.9894 0.7308 0.0
C378 C 0.08683 0.99785 0.73583 0.0
C379 C 0.98704 0.92097 0.73544 0.0
C380 C 0.96834 0.01373 0.69633 0.0
C381 C 0.9248 0.0633 0.70016 0.0
C382 C 0.88493 0.09367 0.67164 0.0
C383 C 0.88903 0.07205 0.63841 0.0
C384 C 0.93182 0.02024 0.63432 0.0
C385 C 0.97217 0.99118 0.66357 0.0
H386 H 0.56188 0.50311 0.70792 0.0
H387 H 0.4368 0.33408 0.68564 0.0
H388 H 0.42663 0.33024 0.74686 0.0
H389 H 0.65682 0.46294 0.79345 0.0
H390 H 0.65438 0.54115 0.81064 0.0
H391 H 0.65364 0.52883 0.76547 0.0
H392 H 0.53855 0.5933 0.74942 0.0
H393 H 0.53853 0.60523 0.79456 0.0
H394 H 0.46275 0.57088 0.76598 0.0
H395 H 0.43285 0.34363 0.81053 0.0
H396 H 0.45264 0.37497 0.87241 0.0
H397 H 0.56682 0.53889 0.85214 0.0
C398 C 0.53314 0.46497 0.71615 0.0
C399 C 0.50065 0.41849 0.69244 0.0
C400 C 0.46215 0.3699 0.70369 0.0
C401 C 0.4561 0.36741 0.73828 0.0
C402 C 0.48808 0.4144 0.76101 0.0
C403 C 0.52559 0.46241 0.75042 0.0
C404 C 0.55325 0.50797 0.77981 0.0
C405 C 0.63433 0.51032 0.78781 0.0
C406 C 0.52134 0.5732 0.77196 0.0
C407 C 0.52594 0.47781 0.80865 0.0
C408 C 0.48881 0.42369 0.79732 0.0
C409 C 0.46113 0.38625 0.81964 0.0
C410 C 0.47242 0.40433 0.85458 0.0
C411 C 0.51009 0.45964 0.86654 0.0
C412 C 0.53651 0.4971 0.84326 0.0
H413 H 0.5296 0.45334 0.30772 0.0
H414 H 0.43991 0.6269 0.33584 0.0
H415 H 0.43675 0.66717 0.27723 0.0
H416 H 0.6369 0.51765 0.2518 0.0
H417 H 0.6184 0.45391 0.22088 0.0
H418 H 0.61856 0.44095 0.26573 0.0
H419 H 0.49139 0.39663 0.24858 0.0
H420 H 0.49096 0.40925 0.20372 0.0
H421 H 0.42289 0.44305 0.22283 0.0
H422 H 0.44249 0.68757 0.21527 0.0
H423 H 0.44578 0.68253 0.15298 0.0
H424 H 0.52553 0.49345 0.16511 0.0
C425 C 0.51005 0.50003 0.3015 0.0
C426 C 0.48549 0.53745 0.32604 0.0
C427 C 0.45892 0.59782 0.31713 0.0
C428 C 0.45732 0.62108 0.28409 0.0
C429 C 0.48182 0.58297 0.26032 0.0
C430 C 0.50693 0.52346 0.26851 0.0
C431 C 0.52545 0.49028 0.23764 0.0
C432 C 0.60453 0.47481 0.24443 0.0
C433 C 0.47994 0.43133 0.2276 0.0
C434 C 0.50645 0.54021 0.21076 0.0
C435 C 0.48243 0.59372 0.22441 0.0
C436 C 0.46126 0.64595 0.20429 0.0
C437 C 0.46353 0.64285 0.1691 0.0
C438 C 0.4857 0.58762 0.15455 0.0
C439 C 0.50817 0.53611 0.17576 0.0
loop_
_geom_bond_atom_site_label_1
_geom_bond_atom_site_label_2
_geom_bond_distance
_geom_bond_site_symmetry_2
_ccdc_geom_bond_type
C0 O16 1.251 . S
C0 O18 1.254 1_554 S
N1 C2 1.333 1_445 S
N1 C6 1.307 . S
N1 Zn7 2.020 . S
C2 N1 1.333 1_665 S
C2 C3 1.379 . S
C2 H20 0.952 . S
C3 C2 1.379 . S
C3 C4 1.390 1_665 S
C3 H30 0.949 . S
C4 C3 1.390 1_445 S
C4 C5 1.357 . S
C5 C4 1.357 . S
C5 C6 1.370 . S
C5 H31 0.950 . S
C6 N1 1.307 . S
C6 C5 1.370 . S
C6 H24 0.948 . S
Zn7 N1 2.020 . S
Zn7 O16 2.039 1_445 S
Zn7 O22 2.034 1_455 S
Zn7 O26 2.025 . S
Zn7 O28 2.024 1_545 S
C8 O27 1.246 1_554 S
C8 O28 1.249 . S
N9 C10 1.307 1_545 S
N9 C11 1.332 1_655 S
N9 Zn15 2.020 1_655 S
C10 N9 1.307 1_565 S
C10 C14 1.370 . S
C10 H21 0.948 . S
C11 N9 1.332 1_455 S
C11 C12 1.379 . S
C11 H19 0.952 . S
C12 C11 1.379 . S
C12 C13 1.390 1_455 S
C12 H32 0.949 . S
C13 C12 1.390 1_655 S
C13 C14 1.357 1_545 S
C14 C10 1.370 . S
C14 C13 1.357 1_565 S
C14 H33 0.950 . S
Zn15 N9 2.020 1_455 S
Zn15 O18 2.025 1_445 S
Zn15 O23 2.024 1_455 S
Zn15 O25 2.039 . S
Zn15 O27 2.034 1_545 S
O16 C0 1.251 . S
O16 Zn7 2.039 1_665 S
C17 O22 1.246 . S
C17 O23 1.249 1_554 S
O18 C0 1.254 1_556 S
O18 Zn15 2.025 1_665 S
H19 C11 0.952 . S
H20 C2 0.952 . S
H21 C10 0.948 . S
O22 Zn7 2.034 1_655 S
O22 C17 1.246 . S
O23 Zn15 2.024 1_655 S
O23 C17 1.249 1_556 S
H24 C6 0.948 . S
O25 Zn15 2.039 . S
O25 C29 1.251 1_556 S
O26 Zn7 2.025 . S
O26 C29 1.254 . S
O27 C8 1.246 1_556 S
O27 Zn15 2.034 1_565 S
O28 Zn7 2.024 1_565 S
O28 C8 1.249 . S
C29 O25 1.251 1_554 S
C29 O26 1.254 . S
H30 C3 0.949 . S
H31 C5 0.950 . S
H32 C12 0.949 . S
H33 C14 0.950 . S
C34 O50 1.251 . S
C34 O52 1.254 . S
N35 C36 1.333 . S
N35 C40 1.307 . S
N35 Zn41 2.020 . S
C36 N35 1.333 . S
C36 C37 1.379 . S
C36 H54 0.952 . S
C37 C36 1.379 . S
C37 C38 1.390 . S
C37 H64 0.949 . S
C38 C37 1.390 . S
C38 C39 1.357 . S
C39 C38 1.357 . S
C39 C40 1.370 . S
C39 H65 0.950 . S
C40 N35 1.307 . S
C40 C39 1.370 . S
C40 H58 0.948 . S
Zn41 N35 2.020 . S
Zn41 O50 2.039 . S
Zn41 O56 2.034 . S
Zn41 O60 2.025 . S
Zn41 O62 2.024 . S
C42 O61 1.246 . S
C42 O62 1.249 . S
N43 C44 1.307 . S
N43 C45 1.333 . S
N43 Zn49 2.020 . S
C44 N43 1.307 . S
C44 C48 1.370 . S
C44 H55 0.948 . S
C45 N43 1.333 . S
C45 C46 1.379 . S
C45 H53 0.952 . S
C46 C45 1.379 . S
C46 C47 1.390 . S
C46 H66 0.949 . S
C47 C46 1.390 . S
C47 C48 1.357 . S
C48 C44 1.370 . S
C48 C47 1.357 . S
C48 H67 0.950 . S
Zn49 N43 2.020 . S
Zn49 O52 2.025 . S
Zn49 O57 2.024 . S
Zn49 O59 2.039 . S
Zn49 O61 2.034 . S
O50 C34 1.251 . S
O50 Zn41 2.039 . S
C51 O56 1.246 . S
C51 O57 1.249 . S
O52 C34 1.254 . S
O52 Zn49 2.025 . S
H53 C45 0.952 . S
H54 C36 0.952 . S
H55 C44 0.948 . S
O56 Zn41 2.034 . S
O56 C51 1.246 . S
O57 Zn49 2.024 . S
O57 C51 1.249 . S
H58 C40 0.948 . S
O59 Zn49 2.039 . S
O59 C63 1.251 . S
O60 Zn41 2.025 . S
O60 C63 1.254 . S
O61 C42 1.246 . S
O61 Zn49 2.034 . S
O62 Zn41 2.024 . S
O62 C42 1.249 . S
C63 O59 1.251 . S
C63 O60 1.254 . S
H64 C37 0.949 . S
H65 C39 0.950 . S
H66 C46 0.949 . S
H67 C48 0.950 . S
H68 C73 0.930 . S
H69 C76 0.930 1_655 S
H70 C78 0.930 . S
H71 C72 1.016 . S
C72 H71 1.016 . S
C72 N79 1.286 . S
C73 H68 0.930 . S
C73 C74 1.397 . S
C73 C75 1.361 1_565 S
C74 C73 1.397 . S
C74 C78 1.390 . S
C75 C73 1.361 1_545 S
C75 C76 1.393 . S
C75 N79 1.413 1_455 S
C76 H69 0.930 1_455 S
C76 C75 1.393 . S
C76 C77 1.399 . S
C77 C76 1.399 . S
C77 C78 1.381 1_545 S
C78 H70 0.930 . S
C78 C74 1.390 . S
C78 C77 1.381 1_565 S
N79 C72 1.286 . S
N79 C75 1.413 1_655 S
H80 C85 0.930 . S
H81 C88 0.930 . S
H82 C90 0.930 . S
H83 C84 1.016 . S
C84 H83 1.016 . S
C84 N91 1.286 . S
C85 H80 0.930 . S
C85 C86 1.397 . S
C85 C87 1.361 1_665 S
C86 C85 1.397 . S
C86 C90 1.390 . S
C87 C85 1.361 1_445 S
C87 C88 1.393 . S
C87 N91 1.413 . S
C88 H81 0.930 . S
C88 C87 1.393 . S
C88 C89 1.399 1_455 S
C89 C88 1.399 1_655 S
C89 C90 1.381 1_545 S
C90 H82 0.930 . S
C90 C86 1.390 . S
C90 C89 1.381 1_565 S
N91 C84 1.286 . S
N91 C87 1.413 . S
H92 C97 0.930 1_554 S
H93 C100 0.930 . S
H94 C102 0.930 . S
H95 C96 1.016 . S
C96 H95 1.016 . S
C96 N103 1.286 . S
C97 H92 0.930 1_556 S
C97 C98 1.397 . S
C97 C99 1.361 . S
C98 C97 1.397 . S
C98 C102 1.390 . S
C99 C97 1.361 . S
C99 C100 1.393 . S
C99 N103 1.413 . S
C100 H93 0.930 . S
C100 C99 1.393 . S
C100 C101 1.399 . S
C101 C100 1.399 . S
C101 C102 1.381 . S
C102 H94 0.930 . S
C102 C98 1.390 . S
C102 C101 1.381 . S
N103 C96 1.286 . S
N103 C99 1.413 . S
H104 C109 0.930 1_556 S
H105 C112 0.930 . S
H106 C114 0.930 . S
H107 C108 1.016 . S
C108 H107 1.016 . S
C108 N115 1.286 . S
C109 H104 0.930 1_554 S
C109 C110 1.397 . S
C109 C111 1.361 . S
C110 C109 1.397 . S
C110 C114 1.390 . S
C111 C109 1.361 . S
C111 C112 1.393 . S
C111 N115 1.413 . S
C112 H105 0.930 . S
C112 C111 1.393 . S
C112 C113 1.399 . S
C113 C112 1.399 . S
C113 C114 1.381 . S
C114 H106 0.930 . S
C114 C110 1.390 . S
C114 C113 1.381 . S
N115 C108 1.286 . S
N115 C111 1.413 . S
H116 C128 0.930 . S
H117 C130 0.930 . S
H118 C131 0.930 . S
H119 C135 0.959 . S
H120 C135 0.959 . S
H121 C135 0.961 . S
H122 C136 0.960 . S
H123 C136 0.961 . S
H124 C136 0.959 . S
H125 C139 0.929 . S
H126 C140 0.931 . S
H127 C142 0.930 1_556 S
C128 H116 0.930 . S
C128 C129 1.399 1_556 S
C128 C133 1.399 1_556 S
C129 C128 1.399 1_554 S
C129 C130 1.376 . S
C130 H117 0.930 . S
C130 C129 1.376 . S
C130 C131 1.388 . S
C131 H118 0.930 . S
C131 C130 1.388 . S
C131 C132 1.390 . S
C132 C131 1.390 . S
C132 C133 1.394 . S
C132 C138 1.465 . S
C133 C128 1.399 1_554 S
C133 C132 1.394 . S
C133 C134 1.516 1_554 S
C134 C133 1.516 1_556 S
C134 C135 1.502 . S
C134 C136 1.561 . S
C134 C137 1.526 1_556 S
C135 H119 0.959 . S
C135 H120 0.959 . S
C135 H121 0.961 . S
C135 C134 1.502 . S
C136 H122 0.960 . S
C136 H123 0.961 . S
C136 H124 0.959 . S
C136 C134 1.561 . S
C137 C134 1.526 1_554 S
C137 C138 1.396 . S
C137 C142 1.390 . S
C138 C132 1.465 . S
C138 C137 1.396 . S
C138 C139 1.399 . S
C139 H125 0.929 . S
C139 C138 1.399 . S
C139 C140 1.385 . S
C140 H126 0.931 . S
C140 C139 1.385 . S
C140 C141 1.389 . S
C141 C140 1.389 . S
C141 C142 1.387 . S
C142 H127 0.930 1_554 S
C142 C137 1.390 . S
C142 C141 1.387 . S
H143 C155 0.930 . S
H144 C157 0.930 . S
H145 C158 0.930 . S
H146 C162 0.959 . S
H147 C162 0.959 . S
H148 C162 0.961 . S
H149 C163 0.960 . S
H150 C163 0.961 . S
H151 C163 0.959 1_556 S
H152 C166 0.929 . S
H153 C167 0.931 . S
H154 C169 0.930 . S
C155 H143 0.930 . S
C155 C156 1.399 . S
C155 C160 1.399 . S
C156 C155 1.399 . S
C156 C157 1.376 1_554 S
C157 H144 0.930 . S
C157 C156 1.376 1_556 S
C157 C158 1.388 . S
C158 H145 0.930 . S
C158 C157 1.388 . S
C158 C159 1.390 . S
C159 C158 1.390 . S
C159 C160 1.394 1_556 S
C159 C165 1.465 . S
C160 C155 1.399 . S
C160 C159 1.394 1_554 S
C160 C161 1.516 . S
C161 C160 1.516 . S
C161 C162 1.502 . S
C161 C163 1.561 . S
C161 C164 1.526 . S
C162 H146 0.959 . S
C162 H147 0.959 . S
C162 H148 0.961 . S
C162 C161 1.502 . S
C163 H149 0.960 . S
C163 H150 0.961 . S
C163 H151 0.959 1_554 S
C163 C161 1.561 . S
C164 C161 1.526 . S
C164 C165 1.396 1_554 S
C164 C169 1.390 . S
C165 C159 1.465 . S
C165 C164 1.396 1_556 S
C165 C166 1.399 . S
C166 H152 0.929 . S
C166 C165 1.399 . S
C166 C167 1.385 . S
C167 H153 0.931 . S
C167 C166 1.385 . S
C167 C168 1.389 . S
C168 C167 1.389 . S
C168 C169 1.387 1_556 S
C169 H154 0.930 . S
C169 C164 1.390 . S
C169 C168 1.387 1_554 S
H170 C182 0.930 . S
H171 C184 0.930 . S
H172 C185 0.930 . S
H173 C189 0.959 . S
H174 C189 0.959 . S
H175 C189 0.961 . S
H176 C190 0.960 . S
H177 C190 0.961 . S
H178 C190 0.959 . S
H179 C193 0.929 . S
H180 C194 0.931 . S
H181 C196 0.930 . S
C182 H170 0.930 . S
C182 C183 1.408 . S
C182 C187 1.399 . S
C183 C182 1.408 . S
C183 C184 1.368 1_554 S
C184 H171 0.930 . S
C184 C183 1.368 1_556 S
C184 C185 1.388 . S
C185 H172 0.930 . S
C185 C184 1.388 . S
C185 C186 1.390 . S
C186 C185 1.390 . S
C186 C187 1.394 1_556 S
C186 C192 1.465 . S
C187 C182 1.399 . S
C187 C186 1.394 1_554 S
C187 C188 1.516 . S
C188 C187 1.516 . S
C188 C189 1.502 . S
C188 C190 1.561 . S
C188 C191 1.526 . S
C189 H173 0.959 . S
C189 H174 0.959 . S
C189 H175 0.961 . S
C189 C188 1.502 . S
C190 H176 0.960 . S
C190 H177 0.961 . S
C190 H178 0.959 . S
C190 C188 1.561 . S
C191 C188 1.526 . S
C191 C192 1.396 1_554 S
C191 C196 1.390 . S
C192 C186 1.465 . S
C192 C191 1.396 1_556 S
C192 C193 1.399 . S
C193 H179 0.929 . S
C193 C192 1.399 . S
C193 C194 1.385 . S
C194 H180 0.931 . S
C194 C193 1.385 . S
C194 C195 1.389 1_556 S
C195 C194 1.389 1_554 S
C195 C196 1.387 . S
C196 H181 0.930 . S
C196 C191 1.390 . S
C196 C195 1.387 . S
H197 C209 0.930 . S
H198 C211 0.930 . S
H199 C212 0.930 . S
H200 C216 0.959 . S
H201 C216 0.959 . S
H202 C216 0.961 . S
H203 C217 0.960 . S
H204 C217 0.961 . S
H205 C217 0.959 . S
H206 C220 0.929 . S
H207 C221 0.931 . S
H208 C223 0.930 . S
C209 H197 0.930 . S
C209 C210 1.399 1_554 S
C209 C214 1.399 . S
C210 C209 1.399 1_556 S
C210 C211 1.376 . S
C211 H198 0.930 . S
C211 C210 1.376 . S
C211 C212 1.388 . S
C212 H199 0.930 . S
C212 C211 1.388 . S
C212 C213 1.390 . S
C213 C212 1.390 . S
C213 C214 1.394 1_556 S
C213 C219 1.465 . S
C214 C209 1.399 . S
C214 C213 1.394 1_554 S
C214 C215 1.516 . S
C215 C214 1.516 . S
C215 C216 1.502 . S
C215 C217 1.561 . S
C215 C218 1.526 . S
C216 H200 0.959 . S
C216 H201 0.959 . S
C216 H202 0.961 . S
C216 C215 1.502 . S
C217 H203 0.960 . S
C217 H204 0.961 . S
C217 H205 0.959 . S
C217 C215 1.561 . S
C218 C215 1.526 . S
C218 C219 1.396 1_554 S
C218 C223 1.390 . S
C219 C213 1.465 . S
C219 C218 1.396 1_556 S
C219 C220 1.399 . S
C220 H206 0.929 . S
C220 C219 1.399 . S
C220 C221 1.385 . S
C221 H207 0.931 . S
C221 C220 1.385 . S
C221 C222 1.389 . S
C222 C221 1.389 . S
C222 C223 1.387 1_556 S
C223 H208 0.930 . S
C223 C218 1.390 . S
C223 C222 1.387 1_554 S
H224 C236 0.930 . S
H225 C238 0.930 . S
H226 C239 0.930 . S
H227 C243 0.959 . S
H228 C243 0.959 . S
H229 C243 0.961 . S
H230 C244 0.960 . S
H231 C244 0.961 . S
H232 C244 0.959 . S
H233 C247 0.929 . S
H234 C248 0.931 . S
H235 C250 0.930 . S
C236 H224 0.930 . S
C236 C237 1.399 . S
C236 C241 1.399 . S
C237 C236 1.399 . S
C237 C238 1.376 . S
C238 H225 0.930 . S
C238 C237 1.376 . S
C238 C239 1.388 . S
C239 H226 0.930 . S
C239 C238 1.388 . S
C239 C240 1.390 . S
C240 C239 1.390 . S
C240 C241 1.394 . S
C240 C246 1.465 . S
C241 C236 1.399 . S
C241 C240 1.394 . S
C241 C242 1.516 . S
C242 C241 1.516 . S
C242 C243 1.502 . S
C242 C244 1.561 . S
C242 C245 1.526 . S
C243 H227 0.959 . S
C243 H228 0.959 . S
C243 H229 0.961 . S
C243 C242 1.502 . S
C244 H230 0.960 . S
C244 H231 0.961 . S
C244 H232 0.959 . S
C244 C242 1.561 . S
C245 C242 1.526 . S
C245 C246 1.396 . S
C245 C250 1.390 . S
C246 C240 1.465 . S
C246 C245 1.396 . S
C246 C247 1.399 . S
C247 H233 0.929 . S
C247 C246 1.399 . S
C247 C248 1.385 . S
C248 H234 0.931 . S
C248 C247 1.385 . S
C248 C249 1.389 . S
C249 C248 1.389 . S
C249 C250 1.387 . S
C250 H235 0.930 . S
C250 C245 1.390 . S
C250 C249 1.387 . S
H251 C263 0.930 . S
H252 C265 0.930 . S
H253 C266 0.930 . S
H254 C270 0.959 . S
H255 C270 0.959 . S
H256 C270 0.961 . S
H257 C271 0.960 . S
H258 C271 0.961 . S
H259 C271 0.959 . S
H260 C274 0.929 . S
H261 C275 0.931 . S
H262 C277 0.930 . S
C263 H251 0.930 . S
C263 C264 1.399 . S
C263 C268 1.399 . S
C264 C263 1.399 . S
C264 C265 1.376 . S
C265 H252 0.930 . S
C265 C264 1.376 . S
C265 C266 1.388 . S
C266 H253 0.930 . S
C266 C265 1.388 . S
C266 C267 1.390 . S
C267 C266 1.390 . S
C267 C268 1.394 . S
C267 C273 1.465 . S
C268 C263 1.399 . S
C268 C267 1.394 . S
C268 C269 1.516 . S
C269 C268 1.516 . S
C269 C270 1.502 . S
C269 C271 1.561 . S
C269 C272 1.526 . S
C270 H254 0.959 . S
C270 H255 0.959 . S
C270 H256 0.961 . S
C270 C269 1.502 . S
C271 H257 0.960 . S
C271 H258 0.961 . S
C271 H259 0.959 . S
C271 C269 1.561 . S
C272 C269 1.526 . S
C272 C273 1.396 . S
C272 C277 1.390 . S
C273 C267 1.465 . S
C273 C272 1.396 . S
C273 C274 1.399 . S
C274 H260 0.929 . S
C274 C273 1.399 . S
C274 C275 1.385 . S
C275 H261 0.931 . S
C275 C274 1.385 . S
C275 C276 1.389 . S
C276 C275 1.389 . S
C276 C277 1.387 . S
C277 H262 0.930 . S
C277 C272 1.390 . S
C277 C276 1.387 . S
H278 C290 0.930 . S
H279 C292 0.930 . S
H280 C293 0.930 . S
H281 C297 0.959 . S
H282 C297 0.959 . S
H283 C297 0.961 . S
H284 C298 0.960 . S
H285 C298 0.961 . S
H286 C298 0.959 . S
H287 C301 0.929 . S
H288 C302 0.931 . S
H289 C304 0.930 . S
C290 H278 0.930 . S
C290 C291 1.399 . S
C290 C295 1.399 . S
C291 C290 1.399 . S
C291 C292 1.376 . S
C292 H279 0.930 . S
C292 C291 1.376 . S
C292 C293 1.388 . S
C293 H280 0.930 . S
C293 C292 1.388 . S
C293 C294 1.390 . S
C294 C293 1.390 . S
C294 C295 1.394 . S
C294 C300 1.465 . S
C295 C290 1.399 . S
C295 C294 1.394 . S
C295 C296 1.516 . S
C296 C295 1.516 . S
C296 C297 1.502 . S
C296 C298 1.561 . S
C296 C299 1.526 . S
C297 H281 0.959 . S
C297 H282 0.959 . S
C297 H283 0.961 . S
C297 C296 1.502 . S
C298 H284 0.960 . S
C298 H285 0.961 . S
C298 H286 0.959 . S
C298 C296 1.561 . S
C299 C296 1.526 . S
C299 C300 1.396 . S
C299 C304 1.390 . S
C300 C294 1.465 . S
C300 C299 1.396 . S
C300 C301 1.399 . S
C301 H287 0.929 . S
C301 C300 1.399 . S
C301 C302 1.385 . S
C302 H288 0.931 . S
C302 C301 1.385 . S
C302 C303 1.389 . S
C303 C302 1.389 . S
C303 C304 1.387 . S
C304 H289 0.930 . S
C304 C299 1.390 . S
C304 C303 1.387 . S
H305 C317 0.930 . S
H306 C319 0.930 . S
H307 C320 0.930 . S
H308 C324 0.959 . S
H309 C324 0.959 . S
H310 C324 0.961 . S
H311 C325 0.960 . S
H312 C325 0.961 . S
H313 C325 0.959 . S
H314 C328 0.929 . S
H315 C329 0.931 . S
H316 C331 0.930 . S
C317 H305 0.930 . S
C317 C318 1.399 . S
C317 C322 1.399 . S
C318 C317 1.399 . S
C318 C319 1.376 . S
C319 H306 0.930 . S
C319 C318 1.376 . S
C319 C320 1.388 . S
C320 H307 0.930 . S
C320 C319 1.388 . S
C320 C321 1.390 . S
C321 C320 1.390 . S
C321 C322 1.394 . S
C321 C327 1.465 . S
C322 C317 1.399 . S
C322 C321 1.394 . S
C322 C323 1.516 . S
C323 C322 1.516 . S
C323 C324 1.502 . S
C323 C325 1.561 . S
C323 C326 1.526 . S
C324 H308 0.959 . S
C324 H309 0.959 . S
C324 H310 0.961 . S
C324 C323 1.502 . S
C325 H311 0.960 . S
C325 H312 0.961 . S
C325 H313 0.959 . S
C325 C323 1.561 . S
C326 C323 1.526 . S
C326 C327 1.396 . S
C326 C331 1.390 . S
C327 C321 1.465 . S
C327 C326 1.396 . S
C327 C328 1.399 . S
C328 H314 0.929 . S
C328 C327 1.399 . S
C328 C329 1.385 . S
C329 H315 0.931 . S
C329 C328 1.385 . S
C329 C330 1.389 . S
C330 C329 1.389 . S
C330 C331 1.387 . S
C331 H316 0.930 . S
C331 C326 1.390 . S
C331 C330 1.387 . S
H332 C344 0.930 . S
H333 C346 0.930 . S
H334 C347 0.930 . S
H335 C351 0.959 . S
H336 C351 0.959 . S
H337 C351 0.961 . S
H338 C352 0.960 . S
H339 C352 0.961 . S
H340 C352 0.959 . S
H341 C355 0.929 . S
H342 C356 0.931 . S
H343 C358 0.930 . S
C344 H332 0.930 . S
C344 C345 1.399 1_565 S
C344 C349 1.399 . S
C345 C344 1.399 1_545 S
C345 C346 1.376 . S
C346 H333 0.930 . S
C346 C345 1.376 . S
C346 C347 1.388 . S
C347 H334 0.930 . S
C347 C346 1.388 . S
C347 C348 1.390 . S
C348 C347 1.390 . S
C348 C349 1.394 1_545 S
C348 C354 1.465 . S
C349 C344 1.399 . S
C349 C348 1.394 1_565 S
C349 C350 1.516 . S
C350 C349 1.516 . S
C350 C351 1.502 1_455 S
C350 C352 1.561 . S
C350 C353 1.526 . S
C351 H335 0.959 . S
C351 H336 0.959 . S
C351 H337 0.961 . S
C351 C350 1.502 1_655 S
C352 H338 0.960 . S
C352 H339 0.961 . S
C352 H340 0.959 . S
C352 C350 1.561 . S
C353 C350 1.526 . S
C353 C354 1.396 1_565 S
C353 C358 1.390 . S
C354 C348 1.465 . S
C354 C353 1.396 1_545 S
C354 C355 1.399 . S
C355 H341 0.929 . S
C355 C354 1.399 . S
C355 C356 1.385 . S
C356 H342 0.931 . S
C356 C355 1.385 . S
C356 C357 1.389 . S
C357 C356 1.389 . S
C357 C358 1.387 1_545 S
C358 H343 0.930 . S
C358 C353 1.390 . S
C358 C357 1.387 1_565 S
H359 C371 0.930 . S
H360 C373 0.930 . S
H361 C374 0.930 . S
H362 C378 0.959 . S
H363 C378 0.959 . S
H364 C378 0.961 . S
H365 C379 0.960 . S
H366 C379 0.961 . S
H367 C379 0.959 . S
H368 C382 0.929 . S
H369 C383 0.931 . S
H370 C385 0.930 . S
C371 H359 0.930 . S
C371 C372 1.399 1_465 S
C371 C376 1.399 . S
C372 C371 1.399 1_645 S
C372 C373 1.376 . S
C373 H360 0.930 . S
C373 C372 1.376 . S
C373 C374 1.388 . S
C374 H361 0.930 . S
C374 C373 1.388 . S
C374 C375 1.390 . S
C375 C374 1.390 . S
C375 C376 1.394 1_645 S
C375 C381 1.465 . S
C376 C371 1.399 . S
C376 C375 1.394 1_465 S
C376 C377 1.516 . S
C377 C376 1.516 . S
C377 C378 1.502 . S
C377 C379 1.561 1_455 S
C377 C380 1.526 . S
C378 H362 0.959 . S
C378 H363 0.959 . S
C378 H364 0.961 . S
C378 C377 1.502 . S
C379 H365 0.960 . S
C379 H366 0.961 . S
C379 H367 0.959 . S
C379 C377 1.561 1_655 S
C380 C377 1.526 . S
C380 C381 1.396 1_465 S
C380 C385 1.390 . S
C381 C375 1.465 . S
C381 C380 1.396 1_645 S
C381 C382 1.399 . S
C382 H368 0.929 . S
C382 C381 1.399 . S
C382 C383 1.385 . S
C383 H369 0.931 . S
C383 C382 1.385 . S
C383 C384 1.389 . S
C384 C383 1.389 . S
C384 C385 1.387 1_645 S
C385 H370 0.930 . S
C385 C380 1.390 . S
C385 C384 1.387 1_465 S
H386 C398 0.930 . S
H387 C400 0.930 . S
H388 C401 0.930 . S
H389 C405 0.959 . S
H390 C405 0.959 . S
H391 C405 0.961 . S
H392 C406 0.960 . S
H393 C406 0.961 . S
H394 C406 0.959 . S
H395 C409 0.929 . S
H396 C410 0.931 . S
H397 C412 0.930 . S
C398 H386 0.930 . S
C398 C399 1.399 . S
C398 C403 1.399 . S
C399 C398 1.399 . S
C399 C400 1.376 . S
C400 H387 0.930 . S
C400 C399 1.376 . S
C400 C401 1.388 . S
C401 H388 0.930 . S
C401 C400 1.388 . S
C401 C402 1.390 . S
C402 C401 1.390 . S
C402 C403 1.394 . S
C402 C408 1.465 . S
C403 C398 1.399 . S
C403 C402 1.394 . S
C403 C404 1.516 . S
C404 C403 1.516 . S
C404 C405 1.502 . S
C404 C406 1.561 . S
C404 C407 1.526 . S
C405 H389 0.959 . S
C405 H390 0.959 . S
C405 H391 0.961 . S
C405 C404 1.502 . S
C406 H392 0.960 . S
C406 H393 0.961 . S
C406 H394 0.959 . S
C406 C404 1.561 . S
C407 C404 1.526 . S
C407 C408 1.396 . S
C407 C412 1.390 . S
C408 C402 1.465 . S
C408 C407 1.396 . S
C408 C409 1.399 . S
C409 H395 0.929 . S
C409 C408 1.399 . S
C409 C410 1.385 . S
C410 H396 0.931 . S
C410 C409 1.385 . S
C410 C411 1.389 . S
C411 C410 1.389 . S
C411 C412 1.387 . S
C412 H397 0.930 . S
C412 C407 1.390 . S
C412 C411 1.387 . S
H413 C425 0.930 . S
H414 C427 0.930 . S
H415 C428 0.930 . S
H416 C432 0.959 . S
H417 C432 0.959 . S
H418 C432 0.961 . S
H419 C433 0.960 . S
H420 C433 0.961 . S
H421 C433 0.959 . S
H422 C436 0.929 . S
H423 C437 0.931 . S
H424 C439 0.930 . S
C425 H413 0.930 . S
C425 C426 1.399 . S
C425 C430 1.399 . S
C426 C425 1.399 . S
C426 C427 1.376 . S
C427 H414 0.930 . S
C427 C426 1.376 . S
C427 C428 1.388 . S
C428 H415 0.930 . S
C428 C427 1.388 . S
C428 C429 1.390 . S
C429 C428 1.390 . S
C429 C430 1.394 . S
C429 C435 1.465 . S
C430 C425 1.399 . S
C430 C429 1.394 . S
C430 C431 1.516 . S
C431 C430 1.516 . S
C431 C432 1.502 . S
C431 C433 1.561 . S
C431 C434 1.526 . S
C432 H416 0.959 . S
C432 H417 0.959 . S
C432 H418 0.961 . S
C432 C431 1.502 . S
C433 H419 0.960 . S
C433 H420 0.961 . S
C433 H421 0.959 . S
C433 C431 1.561 . S
C434 C431 1.526 . S
C434 C435 1.396 . S
C434 C439 1.390 . S
C435 C429 1.465 . S
C435 C434 1.396 . S
C435 C436 1.399 . S
C436 H422 0.929 . S
C436 C435 1.399 . S
C436 C437 1.385 . S
C437 H423 0.931 . S
C437 C436 1.385 . S
C437 C438 1.389 . S
C438 C437 1.389 . S
C438 C439 1.387 . S
C439 H424 0.930 . S
C439 C434 1.390 . S
C439 C438 1.387 . S
C141 C110 1.431 . S
C129 C29 1.478 . S
C156 C8 1.388 . S
C168 C96 1.313 . S
C183 C0 1.404 . S
C195 C108 1.391 . S
C210 C17 1.483 1_556 S
C222 C98 1.432 . S
C237 C63 1.478 . S
C249 C86 1.425 . S
C264 C42 1.400 . S
C276 C72 1.309 . S
C303 C84 1.388 . S
C291 C34 1.404 . S
C330 C74 1.481 . S
C318 C51 1.487 . S
C345 C4 1.511 . S
C357 C77 1.517 . S
C372 C13 1.511 . S
C384 C89 1.508 . S
C411 C101 1.507 . S
C399 C38 1.515 . S
C426 C47 1.512 . S
C438 C113 1.511 . S
