# Generated by pormake.
# Topology hwx, (6,3)-cn, num edge types: 1
# Building blocks:
#     Node 0, Type 0, BuildingBlock: IZENUY_clean_sbu_0, # of connection points: 6
#     Node 1, Type 0, BuildingBlock: IZENUY_clean_sbu_0, # of connection points: 6
#     Node 2, Type 0, BuildingBlock: IZENUY_clean_sbu_0, # of connection points: 6
#     Node 3, Type 0, BuildingBlock: IZENUY_clean_sbu_0, # of connection points: 6
#     Node 4, Type 1, BuildingBlock: PAMTOO_clean_linker_0, # of connection points: 3
#     Node 5, Type 1, BuildingBlock: PAMTOO_clean_linker_0, # of connection points: 3
#     Node 6, Type 1, BuildingBlock: PAMTOO_clean_linker_0, # of connection points: 3
#     Node 7, Type 1, BuildingBlock: PAMTOO_clean_linker_0, # of connection points: 3
#     Node 8, Type 1, BuildingBlock: PAMTOO_clean_linker_0, # of connection points: 3
#     Node 9, Type 1, BuildingBlock: PAMTOO_clean_linker_0, # of connection points: 3
#     Node 10, Type 1, BuildingBlock: PAMTOO_clean_linker_0, # of connection points: 3
#     Node 11, Type 1, BuildingBlock: PAMTOO_clean_linker_0, # of connection points: 3
#     Edge 12, Type (0, 1), BuildingBlock: XIVTED_clean_linker_0, # of connection points: 2
#     Edge 13, Type (0, 1), BuildingBlock: XIVTED_clean_linker_0, # of connection points: 2
#     Edge 14, Type (0, 1), BuildingBlock: XIVTED_clean_linker_0, # of connection points: 2
#     Edge 15, Type (0, 1), BuildingBlock: XIVTED_clean_linker_0, # of connection points: 2
#     Edge 16, Type (0, 1), BuildingBlock: XIVTED_clean_linker_0, # of connection points: 2
#     Edge 17, Type (0, 1), BuildingBlock: XIVTED_clean_linker_0, # of connection points: 2
#     Edge 18, Type (0, 1), BuildingBlock: XIVTED_clean_linker_0, # of connection points: 2
#     Edge 19, Type (0, 1), BuildingBlock: XIVTED_clean_linker_0, # of connection points: 2
#     Edge 20, Type (0, 1), BuildingBlock: XIVTED_clean_linker_0, # of connection points: 2
#     Edge 21, Type (0, 1), BuildingBlock: XIVTED_clean_linker_0, # of connection points: 2
#     Edge 22, Type (0, 1), BuildingBlock: XIVTED_clean_linker_0, # of connection points: 2
#     Edge 23, Type (0, 1), BuildingBlock: XIVTED_clean_linker_0, # of connection points: 2
#     Edge 24, Type (0, 1), BuildingBlock: XIVTED_clean_linker_0, # of connection points: 2
#     Edge 25, Type (0, 1), BuildingBlock: XIVTED_clean_linker_0, # of connection points: 2
#     Edge 26, Type (0, 1), BuildingBlock: XIVTED_clean_linker_0, # of connection points: 2
#     Edge 27, Type (0, 1), BuildingBlock: XIVTED_clean_linker_0, # of connection points: 2
#     Edge 28, Type (0, 1), BuildingBlock: XIVTED_clean_linker_0, # of connection points: 2
#     Edge 29, Type (0, 1), BuildingBlock: XIVTED_clean_linker_0, # of connection points: 2
#     Edge 30, Type (0, 1), BuildingBlock: XIVTED_clean_linker_0, # of connection points: 2
#     Edge 31, Type (0, 1), BuildingBlock: XIVTED_clean_linker_0, # of connection points: 2
#     Edge 32, Type (0, 1), BuildingBlock: XIVTED_clean_linker_0, # of connection points: 2
#     Edge 33, Type (0, 1), BuildingBlock: XIVTED_clean_linker_0, # of connection points: 2
#     Edge 34, Type (0, 1), BuildingBlock: XIVTED_clean_linker_0, # of connection points: 2
#     Edge 35, Type (0, 1), BuildingBlock: XIVTED_clean_linker_0, # of connection points: 2
# Relax obj value: 0.003
# Max RMSD: 0.062
# Mean RMSD: 0.049
data_MOF--net-hwx--node1-IZENUY_clean_sbu_0--node2-PAMTOO_clean_linker_0--edge1-XIVTED_clean_linker_0
_symmetry_space_group_name_H-M    P1
_symmetry_Int_Tables_number       1
_symmetry_cell_setting            triclinic
loop_
_symmetry_equiv_pos_as_xyz
'x, y, z'
_cell_length_a     51.690054
_cell_length_b     51.642915
_cell_length_c     20.854103
_cell_angle_alpha  88.321648
_cell_angle_beta   91.707536
_cell_angle_gamma 89.989716
loop_
_atom_site_label
_atom_site_type_symbol
_atom_site_fract_x
_atom_site_fract_y
_atom_site_fract_z
_atom_type_partial_charge
Fe0 Fe 0.23938 0.23385 0.08169 0.0
Fe1 Fe 0.23947 0.23363 0.93478 0.0
O2 O 0.22727 0.2215 0.00829 0.0
Fe3 Fe 0.203 0.19715 0.00856 0.0
O4 O 0.18681 0.20919 0.07926 0.0
O5 O 0.20748 0.24519 0.10187 0.0
O6 O 0.24555 0.26648 0.0492 0.0
C7 C 0.2359 0.27853 0.00053 0.0
C8 C 0.23276 0.18037 0.11167 0.0
O9 O 0.22928 0.26653 0.95079 0.0
C10 C 0.2366 0.18163 0.91161 0.0
O11 O 0.27222 0.2234 0.06609 0.0
O12 O 0.2722 0.23934 0.96715 0.0
O13 O 0.22333 0.17504 0.05722 0.0
O14 O 0.23519 0.20363 0.12811 0.0
C15 C 0.1859 0.22804 0.90693 0.0
O16 O 0.25051 0.20169 0.91378 0.0
O17 O 0.21482 0.18086 0.93794 0.0
C18 C 0.28423 0.22994 0.01624 0.0
O19 O 0.209 0.23005 0.88904 0.0
O20 O 0.18079 0.21733 0.96012 0.0
C21 C 0.18754 0.23113 0.10505 0.0
Fe22 Fe 0.26507 0.73502 0.56696 0.0
Fe23 Fe 0.29881 0.69734 0.49508 0.0
O24 O 0.27515 0.72223 0.49398 0.0
Fe25 Fe 0.2616 0.73452 0.42025 0.0
O26 O 0.27308 0.76711 0.43615 0.0
O27 O 0.2587 0.76773 0.53392 0.0
O28 O 0.29757 0.74578 0.58671 0.0
C29 C 0.31717 0.73121 0.59095 0.0
C30 C 0.21864 0.73228 0.50221 0.0
O31 O 0.31673 0.70905 0.56623 0.0
C32 C 0.26284 0.68248 0.3976 0.0
O33 O 0.26972 0.70479 0.61399 0.0
O34 O 0.27885 0.67582 0.54319 0.0
O35 O 0.22958 0.74111 0.4525 0.0
O36 O 0.23188 0.7251 0.55137 0.0
C37 C 0.31455 0.72757 0.39354 0.0
O38 O 0.28519 0.68133 0.4242 0.0
O39 O 0.24934 0.70281 0.39946 0.0
C40 C 0.27067 0.68146 0.59734 0.0
O41 O 0.32043 0.71698 0.4472 0.0
O42 O 0.29111 0.73012 0.37495 0.0
C43 C 0.26784 0.77941 0.48553 0.0
Fe44 Fe 0.76255 0.77394 0.92743 0.0
Fe45 Fe 0.76324 0.77431 0.07437 0.0
O46 O 0.77477 0.78662 0.00032 0.0
Fe47 Fe 0.79849 0.81144 -0.00075 0.0
O48 O 0.77747 0.83303 0.95179 0.0
O49 O 0.76501 0.80457 0.88102 0.0
O50 O 0.72978 0.78345 0.94466 0.0
C51 C 0.71807 0.77644 0.99438 0.0
C52 C 0.81416 0.77795 0.90233 0.0
O53 O 0.73047 0.76716 0.04306 0.0
C54 C 0.8167 0.78231 0.10198 0.0
O55 O 0.75786 0.74093 0.96055 0.0
O56 O 0.77469 0.74196 0.05843 0.0
O57 O 0.81457 0.79989 0.92801 0.0
O58 O 0.79448 0.7636 0.90547 0.0
C59 C 0.76485 0.82612 0.09713 0.0
O60 O 0.79365 0.77941 0.11963 0.0
O61 O 0.82137 0.79171 0.04711 0.0
C62 C 0.7682 0.72946 0.0094 0.0
O63 O 0.75126 0.80584 0.09511 0.0
O64 O 0.78648 0.82748 0.07009 0.0
C65 C 0.76652 0.82774 0.89907 0.0
Fe66 Fe 0.70411 0.31057 0.52297 0.0
Fe67 Fe 0.74021 0.27199 0.59694 0.0
O68 O 0.728 0.28589 0.52347 0.0
Fe69 Fe 0.73981 0.27513 0.45002 0.0
O70 O 0.75186 0.30715 0.4296 0.0
O71 O 0.71611 0.32783 0.45122 0.0
O72 O 0.72485 0.33153 0.56995 0.0
C73 C 0.73556 0.32541 0.62333 0.0
C74 C 0.68644 0.28297 0.42146 0.0
O75 O 0.73759 0.3019 0.64197 0.0
C76 C 0.73531 0.22892 0.51543 0.0
O77 O 0.68801 0.29784 0.59455 0.0
O78 O 0.70819 0.26126 0.61948 0.0
O79 O 0.70956 0.28106 0.40396 0.0
O80 O 0.68152 0.29136 0.47587 0.0
C81 C 0.78485 0.27571 0.52989 0.0
O82 O 0.74492 0.23954 0.56483 0.0
O83 O 0.72855 0.24239 0.46626 0.0
C84 C 0.68846 0.27558 0.62173 0.0
O85 O 0.77317 0.28183 0.57952 0.0
O86 O 0.77237 0.26727 0.48181 0.0
C87 C 0.73808 0.32734 0.42569 0.0
H88 H 0.23301 0.58717 0.01472 0.0
H89 H 0.2376 0.51732 0.90799 0.0
H90 H 0.22517 0.51294 0.1109 0.0
H91 H 0.26342 0.47597 0.05755 0.0
C92 C 0.25294 0.47192 0.01151 0.0
O93 O 0.23033 0.48613 0.00673 0.0
H94 H 0.26581 0.47769 0.97169 0.0
C95 C 0.23211 0.56623 0.01286 0.0
C96 C 0.22823 0.55169 0.06957 0.0
C97 C 0.23608 0.55417 0.9545 0.0
C98 C 0.23454 0.52707 0.95244 0.0
C99 C 0.23054 0.51226 0.00876 0.0
C100 C 0.22769 0.52453 0.0674 0.0
H101 H 0.91186 0.7547 0.52081 0.0
H102 H 0.98318 0.75632 0.4192 0.0
H103 H 0.9843 0.74231 0.62355 0.0
H104 H 0.02549 0.77538 0.57963 0.0
C105 C 0.02841 0.76775 0.531 0.0
O106 O 0.01266 0.74658 0.52155 0.0
H107 H 0.0233 0.78346 0.49513 0.0
C108 C 0.93276 0.75291 0.52068 0.0
C109 C 0.94638 0.74795 0.57882 0.0
C110 C 0.94571 0.75641 0.46283 0.0
C111 C 0.97276 0.75371 0.46323 0.0
C112 C 0.9866 0.74857 0.52119 0.0
C113 C 0.97344 0.7459 0.57893 0.0
H114 H 0.77031 0.42163 0.02296 0.0
H115 H 0.77139 0.49487 0.11579 0.0
H116 H 0.77173 0.49274 0.90995 0.0
H117 H 0.80603 0.53223 0.96446 0.0
C118 C 0.79555 0.53633 0.00891 0.0
O119 O 0.77249 0.52288 0.00911 0.0
H120 H 0.80809 0.52988 0.05073 0.0
C121 C 0.77133 0.4426 0.01986 0.0
C122 C 0.77139 0.45528 0.95937 0.0
C123 C 0.77132 0.45658 0.07651 0.0
C124 C 0.77137 0.48375 0.07252 0.0
C125 C 0.77183 0.49671 0.01249 0.0
C126 C 0.77153 0.48251 0.95604 0.0
H127 H 0.0914 0.26234 0.4951 0.0
H128 H 0.01962 0.26524 0.59402 0.0
H129 H 0.01904 0.26601 0.38779 0.0
H130 H 0.98109 0.30207 0.44338 0.0
C131 C 0.9779 0.29142 0.48962 0.0
O132 O 0.99033 0.26776 0.48967 0.0
H133 H 0.98605 0.30335 0.52901 0.0
C134 C 0.07046 0.26381 0.49391 0.0
C135 C 0.05699 0.26445 0.43449 0.0
C136 C 0.05729 0.264 0.55178 0.0
C137 C 0.03015 0.26487 0.54989 0.0
C138 C 0.01643 0.26595 0.49083 0.0
C139 C 0.0298 0.26536 0.4332 0.0
H140 H 0.72984 0.92163 0.50324 0.0
H141 H 0.72829 0.99646 0.58753 0.0
H142 H 0.73903 0.99065 0.38504 0.0
H143 H 0.76748 0.03311 0.43836 0.0
C144 C 0.75634 0.03628 0.48228 0.0
O145 O 0.73349 0.02253 0.47894 0.0
H146 H 0.76844 0.02933 0.52441 0.0
C147 C 0.73082 0.94253 0.49785 0.0
C148 C 0.73522 0.95397 0.4372 0.0
C149 C 0.72868 0.95748 0.55249 0.0
C150 C 0.72981 0.98456 0.54587 0.0
C151 C 0.73292 0.99641 0.48516 0.0
C152 C 0.73571 0.98117 0.43107 0.0
H153 H 0.59229 0.24867 0.00687 0.0
H154 H 0.52162 0.24892 0.11099 0.0
H155 H 0.5195 0.2353 0.90842 0.0
H156 H 0.47868 0.27044 0.95865 0.0
C157 C 0.47556 0.26011 0.0054 0.0
O158 O 0.49167 0.23883 0.01153 0.0
H159 H 0.48019 0.27386 0.04423 0.0
C160 C 0.57144 0.24652 0.00801 0.0
C161 C 0.5576 0.2413 0.95108 0.0
C162 C 0.55875 0.24987 0.06577 0.0
C163 C 0.53182 0.2465 0.06692 0.0
C164 C 0.5177 0.24124 0.01023 0.0
C165 C 0.53054 0.23897 0.95218 0.0
H166 H 0.26425 0.08491 0.52949 0.0
H167 H 0.26222 0.01366 0.42723 0.0
H168 H 0.27593 0.01217 0.63167 0.0
H169 H 0.30873 0.9749 0.56092 0.0
C170 C 0.29526 0.97168 0.51931 0.0
O171 O 0.27205 0.984 0.52868 0.0
H172 H 0.30436 0.97983 0.47539 0.0
C173 C 0.26583 0.06397 0.52919 0.0
C174 C 0.27057 0.05025 0.58729 0.0
C175 C 0.2623 0.0511 0.4712 0.0
C176 C 0.26483 0.02403 0.47137 0.0
C177 C 0.27008 0.01008 0.52905 0.0
C178 C 0.27248 0.02312 0.58714 0.0
H179 H 0.41128 0.75996 0.99337 0.0
H180 H 0.48471 0.76372 0.90214 0.0
H181 H 0.48182 0.76357 0.10794 0.0
H182 H 0.51951 0.7997 0.05591 0.0
C183 C 0.52416 0.78993 0.01079 0.0
O184 O 0.51219 0.76607 0.00946 0.0
H185 H 0.51688 0.80246 0.96975 0.0
C186 C 0.43219 0.7615 0.99697 0.0
C187 C 0.44464 0.76191 0.05768 0.0
C188 C 0.44637 0.76209 0.94069 0.0
C189 C 0.47347 0.76307 0.9452 0.0
C190 C 0.48615 0.76392 0.00551 0.0
C191 C 0.4718 0.76295 0.06164 0.0
H192 H 0.1838 0.27469 0.17658 0.0
H193 H 0.04998 0.23213 0.33327 0.0
H194 H 0.14167 0.20577 0.12511 0.0
H195 H 0.09837 0.29414 0.4014 0.0
H196 H 0.07952 0.22633 0.24469 0.0
H197 H 0.14913 0.28587 0.24781 0.0
C198 C 0.16722 0.26195 0.17994 0.0
C199 C 0.16587 0.23906 0.14529 0.0
C200 C 0.08349 0.24141 0.27861 0.0
C201 C 0.12596 0.25183 0.22691 0.0
C202 C 0.06653 0.24485 0.32877 0.0
C203 C 0.07191 0.26347 0.37491 0.0
C204 C 0.10586 0.25682 0.27456 0.0
C205 C 0.09372 0.27932 0.36723 0.0
C206 C 0.1474 0.26836 0.22068 0.0
C207 C 0.14372 0.22347 0.15133 0.0
N208 N 0.10997 0.27552 0.31841 0.0
N209 N 0.12474 0.23005 0.19164 0.0
H210 H 0.25845 0.63016 0.57879 0.0
H211 H 0.27026 0.59419 0.95177 0.0
H212 H 0.27213 0.68574 0.72673 0.0
H213 H 0.21951 0.55034 0.82774 0.0
H214 H 0.27941 0.62347 0.86198 0.0
H215 H 0.25119 0.59659 0.66297 0.0
C216 C 0.25996 0.63527 0.62877 0.0
C217 C 0.26583 0.66077 0.64587 0.0
C218 C 0.26627 0.60744 0.85431 0.0
C219 C 0.25809 0.62269 0.74132 0.0
C220 C 0.26093 0.59076 0.90559 0.0
C221 C 0.2435 0.5702 0.89771 0.0
C222 C 0.2544 0.60349 0.79412 0.0
C223 C 0.23288 0.56611 0.83598 0.0
C224 C 0.25575 0.61619 0.6765 0.0
C225 C 0.26749 0.66642 0.71123 0.0
N226 N 0.23837 0.58278 0.78633 0.0
N227 N 0.26382 0.64752 0.75641 0.0
H228 H 0.86829 0.77215 0.08314 0.0
H229 H 0.90707 0.79209 0.44981 0.0
H230 H 0.81345 0.78503 0.23108 0.0
H231 H 0.94982 0.73767 0.34069 0.0
H232 H 0.87761 0.79949 0.35785 0.0
H233 H 0.90292 0.76768 0.16697 0.0
C234 C 0.86357 0.77403 0.13305 0.0
C235 C 0.83797 0.77883 0.15032 0.0
C236 C 0.89352 0.78603 0.35388 0.0
C237 C 0.87722 0.77444 0.24512 0.0
C238 C 0.91032 0.78174 0.40632 0.0
C239 C 0.9305 0.76368 0.4035 0.0
C240 C 0.89701 0.77245 0.29759 0.0
C241 C 0.93434 0.75157 0.34501 0.0
C242 C 0.88324 0.77145 0.18056 0.0
C243 C 0.83283 0.7811 0.21556 0.0
N244 N 0.91752 0.756 0.29422 0.0
N245 N 0.85228 0.77911 0.26039 0.0
H246 H 0.76689 0.32052 0.73079 0.0
H247 H 0.74157 0.46328 0.84902 0.0
H248 H 0.72341 0.37729 0.61603 0.0
H249 H 0.79855 0.41124 0.93656 0.0
H250 H 0.73552 0.43324 0.76086 0.0
H251 H 0.77899 0.35412 0.80571 0.0
C252 C 0.75991 0.34008 0.72126 0.0
C253 C 0.74393 0.34602 0.66731 0.0
C254 C 0.74956 0.42857 0.79903 0.0
C255 C 0.75768 0.38471 0.75321 0.0
C256 C 0.75313 0.44579 0.84913 0.0
C257 C 0.7703 0.43957 0.90073 0.0
C258 C 0.76316 0.40497 0.80086 0.0
C259 C 0.78466 0.41654 0.89853 0.0
C260 C 0.76694 0.35932 0.76394 0.0
C261 C 0.73571 0.37181 0.65713 0.0
N262 N 0.78055 0.39998 0.84996 0.0
N263 N 0.74246 0.39016 0.70005 0.0
H264 H 0.63549 0.27013 0.44162 0.0
H265 H 0.59634 0.28664 0.07069 0.0
H266 H 0.68936 0.28747 0.29208 0.0
H267 H 0.55564 0.23207 0.19164 0.0
H268 H 0.62534 0.29624 0.1609 0.0
H269 H 0.60124 0.26396 0.35839 0.0
C270 C 0.64005 0.27271 0.39148 0.0
C271 C 0.66528 0.27917 0.37357 0.0
C272 C 0.61 0.28223 0.16783 0.0
C273 C 0.62645 0.27274 0.27933 0.0
C274 C 0.59349 0.27667 0.11635 0.0
C275 C 0.57399 0.25798 0.12319 0.0
C276 C 0.60695 0.26927 0.22709 0.0
C277 C 0.5706 0.24642 0.18423 0.0
C278 C 0.6206 0.26913 0.3443 0.0
C279 C 0.67026 0.28226 0.30808 0.0
N280 N 0.58714 0.25209 0.234 0.0
N281 N 0.65101 0.27918 0.26349 0.0
H282 H 0.21298 0.13437 0.90007 0.0
H283 H 0.30146 0.09133 0.61566 0.0
H284 H 0.27888 0.17821 0.83545 0.0
H285 H 0.2413 0.04315 0.69355 0.0
H286 H 0.29639 0.12116 0.7033 0.0
H287 H 0.22522 0.09911 0.83153 0.0
C288 C 0.23009 0.13658 0.87168 0.0
C289 C 0.24471 0.15951 0.87298 0.0
C290 C 0.28456 0.10387 0.70204 0.0
C291 C 0.25889 0.11905 0.79432 0.0
C292 C 0.28755 0.0868 0.65218 0.0
C293 C 0.2717 0.06486 0.6474 0.0
C294 C 0.26529 0.09919 0.74702 0.0
C295 C 0.25397 0.05981 0.69579 0.0
C296 C 0.23713 0.11635 0.83271 0.0
C297 C 0.26686 0.16105 0.83564 0.0
N298 N 0.25094 0.07709 0.7431 0.0
N299 N 0.27311 0.14122 0.79745 0.0
H300 H 0.31002 0.75871 0.28594 0.0
H301 H 0.45261 0.73228 0.16833 0.0
H302 H 0.36617 0.71439 0.40057 0.0
H303 H 0.40039 0.78872 0.07923 0.0
H304 H 0.4225 0.72635 0.25638 0.0
H305 H 0.34362 0.77023 0.21088 0.0
C306 C 0.32945 0.7514 0.29537 0.0
C307 C 0.33521 0.73537 0.34934 0.0
C308 C 0.41781 0.74023 0.21787 0.0
C309 C 0.37394 0.7485 0.26327 0.0
C310 C 0.43505 0.74373 0.16785 0.0
C311 C 0.42879 0.76072 0.11592 0.0
C312 C 0.39418 0.75377 0.21561 0.0
C313 C 0.40571 0.77497 0.11757 0.0
C314 C 0.3487 0.7581 0.2526 0.0
C315 C 0.36085 0.72674 0.35943 0.0
N316 N 0.38915 0.77097 0.16612 0.0
N317 N 0.37924 0.73321 0.31642 0.0
H318 H 0.73267 0.82436 0.79678 0.0
H319 H 0.75832 0.9664 0.66072 0.0
H320 H 0.77832 0.87958 0.90263 0.0
H321 H 0.69749 0.91719 0.58793 0.0
H322 H 0.76394 0.93686 0.75433 0.0
H323 H 0.71837 0.85915 0.72244 0.0
C324 C 0.73967 0.84384 0.80442 0.0
C325 C 0.75697 0.849 0.85551 0.0
C326 C 0.74901 0.93281 0.7185 0.0
C327 C 0.74066 0.88904 0.77043 0.0
C328 C 0.74565 0.94979 0.66539 0.0
C329 C 0.72768 0.94398 0.61613 0.0
C330 C 0.73444 0.90985 0.72181 0.0
C331 C 0.7119 0.92209 0.62431 0.0
C332 C 0.73135 0.86376 0.76221 0.0
C333 C 0.76509 0.8747 0.86361 0.0
N334 N 0.71595 0.9056 0.67546 0.0
N335 N 0.75713 0.89373 0.82099 0.0
H336 H 0.81814 0.73476 0.82978 0.0
H337 H 0.95456 0.77617 0.68646 0.0
H338 H 0.86058 0.8028 0.88662 0.0
H339 H 0.90453 0.71795 0.60601 0.0
H340 H 0.92468 0.78053 0.77486 0.0
H341 H 0.85363 0.7233 0.76136 0.0
C342 C 0.83496 0.74726 0.82815 0.0
C343 C 0.83617 0.77001 0.86335 0.0
C344 C 0.92047 0.76651 0.7384 0.0
C345 C 0.877 0.75686 0.78521 0.0
C346 C 0.93763 0.76385 0.68841 0.0
C347 C 0.93183 0.74681 0.63889 0.0
C348 C 0.8975 0.75193 0.73876 0.0
C349 C 0.90952 0.73147 0.64312 0.0
C350 C 0.85524 0.74066 0.78909 0.0
C351 C 0.85863 0.78526 0.85973 0.0
N352 N 0.89305 0.73455 0.69182 0.0
N353 N 0.87808 0.77849 0.82103 0.0
H354 H 0.78254 0.33209 0.35798 0.0
H355 H 0.73829 0.4639 0.17486 0.0
H356 H 0.71222 0.37298 0.3981 0.0
H357 H 0.80185 0.41626 0.11909 0.0
H358 H 0.73273 0.43516 0.26934 0.0
H359 H 0.79387 0.3669 0.28244 0.0
C360 C 0.76953 0.34845 0.35125 0.0
C361 C 0.74618 0.34938 0.38383 0.0
C362 C 0.7481 0.4312 0.23683 0.0
C363 C 0.7591 0.38941 0.29716 0.0
C364 C 0.75139 0.44769 0.18328 0.0
C365 C 0.77037 0.44223 0.13895 0.0
C366 C 0.76402 0.40924 0.24604 0.0
C367 C 0.78674 0.42091 0.15174 0.0
C368 C 0.77603 0.36835 0.30806 0.0
C369 C 0.73028 0.37128 0.37355 0.0
N370 N 0.78306 0.4051 0.20378 0.0
N371 N 0.73692 0.39032 0.33073 0.0
H372 H 0.18925 0.26233 0.80631 0.0
H373 H 0.04883 0.2333 0.65909 0.0
H374 H 0.13455 0.21359 0.90521 0.0
H375 H 0.10023 0.29185 0.58428 0.0
H376 H 0.07804 0.22742 0.75344 0.0
H377 H 0.15551 0.27462 0.7276 0.0
C378 C 0.17007 0.25424 0.81152 0.0
C379 C 0.16479 0.23667 0.86196 0.0
C380 C 0.08272 0.24178 0.71672 0.0
C381 C 0.12588 0.25063 0.7715 0.0
C382 C 0.06601 0.24523 0.6631 0.0
C383 C 0.07237 0.2628 0.61341 0.0
C384 C 0.10589 0.25598 0.72031 0.0
C385 C 0.09489 0.27769 0.62083 0.0
C386 C 0.15073 0.26137 0.76666 0.0
C387 C 0.13946 0.22712 0.86684 0.0
N388 N 0.11093 0.27374 0.67281 0.0
N389 N 0.12097 0.23398 0.82162 0.0
H390 H 0.21891 0.67972 0.32051 0.0
H391 H 0.25737 0.54283 0.17973 0.0
H392 H 0.28563 0.63497 0.38626 0.0
H393 H 0.19759 0.59272 0.09699 0.0
H394 H 0.2624 0.57217 0.26963 0.0
H395 H 0.20591 0.64433 0.25124 0.0
C396 C 0.23076 0.66242 0.32074 0.0
C397 C 0.25364 0.66054 0.35861 0.0
C398 C 0.24787 0.57647 0.23236 0.0
C399 C 0.23877 0.61984 0.27951 0.0
C400 C 0.24482 0.55958 0.18147 0.0
C401 C 0.2272 0.56552 0.13075 0.0
C402 C 0.23316 0.59939 0.23241 0.0
C403 C 0.2116 0.58763 0.13492 0.0
C404 C 0.2233 0.64218 0.28119 0.0
C405 C 0.26804 0.63748 0.35727 0.0
N406 N 0.21514 0.6039 0.18441 0.0
N407 N 0.26048 0.61814 0.31804 0.0
H408 H 0.3239 0.77629 0.65524 0.0
H409 H 0.45354 0.7288 0.84279 0.0
H410 H 0.36157 0.70354 0.62083 0.0
H411 H 0.40681 0.79324 0.89733 0.0
H412 H 0.425 0.72363 0.74762 0.0
H413 H 0.35897 0.7869 0.73057 0.0
C414 C 0.33961 0.76258 0.66318 0.0
C415 C 0.33953 0.73878 0.63234 0.0
C416 C 0.42123 0.73911 0.78 0.0
C417 C 0.37987 0.75089 0.71878 0.0
C418 C 0.43759 0.74216 0.8339 0.0
C419 C 0.43229 0.76131 0.87798 0.0
C420 C 0.39963 0.75546 0.77022 0.0
C421 C 0.41132 0.77805 0.86474 0.0
C422 C 0.35967 0.76867 0.70626 0.0
C423 C 0.36065 0.72198 0.64406 0.0
N424 N 0.39566 0.77462 0.81233 0.0
N425 N 0.37987 0.72826 0.68679 0.0
H426 H 0.77376 0.87817 0.08271 0.0
H427 H 0.76139 0.90775 0.43952 0.0
H428 H 0.7401 0.82104 0.21019 0.0
H429 H 0.72148 0.9616 0.30824 0.0
H430 H 0.76561 0.87785 0.35257 0.0
H431 H 0.76521 0.91168 0.16134 0.0
C432 C 0.76438 0.87278 0.1269 0.0
C433 C 0.75762 0.84688 0.14023 0.0
C434 C 0.75593 0.89625 0.34309 0.0
C435 C 0.74853 0.88462 0.22979 0.0
C436 C 0.75327 0.91332 0.39269 0.0
C437 C 0.74021 0.93704 0.38208 0.0
C438 C 0.74638 0.90315 0.28161 0.0
C439 C 0.73153 0.94354 0.31899 0.0
C440 C 0.75945 0.89184 0.17126 0.0
C441 C 0.74549 0.8408 0.19799 0.0
N442 N 0.73481 0.92664 0.27082 0.0
N443 N 0.7418 0.85947 0.2413 0.0
H444 H 0.64144 0.29951 0.63102 0.0
H445 H 0.59857 0.21034 0.9268 0.0
H446 H 0.68486 0.23273 0.70238 0.0
H447 H 0.55024 0.27063 0.84066 0.0
H448 H 0.62823 0.21542 0.83816 0.0
H449 H 0.60624 0.28716 0.70116 0.0
C450 C 0.64357 0.28218 0.66124 0.0
C451 C 0.66636 0.26734 0.66133 0.0
C452 C 0.61093 0.22726 0.83784 0.0
C453 C 0.62597 0.25305 0.74189 0.0
C454 C 0.59396 0.22426 0.88826 0.0
C455 C 0.57202 0.24014 0.89092 0.0
C456 C 0.60618 0.24659 0.79015 0.0
C457 C 0.56689 0.25793 0.84006 0.0
C458 C 0.62337 0.27508 0.70112 0.0
C459 C 0.66779 0.24491 0.70102 0.0
N460 N 0.58408 0.26097 0.7922 0.0
N461 N 0.64801 0.23861 0.7401 0.0
H462 H 0.23226 0.18528 0.2406 0.0
H463 H 0.28058 0.0461 0.34893 0.0
H464 H 0.24244 0.12836 0.09579 0.0
H465 H 0.22768 0.09075 0.45797 0.0
H466 H 0.27212 0.07579 0.25593 0.0
H467 H 0.23754 0.15143 0.32328 0.0
C468 C 0.23579 0.16564 0.22613 0.0
C469 C 0.23692 0.15962 0.16115 0.0
C470 C 0.26225 0.07877 0.3002 0.0
C471 C 0.24301 0.1207 0.25607 0.0
C472 C 0.26698 0.06188 0.35309 0.0
C473 C 0.25529 0.06635 0.41176 0.0
C474 C 0.24601 0.10027 0.30676 0.0
C475 C 0.2378 0.08705 0.41445 0.0
C476 C 0.23858 0.14629 0.27342 0.0
C477 C 0.24134 0.13374 0.14543 0.0
N478 N 0.23402 0.10342 0.36315 0.0
N479 N 0.24446 0.11512 0.19278 0.0
H480 H 0.23978 0.30886 0.10477 0.0
H481 H 0.24456 0.44303 0.90436 0.0
H482 H 0.22948 0.31356 0.89856 0.0
H483 H 0.24711 0.43667 0.11089 0.0
H484 H 0.23721 0.39607 0.89996 0.0
H485 H 0.2408 0.35587 0.10692 0.0
C486 C 0.2377 0.3198 0.05978 0.0
C487 C 0.23483 0.30719 0.00127 0.0
C488 C 0.23927 0.40495 0.94623 0.0
C489 C 0.23603 0.36138 0.00346 0.0
C490 C 0.24349 0.43166 0.94869 0.0
C491 C 0.24697 0.44348 0.00805 0.0
C492 C 0.23845 0.39006 0.00363 0.0
C493 C 0.24497 0.42815 0.0642 0.0
C494 C 0.2382 0.34673 0.06111 0.0
C495 C 0.23184 0.32247 0.94471 0.0
N496 N 0.24108 0.40221 0.06061 0.0
N497 N 0.23275 0.34881 0.94714 0.0
H498 H 0.18821 0.72133 0.60548 0.0
H499 H 0.05725 0.76894 0.42276 0.0
H500 H 0.18381 0.74696 0.40646 0.0
H501 H 0.06214 0.74818 0.62434 0.0
H502 H 0.10298 0.75744 0.41382 0.0
H503 H 0.14144 0.72741 0.61137 0.0
C504 C 0.17743 0.72807 0.56289 0.0
C505 C 0.19007 0.73386 0.50552 0.0
C506 C 0.09411 0.75538 0.46007 0.0
C507 C 0.13646 0.74091 0.51204 0.0
C508 C 0.06807 0.76197 0.4651 0.0
C509 C 0.05625 0.76003 0.52463 0.0
C510 C 0.10835 0.74657 0.51494 0.0
C511 C 0.07081 0.75037 0.57787 0.0
C512 C 0.1507 0.73158 0.56634 0.0
C513 C 0.17499 0.74244 0.45187 0.0
N514 N 0.09618 0.74417 0.57191 0.0
N515 N 0.14906 0.74581 0.45655 0.0
H516 H 0.75717 0.69653 0.91175 0.0
H517 H 0.80083 0.56819 0.112 0.0
H518 H 0.78603 0.69708 0.10818 0.0
H519 H 0.77801 0.56909 0.91155 0.0
H520 H 0.79334 0.61506 0.11356 0.0
H521 H 0.76266 0.64963 0.91261 0.0
C522 C 0.76459 0.68681 0.95522 0.0
C523 C 0.77111 0.70087 0.01004 0.0
C524 C 0.78997 0.60505 0.06919 0.0
C525 C 0.77749 0.64693 0.01122 0.0
C526 C 0.79424 0.57834 0.06834 0.0
C527 C 0.79037 0.56496 0.01129 0.0
C528 C 0.78156 0.61841 0.01267 0.0
C529 C 0.78147 0.57885 0.95624 0.0
C530 C 0.76775 0.65997 0.9556 0.0
C531 C 0.78073 0.6871 0.0648 0.0
N532 N 0.77746 0.60484 0.9582 0.0
N533 N 0.78362 0.66092 0.06397 0.0
H534 H 0.81971 0.29188 0.62326 0.0
H535 H 0.94245 0.27345 0.40196 0.0
H536 H 0.81543 0.26233 0.43164 0.0
H537 H 0.9488 0.30015 0.5956 0.0
H538 H 0.89569 0.26841 0.41359 0.0
H539 H 0.86693 0.29446 0.61589 0.0
C540 C 0.82865 0.28584 0.57982 0.0
C541 C 0.8135 0.27687 0.52804 0.0
C542 C 0.90725 0.27534 0.45369 0.0
C543 C 0.86747 0.27984 0.51922 0.0
C544 C 0.93389 0.2782 0.44694 0.0
C545 C 0.94931 0.28748 0.49758 0.0
C546 C 0.89592 0.2818 0.51163 0.0
C547 C 0.93745 0.29316 0.55521 0.0
C548 C 0.8556 0.28733 0.57563 0.0
C549 C 0.82621 0.26937 0.47287 0.0
N550 N 0.91142 0.29036 0.5606 0.0
N551 N 0.85235 0.27108 0.46994 0.0
H552 H 0.74655 0.1936 0.61279 0.0
H553 H 0.74117 0.07096 0.38645 0.0
H554 H 0.72403 0.19872 0.41176 0.0
H555 H 0.75787 0.06571 0.59004 0.0
H556 H 0.73332 0.1176 0.39495 0.0
H557 H 0.74929 0.14662 0.60592 0.0
C558 C 0.74207 0.18487 0.5672 0.0
C559 C 0.73524 0.20024 0.51265 0.0
C560 C 0.73865 0.10627 0.43783 0.0
C561 C 0.73845 0.14625 0.50441 0.0
C562 C 0.74315 0.07973 0.43289 0.0
C563 C 0.75062 0.06471 0.48741 0.0
C564 C 0.74157 0.11783 0.49782 0.0
C565 C 0.75253 0.07676 0.54674 0.0
C566 C 0.74362 0.15798 0.56334 0.0
C567 C 0.72947 0.18771 0.45504 0.0
N568 N 0.74824 0.10265 0.5503 0.0
N569 N 0.73138 0.16149 0.45234 0.0
H570 H 0.31474 0.23156 0.91235 0.0
H571 H 0.44696 0.25183 0.11309 0.0
H572 H 0.31906 0.22776 0.11941 0.0
H573 H 0.44151 0.24872 0.90694 0.0
H574 H 0.40084 0.24059 0.11798 0.0
H575 H 0.36161 0.23529 0.91072 0.0
C576 C 0.32559 0.23139 0.95763 0.0
C577 C 0.31289 0.22963 0.01616 0.0
C578 C 0.40974 0.24224 0.0717 0.0
C579 C 0.36688 0.23407 0.01462 0.0
C580 C 0.43598 0.24869 0.06895 0.0
C581 C 0.44775 0.25173 0.00945 0.0
C582 C 0.39528 0.23873 0.01447 0.0
C583 C 0.43297 0.247 0.95364 0.0
C584 C 0.35243 0.23348 0.95663 0.0
C585 C 0.32804 0.22915 0.07321 0.0
N586 N 0.40746 0.24098 0.95748 0.0
N587 N 0.35426 0.23165 0.07104 0.0
H588 H 0.28437 0.81292 0.38968 0.0
H589 H 0.28107 0.93684 0.61269 0.0
H590 H 0.25911 0.81098 0.5853 0.0
H591 H 0.29873 0.94193 0.4121 0.0
H592 H 0.27376 0.89023 0.6033 0.0
H593 H 0.29059 0.85988 0.39625 0.0
C594 C 0.28003 0.82233 0.43384 0.0
C595 C 0.27113 0.80793 0.48692 0.0
C596 C 0.27923 0.90148 0.56122 0.0
C597 C 0.27835 0.86156 0.49489 0.0
C598 C 0.28342 0.92802 0.56671 0.0
C599 C 0.29068 0.94306 0.51329 0.0
C600 C 0.28235 0.88985 0.50176 0.0
C601 C 0.29331 0.93088 0.45453 0.0
C602 C 0.2836 0.84913 0.43758 0.0
C603 C 0.26592 0.82119 0.54301 0.0
N604 N 0.28924 0.90494 0.45034 0.0
N605 N 0.26966 0.84715 0.5455 0.0
H606 H 0.68439 0.79244 0.89675 0.0
H607 H 0.55798 0.77338 0.10673 0.0
H608 H 0.68633 0.76291 0.09274 0.0
H609 H 0.55537 0.79831 0.90766 0.0
H610 H 0.60513 0.76899 0.10223 0.0
H611 H 0.63719 0.79456 0.89941 0.0
C612 C 0.67492 0.78633 0.94029 0.0
C613 C 0.68941 0.77745 0.99459 0.0
C614 C 0.59429 0.77541 0.05947 0.0
C615 C 0.63532 0.77992 0.99798 0.0
C616 C 0.56745 0.77792 0.06214 0.0
C617 C 0.55298 0.78656 0.0078 0.0
C618 C 0.60672 0.78154 0.00191 0.0
C619 C 0.56596 0.79189 0.9508 0.0
C620 C 0.64795 0.78754 0.94176 0.0
C621 C 0.67602 0.76985 0.04968 0.0
N622 N 0.59213 0.78944 0.94941 0.0
N623 N 0.64977 0.77131 0.04997 0.0
loop_
_geom_bond_atom_site_label_1
_geom_bond_atom_site_label_2
_geom_bond_distance
_geom_bond_site_symmetry_2
_ccdc_geom_bond_type
Fe0 O2 1.918 . S
Fe0 O5 1.997 . S
Fe0 O6 2.002 . S
Fe0 O11 1.976 . S
Fe0 O14 1.996 . S
Fe1 O2 1.918 1_556 S
Fe1 O9 1.997 . S
Fe1 O12 1.996 . S
Fe1 O16 1.976 . S
Fe1 O19 2.002 . S
O2 Fe0 1.918 . S
O2 Fe1 1.918 1_554 S
O2 Fe3 1.918 . S
Fe3 O2 1.918 . S
Fe3 O4 2.002 . S
Fe3 O13 1.976 . S
Fe3 O17 1.996 1_554 S
Fe3 O20 1.997 1_554 S
O4 Fe3 2.002 . S
O4 C21 1.295 . S
O5 Fe0 1.997 . S
O5 C21 1.235 . S
O6 Fe0 2.002 . S
O6 C7 1.295 . S
C7 O6 1.295 . S
C7 O9 1.235 1_554 S
C8 O13 1.287 . S
C8 O14 1.255 . S
O9 Fe1 1.997 . S
O9 C7 1.235 1_556 S
C10 O16 1.287 . S
C10 O17 1.255 . S
O11 Fe0 1.976 . S
O11 C18 1.287 . S
O12 Fe1 1.996 . S
O12 C18 1.255 1_556 S
O13 Fe3 1.976 . S
O13 C8 1.287 . S
O14 Fe0 1.996 . S
O14 C8 1.255 . S
C15 O19 1.295 . S
C15 O20 1.235 . S
O16 Fe1 1.976 . S
O16 C10 1.287 . S
O17 Fe3 1.996 1_556 S
O17 C10 1.255 . S
C18 O11 1.287 . S
C18 O12 1.255 1_554 S
O19 Fe1 2.002 . S
O19 C15 1.295 . S
O20 Fe3 1.997 1_556 S
O20 C15 1.235 . S
C21 O4 1.295 . S
C21 O5 1.235 . S
Fe22 O24 1.918 . S
Fe22 O27 1.997 . S
Fe22 O28 2.002 . S
Fe22 O33 1.976 . S
Fe22 O36 1.996 . S
Fe23 O24 1.918 . S
Fe23 O31 1.997 . S
Fe23 O34 1.996 . S
Fe23 O38 1.976 . S
Fe23 O41 2.002 . S
O24 Fe22 1.918 . S
O24 Fe23 1.918 . S
O24 Fe25 1.918 . S
Fe25 O24 1.918 . S
Fe25 O26 2.002 . S
Fe25 O35 1.976 . S
Fe25 O39 1.996 . S
Fe25 O42 1.997 . S
O26 Fe25 2.002 . S
O26 C43 1.295 . S
O27 Fe22 1.997 . S
O27 C43 1.235 . S
O28 Fe22 2.002 . S
O28 C29 1.295 . S
C29 O28 1.295 . S
C29 O31 1.235 . S
C30 O35 1.287 . S
C30 O36 1.255 . S
O31 Fe23 1.997 . S
O31 C29 1.235 . S
C32 O38 1.287 . S
C32 O39 1.255 . S
O33 Fe22 1.976 . S
O33 C40 1.287 . S
O34 Fe23 1.996 . S
O34 C40 1.255 . S
O35 Fe25 1.976 . S
O35 C30 1.287 . S
O36 Fe22 1.996 . S
O36 C30 1.255 . S
C37 O41 1.295 . S
C37 O42 1.235 . S
O38 Fe23 1.976 . S
O38 C32 1.287 . S
O39 Fe25 1.996 . S
O39 C32 1.255 . S
C40 O33 1.287 . S
C40 O34 1.255 . S
O41 Fe23 2.002 . S
O41 C37 1.295 . S
O42 Fe25 1.997 . S
O42 C37 1.235 . S
C43 O26 1.295 . S
C43 O27 1.235 . S
Fe44 O46 1.918 1_556 S
Fe44 O49 1.997 . S
Fe44 O50 2.002 . S
Fe44 O55 1.976 . S
Fe44 O58 1.996 . S
Fe45 O46 1.918 . S
Fe45 O53 1.997 . S
Fe45 O56 1.996 . S
Fe45 O60 1.976 . S
Fe45 O63 2.002 . S
O46 Fe44 1.918 1_554 S
O46 Fe45 1.918 . S
O46 Fe47 1.918 . S
Fe47 O46 1.918 . S
Fe47 O48 2.002 1_554 S
Fe47 O57 1.976 1_554 S
Fe47 O61 1.996 . S
Fe47 O64 1.997 . S
O48 Fe47 2.002 1_556 S
O48 C65 1.295 . S
O49 Fe44 1.997 . S
O49 C65 1.235 . S
O50 Fe44 2.002 . S
O50 C51 1.295 1_556 S
C51 O50 1.295 1_554 S
C51 O53 1.235 . S
C52 O57 1.287 . S
C52 O58 1.255 . S
O53 Fe45 1.997 . S
O53 C51 1.235 . S
C54 O60 1.287 . S
C54 O61 1.255 . S
O55 Fe44 1.976 . S
O55 C62 1.287 1_556 S
O56 Fe45 1.996 . S
O56 C62 1.255 . S
O57 Fe47 1.976 1_556 S
O57 C52 1.287 . S
O58 Fe44 1.996 . S
O58 C52 1.255 . S
C59 O63 1.295 . S
C59 O64 1.235 . S
O60 Fe45 1.976 . S
O60 C54 1.287 . S
O61 Fe47 1.996 . S
O61 C54 1.255 . S
C62 O55 1.287 1_554 S
C62 O56 1.255 . S
O63 Fe45 2.002 . S
O63 C59 1.295 . S
O64 Fe47 1.997 . S
O64 C59 1.235 . S
C65 O48 1.295 . S
C65 O49 1.235 . S
Fe66 O68 1.918 . S
Fe66 O71 1.997 . S
Fe66 O72 2.002 . S
Fe66 O77 1.976 . S
Fe66 O80 1.996 . S
Fe67 O68 1.918 . S
Fe67 O75 1.997 . S
Fe67 O78 1.996 . S
Fe67 O82 1.976 . S
Fe67 O85 2.002 . S
O68 Fe66 1.918 . S
O68 Fe67 1.918 . S
O68 Fe69 1.918 . S
Fe69 O68 1.918 . S
Fe69 O70 2.002 . S
Fe69 O79 1.976 . S
Fe69 O83 1.996 . S
Fe69 O86 1.997 . S
O70 Fe69 2.002 . S
O70 C87 1.295 . S
O71 Fe66 1.997 . S
O71 C87 1.235 . S
O72 Fe66 2.002 . S
O72 C73 1.295 . S
C73 O72 1.295 . S
C73 O75 1.235 . S
C74 O79 1.287 . S
C74 O80 1.255 . S
O75 Fe67 1.997 . S
O75 C73 1.235 . S
C76 O82 1.287 . S
C76 O83 1.255 . S
O77 Fe66 1.976 . S
O77 C84 1.287 . S
O78 Fe67 1.996 . S
O78 C84 1.255 . S
O79 Fe69 1.976 . S
O79 C74 1.287 . S
O80 Fe66 1.996 . S
O80 C74 1.255 . S
C81 O85 1.295 . S
C81 O86 1.235 . S
O82 Fe67 1.976 . S
O82 C76 1.287 . S
O83 Fe69 1.996 . S
O83 C76 1.255 . S
C84 O77 1.287 . S
C84 O78 1.255 . S
O85 Fe67 2.002 . S
O85 C81 1.295 . S
O86 Fe69 1.997 . S
O86 C81 1.235 . S
C87 O70 1.295 . S
C87 O71 1.235 . S
H88 C95 0.929 . S
H89 C98 0.930 . S
H90 C100 0.929 . S
H91 C92 0.969 . S
C92 H91 0.969 . S
C92 O93 1.550 1_556 S
C92 H94 0.973 . S
O93 C92 1.550 1_554 S
O93 C99 1.412 . S
H94 C92 0.973 . S
C95 H88 0.929 . S
C95 C96 1.400 . S
C95 C97 1.364 1_554 S
C96 C95 1.400 . S
C96 C100 1.377 . S
C97 C95 1.364 1_556 S
C97 C98 1.374 . S
C98 H89 0.930 . S
C98 C97 1.374 . S
C98 C99 1.383 1_556 S
C99 O93 1.412 . S
C99 C98 1.383 1_554 S
C99 C100 1.394 . S
C100 H90 0.929 . S
C100 C96 1.377 . S
C100 C99 1.394 . S
H101 C108 0.929 . S
H102 C111 0.944 . S
H103 C113 0.929 . S
H104 C105 0.969 . S
C105 H104 0.969 . S
C105 O106 1.550 . S
C105 H107 0.973 . S
O106 C105 1.550 . S
O106 C112 1.436 . S
H107 C105 0.973 . S
C108 H101 0.929 . S
C108 C109 1.400 . S
C108 C110 1.364 . S
C109 C108 1.400 . S
C109 C113 1.377 . S
C110 C108 1.364 . S
C110 C111 1.374 . S
C111 H102 0.944 . S
C111 C110 1.374 . S
C111 C112 1.373 1_655 S
C112 O106 1.436 . S
C112 C111 1.373 1_455 S
C112 C113 1.378 1_455 S
C113 H103 0.929 . S
C113 C109 1.377 . S
C113 C112 1.378 1_655 S
H114 C121 0.929 . S
H115 C124 0.930 . S
H116 C126 0.929 . S
H117 C118 0.969 . S
C118 H117 0.969 . S
C118 O119 1.550 1_554 S
C118 H120 0.973 . S
O119 C118 1.550 1_556 S
O119 C125 1.412 . S
H120 C118 0.973 . S
C121 H114 0.929 . S
C121 C122 1.400 1_554 S
C121 C123 1.364 . S
C122 C121 1.400 1_556 S
C122 C126 1.377 . S
C123 C121 1.364 . S
C123 C124 1.374 . S
C124 H115 0.930 . S
C124 C123 1.374 . S
C124 C125 1.383 1_554 S
C125 O119 1.412 . S
C125 C124 1.383 1_556 S
C125 C126 1.394 . S
C126 H116 0.929 . S
C126 C122 1.377 . S
C126 C125 1.394 . S
H127 C134 0.929 . S
H128 C137 0.920 1_655 S
H129 C139 0.929 . S
H130 C131 0.969 . S
C131 H130 0.969 . S
C131 O132 1.550 . S
C131 H133 0.973 . S
O132 C131 1.550 . S
O132 C138 1.412 . S
H133 C131 0.973 . S
C134 H127 0.929 . S
C134 C135 1.400 . S
C134 C136 1.364 . S
C135 C134 1.400 . S
C135 C139 1.377 . S
C136 C134 1.364 . S
C136 C137 1.374 . S
C137 H128 0.920 1_455 S
C137 C136 1.374 . S
C137 C138 1.383 1_455 S
C138 O132 1.412 . S
C138 C137 1.383 1_655 S
C138 C139 1.394 1_655 S
C139 H129 0.929 . S
C139 C135 1.377 . S
C139 C138 1.394 1_455 S
H140 C147 0.929 . S
H141 C150 0.930 1_545 S
H142 C152 0.929 . S
H143 C144 0.969 . S
C144 H143 0.969 . S
C144 O145 1.550 . S
C144 H146 0.973 . S
O145 C144 1.550 . S
O145 C151 1.412 . S
H146 C144 0.973 . S
C147 H140 0.929 . S
C147 C148 1.400 . S
C147 C149 1.364 . S
C148 C147 1.400 . S
C148 C152 1.377 . S
C149 C147 1.364 . S
C149 C150 1.374 . S
C150 H141 0.930 1_565 S
C150 C149 1.374 . S
C150 C151 1.383 1_565 S
C151 O145 1.412 . S
C151 C150 1.383 1_545 S
C151 C152 1.394 1_545 S
C152 H142 0.929 . S
C152 C148 1.377 . S
C152 C151 1.394 1_565 S
H153 C160 0.929 1_554 S
H154 C163 0.930 . S
H155 C165 0.929 . S
H156 C157 0.969 . S
C157 H156 0.969 . S
C157 O158 1.550 1_554 S
C157 H159 0.973 . S
O158 C157 1.550 1_556 S
O158 C164 1.412 . S
H159 C157 0.973 . S
C160 H153 0.929 1_556 S
C160 C161 1.400 . S
C160 C162 1.364 1_556 S
C161 C160 1.400 . S
C161 C165 1.377 . S
C162 C160 1.364 1_554 S
C162 C163 1.374 . S
C163 H154 0.930 . S
C163 C162 1.374 . S
C163 C164 1.383 1_554 S
C164 O158 1.412 . S
C164 C163 1.383 1_556 S
C164 C165 1.394 . S
C165 H155 0.929 . S
C165 C161 1.377 . S
C165 C164 1.394 . S
H166 C173 0.929 . S
H167 C176 0.930 1_565 S
H168 C178 0.929 . S
H169 C170 0.969 . S
C170 H169 0.969 . S
C170 O171 1.550 . S
C170 H172 0.973 . S
O171 C170 1.550 . S
O171 C177 1.412 . S
H172 C170 0.973 . S
C173 H166 0.929 . S
C173 C174 1.400 . S
C173 C175 1.364 . S
C174 C173 1.400 . S
C174 C178 1.377 . S
C175 C173 1.364 . S
C175 C176 1.374 . S
C176 H167 0.930 1_545 S
C176 C175 1.374 . S
C176 C177 1.383 1_545 S
C177 O171 1.412 . S
C177 C176 1.383 1_565 S
C177 C178 1.394 1_565 S
C178 H168 0.929 . S
C178 C174 1.377 . S
C178 C177 1.394 1_545 S
H179 C186 0.929 . S
H180 C189 0.930 . S
H181 C191 0.929 . S
H182 C183 0.969 . S
C183 H182 0.969 . S
C183 O184 1.550 1_556 S
C183 H185 0.973 . S
O184 C183 1.550 1_554 S
O184 C190 1.412 . S
H185 C183 0.973 . S
C186 H179 0.929 . S
C186 C187 1.400 . S
C186 C188 1.364 1_554 S
C187 C186 1.400 . S
C187 C191 1.377 . S
C188 C186 1.364 1_556 S
C188 C189 1.374 . S
C189 H180 0.930 . S
C189 C188 1.374 . S
C189 C190 1.383 1_556 S
C190 O184 1.412 . S
C190 C189 1.383 1_554 S
C190 C191 1.394 . S
C191 H181 0.929 . S
C191 C187 1.377 . S
C191 C190 1.394 . S
H192 C198 0.930 . S
H193 C202 0.930 . S
H194 C207 0.929 . S
H195 C205 0.929 . S
H196 C200 0.929 . S
H197 C206 0.929 . S
C198 H192 0.930 . S
C198 C199 1.367 . S
C198 C206 1.378 . S
C199 C198 1.367 . S
C199 C207 1.433 . S
C200 H196 0.929 . S
C200 C202 1.378 . S
C200 C204 1.350 . S
C201 C204 1.463 . S
C201 C206 1.350 . S
C201 N209 1.427 . S
C202 H193 0.930 . S
C202 C200 1.378 . S
C202 C203 1.367 . S
C203 C202 1.367 . S
C203 C205 1.433 . S
C204 C200 1.350 . S
C204 C201 1.463 . S
C204 N208 1.427 . S
C205 H195 0.929 . S
C205 C203 1.433 . S
C205 N208 1.384 . S
C206 H197 0.929 . S
C206 C198 1.378 . S
C206 C201 1.350 . S
C207 H194 0.929 . S
C207 C199 1.433 . S
C207 N209 1.384 . S
N208 C204 1.427 . S
N208 C205 1.384 . S
N209 C201 1.427 . S
N209 C207 1.384 . S
H210 C216 0.930 . S
H211 C220 0.930 . S
H212 C225 0.929 . S
H213 C223 0.929 . S
H214 C218 0.929 . S
H215 C224 0.929 . S
C216 H210 0.930 . S
C216 C217 1.367 . S
C216 C224 1.378 . S
C217 C216 1.367 . S
C217 C225 1.433 . S
C218 H214 0.929 . S
C218 C220 1.378 . S
C218 C222 1.350 . S
C219 C222 1.463 . S
C219 C224 1.350 . S
C219 N227 1.427 . S
C220 H211 0.930 . S
C220 C218 1.378 . S
C220 C221 1.367 . S
C221 C220 1.367 . S
C221 C223 1.433 . S
C222 C218 1.350 . S
C222 C219 1.463 . S
C222 N226 1.427 . S
C223 H213 0.929 . S
C223 C221 1.433 . S
C223 N226 1.384 . S
C224 H215 0.929 . S
C224 C216 1.378 . S
C224 C219 1.350 . S
C225 H212 0.929 . S
C225 C217 1.433 . S
C225 N227 1.384 . S
N226 C222 1.427 . S
N226 C223 1.384 . S
N227 C219 1.427 . S
N227 C225 1.384 . S
H228 C234 0.930 . S
H229 C238 0.930 . S
H230 C243 0.929 . S
H231 C241 0.929 . S
H232 C236 0.929 . S
H233 C242 0.929 . S
C234 H228 0.930 . S
C234 C235 1.367 . S
C234 C242 1.378 . S
C235 C234 1.367 . S
C235 C243 1.433 . S
C236 H232 0.929 . S
C236 C238 1.378 . S
C236 C240 1.350 . S
C237 C240 1.463 . S
C237 C242 1.350 . S
C237 N245 1.427 . S
C238 H229 0.930 . S
C238 C236 1.378 . S
C238 C239 1.367 . S
C239 C238 1.367 . S
C239 C241 1.433 . S
C240 C236 1.350 . S
C240 C237 1.463 . S
C240 N244 1.427 . S
C241 H231 0.929 . S
C241 C239 1.433 . S
C241 N244 1.384 . S
C242 H233 0.929 . S
C242 C234 1.378 . S
C242 C237 1.350 . S
C243 H230 0.929 . S
C243 C235 1.433 . S
C243 N245 1.384 . S
N244 C240 1.427 . S
N244 C241 1.384 . S
N245 C237 1.427 . S
N245 C243 1.384 . S
H246 C252 0.930 . S
H247 C256 0.930 . S
H248 C261 0.929 . S
H249 C259 0.929 . S
H250 C254 0.929 . S
H251 C260 0.929 . S
C252 H246 0.930 . S
C252 C253 1.367 . S
C252 C260 1.378 . S
C253 C252 1.367 . S
C253 C261 1.433 . S
C254 H250 0.929 . S
C254 C256 1.378 . S
C254 C258 1.350 . S
C255 C258 1.463 . S
C255 C260 1.350 . S
C255 N263 1.427 . S
C256 H247 0.930 . S
C256 C254 1.378 . S
C256 C257 1.367 . S
C257 C256 1.367 . S
C257 C259 1.433 . S
C258 C254 1.350 . S
C258 C255 1.463 . S
C258 N262 1.427 . S
C259 H249 0.929 . S
C259 C257 1.433 . S
C259 N262 1.384 . S
C260 H251 0.929 . S
C260 C252 1.378 . S
C260 C255 1.350 . S
C261 H248 0.929 . S
C261 C253 1.433 . S
C261 N263 1.384 . S
N262 C258 1.427 . S
N262 C259 1.384 . S
N263 C255 1.427 . S
N263 C261 1.384 . S
H264 C270 0.930 . S
H265 C274 0.930 . S
H266 C279 0.929 . S
H267 C277 0.929 . S
H268 C272 0.929 . S
H269 C278 0.929 . S
C270 H264 0.930 . S
C270 C271 1.367 . S
C270 C278 1.378 . S
C271 C270 1.367 . S
C271 C279 1.433 . S
C272 H268 0.929 . S
C272 C274 1.378 . S
C272 C276 1.350 . S
C273 C276 1.463 . S
C273 C278 1.350 . S
C273 N281 1.427 . S
C274 H265 0.930 . S
C274 C272 1.378 . S
C274 C275 1.367 . S
C275 C274 1.367 . S
C275 C277 1.433 . S
C276 C272 1.350 . S
C276 C273 1.463 . S
C276 N280 1.427 . S
C277 H267 0.929 . S
C277 C275 1.433 . S
C277 N280 1.384 . S
C278 H269 0.929 . S
C278 C270 1.378 . S
C278 C273 1.350 . S
C279 H266 0.929 . S
C279 C271 1.433 . S
C279 N281 1.384 . S
N280 C276 1.427 . S
N280 C277 1.384 . S
N281 C273 1.427 . S
N281 C279 1.384 . S
H282 C288 0.930 . S
H283 C292 0.930 . S
H284 C297 0.929 . S
H285 C295 0.929 . S
H286 C290 0.929 . S
H287 C296 0.929 . S
C288 H282 0.930 . S
C288 C289 1.367 . S
C288 C296 1.378 . S
C289 C288 1.367 . S
C289 C297 1.433 . S
C290 H286 0.929 . S
C290 C292 1.378 . S
C290 C294 1.350 . S
C291 C294 1.463 . S
C291 C296 1.350 . S
C291 N299 1.427 . S
C292 H283 0.930 . S
C292 C290 1.378 . S
C292 C293 1.367 . S
C293 C292 1.367 . S
C293 C295 1.433 . S
C294 C290 1.350 . S
C294 C291 1.463 . S
C294 N298 1.427 . S
C295 H285 0.929 . S
C295 C293 1.433 . S
C295 N298 1.384 . S
C296 H287 0.929 . S
C296 C288 1.378 . S
C296 C291 1.350 . S
C297 H284 0.929 . S
C297 C289 1.433 . S
C297 N299 1.384 . S
N298 C294 1.427 . S
N298 C295 1.384 . S
N299 C291 1.427 . S
N299 C297 1.384 . S
H300 C306 0.930 . S
H301 C310 0.930 . S
H302 C315 0.929 . S
H303 C313 0.929 . S
H304 C308 0.929 . S
H305 C314 0.929 . S
C306 H300 0.930 . S
C306 C307 1.367 . S
C306 C314 1.378 . S
C307 C306 1.367 . S
C307 C315 1.433 . S
C308 H304 0.929 . S
C308 C310 1.378 . S
C308 C312 1.350 . S
C309 C312 1.463 . S
C309 C314 1.350 . S
C309 N317 1.427 . S
C310 H301 0.930 . S
C310 C308 1.378 . S
C310 C311 1.367 . S
C311 C310 1.367 . S
C311 C313 1.433 . S
C312 C308 1.350 . S
C312 C309 1.463 . S
C312 N316 1.427 . S
C313 H303 0.929 . S
C313 C311 1.433 . S
C313 N316 1.384 . S
C314 H305 0.929 . S
C314 C306 1.378 . S
C314 C309 1.350 . S
C315 H302 0.929 . S
C315 C307 1.433 . S
C315 N317 1.384 . S
N316 C312 1.427 . S
N316 C313 1.384 . S
N317 C309 1.427 . S
N317 C315 1.384 . S
H318 C324 0.930 . S
H319 C328 0.930 . S
H320 C333 0.929 . S
H321 C331 0.929 . S
H322 C326 0.929 . S
H323 C332 0.929 . S
C324 H318 0.930 . S
C324 C325 1.367 . S
C324 C332 1.378 . S
C325 C324 1.367 . S
C325 C333 1.433 . S
C326 H322 0.929 . S
C326 C328 1.378 . S
C326 C330 1.350 . S
C327 C330 1.463 . S
C327 C332 1.350 . S
C327 N335 1.427 . S
C328 H319 0.930 . S
C328 C326 1.378 . S
C328 C329 1.367 . S
C329 C328 1.367 . S
C329 C331 1.433 . S
C330 C326 1.350 . S
C330 C327 1.463 . S
C330 N334 1.427 . S
C331 H321 0.929 . S
C331 C329 1.433 . S
C331 N334 1.384 . S
C332 H323 0.929 . S
C332 C324 1.378 . S
C332 C327 1.350 . S
C333 H320 0.929 . S
C333 C325 1.433 . S
C333 N335 1.384 . S
N334 C330 1.427 . S
N334 C331 1.384 . S
N335 C327 1.427 . S
N335 C333 1.384 . S
H336 C342 0.930 . S
H337 C346 0.930 . S
H338 C351 0.929 . S
H339 C349 0.929 . S
H340 C344 0.929 . S
H341 C350 0.929 . S
C342 H336 0.930 . S
C342 C343 1.367 . S
C342 C350 1.378 . S
C343 C342 1.367 . S
C343 C351 1.433 . S
C344 H340 0.929 . S
C344 C346 1.378 . S
C344 C348 1.350 . S
C345 C348 1.463 . S
C345 C350 1.350 . S
C345 N353 1.427 . S
C346 H337 0.930 . S
C346 C344 1.378 . S
C346 C347 1.367 . S
C347 C346 1.367 . S
C347 C349 1.433 . S
C348 C344 1.350 . S
C348 C345 1.463 . S
C348 N352 1.427 . S
C349 H339 0.929 . S
C349 C347 1.433 . S
C349 N352 1.384 . S
C350 H341 0.929 . S
C350 C342 1.378 . S
C350 C345 1.350 . S
C351 H338 0.929 . S
C351 C343 1.433 . S
C351 N353 1.384 . S
N352 C348 1.427 . S
N352 C349 1.384 . S
N353 C345 1.427 . S
N353 C351 1.384 . S
H354 C360 0.930 . S
H355 C364 0.930 . S
H356 C369 0.929 . S
H357 C367 0.929 . S
H358 C362 0.929 . S
H359 C368 0.929 . S
C360 H354 0.930 . S
C360 C361 1.367 . S
C360 C368 1.378 . S
C361 C360 1.367 . S
C361 C369 1.433 . S
C362 H358 0.929 . S
C362 C364 1.378 . S
C362 C366 1.350 . S
C363 C366 1.463 . S
C363 C368 1.350 . S
C363 N371 1.427 . S
C364 H355 0.930 . S
C364 C362 1.378 . S
C364 C365 1.367 . S
C365 C364 1.367 . S
C365 C367 1.433 . S
C366 C362 1.350 . S
C366 C363 1.463 . S
C366 N370 1.427 . S
C367 H357 0.929 . S
C367 C365 1.433 . S
C367 N370 1.384 . S
C368 H359 0.929 . S
C368 C360 1.378 . S
C368 C363 1.350 . S
C369 H356 0.929 . S
C369 C361 1.433 . S
C369 N371 1.384 . S
N370 C366 1.427 . S
N370 C367 1.384 . S
N371 C363 1.427 . S
N371 C369 1.384 . S
H372 C378 0.930 . S
H373 C382 0.930 . S
H374 C387 0.929 . S
H375 C385 0.929 . S
H376 C380 0.929 . S
H377 C386 0.929 . S
C378 H372 0.930 . S
C378 C379 1.367 . S
C378 C386 1.378 . S
C379 C378 1.367 . S
C379 C387 1.433 . S
C380 H376 0.929 . S
C380 C382 1.378 . S
C380 C384 1.350 . S
C381 C384 1.463 . S
C381 C386 1.350 . S
C381 N389 1.427 . S
C382 H373 0.930 . S
C382 C380 1.378 . S
C382 C383 1.367 . S
C383 C382 1.367 . S
C383 C385 1.433 . S
C384 C380 1.350 . S
C384 C381 1.463 . S
C384 N388 1.427 . S
C385 H375 0.929 . S
C385 C383 1.433 . S
C385 N388 1.384 . S
C386 H377 0.929 . S
C386 C378 1.378 . S
C386 C381 1.350 . S
C387 H374 0.929 . S
C387 C379 1.433 . S
C387 N389 1.384 . S
N388 C384 1.427 . S
N388 C385 1.384 . S
N389 C381 1.427 . S
N389 C387 1.384 . S
H390 C396 0.930 . S
H391 C400 0.930 . S
H392 C405 0.929 . S
H393 C403 0.929 . S
H394 C398 0.929 . S
H395 C404 0.929 . S
C396 H390 0.930 . S
C396 C397 1.367 . S
C396 C404 1.378 . S
C397 C396 1.367 . S
C397 C405 1.433 . S
C398 H394 0.929 . S
C398 C400 1.378 . S
C398 C402 1.350 . S
C399 C402 1.463 . S
C399 C404 1.350 . S
C399 N407 1.427 . S
C400 H391 0.930 . S
C400 C398 1.378 . S
C400 C401 1.367 . S
C401 C400 1.367 . S
C401 C403 1.433 . S
C402 C398 1.350 . S
C402 C399 1.463 . S
C402 N406 1.427 . S
C403 H393 0.929 . S
C403 C401 1.433 . S
C403 N406 1.384 . S
C404 H395 0.929 . S
C404 C396 1.378 . S
C404 C399 1.350 . S
C405 H392 0.929 . S
C405 C397 1.433 . S
C405 N407 1.384 . S
N406 C402 1.427 . S
N406 C403 1.384 . S
N407 C399 1.427 . S
N407 C405 1.384 . S
H408 C414 0.930 . S
H409 C418 0.930 . S
H410 C423 0.929 . S
H411 C421 0.929 . S
H412 C416 0.929 . S
H413 C422 0.929 . S
C414 H408 0.930 . S
C414 C415 1.367 . S
C414 C422 1.378 . S
C415 C414 1.367 . S
C415 C423 1.433 . S
C416 H412 0.929 . S
C416 C418 1.378 . S
C416 C420 1.350 . S
C417 C420 1.463 . S
C417 C422 1.350 . S
C417 N425 1.427 . S
C418 H409 0.930 . S
C418 C416 1.378 . S
C418 C419 1.367 . S
C419 C418 1.367 . S
C419 C421 1.433 . S
C420 C416 1.350 . S
C420 C417 1.463 . S
C420 N424 1.427 . S
C421 H411 0.929 . S
C421 C419 1.433 . S
C421 N424 1.384 . S
C422 H413 0.929 . S
C422 C414 1.378 . S
C422 C417 1.350 . S
C423 H410 0.929 . S
C423 C415 1.433 . S
C423 N425 1.384 . S
N424 C420 1.427 . S
N424 C421 1.384 . S
N425 C417 1.427 . S
N425 C423 1.384 . S
H426 C432 0.930 . S
H427 C436 0.930 . S
H428 C441 0.929 . S
H429 C439 0.929 . S
H430 C434 0.929 . S
H431 C440 0.929 . S
C432 H426 0.930 . S
C432 C433 1.367 . S
C432 C440 1.378 . S
C433 C432 1.367 . S
C433 C441 1.433 . S
C434 H430 0.929 . S
C434 C436 1.378 . S
C434 C438 1.350 . S
C435 C438 1.463 . S
C435 C440 1.350 . S
C435 N443 1.427 . S
C436 H427 0.930 . S
C436 C434 1.378 . S
C436 C437 1.367 . S
C437 C436 1.367 . S
C437 C439 1.433 . S
C438 C434 1.350 . S
C438 C435 1.463 . S
C438 N442 1.427 . S
C439 H429 0.929 . S
C439 C437 1.433 . S
C439 N442 1.384 . S
C440 H431 0.929 . S
C440 C432 1.378 . S
C440 C435 1.350 . S
C441 H428 0.929 . S
C441 C433 1.433 . S
C441 N443 1.384 . S
N442 C438 1.427 . S
N442 C439 1.384 . S
N443 C435 1.427 . S
N443 C441 1.384 . S
H444 C450 0.930 . S
H445 C454 0.930 . S
H446 C459 0.929 . S
H447 C457 0.929 . S
H448 C452 0.929 . S
H449 C458 0.929 . S
C450 H444 0.930 . S
C450 C451 1.367 . S
C450 C458 1.378 . S
C451 C450 1.367 . S
C451 C459 1.433 . S
C452 H448 0.929 . S
C452 C454 1.378 . S
C452 C456 1.350 . S
C453 C456 1.463 . S
C453 C458 1.350 . S
C453 N461 1.427 . S
C454 H445 0.930 . S
C454 C452 1.378 . S
C454 C455 1.367 . S
C455 C454 1.367 . S
C455 C457 1.433 . S
C456 C452 1.350 . S
C456 C453 1.463 . S
C456 N460 1.427 . S
C457 H447 0.929 . S
C457 C455 1.433 . S
C457 N460 1.384 . S
C458 H449 0.929 . S
C458 C450 1.378 . S
C458 C453 1.350 . S
C459 H446 0.929 . S
C459 C451 1.433 . S
C459 N461 1.384 . S
N460 C456 1.427 . S
N460 C457 1.384 . S
N461 C453 1.427 . S
N461 C459 1.384 . S
H462 C468 0.930 . S
H463 C472 0.930 . S
H464 C477 0.929 . S
H465 C475 0.929 . S
H466 C470 0.929 . S
H467 C476 0.929 . S
C468 H462 0.930 . S
C468 C469 1.367 . S
C468 C476 1.378 . S
C469 C468 1.367 . S
C469 C477 1.433 . S
C470 H466 0.929 . S
C470 C472 1.378 . S
C470 C474 1.350 . S
C471 C474 1.463 . S
C471 C476 1.350 . S
C471 N479 1.427 . S
C472 H463 0.930 . S
C472 C470 1.378 . S
C472 C473 1.367 . S
C473 C472 1.367 . S
C473 C475 1.433 . S
C474 C470 1.350 . S
C474 C471 1.463 . S
C474 N478 1.427 . S
C475 H465 0.929 . S
C475 C473 1.433 . S
C475 N478 1.384 . S
C476 H467 0.929 . S
C476 C468 1.378 . S
C476 C471 1.350 . S
C477 H464 0.929 . S
C477 C469 1.433 . S
C477 N479 1.384 . S
N478 C474 1.427 . S
N478 C475 1.384 . S
N479 C471 1.427 . S
N479 C477 1.384 . S
H480 C486 0.930 . S
H481 C490 0.930 . S
H482 C495 0.929 . S
H483 C493 0.929 . S
H484 C488 0.929 . S
H485 C494 0.929 . S
C486 H480 0.930 . S
C486 C487 1.367 . S
C486 C494 1.378 . S
C487 C486 1.367 . S
C487 C495 1.433 1_554 S
C488 H484 0.929 . S
C488 C490 1.378 . S
C488 C492 1.350 1_556 S
C489 C492 1.463 . S
C489 C494 1.350 . S
C489 N497 1.427 1_554 S
C490 H481 0.930 . S
C490 C488 1.378 . S
C490 C491 1.367 1_556 S
C491 C490 1.367 1_554 S
C491 C493 1.433 . S
C492 C488 1.350 1_554 S
C492 C489 1.463 . S
C492 N496 1.427 . S
C493 H483 0.929 . S
C493 C491 1.433 . S
C493 N496 1.384 . S
C494 H485 0.929 . S
C494 C486 1.378 . S
C494 C489 1.350 . S
C495 H482 0.929 . S
C495 C487 1.433 1_556 S
C495 N497 1.384 . S
N496 C492 1.427 . S
N496 C493 1.384 . S
N497 C489 1.427 1_556 S
N497 C495 1.384 . S
H498 C504 0.930 . S
H499 C508 0.930 . S
H500 C513 0.929 . S
H501 C511 0.929 . S
H502 C506 0.929 . S
H503 C512 0.929 . S
C504 H498 0.930 . S
C504 C505 1.367 . S
C504 C512 1.378 . S
C505 C504 1.367 . S
C505 C513 1.433 . S
C506 H502 0.929 . S
C506 C508 1.378 . S
C506 C510 1.350 . S
C507 C510 1.463 . S
C507 C512 1.350 . S
C507 N515 1.427 . S
C508 H499 0.930 . S
C508 C506 1.378 . S
C508 C509 1.367 . S
C509 C508 1.367 . S
C509 C511 1.433 . S
C510 C506 1.350 . S
C510 C507 1.463 . S
C510 N514 1.427 . S
C511 H501 0.929 . S
C511 C509 1.433 . S
C511 N514 1.384 . S
C512 H503 0.929 . S
C512 C504 1.378 . S
C512 C507 1.350 . S
C513 H500 0.929 . S
C513 C505 1.433 . S
C513 N515 1.384 . S
N514 C510 1.427 . S
N514 C511 1.384 . S
N515 C507 1.427 . S
N515 C513 1.384 . S
H516 C522 0.930 . S
H517 C526 0.930 1_556 S
H518 C531 0.929 1_556 S
H519 C529 0.929 . S
H520 C524 0.929 1_556 S
H521 C530 0.929 . S
C522 H516 0.930 . S
C522 C523 1.367 . S
C522 C530 1.378 . S
C523 C522 1.367 . S
C523 C531 1.433 . S
C524 H520 0.929 1_554 S
C524 C526 1.378 . S
C524 C528 1.350 . S
C525 C528 1.463 . S
C525 C530 1.350 . S
C525 N533 1.427 . S
C526 H517 0.930 1_554 S
C526 C524 1.378 . S
C526 C527 1.367 . S
C527 C526 1.367 . S
C527 C529 1.433 . S
C528 C524 1.350 . S
C528 C525 1.463 . S
C528 N532 1.427 . S
C529 H519 0.929 . S
C529 C527 1.433 . S
C529 N532 1.384 . S
C530 H521 0.929 . S
C530 C522 1.378 . S
C530 C525 1.350 . S
C531 H518 0.929 1_554 S
C531 C523 1.433 . S
C531 N533 1.384 . S
N532 C528 1.427 . S
N532 C529 1.384 . S
N533 C525 1.427 . S
N533 C531 1.384 . S
H534 C540 0.930 . S
H535 C544 0.930 . S
H536 C549 0.929 . S
H537 C547 0.929 . S
H538 C542 0.929 . S
H539 C548 0.929 . S
C540 H534 0.930 . S
C540 C541 1.367 . S
C540 C548 1.378 . S
C541 C540 1.367 . S
C541 C549 1.433 . S
C542 H538 0.929 . S
C542 C544 1.378 . S
C542 C546 1.350 . S
C543 C546 1.463 . S
C543 C548 1.350 . S
C543 N551 1.427 . S
C544 H535 0.930 . S
C544 C542 1.378 . S
C544 C545 1.367 . S
C545 C544 1.367 . S
C545 C547 1.433 . S
C546 C542 1.350 . S
C546 C543 1.463 . S
C546 N550 1.427 . S
C547 H537 0.929 . S
C547 C545 1.433 . S
C547 N550 1.384 . S
C548 H539 0.929 . S
C548 C540 1.378 . S
C548 C543 1.350 . S
C549 H536 0.929 . S
C549 C541 1.433 . S
C549 N551 1.384 . S
N550 C546 1.427 . S
N550 C547 1.384 . S
N551 C543 1.427 . S
N551 C549 1.384 . S
H552 C558 0.930 . S
H553 C562 0.930 . S
H554 C567 0.929 . S
H555 C565 0.929 . S
H556 C560 0.929 . S
H557 C566 0.929 . S
C558 H552 0.930 . S
C558 C559 1.367 . S
C558 C566 1.378 . S
C559 C558 1.367 . S
C559 C567 1.433 . S
C560 H556 0.929 . S
C560 C562 1.378 . S
C560 C564 1.350 . S
C561 C564 1.463 . S
C561 C566 1.350 . S
C561 N569 1.427 . S
C562 H553 0.930 . S
C562 C560 1.378 . S
C562 C563 1.367 . S
C563 C562 1.367 . S
C563 C565 1.433 . S
C564 C560 1.350 . S
C564 C561 1.463 . S
C564 N568 1.427 . S
C565 H555 0.929 . S
C565 C563 1.433 . S
C565 N568 1.384 . S
C566 H557 0.929 . S
C566 C558 1.378 . S
C566 C561 1.350 . S
C567 H554 0.929 . S
C567 C559 1.433 . S
C567 N569 1.384 . S
N568 C564 1.427 . S
N568 C565 1.384 . S
N569 C561 1.427 . S
N569 C567 1.384 . S
H570 C576 0.930 1_556 S
H571 C580 0.930 . S
H572 C585 0.929 . S
H573 C583 0.929 1_556 S
H574 C578 0.929 . S
H575 C584 0.929 1_556 S
C576 H570 0.930 1_554 S
C576 C577 1.367 . S
C576 C584 1.378 . S
C577 C576 1.367 . S
C577 C585 1.433 . S
C578 H574 0.929 . S
C578 C580 1.378 . S
C578 C582 1.350 . S
C579 C582 1.463 . S
C579 C584 1.350 . S
C579 N587 1.427 . S
C580 H571 0.930 . S
C580 C578 1.378 . S
C580 C581 1.367 . S
C581 C580 1.367 . S
C581 C583 1.433 . S
C582 C578 1.350 . S
C582 C579 1.463 . S
C582 N586 1.427 . S
C583 H573 0.929 1_554 S
C583 C581 1.433 . S
C583 N586 1.384 . S
C584 H575 0.929 1_554 S
C584 C576 1.378 . S
C584 C579 1.350 . S
C585 H572 0.929 . S
C585 C577 1.433 . S
C585 N587 1.384 . S
N586 C582 1.427 . S
N586 C583 1.384 . S
N587 C579 1.427 . S
N587 C585 1.384 . S
H588 C594 0.930 . S
H589 C598 0.930 . S
H590 C603 0.929 . S
H591 C601 0.929 . S
H592 C596 0.929 . S
H593 C602 0.929 . S
C594 H588 0.930 . S
C594 C595 1.367 . S
C594 C602 1.378 . S
C595 C594 1.367 . S
C595 C603 1.433 . S
C596 H592 0.929 . S
C596 C598 1.378 . S
C596 C600 1.350 . S
C597 C600 1.463 . S
C597 C602 1.350 . S
C597 N605 1.427 . S
C598 H589 0.930 . S
C598 C596 1.378 . S
C598 C599 1.367 . S
C599 C598 1.367 . S
C599 C601 1.433 . S
C600 C596 1.350 . S
C600 C597 1.463 . S
C600 N604 1.427 . S
C601 H591 0.929 . S
C601 C599 1.433 . S
C601 N604 1.384 . S
C602 H593 0.929 . S
C602 C594 1.378 . S
C602 C597 1.350 . S
C603 H590 0.929 . S
C603 C595 1.433 . S
C603 N605 1.384 . S
N604 C600 1.427 . S
N604 C601 1.384 . S
N605 C597 1.427 . S
N605 C603 1.384 . S
H606 C612 0.930 . S
H607 C616 0.930 . S
H608 C621 0.929 . S
H609 C619 0.929 . S
H610 C614 0.929 . S
H611 C620 0.929 . S
C612 H606 0.930 . S
C612 C613 1.367 1_556 S
C612 C620 1.378 . S
C613 C612 1.367 1_554 S
C613 C621 1.433 . S
C614 H610 0.929 . S
C614 C616 1.378 . S
C614 C618 1.350 . S
C615 C618 1.463 . S
C615 C620 1.350 1_554 S
C615 N623 1.427 . S
C616 H607 0.930 . S
C616 C614 1.378 . S
C616 C617 1.367 . S
C617 C616 1.367 . S
C617 C619 1.433 1_554 S
C618 C614 1.350 . S
C618 C615 1.463 . S
C618 N622 1.427 1_554 S
C619 H609 0.929 . S
C619 C617 1.433 1_556 S
C619 N622 1.384 . S
C620 H611 0.929 . S
C620 C612 1.378 . S
C620 C615 1.350 1_556 S
C621 H608 0.929 . S
C621 C613 1.433 . S
C621 N623 1.384 . S
N622 C618 1.427 1_556 S
N622 C619 1.384 . S
N623 C615 1.427 . S
N623 C621 1.384 . S
C199 C21 1.499 . S
C203 C135 1.500 . S
C217 C40 1.515 . S
C221 C97 1.478 . S
C239 C110 1.439 . S
C235 C54 1.465 . S
C253 C73 1.506 . S
C257 C122 1.507 . S
C275 C162 1.446 . S
C271 C74 1.473 . S
C293 C174 1.483 . S
C289 C10 1.494 . S
C311 C187 1.494 . S
C307 C37 1.486 . S
C329 C149 1.513 . S
C325 C65 1.524 . S
C343 C52 1.450 . S
C347 C109 1.447 . S
C361 C87 1.536 . S
C365 C123 1.518 . S
C379 C15 1.506 . S
C383 C136 1.500 . S
C401 C96 1.466 . S
C397 C32 1.479 . S
C415 C29 1.518 . S
C419 C188 1.508 . S
C437 C148 1.510 . S
C433 C59 1.518 . S
C455 C161 1.439 . S
C451 C84 1.441 . S
C469 C8 1.499 . S
C473 C175 1.479 . S
C491 C92 1.466 1_554 S
C487 C7 1.531 . S
C509 C105 1.448 . S
C505 C30 1.489 . S
C523 C62 1.537 . S
C527 C118 1.500 . S
C541 C81 1.506 . S
C545 C131 1.466 . S
C563 C144 1.461 . S
C559 C76 1.538 . S
C577 C18 1.486 . S
C581 C157 1.452 . S
C595 C43 1.533 . S
C599 C170 1.509 . S
C613 C51 1.505 . S
C617 C183 1.465 1_554 S
