# Generated by pormake.
# Topology anh, (6,3)-cn, num edge types: 1
# Building blocks:
#     Node 0, Type 0, BuildingBlock: INOVEN_clean_sbu_0, # of connection points: 6
#     Node 1, Type 0, BuildingBlock: INOVEN_clean_sbu_0, # of connection points: 6
#     Node 2, Type 0, BuildingBlock: INOVEN_clean_sbu_0, # of connection points: 6
#     Node 3, Type 1, BuildingBlock: KAKCAD_clean_linker_0, # of connection points: 3
#     Node 4, Type 1, BuildingBlock: KAKCAD_clean_linker_0, # of connection points: 3
#     Node 5, Type 1, BuildingBlock: KAKCAD_clean_linker_0, # of connection points: 3
#     Node 6, Type 1, BuildingBlock: KAKCAD_clean_linker_0, # of connection points: 3
#     Node 7, Type 1, BuildingBlock: KAKCAD_clean_linker_0, # of connection points: 3
#     Node 8, Type 1, BuildingBlock: KAKCAD_clean_linker_0, # of connection points: 3
#     Edge 9, Type (0, 1), BuildingBlock: KIFKEQ_clean_linker_1, # of connection points: 2
#     Edge 10, Type (0, 1), BuildingBlock: KIFKEQ_clean_linker_1, # of connection points: 2
#     Edge 11, Type (0, 1), BuildingBlock: KIFKEQ_clean_linker_1, # of connection points: 2
#     Edge 12, Type (0, 1), BuildingBlock: KIFKEQ_clean_linker_1, # of connection points: 2
#     Edge 13, Type (0, 1), BuildingBlock: KIFKEQ_clean_linker_1, # of connection points: 2
#     Edge 14, Type (0, 1), BuildingBlock: KIFKEQ_clean_linker_1, # of connection points: 2
#     Edge 15, Type (0, 1), BuildingBlock: KIFKEQ_clean_linker_1, # of connection points: 2
#     Edge 16, Type (0, 1), BuildingBlock: KIFKEQ_clean_linker_1, # of connection points: 2
#     Edge 17, Type (0, 1), BuildingBlock: KIFKEQ_clean_linker_1, # of connection points: 2
#     Edge 18, Type (0, 1), BuildingBlock: KIFKEQ_clean_linker_1, # of connection points: 2
#     Edge 19, Type (0, 1), BuildingBlock: KIFKEQ_clean_linker_1, # of connection points: 2
#     Edge 20, Type (0, 1), BuildingBlock: KIFKEQ_clean_linker_1, # of connection points: 2
#     Edge 21, Type (0, 1), BuildingBlock: KIFKEQ_clean_linker_1, # of connection points: 2
#     Edge 22, Type (0, 1), BuildingBlock: KIFKEQ_clean_linker_1, # of connection points: 2
#     Edge 23, Type (0, 1), BuildingBlock: KIFKEQ_clean_linker_1, # of connection points: 2
#     Edge 24, Type (0, 1), BuildingBlock: KIFKEQ_clean_linker_1, # of connection points: 2
#     Edge 25, Type (0, 1), BuildingBlock: KIFKEQ_clean_linker_1, # of connection points: 2
#     Edge 26, Type (0, 1), BuildingBlock: KIFKEQ_clean_linker_1, # of connection points: 2
# Relax obj value: 0.177
# Max RMSD: 0.211
# Mean RMSD: 0.156
data_MOF--net-anh--node1-INOVEN_clean_sbu_0--node2-KAKCAD_clean_linker_0--edge1-KIFKEQ_clean_linker_1
_symmetry_space_group_name_H-M    P1
_symmetry_Int_Tables_number       1
_symmetry_cell_setting            triclinic
loop_
_symmetry_equiv_pos_as_xyz
'x, y, z'
_cell_length_a     38.234236
_cell_length_b     44.698736
_cell_length_c     67.331191
_cell_angle_alpha  93.870217
_cell_angle_beta   88.53807
_cell_angle_gamma 128.67457
loop_
_atom_site_label
_atom_site_type_symbol
_atom_site_fract_x
_atom_site_fract_y
_atom_site_fract_z
_atom_type_partial_charge
Gd0 Gd 0.10278 0.50015 0.16102 0.0
Gd1 Gd 0.05773 0.53398 0.16435 0.0
C2 C 0.16321 0.59384 0.16339 0.0
C3 C 0.15907 0.48803 0.15446 0.0
C4 C 0.2073 0.51531 0.15907 0.0
C5 C 0.22454 0.50838 0.17457 0.0
C6 C 0.23559 0.55003 0.14964 0.0
C7 C 0.2992 0.5673 0.16897 0.0
C8 C 0.28121 0.57587 0.15458 0.0
C9 C 0.26979 0.53422 0.17964 0.0
C10 C 0.07604 0.50165 0.19826 0.0
C11 C 0.99751 0.44119 0.15898 0.0
C12 C 1.01588 0.55595 0.1813 0.0
C13 C 0.96848 0.53124 0.18649 0.0
C14 C 0.9377 0.52747 0.17354 0.0
C15 C 0.95279 0.50642 0.20213 0.0
C16 C 0.87678 0.47236 0.19041 0.0
C17 C 0.90694 0.4772 0.20415 0.0
C18 C 0.8923 0.49805 0.17536 0.0
C19 C 0.06395 0.52394 0.12443 0.0
O20 O 0.16261 0.56409 0.16455 0.0
O21 O 0.1261 0.58955 0.16242 0.0
O22 O 0.13362 0.47587 0.17002 0.0
O23 O 0.1443 0.49642 0.14027 0.0
O24 O 0.0706 0.47227 0.18949 0.0
O25 O 0.09499 0.52892 0.18668 0.0
O26 O 0.99998 0.47054 0.16664 0.0
O27 O 1.0336 0.44668 0.15199 0.0
O28 O 1.02345 0.55787 0.1622 0.0
O29 O 1.04137 0.55183 0.19122 0.0
O30 O 1.04505 0.53751 0.13257 0.0
O31 O 0.07824 0.51518 0.13786 0.0
H32 H 0.20316 0.48241 0.18249 0.0
H33 H 0.22284 0.55685 0.13808 0.0
H34 H 0.30292 0.60104 0.14613 0.0
H35 H 0.28204 0.52615 0.19072 0.0
H36 H 0.94883 0.54617 0.16142 0.0
H37 H 0.97585 0.50867 0.21236 0.0
H38 H 0.89514 0.45816 0.21613 0.0
H39 H 0.86907 0.49534 0.16499 0.0
Gd40 Gd 0.58418 1.00308 0.4836 0.0
Gd41 Gd 0.53182 0.03046 0.48308 0.0
C42 C 0.47447 0.94094 0.48095 0.0
C43 C 0.61255 0.96454 0.48852 0.0
C44 C 0.5933 0.92362 0.48792 0.0
C45 C 0.6009 0.90754 0.47138 0.0
C46 C 0.57025 0.9011 0.5042 0.0
C47 C 0.56794 0.84938 0.48835 0.0
C48 C 0.55757 0.86418 0.50438 0.0
C49 C 0.58844 0.8708 0.47162 0.0
C50 C 0.57442 0.01944 0.44724 0.0
C51 C 0.64199 0.0935 0.4869 0.0
C52 C 0.50388 0.06831 0.47549 0.0
C53 C 0.52234 0.10899 0.47788 0.0
C54 C 0.52384 0.12584 0.49659 0.0
C55 C 0.53746 0.1311 0.46117 0.0
C56 C 0.55267 0.18509 0.48161 0.0
C57 C 0.5523 0.16878 0.46301 0.0
C58 C 0.53912 0.16363 0.49844 0.0
C59 C 0.5403 0.01414 0.51962 0.0
O60 O 0.51217 0.94872 0.48706 0.0
O61 O 0.47446 0.96852 0.47513 0.0
O62 O 0.61402 0.9778 0.47157 0.0
O63 O 0.60194 0.97782 0.50335 0.0
O64 O 0.61119 0.02767 0.45386 0.0
O65 O 0.54385 1.00141 0.45975 0.0
O66 O 0.60342 0.08609 0.48301 0.0
O67 O 0.64361 0.06545 0.48989 0.0
O68 O 0.49388 0.05006 0.49171 0.0
O69 O 0.5228 0.06007 0.46222 0.0
O70 O 0.50401 0.00656 0.51271 0.0
O71 O 0.57153 0.03165 0.50723 0.0
H72 H 0.61839 0.92406 0.45858 0.0
H73 H 0.56372 0.91253 0.51716 0.0
H74 H 0.5423 0.84822 0.51754 0.0
H75 H 0.59694 0.85988 0.45919 0.0
H76 H 0.51238 0.10968 0.50977 0.0
H77 H 0.5369 0.11897 0.44658 0.0
H78 H 0.56273 0.18497 0.44986 0.0
H79 H 0.53866 0.17559 0.5129 0.0
Gd80 Gd 0.63979 0.58281 0.83212 0.0
Gd81 Gd 0.57955 0.49833 0.83423 0.0
C82 C 0.52867 0.53552 0.83779 0.0
C83 C 0.6718 0.65109 0.8237 0.0
C84 C 0.6545 0.6731 0.82541 0.0
C85 C 0.66413 0.69733 0.84251 0.0
C86 C 0.62923 0.67099 0.80975 0.0
C87 C 0.62666 0.71875 0.82754 0.0
C88 C 0.61552 0.69363 0.81081 0.0
C89 C 0.65032 0.71997 0.84355 0.0
C90 C 0.62819 0.55941 0.86858 0.0
C91 C 0.69126 0.54633 0.83427 0.0
C92 C 0.54382 0.42815 0.84088 0.0
C93 C 0.55621 0.4026 0.83766 0.0
C94 C 0.54636 0.38148 0.81932 0.0
C95 C 0.57572 0.39737 0.85314 0.0
C96 C 0.57194 0.34857 0.83243 0.0
C97 C 0.58379 0.37074 0.85049 0.0
C98 C 0.55405 0.35477 0.81677 0.0
C99 C 0.58901 0.52191 0.79735 0.0
O100 O 0.56842 0.56686 0.83221 0.0
O101 O 0.52549 0.50512 0.84197 0.0
O102 O 0.68115 0.64379 0.84037 0.0
O103 O 0.65251 0.62203 0.81033 0.0
O104 O 0.66608 0.58998 0.86299 0.0
O105 O 0.5979 0.54479 0.85553 0.0
O106 O 0.6501 0.51439 0.83766 0.0
O107 O 0.69611 0.5772 0.82932 0.0
O108 O 0.53479 0.43775 0.82502 0.0
O109 O 0.56659 0.45663 0.85444 0.0
O110 O 0.55151 0.49322 0.80436 0.0
O111 O 0.62076 0.53634 0.80985 0.0
H112 H 0.68344 0.69964 0.85487 0.0
H113 H 0.62109 0.65266 0.79639 0.0
H114 H 0.59774 0.6927 0.7982 0.0
H115 H 0.65974 0.73959 0.85647 0.0
H116 H 0.53148 0.38474 0.80703 0.0
H117 H 0.58363 0.41309 0.86746 0.0
H118 H 0.5974 0.36626 0.86281 0.0
H119 H 0.54491 0.33812 0.80266 0.0
C120 C 0.57461 0.0584 0.28868 0.0
C121 C 0.56755 0.02806 0.29825 0.0
C122 C 0.57635 0.05879 0.26787 0.0
C123 C 0.57121 0.0289 0.25621 0.0
C124 C 0.5651 0.99902 0.26587 0.0
C125 C 0.56315 0.99855 0.2866 0.0
C126 C 0.57119 0.02813 0.23405 0.0
C127 C 0.60205 0.06143 0.22402 0.0
C128 C 0.60292 0.06058 0.20303 0.0
C129 C 0.57217 0.02493 0.19199 0.0
C130 C 0.54093 0.99105 0.20199 0.0
C131 C 0.54051 0.99349 0.22289 0.0
C132 C 0.50852 0.95209 0.19162 0.0
C133 C 0.47721 0.94417 0.17721 0.0
C134 C 0.50407 0.92104 0.19882 0.0
C135 C 0.46755 0.88317 0.19314 0.0
C136 C 0.43465 0.87502 0.17976 0.0
C137 C 0.63745 0.09743 0.19346 0.0
C138 C 0.64623 0.13164 0.2012 0.0
C139 C 0.66547 0.09997 0.1785 0.0
C140 C 0.70301 0.13605 0.17247 0.0
C141 C 0.71339 0.17034 0.18134 0.0
C142 C 0.68358 0.16742 0.19531 0.0
C143 C 0.44062 0.90585 0.17124 0.0
H144 H 0.57782 0.08143 0.29725 0.0
H145 H 0.58069 0.08203 0.2609 0.0
H146 H 0.56201 0.97597 0.25739 0.0
H147 H 0.5586 0.97519 0.29353 0.0
H148 H 0.62654 0.08807 0.23267 0.0
H149 H 0.51571 0.96793 0.23061 0.0
H150 H 0.57273 0.0235 0.17587 0.0
H151 H 0.4795 0.9674 0.17149 0.0
H152 H 0.5278 0.92607 0.20978 0.0
H153 H 0.4643 0.86008 0.1997 0.0
H154 H 0.62491 0.13085 0.21243 0.0
H155 H 0.65983 0.07427 0.17224 0.0
H156 H 0.41579 0.90036 0.16082 0.0
H157 H 0.68964 0.19302 0.20207 0.0
H158 H 0.72509 0.13715 0.16159 0.0
C159 C 0.5599 0.5447 0.64017 0.0
C160 C 0.59322 0.54611 0.64965 0.0
C161 C 0.55696 0.54237 0.61939 0.0
C162 C 0.58675 0.54066 0.60773 0.0
C163 C 0.62029 0.54233 0.61727 0.0
C164 C 0.62374 0.54538 0.63806 0.0
C165 C 0.58216 0.5363 0.58569 0.0
C166 C 0.5768 0.55954 0.57543 0.0
C167 C 0.57142 0.55512 0.55457 0.0
C168 C 0.57163 0.52699 0.54402 0.0
C169 C 0.57731 0.50364 0.55404 0.0
C170 C 0.58246 0.5085 0.5749 0.0
C171 C 0.57791 0.47416 0.54281 0.0
C172 C 0.54763 0.45121 0.52684 0.0
C173 C 0.60862 0.46852 0.54815 0.0
C174 C 0.60874 0.44034 0.53796 0.0
C175 C 0.57818 0.41711 0.52215 0.0
C176 C 0.56628 0.58036 0.54392 0.0
C177 C 0.54163 0.59148 0.55241 0.0
C178 C 0.58721 0.59471 0.52561 0.0
C179 C 0.58467 0.62046 0.51638 0.0
C180 C 0.56139 0.63238 0.52537 0.0
C181 C 0.53955 0.61746 0.54329 0.0
C182 C 0.54773 0.42295 0.51664 0.0
H183 H 0.53599 0.54517 0.64886 0.0
H184 H 0.53063 0.54091 0.61244 0.0
H185 H 0.64384 0.54128 0.60863 0.0
H186 H 0.64945 0.54612 0.64511 0.0
H187 H 0.57791 0.58174 0.58376 0.0
H188 H 0.58556 0.48993 0.58284 0.0
H189 H 0.56753 0.52332 0.52796 0.0
H190 H 0.52325 0.45456 0.52246 0.0
H191 H 0.63272 0.48597 0.56023 0.0
H192 H 0.6322 0.43621 0.54276 0.0
H193 H 0.52432 0.58046 0.56625 0.0
H194 H 0.60691 0.58718 0.51875 0.0
H195 H 0.52392 0.40563 0.50445 0.0
H196 H 0.52158 0.62655 0.55044 0.0
H197 H 0.60219 0.63214 0.50264 0.0
C198 C 0.13606 0.54864 0.96335 0.0
C199 C 0.09427 0.52712 0.97273 0.0
C200 C 0.13893 0.55135 0.94257 0.0
C201 C 0.10009 0.53253 0.93036 0.0
C202 C 0.05833 0.51071 0.93974 0.0
C203 C 0.05548 0.50805 0.9605 0.0
C204 C 0.10317 0.53544 0.90803 0.0
C205 C 0.13563 0.53579 0.89751 0.0
C206 C 0.14205 0.54035 0.87679 0.0
C207 C 0.11013 0.54163 0.86615 0.0
C208 C 0.07457 0.53955 0.87648 0.0
C209 C 0.07361 0.53758 0.89741 0.0
C210 C 1.03622 0.53811 0.86727 0.0
C211 C 1.0428 0.56567 0.85488 0.0
C212 C 0.99167 0.5115 0.87391 0.0
C213 C 0.95652 0.51282 0.86924 0.0
C214 C 0.9628 0.54114 0.85757 0.0
C215 C 0.18279 0.54344 0.86823 0.0
C216 C 0.2219 0.56078 0.8804 0.0
C217 C 0.18288 0.52625 0.84969 0.0
C218 C 0.21884 0.52511 0.8443 0.0
C219 C 0.25611 0.54032 0.85734 0.0
C220 C 0.25657 0.55853 0.87537 0.0
C221 C 1.00726 0.56712 0.85018 0.0
H222 H 0.16683 0.56425 0.97211 0.0
H223 H 0.17184 0.56891 0.93611 0.0
H224 H 1.02754 0.4951 0.931 0.0
H225 H 1.02254 0.49053 0.96692 0.0
H226 H 0.15599 0.53165 0.90584 0.0
H227 H 0.04928 0.53801 0.90573 0.0
H228 H 0.11273 0.54398 0.85021 0.0
H229 H 0.07601 0.58732 0.84943 0.0
H230 H 0.98382 0.48948 0.8834 0.0
H231 H 0.92412 0.49101 0.87519 0.0
H232 H 0.22571 0.5759 0.89446 0.0
H233 H 0.15443 0.51245 0.83955 0.0
H234 H 1.0155 0.58965 0.84106 0.0
H235 H 0.28431 0.57142 0.88583 0.0
H236 H 0.21658 0.51097 0.83013 0.0
C237 C 1.01138 0.50002 0.35881 0.0
C238 C 0.05093 0.51238 0.34898 0.0
C239 C 1.00947 0.49995 0.37969 0.0
C240 C 1.04734 0.51297 0.39122 0.0
C241 C 0.08694 0.52569 0.38137 0.0
C242 C 0.0886 0.52514 0.36055 0.0
C243 C 1.0462 0.51391 0.41346 0.0
C244 C 1.01139 0.48192 0.42342 0.0
C245 C 1.01118 0.48203 0.44446 0.0
C246 C 1.04724 0.51562 0.4555 0.0
C247 C 0.08271 0.54802 0.44563 0.0
C248 C 0.08123 0.54664 0.4247 0.0
C249 C 0.12253 0.58384 0.4563 0.0
C250 C 0.11805 0.60435 0.47157 0.0
C251 C 0.16561 0.60078 0.44894 0.0
C252 C 0.20227 0.63832 0.45517 0.0
C253 C 0.19731 0.66007 0.46919 0.0
C254 C 0.97409 0.44603 0.45424 0.0
C255 C 0.9302 0.42227 0.44598 0.0
C256 C 0.98253 0.43307 0.47061 0.0
C257 C 0.94883 0.39661 0.47766 0.0
C258 C 0.90603 0.3723 0.46848 0.0
C259 C 0.89689 0.38588 0.45287 0.0
C260 C 0.15523 0.64217 0.47801 0.0
H261 H 0.98171 0.4898 0.35031 0.0
H262 H 0.97857 0.49018 0.38684 0.0
H263 H 0.11662 0.53569 0.38978 0.0
H264 H 0.11962 0.53503 0.35348 0.0
H265 H 0.98529 0.45622 0.41461 0.0
H266 H 0.10767 0.57157 0.417 0.0
H267 H 0.04805 0.51644 0.47161 0.0
H268 H 0.08541 0.59219 0.47757 0.0
H269 H 0.17053 0.58561 0.43746 0.0
H270 H 0.23437 0.65102 0.44836 0.0
H271 H 0.92172 0.43138 0.43376 0.0
H272 H 1.0157 0.45025 0.4774 0.0
H273 H 0.15045 0.65819 0.48894 0.0
H274 H 0.86408 0.36788 0.44565 0.0
H275 H 0.9567 0.38681 0.48977 0.0
C276 C 0.53773 0.97004 0.67759 0.0
C277 C 0.56651 0.0039 0.66763 0.0
C278 C 0.53897 0.97113 0.69843 0.0
C279 C 0.56865 0.00621 0.70972 0.0
C280 C 0.59772 0.04001 0.6996 0.0
C281 C 0.59674 0.03882 0.67877 0.0
C282 C 0.56866 0.00772 0.73195 0.0
C283 C 0.56604 0.98003 0.74222 0.0
C284 C 0.56563 0.98099 0.76321 0.0
C285 C 0.56807 0.01051 0.77388 0.0
C286 C 0.57155 0.03891 0.76391 0.0
C287 C 0.57144 0.03701 0.74296 0.0
C288 C 0.57557 0.07081 0.77525 0.0
C289 C 0.54899 0.06386 0.79192 0.0
C290 C 0.60537 0.10851 0.76906 0.0
C291 C 0.60746 0.1382 0.77885 0.0
C292 C 0.57994 0.13089 0.79504 0.0
C293 C 0.56423 0.95193 0.77386 0.0
C294 C 0.54028 0.91399 0.76559 0.0
C295 C 0.58843 0.96216 0.79188 0.0
C296 C 0.59016 0.93569 0.80084 0.0
C297 C 0.56831 0.89863 0.79184 0.0
C298 C 0.54263 0.88783 0.77437 0.0
C299 C 0.551 0.09364 0.80167 0.0
H300 H 0.51394 0.94284 0.66923 0.0
H301 H 0.51587 0.94463 0.70572 0.0
H302 H 0.62132 0.06743 0.7078 0.0
H303 H 0.61902 0.06529 0.67134 0.0
H304 H 0.56574 0.95838 0.73376 0.0
H305 H 0.57255 0.05801 0.73516 0.0
H306 H 0.56773 0.01169 0.78999 0.0
H307 H 0.52547 0.03516 0.797 0.0
H308 H 0.62679 0.11502 0.75648 0.0
H309 H 0.62966 0.16671 0.77341 0.0
H310 H 0.52019 0.90454 0.75209 0.0
H311 H 0.60771 0.9911 0.79866 0.0
H312 H 0.52908 0.08741 0.814 0.0
H313 H 0.52504 0.85925 0.76725 0.0
H314 H 0.61048 0.94482 0.81424 0.0
C315 C 0.55037 0.44833 0.0147 0.0
C316 C 0.54864 0.47441 0.00525 0.0
C317 C 0.55061 0.4489 0.03536 0.0
C318 C 0.54875 0.47531 0.04666 0.0
C319 C 0.54631 0.50098 0.03733 0.0
C320 C 0.5465 0.5007 0.01669 0.0
C321 C 0.54864 0.4756 0.06828 0.0
C322 C 0.5859 0.48519 0.07861 0.0
C323 C 0.58492 0.48348 0.09929 0.0
C324 C 0.54666 0.47273 0.10953 0.0
C325 C 0.50891 0.46252 0.09914 0.0
C326 C 0.51029 0.46429 0.07843 0.0
C327 C 0.4689 0.45156 0.11001 0.0
C328 C 0.45529 0.43037 0.12704 0.0
C329 C 0.44679 0.46568 0.10451 0.0
C330 C 0.41463 0.46175 0.11673 0.0
C331 C 0.40479 0.44449 0.13489 0.0
C332 C 0.62089 0.48753 0.10989 0.0
C333 C 0.63528 0.467 0.10222 0.0
C334 C 0.63664 0.50737 0.1287 0.0
C335 C 0.66412 0.50453 0.14023 0.0
C336 C 0.6762 0.48204 0.13295 0.0
C337 C 0.66275 0.46432 0.11365 0.0
C338 C 0.42379 0.42734 0.13961 0.0
H339 H 0.55188 0.42779 0.00611 0.0
H340 H 0.55207 0.42871 0.04254 0.0
H341 H 0.54511 0.52163 0.04603 0.0
H342 H 0.54626 0.52171 0.0097 0.0
H343 H 0.61524 0.49324 0.0705 0.0
H344 H 0.48122 0.45594 0.07008 0.0
H345 H 0.54596 0.47142 0.12556 0.0
H346 H 0.47093 0.41818 0.13128 0.0
H347 H 0.45678 0.48252 0.09166 0.0
H348 H 0.40118 0.47606 0.11301 0.0
H349 H 0.62294 0.45086 0.08792 0.0
H350 H 0.62621 0.5237 0.13477 0.0
H351 H 0.41675 0.41419 0.15363 0.0
H352 H 0.67113 0.44634 0.10785 0.0
H353 H 0.67464 0.51874 0.15503 0.0
H354 H 0.3497 0.58269 0.13611 0.0
H355 H 0.3584 0.58848 0.20014 0.0
H356 H 0.3801 0.54883 0.13365 0.0
H357 H 0.38826 0.55351 0.19771 0.0
H358 H 0.44638 0.48717 0.169 0.0
H359 H 0.44011 0.5364 0.18105 0.0
H360 H 0.31723 0.47775 0.14672 0.0
H361 H 0.32383 0.42893 0.1345 0.0
C362 C 0.36083 0.57913 0.14975 0.0
C363 C 0.34688 0.58382 0.16839 0.0
C364 C 0.37737 0.55888 0.14828 0.0
C365 C 0.38273 0.54609 0.16555 0.0
C366 C 0.3822 0.56164 0.18421 0.0
C367 C 0.36594 0.58232 0.18554 0.0
C368 C 0.41656 0.48353 0.16505 0.0
C369 C 0.38623 0.45521 0.15038 0.0
C370 C 0.41357 0.5121 0.17164 0.0
C371 C 0.37977 0.51169 0.16381 0.0
C372 C 0.3447 0.47923 0.15224 0.0
C373 C 0.34774 0.45081 0.14565 0.0
H374 H 0.72902 0.12186 0.48006 0.0
H375 H 0.64941 0.15805 0.49444 0.0
H376 H 0.7955 0.18913 0.47778 0.0
H377 H 0.71533 0.22488 0.49217 0.0
H378 H 0.84829 0.3458 0.49975 0.0
H379 H 0.78734 0.27871 0.50662 0.0
H380 H 0.8247 0.24067 0.45575 0.0
H381 H 0.88546 0.30764 0.44915 0.0
C382 C 0.72579 0.14414 0.48301 0.0
C383 C 0.68373 0.13439 0.48738 0.0
C384 C 0.76386 0.18279 0.48154 0.0
C385 C 0.76107 0.21278 0.48471 0.0
C386 C 0.7192 0.2029 0.48979 0.0
C387 C 0.68116 0.16437 0.49097 0.0
C388 C 0.84368 0.32298 0.49026 0.0
C389 C 0.87166 0.33186 0.47397 0.0
C390 C 0.80858 0.2845 0.49407 0.0
C391 C 0.80072 0.25392 0.48173 0.0
C392 C 0.82978 0.26315 0.46576 0.0
C393 C 0.86455 0.30155 0.46189 0.0
H394 H 0.55766 0.71699 0.84232 0.0
H395 H 0.68092 0.7855 0.81028 0.0
H396 H 0.54374 0.76256 0.83612 0.0
H397 H 0.6677 0.83096 0.80429 0.0
H398 H 0.59597 0.86366 0.77062 0.0
H399 H 0.6107 0.82201 0.78213 0.0
H400 H 0.57334 0.83316 0.84161 0.0
H401 H 0.55844 0.87538 0.82988 0.0
C402 C 0.58204 0.74218 0.83429 0.0
C403 C 0.62015 0.74787 0.82658 0.0
C404 C 0.57423 0.76824 0.8308 0.0
C405 C 0.6043 0.79998 0.81943 0.0
C406 C 0.64351 0.80642 0.81276 0.0
C407 C 0.65124 0.78059 0.81625 0.0
C408 C 0.59057 0.85703 0.78613 0.0
C409 C 0.5759 0.87259 0.79933 0.0
C410 C 0.59941 0.83347 0.79278 0.0
C411 C 0.59358 0.82457 0.81282 0.0
C412 C 0.57812 0.83954 0.82608 0.0
C413 C 0.56982 0.86376 0.81942 0.0
H414 H 0.82633 0.47478 0.21783 0.0
H415 H 0.8192 0.40867 0.16618 0.0
H416 H 0.75982 0.46449 0.2062 0.0
H417 H 0.75173 0.39723 0.15468 0.0
H418 H 0.74782 0.48528 0.124 0.0
H419 H 0.77768 0.46115 0.143 0.0
H420 H 0.68431 0.4339 0.18985 0.0
H421 H 0.65414 0.45818 0.17061 0.0
C422 C 0.80822 0.45523 0.20488 0.0
C423 C 0.82838 0.44387 0.19237 0.0
C424 C 0.77028 0.4496 0.19809 0.0
C425 C 0.75238 0.4318 0.17907 0.0
C426 C 0.76604 0.41208 0.16915 0.0
C427 C 0.80421 0.41807 0.17587 0.0
C428 C 0.73372 0.4741 0.13834 0.0
C429 C 0.69867 0.47328 0.14585 0.0
C430 C 0.75013 0.45966 0.14906 0.0
C431 C 0.73175 0.44407 0.16748 0.0
C432 C 0.69809 0.44487 0.17545 0.0
C433 C 0.6815 0.45931 0.16464 0.0
H434 H 0.39781 0.90833 0.4589 0.0
H435 H 0.45423 0.88233 0.50269 0.0
H436 H 0.32885 0.84197 0.45775 0.0
H437 H 0.38518 0.81577 0.50155 0.0
H438 H 0.23936 0.703 0.50462 0.0
H439 H 0.30455 0.77164 0.50888 0.0
H440 H 0.30497 0.78001 0.44532 0.0
H441 H 0.24047 0.71225 0.44126 0.0
C442 C 0.39542 0.8885 0.46838 0.0
C443 C 0.4318 0.90067 0.48074 0.0
C444 C 0.35588 0.85028 0.46766 0.0
C445 C 0.35127 0.82315 0.47945 0.0
C446 C 0.38723 0.83571 0.49231 0.0
C447 C 0.42706 0.87385 0.49282 0.0
C448 C 0.25328 0.71977 0.49166 0.0
C449 C 0.23492 0.70217 0.47259 0.0
C450 C 0.29081 0.75901 0.49404 0.0
C451 C 0.31027 0.78164 0.47743 0.0
C452 C 0.29088 0.76393 0.4585 0.0
C453 C 0.254 0.72488 0.45613 0.0
H454 H 0.50219 0.27363 0.82512 0.0
H455 H 0.6453 0.35086 0.83505 0.0
H456 H 0.50317 0.21995 0.81929 0.0
H457 H 0.64722 0.29732 0.82798 0.0
H458 H 0.63246 0.18699 0.82456 0.0
H459 H 0.6305 0.23913 0.83641 0.0
H460 H 0.5224 0.19557 0.79422 0.0
H461 H 0.52339 0.14314 0.78342 0.0
C462 C 0.53397 0.279 0.82595 0.0
C463 C 0.57367 0.31631 0.83028 0.0
C464 C 0.53471 0.2483 0.82244 0.0
C465 C 0.57541 0.25414 0.82264 0.0
C466 C 0.61517 0.29149 0.82774 0.0
C467 C 0.61423 0.32226 0.83167 0.0
C468 C 0.60797 0.18857 0.81817 0.0
C469 C 0.57774 0.16111 0.80327 0.0
C470 C 0.60705 0.21855 0.82477 0.0
C471 C 0.57611 0.22172 0.81641 0.0
C472 C 0.54595 0.19383 0.80148 0.0
C473 C 0.54661 0.16383 0.79511 0.0
H474 H 0.49362 0.7733 0.48833 0.0
H475 H 0.63775 0.85045 0.49394 0.0
H476 H 0.49233 0.71912 0.49494 0.0
H477 H 0.63693 0.79703 0.50032 0.0
H478 H 0.61408 0.70651 0.53886 0.0
H479 H 0.61484 0.75776 0.5279 0.0
H480 H 0.51359 0.67877 0.48291 0.0
H481 H 0.51274 0.62714 0.49432 0.0
C482 C 0.52491 0.77843 0.4908 0.0
C483 C 0.5658 0.81575 0.49072 0.0
C484 C 0.5243 0.74757 0.49444 0.0
C485 C 0.56455 0.75386 0.49836 0.0
C486 C 0.60533 0.79123 0.49767 0.0
C487 C 0.6059 0.82178 0.49388 0.0
C488 C 0.59236 0.70035 0.52652 0.0
C489 C 0.5635 0.66327 0.51734 0.0
C490 C 0.59285 0.72963 0.52015 0.0
C491 C 0.56437 0.72241 0.50446 0.0
C492 C 0.53567 0.68515 0.49512 0.0
C493 C 0.53539 0.65578 0.50148 0.0
H494 H 0.69381 0.49044 0.84835 0.0
H495 H 0.78354 0.603 0.82617 0.0
H496 H 0.75613 0.48972 0.85305 0.0
H497 H 0.84686 0.60276 0.83114 0.0
H498 H 0.95598 0.58502 0.83107 0.0
H499 H 0.89479 0.58714 0.8253 0.0
H500 H 0.81694 0.50464 0.86926 0.0
H501 H 0.87708 0.50256 0.87513 0.0
C502 C 0.72689 0.51538 0.84441 0.0
C503 C 0.73213 0.54677 0.83677 0.0
C504 C 0.76364 0.51516 0.84734 0.0
C505 C 0.8086 0.54631 0.84281 0.0
C506 C 0.8138 0.57768 0.83491 0.0
C507 C 0.77684 0.57797 0.83208 0.0
C508 C 0.92614 0.56711 0.83969 0.0
C509 C 0.92367 0.54315 0.85359 0.0
C510 C 0.89011 0.56844 0.83631 0.0
C511 C 0.84877 0.54577 0.84647 0.0
C512 C 0.84654 0.5222 0.86043 0.0
C513 C 0.8824 0.52103 0.86388 0.0
H514 H 0.2343 0.6286 0.18955 0.0
H515 H 0.18783 0.64874 0.13837 0.0
H516 H 0.29986 0.69687 0.19269 0.0
H517 H 0.25333 0.71674 0.14122 0.0
H518 H 0.39809 0.83274 0.14396 0.0
H519 H 0.33464 0.76395 0.13879 0.0
H520 H 0.31452 0.75742 0.20225 0.0
H521 H 0.37818 0.82554 0.2073 0.0
C522 C 0.23866 0.64753 0.17874 0.0
C523 C 0.2061 0.63349 0.16372 0.0
C524 C 0.2759 0.68673 0.18064 0.0
C525 C 0.28181 0.71258 0.16731 0.0
C526 C 0.25011 0.69787 0.15172 0.0
C527 C 0.2125 0.65892 0.1501 0.0
C528 C 0.37974 0.81655 0.15673 0.0
C529 C 0.39337 0.83441 0.17604 0.0
C530 C 0.34343 0.77714 0.15381 0.0
C531 C 0.31982 0.7548 0.17014 0.0
C532 C 0.33261 0.77326 0.18936 0.0
C533 C 0.3689 0.81241 0.19226 0.0
H534 H 0.50934 0.20565 0.46302 0.0
H535 H 0.61787 0.24884 0.50449 0.0
H536 H 0.51839 0.26471 0.4693 0.0
H537 H 0.62722 0.30808 0.51087 0.0
H538 H 0.64913 0.41981 0.51034 0.0
H539 H 0.64714 0.36652 0.49702 0.0
H540 H 0.50251 0.29051 0.49824 0.0
H541 H 0.50451 0.34361 0.51152 0.0
C542 C 0.53577 0.22825 0.47316 0.0
C543 C 0.56287 0.22292 0.48333 0.0
C544 C 0.54074 0.26186 0.47688 0.0
C545 C 0.57326 0.29092 0.4907 0.0
C546 C 0.60201 0.28633 0.50006 0.0
C547 C 0.59659 0.25245 0.49652 0.0
C548 C 0.61694 0.39172 0.50767 0.0
C549 C 0.57698 0.38584 0.51213 0.0
C550 C 0.61581 0.36126 0.50004 0.0
C551 C 0.57471 0.32428 0.49667 0.0
C552 C 0.53473 0.31876 0.5004 0.0
C553 C 0.53585 0.3492 0.50803 0.0
H554 H 0.44405 0.48132 0.85397 0.0
H555 H 0.51826 0.58895 0.82645 0.0
H556 H 0.38 0.48122 0.85767 0.0
H557 H 0.45412 0.58883 0.82999 0.0
H558 H 0.31615 0.56579 0.82548 0.0
H559 H 0.37934 0.56458 0.82049 0.0
H560 H 0.34665 0.50638 0.87453 0.0
H561 H 0.28452 0.5085 0.87961 0.0
C562 C 0.4471 0.50515 0.84863 0.0
C563 C 0.48772 0.53518 0.8399 0.0
C564 C 0.4098 0.50523 0.85087 0.0
C565 C 0.41032 0.53508 0.84426 0.0
C566 C 0.45083 0.56485 0.83526 0.0
C567 C 0.48838 0.56504 0.83329 0.0
C568 C 0.32204 0.55241 0.83628 0.0
C569 C 0.29394 0.5371 0.85299 0.0
C570 C 0.35908 0.55198 0.8335 0.0
C571 C 0.36969 0.53537 0.84702 0.0
C572 C 0.34074 0.51931 0.86347 0.0
C573 C 0.30453 0.52062 0.86648 0.0
H574 H 0.9266 0.41743 0.1829 0.0
H575 H 0.97163 0.37411 0.13888 0.0
H576 H 0.85918 0.35219 0.18747 0.0
H577 H 0.90373 0.30841 0.14346 0.0
H578 H 0.75338 0.19807 0.14512 0.0
H579 H 0.82132 0.26283 0.1387 0.0
H580 H 0.83816 0.29479 0.20172 0.0
H581 H 0.77068 0.23066 0.20804 0.0
C582 C 0.92196 0.39402 0.17401 0.0
C583 C 0.95473 0.40124 0.16046 0.0
C584 C 0.88333 0.35641 0.17678 0.0
C585 C 0.87586 0.32471 0.16596 0.0
C586 C 0.90808 0.33198 0.15201 0.0
C587 C 0.94716 0.3697 0.14942 0.0
C588 C 0.7718 0.21888 0.15759 0.0
C589 C 0.756 0.20915 0.17708 0.0
C590 C 0.81082 0.25606 0.15392 0.0
C591 C 0.83514 0.28446 0.16965 0.0
C592 C 0.81988 0.27422 0.18915 0.0
C593 C 0.78104 0.23727 0.19279 0.0
H594 H 0.05169 0.55887 0.09755 0.0
H595 H 0.09326 0.48923 0.10137 0.0
H596 H 0.06151 0.55999 0.06196 0.0
H597 H 0.10143 0.48881 0.06492 0.0
H598 H 0.14647 0.5247 0.99958 0.0
H599 H 0.14135 0.52353 0.03589 0.0
H600 H 1.02773 0.52226 0.03285 0.0
H601 H 1.03443 0.5256 0.9971 0.0
C602 C 0.06251 0.5433 0.09073 0.0
C603 C 0.07113 0.52358 0.10244 0.0
C604 C 0.06786 0.54369 0.07009 0.0
C605 C 0.08136 0.5238 0.06013 0.0
C606 C 0.09101 0.50456 0.07189 0.0
C607 C 0.08609 0.50457 0.09282 0.0
C608 C 0.12068 0.5246 0.00668 0.0
C609 C 0.09093 0.52533 0.99511 0.0
C610 C 0.11738 0.52343 0.0276 0.0
C611 C 0.08433 0.52312 0.03766 0.0
C612 C 0.05432 0.52327 0.02597 0.0
C613 C 0.0577 0.52457 0.00521 0.0
H614 H 0.58756 0.07675 0.42776 0.0
H615 H 0.54526 0.96198 0.41907 0.0
H616 H 0.5817 0.07873 0.39181 0.0
H617 H 0.54112 0.96405 0.38311 0.0
H618 H 0.5071 0.96663 0.32003 0.0
H619 H 0.50373 0.96396 0.35609 0.0
H620 H 0.61922 0.08424 0.3624 0.0
H621 H 0.62153 0.08695 0.32632 0.0
C622 C 0.5766 0.05184 0.41806 0.0
C623 C 0.56641 0.01909 0.42598 0.0
C624 C 0.57371 0.05304 0.39747 0.0
C625 C 0.56118 0.02164 0.38439 0.0
C626 C 0.55016 0.98857 0.3926 0.0
C627 C 0.55267 0.98732 0.41319 0.0
C628 C 0.53174 0.99249 0.32915 0.0
C629 C 0.56471 0.02696 0.32031 0.0
C630 C 0.52991 0.99097 0.34987 0.0
C631 C 0.56133 0.02382 0.36232 0.0
C632 C 0.59393 0.05846 0.35341 0.0
C633 C 0.59544 0.06004 0.33269 0.0
H634 H 0.66425 0.56155 0.77443 0.0
H635 H 0.52275 0.50555 0.77362 0.0
H636 H 0.66681 0.57013 0.73872 0.0
H637 H 0.5254 0.51583 0.73854 0.0
H638 H 0.52771 0.4918 0.67276 0.0
H639 H 0.52921 0.48954 0.70868 0.0
H640 H 0.66249 0.59918 0.71196 0.0
H641 H 0.66147 0.59985 0.67561 0.0
C642 C 0.63396 0.55177 0.76666 0.0
C643 C 0.59317 0.53229 0.77662 0.0
C644 C 0.63534 0.55679 0.74622 0.0
C645 C 0.59605 0.54292 0.73551 0.0
C646 C 0.55601 0.52568 0.74599 0.0
C647 C 0.55453 0.52007 0.7662 0.0
C648 C 0.55719 0.5154 0.68124 0.0
C649 C 0.59438 0.54602 0.67156 0.0
C650 C 0.55806 0.51438 0.70187 0.0
C651 C 0.59582 0.54446 0.71343 0.0
C652 C 0.63305 0.5753 0.70362 0.0
C653 C 0.63246 0.57588 0.68285 0.0
H654 H 0.4741 0.97133 0.54564 0.0
H655 H 0.61798 0.04569 0.54102 0.0
H656 H 0.48065 0.96609 0.58079 0.0
H657 H 0.625 0.04186 0.57667 0.0
H658 H 0.62016 0.00501 0.63958 0.0
H659 H 0.61449 0.00462 0.60331 0.0
H660 H 0.50078 1.00324 0.61073 0.0
H661 H 0.5057 1.00192 0.64666 0.0
C662 C 0.50726 0.98668 0.5522 0.0
C663 C 0.54554 0.00931 0.54063 0.0
C664 C 0.51108 0.98394 0.57246 0.0
C665 C 0.5534 0.00417 0.58184 0.0
C666 C 0.5918 0.02574 0.57004 0.0
C667 C 0.58789 0.02815 0.54961 0.0
C668 C 0.59388 0.00435 0.63328 0.0
C669 C 0.56315 1.00324 0.64574 0.0
C670 C 0.59075 0.00441 0.61255 0.0
C671 C 0.55701 0.00371 0.60391 0.0
C672 C 0.52656 1.00287 0.61664 0.0
C673 C 0.52946 1.0024 0.63726 0.0
H674 H 0.62938 0.50431 0.88121 0.0
H675 H 0.60555 0.58436 0.89966 0.0
H676 H 0.60184 0.47447 0.91303 0.0
H677 H 0.5803 0.55628 0.9319 0.0
H678 H 0.49944 0.48011 0.97968 0.0
H679 H 0.51641 0.49643 0.94506 0.0
H680 H 0.62538 0.49123 0.94792 0.0
H681 H 0.60805 0.4745 0.98236 0.0
C682 C 0.61868 0.51563 0.8923 0.0
C683 C 0.61924 0.54625 0.88842 0.0
C684 C 0.60308 0.49876 0.91039 0.0
C685 C 0.58835 0.51275 0.92473 0.0
C686 C 0.59038 0.54433 0.92088 0.0
C687 C 0.6055 0.56084 0.90272 0.0
C688 C 0.52646 0.48183 0.97272 0.0
C689 C 0.55293 0.4767 0.98362 0.0
C690 C 0.53624 0.49123 0.95303 0.0
C691 C 0.57277 0.49586 0.94407 0.0
C692 C 0.59697 0.48775 0.9545 0.0
C693 C 0.58706 0.47817 0.97417 0.0
H694 H 1.0421 0.44538 0.22377 0.0
H695 H 0.09518 0.56338 0.22239 0.0
H696 H 1.03476 0.44847 0.25967 0.0
H697 H 0.08729 0.56636 0.25871 0.0
H698 H 1.02475 0.54004 0.32276 0.0
H699 H 1.02963 0.53876 0.28627 0.0
H700 H 0.08672 0.48083 0.28874 0.0
H701 H 0.08194 0.48226 0.32496 0.0
C702 C 0.05206 0.47205 0.23111 0.0
C703 C 0.06946 0.50421 0.2201 0.0
C704 C 0.04799 0.47384 0.2518 0.0
C705 C 0.06081 0.50775 0.26221 0.0
C706 C 0.07694 0.53971 0.25118 0.0
C707 C 0.0815 0.53804 0.23036 0.0
C708 C 1.03817 0.52693 0.31544 0.0
C709 C 0.05295 0.51124 0.32676 0.0
C710 C 1.04132 0.52648 0.29456 0.0
C711 C 0.05849 0.50963 0.28449 0.0
C712 C 0.07296 0.49376 0.2959 0.0
C713 C 0.07049 0.49478 0.31671 0.0
loop_
_geom_bond_atom_site_label_1
_geom_bond_atom_site_label_2
_geom_bond_distance
_geom_bond_site_symmetry_2
_ccdc_geom_bond_type
Gd0 C3 2.818 . S
Gd0 O20 2.377 . S
Gd0 O22 2.448 . S
Gd0 O23 2.506 . S
Gd0 O24 2.435 . S
Gd0 O25 2.717 . S
Gd0 O27 2.395 1_455 S
Gd0 O31 2.327 . S
Gd1 C12 2.818 1_455 S
Gd1 O21 2.395 . S
Gd1 O25 2.327 . S
Gd1 O26 2.377 1_455 S
Gd1 O28 2.448 1_455 S
Gd1 O29 2.506 1_455 S
Gd1 O30 2.435 . S
Gd1 O31 2.717 . S
C2 O20 1.240 . S
C2 O21 1.240 . S
C3 Gd0 2.818 . S
C3 C4 1.510 . S
C3 O22 1.249 . S
C3 O23 1.252 . S
C4 C3 1.510 . S
C4 C5 1.404 . S
C4 C6 1.352 . S
C5 C4 1.404 . S
C5 C9 1.389 . S
C5 H32 0.930 . S
C6 C4 1.352 . S
C6 C8 1.374 . S
C6 H33 0.931 . S
C7 C8 1.359 . S
C7 C9 1.364 . S
C8 C6 1.374 . S
C8 C7 1.359 . S
C8 H34 0.931 . S
C9 C5 1.389 . S
C9 C7 1.364 . S
C9 H35 0.931 . S
C10 O24 1.256 . S
C10 O25 1.257 . S
C11 O26 1.240 . S
C11 O27 1.240 . S
C12 Gd1 2.818 1_655 S
C12 C13 1.510 . S
C12 O28 1.249 . S
C12 O29 1.252 . S
C13 C12 1.510 . S
C13 C14 1.404 . S
C13 C15 1.352 . S
C14 C13 1.404 . S
C14 C18 1.389 . S
C14 H36 0.930 . S
C15 C13 1.352 . S
C15 C17 1.374 . S
C15 H37 0.931 . S
C16 C17 1.359 . S
C16 C18 1.364 . S
C17 C15 1.374 . S
C17 C16 1.359 . S
C17 H38 0.931 . S
C18 C14 1.389 . S
C18 C16 1.364 . S
C18 H39 0.931 . S
C19 O30 1.256 . S
C19 O31 1.257 . S
O20 Gd0 2.377 . S
O20 C2 1.240 . S
O21 Gd1 2.395 . S
O21 C2 1.240 . S
O22 Gd0 2.448 . S
O22 C3 1.249 . S
O23 Gd0 2.506 . S
O23 C3 1.252 . S
O24 Gd0 2.435 . S
O24 C10 1.256 . S
O25 Gd0 2.717 . S
O25 Gd1 2.327 . S
O25 C10 1.257 . S
O26 Gd1 2.377 1_655 S
O26 C11 1.240 . S
O27 Gd0 2.395 1_655 S
O27 C11 1.240 . S
O28 Gd1 2.448 1_655 S
O28 C12 1.249 . S
O29 Gd1 2.506 1_655 S
O29 C12 1.252 . S
O30 Gd1 2.435 . S
O30 C19 1.256 . S
O31 Gd0 2.327 . S
O31 Gd1 2.717 . S
O31 C19 1.257 . S
H32 C5 0.930 . S
H33 C6 0.931 . S
H34 C8 0.931 . S
H35 C9 0.931 . S
H36 C14 0.930 . S
H37 C15 0.931 . S
H38 C17 0.931 . S
H39 C18 0.931 . S
Gd40 C43 2.818 . S
Gd40 O60 2.377 . S
Gd40 O62 2.448 . S
Gd40 O63 2.506 . S
Gd40 O64 2.435 . S
Gd40 O65 2.717 1_565 S
Gd40 O67 2.395 1_565 S
Gd40 O71 2.327 1_565 S
Gd41 C52 2.818 . S
Gd41 O61 2.395 1_545 S
Gd41 O65 2.327 . S
Gd41 O66 2.377 . S
Gd41 O68 2.448 . S
Gd41 O69 2.506 . S
Gd41 O70 2.435 . S
Gd41 O71 2.717 . S
C42 O60 1.240 . S
C42 O61 1.240 . S
C43 Gd40 2.818 . S
C43 C44 1.510 . S
C43 O62 1.249 . S
C43 O63 1.252 . S
C44 C43 1.510 . S
C44 C45 1.404 . S
C44 C46 1.352 . S
C45 C44 1.404 . S
C45 C49 1.389 . S
C45 H72 0.930 . S
C46 C44 1.352 . S
C46 C48 1.374 . S
C46 H73 0.931 . S
C47 C48 1.359 . S
C47 C49 1.364 . S
C48 C46 1.374 . S
C48 C47 1.359 . S
C48 H74 0.931 . S
C49 C45 1.389 . S
C49 C47 1.364 . S
C49 H75 0.931 . S
C50 O64 1.256 1_545 S
C50 O65 1.257 . S
C51 O66 1.240 . S
C51 O67 1.240 . S
C52 Gd41 2.818 . S
C52 C53 1.510 . S
C52 O68 1.249 . S
C52 O69 1.252 . S
C53 C52 1.510 . S
C53 C54 1.404 . S
C53 C55 1.352 . S
C54 C53 1.404 . S
C54 C58 1.389 . S
C54 H76 0.930 . S
C55 C53 1.352 . S
C55 C57 1.374 . S
C55 H77 0.931 . S
C56 C57 1.359 . S
C56 C58 1.364 . S
C57 C55 1.374 . S
C57 C56 1.359 . S
C57 H78 0.931 . S
C58 C54 1.389 . S
C58 C56 1.364 . S
C58 H79 0.931 . S
C59 O70 1.256 . S
C59 O71 1.257 . S
O60 Gd40 2.377 . S
O60 C42 1.240 . S
O61 Gd41 2.395 1_565 S
O61 C42 1.240 . S
O62 Gd40 2.448 . S
O62 C43 1.249 . S
O63 Gd40 2.506 . S
O63 C43 1.252 . S
O64 Gd40 2.435 . S
O64 C50 1.256 1_565 S
O65 Gd40 2.717 1_545 S
O65 Gd41 2.327 . S
O65 C50 1.257 . S
O66 Gd41 2.377 . S
O66 C51 1.240 . S
O67 Gd40 2.395 1_545 S
O67 C51 1.240 . S
O68 Gd41 2.448 . S
O68 C52 1.249 . S
O69 Gd41 2.506 . S
O69 C52 1.252 . S
O70 Gd41 2.435 . S
O70 C59 1.256 . S
O71 Gd40 2.327 1_545 S
O71 Gd41 2.717 . S
O71 C59 1.257 . S
H72 C45 0.930 . S
H73 C46 0.931 . S
H74 C48 0.931 . S
H75 C49 0.931 . S
H76 C54 0.930 . S
H77 C55 0.931 . S
H78 C57 0.931 . S
H79 C58 0.931 . S
Gd80 C83 2.818 . S
Gd80 O100 2.377 . S
Gd80 O102 2.448 . S
Gd80 O103 2.506 . S
Gd80 O104 2.435 . S
Gd80 O105 2.717 . S
Gd80 O107 2.395 . S
Gd80 O111 2.327 . S
Gd81 C92 2.818 . S
Gd81 O101 2.395 . S
Gd81 O105 2.327 . S
Gd81 O106 2.377 . S
Gd81 O108 2.448 . S
Gd81 O109 2.506 . S
Gd81 O110 2.435 . S
Gd81 O111 2.717 . S
C82 O100 1.240 . S
C82 O101 1.240 . S
C83 Gd80 2.818 . S
C83 C84 1.510 . S
C83 O102 1.249 . S
C83 O103 1.252 . S
C84 C83 1.510 . S
C84 C85 1.404 . S
C84 C86 1.352 . S
C85 C84 1.404 . S
C85 C89 1.389 . S
C85 H112 0.930 . S
C86 C84 1.352 . S
C86 C88 1.374 . S
C86 H113 0.931 . S
C87 C88 1.359 . S
C87 C89 1.364 . S
C88 C86 1.374 . S
C88 C87 1.359 . S
C88 H114 0.931 . S
C89 C85 1.389 . S
C89 C87 1.364 . S
C89 H115 0.931 . S
C90 O104 1.256 . S
C90 O105 1.257 . S
C91 O106 1.240 . S
C91 O107 1.240 . S
C92 Gd81 2.818 . S
C92 C93 1.510 . S
C92 O108 1.249 . S
C92 O109 1.252 . S
C93 C92 1.510 . S
C93 C94 1.404 . S
C93 C95 1.352 . S
C94 C93 1.404 . S
C94 C98 1.389 . S
C94 H116 0.930 . S
C95 C93 1.352 . S
C95 C97 1.374 . S
C95 H117 0.931 . S
C96 C97 1.359 . S
C96 C98 1.364 . S
C97 C95 1.374 . S
C97 C96 1.359 . S
C97 H118 0.931 . S
C98 C94 1.389 . S
C98 C96 1.364 . S
C98 H119 0.931 . S
C99 O110 1.256 . S
C99 O111 1.257 . S
O100 Gd80 2.377 . S
O100 C82 1.240 . S
O101 Gd81 2.395 . S
O101 C82 1.240 . S
O102 Gd80 2.448 . S
O102 C83 1.249 . S
O103 Gd80 2.506 . S
O103 C83 1.252 . S
O104 Gd80 2.435 . S
O104 C90 1.256 . S
O105 Gd80 2.717 . S
O105 Gd81 2.327 . S
O105 C90 1.257 . S
O106 Gd81 2.377 . S
O106 C91 1.240 . S
O107 Gd80 2.395 . S
O107 C91 1.240 . S
O108 Gd81 2.448 . S
O108 C92 1.249 . S
O109 Gd81 2.506 . S
O109 C92 1.252 . S
O110 Gd81 2.435 . S
O110 C99 1.256 . S
O111 Gd80 2.327 . S
O111 Gd81 2.717 . S
O111 C99 1.257 . S
H112 C85 0.930 . S
H113 C86 0.931 . S
H114 C88 0.931 . S
H115 C89 0.931 . S
H116 C94 0.930 . S
H117 C95 0.931 . S
H118 C97 0.931 . S
H119 C98 0.931 . S
C120 C121 1.386 . S
C120 C122 1.397 . S
C120 H144 0.931 . S
C121 C120 1.386 . S
C121 C125 1.397 1_545 S
C122 C120 1.397 . S
C122 C123 1.384 . S
C122 H145 0.930 . S
C123 C122 1.384 . S
C123 C124 1.377 1_545 S
C123 C126 1.481 . S
C124 C123 1.377 1_565 S
C124 C125 1.389 . S
C124 H146 0.929 . S
C125 C121 1.397 1_565 S
C125 C124 1.389 . S
C125 H147 0.931 . S
C126 C123 1.481 . S
C126 C127 1.387 . S
C126 C131 1.390 1_545 S
C127 C126 1.387 . S
C127 C128 1.401 . S
C127 H148 0.930 . S
C128 C127 1.401 . S
C128 C129 1.376 . S
C128 C137 1.511 . S
C129 C128 1.376 . S
C129 C130 1.392 1_545 S
C129 H150 0.931 . S
C130 C129 1.392 1_565 S
C130 C131 1.361 . S
C130 C132 1.500 . S
C131 C126 1.390 1_565 S
C131 C130 1.361 . S
C131 H149 0.931 . S
C132 C130 1.500 . S
C132 C133 1.371 . S
C132 C134 1.365 . S
C133 C132 1.371 . S
C133 C143 1.386 . S
C133 H151 0.931 . S
C134 C132 1.365 . S
C134 C135 1.409 . S
C134 H152 0.929 . S
C135 C134 1.409 . S
C135 C136 1.380 . S
C135 H153 0.930 . S
C136 C135 1.380 . S
C136 C143 1.357 . S
C137 C128 1.511 . S
C137 C138 1.341 . S
C137 C139 1.371 . S
C138 C137 1.341 . S
C138 C142 1.394 . S
C138 H154 0.930 . S
C139 C137 1.371 . S
C139 C140 1.392 . S
C139 H155 0.931 . S
C140 C139 1.392 . S
C140 C141 1.331 . S
C140 H158 0.932 . S
C141 C140 1.331 . S
C141 C142 1.336 . S
C142 C138 1.394 . S
C142 C141 1.336 . S
C142 H157 0.929 . S
C143 C133 1.386 . S
C143 C136 1.357 . S
C143 H156 0.928 . S
H144 C120 0.931 . S
H145 C122 0.930 . S
H146 C124 0.929 . S
H147 C125 0.931 . S
H148 C127 0.930 . S
H149 C131 0.931 . S
H150 C129 0.931 . S
H151 C133 0.931 . S
H152 C134 0.929 . S
H153 C135 0.930 . S
H154 C138 0.930 . S
H155 C139 0.931 . S
H156 C143 0.928 . S
H157 C142 0.929 . S
H158 C140 0.932 . S
C159 C160 1.386 . S
C159 C161 1.397 . S
C159 H183 0.931 . S
C160 C159 1.386 . S
C160 C164 1.397 . S
C161 C159 1.397 . S
C161 C162 1.384 . S
C161 H184 0.930 . S
C162 C161 1.384 . S
C162 C163 1.377 . S
C162 C165 1.481 . S
C163 C162 1.377 . S
C163 C164 1.389 . S
C163 H185 0.929 . S
C164 C160 1.397 . S
C164 C163 1.389 . S
C164 H186 0.931 . S
C165 C162 1.481 . S
C165 C166 1.387 . S
C165 C170 1.390 . S
C166 C165 1.387 . S
C166 C167 1.401 . S
C166 H187 0.930 . S
C167 C166 1.401 . S
C167 C168 1.376 . S
C167 C176 1.511 . S
C168 C167 1.376 . S
C168 C169 1.392 . S
C168 H189 0.931 . S
C169 C168 1.392 . S
C169 C170 1.361 . S
C169 C171 1.500 . S
C170 C165 1.390 . S
C170 C169 1.361 . S
C170 H188 0.931 . S
C171 C169 1.500 . S
C171 C172 1.371 . S
C171 C173 1.365 . S
C172 C171 1.371 . S
C172 C182 1.386 . S
C172 H190 0.931 . S
C173 C171 1.365 . S
C173 C174 1.409 . S
C173 H191 0.929 . S
C174 C173 1.409 . S
C174 C175 1.380 . S
C174 H192 0.930 . S
C175 C174 1.380 . S
C175 C182 1.357 . S
C176 C167 1.511 . S
C176 C177 1.341 . S
C176 C178 1.371 . S
C177 C176 1.341 . S
C177 C181 1.394 . S
C177 H193 0.930 . S
C178 C176 1.371 . S
C178 C179 1.392 . S
C178 H194 0.931 . S
C179 C178 1.392 . S
C179 C180 1.331 . S
C179 H197 0.932 . S
C180 C179 1.331 . S
C180 C181 1.336 . S
C181 C177 1.394 . S
C181 C180 1.336 . S
C181 H196 0.929 . S
C182 C172 1.386 . S
C182 C175 1.357 . S
C182 H195 0.928 . S
H183 C159 0.931 . S
H184 C161 0.930 . S
H185 C163 0.929 . S
H186 C164 0.931 . S
H187 C166 0.930 . S
H188 C170 0.931 . S
H189 C168 0.931 . S
H190 C172 0.931 . S
H191 C173 0.929 . S
H192 C174 0.930 . S
H193 C177 0.930 . S
H194 C178 0.931 . S
H195 C182 0.928 . S
H196 C181 0.929 . S
H197 C179 0.932 . S
C198 C199 1.386 . S
C198 C200 1.397 . S
C198 H222 0.931 . S
C199 C198 1.386 . S
C199 C203 1.397 . S
C200 C198 1.397 . S
C200 C201 1.384 . S
C200 H223 0.930 . S
C201 C200 1.384 . S
C201 C202 1.377 . S
C201 C204 1.481 . S
C202 C201 1.377 . S
C202 C203 1.389 . S
C202 H224 0.929 1_455 S
C203 C199 1.397 . S
C203 C202 1.389 . S
C203 H225 0.931 1_455 S
C204 C201 1.481 . S
C204 C205 1.387 . S
C204 C209 1.390 . S
C205 C204 1.387 . S
C205 C206 1.401 . S
C205 H226 0.930 . S
C206 C205 1.401 . S
C206 C207 1.376 . S
C206 C215 1.511 . S
C207 C206 1.376 . S
C207 C208 1.392 . S
C207 H228 0.931 . S
C208 C207 1.392 . S
C208 C209 1.361 . S
C208 C210 1.527 . S
C209 C204 1.390 . S
C209 C208 1.361 . S
C209 H227 0.931 . S
C210 C208 1.527 . S
C210 C211 1.369 . S
C210 C212 1.339 1_455 S
C211 C210 1.369 . S
C211 C221 1.386 1_455 S
C211 H229 0.931 . S
C212 C210 1.339 1_655 S
C212 C213 1.409 . S
C212 H230 0.929 . S
C213 C212 1.409 . S
C213 C214 1.380 . S
C213 H231 0.930 . S
C214 C213 1.380 . S
C214 C221 1.357 . S
C215 C206 1.511 . S
C215 C216 1.341 . S
C215 C217 1.371 . S
C216 C215 1.341 . S
C216 C220 1.394 . S
C216 H232 0.930 . S
C217 C215 1.371 . S
C217 C218 1.392 . S
C217 H233 0.931 . S
C218 C217 1.392 . S
C218 C219 1.331 . S
C218 H236 0.932 . S
C219 C218 1.331 . S
C219 C220 1.336 . S
C220 C216 1.394 . S
C220 C219 1.336 . S
C220 H235 0.929 . S
C221 C211 1.386 1_655 S
C221 C214 1.357 . S
C221 H234 0.928 . S
H222 C198 0.931 . S
H223 C200 0.930 . S
H224 C202 0.929 1_655 S
H225 C203 0.931 1_655 S
H226 C205 0.930 . S
H227 C209 0.931 . S
H228 C207 0.931 . S
H229 C211 0.931 . S
H230 C212 0.929 . S
H231 C213 0.930 . S
H232 C216 0.930 . S
H233 C217 0.931 . S
H234 C221 0.928 . S
H235 C220 0.929 . S
H236 C218 0.932 . S
C237 C238 1.386 . S
C237 C239 1.397 . S
C237 H261 0.931 . S
C238 C237 1.386 . S
C238 C242 1.397 1_655 S
C239 C237 1.397 . S
C239 C240 1.384 . S
C239 H262 0.930 . S
C240 C239 1.384 . S
C240 C241 1.377 1_655 S
C240 C243 1.481 . S
C241 C240 1.377 1_455 S
C241 C242 1.389 . S
C241 H263 0.929 . S
C242 C238 1.397 1_455 S
C242 C241 1.389 . S
C242 H264 0.931 . S
C243 C240 1.481 . S
C243 C244 1.387 . S
C243 C248 1.390 1_655 S
C244 C243 1.387 . S
C244 C245 1.401 . S
C244 H265 0.930 . S
C245 C244 1.401 . S
C245 C246 1.385 . S
C245 C254 1.511 . S
C246 C245 1.385 . S
C246 C247 1.382 1_655 S
C246 H267 0.931 . S
C247 C246 1.382 1_455 S
C247 C248 1.361 . S
C247 C249 1.500 . S
C248 C243 1.390 1_455 S
C248 C247 1.361 . S
C248 H266 0.931 . S
C249 C247 1.500 . S
C249 C250 1.371 . S
C249 C251 1.365 . S
C250 C249 1.371 . S
C250 C260 1.386 . S
C250 H268 0.931 . S
C251 C249 1.365 . S
C251 C252 1.409 . S
C251 H269 0.929 . S
C252 C251 1.409 . S
C252 C253 1.380 . S
C252 H270 0.930 . S
C253 C252 1.380 . S
C253 C260 1.357 . S
C254 C245 1.511 . S
C254 C255 1.341 . S
C254 C256 1.371 . S
C255 C254 1.341 . S
C255 C259 1.394 . S
C255 H271 0.930 . S
C256 C254 1.371 . S
C256 C257 1.392 . S
C256 H272 0.931 . S
C257 C256 1.392 . S
C257 C258 1.331 . S
C257 H275 0.932 . S
C258 C257 1.331 . S
C258 C259 1.336 . S
C259 C255 1.394 . S
C259 C258 1.336 . S
C259 H274 0.929 . S
C260 C250 1.386 . S
C260 C253 1.357 . S
C260 H273 0.928 . S
H261 C237 0.931 . S
H262 C239 0.930 . S
H263 C241 0.929 . S
H264 C242 0.931 . S
H265 C244 0.930 . S
H266 C248 0.931 . S
H267 C246 0.931 . S
H268 C250 0.931 . S
H269 C251 0.929 . S
H270 C252 0.930 . S
H271 C255 0.930 . S
H272 C256 0.931 . S
H273 C260 0.928 . S
H274 C259 0.929 . S
H275 C257 0.932 . S
C276 C277 1.386 . S
C276 C278 1.397 . S
C276 H300 0.931 . S
C277 C276 1.386 . S
C277 C281 1.397 1_565 S
C278 C276 1.397 . S
C278 C279 1.384 . S
C278 H301 0.930 . S
C279 C278 1.384 . S
C279 C280 1.377 1_565 S
C279 C282 1.482 1_565 S
C280 C279 1.377 1_545 S
C280 C281 1.389 . S
C280 H302 0.929 . S
C281 C277 1.397 1_545 S
C281 C280 1.389 . S
C281 H303 0.931 . S
C282 C279 1.482 1_545 S
C282 C283 1.361 1_545 S
C282 C287 1.416 . S
C283 C282 1.361 1_565 S
C283 C284 1.401 . S
C283 H304 0.930 . S
C284 C283 1.401 . S
C284 C285 1.376 1_565 S
C284 C293 1.511 . S
C285 C284 1.376 1_545 S
C285 C286 1.392 . S
C285 H306 0.931 . S
C286 C285 1.392 . S
C286 C287 1.361 . S
C286 C288 1.500 . S
C287 C282 1.416 . S
C287 C286 1.361 . S
C287 H305 0.931 . S
C288 C286 1.500 . S
C288 C289 1.371 . S
C288 C290 1.365 . S
C289 C288 1.371 . S
C289 C299 1.386 . S
C289 H307 0.931 . S
C290 C288 1.365 . S
C290 C291 1.409 . S
C290 H308 0.929 . S
C291 C290 1.409 . S
C291 C292 1.380 . S
C291 H309 0.930 . S
C292 C291 1.380 . S
C292 C299 1.357 . S
C293 C284 1.511 . S
C293 C294 1.341 . S
C293 C295 1.371 . S
C294 C293 1.341 . S
C294 C298 1.394 . S
C294 H310 0.930 . S
C295 C293 1.371 . S
C295 C296 1.392 . S
C295 H311 0.931 . S
C296 C295 1.392 . S
C296 C297 1.331 . S
C296 H314 0.932 . S
C297 C296 1.331 . S
C297 C298 1.336 . S
C298 C294 1.394 . S
C298 C297 1.336 . S
C298 H313 0.929 . S
C299 C289 1.386 . S
C299 C292 1.357 . S
C299 H312 0.928 . S
H300 C276 0.931 . S
H301 C278 0.930 . S
H302 C280 0.929 . S
H303 C281 0.931 . S
H304 C283 0.930 . S
H305 C287 0.931 . S
H306 C285 0.931 . S
H307 C289 0.931 . S
H308 C290 0.929 . S
H309 C291 0.930 . S
H310 C294 0.930 . S
H311 C295 0.931 . S
H312 C299 0.928 . S
H313 C298 0.929 . S
H314 C296 0.932 . S
C315 C316 1.386 . S
C315 C317 1.397 . S
C315 H339 0.931 . S
C316 C315 1.386 . S
C316 C320 1.397 . S
C317 C315 1.397 . S
C317 C318 1.384 . S
C317 H340 0.930 . S
C318 C317 1.384 . S
C318 C319 1.377 . S
C318 C321 1.481 . S
C319 C318 1.377 . S
C319 C320 1.389 . S
C319 H341 0.929 . S
C320 C316 1.397 . S
C320 C319 1.389 . S
C320 H342 0.931 . S
C321 C318 1.481 . S
C321 C322 1.387 . S
C321 C326 1.390 . S
C322 C321 1.387 . S
C322 C323 1.401 . S
C322 H343 0.930 . S
C323 C322 1.401 . S
C323 C324 1.376 . S
C323 C332 1.511 . S
C324 C323 1.376 . S
C324 C325 1.392 . S
C324 H345 0.931 . S
C325 C324 1.392 . S
C325 C326 1.361 . S
C325 C327 1.500 . S
C326 C321 1.390 . S
C326 C325 1.361 . S
C326 H344 0.931 . S
C327 C325 1.500 . S
C327 C328 1.371 . S
C327 C329 1.365 . S
C328 C327 1.371 . S
C328 C338 1.386 . S
C328 H346 0.931 . S
C329 C327 1.365 . S
C329 C330 1.409 . S
C329 H347 0.929 . S
C330 C329 1.409 . S
C330 C331 1.380 . S
C330 H348 0.930 . S
C331 C330 1.380 . S
C331 C338 1.357 . S
C332 C323 1.511 . S
C332 C333 1.341 . S
C332 C334 1.371 . S
C333 C332 1.341 . S
C333 C337 1.394 . S
C333 H349 0.930 . S
C334 C332 1.371 . S
C334 C335 1.392 . S
C334 H350 0.931 . S
C335 C334 1.392 . S
C335 C336 1.331 . S
C335 H353 0.932 . S
C336 C335 1.331 . S
C336 C337 1.336 . S
C337 C333 1.394 . S
C337 C336 1.336 . S
C337 H352 0.929 . S
C338 C328 1.386 . S
C338 C331 1.357 . S
C338 H351 0.928 . S
H339 C315 0.931 . S
H340 C317 0.930 . S
H341 C319 0.929 . S
H342 C320 0.931 . S
H343 C322 0.930 . S
H344 C326 0.931 . S
H345 C324 0.931 . S
H346 C328 0.931 . S
H347 C329 0.929 . S
H348 C330 0.930 . S
H349 C333 0.930 . S
H350 C334 0.931 . S
H351 C338 0.928 . S
H352 C337 0.929 . S
H353 C335 0.932 . S
H354 C362 0.950 . S
H355 C367 0.950 . S
H356 C364 0.950 . S
H357 C366 0.950 . S
H358 C368 0.950 . S
H359 C370 0.950 . S
H360 C372 0.950 . S
H361 C373 0.950 . S
C362 H354 0.950 . S
C362 C363 1.386 . S
C362 C364 1.391 . S
C363 C362 1.386 . S
C363 C367 1.393 . S
C364 H356 0.950 . S
C364 C362 1.391 . S
C364 C365 1.400 . S
C365 C364 1.400 . S
C365 C366 1.398 . S
C365 C371 1.491 . S
C366 H357 0.950 . S
C366 C365 1.398 . S
C366 C367 1.391 . S
C367 H355 0.950 . S
C367 C363 1.393 . S
C367 C366 1.391 . S
C368 H358 0.950 . S
C368 C369 1.386 . S
C368 C370 1.391 . S
C369 C368 1.386 . S
C369 C373 1.393 . S
C370 H359 0.950 . S
C370 C368 1.391 . S
C370 C371 1.400 . S
C371 C365 1.491 . S
C371 C370 1.400 . S
C371 C372 1.398 . S
C372 H360 0.950 . S
C372 C371 1.398 . S
C372 C373 1.391 . S
C373 H361 0.950 . S
C373 C369 1.393 . S
C373 C372 1.391 . S
H374 C382 0.950 . S
H375 C387 0.950 . S
H376 C384 0.950 . S
H377 C386 0.950 . S
H378 C388 0.950 . S
H379 C390 0.950 . S
H380 C392 0.950 . S
H381 C393 0.950 . S
C382 H374 0.950 . S
C382 C383 1.386 . S
C382 C384 1.391 . S
C383 C382 1.386 . S
C383 C387 1.393 . S
C384 H376 0.950 . S
C384 C382 1.391 . S
C384 C385 1.400 . S
C385 C384 1.400 . S
C385 C386 1.398 . S
C385 C391 1.491 . S
C386 H377 0.950 . S
C386 C385 1.398 . S
C386 C387 1.391 . S
C387 H375 0.950 . S
C387 C383 1.393 . S
C387 C386 1.391 . S
C388 H378 0.950 . S
C388 C389 1.386 . S
C388 C390 1.391 . S
C389 C388 1.386 . S
C389 C393 1.393 . S
C390 H379 0.950 . S
C390 C388 1.391 . S
C390 C391 1.400 . S
C391 C385 1.491 . S
C391 C390 1.400 . S
C391 C392 1.398 . S
C392 H380 0.950 . S
C392 C391 1.398 . S
C392 C393 1.391 . S
C393 H381 0.950 . S
C393 C389 1.393 . S
C393 C392 1.391 . S
H394 C402 0.950 . S
H395 C407 0.950 . S
H396 C404 0.950 . S
H397 C406 0.950 . S
H398 C408 0.950 . S
H399 C410 0.950 . S
H400 C412 0.950 . S
H401 C413 0.950 . S
C402 H394 0.950 . S
C402 C403 1.386 . S
C402 C404 1.391 . S
C403 C402 1.386 . S
C403 C407 1.393 . S
C404 H396 0.950 . S
C404 C402 1.391 . S
C404 C405 1.400 . S
C405 C404 1.400 . S
C405 C406 1.398 . S
C405 C411 1.491 . S
C406 H397 0.950 . S
C406 C405 1.398 . S
C406 C407 1.391 . S
C407 H395 0.950 . S
C407 C403 1.393 . S
C407 C406 1.391 . S
C408 H398 0.950 . S
C408 C409 1.386 . S
C408 C410 1.391 . S
C409 C408 1.386 . S
C409 C413 1.393 . S
C410 H399 0.950 . S
C410 C408 1.391 . S
C410 C411 1.400 . S
C411 C405 1.491 . S
C411 C410 1.400 . S
C411 C412 1.398 . S
C412 H400 0.950 . S
C412 C411 1.398 . S
C412 C413 1.391 . S
C413 H401 0.950 . S
C413 C409 1.393 . S
C413 C412 1.391 . S
H414 C422 0.950 . S
H415 C427 0.950 . S
H416 C424 0.950 . S
H417 C426 0.950 . S
H418 C428 0.950 . S
H419 C430 0.950 . S
H420 C432 0.950 . S
H421 C433 0.950 . S
C422 H414 0.950 . S
C422 C423 1.386 . S
C422 C424 1.391 . S
C423 C422 1.386 . S
C423 C427 1.393 . S
C424 H416 0.950 . S
C424 C422 1.391 . S
C424 C425 1.400 . S
C425 C424 1.400 . S
C425 C426 1.398 . S
C425 C431 1.491 . S
C426 H417 0.950 . S
C426 C425 1.398 . S
C426 C427 1.391 . S
C427 H415 0.950 . S
C427 C423 1.393 . S
C427 C426 1.391 . S
C428 H418 0.950 . S
C428 C429 1.386 . S
C428 C430 1.391 . S
C429 C428 1.386 . S
C429 C433 1.393 . S
C430 H419 0.950 . S
C430 C428 1.391 . S
C430 C431 1.400 . S
C431 C425 1.491 . S
C431 C430 1.400 . S
C431 C432 1.398 . S
C432 H420 0.950 . S
C432 C431 1.398 . S
C432 C433 1.391 . S
C433 H421 0.950 . S
C433 C429 1.393 . S
C433 C432 1.391 . S
H434 C442 0.950 . S
H435 C447 0.950 . S
H436 C444 0.950 . S
H437 C446 0.950 . S
H438 C448 0.950 . S
H439 C450 0.950 . S
H440 C452 0.950 . S
H441 C453 0.950 . S
C442 H434 0.950 . S
C442 C443 1.386 . S
C442 C444 1.391 . S
C443 C442 1.386 . S
C443 C447 1.393 . S
C444 H436 0.950 . S
C444 C442 1.391 . S
C444 C445 1.400 . S
C445 C444 1.400 . S
C445 C446 1.398 . S
C445 C451 1.491 . S
C446 H437 0.950 . S
C446 C445 1.398 . S
C446 C447 1.391 . S
C447 H435 0.950 . S
C447 C443 1.393 . S
C447 C446 1.391 . S
C448 H438 0.950 . S
C448 C449 1.386 . S
C448 C450 1.391 . S
C449 C448 1.386 . S
C449 C453 1.393 . S
C450 H439 0.950 . S
C450 C448 1.391 . S
C450 C451 1.400 . S
C451 C445 1.491 . S
C451 C450 1.400 . S
C451 C452 1.398 . S
C452 H440 0.950 . S
C452 C451 1.398 . S
C452 C453 1.391 . S
C453 H441 0.950 . S
C453 C449 1.393 . S
C453 C452 1.391 . S
H454 C462 0.950 . S
H455 C467 0.950 . S
H456 C464 0.950 . S
H457 C466 0.950 . S
H458 C468 0.950 . S
H459 C470 0.950 . S
H460 C472 0.950 . S
H461 C473 0.950 . S
C462 H454 0.950 . S
C462 C463 1.386 . S
C462 C464 1.391 . S
C463 C462 1.386 . S
C463 C467 1.393 . S
C464 H456 0.950 . S
C464 C462 1.391 . S
C464 C465 1.400 . S
C465 C464 1.400 . S
C465 C466 1.398 . S
C465 C471 1.491 . S
C466 H457 0.950 . S
C466 C465 1.398 . S
C466 C467 1.391 . S
C467 H455 0.950 . S
C467 C463 1.393 . S
C467 C466 1.391 . S
C468 H458 0.950 . S
C468 C469 1.386 . S
C468 C470 1.391 . S
C469 C468 1.386 . S
C469 C473 1.393 . S
C470 H459 0.950 . S
C470 C468 1.391 . S
C470 C471 1.400 . S
C471 C465 1.491 . S
C471 C470 1.400 . S
C471 C472 1.398 . S
C472 H460 0.950 . S
C472 C471 1.398 . S
C472 C473 1.391 . S
C473 H461 0.950 . S
C473 C469 1.393 . S
C473 C472 1.391 . S
H474 C482 0.950 . S
H475 C487 0.950 . S
H476 C484 0.950 . S
H477 C486 0.950 . S
H478 C488 0.950 . S
H479 C490 0.950 . S
H480 C492 0.950 . S
H481 C493 0.950 . S
C482 H474 0.950 . S
C482 C483 1.386 . S
C482 C484 1.391 . S
C483 C482 1.386 . S
C483 C487 1.393 . S
C484 H476 0.950 . S
C484 C482 1.391 . S
C484 C485 1.400 . S
C485 C484 1.400 . S
C485 C486 1.398 . S
C485 C491 1.491 . S
C486 H477 0.950 . S
C486 C485 1.398 . S
C486 C487 1.391 . S
C487 H475 0.950 . S
C487 C483 1.393 . S
C487 C486 1.391 . S
C488 H478 0.950 . S
C488 C489 1.386 . S
C488 C490 1.391 . S
C489 C488 1.386 . S
C489 C493 1.393 . S
C490 H479 0.950 . S
C490 C488 1.391 . S
C490 C491 1.400 . S
C491 C485 1.491 . S
C491 C490 1.400 . S
C491 C492 1.398 . S
C492 H480 0.950 . S
C492 C491 1.398 . S
C492 C493 1.391 . S
C493 H481 0.950 . S
C493 C489 1.393 . S
C493 C492 1.391 . S
H494 C502 0.950 . S
H495 C507 0.950 . S
H496 C504 0.950 . S
H497 C506 0.950 . S
H498 C508 0.950 . S
H499 C510 0.950 . S
H500 C512 0.950 . S
H501 C513 0.950 . S
C502 H494 0.950 . S
C502 C503 1.386 . S
C502 C504 1.391 . S
C503 C502 1.386 . S
C503 C507 1.393 . S
C504 H496 0.950 . S
C504 C502 1.391 . S
C504 C505 1.400 . S
C505 C504 1.400 . S
C505 C506 1.398 . S
C505 C511 1.491 . S
C506 H497 0.950 . S
C506 C505 1.398 . S
C506 C507 1.391 . S
C507 H495 0.950 . S
C507 C503 1.393 . S
C507 C506 1.391 . S
C508 H498 0.950 . S
C508 C509 1.386 . S
C508 C510 1.391 . S
C509 C508 1.386 . S
C509 C513 1.393 . S
C510 H499 0.950 . S
C510 C508 1.391 . S
C510 C511 1.400 . S
C511 C505 1.491 . S
C511 C510 1.400 . S
C511 C512 1.398 . S
C512 H500 0.950 . S
C512 C511 1.398 . S
C512 C513 1.391 . S
C513 H501 0.950 . S
C513 C509 1.393 . S
C513 C512 1.391 . S
H514 C522 0.950 . S
H515 C527 0.950 . S
H516 C524 0.950 . S
H517 C526 0.950 . S
H518 C528 0.950 . S
H519 C530 0.950 . S
H520 C532 0.950 . S
H521 C533 0.950 . S
C522 H514 0.950 . S
C522 C523 1.386 . S
C522 C524 1.391 . S
C523 C522 1.386 . S
C523 C527 1.393 . S
C524 H516 0.950 . S
C524 C522 1.391 . S
C524 C525 1.400 . S
C525 C524 1.400 . S
C525 C526 1.398 . S
C525 C531 1.491 . S
C526 H517 0.950 . S
C526 C525 1.398 . S
C526 C527 1.391 . S
C527 H515 0.950 . S
C527 C523 1.393 . S
C527 C526 1.391 . S
C528 H518 0.950 . S
C528 C529 1.386 . S
C528 C530 1.391 . S
C529 C528 1.386 . S
C529 C533 1.393 . S
C530 H519 0.950 . S
C530 C528 1.391 . S
C530 C531 1.400 . S
C531 C525 1.491 . S
C531 C530 1.400 . S
C531 C532 1.398 . S
C532 H520 0.950 . S
C532 C531 1.398 . S
C532 C533 1.391 . S
C533 H521 0.950 . S
C533 C529 1.393 . S
C533 C532 1.391 . S
H534 C542 0.950 . S
H535 C547 0.950 . S
H536 C544 0.950 . S
H537 C546 0.950 . S
H538 C548 0.950 . S
H539 C550 0.950 . S
H540 C552 0.950 . S
H541 C553 0.950 . S
C542 H534 0.950 . S
C542 C543 1.386 . S
C542 C544 1.391 . S
C543 C542 1.386 . S
C543 C547 1.393 . S
C544 H536 0.950 . S
C544 C542 1.391 . S
C544 C545 1.400 . S
C545 C544 1.400 . S
C545 C546 1.398 . S
C545 C551 1.491 . S
C546 H537 0.950 . S
C546 C545 1.398 . S
C546 C547 1.391 . S
C547 H535 0.950 . S
C547 C543 1.393 . S
C547 C546 1.391 . S
C548 H538 0.950 . S
C548 C549 1.386 . S
C548 C550 1.391 . S
C549 C548 1.386 . S
C549 C553 1.393 . S
C550 H539 0.950 . S
C550 C548 1.391 . S
C550 C551 1.400 . S
C551 C545 1.491 . S
C551 C550 1.400 . S
C551 C552 1.398 . S
C552 H540 0.950 . S
C552 C551 1.398 . S
C552 C553 1.391 . S
C553 H541 0.950 . S
C553 C549 1.393 . S
C553 C552 1.391 . S
H554 C562 0.950 . S
H555 C567 0.950 . S
H556 C564 0.950 . S
H557 C566 0.950 . S
H558 C568 0.950 . S
H559 C570 0.950 . S
H560 C572 0.950 . S
H561 C573 0.950 . S
C562 H554 0.950 . S
C562 C563 1.386 . S
C562 C564 1.391 . S
C563 C562 1.386 . S
C563 C567 1.393 . S
C564 H556 0.950 . S
C564 C562 1.391 . S
C564 C565 1.400 . S
C565 C564 1.400 . S
C565 C566 1.398 . S
C565 C571 1.491 . S
C566 H557 0.950 . S
C566 C565 1.398 . S
C566 C567 1.391 . S
C567 H555 0.950 . S
C567 C563 1.393 . S
C567 C566 1.391 . S
C568 H558 0.950 . S
C568 C569 1.386 . S
C568 C570 1.391 . S
C569 C568 1.386 . S
C569 C573 1.393 . S
C570 H559 0.950 . S
C570 C568 1.391 . S
C570 C571 1.400 . S
C571 C565 1.491 . S
C571 C570 1.400 . S
C571 C572 1.398 . S
C572 H560 0.950 . S
C572 C571 1.398 . S
C572 C573 1.391 . S
C573 H561 0.950 . S
C573 C569 1.393 . S
C573 C572 1.391 . S
H574 C582 0.950 . S
H575 C587 0.950 . S
H576 C584 0.950 . S
H577 C586 0.950 . S
H578 C588 0.950 . S
H579 C590 0.950 . S
H580 C592 0.950 . S
H581 C593 0.950 . S
C582 H574 0.950 . S
C582 C583 1.386 . S
C582 C584 1.391 . S
C583 C582 1.386 . S
C583 C587 1.393 . S
C584 H576 0.950 . S
C584 C582 1.391 . S
C584 C585 1.400 . S
C585 C584 1.400 . S
C585 C586 1.398 . S
C585 C591 1.491 . S
C586 H577 0.950 . S
C586 C585 1.398 . S
C586 C587 1.391 . S
C587 H575 0.950 . S
C587 C583 1.393 . S
C587 C586 1.391 . S
C588 H578 0.950 . S
C588 C589 1.386 . S
C588 C590 1.391 . S
C589 C588 1.386 . S
C589 C593 1.393 . S
C590 H579 0.950 . S
C590 C588 1.391 . S
C590 C591 1.400 . S
C591 C585 1.491 . S
C591 C590 1.400 . S
C591 C592 1.398 . S
C592 H580 0.950 . S
C592 C591 1.398 . S
C592 C593 1.391 . S
C593 H581 0.950 . S
C593 C589 1.393 . S
C593 C592 1.391 . S
H594 C602 0.950 . S
H595 C607 0.950 . S
H596 C604 0.950 . S
H597 C606 0.950 . S
H598 C608 0.950 . S
H599 C610 0.950 . S
H600 C612 0.950 . S
H601 C613 0.950 . S
C602 H594 0.950 . S
C602 C603 1.386 . S
C602 C604 1.391 . S
C603 C602 1.386 . S
C603 C607 1.393 . S
C604 H596 0.950 . S
C604 C602 1.391 . S
C604 C605 1.400 . S
C605 C604 1.400 . S
C605 C606 1.398 . S
C605 C611 1.491 . S
C606 H597 0.950 . S
C606 C605 1.398 . S
C606 C607 1.391 . S
C607 H595 0.950 . S
C607 C603 1.393 . S
C607 C606 1.391 . S
C608 H598 0.950 . S
C608 C609 1.412 . S
C608 C610 1.391 . S
C609 C608 1.412 . S
C609 C613 1.421 . S
C610 H599 0.950 . S
C610 C608 1.391 . S
C610 C611 1.400 . S
C611 C605 1.491 . S
C611 C610 1.400 . S
C611 C612 1.398 . S
C612 H600 0.950 . S
C612 C611 1.398 . S
C612 C613 1.391 . S
C613 H601 0.950 . S
C613 C609 1.421 . S
C613 C612 1.391 . S
H614 C622 0.950 . S
H615 C627 0.950 . S
H616 C624 0.950 . S
H617 C626 0.950 . S
H618 C628 0.950 . S
H619 C630 0.950 . S
H620 C632 0.950 . S
H621 C633 0.950 . S
C622 H614 0.950 . S
C622 C623 1.386 . S
C622 C624 1.391 . S
C623 C622 1.386 . S
C623 C627 1.393 1_545 S
C624 H616 0.950 . S
C624 C622 1.391 . S
C624 C625 1.400 . S
C625 C624 1.400 . S
C625 C626 1.398 1_545 S
C625 C631 1.491 . S
C626 H617 0.950 . S
C626 C625 1.398 1_565 S
C626 C627 1.391 . S
C627 H615 0.950 . S
C627 C623 1.393 1_565 S
C627 C626 1.391 . S
C628 H618 0.950 . S
C628 C629 1.386 1_565 S
C628 C630 1.391 . S
C629 C628 1.386 1_545 S
C629 C633 1.393 . S
C630 H619 0.950 . S
C630 C628 1.391 . S
C630 C631 1.400 1_565 S
C631 C625 1.491 . S
C631 C630 1.400 1_545 S
C631 C632 1.398 . S
C632 H620 0.950 . S
C632 C631 1.398 . S
C632 C633 1.391 . S
C633 H621 0.950 . S
C633 C629 1.393 . S
C633 C632 1.391 . S
H634 C642 0.950 . S
H635 C647 0.950 . S
H636 C644 0.950 . S
H637 C646 0.950 . S
H638 C648 0.950 . S
H639 C650 0.950 . S
H640 C652 0.950 . S
H641 C653 0.950 . S
C642 H634 0.950 . S
C642 C643 1.386 . S
C642 C644 1.391 . S
C643 C642 1.386 . S
C643 C647 1.393 . S
C644 H636 0.950 . S
C644 C642 1.391 . S
C644 C645 1.400 . S
C645 C644 1.400 . S
C645 C646 1.398 . S
C645 C651 1.491 . S
C646 H637 0.950 . S
C646 C645 1.398 . S
C646 C647 1.391 . S
C647 H635 0.950 . S
C647 C643 1.393 . S
C647 C646 1.391 . S
C648 H638 0.950 . S
C648 C649 1.386 . S
C648 C650 1.391 . S
C649 C648 1.386 . S
C649 C653 1.393 . S
C650 H639 0.950 . S
C650 C648 1.391 . S
C650 C651 1.400 . S
C651 C645 1.491 . S
C651 C650 1.400 . S
C651 C652 1.398 . S
C652 H640 0.950 . S
C652 C651 1.398 . S
C652 C653 1.391 . S
C653 H641 0.950 . S
C653 C649 1.393 . S
C653 C652 1.391 . S
H654 C662 0.942 . S
H655 C667 0.950 . S
H656 C664 0.950 . S
H657 C666 0.950 . S
H658 C668 0.950 . S
H659 C670 0.950 . S
H660 C672 0.950 . S
H661 C673 0.950 . S
C662 H654 0.942 . S
C662 C663 1.392 1_565 S
C662 C664 1.393 . S
C663 C662 1.392 1_545 S
C663 C667 1.393 . S
C664 H656 0.950 . S
C664 C662 1.393 . S
C664 C665 1.400 1_565 S
C665 C664 1.400 1_545 S
C665 C666 1.398 . S
C665 C671 1.491 . S
C666 H657 0.950 . S
C666 C665 1.398 . S
C666 C667 1.391 . S
C667 H655 0.950 . S
C667 C663 1.393 . S
C667 C666 1.391 . S
C668 H658 0.950 . S
C668 C669 1.386 1_545 S
C668 C670 1.391 . S
C669 C668 1.386 1_565 S
C669 C673 1.393 . S
C670 H659 0.950 . S
C670 C668 1.391 . S
C670 C671 1.400 . S
C671 C665 1.491 . S
C671 C670 1.400 . S
C671 C672 1.398 1_545 S
C672 H660 0.950 . S
C672 C671 1.398 1_565 S
C672 C673 1.391 . S
C673 H661 0.950 . S
C673 C669 1.393 . S
C673 C672 1.391 . S
H674 C682 0.950 . S
H675 C687 0.950 . S
H676 C684 0.950 . S
H677 C686 0.950 . S
H678 C688 0.950 . S
H679 C690 0.950 . S
H680 C692 0.950 . S
H681 C693 0.950 . S
C682 H674 0.950 . S
C682 C683 1.386 . S
C682 C684 1.391 . S
C683 C682 1.386 . S
C683 C687 1.393 . S
C684 H676 0.950 . S
C684 C682 1.391 . S
C684 C685 1.400 . S
C685 C684 1.400 . S
C685 C686 1.398 . S
C685 C691 1.491 . S
C686 H677 0.950 . S
C686 C685 1.398 . S
C686 C687 1.391 . S
C687 H675 0.950 . S
C687 C683 1.393 . S
C687 C686 1.391 . S
C688 H678 0.950 . S
C688 C689 1.386 . S
C688 C690 1.391 . S
C689 C688 1.386 . S
C689 C693 1.393 . S
C690 H679 0.950 . S
C690 C688 1.391 . S
C690 C691 1.400 . S
C691 C685 1.491 . S
C691 C690 1.400 . S
C691 C692 1.398 . S
C692 H680 0.950 . S
C692 C691 1.398 . S
C692 C693 1.391 . S
C693 H681 0.950 . S
C693 C689 1.393 . S
C693 C692 1.391 . S
H694 C702 0.950 . S
H695 C707 0.950 . S
H696 C704 0.950 . S
H697 C706 0.950 . S
H698 C708 0.966 . S
H699 C710 0.950 . S
H700 C712 0.950 . S
H701 C713 0.950 . S
C702 H694 0.950 . S
C702 C703 1.386 . S
C702 C704 1.391 . S
C703 C702 1.386 . S
C703 C707 1.393 . S
C704 H696 0.950 . S
C704 C702 1.391 . S
C704 C705 1.400 . S
C705 C704 1.400 . S
C705 C706 1.398 . S
C705 C711 1.491 . S
C706 H697 0.950 . S
C706 C705 1.398 . S
C706 C707 1.391 . S
C707 H695 0.950 . S
C707 C703 1.393 . S
C707 C706 1.391 . S
C708 H698 0.966 . S
C708 C709 1.379 . S
C708 C710 1.389 1_655 S
C709 C708 1.379 . S
C709 C713 1.385 1_655 S
C710 H699 0.950 . S
C710 C708 1.389 1_455 S
C710 C711 1.400 . S
C711 C705 1.491 . S
C711 C710 1.400 . S
C711 C712 1.398 . S
C712 H700 0.950 . S
C712 C711 1.398 . S
C712 C713 1.391 . S
C713 H701 0.950 . S
C713 C709 1.385 1_455 S
C713 C712 1.391 . S
C363 C7 0.687 . S
C369 C331 0.671 . S
C383 C51 1.926 . S
C389 C258 1.888 . S
C403 C87 1.230 . S
C409 C297 1.236 . S
C423 C16 0.369 . S
C429 C336 0.312 . S
C449 C253 2.002 . S
C443 C42 2.061 . S
C469 C292 1.340 . S
C463 C96 1.330 . S
C483 C47 1.204 . S
C489 C180 1.204 . S
C503 C91 3.133 . S
C509 C214 3.072 . S
C523 C2 2.097 . S
C529 C136 2.043 . S
C549 C175 1.325 . S
C543 C56 1.302 . S
C569 C219 2.949 . S
C563 C82 2.983 . S
C583 C11 1.918 . S
C589 C141 1.877 . S
C609 C199 1.721 1_554 S
C603 C19 1.706 . S
C623 C50 1.330 . S
C629 C121 1.383 . S
C643 C99 1.453 . S
C649 C160 1.515 . S
C669 C277 1.491 . S
C663 C59 1.461 . S
C689 C316 1.130 1_556 S
C683 C90 1.106 . S
C703 C10 1.334 . S
C709 C238 1.374 . S
