# Generated by pormake.
# Topology eea, (3,6)-cn, num edge types: 1
# Building blocks:
#     Node 0, Type 0, BuildingBlock: BETDAH_clean_linker_0, # of connection points: 3
#     Node 1, Type 0, BuildingBlock: BETDAH_clean_linker_0, # of connection points: 3
#     Node 2, Type 0, BuildingBlock: BETDAH_clean_linker_0, # of connection points: 3
#     Node 3, Type 0, BuildingBlock: BETDAH_clean_linker_0, # of connection points: 3
#     Node 4, Type 0, BuildingBlock: BETDAH_clean_linker_0, # of connection points: 3
#     Node 5, Type 0, BuildingBlock: BETDAH_clean_linker_0, # of connection points: 3
#     Node 6, Type 0, BuildingBlock: BETDAH_clean_linker_0, # of connection points: 3
#     Node 7, Type 0, BuildingBlock: BETDAH_clean_linker_0, # of connection points: 3
#     Node 8, Type 0, BuildingBlock: BETDAH_clean_linker_0, # of connection points: 3
#     Node 9, Type 0, BuildingBlock: BETDAH_clean_linker_0, # of connection points: 3
#     Node 10, Type 0, BuildingBlock: BETDAH_clean_linker_0, # of connection points: 3
#     Node 11, Type 0, BuildingBlock: BETDAH_clean_linker_0, # of connection points: 3
#     Node 12, Type 0, BuildingBlock: BETDAH_clean_linker_0, # of connection points: 3
#     Node 13, Type 0, BuildingBlock: BETDAH_clean_linker_0, # of connection points: 3
#     Node 14, Type 0, BuildingBlock: BETDAH_clean_linker_0, # of connection points: 3
#     Node 15, Type 0, BuildingBlock: BETDAH_clean_linker_0, # of connection points: 3
#     Node 16, Type 0, BuildingBlock: BETDAH_clean_linker_0, # of connection points: 3
#     Node 17, Type 0, BuildingBlock: BETDAH_clean_linker_0, # of connection points: 3
#     Node 18, Type 1, BuildingBlock: NUHQIS_clean_sbu_0, # of connection points: 6
#     Node 19, Type 1, BuildingBlock: NUHQIS_clean_sbu_0, # of connection points: 6
#     Node 20, Type 1, BuildingBlock: NUHQIS_clean_sbu_0, # of connection points: 6
#     Node 21, Type 1, BuildingBlock: NUHQIS_clean_sbu_0, # of connection points: 6
#     Node 22, Type 1, BuildingBlock: NUHQIS_clean_sbu_0, # of connection points: 6
#     Node 23, Type 1, BuildingBlock: NUHQIS_clean_sbu_0, # of connection points: 6
#     Node 24, Type 1, BuildingBlock: NUHQIS_clean_sbu_0, # of connection points: 6
#     Node 25, Type 1, BuildingBlock: NUHQIS_clean_sbu_0, # of connection points: 6
#     Node 26, Type 1, BuildingBlock: NUHQIS_clean_sbu_0, # of connection points: 6
#     Edge 27, Type (0, 1), BuildingBlock: UVAHIK_clean_linker_0, # of connection points: 2
#     Edge 28, Type (0, 1), BuildingBlock: UVAHIK_clean_linker_0, # of connection points: 2
#     Edge 29, Type (0, 1), BuildingBlock: UVAHIK_clean_linker_0, # of connection points: 2
#     Edge 30, Type (0, 1), BuildingBlock: UVAHIK_clean_linker_0, # of connection points: 2
#     Edge 31, Type (0, 1), BuildingBlock: UVAHIK_clean_linker_0, # of connection points: 2
#     Edge 32, Type (0, 1), BuildingBlock: UVAHIK_clean_linker_0, # of connection points: 2
#     Edge 33, Type (0, 1), BuildingBlock: UVAHIK_clean_linker_0, # of connection points: 2
#     Edge 34, Type (0, 1), BuildingBlock: UVAHIK_clean_linker_0, # of connection points: 2
#     Edge 35, Type (0, 1), BuildingBlock: UVAHIK_clean_linker_0, # of connection points: 2
#     Edge 36, Type (0, 1), BuildingBlock: UVAHIK_clean_linker_0, # of connection points: 2
#     Edge 37, Type (0, 1), BuildingBlock: UVAHIK_clean_linker_0, # of connection points: 2
#     Edge 38, Type (0, 1), BuildingBlock: UVAHIK_clean_linker_0, # of connection points: 2
#     Edge 39, Type (0, 1), BuildingBlock: UVAHIK_clean_linker_0, # of connection points: 2
#     Edge 40, Type (0, 1), BuildingBlock: UVAHIK_clean_linker_0, # of connection points: 2
#     Edge 41, Type (0, 1), BuildingBlock: UVAHIK_clean_linker_0, # of connection points: 2
#     Edge 42, Type (0, 1), BuildingBlock: UVAHIK_clean_linker_0, # of connection points: 2
#     Edge 43, Type (0, 1), BuildingBlock: UVAHIK_clean_linker_0, # of connection points: 2
#     Edge 44, Type (0, 1), BuildingBlock: UVAHIK_clean_linker_0, # of connection points: 2
#     Edge 45, Type (0, 1), BuildingBlock: UVAHIK_clean_linker_0, # of connection points: 2
#     Edge 46, Type (0, 1), BuildingBlock: UVAHIK_clean_linker_0, # of connection points: 2
#     Edge 47, Type (0, 1), BuildingBlock: UVAHIK_clean_linker_0, # of connection points: 2
#     Edge 48, Type (0, 1), BuildingBlock: UVAHIK_clean_linker_0, # of connection points: 2
#     Edge 49, Type (0, 1), BuildingBlock: UVAHIK_clean_linker_0, # of connection points: 2
#     Edge 50, Type (0, 1), BuildingBlock: UVAHIK_clean_linker_0, # of connection points: 2
#     Edge 51, Type (0, 1), BuildingBlock: UVAHIK_clean_linker_0, # of connection points: 2
#     Edge 52, Type (0, 1), BuildingBlock: UVAHIK_clean_linker_0, # of connection points: 2
#     Edge 53, Type (0, 1), BuildingBlock: UVAHIK_clean_linker_0, # of connection points: 2
#     Edge 54, Type (0, 1), BuildingBlock: UVAHIK_clean_linker_0, # of connection points: 2
#     Edge 55, Type (0, 1), BuildingBlock: UVAHIK_clean_linker_0, # of connection points: 2
#     Edge 56, Type (0, 1), BuildingBlock: UVAHIK_clean_linker_0, # of connection points: 2
#     Edge 57, Type (0, 1), BuildingBlock: UVAHIK_clean_linker_0, # of connection points: 2
#     Edge 58, Type (0, 1), BuildingBlock: UVAHIK_clean_linker_0, # of connection points: 2
#     Edge 59, Type (0, 1), BuildingBlock: UVAHIK_clean_linker_0, # of connection points: 2
#     Edge 60, Type (0, 1), BuildingBlock: UVAHIK_clean_linker_0, # of connection points: 2
#     Edge 61, Type (0, 1), BuildingBlock: UVAHIK_clean_linker_0, # of connection points: 2
#     Edge 62, Type (0, 1), BuildingBlock: UVAHIK_clean_linker_0, # of connection points: 2
#     Edge 63, Type (0, 1), BuildingBlock: UVAHIK_clean_linker_0, # of connection points: 2
#     Edge 64, Type (0, 1), BuildingBlock: UVAHIK_clean_linker_0, # of connection points: 2
#     Edge 65, Type (0, 1), BuildingBlock: UVAHIK_clean_linker_0, # of connection points: 2
#     Edge 66, Type (0, 1), BuildingBlock: UVAHIK_clean_linker_0, # of connection points: 2
#     Edge 67, Type (0, 1), BuildingBlock: UVAHIK_clean_linker_0, # of connection points: 2
#     Edge 68, Type (0, 1), BuildingBlock: UVAHIK_clean_linker_0, # of connection points: 2
#     Edge 69, Type (0, 1), BuildingBlock: UVAHIK_clean_linker_0, # of connection points: 2
#     Edge 70, Type (0, 1), BuildingBlock: UVAHIK_clean_linker_0, # of connection points: 2
#     Edge 71, Type (0, 1), BuildingBlock: UVAHIK_clean_linker_0, # of connection points: 2
#     Edge 72, Type (0, 1), BuildingBlock: UVAHIK_clean_linker_0, # of connection points: 2
#     Edge 73, Type (0, 1), BuildingBlock: UVAHIK_clean_linker_0, # of connection points: 2
#     Edge 74, Type (0, 1), BuildingBlock: UVAHIK_clean_linker_0, # of connection points: 2
#     Edge 75, Type (0, 1), BuildingBlock: UVAHIK_clean_linker_0, # of connection points: 2
#     Edge 76, Type (0, 1), BuildingBlock: UVAHIK_clean_linker_0, # of connection points: 2
#     Edge 77, Type (0, 1), BuildingBlock: UVAHIK_clean_linker_0, # of connection points: 2
#     Edge 78, Type (0, 1), BuildingBlock: UVAHIK_clean_linker_0, # of connection points: 2
#     Edge 79, Type (0, 1), BuildingBlock: UVAHIK_clean_linker_0, # of connection points: 2
#     Edge 80, Type (0, 1), BuildingBlock: UVAHIK_clean_linker_0, # of connection points: 2
# Relax obj value: 0.056
# Max RMSD: 0.194
# Mean RMSD: 0.136
data_MOF--net-eea--node1-NUHQIS_clean_sbu_0--node2-BETDAH_clean_linker_0--edge1-UVAHIK_clean_linker_0
_symmetry_space_group_name_H-M    P1
_symmetry_Int_Tables_number       1
_symmetry_cell_setting            triclinic
loop_
_symmetry_equiv_pos_as_xyz
'x, y, z'
_cell_length_a     70.928289
_cell_length_b     71.274997
_cell_length_c     85.946254
_cell_angle_alpha  93.410344
_cell_angle_beta   93.52798
_cell_angle_gamma 119.80159
loop_
_atom_site_label
_atom_site_type_symbol
_atom_site_fract_x
_atom_site_fract_y
_atom_site_fract_z
_atom_type_partial_charge
H0 H 0.27387 0.10415 0.42615 0.0
H1 H 0.2927 0.17022 0.41889 0.0
H2 H 0.26853 0.12147 0.37961 0.0
C3 C 0.27561 0.11616 0.41833 0.0
C4 C 0.26976 0.10989 0.40216 0.0
C5 C 0.284 0.13787 0.42452 0.0
C6 C 0.28604 0.15337 0.41436 0.0
C7 C 0.28071 0.14735 0.39815 0.0
C8 C 0.27281 0.12581 0.39214 0.0
N9 N 0.28432 0.16296 0.38757 0.0
C10 C 0.27455 0.17564 0.38832 0.0
H11 H 0.93176 0.17892 0.42987 0.0
H12 H 0.87216 0.11753 0.41816 0.0
H13 H 0.91902 0.14291 0.38478 0.0
C14 C 0.9212 0.16481 0.42164 0.0
C15 C 0.92778 0.1631 0.40677 0.0
C16 C 0.9011 0.14849 0.42593 0.0
C17 C 0.8878 0.13007 0.41517 0.0
C18 C 0.89435 0.12814 0.40033 0.0
C19 C 0.91409 0.14473 0.39621 0.0
N20 N 0.88149 0.10988 0.38915 0.0
C21 C 0.86439 0.09019 0.39257 0.0
H22 H 0.85765 0.76951 0.44494 0.0
H23 H 0.90529 0.75104 0.43467 0.0
H24 H 0.87409 0.76708 0.39775 0.0
C25 C 0.8673 0.76698 0.43666 0.0
C26 C 0.86441 0.76976 0.42079 0.0
C27 C 0.88186 0.76006 0.44183 0.0
C28 C 0.89425 0.75669 0.43098 0.0
C29 C 0.89169 0.75966 0.41516 0.0
C30 C 0.87665 0.76589 0.41013 0.0
N31 N 0.90183 0.75358 0.40381 0.0
C32 C 0.92414 0.76517 0.40257 0.0
H33 H 0.07739 0.2391 0.58084 0.0
H34 H 0.13731 0.23959 0.59398 0.0
H35 H 0.08837 0.22098 0.62593 0.0
C36 C 0.08759 0.23643 0.58927 0.0
C37 C 0.07999 0.22915 0.60371 0.0
C38 C 0.10834 0.24046 0.58567 0.0
C39 C 0.12145 0.23679 0.59667 0.0
C40 C 0.114 0.22951 0.61113 0.0
C41 C 0.09356 0.22603 0.61456 0.0
N42 N 0.1265 0.22573 0.62275 0.0
C43 C 0.14575 0.22555 0.62092 0.0
H44 H 0.73977 0.83462 0.60612 0.0
H45 H 0.73881 0.89376 0.61751 0.0
H46 H 0.76233 0.86797 0.65268 0.0
C47 C 0.74287 0.84797 0.61458 0.0
C48 C 0.75158 0.84913 0.62998 0.0
C49 C 0.73832 0.86404 0.60993 0.0
C50 C 0.74247 0.88143 0.62093 0.0
C51 C 0.75079 0.8825 0.63645 0.0
C52 C 0.7553 0.86646 0.6408 0.0
N53 N 0.75476 0.89928 0.64816 0.0
C54 C 0.75505 0.9184 0.64543 0.0
H55 H 0.16197 0.90685 0.58734 0.0
H56 H 0.11292 0.83922 0.58436 0.0
H57 H 0.12887 0.87965 0.62769 0.0
C58 C 0.15002 0.89306 0.59275 0.0
C59 C 0.14727 0.89572 0.60865 0.0
C60 C 0.13759 0.87285 0.58379 0.0
C61 C 0.12214 0.85515 0.5909 0.0
C62 C 0.11858 0.85765 0.60653 0.0
C63 C 0.13099 0.87801 0.61541 0.0
N64 N 0.10398 0.83886 0.61339 0.0
C65 C 0.08803 0.83776 0.6225 0.0
H66 H 0.9356 0.44008 0.75921 0.0
H67 H 0.96478 0.5093 0.75799 0.0
H68 H 0.94261 0.46725 0.71506 0.0
C69 C 0.94061 0.45403 0.75263 0.0
C70 C 0.93761 0.45094 0.73616 0.0
C71 C 0.95051 0.475 0.7607 0.0
C72 C 0.95685 0.49297 0.75206 0.0
C73 C 0.95404 0.49005 0.73564 0.0
C74 C 0.94467 0.46918 0.72776 0.0
N75 N 0.96171 0.50815 0.7269 0.0
C76 C 0.95098 0.51988 0.72581 0.0
H77 H 0.5932 0.51014 0.75878 0.0
H78 H 0.53684 0.4461 0.74777 0.0
H79 H 0.58552 0.47177 0.71573 0.0
C80 C 0.58389 0.49536 0.75089 0.0
C81 C 0.59175 0.49333 0.73661 0.0
C82 C 0.56415 0.47833 0.75513 0.0
C83 C 0.55217 0.45917 0.74477 0.0
C84 C 0.5599 0.45704 0.73048 0.0
C85 C 0.57957 0.47399 0.72661 0.0
N86 N 0.54859 0.43818 0.71958 0.0
C87 C 0.52892 0.41973 0.72139 0.0
H88 H 0.52299 0.1039 0.77969 0.0
H89 H 0.56979 0.08344 0.77186 0.0
H90 H 0.54319 0.10205 0.73369 0.0
C91 C 0.53277 0.10073 0.77191 0.0
C92 C 0.53121 0.10388 0.75598 0.0
C93 C 0.54634 0.09305 0.77786 0.0
C94 C 0.55973 0.09001 0.76777 0.0
C95 C 0.55906 0.09393 0.75199 0.0
C96 C 0.54461 0.10052 0.74612 0.0
N97 N 0.56984 0.0875 0.74141 0.0
C98 C 0.59157 0.10072 0.73887 0.0
H99 H 0.74509 0.56966 0.91548 0.0
H100 H 0.80796 0.5771 0.92976 0.0
H101 H 0.7604 0.56023 0.9626 0.0
C102 C 0.7563 0.56918 0.92438 0.0
C103 C 0.74969 0.56368 0.93935 0.0
C104 C 0.77742 0.57445 0.92083 0.0
C105 C 0.79179 0.5734 0.93237 0.0
C106 C 0.78539 0.56798 0.94737 0.0
C107 C 0.76468 0.56363 0.9508 0.0
N108 N 0.7994 0.5673 0.95955 0.0
C109 C 0.81779 0.56558 0.95751 0.0
H110 H 0.39941 0.15668 0.93677 0.0
H111 H 0.39518 0.21412 0.94767 0.0
H112 H 0.41396 0.18646 0.9843 0.0
C113 C 0.40084 0.16928 0.94528 0.0
C114 C 0.40733 0.16957 0.96111 0.0
C115 C 0.39636 0.18523 0.9403 0.0
C116 C 0.39871 0.20181 0.95135 0.0
C117 C 0.4048 0.202 0.96726 0.0
C118 C 0.40878 0.18578 0.97205 0.0
N119 N 0.40706 0.21825 0.97878 0.0
C120 C 0.41298 0.23922 0.9756 0.0
H121 H 0.82866 0.23933 0.92322 0.0
H122 H 0.77232 0.17526 0.91651 0.0
H123 H 0.78779 0.21408 0.96062 0.0
C124 C 0.81466 0.22632 0.92777 0.0
C125 C 0.81012 0.22909 0.9432 0.0
C126 C 0.80097 0.2071 0.91801 0.0
C127 C 0.78274 0.19041 0.92382 0.0
C128 C 0.77778 0.19285 0.93903 0.0
C129 C 0.79134 0.21232 0.94872 0.0
N130 N 0.75956 0.17481 0.94422 0.0
C131 C 0.74796 0.17558 0.95643 0.0
H132 H 0.60091 0.76465 0.09472 0.0
H133 H 0.61945 0.83094 0.08851 0.0
H134 H 0.59807 0.7837 0.04844 0.0
C135 C 0.603 0.77696 0.08708 0.0
C136 C 0.59813 0.7713 0.07081 0.0
C137 C 0.61081 0.79841 0.09363 0.0
C138 C 0.61323 0.81428 0.08369 0.0
C139 C 0.60887 0.80888 0.06738 0.0
C140 C 0.6016 0.78758 0.06104 0.0
N141 N 0.6128 0.82483 0.05702 0.0
C142 C 0.60433 0.83863 0.05838 0.0
H143 H 0.25872 0.8407 0.09315 0.0
H144 H 0.20106 0.778 0.08039 0.0
H145 H 0.25007 0.80507 0.0486 0.0
C146 C 0.24906 0.82646 0.08483 0.0
C147 C 0.25682 0.8251 0.07038 0.0
C148 C 0.22892 0.80956 0.08858 0.0
C149 C 0.21665 0.79101 0.0777 0.0
C150 C 0.22432 0.78955 0.06323 0.0
C151 C 0.24423 0.80657 0.05971 0.0
N152 N 0.21261 0.77139 0.05176 0.0
C153 C 0.19338 0.75245 0.05358 0.0
H154 H 0.19076 0.43446 0.1138 0.0
H155 H 0.2416 0.42162 0.10138 0.0
H156 H 0.20567 0.43475 0.06603 0.0
C157 C 0.20059 0.43308 0.10514 0.0
C158 C 0.19665 0.43602 0.08949 0.0
C159 C 0.2166 0.42764 0.10962 0.0
C160 C 0.22933 0.42595 0.09824 0.0
C161 C 0.22548 0.42881 0.08256 0.0
C162 C 0.20902 0.43347 0.07828 0.0
N163 N 0.23611 0.42464 0.07054 0.0
C164 C 0.25865 0.43455 0.07058 0.0
H165 H 0.41392 0.90463 0.25142 0.0
H166 H 0.47726 0.91504 0.26813 0.0
H167 H 0.4284 0.89927 0.29981 0.0
C168 C 0.42507 0.90516 0.26086 0.0
C169 C 0.4181 0.90064 0.27587 0.0
C170 C 0.44652 0.91077 0.25799 0.0
C171 C 0.46082 0.91102 0.27022 0.0
C172 C 0.45403 0.90657 0.28525 0.0
C173 C 0.43301 0.9019 0.28801 0.0
N174 N 0.46801 0.90725 0.29807 0.0
C175 C 0.48631 0.90514 0.29678 0.0
H176 H 0.07257 0.49797 0.27077 0.0
H177 H 0.06659 0.55397 0.28355 0.0
H178 H 0.08298 0.52332 0.31919 0.0
C179 C 0.07348 0.50994 0.27964 0.0
C180 C 0.07868 0.50878 0.29546 0.0
C181 C 0.06899 0.52611 0.27518 0.0
C182 C 0.06975 0.54126 0.28683 0.0
C183 C 0.07456 0.54001 0.30271 0.0
C184 C 0.07873 0.52369 0.30693 0.0
N185 N 0.07561 0.5551 0.31474 0.0
C186 C 0.0812 0.57625 0.31236 0.0
H187 H 0.49231 0.57886 0.25087 0.0
H188 H 0.45233 0.51022 0.25359 0.0
H189 H 0.46167 0.55502 0.29281 0.0
C190 C 0.48177 0.56555 0.25728 0.0
C191 C 0.4784 0.56987 0.27278 0.0
C192 C 0.47213 0.54415 0.25007 0.0
C193 C 0.45918 0.52688 0.25865 0.0
C194 C 0.45522 0.53083 0.2739 0.0
C195 C 0.46459 0.55225 0.2809 0.0
N196 N 0.44369 0.51297 0.28259 0.0
C197 C 0.42428 0.50832 0.2886 0.0
Tb198 Tb 0.50346 0.00014 0.00312 0.0
Eu199 Eu 0.51443 0.02086 0.04029 0.0
C200 C 0.52296 0.98258 0.02814 0.0
C201 C 0.46971 0.97825 0.02787 0.0
C202 C 0.50228 0.99691 0.95954 0.0
C203 C 0.51861 0.99986 0.93503 0.0
C204 C 0.51312 0.99059 0.94916 0.0
C205 C 0.49713 0.01282 0.95556 0.0
C206 C 0.50243 0.02194 0.94138 0.0
C207 C 0.51317 0.01552 0.93092 0.0
C208 C 0.49637 0.98664 0.97431 0.0
O209 O 0.50291 0.03027 0.00326 0.0
O210 O 0.49308 0.03172 0.02797 0.0
O211 O 0.53969 0.04688 0.02751 0.0
O212 O 0.53824 0.02428 0.00668 0.0
C213 C 0.49406 0.03697 0.01354 0.0
O214 O 0.50371 0.03004 0.06117 0.0
O215 O 0.53626 0.03449 0.06206 0.0
O216 O 0.53081 0.00099 0.03709 0.0
O217 O 0.50831 0.97733 0.01608 0.0
O218 O 0.47255 0.98418 0.01359 0.0
O219 O 0.48582 0.98712 0.03914 0.0
C220 C 0.54812 0.04315 0.01534 0.0
O221 O 0.51235 0.98807 0.98363 0.0
O222 O 0.48284 0.98991 0.98206 0.0
C223 C 0.51759 0.02383 0.08453 0.0
C224 C 0.50845 0.00279 0.11218 0.0
C225 C 0.5176 0.02549 0.11283 0.0
C226 C 0.5221 0.0359 0.09911 0.0
C227 C 0.50873 0.00124 0.0838 0.0
C228 C 0.5042 0.99081 0.09749 0.0
C229 C 0.52131 0.03466 0.07009 0.0
H230 H 0.52671 0.99444 0.92717 0.0
H231 H 0.51725 0.97835 0.95195 0.0
H232 H 0.48894 0.0182 0.96336 0.0
H233 H 0.49825 0.03415 0.93863 0.0
H234 H 0.5208 0.03516 0.1239 0.0
H235 H 0.52882 0.05334 0.09986 0.0
H236 H 0.50514 0.99167 0.07261 0.0
H237 H 0.49743 0.97336 0.09658 0.0
Tb238 Tb 0.00587 0.48717 0.00122 0.0
Eu239 Eu 0.98711 0.48634 0.03538 0.0
C240 C 0.02671 0.52868 0.02537 0.0
C241 C 0.02704 0.47759 0.03092 0.0
C242 C 0.01536 0.49141 0.95875 0.0
C243 C 0.02491 0.49468 0.93205 0.0
C244 C 0.02956 0.49275 0.9477 0.0
C245 C 0.99688 0.49294 0.95414 0.0
C246 C 0.99219 0.49485 0.93845 0.0
C247 C 0.0059 0.4952 0.92716 0.0
C248 C 0.01918 0.48661 0.97463 0.0
O249 O 0.98633 0.45355 0.00642 0.0
O250 O 0.96152 0.4575 0.01955 0.0
O251 O 0.974 0.50267 0.02003 0.0
O252 O 0.97679 0.48953 0.99571 0.0
C253 C 0.96658 0.44535 0.01078 0.0
O254 O 0.97171 0.46883 0.05517 0.0
O255 O 0.97951 0.50227 0.05437 0.0
O256 O 0.02023 0.51616 0.03676 0.0
O257 O 0.01853 0.52085 0.01075 0.0
O258 O 0.03004 0.48659 0.01769 0.0
O259 O 0.00972 0.47273 0.03829 0.0
C260 C 0.96917 0.49922 0.00474 0.0
O261 O 0.02914 0.50299 0.98543 0.0
O262 O 0.00269 0.47008 0.97963 0.0
C263 C 0.98152 0.49077 0.07918 0.0
C264 C 0.9982 0.50088 0.11105 0.0
C265 C 0.97551 0.48988 0.10666 0.0
C266 C 0.96727 0.4849 0.09086 0.0
C267 C 0.00414 0.50156 0.08342 0.0
C268 C 0.01243 0.5066 0.09924 0.0
C269 C 0.97257 0.48576 0.06266 0.0
H270 H 0.036 0.49531 0.9237 0.0
H271 H 0.04393 0.49166 0.95108 0.0
H272 H 0.98573 0.49191 0.96255 0.0
H273 H 0.97736 0.49509 0.93505 0.0
H274 H 0.96409 0.48491 0.11544 0.0
H275 H 0.94975 0.47647 0.08776 0.0
H276 H 0.01537 0.50621 0.0745 0.0
H277 H 0.02997 0.51526 0.1022 0.0
Tb278 Tb 0.51041 0.50426 0.01573 0.0
Eu279 Eu 0.49331 0.51093 0.98079 0.0
C280 C 0.49011 0.46615 0.98892 0.0
C281 C 0.54069 0.51647 0.98802 0.0
C282 C 0.51744 0.50345 0.05911 0.0
C283 C 0.50356 0.48887 0.08345 0.0
C284 C 0.50781 0.48584 0.06811 0.0
C285 C 0.52276 0.52424 0.06575 0.0
C286 C 0.51869 0.5273 0.08114 0.0
C287 C 0.50907 0.50966 0.09016 0.0
C288 C 0.52207 0.49986 0.04299 0.0
O289 O 0.50875 0.53385 0.01878 0.0
O290 O 0.5149 0.54394 0.99402 0.0
O291 O 0.46919 0.51005 0.99709 0.0
O292 O 0.47515 0.49037 0.01497 0.0
C293 C 0.51531 0.54882 0.00903 0.0
O294 O 0.49843 0.531 0.96153 0.0
O295 O 0.46959 0.49916 0.95997 0.0
O296 O 0.48001 0.4751 0.98197 0.0
O297 O 0.50611 0.47704 1.00014 0.0
O298 O 0.5394 0.51899 0.00314 0.0
O299 O 0.52373 0.50952 0.97756 0.0
C300 C 0.46319 0.498 0.00884 0.0
O301 O 0.50591 0.48418 0.03378 0.0
O302 O 0.53318 0.51702 0.03572 0.0
C303 C 0.486 0.51109 0.93671 0.0
C304 C 0.49653 0.50408 0.90655 0.0
C305 C 0.48491 0.51512 0.90885 0.0
C306 C 0.4797 0.51859 0.92381 0.0
C307 C 0.49742 0.49992 0.9345 0.0
C308 C 0.5026 0.4964 0.91956 0.0
C309 C 0.48157 0.51587 0.95253 0.0
H310 H 0.49633 0.47501 0.09017 0.0
H311 H 0.50366 0.46969 0.0633 0.0
H312 H 0.53011 0.53817 0.0591 0.0
H313 H 0.52289 0.54347 0.08593 0.0
H314 H 0.47976 0.52103 0.89908 0.0
H315 H 0.47094 0.52731 0.92531 0.0
H316 H 0.50259 0.49418 0.94438 0.0
H317 H 0.5118 0.4881 0.91827 0.0
Tb318 Tb 0.16981 0.33418 0.33302 0.0
Eu319 Eu 0.18411 0.35619 0.37003 0.0
C320 C 0.18974 0.31624 0.35745 0.0
C321 C 0.13784 0.31435 0.35903 0.0
C322 C 0.16702 0.32917 0.28959 0.0
C323 C 0.16543 0.32484 0.2612 0.0
C324 C 0.15903 0.31591 0.27533 0.0
C325 C 0.18153 0.35154 0.28959 0.0
C326 C 0.18795 0.36052 0.27546 0.0
C327 C 0.18 0.34727 0.26107 0.0
C328 C 0.16026 0.31951 0.30436 0.0
O329 O 0.17124 0.36531 0.33337 0.0
O330 O 0.16308 0.36789 0.35844 0.0
O331 O 0.20956 0.38079 0.35637 0.0
O332 O 0.20484 0.35696 0.33518 0.0
C333 C 0.16354 0.37289 0.34397 0.0
O334 O 0.17583 0.36779 0.39114 0.0
O335 O 0.20655 0.36822 0.39156 0.0
O336 O 0.19886 0.33501 0.36607 0.0
O337 O 0.17442 0.31112 0.3459 0.0
O338 O 0.13983 0.31977 0.3446 0.0
O339 O 0.15463 0.32311 0.36978 0.0
C340 C 0.21622 0.37597 0.34358 0.0
O341 O 0.17539 0.31911 0.31349 0.0
O342 O 0.14892 0.32586 0.31222 0.0
C343 C 0.18817 0.35964 0.41434 0.0
C344 C 0.1772 0.33887 0.44208 0.0
C345 C 0.18902 0.36172 0.44272 0.0
C346 C 0.19441 0.37199 0.42896 0.0
C347 C 0.17666 0.33687 0.41362 0.0
C348 C 0.17122 0.32658 0.42735 0.0
C349 C 0.19286 0.37046 0.39985 0.0
H350 H 0.15874 0.31421 0.25036 0.0
H351 H 0.14778 0.29861 0.27511 0.0
H352 H 0.18793 0.36203 0.30052 0.0
H353 H 0.19936 0.37779 0.27583 0.0
H354 H 0.19365 0.37168 0.45383 0.0
H355 H 0.20319 0.38959 0.42972 0.0
H356 H 0.1717 0.32705 0.40242 0.0
H357 H 0.16237 0.30898 0.42643 0.0
Tb358 Tb 0.67842 0.83115 0.33456 0.0
Eu359 Eu 0.65848 0.82356 0.369 0.0
C360 C 0.69898 0.86807 0.36287 0.0
C361 C 0.69854 0.81654 0.36181 0.0
C362 C 0.68508 0.83419 0.29187 0.0
C363 C 0.69169 0.83755 0.26455 0.0
C364 C 0.69948 0.83997 0.28029 0.0
C365 C 0.66269 0.82562 0.28755 0.0
C366 C 0.65486 0.8232 0.27179 0.0
C367 C 0.66933 0.82935 0.26011 0.0
C368 C 0.69385 0.83835 0.3084 0.0
O369 O 0.65453 0.79652 0.3329 0.0
O370 O 0.63321 0.79548 0.3524 0.0
O371 O 0.64515 0.84129 0.35535 0.0
O372 O 0.64734 0.82995 0.33035 0.0
C373 C 0.63655 0.78654 0.33986 0.0
O374 O 0.64433 0.80348 0.38801 0.0
O375 O 0.64889 0.83595 0.38894 0.0
O376 O 0.69156 0.85362 0.37297 0.0
O377 O 0.69159 0.8628 0.34794 0.0
O378 O 0.70234 0.82889 0.35029 0.0
O379 O 0.68055 0.80932 0.36874 0.0
C380 C 0.63957 0.83854 0.34016 0.0
O381 O 0.69054 0.85193 0.31695 0.0
O382 O 0.69017 0.82144 0.3156 0.0
C383 C 0.65158 0.82277 0.41298 0.0
C384 C 0.66668 0.83102 0.44514 0.0
C385 C 0.64427 0.81784 0.44008 0.0
C386 C 0.63682 0.81378 0.42414 0.0
C387 C 0.67399 0.83578 0.41787 0.0
C388 C 0.68148 0.83992 0.43384 0.0
C389 C 0.64325 0.81877 0.39634 0.0
H390 H 0.7032 0.84206 0.25584 0.0
H391 H 0.71681 0.84661 0.28344 0.0
H392 H 0.65137 0.82118 0.2964 0.0
H393 H 0.63759 0.81699 0.26879 0.0
H394 H 0.63242 0.81098 0.44847 0.0
H395 H 0.61946 0.80376 0.42055 0.0
H396 H 0.68562 0.84281 0.40936 0.0
H397 H 0.69886 0.84993 0.43734 0.0
Tb398 Tb 0.17784 0.84203 0.34868 0.0
Eu399 Eu 0.16018 0.84762 0.31363 0.0
C400 C 0.1576 0.80335 0.32234 0.0
C401 C 0.20783 0.85393 0.32089 0.0
C402 C 0.18517 0.84141 0.39212 0.0
C403 C 0.1645 0.82663 0.41427 0.0
C404 C 0.16887 0.82386 0.39893 0.0
C405 C 0.19715 0.86175 0.40107 0.0
C406 C 0.1928 0.86451 0.41641 0.0
C407 C 0.17644 0.84698 0.4232 0.0
C408 C 0.19011 0.83832 0.37597 0.0
O409 O 0.17557 0.87129 0.35145 0.0
O410 O 0.18129 0.88096 0.32655 0.0
O411 O 0.13601 0.84666 0.32989 0.0
O412 O 0.14258 0.82788 0.34822 0.0
C413 C 0.1818 0.88606 0.34155 0.0
O414 O 0.16513 0.86694 0.29393 0.0
O415 O 0.13599 0.83542 0.29309 0.0
O416 O 0.14723 0.81192 0.31523 0.0
O417 O 0.17377 0.8147 0.33336 0.0
O418 O 0.20665 0.85705 0.33597 0.0
O419 O 0.19072 0.84638 0.31049 0.0
C420 C 0.13029 0.83499 0.34185 0.0
O421 O 0.17454 0.82222 0.36664 0.0
O422 O 0.20044 0.85572 0.36877 0.0
C423 C 0.15187 0.84611 0.26949 0.0
C424 C 0.16158 0.83766 0.2394 0.0
C425 C 0.15057 0.84935 0.24153 0.0
C426 C 0.14577 0.85353 0.25645 0.0
C427 C 0.16265 0.83427 0.26746 0.0
C428 C 0.16742 0.83003 0.25254 0.0
C429 C 0.14796 0.85169 0.28526 0.0
H430 H 0.15203 0.81271 0.41923 0.0
H431 H 0.15955 0.8079 0.39245 0.0
H432 H 0.20996 0.87557 0.39624 0.0
H433 H 0.20215 0.88044 0.42293 0.0
H434 H 0.14562 0.85524 0.23165 0.0
H435 H 0.1375 0.86276 0.25783 0.0
H436 H 0.16767 0.82858 0.27744 0.0
H437 H 0.17616 0.82124 0.25137 0.0
Tb438 Tb 0.83706 0.66864 0.66706 0.0
Eu439 Eu 0.84863 0.68956 0.70449 0.0
C440 C 0.85398 0.64963 0.69308 0.0
C441 C 0.80211 0.648 0.69129 0.0
C442 C 0.83527 0.66381 0.62328 0.0
C443 C 0.85074 0.66642 0.59847 0.0
C444 C 0.84603 0.65759 0.61278 0.0
C445 C 0.82925 0.67907 0.61921 0.0
C446 C 0.83382 0.6878 0.60481 0.0
C447 C 0.84465 0.6816 0.59423 0.0
C448 C 0.83102 0.65444 0.63844 0.0
O449 O 0.82329 0.68983 0.66869 0.0
O450 O 0.84245 0.71257 0.69123 0.0
O451 O 0.87995 0.70488 0.6931 0.0
O452 O 0.86535 0.70109 0.6678 0.0
C453 C 0.82972 0.70766 0.67808 0.0
O454 O 0.8416 0.70308 0.72534 0.0
O455 O 0.86994 0.69905 0.72635 0.0
O456 O 0.84651 0.65709 0.7039 0.0
O457 O 0.85599 0.65632 0.67905 0.0
O458 O 0.81032 0.64446 0.67884 0.0
O459 O 0.81269 0.66592 0.70089 0.0
C460 C 0.88201 0.71027 0.6787 0.0
O461 O 0.84826 0.65905 0.64777 0.0
O462 O 0.81613 0.65544 0.64605 0.0
C463 C 0.85087 0.69245 0.74866 0.0
C464 C 0.83902 0.6714 0.7762 0.0
C465 C 0.85119 0.69425 0.77698 0.0
C466 C 0.85706 0.70466 0.76332 0.0
C467 C 0.83864 0.66968 0.74776 0.0
C468 C 0.83279 0.65925 0.7614 0.0
C469 C 0.85728 0.7034 0.73434 0.0
H470 H 0.85948 0.66154 0.59084 0.0
H471 H 0.85097 0.64598 0.61572 0.0
H472 H 0.82103 0.68426 0.62712 0.0
H473 H 0.82864 0.69924 0.60191 0.0
H474 H 0.85598 0.70413 0.78814 0.0
H475 H 0.86643 0.72226 0.76421 0.0
H476 H 0.83374 0.65998 0.7365 0.0
H477 H 0.82367 0.64165 0.76035 0.0
Tb478 Tb 0.34146 0.1565 0.66472 0.0
Eu479 Eu 0.3227 0.15399 0.69906 0.0
C480 C 0.36178 0.19712 0.68965 0.0
C481 C 0.36308 0.14611 0.69378 0.0
C482 C 0.35156 0.16334 0.6224 0.0
C483 C 0.36405 0.17164 0.59672 0.0
C484 C 0.36787 0.16884 0.61231 0.0
C485 C 0.33168 0.16174 0.61695 0.0
C486 C 0.32779 0.16447 0.60131 0.0
C487 C 0.34373 0.16886 0.59091 0.0
C488 C 0.35494 0.1575 0.63803 0.0
O489 O 0.32227 0.12249 0.66917 0.0
O490 O 0.29738 0.12559 0.68281 0.0
O491 O 0.30884 0.17033 0.68432 0.0
O492 O 0.31209 0.1585 0.65968 0.0
C493 C 0.30258 0.11387 0.67371 0.0
O494 O 0.30677 0.13518 0.7182 0.0
O495 O 0.3154 0.16903 0.71881 0.0
O496 O 0.35557 0.1841 0.70075 0.0
O497 O 0.35353 0.18978 0.67498 0.0
O498 O 0.36582 0.15552 0.68074 0.0
O499 O 0.3458 0.14082 0.70133 0.0
C500 C 0.30404 0.1674 0.66903 0.0
O501 O 0.36496 0.17327 0.64928 0.0
O502 O 0.33831 0.14065 0.64261 0.0
C503 C 0.31592 0.15525 0.743 0.0
C504 C 0.33061 0.16182 0.77513 0.0
C505 C 0.30818 0.14944 0.76995 0.0
C506 C 0.30092 0.14622 0.75402 0.0
C507 C 0.33834 0.16751 0.74804 0.0
C508 C 0.34563 0.17084 0.76401 0.0
C509 C 0.30782 0.15177 0.72636 0.0
H510 H 0.37681 0.17543 0.58909 0.0
H511 H 0.38335 0.17024 0.61634 0.0
H512 H 0.31888 0.15756 0.62461 0.0
H513 H 0.31194 0.1621 0.59721 0.0
H514 H 0.29618 0.14251 0.77823 0.0
H515 H 0.28355 0.13673 0.75031 0.0
H516 H 0.35016 0.17451 0.73964 0.0
H517 H 0.36302 0.18025 0.76763 0.0
Tb518 Tb 0.84928 0.18743 0.68554 0.0
Eu519 Eu 0.82826 0.1871 0.65021 0.0
C520 C 0.82329 0.14457 0.66349 0.0
C521 C 0.87655 0.1941 0.65672 0.0
C522 C 0.85988 0.18664 0.72878 0.0
C523 C 0.83219 0.17111 0.74682 0.0
C524 C 0.83811 0.1728 0.73149 0.0
C525 C 0.8756 0.19862 0.74148 0.0
C526 C 0.86971 0.19711 0.75674 0.0
C527 C 0.84791 0.18342 0.75964 0.0
C528 C 0.86645 0.1902 0.71287 0.0
O529 O 0.86426 0.22028 0.67868 0.0
O530 O 0.83479 0.21752 0.6645 0.0
O531 O 0.8 0.1749 0.66494 0.0
O532 O 0.81872 0.18631 0.68973 0.0
C533 C 0.85308 0.22921 0.67359 0.0
O534 O 0.82773 0.20427 0.63021 0.0
O535 O 0.80562 0.1695 0.62919 0.0
O536 O 0.82914 0.15614 0.65155 0.0
O537 O 0.82516 0.15379 0.67762 0.0
O538 O 0.8711 0.18496 0.66981 0.0
O539 O 0.86424 0.20008 0.64891 0.0
C540 C 0.80055 0.17839 0.68023 0.0
O541 O 0.85903 0.17317 0.70267 0.0
O542 O 0.86545 0.20607 0.7069 0.0
C543 C 0.82071 0.18331 0.60585 0.0
C544 C 0.83309 0.1761 0.57641 0.0
C545 C 0.84877 0.19139 0.58823 0.0
C546 C 0.84268 0.19486 0.60281 0.0
C547 C 0.80499 0.16815 0.59409 0.0
C548 C 0.81111 0.16452 0.57953 0.0
C549 C 0.81409 0.18645 0.62132 0.0
H550 H 0.8153 0.16026 0.74861 0.0
H551 H 0.82569 0.16357 0.72178 0.0
H552 H 0.89242 0.20961 0.73957 0.0
H553 H 0.88219 0.20721 0.76621 0.0
H554 H 0.86579 0.20088 0.58622 0.0
H555 H 0.85523 0.20657 0.61169 0.0
H556 H 0.78798 0.15894 0.59621 0.0
H557 H 0.79862 0.15237 0.57084 0.0
C558 C 0.2804 0.84935 0.0512 0.0
C559 C 0.2782 0.84269 0.06639 0.0
C560 C 0.30077 0.86465 0.047 0.0
C561 C 0.35649 0.90744 0.06331 0.0
H562 H 0.37226 0.89616 0.02282 0.0
C563 C 0.44467 0.95555 0.04695 0.0
C564 C 0.44769 0.96198 0.03171 0.0
C565 C 0.42385 0.94116 0.05095 0.0
C566 C 0.36803 0.89971 0.03408 0.0
H567 H 0.29566 0.84725 0.08916 0.0
H568 H 0.33127 0.87403 0.08185 0.0
H569 H 0.3362 0.87138 0.03043 0.0
H570 H 0.43108 0.95801 0.00866 0.0
H571 H 0.39466 0.93294 0.01569 0.0
H572 H 0.38836 0.93573 0.06699 0.0
C573 C 0.31717 0.86753 0.07322 0.0
C574 C 0.34734 0.8855 0.03845 0.0
C575 C 0.29676 0.8522 0.07742 0.0
C576 C 0.42937 0.95336 0.02049 0.0
C577 C 0.40849 0.93893 0.02451 0.0
C578 C 0.37718 0.92165 0.05894 0.0
C579 C 0.31947 0.87372 0.05789 0.0
C580 C 0.34134 0.88915 0.05314 0.0
C581 C 0.40546 0.93281 0.03983 0.0
C582 C 0.38325 0.91791 0.04431 0.0
H583 H 0.26634 0.84263 0.0425 0.0
H584 H 0.30186 0.86938 0.0352 0.0
H585 H 0.35229 0.91092 0.07461 0.0
H586 H 0.45839 0.96176 0.0559 0.0
H587 H 0.42218 0.9365 0.06277 0.0
C588 C 0.15901 0.43096 0.09102 0.0
C589 C 0.17917 0.441 0.08468 0.0
C590 C 0.14247 0.43528 0.08617 0.0
C591 C 0.13277 0.47483 0.06573 0.0
H592 H 0.07265 0.42758 0.05974 0.0
C593 C 0.06422 0.4815 0.03149 0.0
C594 C 0.0441 0.47335 0.03782 0.0
C595 C 0.08047 0.4778 0.03799 0.0
C596 C 0.08933 0.44099 0.06152 0.0
H597 H 0.19776 0.4638 0.06839 0.0
H598 H 0.16879 0.47076 0.05957 0.0
H599 H 0.10146 0.42075 0.06958 0.0
H600 H 0.02532 0.45476 0.05597 0.0
H601 H 0.05375 0.44816 0.06725 0.0
H602 H 0.12063 0.49493 0.05734 0.0
C603 C 0.16582 0.4598 0.0685 0.0
C604 C 0.10587 0.43711 0.0672 0.0
C605 C 0.18238 0.45558 0.07342 0.0
C606 C 0.04061 0.46128 0.05079 0.0
C607 C 0.05685 0.45741 0.05722 0.0
C608 C 0.11626 0.47866 0.05996 0.0
C609 C 0.14561 0.44968 0.07478 0.0
C610 C 0.12785 0.45394 0.06928 0.0
C611 C 0.077 0.46571 0.05092 0.0
C612 C 0.09437 0.46176 0.05768 0.0
H613 H 0.15582 0.41944 0.09957 0.0
H614 H 0.12723 0.42736 0.0914 0.0
H615 H 0.14941 0.4883 0.06749 0.0
H616 H 0.06752 0.49088 0.02152 0.0
H617 H 0.09571 0.48419 0.03275 0.0
C618 C 0.59604 0.74371 0.05 0.0
C619 C 0.58944 0.74842 0.06412 0.0
C620 C 0.58785 0.72219 0.0438 0.0
C621 C 0.56448 0.66694 0.05505 0.0
H622 H 0.54169 0.64883 0.01128 0.0
C623 C 0.51988 0.57675 0.03031 0.0
C624 C 0.5233 0.57164 0.01509 0.0
C625 C 0.52771 0.59835 0.03612 0.0
C626 C 0.54828 0.65366 0.02347 0.0
H627 H 0.56861 0.73405 0.08254 0.0
H628 H 0.55485 0.69656 0.07191 0.0
H629 H 0.55629 0.68662 0.02167 0.0
H630 H 0.5378 0.5852 0.99407 0.0
H631 H 0.55202 0.62286 0.00434 0.0
H632 H 0.55701 0.63425 0.05688 0.0
C633 C 0.56646 0.70957 0.06573 0.0
C634 C 0.55657 0.67529 0.02941 0.0
C635 C 0.57443 0.73106 0.07184 0.0
C636 C 0.53473 0.58858 0.00581 0.0
C637 C 0.54279 0.6102 0.01168 0.0
C638 C 0.55644 0.64538 0.04908 0.0
C639 C 0.57308 0.70493 0.05166 0.0
C640 C 0.56464 0.6821 0.04527 0.0
C641 C 0.5394 0.61537 0.02692 0.0
C642 C 0.54812 0.63841 0.03323 0.0
H643 H 0.60781 0.75664 0.04386 0.0
H644 H 0.59337 0.71903 0.033 0.0
H645 H 0.57087 0.67185 0.06728 0.0
H646 H 0.51101 0.56406 0.03774 0.0
H647 H 0.52442 0.60165 0.0478 0.0
C648 C 0.84803 0.25868 0.9532 0.0
C649 C 0.82533 0.2495 0.95335 0.0
C650 C 0.8625 0.27877 0.96157 0.0
C651 C 0.8652 0.32916 0.97781 0.0
H652 H 0.92192 0.34199 0.99681 0.0
C653 C 0.92839 0.41373 0.0096 0.0
C654 C 0.95005 0.42223 0.006 0.0
C655 C 0.91264 0.39207 0.00474 0.0
C656 C 0.90619 0.33869 0.99148 0.0
H657 H 0.80007 0.25393 0.96289 0.0
H658 H 0.82544 0.289 0.9778 0.0
H659 H 0.89511 0.30487 0.98619 0.0
H660 H 0.97216 0.41453 0.99458 0.0
H661 H 0.94469 0.37679 0.98609 0.0
H662 H 0.87641 0.36306 0.983 0.0
C663 C 0.832 0.28074 0.97097 0.0
C664 C 0.89081 0.31741 0.98539 0.0
C665 C 0.81747 0.26055 0.96257 0.0
C666 C 0.95564 0.40851 0.99758 0.0
C667 C 0.93992 0.38682 0.99279 0.0
C668 C 0.88057 0.35044 0.98397 0.0
C669 C 0.8547 0.29024 0.97038 0.0
C670 C 0.87024 0.31243 0.97824 0.0
C671 C 0.9182 0.37837 0.99624 0.0
C672 C 0.90137 0.35551 0.99065 0.0
H673 H 0.85465 0.25044 0.9464 0.0
H674 H 0.87982 0.28563 0.96069 0.0
H675 H 0.84967 0.32601 0.97221 0.0
H676 H 0.9235 0.42383 0.01608 0.0
H677 H 0.89611 0.386 0.00771 0.0
C678 C 0.71665 0.54268 0.95372 0.0
C679 C 0.72736 0.55818 0.94323 0.0
C680 C 0.69622 0.53812 0.95798 0.0
C681 C 0.65793 0.55998 0.95722 0.0
H682 H 0.61771 0.50271 0.96878 0.0
C683 C 0.56665 0.52766 0.96742 0.0
C684 C 0.56192 0.52148 0.98257 0.0
C685 C 0.58674 0.53243 0.96226 0.0
C686 C 0.62885 0.51877 0.9656 0.0
H687 H 0.7244 0.58076 0.92878 0.0
H688 H 0.68823 0.57173 0.93532 0.0
H689 H 0.65224 0.5098 0.95956 0.0
H690 H 0.57435 0.51514 0.00411 0.0
H691 H 0.60921 0.52272 0.99481 0.0
H692 H 0.63376 0.56841 0.9627 0.0
C693 C 0.69599 0.56363 0.94077 0.0
C694 C 0.64875 0.52296 0.96043 0.0
C695 C 0.71668 0.56854 0.93676 0.0
C696 C 0.57759 0.51997 0.99241 0.0
C697 C 0.59745 0.52421 0.9871 0.0
C698 C 0.63777 0.55559 0.96204 0.0
C699 C 0.68552 0.54849 0.95157 0.0
C700 C 0.66376 0.54373 0.95635 0.0
C701 C 0.6022 0.53056 0.97202 0.0
C702 C 0.62321 0.53504 0.96644 0.0
H703 H 0.72401 0.53396 0.95874 0.0
H704 H 0.68904 0.52664 0.96652 0.0
H705 H 0.66908 0.57628 0.9545 0.0
H706 H 0.55492 0.52904 0.95961 0.0
H707 H 0.59009 0.53725 0.95057 0.0
C708 C 0.42614 0.14802 0.95696 0.0
C709 C 0.41361 0.15366 0.96614 0.0
C710 C 0.43326 0.13416 0.96211 0.0
C711 C 0.44602 0.11563 0.998 0.0
H712 H 0.44484 0.07071 0.96949 0.0
C713 C 0.47277 0.05578 0.0186 0.0
C714 C 0.48472 0.05045 0.00859 0.0
C715 C 0.46321 0.06775 0.01361 0.0
C716 C 0.44551 0.08334 0.97756 0.0
H717 H 0.39814 0.14851 0.98772 0.0
H718 H 0.41083 0.12446 0.99679 0.0
H719 H 0.42918 0.09223 0.96026 0.0
H720 H 0.49632 0.05384 0.98555 0.0
H721 H 0.48008 0.07505 0.977 0.0
H722 H 0.46271 0.10707 0.01523 0.0
C723 C 0.41529 0.13099 0.98567 0.0
C724 C 0.43648 0.09561 0.97227 0.0
C725 C 0.40805 0.14477 0.98048 0.0
C726 C 0.48714 0.05757 0.99355 0.0
C727 C 0.47768 0.0696 0.98859 0.0
C728 C 0.45516 0.10343 0.00327 0.0
C729 C 0.42813 0.1257 0.9766 0.0
C730 C 0.43677 0.11197 0.98241 0.0
C731 C 0.46547 0.07471 0.99851 0.0
C732 C 0.45516 0.08725 0.99308 0.0
H733 H 0.43105 0.15487 0.946 0.0
H734 H 0.44338 0.1306 0.95496 0.0
H735 H 0.44674 0.12833 0.00602 0.0
H736 H 0.47049 0.05044 0.03023 0.0
H737 H 0.45371 0.0712 0.02148 0.0
C738 C 0.71567 0.17674 0.96389 0.0
C739 C 0.73176 0.17119 0.96715 0.0
C740 C 0.6968 0.16775 0.97166 0.0
C741 C 0.67023 0.13467 0.00415 0.0
H742 H 0.61828 0.10959 0.97445 0.0
C743 C 0.58231 0.07968 0.02129 0.0
C744 C 0.56934 0.06054 0.01115 0.0
C745 C 0.60235 0.09596 0.01719 0.0
C746 C 0.63262 0.11652 0.9829 0.0
H747 H 0.74167 0.15298 0.98141 0.0
H748 H 0.70876 0.13721 0.99507 0.0
H749 H 0.65364 0.13445 0.966 0.0
H750 H 0.56723 0.04363 0.98867 0.0
H751 H 0.60201 0.07193 0.98157 0.0
H752 H 0.64911 0.11592 0.02088 0.0
C753 C 0.71068 0.14869 0.98673 0.0
C754 C 0.65288 0.13101 0.97812 0.0
C755 C 0.72953 0.15769 0.97894 0.0
C756 C 0.57679 0.05812 0.99679 0.0
C757 C 0.59667 0.07443 0.99266 0.0
C758 C 0.64988 0.12022 0.00897 0.0
C759 C 0.69371 0.15294 0.98274 0.0
C760 C 0.67201 0.13994 0.98859 0.0
C761 C 0.60968 0.09354 0.00279 0.0
C762 C 0.63094 0.11061 0.99828 0.0
H763 H 0.71706 0.18696 0.95467 0.0
H764 H 0.68418 0.17158 0.96848 0.0
H765 H 0.68464 0.14138 0.01252 0.0
H766 H 0.57705 0.08205 0.03244 0.0
H767 H 0.61199 0.11056 0.0252 0.0
C768 C 0.83789 0.54817 0.9474 0.0
C769 C 0.83645 0.56257 0.95842 0.0
C770 C 0.85443 0.54298 0.94974 0.0
C771 C 0.90675 0.55963 0.97433 0.0
H772 H 0.88887 0.49857 0.96679 0.0
C773 C 0.95091 0.52152 0.00629 0.0
C774 C 0.95514 0.50699 0.9975 0.0
C775 C 0.93801 0.52923 0.99954 0.0
C776 C 0.8942 0.51572 0.96876 0.0
H777 H 0.85089 0.58316 0.98026 0.0
H778 H 0.87953 0.57402 0.98455 0.0
H779 H 0.86385 0.51097 0.95815 0.0
H780 H 0.94899 0.48911 0.97467 0.0
H781 H 0.92605 0.50236 0.96294 0.0
H782 H 0.93674 0.56414 0.98555 0.0
C783 C 0.86842 0.56702 0.97392 0.0
C784 C 0.87991 0.52288 0.96375 0.0
C785 C 0.85198 0.57222 0.97152 0.0
C786 C 0.94605 0.50028 0.98177 0.0
C787 C 0.93288 0.50781 0.97506 0.0
C788 C 0.92093 0.55243 0.97946 0.0
C789 C 0.86966 0.55202 0.96321 0.0
C790 C 0.88582 0.54486 0.96677 0.0
C791 C 0.92881 0.52244 0.98387 0.0
C792 C 0.91464 0.53034 0.977 0.0
H793 H 0.82587 0.54045 0.93726 0.0
H794 H 0.85504 0.53159 0.94115 0.0
H795 H 0.91208 0.57674 0.97655 0.0
H796 H 0.95769 0.5271 0.01841 0.0
H797 H 0.93494 0.54028 0.00668 0.0
C798 C 0.40855 0.26813 0.96452 0.0
C799 C 0.42099 0.26174 0.97366 0.0
C800 C 0.41622 0.29022 0.96337 0.0
C801 C 0.46643 0.34457 0.97025 0.0
H802 H 0.42592 0.3655 0.97559 0.0
C803 C 0.49437 0.43354 0.99092 0.0
C804 C 0.48302 0.44309 0.98426 0.0
C805 C 0.48708 0.41151 0.98719 0.0
C806 C 0.43737 0.3599 0.97382 0.0
H807 H 0.45097 0.27269 0.98858 0.0
H808 H 0.46437 0.31128 0.98679 0.0
H809 H 0.41249 0.32653 0.97332 0.0
H810 H 0.45535 0.43706 0.96813 0.0
H811 H 0.44263 0.39854 0.96163 0.0
H812 H 0.49141 0.37799 0.9712 0.0
C813 C 0.44892 0.29947 0.98029 0.0
C814 C 0.42967 0.33756 0.9725 0.0
C815 C 0.44124 0.27744 0.98142 0.0
C816 C 0.46445 0.43021 0.97351 0.0
C817 C 0.45709 0.40812 0.96983 0.0
C818 C 0.47413 0.36689 0.9716 0.0
C819 C 0.43644 0.30615 0.97134 0.0
C820 C 0.44419 0.32967 0.97102 0.0
C821 C 0.46823 0.39851 0.97674 0.0
C822 C 0.45975 0.37481 0.9737 0.0
H823 H 0.39286 0.25609 0.95844 0.0
H824 H 0.40632 0.29484 0.95628 0.0
H825 H 0.47797 0.339 0.96882 0.0
H826 H 0.50875 0.44298 0.99923 0.0
H827 H 0.49586 0.40453 0.99286 0.0
C828 C 0.16019 0.7228 0.0388 0.0
C829 C 0.17392 0.73146 0.05285 0.0
C830 C 0.14276 0.70142 0.03712 0.0
C831 C 0.12503 0.649 0.05317 0.0
H832 H 0.07065 0.63169 0.02787 0.0
C833 C 0.05313 0.56026 0.04456 0.0
C834 C 0.04289 0.5521 0.0292 0.0
C835 C 0.06828 0.58236 0.04827 0.0
C836 C 0.08581 0.63627 0.03488 0.0
H837 H 0.18032 0.72529 0.07636 0.0
H838 H 0.14944 0.68785 0.07365 0.0
H839 H 0.09788 0.67018 0.03352 0.0
H840 H 0.04056 0.56084 0.0057 0.0
H841 H 0.06704 0.59943 0.01219 0.0
H842 H 0.11294 0.61504 0.05447 0.0
C843 C 0.15223 0.69739 0.06381 0.0
C844 C 0.10142 0.65832 0.03813 0.0
C845 C 0.16975 0.71881 0.06544 0.0
C846 C 0.04813 0.56657 0.01764 0.0
C847 C 0.06319 0.58871 0.02138 0.0
C848 C 0.10936 0.62695 0.04999 0.0
C849 C 0.13874 0.6883 0.04952 0.0
C850 C 0.12136 0.66497 0.04715 0.0
C851 C 0.07345 0.59685 0.03673 0.0
C852 C 0.08969 0.62032 0.04065 0.0
H853 H 0.16339 0.73232 0.0289 0.0
H854 H 0.13298 0.69494 0.02589 0.0
H855 H 0.14032 0.65346 0.05993 0.0
H856 H 0.04947 0.54958 0.05377 0.0
H857 H 0.07576 0.58815 0.06023 0.0
C858 C 0.29408 0.43554 0.07191 0.0
C859 C 0.28114 0.44439 0.06724 0.0
C860 C 0.31477 0.44325 0.06667 0.0
C861 C 0.34536 0.46991 0.0338 0.0
H862 H 0.39558 0.47735 0.05995 0.0
C863 C 0.43019 0.50233 0.01078 0.0
C864 C 0.44252 0.49278 0.01557 0.0
C865 C 0.41104 0.49767 0.01754 0.0
C866 C 0.38166 0.47513 0.05242 0.0
H867 H 0.27939 0.46831 0.05384 0.0
H868 H 0.31557 0.482 0.04477 0.0
H869 H 0.36156 0.46728 0.07137 0.0
H870 H 0.44413 0.47066 0.0312 0.0
H871 H 0.41071 0.46225 0.04265 0.0
H872 H 0.3652 0.47731 0.01478 0.0
C873 C 0.30985 0.46905 0.05236 0.0
C874 C 0.36216 0.4694 0.059 0.0
C875 C 0.28926 0.46139 0.05766 0.0
C876 C 0.43515 0.4784 0.02722 0.0
C877 C 0.416 0.47369 0.03391 0.0
C878 C 0.3648 0.47553 0.0272 0.0
C879 C 0.3227 0.4598 0.05655 0.0
C880 C 0.34374 0.46664 0.04976 0.0
C881 C 0.4037 0.48331 0.02922 0.0
C882 C 0.3832 0.47809 0.03639 0.0
H883 H 0.28793 0.42219 0.07915 0.0
H884 H 0.32414 0.43564 0.07001 0.0
H885 H 0.33138 0.46757 0.02627 0.0
H886 H 0.43545 0.51358 0.00192 0.0
H887 H 0.40215 0.50559 0.01375 0.0
C888 C 0.57624 0.84524 0.04644 0.0
C889 C 0.5945 0.85202 0.0573 0.0
C890 C 0.56762 0.85882 0.04412 0.0
C891 C 0.56629 0.90665 0.06158 0.0
H892 H 0.55233 0.91233 0.0184 0.0
C893 C 0.54697 0.97295 0.04429 0.0
C894 C 0.53049 0.96723 0.03196 0.0
C895 C 0.55423 0.95856 0.04785 0.0
C896 C 0.55584 0.91072 0.03053 0.0
H897 H 0.61803 0.87776 0.07453 0.0
H898 H 0.60293 0.90176 0.07054 0.0
H899 H 0.5657 0.88769 0.02407 0.0
H900 H 0.50848 0.9417 0.01386 0.0
H901 H 0.5209 0.91651 0.02021 0.0
H902 H 0.55636 0.92968 0.06803 0.0
C903 C 0.59514 0.88591 0.06389 0.0
C904 C 0.56354 0.89661 0.03378 0.0
C905 C 0.60381 0.87228 0.06615 0.0
C906 C 0.5213 0.94671 0.02337 0.0
C907 C 0.52851 0.93229 0.02696 0.0
C908 C 0.55849 0.92073 0.05833 0.0
C909 C 0.57715 0.87944 0.05265 0.0
C910 C 0.56884 0.8944 0.04934 0.0
C911 C 0.54513 0.93807 0.0392 0.0
C912 C 0.55318 0.92294 0.04275 0.0
H913 H 0.56891 0.8296 0.03949 0.0
H914 H 0.55358 0.85325 0.03556 0.0
H915 H 0.57003 0.90512 0.07369 0.0
H916 H 0.55445 0.98864 0.05115 0.0
H917 H 0.56725 0.96366 0.05721 0.0
C918 C 0.95074 0.18684 0.38711 0.0
C919 C 0.9491 0.18013 0.40227 0.0
C920 C 0.97098 0.2018 0.3825 0.0
C921 C 0.03007 0.22364 0.39223 0.0
H922 H 0.03604 0.26835 0.36602 0.0
C923 C 0.11401 0.29221 0.37886 0.0
C924 C 0.11613 0.29839 0.36353 0.0
C925 C 0.09356 0.27772 0.38338 0.0
C926 C 0.03459 0.25579 0.37319 0.0
H927 H 0.96744 0.18421 0.42457 0.0
H928 H 0.00271 0.21069 0.41664 0.0
H929 H 1.00054 0.2439 0.37469 0.0
H930 H 0.09831 0.29401 0.34091 0.0
H931 H 0.06256 0.26855 0.34882 0.0
H932 H 0.06411 0.23552 0.39076 0.0
C933 C 0.98837 0.20412 0.40823 0.0
C934 C 0.01425 0.24179 0.37817 0.0
C935 C 0.96811 0.18915 0.41284 0.0
C936 C 0.09728 0.28961 0.35281 0.0
C937 C 0.07677 0.27513 0.35736 0.0
C938 C 0.0504 0.23763 0.38727 0.0
C939 C 0.99008 0.21045 0.39294 0.0
C940 C 0.01175 0.22556 0.38778 0.0
C941 C 0.07468 0.26906 0.37272 0.0
C942 C 0.05292 0.2539 0.37771 0.0
H943 H 0.93637 0.1804 0.37874 0.0
H944 H 0.9717 0.20618 0.37061 0.0
H945 H 0.02865 0.21106 0.39937 0.0
H946 H 0.12814 0.29868 0.38747 0.0
H947 H 0.09251 0.27362 0.39535 0.0
C948 C 0.82717 0.76589 0.42091 0.0
C949 C 0.84773 0.77541 0.41515 0.0
C950 C 0.81122 0.77057 0.41523 0.0
C951 C 0.80356 0.81046 0.39391 0.0
H952 H 0.74329 0.76366 0.38664 0.0
C953 C 0.73569 0.82041 0.36136 0.0
C954 C 0.71548 0.81148 0.36764 0.0
C955 C 0.75184 0.81603 0.36709 0.0
C956 C 0.76001 0.77695 0.38875 0.0
H957 H 0.86771 0.79761 0.39904 0.0
H958 H 0.83974 0.80541 0.38889 0.0
H959 H 0.77148 0.75621 0.39683 0.0
H960 H 0.69645 0.79078 0.38485 0.0
H961 H 0.72463 0.7832 0.39482 0.0
H962 H 0.79205 0.83115 0.38572 0.0
C963 C 0.83602 0.79451 0.39795 0.0
C964 C 0.77619 0.7727 0.39462 0.0
C965 C 0.85199 0.78986 0.40365 0.0
C966 C 0.71178 0.79792 0.3797 0.0
C967 C 0.72791 0.79347 0.38538 0.0
C968 C 0.78739 0.81469 0.38799 0.0
C969 C 0.81538 0.78484 0.40361 0.0
C970 C 0.79818 0.7894 0.39731 0.0
C971 C 0.74816 0.80254 0.37919 0.0
C972 C 0.76541 0.798 0.38537 0.0
H973 H 0.82318 0.75446 0.42962 0.0
H974 H 0.79562 0.76303 0.42002 0.0
H975 H 0.82026 0.82378 0.39605 0.0
H976 H 0.73912 0.8309 0.35205 0.0
H977 H 0.76716 0.82306 0.36193 0.0
C978 C 0.26611 0.08145 0.38144 0.0
C979 C 0.26049 0.08679 0.39579 0.0
C980 C 0.2572 0.05974 0.37543 0.0
C981 C 0.23314 0.00463 0.38715 0.0
H982 H 0.20869 0.98639 0.34368 0.0
C983 C 0.18673 0.91425 0.36275 0.0
C984 C 0.18978 0.90894 0.34746 0.0
C985 C 0.19482 0.93592 0.3685 0.0
C986 C 0.21572 0.99124 0.35579 0.0
H987 H 0.24078 0.07334 0.41492 0.0
H988 H 0.22574 0.03549 0.4046 0.0
H989 H 0.22436 0.02437 0.35398 0.0
H990 H 0.20376 0.92221 0.32623 0.0
H991 H 0.21839 0.95999 0.33639 0.0
H992 H 0.22504 0.97175 0.38895 0.0
C993 C 0.23712 0.04816 0.39807 0.0
C994 C 0.22462 0.01299 0.36168 0.0
C995 C 0.24582 0.06986 0.404 0.0
C996 C 0.20099 0.92575 0.33802 0.0
C997 C 0.20929 0.94743 0.34383 0.0
C998 C 0.22446 0.98294 0.38122 0.0
C999 C 0.24268 0.0429 0.38371 0.0
C1000 C 0.23337 0.01987 0.37742 0.0
C1001 C 0.20637 0.95281 0.35917 0.0
C1002 C 0.21557 0.97593 0.36547 0.0
H1003 H 0.27763 0.09402 0.37492 0.0
H1004 H 0.26196 0.05611 0.36442 0.0
H1005 H 0.24003 0.00958 0.39928 0.0
H1006 H 0.17802 0.90167 0.37029 0.0
H1007 H 0.19188 0.93939 0.38026 0.0
C1008 C 0.49924 0.59673 0.29654 0.0
C1009 C 0.49073 0.59257 0.28066 0.0
C1010 C 0.51312 0.61806 0.30337 0.0
C1011 C 0.55531 0.66899 0.29404 0.0
H1012 H 0.54547 0.69644 0.33048 0.0
C1013 C 0.61654 0.7583 0.31706 0.0
C1014 C 0.6193 0.76454 0.3332 0.0
C1015 C 0.59993 0.73763 0.31072 0.0
C1016 C 0.54875 0.68895 0.32047 0.0
H1017 H 0.48907 0.60798 0.25995 0.0
H1018 H 0.51418 0.64502 0.27172 0.0
H1019 H 0.51768 0.65962 0.31979 0.0
H1020 H 0.60715 0.754 0.35544 0.0
H1021 H 0.57902 0.71759 0.34461 0.0
H1022 H 0.58669 0.69746 0.29501 0.0
C1023 C 0.50999 0.63166 0.27878 0.0
C1024 C 0.53268 0.66792 0.3143 0.0
C1025 C 0.49574 0.61041 0.27205 0.0
C1026 C 0.60527 0.74966 0.34292 0.0
C1027 C 0.58899 0.7288 0.33664 0.0
C1028 C 0.57158 0.68977 0.30041 0.0
C1029 C 0.51905 0.63561 0.29441 0.0
C1030 C 0.53581 0.65786 0.30099 0.0
C1031 C 0.58597 0.72247 0.32042 0.0
C1032 C 0.56854 0.70017 0.31368 0.0
H1033 H 0.49606 0.58352 0.30354 0.0
H1034 H 0.52003 0.62078 0.31544 0.0
H1035 H 0.55815 0.66138 0.28386 0.0
H1036 H 0.62696 0.76956 0.30927 0.0
H1037 H 0.59792 0.73372 0.29815 0.0
C1038 C 0.38457 0.90438 0.27156 0.0
C1039 C 0.39546 0.89488 0.27905 0.0
C1040 C 0.36361 0.89932 0.27498 0.0
C1041 C 0.31622 0.85964 0.29496 0.0
H1042 H 0.30046 0.90452 0.29479 0.0
C1043 C 0.24483 0.85785 0.32563 0.0
C1044 C 0.22903 0.85877 0.31552 0.0
C1045 C 0.26466 0.86186 0.32043 0.0
C1046 C 0.30468 0.89185 0.29479 0.0
H1047 H 0.39225 0.872 0.29574 0.0
H1048 H 0.35673 0.86445 0.30246 0.0
H1049 H 0.33602 0.91224 0.28719 0.0
H1050 H 0.22175 0.86501 0.29215 0.0
H1051 H 0.25691 0.87283 0.28327 0.0
H1052 H 0.28515 0.83974 0.30339 0.0
C1053 C 0.36398 0.87534 0.29358 0.0
C1054 C 0.32498 0.89616 0.29032 0.0
C1055 C 0.38469 0.88004 0.28994 0.0
C1056 C 0.2336 0.86411 0.30018 0.0
C1057 C 0.25367 0.86865 0.29511 0.0
C1058 C 0.29617 0.85555 0.29976 0.0
C1059 C 0.35309 0.88491 0.28618 0.0
C1060 C 0.3311 0.88013 0.29039 0.0
C1061 C 0.26926 0.86737 0.30516 0.0
C1062 C 0.29027 0.87162 0.29974 0.0
H1063 H 0.39234 0.91606 0.26324 0.0
H1064 H 0.35571 0.90677 0.26879 0.0
H1065 H 0.31996 0.84665 0.29481 0.0
H1066 H 0.24171 0.85365 0.33748 0.0
H1067 H 0.27652 0.86085 0.32837 0.0
C1068 C 0.09844 0.48825 0.29086 0.0
C1069 C 0.08507 0.49273 0.29998 0.0
C1070 C 0.10559 0.47421 0.29554 0.0
C1071 C 0.11701 0.45327 0.33051 0.0
H1072 H 0.11702 0.41016 0.30079 0.0
C1073 C 0.14283 0.39215 0.34948 0.0
C1074 C 0.1548 0.38699 0.33937 0.0
C1075 C 0.13368 0.40459 0.34479 0.0
C1076 C 0.11739 0.4223 0.30921 0.0
H1077 H 0.06816 0.48533 0.32093 0.0
H1078 H 0.081 0.46107 0.32923 0.0
H1079 H 0.10166 0.43221 0.2922 0.0
H1080 H 0.16695 0.39124 0.31652 0.0
H1081 H 0.15151 0.41338 0.30852 0.0
H1082 H 0.13315 0.44377 0.34745 0.0
C1083 C 0.08604 0.46861 0.31852 0.0
C1084 C 0.10851 0.43486 0.30428 0.0
C1085 C 0.07873 0.48253 0.31377 0.0
C1086 C 0.15771 0.39482 0.32457 0.0
C1087 C 0.14871 0.40739 0.31993 0.0
C1088 C 0.12605 0.44083 0.33541 0.0
C1089 C 0.09968 0.46445 0.30951 0.0
C1090 C 0.10831 0.45053 0.31487 0.0
C1091 C 0.13642 0.41228 0.32992 0.0
C1092 C 0.12645 0.42526 0.3248 0.0
H1093 H 0.10396 0.49611 0.28032 0.0
H1094 H 0.11631 0.47151 0.28847 0.0
H1095 H 0.11733 0.46544 0.33887 0.0
H1096 H 0.14015 0.38624 0.36092 0.0
H1097 H 0.12408 0.40781 0.35271 0.0
C1098 C 0.40059 0.50347 0.30974 0.0
C1099 C 0.40294 0.49956 0.294 0.0
C1100 C 0.38003 0.4923 0.31531 0.0
C1101 C 0.32884 0.44051 0.30682 0.0
H1102 H 0.30468 0.46575 0.33485 0.0
C1103 C 0.24147 0.38957 0.32275 0.0
C1104 C 0.23722 0.39212 0.33825 0.0
C1105 C 0.26142 0.40408 0.31762 0.0
C1106 C 0.31132 0.45841 0.32718 0.0
H1107 H 0.38611 0.48176 0.27157 0.0
H1108 H 0.35018 0.46228 0.28118 0.0
H1109 H 0.34008 0.48911 0.32534 0.0
H1110 H 0.25047 0.41228 0.36045 0.0
H1111 H 0.28575 0.43743 0.35158 0.0
H1112 H 0.30064 0.40985 0.30882 0.0
C1113 C 0.36407 0.47379 0.28929 0.0
C1114 C 0.33155 0.47181 0.3217 0.0
C1115 C 0.38454 0.48503 0.28375 0.0
C1116 C 0.25327 0.40987 0.34843 0.0
C1117 C 0.27344 0.42434 0.34332 0.0
C1118 C 0.30882 0.42715 0.31237 0.0
C1119 C 0.36167 0.47691 0.3052 0.0
C1120 C 0.34039 0.463 0.31132 0.0
C1121 C 0.27786 0.42143 0.32788 0.0
C1122 C 0.29962 0.4359 0.32248 0.0
H1123 H 0.41473 0.51453 0.31784 0.0
H1124 H 0.3787 0.49494 0.32763 0.0
H1125 H 0.33545 0.43315 0.29913 0.0
H1126 H 0.22933 0.37631 0.3145 0.0
H1127 H 0.26395 0.40164 0.30554 0.0
C1128 C 0.51895 0.90984 0.31197 0.0
C1129 C 0.50474 0.9018 0.29813 0.0
C1130 C 0.5353 0.90454 0.31444 0.0
C1131 C 0.54867 0.86239 0.30217 0.0
H1132 H 0.60399 0.90234 0.32645 0.0
C1133 C 0.61586 0.84054 0.31812 0.0
C1134 C 0.62468 0.84592 0.33394 0.0
C1135 C 0.6022 0.84798 0.31224 0.0
C1136 C 0.58858 0.89099 0.31969 0.0
H1137 H 0.49636 0.88243 0.2758 0.0
H1138 H 0.52538 0.87339 0.27988 0.0
H1139 H 0.57919 0.91511 0.31819 0.0
H1140 H 0.62605 0.86338 0.35593 0.0
H1141 H 0.60236 0.87641 0.34564 0.0
H1142 H 0.55817 0.83826 0.30376 0.0
C1143 C 0.5238 0.88358 0.28895 0.0
C1144 C 0.57434 0.89828 0.31497 0.0
C1145 C 0.50735 0.88887 0.28653 0.0
C1146 C 0.61953 0.85889 0.34371 0.0
C1147 C 0.60608 0.86651 0.33779 0.0
C1148 C 0.56303 0.85514 0.30678 0.0
C1149 C 0.53776 0.89107 0.30307 0.0
C1150 C 0.55398 0.88396 0.30646 0.0
C1151 C 0.59731 0.86118 0.322 0.0
C1152 C 0.58292 0.86926 0.31588 0.0
H1153 H 0.51694 0.91964 0.32114 0.0
H1154 H 0.54543 0.9103 0.32555 0.0
H1155 H 0.53303 0.85082 0.29579 0.0
H1156 H 0.61951 0.83057 0.31027 0.0
H1157 H 0.59572 0.84369 0.3 0.0
C1158 C 0.10863 0.61462 0.31904 0.0
C1159 C 0.08884 0.5988 0.31078 0.0
C1160 C 0.11619 0.63662 0.31785 0.0
C1161 C 0.09728 0.67452 0.3085 0.0
H1162 H 0.15915 0.71474 0.30762 0.0
C1163 C 0.1321 0.76693 0.30746 0.0
C1164 C 0.1506 0.78021 0.31818 0.0
C1165 C 0.12477 0.74476 0.30433 0.0
C1166 C 0.14184 0.70372 0.30792 0.0
H1167 H 0.06134 0.59289 0.29469 0.0
H1168 H 0.07457 0.6316 0.2925 0.0
H1169 H 0.14573 0.67579 0.30617 0.0
H1170 H 0.17622 0.78068 0.33367 0.0
H1171 H 0.16337 0.74211 0.32828 0.0
H1172 H 0.09347 0.7025 0.31057 0.0
C1173 C 0.0842 0.62709 0.3 0.0
C1174 C 0.13415 0.68142 0.30709 0.0
C1175 C 0.07666 0.60503 0.30119 0.0
C1176 C 0.16191 0.77095 0.32536 0.0
C1177 C 0.15463 0.74884 0.32219 0.0
C1178 C 0.10497 0.69684 0.30931 0.0
C1179 C 0.10404 0.64313 0.30836 0.0
C1180 C 0.11185 0.6666 0.30769 0.0
C1181 C 0.13584 0.73545 0.31178 0.0
C1182 C 0.1274 0.7117 0.30933 0.0
H1183 H 0.11817 0.60999 0.32652 0.0
H1184 H 0.13134 0.64854 0.32464 0.0
H1185 H 0.08004 0.66354 0.30915 0.0
H1186 H 0.12304 0.77356 0.30169 0.0
H1187 H 0.11037 0.73489 0.29613 0.0
C1188 C 0.82561 0.06423 0.39479 0.0
C1189 C 0.84709 0.06859 0.39433 0.0
C1190 C 0.80849 0.04277 0.39444 0.0
C1191 C 0.79602 0.98596 0.39823 0.0
H1192 H 0.74583 0.97101 0.36874 0.0
C1193 C 0.72296 0.89771 0.38431 0.0
C1194 C 0.71519 0.89104 0.36835 0.0
C1195 C 0.73806 0.91955 0.38933 0.0
C1196 C 0.75974 0.9749 0.377 0.0
H1197 H 0.86804 0.05464 0.3936 0.0
H1198 H 0.83824 0.0171 0.39281 0.0
H1199 H 0.77417 0.0089 0.37484 0.0
H1200 H 0.7174 0.90209 0.34518 0.0
H1201 H 0.74374 0.93987 0.35389 0.0
H1202 H 0.78194 0.95178 0.39983 0.0
C1203 C 0.83444 0.03006 0.39371 0.0
C1204 C 0.77586 0.99668 0.38067 0.0
C1205 C 0.85149 0.0515 0.39409 0.0
C1206 C 0.72291 0.90663 0.35756 0.0
C1207 C 0.73793 0.92838 0.36258 0.0
C1208 C 0.77985 0.96414 0.39455 0.0
C1209 C 0.81267 0.02538 0.39354 0.0
C1210 C 0.79441 0.00246 0.39111 0.0
C1211 C 0.74562 0.93514 0.37852 0.0
C1212 C 0.76176 0.95835 0.38364 0.0
H1213 H 0.82198 0.07732 0.39494 0.0
H1214 H 0.79196 0.03976 0.39452 0.0
H1215 H 0.80997 0.98989 0.40646 0.0
H1216 H 0.71733 0.88612 0.39293 0.0
H1217 H 0.74359 0.92426 0.40171 0.0
C1218 C 0.95277 0.79113 0.38771 0.0
C1219 C 0.94643 0.77597 0.39874 0.0
C1220 C 0.97345 0.79969 0.3824 0.0
C1221 C 0.02853 0.80644 0.39116 0.0
H1222 H 0.03064 0.80866 0.34628 0.0
C1223 C 0.10313 0.81669 0.36106 0.0
C1224 C 0.10953 0.82958 0.3485 0.0
C1225 C 0.08378 0.81166 0.36755 0.0
C1226 C 0.03045 0.80848 0.35886 0.0
H1227 H 0.95641 0.75795 0.41318 0.0
H1228 H 0.99269 0.7729 0.40396 0.0
H1229 H 0.99628 0.79772 0.35734 0.0
H1230 H 0.10052 0.84743 0.33301 0.0
H1231 H 0.0668 0.8388 0.34444 0.0
H1232 H 0.06267 0.81707 0.39267 0.0
C1233 C 0.9819 0.77845 0.3995 0.0
C1234 C 0.01072 0.80219 0.36522 0.0
C1235 C 0.96116 0.76985 0.40477 0.0
C1236 C 0.09606 0.83736 0.34261 0.0
C1237 C 0.07666 0.83234 0.34914 0.0
C1238 C 0.04828 0.81279 0.38481 0.0
C1239 C 0.98815 0.79318 0.38803 0.0
C1240 C 0.00945 0.80092 0.38143 0.0
C1241 C 0.07027 0.81942 0.3617 0.0
C1242 C 0.04947 0.81369 0.36855 0.0
H1243 H 0.94152 0.79593 0.38287 0.0
H1244 H 0.97783 0.81122 0.37373 0.0
H1245 H 0.02821 0.80594 0.40371 0.0
H1246 H 0.11304 0.81035 0.36592 0.0
H1247 H 0.07924 0.80137 0.37703 0.0
C1248 C 0.24529 0.18026 0.37596 0.0
C1249 C 0.26358 0.18795 0.38697 0.0
C1250 C 0.23551 0.19282 0.37352 0.0
C1251 C 0.23135 0.23915 0.39086 0.0
H1252 H 0.21723 0.24452 0.34762 0.0
C1253 C 0.21312 0.30579 0.37344 0.0
C1254 C 0.19666 0.3004 0.36116 0.0
C1255 C 0.21983 0.29102 0.37699 0.0
C1256 C 0.22075 0.24295 0.35976 0.0
H1257 H 0.286 0.21423 0.4043 0.0
H1258 H 0.26894 0.23644 0.40005 0.0
H1259 H 0.23141 0.22053 0.35339 0.0
H1260 H 0.17416 0.27508 0.34312 0.0
H1261 H 0.18578 0.24919 0.34943 0.0
H1262 H 0.22082 0.26171 0.39722 0.0
C1263 C 0.26196 0.22065 0.3934 0.0
C1264 C 0.2289 0.22921 0.36307 0.0
C1265 C 0.27177 0.20806 0.39581 0.0
C1266 C 0.18695 0.2798 0.35259 0.0
C1267 C 0.19367 0.26499 0.35617 0.0
C1268 C 0.22314 0.25287 0.38755 0.0
C1269 C 0.24391 0.2133 0.38205 0.0
C1270 C 0.23444 0.22727 0.37865 0.0
C1271 C 0.21024 0.27046 0.36839 0.0
C1272 C 0.21792 0.25507 0.37196 0.0
H1273 H 0.23881 0.16472 0.36903 0.0
H1274 H 0.22146 0.18657 0.36486 0.0
H1275 H 0.23518 0.23777 0.40298 0.0
H1276 H 0.22098 0.32151 0.38028 0.0
H1277 H 0.23286 0.29589 0.38631 0.0
C1278 C 0.63115 0.52275 0.74327 0.0
C1279 C 0.61287 0.51091 0.7321 0.0
C1280 C 0.65139 0.53789 0.7387 0.0
C1281 C 0.67784 0.56894 0.70515 0.0
H1282 H 0.72978 0.57334 0.72665 0.0
C1283 C 0.76435 0.61597 0.68373 0.0
C1284 C 0.78058 0.63108 0.6953 0.0
C1285 C 0.7437 0.60083 0.68779 0.0
C1286 C 0.7154 0.57228 0.72056 0.0
H1287 H 0.60145 0.50669 0.70743 0.0
H1288 H 0.63672 0.53212 0.6994 0.0
H1289 H 0.69407 0.54862 0.73478 0.0
H1290 H 0.7882 0.6417 0.72023 0.0
H1291 H 0.7525 0.61508 0.72727 0.0
H1292 H 0.69939 0.59231 0.69068 0.0
C1293 C 0.63549 0.53004 0.71174 0.0
C1294 C 0.69491 0.55826 0.7253 0.0
C1295 C 0.61524 0.51515 0.71634 0.0
C1296 C 0.77598 0.63038 0.71101 0.0
C1297 C 0.75559 0.61506 0.71508 0.0
C1298 C 0.69833 0.58271 0.70026 0.0
C1299 C 0.65395 0.54145 0.72282 0.0
C1300 C 0.67582 0.5565 0.71775 0.0
C1301 C 0.73916 0.60027 0.70352 0.0
C1302 C 0.71731 0.58464 0.708 0.0
H1303 H 0.63002 0.51988 0.7555 0.0
H1304 H 0.66508 0.54668 0.74764 0.0
H1305 H 0.66363 0.56835 0.69918 0.0
H1306 H 0.76744 0.61617 0.67154 0.0
H1307 H 0.73131 0.5895 0.67867 0.0
C1308 C 0.51871 0.12307 0.73776 0.0
C1309 C 0.51442 0.10901 0.74956 0.0
C1310 C 0.50267 0.12749 0.7317 0.0
C1311 C 0.45195 0.12639 0.74105 0.0
H1312 H 0.44145 0.12584 0.69619 0.0
C1313 C 0.3774 0.12982 0.71316 0.0
C1314 C 0.38038 0.14188 0.70024 0.0
C1315 C 0.39385 0.12595 0.71916 0.0
C1316 C 0.44433 0.12637 0.70877 0.0
H1317 H 0.48947 0.08806 0.76381 0.0
H1318 H 0.46187 0.09607 0.75348 0.0
H1319 H 0.47033 0.11953 0.70666 0.0
H1320 H 0.40322 0.15952 0.68364 0.0
H1321 H 0.43188 0.15319 0.69425 0.0
H1322 H 0.42616 0.13345 0.74323 0.0
C1323 C 0.47773 0.10395 0.74908 0.0
C1324 C 0.4609 0.12272 0.71476 0.0
C1325 C 0.49365 0.09943 0.75505 0.0
C1326 C 0.40023 0.15002 0.69353 0.0
C1327 C 0.41669 0.14628 0.69957 0.0
C1328 C 0.43547 0.13019 0.73508 0.0
C1329 C 0.48201 0.11803 0.73734 0.0
C1330 C 0.46484 0.12258 0.73097 0.0
C1331 C 0.41374 0.13415 0.71245 0.0
C1332 C 0.43136 0.13015 0.71884 0.0
H1333 H 0.53454 0.13088 0.73333 0.0
H1334 H 0.50655 0.13855 0.72274 0.0
H1335 H 0.45476 0.12669 0.75362 0.0
H1336 H 0.36231 0.12323 0.71859 0.0
H1337 H 0.39082 0.11628 0.72894 0.0
C1338 C 0.93632 0.42495 0.71447 0.0
C1339 C 0.92767 0.42874 0.7278 0.0
C1340 C 0.92751 0.40394 0.70697 0.0
C1341 C 0.91577 0.35692 0.70043 0.0
H1342 H 0.85354 0.31569 0.6966 0.0
C1343 C 0.88103 0.2649 0.68799 0.0
C1344 C 0.86153 0.25262 0.67801 0.0
C1345 C 0.88881 0.28681 0.69266 0.0
C1346 C 0.87093 0.32707 0.6974 0.0
H1347 H 0.90252 0.41347 0.74341 0.0
H1348 H 0.88753 0.37677 0.7306 0.0
H1349 H 0.86718 0.35333 0.70695 0.0
H1350 H 0.83502 0.2538 0.66498 0.0
H1351 H 0.84879 0.29224 0.67305 0.0
H1352 H 0.91953 0.33077 0.69077 0.0
C1353 C 0.90097 0.39007 0.72582 0.0
C1354 C 0.87878 0.34858 0.70351 0.0
C1355 C 0.90975 0.41108 0.73329 0.0
C1356 C 0.85009 0.26281 0.67269 0.0
C1357 C 0.85791 0.2848 0.67738 0.0
C1358 C 0.90793 0.33546 0.69431 0.0
C1359 C 0.90987 0.38622 0.71265 0.0
C1360 C 0.90132 0.36369 0.70527 0.0
C1361 C 0.87733 0.29702 0.68747 0.0
C1362 C 0.88545 0.3202 0.69292 0.0
H1363 H 0.95024 0.43815 0.71 0.0
H1364 H 0.93459 0.40158 0.69675 0.0
H1365 H 0.93324 0.36807 0.70175 0.0
H1366 H 0.89021 0.25756 0.69238 0.0
H1367 H 0.90362 0.29563 0.70064 0.0
C1368 C 0.15482 0.92694 0.62839 0.0
C1369 C 0.16246 0.91671 0.61814 0.0
C1370 C 0.16933 0.94744 0.63641 0.0
C1371 C 0.22849 0.98589 0.64815 0.0
H1372 H 0.21187 0.03013 0.6481 0.0
C1373 C 0.29171 0.07747 0.65967 0.0
C1374 C 0.28624 0.09072 0.66884 0.0
C1375 C 0.27616 0.0557 0.65497 0.0
C1376 C 0.21667 0.0179 0.64841 0.0
H1377 H 0.19139 0.91942 0.60889 0.0
H1378 H 0.21646 0.95504 0.6226 0.0
H1379 H 0.18527 0.99275 0.63783 0.0
H1380 H 0.26011 0.09137 0.68031 0.0
H1381 H 0.23308 0.05342 0.67213 0.0
H1382 H 0.26 0.01111 0.65843 0.0
C1383 C 0.19937 0.94736 0.62454 0.0
C1384 C 0.2014 0.99645 0.64256 0.0
C1385 C 0.18493 0.92703 0.61652 0.0
C1386 C 0.26489 0.08166 0.67323 0.0
C1387 C 0.24934 0.05992 0.66848 0.0
C1388 C 0.24375 0.00732 0.65396 0.0
C1389 C 0.19177 0.95796 0.63446 0.0
C1390 C 0.20723 0.98026 0.64212 0.0
C1391 C 0.25477 0.04668 0.65928 0.0
C1392 C 0.23813 0.02365 0.65395 0.0
H1393 H 0.13759 0.91937 0.62986 0.0
H1394 H 0.16299 0.95508 0.64409 0.0
H1395 H 0.23341 0.97374 0.64826 0.0
H1396 H 0.30797 0.08393 0.65605 0.0
H1397 H 0.28081 0.04603 0.6477 0.0
C1398 C 0.04987 0.2384 0.60318 0.0
C1399 C 0.05807 0.22492 0.60765 0.0
C1400 C 0.02967 0.23478 0.60746 0.0
C1401 C 0.97865 0.1931 0.62275 0.0
H1402 H 0.97194 0.24273 0.63427 0.0
C1403 C 0.90792 0.18713 0.65635 0.0
C1404 C 0.897 0.19759 0.65052 0.0
C1405 C 0.9271 0.19027 0.6504 0.0
C1406 C 0.97352 0.22871 0.63096 0.0
H1407 H 0.05088 0.19657 0.61974 0.0
H1408 H 0.01644 0.19096 0.62778 0.0
H1409 H 0.00615 0.2485 0.62515 0.0
H1410 H 0.89782 0.21971 0.63391 0.0
H1411 H 0.93154 0.22546 0.62376 0.0
H1412 H 0.94621 0.17342 0.62909 0.0
C1413 C 0.02532 0.2041 0.62072 0.0
C1414 C 0.99311 0.23198 0.62565 0.0
C1415 C 0.04535 0.20756 0.6163 0.0
C1416 C 0.9058 0.21138 0.63867 0.0
C1417 C 0.92516 0.21477 0.63289 0.0
C1418 C 0.95921 0.18987 0.62826 0.0
C1419 C 0.01719 0.21769 0.61642 0.0
C1420 C 0.996 0.21422 0.62153 0.0
C1421 C 0.93597 0.20418 0.63865 0.0
C1422 C 0.95646 0.20764 0.63248 0.0
H1423 H 0.05923 0.25205 0.59664 0.0
H1424 H 0.02386 0.24542 0.6037 0.0
H1425 H 0.97999 0.17896 0.61938 0.0
H1426 H 0.90158 0.17636 0.66544 0.0
H1427 H 0.93517 0.18203 0.65515 0.0
C1428 C 0.76649 0.8242 0.62426 0.0
C1429 C 0.7575 0.83278 0.63472 0.0
C1430 C 0.7732 0.80983 0.62902 0.0
C1431 C 0.79482 0.79671 0.66307 0.0
H1432 H 0.77491 0.74082 0.63963 0.0
C1433 C 0.81946 0.73587 0.68477 0.0
C1434 C 0.82212 0.72259 0.67345 0.0
C1435 C 0.81111 0.74907 0.68026 0.0
C1436 C 0.78098 0.75653 0.64619 0.0
H1437 H 0.74777 0.83214 0.65826 0.0
H1438 H 0.76041 0.80782 0.6667 0.0
H1439 H 0.76104 0.76409 0.63104 0.0
H1440 H 0.819 0.71329 0.64854 0.0
H1441 H 0.80552 0.737 0.64062 0.0
H1442 H 0.81546 0.78979 0.67785 0.0
C1443 C 0.76218 0.81229 0.65482 0.0
C1444 C 0.77286 0.76974 0.6413 0.0
C1445 C 0.75508 0.82632 0.64998 0.0
C1446 C 0.81684 0.72316 0.65754 0.0
C1447 C 0.80893 0.73666 0.65302 0.0
C1448 C 0.80328 0.7837 0.66779 0.0
C1449 C 0.77141 0.80405 0.64441 0.0
C1450 C 0.7797 0.78991 0.64971 0.0
C1451 C 0.80565 0.74959 0.66431 0.0
C1452 C 0.79649 0.76342 0.65941 0.0
H1453 H 0.76898 0.82904 0.61251 0.0
H1454 H 0.78042 0.80376 0.62083 0.0
H1455 H 0.80048 0.81234 0.66964 0.0
H1456 H 0.82326 0.7356 0.69713 0.0
H1457 H 0.80852 0.75851 0.68933 0.0
C1458 C 0.04921 0.82656 0.62178 0.0
C1459 C 0.06892 0.8321 0.6305 0.0
C1460 C 0.02968 0.81717 0.62875 0.0
C1461 C 0.00552 0.78427 0.66116 0.0
H1462 H 0.95669 0.79235 0.64893 0.0
C1463 C 0.92217 0.73612 0.68568 0.0
C1464 C 0.90364 0.72709 0.67462 0.0
C1465 C 0.9427 0.75137 0.68163 0.0
C1466 C 0.97016 0.78985 0.65241 0.0
H1467 H 0.08424 0.83309 0.6533 0.0
H1468 H 0.05015 0.81712 0.66573 0.0
H1469 H 0.99227 0.81576 0.63992 0.0
H1470 H 0.89217 0.72738 0.65067 0.0
H1471 H 0.92796 0.75386 0.64363 0.0
H1472 H 0.98336 0.75817 0.67345 0.0
C1473 C 0.0496 0.81971 0.65346 0.0
C1474 C 0.99056 0.80327 0.64725 0.0
C1475 C 0.06914 0.82906 0.64644 0.0
C1476 C 0.90607 0.73398 0.6595 0.0
C1477 C 0.92658 0.74929 0.65548 0.0
C1478 C 0.98517 0.77093 0.66636 0.0
C1479 C 0.02954 0.8131 0.64459 0.0
C1480 C 0.00842 0.80043 0.65135 0.0
C1481 C 0.94517 0.75803 0.66645 0.0
C1482 C 0.96716 0.77333 0.66185 0.0
H1483 H 0.04875 0.82852 0.60938 0.0
H1484 H 0.01458 0.81205 0.62148 0.0
H1485 H 0.01876 0.78131 0.66433 0.0
H1486 H 0.92091 0.73126 0.69745 0.0
H1487 H 0.95666 0.75796 0.6904 0.0
C1488 C 0.17975 0.2333 0.63593 0.0
C1489 C 0.16518 0.2238 0.62231 0.0
C1490 C 0.1968 0.22905 0.63878 0.0
C1491 C 0.21187 0.18745 0.62838 0.0
H1492 H 0.26674 0.22954 0.65226 0.0
C1493 C 0.28062 0.16851 0.64629 0.0
C1494 C 0.28931 0.17462 0.66213 0.0
C1495 C 0.26673 0.1754 0.63987 0.0
C1496 C 0.25146 0.2176 0.64561 0.0
H1497 H 0.15694 0.20291 0.60073 0.0
H1498 H 0.18721 0.1958 0.60543 0.0
H1499 H 0.24102 0.24082 0.64311 0.0
H1500 H 0.29037 0.19302 0.68354 0.0
H1501 H 0.26633 0.2051 0.67231 0.0
H1502 H 0.22243 0.16426 0.63096 0.0
C1503 C 0.18537 0.20632 0.61407 0.0
C1504 C 0.23668 0.22403 0.64039 0.0
C1505 C 0.16821 0.21054 0.61127 0.0
C1506 C 0.28394 0.18794 0.67132 0.0
C1507 C 0.27028 0.19501 0.66486 0.0
C1508 C 0.22677 0.18108 0.63348 0.0
C1509 C 0.19964 0.21517 0.62804 0.0
C1510 C 0.21646 0.20894 0.63199 0.0
C1511 C 0.26148 0.18879 0.64908 0.0
C1512 C 0.24652 0.19597 0.64244 0.0
H1513 H 0.17743 0.24334 0.6447 0.0
H1514 H 0.20713 0.23588 0.64978 0.0
H1515 H 0.19637 0.17528 0.62214 0.0
H1516 H 0.28442 0.15828 0.63886 0.0
H1517 H 0.26028 0.17043 0.62765 0.0
C1518 C 0.7665 0.95227 0.63304 0.0
C1519 C 0.75735 0.93959 0.64529 0.0
C1520 C 0.77148 0.97397 0.63415 0.0
C1521 C 0.78609 0.01903 0.66407 0.0
H1522 H 0.77561 0.04704 0.62998 0.0
C1523 C 0.80531 0.10766 0.67304 0.0
C1524 C 0.8145 0.12084 0.66098 0.0
C1525 C 0.79711 0.08527 0.67069 0.0
C1526 C 0.77888 0.03951 0.63956 0.0
H1527 H 0.74554 0.9388 0.66798 0.0
H1528 H 0.75408 0.97665 0.66995 0.0
H1529 H 0.76293 0.00814 0.62629 0.0
H1530 H 0.82229 0.12082 0.63695 0.0
H1531 H 0.80847 0.08186 0.63297 0.0
H1532 H 0.80243 0.05027 0.67727 0.0
C1533 C 0.75757 0.97006 0.65955 0.0
C1534 C 0.77155 0.01723 0.63745 0.0
C1535 C 0.75253 0.94842 0.65839 0.0
C1536 C 0.81524 0.11112 0.64648 0.0
C1537 C 0.80717 0.08874 0.64416 0.0
C1538 C 0.79353 0.04126 0.66615 0.0
C1539 C 0.76755 0.98321 0.64761 0.0
C1540 C 0.77502 0.00676 0.64971 0.0
C1541 C 0.79806 0.07554 0.65625 0.0
C1542 C 0.78998 0.0518 0.65395 0.0
H1543 H 0.77048 0.94566 0.6229 0.0
H1544 H 0.77928 0.98376 0.62482 0.0
H1545 H 0.78939 0.01149 0.67364 0.0
H1546 H 0.80433 0.11461 0.68431 0.0
H1547 H 0.78987 0.07556 0.68018 0.0
C1548 C 0.50476 0.38597 0.73287 0.0
C1549 C 0.50904 0.3991 0.72057 0.0
C1550 C 0.48697 0.3647 0.73099 0.0
C1551 C 0.43592 0.32669 0.70513 0.0
H1552 H 0.44752 0.28264 0.7198 0.0
C1553 C 0.3828 0.23548 0.68272 0.0
C1554 C 0.37773 0.2205 0.6939 0.0
C1555 C 0.39773 0.25757 0.68688 0.0
C1556 C 0.44391 0.29475 0.71579 0.0
H1557 H 0.49836 0.40103 0.69692 0.0
H1558 H 0.46747 0.3639 0.69348 0.0
H1559 H 0.4749 0.32091 0.72598 0.0
H1560 H 0.38439 0.21702 0.71824 0.0
H1561 H 0.41042 0.25548 0.72542 0.0
H1562 H 0.40512 0.30039 0.69459 0.0
C1563 C 0.47738 0.3699 0.70468 0.0
C1564 C 0.45958 0.31672 0.71939 0.0
C1565 C 0.49509 0.39112 0.7066 0.0
C1566 C 0.38793 0.2281 0.70931 0.0
C1567 C 0.40294 0.25013 0.71343 0.0
C1568 C 0.4203 0.30471 0.70146 0.0
C1569 C 0.47333 0.35625 0.71674 0.0
C1570 C 0.45588 0.33298 0.71398 0.0
C1571 C 0.408 0.26512 0.70228 0.0
C1572 C 0.42421 0.2885 0.70663 0.0
H1573 H 0.51551 0.39192 0.74371 0.0
H1574 H 0.48415 0.35475 0.74059 0.0
H1575 H 0.43238 0.33877 0.70098 0.0
H1576 H 0.37523 0.23018 0.67075 0.0
H1577 H 0.40149 0.2687 0.67798 0.0
C1578 C 0.61637 0.11498 0.71839 0.0
C1579 C 0.61347 0.11217 0.73422 0.0
C1580 C 0.63728 0.12426 0.71341 0.0
C1581 C 0.69288 0.13401 0.72513 0.0
H1582 H 0.70829 0.17066 0.6911 0.0
C1583 C 0.77908 0.17365 0.70342 0.0
C1584 C 0.77985 0.17288 0.68707 0.0
C1585 C 0.75942 0.16774 0.70982 0.0
C1586 C 0.7042 0.16032 0.70054 0.0
H1587 H 0.62978 0.11691 0.75741 0.0
H1588 H 0.66658 0.13357 0.74884 0.0
H1589 H 0.67313 0.15827 0.70131 0.0
H1590 H 0.76039 0.16544 0.6647 0.0
H1591 H 0.72622 0.15517 0.67585 0.0
H1592 H 0.72396 0.13602 0.72429 0.0
C1593 C 0.65275 0.12841 0.74017 0.0
C1594 C 0.684 0.15319 0.7064 0.0
C1595 C 0.63175 0.11907 0.74512 0.0
C1596 C 0.76048 0.16628 0.67733 0.0
C1597 C 0.74087 0.1605 0.68374 0.0
C1598 C 0.71313 0.14122 0.7193 0.0
C1599 C 0.65578 0.13093 0.7242 0.0
C1600 C 0.67793 0.13971 0.71865 0.0
C1601 C 0.74004 0.16105 0.70006 0.0
C1602 C 0.71895 0.15427 0.70681 0.0
H1603 H 0.60239 0.10952 0.70977 0.0
H1604 H 0.63885 0.12557 0.70102 0.0
H1605 H 0.6887 0.12341 0.7344 0.0
H1606 H 0.79364 0.1786 0.71131 0.0
H1607 H 0.75944 0.16856 0.72245 0.0
C1608 C 0.93109 0.53752 0.73575 0.0
C1609 C 0.93963 0.53165 0.72333 0.0
C1610 C 0.91997 0.54886 0.73313 0.0
C1611 C 0.89143 0.56137 0.70143 0.0
H1612 H 0.9037 0.61068 0.73059 0.0
C1613 C 0.86912 0.62569 0.68544 0.0
C1614 C 0.86132 0.63415 0.69695 0.0
C1615 C 0.87682 0.61173 0.68917 0.0
C1616 C 0.89984 0.59675 0.72245 0.0
H1617 H 0.94353 0.53263 0.69859 0.0
H1618 H 0.92435 0.55264 0.69394 0.0
H1619 H 0.9207 0.589 0.73628 0.0
H1620 H 0.85514 0.63422 0.72138 0.0
H1621 H 0.86852 0.60973 0.72785 0.0
H1622 H 0.87083 0.56931 0.68748 0.0
C1623 C 0.92587 0.54835 0.70565 0.0
C1624 C 0.90958 0.58433 0.72571 0.0
C1625 C 0.93697 0.53706 0.7083 0.0
C1626 C 0.8611 0.62806 0.71223 0.0
C1627 C 0.86887 0.61412 0.71597 0.0
C1628 C 0.88171 0.57378 0.69816 0.0
C1629 C 0.91722 0.55438 0.71802 0.0
C1630 C 0.90573 0.56668 0.71513 0.0
C1631 C 0.87693 0.6059 0.7045 0.0
C1632 C 0.88604 0.5918 0.70852 0.0
H1633 H 0.93298 0.53332 0.74743 0.0
H1634 H 0.91334 0.5531 0.74286 0.0
H1635 H 0.88778 0.54761 0.69318 0.0
H1636 H 0.86952 0.63004 0.67355 0.0
H1637 H 0.88317 0.6059 0.68011 0.0
C1638 C 0.47469 0.93587 0.24146 0.0
C1639 C 0.45417 0.91747 0.24244 0.0
C1640 C 0.48113 0.94341 0.22696 0.0
C1641 C 0.45774 0.94211 0.18713 0.0
H1642 H 0.51756 0.96643 0.17726 0.0
C1643 C 0.48324 0.97182 0.12676 0.0
C1644 C 0.50287 0.99161 0.12671 0.0
C1645 C 0.47766 0.96161 0.1405 0.0
C1646 C 0.50083 0.95986 0.1799 0.0
H1647 H 0.42477 0.89193 0.22884 0.0
H1648 H 0.43601 0.90505 0.20353 0.0
H1649 H 0.50731 0.9503 0.20184 0.0
H1650 H 0.53227 0.01591 0.14103 0.0
H1651 H 0.52235 0.99831 0.16508 0.0
H1652 H 0.45128 0.95187 0.16531 0.0
C1653 C 0.44697 0.91391 0.21402 0.0
C1654 C 0.49494 0.9506 0.19398 0.0
C1655 C 0.44053 0.90637 0.22852 0.0
C1656 C 0.51691 0.0008 0.1407 0.0
C1657 C 0.51134 0.99057 0.15445 0.0
C1658 C 0.46361 0.95136 0.17307 0.0
C1659 C 0.4672 0.93272 0.21308 0.0
C1660 C 0.47335 0.94171 0.19781 0.0
C1661 C 0.49158 0.97092 0.15454 0.0
C1662 C 0.48525 0.96047 0.16931 0.0
H1663 H 0.48547 0.94497 0.25197 0.0
H1664 H 0.4967 0.9581 0.2267 0.0
H1665 H 0.44105 0.93578 0.18982 0.0
H1666 H 0.47194 0.96439 0.11624 0.0
H1667 H 0.46242 0.94638 0.14012 0.0
C1668 C 0.04642 0.53092 0.25379 0.0
C1669 C 0.06338 0.52695 0.25838 0.0
C1670 C 0.04038 0.5305 0.23792 0.0
C1671 C 0.05918 0.53238 0.19835 0.0
H1672 H 0.9972 0.50234 0.18441 0.0
C1673 C 0.02465 0.50392 0.13327 0.0
C1674 C 0.00688 0.50626 0.12789 0.0
C1675 C 0.03233 0.50833 0.14919 0.0
C1676 C 0.01457 0.51103 0.18813 0.0
H1677 H 0.08787 0.5203 0.2499 0.0
H1678 H 0.07699 0.51901 0.22227 0.0
H1679 H 0.00927 0.50694 0.21222 0.0
H1680 H 0.98375 0.5158 0.13497 0.0
H1681 H 0.99704 0.52331 0.16275 0.0
H1682 H 0.06441 0.53607 0.17417 0.0
C1683 C 0.06846 0.52264 0.23091 0.0
C1684 C 0.0215 0.51371 0.20408 0.0
C1685 C 0.07452 0.5231 0.24676 0.0
C1686 C 0.99719 0.51343 0.13876 0.0
C1687 C 0.00482 0.51777 0.15468 0.0
C1688 C 0.05224 0.52963 0.18238 0.0
C1689 C 0.05116 0.5261 0.22628 0.0
C1690 C 0.04388 0.52428 0.20938 0.0
C1691 C 0.02237 0.51512 0.16009 0.0
C1692 C 0.02985 0.5188 0.17708 0.0
H1693 H 0.03741 0.5338 0.26244 0.0
H1694 H 0.02717 0.53351 0.23477 0.0
H1695 H 0.07655 0.54089 0.20205 0.0
H1696 H 0.03231 0.49817 0.12525 0.0
H1697 H 0.0457 0.50586 0.15302 0.0
C1698 C 0.45888 0.52353 0.22318 0.0
C1699 C 0.47595 0.53987 0.23371 0.0
C1700 C 0.46233 0.51985 0.20772 0.0
C1701 C 0.49805 0.54687 0.17734 0.0
H1702 H 0.47591 0.4883 0.15783 0.0
C1703 C 0.52113 0.53052 0.11686 0.0
C1704 C 0.50502 0.51298 0.10658 0.0
C1705 C 0.51745 0.53357 0.13235 0.0
C1706 C 0.48195 0.50475 0.16301 0.0
H1707 H 0.51028 0.56469 0.23627 0.0
H1708 H 0.51615 0.55851 0.20925 0.0
H1709 H 0.46961 0.49391 0.18486 0.0
H1710 H 0.47229 0.48506 0.10441 0.0
H1711 H 0.46565 0.49057 0.13137 0.0
H1712 H 0.51012 0.55779 0.1555 0.0
C1713 C 0.50002 0.54872 0.21294 0.0
C1714 C 0.47838 0.50795 0.17852 0.0
C1715 C 0.49662 0.55229 0.22841 0.0
C1716 C 0.48511 0.49858 0.11212 0.0
C1717 C 0.48135 0.50172 0.12759 0.0
C1718 C 0.50148 0.54368 0.1618 0.0
C1719 C 0.4829 0.53253 0.2024 0.0
C1720 C 0.48648 0.52905 0.18588 0.0
C1721 C 0.49749 0.51924 0.13793 0.0
C1722 C 0.49356 0.52259 0.15444 0.0
H1723 H 0.44269 0.51384 0.22679 0.0
H1724 H 0.44876 0.50739 0.19983 0.0
H1725 H 0.5042 0.56331 0.18261 0.0
H1726 H 0.53676 0.54171 0.11299 0.0
H1727 H 0.53042 0.54699 0.14003 0.0
C1728 C 0.95176 0.49288 0.78725 0.0
C1729 C 0.95516 0.47804 0.77805 0.0
C1730 C 0.95609 0.49544 0.8036 0.0
C1731 C 0.96258 0.46701 0.83633 0.0
H1732 H 0.99328 0.52423 0.85961 0.0
C1733 C 0.00202 0.48067 0.8992 0.0
C1734 C 0.99968 0.49456 0.91022 0.0
C1735 C 0.99558 0.47927 0.88332 0.0
C1736 C 0.98444 0.50813 0.85329 0.0
H1737 H 0.96657 0.45493 0.77879 0.0
H1738 H 0.97403 0.45933 0.80714 0.0
H1739 H 0.98372 0.52065 0.83132 0.0
H1740 H 0.98896 0.51811 0.91313 0.0
H1741 H 0.97751 0.51555 0.88522 0.0
H1742 H 0.96352 0.45447 0.85817 0.0
C1743 C 0.96755 0.46863 0.80181 0.0
C1744 C 0.97896 0.50608 0.8371 0.0
C1745 C 0.96326 0.46609 0.78554 0.0
C1746 C 0.99085 0.50716 0.90493 0.0
C1747 C 0.98447 0.50583 0.88896 0.0
C1748 C 0.96807 0.46906 0.85245 0.0
C1749 C 0.96389 0.48321 0.81106 0.0
C1750 C 0.96831 0.4855 0.82841 0.0
C1751 C 0.98659 0.4917 0.87801 0.0
C1752 C 0.9794 0.48965 0.86108 0.0
H1753 H 0.94542 0.50224 0.78184 0.0
H1754 H 0.95298 0.50671 0.81042 0.0
H1755 H 0.95393 0.45089 0.83005 0.0
H1756 H 0.00848 0.4705 0.90288 0.0
H1757 H 0.99771 0.46845 0.87516 0.0
C1758 C 0.55753 0.50013 0.77599 0.0
C1759 C 0.55622 0.4805 0.77043 0.0
C1760 C 0.55045 0.50227 0.79048 0.0
C1761 C 0.53962 0.47871 0.82835 0.0
H1762 H 0.50748 0.50921 0.83321 0.0
C1763 C 0.50126 0.4812 0.88539 0.0
C1764 C 0.50264 0.50093 0.89072 0.0
C1765 C 0.50729 0.47838 0.87061 0.0
C1766 C 0.51665 0.50086 0.83211 0.0
H1767 H 0.54646 0.44777 0.77584 0.0
H1768 H 0.53384 0.45142 0.80101 0.0
H1769 H 0.51887 0.50492 0.80767 0.0
H1770 H 0.51177 0.53328 0.8847 0.0
H1771 H 0.52235 0.52842 0.85899 0.0
H1772 H 0.53756 0.47477 0.85279 0.0
C1773 C 0.54052 0.46522 0.79421 0.0
C1774 C 0.52317 0.49838 0.81745 0.0
C1775 C 0.54753 0.46305 0.77969 0.0
C1776 C 0.51015 0.51775 0.88088 0.0
C1777 C 0.51622 0.51495 0.86611 0.0
C1778 C 0.53314 0.48122 0.84301 0.0
C1779 C 0.54194 0.48488 0.79982 0.0
C1780 C 0.53477 0.48731 0.81538 0.0
C1781 C 0.51491 0.49524 0.86078 0.0
C1782 C 0.5216 0.49236 0.8451 0.0
H1783 H 0.56393 0.51382 0.76908 0.0
H1784 H 0.55198 0.51771 0.79449 0.0
H1785 H 0.54882 0.47039 0.82724 0.0
H1786 H 0.49525 0.4678 0.89257 0.0
H1787 H 0.50572 0.46287 0.86681 0.0
C1788 C 0.52473 0.07678 0.80044 0.0
C1789 C 0.54498 0.08656 0.79416 0.0
C1790 C 0.5231 0.07061 0.81563 0.0
C1791 C 0.54861 0.05461 0.84632 0.0
H1792 H 0.51466 0.06877 0.87335 0.0
C1793 C 0.53874 0.0315 0.9102 0.0
C1794 C 0.51828 0.02484 0.91566 0.0
C1795 C 0.54343 0.04023 0.89581 0.0
C1796 C 0.52396 0.06441 0.86592 0.0
H1797 H 0.57938 0.09713 0.79911 0.0
H1798 H 0.57634 0.08577 0.82563 0.0
H1799 H 0.52033 0.0817 0.84751 0.0
H1800 H 0.48654 0.02165 0.91011 0.0
H1801 H 0.49445 0.03636 0.88497 0.0
H1802 H 0.5517 0.03674 0.86451 0.0
C1803 C 0.5618 0.08311 0.81868 0.0
C1804 C 0.52731 0.07194 0.85112 0.0
C1805 C 0.56351 0.08956 0.80348 0.0
C1806 C 0.50258 0.02697 0.90636 0.0
C1807 C 0.50718 0.03549 0.89194 0.0
C1808 C 0.54508 0.04686 0.8611 0.0
C1809 C 0.54158 0.07372 0.82495 0.0
C1810 C 0.53945 0.06693 0.84108 0.0
C1811 C 0.5277 0.04234 0.88647 0.0
C1812 C 0.53247 0.05145 0.87103 0.0
H1813 H 0.50993 0.07351 0.79353 0.0
H1814 H 0.50721 0.06301 0.82 0.0
H1815 H 0.55788 0.05033 0.83879 0.0
H1816 H 0.55126 0.03027 0.91717 0.0
H1817 H 0.55951 0.04559 0.89213 0.0
C1818 C 0.13786 0.26603 0.57008 0.0
C1819 C 0.11634 0.24896 0.57054 0.0
C1820 C 0.14489 0.27498 0.55604 0.0
C1821 C 0.12326 0.28044 0.51727 0.0
H1822 H 0.18174 0.29878 0.50634 0.0
C1823 C 0.14981 0.30971 0.45695 0.0
C1824 C 0.17071 0.32791 0.45667 0.0
C1825 C 0.1435 0.29965 0.4707 0.0
C1826 C 0.16543 0.29394 0.5093 0.0
H1827 H 0.08567 0.22731 0.55643 0.0
H1828 H 0.09793 0.24279 0.53198 0.0
H1829 H 0.17026 0.28175 0.53047 0.0
H1830 H 0.20151 0.34956 0.47066 0.0
H1831 H 0.19039 0.33222 0.49472 0.0
H1832 H 0.11842 0.29266 0.49616 0.0
C1833 C 0.10926 0.24961 0.54252 0.0
C1834 C 0.15884 0.28417 0.52314 0.0
C1835 C 0.10222 0.2407 0.55655 0.0
C1836 C 0.18521 0.33571 0.47049 0.0
C1837 C 0.17892 0.32561 0.48424 0.0
C1838 C 0.12983 0.29017 0.50345 0.0
C1839 C 0.13059 0.26706 0.54211 0.0
C1840 C 0.13766 0.27728 0.5273 0.0
C1841 C 0.15794 0.30752 0.48454 0.0
C1842 C 0.15099 0.29706 0.49927 0.0
H1843 H 0.14908 0.27294 0.58067 0.0
H1844 H 0.16135 0.28855 0.55621 0.0
H1845 H 0.10698 0.27574 0.52024 0.0
H1846 H 0.13813 0.3034 0.44658 0.0
H1847 H 0.12731 0.28562 0.47045 0.0
C1848 C 0.73823 0.88081 0.58501 0.0
C1849 C 0.72947 0.86255 0.59349 0.0
C1850 C 0.73097 0.87888 0.56917 0.0
C1851 C 0.68561 0.84311 0.53867 0.0
H1852 H 0.72927 0.86985 0.50977 0.0
C1853 C 0.66543 0.819 0.47211 0.0
C1854 C 0.67444 0.83558 0.46214 0.0
C1855 C 0.67211 0.82336 0.48818 0.0
C1856 C 0.71684 0.86252 0.51769 0.0
H1857 H 0.70562 0.82818 0.59219 0.0
H1858 H 0.69315 0.82476 0.56458 0.0
H1859 H 0.74047 0.876 0.53788 0.0
H1860 H 0.69758 0.86978 0.46129 0.0
H1861 H 0.70927 0.87742 0.48938 0.0
H1862 H 0.662 0.82947 0.51851 0.0
C1863 C 0.70556 0.84059 0.57014 0.0
C1864 C 0.72326 0.86606 0.53381 0.0
C1865 C 0.71286 0.84249 0.58592 0.0
C1866 C 0.69051 0.85659 0.46861 0.0
C1867 C 0.69719 0.86097 0.48471 0.0
C1868 C 0.67919 0.83959 0.52258 0.0
C1869 C 0.7147 0.85869 0.56151 0.0
C1870 C 0.70774 0.85619 0.54448 0.0
C1871 C 0.68796 0.84443 0.49471 0.0
C1872 C 0.69475 0.84903 0.51187 0.0
H1873 H 0.75113 0.89645 0.59051 0.0
H1874 H 0.73818 0.89318 0.56288 0.0
H1875 H 0.6732 0.83556 0.54659 0.0
H1876 H 0.6533 0.80255 0.46747 0.0
H1877 H 0.66499 0.81014 0.49548 0.0
C1878 C 0.12341 0.85779 0.55568 0.0
C1879 C 0.14119 0.87011 0.56715 0.0
C1880 C 0.12684 0.85533 0.54003 0.0
C1881 C 0.16788 0.88031 0.51201 0.0
H1882 H 0.13388 0.82414 0.48755 0.0
C1883 C 0.18939 0.86222 0.45137 0.0
C1884 C 0.17204 0.84983 0.43961 0.0
C1885 C 0.1853 0.86478 0.46683 0.0
C1886 C 0.14333 0.84 0.49416 0.0
H1887 H 0.17655 0.8891 0.57121 0.0
H1888 H 0.18253 0.88481 0.54393 0.0
H1889 H 0.1273 0.82839 0.51471 0.0
H1890 H 0.13677 0.83071 0.43484 0.0
H1891 H 0.12963 0.83519 0.46182 0.0
H1892 H 0.18396 0.89191 0.49148 0.0
C1893 C 0.16591 0.87737 0.54698 0.0
C1894 C 0.13956 0.84243 0.50973 0.0
C1895 C 0.16248 0.87983 0.56262 0.0
C1896 C 0.15051 0.84009 0.44366 0.0
C1897 C 0.14642 0.84266 0.45912 0.0
C1898 C 0.17165 0.87788 0.49645 0.0
C1899 C 0.14814 0.86513 0.53549 0.0
C1900 C 0.15186 0.86259 0.51885 0.0
C1901 C 0.16377 0.85502 0.47089 0.0
C1902 C 0.15948 0.85768 0.48736 0.0
H1903 H 0.1068 0.85032 0.55877 0.0
H1904 H 0.11279 0.84603 0.53144 0.0
H1905 H 0.17739 0.89615 0.51862 0.0
H1906 H 0.20618 0.86964 0.4487 0.0
H1907 H 0.19905 0.87412 0.47565 0.0
C1908 C 0.62889 0.79576 0.11864 0.0
C1909 C 0.61704 0.804 0.1108 0.0
C1910 C 0.63354 0.79949 0.13489 0.0
C1911 C 0.63776 0.83464 0.16967 0.0
H1912 H 0.63103 0.78577 0.19132 0.0
C1913 C 0.67334 0.84376 0.23382 0.0
C1914 C 0.66126 0.82738 0.24338 0.0
C1915 C 0.66632 0.84155 0.21792 0.0
C1916 C 0.63275 0.79953 0.18551 0.0
H1917 H 0.60141 0.8233 0.11382 0.0
H1918 H 0.6096 0.8299 0.14241 0.0
H1919 H 0.62201 0.78094 0.16307 0.0
H1920 H 0.63205 0.79602 0.24375 0.0
H1921 H 0.6196 0.79232 0.21605 0.0
H1922 H 0.64842 0.85318 0.19221 0.0
C1923 C 0.6153 0.82055 0.1359 0.0
C1924 C 0.62784 0.79683 0.16928 0.0
C1925 C 0.61062 0.81679 0.11955 0.0
C1926 C 0.64169 0.80898 0.23674 0.0
C1927 C 0.63467 0.80677 0.22083 0.0
C1928 C 0.64272 0.83736 0.18596 0.0
C1929 C 0.62648 0.81159 0.14375 0.0
C1930 C 0.63057 0.81441 0.16113 0.0
C1931 C 0.64703 0.82292 0.21119 0.0
C1932 C 0.64048 0.81987 0.19404 0.0
H1933 H 0.63453 0.78629 0.11219 0.0
H1934 H 0.64269 0.79285 0.14053 0.0
H1935 H 0.6401 0.84851 0.16373 0.0
H1936 H 0.68831 0.8583 0.23861 0.0
H1937 H 0.67634 0.85421 0.21082 0.0
C1938 C 0.22251 0.83122 0.10958 0.0
C1939 C 0.22072 0.81146 0.1038 0.0
C1940 C 0.21515 0.83321 0.12397 0.0
C1941 C 0.20273 0.80893 0.1614 0.0
H1942 H 0.17205 0.84095 0.16606 0.0
C1943 C 0.16525 0.81373 0.21848 0.0
C1944 C 0.16738 0.83387 0.22361 0.0
C1945 C 0.17098 0.81032 0.20372 0.0
C1946 C 0.1808 0.83215 0.16502 0.0
H1947 H 0.20977 0.77829 0.10866 0.0
H1948 H 0.19671 0.7817 0.13374 0.0
H1949 H 0.18335 0.83618 0.14061 0.0
H1950 H 0.17757 0.86631 0.2173 0.0
H1951 H 0.18763 0.86043 0.19164 0.0
H1952 H 0.20039 0.80509 0.18585 0.0
C1953 C 0.20397 0.79571 0.12717 0.0
C1954 C 0.18726 0.8294 0.15041 0.0
C1955 C 0.21125 0.79369 0.11272 0.0
C1956 C 0.17536 0.85049 0.21361 0.0
C1957 C 0.18113 0.8471 0.19888 0.0
C1958 C 0.19632 0.81173 0.17604 0.0
C1959 C 0.20586 0.81551 0.13298 0.0
C1960 C 0.1984 0.81785 0.14843 0.0
C1961 C 0.17903 0.82697 0.19373 0.0
C1962 C 0.18537 0.82349 0.17806 0.0
H1963 H 0.22949 0.84516 0.10293 0.0
H1964 H 0.21706 0.84876 0.12816 0.0
H1965 H 0.21154 0.8002 0.16035 0.0
H1966 H 0.1589 0.80049 0.2258 0.0
H1967 H 0.16884 0.79451 0.20006 0.0
C1968 C 0.21684 0.43396 0.1388 0.0
C1969 C 0.21845 0.42198 0.12586 0.0
C1970 C 0.21559 0.42695 0.15377 0.0
C1971 C 0.19889 0.37673 0.17284 0.0
H1972 H 0.22474 0.41632 0.21087 0.0
C1973 C 0.19111 0.34556 0.23399 0.0
C1974 C 0.18673 0.35673 0.24598 0.0
C1975 C 0.19683 0.3541 0.21965 0.0
C1976 C 0.21725 0.40506 0.20037 0.0
H1977 H 0.22086 0.39362 0.11869 0.0
H1978 H 0.21919 0.38166 0.14483 0.0
H1979 H 0.23226 0.43046 0.18541 0.0
H1980 H 0.18499 0.38572 0.25221 0.0
H1981 H 0.1949 0.40058 0.2272 0.0
H1982 H 0.18365 0.35137 0.18773 0.0
C1983 C 0.21852 0.39632 0.14336 0.0
C1984 C 0.22159 0.41317 0.18576 0.0
C1985 C 0.21979 0.40334 0.12839 0.0
C1986 C 0.18852 0.37681 0.24332 0.0
C1987 C 0.19423 0.38535 0.22897 0.0
C1988 C 0.19456 0.36864 0.18742 0.0
C1989 C 0.21592 0.40776 0.15618 0.0
C1990 C 0.21236 0.39912 0.17179 0.0
C1991 C 0.19831 0.37403 0.2169 0.0
C1992 C 0.20357 0.38269 0.20139 0.0
H1993 H 0.21601 0.44852 0.1373 0.0
H1994 H 0.21348 0.43613 0.16332 0.0
H1995 H 0.19114 0.36547 0.16235 0.0
H1996 H 0.19029 0.33026 0.23571 0.0
H1997 H 0.20023 0.34511 0.21074 0.0
C1998 C 0.80557 0.5999 0.90439 0.0
C1999 C 0.78467 0.58201 0.90535 0.0
C2000 C 0.81175 0.6082 0.89004 0.0
C2001 C 0.78797 0.61079 0.85145 0.0
H2002 H 0.84647 0.63146 0.83965 0.0
C2003 C 0.8122 0.64181 0.79111 0.0
C2004 C 0.8329 0.66028 0.79075 0.0
C2005 C 0.80644 0.63141 0.80478 0.0
C2006 C 0.83013 0.62598 0.84284 0.0
H2007 H 0.75429 0.5582 0.89178 0.0
H2008 H 0.76505 0.57272 0.86678 0.0
H2009 H 0.83638 0.61452 0.86395 0.0
H2010 H 0.86387 0.68206 0.8045 0.0
H2011 H 0.85364 0.66429 0.82841 0.0
H2012 H 0.78176 0.62248 0.8305 0.0
C2013 C 0.77652 0.58057 0.87719 0.0
C2014 C 0.82434 0.61622 0.85676 0.0
C2015 C 0.77035 0.57224 0.89152 0.0
C2016 C 0.8477 0.66804 0.8044 0.0
C2017 C 0.84193 0.65766 0.81807 0.0
C2018 C 0.79377 0.62059 0.83756 0.0
C2019 C 0.79718 0.59884 0.87631 0.0
C2020 C 0.80321 0.60857 0.86126 0.0
C2021 C 0.82121 0.63923 0.81845 0.0
C2022 C 0.81494 0.62839 0.8331 0.0
H2023 H 0.8169 0.60802 0.91483 0.0
H2024 H 0.8277 0.62243 0.88982 0.0
H2025 H 0.77167 0.60542 0.85468 0.0
H2026 H 0.80029 0.6355 0.78088 0.0
H2027 H 0.79043 0.61713 0.80458 0.0
C2028 C 0.37336 0.1645 0.91526 0.0
C2029 C 0.38915 0.18437 0.92356 0.0
C2030 C 0.36697 0.16338 0.8994 0.0
C2031 C 0.38564 0.19118 0.86412 0.0
H2032 H 0.3246 0.15559 0.84793 0.0
C2033 C 0.35441 0.18589 0.79913 0.0
C2034 C 0.33815 0.16528 0.7921 0.0
C2035 C 0.36085 0.18924 0.81524 0.0
C2036 C 0.34175 0.16541 0.85223 0.0
H2037 H 0.41052 0.21872 0.92176 0.0
H2038 H 0.39922 0.21679 0.89394 0.0
H2039 H 0.33514 0.15983 0.87599 0.0
H2040 H 0.31647 0.13188 0.79637 0.0
H2041 H 0.3278 0.13764 0.82438 0.0
H2042 H 0.39228 0.1965 0.84031 0.0
C2043 C 0.39191 0.20205 0.89974 0.0
C2044 C 0.34777 0.16788 0.86832 0.0
C2045 C 0.39823 0.20319 0.91568 0.0
C2046 C 0.32876 0.14804 0.80148 0.0
C2047 C 0.33522 0.15136 0.81755 0.0
C2048 C 0.37962 0.18865 0.848 0.0
C2049 C 0.37625 0.18211 0.89143 0.0
C2050 C 0.3698 0.1806 0.87443 0.0
C2051 C 0.3512 0.17203 0.82466 0.0
C2052 C 0.35762 0.17553 0.84184 0.0
H2053 H 0.36591 0.14976 0.92106 0.0
H2054 H 0.35502 0.14774 0.89329 0.0
H2055 H 0.40278 0.2009 0.86847 0.0
H2056 H 0.36179 0.19955 0.79224 0.0
H2057 H 0.37304 0.20541 0.82037 0.0
C2058 C 0.82664 0.20889 0.8986 0.0
C2059 C 0.80567 0.20432 0.90174 0.0
C2060 C 0.83085 0.20567 0.88328 0.0
C2061 C 0.80272 0.17745 0.84379 0.0
H2062 H 0.85903 0.21696 0.8302 0.0
C2063 C 0.82182 0.18163 0.77891 0.0
C2064 C 0.84167 0.18284 0.77592 0.0
C2065 C 0.81684 0.18288 0.7943 0.0
C2066 C 0.8433 0.2057 0.83389 0.0
H2067 H 0.7728 0.19332 0.89136 0.0
H2068 H 0.78024 0.18839 0.86458 0.0
H2069 H 0.85166 0.22258 0.85686 0.0
H2070 H 0.87128 0.18517 0.78689 0.0
H2071 H 0.86281 0.18797 0.81368 0.0
H2072 H 0.79427 0.16104 0.82054 0.0
C2073 C 0.79333 0.19379 0.87393 0.0
C2074 C 0.83907 0.20884 0.84919 0.0
C2075 C 0.78906 0.19673 0.88927 0.0
C2076 C 0.85609 0.18471 0.78872 0.0
C2077 C 0.85124 0.18623 0.80408 0.0
C2078 C 0.80687 0.1745 0.82841 0.0
C2079 C 0.81425 0.19809 0.87073 0.0
C2080 C 0.81874 0.19473 0.85438 0.0
C2081 C 0.8317 0.1856 0.80702 0.0
C2082 C 0.82722 0.18855 0.82333 0.0
H2083 H 0.83967 0.21453 0.90804 0.0
H2084 H 0.84706 0.2088 0.88135 0.0
H2085 H 0.78703 0.166 0.84741 0.0
H2086 H 0.81044 0.1805 0.7694 0.0
H2087 H 0.80172 0.18249 0.79627 0.0
C2088 C 0.28541 0.15724 0.45046 0.0
C2089 C 0.29132 0.14416 0.44153 0.0
C2090 C 0.29115 0.16165 0.46671 0.0
C2091 C 0.30582 0.13888 0.49971 0.0
H2092 H 0.32678 0.19533 0.52266 0.0
C2093 C 0.34501 0.15794 0.56295 0.0
C2094 C 0.33859 0.16864 0.57383 0.0
C2095 C 0.33912 0.1563 0.54694 0.0
C2096 C 0.32072 0.17943 0.5164 0.0
H2097 H 0.30905 0.12667 0.44242 0.0
H2098 H 0.31915 0.13444 0.47057 0.0
H2099 H 0.31683 0.19022 0.49427 0.0
H2100 H 0.32142 0.18654 0.57634 0.0
H2101 H 0.31093 0.1835 0.54819 0.0
H2102 H 0.30981 0.12806 0.52167 0.0
C2103 C 0.30956 0.14079 0.46518 0.0
C2104 C 0.31502 0.1765 0.50017 0.0
C2105 C 0.3038 0.13635 0.44904 0.0
C2106 C 0.32647 0.17805 0.56826 0.0
C2107 C 0.32063 0.17647 0.55215 0.0
C2108 C 0.31154 0.14181 0.51584 0.0
C2109 C 0.30293 0.1531 0.47428 0.0
C2110 C 0.30785 0.15625 0.49161 0.0
C2111 C 0.32661 0.16527 0.54136 0.0
C2112 C 0.31939 0.16218 0.52434 0.0
H2113 H 0.27577 0.16345 0.44496 0.0
H2114 H 0.28576 0.17115 0.4734 0.0
H2115 H 0.29981 0.12293 0.49355 0.0
H2116 H 0.35409 0.15024 0.56682 0.0
H2117 H 0.34425 0.14782 0.53891 0.0
C2118 C 0.89816 0.17128 0.44815 0.0
C2119 C 0.89393 0.15084 0.44153 0.0
C2120 C 0.89154 0.17355 0.46278 0.0
C2121 C 0.85202 0.1434 0.49017 0.0
H2122 H 0.89255 0.19071 0.52108 0.0
C2123 C 0.82615 0.16814 0.54698 0.0
C2124 C 0.83971 0.17228 0.56093 0.0
C2125 C 0.83254 0.16486 0.53246 0.0
C2126 C 0.88109 0.17737 0.51259 0.0
H2127 H 0.87945 0.11677 0.44532 0.0
H2128 H 0.86745 0.12072 0.47071 0.0
H2129 H 0.90422 0.18623 0.49563 0.0
H2130 H 0.87045 0.17563 0.57041 0.0
H2131 H 0.88175 0.17046 0.54506 0.0
H2132 H 0.82885 0.13461 0.50713 0.0
C2133 C 0.87588 0.13495 0.46448 0.0
C2134 C 0.88771 0.17491 0.49799 0.0
C2135 C 0.88271 0.1327 0.44991 0.0
C2136 C 0.85977 0.17295 0.55994 0.0
C2137 C 0.86624 0.1699 0.54541 0.0
C2138 C 0.84531 0.14601 0.50471 0.0
C2139 C 0.8803 0.15541 0.47109 0.0
C2140 C 0.87326 0.15789 0.48663 0.0
C2141 C 0.85272 0.16587 0.53152 0.0
C2142 C 0.85979 0.163 0.51608 0.0
H2143 H 0.90634 0.18554 0.44192 0.0
H2144 H 0.8949 0.18947 0.46749 0.0
H2145 H 0.84049 0.13022 0.4816 0.0
H2146 H 0.81076 0.16785 0.54722 0.0
H2147 H 0.82189 0.16202 0.52193 0.0
C2148 C 0.88281 0.76822 0.47084 0.0
C2149 C 0.88244 0.75453 0.45821 0.0
C2150 C 0.88092 0.76186 0.48603 0.0
C2151 C 0.88314 0.72128 0.51056 0.0
H2152 H 0.84693 0.73434 0.53593 0.0
C2153 C 0.84856 0.67796 0.56542 0.0
C2154 C 0.84967 0.69088 0.57888 0.0
C2155 C 0.85378 0.68671 0.55111 0.0
C2156 C 0.85727 0.73076 0.52906 0.0
H2157 H 0.88009 0.72355 0.45168 0.0
H2158 H 0.87646 0.71228 0.47804 0.0
H2159 H 0.85444 0.74802 0.51038 0.0
H2160 H 0.85726 0.72333 0.58767 0.0
H2161 H 0.86587 0.73841 0.56259 0.0
H2162 H 0.8854 0.7035 0.52915 0.0
C2163 C 0.87868 0.72816 0.47635 0.0
C2164 C 0.86168 0.73867 0.51441 0.0
C2165 C 0.88076 0.73461 0.46119 0.0
C2166 C 0.85588 0.71276 0.57755 0.0
C2167 C 0.86091 0.72146 0.56318 0.0
C2168 C 0.87856 0.71321 0.52515 0.0
C2169 C 0.8784 0.74155 0.48896 0.0
C2170 C 0.87458 0.73394 0.5049 0.0
C2171 C 0.86004 0.70856 0.54982 0.0
C2172 C 0.86547 0.71775 0.53453 0.0
H2173 H 0.88431 0.78377 0.46894 0.0
H2174 H 0.88125 0.77283 0.49546 0.0
H2175 H 0.89346 0.71761 0.50375 0.0
H2176 H 0.84341 0.66095 0.56585 0.0
H2177 H 0.85258 0.67625 0.54097 0.0
loop_
_geom_bond_atom_site_label_1
_geom_bond_atom_site_label_2
_geom_bond_distance
_geom_bond_site_symmetry_2
_ccdc_geom_bond_type
H0 C3 0.929 . S
H1 C6 0.929 . S
H2 C8 0.930 . S
C3 H0 0.929 . S
C3 C4 1.398 . S
C3 C5 1.396 . S
C4 C3 1.398 . S
C4 C8 1.407 . S
C5 C3 1.396 . S
C5 C6 1.394 . S
C6 H1 0.929 . S
C6 C5 1.394 . S
C6 C7 1.382 . S
C7 C6 1.382 . S
C7 C8 1.392 . S
C7 N9 1.420 . S
C8 H2 0.930 . S
C8 C4 1.407 . S
C8 C7 1.392 . S
N9 C7 1.420 . S
N9 C10 1.244 . S
C10 N9 1.244 . S
H11 C14 0.929 . S
H12 C17 0.929 . S
H13 C19 0.930 . S
C14 H11 0.929 . S
C14 C15 1.398 . S
C14 C16 1.396 . S
C15 C14 1.398 . S
C15 C19 1.407 . S
C16 C14 1.396 . S
C16 C17 1.394 . S
C17 H12 0.929 . S
C17 C16 1.394 . S
C17 C18 1.382 . S
C18 C17 1.382 . S
C18 C19 1.392 . S
C18 N20 1.420 . S
C19 H13 0.930 . S
C19 C15 1.407 . S
C19 C18 1.392 . S
N20 C18 1.420 . S
N20 C21 1.244 . S
C21 N20 1.244 . S
H22 C25 0.929 . S
H23 C28 0.929 . S
H24 C30 0.930 . S
C25 H22 0.929 . S
C25 C26 1.398 . S
C25 C27 1.396 . S
C26 C25 1.398 . S
C26 C30 1.407 . S
C27 C25 1.396 . S
C27 C28 1.394 . S
C28 H23 0.929 . S
C28 C27 1.394 . S
C28 C29 1.382 . S
C29 C28 1.382 . S
C29 C30 1.392 . S
C29 N31 1.420 . S
C30 H24 0.930 . S
C30 C26 1.407 . S
C30 C29 1.392 . S
N31 C29 1.420 . S
N31 C32 1.244 . S
C32 N31 1.244 . S
H33 C36 0.929 . S
H34 C39 0.929 . S
H35 C41 0.930 . S
C36 H33 0.929 . S
C36 C37 1.398 . S
C36 C38 1.396 . S
C37 C36 1.398 . S
C37 C41 1.407 . S
C38 C36 1.396 . S
C38 C39 1.394 . S
C39 H34 0.929 . S
C39 C38 1.394 . S
C39 C40 1.382 . S
C40 C39 1.382 . S
C40 C41 1.392 . S
C40 N42 1.420 . S
C41 H35 0.930 . S
C41 C37 1.407 . S
C41 C40 1.392 . S
N42 C40 1.420 . S
N42 C43 1.244 . S
C43 N42 1.244 . S
H44 C47 0.929 . S
H45 C50 0.929 . S
H46 C52 0.930 . S
C47 H44 0.929 . S
C47 C48 1.398 . S
C47 C49 1.396 . S
C48 C47 1.398 . S
C48 C52 1.407 . S
C49 C47 1.396 . S
C49 C50 1.394 . S
C50 H45 0.929 . S
C50 C49 1.394 . S
C50 C51 1.382 . S
C51 C50 1.382 . S
C51 C52 1.392 . S
C51 N53 1.420 . S
C52 H46 0.930 . S
C52 C48 1.407 . S
C52 C51 1.392 . S
N53 C51 1.420 . S
N53 C54 1.244 . S
C54 N53 1.244 . S
H55 C58 0.929 . S
H56 C61 0.929 . S
H57 C63 0.930 . S
C58 H55 0.929 . S
C58 C59 1.398 . S
C58 C60 1.396 . S
C59 C58 1.398 . S
C59 C63 1.407 . S
C60 C58 1.396 . S
C60 C61 1.394 . S
C61 H56 0.929 . S
C61 C60 1.394 . S
C61 C62 1.382 . S
C62 C61 1.382 . S
C62 C63 1.392 . S
C62 N64 1.420 . S
C63 H57 0.930 . S
C63 C59 1.407 . S
C63 C62 1.392 . S
N64 C62 1.420 . S
N64 C65 1.244 . S
C65 N64 1.244 . S
H66 C69 0.929 . S
H67 C72 0.929 . S
H68 C74 0.930 . S
C69 H66 0.929 . S
C69 C70 1.398 . S
C69 C71 1.396 . S
C70 C69 1.398 . S
C70 C74 1.407 . S
C71 C69 1.396 . S
C71 C72 1.394 . S
C72 H67 0.929 . S
C72 C71 1.394 . S
C72 C73 1.382 . S
C73 C72 1.382 . S
C73 C74 1.392 . S
C73 N75 1.420 . S
C74 H68 0.930 . S
C74 C70 1.407 . S
C74 C73 1.392 . S
N75 C73 1.420 . S
N75 C76 1.244 . S
C76 N75 1.244 . S
H77 C80 0.929 . S
H78 C83 0.929 . S
H79 C85 0.930 . S
C80 H77 0.929 . S
C80 C81 1.398 . S
C80 C82 1.396 . S
C81 C80 1.398 . S
C81 C85 1.407 . S
C82 C80 1.396 . S
C82 C83 1.394 . S
C83 H78 0.929 . S
C83 C82 1.394 . S
C83 C84 1.382 . S
C84 C83 1.382 . S
C84 C85 1.392 . S
C84 N86 1.420 . S
C85 H79 0.930 . S
C85 C81 1.407 . S
C85 C84 1.392 . S
N86 C84 1.420 . S
N86 C87 1.244 . S
C87 N86 1.244 . S
H88 C91 0.929 . S
H89 C94 0.929 . S
H90 C96 0.930 . S
C91 H88 0.929 . S
C91 C92 1.398 . S
C91 C93 1.396 . S
C92 C91 1.398 . S
C92 C96 1.407 . S
C93 C91 1.396 . S
C93 C94 1.394 . S
C94 H89 0.929 . S
C94 C93 1.394 . S
C94 C95 1.382 . S
C95 C94 1.382 . S
C95 C96 1.392 . S
C95 N97 1.420 . S
C96 H90 0.930 . S
C96 C92 1.407 . S
C96 C95 1.392 . S
N97 C95 1.420 . S
N97 C98 1.244 . S
C98 N97 1.244 . S
H99 C102 0.929 . S
H100 C105 0.929 . S
H101 C107 0.930 . S
C102 H99 0.929 . S
C102 C103 1.398 . S
C102 C104 1.396 . S
C103 C102 1.398 . S
C103 C107 1.407 . S
C104 C102 1.396 . S
C104 C105 1.394 . S
C105 H100 0.929 . S
C105 C104 1.394 . S
C105 C106 1.382 . S
C106 C105 1.382 . S
C106 C107 1.392 . S
C106 N108 1.420 . S
C107 H101 0.930 . S
C107 C103 1.407 . S
C107 C106 1.392 . S
N108 C106 1.420 . S
N108 C109 1.244 . S
C109 N108 1.244 . S
H110 C113 0.929 . S
H111 C116 0.929 . S
H112 C118 0.930 . S
C113 H110 0.929 . S
C113 C114 1.398 . S
C113 C115 1.396 . S
C114 C113 1.398 . S
C114 C118 1.407 . S
C115 C113 1.396 . S
C115 C116 1.394 . S
C116 H111 0.929 . S
C116 C115 1.394 . S
C116 C117 1.382 . S
C117 C116 1.382 . S
C117 C118 1.392 . S
C117 N119 1.420 . S
C118 H112 0.930 . S
C118 C114 1.407 . S
C118 C117 1.392 . S
N119 C117 1.420 . S
N119 C120 1.244 . S
C120 N119 1.244 . S
H121 C124 0.929 . S
H122 C127 0.929 . S
H123 C129 0.930 . S
C124 H121 0.929 . S
C124 C125 1.398 . S
C124 C126 1.396 . S
C125 C124 1.398 . S
C125 C129 1.407 . S
C126 C124 1.396 . S
C126 C127 1.394 . S
C127 H122 0.929 . S
C127 C126 1.394 . S
C127 C128 1.382 . S
C128 C127 1.382 . S
C128 C129 1.392 . S
C128 N130 1.420 . S
C129 H123 0.930 . S
C129 C125 1.407 . S
C129 C128 1.392 . S
N130 C128 1.420 . S
N130 C131 1.244 . S
C131 N130 1.244 . S
H132 C135 0.929 . S
H133 C138 0.929 . S
H134 C140 0.930 . S
C135 H132 0.929 . S
C135 C136 1.398 . S
C135 C137 1.396 . S
C136 C135 1.398 . S
C136 C140 1.407 . S
C137 C135 1.396 . S
C137 C138 1.394 . S
C138 H133 0.929 . S
C138 C137 1.394 . S
C138 C139 1.382 . S
C139 C138 1.382 . S
C139 C140 1.392 . S
C139 N141 1.420 . S
C140 H134 0.930 . S
C140 C136 1.407 . S
C140 C139 1.392 . S
N141 C139 1.420 . S
N141 C142 1.244 . S
C142 N141 1.244 . S
H143 C146 0.929 . S
H144 C149 0.929 . S
H145 C151 0.930 . S
C146 H143 0.929 . S
C146 C147 1.398 . S
C146 C148 1.396 . S
C147 C146 1.398 . S
C147 C151 1.407 . S
C148 C146 1.396 . S
C148 C149 1.394 . S
C149 H144 0.929 . S
C149 C148 1.394 . S
C149 C150 1.382 . S
C150 C149 1.382 . S
C150 C151 1.392 . S
C150 N152 1.420 . S
C151 H145 0.930 . S
C151 C147 1.407 . S
C151 C150 1.392 . S
N152 C150 1.420 . S
N152 C153 1.244 . S
C153 N152 1.244 . S
H154 C157 0.929 . S
H155 C160 0.929 . S
H156 C162 0.930 . S
C157 H154 0.929 . S
C157 C158 1.398 . S
C157 C159 1.396 . S
C158 C157 1.398 . S
C158 C162 1.407 . S
C159 C157 1.396 . S
C159 C160 1.394 . S
C160 H155 0.929 . S
C160 C159 1.394 . S
C160 C161 1.382 . S
C161 C160 1.382 . S
C161 C162 1.392 . S
C161 N163 1.420 . S
C162 H156 0.930 . S
C162 C158 1.407 . S
C162 C161 1.392 . S
N163 C161 1.420 . S
N163 C164 1.244 . S
C164 N163 1.244 . S
H165 C168 0.929 . S
H166 C171 0.929 . S
H167 C173 0.930 . S
C168 H165 0.929 . S
C168 C169 1.398 . S
C168 C170 1.396 . S
C169 C168 1.398 . S
C169 C173 1.407 . S
C170 C168 1.396 . S
C170 C171 1.394 . S
C171 H166 0.929 . S
C171 C170 1.394 . S
C171 C172 1.382 . S
C172 C171 1.382 . S
C172 C173 1.392 . S
C172 N174 1.420 . S
C173 H167 0.930 . S
C173 C169 1.407 . S
C173 C172 1.392 . S
N174 C172 1.420 . S
N174 C175 1.244 . S
C175 N174 1.244 . S
H176 C179 0.929 . S
H177 C182 0.929 . S
H178 C184 0.930 . S
C179 H176 0.929 . S
C179 C180 1.398 . S
C179 C181 1.396 . S
C180 C179 1.398 . S
C180 C184 1.407 . S
C181 C179 1.396 . S
C181 C182 1.394 . S
C182 H177 0.929 . S
C182 C181 1.394 . S
C182 C183 1.382 . S
C183 C182 1.382 . S
C183 C184 1.392 . S
C183 N185 1.420 . S
C184 H178 0.930 . S
C184 C180 1.407 . S
C184 C183 1.392 . S
N185 C183 1.420 . S
N185 C186 1.244 . S
C186 N185 1.244 . S
H187 C190 0.929 . S
H188 C193 0.929 . S
H189 C195 0.930 . S
C190 H187 0.929 . S
C190 C191 1.398 . S
C190 C192 1.396 . S
C191 C190 1.398 . S
C191 C195 1.407 . S
C192 C190 1.396 . S
C192 C193 1.394 . S
C193 H188 0.929 . S
C193 C192 1.394 . S
C193 C194 1.382 . S
C194 C193 1.382 . S
C194 C195 1.392 . S
C194 N196 1.420 . S
C195 H189 0.930 . S
C195 C191 1.407 . S
C195 C194 1.392 . S
N196 C194 1.420 . S
N196 C197 1.244 . S
C197 N196 1.244 . S
Tb198 C208 2.825 1_565 S
Tb198 O209 2.347 1_566 S
Tb198 O212 2.366 1_565 S
Tb198 O217 2.418 . S
Tb198 O218 2.384 1_556 S
Tb198 O221 2.479 . S
Tb198 O222 2.471 1_565 S
Eu199 O210 2.418 . S
Eu199 O211 2.384 . S
Eu199 O214 2.479 . S
Eu199 O215 2.471 1_545 S
Eu199 O216 2.347 1_545 S
Eu199 O219 2.366 1_545 S
Eu199 C229 2.825 . S
C200 O216 1.259 . S
C200 O217 1.265 1_554 S
C201 O218 1.255 . S
C201 O219 1.265 . S
C202 C204 1.380 . S
C202 C205 1.374 . S
C202 C208 1.507 . S
C203 C204 1.384 . S
C203 C207 1.387 . S
C203 H230 0.934 . S
C204 C202 1.380 . S
C204 C203 1.384 . S
C204 H231 0.931 1_545 S
C205 C202 1.374 . S
C205 C206 1.390 . S
C205 H232 0.930 . S
C206 C205 1.390 . S
C206 C207 1.391 . S
C206 H233 0.930 . S
C207 C203 1.387 . S
C207 C206 1.391 . S
C208 Tb198 2.825 1_545 S
C208 C202 1.507 . S
C208 O221 1.238 1_545 S
C208 O222 1.247 . S
O209 Tb198 2.347 1_544 S
O209 C213 1.259 . S
O210 Eu199 2.418 . S
O210 C213 1.265 . S
O211 Eu199 2.384 . S
O211 C220 1.255 . S
O212 Tb198 2.366 1_545 S
O212 C220 1.265 1_556 S
C213 O209 1.259 . S
C213 O210 1.265 . S
O214 Eu199 2.479 . S
O214 C229 1.238 . S
O215 Eu199 2.471 1_565 S
O215 C229 1.247 1_565 S
O216 Eu199 2.347 1_565 S
O216 C200 1.259 . S
O217 Tb198 2.418 . S
O217 C200 1.265 1_556 S
O218 Tb198 2.384 1_554 S
O218 C201 1.255 . S
O219 Eu199 2.366 1_565 S
O219 C201 1.265 . S
C220 O211 1.255 . S
C220 O212 1.265 1_554 S
O221 Tb198 2.479 . S
O221 C208 1.238 1_565 S
O222 Tb198 2.471 1_545 S
O222 C208 1.247 . S
C223 C226 1.380 1_565 S
C223 C227 1.374 . S
C223 C229 1.507 1_565 S
C224 C225 1.387 1_565 S
C224 C228 1.391 . S
C225 C224 1.387 1_545 S
C225 C226 1.384 . S
C225 H234 0.930 . S
C226 C223 1.380 1_545 S
C226 C225 1.384 . S
C226 H235 0.931 . S
C227 C223 1.374 . S
C227 C228 1.390 . S
C227 H236 0.930 . S
C228 C224 1.391 . S
C228 C227 1.390 . S
C228 H237 0.930 . S
C229 Eu199 2.825 . S
C229 O214 1.238 . S
C229 O215 1.247 1_545 S
C229 C223 1.507 1_545 S
H230 C203 0.934 . S
H231 C204 0.931 1_565 S
H232 C205 0.930 . S
H233 C206 0.930 . S
H234 C225 0.930 . S
H235 C226 0.931 . S
H236 C227 0.930 . S
H237 C228 0.930 . S
Tb238 C248 2.825 . S
Tb238 O249 2.310 1_456 S
Tb238 O252 2.366 1_455 S
Tb238 O257 2.418 . S
Tb238 O258 2.384 1_556 S
Tb238 O261 2.479 . S
Tb238 O262 2.471 1_455 S
Eu239 O250 2.418 . S
Eu239 O251 2.384 . S
Eu239 O254 2.479 . S
Eu239 O255 2.471 1_655 S
Eu239 O256 2.347 1_655 S
Eu239 O259 2.366 1_655 S
Eu239 C269 2.825 1_655 S
C240 O256 1.259 . S
C240 O257 1.265 1_554 S
C241 O258 1.255 . S
C241 O259 1.265 . S
C242 C244 1.380 1_655 S
C242 C245 1.374 . S
C242 C248 1.507 1_655 S
C243 C244 1.384 1_655 S
C243 C247 1.387 . S
C243 H270 0.930 1_655 S
C244 C242 1.380 1_455 S
C244 C243 1.384 1_455 S
C244 H271 0.931 . S
C245 C242 1.374 . S
C245 C246 1.390 . S
C245 H272 0.930 . S
C246 C245 1.390 . S
C246 C247 1.391 . S
C246 H273 0.930 . S
C247 C243 1.387 . S
C247 C246 1.391 . S
C248 Tb238 2.825 . S
C248 C242 1.507 1_455 S
C248 O261 1.238 . S
C248 O262 1.247 1_455 S
O249 Tb238 2.310 1_654 S
O249 C253 1.294 . S
O250 Eu239 2.418 . S
O250 C253 1.265 . S
O251 Eu239 2.384 . S
O251 C260 1.255 1_554 S
O252 Tb238 2.366 1_655 S
O252 C260 1.265 . S
C253 O249 1.294 . S
C253 O250 1.265 . S
O254 Eu239 2.479 . S
O254 C269 1.238 1_655 S
O255 Eu239 2.471 1_455 S
O255 C269 1.247 . S
O256 Eu239 2.347 1_455 S
O256 C240 1.259 . S
O257 Tb238 2.418 . S
O257 C240 1.265 1_556 S
O258 Tb238 2.384 1_554 S
O258 C241 1.255 . S
O259 Eu239 2.366 1_455 S
O259 C241 1.265 . S
C260 O251 1.255 1_556 S
C260 O252 1.265 . S
O261 Tb238 2.479 . S
O261 C248 1.238 . S
O262 Tb238 2.471 1_655 S
O262 C248 1.247 1_655 S
C263 C266 1.380 . S
C263 C267 1.374 . S
C263 C269 1.507 . S
C264 C265 1.387 . S
C264 C268 1.391 . S
C265 C264 1.387 . S
C265 C266 1.384 . S
C265 H274 0.930 . S
C266 C263 1.380 . S
C266 C265 1.384 . S
C266 H275 0.931 1_455 S
C267 C263 1.374 . S
C267 C268 1.390 . S
C267 H276 0.930 . S
C268 C264 1.391 . S
C268 C267 1.390 . S
C268 H277 0.930 . S
C269 Eu239 2.825 1_455 S
C269 O254 1.238 1_455 S
C269 O255 1.247 . S
C269 C263 1.507 . S
H270 C243 0.930 1_455 S
H271 C244 0.931 . S
H272 C245 0.930 . S
H273 C246 0.930 . S
H274 C265 0.930 . S
H275 C266 0.931 1_655 S
H276 C267 0.930 . S
H277 C268 0.930 . S
Tb278 C288 2.825 . S
Tb278 O289 2.347 . S
Tb278 O292 2.366 . S
Tb278 O297 2.418 . S
Tb278 O298 2.384 . S
Tb278 O301 2.479 . S
Tb278 O302 2.471 . S
Eu279 O290 2.418 1_556 S
Eu279 O291 2.384 1_556 S
Eu279 O294 2.479 . S
Eu279 O295 2.471 . S
Eu279 O296 2.347 1_556 S
Eu279 O299 2.366 . S
Eu279 C309 2.825 . S
C280 O296 1.259 . S
C280 O297 1.265 . S
C281 O298 1.255 . S
C281 O299 1.265 1_554 S
C282 C284 1.380 . S
C282 C285 1.374 . S
C282 C288 1.507 . S
C283 C284 1.384 . S
C283 C287 1.387 . S
C283 H310 0.930 . S
C284 C282 1.380 . S
C284 C283 1.384 . S
C284 H311 0.931 . S
C285 C282 1.374 . S
C285 C286 1.390 . S
C285 H312 0.930 . S
C286 C285 1.390 . S
C286 C287 1.391 . S
C286 H313 0.930 . S
C287 C283 1.387 . S
C287 C286 1.391 . S
C288 Tb278 2.825 . S
C288 C282 1.507 . S
C288 O301 1.238 . S
C288 O302 1.247 . S
O289 Tb278 2.347 . S
O289 C293 1.259 . S
O290 Eu279 2.418 1_554 S
O290 C293 1.265 . S
O291 Eu279 2.384 1_554 S
O291 C300 1.255 . S
O292 Tb278 2.366 . S
O292 C300 1.265 . S
C293 O289 1.259 . S
C293 O290 1.265 . S
O294 Eu279 2.479 . S
O294 C309 1.238 . S
O295 Eu279 2.471 . S
O295 C309 1.247 . S
O296 Eu279 2.347 1_554 S
O296 C280 1.259 . S
O297 Tb278 2.418 . S
O297 C280 1.265 . S
O298 Tb278 2.384 . S
O298 C281 1.255 . S
O299 Eu279 2.366 . S
O299 C281 1.265 1_556 S
C300 O291 1.255 . S
C300 O292 1.265 . S
O301 Tb278 2.479 . S
O301 C288 1.238 . S
O302 Tb278 2.471 . S
O302 C288 1.247 . S
C303 C306 1.380 . S
C303 C307 1.374 . S
C303 C309 1.507 . S
C304 C305 1.387 . S
C304 C308 1.391 . S
C305 C304 1.387 . S
C305 C306 1.384 . S
C305 H314 0.930 . S
C306 C303 1.380 . S
C306 C305 1.384 . S
C306 H315 0.931 . S
C307 C303 1.374 . S
C307 C308 1.390 . S
C307 H316 0.930 . S
C308 C304 1.391 . S
C308 C307 1.390 . S
C308 H317 0.930 . S
C309 Eu279 2.825 . S
C309 O294 1.238 . S
C309 O295 1.247 . S
C309 C303 1.507 . S
H310 C283 0.930 . S
H311 C284 0.931 . S
H312 C285 0.930 . S
H313 C286 0.930 . S
H314 C305 0.930 . S
H315 C306 0.931 . S
H316 C307 0.930 . S
H317 C308 0.930 . S
Tb318 C328 2.825 . S
Tb318 O329 2.347 . S
Tb318 O332 2.366 . S
Tb318 O337 2.418 . S
Tb318 O338 2.384 . S
Tb318 O341 2.479 . S
Tb318 O342 2.471 . S
Eu319 O330 2.418 . S
Eu319 O331 2.384 . S
Eu319 O334 2.479 . S
Eu319 O335 2.471 . S
Eu319 O336 2.347 . S
Eu319 O339 2.366 . S
Eu319 C349 2.825 . S
C320 O336 1.259 . S
C320 O337 1.265 . S
C321 O338 1.255 . S
C321 O339 1.265 . S
C322 C324 1.380 . S
C322 C325 1.374 . S
C322 C328 1.507 . S
C323 C324 1.384 . S
C323 C327 1.387 . S
C323 H350 0.930 . S
C324 C322 1.380 . S
C324 C323 1.384 . S
C324 H351 0.931 . S
C325 C322 1.374 . S
C325 C326 1.390 . S
C325 H352 0.930 . S
C326 C325 1.390 . S
C326 C327 1.391 . S
C326 H353 0.930 . S
C327 C323 1.387 . S
C327 C326 1.391 . S
C328 Tb318 2.825 . S
C328 C322 1.507 . S
C328 O341 1.238 . S
C328 O342 1.247 . S
O329 Tb318 2.347 . S
O329 C333 1.259 . S
O330 Eu319 2.418 . S
O330 C333 1.265 . S
O331 Eu319 2.384 . S
O331 C340 1.255 . S
O332 Tb318 2.366 . S
O332 C340 1.265 . S
C333 O329 1.259 . S
C333 O330 1.265 . S
O334 Eu319 2.479 . S
O334 C349 1.238 . S
O335 Eu319 2.471 . S
O335 C349 1.247 . S
O336 Eu319 2.347 . S
O336 C320 1.259 . S
O337 Tb318 2.418 . S
O337 C320 1.265 . S
O338 Tb318 2.384 . S
O338 C321 1.255 . S
O339 Eu319 2.366 . S
O339 C321 1.265 . S
C340 O331 1.255 . S
C340 O332 1.265 . S
O341 Tb318 2.479 . S
O341 C328 1.238 . S
O342 Tb318 2.471 . S
O342 C328 1.247 . S
C343 C346 1.380 . S
C343 C347 1.374 . S
C343 C349 1.507 . S
C344 C345 1.387 . S
C344 C348 1.391 . S
C345 C344 1.387 . S
C345 C346 1.384 . S
C345 H354 0.930 . S
C346 C343 1.380 . S
C346 C345 1.384 . S
C346 H355 0.931 . S
C347 C343 1.374 . S
C347 C348 1.390 . S
C347 H356 0.930 . S
C348 C344 1.391 . S
C348 C347 1.390 . S
C348 H357 0.930 . S
C349 Eu319 2.825 . S
C349 O334 1.238 . S
C349 O335 1.247 . S
C349 C343 1.507 . S
H350 C323 0.930 . S
H351 C324 0.931 . S
H352 C325 0.930 . S
H353 C326 0.930 . S
H354 C345 0.930 . S
H355 C346 0.931 . S
H356 C347 0.930 . S
H357 C348 0.930 . S
Tb358 C368 2.825 . S
Tb358 O369 2.347 . S
Tb358 O372 2.366 . S
Tb358 O377 2.418 . S
Tb358 O378 2.384 . S
Tb358 O381 2.479 . S
Tb358 O382 2.471 . S
Eu359 O370 2.418 . S
Eu359 O371 2.384 . S
Eu359 O374 2.479 . S
Eu359 O375 2.471 . S
Eu359 O376 2.347 . S
Eu359 O379 2.366 . S
Eu359 C389 2.825 . S
C360 O376 1.259 . S
C360 O377 1.265 . S
C361 O378 1.255 . S
C361 O379 1.265 . S
C362 C364 1.380 . S
C362 C365 1.374 . S
C362 C368 1.507 . S
C363 C364 1.384 . S
C363 C367 1.387 . S
C363 H390 0.930 . S
C364 C362 1.380 . S
C364 C363 1.384 . S
C364 H391 0.931 . S
C365 C362 1.374 . S
C365 C366 1.390 . S
C365 H392 0.930 . S
C366 C365 1.390 . S
C366 C367 1.391 . S
C366 H393 0.930 . S
C367 C363 1.387 . S
C367 C366 1.391 . S
C368 Tb358 2.825 . S
C368 C362 1.507 . S
C368 O381 1.238 . S
C368 O382 1.247 . S
O369 Tb358 2.347 . S
O369 C373 1.259 . S
O370 Eu359 2.418 . S
O370 C373 1.265 . S
O371 Eu359 2.384 . S
O371 C380 1.255 . S
O372 Tb358 2.366 . S
O372 C380 1.265 . S
C373 O369 1.259 . S
C373 O370 1.265 . S
O374 Eu359 2.479 . S
O374 C389 1.238 . S
O375 Eu359 2.471 . S
O375 C389 1.247 . S
O376 Eu359 2.347 . S
O376 C360 1.259 . S
O377 Tb358 2.418 . S
O377 C360 1.265 . S
O378 Tb358 2.384 . S
O378 C361 1.255 . S
O379 Eu359 2.366 . S
O379 C361 1.265 . S
C380 O371 1.255 . S
C380 O372 1.265 . S
O381 Tb358 2.479 . S
O381 C368 1.238 . S
O382 Tb358 2.471 . S
O382 C368 1.247 . S
C383 C386 1.380 . S
C383 C387 1.374 . S
C383 C389 1.507 . S
C384 C385 1.387 . S
C384 C388 1.391 . S
C385 C384 1.387 . S
C385 C386 1.384 . S
C385 H394 0.930 . S
C386 C383 1.380 . S
C386 C385 1.384 . S
C386 H395 0.931 . S
C387 C383 1.374 . S
C387 C388 1.390 . S
C387 H396 0.930 . S
C388 C384 1.391 . S
C388 C387 1.390 . S
C388 H397 0.930 . S
C389 Eu359 2.825 . S
C389 O374 1.238 . S
C389 O375 1.247 . S
C389 C383 1.507 . S
H390 C363 0.930 . S
H391 C364 0.931 . S
H392 C365 0.930 . S
H393 C366 0.930 . S
H394 C385 0.930 . S
H395 C386 0.931 . S
H396 C387 0.930 . S
H397 C388 0.930 . S
Tb398 C408 2.825 . S
Tb398 O409 2.347 . S
Tb398 O412 2.366 . S
Tb398 O417 2.418 . S
Tb398 O418 2.384 . S
Tb398 O421 2.479 . S
Tb398 O422 2.471 . S
Eu399 O410 2.418 . S
Eu399 O411 2.384 . S
Eu399 O414 2.479 . S
Eu399 O415 2.471 . S
Eu399 O416 2.347 . S
Eu399 O419 2.366 . S
Eu399 C429 2.825 . S
C400 O416 1.259 . S
C400 O417 1.265 . S
C401 O418 1.255 . S
C401 O419 1.265 . S
C402 C404 1.380 . S
C402 C405 1.374 . S
C402 C408 1.507 . S
C403 C404 1.384 . S
C403 C407 1.387 . S
C403 H430 0.930 . S
C404 C402 1.380 . S
C404 C403 1.384 . S
C404 H431 0.931 . S
C405 C402 1.374 . S
C405 C406 1.390 . S
C405 H432 0.930 . S
C406 C405 1.390 . S
C406 C407 1.391 . S
C406 H433 0.930 . S
C407 C403 1.387 . S
C407 C406 1.391 . S
C408 Tb398 2.825 . S
C408 C402 1.507 . S
C408 O421 1.238 . S
C408 O422 1.247 . S
O409 Tb398 2.347 . S
O409 C413 1.259 . S
O410 Eu399 2.418 . S
O410 C413 1.265 . S
O411 Eu399 2.384 . S
O411 C420 1.255 . S
O412 Tb398 2.366 . S
O412 C420 1.265 . S
C413 O409 1.259 . S
C413 O410 1.265 . S
O414 Eu399 2.479 . S
O414 C429 1.238 . S
O415 Eu399 2.471 . S
O415 C429 1.247 . S
O416 Eu399 2.347 . S
O416 C400 1.259 . S
O417 Tb398 2.418 . S
O417 C400 1.265 . S
O418 Tb398 2.384 . S
O418 C401 1.255 . S
O419 Eu399 2.366 . S
O419 C401 1.265 . S
C420 O411 1.255 . S
C420 O412 1.265 . S
O421 Tb398 2.479 . S
O421 C408 1.238 . S
O422 Tb398 2.471 . S
O422 C408 1.247 . S
C423 C426 1.380 . S
C423 C427 1.374 . S
C423 C429 1.507 . S
C424 C425 1.387 . S
C424 C428 1.391 . S
C425 C424 1.387 . S
C425 C426 1.384 . S
C425 H434 0.930 . S
C426 C423 1.380 . S
C426 C425 1.384 . S
C426 H435 0.931 . S
C427 C423 1.374 . S
C427 C428 1.390 . S
C427 H436 0.930 . S
C428 C424 1.391 . S
C428 C427 1.390 . S
C428 H437 0.930 . S
C429 Eu399 2.825 . S
C429 O414 1.238 . S
C429 O415 1.247 . S
C429 C423 1.507 . S
H430 C403 0.930 . S
H431 C404 0.931 . S
H432 C405 0.930 . S
H433 C406 0.930 . S
H434 C425 0.930 . S
H435 C426 0.931 . S
H436 C427 0.930 . S
H437 C428 0.930 . S
Tb438 C448 2.825 . S
Tb438 O449 2.347 . S
Tb438 O452 2.366 . S
Tb438 O457 2.418 . S
Tb438 O458 2.384 . S
Tb438 O461 2.479 . S
Tb438 O462 2.471 . S
Eu439 O450 2.418 . S
Eu439 O451 2.384 . S
Eu439 O454 2.479 . S
Eu439 O455 2.471 . S
Eu439 O456 2.347 . S
Eu439 O459 2.366 . S
Eu439 C469 2.825 . S
C440 O456 1.259 . S
C440 O457 1.265 . S
C441 O458 1.255 . S
C441 O459 1.265 . S
C442 C444 1.380 . S
C442 C445 1.374 . S
C442 C448 1.507 . S
C443 C444 1.384 . S
C443 C447 1.387 . S
C443 H470 0.930 . S
C444 C442 1.380 . S
C444 C443 1.384 . S
C444 H471 0.931 . S
C445 C442 1.374 . S
C445 C446 1.390 . S
C445 H472 0.930 . S
C446 C445 1.390 . S
C446 C447 1.391 . S
C446 H473 0.930 . S
C447 C443 1.387 . S
C447 C446 1.391 . S
C448 Tb438 2.825 . S
C448 C442 1.507 . S
C448 O461 1.238 . S
C448 O462 1.247 . S
O449 Tb438 2.347 . S
O449 C453 1.259 . S
O450 Eu439 2.418 . S
O450 C453 1.265 . S
O451 Eu439 2.384 . S
O451 C460 1.255 . S
O452 Tb438 2.366 . S
O452 C460 1.265 . S
C453 O449 1.259 . S
C453 O450 1.265 . S
O454 Eu439 2.479 . S
O454 C469 1.238 . S
O455 Eu439 2.471 . S
O455 C469 1.247 . S
O456 Eu439 2.347 . S
O456 C440 1.259 . S
O457 Tb438 2.418 . S
O457 C440 1.265 . S
O458 Tb438 2.384 . S
O458 C441 1.255 . S
O459 Eu439 2.366 . S
O459 C441 1.265 . S
C460 O451 1.255 . S
C460 O452 1.265 . S
O461 Tb438 2.479 . S
O461 C448 1.238 . S
O462 Tb438 2.471 . S
O462 C448 1.247 . S
C463 C466 1.380 . S
C463 C467 1.374 . S
C463 C469 1.507 . S
C464 C465 1.387 . S
C464 C468 1.391 . S
C465 C464 1.387 . S
C465 C466 1.384 . S
C465 H474 0.930 . S
C466 C463 1.380 . S
C466 C465 1.384 . S
C466 H475 0.931 . S
C467 C463 1.374 . S
C467 C468 1.390 . S
C467 H476 0.930 . S
C468 C464 1.391 . S
C468 C467 1.390 . S
C468 H477 0.930 . S
C469 Eu439 2.825 . S
C469 O454 1.238 . S
C469 O455 1.247 . S
C469 C463 1.507 . S
H470 C443 0.930 . S
H471 C444 0.931 . S
H472 C445 0.930 . S
H473 C446 0.930 . S
H474 C465 0.930 . S
H475 C466 0.931 . S
H476 C467 0.930 . S
H477 C468 0.930 . S
Tb478 C488 2.825 . S
Tb478 O489 2.347 . S
Tb478 O492 2.366 . S
Tb478 O497 2.418 . S
Tb478 O498 2.384 . S
Tb478 O501 2.479 . S
Tb478 O502 2.471 . S
Eu479 O490 2.418 . S
Eu479 O491 2.384 . S
Eu479 O494 2.479 . S
Eu479 O495 2.471 . S
Eu479 O496 2.347 . S
Eu479 O499 2.366 . S
Eu479 C509 2.825 . S
C480 O496 1.259 . S
C480 O497 1.265 . S
C481 O498 1.255 . S
C481 O499 1.265 . S
C482 C484 1.380 . S
C482 C485 1.374 . S
C482 C488 1.507 . S
C483 C484 1.384 . S
C483 C487 1.387 . S
C483 H510 0.930 . S
C484 C482 1.380 . S
C484 C483 1.384 . S
C484 H511 0.931 . S
C485 C482 1.374 . S
C485 C486 1.390 . S
C485 H512 0.930 . S
C486 C485 1.390 . S
C486 C487 1.391 . S
C486 H513 0.930 . S
C487 C483 1.387 . S
C487 C486 1.391 . S
C488 Tb478 2.825 . S
C488 C482 1.507 . S
C488 O501 1.238 . S
C488 O502 1.247 . S
O489 Tb478 2.347 . S
O489 C493 1.259 . S
O490 Eu479 2.418 . S
O490 C493 1.265 . S
O491 Eu479 2.384 . S
O491 C500 1.255 . S
O492 Tb478 2.366 . S
O492 C500 1.265 . S
C493 O489 1.259 . S
C493 O490 1.265 . S
O494 Eu479 2.479 . S
O494 C509 1.238 . S
O495 Eu479 2.471 . S
O495 C509 1.247 . S
O496 Eu479 2.347 . S
O496 C480 1.259 . S
O497 Tb478 2.418 . S
O497 C480 1.265 . S
O498 Tb478 2.384 . S
O498 C481 1.255 . S
O499 Eu479 2.366 . S
O499 C481 1.265 . S
C500 O491 1.255 . S
C500 O492 1.265 . S
O501 Tb478 2.479 . S
O501 C488 1.238 . S
O502 Tb478 2.471 . S
O502 C488 1.247 . S
C503 C506 1.380 . S
C503 C507 1.374 . S
C503 C509 1.507 . S
C504 C505 1.387 . S
C504 C508 1.391 . S
C505 C504 1.387 . S
C505 C506 1.384 . S
C505 H514 0.930 . S
C506 C503 1.380 . S
C506 C505 1.384 . S
C506 H515 0.931 . S
C507 C503 1.374 . S
C507 C508 1.390 . S
C507 H516 0.930 . S
C508 C504 1.391 . S
C508 C507 1.390 . S
C508 H517 0.930 . S
C509 Eu479 2.825 . S
C509 O494 1.238 . S
C509 O495 1.247 . S
C509 C503 1.507 . S
H510 C483 0.930 . S
H511 C484 0.931 . S
H512 C485 0.930 . S
H513 C486 0.930 . S
H514 C505 0.930 . S
H515 C506 0.931 . S
H516 C507 0.930 . S
H517 C508 0.930 . S
Tb518 C528 2.825 . S
Tb518 O529 2.347 . S
Tb518 O532 2.366 . S
Tb518 O537 2.418 . S
Tb518 O538 2.384 . S
Tb518 O541 2.479 . S
Tb518 O542 2.471 . S
Eu519 O530 2.418 . S
Eu519 O531 2.384 . S
Eu519 O534 2.479 . S
Eu519 O535 2.471 . S
Eu519 O536 2.347 . S
Eu519 O539 2.366 . S
Eu519 C549 2.825 . S
C520 O536 1.259 . S
C520 O537 1.265 . S
C521 O538 1.255 . S
C521 O539 1.265 . S
C522 C524 1.380 . S
C522 C525 1.374 . S
C522 C528 1.507 . S
C523 C524 1.384 . S
C523 C527 1.387 . S
C523 H550 0.930 . S
C524 C522 1.380 . S
C524 C523 1.384 . S
C524 H551 0.931 . S
C525 C522 1.374 . S
C525 C526 1.390 . S
C525 H552 0.930 . S
C526 C525 1.390 . S
C526 C527 1.391 . S
C526 H553 0.930 . S
C527 C523 1.387 . S
C527 C526 1.391 . S
C528 Tb518 2.825 . S
C528 C522 1.507 . S
C528 O541 1.238 . S
C528 O542 1.247 . S
O529 Tb518 2.347 . S
O529 C533 1.259 . S
O530 Eu519 2.418 . S
O530 C533 1.265 . S
O531 Eu519 2.384 . S
O531 C540 1.255 . S
O532 Tb518 2.366 . S
O532 C540 1.265 . S
C533 O529 1.259 . S
C533 O530 1.265 . S
O534 Eu519 2.479 . S
O534 C549 1.238 . S
O535 Eu519 2.471 . S
O535 C549 1.247 . S
O536 Eu519 2.347 . S
O536 C520 1.259 . S
O537 Tb518 2.418 . S
O537 C520 1.265 . S
O538 Tb518 2.384 . S
O538 C521 1.255 . S
O539 Eu519 2.366 . S
O539 C521 1.265 . S
C540 O531 1.255 . S
C540 O532 1.265 . S
O541 Tb518 2.479 . S
O541 C528 1.238 . S
O542 Tb518 2.471 . S
O542 C528 1.247 . S
C543 C546 1.380 . S
C543 C547 1.374 . S
C543 C549 1.507 . S
C544 C545 1.387 . S
C544 C548 1.391 . S
C545 C544 1.387 . S
C545 C546 1.384 . S
C545 H554 0.930 . S
C546 C543 1.380 . S
C546 C545 1.384 . S
C546 H555 0.931 . S
C547 C543 1.374 . S
C547 C548 1.390 . S
C547 H556 0.930 . S
C548 C544 1.391 . S
C548 C547 1.390 . S
C548 H557 0.930 . S
C549 Eu519 2.825 . S
C549 O534 1.238 . S
C549 O535 1.247 . S
C549 C543 1.507 . S
H550 C523 0.930 . S
H551 C524 0.931 . S
H552 C525 0.930 . S
H553 C526 0.930 . S
H554 C545 0.930 . S
H555 C546 0.931 . S
H556 C547 0.930 . S
H557 C548 0.930 . S
C558 C559 1.349 . S
C558 C560 1.327 . S
C558 H583 0.950 . S
C559 C558 1.349 . S
C559 C575 1.349 . S
C560 C558 1.327 . S
C560 C579 1.429 . S
C560 H584 0.950 . S
C561 C578 1.574 . S
C561 C580 1.368 . S
C561 H585 0.949 . S
H562 C566 0.949 . S
C563 C564 1.349 . S
C563 C565 1.327 . S
C563 H586 0.950 . S
C564 C563 1.349 . S
C564 C576 1.349 . S
C565 C563 1.327 . S
C565 C581 1.429 . S
C565 H587 0.950 . S
C566 H562 0.949 . S
C566 C574 1.574 . S
C566 C582 1.368 . S
H567 C575 0.950 . S
H568 C573 0.950 . S
H569 C574 0.949 . S
H570 C576 0.950 . S
H571 C577 0.950 . S
H572 C578 0.949 . S
C573 H568 0.950 . S
C573 C575 1.327 . S
C573 C579 1.429 . S
C574 C566 1.574 . S
C574 H569 0.949 . S
C574 C580 1.368 . S
C575 C559 1.349 . S
C575 H567 0.950 . S
C575 C573 1.327 . S
C576 C564 1.349 . S
C576 H570 0.950 . S
C576 C577 1.327 . S
C577 H571 0.950 . S
C577 C576 1.327 . S
C577 C581 1.429 . S
C578 C561 1.574 . S
C578 H572 0.949 . S
C578 C582 1.368 . S
C579 C560 1.429 . S
C579 C573 1.429 . S
C579 C580 1.523 . S
C580 C561 1.368 . S
C580 C574 1.368 . S
C580 C579 1.523 . S
C581 C565 1.429 . S
C581 C577 1.429 . S
C581 C582 1.523 . S
C582 C566 1.368 . S
C582 C578 1.368 . S
C582 C581 1.523 . S
H583 C558 0.950 . S
H584 C560 0.950 . S
H585 C561 0.949 . S
H586 C563 0.950 . S
H587 C565 0.950 . S
C588 C589 1.349 . S
C588 C590 1.327 . S
C588 H613 0.950 . S
C589 C588 1.349 . S
C589 C605 1.349 . S
C590 C588 1.327 . S
C590 C609 1.429 . S
C590 H614 0.950 . S
C591 C608 1.574 . S
C591 C610 1.368 . S
C591 H615 0.949 . S
H592 C596 0.949 . S
C593 C594 1.349 . S
C593 C595 1.327 . S
C593 H616 0.950 . S
C594 C593 1.349 . S
C594 C606 1.349 . S
C595 C593 1.327 . S
C595 C611 1.429 . S
C595 H617 0.950 . S
C596 H592 0.949 . S
C596 C604 1.574 . S
C596 C612 1.368 . S
H597 C605 0.950 . S
H598 C603 0.950 . S
H599 C604 0.949 . S
H600 C606 0.950 . S
H601 C607 0.950 . S
H602 C608 0.949 . S
C603 H598 0.950 . S
C603 C605 1.327 . S
C603 C609 1.429 . S
C604 C596 1.574 . S
C604 H599 0.949 . S
C604 C610 1.368 . S
C605 C589 1.349 . S
C605 H597 0.950 . S
C605 C603 1.327 . S
C606 C594 1.349 . S
C606 H600 0.950 . S
C606 C607 1.327 . S
C607 H601 0.950 . S
C607 C606 1.327 . S
C607 C611 1.429 . S
C608 C591 1.574 . S
C608 H602 0.949 . S
C608 C612 1.368 . S
C609 C590 1.429 . S
C609 C603 1.429 . S
C609 C610 1.523 . S
C610 C591 1.368 . S
C610 C604 1.368 . S
C610 C609 1.523 . S
C611 C595 1.429 . S
C611 C607 1.429 . S
C611 C612 1.523 . S
C612 C596 1.368 . S
C612 C608 1.368 . S
C612 C611 1.523 . S
H613 C588 0.950 . S
H614 C590 0.950 . S
H615 C591 0.949 . S
H616 C593 0.950 . S
H617 C595 0.950 . S
C618 C619 1.349 . S
C618 C620 1.327 . S
C618 H643 0.950 . S
C619 C618 1.349 . S
C619 C635 1.349 . S
C620 C618 1.327 . S
C620 C639 1.429 . S
C620 H644 0.950 . S
C621 C638 1.574 . S
C621 C640 1.368 . S
C621 H645 0.949 . S
H622 C626 0.949 . S
C623 C624 1.349 . S
C623 C625 1.327 . S
C623 H646 0.950 . S
C624 C623 1.349 . S
C624 C636 1.349 . S
C625 C623 1.327 . S
C625 C641 1.429 . S
C625 H647 0.950 . S
C626 H622 0.949 . S
C626 C634 1.574 . S
C626 C642 1.368 . S
H627 C635 0.950 . S
H628 C633 0.950 . S
H629 C634 0.949 . S
H630 C636 0.950 . S
H631 C637 0.950 . S
H632 C638 0.949 . S
C633 H628 0.950 . S
C633 C635 1.327 . S
C633 C639 1.429 . S
C634 C626 1.574 . S
C634 H629 0.949 . S
C634 C640 1.368 . S
C635 C619 1.349 . S
C635 H627 0.950 . S
C635 C633 1.327 . S
C636 C624 1.349 . S
C636 H630 0.950 . S
C636 C637 1.327 . S
C637 H631 0.950 . S
C637 C636 1.327 . S
C637 C641 1.429 . S
C638 C621 1.574 . S
C638 H632 0.949 . S
C638 C642 1.368 . S
C639 C620 1.429 . S
C639 C633 1.429 . S
C639 C640 1.523 . S
C640 C621 1.368 . S
C640 C634 1.368 . S
C640 C639 1.523 . S
C641 C625 1.429 . S
C641 C637 1.429 . S
C641 C642 1.523 . S
C642 C626 1.368 . S
C642 C638 1.368 . S
C642 C641 1.523 . S
H643 C618 0.950 . S
H644 C620 0.950 . S
H645 C621 0.949 . S
H646 C623 0.950 . S
H647 C625 0.950 . S
C648 C649 1.349 . S
C648 C650 1.327 . S
C648 H673 0.950 . S
C649 C648 1.349 . S
C649 C665 1.349 . S
C650 C648 1.327 . S
C650 C669 1.429 . S
C650 H674 0.950 . S
C651 C668 1.574 . S
C651 C670 1.368 . S
C651 H675 0.949 . S
H652 C656 0.949 1_554 S
C653 C654 1.366 . S
C653 C655 1.327 . S
C653 H676 0.950 . S
C654 C653 1.366 . S
C654 C666 1.336 1_556 S
C655 C653 1.327 . S
C655 C671 1.429 . S
C655 H677 0.950 . S
C656 H652 0.949 1_556 S
C656 C664 1.574 . S
C656 C672 1.368 . S
H657 C665 0.950 . S
H658 C663 0.950 . S
H659 C664 0.949 . S
H660 C666 0.950 . S
H661 C667 0.950 . S
H662 C668 0.949 . S
C663 H658 0.950 . S
C663 C665 1.327 . S
C663 C669 1.429 . S
C664 C656 1.574 . S
C664 H659 0.949 . S
C664 C670 1.368 . S
C665 C649 1.349 . S
C665 H657 0.950 . S
C665 C663 1.327 . S
C666 C654 1.336 1_554 S
C666 H660 0.950 . S
C666 C667 1.327 . S
C667 H661 0.950 . S
C667 C666 1.327 . S
C667 C671 1.429 1_554 S
C668 C651 1.574 . S
C668 H662 0.949 . S
C668 C672 1.368 . S
C669 C650 1.429 . S
C669 C663 1.429 . S
C669 C670 1.523 . S
C670 C651 1.368 . S
C670 C664 1.368 . S
C670 C669 1.523 . S
C671 C655 1.429 . S
C671 C667 1.429 1_556 S
C671 C672 1.523 . S
C672 C656 1.368 . S
C672 C668 1.368 . S
C672 C671 1.523 . S
H673 C648 0.950 . S
H674 C650 0.950 . S
H675 C651 0.949 . S
H676 C653 0.950 . S
H677 C655 0.950 . S
C678 C679 1.349 . S
C678 C680 1.327 . S
C678 H703 0.950 . S
C679 C678 1.349 . S
C679 C695 1.349 . S
C680 C678 1.327 . S
C680 C699 1.429 . S
C680 H704 0.950 . S
C681 C698 1.574 . S
C681 C700 1.368 . S
C681 H705 0.949 . S
H682 C686 0.949 . S
C683 C684 1.349 . S
C683 C685 1.327 . S
C683 H706 0.950 . S
C684 C683 1.349 . S
C684 C696 1.349 . S
C685 C683 1.327 . S
C685 C701 1.429 . S
C685 H707 0.950 . S
C686 H682 0.949 . S
C686 C694 1.574 . S
C686 C702 1.368 . S
H687 C695 0.950 . S
H688 C693 0.950 . S
H689 C694 0.949 . S
H690 C696 0.973 . S
H691 C697 0.950 . S
H692 C698 0.949 . S
C693 H688 0.950 . S
C693 C695 1.327 . S
C693 C699 1.429 . S
C694 C686 1.574 . S
C694 H689 0.949 . S
C694 C700 1.368 . S
C695 C679 1.349 . S
C695 H687 0.950 . S
C695 C693 1.327 . S
C696 C684 1.349 . S
C696 H690 0.973 . S
C696 C697 1.327 . S
C697 H691 0.950 . S
C697 C696 1.327 . S
C697 C701 1.429 . S
C698 C681 1.574 . S
C698 H692 0.949 . S
C698 C702 1.368 . S
C699 C680 1.429 . S
C699 C693 1.429 . S
C699 C700 1.523 . S
C700 C681 1.368 . S
C700 C694 1.368 . S
C700 C699 1.523 . S
C701 C685 1.429 . S
C701 C697 1.429 . S
C701 C702 1.523 . S
C702 C686 1.368 . S
C702 C698 1.368 . S
C702 C701 1.523 . S
H703 C678 0.950 . S
H704 C680 0.950 . S
H705 C681 0.949 . S
H706 C683 0.950 . S
H707 C685 0.950 . S
C708 C709 1.349 . S
C708 C710 1.327 . S
C708 H733 0.950 . S
C709 C708 1.349 . S
C709 C725 1.349 . S
C710 C708 1.327 . S
C710 C729 1.429 . S
C710 H734 0.950 . S
C711 C728 1.574 . S
C711 C730 1.368 1_554 S
C711 H735 0.949 . S
H712 C716 0.949 . S
C713 C714 1.349 . S
C713 C715 1.327 . S
C713 H736 0.950 . S
C714 C713 1.349 . S
C714 C726 1.349 1_554 S
C715 C713 1.327 . S
C715 C731 1.429 1_554 S
C715 H737 0.950 . S
C716 H712 0.949 . S
C716 C724 1.574 . S
C716 C732 1.368 . S
H717 C725 0.950 1_554 S
H718 C723 0.950 1_554 S
H719 C724 0.949 . S
H720 C726 0.950 . S
H721 C727 0.950 . S
H722 C728 0.949 . S
C723 H718 0.950 1_556 S
C723 C725 1.327 . S
C723 C729 1.429 . S
C724 C716 1.574 . S
C724 H719 0.949 . S
C724 C730 1.368 . S
C725 C709 1.349 . S
C725 H717 0.950 1_556 S
C725 C723 1.327 . S
C726 C714 1.349 1_556 S
C726 H720 0.950 . S
C726 C727 1.327 . S
C727 H721 0.950 . S
C727 C726 1.327 . S
C727 C731 1.429 . S
C728 C711 1.574 . S
C728 H722 0.949 . S
C728 C732 1.368 1_554 S
C729 C710 1.429 . S
C729 C723 1.429 . S
C729 C730 1.523 . S
C730 C711 1.368 1_556 S
C730 C724 1.368 . S
C730 C729 1.523 . S
C731 C715 1.429 1_556 S
C731 C727 1.429 . S
C731 C732 1.523 . S
C732 C716 1.368 . S
C732 C728 1.368 1_556 S
C732 C731 1.523 . S
H733 C708 0.950 . S
H734 C710 0.950 . S
H735 C711 0.949 . S
H736 C713 0.950 . S
H737 C715 0.950 . S
C738 C739 1.349 . S
C738 C740 1.327 . S
C738 H763 0.950 . S
C739 C738 1.349 . S
C739 C755 1.349 . S
C740 C738 1.327 . S
C740 C759 1.429 . S
C740 H764 0.950 . S
C741 C758 1.574 . S
C741 C760 1.368 . S
C741 H765 0.949 . S
H742 C746 0.949 . S
C743 C744 1.355 . S
C743 C745 1.338 . S
C743 H766 0.934 1_556 S
C744 C743 1.355 . S
C744 C756 1.349 . S
C745 C743 1.338 . S
C745 C761 1.429 . S
C745 H767 0.950 . S
C746 H742 0.949 . S
C746 C754 1.574 . S
C746 C762 1.368 . S
H747 C755 0.950 . S
H748 C753 0.950 . S
H749 C754 0.949 . S
H750 C756 0.950 . S
H751 C757 0.950 . S
H752 C758 0.949 . S
C753 H748 0.950 . S
C753 C755 1.327 . S
C753 C759 1.429 . S
C754 C746 1.574 . S
C754 H749 0.949 . S
C754 C760 1.368 . S
C755 C739 1.349 . S
C755 H747 0.950 . S
C755 C753 1.327 . S
C756 C744 1.349 . S
C756 H750 0.950 . S
C756 C757 1.327 . S
C757 H751 0.950 . S
C757 C756 1.327 . S
C757 C761 1.429 . S
C758 C741 1.574 . S
C758 H752 0.949 . S
C758 C762 1.368 . S
C759 C740 1.429 . S
C759 C753 1.429 . S
C759 C760 1.523 . S
C760 C741 1.368 . S
C760 C754 1.368 . S
C760 C759 1.523 . S
C761 C745 1.429 . S
C761 C757 1.429 . S
C761 C762 1.523 . S
C762 C746 1.368 . S
C762 C758 1.368 . S
C762 C761 1.523 . S
H763 C738 0.950 . S
H764 C740 0.950 . S
H765 C741 0.949 . S
H766 C743 0.934 1_554 S
H767 C745 0.950 . S
C768 C769 1.349 . S
C768 C770 1.327 . S
C768 H793 0.950 . S
C769 C768 1.349 . S
C769 C785 1.349 . S
C770 C768 1.327 . S
C770 C789 1.429 . S
C770 H794 0.950 . S
C771 C788 1.574 . S
C771 C790 1.368 . S
C771 H795 0.949 . S
H772 C776 0.949 . S
C773 C774 1.349 1_554 S
C773 C775 1.327 1_554 S
C773 H796 0.950 . S
C774 C773 1.349 1_556 S
C774 C786 1.349 . S
C775 C773 1.327 1_556 S
C775 C791 1.429 . S
C775 H797 0.950 1_556 S
C776 H772 0.949 . S
C776 C784 1.574 . S
C776 C792 1.368 . S
H777 C785 0.950 . S
H778 C783 0.950 . S
H779 C784 0.949 . S
H780 C786 0.950 . S
H781 C787 0.950 . S
H782 C788 0.928 1_554 S
C783 H778 0.950 . S
C783 C785 1.327 . S
C783 C789 1.429 . S
C784 C776 1.574 . S
C784 H779 0.949 . S
C784 C790 1.368 . S
C785 C769 1.349 . S
C785 H777 0.950 . S
C785 C783 1.327 . S
C786 C774 1.349 . S
C786 H780 0.950 . S
C786 C787 1.327 . S
C787 H781 0.950 . S
C787 C786 1.327 . S
C787 C791 1.429 . S
C788 C771 1.574 . S
C788 H782 0.928 1_556 S
C788 C792 1.368 . S
C789 C770 1.429 . S
C789 C783 1.429 . S
C789 C790 1.523 . S
C790 C771 1.368 . S
C790 C784 1.368 . S
C790 C789 1.523 . S
C791 C775 1.429 . S
C791 C787 1.429 . S
C791 C792 1.523 . S
C792 C776 1.368 . S
C792 C788 1.368 . S
C792 C791 1.523 . S
H793 C768 0.950 . S
H794 C770 0.950 . S
H795 C771 0.949 . S
H796 C773 0.950 . S
H797 C775 0.950 1_554 S
C798 C799 1.349 . S
C798 C800 1.327 . S
C798 H823 0.950 . S
C799 C798 1.349 . S
C799 C815 1.314 1_556 S
C800 C798 1.327 . S
C800 C819 1.429 . S
C800 H824 0.950 . S
C801 C818 1.574 . S
C801 C820 1.368 1_554 S
C801 H825 0.949 . S
H802 C806 0.949 . S
C803 C804 1.349 . S
C803 C805 1.327 . S
C803 H826 0.950 . S
C804 C803 1.349 . S
C804 C816 1.349 1_554 S
C805 C803 1.327 . S
C805 C821 1.429 . S
C805 H827 0.950 . S
C806 H802 0.949 . S
C806 C814 1.574 . S
C806 C822 1.377 . S
H807 C815 0.984 . S
H808 C813 0.950 . S
H809 C814 0.949 . S
H810 C816 0.950 . S
H811 C817 0.950 . S
H812 C818 0.949 . S
C813 H808 0.950 . S
C813 C815 1.331 . S
C813 C819 1.429 1_554 S
C814 C806 1.574 . S
C814 H809 0.949 . S
C814 C820 1.368 . S
C815 C799 1.314 1_554 S
C815 H807 0.984 . S
C815 C813 1.331 . S
C816 C804 1.349 1_556 S
C816 H810 0.950 . S
C816 C817 1.327 . S
C817 H811 0.950 . S
C817 C816 1.327 . S
C817 C821 1.429 1_556 S
C818 C801 1.574 . S
C818 H812 0.949 . S
C818 C822 1.360 1_554 S
C819 C800 1.429 . S
C819 C813 1.429 1_556 S
C819 C820 1.523 . S
C820 C801 1.368 1_556 S
C820 C814 1.368 . S
C820 C819 1.523 . S
C821 C805 1.429 . S
C821 C817 1.429 1_554 S
C821 C822 1.522 1_554 S
C822 C806 1.377 . S
C822 C818 1.360 1_556 S
C822 C821 1.522 1_556 S
H823 C798 0.950 . S
H824 C800 0.950 . S
H825 C801 0.949 . S
H826 C803 0.950 . S
H827 C805 0.950 . S
C828 C829 1.349 . S
C828 C830 1.327 . S
C828 H853 0.950 . S
C829 C828 1.349 . S
C829 C845 1.349 . S
C830 C828 1.327 . S
C830 C849 1.429 . S
C830 H854 0.950 . S
C831 C848 1.574 . S
C831 C850 1.368 . S
C831 H855 0.949 . S
H832 C836 0.949 . S
C833 C834 1.349 . S
C833 C835 1.327 . S
C833 H856 0.950 . S
C834 C833 1.349 . S
C834 C846 1.349 . S
C835 C833 1.327 . S
C835 C851 1.429 . S
C835 H857 0.950 . S
C836 H832 0.949 . S
C836 C844 1.574 . S
C836 C852 1.368 . S
H837 C845 0.950 . S
H838 C843 0.950 . S
H839 C844 0.949 . S
H840 C846 1.003 . S
H841 C847 0.950 . S
H842 C848 0.949 . S
C843 H838 0.950 . S
C843 C845 1.327 . S
C843 C849 1.429 . S
C844 C836 1.574 . S
C844 H839 0.949 . S
C844 C850 1.368 . S
C845 C829 1.349 . S
C845 H837 0.950 . S
C845 C843 1.327 . S
C846 C834 1.349 . S
C846 H840 1.003 . S
C846 C847 1.327 . S
C847 H841 0.950 . S
C847 C846 1.327 . S
C847 C851 1.429 . S
C848 C831 1.574 . S
C848 H842 0.949 . S
C848 C852 1.368 . S
C849 C830 1.429 . S
C849 C843 1.429 . S
C849 C850 1.523 . S
C850 C831 1.368 . S
C850 C844 1.368 . S
C850 C849 1.523 . S
C851 C835 1.429 . S
C851 C847 1.429 . S
C851 C852 1.523 . S
C852 C836 1.368 . S
C852 C848 1.368 . S
C852 C851 1.523 . S
H853 C828 0.950 . S
H854 C830 0.950 . S
H855 C831 0.949 . S
H856 C833 0.950 . S
H857 C835 0.950 . S
C858 C859 1.349 . S
C858 C860 1.327 . S
C858 H883 0.950 . S
C859 C858 1.349 . S
C859 C875 1.349 . S
C860 C858 1.327 . S
C860 C879 1.429 . S
C860 H884 0.950 . S
C861 C878 1.574 . S
C861 C880 1.368 . S
C861 H885 0.949 . S
H862 C866 0.949 . S
C863 C864 1.349 . S
C863 C865 1.327 . S
C863 H886 0.950 . S
C864 C863 1.349 . S
C864 C876 1.349 . S
C865 C863 1.327 . S
C865 C881 1.429 . S
C865 H887 0.950 . S
C866 H862 0.949 . S
C866 C874 1.574 . S
C866 C882 1.368 . S
H867 C875 0.950 . S
H868 C873 0.950 . S
H869 C874 0.949 . S
H870 C876 0.950 . S
H871 C877 0.950 . S
H872 C878 0.949 . S
C873 H868 0.950 . S
C873 C875 1.327 . S
C873 C879 1.429 . S
C874 C866 1.574 . S
C874 H869 0.949 . S
C874 C880 1.368 . S
C875 C859 1.349 . S
C875 H867 0.950 . S
C875 C873 1.327 . S
C876 C864 1.349 . S
C876 H870 0.950 . S
C876 C877 1.327 . S
C877 H871 0.950 . S
C877 C876 1.327 . S
C877 C881 1.429 . S
C878 C861 1.574 . S
C878 H872 0.949 . S
C878 C882 1.368 . S
C879 C860 1.429 . S
C879 C873 1.429 . S
C879 C880 1.523 . S
C880 C861 1.368 . S
C880 C874 1.368 . S
C880 C879 1.523 . S
C881 C865 1.429 . S
C881 C877 1.429 . S
C881 C882 1.523 . S
C882 C866 1.368 . S
C882 C878 1.368 . S
C882 C881 1.523 . S
H883 C858 0.950 . S
H884 C860 0.950 . S
H885 C861 0.949 . S
H886 C863 0.950 . S
H887 C865 0.950 . S
C888 C889 1.349 . S
C888 C890 1.327 . S
C888 H913 0.950 . S
C889 C888 1.349 . S
C889 C905 1.349 . S
C890 C888 1.327 . S
C890 C909 1.429 . S
C890 H914 0.950 . S
C891 C908 1.574 . S
C891 C910 1.368 . S
C891 H915 0.949 . S
H892 C896 0.949 . S
C893 C894 1.349 . S
C893 C895 1.327 . S
C893 H916 0.950 . S
C894 C893 1.349 . S
C894 C906 1.349 . S
C895 C893 1.327 . S
C895 C911 1.429 . S
C895 H917 0.950 . S
C896 H892 0.949 . S
C896 C904 1.574 . S
C896 C912 1.368 . S
H897 C905 0.950 . S
H898 C903 0.950 . S
H899 C904 0.949 . S
H900 C906 0.930 1_556 S
H901 C907 0.950 . S
H902 C908 0.949 . S
C903 H898 0.950 . S
C903 C905 1.327 . S
C903 C909 1.429 . S
C904 C896 1.574 . S
C904 H899 0.949 . S
C904 C910 1.368 . S
C905 C889 1.349 . S
C905 H897 0.950 . S
C905 C903 1.327 . S
C906 C894 1.349 . S
C906 H900 0.930 1_554 S
C906 C907 1.327 . S
C907 H901 0.950 . S
C907 C906 1.327 . S
C907 C911 1.429 . S
C908 C891 1.574 . S
C908 H902 0.949 . S
C908 C912 1.368 . S
C909 C890 1.429 . S
C909 C903 1.429 . S
C909 C910 1.523 . S
C910 C891 1.368 . S
C910 C904 1.368 . S
C910 C909 1.523 . S
C911 C895 1.429 . S
C911 C907 1.429 . S
C911 C912 1.523 . S
C912 C896 1.368 . S
C912 C908 1.368 . S
C912 C911 1.523 . S
H913 C888 0.950 . S
H914 C890 0.950 . S
H915 C891 0.949 . S
H916 C893 0.950 . S
H917 C895 0.950 . S
C918 C919 1.349 . S
C918 C920 1.327 . S
C918 H943 0.950 . S
C919 C918 1.349 . S
C919 C935 1.349 . S
C920 C918 1.327 . S
C920 C939 1.429 . S
C920 H944 0.950 . S
C921 C938 1.574 1_655 S
C921 C940 1.368 . S
C921 H945 0.949 . S
H922 C926 0.949 1_455 S
C923 C924 1.349 . S
C923 C925 1.327 . S
C923 H946 0.950 . S
C924 C923 1.349 . S
C924 C936 1.349 . S
C925 C923 1.327 . S
C925 C941 1.429 . S
C925 H947 0.950 . S
C926 H922 0.949 1_655 S
C926 C934 1.575 . S
C926 C942 1.367 1_655 S
H927 C935 0.950 . S
H928 C933 0.950 . S
H929 C934 0.949 . S
H930 C936 0.950 . S
H931 C937 0.950 . S
H932 C938 0.949 . S
C933 H928 0.950 . S
C933 C935 1.327 . S
C933 C939 1.429 . S
C934 C926 1.575 . S
C934 H929 0.949 . S
C934 C940 1.368 . S
C935 C919 1.349 . S
C935 H927 0.950 . S
C935 C933 1.327 . S
C936 C924 1.349 . S
C936 H930 0.950 . S
C936 C937 1.327 . S
C937 H931 0.950 . S
C937 C936 1.327 . S
C937 C941 1.429 . S
C938 C921 1.574 1_455 S
C938 H932 0.949 . S
C938 C942 1.368 . S
C939 C920 1.429 . S
C939 C933 1.429 . S
C939 C940 1.523 . S
C940 C921 1.368 . S
C940 C934 1.368 . S
C940 C939 1.523 . S
C941 C925 1.429 . S
C941 C937 1.429 . S
C941 C942 1.523 . S
C942 C926 1.367 1_455 S
C942 C938 1.368 . S
C942 C941 1.523 . S
H943 C918 0.950 . S
H944 C920 0.950 . S
H945 C921 0.949 . S
H946 C923 0.950 . S
H947 C925 0.950 . S
C948 C949 1.349 . S
C948 C950 1.327 . S
C948 H973 0.950 . S
C949 C948 1.349 . S
C949 C965 1.349 . S
C950 C948 1.327 . S
C950 C969 1.429 . S
C950 H974 0.950 . S
C951 C968 1.574 . S
C951 C970 1.368 . S
C951 H975 0.949 . S
H952 C956 0.949 . S
C953 C954 1.349 . S
C953 C955 1.327 . S
C953 H976 0.950 . S
C954 C953 1.349 . S
C954 C966 1.349 . S
C955 C953 1.327 . S
C955 C971 1.429 . S
C955 H977 0.950 . S
C956 H952 0.949 . S
C956 C964 1.574 . S
C956 C972 1.368 . S
H957 C965 0.950 . S
H958 C963 0.950 . S
H959 C964 0.949 . S
H960 C966 0.950 . S
H961 C967 0.950 . S
H962 C968 0.949 . S
C963 H958 0.950 . S
C963 C965 1.327 . S
C963 C969 1.429 . S
C964 C956 1.574 . S
C964 H959 0.949 . S
C964 C970 1.368 . S
C965 C949 1.349 . S
C965 H957 0.950 . S
C965 C963 1.327 . S
C966 C954 1.349 . S
C966 H960 0.950 . S
C966 C967 1.327 . S
C967 H961 0.950 . S
C967 C966 1.327 . S
C967 C971 1.429 . S
C968 C951 1.574 . S
C968 H962 0.949 . S
C968 C972 1.368 . S
C969 C950 1.429 . S
C969 C963 1.429 . S
C969 C970 1.523 . S
C970 C951 1.368 . S
C970 C964 1.368 . S
C970 C969 1.523 . S
C971 C955 1.429 . S
C971 C967 1.429 . S
C971 C972 1.523 . S
C972 C956 1.368 . S
C972 C968 1.368 . S
C972 C971 1.523 . S
H973 C948 0.950 . S
H974 C950 0.950 . S
H975 C951 0.949 . S
H976 C953 0.950 . S
H977 C955 0.950 . S
C978 C979 1.349 . S
C978 C980 1.327 . S
C978 H1003 0.950 . S
C979 C978 1.349 . S
C979 C995 1.349 . S
C980 C978 1.327 . S
C980 C999 1.429 . S
C980 H1004 0.950 . S
C981 C998 1.574 . S
C981 C1000 1.368 . S
C981 H1005 0.949 . S
H982 C986 0.949 . S
C983 C984 1.349 . S
C983 C985 1.327 . S
C983 H1006 0.950 . S
C984 C983 1.349 . S
C984 C996 1.349 . S
C985 C983 1.327 . S
C985 C1001 1.429 . S
C985 H1007 0.950 . S
C986 H982 0.949 . S
C986 C994 1.574 . S
C986 C1002 1.368 1_545 S
H987 C995 0.950 . S
H988 C993 0.950 . S
H989 C994 0.949 . S
H990 C996 0.950 . S
H991 C997 0.950 . S
H992 C998 0.949 1_565 S
C993 H988 0.950 . S
C993 C995 1.327 . S
C993 C999 1.429 . S
C994 C986 1.574 . S
C994 H989 0.949 . S
C994 C1000 1.368 . S
C995 C979 1.349 . S
C995 H987 0.950 . S
C995 C993 1.327 . S
C996 C984 1.349 . S
C996 H990 0.950 . S
C996 C997 1.327 . S
C997 H991 0.950 . S
C997 C996 1.327 . S
C997 C1001 1.429 . S
C998 C981 1.574 . S
C998 H992 0.949 1_545 S
C998 C1002 1.368 1_545 S
C999 C980 1.429 . S
C999 C993 1.429 . S
C999 C1000 1.523 . S
C1000 C981 1.368 . S
C1000 C994 1.368 . S
C1000 C999 1.523 . S
C1001 C985 1.429 . S
C1001 C997 1.429 . S
C1001 C1002 1.523 . S
C1002 C986 1.368 1_565 S
C1002 C998 1.368 1_565 S
C1002 C1001 1.523 . S
H1003 C978 0.950 . S
H1004 C980 0.950 . S
H1005 C981 0.949 . S
H1006 C983 0.950 . S
H1007 C985 0.950 . S
C1008 C1009 1.349 . S
C1008 C1010 1.327 . S
C1008 H1033 0.950 . S
C1009 C1008 1.349 . S
C1009 C1025 1.349 . S
C1010 C1008 1.327 . S
C1010 C1029 1.429 . S
C1010 H1034 0.950 . S
C1011 C1028 1.574 . S
C1011 C1030 1.368 . S
C1011 H1035 0.949 . S
H1012 C1016 0.949 . S
C1013 C1014 1.349 . S
C1013 C1015 1.327 . S
C1013 H1036 0.950 . S
C1014 C1013 1.349 . S
C1014 C1026 1.349 . S
C1015 C1013 1.327 . S
C1015 C1031 1.429 . S
C1015 H1037 0.950 . S
C1016 H1012 0.949 . S
C1016 C1024 1.574 . S
C1016 C1032 1.368 . S
H1017 C1025 0.950 . S
H1018 C1023 0.950 . S
H1019 C1024 0.949 . S
H1020 C1026 0.950 . S
H1021 C1027 0.950 . S
H1022 C1028 0.949 . S
C1023 H1018 0.950 . S
C1023 C1025 1.327 . S
C1023 C1029 1.429 . S
C1024 C1016 1.574 . S
C1024 H1019 0.949 . S
C1024 C1030 1.368 . S
C1025 C1009 1.349 . S
C1025 H1017 0.950 . S
C1025 C1023 1.327 . S
C1026 C1014 1.349 . S
C1026 H1020 0.950 . S
C1026 C1027 1.327 . S
C1027 H1021 0.950 . S
C1027 C1026 1.327 . S
C1027 C1031 1.429 . S
C1028 C1011 1.574 . S
C1028 H1022 0.949 . S
C1028 C1032 1.368 . S
C1029 C1010 1.429 . S
C1029 C1023 1.429 . S
C1029 C1030 1.523 . S
C1030 C1011 1.368 . S
C1030 C1024 1.368 . S
C1030 C1029 1.523 . S
C1031 C1015 1.429 . S
C1031 C1027 1.429 . S
C1031 C1032 1.523 . S
C1032 C1016 1.368 . S
C1032 C1028 1.368 . S
C1032 C1031 1.523 . S
H1033 C1008 0.950 . S
H1034 C1010 0.950 . S
H1035 C1011 0.949 . S
H1036 C1013 0.950 . S
H1037 C1015 0.950 . S
C1038 C1039 1.349 . S
C1038 C1040 1.327 . S
C1038 H1063 0.950 . S
C1039 C1038 1.349 . S
C1039 C1055 1.349 . S
C1040 C1038 1.327 . S
C1040 C1059 1.429 . S
C1040 H1064 0.950 . S
C1041 C1058 1.574 . S
C1041 C1060 1.368 . S
C1041 H1065 0.949 . S
H1042 C1046 0.949 . S
C1043 C1044 1.349 . S
C1043 C1045 1.327 . S
C1043 H1066 0.950 . S
C1044 C1043 1.349 . S
C1044 C1056 1.349 . S
C1045 C1043 1.327 . S
C1045 C1061 1.429 . S
C1045 H1067 0.950 . S
C1046 H1042 0.949 . S
C1046 C1054 1.574 . S
C1046 C1062 1.368 . S
H1047 C1055 0.950 . S
H1048 C1053 0.950 . S
H1049 C1054 0.949 . S
H1050 C1056 0.950 . S
H1051 C1057 0.950 . S
H1052 C1058 0.949 . S
C1053 H1048 0.950 . S
C1053 C1055 1.327 . S
C1053 C1059 1.429 . S
C1054 C1046 1.574 . S
C1054 H1049 0.949 . S
C1054 C1060 1.368 . S
C1055 C1039 1.349 . S
C1055 H1047 0.950 . S
C1055 C1053 1.327 . S
C1056 C1044 1.349 . S
C1056 H1050 0.950 . S
C1056 C1057 1.327 . S
C1057 H1051 0.950 . S
C1057 C1056 1.327 . S
C1057 C1061 1.429 . S
C1058 C1041 1.574 . S
C1058 H1052 0.949 . S
C1058 C1062 1.368 . S
C1059 C1040 1.429 . S
C1059 C1053 1.429 . S
C1059 C1060 1.523 . S
C1060 C1041 1.368 . S
C1060 C1054 1.368 . S
C1060 C1059 1.523 . S
C1061 C1045 1.429 . S
C1061 C1057 1.429 . S
C1061 C1062 1.523 . S
C1062 C1046 1.368 . S
C1062 C1058 1.368 . S
C1062 C1061 1.523 . S
H1063 C1038 0.950 . S
H1064 C1040 0.950 . S
H1065 C1041 0.949 . S
H1066 C1043 0.950 . S
H1067 C1045 0.950 . S
C1068 C1069 1.349 . S
C1068 C1070 1.327 . S
C1068 H1093 0.950 . S
C1069 C1068 1.349 . S
C1069 C1085 1.349 . S
C1070 C1068 1.327 . S
C1070 C1089 1.429 . S
C1070 H1094 0.950 . S
C1071 C1088 1.574 . S
C1071 C1090 1.368 . S
C1071 H1095 0.949 . S
H1072 C1076 0.949 . S
C1073 C1074 1.349 . S
C1073 C1075 1.327 . S
C1073 H1096 0.950 . S
C1074 C1073 1.349 . S
C1074 C1086 1.349 . S
C1075 C1073 1.327 . S
C1075 C1091 1.429 . S
C1075 H1097 0.950 . S
C1076 H1072 0.949 . S
C1076 C1084 1.574 . S
C1076 C1092 1.368 . S
H1077 C1085 0.950 . S
H1078 C1083 0.950 . S
H1079 C1084 0.949 . S
H1080 C1086 0.950 . S
H1081 C1087 0.950 . S
H1082 C1088 0.949 . S
C1083 H1078 0.950 . S
C1083 C1085 1.327 . S
C1083 C1089 1.429 . S
C1084 C1076 1.574 . S
C1084 H1079 0.949 . S
C1084 C1090 1.368 . S
C1085 C1069 1.349 . S
C1085 H1077 0.950 . S
C1085 C1083 1.327 . S
C1086 C1074 1.349 . S
C1086 H1080 0.950 . S
C1086 C1087 1.327 . S
C1087 H1081 0.950 . S
C1087 C1086 1.327 . S
C1087 C1091 1.429 . S
C1088 C1071 1.574 . S
C1088 H1082 0.949 . S
C1088 C1092 1.368 . S
C1089 C1070 1.429 . S
C1089 C1083 1.429 . S
C1089 C1090 1.523 . S
C1090 C1071 1.368 . S
C1090 C1084 1.368 . S
C1090 C1089 1.523 . S
C1091 C1075 1.429 . S
C1091 C1087 1.429 . S
C1091 C1092 1.523 . S
C1092 C1076 1.368 . S
C1092 C1088 1.368 . S
C1092 C1091 1.523 . S
H1093 C1068 0.950 . S
H1094 C1070 0.950 . S
H1095 C1071 0.949 . S
H1096 C1073 0.950 . S
H1097 C1075 0.950 . S
C1098 C1099 1.349 . S
C1098 C1100 1.327 . S
C1098 H1123 0.950 . S
C1099 C1098 1.349 . S
C1099 C1115 1.349 . S
C1100 C1098 1.327 . S
C1100 C1119 1.429 . S
C1100 H1124 0.950 . S
C1101 C1118 1.574 . S
C1101 C1120 1.368 . S
C1101 H1125 0.949 . S
H1102 C1106 0.949 . S
C1103 C1104 1.349 . S
C1103 C1105 1.327 . S
C1103 H1126 0.950 . S
C1104 C1103 1.349 . S
C1104 C1116 1.349 . S
C1105 C1103 1.327 . S
C1105 C1121 1.429 . S
C1105 H1127 0.950 . S
C1106 H1102 0.949 . S
C1106 C1114 1.574 . S
C1106 C1122 1.368 . S
H1107 C1115 0.950 . S
H1108 C1113 0.950 . S
H1109 C1114 0.949 . S
H1110 C1116 0.950 . S
H1111 C1117 0.950 . S
H1112 C1118 0.949 . S
C1113 H1108 0.950 . S
C1113 C1115 1.327 . S
C1113 C1119 1.429 . S
C1114 C1106 1.574 . S
C1114 H1109 0.949 . S
C1114 C1120 1.368 . S
C1115 C1099 1.349 . S
C1115 H1107 0.950 . S
C1115 C1113 1.327 . S
C1116 C1104 1.349 . S
C1116 H1110 0.950 . S
C1116 C1117 1.327 . S
C1117 H1111 0.950 . S
C1117 C1116 1.327 . S
C1117 C1121 1.429 . S
C1118 C1101 1.574 . S
C1118 H1112 0.949 . S
C1118 C1122 1.368 . S
C1119 C1100 1.429 . S
C1119 C1113 1.429 . S
C1119 C1120 1.523 . S
C1120 C1101 1.368 . S
C1120 C1114 1.368 . S
C1120 C1119 1.523 . S
C1121 C1105 1.429 . S
C1121 C1117 1.429 . S
C1121 C1122 1.523 . S
C1122 C1106 1.368 . S
C1122 C1118 1.368 . S
C1122 C1121 1.523 . S
H1123 C1098 0.950 . S
H1124 C1100 0.950 . S
H1125 C1101 0.949 . S
H1126 C1103 0.950 . S
H1127 C1105 0.950 . S
C1128 C1129 1.349 . S
C1128 C1130 1.327 . S
C1128 H1153 0.950 . S
C1129 C1128 1.349 . S
C1129 C1145 1.349 . S
C1130 C1128 1.327 . S
C1130 C1149 1.429 . S
C1130 H1154 0.950 . S
C1131 C1148 1.574 . S
C1131 C1150 1.368 . S
C1131 H1155 0.949 . S
H1132 C1136 0.949 . S
C1133 C1134 1.349 . S
C1133 C1135 1.327 . S
C1133 H1156 0.950 . S
C1134 C1133 1.349 . S
C1134 C1146 1.349 . S
C1135 C1133 1.327 . S
C1135 C1151 1.429 . S
C1135 H1157 0.950 . S
C1136 H1132 0.949 . S
C1136 C1144 1.574 . S
C1136 C1152 1.368 . S
H1137 C1145 0.950 . S
H1138 C1143 0.950 . S
H1139 C1144 0.949 . S
H1140 C1146 0.950 . S
H1141 C1147 0.950 . S
H1142 C1148 0.949 . S
C1143 H1138 0.950 . S
C1143 C1145 1.327 . S
C1143 C1149 1.429 . S
C1144 C1136 1.574 . S
C1144 H1139 0.949 . S
C1144 C1150 1.368 . S
C1145 C1129 1.349 . S
C1145 H1137 0.950 . S
C1145 C1143 1.327 . S
C1146 C1134 1.349 . S
C1146 H1140 0.950 . S
C1146 C1147 1.327 . S
C1147 H1141 0.950 . S
C1147 C1146 1.327 . S
C1147 C1151 1.429 . S
C1148 C1131 1.574 . S
C1148 H1142 0.949 . S
C1148 C1152 1.368 . S
C1149 C1130 1.429 . S
C1149 C1143 1.429 . S
C1149 C1150 1.523 . S
C1150 C1131 1.368 . S
C1150 C1144 1.368 . S
C1150 C1149 1.523 . S
C1151 C1135 1.429 . S
C1151 C1147 1.429 . S
C1151 C1152 1.523 . S
C1152 C1136 1.368 . S
C1152 C1148 1.368 . S
C1152 C1151 1.523 . S
H1153 C1128 0.950 . S
H1154 C1130 0.950 . S
H1155 C1131 0.949 . S
H1156 C1133 0.950 . S
H1157 C1135 0.950 . S
C1158 C1159 1.349 . S
C1158 C1160 1.327 . S
C1158 H1183 0.950 . S
C1159 C1158 1.349 . S
C1159 C1175 1.349 . S
C1160 C1158 1.327 . S
C1160 C1179 1.429 . S
C1160 H1184 0.950 . S
C1161 C1178 1.574 . S
C1161 C1180 1.368 . S
C1161 H1185 0.949 . S
H1162 C1166 0.949 . S
C1163 C1164 1.349 . S
C1163 C1165 1.327 . S
C1163 H1186 0.950 . S
C1164 C1163 1.349 . S
C1164 C1176 1.349 . S
C1165 C1163 1.327 . S
C1165 C1181 1.429 . S
C1165 H1187 0.950 . S
C1166 H1162 0.949 . S
C1166 C1174 1.574 . S
C1166 C1182 1.368 . S
H1167 C1175 0.950 . S
H1168 C1173 0.950 . S
H1169 C1174 0.949 . S
H1170 C1176 0.950 . S
H1171 C1177 0.950 . S
H1172 C1178 0.949 . S
C1173 H1168 0.950 . S
C1173 C1175 1.327 . S
C1173 C1179 1.429 . S
C1174 C1166 1.574 . S
C1174 H1169 0.949 . S
C1174 C1180 1.368 . S
C1175 C1159 1.349 . S
C1175 H1167 0.950 . S
C1175 C1173 1.327 . S
C1176 C1164 1.349 . S
C1176 H1170 0.950 . S
C1176 C1177 1.327 . S
C1177 H1171 0.950 . S
C1177 C1176 1.327 . S
C1177 C1181 1.429 . S
C1178 C1161 1.574 . S
C1178 H1172 0.949 . S
C1178 C1182 1.368 . S
C1179 C1160 1.429 . S
C1179 C1173 1.429 . S
C1179 C1180 1.523 . S
C1180 C1161 1.368 . S
C1180 C1174 1.368 . S
C1180 C1179 1.523 . S
C1181 C1165 1.429 . S
C1181 C1177 1.429 . S
C1181 C1182 1.523 . S
C1182 C1166 1.368 . S
C1182 C1178 1.368 . S
C1182 C1181 1.523 . S
H1183 C1158 0.950 . S
H1184 C1160 0.950 . S
H1185 C1161 0.949 . S
H1186 C1163 0.950 . S
H1187 C1165 0.950 . S
C1188 C1189 1.349 . S
C1188 C1190 1.327 . S
C1188 H1213 0.950 . S
C1189 C1188 1.349 . S
C1189 C1205 1.349 . S
C1190 C1188 1.327 . S
C1190 C1209 1.429 . S
C1190 H1214 0.950 . S
C1191 C1208 1.574 . S
C1191 C1210 1.368 . S
C1191 H1215 0.949 . S
H1192 C1196 0.949 . S
C1193 C1194 1.349 . S
C1193 C1195 1.327 . S
C1193 H1216 0.950 . S
C1194 C1193 1.349 . S
C1194 C1206 1.349 . S
C1195 C1193 1.327 . S
C1195 C1211 1.429 . S
C1195 H1217 0.950 . S
C1196 H1192 0.949 . S
C1196 C1204 1.574 . S
C1196 C1212 1.368 . S
H1197 C1205 0.950 . S
H1198 C1203 0.950 . S
H1199 C1204 0.949 . S
H1200 C1206 0.950 . S
H1201 C1207 0.950 . S
H1202 C1208 0.949 . S
C1203 H1198 0.950 . S
C1203 C1205 1.327 . S
C1203 C1209 1.429 . S
C1204 C1196 1.574 . S
C1204 H1199 0.949 . S
C1204 C1210 1.368 . S
C1205 C1189 1.349 . S
C1205 H1197 0.950 . S
C1205 C1203 1.327 . S
C1206 C1194 1.349 . S
C1206 H1200 0.950 . S
C1206 C1207 1.327 . S
C1207 H1201 0.950 . S
C1207 C1206 1.327 . S
C1207 C1211 1.429 . S
C1208 C1191 1.574 . S
C1208 H1202 0.949 . S
C1208 C1212 1.368 . S
C1209 C1190 1.429 . S
C1209 C1203 1.429 . S
C1209 C1210 1.523 1_545 S
C1210 C1191 1.368 . S
C1210 C1204 1.368 . S
C1210 C1209 1.523 1_565 S
C1211 C1195 1.429 . S
C1211 C1207 1.429 . S
C1211 C1212 1.523 . S
C1212 C1196 1.368 . S
C1212 C1208 1.368 . S
C1212 C1211 1.523 . S
H1213 C1188 0.950 . S
H1214 C1190 0.950 . S
H1215 C1191 0.949 . S
H1216 C1193 0.950 . S
H1217 C1195 0.950 . S
C1218 C1219 1.349 . S
C1218 C1220 1.327 . S
C1218 H1243 0.950 . S
C1219 C1218 1.349 . S
C1219 C1235 1.349 . S
C1220 C1218 1.327 . S
C1220 C1239 1.429 1_655 S
C1220 H1244 0.950 . S
C1221 C1238 1.574 . S
C1221 C1240 1.368 . S
C1221 H1245 0.949 . S
H1222 C1226 0.949 . S
C1223 C1224 1.349 . S
C1223 C1225 1.327 . S
C1223 H1246 0.950 . S
C1224 C1223 1.349 . S
C1224 C1236 1.349 . S
C1225 C1223 1.327 . S
C1225 C1241 1.429 . S
C1225 H1247 0.950 . S
C1226 H1222 0.949 . S
C1226 C1234 1.574 . S
C1226 C1242 1.368 . S
H1227 C1235 0.950 . S
H1228 C1233 0.950 . S
H1229 C1234 0.949 . S
H1230 C1236 0.950 . S
H1231 C1237 0.950 . S
H1232 C1238 0.949 . S
C1233 H1228 0.950 . S
C1233 C1235 1.327 1_455 S
C1233 C1239 1.429 . S
C1234 C1226 1.574 . S
C1234 H1229 0.949 . S
C1234 C1240 1.368 . S
C1235 C1219 1.349 . S
C1235 H1227 0.950 . S
C1235 C1233 1.327 1_655 S
C1236 C1224 1.349 . S
C1236 H1230 0.950 . S
C1236 C1237 1.327 . S
C1237 H1231 0.950 . S
C1237 C1236 1.327 . S
C1237 C1241 1.429 . S
C1238 C1221 1.574 . S
C1238 H1232 0.949 . S
C1238 C1242 1.368 . S
C1239 C1220 1.429 1_455 S
C1239 C1233 1.429 . S
C1239 C1240 1.523 . S
C1240 C1221 1.368 . S
C1240 C1234 1.368 . S
C1240 C1239 1.523 . S
C1241 C1225 1.429 . S
C1241 C1237 1.429 . S
C1241 C1242 1.523 . S
C1242 C1226 1.368 . S
C1242 C1238 1.368 . S
C1242 C1241 1.523 . S
H1243 C1218 0.950 . S
H1244 C1220 0.950 . S
H1245 C1221 0.949 . S
H1246 C1223 0.950 . S
H1247 C1225 0.950 . S
C1248 C1249 1.349 . S
C1248 C1250 1.327 . S
C1248 H1273 0.950 . S
C1249 C1248 1.349 . S
C1249 C1265 1.349 . S
C1250 C1248 1.327 . S
C1250 C1269 1.429 . S
C1250 H1274 0.950 . S
C1251 C1268 1.574 . S
C1251 C1270 1.368 . S
C1251 H1275 0.949 . S
H1252 C1256 0.949 . S
C1253 C1254 1.349 . S
C1253 C1255 1.327 . S
C1253 H1276 0.950 . S
C1254 C1253 1.349 . S
C1254 C1266 1.349 . S
C1255 C1253 1.327 . S
C1255 C1271 1.429 . S
C1255 H1277 0.950 . S
C1256 H1252 0.949 . S
C1256 C1264 1.574 . S
C1256 C1272 1.368 . S
H1257 C1265 0.950 . S
H1258 C1263 0.950 . S
H1259 C1264 0.949 . S
H1260 C1266 0.950 . S
H1261 C1267 0.950 . S
H1262 C1268 0.949 . S
C1263 H1258 0.950 . S
C1263 C1265 1.327 . S
C1263 C1269 1.429 . S
C1264 C1256 1.574 . S
C1264 H1259 0.949 . S
C1264 C1270 1.368 . S
C1265 C1249 1.349 . S
C1265 H1257 0.950 . S
C1265 C1263 1.327 . S
C1266 C1254 1.349 . S
C1266 H1260 0.950 . S
C1266 C1267 1.327 . S
C1267 H1261 0.950 . S
C1267 C1266 1.327 . S
C1267 C1271 1.429 . S
C1268 C1251 1.574 . S
C1268 H1262 0.949 . S
C1268 C1272 1.368 . S
C1269 C1250 1.429 . S
C1269 C1263 1.429 . S
C1269 C1270 1.523 . S
C1270 C1251 1.368 . S
C1270 C1264 1.368 . S
C1270 C1269 1.523 . S
C1271 C1255 1.429 . S
C1271 C1267 1.429 . S
C1271 C1272 1.523 . S
C1272 C1256 1.368 . S
C1272 C1268 1.368 . S
C1272 C1271 1.523 . S
H1273 C1248 0.950 . S
H1274 C1250 0.950 . S
H1275 C1251 0.949 . S
H1276 C1253 0.950 . S
H1277 C1255 0.950 . S
C1278 C1279 1.349 . S
C1278 C1280 1.327 . S
C1278 H1303 0.950 . S
C1279 C1278 1.349 . S
C1279 C1295 1.349 . S
C1280 C1278 1.327 . S
C1280 C1299 1.429 . S
C1280 H1304 0.950 . S
C1281 C1298 1.574 . S
C1281 C1300 1.368 . S
C1281 H1305 0.949 . S
H1282 C1286 0.949 . S
C1283 C1284 1.349 . S
C1283 C1285 1.327 . S
C1283 H1306 0.950 . S
C1284 C1283 1.349 . S
C1284 C1296 1.349 . S
C1285 C1283 1.327 . S
C1285 C1301 1.429 . S
C1285 H1307 0.950 . S
C1286 H1282 0.949 . S
C1286 C1294 1.574 . S
C1286 C1302 1.368 . S
H1287 C1295 0.950 . S
H1288 C1293 0.950 . S
H1289 C1294 0.949 . S
H1290 C1296 0.950 . S
H1291 C1297 0.950 . S
H1292 C1298 0.949 . S
C1293 H1288 0.950 . S
C1293 C1295 1.327 . S
C1293 C1299 1.429 . S
C1294 C1286 1.574 . S
C1294 H1289 0.949 . S
C1294 C1300 1.368 . S
C1295 C1279 1.349 . S
C1295 H1287 0.950 . S
C1295 C1293 1.327 . S
C1296 C1284 1.349 . S
C1296 H1290 0.950 . S
C1296 C1297 1.327 . S
C1297 H1291 0.950 . S
C1297 C1296 1.327 . S
C1297 C1301 1.429 . S
C1298 C1281 1.574 . S
C1298 H1292 0.949 . S
C1298 C1302 1.368 . S
C1299 C1280 1.429 . S
C1299 C1293 1.429 . S
C1299 C1300 1.523 . S
C1300 C1281 1.368 . S
C1300 C1294 1.368 . S
C1300 C1299 1.523 . S
C1301 C1285 1.429 . S
C1301 C1297 1.429 . S
C1301 C1302 1.523 . S
C1302 C1286 1.368 . S
C1302 C1298 1.368 . S
C1302 C1301 1.523 . S
H1303 C1278 0.950 . S
H1304 C1280 0.950 . S
H1305 C1281 0.949 . S
H1306 C1283 0.950 . S
H1307 C1285 0.950 . S
C1308 C1309 1.349 . S
C1308 C1310 1.327 . S
C1308 H1333 0.950 . S
C1309 C1308 1.349 . S
C1309 C1325 1.349 . S
C1310 C1308 1.327 . S
C1310 C1329 1.429 . S
C1310 H1334 0.950 . S
C1311 C1328 1.574 . S
C1311 C1330 1.368 . S
C1311 H1335 0.949 . S
H1312 C1316 0.949 . S
C1313 C1314 1.349 . S
C1313 C1315 1.327 . S
C1313 H1336 0.950 . S
C1314 C1313 1.349 . S
C1314 C1326 1.349 . S
C1315 C1313 1.327 . S
C1315 C1331 1.429 . S
C1315 H1337 0.950 . S
C1316 H1312 0.949 . S
C1316 C1324 1.574 . S
C1316 C1332 1.368 . S
H1317 C1325 0.950 . S
H1318 C1323 0.950 . S
H1319 C1324 0.949 . S
H1320 C1326 0.950 . S
H1321 C1327 0.950 . S
H1322 C1328 0.949 . S
C1323 H1318 0.950 . S
C1323 C1325 1.327 . S
C1323 C1329 1.429 . S
C1324 C1316 1.574 . S
C1324 H1319 0.949 . S
C1324 C1330 1.368 . S
C1325 C1309 1.349 . S
C1325 H1317 0.950 . S
C1325 C1323 1.327 . S
C1326 C1314 1.349 . S
C1326 H1320 0.950 . S
C1326 C1327 1.327 . S
C1327 H1321 0.950 . S
C1327 C1326 1.327 . S
C1327 C1331 1.429 . S
C1328 C1311 1.574 . S
C1328 H1322 0.949 . S
C1328 C1332 1.368 . S
C1329 C1310 1.429 . S
C1329 C1323 1.429 . S
C1329 C1330 1.523 . S
C1330 C1311 1.368 . S
C1330 C1324 1.368 . S
C1330 C1329 1.523 . S
C1331 C1315 1.429 . S
C1331 C1327 1.429 . S
C1331 C1332 1.523 . S
C1332 C1316 1.368 . S
C1332 C1328 1.368 . S
C1332 C1331 1.523 . S
H1333 C1308 0.950 . S
H1334 C1310 0.950 . S
H1335 C1311 0.949 . S
H1336 C1313 0.950 . S
H1337 C1315 0.950 . S
C1338 C1339 1.349 . S
C1338 C1340 1.327 . S
C1338 H1363 0.950 . S
C1339 C1338 1.349 . S
C1339 C1355 1.349 . S
C1340 C1338 1.327 . S
C1340 C1359 1.429 . S
C1340 H1364 0.950 . S
C1341 C1358 1.574 . S
C1341 C1360 1.368 . S
C1341 H1365 0.949 . S
H1342 C1346 0.949 . S
C1343 C1344 1.349 . S
C1343 C1345 1.327 . S
C1343 H1366 0.950 . S
C1344 C1343 1.349 . S
C1344 C1356 1.349 . S
C1345 C1343 1.327 . S
C1345 C1361 1.429 . S
C1345 H1367 0.950 . S
C1346 H1342 0.949 . S
C1346 C1354 1.574 . S
C1346 C1362 1.368 . S
H1347 C1355 0.950 . S
H1348 C1353 0.950 . S
H1349 C1354 0.949 . S
H1350 C1356 0.950 . S
H1351 C1357 0.950 . S
H1352 C1358 0.949 . S
C1353 H1348 0.950 . S
C1353 C1355 1.327 . S
C1353 C1359 1.429 . S
C1354 C1346 1.574 . S
C1354 H1349 0.949 . S
C1354 C1360 1.368 . S
C1355 C1339 1.349 . S
C1355 H1347 0.950 . S
C1355 C1353 1.327 . S
C1356 C1344 1.349 . S
C1356 H1350 0.950 . S
C1356 C1357 1.327 . S
C1357 H1351 0.950 . S
C1357 C1356 1.327 . S
C1357 C1361 1.429 . S
C1358 C1341 1.574 . S
C1358 H1352 0.949 . S
C1358 C1362 1.368 . S
C1359 C1340 1.429 . S
C1359 C1353 1.429 . S
C1359 C1360 1.523 . S
C1360 C1341 1.368 . S
C1360 C1354 1.368 . S
C1360 C1359 1.523 . S
C1361 C1345 1.429 . S
C1361 C1357 1.429 . S
C1361 C1362 1.523 . S
C1362 C1346 1.368 . S
C1362 C1358 1.368 . S
C1362 C1361 1.523 . S
H1363 C1338 0.950 . S
H1364 C1340 0.950 . S
H1365 C1341 0.949 . S
H1366 C1343 0.950 . S
H1367 C1345 0.950 . S
C1368 C1369 1.349 . S
C1368 C1370 1.327 . S
C1368 H1393 0.950 . S
C1369 C1368 1.349 . S
C1369 C1385 1.349 . S
C1370 C1368 1.327 . S
C1370 C1389 1.429 . S
C1370 H1394 0.950 . S
C1371 C1388 1.574 1_565 S
C1371 C1390 1.368 . S
C1371 H1395 0.949 . S
H1372 C1376 0.949 . S
C1373 C1374 1.349 . S
C1373 C1375 1.327 . S
C1373 H1396 0.950 . S
C1374 C1373 1.349 . S
C1374 C1386 1.349 . S
C1375 C1373 1.327 . S
C1375 C1391 1.429 . S
C1375 H1397 0.950 . S
C1376 H1372 0.949 . S
C1376 C1384 1.574 1_545 S
C1376 C1392 1.368 . S
H1377 C1385 0.950 . S
H1378 C1383 0.950 . S
H1379 C1384 0.949 . S
H1380 C1386 0.950 . S
H1381 C1387 0.950 . S
H1382 C1388 0.949 . S
C1383 H1378 0.950 . S
C1383 C1385 1.327 . S
C1383 C1389 1.429 . S
C1384 C1376 1.574 1_565 S
C1384 H1379 0.949 . S
C1384 C1390 1.368 . S
C1385 C1369 1.349 . S
C1385 H1377 0.950 . S
C1385 C1383 1.327 . S
C1386 C1374 1.349 . S
C1386 H1380 0.950 . S
C1386 C1387 1.327 . S
C1387 H1381 0.950 . S
C1387 C1386 1.327 . S
C1387 C1391 1.429 . S
C1388 C1371 1.574 1_545 S
C1388 H1382 0.949 . S
C1388 C1392 1.368 . S
C1389 C1370 1.429 . S
C1389 C1383 1.429 . S
C1389 C1390 1.523 . S
C1390 C1371 1.368 . S
C1390 C1384 1.368 . S
C1390 C1389 1.523 . S
C1391 C1375 1.429 . S
C1391 C1387 1.429 . S
C1391 C1392 1.523 . S
C1392 C1376 1.368 . S
C1392 C1388 1.368 . S
C1392 C1391 1.523 . S
H1393 C1368 0.950 . S
H1394 C1370 0.950 . S
H1395 C1371 0.949 . S
H1396 C1373 0.950 . S
H1397 C1375 0.950 . S
C1398 C1399 1.349 . S
C1398 C1400 1.327 . S
C1398 H1423 0.950 . S
C1399 C1398 1.349 . S
C1399 C1415 1.349 . S
C1400 C1398 1.327 . S
C1400 C1419 1.429 . S
C1400 H1424 0.950 . S
C1401 C1418 1.574 1_455 S
C1401 C1420 1.368 . S
C1401 H1425 0.949 . S
H1402 C1406 0.949 . S
C1403 C1404 1.349 . S
C1403 C1405 1.327 . S
C1403 H1426 0.950 . S
C1404 C1403 1.349 . S
C1404 C1416 1.349 . S
C1405 C1403 1.327 . S
C1405 C1421 1.429 . S
C1405 H1427 0.950 . S
C1406 H1402 0.949 . S
C1406 C1414 1.574 1_655 S
C1406 C1422 1.368 . S
H1407 C1415 0.950 . S
H1408 C1413 0.950 . S
H1409 C1414 0.949 . S
H1410 C1416 0.950 . S
H1411 C1417 0.950 . S
H1412 C1418 0.949 . S
C1413 H1408 0.950 . S
C1413 C1415 1.327 . S
C1413 C1419 1.429 . S
C1414 C1406 1.574 1_455 S
C1414 H1409 0.949 . S
C1414 C1420 1.368 . S
C1415 C1399 1.349 . S
C1415 H1407 0.950 . S
C1415 C1413 1.327 . S
C1416 C1404 1.349 . S
C1416 H1410 0.950 . S
C1416 C1417 1.327 . S
C1417 H1411 0.950 . S
C1417 C1416 1.327 . S
C1417 C1421 1.429 . S
C1418 C1401 1.574 1_655 S
C1418 H1412 0.949 . S
C1418 C1422 1.368 . S
C1419 C1400 1.429 . S
C1419 C1413 1.429 . S
C1419 C1420 1.523 . S
C1420 C1401 1.368 . S
C1420 C1414 1.368 . S
C1420 C1419 1.523 . S
C1421 C1405 1.429 . S
C1421 C1417 1.429 . S
C1421 C1422 1.523 . S
C1422 C1406 1.368 . S
C1422 C1418 1.368 . S
C1422 C1421 1.523 . S
H1423 C1398 0.950 . S
H1424 C1400 0.950 . S
H1425 C1401 0.949 . S
H1426 C1403 0.950 . S
H1427 C1405 0.950 . S
C1428 C1429 1.349 . S
C1428 C1430 1.327 . S
C1428 H1453 0.950 . S
C1429 C1428 1.349 . S
C1429 C1445 1.349 . S
C1430 C1428 1.327 . S
C1430 C1449 1.429 . S
C1430 H1454 0.950 . S
C1431 C1448 1.574 . S
C1431 C1450 1.368 . S
C1431 H1455 0.949 . S
H1432 C1436 0.949 . S
C1433 C1434 1.349 . S
C1433 C1435 1.327 . S
C1433 H1456 0.950 . S
C1434 C1433 1.349 . S
C1434 C1446 1.349 . S
C1435 C1433 1.327 . S
C1435 C1451 1.429 . S
C1435 H1457 0.950 . S
C1436 H1432 0.949 . S
C1436 C1444 1.574 . S
C1436 C1452 1.368 . S
H1437 C1445 0.950 . S
H1438 C1443 0.950 . S
H1439 C1444 0.949 . S
H1440 C1446 0.950 . S
H1441 C1447 0.950 . S
H1442 C1448 0.949 . S
C1443 H1438 0.950 . S
C1443 C1445 1.327 . S
C1443 C1449 1.429 . S
C1444 C1436 1.574 . S
C1444 H1439 0.949 . S
C1444 C1450 1.368 . S
C1445 C1429 1.349 . S
C1445 H1437 0.950 . S
C1445 C1443 1.327 . S
C1446 C1434 1.349 . S
C1446 H1440 0.950 . S
C1446 C1447 1.327 . S
C1447 H1441 0.950 . S
C1447 C1446 1.327 . S
C1447 C1451 1.429 . S
C1448 C1431 1.574 . S
C1448 H1442 0.949 . S
C1448 C1452 1.368 . S
C1449 C1430 1.429 . S
C1449 C1443 1.429 . S
C1449 C1450 1.523 . S
C1450 C1431 1.368 . S
C1450 C1444 1.368 . S
C1450 C1449 1.523 . S
C1451 C1435 1.429 . S
C1451 C1447 1.429 . S
C1451 C1452 1.523 . S
C1452 C1436 1.368 . S
C1452 C1448 1.368 . S
C1452 C1451 1.523 . S
H1453 C1428 0.950 . S
H1454 C1430 0.950 . S
H1455 C1431 0.949 . S
H1456 C1433 0.950 . S
H1457 C1435 0.950 . S
C1458 C1459 1.349 . S
C1458 C1460 1.327 . S
C1458 H1483 0.950 . S
C1459 C1458 1.349 . S
C1459 C1475 1.349 . S
C1460 C1458 1.327 . S
C1460 C1479 1.429 . S
C1460 H1484 0.950 . S
C1461 C1478 1.574 . S
C1461 C1480 1.368 . S
C1461 H1485 0.949 . S
H1462 C1466 0.949 . S
C1463 C1464 1.349 . S
C1463 C1465 1.327 . S
C1463 H1486 0.950 . S
C1464 C1463 1.349 . S
C1464 C1476 1.349 . S
C1465 C1463 1.327 . S
C1465 C1481 1.429 . S
C1465 H1487 0.950 . S
C1466 H1462 0.949 . S
C1466 C1474 1.574 . S
C1466 C1482 1.368 . S
H1467 C1475 0.950 . S
H1468 C1473 0.950 . S
H1469 C1474 0.949 . S
H1470 C1476 0.950 . S
H1471 C1477 0.950 . S
H1472 C1478 0.949 . S
C1473 H1468 0.950 . S
C1473 C1475 1.327 . S
C1473 C1479 1.429 . S
C1474 C1466 1.574 . S
C1474 H1469 0.949 . S
C1474 C1480 1.368 . S
C1475 C1459 1.349 . S
C1475 H1467 0.950 . S
C1475 C1473 1.327 . S
C1476 C1464 1.349 . S
C1476 H1470 0.950 . S
C1476 C1477 1.327 . S
C1477 H1471 0.950 . S
C1477 C1476 1.327 . S
C1477 C1481 1.429 . S
C1478 C1461 1.574 . S
C1478 H1472 0.949 . S
C1478 C1482 1.368 . S
C1479 C1460 1.429 . S
C1479 C1473 1.429 . S
C1479 C1480 1.523 1_455 S
C1480 C1461 1.368 . S
C1480 C1474 1.368 . S
C1480 C1479 1.523 1_655 S
C1481 C1465 1.429 . S
C1481 C1477 1.429 . S
C1481 C1482 1.523 . S
C1482 C1466 1.368 . S
C1482 C1478 1.368 . S
C1482 C1481 1.523 . S
H1483 C1458 0.950 . S
H1484 C1460 0.950 . S
H1485 C1461 0.949 . S
H1486 C1463 0.950 . S
H1487 C1465 0.950 . S
C1488 C1489 1.349 . S
C1488 C1490 1.327 . S
C1488 H1513 0.950 . S
C1489 C1488 1.349 . S
C1489 C1505 1.349 . S
C1490 C1488 1.327 . S
C1490 C1509 1.429 . S
C1490 H1514 0.950 . S
C1491 C1508 1.574 . S
C1491 C1510 1.368 . S
C1491 H1515 0.949 . S
H1492 C1496 0.949 . S
C1493 C1494 1.349 . S
C1493 C1495 1.327 . S
C1493 H1516 0.950 . S
C1494 C1493 1.349 . S
C1494 C1506 1.349 . S
C1495 C1493 1.327 . S
C1495 C1511 1.429 . S
C1495 H1517 0.950 . S
C1496 H1492 0.949 . S
C1496 C1504 1.574 . S
C1496 C1512 1.368 . S
H1497 C1505 0.950 . S
H1498 C1503 0.950 . S
H1499 C1504 0.949 . S
H1500 C1506 0.950 . S
H1501 C1507 0.950 . S
H1502 C1508 0.949 . S
C1503 H1498 0.950 . S
C1503 C1505 1.327 . S
C1503 C1509 1.429 . S
C1504 C1496 1.574 . S
C1504 H1499 0.949 . S
C1504 C1510 1.368 . S
C1505 C1489 1.349 . S
C1505 H1497 0.950 . S
C1505 C1503 1.327 . S
C1506 C1494 1.349 . S
C1506 H1500 0.950 . S
C1506 C1507 1.327 . S
C1507 H1501 0.950 . S
C1507 C1506 1.327 . S
C1507 C1511 1.429 . S
C1508 C1491 1.574 . S
C1508 H1502 0.949 . S
C1508 C1512 1.368 . S
C1509 C1490 1.429 . S
C1509 C1503 1.429 . S
C1509 C1510 1.523 . S
C1510 C1491 1.368 . S
C1510 C1504 1.368 . S
C1510 C1509 1.523 . S
C1511 C1495 1.429 . S
C1511 C1507 1.429 . S
C1511 C1512 1.523 . S
C1512 C1496 1.368 . S
C1512 C1508 1.368 . S
C1512 C1511 1.523 . S
H1513 C1488 0.950 . S
H1514 C1490 0.950 . S
H1515 C1491 0.949 . S
H1516 C1493 0.950 . S
H1517 C1495 0.950 . S
C1518 C1519 1.349 . S
C1518 C1520 1.327 . S
C1518 H1543 0.950 . S
C1519 C1518 1.349 . S
C1519 C1535 1.349 . S
C1520 C1518 1.327 . S
C1520 C1539 1.429 . S
C1520 H1544 0.950 . S
C1521 C1538 1.574 . S
C1521 C1540 1.368 . S
C1521 H1545 0.949 . S
H1522 C1526 0.949 . S
C1523 C1524 1.349 . S
C1523 C1525 1.327 . S
C1523 H1546 0.950 . S
C1524 C1523 1.349 . S
C1524 C1536 1.349 . S
C1525 C1523 1.327 . S
C1525 C1541 1.429 . S
C1525 H1547 0.950 . S
C1526 H1522 0.949 . S
C1526 C1534 1.574 . S
C1526 C1542 1.368 . S
H1527 C1535 0.950 . S
H1528 C1533 0.950 . S
H1529 C1534 0.949 . S
H1530 C1536 0.950 . S
H1531 C1537 0.950 . S
H1532 C1538 0.949 . S
C1533 H1528 0.950 . S
C1533 C1535 1.327 . S
C1533 C1539 1.429 . S
C1534 C1526 1.574 . S
C1534 H1529 0.949 . S
C1534 C1540 1.368 . S
C1535 C1519 1.349 . S
C1535 H1527 0.950 . S
C1535 C1533 1.327 . S
C1536 C1524 1.349 . S
C1536 H1530 0.950 . S
C1536 C1537 1.327 . S
C1537 H1531 0.950 . S
C1537 C1536 1.327 . S
C1537 C1541 1.429 . S
C1538 C1521 1.574 . S
C1538 H1532 0.949 . S
C1538 C1542 1.368 . S
C1539 C1520 1.429 . S
C1539 C1533 1.429 . S
C1539 C1540 1.523 1_565 S
C1540 C1521 1.368 . S
C1540 C1534 1.368 . S
C1540 C1539 1.523 1_545 S
C1541 C1525 1.429 . S
C1541 C1537 1.429 . S
C1541 C1542 1.523 . S
C1542 C1526 1.368 . S
C1542 C1538 1.368 . S
C1542 C1541 1.523 . S
H1543 C1518 0.950 . S
H1544 C1520 0.950 . S
H1545 C1521 0.949 . S
H1546 C1523 0.950 . S
H1547 C1525 0.950 . S
C1548 C1549 1.349 . S
C1548 C1550 1.327 . S
C1548 H1573 0.950 . S
C1549 C1548 1.349 . S
C1549 C1565 1.349 . S
C1550 C1548 1.327 . S
C1550 C1569 1.429 . S
C1550 H1574 0.950 . S
C1551 C1568 1.574 . S
C1551 C1570 1.368 . S
C1551 H1575 0.949 . S
H1552 C1556 0.949 . S
C1553 C1554 1.349 . S
C1553 C1555 1.327 . S
C1553 H1576 0.950 . S
C1554 C1553 1.349 . S
C1554 C1566 1.349 . S
C1555 C1553 1.327 . S
C1555 C1571 1.429 . S
C1555 H1577 0.950 . S
C1556 H1552 0.949 . S
C1556 C1564 1.574 . S
C1556 C1572 1.368 . S
H1557 C1565 0.950 . S
H1558 C1563 0.950 . S
H1559 C1564 0.949 . S
H1560 C1566 0.950 . S
H1561 C1567 0.950 . S
H1562 C1568 0.949 . S
C1563 H1558 0.950 . S
C1563 C1565 1.327 . S
C1563 C1569 1.429 . S
C1564 C1556 1.574 . S
C1564 H1559 0.949 . S
C1564 C1570 1.368 . S
C1565 C1549 1.349 . S
C1565 H1557 0.950 . S
C1565 C1563 1.327 . S
C1566 C1554 1.349 . S
C1566 H1560 0.950 . S
C1566 C1567 1.327 . S
C1567 H1561 0.950 . S
C1567 C1566 1.327 . S
C1567 C1571 1.429 . S
C1568 C1551 1.574 . S
C1568 H1562 0.949 . S
C1568 C1572 1.368 . S
C1569 C1550 1.429 . S
C1569 C1563 1.429 . S
C1569 C1570 1.523 . S
C1570 C1551 1.368 . S
C1570 C1564 1.368 . S
C1570 C1569 1.523 . S
C1571 C1555 1.429 . S
C1571 C1567 1.429 . S
C1571 C1572 1.523 . S
C1572 C1556 1.368 . S
C1572 C1568 1.368 . S
C1572 C1571 1.523 . S
H1573 C1548 0.950 . S
H1574 C1550 0.950 . S
H1575 C1551 0.949 . S
H1576 C1553 0.950 . S
H1577 C1555 0.950 . S
C1578 C1579 1.349 . S
C1578 C1580 1.327 . S
C1578 H1603 0.950 . S
C1579 C1578 1.349 . S
C1579 C1595 1.349 . S
C1580 C1578 1.327 . S
C1580 C1599 1.429 . S
C1580 H1604 0.950 . S
C1581 C1598 1.574 . S
C1581 C1600 1.368 . S
C1581 H1605 0.949 . S
H1582 C1586 0.949 . S
C1583 C1584 1.349 . S
C1583 C1585 1.327 . S
C1583 H1606 0.950 . S
C1584 C1583 1.349 . S
C1584 C1596 1.349 . S
C1585 C1583 1.327 . S
C1585 C1601 1.429 . S
C1585 H1607 0.950 . S
C1586 H1582 0.949 . S
C1586 C1594 1.574 . S
C1586 C1602 1.368 . S
H1587 C1595 0.950 . S
H1588 C1593 0.950 . S
H1589 C1594 0.949 . S
H1590 C1596 0.950 . S
H1591 C1597 0.950 . S
H1592 C1598 0.949 . S
C1593 H1588 0.950 . S
C1593 C1595 1.327 . S
C1593 C1599 1.429 . S
C1594 C1586 1.574 . S
C1594 H1589 0.949 . S
C1594 C1600 1.368 . S
C1595 C1579 1.349 . S
C1595 H1587 0.950 . S
C1595 C1593 1.327 . S
C1596 C1584 1.349 . S
C1596 H1590 0.950 . S
C1596 C1597 1.327 . S
C1597 H1591 0.950 . S
C1597 C1596 1.327 . S
C1597 C1601 1.429 . S
C1598 C1581 1.574 . S
C1598 H1592 0.949 . S
C1598 C1602 1.368 . S
C1599 C1580 1.429 . S
C1599 C1593 1.429 . S
C1599 C1600 1.523 . S
C1600 C1581 1.368 . S
C1600 C1594 1.368 . S
C1600 C1599 1.523 . S
C1601 C1585 1.429 . S
C1601 C1597 1.429 . S
C1601 C1602 1.523 . S
C1602 C1586 1.368 . S
C1602 C1598 1.368 . S
C1602 C1601 1.523 . S
H1603 C1578 0.950 . S
H1604 C1580 0.950 . S
H1605 C1581 0.949 . S
H1606 C1583 0.950 . S
H1607 C1585 0.950 . S
C1608 C1609 1.349 . S
C1608 C1610 1.327 . S
C1608 H1633 0.950 . S
C1609 C1608 1.349 . S
C1609 C1625 1.349 . S
C1610 C1608 1.327 . S
C1610 C1629 1.429 . S
C1610 H1634 0.950 . S
C1611 C1628 1.574 . S
C1611 C1630 1.368 . S
C1611 H1635 0.949 . S
H1612 C1616 0.949 . S
C1613 C1614 1.349 . S
C1613 C1615 1.327 . S
C1613 H1636 0.950 . S
C1614 C1613 1.349 . S
C1614 C1626 1.349 . S
C1615 C1613 1.327 . S
C1615 C1631 1.429 . S
C1615 H1637 0.950 . S
C1616 H1612 0.949 . S
C1616 C1624 1.574 . S
C1616 C1632 1.368 . S
H1617 C1625 0.950 . S
H1618 C1623 0.950 . S
H1619 C1624 0.949 . S
H1620 C1626 0.950 . S
H1621 C1627 0.950 . S
H1622 C1628 0.949 . S
C1623 H1618 0.950 . S
C1623 C1625 1.327 . S
C1623 C1629 1.429 . S
C1624 C1616 1.574 . S
C1624 H1619 0.949 . S
C1624 C1630 1.368 . S
C1625 C1609 1.349 . S
C1625 H1617 0.950 . S
C1625 C1623 1.327 . S
C1626 C1614 1.349 . S
C1626 H1620 0.950 . S
C1626 C1627 1.327 . S
C1627 H1621 0.950 . S
C1627 C1626 1.327 . S
C1627 C1631 1.429 . S
C1628 C1611 1.574 . S
C1628 H1622 0.949 . S
C1628 C1632 1.368 . S
C1629 C1610 1.429 . S
C1629 C1623 1.429 . S
C1629 C1630 1.523 . S
C1630 C1611 1.368 . S
C1630 C1624 1.368 . S
C1630 C1629 1.523 . S
C1631 C1615 1.429 . S
C1631 C1627 1.429 . S
C1631 C1632 1.523 . S
C1632 C1616 1.368 . S
C1632 C1628 1.368 . S
C1632 C1631 1.523 . S
H1633 C1608 0.950 . S
H1634 C1610 0.950 . S
H1635 C1611 0.949 . S
H1636 C1613 0.950 . S
H1637 C1615 0.950 . S
C1638 C1639 1.349 . S
C1638 C1640 1.327 . S
C1638 H1663 0.950 . S
C1639 C1638 1.349 . S
C1639 C1655 1.349 . S
C1640 C1638 1.327 . S
C1640 C1659 1.429 . S
C1640 H1664 0.950 . S
C1641 C1658 1.574 . S
C1641 C1660 1.368 . S
C1641 H1665 0.949 . S
H1642 C1646 0.949 . S
C1643 C1644 1.349 . S
C1643 C1645 1.327 . S
C1643 H1666 0.950 . S
C1644 C1643 1.349 . S
C1644 C1656 1.349 . S
C1645 C1643 1.327 . S
C1645 C1661 1.429 . S
C1645 H1667 0.950 . S
C1646 H1642 0.949 . S
C1646 C1654 1.574 . S
C1646 C1662 1.368 . S
H1647 C1655 0.950 . S
H1648 C1653 0.950 . S
H1649 C1654 0.949 . S
H1650 C1656 0.950 . S
H1651 C1657 0.950 . S
H1652 C1658 0.949 . S
C1653 H1648 0.950 . S
C1653 C1655 1.327 . S
C1653 C1659 1.429 . S
C1654 C1646 1.574 . S
C1654 H1649 0.949 . S
C1654 C1660 1.368 . S
C1655 C1639 1.349 . S
C1655 H1647 0.950 . S
C1655 C1653 1.327 . S
C1656 C1644 1.349 . S
C1656 H1650 0.950 . S
C1656 C1657 1.327 . S
C1657 H1651 0.950 . S
C1657 C1656 1.327 . S
C1657 C1661 1.429 . S
C1658 C1641 1.574 . S
C1658 H1652 0.949 . S
C1658 C1662 1.368 . S
C1659 C1640 1.429 . S
C1659 C1653 1.429 . S
C1659 C1660 1.523 . S
C1660 C1641 1.368 . S
C1660 C1654 1.368 . S
C1660 C1659 1.523 . S
C1661 C1645 1.429 . S
C1661 C1657 1.429 . S
C1661 C1662 1.523 . S
C1662 C1646 1.368 . S
C1662 C1658 1.368 . S
C1662 C1661 1.523 . S
H1663 C1638 0.950 . S
H1664 C1640 0.950 . S
H1665 C1641 0.949 . S
H1666 C1643 0.950 . S
H1667 C1645 0.950 . S
C1668 C1669 1.349 . S
C1668 C1670 1.327 . S
C1668 H1693 0.950 . S
C1669 C1668 1.349 . S
C1669 C1685 1.349 . S
C1670 C1668 1.327 . S
C1670 C1689 1.429 . S
C1670 H1694 0.950 . S
C1671 C1688 1.574 . S
C1671 C1690 1.368 . S
C1671 H1695 0.949 . S
H1672 C1676 0.949 . S
C1673 C1674 1.349 . S
C1673 C1675 1.327 . S
C1673 H1696 0.950 . S
C1674 C1673 1.349 . S
C1674 C1686 1.349 . S
C1675 C1673 1.327 . S
C1675 C1691 1.429 . S
C1675 H1697 0.950 . S
C1676 H1672 0.949 . S
C1676 C1684 1.574 . S
C1676 C1692 1.368 . S
H1677 C1685 0.950 . S
H1678 C1683 0.950 . S
H1679 C1684 0.949 . S
H1680 C1686 0.950 . S
H1681 C1687 0.950 . S
H1682 C1688 0.949 . S
C1683 H1678 0.950 . S
C1683 C1685 1.327 . S
C1683 C1689 1.429 . S
C1684 C1676 1.574 . S
C1684 H1679 0.949 . S
C1684 C1690 1.368 . S
C1685 C1669 1.349 . S
C1685 H1677 0.950 . S
C1685 C1683 1.327 . S
C1686 C1674 1.349 . S
C1686 H1680 0.950 . S
C1686 C1687 1.327 . S
C1687 H1681 0.950 . S
C1687 C1686 1.327 . S
C1687 C1691 1.429 . S
C1688 C1671 1.574 . S
C1688 H1682 0.949 . S
C1688 C1692 1.368 . S
C1689 C1670 1.429 . S
C1689 C1683 1.429 . S
C1689 C1690 1.523 . S
C1690 C1671 1.368 . S
C1690 C1684 1.368 . S
C1690 C1689 1.523 . S
C1691 C1675 1.429 . S
C1691 C1687 1.429 . S
C1691 C1692 1.523 . S
C1692 C1676 1.368 . S
C1692 C1688 1.368 . S
C1692 C1691 1.523 . S
H1693 C1668 0.950 . S
H1694 C1670 0.950 . S
H1695 C1671 0.949 . S
H1696 C1673 0.950 . S
H1697 C1675 0.950 . S
C1698 C1699 1.349 . S
C1698 C1700 1.327 . S
C1698 H1723 0.950 . S
C1699 C1698 1.349 . S
C1699 C1715 1.349 . S
C1700 C1698 1.327 . S
C1700 C1719 1.429 . S
C1700 H1724 0.950 . S
C1701 C1718 1.574 . S
C1701 C1720 1.368 . S
C1701 H1725 0.949 . S
H1702 C1706 0.949 . S
C1703 C1704 1.349 . S
C1703 C1705 1.327 . S
C1703 H1726 0.950 . S
C1704 C1703 1.349 . S
C1704 C1716 1.349 . S
C1705 C1703 1.327 . S
C1705 C1721 1.429 . S
C1705 H1727 0.950 . S
C1706 H1702 0.949 . S
C1706 C1714 1.574 . S
C1706 C1722 1.368 . S
H1707 C1715 0.950 . S
H1708 C1713 0.950 . S
H1709 C1714 0.949 . S
H1710 C1716 0.950 . S
H1711 C1717 0.950 . S
H1712 C1718 0.949 . S
C1713 H1708 0.950 . S
C1713 C1715 1.327 . S
C1713 C1719 1.429 . S
C1714 C1706 1.574 . S
C1714 H1709 0.949 . S
C1714 C1720 1.368 . S
C1715 C1699 1.349 . S
C1715 H1707 0.950 . S
C1715 C1713 1.327 . S
C1716 C1704 1.349 . S
C1716 H1710 0.950 . S
C1716 C1717 1.327 . S
C1717 H1711 0.950 . S
C1717 C1716 1.327 . S
C1717 C1721 1.429 . S
C1718 C1701 1.574 . S
C1718 H1712 0.949 . S
C1718 C1722 1.368 . S
C1719 C1700 1.429 . S
C1719 C1713 1.429 . S
C1719 C1720 1.523 . S
C1720 C1701 1.368 . S
C1720 C1714 1.368 . S
C1720 C1719 1.523 . S
C1721 C1705 1.429 . S
C1721 C1717 1.429 . S
C1721 C1722 1.523 . S
C1722 C1706 1.368 . S
C1722 C1718 1.368 . S
C1722 C1721 1.523 . S
H1723 C1698 0.950 . S
H1724 C1700 0.950 . S
H1725 C1701 0.949 . S
H1726 C1703 0.950 . S
H1727 C1705 0.950 . S
C1728 C1729 1.349 . S
C1728 C1730 1.327 . S
C1728 H1753 0.950 . S
C1729 C1728 1.349 . S
C1729 C1745 1.349 . S
C1730 C1728 1.327 . S
C1730 C1749 1.429 . S
C1730 H1754 0.950 . S
C1731 C1748 1.574 . S
C1731 C1750 1.368 . S
C1731 H1755 0.949 . S
H1732 C1736 0.949 . S
C1733 C1734 1.349 . S
C1733 C1735 1.327 . S
C1733 H1756 0.950 . S
C1734 C1733 1.349 . S
C1734 C1746 1.349 . S
C1735 C1733 1.327 . S
C1735 C1751 1.429 . S
C1735 H1757 0.950 . S
C1736 H1732 0.949 . S
C1736 C1744 1.574 . S
C1736 C1752 1.368 . S
H1737 C1745 0.950 . S
H1738 C1743 0.950 . S
H1739 C1744 0.949 . S
H1740 C1746 0.950 . S
H1741 C1747 0.950 . S
H1742 C1748 0.949 . S
C1743 H1738 0.950 . S
C1743 C1745 1.327 . S
C1743 C1749 1.429 . S
C1744 C1736 1.574 . S
C1744 H1739 0.949 . S
C1744 C1750 1.368 . S
C1745 C1729 1.349 . S
C1745 H1737 0.950 . S
C1745 C1743 1.327 . S
C1746 C1734 1.349 . S
C1746 H1740 0.950 . S
C1746 C1747 1.327 . S
C1747 H1741 0.950 . S
C1747 C1746 1.327 . S
C1747 C1751 1.429 . S
C1748 C1731 1.574 . S
C1748 H1742 0.949 . S
C1748 C1752 1.368 . S
C1749 C1730 1.429 . S
C1749 C1743 1.429 . S
C1749 C1750 1.523 . S
C1750 C1731 1.368 . S
C1750 C1744 1.368 . S
C1750 C1749 1.523 . S
C1751 C1735 1.429 . S
C1751 C1747 1.429 . S
C1751 C1752 1.523 . S
C1752 C1736 1.368 . S
C1752 C1748 1.368 . S
C1752 C1751 1.523 . S
H1753 C1728 0.950 . S
H1754 C1730 0.950 . S
H1755 C1731 0.949 . S
H1756 C1733 0.950 . S
H1757 C1735 0.950 . S
C1758 C1759 1.349 . S
C1758 C1760 1.327 . S
C1758 H1783 0.950 . S
C1759 C1758 1.349 . S
C1759 C1775 1.349 . S
C1760 C1758 1.327 . S
C1760 C1779 1.429 . S
C1760 H1784 0.950 . S
C1761 C1778 1.574 . S
C1761 C1780 1.368 . S
C1761 H1785 0.949 . S
H1762 C1766 0.949 . S
C1763 C1764 1.349 . S
C1763 C1765 1.327 . S
C1763 H1786 0.950 . S
C1764 C1763 1.349 . S
C1764 C1776 1.349 . S
C1765 C1763 1.327 . S
C1765 C1781 1.429 . S
C1765 H1787 0.950 . S
C1766 H1762 0.949 . S
C1766 C1774 1.574 . S
C1766 C1782 1.368 . S
H1767 C1775 0.950 . S
H1768 C1773 0.950 . S
H1769 C1774 0.949 . S
H1770 C1776 0.950 . S
H1771 C1777 0.950 . S
H1772 C1778 0.949 . S
C1773 H1768 0.950 . S
C1773 C1775 1.327 . S
C1773 C1779 1.429 . S
C1774 C1766 1.574 . S
C1774 H1769 0.949 . S
C1774 C1780 1.368 . S
C1775 C1759 1.349 . S
C1775 H1767 0.950 . S
C1775 C1773 1.327 . S
C1776 C1764 1.349 . S
C1776 H1770 0.950 . S
C1776 C1777 1.327 . S
C1777 H1771 0.950 . S
C1777 C1776 1.327 . S
C1777 C1781 1.429 . S
C1778 C1761 1.574 . S
C1778 H1772 0.949 . S
C1778 C1782 1.368 . S
C1779 C1760 1.429 . S
C1779 C1773 1.429 . S
C1779 C1780 1.523 . S
C1780 C1761 1.368 . S
C1780 C1774 1.368 . S
C1780 C1779 1.523 . S
C1781 C1765 1.429 . S
C1781 C1777 1.429 . S
C1781 C1782 1.523 . S
C1782 C1766 1.368 . S
C1782 C1778 1.368 . S
C1782 C1781 1.523 . S
H1783 C1758 0.950 . S
H1784 C1760 0.950 . S
H1785 C1761 0.949 . S
H1786 C1763 0.950 . S
H1787 C1765 0.950 . S
C1788 C1789 1.349 . S
C1788 C1790 1.327 . S
C1788 H1813 0.950 . S
C1789 C1788 1.349 . S
C1789 C1805 1.349 . S
C1790 C1788 1.327 . S
C1790 C1809 1.429 . S
C1790 H1814 0.950 . S
C1791 C1808 1.574 . S
C1791 C1810 1.368 . S
C1791 H1815 0.949 . S
H1792 C1796 0.949 . S
C1793 C1794 1.349 . S
C1793 C1795 1.327 . S
C1793 H1816 0.950 . S
C1794 C1793 1.349 . S
C1794 C1806 1.349 . S
C1795 C1793 1.327 . S
C1795 C1811 1.429 . S
C1795 H1817 0.950 . S
C1796 H1792 0.949 . S
C1796 C1804 1.574 . S
C1796 C1812 1.368 . S
H1797 C1805 0.950 . S
H1798 C1803 0.950 . S
H1799 C1804 0.949 . S
H1800 C1806 0.950 . S
H1801 C1807 0.950 . S
H1802 C1808 0.949 . S
C1803 H1798 0.950 . S
C1803 C1805 1.327 . S
C1803 C1809 1.429 . S
C1804 C1796 1.574 . S
C1804 H1799 0.949 . S
C1804 C1810 1.368 . S
C1805 C1789 1.349 . S
C1805 H1797 0.950 . S
C1805 C1803 1.327 . S
C1806 C1794 1.349 . S
C1806 H1800 0.950 . S
C1806 C1807 1.327 . S
C1807 H1801 0.950 . S
C1807 C1806 1.327 . S
C1807 C1811 1.429 . S
C1808 C1791 1.574 . S
C1808 H1802 0.949 . S
C1808 C1812 1.368 . S
C1809 C1790 1.429 . S
C1809 C1803 1.429 . S
C1809 C1810 1.523 . S
C1810 C1791 1.368 . S
C1810 C1804 1.368 . S
C1810 C1809 1.523 . S
C1811 C1795 1.429 . S
C1811 C1807 1.429 . S
C1811 C1812 1.523 . S
C1812 C1796 1.368 . S
C1812 C1808 1.368 . S
C1812 C1811 1.523 . S
H1813 C1788 0.950 . S
H1814 C1790 0.950 . S
H1815 C1791 0.949 . S
H1816 C1793 0.950 . S
H1817 C1795 0.950 . S
C1818 C1819 1.349 . S
C1818 C1820 1.327 . S
C1818 H1843 0.950 . S
C1819 C1818 1.349 . S
C1819 C1835 1.349 . S
C1820 C1818 1.327 . S
C1820 C1839 1.429 . S
C1820 H1844 0.950 . S
C1821 C1838 1.574 . S
C1821 C1840 1.368 . S
C1821 H1845 0.949 . S
H1822 C1826 0.949 . S
C1823 C1824 1.349 . S
C1823 C1825 1.327 . S
C1823 H1846 0.950 . S
C1824 C1823 1.349 . S
C1824 C1836 1.349 . S
C1825 C1823 1.327 . S
C1825 C1841 1.429 . S
C1825 H1847 0.950 . S
C1826 H1822 0.949 . S
C1826 C1834 1.574 . S
C1826 C1842 1.368 . S
H1827 C1835 0.950 . S
H1828 C1833 0.950 . S
H1829 C1834 0.949 . S
H1830 C1836 0.950 . S
H1831 C1837 0.950 . S
H1832 C1838 0.949 . S
C1833 H1828 0.950 . S
C1833 C1835 1.327 . S
C1833 C1839 1.429 . S
C1834 C1826 1.574 . S
C1834 H1829 0.949 . S
C1834 C1840 1.368 . S
C1835 C1819 1.349 . S
C1835 H1827 0.950 . S
C1835 C1833 1.327 . S
C1836 C1824 1.349 . S
C1836 H1830 0.950 . S
C1836 C1837 1.327 . S
C1837 H1831 0.950 . S
C1837 C1836 1.327 . S
C1837 C1841 1.429 . S
C1838 C1821 1.574 . S
C1838 H1832 0.949 . S
C1838 C1842 1.368 . S
C1839 C1820 1.429 . S
C1839 C1833 1.429 . S
C1839 C1840 1.523 . S
C1840 C1821 1.368 . S
C1840 C1834 1.368 . S
C1840 C1839 1.523 . S
C1841 C1825 1.429 . S
C1841 C1837 1.429 . S
C1841 C1842 1.523 . S
C1842 C1826 1.368 . S
C1842 C1838 1.368 . S
C1842 C1841 1.523 . S
H1843 C1818 0.950 . S
H1844 C1820 0.950 . S
H1845 C1821 0.949 . S
H1846 C1823 0.950 . S
H1847 C1825 0.950 . S
C1848 C1849 1.349 . S
C1848 C1850 1.327 . S
C1848 H1873 0.950 . S
C1849 C1848 1.349 . S
C1849 C1865 1.349 . S
C1850 C1848 1.327 . S
C1850 C1869 1.429 . S
C1850 H1874 0.950 . S
C1851 C1868 1.574 . S
C1851 C1870 1.368 . S
C1851 H1875 0.949 . S
H1852 C1856 0.949 . S
C1853 C1854 1.349 . S
C1853 C1855 1.327 . S
C1853 H1876 0.950 . S
C1854 C1853 1.349 . S
C1854 C1866 1.349 . S
C1855 C1853 1.327 . S
C1855 C1871 1.429 . S
C1855 H1877 0.950 . S
C1856 H1852 0.949 . S
C1856 C1864 1.574 . S
C1856 C1872 1.368 . S
H1857 C1865 0.950 . S
H1858 C1863 0.950 . S
H1859 C1864 0.949 . S
H1860 C1866 0.950 . S
H1861 C1867 0.950 . S
H1862 C1868 0.949 . S
C1863 H1858 0.950 . S
C1863 C1865 1.327 . S
C1863 C1869 1.429 . S
C1864 C1856 1.574 . S
C1864 H1859 0.949 . S
C1864 C1870 1.368 . S
C1865 C1849 1.349 . S
C1865 H1857 0.950 . S
C1865 C1863 1.327 . S
C1866 C1854 1.349 . S
C1866 H1860 0.950 . S
C1866 C1867 1.327 . S
C1867 H1861 0.950 . S
C1867 C1866 1.327 . S
C1867 C1871 1.429 . S
C1868 C1851 1.574 . S
C1868 H1862 0.949 . S
C1868 C1872 1.368 . S
C1869 C1850 1.429 . S
C1869 C1863 1.429 . S
C1869 C1870 1.523 . S
C1870 C1851 1.368 . S
C1870 C1864 1.368 . S
C1870 C1869 1.523 . S
C1871 C1855 1.429 . S
C1871 C1867 1.429 . S
C1871 C1872 1.523 . S
C1872 C1856 1.368 . S
C1872 C1868 1.368 . S
C1872 C1871 1.523 . S
H1873 C1848 0.950 . S
H1874 C1850 0.950 . S
H1875 C1851 0.949 . S
H1876 C1853 0.950 . S
H1877 C1855 0.950 . S
C1878 C1879 1.349 . S
C1878 C1880 1.327 . S
C1878 H1903 0.950 . S
C1879 C1878 1.349 . S
C1879 C1895 1.349 . S
C1880 C1878 1.327 . S
C1880 C1899 1.429 . S
C1880 H1904 0.950 . S
C1881 C1898 1.574 . S
C1881 C1900 1.368 . S
C1881 H1905 0.949 . S
H1882 C1886 0.949 . S
C1883 C1884 1.349 . S
C1883 C1885 1.327 . S
C1883 H1906 0.950 . S
C1884 C1883 1.349 . S
C1884 C1896 1.349 . S
C1885 C1883 1.327 . S
C1885 C1901 1.429 . S
C1885 H1907 0.950 . S
C1886 H1882 0.949 . S
C1886 C1894 1.574 . S
C1886 C1902 1.368 . S
H1887 C1895 0.950 . S
H1888 C1893 0.950 . S
H1889 C1894 0.949 . S
H1890 C1896 0.950 . S
H1891 C1897 0.950 . S
H1892 C1898 0.949 . S
C1893 H1888 0.950 . S
C1893 C1895 1.327 . S
C1893 C1899 1.429 . S
C1894 C1886 1.574 . S
C1894 H1889 0.949 . S
C1894 C1900 1.368 . S
C1895 C1879 1.349 . S
C1895 H1887 0.950 . S
C1895 C1893 1.327 . S
C1896 C1884 1.349 . S
C1896 H1890 0.950 . S
C1896 C1897 1.327 . S
C1897 H1891 0.950 . S
C1897 C1896 1.327 . S
C1897 C1901 1.429 . S
C1898 C1881 1.574 . S
C1898 H1892 0.949 . S
C1898 C1902 1.368 . S
C1899 C1880 1.429 . S
C1899 C1893 1.429 . S
C1899 C1900 1.523 . S
C1900 C1881 1.368 . S
C1900 C1894 1.368 . S
C1900 C1899 1.523 . S
C1901 C1885 1.429 . S
C1901 C1897 1.429 . S
C1901 C1902 1.523 . S
C1902 C1886 1.368 . S
C1902 C1898 1.368 . S
C1902 C1901 1.523 . S
H1903 C1878 0.950 . S
H1904 C1880 0.950 . S
H1905 C1881 0.949 . S
H1906 C1883 0.950 . S
H1907 C1885 0.950 . S
C1908 C1909 1.349 . S
C1908 C1910 1.327 . S
C1908 H1933 0.950 . S
C1909 C1908 1.349 . S
C1909 C1925 1.349 . S
C1910 C1908 1.327 . S
C1910 C1929 1.429 . S
C1910 H1934 0.950 . S
C1911 C1928 1.574 . S
C1911 C1930 1.368 . S
C1911 H1935 0.949 . S
H1912 C1916 0.949 . S
C1913 C1914 1.349 . S
C1913 C1915 1.327 . S
C1913 H1936 0.950 . S
C1914 C1913 1.349 . S
C1914 C1926 1.349 . S
C1915 C1913 1.327 . S
C1915 C1931 1.429 . S
C1915 H1937 0.950 . S
C1916 H1912 0.949 . S
C1916 C1924 1.574 . S
C1916 C1932 1.368 . S
H1917 C1925 0.950 . S
H1918 C1923 0.950 . S
H1919 C1924 0.949 . S
H1920 C1926 0.950 . S
H1921 C1927 0.950 . S
H1922 C1928 0.949 . S
C1923 H1918 0.950 . S
C1923 C1925 1.327 . S
C1923 C1929 1.429 . S
C1924 C1916 1.574 . S
C1924 H1919 0.949 . S
C1924 C1930 1.368 . S
C1925 C1909 1.349 . S
C1925 H1917 0.950 . S
C1925 C1923 1.327 . S
C1926 C1914 1.349 . S
C1926 H1920 0.950 . S
C1926 C1927 1.327 . S
C1927 H1921 0.950 . S
C1927 C1926 1.327 . S
C1927 C1931 1.429 . S
C1928 C1911 1.574 . S
C1928 H1922 0.949 . S
C1928 C1932 1.368 . S
C1929 C1910 1.429 . S
C1929 C1923 1.429 . S
C1929 C1930 1.523 . S
C1930 C1911 1.368 . S
C1930 C1924 1.368 . S
C1930 C1929 1.523 . S
C1931 C1915 1.429 . S
C1931 C1927 1.429 . S
C1931 C1932 1.523 . S
C1932 C1916 1.368 . S
C1932 C1928 1.368 . S
C1932 C1931 1.523 . S
H1933 C1908 0.950 . S
H1934 C1910 0.950 . S
H1935 C1911 0.949 . S
H1936 C1913 0.950 . S
H1937 C1915 0.950 . S
C1938 C1939 1.349 . S
C1938 C1940 1.327 . S
C1938 H1963 0.950 . S
C1939 C1938 1.349 . S
C1939 C1955 1.349 . S
C1940 C1938 1.327 . S
C1940 C1959 1.429 . S
C1940 H1964 0.950 . S
C1941 C1958 1.574 . S
C1941 C1960 1.368 . S
C1941 H1965 0.949 . S
H1942 C1946 0.949 . S
C1943 C1944 1.349 . S
C1943 C1945 1.327 . S
C1943 H1966 0.950 . S
C1944 C1943 1.349 . S
C1944 C1956 1.349 . S
C1945 C1943 1.327 . S
C1945 C1961 1.429 . S
C1945 H1967 0.950 . S
C1946 H1942 0.949 . S
C1946 C1954 1.574 . S
C1946 C1962 1.368 . S
H1947 C1955 0.950 . S
H1948 C1953 0.950 . S
H1949 C1954 0.949 . S
H1950 C1956 0.950 . S
H1951 C1957 0.950 . S
H1952 C1958 0.949 . S
C1953 H1948 0.950 . S
C1953 C1955 1.327 . S
C1953 C1959 1.429 . S
C1954 C1946 1.574 . S
C1954 H1949 0.949 . S
C1954 C1960 1.368 . S
C1955 C1939 1.349 . S
C1955 H1947 0.950 . S
C1955 C1953 1.327 . S
C1956 C1944 1.349 . S
C1956 H1950 0.950 . S
C1956 C1957 1.327 . S
C1957 H1951 0.950 . S
C1957 C1956 1.327 . S
C1957 C1961 1.429 . S
C1958 C1941 1.574 . S
C1958 H1952 0.949 . S
C1958 C1962 1.368 . S
C1959 C1940 1.429 . S
C1959 C1953 1.429 . S
C1959 C1960 1.523 . S
C1960 C1941 1.368 . S
C1960 C1954 1.368 . S
C1960 C1959 1.523 . S
C1961 C1945 1.429 . S
C1961 C1957 1.429 . S
C1961 C1962 1.523 . S
C1962 C1946 1.368 . S
C1962 C1958 1.368 . S
C1962 C1961 1.523 . S
H1963 C1938 0.950 . S
H1964 C1940 0.950 . S
H1965 C1941 0.949 . S
H1966 C1943 0.950 . S
H1967 C1945 0.950 . S
C1968 C1969 1.349 . S
C1968 C1970 1.327 . S
C1968 H1993 0.950 . S
C1969 C1968 1.349 . S
C1969 C1985 1.349 . S
C1970 C1968 1.327 . S
C1970 C1989 1.429 . S
C1970 H1994 0.950 . S
C1971 C1988 1.574 . S
C1971 C1990 1.368 . S
C1971 H1995 0.949 . S
H1972 C1976 0.949 . S
C1973 C1974 1.349 . S
C1973 C1975 1.327 . S
C1973 H1996 0.950 . S
C1974 C1973 1.349 . S
C1974 C1986 1.349 . S
C1975 C1973 1.327 . S
C1975 C1991 1.429 . S
C1975 H1997 0.950 . S
C1976 H1972 0.949 . S
C1976 C1984 1.574 . S
C1976 C1992 1.368 . S
H1977 C1985 0.950 . S
H1978 C1983 0.950 . S
H1979 C1984 0.949 . S
H1980 C1986 0.950 . S
H1981 C1987 0.950 . S
H1982 C1988 0.949 . S
C1983 H1978 0.950 . S
C1983 C1985 1.327 . S
C1983 C1989 1.429 . S
C1984 C1976 1.574 . S
C1984 H1979 0.949 . S
C1984 C1990 1.368 . S
C1985 C1969 1.349 . S
C1985 H1977 0.950 . S
C1985 C1983 1.327 . S
C1986 C1974 1.349 . S
C1986 H1980 0.950 . S
C1986 C1987 1.327 . S
C1987 H1981 0.950 . S
C1987 C1986 1.327 . S
C1987 C1991 1.429 . S
C1988 C1971 1.574 . S
C1988 H1982 0.949 . S
C1988 C1992 1.368 . S
C1989 C1970 1.429 . S
C1989 C1983 1.429 . S
C1989 C1990 1.523 . S
C1990 C1971 1.368 . S
C1990 C1984 1.368 . S
C1990 C1989 1.523 . S
C1991 C1975 1.429 . S
C1991 C1987 1.429 . S
C1991 C1992 1.523 . S
C1992 C1976 1.368 . S
C1992 C1988 1.368 . S
C1992 C1991 1.523 . S
H1993 C1968 0.950 . S
H1994 C1970 0.950 . S
H1995 C1971 0.949 . S
H1996 C1973 0.950 . S
H1997 C1975 0.950 . S
C1998 C1999 1.349 . S
C1998 C2000 1.327 . S
C1998 H2023 0.950 . S
C1999 C1998 1.349 . S
C1999 C2015 1.349 . S
C2000 C1998 1.327 . S
C2000 C2019 1.429 . S
C2000 H2024 0.950 . S
C2001 C2018 1.574 . S
C2001 C2020 1.368 . S
C2001 H2025 0.949 . S
H2002 C2006 0.949 . S
C2003 C2004 1.349 . S
C2003 C2005 1.327 . S
C2003 H2026 0.950 . S
C2004 C2003 1.349 . S
C2004 C2016 1.349 . S
C2005 C2003 1.327 . S
C2005 C2021 1.429 . S
C2005 H2027 0.950 . S
C2006 H2002 0.949 . S
C2006 C2014 1.574 . S
C2006 C2022 1.368 . S
H2007 C2015 0.950 . S
H2008 C2013 0.950 . S
H2009 C2014 0.949 . S
H2010 C2016 0.950 . S
H2011 C2017 0.950 . S
H2012 C2018 0.949 . S
C2013 H2008 0.950 . S
C2013 C2015 1.327 . S
C2013 C2019 1.429 . S
C2014 C2006 1.574 . S
C2014 H2009 0.949 . S
C2014 C2020 1.368 . S
C2015 C1999 1.349 . S
C2015 H2007 0.950 . S
C2015 C2013 1.327 . S
C2016 C2004 1.349 . S
C2016 H2010 0.950 . S
C2016 C2017 1.327 . S
C2017 H2011 0.950 . S
C2017 C2016 1.327 . S
C2017 C2021 1.429 . S
C2018 C2001 1.574 . S
C2018 H2012 0.949 . S
C2018 C2022 1.368 . S
C2019 C2000 1.429 . S
C2019 C2013 1.429 . S
C2019 C2020 1.523 . S
C2020 C2001 1.368 . S
C2020 C2014 1.368 . S
C2020 C2019 1.523 . S
C2021 C2005 1.429 . S
C2021 C2017 1.429 . S
C2021 C2022 1.523 . S
C2022 C2006 1.368 . S
C2022 C2018 1.368 . S
C2022 C2021 1.523 . S
H2023 C1998 0.950 . S
H2024 C2000 0.950 . S
H2025 C2001 0.949 . S
H2026 C2003 0.950 . S
H2027 C2005 0.950 . S
C2028 C2029 1.349 . S
C2028 C2030 1.327 . S
C2028 H2053 0.950 . S
C2029 C2028 1.349 . S
C2029 C2045 1.349 . S
C2030 C2028 1.327 . S
C2030 C2049 1.429 . S
C2030 H2054 0.950 . S
C2031 C2048 1.574 . S
C2031 C2050 1.368 . S
C2031 H2055 0.949 . S
H2032 C2036 0.949 . S
C2033 C2034 1.349 . S
C2033 C2035 1.327 . S
C2033 H2056 0.950 . S
C2034 C2033 1.349 . S
C2034 C2046 1.349 . S
C2035 C2033 1.327 . S
C2035 C2051 1.429 . S
C2035 H2057 0.950 . S
C2036 H2032 0.949 . S
C2036 C2044 1.574 . S
C2036 C2052 1.368 . S
H2037 C2045 0.950 . S
H2038 C2043 0.950 . S
H2039 C2044 0.949 . S
H2040 C2046 0.950 . S
H2041 C2047 0.950 . S
H2042 C2048 0.949 . S
C2043 H2038 0.950 . S
C2043 C2045 1.327 . S
C2043 C2049 1.429 . S
C2044 C2036 1.574 . S
C2044 H2039 0.949 . S
C2044 C2050 1.368 . S
C2045 C2029 1.349 . S
C2045 H2037 0.950 . S
C2045 C2043 1.327 . S
C2046 C2034 1.349 . S
C2046 H2040 0.950 . S
C2046 C2047 1.327 . S
C2047 H2041 0.950 . S
C2047 C2046 1.327 . S
C2047 C2051 1.429 . S
C2048 C2031 1.574 . S
C2048 H2042 0.949 . S
C2048 C2052 1.368 . S
C2049 C2030 1.429 . S
C2049 C2043 1.429 . S
C2049 C2050 1.523 . S
C2050 C2031 1.368 . S
C2050 C2044 1.368 . S
C2050 C2049 1.523 . S
C2051 C2035 1.429 . S
C2051 C2047 1.429 . S
C2051 C2052 1.523 . S
C2052 C2036 1.368 . S
C2052 C2048 1.368 . S
C2052 C2051 1.523 . S
H2053 C2028 0.950 . S
H2054 C2030 0.950 . S
H2055 C2031 0.949 . S
H2056 C2033 0.950 . S
H2057 C2035 0.950 . S
C2058 C2059 1.349 . S
C2058 C2060 1.327 . S
C2058 H2083 0.950 . S
C2059 C2058 1.349 . S
C2059 C2075 1.349 . S
C2060 C2058 1.327 . S
C2060 C2079 1.429 . S
C2060 H2084 0.950 . S
C2061 C2078 1.574 . S
C2061 C2080 1.368 . S
C2061 H2085 0.949 . S
H2062 C2066 0.949 . S
C2063 C2064 1.349 . S
C2063 C2065 1.327 . S
C2063 H2086 0.950 . S
C2064 C2063 1.349 . S
C2064 C2076 1.349 . S
C2065 C2063 1.327 . S
C2065 C2081 1.429 . S
C2065 H2087 0.950 . S
C2066 H2062 0.949 . S
C2066 C2074 1.574 . S
C2066 C2082 1.368 . S
H2067 C2075 0.950 . S
H2068 C2073 0.950 . S
H2069 C2074 0.949 . S
H2070 C2076 0.950 . S
H2071 C2077 0.950 . S
H2072 C2078 0.949 . S
C2073 H2068 0.950 . S
C2073 C2075 1.327 . S
C2073 C2079 1.429 . S
C2074 C2066 1.574 . S
C2074 H2069 0.949 . S
C2074 C2080 1.368 . S
C2075 C2059 1.349 . S
C2075 H2067 0.950 . S
C2075 C2073 1.327 . S
C2076 C2064 1.349 . S
C2076 H2070 0.950 . S
C2076 C2077 1.327 . S
C2077 H2071 0.950 . S
C2077 C2076 1.327 . S
C2077 C2081 1.429 . S
C2078 C2061 1.574 . S
C2078 H2072 0.949 . S
C2078 C2082 1.368 . S
C2079 C2060 1.429 . S
C2079 C2073 1.429 . S
C2079 C2080 1.523 . S
C2080 C2061 1.368 . S
C2080 C2074 1.368 . S
C2080 C2079 1.523 . S
C2081 C2065 1.429 . S
C2081 C2077 1.429 . S
C2081 C2082 1.523 . S
C2082 C2066 1.368 . S
C2082 C2078 1.368 . S
C2082 C2081 1.523 . S
H2083 C2058 0.950 . S
H2084 C2060 0.950 . S
H2085 C2061 0.949 . S
H2086 C2063 0.950 . S
H2087 C2065 0.950 . S
C2088 C2089 1.349 . S
C2088 C2090 1.327 . S
C2088 H2113 0.950 . S
C2089 C2088 1.349 . S
C2089 C2105 1.349 . S
C2090 C2088 1.327 . S
C2090 C2109 1.429 . S
C2090 H2114 0.950 . S
C2091 C2108 1.574 . S
C2091 C2110 1.368 . S
C2091 H2115 0.949 . S
H2092 C2096 0.949 . S
C2093 C2094 1.349 . S
C2093 C2095 1.327 . S
C2093 H2116 0.950 . S
C2094 C2093 1.349 . S
C2094 C2106 1.349 . S
C2095 C2093 1.327 . S
C2095 C2111 1.429 . S
C2095 H2117 0.950 . S
C2096 H2092 0.949 . S
C2096 C2104 1.574 . S
C2096 C2112 1.368 . S
H2097 C2105 0.950 . S
H2098 C2103 0.950 . S
H2099 C2104 0.949 . S
H2100 C2106 0.950 . S
H2101 C2107 0.950 . S
H2102 C2108 0.949 . S
C2103 H2098 0.950 . S
C2103 C2105 1.327 . S
C2103 C2109 1.429 . S
C2104 C2096 1.574 . S
C2104 H2099 0.949 . S
C2104 C2110 1.368 . S
C2105 C2089 1.349 . S
C2105 H2097 0.950 . S
C2105 C2103 1.327 . S
C2106 C2094 1.349 . S
C2106 H2100 0.950 . S
C2106 C2107 1.327 . S
C2107 H2101 0.950 . S
C2107 C2106 1.327 . S
C2107 C2111 1.429 . S
C2108 C2091 1.574 . S
C2108 H2102 0.949 . S
C2108 C2112 1.368 . S
C2109 C2090 1.429 . S
C2109 C2103 1.429 . S
C2109 C2110 1.523 . S
C2110 C2091 1.368 . S
C2110 C2104 1.368 . S
C2110 C2109 1.523 . S
C2111 C2095 1.429 . S
C2111 C2107 1.429 . S
C2111 C2112 1.523 . S
C2112 C2096 1.368 . S
C2112 C2108 1.368 . S
C2112 C2111 1.523 . S
H2113 C2088 0.950 . S
H2114 C2090 0.950 . S
H2115 C2091 0.949 . S
H2116 C2093 0.950 . S
H2117 C2095 0.950 . S
C2118 C2119 1.349 . S
C2118 C2120 1.327 . S
C2118 H2143 0.950 . S
C2119 C2118 1.349 . S
C2119 C2135 1.349 . S
C2120 C2118 1.327 . S
C2120 C2139 1.429 . S
C2120 H2144 0.950 . S
C2121 C2138 1.574 . S
C2121 C2140 1.368 . S
C2121 H2145 0.949 . S
H2122 C2126 0.949 . S
C2123 C2124 1.349 . S
C2123 C2125 1.327 . S
C2123 H2146 0.950 . S
C2124 C2123 1.349 . S
C2124 C2136 1.349 . S
C2125 C2123 1.327 . S
C2125 C2141 1.429 . S
C2125 H2147 0.950 . S
C2126 H2122 0.949 . S
C2126 C2134 1.574 . S
C2126 C2142 1.368 . S
H2127 C2135 0.950 . S
H2128 C2133 0.950 . S
H2129 C2134 0.949 . S
H2130 C2136 0.950 . S
H2131 C2137 0.950 . S
H2132 C2138 0.949 . S
C2133 H2128 0.950 . S
C2133 C2135 1.327 . S
C2133 C2139 1.429 . S
C2134 C2126 1.574 . S
C2134 H2129 0.949 . S
C2134 C2140 1.368 . S
C2135 C2119 1.349 . S
C2135 H2127 0.950 . S
C2135 C2133 1.327 . S
C2136 C2124 1.349 . S
C2136 H2130 0.950 . S
C2136 C2137 1.327 . S
C2137 H2131 0.950 . S
C2137 C2136 1.327 . S
C2137 C2141 1.429 . S
C2138 C2121 1.574 . S
C2138 H2132 0.949 . S
C2138 C2142 1.368 . S
C2139 C2120 1.429 . S
C2139 C2133 1.429 . S
C2139 C2140 1.523 . S
C2140 C2121 1.368 . S
C2140 C2134 1.368 . S
C2140 C2139 1.523 . S
C2141 C2125 1.429 . S
C2141 C2137 1.429 . S
C2141 C2142 1.523 . S
C2142 C2126 1.368 . S
C2142 C2138 1.368 . S
C2142 C2141 1.523 . S
H2143 C2118 0.950 . S
H2144 C2120 0.950 . S
H2145 C2121 0.949 . S
H2146 C2123 0.950 . S
H2147 C2125 0.950 . S
C2148 C2149 1.349 . S
C2148 C2150 1.327 . S
C2148 H2173 0.950 . S
C2149 C2148 1.349 . S
C2149 C2165 1.349 . S
C2150 C2148 1.327 . S
C2150 C2169 1.429 . S
C2150 H2174 0.950 . S
C2151 C2168 1.574 . S
C2151 C2170 1.368 . S
C2151 H2175 0.949 . S
H2152 C2156 0.949 . S
C2153 C2154 1.349 . S
C2153 C2155 1.327 . S
C2153 H2176 0.950 . S
C2154 C2153 1.349 . S
C2154 C2166 1.349 . S
C2155 C2153 1.327 . S
C2155 C2171 1.429 . S
C2155 H2177 0.950 . S
C2156 H2152 0.949 . S
C2156 C2164 1.574 . S
C2156 C2172 1.368 . S
H2157 C2165 0.950 . S
H2158 C2163 0.950 . S
H2159 C2164 0.949 . S
H2160 C2166 0.950 . S
H2161 C2167 0.950 . S
H2162 C2168 0.949 . S
C2163 H2158 0.950 . S
C2163 C2165 1.327 . S
C2163 C2169 1.429 . S
C2164 C2156 1.574 . S
C2164 H2159 0.949 . S
C2164 C2170 1.368 . S
C2165 C2149 1.349 . S
C2165 H2157 0.950 . S
C2165 C2163 1.327 . S
C2166 C2154 1.349 . S
C2166 H2160 0.950 . S
C2166 C2167 1.327 . S
C2167 H2161 0.950 . S
C2167 C2166 1.327 . S
C2167 C2171 1.429 . S
C2168 C2151 1.574 . S
C2168 H2162 0.949 . S
C2168 C2172 1.368 . S
C2169 C2150 1.429 . S
C2169 C2163 1.429 . S
C2169 C2170 1.523 . S
C2170 C2151 1.368 . S
C2170 C2164 1.368 . S
C2170 C2169 1.523 . S
C2171 C2155 1.429 . S
C2171 C2167 1.429 . S
C2171 C2172 1.523 . S
C2172 C2156 1.368 . S
C2172 C2168 1.368 . S
C2172 C2171 1.523 . S
H2173 C2148 0.950 . S
H2174 C2150 0.950 . S
H2175 C2151 0.949 . S
H2176 C2153 0.950 . S
H2177 C2155 0.950 . S
C559 C147 1.692 . S
C564 C201 1.699 . S
C589 C158 1.851 . S
C594 C241 1.849 . S
C619 C136 1.610 . S
C624 C293 1.599 . S
C649 C125 1.466 . S
C654 C253 1.439 1_556 S
C684 C281 1.493 1_556 S
C679 C103 1.494 . S
C709 C114 1.313 . S
C714 C213 1.309 . S
C744 C220 1.685 1_556 S
C739 C131 1.668 . S
C774 C260 1.714 . S
C769 C109 1.705 . S
C799 C120 1.674 . S
C804 C280 1.694 . S
C829 C153 1.492 . S
C834 C240 1.498 . S
C859 C164 1.438 . S
C864 C300 1.442 . S
C894 C200 1.431 . S
C889 C142 1.413 . S
C924 C321 1.699 . S
C919 C15 1.692 . S
C949 C26 1.851 . S
C954 C361 1.849 . S
C979 C4 1.610 . S
C984 C413 1.599 . S
C1009 C191 1.466 . S
C1014 C373 1.447 . S
C1039 C169 1.494 . S
C1044 C401 1.493 . S
C1069 C180 1.313 . S
C1074 C333 1.309 . S
C1099 C197 1.667 . S
C1104 C340 1.684 . S
C1129 C175 1.705 . S
C1134 C380 1.714 . S
C1164 C400 1.694 . S
C1159 C186 1.673 . S
C1189 C21 1.492 . S
C1194 C360 1.498 . S
C1224 C420 1.442 . S
C1219 C32 1.438 . S
C1249 C10 1.413 . S
C1254 C320 1.431 . S
C1284 C441 1.699 . S
C1279 C81 1.692 . S
C1309 C92 1.851 . S
C1314 C481 1.849 . S
C1344 C533 1.599 . S
C1339 C70 1.610 . S
C1374 C493 1.447 . S
C1369 C59 1.466 . S
C1404 C521 1.493 . S
C1399 C37 1.494 . S
C1429 C48 1.313 . S
C1434 C453 1.308 . S
C1459 C65 1.667 . S
C1464 C460 1.684 . S
C1489 C43 1.705 . S
C1494 C500 1.714 . S
C1524 C520 1.694 . S
C1519 C54 1.674 . S
C1549 C87 1.492 . S
C1554 C480 1.498 . S
C1579 C98 1.438 . S
C1584 C540 1.442 . S
C1609 C76 1.413 . S
C1614 C440 1.431 . S
C1639 C170 1.412 . S
C1644 C224 1.392 . S
C1674 C264 1.969 . S
C1669 C181 1.997 . S
C1699 C192 1.566 . S
C1704 C287 1.581 . S
C1729 C71 1.840 . S
C1734 C247 1.844 . S
C1759 C82 1.692 . S
C1764 C304 1.677 . S
C1794 C207 1.248 . S
C1789 C93 1.240 . S
C1819 C38 1.412 . S
C1824 C344 1.392 . S
C1849 C49 1.997 . S
C1854 C384 1.969 . S
C1879 C60 1.566 . S
C1884 C407 1.581 . S
C1909 C137 1.840 . S
C1914 C367 1.844 . S
C1944 C424 1.677 . S
C1939 C148 1.692 . S
C1969 C159 1.240 . S
C1974 C327 1.248 . S
C1999 C104 1.412 . S
C2004 C464 1.392 . S
C2029 C115 1.997 . S
C2034 C504 1.969 . S
C2064 C527 1.580 . S
C2059 C126 1.565 . S
C2089 C5 1.840 . S
C2094 C487 1.844 . S
C2119 C16 1.693 . S
C2124 C544 1.677 . S
C2149 C27 1.240 . S
C2154 C447 1.248 . S
