# Generated by pormake.
# Topology tbo, (3,4)-cn, num edge types: 1
# Building blocks:
#     Node 0, Type 0, BuildingBlock: KAKCAD_clean_linker_0, # of connection points: 3
#     Node 1, Type 0, BuildingBlock: KAKCAD_clean_linker_0, # of connection points: 3
#     Node 2, Type 0, BuildingBlock: KAKCAD_clean_linker_0, # of connection points: 3
#     Node 3, Type 0, BuildingBlock: KAKCAD_clean_linker_0, # of connection points: 3
#     Node 4, Type 0, BuildingBlock: KAKCAD_clean_linker_0, # of connection points: 3
#     Node 5, Type 0, BuildingBlock: KAKCAD_clean_linker_0, # of connection points: 3
#     Node 6, Type 0, BuildingBlock: KAKCAD_clean_linker_0, # of connection points: 3
#     Node 7, Type 0, BuildingBlock: KAKCAD_clean_linker_0, # of connection points: 3
#     Node 8, Type 0, BuildingBlock: KAKCAD_clean_linker_0, # of connection points: 3
#     Node 9, Type 0, BuildingBlock: KAKCAD_clean_linker_0, # of connection points: 3
#     Node 10, Type 0, BuildingBlock: KAKCAD_clean_linker_0, # of connection points: 3
#     Node 11, Type 0, BuildingBlock: KAKCAD_clean_linker_0, # of connection points: 3
#     Node 12, Type 0, BuildingBlock: KAKCAD_clean_linker_0, # of connection points: 3
#     Node 13, Type 0, BuildingBlock: KAKCAD_clean_linker_0, # of connection points: 3
#     Node 14, Type 0, BuildingBlock: KAKCAD_clean_linker_0, # of connection points: 3
#     Node 15, Type 0, BuildingBlock: KAKCAD_clean_linker_0, # of connection points: 3
#     Node 16, Type 0, BuildingBlock: KAKCAD_clean_linker_0, # of connection points: 3
#     Node 17, Type 0, BuildingBlock: KAKCAD_clean_linker_0, # of connection points: 3
#     Node 18, Type 0, BuildingBlock: KAKCAD_clean_linker_0, # of connection points: 3
#     Node 19, Type 0, BuildingBlock: KAKCAD_clean_linker_0, # of connection points: 3
#     Node 20, Type 0, BuildingBlock: KAKCAD_clean_linker_0, # of connection points: 3
#     Node 21, Type 0, BuildingBlock: KAKCAD_clean_linker_0, # of connection points: 3
#     Node 22, Type 0, BuildingBlock: KAKCAD_clean_linker_0, # of connection points: 3
#     Node 23, Type 0, BuildingBlock: KAKCAD_clean_linker_0, # of connection points: 3
#     Node 24, Type 0, BuildingBlock: KAKCAD_clean_linker_0, # of connection points: 3
#     Node 25, Type 0, BuildingBlock: KAKCAD_clean_linker_0, # of connection points: 3
#     Node 26, Type 0, BuildingBlock: KAKCAD_clean_linker_0, # of connection points: 3
#     Node 27, Type 0, BuildingBlock: KAKCAD_clean_linker_0, # of connection points: 3
#     Node 28, Type 0, BuildingBlock: KAKCAD_clean_linker_0, # of connection points: 3
#     Node 29, Type 0, BuildingBlock: KAKCAD_clean_linker_0, # of connection points: 3
#     Node 30, Type 0, BuildingBlock: KAKCAD_clean_linker_0, # of connection points: 3
#     Node 31, Type 0, BuildingBlock: KAKCAD_clean_linker_0, # of connection points: 3
#     Node 32, Type 1, BuildingBlock: ESEHIV_clean_sbu_0, # of connection points: 4
#     Node 33, Type 1, BuildingBlock: ESEHIV_clean_sbu_0, # of connection points: 4
#     Node 34, Type 1, BuildingBlock: ESEHIV_clean_sbu_0, # of connection points: 4
#     Node 35, Type 1, BuildingBlock: ESEHIV_clean_sbu_0, # of connection points: 4
#     Node 36, Type 1, BuildingBlock: ESEHIV_clean_sbu_0, # of connection points: 4
#     Node 37, Type 1, BuildingBlock: ESEHIV_clean_sbu_0, # of connection points: 4
#     Node 38, Type 1, BuildingBlock: ESEHIV_clean_sbu_0, # of connection points: 4
#     Node 39, Type 1, BuildingBlock: ESEHIV_clean_sbu_0, # of connection points: 4
#     Node 40, Type 1, BuildingBlock: ESEHIV_clean_sbu_0, # of connection points: 4
#     Node 41, Type 1, BuildingBlock: ESEHIV_clean_sbu_0, # of connection points: 4
#     Node 42, Type 1, BuildingBlock: ESEHIV_clean_sbu_0, # of connection points: 4
#     Node 43, Type 1, BuildingBlock: ESEHIV_clean_sbu_0, # of connection points: 4
#     Node 44, Type 1, BuildingBlock: ESEHIV_clean_sbu_0, # of connection points: 4
#     Node 45, Type 1, BuildingBlock: ESEHIV_clean_sbu_0, # of connection points: 4
#     Node 46, Type 1, BuildingBlock: ESEHIV_clean_sbu_0, # of connection points: 4
#     Node 47, Type 1, BuildingBlock: ESEHIV_clean_sbu_0, # of connection points: 4
#     Node 48, Type 1, BuildingBlock: ESEHIV_clean_sbu_0, # of connection points: 4
#     Node 49, Type 1, BuildingBlock: ESEHIV_clean_sbu_0, # of connection points: 4
#     Node 50, Type 1, BuildingBlock: ESEHIV_clean_sbu_0, # of connection points: 4
#     Node 51, Type 1, BuildingBlock: ESEHIV_clean_sbu_0, # of connection points: 4
#     Node 52, Type 1, BuildingBlock: ESEHIV_clean_sbu_0, # of connection points: 4
#     Node 53, Type 1, BuildingBlock: ESEHIV_clean_sbu_0, # of connection points: 4
#     Node 54, Type 1, BuildingBlock: ESEHIV_clean_sbu_0, # of connection points: 4
#     Node 55, Type 1, BuildingBlock: ESEHIV_clean_sbu_0, # of connection points: 4
#     Edge 56, Type (0, 1), None
#     Edge 57, Type (0, 1), None
#     Edge 58, Type (0, 1), None
#     Edge 59, Type (0, 1), None
#     Edge 60, Type (0, 1), None
#     Edge 61, Type (0, 1), None
#     Edge 62, Type (0, 1), None
#     Edge 63, Type (0, 1), None
#     Edge 64, Type (0, 1), None
#     Edge 65, Type (0, 1), None
#     Edge 66, Type (0, 1), None
#     Edge 67, Type (0, 1), None
#     Edge 68, Type (0, 1), None
#     Edge 69, Type (0, 1), None
#     Edge 70, Type (0, 1), None
#     Edge 71, Type (0, 1), None
#     Edge 72, Type (0, 1), None
#     Edge 73, Type (0, 1), None
#     Edge 74, Type (0, 1), None
#     Edge 75, Type (0, 1), None
#     Edge 76, Type (0, 1), None
#     Edge 77, Type (0, 1), None
#     Edge 78, Type (0, 1), None
#     Edge 79, Type (0, 1), None
#     Edge 80, Type (0, 1), None
#     Edge 81, Type (0, 1), None
#     Edge 82, Type (0, 1), None
#     Edge 83, Type (0, 1), None
#     Edge 84, Type (0, 1), None
#     Edge 85, Type (0, 1), None
#     Edge 86, Type (0, 1), None
#     Edge 87, Type (0, 1), None
#     Edge 88, Type (0, 1), None
#     Edge 89, Type (0, 1), None
#     Edge 90, Type (0, 1), None
#     Edge 91, Type (0, 1), None
#     Edge 92, Type (0, 1), None
#     Edge 93, Type (0, 1), None
#     Edge 94, Type (0, 1), None
#     Edge 95, Type (0, 1), None
#     Edge 96, Type (0, 1), None
#     Edge 97, Type (0, 1), None
#     Edge 98, Type (0, 1), None
#     Edge 99, Type (0, 1), None
#     Edge 100, Type (0, 1), None
#     Edge 101, Type (0, 1), None
#     Edge 102, Type (0, 1), None
#     Edge 103, Type (0, 1), None
#     Edge 104, Type (0, 1), None
#     Edge 105, Type (0, 1), None
#     Edge 106, Type (0, 1), None
#     Edge 107, Type (0, 1), None
#     Edge 108, Type (0, 1), None
#     Edge 109, Type (0, 1), None
#     Edge 110, Type (0, 1), None
#     Edge 111, Type (0, 1), None
#     Edge 112, Type (0, 1), None
#     Edge 113, Type (0, 1), None
#     Edge 114, Type (0, 1), None
#     Edge 115, Type (0, 1), None
#     Edge 116, Type (0, 1), None
#     Edge 117, Type (0, 1), None
#     Edge 118, Type (0, 1), None
#     Edge 119, Type (0, 1), None
#     Edge 120, Type (0, 1), None
#     Edge 121, Type (0, 1), None
#     Edge 122, Type (0, 1), None
#     Edge 123, Type (0, 1), None
#     Edge 124, Type (0, 1), None
#     Edge 125, Type (0, 1), None
#     Edge 126, Type (0, 1), None
#     Edge 127, Type (0, 1), None
#     Edge 128, Type (0, 1), None
#     Edge 129, Type (0, 1), None
#     Edge 130, Type (0, 1), None
#     Edge 131, Type (0, 1), None
#     Edge 132, Type (0, 1), None
#     Edge 133, Type (0, 1), None
#     Edge 134, Type (0, 1), None
#     Edge 135, Type (0, 1), None
#     Edge 136, Type (0, 1), None
#     Edge 137, Type (0, 1), None
#     Edge 138, Type (0, 1), None
#     Edge 139, Type (0, 1), None
#     Edge 140, Type (0, 1), None
#     Edge 141, Type (0, 1), None
#     Edge 142, Type (0, 1), None
#     Edge 143, Type (0, 1), None
#     Edge 144, Type (0, 1), None
#     Edge 145, Type (0, 1), None
#     Edge 146, Type (0, 1), None
#     Edge 147, Type (0, 1), None
#     Edge 148, Type (0, 1), None
#     Edge 149, Type (0, 1), None
#     Edge 150, Type (0, 1), None
#     Edge 151, Type (0, 1), None
# Relax obj value: 0.005
# Max RMSD: 0.132
# Mean RMSD: 0.053
data_MOF--net-tbo--node1-ESEHIV_clean_sbu_0--node2-KAKCAD_clean_linker_0--edge1-none
_symmetry_space_group_name_H-M    P1
_symmetry_Int_Tables_number       1
_symmetry_cell_setting            triclinic
loop_
_symmetry_equiv_pos_as_xyz
'x, y, z'
_cell_length_a     50.022083
_cell_length_b     49.891539
_cell_length_c     49.835468
_cell_angle_alpha  90.456728
_cell_angle_beta   93.366101
_cell_angle_gamma 91.378256
loop_
_atom_site_label
_atom_site_type_symbol
_atom_site_fract_x
_atom_site_fract_y
_atom_site_fract_z
_atom_type_partial_charge
C0 C 0.22296 0.21846 0.11256 0.0
C1 C 0.22166 0.24653 0.11458 0.0
C2 C 0.2174 0.20219 0.13438 0.0
C3 C 0.21051 0.21358 0.15885 0.0
C4 C 0.20885 0.24168 0.16072 0.0
C5 C 0.21424 0.25793 0.13883 0.0
C6 C 0.20529 0.19637 0.18243 0.0
C7 C 0.22078 0.17364 0.18822 0.0
C8 C 0.21639 0.15818 0.21101 0.0
C9 C 0.1962 0.16524 0.22797 0.0
C10 C 0.18009 0.18737 0.22229 0.0
C11 C 0.18483 0.20282 0.19948 0.0
C12 C 0.15817 0.1942 0.24 0.0
C13 C 0.14179 0.17395 0.25046 0.0
C14 C 0.15328 0.22107 0.24637 0.0
C15 C 0.13228 0.22756 0.26237 0.0
C16 C 0.11561 0.20737 0.27245 0.0
C17 C 0.23208 0.13404 0.2173 0.0
C18 C 0.22791 0.11071 0.20151 0.0
C19 C 0.24745 0.13276 0.24172 0.0
C20 C 0.25654 0.10814 0.25129 0.0
C21 C 0.25015 0.08442 0.23674 0.0
C22 C 0.23666 0.08596 0.21132 0.0
C23 C 0.12079 0.18046 0.26654 0.0
H24 H 0.22825 0.20904 0.09403 0.0
H25 H 0.21838 0.18065 0.13198 0.0
H26 H 0.20401 0.25124 0.17934 0.0
H27 H 0.21343 0.27947 0.1412 0.0
H28 H 0.23669 0.16829 0.17548 0.0
H29 H 0.17209 0.21956 0.19461 0.0
H30 H 0.193 0.15327 0.24562 0.0
H31 H 0.14476 0.15306 0.2457 0.0
H32 H 0.1658 0.23714 0.23912 0.0
H33 H 0.12919 0.24846 0.26693 0.0
H34 H 0.2158 0.11123 0.18277 0.0
H35 H 0.2507 0.15048 0.2543 0.0
H36 H 0.10817 0.16444 0.27369 0.0
H37 H 0.23078 0.06782 0.20018 0.0
H38 H 0.26621 0.10731 0.27131 0.0
C39 C 0.96266 0.25325 0.23246 0.0
C40 C 0.9825 0.23455 0.23911 0.0
C41 C 0.93939 0.24526 0.21699 0.0
C42 C 0.93574 0.2185 0.20802 0.0
C43 C 0.95666 0.2006 0.21282 0.0
C44 C 0.9797 0.20851 0.22821 0.0
C45 C 0.90942 0.20824 0.19621 0.0
C46 C 0.89527 0.22197 0.17572 0.0
C47 C 0.87022 0.2121 0.16484 0.0
C48 C 0.85947 0.18801 0.17482 0.0
C49 C 0.8734 0.17407 0.1956 0.0
C50 C 0.89823 0.18449 0.20607 0.0
C51 C 0.86209 0.14914 0.20738 0.0
C52 C 0.83492 0.14706 0.21308 0.0
C53 C 0.87894 0.12789 0.21481 0.0
C54 C 0.86916 0.10562 0.22838 0.0
C55 C 0.84218 0.10383 0.23466 0.0
C56 C 0.85557 0.22746 0.14327 0.0
C57 C 0.8552 0.25554 0.14512 0.0
C58 C 0.84347 0.21476 0.12009 0.0
C59 C 0.83281 0.23004 0.09855 0.0
C60 C 0.83426 0.25819 0.09991 0.0
C61 C 0.84484 0.27065 0.12373 0.0
C62 C 0.82509 0.12467 0.22654 0.0
H63 H 0.96421 0.27338 0.2408 0.0
H64 H 0.92356 0.25949 0.21356 0.0
H65 H 0.95468 0.18003 0.2057 0.0
H66 H 0.99478 0.19372 0.23279 0.0
H67 H 0.90408 0.24014 0.16789 0.0
H68 H 0.90865 0.17447 0.22268 0.0
H69 H 0.84024 0.18031 0.16663 0.0
H70 H 0.82145 0.16316 0.20799 0.0
H71 H 0.89987 0.12856 0.21031 0.0
H72 H 0.88273 0.08973 0.23382 0.0
H73 H 0.86364 0.26596 0.16292 0.0
H74 H 0.8434 0.19313 0.11807 0.0
H75 H 0.80424 0.12405 0.23126 0.0
H76 H 0.84584 0.29231 0.1256 0.0
H77 H 0.82482 0.21993 0.0804 0.0
C78 C 0.82295 0.82212 0.08672 0.0
C79 C 0.81171 0.83912 0.06698 0.0
C80 C 0.83401 0.83279 0.11116 0.0
C81 C 0.83403 0.86062 0.11625 0.0
C82 C 0.82415 0.87759 0.09585 0.0
C83 C 0.81315 0.86699 0.07156 0.0
C84 C 0.84307 0.87194 0.14308 0.0
C85 C 0.86629 0.86259 0.15691 0.0
C86 C 0.87469 0.87292 0.18245 0.0
C87 C 0.85938 0.89259 0.19418 0.0
C88 C 0.83589 0.90197 0.18088 0.0
C89 C 0.82806 0.89181 0.1552 0.0
C90 C 0.81938 0.92173 0.19459 0.0
C91 C 0.8142 0.91799 0.22169 0.0
C92 C 0.81037 0.94517 0.18168 0.0
C93 C 0.79843 0.96544 0.19633 0.0
C94 C 0.79538 0.96237 0.22398 0.0
C95 C 0.89903 0.86272 0.19727 0.0
C96 C 0.90366 0.83509 0.19818 0.0
C97 C 0.91745 0.8804 0.2111 0.0
C98 C 0.94006 0.87065 0.22543 0.0
C99 C 0.94473 0.84298 0.22634 0.0
C100 C 0.92614 0.82535 0.21259 0.0
C101 C 0.80245 0.93807 0.23618 0.0
H102 H 0.822 0.80057 0.08387 0.0
H103 H 0.84143 0.81916 0.12652 0.0
H104 H 0.82441 0.89913 0.09888 0.0
H105 H 0.80492 0.88069 0.05666 0.0
H106 H 0.87812 0.84761 0.14756 0.0
H107 H 0.80972 0.89864 0.14511 0.0
H108 H 0.86558 0.90039 0.21401 0.0
H109 H 0.82026 0.8999 0.23202 0.0
H110 H 0.81403 0.94852 0.16075 0.0
H111 H 0.7934 0.98411 0.18655 0.0
H112 H 0.88961 0.8209 0.18818 0.0
H113 H 0.91456 0.90184 0.21059 0.0
H114 H 0.80013 0.93511 0.25746 0.0
H115 H 0.92862 0.80389 0.21323 0.0
H116 H 0.95402 0.88486 0.23548 0.0
C117 C 0.21131 0.82621 0.08454 0.0
C118 C 0.2389 0.83187 0.08886 0.0
C119 C 0.19369 0.83115 0.10477 0.0
C120 C 0.20335 0.84147 0.12996 0.0
C121 C 0.23116 0.84638 0.13437 0.0
C122 C 0.24863 0.84195 0.11399 0.0
C123 C 0.18464 0.84827 0.15121 0.0
C124 C 0.16116 0.83275 0.15498 0.0
C125 C 0.14358 0.84015 0.17466 0.0
C126 C 0.14998 0.86266 0.19117 0.0
C127 C 0.17349 0.8779 0.1882 0.0
C128 C 0.19031 0.8709 0.16784 0.0
C129 C 0.18109 0.90068 0.20678 0.0
C130 C 0.16212 0.91932 0.21419 0.0
C131 C 0.20768 0.90387 0.21722 0.0
C132 C 0.21531 0.92546 0.23416 0.0
C133 C 0.19659 0.94455 0.24108 0.0
C134 C 0.11858 0.8246 0.17905 0.0
C135 C 0.09428 0.83809 0.17901 0.0
C136 C 0.11941 0.79796 0.18808 0.0
C137 C 0.09702 0.78612 0.19953 0.0
C138 C 0.07363 0.8008 0.20187 0.0
C139 C 0.07207 0.82632 0.19034 0.0
C140 C 0.1698 0.94105 0.23116 0.0
H141 H 0.20332 0.81841 0.06529 0.0
H142 H 0.17246 0.82741 0.10041 0.0
H143 H 0.23959 0.85358 0.15367 0.0
H144 H 0.26987 0.84585 0.11807 0.0
H145 H 0.15646 0.81505 0.14271 0.0
H146 H 0.20774 0.88354 0.16474 0.0
H147 H 0.13695 0.86781 0.20697 0.0
H148 H 0.14149 0.91745 0.20639 0.0
H149 H 0.22264 0.88953 0.21243 0.0
H150 H 0.23594 0.92707 0.24194 0.0
H151 H 0.09313 0.85861 0.17214 0.0
H152 H 0.13802 0.78726 0.18854 0.0
H153 H 0.15492 0.95545 0.23595 0.0
H154 H 0.05441 0.83819 0.19231 0.0
H155 H 0.09892 0.7667 0.20893 0.0
C156 C 0.09617 0.83136 0.84126 0.0
C157 C 0.0921 0.8283 0.81324 0.0
C158 C 0.12077 0.84057 0.85284 0.0
C159 C 0.14201 0.84708 0.83672 0.0
C160 C 0.13739 0.84614 0.80855 0.0
C161 C 0.11259 0.83674 0.79686 0.0
C162 C 0.16922 0.85259 0.84959 0.0
C163 C 0.17951 0.83533 0.86975 0.0
C164 C 0.20509 0.83998 0.88221 0.0
C165 C 0.22019 0.86259 0.87482 0.0
C166 C 0.21019 0.88043 0.85517 0.0
C167 C 0.18478 0.87496 0.84225 0.0
C168 C 0.22629 0.90491 0.84873 0.0
C169 C 0.24031 0.91987 0.86936 0.0
C170 C 0.22818 0.9133 0.82204 0.0
C171 C 0.24383 0.93593 0.81613 0.0
C172 C 0.25793 0.95085 0.83677 0.0
C173 C 0.2163 0.82174 0.90333 0.0
C174 C 0.20171 0.81467 0.92568 0.0
C175 C 0.24291 0.81358 0.90257 0.0
C176 C 0.25542 0.8009 0.92459 0.0
C177 C 0.24163 0.79593 0.94785 0.0
C178 C 0.21436 0.80193 0.9479 0.0
C179 C 0.25593 0.94249 0.86346 0.0
H180 H 0.08071 0.82526 0.85445 0.0
H181 H 0.12352 0.84163 0.87456 0.0
H182 H 0.15343 0.8511 0.79563 0.0
H183 H 0.11012 0.83438 0.77522 0.0
H184 H 0.16784 0.81787 0.87532 0.0
H185 H 0.17666 0.8886 0.82722 0.0
H186 H 0.23985 0.8664 0.88461 0.0
H187 H 0.23896 0.91429 0.8902 0.0
H188 H 0.21796 0.90208 0.80563 0.0
H189 H 0.24516 0.94146 0.7953 0.0
H190 H 0.18116 0.82076 0.92682 0.0
H191 H 0.25452 0.81833 0.88548 0.0
H192 H 0.26609 0.95364 0.87991 0.0
H193 H 0.20351 0.79887 0.96585 0.0
H194 H 0.27656 0.79671 0.92421 0.0
C195 C 0.22597 0.20531 0.98103 0.0
C196 C 0.25126 0.21821 0.98404 0.0
C197 C 0.21717 0.19335 0.95663 0.0
C198 C 0.23349 0.19392 0.93469 0.0
C199 C 0.25984 0.20435 0.93841 0.0
C200 C 0.26871 0.21647 0.96301 0.0
C201 C 0.22132 0.18769 0.90743 0.0
C202 C 0.19871 0.20169 0.89817 0.0
C203 C 0.18629 0.19668 0.87256 0.0
C204 C 0.19696 0.17704 0.85597 0.0
C205 C 0.21991 0.16293 0.86481 0.0
C206 C 0.23198 0.16854 0.89066 0.0
C207 C 0.23181 0.14254 0.8473 0.0
C208 C 0.2159 0.12295 0.83283 0.0
C209 C 0.25975 0.14168 0.84631 0.0
C210 C 0.2716 0.12086 0.83295 0.0
C211 C 0.25593 0.10034 0.81992 0.0
C212 C 0.16297 0.21303 0.86326 0.0
C213 C 0.14382 0.22051 0.88139 0.0
C214 C 0.16069 0.22302 0.83694 0.0
C215 C 0.14028 0.24061 0.82924 0.0
C216 C 0.12178 0.24878 0.8477 0.0
C217 C 0.12364 0.23831 0.87377 0.0
C218 C 0.2279 0.10198 0.81916 0.0
H219 H 0.21215 0.20623 0.99695 0.0
H220 H 0.19687 0.18522 0.95432 0.0
H221 H 0.27275 0.20507 0.92171 0.0
H222 H 0.28819 0.22651 0.96469 0.0
H223 H 0.19126 0.21725 0.91087 0.0
H224 H 0.24937 0.15765 0.89801 0.0
H225 H 0.18766 0.17296 0.83613 0.0
H226 H 0.19428 0.12309 0.83316 0.0
H227 H 0.2726 0.15681 0.85654 0.0
H228 H 0.29328 0.12043 0.83352 0.0
H229 H 0.14456 0.2128 0.90167 0.0
H230 H 0.17523 0.21802 0.82255 0.0
H231 H 0.21536 0.08638 0.80934 0.0
H232 H 0.10936 0.24375 0.88826 0.0
H233 H 0.13949 0.24848 0.80903 0.0
C234 C 0.86128 0.11668 0.82857 0.0
C235 C 0.83405 0.11537 0.83404 0.0
C236 C 0.87697 0.13963 0.83529 0.0
C237 C 0.86565 0.16201 0.84725 0.0
C238 C 0.83827 0.1606 0.85254 0.0
C239 C 0.82277 0.13748 0.84627 0.0
C240 C 0.88209 0.1868 0.85413 0.0
C241 C 0.90246 0.19572 0.83768 0.0
C242 C 0.91687 0.21976 0.84367 0.0
C243 C 0.91101 0.23488 0.86648 0.0
C244 C 0.89096 0.22627 0.8832 0.0
C245 C 0.87689 0.2021 0.87702 0.0
C246 C 0.884 0.24264 0.9068 0.0
C247 C 0.90394 0.25346 0.92512 0.0
C248 C 0.85703 0.24704 0.91141 0.0
C249 C 0.85006 0.26126 0.9341 0.0
C250 C 0.86986 0.27132 0.95303 0.0
C251 C 0.93789 0.22967 0.82612 0.0
C252 C 0.96017 0.21407 0.8211 0.0
C253 C 0.9372 0.25612 0.81683 0.0
C254 C 0.95928 0.26755 0.805 0.0
C255 C 0.98255 0.25284 0.80225 0.0
C256 C 0.98252 0.22568 0.80938 0.0
C257 C 0.89695 0.26759 0.94804 0.0
H258 H 0.87046 0.0998 0.81926 0.0
H259 H 0.89801 0.1397 0.83128 0.0
H260 H 0.82855 0.17756 0.86106 0.0
H261 H 0.80171 0.13721 0.8502 0.0
H262 H 0.90655 0.18458 0.81969 0.0
H263 H 0.86197 0.19508 0.89041 0.0
H264 H 0.92192 0.25356 0.87105 0.0
H265 H 0.92492 0.25033 0.92212 0.0
H266 H 0.84121 0.23948 0.89738 0.0
H267 H 0.82904 0.26435 0.93671 0.0
H268 H 0.96117 0.19361 0.82814 0.0
H269 H 0.92016 0.26848 0.8202 0.0
H270 H 0.91274 0.27493 0.96217 0.0
H271 H 1.0005 0.21417 0.80815 0.0
H272 H 0.95904 0.28869 0.80012 0.0
C273 C 0.78079 0.85355 0.90067 0.0
C274 C 0.79233 0.84627 0.92591 0.0
C275 C 0.79695 0.86022 0.87958 0.0
C276 C 0.82505 0.85973 0.88319 0.0
C277 C 0.83658 0.8527 0.90846 0.0
C278 C 0.82046 0.84614 0.92954 0.0
C279 C 0.84234 0.86695 0.86089 0.0
C280 C 0.83638 0.8891 0.84466 0.0
C281 C 0.85295 0.89676 0.8241 0.0
C282 C 0.87589 0.88198 0.81979 0.0
C283 C 0.88197 0.85922 0.83545 0.0
C284 C 0.86505 0.852 0.85599 0.0
C285 C 0.90557 0.8426 0.83013 0.0
C286 C 0.91252 0.8376 0.80365 0.0
C287 C 0.921 0.83108 0.85142 0.0
C288 C 0.94273 0.81498 0.84633 0.0
C289 C 0.94975 0.81024 0.81986 0.0
C290 C 0.84602 0.92069 0.80786 0.0
C291 C 0.81984 0.92297 0.79646 0.0
C292 C 0.86395 0.94278 0.80689 0.0
C293 C 0.85498 0.9675 0.79702 0.0
C294 C 0.82814 0.97017 0.78775 0.0
C295 C 0.811 0.94748 0.78655 0.0
C296 C 0.93435 0.82171 0.7986 0.0
H297 H 0.75926 0.85357 0.89698 0.0
H298 H 0.78743 0.86534 0.86028 0.0
H299 H 0.85815 0.85262 0.91207 0.0
H300 H 0.83013 0.84118 0.94878 0.0
H301 H 0.81914 0.90101 0.84855 0.0
H302 H 0.86913 0.83428 0.86782 0.0
H303 H 0.88884 0.88817 0.80418 0.0
H304 H 0.90083 0.84561 0.78671 0.0
H305 H 0.91653 0.83478 0.8721 0.0
H306 H 0.95441 0.80676 0.86314 0.0
H307 H 0.8057 0.9062 0.79682 0.0
H308 H 0.88418 0.94155 0.81572 0.0
H309 H 0.93897 0.8181 0.77795 0.0
H310 H 0.7901 0.94922 0.77989 0.0
H311 H 0.86834 0.98493 0.79871 0.0
C312 C 0.20513 0.71003 0.56489 0.0
C313 C 0.21546 0.73635 0.56309 0.0
C314 C 0.19616 0.7005 0.58908 0.0
C315 C 0.19717 0.71713 0.61195 0.0
C316 C 0.20472 0.74429 0.6095 0.0
C317 C 0.21384 0.75388 0.58515 0.0
C318 C 0.19498 0.70486 0.63873 0.0
C319 C 0.21247 0.6843 0.64635 0.0
C320 C 0.21149 0.67223 0.67157 0.0
C321 C 0.19235 0.68062 0.68917 0.0
C322 C 0.17428 0.70088 0.68178 0.0
C323 C 0.17608 0.71329 0.65657 0.0
C324 C 0.15332 0.70856 0.70027 0.0
C325 C 0.13948 0.68887 0.7145 0.0
C326 C 0.14699 0.73558 0.70391 0.0
C327 C 0.12721 0.7427 0.72117 0.0
C328 C 0.11318 0.723 0.73521 0.0
C329 C 0.23043 0.65079 0.67945 0.0
C330 C 0.23495 0.62962 0.66162 0.0
C331 C 0.24401 0.65128 0.70491 0.0
C332 C 0.26125 0.63072 0.71263 0.0
C333 C 0.26508 0.60894 0.69523 0.0
C334 C 0.252 0.60889 0.66944 0.0
C335 C 0.11969 0.696 0.73178 0.0
H336 H 0.206 0.6961 0.54818 0.0
H337 H 0.19022 0.67954 0.59045 0.0
H338 H 0.20573 0.75745 0.62694 0.0
H339 H 0.22191 0.77419 0.58442 0.0
H340 H 0.22737 0.67811 0.63277 0.0
H341 H 0.16231 0.72883 0.65043 0.0
H342 H 0.19145 0.67122 0.70863 0.0
H343 H 0.14356 0.66782 0.71189 0.0
H344 H 0.15755 0.75129 0.69364 0.0
H345 H 0.12312 0.76373 0.72367 0.0
H346 H 0.22466 0.62867 0.64188 0.0
H347 H 0.24134 0.66762 0.71887 0.0
H348 H 0.10909 0.68029 0.74196 0.0
H349 H 0.25415 0.59243 0.65554 0.0
H350 H 0.27138 0.63184 0.7324 0.0
C351 C 0.95942 0.76803 0.70573 0.0
C352 C 0.9816 0.75141 0.70956 0.0
C353 C 0.93545 0.75791 0.69283 0.0
C354 C 0.93347 0.73108 0.68377 0.0
C355 C 0.95647 0.71549 0.68542 0.0
C356 C 0.98022 0.72554 0.69814 0.0
C357 C 0.90711 0.71794 0.67607 0.0
C358 C 0.8897 0.72829 0.65588 0.0
C359 C 0.86491 0.71524 0.64863 0.0
C360 C 0.8577 0.6917 0.66219 0.0
C361 C 0.87477 0.68135 0.68292 0.0
C362 C 0.8994 0.69465 0.68952 0.0
C363 C 0.86685 0.65731 0.69858 0.0
C364 C 0.84046 0.65375 0.70641 0.0
C365 C 0.88603 0.63849 0.70715 0.0
C366 C 0.87917 0.61712 0.72365 0.0
C367 C 0.8529 0.61381 0.73178 0.0
C368 C 0.84671 0.72665 0.62708 0.0
C369 C 0.84317 0.75444 0.62623 0.0
C370 C 0.83402 0.71046 0.6065 0.0
C371 C 0.81966 0.72216 0.5846 0.0
C372 C 0.8179 0.75016 0.58306 0.0
C373 C 0.82906 0.766 0.60454 0.0
C374 C 0.83357 0.63225 0.72275 0.0
H375 H 0.95981 0.78788 0.71473 0.0
H376 H 0.91795 0.77031 0.69182 0.0
H377 H 0.95559 0.69489 0.67831 0.0
H378 H 0.99701 0.7123 0.70082 0.0
H379 H 0.89578 0.74618 0.6454 0.0
H380 H 0.91245 0.68734 0.70584 0.0
H381 H 0.83867 0.68165 0.65679 0.0
H382 H 0.82525 0.66802 0.70061 0.0
H383 H 0.90644 0.64027 0.70114 0.0
H384 H 0.89441 0.60304 0.72983 0.0
H385 H 0.85201 0.76743 0.64205 0.0
H386 H 0.83634 0.68894 0.60662 0.0
H387 H 0.81321 0.6305 0.72889 0.0
H388 H 0.82774 0.78765 0.6041 0.0
H389 H 0.81143 0.70951 0.56823 0.0
C390 C 0.85115 0.3025 0.63426 0.0
C391 C 0.84057 0.31256 0.60972 0.0
C392 C 0.85819 0.31981 0.65587 0.0
C393 C 0.85497 0.34767 0.6535 0.0
C394 C 0.8445 0.35777 0.62894 0.0
C395 C 0.83743 0.34044 0.60732 0.0
C396 C 0.86275 0.36596 0.6766 0.0
C397 C 0.88623 0.36129 0.69263 0.0
C398 C 0.89343 0.3772 0.71544 0.0
C399 C 0.87684 0.39831 0.72197 0.0
C400 C 0.85338 0.40357 0.70603 0.0
C401 C 0.8466 0.38753 0.68322 0.0
C402 C 0.83571 0.4253 0.71421 0.0
C403 C 0.82659 0.42543 0.74028 0.0
C404 C 0.83026 0.4473 0.69741 0.0
C405 C 0.81815 0.47014 0.70753 0.0
C406 C 0.81107 0.47094 0.73437 0.0
C407 C 0.91798 0.37111 0.73253 0.0
C408 C 0.9241 0.34437 0.73836 0.0
C409 C 0.93588 0.3916 0.74239 0.0
C410 C 0.95987 0.38532 0.75679 0.0
C411 C 0.96642 0.35845 0.76156 0.0
C412 C 0.94794 0.33814 0.75264 0.0
C413 C 0.81434 0.44797 0.75021 0.0
H414 H 0.85343 0.28117 0.63702 0.0
H415 H 0.86577 0.31126 0.67464 0.0
H416 H 0.84211 0.37912 0.6263 0.0
H417 H 0.82972 0.34895 0.58861 0.0
H418 H 0.8992 0.3453 0.68713 0.0
H419 H 0.82823 0.3912 0.67134 0.0
H420 H 0.88197 0.41051 0.73972 0.0
H421 H 0.83032 0.40863 0.75352 0.0
H422 H 0.83717 0.44763 0.67722 0.0
H423 H 0.81647 0.48786 0.69518 0.0
H424 H 0.91047 0.32813 0.73171 0.0
H425 H 0.93179 0.41242 0.73819 0.0
H426 H 0.80941 0.44827 0.77111 0.0
H427 H 0.95194 0.31728 0.75656 0.0
H428 H 0.9737 0.40141 0.76333 0.0
C429 C 0.22855 0.3504 0.60903 0.0
C430 C 0.25555 0.35888 0.60843 0.0
C431 C 0.21297 0.35828 0.63008 0.0
C432 C 0.22411 0.37466 0.65118 0.0
C433 C 0.25126 0.38285 0.6506 0.0
C434 C 0.26666 0.37526 0.62943 0.0
C435 C 0.2078 0.38337 0.67377 0.0
C436 C 0.18868 0.36597 0.68481 0.0
C437 C 0.17539 0.37376 0.70768 0.0
C438 C 0.18125 0.39916 0.71939 0.0
C439 C 0.19951 0.41688 0.70822 0.0
C440 C 0.21234 0.40906 0.68528 0.0
C441 C 0.20645 0.44318 0.7211 0.0
C442 C 0.20349 0.46682 0.70632 0.0
C443 C 0.21843 0.44456 0.74729 0.0
C444 C 0.22901 0.46897 0.75781 0.0
C445 C 0.22736 0.49248 0.74244 0.0
C446 C 0.15612 0.35545 0.72052 0.0
C447 C 0.13368 0.34387 0.70597 0.0
C448 C 0.15877 0.35184 0.74841 0.0
C449 C 0.13857 0.33891 0.7618 0.0
C450 C 0.11514 0.32911 0.74772 0.0
C451 C 0.11325 0.33072 0.71952 0.0
C452 C 0.21353 0.49127 0.71699 0.0
H453 H 0.21937 0.33791 0.59302 0.0
H454 H 0.19214 0.3518 0.62963 0.0
H455 H 0.26087 0.39483 0.66678 0.0
H456 H 0.28752 0.38165 0.62986 0.0
H457 H 0.18499 0.34601 0.67648 0.0
H458 H 0.22644 0.42298 0.67678 0.0
H459 H 0.17134 0.40534 0.73712 0.0
H460 H 0.19421 0.46621 0.68612 0.0
H461 H 0.22098 0.4265 0.75901 0.0
H462 H 0.23956 0.46918 0.77742 0.0
H463 H 0.13119 0.34636 0.68441 0.0
H464 H 0.17605 0.36008 0.76009 0.0
H465 H 0.21191 0.50891 0.70452 0.0
H466 H 0.09538 0.32339 0.70819 0.0
H467 H 0.14085 0.33758 0.78351 0.0
C468 C 0.09414 0.32201 0.36894 0.0
C469 C 0.08915 0.31681 0.34132 0.0
C470 C 0.11822 0.33409 0.3787 0.0
C471 C 0.13803 0.34129 0.3611 0.0
C472 C 0.13231 0.33801 0.33323 0.0
C473 C 0.10801 0.32583 0.32338 0.0
C474 C 0.16513 0.35003 0.37223 0.0
C475 C 0.17752 0.33577 0.39369 0.0
C476 C 0.20316 0.34331 0.40438 0.0
C477 C 0.21622 0.36581 0.39391 0.0
C478 C 0.20419 0.38058 0.37276 0.0
C479 C 0.17873 0.37227 0.36169 0.0
C480 C 0.21851 0.40458 0.36246 0.0
C481 C 0.23181 0.42307 0.3804 0.0
C482 C 0.21987 0.4087 0.33473 0.0
C483 C 0.23461 0.43047 0.32517 0.0
C484 C 0.24822 0.44887 0.3431 0.0
C485 C 0.2167 0.32797 0.42652 0.0
C486 C 0.20391 0.32225 0.45034 0.0
C487 C 0.24363 0.32122 0.42485 0.0
C488 C 0.25813 0.31129 0.44719 0.0
C489 C 0.24606 0.30776 0.47168 0.0
C490 C 0.21857 0.31227 0.47289 0.0
C491 C 0.24642 0.44493 0.37086 0.0
H492 H 0.07988 0.31556 0.38326 0.0
H493 H 0.12175 0.33692 0.4002 0.0
H494 H 0.14722 0.3434 0.31918 0.0
H495 H 0.1048 0.32191 0.30202 0.0
H496 H 0.16753 0.31827 0.4016 0.0
H497 H 0.16916 0.38355 0.34547 0.0
H498 H 0.23596 0.37185 0.40228 0.0
H499 H 0.23085 0.42069 0.40191 0.0
H500 H 0.21015 0.39465 0.32039 0.0
H501 H 0.23574 0.43243 0.30368 0.0
H502 H 0.18314 0.32727 0.45215 0.0
H503 H 0.25387 0.32493 0.40663 0.0
H504 H 0.25616 0.45879 0.38532 0.0
H505 H 0.209 0.3102 0.49173 0.0
H506 H 0.27938 0.30808 0.44586 0.0
C507 C 0.22637 0.70097 0.43533 0.0
C508 C 0.25438 0.70422 0.43572 0.0
C509 C 0.2118 0.69168 0.41223 0.0
C510 C 0.22482 0.68543 0.38881 0.0
C511 C 0.25296 0.6877 0.38946 0.0
C512 C 0.26759 0.69696 0.41271 0.0
C513 C 0.20884 0.67759 0.36367 0.0
C514 C 0.1852 0.69101 0.35633 0.0
C515 C 0.16943 0.68382 0.33296 0.0
C516 C 0.17773 0.66273 0.31659 0.0
C517 C 0.20164 0.64945 0.32338 0.0
C518 C 0.21703 0.65701 0.34688 0.0
C519 C 0.21127 0.62767 0.30626 0.0
C520 C 0.19766 0.60267 0.30412 0.0
C521 C 0.23653 0.6305 0.29567 0.0
C522 C 0.24903 0.60827 0.28535 0.0
C523 C 0.23661 0.58274 0.28553 0.0
C524 C 0.14494 0.69925 0.32561 0.0
C525 C 0.12818 0.70768 0.34562 0.0
C526 C 0.13908 0.70721 0.29897 0.0
C527 C 0.11739 0.72371 0.29263 0.0
C528 C 0.10106 0.73268 0.31279 0.0
C529 C 0.1066 0.72426 0.33932 0.0
C530 C 0.21035 0.58024 0.29391 0.0
H531 H 0.21564 0.70582 0.4529 0.0
H532 H 0.19023 0.68956 0.41266 0.0
H533 H 0.26361 0.68321 0.37173 0.0
H534 H 0.28912 0.69939 0.41231 0.0
H535 H 0.17946 0.70775 0.36853 0.0
H536 H 0.2352 0.64641 0.35233 0.0
H537 H 0.16583 0.6568 0.29856 0.0
H538 H 0.17824 0.60001 0.31241 0.0
H539 H 0.24741 0.64956 0.29714 0.0
H540 H 0.26948 0.6106 0.27946 0.0
H541 H 0.13181 0.70155 0.36629 0.0
H542 H 0.15176 0.70142 0.28313 0.0
H543 H 0.20068 0.56064 0.29494 0.0
H544 H 0.09414 0.73031 0.35521 0.0
H545 H 0.11384 0.73001 0.27203 0.0
C546 C 0.85308 0.58926 0.31789 0.0
C547 C 0.82519 0.58508 0.31433 0.0
C548 C 0.86392 0.61377 0.32738 0.0
C549 C 0.84719 0.63482 0.33362 0.0
C550 C 0.81925 0.63014 0.33197 0.0
C551 C 0.8083 0.60542 0.32233 0.0
C552 C 0.85916 0.66191 0.33989 0.0
C553 C 0.87879 0.67263 0.32355 0.0
C554 C 0.89057 0.69804 0.32902 0.0
C555 C 0.88292 0.71253 0.35154 0.0
C556 C 0.86351 0.70224 0.36824 0.0
C557 C 0.8514 0.67698 0.36201 0.0
C558 C 0.85611 0.71809 0.3921 0.0
C559 C 0.87592 0.73179 0.40853 0.0
C560 C 0.82919 0.72028 0.39823 0.0
C561 C 0.82225 0.73594 0.42008 0.0
C562 C 0.84205 0.74974 0.43649 0.0
C563 C 0.91089 0.70978 0.3115 0.0
C564 C 0.93228 0.69462 0.30283 0.0
C565 C 0.91001 0.73707 0.30495 0.0
C566 C 0.93099 0.74945 0.29218 0.0
C567 C 0.95326 0.73484 0.28528 0.0
C568 C 0.95337 0.7071 0.28976 0.0
C569 C 0.86899 0.74741 0.43041 0.0
H570 H 0.86667 0.5739 0.31221 0.0
H571 H 0.88551 0.61656 0.329 0.0
H572 H 0.80588 0.64603 0.3367 0.0
H573 H 0.78674 0.60285 0.31963 0.0
H574 H 0.88442 0.66143 0.30612 0.0
H575 H 0.83662 0.66863 0.37485 0.0
H576 H 0.89214 0.73204 0.35608 0.0
H577 H 0.89691 0.73024 0.40462 0.0
H578 H 0.8134 0.71035 0.38578 0.0
H579 H 0.80126 0.73757 0.42376 0.0
H580 H 0.93353 0.67353 0.30757 0.0
H581 H 0.89354 0.74918 0.31067 0.0
H582 H 0.88481 0.75737 0.44276 0.0
H583 H 0.97053 0.69552 0.28498 0.0
H584 H 0.93044 0.77088 0.28887 0.0
C585 C 0.79628 0.33145 0.45036 0.0
C586 C 0.81296 0.33148 0.47409 0.0
C587 C 0.8064 0.34035 0.42615 0.0
C588 C 0.83326 0.34925 0.42551 0.0
C589 C 0.84897 0.35155 0.44966 0.0
C590 C 0.8389 0.3429 0.47369 0.0
C591 C 0.84631 0.3525 0.39976 0.0
C592 C 0.83899 0.37282 0.38167 0.0
C593 C 0.85285 0.37661 0.35808 0.0
C594 C 0.87375 0.35926 0.35269 0.0
C595 C 0.88119 0.33864 0.37051 0.0
C596 C 0.86728 0.33551 0.39401 0.0
C597 C 0.90386 0.32085 0.36485 0.0
C598 C 0.90812 0.31262 0.33839 0.0
C599 C 0.92185 0.31245 0.38576 0.0
C600 C 0.94369 0.29667 0.38028 0.0
C601 C 0.94829 0.28918 0.35375 0.0
C602 C 0.84613 0.399 0.33937 0.0
C603 C 0.81938 0.40621 0.33381 0.0
C604 C 0.86647 0.41339 0.32684 0.0
C605 C 0.86022 0.43434 0.30925 0.0
C606 C 0.83353 0.44168 0.30399 0.0
C607 C 0.81318 0.42733 0.31642 0.0
C608 C 0.93013 0.29714 0.33291 0.0
H609 H 0.77636 0.3224 0.45 0.0
H610 H 0.79396 0.33835 0.40767 0.0
H611 H 0.86966 0.35853 0.44967 0.0
H612 H 0.8522 0.3432 0.49167 0.0
H613 H 0.82323 0.38625 0.38655 0.0
H614 H 0.87253 0.31961 0.4079 0.0
H615 H 0.88447 0.36202 0.33463 0.0
H616 H 0.89443 0.31812 0.32182 0.0
H617 H 0.91953 0.31868 0.40633 0.0
H618 H 0.95752 0.29113 0.39671 0.0
H619 H 0.80315 0.39534 0.34268 0.0
H620 H 0.88735 0.40882 0.331 0.0
H621 H 0.93293 0.29132 0.31231 0.0
H622 H 0.79237 0.43227 0.31247 0.0
H623 H 0.87635 0.44527 0.30031 0.0
C624 C 0.72667 0.20708 0.57816 0.0
C625 C 0.73173 0.23475 0.57547 0.0
C626 C 0.7183 0.19663 0.60222 0.0
C627 C 0.71458 0.21358 0.62419 0.0
C628 C 0.71728 0.2415 0.62085 0.0
C629 C 0.72587 0.25205 0.59663 0.0
C630 C 0.71065 0.20175 0.651 0.0
C631 C 0.72812 0.18181 0.66086 0.0
C632 C 0.72535 0.17087 0.68638 0.0
C633 C 0.70437 0.1792 0.70166 0.0
C634 C 0.68629 0.19847 0.69206 0.0
C635 C 0.68991 0.21018 0.66684 0.0
C636 C 0.66396 0.20598 0.7089 0.0
C637 C 0.64995 0.18605 0.72266 0.0
C638 C 0.65761 0.23293 0.71285 0.0
C639 C 0.63829 0.23982 0.73078 0.0
C640 C 0.62487 0.21989 0.74514 0.0
C641 C 0.74411 0.15086 0.69794 0.0
C642 C 0.74747 0.12604 0.6851 0.0
C643 C 0.75558 0.15509 0.72404 0.0
C644 C 0.76771 0.13418 0.73808 0.0
C645 C 0.76887 0.10863 0.72629 0.0
C646 C 0.75985 0.10495 0.69925 0.0
C647 C 0.63075 0.19292 0.7406 0.0
H648 H 0.73077 0.19323 0.56213 0.0
H649 H 0.7159 0.17509 0.60405 0.0
H650 H 0.71449 0.25502 0.63752 0.0
H651 H 0.72981 0.27342 0.59524 0.0
H652 H 0.7444 0.17544 0.64907 0.0
H653 H 0.67619 0.22517 0.65919 0.0
H654 H 0.70218 0.17059 0.72135 0.0
H655 H 0.65399 0.16503 0.71969 0.0
H656 H 0.66821 0.24876 0.70278 0.0
H657 H 0.63441 0.26081 0.73393 0.0
H658 H 0.73871 0.12231 0.66498 0.0
H659 H 0.75355 0.17412 0.73426 0.0
H660 H 0.62041 0.17705 0.75081 0.0
H661 H 0.76023 0.08531 0.68988 0.0
H662 H 0.77459 0.13751 0.75891 0.0
C663 C 0.47126 0.26385 0.72705 0.0
C664 C 0.49255 0.24615 0.73101 0.0
C665 C 0.44661 0.25462 0.7149 0.0
C666 C 0.44301 0.22761 0.70673 0.0
C667 C 0.46503 0.21073 0.70873 0.0
C668 C 0.48948 0.21989 0.72068 0.0
C669 C 0.41603 0.21603 0.69863 0.0
C670 C 0.39939 0.22801 0.67881 0.0
C671 C 0.37397 0.21665 0.67104 0.0
C672 C 0.36537 0.193 0.68356 0.0
C673 C 0.38168 0.18093 0.70388 0.0
C674 C 0.40695 0.19267 0.71112 0.0
C675 C 0.37233 0.1566 0.71829 0.0
C676 C 0.34563 0.15386 0.72546 0.0
C677 C 0.39036 0.13643 0.72608 0.0
C678 C 0.38207 0.11445 0.74106 0.0
C679 C 0.35546 0.11187 0.7484 0.0
C680 C 0.35663 0.22995 0.65002 0.0
C681 C 0.35497 0.25799 0.65024 0.0
C682 C 0.34293 0.2153 0.62889 0.0
C683 C 0.32935 0.22865 0.60758 0.0
C684 C 0.32942 0.2568 0.60712 0.0
C685 C 0.34167 0.27119 0.62908 0.0
C686 C 0.3373 0.13177 0.74027 0.0
H687 H 0.47297 0.28407 0.73514 0.0
H688 H 0.42991 0.26806 0.71355 0.0
H689 H 0.46298 0.18998 0.70217 0.0
H690 H 0.50558 0.20583 0.72333 0.0
H691 H 0.40655 0.24589 0.66901 0.0
H692 H 0.41944 0.18404 0.72717 0.0
H693 H 0.34587 0.1842 0.67767 0.0
H694 H 0.33128 0.16916 0.72026 0.0
H695 H 0.41097 0.13755 0.72053 0.0
H696 H 0.39643 0.09927 0.7466 0.0
H697 H 0.36461 0.26986 0.66651 0.0
H698 H 0.34381 0.19364 0.62818 0.0
H699 H 0.31673 0.13058 0.74586 0.0
H700 H 0.34171 0.29291 0.62953 0.0
H701 H 0.32017 0.21709 0.59085 0.0
C702 C 0.33223 0.80229 0.63225 0.0
C703 C 0.32411 0.81143 0.60652 0.0
C704 C 0.3389 0.82047 0.65321 0.0
C705 C 0.33774 0.84829 0.64898 0.0
C706 C 0.32898 0.85747 0.62346 0.0
C707 C 0.32227 0.83925 0.60247 0.0
C708 C 0.34768 0.86748 0.67057 0.0
C709 C 0.37156 0.86211 0.6856 0.0
C710 C 0.38214 0.87987 0.7057 0.0
C711 C 0.36875 0.90371 0.71032 0.0
C712 C 0.34474 0.90957 0.69556 0.0
C713 C 0.33417 0.89129 0.67581 0.0
C714 C 0.33099 0.93478 0.70158 0.0
C715 C 0.30492 0.9343 0.7108 0.0
C716 C 0.34559 0.95915 0.70204 0.0
C717 C 0.33554 0.98191 0.71394 0.0
C718 C 0.3107 0.98082 0.72567 0.0
C719 C 0.40711 0.87308 0.72171 0.0
C720 C 0.4108 0.8467 0.73059 0.0
C721 C 0.42782 0.8923 0.72725 0.0
C722 C 0.45216 0.8849 0.74024 0.0
C723 C 0.45621 0.85816 0.74783 0.0
C724 C 0.435 0.83935 0.74344 0.0
C725 C 0.29484 0.95722 0.72292 0.0
H726 H 0.33332 0.78106 0.63629 0.0
H727 H 0.34518 0.81271 0.67276 0.0
H728 H 0.3282 0.87875 0.61944 0.0
H729 H 0.31633 0.84705 0.58288 0.0
H730 H 0.38243 0.84423 0.68116 0.0
H731 H 0.31564 0.89567 0.66451 0.0
H732 H 0.37663 0.91744 0.72597 0.0
H733 H 0.29333 0.91567 0.71079 0.0
H734 H 0.36564 0.9601 0.69491 0.0
H735 H 0.34831 0.99975 0.71618 0.0
H736 H 0.39503 0.83157 0.7273 0.0
H737 H 0.4256 0.9128 0.72063 0.0
H738 H 0.27596 0.95568 0.73244 0.0
H739 H 0.43721 0.81876 0.74971 0.0
H740 H 0.46816 0.89979 0.74335 0.0
C741 C 0.71503 0.83944 0.58554 0.0
C742 C 0.74243 0.84661 0.58606 0.0
C743 C 0.69965 0.84564 0.6073 0.0
C744 C 0.71145 0.85886 0.63025 0.0
C745 C 0.73907 0.86547 0.6308 0.0
C746 C 0.75424 0.85972 0.6089 0.0
C747 C 0.69534 0.86619 0.65348 0.0
C748 C 0.67448 0.84928 0.6621 0.0
C749 C 0.66115 0.85583 0.68532 0.0
C750 C 0.66849 0.87949 0.69971 0.0
C751 C 0.68903 0.89645 0.69142 0.0
C752 C 0.70187 0.88997 0.66807 0.0
C753 C 0.69876 0.91982 0.70818 0.0
C754 C 0.68101 0.93857 0.7178 0.0
C755 C 0.72629 0.92335 0.71467 0.0
C756 C 0.73602 0.94547 0.72982 0.0
C757 C 0.71851 0.96491 0.73867 0.0
C758 C 0.64117 0.83732 0.69663 0.0
C759 C 0.61568 0.83264 0.68374 0.0
C760 C 0.6463 0.82771 0.72274 0.0
C761 C 0.62582 0.81588 0.73665 0.0
C762 C 0.59972 0.81326 0.72478 0.0
C763 C 0.59498 0.82061 0.69778 0.0
C764 C 0.6908 0.96099 0.73281 0.0
H765 H 0.70543 0.82931 0.56811 0.0
H766 H 0.67848 0.84041 0.60596 0.0
H767 H 0.74923 0.87484 0.64835 0.0
H768 H 0.77542 0.86488 0.61014 0.0
H769 H 0.66946 0.83053 0.65169 0.0
H770 H 0.71728 0.90359 0.66142 0.0
H771 H 0.6588 0.88418 0.71803 0.0
H772 H 0.65965 0.93624 0.71312 0.0
H773 H 0.74039 0.90887 0.70811 0.0
H774 H 0.75736 0.94723 0.73456 0.0
H775 H 0.61126 0.84007 0.66364 0.0
H776 H 0.66581 0.83098 0.73306 0.0
H777 H 0.67675 0.97554 0.7392 0.0
H778 H 0.57493 0.81913 0.68833 0.0
H779 H 0.62999 0.81036 0.75745 0.0
C780 C 0.5819 0.82871 0.34771 0.0
C781 C 0.57683 0.82445 0.31994 0.0
C782 C 0.6065 0.83926 0.35792 0.0
C783 C 0.62668 0.84596 0.34062 0.0
C784 C 0.62097 0.8438 0.31264 0.0
C785 C 0.59619 0.83304 0.30234 0.0
C786 C 0.65406 0.85309 0.3521 0.0
C787 C 0.66606 0.83704 0.3724 0.0
C788 C 0.69193 0.84319 0.38341 0.0
C789 C 0.70554 0.86615 0.37453 0.0
C790 C 0.69382 0.88271 0.35463 0.0
C791 C 0.66817 0.87573 0.34315 0.0
C792 C 0.70845 0.90732 0.34618 0.0
C793 C 0.72205 0.92426 0.36543 0.0
C794 C 0.7094 0.91382 0.31888 0.0
C795 C 0.72387 0.9365 0.311 0.0
C796 C 0.73764 0.95344 0.33023 0.0
C797 C 0.70517 0.82591 0.4042 0.0
C798 C 0.69254 0.81896 0.42781 0.0
C799 C 0.73175 0.81843 0.40157 0.0
C800 C 0.74617 0.80651 0.42289 0.0
C801 C 0.73439 0.80171 0.44734 0.0
C802 C 0.70714 0.80701 0.44935 0.0
C803 C 0.73641 0.94702 0.35757 0.0
H804 H 0.56728 0.82252 0.36179 0.0
H805 H 0.61011 0.84124 0.37951 0.0
H806 H 0.63621 0.84889 0.29885 0.0
H807 H 0.59293 0.82977 0.28088 0.0
H808 H 0.65554 0.8193 0.37912 0.0
H809 H 0.65879 0.88837 0.32791 0.0
H810 H 0.72545 0.87115 0.38318 0.0
H811 H 0.72141 0.92004 0.38667 0.0
H812 H 0.69943 0.90102 0.30354 0.0
H813 H 0.72462 0.94037 0.28974 0.0
H814 H 0.67204 0.82451 0.43034 0.0
H815 H 0.74186 0.82309 0.38347 0.0
H816 H 0.74632 0.95969 0.37301 0.0
H817 H 0.6978 0.80404 0.4682 0.0
H818 H 0.76724 0.80279 0.42094 0.0
C819 C 0.72583 0.21758 0.43756 0.0
C820 C 0.75402 0.21783 0.43793 0.0
C821 C 0.71031 0.21039 0.4142 0.0
C822 C 0.72259 0.20318 0.39064 0.0
C823 C 0.75077 0.20351 0.39101 0.0
C824 C 0.76627 0.21066 0.41434 0.0
C825 C 0.7063 0.19473 0.36588 0.0
C826 C 0.68319 0.20854 0.35707 0.0
C827 C 0.66881 0.2011 0.33289 0.0
C828 C 0.67739 0.17909 0.31789 0.0
C829 C 0.70041 0.16528 0.32636 0.0
C830 C 0.7145 0.17309 0.35045 0.0
C831 C 0.71101 0.14342 0.30988 0.0
C832 C 0.69521 0.12066 0.30186 0.0
C833 C 0.73822 0.14417 0.30447 0.0
C834 C 0.74998 0.12189 0.29355 0.0
C835 C 0.73484 0.09831 0.28762 0.0
C836 C 0.64577 0.21704 0.32224 0.0
C837 C 0.62535 0.22513 0.33871 0.0
C838 C 0.64363 0.22337 0.29483 0.0
C839 C 0.62087 0.23556 0.2837 0.0
C840 C 0.59967 0.242 0.29965 0.0
C841 C 0.60237 0.23754 0.32745 0.0
C842 C 0.70712 0.09813 0.2908 0.0
H843 H 0.71571 0.22268 0.45544 0.0
H844 H 0.68869 0.21002 0.41472 0.0
H845 H 0.76093 0.19854 0.37309 0.0
H846 H 0.78785 0.21111 0.41368 0.0
H847 H 0.6771 0.22578 0.36836 0.0
H848 H 0.73199 0.16205 0.35727 0.0
H849 H 0.66655 0.17307 0.29926 0.0
H850 H 0.67415 0.11962 0.30581 0.0
H851 H 0.75075 0.1616 0.30999 0.0
H852 H 0.7714 0.12253 0.29123 0.0
H853 H 0.62652 0.22064 0.35996 0.0
H854 H 0.65928 0.21816 0.28172 0.0
H855 H 0.69513 0.08003 0.28673 0.0
H856 H 0.58613 0.24202 0.34008 0.0
H857 H 0.61933 0.23893 0.2622 0.0
C858 C 0.32828 0.0957 0.34636 0.0
C859 C 0.30052 0.09717 0.34894 0.0
C860 C 0.34521 0.11791 0.35226 0.0
C861 C 0.33482 0.14227 0.3608 0.0
C862 C 0.30711 0.14352 0.36415 0.0
C863 C 0.29016 0.12119 0.35837 0.0
C864 C 0.35279 0.16637 0.36552 0.0
C865 C 0.37338 0.17201 0.34818 0.0
C866 C 0.39034 0.19476 0.35222 0.0
C867 C 0.38643 0.21208 0.37406 0.0
C868 C 0.36575 0.20703 0.39144 0.0
C869 C 0.34919 0.18402 0.38706 0.0
C870 C 0.36095 0.22587 0.41395 0.0
C871 C 0.38227 0.23662 0.4307 0.0
C872 C 0.33468 0.23283 0.4191 0.0
C873 C 0.32973 0.24938 0.44089 0.0
C874 C 0.35088 0.2594 0.45828 0.0
C875 C 0.41163 0.20078 0.3332 0.0
C876 C 0.42703 0.1802 0.32288 0.0
C877 C 0.41663 0.22724 0.32507 0.0
C878 C 0.43683 0.23309 0.30765 0.0
C879 C 0.45262 0.21266 0.29781 0.0
C880 C 0.44725 0.18607 0.30532 0.0
C881 C 0.37728 0.25321 0.45265 0.0
H882 H 0.33693 0.07734 0.33958 0.0
H883 H 0.36649 0.11599 0.35003 0.0
H884 H 0.29835 0.16202 0.37043 0.0
H885 H 0.26884 0.12305 0.36028 0.0
H886 H 0.37568 0.15909 0.33094 0.0
H887 H 0.33371 0.17959 0.40081 0.0
H888 H 0.3993 0.22971 0.37741 0.0
H889 H 0.40275 0.23157 0.42733 0.0
H890 H 0.31785 0.22545 0.40623 0.0
H891 H 0.3092 0.25429 0.44411 0.0
H892 H 0.42386 0.1596 0.32884 0.0
H893 H 0.40477 0.24351 0.332 0.0
H894 H 0.39401 0.26047 0.46568 0.0
H895 H 0.45918 0.16994 0.29827 0.0
H896 H 0.44002 0.25371 0.30181 0.0
C897 C 0.29169 0.83143 0.44636 0.0
C898 C 0.30966 0.82598 0.46829 0.0
C899 C 0.3011 0.84288 0.42294 0.0
C900 C 0.32858 0.84894 0.42117 0.0
C901 C 0.34603 0.84531 0.44384 0.0
C902 C 0.33669 0.83402 0.4671 0.0
C903 C 0.33965 0.85704 0.39535 0.0
C904 C 0.32809 0.87738 0.37977 0.0
C905 C 0.33882 0.88514 0.3554 0.0
C906 C 0.3617 0.8723 0.34687 0.0
C907 C 0.37344 0.85149 0.36221 0.0
C908 C 0.36202 0.84405 0.38627 0.0
C909 C 0.3971 0.83678 0.35326 0.0
C910 C 0.39965 0.83035 0.32598 0.0
C911 C 0.41669 0.82767 0.37231 0.0
C912 C 0.43754 0.81174 0.36451 0.0
C913 C 0.43975 0.80492 0.33738 0.0
C914 C 0.32553 0.90657 0.33924 0.0
C915 C 0.29745 0.9066 0.3363 0.0
C916 C 0.34019 0.92809 0.32862 0.0
C917 C 0.32685 0.95007 0.31702 0.0
C918 C 0.29874 0.95076 0.3161 0.0
C919 C 0.28427 0.92844 0.32506 0.0
C920 C 0.42084 0.81474 0.31813 0.0
H921 H 0.27079 0.82532 0.44664 0.0
H922 H 0.2872 0.84555 0.40573 0.0
H923 H 0.36719 0.85032 0.44324 0.0
H924 H 0.351 0.83039 0.48377 0.0
H925 H 0.31096 0.88758 0.38696 0.0
H926 H 0.37013 0.8275 0.39783 0.0
H927 H 0.37014 0.87835 0.32826 0.0
H928 H 0.38486 0.83669 0.31075 0.0
H929 H 0.41592 0.83276 0.39341 0.0
H930 H 0.45216 0.80499 0.3797 0.0
H931 H 0.28556 0.89005 0.34358 0.0
H932 H 0.36188 0.9286 0.33056 0.0
H933 H 0.42205 0.80973 0.29707 0.0
H934 H 0.26256 0.92818 0.32415 0.0
H935 H 0.33846 0.96705 0.31025 0.0
C936 C 0.70513 0.73256 0.08749 0.0
C937 C 0.70378 0.76062 0.08941 0.0
C938 C 0.69977 0.7164 0.1094 0.0
C939 C 0.69302 0.72788 0.13388 0.0
C940 C 0.6908 0.75593 0.13553 0.0
C941 C 0.69605 0.7721 0.11351 0.0
C942 C 0.6893 0.71075 0.15783 0.0
C943 C 0.70632 0.68918 0.16339 0.0
C944 C 0.70364 0.6735 0.18639 0.0
C945 C 0.68352 0.67939 0.20392 0.0
C946 C 0.66607 0.70063 0.19864 0.0
C947 C 0.66915 0.71619 0.17552 0.0
C948 C 0.64463 0.70666 0.21721 0.0
C949 C 0.62932 0.68592 0.22829 0.0
C950 C 0.63905 0.73334 0.22368 0.0
C951 C 0.6183 0.73917 0.24022 0.0
C952 C 0.60252 0.71851 0.25076 0.0
C953 C 0.72208 0.65115 0.19236 0.0
C954 C 0.72662 0.63169 0.1727 0.0
C955 C 0.73482 0.64884 0.21804 0.0
C956 C 0.75107 0.62711 0.22423 0.0
C957 C 0.75463 0.60679 0.20506 0.0
C958 C 0.74262 0.60966 0.17901 0.0
C959 C 0.60853 0.69178 0.2449 0.0
H960 H 0.71055 0.72308 0.06904 0.0
H961 H 0.70108 0.69486 0.10719 0.0
H962 H 0.68592 0.7655 0.15414 0.0
H963 H 0.69509 0.79365 0.11573 0.0
H964 H 0.72232 0.68506 0.15031 0.0
H965 H 0.65546 0.73226 0.17098 0.0
H966 H 0.68151 0.6674 0.22177 0.0
H967 H 0.63293 0.66515 0.22354 0.0
H968 H 0.65079 0.74979 0.216 0.0
H969 H 0.61465 0.75996 0.24477 0.0
H970 H 0.71703 0.63301 0.15271 0.0
H971 H 0.73211 0.66386 0.23341 0.0
H972 H 0.59664 0.6754 0.25245 0.0
H973 H 0.7447 0.59449 0.16371 0.0
H974 H 0.76052 0.62611 0.24427 0.0
C975 C 0.44618 0.75613 0.21462 0.0
C976 C 0.46834 0.74009 0.22099 0.0
C977 C 0.42335 0.74502 0.20044 0.0
C978 C 0.42253 0.71782 0.19258 0.0
C979 C 0.4457 0.70275 0.19679 0.0
C980 C 0.46829 0.71374 0.21087 0.0
C981 C 0.39698 0.70395 0.18324 0.0
C982 C 0.38036 0.71404 0.16229 0.0
C983 C 0.35631 0.70041 0.15358 0.0
C984 C 0.34897 0.67644 0.16637 0.0
C985 C 0.36526 0.66632 0.18788 0.0
C986 C 0.38913 0.68031 0.19599 0.0
C987 C 0.35737 0.64186 0.20291 0.0
C988 C 0.33077 0.63743 0.20977 0.0
C989 C 0.37689 0.6237 0.21224 0.0
C990 C 0.37019 0.60224 0.22868 0.0
C991 C 0.34373 0.59814 0.23596 0.0
C992 C 0.33907 0.71188 0.13134 0.0
C993 C 0.33402 0.73941 0.1316 0.0
C994 C 0.32956 0.69637 0.10882 0.0
C995 C 0.31716 0.7087 0.08615 0.0
C996 C 0.31416 0.73662 0.08586 0.0
C997 C 0.32181 0.75159 0.10918 0.0
C998 C 0.32403 0.61581 0.22606 0.0
H999 H 0.44561 0.77638 0.22251 0.0
H1000 H 0.40572 0.75707 0.19743 0.0
H1001 H 0.44579 0.6819 0.19056 0.0
H1002 H 0.48515 0.70097 0.21545 0.0
H1003 H 0.38646 0.73227 0.15238 0.0
H1004 H 0.40143 0.67323 0.21299 0.0
H1005 H 0.3305 0.66594 0.15981 0.0
H1006 H 0.31529 0.65117 0.20332 0.0
H1007 H 0.3975 0.62614 0.20697 0.0
H1008 H 0.38571 0.58872 0.23548 0.0
H1009 H 0.34053 0.7518 0.14883 0.0
H1010 H 0.33316 0.67506 0.10811 0.0
H1011 H 0.30348 0.61334 0.23147 0.0
H1012 H 0.31948 0.77313 0.10964 0.0
H1013 H 0.31163 0.69675 0.06835 0.0
C1014 C 0.33996 0.3054 0.11024 0.0
C1015 C 0.32982 0.32278 0.09029 0.0
C1016 C 0.35192 0.31577 0.13445 0.0
C1017 C 0.35396 0.34369 0.13907 0.0
C1018 C 0.34522 0.36091 0.1184 0.0
C1019 C 0.3333 0.3506 0.09438 0.0
C1020 C 0.36408 0.355 0.16562 0.0
C1021 C 0.38643 0.34418 0.17956 0.0
C1022 C 0.39599 0.35461 0.20472 0.0
C1023 C 0.38307 0.37642 0.21581 0.0
C1024 C 0.36011 0.38725 0.20248 0.0
C1025 C 0.35096 0.37643 0.17734 0.0
C1026 C 0.34507 0.409 0.21532 0.0
C1027 C 0.34248 0.40904 0.24323 0.0
C1028 C 0.33318 0.42979 0.20008 0.0
C1029 C 0.32 0.45061 0.21267 0.0
C1030 C 0.31876 0.45111 0.24072 0.0
C1031 C 0.41884 0.34163 0.21953 0.0
C1032 C 0.4186 0.31362 0.2217 0.0
C1033 C 0.44163 0.35642 0.22975 0.0
C1034 C 0.46455 0.34314 0.23993 0.0
C1035 C 0.46475 0.31499 0.24005 0.0
C1036 C 0.44124 0.30051 0.23178 0.0
C1037 C 0.32971 0.42987 0.25573 0.0
H1038 H 0.33737 0.28388 0.10777 0.0
H1039 H 0.35842 0.30194 0.15 0.0
H1040 H 0.34707 0.38246 0.12101 0.0
H1041 H 0.32593 0.36456 0.07929 0.0
H1042 H 0.39669 0.32774 0.17064 0.0
H1043 H 0.33296 0.38403 0.16726 0.0
H1044 H 0.39061 0.38452 0.2351 0.0
H1045 H 0.35051 0.39304 0.2556 0.0
H1046 H 0.33481 0.43051 0.17853 0.0
H1047 H 0.312 0.4669 0.20067 0.0
H1048 H 0.40117 0.30172 0.21456 0.0
H1049 H 0.44228 0.37808 0.22838 0.0
H1050 H 0.32884 0.42958 0.2774 0.0
H1051 H 0.44081 0.27877 0.23184 0.0
H1052 H 0.48254 0.35472 0.24592 0.0
C1053 C 0.73552 0.3561 0.09521 0.0
C1054 C 0.76284 0.36338 0.09847 0.0
C1055 C 0.71787 0.36263 0.11488 0.0
C1056 C 0.72715 0.37635 0.13854 0.0
C1057 C 0.75449 0.38397 0.14156 0.0
C1058 C 0.77207 0.37772 0.12169 0.0
C1059 C 0.70856 0.38217 0.16018 0.0
C1060 C 0.68808 0.36362 0.16614 0.0
C1061 C 0.67103 0.36857 0.18703 0.0
C1062 C 0.67499 0.39228 0.20247 0.0
C1063 C 0.69504 0.4111 0.19659 0.0
C1064 C 0.7115 0.40607 0.17535 0.0
C1065 C 0.69915 0.43624 0.21246 0.0
C1066 C 0.6952 0.46102 0.19998 0.0
C1067 C 0.70954 0.43572 0.23924 0.0
C1068 C 0.7176 0.45963 0.25271 0.0
C1069 C 0.71502 0.48448 0.2397 0.0
C1070 C 0.64911 0.349 0.19271 0.0
C1071 C 0.63307 0.33678 0.17165 0.0
C1072 C 0.64384 0.34262 0.21931 0.0
C1073 C 0.62279 0.32495 0.22476 0.0
C1074 C 0.60626 0.31322 0.20378 0.0
C1075 C 0.61189 0.31909 0.17712 0.0
C1076 C 0.70275 0.4849 0.21354 0.0
H1077 H 0.72777 0.34536 0.07734 0.0
H1078 H 0.69692 0.35693 0.11148 0.0
H1079 H 0.76255 0.39415 0.15963 0.0
H1080 H 0.79306 0.38328 0.12493 0.0
H1081 H 0.68584 0.34487 0.15504 0.0
H1082 H 0.72673 0.42089 0.17077 0.0
H1083 H 0.66205 0.39651 0.21861 0.0
H1084 H 0.68716 0.46185 0.17934 0.0
H1085 H 0.71282 0.41676 0.2492 0.0
H1086 H 0.72702 0.45854 0.27279 0.0
H1087 H 0.63646 0.3414 0.15091 0.0
H1088 H 0.65613 0.35119 0.23599 0.0
H1089 H 0.70045 0.50357 0.20281 0.0
H1090 H 0.59952 0.31059 0.1605 0.0
H1091 H 0.6196 0.32041 0.24554 0.0
C1092 C 0.6101 0.32971 0.85747 0.0
C1093 C 0.60525 0.32643 0.82956 0.0
C1094 C 0.6338 0.3419 0.86813 0.0
C1095 C 0.65345 0.35108 0.85119 0.0
C1096 C 0.64783 0.34966 0.82315 0.0
C1097 C 0.62387 0.33741 0.81239 0.0
C1098 C 0.68029 0.36004 0.86305 0.0
C1099 C 0.69289 0.34509 0.88393 0.0
C1100 C 0.71823 0.35289 0.89529 0.0
C1101 C 0.73075 0.37627 0.88606 0.0
C1102 C 0.71858 0.39171 0.86554 0.0
C1103 C 0.69343 0.38321 0.8538 0.0
C1104 C 0.73256 0.41655 0.8566 0.0
C1105 C 0.74585 0.4341 0.87554 0.0
C1106 C 0.73383 0.4223 0.82917 0.0
C1107 C 0.74839 0.44477 0.82087 0.0
C1108 C 0.76194 0.46218 0.8398 0.0
C1109 C 0.73207 0.33703 0.9169 0.0
C1110 C 0.71913 0.32944 0.94013 0.0
C1111 C 0.75943 0.33189 0.91553 0.0
C1112 C 0.77408 0.32183 0.9377 0.0
C1113 C 0.76172 0.31638 0.96169 0.0
C1114 C 0.73391 0.31918 0.96247 0.0
C1115 C 0.76038 0.45658 0.86725 0.0
H1116 H 0.59603 0.32168 0.87124 0.0
H1117 H 0.63718 0.34326 0.88978 0.0
H1118 H 0.66258 0.35659 0.80955 0.0
H1119 H 0.62078 0.33495 0.79081 0.0
H1120 H 0.68332 0.32691 0.89086 0.0
H1121 H 0.68373 0.39503 0.83807 0.0
H1122 H 0.75025 0.38246 0.89494 0.0
H1123 H 0.74497 0.43049 0.89688 0.0
H1124 H 0.72418 0.40902 0.81405 0.0
H1125 H 0.74944 0.44811 0.79954 0.0
H1126 H 0.69804 0.33318 0.94172 0.0
H1127 H 0.76984 0.33699 0.89774 0.0
H1128 H 0.77016 0.4697 0.88239 0.0
H1129 H 0.72405 0.31549 0.98091 0.0
H1130 H 0.79552 0.31981 0.93664 0.0
C1131 C 0.71682 0.71178 0.96252 0.0
C1132 C 0.74081 0.72705 0.96439 0.0
C1133 C 0.70897 0.69774 0.93897 0.0
C1134 C 0.72494 0.69868 0.91678 0.0
C1135 C 0.75031 0.71153 0.91956 0.0
C1136 C 0.75824 0.72566 0.94332 0.0
C1137 C 0.71284 0.69076 0.88993 0.0
C1138 C 0.68907 0.70278 0.88068 0.0
C1139 C 0.67678 0.69645 0.8553 0.0
C1140 C 0.68869 0.67741 0.83898 0.0
C1141 C 0.7128 0.66532 0.84782 0.0
C1142 C 0.7248 0.6723 0.87337 0.0
C1143 C 0.72609 0.64581 0.83053 0.0
C1144 C 0.71189 0.62395 0.81788 0.0
C1145 C 0.75385 0.64807 0.82817 0.0
C1146 C 0.76742 0.62808 0.81533 0.0
C1147 C 0.75368 0.60526 0.80437 0.0
C1148 C 0.65242 0.71114 0.84588 0.0
C1149 C 0.63295 0.71763 0.86404 0.0
C1150 C 0.6496 0.72097 0.81953 0.0
C1151 C 0.62839 0.73763 0.81187 0.0
C1152 C 0.60965 0.74498 0.83042 0.0
C1153 C 0.61197 0.7345 0.85647 0.0
C1154 C 0.72563 0.60375 0.80485 0.0
H1155 H 0.70306 0.71243 0.97852 0.0
H1156 H 0.68942 0.6878 0.93737 0.0
H1157 H 0.7629 0.71261 0.90263 0.0
H1158 H 0.77671 0.73751 0.94415 0.0
H1159 H 0.68064 0.71798 0.89311 0.0
H1160 H 0.74321 0.66304 0.8806 0.0
H1161 H 0.6795 0.67232 0.81931 0.0
H1162 H 0.69044 0.62175 0.81932 0.0
H1163 H 0.76528 0.66494 0.83709 0.0
H1164 H 0.78902 0.63002 0.81494 0.0
H1165 H 0.63414 0.70998 0.88434 0.0
H1166 H 0.66436 0.71671 0.80513 0.0
H1167 H 0.71457 0.58632 0.79669 0.0
H1168 H 0.59752 0.73932 0.871 0.0
H1169 H 0.62719 0.74552 0.79167 0.0
C1170 C 0.36919 0.59964 0.80928 0.0
C1171 C 0.34143 0.59428 0.80722 0.0
C1172 C 0.37955 0.62371 0.82036 0.0
C1173 C 0.36243 0.64321 0.82959 0.0
C1174 C 0.33471 0.63728 0.82903 0.0
C1175 C 0.32428 0.61297 0.81794 0.0
C1176 C 0.37361 0.67003 0.83831 0.0
C1177 C 0.39321 0.68282 0.82335 0.0
C1178 C 0.40418 0.70801 0.83119 0.0
C1179 C 0.39558 0.72032 0.85458 0.0
C1180 C 0.37604 0.70801 0.86982 0.0
C1181 C 0.36497 0.6829 0.86138 0.0
C1182 C 0.3672 0.72158 0.89443 0.0
C1183 C 0.38594 0.73434 0.91277 0.0
C1184 C 0.3399 0.7224 0.89946 0.0
C1185 C 0.33152 0.73574 0.92218 0.0
C1186 C 0.35024 0.74848 0.94063 0.0
C1187 C 0.42462 0.72175 0.81518 0.0
C1188 C 0.44651 0.70791 0.80573 0.0
C1189 C 0.42322 0.74946 0.81084 0.0
C1190 C 0.44417 0.76338 0.79948 0.0
C1191 C 0.46692 0.74995 0.79187 0.0
C1192 C 0.46757 0.72195 0.79411 0.0
C1193 C 0.37758 0.7476 0.93559 0.0
H1194 H 0.383 0.58551 0.80152 0.0
H1195 H 0.40102 0.62733 0.82112 0.0
H1196 H 0.32099 0.65192 0.836 0.0
H1197 H 0.30279 0.60945 0.8165 0.0
H1198 H 0.39947 0.67345 0.80513 0.0
H1199 H 0.3502 0.67301 0.87321 0.0
H1200 H 0.4041 0.73968 0.86093 0.0
H1201 H 0.40717 0.73382 0.90966 0.0
H1202 H 0.32491 0.71318 0.88553 0.0
H1203 H 0.31027 0.73638 0.92497 0.0
H1204 H 0.44815 0.68653 0.80877 0.0
H1205 H 0.40636 0.76062 0.8172 0.0
H1206 H 0.3926 0.75683 0.94943 0.0
H1207 H 0.4851 0.71124 0.78876 0.0
H1208 H 0.44319 0.78499 0.79787 0.0
C1209 C 0.2963 0.34307 0.92613 0.0
C1210 C 0.30791 0.3355 0.95124 0.0
C1211 C 0.31238 0.34917 0.90481 0.0
C1212 C 0.34045 0.34782 0.90807 0.0
C1213 C 0.35208 0.34081 0.9333 0.0
C1214 C 0.33604 0.33482 0.95461 0.0
C1215 C 0.35754 0.35346 0.88519 0.0
C1216 C 0.35206 0.3752 0.86813 0.0
C1217 C 0.36775 0.38059 0.84618 0.0
C1218 C 0.38926 0.36386 0.84154 0.0
C1219 C 0.3952 0.34202 0.8584 0.0
C1220 C 0.37924 0.33704 0.88022 0.0
C1221 C 0.41808 0.32451 0.853 0.0
C1222 C 0.42323 0.31743 0.82646 0.0
C1223 C 0.43547 0.31548 0.8741 0.0
C1224 C 0.458 0.30062 0.86866 0.0
C1225 C 0.46368 0.29461 0.84202 0.0
C1226 C 0.36163 0.40367 0.82814 0.0
C1227 C 0.33492 0.41032 0.82134 0.0
C1228 C 0.38232 0.41934 0.8177 0.0
C1229 C 0.37644 0.44124 0.80116 0.0
C1230 C 0.34975 0.44816 0.79495 0.0
C1231 C 0.32908 0.43235 0.80508 0.0
C1232 C 0.44574 0.30276 0.82106 0.0
H1233 H 0.27477 0.34354 0.92265 0.0
H1234 H 0.30278 0.35428 0.88555 0.0
H1235 H 0.37364 0.34009 0.93664 0.0
H1236 H 0.34576 0.32966 0.97377 0.0
H1237 H 0.33588 0.38835 0.87239 0.0
H1238 H 0.38325 0.31991 0.89293 0.0
H1239 H 0.40144 0.36782 0.82469 0.0
H1240 H 0.40992 0.32341 0.80976 0.0
H1241 H 0.4322 0.3207 0.89477 0.0
H1242 H 0.47153 0.29478 0.88521 0.0
H1243 H 0.31844 0.39841 0.82845 0.0
H1244 H 0.40313 0.4151 0.82277 0.0
H1245 H 0.44925 0.29794 0.80036 0.0
H1246 H 0.30832 0.43693 0.80026 0.0
H1247 H 0.39276 0.45324 0.79388 0.0
Cu1248 Cu 0.28026 0.2793 0.03543 0.0
N1249 N 0.27797 0.30516 1.0086 0.0
N1250 N 0.29144 0.3274 0.9728 0.0
C1251 C 0.2983 0.31038 0.99279 0.0
C1252 C 0.26556 0.33312 0.97623 0.0
C1253 C 0.25727 0.31928 0.99834 0.0
O1254 O 0.27947 0.24554 0.01515 0.0
C1255 C 0.31233 0.31286 0.06713 0.0
O1256 O 0.29437 0.32911 0.05662 0.0
H1257 H 0.31738 0.30065 0.99525 0.0
H1258 H 0.23739 0.31882 1.00577 0.0
N1259 N 0.25213 0.2785 0.05849 0.0
N1260 N 0.22916 0.26328 0.09263 0.0
C1261 C 0.2479 0.25791 0.07511 0.0
C1262 C 0.23554 0.29777 0.06569 0.0
C1263 C 0.22127 0.28839 0.08679 0.0
C1264 C 0.25604 0.23809 1.00607 0.0
O1265 O 0.23546 0.25181 1.01311 0.0
H1266 H 0.25954 0.23989 0.07527 0.0
H1267 H 0.23474 0.31758 0.05709 0.0
O1268 O 0.31151 0.28837 0.05938 0.0
H1269 H 0.25332 0.34595 0.96344 0.0
H1270 H 0.20676 0.29945 0.09742 0.0
Cu1271 Cu 0.80653 0.29721 0.03068 0.0
N1272 N 0.80109 0.32888 0.04982 0.0
N1273 N 0.78122 0.35503 0.07896 0.0
C1274 C 0.77998 0.33171 0.06504 0.0
C1275 C 0.80406 0.36751 0.07213 0.0
C1276 C 0.81624 0.35136 0.05398 0.0
O1277 O 0.81012 0.26901 0.0577 0.0
C1278 C 0.77908 0.31401 0.98645 0.0
O1279 O 0.79876 0.33177 0.99049 0.0
H1280 H 0.76457 0.3163 0.06675 0.0
H1281 H 0.83507 0.35545 0.04507 0.0
N1282 N 0.83745 0.29675 1.01115 0.0
N1283 N 0.86229 0.28449 0.97734 0.0
C1284 C 0.83865 0.28157 0.98886 0.0
C1285 C 0.86137 0.30968 1.01424 0.0
C1286 C 0.87679 0.3021 0.99338 0.0
C1287 C 0.82789 0.27526 0.0763 0.0
O1288 O 0.84129 0.29807 0.07449 0.0
H1289 H 0.82232 0.26843 0.9814 0.0
H1290 H 0.86723 0.32361 0.03036 0.0
O1291 O 0.77699 0.29491 1.00318 0.0
H1292 H 0.81154 0.38675 0.0799 0.0
H1293 H 0.89689 0.30933 0.99013 0.0
Cu1294 Cu 0.76501 0.79274 1.01214 0.0
N1295 N 0.76254 0.81716 0.98401 0.0
N1296 N 0.7758 0.83826 0.94746 0.0
C1297 C 0.78284 0.82202 0.96807 0.0
C1298 C 0.74984 0.84383 0.95063 0.0
C1299 C 0.74168 0.83069 0.9732 0.0
O1300 O 0.76645 0.758 0.99398 0.0
C1301 C 0.79543 0.82838 0.04333 0.0
O1302 O 0.77766 0.84398 0.03145 0.0
H1303 H 0.80209 0.81272 0.97101 0.0
H1304 H 0.72181 0.8304 0.98067 0.0
N1305 N 0.73601 0.7921 0.03414 0.0
N1306 N 0.71189 0.77722 0.0676 0.0
C1307 C 0.73122 0.77168 0.05079 0.0
C1308 C 0.7192 0.81146 0.04064 0.0
C1309 C 0.70423 0.80229 0.06134 0.0
C1310 C 0.74371 0.74871 0.98479 0.0
O1311 O 0.7221 0.76175 0.99002 0.0
H1312 H 0.74288 0.75367 0.05153 0.0
H1313 H 0.71875 0.83122 0.0319 0.0
O1314 O 0.79525 0.80364 0.03656 0.0
H1315 H 0.73749 0.8562 0.93746 0.0
H1316 H 0.68943 0.81347 0.07143 0.0
Cu1317 Cu 0.28445 0.77313 0.01655 0.0
N1318 N 0.27767 0.80364 0.03695 0.0
N1319 N 0.25706 0.82633 0.06823 0.0
C1320 C 0.25625 0.80457 0.05203 0.0
C1321 C 0.27984 0.83986 0.06301 0.0
C1322 C 0.29249 0.82587 0.04352 0.0
O1323 O 0.28896 0.74476 0.0434 0.0
C1324 C 0.25777 0.79213 0.97317 0.0
O1325 O 0.27687 0.81006 0.97926 0.0
H1326 H 0.24119 0.78863 0.05231 0.0
H1327 H 0.31163 0.83096 0.03571 0.0
N1328 N 0.31563 0.77393 0.99738 0.0
N1329 N 0.34148 0.76196 0.96428 0.0
C1330 C 0.31813 0.75772 0.97602 0.0
C1331 C 0.33832 0.78903 0.99953 0.0
C1332 C 0.35435 0.78163 0.97914 0.0
C1333 C 0.3077 0.75157 0.06087 0.0
O1334 O 0.32123 0.77401 0.05733 0.0
H1335 H 0.3029 0.74301 0.96932 0.0
H1336 H 0.3429 0.8044 1.01459 0.0
O1337 O 0.25558 0.77166 0.98824 0.0
H1338 H 0.28716 0.85815 0.07304 0.0
H1339 H 0.37369 0.79048 0.9753 0.0
Cu1340 Cu 0.03394 0.26494 0.30115 0.0
N1341 N 0.05817 0.23695 0.30138 0.0
N1342 N 0.09303 0.21432 0.28767 0.0
C1343 C 0.07893 0.23697 0.28542 0.0
C1344 C 0.0806 0.19937 0.30593 0.0
C1345 C 0.05911 0.21344 0.31445 0.0
O1346 O 0.05679 0.29683 0.30844 0.0
C1347 C 1.00339 0.23981 0.26087 0.0
O1348 O 1.01004 0.21986 0.27673 0.0
H1349 H 0.08297 0.25306 0.27168 0.0
H1350 H 0.04485 0.20666 0.32854 0.0
N1351 N 1.00837 0.26287 0.32711 0.0
N1352 N 0.97188 0.27471 0.34776 0.0
C1353 C 0.98633 0.27786 0.32595 0.0
C1354 C 1.00777 0.24944 0.35042 0.0
C1355 C 0.98531 0.25687 0.3633 0.0
C1356 C 0.06663 0.29832 0.33264 0.0
O1357 O 0.059 0.28027 0.3498 0.0
H1358 H 0.98162 0.29171 0.30984 0.0
H1359 H 0.023 0.23602 0.35803 0.0
O1360 O 1.01273 0.26326 0.26691 0.0
H1361 H 0.08647 0.17965 0.31255 0.0
H1362 H 0.97951 0.24995 0.38271 0.0
Cu1363 Cu 0.7721 0.0296 0.26505 0.0
N1364 N 0.80431 0.04932 0.26365 0.0
N1365 N 0.83222 0.08108 0.24919 0.0
C1366 C 0.80701 0.07076 0.24769 0.0
C1367 C 0.846 0.06541 0.26686 0.0
C1368 C 0.8287 0.04584 0.27579 0.0
O1369 O 0.74448 0.05674 0.26476 0.0
C1370 C 0.7901 0.98528 0.24168 0.0
O1371 O 0.80454 0.98752 0.26449 0.0
H1372 H 0.79077 0.07826 0.23477 0.0
H1373 H 0.83364 0.0301 0.28989 0.0
N1374 N 0.76844 1.00971 0.29647 0.0
N1375 N 0.75282 0.97678 0.32203 0.0
C1376 C 0.75046 0.98937 0.29814 0.0
C1377 C 0.78271 1.01031 0.3202 0.0
C1378 C 0.77309 0.99004 0.33604 0.0
C1379 C 0.74956 0.07338 0.28411 0.0
O1380 O 0.7703 0.0693 0.30085 0.0
H1381 H 0.73612 0.98383 0.28184 0.0
H1382 H 0.79927 0.02407 0.32541 0.0
O1383 O 0.77267 1.00299 0.23598 0.0
H1384 H 0.86701 0.06799 0.27305 0.0
H1385 H 0.78101 0.98504 0.35599 0.0
Cu1386 Cu 0.01917 0.7727 0.25472 0.0
N1387 N 1.00059 0.80489 0.25434 0.0
N1388 N 0.96816 0.83276 0.24088 0.0
C1389 C 0.97942 0.80882 0.23706 0.0
C1390 C 0.98312 0.84448 0.26141 0.0
C1391 C 1.0031 0.82719 0.26973 0.0
O1392 O 0.9913 0.74499 0.25863 0.0
C1393 C 0.05515 0.79433 0.22294 0.0
O1394 O 0.05471 0.81121 0.24325 0.0
H1395 H 0.9725 0.79418 0.22194 0.0
H1396 H 0.01814 0.83054 0.28597 0.0
N1397 N 0.04444 0.76864 0.28341 0.0
N1398 N 0.07891 0.75 0.30629 0.0
C1399 C 0.06438 0.75108 0.28268 0.0
C1400 C 0.04634 0.77925 0.30838 0.0
C1401 C 0.06762 0.76774 0.32257 0.0
C1402 C 0.97769 0.75004 0.27891 0.0
O1403 O 0.98467 0.77093 0.29415 0.0
H1404 H 0.06752 0.73863 0.26532 0.0
H1405 H 0.0329 0.79378 0.31595 0.0
O1406 O 0.03999 0.77336 0.2227 0.0
H1407 H 0.97958 0.86387 0.27023 0.0
H1408 H 0.07417 0.77204 0.34328 0.0
Cu1409 Cu 0.26403 0.01884 0.2843 0.0
N1410 N 0.26579 0.04102 0.31473 0.0
N1411 N 0.28298 0.07497 0.3403 0.0
C1412 C 0.2867 0.05812 0.31967 0.0
C1413 C 0.25863 0.06813 0.34884 0.0
C1414 C 0.24806 0.04704 0.33303 0.0
O1415 O 0.26876 0.04387 0.25502 0.0
C1416 C 0.28385 0.97515 0.30881 0.0
O1417 O 0.26179 0.97977 0.32099 0.0
H1418 H 0.30371 0.05915 0.30722 0.0
H1419 H 0.22856 0.03753 0.33429 0.0
N1420 N 0.23161 0.99982 0.27682 0.0
N1421 N 0.20507 0.96756 0.25747 0.0
C1422 C 0.22992 0.97874 0.25981 0.0
C1423 C 0.20683 1.00229 0.28563 0.0
C1424 C 0.19036 0.98242 0.2736 0.0
C1425 C 0.2489 0.05932 0.25181 0.0
O1426 O 0.22837 0.05575 0.26672 0.0
H1427 H 0.24677 0.97194 0.24916 0.0
H1428 H 0.20104 0.01741 0.29964 0.0
O1429 O 0.2908 0.99139 0.29068 0.0
H1430 H 0.24894 0.07797 0.36495 0.0
H1431 H 0.16934 0.97899 0.2768 0.0
Cu1432 Cu 0.03508 0.78201 0.76924 0.0
N1433 N 0.05854 0.75343 0.76829 0.0
N1434 N 0.09202 0.73041 0.75216 0.0
C1435 C 0.0769 0.75235 0.74968 0.0
C1436 C 0.0827 0.71702 0.7733 0.0
C1437 C 0.06208 0.73137 0.78333 0.0
O1438 O 0.05932 0.81263 0.77819 0.0
C1439 C 1.00307 0.75739 0.73055 0.0
O1440 O 1.0093 0.73809 0.74737 0.0
H1441 H 0.07871 0.76734 0.73428 0.0
H1442 H 0.05054 0.72598 0.80021 0.0
N1443 N 1.00912 0.7807 0.79482 0.0
N1444 N 0.97278 0.79458 0.8145 0.0
C1445 C 0.98884 0.79796 0.79395 0.0
C1446 C 1.00575 0.76557 0.81668 0.0
C1447 C 0.98337 0.77424 0.82899 0.0
C1448 C 0.06875 0.81182 0.80257 0.0
O1449 O 0.05973 0.79292 0.81809 0.0
H1450 H 0.98639 0.81322 0.77875 0.0
H1451 H 0.0188 0.74978 0.82354 0.0
O1452 O 1.01337 0.78079 0.73518 0.0
H1453 H 0.09037 0.69838 0.78116 0.0
H1454 H 0.9755 0.76617 0.8471 0.0
Cu1455 Cu 0.28876 0.03611 0.78175 0.0
N1456 N 0.32049 0.05664 0.77942 0.0
N1457 N 0.34679 0.08914 0.76375 0.0
C1458 C 0.32204 0.07773 0.76286 0.0
C1459 C 0.3615 0.07458 0.78168 0.0
C1460 C 0.34517 0.05458 0.79143 0.0
O1461 O 0.26194 0.06269 0.78954 0.0
C1462 C 0.30656 1.00025 0.74735 0.0
O1463 O 0.32542 1.00232 0.76676 0.0
H1464 H 0.3053 0.08422 0.74998 0.0
H1465 H 0.35098 0.03948 0.80593 0.0
N1466 N 0.28848 1.01078 0.80926 0.0
N1467 N 0.27381 0.97444 0.83067 0.0
C1468 C 0.27064 0.9901 0.80881 0.0
C1469 C 0.30363 1.00826 0.83226 0.0
C1470 C 0.29459 0.98587 0.84555 0.0
C1471 C 0.26975 0.07642 0.81044 0.0
O1472 O 0.2921 0.06982 0.82364 0.0
H1473 H 0.2553 0.98698 0.79279 0.0
H1474 H 0.31995 0.02175 0.83898 0.0
O1475 O 0.28566 1.01432 0.7488 0.0
H1476 H 0.38246 0.07823 0.7875 0.0
H1477 H 0.30286 0.9785 0.86456 0.0
Cu1478 Cu 0.04923 0.29686 0.78374 0.0
N1479 N 0.02821 0.32736 0.78508 0.0
N1480 N 0.99203 0.35146 0.77419 0.0
C1481 C 1.00518 0.32871 0.76989 0.0
C1482 C 1.00769 0.36534 0.79272 0.0
C1483 C 0.03002 0.35031 0.79956 0.0
O1484 O 0.02236 0.26765 0.78039 0.0
C1485 C 0.0922 0.32087 0.76353 0.0
O1486 O 0.0901 0.33246 0.78706 0.0
H1487 H 0.99823 0.31305 0.75584 0.0
H1488 H 0.04614 0.35558 0.8142 0.0
N1489 N 0.07049 0.28931 0.81482 0.0
N1490 N 0.10122 0.2675 0.83997 0.0
C1491 C 0.08907 0.27023 0.81533 0.0
C1492 C 0.07089 0.29924 0.84003 0.0
C1493 C 0.08982 0.28568 0.85567 0.0
C1494 C 1.00789 0.26815 0.8007 0.0
O1495 O 1.01372 0.28593 0.81984 0.0
H1496 H 0.09315 0.25819 0.79795 0.0
H1497 H 0.05818 0.31493 0.84662 0.0
O1498 O 0.07456 0.30308 0.75576 0.0
H1499 H 1.00307 0.38462 0.80117 0.0
H1500 H 0.0949 0.28907 0.87685 0.0
Cu1501 Cu 0.79093 0.0403 0.76795 0.0
N1502 N 0.79855 0.05983 0.79979 0.0
N1503 N 0.81764 0.09226 0.826 0.0
C1504 C 0.81851 0.07836 0.8028 0.0
C1505 C 0.79639 0.08194 0.83824 0.0
C1506 C 0.78469 0.06178 0.82205 0.0
O1507 O 0.78891 0.06647 0.73897 0.0
C1508 C 0.81583 0.99661 0.78671 0.0
O1509 O 0.79886 1.00202 0.80502 0.0
H1510 H 0.8324 0.08267 0.78744 0.0
H1511 H 0.76681 0.05015 0.82578 0.0
N1512 N 0.75809 0.02157 0.76638 0.0
N1513 N 0.72913 0.98873 0.7526 0.0
C1514 C 0.75411 0.99922 0.75135 0.0
C1515 C 0.73465 0.02578 0.7775 0.0
C1516 C 0.71668 1.00548 0.76899 0.0
C1517 C 0.77368 0.08573 0.74426 0.0
O1518 O 0.76142 0.08529 0.76684 0.0
H1519 H 0.76937 0.99117 0.73929 0.0
H1520 H 0.73079 0.04243 0.79062 0.0
O1521 O 0.81733 1.01224 0.76669 0.0
H1522 H 0.78944 0.08891 0.85718 0.0
H1523 H 0.69618 1.00319 0.7746 0.0
Cu1524 Cu 0.27316 0.77185 0.5178 0.0
N1525 N 0.29808 0.77465 0.54707 0.0
N1526 N 0.31761 0.79266 0.58473 0.0
C1527 C 0.3007 0.7965 0.56309 0.0
C1528 C 0.32596 0.76724 0.58215 0.0
C1529 C 0.31377 0.75613 0.55891 0.0
O1530 O 0.23921 0.76667 0.53484 0.0
C1531 C 0.30199 0.80832 0.49043 0.0
O1532 O 0.32077 0.79407 0.50256 0.0
H1533 H 0.2894 0.81447 0.55945 0.0
H1534 H 0.31553 0.73579 0.55168 0.0
N1535 N 0.27831 0.74319 0.49437 0.0
N1536 N 0.26889 0.71617 0.45887 0.0
C1537 C 0.2596 0.73478 0.4755 0.0
C1538 C 0.30048 0.72964 0.48945 0.0
C1539 C 0.2947 0.71288 0.4675 0.0
C1540 C 0.23331 0.74261 0.54124 0.0
O1541 O 0.24792 0.72314 0.53271 0.0
H1542 H 0.23982 0.74313 0.47335 0.0
H1543 H 0.3197 0.73247 0.50034 0.0
O1544 O 0.27763 0.80331 0.49538 0.0
H1545 H 0.33963 0.75723 0.59616 0.0
H1546 H 0.30851 0.69969 0.45837 0.0
Cu1547 Cu 0.78178 0.78231 0.5142 0.0
N1548 N 0.81129 0.78118 0.49271 0.0
N1549 N 0.83481 0.7657 0.45921 0.0
C1550 C 0.81231 0.76302 0.4727 0.0
C1551 C 0.84867 0.78644 0.47145 0.0
C1552 C 0.83408 0.79599 0.4921 0.0
O1553 O 0.751 0.77943 0.4881 0.0
C1554 C 0.80851 0.76398 0.55819 0.0
O1555 O 0.8211 0.78637 0.55228 0.0
H1556 H 0.7967 0.74796 0.46834 0.0
H1557 H 0.8397 0.81255 0.50553 0.0
N1558 N 0.77655 0.81423 0.53298 0.0
N1559 N 0.75848 0.83946 0.5641 0.0
C1560 C 0.75683 0.81623 0.5501 0.0
C1561 C 0.7911 0.83723 0.53593 0.0
C1562 C 0.78004 0.85281 0.5553 0.0
C1563 C 0.75251 0.79875 0.47148 0.0
O1564 O 0.77229 0.81645 0.47503 0.0
H1565 H 0.74247 0.80017 0.55332 0.0
H1566 H 0.80901 0.8419 0.52561 0.0
O1567 O 0.78864 0.75589 0.54262 0.0
H1568 H 0.86776 0.79446 0.46567 0.0
H1569 H 0.78763 0.87212 0.56279 0.0
Cu1570 Cu 0.78077 0.27608 0.52512 0.0
N1571 N 0.78294 0.24909 0.49925 0.0
N1572 N 0.77 0.22621 0.46177 0.0
C1573 C 0.76282 0.24353 0.48081 0.0
C1574 C 0.79581 0.22061 0.46862 0.0
C1575 C 0.80379 0.23486 0.49174 0.0
O1576 O 0.783 0.30856 0.50346 0.0
C1577 C 0.74792 0.24388 0.55315 0.0
O1578 O 0.76494 0.22693 0.54394 0.0
H1579 H 0.74374 0.25332 0.48061 0.0
H1580 H 0.82362 0.23569 0.50162 0.0
N1581 N 0.8087 0.2777 0.55171 0.0
N1582 N 0.83225 0.29463 0.58772 0.0
C1583 C 0.81287 0.29892 0.56838 0.0
C1584 C 0.82593 0.25909 0.56077 0.0
C1585 C 0.84057 0.26954 0.58301 0.0
C1586 C 0.80684 0.3141 0.49695 0.0
O1587 O 0.82655 0.29999 0.50751 0.0
H1588 H 0.80097 0.31674 0.56692 0.0
H1589 H 0.82716 0.23913 0.55241 0.0
O1590 O 0.74941 0.26832 0.54575 0.0
H1591 H 0.80827 0.20768 0.45741 0.0
H1592 H 0.85586 0.25927 0.59495 0.0
Cu1593 Cu 0.29412 0.29098 0.53873 0.0
N1594 N 0.28948 0.32324 0.55714 0.0
N1595 N 0.27183 0.3501 0.58721 0.0
C1596 C 0.27009 0.32613 0.57449 0.0
C1597 C 0.29318 0.36293 0.57734 0.0
C1598 C 0.30399 0.34633 0.55865 0.0
O1599 O 0.30074 0.26429 0.5668 0.0
C1600 C 0.26381 0.3065 0.49624 0.0
O1601 O 0.2831 0.32479 0.49927 0.0
H1602 H 0.25568 0.31035 0.57854 0.0
H1603 H 0.32153 0.35051 0.54756 0.0
N1604 N 0.32322 0.28972 0.51672 0.0
N1605 N 0.34525 0.27473 0.48195 0.0
C1606 C 0.32266 0.273 0.49539 0.0
C1607 C 0.34722 0.30256 0.51709 0.0
C1608 C 0.36094 0.29324 0.49564 0.0
C1609 C 0.32015 0.272 0.58309 0.0
O1610 O 0.33265 0.29478 0.57838 0.0
H1611 H 0.30592 0.25945 0.49012 0.0
H1612 H 0.35432 0.31749 0.53184 0.0
O1613 O 0.26303 0.28744 0.51318 0.0
H1614 H 0.30063 0.38274 0.58339 0.0
H1615 H 0.38073 0.29979 0.49041 0.0
Cu1616 Cu 0.79056 0.53925 0.7739 0.0
N1617 N 0.82144 0.56002 0.76825 0.0
N1618 N 0.84581 0.59189 0.74897 0.0
C1619 C 0.82158 0.57961 0.74984 0.0
C1620 C 0.86166 0.57944 0.76764 0.0
C1621 C 0.84652 0.55982 0.77961 0.0
O1622 O 0.76238 0.56539 0.77788 0.0
C1623 C 0.80861 0.49667 0.74858 0.0
O1624 O 0.82689 0.50242 0.76788 0.0
H1625 H 0.80414 0.5845 0.7371 0.0
H1626 H 0.85332 0.54642 0.7954 0.0
N1627 N 0.79081 0.51883 0.80523 0.0
N1628 N 0.77695 0.48539 0.83114 0.0
C1629 C 0.77324 0.49826 0.80758 0.0
C1630 C 0.80632 0.51927 0.82821 0.0
C1631 C 0.79774 0.49865 0.84431 0.0
C1632 C 0.76974 0.58225 0.79649 0.0
O1633 O 0.79299 0.57905 0.8096 0.0
H1634 H 0.75791 0.49297 0.79209 0.0
H1635 H 0.82277 0.53333 0.83284 0.0
O1636 O 0.78839 0.51179 0.74549 0.0
H1637 H 0.88256 0.58439 0.77259 0.0
H1638 H 0.80652 0.49353 0.86391 0.0
Cu1639 Cu 0.29713 0.53497 0.76418 0.0
N1640 N 0.3228 0.5084 0.76486 0.0
N1641 N 0.34355 0.4716 0.77927 0.0
C1642 C 0.32278 0.48788 0.78217 0.0
C1643 C 0.35727 0.48232 0.75925 0.0
C1644 C 0.34427 0.50498 0.75023 0.0
O1645 O 0.26351 0.51481 0.76734 0.0
C1646 C 0.33103 0.57086 0.79103 0.0
O1647 O 0.34605 0.56116 0.77271 0.0
H1648 H 0.30801 0.48528 0.79702 0.0
H1649 H 0.3502 0.51815 0.73438 0.0
N1650 N 0.29534 0.55414 0.73219 0.0
N1651 N 0.28051 0.58629 0.70447 0.0
C1652 C 0.28436 0.57843 0.73022 0.0
C1653 C 0.29923 0.54637 0.70686 0.0
C1654 C 0.29014 0.56623 0.68967 0.0
C1655 C 0.2434 0.51692 0.75061 0.0
O1656 O 0.24153 0.53833 0.73557 0.0
H1657 H 0.27708 0.58887 0.74735 0.0
H1658 H 0.3066 0.52705 0.70121 0.0
O1659 O 0.30721 0.56142 0.79227 0.0
H1660 H 0.37525 0.47426 0.75158 0.0
H1661 H 0.28959 0.56532 0.66795 0.0
Cu1662 Cu 0.28399 0.5184 0.27208 0.0
N1663 N 0.28016 0.50147 0.30512 0.0
N1664 N 0.26382 0.47116 0.33319 0.0
C1665 C 0.26209 0.48147 0.3082 0.0
C1666 C 0.28381 0.48555 0.34643 0.0
C1667 C 0.29389 0.50421 0.32905 0.0
O1668 O 0.29033 0.48941 0.24662 0.0
C1669 C 0.25408 0.55942 0.28556 0.0
O1670 O 0.27362 0.5589 0.30432 0.0
H1671 H 0.24806 0.47462 0.29213 0.0
H1672 H 0.31032 0.51836 0.33338 0.0
N1673 N 0.31325 0.54224 0.27019 0.0
N1674 N 0.33679 0.576 0.25295 0.0
C1675 C 0.31317 0.56239 0.25238 0.0
C1676 C 0.33786 0.54303 0.28266 0.0
C1677 C 0.35248 0.56387 0.27199 0.0
C1678 C 0.3095 0.47473 0.25538 0.0
O1679 O 0.32188 0.48089 0.27865 0.0
H1680 H 0.29622 0.56641 0.23861 0.0
H1681 H 0.34486 0.52921 0.29797 0.0
O1682 O 0.25304 0.54148 0.26705 0.0
H1683 H 0.29121 0.48241 0.36697 0.0
H1684 H 0.37304 0.56959 0.27777 0.0
Cu1685 Cu 0.78123 0.52722 0.26928 0.0
N1686 N 0.80658 0.50035 0.27069 0.0
N1687 N 0.82711 0.46409 0.28686 0.0
C1688 C 0.80677 0.481 0.28933 0.0
C1689 C 0.8403 0.47317 0.26573 0.0
C1690 C 0.82743 0.49551 0.25563 0.0
O1691 O 0.74734 0.50689 0.26959 0.0
C1692 C 0.81482 0.56134 0.29855 0.0
O1693 O 0.83048 0.55076 0.28129 0.0
H1694 H 0.7925 0.47977 0.3048 0.0
H1695 H 0.83307 0.50752 0.23879 0.0
N1696 N 0.7812 0.54796 0.2383 0.0
N1697 N 0.76856 0.58267 0.21276 0.0
C1698 C 0.77128 0.57275 0.23785 0.0
C1699 C 0.78546 0.54184 0.21261 0.0
C1700 C 0.7777 0.56329 0.19675 0.0
C1701 C 0.72878 0.50913 0.25115 0.0
O1702 O 0.72745 0.5314 0.23735 0.0
H1703 H 0.76401 0.58224 0.25551 0.0
H1704 H 0.79219 0.52267 0.20572 0.0
O1705 O 0.79052 0.55288 0.29844 0.0
H1706 H 0.85785 0.46426 0.25803 0.0
H1707 H 0.77775 0.56399 0.17507 0.0
Cu1708 Cu 0.54921 0.27677 0.78759 0.0
N1709 N 0.52516 0.27258 0.81478 0.0
N1710 N 0.48821 0.28183 0.83597 0.0
C1711 C 0.50248 0.28653 0.81431 0.0
C1712 C 0.50252 0.2641 0.85084 0.0
C1713 C 0.52529 0.25824 0.83759 0.0
O1714 O 0.52531 0.27575 0.755 0.0
C1715 C 0.58341 0.30765 0.81965 0.0
O1716 O 0.57759 0.28731 0.83498 0.0
H1717 H 0.49699 0.30057 0.7986 0.0
H1718 H 0.54099 0.24502 0.84447 0.0
N1719 N 0.57359 0.24939 0.78385 0.0
N1720 N 0.60538 0.22698 0.7641 0.0
C1721 C 0.59024 0.24898 0.76362 0.0
C1722 C 0.57836 0.22691 0.79789 0.0
C1723 C 0.59797 0.21299 0.78568 0.0
C1724 C 0.51543 0.25216 0.75046 0.0
O1725 O 0.52352 0.23266 0.76625 0.0
H1726 H 0.59064 0.26432 0.7484 0.0
H1727 H 0.56812 0.22083 0.81541 0.0
O1728 O 0.57198 0.3086 0.79608 0.0
H1729 H 0.49701 0.25603 0.86989 0.0
H1730 H 0.60616 0.1941 0.79226 0.0
Cu1731 Cu 0.53443 0.79023 0.76746 0.0
N1732 N 0.55675 0.7837 0.79795 0.0
N1733 N 0.58844 0.76298 0.82284 0.0
C1734 C 0.57588 0.76518 0.79833 0.0
C1735 C 0.57673 0.7809 0.83858 0.0
C1736 C 0.55719 0.79377 0.82311 0.0
O1737 O 0.55804 0.79218 0.73749 0.0
C1738 C 0.49122 0.76619 0.78735 0.0
O1739 O 0.49716 0.78621 0.80408 0.0
H1740 H 0.58004 0.7531 0.781 0.0
H1741 H 0.54407 0.80907 0.82977 0.0
N1742 N 0.51629 0.8226 0.76799 0.0
N1743 N 0.48197 0.84952 0.75854 0.0
C1744 C 0.49229 0.82518 0.75483 0.0
C1745 C 0.5217 0.84636 0.7804 0.0
C1746 C 0.5005 0.86315 0.77443 0.0
C1747 C 0.57763 0.80865 0.74273 0.0
O1748 O 0.57875 0.8219 0.76566 0.0
H1749 H 0.48252 0.80925 0.74275 0.0
H1750 H 0.5395 0.85101 0.79311 0.0
O1751 O 0.50606 0.76249 0.76768 0.0
H1752 H 0.582 0.78455 0.85969 0.0
H1753 H 0.4986 0.88347 0.78171 0.0
Cu1754 Cu 0.52024 0.77453 0.28002 0.0
N1755 N 0.49526 0.7737 0.3066 0.0
N1756 N 0.46128 0.78844 0.32944 0.0
C1757 C 0.47506 0.79103 0.30712 0.0
C1758 C 0.47315 0.7685 0.34348 0.0
C1759 C 0.49404 0.75931 0.32926 0.0
O1760 O 0.49841 0.77132 0.24621 0.0
C1761 C 0.55386 0.80674 0.31085 0.0
O1762 O 0.54629 0.78814 0.32747 0.0
H1763 H 0.47132 0.8061 0.29193 0.0
H1764 H 0.50795 0.74406 0.3356 0.0
N1765 N 0.5447 0.74665 0.28034 0.0
N1766 N 0.57994 0.72483 0.26626 0.0
C1767 C 0.56519 0.74705 0.26404 0.0
C1768 C 0.54648 0.7233 0.29361 0.0
C1769 C 0.5682 0.70971 0.28484 0.0
C1770 C 0.48849 0.74764 0.24274 0.0
O1771 O 0.49448 0.72943 0.26084 0.0
H1772 H 0.56861 0.76316 0.25013 0.0
H1773 H 0.53271 0.71628 0.30807 0.0
O1774 O 0.54356 0.80621 0.28676 0.0
H1775 H 0.46739 0.76134 0.36281 0.0
H1776 H 0.57473 0.69023 0.29156 0.0
Cu1777 Cu 0.53144 0.27292 0.26337 0.0
N1778 N 0.50863 0.24274 0.26498 0.0
N1779 N 0.47467 0.21928 0.2814 0.0
C1780 C 0.48932 0.2423 0.28263 0.0
C1781 C 0.48535 0.20436 0.26216 0.0
C1782 C 0.5063 0.21901 0.2519 0.0
O1783 O 0.50653 0.3026 0.26372 0.0
C1784 C 0.57377 0.24835 0.28571 0.0
O1785 O 0.5664 0.23414 0.26412 0.0
H1786 H 0.48639 0.25865 0.29647 0.0
H1787 H 0.51885 0.21278 0.23616 0.0
N1788 N 0.55071 0.27776 0.23261 0.0
N1789 N 0.58359 0.29619 0.20975 0.0
C1790 C 0.57043 0.29653 0.23258 0.0
C1791 C 0.55109 0.26492 0.20879 0.0
C1792 C 0.57135 0.2764 0.19453 0.0
C1793 C 0.48974 0.29991 0.24346 0.0
O1794 O 0.49317 0.28053 0.22608 0.0
H1795 H 0.57504 0.31012 0.24932 0.0
H1796 H 0.53804 0.24815 0.2025 0.0
O1797 O 0.55968 0.26833 0.29176 0.0
H1798 H 0.47837 0.18449 0.25577 0.0
H1799 H 0.57705 0.27016 0.17486 0.0
loop_
_geom_bond_atom_site_label_1
_geom_bond_atom_site_label_2
_geom_bond_distance
_geom_bond_site_symmetry_2
_ccdc_geom_bond_type
C0 C1 1.386 . S
C0 C2 1.397 . S
C0 H24 0.931 . S
C1 C0 1.386 . S
C1 C5 1.397 . S
C2 C0 1.397 . S
C2 C3 1.384 . S
C2 H25 0.930 . S
C3 C2 1.384 . S
C3 C4 1.377 . S
C3 C6 1.481 . S
C4 C3 1.377 . S
C4 C5 1.389 . S
C4 H26 0.929 . S
C5 C1 1.397 . S
C5 C4 1.389 . S
C5 H27 0.931 . S
C6 C3 1.481 . S
C6 C7 1.387 . S
C6 C11 1.390 . S
C7 C6 1.387 . S
C7 C8 1.401 . S
C7 H28 0.930 . S
C8 C7 1.401 . S
C8 C9 1.376 . S
C8 C17 1.511 . S
C9 C8 1.376 . S
C9 C10 1.392 . S
C9 H30 0.931 . S
C10 C9 1.392 . S
C10 C11 1.361 . S
C10 C12 1.500 . S
C11 C6 1.390 . S
C11 C10 1.361 . S
C11 H29 0.931 . S
C12 C10 1.500 . S
C12 C13 1.371 . S
C12 C14 1.365 . S
C13 C12 1.371 . S
C13 C23 1.386 . S
C13 H31 0.931 . S
C14 C12 1.365 . S
C14 C15 1.409 . S
C14 H32 0.929 . S
C15 C14 1.409 . S
C15 C16 1.380 . S
C15 H33 0.930 . S
C16 C15 1.380 . S
C16 C23 1.357 . S
C17 C8 1.511 . S
C17 C18 1.341 . S
C17 C19 1.371 . S
C18 C17 1.341 . S
C18 C22 1.394 . S
C18 H34 0.930 . S
C19 C17 1.371 . S
C19 C20 1.392 . S
C19 H35 0.931 . S
C20 C19 1.392 . S
C20 C21 1.331 . S
C20 H38 0.932 . S
C21 C20 1.331 . S
C21 C22 1.336 . S
C22 C18 1.394 . S
C22 C21 1.336 . S
C22 H37 0.929 . S
C23 C13 1.386 . S
C23 C16 1.357 . S
C23 H36 0.928 . S
H24 C0 0.931 . S
H25 C2 0.930 . S
H26 C4 0.929 . S
H27 C5 0.931 . S
H28 C7 0.930 . S
H29 C11 0.931 . S
H30 C9 0.931 . S
H31 C13 0.931 . S
H32 C14 0.929 . S
H33 C15 0.930 . S
H34 C18 0.930 . S
H35 C19 0.931 . S
H36 C23 0.928 . S
H37 C22 0.929 . S
H38 C20 0.932 . S
C39 C40 1.386 . S
C39 C41 1.397 . S
C39 H63 0.931 . S
C40 C39 1.386 . S
C40 C44 1.397 . S
C41 C39 1.397 . S
C41 C42 1.384 . S
C41 H64 0.930 . S
C42 C41 1.384 . S
C42 C43 1.377 . S
C42 C45 1.481 . S
C43 C42 1.377 . S
C43 C44 1.389 . S
C43 H65 0.929 . S
C44 C40 1.397 . S
C44 C43 1.389 . S
C44 H66 0.931 . S
C45 C42 1.481 . S
C45 C46 1.387 . S
C45 C50 1.390 . S
C46 C45 1.387 . S
C46 C47 1.401 . S
C46 H67 0.930 . S
C47 C46 1.401 . S
C47 C48 1.376 . S
C47 C56 1.511 . S
C48 C47 1.376 . S
C48 C49 1.392 . S
C48 H69 0.931 . S
C49 C48 1.392 . S
C49 C50 1.361 . S
C49 C51 1.500 . S
C50 C45 1.390 . S
C50 C49 1.361 . S
C50 H68 0.931 . S
C51 C49 1.500 . S
C51 C52 1.371 . S
C51 C53 1.365 . S
C52 C51 1.371 . S
C52 C62 1.386 . S
C52 H70 0.931 . S
C53 C51 1.365 . S
C53 C54 1.409 . S
C53 H71 0.929 . S
C54 C53 1.409 . S
C54 C55 1.380 . S
C54 H72 0.930 . S
C55 C54 1.380 . S
C55 C62 1.357 . S
C56 C47 1.511 . S
C56 C57 1.341 . S
C56 C58 1.371 . S
C57 C56 1.341 . S
C57 C61 1.394 . S
C57 H73 0.930 . S
C58 C56 1.371 . S
C58 C59 1.392 . S
C58 H74 0.931 . S
C59 C58 1.392 . S
C59 C60 1.331 . S
C59 H77 0.932 . S
C60 C59 1.331 . S
C60 C61 1.336 . S
C61 C57 1.394 . S
C61 C60 1.336 . S
C61 H76 0.929 . S
C62 C52 1.386 . S
C62 C55 1.357 . S
C62 H75 0.928 . S
H63 C39 0.931 . S
H64 C41 0.930 . S
H65 C43 0.929 . S
H66 C44 0.931 . S
H67 C46 0.930 . S
H68 C50 0.931 . S
H69 C48 0.931 . S
H70 C52 0.931 . S
H71 C53 0.929 . S
H72 C54 0.930 . S
H73 C57 0.930 . S
H74 C58 0.931 . S
H75 C62 0.928 . S
H76 C61 0.929 . S
H77 C59 0.932 . S
C78 C79 1.386 . S
C78 C80 1.397 . S
C78 H102 0.931 . S
C79 C78 1.386 . S
C79 C83 1.397 . S
C80 C78 1.397 . S
C80 C81 1.384 . S
C80 H103 0.930 . S
C81 C80 1.384 . S
C81 C82 1.377 . S
C81 C84 1.481 . S
C82 C81 1.377 . S
C82 C83 1.389 . S
C82 H104 0.929 . S
C83 C79 1.397 . S
C83 C82 1.389 . S
C83 H105 0.931 . S
C84 C81 1.481 . S
C84 C85 1.387 . S
C84 C89 1.390 . S
C85 C84 1.387 . S
C85 C86 1.401 . S
C85 H106 0.930 . S
C86 C85 1.401 . S
C86 C87 1.376 . S
C86 C95 1.511 . S
C87 C86 1.376 . S
C87 C88 1.392 . S
C87 H108 0.931 . S
C88 C87 1.392 . S
C88 C89 1.361 . S
C88 C90 1.500 . S
C89 C84 1.390 . S
C89 C88 1.361 . S
C89 H107 0.931 . S
C90 C88 1.500 . S
C90 C91 1.371 . S
C90 C92 1.365 . S
C91 C90 1.371 . S
C91 C101 1.386 . S
C91 H109 0.931 . S
C92 C90 1.365 . S
C92 C93 1.409 . S
C92 H110 0.929 . S
C93 C92 1.409 . S
C93 C94 1.380 . S
C93 H111 0.930 . S
C94 C93 1.380 . S
C94 C101 1.357 . S
C95 C86 1.511 . S
C95 C96 1.341 . S
C95 C97 1.371 . S
C96 C95 1.341 . S
C96 C100 1.394 . S
C96 H112 0.930 . S
C97 C95 1.371 . S
C97 C98 1.392 . S
C97 H113 0.931 . S
C98 C97 1.392 . S
C98 C99 1.331 . S
C98 H116 0.932 . S
C99 C98 1.331 . S
C99 C100 1.336 . S
C100 C96 1.394 . S
C100 C99 1.336 . S
C100 H115 0.929 . S
C101 C91 1.386 . S
C101 C94 1.357 . S
C101 H114 0.928 . S
H102 C78 0.931 . S
H103 C80 0.930 . S
H104 C82 0.929 . S
H105 C83 0.931 . S
H106 C85 0.930 . S
H107 C89 0.931 . S
H108 C87 0.931 . S
H109 C91 0.931 . S
H110 C92 0.929 . S
H111 C93 0.930 . S
H112 C96 0.930 . S
H113 C97 0.931 . S
H114 C101 0.928 . S
H115 C100 0.929 . S
H116 C98 0.932 . S
C117 C118 1.386 . S
C117 C119 1.397 . S
C117 H141 0.931 . S
C118 C117 1.386 . S
C118 C122 1.397 . S
C119 C117 1.397 . S
C119 C120 1.384 . S
C119 H142 0.930 . S
C120 C119 1.384 . S
C120 C121 1.377 . S
C120 C123 1.481 . S
C121 C120 1.377 . S
C121 C122 1.389 . S
C121 H143 0.929 . S
C122 C118 1.397 . S
C122 C121 1.389 . S
C122 H144 0.931 . S
C123 C120 1.481 . S
C123 C124 1.387 . S
C123 C128 1.390 . S
C124 C123 1.387 . S
C124 C125 1.401 . S
C124 H145 0.930 . S
C125 C124 1.401 . S
C125 C126 1.376 . S
C125 C134 1.511 . S
C126 C125 1.376 . S
C126 C127 1.392 . S
C126 H147 0.931 . S
C127 C126 1.392 . S
C127 C128 1.361 . S
C127 C129 1.500 . S
C128 C123 1.390 . S
C128 C127 1.361 . S
C128 H146 0.931 . S
C129 C127 1.500 . S
C129 C130 1.371 . S
C129 C131 1.365 . S
C130 C129 1.371 . S
C130 C140 1.386 . S
C130 H148 0.931 . S
C131 C129 1.365 . S
C131 C132 1.409 . S
C131 H149 0.929 . S
C132 C131 1.409 . S
C132 C133 1.380 . S
C132 H150 0.930 . S
C133 C132 1.380 . S
C133 C140 1.357 . S
C134 C125 1.511 . S
C134 C135 1.341 . S
C134 C136 1.371 . S
C135 C134 1.341 . S
C135 C139 1.394 . S
C135 H151 0.930 . S
C136 C134 1.371 . S
C136 C137 1.392 . S
C136 H152 0.931 . S
C137 C136 1.392 . S
C137 C138 1.331 . S
C137 H155 0.932 . S
C138 C137 1.331 . S
C138 C139 1.336 . S
C139 C135 1.394 . S
C139 C138 1.336 . S
C139 H154 0.929 . S
C140 C130 1.386 . S
C140 C133 1.357 . S
C140 H153 0.928 . S
H141 C117 0.931 . S
H142 C119 0.930 . S
H143 C121 0.929 . S
H144 C122 0.931 . S
H145 C124 0.930 . S
H146 C128 0.931 . S
H147 C126 0.931 . S
H148 C130 0.931 . S
H149 C131 0.929 . S
H150 C132 0.930 . S
H151 C135 0.930 . S
H152 C136 0.931 . S
H153 C140 0.928 . S
H154 C139 0.929 . S
H155 C137 0.932 . S
C156 C157 1.386 . S
C156 C158 1.397 . S
C156 H180 0.931 . S
C157 C156 1.386 . S
C157 C161 1.397 . S
C158 C156 1.397 . S
C158 C159 1.384 . S
C158 H181 0.930 . S
C159 C158 1.384 . S
C159 C160 1.377 . S
C159 C162 1.481 . S
C160 C159 1.377 . S
C160 C161 1.389 . S
C160 H182 0.929 . S
C161 C157 1.397 . S
C161 C160 1.389 . S
C161 H183 0.931 . S
C162 C159 1.481 . S
C162 C163 1.387 . S
C162 C167 1.390 . S
C163 C162 1.387 . S
C163 C164 1.401 . S
C163 H184 0.930 . S
C164 C163 1.401 . S
C164 C165 1.376 . S
C164 C173 1.511 . S
C165 C164 1.376 . S
C165 C166 1.392 . S
C165 H186 0.931 . S
C166 C165 1.392 . S
C166 C167 1.361 . S
C166 C168 1.500 . S
C167 C162 1.390 . S
C167 C166 1.361 . S
C167 H185 0.931 . S
C168 C166 1.500 . S
C168 C169 1.371 . S
C168 C170 1.365 . S
C169 C168 1.371 . S
C169 C179 1.386 . S
C169 H187 0.931 . S
C170 C168 1.365 . S
C170 C171 1.409 . S
C170 H188 0.929 . S
C171 C170 1.409 . S
C171 C172 1.380 . S
C171 H189 0.930 . S
C172 C171 1.380 . S
C172 C179 1.357 . S
C173 C164 1.511 . S
C173 C174 1.341 . S
C173 C175 1.371 . S
C174 C173 1.341 . S
C174 C178 1.394 . S
C174 H190 0.930 . S
C175 C173 1.371 . S
C175 C176 1.392 . S
C175 H191 0.931 . S
C176 C175 1.392 . S
C176 C177 1.331 . S
C176 H194 0.932 . S
C177 C176 1.331 . S
C177 C178 1.336 . S
C178 C174 1.394 . S
C178 C177 1.336 . S
C178 H193 0.929 . S
C179 C169 1.386 . S
C179 C172 1.357 . S
C179 H192 0.928 . S
H180 C156 0.931 . S
H181 C158 0.930 . S
H182 C160 0.929 . S
H183 C161 0.931 . S
H184 C163 0.930 . S
H185 C167 0.931 . S
H186 C165 0.931 . S
H187 C169 0.931 . S
H188 C170 0.929 . S
H189 C171 0.930 . S
H190 C174 0.930 . S
H191 C175 0.931 . S
H192 C179 0.928 . S
H193 C178 0.929 . S
H194 C176 0.932 . S
C195 C196 1.386 . S
C195 C197 1.397 . S
C195 H219 0.931 . S
C196 C195 1.386 . S
C196 C200 1.397 . S
C197 C195 1.397 . S
C197 C198 1.384 . S
C197 H220 0.930 . S
C198 C197 1.384 . S
C198 C199 1.377 . S
C198 C201 1.481 . S
C199 C198 1.377 . S
C199 C200 1.389 . S
C199 H221 0.929 . S
C200 C196 1.397 . S
C200 C199 1.389 . S
C200 H222 0.931 . S
C201 C198 1.481 . S
C201 C202 1.387 . S
C201 C206 1.390 . S
C202 C201 1.387 . S
C202 C203 1.401 . S
C202 H223 0.930 . S
C203 C202 1.401 . S
C203 C204 1.376 . S
C203 C212 1.511 . S
C204 C203 1.376 . S
C204 C205 1.392 . S
C204 H225 0.931 . S
C205 C204 1.392 . S
C205 C206 1.361 . S
C205 C207 1.500 . S
C206 C201 1.390 . S
C206 C205 1.361 . S
C206 H224 0.931 . S
C207 C205 1.500 . S
C207 C208 1.371 . S
C207 C209 1.365 . S
C208 C207 1.371 . S
C208 C218 1.386 . S
C208 H226 0.931 . S
C209 C207 1.365 . S
C209 C210 1.409 . S
C209 H227 0.929 . S
C210 C209 1.409 . S
C210 C211 1.380 . S
C210 H228 0.930 . S
C211 C210 1.380 . S
C211 C218 1.357 . S
C212 C203 1.511 . S
C212 C213 1.341 . S
C212 C214 1.371 . S
C213 C212 1.341 . S
C213 C217 1.394 . S
C213 H229 0.930 . S
C214 C212 1.371 . S
C214 C215 1.392 . S
C214 H230 0.931 . S
C215 C214 1.392 . S
C215 C216 1.331 . S
C215 H233 0.932 . S
C216 C215 1.331 . S
C216 C217 1.336 . S
C217 C213 1.394 . S
C217 C216 1.336 . S
C217 H232 0.929 . S
C218 C208 1.386 . S
C218 C211 1.357 . S
C218 H231 0.928 . S
H219 C195 0.931 . S
H220 C197 0.930 . S
H221 C199 0.929 . S
H222 C200 0.931 . S
H223 C202 0.930 . S
H224 C206 0.931 . S
H225 C204 0.931 . S
H226 C208 0.931 . S
H227 C209 0.929 . S
H228 C210 0.930 . S
H229 C213 0.930 . S
H230 C214 0.931 . S
H231 C218 0.928 . S
H232 C217 0.929 . S
H233 C215 0.932 . S
C234 C235 1.386 . S
C234 C236 1.397 . S
C234 H258 0.931 . S
C235 C234 1.386 . S
C235 C239 1.397 . S
C236 C234 1.397 . S
C236 C237 1.384 . S
C236 H259 0.930 . S
C237 C236 1.384 . S
C237 C238 1.377 . S
C237 C240 1.481 . S
C238 C237 1.377 . S
C238 C239 1.389 . S
C238 H260 0.929 . S
C239 C235 1.397 . S
C239 C238 1.389 . S
C239 H261 0.931 . S
C240 C237 1.481 . S
C240 C241 1.387 . S
C240 C245 1.390 . S
C241 C240 1.387 . S
C241 C242 1.401 . S
C241 H262 0.930 . S
C242 C241 1.401 . S
C242 C243 1.376 . S
C242 C251 1.511 . S
C243 C242 1.376 . S
C243 C244 1.392 . S
C243 H264 0.931 . S
C244 C243 1.392 . S
C244 C245 1.361 . S
C244 C246 1.500 . S
C245 C240 1.390 . S
C245 C244 1.361 . S
C245 H263 0.931 . S
C246 C244 1.500 . S
C246 C247 1.371 . S
C246 C248 1.365 . S
C247 C246 1.371 . S
C247 C257 1.386 . S
C247 H265 0.931 . S
C248 C246 1.365 . S
C248 C249 1.409 . S
C248 H266 0.929 . S
C249 C248 1.409 . S
C249 C250 1.380 . S
C249 H267 0.930 . S
C250 C249 1.380 . S
C250 C257 1.357 . S
C251 C242 1.511 . S
C251 C252 1.341 . S
C251 C253 1.371 . S
C252 C251 1.341 . S
C252 C256 1.394 . S
C252 H268 0.930 . S
C253 C251 1.371 . S
C253 C254 1.392 . S
C253 H269 0.931 . S
C254 C253 1.392 . S
C254 C255 1.331 . S
C254 H272 0.932 . S
C255 C254 1.331 . S
C255 C256 1.336 . S
C256 C252 1.394 . S
C256 C255 1.336 . S
C256 H271 0.929 . S
C257 C247 1.386 . S
C257 C250 1.357 . S
C257 H270 0.928 . S
H258 C234 0.931 . S
H259 C236 0.930 . S
H260 C238 0.929 . S
H261 C239 0.931 . S
H262 C241 0.930 . S
H263 C245 0.931 . S
H264 C243 0.931 . S
H265 C247 0.931 . S
H266 C248 0.929 . S
H267 C249 0.930 . S
H268 C252 0.930 . S
H269 C253 0.931 . S
H270 C257 0.928 . S
H271 C256 0.929 . S
H272 C254 0.932 . S
C273 C274 1.386 . S
C273 C275 1.397 . S
C273 H297 0.931 . S
C274 C273 1.386 . S
C274 C278 1.397 . S
C275 C273 1.397 . S
C275 C276 1.384 . S
C275 H298 0.930 . S
C276 C275 1.384 . S
C276 C277 1.377 . S
C276 C279 1.481 . S
C277 C276 1.377 . S
C277 C278 1.389 . S
C277 H299 0.929 . S
C278 C274 1.397 . S
C278 C277 1.389 . S
C278 H300 0.931 . S
C279 C276 1.481 . S
C279 C280 1.387 . S
C279 C284 1.390 . S
C280 C279 1.387 . S
C280 C281 1.401 . S
C280 H301 0.930 . S
C281 C280 1.401 . S
C281 C282 1.376 . S
C281 C290 1.511 . S
C282 C281 1.376 . S
C282 C283 1.392 . S
C282 H303 0.931 . S
C283 C282 1.392 . S
C283 C284 1.361 . S
C283 C285 1.500 . S
C284 C279 1.390 . S
C284 C283 1.361 . S
C284 H302 0.931 . S
C285 C283 1.500 . S
C285 C286 1.371 . S
C285 C287 1.365 . S
C286 C285 1.371 . S
C286 C296 1.386 . S
C286 H304 0.931 . S
C287 C285 1.365 . S
C287 C288 1.409 . S
C287 H305 0.929 . S
C288 C287 1.409 . S
C288 C289 1.380 . S
C288 H306 0.930 . S
C289 C288 1.380 . S
C289 C296 1.357 . S
C290 C281 1.511 . S
C290 C291 1.341 . S
C290 C292 1.371 . S
C291 C290 1.341 . S
C291 C295 1.394 . S
C291 H307 0.930 . S
C292 C290 1.371 . S
C292 C293 1.392 . S
C292 H308 0.931 . S
C293 C292 1.392 . S
C293 C294 1.331 . S
C293 H311 0.932 . S
C294 C293 1.331 . S
C294 C295 1.336 . S
C295 C291 1.394 . S
C295 C294 1.336 . S
C295 H310 0.929 . S
C296 C286 1.386 . S
C296 C289 1.357 . S
C296 H309 0.928 . S
H297 C273 0.931 . S
H298 C275 0.930 . S
H299 C277 0.929 . S
H300 C278 0.931 . S
H301 C280 0.930 . S
H302 C284 0.931 . S
H303 C282 0.931 . S
H304 C286 0.931 . S
H305 C287 0.929 . S
H306 C288 0.930 . S
H307 C291 0.930 . S
H308 C292 0.931 . S
H309 C296 0.928 . S
H310 C295 0.929 . S
H311 C293 0.932 . S
C312 C313 1.386 . S
C312 C314 1.397 . S
C312 H336 0.931 . S
C313 C312 1.386 . S
C313 C317 1.397 . S
C314 C312 1.397 . S
C314 C315 1.384 . S
C314 H337 0.930 . S
C315 C314 1.384 . S
C315 C316 1.377 . S
C315 C318 1.481 . S
C316 C315 1.377 . S
C316 C317 1.389 . S
C316 H338 0.929 . S
C317 C313 1.397 . S
C317 C316 1.389 . S
C317 H339 0.931 . S
C318 C315 1.481 . S
C318 C319 1.387 . S
C318 C323 1.390 . S
C319 C318 1.387 . S
C319 C320 1.401 . S
C319 H340 0.930 . S
C320 C319 1.401 . S
C320 C321 1.376 . S
C320 C329 1.511 . S
C321 C320 1.376 . S
C321 C322 1.392 . S
C321 H342 0.931 . S
C322 C321 1.392 . S
C322 C323 1.361 . S
C322 C324 1.500 . S
C323 C318 1.390 . S
C323 C322 1.361 . S
C323 H341 0.931 . S
C324 C322 1.500 . S
C324 C325 1.371 . S
C324 C326 1.365 . S
C325 C324 1.371 . S
C325 C335 1.386 . S
C325 H343 0.931 . S
C326 C324 1.365 . S
C326 C327 1.409 . S
C326 H344 0.929 . S
C327 C326 1.409 . S
C327 C328 1.380 . S
C327 H345 0.930 . S
C328 C327 1.380 . S
C328 C335 1.357 . S
C329 C320 1.511 . S
C329 C330 1.341 . S
C329 C331 1.371 . S
C330 C329 1.341 . S
C330 C334 1.394 . S
C330 H346 0.930 . S
C331 C329 1.371 . S
C331 C332 1.392 . S
C331 H347 0.931 . S
C332 C331 1.392 . S
C332 C333 1.331 . S
C332 H350 0.932 . S
C333 C332 1.331 . S
C333 C334 1.336 . S
C334 C330 1.394 . S
C334 C333 1.336 . S
C334 H349 0.929 . S
C335 C325 1.386 . S
C335 C328 1.357 . S
C335 H348 0.928 . S
H336 C312 0.931 . S
H337 C314 0.930 . S
H338 C316 0.929 . S
H339 C317 0.931 . S
H340 C319 0.930 . S
H341 C323 0.931 . S
H342 C321 0.931 . S
H343 C325 0.931 . S
H344 C326 0.929 . S
H345 C327 0.930 . S
H346 C330 0.930 . S
H347 C331 0.931 . S
H348 C335 0.928 . S
H349 C334 0.929 . S
H350 C332 0.932 . S
C351 C352 1.386 . S
C351 C353 1.397 . S
C351 H375 0.931 . S
C352 C351 1.386 . S
C352 C356 1.397 . S
C353 C351 1.397 . S
C353 C354 1.384 . S
C353 H376 0.930 . S
C354 C353 1.384 . S
C354 C355 1.377 . S
C354 C357 1.481 . S
C355 C354 1.377 . S
C355 C356 1.389 . S
C355 H377 0.929 . S
C356 C352 1.397 . S
C356 C355 1.389 . S
C356 H378 0.931 . S
C357 C354 1.481 . S
C357 C358 1.387 . S
C357 C362 1.390 . S
C358 C357 1.387 . S
C358 C359 1.401 . S
C358 H379 0.930 . S
C359 C358 1.401 . S
C359 C360 1.376 . S
C359 C368 1.511 . S
C360 C359 1.376 . S
C360 C361 1.392 . S
C360 H381 0.931 . S
C361 C360 1.392 . S
C361 C362 1.361 . S
C361 C363 1.500 . S
C362 C357 1.390 . S
C362 C361 1.361 . S
C362 H380 0.931 . S
C363 C361 1.500 . S
C363 C364 1.371 . S
C363 C365 1.365 . S
C364 C363 1.371 . S
C364 C374 1.386 . S
C364 H382 0.931 . S
C365 C363 1.365 . S
C365 C366 1.409 . S
C365 H383 0.929 . S
C366 C365 1.409 . S
C366 C367 1.380 . S
C366 H384 0.930 . S
C367 C366 1.380 . S
C367 C374 1.357 . S
C368 C359 1.511 . S
C368 C369 1.341 . S
C368 C370 1.371 . S
C369 C368 1.341 . S
C369 C373 1.394 . S
C369 H385 0.930 . S
C370 C368 1.371 . S
C370 C371 1.392 . S
C370 H386 0.931 . S
C371 C370 1.392 . S
C371 C372 1.331 . S
C371 H389 0.932 . S
C372 C371 1.331 . S
C372 C373 1.336 . S
C373 C369 1.394 . S
C373 C372 1.336 . S
C373 H388 0.929 . S
C374 C364 1.386 . S
C374 C367 1.357 . S
C374 H387 0.928 . S
H375 C351 0.931 . S
H376 C353 0.930 . S
H377 C355 0.929 . S
H378 C356 0.931 . S
H379 C358 0.930 . S
H380 C362 0.931 . S
H381 C360 0.931 . S
H382 C364 0.931 . S
H383 C365 0.929 . S
H384 C366 0.930 . S
H385 C369 0.930 . S
H386 C370 0.931 . S
H387 C374 0.928 . S
H388 C373 0.929 . S
H389 C371 0.932 . S
C390 C391 1.386 . S
C390 C392 1.397 . S
C390 H414 0.931 . S
C391 C390 1.386 . S
C391 C395 1.397 . S
C392 C390 1.397 . S
C392 C393 1.384 . S
C392 H415 0.930 . S
C393 C392 1.384 . S
C393 C394 1.377 . S
C393 C396 1.481 . S
C394 C393 1.377 . S
C394 C395 1.389 . S
C394 H416 0.929 . S
C395 C391 1.397 . S
C395 C394 1.389 . S
C395 H417 0.931 . S
C396 C393 1.481 . S
C396 C397 1.387 . S
C396 C401 1.390 . S
C397 C396 1.387 . S
C397 C398 1.401 . S
C397 H418 0.930 . S
C398 C397 1.401 . S
C398 C399 1.376 . S
C398 C407 1.511 . S
C399 C398 1.376 . S
C399 C400 1.392 . S
C399 H420 0.931 . S
C400 C399 1.392 . S
C400 C401 1.361 . S
C400 C402 1.500 . S
C401 C396 1.390 . S
C401 C400 1.361 . S
C401 H419 0.931 . S
C402 C400 1.500 . S
C402 C403 1.371 . S
C402 C404 1.365 . S
C403 C402 1.371 . S
C403 C413 1.386 . S
C403 H421 0.931 . S
C404 C402 1.365 . S
C404 C405 1.409 . S
C404 H422 0.929 . S
C405 C404 1.409 . S
C405 C406 1.380 . S
C405 H423 0.930 . S
C406 C405 1.380 . S
C406 C413 1.357 . S
C407 C398 1.511 . S
C407 C408 1.341 . S
C407 C409 1.371 . S
C408 C407 1.341 . S
C408 C412 1.394 . S
C408 H424 0.930 . S
C409 C407 1.371 . S
C409 C410 1.392 . S
C409 H425 0.931 . S
C410 C409 1.392 . S
C410 C411 1.331 . S
C410 H428 0.932 . S
C411 C410 1.331 . S
C411 C412 1.336 . S
C412 C408 1.394 . S
C412 C411 1.336 . S
C412 H427 0.929 . S
C413 C403 1.386 . S
C413 C406 1.357 . S
C413 H426 0.928 . S
H414 C390 0.931 . S
H415 C392 0.930 . S
H416 C394 0.929 . S
H417 C395 0.931 . S
H418 C397 0.930 . S
H419 C401 0.931 . S
H420 C399 0.931 . S
H421 C403 0.931 . S
H422 C404 0.929 . S
H423 C405 0.930 . S
H424 C408 0.930 . S
H425 C409 0.931 . S
H426 C413 0.928 . S
H427 C412 0.929 . S
H428 C410 0.932 . S
C429 C430 1.386 . S
C429 C431 1.397 . S
C429 H453 0.931 . S
C430 C429 1.386 . S
C430 C434 1.397 . S
C431 C429 1.397 . S
C431 C432 1.384 . S
C431 H454 0.930 . S
C432 C431 1.384 . S
C432 C433 1.377 . S
C432 C435 1.481 . S
C433 C432 1.377 . S
C433 C434 1.389 . S
C433 H455 0.929 . S
C434 C430 1.397 . S
C434 C433 1.389 . S
C434 H456 0.931 . S
C435 C432 1.481 . S
C435 C436 1.387 . S
C435 C440 1.390 . S
C436 C435 1.387 . S
C436 C437 1.401 . S
C436 H457 0.930 . S
C437 C436 1.401 . S
C437 C438 1.376 . S
C437 C446 1.511 . S
C438 C437 1.376 . S
C438 C439 1.392 . S
C438 H459 0.931 . S
C439 C438 1.392 . S
C439 C440 1.361 . S
C439 C441 1.500 . S
C440 C435 1.390 . S
C440 C439 1.361 . S
C440 H458 0.931 . S
C441 C439 1.500 . S
C441 C442 1.371 . S
C441 C443 1.365 . S
C442 C441 1.371 . S
C442 C452 1.386 . S
C442 H460 0.931 . S
C443 C441 1.365 . S
C443 C444 1.409 . S
C443 H461 0.929 . S
C444 C443 1.409 . S
C444 C445 1.380 . S
C444 H462 0.930 . S
C445 C444 1.380 . S
C445 C452 1.357 . S
C446 C437 1.511 . S
C446 C447 1.341 . S
C446 C448 1.371 . S
C447 C446 1.341 . S
C447 C451 1.394 . S
C447 H463 0.930 . S
C448 C446 1.371 . S
C448 C449 1.392 . S
C448 H464 0.931 . S
C449 C448 1.392 . S
C449 C450 1.331 . S
C449 H467 0.932 . S
C450 C449 1.331 . S
C450 C451 1.336 . S
C451 C447 1.394 . S
C451 C450 1.336 . S
C451 H466 0.929 . S
C452 C442 1.386 . S
C452 C445 1.357 . S
C452 H465 0.928 . S
H453 C429 0.931 . S
H454 C431 0.930 . S
H455 C433 0.929 . S
H456 C434 0.931 . S
H457 C436 0.930 . S
H458 C440 0.931 . S
H459 C438 0.931 . S
H460 C442 0.931 . S
H461 C443 0.929 . S
H462 C444 0.930 . S
H463 C447 0.930 . S
H464 C448 0.931 . S
H465 C452 0.928 . S
H466 C451 0.929 . S
H467 C449 0.932 . S
C468 C469 1.386 . S
C468 C470 1.397 . S
C468 H492 0.931 . S
C469 C468 1.386 . S
C469 C473 1.397 . S
C470 C468 1.397 . S
C470 C471 1.384 . S
C470 H493 0.930 . S
C471 C470 1.384 . S
C471 C472 1.377 . S
C471 C474 1.481 . S
C472 C471 1.377 . S
C472 C473 1.389 . S
C472 H494 0.929 . S
C473 C469 1.397 . S
C473 C472 1.389 . S
C473 H495 0.931 . S
C474 C471 1.481 . S
C474 C475 1.387 . S
C474 C479 1.390 . S
C475 C474 1.387 . S
C475 C476 1.401 . S
C475 H496 0.930 . S
C476 C475 1.401 . S
C476 C477 1.376 . S
C476 C485 1.511 . S
C477 C476 1.376 . S
C477 C478 1.392 . S
C477 H498 0.931 . S
C478 C477 1.392 . S
C478 C479 1.361 . S
C478 C480 1.500 . S
C479 C474 1.390 . S
C479 C478 1.361 . S
C479 H497 0.931 . S
C480 C478 1.500 . S
C480 C481 1.371 . S
C480 C482 1.365 . S
C481 C480 1.371 . S
C481 C491 1.386 . S
C481 H499 0.931 . S
C482 C480 1.365 . S
C482 C483 1.409 . S
C482 H500 0.929 . S
C483 C482 1.409 . S
C483 C484 1.380 . S
C483 H501 0.930 . S
C484 C483 1.380 . S
C484 C491 1.357 . S
C485 C476 1.511 . S
C485 C486 1.341 . S
C485 C487 1.371 . S
C486 C485 1.341 . S
C486 C490 1.394 . S
C486 H502 0.930 . S
C487 C485 1.371 . S
C487 C488 1.392 . S
C487 H503 0.931 . S
C488 C487 1.392 . S
C488 C489 1.331 . S
C488 H506 0.932 . S
C489 C488 1.331 . S
C489 C490 1.336 . S
C490 C486 1.394 . S
C490 C489 1.336 . S
C490 H505 0.929 . S
C491 C481 1.386 . S
C491 C484 1.357 . S
C491 H504 0.928 . S
H492 C468 0.931 . S
H493 C470 0.930 . S
H494 C472 0.929 . S
H495 C473 0.931 . S
H496 C475 0.930 . S
H497 C479 0.931 . S
H498 C477 0.931 . S
H499 C481 0.931 . S
H500 C482 0.929 . S
H501 C483 0.930 . S
H502 C486 0.930 . S
H503 C487 0.931 . S
H504 C491 0.928 . S
H505 C490 0.929 . S
H506 C488 0.932 . S
C507 C508 1.386 . S
C507 C509 1.397 . S
C507 H531 0.931 . S
C508 C507 1.386 . S
C508 C512 1.397 . S
C509 C507 1.397 . S
C509 C510 1.384 . S
C509 H532 0.930 . S
C510 C509 1.384 . S
C510 C511 1.377 . S
C510 C513 1.481 . S
C511 C510 1.377 . S
C511 C512 1.389 . S
C511 H533 0.929 . S
C512 C508 1.397 . S
C512 C511 1.389 . S
C512 H534 0.931 . S
C513 C510 1.481 . S
C513 C514 1.387 . S
C513 C518 1.390 . S
C514 C513 1.387 . S
C514 C515 1.401 . S
C514 H535 0.930 . S
C515 C514 1.401 . S
C515 C516 1.376 . S
C515 C524 1.511 . S
C516 C515 1.376 . S
C516 C517 1.392 . S
C516 H537 0.931 . S
C517 C516 1.392 . S
C517 C518 1.361 . S
C517 C519 1.500 . S
C518 C513 1.390 . S
C518 C517 1.361 . S
C518 H536 0.931 . S
C519 C517 1.500 . S
C519 C520 1.371 . S
C519 C521 1.365 . S
C520 C519 1.371 . S
C520 C530 1.386 . S
C520 H538 0.931 . S
C521 C519 1.365 . S
C521 C522 1.409 . S
C521 H539 0.929 . S
C522 C521 1.409 . S
C522 C523 1.380 . S
C522 H540 0.930 . S
C523 C522 1.380 . S
C523 C530 1.357 . S
C524 C515 1.511 . S
C524 C525 1.341 . S
C524 C526 1.371 . S
C525 C524 1.341 . S
C525 C529 1.394 . S
C525 H541 0.930 . S
C526 C524 1.371 . S
C526 C527 1.392 . S
C526 H542 0.931 . S
C527 C526 1.392 . S
C527 C528 1.331 . S
C527 H545 0.932 . S
C528 C527 1.331 . S
C528 C529 1.336 . S
C529 C525 1.394 . S
C529 C528 1.336 . S
C529 H544 0.929 . S
C530 C520 1.386 . S
C530 C523 1.357 . S
C530 H543 0.928 . S
H531 C507 0.931 . S
H532 C509 0.930 . S
H533 C511 0.929 . S
H534 C512 0.931 . S
H535 C514 0.930 . S
H536 C518 0.931 . S
H537 C516 0.931 . S
H538 C520 0.931 . S
H539 C521 0.929 . S
H540 C522 0.930 . S
H541 C525 0.930 . S
H542 C526 0.931 . S
H543 C530 0.928 . S
H544 C529 0.929 . S
H545 C527 0.932 . S
C546 C547 1.386 . S
C546 C548 1.397 . S
C546 H570 0.931 . S
C547 C546 1.386 . S
C547 C551 1.397 . S
C548 C546 1.397 . S
C548 C549 1.384 . S
C548 H571 0.930 . S
C549 C548 1.384 . S
C549 C550 1.377 . S
C549 C552 1.481 . S
C550 C549 1.377 . S
C550 C551 1.389 . S
C550 H572 0.929 . S
C551 C547 1.397 . S
C551 C550 1.389 . S
C551 H573 0.931 . S
C552 C549 1.481 . S
C552 C553 1.387 . S
C552 C557 1.390 . S
C553 C552 1.387 . S
C553 C554 1.401 . S
C553 H574 0.930 . S
C554 C553 1.401 . S
C554 C555 1.376 . S
C554 C563 1.511 . S
C555 C554 1.376 . S
C555 C556 1.392 . S
C555 H576 0.931 . S
C556 C555 1.392 . S
C556 C557 1.361 . S
C556 C558 1.500 . S
C557 C552 1.390 . S
C557 C556 1.361 . S
C557 H575 0.931 . S
C558 C556 1.500 . S
C558 C559 1.371 . S
C558 C560 1.365 . S
C559 C558 1.371 . S
C559 C569 1.386 . S
C559 H577 0.931 . S
C560 C558 1.365 . S
C560 C561 1.409 . S
C560 H578 0.929 . S
C561 C560 1.409 . S
C561 C562 1.380 . S
C561 H579 0.930 . S
C562 C561 1.380 . S
C562 C569 1.357 . S
C563 C554 1.511 . S
C563 C564 1.341 . S
C563 C565 1.371 . S
C564 C563 1.341 . S
C564 C568 1.394 . S
C564 H580 0.930 . S
C565 C563 1.371 . S
C565 C566 1.392 . S
C565 H581 0.931 . S
C566 C565 1.392 . S
C566 C567 1.331 . S
C566 H584 0.932 . S
C567 C566 1.331 . S
C567 C568 1.336 . S
C568 C564 1.394 . S
C568 C567 1.336 . S
C568 H583 0.929 . S
C569 C559 1.386 . S
C569 C562 1.357 . S
C569 H582 0.928 . S
H570 C546 0.931 . S
H571 C548 0.930 . S
H572 C550 0.929 . S
H573 C551 0.931 . S
H574 C553 0.930 . S
H575 C557 0.931 . S
H576 C555 0.931 . S
H577 C559 0.931 . S
H578 C560 0.929 . S
H579 C561 0.930 . S
H580 C564 0.930 . S
H581 C565 0.931 . S
H582 C569 0.928 . S
H583 C568 0.929 . S
H584 C566 0.932 . S
C585 C586 1.386 . S
C585 C587 1.397 . S
C585 H609 0.931 . S
C586 C585 1.386 . S
C586 C590 1.397 . S
C587 C585 1.397 . S
C587 C588 1.384 . S
C587 H610 0.930 . S
C588 C587 1.384 . S
C588 C589 1.377 . S
C588 C591 1.481 . S
C589 C588 1.377 . S
C589 C590 1.389 . S
C589 H611 0.929 . S
C590 C586 1.397 . S
C590 C589 1.389 . S
C590 H612 0.931 . S
C591 C588 1.481 . S
C591 C592 1.387 . S
C591 C596 1.390 . S
C592 C591 1.387 . S
C592 C593 1.401 . S
C592 H613 0.930 . S
C593 C592 1.401 . S
C593 C594 1.376 . S
C593 C602 1.511 . S
C594 C593 1.376 . S
C594 C595 1.392 . S
C594 H615 0.931 . S
C595 C594 1.392 . S
C595 C596 1.361 . S
C595 C597 1.500 . S
C596 C591 1.390 . S
C596 C595 1.361 . S
C596 H614 0.931 . S
C597 C595 1.500 . S
C597 C598 1.371 . S
C597 C599 1.365 . S
C598 C597 1.371 . S
C598 C608 1.386 . S
C598 H616 0.931 . S
C599 C597 1.365 . S
C599 C600 1.409 . S
C599 H617 0.929 . S
C600 C599 1.409 . S
C600 C601 1.380 . S
C600 H618 0.930 . S
C601 C600 1.380 . S
C601 C608 1.357 . S
C602 C593 1.511 . S
C602 C603 1.341 . S
C602 C604 1.371 . S
C603 C602 1.341 . S
C603 C607 1.394 . S
C603 H619 0.930 . S
C604 C602 1.371 . S
C604 C605 1.392 . S
C604 H620 0.931 . S
C605 C604 1.392 . S
C605 C606 1.331 . S
C605 H623 0.932 . S
C606 C605 1.331 . S
C606 C607 1.336 . S
C607 C603 1.394 . S
C607 C606 1.336 . S
C607 H622 0.929 . S
C608 C598 1.386 . S
C608 C601 1.357 . S
C608 H621 0.928 . S
H609 C585 0.931 . S
H610 C587 0.930 . S
H611 C589 0.929 . S
H612 C590 0.931 . S
H613 C592 0.930 . S
H614 C596 0.931 . S
H615 C594 0.931 . S
H616 C598 0.931 . S
H617 C599 0.929 . S
H618 C600 0.930 . S
H619 C603 0.930 . S
H620 C604 0.931 . S
H621 C608 0.928 . S
H622 C607 0.929 . S
H623 C605 0.932 . S
C624 C625 1.386 . S
C624 C626 1.397 . S
C624 H648 0.931 . S
C625 C624 1.386 . S
C625 C629 1.397 . S
C626 C624 1.397 . S
C626 C627 1.384 . S
C626 H649 0.930 . S
C627 C626 1.384 . S
C627 C628 1.377 . S
C627 C630 1.481 . S
C628 C627 1.377 . S
C628 C629 1.389 . S
C628 H650 0.929 . S
C629 C625 1.397 . S
C629 C628 1.389 . S
C629 H651 0.931 . S
C630 C627 1.481 . S
C630 C631 1.387 . S
C630 C635 1.390 . S
C631 C630 1.387 . S
C631 C632 1.401 . S
C631 H652 0.930 . S
C632 C631 1.401 . S
C632 C633 1.376 . S
C632 C641 1.511 . S
C633 C632 1.376 . S
C633 C634 1.392 . S
C633 H654 0.931 . S
C634 C633 1.392 . S
C634 C635 1.361 . S
C634 C636 1.500 . S
C635 C630 1.390 . S
C635 C634 1.361 . S
C635 H653 0.931 . S
C636 C634 1.500 . S
C636 C637 1.371 . S
C636 C638 1.365 . S
C637 C636 1.371 . S
C637 C647 1.386 . S
C637 H655 0.931 . S
C638 C636 1.365 . S
C638 C639 1.409 . S
C638 H656 0.929 . S
C639 C638 1.409 . S
C639 C640 1.380 . S
C639 H657 0.930 . S
C640 C639 1.380 . S
C640 C647 1.357 . S
C641 C632 1.511 . S
C641 C642 1.341 . S
C641 C643 1.371 . S
C642 C641 1.341 . S
C642 C646 1.394 . S
C642 H658 0.930 . S
C643 C641 1.371 . S
C643 C644 1.392 . S
C643 H659 0.931 . S
C644 C643 1.392 . S
C644 C645 1.331 . S
C644 H662 0.932 . S
C645 C644 1.331 . S
C645 C646 1.336 . S
C646 C642 1.394 . S
C646 C645 1.336 . S
C646 H661 0.929 . S
C647 C637 1.386 . S
C647 C640 1.357 . S
C647 H660 0.928 . S
H648 C624 0.931 . S
H649 C626 0.930 . S
H650 C628 0.929 . S
H651 C629 0.931 . S
H652 C631 0.930 . S
H653 C635 0.931 . S
H654 C633 0.931 . S
H655 C637 0.931 . S
H656 C638 0.929 . S
H657 C639 0.930 . S
H658 C642 0.930 . S
H659 C643 0.931 . S
H660 C647 0.928 . S
H661 C646 0.929 . S
H662 C644 0.932 . S
C663 C664 1.386 . S
C663 C665 1.397 . S
C663 H687 0.931 . S
C664 C663 1.386 . S
C664 C668 1.397 . S
C665 C663 1.397 . S
C665 C666 1.384 . S
C665 H688 0.930 . S
C666 C665 1.384 . S
C666 C667 1.377 . S
C666 C669 1.481 . S
C667 C666 1.377 . S
C667 C668 1.389 . S
C667 H689 0.929 . S
C668 C664 1.397 . S
C668 C667 1.389 . S
C668 H690 0.931 . S
C669 C666 1.481 . S
C669 C670 1.387 . S
C669 C674 1.390 . S
C670 C669 1.387 . S
C670 C671 1.401 . S
C670 H691 0.930 . S
C671 C670 1.401 . S
C671 C672 1.376 . S
C671 C680 1.511 . S
C672 C671 1.376 . S
C672 C673 1.392 . S
C672 H693 0.931 . S
C673 C672 1.392 . S
C673 C674 1.361 . S
C673 C675 1.500 . S
C674 C669 1.390 . S
C674 C673 1.361 . S
C674 H692 0.931 . S
C675 C673 1.500 . S
C675 C676 1.371 . S
C675 C677 1.365 . S
C676 C675 1.371 . S
C676 C686 1.386 . S
C676 H694 0.931 . S
C677 C675 1.365 . S
C677 C678 1.409 . S
C677 H695 0.929 . S
C678 C677 1.409 . S
C678 C679 1.380 . S
C678 H696 0.930 . S
C679 C678 1.380 . S
C679 C686 1.357 . S
C680 C671 1.511 . S
C680 C681 1.341 . S
C680 C682 1.371 . S
C681 C680 1.341 . S
C681 C685 1.394 . S
C681 H697 0.930 . S
C682 C680 1.371 . S
C682 C683 1.392 . S
C682 H698 0.931 . S
C683 C682 1.392 . S
C683 C684 1.331 . S
C683 H701 0.932 . S
C684 C683 1.331 . S
C684 C685 1.336 . S
C685 C681 1.394 . S
C685 C684 1.336 . S
C685 H700 0.929 . S
C686 C676 1.386 . S
C686 C679 1.357 . S
C686 H699 0.928 . S
H687 C663 0.931 . S
H688 C665 0.930 . S
H689 C667 0.929 . S
H690 C668 0.931 . S
H691 C670 0.930 . S
H692 C674 0.931 . S
H693 C672 0.931 . S
H694 C676 0.931 . S
H695 C677 0.929 . S
H696 C678 0.930 . S
H697 C681 0.930 . S
H698 C682 0.931 . S
H699 C686 0.928 . S
H700 C685 0.929 . S
H701 C683 0.932 . S
C702 C703 1.386 . S
C702 C704 1.397 . S
C702 H726 0.931 . S
C703 C702 1.386 . S
C703 C707 1.397 . S
C704 C702 1.397 . S
C704 C705 1.384 . S
C704 H727 0.930 . S
C705 C704 1.384 . S
C705 C706 1.377 . S
C705 C708 1.481 . S
C706 C705 1.377 . S
C706 C707 1.389 . S
C706 H728 0.929 . S
C707 C703 1.397 . S
C707 C706 1.389 . S
C707 H729 0.931 . S
C708 C705 1.481 . S
C708 C709 1.387 . S
C708 C713 1.390 . S
C709 C708 1.387 . S
C709 C710 1.401 . S
C709 H730 0.930 . S
C710 C709 1.401 . S
C710 C711 1.376 . S
C710 C719 1.511 . S
C711 C710 1.376 . S
C711 C712 1.392 . S
C711 H732 0.931 . S
C712 C711 1.392 . S
C712 C713 1.361 . S
C712 C714 1.500 . S
C713 C708 1.390 . S
C713 C712 1.361 . S
C713 H731 0.931 . S
C714 C712 1.500 . S
C714 C715 1.371 . S
C714 C716 1.365 . S
C715 C714 1.371 . S
C715 C725 1.386 . S
C715 H733 0.931 . S
C716 C714 1.365 . S
C716 C717 1.409 . S
C716 H734 0.929 . S
C717 C716 1.409 . S
C717 C718 1.380 . S
C717 H735 0.930 . S
C718 C717 1.380 . S
C718 C725 1.357 . S
C719 C710 1.511 . S
C719 C720 1.341 . S
C719 C721 1.371 . S
C720 C719 1.341 . S
C720 C724 1.394 . S
C720 H736 0.930 . S
C721 C719 1.371 . S
C721 C722 1.392 . S
C721 H737 0.931 . S
C722 C721 1.392 . S
C722 C723 1.331 . S
C722 H740 0.932 . S
C723 C722 1.331 . S
C723 C724 1.336 . S
C724 C720 1.394 . S
C724 C723 1.336 . S
C724 H739 0.929 . S
C725 C715 1.386 . S
C725 C718 1.357 . S
C725 H738 0.928 . S
H726 C702 0.931 . S
H727 C704 0.930 . S
H728 C706 0.929 . S
H729 C707 0.931 . S
H730 C709 0.930 . S
H731 C713 0.931 . S
H732 C711 0.931 . S
H733 C715 0.931 . S
H734 C716 0.929 . S
H735 C717 0.930 . S
H736 C720 0.930 . S
H737 C721 0.931 . S
H738 C725 0.928 . S
H739 C724 0.929 . S
H740 C722 0.932 . S
C741 C742 1.386 . S
C741 C743 1.397 . S
C741 H765 0.931 . S
C742 C741 1.386 . S
C742 C746 1.397 . S
C743 C741 1.397 . S
C743 C744 1.384 . S
C743 H766 0.930 . S
C744 C743 1.384 . S
C744 C745 1.377 . S
C744 C747 1.481 . S
C745 C744 1.377 . S
C745 C746 1.389 . S
C745 H767 0.929 . S
C746 C742 1.397 . S
C746 C745 1.389 . S
C746 H768 0.931 . S
C747 C744 1.481 . S
C747 C748 1.387 . S
C747 C752 1.390 . S
C748 C747 1.387 . S
C748 C749 1.401 . S
C748 H769 0.930 . S
C749 C748 1.401 . S
C749 C750 1.376 . S
C749 C758 1.511 . S
C750 C749 1.376 . S
C750 C751 1.392 . S
C750 H771 0.931 . S
C751 C750 1.392 . S
C751 C752 1.361 . S
C751 C753 1.500 . S
C752 C747 1.390 . S
C752 C751 1.361 . S
C752 H770 0.931 . S
C753 C751 1.500 . S
C753 C754 1.371 . S
C753 C755 1.365 . S
C754 C753 1.371 . S
C754 C764 1.386 . S
C754 H772 0.931 . S
C755 C753 1.365 . S
C755 C756 1.409 . S
C755 H773 0.929 . S
C756 C755 1.409 . S
C756 C757 1.380 . S
C756 H774 0.930 . S
C757 C756 1.380 . S
C757 C764 1.357 . S
C758 C749 1.511 . S
C758 C759 1.341 . S
C758 C760 1.371 . S
C759 C758 1.341 . S
C759 C763 1.394 . S
C759 H775 0.930 . S
C760 C758 1.371 . S
C760 C761 1.392 . S
C760 H776 0.931 . S
C761 C760 1.392 . S
C761 C762 1.331 . S
C761 H779 0.932 . S
C762 C761 1.331 . S
C762 C763 1.336 . S
C763 C759 1.394 . S
C763 C762 1.336 . S
C763 H778 0.929 . S
C764 C754 1.386 . S
C764 C757 1.357 . S
C764 H777 0.928 . S
H765 C741 0.931 . S
H766 C743 0.930 . S
H767 C745 0.929 . S
H768 C746 0.931 . S
H769 C748 0.930 . S
H770 C752 0.931 . S
H771 C750 0.931 . S
H772 C754 0.931 . S
H773 C755 0.929 . S
H774 C756 0.930 . S
H775 C759 0.930 . S
H776 C760 0.931 . S
H777 C764 0.928 . S
H778 C763 0.929 . S
H779 C761 0.932 . S
C780 C781 1.386 . S
C780 C782 1.397 . S
C780 H804 0.931 . S
C781 C780 1.386 . S
C781 C785 1.397 . S
C782 C780 1.397 . S
C782 C783 1.384 . S
C782 H805 0.930 . S
C783 C782 1.384 . S
C783 C784 1.377 . S
C783 C786 1.481 . S
C784 C783 1.377 . S
C784 C785 1.389 . S
C784 H806 0.929 . S
C785 C781 1.397 . S
C785 C784 1.389 . S
C785 H807 0.931 . S
C786 C783 1.481 . S
C786 C787 1.387 . S
C786 C791 1.390 . S
C787 C786 1.387 . S
C787 C788 1.401 . S
C787 H808 0.930 . S
C788 C787 1.401 . S
C788 C789 1.376 . S
C788 C797 1.511 . S
C789 C788 1.376 . S
C789 C790 1.392 . S
C789 H810 0.931 . S
C790 C789 1.392 . S
C790 C791 1.361 . S
C790 C792 1.500 . S
C791 C786 1.390 . S
C791 C790 1.361 . S
C791 H809 0.931 . S
C792 C790 1.500 . S
C792 C793 1.371 . S
C792 C794 1.365 . S
C793 C792 1.371 . S
C793 C803 1.386 . S
C793 H811 0.931 . S
C794 C792 1.365 . S
C794 C795 1.409 . S
C794 H812 0.929 . S
C795 C794 1.409 . S
C795 C796 1.380 . S
C795 H813 0.930 . S
C796 C795 1.380 . S
C796 C803 1.357 . S
C797 C788 1.511 . S
C797 C798 1.341 . S
C797 C799 1.371 . S
C798 C797 1.341 . S
C798 C802 1.394 . S
C798 H814 0.930 . S
C799 C797 1.371 . S
C799 C800 1.392 . S
C799 H815 0.931 . S
C800 C799 1.392 . S
C800 C801 1.331 . S
C800 H818 0.932 . S
C801 C800 1.331 . S
C801 C802 1.336 . S
C802 C798 1.394 . S
C802 C801 1.336 . S
C802 H817 0.929 . S
C803 C793 1.386 . S
C803 C796 1.357 . S
C803 H816 0.928 . S
H804 C780 0.931 . S
H805 C782 0.930 . S
H806 C784 0.929 . S
H807 C785 0.931 . S
H808 C787 0.930 . S
H809 C791 0.931 . S
H810 C789 0.931 . S
H811 C793 0.931 . S
H812 C794 0.929 . S
H813 C795 0.930 . S
H814 C798 0.930 . S
H815 C799 0.931 . S
H816 C803 0.928 . S
H817 C802 0.929 . S
H818 C800 0.932 . S
C819 C820 1.386 . S
C819 C821 1.397 . S
C819 H843 0.931 . S
C820 C819 1.386 . S
C820 C824 1.397 . S
C821 C819 1.397 . S
C821 C822 1.384 . S
C821 H844 0.930 . S
C822 C821 1.384 . S
C822 C823 1.377 . S
C822 C825 1.481 . S
C823 C822 1.377 . S
C823 C824 1.389 . S
C823 H845 0.929 . S
C824 C820 1.397 . S
C824 C823 1.389 . S
C824 H846 0.931 . S
C825 C822 1.481 . S
C825 C826 1.387 . S
C825 C830 1.390 . S
C826 C825 1.387 . S
C826 C827 1.401 . S
C826 H847 0.930 . S
C827 C826 1.401 . S
C827 C828 1.376 . S
C827 C836 1.511 . S
C828 C827 1.376 . S
C828 C829 1.392 . S
C828 H849 0.931 . S
C829 C828 1.392 . S
C829 C830 1.361 . S
C829 C831 1.500 . S
C830 C825 1.390 . S
C830 C829 1.361 . S
C830 H848 0.931 . S
C831 C829 1.500 . S
C831 C832 1.371 . S
C831 C833 1.365 . S
C832 C831 1.371 . S
C832 C842 1.386 . S
C832 H850 0.931 . S
C833 C831 1.365 . S
C833 C834 1.409 . S
C833 H851 0.929 . S
C834 C833 1.409 . S
C834 C835 1.380 . S
C834 H852 0.930 . S
C835 C834 1.380 . S
C835 C842 1.357 . S
C836 C827 1.511 . S
C836 C837 1.341 . S
C836 C838 1.371 . S
C837 C836 1.341 . S
C837 C841 1.394 . S
C837 H853 0.930 . S
C838 C836 1.371 . S
C838 C839 1.392 . S
C838 H854 0.931 . S
C839 C838 1.392 . S
C839 C840 1.331 . S
C839 H857 0.932 . S
C840 C839 1.331 . S
C840 C841 1.336 . S
C841 C837 1.394 . S
C841 C840 1.336 . S
C841 H856 0.929 . S
C842 C832 1.386 . S
C842 C835 1.357 . S
C842 H855 0.928 . S
H843 C819 0.931 . S
H844 C821 0.930 . S
H845 C823 0.929 . S
H846 C824 0.931 . S
H847 C826 0.930 . S
H848 C830 0.931 . S
H849 C828 0.931 . S
H850 C832 0.931 . S
H851 C833 0.929 . S
H852 C834 0.930 . S
H853 C837 0.930 . S
H854 C838 0.931 . S
H855 C842 0.928 . S
H856 C841 0.929 . S
H857 C839 0.932 . S
C858 C859 1.386 . S
C858 C860 1.397 . S
C858 H882 0.931 . S
C859 C858 1.386 . S
C859 C863 1.397 . S
C860 C858 1.397 . S
C860 C861 1.384 . S
C860 H883 0.930 . S
C861 C860 1.384 . S
C861 C862 1.377 . S
C861 C864 1.481 . S
C862 C861 1.377 . S
C862 C863 1.389 . S
C862 H884 0.929 . S
C863 C859 1.397 . S
C863 C862 1.389 . S
C863 H885 0.931 . S
C864 C861 1.481 . S
C864 C865 1.387 . S
C864 C869 1.390 . S
C865 C864 1.387 . S
C865 C866 1.401 . S
C865 H886 0.930 . S
C866 C865 1.401 . S
C866 C867 1.376 . S
C866 C875 1.511 . S
C867 C866 1.376 . S
C867 C868 1.392 . S
C867 H888 0.931 . S
C868 C867 1.392 . S
C868 C869 1.361 . S
C868 C870 1.500 . S
C869 C864 1.390 . S
C869 C868 1.361 . S
C869 H887 0.931 . S
C870 C868 1.500 . S
C870 C871 1.371 . S
C870 C872 1.365 . S
C871 C870 1.371 . S
C871 C881 1.386 . S
C871 H889 0.931 . S
C872 C870 1.365 . S
C872 C873 1.409 . S
C872 H890 0.929 . S
C873 C872 1.409 . S
C873 C874 1.380 . S
C873 H891 0.930 . S
C874 C873 1.380 . S
C874 C881 1.357 . S
C875 C866 1.511 . S
C875 C876 1.341 . S
C875 C877 1.371 . S
C876 C875 1.341 . S
C876 C880 1.394 . S
C876 H892 0.930 . S
C877 C875 1.371 . S
C877 C878 1.392 . S
C877 H893 0.931 . S
C878 C877 1.392 . S
C878 C879 1.331 . S
C878 H896 0.932 . S
C879 C878 1.331 . S
C879 C880 1.336 . S
C880 C876 1.394 . S
C880 C879 1.336 . S
C880 H895 0.929 . S
C881 C871 1.386 . S
C881 C874 1.357 . S
C881 H894 0.928 . S
H882 C858 0.931 . S
H883 C860 0.930 . S
H884 C862 0.929 . S
H885 C863 0.931 . S
H886 C865 0.930 . S
H887 C869 0.931 . S
H888 C867 0.931 . S
H889 C871 0.931 . S
H890 C872 0.929 . S
H891 C873 0.930 . S
H892 C876 0.930 . S
H893 C877 0.931 . S
H894 C881 0.928 . S
H895 C880 0.929 . S
H896 C878 0.932 . S
C897 C898 1.386 . S
C897 C899 1.397 . S
C897 H921 0.931 . S
C898 C897 1.386 . S
C898 C902 1.397 . S
C899 C897 1.397 . S
C899 C900 1.384 . S
C899 H922 0.930 . S
C900 C899 1.384 . S
C900 C901 1.377 . S
C900 C903 1.481 . S
C901 C900 1.377 . S
C901 C902 1.389 . S
C901 H923 0.929 . S
C902 C898 1.397 . S
C902 C901 1.389 . S
C902 H924 0.931 . S
C903 C900 1.481 . S
C903 C904 1.387 . S
C903 C908 1.390 . S
C904 C903 1.387 . S
C904 C905 1.401 . S
C904 H925 0.930 . S
C905 C904 1.401 . S
C905 C906 1.376 . S
C905 C914 1.511 . S
C906 C905 1.376 . S
C906 C907 1.392 . S
C906 H927 0.931 . S
C907 C906 1.392 . S
C907 C908 1.361 . S
C907 C909 1.500 . S
C908 C903 1.390 . S
C908 C907 1.361 . S
C908 H926 0.931 . S
C909 C907 1.500 . S
C909 C910 1.371 . S
C909 C911 1.365 . S
C910 C909 1.371 . S
C910 C920 1.386 . S
C910 H928 0.931 . S
C911 C909 1.365 . S
C911 C912 1.409 . S
C911 H929 0.929 . S
C912 C911 1.409 . S
C912 C913 1.380 . S
C912 H930 0.930 . S
C913 C912 1.380 . S
C913 C920 1.357 . S
C914 C905 1.511 . S
C914 C915 1.341 . S
C914 C916 1.371 . S
C915 C914 1.341 . S
C915 C919 1.394 . S
C915 H931 0.930 . S
C916 C914 1.371 . S
C916 C917 1.392 . S
C916 H932 0.931 . S
C917 C916 1.392 . S
C917 C918 1.331 . S
C917 H935 0.932 . S
C918 C917 1.331 . S
C918 C919 1.336 . S
C919 C915 1.394 . S
C919 C918 1.336 . S
C919 H934 0.929 . S
C920 C910 1.386 . S
C920 C913 1.357 . S
C920 H933 0.928 . S
H921 C897 0.931 . S
H922 C899 0.930 . S
H923 C901 0.929 . S
H924 C902 0.931 . S
H925 C904 0.930 . S
H926 C908 0.931 . S
H927 C906 0.931 . S
H928 C910 0.931 . S
H929 C911 0.929 . S
H930 C912 0.930 . S
H931 C915 0.930 . S
H932 C916 0.931 . S
H933 C920 0.928 . S
H934 C919 0.929 . S
H935 C917 0.932 . S
C936 C937 1.386 . S
C936 C938 1.397 . S
C936 H960 0.931 . S
C937 C936 1.386 . S
C937 C941 1.397 . S
C938 C936 1.397 . S
C938 C939 1.384 . S
C938 H961 0.930 . S
C939 C938 1.384 . S
C939 C940 1.377 . S
C939 C942 1.481 . S
C940 C939 1.377 . S
C940 C941 1.389 . S
C940 H962 0.929 . S
C941 C937 1.397 . S
C941 C940 1.389 . S
C941 H963 0.931 . S
C942 C939 1.481 . S
C942 C943 1.387 . S
C942 C947 1.390 . S
C943 C942 1.387 . S
C943 C944 1.401 . S
C943 H964 0.930 . S
C944 C943 1.401 . S
C944 C945 1.376 . S
C944 C953 1.511 . S
C945 C944 1.376 . S
C945 C946 1.392 . S
C945 H966 0.931 . S
C946 C945 1.392 . S
C946 C947 1.361 . S
C946 C948 1.500 . S
C947 C942 1.390 . S
C947 C946 1.361 . S
C947 H965 0.931 . S
C948 C946 1.500 . S
C948 C949 1.371 . S
C948 C950 1.365 . S
C949 C948 1.371 . S
C949 C959 1.386 . S
C949 H967 0.931 . S
C950 C948 1.365 . S
C950 C951 1.409 . S
C950 H968 0.929 . S
C951 C950 1.409 . S
C951 C952 1.380 . S
C951 H969 0.930 . S
C952 C951 1.380 . S
C952 C959 1.357 . S
C953 C944 1.511 . S
C953 C954 1.341 . S
C953 C955 1.371 . S
C954 C953 1.341 . S
C954 C958 1.394 . S
C954 H970 0.930 . S
C955 C953 1.371 . S
C955 C956 1.392 . S
C955 H971 0.931 . S
C956 C955 1.392 . S
C956 C957 1.331 . S
C956 H974 0.932 . S
C957 C956 1.331 . S
C957 C958 1.336 . S
C958 C954 1.394 . S
C958 C957 1.336 . S
C958 H973 0.929 . S
C959 C949 1.386 . S
C959 C952 1.357 . S
C959 H972 0.928 . S
H960 C936 0.931 . S
H961 C938 0.930 . S
H962 C940 0.929 . S
H963 C941 0.931 . S
H964 C943 0.930 . S
H965 C947 0.931 . S
H966 C945 0.931 . S
H967 C949 0.931 . S
H968 C950 0.929 . S
H969 C951 0.930 . S
H970 C954 0.930 . S
H971 C955 0.931 . S
H972 C959 0.928 . S
H973 C958 0.929 . S
H974 C956 0.932 . S
C975 C976 1.386 . S
C975 C977 1.397 . S
C975 H999 0.931 . S
C976 C975 1.386 . S
C976 C980 1.397 . S
C977 C975 1.397 . S
C977 C978 1.384 . S
C977 H1000 0.930 . S
C978 C977 1.384 . S
C978 C979 1.377 . S
C978 C981 1.481 . S
C979 C978 1.377 . S
C979 C980 1.389 . S
C979 H1001 0.929 . S
C980 C976 1.397 . S
C980 C979 1.389 . S
C980 H1002 0.931 . S
C981 C978 1.481 . S
C981 C982 1.387 . S
C981 C986 1.390 . S
C982 C981 1.387 . S
C982 C983 1.401 . S
C982 H1003 0.930 . S
C983 C982 1.401 . S
C983 C984 1.376 . S
C983 C992 1.511 . S
C984 C983 1.376 . S
C984 C985 1.392 . S
C984 H1005 0.931 . S
C985 C984 1.392 . S
C985 C986 1.361 . S
C985 C987 1.500 . S
C986 C981 1.390 . S
C986 C985 1.361 . S
C986 H1004 0.931 . S
C987 C985 1.500 . S
C987 C988 1.371 . S
C987 C989 1.365 . S
C988 C987 1.371 . S
C988 C998 1.386 . S
C988 H1006 0.931 . S
C989 C987 1.365 . S
C989 C990 1.409 . S
C989 H1007 0.929 . S
C990 C989 1.409 . S
C990 C991 1.380 . S
C990 H1008 0.930 . S
C991 C990 1.380 . S
C991 C998 1.357 . S
C992 C983 1.511 . S
C992 C993 1.341 . S
C992 C994 1.371 . S
C993 C992 1.341 . S
C993 C997 1.394 . S
C993 H1009 0.930 . S
C994 C992 1.371 . S
C994 C995 1.392 . S
C994 H1010 0.931 . S
C995 C994 1.392 . S
C995 C996 1.331 . S
C995 H1013 0.932 . S
C996 C995 1.331 . S
C996 C997 1.336 . S
C997 C993 1.394 . S
C997 C996 1.336 . S
C997 H1012 0.929 . S
C998 C988 1.386 . S
C998 C991 1.357 . S
C998 H1011 0.928 . S
H999 C975 0.931 . S
H1000 C977 0.930 . S
H1001 C979 0.929 . S
H1002 C980 0.931 . S
H1003 C982 0.930 . S
H1004 C986 0.931 . S
H1005 C984 0.931 . S
H1006 C988 0.931 . S
H1007 C989 0.929 . S
H1008 C990 0.930 . S
H1009 C993 0.930 . S
H1010 C994 0.931 . S
H1011 C998 0.928 . S
H1012 C997 0.929 . S
H1013 C995 0.932 . S
C1014 C1015 1.386 . S
C1014 C1016 1.397 . S
C1014 H1038 0.931 . S
C1015 C1014 1.386 . S
C1015 C1019 1.397 . S
C1016 C1014 1.397 . S
C1016 C1017 1.384 . S
C1016 H1039 0.930 . S
C1017 C1016 1.384 . S
C1017 C1018 1.377 . S
C1017 C1020 1.481 . S
C1018 C1017 1.377 . S
C1018 C1019 1.389 . S
C1018 H1040 0.929 . S
C1019 C1015 1.397 . S
C1019 C1018 1.389 . S
C1019 H1041 0.931 . S
C1020 C1017 1.481 . S
C1020 C1021 1.387 . S
C1020 C1025 1.390 . S
C1021 C1020 1.387 . S
C1021 C1022 1.401 . S
C1021 H1042 0.930 . S
C1022 C1021 1.401 . S
C1022 C1023 1.376 . S
C1022 C1031 1.511 . S
C1023 C1022 1.376 . S
C1023 C1024 1.392 . S
C1023 H1044 0.931 . S
C1024 C1023 1.392 . S
C1024 C1025 1.361 . S
C1024 C1026 1.500 . S
C1025 C1020 1.390 . S
C1025 C1024 1.361 . S
C1025 H1043 0.931 . S
C1026 C1024 1.500 . S
C1026 C1027 1.371 . S
C1026 C1028 1.365 . S
C1027 C1026 1.371 . S
C1027 C1037 1.386 . S
C1027 H1045 0.931 . S
C1028 C1026 1.365 . S
C1028 C1029 1.409 . S
C1028 H1046 0.929 . S
C1029 C1028 1.409 . S
C1029 C1030 1.380 . S
C1029 H1047 0.930 . S
C1030 C1029 1.380 . S
C1030 C1037 1.357 . S
C1031 C1022 1.511 . S
C1031 C1032 1.341 . S
C1031 C1033 1.371 . S
C1032 C1031 1.341 . S
C1032 C1036 1.394 . S
C1032 H1048 0.930 . S
C1033 C1031 1.371 . S
C1033 C1034 1.392 . S
C1033 H1049 0.931 . S
C1034 C1033 1.392 . S
C1034 C1035 1.331 . S
C1034 H1052 0.932 . S
C1035 C1034 1.331 . S
C1035 C1036 1.336 . S
C1036 C1032 1.394 . S
C1036 C1035 1.336 . S
C1036 H1051 0.929 . S
C1037 C1027 1.386 . S
C1037 C1030 1.357 . S
C1037 H1050 0.928 . S
H1038 C1014 0.931 . S
H1039 C1016 0.930 . S
H1040 C1018 0.929 . S
H1041 C1019 0.931 . S
H1042 C1021 0.930 . S
H1043 C1025 0.931 . S
H1044 C1023 0.931 . S
H1045 C1027 0.931 . S
H1046 C1028 0.929 . S
H1047 C1029 0.930 . S
H1048 C1032 0.930 . S
H1049 C1033 0.931 . S
H1050 C1037 0.928 . S
H1051 C1036 0.929 . S
H1052 C1034 0.932 . S
C1053 C1054 1.386 . S
C1053 C1055 1.397 . S
C1053 H1077 0.931 . S
C1054 C1053 1.386 . S
C1054 C1058 1.397 . S
C1055 C1053 1.397 . S
C1055 C1056 1.384 . S
C1055 H1078 0.930 . S
C1056 C1055 1.384 . S
C1056 C1057 1.377 . S
C1056 C1059 1.481 . S
C1057 C1056 1.377 . S
C1057 C1058 1.389 . S
C1057 H1079 0.929 . S
C1058 C1054 1.397 . S
C1058 C1057 1.389 . S
C1058 H1080 0.931 . S
C1059 C1056 1.481 . S
C1059 C1060 1.387 . S
C1059 C1064 1.390 . S
C1060 C1059 1.387 . S
C1060 C1061 1.401 . S
C1060 H1081 0.930 . S
C1061 C1060 1.401 . S
C1061 C1062 1.376 . S
C1061 C1070 1.511 . S
C1062 C1061 1.376 . S
C1062 C1063 1.392 . S
C1062 H1083 0.931 . S
C1063 C1062 1.392 . S
C1063 C1064 1.361 . S
C1063 C1065 1.500 . S
C1064 C1059 1.390 . S
C1064 C1063 1.361 . S
C1064 H1082 0.931 . S
C1065 C1063 1.500 . S
C1065 C1066 1.371 . S
C1065 C1067 1.365 . S
C1066 C1065 1.371 . S
C1066 C1076 1.386 . S
C1066 H1084 0.931 . S
C1067 C1065 1.365 . S
C1067 C1068 1.409 . S
C1067 H1085 0.929 . S
C1068 C1067 1.409 . S
C1068 C1069 1.380 . S
C1068 H1086 0.930 . S
C1069 C1068 1.380 . S
C1069 C1076 1.357 . S
C1070 C1061 1.511 . S
C1070 C1071 1.341 . S
C1070 C1072 1.371 . S
C1071 C1070 1.341 . S
C1071 C1075 1.394 . S
C1071 H1087 0.930 . S
C1072 C1070 1.371 . S
C1072 C1073 1.392 . S
C1072 H1088 0.931 . S
C1073 C1072 1.392 . S
C1073 C1074 1.331 . S
C1073 H1091 0.932 . S
C1074 C1073 1.331 . S
C1074 C1075 1.336 . S
C1075 C1071 1.394 . S
C1075 C1074 1.336 . S
C1075 H1090 0.929 . S
C1076 C1066 1.386 . S
C1076 C1069 1.357 . S
C1076 H1089 0.928 . S
H1077 C1053 0.931 . S
H1078 C1055 0.930 . S
H1079 C1057 0.929 . S
H1080 C1058 0.931 . S
H1081 C1060 0.930 . S
H1082 C1064 0.931 . S
H1083 C1062 0.931 . S
H1084 C1066 0.931 . S
H1085 C1067 0.929 . S
H1086 C1068 0.930 . S
H1087 C1071 0.930 . S
H1088 C1072 0.931 . S
H1089 C1076 0.928 . S
H1090 C1075 0.929 . S
H1091 C1073 0.932 . S
C1092 C1093 1.386 . S
C1092 C1094 1.397 . S
C1092 H1116 0.931 . S
C1093 C1092 1.386 . S
C1093 C1097 1.397 . S
C1094 C1092 1.397 . S
C1094 C1095 1.384 . S
C1094 H1117 0.930 . S
C1095 C1094 1.384 . S
C1095 C1096 1.377 . S
C1095 C1098 1.481 . S
C1096 C1095 1.377 . S
C1096 C1097 1.389 . S
C1096 H1118 0.929 . S
C1097 C1093 1.397 . S
C1097 C1096 1.389 . S
C1097 H1119 0.931 . S
C1098 C1095 1.481 . S
C1098 C1099 1.387 . S
C1098 C1103 1.390 . S
C1099 C1098 1.387 . S
C1099 C1100 1.401 . S
C1099 H1120 0.930 . S
C1100 C1099 1.401 . S
C1100 C1101 1.376 . S
C1100 C1109 1.511 . S
C1101 C1100 1.376 . S
C1101 C1102 1.392 . S
C1101 H1122 0.931 . S
C1102 C1101 1.392 . S
C1102 C1103 1.361 . S
C1102 C1104 1.500 . S
C1103 C1098 1.390 . S
C1103 C1102 1.361 . S
C1103 H1121 0.931 . S
C1104 C1102 1.500 . S
C1104 C1105 1.371 . S
C1104 C1106 1.365 . S
C1105 C1104 1.371 . S
C1105 C1115 1.386 . S
C1105 H1123 0.931 . S
C1106 C1104 1.365 . S
C1106 C1107 1.409 . S
C1106 H1124 0.929 . S
C1107 C1106 1.409 . S
C1107 C1108 1.380 . S
C1107 H1125 0.930 . S
C1108 C1107 1.380 . S
C1108 C1115 1.357 . S
C1109 C1100 1.511 . S
C1109 C1110 1.341 . S
C1109 C1111 1.371 . S
C1110 C1109 1.341 . S
C1110 C1114 1.394 . S
C1110 H1126 0.930 . S
C1111 C1109 1.371 . S
C1111 C1112 1.392 . S
C1111 H1127 0.931 . S
C1112 C1111 1.392 . S
C1112 C1113 1.331 . S
C1112 H1130 0.932 . S
C1113 C1112 1.331 . S
C1113 C1114 1.336 . S
C1114 C1110 1.394 . S
C1114 C1113 1.336 . S
C1114 H1129 0.929 . S
C1115 C1105 1.386 . S
C1115 C1108 1.357 . S
C1115 H1128 0.928 . S
H1116 C1092 0.931 . S
H1117 C1094 0.930 . S
H1118 C1096 0.929 . S
H1119 C1097 0.931 . S
H1120 C1099 0.930 . S
H1121 C1103 0.931 . S
H1122 C1101 0.931 . S
H1123 C1105 0.931 . S
H1124 C1106 0.929 . S
H1125 C1107 0.930 . S
H1126 C1110 0.930 . S
H1127 C1111 0.931 . S
H1128 C1115 0.928 . S
H1129 C1114 0.929 . S
H1130 C1112 0.932 . S
C1131 C1132 1.386 . S
C1131 C1133 1.397 . S
C1131 H1155 0.931 . S
C1132 C1131 1.386 . S
C1132 C1136 1.397 . S
C1133 C1131 1.397 . S
C1133 C1134 1.384 . S
C1133 H1156 0.930 . S
C1134 C1133 1.384 . S
C1134 C1135 1.377 . S
C1134 C1137 1.481 . S
C1135 C1134 1.377 . S
C1135 C1136 1.389 . S
C1135 H1157 0.929 . S
C1136 C1132 1.397 . S
C1136 C1135 1.389 . S
C1136 H1158 0.931 . S
C1137 C1134 1.481 . S
C1137 C1138 1.387 . S
C1137 C1142 1.390 . S
C1138 C1137 1.387 . S
C1138 C1139 1.401 . S
C1138 H1159 0.930 . S
C1139 C1138 1.401 . S
C1139 C1140 1.376 . S
C1139 C1148 1.511 . S
C1140 C1139 1.376 . S
C1140 C1141 1.392 . S
C1140 H1161 0.931 . S
C1141 C1140 1.392 . S
C1141 C1142 1.361 . S
C1141 C1143 1.500 . S
C1142 C1137 1.390 . S
C1142 C1141 1.361 . S
C1142 H1160 0.931 . S
C1143 C1141 1.500 . S
C1143 C1144 1.371 . S
C1143 C1145 1.365 . S
C1144 C1143 1.371 . S
C1144 C1154 1.386 . S
C1144 H1162 0.931 . S
C1145 C1143 1.365 . S
C1145 C1146 1.409 . S
C1145 H1163 0.929 . S
C1146 C1145 1.409 . S
C1146 C1147 1.380 . S
C1146 H1164 0.930 . S
C1147 C1146 1.380 . S
C1147 C1154 1.357 . S
C1148 C1139 1.511 . S
C1148 C1149 1.341 . S
C1148 C1150 1.371 . S
C1149 C1148 1.341 . S
C1149 C1153 1.394 . S
C1149 H1165 0.930 . S
C1150 C1148 1.371 . S
C1150 C1151 1.392 . S
C1150 H1166 0.931 . S
C1151 C1150 1.392 . S
C1151 C1152 1.331 . S
C1151 H1169 0.932 . S
C1152 C1151 1.331 . S
C1152 C1153 1.336 . S
C1153 C1149 1.394 . S
C1153 C1152 1.336 . S
C1153 H1168 0.929 . S
C1154 C1144 1.386 . S
C1154 C1147 1.357 . S
C1154 H1167 0.928 . S
H1155 C1131 0.931 . S
H1156 C1133 0.930 . S
H1157 C1135 0.929 . S
H1158 C1136 0.931 . S
H1159 C1138 0.930 . S
H1160 C1142 0.931 . S
H1161 C1140 0.931 . S
H1162 C1144 0.931 . S
H1163 C1145 0.929 . S
H1164 C1146 0.930 . S
H1165 C1149 0.930 . S
H1166 C1150 0.931 . S
H1167 C1154 0.928 . S
H1168 C1153 0.929 . S
H1169 C1151 0.932 . S
C1170 C1171 1.386 . S
C1170 C1172 1.397 . S
C1170 H1194 0.931 . S
C1171 C1170 1.386 . S
C1171 C1175 1.397 . S
C1172 C1170 1.397 . S
C1172 C1173 1.384 . S
C1172 H1195 0.930 . S
C1173 C1172 1.384 . S
C1173 C1174 1.377 . S
C1173 C1176 1.481 . S
C1174 C1173 1.377 . S
C1174 C1175 1.389 . S
C1174 H1196 0.929 . S
C1175 C1171 1.397 . S
C1175 C1174 1.389 . S
C1175 H1197 0.931 . S
C1176 C1173 1.481 . S
C1176 C1177 1.387 . S
C1176 C1181 1.390 . S
C1177 C1176 1.387 . S
C1177 C1178 1.401 . S
C1177 H1198 0.930 . S
C1178 C1177 1.401 . S
C1178 C1179 1.376 . S
C1178 C1187 1.511 . S
C1179 C1178 1.376 . S
C1179 C1180 1.392 . S
C1179 H1200 0.931 . S
C1180 C1179 1.392 . S
C1180 C1181 1.361 . S
C1180 C1182 1.500 . S
C1181 C1176 1.390 . S
C1181 C1180 1.361 . S
C1181 H1199 0.931 . S
C1182 C1180 1.500 . S
C1182 C1183 1.371 . S
C1182 C1184 1.365 . S
C1183 C1182 1.371 . S
C1183 C1193 1.386 . S
C1183 H1201 0.931 . S
C1184 C1182 1.365 . S
C1184 C1185 1.409 . S
C1184 H1202 0.929 . S
C1185 C1184 1.409 . S
C1185 C1186 1.380 . S
C1185 H1203 0.930 . S
C1186 C1185 1.380 . S
C1186 C1193 1.357 . S
C1187 C1178 1.511 . S
C1187 C1188 1.341 . S
C1187 C1189 1.371 . S
C1188 C1187 1.341 . S
C1188 C1192 1.394 . S
C1188 H1204 0.930 . S
C1189 C1187 1.371 . S
C1189 C1190 1.392 . S
C1189 H1205 0.931 . S
C1190 C1189 1.392 . S
C1190 C1191 1.331 . S
C1190 H1208 0.932 . S
C1191 C1190 1.331 . S
C1191 C1192 1.336 . S
C1192 C1188 1.394 . S
C1192 C1191 1.336 . S
C1192 H1207 0.929 . S
C1193 C1183 1.386 . S
C1193 C1186 1.357 . S
C1193 H1206 0.928 . S
H1194 C1170 0.931 . S
H1195 C1172 0.930 . S
H1196 C1174 0.929 . S
H1197 C1175 0.931 . S
H1198 C1177 0.930 . S
H1199 C1181 0.931 . S
H1200 C1179 0.931 . S
H1201 C1183 0.931 . S
H1202 C1184 0.929 . S
H1203 C1185 0.930 . S
H1204 C1188 0.930 . S
H1205 C1189 0.931 . S
H1206 C1193 0.928 . S
H1207 C1192 0.929 . S
H1208 C1190 0.932 . S
C1209 C1210 1.386 . S
C1209 C1211 1.397 . S
C1209 H1233 0.931 . S
C1210 C1209 1.386 . S
C1210 C1214 1.397 . S
C1211 C1209 1.397 . S
C1211 C1212 1.384 . S
C1211 H1234 0.930 . S
C1212 C1211 1.384 . S
C1212 C1213 1.377 . S
C1212 C1215 1.481 . S
C1213 C1212 1.377 . S
C1213 C1214 1.389 . S
C1213 H1235 0.929 . S
C1214 C1210 1.397 . S
C1214 C1213 1.389 . S
C1214 H1236 0.931 . S
C1215 C1212 1.481 . S
C1215 C1216 1.387 . S
C1215 C1220 1.390 . S
C1216 C1215 1.387 . S
C1216 C1217 1.401 . S
C1216 H1237 0.930 . S
C1217 C1216 1.401 . S
C1217 C1218 1.376 . S
C1217 C1226 1.511 . S
C1218 C1217 1.376 . S
C1218 C1219 1.392 . S
C1218 H1239 0.931 . S
C1219 C1218 1.392 . S
C1219 C1220 1.361 . S
C1219 C1221 1.500 . S
C1220 C1215 1.390 . S
C1220 C1219 1.361 . S
C1220 H1238 0.931 . S
C1221 C1219 1.500 . S
C1221 C1222 1.371 . S
C1221 C1223 1.365 . S
C1222 C1221 1.371 . S
C1222 C1232 1.386 . S
C1222 H1240 0.931 . S
C1223 C1221 1.365 . S
C1223 C1224 1.409 . S
C1223 H1241 0.929 . S
C1224 C1223 1.409 . S
C1224 C1225 1.380 . S
C1224 H1242 0.930 . S
C1225 C1224 1.380 . S
C1225 C1232 1.357 . S
C1226 C1217 1.511 . S
C1226 C1227 1.341 . S
C1226 C1228 1.371 . S
C1227 C1226 1.341 . S
C1227 C1231 1.394 . S
C1227 H1243 0.930 . S
C1228 C1226 1.371 . S
C1228 C1229 1.392 . S
C1228 H1244 0.931 . S
C1229 C1228 1.392 . S
C1229 C1230 1.331 . S
C1229 H1247 0.932 . S
C1230 C1229 1.331 . S
C1230 C1231 1.336 . S
C1231 C1227 1.394 . S
C1231 C1230 1.336 . S
C1231 H1246 0.929 . S
C1232 C1222 1.386 . S
C1232 C1225 1.357 . S
C1232 H1245 0.928 . S
H1233 C1209 0.931 . S
H1234 C1211 0.930 . S
H1235 C1213 0.929 . S
H1236 C1214 0.931 . S
H1237 C1216 0.930 . S
H1238 C1220 0.931 . S
H1239 C1218 0.931 . S
H1240 C1222 0.931 . S
H1241 C1223 0.929 . S
H1242 C1224 0.930 . S
H1243 C1227 0.930 . S
H1244 C1228 0.931 . S
H1245 C1232 0.928 . S
H1246 C1231 0.929 . S
H1247 C1229 0.932 . S
Cu1248 N1249 1.999 . S
Cu1248 O1254 1.974 1_554 S
Cu1248 N1259 1.985 . S
Cu1248 O1268 1.959 . S
N1249 Cu1248 1.999 . S
N1249 C1251 1.263 1_554 S
N1249 C1253 1.389 . S
N1250 C1251 1.358 . S
N1250 C1252 1.400 . S
C1251 N1249 1.263 1_556 S
C1251 N1250 1.358 . S
C1251 H1257 0.930 . S
C1252 N1250 1.400 . S
C1252 C1253 1.351 1_556 S
C1252 H1269 0.930 . S
C1253 N1249 1.389 . S
C1253 C1252 1.351 1_554 S
C1253 H1258 0.930 . S
O1254 Cu1248 1.974 1_556 S
O1254 C1264 1.282 . S
C1255 O1256 1.261 . S
C1255 O1268 1.251 . S
O1256 C1255 1.261 . S
H1257 C1251 0.930 . S
H1258 C1253 0.930 . S
N1259 Cu1248 1.985 . S
N1259 C1261 1.335 . S
N1259 C1262 1.390 . S
N1260 C1261 1.345 . S
N1260 C1263 1.336 . S
C1261 N1259 1.335 . S
C1261 N1260 1.345 . S
C1261 H1266 0.930 . S
C1262 N1259 1.390 . S
C1262 C1263 1.346 . S
C1262 H1267 0.930 . S
C1263 N1260 1.336 . S
C1263 C1262 1.346 . S
C1263 H1270 0.929 . S
C1264 O1254 1.282 . S
C1264 O1265 1.216 . S
O1265 C1264 1.216 . S
H1266 C1261 0.930 . S
H1267 C1262 0.930 . S
O1268 Cu1248 1.959 . S
O1268 C1255 1.251 . S
H1269 C1252 0.930 . S
H1270 C1263 0.929 . S
Cu1271 N1272 1.999 . S
Cu1271 O1277 1.974 . S
Cu1271 N1282 1.985 1_554 S
Cu1271 O1291 1.959 1_554 S
N1272 Cu1271 1.999 . S
N1272 C1274 1.263 . S
N1272 C1276 1.389 . S
N1273 C1274 1.358 . S
N1273 C1275 1.400 . S
C1274 N1272 1.263 . S
C1274 N1273 1.358 . S
C1274 H1280 0.930 . S
C1275 N1273 1.400 . S
C1275 C1276 1.351 . S
C1275 H1292 0.930 . S
C1276 N1272 1.389 . S
C1276 C1275 1.351 . S
C1276 H1281 0.930 . S
O1277 Cu1271 1.974 . S
O1277 C1287 1.282 . S
C1278 O1279 1.261 . S
C1278 O1291 1.251 . S
O1279 C1278 1.261 . S
H1280 C1274 0.930 . S
H1281 C1276 0.930 . S
N1282 Cu1271 1.985 1_556 S
N1282 C1284 1.335 . S
N1282 C1285 1.390 . S
N1283 C1284 1.345 . S
N1283 C1286 1.336 . S
C1284 N1282 1.335 . S
C1284 N1283 1.345 . S
C1284 H1289 0.930 . S
C1285 N1282 1.390 . S
C1285 C1286 1.346 . S
C1285 H1290 0.930 1_556 S
C1286 N1283 1.336 . S
C1286 C1285 1.346 . S
C1286 H1293 0.929 . S
C1287 O1277 1.282 . S
C1287 O1288 1.216 . S
O1288 C1287 1.216 . S
H1289 C1284 0.930 . S
H1290 C1285 0.930 1_554 S
O1291 Cu1271 1.959 1_556 S
O1291 C1278 1.251 . S
H1292 C1275 0.930 . S
H1293 C1286 0.929 . S
Cu1294 N1295 1.999 1_554 S
Cu1294 O1300 1.974 1_554 S
Cu1294 N1305 1.985 . S
Cu1294 O1314 1.959 . S
N1295 Cu1294 1.999 1_556 S
N1295 C1297 1.263 . S
N1295 C1299 1.389 . S
N1296 C1297 1.358 . S
N1296 C1298 1.400 . S
C1297 N1295 1.263 . S
C1297 N1296 1.358 . S
C1297 H1303 0.930 . S
C1298 N1296 1.400 . S
C1298 C1299 1.351 . S
C1298 H1315 0.930 . S
C1299 N1295 1.389 . S
C1299 C1298 1.351 . S
C1299 H1304 0.900 1_556 S
O1300 Cu1294 1.974 1_556 S
O1300 C1310 1.282 . S
C1301 O1302 1.261 . S
C1301 O1314 1.251 . S
O1302 C1301 1.261 . S
H1303 C1297 0.930 . S
H1304 C1299 0.900 1_554 S
N1305 Cu1294 1.985 . S
N1305 C1307 1.335 . S
N1305 C1308 1.390 . S
N1306 C1307 1.345 . S
N1306 C1309 1.336 . S
C1307 N1305 1.335 . S
C1307 N1306 1.345 . S
C1307 H1312 0.930 . S
C1308 N1305 1.390 . S
C1308 C1309 1.346 . S
C1308 H1313 0.930 1_554 S
C1309 N1306 1.336 . S
C1309 C1308 1.346 . S
C1309 H1316 0.929 . S
C1310 O1300 1.282 . S
C1310 O1311 1.216 . S
O1311 C1310 1.216 . S
H1312 C1307 0.930 . S
H1313 C1308 0.930 1_556 S
O1314 Cu1294 1.959 . S
O1314 C1301 1.251 . S
H1315 C1298 0.930 . S
H1316 C1309 0.929 . S
Cu1317 N1318 2.014 . S
Cu1317 O1323 1.992 . S
Cu1317 N1328 1.971 1_554 S
Cu1317 O1337 1.941 1_554 S
N1318 Cu1317 2.014 . S
N1318 C1320 1.263 . S
N1318 C1322 1.389 . S
N1319 C1320 1.358 . S
N1319 C1321 1.400 . S
C1320 N1318 1.263 . S
C1320 N1319 1.358 . S
C1320 H1326 0.930 . S
C1321 N1319 1.400 . S
C1321 C1322 1.351 . S
C1321 H1338 0.930 . S
C1322 N1318 1.389 . S
C1322 C1321 1.351 . S
C1322 H1327 0.930 . S
O1323 Cu1317 1.992 . S
O1323 C1333 1.282 . S
C1324 O1325 1.261 . S
C1324 O1337 1.251 . S
O1325 C1324 1.261 . S
H1326 C1320 0.930 . S
H1327 C1322 0.930 . S
N1328 Cu1317 1.971 1_556 S
N1328 C1330 1.335 . S
N1328 C1331 1.390 . S
N1329 C1330 1.345 . S
N1329 C1332 1.336 . S
C1330 N1328 1.335 . S
C1330 N1329 1.345 . S
C1330 H1335 0.930 . S
C1331 N1328 1.390 . S
C1331 C1332 1.346 . S
C1331 H1336 0.930 1_556 S
C1332 N1329 1.336 . S
C1332 C1331 1.346 . S
C1332 H1339 0.929 . S
C1333 O1323 1.282 . S
C1333 O1334 1.216 . S
O1334 C1333 1.216 . S
H1335 C1330 0.930 . S
H1336 C1331 0.930 1_554 S
O1337 Cu1317 1.941 1_556 S
O1337 C1324 1.251 . S
H1338 C1321 0.930 . S
H1339 C1332 0.929 . S
Cu1340 N1341 1.999 . S
Cu1340 O1346 1.974 . S
Cu1340 N1351 1.985 1_455 S
Cu1340 O1360 1.959 1_455 S
N1341 Cu1340 1.999 . S
N1341 C1343 1.263 . S
N1341 C1345 1.389 . S
N1342 C1343 1.358 . S
N1342 C1344 1.400 . S
C1343 N1341 1.263 . S
C1343 N1342 1.358 . S
C1343 H1349 0.930 . S
C1344 N1342 1.400 . S
C1344 C1345 1.351 . S
C1344 H1361 0.930 . S
C1345 N1341 1.389 . S
C1345 C1344 1.351 . S
C1345 H1350 0.930 . S
O1346 Cu1340 1.974 . S
O1346 C1356 1.282 . S
C1347 O1348 1.261 . S
C1347 O1360 1.251 . S
O1348 C1347 1.261 . S
H1349 C1343 0.930 . S
H1350 C1345 0.930 . S
N1351 Cu1340 1.985 1_655 S
N1351 C1353 1.335 . S
N1351 C1354 1.390 1_655 S
N1352 C1353 1.345 . S
N1352 C1355 1.336 . S
C1353 N1351 1.335 . S
C1353 N1352 1.345 . S
C1353 H1358 0.930 . S
C1354 N1351 1.390 1_455 S
C1354 C1355 1.346 1_455 S
C1354 H1359 0.930 . S
C1355 N1352 1.336 . S
C1355 C1354 1.346 1_655 S
C1355 H1362 0.929 . S
C1356 O1346 1.282 . S
C1356 O1357 1.216 . S
O1357 C1356 1.216 . S
H1358 C1353 0.930 . S
H1359 C1354 0.930 . S
O1360 Cu1340 1.959 1_655 S
O1360 C1347 1.251 . S
H1361 C1344 0.930 . S
H1362 C1355 0.929 . S
Cu1363 N1364 1.999 . S
Cu1363 O1369 1.974 . S
Cu1363 N1374 1.985 1_545 S
Cu1363 O1383 1.959 1_545 S
N1364 Cu1363 1.999 . S
N1364 C1366 1.263 . S
N1364 C1368 1.389 . S
N1365 C1366 1.358 . S
N1365 C1367 1.400 . S
C1366 N1364 1.263 . S
C1366 N1365 1.358 . S
C1366 H1372 0.930 . S
C1367 N1365 1.400 . S
C1367 C1368 1.351 . S
C1367 H1384 0.930 . S
C1368 N1364 1.389 . S
C1368 C1367 1.351 . S
C1368 H1373 0.930 . S
O1369 Cu1363 1.974 . S
O1369 C1379 1.282 . S
C1370 O1371 1.261 . S
C1370 O1383 1.251 . S
O1371 C1370 1.261 . S
H1372 C1366 0.930 . S
H1373 C1368 0.930 . S
N1374 Cu1363 1.985 1_565 S
N1374 C1376 1.335 . S
N1374 C1377 1.390 . S
N1375 C1376 1.345 . S
N1375 C1378 1.336 . S
C1376 N1374 1.335 . S
C1376 N1375 1.345 . S
C1376 H1381 0.930 . S
C1377 N1374 1.390 . S
C1377 C1378 1.346 . S
C1377 H1382 0.930 1_565 S
C1378 N1375 1.336 . S
C1378 C1377 1.346 . S
C1378 H1385 0.929 . S
C1379 O1369 1.282 . S
C1379 O1380 1.216 . S
O1380 C1379 1.216 . S
H1381 C1376 0.930 . S
H1382 C1377 0.930 1_545 S
O1383 Cu1363 1.959 1_565 S
O1383 C1370 1.251 . S
H1384 C1367 0.930 . S
H1385 C1378 0.929 . S
Cu1386 N1387 2.014 . S
Cu1386 O1392 1.991 . S
Cu1386 N1397 1.971 1_655 S
Cu1386 O1406 1.942 1_655 S
N1387 Cu1386 2.014 . S
N1387 C1389 1.263 . S
N1387 C1391 1.389 . S
N1388 C1389 1.358 . S
N1388 C1390 1.400 . S
C1389 N1387 1.263 . S
C1389 N1388 1.358 . S
C1389 H1395 0.930 . S
C1390 N1388 1.400 . S
C1390 C1391 1.351 . S
C1390 H1407 0.930 . S
C1391 N1387 1.389 . S
C1391 C1390 1.351 . S
C1391 H1396 0.930 . S
O1392 Cu1386 1.991 . S
O1392 C1402 1.282 . S
C1393 O1394 1.261 . S
C1393 O1406 1.251 . S
O1394 C1393 1.261 . S
H1395 C1389 0.930 . S
H1396 C1391 0.930 . S
N1397 Cu1386 1.971 1_455 S
N1397 C1399 1.335 . S
N1397 C1400 1.390 . S
N1398 C1399 1.345 . S
N1398 C1401 1.336 . S
C1399 N1397 1.335 . S
C1399 N1398 1.345 . S
C1399 H1404 0.930 . S
C1400 N1397 1.390 . S
C1400 C1401 1.346 . S
C1400 H1405 0.930 . S
C1401 N1398 1.336 . S
C1401 C1400 1.346 . S
C1401 H1408 0.929 . S
C1402 O1392 1.282 . S
C1402 O1403 1.216 . S
O1403 C1402 1.216 . S
H1404 C1399 0.930 . S
H1405 C1400 0.930 . S
O1406 Cu1386 1.942 1_455 S
O1406 C1393 1.251 . S
H1407 C1390 0.930 . S
H1408 C1401 0.929 . S
Cu1409 N1410 1.978 1_565 S
Cu1409 O1415 1.945 1_565 S
Cu1409 N1420 2.006 . S
Cu1409 O1429 1.987 . S
N1410 Cu1409 1.978 1_545 S
N1410 C1412 1.263 . S
N1410 C1414 1.389 . S
N1411 C1412 1.358 . S
N1411 C1413 1.400 . S
C1412 N1410 1.263 . S
C1412 N1411 1.358 . S
C1412 H1418 0.930 . S
C1413 N1411 1.400 . S
C1413 C1414 1.351 . S
C1413 H1430 0.930 . S
C1414 N1410 1.389 . S
C1414 C1413 1.351 . S
C1414 H1419 0.930 . S
O1415 Cu1409 1.945 1_545 S
O1415 C1425 1.282 . S
C1416 O1417 1.261 . S
C1416 O1429 1.251 . S
O1417 C1416 1.261 . S
H1418 C1412 0.930 . S
H1419 C1414 0.930 . S
N1420 Cu1409 2.006 . S
N1420 C1422 1.335 . S
N1420 C1423 1.390 . S
N1421 C1422 1.345 . S
N1421 C1424 1.336 . S
C1422 N1420 1.335 . S
C1422 N1421 1.345 . S
C1422 H1427 0.930 . S
C1423 N1420 1.390 . S
C1423 C1424 1.346 . S
C1423 H1428 0.930 . S
C1424 N1421 1.336 . S
C1424 C1423 1.346 . S
C1424 H1431 0.929 . S
C1425 O1415 1.282 . S
C1425 O1426 1.216 . S
O1426 C1425 1.216 . S
H1427 C1422 0.930 . S
H1428 C1423 0.930 . S
O1429 Cu1409 1.987 . S
O1429 C1416 1.251 . S
H1430 C1413 0.930 . S
H1431 C1424 0.929 . S
Cu1432 N1433 1.999 . S
Cu1432 O1438 1.974 . S
Cu1432 N1443 1.985 1_455 S
Cu1432 O1452 1.959 1_455 S
N1433 Cu1432 1.999 . S
N1433 C1435 1.263 . S
N1433 C1437 1.389 . S
N1434 C1435 1.358 . S
N1434 C1436 1.400 . S
C1435 N1433 1.263 . S
C1435 N1434 1.358 . S
C1435 H1441 0.930 . S
C1436 N1434 1.400 . S
C1436 C1437 1.351 . S
C1436 H1453 0.930 . S
C1437 N1433 1.389 . S
C1437 C1436 1.351 . S
C1437 H1442 0.930 . S
O1438 Cu1432 1.974 . S
O1438 C1448 1.282 . S
C1439 O1440 1.261 . S
C1439 O1452 1.251 . S
O1440 C1439 1.261 . S
H1441 C1435 0.930 . S
H1442 C1437 0.930 . S
N1443 Cu1432 1.985 1_655 S
N1443 C1445 1.335 . S
N1443 C1446 1.383 1_655 S
N1444 C1445 1.345 . S
N1444 C1447 1.336 . S
C1445 N1443 1.335 . S
C1445 N1444 1.345 . S
C1445 H1450 0.930 . S
C1446 N1443 1.383 1_455 S
C1446 C1447 1.312 1_455 S
C1446 H1451 0.965 . S
C1447 N1444 1.336 . S
C1447 C1446 1.312 1_655 S
C1447 H1454 0.929 . S
C1448 O1438 1.282 . S
C1448 O1449 1.216 . S
O1449 C1448 1.216 . S
H1450 C1445 0.930 . S
H1451 C1446 0.965 . S
O1452 Cu1432 1.959 1_655 S
O1452 C1439 1.251 . S
H1453 C1436 0.930 . S
H1454 C1447 0.929 . S
Cu1455 N1456 1.999 . S
Cu1455 O1461 1.974 . S
Cu1455 N1466 1.985 1_545 S
Cu1455 O1475 1.959 1_545 S
N1456 Cu1455 1.999 . S
N1456 C1458 1.263 . S
N1456 C1460 1.389 . S
N1457 C1458 1.358 . S
N1457 C1459 1.400 . S
C1458 N1456 1.263 . S
C1458 N1457 1.358 . S
C1458 H1464 0.930 . S
C1459 N1457 1.400 . S
C1459 C1460 1.351 . S
C1459 H1476 0.930 . S
C1460 N1456 1.389 . S
C1460 C1459 1.351 . S
C1460 H1465 0.930 . S
O1461 Cu1455 1.974 . S
O1461 C1471 1.282 . S
C1462 O1463 1.261 . S
C1462 O1475 1.251 . S
O1463 C1462 1.261 . S
H1464 C1458 0.930 . S
H1465 C1460 0.930 . S
N1466 Cu1455 1.985 1_565 S
N1466 C1468 1.335 . S
N1466 C1469 1.390 1_565 S
N1467 C1468 1.345 . S
N1467 C1470 1.336 . S
C1468 N1466 1.335 . S
C1468 N1467 1.345 . S
C1468 H1473 0.930 . S
C1469 N1466 1.390 1_545 S
C1469 C1470 1.346 1_545 S
C1469 H1474 0.930 . S
C1470 N1467 1.336 . S
C1470 C1469 1.346 1_565 S
C1470 H1477 0.929 . S
C1471 O1461 1.282 . S
C1471 O1472 1.216 . S
O1472 C1471 1.216 . S
H1473 C1468 0.930 . S
H1474 C1469 0.930 . S
O1475 Cu1455 1.959 1_565 S
O1475 C1462 1.251 . S
H1476 C1459 0.930 . S
H1477 C1470 0.929 . S
Cu1478 N1479 1.999 . S
Cu1478 O1484 1.974 . S
Cu1478 N1489 1.985 . S
Cu1478 O1498 1.959 . S
N1479 Cu1478 1.999 . S
N1479 C1481 1.263 1_455 S
N1479 C1483 1.389 . S
N1480 C1481 1.358 . S
N1480 C1482 1.400 . S
C1481 N1479 1.263 1_655 S
C1481 N1480 1.358 . S
C1481 H1487 0.930 . S
C1482 N1480 1.400 . S
C1482 C1483 1.351 1_655 S
C1482 H1499 0.930 . S
C1483 N1479 1.389 . S
C1483 C1482 1.351 1_455 S
C1483 H1488 0.930 . S
O1484 Cu1478 1.974 . S
O1484 C1494 1.282 1_455 S
C1485 O1486 1.261 . S
C1485 O1498 1.251 . S
O1486 C1485 1.261 . S
H1487 C1481 0.930 . S
H1488 C1483 0.930 . S
N1489 Cu1478 1.985 . S
N1489 C1491 1.335 . S
N1489 C1492 1.390 . S
N1490 C1491 1.345 . S
N1490 C1493 1.336 . S
C1491 N1489 1.335 . S
C1491 N1490 1.345 . S
C1491 H1496 0.930 . S
C1492 N1489 1.390 . S
C1492 C1493 1.346 . S
C1492 H1497 0.930 . S
C1493 N1490 1.336 . S
C1493 C1492 1.346 . S
C1493 H1500 0.929 . S
C1494 O1484 1.282 1_655 S
C1494 O1495 1.216 1_655 S
O1495 C1494 1.216 1_455 S
H1496 C1491 0.930 . S
H1497 C1492 0.930 . S
O1498 Cu1478 1.959 . S
O1498 C1485 1.251 . S
H1499 C1482 0.930 . S
H1500 C1493 0.929 . S
Cu1501 N1502 1.999 . S
Cu1501 O1507 1.974 . S
Cu1501 N1512 1.985 . S
Cu1501 O1521 1.959 1_545 S
N1502 Cu1501 1.999 . S
N1502 C1504 1.263 . S
N1502 C1506 1.389 . S
N1503 C1504 1.358 . S
N1503 C1505 1.400 . S
C1504 N1502 1.263 . S
C1504 N1503 1.358 . S
C1504 H1510 0.930 . S
C1505 N1503 1.400 . S
C1505 C1506 1.351 . S
C1505 H1522 0.930 . S
C1506 N1502 1.389 . S
C1506 C1505 1.351 . S
C1506 H1511 0.930 . S
O1507 Cu1501 1.974 . S
O1507 C1517 1.282 . S
C1508 O1509 1.261 1_565 S
C1508 O1521 1.251 . S
O1509 C1508 1.261 1_545 S
H1510 C1504 0.930 . S
H1511 C1506 0.930 . S
N1512 Cu1501 1.985 . S
N1512 C1514 1.335 1_545 S
N1512 C1515 1.390 . S
N1513 C1514 1.345 . S
N1513 C1516 1.336 . S
C1514 N1512 1.335 1_565 S
C1514 N1513 1.345 . S
C1514 H1519 0.930 . S
C1515 N1512 1.390 . S
C1515 C1516 1.346 1_545 S
C1515 H1520 0.930 . S
C1516 N1513 1.336 . S
C1516 C1515 1.346 1_565 S
C1516 H1523 0.929 . S
C1517 O1507 1.282 . S
C1517 O1518 1.216 . S
O1518 C1517 1.216 . S
H1519 C1514 0.930 . S
H1520 C1515 0.930 . S
O1521 Cu1501 1.959 1_565 S
O1521 C1508 1.251 . S
H1522 C1505 0.930 . S
H1523 C1516 0.929 . S
Cu1524 N1525 1.999 . S
Cu1524 O1530 1.974 . S
Cu1524 N1535 1.985 . S
Cu1524 O1544 1.959 . S
N1525 Cu1524 1.999 . S
N1525 C1527 1.263 . S
N1525 C1529 1.389 . S
N1526 C1527 1.358 . S
N1526 C1528 1.400 . S
C1527 N1525 1.263 . S
C1527 N1526 1.358 . S
C1527 H1533 0.930 . S
C1528 N1526 1.400 . S
C1528 C1529 1.351 . S
C1528 H1545 0.930 . S
C1529 N1525 1.389 . S
C1529 C1528 1.351 . S
C1529 H1534 0.930 . S
O1530 Cu1524 1.974 . S
O1530 C1540 1.282 . S
C1531 O1532 1.261 . S
C1531 O1544 1.251 . S
O1532 C1531 1.261 . S
H1533 C1527 0.930 . S
H1534 C1529 0.930 . S
N1535 Cu1524 1.985 . S
N1535 C1537 1.335 . S
N1535 C1538 1.390 . S
N1536 C1537 1.345 . S
N1536 C1539 1.336 . S
C1537 N1535 1.335 . S
C1537 N1536 1.345 . S
C1537 H1542 0.930 . S
C1538 N1535 1.390 . S
C1538 C1539 1.346 . S
C1538 H1543 0.930 . S
C1539 N1536 1.336 . S
C1539 C1538 1.346 . S
C1539 H1546 0.929 . S
C1540 O1530 1.282 . S
C1540 O1541 1.216 . S
O1541 C1540 1.216 . S
H1542 C1537 0.930 . S
H1543 C1538 0.930 . S
O1544 Cu1524 1.959 . S
O1544 C1531 1.251 . S
H1545 C1528 0.930 . S
H1546 C1539 0.929 . S
Cu1547 N1548 1.999 . S
Cu1547 O1553 1.974 . S
Cu1547 N1558 1.985 . S
Cu1547 O1567 1.959 . S
N1548 Cu1547 1.999 . S
N1548 C1550 1.263 . S
N1548 C1552 1.389 . S
N1549 C1550 1.358 . S
N1549 C1551 1.400 . S
C1550 N1548 1.263 . S
C1550 N1549 1.358 . S
C1550 H1556 0.930 . S
C1551 N1549 1.400 . S
C1551 C1552 1.351 . S
C1551 H1568 0.930 . S
C1552 N1548 1.389 . S
C1552 C1551 1.351 . S
C1552 H1557 0.930 . S
O1553 Cu1547 1.974 . S
O1553 C1563 1.282 . S
C1554 O1555 1.261 . S
C1554 O1567 1.251 . S
O1555 C1554 1.261 . S
H1556 C1550 0.930 . S
H1557 C1552 0.930 . S
N1558 Cu1547 1.985 . S
N1558 C1560 1.335 . S
N1558 C1561 1.390 . S
N1559 C1560 1.345 . S
N1559 C1562 1.336 . S
C1560 N1558 1.335 . S
C1560 N1559 1.345 . S
C1560 H1565 0.930 . S
C1561 N1558 1.390 . S
C1561 C1562 1.346 . S
C1561 H1566 0.930 . S
C1562 N1559 1.336 . S
C1562 C1561 1.346 . S
C1562 H1569 0.929 . S
C1563 O1553 1.282 . S
C1563 O1564 1.216 . S
O1564 C1563 1.216 . S
H1565 C1560 0.930 . S
H1566 C1561 0.930 . S
O1567 Cu1547 1.959 . S
O1567 C1554 1.251 . S
H1568 C1551 0.930 . S
H1569 C1562 0.929 . S
Cu1570 N1571 1.999 . S
Cu1570 O1576 1.974 . S
Cu1570 N1581 1.985 . S
Cu1570 O1590 1.959 . S
N1571 Cu1570 1.999 . S
N1571 C1573 1.263 . S
N1571 C1575 1.389 . S
N1572 C1573 1.358 . S
N1572 C1574 1.400 . S
C1573 N1571 1.263 . S
C1573 N1572 1.358 . S
C1573 H1579 0.930 . S
C1574 N1572 1.400 . S
C1574 C1575 1.351 . S
C1574 H1591 0.930 . S
C1575 N1571 1.389 . S
C1575 C1574 1.351 . S
C1575 H1580 0.930 . S
O1576 Cu1570 1.974 . S
O1576 C1586 1.282 . S
C1577 O1578 1.261 . S
C1577 O1590 1.251 . S
O1578 C1577 1.261 . S
H1579 C1573 0.930 . S
H1580 C1575 0.930 . S
N1581 Cu1570 1.985 . S
N1581 C1583 1.335 . S
N1581 C1584 1.390 . S
N1582 C1583 1.345 . S
N1582 C1585 1.336 . S
C1583 N1581 1.335 . S
C1583 N1582 1.345 . S
C1583 H1588 0.930 . S
C1584 N1581 1.390 . S
C1584 C1585 1.346 . S
C1584 H1589 0.930 . S
C1585 N1582 1.336 . S
C1585 C1584 1.346 . S
C1585 H1592 0.929 . S
C1586 O1576 1.282 . S
C1586 O1587 1.216 . S
O1587 C1586 1.216 . S
H1588 C1583 0.930 . S
H1589 C1584 0.930 . S
O1590 Cu1570 1.959 . S
O1590 C1577 1.251 . S
H1591 C1574 0.930 . S
H1592 C1585 0.929 . S
Cu1593 N1594 1.999 . S
Cu1593 O1599 1.974 . S
Cu1593 N1604 1.985 . S
Cu1593 O1613 1.959 . S
N1594 Cu1593 1.999 . S
N1594 C1596 1.263 . S
N1594 C1598 1.389 . S
N1595 C1596 1.358 . S
N1595 C1597 1.400 . S
C1596 N1594 1.263 . S
C1596 N1595 1.358 . S
C1596 H1602 0.930 . S
C1597 N1595 1.400 . S
C1597 C1598 1.351 . S
C1597 H1614 0.930 . S
C1598 N1594 1.389 . S
C1598 C1597 1.351 . S
C1598 H1603 0.930 . S
O1599 Cu1593 1.974 . S
O1599 C1609 1.282 . S
C1600 O1601 1.261 . S
C1600 O1613 1.251 . S
O1601 C1600 1.261 . S
H1602 C1596 0.930 . S
H1603 C1598 0.930 . S
N1604 Cu1593 1.985 . S
N1604 C1606 1.335 . S
N1604 C1607 1.390 . S
N1605 C1606 1.345 . S
N1605 C1608 1.336 . S
C1606 N1604 1.335 . S
C1606 N1605 1.345 . S
C1606 H1611 0.930 . S
C1607 N1604 1.390 . S
C1607 C1608 1.346 . S
C1607 H1612 0.930 . S
C1608 N1605 1.336 . S
C1608 C1607 1.346 . S
C1608 H1615 0.929 . S
C1609 O1599 1.282 . S
C1609 O1610 1.216 . S
O1610 C1609 1.216 . S
H1611 C1606 0.930 . S
H1612 C1607 0.930 . S
O1613 Cu1593 1.959 . S
O1613 C1600 1.251 . S
H1614 C1597 0.930 . S
H1615 C1608 0.929 . S
Cu1616 N1617 1.999 . S
Cu1616 O1622 1.974 . S
Cu1616 N1627 1.985 . S
Cu1616 O1636 1.959 . S
N1617 Cu1616 1.999 . S
N1617 C1619 1.263 . S
N1617 C1621 1.389 . S
N1618 C1619 1.358 . S
N1618 C1620 1.400 . S
C1619 N1617 1.263 . S
C1619 N1618 1.358 . S
C1619 H1625 0.930 . S
C1620 N1618 1.400 . S
C1620 C1621 1.351 . S
C1620 H1637 0.930 . S
C1621 N1617 1.389 . S
C1621 C1620 1.351 . S
C1621 H1626 0.930 . S
O1622 Cu1616 1.974 . S
O1622 C1632 1.282 . S
C1623 O1624 1.261 . S
C1623 O1636 1.251 . S
O1624 C1623 1.261 . S
H1625 C1619 0.930 . S
H1626 C1621 0.930 . S
N1627 Cu1616 1.985 . S
N1627 C1629 1.335 . S
N1627 C1630 1.390 . S
N1628 C1629 1.345 . S
N1628 C1631 1.336 . S
C1629 N1627 1.335 . S
C1629 N1628 1.345 . S
C1629 H1634 0.930 . S
C1630 N1627 1.390 . S
C1630 C1631 1.346 . S
C1630 H1635 0.930 . S
C1631 N1628 1.336 . S
C1631 C1630 1.346 . S
C1631 H1638 0.929 . S
C1632 O1622 1.282 . S
C1632 O1633 1.216 . S
O1633 C1632 1.216 . S
H1634 C1629 0.930 . S
H1635 C1630 0.930 . S
O1636 Cu1616 1.959 . S
O1636 C1623 1.251 . S
H1637 C1620 0.930 . S
H1638 C1631 0.929 . S
Cu1639 N1640 1.999 . S
Cu1639 O1645 1.974 . S
Cu1639 N1650 1.985 . S
Cu1639 O1659 1.959 . S
N1640 Cu1639 1.999 . S
N1640 C1642 1.263 . S
N1640 C1644 1.389 . S
N1641 C1642 1.358 . S
N1641 C1643 1.400 . S
C1642 N1640 1.263 . S
C1642 N1641 1.358 . S
C1642 H1648 0.930 . S
C1643 N1641 1.400 . S
C1643 C1644 1.351 . S
C1643 H1660 0.930 . S
C1644 N1640 1.389 . S
C1644 C1643 1.351 . S
C1644 H1649 0.930 . S
O1645 Cu1639 1.974 . S
O1645 C1655 1.282 . S
C1646 O1647 1.261 . S
C1646 O1659 1.251 . S
O1647 C1646 1.261 . S
H1648 C1642 0.930 . S
H1649 C1644 0.930 . S
N1650 Cu1639 1.985 . S
N1650 C1652 1.335 . S
N1650 C1653 1.390 . S
N1651 C1652 1.345 . S
N1651 C1654 1.336 . S
C1652 N1650 1.335 . S
C1652 N1651 1.345 . S
C1652 H1657 0.930 . S
C1653 N1650 1.390 . S
C1653 C1654 1.346 . S
C1653 H1658 0.930 . S
C1654 N1651 1.336 . S
C1654 C1653 1.346 . S
C1654 H1661 0.929 . S
C1655 O1645 1.282 . S
C1655 O1656 1.216 . S
O1656 C1655 1.216 . S
H1657 C1652 0.930 . S
H1658 C1653 0.930 . S
O1659 Cu1639 1.959 . S
O1659 C1646 1.251 . S
H1660 C1643 0.930 . S
H1661 C1654 0.929 . S
Cu1662 N1663 1.999 . S
Cu1662 O1668 1.974 . S
Cu1662 N1673 1.985 . S
Cu1662 O1682 1.959 . S
N1663 Cu1662 1.999 . S
N1663 C1665 1.263 . S
N1663 C1667 1.389 . S
N1664 C1665 1.358 . S
N1664 C1666 1.400 . S
C1665 N1663 1.263 . S
C1665 N1664 1.358 . S
C1665 H1671 0.930 . S
C1666 N1664 1.400 . S
C1666 C1667 1.351 . S
C1666 H1683 0.930 . S
C1667 N1663 1.389 . S
C1667 C1666 1.351 . S
C1667 H1672 0.930 . S
O1668 Cu1662 1.974 . S
O1668 C1678 1.282 . S
C1669 O1670 1.261 . S
C1669 O1682 1.251 . S
O1670 C1669 1.261 . S
H1671 C1665 0.930 . S
H1672 C1667 0.930 . S
N1673 Cu1662 1.985 . S
N1673 C1675 1.335 . S
N1673 C1676 1.390 . S
N1674 C1675 1.345 . S
N1674 C1677 1.336 . S
C1675 N1673 1.335 . S
C1675 N1674 1.345 . S
C1675 H1680 0.930 . S
C1676 N1673 1.390 . S
C1676 C1677 1.346 . S
C1676 H1681 0.930 . S
C1677 N1674 1.336 . S
C1677 C1676 1.346 . S
C1677 H1684 0.929 . S
C1678 O1668 1.282 . S
C1678 O1679 1.216 . S
O1679 C1678 1.216 . S
H1680 C1675 0.930 . S
H1681 C1676 0.930 . S
O1682 Cu1662 1.959 . S
O1682 C1669 1.251 . S
H1683 C1666 0.930 . S
H1684 C1677 0.929 . S
Cu1685 N1686 1.999 . S
Cu1685 O1691 1.974 . S
Cu1685 N1696 1.985 . S
Cu1685 O1705 1.959 . S
N1686 Cu1685 1.999 . S
N1686 C1688 1.263 . S
N1686 C1690 1.389 . S
N1687 C1688 1.358 . S
N1687 C1689 1.400 . S
C1688 N1686 1.263 . S
C1688 N1687 1.358 . S
C1688 H1694 0.930 . S
C1689 N1687 1.400 . S
C1689 C1690 1.351 . S
C1689 H1706 0.930 . S
C1690 N1686 1.389 . S
C1690 C1689 1.351 . S
C1690 H1695 0.930 . S
O1691 Cu1685 1.974 . S
O1691 C1701 1.282 . S
C1692 O1693 1.261 . S
C1692 O1705 1.251 . S
O1693 C1692 1.261 . S
H1694 C1688 0.930 . S
H1695 C1690 0.930 . S
N1696 Cu1685 1.985 . S
N1696 C1698 1.335 . S
N1696 C1699 1.390 . S
N1697 C1698 1.345 . S
N1697 C1700 1.336 . S
C1698 N1696 1.335 . S
C1698 N1697 1.345 . S
C1698 H1703 0.930 . S
C1699 N1696 1.390 . S
C1699 C1700 1.346 . S
C1699 H1704 0.930 . S
C1700 N1697 1.336 . S
C1700 C1699 1.346 . S
C1700 H1707 0.929 . S
C1701 O1691 1.282 . S
C1701 O1702 1.216 . S
O1702 C1701 1.216 . S
H1703 C1698 0.930 . S
H1704 C1699 0.930 . S
O1705 Cu1685 1.959 . S
O1705 C1692 1.251 . S
H1706 C1689 0.930 . S
H1707 C1700 0.929 . S
Cu1708 N1709 1.999 . S
Cu1708 O1714 1.974 . S
Cu1708 N1719 1.985 . S
Cu1708 O1728 1.959 . S
N1709 Cu1708 1.999 . S
N1709 C1711 1.263 . S
N1709 C1713 1.389 . S
N1710 C1711 1.358 . S
N1710 C1712 1.400 . S
C1711 N1709 1.263 . S
C1711 N1710 1.358 . S
C1711 H1717 0.930 . S
C1712 N1710 1.400 . S
C1712 C1713 1.351 . S
C1712 H1729 0.930 . S
C1713 N1709 1.389 . S
C1713 C1712 1.351 . S
C1713 H1718 0.930 . S
O1714 Cu1708 1.974 . S
O1714 C1724 1.282 . S
C1715 O1716 1.261 . S
C1715 O1728 1.251 . S
O1716 C1715 1.261 . S
H1717 C1711 0.930 . S
H1718 C1713 0.930 . S
N1719 Cu1708 1.985 . S
N1719 C1721 1.335 . S
N1719 C1722 1.390 . S
N1720 C1721 1.345 . S
N1720 C1723 1.336 . S
C1721 N1719 1.335 . S
C1721 N1720 1.345 . S
C1721 H1726 0.930 . S
C1722 N1719 1.390 . S
C1722 C1723 1.346 . S
C1722 H1727 0.930 . S
C1723 N1720 1.336 . S
C1723 C1722 1.346 . S
C1723 H1730 0.929 . S
C1724 O1714 1.282 . S
C1724 O1725 1.216 . S
O1725 C1724 1.216 . S
H1726 C1721 0.930 . S
H1727 C1722 0.930 . S
O1728 Cu1708 1.959 . S
O1728 C1715 1.251 . S
H1729 C1712 0.930 . S
H1730 C1723 0.929 . S
Cu1731 N1732 1.999 . S
Cu1731 O1737 1.974 . S
Cu1731 N1742 1.985 . S
Cu1731 O1751 1.959 . S
N1732 Cu1731 1.999 . S
N1732 C1734 1.263 . S
N1732 C1736 1.389 . S
N1733 C1734 1.358 . S
N1733 C1735 1.400 . S
C1734 N1732 1.263 . S
C1734 N1733 1.358 . S
C1734 H1740 0.930 . S
C1735 N1733 1.400 . S
C1735 C1736 1.351 . S
C1735 H1752 0.930 . S
C1736 N1732 1.389 . S
C1736 C1735 1.351 . S
C1736 H1741 0.930 . S
O1737 Cu1731 1.974 . S
O1737 C1747 1.282 . S
C1738 O1739 1.261 . S
C1738 O1751 1.251 . S
O1739 C1738 1.261 . S
H1740 C1734 0.930 . S
H1741 C1736 0.930 . S
N1742 Cu1731 1.985 . S
N1742 C1744 1.335 . S
N1742 C1745 1.390 . S
N1743 C1744 1.345 . S
N1743 C1746 1.336 . S
C1744 N1742 1.335 . S
C1744 N1743 1.345 . S
C1744 H1749 0.930 . S
C1745 N1742 1.390 . S
C1745 C1746 1.346 . S
C1745 H1750 0.930 . S
C1746 N1743 1.336 . S
C1746 C1745 1.346 . S
C1746 H1753 0.929 . S
C1747 O1737 1.282 . S
C1747 O1748 1.216 . S
O1748 C1747 1.216 . S
H1749 C1744 0.930 . S
H1750 C1745 0.930 . S
O1751 Cu1731 1.959 . S
O1751 C1738 1.251 . S
H1752 C1735 0.930 . S
H1753 C1746 0.929 . S
Cu1754 N1755 1.999 . S
Cu1754 O1760 1.974 . S
Cu1754 N1765 1.985 . S
Cu1754 O1774 1.959 . S
N1755 Cu1754 1.999 . S
N1755 C1757 1.263 . S
N1755 C1759 1.389 . S
N1756 C1757 1.358 . S
N1756 C1758 1.400 . S
C1757 N1755 1.263 . S
C1757 N1756 1.358 . S
C1757 H1763 0.930 . S
C1758 N1756 1.400 . S
C1758 C1759 1.351 . S
C1758 H1775 0.930 . S
C1759 N1755 1.389 . S
C1759 C1758 1.351 . S
C1759 H1764 0.930 . S
O1760 Cu1754 1.974 . S
O1760 C1770 1.282 . S
C1761 O1762 1.261 . S
C1761 O1774 1.251 . S
O1762 C1761 1.261 . S
H1763 C1757 0.930 . S
H1764 C1759 0.930 . S
N1765 Cu1754 1.985 . S
N1765 C1767 1.335 . S
N1765 C1768 1.390 . S
N1766 C1767 1.345 . S
N1766 C1769 1.336 . S
C1767 N1765 1.335 . S
C1767 N1766 1.345 . S
C1767 H1772 0.930 . S
C1768 N1765 1.390 . S
C1768 C1769 1.346 . S
C1768 H1773 0.930 . S
C1769 N1766 1.336 . S
C1769 C1768 1.346 . S
C1769 H1776 0.929 . S
C1770 O1760 1.282 . S
C1770 O1771 1.216 . S
O1771 C1770 1.216 . S
H1772 C1767 0.930 . S
H1773 C1768 0.930 . S
O1774 Cu1754 1.959 . S
O1774 C1761 1.251 . S
H1775 C1758 0.930 . S
H1776 C1769 0.929 . S
Cu1777 N1778 1.999 . S
Cu1777 O1783 1.974 . S
Cu1777 N1788 1.985 . S
Cu1777 O1797 1.959 . S
N1778 Cu1777 1.999 . S
N1778 C1780 1.263 . S
N1778 C1782 1.389 . S
N1779 C1780 1.358 . S
N1779 C1781 1.400 . S
C1780 N1778 1.263 . S
C1780 N1779 1.358 . S
C1780 H1786 0.930 . S
C1781 N1779 1.400 . S
C1781 C1782 1.351 . S
C1781 H1798 0.930 . S
C1782 N1778 1.389 . S
C1782 C1781 1.351 . S
C1782 H1787 0.930 . S
O1783 Cu1777 1.974 . S
O1783 C1793 1.282 . S
C1784 O1785 1.261 . S
C1784 O1797 1.251 . S
O1785 C1784 1.261 . S
H1786 C1780 0.930 . S
H1787 C1782 0.930 . S
N1788 Cu1777 1.985 . S
N1788 C1790 1.335 . S
N1788 C1791 1.390 . S
N1789 C1790 1.345 . S
N1789 C1792 1.336 . S
C1790 N1788 1.335 . S
C1790 N1789 1.345 . S
C1790 H1795 0.930 . S
C1791 N1788 1.390 . S
C1791 C1792 1.346 . S
C1791 H1796 0.930 . S
C1792 N1789 1.336 . S
C1792 C1791 1.346 . S
C1792 H1799 0.929 . S
C1793 O1783 1.282 . S
C1793 O1794 1.216 . S
O1794 C1793 1.216 . S
H1795 C1790 0.930 . S
H1796 C1791 0.930 . S
O1797 Cu1777 1.959 . S
O1797 C1784 1.251 . S
H1798 C1781 0.930 . S
H1799 C1792 0.929 . S
N1260 C1 1.514 . S
C1287 C60 1.794 . S
C79 C1301 1.555 . S
N1319 C118 1.431 . S
C177 C1324 1.735 . S
C196 C1264 1.730 . S
C250 N1283 1.345 . S
N1296 C274 1.524 . S
N1342 C16 1.391 . S
C55 N1365 1.731 . S
C99 N1388 2.050 . S
N1421 C133 1.340 . S
C157 C1448 1.631 . S
C1471 C211 1.700 . S
C255 C1494 1.635 . S
C1508 C294 1.428 . S
C21 C1425 1.655 . S
C172 N1467 1.466 . S
N1490 C216 1.404 . S
C235 N1503 1.484 . S
N1444 C289 1.400 . S
C1370 C94 1.874 . S
C138 C1393 1.544 . S
C1347 C40 1.883 . S
C1540 C313 1.558 . S
C372 C1554 1.729 . S
C391 N1582 1.444 . S
N1595 C430 1.407 . S
C489 C1600 1.788 . S
C508 N1536 1.640 . S
C562 N1549 1.685 . S
C586 C1586 1.505 . S
N1434 C328 1.439 . S
C367 N1618 1.507 . S
N1480 C411 1.560 . S
C445 C1655 1.729 . S
C469 C1356 1.771 . S
C1669 C523 1.760 . S
C567 C1402 1.534 . S
N1687 C606 1.361 . S
C333 N1651 1.412 . S
N1664 C484 1.621 . S
C528 N1398 1.428 . S
C1692 C547 1.357 . S
C601 N1352 1.377 . S
C406 C1623 1.700 . S
C450 C1485 1.620 . S
C352 C1439 1.797 . S
C625 C1577 1.608 . S
C1609 C684 1.630 . S
C703 N1526 1.425 . S
C742 N1559 1.349 . S
C801 C1563 1.793 . S
C820 N1572 1.698 . S
N1605 C874 1.256 . S
C898 C1531 1.536 . S
N1720 C640 1.399 . S
C679 N1457 1.511 . S
N1743 C723 1.482 . S
C757 N1513 1.612 . S
C781 C1761 1.670 . S
C835 C1379 1.911 . S
N1779 C879 1.305 . S
C918 C1416 1.540 . S
C1517 C645 1.656 . S
N1375 C796 1.595 . S
C840 C1784 1.664 . S
C859 N1411 1.263 . S
N1756 C913 1.625 . S
C1462 C718 1.797 . S
C1747 C762 1.707 . S
C1724 C664 1.834 . S
C937 N1306 1.330 . S
C996 C1333 1.680 . S
C1255 C1015 1.605 . S
N1273 C1054 1.349 . S
C1278 C1113 1.864 . S
C1310 C1132 2.029 . S
N1329 C1186 1.605 . S
C1210 N1250 1.711 . S
C952 N1766 1.258 . S
N1674 C991 1.508 . S
C1793 C1035 1.934 . S
C1701 C1069 1.330 . S
C1093 C1715 1.705 . S
C1632 C1147 1.693 . S
C1738 C1191 1.768 . S
C1230 N1641 1.459 . S
N1697 C957 1.267 . S
N1628 C1108 1.480 . S
N1733 C1152 1.366 . S
C1171 C1646 1.523 . S
C1225 N1710 1.506 . S
C1030 C1678 1.879 . S
C1074 N1789 1.277 . S
C1770 C976 1.756 . S
