# Generated by pormake.
# Topology pyr, (3,6)-cn, num edge types: 1
# Building blocks:
#     Node 0, Type 0, BuildingBlock: ESEHIV_clean_linker_0, # of connection points: 3
#     Node 1, Type 0, BuildingBlock: ESEHIV_clean_linker_0, # of connection points: 3
#     Node 2, Type 0, BuildingBlock: ESEHIV_clean_linker_0, # of connection points: 3
#     Node 3, Type 0, BuildingBlock: ESEHIV_clean_linker_0, # of connection points: 3
#     Node 4, Type 0, BuildingBlock: ESEHIV_clean_linker_0, # of connection points: 3
#     Node 5, Type 0, BuildingBlock: ESEHIV_clean_linker_0, # of connection points: 3
#     Node 6, Type 0, BuildingBlock: ESEHIV_clean_linker_0, # of connection points: 3
#     Node 7, Type 0, BuildingBlock: ESEHIV_clean_linker_0, # of connection points: 3
#     Node 8, Type 1, BuildingBlock: PAMTUU_clean_sbu_0, # of connection points: 6
#     Node 9, Type 1, BuildingBlock: PAMTUU_clean_sbu_0, # of connection points: 6
#     Node 10, Type 1, BuildingBlock: PAMTUU_clean_sbu_0, # of connection points: 6
#     Node 11, Type 1, BuildingBlock: PAMTUU_clean_sbu_0, # of connection points: 6
#     Edge 12, Type (0, 1), BuildingBlock: KIFKEQ_clean_linker_1, # of connection points: 2
#     Edge 13, Type (0, 1), BuildingBlock: KIFKEQ_clean_linker_1, # of connection points: 2
#     Edge 14, Type (0, 1), BuildingBlock: KIFKEQ_clean_linker_1, # of connection points: 2
#     Edge 15, Type (0, 1), BuildingBlock: KIFKEQ_clean_linker_1, # of connection points: 2
#     Edge 16, Type (0, 1), BuildingBlock: KIFKEQ_clean_linker_1, # of connection points: 2
#     Edge 17, Type (0, 1), BuildingBlock: KIFKEQ_clean_linker_1, # of connection points: 2
#     Edge 18, Type (0, 1), BuildingBlock: KIFKEQ_clean_linker_1, # of connection points: 2
#     Edge 19, Type (0, 1), BuildingBlock: KIFKEQ_clean_linker_1, # of connection points: 2
#     Edge 20, Type (0, 1), BuildingBlock: KIFKEQ_clean_linker_1, # of connection points: 2
#     Edge 21, Type (0, 1), BuildingBlock: KIFKEQ_clean_linker_1, # of connection points: 2
#     Edge 22, Type (0, 1), BuildingBlock: KIFKEQ_clean_linker_1, # of connection points: 2
#     Edge 23, Type (0, 1), BuildingBlock: KIFKEQ_clean_linker_1, # of connection points: 2
#     Edge 24, Type (0, 1), BuildingBlock: KIFKEQ_clean_linker_1, # of connection points: 2
#     Edge 25, Type (0, 1), BuildingBlock: KIFKEQ_clean_linker_1, # of connection points: 2
#     Edge 26, Type (0, 1), BuildingBlock: KIFKEQ_clean_linker_1, # of connection points: 2
#     Edge 27, Type (0, 1), BuildingBlock: KIFKEQ_clean_linker_1, # of connection points: 2
#     Edge 28, Type (0, 1), BuildingBlock: KIFKEQ_clean_linker_1, # of connection points: 2
#     Edge 29, Type (0, 1), BuildingBlock: KIFKEQ_clean_linker_1, # of connection points: 2
#     Edge 30, Type (0, 1), BuildingBlock: KIFKEQ_clean_linker_1, # of connection points: 2
#     Edge 31, Type (0, 1), BuildingBlock: KIFKEQ_clean_linker_1, # of connection points: 2
#     Edge 32, Type (0, 1), BuildingBlock: KIFKEQ_clean_linker_1, # of connection points: 2
#     Edge 33, Type (0, 1), BuildingBlock: KIFKEQ_clean_linker_1, # of connection points: 2
#     Edge 34, Type (0, 1), BuildingBlock: KIFKEQ_clean_linker_1, # of connection points: 2
#     Edge 35, Type (0, 1), BuildingBlock: KIFKEQ_clean_linker_1, # of connection points: 2
# Relax obj value: 0.124
# Max RMSD: 0.141
# Mean RMSD: 0.057
data_MOF--net-pyr--node1-PAMTUU_clean_sbu_0--node2-ESEHIV_clean_linker_0--edge1-KIFKEQ_clean_linker_1
_symmetry_space_group_name_H-M    P1
_symmetry_Int_Tables_number       1
_symmetry_cell_setting            triclinic
loop_
_symmetry_equiv_pos_as_xyz
'x, y, z'
_cell_length_a     36.751027
_cell_length_b     37.669351
_cell_length_c     35.589206
_cell_angle_alpha  90.036522
_cell_angle_beta   89.571943
_cell_angle_gamma 101.97153
loop_
_atom_site_label
_atom_site_type_symbol
_atom_site_fract_x
_atom_site_fract_y
_atom_site_fract_z
_atom_type_partial_charge
H0 H 0.32177 0.31091 0.27136 0.0
H1 H 0.41219 0.25504 0.26455 0.0
H2 H 0.38258 0.31131 0.16807 0.0
C3 C 0.34554 0.3049 0.25637 0.0
C4 C 0.35138 0.31603 0.21878 0.0
C5 C 0.3668 0.28229 0.27301 0.0
C6 C 0.39597 0.27288 0.25215 0.0
C7 C 0.40123 0.28225 0.21401 0.0
C8 C 0.37918 0.30442 0.19763 0.0
H9 H 0.12964 0.81594 0.77662 0.0
H10 H 0.21648 0.75541 0.78079 0.0
H11 H 0.16151 0.76546 0.67664 0.0
C12 C 0.14575 0.79846 0.76308 0.0
C13 C 0.142 0.79205 0.72425 0.0
C14 C 0.17269 0.78556 0.78385 0.0
C15 C 0.1942 0.76384 0.76571 0.0
C16 C 0.19023 0.75629 0.72716 0.0
C17 C 0.16394 0.77034 0.70662 0.0
H18 H 0.70193 0.34488 0.92304 0.0
H19 H 0.70848 0.43432 0.84677 0.0
H20 H 0.61678 0.34154 0.84062 0.0
C21 C 0.6901 0.35795 0.90046 0.0
C22 C 0.65695 0.3392 0.88382 0.0
C23 C 0.70878 0.39257 0.88808 0.0
C24 C 0.69398 0.40809 0.85683 0.0
C25 C 0.66079 0.39015 0.83863 0.0
C26 C 0.64269 0.35551 0.85282 0.0
H27 H 0.83381 0.71988 0.42461 0.0
H28 H 0.92295 0.72306 0.34506 0.0
H29 H 0.83031 0.63102 0.34869 0.0
C30 C 0.84695 0.70694 0.40267 0.0
C31 C 0.82889 0.67244 0.38997 0.0
C32 C 0.88106 0.72552 0.38736 0.0
C33 C 0.89646 0.70934 0.35664 0.0
C34 C 0.87849 0.67501 0.34181 0.0
C35 C 0.84463 0.6571 0.35914 0.0
H36 H 0.64519 0.80414 0.82448 0.0
H37 H 0.7164 0.72815 0.83739 0.0
H38 H 0.66701 0.76664 0.9347 0.0
C39 C 0.65751 0.78663 0.8423 0.0
C40 C 0.65158 0.78688 0.88143 0.0
C41 C 0.68185 0.76651 0.82631 0.0
C42 C 0.6974 0.74358 0.84949 0.0
C43 C 0.69236 0.74366 0.88858 0.0
C44 C 0.66937 0.76528 0.9044 0.0
H45 H 0.82609 0.3425 0.34734 0.0
H46 H 0.88143 0.25396 0.32828 0.0
H47 H 0.87819 0.29835 0.43872 0.0
C48 C 0.84298 0.32414 0.35726 0.0
C49 C 0.85079 0.32346 0.3958 0.0
C50 C 0.85237 0.29826 0.33256 0.0
C51 C 0.87441 0.27477 0.34625 0.0
C52 C 0.88487 0.27543 0.38414 0.0
C53 C 0.87279 0.29973 0.4089 0.0
H54 H 0.33723 0.72257 0.18256 0.0
H55 H 0.33143 0.63349 0.25927 0.0
H56 H 0.42132 0.72769 0.26689 0.0
C57 C 0.34867 0.71026 0.20598 0.0
C58 C 0.38121 0.72964 0.22321 0.0
C59 C 0.33057 0.67544 0.21823 0.0
C60 C 0.34555 0.65997 0.24933 0.0
C61 C 0.37847 0.67824 0.26761 0.0
C62 C 0.39609 0.71317 0.25381 0.0
H63 H 0.11138 0.33823 0.76601 0.0
H64 H 0.19398 0.34241 0.67903 0.0
H65 H 0.20497 0.429 0.75949 0.0
C66 C 0.13717 0.35189 0.75289 0.0
C67 C 0.15645 0.38572 0.76743 0.0
C68 C 0.15006 0.33632 0.7204 0.0
C69 C 0.18322 0.35479 0.70302 0.0
C70 C 0.20332 0.38828 0.7165 0.0
C71 C 0.18966 0.40334 0.74884 0.0
Tb72 Tb 0.04975 0.03643 0.53267 0.0
Tb73 Tb 0.97078 1.02607 0.57882 0.0
C74 C 0.98221 0.9706 0.51406 0.0
C75 C 0.14102 0.06913 0.48313 0.0
C76 C 0.19673 0.12033 0.44717 0.0
C77 C 0.1963 0.08304 0.44414 0.0
C78 C 0.16865 0.05768 0.46198 0.0
C79 C 0.14145 0.10632 0.48682 0.0
C80 C 0.16932 0.13185 0.46901 0.0
C81 C 0.11235 0.04164 0.50117 0.0
O82 O 0.01745 0.06663 0.49876 0.0
O83 O 0.97029 0.07056 0.5408 0.0
O84 O 1.01052 0.06917 0.60817 0.0
O85 O 0.05255 0.0884 0.56061 0.0
O86 O 0.91386 1.02628 0.57974 0.0
O87 O 0.94244 1.01706 0.63055 0.0
O88 O 0.99506 0.98053 0.59439 0.0
O89 O 0.05481 1.01065 0.58637 0.0
O90 O 0.01841 0.9831 0.51517 0.0
O91 O 0.95887 0.98669 0.53258 0.0
C92 C 0.98828 0.0795 0.50913 0.0
O93 O 0.10771 0.04547 0.53714 0.0
O94 O 0.0808 0.03269 0.48358 0.0
C95 C 0.0379 0.09375 0.59345 0.0
C96 C 0.88063 0.98559 0.62365 0.0
C97 C 0.82417 0.92519 0.64184 0.0
C98 C 0.82649 0.95848 0.66068 0.0
C99 C 0.85443 0.98842 0.65156 0.0
C100 C 0.87837 0.95269 0.60441 0.0
C101 C 0.85026 0.92274 0.61332 0.0
C102 C 0.91035 1.01697 0.61505 0.0
C103 C 0.0306 0.98316 0.59996 0.0
H104 H 0.21738 0.07347 0.42788 0.0
H105 H 0.16875 1.02905 0.45914 0.0
H106 H 0.12019 0.11549 0.50319 0.0
H107 H 0.16893 0.16043 0.47154 0.0
H108 H 0.80746 0.96117 0.68337 0.0
H109 H 0.85594 1.01363 0.66673 0.0
H110 H 0.89852 0.95013 0.58275 0.0
H111 H 0.84916 0.89763 0.59812 0.0
Tb112 Tb 0.55961 0.03771 0.07441 0.0
Tb113 Tb 0.48342 1.02644 1.02419 0.0
C114 C 0.54394 0.9804 1.0081 0.0
C115 C 0.64321 0.08264 0.12578 0.0
C116 C 0.68963 0.14594 0.15328 0.0
C117 C 0.70456 0.11583 0.14308 0.0
C118 C 0.68144 0.08434 0.12951 0.0
C119 C 0.62834 0.11301 0.13488 0.0
C120 C 0.65137 0.14437 0.1488 0.0
C121 C 0.61945 0.0497 0.11078 0.0
O122 O 0.5663 0.08656 1.03948 0.0
O123 O 0.52404 0.06722 0.99263 0.0
O124 O 0.48789 0.07713 0.05388 0.0
O125 O 0.5229 0.06711 0.10406 0.0
O126 O 0.45411 1.01639 0.9736 0.0
O127 O 0.42676 1.02787 1.02494 0.0
O128 O 0.46991 0.98865 0.07211 0.0
O129 O 0.52818 0.98451 0.09227 0.0
O130 O 0.56829 1.00312 1.0279 0.0
O131 O 0.50881 0.98231 1.00616 0.0
C132 C 0.55233 0.09119 1.00626 0.0
O133 O 0.58665 0.0396 0.12633 0.0
O134 O 0.61789 0.04811 0.07427 0.0
C135 C 0.50091 0.08553 0.08752 0.0
C136 C 0.39127 0.98803 0.98228 0.0
C137 C 0.33078 0.93104 0.96634 0.0
C138 C 0.32977 0.96703 0.95663 0.0
C139 C 0.35977 0.99524 0.96457 0.0
C140 C 0.39232 0.95236 0.99281 0.0
C141 C 0.36228 0.92399 0.98478 0.0
C142 C 0.42254 1.0181 0.98983 0.0
C143 C 0.49197 0.97208 0.09164 0.0
H144 H 0.73389 0.11625 0.14669 0.0
H145 H 0.69336 0.06123 0.12214 0.0
H146 H 0.59894 0.1124 0.13144 0.0
H147 H 0.63927 0.16732 0.15628 0.0
H148 H 0.3063 0.97331 0.94174 0.0
H149 H 0.35857 1.02269 0.9564 0.0
H150 H 0.41646 0.94649 1.00688 0.0
H151 H 0.36378 0.89659 0.99272 0.0
Tb152 Tb 0.5157 0.49426 0.52998 0.0
Tb153 Tb 0.51743 0.56898 0.5764 0.0
C154 C 0.48171 0.55833 0.49463 0.0
C155 C 0.55595 0.42157 0.49453 0.0
C156 C 0.62427 0.39919 0.48725 0.0
C157 C 0.59476 0.38602 0.46253 0.0
C158 C 0.56088 0.39729 0.46606 0.0
C159 C 0.58494 0.43386 0.51989 0.0
C160 C 0.61873 0.42278 0.51632 0.0
C161 C 0.52264 0.43744 0.49578 0.0
O162 O 0.57332 0.52414 0.52602 0.0
O163 O 0.56649 0.58181 0.5399 0.0
O164 O 0.55421 0.54155 0.60922 0.0
O165 O 0.53425 0.48378 0.5867 0.0
O166 O 0.52151 0.62546 0.57631 0.0
O167 O 0.51294 0.59509 0.62789 0.0
O168 O 0.46887 0.53042 0.59757 0.0
O169 O 0.45814 0.48819 0.55028 0.0
O170 O 0.49788 0.53066 0.48875 0.0
O171 O 0.48026 0.57184 0.52867 0.0
C172 C 0.58581 0.55943 0.52527 0.0
O173 O 0.50654 0.43725 0.52854 0.0
O174 O 0.52684 0.46907 0.47973 0.0
C175 C 0.55219 0.50623 0.61196 0.0
C176 C 0.47859 0.64004 0.61943 0.0
C177 C 0.41296 0.66462 0.63598 0.0
C178 C 0.44742 0.68299 0.65024 0.0
C179 C 0.48004 0.67071 0.64203 0.0
C180 C 0.4444 0.62194 0.6048 0.0
C181 C 0.41192 0.63413 0.61292 0.0
C182 C 0.51212 0.62584 0.61163 0.0
C183 C 0.44738 0.50257 0.58117 0.0
H184 H 0.59834 0.36809 0.43961 0.0
H185 H 0.539 0.38792 0.44596 0.0
H186 H 0.58182 0.45288 0.54191 0.0
H187 H 0.64069 0.43304 0.53606 0.0
H188 H 0.44904 0.70632 0.66841 0.0
H189 H 0.50622 0.68486 0.65365 0.0
H190 H 0.44279 0.59813 0.58731 0.0
H191 H 0.38598 0.61969 0.60107 0.0
Tb192 Tb 0.02151 0.56937 1.03112 0.0
Tb193 Tb 0.01799 0.4943 0.07756 0.0
C194 C 0.05465 0.50493 0.99596 0.0
C195 C 0.98652 0.64468 0.99289 0.0
C196 C 0.92005 0.66864 0.97989 0.0
C197 C 0.95038 0.67784 0.95482 0.0
C198 C 0.98337 0.66589 0.96128 0.0
C199 C 0.95682 0.63654 1.01866 0.0
C200 C 0.92395 0.64857 1.01233 0.0
C201 C 0.01839 0.62705 0.99658 0.0
O202 O 0.96369 0.54019 1.02544 0.0
O203 O 0.96867 0.48238 1.04169 0.0
O204 O 0.9819 0.5223 0.111 0.0
O205 O 1.00128 0.5799 0.08734 0.0
O206 O 1.01353 0.43776 0.07698 0.0
O207 O 0.02178 0.46762 0.12879 0.0
O208 O 0.06637 0.53236 0.09931 0.0
O209 O 0.07859 0.5742 1.0517 0.0
O210 O 0.03842 0.5324 0.99 0.0
O211 O 0.05606 0.49174 1.03006 0.0
C212 C 0.95034 0.50493 1.02584 0.0
O213 O 0.03188 0.62641 1.03025 0.0
O214 O 1.01395 0.59545 0.98051 0.0
C215 C 0.98376 0.55762 0.11319 0.0
C216 C 0.05623 0.42272 0.11957 0.0
C217 C 0.12206 0.39871 0.13591 0.0
C218 C 0.08802 0.38197 0.1528 0.0
C219 C 0.0553 0.39389 0.14462 0.0
C220 C 0.09006 0.4393 0.10255 0.0
C221 C 0.12262 0.42734 0.11051 0.0
C222 C 0.02273 0.43703 0.11219 0.0
C223 C 0.08851 0.55994 0.08287 0.0
H224 H 0.94828 0.69361 0.92979 0.0
H225 H 1.00587 0.67209 0.94093 0.0
H226 H 0.95846 0.61961 1.04292 0.0
H227 H 0.90098 0.64067 1.03189 0.0
H228 H 0.08673 0.35969 0.17232 0.0
H229 H 0.02944 0.38093 0.15814 0.0
H230 H 0.09144 0.46197 0.08353 0.0
H231 H 0.14843 0.4412 0.09755 0.0
H232 H 0.36702 0.21143 0.28991 0.0
H233 H 0.33397 0.30672 0.33536 0.0
H234 H 0.33158 0.17468 0.33827 0.0
H235 H 0.29564 0.26866 0.38235 0.0
H236 H 0.23968 0.18444 0.4721 0.0
H237 H 0.28826 0.22599 0.43668 0.0
H238 H 0.26446 0.15673 0.33924 0.0
H239 H 0.21681 0.11563 0.37437 0.0
C240 C 0.35319 0.22498 0.31076 0.0
C241 C 0.35302 0.26222 0.3081 0.0
C242 C 0.33218 0.20356 0.33821 0.0
C243 C 0.30979 0.21855 0.3632 0.0
C244 C 0.31234 0.25627 0.36316 0.0
C245 C 0.33401 0.27799 0.33597 0.0
C246 C 0.24495 0.17836 0.44306 0.0
C247 C 0.22494 0.14662 0.42606 0.0
C248 C 0.27272 0.202 0.42289 0.0
C249 C 0.28075 0.19417 0.38549 0.0
C250 C 0.25988 0.16292 0.3684 0.0
C251 C 0.23242 0.13943 0.38845 0.0
H252 H 0.1961 0.75041 0.84418 0.0
H253 H 0.175 0.85435 0.8097 0.0
H254 H 0.22756 0.7789 0.90024 0.0
H255 H 0.20475 0.88192 0.86579 0.0
H256 H 0.33704 0.86635 0.93503 0.0
H257 H 0.28896 0.82398 0.9019 0.0
H258 H 0.20763 0.88586 0.93571 0.0
H259 H 0.25578 0.92823 0.96929 0.0
C260 C 0.19729 0.77902 0.84892 0.0
C261 C 0.18334 0.80008 0.82204 0.0
C262 C 0.21513 0.79523 0.8811 0.0
C263 C 0.21874 0.83262 0.88728 0.0
C264 C 0.20195 0.85293 0.86214 0.0
C265 C 0.18468 0.83694 0.82984 0.0
C266 C 0.30867 0.8702 0.93662 0.0
C267 C 0.30033 0.90106 0.95408 0.0
C268 C 0.28105 0.84583 0.91768 0.0
C269 C 0.24466 0.85193 0.91581 0.0
C270 C 0.2356 0.88084 0.93628 0.0
C271 C 0.26318 0.90515 0.9553 0.0
H272 H 0.61788 0.35731 0.77871 0.0
H273 H 0.66698 0.46365 0.8214 0.0
H274 H 0.59187 0.38495 0.72677 0.0
H275 H 0.6439 0.49123 0.76761 0.0
H276 H 0.57382 0.53709 0.68127 0.0
H277 H 0.59853 0.50987 0.73505 0.0
H278 H 0.59702 0.41249 0.67024 0.0
H279 H 0.57046 0.43914 0.61766 0.0
C280 C 0.6234 0.38663 0.77733 0.0
C281 C 0.64501 0.40769 0.80528 0.0
C282 C 0.60883 0.40279 0.74658 0.0
C283 C 0.61553 0.4409 0.74176 0.0
C284 C 0.63722 0.46196 0.76968 0.0
C285 C 0.65133 0.4458 0.80073 0.0
C286 C 0.57884 0.50987 0.67847 0.0
C287 C 0.56981 0.49053 0.64473 0.0
C288 C 0.59337 0.49405 0.70956 0.0
C289 C 0.60011 0.45835 0.70809 0.0
C290 C 0.5917 0.43947 0.67381 0.0
C291 C 0.57661 0.45505 0.64306 0.0
H292 H 0.92216 0.70789 0.28191 0.0
H293 H 0.87278 0.60166 0.3253 0.0
H294 H 0.94761 0.67996 0.22914 0.0
H295 H 0.89519 0.57391 0.27098 0.0
H296 H 0.96386 0.5275 0.18327 0.0
H297 H 0.94063 0.55534 0.23784 0.0
H298 H 0.94031 0.65197 0.17249 0.0
H299 H 0.96545 0.62469 0.11896 0.0
C300 C 0.91648 0.67857 0.28046 0.0
C301 C 0.89482 0.65755 0.30866 0.0
C302 C 0.93071 0.66228 0.24936 0.0
C303 C 0.92359 0.62415 0.24463 0.0
C304 C 0.9021 0.60318 0.27298 0.0
C305 C 0.88838 0.61943 0.30431 0.0
C306 C 0.9587 0.55465 0.1805 0.0
C307 C 0.96674 0.57361 0.14633 0.0
C308 C 0.94505 0.57083 0.21204 0.0
C309 C 0.93826 0.60649 0.21057 0.0
C310 C 0.94572 0.62502 0.17592 0.0
C311 C 0.95993 0.60907 0.14467 0.0
H312 H 0.47041 0.26861 0.22865 0.0
H313 H 0.38205 0.24907 0.1471 0.0
H314 H 0.50014 0.2244 0.19679 0.0
H315 H 0.4113 0.20514 0.11566 0.0
H316 H 0.47927 0.14124 1.05209 0.0
H317 H 0.46263 0.19462 0.07955 0.0
H318 H 0.48691 0.15855 0.19009 0.0
H319 H 0.50499 0.10524 0.16215 0.0
C320 C 0.45776 0.25542 0.20351 0.0
C321 C 0.42389 0.26239 0.19039 0.0
C322 C 0.4746 0.22991 0.18547 0.0
C323 C 0.45794 0.21093 0.1539 0.0
C324 C 0.42524 0.21954 0.13959 0.0
C325 C 0.40849 0.24498 0.15754 0.0
C326 C 0.48115 0.14461 0.0823 0.0
C327 C 0.49271 0.1186 0.10509 0.0
C328 C 0.47159 0.17531 0.09803 0.0
C329 C 0.47288 0.18068 0.13706 0.0
C330 C 0.48585 0.15539 0.15986 0.0
C331 C 0.4959 0.12469 0.14396 0.0
H332 H 0.07308 0.80611 0.74022 0.0
H333 H 0.16198 0.82703 0.65786 0.0
H334 H 0.04377 0.85101 0.70975 0.0
H335 H 0.13197 0.87052 0.6267 0.0
H336 H 0.10215 0.98114 0.61766 0.0
H337 H 0.12529 0.9312 0.64509 0.0
H338 H 1.01314 0.86783 0.65271 0.0
H339 H 0.98967 0.91829 0.62562 0.0
C340 C 0.08593 0.81972 0.71519 0.0
C341 C 0.12002 0.81319 0.70169 0.0
C342 C 0.06904 0.84526 0.69762 0.0
C343 C 0.08593 0.86476 0.66623 0.0
C344 C 0.11869 0.85647 0.65132 0.0
C345 C 0.13558 0.83105 0.66886 0.0
C346 C 0.0823 0.95669 0.62533 0.0
C347 C 0.04405 0.9537 0.61937 0.0
C348 C 0.09564 0.92789 0.64074 0.0
C349 C 0.0711 0.89534 0.65051 0.0
C350 C 0.03271 0.89259 0.64548 0.0
C351 C 0.01931 0.9215 0.62999 0.0
H352 H 0.77223 0.43887 0.85941 0.0
H353 H 0.72508 0.39103 0.96378 0.0
H354 H 0.82899 0.46718 0.89265 0.0
H355 H 0.78208 0.418 0.9962 0.0
H356 H 0.9058 0.43655 1.03195 0.0
H357 H 0.84804 0.41152 0.99897 0.0
H358 H 0.85437 0.51377 0.94222 0.0
H359 H 0.91203 0.53903 0.97556 0.0
C360 C 0.77358 0.43444 0.88936 0.0
C361 C 0.74359 0.4119 0.90838 0.0
C362 C 0.80641 0.45067 0.9085 0.0
C363 C 0.81061 0.44464 0.94722 0.0
C364 C 0.78045 0.42276 0.96632 0.0
C365 C 0.74756 0.40704 0.94742 0.0
C366 C 0.89488 0.45388 1.01264 0.0
C367 C 0.91386 0.49 1.00677 0.0
C368 C 0.86153 0.43949 0.9937 0.0
C369 C 0.84623 0.46047 0.96769 0.0
C370 C 0.86526 0.49658 0.9617 0.0
C371 C 0.89832 0.51119 0.98114 0.0
H372 H 0.76611 0.62707 0.36019 0.0
H373 H 0.81161 0.67268 0.46545 0.0
H374 H 0.70868 0.59831 0.39297 0.0
H375 H 0.75394 0.64535 0.49741 0.0
H376 H 0.62901 0.62822 0.53062 0.0
H377 H 0.68743 0.65337 0.49798 0.0
H378 H 0.68391 0.55044 0.44344 0.0
H379 H 0.62564 0.52499 0.47651 0.0
C380 C 0.7642 0.63089 0.39023 0.0
C381 C 0.79382 0.65291 0.40975 0.0
C382 C 0.73107 0.61444 0.40905 0.0
C383 C 0.72637 0.61984 0.44785 0.0
C384 C 0.75616 0.64115 0.46744 0.0
C385 C 0.78934 0.65705 0.44886 0.0
C386 C 0.64071 0.6108 0.51187 0.0
C387 C 0.62244 0.57445 0.50646 0.0
C388 C 0.67435 0.62524 0.49316 0.0
C389 C 0.69051 0.60402 0.46792 0.0
C390 C 0.67221 0.5677 0.46238 0.0
C391 C 0.63887 0.55303 0.48162 0.0
H392 H 0.32507 0.37378 0.24561 0.0
H393 H 0.31488 0.29903 0.15239 0.0
H394 H 0.27117 0.39588 0.22326 0.0
H395 H 0.26093 0.32108 0.13003 0.0
H396 H 0.17801 0.3887 0.08839 0.0
H397 H 0.2373 0.37332 0.10502 0.0
H398 H 0.20446 0.36758 0.22203 0.0
H399 H 0.14575 0.38382 0.20553 0.0
C400 C 0.31167 0.36256 0.21996 0.0
C401 C 0.32405 0.33457 0.20087 0.0
C402 C 0.28068 0.375 0.20732 0.0
C403 C 0.26141 0.35975 0.17528 0.0
C404 C 0.27527 0.33345 0.15475 0.0
C405 C 0.30629 0.32095 0.16745 0.0
C406 C 0.18359 0.38431 0.11767 0.0
C407 C 0.15722 0.38748 0.14567 0.0
C408 C 0.21742 0.37531 0.12715 0.0
C409 C 0.2257 0.36956 0.16485 0.0
C410 C 0.19918 0.37244 0.19277 0.0
C411 C 0.16532 0.38123 0.18329 0.0
H412 H 0.64626 0.3196 0.95807 0.0
H413 H 0.62363 0.27572 0.84674 0.0
H414 H 0.62072 0.26048 0.98519 0.0
H415 H 0.59812 0.21579 0.87405 0.0
H416 H 0.5272 0.11744 0.94035 0.0
H417 H 0.54988 0.17635 0.90988 0.0
H418 H 0.63481 0.2032 0.99436 0.0
H419 H 0.61183 0.14523 1.02493 0.0
C420 C 0.63601 0.29726 0.93919 0.0
C421 C 0.6377 0.3028 0.89997 0.0
C422 C 0.62137 0.26299 0.95488 0.0
C423 C 0.60776 0.23254 0.9321 0.0
C424 C 0.60813 0.23826 0.89281 0.0
C425 C 0.6228 0.27282 0.87702 0.0
C426 C 0.55085 0.13583 0.95233 0.0
C427 C 0.56742 0.12616 0.98541 0.0
C428 C 0.56401 0.16979 0.9347 0.0
C429 C 0.59413 0.19532 0.94961 0.0
C430 C 0.61107 0.1851 0.98221 0.0
C431 C 0.59797 0.15136 0.99973 0.0
H432 H 0.92212 0.78776 0.35274 0.0
H433 H 0.88322 0.7456 0.46193 0.0
H434 H 0.94706 0.84713 0.38141 0.0
H435 H 0.90655 0.80471 0.48977 0.0
H436 H 0.91334 0.92474 0.51983 0.0
H437 H 0.89116 0.86666 0.48833 0.0
H438 H 0.99553 0.87919 0.42852 0.0
H439 H 0.01803 0.93714 0.46047 0.0
C440 C 0.919 0.79085 0.38276 0.0
C441 C 0.89976 0.76152 0.40458 0.0
C442 C 0.93319 0.82508 0.39923 0.0
C443 C 0.92824 0.83115 0.43794 0.0
C444 C 0.91012 0.80157 0.4598 0.0
C445 C 0.89656 0.76744 0.44359 0.0
C446 C 0.9316 0.91534 0.49987 0.0
C447 C 0.96763 0.93592 0.49299 0.0
C448 C 0.9189 0.88178 0.48186 0.0
C449 C 0.94152 0.86789 0.45583 0.0
C450 C 0.97718 0.88893 0.44815 0.0
C451 C 0.99015 0.9222 0.46669 0.0
H452 H 0.22921 0.77715 0.66242 0.0
H453 H 0.21358 0.69543 0.74944 0.0
H454 H 0.28076 0.75301 0.63643 0.0
H455 H 0.26577 0.67195 0.72419 0.0
H456 H 0.34558 0.62208 0.65459 0.0
H457 H 0.28825 0.6414 0.6712 0.0
H458 H 0.34425 0.75343 0.65747 0.0
H459 H 0.40129 0.73403 0.63946 0.0
C460 C 0.23628 0.75355 0.67551 0.0
C461 C 0.2174 0.73817 0.708 0.0
C462 C 0.26613 0.74005 0.66094 0.0
C463 C 0.27761 0.71084 0.67849 0.0
C464 C 0.2575 0.69434 0.70986 0.0
C465 C 0.22775 0.70789 0.72447 0.0
C466 C 0.34552 0.65082 0.65456 0.0
C467 C 0.37801 0.67654 0.64571 0.0
C468 C 0.31275 0.66188 0.66441 0.0
C469 C 0.31169 0.69892 0.66565 0.0
C470 C 0.34402 0.72465 0.65631 0.0
C471 C 0.37685 0.71358 0.6465 0.0
H472 H 0.75403 0.77416 0.80371 0.0
H473 H 0.64543 0.78133 0.76229 0.0
H474 H 0.78248 0.80252 0.74736 0.0
H475 H 0.67462 0.81083 0.70519 0.0
H476 H 0.75169 0.92119 0.6635 0.0
H477 H 0.71207 0.87187 0.6977 0.0
H478 H 0.79348 0.80534 0.6809 0.0
H479 H 0.83411 0.85542 0.64868 0.0
C480 C 0.73589 0.78035 0.78193 0.0
C481 C 0.69729 0.77559 0.78789 0.0
C482 C 0.75241 0.79683 0.74934 0.0
C483 C 0.7309 0.8093 0.72181 0.0
C484 C 0.69198 0.80197 0.72618 0.0
C485 C 0.6753 0.78514 0.7589 0.0
C486 C 0.76096 0.89589 0.66673 0.0
C487 C 0.79654 0.89266 0.65434 0.0
C488 C 0.73793 0.86733 0.6858 0.0
C489 C 0.74992 0.83485 0.69262 0.0
C490 C 0.78378 0.83029 0.6767 0.0
C491 C 0.80696 0.85896 0.65794 0.0
H492 H 0.8764 0.26885 0.26773 0.0
H493 H 0.78306 0.30958 0.31272 0.0
H494 H 0.83698 0.23886 0.21795 0.0
H495 H 0.74597 0.28417 0.26043 0.0
H496 H 0.67489 0.1783 0.21779 0.0
H497 H 0.71602 0.22479 0.25282 0.0
H498 H 0.79928 0.23247 0.1648 0.0
H499 H 0.75799 0.18413 0.13046 0.0
C500 C 0.84793 0.27234 0.2667 0.0
C501 C 0.83293 0.29053 0.2957 0.0
C502 C 0.8254 0.25563 0.23751 0.0
C503 C 0.78769 0.25785 0.23593 0.0
C504 C 0.77439 0.28048 0.26167 0.0
C505 C 0.79634 0.29595 0.29154 0.0
C506 C 0.70167 0.19044 0.20558 0.0
C507 C 0.71333 0.17761 0.17156 0.0
C508 C 0.72534 0.21743 0.22553 0.0
C509 C 0.76117 0.23277 0.21168 0.0
C510 C 0.77217 0.221 0.17663 0.0
C511 C 0.74855 0.19345 0.15689 0.0
H512 H 0.41389 0.71061 0.33172 0.0
H513 H 0.37893 0.60549 0.28023 0.0
H514 H 0.43819 0.68233 0.38511 0.0
H515 H 0.40184 0.57714 0.33409 0.0
H516 H 0.47782 0.5376 0.41984 0.0
H517 H 0.45412 0.56619 0.3664 0.0
H518 H 0.42437 0.64661 0.44036 0.0
H519 H 0.44874 0.61826 0.49375 0.0
C520 C 0.41135 0.68147 0.3315 0.0
C521 C 0.39408 0.66073 0.30095 0.0
C522 C 0.425 0.665 0.36268 0.0
C523 C 0.42222 0.62703 0.36472 0.0
C524 C 0.40516 0.60636 0.33404 0.0
C525 C 0.39142 0.62279 0.30297 0.0
C526 C 0.46611 0.56131 0.42493 0.0
C527 C 0.46536 0.57526 0.46169 0.0
C528 C 0.4522 0.57779 0.39399 0.0
C529 C 0.43699 0.60912 0.3983 0.0
C530 C 0.43615 0.62299 0.43518 0.0
C531 C 0.44996 0.60641 0.46618 0.0
H532 H 0.15836 0.45851 0.78129 0.0
H533 H 0.12073 0.35291 0.83149 0.0
H534 H 0.13597 0.48671 0.83592 0.0
H535 H 0.09695 0.38112 0.88568 0.0
H536 H 0.08757 0.44501 0.99504 0.0
H537 H 0.11208 0.41668 0.94125 0.0
H538 H 0.08255 0.49715 0.86775 0.0
H539 H 0.05874 0.52569 0.92144 0.0
C540 C 0.14544 0.44111 0.80396 0.0
C541 C 0.14177 0.40311 0.80142 0.0
C542 C 0.13201 0.45742 0.8354 0.0
C543 C 0.1143 0.43653 0.86583 0.0
C544 C 0.11066 0.3985 0.86337 0.0
C545 C 0.124 0.38214 0.8318 0.0
C546 C 0.08646 0.45687 0.96744 0.0
C547 C 0.0711 0.48798 0.96306 0.0
C548 C 0.10033 0.44032 0.93631 0.0
C549 C 0.09956 0.45429 0.89953 0.0
C550 C 0.08439 0.48557 0.89532 0.0
C551 C 0.07043 0.50201 0.92637 0.0
H552 H 0.60716 0.77791 0.94488 0.0
H553 H 0.64959 0.85592 0.85759 0.0
H554 H 0.57814 0.82329 0.97568 0.0
H555 H 0.61833 0.89963 0.88712 0.0
H556 H 0.51803 0.94687 0.94253 0.0
H557 H 0.54026 0.89732 0.91073 0.0
H558 H 0.61894 0.89585 0.99973 0.0
H559 H 0.59783 0.94598 1.03088 0.0
C560 C 0.61002 0.80437 0.93197 0.0
C561 C 0.63074 0.81296 0.89854 0.0
C562 C 0.59313 0.83013 0.94947 0.0
C563 C 0.59589 0.86457 0.93339 0.0
C564 C 0.61543 0.87293 0.89958 0.0
C565 C 0.63305 0.84762 0.88256 0.0
C566 C 0.54004 0.93589 0.95522 0.0
C567 C 0.55652 0.9504 0.98889 0.0
C568 C 0.55261 0.90765 0.93714 0.0
C569 C 0.58098 0.89288 0.95314 0.0
C570 C 0.59681 0.90676 0.98717 0.0
C571 C 0.58497 0.93556 1.00471 0.0
H572 H 0.94655 0.2834 0.42873 0.0
H573 H 0.86394 0.20278 0.37289 0.0
H574 H 0.97467 0.23494 0.45465 0.0
H575 H 0.89185 0.15478 0.39861 0.0
H576 H 0.91741 0.08748 0.50135 0.0
H577 H 0.89517 0.13505 0.46785 0.0
H578 H 1.00726 0.18108 0.4312 0.0
H579 H 0.02974 0.13267 0.46462 0.0
C580 C 0.93467 0.2554 0.42181 0.0
C581 C 0.90323 0.24679 0.39874 0.0
C582 C 0.95088 0.2278 0.43631 0.0
C583 C 0.93542 0.19123 0.42846 0.0
C584 C 0.90428 0.18277 0.40504 0.0
C585 C 0.88845 0.21023 0.39023 0.0
C586 C 0.9373 0.10749 0.48581 0.0
C587 C 0.97527 0.10641 0.48548 0.0
C588 C 0.92455 0.13463 0.46657 0.0
C589 C 0.94953 0.16169 0.44704 0.0
C590 C 0.98753 0.16052 0.44623 0.0
C591 C 1.00028 0.13276 0.46499 0.0
H592 H 0.31662 0.67206 0.14214 0.0
H593 H 0.26542 0.63435 0.24823 0.0
H594 H 0.25994 0.64413 0.10949 0.0
H595 H 0.20836 0.60649 0.21555 0.0
H596 H 0.12021 0.53369 0.14386 0.0
H597 H 0.17808 0.55957 0.17558 0.0
H598 H 0.19806 0.6486 0.09662 0.0
H599 H 0.14034 0.62211 0.0643 0.0
C600 C 0.29319 0.658 0.15869 0.0
C601 C 0.29595 0.65591 0.19814 0.0
C602 C 0.26038 0.64194 0.13981 0.0
C603 C 0.22887 0.62304 0.15954 0.0
C604 C 0.23185 0.62031 0.19898 0.0
C605 C 0.2648 0.63637 0.2179 0.0
C606 C 0.1369 0.55878 0.13304 0.0
C607 C 0.12517 0.57567 0.10126 0.0
C608 C 0.17023 0.57387 0.15158 0.0
C609 C 0.19325 0.60653 0.13915 0.0
C610 C 0.18169 0.62324 0.10706 0.0
C611 C 0.14829 0.60807 0.08844 0.0
H612 H 0.26937 0.4263 0.7466 0.0
H613 H 0.21766 0.39305 0.64023 0.0
H614 H 0.32693 0.45373 0.71377 0.0
H615 H 0.27505 0.42032 0.6075 0.0
H616 H 0.39565 0.4407 0.562 0.0
H617 H 0.33734 0.41414 0.5943 0.0
H618 H 0.35682 0.50223 0.67418 0.0
H619 H 0.41505 0.52827 0.64246 0.0
C620 C 0.27 0.42512 0.71621 0.0
C621 C 0.2385 0.40704 0.69638 0.0
C622 C 0.30323 0.44091 0.69722 0.0
C623 C 0.30619 0.43925 0.65768 0.0
C624 C 0.27449 0.42165 0.63787 0.0
C625 C 0.24132 0.40594 0.65682 0.0
C626 C 0.38746 0.45451 0.58636 0.0
C627 C 0.4105 0.48669 0.59945 0.0
C628 C 0.35378 0.4393 0.60493 0.0
C629 C 0.34199 0.45575 0.63726 0.0
C630 C 0.36491 0.48818 0.64997 0.0
C631 C 0.39846 0.50335 0.63144 0.0
H632 H 0.73545 0.77414 0.94693 0.0
H633 H 0.70607 0.67535 0.88243 0.0
H634 H 0.78765 0.75264 0.97406 0.0
H635 H 0.75823 0.65367 0.90975 0.0
H636 H 0.88501 0.66197 0.91239 0.0
H637 H 0.82495 0.67555 0.89721 0.0
H638 H 0.81159 0.70753 1.01226 0.0
H639 H 0.87251 0.69473 1.0273 0.0
C640 C 0.73929 0.74722 0.93966 0.0
C641 C 0.71692 0.72652 0.91231 0.0
C642 C 0.76932 0.73496 0.9551 0.0
C643 C 0.77748 0.7018 0.94343 0.0
C644 C 0.7531 0.67972 0.9186 0.0
C645 C 0.72313 0.69198 0.90318 0.0
C646 C 0.86945 0.6722 0.93439 0.0
C647 C 0.88364 0.67761 0.97094 0.0
C648 C 0.83473 0.6794 0.92586 0.0
C649 C 0.81333 0.69223 0.95365 0.0
C650 C 0.82746 0.69767 0.99027 0.0
C651 C 0.86222 0.69024 0.99888 0.0
H652 H 0.45534 0.75863 0.20663 0.0
H653 H 0.34704 0.78564 0.20518 0.0
H654 H 0.4819 0.81644 0.17594 0.0
H655 H 0.37333 0.84362 0.17577 0.0
H656 H 0.42091 0.92979 0.08846 0.0
H657 H 0.39572 0.87296 0.12091 0.0
H658 H 0.50079 0.87928 0.17684 0.0
H659 H 0.52623 0.93536 0.14319 0.0
C660 C 0.43724 0.77715 0.2004 0.0
C661 C 0.39887 0.76699 0.20832 0.0
C662 C 0.4525 0.81059 0.18267 0.0
C663 C 0.43 0.83532 0.17253 0.0
C664 C 0.39182 0.82546 0.18179 0.0
C665 C 0.37661 0.79202 0.19911 0.0
C666 C 0.43867 0.91922 0.1078 0.0
C667 C 0.47575 0.93769 0.11302 0.0
C668 C 0.42408 0.8864 0.12679 0.0
C669 C 0.44585 0.87079 0.1521 0.0
C670 C 0.48293 0.88953 0.15741 0.0
C671 C 0.49759 0.92218 0.13816 0.0
H672 H 0.13626 0.32031 0.64599 0.0
H673 H 0.11662 0.27204 0.75606 0.0
H674 H 0.10818 0.26275 0.61726 0.0
H675 H 0.08867 0.21367 0.72714 0.0
H676 H 1.01425 0.11895 0.66087 0.0
H677 H 0.03846 0.17686 0.69237 0.0
H678 H 0.12071 0.20543 0.60426 0.0
H679 H 0.09616 0.1485 0.57268 0.0
C680 C 0.12609 0.29731 0.6642 0.0
C681 C 0.12935 0.30108 0.70352 0.0
C682 C 0.11 0.26397 0.6476 0.0
C683 C 0.09653 0.2328 0.66955 0.0
C684 C 0.09849 0.2368 0.70903 0.0
C685 C 0.11457 0.27042 0.72574 0.0
C686 C 0.0375 0.13761 0.64821 0.0
C687 C 0.05294 0.12873 0.61392 0.0
C688 C 0.05159 0.17092 0.66645 0.0
C689 C 0.08154 0.19652 0.65097 0.0
C690 C 0.09716 0.18721 0.61695 0.0
C691 C 0.08313 0.15411 0.5988 0.0
H692 H 0.81088 0.29253 0.45637 0.0
H693 H 0.83774 0.39253 0.39324 0.0
H694 H 0.75928 0.31306 0.4866 0.0
H695 H 0.78538 0.41268 0.42272 0.0
H696 H 0.69277 0.44442 0.49083 0.0
H697 H 0.75342 0.42956 0.4789 0.0
H698 H 0.69977 0.31803 0.45818 0.0
H699 H 0.63932 0.33269 0.47104 0.0
C700 C 0.80668 0.3195 0.44998 0.0
C701 C 0.82822 0.3408 0.42215 0.0
C702 C 0.77669 0.331 0.46687 0.0
C703 C 0.76769 0.36408 0.45638 0.0
C704 C 0.79151 0.387 0.4314 0.0
C705 C 0.82149 0.37547 0.41445 0.0
C706 C 0.69401 0.41659 0.48439 0.0
C707 C 0.66123 0.3897 0.4818 0.0
C708 C 0.72874 0.40816 0.47733 0.0
C709 C 0.73146 0.37262 0.46774 0.0
C710 C 0.69873 0.34558 0.46608 0.0
C711 C 0.66402 0.35404 0.47294 0.0
loop_
_geom_bond_atom_site_label_1
_geom_bond_atom_site_label_2
_geom_bond_distance
_geom_bond_site_symmetry_2
_ccdc_geom_bond_type
H0 C3 0.931 . S
H1 C6 0.928 . S
H2 C8 0.930 . S
C3 H0 0.931 . S
C3 C4 1.413 . S
C3 C5 1.360 . S
C4 C3 1.413 . S
C4 C8 1.429 . S
C5 C3 1.360 . S
C5 C6 1.372 . S
C6 H1 0.928 . S
C6 C5 1.372 . S
C6 C7 1.404 . S
C7 C6 1.404 . S
C7 C8 1.391 . S
C8 H2 0.930 . S
C8 C4 1.429 . S
C8 C7 1.391 . S
H9 C12 0.931 . S
H10 C15 0.928 . S
H11 C17 0.930 . S
C12 H9 0.931 . S
C12 C13 1.413 . S
C12 C14 1.360 . S
C13 C12 1.413 . S
C13 C17 1.429 . S
C14 C12 1.360 . S
C14 C15 1.372 . S
C15 H10 0.928 . S
C15 C14 1.372 . S
C15 C16 1.404 . S
C16 C15 1.404 . S
C16 C17 1.391 . S
C17 H11 0.930 . S
C17 C13 1.429 . S
C17 C16 1.391 . S
H18 C21 0.931 . S
H19 C24 0.928 . S
H20 C26 0.930 . S
C21 H18 0.931 . S
C21 C22 1.413 . S
C21 C23 1.360 . S
C22 C21 1.413 . S
C22 C26 1.429 . S
C23 C21 1.360 . S
C23 C24 1.372 . S
C24 H19 0.928 . S
C24 C23 1.372 . S
C24 C25 1.404 . S
C25 C24 1.404 . S
C25 C26 1.391 . S
C26 H20 0.930 . S
C26 C22 1.429 . S
C26 C25 1.391 . S
H27 C30 0.931 . S
H28 C33 0.928 . S
H29 C35 0.930 . S
C30 H27 0.931 . S
C30 C31 1.413 . S
C30 C32 1.360 . S
C31 C30 1.413 . S
C31 C35 1.429 . S
C32 C30 1.360 . S
C32 C33 1.372 . S
C33 H28 0.928 . S
C33 C32 1.372 . S
C33 C34 1.404 . S
C34 C33 1.404 . S
C34 C35 1.391 . S
C35 H29 0.930 . S
C35 C31 1.429 . S
C35 C34 1.391 . S
H36 C39 0.931 . S
H37 C42 0.928 . S
H38 C44 0.930 . S
C39 H36 0.931 . S
C39 C40 1.413 . S
C39 C41 1.360 . S
C40 C39 1.413 . S
C40 C44 1.429 . S
C41 C39 1.360 . S
C41 C42 1.372 . S
C42 H37 0.928 . S
C42 C41 1.372 . S
C42 C43 1.404 . S
C43 C42 1.404 . S
C43 C44 1.391 . S
C44 H38 0.930 . S
C44 C40 1.429 . S
C44 C43 1.391 . S
H45 C48 0.931 . S
H46 C51 0.928 . S
H47 C53 0.930 . S
C48 H45 0.931 . S
C48 C49 1.413 . S
C48 C50 1.360 . S
C49 C48 1.413 . S
C49 C53 1.429 . S
C50 C48 1.360 . S
C50 C51 1.372 . S
C51 H46 0.928 . S
C51 C50 1.372 . S
C51 C52 1.404 . S
C52 C51 1.404 . S
C52 C53 1.391 . S
C53 H47 0.930 . S
C53 C49 1.429 . S
C53 C52 1.391 . S
H54 C57 0.931 . S
H55 C60 0.928 . S
H56 C62 0.930 . S
C57 H54 0.931 . S
C57 C58 1.413 . S
C57 C59 1.360 . S
C58 C57 1.413 . S
C58 C62 1.429 . S
C59 C57 1.360 . S
C59 C60 1.372 . S
C60 H55 0.928 . S
C60 C59 1.372 . S
C60 C61 1.404 . S
C61 C60 1.404 . S
C61 C62 1.391 . S
C62 H56 0.930 . S
C62 C58 1.429 . S
C62 C61 1.391 . S
H63 C66 0.931 . S
H64 C69 0.928 . S
H65 C71 0.930 . S
C66 H63 0.931 . S
C66 C67 1.413 . S
C66 C68 1.360 . S
C67 C66 1.413 . S
C67 C71 1.429 . S
C68 C66 1.360 . S
C68 C69 1.372 . S
C69 H64 0.928 . S
C69 C68 1.372 . S
C69 C70 1.404 . S
C70 C69 1.404 . S
C70 C71 1.391 . S
C71 H65 0.930 . S
C71 C67 1.429 . S
C71 C70 1.391 . S
Tb72 C81 2.764 . S
Tb72 O82 2.299 1_455 S
Tb72 O85 2.303 . S
Tb72 O89 2.322 1_545 S
Tb72 O90 2.349 1_545 S
Tb72 O93 2.415 . S
Tb72 O94 2.399 . S
Tb73 O83 2.317 1_565 S
Tb73 O84 2.343 1_565 S
Tb73 O86 2.422 . S
Tb73 O87 2.400 . S
Tb73 O88 2.330 1_655 S
Tb73 O91 2.308 . S
Tb73 C102 2.768 . S
C74 O90 1.261 1_655 S
C74 O91 1.257 . S
C75 C78 1.358 . S
C75 C79 1.332 . S
C75 C81 1.504 . S
C76 C77 1.373 . S
C76 C80 1.308 . S
C77 C76 1.373 . S
C77 C78 1.429 . S
C77 H104 0.932 . S
C78 C75 1.358 . S
C78 C77 1.429 . S
C78 H105 0.930 . S
C79 C75 1.332 . S
C79 C80 1.394 . S
C79 H106 0.932 . S
C80 C76 1.308 . S
C80 C79 1.394 . S
C80 H107 0.929 . S
C81 Tb72 2.764 . S
C81 C75 1.504 . S
C81 O93 1.239 . S
C81 O94 1.263 . S
O82 Tb72 2.299 1_655 S
O82 C92 1.263 . S
O83 Tb73 2.317 1_545 S
O83 C92 1.257 . S
O84 Tb73 2.343 1_545 S
O84 C95 1.261 1_655 S
O85 Tb72 2.303 . S
O85 C95 1.257 . S
O86 Tb73 2.422 . S
O86 C102 1.239 . S
O87 Tb73 2.400 . S
O87 C102 1.263 . S
O88 Tb73 2.330 1_455 S
O88 C103 1.236 . S
O89 Tb72 2.322 1_565 S
O89 C103 1.257 . S
O90 Tb72 2.349 1_565 S
O90 C74 1.261 1_455 S
O91 Tb73 2.308 . S
O91 C74 1.257 . S
C92 O82 1.263 . S
C92 O83 1.257 . S
O93 Tb72 2.415 . S
O93 C81 1.239 . S
O94 Tb72 2.399 . S
O94 C81 1.263 . S
C95 O84 1.261 1_455 S
C95 O85 1.257 . S
C96 C99 1.358 . S
C96 C100 1.332 . S
C96 C102 1.504 . S
C97 C98 1.373 . S
C97 C101 1.308 . S
C98 C97 1.373 . S
C98 C99 1.429 . S
C98 H108 0.932 . S
C99 C96 1.358 . S
C99 C98 1.429 . S
C99 H109 0.930 . S
C100 C96 1.332 . S
C100 C101 1.394 . S
C100 H110 0.932 . S
C101 C97 1.308 . S
C101 C100 1.394 . S
C101 H111 0.929 . S
C102 Tb73 2.768 . S
C102 O86 1.239 . S
C102 O87 1.263 . S
C102 C96 1.504 . S
C103 O88 1.236 . S
C103 O89 1.257 . S
H104 C77 0.932 . S
H105 C78 0.930 . S
H106 C79 0.932 . S
H107 C80 0.929 . S
H108 C98 0.932 . S
H109 C99 0.930 . S
H110 C100 0.932 . S
H111 C101 0.929 . S
Tb112 C121 2.764 . S
Tb112 O122 2.325 1_554 S
Tb112 O125 2.303 . S
Tb112 O129 2.322 1_545 S
Tb112 O130 2.349 1_544 S
Tb112 O133 2.415 . S
Tb112 O134 2.399 . S
Tb113 O123 2.322 1_565 S
Tb113 O124 2.349 1_566 S
Tb113 O126 2.415 . S
Tb113 O127 2.399 . S
Tb113 O128 2.325 1_556 S
Tb113 O131 2.303 . S
Tb113 C142 2.764 . S
C114 O130 1.261 . S
C114 O131 1.257 . S
C115 C118 1.358 . S
C115 C119 1.332 . S
C115 C121 1.504 . S
C116 C117 1.373 . S
C116 C120 1.308 . S
C117 C116 1.373 . S
C117 C118 1.429 . S
C117 H144 0.932 . S
C118 C115 1.358 . S
C118 C117 1.429 . S
C118 H145 0.930 . S
C119 C115 1.332 . S
C119 C120 1.394 . S
C119 H146 0.932 . S
C120 C116 1.308 . S
C120 C119 1.394 . S
C120 H147 0.929 . S
C121 Tb112 2.764 . S
C121 C115 1.504 . S
C121 O133 1.239 . S
C121 O134 1.263 . S
O122 Tb112 2.325 1_556 S
O122 C132 1.236 . S
O123 Tb113 2.322 1_545 S
O123 C132 1.257 . S
O124 Tb113 2.349 1_544 S
O124 C135 1.261 . S
O125 Tb112 2.303 . S
O125 C135 1.257 . S
O126 Tb113 2.415 . S
O126 C142 1.239 . S
O127 Tb113 2.399 . S
O127 C142 1.263 . S
O128 Tb113 2.325 1_554 S
O128 C143 1.236 . S
O129 Tb112 2.322 1_565 S
O129 C143 1.257 . S
O130 Tb112 2.349 1_566 S
O130 C114 1.261 . S
O131 Tb113 2.303 . S
O131 C114 1.257 . S
C132 O122 1.236 . S
C132 O123 1.257 . S
O133 Tb112 2.415 . S
O133 C121 1.239 . S
O134 Tb112 2.399 . S
O134 C121 1.263 . S
C135 O124 1.261 . S
C135 O125 1.257 . S
C136 C139 1.358 . S
C136 C140 1.332 . S
C136 C142 1.504 . S
C137 C138 1.373 . S
C137 C141 1.308 . S
C138 C137 1.373 . S
C138 C139 1.429 . S
C138 H148 0.932 . S
C139 C136 1.358 . S
C139 C138 1.429 . S
C139 H149 0.930 . S
C140 C136 1.332 . S
C140 C141 1.394 . S
C140 H150 0.932 . S
C141 C137 1.308 . S
C141 C140 1.394 . S
C141 H151 0.929 . S
C142 Tb113 2.764 . S
C142 O126 1.239 . S
C142 O127 1.263 . S
C142 C136 1.504 . S
C143 O128 1.236 . S
C143 O129 1.257 . S
H144 C117 0.932 . S
H145 C118 0.930 . S
H146 C119 0.932 . S
H147 C120 0.929 . S
H148 C138 0.932 . S
H149 C139 0.930 . S
H150 C140 0.932 . S
H151 C141 0.929 . S
Tb152 C161 2.764 . S
Tb152 O162 2.325 . S
Tb152 O165 2.303 . S
Tb152 O169 2.322 . S
Tb152 O170 2.349 . S
Tb152 O173 2.415 . S
Tb152 O174 2.399 . S
Tb153 O163 2.322 . S
Tb153 O164 2.349 . S
Tb153 O166 2.415 . S
Tb153 O167 2.399 . S
Tb153 O168 2.325 . S
Tb153 O171 2.303 . S
Tb153 C182 2.764 . S
C154 O170 1.261 . S
C154 O171 1.257 . S
C155 C158 1.358 . S
C155 C159 1.332 . S
C155 C161 1.504 . S
C156 C157 1.373 . S
C156 C160 1.308 . S
C157 C156 1.373 . S
C157 C158 1.429 . S
C157 H184 0.932 . S
C158 C155 1.358 . S
C158 C157 1.429 . S
C158 H185 0.930 . S
C159 C155 1.332 . S
C159 C160 1.394 . S
C159 H186 0.932 . S
C160 C156 1.308 . S
C160 C159 1.394 . S
C160 H187 0.929 . S
C161 Tb152 2.764 . S
C161 C155 1.504 . S
C161 O173 1.239 . S
C161 O174 1.263 . S
O162 Tb152 2.325 . S
O162 C172 1.236 . S
O163 Tb153 2.322 . S
O163 C172 1.257 . S
O164 Tb153 2.349 . S
O164 C175 1.261 . S
O165 Tb152 2.303 . S
O165 C175 1.257 . S
O166 Tb153 2.415 . S
O166 C182 1.239 . S
O167 Tb153 2.399 . S
O167 C182 1.263 . S
O168 Tb153 2.325 . S
O168 C183 1.236 . S
O169 Tb152 2.322 . S
O169 C183 1.257 . S
O170 Tb152 2.349 . S
O170 C154 1.261 . S
O171 Tb153 2.303 . S
O171 C154 1.257 . S
C172 O162 1.236 . S
C172 O163 1.257 . S
O173 Tb152 2.415 . S
O173 C161 1.239 . S
O174 Tb152 2.399 . S
O174 C161 1.263 . S
C175 O164 1.261 . S
C175 O165 1.257 . S
C176 C179 1.358 . S
C176 C180 1.332 . S
C176 C182 1.504 . S
C177 C178 1.373 . S
C177 C181 1.308 . S
C178 C177 1.373 . S
C178 C179 1.429 . S
C178 H188 0.932 . S
C179 C176 1.358 . S
C179 C178 1.429 . S
C179 H189 0.930 . S
C180 C176 1.332 . S
C180 C181 1.394 . S
C180 H190 0.932 . S
C181 C177 1.308 . S
C181 C180 1.394 . S
C181 H191 0.929 . S
C182 Tb153 2.764 . S
C182 O166 1.239 . S
C182 O167 1.263 . S
C182 C176 1.504 . S
C183 O168 1.236 . S
C183 O169 1.257 . S
H184 C157 0.932 . S
H185 C158 0.930 . S
H186 C159 0.932 . S
H187 C160 0.929 . S
H188 C178 0.932 . S
H189 C179 0.930 . S
H190 C180 0.932 . S
H191 C181 0.929 . S
Tb192 C201 2.764 . S
Tb192 O202 2.325 . S
Tb192 O205 2.303 1_556 S
Tb192 O209 2.321 1_656 S
Tb192 O210 2.349 1_655 S
Tb192 O213 2.415 . S
Tb192 O214 2.399 . S
Tb193 O203 2.322 1_455 S
Tb193 O204 2.349 1_455 S
Tb193 O206 2.415 . S
Tb193 O207 2.399 . S
Tb193 O208 2.325 . S
Tb193 O211 2.303 1_554 S
Tb193 C222 2.764 . S
C194 O210 1.261 . S
C194 O211 1.257 . S
C195 C198 1.358 . S
C195 C199 1.332 . S
C195 C201 1.504 . S
C196 C197 1.373 . S
C196 C200 1.308 . S
C197 C196 1.373 . S
C197 C198 1.429 . S
C197 H224 0.932 . S
C198 C195 1.358 . S
C198 C197 1.429 . S
C198 H225 0.930 . S
C199 C195 1.332 . S
C199 C200 1.394 . S
C199 H226 0.932 . S
C200 C196 1.308 . S
C200 C199 1.394 . S
C200 H227 0.929 . S
C201 Tb192 2.764 . S
C201 C195 1.504 . S
C201 O213 1.239 . S
C201 O214 1.263 . S
O202 Tb192 2.325 . S
O202 C212 1.236 . S
O203 Tb193 2.322 1_655 S
O203 C212 1.257 1_554 S
O204 Tb193 2.349 1_655 S
O204 C215 1.261 . S
O205 Tb192 2.303 1_554 S
O205 C215 1.257 . S
O206 Tb193 2.415 . S
O206 C222 1.239 . S
O207 Tb193 2.399 . S
O207 C222 1.263 . S
O208 Tb193 2.325 . S
O208 C223 1.236 . S
O209 Tb192 2.321 1_454 S
O209 C223 1.259 . S
O210 Tb192 2.349 1_455 S
O210 C194 1.261 . S
O211 Tb193 2.303 1_556 S
O211 C194 1.257 . S
C212 O202 1.236 . S
C212 O203 1.257 1_556 S
O213 Tb192 2.415 . S
O213 C201 1.239 . S
O214 Tb192 2.399 . S
O214 C201 1.263 . S
C215 O204 1.261 . S
C215 O205 1.257 . S
C216 C219 1.358 . S
C216 C220 1.332 . S
C216 C222 1.504 . S
C217 C218 1.373 . S
C217 C221 1.308 . S
C218 C217 1.373 . S
C218 C219 1.429 . S
C218 H228 0.932 . S
C219 C216 1.358 . S
C219 C218 1.429 . S
C219 H229 0.930 . S
C220 C216 1.332 . S
C220 C221 1.394 . S
C220 H230 0.932 . S
C221 C217 1.308 . S
C221 C220 1.394 . S
C221 H231 0.929 . S
C222 Tb193 2.764 . S
C222 O206 1.239 . S
C222 O207 1.263 . S
C222 C216 1.504 . S
C223 O208 1.236 . S
C223 O209 1.259 . S
H224 C197 0.932 . S
H225 C198 0.930 . S
H226 C199 0.932 . S
H227 C200 0.929 . S
H228 C218 0.932 . S
H229 C219 0.930 . S
H230 C220 0.932 . S
H231 C221 0.929 . S
H232 C240 0.950 . S
H233 C245 0.950 . S
H234 C242 0.950 . S
H235 C244 0.950 . S
H236 C246 0.950 . S
H237 C248 0.950 . S
H238 C250 0.950 . S
H239 C251 0.950 . S
C240 H232 0.950 . S
C240 C241 1.386 . S
C240 C242 1.391 . S
C241 C240 1.386 . S
C241 C245 1.393 . S
C242 H234 0.950 . S
C242 C240 1.391 . S
C242 C243 1.400 . S
C243 C242 1.400 . S
C243 C244 1.398 . S
C243 C249 1.491 . S
C244 H235 0.950 . S
C244 C243 1.398 . S
C244 C245 1.391 . S
C245 H233 0.950 . S
C245 C241 1.393 . S
C245 C244 1.391 . S
C246 H236 0.950 . S
C246 C247 1.386 . S
C246 C248 1.391 . S
C247 C246 1.386 . S
C247 C251 1.393 . S
C248 H237 0.950 . S
C248 C246 1.391 . S
C248 C249 1.400 . S
C249 C243 1.491 . S
C249 C248 1.400 . S
C249 C250 1.398 . S
C250 H238 0.950 . S
C250 C249 1.398 . S
C250 C251 1.391 . S
C251 H239 0.950 . S
C251 C247 1.393 . S
C251 C250 1.391 . S
H252 C260 0.950 . S
H253 C265 0.950 . S
H254 C262 0.950 . S
H255 C264 0.950 . S
H256 C266 0.950 . S
H257 C268 0.950 . S
H258 C270 0.950 . S
H259 C271 0.950 . S
C260 H252 0.950 . S
C260 C261 1.386 . S
C260 C262 1.391 . S
C261 C260 1.386 . S
C261 C265 1.393 . S
C262 H254 0.950 . S
C262 C260 1.391 . S
C262 C263 1.400 . S
C263 C262 1.400 . S
C263 C264 1.398 . S
C263 C269 1.491 . S
C264 H255 0.950 . S
C264 C263 1.398 . S
C264 C265 1.391 . S
C265 H253 0.950 . S
C265 C261 1.393 . S
C265 C264 1.391 . S
C266 H256 0.950 . S
C266 C267 1.386 . S
C266 C268 1.391 . S
C267 C266 1.386 . S
C267 C271 1.393 . S
C268 H257 0.950 . S
C268 C266 1.391 . S
C268 C269 1.400 . S
C269 C263 1.491 . S
C269 C268 1.400 . S
C269 C270 1.398 . S
C270 H258 0.950 . S
C270 C269 1.398 . S
C270 C271 1.391 . S
C271 H259 0.950 . S
C271 C267 1.393 . S
C271 C270 1.391 . S
H272 C280 0.950 . S
H273 C285 0.950 . S
H274 C282 0.950 . S
H275 C284 0.950 . S
H276 C286 0.950 . S
H277 C288 0.950 . S
H278 C290 0.950 . S
H279 C291 0.950 . S
C280 H272 0.950 . S
C280 C281 1.386 . S
C280 C282 1.391 . S
C281 C280 1.386 . S
C281 C285 1.393 . S
C282 H274 0.950 . S
C282 C280 1.391 . S
C282 C283 1.400 . S
C283 C282 1.400 . S
C283 C284 1.398 . S
C283 C289 1.491 . S
C284 H275 0.950 . S
C284 C283 1.398 . S
C284 C285 1.391 . S
C285 H273 0.950 . S
C285 C281 1.393 . S
C285 C284 1.391 . S
C286 H276 0.950 . S
C286 C287 1.386 . S
C286 C288 1.391 . S
C287 C286 1.386 . S
C287 C291 1.393 . S
C288 H277 0.950 . S
C288 C286 1.391 . S
C288 C289 1.400 . S
C289 C283 1.491 . S
C289 C288 1.400 . S
C289 C290 1.398 . S
C290 H278 0.950 . S
C290 C289 1.398 . S
C290 C291 1.391 . S
C291 H279 0.950 . S
C291 C287 1.393 . S
C291 C290 1.391 . S
H292 C300 0.950 . S
H293 C305 0.950 . S
H294 C302 0.950 . S
H295 C304 0.950 . S
H296 C306 0.950 . S
H297 C308 0.950 . S
H298 C310 0.950 . S
H299 C311 0.950 . S
C300 H292 0.950 . S
C300 C301 1.386 . S
C300 C302 1.391 . S
C301 C300 1.386 . S
C301 C305 1.393 . S
C302 H294 0.950 . S
C302 C300 1.391 . S
C302 C303 1.400 . S
C303 C302 1.400 . S
C303 C304 1.398 . S
C303 C309 1.491 . S
C304 H295 0.950 . S
C304 C303 1.398 . S
C304 C305 1.391 . S
C305 H293 0.950 . S
C305 C301 1.393 . S
C305 C304 1.391 . S
C306 H296 0.950 . S
C306 C307 1.386 . S
C306 C308 1.391 . S
C307 C306 1.386 . S
C307 C311 1.393 . S
C308 H297 0.950 . S
C308 C306 1.391 . S
C308 C309 1.400 . S
C309 C303 1.491 . S
C309 C308 1.400 . S
C309 C310 1.398 . S
C310 H298 0.950 . S
C310 C309 1.398 . S
C310 C311 1.391 . S
C311 H299 0.950 . S
C311 C307 1.393 . S
C311 C310 1.391 . S
H312 C320 0.950 . S
H313 C325 0.950 . S
H314 C322 0.950 . S
H315 C324 0.950 . S
H316 C326 0.950 . S
H317 C328 0.950 . S
H318 C330 0.950 . S
H319 C331 0.950 . S
C320 H312 0.950 . S
C320 C321 1.386 . S
C320 C322 1.391 . S
C321 C320 1.386 . S
C321 C325 1.393 . S
C322 H314 0.950 . S
C322 C320 1.391 . S
C322 C323 1.400 . S
C323 C322 1.400 . S
C323 C324 1.398 . S
C323 C329 1.491 . S
C324 H315 0.950 . S
C324 C323 1.398 . S
C324 C325 1.391 . S
C325 H313 0.950 . S
C325 C321 1.393 . S
C325 C324 1.391 . S
C326 H316 0.950 . S
C326 C327 1.386 . S
C326 C328 1.391 . S
C327 C326 1.386 . S
C327 C331 1.393 . S
C328 H317 0.950 . S
C328 C326 1.391 . S
C328 C329 1.400 . S
C329 C323 1.491 . S
C329 C328 1.400 . S
C329 C330 1.398 . S
C330 H318 0.950 . S
C330 C329 1.398 . S
C330 C331 1.391 . S
C331 H319 0.950 . S
C331 C327 1.393 . S
C331 C330 1.391 . S
H332 C340 0.950 . S
H333 C345 0.950 . S
H334 C342 0.950 . S
H335 C344 0.950 . S
H336 C346 0.950 . S
H337 C348 0.950 . S
H338 C350 0.950 . S
H339 C351 0.950 1_655 S
C340 H332 0.950 . S
C340 C341 1.386 . S
C340 C342 1.391 . S
C341 C340 1.386 . S
C341 C345 1.393 . S
C342 H334 0.950 . S
C342 C340 1.391 . S
C342 C343 1.400 . S
C343 C342 1.400 . S
C343 C344 1.398 . S
C343 C349 1.491 . S
C344 H335 0.950 . S
C344 C343 1.398 . S
C344 C345 1.391 . S
C345 H333 0.950 . S
C345 C341 1.393 . S
C345 C344 1.391 . S
C346 H336 0.950 . S
C346 C347 1.386 . S
C346 C348 1.391 . S
C347 C346 1.386 . S
C347 C351 1.393 . S
C348 H337 0.950 . S
C348 C346 1.391 . S
C348 C349 1.400 . S
C349 C343 1.491 . S
C349 C348 1.400 . S
C349 C350 1.398 . S
C350 H338 0.950 . S
C350 C349 1.398 . S
C350 C351 1.391 . S
C351 H339 0.950 1_455 S
C351 C347 1.393 . S
C351 C350 1.391 . S
H352 C360 0.950 . S
H353 C365 0.950 . S
H354 C362 0.950 . S
H355 C364 0.950 . S
H356 C366 0.950 1_554 S
H357 C368 0.950 . S
H358 C370 0.950 . S
H359 C371 0.950 . S
C360 H352 0.950 . S
C360 C361 1.386 . S
C360 C362 1.391 . S
C361 C360 1.386 . S
C361 C365 1.393 . S
C362 H354 0.950 . S
C362 C360 1.391 . S
C362 C363 1.400 . S
C363 C362 1.400 . S
C363 C364 1.398 . S
C363 C369 1.491 . S
C364 H355 0.950 . S
C364 C363 1.398 . S
C364 C365 1.391 . S
C365 H353 0.950 . S
C365 C361 1.393 . S
C365 C364 1.391 . S
C366 H356 0.950 1_556 S
C366 C367 1.386 . S
C366 C368 1.391 . S
C367 C366 1.386 . S
C367 C371 1.393 . S
C368 H357 0.950 . S
C368 C366 1.391 . S
C368 C369 1.400 . S
C369 C363 1.491 . S
C369 C368 1.400 . S
C369 C370 1.398 . S
C370 H358 0.950 . S
C370 C369 1.398 . S
C370 C371 1.391 . S
C371 H359 0.950 . S
C371 C367 1.393 . S
C371 C370 1.391 . S
H372 C380 0.950 . S
H373 C385 0.950 . S
H374 C382 0.950 . S
H375 C384 0.950 . S
H376 C386 0.950 . S
H377 C388 0.950 . S
H378 C390 0.950 . S
H379 C391 0.950 . S
C380 H372 0.950 . S
C380 C381 1.386 . S
C380 C382 1.391 . S
C381 C380 1.386 . S
C381 C385 1.393 . S
C382 H374 0.950 . S
C382 C380 1.391 . S
C382 C383 1.400 . S
C383 C382 1.400 . S
C383 C384 1.398 . S
C383 C389 1.491 . S
C384 H375 0.950 . S
C384 C383 1.398 . S
C384 C385 1.391 . S
C385 H373 0.950 . S
C385 C381 1.393 . S
C385 C384 1.391 . S
C386 H376 0.950 . S
C386 C387 1.386 . S
C386 C388 1.391 . S
C387 C386 1.386 . S
C387 C391 1.393 . S
C388 H377 0.950 . S
C388 C386 1.391 . S
C388 C389 1.400 . S
C389 C383 1.491 . S
C389 C388 1.400 . S
C389 C390 1.398 . S
C390 H378 0.950 . S
C390 C389 1.398 . S
C390 C391 1.391 . S
C391 H379 0.950 . S
C391 C387 1.393 . S
C391 C390 1.391 . S
H392 C400 0.950 . S
H393 C405 0.950 . S
H394 C402 0.950 . S
H395 C404 0.950 . S
H396 C406 0.950 . S
H397 C408 0.950 . S
H398 C410 0.950 . S
H399 C411 0.950 . S
C400 H392 0.950 . S
C400 C401 1.386 . S
C400 C402 1.391 . S
C401 C400 1.386 . S
C401 C405 1.393 . S
C402 H394 0.950 . S
C402 C400 1.391 . S
C402 C403 1.400 . S
C403 C402 1.400 . S
C403 C404 1.398 . S
C403 C409 1.491 . S
C404 H395 0.950 . S
C404 C403 1.398 . S
C404 C405 1.391 . S
C405 H393 0.950 . S
C405 C401 1.393 . S
C405 C404 1.391 . S
C406 H396 0.950 . S
C406 C407 1.386 . S
C406 C408 1.391 . S
C407 C406 1.386 . S
C407 C411 1.393 . S
C408 H397 0.950 . S
C408 C406 1.391 . S
C408 C409 1.400 . S
C409 C403 1.491 . S
C409 C408 1.400 . S
C409 C410 1.398 . S
C410 H398 0.950 . S
C410 C409 1.398 . S
C410 C411 1.391 . S
C411 H399 0.950 . S
C411 C407 1.393 . S
C411 C410 1.391 . S
H412 C420 0.950 . S
H413 C425 0.950 . S
H414 C422 0.950 . S
H415 C424 0.950 . S
H416 C426 0.950 . S
H417 C428 0.950 . S
H418 C430 0.950 . S
H419 C431 0.950 . S
C420 H412 0.950 . S
C420 C421 1.386 . S
C420 C422 1.391 . S
C421 C420 1.386 . S
C421 C425 1.393 . S
C422 H414 0.950 . S
C422 C420 1.391 . S
C422 C423 1.400 . S
C423 C422 1.400 . S
C423 C424 1.398 . S
C423 C429 1.491 . S
C424 H415 0.950 . S
C424 C423 1.398 . S
C424 C425 1.391 . S
C425 H413 0.950 . S
C425 C421 1.393 . S
C425 C424 1.391 . S
C426 H416 0.950 . S
C426 C427 1.386 . S
C426 C428 1.391 . S
C427 C426 1.386 . S
C427 C431 1.393 . S
C428 H417 0.950 . S
C428 C426 1.391 . S
C428 C429 1.400 . S
C429 C423 1.491 . S
C429 C428 1.400 . S
C429 C430 1.398 . S
C430 H418 0.950 . S
C430 C429 1.398 . S
C430 C431 1.391 . S
C431 H419 0.950 . S
C431 C427 1.393 . S
C431 C430 1.391 . S
H432 C440 0.950 . S
H433 C445 0.950 . S
H434 C442 0.950 . S
H435 C444 0.950 . S
H436 C446 0.950 . S
H437 C448 0.950 . S
H438 C450 0.950 . S
H439 C451 0.950 . S
C440 H432 0.950 . S
C440 C441 1.386 . S
C440 C442 1.391 . S
C441 C440 1.386 . S
C441 C445 1.393 . S
C442 H434 0.950 . S
C442 C440 1.391 . S
C442 C443 1.400 . S
C443 C442 1.400 . S
C443 C444 1.398 . S
C443 C449 1.491 . S
C444 H435 0.950 . S
C444 C443 1.398 . S
C444 C445 1.391 . S
C445 H433 0.950 . S
C445 C441 1.393 . S
C445 C444 1.391 . S
C446 H436 0.950 . S
C446 C447 1.386 . S
C446 C448 1.391 . S
C447 C446 1.386 . S
C447 C451 1.393 . S
C448 H437 0.950 . S
C448 C446 1.391 . S
C448 C449 1.400 . S
C449 C443 1.491 . S
C449 C448 1.400 . S
C449 C450 1.398 . S
C450 H438 0.950 . S
C450 C449 1.398 . S
C450 C451 1.391 . S
C451 H439 0.950 . S
C451 C447 1.393 . S
C451 C450 1.391 . S
H452 C460 0.950 . S
H453 C465 0.950 . S
H454 C462 0.950 . S
H455 C464 0.950 . S
H456 C466 0.950 . S
H457 C468 0.950 . S
H458 C470 0.950 . S
H459 C471 0.950 . S
C460 H452 0.950 . S
C460 C461 1.386 . S
C460 C462 1.391 . S
C461 C460 1.386 . S
C461 C465 1.393 . S
C462 H454 0.950 . S
C462 C460 1.391 . S
C462 C463 1.400 . S
C463 C462 1.400 . S
C463 C464 1.398 . S
C463 C469 1.491 . S
C464 H455 0.950 . S
C464 C463 1.398 . S
C464 C465 1.391 . S
C465 H453 0.950 . S
C465 C461 1.393 . S
C465 C464 1.391 . S
C466 H456 0.950 . S
C466 C467 1.386 . S
C466 C468 1.391 . S
C467 C466 1.386 . S
C467 C471 1.393 . S
C468 H457 0.950 . S
C468 C466 1.391 . S
C468 C469 1.400 . S
C469 C463 1.491 . S
C469 C468 1.400 . S
C469 C470 1.398 . S
C470 H458 0.950 . S
C470 C469 1.398 . S
C470 C471 1.391 . S
C471 H459 0.950 . S
C471 C467 1.393 . S
C471 C470 1.391 . S
H472 C480 0.950 . S
H473 C485 0.950 . S
H474 C482 0.950 . S
H475 C484 0.950 . S
H476 C486 0.950 . S
H477 C488 0.950 . S
H478 C490 0.950 . S
H479 C491 0.950 . S
C480 H472 0.950 . S
C480 C481 1.386 . S
C480 C482 1.391 . S
C481 C480 1.386 . S
C481 C485 1.393 . S
C482 H474 0.950 . S
C482 C480 1.391 . S
C482 C483 1.400 . S
C483 C482 1.400 . S
C483 C484 1.398 . S
C483 C489 1.491 . S
C484 H475 0.950 . S
C484 C483 1.398 . S
C484 C485 1.391 . S
C485 H473 0.950 . S
C485 C481 1.393 . S
C485 C484 1.391 . S
C486 H476 0.950 . S
C486 C487 1.386 . S
C486 C488 1.391 . S
C487 C486 1.386 . S
C487 C491 1.393 . S
C488 H477 0.950 . S
C488 C486 1.391 . S
C488 C489 1.400 . S
C489 C483 1.491 . S
C489 C488 1.400 . S
C489 C490 1.398 . S
C490 H478 0.950 . S
C490 C489 1.398 . S
C490 C491 1.391 . S
C491 H479 0.950 . S
C491 C487 1.393 . S
C491 C490 1.391 . S
H492 C500 0.950 . S
H493 C505 0.950 . S
H494 C502 0.950 . S
H495 C504 0.950 . S
H496 C506 0.950 . S
H497 C508 0.950 . S
H498 C510 0.950 . S
H499 C511 0.950 . S
C500 H492 0.950 . S
C500 C501 1.386 . S
C500 C502 1.391 . S
C501 C500 1.386 . S
C501 C505 1.393 . S
C502 H494 0.950 . S
C502 C500 1.391 . S
C502 C503 1.400 . S
C503 C502 1.400 . S
C503 C504 1.398 . S
C503 C509 1.491 . S
C504 H495 0.950 . S
C504 C503 1.398 . S
C504 C505 1.391 . S
C505 H493 0.950 . S
C505 C501 1.393 . S
C505 C504 1.391 . S
C506 H496 0.950 . S
C506 C507 1.386 . S
C506 C508 1.391 . S
C507 C506 1.386 . S
C507 C511 1.393 . S
C508 H497 0.950 . S
C508 C506 1.391 . S
C508 C509 1.400 . S
C509 C503 1.491 . S
C509 C508 1.400 . S
C509 C510 1.398 . S
C510 H498 0.950 . S
C510 C509 1.398 . S
C510 C511 1.391 . S
C511 H499 0.950 . S
C511 C507 1.393 . S
C511 C510 1.391 . S
H512 C520 0.950 . S
H513 C525 0.950 . S
H514 C522 0.950 . S
H515 C524 0.950 . S
H516 C526 0.950 . S
H517 C528 0.950 . S
H518 C530 0.950 . S
H519 C531 0.950 . S
C520 H512 0.950 . S
C520 C521 1.386 . S
C520 C522 1.391 . S
C521 C520 1.386 . S
C521 C525 1.393 . S
C522 H514 0.950 . S
C522 C520 1.391 . S
C522 C523 1.400 . S
C523 C522 1.400 . S
C523 C524 1.398 . S
C523 C529 1.491 . S
C524 H515 0.950 . S
C524 C523 1.398 . S
C524 C525 1.391 . S
C525 H513 0.950 . S
C525 C521 1.393 . S
C525 C524 1.391 . S
C526 H516 0.950 . S
C526 C527 1.386 . S
C526 C528 1.391 . S
C527 C526 1.386 . S
C527 C531 1.393 . S
C528 H517 0.950 . S
C528 C526 1.391 . S
C528 C529 1.400 . S
C529 C523 1.491 . S
C529 C528 1.400 . S
C529 C530 1.398 . S
C530 H518 0.950 . S
C530 C529 1.398 . S
C530 C531 1.391 . S
C531 H519 0.950 . S
C531 C527 1.393 . S
C531 C530 1.391 . S
H532 C540 0.950 . S
H533 C545 0.950 . S
H534 C542 0.950 . S
H535 C544 0.950 . S
H536 C546 0.950 . S
H537 C548 0.950 . S
H538 C550 0.950 . S
H539 C551 0.950 . S
C540 H532 0.950 . S
C540 C541 1.386 . S
C540 C542 1.391 . S
C541 C540 1.386 . S
C541 C545 1.393 . S
C542 H534 0.950 . S
C542 C540 1.391 . S
C542 C543 1.400 . S
C543 C542 1.400 . S
C543 C544 1.398 . S
C543 C549 1.491 . S
C544 H535 0.950 . S
C544 C543 1.398 . S
C544 C545 1.391 . S
C545 H533 0.950 . S
C545 C541 1.393 . S
C545 C544 1.391 . S
C546 H536 0.950 . S
C546 C547 1.386 . S
C546 C548 1.391 . S
C547 C546 1.386 . S
C547 C551 1.393 . S
C548 H537 0.950 . S
C548 C546 1.391 . S
C548 C549 1.400 . S
C549 C543 1.491 . S
C549 C548 1.400 . S
C549 C550 1.398 . S
C550 H538 0.950 . S
C550 C549 1.398 . S
C550 C551 1.391 . S
C551 H539 0.950 . S
C551 C547 1.393 . S
C551 C550 1.391 . S
H552 C560 0.950 . S
H553 C565 0.950 . S
H554 C562 0.950 . S
H555 C564 0.950 . S
H556 C566 0.950 . S
H557 C568 0.950 . S
H558 C570 0.950 . S
H559 C571 0.950 . S
C560 H552 0.950 . S
C560 C561 1.386 . S
C560 C562 1.391 . S
C561 C560 1.386 . S
C561 C565 1.393 . S
C562 H554 0.950 . S
C562 C560 1.391 . S
C562 C563 1.400 . S
C563 C562 1.400 . S
C563 C564 1.398 . S
C563 C569 1.491 . S
C564 H555 0.950 . S
C564 C563 1.398 . S
C564 C565 1.391 . S
C565 H553 0.950 . S
C565 C561 1.393 . S
C565 C564 1.391 . S
C566 H556 0.950 . S
C566 C567 1.386 . S
C566 C568 1.391 . S
C567 C566 1.386 . S
C567 C571 1.393 . S
C568 H557 0.950 . S
C568 C566 1.391 . S
C568 C569 1.400 . S
C569 C563 1.491 . S
C569 C568 1.400 . S
C569 C570 1.398 . S
C570 H558 0.950 . S
C570 C569 1.398 . S
C570 C571 1.391 . S
C571 H559 0.950 . S
C571 C567 1.393 . S
C571 C570 1.391 . S
H572 C580 0.950 . S
H573 C585 0.950 . S
H574 C582 0.950 . S
H575 C584 0.950 . S
H576 C586 0.950 . S
H577 C588 0.950 . S
H578 C590 0.950 . S
H579 C591 0.950 . S
C580 H572 0.950 . S
C580 C581 1.386 . S
C580 C582 1.391 . S
C581 C580 1.386 . S
C581 C585 1.393 . S
C582 H574 0.950 . S
C582 C580 1.391 . S
C582 C583 1.400 . S
C583 C582 1.400 . S
C583 C584 1.398 . S
C583 C589 1.491 . S
C584 H575 0.950 . S
C584 C583 1.398 . S
C584 C585 1.391 . S
C585 H573 0.950 . S
C585 C581 1.393 . S
C585 C584 1.391 . S
C586 H576 0.950 . S
C586 C587 1.386 . S
C586 C588 1.391 . S
C587 C586 1.386 . S
C587 C591 1.393 . S
C588 H577 0.950 . S
C588 C586 1.391 . S
C588 C589 1.400 . S
C589 C583 1.491 . S
C589 C588 1.400 . S
C589 C590 1.398 . S
C590 H578 0.950 . S
C590 C589 1.398 . S
C590 C591 1.391 . S
C591 H579 0.950 . S
C591 C587 1.393 . S
C591 C590 1.391 . S
H592 C600 0.950 . S
H593 C605 0.950 . S
H594 C602 0.950 . S
H595 C604 0.950 . S
H596 C606 0.950 . S
H597 C608 0.950 . S
H598 C610 0.950 . S
H599 C611 0.950 . S
C600 H592 0.950 . S
C600 C601 1.386 . S
C600 C602 1.391 . S
C601 C600 1.386 . S
C601 C605 1.393 . S
C602 H594 0.950 . S
C602 C600 1.391 . S
C602 C603 1.400 . S
C603 C602 1.400 . S
C603 C604 1.398 . S
C603 C609 1.491 . S
C604 H595 0.950 . S
C604 C603 1.398 . S
C604 C605 1.391 . S
C605 H593 0.950 . S
C605 C601 1.393 . S
C605 C604 1.391 . S
C606 H596 0.950 . S
C606 C607 1.386 . S
C606 C608 1.391 . S
C607 C606 1.386 . S
C607 C611 1.393 . S
C608 H597 0.950 . S
C608 C606 1.391 . S
C608 C609 1.400 . S
C609 C603 1.491 . S
C609 C608 1.400 . S
C609 C610 1.398 . S
C610 H598 0.950 . S
C610 C609 1.398 . S
C610 C611 1.391 . S
C611 H599 0.950 . S
C611 C607 1.393 . S
C611 C610 1.391 . S
H612 C620 0.950 . S
H613 C625 0.950 . S
H614 C622 0.950 . S
H615 C624 0.950 . S
H616 C626 0.950 . S
H617 C628 0.950 . S
H618 C630 0.950 . S
H619 C631 0.950 . S
C620 H612 0.950 . S
C620 C621 1.386 . S
C620 C622 1.391 . S
C621 C620 1.386 . S
C621 C625 1.393 . S
C622 H614 0.950 . S
C622 C620 1.391 . S
C622 C623 1.400 . S
C623 C622 1.400 . S
C623 C624 1.398 . S
C623 C629 1.491 . S
C624 H615 0.950 . S
C624 C623 1.398 . S
C624 C625 1.391 . S
C625 H613 0.950 . S
C625 C621 1.393 . S
C625 C624 1.391 . S
C626 H616 0.950 . S
C626 C627 1.386 . S
C626 C628 1.391 . S
C627 C626 1.386 . S
C627 C631 1.393 . S
C628 H617 0.950 . S
C628 C626 1.391 . S
C628 C629 1.400 . S
C629 C623 1.491 . S
C629 C628 1.400 . S
C629 C630 1.398 . S
C630 H618 0.950 . S
C630 C629 1.398 . S
C630 C631 1.391 . S
C631 H619 0.950 . S
C631 C627 1.393 . S
C631 C630 1.391 . S
H632 C640 0.950 . S
H633 C645 0.950 . S
H634 C642 0.950 . S
H635 C644 0.950 . S
H636 C646 0.950 . S
H637 C648 0.950 . S
H638 C650 0.950 . S
H639 C651 0.950 . S
C640 H632 0.950 . S
C640 C641 1.386 . S
C640 C642 1.391 . S
C641 C640 1.386 . S
C641 C645 1.393 . S
C642 H634 0.950 . S
C642 C640 1.391 . S
C642 C643 1.400 . S
C643 C642 1.400 . S
C643 C644 1.398 . S
C643 C649 1.491 . S
C644 H635 0.950 . S
C644 C643 1.398 . S
C644 C645 1.391 . S
C645 H633 0.950 . S
C645 C641 1.393 . S
C645 C644 1.391 . S
C646 H636 0.950 . S
C646 C647 1.386 . S
C646 C648 1.391 . S
C647 C646 1.386 . S
C647 C651 1.393 . S
C648 H637 0.950 . S
C648 C646 1.391 . S
C648 C649 1.400 . S
C649 C643 1.491 . S
C649 C648 1.400 . S
C649 C650 1.398 . S
C650 H638 0.950 . S
C650 C649 1.398 . S
C650 C651 1.391 . S
C651 H639 0.950 . S
C651 C647 1.393 . S
C651 C650 1.391 . S
H652 C660 0.950 . S
H653 C665 0.950 . S
H654 C662 0.950 . S
H655 C664 0.950 . S
H656 C666 0.950 . S
H657 C668 0.950 . S
H658 C670 0.950 . S
H659 C671 0.950 . S
C660 H652 0.950 . S
C660 C661 1.386 . S
C660 C662 1.391 . S
C661 C660 1.386 . S
C661 C665 1.393 . S
C662 H654 0.950 . S
C662 C660 1.391 . S
C662 C663 1.400 . S
C663 C662 1.400 . S
C663 C664 1.398 . S
C663 C669 1.491 . S
C664 H655 0.950 . S
C664 C663 1.398 . S
C664 C665 1.391 . S
C665 H653 0.950 . S
C665 C661 1.393 . S
C665 C664 1.391 . S
C666 H656 0.950 . S
C666 C667 1.386 . S
C666 C668 1.391 . S
C667 C666 1.386 . S
C667 C671 1.393 . S
C668 H657 0.950 . S
C668 C666 1.391 . S
C668 C669 1.400 . S
C669 C663 1.491 . S
C669 C668 1.400 . S
C669 C670 1.398 . S
C670 H658 0.950 . S
C670 C669 1.398 . S
C670 C671 1.391 . S
C671 H659 0.950 . S
C671 C667 1.393 . S
C671 C670 1.391 . S
H672 C680 0.950 . S
H673 C685 0.950 . S
H674 C682 0.950 . S
H675 C684 0.950 . S
H676 C686 0.950 . S
H677 C688 0.950 . S
H678 C690 0.950 . S
H679 C691 0.950 . S
C680 H672 0.950 . S
C680 C681 1.386 . S
C680 C682 1.391 . S
C681 C680 1.386 . S
C681 C685 1.393 . S
C682 H674 0.950 . S
C682 C680 1.391 . S
C682 C683 1.400 . S
C683 C682 1.400 . S
C683 C684 1.398 . S
C683 C689 1.491 . S
C684 H675 0.950 . S
C684 C683 1.398 . S
C684 C685 1.391 . S
C685 H673 0.950 . S
C685 C681 1.393 . S
C685 C684 1.391 . S
C686 H676 0.950 . S
C686 C687 1.386 . S
C686 C688 1.391 . S
C687 C686 1.386 . S
C687 C691 1.393 . S
C688 H677 0.950 . S
C688 C686 1.391 . S
C688 C689 1.400 . S
C689 C683 1.491 . S
C689 C688 1.400 . S
C689 C690 1.398 . S
C690 H678 0.950 . S
C690 C689 1.398 . S
C690 C691 1.391 . S
C691 H679 0.950 . S
C691 C687 1.393 . S
C691 C690 1.391 . S
H692 C700 0.950 . S
H693 C705 0.950 . S
H694 C702 0.950 . S
H695 C704 0.950 . S
H696 C706 0.950 . S
H697 C708 0.950 . S
H698 C710 0.950 . S
H699 C711 0.950 . S
C700 H692 0.950 . S
C700 C701 1.386 . S
C700 C702 1.391 . S
C701 C700 1.386 . S
C701 C705 1.393 . S
C702 H694 0.950 . S
C702 C700 1.391 . S
C702 C703 1.400 . S
C703 C702 1.400 . S
C703 C704 1.398 . S
C703 C709 1.491 . S
C704 H695 0.950 . S
C704 C703 1.398 . S
C704 C705 1.391 . S
C705 H693 0.950 . S
C705 C701 1.393 . S
C705 C704 1.391 . S
C706 H696 0.950 . S
C706 C707 1.386 . S
C706 C708 1.391 . S
C707 C706 1.386 . S
C707 C711 1.393 . S
C708 H697 0.950 . S
C708 C706 1.391 . S
C708 C709 1.400 . S
C709 C703 1.491 . S
C709 C708 1.400 . S
C709 C710 1.398 . S
C710 H698 0.950 . S
C710 C709 1.398 . S
C710 C711 1.391 . S
C711 H699 0.950 . S
C711 C707 1.393 . S
C711 C710 1.391 . S
C241 C5 0.826 . S
C247 C76 0.826 . S
C261 C14 0.977 . S
C267 C137 1.003 . S
C287 C175 2.523 . S
C281 C25 2.582 . S
C301 C34 2.396 . S
C307 C215 2.352 . S
C327 C135 1.102 . S
C321 C7 1.072 . S
C347 C103 1.789 . S
C341 C13 1.714 . S
C367 C212 1.761 . S
C361 C23 1.789 . S
C387 C172 1.887 . S
C381 C31 1.909 . S
C401 C4 1.019 . S
C407 C217 1.023 . S
C427 C132 2.367 . S
C421 C22 2.369 . S
C441 C32 2.235 . S
C447 C74 2.198 . S
C461 C16 1.255 . S
C467 C177 1.289 . S
C487 C97 0.822 . S
C481 C41 0.822 . S
C501 C50 0.983 . S
C507 C116 1.014 . S
C521 C61 2.573 . S
C527 C154 2.511 . S
C541 C67 2.407 . S
C547 C194 2.367 . S
C561 C40 1.099 . S
C567 C114 1.128 . S
C587 C92 1.768 . S
C581 C52 1.688 . S
C607 C223 1.769 . S
C601 C59 1.796 . S
C627 C183 1.884 . S
C621 C70 1.899 . S
C641 C43 1.017 . S
C647 C196 1.026 . S
C667 C143 2.376 . S
C661 C58 2.379 . S
C687 C95 2.177 . S
C681 C68 2.215 . S
C701 C49 1.253 . S
C707 C156 1.293 . S
