# Generated by pormake.
# Topology pth, (4,4)-cn, num edge types: 1
# Building blocks:
#     Node 0, Type 0, BuildingBlock: QUQFOY_clean_sbu_3, # of connection points: 4
#     Node 1, Type 0, BuildingBlock: QUQFOY_clean_sbu_3, # of connection points: 4
#     Node 2, Type 0, BuildingBlock: QUQFOY_clean_sbu_3, # of connection points: 4
#     Node 3, Type 1, BuildingBlock: NAWXER_clean_linker_0, # of connection points: 4
#     Node 4, Type 1, BuildingBlock: NAWXER_clean_linker_0, # of connection points: 4
#     Node 5, Type 1, BuildingBlock: NAWXER_clean_linker_0, # of connection points: 4
#     Edge 6, Type (0, 1), BuildingBlock: AJUNOK_clean_linker_0, # of connection points: 2
#     Edge 7, Type (0, 1), BuildingBlock: AJUNOK_clean_linker_0, # of connection points: 2
#     Edge 8, Type (0, 1), BuildingBlock: AJUNOK_clean_linker_0, # of connection points: 2
#     Edge 9, Type (0, 1), BuildingBlock: AJUNOK_clean_linker_0, # of connection points: 2
#     Edge 10, Type (0, 1), BuildingBlock: AJUNOK_clean_linker_0, # of connection points: 2
#     Edge 11, Type (0, 1), BuildingBlock: AJUNOK_clean_linker_0, # of connection points: 2
#     Edge 12, Type (0, 1), BuildingBlock: AJUNOK_clean_linker_0, # of connection points: 2
#     Edge 13, Type (0, 1), BuildingBlock: AJUNOK_clean_linker_0, # of connection points: 2
#     Edge 14, Type (0, 1), BuildingBlock: AJUNOK_clean_linker_0, # of connection points: 2
#     Edge 15, Type (0, 1), BuildingBlock: AJUNOK_clean_linker_0, # of connection points: 2
#     Edge 16, Type (0, 1), BuildingBlock: AJUNOK_clean_linker_0, # of connection points: 2
#     Edge 17, Type (0, 1), BuildingBlock: AJUNOK_clean_linker_0, # of connection points: 2
# Relax obj value: 0.008
# Max RMSD: 0.059
# Mean RMSD: 0.041
data_MOF--net-pth--node1-QUQFOY_clean_sbu_3--node2-NAWXER_clean_linker_0--edge1-AJUNOK_clean_linker_0
_symmetry_space_group_name_H-M    P1
_symmetry_Int_Tables_number       1
_symmetry_cell_setting            triclinic
loop_
_symmetry_equiv_pos_as_xyz
'x, y, z'
_cell_length_a     23.08966
_cell_length_b     22.889582
_cell_length_c     53.011768
_cell_angle_alpha  90.022872
_cell_angle_beta   90.925894
_cell_angle_gamma 120.7753
loop_
_atom_site_label
_atom_site_type_symbol
_atom_site_fract_x
_atom_site_fract_y
_atom_site_fract_z
_atom_type_partial_charge
C0 C 0.97704 0.16809 0.07254 0.0
O1 O 0.93668 0.16005 0.05452 0.0
Cd2 Cd 0.93181 0.10242 0.01613 0.0
O3 O 0.01144 0.13887 0.07207 0.0
Cd4 Cd 0.02031 0.05395 0.04564 0.0
C5 C 0.10114 0.17492 0.00229 0.0
O6 O 0.90616 0.99074 0.02712 0.0
O7 O 0.98092 0.97365 0.01047 0.0
O8 O 0.00348 -0.00664 0.08495 0.0
C9 C 0.91999 0.9586 0.01113 0.0
O10 O 0.04361 0.16797 -0.00238 0.0
C11 C 0.05078 0.98123 0.08205 0.0
O12 O 0.10898 0.14134 0.01981 0.0
O13 O 0.08594 0.00489 0.06239 0.0
C14 C 0.15211 0.10294 0.40566 0.0
O15 O 0.18517 0.14499 0.38847 0.0
Cd16 Cd 0.13178 0.16204 0.35246 0.0
O17 O 0.08792 0.07105 0.40526 0.0
Cd18 Cd -0.00663 0.06409 0.37975 0.0
C19 C 0.0375 -0.00716 0.33415 0.0
O20 O 0.04389 0.18114 0.36515 0.0
O21 O 0.95611 0.10526 0.34435 0.0
O22 O 0.95094 0.07519 0.41992 0.0
C23 C -0.00033 0.16752 0.34798 0.0
O24 O 0.08568 0.05336 0.3305 0.0
C25 C 0.89056 0.02746 0.4162 0.0
O26 O -0.0037 0.97978 0.352 0.0
O27 O 0.87735 -0.00495 0.39537 0.0
C28 C 0.9072 0.1064 0.6824 0.0
O29 O 0.91782 0.14581 0.70099 0.0
Cd30 Cd -0.01218 0.15765 0.7366 0.0
O31 O 0.93853 0.07415 0.68092 0.0
Cd32 Cd 0.02624 0.06467 0.70536 0.0
C33 C 0.91427 0.98729 0.7515 0.0
O34 O 0.09458 0.17933 0.72275 0.0
O35 O 0.10465 0.10089 0.74134 0.0
O36 O 0.08997 0.09029 0.6672 0.0
C37 C 0.12505 0.16361 0.73903 0.0
O38 O 0.92663 0.04705 0.75659 0.0
C39 C 0.09708 0.03894 0.66727 0.0
O40 O 0.94097 0.97637 0.73254 0.0
O41 O 0.06862 -0.00341 0.68498 0.0
C42 C 0.96576 0.35679 0.26072 0.0
C43 C 0.0204 0.37098 0.27695 0.0
C44 C 0.9706 0.40544 0.24356 0.0
C45 C 0.02999 0.46911 0.2425 0.0
C46 C 0.08052 0.43416 0.27513 0.0
C47 C 0.08482 0.48314 0.25836 0.0
C48 C 0.03353 0.52345 0.22657 0.0
C49 C 0.04475 0.37461 0.17324 0.0
C50 C 0.0031 0.35684 0.1515 0.0
C51 C 0.0527 0.42683 0.18935 0.0
C52 C 0.01717 0.46064 0.18456 0.0
C53 C 0.96767 0.39071 0.14684 0.0
C54 C 0.97439 0.4416 0.16319 0.0
C55 C 0.02745 0.51952 0.19998 0.0
C56 C 0.09599 0.80527 0.17337 0.0
C57 C 0.05758 0.78886 0.15095 0.0
C58 C 0.08988 0.7537 0.18926 0.0
C59 C 0.04344 0.68497 0.18338 0.0
C60 C 0.01231 0.72048 0.14476 0.0
C61 C 0.00519 0.66905 0.16085 0.0
C62 C 0.03757 0.62895 0.19935 0.0
C63 C 0.98452 0.74817 0.25206 0.0
C64 C 0.03174 0.78084 0.27179 0.0
C65 C -0.01234 0.7 0.23685 0.0
C66 C 0.03816 0.68398 0.24115 0.0
C67 C 0.08193 0.76448 0.27614 0.0
C68 C 0.08466 0.7159 0.26111 0.0
C69 C 0.04012 0.63093 0.22599 0.0
H70 H 0.91871 0.30869 0.26169 0.0
H71 H 0.92745 0.39416 0.23166 0.0
H72 H 0.12431 0.44592 0.2867 0.0
H73 H 0.13105 0.53214 0.25775 0.0
H74 H 0.07182 0.34873 0.1777 0.0
H75 H 0.08813 0.44175 0.20504 0.0
H76 H 0.93582 0.3791 0.13015 0.0
H77 H 0.94672 0.46698 0.15882 0.0
H78 H 0.1316 0.85787 0.17831 0.0
H79 H 0.12239 0.76773 0.20584 0.0
H80 H 0.98206 0.70695 0.12755 0.0
H81 H 0.96961 0.61663 0.15565 0.0
H82 H 0.94574 0.76045 0.24824 0.0
H83 H 0.95032 0.67482 0.22189 0.0
H84 H 0.11874 0.78898 0.29132 0.0
H85 H 0.12345 0.70361 0.26492 0.0
N86 N 0.03929 0.57875 0.2385 0.0
N87 N 0.03042 0.57288 0.18753 0.0
C88 C 0.70263 0.06134 0.49983 0.0
C89 C 0.68594 0.00398 0.48477 0.0
C90 C 0.65407 0.06306 0.51467 0.0
C91 C 0.58769 0.00763 0.51467 0.0
C92 C 0.61922 0.94875 0.48467 0.0
C93 C 0.57047 0.95078 0.49938 0.0
C94 C 0.53531 0.01028 0.52946 0.0
C95 C 0.67508 0.0032 0.59029 0.0
C96 C 0.70754 0.0636 0.60475 0.0
C97 C 0.62269 0.9908 0.57336 0.0
C98 C 0.60225 0.03867 0.57075 0.0
C99 C 0.68921 0.11279 0.60094 0.0
C100 C 0.63648 0.10001 0.58437 0.0
C101 C 0.54205 0.02388 0.55562 0.0
C102 C 0.26495 0.96677 0.58239 0.0
C103 C 0.2832 0.01832 0.60052 0.0
C104 C 0.31425 0.96628 0.5675 0.0
C105 C 0.38246 0.01707 0.57071 0.0
C106 C 0.35144 0.06829 0.60398 0.0
C107 C 0.40065 0.06735 0.58935 0.0
C108 C 0.43559 0.01723 0.55538 0.0
C109 C 0.32287 0.07568 0.5018 0.0
C110 C 0.29736 0.03672 0.47963 0.0
C111 C 0.36513 0.06585 0.5181 0.0
C112 C 0.38097 0.01527 0.51298 0.0
C113 C 0.31333 0.98658 0.47428 0.0
C114 C 0.3546 0.97576 0.49087 0.0
C115 C 0.43129 0.00933 0.52884 0.0
H116 H 0.75287 0.10574 0.49966 0.0
H117 H 0.66803 0.10838 0.52571 0.0
H118 H 0.60474 0.90398 0.47321 0.0
H119 H 0.5193 0.90779 0.4989 0.0
H120 H 0.68836 0.9645 0.59283 0.0
H121 H 0.59648 0.94292 0.5631 0.0
H122 H 0.71468 0.16066 0.61122 0.0
H123 H 0.6217 0.13777 0.58243 0.0
H124 H 0.21258 0.92761 0.57953 0.0
H125 H 0.2992 0.92614 0.55359 0.0
H126 H 0.36665 0.10807 0.61807 0.0
H127 H 0.45295 0.10662 0.59233 0.0
H128 H 0.31248 0.11576 0.50594 0.0
H129 H 0.38746 0.09987 0.53415 0.0
H130 H 0.29458 0.95644 0.4571 0.0
H131 H 0.36701 0.93742 0.48618 0.0
N132 N 0.48056 0.00436 0.51699 0.0
N133 N 0.49157 0.02585 0.5676 0.0
C134 C 0.35468 0.34454 0.82757 0.0
C135 C 0.31735 0.36207 0.81125 0.0
C136 C 0.40165 0.3922 0.84476 0.0
C137 C 0.41243 0.45825 0.84573 0.0
C138 C 0.32661 0.42763 0.81308 0.0
C139 C 0.37462 0.47563 0.82983 0.0
C140 C 0.46677 0.51103 0.86172 0.0
C141 C 0.29904 0.38154 0.91446 0.0
C142 C 0.31658 0.35702 0.93581 0.0
C143 C 0.34869 0.42884 0.89867 0.0
C144 C 0.41707 0.45129 0.90338 0.0
C145 C 0.38502 0.3801 0.94071 0.0
C146 C 0.4346 0.42643 0.92461 0.0
C147 C 0.47105 0.50589 0.88816 0.0
C148 C 0.69534 0.78123 0.91983 0.0
C149 C 0.72609 0.76255 0.93868 0.0
C150 C 0.64802 0.73238 0.90305 0.0
C151 C 0.63109 0.66419 0.90478 0.0
C152 C 0.70985 0.69459 0.94014 0.0
C153 C 0.6623 0.64574 0.92347 0.0
C154 C 0.57651 0.61081 0.88888 0.0
C155 C 0.74065 0.73847 0.83377 0.0
C156 C 0.72179 0.7713 0.8159 0.0
C157 C 0.69234 0.68878 0.84942 0.0
C158 C 0.62455 0.67133 0.8474 0.0
C159 C 0.65406 0.75383 0.81398 0.0
C160 C 0.60581 0.70385 0.82942 0.0
C161 C 0.57186 0.61581 0.86248 0.0
H162 H 0.34888 0.29455 0.82659 0.0
H163 H 0.43108 0.37823 0.85671 0.0
H164 H 0.297 0.44207 0.80149 0.0
H165 H 0.38225 0.52643 0.83042 0.0
H166 H 0.24681 0.36503 0.91019 0.0
H167 H 0.33335 0.44939 0.88333 0.0
H168 H 0.40058 0.36403 0.95739 0.0
H169 H 0.48699 0.44392 0.92905 0.0
H170 H 0.7076 0.8335 0.9182 0.0
H171 H 0.62339 0.74758 0.8892 0.0
H172 H 0.73275 0.67898 0.95458 0.0
H173 H 0.6494 0.59329 0.92531 0.0
H174 H 0.79273 0.7516 0.83573 0.0
H175 H 0.70772 0.66325 0.86277 0.0
H176 H 0.63835 0.77837 0.80029 0.0
H177 H 0.55371 0.69065 0.82736 0.0
N178 N 0.51703 0.56582 0.84997 0.0
N179 N 0.52608 0.55601 0.90063 0.0
C180 C 0.92801 0.21403 0.10264 0.0
C181 C 0.98447 0.21253 0.09406 0.0
C182 C 0.93421 0.25872 0.12197 0.0
C183 C -0.00261 0.30485 0.13309 0.0
H184 H 0.87859 0.18049 0.0943 0.0
H185 H 0.88912 0.25776 0.12797 0.0
S186 S 0.16121 0.32212 0.1166 0.0
N187 N 0.10537 0.25998 0.09813 0.0
N188 N 0.1179 0.34656 0.1336 0.0
C189 C 0.05425 0.30321 0.12481 0.0
C190 C 0.04758 0.25652 0.10548 0.0
C191 C 0.77052 0.9877 0.42631 0.0
C192 C 0.83762 0.0141 0.43458 0.0
C193 C 0.72132 0.98277 0.44283 0.0
C194 C 0.73727 0.00344 0.46828 0.0
H195 H 0.75647 0.97346 0.40669 0.0
H196 H 0.67102 0.965 0.43534 0.0
S197 S 0.9033 0.06581 0.50015 0.0
N198 N 0.91602 0.05483 0.4704 0.0
N199 N 0.82324 0.04371 0.50156 0.0
C200 C 0.80335 0.02623 0.47708 0.0
C201 C 0.85355 0.03196 0.46021 0.0
C202 C 0.82393 0.94073 0.78361 0.0
C203 C 0.86642 0.93061 0.76768 0.0
C204 C 0.77772 0.88899 0.79913 0.0
C205 C 0.77249 0.82518 0.79963 0.0
H206 H 0.8257 0.98894 0.78397 0.0
H207 H 0.74595 0.89914 0.81096 0.0
S208 S 0.87146 0.77164 0.76187 0.0
N209 N 0.89994 0.85118 0.75349 0.0
N210 N 0.8129 0.75388 0.78295 0.0
C211 C 0.81469 0.81409 0.78404 0.0
C212 C 0.86153 0.86672 0.76796 0.0
C213 C 0.03835 0.93198 0.12501 0.0
C214 C 0.06085 0.9378 0.10009 0.0
C215 C 0.04029 0.88565 0.14178 0.0
C216 C 0.06356 0.84275 0.13403 0.0
H217 H 0.01792 0.96258 0.13147 0.0
H218 H 0.02111 0.88154 0.16062 0.0
S219 S 0.13036 0.83921 0.07137 0.0
N220 N 0.10994 0.89844 0.06896 0.0
N221 N 0.11184 0.81018 0.10042 0.0
C222 C 0.08776 0.84906 0.10948 0.0
C223 C 0.08698 0.89704 0.09252 0.0
C224 C 0.25023 0.09248 0.41942 0.0
C225 C 0.18847 0.08724 0.42522 0.0
C226 C 0.28436 0.07469 0.43701 0.0
C227 C 0.25862 0.05228 0.46118 0.0
H228 H 0.27186 0.10928 0.40096 0.0
H229 H 0.3317 0.07931 0.43178 0.0
S230 S 0.10014 0.03125 0.48614 0.0
N231 N 0.10328 0.05827 0.45701 0.0
N232 N 0.16871 0.02654 0.49031 0.0
C233 C 0.19755 0.04761 0.46742 0.0
C234 C 0.16207 0.06455 0.44936 0.0
C235 C 0.18042 0.19592 0.78163 0.0
C236 C 0.17519 0.21463 0.75682 0.0
C237 C 0.22624 0.2439 0.79911 0.0
C238 C 0.26929 0.31217 0.7923 0.0
H239 H 0.14789 0.14409 0.78777 0.0
H240 H 0.22725 0.22751 0.81819 0.0
S241 S 0.2798 0.38492 0.72873 0.0
N242 N 0.21862 0.30476 0.72586 0.0
N243 N 0.30704 0.39451 0.7583 0.0
C244 C 0.26569 0.33097 0.76727 0.0
C245 C 0.21811 0.28231 0.74964 0.0
C246 C 0.85912 0.07321 0.63842 0.0
C247 C 0.85626 0.09609 0.66278 0.0
C248 C 0.81088 0.06262 0.6197 0.0
C249 C 0.75791 0.07418 0.62472 0.0
H250 H 0.89929 0.06407 0.63368 0.0
H251 H 0.81553 0.04604 0.60109 0.0
S252 S 0.7235 0.12712 0.68619 0.0
N253 N 0.79358 0.12592 0.69127 0.0
N254 N 0.70245 0.10455 0.65635 0.0
C255 C 0.75355 0.09538 0.64917 0.0
C256 C 0.80284 0.10673 0.66812 0.0
C257 C 0.88477 0.86773 0.97833 0.0
C258 C 0.86905 0.90889 0.99301 0.0
C259 C 0.83827 0.82064 0.96081 0.0
C260 C 0.77457 0.81344 0.95708 0.0
H261 H 0.93336 0.87158 0.98043 0.0
H262 H 0.85249 0.78998 0.94993 0.0
S263 S 0.70771 0.90786 0.99079 0.0
N264 N 0.78453 0.93865 0.00272 0.0
N265 N 0.69726 0.85004 0.96967 0.0
C266 C 0.758 0.85411 0.97155 0.0
C267 C 0.80514 0.90176 0.98957 0.0
C268 C 0.0897 0.94937 0.30437 0.0
C269 C 0.03289 0.9375 0.31807 0.0
C270 C 0.08862 0.89838 0.2895 0.0
C271 C 0.03048 0.83369 0.28742 0.0
H272 H 0.13604 -0.00171 0.30539 0.0
H273 H 0.13364 0.90978 0.27942 0.0
S274 S 0.868 0.77581 0.31894 0.0
N275 N 0.91647 0.85564 0.32836 0.0
N276 N 0.91456 0.75982 0.30006 0.0
C277 C 0.97301 0.82094 0.30068 0.0
C278 C 0.97423 0.87277 0.31613 0.0
C279 C 0.14555 0.97301 0.64812 0.0
C280 C 0.14013 0.0316 0.6485 0.0
C281 C 0.19023 0.96777 0.63188 0.0
C282 C 0.23154 0.02126 0.61571 0.0
H283 H 0.11603 0.93139 0.66078 0.0
H284 H 0.19412 0.92258 0.63256 0.0
S285 S 0.23384 0.18319 0.60785 0.0
N286 N 0.17777 0.14259 0.6299 0.0
N287 N 0.2618 0.13245 0.59981 0.0
C288 C 0.22528 0.07901 0.61529 0.0
C289 C 0.17953 0.08424 0.63156 0.0
C290 C 0.16061 0.27945 0.9763 0.0
C291 C 0.15872 0.22196 0.98663 0.0
C292 C 0.21226 0.32307 0.96025 0.0
C293 C 0.2636 0.31041 0.9535 0.0
H294 H 0.12189 0.29104 0.98072 0.0
H295 H 0.21193 0.36723 0.9531 0.0
S296 S 0.27964 0.16449 0.97451 0.0
N297 N 0.21199 0.15393 0.98883 0.0
N298 N 0.30795 0.2346 0.95787 0.0
C299 C 0.26229 0.25295 0.9637 0.0
C300 C 0.21014 0.20905 0.98043 0.0
C301 C 0.9789 0.20205 0.30572 0.0
C302 C 0.00434 0.22012 0.33058 0.0
C303 C 0.98435 0.25106 0.28856 0.0
C304 C 0.01463 0.31994 0.29568 0.0
H305 H 0.95577 0.14977 0.29927 0.0
H306 H 0.96556 0.23492 0.26944 0.0
S307 S 0.08298 0.3922 0.35944 0.0
N308 N 0.05793 0.31075 0.36191 0.0
N309 N 0.06581 0.40266 0.33001 0.0
C310 C 0.03864 0.33833 0.32075 0.0
C311 C 0.03404 0.2885 0.3381 0.0
loop_
_geom_bond_atom_site_label_1
_geom_bond_atom_site_label_2
_geom_bond_distance
_geom_bond_site_symmetry_2
_ccdc_geom_bond_type
C0 O1 1.306 1_455 S
C0 O3 1.160 . S
O1 C0 1.306 1_655 S
O1 Cd2 2.228 . S
Cd2 O1 2.228 . S
Cd2 O6 2.273 . S
Cd2 O10 2.277 1_655 S
O3 C0 1.160 . S
O3 Cd4 2.203 . S
Cd4 O3 2.203 . S
Cd4 O6 2.411 1_455 S
Cd4 O7 2.333 1_445 S
Cd4 O8 2.352 1_445 S
Cd4 O12 2.277 . S
Cd4 O13 2.356 1_545 S
C5 O10 1.209 . S
C5 O12 1.226 . S
O6 Cd2 2.273 . S
O6 Cd4 2.411 1_655 S
O6 C9 1.320 1_545 S
O7 Cd4 2.333 1_665 S
O7 C9 1.214 . S
O8 Cd4 2.352 1_665 S
O8 C11 1.258 1_655 S
C9 O6 1.320 1_565 S
C9 O7 1.214 . S
O10 Cd2 2.277 1_455 S
O10 C5 1.209 . S
C11 O8 1.258 1_455 S
C11 O13 1.282 . S
O12 Cd4 2.277 . S
O12 C5 1.226 . S
O13 Cd4 2.356 1_565 S
O13 C11 1.282 . S
C14 O15 1.306 . S
C14 O17 1.160 . S
O15 C14 1.306 . S
O15 Cd16 2.228 . S
Cd16 O15 2.228 . S
Cd16 O20 2.273 . S
Cd16 O24 2.277 . S
O17 C14 1.160 . S
O17 Cd18 2.203 . S
Cd18 O17 2.203 . S
Cd18 O20 2.411 . S
Cd18 O21 2.333 1_455 S
Cd18 O22 2.352 1_455 S
Cd18 O26 2.277 1_445 S
Cd18 O27 2.356 1_445 S
C19 O24 1.209 1_565 S
C19 O26 1.226 1_455 S
O20 Cd16 2.273 . S
O20 Cd18 2.411 . S
O20 C23 1.320 . S
O21 Cd18 2.333 1_655 S
O21 C23 1.214 1_655 S
O22 Cd18 2.352 1_655 S
O22 C25 1.258 . S
C23 O20 1.320 . S
C23 O21 1.214 1_455 S
O24 Cd16 2.277 . S
O24 C19 1.209 1_545 S
C25 O22 1.258 . S
C25 O27 1.283 1_545 S
O26 Cd18 2.277 1_665 S
O26 C19 1.226 1_655 S
O27 Cd18 2.356 1_665 S
O27 C25 1.283 1_565 S
C28 O29 1.306 . S
C28 O31 1.160 . S
O29 C28 1.306 . S
O29 Cd30 2.228 . S
Cd30 O29 2.228 . S
Cd30 O34 2.273 1_655 S
Cd30 O38 2.277 . S
O31 C28 1.160 . S
O31 Cd32 2.203 1_655 S
Cd32 O31 2.203 1_455 S
Cd32 O34 2.411 . S
Cd32 O35 2.333 . S
Cd32 O36 2.352 . S
Cd32 O40 2.277 1_445 S
Cd32 O41 2.356 . S
C33 O38 1.209 1_565 S
C33 O40 1.226 . S
O34 Cd30 2.273 1_455 S
O34 Cd32 2.411 . S
O34 C37 1.320 . S
O35 Cd32 2.333 . S
O35 C37 1.214 . S
O36 Cd32 2.352 . S
O36 C39 1.258 . S
C37 O34 1.320 . S
C37 O35 1.214 . S
O38 Cd30 2.277 . S
O38 C33 1.209 1_545 S
C39 O36 1.258 . S
C39 O41 1.282 . S
O40 Cd32 2.277 1_665 S
O40 C33 1.226 . S
O41 Cd32 2.356 . S
O41 C39 1.282 . S
C42 C43 1.384 1_655 S
C42 C44 1.389 1_655 S
C42 H70 0.931 . S
C43 C42 1.384 1_455 S
C43 C46 1.382 . S
C44 C42 1.389 1_455 S
C44 C45 1.384 . S
C44 H71 0.922 1_455 S
C45 C44 1.384 . S
C45 C47 1.381 . S
C45 C48 1.487 . S
C46 C43 1.382 . S
C46 C47 1.387 . S
C46 H72 0.930 . S
C47 C45 1.381 . S
C47 C46 1.387 . S
C47 H73 0.931 . S
C48 C45 1.487 . S
C48 C55 1.399 . S
C48 N86 1.343 . S
C49 C50 1.384 . S
C49 C51 1.384 . S
C49 H74 0.931 . S
C50 C49 1.384 . S
C50 C53 1.382 1_455 S
C51 C49 1.384 . S
C51 C52 1.381 . S
C51 H75 0.930 . S
C52 C51 1.381 . S
C52 C54 1.381 1_455 S
C52 C55 1.487 . S
C53 C50 1.382 1_655 S
C53 C54 1.387 . S
C53 H76 0.930 . S
C54 C52 1.381 1_655 S
C54 C53 1.387 . S
C54 H77 0.931 . S
C55 C48 1.399 . S
C55 C52 1.487 . S
C55 N87 1.343 . S
C56 C57 1.384 . S
C56 C58 1.384 . S
C56 H78 0.931 . S
C57 C56 1.384 . S
C57 C60 1.382 1_455 S
C58 C56 1.384 . S
C58 C59 1.381 . S
C58 H79 0.930 . S
C59 C58 1.381 . S
C59 C61 1.381 1_455 S
C59 C62 1.487 . S
C60 C57 1.382 1_655 S
C60 C61 1.387 . S
C60 H80 0.930 . S
C61 C59 1.381 1_655 S
C61 C60 1.387 . S
C61 H81 0.931 . S
C62 C59 1.487 . S
C62 C69 1.399 . S
C62 N87 1.343 . S
C63 C64 1.384 1_655 S
C63 C65 1.379 1_655 S
C63 H82 0.931 . S
C64 C63 1.384 1_455 S
C64 C67 1.382 . S
C65 C63 1.379 1_455 S
C65 C66 1.394 . S
C65 H83 0.923 1_455 S
C66 C65 1.394 . S
C66 C68 1.381 . S
C66 C69 1.487 . S
C67 C64 1.382 . S
C67 C68 1.387 . S
C67 H84 0.930 . S
C68 C66 1.381 . S
C68 C67 1.387 . S
C68 H85 0.931 . S
C69 C62 1.399 . S
C69 C66 1.487 . S
C69 N86 1.343 . S
H70 C42 0.931 . S
H71 C44 0.922 1_655 S
H72 C46 0.930 . S
H73 C47 0.931 . S
H74 C49 0.931 . S
H75 C51 0.930 . S
H76 C53 0.930 . S
H77 C54 0.931 . S
H78 C56 0.931 . S
H79 C58 0.930 . S
H80 C60 0.930 . S
H81 C61 0.931 . S
H82 C63 0.931 . S
H83 C65 0.923 1_655 S
H84 C67 0.930 . S
H85 C68 0.931 . S
N86 C48 1.343 . S
N86 C69 1.343 . S
N87 C55 1.343 . S
N87 C62 1.343 . S
C88 C89 1.384 . S
C88 C90 1.384 . S
C88 H116 0.931 . S
C89 C88 1.384 . S
C89 C92 1.382 . S
C90 C88 1.384 . S
C90 C91 1.381 . S
C90 H117 0.930 . S
C91 C90 1.381 . S
C91 C93 1.381 . S
C91 C94 1.487 . S
C92 C89 1.382 . S
C92 C93 1.387 . S
C92 H118 0.930 1_545 S
C93 C91 1.381 . S
C93 C92 1.387 . S
C93 H119 0.931 1_545 S
C94 C91 1.487 . S
C94 C101 1.399 . S
C94 N132 1.343 . S
C95 C96 1.384 . S
C95 C97 1.384 . S
C95 H120 0.931 1_545 S
C96 C95 1.384 . S
C96 C99 1.382 . S
C97 C95 1.384 . S
C97 C98 1.381 . S
C97 H121 0.930 1_545 S
C98 C97 1.381 . S
C98 C100 1.381 . S
C98 C101 1.487 . S
C99 C96 1.382 . S
C99 C100 1.387 . S
C99 H122 0.930 . S
C100 C98 1.381 . S
C100 C99 1.387 . S
C100 H123 0.931 . S
C101 C94 1.399 . S
C101 C98 1.487 . S
C101 N133 1.343 . S
C102 C103 1.384 . S
C102 C104 1.384 . S
C102 H124 0.931 1_545 S
C103 C102 1.384 . S
C103 C106 1.382 . S
C104 C102 1.384 . S
C104 C105 1.381 . S
C104 H125 0.930 1_545 S
C105 C104 1.381 . S
C105 C107 1.381 . S
C105 C108 1.487 . S
C106 C103 1.382 . S
C106 C107 1.387 . S
C106 H126 0.930 . S
C107 C105 1.381 . S
C107 C106 1.387 . S
C107 H127 0.931 . S
C108 C105 1.487 . S
C108 C115 1.399 . S
C108 N133 1.343 . S
C109 C110 1.384 . S
C109 C111 1.384 . S
C109 H128 0.931 . S
C110 C109 1.384 . S
C110 C113 1.382 . S
C111 C109 1.384 . S
C111 C112 1.381 . S
C111 H129 0.930 . S
C112 C111 1.381 . S
C112 C114 1.381 . S
C112 C115 1.487 . S
C113 C110 1.382 . S
C113 C114 1.387 . S
C113 H130 0.930 1_545 S
C114 C112 1.381 . S
C114 C113 1.387 . S
C114 H131 0.931 1_545 S
C115 C108 1.399 . S
C115 C112 1.487 . S
C115 N132 1.343 . S
H116 C88 0.931 . S
H117 C90 0.930 . S
H118 C92 0.930 1_565 S
H119 C93 0.931 1_565 S
H120 C95 0.931 1_565 S
H121 C97 0.930 1_565 S
H122 C99 0.930 . S
H123 C100 0.931 . S
H124 C102 0.931 1_565 S
H125 C104 0.930 1_565 S
H126 C106 0.930 . S
H127 C107 0.931 . S
H128 C109 0.931 . S
H129 C111 0.930 . S
H130 C113 0.930 1_565 S
H131 C114 0.931 1_565 S
N132 C94 1.343 . S
N132 C115 1.343 . S
N133 C101 1.343 . S
N133 C108 1.343 . S
C134 C135 1.384 . S
C134 C136 1.384 . S
C134 H162 0.931 . S
C135 C134 1.384 . S
C135 C138 1.382 . S
C136 C134 1.384 . S
C136 C137 1.381 . S
C136 H163 0.930 . S
C137 C136 1.381 . S
C137 C139 1.381 . S
C137 C140 1.487 . S
C138 C135 1.382 . S
C138 C139 1.387 . S
C138 H164 0.930 . S
C139 C137 1.381 . S
C139 C138 1.387 . S
C139 H165 0.931 . S
C140 C137 1.487 . S
C140 C147 1.399 . S
C140 N178 1.343 . S
C141 C142 1.384 . S
C141 C143 1.384 . S
C141 H166 0.931 . S
C142 C141 1.384 . S
C142 C145 1.382 . S
C143 C141 1.384 . S
C143 C144 1.381 . S
C143 H167 0.930 . S
C144 C143 1.381 . S
C144 C146 1.381 . S
C144 C147 1.487 . S
C145 C142 1.382 . S
C145 C146 1.387 . S
C145 H168 0.930 . S
C146 C144 1.381 . S
C146 C145 1.387 . S
C146 H169 0.931 . S
C147 C140 1.399 . S
C147 C144 1.487 . S
C147 N179 1.343 . S
C148 C149 1.384 . S
C148 C150 1.384 . S
C148 H170 0.931 . S
C149 C148 1.384 . S
C149 C152 1.382 . S
C150 C148 1.384 . S
C150 C151 1.381 . S
C150 H171 0.930 . S
C151 C150 1.381 . S
C151 C153 1.381 . S
C151 C154 1.487 . S
C152 C149 1.382 . S
C152 C153 1.387 . S
C152 H172 0.930 . S
C153 C151 1.381 . S
C153 C152 1.387 . S
C153 H173 0.931 . S
C154 C151 1.487 . S
C154 C161 1.399 . S
C154 N179 1.343 . S
C155 C156 1.384 . S
C155 C157 1.384 . S
C155 H174 0.931 . S
C156 C155 1.384 . S
C156 C159 1.382 . S
C157 C155 1.384 . S
C157 C158 1.381 . S
C157 H175 0.930 . S
C158 C157 1.381 . S
C158 C160 1.381 . S
C158 C161 1.487 . S
C159 C156 1.382 . S
C159 C160 1.387 . S
C159 H176 0.930 . S
C160 C158 1.381 . S
C160 C159 1.387 . S
C160 H177 0.931 . S
C161 C154 1.399 . S
C161 C158 1.487 . S
C161 N178 1.343 . S
H162 C134 0.931 . S
H163 C136 0.930 . S
H164 C138 0.930 . S
H165 C139 0.931 . S
H166 C141 0.931 . S
H167 C143 0.930 . S
H168 C145 0.930 . S
H169 C146 0.931 . S
H170 C148 0.931 . S
H171 C150 0.930 . S
H172 C152 0.930 . S
H173 C153 0.931 . S
H174 C155 0.931 . S
H175 C157 0.930 . S
H176 C159 0.930 . S
H177 C160 0.931 . S
N178 C140 1.343 . S
N178 C161 1.343 . S
N179 C147 1.343 . S
N179 C154 1.343 . S
C180 C181 1.369 1_655 S
C180 C182 1.419 . S
C180 H184 0.930 . S
C181 C180 1.369 1_455 S
C181 C190 1.429 . S
C182 C180 1.419 . S
C182 C183 1.363 1_655 S
C182 H185 0.929 . S
C183 C182 1.363 1_455 S
C183 C189 1.428 . S
H184 C180 0.930 . S
H185 C182 0.929 . S
S186 N187 1.613 . S
S186 N188 1.610 . S
N187 S186 1.613 . S
N187 C190 1.350 . S
N188 S186 1.610 . S
N188 C189 1.351 . S
C189 C183 1.428 . S
C189 N188 1.351 . S
C189 C190 1.434 . S
C190 C181 1.429 . S
C190 N187 1.350 . S
C190 C189 1.434 . S
C191 C192 1.369 . S
C191 C193 1.419 . S
C191 H195 0.930 . S
C192 C191 1.369 . S
C192 C201 1.429 . S
C193 C191 1.419 . S
C193 C194 1.363 . S
C193 H196 0.929 . S
C194 C193 1.363 . S
C194 C200 1.428 . S
H195 C191 0.930 . S
H196 C193 0.929 . S
S197 N198 1.613 . S
S197 N199 1.610 . S
N198 S197 1.613 . S
N198 C201 1.350 . S
N199 S197 1.610 . S
N199 C200 1.351 . S
C200 C194 1.428 . S
C200 N199 1.351 . S
C200 C201 1.434 . S
C201 C192 1.429 . S
C201 N198 1.350 . S
C201 C200 1.434 . S
C202 C203 1.369 . S
C202 C204 1.419 . S
C202 H206 0.930 . S
C203 C202 1.369 . S
C203 C212 1.429 . S
C204 C202 1.419 . S
C204 C205 1.363 . S
C204 H207 0.929 . S
C205 C204 1.363 . S
C205 C211 1.428 . S
H206 C202 0.930 . S
H207 C204 0.929 . S
S208 N209 1.613 . S
S208 N210 1.610 . S
N209 S208 1.613 . S
N209 C212 1.350 . S
N210 S208 1.610 . S
N210 C211 1.351 . S
C211 C205 1.428 . S
C211 N210 1.351 . S
C211 C212 1.434 . S
C212 C203 1.429 . S
C212 N209 1.350 . S
C212 C211 1.434 . S
C213 C214 1.369 . S
C213 C215 1.419 . S
C213 H217 0.930 . S
C214 C213 1.369 . S
C214 C223 1.429 . S
C215 C213 1.419 . S
C215 C216 1.363 . S
C215 H218 0.929 . S
C216 C215 1.363 . S
C216 C222 1.428 . S
H217 C213 0.930 . S
H218 C215 0.929 . S
S219 N220 1.613 1_655 S
S219 N221 1.610 1_655 S
N220 S219 1.613 1_455 S
N220 C223 1.350 . S
N221 S219 1.610 1_455 S
N221 C222 1.351 . S
C222 C216 1.428 . S
C222 N221 1.351 . S
C222 C223 1.434 . S
C223 C214 1.429 . S
C223 N220 1.350 . S
C223 C222 1.434 . S
C224 C225 1.369 . S
C224 C226 1.419 . S
C224 H228 0.930 . S
C225 C224 1.369 . S
C225 C234 1.429 . S
C226 C224 1.419 . S
C226 C227 1.363 . S
C226 H229 0.929 . S
C227 C226 1.363 . S
C227 C233 1.428 . S
H228 C224 0.930 . S
H229 C226 0.929 . S
S230 N231 1.613 . S
S230 N232 1.610 . S
N231 S230 1.613 . S
N231 C234 1.350 . S
N232 S230 1.610 . S
N232 C233 1.351 . S
C233 C227 1.428 . S
C233 N232 1.351 . S
C233 C234 1.434 . S
C234 C225 1.429 . S
C234 N231 1.350 . S
C234 C233 1.434 . S
C235 C236 1.369 . S
C235 C237 1.419 . S
C235 H239 0.930 . S
C236 C235 1.369 . S
C236 C245 1.429 . S
C237 C235 1.419 . S
C237 C238 1.363 . S
C237 H240 0.929 . S
C238 C237 1.363 . S
C238 C244 1.428 . S
H239 C235 0.930 . S
H240 C237 0.929 . S
S241 N242 1.613 . S
S241 N243 1.610 . S
N242 S241 1.613 . S
N242 C245 1.350 . S
N243 S241 1.610 . S
N243 C244 1.351 . S
C244 C238 1.428 . S
C244 N243 1.351 . S
C244 C245 1.434 . S
C245 C236 1.429 . S
C245 N242 1.350 . S
C245 C244 1.434 . S
C246 C247 1.369 . S
C246 C248 1.419 . S
C246 H250 0.930 . S
C247 C246 1.369 . S
C247 C256 1.429 . S
C248 C246 1.419 . S
C248 C249 1.363 . S
C248 H251 0.929 . S
C249 C248 1.363 . S
C249 C255 1.428 . S
H250 C246 0.930 . S
H251 C248 0.929 . S
S252 N253 1.613 . S
S252 N254 1.610 . S
N253 S252 1.613 . S
N253 C256 1.350 . S
N254 S252 1.610 . S
N254 C255 1.351 . S
C255 C249 1.428 . S
C255 N254 1.351 . S
C255 C256 1.434 . S
C256 C247 1.429 . S
C256 N253 1.350 . S
C256 C255 1.434 . S
C257 C258 1.369 . S
C257 C259 1.419 . S
C257 H261 0.930 1_556 S
C258 C257 1.369 . S
C258 C267 1.429 . S
C259 C257 1.419 . S
C259 C260 1.363 . S
C259 H262 0.929 . S
C260 C259 1.363 . S
C260 C266 1.428 . S
H261 C257 0.930 1_554 S
H262 C259 0.929 . S
S263 N264 1.613 . S
S263 N265 1.610 1_545 S
N264 S263 1.613 . S
N264 C267 1.350 1_545 S
N265 S263 1.610 1_565 S
N265 C266 1.351 . S
C266 C260 1.428 . S
C266 N265 1.351 . S
C266 C267 1.434 . S
C267 C258 1.429 . S
C267 N264 1.350 1_565 S
C267 C266 1.434 . S
C268 C269 1.369 . S
C268 C270 1.419 . S
C268 H272 0.930 . S
C269 C268 1.369 . S
C269 C278 1.429 1_455 S
C270 C268 1.419 . S
C270 C271 1.363 . S
C270 H273 0.929 . S
C271 C270 1.363 . S
C271 C277 1.428 1_455 S
H272 C268 0.930 . S
H273 C270 0.929 . S
S274 N275 1.613 . S
S274 N276 1.610 . S
N275 S274 1.613 . S
N275 C278 1.350 . S
N276 S274 1.610 . S
N276 C277 1.351 . S
C277 C271 1.428 1_655 S
C277 N276 1.351 . S
C277 C278 1.434 . S
C278 C269 1.429 1_655 S
C278 N275 1.350 . S
C278 C277 1.434 . S
C279 C280 1.369 . S
C279 C281 1.419 . S
C279 H283 0.930 1_545 S
C280 C279 1.369 . S
C280 C289 1.429 . S
C281 C279 1.419 . S
C281 C282 1.363 . S
C281 H284 0.929 1_545 S
C282 C281 1.363 . S
C282 C288 1.428 . S
H283 C279 0.930 1_565 S
H284 C281 0.929 1_565 S
S285 N286 1.613 . S
S285 N287 1.610 . S
N286 S285 1.613 . S
N286 C289 1.350 . S
N287 S285 1.610 . S
N287 C288 1.351 . S
C288 C282 1.428 . S
C288 N287 1.351 . S
C288 C289 1.434 . S
C289 C280 1.429 . S
C289 N286 1.350 . S
C289 C288 1.434 . S
C290 C291 1.371 . S
C290 C292 1.431 . S
C290 H294 0.915 1_556 S
C291 C290 1.371 . S
C291 C300 1.429 . S
C292 C290 1.431 . S
C292 C293 1.363 . S
C292 H295 0.929 . S
C293 C292 1.363 . S
C293 C299 1.428 . S
H294 C290 0.915 1_554 S
H295 C292 0.929 . S
S296 N297 1.613 . S
S296 N298 1.610 . S
N297 S296 1.613 . S
N297 C300 1.350 . S
N298 S296 1.610 . S
N298 C299 1.351 . S
C299 C293 1.428 . S
C299 N298 1.351 . S
C299 C300 1.434 . S
C300 C291 1.429 . S
C300 N297 1.350 . S
C300 C299 1.434 . S
C301 C302 1.369 . S
C301 C303 1.419 . S
C301 H305 0.930 . S
C302 C301 1.369 . S
C302 C311 1.429 . S
C303 C301 1.419 . S
C303 C304 1.363 . S
C303 H306 0.929 . S
C304 C303 1.363 . S
C304 C310 1.428 . S
H305 C301 0.930 . S
H306 C303 0.929 . S
S307 N308 1.613 . S
S307 N309 1.610 . S
N308 S307 1.613 . S
N308 C311 1.350 . S
N309 S307 1.610 . S
N309 C310 1.351 . S
C310 C304 1.428 . S
C310 N309 1.351 . S
C310 C311 1.434 . S
C311 C302 1.429 . S
C311 N308 1.350 . S
C311 C310 1.434 . S
C183 C50 1.465 . S
C181 C0 1.462 . S
C192 C25 1.494 . S
C194 C89 1.493 . S
C203 C33 1.516 . S
C205 C156 1.520 . S
C214 C11 1.451 . S
C216 C57 1.452 . S
C227 C110 1.490 . S
C225 C14 1.486 . S
C236 C37 1.510 . S
C238 C135 1.516 . S
C249 C96 1.488 . S
C247 C28 1.481 . S
C258 C9 1.512 1_556 S
C260 C149 1.513 . S
C271 C64 1.539 . S
C269 C19 1.536 . S
C282 C103 1.492 . S
C280 C39 1.491 . S
C293 C142 1.512 . S
C291 C5 1.516 1_556 S
C302 C23 1.542 . S
C304 C43 1.551 . S
