# Generated by pormake.
# Topology eea, (3,6)-cn, num edge types: 1
# Building blocks:
#     Node 0, Type 0, BuildingBlock: ESEHIV_clean_linker_0, # of connection points: 3
#     Node 1, Type 0, BuildingBlock: ESEHIV_clean_linker_0, # of connection points: 3
#     Node 2, Type 0, BuildingBlock: ESEHIV_clean_linker_0, # of connection points: 3
#     Node 3, Type 0, BuildingBlock: ESEHIV_clean_linker_0, # of connection points: 3
#     Node 4, Type 0, BuildingBlock: ESEHIV_clean_linker_0, # of connection points: 3
#     Node 5, Type 0, BuildingBlock: ESEHIV_clean_linker_0, # of connection points: 3
#     Node 6, Type 0, BuildingBlock: ESEHIV_clean_linker_0, # of connection points: 3
#     Node 7, Type 0, BuildingBlock: ESEHIV_clean_linker_0, # of connection points: 3
#     Node 8, Type 0, BuildingBlock: ESEHIV_clean_linker_0, # of connection points: 3
#     Node 9, Type 0, BuildingBlock: ESEHIV_clean_linker_0, # of connection points: 3
#     Node 10, Type 0, BuildingBlock: ESEHIV_clean_linker_0, # of connection points: 3
#     Node 11, Type 0, BuildingBlock: ESEHIV_clean_linker_0, # of connection points: 3
#     Node 12, Type 0, BuildingBlock: ESEHIV_clean_linker_0, # of connection points: 3
#     Node 13, Type 0, BuildingBlock: ESEHIV_clean_linker_0, # of connection points: 3
#     Node 14, Type 0, BuildingBlock: ESEHIV_clean_linker_0, # of connection points: 3
#     Node 15, Type 0, BuildingBlock: ESEHIV_clean_linker_0, # of connection points: 3
#     Node 16, Type 0, BuildingBlock: ESEHIV_clean_linker_0, # of connection points: 3
#     Node 17, Type 0, BuildingBlock: ESEHIV_clean_linker_0, # of connection points: 3
#     Node 18, Type 1, BuildingBlock: CUKXOW_clean_sbu_0, # of connection points: 6
#     Node 19, Type 1, BuildingBlock: CUKXOW_clean_sbu_0, # of connection points: 6
#     Node 20, Type 1, BuildingBlock: CUKXOW_clean_sbu_0, # of connection points: 6
#     Node 21, Type 1, BuildingBlock: CUKXOW_clean_sbu_0, # of connection points: 6
#     Node 22, Type 1, BuildingBlock: CUKXOW_clean_sbu_0, # of connection points: 6
#     Node 23, Type 1, BuildingBlock: CUKXOW_clean_sbu_0, # of connection points: 6
#     Node 24, Type 1, BuildingBlock: CUKXOW_clean_sbu_0, # of connection points: 6
#     Node 25, Type 1, BuildingBlock: CUKXOW_clean_sbu_0, # of connection points: 6
#     Node 26, Type 1, BuildingBlock: CUKXOW_clean_sbu_0, # of connection points: 6
#     Edge 27, Type (0, 1), BuildingBlock: XIVTED_clean_linker_0, # of connection points: 2
#     Edge 28, Type (0, 1), BuildingBlock: XIVTED_clean_linker_0, # of connection points: 2
#     Edge 29, Type (0, 1), BuildingBlock: XIVTED_clean_linker_0, # of connection points: 2
#     Edge 30, Type (0, 1), BuildingBlock: XIVTED_clean_linker_0, # of connection points: 2
#     Edge 31, Type (0, 1), BuildingBlock: XIVTED_clean_linker_0, # of connection points: 2
#     Edge 32, Type (0, 1), BuildingBlock: XIVTED_clean_linker_0, # of connection points: 2
#     Edge 33, Type (0, 1), BuildingBlock: XIVTED_clean_linker_0, # of connection points: 2
#     Edge 34, Type (0, 1), BuildingBlock: XIVTED_clean_linker_0, # of connection points: 2
#     Edge 35, Type (0, 1), BuildingBlock: XIVTED_clean_linker_0, # of connection points: 2
#     Edge 36, Type (0, 1), BuildingBlock: XIVTED_clean_linker_0, # of connection points: 2
#     Edge 37, Type (0, 1), BuildingBlock: XIVTED_clean_linker_0, # of connection points: 2
#     Edge 38, Type (0, 1), BuildingBlock: XIVTED_clean_linker_0, # of connection points: 2
#     Edge 39, Type (0, 1), BuildingBlock: XIVTED_clean_linker_0, # of connection points: 2
#     Edge 40, Type (0, 1), BuildingBlock: XIVTED_clean_linker_0, # of connection points: 2
#     Edge 41, Type (0, 1), BuildingBlock: XIVTED_clean_linker_0, # of connection points: 2
#     Edge 42, Type (0, 1), BuildingBlock: XIVTED_clean_linker_0, # of connection points: 2
#     Edge 43, Type (0, 1), BuildingBlock: XIVTED_clean_linker_0, # of connection points: 2
#     Edge 44, Type (0, 1), BuildingBlock: XIVTED_clean_linker_0, # of connection points: 2
#     Edge 45, Type (0, 1), BuildingBlock: XIVTED_clean_linker_0, # of connection points: 2
#     Edge 46, Type (0, 1), BuildingBlock: XIVTED_clean_linker_0, # of connection points: 2
#     Edge 47, Type (0, 1), BuildingBlock: XIVTED_clean_linker_0, # of connection points: 2
#     Edge 48, Type (0, 1), BuildingBlock: XIVTED_clean_linker_0, # of connection points: 2
#     Edge 49, Type (0, 1), BuildingBlock: XIVTED_clean_linker_0, # of connection points: 2
#     Edge 50, Type (0, 1), BuildingBlock: XIVTED_clean_linker_0, # of connection points: 2
#     Edge 51, Type (0, 1), BuildingBlock: XIVTED_clean_linker_0, # of connection points: 2
#     Edge 52, Type (0, 1), BuildingBlock: XIVTED_clean_linker_0, # of connection points: 2
#     Edge 53, Type (0, 1), BuildingBlock: XIVTED_clean_linker_0, # of connection points: 2
#     Edge 54, Type (0, 1), BuildingBlock: XIVTED_clean_linker_0, # of connection points: 2
#     Edge 55, Type (0, 1), BuildingBlock: XIVTED_clean_linker_0, # of connection points: 2
#     Edge 56, Type (0, 1), BuildingBlock: XIVTED_clean_linker_0, # of connection points: 2
#     Edge 57, Type (0, 1), BuildingBlock: XIVTED_clean_linker_0, # of connection points: 2
#     Edge 58, Type (0, 1), BuildingBlock: XIVTED_clean_linker_0, # of connection points: 2
#     Edge 59, Type (0, 1), BuildingBlock: XIVTED_clean_linker_0, # of connection points: 2
#     Edge 60, Type (0, 1), BuildingBlock: XIVTED_clean_linker_0, # of connection points: 2
#     Edge 61, Type (0, 1), BuildingBlock: XIVTED_clean_linker_0, # of connection points: 2
#     Edge 62, Type (0, 1), BuildingBlock: XIVTED_clean_linker_0, # of connection points: 2
#     Edge 63, Type (0, 1), BuildingBlock: XIVTED_clean_linker_0, # of connection points: 2
#     Edge 64, Type (0, 1), BuildingBlock: XIVTED_clean_linker_0, # of connection points: 2
#     Edge 65, Type (0, 1), BuildingBlock: XIVTED_clean_linker_0, # of connection points: 2
#     Edge 66, Type (0, 1), BuildingBlock: XIVTED_clean_linker_0, # of connection points: 2
#     Edge 67, Type (0, 1), BuildingBlock: XIVTED_clean_linker_0, # of connection points: 2
#     Edge 68, Type (0, 1), BuildingBlock: XIVTED_clean_linker_0, # of connection points: 2
#     Edge 69, Type (0, 1), BuildingBlock: XIVTED_clean_linker_0, # of connection points: 2
#     Edge 70, Type (0, 1), BuildingBlock: XIVTED_clean_linker_0, # of connection points: 2
#     Edge 71, Type (0, 1), BuildingBlock: XIVTED_clean_linker_0, # of connection points: 2
#     Edge 72, Type (0, 1), BuildingBlock: XIVTED_clean_linker_0, # of connection points: 2
#     Edge 73, Type (0, 1), BuildingBlock: XIVTED_clean_linker_0, # of connection points: 2
#     Edge 74, Type (0, 1), BuildingBlock: XIVTED_clean_linker_0, # of connection points: 2
#     Edge 75, Type (0, 1), BuildingBlock: XIVTED_clean_linker_0, # of connection points: 2
#     Edge 76, Type (0, 1), BuildingBlock: XIVTED_clean_linker_0, # of connection points: 2
#     Edge 77, Type (0, 1), BuildingBlock: XIVTED_clean_linker_0, # of connection points: 2
#     Edge 78, Type (0, 1), BuildingBlock: XIVTED_clean_linker_0, # of connection points: 2
#     Edge 79, Type (0, 1), BuildingBlock: XIVTED_clean_linker_0, # of connection points: 2
#     Edge 80, Type (0, 1), BuildingBlock: XIVTED_clean_linker_0, # of connection points: 2
# Relax obj value: 0.018
# Max RMSD: 0.125
# Mean RMSD: 0.059
data_MOF--net-eea--node1-CUKXOW_clean_sbu_0--node2-ESEHIV_clean_linker_0--edge1-XIVTED_clean_linker_0
_symmetry_space_group_name_H-M    P1
_symmetry_Int_Tables_number       1
_symmetry_cell_setting            triclinic
loop_
_symmetry_equiv_pos_as_xyz
'x, y, z'
_cell_length_a     52.784463
_cell_length_b     49.546488
_cell_length_c     56.623858
_cell_angle_alpha  93.3123
_cell_angle_beta   93.25493
_cell_angle_gamma 119.91876
loop_
_atom_site_label
_atom_site_type_symbol
_atom_site_fract_x
_atom_site_fract_y
_atom_site_fract_z
_atom_type_partial_charge
H0 H 0.27498 0.19308 0.45884 0.0
H1 H 0.26979 0.10332 0.45686 0.0
H2 H 0.22989 0.12482 0.39843 0.0
C3 C 0.26807 0.17028 0.44976 0.0
C4 C 0.2515 0.1613 0.42747 0.0
C5 C 0.27497 0.14956 0.46058 0.0
C6 C 0.26532 0.11989 0.44859 0.0
C7 C 0.24942 0.11102 0.42613 0.0
C8 C 0.24264 0.13183 0.41564 0.0
H9 H 0.82097 0.09166 0.45771 0.0
H10 H 0.90357 0.17848 0.46676 0.0
H11 H 0.88004 0.1141 0.40393 0.0
C12 C 0.8417 0.10784 0.45131 0.0
C13 C 0.84832 0.1001 0.42929 0.0
C14 C 0.86187 0.13557 0.46542 0.0
C15 C 0.88817 0.15675 0.45626 0.0
C16 C 0.89477 0.14965 0.43373 0.0
C17 C 0.87491 0.12077 0.42077 0.0
H18 H 0.83341 0.72198 0.46897 0.0
H19 H 0.91656 0.72533 0.47493 0.0
H20 H 0.89322 0.76212 0.41599 0.0
C21 C 0.85448 0.729 0.4624 0.0
C22 C 0.86096 0.74334 0.44118 0.0
C23 C 0.87461 0.72311 0.47511 0.0
C24 C 0.901 0.73013 0.46555 0.0
C25 C 0.90732 0.74329 0.44379 0.0
C26 C 0.88752 0.75042 0.43207 0.0
H27 H 0.09261 0.29287 0.53765 0.0
H28 H 0.17198 0.28823 0.53944 0.0
H29 H 0.10787 0.2401 0.58824 0.0
C30 C 0.10672 0.28498 0.54546 0.0
C31 C 0.09759 0.26609 0.56422 0.0
C32 C 0.13334 0.29263 0.53613 0.0
C33 C 0.15139 0.28231 0.54654 0.0
C34 C 0.14258 0.26351 0.5655 0.0
C35 C 0.11542 0.25526 0.57406 0.0
H36 H 0.72775 0.89601 0.54658 0.0
H37 H 0.72616 0.80813 0.54345 0.0
H38 H 0.77256 0.8771 0.60323 0.0
C39 C 0.73334 0.88008 0.55461 0.0
C40 C 0.75074 0.88977 0.57647 0.0
C41 C 0.72465 0.85084 0.54238 0.0
C42 C 0.73277 0.83077 0.55269 0.0
C43 C 0.75012 0.84016 0.57461 0.0
C44 C 0.75924 0.8698 0.58628 0.0
H45 H 0.08728 0.81717 0.52706 0.0
H46 H 0.17435 0.89721 0.54275 0.0
H47 H 0.11181 0.87396 0.59401 0.0
C48 C 0.10371 0.83657 0.53922 0.0
C49 C 0.09622 0.84293 0.5615 0.0
C50 C 0.13184 0.85627 0.53213 0.0
C51 C 0.15261 0.88186 0.54792 0.0
C52 C 0.1453 0.88868 0.56999 0.0
C53 C 0.11724 0.86897 0.57673 0.0
H54 H 0.92827 0.51618 0.79918 0.0
H55 H 0.92776 0.42887 0.79415 0.0
H56 H 0.89688 0.4562 0.73348 0.0
C57 C 0.92415 0.49501 0.78889 0.0
C58 C 0.91288 0.48926 0.76486 0.0
C59 C 0.92944 0.47326 0.79976 0.0
C60 C 0.92333 0.44565 0.7862 0.0
C61 C 0.91133 0.43917 0.76243 0.0
C62 C 0.90674 0.46137 0.75169 0.0
H63 H 0.48901 0.42572 0.78975 0.0
H64 H 0.57328 0.51056 0.80096 0.0
H65 H 0.5469 0.45215 0.73465 0.0
C66 C 0.50969 0.44215 0.78342 0.0
C67 C 0.51563 0.43595 0.76059 0.0
C68 C 0.53048 0.46873 0.79834 0.0
C69 C 0.55707 0.48995 0.78968 0.0
C70 C 0.56296 0.4844 0.76653 0.0
C71 C 0.54222 0.45714 0.75225 0.0
H72 H 0.49747 0.0562 0.80601 0.0
H73 H 0.57734 0.05291 0.80526 0.0
H74 H 0.55408 0.09615 0.75104 0.0
C75 C 0.51703 0.06095 0.79761 0.0
C76 C 0.52343 0.07727 0.77732 0.0
C77 C 0.53604 0.05152 0.80761 0.0
C78 C 0.56232 0.0596 0.79747 0.0
C79 C 0.56935 0.07644 0.77737 0.0
C80 C 0.54948 0.08456 0.7672 0.0
H81 H 0.75714 0.6182 0.86427 0.0
H82 H 0.83789 0.61641 0.86337 0.0
H83 H 0.77886 0.56964 0.91518 0.0
C84 C 0.77178 0.61058 0.87133 0.0
C85 C 0.7647 0.59296 0.89107 0.0
C86 C 0.79826 0.61935 0.86121 0.0
C87 C 0.81762 0.61033 0.87112 0.0
C88 C 0.81069 0.59255 0.89054 0.0
C89 C 0.78414 0.5836 0.90023 0.0
H90 H 0.39943 0.23302 0.88152 0.0
H91 H 0.40132 0.14708 0.87163 0.0
H92 H 0.44006 0.20746 0.93672 0.0
C93 C 0.40531 0.21654 0.88803 0.0
C94 C 0.42049 0.22333 0.91066 0.0
C95 C 0.39874 0.18943 0.87345 0.0
C96 C 0.40592 0.16799 0.88258 0.0
C97 C 0.42073 0.17439 0.90542 0.0
C98 C 0.42833 0.20229 0.9192 0.0
H99 H 0.75328 0.15816 0.86288 0.0
H100 H 0.83878 0.24135 0.87168 0.0
H101 H 0.78259 0.21985 0.92776 0.0
C102 C 0.77021 0.17876 0.87374 0.0
C103 C 0.76483 0.18626 0.89659 0.0
C104 C 0.79676 0.19871 0.8644 0.0
C105 C 0.81801 0.22598 0.87839 0.0
C106 C 0.81287 0.23385 0.90105 0.0
C107 C 0.78651 0.21369 0.91021 0.0
H108 H 0.60969 0.85669 0.12423 0.0
H109 H 0.6062 0.76777 0.12175 0.0
H110 H 0.56568 0.78883 0.06344 0.0
C111 C 0.60319 0.83408 0.115 0.0
C112 C 0.58676 0.82511 0.09266 0.0
C113 C 0.6105 0.8136 0.12568 0.0
C114 C 0.60139 0.78415 0.11355 0.0
C115 C 0.58552 0.77524 0.09105 0.0
C116 C 0.57839 0.79586 0.08067 0.0
H117 H 0.15918 0.76983 0.12845 0.0
H118 H 0.2392 0.859 0.13217 0.0
H119 H 0.21548 0.79019 0.07249 0.0
C120 C 0.17888 0.78611 0.12082 0.0
C121 C 0.18482 0.77698 0.09892 0.0
C122 C 0.19812 0.81576 0.13297 0.0
C123 C 0.22414 0.83605 0.12309 0.0
C124 C 0.23049 0.82707 0.10118 0.0
C125 C 0.21051 0.79762 0.08912 0.0
H126 H 0.17069 0.40068 0.13978 0.0
H127 H 0.25089 0.39779 0.14256 0.0
H128 H 0.22462 0.43025 0.0821 0.0
C129 C 0.19024 0.40449 0.13179 0.0
C130 C 0.19523 0.41611 0.10951 0.0
C131 C 0.2103 0.39812 0.14401 0.0
C132 C 0.23541 0.40283 0.13334 0.0
C133 C 0.24071 0.41426 0.11088 0.0
C134 C 0.22055 0.421 0.09923 0.0
H135 H 0.4221 0.94401 0.19396 0.0
H136 H 0.50399 0.94425 0.19662 0.0
H137 H 0.44503 0.90242 0.24974 0.0
C138 C 0.43736 0.93807 0.20241 0.0
C139 C 0.43013 0.92178 0.22278 0.0
C140 C 0.46409 0.94654 0.19285 0.0
C141 C 0.48354 0.93838 0.20396 0.0
C142 C 0.47688 0.92269 0.22456 0.0
C143 C 0.45021 0.91458 0.23384 0.0
H144 H 0.06527 0.5676 0.21131 0.0
H145 H 0.0539 0.4755 0.21196 0.0
H146 H 0.10801 0.54779 0.26842 0.0
C147 C 0.0695 0.55099 0.21978 0.0
C148 C 0.08688 0.56052 0.24156 0.0
C149 C 0.05777 0.52045 0.2088 0.0
C150 C 0.06371 0.49932 0.22005 0.0
C151 C 0.08182 0.5087 0.24172 0.0
C152 C 0.09328 0.53952 0.25222 0.0
H153 H 0.41918 0.47921 0.19745 0.0
H154 H 0.50034 0.56762 0.20543 0.0
H155 H 0.44654 0.53928 0.26311 0.0
C156 C 0.43508 0.50056 0.20817 0.0
C157 C 0.43008 0.50617 0.23166 0.0
C158 C 0.46038 0.52273 0.19843 0.0
C159 C 0.48052 0.55049 0.21248 0.0
C160 C 0.4756 0.55648 0.2357 0.0
C161 C 0.45064 0.53414 0.24532 0.0
Tb162 Tb 0.53136 0.01984 0.99289 0.0
C163 C 0.51974 0.96056 0.01858 0.0
Tb164 Tb 0.46835 0.97538 0.00592 0.0
O165 O 0.54747 0.03601 0.03024 0.0
O166 O 0.50374 0.02032 0.01857 0.0
O167 O 0.53803 0.98345 0.00639 0.0
C168 C 0.41951 0.94361 0.02751 0.0
O169 O 0.49239 0.95405 0.02118 0.0
C170 C 0.47789 0.96514 0.96214 0.0
C171 C 0.48032 0.03343 0.97958 0.0
O172 O 0.42052 0.94802 0.00518 0.0
O173 O 0.44609 0.95673 0.03775 0.0
O174 O 0.45207 0.95662 0.96877 0.0
O175 O 0.49589 0.97499 0.98043 0.0
O176 O 0.46522 0.01559 0.99607 0.0
O177 O 0.50469 0.03484 0.97313 0.0
C178 C 0.57936 0.05399 0.97109 0.0
O179 O 0.56752 0.06514 0.98522 0.0
O180 O 0.56431 0.02369 0.96941 0.0
C181 C 0.52182 0.02878 0.03679 0.0
Tb182 Tb 0.9789 0.51576 0.9971 0.0
C183 C 0.04082 0.56183 0.02191 0.0
Tb184 Tb 0.01918 0.49027 0.01206 0.0
O185 O 0.97062 0.52307 0.03381 0.0
O186 O 0.9817 0.48951 0.02427 0.0
O187 O 0.0215 0.55838 0.00424 0.0
C188 C 0.05652 0.47549 0.033 0.0
O189 O 0.04059 0.53737 0.03047 0.0
C190 C 0.01634 0.49979 0.96706 0.0
C191 C 0.95639 0.44253 0.9879 0.0
O192 O 0.06295 0.49592 0.01771 0.0
O193 O 0.02904 0.46335 0.03656 0.0
O194 O 0.02145 0.47861 0.97469 0.0
O195 O 0.01588 0.51615 0.98465 0.0
O196 O 0.97913 0.44584 0.00175 0.0
O197 O 0.95303 0.46652 0.98282 0.0
C198 C 0.94581 0.53272 0.97177 0.0
O199 O 0.94916 0.50912 0.96585 0.0
O200 O 0.96103 0.54676 0.99194 0.0
C201 C 0.97823 0.50382 0.04168 0.0
Tb202 Tb 0.46933 0.48635 0.00681 0.0
C203 C 0.48581 0.43771 0.9868 0.0
Tb204 Tb 0.53265 0.51125 0.99345 0.0
O205 O 0.45254 0.47208 0.96937 0.0
O206 O 0.49441 0.51045 0.97932 0.0
O207 O 0.46764 0.44206 -0.00034 0.0
C208 C 0.58036 0.52734 0.97065 0.0
O209 O 0.51097 0.46119 0.98102 0.0
C210 C 0.52485 0.50421 0.03845 0.0
C211 C 0.51627 0.5595 0.01452 0.0
O212 O 0.5563 0.52548 0.96177 0.0
O213 O 0.57758 0.5201 0.99239 0.0
O214 O 0.54916 0.52542 0.03109 0.0
O215 O 0.50754 0.48711 0.02077 0.0
O216 O 0.53401 0.55555 0.00081 0.0
O217 O 0.4915 0.53579 0.02052 0.0
C218 C 0.42141 0.47058 0.02906 0.0
O219 O 0.42503 0.47923 0.00773 0.0
O220 O 0.44474 0.47083 0.03787 0.0
C221 C 0.47679 0.49306 0.96183 0.0
Tb222 Tb 0.19635 0.35638 0.33118 0.0
C223 C 0.18147 0.29404 0.35289 0.0
Tb224 Tb 0.13133 0.30995 0.34021 0.0
O225 O 0.21088 0.37175 0.36912 0.0
O226 O 0.16702 0.35268 0.35624 0.0
O227 O 0.19867 0.31511 0.33895 0.0
C228 C 0.08062 0.27683 0.3588 0.0
O229 O 0.15564 0.29034 0.3578 0.0
C230 C 0.14486 0.30683 0.29669 0.0
C231 C 0.14648 0.37339 0.31895 0.0
O232 O 0.09215 0.26522 0.34471 0.0
O233 O 0.09742 0.30697 0.36225 0.0
O234 O 0.1185 0.29864 0.30197 0.0
O235 O 0.1611 0.31299 0.3157 0.0
O236 O 0.12648 0.34806 0.32798 0.0
O237 O 0.17446 0.38114 0.31838 0.0
C238 C 0.24474 0.38812 0.30922 0.0
O239 O 0.21805 0.37458 0.2992 0.0
O240 O 0.2442 0.38424 0.33169 0.0
C241 C 0.18428 0.36071 0.37496 0.0
Tb242 Tb 0.64289 0.83941 0.3281 0.0
C243 C 0.70681 0.88694 0.34914 0.0
Tb244 Tb 0.68532 0.81481 0.3394 0.0
O245 O 0.63883 0.84837 0.36571 0.0
O246 O 0.65001 0.81515 0.35483 0.0
O247 O 0.68461 0.8829 0.33419 0.0
C248 C 0.72183 0.79763 0.35848 0.0
O249 O 0.70937 0.86311 0.35598 0.0
C250 C 0.6788 0.8239 0.29496 0.0
C251 C 0.62006 0.76634 0.31943 0.0
O252 O 0.72829 0.81797 0.34309 0.0
O253 O 0.69485 0.78686 0.36305 0.0
O254 O 0.68548 0.80342 0.30164 0.0
O255 O 0.67896 0.84015 0.31298 0.0
O256 O 0.64475 0.77031 0.33046 0.0
O257 O 0.61535 0.78982 0.3159 0.0
C258 C 0.60791 0.85631 0.30557 0.0
O259 O 0.61814 0.83987 0.29584 0.0
O260 O 0.61716 0.86301 0.328 0.0
C261 C 0.64846 0.83038 0.37275 0.0
Tb262 Tb 0.13799 0.82299 0.34079 0.0
C263 C 0.15354 0.77683 0.31566 0.0
Tb264 Tb 0.2007 0.84874 0.32611 0.0
O265 O 0.11972 0.81416 0.30357 0.0
O266 O 0.16258 0.8496 0.31393 0.0
O267 O 0.13858 0.77994 0.33265 0.0
C268 C 0.24845 0.8647 0.30348 0.0
O269 O 0.17597 0.80137 0.30781 0.0
C270 C 0.19402 0.83801 0.37081 0.0
C271 C 0.18477 0.89618 0.3503 0.0
O272 O 0.23853 0.84385 0.31856 0.0
O273 O 0.23165 0.87672 0.30131 0.0
O274 O 0.21829 0.8593 0.36351 0.0
O275 O 0.17613 0.8223 0.353 0.0
O276 O 0.20328 0.8929 0.3371 0.0
O277 O 0.15919 0.87225 0.35482 0.0
C278 C 0.09056 0.80464 0.36442 0.0
O279 O 0.11743 0.8184 0.37408 0.0
O280 O 0.09045 0.80139 0.34154 0.0
C281 C 0.14421 0.8348 0.29621 0.0
Tb282 Tb 0.86293 0.68461 0.65937 0.0
C283 C 0.85068 0.62505 0.68475 0.0
Tb284 Tb 0.79988 0.64092 0.67234 0.0
O285 O 0.87901 0.69958 0.69693 0.0
O286 O 0.8356 0.68549 0.68509 0.0
O287 O 0.86893 0.64738 0.67213 0.0
C288 C 0.75132 0.60865 0.69407 0.0
O289 O 0.82371 0.61946 0.68781 0.0
C290 C 0.80958 0.63166 0.6283 0.0
C291 C 0.8126 0.7004 0.64774 0.0
O292 O 0.77795 0.6221 0.70423 0.0
O293 O 0.7521 0.61304 0.67173 0.0
O294 O 0.78388 0.62393 0.63486 0.0
O295 O 0.82712 0.64027 0.64675 0.0
O296 O 0.79718 0.68174 0.66373 0.0
O297 O 0.83704 0.702 0.64117 0.0
C298 C 0.91016 0.71752 0.63645 0.0
O299 O 0.90102 0.72906 0.65283 0.0
O300 O 0.89289 0.68743 0.63314 0.0
C301 C 0.85348 0.69321 0.70333 0.0
Tb302 Tb 0.30621 0.1725 0.66093 0.0
C303 C 0.36889 0.22344 0.6827 0.0
Tb304 Tb 0.35061 0.15154 0.67435 0.0
O305 O 0.30613 0.18589 0.69833 0.0
O306 O 0.31361 0.1494 0.68848 0.0
O307 O 0.34551 0.21811 0.66865 0.0
C308 C 0.38787 0.13844 0.69754 0.0
O309 O 0.37329 0.20063 0.68923 0.0
C310 C 0.34486 0.1589 0.62946 0.0
C311 C 0.2877 0.1004 0.65208 0.0
O312 O 0.39387 0.15583 0.68006 0.0
O313 O 0.36091 0.12838 0.70192 0.0
O314 O 0.35274 0.13966 0.63705 0.0
O315 O 0.34353 0.17495 0.64692 0.0
O316 O 0.31219 0.10574 0.66439 0.0
O317 O 0.282 0.12296 0.64746 0.0
C318 C 0.2682 0.18608 0.63954 0.0
O319 O 0.26741 0.17772 0.66088 0.0
O320 O 0.29027 0.18662 0.63018 0.0
C321 C 0.31311 0.16601 0.70593 0.0
Tb322 Tb 0.79812 0.15436 0.67209 0.0
C323 C 0.81376 0.10543 0.65018 0.0
Tb324 Tb 0.86118 0.17874 0.65873 0.0
O325 O 0.78123 0.14281 0.6345 0.0
O326 O 0.82363 0.17956 0.64505 0.0
O327 O 0.79477 0.10977 0.6619 0.0
C328 C 0.90902 0.19663 0.63588 0.0
O329 O 0.84012 0.12873 0.64635 0.0
C330 C 0.85366 0.16847 0.70353 0.0
C331 C 0.84518 0.22621 0.681 0.0
O332 O 0.88263 0.17516 0.62759 0.0
O333 O 0.90847 0.20774 0.657 0.0
O334 O 0.8787 0.18787 0.69624 0.0
O335 O 0.8358 0.15367 0.6856 0.0
O336 O 0.86001 0.22199 0.66441 0.0
O337 O 0.82245 0.20229 0.68908 0.0
C338 C 0.75059 0.13856 0.69478 0.0
O339 O 0.75928 0.15779 0.67845 0.0
O340 O 0.76854 0.12814 0.69822 0.0
C341 C 0.80594 0.16337 0.62728 0.0
H342 H 0.23792 0.84068 0.05514 0.0
H343 H 0.41386 0.93533 0.07475 0.0
H344 H 0.28634 0.86008 0.12393 0.0
H345 H 0.36347 0.91613 0.00699 0.0
H346 H 0.36786 0.90939 0.09368 0.0
H347 H 0.28411 0.87032 0.03772 0.0
C348 C 0.25833 0.85131 0.0666 0.0
C349 C 0.25831 0.84772 0.09098 0.0
C350 C 0.3669 0.91089 0.07468 0.0
C351 C 0.31144 0.88173 0.07115 0.0
C352 C 0.3931 0.92557 0.0639 0.0
C353 C 0.39233 0.92767 0.03931 0.0
C354 C 0.33987 0.89826 0.06068 0.0
C355 C 0.36498 0.91488 0.026 0.0
C356 C 0.28473 0.86829 0.05665 0.0
C357 C 0.28538 0.86241 0.10506 0.0
N358 N 0.33987 0.90069 0.03685 0.0
N359 N 0.3109 0.87859 0.0949 0.0
H360 H 0.13499 0.38281 0.10613 0.0
H361 H 0.11505 0.50206 0.02869 0.0
H362 H 0.20771 0.46703 0.08528 0.0
H363 H 0.04465 0.42966 0.06233 0.0
H364 H 0.14895 0.4872 0.04676 0.0
H365 H 0.10106 0.3972 0.0876 0.0
C366 C 0.14384 0.40438 0.09772 0.0
C367 C 0.17429 0.4238 0.09736 0.0
C368 C 0.1261 0.47458 0.05023 0.0
C369 C 0.13551 0.44018 0.07585 0.0
C370 C 0.10678 0.48303 0.03991 0.0
C371 C 0.07711 0.46702 0.04409 0.0
C372 C 0.11558 0.44979 0.06467 0.0
C373 C 0.06743 0.44257 0.05873 0.0
C374 C 0.12444 0.41251 0.08708 0.0
C375 C 0.18444 0.45114 0.08576 0.0
N376 N 0.08662 0.43461 0.06847 0.0
N377 N 0.16509 0.45852 0.07549 0.0
H378 H 0.59095 0.76007 0.04509 0.0
H379 H 0.49649 0.57597 0.05308 0.0
H380 H 0.55651 0.71907 0.10937 0.0
H381 H 0.55632 0.61561 -0.00056 0.0
H382 H 0.51289 0.62865 0.07116 0.0
H383 H 0.57332 0.70745 0.02539 0.0
C384 C 0.57962 0.73995 0.05499 0.0
C385 C 0.57525 0.74379 0.07888 0.0
C386 C 0.52237 0.62582 0.05539 0.0
C387 C 0.55492 0.68388 0.05654 0.0
C388 C 0.51287 0.59577 0.04494 0.0
C389 C 0.52502 0.5914 0.02467 0.0
C390 C 0.54394 0.65178 0.04538 0.0
C391 C 0.54644 0.61794 0.01509 0.0
C392 C 0.56971 0.71004 0.04381 0.0
C393 C 0.56058 0.71708 0.091 0.0
N394 N 0.55518 0.64708 0.0255 0.0
N395 N 0.55081 0.68823 0.07967 0.0
H396 H 0.83769 0.29108 0.88451 0.0
H397 H 0.94506 0.38534 0.00114 0.0
H398 H 0.8362 0.24578 0.94764 0.0
H399 H 0.918 0.42825 0.94871 0.0
H400 H 0.90967 0.33371 0.98056 0.0
H401 H 0.87228 0.34162 0.90639 0.0
C402 C 0.84485 0.29182 0.90298 0.0
C403 C 0.83422 0.26431 0.91431 0.0
C404 C 0.91143 0.35449 0.97374 0.0
C405 C 0.87367 0.32199 0.93947 0.0
C406 C 0.93162 0.3839 0.9854 0.0
C407 C 0.93436 0.41109 0.97668 0.0
C408 C 0.89439 0.35244 0.95302 0.0
C409 C 0.91644 0.40792 0.95621 0.0
C410 C 0.86438 0.32065 0.91549 0.0
C411 C 0.84386 0.26655 0.93834 0.0
N412 N 0.8974 0.37916 0.94499 0.0
N413 N 0.86324 0.29496 0.95015 0.0
H414 H 0.75834 0.59379 0.93866 0.0
H415 H 0.5872 0.5383 0.92404 0.0
H416 H 0.70918 0.57392 0.8701 0.0
H417 H 0.63376 0.53841 0.98918 0.0
H418 H 0.63211 0.55524 0.90409 0.0
H419 H 0.71342 0.57786 0.95766 0.0
C420 C 0.73805 0.58589 0.92755 0.0
C421 C 0.73753 0.58481 0.90268 0.0
C422 C 0.63246 0.55151 0.92273 0.0
C423 C 0.68588 0.56695 0.92447 0.0
C424 C 0.6069 0.54189 0.9341 0.0
C425 C 0.60691 0.537 0.95825 0.0
C426 C 0.65817 0.5565 0.93571 0.0
C427 C 0.63288 0.54191 0.97052 0.0
C428 C 0.71239 0.57691 0.93845 0.0
C429 C 0.71066 0.57525 0.88931 0.0
N430 N 0.65749 0.55149 0.95914 0.0
N431 N 0.68587 0.5666 0.90038 0.0
H432 H 0.47558 0.18765 0.92145 0.0
H433 H 0.42537 0.02688 0.97674 0.0
H434 H 0.3856 0.11232 0.91093 0.0
H435 H 0.51289 0.08481 0.95652 0.0
H436 H 0.41005 0.06024 0.9573 0.0
H437 H 0.48966 0.15245 0.93902 0.0
C438 C 0.45885 0.16361 0.92281 0.0
C439 C 0.42946 0.15271 0.91478 0.0
C440 C 0.43255 0.06547 0.95712 0.0
C441 C 0.44522 0.11257 0.93507 0.0
C442 C 0.44135 0.04663 0.9683 0.0
C443 C 0.47045 0.05315 0.96828 0.0
C444 C 0.45318 0.09126 0.94629 0.0
C445 C 0.49021 0.07887 0.95693 0.0
C446 C 0.46686 0.14356 0.93275 0.0
C447 C 0.40853 0.1214 0.91684 0.0
N448 N 0.48127 0.09711 0.94656 0.0
N449 N 0.41676 0.1024 0.92703 0.0
H450 H 0.73195 0.20548 0.9202 0.0
H451 H 0.60609 0.0329 0.9414 0.0
H452 H 0.73222 0.12201 0.8942 0.0
H453 H 0.61215 0.11751 0.97293 0.0
H454 H 0.65038 0.06462 0.92172 0.0
H455 H 0.68619 0.17315 0.93736 0.0
C456 C 0.72245 0.18031 0.9182 0.0
C457 C 0.73618 0.16646 0.90601 0.0
C458 C 0.64201 0.07625 0.93292 0.0
C459 C 0.68339 0.12915 0.92541 0.0
C460 C 0.61678 0.05818 0.94415 0.0
C461 C 0.60566 0.07271 0.95887 0.0
C462 C 0.65609 0.10905 0.93644 0.0
C463 C 0.62014 0.10545 0.96178 0.0
C464 C 0.6962 0.16183 0.92791 0.0
C465 C 0.72237 0.13367 0.90342 0.0
N466 N 0.64464 0.12253 0.95068 0.0
N467 N 0.69679 0.11611 0.91315 0.0
H468 H 0.86789 0.63166 0.90734 0.0
H469 H 0.90281 0.4976 0.9359 0.0
H470 H 0.80082 0.53415 0.8977 0.0
H471 H 0.94601 0.58777 0.97697 0.0
H472 H 0.87007 0.51211 0.91476 0.0
H473 H 0.90203 0.61732 0.92612 0.0
C474 C 0.8605 0.60723 0.90906 0.0
C475 C 0.83161 0.58399 0.90112 0.0
C476 C 0.88679 0.52867 0.92837 0.0
C477 C 0.87037 0.56751 0.92217 0.0
C478 C 0.90547 0.5205 0.94033 0.0
C479 C 0.92691 0.54152 0.95823 0.0
C480 C 0.89012 0.55829 0.93406 0.0
C481 C 0.92958 0.57089 0.96335 0.0
C482 C 0.87986 0.59911 0.91982 0.0
C483 C 0.82293 0.55268 0.90379 0.0
N484 N 0.91146 0.57851 0.95122 0.0
N485 N 0.84232 0.54528 0.914 0.0
H486 H 0.38622 0.24822 0.92173 0.0
H487 H 0.52033 0.41619 0.96873 0.0
H488 H 0.4753 0.26666 0.93097 0.0
H489 H 0.43144 0.38554 0.98455 0.0
H490 H 0.50448 0.36272 0.95234 0.0
H491 H 0.40242 0.29986 0.9424 0.0
C492 C 0.40916 0.26315 0.92827 0.0
C493 C 0.4295 0.25333 0.92471 0.0
C494 C 0.48856 0.36772 0.9596 0.0
C495 C 0.44822 0.31232 0.94801 0.0
C496 C 0.49754 0.39822 0.96887 0.0
C497 C 0.47718 0.40534 0.97802 0.0
C498 C 0.45893 0.34437 0.95913 0.0
C499 C 0.44793 0.38111 0.97778 0.0
C500 C 0.41837 0.29248 0.9401 0.0
C501 C 0.45895 0.27338 0.93355 0.0
N502 N 0.43963 0.35177 0.96828 0.0
N503 N 0.46752 0.30213 0.94459 0.0
H504 H 0.16243 0.76145 0.05215 0.0
H505 H 0.07582 0.57752 0.06356 0.0
H506 H 0.16104 0.72097 0.11783 0.0
H507 H 0.0562 0.61831 0.00493 0.0
H508 H 0.11161 0.62987 0.08174 0.0
H509 H 0.12785 0.70896 0.03257 0.0
C510 C 0.15493 0.74147 0.06238 0.0
C511 C 0.16444 0.74547 0.08663 0.0
C512 C 0.0995 0.62739 0.06489 0.0
C513 C 0.12515 0.68564 0.06446 0.0
C514 C 0.07913 0.59749 0.05442 0.0
C515 C 0.06297 0.59353 0.03267 0.0
C516 C 0.10401 0.65361 0.05345 0.0
C517 C 0.06811 0.62031 0.02176 0.0
C518 C 0.13513 0.71163 0.05126 0.0
C519 C 0.15397 0.71891 0.09916 0.0
N520 N 0.08827 0.64927 0.03224 0.0
N521 N 0.13496 0.69012 0.08791 0.0
H522 H 0.29694 0.43831 0.13217 0.0
H523 H 0.36824 0.45906 0.00969 0.0
H524 H 0.24564 0.40321 0.06384 0.0
H525 H 0.41428 0.46123 0.07584 0.0
H526 H 0.32392 0.4433 0.02993 0.0
H527 H 0.34108 0.45052 0.11257 0.0
C528 C 0.29485 0.43284 0.11311 0.0
C529 C 0.26749 0.41994 0.09963 0.0
C530 C 0.34368 0.44711 0.04001 0.0
C531 C 0.318 0.43454 0.07712 0.0
C532 C 0.36896 0.45623 0.0285 0.0
C533 C 0.39478 0.46136 0.04116 0.0
C534 C 0.3444 0.44355 0.06443 0.0
C535 C 0.39466 0.45736 0.06548 0.0
C536 C 0.32009 0.43999 0.10195 0.0
C537 C 0.26629 0.4138 0.07493 0.0
N538 N 0.36984 0.44885 0.07641 0.0
N539 N 0.29119 0.42139 0.06447 0.0
H540 H 0.53144 0.80856 0.07483 0.0
H541 H 0.5764 0.97302 0.02661 0.0
H542 H 0.61955 0.88762 0.08701 0.0
H543 H 0.48695 0.90398 0.03592 0.0
H544 H 0.59315 0.9406 0.04527 0.0
H545 H 0.51519 0.8418 0.057 0.0
C546 C 0.54737 0.83295 0.07365 0.0
C547 C 0.57688 0.84541 0.08226 0.0
C548 C 0.56988 0.93263 0.04325 0.0
C549 C 0.55849 0.88354 0.06193 0.0
C550 C 0.56026 0.95101 0.03248 0.0
C551 C 0.5302 0.94113 0.02961 0.0
C552 C 0.54925 0.90402 0.05092 0.0
C553 C 0.51033 0.91254 0.03777 0.0
C554 C 0.53806 0.85193 0.06361 0.0
C555 C 0.59658 0.87722 0.08062 0.0
N556 N 0.5202 0.89491 0.04793 0.0
N557 N 0.58706 0.89521 0.07048 0.0
H558 H 0.94994 0.1894 0.45725 0.0
H559 H 0.03415 0.21945 0.34285 0.0
H560 H 0.90305 0.1603 0.38697 0.0
H561 H 0.0656 0.29318 0.40015 0.0
H562 H 0.98843 0.19009 0.36163 0.0
H563 H 0.99546 0.22207 0.43931 0.0
C564 C 0.94901 0.18999 0.43815 0.0
C565 C 0.92246 0.17156 0.42364 0.0
C566 C 0.0054 0.21272 0.37002 0.0
C567 C 0.97461 0.20799 0.40317 0.0
C568 C 0.0314 0.22933 0.35942 0.0
C569 C 0.05335 0.25873 0.36996 0.0
C570 C 0.00184 0.22528 0.3916 0.0
C571 C 0.04891 0.27064 0.39143 0.0
C572 C 0.97505 0.20849 0.42798 0.0
C573 C 0.92297 0.17317 0.39892 0.0
N574 N 0.02368 0.2537 0.40174 0.0
N575 N 0.94865 0.19064 0.38946 0.0
H576 H 0.82536 0.76235 0.46111 0.0
H577 H 0.77278 0.80527 0.34298 0.0
H578 H 0.84901 0.7428 0.39297 0.0
H579 H 0.71722 0.77116 0.39989 0.0
H580 H 0.80681 0.79144 0.36282 0.0
H581 H 0.79087 0.77439 0.4406 0.0
C582 C 0.82322 0.76028 0.44187 0.0
C583 C 0.84013 0.75122 0.42883 0.0
C584 C 0.7871 0.78692 0.37085 0.0
C585 C 0.80132 0.76617 0.40537 0.0
C586 C 0.76782 0.79487 0.35964 0.0
C587 C 0.74225 0.78916 0.36985 0.0
C588 C 0.781 0.77397 0.39265 0.0
C589 C 0.73667 0.77569 0.39143 0.0
C590 C 0.80363 0.76738 0.43022 0.0
C591 C 0.83688 0.75007 0.40388 0.0
N592 N 0.75608 0.76879 0.40227 0.0
N593 N 0.81799 0.75765 0.39297 0.0
H594 H 0.25547 0.09587 0.3804 0.0
H595 H 0.16362 0.91154 0.38851 0.0
H596 H 0.21989 0.05483 0.44438 0.0
H597 H 0.22483 0.9527 0.33604 0.0
H598 H 0.17849 0.96397 0.40644 0.0
H599 H 0.23887 0.04335 0.36102 0.0
C600 C 0.24404 0.07575 0.39028 0.0
C601 C 0.23911 0.07955 0.414 0.0
C602 C 0.18862 0.96151 0.39097 0.0
C603 C 0.22003 0.01975 0.39206 0.0
C604 C 0.18002 0.93162 0.38064 0.0
C605 C 0.19299 0.92779 0.36072 0.0
C606 C 0.21006 0.98778 0.38116 0.0
C607 C 0.21437 0.95463 0.35143 0.0
C608 C 0.23474 0.04591 0.3793 0.0
C609 C 0.22436 0.05285 0.42613 0.0
N610 N 0.22218 0.98355 0.36169 0.0
N611 N 0.21523 0.02404 0.41499 0.0
H612 H 0.49317 0.61397 0.22137 0.0
H613 H 0.61397 0.70992 0.3297 0.0
H614 H 0.50349 0.56822 0.28062 0.0
H615 H 0.57394 0.75034 0.28649 0.0
H616 H 0.57728 0.65786 0.31062 0.0
H617 H 0.52701 0.66473 0.24336 0.0
C618 C 0.50269 0.61472 0.23904 0.0
C619 C 0.49574 0.58706 0.24924 0.0
C620 C 0.57648 0.67819 0.30555 0.0
C621 C 0.53443 0.64486 0.27444 0.0
C622 C 0.5974 0.70785 0.31635 0.0
C623 C 0.59705 0.73452 0.30965 0.0
C624 C 0.55552 0.67538 0.28768 0.0
C625 C 0.57505 0.73049 0.2923 0.0
C626 C 0.5218 0.64361 0.25162 0.0
C627 C 0.50835 0.58916 0.27225 0.0
N628 N 0.55538 0.70152 0.28176 0.0
N629 N 0.52739 0.61768 0.28407 0.0
H630 H 0.39393 0.86632 0.24038 0.0
H631 H 0.27349 0.91097 0.27407 0.0
H632 H 0.4013 0.95494 0.22766 0.0
H633 H 0.28181 0.83693 0.30325 0.0
H634 H 0.31676 0.92432 0.2527 0.0
H635 H 0.34903 0.85194 0.25911 0.0
C636 C 0.38617 0.88283 0.24158 0.0
C637 C 0.40168 0.91208 0.23269 0.0
C638 C 0.30911 0.90518 0.26379 0.0
C639 C 0.3499 0.89547 0.25383 0.0
C640 C 0.28447 0.89756 0.27595 0.0
C641 C 0.2743 0.87296 0.29049 0.0
C642 C 0.32339 0.88782 0.26605 0.0
C643 C 0.28911 0.85618 0.29229 0.0
C644 C 0.36045 0.87453 0.25221 0.0
C645 C 0.39003 0.9321 0.23416 0.0
N646 N 0.3129 0.86389 0.28017 0.0
N647 N 0.36486 0.92347 0.24462 0.0
H648 H 0.08741 0.46053 0.22023 0.0
H649 H 0.17522 0.43729 0.3222 0.0
H650 H 0.09408 0.50664 0.28953 0.0
H651 H 0.09582 0.35477 0.29121 0.0
H652 H 0.15808 0.46988 0.3036 0.0
H653 H 0.10177 0.4266 0.23948 0.0
C654 C 0.09157 0.46354 0.2394 0.0
C655 C 0.08953 0.48689 0.25312 0.0
C656 C 0.14457 0.44462 0.30097 0.0
C657 C 0.1074 0.449 0.27486 0.0
C658 C 0.15428 0.42613 0.31145 0.0
C659 C 0.13673 0.39345 0.3083 0.0
C660 C 0.11776 0.43016 0.28664 0.0
C661 C 0.10977 0.37996 0.2942 0.0
C662 C 0.10003 0.44429 0.25026 0.0
C663 C 0.0961 0.48981 0.27795 0.0
N664 N 0.10122 0.3984 0.28356 0.0
N665 N 0.10515 0.47142 0.28798 0.0
H666 H 0.42454 0.48618 0.27604 0.0
H667 H 0.24863 0.39678 0.26203 0.0
H668 H 0.37341 0.47634 0.21055 0.0
H669 H 0.30144 0.4144 0.32825 0.0
H670 H 0.29359 0.42216 0.24184 0.0
H671 H 0.37918 0.45546 0.29433 0.0
C672 C 0.40371 0.47735 0.26546 0.0
C673 C 0.40274 0.48407 0.24181 0.0
C674 C 0.29533 0.42045 0.26078 0.0
C675 C 0.35062 0.44889 0.26265 0.0
C676 C 0.26972 0.40606 0.27229 0.0
C677 C 0.27146 0.40374 0.29683 0.0
C678 C 0.32279 0.43246 0.27395 0.0
C679 C 0.29921 0.4159 0.30932 0.0
C680 C 0.37781 0.45981 0.27591 0.0
C681 C 0.37516 0.47159 0.22881 0.0
N682 N 0.32378 0.42977 0.29775 0.0
N683 N 0.35016 0.45482 0.23947 0.0
H684 H 0.49398 0.92993 0.27206 0.0
H685 H 0.59043 0.84733 0.25806 0.0
H686 H 0.50681 0.8968 0.20415 0.0
H687 H 0.5833 0.8883 0.32485 0.0
H688 H 0.55945 0.86458 0.23782 0.0
H689 H 0.52633 0.91426 0.29164 0.0
C690 C 0.5036 0.9193 0.26128 0.0
C691 C 0.49759 0.91452 0.23645 0.0
C692 C 0.56468 0.86983 0.2569 0.0
C693 C 0.53481 0.89661 0.25874 0.0
C694 C 0.58227 0.85992 0.26843 0.0
C695 C 0.58926 0.86636 0.29312 0.0
C696 C 0.55398 0.88616 0.27021 0.0
C697 C 0.57833 0.88284 0.30577 0.0
C698 C 0.52218 0.91047 0.27245 0.0
C699 C 0.51103 0.9011 0.22332 0.0
N700 N 0.56117 0.89211 0.29418 0.0
N701 N 0.5289 0.89246 0.23464 0.0
H702 H 0.08509 0.57756 0.28789 0.0
H703 H 0.16953 0.76102 0.27435 0.0
H704 H 0.1144 0.61601 0.22171 0.0
H705 H 0.11801 0.7206 0.33264 0.0
H706 H 0.15458 0.70845 0.25667 0.0
H707 H 0.10237 0.63045 0.30655 0.0
C708 C 0.09537 0.59721 0.27736 0.0
C709 C 0.09828 0.5925 0.25323 0.0
C710 C 0.14658 0.71111 0.27333 0.0
C711 C 0.11798 0.65286 0.27437 0.0
C712 C 0.15519 0.7411 0.2835 0.0
C713 C 0.14499 0.74518 0.30502 0.0
C714 C 0.12789 0.68502 0.28487 0.0
C715 C 0.12629 0.71851 0.31598 0.0
C716 C 0.10504 0.6273 0.28795 0.0
C717 C 0.1115 0.61865 0.24031 0.0
N718 N 0.11841 0.68954 0.30582 0.0
N719 N 0.12093 0.64775 0.25105 0.0
H720 H 0.78978 0.07541 0.41639 0.0
H721 H 0.76178 0.9073 0.37095 0.0
H722 H 0.86043 0.05592 0.41146 0.0
H723 H 0.70217 0.93948 0.34999 0.0
H724 H 0.79711 0.9602 0.38897 0.0
H725 H 0.75578 0.02392 0.3951 0.0
C726 C 0.79806 0.06024 0.41074 0.0
C727 C 0.82783 0.06974 0.4156 0.0
C728 C 0.77637 0.95567 0.38026 0.0
C729 C 0.78928 0.01104 0.39156 0.0
C730 C 0.75618 0.9255 0.37005 0.0
C731 C 0.72902 0.91901 0.35896 0.0
C732 C 0.76911 0.97931 0.37973 0.0
C733 C 0.72292 0.94349 0.35826 0.0
C734 C 0.77877 0.03103 0.39854 0.0
C735 C 0.83762 0.04943 0.40786 0.0
N736 N 0.74271 0.97253 0.36872 0.0
N737 N 0.81832 0.02085 0.39639 0.0
H738 H 0.91219 0.73019 0.39749 0.0
H739 H 0.08756 0.81105 0.4124 0.0
H740 H 0.96391 0.77043 0.46518 0.0
H741 H 0.03381 0.77449 0.34534 0.0
H742 H 0.04291 0.79398 0.4328 0.0
H743 H 0.95684 0.74352 0.37879 0.0
C744 C 0.93303 0.74189 0.40842 0.0
C745 C 0.93439 0.74954 0.43287 0.0
C746 C 0.04093 0.78965 0.41364 0.0
C747 C 0.98578 0.76481 0.41157 0.0
C748 C 0.06635 0.79939 0.40202 0.0
C749 C 0.06423 0.79424 0.37719 0.0
C750 C 0.01335 0.77465 0.40024 0.0
C751 C 0.03635 0.77899 0.36451 0.0
C752 C 0.95854 0.74942 0.39775 0.0
C753 C 0.9619 0.76408 0.44627 0.0
N754 N 0.01203 0.76978 0.37618 0.0
N755 N 0.9866 0.77146 0.4354 0.0
H756 H 0.2851 0.22332 0.42059 0.0
H757 H 0.14866 0.23957 0.37291 0.0
H758 H 0.19611 0.14571 0.41064 0.0
H759 H 0.23726 0.30331 0.35756 0.0
H760 H 0.16602 0.20768 0.39151 0.0
H761 H 0.26827 0.25616 0.40227 0.0
C762 C 0.26204 0.2133 0.41462 0.0
C763 C 0.24195 0.18181 0.41696 0.0
C764 C 0.18162 0.2286 0.38399 0.0
C765 C 0.22261 0.219 0.39627 0.0
C766 C 0.17175 0.24684 0.37341 0.0
C767 C 0.19152 0.27406 0.36355 0.0
C768 C 0.21154 0.23787 0.38506 0.0
C769 C 0.22122 0.28236 0.36475 0.0
C770 C 0.25249 0.23192 0.40409 0.0
C771 C 0.21232 0.16983 0.4089 0.0
N772 N 0.23038 0.26441 0.37544 0.0
N773 N 0.20351 0.18847 0.39901 0.0
H774 H 0.57034 0.50573 0.72269 0.0
H775 H 0.74627 0.59839 0.74105 0.0
H776 H 0.6191 0.51292 0.78884 0.0
H777 H 0.69514 0.58171 0.67406 0.0
H778 H 0.7005 0.57072 0.76008 0.0
H779 H 0.61644 0.53771 0.70584 0.0
C780 C 0.59082 0.51413 0.73369 0.0
C781 C 0.5909 0.50638 0.75711 0.0
C782 C 0.69934 0.57315 0.74122 0.0
C783 C 0.64392 0.54314 0.73793 0.0
C784 C 0.72539 0.58885 0.73039 0.0
C785 C 0.72433 0.59208 0.70597 0.0
C786 C 0.67219 0.5608 0.72748 0.0
C787 C 0.69687 0.57956 0.69292 0.0
C788 C 0.61715 0.53244 0.72407 0.0
C789 C 0.61806 0.51844 0.77072 0.0
N790 N 0.67191 0.56447 0.70384 0.0
N791 N 0.64354 0.53606 0.76087 0.0
H792 H 0.46303 0.04458 0.77282 0.0
H793 H 0.44639 0.16347 0.69362 0.0
H794 H 0.53717 0.13167 0.75745 0.0
H795 H 0.37545 0.09595 0.72989 0.0
H796 H 0.4797 0.1494 0.71406 0.0
H797 H 0.43005 0.06045 0.75462 0.0
C798 C 0.47242 0.06714 0.76582 0.0
C799 C 0.50301 0.08676 0.76666 0.0
C800 C 0.45687 0.13776 0.71761 0.0
C801 C 0.46529 0.1047 0.74535 0.0
C802 C 0.43789 0.14571 0.70593 0.0
C803 C 0.40823 0.13075 0.7101 0.0
C804 C 0.44595 0.11441 0.73331 0.0
C805 C 0.39823 0.10797 0.72622 0.0
C806 C 0.45355 0.07609 0.75533 0.0
C807 C 0.5138 0.11547 0.75684 0.0
N808 N 0.41703 0.10031 0.73715 0.0
N809 N 0.49498 0.12348 0.74649 0.0
H810 H 0.87945 0.38236 0.77894 0.0
H811 H 0.8847 0.28245 0.66548 0.0
H812 H 0.92028 0.42514 0.71697 0.0
H813 H 0.82721 0.24284 0.72062 0.0
H814 H 0.90075 0.33499 0.6845 0.0
H815 H 0.8632 0.33101 0.75844 0.0
C816 C 0.88514 0.38091 0.76102 0.0
C817 C 0.90143 0.40803 0.74969 0.0
C818 C 0.8845 0.31473 0.69229 0.0
C819 C 0.88262 0.34915 0.72594 0.0
C820 C 0.87538 0.28477 0.68149 0.0
C821 C 0.85451 0.2582 0.69143 0.0
C822 C 0.87292 0.31802 0.71328 0.0
C823 C 0.84318 0.2626 0.7122 0.0
C824 C 0.87567 0.35156 0.74924 0.0
C825 C 0.9077 0.40474 0.72628 0.0
N826 N 0.85264 0.29187 0.72247 0.0
N827 N 0.89842 0.37577 0.71518 0.0
H828 H 0.20413 0.91235 0.58245 0.0
H829 H 0.23016 0.07724 0.63599 0.0
H830 H 0.13386 0.93161 0.5914 0.0
H831 H 0.29553 0.04977 0.6464 0.0
H832 H 0.19503 0.02432 0.61838 0.0
H833 H 0.23863 0.96296 0.60476 0.0
C834 C 0.19598 0.92717 0.58925 0.0
C835 C 0.16614 0.91785 0.58509 0.0
C836 C 0.21699 0.02978 0.62468 0.0
C837 C 0.20534 0.97563 0.61037 0.0
C838 C 0.23711 0.06004 0.63466 0.0
C839 C 0.26586 0.06797 0.64262 0.0
C840 C 0.22575 0.00734 0.62231 0.0
C841 C 0.27356 0.04465 0.64054 0.0
C842 C 0.2156 0.95593 0.60203 0.0
C843 C 0.15663 0.93777 0.5944 0.0
N844 N 0.25368 0.01542 0.63038 0.0
N845 N 0.17621 0.96584 0.60641 0.0
H846 H 0.07876 0.3039 0.58335 0.0
H847 H 0.91656 0.16689 0.5971 0.0
H848 H 0.05161 0.20699 0.56498 0.0
H849 H 0.96153 0.2501 0.6465 0.0
H850 H 0.96211 0.18429 0.57784 0.0
H851 H 0.03144 0.28743 0.59946 0.0
C852 C 0.06268 0.27919 0.5826 0.0
C853 C 0.0689 0.25667 0.57307 0.0
C854 C 0.96186 0.19869 0.59285 0.0
C855 C 0.01507 0.23783 0.59094 0.0
C856 C 0.93599 0.18887 0.60376 0.0
C857 C 0.93556 0.20704 0.62346 0.0
C858 C 0.98707 0.22716 0.60144 0.0
C859 C 0.96115 0.23535 0.63144 0.0
C860 C 0.03587 0.26984 0.59181 0.0
C861 C 0.04753 0.22494 0.57242 0.0
N862 N 0.9859 0.24466 0.62033 0.0
N863 N 0.02141 0.21639 0.58117 0.0
H864 H 0.80559 0.85463 0.59052 0.0
H865 H 0.75782 0.69396 0.64597 0.0
H866 H 0.71577 0.77877 0.58255 0.0
H867 H 0.84488 0.7526 0.62517 0.0
H868 H 0.7421 0.72761 0.62773 0.0
H869 H 0.82068 0.8203 0.60834 0.0
C870 C 0.78907 0.83073 0.59261 0.0
C871 C 0.75942 0.81942 0.5851 0.0
C872 C 0.76461 0.73301 0.62717 0.0
C873 C 0.77642 0.78021 0.60556 0.0
C874 C 0.77364 0.71396 0.63767 0.0
C875 C 0.80272 0.72055 0.63714 0.0
C876 C 0.78495 0.75909 0.61646 0.0
C877 C 0.82224 0.74662 0.62597 0.0
C878 C 0.79768 0.81115 0.60264 0.0
C879 C 0.73887 0.78824 0.58801 0.0
N880 N 0.81306 0.76507 0.61622 0.0
N881 N 0.74772 0.76973 0.5982 0.0
H882 H 0.06186 0.7787 0.5569 0.0
H883 H 0.94503 0.78079 0.63965 0.0
H884 H 0.06244 0.86259 0.58303 0.0
H885 H 0.93369 0.69566 0.60393 0.0
H886 H 0.98838 0.81092 0.61881 0.0
H887 H 0.01465 0.74736 0.57308 0.0
C888 C 0.05191 0.7905 0.56579 0.0
C889 C 0.06633 0.82331 0.56895 0.0
C890 C 0.9764 0.78566 0.61541 0.0
C891 C 0.01267 0.78775 0.5877 0.0
C892 C 0.95171 0.76848 0.62737 0.0
C893 C 0.93598 0.73577 0.62357 0.0
C894 C 0.98557 0.76999 0.59965 0.0
C895 C 0.94541 0.72091 0.6074 0.0
C896 C 0.02506 0.77263 0.57511 0.0
C897 C 0.05248 0.83738 0.58069 0.0
N898 N 0.96976 0.73814 0.5961 0.0
N899 N 0.02662 0.81956 0.58978 0.0
H900 H 0.1746 0.24221 0.54236 0.0
H901 H 0.22587 0.19288 0.65967 0.0
H902 H 0.15281 0.25746 0.61239 0.0
H903 H 0.26583 0.2009 0.59412 0.0
H904 H 0.19474 0.21115 0.64142 0.0
H905 H 0.20471 0.22245 0.55999 0.0
C906 C 0.17631 0.24166 0.56146 0.0
C907 C 0.16118 0.25164 0.57591 0.0
C908 C 0.21028 0.20888 0.63101 0.0
C909 C 0.19513 0.22839 0.59611 0.0
C910 C 0.22794 0.19835 0.64138 0.0
C911 C 0.2484 0.19551 0.62835 0.0
C912 C 0.21301 0.21638 0.6074 0.0
C913 C 0.25031 0.20288 0.60475 0.0
C914 C 0.19336 0.23017 0.57147 0.0
C915 C 0.16373 0.24966 0.60049 0.0
N916 N 0.23279 0.21299 0.59499 0.0
N917 N 0.18032 0.23822 0.6098 0.0
H918 H 0.80631 0.93406 0.5951 0.0
H919 H 0.75861 0.05416 0.64552 0.0
H920 H 0.71762 0.91675 0.58542 0.0
H921 H 0.84821 0.08303 0.63309 0.0
H922 H 0.74351 0.00134 0.62864 0.0
H923 H 0.8223 0.98654 0.61416 0.0
C924 C 0.7902 0.94127 0.59716 0.0
C925 C 0.76062 0.92115 0.58868 0.0
C926 C 0.76648 0.01922 0.62965 0.0
C927 C 0.77867 0.98086 0.6104 0.0
C928 C 0.77518 0.04939 0.6394 0.0
C929 C 0.80476 0.07312 0.64075 0.0
C930 C 0.7875 0.01254 0.62138 0.0
C931 C 0.82517 0.0655 0.63235 0.0
C932 C 0.79935 0.97121 0.60788 0.0
C933 C 0.74066 0.93167 0.59156 0.0
N934 N 0.81616 0.0358 0.62307 0.0
N935 N 0.75003 0.96077 0.60226 0.0
H936 H 0.52745 0.39373 0.73846 0.0
H937 H 0.3617 0.27455 0.68581 0.0
H938 H 0.45639 0.41077 0.75022 0.0
H939 H 0.42586 0.24633 0.70034 0.0
H940 H 0.39799 0.32788 0.70259 0.0
H941 H 0.4921 0.34279 0.7172 0.0
C942 C 0.50443 0.38686 0.73627 0.0
C943 C 0.49472 0.40632 0.74611 0.0
C944 C 0.40407 0.30997 0.70199 0.0
C945 C 0.4543 0.34827 0.72197 0.0
C946 C 0.38347 0.27962 0.69235 0.0
C947 C 0.39078 0.25598 0.69177 0.0
C948 C 0.43225 0.31676 0.71074 0.0
C949 C 0.41924 0.26379 0.70059 0.0
C950 C 0.48429 0.35777 0.72432 0.0
C951 C 0.46464 0.39625 0.74302 0.0
N952 N 0.43898 0.29355 0.70966 0.0
N953 N 0.44544 0.36786 0.73118 0.0
H954 H 0.59761 0.04276 0.77144 0.0
H955 H 0.71565 0.16444 0.69335 0.0
H956 H 0.6052 0.13169 0.75936 0.0
H957 H 0.72668 0.09351 0.72524 0.0
H958 H 0.67231 0.14988 0.71472 0.0
H959 H 0.64279 0.05843 0.75241 0.0
C960 C 0.60885 0.06565 0.76499 0.0
C961 C 0.59739 0.08582 0.76684 0.0
C962 C 0.68426 0.13756 0.71711 0.0
C963 C 0.6487 0.10356 0.74468 0.0
C964 C 0.70888 0.14578 0.70486 0.0
C965 C 0.72458 0.13007 0.70757 0.0
C966 C 0.67514 0.11321 0.73192 0.0
C967 C 0.71505 0.10614 0.72272 0.0
C968 C 0.63455 0.0745 0.75404 0.0
C969 C 0.61278 0.11505 0.75786 0.0
N970 N 0.69078 0.09827 0.73426 0.0
N971 N 0.63749 0.12293 0.74705 0.0
H972 H 0.88236 0.51551 0.78289 0.0
H973 H 0.89609 0.61594 0.67399 0.0
H974 H 0.92636 0.51253 0.72173 0.0
H975 H 0.82861 0.59022 0.72191 0.0
H976 H 0.91269 0.58407 0.69392 0.0
H977 H 0.8681 0.54955 0.7636 0.0
C978 C 0.88928 0.52233 0.7655 0.0
C979 C 0.90556 0.51125 0.75387 0.0
C980 C 0.89422 0.5854 0.69999 0.0
C981 C 0.88923 0.54998 0.73167 0.0
C982 C 0.88477 0.60361 0.68868 0.0
C983 C 0.86081 0.60558 0.6962 0.0
C984 C 0.87991 0.56951 0.71919 0.0
C985 C 0.84697 0.58912 0.71534 0.0
C986 C 0.88095 0.54151 0.75443 0.0
C987 C 0.91363 0.52044 0.73121 0.0
N988 N 0.85682 0.57191 0.72625 0.0
N989 N 0.90545 0.53936 0.72085 0.0
H990 H 0.42753 0.93877 0.15307 0.0
H991 H 0.55685 0.03117 0.07474 0.0
H992 H 0.51804 0.99321 0.18297 0.0
H993 H 0.46996 0.01499 0.05487 0.0
H994 H 0.54269 0.01587 0.11421 0.0
H995 H 0.44157 0.96453 0.11657 0.0
C996 C 0.45027 0.95638 0.15215 0.0
C997 C 0.47169 0.96348 0.17112 0.0
C998 C 0.52673 0.01586 0.1013 0.0
C999 C 0.48788 0.9925 0.12918 0.0
C1000 C 0.5348 0.0246 0.07877 0.0
C1001 C 0.51423 0.02345 0.06138 0.0
C1002 C 0.49776 0.00553 0.10639 0.0
C1003 C 0.48611 0.01514 0.06762 0.0
C1004 C 0.45824 0.971 0.13126 0.0
C1005 C 0.50086 0.98628 0.16865 0.0
N1006 N 0.47844 0.00587 0.08955 0.0
N1007 N 0.50813 -0.00034 0.14799 0.0
H1008 H 0.05902 0.48451 0.17048 0.0
H1009 H 0.98012 0.54102 0.07972 0.0
H1010 H 0.01699 0.536 0.19302 0.0
H1011 H 0.99011 0.46152 0.06113 0.0
H1012 H 0.99477 0.54037 0.12131 0.0
H1013 H 0.03496 0.47583 0.1303 0.0
C1014 C 0.04438 0.49355 0.16713 0.0
C1015 C 0.04041 0.51144 0.18515 0.0
C1016 C 0.99366 0.52295 0.10817 0.0
C1017 C 0.01337 0.50215 0.13909 0.0
C1018 C 0.98534 0.52335 0.08444 0.0
C1019 C 0.98467 0.50176 0.06696 0.0
C1020 C 0.00168 0.50101 0.11441 0.0
C1021 C 0.99142 0.47923 0.07401 0.0
C1022 C 0.03078 0.48871 0.14415 0.0
C1023 C 0.02138 0.52281 0.1796 0.0
N1024 N 4e-05 0.47965 0.09719 0.0
N1025 N 0.00891 0.51834 0.15702 0.0
H1026 H 0.45159 0.46828 0.17431 0.0
H1027 H 0.54361 0.55633 0.06893 0.0
H1028 H 0.48245 0.56561 0.16593 0.0
H1029 H 0.48534 0.45638 0.0617 0.0
H1030 H 0.52569 0.55973 0.10725 0.0
H1031 H 0.46639 0.46252 0.13486 0.0
C1032 C 0.46115 0.48832 0.16413 0.0
C1033 C 0.46621 0.5176 0.17366 0.0
C1034 C 0.51682 0.53701 0.09732 0.0
C1035 C 0.48373 0.51131 0.12892 0.0
C1036 C 0.52725 0.53507 0.0756 0.0
C1037 C 0.51581 0.50605 0.06228 0.0
C1038 C 0.4952 0.50966 0.10595 0.0
C1039 C 0.49451 0.47918 0.07154 0.0
C1040 C 0.46974 0.48505 0.14171 0.0
C1041 C 0.47887 0.5428 0.15966 0.0
N1042 N 0.48488 0.48158 0.09291 0.0
N1043 N 0.48745 0.53915 0.13817 0.0
H1044 H 0.91344 0.42986 0.8321 0.0
H1045 H 0.01125 0.54518 0.94542 0.0
H1046 H 0.97001 0.52855 0.82622 0.0
H1047 H 0.99249 0.4499 0.93376 0.0
H1048 H 0.98874 0.54015 0.90483 0.0
H1049 H 0.93433 0.43754 0.87303 0.0
C1050 C 0.93037 0.45316 0.83931 0.0
C1051 C 0.94043 0.47847 0.82538 0.0
C1052 C 0.98975 0.5205 0.91123 0.0
C1053 C 0.96378 0.48746 0.87266 0.0
C1054 C 0.00251 0.52333 0.93427 0.0
C1055 C 0.0039 0.498 0.94272 0.0
C1056 C 0.97783 0.49194 0.89698 0.0
C1057 C 0.99213 0.47008 0.92779 0.0
C1058 C 0.94213 0.4575 0.86276 0.0
C1059 C 0.96157 0.50833 0.83621 0.0
N1060 N 0.97939 0.46772 0.9057 0.0
N1061 N 0.97263 0.51202 0.85924 0.0
H1062 H 0.50465 0.42439 0.82923 0.0
H1063 H 0.51737 0.54049 0.9387 0.0
H1064 H 0.54285 0.5236 0.8242 0.0
H1065 H 0.45453 0.44156 0.93021 0.0
H1066 H 0.53215 0.53576 0.89891 0.0
H1067 H 0.49173 0.43123 0.86878 0.0
C1068 C 0.51018 0.44764 0.83636 0.0
C1069 C 0.52441 0.47338 0.82312 0.0
C1070 C 0.51503 0.51518 0.90576 0.0
C1071 C 0.51013 0.48144 0.8688 0.0
C1072 C 0.50669 0.51784 0.92838 0.0
C1073 C 0.48487 0.49133 0.93762 0.0
C1074 C 0.50156 0.48573 0.89255 0.0
C1075 C 0.47141 0.46256 0.92364 0.0
C1076 C 0.50288 0.45152 0.85902 0.0
C1077 C 0.53192 0.5031 0.83375 0.0
N1078 N 0.48014 0.46048 0.90186 0.0
N1079 N 0.52463 0.50634 0.85599 0.0
H1080 H 0.57265 0.05712 0.84665 0.0
H1081 H 0.44344 0.96611 0.92521 0.0
H1082 H 0.48188 0.00526 0.81713 0.0
H1083 H 0.52859 0.9768 0.9431 0.0
H1084 H 0.45766 0.98249 0.88597 0.0
H1085 H 0.55829 0.03048 0.8828 0.0
C1086 C 0.5498 0.03986 0.84758 0.0
C1087 C 0.52838 0.03378 0.82889 0.0
C1088 C 0.47327 0.98119 0.89843 0.0
C1089 C 0.51188 0.00377 0.87033 0.0
C1090 C 0.46516 0.97182 0.92081 0.0
C1091 C 0.48536 0.97127 0.93764 0.0
C1092 C 0.50189 0.99038 0.89294 0.0
C1093 C 0.51306 0.97859 0.93098 0.0
C1094 C 0.54165 0.02474 0.86825 0.0
C1095 C 0.49906 0.01137 0.83129 0.0
N1096 N 0.52079 0.98841 0.90921 0.0
N1097 N 0.49164 0.99751 0.85173 0.0
H1098 H 0.18692 0.33987 0.5255 0.0
H1099 H 0.13533 0.31152 0.38839 0.0
H1100 H 0.09677 0.28059 0.49613 0.0
H1101 H 0.21609 0.39317 0.41701 0.0
H1102 H 0.1215 0.29989 0.42812 0.0
H1103 H 0.19926 0.36021 0.48669 0.0
C1104 C 0.1697 0.33141 0.51097 0.0
C1105 C 0.14079 0.3084 0.514 0.0
C1106 C 0.14198 0.32083 0.42587 0.0
C1107 C 0.15475 0.33134 0.46977 0.0
C1108 C 0.14948 0.3278 0.403 0.0
C1109 C 0.17591 0.35417 0.39926 0.0
C1110 C 0.16163 0.33995 0.4454 0.0
C1111 C 0.19512 0.37284 0.41918 0.0
C1112 C 0.17673 0.34311 0.48892 0.0
C1113 C 0.11927 0.29847 0.4947 0.0
N1114 N 0.18766 0.36532 0.44151 0.0
N1115 N 0.12676 0.30973 0.47339 0.0
H1116 H 0.67863 0.85818 0.52615 0.0
H1117 H 0.69423 0.82438 0.39031 0.0
H1118 H 0.73604 0.82548 0.50309 0.0
H1119 H 0.62424 0.83757 0.41218 0.0
H1120 H 0.70918 0.82377 0.43162 0.0
H1121 H 0.65758 0.85008 0.48491 0.0
C1122 C 0.68663 0.84907 0.51243 0.0
C1123 C 0.70921 0.84262 0.51805 0.0
C1124 C 0.69016 0.82617 0.42747 0.0
C1125 C 0.68538 0.83347 0.47087 0.0
C1126 C 0.68128 0.8258 0.40376 0.0
C1127 C 0.65719 0.82941 0.39774 0.0
C1128 C 0.67515 0.83094 0.44545 0.0
C1129 C 0.64272 0.8342 0.41613 0.0
C1130 C 0.67456 0.84436 0.48892 0.0
C1131 C 0.71853 0.83053 0.49962 0.0
N1132 N 0.65194 0.83486 0.43922 0.0
N1133 N 0.70678 0.82665 0.47686 0.0
H1134 H 0.11713 0.80095 0.50561 0.0
H1135 H 0.218 0.88838 0.40368 0.0
H1136 H 0.16332 0.90111 0.50298 0.0
H1137 H 0.15137 0.79074 0.39279 0.0
H1138 H 0.20212 0.89178 0.44282 0.0
H1139 H 0.13202 0.79504 0.46618 0.0
C1140 C 0.13026 0.82165 0.49677 0.0
C1141 C 0.13937 0.85161 0.50787 0.0
C1142 C 0.19097 0.86954 0.43195 0.0
C1143 C 0.15679 0.84501 0.4631 0.0
C1144 C 0.2002 0.86755 0.4097 0.0
C1145 C 0.18585 0.83927 0.39508 0.0
C1146 C 0.16744 0.84294 0.43979 0.0
C1147 C 0.16282 0.813 0.40363 0.0
C1148 C 0.13884 0.81825 0.47434 0.0
C1149 C 0.15647 0.8776 0.49555 0.0
N1150 N 0.15425 0.81543 0.4255 0.0
N1151 N 0.16474 0.87369 0.47399 0.0
H1152 H 0.65328 0.80154 0.14223 0.0
H1153 H 0.66747 0.86776 0.27715 0.0
H1154 H 0.60347 0.84436 0.16463 0.0
H1155 H 0.67755 0.78887 0.25596 0.0
H1156 H 0.65413 0.87 0.23522 0.0
H1157 H 0.67359 0.80833 0.18336 0.0
C1158 C 0.6467 0.81251 0.15575 0.0
C1159 C 0.62615 0.82181 0.14998 0.0
C1160 C 0.65938 0.85232 0.23986 0.0
C1161 C 0.64981 0.83015 0.19704 0.0
C1162 C 0.66674 0.85088 0.2637 0.0
C1163 C 0.67279 0.82755 0.26999 0.0
C1164 C 0.65902 0.83088 0.22231 0.0
C1165 C 0.67267 0.80698 0.25188 0.0
C1166 C 0.6584 0.81647 0.1792 0.0
C1167 C 0.61923 0.83683 0.16821 0.0
N1168 N 0.66588 0.80912 0.22887 0.0
N1169 N 0.63087 0.84034 0.19101 0.0
H1170 H 0.2357 0.84944 0.17306 0.0
H1171 H 0.11048 0.79353 0.25828 0.0
H1172 H 0.14411 0.80255 0.14593 0.0
H1173 H 0.19231 0.87959 0.27724 0.0
H1174 H 0.12355 0.79328 0.21754 0.0
H1175 H 0.22213 0.85854 0.21217 0.0
C1176 C 0.21283 0.84144 0.17516 0.0
C1177 C 0.19098 0.82469 0.15617 0.0
C1178 C 0.13864 0.81227 0.23062 0.0
C1179 C 0.1754 0.83441 0.20096 0.0
C1180 C 0.13121 0.81241 0.25384 0.0
C1181 C 0.15083 0.83615 0.27124 0.0
C1182 C 0.16604 0.83579 0.22489 0.0
C1183 C 0.17728 0.86018 0.26453 0.0
C1184 C 0.20514 0.84655 0.19752 0.0
C1185 C 0.16166 0.81467 0.16014 0.0
N1186 N 0.18441 0.85918 0.24191 0.0
N1187 N 0.1547 0.81925 0.18214 0.0
H1188 H 0.18889 0.41766 0.17989 0.0
H1189 H 0.19108 0.30842 0.2758 0.0
H1190 H 0.2192 0.35304 0.16293 0.0
H1191 H 0.12294 0.33186 0.26629 0.0
H1192 H 0.21016 0.3319 0.23884 0.0
H1193 H 0.17416 0.39484 0.21718 0.0
C1194 C 0.19243 0.39863 0.18396 0.0
C1195 C 0.20464 0.38673 0.16792 0.0
C1196 C 0.19094 0.33163 0.24488 0.0
C1197 C 0.18845 0.36109 0.21095 0.0
C1198 C 0.18009 0.3183 0.26581 0.0
C1199 C 0.15552 0.31837 0.27393 0.0
C1200 C 0.17733 0.34551 0.23252 0.0
C1201 C 0.14194 0.33137 0.26055 0.0
C1202 C 0.18412 0.38574 0.20529 0.0
C1203 C 0.20977 0.36287 0.1747 0.0
N1204 N 0.15323 0.34476 0.24064 0.0
N1205 N 0.20151 0.35066 0.19574 0.0
H1206 H 0.85204 0.66706 0.85225 0.0
H1207 H 0.80152 0.68119 0.72008 0.0
H1208 H 0.76182 0.61262 0.82176 0.0
H1209 H 0.88777 0.69731 0.7426 0.0
H1210 H 0.78704 0.66773 0.76019 0.0
H1211 H 0.86563 0.6906 0.81497 0.0
C1212 C 0.83503 0.66015 0.83777 0.0
C1213 C 0.80582 0.63725 0.84 0.0
C1214 C 0.80919 0.6745 0.75633 0.0
C1215 C 0.82126 0.66466 0.79741 0.0
C1216 C 0.8174 0.68201 0.73351 0.0
C1217 C 0.84555 0.68939 0.72794 0.0
C1218 C 0.82965 0.67536 0.77376 0.0
C1219 C 0.86569 0.69127 0.7461 0.0
C1220 C 0.84282 0.67371 0.81655 0.0
C1221 C 0.7846 0.63008 0.82085 0.0
N1222 N 0.85731 0.68414 0.76818 0.0
N1223 N 0.79279 0.64353 0.80024 0.0
H1224 H 0.4114 0.23415 0.8427 0.0
H1225 H 0.31592 0.11983 0.72824 0.0
H1226 H 0.35817 0.13449 0.84648 0.0
H1227 H 0.33647 0.21575 0.73928 0.0
H1228 H 0.33691 0.12426 0.76924 0.0
H1229 H 0.38987 0.22736 0.80221 0.0
C1230 C 0.39493 0.21082 0.83518 0.0
C1231 C 0.38618 0.18493 0.84835 0.0
C1232 C 0.33667 0.14423 0.76263 0.0
C1233 C 0.36209 0.17697 0.80143 0.0
C1234 C 0.32492 0.14178 0.73931 0.0
C1235 C 0.32466 0.16752 0.7305 0.0
C1236 C 0.34857 0.17277 0.77691 0.0
C1237 C 0.33618 0.19534 0.74548 0.0
C1238 C 0.38281 0.20698 0.81193 0.0
C1239 C 0.36563 0.15513 0.83706 0.0
N1240 N 0.34789 0.19731 0.7679 0.0
N1241 N 0.35425 0.15194 0.81419 0.0
H1242 H 0.78231 0.14189 0.84052 0.0
H1243 H 0.87906 0.22028 0.73503 0.0
H1244 H 0.8236 0.24059 0.83198 0.0
H1245 H 0.80959 0.12377 0.72619 0.0
H1246 H 0.8635 0.22657 0.77377 0.0
H1247 H 0.79512 0.13304 0.8009 0.0
C1248 C 0.79384 0.16164 0.83033 0.0
C1249 C 0.80232 0.19213 0.83984 0.0
C1250 C 0.85162 0.20398 0.76339 0.0
C1251 C 0.81747 0.18219 0.79491 0.0
C1252 C 0.86066 0.20033 0.74141 0.0
C1253 C 0.84544 0.17151 0.7275 0.0
C1254 C 0.82751 0.17847 0.77171 0.0
C1255 C 0.82161 0.14644 0.73641 0.0
C1256 C 0.80124 0.15657 0.8078 0.0
C1257 C 0.81737 0.21682 0.8258 0.0
N1258 N 0.81337 0.15043 0.7581 0.0
N1259 N 0.82469 0.21134 0.80421 0.0
H1260 H 0.26937 0.18193 0.49927 0.0
H1261 H 0.34049 0.12035 0.59148 0.0
H1262 H 0.31635 0.13551 0.47753 0.0
H1263 H 0.33691 0.20393 0.61003 0.0
H1264 H 0.32806 0.12288 0.54973 0.0
H1265 H 0.29077 0.18871 0.5402 0.0
C1266 C 0.28453 0.17364 0.50295 0.0
C1267 C 0.29067 0.15767 0.48489 0.0
C1268 C 0.33004 0.14071 0.56294 0.0
C1269 C 0.31452 0.16468 0.53175 0.0
C1270 C 0.33704 0.13923 0.58674 0.0
C1271 C 0.33888 0.16149 0.60423 0.0
C1272 C 0.32446 0.16438 0.55663 0.0
C1273 C 0.33451 0.18564 0.59713 0.0
C1274 C 0.2966 0.1774 0.52635 0.0
C1275 C 0.31027 0.14715 0.49091 0.0
N1276 N 0.32705 0.18623 0.57385 0.0
N1277 N 0.32111 0.1504 0.51385 0.0
H1278 H 0.83573 0.09264 0.49726 0.0
H1279 H 0.85231 0.20856 0.60689 0.0
H1280 H 0.87408 0.19144 0.48999 0.0
H1281 H 0.77899 0.11431 0.59317 0.0
H1282 H 0.86742 0.20351 0.56725 0.0
H1283 H 0.82211 0.10086 0.53616 0.0
C1284 C 0.84111 0.11608 0.50369 0.0
C1285 C 0.85551 0.14127 0.48993 0.0
C1286 C 0.84791 0.18413 0.57293 0.0
C1287 C 0.84068 0.15087 0.53506 0.0
C1288 C 0.83933 0.18695 0.59544 0.0
C1289 C 0.81436 0.16182 0.60314 0.0
C1290 C 0.83169 0.15576 0.55842 0.0
C1291 C 0.79828 0.13428 0.58781 0.0
C1292 C 0.83344 0.12072 0.52601 0.0
C1293 C 0.863 0.17131 0.49988 0.0
N1294 N 0.80739 0.13186 0.56627 0.0
N1295 N 0.85548 0.17531 0.5219 0.0
H1296 H 0.88607 0.67948 0.49386 0.0
H1297 H 0.78398 0.65312 0.5978 0.0
H1298 H 0.84742 0.73666 0.50968 0.0
H1299 H 0.85495 0.63378 0.60564 0.0
H1300 H 0.80126 0.67541 0.56067 0.0
H1301 H 0.87088 0.65587 0.53126 0.0
C1302 C 0.87464 0.68727 0.50519 0.0
C1303 C 0.86762 0.70978 0.49835 0.0
C1304 C 0.81304 0.66621 0.57045 0.0
C1305 C 0.84966 0.68233 0.54061 0.0
C1306 C 0.80303 0.65323 0.59149 0.0
C1307 C 0.8183 0.64193 0.60477 0.0
C1308 C 0.83817 0.66734 0.56239 0.0
C1309 C 0.84292 0.64273 0.59592 0.0
C1310 C 0.86588 0.67366 0.52642 0.0
C1311 C 0.85257 0.71875 0.51375 0.0
N1312 N 0.85217 0.65526 0.57515 0.0
N1313 N 0.84384 0.70477 0.53396 0.0
loop_
_geom_bond_atom_site_label_1
_geom_bond_atom_site_label_2
_geom_bond_distance
_geom_bond_site_symmetry_2
_ccdc_geom_bond_type
H0 C3 0.931 . S
H1 C6 0.928 . S
H2 C8 0.930 . S
C3 H0 0.931 . S
C3 C4 1.413 . S
C3 C5 1.360 . S
C4 C3 1.413 . S
C4 C8 1.429 . S
C5 C3 1.360 . S
C5 C6 1.372 . S
C6 H1 0.928 . S
C6 C5 1.372 . S
C6 C7 1.404 . S
C7 C6 1.404 . S
C7 C8 1.391 . S
C8 H2 0.930 . S
C8 C4 1.429 . S
C8 C7 1.391 . S
H9 C12 0.931 . S
H10 C15 0.928 . S
H11 C17 0.930 . S
C12 H9 0.931 . S
C12 C13 1.413 . S
C12 C14 1.360 . S
C13 C12 1.413 . S
C13 C17 1.429 . S
C14 C12 1.360 . S
C14 C15 1.372 . S
C15 H10 0.928 . S
C15 C14 1.372 . S
C15 C16 1.404 . S
C16 C15 1.404 . S
C16 C17 1.391 . S
C17 H11 0.930 . S
C17 C13 1.429 . S
C17 C16 1.391 . S
H18 C21 0.931 . S
H19 C24 0.928 . S
H20 C26 0.930 . S
C21 H18 0.931 . S
C21 C22 1.413 . S
C21 C23 1.360 . S
C22 C21 1.413 . S
C22 C26 1.429 . S
C23 C21 1.360 . S
C23 C24 1.372 . S
C24 H19 0.928 . S
C24 C23 1.372 . S
C24 C25 1.404 . S
C25 C24 1.404 . S
C25 C26 1.391 . S
C26 H20 0.930 . S
C26 C22 1.429 . S
C26 C25 1.391 . S
H27 C30 0.931 . S
H28 C33 0.928 . S
H29 C35 0.930 . S
C30 H27 0.931 . S
C30 C31 1.413 . S
C30 C32 1.360 . S
C31 C30 1.413 . S
C31 C35 1.429 . S
C32 C30 1.360 . S
C32 C33 1.372 . S
C33 H28 0.928 . S
C33 C32 1.372 . S
C33 C34 1.404 . S
C34 C33 1.404 . S
C34 C35 1.391 . S
C35 H29 0.930 . S
C35 C31 1.429 . S
C35 C34 1.391 . S
H36 C39 0.931 . S
H37 C42 0.928 . S
H38 C44 0.930 . S
C39 H36 0.931 . S
C39 C40 1.413 . S
C39 C41 1.360 . S
C40 C39 1.413 . S
C40 C44 1.429 . S
C41 C39 1.360 . S
C41 C42 1.372 . S
C42 H37 0.928 . S
C42 C41 1.372 . S
C42 C43 1.404 . S
C43 C42 1.404 . S
C43 C44 1.391 . S
C44 H38 0.930 . S
C44 C40 1.429 . S
C44 C43 1.391 . S
H45 C48 0.931 . S
H46 C51 0.928 . S
H47 C53 0.930 . S
C48 H45 0.931 . S
C48 C49 1.413 . S
C48 C50 1.360 . S
C49 C48 1.413 . S
C49 C53 1.429 . S
C50 C48 1.360 . S
C50 C51 1.372 . S
C51 H46 0.928 . S
C51 C50 1.372 . S
C51 C52 1.404 . S
C52 C51 1.404 . S
C52 C53 1.391 . S
C53 H47 0.930 . S
C53 C49 1.429 . S
C53 C52 1.391 . S
H54 C57 0.931 . S
H55 C60 0.928 . S
H56 C62 0.930 . S
C57 H54 0.931 . S
C57 C58 1.413 . S
C57 C59 1.360 . S
C58 C57 1.413 . S
C58 C62 1.429 . S
C59 C57 1.360 . S
C59 C60 1.372 . S
C60 H55 0.928 . S
C60 C59 1.372 . S
C60 C61 1.404 . S
C61 C60 1.404 . S
C61 C62 1.391 . S
C62 H56 0.930 . S
C62 C58 1.429 . S
C62 C61 1.391 . S
H63 C66 0.931 . S
H64 C69 0.928 . S
H65 C71 0.930 . S
C66 H63 0.931 . S
C66 C67 1.413 . S
C66 C68 1.360 . S
C67 C66 1.413 . S
C67 C71 1.429 . S
C68 C66 1.360 . S
C68 C69 1.372 . S
C69 H64 0.928 . S
C69 C68 1.372 . S
C69 C70 1.404 . S
C70 C69 1.404 . S
C70 C71 1.391 . S
C71 H65 0.930 . S
C71 C67 1.429 . S
C71 C70 1.391 . S
H72 C75 0.931 . S
H73 C78 0.928 . S
H74 C80 0.930 . S
C75 H72 0.931 . S
C75 C76 1.413 . S
C75 C77 1.360 . S
C76 C75 1.413 . S
C76 C80 1.429 . S
C77 C75 1.360 . S
C77 C78 1.372 . S
C78 H73 0.928 . S
C78 C77 1.372 . S
C78 C79 1.404 . S
C79 C78 1.404 . S
C79 C80 1.391 . S
C80 H74 0.930 . S
C80 C76 1.429 . S
C80 C79 1.391 . S
H81 C84 0.931 . S
H82 C87 0.928 . S
H83 C89 0.930 . S
C84 H81 0.931 . S
C84 C85 1.413 . S
C84 C86 1.360 . S
C85 C84 1.413 . S
C85 C89 1.429 . S
C86 C84 1.360 . S
C86 C87 1.372 . S
C87 H82 0.928 . S
C87 C86 1.372 . S
C87 C88 1.404 . S
C88 C87 1.404 . S
C88 C89 1.391 . S
C89 H83 0.930 . S
C89 C85 1.429 . S
C89 C88 1.391 . S
H90 C93 0.931 . S
H91 C96 0.928 . S
H92 C98 0.930 . S
C93 H90 0.931 . S
C93 C94 1.413 . S
C93 C95 1.360 . S
C94 C93 1.413 . S
C94 C98 1.429 . S
C95 C93 1.360 . S
C95 C96 1.372 . S
C96 H91 0.928 . S
C96 C95 1.372 . S
C96 C97 1.404 . S
C97 C96 1.404 . S
C97 C98 1.391 . S
C98 H92 0.930 . S
C98 C94 1.429 . S
C98 C97 1.391 . S
H99 C102 0.931 . S
H100 C105 0.928 . S
H101 C107 0.930 . S
C102 H99 0.931 . S
C102 C103 1.413 . S
C102 C104 1.360 . S
C103 C102 1.413 . S
C103 C107 1.429 . S
C104 C102 1.360 . S
C104 C105 1.372 . S
C105 H100 0.928 . S
C105 C104 1.372 . S
C105 C106 1.404 . S
C106 C105 1.404 . S
C106 C107 1.391 . S
C107 H101 0.930 . S
C107 C103 1.429 . S
C107 C106 1.391 . S
H108 C111 0.931 . S
H109 C114 0.928 . S
H110 C116 0.930 . S
C111 H108 0.931 . S
C111 C112 1.413 . S
C111 C113 1.360 . S
C112 C111 1.413 . S
C112 C116 1.429 . S
C113 C111 1.360 . S
C113 C114 1.372 . S
C114 H109 0.928 . S
C114 C113 1.372 . S
C114 C115 1.404 . S
C115 C114 1.404 . S
C115 C116 1.391 . S
C116 H110 0.930 . S
C116 C112 1.429 . S
C116 C115 1.391 . S
H117 C120 0.931 . S
H118 C123 0.928 . S
H119 C125 0.930 . S
C120 H117 0.931 . S
C120 C121 1.413 . S
C120 C122 1.360 . S
C121 C120 1.413 . S
C121 C125 1.429 . S
C122 C120 1.360 . S
C122 C123 1.372 . S
C123 H118 0.928 . S
C123 C122 1.372 . S
C123 C124 1.404 . S
C124 C123 1.404 . S
C124 C125 1.391 . S
C125 H119 0.930 . S
C125 C121 1.429 . S
C125 C124 1.391 . S
H126 C129 0.931 . S
H127 C132 0.928 . S
H128 C134 0.930 . S
C129 H126 0.931 . S
C129 C130 1.413 . S
C129 C131 1.360 . S
C130 C129 1.413 . S
C130 C134 1.429 . S
C131 C129 1.360 . S
C131 C132 1.372 . S
C132 H127 0.928 . S
C132 C131 1.372 . S
C132 C133 1.404 . S
C133 C132 1.404 . S
C133 C134 1.391 . S
C134 H128 0.930 . S
C134 C130 1.429 . S
C134 C133 1.391 . S
H135 C138 0.931 . S
H136 C141 0.928 . S
H137 C143 0.930 . S
C138 H135 0.931 . S
C138 C139 1.413 . S
C138 C140 1.360 . S
C139 C138 1.413 . S
C139 C143 1.429 . S
C140 C138 1.360 . S
C140 C141 1.372 . S
C141 H136 0.928 . S
C141 C140 1.372 . S
C141 C142 1.404 . S
C142 C141 1.404 . S
C142 C143 1.391 . S
C143 H137 0.930 . S
C143 C139 1.429 . S
C143 C142 1.391 . S
H144 C147 0.931 . S
H145 C150 0.928 . S
H146 C152 0.930 . S
C147 H144 0.931 . S
C147 C148 1.413 . S
C147 C149 1.360 . S
C148 C147 1.413 . S
C148 C152 1.429 . S
C149 C147 1.360 . S
C149 C150 1.372 . S
C150 H145 0.928 . S
C150 C149 1.372 . S
C150 C151 1.404 . S
C151 C150 1.404 . S
C151 C152 1.391 . S
C152 H146 0.930 . S
C152 C148 1.429 . S
C152 C151 1.391 . S
H153 C156 0.931 . S
H154 C159 0.928 . S
H155 C161 0.930 . S
C156 H153 0.931 . S
C156 C157 1.413 . S
C156 C158 1.360 . S
C157 C156 1.413 . S
C157 C161 1.429 . S
C158 C156 1.360 . S
C158 C159 1.372 . S
C159 H154 0.928 . S
C159 C158 1.372 . S
C159 C160 1.404 . S
C160 C159 1.404 . S
C160 C161 1.391 . S
C161 H155 0.930 . S
C161 C157 1.429 . S
C161 C160 1.391 . S
Tb162 O165 2.453 . S
Tb162 O166 2.596 1_545 S
Tb162 O167 2.374 1_545 S
Tb162 O175 2.343 1_554 S
Tb162 O177 2.353 . S
Tb162 O179 2.427 1_554 S
Tb162 O180 2.513 1_554 S
C163 O167 1.251 . S
C163 O169 1.263 1_554 S
Tb164 O166 2.343 1_556 S
Tb164 O169 2.353 . S
Tb164 O172 2.427 1_556 S
Tb164 O173 2.513 1_556 S
Tb164 O174 2.453 . S
Tb164 O175 2.596 1_565 S
Tb164 O176 2.374 1_565 S
O165 Tb162 2.453 . S
O165 C181 1.245 . S
O166 Tb162 2.596 1_565 S
O166 Tb164 2.343 1_554 S
O166 C181 1.259 1_565 S
O167 Tb162 2.374 1_565 S
O167 C163 1.251 . S
C168 O172 1.275 . S
C168 O173 1.246 . S
O169 C163 1.263 1_556 S
O169 Tb164 2.353 . S
C170 O174 1.245 . S
C170 O175 1.259 1_565 S
C171 O176 1.250 . S
C171 O177 1.263 1_556 S
O172 Tb164 2.427 1_554 S
O172 C168 1.275 . S
O173 Tb164 2.513 1_554 S
O173 C168 1.246 . S
O174 Tb164 2.453 . S
O174 C170 1.245 . S
O175 Tb162 2.343 1_556 S
O175 Tb164 2.596 1_545 S
O175 C170 1.259 1_545 S
O176 Tb164 2.374 1_545 S
O176 C171 1.250 . S
O177 Tb162 2.353 . S
O177 C171 1.263 1_554 S
C178 O179 1.275 . S
C178 O180 1.246 . S
O179 Tb162 2.427 1_556 S
O179 C178 1.275 . S
O180 Tb162 2.513 1_556 S
O180 C178 1.246 . S
C181 O165 1.245 . S
C181 O166 1.259 1_545 S
Tb182 O185 2.453 . S
Tb182 O186 2.596 1_655 S
Tb182 O187 2.374 1_655 S
Tb182 O195 2.343 1_554 S
Tb182 O197 2.355 . S
Tb182 O199 2.427 1_554 S
Tb182 O200 2.513 1_554 S
C183 O187 1.251 . S
C183 O189 1.263 . S
Tb184 O186 2.343 1_556 S
Tb184 O189 2.353 1_556 S
Tb184 O192 2.427 1_556 S
Tb184 O193 2.513 1_556 S
Tb184 O194 2.453 . S
Tb184 O195 2.596 1_455 S
Tb184 O196 2.374 1_455 S
O185 Tb182 2.453 . S
O185 C201 1.245 1_655 S
O186 Tb182 2.596 1_455 S
O186 Tb184 2.343 1_554 S
O186 C201 1.259 . S
O187 Tb182 2.374 1_455 S
O187 C183 1.251 . S
C188 O192 1.275 . S
C188 O193 1.246 . S
O189 C183 1.263 . S
O189 Tb184 2.353 1_554 S
C190 O194 1.245 1_655 S
C190 O195 1.259 . S
C191 O196 1.250 . S
C191 O197 1.257 1_556 S
O192 Tb184 2.427 1_554 S
O192 C188 1.275 . S
O193 Tb184 2.513 1_554 S
O193 C188 1.246 . S
O194 Tb184 2.453 . S
O194 C190 1.245 1_455 S
O195 Tb182 2.343 1_556 S
O195 Tb184 2.596 1_655 S
O195 C190 1.259 . S
O196 Tb184 2.374 1_655 S
O196 C191 1.250 . S
O197 Tb182 2.355 . S
O197 C191 1.257 1_554 S
C198 O199 1.275 . S
C198 O200 1.246 . S
O199 Tb182 2.427 1_556 S
O199 C198 1.275 . S
O200 Tb182 2.513 1_556 S
O200 C198 1.246 . S
C201 O185 1.245 1_455 S
C201 O186 1.259 . S
Tb202 O205 2.453 . S
Tb202 O206 2.596 . S
Tb202 O207 2.374 . S
Tb202 O215 2.343 1_556 S
Tb202 O217 2.348 1_556 S
Tb202 O219 2.427 1_556 S
Tb202 O220 2.513 1_556 S
C203 O207 1.251 . S
C203 O209 1.263 1_556 S
Tb204 O206 2.343 1_554 S
Tb204 O209 2.353 . S
Tb204 O212 2.427 1_554 S
Tb204 O213 2.513 1_554 S
Tb204 O214 2.453 . S
Tb204 O215 2.596 . S
Tb204 O216 2.374 . S
O205 Tb202 2.453 . S
O205 C221 1.245 . S
O206 Tb202 2.596 . S
O206 Tb204 2.343 1_556 S
O206 C221 1.259 . S
O207 Tb202 2.374 . S
O207 C203 1.251 . S
C208 O212 1.275 . S
C208 O213 1.246 . S
O209 C203 1.263 1_554 S
O209 Tb204 2.353 . S
C210 O214 1.245 . S
C210 O215 1.259 . S
C211 O216 1.250 . S
C211 O217 1.283 . S
O212 Tb204 2.427 1_556 S
O212 C208 1.275 . S
O213 Tb204 2.513 1_556 S
O213 C208 1.246 . S
O214 Tb204 2.453 . S
O214 C210 1.245 . S
O215 Tb202 2.343 1_554 S
O215 Tb204 2.596 . S
O215 C210 1.259 . S
O216 Tb204 2.374 . S
O216 C211 1.250 . S
O217 Tb202 2.348 1_554 S
O217 C211 1.283 . S
C218 O219 1.275 . S
C218 O220 1.246 . S
O219 Tb202 2.427 1_554 S
O219 C218 1.275 . S
O220 Tb202 2.513 1_554 S
O220 C218 1.246 . S
C221 O205 1.245 . S
C221 O206 1.259 . S
Tb222 O225 2.453 . S
Tb222 O226 2.596 . S
Tb222 O227 2.374 . S
Tb222 O235 2.343 . S
Tb222 O237 2.353 . S
Tb222 O239 2.427 . S
Tb222 O240 2.513 . S
C223 O227 1.251 . S
C223 O229 1.263 . S
Tb224 O226 2.343 . S
Tb224 O229 2.353 . S
Tb224 O232 2.427 . S
Tb224 O233 2.513 . S
Tb224 O234 2.453 . S
Tb224 O235 2.596 . S
Tb224 O236 2.374 . S
O225 Tb222 2.453 . S
O225 C241 1.245 . S
O226 Tb222 2.596 . S
O226 Tb224 2.343 . S
O226 C241 1.259 . S
O227 Tb222 2.374 . S
O227 C223 1.251 . S
C228 O232 1.275 . S
C228 O233 1.246 . S
O229 C223 1.263 . S
O229 Tb224 2.353 . S
C230 O234 1.245 . S
C230 O235 1.259 . S
C231 O236 1.250 . S
C231 O237 1.263 . S
O232 Tb224 2.427 . S
O232 C228 1.275 . S
O233 Tb224 2.513 . S
O233 C228 1.246 . S
O234 Tb224 2.453 . S
O234 C230 1.245 . S
O235 Tb222 2.343 . S
O235 Tb224 2.596 . S
O235 C230 1.259 . S
O236 Tb224 2.374 . S
O236 C231 1.250 . S
O237 Tb222 2.353 . S
O237 C231 1.263 . S
C238 O239 1.275 . S
C238 O240 1.246 . S
O239 Tb222 2.427 . S
O239 C238 1.275 . S
O240 Tb222 2.513 . S
O240 C238 1.246 . S
C241 O225 1.245 . S
C241 O226 1.259 . S
Tb242 O245 2.453 . S
Tb242 O246 2.596 . S
Tb242 O247 2.374 . S
Tb242 O255 2.343 . S
Tb242 O257 2.353 . S
Tb242 O259 2.427 . S
Tb242 O260 2.513 . S
C243 O247 1.251 . S
C243 O249 1.263 . S
Tb244 O246 2.343 . S
Tb244 O249 2.353 . S
Tb244 O252 2.427 . S
Tb244 O253 2.513 . S
Tb244 O254 2.453 . S
Tb244 O255 2.596 . S
Tb244 O256 2.374 . S
O245 Tb242 2.453 . S
O245 C261 1.245 . S
O246 Tb242 2.596 . S
O246 Tb244 2.343 . S
O246 C261 1.259 . S
O247 Tb242 2.374 . S
O247 C243 1.251 . S
C248 O252 1.275 . S
C248 O253 1.246 . S
O249 C243 1.263 . S
O249 Tb244 2.353 . S
C250 O254 1.245 . S
C250 O255 1.259 . S
C251 O256 1.250 . S
C251 O257 1.263 . S
O252 Tb244 2.427 . S
O252 C248 1.275 . S
O253 Tb244 2.513 . S
O253 C248 1.246 . S
O254 Tb244 2.453 . S
O254 C250 1.245 . S
O255 Tb242 2.343 . S
O255 Tb244 2.596 . S
O255 C250 1.259 . S
O256 Tb244 2.374 . S
O256 C251 1.250 . S
O257 Tb242 2.353 . S
O257 C251 1.263 . S
C258 O259 1.275 . S
C258 O260 1.246 . S
O259 Tb242 2.427 . S
O259 C258 1.275 . S
O260 Tb242 2.513 . S
O260 C258 1.246 . S
C261 O245 1.245 . S
C261 O246 1.259 . S
Tb262 O265 2.453 . S
Tb262 O266 2.596 . S
Tb262 O267 2.374 . S
Tb262 O275 2.343 . S
Tb262 O277 2.353 . S
Tb262 O279 2.427 . S
Tb262 O280 2.513 . S
C263 O267 1.251 . S
C263 O269 1.263 . S
Tb264 O266 2.343 . S
Tb264 O269 2.353 . S
Tb264 O272 2.427 . S
Tb264 O273 2.513 . S
Tb264 O274 2.453 . S
Tb264 O275 2.596 . S
Tb264 O276 2.374 . S
O265 Tb262 2.453 . S
O265 C281 1.245 . S
O266 Tb262 2.596 . S
O266 Tb264 2.343 . S
O266 C281 1.259 . S
O267 Tb262 2.374 . S
O267 C263 1.251 . S
C268 O272 1.275 . S
C268 O273 1.246 . S
O269 C263 1.263 . S
O269 Tb264 2.353 . S
C270 O274 1.245 . S
C270 O275 1.259 . S
C271 O276 1.250 . S
C271 O277 1.263 . S
O272 Tb264 2.427 . S
O272 C268 1.275 . S
O273 Tb264 2.513 . S
O273 C268 1.246 . S
O274 Tb264 2.453 . S
O274 C270 1.245 . S
O275 Tb262 2.343 . S
O275 Tb264 2.596 . S
O275 C270 1.259 . S
O276 Tb264 2.374 . S
O276 C271 1.250 . S
O277 Tb262 2.353 . S
O277 C271 1.263 . S
C278 O279 1.275 . S
C278 O280 1.246 . S
O279 Tb262 2.427 . S
O279 C278 1.275 . S
O280 Tb262 2.513 . S
O280 C278 1.246 . S
C281 O265 1.245 . S
C281 O266 1.259 . S
Tb282 O285 2.453 . S
Tb282 O286 2.596 . S
Tb282 O287 2.374 . S
Tb282 O295 2.343 . S
Tb282 O297 2.353 . S
Tb282 O299 2.427 . S
Tb282 O300 2.513 . S
C283 O287 1.251 . S
C283 O289 1.263 . S
Tb284 O286 2.343 . S
Tb284 O289 2.353 . S
Tb284 O292 2.427 . S
Tb284 O293 2.513 . S
Tb284 O294 2.453 . S
Tb284 O295 2.596 . S
Tb284 O296 2.374 . S
O285 Tb282 2.453 . S
O285 C301 1.245 . S
O286 Tb282 2.596 . S
O286 Tb284 2.343 . S
O286 C301 1.259 . S
O287 Tb282 2.374 . S
O287 C283 1.251 . S
C288 O292 1.275 . S
C288 O293 1.246 . S
O289 C283 1.263 . S
O289 Tb284 2.353 . S
C290 O294 1.245 . S
C290 O295 1.259 . S
C291 O296 1.250 . S
C291 O297 1.263 . S
O292 Tb284 2.427 . S
O292 C288 1.275 . S
O293 Tb284 2.513 . S
O293 C288 1.246 . S
O294 Tb284 2.453 . S
O294 C290 1.245 . S
O295 Tb282 2.343 . S
O295 Tb284 2.596 . S
O295 C290 1.259 . S
O296 Tb284 2.374 . S
O296 C291 1.250 . S
O297 Tb282 2.353 . S
O297 C291 1.263 . S
C298 O299 1.275 . S
C298 O300 1.246 . S
O299 Tb282 2.427 . S
O299 C298 1.275 . S
O300 Tb282 2.513 . S
O300 C298 1.246 . S
C301 O285 1.245 . S
C301 O286 1.259 . S
Tb302 O305 2.453 . S
Tb302 O306 2.596 . S
Tb302 O307 2.374 . S
Tb302 O315 2.343 . S
Tb302 O317 2.353 . S
Tb302 O319 2.427 . S
Tb302 O320 2.513 . S
C303 O307 1.251 . S
C303 O309 1.263 . S
Tb304 O306 2.343 . S
Tb304 O309 2.353 . S
Tb304 O312 2.427 . S
Tb304 O313 2.513 . S
Tb304 O314 2.453 . S
Tb304 O315 2.596 . S
Tb304 O316 2.374 . S
O305 Tb302 2.453 . S
O305 C321 1.245 . S
O306 Tb302 2.596 . S
O306 Tb304 2.343 . S
O306 C321 1.259 . S
O307 Tb302 2.374 . S
O307 C303 1.251 . S
C308 O312 1.275 . S
C308 O313 1.246 . S
O309 C303 1.263 . S
O309 Tb304 2.353 . S
C310 O314 1.245 . S
C310 O315 1.259 . S
C311 O316 1.250 . S
C311 O317 1.263 . S
O312 Tb304 2.427 . S
O312 C308 1.275 . S
O313 Tb304 2.513 . S
O313 C308 1.246 . S
O314 Tb304 2.453 . S
O314 C310 1.245 . S
O315 Tb302 2.343 . S
O315 Tb304 2.596 . S
O315 C310 1.259 . S
O316 Tb304 2.374 . S
O316 C311 1.250 . S
O317 Tb302 2.353 . S
O317 C311 1.263 . S
C318 O319 1.275 . S
C318 O320 1.246 . S
O319 Tb302 2.427 . S
O319 C318 1.275 . S
O320 Tb302 2.513 . S
O320 C318 1.246 . S
C321 O305 1.245 . S
C321 O306 1.259 . S
Tb322 O325 2.453 . S
Tb322 O326 2.596 . S
Tb322 O327 2.374 . S
Tb322 O335 2.343 . S
Tb322 O337 2.353 . S
Tb322 O339 2.427 . S
Tb322 O340 2.513 . S
C323 O327 1.251 . S
C323 O329 1.263 . S
Tb324 O326 2.343 . S
Tb324 O329 2.353 . S
Tb324 O332 2.427 . S
Tb324 O333 2.513 . S
Tb324 O334 2.453 . S
Tb324 O335 2.596 . S
Tb324 O336 2.374 . S
O325 Tb322 2.453 . S
O325 C341 1.245 . S
O326 Tb322 2.596 . S
O326 Tb324 2.343 . S
O326 C341 1.259 . S
O327 Tb322 2.374 . S
O327 C323 1.251 . S
C328 O332 1.275 . S
C328 O333 1.246 . S
O329 C323 1.263 . S
O329 Tb324 2.353 . S
C330 O334 1.245 . S
C330 O335 1.259 . S
C331 O336 1.250 . S
C331 O337 1.263 . S
O332 Tb324 2.427 . S
O332 C328 1.275 . S
O333 Tb324 2.513 . S
O333 C328 1.246 . S
O334 Tb324 2.453 . S
O334 C330 1.245 . S
O335 Tb322 2.343 . S
O335 Tb324 2.596 . S
O335 C330 1.259 . S
O336 Tb324 2.374 . S
O336 C331 1.250 . S
O337 Tb322 2.353 . S
O337 C331 1.263 . S
C338 O339 1.275 . S
C338 O340 1.246 . S
O339 Tb322 2.427 . S
O339 C338 1.275 . S
O340 Tb322 2.513 . S
O340 C338 1.246 . S
C341 O325 1.245 . S
C341 O326 1.259 . S
H342 C348 0.930 . S
H343 C352 0.930 . S
H344 C357 0.929 . S
H345 C355 0.929 . S
H346 C350 0.929 . S
H347 C356 0.929 . S
C348 H342 0.930 . S
C348 C349 1.367 . S
C348 C356 1.378 . S
C349 C348 1.367 . S
C349 C357 1.433 . S
C350 H346 0.929 . S
C350 C352 1.378 . S
C350 C354 1.350 . S
C351 C354 1.463 . S
C351 C356 1.350 . S
C351 N359 1.427 . S
C352 H343 0.930 . S
C352 C350 1.378 . S
C352 C353 1.367 . S
C353 C352 1.367 . S
C353 C355 1.433 . S
C354 C350 1.350 . S
C354 C351 1.463 . S
C354 N358 1.427 . S
C355 H345 0.929 . S
C355 C353 1.433 . S
C355 N358 1.384 . S
C356 H347 0.929 . S
C356 C348 1.378 . S
C356 C351 1.350 . S
C357 H344 0.929 . S
C357 C349 1.433 . S
C357 N359 1.384 . S
N358 C354 1.427 . S
N358 C355 1.384 . S
N359 C351 1.427 . S
N359 C357 1.384 . S
H360 C366 0.930 . S
H361 C370 0.930 . S
H362 C375 0.929 . S
H363 C373 0.929 . S
H364 C368 0.929 . S
H365 C374 0.929 . S
C366 H360 0.930 . S
C366 C367 1.367 . S
C366 C374 1.378 . S
C367 C366 1.367 . S
C367 C375 1.433 . S
C368 H364 0.929 . S
C368 C370 1.378 . S
C368 C372 1.350 . S
C369 C372 1.463 . S
C369 C374 1.350 . S
C369 N377 1.427 . S
C370 H361 0.930 . S
C370 C368 1.378 . S
C370 C371 1.367 . S
C371 C370 1.367 . S
C371 C373 1.433 . S
C372 C368 1.350 . S
C372 C369 1.463 . S
C372 N376 1.427 . S
C373 H363 0.929 . S
C373 C371 1.433 . S
C373 N376 1.384 . S
C374 H365 0.929 . S
C374 C366 1.378 . S
C374 C369 1.350 . S
C375 H362 0.929 . S
C375 C367 1.433 . S
C375 N377 1.384 . S
N376 C372 1.427 . S
N376 C373 1.384 . S
N377 C369 1.427 . S
N377 C375 1.384 . S
H378 C384 0.930 . S
H379 C388 0.930 . S
H380 C393 0.929 . S
H381 C391 0.929 . S
H382 C386 0.929 . S
H383 C392 0.929 . S
C384 H378 0.930 . S
C384 C385 1.367 . S
C384 C392 1.378 . S
C385 C384 1.367 . S
C385 C393 1.433 . S
C386 H382 0.929 . S
C386 C388 1.378 . S
C386 C390 1.350 . S
C387 C390 1.463 . S
C387 C392 1.350 . S
C387 N395 1.427 . S
C388 H379 0.930 . S
C388 C386 1.378 . S
C388 C389 1.367 . S
C389 C388 1.367 . S
C389 C391 1.433 . S
C390 C386 1.350 . S
C390 C387 1.463 . S
C390 N394 1.427 . S
C391 H381 0.929 . S
C391 C389 1.433 . S
C391 N394 1.384 . S
C392 H383 0.929 . S
C392 C384 1.378 . S
C392 C387 1.350 . S
C393 H380 0.929 . S
C393 C385 1.433 . S
C393 N395 1.384 . S
N394 C390 1.427 . S
N394 C391 1.384 . S
N395 C387 1.427 . S
N395 C393 1.384 . S
H396 C402 0.930 . S
H397 C406 0.930 1_554 S
H398 C411 0.929 . S
H399 C409 0.929 . S
H400 C404 0.929 . S
H401 C410 0.929 . S
C402 H396 0.930 . S
C402 C403 1.367 . S
C402 C410 1.378 . S
C403 C402 1.367 . S
C403 C411 1.433 . S
C404 H400 0.929 . S
C404 C406 1.378 . S
C404 C408 1.350 . S
C405 C408 1.463 . S
C405 C410 1.350 . S
C405 N413 1.427 . S
C406 H397 0.930 1_556 S
C406 C404 1.378 . S
C406 C407 1.367 . S
C407 C406 1.367 . S
C407 C409 1.433 . S
C408 C404 1.350 . S
C408 C405 1.463 . S
C408 N412 1.427 . S
C409 H399 0.929 . S
C409 C407 1.433 . S
C409 N412 1.384 . S
C410 H401 0.929 . S
C410 C402 1.378 . S
C410 C405 1.350 . S
C411 H398 0.929 . S
C411 C403 1.433 . S
C411 N413 1.384 . S
N412 C408 1.427 . S
N412 C409 1.384 . S
N413 C405 1.427 . S
N413 C411 1.384 . S
H414 C420 0.930 . S
H415 C424 0.930 . S
H416 C429 0.929 . S
H417 C427 0.929 . S
H418 C422 0.929 . S
H419 C428 0.929 . S
C420 H414 0.930 . S
C420 C421 1.367 . S
C420 C428 1.378 . S
C421 C420 1.367 . S
C421 C429 1.433 . S
C422 H418 0.929 . S
C422 C424 1.378 . S
C422 C426 1.350 . S
C423 C426 1.463 . S
C423 C428 1.350 . S
C423 N431 1.427 . S
C424 H415 0.930 . S
C424 C422 1.378 . S
C424 C425 1.367 . S
C425 C424 1.367 . S
C425 C427 1.433 . S
C426 C422 1.350 . S
C426 C423 1.463 . S
C426 N430 1.427 . S
C427 H417 0.929 . S
C427 C425 1.433 . S
C427 N430 1.384 . S
C428 H419 0.929 . S
C428 C420 1.378 . S
C428 C423 1.350 . S
C429 H416 0.929 . S
C429 C421 1.433 . S
C429 N431 1.384 . S
N430 C426 1.427 . S
N430 C427 1.384 . S
N431 C423 1.427 . S
N431 C429 1.384 . S
H432 C438 0.930 . S
H433 C442 0.930 . S
H434 C447 0.929 . S
H435 C445 0.929 1_554 S
H436 C440 0.929 . S
H437 C446 0.929 . S
C438 H432 0.930 . S
C438 C439 1.367 . S
C438 C446 1.378 . S
C439 C438 1.367 . S
C439 C447 1.433 . S
C440 H436 0.929 . S
C440 C442 1.378 . S
C440 C444 1.350 . S
C441 C444 1.463 . S
C441 C446 1.350 . S
C441 N449 1.427 . S
C442 H433 0.930 . S
C442 C440 1.378 . S
C442 C443 1.367 . S
C443 C442 1.367 . S
C443 C445 1.433 . S
C444 C440 1.350 . S
C444 C441 1.463 . S
C444 N448 1.427 . S
C445 H435 0.929 1_556 S
C445 C443 1.433 . S
C445 N448 1.384 . S
C446 H437 0.929 . S
C446 C438 1.378 . S
C446 C441 1.350 . S
C447 H434 0.929 . S
C447 C439 1.433 . S
C447 N449 1.384 . S
N448 C444 1.427 . S
N448 C445 1.384 . S
N449 C441 1.427 . S
N449 C447 1.384 . S
H450 C456 0.930 . S
H451 C460 0.930 . S
H452 C465 0.929 . S
H453 C463 0.929 . S
H454 C458 0.929 . S
H455 C464 0.929 . S
C456 H450 0.930 . S
C456 C457 1.367 . S
C456 C464 1.378 . S
C457 C456 1.367 . S
C457 C465 1.433 . S
C458 H454 0.929 . S
C458 C460 1.378 . S
C458 C462 1.350 . S
C459 C462 1.463 . S
C459 C464 1.350 . S
C459 N467 1.427 . S
C460 H451 0.930 . S
C460 C458 1.378 . S
C460 C461 1.367 . S
C461 C460 1.367 . S
C461 C463 1.433 . S
C462 C458 1.350 . S
C462 C459 1.463 . S
C462 N466 1.427 . S
C463 H453 0.929 . S
C463 C461 1.433 . S
C463 N466 1.384 . S
C464 H455 0.929 . S
C464 C456 1.378 . S
C464 C459 1.350 . S
C465 H452 0.929 . S
C465 C457 1.433 . S
C465 N467 1.384 . S
N466 C462 1.427 . S
N466 C463 1.384 . S
N467 C459 1.427 . S
N467 C465 1.384 . S
H468 C474 0.930 . S
H469 C478 0.930 . S
H470 C483 0.929 . S
H471 C481 0.929 . S
H472 C476 0.929 . S
H473 C482 0.929 . S
C474 H468 0.930 . S
C474 C475 1.367 . S
C474 C482 1.378 . S
C475 C474 1.367 . S
C475 C483 1.433 . S
C476 H472 0.929 . S
C476 C478 1.378 . S
C476 C480 1.350 . S
C477 C480 1.463 . S
C477 C482 1.350 . S
C477 N485 1.427 . S
C478 H469 0.930 . S
C478 C476 1.378 . S
C478 C479 1.367 . S
C479 C478 1.367 . S
C479 C481 1.433 . S
C480 C476 1.350 . S
C480 C477 1.463 . S
C480 N484 1.427 . S
C481 H471 0.929 . S
C481 C479 1.433 . S
C481 N484 1.384 . S
C482 H473 0.929 . S
C482 C474 1.378 . S
C482 C477 1.350 . S
C483 H470 0.929 . S
C483 C475 1.433 . S
C483 N485 1.384 . S
N484 C480 1.427 . S
N484 C481 1.384 . S
N485 C477 1.427 . S
N485 C483 1.384 . S
H486 C492 0.930 . S
H487 C496 0.930 1_554 S
H488 C501 0.929 . S
H489 C499 0.929 . S
H490 C494 0.929 . S
H491 C500 0.929 . S
C492 H486 0.930 . S
C492 C493 1.367 . S
C492 C500 1.378 . S
C493 C492 1.367 . S
C493 C501 1.433 . S
C494 H490 0.929 . S
C494 C496 1.378 . S
C494 C498 1.350 . S
C495 C498 1.463 . S
C495 C500 1.350 . S
C495 N503 1.427 . S
C496 H487 0.930 1_556 S
C496 C494 1.378 . S
C496 C497 1.367 . S
C497 C496 1.367 . S
C497 C499 1.433 . S
C498 C494 1.350 . S
C498 C495 1.463 . S
C498 N502 1.427 . S
C499 H489 0.929 . S
C499 C497 1.433 . S
C499 N502 1.384 . S
C500 H491 0.929 . S
C500 C492 1.378 . S
C500 C495 1.350 . S
C501 H488 0.929 . S
C501 C493 1.433 . S
C501 N503 1.384 . S
N502 C498 1.427 . S
N502 C499 1.384 . S
N503 C495 1.427 . S
N503 C501 1.384 . S
H504 C510 0.930 . S
H505 C514 0.930 . S
H506 C519 0.929 . S
H507 C517 0.929 1_556 S
H508 C512 0.929 . S
H509 C518 0.929 . S
C510 H504 0.930 . S
C510 C511 1.367 . S
C510 C518 1.378 . S
C511 C510 1.367 . S
C511 C519 1.433 . S
C512 H508 0.929 . S
C512 C514 1.378 . S
C512 C516 1.350 . S
C513 C516 1.463 . S
C513 C518 1.350 . S
C513 N521 1.427 . S
C514 H505 0.930 . S
C514 C512 1.378 . S
C514 C515 1.367 . S
C515 C514 1.367 . S
C515 C517 1.433 . S
C516 C512 1.350 . S
C516 C513 1.463 . S
C516 N520 1.427 . S
C517 H507 0.929 1_554 S
C517 C515 1.433 . S
C517 N520 1.384 . S
C518 H509 0.929 . S
C518 C510 1.378 . S
C518 C513 1.350 . S
C519 H506 0.929 . S
C519 C511 1.433 . S
C519 N521 1.384 . S
N520 C516 1.427 . S
N520 C517 1.384 . S
N521 C513 1.427 . S
N521 C519 1.384 . S
H522 C528 0.930 . S
H523 C532 0.930 . S
H524 C537 0.929 . S
H525 C535 0.929 . S
H526 C530 0.929 . S
H527 C536 0.929 . S
C528 H522 0.930 . S
C528 C529 1.367 . S
C528 C536 1.378 . S
C529 C528 1.367 . S
C529 C537 1.433 . S
C530 H526 0.929 . S
C530 C532 1.378 . S
C530 C534 1.350 . S
C531 C534 1.463 . S
C531 C536 1.350 . S
C531 N539 1.427 . S
C532 H523 0.930 . S
C532 C530 1.378 . S
C532 C533 1.367 . S
C533 C532 1.367 . S
C533 C535 1.433 . S
C534 C530 1.350 . S
C534 C531 1.463 . S
C534 N538 1.427 . S
C535 H525 0.929 . S
C535 C533 1.433 . S
C535 N538 1.384 . S
C536 H527 0.929 . S
C536 C528 1.378 . S
C536 C531 1.350 . S
C537 H524 0.929 . S
C537 C529 1.433 . S
C537 N539 1.384 . S
N538 C534 1.427 . S
N538 C535 1.384 . S
N539 C531 1.427 . S
N539 C537 1.384 . S
H540 C546 0.930 . S
H541 C550 0.930 . S
H542 C555 0.929 . S
H543 C553 0.929 . S
H544 C548 0.929 . S
H545 C554 0.929 . S
C546 H540 0.930 . S
C546 C547 1.367 . S
C546 C554 1.378 . S
C547 C546 1.367 . S
C547 C555 1.433 . S
C548 H544 0.929 . S
C548 C550 1.378 . S
C548 C552 1.350 . S
C549 C552 1.463 . S
C549 C554 1.350 . S
C549 N557 1.427 . S
C550 H541 0.930 . S
C550 C548 1.378 . S
C550 C551 1.367 . S
C551 C550 1.367 . S
C551 C553 1.433 . S
C552 C548 1.350 . S
C552 C549 1.463 . S
C552 N556 1.427 . S
C553 H543 0.929 . S
C553 C551 1.433 . S
C553 N556 1.384 . S
C554 H545 0.929 . S
C554 C546 1.378 . S
C554 C549 1.350 . S
C555 H542 0.929 . S
C555 C547 1.433 . S
C555 N557 1.384 . S
N556 C552 1.427 . S
N556 C553 1.384 . S
N557 C549 1.427 . S
N557 C555 1.384 . S
H558 C564 0.930 . S
H559 C568 0.930 . S
H560 C573 0.929 . S
H561 C571 0.929 . S
H562 C566 0.929 1_655 S
H563 C572 0.929 . S
C564 H558 0.930 . S
C564 C565 1.367 . S
C564 C572 1.378 . S
C565 C564 1.367 . S
C565 C573 1.433 . S
C566 H562 0.929 1_455 S
C566 C568 1.378 . S
C566 C570 1.350 . S
C567 C570 1.463 1_655 S
C567 C572 1.350 . S
C567 N575 1.427 . S
C568 H559 0.930 . S
C568 C566 1.378 . S
C568 C569 1.367 . S
C569 C568 1.367 . S
C569 C571 1.433 . S
C570 C566 1.350 . S
C570 C567 1.463 1_455 S
C570 N574 1.427 . S
C571 H561 0.929 . S
C571 C569 1.433 . S
C571 N574 1.384 . S
C572 H563 0.929 . S
C572 C564 1.378 . S
C572 C567 1.350 . S
C573 H560 0.929 . S
C573 C565 1.433 . S
C573 N575 1.384 . S
N574 C570 1.427 . S
N574 C571 1.384 . S
N575 C567 1.427 . S
N575 C573 1.384 . S
H576 C582 0.930 . S
H577 C586 0.930 . S
H578 C591 0.929 . S
H579 C589 0.929 . S
H580 C584 0.929 . S
H581 C590 0.929 . S
C582 H576 0.930 . S
C582 C583 1.367 . S
C582 C590 1.378 . S
C583 C582 1.367 . S
C583 C591 1.433 . S
C584 H580 0.929 . S
C584 C586 1.378 . S
C584 C588 1.350 . S
C585 C588 1.463 . S
C585 C590 1.350 . S
C585 N593 1.427 . S
C586 H577 0.930 . S
C586 C584 1.378 . S
C586 C587 1.367 . S
C587 C586 1.367 . S
C587 C589 1.433 . S
C588 C584 1.350 . S
C588 C585 1.463 . S
C588 N592 1.427 . S
C589 H579 0.929 . S
C589 C587 1.433 . S
C589 N592 1.384 . S
C590 H581 0.929 . S
C590 C582 1.378 . S
C590 C585 1.350 . S
C591 H578 0.929 . S
C591 C583 1.433 . S
C591 N593 1.384 . S
N592 C588 1.427 . S
N592 C589 1.384 . S
N593 C585 1.427 . S
N593 C591 1.384 . S
H594 C600 0.930 . S
H595 C604 0.930 . S
H596 C609 0.929 . S
H597 C607 0.929 . S
H598 C602 0.929 . S
H599 C608 0.929 . S
C600 H594 0.930 . S
C600 C601 1.367 . S
C600 C608 1.378 . S
C601 C600 1.367 . S
C601 C609 1.433 . S
C602 H598 0.929 . S
C602 C604 1.378 . S
C602 C606 1.350 . S
C603 C606 1.463 1_545 S
C603 C608 1.350 . S
C603 N611 1.427 . S
C604 H595 0.930 . S
C604 C602 1.378 . S
C604 C605 1.367 . S
C605 C604 1.367 . S
C605 C607 1.433 . S
C606 C602 1.350 . S
C606 C603 1.463 1_565 S
C606 N610 1.427 . S
C607 H597 0.929 . S
C607 C605 1.433 . S
C607 N610 1.384 . S
C608 H599 0.929 . S
C608 C600 1.378 . S
C608 C603 1.350 . S
C609 H596 0.929 . S
C609 C601 1.433 . S
C609 N611 1.384 . S
N610 C606 1.427 . S
N610 C607 1.384 . S
N611 C603 1.427 . S
N611 C609 1.384 . S
H612 C618 0.930 . S
H613 C622 0.930 . S
H614 C627 0.929 . S
H615 C625 0.929 . S
H616 C620 0.929 . S
H617 C626 0.929 . S
C618 H612 0.930 . S
C618 C619 1.367 . S
C618 C626 1.378 . S
C619 C618 1.367 . S
C619 C627 1.433 . S
C620 H616 0.929 . S
C620 C622 1.378 . S
C620 C624 1.350 . S
C621 C624 1.463 . S
C621 C626 1.350 . S
C621 N629 1.427 . S
C622 H613 0.930 . S
C622 C620 1.378 . S
C622 C623 1.367 . S
C623 C622 1.367 . S
C623 C625 1.433 . S
C624 C620 1.350 . S
C624 C621 1.463 . S
C624 N628 1.427 . S
C625 H615 0.929 . S
C625 C623 1.433 . S
C625 N628 1.384 . S
C626 H617 0.929 . S
C626 C618 1.378 . S
C626 C621 1.350 . S
C627 H614 0.929 . S
C627 C619 1.433 . S
C627 N629 1.384 . S
N628 C624 1.427 . S
N628 C625 1.384 . S
N629 C621 1.427 . S
N629 C627 1.384 . S
H630 C636 0.930 . S
H631 C640 0.930 . S
H632 C645 0.929 . S
H633 C643 0.929 . S
H634 C638 0.929 . S
H635 C644 0.929 . S
C636 H630 0.930 . S
C636 C637 1.367 . S
C636 C644 1.378 . S
C637 C636 1.367 . S
C637 C645 1.433 . S
C638 H634 0.929 . S
C638 C640 1.378 . S
C638 C642 1.350 . S
C639 C642 1.463 . S
C639 C644 1.350 . S
C639 N647 1.427 . S
C640 H631 0.930 . S
C640 C638 1.378 . S
C640 C641 1.367 . S
C641 C640 1.367 . S
C641 C643 1.433 . S
C642 C638 1.350 . S
C642 C639 1.463 . S
C642 N646 1.427 . S
C643 H633 0.929 . S
C643 C641 1.433 . S
C643 N646 1.384 . S
C644 H635 0.929 . S
C644 C636 1.378 . S
C644 C639 1.350 . S
C645 H632 0.929 . S
C645 C637 1.433 . S
C645 N647 1.384 . S
N646 C642 1.427 . S
N646 C643 1.384 . S
N647 C639 1.427 . S
N647 C645 1.384 . S
H648 C654 0.930 . S
H649 C658 0.930 . S
H650 C663 0.929 . S
H651 C661 0.929 . S
H652 C656 0.929 . S
H653 C662 0.929 . S
C654 H648 0.930 . S
C654 C655 1.367 . S
C654 C662 1.378 . S
C655 C654 1.367 . S
C655 C663 1.433 . S
C656 H652 0.929 . S
C656 C658 1.378 . S
C656 C660 1.350 . S
C657 C660 1.463 . S
C657 C662 1.350 . S
C657 N665 1.427 . S
C658 H649 0.930 . S
C658 C656 1.378 . S
C658 C659 1.367 . S
C659 C658 1.367 . S
C659 C661 1.433 . S
C660 C656 1.350 . S
C660 C657 1.463 . S
C660 N664 1.427 . S
C661 H651 0.929 . S
C661 C659 1.433 . S
C661 N664 1.384 . S
C662 H653 0.929 . S
C662 C654 1.378 . S
C662 C657 1.350 . S
C663 H650 0.929 . S
C663 C655 1.433 . S
C663 N665 1.384 . S
N664 C660 1.427 . S
N664 C661 1.384 . S
N665 C657 1.427 . S
N665 C663 1.384 . S
H666 C672 0.930 . S
H667 C676 0.930 . S
H668 C681 0.929 . S
H669 C679 0.929 . S
H670 C674 0.929 . S
H671 C680 0.929 . S
C672 H666 0.930 . S
C672 C673 1.367 . S
C672 C680 1.378 . S
C673 C672 1.367 . S
C673 C681 1.433 . S
C674 H670 0.929 . S
C674 C676 1.378 . S
C674 C678 1.350 . S
C675 C678 1.463 . S
C675 C680 1.350 . S
C675 N683 1.427 . S
C676 H667 0.930 . S
C676 C674 1.378 . S
C676 C677 1.367 . S
C677 C676 1.367 . S
C677 C679 1.433 . S
C678 C674 1.350 . S
C678 C675 1.463 . S
C678 N682 1.427 . S
C679 H669 0.929 . S
C679 C677 1.433 . S
C679 N682 1.384 . S
C680 H671 0.929 . S
C680 C672 1.378 . S
C680 C675 1.350 . S
C681 H668 0.929 . S
C681 C673 1.433 . S
C681 N683 1.384 . S
N682 C678 1.427 . S
N682 C679 1.384 . S
N683 C675 1.427 . S
N683 C681 1.384 . S
H684 C690 0.930 . S
H685 C694 0.930 . S
H686 C699 0.929 . S
H687 C697 0.929 . S
H688 C692 0.929 . S
H689 C698 0.929 . S
C690 H684 0.930 . S
C690 C691 1.367 . S
C690 C698 1.378 . S
C691 C690 1.367 . S
C691 C699 1.433 . S
C692 H688 0.929 . S
C692 C694 1.378 . S
C692 C696 1.350 . S
C693 C696 1.463 . S
C693 C698 1.350 . S
C693 N701 1.427 . S
C694 H685 0.930 . S
C694 C692 1.378 . S
C694 C695 1.367 . S
C695 C694 1.367 . S
C695 C697 1.433 . S
C696 C692 1.350 . S
C696 C693 1.463 . S
C696 N700 1.427 . S
C697 H687 0.929 . S
C697 C695 1.433 . S
C697 N700 1.384 . S
C698 H689 0.929 . S
C698 C690 1.378 . S
C698 C693 1.350 . S
C699 H686 0.929 . S
C699 C691 1.433 . S
C699 N701 1.384 . S
N700 C696 1.427 . S
N700 C697 1.384 . S
N701 C693 1.427 . S
N701 C699 1.384 . S
H702 C708 0.930 . S
H703 C712 0.930 . S
H704 C717 0.929 . S
H705 C715 0.929 . S
H706 C710 0.929 . S
H707 C716 0.929 . S
C708 H702 0.930 . S
C708 C709 1.367 . S
C708 C716 1.378 . S
C709 C708 1.367 . S
C709 C717 1.433 . S
C710 H706 0.929 . S
C710 C712 1.378 . S
C710 C714 1.350 . S
C711 C714 1.463 . S
C711 C716 1.350 . S
C711 N719 1.427 . S
C712 H703 0.930 . S
C712 C710 1.378 . S
C712 C713 1.367 . S
C713 C712 1.367 . S
C713 C715 1.433 . S
C714 C710 1.350 . S
C714 C711 1.463 . S
C714 N718 1.427 . S
C715 H705 0.929 . S
C715 C713 1.433 . S
C715 N718 1.384 . S
C716 H707 0.929 . S
C716 C708 1.378 . S
C716 C711 1.350 . S
C717 H704 0.929 . S
C717 C709 1.433 . S
C717 N719 1.384 . S
N718 C714 1.427 . S
N718 C715 1.384 . S
N719 C711 1.427 . S
N719 C717 1.384 . S
H720 C726 0.930 . S
H721 C730 0.930 . S
H722 C735 0.929 . S
H723 C733 0.929 . S
H724 C728 0.929 . S
H725 C734 0.929 . S
C726 H720 0.930 . S
C726 C727 1.367 . S
C726 C734 1.378 . S
C727 C726 1.367 . S
C727 C735 1.433 . S
C728 H724 0.929 . S
C728 C730 1.378 . S
C728 C732 1.350 . S
C729 C732 1.463 1_545 S
C729 C734 1.350 . S
C729 N737 1.427 . S
C730 H721 0.930 . S
C730 C728 1.378 . S
C730 C731 1.367 . S
C731 C730 1.367 . S
C731 C733 1.433 . S
C732 C728 1.350 . S
C732 C729 1.463 1_565 S
C732 N736 1.427 . S
C733 H723 0.929 . S
C733 C731 1.433 . S
C733 N736 1.384 . S
C734 H725 0.929 . S
C734 C726 1.378 . S
C734 C729 1.350 . S
C735 H722 0.929 . S
C735 C727 1.433 . S
C735 N737 1.384 . S
N736 C732 1.427 . S
N736 C733 1.384 . S
N737 C729 1.427 . S
N737 C735 1.384 . S
H738 C744 0.930 . S
H739 C748 0.930 . S
H740 C753 0.929 . S
H741 C751 0.929 . S
H742 C746 0.929 . S
H743 C752 0.929 . S
C744 H738 0.930 . S
C744 C745 1.367 . S
C744 C752 1.378 . S
C745 C744 1.367 . S
C745 C753 1.433 . S
C746 H742 0.929 . S
C746 C748 1.378 . S
C746 C750 1.350 . S
C747 C750 1.463 1_655 S
C747 C752 1.350 . S
C747 N755 1.427 . S
C748 H739 0.930 . S
C748 C746 1.378 . S
C748 C749 1.367 . S
C749 C748 1.367 . S
C749 C751 1.433 . S
C750 C746 1.350 . S
C750 C747 1.463 1_455 S
C750 N754 1.427 . S
C751 H741 0.929 . S
C751 C749 1.433 . S
C751 N754 1.384 . S
C752 H743 0.929 . S
C752 C744 1.378 . S
C752 C747 1.350 . S
C753 H740 0.929 . S
C753 C745 1.433 . S
C753 N755 1.384 . S
N754 C750 1.427 . S
N754 C751 1.384 . S
N755 C747 1.427 . S
N755 C753 1.384 . S
H756 C762 0.930 . S
H757 C766 0.930 . S
H758 C771 0.929 . S
H759 C769 0.929 . S
H760 C764 0.929 . S
H761 C770 0.929 . S
C762 H756 0.930 . S
C762 C763 1.367 . S
C762 C770 1.378 . S
C763 C762 1.367 . S
C763 C771 1.433 . S
C764 H760 0.929 . S
C764 C766 1.378 . S
C764 C768 1.350 . S
C765 C768 1.463 . S
C765 C770 1.350 . S
C765 N773 1.427 . S
C766 H757 0.930 . S
C766 C764 1.378 . S
C766 C767 1.367 . S
C767 C766 1.367 . S
C767 C769 1.433 . S
C768 C764 1.350 . S
C768 C765 1.463 . S
C768 N772 1.427 . S
C769 H759 0.929 . S
C769 C767 1.433 . S
C769 N772 1.384 . S
C770 H761 0.929 . S
C770 C762 1.378 . S
C770 C765 1.350 . S
C771 H758 0.929 . S
C771 C763 1.433 . S
C771 N773 1.384 . S
N772 C768 1.427 . S
N772 C769 1.384 . S
N773 C765 1.427 . S
N773 C771 1.384 . S
H774 C780 0.930 . S
H775 C784 0.930 . S
H776 C789 0.929 . S
H777 C787 0.929 . S
H778 C782 0.929 . S
H779 C788 0.929 . S
C780 H774 0.930 . S
C780 C781 1.367 . S
C780 C788 1.378 . S
C781 C780 1.367 . S
C781 C789 1.433 . S
C782 H778 0.929 . S
C782 C784 1.378 . S
C782 C786 1.350 . S
C783 C786 1.463 . S
C783 C788 1.350 . S
C783 N791 1.427 . S
C784 H775 0.930 . S
C784 C782 1.378 . S
C784 C785 1.367 . S
C785 C784 1.367 . S
C785 C787 1.433 . S
C786 C782 1.350 . S
C786 C783 1.463 . S
C786 N790 1.427 . S
C787 H777 0.929 . S
C787 C785 1.433 . S
C787 N790 1.384 . S
C788 H779 0.929 . S
C788 C780 1.378 . S
C788 C783 1.350 . S
C789 H776 0.929 . S
C789 C781 1.433 . S
C789 N791 1.384 . S
N790 C786 1.427 . S
N790 C787 1.384 . S
N791 C783 1.427 . S
N791 C789 1.384 . S
H792 C798 0.930 . S
H793 C802 0.930 . S
H794 C807 0.929 . S
H795 C805 0.929 . S
H796 C800 0.929 . S
H797 C806 0.929 . S
C798 H792 0.930 . S
C798 C799 1.367 . S
C798 C806 1.378 . S
C799 C798 1.367 . S
C799 C807 1.433 . S
C800 H796 0.929 . S
C800 C802 1.378 . S
C800 C804 1.350 . S
C801 C804 1.463 . S
C801 C806 1.350 . S
C801 N809 1.427 . S
C802 H793 0.930 . S
C802 C800 1.378 . S
C802 C803 1.367 . S
C803 C802 1.367 . S
C803 C805 1.433 . S
C804 C800 1.350 . S
C804 C801 1.463 . S
C804 N808 1.427 . S
C805 H795 0.929 . S
C805 C803 1.433 . S
C805 N808 1.384 . S
C806 H797 0.929 . S
C806 C798 1.378 . S
C806 C801 1.350 . S
C807 H794 0.929 . S
C807 C799 1.433 . S
C807 N809 1.384 . S
N808 C804 1.427 . S
N808 C805 1.384 . S
N809 C801 1.427 . S
N809 C807 1.384 . S
H810 C816 0.930 . S
H811 C820 0.930 . S
H812 C825 0.929 . S
H813 C823 0.929 . S
H814 C818 0.929 . S
H815 C824 0.929 . S
C816 H810 0.930 . S
C816 C817 1.367 . S
C816 C824 1.378 . S
C817 C816 1.367 . S
C817 C825 1.433 . S
C818 H814 0.929 . S
C818 C820 1.378 . S
C818 C822 1.350 . S
C819 C822 1.463 . S
C819 C824 1.350 . S
C819 N827 1.427 . S
C820 H811 0.930 . S
C820 C818 1.378 . S
C820 C821 1.367 . S
C821 C820 1.367 . S
C821 C823 1.433 . S
C822 C818 1.350 . S
C822 C819 1.463 . S
C822 N826 1.427 . S
C823 H813 0.929 . S
C823 C821 1.433 . S
C823 N826 1.384 . S
C824 H815 0.929 . S
C824 C816 1.378 . S
C824 C819 1.350 . S
C825 H812 0.929 . S
C825 C817 1.433 . S
C825 N827 1.384 . S
N826 C822 1.427 . S
N826 C823 1.384 . S
N827 C819 1.427 . S
N827 C825 1.384 . S
H828 C834 0.930 . S
H829 C838 0.930 . S
H830 C843 0.929 . S
H831 C841 0.929 . S
H832 C836 0.929 . S
H833 C842 0.929 . S
C834 H828 0.930 . S
C834 C835 1.367 . S
C834 C842 1.378 . S
C835 C834 1.367 . S
C835 C843 1.433 . S
C836 H832 0.929 . S
C836 C838 1.378 . S
C836 C840 1.350 . S
C837 C840 1.463 1_565 S
C837 C842 1.350 . S
C837 N845 1.427 . S
C838 H829 0.930 . S
C838 C836 1.378 . S
C838 C839 1.367 . S
C839 C838 1.367 . S
C839 C841 1.433 . S
C840 C836 1.350 . S
C840 C837 1.463 1_545 S
C840 N844 1.427 . S
C841 H831 0.929 . S
C841 C839 1.433 . S
C841 N844 1.384 . S
C842 H833 0.929 . S
C842 C834 1.378 . S
C842 C837 1.350 . S
C843 H830 0.929 . S
C843 C835 1.433 . S
C843 N845 1.384 . S
N844 C840 1.427 . S
N844 C841 1.384 . S
N845 C837 1.427 . S
N845 C843 1.384 . S
H846 C852 0.930 . S
H847 C856 0.930 . S
H848 C861 0.929 . S
H849 C859 0.929 . S
H850 C854 0.929 . S
H851 C860 0.929 . S
C852 H846 0.930 . S
C852 C853 1.367 . S
C852 C860 1.378 . S
C853 C852 1.367 . S
C853 C861 1.433 . S
C854 H850 0.929 . S
C854 C856 1.378 . S
C854 C858 1.350 . S
C855 C858 1.463 1_455 S
C855 C860 1.350 . S
C855 N863 1.427 . S
C856 H847 0.930 . S
C856 C854 1.378 . S
C856 C857 1.367 . S
C857 C856 1.367 . S
C857 C859 1.433 . S
C858 C854 1.350 . S
C858 C855 1.463 1_655 S
C858 N862 1.427 . S
C859 H849 0.929 . S
C859 C857 1.433 . S
C859 N862 1.384 . S
C860 H851 0.929 . S
C860 C852 1.378 . S
C860 C855 1.350 . S
C861 H848 0.929 . S
C861 C853 1.433 . S
C861 N863 1.384 . S
N862 C858 1.427 . S
N862 C859 1.384 . S
N863 C855 1.427 . S
N863 C861 1.384 . S
H864 C870 0.930 . S
H865 C874 0.930 . S
H866 C879 0.929 . S
H867 C877 0.929 . S
H868 C872 0.929 . S
H869 C878 0.929 . S
C870 H864 0.930 . S
C870 C871 1.367 . S
C870 C878 1.378 . S
C871 C870 1.367 . S
C871 C879 1.433 . S
C872 H868 0.929 . S
C872 C874 1.378 . S
C872 C876 1.350 . S
C873 C876 1.463 . S
C873 C878 1.350 . S
C873 N881 1.427 . S
C874 H865 0.930 . S
C874 C872 1.378 . S
C874 C875 1.367 . S
C875 C874 1.367 . S
C875 C877 1.433 . S
C876 C872 1.350 . S
C876 C873 1.463 . S
C876 N880 1.427 . S
C877 H867 0.929 . S
C877 C875 1.433 . S
C877 N880 1.384 . S
C878 H869 0.929 . S
C878 C870 1.378 . S
C878 C873 1.350 . S
C879 H866 0.929 . S
C879 C871 1.433 . S
C879 N881 1.384 . S
N880 C876 1.427 . S
N880 C877 1.384 . S
N881 C873 1.427 . S
N881 C879 1.384 . S
H882 C888 0.930 . S
H883 C892 0.930 . S
H884 C897 0.929 . S
H885 C895 0.929 . S
H886 C890 0.929 1_455 S
H887 C896 0.929 . S
C888 H882 0.930 . S
C888 C889 1.367 . S
C888 C896 1.378 . S
C889 C888 1.367 . S
C889 C897 1.433 . S
C890 H886 0.929 1_655 S
C890 C892 1.378 . S
C890 C894 1.350 . S
C891 C894 1.463 1_455 S
C891 C896 1.350 . S
C891 N899 1.427 . S
C892 H883 0.930 . S
C892 C890 1.378 . S
C892 C893 1.367 . S
C893 C892 1.367 . S
C893 C895 1.433 . S
C894 C890 1.350 . S
C894 C891 1.463 1_655 S
C894 N898 1.427 . S
C895 H885 0.929 . S
C895 C893 1.433 . S
C895 N898 1.384 . S
C896 H887 0.929 . S
C896 C888 1.378 . S
C896 C891 1.350 . S
C897 H884 0.929 . S
C897 C889 1.433 . S
C897 N899 1.384 . S
N898 C894 1.427 . S
N898 C895 1.384 . S
N899 C891 1.427 . S
N899 C897 1.384 . S
H900 C906 0.930 . S
H901 C910 0.930 . S
H902 C915 0.929 . S
H903 C913 0.929 . S
H904 C908 0.929 . S
H905 C914 0.929 . S
C906 H900 0.930 . S
C906 C907 1.367 . S
C906 C914 1.378 . S
C907 C906 1.367 . S
C907 C915 1.433 . S
C908 H904 0.929 . S
C908 C910 1.378 . S
C908 C912 1.350 . S
C909 C912 1.463 . S
C909 C914 1.350 . S
C909 N917 1.427 . S
C910 H901 0.930 . S
C910 C908 1.378 . S
C910 C911 1.367 . S
C911 C910 1.367 . S
C911 C913 1.433 . S
C912 C908 1.350 . S
C912 C909 1.463 . S
C912 N916 1.427 . S
C913 H903 0.929 . S
C913 C911 1.433 . S
C913 N916 1.384 . S
C914 H905 0.929 . S
C914 C906 1.378 . S
C914 C909 1.350 . S
C915 H902 0.929 . S
C915 C907 1.433 . S
C915 N917 1.384 . S
N916 C912 1.427 . S
N916 C913 1.384 . S
N917 C909 1.427 . S
N917 C915 1.384 . S
H918 C924 0.930 . S
H919 C928 0.930 . S
H920 C933 0.929 . S
H921 C931 0.929 . S
H922 C926 0.929 . S
H923 C932 0.929 . S
C924 H918 0.930 . S
C924 C925 1.367 . S
C924 C932 1.378 . S
C925 C924 1.367 . S
C925 C933 1.433 . S
C926 H922 0.929 . S
C926 C928 1.378 . S
C926 C930 1.350 . S
C927 C930 1.463 1_565 S
C927 C932 1.350 . S
C927 N935 1.427 . S
C928 H919 0.930 . S
C928 C926 1.378 . S
C928 C929 1.367 . S
C929 C928 1.367 . S
C929 C931 1.433 . S
C930 C926 1.350 . S
C930 C927 1.463 1_545 S
C930 N934 1.427 . S
C931 H921 0.929 . S
C931 C929 1.433 . S
C931 N934 1.384 . S
C932 H923 0.929 . S
C932 C924 1.378 . S
C932 C927 1.350 . S
C933 H920 0.929 . S
C933 C925 1.433 . S
C933 N935 1.384 . S
N934 C930 1.427 . S
N934 C931 1.384 . S
N935 C927 1.427 . S
N935 C933 1.384 . S
H936 C942 0.930 . S
H937 C946 0.930 . S
H938 C951 0.929 . S
H939 C949 0.929 . S
H940 C944 0.929 . S
H941 C950 0.929 . S
C942 H936 0.930 . S
C942 C943 1.367 . S
C942 C950 1.378 . S
C943 C942 1.367 . S
C943 C951 1.433 . S
C944 H940 0.929 . S
C944 C946 1.378 . S
C944 C948 1.350 . S
C945 C948 1.463 . S
C945 C950 1.350 . S
C945 N953 1.427 . S
C946 H937 0.930 . S
C946 C944 1.378 . S
C946 C947 1.367 . S
C947 C946 1.367 . S
C947 C949 1.433 . S
C948 C944 1.350 . S
C948 C945 1.463 . S
C948 N952 1.427 . S
C949 H939 0.929 . S
C949 C947 1.433 . S
C949 N952 1.384 . S
C950 H941 0.929 . S
C950 C942 1.378 . S
C950 C945 1.350 . S
C951 H938 0.929 . S
C951 C943 1.433 . S
C951 N953 1.384 . S
N952 C948 1.427 . S
N952 C949 1.384 . S
N953 C945 1.427 . S
N953 C951 1.384 . S
H954 C960 0.930 . S
H955 C964 0.930 . S
H956 C969 0.929 . S
H957 C967 0.929 . S
H958 C962 0.929 . S
H959 C968 0.929 . S
C960 H954 0.930 . S
C960 C961 1.367 . S
C960 C968 1.378 . S
C961 C960 1.367 . S
C961 C969 1.433 . S
C962 H958 0.929 . S
C962 C964 1.378 . S
C962 C966 1.350 . S
C963 C966 1.463 . S
C963 C968 1.350 . S
C963 N971 1.427 . S
C964 H955 0.930 . S
C964 C962 1.378 . S
C964 C965 1.367 . S
C965 C964 1.367 . S
C965 C967 1.433 . S
C966 C962 1.350 . S
C966 C963 1.463 . S
C966 N970 1.427 . S
C967 H957 0.929 . S
C967 C965 1.433 . S
C967 N970 1.384 . S
C968 H959 0.929 . S
C968 C960 1.378 . S
C968 C963 1.350 . S
C969 H956 0.929 . S
C969 C961 1.433 . S
C969 N971 1.384 . S
N970 C966 1.427 . S
N970 C967 1.384 . S
N971 C963 1.427 . S
N971 C969 1.384 . S
H972 C978 0.930 . S
H973 C982 0.930 . S
H974 C987 0.929 . S
H975 C985 0.929 . S
H976 C980 0.929 . S
H977 C986 0.929 . S
C978 H972 0.930 . S
C978 C979 1.367 . S
C978 C986 1.378 . S
C979 C978 1.367 . S
C979 C987 1.433 . S
C980 H976 0.929 . S
C980 C982 1.378 . S
C980 C984 1.350 . S
C981 C984 1.463 . S
C981 C986 1.350 . S
C981 N989 1.427 . S
C982 H973 0.930 . S
C982 C980 1.378 . S
C982 C983 1.367 . S
C983 C982 1.367 . S
C983 C985 1.433 . S
C984 C980 1.350 . S
C984 C981 1.463 . S
C984 N988 1.427 . S
C985 H975 0.929 . S
C985 C983 1.433 . S
C985 N988 1.384 . S
C986 H977 0.929 . S
C986 C978 1.378 . S
C986 C981 1.350 . S
C987 H974 0.929 . S
C987 C979 1.433 . S
C987 N989 1.384 . S
N988 C984 1.427 . S
N988 C985 1.384 . S
N989 C981 1.427 . S
N989 C987 1.384 . S
H990 C996 0.930 . S
H991 C1000 0.931 . S
H992 C1005 0.929 . S
H993 C1003 0.929 . S
H994 C998 0.929 . S
H995 C1004 0.929 . S
C996 H990 0.930 . S
C996 C997 1.367 . S
C996 C1004 1.378 . S
C997 C996 1.367 . S
C997 C1005 1.433 . S
C998 H994 0.929 . S
C998 C1000 1.376 1_565 S
C998 C1002 1.350 . S
C999 C1002 1.463 . S
C999 C1004 1.350 . S
C999 N1007 1.427 . S
C1000 H991 0.931 . S
C1000 C998 1.376 1_545 S
C1000 C1001 1.368 1_545 S
C1001 C1000 1.368 1_565 S
C1001 C1003 1.433 . S
C1002 C998 1.350 . S
C1002 C999 1.463 . S
C1002 N1006 1.427 . S
C1003 H993 0.929 . S
C1003 C1001 1.433 . S
C1003 N1006 1.384 . S
C1004 H995 0.929 . S
C1004 C996 1.378 . S
C1004 C999 1.350 . S
C1005 H992 0.929 . S
C1005 C997 1.433 . S
C1005 N1007 1.384 . S
N1006 C1002 1.427 . S
N1006 C1003 1.384 . S
N1007 C999 1.427 . S
N1007 C1005 1.384 . S
H1008 C1014 0.930 . S
H1009 C1018 0.930 . S
H1010 C1023 0.929 . S
H1011 C1021 0.929 . S
H1012 C1016 0.914 1_655 S
H1013 C1022 0.929 . S
C1014 H1008 0.930 . S
C1014 C1015 1.367 . S
C1014 C1022 1.378 . S
C1015 C1014 1.367 . S
C1015 C1023 1.433 . S
C1016 H1012 0.914 1_455 S
C1016 C1018 1.375 1_455 S
C1016 C1020 1.368 . S
C1017 C1020 1.463 . S
C1017 C1022 1.350 . S
C1017 N1025 1.427 . S
C1018 H1009 0.930 . S
C1018 C1016 1.375 1_655 S
C1018 C1019 1.367 1_655 S
C1019 C1018 1.367 1_455 S
C1019 C1021 1.433 . S
C1020 C1016 1.368 . S
C1020 C1017 1.463 . S
C1020 N1024 1.427 . S
C1021 H1011 0.929 . S
C1021 C1019 1.433 . S
C1021 N1024 1.384 . S
C1022 H1013 0.929 . S
C1022 C1014 1.378 . S
C1022 C1017 1.350 . S
C1023 H1010 0.929 . S
C1023 C1015 1.433 . S
C1023 N1025 1.384 . S
N1024 C1020 1.427 . S
N1024 C1021 1.384 . S
N1025 C1017 1.427 . S
N1025 C1023 1.384 . S
H1026 C1032 0.930 . S
H1027 C1036 0.930 . S
H1028 C1041 0.929 . S
H1029 C1039 0.929 . S
H1030 C1034 0.929 . S
H1031 C1040 0.929 . S
C1032 H1026 0.930 . S
C1032 C1033 1.367 . S
C1032 C1040 1.378 . S
C1033 C1032 1.367 . S
C1033 C1041 1.433 . S
C1034 H1030 0.929 . S
C1034 C1036 1.378 . S
C1034 C1038 1.350 . S
C1035 C1038 1.463 . S
C1035 C1040 1.350 . S
C1035 N1043 1.427 . S
C1036 H1027 0.930 . S
C1036 C1034 1.378 . S
C1036 C1037 1.367 . S
C1037 C1036 1.367 . S
C1037 C1039 1.433 . S
C1038 C1034 1.350 . S
C1038 C1035 1.463 . S
C1038 N1042 1.427 . S
C1039 H1029 0.929 . S
C1039 C1037 1.433 . S
C1039 N1042 1.384 . S
C1040 H1031 0.929 . S
C1040 C1032 1.378 . S
C1040 C1035 1.350 . S
C1041 H1028 0.929 . S
C1041 C1033 1.433 . S
C1041 N1043 1.384 . S
N1042 C1038 1.427 . S
N1042 C1039 1.384 . S
N1043 C1035 1.427 . S
N1043 C1041 1.384 . S
H1044 C1050 0.930 . S
H1045 C1054 0.930 . S
H1046 C1059 0.929 . S
H1047 C1057 0.929 . S
H1048 C1052 0.929 . S
H1049 C1058 0.929 . S
C1050 H1044 0.930 . S
C1050 C1051 1.367 . S
C1050 C1058 1.378 . S
C1051 C1050 1.367 . S
C1051 C1059 1.433 . S
C1052 H1048 0.929 . S
C1052 C1054 1.378 . S
C1052 C1056 1.350 . S
C1053 C1056 1.463 . S
C1053 C1058 1.350 . S
C1053 N1061 1.427 . S
C1054 H1045 0.930 . S
C1054 C1052 1.378 . S
C1054 C1055 1.367 . S
C1055 C1054 1.367 . S
C1055 C1057 1.433 . S
C1056 C1052 1.350 . S
C1056 C1053 1.463 . S
C1056 N1060 1.427 . S
C1057 H1047 0.929 . S
C1057 C1055 1.433 . S
C1057 N1060 1.384 . S
C1058 H1049 0.929 . S
C1058 C1050 1.378 . S
C1058 C1053 1.350 . S
C1059 H1046 0.929 . S
C1059 C1051 1.433 . S
C1059 N1061 1.384 . S
N1060 C1056 1.427 . S
N1060 C1057 1.384 . S
N1061 C1053 1.427 . S
N1061 C1059 1.384 . S
H1062 C1068 0.930 . S
H1063 C1072 0.930 . S
H1064 C1077 0.929 . S
H1065 C1075 0.929 . S
H1066 C1070 0.929 . S
H1067 C1076 0.929 . S
C1068 H1062 0.930 . S
C1068 C1069 1.367 . S
C1068 C1076 1.378 . S
C1069 C1068 1.367 . S
C1069 C1077 1.433 . S
C1070 H1066 0.929 . S
C1070 C1072 1.378 . S
C1070 C1074 1.350 . S
C1071 C1074 1.463 . S
C1071 C1076 1.350 . S
C1071 N1079 1.427 . S
C1072 H1063 0.930 . S
C1072 C1070 1.378 . S
C1072 C1073 1.367 . S
C1073 C1072 1.367 . S
C1073 C1075 1.433 . S
C1074 C1070 1.350 . S
C1074 C1071 1.463 . S
C1074 N1078 1.427 . S
C1075 H1065 0.929 . S
C1075 C1073 1.433 . S
C1075 N1078 1.384 . S
C1076 H1067 0.929 . S
C1076 C1068 1.378 . S
C1076 C1071 1.350 . S
C1077 H1064 0.929 . S
C1077 C1069 1.433 . S
C1077 N1079 1.384 . S
N1078 C1074 1.427 . S
N1078 C1075 1.384 . S
N1079 C1071 1.427 . S
N1079 C1077 1.384 . S
H1080 C1086 0.930 . S
H1081 C1090 0.930 . S
H1082 C1095 0.929 . S
H1083 C1093 0.929 . S
H1084 C1088 0.929 . S
H1085 C1094 0.929 . S
C1086 H1080 0.930 . S
C1086 C1087 1.367 . S
C1086 C1094 1.378 . S
C1087 C1086 1.367 . S
C1087 C1095 1.433 . S
C1088 H1084 0.929 . S
C1088 C1090 1.378 . S
C1088 C1092 1.350 1_565 S
C1089 C1092 1.463 . S
C1089 C1094 1.350 . S
C1089 N1097 1.427 . S
C1090 H1081 0.930 . S
C1090 C1088 1.378 . S
C1090 C1091 1.367 1_565 S
C1091 C1090 1.367 1_545 S
C1091 C1093 1.433 . S
C1092 C1088 1.350 1_545 S
C1092 C1089 1.463 . S
C1092 N1096 1.427 . S
C1093 H1083 0.929 . S
C1093 C1091 1.433 . S
C1093 N1096 1.384 . S
C1094 H1085 0.929 . S
C1094 C1086 1.378 . S
C1094 C1089 1.350 . S
C1095 H1082 0.929 . S
C1095 C1087 1.433 . S
C1095 N1097 1.384 . S
N1096 C1092 1.427 . S
N1096 C1093 1.384 . S
N1097 C1089 1.427 . S
N1097 C1095 1.384 . S
H1098 C1104 0.930 . S
H1099 C1108 0.930 . S
H1100 C1113 0.929 . S
H1101 C1111 0.929 . S
H1102 C1106 0.929 . S
H1103 C1112 0.929 . S
C1104 H1098 0.930 . S
C1104 C1105 1.367 . S
C1104 C1112 1.378 . S
C1105 C1104 1.367 . S
C1105 C1113 1.433 . S
C1106 H1102 0.929 . S
C1106 C1108 1.378 . S
C1106 C1110 1.350 . S
C1107 C1110 1.463 . S
C1107 C1112 1.350 . S
C1107 N1115 1.427 . S
C1108 H1099 0.930 . S
C1108 C1106 1.378 . S
C1108 C1109 1.367 . S
C1109 C1108 1.367 . S
C1109 C1111 1.433 . S
C1110 C1106 1.350 . S
C1110 C1107 1.463 . S
C1110 N1114 1.427 . S
C1111 H1101 0.929 . S
C1111 C1109 1.433 . S
C1111 N1114 1.384 . S
C1112 H1103 0.929 . S
C1112 C1104 1.378 . S
C1112 C1107 1.350 . S
C1113 H1100 0.929 . S
C1113 C1105 1.433 . S
C1113 N1115 1.384 . S
N1114 C1110 1.427 . S
N1114 C1111 1.384 . S
N1115 C1107 1.427 . S
N1115 C1113 1.384 . S
H1116 C1122 0.930 . S
H1117 C1126 0.930 . S
H1118 C1131 0.929 . S
H1119 C1129 0.929 . S
H1120 C1124 0.929 . S
H1121 C1130 0.929 . S
C1122 H1116 0.930 . S
C1122 C1123 1.367 . S
C1122 C1130 1.378 . S
C1123 C1122 1.367 . S
C1123 C1131 1.433 . S
C1124 H1120 0.929 . S
C1124 C1126 1.378 . S
C1124 C1128 1.350 . S
C1125 C1128 1.463 . S
C1125 C1130 1.350 . S
C1125 N1133 1.427 . S
C1126 H1117 0.930 . S
C1126 C1124 1.378 . S
C1126 C1127 1.367 . S
C1127 C1126 1.367 . S
C1127 C1129 1.433 . S
C1128 C1124 1.350 . S
C1128 C1125 1.463 . S
C1128 N1132 1.427 . S
C1129 H1119 0.929 . S
C1129 C1127 1.433 . S
C1129 N1132 1.384 . S
C1130 H1121 0.929 . S
C1130 C1122 1.378 . S
C1130 C1125 1.350 . S
C1131 H1118 0.929 . S
C1131 C1123 1.433 . S
C1131 N1133 1.384 . S
N1132 C1128 1.427 . S
N1132 C1129 1.384 . S
N1133 C1125 1.427 . S
N1133 C1131 1.384 . S
H1134 C1140 0.930 . S
H1135 C1144 0.930 . S
H1136 C1149 0.929 . S
H1137 C1147 0.929 . S
H1138 C1142 0.929 . S
H1139 C1148 0.929 . S
C1140 H1134 0.930 . S
C1140 C1141 1.367 . S
C1140 C1148 1.378 . S
C1141 C1140 1.367 . S
C1141 C1149 1.433 . S
C1142 H1138 0.929 . S
C1142 C1144 1.378 . S
C1142 C1146 1.350 . S
C1143 C1146 1.463 . S
C1143 C1148 1.350 . S
C1143 N1151 1.427 . S
C1144 H1135 0.930 . S
C1144 C1142 1.378 . S
C1144 C1145 1.367 . S
C1145 C1144 1.367 . S
C1145 C1147 1.433 . S
C1146 C1142 1.350 . S
C1146 C1143 1.463 . S
C1146 N1150 1.427 . S
C1147 H1137 0.929 . S
C1147 C1145 1.433 . S
C1147 N1150 1.384 . S
C1148 H1139 0.929 . S
C1148 C1140 1.378 . S
C1148 C1143 1.350 . S
C1149 H1136 0.929 . S
C1149 C1141 1.433 . S
C1149 N1151 1.384 . S
N1150 C1146 1.427 . S
N1150 C1147 1.384 . S
N1151 C1143 1.427 . S
N1151 C1149 1.384 . S
H1152 C1158 0.930 . S
H1153 C1162 0.930 . S
H1154 C1167 0.929 . S
H1155 C1165 0.929 . S
H1156 C1160 0.929 . S
H1157 C1166 0.929 . S
C1158 H1152 0.930 . S
C1158 C1159 1.367 . S
C1158 C1166 1.378 . S
C1159 C1158 1.367 . S
C1159 C1167 1.433 . S
C1160 H1156 0.929 . S
C1160 C1162 1.378 . S
C1160 C1164 1.350 . S
C1161 C1164 1.463 . S
C1161 C1166 1.350 . S
C1161 N1169 1.427 . S
C1162 H1153 0.930 . S
C1162 C1160 1.378 . S
C1162 C1163 1.367 . S
C1163 C1162 1.367 . S
C1163 C1165 1.433 . S
C1164 C1160 1.350 . S
C1164 C1161 1.463 . S
C1164 N1168 1.427 . S
C1165 H1155 0.929 . S
C1165 C1163 1.433 . S
C1165 N1168 1.384 . S
C1166 H1157 0.929 . S
C1166 C1158 1.378 . S
C1166 C1161 1.350 . S
C1167 H1154 0.929 . S
C1167 C1159 1.433 . S
C1167 N1169 1.384 . S
N1168 C1164 1.427 . S
N1168 C1165 1.384 . S
N1169 C1161 1.427 . S
N1169 C1167 1.384 . S
H1170 C1176 0.930 . S
H1171 C1180 0.930 . S
H1172 C1185 0.929 . S
H1173 C1183 0.929 . S
H1174 C1178 0.929 . S
H1175 C1184 0.929 . S
C1176 H1170 0.930 . S
C1176 C1177 1.367 . S
C1176 C1184 1.378 . S
C1177 C1176 1.367 . S
C1177 C1185 1.433 . S
C1178 H1174 0.929 . S
C1178 C1180 1.378 . S
C1178 C1182 1.350 . S
C1179 C1182 1.463 . S
C1179 C1184 1.350 . S
C1179 N1187 1.427 . S
C1180 H1171 0.930 . S
C1180 C1178 1.378 . S
C1180 C1181 1.367 . S
C1181 C1180 1.367 . S
C1181 C1183 1.433 . S
C1182 C1178 1.350 . S
C1182 C1179 1.463 . S
C1182 N1186 1.427 . S
C1183 H1173 0.929 . S
C1183 C1181 1.433 . S
C1183 N1186 1.384 . S
C1184 H1175 0.929 . S
C1184 C1176 1.378 . S
C1184 C1179 1.350 . S
C1185 H1172 0.929 . S
C1185 C1177 1.433 . S
C1185 N1187 1.384 . S
N1186 C1182 1.427 . S
N1186 C1183 1.384 . S
N1187 C1179 1.427 . S
N1187 C1185 1.384 . S
H1188 C1194 0.930 . S
H1189 C1198 0.930 . S
H1190 C1203 0.929 . S
H1191 C1201 0.929 . S
H1192 C1196 0.929 . S
H1193 C1202 0.929 . S
C1194 H1188 0.930 . S
C1194 C1195 1.367 . S
C1194 C1202 1.378 . S
C1195 C1194 1.367 . S
C1195 C1203 1.433 . S
C1196 H1192 0.929 . S
C1196 C1198 1.378 . S
C1196 C1200 1.350 . S
C1197 C1200 1.463 . S
C1197 C1202 1.350 . S
C1197 N1205 1.427 . S
C1198 H1189 0.930 . S
C1198 C1196 1.378 . S
C1198 C1199 1.367 . S
C1199 C1198 1.367 . S
C1199 C1201 1.433 . S
C1200 C1196 1.350 . S
C1200 C1197 1.463 . S
C1200 N1204 1.427 . S
C1201 H1191 0.929 . S
C1201 C1199 1.433 . S
C1201 N1204 1.384 . S
C1202 H1193 0.929 . S
C1202 C1194 1.378 . S
C1202 C1197 1.350 . S
C1203 H1190 0.929 . S
C1203 C1195 1.433 . S
C1203 N1205 1.384 . S
N1204 C1200 1.427 . S
N1204 C1201 1.384 . S
N1205 C1197 1.427 . S
N1205 C1203 1.384 . S
H1206 C1212 0.930 . S
H1207 C1216 0.930 . S
H1208 C1221 0.929 . S
H1209 C1219 0.929 . S
H1210 C1214 0.929 . S
H1211 C1220 0.929 . S
C1212 H1206 0.930 . S
C1212 C1213 1.367 . S
C1212 C1220 1.378 . S
C1213 C1212 1.367 . S
C1213 C1221 1.433 . S
C1214 H1210 0.929 . S
C1214 C1216 1.378 . S
C1214 C1218 1.350 . S
C1215 C1218 1.463 . S
C1215 C1220 1.350 . S
C1215 N1223 1.427 . S
C1216 H1207 0.930 . S
C1216 C1214 1.378 . S
C1216 C1217 1.367 . S
C1217 C1216 1.367 . S
C1217 C1219 1.433 . S
C1218 C1214 1.350 . S
C1218 C1215 1.463 . S
C1218 N1222 1.427 . S
C1219 H1209 0.929 . S
C1219 C1217 1.433 . S
C1219 N1222 1.384 . S
C1220 H1211 0.929 . S
C1220 C1212 1.378 . S
C1220 C1215 1.350 . S
C1221 H1208 0.929 . S
C1221 C1213 1.433 . S
C1221 N1223 1.384 . S
N1222 C1218 1.427 . S
N1222 C1219 1.384 . S
N1223 C1215 1.427 . S
N1223 C1221 1.384 . S
H1224 C1230 0.930 . S
H1225 C1234 0.930 . S
H1226 C1239 0.929 . S
H1227 C1237 0.929 . S
H1228 C1232 0.929 . S
H1229 C1238 0.929 . S
C1230 H1224 0.930 . S
C1230 C1231 1.367 . S
C1230 C1238 1.378 . S
C1231 C1230 1.367 . S
C1231 C1239 1.433 . S
C1232 H1228 0.929 . S
C1232 C1234 1.378 . S
C1232 C1236 1.350 . S
C1233 C1236 1.463 . S
C1233 C1238 1.350 . S
C1233 N1241 1.427 . S
C1234 H1225 0.930 . S
C1234 C1232 1.378 . S
C1234 C1235 1.367 . S
C1235 C1234 1.367 . S
C1235 C1237 1.433 . S
C1236 C1232 1.350 . S
C1236 C1233 1.463 . S
C1236 N1240 1.427 . S
C1237 H1227 0.929 . S
C1237 C1235 1.433 . S
C1237 N1240 1.384 . S
C1238 H1229 0.929 . S
C1238 C1230 1.378 . S
C1238 C1233 1.350 . S
C1239 H1226 0.929 . S
C1239 C1231 1.433 . S
C1239 N1241 1.384 . S
N1240 C1236 1.427 . S
N1240 C1237 1.384 . S
N1241 C1233 1.427 . S
N1241 C1239 1.384 . S
H1242 C1248 0.930 . S
H1243 C1252 0.930 . S
H1244 C1257 0.929 . S
H1245 C1255 0.929 . S
H1246 C1250 0.929 . S
H1247 C1256 0.929 . S
C1248 H1242 0.930 . S
C1248 C1249 1.367 . S
C1248 C1256 1.378 . S
C1249 C1248 1.367 . S
C1249 C1257 1.433 . S
C1250 H1246 0.929 . S
C1250 C1252 1.378 . S
C1250 C1254 1.350 . S
C1251 C1254 1.463 . S
C1251 C1256 1.350 . S
C1251 N1259 1.427 . S
C1252 H1243 0.930 . S
C1252 C1250 1.378 . S
C1252 C1253 1.367 . S
C1253 C1252 1.367 . S
C1253 C1255 1.433 . S
C1254 C1250 1.350 . S
C1254 C1251 1.463 . S
C1254 N1258 1.427 . S
C1255 H1245 0.929 . S
C1255 C1253 1.433 . S
C1255 N1258 1.384 . S
C1256 H1247 0.929 . S
C1256 C1248 1.378 . S
C1256 C1251 1.350 . S
C1257 H1244 0.929 . S
C1257 C1249 1.433 . S
C1257 N1259 1.384 . S
N1258 C1254 1.427 . S
N1258 C1255 1.384 . S
N1259 C1251 1.427 . S
N1259 C1257 1.384 . S
H1260 C1266 0.930 . S
H1261 C1270 0.930 . S
H1262 C1275 0.929 . S
H1263 C1273 0.929 . S
H1264 C1268 0.929 . S
H1265 C1274 0.929 . S
C1266 H1260 0.930 . S
C1266 C1267 1.367 . S
C1266 C1274 1.378 . S
C1267 C1266 1.367 . S
C1267 C1275 1.433 . S
C1268 H1264 0.929 . S
C1268 C1270 1.378 . S
C1268 C1272 1.350 . S
C1269 C1272 1.463 . S
C1269 C1274 1.350 . S
C1269 N1277 1.427 . S
C1270 H1261 0.930 . S
C1270 C1268 1.378 . S
C1270 C1271 1.367 . S
C1271 C1270 1.367 . S
C1271 C1273 1.433 . S
C1272 C1268 1.350 . S
C1272 C1269 1.463 . S
C1272 N1276 1.427 . S
C1273 H1263 0.929 . S
C1273 C1271 1.433 . S
C1273 N1276 1.384 . S
C1274 H1265 0.929 . S
C1274 C1266 1.378 . S
C1274 C1269 1.350 . S
C1275 H1262 0.929 . S
C1275 C1267 1.433 . S
C1275 N1277 1.384 . S
N1276 C1272 1.427 . S
N1276 C1273 1.384 . S
N1277 C1269 1.427 . S
N1277 C1275 1.384 . S
H1278 C1284 0.930 . S
H1279 C1288 0.930 . S
H1280 C1293 0.929 . S
H1281 C1291 0.929 . S
H1282 C1286 0.929 . S
H1283 C1292 0.929 . S
C1284 H1278 0.930 . S
C1284 C1285 1.367 . S
C1284 C1292 1.378 . S
C1285 C1284 1.367 . S
C1285 C1293 1.433 . S
C1286 H1282 0.929 . S
C1286 C1288 1.378 . S
C1286 C1290 1.350 . S
C1287 C1290 1.463 . S
C1287 C1292 1.350 . S
C1287 N1295 1.427 . S
C1288 H1279 0.930 . S
C1288 C1286 1.378 . S
C1288 C1289 1.367 . S
C1289 C1288 1.367 . S
C1289 C1291 1.433 . S
C1290 C1286 1.350 . S
C1290 C1287 1.463 . S
C1290 N1294 1.427 . S
C1291 H1281 0.929 . S
C1291 C1289 1.433 . S
C1291 N1294 1.384 . S
C1292 H1283 0.929 . S
C1292 C1284 1.378 . S
C1292 C1287 1.350 . S
C1293 H1280 0.929 . S
C1293 C1285 1.433 . S
C1293 N1295 1.384 . S
N1294 C1290 1.427 . S
N1294 C1291 1.384 . S
N1295 C1287 1.427 . S
N1295 C1293 1.384 . S
H1296 C1302 0.930 . S
H1297 C1306 0.930 . S
H1298 C1311 0.929 . S
H1299 C1309 0.929 . S
H1300 C1304 0.929 . S
H1301 C1310 0.929 . S
C1302 H1296 0.930 . S
C1302 C1303 1.367 . S
C1302 C1310 1.378 . S
C1303 C1302 1.367 . S
C1303 C1311 1.433 . S
C1304 H1300 0.929 . S
C1304 C1306 1.378 . S
C1304 C1308 1.350 . S
C1305 C1308 1.463 . S
C1305 C1310 1.350 . S
C1305 N1313 1.427 . S
C1306 H1297 0.930 . S
C1306 C1304 1.378 . S
C1306 C1307 1.367 . S
C1307 C1306 1.367 . S
C1307 C1309 1.433 . S
C1308 C1304 1.350 . S
C1308 C1305 1.463 . S
C1308 N1312 1.427 . S
C1309 H1299 0.929 . S
C1309 C1307 1.433 . S
C1309 N1312 1.384 . S
C1310 H1301 0.929 . S
C1310 C1302 1.378 . S
C1310 C1305 1.350 . S
C1311 H1298 0.929 . S
C1311 C1303 1.433 . S
C1311 N1313 1.384 . S
N1312 C1308 1.427 . S
N1312 C1309 1.384 . S
N1313 C1305 1.427 . S
N1313 C1311 1.384 . S
C349 C124 1.519 . S
C353 C168 1.504 . S
C367 C130 1.495 . S
C371 C188 1.472 . S
C385 C115 1.504 . S
C389 C211 1.502 . S
C403 C106 1.441 . S
C407 C191 1.437 . S
C425 C208 1.438 . S
C421 C85 1.450 . S
C439 C97 1.455 . S
C443 C171 1.450 . S
C461 C178 1.514 . S
C457 C103 1.532 . S
C479 C198 1.455 . S
C475 C88 1.478 . S
C493 C94 1.500 . S
C497 C203 1.496 . S
C511 C121 1.444 . S
C515 C183 1.441 . S
C529 C133 1.430 . S
C533 C218 1.412 . S
C551 C163 1.466 . S
C547 C112 1.470 . S
C569 C228 1.494 . S
C565 C16 1.517 . S
C583 C22 1.491 . S
C587 C248 1.462 . S
C601 C7 1.504 . S
C605 C271 1.501 . S
C619 C160 1.441 . S
C623 C251 1.437 . S
C637 C139 1.446 . S
C641 C268 1.433 . S
C655 C151 1.454 . S
C659 C231 1.450 . S
C673 C157 1.537 . S
C677 C238 1.521 . S
C691 C142 1.478 . S
C695 C258 1.457 . S
C713 C263 1.500 . S
C709 C148 1.504 . S
C727 C13 1.445 . S
C731 C243 1.442 . S
C749 C278 1.422 . S
C745 C25 1.433 . S
C763 C4 1.473 . S
C767 C223 1.469 . S
C785 C288 1.504 . S
C781 C70 1.520 . S
C799 C76 1.495 . S
C803 C308 1.470 . S
C821 C331 1.495 . S
C817 C61 1.498 . S
C839 C311 1.443 . S
C835 C52 1.446 . S
C857 C328 1.436 . S
C853 C31 1.451 . S
C871 C43 1.452 . S
C875 C291 1.447 . S
C889 C49 1.537 . S
C893 C298 1.516 . S
C907 C34 1.474 . S
C911 C318 1.447 . S
C929 C323 1.497 . S
C925 C40 1.501 . S
C943 C67 1.443 . S
C947 C303 1.439 . S
C961 C79 1.434 . S
C965 C338 1.420 . S
C979 C58 1.473 . S
C983 C283 1.468 . S
C997 C140 1.316 . S
C1001 C181 1.281 1_565 S
C1019 C201 1.536 . S
C1015 C149 1.593 . S
C1033 C158 1.486 . S
C1037 C210 1.444 . S
C1051 C59 1.614 . S
C1055 C190 1.565 . S
C1069 C68 1.461 . S
C1073 C221 1.422 . S
C1091 C170 1.279 1_545 S
C1087 C77 1.312 . S
C1105 C32 1.317 . S
C1109 C241 1.294 . S
C1123 C41 1.597 . S
C1127 C261 1.549 . S
C1141 C50 1.486 . S
C1145 C270 1.444 . S
C1159 C113 1.614 . S
C1163 C250 1.567 . S
C1181 C281 1.419 . S
C1177 C122 1.461 . S
C1195 C131 1.312 . S
C1199 C230 1.283 . S
C1213 C86 1.315 . S
C1217 C301 1.293 . S
C1231 C95 1.593 . S
C1235 C321 1.538 . S
C1253 C330 1.445 . S
C1249 C104 1.487 . S
C1267 C5 1.616 . S
C1271 C310 1.558 . S
C1285 C14 1.462 . S
C1289 C341 1.424 . S
C1303 C23 1.316 . S
C1307 C290 1.287 . S
