# Generated by pormake.
# Topology ssa, (4,4)-cn, num edge types: 1
# Building blocks:
#     Node 0, Type 0, BuildingBlock: ESEHIV_clean_sbu_0, # of connection points: 4
#     Node 1, Type 0, BuildingBlock: ESEHIV_clean_sbu_0, # of connection points: 4
#     Node 2, Type 0, BuildingBlock: ESEHIV_clean_sbu_0, # of connection points: 4
#     Node 3, Type 0, BuildingBlock: ESEHIV_clean_sbu_0, # of connection points: 4
#     Node 4, Type 0, BuildingBlock: ESEHIV_clean_sbu_0, # of connection points: 4
#     Node 5, Type 0, BuildingBlock: ESEHIV_clean_sbu_0, # of connection points: 4
#     Node 6, Type 1, BuildingBlock: NAWXER_clean_linker_0, # of connection points: 4
#     Node 7, Type 1, BuildingBlock: NAWXER_clean_linker_0, # of connection points: 4
#     Node 8, Type 1, BuildingBlock: NAWXER_clean_linker_0, # of connection points: 4
#     Node 9, Type 1, BuildingBlock: NAWXER_clean_linker_0, # of connection points: 4
#     Node 10, Type 1, BuildingBlock: NAWXER_clean_linker_0, # of connection points: 4
#     Node 11, Type 1, BuildingBlock: NAWXER_clean_linker_0, # of connection points: 4
#     Edge 12, Type (0, 1), BuildingBlock: UVAHIK_clean_linker_0, # of connection points: 2
#     Edge 13, Type (0, 1), BuildingBlock: UVAHIK_clean_linker_0, # of connection points: 2
#     Edge 14, Type (0, 1), BuildingBlock: UVAHIK_clean_linker_0, # of connection points: 2
#     Edge 15, Type (0, 1), BuildingBlock: UVAHIK_clean_linker_0, # of connection points: 2
#     Edge 16, Type (0, 1), BuildingBlock: UVAHIK_clean_linker_0, # of connection points: 2
#     Edge 17, Type (0, 1), BuildingBlock: UVAHIK_clean_linker_0, # of connection points: 2
#     Edge 18, Type (0, 1), BuildingBlock: UVAHIK_clean_linker_0, # of connection points: 2
#     Edge 19, Type (0, 1), BuildingBlock: UVAHIK_clean_linker_0, # of connection points: 2
#     Edge 20, Type (0, 1), BuildingBlock: UVAHIK_clean_linker_0, # of connection points: 2
#     Edge 21, Type (0, 1), BuildingBlock: UVAHIK_clean_linker_0, # of connection points: 2
#     Edge 22, Type (0, 1), BuildingBlock: UVAHIK_clean_linker_0, # of connection points: 2
#     Edge 23, Type (0, 1), BuildingBlock: UVAHIK_clean_linker_0, # of connection points: 2
#     Edge 24, Type (0, 1), BuildingBlock: UVAHIK_clean_linker_0, # of connection points: 2
#     Edge 25, Type (0, 1), BuildingBlock: UVAHIK_clean_linker_0, # of connection points: 2
#     Edge 26, Type (0, 1), BuildingBlock: UVAHIK_clean_linker_0, # of connection points: 2
#     Edge 27, Type (0, 1), BuildingBlock: UVAHIK_clean_linker_0, # of connection points: 2
#     Edge 28, Type (0, 1), BuildingBlock: UVAHIK_clean_linker_0, # of connection points: 2
#     Edge 29, Type (0, 1), BuildingBlock: UVAHIK_clean_linker_0, # of connection points: 2
#     Edge 30, Type (0, 1), BuildingBlock: UVAHIK_clean_linker_0, # of connection points: 2
#     Edge 31, Type (0, 1), BuildingBlock: UVAHIK_clean_linker_0, # of connection points: 2
#     Edge 32, Type (0, 1), BuildingBlock: UVAHIK_clean_linker_0, # of connection points: 2
#     Edge 33, Type (0, 1), BuildingBlock: UVAHIK_clean_linker_0, # of connection points: 2
#     Edge 34, Type (0, 1), BuildingBlock: UVAHIK_clean_linker_0, # of connection points: 2
#     Edge 35, Type (0, 1), BuildingBlock: UVAHIK_clean_linker_0, # of connection points: 2
# Relax obj value: 0.008
# Max RMSD: 0.106
# Mean RMSD: 0.056
data_MOF--net-ssa--node1-ESEHIV_clean_sbu_0--node2-NAWXER_clean_linker_0--edge1-UVAHIK_clean_linker_0
_symmetry_space_group_name_H-M    P1
_symmetry_Int_Tables_number       1
_symmetry_cell_setting            triclinic
loop_
_symmetry_equiv_pos_as_xyz
'x, y, z'
_cell_length_a     72.468651
_cell_length_b     76.125862
_cell_length_c     52.141293
_cell_angle_alpha  88.73851
_cell_angle_beta   90.723052
_cell_angle_gamma 121.65683
loop_
_atom_site_label
_atom_site_type_symbol
_atom_site_fract_x
_atom_site_fract_y
_atom_site_fract_z
_atom_type_partial_charge
Cu0 Cu 0.0206 0.53107 0.98604 0.0
N1 N 0.02175 0.51948 0.9555 0.0
N2 N 0.0114 0.4947 0.92673 0.0
C3 C 0.00688 0.50002 0.94923 0.0
C4 C 0.02987 0.51166 0.91838 0.0
C5 C 0.03629 0.52696 0.93628 0.0
O6 O 0.99338 0.53061 0.98496 0.0
C7 C 0.0386 0.51203 0.01204 0.0
O8 O 0.05109 0.51953 0.99169 0.0
H9 H 0.99291 0.49003 0.96106 0.0
H10 H 0.05067 0.54225 0.93551 0.0
N11 N 0.04416 0.55795 0.99016 0.0
N12 N 0.06986 0.58545 0.0109 0.0
C13 C 0.05387 0.56547 0.01285 0.0
C14 C 0.05458 0.57372 0.97314 0.0
C15 C 0.07035 0.59082 0.98599 0.0
C16 C 0.99206 0.54215 0.96787 0.0
O17 O 0.00903 0.55399 0.95344 0.0
H18 H 0.04893 0.55657 0.03063 0.0
H19 H 0.05093 0.57296 0.95289 0.0
O20 O 0.0228 0.51481 0.01402 0.0
H21 H 0.03838 0.51281 0.90091 0.0
H22 H 0.08136 0.60596 0.97772 0.0
Cu23 Cu 0.53388 0.02385 0.50132 0.0
N24 N 0.54826 0.02139 0.47333 0.0
N25 N 0.55822 0.00612 0.44525 0.0
C26 C 0.54684 0.00373 0.46671 0.0
C27 C 0.5672 0.02612 0.4381 0.0
C28 C 0.56111 0.03554 0.45554 0.0
O29 O 0.50417 1.00089 0.49964 0.0
C30 C 0.56892 0.03554 0.53331 0.0
O31 O 0.57906 0.04513 0.51204 0.0
H32 H 0.53725 0.98928 0.47719 0.0
H33 H 0.56586 0.05157 0.45529 0.0
N34 N 0.53357 0.04826 0.50067 0.0
N35 N 0.52888 0.07296 0.51573 0.0
C36 C 0.52956 0.05591 0.52143 0.0
C37 C 0.53548 0.06084 0.48099 0.0
C38 C 0.53263 0.07611 0.49023 0.0
C39 C 0.49384 1.00087 0.47971 0.0
O40 O 0.50376 0.01616 0.46298 0.0
H41 H 0.52645 0.04858 0.54021 0.0
H42 H 0.53812 0.05877 0.46122 0.0
O43 O 0.54834 0.02407 0.53297 0.0
H44 H 0.57762 0.03346 0.42164 0.0
H45 H 0.53313 0.08845 0.47894 0.0
Cu46 Cu 0.50612 0.49275 0.03979 0.0
N47 N 0.50327 0.46689 0.03873 0.0
N48 N 0.49822 0.43811 0.02111 0.0
C49 C 0.49761 0.45543 0.0175 0.0
C50 C 0.50429 0.43867 0.04586 0.0
C51 C 0.5074 0.45644 0.05666 0.0
O52 O 0.51681 0.50572 0.00647 0.0
C53 C 0.47195 0.48215 0.07123 0.0
O54 O 0.48386 0.4776 0.08578 0.0
H55 H 0.49336 0.45998 0.99967 0.0
H56 H 0.5127 0.46155 0.07603 0.0
N57 N 0.52592 0.51016 0.0643 0.0
N58 N 0.54235 0.53723 0.09021 0.0
C59 C 0.52675 0.52719 0.07243 0.0
C60 C 0.54161 0.50931 0.07729 0.0
C61 C 0.55173 0.52599 0.09344 0.0
C62 C 0.53382 0.50615 0.99962 0.0
O63 O 0.5425 0.49873 0.01531 0.0
H64 H 0.51577 0.53188 0.06564 0.0
H65 H 0.54549 0.49751 0.07511 0.0
O66 O 0.47836 0.48896 0.04853 0.0
H67 H 0.50694 0.42739 0.05536 0.0
H68 H 0.56511 0.52969 0.10625 0.0
Cu69 Cu 0.98395 0.49297 0.50295 0.0
N70 N 0.9765 0.47572 0.47507 0.0
N71 N 0.98222 0.46295 0.44005 0.0
C72 C 0.98992 0.47933 0.45546 0.0
C73 C 0.96303 0.4484 0.45034 0.0
C74 C 0.95948 0.4564 0.47197 0.0
O75 O 0.01364 0.51531 0.49705 0.0
C76 C 0.98232 0.46209 0.53655 0.0
O77 O 0.99192 0.45863 0.51784 0.0
H78 H 0.00586 0.49314 0.4537 0.0
H79 H 0.94616 0.44832 0.48532 0.0
N80 N 0.96616 0.5037 0.50414 0.0
N81 N 0.94614 0.51503 0.52071 0.0
C82 C 0.95849 0.5069 0.5257 0.0
C83 C 0.95847 0.50995 0.48471 0.0
C84 C 0.946 0.51692 0.49489 0.0
C85 C 0.02187 0.53364 0.50497 0.0
O86 O 0.01107 0.53771 0.52139 0.0
H87 H 0.96172 0.50306 0.54466 0.0
H88 H 0.96174 0.50951 0.46463 0.0
O89 O 0.97916 0.47699 0.53436 0.0
H90 H 0.95281 0.43286 0.4434 0.0
H91 H 0.93773 0.52311 0.48416 0.0
Cu92 Cu 0.48992 0.97998 0.99623 0.0
N93 N 0.47293 0.98057 0.96932 0.0
N94 N 0.46191 0.9946 0.93952 0.0
C95 C 0.47622 0.99817 0.95847 0.0
C96 C 0.44897 0.97389 0.93841 0.0
C97 C 0.45588 0.96525 0.95676 0.0
O98 O 0.51842 0.00495 0.99173 0.0
C99 C 0.45655 0.96077 0.03036 0.0
O100 O 0.44903 0.94864 0.01051 0.0
H101 H 0.48875 0.01334 0.96468 0.0
H102 H 0.44883 0.94896 0.96062 0.0
N103 N 0.49343 0.95748 0.99457 0.0
N104 N 0.50246 0.93505 0.00825 0.0
C105 C 0.50386 0.95308 0.01261 0.0
C106 C 0.48531 0.9418 0.97799 0.0
C107 C 0.49073 0.92778 0.98656 0.0
C108 C 0.52743 0.00531 0.97071 0.0
O109 O 0.51739 0.98908 0.956 0.0
H110 H 0.51144 0.96245 0.0293 0.0
H111 H 0.47576 0.94037 0.96121 0.0
O112 O 0.47544 0.97695 0.02887 0.0
H113 H 0.43567 0.9656 0.92512 0.0
H114 H 0.48616 0.91328 0.9778 0.0
Cu115 Cu 0.50374 0.50048 0.4917 0.0
N116 N 0.52702 0.51393 0.46923 0.0
N117 N 0.54894 0.53789 0.4407 0.0
C118 C 0.52857 0.52659 0.44989 0.0
C119 C 0.56069 0.53208 0.4547 0.0
C120 C 0.54702 0.51711 0.47223 0.0
O121 O 0.48063 0.50387 0.47841 0.0
C122 C 0.53018 0.52888 0.53027 0.0
O123 O 0.53798 0.54272 0.51155 0.0
H124 H 0.51554 0.52891 0.44434 0.0
H125 H 0.55167 0.51028 0.48743 0.0
N126 N 0.49403 0.47258 0.49364 0.0
N127 N 0.48526 0.44232 0.5117 0.0
C128 C 0.49526 0.46288 0.5148 0.0
C129 C 0.483 0.45777 0.4763 0.0
C130 C 0.4776 0.43902 0.48739 0.0
C131 C 0.46112 0.49345 0.48624 0.0
O132 O 0.45625 0.48096 0.50621 0.0
H133 H 0.50316 0.47085 0.53225 0.0
H134 H 0.47866 0.46037 0.45729 0.0
O135 O 0.51395 0.51095 0.52592 0.0
H136 H 0.57806 0.53903 0.45337 0.0
H137 H 0.46813 0.4241 0.47854 0.0
C138 C 0.29835 0.48921 0.21984 0.0
C139 C 0.2942 0.47606 0.19919 0.0
C140 C 0.28123 0.48742 0.23414 0.0
C141 C 0.25971 0.47205 0.22849 0.0
C142 C 0.27266 0.46118 0.19303 0.0
C143 C 0.25559 0.4592 0.20754 0.0
C144 C 0.24124 0.46978 0.24324 0.0
C145 C 0.28326 0.46042 0.29982 0.0
C146 C 0.28976 0.47322 0.32128 0.0
C147 C 0.26702 0.45883 0.28338 0.0
C148 C 0.25752 0.47058 0.28759 0.0
C149 C 0.27974 0.48439 0.32597 0.0
C150 C 0.26385 0.48311 0.30929 0.0
C151 C 0.24034 0.4694 0.27044 0.0
C152 C 0.14791 0.44597 0.2879 0.0
C153 C 0.15071 0.46061 0.30595 0.0
C154 C 0.16586 0.44747 0.27602 0.0
C155 C 0.1869 0.46368 0.28195 0.0
C156 C 0.17185 0.47635 0.31256 0.0
C157 C 0.1898 0.47777 0.30078 0.0
C158 C 0.20583 0.46634 0.26798 0.0
C159 C 0.16865 0.48266 0.21355 0.0
C160 C 0.15888 0.46888 0.19319 0.0
C161 C 0.18433 0.48219 0.22893 0.0
C162 C 0.19046 0.46781 0.22449 0.0
C163 C 0.16535 0.45473 0.18851 0.0
C164 C 0.18107 0.45429 0.20392 0.0
C165 C 0.20695 0.46716 0.24096 0.0
H166 H 0.31481 0.50101 0.22473 0.0
H167 H 0.28482 0.49807 0.24956 0.0
H168 H 0.26902 0.45078 0.17729 0.0
H169 H 0.23912 0.44742 0.20258 0.0
H170 H 0.29048 0.45138 0.29601 0.0
H171 H 0.26188 0.44836 0.26748 0.0
H172 H 0.28447 0.4944 0.34234 0.0
H173 H 0.25663 0.49214 0.31323 0.0
H174 H 0.13182 0.43371 0.2824 0.0
H175 H 0.1633 0.43621 0.26184 0.0
H176 H 0.17448 0.48765 0.32671 0.0
H177 H 0.20592 0.49026 0.30578 0.0
H178 H 0.16448 0.49409 0.21735 0.0
H179 H 0.1918 0.49322 0.2442 0.0
H180 H 0.15807 0.4438 0.17312 0.0
H181 H 0.18565 0.44316 0.20003 0.0
N182 N 0.22447 0.46859 0.22965 0.0
N183 N 0.22262 0.46774 0.28166 0.0
C184 C 0.8546 0.29021 0.80293 0.0
C185 C 0.85151 0.30176 0.8211 0.0
C186 C 0.83685 0.27266 0.79249 0.0
C187 C 0.81564 0.2666 0.79958 0.0
C188 C 0.83034 0.29503 0.82925 0.0
C189 C 0.81253 0.27755 0.81859 0.0
C190 C 0.79677 0.24915 0.78674 0.0
C191 C 0.83106 0.30021 0.7292 0.0
C192 C 0.84047 0.29603 0.7086 0.0
C193 C 0.81613 0.28432 0.74538 0.0
C194 C 0.81065 0.26387 0.74189 0.0
C195 C 0.83434 0.27541 0.70457 0.0
C196 C 0.81956 0.25951 0.72101 0.0
C197 C 0.79544 0.24708 0.75976 0.0
C198 C 0.70802 0.17217 0.74034 0.0
C199 C 0.71366 0.16078 0.72485 0.0
C200 C 0.72398 0.18935 0.7536 0.0
C201 C 0.74586 0.19545 0.75159 0.0
C202 C 0.73562 0.16684 0.7233 0.0
C203 C 0.75154 0.18412 0.73631 0.0
C204 C 0.76308 0.21403 0.76453 0.0
C205 C 0.72416 0.16581 0.82473 0.0
C206 C 0.71322 0.17169 0.84132 0.0
C207 C 0.74079 0.18041 0.80881 0.0
C208 C 0.74674 0.20118 0.80895 0.0
C209 C 0.71979 0.19266 0.84207 0.0
C210 C 0.73644 0.20725 0.82613 0.0
C211 C 0.76363 0.21669 0.79134 0.0
H212 H 0.87075 0.29479 0.79671 0.0
H213 H 0.8397 0.26404 0.77849 0.0
H214 H 0.8275 0.30367 0.84324 0.0
H215 H 0.79633 0.27301 0.82454 0.0
H216 H 0.83544 0.31584 0.73315 0.0
H217 H 0.80899 0.28809 0.76079 0.0
H218 H 0.84085 0.27149 0.68862 0.0
H219 H 0.81532 0.24383 0.71764 0.0
H220 H 0.69135 0.16819 0.74169 0.0
H221 H 0.7193 0.19811 0.76502 0.0
H222 H 0.74058 0.15825 0.712 0.0
H223 H 0.76835 0.18858 0.73456 0.0
H224 H 0.71989 0.1499 0.82407 0.0
H225 H 0.74894 0.17544 0.7963 0.0
H226 H 0.71165 0.19773 0.85444 0.0
H227 H 0.74089 0.22323 0.82672 0.0
N228 N 0.78057 0.23412 0.80147 0.0
N229 N 0.77889 0.22938 0.74975 0.0
C230 C 0.58994 0.72879 0.23353 0.0
C231 C 0.57231 0.7163 0.21737 0.0
C232 C 0.59137 0.74567 0.24566 0.0
C233 C 0.57506 0.75023 0.24218 0.0
C234 C 0.55625 0.7212 0.21352 0.0
C235 C 0.55767 0.73803 0.22571 0.0
C236 C 0.57592 0.76765 0.25555 0.0
C237 C 0.56001 0.7181 0.31186 0.0
C238 C 0.57941 0.72091 0.32212 0.0
C239 C 0.5596 0.73453 0.30024 0.0
C240 C 0.57849 0.75414 0.29883 0.0
C241 C 0.59805 0.74091 0.32206 0.0
C242 C 0.59755 0.75747 0.31056 0.0
C243 C 0.57863 0.77014 0.2823 0.0
C244 C 0.5546 0.8335 0.30144 0.0
C245 C 0.57061 0.84611 0.31927 0.0
C246 C 0.55579 0.81813 0.28877 0.0
C247 C 0.57338 0.81546 0.29307 0.0
C248 C 0.58769 0.84285 0.32439 0.0
C249 C 0.58905 0.82766 0.31141 0.0
C250 C 0.57521 0.79963 0.27915 0.0
C251 C 0.57556 0.84346 0.2187 0.0
C252 C 0.55912 0.83373 0.2001 0.0
C253 C 0.58017 0.83175 0.23569 0.0
C254 C 0.56807 0.81009 0.23477 0.0
C255 C 0.54758 0.81208 0.19883 0.0
C256 C 0.55195 0.80044 0.21598 0.0
C257 C 0.57241 0.79705 0.25223 0.0
H258 H 0.60279 0.7257 0.23651 0.0
H259 H 0.60531 0.75524 0.25761 0.0
H260 H 0.54234 0.7118 0.20141 0.0
H261 H 0.54492 0.74129 0.22267 0.0
H262 H 0.54522 0.70304 0.31223 0.0
H263 H 0.5447 0.73175 0.2914 0.0
H264 H 0.61324 0.74358 0.32978 0.0
H265 H 0.6123 0.77254 0.3095 0.0
H266 H 0.54102 0.83538 0.29751 0.0
H267 H 0.54298 0.80837 0.27553 0.0
H268 H 0.60026 0.85234 0.33804 0.0
H269 H 0.60258 0.82569 0.31537 0.0
H270 H 0.58477 0.8601 0.22028 0.0
H271 H 0.59318 0.83964 0.24945 0.0
H272 H 0.53527 0.80402 0.18433 0.0
H273 H 0.5426 0.78378 0.21458 0.0
N274 N 0.57279 0.7811 0.24162 0.0
N275 N 0.57828 0.78604 0.29318 0.0
C276 C 0.82421 0.55155 0.72733 0.0
C277 C 0.81684 0.53674 0.70797 0.0
C278 C 0.80943 0.55225 0.74366 0.0
C279 C 0.78709 0.538 0.74105 0.0
C280 C 0.79452 0.52219 0.70594 0.0
C281 C 0.77982 0.52289 0.72221 0.0
C282 C 0.77093 0.5399 0.75576 0.0
C283 C 0.8066 0.52415 0.81434 0.0
C284 C 0.81786 0.53934 0.83291 0.0
C285 C 0.79174 0.52509 0.79784 0.0
C286 C 0.78788 0.5413 0.79947 0.0
C287 C 0.81378 0.55542 0.83465 0.0
C288 C 0.79883 0.55629 0.81825 0.0
C289 C 0.77165 0.54217 0.78269 0.0
C290 C 0.68346 0.52808 0.80223 0.0
C291 C 0.68778 0.54342 0.81999 0.0
C292 C 0.70035 0.52807 0.78981 0.0
C293 C 0.72196 0.54366 0.79437 0.0
C294 C 0.70948 0.55879 0.82501 0.0
C295 C 0.72645 0.55884 0.81237 0.0
C296 C 0.73971 0.54393 0.78034 0.0
C297 C 0.70221 0.55821 0.72358 0.0
C298 C 0.68992 0.54205 0.7065 0.0
C299 C 0.71847 0.55843 0.7386 0.0
C300 C 0.72276 0.54251 0.73682 0.0
C301 C 0.6946 0.52639 0.70435 0.0
C302 C 0.71098 0.52672 0.7192 0.0
C303 C 0.73931 0.5421 0.75342 0.0
H304 H 0.84129 0.5631 0.72919 0.0
H305 H 0.8154 0.56438 0.75763 0.0
H306 H 0.78837 0.51037 0.69152 0.0
H307 H 0.76266 0.51178 0.7198 0.0
H308 H 0.80942 0.5116 0.8124 0.0
H309 H 0.78309 0.51301 0.78399 0.0
H310 H 0.82191 0.5672 0.84898 0.0
H311 H 0.79591 0.56878 0.82014 0.0
H312 H 0.66697 0.51612 0.79772 0.0
H313 H 0.69649 0.51588 0.77648 0.0
H314 H 0.71337 0.57062 0.8389 0.0
H315 H 0.74303 0.57086 0.81638 0.0
H316 H 0.69897 0.57046 0.7257 0.0
H317 H 0.7276 0.57097 0.75174 0.0
H318 H 0.68563 0.51391 0.69108 0.0
H319 H 0.71413 0.51438 0.71737 0.0
N320 N 0.75479 0.53995 0.74224 0.0
N321 N 0.75597 0.54413 0.79394 0.0
C322 C 0.19636 0.70624 0.2453 0.0
C323 C 0.18854 0.71256 0.2244 0.0
C324 C 0.21021 0.72048 0.26349 0.0
C325 C 0.21599 0.74121 0.26165 0.0
C326 C 0.19454 0.73338 0.22262 0.0
C327 C 0.20798 0.74744 0.24104 0.0
C328 C 0.23205 0.75709 0.27924 0.0
C329 C 0.17826 0.71024 0.33125 0.0
C330 C 0.18495 0.70284 0.35203 0.0
C331 C 0.19356 0.72694 0.31615 0.0
C332 C 0.21589 0.73605 0.321 0.0
C333 C 0.20718 0.71216 0.35718 0.0
C334 C 0.22246 0.72852 0.34179 0.0
C335 C 0.23255 0.75443 0.30619 0.0
C336 C 0.29869 0.83921 0.34147 0.0
C337 C 0.31079 0.83488 0.35899 0.0
C338 C 0.28389 0.82408 0.32488 0.0
C339 C 0.28081 0.80429 0.32552 0.0
C340 C 0.3075 0.81494 0.35966 0.0
C341 C 0.29249 0.79974 0.34325 0.0
C342 C 0.26466 0.788 0.30866 0.0
C343 C 0.31858 0.83233 0.25476 0.0
C344 C 0.31223 0.8413 0.23543 0.0
C345 C 0.30309 0.81637 0.27056 0.0
C346 C 0.28093 0.80913 0.26747 0.0
C347 C 0.29008 0.83443 0.233 0.0
C348 C 0.27463 0.81844 0.24868 0.0
C349 C 0.2641 0.7907 0.2819 0.0
H350 H 0.192 0.69035 0.24753 0.0
H351 H 0.21672 0.71532 0.27864 0.0
H352 H 0.18943 0.73908 0.20656 0.0
H353 H 0.21247 0.7634 0.23887 0.0
H354 H 0.16117 0.70349 0.32715 0.0
H355 H 0.18787 0.73292 0.30104 0.0
H356 H 0.21274 0.70671 0.37308 0.0
H357 H 0.23951 0.73537 0.34623 0.0
H358 H 0.30039 0.85422 0.34078 0.0
H359 H 0.27459 0.82775 0.31181 0.0
H360 H 0.31671 0.81109 0.37262 0.0
H361 H 0.29022 0.78449 0.34415 0.0
H362 H 0.33542 0.83697 0.25694 0.0
H363 H 0.30837 0.80912 0.28445 0.0
H364 H 0.2846 0.84119 0.21864 0.0
H365 H 0.25765 0.81311 0.24589 0.0
N366 N 0.24779 0.77517 0.26834 0.0
N367 N 0.24897 0.77001 0.3197 0.0
C368 C 0.4451 0.15898 0.79122 0.0
C369 C 0.45892 0.1618 0.81197 0.0
C370 C 0.44598 0.17591 0.77906 0.0
C371 C 0.46091 0.19605 0.78712 0.0
C372 C 0.47342 0.18195 0.8205 0.0
C373 C 0.47433 0.1989 0.80824 0.0
C374 C 0.46219 0.21407 0.77395 0.0
C375 C 0.48626 0.18791 0.71625 0.0
C376 C 0.47328 0.1798 0.69422 0.0
C377 C 0.48245 0.1994 0.73357 0.0
C378 C 0.46547 0.20294 0.7294 0.0
C379 C 0.45632 0.18344 0.69004 0.0
C380 C 0.45256 0.19501 0.70737 0.0
C381 C 0.46221 0.21612 0.74699 0.0
C382 C 0.47709 0.29921 0.72366 0.0
C383 C 0.46165 0.29373 0.70397 0.0
C384 C 0.47636 0.28403 0.74003 0.0
C385 C 0.46002 0.26322 0.73711 0.0
C386 C 0.44489 0.27299 0.70181 0.0
C387 C 0.44416 0.2579 0.71812 0.0
C388 C 0.46074 0.24654 0.75111 0.0
C389 C 0.45107 0.28284 0.81162 0.0
C390 C 0.46584 0.28911 0.83218 0.0
C391 C 0.44973 0.26865 0.79387 0.0
C392 C 0.46351 0.26085 0.796 0.0
C393 C 0.47939 0.2811 0.83441 0.0
C394 C 0.47822 0.26715 0.81656 0.0
C395 C 0.46219 0.2453 0.77811 0.0
H396 H 0.43383 0.1437 0.78408 0.0
H397 H 0.43497 0.17323 0.7633 0.0
H398 H 0.48399 0.18461 0.83673 0.0
H399 H 0.48574 0.21427 0.81504 0.0
H400 H 0.49978 0.18586 0.71981 0.0
H401 H 0.49314 0.20593 0.74994 0.0
H402 H 0.44588 0.17728 0.67342 0.0
H403 H 0.43951 0.19771 0.70362 0.0
H404 H 0.49031 0.31505 0.72562 0.0
H405 H 0.48907 0.28842 0.75417 0.0
H406 H 0.43258 0.26835 0.68709 0.0
H407 H 0.43149 0.24191 0.71546 0.0
H408 H 0.4402 0.28854 0.80963 0.0
H409 H 0.43765 0.26353 0.77882 0.0
H410 H 0.49107 0.28577 0.84988 0.0
H411 H 0.48895 0.2613 0.81881 0.0
N412 N 0.46263 0.22893 0.78842 0.0
N413 N 0.46102 0.23202 0.73668 0.0
C414 C 0.03818 0.50133 0.05826 0.0
C415 C 0.04439 0.50206 0.03265 0.0
C416 C 0.04637 0.49429 0.07782 0.0
C417 C 0.07448 0.46554 0.08925 0.0
H418 H 0.09989 0.501 0.14788 0.0
C419 C 0.14227 0.46725 0.14994 0.0
C420 C 0.14236 0.46962 0.17662 0.0
C421 C 0.12727 0.46863 0.13427 0.0
C422 C 0.09258 0.49071 0.13186 0.0
H423 H 0.06311 0.49507 0.0073 0.0
H424 H 0.07717 0.48285 0.04105 0.0
H425 H 0.07799 0.50719 0.11739 0.0
H426 H 0.12622 0.47473 0.20776 0.0
H427 H 0.10014 0.4773 0.18034 0.0
H428 H 0.08954 0.44941 0.10329 0.0
C429 C 0.06602 0.4876 0.04624 0.0
C430 C 0.07997 0.49424 0.11441 0.0
C431 C 0.05806 0.49477 0.02686 0.0
C432 C 0.12686 0.47316 0.18724 0.0
C433 C 0.11187 0.4746 0.17154 0.0
C434 C 0.08707 0.46202 0.10666 0.0
C435 C 0.06064 0.48762 0.07202 0.0
C436 C 0.07122 0.48201 0.09254 0.0
C437 C 0.11196 0.47245 0.14484 0.0
C438 C 0.09672 0.47486 0.12785 0.0
H439 H 0.02774 0.50694 0.0633 0.0
H440 H 0.0418 0.49437 0.0975 0.0
H441 H 0.06765 0.45559 0.07285 0.0
H442 H 0.15417 0.46485 0.14103 0.0
H443 H 0.12806 0.46726 0.11374 0.0
C444 C 0.60399 0.05089 0.55682 0.0
C445 C 0.58128 0.04056 0.5576 0.0
C446 C 0.61623 0.05862 0.57914 0.0
C447 C 0.61367 0.07825 0.64145 0.0
H448 H 0.66937 0.08317 0.65069 0.0
C449 C 0.67593 0.12968 0.71923 0.0
C450 C 0.69695 0.14316 0.70954 0.0
C451 C 0.66021 0.11352 0.70434 0.0
C452 C 0.65382 0.08186 0.64841 0.0
H453 H 0.55347 0.02926 0.58264 0.0
H454 H 0.57497 0.04277 0.62189 0.0
H455 H 0.64415 0.05993 0.61847 0.0
H456 H 0.71765 0.15022 0.67632 0.0
H457 H 0.69052 0.12193 0.65082 0.0
H458 H 0.62369 0.10066 0.67097 0.0
C459 C 0.58327 0.04502 0.60387 0.0
C460 C 0.63938 0.06857 0.62997 0.0
C461 C 0.57097 0.03715 0.58145 0.0
C462 C 0.70186 0.13992 0.68473 0.0
C463 C 0.68628 0.12369 0.67004 0.0
C464 C 0.62809 0.09147 0.66004 0.0
C465 C 0.60607 0.05625 0.60284 0.0
C466 C 0.61946 0.06717 0.62563 0.0
C467 C 0.66527 0.11036 0.6796 0.0
C468 C 0.64861 0.09393 0.66307 0.0
H469 H 0.61242 0.05372 0.53877 0.0
H470 H 0.63373 0.06739 0.57752 0.0
H471 H 0.59855 0.07768 0.63847 0.0
H472 H 0.67163 0.13153 0.73836 0.0
H473 H 0.64415 0.10342 0.71222 0.0
C474 C 0.5432 0.57008 0.09086 0.0
C475 C 0.54745 0.55589 0.10299 0.0
C476 C 0.54691 0.58759 0.10357 0.0
C477 C 0.57595 0.62146 0.15833 0.0
H478 H 0.53259 0.63639 0.14998 0.0
C479 C 0.57586 0.68512 0.21773 0.0
C480 C 0.57063 0.69826 0.20451 0.0
C481 C 0.57373 0.66786 0.20575 0.0
C482 C 0.54498 0.63258 0.15231 0.0
H483 H 0.55938 0.54926 0.1379 0.0
H484 H 0.56581 0.5799 0.16027 0.0
H485 H 0.52781 0.60622 0.12849 0.0
H486 H 0.55972 0.70387 0.16805 0.0
H487 H 0.55595 0.67382 0.14724 0.0
H488 H 0.59306 0.6479 0.18227 0.0
C489 C 0.55976 0.57751 0.14077 0.0
C490 C 0.54224 0.61527 0.13997 0.0
C491 C 0.55608 0.55995 0.12797 0.0
C492 C 0.56349 0.69387 0.17895 0.0
C493 C 0.56134 0.67664 0.16701 0.0
C494 C 0.57867 0.63881 0.17074 0.0
C495 C 0.55494 0.5914 0.12882 0.0
C496 C 0.55777 0.60958 0.14263 0.0
C497 C 0.56627 0.66333 0.18031 0.0
C498 C 0.56329 0.64466 0.1677 0.0
H499 H 0.53703 0.56769 0.07142 0.0
H500 H 0.54351 0.5982 0.09355 0.0
H501 H 0.58831 0.61763 0.1606 0.0
H502 H 0.58115 0.68791 0.23754 0.0
H503 H 0.57743 0.6578 0.21663 0.0
C504 C 0.94318 0.52515 0.56444 0.0
C505 C 0.9352 0.52016 0.53925 0.0
C506 C 0.93204 0.52908 0.58285 0.0
C507 C 0.89029 0.54251 0.59083 0.0
H508 H 0.88304 0.51696 0.65814 0.0
C509 C 0.82657 0.53402 0.66296 0.0
C510 C 0.83212 0.53695 0.6891 0.0
C511 C 0.84058 0.5338 0.64507 0.0
C512 C 0.88519 0.52447 0.63958 0.0
H513 H 0.90938 0.5157 0.51357 0.0
H514 H 0.88986 0.52252 0.54573 0.0
H515 H 0.90483 0.51331 0.62594 0.0
H516 H 0.8569 0.54218 0.71695 0.0
H517 H 0.8816 0.542 0.68554 0.0
H518 H 0.87041 0.55344 0.6044 0.0
C519 C 0.9049 0.52361 0.55116 0.0
C520 C 0.89767 0.52237 0.62111 0.0
C521 C 0.91608 0.51969 0.53272 0.0
C522 C 0.8522 0.53996 0.69692 0.0
C523 C 0.86624 0.53968 0.67898 0.0
C524 C 0.87782 0.54462 0.60931 0.0
C525 C 0.91264 0.52813 0.57651 0.0
C526 C 0.90019 0.5312 0.59645 0.0
C527 C 0.86053 0.53652 0.65286 0.0
C528 C 0.87494 0.53543 0.6338 0.0
H529 H 0.95811 0.52609 0.56998 0.0
H530 H 0.93865 0.5329 0.60208 0.0
H531 H 0.89222 0.54978 0.57215 0.0
H532 H 0.81136 0.53197 0.65625 0.0
H533 H 0.83558 0.53109 0.62516 0.0
C534 C 0.42083 0.94059 0.05183 0.0
C535 C 0.44332 0.95421 0.05402 0.0
C536 C 0.40813 0.93101 0.07347 0.0
C537 C 0.40436 0.93056 0.14368 0.0
H538 H 0.36561 0.87178 0.13369 0.0
C539 C 0.34942 0.87182 0.22423 0.0
C540 C 0.32831 0.85658 0.21664 0.0
C541 C 0.3647 0.8853 0.20604 0.0
C542 C 0.37615 0.88819 0.13679 0.0
H543 H 0.47 0.96954 0.08085 0.0
H544 H 0.44754 0.95255 0.11918 0.0
H545 H 0.39002 0.89315 0.09947 0.0
H546 H 0.30684 0.84377 0.18383 0.0
H547 H 0.33309 0.86739 0.15251 0.0
H548 H 0.39011 0.92541 0.18112 0.0
C549 C 0.43986 0.94939 0.1005 0.0
C550 C 0.39019 0.90045 0.11716 0.0
C551 C 0.45268 0.95913 0.07862 0.0
C552 C 0.32279 0.85543 0.19052 0.0
C553 C 0.33799 0.86883 0.17244 0.0
C554 C 0.39016 0.9182 0.16346 0.0
C555 C 0.41756 0.93466 0.09797 0.0
C556 C 0.40412 0.92183 0.1201 0.0
C557 C 0.35923 0.88373 0.17986 0.0
C558 C 0.37556 0.89693 0.15998 0.0
H559 H 0.41306 0.93671 0.03318 0.0
H560 H 0.39092 0.92018 0.07092 0.0
H561 H 0.41495 0.94699 0.1465 0.0
H562 H 0.35416 0.87327 0.24421 0.0
H563 H 0.38093 0.89657 0.21238 0.0
C564 C 0.48364 0.43164 0.55717 0.0
C565 C 0.48243 0.42718 0.53093 0.0
C566 C 0.48122 0.4172 0.57587 0.0
C567 C 0.45848 0.36178 0.587 0.0
H568 H 0.49797 0.37994 0.64497 0.0
C569 C 0.46087 0.30433 0.65844 0.0
C570 C 0.46372 0.30922 0.68459 0.0
C571 C 0.46295 0.31877 0.63994 0.0
C572 C 0.48662 0.37466 0.6291 0.0
H573 H 0.47764 0.40388 0.50392 0.0
H574 H 0.47321 0.37853 0.53668 0.0
H575 H 0.50201 0.40489 0.61193 0.0
H576 H 0.47097 0.33308 0.71188 0.0
H577 H 0.47439 0.35836 0.6795 0.0
H578 H 0.44297 0.33159 0.6042 0.0
C579 C 0.47594 0.39324 0.54267 0.0
C580 C 0.48898 0.38894 0.61014 0.0
C581 C 0.47846 0.40776 0.5239 0.0
C582 C 0.46882 0.32894 0.69185 0.0
C583 C 0.47082 0.34341 0.6733 0.0
C584 C 0.45606 0.34751 0.60601 0.0
C585 C 0.4774 0.39787 0.56885 0.0
C586 C 0.47496 0.38265 0.58886 0.0
C587 C 0.46789 0.33846 0.64712 0.0
C588 C 0.47015 0.35376 0.62725 0.0
H589 H 0.48616 0.44619 0.56341 0.0
H590 H 0.48203 0.42107 0.59589 0.0
H591 H 0.44723 0.35653 0.57103 0.0
H592 H 0.45738 0.28941 0.65219 0.0
H593 H 0.46105 0.31459 0.61994 0.0
C594 C 0.56188 0.9908 0.40574 0.0
C595 C 0.56008 0.99048 0.43258 0.0
C596 C 0.56315 0.97531 0.39343 0.0
C597 C 0.57855 0.93685 0.40356 0.0
H598 H 0.54112 0.90948 0.34542 0.0
C599 C 0.57257 0.86516 0.35894 0.0
C600 C 0.56955 0.86271 0.33231 0.0
C601 C 0.57142 0.88073 0.37119 0.0
C602 C 0.55197 0.91715 0.36135 0.0
H603 H 0.5587 0.97396 0.46757 0.0
H604 H 0.56118 0.94702 0.4461 0.0
H605 H 0.53964 0.93702 0.36638 0.0
H606 H 0.56341 0.87491 0.29752 0.0
H607 H 0.56206 0.90246 0.31862 0.0
H608 H 0.59132 0.91746 0.3983 0.0
C609 C 0.56147 0.95919 0.4346 0.0
C610 C 0.55103 0.93289 0.37342 0.0
C611 C 0.55988 0.9745 0.44686 0.0
C612 C 0.56553 0.87627 0.31814 0.0
C613 C 0.56466 0.89201 0.3303 0.0
C614 C 0.57972 0.9213 0.39129 0.0
C615 C 0.56299 0.95936 0.40774 0.0
C616 C 0.56424 0.94286 0.3947 0.0
C617 C 0.56751 0.89444 0.35704 0.0
C618 C 0.56639 0.91115 0.37005 0.0
H619 H 0.56191 0.00282 0.39424 0.0
H620 H 0.56444 0.9759 0.37272 0.0
H621 H 0.58911 0.94443 0.41976 0.0
H622 H 0.57546 0.85478 0.37039 0.0
H623 H 0.57329 0.8818 0.39183 0.0
C624 C 0.54502 0.49836 0.9592 0.0
C625 C 0.5425 0.51229 0.97357 0.0
C626 C 0.55687 0.5048 0.9365 0.0
C627 C 0.60389 0.54979 0.91042 0.0
H628 H 0.5911 0.51435 0.85213 0.0
C629 C 0.66982 0.56124 0.83805 0.0
C630 C 0.6696 0.54297 0.83351 0.0
C631 C 0.65245 0.56051 0.85057 0.0
C632 C 0.59488 0.52449 0.8682 0.0
H633 H 0.54951 0.54358 0.97547 0.0
H634 H 0.57098 0.5552 0.93564 0.0
H635 H 0.5621 0.50763 0.88159 0.0
H636 H 0.65116 0.50971 0.83918 0.0
H637 H 0.62101 0.50846 0.86072 0.0
H638 H 0.63694 0.5659 0.89789 0.0
C639 C 0.56345 0.5392 0.9418 0.0
C640 C 0.57828 0.5207 0.88496 0.0
C641 C 0.55113 0.53258 0.96439 0.0
C642 C 0.65167 0.52403 0.84181 0.0
C643 C 0.63434 0.5233 0.85412 0.0
C644 C 0.62055 0.55358 0.89364 0.0
C645 C 0.56682 0.52545 0.92799 0.0
C646 C 0.5828 0.53274 0.90686 0.0
C647 C 0.63448 0.5415 0.85862 0.0
C648 C 0.61636 0.54037 0.87304 0.0
H649 H 0.53855 0.48266 0.96612 0.0
H650 H 0.55942 0.49392 0.92653 0.0
H651 H 0.60788 0.55923 0.92725 0.0
H652 H 0.6833 0.57606 0.83166 0.0
H653 H 0.65298 0.57478 0.85379 0.0
C654 C 0.05279 0.57056 0.50263 0.0
C655 C 0.04155 0.5507 0.49228 0.0
C656 C 0.06988 0.58709 0.48907 0.0
C657 C 0.10598 0.59959 0.43171 0.0
H658 H 0.11203 0.65314 0.43658 0.0
C659 C 0.15303 0.66683 0.35808 0.0
C660 C 0.16884 0.68569 0.36868 0.0
C661 C 0.13831 0.65044 0.37397 0.0
C662 C 0.11057 0.63828 0.43516 0.0
H663 H 0.03966 0.53258 0.4597 0.0
H664 H 0.06858 0.56128 0.43575 0.0
H665 H 0.08533 0.62438 0.46314 0.0
H666 H 0.18144 0.70243 0.40401 0.0
H667 H 0.15522 0.67394 0.43177 0.0
H668 H 0.13063 0.61352 0.40275 0.0
C669 C 0.06486 0.56419 0.45464 0.0
C670 C 0.09539 0.62178 0.45054 0.0
C671 C 0.0481 0.54764 0.46839 0.0
C672 C 0.16944 0.688 0.3954 0.0
C673 C 0.15444 0.67178 0.41123 0.0
C674 C 0.12083 0.616 0.41597 0.0
C675 C 0.07586 0.58425 0.4646 0.0
C676 C 0.0928 0.60213 0.44902 0.0
C677 C 0.13886 0.6528 0.40068 0.0
C678 C 0.12323 0.63547 0.41752 0.0
H679 H 0.0482 0.5734 0.52105 0.0
H680 H 0.07822 0.60214 0.49775 0.0
H681 H 0.10493 0.58493 0.43029 0.0
H682 H 0.1523 0.66466 0.33754 0.0
H683 H 0.12636 0.63598 0.36538 0.0
C684 C 0.47968 0.02908 0.91881 0.0
C685 C 0.46079 0.00992 0.92408 0.0
C686 C 0.47861 0.04438 0.90489 0.0
C687 C 0.44154 0.06196 0.88874 0.0
H688 H 0.48487 0.09557 0.83742 0.0
C689 C 0.43856 0.1252 0.82871 0.0
C690 C 0.45838 0.1438 0.8244 0.0
C691 C 0.43813 0.10812 0.83982 0.0
C692 C 0.47278 0.08646 0.85188 0.0
H693 H 0.42598 0.99166 0.91864 0.0
H694 H 0.42408 0.01846 0.89414 0.0
H695 H 0.48529 0.06674 0.85808 0.0
H696 H 0.49328 0.15899 0.82833 0.0
H697 H 0.4925 0.12941 0.84834 0.0
H698 H 0.42926 0.08189 0.88291 0.0
C699 C 0.43971 0.02162 0.90093 0.0
C700 C 0.47299 0.06992 0.86364 0.0
C701 C 0.44081 0.00623 0.91473 0.0
C702 C 0.47773 0.14497 0.83163 0.0
C703 C 0.4773 0.12792 0.84278 0.0
C704 C 0.44138 0.07857 0.87704 0.0
C705 C 0.4586 0.04089 0.89602 0.0
C706 C 0.45751 0.05762 0.88237 0.0
C707 C 0.4575 0.10926 0.84691 0.0
C708 C 0.45713 0.09113 0.85865 0.0
H709 H 0.49534 0.03227 0.92547 0.0
H710 H 0.49343 0.05913 0.9016 0.0
H711 H 0.42957 0.05291 0.90334 0.0
H712 H 0.42334 0.12386 0.82362 0.0
H713 H 0.42261 0.09394 0.84255 0.0
C714 C 0.44779 0.5014 0.44568 0.0
C715 C 0.44374 0.49352 0.47098 0.0
C716 C 0.43105 0.49982 0.43032 0.0
C717 C 0.37064 0.47073 0.4256 0.0
H718 H 0.38241 0.51184 0.37259 0.0
C719 C 0.30379 0.47297 0.36547 0.0
C720 C 0.30699 0.47503 0.33878 0.0
C721 C 0.3202 0.47517 0.38202 0.0
C722 C 0.37893 0.50019 0.38723 0.0
H723 H 0.41902 0.47848 0.50028 0.0
H724 H 0.38997 0.47653 0.47394 0.0
H725 H 0.41142 0.51681 0.40146 0.0
H726 H 0.32988 0.48111 0.30847 0.0
H727 H 0.3588 0.48538 0.33747 0.0
H728 H 0.33791 0.45449 0.41162 0.0
C729 C 0.40594 0.48331 0.46557 0.0
C730 C 0.39558 0.50295 0.40377 0.0
C731 C 0.42266 0.48461 0.48082 0.0
C732 C 0.32694 0.47933 0.32895 0.0
C733 C 0.34351 0.48191 0.34553 0.0
C734 C 0.35392 0.46816 0.40933 0.0
C735 C 0.40981 0.49062 0.43994 0.0
C736 C 0.39176 0.48816 0.42306 0.0
C737 C 0.3403 0.47985 0.37223 0.0
C738 C 0.35794 0.48276 0.38983 0.0
H739 H 0.4638 0.5082 0.43737 0.0
H740 H 0.43472 0.50531 0.41062 0.0
H741 H 0.36704 0.45876 0.4398 0.0
H742 H 0.28852 0.46955 0.37354 0.0
H743 H 0.31733 0.47358 0.40251 0.0
C744 C 0.98549 0.45708 0.92951 0.0
C745 C 0.99887 0.47493 0.91465 0.0
C746 C 0.97212 0.43813 0.91792 0.0
C747 C 0.94514 0.41588 0.85649 0.0
H748 H 0.93189 0.36464 0.89028 0.0
C749 C 0.88603 0.33567 0.81381 0.0
C750 C 0.87029 0.32112 0.83089 0.0
C751 C 0.90347 0.3542 0.82283 0.0
C752 C 0.9354 0.37883 0.88069 0.0
H753 H 0.00922 0.48662 0.87589 0.0
H754 H 0.98617 0.4533 0.85557 0.0
H755 H 0.96021 0.39748 0.90765 0.0
H756 H 0.86063 0.31437 0.87078 0.0
H757 H 0.89119 0.34678 0.88661 0.0
H758 H 0.92023 0.39712 0.82955 0.0
C759 C 0.98576 0.45412 0.87625 0.0
C760 C 0.95159 0.39765 0.89063 0.0
C761 C 0.99914 0.47318 0.88789 0.0
C762 C 0.87246 0.32536 0.8572 0.0
C763 C 0.89004 0.3438 0.86625 0.0
C764 C 0.92907 0.39703 0.84642 0.0
C765 C 0.97187 0.43642 0.89113 0.0
C766 C 0.95636 0.41642 0.87896 0.0
C767 C 0.90564 0.35846 0.84913 0.0
C768 C 0.92377 0.37835 0.8587 0.0
H769 H 0.98516 0.45773 0.95019 0.0
H770 H 0.96149 0.42493 0.93002 0.0
H771 H 0.94816 0.43001 0.84719 0.0
H772 H 0.88463 0.33288 0.79339 0.0
H773 H 0.91531 0.36518 0.80923 0.0
C774 C 0.95129 0.52298 0.96547 0.0
C775 C 0.97155 0.54127 0.96206 0.0
C776 C 0.93239 0.52158 0.95581 0.0
C777 C 0.91 0.55299 0.93201 0.0
H778 H 0.87466 0.50708 0.88729 0.0
C779 C 0.8537 0.5565 0.85593 0.0
C780 C 0.83381 0.53847 0.8504 0.0
C781 C 0.86874 0.55578 0.8723 0.0
C782 C 0.88407 0.51983 0.90004 0.0
H783 H 0.98778 0.5727 0.9472 0.0
H784 H 0.955 0.57042 0.93096 0.0
H785 H 0.90339 0.50754 0.91276 0.0
H786 H 0.81403 0.50554 0.85813 0.0
H787 H 0.84017 0.50428 0.8869 0.0
H788 H 0.89094 0.56544 0.91922 0.0
C789 C 0.95358 0.55712 0.94088 0.0
C790 C 0.90055 0.52007 0.91468 0.0
C791 C 0.9724 0.55839 0.95011 0.0
C792 C 0.82932 0.51968 0.86172 0.0
C793 C 0.84433 0.51897 0.87822 0.0
C794 C 0.89346 0.5527 0.91755 0.0
C795 C 0.93341 0.53858 0.94305 0.0
C796 C 0.91402 0.53688 0.93039 0.0
C797 C 0.86427 0.53702 0.88374 0.0
C798 C 0.88059 0.53636 0.90089 0.0
H799 H 0.95019 0.50948 0.97442 0.0
H800 H 0.91704 0.50712 0.95789 0.0
H801 H 0.91991 0.56603 0.94421 0.0
H802 H 0.85784 0.57118 0.84723 0.0
H803 H 0.88408 0.56994 0.87558 0.0
C804 C 0.46057 0.98498 0.45269 0.0
C805 C 0.4717 0.98353 0.47409 0.0
C806 C 0.44048 0.96826 0.44561 0.0
C807 C 0.40799 0.91183 0.45007 0.0
H808 H 0.36478 0.92027 0.41741 0.0
C809 C 0.33009 0.84629 0.40153 0.0
C810 C 0.32691 0.85117 0.37628 0.0
C811 C 0.34557 0.86162 0.41748 0.0
C812 C 0.37668 0.91768 0.42655 0.0
H813 H 0.47009 0.96358 0.50544 0.0
H814 H 0.43464 0.93419 0.49308 0.0
H815 H 0.39534 0.94871 0.43962 0.0
H816 H 0.33782 0.87609 0.34808 0.0
H817 H 0.36431 0.90277 0.3761 0.0
H818 H 0.38936 0.88082 0.43655 0.0
C819 C 0.44169 0.9483 0.48166 0.0
C820 C 0.39419 0.93394 0.43923 0.0
C821 C 0.46191 0.96514 0.48881 0.0
C822 C 0.33944 0.87178 0.36753 0.0
C823 C 0.35468 0.8871 0.38357 0.0
C824 C 0.39032 0.89547 0.43756 0.0
C825 C 0.43089 0.94962 0.45976 0.0
C826 C 0.41046 0.93142 0.45038 0.0
C827 C 0.35797 0.88217 0.40864 0.0
C828 C 0.37489 0.89846 0.425 0.0
H829 H 0.4676 0.99892 0.44093 0.0
H830 H 0.43285 0.96976 0.42839 0.0
H831 H 0.4203 0.90939 0.45827 0.0
H832 H 0.3205 0.83067 0.40909 0.0
H833 H 0.34772 0.85745 0.4368 0.0
C834 C 0.48949 0.40307 0.00951 0.0
C835 C 0.49418 0.42289 0.00212 0.0
C836 C 0.48569 0.38842 0.99107 0.0
C837 C 0.49414 0.38373 0.92183 0.0
H838 H 0.45113 0.32591 0.93429 0.0
C839 C 0.46789 0.322 0.84372 0.0
C840 C 0.46714 0.30383 0.85145 0.0
C841 C 0.47029 0.33633 0.86191 0.0
C842 C 0.46328 0.342 0.93061 0.0
H843 H 0.4988 0.44272 0.9691 0.0
H844 H 0.49139 0.41712 0.93729 0.0
H845 H 0.45718 0.35127 0.96638 0.0
H846 H 0.46756 0.2861 0.88432 0.0
H847 H 0.47166 0.31105 0.91602 0.0
H848 H 0.50001 0.3744 0.8859 0.0
C849 C 0.49099 0.41294 0.95734 0.0
C850 C 0.46683 0.35654 0.94905 0.0
C851 C 0.49494 0.42761 0.97574 0.0
C852 C 0.4683 0.30006 0.87776 0.0
C853 C 0.47046 0.31426 0.89593 0.0
C854 C 0.49044 0.3692 0.90331 0.0
C855 C 0.48637 0.39315 0.96471 0.0
C856 C 0.48239 0.37761 0.94497 0.0
C857 C 0.47172 0.33266 0.88821 0.0
C858 C 0.47505 0.34816 0.90753 0.0
H859 H 0.4886 0.39874 0.02956 0.0
H860 H 0.48247 0.37345 0.99753 0.0
H861 H 0.50653 0.39972 0.91815 0.0
H862 H 0.46714 0.32537 0.82358 0.0
H863 H 0.47103 0.35029 0.85539 0.0
C864 C 0.99325 0.44187 0.41697 0.0
C865 C 0.99439 0.46071 0.42018 0.0
C866 C 0.00811 0.44087 0.40112 0.0
C867 C 0.06373 0.47486 0.37889 0.0
H868 H 0.05205 0.42989 0.3346 0.0
C869 C 0.13121 0.47806 0.31883 0.0
C870 C 0.13167 0.45991 0.31723 0.0
C871 C 0.11334 0.47756 0.32939 0.0
C872 C 0.05558 0.44246 0.3471 0.0
H873 H 0.01055 0.4927 0.4076 0.0
H874 H 0.03635 0.49096 0.37985 0.0
H875 H 0.02193 0.42977 0.3555 0.0
H876 H 0.11379 0.42698 0.32528 0.0
H877 H 0.08265 0.42614 0.34423 0.0
H878 H 0.09727 0.48738 0.37118 0.0
C879 C 0.02437 0.4771 0.39002 0.0
C880 C 0.03833 0.44241 0.35897 0.0
C881 C 0.00959 0.47809 0.40583 0.0
C882 C 0.11379 0.44119 0.32615 0.0
C883 C 0.09594 0.44071 0.33689 0.0
C884 C 0.08091 0.47486 0.36719 0.0
C885 C 0.0243 0.45869 0.38823 0.0
C886 C 0.04225 0.45868 0.3749 0.0
C887 C 0.09558 0.45893 0.33877 0.0
C888 C 0.07708 0.45872 0.35109 0.0
H889 H 0.98181 0.42826 0.42791 0.0
H890 H 0.00771 0.42648 0.40016 0.0
H891 H 0.06733 0.48737 0.39156 0.0
H892 H 0.14457 0.49264 0.31163 0.0
H893 H 0.11342 0.49181 0.33004 0.0
C894 C 0.55845 0.04238 0.9749 0.0
C895 C 0.54764 0.02387 0.96119 0.0
C896 C 0.5767 0.06001 0.96431 0.0
C897 C 0.60095 0.08273 0.90149 0.0
H898 H 0.65568 0.11498 0.93723 0.0
C899 C 0.67944 0.1367 0.84662 0.0
C900 C 0.69458 0.15591 0.85707 0.0
C901 C 0.66161 0.12199 0.86094 0.0
C902 C 0.64041 0.10633 0.9271 0.0
H903 H 0.54802 0.00931 0.92598 0.0
H904 H 0.57936 0.03972 0.90781 0.0
H905 H 0.6242 0.087 0.96006 0.0
H906 H 0.70292 0.17454 0.89109 0.0
H907 H 0.67148 0.14892 0.91599 0.0
H908 H 0.61687 0.10174 0.86856 0.0
C909 C 0.57371 0.04078 0.92652 0.0
C910 C 0.62241 0.09032 0.9402 0.0
C911 C 0.55576 0.02327 0.93708 0.0
C912 C 0.69146 0.15998 0.88235 0.0
C913 C 0.67356 0.14521 0.89672 0.0
C914 C 0.6188 0.0987 0.8885 0.0
C915 C 0.58422 0.05943 0.93976 0.0
C916 C 0.60265 0.07804 0.92729 0.0
C917 C 0.65831 0.12609 0.8861 0.0
C918 C 0.63892 0.11038 0.9009 0.0
H919 H 0.55261 0.04334 0.99352 0.0
H920 H 0.58455 0.07421 0.97495 0.0
H921 H 0.5858 0.07379 0.89118 0.0
H922 H 0.68114 0.1331 0.82714 0.0
H923 H 0.65041 0.10732 0.85226 0.0
C924 C 0.57488 0.57465 0.43093 0.0
C925 C 0.55679 0.5556 0.42398 0.0
C926 C 0.58005 0.59267 0.41722 0.0
C927 C 0.55285 0.61226 0.37538 0.0
H928 H 0.61071 0.66064 0.36852 0.0
C929 C 0.56883 0.68404 0.31849 0.0
C930 C 0.58015 0.70276 0.33168 0.0
C931 C 0.56817 0.66648 0.32805 0.0
C932 C 0.59449 0.64722 0.37041 0.0
H933 H 0.5309 0.54 0.39642 0.0
H934 H 0.54046 0.57117 0.37154 0.0
H935 H 0.6059 0.62861 0.38691 0.0
H936 H 0.60054 0.71791 0.36467 0.0
H937 H 0.59963 0.68708 0.38121 0.0
H938 H 0.54149 0.63077 0.35864 0.0
C939 C 0.55021 0.57249 0.38815 0.0
C940 C 0.59169 0.6289 0.38098 0.0
C941 C 0.54483 0.5546 0.40215 0.0
C942 C 0.5917 0.70374 0.35404 0.0
C943 C 0.59119 0.68613 0.3635 0.0
C944 C 0.55568 0.63041 0.36455 0.0
C945 C 0.56737 0.59188 0.39608 0.0
C946 C 0.57079 0.61119 0.38367 0.0
C947 C 0.57904 0.66726 0.35084 0.0
C948 C 0.57648 0.64807 0.36203 0.0
H949 H 0.58417 0.57579 0.44792 0.0
H950 H 0.59324 0.60728 0.42408 0.0
H951 H 0.53647 0.59922 0.37779 0.0
H952 H 0.56031 0.68289 0.30078 0.0
H953 H 0.55898 0.6522 0.3177 0.0
C954 C 0.51578 0.09662 0.52393 0.0
C955 C 0.52401 0.08453 0.53311 0.0
C956 C 0.5104 0.10722 0.54092 0.0
C957 C 0.5196 0.12623 0.60772 0.0
H958 H 0.46773 0.12805 0.59542 0.0
C959 C 0.48448 0.15456 0.68387 0.0
C960 C 0.47789 0.16811 0.67542 0.0
C961 C 0.48982 0.14434 0.66625 0.0
C962 C 0.48236 0.12783 0.59899 0.0
H963 H 0.53349 0.07467 0.56756 0.0
H964 H 0.52355 0.09257 0.59706 0.0
H965 H 0.47797 0.11064 0.56513 0.0
H966 H 0.47163 0.18138 0.64164 0.0
H967 H 0.48065 0.16331 0.61093 0.0
H968 H 0.52382 0.1432 0.64175 0.0
C969 C 0.52148 0.09408 0.57669 0.0
C970 C 0.48829 0.1179 0.58159 0.0
C971 C 0.52693 0.08355 0.55972 0.0
C972 C 0.47634 0.17085 0.64886 0.0
C973 C 0.48156 0.16052 0.63124 0.0
C974 C 0.51361 0.13604 0.62517 0.0
C975 C 0.51307 0.106 0.56754 0.0
C976 C 0.50696 0.11693 0.58576 0.0
C977 C 0.48857 0.14731 0.63973 0.0
C978 C 0.4949 0.13692 0.62105 0.0
H979 H 0.51313 0.09765 0.50364 0.0
H980 H 0.50423 0.11647 0.53314 0.0
H981 H 0.5343 0.12615 0.61134 0.0
H982 H 0.48546 0.15176 0.70415 0.0
H983 H 0.49479 0.13399 0.67341 0.0
C984 C 0.43809 0.48351 0.06667 0.0
C985 C 0.45233 0.48054 0.08203 0.0
C986 C 0.41986 0.48232 0.07754 0.0
C987 C 0.38539 0.46311 0.13615 0.0
H988 H 0.3689 0.50224 0.11535 0.0
C989 C 0.32971 0.47804 0.1972 0.0
C990 C 0.31226 0.47748 0.18439 0.0
C991 C 0.34614 0.47817 0.18334 0.0
C992 C 0.37325 0.49112 0.12117 0.0
H993 H 0.45877 0.47423 0.12085 0.0
H994 H 0.42763 0.47272 0.13973 0.0
H995 H 0.39857 0.50244 0.09322 0.0
H996 H 0.29858 0.47726 0.1471 0.0
H997 H 0.32759 0.47778 0.12278 0.0
H998 H 0.36053 0.45227 0.16461 0.0
C999 C 0.43002 0.47539 0.11922 0.0
C1000 C 0.39015 0.49115 0.10844 0.0
C1001 C 0.44803 0.4764 0.10838 0.0
C1002 C 0.3118 0.47755 0.15743 0.0
C1003 C 0.32842 0.47798 0.14354 0.0
C1004 C 0.36873 0.46327 0.14902 0.0
C1005 C 0.41564 0.47825 0.10399 0.0
C1006 C 0.39662 0.47732 0.11603 0.0
C1007 C 0.34558 0.47801 0.15639 0.0
C1008 C 0.36266 0.47742 0.14188 0.0
H1009 H 0.44098 0.48671 0.04629 0.0
H1010 H 0.40902 0.48443 0.0652 0.0
H1011 H 0.38954 0.45188 0.1421 0.0
H1012 H 0.33037 0.47786 0.21797 0.0
H1013 H 0.35931 0.47838 0.1937 0.0
C1014 C 0.95742 0.44786 0.57445 0.0
C1015 C 0.97201 0.44685 0.55795 0.0
C1016 C 0.94546 0.43211 0.59248 0.0
C1017 C 0.92584 0.37687 0.60541 0.0
H1018 H 0.90765 0.38754 0.66982 0.0
C1019 C 0.87449 0.31291 0.68166 0.0
C1020 C 0.85663 0.31316 0.69158 0.0
C1021 C 0.88987 0.32926 0.66622 0.0
C1022 C 0.91254 0.38433 0.65185 0.0
H1023 H 0.98628 0.42893 0.5484 0.0
H1024 H 0.96594 0.40175 0.58043 0.0
H1025 H 0.93327 0.41641 0.64257 0.0
H1026 H 0.84084 0.33076 0.69219 0.0
H1027 H 0.86793 0.35938 0.66592 0.0
H1028 H 0.90516 0.34472 0.61499 0.0
C1029 C 0.96325 0.41444 0.57895 0.0
C1030 C 0.92719 0.40087 0.63616 0.0
C1031 C 0.97508 0.43015 0.56072 0.0
C1032 C 0.85457 0.33016 0.68547 0.0
C1033 C 0.87007 0.34658 0.67032 0.0
C1034 C 0.91138 0.36032 0.62128 0.0
C1035 C 0.94793 0.41498 0.59472 0.0
C1036 C 0.93378 0.39739 0.6125 0.0
C1037 C 0.88792 0.34635 0.66058 0.0
C1038 C 0.90431 0.36388 0.64447 0.0
H1039 H 0.95453 0.46044 0.5728 0.0
H1040 H 0.93365 0.43301 0.60395 0.0
H1041 H 0.93021 0.37349 0.5872 0.0
H1042 H 0.87686 0.30029 0.68622 0.0
H1043 H 0.90355 0.32872 0.65911 0.0
C1044 C 0.49667 0.90367 0.0305 0.0
C1045 C 0.50991 0.9249 0.02515 0.0
C1046 C 0.50285 0.8943 0.04918 0.0
C1047 C 0.54844 0.89773 0.08343 0.0
H1048 H 0.50791 0.8697 0.13932 0.0
C1049 C 0.57057 0.86483 0.17133 0.0
C1050 C 0.55405 0.84588 0.18174 0.0
C1051 C 0.56575 0.87548 0.15292 0.0
C1052 C 0.51931 0.87716 0.12371 0.0
H1053 H 0.54029 0.95281 0.03403 0.0
H1054 H 0.55146 0.93625 0.06627 0.0
H1055 H 0.49847 0.88517 0.10418 0.0
H1056 H 0.51934 0.82381 0.18165 0.0
H1057 H 0.51116 0.8416 0.14872 0.0
H1058 H 0.56899 0.88914 0.10225 0.0
C1059 C 0.53622 0.92698 0.05626 0.0
C1060 C 0.5139 0.88607 0.10366 0.0
C1061 C 0.52982 0.93643 0.03797 0.0
C1062 C 0.53257 0.83812 0.1737 0.0
C1063 C 0.52781 0.84857 0.15505 0.0
C1064 C 0.55372 0.88845 0.10325 0.0
C1065 C 0.52257 0.90594 0.06237 0.0
C1066 C 0.52838 0.89638 0.08335 0.0
C1067 C 0.54433 0.86734 0.14425 0.0
C1068 C 0.53918 0.87797 0.12364 0.0
H1069 H 0.48116 0.89455 0.02101 0.0
H1070 H 0.49213 0.87802 0.05356 0.0
H1071 H 0.55983 0.9056 0.06789 0.0
H1072 H 0.58732 0.87122 0.17691 0.0
H1073 H 0.57887 0.89007 0.14541 0.0
C1074 C 0.53732 0.51588 0.57153 0.0
C1075 C 0.54315 0.53226 0.55396 0.0
C1076 C 0.55159 0.51766 0.59103 0.0
C1077 C 0.60139 0.55428 0.62664 0.0
H1078 H 0.61014 0.50822 0.63011 0.0
C1079 C 0.67515 0.55919 0.67847 0.0
C1080 C 0.67215 0.54138 0.69113 0.0
C1081 C 0.65851 0.55839 0.66359 0.0
C1082 C 0.60771 0.5211 0.62981 0.0
H1083 H 0.56795 0.5639 0.54436 0.0
H1084 H 0.59276 0.56701 0.57854 0.0
H1085 H 0.58213 0.50652 0.60226 0.0
H1086 H 0.64909 0.50895 0.69883 0.0
H1087 H 0.61997 0.50757 0.67334 0.0
H1088 H 0.62701 0.56888 0.65422 0.0
C1089 C 0.57717 0.55277 0.57714 0.0
C1090 C 0.59161 0.52011 0.61377 0.0
C1091 C 0.56294 0.55096 0.5575 0.0
C1092 C 0.65202 0.52285 0.68894 0.0
C1093 C 0.63534 0.52207 0.67427 0.0
C1094 C 0.61742 0.55522 0.64288 0.0
C1095 C 0.57196 0.5359 0.59358 0.0
C1096 C 0.58832 0.53672 0.61187 0.0
C1097 C 0.6384 0.53978 0.66117 0.0
C1098 C 0.6209 0.53867 0.64456 0.0
H1099 H 0.52218 0.50127 0.5695 0.0
H1100 H 0.54693 0.50451 0.60369 0.0
H1101 H 0.59914 0.56727 0.62574 0.0
H1102 H 0.69055 0.57367 0.67961 0.0
H1103 H 0.66163 0.57227 0.6535 0.0
C1104 C 0.08743 0.61859 0.03333 0.0
C1105 C 0.08291 0.59836 0.03154 0.0
C1106 C 0.09889 0.63064 0.05437 0.0
C1107 C 0.11631 0.62613 0.12087 0.0
H1108 H 0.15239 0.68567 0.11359 0.0
C1109 C 0.17843 0.68214 0.19635 0.0
C1110 C 0.17502 0.69789 0.20387 0.0
C1111 C 0.16671 0.6693 0.17598 0.0
C1112 C 0.1423 0.66904 0.11583 0.0
H1113 H 0.08741 0.57502 0.04956 0.0
H1114 H 0.10843 0.59627 0.08557 0.0
H1115 H 0.13412 0.66503 0.07604 0.0
H1116 H 0.15565 0.71163 0.19627 0.0
H1117 H 0.13613 0.68988 0.15995 0.0
H1118 H 0.12547 0.63039 0.16062 0.0
C1119 C 0.10242 0.60271 0.07147 0.0
C1120 C 0.13167 0.65717 0.09438 0.0
C1121 C 0.09053 0.59054 0.05074 0.0
C1122 C 0.15923 0.70011 0.19072 0.0
C1123 C 0.14789 0.68758 0.17001 0.0
C1124 C 0.12736 0.638 0.14218 0.0
C1125 C 0.10651 0.62285 0.07382 0.0
C1126 C 0.11836 0.63553 0.09659 0.0
C1127 C 0.15165 0.67218 0.1624 0.0
C1128 C 0.14027 0.65954 0.13984 0.0
H1129 H 0.08145 0.62483 0.01888 0.0
H1130 H 0.10126 0.64586 0.0556 0.0
H1131 H 0.10589 0.6096 0.12362 0.0
H1132 H 0.19064 0.68008 0.20561 0.0
H1133 H 0.1699 0.65754 0.1703 0.0
loop_
_geom_bond_atom_site_label_1
_geom_bond_atom_site_label_2
_geom_bond_distance
_geom_bond_site_symmetry_2
_ccdc_geom_bond_type
Cu0 N1 1.999 1_454 S
Cu0 O6 1.974 1_454 S
Cu0 N11 1.985 . S
Cu0 O20 1.959 . S
N1 Cu0 1.999 1_656 S
N1 C3 1.263 . S
N1 C5 1.389 1_556 S
N2 C3 1.358 . S
N2 C4 1.400 . S
C3 N1 1.263 . S
C3 N2 1.358 . S
C3 H9 0.930 . S
C4 N2 1.400 . S
C4 C5 1.351 1_556 S
C4 H21 0.930 . S
C5 N1 1.389 1_554 S
C5 C4 1.351 1_554 S
C5 H10 0.930 . S
O6 Cu0 1.974 1_656 S
O6 C16 1.282 . S
C7 O8 1.261 1_554 S
C7 O20 1.251 . S
O8 C7 1.261 1_556 S
H9 C3 0.930 . S
H10 C5 0.930 . S
N11 Cu0 1.985 . S
N11 C13 1.335 . S
N11 C14 1.390 . S
N12 C13 1.345 . S
N12 C15 1.336 . S
C13 N11 1.335 . S
C13 N12 1.345 . S
C13 H18 0.930 . S
C14 N11 1.390 . S
C14 C15 1.346 . S
C14 H19 0.930 1_554 S
C15 N12 1.336 . S
C15 C14 1.346 . S
C15 H22 0.929 . S
C16 O6 1.282 . S
C16 O17 1.216 1_655 S
O17 C16 1.216 1_455 S
H18 C13 0.930 . S
H19 C14 0.930 1_556 S
O20 Cu0 1.959 . S
O20 C7 1.251 . S
H21 C4 0.930 . S
H22 C15 0.929 . S
Cu23 N24 1.999 . S
Cu23 O29 1.974 . S
Cu23 N34 1.985 1_565 S
Cu23 O43 1.959 1_565 S
N24 Cu23 1.999 . S
N24 C26 1.263 . S
N24 C28 1.389 . S
N25 C26 1.358 . S
N25 C27 1.400 . S
C26 N24 1.263 . S
C26 N25 1.358 . S
C26 H32 0.930 . S
C27 N25 1.400 . S
C27 C28 1.351 . S
C27 H44 0.930 . S
C28 N24 1.389 . S
C28 C27 1.351 . S
C28 H33 0.930 . S
O29 Cu23 1.974 . S
O29 C39 1.282 . S
C30 O31 1.261 . S
C30 O43 1.251 . S
O31 C30 1.261 . S
H32 C26 0.930 . S
H33 C28 0.930 . S
N34 Cu23 1.985 1_545 S
N34 C36 1.335 . S
N34 C37 1.390 . S
N35 C36 1.345 . S
N35 C38 1.336 . S
C36 N34 1.335 . S
C36 N35 1.345 . S
C36 H41 0.930 . S
C37 N34 1.390 . S
C37 C38 1.346 . S
C37 H42 0.930 . S
C38 N35 1.336 . S
C38 C37 1.346 . S
C38 H45 0.929 . S
C39 O29 1.282 . S
C39 O40 1.216 . S
O40 C39 1.216 . S
H41 C36 0.930 . S
H42 C37 0.930 . S
O43 Cu23 1.959 1_545 S
O43 C30 1.251 . S
H44 C27 0.930 . S
H45 C38 0.929 . S
Cu46 N47 1.999 1_554 S
Cu46 O52 1.974 1_554 S
Cu46 N57 1.985 . S
Cu46 O66 1.959 . S
N47 Cu46 1.999 1_556 S
N47 C49 1.263 . S
N47 C51 1.389 . S
N48 C49 1.358 . S
N48 C50 1.400 . S
C49 N47 1.263 . S
C49 N48 1.358 . S
C49 H55 0.930 . S
C50 N48 1.400 . S
C50 C51 1.351 . S
C50 H67 0.930 . S
C51 N47 1.389 . S
C51 C50 1.351 . S
C51 H56 0.930 . S
O52 Cu46 1.974 1_556 S
O52 C62 1.282 . S
C53 O54 1.261 . S
C53 O66 1.251 . S
O54 C53 1.261 . S
H55 C49 0.930 . S
H56 C51 0.930 . S
N57 Cu46 1.985 . S
N57 C59 1.335 . S
N57 C60 1.390 . S
N58 C59 1.345 . S
N58 C61 1.336 . S
C59 N57 1.335 . S
C59 N58 1.345 . S
C59 H64 0.930 . S
C60 N57 1.390 . S
C60 C61 1.346 . S
C60 H65 0.930 . S
C61 N58 1.336 . S
C61 C60 1.346 . S
C61 H68 0.929 . S
C62 O52 1.282 . S
C62 O63 1.216 1_556 S
O63 C62 1.216 1_554 S
H64 C59 0.930 . S
H65 C60 0.930 . S
O66 Cu46 1.959 . S
O66 C53 1.251 . S
H67 C50 0.930 . S
H68 C61 0.929 . S
Cu69 N70 1.999 1_655 S
Cu69 O75 1.974 1_655 S
Cu69 N80 1.985 . S
Cu69 O89 1.959 . S
N70 Cu69 1.999 1_455 S
N70 C72 1.263 . S
N70 C74 1.389 1_455 S
N71 C72 1.358 . S
N71 C73 1.400 . S
C72 N70 1.263 . S
C72 N71 1.358 . S
C72 H78 0.930 . S
C73 N71 1.400 . S
C73 C74 1.351 1_455 S
C73 H90 0.930 . S
C74 N70 1.389 1_655 S
C74 C73 1.351 1_655 S
C74 H79 0.930 . S
O75 Cu69 1.974 1_455 S
O75 C85 1.282 . S
C76 O77 1.252 1_655 S
C76 O89 1.251 . S
O77 C76 1.252 1_455 S
H78 C72 0.930 . S
H79 C74 0.930 . S
N80 Cu69 1.985 . S
N80 C82 1.335 . S
N80 C83 1.390 . S
N81 C82 1.345 . S
N81 C84 1.336 . S
C82 N80 1.335 . S
C82 N81 1.345 . S
C82 H87 0.930 . S
C83 N80 1.390 . S
C83 C84 1.346 . S
C83 H88 0.930 1_655 S
C84 N81 1.336 . S
C84 C83 1.346 . S
C84 H91 0.929 . S
C85 O75 1.282 . S
C85 O86 1.216 . S
O86 C85 1.216 . S
H87 C82 0.930 . S
H88 C83 0.930 1_455 S
O89 Cu69 1.959 . S
O89 C76 1.251 . S
H90 C73 0.930 . S
H91 C84 0.929 . S
Cu92 N93 1.999 . S
Cu92 O98 1.973 1_554 S
Cu92 N103 1.985 1_545 S
Cu92 O112 1.959 1_545 S
N93 Cu92 1.999 . S
N93 C95 1.263 1_554 S
N93 C97 1.389 . S
N94 C95 1.358 . S
N94 C96 1.400 1_556 S
C95 N93 1.263 1_556 S
C95 N94 1.358 . S
C95 H101 0.930 . S
C96 N94 1.400 1_554 S
C96 C97 1.351 . S
C96 H113 0.930 . S
C97 N93 1.389 . S
C97 C96 1.351 . S
C97 H102 0.930 . S
O98 Cu92 1.973 1_556 S
O98 C108 1.283 . S
C99 O100 1.261 . S
C99 O112 1.251 . S
O100 C99 1.261 . S
H101 C95 0.930 . S
H102 C97 0.930 . S
N103 Cu92 1.985 1_565 S
N103 C105 1.335 . S
N103 C106 1.390 . S
N104 C105 1.345 . S
N104 C107 1.336 . S
C105 N103 1.335 . S
C105 N104 1.345 . S
C105 H110 0.930 . S
C106 N103 1.390 . S
C106 C107 1.346 . S
C106 H111 0.919 1_565 S
C107 N104 1.336 . S
C107 C106 1.346 . S
C107 H114 0.929 . S
C108 O98 1.283 . S
C108 O109 1.216 . S
O109 C108 1.216 . S
H110 C105 0.930 . S
H111 C106 0.919 1_545 S
O112 Cu92 1.959 1_565 S
O112 C99 1.251 . S
H113 C96 0.930 . S
H114 C107 0.929 . S
Cu115 N116 1.999 . S
Cu115 O121 1.974 . S
Cu115 N126 1.985 . S
Cu115 O135 1.959 . S
N116 Cu115 1.999 . S
N116 C118 1.263 . S
N116 C120 1.389 . S
N117 C118 1.358 . S
N117 C119 1.400 . S
C118 N116 1.263 . S
C118 N117 1.358 . S
C118 H124 0.930 . S
C119 N117 1.400 . S
C119 C120 1.351 . S
C119 H136 0.930 . S
C120 N116 1.389 . S
C120 C119 1.351 . S
C120 H125 0.930 . S
O121 Cu115 1.974 . S
O121 C131 1.282 . S
C122 O123 1.261 . S
C122 O135 1.251 . S
O123 C122 1.261 . S
H124 C118 0.930 . S
H125 C120 0.930 . S
N126 Cu115 1.985 . S
N126 C128 1.335 . S
N126 C129 1.390 . S
N127 C128 1.345 . S
N127 C130 1.336 . S
C128 N126 1.335 . S
C128 N127 1.345 . S
C128 H133 0.930 . S
C129 N126 1.390 . S
C129 C130 1.346 . S
C129 H134 0.930 . S
C130 N127 1.336 . S
C130 C129 1.346 . S
C130 H137 0.929 . S
C131 O121 1.282 . S
C131 O132 1.216 . S
O132 C131 1.216 . S
H133 C128 0.930 . S
H134 C129 0.930 . S
O135 Cu115 1.959 . S
O135 C122 1.251 . S
H136 C119 0.930 . S
H137 C130 0.929 . S
C138 C139 1.384 . S
C138 C140 1.384 . S
C138 H166 0.931 . S
C139 C138 1.384 . S
C139 C142 1.382 . S
C140 C138 1.384 . S
C140 C141 1.381 . S
C140 H167 0.930 . S
C141 C140 1.381 . S
C141 C143 1.381 . S
C141 C144 1.487 . S
C142 C139 1.382 . S
C142 C143 1.387 . S
C142 H168 0.930 . S
C143 C141 1.381 . S
C143 C142 1.387 . S
C143 H169 0.931 . S
C144 C141 1.487 . S
C144 C151 1.399 . S
C144 N182 1.343 . S
C145 C146 1.384 . S
C145 C147 1.384 . S
C145 H170 0.931 . S
C146 C145 1.384 . S
C146 C149 1.382 . S
C147 C145 1.384 . S
C147 C148 1.381 . S
C147 H171 0.930 . S
C148 C147 1.381 . S
C148 C150 1.381 . S
C148 C151 1.487 . S
C149 C146 1.382 . S
C149 C150 1.387 . S
C149 H172 0.930 . S
C150 C148 1.381 . S
C150 C149 1.387 . S
C150 H173 0.931 . S
C151 C144 1.399 . S
C151 C148 1.487 . S
C151 N183 1.343 . S
C152 C153 1.384 . S
C152 C154 1.384 . S
C152 H174 0.931 . S
C153 C152 1.384 . S
C153 C156 1.382 . S
C154 C152 1.384 . S
C154 C155 1.381 . S
C154 H175 0.930 . S
C155 C154 1.381 . S
C155 C157 1.381 . S
C155 C158 1.487 . S
C156 C153 1.382 . S
C156 C157 1.387 . S
C156 H176 0.930 . S
C157 C155 1.381 . S
C157 C156 1.387 . S
C157 H177 0.931 . S
C158 C155 1.487 . S
C158 C165 1.399 . S
C158 N183 1.343 . S
C159 C160 1.384 . S
C159 C161 1.384 . S
C159 H178 0.931 . S
C160 C159 1.384 . S
C160 C163 1.382 . S
C161 C159 1.384 . S
C161 C162 1.381 . S
C161 H179 0.930 . S
C162 C161 1.381 . S
C162 C164 1.381 . S
C162 C165 1.487 . S
C163 C160 1.382 . S
C163 C164 1.387 . S
C163 H180 0.930 . S
C164 C162 1.381 . S
C164 C163 1.387 . S
C164 H181 0.931 . S
C165 C158 1.399 . S
C165 C162 1.487 . S
C165 N182 1.343 . S
H166 C138 0.931 . S
H167 C140 0.930 . S
H168 C142 0.930 . S
H169 C143 0.931 . S
H170 C145 0.931 . S
H171 C147 0.930 . S
H172 C149 0.930 . S
H173 C150 0.931 . S
H174 C152 0.931 . S
H175 C154 0.930 . S
H176 C156 0.930 . S
H177 C157 0.931 . S
H178 C159 0.931 . S
H179 C161 0.930 . S
H180 C163 0.930 . S
H181 C164 0.931 . S
N182 C144 1.343 . S
N182 C165 1.343 . S
N183 C151 1.343 . S
N183 C158 1.343 . S
C184 C185 1.384 . S
C184 C186 1.384 . S
C184 H212 0.931 . S
C185 C184 1.384 . S
C185 C188 1.382 . S
C186 C184 1.384 . S
C186 C187 1.381 . S
C186 H213 0.930 . S
C187 C186 1.381 . S
C187 C189 1.381 . S
C187 C190 1.487 . S
C188 C185 1.382 . S
C188 C189 1.387 . S
C188 H214 0.930 . S
C189 C187 1.381 . S
C189 C188 1.387 . S
C189 H215 0.931 . S
C190 C187 1.487 . S
C190 C197 1.399 . S
C190 N228 1.343 . S
C191 C192 1.384 . S
C191 C193 1.384 . S
C191 H216 0.931 . S
C192 C191 1.384 . S
C192 C195 1.382 . S
C193 C191 1.384 . S
C193 C194 1.381 . S
C193 H217 0.930 . S
C194 C193 1.381 . S
C194 C196 1.381 . S
C194 C197 1.487 . S
C195 C192 1.382 . S
C195 C196 1.387 . S
C195 H218 0.930 . S
C196 C194 1.381 . S
C196 C195 1.387 . S
C196 H219 0.931 . S
C197 C190 1.399 . S
C197 C194 1.487 . S
C197 N229 1.343 . S
C198 C199 1.384 . S
C198 C200 1.384 . S
C198 H220 0.931 . S
C199 C198 1.384 . S
C199 C202 1.382 . S
C200 C198 1.384 . S
C200 C201 1.381 . S
C200 H221 0.930 . S
C201 C200 1.381 . S
C201 C203 1.381 . S
C201 C204 1.487 . S
C202 C199 1.382 . S
C202 C203 1.387 . S
C202 H222 0.930 . S
C203 C201 1.381 . S
C203 C202 1.387 . S
C203 H223 0.931 . S
C204 C201 1.487 . S
C204 C211 1.399 . S
C204 N229 1.343 . S
C205 C206 1.384 . S
C205 C207 1.384 . S
C205 H224 0.931 . S
C206 C205 1.384 . S
C206 C209 1.382 . S
C207 C205 1.384 . S
C207 C208 1.381 . S
C207 H225 0.930 . S
C208 C207 1.381 . S
C208 C210 1.381 . S
C208 C211 1.487 . S
C209 C206 1.382 . S
C209 C210 1.387 . S
C209 H226 0.930 . S
C210 C208 1.381 . S
C210 C209 1.387 . S
C210 H227 0.931 . S
C211 C204 1.399 . S
C211 C208 1.487 . S
C211 N228 1.343 . S
H212 C184 0.931 . S
H213 C186 0.930 . S
H214 C188 0.930 . S
H215 C189 0.931 . S
H216 C191 0.931 . S
H217 C193 0.930 . S
H218 C195 0.930 . S
H219 C196 0.931 . S
H220 C198 0.931 . S
H221 C200 0.930 . S
H222 C202 0.930 . S
H223 C203 0.931 . S
H224 C205 0.931 . S
H225 C207 0.930 . S
H226 C209 0.930 . S
H227 C210 0.931 . S
N228 C190 1.343 . S
N228 C211 1.343 . S
N229 C197 1.343 . S
N229 C204 1.343 . S
C230 C231 1.384 . S
C230 C232 1.384 . S
C230 H258 0.931 . S
C231 C230 1.384 . S
C231 C234 1.382 . S
C232 C230 1.384 . S
C232 C233 1.381 . S
C232 H259 0.930 . S
C233 C232 1.381 . S
C233 C235 1.381 . S
C233 C236 1.487 . S
C234 C231 1.382 . S
C234 C235 1.387 . S
C234 H260 0.930 . S
C235 C233 1.381 . S
C235 C234 1.387 . S
C235 H261 0.931 . S
C236 C233 1.487 . S
C236 C243 1.399 . S
C236 N274 1.343 . S
C237 C238 1.384 . S
C237 C239 1.384 . S
C237 H262 0.931 . S
C238 C237 1.384 . S
C238 C241 1.382 . S
C239 C237 1.384 . S
C239 C240 1.381 . S
C239 H263 0.930 . S
C240 C239 1.381 . S
C240 C242 1.381 . S
C240 C243 1.487 . S
C241 C238 1.382 . S
C241 C242 1.387 . S
C241 H264 0.930 . S
C242 C240 1.381 . S
C242 C241 1.387 . S
C242 H265 0.931 . S
C243 C236 1.399 . S
C243 C240 1.487 . S
C243 N275 1.343 . S
C244 C245 1.384 . S
C244 C246 1.384 . S
C244 H266 0.931 . S
C245 C244 1.384 . S
C245 C248 1.382 . S
C246 C244 1.384 . S
C246 C247 1.381 . S
C246 H267 0.930 . S
C247 C246 1.381 . S
C247 C249 1.381 . S
C247 C250 1.487 . S
C248 C245 1.382 . S
C248 C249 1.387 . S
C248 H268 0.930 . S
C249 C247 1.381 . S
C249 C248 1.387 . S
C249 H269 0.931 . S
C250 C247 1.487 . S
C250 C257 1.399 . S
C250 N275 1.343 . S
C251 C252 1.384 . S
C251 C253 1.384 . S
C251 H270 0.931 . S
C252 C251 1.384 . S
C252 C255 1.382 . S
C253 C251 1.384 . S
C253 C254 1.381 . S
C253 H271 0.930 . S
C254 C253 1.381 . S
C254 C256 1.381 . S
C254 C257 1.487 . S
C255 C252 1.382 . S
C255 C256 1.387 . S
C255 H272 0.930 . S
C256 C254 1.381 . S
C256 C255 1.387 . S
C256 H273 0.931 . S
C257 C250 1.399 . S
C257 C254 1.487 . S
C257 N274 1.343 . S
H258 C230 0.931 . S
H259 C232 0.930 . S
H260 C234 0.930 . S
H261 C235 0.931 . S
H262 C237 0.931 . S
H263 C239 0.930 . S
H264 C241 0.930 . S
H265 C242 0.931 . S
H266 C244 0.931 . S
H267 C246 0.930 . S
H268 C248 0.930 . S
H269 C249 0.931 . S
H270 C251 0.931 . S
H271 C253 0.930 . S
H272 C255 0.930 . S
H273 C256 0.931 . S
N274 C236 1.343 . S
N274 C257 1.343 . S
N275 C243 1.343 . S
N275 C250 1.343 . S
C276 C277 1.384 . S
C276 C278 1.384 . S
C276 H304 0.931 . S
C277 C276 1.384 . S
C277 C280 1.382 . S
C278 C276 1.384 . S
C278 C279 1.381 . S
C278 H305 0.930 . S
C279 C278 1.381 . S
C279 C281 1.381 . S
C279 C282 1.487 . S
C280 C277 1.382 . S
C280 C281 1.387 . S
C280 H306 0.930 . S
C281 C279 1.381 . S
C281 C280 1.387 . S
C281 H307 0.931 . S
C282 C279 1.487 . S
C282 C289 1.399 . S
C282 N320 1.343 . S
C283 C284 1.384 . S
C283 C285 1.384 . S
C283 H308 0.931 . S
C284 C283 1.384 . S
C284 C287 1.382 . S
C285 C283 1.384 . S
C285 C286 1.381 . S
C285 H309 0.930 . S
C286 C285 1.381 . S
C286 C288 1.381 . S
C286 C289 1.487 . S
C287 C284 1.382 . S
C287 C288 1.387 . S
C287 H310 0.930 . S
C288 C286 1.381 . S
C288 C287 1.387 . S
C288 H311 0.931 . S
C289 C282 1.399 . S
C289 C286 1.487 . S
C289 N321 1.343 . S
C290 C291 1.384 . S
C290 C292 1.384 . S
C290 H312 0.931 . S
C291 C290 1.384 . S
C291 C294 1.382 . S
C292 C290 1.384 . S
C292 C293 1.381 . S
C292 H313 0.930 . S
C293 C292 1.381 . S
C293 C295 1.381 . S
C293 C296 1.487 . S
C294 C291 1.382 . S
C294 C295 1.387 . S
C294 H314 0.930 . S
C295 C293 1.381 . S
C295 C294 1.387 . S
C295 H315 0.931 . S
C296 C293 1.487 . S
C296 C303 1.399 . S
C296 N321 1.343 . S
C297 C298 1.384 . S
C297 C299 1.384 . S
C297 H316 0.931 . S
C298 C297 1.384 . S
C298 C301 1.382 . S
C299 C297 1.384 . S
C299 C300 1.381 . S
C299 H317 0.930 . S
C300 C299 1.381 . S
C300 C302 1.381 . S
C300 C303 1.487 . S
C301 C298 1.382 . S
C301 C302 1.387 . S
C301 H318 0.930 . S
C302 C300 1.381 . S
C302 C301 1.387 . S
C302 H319 0.931 . S
C303 C296 1.399 . S
C303 C300 1.487 . S
C303 N320 1.343 . S
H304 C276 0.931 . S
H305 C278 0.930 . S
H306 C280 0.930 . S
H307 C281 0.931 . S
H308 C283 0.931 . S
H309 C285 0.930 . S
H310 C287 0.930 . S
H311 C288 0.931 . S
H312 C290 0.931 . S
H313 C292 0.930 . S
H314 C294 0.930 . S
H315 C295 0.931 . S
H316 C297 0.931 . S
H317 C299 0.930 . S
H318 C301 0.930 . S
H319 C302 0.931 . S
N320 C282 1.343 . S
N320 C303 1.343 . S
N321 C289 1.343 . S
N321 C296 1.343 . S
C322 C323 1.384 . S
C322 C324 1.384 . S
C322 H350 0.931 . S
C323 C322 1.384 . S
C323 C326 1.382 . S
C324 C322 1.384 . S
C324 C325 1.381 . S
C324 H351 0.930 . S
C325 C324 1.381 . S
C325 C327 1.381 . S
C325 C328 1.487 . S
C326 C323 1.382 . S
C326 C327 1.387 . S
C326 H352 0.930 . S
C327 C325 1.381 . S
C327 C326 1.387 . S
C327 H353 0.931 . S
C328 C325 1.487 . S
C328 C335 1.399 . S
C328 N366 1.343 . S
C329 C330 1.384 . S
C329 C331 1.384 . S
C329 H354 0.931 . S
C330 C329 1.384 . S
C330 C333 1.382 . S
C331 C329 1.384 . S
C331 C332 1.381 . S
C331 H355 0.930 . S
C332 C331 1.381 . S
C332 C334 1.381 . S
C332 C335 1.487 . S
C333 C330 1.382 . S
C333 C334 1.387 . S
C333 H356 0.930 . S
C334 C332 1.381 . S
C334 C333 1.387 . S
C334 H357 0.931 . S
C335 C328 1.399 . S
C335 C332 1.487 . S
C335 N367 1.343 . S
C336 C337 1.384 . S
C336 C338 1.384 . S
C336 H358 0.931 . S
C337 C336 1.384 . S
C337 C340 1.382 . S
C338 C336 1.384 . S
C338 C339 1.381 . S
C338 H359 0.930 . S
C339 C338 1.381 . S
C339 C341 1.381 . S
C339 C342 1.487 . S
C340 C337 1.382 . S
C340 C341 1.387 . S
C340 H360 0.930 . S
C341 C339 1.381 . S
C341 C340 1.387 . S
C341 H361 0.931 . S
C342 C339 1.487 . S
C342 C349 1.399 . S
C342 N367 1.343 . S
C343 C344 1.384 . S
C343 C345 1.384 . S
C343 H362 0.931 . S
C344 C343 1.384 . S
C344 C347 1.382 . S
C345 C343 1.384 . S
C345 C346 1.381 . S
C345 H363 0.930 . S
C346 C345 1.381 . S
C346 C348 1.381 . S
C346 C349 1.487 . S
C347 C344 1.382 . S
C347 C348 1.387 . S
C347 H364 0.930 . S
C348 C346 1.381 . S
C348 C347 1.387 . S
C348 H365 0.931 . S
C349 C342 1.399 . S
C349 C346 1.487 . S
C349 N366 1.343 . S
H350 C322 0.931 . S
H351 C324 0.930 . S
H352 C326 0.930 . S
H353 C327 0.931 . S
H354 C329 0.931 . S
H355 C331 0.930 . S
H356 C333 0.930 . S
H357 C334 0.931 . S
H358 C336 0.931 . S
H359 C338 0.930 . S
H360 C340 0.930 . S
H361 C341 0.931 . S
H362 C343 0.931 . S
H363 C345 0.930 . S
H364 C347 0.930 . S
H365 C348 0.931 . S
N366 C328 1.343 . S
N366 C349 1.343 . S
N367 C335 1.343 . S
N367 C342 1.343 . S
C368 C369 1.384 . S
C368 C370 1.384 . S
C368 H396 0.931 . S
C369 C368 1.384 . S
C369 C372 1.382 . S
C370 C368 1.384 . S
C370 C371 1.381 . S
C370 H397 0.930 . S
C371 C370 1.381 . S
C371 C373 1.381 . S
C371 C374 1.487 . S
C372 C369 1.382 . S
C372 C373 1.387 . S
C372 H398 0.930 . S
C373 C371 1.381 . S
C373 C372 1.387 . S
C373 H399 0.931 . S
C374 C371 1.487 . S
C374 C381 1.399 . S
C374 N412 1.343 . S
C375 C376 1.384 . S
C375 C377 1.384 . S
C375 H400 0.931 . S
C376 C375 1.384 . S
C376 C379 1.382 . S
C377 C375 1.384 . S
C377 C378 1.381 . S
C377 H401 0.930 . S
C378 C377 1.381 . S
C378 C380 1.381 . S
C378 C381 1.487 . S
C379 C376 1.382 . S
C379 C380 1.387 . S
C379 H402 0.930 . S
C380 C378 1.381 . S
C380 C379 1.387 . S
C380 H403 0.931 . S
C381 C374 1.399 . S
C381 C378 1.487 . S
C381 N413 1.343 . S
C382 C383 1.384 . S
C382 C384 1.384 . S
C382 H404 0.931 . S
C383 C382 1.384 . S
C383 C386 1.382 . S
C384 C382 1.384 . S
C384 C385 1.381 . S
C384 H405 0.930 . S
C385 C384 1.381 . S
C385 C387 1.381 . S
C385 C388 1.487 . S
C386 C383 1.382 . S
C386 C387 1.387 . S
C386 H406 0.930 . S
C387 C385 1.381 . S
C387 C386 1.387 . S
C387 H407 0.931 . S
C388 C385 1.487 . S
C388 C395 1.399 . S
C388 N413 1.343 . S
C389 C390 1.384 . S
C389 C391 1.384 . S
C389 H408 0.931 . S
C390 C389 1.384 . S
C390 C393 1.382 . S
C391 C389 1.384 . S
C391 C392 1.381 . S
C391 H409 0.930 . S
C392 C391 1.381 . S
C392 C394 1.381 . S
C392 C395 1.487 . S
C393 C390 1.382 . S
C393 C394 1.387 . S
C393 H410 0.930 . S
C394 C392 1.381 . S
C394 C393 1.387 . S
C394 H411 0.931 . S
C395 C388 1.399 . S
C395 C392 1.487 . S
C395 N412 1.343 . S
H396 C368 0.931 . S
H397 C370 0.930 . S
H398 C372 0.930 . S
H399 C373 0.931 . S
H400 C375 0.931 . S
H401 C377 0.930 . S
H402 C379 0.930 . S
H403 C380 0.931 . S
H404 C382 0.931 . S
H405 C384 0.930 . S
H406 C386 0.930 . S
H407 C387 0.931 . S
H408 C389 0.931 . S
H409 C391 0.930 . S
H410 C393 0.930 . S
H411 C394 0.931 . S
N412 C374 1.343 . S
N412 C395 1.343 . S
N413 C381 1.343 . S
N413 C388 1.343 . S
C414 C415 1.349 . S
C414 C416 1.327 . S
C414 H439 0.950 . S
C415 C414 1.349 . S
C415 C431 1.349 . S
C416 C414 1.327 . S
C416 C435 1.429 . S
C416 H440 0.950 . S
C417 C434 1.574 . S
C417 C436 1.368 . S
C417 H441 0.949 . S
H418 C422 0.949 . S
C419 C420 1.349 . S
C419 C421 1.327 . S
C419 H442 0.950 . S
C420 C419 1.349 . S
C420 C432 1.349 . S
C421 C419 1.327 . S
C421 C437 1.429 . S
C421 H443 0.950 . S
C422 H418 0.949 . S
C422 C430 1.574 . S
C422 C438 1.368 . S
H423 C431 0.950 . S
H424 C429 0.950 . S
H425 C430 0.949 . S
H426 C432 0.950 . S
H427 C433 0.950 . S
H428 C434 0.949 . S
C429 H424 0.950 . S
C429 C431 1.327 . S
C429 C435 1.429 . S
C430 C422 1.574 . S
C430 H425 0.949 . S
C430 C436 1.368 . S
C431 C415 1.349 . S
C431 H423 0.950 . S
C431 C429 1.327 . S
C432 C420 1.349 . S
C432 H426 0.950 . S
C432 C433 1.327 . S
C433 H427 0.950 . S
C433 C432 1.327 . S
C433 C437 1.429 . S
C434 C417 1.574 . S
C434 H428 0.949 . S
C434 C438 1.368 . S
C435 C416 1.429 . S
C435 C429 1.429 . S
C435 C436 1.523 . S
C436 C417 1.368 . S
C436 C430 1.368 . S
C436 C435 1.523 . S
C437 C421 1.429 . S
C437 C433 1.429 . S
C437 C438 1.523 . S
C438 C422 1.368 . S
C438 C434 1.368 . S
C438 C437 1.523 . S
H439 C414 0.950 . S
H440 C416 0.950 . S
H441 C417 0.949 . S
H442 C419 0.950 . S
H443 C421 0.950 . S
C444 C445 1.349 . S
C444 C446 1.327 . S
C444 H469 0.950 . S
C445 C444 1.349 . S
C445 C461 1.349 . S
C446 C444 1.327 . S
C446 C465 1.429 . S
C446 H470 0.950 . S
C447 C464 1.574 . S
C447 C466 1.368 . S
C447 H471 0.949 . S
H448 C452 0.949 . S
C449 C450 1.349 . S
C449 C451 1.327 . S
C449 H472 0.950 . S
C450 C449 1.349 . S
C450 C462 1.349 . S
C451 C449 1.327 . S
C451 C467 1.429 . S
C451 H473 0.950 . S
C452 H448 0.949 . S
C452 C460 1.574 . S
C452 C468 1.368 . S
H453 C461 0.950 . S
H454 C459 0.950 . S
H455 C460 0.949 . S
H456 C462 0.950 . S
H457 C463 0.950 . S
H458 C464 0.949 . S
C459 H454 0.950 . S
C459 C461 1.327 . S
C459 C465 1.429 . S
C460 C452 1.574 . S
C460 H455 0.949 . S
C460 C466 1.368 . S
C461 C445 1.349 . S
C461 H453 0.950 . S
C461 C459 1.327 . S
C462 C450 1.349 . S
C462 H456 0.950 . S
C462 C463 1.327 . S
C463 H457 0.950 . S
C463 C462 1.327 . S
C463 C467 1.429 . S
C464 C447 1.574 . S
C464 H458 0.949 . S
C464 C468 1.368 . S
C465 C446 1.429 . S
C465 C459 1.429 . S
C465 C466 1.523 . S
C466 C447 1.368 . S
C466 C460 1.368 . S
C466 C465 1.523 . S
C467 C451 1.429 . S
C467 C463 1.429 . S
C467 C468 1.523 . S
C468 C452 1.368 . S
C468 C464 1.368 . S
C468 C467 1.523 . S
H469 C444 0.950 . S
H470 C446 0.950 . S
H471 C447 0.949 . S
H472 C449 0.950 . S
H473 C451 0.950 . S
C474 C475 1.349 . S
C474 C476 1.327 . S
C474 H499 0.950 . S
C475 C474 1.349 . S
C475 C491 1.349 . S
C476 C474 1.327 . S
C476 C495 1.429 . S
C476 H500 0.950 . S
C477 C494 1.574 . S
C477 C496 1.368 . S
C477 H501 0.949 . S
H478 C482 0.949 . S
C479 C480 1.349 . S
C479 C481 1.327 . S
C479 H502 0.950 . S
C480 C479 1.349 . S
C480 C492 1.349 . S
C481 C479 1.327 . S
C481 C497 1.429 . S
C481 H503 0.950 . S
C482 H478 0.949 . S
C482 C490 1.574 . S
C482 C498 1.368 . S
H483 C491 0.950 . S
H484 C489 0.950 . S
H485 C490 0.949 . S
H486 C492 0.950 . S
H487 C493 0.950 . S
H488 C494 0.949 . S
C489 H484 0.950 . S
C489 C491 1.327 . S
C489 C495 1.429 . S
C490 C482 1.574 . S
C490 H485 0.949 . S
C490 C496 1.368 . S
C491 C475 1.349 . S
C491 H483 0.950 . S
C491 C489 1.327 . S
C492 C480 1.349 . S
C492 H486 0.950 . S
C492 C493 1.327 . S
C493 H487 0.950 . S
C493 C492 1.327 . S
C493 C497 1.429 . S
C494 C477 1.574 . S
C494 H488 0.949 . S
C494 C498 1.368 . S
C495 C476 1.429 . S
C495 C489 1.429 . S
C495 C496 1.523 . S
C496 C477 1.368 . S
C496 C490 1.368 . S
C496 C495 1.523 . S
C497 C481 1.429 . S
C497 C493 1.429 . S
C497 C498 1.523 . S
C498 C482 1.368 . S
C498 C494 1.368 . S
C498 C497 1.523 . S
H499 C474 0.950 . S
H500 C476 0.950 . S
H501 C477 0.949 . S
H502 C479 0.950 . S
H503 C481 0.950 . S
C504 C505 1.349 . S
C504 C506 1.327 . S
C504 H529 0.950 . S
C505 C504 1.349 . S
C505 C521 1.349 . S
C506 C504 1.327 . S
C506 C525 1.429 . S
C506 H530 0.950 . S
C507 C524 1.574 . S
C507 C526 1.368 . S
C507 H531 0.949 . S
H508 C512 0.949 . S
C509 C510 1.349 . S
C509 C511 1.327 . S
C509 H532 0.950 . S
C510 C509 1.349 . S
C510 C522 1.349 . S
C511 C509 1.327 . S
C511 C527 1.429 . S
C511 H533 0.950 . S
C512 H508 0.949 . S
C512 C520 1.574 . S
C512 C528 1.368 . S
H513 C521 0.950 . S
H514 C519 0.950 . S
H515 C520 0.949 . S
H516 C522 0.950 . S
H517 C523 0.950 . S
H518 C524 0.949 . S
C519 H514 0.950 . S
C519 C521 1.327 . S
C519 C525 1.429 . S
C520 C512 1.574 . S
C520 H515 0.949 . S
C520 C526 1.368 . S
C521 C505 1.349 . S
C521 H513 0.950 . S
C521 C519 1.327 . S
C522 C510 1.349 . S
C522 H516 0.950 . S
C522 C523 1.327 . S
C523 H517 0.950 . S
C523 C522 1.327 . S
C523 C527 1.429 . S
C524 C507 1.574 . S
C524 H518 0.949 . S
C524 C528 1.368 . S
C525 C506 1.429 . S
C525 C519 1.429 . S
C525 C526 1.523 . S
C526 C507 1.368 . S
C526 C520 1.368 . S
C526 C525 1.523 . S
C527 C511 1.429 . S
C527 C523 1.429 . S
C527 C528 1.523 . S
C528 C512 1.368 . S
C528 C524 1.368 . S
C528 C527 1.523 . S
H529 C504 0.950 . S
H530 C506 0.950 . S
H531 C507 0.949 . S
H532 C509 0.950 . S
H533 C511 0.950 . S
C534 C535 1.349 . S
C534 C536 1.327 . S
C534 H559 0.950 . S
C535 C534 1.349 . S
C535 C551 1.349 . S
C536 C534 1.327 . S
C536 C555 1.429 . S
C536 H560 0.950 . S
C537 C554 1.574 . S
C537 C556 1.368 . S
C537 H561 0.949 . S
H538 C542 0.949 . S
C539 C540 1.349 . S
C539 C541 1.327 . S
C539 H562 0.950 . S
C540 C539 1.349 . S
C540 C552 1.349 . S
C541 C539 1.327 . S
C541 C557 1.429 . S
C541 H563 0.950 . S
C542 H538 0.949 . S
C542 C550 1.574 . S
C542 C558 1.368 . S
H543 C551 0.950 . S
H544 C549 0.950 . S
H545 C550 0.949 . S
H546 C552 0.950 . S
H547 C553 0.950 . S
H548 C554 0.949 . S
C549 H544 0.950 . S
C549 C551 1.327 . S
C549 C555 1.429 . S
C550 C542 1.574 . S
C550 H545 0.949 . S
C550 C556 1.368 . S
C551 C535 1.349 . S
C551 H543 0.950 . S
C551 C549 1.327 . S
C552 C540 1.349 . S
C552 H546 0.950 . S
C552 C553 1.327 . S
C553 H547 0.950 . S
C553 C552 1.327 . S
C553 C557 1.429 . S
C554 C537 1.574 . S
C554 H548 0.949 . S
C554 C558 1.368 . S
C555 C536 1.429 . S
C555 C549 1.429 . S
C555 C556 1.523 . S
C556 C537 1.368 . S
C556 C550 1.368 . S
C556 C555 1.523 . S
C557 C541 1.429 . S
C557 C553 1.429 . S
C557 C558 1.523 . S
C558 C542 1.368 . S
C558 C554 1.368 . S
C558 C557 1.523 . S
H559 C534 0.950 . S
H560 C536 0.950 . S
H561 C537 0.949 . S
H562 C539 0.950 . S
H563 C541 0.950 . S
C564 C565 1.349 . S
C564 C566 1.327 . S
C564 H589 0.950 . S
C565 C564 1.349 . S
C565 C581 1.349 . S
C566 C564 1.327 . S
C566 C585 1.429 . S
C566 H590 0.950 . S
C567 C584 1.574 . S
C567 C586 1.368 . S
C567 H591 0.949 . S
H568 C572 0.949 . S
C569 C570 1.349 . S
C569 C571 1.327 . S
C569 H592 0.950 . S
C570 C569 1.349 . S
C570 C582 1.349 . S
C571 C569 1.327 . S
C571 C587 1.429 . S
C571 H593 0.950 . S
C572 H568 0.949 . S
C572 C580 1.574 . S
C572 C588 1.368 . S
H573 C581 0.950 . S
H574 C579 0.950 . S
H575 C580 0.949 . S
H576 C582 0.950 . S
H577 C583 0.950 . S
H578 C584 0.949 . S
C579 H574 0.950 . S
C579 C581 1.327 . S
C579 C585 1.429 . S
C580 C572 1.574 . S
C580 H575 0.949 . S
C580 C586 1.368 . S
C581 C565 1.349 . S
C581 H573 0.950 . S
C581 C579 1.327 . S
C582 C570 1.349 . S
C582 H576 0.950 . S
C582 C583 1.327 . S
C583 H577 0.950 . S
C583 C582 1.327 . S
C583 C587 1.429 . S
C584 C567 1.574 . S
C584 H578 0.949 . S
C584 C588 1.368 . S
C585 C566 1.429 . S
C585 C579 1.429 . S
C585 C586 1.523 . S
C586 C567 1.368 . S
C586 C580 1.368 . S
C586 C585 1.523 . S
C587 C571 1.429 . S
C587 C583 1.429 . S
C587 C588 1.523 . S
C588 C572 1.368 . S
C588 C584 1.368 . S
C588 C587 1.523 . S
H589 C564 0.950 . S
H590 C566 0.950 . S
H591 C567 0.949 . S
H592 C569 0.950 . S
H593 C571 0.950 . S
C594 C595 1.349 . S
C594 C596 1.327 . S
C594 H619 0.950 . S
C595 C594 1.349 . S
C595 C611 1.349 . S
C596 C594 1.327 . S
C596 C615 1.429 . S
C596 H620 0.950 . S
C597 C614 1.574 . S
C597 C616 1.368 . S
C597 H621 0.949 . S
H598 C602 0.949 . S
C599 C600 1.349 . S
C599 C601 1.327 . S
C599 H622 0.950 . S
C600 C599 1.349 . S
C600 C612 1.349 . S
C601 C599 1.327 . S
C601 C617 1.429 . S
C601 H623 0.950 . S
C602 H598 0.949 . S
C602 C610 1.574 . S
C602 C618 1.368 . S
H603 C611 0.950 . S
H604 C609 0.950 . S
H605 C610 0.949 . S
H606 C612 0.950 . S
H607 C613 0.950 . S
H608 C614 0.949 . S
C609 H604 0.950 . S
C609 C611 1.327 . S
C609 C615 1.429 . S
C610 C602 1.574 . S
C610 H605 0.949 . S
C610 C616 1.368 . S
C611 C595 1.349 . S
C611 H603 0.950 . S
C611 C609 1.327 . S
C612 C600 1.349 . S
C612 H606 0.950 . S
C612 C613 1.327 . S
C613 H607 0.950 . S
C613 C612 1.327 . S
C613 C617 1.429 . S
C614 C597 1.574 . S
C614 H608 0.949 . S
C614 C618 1.368 . S
C615 C596 1.429 . S
C615 C609 1.429 . S
C615 C616 1.523 . S
C616 C597 1.368 . S
C616 C610 1.368 . S
C616 C615 1.523 . S
C617 C601 1.429 . S
C617 C613 1.429 . S
C617 C618 1.523 . S
C618 C602 1.368 . S
C618 C614 1.368 . S
C618 C617 1.523 . S
H619 C594 0.950 . S
H620 C596 0.950 . S
H621 C597 0.949 . S
H622 C599 0.950 . S
H623 C601 0.950 . S
C624 C625 1.349 . S
C624 C626 1.327 . S
C624 H649 0.950 . S
C625 C624 1.349 . S
C625 C641 1.349 . S
C626 C624 1.327 . S
C626 C645 1.429 . S
C626 H650 0.950 . S
C627 C644 1.574 . S
C627 C646 1.368 . S
C627 H651 0.949 . S
H628 C632 0.949 . S
C629 C630 1.349 . S
C629 C631 1.327 . S
C629 H652 0.950 . S
C630 C629 1.349 . S
C630 C642 1.349 . S
C631 C629 1.327 . S
C631 C647 1.429 . S
C631 H653 0.950 . S
C632 H628 0.949 . S
C632 C640 1.574 . S
C632 C648 1.368 . S
H633 C641 0.950 . S
H634 C639 0.950 . S
H635 C640 0.949 . S
H636 C642 0.950 . S
H637 C643 0.950 . S
H638 C644 0.949 . S
C639 H634 0.950 . S
C639 C641 1.327 . S
C639 C645 1.429 . S
C640 C632 1.574 . S
C640 H635 0.949 . S
C640 C646 1.368 . S
C641 C625 1.349 . S
C641 H633 0.950 . S
C641 C639 1.327 . S
C642 C630 1.349 . S
C642 H636 0.950 . S
C642 C643 1.327 . S
C643 H637 0.950 . S
C643 C642 1.327 . S
C643 C647 1.429 . S
C644 C627 1.574 . S
C644 H638 0.949 . S
C644 C648 1.368 . S
C645 C626 1.429 . S
C645 C639 1.429 . S
C645 C646 1.523 . S
C646 C627 1.368 . S
C646 C640 1.368 . S
C646 C645 1.523 . S
C647 C631 1.429 . S
C647 C643 1.429 . S
C647 C648 1.523 . S
C648 C632 1.368 . S
C648 C644 1.368 . S
C648 C647 1.523 . S
H649 C624 0.950 . S
H650 C626 0.950 . S
H651 C627 0.949 . S
H652 C629 0.950 . S
H653 C631 0.950 . S
C654 C655 1.349 . S
C654 C656 1.327 . S
C654 H679 0.950 . S
C655 C654 1.349 . S
C655 C671 1.349 . S
C656 C654 1.327 . S
C656 C675 1.429 . S
C656 H680 0.950 . S
C657 C674 1.574 . S
C657 C676 1.368 . S
C657 H681 0.949 . S
H658 C662 0.949 . S
C659 C660 1.349 . S
C659 C661 1.327 . S
C659 H682 0.950 . S
C660 C659 1.349 . S
C660 C672 1.349 . S
C661 C659 1.327 . S
C661 C677 1.429 . S
C661 H683 0.950 . S
C662 H658 0.949 . S
C662 C670 1.574 . S
C662 C678 1.368 . S
H663 C671 0.950 . S
H664 C669 0.950 . S
H665 C670 0.949 . S
H666 C672 0.950 . S
H667 C673 0.950 . S
H668 C674 0.949 . S
C669 H664 0.950 . S
C669 C671 1.327 . S
C669 C675 1.429 . S
C670 C662 1.574 . S
C670 H665 0.949 . S
C670 C676 1.368 . S
C671 C655 1.349 . S
C671 H663 0.950 . S
C671 C669 1.327 . S
C672 C660 1.349 . S
C672 H666 0.950 . S
C672 C673 1.327 . S
C673 H667 0.950 . S
C673 C672 1.327 . S
C673 C677 1.429 . S
C674 C657 1.574 . S
C674 H668 0.949 . S
C674 C678 1.368 . S
C675 C656 1.429 . S
C675 C669 1.429 . S
C675 C676 1.523 . S
C676 C657 1.368 . S
C676 C670 1.368 . S
C676 C675 1.523 . S
C677 C661 1.429 . S
C677 C673 1.429 . S
C677 C678 1.523 . S
C678 C662 1.368 . S
C678 C674 1.368 . S
C678 C677 1.523 . S
H679 C654 0.950 . S
H680 C656 0.950 . S
H681 C657 0.949 . S
H682 C659 0.950 . S
H683 C661 0.950 . S
C684 C685 1.349 . S
C684 C686 1.327 . S
C684 H709 0.950 . S
C685 C684 1.349 . S
C685 C701 1.349 . S
C686 C684 1.327 . S
C686 C705 1.429 . S
C686 H710 0.950 . S
C687 C704 1.574 . S
C687 C706 1.368 . S
C687 H711 0.949 . S
H688 C692 0.949 . S
C689 C690 1.349 . S
C689 C691 1.327 . S
C689 H712 0.950 . S
C690 C689 1.349 . S
C690 C702 1.349 . S
C691 C689 1.327 . S
C691 C707 1.429 . S
C691 H713 0.950 . S
C692 H688 0.949 . S
C692 C700 1.574 . S
C692 C708 1.368 . S
H693 C701 0.950 . S
H694 C699 0.950 . S
H695 C700 0.949 . S
H696 C702 0.950 . S
H697 C703 0.950 . S
H698 C704 0.949 . S
C699 H694 0.950 . S
C699 C701 1.327 . S
C699 C705 1.429 . S
C700 C692 1.574 . S
C700 H695 0.949 . S
C700 C706 1.368 . S
C701 C685 1.349 . S
C701 H693 0.950 . S
C701 C699 1.327 . S
C702 C690 1.349 . S
C702 H696 0.950 . S
C702 C703 1.327 . S
C703 H697 0.950 . S
C703 C702 1.327 . S
C703 C707 1.429 . S
C704 C687 1.574 . S
C704 H698 0.949 . S
C704 C708 1.368 . S
C705 C686 1.429 . S
C705 C699 1.429 . S
C705 C706 1.523 . S
C706 C687 1.368 . S
C706 C700 1.368 . S
C706 C705 1.523 . S
C707 C691 1.429 . S
C707 C703 1.429 . S
C707 C708 1.523 . S
C708 C692 1.368 . S
C708 C704 1.368 . S
C708 C707 1.523 . S
H709 C684 0.950 . S
H710 C686 0.950 . S
H711 C687 0.949 . S
H712 C689 0.950 . S
H713 C691 0.950 . S
C714 C715 1.349 . S
C714 C716 1.327 . S
C714 H739 0.950 . S
C715 C714 1.349 . S
C715 C731 1.349 . S
C716 C714 1.327 . S
C716 C735 1.429 . S
C716 H740 0.950 . S
C717 C734 1.574 . S
C717 C736 1.368 . S
C717 H741 0.949 . S
H718 C722 0.949 . S
C719 C720 1.349 . S
C719 C721 1.327 . S
C719 H742 0.950 . S
C720 C719 1.349 . S
C720 C732 1.349 . S
C721 C719 1.327 . S
C721 C737 1.429 . S
C721 H743 0.950 . S
C722 H718 0.949 . S
C722 C730 1.574 . S
C722 C738 1.368 . S
H723 C731 0.950 . S
H724 C729 0.950 . S
H725 C730 0.949 . S
H726 C732 0.950 . S
H727 C733 0.950 . S
H728 C734 0.949 . S
C729 H724 0.950 . S
C729 C731 1.327 . S
C729 C735 1.429 . S
C730 C722 1.574 . S
C730 H725 0.949 . S
C730 C736 1.368 . S
C731 C715 1.349 . S
C731 H723 0.950 . S
C731 C729 1.327 . S
C732 C720 1.349 . S
C732 H726 0.950 . S
C732 C733 1.327 . S
C733 H727 0.950 . S
C733 C732 1.327 . S
C733 C737 1.429 . S
C734 C717 1.574 . S
C734 H728 0.949 . S
C734 C738 1.368 . S
C735 C716 1.429 . S
C735 C729 1.429 . S
C735 C736 1.523 . S
C736 C717 1.368 . S
C736 C730 1.368 . S
C736 C735 1.523 . S
C737 C721 1.429 . S
C737 C733 1.429 . S
C737 C738 1.523 . S
C738 C722 1.368 . S
C738 C734 1.368 . S
C738 C737 1.523 . S
H739 C714 0.950 . S
H740 C716 0.950 . S
H741 C717 0.949 . S
H742 C719 0.950 . S
H743 C721 0.950 . S
C744 C745 1.349 . S
C744 C746 1.327 . S
C744 H769 0.950 . S
C745 C744 1.349 . S
C745 C761 1.349 . S
C746 C744 1.327 . S
C746 C765 1.429 . S
C746 H770 0.950 . S
C747 C764 1.574 . S
C747 C766 1.368 . S
C747 H771 0.949 . S
H748 C752 0.949 . S
C749 C750 1.349 . S
C749 C751 1.327 . S
C749 H772 0.950 . S
C750 C749 1.349 . S
C750 C762 1.349 . S
C751 C749 1.327 . S
C751 C767 1.429 . S
C751 H773 0.950 . S
C752 H748 0.949 . S
C752 C760 1.574 . S
C752 C768 1.368 . S
H753 C761 0.950 . S
H754 C759 0.950 . S
H755 C760 0.949 . S
H756 C762 0.950 . S
H757 C763 0.950 . S
H758 C764 0.949 . S
C759 H754 0.950 . S
C759 C761 1.327 . S
C759 C765 1.429 . S
C760 C752 1.574 . S
C760 H755 0.949 . S
C760 C766 1.368 . S
C761 C745 1.349 . S
C761 H753 0.950 . S
C761 C759 1.327 . S
C762 C750 1.349 . S
C762 H756 0.950 . S
C762 C763 1.327 . S
C763 H757 0.950 . S
C763 C762 1.327 . S
C763 C767 1.429 . S
C764 C747 1.574 . S
C764 H758 0.949 . S
C764 C768 1.368 . S
C765 C746 1.429 . S
C765 C759 1.429 . S
C765 C766 1.523 . S
C766 C747 1.368 . S
C766 C760 1.368 . S
C766 C765 1.523 . S
C767 C751 1.429 . S
C767 C763 1.429 . S
C767 C768 1.523 . S
C768 C752 1.368 . S
C768 C764 1.368 . S
C768 C767 1.523 . S
H769 C744 0.950 . S
H770 C746 0.950 . S
H771 C747 0.949 . S
H772 C749 0.950 . S
H773 C751 0.950 . S
C774 C775 1.349 . S
C774 C776 1.327 . S
C774 H799 0.950 . S
C775 C774 1.349 . S
C775 C791 1.349 . S
C776 C774 1.327 . S
C776 C795 1.429 . S
C776 H800 0.950 . S
C777 C794 1.574 . S
C777 C796 1.368 . S
C777 H801 0.949 . S
H778 C782 0.949 . S
C779 C780 1.349 . S
C779 C781 1.327 . S
C779 H802 0.950 . S
C780 C779 1.349 . S
C780 C792 1.349 . S
C781 C779 1.327 . S
C781 C797 1.429 . S
C781 H803 0.950 . S
C782 H778 0.949 . S
C782 C790 1.574 . S
C782 C798 1.368 . S
H783 C791 0.950 . S
H784 C789 0.950 . S
H785 C790 0.949 . S
H786 C792 0.950 . S
H787 C793 0.950 . S
H788 C794 0.949 . S
C789 H784 0.950 . S
C789 C791 1.327 . S
C789 C795 1.429 . S
C790 C782 1.574 . S
C790 H785 0.949 . S
C790 C796 1.368 . S
C791 C775 1.349 . S
C791 H783 0.950 . S
C791 C789 1.327 . S
C792 C780 1.349 . S
C792 H786 0.950 . S
C792 C793 1.327 . S
C793 H787 0.950 . S
C793 C792 1.327 . S
C793 C797 1.429 . S
C794 C777 1.574 . S
C794 H788 0.949 . S
C794 C798 1.368 . S
C795 C776 1.429 . S
C795 C789 1.429 . S
C795 C796 1.523 . S
C796 C777 1.368 . S
C796 C790 1.368 . S
C796 C795 1.523 . S
C797 C781 1.429 . S
C797 C793 1.429 . S
C797 C798 1.523 . S
C798 C782 1.368 . S
C798 C794 1.368 . S
C798 C797 1.523 . S
H799 C774 0.950 . S
H800 C776 0.950 . S
H801 C777 0.949 . S
H802 C779 0.950 . S
H803 C781 0.950 . S
C804 C805 1.349 . S
C804 C806 1.327 . S
C804 H829 0.950 . S
C805 C804 1.349 . S
C805 C821 1.349 . S
C806 C804 1.327 . S
C806 C825 1.429 . S
C806 H830 0.950 . S
C807 C824 1.574 . S
C807 C826 1.368 . S
C807 H831 0.949 . S
H808 C812 0.949 . S
C809 C810 1.349 . S
C809 C811 1.327 . S
C809 H832 0.950 . S
C810 C809 1.349 . S
C810 C822 1.349 . S
C811 C809 1.327 . S
C811 C827 1.429 . S
C811 H833 0.950 . S
C812 H808 0.949 . S
C812 C820 1.574 . S
C812 C828 1.368 . S
H813 C821 0.950 . S
H814 C819 0.950 . S
H815 C820 0.949 . S
H816 C822 0.950 . S
H817 C823 0.950 . S
H818 C824 0.949 . S
C819 H814 0.950 . S
C819 C821 1.327 . S
C819 C825 1.429 . S
C820 C812 1.574 . S
C820 H815 0.949 . S
C820 C826 1.368 . S
C821 C805 1.349 . S
C821 H813 0.950 . S
C821 C819 1.327 . S
C822 C810 1.349 . S
C822 H816 0.950 . S
C822 C823 1.327 . S
C823 H817 0.950 . S
C823 C822 1.327 . S
C823 C827 1.429 . S
C824 C807 1.574 . S
C824 H818 0.949 . S
C824 C828 1.368 . S
C825 C806 1.429 . S
C825 C819 1.429 . S
C825 C826 1.523 . S
C826 C807 1.368 . S
C826 C820 1.368 . S
C826 C825 1.523 . S
C827 C811 1.429 . S
C827 C823 1.429 . S
C827 C828 1.523 . S
C828 C812 1.368 . S
C828 C824 1.368 . S
C828 C827 1.523 . S
H829 C804 0.950 . S
H830 C806 0.950 . S
H831 C807 0.949 . S
H832 C809 0.950 . S
H833 C811 0.950 . S
C834 C835 1.349 . S
C834 C836 1.327 . S
C834 H859 0.950 . S
C835 C834 1.349 . S
C835 C851 1.349 . S
C836 C834 1.327 . S
C836 C855 1.429 . S
C836 H860 0.950 . S
C837 C854 1.574 . S
C837 C856 1.368 . S
C837 H861 0.949 . S
H838 C842 0.949 . S
C839 C840 1.349 . S
C839 C841 1.327 . S
C839 H862 0.950 . S
C840 C839 1.349 . S
C840 C852 1.349 . S
C841 C839 1.327 . S
C841 C857 1.429 . S
C841 H863 0.950 . S
C842 H838 0.949 . S
C842 C850 1.574 . S
C842 C858 1.368 . S
H843 C851 0.950 . S
H844 C849 0.950 . S
H845 C850 0.949 . S
H846 C852 0.950 . S
H847 C853 0.950 . S
H848 C854 0.949 . S
C849 H844 0.950 . S
C849 C851 1.327 . S
C849 C855 1.429 . S
C850 C842 1.574 . S
C850 H845 0.949 . S
C850 C856 1.368 . S
C851 C835 1.349 . S
C851 H843 0.950 . S
C851 C849 1.327 . S
C852 C840 1.349 . S
C852 H846 0.950 . S
C852 C853 1.327 . S
C853 H847 0.950 . S
C853 C852 1.327 . S
C853 C857 1.429 . S
C854 C837 1.574 . S
C854 H848 0.949 . S
C854 C858 1.368 . S
C855 C836 1.429 . S
C855 C849 1.429 . S
C855 C856 1.523 . S
C856 C837 1.368 . S
C856 C850 1.368 . S
C856 C855 1.523 . S
C857 C841 1.429 . S
C857 C853 1.429 . S
C857 C858 1.523 . S
C858 C842 1.368 . S
C858 C854 1.368 . S
C858 C857 1.523 . S
H859 C834 0.950 . S
H860 C836 0.950 . S
H861 C837 0.949 . S
H862 C839 0.950 . S
H863 C841 0.950 . S
C864 C865 1.349 . S
C864 C866 1.327 . S
C864 H889 0.950 . S
C865 C864 1.349 . S
C865 C881 1.349 . S
C866 C864 1.327 . S
C866 C885 1.429 . S
C866 H890 0.950 . S
C867 C884 1.574 . S
C867 C886 1.368 . S
C867 H891 0.949 . S
H868 C872 0.949 . S
C869 C870 1.349 . S
C869 C871 1.327 . S
C869 H892 0.950 . S
C870 C869 1.349 . S
C870 C882 1.349 . S
C871 C869 1.327 . S
C871 C887 1.429 . S
C871 H893 0.950 . S
C872 H868 0.949 . S
C872 C880 1.574 . S
C872 C888 1.368 . S
H873 C881 0.950 . S
H874 C879 0.950 . S
H875 C880 0.949 . S
H876 C882 0.950 . S
H877 C883 0.950 . S
H878 C884 0.949 . S
C879 H874 0.950 . S
C879 C881 1.327 . S
C879 C885 1.429 . S
C880 C872 1.574 . S
C880 H875 0.949 . S
C880 C886 1.368 . S
C881 C865 1.349 . S
C881 H873 0.950 . S
C881 C879 1.327 . S
C882 C870 1.349 . S
C882 H876 0.950 . S
C882 C883 1.327 . S
C883 H877 0.950 . S
C883 C882 1.327 . S
C883 C887 1.429 . S
C884 C867 1.574 . S
C884 H878 0.949 . S
C884 C888 1.368 . S
C885 C866 1.429 . S
C885 C879 1.429 . S
C885 C886 1.523 . S
C886 C867 1.368 . S
C886 C880 1.368 . S
C886 C885 1.523 . S
C887 C871 1.429 . S
C887 C883 1.429 . S
C887 C888 1.523 . S
C888 C872 1.368 . S
C888 C884 1.368 . S
C888 C887 1.523 . S
H889 C864 0.950 . S
H890 C866 0.950 . S
H891 C867 0.949 . S
H892 C869 0.950 . S
H893 C871 0.950 . S
C894 C895 1.349 . S
C894 C896 1.327 . S
C894 H919 0.950 . S
C895 C894 1.349 . S
C895 C911 1.349 . S
C896 C894 1.327 . S
C896 C915 1.429 . S
C896 H920 0.950 . S
C897 C914 1.574 . S
C897 C916 1.368 . S
C897 H921 0.949 . S
H898 C902 0.949 . S
C899 C900 1.349 . S
C899 C901 1.327 . S
C899 H922 0.950 . S
C900 C899 1.349 . S
C900 C912 1.349 . S
C901 C899 1.327 . S
C901 C917 1.429 . S
C901 H923 0.950 . S
C902 H898 0.949 . S
C902 C910 1.574 . S
C902 C918 1.368 . S
H903 C911 0.950 . S
H904 C909 0.950 . S
H905 C910 0.949 . S
H906 C912 0.950 . S
H907 C913 0.950 . S
H908 C914 0.949 . S
C909 H904 0.950 . S
C909 C911 1.327 . S
C909 C915 1.429 . S
C910 C902 1.574 . S
C910 H905 0.949 . S
C910 C916 1.368 . S
C911 C895 1.349 . S
C911 H903 0.950 . S
C911 C909 1.327 . S
C912 C900 1.349 . S
C912 H906 0.950 . S
C912 C913 1.327 . S
C913 H907 0.950 . S
C913 C912 1.327 . S
C913 C917 1.429 . S
C914 C897 1.574 . S
C914 H908 0.949 . S
C914 C918 1.368 . S
C915 C896 1.429 . S
C915 C909 1.429 . S
C915 C916 1.523 . S
C916 C897 1.368 . S
C916 C910 1.368 . S
C916 C915 1.523 . S
C917 C901 1.429 . S
C917 C913 1.429 . S
C917 C918 1.523 . S
C918 C902 1.368 . S
C918 C914 1.368 . S
C918 C917 1.523 . S
H919 C894 0.950 . S
H920 C896 0.950 . S
H921 C897 0.949 . S
H922 C899 0.950 . S
H923 C901 0.950 . S
C924 C925 1.349 . S
C924 C926 1.327 . S
C924 H949 0.950 . S
C925 C924 1.349 . S
C925 C941 1.349 . S
C926 C924 1.327 . S
C926 C945 1.429 . S
C926 H950 0.950 . S
C927 C944 1.574 . S
C927 C946 1.368 . S
C927 H951 0.949 . S
H928 C932 0.949 . S
C929 C930 1.349 . S
C929 C931 1.327 . S
C929 H952 0.950 . S
C930 C929 1.349 . S
C930 C942 1.349 . S
C931 C929 1.327 . S
C931 C947 1.429 . S
C931 H953 0.950 . S
C932 H928 0.949 . S
C932 C940 1.574 . S
C932 C948 1.368 . S
H933 C941 0.950 . S
H934 C939 0.950 . S
H935 C940 0.949 . S
H936 C942 0.950 . S
H937 C943 0.950 . S
H938 C944 0.949 . S
C939 H934 0.950 . S
C939 C941 1.327 . S
C939 C945 1.429 . S
C940 C932 1.574 . S
C940 H935 0.949 . S
C940 C946 1.368 . S
C941 C925 1.349 . S
C941 H933 0.950 . S
C941 C939 1.327 . S
C942 C930 1.349 . S
C942 H936 0.950 . S
C942 C943 1.327 . S
C943 H937 0.950 . S
C943 C942 1.327 . S
C943 C947 1.429 . S
C944 C927 1.574 . S
C944 H938 0.949 . S
C944 C948 1.368 . S
C945 C926 1.429 . S
C945 C939 1.429 . S
C945 C946 1.523 . S
C946 C927 1.368 . S
C946 C940 1.368 . S
C946 C945 1.523 . S
C947 C931 1.429 . S
C947 C943 1.429 . S
C947 C948 1.523 . S
C948 C932 1.368 . S
C948 C944 1.368 . S
C948 C947 1.523 . S
H949 C924 0.950 . S
H950 C926 0.950 . S
H951 C927 0.949 . S
H952 C929 0.950 . S
H953 C931 0.950 . S
C954 C955 1.349 . S
C954 C956 1.327 . S
C954 H979 0.950 . S
C955 C954 1.349 . S
C955 C971 1.349 . S
C956 C954 1.327 . S
C956 C975 1.429 . S
C956 H980 0.950 . S
C957 C974 1.574 . S
C957 C976 1.368 . S
C957 H981 0.949 . S
H958 C962 0.949 . S
C959 C960 1.349 . S
C959 C961 1.327 . S
C959 H982 0.950 . S
C960 C959 1.349 . S
C960 C972 1.349 . S
C961 C959 1.327 . S
C961 C977 1.429 . S
C961 H983 0.950 . S
C962 H958 0.949 . S
C962 C970 1.574 . S
C962 C978 1.368 . S
H963 C971 0.950 . S
H964 C969 0.950 . S
H965 C970 0.949 . S
H966 C972 0.950 . S
H967 C973 0.950 . S
H968 C974 0.949 . S
C969 H964 0.950 . S
C969 C971 1.327 . S
C969 C975 1.429 . S
C970 C962 1.574 . S
C970 H965 0.949 . S
C970 C976 1.368 . S
C971 C955 1.349 . S
C971 H963 0.950 . S
C971 C969 1.327 . S
C972 C960 1.349 . S
C972 H966 0.950 . S
C972 C973 1.327 . S
C973 H967 0.950 . S
C973 C972 1.327 . S
C973 C977 1.429 . S
C974 C957 1.574 . S
C974 H968 0.949 . S
C974 C978 1.368 . S
C975 C956 1.429 . S
C975 C969 1.429 . S
C975 C976 1.523 . S
C976 C957 1.368 . S
C976 C970 1.368 . S
C976 C975 1.523 . S
C977 C961 1.429 . S
C977 C973 1.429 . S
C977 C978 1.523 . S
C978 C962 1.368 . S
C978 C974 1.368 . S
C978 C977 1.523 . S
H979 C954 0.950 . S
H980 C956 0.950 . S
H981 C957 0.949 . S
H982 C959 0.950 . S
H983 C961 0.950 . S
C984 C985 1.349 . S
C984 C986 1.327 . S
C984 H1009 0.950 . S
C985 C984 1.349 . S
C985 C1001 1.349 . S
C986 C984 1.327 . S
C986 C1005 1.429 . S
C986 H1010 0.950 . S
C987 C1004 1.574 . S
C987 C1006 1.368 . S
C987 H1011 0.949 . S
H988 C992 0.949 . S
C989 C990 1.349 . S
C989 C991 1.327 . S
C989 H1012 0.950 . S
C990 C989 1.349 . S
C990 C1002 1.349 . S
C991 C989 1.327 . S
C991 C1007 1.429 . S
C991 H1013 0.950 . S
C992 H988 0.949 . S
C992 C1000 1.574 . S
C992 C1008 1.368 . S
H993 C1001 0.950 . S
H994 C999 0.950 . S
H995 C1000 0.949 . S
H996 C1002 0.950 . S
H997 C1003 0.950 . S
H998 C1004 0.949 . S
C999 H994 0.950 . S
C999 C1001 1.327 . S
C999 C1005 1.429 . S
C1000 C992 1.574 . S
C1000 H995 0.949 . S
C1000 C1006 1.368 . S
C1001 C985 1.349 . S
C1001 H993 0.950 . S
C1001 C999 1.327 . S
C1002 C990 1.349 . S
C1002 H996 0.950 . S
C1002 C1003 1.327 . S
C1003 H997 0.950 . S
C1003 C1002 1.327 . S
C1003 C1007 1.429 . S
C1004 C987 1.574 . S
C1004 H998 0.949 . S
C1004 C1008 1.368 . S
C1005 C986 1.429 . S
C1005 C999 1.429 . S
C1005 C1006 1.523 . S
C1006 C987 1.368 . S
C1006 C1000 1.368 . S
C1006 C1005 1.523 . S
C1007 C991 1.429 . S
C1007 C1003 1.429 . S
C1007 C1008 1.523 . S
C1008 C992 1.368 . S
C1008 C1004 1.368 . S
C1008 C1007 1.523 . S
H1009 C984 0.950 . S
H1010 C986 0.950 . S
H1011 C987 0.949 . S
H1012 C989 0.950 . S
H1013 C991 0.950 . S
C1014 C1015 1.349 . S
C1014 C1016 1.327 . S
C1014 H1039 0.950 . S
C1015 C1014 1.349 . S
C1015 C1031 1.349 . S
C1016 C1014 1.327 . S
C1016 C1035 1.429 . S
C1016 H1040 0.950 . S
C1017 C1034 1.574 . S
C1017 C1036 1.368 . S
C1017 H1041 0.949 . S
H1018 C1022 0.949 . S
C1019 C1020 1.349 . S
C1019 C1021 1.327 . S
C1019 H1042 0.950 . S
C1020 C1019 1.349 . S
C1020 C1032 1.349 . S
C1021 C1019 1.327 . S
C1021 C1037 1.429 . S
C1021 H1043 0.950 . S
C1022 H1018 0.949 . S
C1022 C1030 1.574 . S
C1022 C1038 1.368 . S
H1023 C1031 0.950 . S
H1024 C1029 0.950 . S
H1025 C1030 0.949 . S
H1026 C1032 0.950 . S
H1027 C1033 0.950 . S
H1028 C1034 0.949 . S
C1029 H1024 0.950 . S
C1029 C1031 1.327 . S
C1029 C1035 1.429 . S
C1030 C1022 1.574 . S
C1030 H1025 0.949 . S
C1030 C1036 1.368 . S
C1031 C1015 1.349 . S
C1031 H1023 0.950 . S
C1031 C1029 1.327 . S
C1032 C1020 1.349 . S
C1032 H1026 0.950 . S
C1032 C1033 1.327 . S
C1033 H1027 0.950 . S
C1033 C1032 1.327 . S
C1033 C1037 1.429 . S
C1034 C1017 1.574 . S
C1034 H1028 0.949 . S
C1034 C1038 1.368 . S
C1035 C1016 1.429 . S
C1035 C1029 1.429 . S
C1035 C1036 1.523 . S
C1036 C1017 1.368 . S
C1036 C1030 1.368 . S
C1036 C1035 1.523 . S
C1037 C1021 1.429 . S
C1037 C1033 1.429 . S
C1037 C1038 1.523 . S
C1038 C1022 1.368 . S
C1038 C1034 1.368 . S
C1038 C1037 1.523 . S
H1039 C1014 0.950 . S
H1040 C1016 0.950 . S
H1041 C1017 0.949 . S
H1042 C1019 0.950 . S
H1043 C1021 0.950 . S
C1044 C1045 1.349 . S
C1044 C1046 1.327 . S
C1044 H1069 0.950 . S
C1045 C1044 1.349 . S
C1045 C1061 1.349 . S
C1046 C1044 1.327 . S
C1046 C1065 1.429 . S
C1046 H1070 0.950 . S
C1047 C1064 1.574 . S
C1047 C1066 1.368 . S
C1047 H1071 0.949 . S
H1048 C1052 0.949 . S
C1049 C1050 1.349 . S
C1049 C1051 1.327 . S
C1049 H1072 0.950 . S
C1050 C1049 1.349 . S
C1050 C1062 1.349 . S
C1051 C1049 1.327 . S
C1051 C1067 1.429 . S
C1051 H1073 0.950 . S
C1052 H1048 0.949 . S
C1052 C1060 1.574 . S
C1052 C1068 1.368 . S
H1053 C1061 0.950 . S
H1054 C1059 0.950 . S
H1055 C1060 0.949 . S
H1056 C1062 0.950 . S
H1057 C1063 0.950 . S
H1058 C1064 0.949 . S
C1059 H1054 0.950 . S
C1059 C1061 1.327 . S
C1059 C1065 1.429 . S
C1060 C1052 1.574 . S
C1060 H1055 0.949 . S
C1060 C1066 1.368 . S
C1061 C1045 1.349 . S
C1061 H1053 0.950 . S
C1061 C1059 1.327 . S
C1062 C1050 1.349 . S
C1062 H1056 0.950 . S
C1062 C1063 1.327 . S
C1063 H1057 0.950 . S
C1063 C1062 1.327 . S
C1063 C1067 1.429 . S
C1064 C1047 1.574 . S
C1064 H1058 0.949 . S
C1064 C1068 1.368 . S
C1065 C1046 1.429 . S
C1065 C1059 1.429 . S
C1065 C1066 1.523 . S
C1066 C1047 1.368 . S
C1066 C1060 1.368 . S
C1066 C1065 1.523 . S
C1067 C1051 1.429 . S
C1067 C1063 1.429 . S
C1067 C1068 1.523 . S
C1068 C1052 1.368 . S
C1068 C1064 1.368 . S
C1068 C1067 1.523 . S
H1069 C1044 0.950 . S
H1070 C1046 0.950 . S
H1071 C1047 0.949 . S
H1072 C1049 0.950 . S
H1073 C1051 0.950 . S
C1074 C1075 1.349 . S
C1074 C1076 1.327 . S
C1074 H1099 0.950 . S
C1075 C1074 1.349 . S
C1075 C1091 1.349 . S
C1076 C1074 1.327 . S
C1076 C1095 1.429 . S
C1076 H1100 0.950 . S
C1077 C1094 1.574 . S
C1077 C1096 1.368 . S
C1077 H1101 0.949 . S
H1078 C1082 0.949 . S
C1079 C1080 1.349 . S
C1079 C1081 1.327 . S
C1079 H1102 0.950 . S
C1080 C1079 1.349 . S
C1080 C1092 1.349 . S
C1081 C1079 1.327 . S
C1081 C1097 1.429 . S
C1081 H1103 0.950 . S
C1082 H1078 0.949 . S
C1082 C1090 1.574 . S
C1082 C1098 1.368 . S
H1083 C1091 0.950 . S
H1084 C1089 0.950 . S
H1085 C1090 0.949 . S
H1086 C1092 0.950 . S
H1087 C1093 0.950 . S
H1088 C1094 0.949 . S
C1089 H1084 0.950 . S
C1089 C1091 1.327 . S
C1089 C1095 1.429 . S
C1090 C1082 1.574 . S
C1090 H1085 0.949 . S
C1090 C1096 1.368 . S
C1091 C1075 1.349 . S
C1091 H1083 0.950 . S
C1091 C1089 1.327 . S
C1092 C1080 1.349 . S
C1092 H1086 0.950 . S
C1092 C1093 1.327 . S
C1093 H1087 0.950 . S
C1093 C1092 1.327 . S
C1093 C1097 1.429 . S
C1094 C1077 1.574 . S
C1094 H1088 0.949 . S
C1094 C1098 1.368 . S
C1095 C1076 1.429 . S
C1095 C1089 1.429 . S
C1095 C1096 1.523 . S
C1096 C1077 1.368 . S
C1096 C1090 1.368 . S
C1096 C1095 1.523 . S
C1097 C1081 1.429 . S
C1097 C1093 1.429 . S
C1097 C1098 1.523 . S
C1098 C1082 1.368 . S
C1098 C1094 1.368 . S
C1098 C1097 1.523 . S
H1099 C1074 0.950 . S
H1100 C1076 0.950 . S
H1101 C1077 0.949 . S
H1102 C1079 0.950 . S
H1103 C1081 0.950 . S
C1104 C1105 1.349 . S
C1104 C1106 1.327 . S
C1104 H1129 0.950 . S
C1105 C1104 1.349 . S
C1105 C1121 1.349 . S
C1106 C1104 1.327 . S
C1106 C1125 1.429 . S
C1106 H1130 0.950 . S
C1107 C1124 1.574 . S
C1107 C1126 1.368 . S
C1107 H1131 0.949 . S
H1108 C1112 0.949 . S
C1109 C1110 1.349 . S
C1109 C1111 1.327 . S
C1109 H1132 0.950 . S
C1110 C1109 1.349 . S
C1110 C1122 1.349 . S
C1111 C1109 1.327 . S
C1111 C1127 1.429 . S
C1111 H1133 0.950 . S
C1112 H1108 0.949 . S
C1112 C1120 1.574 . S
C1112 C1128 1.368 . S
H1113 C1121 0.950 . S
H1114 C1119 0.950 . S
H1115 C1120 0.949 . S
H1116 C1122 0.950 . S
H1117 C1123 0.950 . S
H1118 C1124 0.949 . S
C1119 H1114 0.950 . S
C1119 C1121 1.327 . S
C1119 C1125 1.429 . S
C1120 C1112 1.574 . S
C1120 H1115 0.949 . S
C1120 C1126 1.368 . S
C1121 C1105 1.349 . S
C1121 H1113 0.950 . S
C1121 C1119 1.327 . S
C1122 C1110 1.349 . S
C1122 H1116 0.950 . S
C1122 C1123 1.327 . S
C1123 H1117 0.950 . S
C1123 C1122 1.327 . S
C1123 C1127 1.429 . S
C1124 C1107 1.574 . S
C1124 H1118 0.949 . S
C1124 C1128 1.368 . S
C1125 C1106 1.429 . S
C1125 C1119 1.429 . S
C1125 C1126 1.523 . S
C1126 C1107 1.368 . S
C1126 C1120 1.368 . S
C1126 C1125 1.523 . S
C1127 C1111 1.429 . S
C1127 C1123 1.429 . S
C1127 C1128 1.523 . S
C1128 C1112 1.368 . S
C1128 C1124 1.368 . S
C1128 C1127 1.523 . S
H1129 C1104 0.950 . S
H1130 C1106 0.950 . S
H1131 C1107 0.949 . S
H1132 C1109 0.950 . S
H1133 C1111 0.950 . S
C415 C7 1.869 . S
C420 C160 1.853 . S
C445 C30 1.643 . S
C450 C199 1.630 . S
C480 C231 1.726 . S
C475 N58 1.706 . S
C510 C277 1.488 . S
C505 N81 1.465 . S
C540 C344 1.766 . S
C535 C99 1.777 . S
C570 C383 1.522 . S
C565 N127 1.492 . S
C595 N25 1.711 . S
C600 C245 1.737 . S
C625 C62 1.626 . S
C630 C291 1.616 . S
C660 C330 1.789 . S
C655 C85 1.808 . S
C690 C369 1.516 . S
C685 N94 1.507 . S
C715 C131 1.813 . S
C720 C146 1.788 . S
C750 C185 1.496 . S
C745 N2 1.482 . S
C780 C284 1.803 . S
C775 C16 1.812 . S
C805 C39 1.599 . S
C810 C337 1.584 . S
C840 C390 1.713 . S
C835 N48 1.694 . S
C865 N71 1.467 . S
C870 C153 1.485 . S
C895 C108 1.782 . S
C900 C206 1.768 . S
C925 N117 1.484 . S
C930 C238 1.516 . S
C955 N35 1.700 . S
C960 C376 1.731 . S
C990 C139 1.627 . S
C985 C53 1.639 . S
C1015 C76 1.851 . S
C1020 C192 1.837 . S
C1045 N104 1.484 . S
C1050 C252 1.498 . S
C1075 C122 1.769 . S
C1080 C298 1.746 . S
C1105 N12 1.447 . S
C1110 C323 1.477 . S
