# Generated by pormake.
# Topology eea, (3,6)-cn, num edge types: 1
# Building blocks:
#     Node 0, Type 0, BuildingBlock: CUQRIR_clean_linker_1, # of connection points: 3
#     Node 1, Type 0, BuildingBlock: CUQRIR_clean_linker_1, # of connection points: 3
#     Node 2, Type 0, BuildingBlock: CUQRIR_clean_linker_1, # of connection points: 3
#     Node 3, Type 0, BuildingBlock: CUQRIR_clean_linker_1, # of connection points: 3
#     Node 4, Type 0, BuildingBlock: CUQRIR_clean_linker_1, # of connection points: 3
#     Node 5, Type 0, BuildingBlock: CUQRIR_clean_linker_1, # of connection points: 3
#     Node 6, Type 0, BuildingBlock: CUQRIR_clean_linker_1, # of connection points: 3
#     Node 7, Type 0, BuildingBlock: CUQRIR_clean_linker_1, # of connection points: 3
#     Node 8, Type 0, BuildingBlock: CUQRIR_clean_linker_1, # of connection points: 3
#     Node 9, Type 0, BuildingBlock: CUQRIR_clean_linker_1, # of connection points: 3
#     Node 10, Type 0, BuildingBlock: CUQRIR_clean_linker_1, # of connection points: 3
#     Node 11, Type 0, BuildingBlock: CUQRIR_clean_linker_1, # of connection points: 3
#     Node 12, Type 0, BuildingBlock: CUQRIR_clean_linker_1, # of connection points: 3
#     Node 13, Type 0, BuildingBlock: CUQRIR_clean_linker_1, # of connection points: 3
#     Node 14, Type 0, BuildingBlock: CUQRIR_clean_linker_1, # of connection points: 3
#     Node 15, Type 0, BuildingBlock: CUQRIR_clean_linker_1, # of connection points: 3
#     Node 16, Type 0, BuildingBlock: CUQRIR_clean_linker_1, # of connection points: 3
#     Node 17, Type 0, BuildingBlock: CUQRIR_clean_linker_1, # of connection points: 3
#     Node 18, Type 1, BuildingBlock: KUMBOL_clean_sbu_0, # of connection points: 6
#     Node 19, Type 1, BuildingBlock: KUMBOL_clean_sbu_0, # of connection points: 6
#     Node 20, Type 1, BuildingBlock: KUMBOL_clean_sbu_0, # of connection points: 6
#     Node 21, Type 1, BuildingBlock: KUMBOL_clean_sbu_0, # of connection points: 6
#     Node 22, Type 1, BuildingBlock: KUMBOL_clean_sbu_0, # of connection points: 6
#     Node 23, Type 1, BuildingBlock: KUMBOL_clean_sbu_0, # of connection points: 6
#     Node 24, Type 1, BuildingBlock: KUMBOL_clean_sbu_0, # of connection points: 6
#     Node 25, Type 1, BuildingBlock: KUMBOL_clean_sbu_0, # of connection points: 6
#     Node 26, Type 1, BuildingBlock: KUMBOL_clean_sbu_0, # of connection points: 6
#     Edge 27, Type (0, 1), BuildingBlock: OJICUG_clean_linker_0, # of connection points: 2
#     Edge 28, Type (0, 1), BuildingBlock: OJICUG_clean_linker_0, # of connection points: 2
#     Edge 29, Type (0, 1), BuildingBlock: OJICUG_clean_linker_0, # of connection points: 2
#     Edge 30, Type (0, 1), BuildingBlock: OJICUG_clean_linker_0, # of connection points: 2
#     Edge 31, Type (0, 1), BuildingBlock: OJICUG_clean_linker_0, # of connection points: 2
#     Edge 32, Type (0, 1), BuildingBlock: OJICUG_clean_linker_0, # of connection points: 2
#     Edge 33, Type (0, 1), BuildingBlock: OJICUG_clean_linker_0, # of connection points: 2
#     Edge 34, Type (0, 1), BuildingBlock: OJICUG_clean_linker_0, # of connection points: 2
#     Edge 35, Type (0, 1), BuildingBlock: OJICUG_clean_linker_0, # of connection points: 2
#     Edge 36, Type (0, 1), BuildingBlock: OJICUG_clean_linker_0, # of connection points: 2
#     Edge 37, Type (0, 1), BuildingBlock: OJICUG_clean_linker_0, # of connection points: 2
#     Edge 38, Type (0, 1), BuildingBlock: OJICUG_clean_linker_0, # of connection points: 2
#     Edge 39, Type (0, 1), BuildingBlock: OJICUG_clean_linker_0, # of connection points: 2
#     Edge 40, Type (0, 1), BuildingBlock: OJICUG_clean_linker_0, # of connection points: 2
#     Edge 41, Type (0, 1), BuildingBlock: OJICUG_clean_linker_0, # of connection points: 2
#     Edge 42, Type (0, 1), BuildingBlock: OJICUG_clean_linker_0, # of connection points: 2
#     Edge 43, Type (0, 1), BuildingBlock: OJICUG_clean_linker_0, # of connection points: 2
#     Edge 44, Type (0, 1), BuildingBlock: OJICUG_clean_linker_0, # of connection points: 2
#     Edge 45, Type (0, 1), BuildingBlock: OJICUG_clean_linker_0, # of connection points: 2
#     Edge 46, Type (0, 1), BuildingBlock: OJICUG_clean_linker_0, # of connection points: 2
#     Edge 47, Type (0, 1), BuildingBlock: OJICUG_clean_linker_0, # of connection points: 2
#     Edge 48, Type (0, 1), BuildingBlock: OJICUG_clean_linker_0, # of connection points: 2
#     Edge 49, Type (0, 1), BuildingBlock: OJICUG_clean_linker_0, # of connection points: 2
#     Edge 50, Type (0, 1), BuildingBlock: OJICUG_clean_linker_0, # of connection points: 2
#     Edge 51, Type (0, 1), BuildingBlock: OJICUG_clean_linker_0, # of connection points: 2
#     Edge 52, Type (0, 1), BuildingBlock: OJICUG_clean_linker_0, # of connection points: 2
#     Edge 53, Type (0, 1), BuildingBlock: OJICUG_clean_linker_0, # of connection points: 2
#     Edge 54, Type (0, 1), BuildingBlock: OJICUG_clean_linker_0, # of connection points: 2
#     Edge 55, Type (0, 1), BuildingBlock: OJICUG_clean_linker_0, # of connection points: 2
#     Edge 56, Type (0, 1), BuildingBlock: OJICUG_clean_linker_0, # of connection points: 2
#     Edge 57, Type (0, 1), BuildingBlock: OJICUG_clean_linker_0, # of connection points: 2
#     Edge 58, Type (0, 1), BuildingBlock: OJICUG_clean_linker_0, # of connection points: 2
#     Edge 59, Type (0, 1), BuildingBlock: OJICUG_clean_linker_0, # of connection points: 2
#     Edge 60, Type (0, 1), BuildingBlock: OJICUG_clean_linker_0, # of connection points: 2
#     Edge 61, Type (0, 1), BuildingBlock: OJICUG_clean_linker_0, # of connection points: 2
#     Edge 62, Type (0, 1), BuildingBlock: OJICUG_clean_linker_0, # of connection points: 2
#     Edge 63, Type (0, 1), BuildingBlock: OJICUG_clean_linker_0, # of connection points: 2
#     Edge 64, Type (0, 1), BuildingBlock: OJICUG_clean_linker_0, # of connection points: 2
#     Edge 65, Type (0, 1), BuildingBlock: OJICUG_clean_linker_0, # of connection points: 2
#     Edge 66, Type (0, 1), BuildingBlock: OJICUG_clean_linker_0, # of connection points: 2
#     Edge 67, Type (0, 1), BuildingBlock: OJICUG_clean_linker_0, # of connection points: 2
#     Edge 68, Type (0, 1), BuildingBlock: OJICUG_clean_linker_0, # of connection points: 2
#     Edge 69, Type (0, 1), BuildingBlock: OJICUG_clean_linker_0, # of connection points: 2
#     Edge 70, Type (0, 1), BuildingBlock: OJICUG_clean_linker_0, # of connection points: 2
#     Edge 71, Type (0, 1), BuildingBlock: OJICUG_clean_linker_0, # of connection points: 2
#     Edge 72, Type (0, 1), BuildingBlock: OJICUG_clean_linker_0, # of connection points: 2
#     Edge 73, Type (0, 1), BuildingBlock: OJICUG_clean_linker_0, # of connection points: 2
#     Edge 74, Type (0, 1), BuildingBlock: OJICUG_clean_linker_0, # of connection points: 2
#     Edge 75, Type (0, 1), BuildingBlock: OJICUG_clean_linker_0, # of connection points: 2
#     Edge 76, Type (0, 1), BuildingBlock: OJICUG_clean_linker_0, # of connection points: 2
#     Edge 77, Type (0, 1), BuildingBlock: OJICUG_clean_linker_0, # of connection points: 2
#     Edge 78, Type (0, 1), BuildingBlock: OJICUG_clean_linker_0, # of connection points: 2
#     Edge 79, Type (0, 1), BuildingBlock: OJICUG_clean_linker_0, # of connection points: 2
#     Edge 80, Type (0, 1), BuildingBlock: OJICUG_clean_linker_0, # of connection points: 2
# Relax obj value: 0.041
# Max RMSD: 0.228
# Mean RMSD: 0.164
data_MOF--net-eea--node1-KUMBOL_clean_sbu_0--node2-CUQRIR_clean_linker_1--edge1-OJICUG_clean_linker_0
_symmetry_space_group_name_H-M    P1
_symmetry_Int_Tables_number       1
_symmetry_cell_setting            triclinic
loop_
_symmetry_equiv_pos_as_xyz
'x, y, z'
_cell_length_a     33.046472
_cell_length_b     35.837577
_cell_length_c     48.523124
_cell_angle_alpha  82.995045
_cell_angle_beta   89.840167
_cell_angle_gamma 118.58194
loop_
_atom_site_label
_atom_site_type_symbol
_atom_site_fract_x
_atom_site_fract_y
_atom_site_fract_z
_atom_type_partial_charge
C0 C 0.2167 0.10874 0.40484 0.0
N1 N 0.23499 0.14215 0.41983 0.0
N2 N 0.2283 0.07833 0.41474 0.0
C3 C 0.18653 0.10532 0.38096 0.0
C4 C 0.2548 0.09463 0.43601 0.0
N5 N 0.2591 0.13347 0.43903 0.0
C6 C 0.27454 0.0715 0.45465 0.0
H7 H 0.14996 0.08966 0.38925 0.0
H8 H 0.18908 0.08563 0.3659 0.0
H9 H 0.19588 0.13754 0.3697 0.0
H10 H 0.30828 0.0941 0.46177 0.0
H11 H 0.27899 0.04799 0.44387 0.0
H12 H 0.25039 0.054 0.47334 0.0
C13 C 0.91753 0.1231 0.40466 0.0
N14 N 0.93537 0.15629 0.42005 0.0
N15 N 0.87475 0.09208 0.41531 0.0
C16 C 0.94142 0.1205 0.37915 0.0
C17 C 0.86722 0.10755 0.4378 0.0
N18 N 0.90377 0.1461 0.44092 0.0
C19 C 0.82266 0.08637 0.45583 0.0
H20 H 0.92877 0.13165 0.36052 0.0
H21 H 0.93299 0.08681 0.37812 0.0
H22 H 0.97931 0.14058 0.37849 0.0
H23 H 0.82496 0.06495 0.47357 0.0
H24 H 0.79293 0.06694 0.44393 0.0
H25 H 0.8163 0.1106 0.46436 0.0
C26 C 0.89389 0.79578 0.39349 0.0
N27 N 0.91635 0.7802 0.41058 0.0
N28 N 0.8528 0.78623 0.40588 0.0
C29 C 0.90973 0.81623 0.3638 0.0
C30 C 0.85106 0.76473 0.43109 0.0
N31 N 0.88947 0.76076 0.43395 0.0
C32 C 0.81183 0.74779 0.45308 0.0
H33 H 0.935 0.8507 0.36333 0.0
H34 H 0.88047 0.81372 0.3516 0.0
H35 H 0.92689 0.80065 0.35398 0.0
H36 H 0.78678 0.71415 0.45071 0.0
H37 H 0.79366 0.76711 0.45093 0.0
H38 H 0.82456 0.74803 0.47423 0.0
C39 C 0.11314 0.2395 0.67537 0.0
N40 N 0.15105 0.25434 0.65769 0.0
N41 N 0.08328 0.25186 0.6643 0.0
C42 C 0.10649 0.21556 0.70411 0.0
C43 C 0.10385 0.27426 0.6392 0.0
N44 N 0.14522 0.27612 0.63528 0.0
C45 C 0.08244 0.29236 0.6179 0.0
H46 H 0.09227 0.18088 0.70276 0.0
H47 H 0.08215 0.21957 0.71764 0.0
H48 H 0.14002 0.22714 0.71356 0.0
H49 H 0.09258 0.32575 0.62111 0.0
H50 H 0.04419 0.27326 0.6201 0.0
H51 H 0.0947 0.29308 0.59644 0.0
C52 C 0.80404 0.91018 0.65865 0.0
N53 N 0.78855 0.87802 0.64262 0.0
N54 N 0.79621 0.94245 0.64732 0.0
C55 C 0.83069 0.91198 0.68405 0.0
C56 C 0.7758 0.92901 0.62363 0.0
N57 N 0.7719 0.89033 0.62041 0.0
C58 C 0.75515 0.95151 0.60514 0.0
H59 H 0.8062 0.89685 0.70278 0.0
H60 H 0.85504 0.94569 0.68669 0.0
H61 H 0.85044 0.89441 0.68258 0.0
H62 H 0.78115 0.97344 0.5881 0.0
H63 H 0.74495 0.97066 0.61697 0.0
H64 H 0.72426 0.92813 0.59572 0.0
C65 C 0.10583 0.92122 0.65896 0.0
N66 N 0.08829 0.88676 0.64474 0.0
N67 N 0.14417 0.95503 0.64503 0.0
C68 C 0.08894 0.92006 0.68792 0.0
C69 C 0.14893 0.9398 0.62164 0.0
N70 N 0.11565 0.89859 0.62153 0.0
C71 C 0.18526 0.96551 0.59815 0.0
H72 H 0.06183 0.92995 0.68688 0.0
H73 H 0.11733 0.9419 0.6997 0.0
H74 H 0.0739 0.8871 0.6991 0.0
H75 H 0.21512 0.95967 0.60124 0.0
H76 H 0.19727 1.00034 0.59729 0.0
H77 H 0.17154 0.95535 0.57794 0.0
C78 C 0.87146 0.4378 0.74366 0.0
N79 N 0.89122 0.47107 0.75859 0.0
N80 N 0.87775 0.40451 0.75499 0.0
C81 C 0.84422 0.43724 0.71877 0.0
C82 C 0.90237 0.41908 0.77733 0.0
N83 N 0.91019 0.45928 0.77962 0.0
C84 C 0.92042 0.3947 0.79627 0.0
H85 H 0.82733 0.4573 0.72042 0.0
H86 H 0.81754 0.40402 0.71669 0.0
H87 H 0.86803 0.45076 0.69971 0.0
H88 H 0.92938 0.37463 0.78455 0.0
H89 H 0.89317 0.37332 0.81284 0.0
H90 H 0.95123 0.41643 0.80648 0.0
C91 C 0.58584 0.45523 0.73869 0.0
N92 N 0.6045 0.48854 0.75394 0.0
N93 N 0.54289 0.42487 0.74948 0.0
C94 C 0.60861 0.45224 0.71283 0.0
C95 C 0.53599 0.4408 0.77187 0.0
N96 N 0.57307 0.47911 0.77477 0.0
C97 C 0.4916 0.42022 0.79004 0.0
H98 H 0.5971 0.46529 0.6945 0.0
H99 H 0.59815 0.41826 0.7111 0.0
H100 H 0.64664 0.47053 0.71236 0.0
H101 H 0.49367 0.39857 0.80772 0.0
H102 H 0.46159 0.40107 0.77824 0.0
H103 H 0.48581 0.44471 0.79864 0.0
C104 C 0.55683 0.12904 0.72647 0.0
N105 N 0.57824 0.11231 0.74355 0.0
N106 N 0.5152 0.11894 0.73827 0.0
C107 C 0.57421 0.15119 0.69723 0.0
C108 C 0.51196 0.09583 0.76311 0.0
N109 N 0.5501 0.09148 0.7663 0.0
C110 C 0.47177 0.07806 0.78448 0.0
H111 H 0.59904 0.18554 0.69772 0.0
H112 H 0.54562 0.14919 0.68454 0.0
H113 H 0.59224 0.1365 0.6873 0.0
H114 H 0.44682 0.04479 0.78128 0.0
H115 H 0.45384 0.0976 0.78245 0.0
H116 H 0.48343 0.07711 0.80586 0.0
C117 C 0.77642 0.56472 1.00742 0.0
N118 N 0.81492 0.57935 0.99023 0.0
N119 N 0.74698 0.57721 0.99573 0.0
C120 C 0.76886 0.54105 0.03633 0.0
C121 C 0.76839 0.5994 0.97075 0.0
N122 N 0.80978 0.60105 0.96749 0.0
C123 C 0.74807 0.61807 0.94904 0.0
H124 H 0.74462 0.54578 0.04943 0.0
H125 H 0.80207 0.55216 0.04614 0.0
H126 H 0.75402 0.50624 0.03523 0.0
H127 H 0.75884 0.65166 0.95206 0.0
H128 H 0.70978 0.59959 0.9509 0.0
H129 H 0.76066 0.61841 0.92775 0.0
C130 C 0.47301 0.24389 0.98768 0.0
N131 N 0.45606 0.21147 0.97189 0.0
N132 N 0.46496 0.27625 0.9768 0.0
C133 C 0.50003 0.24515 1.01281 0.0
C134 C 0.44277 0.26242 0.9536 0.0
N135 N 0.43772 0.22333 0.95043 0.0
C136 C 0.42377 0.28617 0.93485 0.0
H137 H 0.47582 0.2297 0.03164 0.0
H138 H 0.52462 0.27872 0.0156 0.0
H139 H 0.51946 0.22739 1.01084 0.0
H140 H 0.45184 0.3105 0.91965 0.0
H141 H 0.41092 0.30303 0.94711 0.0
H142 H 0.39542 0.26456 0.92298 0.0
C143 C 0.76555 0.24947 0.9923 0.0
N144 N 0.74953 0.2146 0.97849 0.0
N145 N 0.80703 0.28153 0.9805 0.0
C146 C 0.74229 0.25198 0.01813 0.0
C147 C 0.81563 0.26494 0.95894 0.0
N148 N 0.78103 0.22456 0.95772 0.0
C149 C 0.85862 0.28799 0.93948 0.0
H150 H 0.70434 0.23275 0.0187 0.0
H151 H 0.75143 0.28569 0.01973 0.0
H152 H 0.75438 0.23958 0.03649 0.0
H153 H 0.86583 0.26562 0.92924 0.0
H154 H 0.88901 0.30782 0.9508 0.0
H155 H 0.85395 0.30958 0.92294 0.0
C156 C 0.53602 0.76954 0.0722 0.0
N157 N 0.55159 0.80093 0.0888 0.0
N158 N 0.5363 0.73388 0.08515 0.0
C159 C 0.52219 0.77441 0.043 0.0
C160 C 0.5522 0.74469 0.11034 0.0
N161 N 0.56119 0.78528 0.11266 0.0
C162 C 0.56042 0.71614 0.13248 0.0
H163 H 0.49933 0.743 0.0362 0.0
H164 H 0.55372 0.79109 0.02857 0.0
H165 H 0.50443 0.7941 0.04137 0.0
H166 H 0.59657 0.73321 0.13849 0.0
H167 H 0.55343 0.68524 0.12589 0.0
H168 H 0.53723 0.70861 0.15125 0.0
C169 C 0.24903 0.78175 0.07152 0.0
N170 N 0.26847 0.81433 0.08723 0.0
N171 N 0.20946 0.74848 0.08448 0.0
C172 C 0.26639 0.78405 0.04243 0.0
C173 C 0.20584 0.76179 0.10895 0.0
N174 N 0.24123 0.80168 0.11067 0.0
C175 C 0.16725 0.73591 0.13126 0.0
H176 H 0.28497 0.81775 0.03241 0.0
H177 H 0.23764 0.76532 0.02969 0.0
H178 H 0.29068 0.77081 0.04322 0.0
H179 H 0.18048 0.73921 0.15225 0.0
H180 H 0.14938 0.70131 0.12909 0.0
H181 H 0.14198 0.74804 0.12987 0.0
C182 C 0.21172 0.44054 0.05439 0.0
N183 N 0.23504 0.42724 0.07236 0.0
N184 N 0.16864 0.4273 0.06531 0.0
C185 C 0.2302 0.46514 0.02583 0.0
C186 C 0.1665 0.40587 0.09067 0.0
N187 N 0.2068 0.40562 0.09499 0.0
C188 C 0.126 0.38809 0.11191 0.0
H189 H 0.25074 0.49987 0.02741 0.0
H190 H 0.20171 0.46032 1.01223 0.0
H191 H 0.25294 0.45474 0.01637 0.0
H192 H 0.09474 0.36364 0.10345 0.0
H193 H 0.119 0.41428 0.11616 0.0
H194 H 0.13164 0.37282 0.1317 0.0
C195 C 0.4552 0.91498 0.34535 0.0
N196 N 0.49146 0.92739 0.32679 0.0
N197 N 0.42509 0.92718 0.33454 0.0
C198 C 0.4493 0.8914 0.37407 0.0
C199 C 0.44377 0.94692 0.30859 0.0
N200 N 0.4842 0.94705 0.30379 0.0
C201 C 0.42049 0.9626 0.28705 0.0
H202 H 0.43567 0.85676 0.37285 0.0
H203 H 0.42495 0.89518 0.38774 0.0
H204 H 0.48316 0.90362 0.38315 0.0
H205 H 0.44562 0.98612 0.27015 0.0
H206 H 0.40273 0.97798 0.29641 0.0
H207 H 0.39411 0.93475 0.27789 0.0
C208 C 0.14056 0.57778 0.32609 0.0
N209 N 0.12421 0.5456 0.31011 0.0
N210 N 0.1339 0.61064 0.31465 0.0
C211 C 0.16699 0.57899 0.35154 0.0
C212 C 0.1134 0.59763 0.29092 0.0
N213 N 0.10827 0.55848 0.28779 0.0
C214 C 0.09388 0.62108 0.27234 0.0
H215 H 0.14243 0.56421 0.37024 0.0
H216 H 0.19194 0.61253 0.3542 0.0
H217 H 0.18607 0.56081 0.35009 0.0
H218 H 0.12026 0.64262 0.25537 0.0
H219 H 0.08449 0.64082 0.28411 0.0
H220 H 0.0627 0.59828 0.26284 0.0
C221 C 0.43721 0.58589 0.32584 0.0
N222 N 0.41997 0.55186 0.31118 0.0
N223 N 0.47626 0.61971 0.31259 0.0
C224 C 0.41906 0.58448 0.35451 0.0
C225 C 0.48178 0.60502 0.28913 0.0
N226 N 0.44825 0.56408 0.28833 0.0
C227 C 0.51907 0.63112 0.2662 0.0
H228 H 0.39348 0.59624 0.35294 0.0
H229 H 0.44722 0.60485 0.36703 0.0
H230 H 0.40187 0.55122 0.36522 0.0
H231 H 0.54849 0.62471 0.26956 0.0
H232 H 0.53149 0.66595 0.2658 0.0
H233 H 0.5061 0.62185 0.24568 0.0
Gd234 Gd 0.52363 0.03476 0.06448 0.0
Gd235 Gd 0.50268 0.98712 0.9995 0.0
C236 C 0.36582 0.86827 0.99136 0.0
C237 C 0.38959 0.81414 0.98889 0.0
C238 C 0.44646 0.88722 0.99426 0.0
C239 C 0.41192 0.89872 0.99465 0.0
C240 C 0.43575 0.84502 0.99076 0.0
C241 C 0.35477 0.82582 0.98896 0.0
C242 C 0.33236 0.88166 0.98976 0.0
C243 C 0.34505 0.92434 0.9916 0.0
N244 N 0.42369 0.94017 0.99658 0.0
C245 C 0.39114 0.9534 0.9948 0.0
H246 H 0.40019 0.98625 0.99602 0.0
C247 C 0.52655 0.91015 0.98936 0.0
N248 N 0.49098 0.91816 0.99492 0.0
C249 C 0.51762 0.86855 0.98667 0.0
C250 C 0.47199 0.83566 0.98782 0.0
H251 H 0.56181 0.93591 0.98779 0.0
H252 H 0.31952 0.80198 0.98652 0.0
H253 H 0.63031 0.04628 0.06606 0.0
H254 H 0.29671 0.85942 0.98681 0.0
H255 H 0.31939 0.93497 0.99037 0.0
H256 H 0.38065 0.78152 0.98636 0.0
H257 H 0.45682 0.07574 0.0822 0.0
H258 H 0.72585 0.17738 0.07167 0.0
H259 H 0.71002 0.10331 0.0689 0.0
H260 H 0.62821 0.24087 0.07944 0.0
H261 H 0.54589 0.862 0.98337 0.0
H262 H 0.46513 0.80358 0.98527 0.0
H263 H 0.69499 0.2287 0.07533 0.0
H264 H 0.46469 0.14619 0.08888 0.0
N265 N 0.60111 0.08795 0.06561 0.0
C266 C 0.69078 0.15268 0.06984 0.0
C267 C 0.68195 0.11082 0.0685 0.0
C268 C 0.65403 0.16173 0.07003 0.0
C269 C 0.60896 0.12819 0.06796 0.0
C270 C 0.6366 0.07855 0.06685 0.0
N271 N 0.52856 0.10051 0.07208 0.0
C272 C 0.57142 0.13484 0.07088 0.0
C273 C 0.49499 0.14352 0.08369 0.0
C274 C 0.5387 0.17965 0.08109 0.0
C275 C 0.49065 0.10375 0.07988 0.0
C276 C 0.57772 0.17534 0.0755 0.0
H277 H 0.54208 0.21028 0.08457 0.0
O278 O 0.48727 0.01862 0.10526 0.0
O279 O 0.47569 0.9798 0.04327 0.0
O280 O 0.47922 0.03797 0.99613 0.0
O281 O 0.50531 0.07632 0.03401 0.0
O282 O 0.44569 1.00305 0.06861 0.0
O283 O 0.54945 0.01353 0.10089 0.0
O284 O 0.549 1.00467 0.96279 0.0
O285 O 0.54907 0.04284 0.02053 0.0
O286 O 0.55207 0.98755 0.06455 0.0
O287 O 0.51266 0.94254 0.03189 0.0
O288 O 0.58091 0.0181 0.99787 0.0
O289 O 0.48135 0.99923 0.95829 0.0
C290 C 0.43704 0.97399 0.05287 0.0
C291 C 0.62263 0.20949 0.07599 0.0
C292 C 0.66068 0.20256 0.07359 0.0
C293 C 0.51797 0.01145 0.11815 0.0
C294 C 0.53472 0.03213 0.14331 0.0
C295 C 0.55309 0.07655 0.14209 0.0
C296 C 0.53193 1.00734 0.16883 0.0
C297 C 0.54584 0.02663 0.19338 0.0
C298 C 0.56765 0.09607 0.16589 0.0
C299 C 0.5636 0.07147 0.19133 0.0
C300 C 0.48549 0.06977 1.01009 0.0
C301 C 0.58813 0.04885 1.01188 0.0
C302 C 0.51958 1.00606 0.94547 0.0
C303 C 0.51597 0.98524 0.92044 0.0
C304 C 0.49934 0.94089 0.92269 0.0
C305 C 0.53192 0.01034 0.8941 0.0
C306 C 0.53217 0.99134 0.87024 0.0
C307 C 0.50079 0.92204 0.89952 0.0
C308 C 0.51757 0.94702 0.87357 0.0
C309 C 0.53836 0.95176 0.05336 0.0
H310 H 0.55569 0.0962 0.12288 0.0
H311 H 0.51852 0.97313 0.16941 0.0
H312 H 0.5812 0.13039 0.16474 0.0
H313 H 0.57308 0.08784 0.20948 0.0
H314 H 0.48557 0.92069 0.94228 0.0
H315 H 0.54321 0.04439 0.89226 0.0
H316 H 0.48872 0.88786 0.90168 0.0
H317 H 0.51853 0.93137 0.85605 0.0
Gd318 Gd 0.97421 0.50224 0.06671 0.0
Gd319 Gd 0.03358 0.53638 0.99557 0.0
C320 C 0.15774 0.51943 0.97386 0.0
C321 C 0.22019 0.5931 0.96677 0.0
C322 C 0.14156 0.57763 0.97841 0.0
C323 C 0.12643 0.53417 0.97977 0.0
C324 C 0.18844 0.60768 0.97132 0.0
C325 C 0.20485 0.54904 0.96801 0.0
C326 C 0.14053 0.47552 0.97317 0.0
C327 C 0.09311 0.44771 0.97767 0.0
N328 N 0.0807 0.50643 0.98551 0.0
C329 C 0.06345 0.46387 0.98349 0.0
H330 H 0.0269 0.44195 0.98702 0.0
C331 C 0.12219 0.63324 0.97813 0.0
N332 N 0.10996 0.59062 0.98272 0.0
C333 C 0.16834 0.66428 0.97137 0.0
C334 C 0.20174 0.65147 0.96831 0.0
H335 H 0.09643 0.64322 0.98062 0.0
H336 H 0.22949 0.53828 0.96376 0.0
H337 H 0.98001 0.59871 0.06736 0.0
H338 H 0.16337 0.46294 0.96849 0.0
H339 H 0.07935 0.41379 0.97672 0.0
H340 H 0.25645 0.61565 0.96159 0.0
H341 H 0.91362 0.39816 0.09066 0.0
H342 H 0.8454 0.57957 0.08833 0.0
H343 H 0.92851 0.62821 0.0757 0.0
H344 H 0.75359 0.42653 0.10689 0.0
H345 H 0.17811 0.69803 0.96853 0.0
H346 H 0.23744 0.67557 0.96294 0.0
H347 H 0.77999 0.50416 0.09904 0.0
H348 H 0.83327 0.34418 0.10689 0.0
N349 N 0.92687 0.53346 0.07408 0.0
C350 C 0.86788 0.56629 0.08441 0.0
C351 C 0.91476 0.59382 0.07739 0.0
C352 C 0.85076 0.52192 0.08694 0.0
C353 C 0.88163 0.50635 0.08181 0.0
C354 C 0.94398 0.57679 0.07267 0.0
N355 N 0.89867 0.44984 0.08337 0.0
C356 C 0.86694 0.46298 0.0864 0.0
C357 C 0.84215 0.37745 0.101 0.0
C358 C 0.80844 0.39016 0.10279 0.0
C359 C 0.88755 0.40804 0.09177 0.0
C360 C 0.82085 0.43356 0.09606 0.0
H361 H 0.77339 0.36651 0.11023 0.0
O362 O 0.99159 0.47255 0.10329 0.0
O363 O 0.02942 0.50628 0.03867 0.0
O364 O 0.97376 0.46719 1.00005 0.0
O365 O 0.92605 0.453 0.04039 0.0
O366 O 0.99446 0.4505 0.06645 0.0
O367 O 1.00143 0.53663 0.10216 0.0
O368 O 0.0204 0.56983 0.95943 0.0
O369 O 0.97608 0.52967 0.02286 0.0
O370 O 0.03188 0.57231 0.05965 0.0
O371 O 0.08391 0.57754 0.02491 0.0
O372 O 0.01116 0.58661 0.99637 0.0
O373 O 0.01135 0.50604 0.95808 0.0
C374 C 0.02701 0.47056 0.04693 0.0
C375 C 0.78926 0.44861 0.09974 0.0
C376 C 0.80427 0.49278 0.09528 0.0
C377 C 0.00367 0.50489 0.11696 0.0
C378 C 0.98607 0.49453 0.14644 0.0
C379 C 0.93878 0.47724 0.15343 0.0
C380 C 0.01682 0.50202 0.16781 0.0
C381 C 1.0006 0.49297 0.19619 0.0
C382 C 0.9223 0.46767 0.18127 0.0
C383 C 0.95276 0.47562 0.20244 0.0
C384 C 0.93509 0.44312 0.0164 0.0
C385 C 0.97626 0.56438 1.01425 0.0
C386 C 0.01081 0.53937 0.94427 0.0
C387 C 0.03113 0.55292 0.91533 0.0
C388 C 0.07658 0.58612 0.90894 0.0
C389 C 0.00377 0.53382 0.89366 0.0
C390 C 0.02112 0.54834 0.86553 0.0
C391 C 0.0941 0.60073 0.88128 0.0
C392 C 0.06663 0.58239 0.85974 0.0
C393 C 0.07351 0.59191 0.04627 0.0
H394 H 0.91465 0.47134 0.13738 0.0
H395 H 0.05327 0.51495 0.16219 0.0
H396 H 0.88573 0.45461 0.18649 0.0
H397 H 0.93869 0.46928 0.2237 0.0
H398 H 0.09828 0.60119 0.92525 0.0
H399 H 0.96905 0.50755 0.89888 0.0
H400 H 0.12903 0.62677 0.87649 0.0
H401 H 0.08106 0.59534 0.83853 0.0
Gd402 Gd 0.48075 0.51653 0.99928 0.0
Gd403 Gd 0.50292 0.48375 0.07147 0.0
C404 C 0.64381 0.49702 0.09215 0.0
C405 C 0.62604 0.42257 0.10337 0.0
C406 C 0.56529 0.44022 0.0911 0.0
C407 C 0.59704 0.48331 0.08724 0.0
C408 C 0.57911 0.40932 0.09996 0.0
C409 C 0.65836 0.46639 0.09946 0.0
C410 C 0.67413 0.54104 0.09055 0.0
C411 C 0.65719 0.56998 0.08518 0.0
N412 N 0.58161 0.51191 0.0804 0.0
C413 C 0.61046 0.55473 0.08058 0.0
H414 H 0.598 0.57752 0.07642 0.0
C415 C 0.48673 0.38711 0.09545 0.0
N416 N 0.5203 0.42871 0.08787 0.0
C417 C 0.49867 0.3552 0.10417 0.0
C418 C 0.54514 0.36624 0.106 0.0
H419 H 0.45074 0.37836 0.09405 0.0
H420 H 0.69422 0.47627 0.10297 0.0
H421 H 0.39217 0.41739 0.99664 0.0
H422 H 0.71027 0.55291 0.09428 0.0
H423 H 0.6801 0.60405 0.08452 0.0
H424 H 0.63746 0.3993 0.10984 0.0
H425 H 0.52177 0.62147 0.98045 0.0
H426 H 0.27329 0.42862 0.97414 0.0
H427 H 0.31037 0.38377 0.98675 0.0
H428 H 0.32978 0.58056 0.95918 0.0
H429 H 0.47203 0.32214 0.10945 0.0
H430 H 0.5543 0.34151 0.11287 0.0
H431 H 0.28061 0.50213 0.96445 0.0
H432 H 0.49234 0.67197 0.96515 0.0
N433 N 0.40182 0.48114 0.99063 0.0
C434 C 0.30934 0.4437 0.97867 0.0
C435 C 0.33017 0.41829 0.98571 0.0
C436 C 0.33549 0.48832 0.97703 0.0
C437 C 0.38233 0.50631 0.98303 0.0
C438 C 0.3768 0.43765 0.99131 0.0
N439 N 0.45543 0.56623 0.98405 0.0
C440 C 0.40997 0.55029 0.97982 0.0
C441 C 0.46875 0.63783 0.96932 0.0
C442 C 0.42162 0.62205 0.96601 0.0
C443 C 0.48529 0.60924 0.9779 0.0
C444 C 0.39169 0.57773 0.97077 0.0
H445 H 0.40892 0.64421 0.95912 0.0
O446 O 0.52716 0.55161 0.9622 0.0
O447 O 0.53075 0.51235 0.02791 0.0
O448 O 0.51959 0.55408 0.06356 0.0
O449 O 0.47619 0.5609 0.02714 0.0
O450 O 0.55453 0.56823 1.00014 0.0
O451 O 0.47828 0.4844 0.96349 0.0
O452 O 0.4527 0.45744 0.10719 0.0
O453 O 0.45269 0.48819 0.04289 0.0
O454 O 0.47216 0.44905 1.00452 0.0
O455 O 0.50542 0.43676 0.04505 0.0
O456 O 0.42908 0.43247 0.07055 0.0
O457 O 0.51455 0.51772 0.10758 0.0
C458 C 0.56599 0.54753 0.01932 0.0
C459 C 0.3446 0.56004 0.96594 0.0
C460 C 0.3166 0.5154 0.96894 0.0
C461 C 0.51061 0.51877 0.94855 0.0
C462 C 0.5023 0.52673 0.91896 0.0
C463 C 0.46728 0.53694 0.91225 0.0
C464 C 0.52895 0.52363 0.89727 0.0
C465 C 0.52032 0.53037 0.86891 0.0
C466 C 0.45844 0.54361 0.88454 0.0
C467 C 0.48428 0.54011 0.86316 0.0
C468 C 0.50054 0.5747 0.04889 0.0
C469 C 0.41731 0.45291 0.05138 0.0
C470 C 0.47687 0.48817 0.12165 0.0
C471 C 0.48056 0.47489 0.15124 0.0
C472 C 0.4945 0.44387 0.15832 0.0
C473 C 0.46915 0.49244 0.17268 0.0
C474 C 0.47176 0.47896 0.20101 0.0
C475 C 0.49629 0.42984 0.18613 0.0
C476 C 0.48488 0.44699 0.20727 0.0
C477 C 0.4876 0.42671 0.0208 0.0
H478 H 0.44647 0.53938 0.92846 0.0
H479 H 0.55625 0.51605 0.9026 0.0
H480 H 0.43091 0.551 0.87959 0.0
H481 H 0.47486 0.54399 0.84208 0.0
H482 H 0.5037 0.43019 0.14236 0.0
H483 H 0.45914 0.51698 0.16726 0.0
H484 H 0.50663 0.40552 0.19134 0.0
H485 H 0.48638 0.4351 0.22866 0.0
Gd486 Gd 0.19857 0.37047 0.39993 0.0
Gd487 Gd 0.17084 0.32344 0.3349 0.0
C488 C 0.03686 0.20128 0.32755 0.0
C489 C 0.06412 0.14984 0.32374 0.0
C490 C 0.11853 0.22368 0.32892 0.0
C491 C 0.08252 0.23308 0.33042 0.0
C492 C 0.10977 0.18207 0.32534 0.0
C493 C 0.02782 0.15953 0.32456 0.0
C494 C 1.0019 0.21277 0.32675 0.0
C495 C 0.01287 0.2551 0.3285 0.0
N496 N 0.09251 0.27402 0.33257 0.0
C497 C 0.05866 0.28558 0.33115 0.0
H498 H 0.06655 0.31819 0.33227 0.0
C499 C 0.1993 0.24935 0.32504 0.0
N500 N 0.16241 0.25588 0.32948 0.0
C501 C 0.19227 0.20837 0.32215 0.0
C502 C 0.1473 0.17448 0.32254 0.0
H503 H 0.2341 0.27562 0.32467 0.0
H504 H 0.99294 0.13466 0.32241 0.0
H505 H 0.30389 0.37786 0.39588 0.0
H506 H 0.96654 0.18954 0.32406 0.0
H507 H 0.98611 0.26435 0.32763 0.0
H508 H 0.05666 0.11765 0.32104 0.0
H509 H 0.13678 0.41529 0.41924 0.0
H510 H 0.40454 0.5047 0.40717 0.0
H511 H 0.38462 0.43118 0.39947 0.0
H512 H 0.31411 0.57329 0.42193 0.0
H513 H 0.22151 0.20299 0.31946 0.0
H514 H 0.14197 0.14286 0.31996 0.0
H515 H 0.378 0.5578 0.41503 0.0
H516 H 0.14926 0.48596 0.42913 0.0
N517 N 0.27755 0.42111 0.39964 0.0
C518 C 0.36886 0.48161 0.40501 0.0
C519 C 0.35776 0.44013 0.40075 0.0
C520 C 0.33372 0.49254 0.40716 0.0
C521 C 0.28778 0.4611 0.40451 0.0
C522 C 0.31168 0.40994 0.39859 0.0
N523 N 0.20807 0.43679 0.40987 0.0
C524 C 0.25185 0.46932 0.40948 0.0
C525 C 0.17844 0.4818 0.42355 0.0
C526 C 0.22329 0.51605 0.42236 0.0
C527 C 0.1715 0.44191 0.41789 0.0
C528 C 0.26074 0.50978 0.41596 0.0
H529 H 0.22868 0.54674 0.42725 0.0
O530 O 0.17226 0.36159 0.44296 0.0
O531 O 0.14634 0.31791 0.37887 0.0
O532 O 0.14546 0.37226 0.3343 0.0
O533 O 0.17878 0.41249 0.37063 0.0
O534 O 0.12052 0.34056 0.40692 0.0
O535 O 0.21831 0.33744 0.43314 0.0
O536 O 0.21103 0.33658 0.29597 0.0
O537 O 0.22033 0.37908 0.35515 0.0
O538 O 0.22619 0.32337 0.39564 0.0
O539 O 0.17424 0.27611 0.3683 0.0
O540 O 0.24936 0.35445 0.33048 0.0
O541 O 0.14845 0.34214 0.29608 0.0
C542 C 0.10888 0.31302 0.38973 0.0
C543 C 0.30655 0.54201 0.41701 0.0
C544 C 0.34293 0.53321 0.413 0.0
C545 C 0.19666 0.34394 0.45287 0.0
C546 C 0.22365 0.3608 0.47695 0.0
C547 C 0.26735 0.39741 0.47293 0.0
C548 C 0.20667 0.33941 0.50414 0.0
C549 C 0.23306 0.35487 0.52705 0.0
C550 C 0.29364 0.41269 0.49541 0.0
C551 C 0.27669 0.39165 0.52232 0.0
C552 C 0.15536 0.40515 0.34792 0.0
C553 C 0.25848 0.38527 0.34477 0.0
C554 C 0.18203 0.34348 0.28091 0.0
C555 C 0.16943 0.32239 0.25564 0.0
C556 C 0.13354 0.28014 0.2571 0.0
C557 C 0.19322 0.34482 0.22974 0.0
C558 C 0.18051 0.32546 0.20518 0.0
C559 C 0.12122 0.26044 0.2332 0.0
C560 C 0.14408 0.28285 0.20747 0.0
C561 C 0.20476 0.28509 0.38726 0.0
H562 H 0.28159 0.41404 0.45246 0.0
H563 H 0.17283 0.31123 0.50747 0.0
H564 H 0.32736 0.4409 0.49193 0.0
H565 H 0.29785 0.40403 0.53945 0.0
H566 H 0.11459 0.26251 0.27661 0.0
H567 H 0.22124 0.37736 0.22883 0.0
H568 H 0.09311 0.2279 0.23453 0.0
H569 H 0.13184 0.26696 0.18929 0.0
Gd570 Gd 0.64485 0.84023 0.39813 0.0
Gd571 Gd 0.70389 0.87355 0.32691 0.0
C572 C 0.83067 0.85756 0.309 0.0
C573 C 0.89133 0.93157 0.29782 0.0
C574 C 0.81214 0.91517 0.30863 0.0
C575 C 0.79847 0.87205 0.31301 0.0
C576 C 0.85845 0.94549 0.30012 0.0
C577 C 0.87744 0.8876 0.30226 0.0
C578 C 0.81458 0.81342 0.31079 0.0
C579 C 0.76732 0.78516 0.31548 0.0
N580 N 0.75296 0.84414 0.31923 0.0
C581 C 0.73681 0.80119 0.31922 0.0
H582 H 0.70058 0.77879 0.3229 0.0
C583 C 0.78954 0.96871 0.30189 0.0
N584 N 0.77927 0.92719 0.31056 0.0
C585 C 0.83504 1.00014 0.29358 0.0
C586 C 0.86985 0.98861 0.29315 0.0
H587 H 0.76275 0.9778 0.30234 0.0
H588 H 0.90281 0.87712 0.29952 0.0
H589 H 0.65756 0.93894 0.40075 0.0
H590 H 0.83809 0.80095 0.3077 0.0
H591 H 0.75431 0.75098 0.31628 0.0
H592 H 0.92722 0.95438 0.29168 0.0
H593 H 0.57748 0.73488 0.4158 0.0
H594 H 0.52688 0.92562 0.42555 0.0
H595 H 0.61017 0.97139 0.41211 0.0
H596 H 0.42669 0.77356 0.43873 0.0
H597 H 0.84322 0.03321 0.28755 0.0
H598 H 0.90502 0.01293 0.28654 0.0
H599 H 0.45831 0.85181 0.43453 0.0
H600 H 0.49568 0.68363 0.43093 0.0
N601 N 0.60167 0.8748 0.4067 0.0
C602 C 0.54746 0.91102 0.42026 0.0
C603 C 0.59447 0.93695 0.41278 0.0
C604 C 0.52765 0.86652 0.42123 0.0
C605 C 0.55611 0.84912 0.41447 0.0
C606 C 0.62129 0.91822 0.40633 0.0
N607 N 0.56772 0.7897 0.41255 0.0
C608 C 0.53848 0.80518 0.41719 0.0
C609 C 0.50718 0.71771 0.42701 0.0
C610 C 0.47609 0.73302 0.43068 0.0
C611 C 0.55336 0.74673 0.41847 0.0
C612 C 0.49177 0.77728 0.42635 0.0
H613 H 0.44044 0.71053 0.43762 0.0
O614 O 0.65473 0.8047 0.43474 0.0
O615 O 0.70195 0.84656 0.3707 0.0
O616 O 0.64741 0.80282 0.3341 0.0
O617 O 0.59539 0.79532 0.36984 0.0
O618 O 0.66628 0.78947 0.39734 0.0
O619 O 0.67174 0.8709 0.43496 0.0
O620 O 0.69037 0.9031 0.2887 0.0
O621 O 0.64762 0.86838 0.35455 0.0
O622 O 0.70581 0.90861 0.39382 0.0
O623 O 0.75219 0.92336 0.35291 0.0
O624 O 0.68106 0.92368 0.32655 0.0
O625 O 0.67286 0.8363 0.29335 0.0
C626 C 0.70075 0.81142 0.37915 0.0
C627 C 0.46274 0.79444 0.43185 0.0
C628 C 0.48074 0.83898 0.42947 0.0
C629 C 0.66947 0.83654 0.4492 0.0
C630 C 0.65137 0.82614 0.47858 0.0
C631 C 0.60398 0.80853 0.48537 0.0
C632 C 0.68189 0.83388 0.5001 0.0
C633 C 0.66537 0.82473 0.52842 0.0
C634 C 0.5872 0.79894 0.51316 0.0
C635 C 0.61744 0.8071 0.53448 0.0
C636 C 0.60629 0.78164 0.34823 0.0
C637 C 0.648 0.90307 0.34572 0.0
C638 C 0.67481 0.86863 0.27678 0.0
C639 C 0.69246 0.87399 0.24792 0.0
C640 C 0.73959 0.88948 0.24145 0.0
C641 C 0.66145 0.86185 0.22679 0.0
C642 C 0.67709 0.86411 0.19919 0.0
C643 C 0.7556 0.8925 0.21422 0.0
C644 C 0.72473 0.87967 0.1933 0.0
C645 C 0.74392 0.933 0.37715 0.0
H646 H 0.58001 0.80234 0.46921 0.0
H647 H 0.71842 0.84703 0.49464 0.0
H648 H 0.55055 0.78562 0.51823 0.0
H649 H 0.60312 0.80066 0.55568 0.0
H650 H 0.76388 0.89875 0.25746 0.0
H651 H 0.62517 0.85041 0.23205 0.0
H652 H 0.79201 0.90412 0.20937 0.0
H653 H 0.73829 0.88091 0.17268 0.0
Gd654 Gd 0.15559 0.85305 0.33313 0.0
Gd655 Gd 0.17574 0.82056 0.40629 0.0
C656 C 0.31792 0.83884 0.42835 0.0
C657 C 0.30334 0.76519 0.43855 0.0
C658 C 0.24086 0.78022 0.42602 0.0
C659 C 0.27113 0.82369 0.42286 0.0
C660 C 0.25624 0.75042 0.43472 0.0
C661 C 0.33416 0.80938 0.43535 0.0
C662 C 0.34647 0.88301 0.42774 0.0
C663 C 0.32772 0.9106 0.42285 0.0
N664 N 0.2541 0.85113 0.41633 0.0
C665 C 0.28105 0.89396 0.41758 0.0
H666 H 0.26723 0.91579 0.41369 0.0
C667 C 0.16319 0.72512 0.42975 0.0
N668 N 0.19564 0.76719 0.42244 0.0
C669 C 0.1767 0.69423 0.43825 0.0
C670 C 0.22354 0.70684 0.44028 0.0
H671 H 0.12695 0.71534 0.42821 0.0
H672 H 0.3701 0.8204 0.43926 0.0
H673 H 0.06584 0.75354 0.33263 0.0
H674 H 0.38257 0.89596 0.43192 0.0
H675 H 0.34921 0.94472 0.423 0.0
H676 H 0.31598 0.7428 0.44487 0.0
H677 H 0.19668 0.95614 0.30825 0.0
H678 H 0.94529 0.76409 0.31387 0.0
H679 H 0.98294 0.7195 0.32573 0.0
H680 H 0.00324 0.91591 0.29316 0.0
H681 H 0.151 0.66077 0.44324 0.0
H682 H 0.23392 0.6829 0.44702 0.0
H683 H 0.95314 0.8376 0.3019 0.0
H684 H 0.16746 1.00637 0.29185 0.0
N685 N 0.07579 0.8174 0.32584 0.0
C686 C 0.98188 0.77937 0.31705 0.0
C687 C 0.00304 0.75413 0.32365 0.0
C688 C 0.00853 0.82407 0.31375 0.0
C689 C 0.05599 0.84229 0.31823 0.0
C690 C 0.05035 0.77375 0.32754 0.0
N691 N 0.12981 0.9018 0.31589 0.0
C692 C 0.08399 0.88606 0.31321 0.0
C693 C 0.14352 0.97264 0.29796 0.0
C694 C 0.09607 0.9572 0.29646 0.0
C695 C 0.15993 0.94419 0.30725 0.0
C696 C 0.06569 0.91327 0.30355 0.0
H697 H 0.08341 0.9792 0.289 0.0
O698 O 0.19999 0.8859 0.2949 0.0
O699 O 0.20484 0.84988 0.36294 0.0
O700 O 0.18901 0.88958 0.39985 0.0
O701 O 0.1587 0.90335 0.35834 0.0
O702 O 0.22917 0.9047 0.33401 0.0
O703 O 0.15515 0.81771 0.29958 0.0
O704 O 0.12492 0.79056 0.44166 0.0
O705 O 0.12701 0.82613 0.37694 0.0
O706 O 0.14592 0.78538 0.33961 0.0
O707 O 0.18011 0.77454 0.38002 0.0
O708 O 0.10195 0.76991 0.40433 0.0
O709 O 0.18371 0.85289 0.44287 0.0
C710 C 0.2399 0.88527 0.35441 0.0
C711 C 0.01808 0.89557 0.30031 0.0
C712 C 0.98957 0.85099 0.3053 0.0
C713 C 0.1848 0.85146 0.28297 0.0
C714 C 0.17272 0.85485 0.25371 0.0
C715 C 0.13324 0.85859 0.24799 0.0
C716 C 0.19936 0.85279 0.23152 0.0
C717 C 0.18609 0.85387 0.20368 0.0
C718 C 0.11979 0.85956 0.22089 0.0
C719 C 0.14541 0.85678 0.19909 0.0
C720 C 0.17675 0.91348 0.3825 0.0
C721 C 0.09096 0.7914 0.38541 0.0
C722 C 0.14677 0.8214 0.4565 0.0
C723 C 0.15048 0.80829 0.4861 0.0
C724 C 0.16492 0.77766 0.49335 0.0
C725 C 0.13839 0.82557 0.50738 0.0
C726 C 0.14072 0.81219 0.53575 0.0
C727 C 0.16647 0.76372 0.52122 0.0
C728 C 0.15432 0.78058 0.54224 0.0
C729 C 0.16183 0.76372 0.35606 0.0
H730 H 0.11235 0.86007 0.26459 0.0
H731 H 0.23007 0.85026 0.23609 0.0
H732 H 0.08875 0.86175 0.21678 0.0
H733 H 0.13217 0.85578 0.17868 0.0
H734 H 0.17467 0.7642 0.4775 0.0
H735 H 0.12804 0.84984 0.50181 0.0
H736 H 0.17718 0.73969 0.52659 0.0
H737 H 0.15562 0.76878 0.56367 0.0
Gd738 Gd 0.86466 0.70462 0.73311 0.0
Gd739 Gd 0.84149 0.65786 0.6677 0.0
C740 C 0.70654 0.53563 0.66215 0.0
C741 C 0.73307 0.48366 0.65848 0.0
C742 C 0.78818 0.55764 0.66298 0.0
C743 C 0.75245 0.56742 0.66446 0.0
C744 C 0.77894 0.5159 0.65929 0.0
C745 C 0.69701 0.49359 0.65965 0.0
C746 C 0.6718 0.54742 0.66121 0.0
C747 C 0.68326 0.59007 0.6621 0.0
N748 N 0.76288 0.60867 0.66594 0.0
C749 C 0.72926 0.62054 0.66417 0.0
H750 H 0.73747 0.65338 0.66468 0.0
C751 C 0.86861 0.58374 0.6554 0.0
N752 N 0.83232 0.58993 0.66245 0.0
C753 C 0.86121 0.54266 0.65245 0.0
C754 C 0.81619 0.50841 0.65491 0.0
H755 H 0.90334 0.61047 0.65299 0.0
H756 H 0.66196 0.46877 0.65784 0.0
H757 H 0.96953 0.71032 0.73158 0.0
H758 H 0.63627 0.52419 0.65896 0.0
H759 H 0.6567 0.59958 0.66102 0.0
H760 H 0.72526 0.45137 0.6558 0.0
H761 H 0.804 0.7513 0.75121 0.0
H762 H 0.0712 0.83778 0.74066 0.0
H763 H 0.05033 0.76327 0.7351 0.0
H764 H 0.98233 0.90887 0.75204 0.0
H765 H 0.89014 0.53755 0.64798 0.0
H766 H 0.81049 0.47674 0.65214 0.0
H767 H 0.04554 0.89205 0.74668 0.0
H768 H 0.8174 0.82296 0.75948 0.0
N769 N 0.94391 0.75454 0.73341 0.0
C770 C 0.03545 0.81481 0.73856 0.0
C771 C 0.0238 0.77275 0.73556 0.0
C772 C 1.00072 0.82642 0.73972 0.0
C773 C 0.95465 0.79513 0.73716 0.0
C774 C 0.97762 0.74272 0.73351 0.0
N775 N 0.87511 0.77182 0.74196 0.0
C776 C 0.91906 0.80414 0.74129 0.0
C777 C 0.84632 0.81819 0.75429 0.0
C778 C 0.89135 0.85222 0.75268 0.0
C779 C 0.83887 0.77776 0.74955 0.0
C780 C 0.92845 0.84517 0.74687 0.0
H781 H 0.89714 0.88335 0.75688 0.0
O782 O 0.83746 0.69872 0.77549 0.0
O783 O 0.81502 0.65084 0.71166 0.0
O784 O 0.81654 0.70737 0.66535 0.0
O785 O 0.8423 0.74447 0.70379 0.0
O786 O 0.78672 0.67411 0.73809 0.0
O787 O 0.88 0.67013 0.76773 0.0
O788 O 0.88655 0.67798 0.63007 0.0
O789 O 0.88857 0.71391 0.68858 0.0
O790 O 0.89175 0.65671 0.73245 0.0
O791 O 0.85257 0.6129 0.69916 0.0
O792 O 0.91978 0.68965 0.66489 0.0
O793 O 0.81699 0.66815 0.62718 0.0
C794 C 0.77687 0.64561 0.72174 0.0
C795 C 0.9744 0.87718 0.74779 0.0
C796 C 0.01041 0.86763 0.74462 0.0
C797 C 0.85911 0.67898 0.78658 0.0
C798 C 0.88592 0.69546 0.81077 0.0
C799 C 0.92796 0.73384 0.80708 0.0
C800 C 0.87074 0.67189 0.8376 0.0
C801 C 0.89741 0.68684 0.86051 0.0
C802 C 0.95472 0.7485 0.82948 0.0
C803 C 0.93969 0.72521 0.85602 0.0
C804 C 0.82234 0.73843 0.67986 0.0
C805 C 0.9274 0.72036 0.67904 0.0
C806 C 0.85534 0.67713 0.61348 0.0
C807 C 0.85194 0.65616 0.58853 0.0
C808 C 0.83434 0.61167 0.59094 0.0
C809 C 0.8691 0.68111 0.56221 0.0
C810 C 0.86977 0.66181 0.53855 0.0
C811 C 0.83637 0.59254 0.56806 0.0
C812 C 0.85452 0.61735 0.54218 0.0
C813 C 0.87805 0.62141 0.72073 0.0
H814 H 0.94049 0.75237 0.78689 0.0
H815 H 0.83799 0.64245 0.84064 0.0
H816 H 0.98727 0.77806 0.82624 0.0
H817 H 0.96121 0.73725 0.87307 0.0
H818 H 0.81935 0.5916 0.61045 0.0
H819 H 0.88098 0.71527 0.56023 0.0
H820 H 0.82368 0.55824 0.57038 0.0
H821 H 0.85595 0.6014 0.52493 0.0
Gd822 Gd 0.31025 0.17556 0.72953 0.0
Gd823 Gd 0.37075 0.2117 0.65848 0.0
C824 C 0.50031 0.20035 0.6411 0.0
C825 C 0.5597 0.2751 0.63159 0.0
C826 C 0.47963 0.2565 0.64183 0.0
C827 C 0.46703 0.2135 0.64527 0.0
C828 C 0.52587 0.28785 0.63413 0.0
C829 C 0.54692 0.23137 0.63509 0.0
C830 C 0.48547 0.15651 0.64202 0.0
C831 C 0.43838 0.12724 0.64609 0.0
N832 N 0.42167 0.18451 0.65084 0.0
C833 C 0.40675 0.14194 0.65003 0.0
H834 H 0.37056 0.11891 0.65323 0.0
C835 C 0.45542 0.30905 0.63637 0.0
N836 N 0.44597 0.26753 0.64411 0.0
C837 C 0.5008 0.3414 0.62883 0.0
C838 C 0.53635 0.33086 0.62819 0.0
H839 H 0.42795 0.31726 0.63678 0.0
H840 H 0.57308 0.22189 0.63221 0.0
H841 H 0.3173 0.27178 0.73222 0.0
H842 H 0.50987 0.14508 0.63874 0.0
H843 H 0.42639 0.09332 0.64624 0.0
H844 H 0.59552 0.29871 0.62605 0.0
H845 H 0.24688 0.06903 0.7458 0.0
H846 H 0.18336 0.25199 0.75637 0.0
H847 H 0.26625 0.30092 0.74322 0.0
H848 H 0.08988 0.09895 0.76927 0.0
H849 H 0.5083 0.3744 0.6235 0.0
H850 H 0.57144 0.35594 0.6222 0.0
H851 H 0.11758 0.17663 0.76536 0.0
H852 H 0.16579 0.01502 0.76039 0.0
N853 N 0.26374 0.20669 0.73808 0.0
C854 C 0.20556 0.23891 0.7513 0.0
C855 C 0.25233 0.26663 0.74394 0.0
C856 C 0.18807 0.19462 0.75239 0.0
C857 C 0.21852 0.17925 0.7458 0.0
C858 C 0.2812 0.24988 0.73769 0.0
N859 N 0.234 0.12205 0.7434 0.0
C860 C 0.20308 0.1356 0.74832 0.0
C861 C 0.17575 0.04881 0.75693 0.0
C862 C 0.14303 0.06213 0.76092 0.0
C863 C 0.22154 0.0794 0.74866 0.0
C864 C 0.15666 0.10601 0.75713 0.0
H865 H 0.10766 0.0384 0.7676 0.0
O866 O 0.32876 0.14431 0.76454 0.0
O867 O 0.36764 0.18271 0.70198 0.0
O868 O 0.31403 0.14088 0.66443 0.0
O869 O 0.26173 0.1311 0.70087 0.0
O870 O 0.33149 0.12495 0.72807 0.0
O871 O 0.32821 0.20341 0.76836 0.0
O872 O 0.35098 0.23934 0.62214 0.0
O873 O 0.31362 0.20475 0.6861 0.0
O874 O 0.36995 0.2446 0.7257 0.0
O875 O 0.41837 0.25957 0.68568 0.0
O876 O 0.34642 0.26073 0.6586 0.0
O877 O 0.35163 0.17957 0.62145 0.0
C878 C 0.36601 0.1472 0.70992 0.0
C879 C 0.12575 0.12114 0.76263 0.0
C880 C 0.14149 0.16536 0.76042 0.0
C881 C 0.33454 0.17246 0.78086 0.0
C882 C 0.31544 0.15498 0.81002 0.0
C883 C 0.26983 0.12191 0.81569 0.0
C884 C 0.34399 0.16909 0.83233 0.0
C885 C 0.32743 0.1495 0.86019 0.0
C886 C 0.25328 0.10213 0.84289 0.0
C887 C 0.28178 0.11527 0.86485 0.0
C888 C 0.27303 0.11871 0.67873 0.0
C889 C 0.31299 0.23906 0.67749 0.0
C890 C 0.34584 0.20971 0.60725 0.0
C891 C 0.36661 0.22473 0.57837 0.0
C892 C 0.41202 0.25832 0.57273 0.0
C893 C 0.34039 0.20633 0.55608 0.0
C894 C 0.35926 0.2218 0.52825 0.0
C895 C 0.43066 0.27424 0.54539 0.0
C896 C 0.40452 0.25646 0.52331 0.0
C897 C 0.40895 0.26887 0.70975 0.0
H898 H 0.24724 0.11071 0.79906 0.0
H899 H 0.37888 0.19531 0.82781 0.0
H900 H 0.21825 0.07602 0.84696 0.0
H901 H 0.26783 0.09807 0.88548 0.0
H902 H 0.433 0.27262 0.58938 0.0
H903 H 0.30567 0.17971 0.56051 0.0
H904 H 0.46554 0.3006 0.54126 0.0
H905 H 0.41989 0.27006 0.50232 0.0
Gd906 Gd 0.81722 0.18618 0.66681 0.0
Gd907 Gd 0.83717 0.15193 0.73959 0.0
C908 C 0.9803 0.17128 0.75987 0.0
C909 C 0.96643 0.09782 0.76984 0.0
C910 C 0.90325 0.11225 0.7582 0.0
C911 C 0.93326 0.1558 0.75497 0.0
C912 C 0.91915 0.0827 0.76648 0.0
C913 C 0.99698 0.14207 0.76651 0.0
C914 C 0.00875 0.21554 0.75892 0.0
C915 C 0.98966 0.24291 0.75429 0.0
N916 N 0.91586 0.18301 0.74873 0.0
C917 C 0.94274 0.22594 0.74965 0.0
H918 H 0.92858 0.24754 0.74592 0.0
C919 C 0.82578 0.05665 0.76234 0.0
N920 N 0.85785 0.09886 0.75502 0.0
C921 C 0.83981 0.02603 0.77046 0.0
C922 C 0.8868 0.03902 0.77208 0.0
H923 H 0.78942 0.04661 0.76114 0.0
H924 H 0.0331 0.15336 0.76998 0.0
H925 H 0.72666 0.08771 0.66565 0.0
H926 H 0.04507 0.22875 0.76257 0.0
H927 H 0.0111 0.27711 0.75416 0.0
H928 H 0.97946 0.07564 0.77584 0.0
H929 H 0.86043 0.28979 0.6428 0.0
H930 H 0.60766 0.10073 0.64621 0.0
H931 H 0.6439 0.05492 0.65809 0.0
H932 H 0.66827 0.25307 0.62668 0.0
H933 H 0.8144 0.99248 0.77547 0.0
H934 H 0.89759 0.01529 0.7785 0.0
H935 H 0.61699 0.1749 0.63477 0.0
H936 H 0.83272 0.34122 0.62646 0.0
N937 N 0.73763 0.15187 0.65927 0.0
C938 C 0.64413 0.11541 0.6497 0.0
C939 C 0.66448 0.08948 0.65632 0.0
C940 C 0.67139 0.16005 0.64684 0.0
C941 C 0.71865 0.17747 0.65171 0.0
C942 C 0.71164 0.10834 0.6606 0.0
N943 N 0.79299 0.23621 0.65004 0.0
C944 C 0.74732 0.22119 0.64707 0.0
C945 C 0.80825 0.30758 0.63236 0.0
C946 C 0.76096 0.29293 0.63062 0.0
C947 C 0.82381 0.27846 0.64163 0.0
C948 C 0.72989 0.24909 0.63743 0.0
H949 H 0.74898 0.31544 0.62317 0.0
O950 O 0.86518 0.21886 0.63001 0.0
O951 O 0.86624 0.18182 0.69633 0.0
O952 O 0.84865 0.22058 0.73405 0.0
O953 O 0.81844 0.23514 0.69271 0.0
O954 O 0.89033 0.23789 0.66859 0.0
O955 O 0.81318 0.1529 0.63132 0.0
O956 O 0.78633 0.12187 0.77494 0.0
O957 O 0.7886 0.15785 0.71043 0.0
O958 O 0.80757 0.11834 0.67225 0.0
O959 O 0.83998 0.1055 0.71297 0.0
O960 O 0.76338 0.10135 0.73759 0.0
O961 O 0.84659 0.18289 0.77699 0.0
C962 C 0.90125 0.2175 0.68828 0.0
C963 C 0.68245 0.23216 0.63384 0.0
C964 C 0.65327 0.18767 0.63843 0.0
C965 C 0.84675 0.18616 0.61635 0.0
C966 C 0.83868 0.19497 0.58677 0.0
C967 C 0.80499 0.20713 0.58036 0.0
C968 C 0.86405 0.19077 0.56482 0.0
C969 C 0.85549 0.1985 0.53653 0.0
C970 C 0.7963 0.21479 0.55276 0.0
C971 C 0.82089 0.21031 0.53114 0.0
C972 C 0.83584 0.24457 0.71714 0.0
C973 C 0.75253 0.12306 0.71873 0.0
C974 C 0.80908 0.15173 0.79032 0.0
C975 C 0.81197 0.13704 0.81979 0.0
C976 C 0.82331 0.10417 0.82645 0.0
C977 C 0.80143 0.1546 0.84156 0.0
C978 C 0.80169 0.13894 0.86983 0.0
C979 C 0.82291 0.08807 0.85412 0.0
C980 C 0.81184 0.1049 0.87559 0.0
C981 C 0.82232 0.09561 0.68872 0.0
H982 H 0.78505 0.21032 0.59673 0.0
H983 H 0.89026 0.18159 0.56985 0.0
H984 H 0.76981 0.22372 0.54808 0.0
H985 H 0.81159 0.21505 0.51014 0.0
H986 H 0.83192 0.09048 0.81029 0.0
H987 H 0.79362 0.18062 0.8364 0.0
H988 H 0.83101 0.06219 0.85898 0.0
H989 H 0.81109 0.09095 0.89679 0.0
C990 C 0.35261 0.85421 0.07285 0.0
C991 C 0.31117 0.85449 0.07959 0.0
H992 H 0.42469 0.89115 0.05874 0.0
C993 C 0.31126 0.89399 0.07538 0.0
H994 H 0.35345 0.82416 0.07534 0.0
C995 C 0.35182 0.93221 0.06564 0.0
C996 C 0.39335 0.93208 0.05915 0.0
H997 H 0.27981 0.89537 0.07896 0.0
H998 H 0.35076 0.96218 0.06322 0.0
C999 C 0.39323 0.89248 0.06288 0.0
C1000 C 0.14589 0.48223 0.05076 0.0
C1001 C 0.13517 0.43899 0.05487 0.0
H1002 H 0.11935 0.52647 0.04483 0.0
C1003 C 0.08994 0.40699 0.05233 0.0
H1004 H 0.18069 0.50721 0.05288 0.0
C1005 C 0.05494 0.41776 0.04806 0.0
C1006 C 0.06509 0.4608 0.04552 0.0
H1007 H 0.08143 0.37354 0.05508 0.0
H1008 H 0.01967 0.39242 0.04772 0.0
C1009 C 0.11095 0.49314 0.04618 0.0
C1010 C 0.56313 0.68463 0.07186 0.0
C1011 C 0.52777 0.69552 0.07376 0.0
H1012 H 0.58191 0.63756 0.06301 0.0
C1013 C 0.4837 0.66738 0.06586 0.0
H1014 H 0.59745 0.70605 0.07756 0.0
C1015 C 0.47503 0.62864 0.05674 0.0
C1016 C 0.50994 0.61688 0.05627 0.0
H1017 H 0.45583 0.67497 0.06735 0.0
H1018 H 0.44067 0.60718 0.05108 0.0
C1019 C 0.55416 0.64545 0.06365 0.0
C1020 C 0.8571 0.36084 0.97107 0.0
C1021 C 0.83728 0.32244 0.98987 0.0
H1022 H 0.90401 0.42879 0.96456 0.0
C1023 C 0.84926 0.32445 0.01767 0.0
H1024 H 0.84822 0.36056 0.94962 0.0
C1025 C 0.88005 0.36372 0.02642 0.0
C1026 C 0.90054 0.40187 1.00748 0.0
H1027 H 0.8357 0.29546 0.03253 0.0
H1028 H 0.88917 0.36389 0.0478 0.0
C1029 C 0.88886 0.39993 0.97965 0.0
C1030 C 0.66704 0.52732 1.01363 0.0
C1031 C 0.70311 0.56944 1.00692 0.0
H1032 H 0.5943 0.48711 0.02298 0.0
C1033 C 0.69472 0.60403 1.00812 0.0
H1034 H 0.67313 0.50039 1.01262 0.0
C1035 C 0.65002 0.59665 1.0139 0.0
C1036 C 0.61338 0.55456 0.01902 0.0
H1037 H 0.72249 0.63669 1.00321 0.0
H1038 H 0.64374 0.62376 1.01331 0.0
C1039 C 0.62223 0.51986 0.01954 0.0
C1040 C 0.43735 0.14691 1.00522 0.0
C1041 C 0.45516 0.17063 0.97872 0.0
H1042 H 0.4326 0.09617 0.0357 0.0
C1043 C 0.47824 0.1574 0.96113 0.0
H1044 H 0.41907 0.15624 0.01905 0.0
C1045 C 0.48584 0.12269 0.97066 0.0
C1046 C 0.47099 0.10121 0.99801 0.0
H1047 H 0.49279 0.17548 0.94077 0.0
H1048 H 0.50571 0.11436 0.95728 0.0
C1049 C 0.44545 0.11283 1.01483 0.0
C1050 C 0.66454 0.16922 0.98929 0.0
C1051 C 0.7088 0.17298 0.98633 0.0
H1052 H 0.59217 0.12773 1.00063 0.0
C1053 C 0.71279 0.13547 0.99181 0.0
H1054 H 0.66003 0.19722 0.98433 0.0
C1055 C 0.67367 0.09539 1.00025 0.0
C1056 C 0.62973 0.09192 1.00427 0.0
H1057 H 0.74631 0.13725 0.98989 0.0
H1058 H 0.67786 0.06705 1.00409 0.0
C1059 C 0.62563 0.12936 0.99855 0.0
C1060 C 0.89874 0.61228 0.99503 0.0
C1061 C 0.85542 0.57551 0.99636 0.0
H1062 H 0.97112 0.63741 1.00035 0.0
C1063 C 0.85154 0.5351 1.00522 0.0
H1064 H 0.90222 0.64378 0.98884 0.0
C1065 C 0.89053 0.53143 1.01232 0.0
C1066 C 0.93406 0.5682 1.01071 0.0
H1067 H 0.81835 0.50637 1.00632 0.0
H1068 H 0.88674 0.49978 0.01835 0.0
C1069 C 0.93782 0.60865 1.00201 0.0
C1070 C 0.46045 0.31196 0.01657 0.0
C1071 C 0.47376 0.31454 0.98852 0.0
H1072 H 0.45446 0.34538 0.04884 0.0
C1073 C 0.49383 0.35476 0.97178 0.0
H1074 H 0.44411 0.2813 0.02983 0.0
C1075 C 0.49885 0.39119 0.9825 0.0
C1076 C 0.48505 0.38848 1.01042 0.0
H1077 H 0.50518 0.35791 0.95028 0.0
H1078 H 0.51352 0.42159 0.96891 0.0
C1079 C 0.46641 0.34864 0.02747 0.0
C1080 C 0.12879 0.69829 0.07511 0.0
C1081 C 0.17599 0.71009 0.07362 0.0
H1082 H 0.05981 0.65182 0.06831 0.0
C1083 C 0.18959 0.68349 0.06176 0.0
H1084 H 0.11726 0.71865 0.0833 0.0
C1085 C 0.15661 0.64563 0.05221 0.0
C1086 C 0.10918 0.63299 0.05495 0.0
H1087 H 0.22564 0.69164 0.0603 0.0
H1088 H 0.1681 0.62566 0.04337 0.0
C1089 C 0.09583 0.65999 0.06638 0.0
C1090 C 0.28872 0.39874 0.06733 0.0
C1091 C 0.28105 0.43393 0.06732 0.0
H1092 H 0.33831 0.37746 0.06151 0.0
C1093 C 0.31792 0.47558 0.05977 0.0
H1094 H 0.26041 0.36639 0.07208 0.0
C1095 C 0.36209 0.482 0.05288 0.0
C1096 C 0.36998 0.44675 0.05345 0.0
H1097 H 0.31248 0.50311 0.05945 0.0
H1098 H 0.39018 0.51448 0.04807 0.0
C1099 C 0.33291 0.4051 0.06067 0.0
C1100 C 0.57985 0.87017 0.05818 0.0
C1101 C 0.55496 0.84283 0.0825 0.0
H1102 H 0.59542 0.92741 0.03043 0.0
C1103 C 0.53037 0.85541 0.09942 0.0
H1104 H 0.59986 0.86159 0.04516 0.0
C1105 C 0.52787 0.89313 0.09104 0.0
C1106 C 0.55022 0.91884 0.06571 0.0
H1107 H 0.511 0.83478 0.11828 0.0
H1108 H 0.50621 0.90077 0.10343 0.0
C1109 C 0.57742 0.90778 0.04985 0.0
C1110 C 0.97992 0.2352 0.40487 0.0
C1111 C 0.97904 0.19595 0.41375 0.0
H1112 H 0.0215 0.30281 0.39045 0.0
C1113 C 0.02136 0.19536 0.41337 0.0
H1114 H 0.94801 0.2366 0.40383 0.0
C1115 C 0.06317 0.23275 0.40405 0.0
C1116 C 0.06408 0.27202 0.39536 0.0
H1117 H 0.02191 0.16565 0.42 0.0
H1118 H 0.09503 0.23137 0.40457 0.0
C1119 C 0.02196 0.27291 0.39648 0.0
C1120 C 0.82341 0.83452 0.38689 0.0
C1121 C 0.81664 0.79284 0.39429 0.0
H1122 H 0.79118 0.87333 0.37617 0.0
C1123 C 0.77289 0.75752 0.39317 0.0
H1124 H 0.85712 0.86198 0.38778 0.0
C1125 C 0.73543 0.76377 0.38661 0.0
C1126 C 0.74152 0.80545 0.38071 0.0
H1127 H 0.7675 0.72518 0.39863 0.0
H1128 H 0.70141 0.73611 0.38713 0.0
C1129 C 0.78589 0.84087 0.38027 0.0
C1130 C 0.22433 0.03332 0.37895 0.0
C1131 C 0.21327 0.0368 0.40614 0.0
H1132 H 0.22052 0.99127 0.34998 0.0
C1133 C 0.18897 0.99928 0.42527 0.0
H1134 H 0.24431 0.06189 0.36414 0.0
C1135 C 0.17647 0.95904 0.41744 0.0
C1136 C 0.18703 0.95558 0.39013 0.0
H1137 H 0.18021 1.00127 0.44636 0.0
H1138 H 0.15858 0.93061 0.43271 0.0
C1139 C 0.21073 0.99301 0.37088 0.0
C1140 C 0.49258 0.6854 0.33386 0.0
C1141 C 0.50818 0.6597 0.32259 0.0
H1142 H 0.51102 0.74362 0.35127 0.0
C1143 C 0.55597 0.67395 0.32098 0.0
H1144 H 0.45607 0.67555 0.33536 0.0
C1145 C 0.58737 0.71334 0.32918 0.0
C1146 C 0.57203 0.73934 0.34011 0.0
H1147 H 0.56923 0.65447 0.31336 0.0
H1148 H 0.6238 0.72309 0.32731 0.0
C1149 C 0.52408 0.72449 0.34286 0.0
C1150 C 0.36855 0.94797 0.34891 0.0
C1151 C 0.38 0.91577 0.34582 0.0
H1152 H 0.31385 0.96304 0.35397 0.0
C1153 C 0.3457 0.87258 0.35035 0.0
H1154 H 0.39497 0.98136 0.34586 0.0
C1155 C 0.29963 0.86195 0.35556 0.0
C1156 C 0.28779 0.89457 0.35626 0.0
H1157 H 0.35427 0.84746 0.34798 0.0
H1158 H 0.27314 0.82866 0.35713 0.0
C1159 C 0.32255 0.93752 0.35359 0.0
C1160 C 0.1072 0.48203 0.34392 0.0
C1161 C 0.12359 0.50495 0.31704 0.0
H1162 H 0.10521 0.43301 0.3749 0.0
C1163 C 0.1457 0.49127 0.29915 0.0
H1164 H 0.08936 0.49156 0.35791 0.0
C1165 C 0.15397 0.45705 0.30873 0.0
C1166 C 0.14099 0.43676 0.33645 0.0
H1167 H 0.15892 0.50859 0.27844 0.0
H1168 H 0.17283 0.44811 0.29503 0.0
C1169 C 0.11647 0.44879 0.35369 0.0
C1170 C 0.38175 0.4717 0.31973 0.0
C1171 C 0.3794 0.50997 0.31918 0.0
H1172 H 0.34572 0.40271 0.32832 0.0
C1173 C 0.33688 0.5068 0.3276 0.0
H1174 H 0.41401 0.47281 0.31403 0.0
C1175 C 0.29794 0.46666 0.33636 0.0
C1176 C 0.30035 0.4284 0.33699 0.0
H1177 H 0.33373 0.53555 0.32727 0.0
H1178 H 0.2658 0.46561 0.34236 0.0
C1179 C 0.34269 0.43151 0.32827 0.0
C1180 C 0.52488 0.8794 0.33754 0.0
C1181 C 0.53073 0.92104 0.33144 0.0
H1182 H 0.55756 0.84081 0.34754 0.0
C1183 C 0.5744 0.95634 0.33271 0.0
H1184 H 0.49111 0.85181 0.33718 0.0
C1185 C 0.61231 0.95024 0.33857 0.0
C1186 C 0.60677 0.90865 0.34414 0.0
H1187 H 0.57899 0.98855 0.3296 0.0
H1188 H 0.64609 0.97802 0.3386 0.0
C1189 C 0.56265 0.87319 0.34386 0.0
C1190 C 0.12966 0.64777 0.35345 0.0
C1191 C 0.14398 0.6495 0.3258 0.0
H1192 H 0.124 0.68271 0.38473 0.0
C1193 C 0.16657 0.68944 0.30883 0.0
H1194 H 0.11143 0.61727 0.36677 0.0
C1195 C 0.17322 0.72671 0.31898 0.0
C1196 C 0.15837 0.72487 0.34649 0.0
H1197 H 0.17841 0.69164 0.28757 0.0
H1198 H 0.18975 0.75699 0.30526 0.0
C1199 C 0.13703 0.68519 0.36376 0.0
C1200 C 0.83324 0.05077 0.37718 0.0
C1201 C 0.84382 0.05187 0.40526 0.0
H1202 H 0.79366 0.01273 0.34634 0.0
C1203 C 0.82208 0.01313 0.42372 0.0
H1204 H 0.8483 0.08002 0.36252 0.0
C1205 C 0.78979 0.97473 0.41458 0.0
C1206 C 0.77928 0.97367 0.38652 0.0
H1207 H 0.82985 0.01264 0.44537 0.0
H1208 H 0.77325 0.9457 0.42947 0.0
C1209 C 0.80175 0.01212 0.36789 0.0
C1210 C 0.99848 0.82266 0.39465 0.0
C1211 C 0.96006 0.7827 0.40404 0.0
H1212 H 0.07004 0.85681 0.3807 0.0
C1213 C 0.96411 0.74538 0.40525 0.0
H1214 H 0.99592 0.85179 0.39364 0.0
C1215 C 0.00641 0.74813 0.39773 0.0
C1216 C 0.04504 0.78819 0.38863 0.0
H1217 H 0.93454 0.71421 0.41181 0.0
H1218 H 0.0092 0.71903 0.39947 0.0
C1219 C 0.04063 0.82543 0.38699 0.0
C1220 C 0.2654 0.2212 0.41231 0.0
C1221 C 0.22791 0.1792 0.4163 0.0
H1222 H 0.28746 0.28847 0.40043 0.0
C1223 C 0.18309 0.17342 0.41391 0.0
H1224 H 0.30035 0.22648 0.41396 0.0
C1225 C 0.17598 0.20811 0.40499 0.0
C1226 C 0.2133 0.24995 0.39976 0.0
H1227 H 0.15354 0.14159 0.41768 0.0
H1228 H 0.14115 0.20183 0.40153 0.0
C1229 C 0.25806 0.25651 0.40444 0.0
C1230 C 0.69048 0.52745 0.74554 0.0
C1231 C 0.64816 0.5281 0.74711 0.0
H1232 H 0.76398 0.56327 0.73504 0.0
C1233 C 0.64883 0.56735 0.73886 0.0
H1234 H 0.69117 0.49769 0.75166 0.0
C1235 C 0.69052 0.60499 0.72999 0.0
C1236 C 0.73261 0.60421 0.72778 0.0
H1237 H 0.61694 0.56881 0.73863 0.0
H1238 H 0.68983 0.63489 0.72447 0.0
C1239 C 0.73208 0.56486 0.73567 0.0
C1240 C 0.43648 0.09186 0.72382 0.0
C1241 C 0.48001 0.12664 0.72632 0.0
H1242 H 0.36575 0.0716 0.71618 0.0
C1243 C 0.48751 0.16868 0.71965 0.0
H1244 H 0.43061 0.05928 0.72868 0.0
C1245 C 0.45073 0.17583 0.71245 0.0
C1246 C 0.40644 0.14086 0.71158 0.0
H1247 H 0.52111 0.19569 0.72157 0.0
H1248 H 0.45638 0.20845 0.70902 0.0
C1249 C 0.39976 0.09891 0.71667 0.0
C1250 C 0.84299 0.32525 0.76329 0.0
C1251 C 0.86401 0.36398 0.74491 0.0
H1252 H 0.81817 0.25726 0.76894 0.0
C1253 C 0.87335 0.36269 0.71684 0.0
H1254 H 0.83453 0.3251 0.78487 0.0
C1255 C 0.8626 0.32366 0.7075 0.0
C1256 C 0.84318 0.28526 0.72616 0.0
H1257 H 0.89026 0.39204 0.70231 0.0
H1258 H 0.87145 0.32389 0.68599 0.0
C1259 C 0.83334 0.28643 0.75412 0.0
C1260 C 0.224 0.01102 0.65169 0.0
C1261 C 0.176 0.9957 0.65423 0.0
H1262 H 0.29177 0.06161 0.65677 0.0
C1263 C 0.16002 0.02098 0.66567 0.0
H1264 H 0.23759 0.99191 0.64391 0.0
C1265 C 0.19128 0.06057 0.67408 0.0
C1266 C 0.23933 0.0764 0.67052 0.0
H1267 H 0.12336 0.01031 0.66785 0.0
H1268 H 0.17789 0.07923 0.68282 0.0
C1269 C 0.25515 0.051 0.65925 0.0
C1270 C 0.02976 0.2765 0.67785 0.0
C1271 C 0.03919 0.24274 0.67587 0.0
H1272 H 0.97755 0.29442 0.68379 0.0
C1273 C 0.00392 0.20016 0.68211 0.0
H1274 H 0.05694 0.30948 0.67324 0.0
C1275 C 0.95874 0.19145 0.68825 0.0
C1276 C 0.94885 0.22539 0.68845 0.0
H1277 H 0.0109 0.17388 0.68047 0.0
H1278 H 0.93135 0.15845 0.69119 0.0
C1279 C 0.98473 0.26789 0.68389 0.0
C1280 C 0.7729 0.81452 0.67626 0.0
C1281 C 0.789 0.83775 0.64944 0.0
H1282 H 0.77122 0.7653 0.7069 0.0
C1283 C 0.81127 0.82441 0.63136 0.0
H1284 H 0.75491 0.82366 0.69041 0.0
C1285 C 0.81992 0.79026 0.64068 0.0
C1286 C 0.80709 0.76956 0.66834 0.0
H1287 H 0.82426 0.84191 0.61067 0.0
H1288 H 0.83899 0.78175 0.62683 0.0
C1289 C 0.7824 0.78129 0.68573 0.0
C1290 C 0.00533 0.84186 0.66134 0.0
C1291 C 0.04798 0.84498 0.65328 0.0
H1292 H 0.93404 0.80061 0.67576 0.0
C1293 C 0.05066 0.80682 0.65452 0.0
H1294 H 1.00203 0.8706 0.66051 0.0
C1295 C 0.01173 0.7667 0.6633 0.0
C1296 C 0.96915 0.76358 0.67148 0.0
H1297 H 0.08305 0.80799 0.6491 0.0
H1298 H 0.01499 0.73796 0.66384 0.0
C1299 C 0.96642 0.80175 0.6702 0.0
C1300 C 0.18792 0.20993 0.67102 0.0
C1301 C 0.19166 0.25043 0.663 0.0
H1302 H 0.22338 0.17441 0.68224 0.0
C1303 C 0.23498 0.28719 0.66151 0.0
H1304 H 0.1547 0.18122 0.67214 0.0
C1305 C 0.27427 0.28344 0.66758 0.0
C1306 C 0.27067 0.24288 0.67541 0.0
H1307 H 0.23828 0.31874 0.65583 0.0
H1308 H 0.30761 0.31218 0.66576 0.0
C1309 C 0.22713 0.20613 0.67709 0.0
C1310 C 0.79182 0.97972 0.68613 0.0
C1311 C 0.80549 0.98131 0.65835 0.0
H1312 H 0.78617 0.01459 0.71748 0.0
C1313 C 0.82657 0.02114 0.64114 0.0
H1314 H 0.7747 0.94936 0.69968 0.0
C1315 C 0.83245 0.0583 0.65119 0.0
C1316 C 0.81845 0.05662 0.67888 0.0
H1317 H 0.83797 0.02337 0.61978 0.0
H1318 H 0.84797 0.08843 0.63729 0.0
C1319 C 0.79851 0.01707 0.69634 0.0
C1320 C 0.49902 0.38577 0.71131 0.0
C1321 C 0.51073 0.38544 0.73915 0.0
H1322 H 0.45733 0.34972 0.68043 0.0
C1323 C 0.48879 0.34625 0.75714 0.0
H1324 H 0.51419 0.41554 0.69712 0.0
C1325 C 0.4556 0.30856 0.74764 0.0
C1326 C 0.44424 0.30889 0.71974 0.0
H1327 H 0.49723 0.34487 0.77864 0.0
H1328 H 0.43915 0.27901 0.76207 0.0
C1329 C 0.46641 0.34795 0.70171 0.0
C1330 C 0.66071 0.1547 0.72874 0.0
C1331 C 0.62195 0.11468 0.73738 0.0
H1332 H 0.73234 0.18878 0.71526 0.0
C1333 C 0.62561 0.07723 0.73798 0.0
H1334 H 0.65844 0.18392 0.72825 0.0
C1335 C 0.66788 0.0799 0.73051 0.0
C1336 C 0.70676 0.12002 0.722 0.0
H1337 H 0.59576 0.04604 0.74399 0.0
H1338 H 0.67041 0.05071 0.73175 0.0
C1339 C 0.70275 0.15739 0.72105 0.0
C1340 C 0.87146 0.52684 0.7684 0.0
C1341 C 0.89461 0.5128 0.75154 0.0
H1342 H 0.84867 0.57328 0.77185 0.0
C1343 C 0.91699 0.53783 0.72608 0.0
H1344 H 0.85318 0.50754 0.78783 0.0
C1345 C 0.9144 0.57514 0.71695 0.0
C1346 C 0.88922 0.588 0.73307 0.0
H1347 H 0.93502 0.52751 0.71282 0.0
H1348 H 0.93091 0.59322 0.6969 0.0
C1349 C 0.86888 0.56431 0.75926 0.0
C1350 C 0.5492 0.99944 0.27127 0.0
C1351 C 0.50928 0.95957 0.27702 0.0
H1352 H 0.59459 0.05045 0.24033 0.0
C1353 C 0.48697 0.93808 0.25474 0.0
H1354 H 0.56639 0.01722 0.28796 0.0
C1355 C 0.50066 0.95847 0.22728 0.0
C1356 C 0.53809 1.00045 0.22145 0.0
H1357 H 0.45566 0.90746 0.25882 0.0
H1358 H 0.47925 0.94251 0.2111 0.0
C1359 C 0.56424 0.01912 0.24377 0.0
C1360 C 0.04597 0.4968 0.26888 0.0
C1361 C 0.08761 0.53551 0.26472 0.0
H1362 H 0.98647 0.45192 0.25047 0.0
C1363 C 0.10384 0.55629 0.23739 0.0
H1364 H 0.03266 0.48028 0.28976 0.0
C1365 C 0.0769 0.54123 0.21495 0.0
C1366 C 0.03314 0.50438 0.21918 0.0
H1367 H 0.13594 0.58626 0.23374 0.0
H1368 H 0.08923 0.56034 0.19466 0.0
C1369 C 0.01917 0.48119 0.24633 0.0
C1370 C 0.41969 0.52807 0.24646 0.0
C1371 C 0.44898 0.53743 0.26848 0.0
H1372 H 0.40378 0.50232 0.20765 0.0
C1373 C 0.48464 0.52681 0.26842 0.0
H1374 H 0.3926 0.53691 0.24585 0.0
C1375 C 0.49154 0.50778 0.2467 0.0
C1376 C 0.46298 0.49884 0.22422 0.0
H1377 H 0.50822 0.53473 0.28488 0.0
H1378 H 0.52035 0.50128 0.24715 0.0
C1379 C 0.42665 0.50897 0.22447 0.0
C1380 C 0.98607 0.50396 0.79675 0.0
C1381 C 0.93793 0.48589 0.79947 0.0
H1382 H 0.04982 0.53618 0.81562 0.0
C1383 C 0.91703 0.48972 0.82333 0.0
H1384 H 0.00256 0.50054 0.77863 0.0
C1385 C 0.94392 0.51093 0.84443 0.0
C1386 C 0.99232 0.52794 0.84234 0.0
H1387 H 0.8798 0.47523 0.82595 0.0
H1388 H 0.92661 0.51357 0.86246 0.0
C1389 C 0.01296 0.52444 0.81799 0.0
C1390 C 0.56512 0.53545 0.7949 0.0
C1391 C 0.57667 0.50234 0.7979 0.0
H1392 H 0.54133 0.5722 0.81465 0.0
C1393 C 0.57642 0.48312 0.82505 0.0
H1394 H 0.56284 0.54963 0.7744 0.0
C1395 C 0.5611 0.49399 0.84836 0.0
C1396 C 0.546 0.52489 0.8452 0.0
H1397 H 0.58374 0.45655 0.82793 0.0
H1398 H 0.5578 0.4757 0.86849 0.0
C1399 C 0.55101 0.5472 0.81819 0.0
C1400 C 0.58296 0.08482 0.81088 0.0
C1401 C 0.55594 0.06561 0.78927 0.0
H1402 H 0.59756 0.07633 0.85353 0.0
C1403 C 0.52557 0.02142 0.79336 0.0
H1404 H 0.606 0.11912 0.80814 0.0
C1405 C 0.51947 0.99717 0.81926 0.0
C1406 C 0.5441 0.01653 0.84175 0.0
H1407 H 0.5038 1.00641 0.77701 0.0
H1408 H 0.49306 0.96381 0.82198 0.0
C1409 C 0.57728 0.06043 0.83694 0.0
C1410 C 0.19823 0.34013 0.60365 0.0
C1411 C 0.17508 0.2954 0.61031 0.0
H1412 H 0.23443 0.39397 0.57202 0.0
C1413 C 0.17332 0.26999 0.59007 0.0
H1414 H 0.19872 0.35997 0.61893 0.0
C1415 C 0.19288 0.28917 0.56302 0.0
C1416 C 0.21476 0.33406 0.55601 0.0
H1417 H 0.15455 0.23534 0.59484 0.0
H1418 H 0.19013 0.26894 0.54748 0.0
C1419 C 0.21819 0.35935 0.57682 0.0
C1420 C 0.71017 0.82848 0.60131 0.0
C1421 C 0.75173 0.86728 0.59728 0.0
H1422 H 0.65093 0.78357 0.58272 0.0
C1423 C 0.76807 0.88823 0.57 0.0
H1424 H 0.69675 0.81188 0.62216 0.0
C1425 C 0.74135 0.87319 0.54746 0.0
C1426 C 0.69767 0.83623 0.55156 0.0
H1427 H 0.80004 0.91834 0.56645 0.0
H1428 H 0.75375 0.89241 0.52721 0.0
C1429 C 0.68357 0.81292 0.57867 0.0
C1430 C 0.15199 0.86049 0.60281 0.0
C1431 C 0.11643 0.87126 0.60225 0.0
H1432 H 0.1881 0.8346 0.58232 0.0
C1433 C 0.08755 0.86158 0.58005 0.0
H1434 H 0.17529 0.86871 0.61941 0.0
C1435 C 0.09486 0.84208 0.55844 0.0
C1436 C 0.1312 0.83193 0.55875 0.0
H1437 H 0.06056 0.87055 0.57897 0.0
H1438 H 0.07234 0.83525 0.54145 0.0
C1439 C 0.15928 0.84108 0.58145 0.0
C1440 C 0.62922 0.84654 0.12767 0.0
C1441 C 0.58614 0.80977 0.13425 0.0
H1442 H 0.69095 0.89363 0.14281 0.0
C1443 C 0.57065 0.79423 0.16233 0.0
H1444 H 0.64189 0.85914 0.10614 0.0
C1445 C 0.59935 0.8127 0.18345 0.0
C1446 C 0.64396 0.84797 0.17697 0.0
H1447 H 0.53701 0.76656 0.16791 0.0
H1448 H 0.58721 0.7978 0.20473 0.0
C1449 C 0.65763 0.8657 0.14876 0.0
C1450 C 0.22294 0.85334 0.12894 0.0
C1451 C 0.24308 0.82659 0.13251 0.0
H1452 H 0.19299 0.88588 0.14784 0.0
C1453 C 0.25122 0.81447 0.15976 0.0
H1454 H 0.21438 0.8618 0.10845 0.0
C1455 C 0.23539 0.82528 0.18296 0.0
C1456 C 0.21185 0.84944 0.17947 0.0
H1457 H 0.26558 0.79287 0.16319 0.0
H1458 H 0.23869 0.81191 0.20351 0.0
C1459 C 0.20886 0.86564 0.15191 0.0
C1460 C 0.20977 0.34879 0.12706 0.0
C1461 C 0.21835 0.39127 0.12129 0.0
H1462 H 0.19421 0.29533 0.15812 0.0
C1463 C 0.22371 0.41453 0.14353 0.0
H1464 H 0.20443 0.32993 0.11029 0.0
C1465 C 0.21492 0.39414 0.17108 0.0
C1466 C 0.20153 0.35013 0.17694 0.0
H1467 H 0.22933 0.44711 0.13944 0.0
H1468 H 0.2146 0.41207 0.1874 0.0
C1469 C 0.20248 0.3287 0.15458 0.0
C1470 C 0.83932 0.598 0.92184 0.0
C1471 C 0.84104 0.62172 0.94317 0.0
H1472 H 0.85581 0.59999 0.87866 0.0
C1473 C 0.86442 0.66659 0.93783 0.0
H1474 H 0.82028 0.56327 0.92553 0.0
C1475 C 0.88415 0.6876 0.91124 0.0
C1476 C 0.88043 0.66405 0.88931 0.0
H1477 H 0.86476 0.68518 0.95391 0.0
H1478 H 0.90005 0.72228 0.90753 0.0
C1479 C 0.8588 0.61899 0.89504 0.0
C1480 C 0.43209 0.20026 0.90404 0.0
C1481 C 0.41098 0.1974 0.92991 0.0
H1482 H 0.42291 0.18647 0.86205 0.0
C1483 C 0.3627 0.17683 0.93325 0.0
H1484 H 0.46939 0.21699 0.90087 0.0
C1485 C 0.33593 0.16109 0.91086 0.0
C1486 C 0.35666 0.16465 0.88446 0.0
H1487 H 0.34588 0.1756 0.95279 0.0
H1488 H 0.29896 0.14794 0.91413 0.0
C1489 C 0.40529 0.18364 0.88165 0.0
C1490 C 0.81033 0.18022 0.93967 0.0
C1491 C 0.78002 0.19732 0.93782 0.0
H1492 H 0.84235 0.15035 0.91965 0.0
C1493 C 0.75495 0.19363 0.91407 0.0
H1494 H 0.83068 0.18363 0.95758 0.0
C1495 C 0.76118 0.17417 0.89211 0.0
C1496 C 0.79289 0.15824 0.89345 0.0
H1497 H 0.73191 0.20725 0.91212 0.0
H1498 H 0.74151 0.17203 0.87401 0.0
C1499 C 0.81692 0.16122 0.91779 0.0
C1500 C 0.33208 0.17713 0.4594 0.0
C1501 C 0.28404 0.15965 0.45982 0.0
H1502 H 0.39307 0.20872 0.48084 0.0
C1503 C 0.26054 0.16444 0.48207 0.0
H1504 H 0.35065 0.17358 0.44236 0.0
C1505 C 0.28477 0.18515 0.50418 0.0
C1506 C 0.33296 0.20136 0.50436 0.0
H1507 H 0.22336 0.15101 0.48269 0.0
H1508 H 0.26572 0.18819 0.52116 0.0
C1509 C 0.35623 0.19739 0.48144 0.0
C1510 C 0.90609 0.14794 0.49152 0.0
C1511 C 0.90743 0.16842 0.46457 0.0
H1512 H 0.88807 0.1403 0.53509 0.0
C1513 C 0.89836 0.20306 0.46207 0.0
H1514 H 0.9117 0.12035 0.494 0.0
C1515 C 0.88561 0.21523 0.48568 0.0
C1516 C 0.87965 0.19198 0.5125 0.0
H1517 H 0.89723 0.21845 0.44173 0.0
H1518 H 0.87787 0.2415 0.48256 0.0
C1519 C 0.89221 0.15933 0.51513 0.0
C1520 C 0.86626 0.69107 0.46106 0.0
C1521 C 0.89592 0.7354 0.457 0.0
H1522 H 0.83334 0.63364 0.48974 0.0
C1523 C 0.92174 0.75501 0.4789 0.0
H1524 H 0.84525 0.67574 0.44452 0.0
C1525 C 0.91548 0.73086 0.50515 0.0
C1526 C 0.88276 0.6868 0.50992 0.0
H1527 H 0.94414 0.78941 0.47621 0.0
H1528 H 0.93485 0.74712 0.5219 0.0
C1529 C 0.85945 0.66709 0.48715 0.0
loop_
_geom_bond_atom_site_label_1
_geom_bond_atom_site_label_2
_geom_bond_distance
_geom_bond_site_symmetry_2
_ccdc_geom_bond_type
C0 N1 1.317 . S
C0 N2 1.348 . S
C0 C3 1.485 . S
N1 C0 1.317 . S
N1 N5 1.370 . S
N2 C0 1.348 . S
N2 C4 1.346 . S
C3 C0 1.485 . S
C3 H7 0.960 . S
C3 H8 0.961 . S
C3 H9 0.960 . S
C4 N2 1.346 . S
C4 N5 1.307 . S
C4 C6 1.486 . S
N5 N1 1.370 . S
N5 C4 1.307 . S
C6 C4 1.486 . S
C6 H10 0.960 . S
C6 H11 0.960 . S
C6 H12 0.959 . S
H7 C3 0.960 . S
H8 C3 0.961 . S
H9 C3 0.960 . S
H10 C6 0.960 . S
H11 C6 0.960 . S
H12 C6 0.959 . S
C13 N14 1.317 . S
C13 N15 1.348 . S
C13 C16 1.485 . S
N14 C13 1.317 . S
N14 N18 1.370 . S
N15 C13 1.348 . S
N15 C17 1.346 . S
C16 C13 1.485 . S
C16 H20 0.960 . S
C16 H21 0.961 . S
C16 H22 0.960 . S
C17 N15 1.346 . S
C17 N18 1.307 . S
C17 C19 1.486 . S
N18 N14 1.370 . S
N18 C17 1.307 . S
C19 C17 1.486 . S
C19 H23 0.960 . S
C19 H24 0.960 . S
C19 H25 0.959 . S
H20 C16 0.960 . S
H21 C16 0.961 . S
H22 C16 0.960 . S
H23 C19 0.960 . S
H24 C19 0.960 . S
H25 C19 0.959 . S
C26 N27 1.317 . S
C26 N28 1.348 . S
C26 C29 1.485 . S
N27 C26 1.317 . S
N27 N31 1.370 . S
N28 C26 1.348 . S
N28 C30 1.346 . S
C29 C26 1.485 . S
C29 H33 0.960 . S
C29 H34 0.961 . S
C29 H35 0.960 . S
C30 N28 1.346 . S
C30 N31 1.307 . S
C30 C32 1.486 . S
N31 N27 1.370 . S
N31 C30 1.307 . S
C32 C30 1.486 . S
C32 H36 0.960 . S
C32 H37 0.960 . S
C32 H38 0.959 . S
H33 C29 0.960 . S
H34 C29 0.961 . S
H35 C29 0.960 . S
H36 C32 0.960 . S
H37 C32 0.960 . S
H38 C32 0.959 . S
C39 N40 1.317 . S
C39 N41 1.348 . S
C39 C42 1.485 . S
N40 C39 1.317 . S
N40 N44 1.370 . S
N41 C39 1.348 . S
N41 C43 1.346 . S
C42 C39 1.485 . S
C42 H46 0.960 . S
C42 H47 0.961 . S
C42 H48 0.960 . S
C43 N41 1.346 . S
C43 N44 1.307 . S
C43 C45 1.486 . S
N44 N40 1.370 . S
N44 C43 1.307 . S
C45 C43 1.486 . S
C45 H49 0.960 . S
C45 H50 0.960 1_455 S
C45 H51 0.959 . S
H46 C42 0.960 . S
H47 C42 0.961 . S
H48 C42 0.960 . S
H49 C45 0.960 . S
H50 C45 0.960 1_655 S
H51 C45 0.959 . S
C52 N53 1.317 . S
C52 N54 1.348 . S
C52 C55 1.485 . S
N53 C52 1.317 . S
N53 N57 1.370 . S
N54 C52 1.348 . S
N54 C56 1.346 . S
C55 C52 1.485 . S
C55 H59 0.960 . S
C55 H60 0.961 . S
C55 H61 0.960 . S
C56 N54 1.346 . S
C56 N57 1.307 . S
C56 C58 1.486 . S
N57 N53 1.370 . S
N57 C56 1.307 . S
C58 C56 1.486 . S
C58 H62 0.960 . S
C58 H63 0.960 . S
C58 H64 0.959 . S
H59 C55 0.960 . S
H60 C55 0.961 . S
H61 C55 0.960 . S
H62 C58 0.960 . S
H63 C58 0.960 . S
H64 C58 0.959 . S
C65 N66 1.317 . S
C65 N67 1.348 . S
C65 C68 1.485 . S
N66 C65 1.317 . S
N66 N70 1.370 . S
N67 C65 1.348 . S
N67 C69 1.346 . S
C68 C65 1.485 . S
C68 H72 0.960 . S
C68 H73 0.961 . S
C68 H74 0.960 . S
C69 N67 1.346 . S
C69 N70 1.307 . S
C69 C71 1.486 . S
N70 N66 1.370 . S
N70 C69 1.307 . S
C71 C69 1.486 . S
C71 H75 0.960 . S
C71 H76 0.960 . S
C71 H77 0.959 . S
H72 C68 0.960 . S
H73 C68 0.961 . S
H74 C68 0.960 . S
H75 C71 0.960 . S
H76 C71 0.960 . S
H77 C71 0.959 . S
C78 N79 1.317 . S
C78 N80 1.348 . S
C78 C81 1.485 . S
N79 C78 1.317 . S
N79 N83 1.370 . S
N80 C78 1.348 . S
N80 C82 1.346 . S
C81 C78 1.485 . S
C81 H85 0.960 . S
C81 H86 0.961 . S
C81 H87 0.960 . S
C82 N80 1.346 . S
C82 N83 1.307 . S
C82 C84 1.486 . S
N83 N79 1.370 . S
N83 C82 1.307 . S
C84 C82 1.486 . S
C84 H88 0.960 . S
C84 H89 0.960 . S
C84 H90 0.959 . S
H85 C81 0.960 . S
H86 C81 0.961 . S
H87 C81 0.960 . S
H88 C84 0.960 . S
H89 C84 0.960 . S
H90 C84 0.959 . S
C91 N92 1.317 . S
C91 N93 1.348 . S
C91 C94 1.485 . S
N92 C91 1.317 . S
N92 N96 1.370 . S
N93 C91 1.348 . S
N93 C95 1.346 . S
C94 C91 1.485 . S
C94 H98 0.960 . S
C94 H99 0.961 . S
C94 H100 0.960 . S
C95 N93 1.346 . S
C95 N96 1.307 . S
C95 C97 1.486 . S
N96 N92 1.370 . S
N96 C95 1.307 . S
C97 C95 1.486 . S
C97 H101 0.960 . S
C97 H102 0.960 . S
C97 H103 0.959 . S
H98 C94 0.960 . S
H99 C94 0.961 . S
H100 C94 0.960 . S
H101 C97 0.960 . S
H102 C97 0.960 . S
H103 C97 0.959 . S
C104 N105 1.317 . S
C104 N106 1.348 . S
C104 C107 1.485 . S
N105 C104 1.317 . S
N105 N109 1.370 . S
N106 C104 1.348 . S
N106 C108 1.346 . S
C107 C104 1.485 . S
C107 H111 0.960 . S
C107 H112 0.961 . S
C107 H113 0.960 . S
C108 N106 1.346 . S
C108 N109 1.307 . S
C108 C110 1.486 . S
N109 N105 1.370 . S
N109 C108 1.307 . S
C110 C108 1.486 . S
C110 H114 0.960 . S
C110 H115 0.960 . S
C110 H116 0.959 . S
H111 C107 0.960 . S
H112 C107 0.961 . S
H113 C107 0.960 . S
H114 C110 0.960 . S
H115 C110 0.960 . S
H116 C110 0.959 . S
C117 N118 1.317 . S
C117 N119 1.348 . S
C117 C120 1.485 1_556 S
N118 C117 1.317 . S
N118 N122 1.370 . S
N119 C117 1.348 . S
N119 C121 1.346 . S
C120 C117 1.485 1_554 S
C120 H124 0.960 . S
C120 H125 0.961 . S
C120 H126 0.960 . S
C121 N119 1.346 . S
C121 N122 1.307 . S
C121 C123 1.486 . S
N122 N118 1.370 . S
N122 C121 1.307 . S
C123 C121 1.486 . S
C123 H127 0.960 . S
C123 H128 0.960 . S
C123 H129 0.959 . S
H124 C120 0.960 . S
H125 C120 0.961 . S
H126 C120 0.960 . S
H127 C123 0.960 . S
H128 C123 0.960 . S
H129 C123 0.959 . S
C130 N131 1.317 . S
C130 N132 1.348 . S
C130 C133 1.485 1_556 S
N131 C130 1.317 . S
N131 N135 1.370 . S
N132 C130 1.348 . S
N132 C134 1.346 . S
C133 C130 1.485 1_554 S
C133 H137 0.960 . S
C133 H138 0.961 . S
C133 H139 0.960 . S
C134 N132 1.346 . S
C134 N135 1.307 . S
C134 C136 1.486 . S
N135 N131 1.370 . S
N135 C134 1.307 . S
C136 C134 1.486 . S
C136 H140 0.960 . S
C136 H141 0.960 . S
C136 H142 0.959 . S
H137 C133 0.960 . S
H138 C133 0.961 . S
H139 C133 0.960 . S
H140 C136 0.960 . S
H141 C136 0.960 . S
H142 C136 0.959 . S
C143 N144 1.317 . S
C143 N145 1.348 . S
C143 C146 1.485 1_556 S
N144 C143 1.317 . S
N144 N148 1.370 . S
N145 C143 1.348 . S
N145 C147 1.346 . S
C146 C143 1.485 1_554 S
C146 H150 0.960 . S
C146 H151 0.961 . S
C146 H152 0.960 . S
C147 N145 1.346 . S
C147 N148 1.307 . S
C147 C149 1.486 . S
N148 N144 1.370 . S
N148 C147 1.307 . S
C149 C147 1.486 . S
C149 H153 0.960 . S
C149 H154 0.960 . S
C149 H155 0.959 . S
H150 C146 0.960 . S
H151 C146 0.961 . S
H152 C146 0.960 . S
H153 C149 0.960 . S
H154 C149 0.960 . S
H155 C149 0.959 . S
C156 N157 1.317 . S
C156 N158 1.348 . S
C156 C159 1.485 . S
N157 C156 1.317 . S
N157 N161 1.370 . S
N158 C156 1.348 . S
N158 C160 1.346 . S
C159 C156 1.485 . S
C159 H163 0.960 . S
C159 H164 0.961 . S
C159 H165 0.960 . S
C160 N158 1.346 . S
C160 N161 1.307 . S
C160 C162 1.486 . S
N161 N157 1.370 . S
N161 C160 1.307 . S
C162 C160 1.486 . S
C162 H166 0.960 . S
C162 H167 0.960 . S
C162 H168 0.959 . S
H163 C159 0.960 . S
H164 C159 0.961 . S
H165 C159 0.960 . S
H166 C162 0.960 . S
H167 C162 0.960 . S
H168 C162 0.959 . S
C169 N170 1.317 . S
C169 N171 1.348 . S
C169 C172 1.485 . S
N170 C169 1.317 . S
N170 N174 1.370 . S
N171 C169 1.348 . S
N171 C173 1.346 . S
C172 C169 1.485 . S
C172 H176 0.960 . S
C172 H177 0.961 . S
C172 H178 0.960 . S
C173 N171 1.346 . S
C173 N174 1.307 . S
C173 C175 1.486 . S
N174 N170 1.370 . S
N174 C173 1.307 . S
C175 C173 1.486 . S
C175 H179 0.960 . S
C175 H180 0.960 . S
C175 H181 0.959 . S
H176 C172 0.960 . S
H177 C172 0.961 . S
H178 C172 0.960 . S
H179 C175 0.960 . S
H180 C175 0.960 . S
H181 C175 0.959 . S
C182 N183 1.317 . S
C182 N184 1.348 . S
C182 C185 1.485 . S
N183 C182 1.317 . S
N183 N187 1.370 . S
N184 C182 1.348 . S
N184 C186 1.346 . S
C185 C182 1.485 . S
C185 H189 0.960 . S
C185 H190 0.961 . S
C185 H191 0.960 . S
C186 N184 1.346 . S
C186 N187 1.307 . S
C186 C188 1.486 . S
N187 N183 1.370 . S
N187 C186 1.307 . S
C188 C186 1.486 . S
C188 H192 0.960 . S
C188 H193 0.960 . S
C188 H194 0.959 . S
H189 C185 0.960 . S
H190 C185 0.961 . S
H191 C185 0.960 . S
H192 C188 0.960 . S
H193 C188 0.960 . S
H194 C188 0.959 . S
C195 N196 1.317 . S
C195 N197 1.348 . S
C195 C198 1.485 . S
N196 C195 1.317 . S
N196 N200 1.370 . S
N197 C195 1.348 . S
N197 C199 1.346 . S
C198 C195 1.485 . S
C198 H202 0.960 . S
C198 H203 0.961 . S
C198 H204 0.960 . S
C199 N197 1.346 . S
C199 N200 1.307 . S
C199 C201 1.486 . S
N200 N196 1.370 . S
N200 C199 1.307 . S
C201 C199 1.486 . S
C201 H205 0.960 . S
C201 H206 0.960 . S
C201 H207 0.959 . S
H202 C198 0.960 . S
H203 C198 0.961 . S
H204 C198 0.960 . S
H205 C201 0.960 . S
H206 C201 0.960 . S
H207 C201 0.959 . S
C208 N209 1.317 . S
C208 N210 1.348 . S
C208 C211 1.485 . S
N209 C208 1.317 . S
N209 N213 1.370 . S
N210 C208 1.348 . S
N210 C212 1.346 . S
C211 C208 1.485 . S
C211 H215 0.960 . S
C211 H216 0.961 . S
C211 H217 0.960 . S
C212 N210 1.346 . S
C212 N213 1.307 . S
C212 C214 1.486 . S
N213 N209 1.370 . S
N213 C212 1.307 . S
C214 C212 1.486 . S
C214 H218 0.960 . S
C214 H219 0.960 . S
C214 H220 0.959 . S
H215 C211 0.960 . S
H216 C211 0.961 . S
H217 C211 0.960 . S
H218 C214 0.960 . S
H219 C214 0.960 . S
H220 C214 0.959 . S
C221 N222 1.317 . S
C221 N223 1.348 . S
C221 C224 1.485 . S
N222 C221 1.317 . S
N222 N226 1.370 . S
N223 C221 1.348 . S
N223 C225 1.346 . S
C224 C221 1.485 . S
C224 H228 0.960 . S
C224 H229 0.961 . S
C224 H230 0.960 . S
C225 N223 1.346 . S
C225 N226 1.307 . S
C225 C227 1.486 . S
N226 N222 1.370 . S
N226 C225 1.307 . S
C227 C225 1.486 . S
C227 H231 0.960 . S
C227 H232 0.960 . S
C227 H233 0.959 . S
H228 C224 0.960 . S
H229 C224 0.961 . S
H230 C224 0.960 . S
H231 C227 0.960 . S
H232 C227 0.960 . S
H233 C227 0.959 . S
Gd234 N265 2.661 . S
Gd234 N271 2.601 . S
Gd234 O278 2.545 . S
Gd234 O279 2.606 1_545 S
Gd234 O281 2.429 . S
Gd234 O282 2.545 1_545 S
Gd234 O283 2.412 1_545 S
Gd234 O285 2.362 . S
Gd234 O286 2.324 1_545 S
Gd234 C293 2.828 1_545 S
Gd235 N244 2.661 . S
Gd235 N248 2.601 . S
Gd235 O279 2.362 1_556 S
Gd235 O280 2.324 1_565 S
Gd235 O284 2.545 . S
Gd235 O285 2.606 1_566 S
Gd235 O287 2.429 1_556 S
Gd235 O288 2.545 1_565 S
Gd235 O289 2.412 1_565 S
Gd235 C302 2.828 1_565 S
C236 C239 1.417 . S
C236 C241 1.431 . S
C236 C242 1.412 . S
C237 C240 1.437 . S
C237 C241 1.317 . S
C237 H256 0.929 . S
C238 C239 1.426 . S
C238 C240 1.413 . S
C238 N248 1.359 . S
C239 C236 1.417 . S
C239 C238 1.426 . S
C239 N244 1.350 . S
C240 C237 1.437 . S
C240 C238 1.413 . S
C240 C250 1.391 . S
C241 C236 1.431 . S
C241 C237 1.317 . S
C241 H252 0.930 . S
C242 C236 1.412 . S
C242 C243 1.355 . S
C242 H254 0.930 . S
C243 C242 1.355 . S
C243 C245 1.402 . S
C243 H255 0.930 . S
N244 Gd235 2.661 . S
N244 C239 1.350 . S
N244 C245 1.307 . S
C245 C243 1.402 . S
C245 N244 1.307 . S
C245 H246 0.904 1_565 S
H246 C245 0.904 1_545 S
C247 N248 1.334 . S
C247 C249 1.394 . S
C247 H251 0.930 . S
N248 Gd235 2.601 . S
N248 C238 1.359 . S
N248 C247 1.334 . S
C249 C247 1.394 . S
C249 C250 1.359 . S
C249 H261 0.930 . S
C250 C240 1.391 . S
C250 C249 1.359 . S
C250 H262 0.929 . S
H251 C247 0.930 . S
H252 C241 0.930 . S
H253 C270 0.930 . S
H254 C242 0.930 . S
H255 C243 0.930 . S
H256 C237 0.929 . S
H257 C275 0.930 . S
H258 C266 0.930 . S
H259 C267 0.930 . S
H260 C291 0.929 . S
H261 C249 0.930 . S
H262 C250 0.929 . S
H263 C292 0.930 . S
H264 C273 0.930 . S
N265 Gd234 2.661 . S
N265 C269 1.350 . S
N265 C270 1.307 . S
C266 H258 0.930 . S
C266 C267 1.355 . S
C266 C268 1.412 . S
C267 H259 0.930 . S
C267 C266 1.355 . S
C267 C270 1.402 . S
C268 C266 1.412 . S
C268 C269 1.417 . S
C268 C292 1.431 . S
C269 N265 1.350 . S
C269 C268 1.417 . S
C269 C272 1.426 . S
C270 H253 0.930 . S
C270 N265 1.307 . S
C270 C267 1.402 . S
N271 Gd234 2.601 . S
N271 C272 1.359 . S
N271 C275 1.334 . S
C272 C269 1.426 . S
C272 N271 1.359 . S
C272 C276 1.413 . S
C273 H264 0.930 . S
C273 C274 1.359 . S
C273 C275 1.394 . S
C274 C273 1.359 . S
C274 C276 1.391 . S
C274 H277 0.929 . S
C275 H257 0.930 . S
C275 N271 1.334 . S
C275 C273 1.394 . S
C276 C272 1.413 . S
C276 C274 1.391 . S
C276 C291 1.437 . S
H277 C274 0.929 . S
O278 Gd234 2.545 . S
O278 C293 1.258 1_545 S
O279 Gd234 2.606 1_565 S
O279 Gd235 2.362 1_554 S
O279 C290 1.284 . S
O280 Gd235 2.324 1_545 S
O280 C300 1.254 1_556 S
O281 Gd234 2.429 . S
O281 C300 1.268 . S
O282 Gd234 2.545 1_565 S
O282 C290 1.250 . S
O283 Gd234 2.412 1_565 S
O283 C293 1.252 . S
O284 Gd235 2.545 . S
O284 C302 1.258 1_565 S
O285 Gd234 2.362 . S
O285 Gd235 2.606 1_544 S
O285 C301 1.284 1_554 S
O286 Gd234 2.324 1_565 S
O286 C309 1.254 . S
O287 Gd235 2.429 1_554 S
O287 C309 1.268 . S
O288 Gd235 2.545 1_545 S
O288 C301 1.250 . S
O289 Gd235 2.412 1_545 S
O289 C302 1.252 . S
C290 O279 1.284 . S
C290 O282 1.250 . S
C291 H260 0.929 . S
C291 C276 1.437 . S
C291 C292 1.317 . S
C292 H263 0.930 . S
C292 C268 1.431 . S
C292 C291 1.317 . S
C293 Gd234 2.828 1_565 S
C293 O278 1.258 1_565 S
C293 O283 1.252 . S
C293 C294 1.497 . S
C294 C293 1.497 . S
C294 C295 1.395 . S
C294 C296 1.380 . S
C295 C294 1.395 . S
C295 C298 1.398 . S
C295 H310 0.930 1_565 S
C296 C294 1.380 . S
C296 C297 1.391 . S
C296 H311 0.930 . S
C297 C296 1.391 . S
C297 C299 1.387 . S
C298 C295 1.398 . S
C298 C299 1.380 . S
C298 H312 0.930 . S
C299 C297 1.387 . S
C299 C298 1.380 . S
C299 H313 0.930 . S
C300 O280 1.254 1_554 S
C300 O281 1.268 . S
C301 O285 1.284 1_556 S
C301 O288 1.250 . S
C302 Gd235 2.828 1_545 S
C302 O284 1.258 1_545 S
C302 O289 1.252 . S
C302 C303 1.497 . S
C303 C302 1.497 . S
C303 C304 1.395 . S
C303 C305 1.380 . S
C304 C303 1.395 . S
C304 C307 1.398 . S
C304 H314 0.930 1_545 S
C305 C303 1.380 . S
C305 C306 1.391 . S
C305 H315 0.930 . S
C306 C305 1.391 . S
C306 C308 1.387 . S
C307 C304 1.398 . S
C307 C308 1.380 . S
C307 H316 0.930 . S
C308 C306 1.387 . S
C308 C307 1.380 . S
C308 H317 0.930 . S
C309 O286 1.254 . S
C309 O287 1.268 . S
H310 C295 0.930 1_545 S
H311 C296 0.930 . S
H312 C298 0.930 . S
H313 C299 0.930 . S
H314 C304 0.930 1_565 S
H315 C305 0.930 . S
H316 C307 0.930 . S
H317 C308 0.930 . S
Gd318 N349 2.661 . S
Gd318 N355 2.601 . S
Gd318 O362 2.545 . S
Gd318 O363 2.606 1_655 S
Gd318 O365 2.429 . S
Gd318 O366 2.545 1_655 S
Gd318 O367 2.412 . S
Gd318 O369 2.362 . S
Gd318 O370 2.324 1_655 S
Gd318 C377 2.828 . S
Gd319 N328 2.661 . S
Gd319 N332 2.601 . S
Gd319 O363 2.362 1_556 S
Gd319 O364 2.324 1_455 S
Gd319 O368 2.545 . S
Gd319 O369 2.606 1_456 S
Gd319 O371 2.429 . S
Gd319 O372 2.545 1_455 S
Gd319 O373 2.412 . S
Gd319 C386 2.828 . S
C320 C323 1.417 . S
C320 C325 1.431 . S
C320 C326 1.412 . S
C321 C324 1.437 . S
C321 C325 1.317 . S
C321 H340 0.929 . S
C322 C323 1.426 . S
C322 C324 1.413 . S
C322 N332 1.359 . S
C323 C320 1.417 . S
C323 C322 1.426 . S
C323 N328 1.350 . S
C324 C321 1.437 . S
C324 C322 1.413 . S
C324 C334 1.391 . S
C325 C320 1.431 . S
C325 C321 1.317 . S
C325 H336 0.930 . S
C326 C320 1.412 . S
C326 C327 1.355 . S
C326 H338 0.930 . S
C327 C326 1.355 . S
C327 C329 1.402 . S
C327 H339 0.930 . S
N328 Gd319 2.661 . S
N328 C323 1.350 . S
N328 C329 1.307 . S
C329 C327 1.402 . S
C329 N328 1.307 . S
C329 H330 0.930 . S
H330 C329 0.930 . S
C331 N332 1.334 . S
C331 C333 1.394 . S
C331 H335 0.930 . S
N332 Gd319 2.601 . S
N332 C322 1.359 . S
N332 C331 1.334 . S
C333 C331 1.394 . S
C333 C334 1.359 . S
C333 H345 0.930 . S
C334 C324 1.391 . S
C334 C333 1.359 . S
C334 H346 0.929 . S
H335 C331 0.930 . S
H336 C325 0.930 . S
H337 C354 0.930 . S
H338 C326 0.930 . S
H339 C327 0.930 . S
H340 C321 0.929 . S
H341 C359 0.930 . S
H342 C350 0.930 . S
H343 C351 0.930 . S
H344 C375 0.929 . S
H345 C333 0.930 . S
H346 C334 0.929 . S
H347 C376 0.930 . S
H348 C357 0.930 . S
N349 Gd318 2.661 . S
N349 C353 1.350 . S
N349 C354 1.307 . S
C350 H342 0.930 . S
C350 C351 1.355 . S
C350 C352 1.412 . S
C351 H343 0.930 . S
C351 C350 1.355 . S
C351 C354 1.402 . S
C352 C350 1.412 . S
C352 C353 1.417 . S
C352 C376 1.431 . S
C353 N349 1.350 . S
C353 C352 1.417 . S
C353 C356 1.426 . S
C354 H337 0.930 . S
C354 N349 1.307 . S
C354 C351 1.402 . S
N355 Gd318 2.601 . S
N355 C356 1.359 . S
N355 C359 1.334 . S
C356 C353 1.426 . S
C356 N355 1.359 . S
C356 C360 1.413 . S
C357 H348 0.930 . S
C357 C358 1.359 . S
C357 C359 1.394 . S
C358 C357 1.359 . S
C358 C360 1.391 . S
C358 H361 0.929 . S
C359 H341 0.930 . S
C359 N355 1.334 . S
C359 C357 1.394 . S
C360 C356 1.413 . S
C360 C358 1.391 . S
C360 C375 1.437 . S
H361 C358 0.929 . S
O362 Gd318 2.545 . S
O362 C377 1.258 . S
O363 Gd318 2.606 1_455 S
O363 Gd319 2.362 1_554 S
O363 C374 1.284 . S
O364 Gd319 2.324 1_655 S
O364 C384 1.258 . S
O365 Gd318 2.429 . S
O365 C384 1.261 1_554 S
O366 Gd318 2.545 1_455 S
O366 C374 1.250 . S
O367 Gd318 2.412 . S
O367 C377 1.252 . S
O368 Gd319 2.545 . S
O368 C386 1.258 . S
O369 Gd318 2.362 . S
O369 Gd319 2.606 1_654 S
O369 C385 1.284 1_554 S
O370 Gd318 2.324 1_455 S
O370 C393 1.254 . S
O371 Gd319 2.429 . S
O371 C393 1.268 1_556 S
O372 Gd319 2.545 1_655 S
O372 C385 1.250 . S
O373 Gd319 2.412 . S
O373 C386 1.252 . S
C374 O363 1.284 . S
C374 O366 1.250 . S
C375 H344 0.929 . S
C375 C360 1.437 . S
C375 C376 1.317 . S
C376 H347 0.930 . S
C376 C352 1.431 . S
C376 C375 1.317 . S
C377 Gd318 2.828 . S
C377 O362 1.258 . S
C377 O367 1.252 . S
C377 C378 1.497 . S
C378 C377 1.497 . S
C378 C379 1.395 . S
C378 C380 1.380 1_655 S
C379 C378 1.395 . S
C379 C382 1.398 . S
C379 H394 0.930 . S
C380 C378 1.380 1_455 S
C380 C381 1.391 . S
C380 H395 0.930 . S
C381 C380 1.391 . S
C381 C383 1.387 . S
C382 C379 1.398 . S
C382 C383 1.380 1_655 S
C382 H396 0.930 . S
C383 C381 1.387 . S
C383 C382 1.380 1_455 S
C383 H397 0.930 . S
C384 O364 1.258 . S
C384 O365 1.261 1_556 S
C385 O369 1.284 1_556 S
C385 O372 1.250 . S
C386 Gd319 2.828 . S
C386 O368 1.258 . S
C386 O373 1.252 . S
C386 C387 1.497 . S
C387 C386 1.497 . S
C387 C388 1.395 . S
C387 C389 1.380 1_455 S
C388 C387 1.395 . S
C388 C391 1.398 . S
C388 H398 0.930 . S
C389 C387 1.380 1_655 S
C389 C390 1.391 . S
C389 H399 0.930 . S
C390 C389 1.391 . S
C390 C392 1.387 1_655 S
C391 C388 1.398 . S
C391 C392 1.380 . S
C391 H400 0.930 . S
C392 C390 1.387 1_455 S
C392 C391 1.380 . S
C392 H401 0.930 . S
C393 O370 1.254 . S
C393 O371 1.268 1_554 S
H394 C379 0.930 . S
H395 C380 0.930 . S
H396 C382 0.930 . S
H397 C383 0.930 . S
H398 C388 0.930 . S
H399 C389 0.930 . S
H400 C391 0.930 . S
H401 C392 0.930 . S
Gd402 N433 2.661 . S
Gd402 N439 2.601 . S
Gd402 O446 2.545 . S
Gd402 O447 2.606 1_556 S
Gd402 O449 2.429 1_556 S
Gd402 O450 2.545 . S
Gd402 O451 2.412 . S
Gd402 O453 2.362 1_556 S
Gd402 O454 2.324 1_556 S
Gd402 C461 2.828 . S
Gd403 N412 2.661 . S
Gd403 N416 2.601 . S
Gd403 O447 2.362 . S
Gd403 O448 2.324 . S
Gd403 O452 2.545 . S
Gd403 O453 2.606 . S
Gd403 O455 2.429 . S
Gd403 O456 2.545 . S
Gd403 O457 2.412 . S
Gd403 C470 2.828 . S
C404 C407 1.417 . S
C404 C409 1.431 . S
C404 C410 1.412 . S
C405 C408 1.437 . S
C405 C409 1.317 . S
C405 H424 0.929 . S
C406 C407 1.426 . S
C406 C408 1.413 . S
C406 N416 1.359 . S
C407 C404 1.417 . S
C407 C406 1.426 . S
C407 N412 1.350 . S
C408 C405 1.437 . S
C408 C406 1.413 . S
C408 C418 1.391 . S
C409 C404 1.431 . S
C409 C405 1.317 . S
C409 H420 0.930 . S
C410 C404 1.412 . S
C410 C411 1.355 . S
C410 H422 0.930 . S
C411 C410 1.355 . S
C411 C413 1.402 . S
C411 H423 0.930 . S
N412 Gd403 2.661 . S
N412 C407 1.350 . S
N412 C413 1.307 . S
C413 C411 1.402 . S
C413 N412 1.307 . S
C413 H414 0.930 . S
H414 C413 0.930 . S
C415 N416 1.334 . S
C415 C417 1.394 . S
C415 H419 0.930 . S
N416 Gd403 2.601 . S
N416 C406 1.359 . S
N416 C415 1.334 . S
C417 C415 1.394 . S
C417 C418 1.359 . S
C417 H429 0.930 . S
C418 C408 1.391 . S
C418 C417 1.359 . S
C418 H430 0.929 . S
H419 C415 0.930 . S
H420 C409 0.930 . S
H421 C438 0.930 . S
H422 C410 0.930 . S
H423 C411 0.930 . S
H424 C405 0.929 . S
H425 C443 0.930 . S
H426 C434 0.930 . S
H427 C435 0.930 . S
H428 C459 0.929 . S
H429 C417 0.930 . S
H430 C418 0.929 . S
H431 C460 0.930 . S
H432 C441 0.930 . S
N433 Gd402 2.661 . S
N433 C437 1.350 . S
N433 C438 1.307 . S
C434 H426 0.930 . S
C434 C435 1.355 . S
C434 C436 1.412 . S
C435 H427 0.930 . S
C435 C434 1.355 . S
C435 C438 1.402 . S
C436 C434 1.412 . S
C436 C437 1.417 . S
C436 C460 1.431 . S
C437 N433 1.350 . S
C437 C436 1.417 . S
C437 C440 1.426 . S
C438 H421 0.930 . S
C438 N433 1.307 . S
C438 C435 1.402 . S
N439 Gd402 2.601 . S
N439 C440 1.359 . S
N439 C443 1.334 . S
C440 C437 1.426 . S
C440 N439 1.359 . S
C440 C444 1.413 . S
C441 H432 0.930 . S
C441 C442 1.359 . S
C441 C443 1.394 . S
C442 C441 1.359 . S
C442 C444 1.391 . S
C442 H445 0.929 . S
C443 H425 0.930 . S
C443 N439 1.334 . S
C443 C441 1.394 . S
C444 C440 1.413 . S
C444 C442 1.391 . S
C444 C459 1.437 . S
H445 C442 0.929 . S
O446 Gd402 2.545 . S
O446 C461 1.258 . S
O447 Gd402 2.606 1_554 S
O447 Gd403 2.362 . S
O447 C458 1.315 . S
O448 Gd403 2.324 . S
O448 C468 1.254 . S
O449 Gd402 2.429 1_554 S
O449 C468 1.268 . S
O450 Gd402 2.545 . S
O450 C458 1.215 1_556 S
O451 Gd402 2.412 . S
O451 C461 1.252 . S
O452 Gd403 2.545 . S
O452 C470 1.258 . S
O453 Gd402 2.362 1_554 S
O453 Gd403 2.606 . S
O453 C469 1.284 . S
O454 Gd402 2.324 1_554 S
O454 C477 1.254 . S
O455 Gd403 2.429 . S
O455 C477 1.268 . S
O456 Gd403 2.545 . S
O456 C469 1.250 . S
O457 Gd403 2.412 . S
O457 C470 1.252 . S
C458 O447 1.315 . S
C458 O450 1.215 1_554 S
C459 H428 0.929 . S
C459 C444 1.437 . S
C459 C460 1.317 . S
C460 H431 0.930 . S
C460 C436 1.431 . S
C460 C459 1.317 . S
C461 Gd402 2.828 . S
C461 O446 1.258 . S
C461 O451 1.252 . S
C461 C462 1.497 . S
C462 C461 1.497 . S
C462 C463 1.395 . S
C462 C464 1.380 . S
C463 C462 1.395 . S
C463 C466 1.398 . S
C463 H478 0.930 . S
C464 C462 1.380 . S
C464 C465 1.391 . S
C464 H479 0.930 . S
C465 C464 1.391 . S
C465 C467 1.387 . S
C466 C463 1.398 . S
C466 C467 1.380 . S
C466 H480 0.930 . S
C467 C465 1.387 . S
C467 C466 1.380 . S
C467 H481 0.930 . S
C468 O448 1.254 . S
C468 O449 1.268 . S
C469 O453 1.284 . S
C469 O456 1.250 . S
C470 Gd403 2.828 . S
C470 O452 1.258 . S
C470 O457 1.252 . S
C470 C471 1.497 . S
C471 C470 1.497 . S
C471 C472 1.395 . S
C471 C473 1.380 . S
C472 C471 1.395 . S
C472 C475 1.398 . S
C472 H482 0.930 . S
C473 C471 1.380 . S
C473 C474 1.391 . S
C473 H483 0.930 . S
C474 C473 1.391 . S
C474 C476 1.387 . S
C475 C472 1.398 . S
C475 C476 1.380 . S
C475 H484 0.930 . S
C476 C474 1.387 . S
C476 C475 1.380 . S
C476 H485 0.930 . S
C477 O454 1.254 . S
C477 O455 1.268 . S
H478 C463 0.930 . S
H479 C464 0.930 . S
H480 C466 0.930 . S
H481 C467 0.930 . S
H482 C472 0.930 . S
H483 C473 0.930 . S
H484 C475 0.930 . S
H485 C476 0.930 . S
Gd486 N517 2.661 . S
Gd486 N523 2.601 . S
Gd486 O530 2.545 . S
Gd486 O531 2.606 . S
Gd486 O533 2.429 . S
Gd486 O534 2.545 . S
Gd486 O535 2.412 . S
Gd486 O537 2.362 . S
Gd486 O538 2.324 . S
Gd486 C545 2.828 . S
Gd487 N496 2.661 . S
Gd487 N500 2.601 . S
Gd487 O531 2.362 . S
Gd487 O532 2.324 . S
Gd487 O536 2.545 . S
Gd487 O537 2.606 . S
Gd487 O539 2.429 . S
Gd487 O540 2.545 . S
Gd487 O541 2.412 . S
Gd487 C554 2.828 . S
C488 C491 1.417 . S
C488 C493 1.431 . S
C488 C494 1.412 . S
C489 C492 1.437 . S
C489 C493 1.317 . S
C489 H508 0.929 . S
C490 C491 1.426 . S
C490 C492 1.413 . S
C490 N500 1.359 . S
C491 C488 1.417 . S
C491 C490 1.426 . S
C491 N496 1.350 . S
C492 C489 1.437 . S
C492 C490 1.413 . S
C492 C502 1.391 . S
C493 C488 1.431 . S
C493 C489 1.317 . S
C493 H504 0.930 1_455 S
C494 C488 1.412 . S
C494 C495 1.355 . S
C494 H506 0.930 1_455 S
C495 C494 1.355 . S
C495 C497 1.402 . S
C495 H507 0.930 . S
N496 Gd487 2.661 . S
N496 C491 1.350 . S
N496 C497 1.307 . S
C497 C495 1.402 . S
C497 N496 1.307 . S
C497 H498 0.930 . S
H498 C497 0.930 . S
C499 N500 1.334 . S
C499 C501 1.394 . S
C499 H503 0.930 . S
N500 Gd487 2.601 . S
N500 C490 1.359 . S
N500 C499 1.334 . S
C501 C499 1.394 . S
C501 C502 1.359 . S
C501 H513 0.930 . S
C502 C492 1.391 . S
C502 C501 1.359 . S
C502 H514 0.929 . S
H503 C499 0.930 . S
H504 C493 0.930 1_655 S
H505 C522 0.930 . S
H506 C494 0.930 1_655 S
H507 C495 0.930 . S
H508 C489 0.929 . S
H509 C527 0.930 . S
H510 C518 0.930 . S
H511 C519 0.930 . S
H512 C543 0.929 . S
H513 C501 0.930 . S
H514 C502 0.929 . S
H515 C544 0.930 . S
H516 C525 0.930 . S
N517 Gd486 2.661 . S
N517 C521 1.350 . S
N517 C522 1.307 . S
C518 H510 0.930 . S
C518 C519 1.355 . S
C518 C520 1.412 . S
C519 H511 0.930 . S
C519 C518 1.355 . S
C519 C522 1.402 . S
C520 C518 1.412 . S
C520 C521 1.417 . S
C520 C544 1.431 . S
C521 N517 1.350 . S
C521 C520 1.417 . S
C521 C524 1.426 . S
C522 H505 0.930 . S
C522 N517 1.307 . S
C522 C519 1.402 . S
N523 Gd486 2.601 . S
N523 C524 1.359 . S
N523 C527 1.334 . S
C524 C521 1.426 . S
C524 N523 1.359 . S
C524 C528 1.413 . S
C525 H516 0.930 . S
C525 C526 1.359 . S
C525 C527 1.394 . S
C526 C525 1.359 . S
C526 C528 1.391 . S
C526 H529 0.929 . S
C527 H509 0.930 . S
C527 N523 1.334 . S
C527 C525 1.394 . S
C528 C524 1.413 . S
C528 C526 1.391 . S
C528 C543 1.437 . S
H529 C526 0.929 . S
O530 Gd486 2.545 . S
O530 C545 1.258 . S
O531 Gd486 2.606 . S
O531 Gd487 2.362 . S
O531 C542 1.284 . S
O532 Gd487 2.324 . S
O532 C552 1.254 . S
O533 Gd486 2.429 . S
O533 C552 1.268 . S
O534 Gd486 2.545 . S
O534 C542 1.250 . S
O535 Gd486 2.412 . S
O535 C545 1.252 . S
O536 Gd487 2.545 . S
O536 C554 1.258 . S
O537 Gd486 2.362 . S
O537 Gd487 2.606 . S
O537 C553 1.284 . S
O538 Gd486 2.324 . S
O538 C561 1.254 . S
O539 Gd487 2.429 . S
O539 C561 1.268 . S
O540 Gd487 2.545 . S
O540 C553 1.250 . S
O541 Gd487 2.412 . S
O541 C554 1.252 . S
C542 O531 1.284 . S
C542 O534 1.250 . S
C543 H512 0.929 . S
C543 C528 1.437 . S
C543 C544 1.317 . S
C544 H515 0.930 . S
C544 C520 1.431 . S
C544 C543 1.317 . S
C545 Gd486 2.828 . S
C545 O530 1.258 . S
C545 O535 1.252 . S
C545 C546 1.497 . S
C546 C545 1.497 . S
C546 C547 1.395 . S
C546 C548 1.380 . S
C547 C546 1.395 . S
C547 C550 1.398 . S
C547 H562 0.930 . S
C548 C546 1.380 . S
C548 C549 1.391 . S
C548 H563 0.930 . S
C549 C548 1.391 . S
C549 C551 1.387 . S
C550 C547 1.398 . S
C550 C551 1.380 . S
C550 H564 0.930 . S
C551 C549 1.387 . S
C551 C550 1.380 . S
C551 H565 0.930 . S
C552 O532 1.254 . S
C552 O533 1.268 . S
C553 O537 1.284 . S
C553 O540 1.250 . S
C554 Gd487 2.828 . S
C554 O536 1.258 . S
C554 O541 1.252 . S
C554 C555 1.497 . S
C555 C554 1.497 . S
C555 C556 1.395 . S
C555 C557 1.380 . S
C556 C555 1.395 . S
C556 C559 1.398 . S
C556 H566 0.930 . S
C557 C555 1.380 . S
C557 C558 1.391 . S
C557 H567 0.930 . S
C558 C557 1.391 . S
C558 C560 1.387 . S
C559 C556 1.398 . S
C559 C560 1.380 . S
C559 H568 0.930 . S
C560 C558 1.387 . S
C560 C559 1.380 . S
C560 H569 0.930 . S
C561 O538 1.254 . S
C561 O539 1.268 . S
H562 C547 0.930 . S
H563 C548 0.930 . S
H564 C550 0.930 . S
H565 C551 0.930 . S
H566 C556 0.930 . S
H567 C557 0.930 . S
H568 C559 0.930 . S
H569 C560 0.930 . S
Gd570 N601 2.661 . S
Gd570 N607 2.601 . S
Gd570 O614 2.545 . S
Gd570 O615 2.606 . S
Gd570 O617 2.429 . S
Gd570 O618 2.545 . S
Gd570 O619 2.412 . S
Gd570 O621 2.362 . S
Gd570 O622 2.324 . S
Gd570 C629 2.828 . S
Gd571 N580 2.661 . S
Gd571 N584 2.601 . S
Gd571 O615 2.362 . S
Gd571 O616 2.324 . S
Gd571 O620 2.545 . S
Gd571 O621 2.606 . S
Gd571 O623 2.429 . S
Gd571 O624 2.545 . S
Gd571 O625 2.412 . S
Gd571 C638 2.828 . S
C572 C575 1.417 . S
C572 C577 1.431 . S
C572 C578 1.412 . S
C573 C576 1.437 . S
C573 C577 1.317 . S
C573 H592 0.929 . S
C574 C575 1.426 . S
C574 C576 1.413 . S
C574 N584 1.359 . S
C575 C572 1.417 . S
C575 C574 1.426 . S
C575 N580 1.350 . S
C576 C573 1.437 . S
C576 C574 1.413 . S
C576 C586 1.391 . S
C577 C572 1.431 . S
C577 C573 1.317 . S
C577 H588 0.930 . S
C578 C572 1.412 . S
C578 C579 1.355 . S
C578 H590 0.930 . S
C579 C578 1.355 . S
C579 C581 1.402 . S
C579 H591 0.930 . S
N580 Gd571 2.661 . S
N580 C575 1.350 . S
N580 C581 1.307 . S
C581 C579 1.402 . S
C581 N580 1.307 . S
C581 H582 0.930 . S
H582 C581 0.930 . S
C583 N584 1.334 . S
C583 C585 1.394 . S
C583 H587 0.930 . S
N584 Gd571 2.601 . S
N584 C574 1.359 . S
N584 C583 1.334 . S
C585 C583 1.394 . S
C585 C586 1.359 . S
C585 H597 0.930 1_565 S
C586 C576 1.391 . S
C586 C585 1.359 . S
C586 H598 0.929 . S
H587 C583 0.930 . S
H588 C577 0.930 . S
H589 C606 0.930 . S
H590 C578 0.930 . S
H591 C579 0.930 . S
H592 C573 0.929 . S
H593 C611 0.930 . S
H594 C602 0.930 . S
H595 C603 0.930 . S
H596 C627 0.929 . S
H597 C585 0.930 1_545 S
H598 C586 0.929 . S
H599 C628 0.930 . S
H600 C609 0.930 . S
N601 Gd570 2.661 . S
N601 C605 1.350 . S
N601 C606 1.307 . S
C602 H594 0.930 . S
C602 C603 1.355 . S
C602 C604 1.412 . S
C603 H595 0.930 . S
C603 C602 1.355 . S
C603 C606 1.402 . S
C604 C602 1.412 . S
C604 C605 1.417 . S
C604 C628 1.431 . S
C605 N601 1.350 . S
C605 C604 1.417 . S
C605 C608 1.426 . S
C606 H589 0.930 . S
C606 N601 1.307 . S
C606 C603 1.402 . S
N607 Gd570 2.601 . S
N607 C608 1.359 . S
N607 C611 1.334 . S
C608 C605 1.426 . S
C608 N607 1.359 . S
C608 C612 1.413 . S
C609 H600 0.930 . S
C609 C610 1.359 . S
C609 C611 1.394 . S
C610 C609 1.359 . S
C610 C612 1.391 . S
C610 H613 0.929 . S
C611 H593 0.930 . S
C611 N607 1.334 . S
C611 C609 1.394 . S
C612 C608 1.413 . S
C612 C610 1.391 . S
C612 C627 1.437 . S
H613 C610 0.929 . S
O614 Gd570 2.545 . S
O614 C629 1.258 . S
O615 Gd570 2.606 . S
O615 Gd571 2.362 . S
O615 C626 1.284 . S
O616 Gd571 2.324 . S
O616 C636 1.254 . S
O617 Gd570 2.429 . S
O617 C636 1.268 . S
O618 Gd570 2.545 . S
O618 C626 1.250 . S
O619 Gd570 2.412 . S
O619 C629 1.252 . S
O620 Gd571 2.545 . S
O620 C638 1.258 . S
O621 Gd570 2.362 . S
O621 Gd571 2.606 . S
O621 C637 1.284 . S
O622 Gd570 2.324 . S
O622 C645 1.254 . S
O623 Gd571 2.429 . S
O623 C645 1.268 . S
O624 Gd571 2.545 . S
O624 C637 1.250 . S
O625 Gd571 2.412 . S
O625 C638 1.252 . S
C626 O615 1.284 . S
C626 O618 1.250 . S
C627 H596 0.929 . S
C627 C612 1.437 . S
C627 C628 1.317 . S
C628 H599 0.930 . S
C628 C604 1.431 . S
C628 C627 1.317 . S
C629 Gd570 2.828 . S
C629 O614 1.258 . S
C629 O619 1.252 . S
C629 C630 1.497 . S
C630 C629 1.497 . S
C630 C631 1.395 . S
C630 C632 1.380 . S
C631 C630 1.395 . S
C631 C634 1.398 . S
C631 H646 0.930 . S
C632 C630 1.380 . S
C632 C633 1.391 . S
C632 H647 0.930 . S
C633 C632 1.391 . S
C633 C635 1.387 . S
C634 C631 1.398 . S
C634 C635 1.380 . S
C634 H648 0.930 . S
C635 C633 1.387 . S
C635 C634 1.380 . S
C635 H649 0.930 . S
C636 O616 1.254 . S
C636 O617 1.268 . S
C637 O621 1.284 . S
C637 O624 1.250 . S
C638 Gd571 2.828 . S
C638 O620 1.258 . S
C638 O625 1.252 . S
C638 C639 1.497 . S
C639 C638 1.497 . S
C639 C640 1.395 . S
C639 C641 1.380 . S
C640 C639 1.395 . S
C640 C643 1.398 . S
C640 H650 0.930 . S
C641 C639 1.380 . S
C641 C642 1.391 . S
C641 H651 0.930 . S
C642 C641 1.391 . S
C642 C644 1.387 . S
C643 C640 1.398 . S
C643 C644 1.380 . S
C643 H652 0.930 . S
C644 C642 1.387 . S
C644 C643 1.380 . S
C644 H653 0.930 . S
C645 O622 1.254 . S
C645 O623 1.268 . S
H646 C631 0.930 . S
H647 C632 0.930 . S
H648 C634 0.930 . S
H649 C635 0.930 . S
H650 C640 0.930 . S
H651 C641 0.930 . S
H652 C643 0.930 . S
H653 C644 0.930 . S
Gd654 N685 2.661 . S
Gd654 N691 2.601 . S
Gd654 O698 2.545 . S
Gd654 O699 2.606 . S
Gd654 O701 2.429 . S
Gd654 O702 2.545 . S
Gd654 O703 2.412 . S
Gd654 O705 2.362 . S
Gd654 O706 2.324 . S
Gd654 C713 2.828 . S
Gd655 N664 2.661 . S
Gd655 N668 2.601 . S
Gd655 O699 2.362 . S
Gd655 O700 2.324 . S
Gd655 O704 2.545 . S
Gd655 O705 2.606 . S
Gd655 O707 2.429 . S
Gd655 O708 2.545 . S
Gd655 O709 2.412 . S
Gd655 C722 2.828 . S
C656 C659 1.417 . S
C656 C661 1.431 . S
C656 C662 1.412 . S
C657 C660 1.437 . S
C657 C661 1.317 . S
C657 H676 0.929 . S
C658 C659 1.426 . S
C658 C660 1.413 . S
C658 N668 1.359 . S
C659 C656 1.417 . S
C659 C658 1.426 . S
C659 N664 1.350 . S
C660 C657 1.437 . S
C660 C658 1.413 . S
C660 C670 1.391 . S
C661 C656 1.431 . S
C661 C657 1.317 . S
C661 H672 0.930 . S
C662 C656 1.412 . S
C662 C663 1.355 . S
C662 H674 0.930 . S
C663 C662 1.355 . S
C663 C665 1.402 . S
C663 H675 0.930 . S
N664 Gd655 2.661 . S
N664 C659 1.350 . S
N664 C665 1.307 . S
C665 C663 1.402 . S
C665 N664 1.307 . S
C665 H666 0.930 . S
H666 C665 0.930 . S
C667 N668 1.334 . S
C667 C669 1.394 . S
C667 H671 0.930 . S
N668 Gd655 2.601 . S
N668 C658 1.359 . S
N668 C667 1.334 . S
C669 C667 1.394 . S
C669 C670 1.359 . S
C669 H681 0.930 . S
C670 C660 1.391 . S
C670 C669 1.359 . S
C670 H682 0.929 . S
H671 C667 0.930 . S
H672 C661 0.930 . S
H673 C690 0.930 . S
H674 C662 0.930 . S
H675 C663 0.930 . S
H676 C657 0.929 . S
H677 C695 0.930 . S
H678 C686 0.930 . S
H679 C687 0.930 . S
H680 C711 0.929 1_655 S
H681 C669 0.930 . S
H682 C670 0.929 . S
H683 C712 0.930 . S
H684 C693 0.930 . S
N685 Gd654 2.661 . S
N685 C689 1.350 . S
N685 C690 1.307 . S
C686 H678 0.930 . S
C686 C687 1.355 . S
C686 C688 1.412 . S
C687 H679 0.930 . S
C687 C686 1.355 . S
C687 C690 1.402 1_655 S
C688 C686 1.412 . S
C688 C689 1.417 1_655 S
C688 C712 1.431 . S
C689 N685 1.350 . S
C689 C688 1.417 1_455 S
C689 C692 1.426 . S
C690 H673 0.930 . S
C690 N685 1.307 . S
C690 C687 1.402 1_455 S
N691 Gd654 2.601 . S
N691 C692 1.359 . S
N691 C695 1.334 . S
C692 C689 1.426 . S
C692 N691 1.359 . S
C692 C696 1.413 . S
C693 H684 0.930 . S
C693 C694 1.359 . S
C693 C695 1.394 . S
C694 C693 1.359 . S
C694 C696 1.391 . S
C694 H697 0.929 . S
C695 H677 0.930 . S
C695 N691 1.334 . S
C695 C693 1.394 . S
C696 C692 1.413 . S
C696 C694 1.391 . S
C696 C711 1.437 . S
H697 C694 0.929 . S
O698 Gd654 2.545 . S
O698 C713 1.258 . S
O699 Gd654 2.606 . S
O699 Gd655 2.362 . S
O699 C710 1.284 . S
O700 Gd655 2.324 . S
O700 C720 1.254 . S
O701 Gd654 2.429 . S
O701 C720 1.268 . S
O702 Gd654 2.545 . S
O702 C710 1.250 . S
O703 Gd654 2.412 . S
O703 C713 1.252 . S
O704 Gd655 2.545 . S
O704 C722 1.258 . S
O705 Gd654 2.362 . S
O705 Gd655 2.606 . S
O705 C721 1.284 . S
O706 Gd654 2.324 . S
O706 C729 1.254 . S
O707 Gd655 2.429 . S
O707 C729 1.268 . S
O708 Gd655 2.545 . S
O708 C721 1.250 . S
O709 Gd655 2.412 . S
O709 C722 1.252 . S
C710 O699 1.284 . S
C710 O702 1.250 . S
C711 H680 0.929 1_455 S
C711 C696 1.437 . S
C711 C712 1.317 1_455 S
C712 H683 0.930 . S
C712 C688 1.431 . S
C712 C711 1.317 1_655 S
C713 Gd654 2.828 . S
C713 O698 1.258 . S
C713 O703 1.252 . S
C713 C714 1.497 . S
C714 C713 1.497 . S
C714 C715 1.395 . S
C714 C716 1.380 . S
C715 C714 1.395 . S
C715 C718 1.398 . S
C715 H730 0.930 . S
C716 C714 1.380 . S
C716 C717 1.391 . S
C716 H731 0.930 . S
C717 C716 1.391 . S
C717 C719 1.387 . S
C718 C715 1.398 . S
C718 C719 1.380 . S
C718 H732 0.930 . S
C719 C717 1.387 . S
C719 C718 1.380 . S
C719 H733 0.930 . S
C720 O700 1.254 . S
C720 O701 1.268 . S
C721 O705 1.284 . S
C721 O708 1.250 . S
C722 Gd655 2.828 . S
C722 O704 1.258 . S
C722 O709 1.252 . S
C722 C723 1.497 . S
C723 C722 1.497 . S
C723 C724 1.395 . S
C723 C725 1.380 . S
C724 C723 1.395 . S
C724 C727 1.398 . S
C724 H734 0.930 . S
C725 C723 1.380 . S
C725 C726 1.391 . S
C725 H735 0.930 . S
C726 C725 1.391 . S
C726 C728 1.387 . S
C727 C724 1.398 . S
C727 C728 1.380 . S
C727 H736 0.930 . S
C728 C726 1.387 . S
C728 C727 1.380 . S
C728 H737 0.930 . S
C729 O706 1.254 . S
C729 O707 1.268 . S
H730 C715 0.930 . S
H731 C716 0.930 . S
H732 C718 0.930 . S
H733 C719 0.930 . S
H734 C724 0.930 . S
H735 C725 0.930 . S
H736 C727 0.930 . S
H737 C728 0.930 . S
Gd738 N769 2.661 . S
Gd738 N775 2.601 . S
Gd738 O782 2.545 . S
Gd738 O783 2.606 . S
Gd738 O785 2.429 . S
Gd738 O786 2.545 . S
Gd738 O787 2.412 . S
Gd738 O789 2.362 . S
Gd738 O790 2.324 . S
Gd738 C797 2.828 . S
Gd739 N748 2.661 . S
Gd739 N752 2.601 . S
Gd739 O783 2.362 . S
Gd739 O784 2.324 . S
Gd739 O788 2.545 . S
Gd739 O789 2.606 . S
Gd739 O791 2.429 . S
Gd739 O792 2.545 . S
Gd739 O793 2.412 . S
Gd739 C806 2.828 . S
C740 C743 1.417 . S
C740 C745 1.431 . S
C740 C746 1.412 . S
C741 C744 1.437 . S
C741 C745 1.317 . S
C741 H760 0.929 . S
C742 C743 1.426 . S
C742 C744 1.413 . S
C742 N752 1.359 . S
C743 C740 1.417 . S
C743 C742 1.426 . S
C743 N748 1.350 . S
C744 C741 1.437 . S
C744 C742 1.413 . S
C744 C754 1.391 . S
C745 C740 1.431 . S
C745 C741 1.317 . S
C745 H756 0.930 . S
C746 C740 1.412 . S
C746 C747 1.355 . S
C746 H758 0.930 . S
C747 C746 1.355 . S
C747 C749 1.402 . S
C747 H759 0.930 . S
N748 Gd739 2.661 . S
N748 C743 1.350 . S
N748 C749 1.307 . S
C749 C747 1.402 . S
C749 N748 1.307 . S
C749 H750 0.930 . S
H750 C749 0.930 . S
C751 N752 1.334 . S
C751 C753 1.394 . S
C751 H755 0.930 . S
N752 Gd739 2.601 . S
N752 C742 1.359 . S
N752 C751 1.334 . S
C753 C751 1.394 . S
C753 C754 1.359 . S
C753 H765 0.930 . S
C754 C744 1.391 . S
C754 C753 1.359 . S
C754 H766 0.929 . S
H755 C751 0.930 . S
H756 C745 0.930 . S
H757 C774 0.930 . S
H758 C746 0.930 . S
H759 C747 0.930 . S
H760 C741 0.929 . S
H761 C779 0.930 . S
H762 C770 0.930 . S
H763 C771 0.930 . S
H764 C795 0.929 . S
H765 C753 0.930 . S
H766 C754 0.929 . S
H767 C796 0.930 . S
H768 C777 0.930 . S
N769 Gd738 2.661 . S
N769 C773 1.350 . S
N769 C774 1.307 . S
C770 H762 0.930 . S
C770 C771 1.355 . S
C770 C772 1.412 . S
C771 H763 0.930 . S
C771 C770 1.355 . S
C771 C774 1.402 1_455 S
C772 C770 1.412 . S
C772 C773 1.417 1_455 S
C772 C796 1.431 . S
C773 N769 1.350 . S
C773 C772 1.417 1_655 S
C773 C776 1.426 . S
C774 H757 0.930 . S
C774 N769 1.307 . S
C774 C771 1.402 1_655 S
N775 Gd738 2.601 . S
N775 C776 1.359 . S
N775 C779 1.334 . S
C776 C773 1.426 . S
C776 N775 1.359 . S
C776 C780 1.413 . S
C777 H768 0.930 . S
C777 C778 1.359 . S
C777 C779 1.394 . S
C778 C777 1.359 . S
C778 C780 1.391 . S
C778 H781 0.929 . S
C779 H761 0.930 . S
C779 N775 1.334 . S
C779 C777 1.394 . S
C780 C776 1.413 . S
C780 C778 1.391 . S
C780 C795 1.437 1_655 S
H781 C778 0.929 . S
O782 Gd738 2.545 . S
O782 C797 1.258 . S
O783 Gd738 2.606 . S
O783 Gd739 2.362 . S
O783 C794 1.284 . S
O784 Gd739 2.324 . S
O784 C804 1.254 . S
O785 Gd738 2.429 . S
O785 C804 1.268 . S
O786 Gd738 2.545 . S
O786 C794 1.250 . S
O787 Gd738 2.412 . S
O787 C797 1.252 . S
O788 Gd739 2.545 . S
O788 C806 1.258 . S
O789 Gd738 2.362 . S
O789 Gd739 2.606 . S
O789 C805 1.284 . S
O790 Gd738 2.324 . S
O790 C813 1.254 . S
O791 Gd739 2.429 . S
O791 C813 1.268 . S
O792 Gd739 2.545 . S
O792 C805 1.250 . S
O793 Gd739 2.412 . S
O793 C806 1.252 . S
C794 O783 1.284 . S
C794 O786 1.250 . S
C795 H764 0.929 . S
C795 C780 1.437 1_455 S
C795 C796 1.317 . S
C796 H767 0.930 . S
C796 C772 1.431 . S
C796 C795 1.317 . S
C797 Gd738 2.828 . S
C797 O782 1.258 . S
C797 O787 1.252 . S
C797 C798 1.497 . S
C798 C797 1.497 . S
C798 C799 1.395 . S
C798 C800 1.380 . S
C799 C798 1.395 . S
C799 C802 1.398 . S
C799 H814 0.930 . S
C800 C798 1.380 . S
C800 C801 1.391 . S
C800 H815 0.930 . S
C801 C800 1.391 . S
C801 C803 1.387 . S
C802 C799 1.398 . S
C802 C803 1.380 . S
C802 H816 0.930 . S
C803 C801 1.387 . S
C803 C802 1.380 . S
C803 H817 0.930 . S
C804 O784 1.254 . S
C804 O785 1.268 . S
C805 O789 1.284 . S
C805 O792 1.250 . S
C806 Gd739 2.828 . S
C806 O788 1.258 . S
C806 O793 1.252 . S
C806 C807 1.497 . S
C807 C806 1.497 . S
C807 C808 1.395 . S
C807 C809 1.380 . S
C808 C807 1.395 . S
C808 C811 1.398 . S
C808 H818 0.930 . S
C809 C807 1.380 . S
C809 C810 1.391 . S
C809 H819 0.930 . S
C810 C809 1.391 . S
C810 C812 1.387 . S
C811 C808 1.398 . S
C811 C812 1.380 . S
C811 H820 0.930 . S
C812 C810 1.387 . S
C812 C811 1.380 . S
C812 H821 0.930 . S
C813 O790 1.254 . S
C813 O791 1.268 . S
H814 C799 0.930 . S
H815 C800 0.930 . S
H816 C802 0.930 . S
H817 C803 0.930 . S
H818 C808 0.930 . S
H819 C809 0.930 . S
H820 C811 0.930 . S
H821 C812 0.930 . S
Gd822 N853 2.661 . S
Gd822 N859 2.601 . S
Gd822 O866 2.545 . S
Gd822 O867 2.606 . S
Gd822 O869 2.429 . S
Gd822 O870 2.545 . S
Gd822 O871 2.412 . S
Gd822 O873 2.362 . S
Gd822 O874 2.324 . S
Gd822 C881 2.828 . S
Gd823 N832 2.661 . S
Gd823 N836 2.601 . S
Gd823 O867 2.362 . S
Gd823 O868 2.324 . S
Gd823 O872 2.545 . S
Gd823 O873 2.606 . S
Gd823 O875 2.429 . S
Gd823 O876 2.545 . S
Gd823 O877 2.412 . S
Gd823 C890 2.828 . S
C824 C827 1.417 . S
C824 C829 1.431 . S
C824 C830 1.412 . S
C825 C828 1.437 . S
C825 C829 1.317 . S
C825 H844 0.929 . S
C826 C827 1.426 . S
C826 C828 1.413 . S
C826 N836 1.359 . S
C827 C824 1.417 . S
C827 C826 1.426 . S
C827 N832 1.350 . S
C828 C825 1.437 . S
C828 C826 1.413 . S
C828 C838 1.391 . S
C829 C824 1.431 . S
C829 C825 1.317 . S
C829 H840 0.930 . S
C830 C824 1.412 . S
C830 C831 1.355 . S
C830 H842 0.930 . S
C831 C830 1.355 . S
C831 C833 1.402 . S
C831 H843 0.930 . S
N832 Gd823 2.661 . S
N832 C827 1.350 . S
N832 C833 1.307 . S
C833 C831 1.402 . S
C833 N832 1.307 . S
C833 H834 0.930 . S
H834 C833 0.930 . S
C835 N836 1.334 . S
C835 C837 1.394 . S
C835 H839 0.930 . S
N836 Gd823 2.601 . S
N836 C826 1.359 . S
N836 C835 1.334 . S
C837 C835 1.394 . S
C837 C838 1.359 . S
C837 H849 0.930 . S
C838 C828 1.391 . S
C838 C837 1.359 . S
C838 H850 0.929 . S
H839 C835 0.930 . S
H840 C829 0.930 . S
H841 C858 0.930 . S
H842 C830 0.930 . S
H843 C831 0.930 . S
H844 C825 0.929 . S
H845 C863 0.930 . S
H846 C854 0.930 . S
H847 C855 0.930 . S
H848 C879 0.929 . S
H849 C837 0.930 . S
H850 C838 0.929 . S
H851 C880 0.930 . S
H852 C861 0.930 . S
N853 Gd822 2.661 . S
N853 C857 1.350 . S
N853 C858 1.307 . S
C854 H846 0.930 . S
C854 C855 1.355 . S
C854 C856 1.412 . S
C855 H847 0.930 . S
C855 C854 1.355 . S
C855 C858 1.402 . S
C856 C854 1.412 . S
C856 C857 1.417 . S
C856 C880 1.431 . S
C857 N853 1.350 . S
C857 C856 1.417 . S
C857 C860 1.426 . S
C858 H841 0.930 . S
C858 N853 1.307 . S
C858 C855 1.402 . S
N859 Gd822 2.601 . S
N859 C860 1.359 . S
N859 C863 1.334 . S
C860 C857 1.426 . S
C860 N859 1.359 . S
C860 C864 1.413 . S
C861 H852 0.930 . S
C861 C862 1.359 . S
C861 C863 1.394 . S
C862 C861 1.359 . S
C862 C864 1.391 . S
C862 H865 0.929 . S
C863 H845 0.930 . S
C863 N859 1.334 . S
C863 C861 1.394 . S
C864 C860 1.413 . S
C864 C862 1.391 . S
C864 C879 1.437 . S
H865 C862 0.929 . S
O866 Gd822 2.545 . S
O866 C881 1.258 . S
O867 Gd822 2.606 . S
O867 Gd823 2.362 . S
O867 C878 1.284 . S
O868 Gd823 2.324 . S
O868 C888 1.254 . S
O869 Gd822 2.429 . S
O869 C888 1.268 . S
O870 Gd822 2.545 . S
O870 C878 1.250 . S
O871 Gd822 2.412 . S
O871 C881 1.252 . S
O872 Gd823 2.545 . S
O872 C890 1.258 . S
O873 Gd822 2.362 . S
O873 Gd823 2.606 . S
O873 C889 1.284 . S
O874 Gd822 2.324 . S
O874 C897 1.254 . S
O875 Gd823 2.429 . S
O875 C897 1.268 . S
O876 Gd823 2.545 . S
O876 C889 1.250 . S
O877 Gd823 2.412 . S
O877 C890 1.252 . S
C878 O867 1.284 . S
C878 O870 1.250 . S
C879 H848 0.929 . S
C879 C864 1.437 . S
C879 C880 1.317 . S
C880 H851 0.930 . S
C880 C856 1.431 . S
C880 C879 1.317 . S
C881 Gd822 2.828 . S
C881 O866 1.258 . S
C881 O871 1.252 . S
C881 C882 1.497 . S
C882 C881 1.497 . S
C882 C883 1.395 . S
C882 C884 1.380 . S
C883 C882 1.395 . S
C883 C886 1.398 . S
C883 H898 0.930 . S
C884 C882 1.380 . S
C884 C885 1.391 . S
C884 H899 0.930 . S
C885 C884 1.391 . S
C885 C887 1.387 . S
C886 C883 1.398 . S
C886 C887 1.380 . S
C886 H900 0.930 . S
C887 C885 1.387 . S
C887 C886 1.380 . S
C887 H901 0.930 . S
C888 O868 1.254 . S
C888 O869 1.268 . S
C889 O873 1.284 . S
C889 O876 1.250 . S
C890 Gd823 2.828 . S
C890 O872 1.258 . S
C890 O877 1.252 . S
C890 C891 1.497 . S
C891 C890 1.497 . S
C891 C892 1.395 . S
C891 C893 1.380 . S
C892 C891 1.395 . S
C892 C895 1.398 . S
C892 H902 0.930 . S
C893 C891 1.380 . S
C893 C894 1.391 . S
C893 H903 0.930 . S
C894 C893 1.391 . S
C894 C896 1.387 . S
C895 C892 1.398 . S
C895 C896 1.380 . S
C895 H904 0.930 . S
C896 C894 1.387 . S
C896 C895 1.380 . S
C896 H905 0.930 . S
C897 O874 1.254 . S
C897 O875 1.268 . S
H898 C883 0.930 . S
H899 C884 0.930 . S
H900 C886 0.930 . S
H901 C887 0.930 . S
H902 C892 0.930 . S
H903 C893 0.930 . S
H904 C895 0.930 . S
H905 C896 0.930 . S
Gd906 N937 2.661 . S
Gd906 N943 2.601 . S
Gd906 O950 2.545 . S
Gd906 O951 2.606 . S
Gd906 O953 2.429 . S
Gd906 O954 2.545 . S
Gd906 O955 2.412 . S
Gd906 O957 2.362 . S
Gd906 O958 2.324 . S
Gd906 C965 2.828 . S
Gd907 N916 2.661 . S
Gd907 N920 2.601 . S
Gd907 O951 2.362 . S
Gd907 O952 2.324 . S
Gd907 O956 2.545 . S
Gd907 O957 2.606 . S
Gd907 O959 2.429 . S
Gd907 O960 2.545 . S
Gd907 O961 2.412 . S
Gd907 C974 2.828 . S
C908 C911 1.417 . S
C908 C913 1.431 1_655 S
C908 C914 1.412 1_655 S
C909 C912 1.437 . S
C909 C913 1.317 1_655 S
C909 H928 0.929 . S
C910 C911 1.426 . S
C910 C912 1.413 . S
C910 N920 1.359 . S
C911 C908 1.417 . S
C911 C910 1.426 . S
C911 N916 1.350 . S
C912 C909 1.437 . S
C912 C910 1.413 . S
C912 C922 1.391 . S
C913 C908 1.431 1_455 S
C913 C909 1.317 1_455 S
C913 H924 0.930 . S
C914 C908 1.412 1_455 S
C914 C915 1.355 1_455 S
C914 H926 0.930 . S
C915 C914 1.355 1_655 S
C915 C917 1.402 . S
C915 H927 0.930 1_655 S
N916 Gd907 2.661 . S
N916 C911 1.350 . S
N916 C917 1.307 . S
C917 C915 1.402 . S
C917 N916 1.307 . S
C917 H918 0.930 . S
H918 C917 0.930 . S
C919 N920 1.334 . S
C919 C921 1.394 . S
C919 H923 0.930 . S
N920 Gd907 2.601 . S
N920 C910 1.359 . S
N920 C919 1.334 . S
C921 C919 1.394 . S
C921 C922 1.359 . S
C921 H933 0.930 1_545 S
C922 C912 1.391 . S
C922 C921 1.359 . S
C922 H934 0.929 . S
H923 C919 0.930 . S
H924 C913 0.930 . S
H925 C942 0.930 . S
H926 C914 0.930 . S
H927 C915 0.930 1_455 S
H928 C909 0.929 . S
H929 C947 0.930 . S
H930 C938 0.930 . S
H931 C939 0.930 . S
H932 C963 0.929 . S
H933 C921 0.930 1_565 S
H934 C922 0.929 . S
H935 C964 0.930 . S
H936 C945 0.930 . S
N937 Gd906 2.661 . S
N937 C941 1.350 . S
N937 C942 1.307 . S
C938 H930 0.930 . S
C938 C939 1.355 . S
C938 C940 1.412 . S
C939 H931 0.930 . S
C939 C938 1.355 . S
C939 C942 1.402 . S
C940 C938 1.412 . S
C940 C941 1.417 . S
C940 C964 1.431 . S
C941 N937 1.350 . S
C941 C940 1.417 . S
C941 C944 1.426 . S
C942 H925 0.930 . S
C942 N937 1.307 . S
C942 C939 1.402 . S
N943 Gd906 2.601 . S
N943 C944 1.359 . S
N943 C947 1.334 . S
C944 C941 1.426 . S
C944 N943 1.359 . S
C944 C948 1.413 . S
C945 H936 0.930 . S
C945 C946 1.359 . S
C945 C947 1.394 . S
C946 C945 1.359 . S
C946 C948 1.391 . S
C946 H949 0.929 . S
C947 H929 0.930 . S
C947 N943 1.334 . S
C947 C945 1.394 . S
C948 C944 1.413 . S
C948 C946 1.391 . S
C948 C963 1.437 . S
H949 C946 0.929 . S
O950 Gd906 2.545 . S
O950 C965 1.258 . S
O951 Gd906 2.606 . S
O951 Gd907 2.362 . S
O951 C962 1.284 . S
O952 Gd907 2.324 . S
O952 C972 1.254 . S
O953 Gd906 2.429 . S
O953 C972 1.268 . S
O954 Gd906 2.545 . S
O954 C962 1.250 . S
O955 Gd906 2.412 . S
O955 C965 1.252 . S
O956 Gd907 2.545 . S
O956 C974 1.258 . S
O957 Gd906 2.362 . S
O957 Gd907 2.606 . S
O957 C973 1.284 . S
O958 Gd906 2.324 . S
O958 C981 1.254 . S
O959 Gd907 2.429 . S
O959 C981 1.268 . S
O960 Gd907 2.545 . S
O960 C973 1.250 . S
O961 Gd907 2.412 . S
O961 C974 1.252 . S
C962 O951 1.284 . S
C962 O954 1.250 . S
C963 H932 0.929 . S
C963 C948 1.437 . S
C963 C964 1.317 . S
C964 H935 0.930 . S
C964 C940 1.431 . S
C964 C963 1.317 . S
C965 Gd906 2.828 . S
C965 O950 1.258 . S
C965 O955 1.252 . S
C965 C966 1.497 . S
C966 C965 1.497 . S
C966 C967 1.395 . S
C966 C968 1.380 . S
C967 C966 1.395 . S
C967 C970 1.398 . S
C967 H982 0.930 . S
C968 C966 1.380 . S
C968 C969 1.391 . S
C968 H983 0.930 . S
C969 C968 1.391 . S
C969 C971 1.387 . S
C970 C967 1.398 . S
C970 C971 1.380 . S
C970 H984 0.930 . S
C971 C969 1.387 . S
C971 C970 1.380 . S
C971 H985 0.930 . S
C972 O952 1.254 . S
C972 O953 1.268 . S
C973 O957 1.284 . S
C973 O960 1.250 . S
C974 Gd907 2.828 . S
C974 O956 1.258 . S
C974 O961 1.252 . S
C974 C975 1.497 . S
C975 C974 1.497 . S
C975 C976 1.395 . S
C975 C977 1.380 . S
C976 C975 1.395 . S
C976 C979 1.398 . S
C976 H986 0.930 . S
C977 C975 1.380 . S
C977 C978 1.391 . S
C977 H987 0.930 . S
C978 C977 1.391 . S
C978 C980 1.387 . S
C979 C976 1.398 . S
C979 C980 1.380 . S
C979 H988 0.930 . S
C980 C978 1.387 . S
C980 C979 1.380 . S
C980 H989 0.930 . S
C981 O958 1.254 . S
C981 O959 1.268 . S
H982 C967 0.930 . S
H983 C968 0.930 . S
H984 C970 0.930 . S
H985 C971 0.930 . S
H986 C976 0.930 . S
H987 C977 0.930 . S
H988 C979 0.930 . S
H989 C980 0.930 . S
C990 C991 1.387 . S
C990 H994 0.950 . S
C990 C999 1.390 . S
C991 C990 1.387 . S
C991 C993 1.387 . S
H992 C999 0.950 . S
C993 C991 1.387 . S
C993 C995 1.390 . S
C993 H997 0.950 . S
H994 C990 0.950 . S
C995 C993 1.390 . S
C995 C996 1.387 . S
C995 H998 0.950 . S
C996 C995 1.387 . S
C996 C999 1.387 . S
H997 C993 0.950 . S
H998 C995 0.950 . S
C999 C990 1.390 . S
C999 H992 0.950 . S
C999 C996 1.387 . S
C1000 C1001 1.387 . S
C1000 H1004 0.950 . S
C1000 C1009 1.390 . S
C1001 C1000 1.387 . S
C1001 C1003 1.387 . S
H1002 C1009 0.950 . S
C1003 C1001 1.387 . S
C1003 C1005 1.390 . S
C1003 H1007 0.950 . S
H1004 C1000 0.950 . S
C1005 C1003 1.390 . S
C1005 C1006 1.387 . S
C1005 H1008 0.950 . S
C1006 C1005 1.387 . S
C1006 C1009 1.387 . S
H1007 C1003 0.950 . S
H1008 C1005 0.950 . S
C1009 C1000 1.390 . S
C1009 H1002 0.950 . S
C1009 C1006 1.387 . S
C1010 C1011 1.387 . S
C1010 H1014 0.950 . S
C1010 C1019 1.390 . S
C1011 C1010 1.387 . S
C1011 C1013 1.387 . S
H1012 C1019 0.950 . S
C1013 C1011 1.387 . S
C1013 C1015 1.390 . S
C1013 H1017 0.950 . S
H1014 C1010 0.950 . S
C1015 C1013 1.390 . S
C1015 C1016 1.387 . S
C1015 H1018 0.950 . S
C1016 C1015 1.387 . S
C1016 C1019 1.387 . S
H1017 C1013 0.950 . S
H1018 C1015 0.950 . S
C1019 C1010 1.390 . S
C1019 H1012 0.950 . S
C1019 C1016 1.387 . S
C1020 C1021 1.387 . S
C1020 H1024 0.950 . S
C1020 C1029 1.390 . S
C1021 C1020 1.387 . S
C1021 C1023 1.387 . S
H1022 C1029 0.950 . S
C1023 C1021 1.387 . S
C1023 C1025 1.390 1_556 S
C1023 H1027 0.950 1_556 S
H1024 C1020 0.950 . S
C1025 C1023 1.390 1_554 S
C1025 C1026 1.387 1_554 S
C1025 H1028 0.950 . S
C1026 C1025 1.387 1_556 S
C1026 C1029 1.387 . S
H1027 C1023 0.950 1_554 S
H1028 C1025 0.950 . S
C1029 C1020 1.390 . S
C1029 H1022 0.950 . S
C1029 C1026 1.387 . S
C1030 C1031 1.387 . S
C1030 H1034 0.950 . S
C1030 C1039 1.390 1_556 S
C1031 C1030 1.387 . S
C1031 C1033 1.387 . S
H1032 C1039 0.950 . S
C1033 C1031 1.387 . S
C1033 C1035 1.390 . S
C1033 H1037 0.950 . S
H1034 C1030 0.950 . S
C1035 C1033 1.390 . S
C1035 C1036 1.387 1_556 S
C1035 H1038 0.950 . S
C1036 C1035 1.387 1_554 S
C1036 C1039 1.387 . S
H1037 C1033 0.950 . S
H1038 C1035 0.950 . S
C1039 C1030 1.390 1_554 S
C1039 H1032 0.950 . S
C1039 C1036 1.387 . S
C1040 C1041 1.387 1_554 S
C1040 H1044 0.950 . S
C1040 C1049 1.390 . S
C1041 C1040 1.387 1_556 S
C1041 C1043 1.387 . S
H1042 C1049 0.950 . S
C1043 C1041 1.387 . S
C1043 C1045 1.390 . S
C1043 H1047 0.950 . S
H1044 C1040 0.950 . S
C1045 C1043 1.390 . S
C1045 C1046 1.387 . S
C1045 H1048 0.950 . S
C1046 C1045 1.387 . S
C1046 C1049 1.387 1_556 S
H1047 C1043 0.950 . S
H1048 C1045 0.950 . S
C1049 C1040 1.390 . S
C1049 H1042 0.950 . S
C1049 C1046 1.387 1_554 S
C1050 C1051 1.387 . S
C1050 H1054 0.950 . S
C1050 C1059 1.390 . S
C1051 C1050 1.387 . S
C1051 C1053 1.387 1_556 S
H1052 C1059 0.950 . S
C1053 C1051 1.387 1_554 S
C1053 C1055 1.390 . S
C1053 H1057 0.950 . S
H1054 C1050 0.950 . S
C1055 C1053 1.390 . S
C1055 C1056 1.387 1_554 S
C1055 H1058 0.950 . S
C1056 C1055 1.387 1_556 S
C1056 C1059 1.387 . S
H1057 C1053 0.950 . S
H1058 C1055 0.950 . S
C1059 C1050 1.390 . S
C1059 H1052 0.950 . S
C1059 C1056 1.387 . S
C1060 C1061 1.387 . S
C1060 H1064 0.950 . S
C1060 C1069 1.390 . S
C1061 C1060 1.387 . S
C1061 C1063 1.387 . S
H1062 C1069 0.950 1_554 S
C1063 C1061 1.387 . S
C1063 C1065 1.390 . S
C1063 H1067 0.950 . S
H1064 C1060 0.950 . S
C1065 C1063 1.390 . S
C1065 C1066 1.387 . S
C1065 H1068 0.950 . S
C1066 C1065 1.387 . S
C1066 C1069 1.387 . S
H1067 C1063 0.950 . S
H1068 C1065 0.950 . S
C1069 C1060 1.390 . S
C1069 H1062 0.950 1_556 S
C1069 C1066 1.387 . S
C1070 C1071 1.387 1_554 S
C1070 H1074 0.950 . S
C1070 C1079 1.390 . S
C1071 C1070 1.387 1_556 S
C1071 C1073 1.387 . S
H1072 C1079 0.950 . S
C1073 C1071 1.387 . S
C1073 C1075 1.390 . S
C1073 H1077 0.950 . S
H1074 C1070 0.950 . S
C1075 C1073 1.390 . S
C1075 C1076 1.387 1_556 S
C1075 H1078 0.950 . S
C1076 C1075 1.387 1_554 S
C1076 C1079 1.387 . S
H1077 C1073 0.950 . S
H1078 C1075 0.950 . S
C1079 C1070 1.390 . S
C1079 H1072 0.950 . S
C1079 C1076 1.387 . S
C1080 C1081 1.387 . S
C1080 H1084 0.950 . S
C1080 C1089 1.390 . S
C1081 C1080 1.387 . S
C1081 C1083 1.387 . S
H1082 C1089 0.950 . S
C1083 C1081 1.387 . S
C1083 C1085 1.390 . S
C1083 H1087 0.950 . S
H1084 C1080 0.950 . S
C1085 C1083 1.390 . S
C1085 C1086 1.387 . S
C1085 H1088 0.950 . S
C1086 C1085 1.387 . S
C1086 C1089 1.387 . S
H1087 C1083 0.950 . S
H1088 C1085 0.950 . S
C1089 C1080 1.390 . S
C1089 H1082 0.950 . S
C1089 C1086 1.387 . S
C1090 C1091 1.387 . S
C1090 H1094 0.950 . S
C1090 C1099 1.390 . S
C1091 C1090 1.387 . S
C1091 C1093 1.387 . S
H1092 C1099 0.950 . S
C1093 C1091 1.387 . S
C1093 C1095 1.390 . S
C1093 H1097 0.950 . S
H1094 C1090 0.950 . S
C1095 C1093 1.390 . S
C1095 C1096 1.387 . S
C1095 H1098 0.950 . S
C1096 C1095 1.387 . S
C1096 C1099 1.387 . S
H1097 C1093 0.950 . S
H1098 C1095 0.950 . S
C1099 C1090 1.390 . S
C1099 H1092 0.950 . S
C1099 C1096 1.387 . S
C1100 C1101 1.387 . S
C1100 H1104 0.950 . S
C1100 C1109 1.390 . S
C1101 C1100 1.387 . S
C1101 C1103 1.387 . S
H1102 C1109 0.950 . S
C1103 C1101 1.387 . S
C1103 C1105 1.390 . S
C1103 H1107 0.950 . S
H1104 C1100 0.950 . S
C1105 C1103 1.390 . S
C1105 C1106 1.387 . S
C1105 H1108 0.950 . S
C1106 C1105 1.387 . S
C1106 C1109 1.387 . S
H1107 C1103 0.950 . S
H1108 C1105 0.950 . S
C1109 C1100 1.390 . S
C1109 H1102 0.950 . S
C1109 C1106 1.387 . S
C1110 C1111 1.387 . S
C1110 H1114 0.950 . S
C1110 C1119 1.390 1_655 S
C1111 C1110 1.387 . S
C1111 C1113 1.387 . S
H1112 C1119 0.950 . S
C1113 C1111 1.387 . S
C1113 C1115 1.390 1_655 S
C1113 H1117 0.950 . S
H1114 C1110 0.950 . S
C1115 C1113 1.390 1_455 S
C1115 C1116 1.387 . S
C1115 H1118 0.950 . S
C1116 C1115 1.387 . S
C1116 C1119 1.387 . S
H1117 C1113 0.950 . S
H1118 C1115 0.950 . S
C1119 C1110 1.390 1_455 S
C1119 H1112 0.950 . S
C1119 C1116 1.387 . S
C1120 C1121 1.387 . S
C1120 H1124 0.950 . S
C1120 C1129 1.390 . S
C1121 C1120 1.387 . S
C1121 C1123 1.387 . S
H1122 C1129 0.950 . S
C1123 C1121 1.387 . S
C1123 C1125 1.390 . S
C1123 H1127 0.950 . S
H1124 C1120 0.950 . S
C1125 C1123 1.390 . S
C1125 C1126 1.387 . S
C1125 H1128 0.950 . S
C1126 C1125 1.387 . S
C1126 C1129 1.387 . S
H1127 C1123 0.950 . S
H1128 C1125 0.950 . S
C1129 C1120 1.390 . S
C1129 H1122 0.950 . S
C1129 C1126 1.387 . S
C1130 C1131 1.387 . S
C1130 H1134 0.950 . S
C1130 C1139 1.390 1_545 S
C1131 C1130 1.387 . S
C1131 C1133 1.387 1_545 S
H1132 C1139 0.950 . S
C1133 C1131 1.387 1_565 S
C1133 C1135 1.390 . S
C1133 H1137 0.950 . S
H1134 C1130 0.950 . S
C1135 C1133 1.390 . S
C1135 C1136 1.387 . S
C1135 H1138 0.950 . S
C1136 C1135 1.387 . S
C1136 C1139 1.387 . S
H1137 C1133 0.950 . S
H1138 C1135 0.950 . S
C1139 C1130 1.390 1_565 S
C1139 H1132 0.950 . S
C1139 C1136 1.387 . S
C1140 C1141 1.387 . S
C1140 H1144 0.950 . S
C1140 C1149 1.390 . S
C1141 C1140 1.387 . S
C1141 C1143 1.387 . S
H1142 C1149 0.950 . S
C1143 C1141 1.387 . S
C1143 C1145 1.390 . S
C1143 H1147 0.950 . S
H1144 C1140 0.950 . S
C1145 C1143 1.390 . S
C1145 C1146 1.387 . S
C1145 H1148 0.950 . S
C1146 C1145 1.387 . S
C1146 C1149 1.387 . S
H1147 C1143 0.950 . S
H1148 C1145 0.950 . S
C1149 C1140 1.390 . S
C1149 H1142 0.950 . S
C1149 C1146 1.387 . S
C1150 C1151 1.387 . S
C1150 H1154 0.950 . S
C1150 C1159 1.390 . S
C1151 C1150 1.387 . S
C1151 C1153 1.387 . S
H1152 C1159 0.950 . S
C1153 C1151 1.387 . S
C1153 C1155 1.390 . S
C1153 H1157 0.950 . S
H1154 C1150 0.950 . S
C1155 C1153 1.390 . S
C1155 C1156 1.387 . S
C1155 H1158 0.950 . S
C1156 C1155 1.387 . S
C1156 C1159 1.387 . S
H1157 C1153 0.950 . S
H1158 C1155 0.950 . S
C1159 C1150 1.390 . S
C1159 H1152 0.950 . S
C1159 C1156 1.387 . S
C1160 C1161 1.387 . S
C1160 H1164 0.950 . S
C1160 C1169 1.390 . S
C1161 C1160 1.387 . S
C1161 C1163 1.387 . S
H1162 C1169 0.950 . S
C1163 C1161 1.387 . S
C1163 C1165 1.390 . S
C1163 H1167 0.950 . S
H1164 C1160 0.950 . S
C1165 C1163 1.390 . S
C1165 C1166 1.387 . S
C1165 H1168 0.950 . S
C1166 C1165 1.387 . S
C1166 C1169 1.387 . S
H1167 C1163 0.950 . S
H1168 C1165 0.950 . S
C1169 C1160 1.390 . S
C1169 H1162 0.950 . S
C1169 C1166 1.387 . S
C1170 C1171 1.387 . S
C1170 H1174 0.950 . S
C1170 C1179 1.390 . S
C1171 C1170 1.387 . S
C1171 C1173 1.387 . S
H1172 C1179 0.950 . S
C1173 C1171 1.387 . S
C1173 C1175 1.390 . S
C1173 H1177 0.950 . S
H1174 C1170 0.950 . S
C1175 C1173 1.390 . S
C1175 C1176 1.387 . S
C1175 H1178 0.950 . S
C1176 C1175 1.387 . S
C1176 C1179 1.387 . S
H1177 C1173 0.950 . S
H1178 C1175 0.950 . S
C1179 C1170 1.390 . S
C1179 H1172 0.950 . S
C1179 C1176 1.387 . S
C1180 C1181 1.387 . S
C1180 H1184 0.950 . S
C1180 C1189 1.390 . S
C1181 C1180 1.387 . S
C1181 C1183 1.387 . S
H1182 C1189 0.950 . S
C1183 C1181 1.387 . S
C1183 C1185 1.390 . S
C1183 H1187 0.950 . S
H1184 C1180 0.950 . S
C1185 C1183 1.390 . S
C1185 C1186 1.387 . S
C1185 H1188 0.950 . S
C1186 C1185 1.387 . S
C1186 C1189 1.387 . S
H1187 C1183 0.950 . S
H1188 C1185 0.950 . S
C1189 C1180 1.390 . S
C1189 H1182 0.950 . S
C1189 C1186 1.387 . S
C1190 C1191 1.387 . S
C1190 H1194 0.950 . S
C1190 C1199 1.390 . S
C1191 C1190 1.387 . S
C1191 C1193 1.387 . S
H1192 C1199 0.950 . S
C1193 C1191 1.387 . S
C1193 C1195 1.390 . S
C1193 H1197 0.950 . S
H1194 C1190 0.950 . S
C1195 C1193 1.390 . S
C1195 C1196 1.387 . S
C1195 H1198 0.950 . S
C1196 C1195 1.387 . S
C1196 C1199 1.387 . S
H1197 C1193 0.950 . S
H1198 C1195 0.950 . S
C1199 C1190 1.390 . S
C1199 H1192 0.950 . S
C1199 C1196 1.387 . S
C1200 C1201 1.387 . S
C1200 H1204 0.950 . S
C1200 C1209 1.390 . S
C1201 C1200 1.387 . S
C1201 C1203 1.387 . S
H1202 C1209 0.950 . S
C1203 C1201 1.387 . S
C1203 C1205 1.390 1_545 S
C1203 H1207 0.950 . S
H1204 C1200 0.950 . S
C1205 C1203 1.390 1_565 S
C1205 C1206 1.387 . S
C1205 H1208 0.950 . S
C1206 C1205 1.387 . S
C1206 C1209 1.387 1_565 S
H1207 C1203 0.950 . S
H1208 C1205 0.950 . S
C1209 C1200 1.390 . S
C1209 H1202 0.950 . S
C1209 C1206 1.387 1_545 S
C1210 C1211 1.387 1_455 S
C1210 H1214 0.950 . S
C1210 C1219 1.390 . S
C1211 C1210 1.387 1_655 S
C1211 C1213 1.387 . S
H1212 C1219 0.950 . S
C1213 C1211 1.387 . S
C1213 C1215 1.390 1_655 S
C1213 H1217 0.950 . S
H1214 C1210 0.950 . S
C1215 C1213 1.390 1_455 S
C1215 C1216 1.387 . S
C1215 H1218 0.950 . S
C1216 C1215 1.387 . S
C1216 C1219 1.387 . S
H1217 C1213 0.950 . S
H1218 C1215 0.950 . S
C1219 C1210 1.390 . S
C1219 H1212 0.950 . S
C1219 C1216 1.387 . S
C1220 C1221 1.387 . S
C1220 H1224 0.950 . S
C1220 C1229 1.390 . S
C1221 C1220 1.387 . S
C1221 C1223 1.387 . S
H1222 C1229 0.950 . S
C1223 C1221 1.387 . S
C1223 C1225 1.390 . S
C1223 H1227 0.950 . S
H1224 C1220 0.950 . S
C1225 C1223 1.390 . S
C1225 C1226 1.387 . S
C1225 H1228 0.950 . S
C1226 C1225 1.387 . S
C1226 C1229 1.387 . S
H1227 C1223 0.950 . S
H1228 C1225 0.950 . S
C1229 C1220 1.390 . S
C1229 H1222 0.950 . S
C1229 C1226 1.387 . S
C1230 C1231 1.387 . S
C1230 H1234 0.950 . S
C1230 C1239 1.390 . S
C1231 C1230 1.387 . S
C1231 C1233 1.387 . S
H1232 C1239 0.950 . S
C1233 C1231 1.387 . S
C1233 C1235 1.390 . S
C1233 H1237 0.950 . S
H1234 C1230 0.950 . S
C1235 C1233 1.390 . S
C1235 C1236 1.387 . S
C1235 H1238 0.950 . S
C1236 C1235 1.387 . S
C1236 C1239 1.387 . S
H1237 C1233 0.950 . S
H1238 C1235 0.950 . S
C1239 C1230 1.390 . S
C1239 H1232 0.950 . S
C1239 C1236 1.387 . S
C1240 C1241 1.387 . S
C1240 H1244 0.950 . S
C1240 C1249 1.390 . S
C1241 C1240 1.387 . S
C1241 C1243 1.387 . S
H1242 C1249 0.950 . S
C1243 C1241 1.387 . S
C1243 C1245 1.390 . S
C1243 H1247 0.950 . S
H1244 C1240 0.950 . S
C1245 C1243 1.390 . S
C1245 C1246 1.387 . S
C1245 H1248 0.950 . S
C1246 C1245 1.387 . S
C1246 C1249 1.387 . S
H1247 C1243 0.950 . S
H1248 C1245 0.950 . S
C1249 C1240 1.390 . S
C1249 H1242 0.950 . S
C1249 C1246 1.387 . S
C1250 C1251 1.387 . S
C1250 H1254 0.950 . S
C1250 C1259 1.390 . S
C1251 C1250 1.387 . S
C1251 C1253 1.387 . S
H1252 C1259 0.950 . S
C1253 C1251 1.387 . S
C1253 C1255 1.390 . S
C1253 H1257 0.950 . S
H1254 C1250 0.950 . S
C1255 C1253 1.390 . S
C1255 C1256 1.387 . S
C1255 H1258 0.950 . S
C1256 C1255 1.387 . S
C1256 C1259 1.387 . S
H1257 C1253 0.950 . S
H1258 C1255 0.950 . S
C1259 C1250 1.390 . S
C1259 H1252 0.950 . S
C1259 C1256 1.387 . S
C1260 C1261 1.387 . S
C1260 H1264 0.950 . S
C1260 C1269 1.390 1_565 S
C1261 C1260 1.387 . S
C1261 C1263 1.387 1_565 S
H1262 C1269 0.950 . S
C1263 C1261 1.387 1_545 S
C1263 C1265 1.390 . S
C1263 H1267 0.950 1_545 S
H1264 C1260 0.950 . S
C1265 C1263 1.390 . S
C1265 C1266 1.387 . S
C1265 H1268 0.950 . S
C1266 C1265 1.387 . S
C1266 C1269 1.387 . S
H1267 C1263 0.950 1_565 S
H1268 C1265 0.950 . S
C1269 C1260 1.390 1_545 S
C1269 H1262 0.950 . S
C1269 C1266 1.387 . S
C1270 C1271 1.394 1_455 S
C1270 H1274 0.969 . S
C1270 C1279 1.365 1_455 S
C1271 C1270 1.394 1_655 S
C1271 C1273 1.387 . S
H1272 C1279 0.950 . S
C1273 C1271 1.387 . S
C1273 C1275 1.390 . S
C1273 H1277 0.950 . S
H1274 C1270 0.969 . S
C1275 C1273 1.390 . S
C1275 C1276 1.387 . S
C1275 H1278 0.950 . S
C1276 C1275 1.387 . S
C1276 C1279 1.387 . S
H1277 C1273 0.950 . S
H1278 C1275 0.950 . S
C1279 C1270 1.365 1_655 S
C1279 H1272 0.950 . S
C1279 C1276 1.387 . S
C1280 C1281 1.387 . S
C1280 H1284 0.950 . S
C1280 C1289 1.390 . S
C1281 C1280 1.387 . S
C1281 C1283 1.387 . S
H1282 C1289 0.950 . S
C1283 C1281 1.387 . S
C1283 C1285 1.390 . S
C1283 H1287 0.950 . S
H1284 C1280 0.950 . S
C1285 C1283 1.390 . S
C1285 C1286 1.387 . S
C1285 H1288 0.950 . S
C1286 C1285 1.387 . S
C1286 C1289 1.387 . S
H1287 C1283 0.950 . S
H1288 C1285 0.950 . S
C1289 C1280 1.390 . S
C1289 H1282 0.950 . S
C1289 C1286 1.387 . S
C1290 C1291 1.387 . S
C1290 H1294 0.950 . S
C1290 C1299 1.390 . S
C1291 C1290 1.387 . S
C1291 C1293 1.387 . S
H1292 C1299 0.950 1_655 S
C1293 C1291 1.387 . S
C1293 C1295 1.390 . S
C1293 H1297 0.950 . S
H1294 C1290 0.950 . S
C1295 C1293 1.390 . S
C1295 C1296 1.387 1_455 S
C1295 H1298 0.950 1_455 S
C1296 C1295 1.387 1_655 S
C1296 C1299 1.387 1_655 S
H1297 C1293 0.950 . S
H1298 C1295 0.950 1_655 S
C1299 C1290 1.390 . S
C1299 H1292 0.950 1_455 S
C1299 C1296 1.387 1_455 S
C1300 C1301 1.387 . S
C1300 H1304 0.950 . S
C1300 C1309 1.390 . S
C1301 C1300 1.387 . S
C1301 C1303 1.387 . S
H1302 C1309 0.950 . S
C1303 C1301 1.387 . S
C1303 C1305 1.390 . S
C1303 H1307 0.950 . S
H1304 C1300 0.950 . S
C1305 C1303 1.390 . S
C1305 C1306 1.387 . S
C1305 H1308 0.950 . S
C1306 C1305 1.387 . S
C1306 C1309 1.387 . S
H1307 C1303 0.950 . S
H1308 C1305 0.950 . S
C1309 C1300 1.390 . S
C1309 H1302 0.950 . S
C1309 C1306 1.387 . S
C1310 C1311 1.387 . S
C1310 H1314 0.950 . S
C1310 C1319 1.390 . S
C1311 C1310 1.387 . S
C1311 C1313 1.387 . S
H1312 C1319 0.950 . S
C1313 C1311 1.387 . S
C1313 C1315 1.390 1_565 S
C1313 H1317 0.945 . S
H1314 C1310 0.950 . S
C1315 C1313 1.390 1_545 S
C1315 C1316 1.387 . S
C1315 H1318 0.950 . S
C1316 C1315 1.387 . S
C1316 C1319 1.387 1_545 S
H1317 C1313 0.945 . S
H1318 C1315 0.950 . S
C1319 C1310 1.390 . S
C1319 H1312 0.950 . S
C1319 C1316 1.387 1_565 S
C1320 C1321 1.387 . S
C1320 H1324 0.950 . S
C1320 C1329 1.390 . S
C1321 C1320 1.387 . S
C1321 C1323 1.387 . S
H1322 C1329 0.950 . S
C1323 C1321 1.387 . S
C1323 C1325 1.390 . S
C1323 H1327 0.950 . S
H1324 C1320 0.950 . S
C1325 C1323 1.390 . S
C1325 C1326 1.387 . S
C1325 H1328 0.950 . S
C1326 C1325 1.387 . S
C1326 C1329 1.387 . S
H1327 C1323 0.950 . S
H1328 C1325 0.950 . S
C1329 C1320 1.390 . S
C1329 H1322 0.950 . S
C1329 C1326 1.387 . S
C1330 C1331 1.387 . S
C1330 H1334 0.950 . S
C1330 C1339 1.390 . S
C1331 C1330 1.387 . S
C1331 C1333 1.387 . S
H1332 C1339 0.950 . S
C1333 C1331 1.387 . S
C1333 C1335 1.390 . S
C1333 H1337 0.950 . S
H1334 C1330 0.950 . S
C1335 C1333 1.390 . S
C1335 C1336 1.387 . S
C1335 H1338 0.950 . S
C1336 C1335 1.387 . S
C1336 C1339 1.387 . S
H1337 C1333 0.950 . S
H1338 C1335 0.950 . S
C1339 C1330 1.390 . S
C1339 H1332 0.950 . S
C1339 C1336 1.387 . S
C1340 C1341 1.387 . S
C1340 H1344 0.950 . S
C1340 C1349 1.390 . S
C1341 C1340 1.387 . S
C1341 C1343 1.387 . S
H1342 C1349 0.950 . S
C1343 C1341 1.387 . S
C1343 C1345 1.390 . S
C1343 H1347 0.950 . S
H1344 C1340 0.950 . S
C1345 C1343 1.390 . S
C1345 C1346 1.387 . S
C1345 H1348 0.950 . S
C1346 C1345 1.387 . S
C1346 C1349 1.387 . S
H1347 C1343 0.950 . S
H1348 C1345 0.950 . S
C1349 C1340 1.390 . S
C1349 H1342 0.950 . S
C1349 C1346 1.387 . S
C1350 C1351 1.387 . S
C1350 H1354 0.950 . S
C1350 C1359 1.390 . S
C1351 C1350 1.387 . S
C1351 C1353 1.387 . S
H1352 C1359 0.950 . S
C1353 C1351 1.387 . S
C1353 C1355 1.390 . S
C1353 H1357 0.950 . S
H1354 C1350 0.950 . S
C1355 C1353 1.390 . S
C1355 C1356 1.387 . S
C1355 H1358 0.950 . S
C1356 C1355 1.387 . S
C1356 C1359 1.387 . S
H1357 C1353 0.950 . S
H1358 C1355 0.950 . S
C1359 C1350 1.390 . S
C1359 H1352 0.950 . S
C1359 C1356 1.387 . S
C1360 C1361 1.387 . S
C1360 H1364 0.950 . S
C1360 C1369 1.390 . S
C1361 C1360 1.387 . S
C1361 C1363 1.387 . S
H1362 C1369 0.950 . S
C1363 C1361 1.387 . S
C1363 C1365 1.390 . S
C1363 H1367 0.950 . S
H1364 C1360 0.950 . S
C1365 C1363 1.390 . S
C1365 C1366 1.387 . S
C1365 H1368 0.950 . S
C1366 C1365 1.387 . S
C1366 C1369 1.387 . S
H1367 C1363 0.950 . S
H1368 C1365 0.950 . S
C1369 C1360 1.390 . S
C1369 H1362 0.950 . S
C1369 C1366 1.387 . S
C1370 C1371 1.387 . S
C1370 H1374 0.950 . S
C1370 C1379 1.390 . S
C1371 C1370 1.387 . S
C1371 C1373 1.387 . S
H1372 C1379 0.950 . S
C1373 C1371 1.387 . S
C1373 C1375 1.390 . S
C1373 H1377 0.950 . S
H1374 C1370 0.950 . S
C1375 C1373 1.390 . S
C1375 C1376 1.387 . S
C1375 H1378 0.950 . S
C1376 C1375 1.387 . S
C1376 C1379 1.387 . S
H1377 C1373 0.950 . S
H1378 C1375 0.950 . S
C1379 C1370 1.390 . S
C1379 H1372 0.950 . S
C1379 C1376 1.387 . S
C1380 C1381 1.387 . S
C1380 H1384 0.950 1_655 S
C1380 C1389 1.390 . S
C1381 C1380 1.387 . S
C1381 C1383 1.387 . S
H1382 C1389 0.950 1_455 S
C1383 C1381 1.387 . S
C1383 C1385 1.390 . S
C1383 H1387 0.950 . S
H1384 C1380 0.950 1_455 S
C1385 C1383 1.390 . S
C1385 C1386 1.387 . S
C1385 H1388 0.950 . S
C1386 C1385 1.387 . S
C1386 C1389 1.387 . S
H1387 C1383 0.950 . S
H1388 C1385 0.950 . S
C1389 C1380 1.390 . S
C1389 H1382 0.950 1_655 S
C1389 C1386 1.387 . S
C1390 C1391 1.387 . S
C1390 H1394 0.950 . S
C1390 C1399 1.390 . S
C1391 C1390 1.387 . S
C1391 C1393 1.387 . S
H1392 C1399 0.950 . S
C1393 C1391 1.387 . S
C1393 C1395 1.390 . S
C1393 H1397 0.950 . S
H1394 C1390 0.950 . S
C1395 C1393 1.390 . S
C1395 C1396 1.387 . S
C1395 H1398 0.950 . S
C1396 C1395 1.387 . S
C1396 C1399 1.387 . S
H1397 C1393 0.950 . S
H1398 C1395 0.950 . S
C1399 C1390 1.390 . S
C1399 H1392 0.950 . S
C1399 C1396 1.387 . S
C1400 C1401 1.387 . S
C1400 H1404 0.950 . S
C1400 C1409 1.390 . S
C1401 C1400 1.387 . S
C1401 C1403 1.387 . S
H1402 C1409 0.950 . S
C1403 C1401 1.387 . S
C1403 C1405 1.390 . S
C1403 H1407 0.950 . S
H1404 C1400 0.950 . S
C1405 C1403 1.390 . S
C1405 C1406 1.387 . S
C1405 H1408 0.950 . S
C1406 C1405 1.387 . S
C1406 C1409 1.387 . S
H1407 C1403 0.950 . S
H1408 C1405 0.950 . S
C1409 C1400 1.390 . S
C1409 H1402 0.950 . S
C1409 C1406 1.387 . S
C1410 C1411 1.387 . S
C1410 H1414 0.950 . S
C1410 C1419 1.390 . S
C1411 C1410 1.387 . S
C1411 C1413 1.387 . S
H1412 C1419 0.950 . S
C1413 C1411 1.387 . S
C1413 C1415 1.390 . S
C1413 H1417 0.950 . S
H1414 C1410 0.950 . S
C1415 C1413 1.390 . S
C1415 C1416 1.387 . S
C1415 H1418 0.950 . S
C1416 C1415 1.387 . S
C1416 C1419 1.387 . S
H1417 C1413 0.950 . S
H1418 C1415 0.950 . S
C1419 C1410 1.390 . S
C1419 H1412 0.950 . S
C1419 C1416 1.387 . S
C1420 C1421 1.387 . S
C1420 H1424 0.950 . S
C1420 C1429 1.390 . S
C1421 C1420 1.387 . S
C1421 C1423 1.387 . S
H1422 C1429 0.950 . S
C1423 C1421 1.387 . S
C1423 C1425 1.390 . S
C1423 H1427 0.950 . S
H1424 C1420 0.950 . S
C1425 C1423 1.390 . S
C1425 C1426 1.387 . S
C1425 H1428 0.950 . S
C1426 C1425 1.387 . S
C1426 C1429 1.387 . S
H1427 C1423 0.950 . S
H1428 C1425 0.950 . S
C1429 C1420 1.390 . S
C1429 H1422 0.950 . S
C1429 C1426 1.387 . S
C1430 C1431 1.387 . S
C1430 H1434 0.950 . S
C1430 C1439 1.390 . S
C1431 C1430 1.387 . S
C1431 C1433 1.387 . S
H1432 C1439 0.950 . S
C1433 C1431 1.387 . S
C1433 C1435 1.390 . S
C1433 H1437 0.950 . S
H1434 C1430 0.950 . S
C1435 C1433 1.390 . S
C1435 C1436 1.387 . S
C1435 H1438 0.950 . S
C1436 C1435 1.387 . S
C1436 C1439 1.387 . S
H1437 C1433 0.950 . S
H1438 C1435 0.950 . S
C1439 C1430 1.390 . S
C1439 H1432 0.950 . S
C1439 C1436 1.387 . S
C1440 C1441 1.387 . S
C1440 H1444 0.950 . S
C1440 C1449 1.390 . S
C1441 C1440 1.387 . S
C1441 C1443 1.387 . S
H1442 C1449 0.950 . S
C1443 C1441 1.387 . S
C1443 C1445 1.390 . S
C1443 H1447 0.950 . S
H1444 C1440 0.950 . S
C1445 C1443 1.390 . S
C1445 C1446 1.387 . S
C1445 H1448 0.950 . S
C1446 C1445 1.387 . S
C1446 C1449 1.387 . S
H1447 C1443 0.950 . S
H1448 C1445 0.950 . S
C1449 C1440 1.390 . S
C1449 H1442 0.950 . S
C1449 C1446 1.387 . S
C1450 C1451 1.387 . S
C1450 H1454 0.950 . S
C1450 C1459 1.390 . S
C1451 C1450 1.387 . S
C1451 C1453 1.387 . S
H1452 C1459 0.950 . S
C1453 C1451 1.387 . S
C1453 C1455 1.390 . S
C1453 H1457 0.950 . S
H1454 C1450 0.950 . S
C1455 C1453 1.390 . S
C1455 C1456 1.387 . S
C1455 H1458 0.950 . S
C1456 C1455 1.387 . S
C1456 C1459 1.387 . S
H1457 C1453 0.950 . S
H1458 C1455 0.950 . S
C1459 C1450 1.390 . S
C1459 H1452 0.950 . S
C1459 C1456 1.387 . S
C1460 C1461 1.387 . S
C1460 H1464 0.950 . S
C1460 C1469 1.390 . S
C1461 C1460 1.387 . S
C1461 C1463 1.387 . S
H1462 C1469 0.950 . S
C1463 C1461 1.387 . S
C1463 C1465 1.390 . S
C1463 H1467 0.950 . S
H1464 C1460 0.950 . S
C1465 C1463 1.390 . S
C1465 C1466 1.387 . S
C1465 H1468 0.950 . S
C1466 C1465 1.387 . S
C1466 C1469 1.387 . S
H1467 C1463 0.950 . S
H1468 C1465 0.950 . S
C1469 C1460 1.390 . S
C1469 H1462 0.950 . S
C1469 C1466 1.387 . S
C1470 C1471 1.387 . S
C1470 H1474 0.950 . S
C1470 C1479 1.390 . S
C1471 C1470 1.387 . S
C1471 C1473 1.387 . S
H1472 C1479 0.950 . S
C1473 C1471 1.387 . S
C1473 C1475 1.390 . S
C1473 H1477 0.950 . S
H1474 C1470 0.950 . S
C1475 C1473 1.390 . S
C1475 C1476 1.387 . S
C1475 H1478 0.950 . S
C1476 C1475 1.387 . S
C1476 C1479 1.387 . S
H1477 C1473 0.950 . S
H1478 C1475 0.950 . S
C1479 C1470 1.390 . S
C1479 H1472 0.950 . S
C1479 C1476 1.387 . S
C1480 C1481 1.387 . S
C1480 H1484 0.950 . S
C1480 C1489 1.390 . S
C1481 C1480 1.387 . S
C1481 C1483 1.387 . S
H1482 C1489 0.950 . S
C1483 C1481 1.387 . S
C1483 C1485 1.390 . S
C1483 H1487 0.950 . S
H1484 C1480 0.950 . S
C1485 C1483 1.390 . S
C1485 C1486 1.387 . S
C1485 H1488 0.950 . S
C1486 C1485 1.387 . S
C1486 C1489 1.387 . S
H1487 C1483 0.950 . S
H1488 C1485 0.950 . S
C1489 C1480 1.390 . S
C1489 H1482 0.950 . S
C1489 C1486 1.387 . S
C1490 C1491 1.387 . S
C1490 H1494 0.950 . S
C1490 C1499 1.390 . S
C1491 C1490 1.387 . S
C1491 C1493 1.387 . S
H1492 C1499 0.950 . S
C1493 C1491 1.387 . S
C1493 C1495 1.390 . S
C1493 H1497 0.950 . S
H1494 C1490 0.950 . S
C1495 C1493 1.390 . S
C1495 C1496 1.387 . S
C1495 H1498 0.950 . S
C1496 C1495 1.387 . S
C1496 C1499 1.387 . S
H1497 C1493 0.950 . S
H1498 C1495 0.950 . S
C1499 C1490 1.390 . S
C1499 H1492 0.950 . S
C1499 C1496 1.387 . S
C1500 C1501 1.387 . S
C1500 H1504 0.950 . S
C1500 C1509 1.390 . S
C1501 C1500 1.387 . S
C1501 C1503 1.387 . S
H1502 C1509 0.950 . S
C1503 C1501 1.387 . S
C1503 C1505 1.390 . S
C1503 H1507 0.950 . S
H1504 C1500 0.950 . S
C1505 C1503 1.390 . S
C1505 C1506 1.387 . S
C1505 H1508 0.950 . S
C1506 C1505 1.387 . S
C1506 C1509 1.387 . S
H1507 C1503 0.950 . S
H1508 C1505 0.950 . S
C1509 C1500 1.390 . S
C1509 H1502 0.950 . S
C1509 C1506 1.387 . S
C1510 C1511 1.387 . S
C1510 H1514 0.950 . S
C1510 C1519 1.390 . S
C1511 C1510 1.387 . S
C1511 C1513 1.387 . S
H1512 C1519 0.950 . S
C1513 C1511 1.387 . S
C1513 C1515 1.390 . S
C1513 H1517 0.950 . S
H1514 C1510 0.950 . S
C1515 C1513 1.390 . S
C1515 C1516 1.387 . S
C1515 H1518 0.950 . S
C1516 C1515 1.387 . S
C1516 C1519 1.387 . S
H1517 C1513 0.950 . S
H1518 C1515 0.950 . S
C1519 C1510 1.390 . S
C1519 H1512 0.950 . S
C1519 C1516 1.387 . S
C1520 C1521 1.387 . S
C1520 H1524 0.950 . S
C1520 C1529 1.390 . S
C1521 C1520 1.387 . S
C1521 C1523 1.387 . S
H1522 C1529 0.950 . S
C1523 C1521 1.387 . S
C1523 C1525 1.390 . S
C1523 H1527 0.950 . S
H1524 C1520 0.950 . S
C1525 C1523 1.390 . S
C1525 C1526 1.387 . S
C1525 H1528 0.950 . S
C1526 C1525 1.387 . S
C1526 C1529 1.387 . S
H1527 C1523 0.950 . S
H1528 C1525 0.950 . S
C1529 C1520 1.390 . S
C1529 H1522 0.950 . S
C1529 C1526 1.387 . S
C991 N170 1.892 . S
C996 C290 1.822 . S
C1001 N184 1.098 . S
C1006 C374 1.079 . S
C1011 N158 1.556 . S
C1016 C468 1.528 . S
C1021 N145 1.538 . S
C1026 C384 1.513 . S
C1036 C458 1.038 . S
C1031 N119 1.059 . S
C1041 N131 1.852 . S
C1046 C300 1.809 1_556 S
C1056 C301 1.566 . S
C1051 N144 1.629 . S
C1066 C385 1.416 . S
C1061 N118 1.421 . S
C1071 N132 1.462 . S
C1076 C477 1.457 . S
C1081 N171 1.452 . S
C1086 C393 1.446 . S
C1091 N183 1.385 . S
C1096 C469 1.377 . S
C1106 C309 1.556 . S
C1101 N157 1.593 . S
C1116 C542 1.820 . S
C1111 N14 1.890 . S
C1121 N28 1.098 . S
C1126 C626 1.079 . S
C1131 N2 1.556 . S
C1136 C720 1.526 . S
C1141 N223 1.538 . S
C1146 C636 1.508 . S
C1151 N197 1.060 . S
C1156 C710 1.033 . S
C1161 N209 1.852 . S
C1166 C552 1.809 . S
C1171 N222 1.629 . S
C1176 C553 1.567 . S
C1181 N196 1.419 . S
C1186 C637 1.415 . S
C1196 C729 1.457 . S
C1191 N210 1.462 . S
C1201 N15 1.452 . S
C1206 C645 1.447 . S
C1216 C721 1.375 . S
C1211 N27 1.382 . S
C1221 N1 1.592 . S
C1226 C561 1.553 . S
C1236 C794 1.822 . S
C1231 N92 1.892 . S
C1241 N106 1.097 . S
C1246 C878 1.075 . S
C1256 C972 1.528 . S
C1251 N80 1.556 . S
C1266 C888 1.510 . S
C1261 N67 1.539 . S
C1276 C962 1.033 . S
C1271 N41 1.060 1_655 S
C1281 N53 1.852 . S
C1286 C804 1.809 . S
C1291 N66 1.630 . S
C1296 C805 1.567 . S
C1301 N40 1.420 . S
C1306 C889 1.414 . S
C1316 C981 1.457 . S
C1311 N54 1.462 . S
C1321 N93 1.452 . S
C1326 C897 1.447 . S
C1331 N105 1.383 . S
C1336 C973 1.375 . S
C1341 N79 1.592 . S
C1346 C813 1.554 . S
C1351 N200 1.330 . S
C1356 C297 1.220 . S
C1366 C381 1.508 . S
C1361 N213 1.696 . S
C1371 N226 1.525 . S
C1376 C474 1.406 . S
C1381 N83 1.550 . S
C1386 C390 1.417 . S
C1391 N96 1.681 . S
C1396 C465 1.501 . S
C1406 C306 1.260 . S
C1401 N109 1.357 . S
C1411 N44 1.332 . S
C1416 C549 1.214 . S
C1421 N57 1.696 . S
C1426 C633 1.508 . S
C1431 N70 1.524 . S
C1436 C726 1.401 . S
C1441 N161 1.550 . S
C1446 C642 1.420 . S
C1456 C717 1.502 . S
C1451 N174 1.681 . S
C1461 N187 1.356 . S
C1466 C558 1.259 . S
C1471 N122 1.332 . S
C1476 C801 1.218 . S
C1481 N135 1.696 . S
C1486 C885 1.509 . S
C1496 C978 1.401 . S
C1491 N148 1.524 . S
C1501 N5 1.550 . S
C1506 C894 1.417 . S
C1511 N18 1.681 . S
C1516 C969 1.505 . S
C1521 N31 1.356 . S
C1526 C810 1.259 . S
