# Generated by pormake.
# Topology pyr, (3,6)-cn, num edge types: 1
# Building blocks:
#     Node 0, Type 0, BuildingBlock: BETDAH_clean_linker_0, # of connection points: 3
#     Node 1, Type 0, BuildingBlock: BETDAH_clean_linker_0, # of connection points: 3
#     Node 2, Type 0, BuildingBlock: BETDAH_clean_linker_0, # of connection points: 3
#     Node 3, Type 0, BuildingBlock: BETDAH_clean_linker_0, # of connection points: 3
#     Node 4, Type 0, BuildingBlock: BETDAH_clean_linker_0, # of connection points: 3
#     Node 5, Type 0, BuildingBlock: BETDAH_clean_linker_0, # of connection points: 3
#     Node 6, Type 0, BuildingBlock: BETDAH_clean_linker_0, # of connection points: 3
#     Node 7, Type 0, BuildingBlock: BETDAH_clean_linker_0, # of connection points: 3
#     Node 8, Type 1, BuildingBlock: BETDIP_clean_sbu_0, # of connection points: 6
#     Node 9, Type 1, BuildingBlock: BETDIP_clean_sbu_0, # of connection points: 6
#     Node 10, Type 1, BuildingBlock: BETDIP_clean_sbu_0, # of connection points: 6
#     Node 11, Type 1, BuildingBlock: BETDIP_clean_sbu_0, # of connection points: 6
#     Edge 12, Type (0, 1), BuildingBlock: ZUJKAS_clean_linker_0, # of connection points: 2
#     Edge 13, Type (0, 1), BuildingBlock: ZUJKAS_clean_linker_0, # of connection points: 2
#     Edge 14, Type (0, 1), BuildingBlock: ZUJKAS_clean_linker_0, # of connection points: 2
#     Edge 15, Type (0, 1), BuildingBlock: ZUJKAS_clean_linker_0, # of connection points: 2
#     Edge 16, Type (0, 1), BuildingBlock: ZUJKAS_clean_linker_0, # of connection points: 2
#     Edge 17, Type (0, 1), BuildingBlock: ZUJKAS_clean_linker_0, # of connection points: 2
#     Edge 18, Type (0, 1), BuildingBlock: ZUJKAS_clean_linker_0, # of connection points: 2
#     Edge 19, Type (0, 1), BuildingBlock: ZUJKAS_clean_linker_0, # of connection points: 2
#     Edge 20, Type (0, 1), BuildingBlock: ZUJKAS_clean_linker_0, # of connection points: 2
#     Edge 21, Type (0, 1), BuildingBlock: ZUJKAS_clean_linker_0, # of connection points: 2
#     Edge 22, Type (0, 1), BuildingBlock: ZUJKAS_clean_linker_0, # of connection points: 2
#     Edge 23, Type (0, 1), BuildingBlock: ZUJKAS_clean_linker_0, # of connection points: 2
#     Edge 24, Type (0, 1), BuildingBlock: ZUJKAS_clean_linker_0, # of connection points: 2
#     Edge 25, Type (0, 1), BuildingBlock: ZUJKAS_clean_linker_0, # of connection points: 2
#     Edge 26, Type (0, 1), BuildingBlock: ZUJKAS_clean_linker_0, # of connection points: 2
#     Edge 27, Type (0, 1), BuildingBlock: ZUJKAS_clean_linker_0, # of connection points: 2
#     Edge 28, Type (0, 1), BuildingBlock: ZUJKAS_clean_linker_0, # of connection points: 2
#     Edge 29, Type (0, 1), BuildingBlock: ZUJKAS_clean_linker_0, # of connection points: 2
#     Edge 30, Type (0, 1), BuildingBlock: ZUJKAS_clean_linker_0, # of connection points: 2
#     Edge 31, Type (0, 1), BuildingBlock: ZUJKAS_clean_linker_0, # of connection points: 2
#     Edge 32, Type (0, 1), BuildingBlock: ZUJKAS_clean_linker_0, # of connection points: 2
#     Edge 33, Type (0, 1), BuildingBlock: ZUJKAS_clean_linker_0, # of connection points: 2
#     Edge 34, Type (0, 1), BuildingBlock: ZUJKAS_clean_linker_0, # of connection points: 2
#     Edge 35, Type (0, 1), BuildingBlock: ZUJKAS_clean_linker_0, # of connection points: 2
# Relax obj value: 0.119
# Max RMSD: 0.209
# Mean RMSD: 0.135
data_MOF--net-pyr--node1-BETDIP_clean_sbu_0--node2-BETDAH_clean_linker_0--edge1-ZUJKAS_clean_linker_0
_symmetry_space_group_name_H-M    P1
_symmetry_Int_Tables_number       1
_symmetry_cell_setting            triclinic
loop_
_symmetry_equiv_pos_as_xyz
'x, y, z'
_cell_length_a     44.804203
_cell_length_b     50.746997
_cell_length_c     51.003794
_cell_angle_alpha  89.010551
_cell_angle_beta   93.400881
_cell_angle_gamma 108.91429
loop_
_atom_site_label
_atom_site_type_symbol
_atom_site_fract_x
_atom_site_fract_y
_atom_site_fract_z
_atom_type_partial_charge
H0 H 0.34668 0.23389 0.25661 0.0
H1 H 0.39279 0.29859 0.20307 0.0
H2 H 0.32536 0.31091 0.25371 0.0
C3 C 0.35063 0.25469 0.24885 0.0
C4 C 0.33377 0.27135 0.25816 0.0
C5 C 0.37176 0.26422 0.22888 0.0
C6 C 0.37631 0.29083 0.21833 0.0
C7 C 0.35916 0.30736 0.22678 0.0
C8 C 0.33786 0.29764 0.24668 0.0
N9 N 0.36396 0.33377 0.21497 0.0
C10 C 0.33956 0.34468 0.20985 0.0
H11 H 0.25128 0.77547 0.75413 0.0
H12 H 0.17547 0.80928 0.73936 0.0
H13 H 0.18552 0.74696 0.68763 0.0
C14 C 0.23044 0.77597 0.74245 0.0
C15 C 0.22057 0.75918 0.71997 0.0
C16 C 0.21422 0.79394 0.74968 0.0
C17 C 0.18795 0.79529 0.73397 0.0
C18 C 0.17733 0.778 0.71173 0.0
C19 C 0.19337 0.7597 0.70514 0.0
N20 N 0.15094 0.77883 0.69538 0.0
C21 C 0.1416 0.80234 0.69277 0.0
H22 H 0.69207 0.36043 0.91394 0.0
H23 H 0.68228 0.41708 0.85264 0.0
H24 H 0.60784 0.3399 0.86291 0.0
C25 C 0.67847 0.36552 0.89754 0.0
C26 C 0.64866 0.34658 0.88995 0.0
C27 C 0.69084 0.39115 0.88447 0.0
C28 C 0.67303 0.39759 0.86301 0.0
C29 C 0.6432 0.37876 0.85512 0.0
C30 C 0.63123 0.35372 0.8688 0.0
N31 N 0.62385 0.38413 0.83396 0.0
C32 C 0.63248 0.40565 0.81576 0.0
H33 H 0.85112 0.74081 0.41597 0.0
H34 H 0.90976 0.77394 0.35165 0.0
H35 H 0.84469 0.6902 0.34744 0.0
C36 C 0.85908 0.73821 0.39681 0.0
C37 C 0.84531 0.71282 0.38328 0.0
C38 C 0.88243 0.76044 0.38572 0.0
C39 C 0.89226 0.75679 0.36077 0.0
C40 C 0.87931 0.73152 0.34698 0.0
C41 C 0.85557 0.70945 0.35824 0.0
N42 N 0.88894 0.73047 0.32099 0.0
C43 C 0.89063 0.70732 0.3075 0.0
H44 H 0.76229 0.80757 0.86814 0.0
H45 H 0.68314 0.77116 0.91564 0.0
H46 H 0.68021 0.83414 0.8591 0.0
C47 C 0.73887 0.80622 0.87371 0.0
C48 C 0.72297 0.82303 0.86099 0.0
C49 C 0.72491 0.78771 0.89364 0.0
C50 C 0.69437 0.78559 0.90048 0.0
C51 C 0.67834 0.80238 0.88827 0.0
C52 C 0.69268 0.82119 0.86858 0.0
N53 N 0.64775 0.79986 0.89614 0.0
C54 C 0.63705 0.82254 0.89759 0.0
H55 H 0.84276 0.2546 0.36737 0.0
H56 H 0.89302 0.3162 0.42512 0.0
H57 H 0.82412 0.33247 0.37073 0.0
C58 C 0.84743 0.27496 0.37613 0.0
C59 C 0.83106 0.29267 0.3661 0.0
C60 C 0.8698 0.28317 0.39737 0.0
C61 C 0.876 0.30962 0.40855 0.0
C62 C 0.85902 0.32709 0.39952 0.0
C63 C 0.83656 0.31859 0.37825 0.0
N64 N 0.8647 0.35296 0.41236 0.0
C65 C 0.84111 0.3649 0.41448 0.0
H66 H 0.35148 0.74287 0.19805 0.0
H67 H 0.35295 0.69195 0.2664 0.0
H68 H 0.41802 0.77539 0.26305 0.0
C69 C 0.36179 0.73995 0.2172 0.0
C70 C 0.38645 0.76211 0.22869 0.0
C71 C 0.3494 0.71454 0.23055 0.0
C72 C 0.36222 0.71139 0.25593 0.0
C73 C 0.3871 0.73348 0.26761 0.0
C74 C 0.39877 0.7586 0.25395 0.0
N75 N 0.4011 0.7318 0.29308 0.0
C76 C 0.39568 0.70825 0.30886 0.0
H77 H 0.18925 0.36626 0.7016 0.0
H78 H 0.18767 0.42259 0.7636 0.0
H79 H 0.11971 0.34006 0.75927 0.0
C80 C 0.17893 0.37065 0.71901 0.0
C81 C 0.15301 0.34993 0.72886 0.0
C82 C 0.19155 0.39704 0.73108 0.0
C83 C 0.17819 0.40245 0.75406 0.0
C84 C 0.15197 0.38177 0.76414 0.0
C85 C 0.13968 0.35587 0.75133 0.0
N86 N 0.13662 0.3855 0.78684 0.0
C87 C 0.14369 0.40864 0.80337 0.0
Tb88 Tb 0.98561 0.04196 0.56345 0.0
Tb89 Tb 0.05278 0.06799 0.55132 0.0
C90 C 0.93187 1.0085 0.57223 0.0
C91 C 0.91648 0.99394 0.59539 0.0
C92 C 0.88921 0.97073 0.59207 0.0
C93 C 0.87359 0.9573 0.61392 0.0
C94 C 0.88494 0.96698 0.63949 0.0
C95 C 0.91267 0.99008 0.64267 0.0
C96 C 0.92837 1.00338 0.6208 0.0
C97 C 0.01489 0.08921 0.58882 0.0
C98 C 0.03963 0.02434 0.59568 0.0
C99 C 0.10586 0.1019 0.54149 0.0
C100 C 0.11875 0.11796 0.51815 0.0
C101 C 0.14475 0.14235 0.52102 0.0
C102 C 0.15781 0.15732 0.49888 0.0
C103 C 0.14514 0.14799 0.47353 0.0
C104 C 0.11864 0.12381 0.47078 0.0
C105 C 0.10542 0.10901 0.49293 0.0
C106 C 0.0233 0.02057 0.5262 0.0
C107 C 0.99898 0.08549 0.51905 0.0
O108 O 0.95484 1.00071 0.56406 0.0
O109 O 0.93886 0.03559 0.57247 0.0
O110 O 0.02649 0.0704 0.58404 0.0
O111 O 0.98518 0.08058 0.58162 0.0
O112 O 0.00945 0.01768 0.58764 0.0
O113 O 0.06093 0.04699 0.58707 0.0
O114 O 0.08405 0.10908 0.55254 0.0
O115 O 0.09864 0.07487 0.5395 0.0
O116 O 0.01192 0.03956 0.53078 0.0
O117 O 0.05298 0.02905 0.53355 0.0
O118 O 0.02897 0.09255 0.5276 0.0
O119 O 0.97799 0.06242 0.52719 0.0
H120 H 0.87986 0.96309 0.57256 0.0
H121 H 0.85268 0.93926 0.61075 0.0
H122 H 0.92191 0.99829 0.66201 0.0
H123 H 0.94952 0.02127 0.6237 0.0
H124 H 0.1552 0.14961 0.54036 0.0
H125 H 0.17837 0.17576 0.50156 0.0
H126 H 0.10819 0.11634 0.4515 0.0
H127 H 0.08503 0.0904 0.49036 0.0
Tb128 Tb 0.55038 0.06674 0.06596 0.0
Tb129 Tb 0.48209 0.03934 0.04968 0.0
C130 C 0.60293 0.10223 0.07848 0.0
C131 C 0.61521 0.12031 0.1015 0.0
C132 C 0.63861 0.14617 0.09864 0.0
C133 C 0.65046 0.16358 0.1204 0.0
C134 C 0.63917 0.15526 0.14538 0.0
C135 C 0.61531 0.12951 0.14809 0.0
C136 C 0.60326 0.11225 0.12629 0.0
C137 C 0.52307 0.01886 0.08917 0.0
C138 C 0.49675 0.082 0.09513 0.0
C139 C 0.42853 1.00456 0.03863 0.0
C140 C 0.41265 0.98792 1.01559 0.0
C141 C 0.38427 0.96619 1.01831 0.0
C142 C 0.36818 0.95082 0.99637 0.0
C143 C 0.38021 0.95707 0.97134 0.0
C144 C 0.40895 0.97869 0.96877 0.0
C145 C 0.42513 0.99395 0.99077 0.0
C146 C 0.5094 0.0871 0.02607 0.0
C147 C 0.53577 0.02394 1.02045 0.0
O148 O 0.58082 0.10793 0.0639 0.0
O149 O 0.59646 0.07546 0.08253 0.0
O150 O 0.51091 0.03755 0.08376 0.0
O151 O 0.5525 0.02769 0.08361 0.0
O152 O 0.52667 0.08946 0.08906 0.0
O153 O 0.47543 0.05952 0.08487 0.0
O154 O 0.45201 0.99788 0.05006 0.0
O155 O 0.43505 0.0315 0.0361 0.0
O156 O 0.52154 0.0685 0.03187 0.0
O157 O 0.47985 0.07802 0.03116 0.0
O158 O 0.50572 0.01685 0.02624 0.0
O159 O 0.55745 0.04605 0.03112 0.0
H160 H 0.64787 0.15281 0.0796 0.0
H161 H 0.66901 0.18323 0.11783 0.0
H162 H 0.60597 0.12275 0.16707 0.0
H163 H 0.58474 0.09256 0.1288 0.0
H164 H 0.37436 0.96133 0.03736 0.0
H165 H 0.34596 0.93444 0.99891 0.0
H166 H 0.41897 0.98371 0.94978 0.0
H167 H 0.44719 1.0106 0.9884 0.0
Tb168 Tb 0.52487 0.58309 0.56852 0.0
Tb169 Tb 0.51438 0.52617 0.54778 0.0
C170 C 0.51707 0.62777 0.58149 0.0
C171 C 0.49163 0.63417 0.59434 0.0
C172 C 0.4597 0.62059 0.58676 0.0
C173 C 0.43586 0.62658 0.59942 0.0
C174 C 0.44341 0.64609 0.62005 0.0
C175 C 0.47544 0.65933 0.6278 0.0
C176 C 0.49929 0.65347 0.615 0.0
C177 C 0.55517 0.55404 0.59576 0.0
C178 C 0.46396 0.53224 0.58436 0.0
C179 C 0.52115 0.48091 0.53505 0.0
C180 C 0.54624 0.47302 0.52329 0.0
C181 C 0.57828 0.48758 0.52943 0.0
C182 C 0.60179 0.47983 0.51802 0.0
C183 C 0.59371 0.45743 0.5002 0.0
C184 C 0.56155 0.44313 0.4939 0.0
C185 C 0.53806 0.45087 0.50537 0.0
C186 C 0.48388 0.55522 0.52069 0.0
C187 C 0.57518 0.57727 0.53201 0.0
O188 O 0.51003 0.61707 0.55786 0.0
O189 O 0.53326 0.61524 0.59618 0.0
O190 O 0.5275 0.54505 0.5854 0.0
O191 O 0.5664 0.58073 0.59205 0.0
O192 O 0.47766 0.55951 0.58193 0.0
O193 O 0.47606 0.51434 0.57433 0.0
O194 O 0.52764 0.49143 0.55878 0.0
O195 O 0.50686 0.49454 0.51972 0.0
O196 O 0.51161 0.56415 0.53091 0.0
O197 O 0.47274 0.52853 0.52439 0.0
O198 O 0.56206 0.54996 0.535 0.0
O199 O 0.56246 0.59499 0.54147 0.0
H200 H 0.4531 0.60538 0.57102 0.0
H201 H 0.41152 0.61624 0.59269 0.0
H202 H 0.48212 0.67408 0.64391 0.0
H203 H 0.52376 0.66391 0.62133 0.0
H204 H 0.58519 0.50482 0.54318 0.0
H205 H 0.62629 0.49108 0.52356 0.0
H206 H 0.5545 0.42606 0.47996 0.0
H207 H 0.51345 0.43955 0.50023 0.0
Tb208 Tb 0.02304 0.58116 0.04238 0.0
Tb209 Tb 0.01537 0.52948 0.07331 0.0
C210 C 0.01552 0.62158 1.01687 0.0
C211 C 0.99167 0.63572 1.01439 0.0
C212 C 0.95987 0.62145 1.01888 0.0
C213 C 0.93701 0.6345 1.014 0.0
C214 C 0.94563 0.66207 1.00468 0.0
C215 C 0.97776 0.6766 1.00135 0.0
C216 C 1.00054 0.66348 1.00608 0.0
C217 C 0.07432 0.5806 0.0706 0.0
C218 C 0.98946 0.57331 0.09693 0.0
C219 C 0.02297 0.48937 0.09929 0.0
C220 C 0.04689 0.47534 0.10277 0.0
C221 C 0.07904 0.48995 0.10016 0.0
C222 C 0.10173 0.47698 0.10624 0.0
C223 C 0.09261 0.44914 0.11488 0.0
C224 C 0.06023 0.43432 0.11636 0.0
C225 C 0.03759 0.44736 0.11043 0.0
C226 C 0.96397 0.52987 0.04505 0.0
C227 C 0.04855 0.53729 1.01853 0.0
O228 O 1.00649 0.59602 1.00798 0.0
O229 O 0.03188 0.62437 0.03935 0.0
O230 O 0.04624 0.57117 0.07722 0.0
O231 O 0.07454 0.59262 0.04798 0.0
O232 O 0.99215 0.58497 0.07332 0.0
O233 O 1.00003 0.55229 0.10243 0.0
O234 O 0.03148 0.51496 0.10807 0.0
O235 O 1.00734 0.48638 0.07645 0.0
O236 O 0.99208 0.53944 0.0385 0.0
O237 O 0.96388 0.51766 0.06756 0.0
O238 O 0.04641 0.52588 0.04228 0.0
O239 O 0.03757 0.55808 1.01307 0.0
H240 H 0.9526 0.59997 0.02541 0.0
H241 H 0.91249 0.62264 1.01657 0.0
H242 H 0.98527 0.69801 0.9947 0.0
H243 H 0.02502 0.67484 1.00271 0.0
H244 H 0.08667 0.51161 0.09418 0.0
H245 H 0.12645 0.48909 0.1051 0.0
H246 H 0.05236 0.41272 0.12245 0.0
H247 H 0.01284 0.43576 0.1124 0.0
H248 H 0.34305 0.24219 0.3017 0.0
H249 H 0.30716 0.22378 0.33657 0.0
H250 H 0.24073 0.26053 0.30017 0.0
H251 H 0.27584 0.27779 0.26424 0.0
H252 H 0.28537 0.25036 0.37183 0.0
H253 H 0.18481 0.18112 0.31057 0.0
H254 H 0.2234 0.19721 0.29817 0.0
H255 H 0.19695 0.21704 0.30085 0.0
C256 C 0.32058 0.24601 0.30079 0.0
C257 C 0.3122 0.26119 0.27992 0.0
C258 C 0.3002 0.23567 0.32092 0.0
C259 C 0.27103 0.24039 0.32079 0.0
C260 C 0.26282 0.25611 0.30038 0.0
H261 H 0.16487 0.20405 0.46388 0.0
H262 H 0.193 0.22832 0.42614 0.0
C263 C 0.28313 0.26629 0.28004 0.0
C264 C 0.24971 0.22901 0.34237 0.0
H265 H 0.17703 0.18405 0.35571 0.0
C266 C 0.26162 0.23595 0.36832 0.0
C267 C 0.21884 0.21 0.33772 0.0
C268 C 0.20527 0.20066 0.31036 0.0
C269 C 0.24382 0.22401 0.38977 0.0
C270 C 0.21283 0.20522 0.38515 0.0
C271 C 0.20068 0.19864 0.35919 0.0
C272 C 0.19351 0.19074 0.40697 0.0
C273 C 0.25898 0.23075 0.41714 0.0
C274 C 0.18323 0.16153 0.40815 0.0
C275 C 0.1668 0.14765 0.42945 0.0
C276 C 0.16045 0.16273 0.45004 0.0
C277 C 0.16991 0.19194 0.44847 0.0
C278 C 0.18603 0.20581 0.42698 0.0
H279 H 0.28513 0.23964 0.417 0.0
H280 H 0.25024 0.2464 0.42616 0.0
H281 H 0.25292 0.21189 0.42973 0.0
H282 H 0.18867 0.14947 0.39291 0.0
H283 H 0.15998 0.12514 0.43022 0.0
H284 H 0.22894 0.77771 0.79843 0.0
H285 H 0.25426 0.80745 0.83603 0.0
H286 H 0.25211 0.87997 0.79154 0.0
H287 H 0.22623 0.85013 0.7539 0.0
H288 H 0.31203 0.8475 0.83549 0.0
H289 H 0.22144 0.89417 0.86176 0.0
H290 H 0.21223 0.86404 0.84068 0.0
H291 H 0.23111 0.89828 0.82794 0.0
C292 C 0.23346 0.79997 0.79683 0.0
C293 C 0.22575 0.81168 0.7733 0.0
C294 C 0.24788 0.81691 0.81829 0.0
C295 C 0.25491 0.84589 0.81664 0.0
C296 C 0.24634 0.85761 0.79342 0.0
H297 H 0.36813 0.97776 0.9235 0.0
H298 H 0.33824 0.95154 0.88512 0.0
C299 C 0.23163 0.84059 0.77194 0.0
C300 C 0.27349 0.86374 0.83851 0.0
H301 H 0.27216 0.91216 0.88372 0.0
C302 C 0.30326 0.86158 0.84607 0.0
C303 C 0.26208 0.88223 0.85214 0.0
C304 C 0.22985 0.88473 0.84542 0.0
C305 C 0.32188 0.8773 0.86698 0.0
C306 C 0.31032 0.89549 0.8808 0.0
C307 C 0.28085 0.89812 0.87301 0.0
C308 C 0.3282 0.91132 0.90391 0.0
C309 C 0.35388 0.87448 0.8741 0.0
C310 C 0.3322 0.89728 0.9271 0.0
C311 C 0.34921 0.91213 0.94897 0.0
C312 C 0.36255 0.94128 0.94798 0.0
C313 C 0.35845 0.95528 0.9247 0.0
C314 C 0.34123 0.9404 0.90287 0.0
H315 H 0.36214 0.86432 0.8582 0.0
H316 H 0.37172 0.8952 0.87835 0.0
H317 H 0.35242 0.86157 0.89207 0.0
H318 H 0.32207 0.87483 0.92827 0.0
H319 H 0.35216 0.90079 0.96658 0.0
H320 H 0.62942 0.458 0.81722 0.0
H321 H 0.62228 0.48618 0.77912 0.0
H322 H 0.62991 0.42283 0.72707 0.0
H323 H 0.63763 0.395 0.76514 0.0
H324 H 0.65966 0.47632 0.70879 0.0
H325 H 0.53785 0.4638 0.73653 0.0
H326 H 0.56807 0.47974 0.76145 0.0
H327 H 0.56121 0.44421 0.75196 0.0
C328 C 0.63036 0.45053 0.79761 0.0
C329 C 0.63427 0.42456 0.79393 0.0
C330 C 0.62595 0.46645 0.77588 0.0
C331 C 0.62493 0.45637 0.7502 0.0
C332 C 0.63052 0.43101 0.74664 0.0
H333 H 0.52834 0.50064 0.61255 0.0
H334 H 0.54734 0.47693 0.6488 0.0
C335 C 0.63502 0.41518 0.76836 0.0
C336 C 0.61607 0.47121 0.7271 0.0
H337 H 0.55605 0.49236 0.69992 0.0
C338 C 0.63705 0.47991 0.70686 0.0
C339 C 0.58629 0.4754 0.72433 0.0
C340 C 0.56189 0.46509 0.74457 0.0
C341 C 0.62918 0.49291 0.68409 0.0
C342 C 0.59972 0.49772 0.68165 0.0
C343 C 0.57871 0.48885 0.70183 0.0
C344 C 0.5898 0.51151 0.65824 0.0
C345 C 0.65216 0.5007 0.66257 0.0
C346 C 0.60741 0.53879 0.65126 0.0
C347 C 0.59669 0.55231 0.63036 0.0
C348 C 0.568 0.53889 0.6162 0.0
C349 C 0.55065 0.51145 0.62294 0.0
C350 C 0.56143 0.49792 0.64375 0.0
H351 H 0.66919 0.4889 0.66415 0.0
H352 H 0.63957 0.49681 0.64288 0.0
H353 H 0.66586 0.52321 0.66414 0.0
H354 H 0.629 0.54997 0.66244 0.0
H355 H 0.61046 0.57352 0.62573 0.0
H356 H 0.94717 0.7168 0.28787 0.0
H357 H 0.96084 0.69151 0.25252 0.0
H358 H 0.86618 0.63288 0.24927 0.0
H359 H 0.85228 0.65892 0.28433 0.0
H360 H 0.96317 0.64074 0.2474 0.0
H361 H 0.87396 0.65486 0.17335 0.0
H362 H 0.88241 0.67278 0.20451 0.0
H363 H 0.85716 0.63707 0.20238 0.0
C364 C 0.92938 0.69832 0.27976 0.0
C365 C 0.89877 0.68967 0.28887 0.0
C366 C 0.93717 0.6839 0.25948 0.0
C367 C 0.91448 0.66046 0.24769 0.0
C368 C 0.88399 0.65125 0.25745 0.0
H369 H 0.97229 0.5504 0.14507 0.0
H370 H 0.95261 0.57014 0.18098 0.0
C371 C 0.87612 0.66588 0.27773 0.0
C372 C 0.92311 0.64608 0.22527 0.0
H373 H 0.90358 0.62645 0.16089 0.0
C374 C 0.95003 0.63758 0.22852 0.0
C375 C 0.90647 0.64232 0.20033 0.0
C376 C 0.87859 0.65247 0.19476 0.0
C377 C 0.96069 0.62556 0.20782 0.0
C378 C 0.94351 0.62102 0.18312 0.0
C379 C 0.91664 0.62958 0.17979 0.0
C380 C 0.95348 0.60803 0.16042 0.0
C381 C 0.99097 0.61875 0.21247 0.0
C382 C 0.95914 0.62193 0.13617 0.0
C383 C 0.96995 0.6104 0.11529 0.0
C384 C 0.97544 0.58467 0.11816 0.0
C385 C 0.96875 0.57039 0.14216 0.0
C386 C 0.95768 0.5818 0.16288 0.0
H387 H 1.00588 0.63091 0.22915 0.0
H388 H 0.98521 0.59633 0.21738 0.0
H389 H 1.005 0.62302 0.19473 0.0
H390 H 0.9559 0.64208 0.13357 0.0
H391 H 0.97476 0.62201 0.09714 0.0
H392 H 0.3765 0.25344 0.17752 0.0
H393 H 0.40181 0.22219 0.15967 0.0
H394 H 0.4296 0.2029 0.23822 0.0
H395 H 0.40359 0.23378 0.25623 0.0
H396 H 0.46235 0.22334 0.16344 0.0
H397 H 0.38578 0.12607 0.20804 0.0
H398 H 0.37673 0.15821 0.20803 0.0
H399 H 0.40608 0.15301 0.23127 0.0
C400 C 0.38814 0.24263 0.19097 0.0
C401 C 0.38805 0.24594 0.21824 0.0
C402 C 0.40253 0.22476 0.18077 0.0
C403 C 0.41721 0.20992 0.19762 0.0
C404 C 0.41776 0.21363 0.22489 0.0
H405 H 0.53454 0.1233 0.1277 0.0
H406 H 0.51785 0.1539 0.15589 0.0
C407 C 0.40303 0.23132 0.23513 0.0
C408 C 0.43186 0.19068 0.18635 0.0
H409 H 0.42734 0.12232 0.18363 0.0
C410 C 0.45485 0.20126 0.16794 0.0
C411 C 0.42179 0.16186 0.19213 0.0
C412 C 0.39605 0.14899 0.21076 0.0
C413 C 0.46748 0.18374 0.1546 0.0
C414 C 0.45753 0.15494 0.16047 0.0
C415 C 0.43512 0.14445 0.17937 0.0
C416 C 0.46792 0.13499 0.14555 0.0
C417 C 0.4902 0.19609 0.1335 0.0
C418 C 0.44532 0.11339 0.13141 0.0
C419 C 0.45471 0.09561 0.11569 0.0
C420 C 0.48694 0.0992 0.1137 0.0
C421 C 0.50954 0.12023 0.1286 0.0
C422 C 0.50007 0.13782 0.1446 0.0
H423 H 0.48937 0.21691 0.12714 0.0
H424 H 0.51464 0.19863 0.14125 0.0
H425 H 0.48493 0.18225 0.11602 0.0
H426 H 0.42038 0.11077 0.13193 0.0
H427 H 0.43671 0.07962 0.10447 0.0
H428 H 0.15513 0.83496 0.65046 0.0
H429 H 0.138 0.87531 0.63968 0.0
H430 H 0.09034 0.86456 0.71214 0.0
H431 H 0.10785 0.8242 0.72304 0.0
H432 H 0.07478 0.87341 0.63368 0.0
H433 H 0.14146 0.9488 0.71126 0.0
H434 H 0.15202 0.91866 0.70284 0.0
H435 H 0.11892 0.91476 0.72249 0.0
C436 C 0.14128 0.84149 0.66415 0.0
C437 C 0.1327 0.8268 0.68749 0.0
C438 C 0.13153 0.86444 0.65802 0.0
C439 C 0.11316 0.87307 0.67523 0.0
C440 C 0.10494 0.85852 0.69883 0.0
H441 H 1.00225 0.9783 0.6205 0.0
H442 H 0.01903 0.94236 0.64347 0.0
C443 C 0.11473 0.83548 0.70495 0.0
C444 C 0.10108 0.89614 0.66743 0.0
H445 H 0.10531 0.96253 0.68298 0.0
C446 C 0.08132 0.89285 0.64451 0.0
C447 C 0.1099 0.92151 0.68154 0.0
C448 C 0.13194 0.92639 0.7058 0.0
C449 C 0.07032 0.91434 0.63512 0.0
C450 C 0.07887 0.93965 0.64932 0.0
C451 C 0.09854 0.94296 0.67234 0.0
C452 C 0.06895 0.96334 0.63951 0.0
C453 C 0.05047 0.91006 0.60958 0.0
C454 C 0.09158 0.98769 0.63095 0.0
C455 C 0.08211 1.00839 0.61796 0.0
C456 C 0.04982 1.00502 0.61331 0.0
C457 C 0.0273 0.98141 0.62348 0.0
C458 C 0.03682 0.9608 0.63656 0.0
H459 H 0.05187 0.89198 0.59833 0.0
H460 H 0.02539 0.9061 0.61383 0.0
H461 H 0.05803 0.9289 0.59704 0.0
H462 H 0.11652 0.99006 0.63315 0.0
H463 H 0.10007 0.02635 0.61046 0.0
H464 H 0.70719 0.44797 0.89006 0.0
H465 H 0.75591 0.47975 0.91098 0.0
H466 H 0.79204 0.41116 0.92366 0.0
H467 H 0.74453 0.37981 0.90154 0.0
H468 H 0.77692 0.47969 0.9599 0.0
H469 H 0.86893 0.46787 0.89861 0.0
H470 H 0.82755 0.45517 0.88817 0.0
H471 H 0.84474 0.43433 0.90923 0.0
C472 C 0.72593 0.43983 0.89659 0.0
C473 C 0.7218 0.41125 0.8942 0.0
C474 C 0.75369 0.458 0.90876 0.0
C475 C 0.77795 0.44801 0.91869 0.0
C476 C 0.77416 0.41964 0.91566 0.0
H477 H 0.90382 0.49759 0.05367 0.0
H478 H 0.85896 0.48231 1.02166 0.0
C479 C 0.74665 0.40158 0.90332 0.0
C480 C 0.80592 0.46643 0.93428 0.0
H481 H 0.88598 0.48268 0.94362 0.0
C482 C 0.80082 0.48074 0.95603 0.0
C483 C 0.83729 0.46846 0.92906 0.0
C484 C 0.84495 0.45588 0.9048 0.0
C485 C 0.8259 0.49554 0.97348 0.0
C486 C 0.85687 0.49533 0.96961 0.0
C487 C 0.86223 0.48248 0.94698 0.0
C488 C 0.8836 0.50664 0.98951 0.0
C489 C 0.8188 0.51111 0.99595 0.0
C490 C 0.91278 0.52507 0.98215 0.0
C491 C 0.93875 0.53342 1.00041 0.0
C492 C 0.936 0.52353 0.02635 0.0
C493 C 0.90662 0.50572 0.03386 0.0
C494 C 0.88082 0.49715 1.01559 0.0
H495 H 0.79807 0.51801 0.99073 0.0
H496 H 0.81292 0.49705 1.01314 0.0
H497 H 0.83929 0.52966 1.00173 0.0
H498 H 0.91565 0.53257 0.96214 0.0
H499 H 0.96115 0.54703 0.99402 0.0
H500 H 0.84708 0.68741 0.43048 0.0
H501 H 0.80223 0.65855 0.45441 0.0
H502 H 0.73884 0.66277 0.38858 0.0
H503 H 0.784 0.69068 0.36426 0.0
H504 H 0.75751 0.67423 0.47095 0.0
H505 H 0.70035 0.58288 0.40697 0.0
H506 H 0.73929 0.60669 0.40167 0.0
H507 H 0.70466 0.61488 0.38976 0.0
C508 C 0.82364 0.68137 0.42084 0.0
C509 C 0.81904 0.69097 0.39541 0.0
C510 C 0.79795 0.66503 0.43458 0.0
C511 C 0.76692 0.65815 0.42337 0.0
C512 C 0.76243 0.66702 0.39755 0.0
H513 H 0.6023 0.63057 0.51472 0.0
H514 H 0.64849 0.64874 0.48871 0.0
C515 C 0.78827 0.68304 0.38361 0.0
C516 C 0.73943 0.64425 0.43969 0.0
H517 H 0.66895 0.59117 0.44048 0.0
C518 C 0.73835 0.65589 0.46431 0.0
C519 C 0.7144 0.62008 0.4314 0.0
C520 C 0.71486 0.60523 0.40613 0.0
C521 C 0.71294 0.64455 0.48047 0.0
C522 C 0.68709 0.62133 0.47155 0.0
C523 C 0.68846 0.60919 0.44726 0.0
C524 C 0.65831 0.60978 0.48696 0.0
C525 C 0.71441 0.65741 0.50719 0.0
C526 C 0.64745 0.58146 0.49397 0.0
C527 C 0.62057 0.57083 0.50865 0.0
C528 C 0.60396 0.58829 0.51667 0.0
C529 C 0.61469 0.61653 0.50931 0.0
C530 C 0.6413 0.62705 0.49447 0.0
H531 H 0.73921 0.66828 0.51439 0.0
H532 H 0.70195 0.67308 0.50581 0.0
H533 H 0.70302 0.64147 0.52188 0.0
H534 H 0.65995 0.5676 0.4883 0.0
H535 H 0.61294 0.54896 0.5138 0.0
H536 H 0.34011 0.38039 0.17048 0.0
H537 H 0.29657 0.39714 0.15485 0.0
H538 H 0.23897 0.34911 0.21503 0.0
H539 H 0.2827 0.33246 0.23075 0.0
H540 H 0.23435 0.36298 0.13695 0.0
H541 H 0.23339 0.42866 0.2229 0.0
H542 H 0.2667 0.41743 0.2168 0.0
H543 H 0.23206 0.39352 0.23019 0.0
C544 C 0.31821 0.37372 0.18046 0.0
C545 C 0.31451 0.35549 0.20185 0.0
C546 C 0.29342 0.38317 0.17152 0.0
C547 C 0.26474 0.37457 0.18397 0.0
C548 C 0.26112 0.35632 0.20546 0.0
H549 H 0.09167 0.41514 0.15722 0.0
H550 H 0.1322 0.39512 0.17278 0.0
C551 C 0.28595 0.34682 0.21438 0.0
C552 C 0.23838 0.38413 0.17388 0.0
H553 H 0.19306 0.42351 0.18953 0.0
C554 C 0.22528 0.37623 0.1484 0.0
C555 C 0.22663 0.40129 0.18896 0.0
C556 C 0.2405 0.41097 0.21617 0.0
C557 C 0.20046 0.38489 0.13761 0.0
C558 C 0.18898 0.4024 0.15255 0.0
C559 C 0.20194 0.4101 0.17813 0.0
C560 C 0.16374 0.41326 0.142 0.0
C561 C 0.18641 0.37481 0.11054 0.0
C562 C 0.16804 0.43008 0.11949 0.0
C563 C 0.14471 0.44129 0.11031 0.0
C564 C 0.11678 0.43609 0.12365 0.0
C565 C 0.11259 0.41915 0.14617 0.0
C566 C 0.13585 0.40787 0.15524 0.0
H567 H 0.19142 0.35565 0.10501 0.0
H568 H 0.16043 0.37045 0.10928 0.0
H569 H 0.19694 0.39118 0.09596 0.0
H570 H 0.18967 0.43496 0.10927 0.0
H571 H 0.14861 0.4541 0.09284 0.0
H572 H 0.61194 0.29571 0.86958 0.0
H573 H 0.58874 0.25231 0.89305 0.0
H574 H 0.63465 0.29162 0.96561 0.0
H575 H 0.65572 0.33573 0.94277 0.0
H576 H 0.6125 0.21867 0.91874 0.0
H577 H 0.54753 0.2585 0.98875 0.0
H578 H 0.56623 0.27888 0.96139 0.0
H579 H 0.58906 0.27716 0.9913 0.0
C580 C 0.61661 0.29542 0.89064 0.0
C581 C 0.63552 0.31958 0.90419 0.0
C582 C 0.60357 0.27037 0.90402 0.0
C583 C 0.60933 0.26869 0.93127 0.0
C584 C 0.62901 0.29247 0.94474 0.0
H585 H 0.57081 0.10788 1.01219 0.0
H586 H 0.59609 0.15197 0.98999 0.0
C587 C 0.64159 0.31767 0.93147 0.0
C588 C 0.595 0.24196 0.94538 0.0
H589 H 0.55109 0.2134 0.9975 0.0
C590 C 0.59893 0.21752 0.93589 0.0
C591 C 0.57683 0.24023 0.96755 0.0
C592 C 0.56936 0.26504 0.97767 0.0
C593 C 0.58536 0.19154 0.9479 0.0
C594 C 0.56835 0.19003 0.97075 0.0
C595 C 0.56438 0.21448 0.98019 0.0
C596 C 0.55346 0.1633 0.98469 0.0
C597 C 0.5886 0.16595 0.93536 0.0
C598 C 0.52135 0.15532 0.99015 0.0
C599 C 0.50719 0.13063 1.00368 0.0
C600 C 0.52472 0.1132 1.01184 0.0
C601 C 0.55677 0.12101 1.0063 0.0
C602 C 0.57112 0.14604 0.99323 0.0
H603 H 0.5931 0.16932 0.91417 0.0
H604 H 0.60899 0.16111 0.94514 0.0
H605 H 0.56704 0.14764 0.93728 0.0
H606 H 0.50714 0.16819 0.98386 0.0
H607 H 0.48243 0.12514 1.00764 0.0
H608 H 0.94456 0.79324 0.39232 0.0
H609 H 0.96639 0.83744 0.41623 0.0
H610 H 0.87233 0.83395 0.43421 0.0
H611 H 0.85053 0.78949 0.4109 0.0
H612 H 0.95917 0.88697 0.40885 0.0
H613 H 0.91489 0.84804 0.50603 0.0
H614 H 0.91324 0.82493 0.47912 0.0
H615 H 0.88381 0.84193 0.48079 0.0
C616 C 0.92855 0.80189 0.4014 0.0
C617 C 0.89582 0.78765 0.39991 0.0
C618 C 0.94105 0.82717 0.41513 0.0
C619 C 0.92115 0.8389 0.42761 0.0
C620 C 0.88838 0.82502 0.42557 0.0
H621 H 0.96085 0.99958 0.5086 0.0
H622 H 0.93485 0.95582 0.48431 0.0
C623 C 0.8759 0.79961 0.41211 0.0
C624 C 0.93467 0.86589 0.4422 0.0
H625 H 0.93742 0.89716 0.50172 0.0
C626 C 0.95443 0.88909 0.42917 0.0
C627 C 0.92863 0.86886 0.46881 0.0
C628 C 0.90925 0.84455 0.4846 0.0
C629 C 0.96806 0.91499 0.44187 0.0
C630 C 0.96183 0.91792 0.46832 0.0
C631 C 0.94191 0.89492 0.48135 0.0
C632 C 0.97722 0.94433 0.48314 0.0
C633 C 0.98903 0.93918 0.42695 0.0
C634 C 0.0095 0.95219 0.49078 0.0
C635 C 0.02424 0.9769 0.50482 0.0
C636 C 1.00707 0.9944 0.51141 0.0
C637 C 0.97468 0.98652 0.5038 0.0
C638 C 0.95983 0.96156 0.48994 0.0
H639 H 0.98722 0.935 0.4055 0.0
H640 H 0.98285 0.95831 0.4303 0.0
H641 H 0.01398 0.94329 0.4342 0.0
H642 H 0.0233 0.93911 0.48595 0.0
H643 H 0.0492 0.98233 0.51046 0.0
H644 H 0.2843 0.77667 0.71676 0.0
H645 H 0.31709 0.75039 0.70194 0.0
H646 H 0.23419 0.67836 0.68843 0.0
H647 H 0.20099 0.70484 0.70306 0.0
H648 H 0.3254 0.70254 0.72178 0.0
H649 H 0.27553 0.68691 0.61844 0.0
H650 H 0.26764 0.71108 0.64037 0.0
H651 H 0.24758 0.67433 0.64331 0.0
C652 C 0.27304 0.75517 0.71081 0.0
C653 C 0.2401 0.74275 0.71114 0.0
C654 C 0.29179 0.74021 0.70228 0.0
C655 C 0.27806 0.71252 0.69387 0.0
C656 C 0.24519 0.69987 0.69438 0.0
H657 H 0.38495 0.61095 0.63243 0.0
H658 H 0.34259 0.62345 0.65183 0.0
C659 C 0.22629 0.71496 0.70278 0.0
C660 C 0.29864 0.69731 0.68461 0.0
H661 H 0.31709 0.6693 0.62988 0.0
C662 C 0.32337 0.695 0.70176 0.0
C663 C 0.29589 0.68745 0.65849 0.0
C664 C 0.27041 0.69019 0.63895 0.0
C665 C 0.34605 0.68397 0.69324 0.0
C666 C 0.34393 0.6751 0.66693 0.0
C667 C 0.31846 0.67615 0.65008 0.0
C668 C 0.36953 0.66716 0.65592 0.0
C669 C 0.37262 0.6825 0.71219 0.0
C670 C 0.39845 0.68771 0.65169 0.0
C671 C 0.42246 0.68081 0.64026 0.0
C672 C 0.41806 0.65314 0.63295 0.0
C673 C 0.38901 0.63252 0.63747 0.0
C674 C 0.36486 0.63954 0.64871 0.0
H675 H 0.36729 0.6845 0.73292 0.0
H676 H 0.37741 0.66255 0.70982 0.0
H677 H 0.39444 0.69974 0.70795 0.0
H678 H 0.40224 0.70923 0.65683 0.0
H679 H 0.44421 0.69732 0.63662 0.0
H680 H 0.78457 0.85641 0.85943 0.0
H681 H 0.81066 0.88314 0.82211 0.0
H682 H 0.72177 0.85933 0.77662 0.0
H683 H 0.6955 0.83202 0.81373 0.0
H684 H 0.80944 0.85758 0.77114 0.0
H685 H 0.76089 0.94564 0.76614 0.0
H686 H 0.76099 0.92539 0.79562 0.0
H687 H 0.73278 0.91124 0.76884 0.0
C688 C 0.77051 0.85692 0.84152 0.0
C689 C 0.73799 0.84189 0.83947 0.0
C690 C 0.78543 0.87232 0.8203 0.0
C691 C 0.76809 0.87328 0.79672 0.0
C692 C 0.73545 0.85914 0.79482 0.0
H693 H 0.82089 0.94637 0.64424 0.0
H694 H 0.79268 0.92307 0.68212 0.0
C695 C 0.72048 0.84361 0.81604 0.0
C696 C 0.78467 0.88731 0.77357 0.0
H697 H 0.79277 0.94219 0.73187 0.0
C698 C 0.80592 0.87614 0.76256 0.0
C699 C 0.77972 0.91132 0.76239 0.0
C700 C 0.75754 0.92433 0.77387 0.0
C701 C 0.8222 0.8882 0.74042 0.0
C702 C 0.8177 0.91253 0.72944 0.0
C703 C 0.79626 0.9236 0.74038 0.0
C704 C 0.83499 0.92674 0.70657 0.0
C705 C 0.84347 0.87435 0.72866 0.0
C706 C 0.86814 0.93681 0.70783 0.0
C707 C 0.88437 0.94975 0.68607 0.0
C708 C 0.86773 0.95321 0.6627 0.0
C709 C 0.83447 0.94357 0.66172 0.0
C710 C 0.81828 0.93047 0.68344 0.0
H711 H 0.83727 0.85209 0.73446 0.0
H712 H 0.84214 0.87557 0.70689 0.0
H713 H 0.86827 0.88505 0.73585 0.0
H714 H 0.88151 0.93468 0.72568 0.0
H715 H 0.90995 0.95673 0.6875 0.0
H716 H 0.7728 0.29949 0.35709 0.0
H717 H 0.7353 0.28276 0.31925 0.0
H718 H 0.80068 0.24847 0.28534 0.0
H719 H 0.8387 0.26626 0.32214 0.0
H720 H 0.7741 0.2744 0.24905 0.0
H721 H 0.68152 0.20205 0.30801 0.0
H722 H 0.69337 0.23811 0.31732 0.0
H723 H 0.7211 0.21931 0.32146 0.0
C724 C 0.77931 0.28871 0.34138 0.0
C725 C 0.80858 0.28387 0.34281 0.0
C726 C 0.75771 0.27888 0.31993 0.0
C727 C 0.76494 0.26387 0.29974 0.0
C728 C 0.79449 0.25982 0.30079 0.0
H729 H 0.65955 0.13871 0.19215 0.0
H730 H 0.68686 0.16794 0.22949 0.0
C731 C 0.8161 0.26977 0.322 0.0
C732 C 0.74192 0.25174 0.27754 0.0
H733 H 0.67112 0.20177 0.26231 0.0
C734 C 0.7514 0.25873 0.25189 0.0
C735 C 0.71244 0.23117 0.28139 0.0
C736 C 0.70148 0.22197 0.30849 0.0
C737 C 0.73293 0.24487 0.23 0.0
C738 C 0.70363 0.22402 0.23384 0.0
C739 C 0.69351 0.21785 0.25944 0.0
C740 C 0.68472 0.20646 0.21186 0.0
C741 C 0.74589 0.25161 0.20313 0.0
C742 C 0.67379 0.2183 0.18977 0.0
C743 C 0.65852 0.20164 0.16825 0.0
C744 C 0.65336 0.1728 0.16872 0.0
C745 C 0.66305 0.16085 0.19133 0.0
C746 C 0.67866 0.17754 0.21265 0.0
H747 H 0.77162 0.26331 0.20432 0.0
H748 H 0.74186 0.23232 0.19155 0.0
H749 H 0.73368 0.26472 0.19237 0.0
H750 H 0.67749 0.24046 0.18901 0.0
H751 H 0.65084 0.21128 0.15119 0.0
H752 H 0.40545 0.65865 0.30347 0.0
H753 H 0.4145 0.62857 0.33934 0.0
H754 H 0.39866 0.68422 0.3959 0.0
H755 H 0.38891 0.7137 0.3601 0.0
H756 H 0.46121 0.6428 0.37663 0.0
H757 H 0.34787 0.61042 0.42519 0.0
H758 H 0.35194 0.62603 0.39298 0.0
H759 H 0.36368 0.64754 0.42196 0.0
C760 C 0.403 0.66386 0.32357 0.0
C761 C 0.39599 0.68808 0.32918 0.0
C762 C 0.40836 0.64684 0.34404 0.0
C763 C 0.40683 0.65384 0.37041 0.0
C764 C 0.39913 0.67785 0.37582 0.0
H765 H 0.50986 0.60896 0.50422 0.0
H766 H 0.49015 0.63253 0.46823 0.0
C767 C 0.39365 0.69475 0.35537 0.0
C768 C 0.41605 0.63762 0.39227 0.0
H769 H 0.39256 0.60521 0.45046 0.0
C770 C 0.44603 0.63435 0.39263 0.0
C771 C 0.39622 0.6263 0.4131 0.0
C772 C 0.36302 0.62748 0.41319 0.0
C773 C 0.45702 0.62078 0.41344 0.0
C774 C 0.43785 0.61074 0.43493 0.0
C775 C 0.40751 0.61329 0.43424 0.0
C776 C 0.44873 0.59718 0.45806 0.0
C777 C 0.48895 0.61702 0.41198 0.0
C778 C 0.43129 0.56992 0.46524 0.0
C779 C 0.44226 0.55658 0.48613 0.0
C780 C 0.47087 0.57025 0.50027 0.0
C781 C 0.48776 0.59786 0.49367 0.0
C782 C 0.47667 0.61125 0.4729 0.0
H783 H 0.49623 0.61828 0.39141 0.0
H784 H 0.50693 0.63383 0.42338 0.0
H785 H 0.48894 0.59666 0.42033 0.0
H786 H 0.40955 0.55868 0.45426 0.0
H787 H 0.42868 0.53533 0.49081 0.0
H788 H 0.12491 0.45446 0.80034 0.0
H789 H 0.11393 0.47965 0.83741 0.0
H790 H 0.14632 0.42722 0.89163 0.0
H791 H 0.15793 0.40265 0.85463 0.0
H792 H 0.07168 0.45837 0.87337 0.0
H793 H 0.18878 0.50137 0.92604 0.0
H794 H 0.18414 0.48769 0.89308 0.0
H795 H 0.17779 0.46452 0.92084 0.0
C796 C 0.13067 0.44904 0.8202 0.0
C797 C 0.14296 0.42709 0.82468 0.0
C798 C 0.12413 0.46325 0.84141 0.0
C799 C 0.12966 0.45573 0.86753 0.0
C800 C 0.14263 0.4341 0.87186 0.0
H801 H 0.07444 0.49465 1.02084 0.0
H802 H 0.09457 0.47522 0.9846 0.0
C803 C 0.14927 0.42001 0.85067 0.0
C804 C 0.11937 0.46875 0.89005 0.0
H805 H 0.14413 0.50113 0.94963 0.0
C806 C 0.08768 0.46794 0.88989 0.0
C807 C 0.14 0.48112 0.91188 0.0
C808 C 0.17464 0.484 0.91291 0.0
C809 C 0.07601 0.47862 0.91091 0.0
C810 C 0.09659 0.49086 0.93275 0.0
C811 C 0.12827 0.49167 0.933 0.0
C812 C 0.08568 0.5034 0.95516 0.0
C813 C 0.04147 0.47612 0.90981 0.0
C814 C 0.0746 0.52611 0.95094 0.0
C815 C 0.06318 0.5373 0.97158 0.0
C816 C 0.06256 0.52613 0.99713 0.0
C817 C 0.07442 0.50378 1.00149 0.0
C818 C 0.08598 0.49264 0.98076 0.0
H819 H 0.02734 0.46012 0.89537 0.0
H820 H 0.03153 0.47071 0.92937 0.0
H821 H 0.03887 0.49641 0.90376 0.0
H822 H 0.07463 0.53517 0.93156 0.0
H823 H 0.05445 0.55456 0.96735 0.0
H824 H 0.67224 0.87238 0.9172 0.0
H825 H 0.65272 0.90945 0.93165 0.0
H826 H 0.55818 0.86141 0.90371 0.0
H827 H 0.57771 0.82417 0.8896 0.0
H828 H 0.61724 0.94154 0.90551 0.0
H829 H 0.55171 0.87184 0.98311 0.0
H830 H 0.58143 0.86399 0.96531 0.0
H831 H 0.54264 0.85844 0.95018 0.0
C832 C 0.64742 0.87009 0.9138 0.0
C833 C 0.62632 0.84571 0.90244 0.0
C834 C 0.63631 0.89117 0.92199 0.0
C835 C 0.60397 0.88795 0.91905 0.0
C836 C 0.58315 0.86408 0.90646 0.0
H837 H 0.49712 0.98071 0.99056 0.0
H838 H 0.51276 0.94947 0.96252 0.0
C839 C 0.59427 0.84297 0.8983 0.0
C840 C 0.59184 0.9086 0.9309 0.0
H841 H 0.54707 0.91662 0.98005 0.0
C842 C 0.60176 0.93614 0.92172 0.0
C843 C 0.57176 0.90142 0.9521 0.0
C844 C 0.5614 0.8724 0.96347 0.0
C845 C 0.59199 0.95674 0.93316 0.0
C846 C 0.57229 0.94963 0.95462 0.0
C847 C 0.56204 0.92199 0.96351 0.0
C848 C 0.56298 0.97057 0.96906 0.0
C849 C 0.60265 0.98584 0.92207 0.0
C850 C 0.58605 0.99294 0.98189 0.0
C851 C 0.5772 1.01092 0.99789 0.0
C852 C 0.54512 1.00662 1.00159 0.0
C853 C 0.52206 0.98457 0.98821 0.0
C854 C 0.53093 0.96671 0.97213 0.0
H855 H 0.60919 0.98591 0.90138 0.0
H856 H 0.58393 0.99571 0.9229 0.0
H857 H 0.62384 0.99874 0.93381 0.0
H858 H 0.61093 0.99592 0.98031 0.0
H859 H 0.59556 0.02758 1.00803 0.0
H860 H 0.84298 0.22803 0.40814 0.0
H861 H 0.86912 0.1955 0.42561 0.0
H862 H 0.95888 0.26141 0.42834 0.0
H863 H 0.93274 0.29422 0.41099 0.0
H864 H 0.91655 0.17971 0.40512 0.0
H865 H 0.95525 0.23035 0.5027 0.0
H866 H 0.92676 0.23896 0.48069 0.0
H867 H 0.96819 0.25276 0.4751 0.0
C868 C 0.86831 0.23558 0.41236 0.0
C869 C 0.88584 0.26366 0.40822 0.0
C870 C 0.88319 0.21699 0.42238 0.0
C871 C 0.91586 0.22611 0.42852 0.0
C872 C 0.93353 0.25408 0.42421 0.0
H873 H 0.03517 0.13575 0.50028 0.0
H874 H 0.01695 0.16967 0.47523 0.0
C875 C 0.91861 0.27277 0.4143 0.0
C876 C 0.93119 0.20611 0.43931 0.0
H877 H 0.97136 0.19172 0.49366 0.0
C878 C 0.92863 0.18235 0.42444 0.0
C879 C 0.94694 0.20966 0.46452 0.0
C880 C 0.94929 0.23416 0.48183 0.0
C881 C 0.94125 0.16194 0.43419 0.0
C882 C 0.95652 0.1653 0.45953 0.0
C883 C 0.9597 0.18931 0.47417 0.0
C884 C 0.96799 0.14355 0.47192 0.0
C885 C 0.93819 0.13697 0.41733 0.0
C886 C 0.94649 0.11751 0.47806 0.0
C887 C 0.95676 0.09807 0.49244 0.0
C888 C 0.98872 0.10442 0.50101 0.0
C889 C 0.01038 0.13017 0.49399 0.0
C890 C 1.00005 0.14962 0.4797 0.0
H891 H 0.9335 0.14098 0.39625 0.0
H892 H 0.95994 0.13096 0.41945 0.0
H893 H 0.91814 0.11908 0.42366 0.0
H894 H 0.92155 0.11262 0.4726 0.0
H895 H 0.93946 0.07848 0.49757 0.0
H896 H 0.2951 0.68206 0.25251 0.0
H897 H 0.24783 0.65003 0.22967 0.0
H898 H 0.29486 0.6657 0.15686 0.0
H899 H 0.34223 0.69677 0.17962 0.0
H900 H 0.21273 0.66487 0.19119 0.0
H901 H 0.25429 0.58269 0.15259 0.0
H902 H 0.27652 0.60673 0.17789 0.0
H903 H 0.27936 0.61667 0.14381 0.0
C904 C 0.29564 0.678 0.2318 0.0
C905 C 0.32239 0.69207 0.21787 0.0
C906 C 0.26855 0.65983 0.21872 0.0
C907 C 0.26782 0.65515 0.19156 0.0
C908 C 0.29495 0.6684 0.17789 0.0
H909 H 0.13595 0.60567 0.06001 0.0
H910 H 0.18179 0.62002 0.09149 0.0
C911 C 0.32195 0.68647 0.1909 0.0
C912 C 0.23794 0.63893 0.17687 0.0
H913 H 0.20758 0.58825 0.13016 0.0
C914 C 0.2114 0.64774 0.17826 0.0
C915 C 0.23615 0.61658 0.15991 0.0
C916 C 0.26303 0.60494 0.15866 0.0
C917 C 0.18382 0.63584 0.16221 0.0
C918 C 0.18257 0.61433 0.14446 0.0
C919 C 0.20864 0.60482 0.1437 0.0
C920 C 0.1552 0.6029 0.12536 0.0
C921 C 0.15674 0.64727 0.16343 0.0
C922 C 0.1252 0.58778 0.13386 0.0
C923 C 0.09898 0.57951 0.11589 0.0
C924 C 0.10235 0.58628 0.08913 0.0
C925 C 0.13263 0.60031 0.08052 0.0
C926 C 0.15883 0.60847 0.09847 0.0
H927 H 0.16346 0.6669 0.17496 0.0
H928 H 0.14819 0.65126 0.14335 0.0
H929 H 0.13683 0.63171 0.17285 0.0
H930 H 0.12197 0.58296 0.15448 0.0
H931 H 0.07594 0.56862 0.12306 0.0
H932 H 0.19697 0.41131 0.6794 0.0
H933 H 0.24406 0.43926 0.65789 0.0
H934 H 0.29471 0.45947 0.73332 0.0
H935 H 0.24756 0.43052 0.75503 0.0
H936 H 0.28145 0.49293 0.65939 0.0
H937 H 0.35031 0.42498 0.69589 0.0
H938 H 0.30836 0.41586 0.69938 0.0
H939 H 0.33572 0.44104 0.72108 0.0
C940 C 0.21808 0.42182 0.69148 0.0
C941 C 0.21864 0.41827 0.71894 0.0
C942 C 0.24501 0.43792 0.67913 0.0
C943 C 0.2733 0.451 0.69384 0.0
C944 C 0.27343 0.44903 0.72143 0.0
H945 H 0.43758 0.56224 0.61459 0.0
H946 H 0.39246 0.54452 0.64209 0.0
C947 C 0.24635 0.43278 0.73388 0.0
C948 C 0.30262 0.46541 0.67986 0.0
H949 H 0.37618 0.46263 0.66904 0.0
C950 C 0.30227 0.48645 0.66165 0.0
C951 C 0.32967 0.4567 0.68243 0.0
C952 C 0.33111 0.43325 0.70055 0.0
C953 C 0.32784 0.49867 0.64576 0.0
C954 C 0.35498 0.49006 0.64845 0.0
C955 C 0.35552 0.46934 0.66696 0.0
C956 C 0.38246 0.50124 0.63152 0.0
C957 C 0.32492 0.51985 0.62549 0.0
C958 C 0.3926 0.48291 0.61675 0.0
C959 C 0.41871 0.49297 0.60122 0.0
C960 C 0.43539 0.52167 0.60002 0.0
C961 C 0.42516 0.54004 0.61476 0.0
C962 C 0.39917 0.52992 0.63046 0.0
H963 H 0.29988 0.51847 0.62103 0.0
H964 H 0.33776 0.54109 0.63316 0.0
H965 H 0.33531 0.51709 0.60693 0.0
H966 H 0.38024 0.4607 0.6172 0.0
H967 H 0.42586 0.47817 0.59023 0.0
H968 H 0.73222 0.78152 0.94665 0.0
H969 H 0.76603 0.75829 0.97024 0.0
H970 H 0.79227 0.73462 0.89645 0.0
H971 H 0.75847 0.75767 0.87273 0.0
H972 H 0.77403 0.69098 0.94184 0.0
H973 H 0.86777 0.79233 0.96501 0.0
H974 H 0.82729 0.78891 0.97044 0.0
H975 H 0.83925 0.78848 0.93758 0.0
C976 C 0.74478 0.77094 0.93549 0.0
C977 C 0.74287 0.77147 0.90787 0.0
C978 C 0.76414 0.75784 0.94897 0.0
C979 C 0.78163 0.74495 0.935 0.0
C980 C 0.7789 0.74454 0.90749 0.0
H981 H 0.94371 0.69467 0.96188 0.0
H982 H 0.90269 0.71476 0.94808 0.0
C983 C 0.75976 0.75779 0.894 0.0
C984 C 0.80416 0.73313 0.94891 0.0
H985 H 0.87859 0.75155 0.97804 0.0
C986 C 0.79675 0.70412 0.95008 0.0
C987 C 0.83376 0.75051 0.95938 0.0
C988 C 0.8428 0.78182 0.95806 0.0
C989 C 0.81859 0.69194 0.9611 0.0
C990 C 0.84843 0.70933 0.97119 0.0
C991 C 0.85557 0.73835 0.97042 0.0
C992 C 0.87351 0.69786 0.98058 0.0
C993 C 0.81018 0.66064 0.961 0.0
C994 C 0.8708 0.68206 1.00368 0.0
C995 C 0.89442 0.67073 1.01182 0.0
C996 C 0.92111 0.67509 0.99698 0.0
C997 C 0.9238 0.69129 0.97404 0.0
C998 C 0.90029 0.70265 0.966 0.0
H999 H 0.78794 0.65038 0.94912 0.0
H1000 H 0.82953 0.65446 0.95313 0.0
H1001 H 0.8071 0.6528 0.98145 0.0
H1002 H 0.85043 0.67848 1.01534 0.0
H1003 H 0.89184 0.65866 0.02976 0.0
H1004 H 0.40145 0.8152 0.24798 0.0
H1005 H 0.42247 0.85915 0.22435 0.0
H1006 H 0.42176 0.81366 0.15354 0.0
H1007 H 0.4005 0.76967 0.17699 0.0
H1008 H 0.47707 0.88025 0.20019 0.0
H1009 H 0.37658 0.86701 0.12733 0.0
H1010 H 0.37396 0.84498 0.15584 0.0
H1011 H 0.39217 0.83862 0.12715 0.0
C1012 C 0.40581 0.81456 0.22738 0.0
C1013 C 0.39916 0.78891 0.21435 0.0
C1014 C 0.41771 0.8397 0.21386 0.0
C1015 C 0.42319 0.83977 0.18702 0.0
C1016 C 0.41692 0.81419 0.17404 0.0
H1017 H 0.54706 0.97695 0.10086 0.0
H1018 H 0.52233 0.93385 0.12472 0.0
C1019 C 0.40485 0.78904 0.1875 0.0
C1020 C 0.43652 0.86657 0.17289 0.0
H1021 H 0.42413 0.90384 0.11926 0.0
C1022 C 0.46539 0.88546 0.18258 0.0
C1023 C 0.42108 0.87363 0.15012 0.0
C1024 C 0.38908 0.85513 0.13963 0.0
C1025 C 0.47957 0.91085 0.16984 0.0
C1026 C 0.46486 0.91731 0.14638 0.0
C1027 C 0.43561 0.89875 0.13704 0.0
C1028 C 0.4795 0.94317 0.13125 0.0
C1029 C 0.50995 0.93067 0.18189 0.0
C1030 C 0.46322 0.96235 0.1261 0.0
C1031 C 0.47721 0.98689 0.1122 0.0
C1032 C 0.50769 0.99263 0.10315 0.0
C1033 C 0.52367 0.97319 0.10784 0.0
C1034 C 0.50964 0.94863 0.12162 0.0
H1035 H 0.51296 0.92665 0.20321 0.0
H1036 H 0.53021 0.92784 0.17217 0.0
H1037 H 0.5108 0.95267 0.17928 0.0
H1038 H 0.43986 0.9585 0.13316 0.0
H1039 H 0.46432 1.00148 0.10877 0.0
H1040 H 0.18521 0.31727 0.70986 0.0
H1041 H 0.16345 0.27284 0.68624 0.0
H1042 H 0.06915 0.2754 0.69386 0.0
H1043 H 0.09071 0.31995 0.71728 0.0
H1044 H 0.11668 0.22076 0.7035 0.0
H1045 H 0.07635 0.26542 0.6133 0.0
H1046 H 0.10536 0.28647 0.63712 0.0
H1047 H 0.06421 0.27494 0.64373 0.0
C1048 C 0.15983 0.30845 0.70641 0.0
C1049 C 0.13972 0.3223 0.71537 0.0
C1050 C 0.14744 0.28297 0.69303 0.0
C1051 C 0.1147 0.27092 0.68802 0.0
C1052 C 0.09452 0.28445 0.69725 0.0
H1053 H 0.98896 0.1277 0.60371 0.0
H1054 H 0.01447 0.17091 0.62811 0.0
C1055 C 0.10687 0.30981 0.71082 0.0
C1056 C 0.10162 0.24429 0.67306 0.0
H1057 H 0.06115 0.21633 0.6158 0.0
C1058 C 0.10466 0.21975 0.68426 0.0
C1059 C 0.08597 0.24302 0.64797 0.0
C1060 C 0.0829 0.26885 0.63462 0.0
C1061 C 0.09161 0.19383 0.67141 0.0
C1062 C 0.07579 0.1925 0.6463 0.0
C1063 C 0.07321 0.21721 0.635 0.0
C1064 C 0.06061 0.16569 0.63178 0.0
C1065 C 0.09392 0.16802 0.68532 0.0
C1066 C 0.07796 0.14821 0.62543 0.0
C1067 C 0.06322 0.12318 0.61165 0.0
C1068 C 0.03098 0.11539 0.60361 0.0
C1069 C 0.01382 0.13306 0.60968 0.0
C1070 C 0.02843 0.15785 0.6236 0.0
H1071 H 0.09875 0.17146 0.70683 0.0
H1072 H 0.07182 0.1502 0.68193 0.0
H1073 H 0.11368 0.16231 0.67767 0.0
H1074 H 0.10297 0.15402 0.63088 0.0
H1075 H 0.07708 0.11004 0.60716 0.0
H1076 H 0.781 0.33422 0.42125 0.0
H1077 H 0.73801 0.35136 0.43257 0.0
H1078 H 0.80117 0.43597 0.42935 0.0
H1079 H 0.84417 0.41875 0.41796 0.0
H1080 H 0.74176 0.38493 0.47821 0.0
H1081 H 0.71998 0.43725 0.38575 0.0
H1082 H 0.73987 0.41141 0.38673 0.0
H1083 H 0.76049 0.44622 0.39806 0.0
C1084 C 0.78542 0.35647 0.4226 0.0
C1085 C 0.81551 0.3753 0.41872 0.0
C1086 C 0.76099 0.36621 0.42907 0.0
C1087 C 0.76638 0.39492 0.43153 0.0
C1088 C 0.79643 0.41378 0.42709 0.0
H1089 H 0.6504 0.4905 0.48258 0.0
H1090 H 0.69255 0.4756 0.46594 0.0
C1091 C 0.82091 0.40399 0.4207 0.0
C1092 C 0.7412 0.40489 0.44069 0.0
H1093 H 0.69276 0.44274 0.42261 0.0
C1094 C 0.73094 0.39748 0.46604 0.0
C1095 C 0.72744 0.42147 0.42482 0.0
C1096 C 0.73725 0.42946 0.39723 0.0
C1097 C 0.70735 0.40638 0.47608 0.0
C1098 C 0.69314 0.42257 0.46007 0.0
C1099 C 0.70363 0.43023 0.43478 0.0
C1100 C 0.6672 0.43155 0.46926 0.0
C1101 C 0.69832 0.39882 0.50395 0.0
C1102 C 0.6388 0.41171 0.47617 0.0
C1103 C 0.61486 0.42011 0.48595 0.0
C1104 C 0.61871 0.44858 0.48876 0.0
C1105 C 0.64689 0.46842 0.4811 0.0
C1106 C 0.67089 0.45997 0.47139 0.0
H1107 H 0.71712 0.3933 0.51571 0.0
H1108 H 0.69357 0.41623 0.51388 0.0
H1109 H 0.67652 0.38045 0.50371 0.0
H1110 H 0.63525 0.38966 0.47421 0.0
H1111 H 0.5936 0.40427 0.49183 0.0
loop_
_geom_bond_atom_site_label_1
_geom_bond_atom_site_label_2
_geom_bond_distance
_geom_bond_site_symmetry_2
_ccdc_geom_bond_type
H0 C3 0.929 . S
H1 C6 0.929 . S
H2 C8 0.930 . S
C3 H0 0.929 . S
C3 C4 1.398 . S
C3 C5 1.396 . S
C4 C3 1.398 . S
C4 C8 1.407 . S
C5 C3 1.396 . S
C5 C6 1.394 . S
C6 H1 0.929 . S
C6 C5 1.394 . S
C6 C7 1.382 . S
C7 C6 1.382 . S
C7 C8 1.392 . S
C7 N9 1.420 . S
C8 H2 0.930 . S
C8 C4 1.407 . S
C8 C7 1.392 . S
N9 C7 1.420 . S
N9 C10 1.244 . S
C10 N9 1.244 . S
H11 C14 0.929 . S
H12 C17 0.929 . S
H13 C19 0.930 . S
C14 H11 0.929 . S
C14 C15 1.398 . S
C14 C16 1.396 . S
C15 C14 1.398 . S
C15 C19 1.407 . S
C16 C14 1.396 . S
C16 C17 1.394 . S
C17 H12 0.929 . S
C17 C16 1.394 . S
C17 C18 1.382 . S
C18 C17 1.382 . S
C18 C19 1.392 . S
C18 N20 1.420 . S
C19 H13 0.930 . S
C19 C15 1.407 . S
C19 C18 1.392 . S
N20 C18 1.420 . S
N20 C21 1.244 . S
C21 N20 1.244 . S
H22 C25 0.929 . S
H23 C28 0.929 . S
H24 C30 0.930 . S
C25 H22 0.929 . S
C25 C26 1.398 . S
C25 C27 1.396 . S
C26 C25 1.398 . S
C26 C30 1.407 . S
C27 C25 1.396 . S
C27 C28 1.394 . S
C28 H23 0.929 . S
C28 C27 1.394 . S
C28 C29 1.382 . S
C29 C28 1.382 . S
C29 C30 1.392 . S
C29 N31 1.420 . S
C30 H24 0.930 . S
C30 C26 1.407 . S
C30 C29 1.392 . S
N31 C29 1.420 . S
N31 C32 1.244 . S
C32 N31 1.244 . S
H33 C36 0.929 . S
H34 C39 0.929 . S
H35 C41 0.930 . S
C36 H33 0.929 . S
C36 C37 1.398 . S
C36 C38 1.396 . S
C37 C36 1.398 . S
C37 C41 1.407 . S
C38 C36 1.396 . S
C38 C39 1.394 . S
C39 H34 0.929 . S
C39 C38 1.394 . S
C39 C40 1.382 . S
C40 C39 1.382 . S
C40 C41 1.392 . S
C40 N42 1.420 . S
C41 H35 0.930 . S
C41 C37 1.407 . S
C41 C40 1.392 . S
N42 C40 1.420 . S
N42 C43 1.244 . S
C43 N42 1.244 . S
H44 C47 0.929 . S
H45 C50 0.929 . S
H46 C52 0.930 . S
C47 H44 0.929 . S
C47 C48 1.398 . S
C47 C49 1.396 . S
C48 C47 1.398 . S
C48 C52 1.407 . S
C49 C47 1.396 . S
C49 C50 1.394 . S
C50 H45 0.929 . S
C50 C49 1.394 . S
C50 C51 1.382 . S
C51 C50 1.382 . S
C51 C52 1.392 . S
C51 N53 1.420 . S
C52 H46 0.930 . S
C52 C48 1.407 . S
C52 C51 1.392 . S
N53 C51 1.420 . S
N53 C54 1.244 . S
C54 N53 1.244 . S
H55 C58 0.929 . S
H56 C61 0.929 . S
H57 C63 0.930 . S
C58 H55 0.929 . S
C58 C59 1.398 . S
C58 C60 1.396 . S
C59 C58 1.398 . S
C59 C63 1.407 . S
C60 C58 1.396 . S
C60 C61 1.394 . S
C61 H56 0.929 . S
C61 C60 1.394 . S
C61 C62 1.382 . S
C62 C61 1.382 . S
C62 C63 1.392 . S
C62 N64 1.420 . S
C63 H57 0.930 . S
C63 C59 1.407 . S
C63 C62 1.392 . S
N64 C62 1.420 . S
N64 C65 1.244 . S
C65 N64 1.244 . S
H66 C69 0.929 . S
H67 C72 0.929 . S
H68 C74 0.930 . S
C69 H66 0.929 . S
C69 C70 1.398 . S
C69 C71 1.396 . S
C70 C69 1.398 . S
C70 C74 1.407 . S
C71 C69 1.396 . S
C71 C72 1.394 . S
C72 H67 0.929 . S
C72 C71 1.394 . S
C72 C73 1.382 . S
C73 C72 1.382 . S
C73 C74 1.392 . S
C73 N75 1.420 . S
C74 H68 0.930 . S
C74 C70 1.407 . S
C74 C73 1.392 . S
N75 C73 1.420 . S
N75 C76 1.244 . S
C76 N75 1.244 . S
H77 C80 0.929 . S
H78 C83 0.929 . S
H79 C85 0.930 . S
C80 H77 0.929 . S
C80 C81 1.398 . S
C80 C82 1.396 . S
C81 C80 1.398 . S
C81 C85 1.407 . S
C82 C80 1.396 . S
C82 C83 1.394 . S
C83 H78 0.929 . S
C83 C82 1.394 . S
C83 C84 1.382 . S
C84 C83 1.382 . S
C84 C85 1.392 . S
C84 N86 1.420 . S
C85 H79 0.930 . S
C85 C81 1.407 . S
C85 C84 1.392 . S
N86 C84 1.420 . S
N86 C87 1.244 . S
C87 N86 1.244 . S
Tb88 C90 2.809 1_545 S
Tb88 O108 2.484 1_545 S
Tb88 O109 2.440 . S
Tb88 O110 2.658 1_655 S
Tb88 O111 2.409 1_655 S
Tb88 O112 2.378 1_655 S
Tb88 O116 2.325 1_545 S
Tb88 O119 2.341 . S
Tb89 C99 2.809 . S
Tb89 O110 2.325 . S
Tb89 O113 2.341 . S
Tb89 O114 2.484 . S
Tb89 O115 2.440 . S
Tb89 O116 2.658 1_445 S
Tb89 O117 2.409 1_545 S
Tb89 O118 2.378 . S
C90 Tb88 2.809 1_565 S
C90 C91 1.514 . S
C90 O108 1.248 . S
C90 O109 1.266 1_565 S
C91 C90 1.514 . S
C91 C92 1.359 . S
C91 C96 1.348 . S
C92 C91 1.359 . S
C92 C93 1.380 . S
C92 H120 0.929 . S
C93 C92 1.380 . S
C93 C94 1.347 . S
C93 H121 0.931 . S
C94 C93 1.347 . S
C94 C95 1.369 . S
C95 C94 1.369 . S
C95 C96 1.408 . S
C95 H122 0.930 . S
C96 C91 1.348 . S
C96 C95 1.408 . S
C96 H123 0.930 . S
C97 O110 1.281 . S
C97 O111 1.254 . S
C98 O112 1.236 1_565 S
C98 O113 1.266 1_565 S
C99 Tb89 2.809 . S
C99 C100 1.514 . S
C99 O114 1.248 . S
C99 O115 1.266 . S
C100 C99 1.514 . S
C100 C101 1.359 . S
C100 C105 1.348 . S
C101 C100 1.359 . S
C101 C102 1.380 . S
C101 H124 0.929 . S
C102 C101 1.380 . S
C102 C103 1.347 . S
C102 H125 0.931 . S
C103 C102 1.347 . S
C103 C104 1.369 . S
C104 C103 1.369 . S
C104 C105 1.408 . S
C104 H126 0.930 . S
C105 C100 1.348 . S
C105 C104 1.408 . S
C105 H127 0.930 . S
C106 O116 1.281 . S
C106 O117 1.254 1_655 S
C107 O118 1.236 1_655 S
C107 O119 1.266 . S
O108 Tb88 2.484 1_565 S
O108 C90 1.248 . S
O109 Tb88 2.440 . S
O109 C90 1.266 1_545 S
O110 Tb88 2.658 1_455 S
O110 Tb89 2.325 . S
O110 C97 1.281 . S
O111 Tb88 2.409 1_455 S
O111 C97 1.254 . S
O112 Tb88 2.378 1_455 S
O112 C98 1.236 1_545 S
O113 Tb89 2.341 . S
O113 C98 1.266 1_545 S
O114 Tb89 2.484 . S
O114 C99 1.248 . S
O115 Tb89 2.440 . S
O115 C99 1.266 . S
O116 Tb88 2.325 1_565 S
O116 Tb89 2.658 1_665 S
O116 C106 1.281 . S
O117 Tb89 2.409 1_565 S
O117 C106 1.254 1_455 S
O118 Tb89 2.378 . S
O118 C107 1.236 1_455 S
O119 Tb88 2.341 . S
O119 C107 1.266 . S
H120 C92 0.929 . S
H121 C93 0.931 . S
H122 C95 0.930 . S
H123 C96 0.930 . S
H124 C101 0.929 . S
H125 C102 0.931 . S
H126 C104 0.930 . S
H127 C105 0.930 . S
Tb128 C130 2.809 . S
Tb128 O148 2.484 . S
Tb128 O149 2.440 . S
Tb128 O150 2.658 1_545 S
Tb128 O151 2.409 1_545 S
Tb128 O152 2.378 . S
Tb128 O156 2.325 . S
Tb128 O159 2.341 . S
Tb129 C139 2.809 1_544 S
Tb129 O150 2.325 1_545 S
Tb129 O153 2.341 . S
Tb129 O154 2.484 1_545 S
Tb129 O155 2.444 1_554 S
Tb129 O156 2.658 . S
Tb129 O157 2.413 . S
Tb129 O158 2.378 . S
C130 Tb128 2.809 . S
C130 C131 1.514 . S
C130 O148 1.248 . S
C130 O149 1.266 . S
C131 C130 1.514 . S
C131 C132 1.359 . S
C131 C136 1.348 . S
C132 C131 1.359 . S
C132 C133 1.380 . S
C132 H160 0.929 . S
C133 C132 1.380 . S
C133 C134 1.347 . S
C133 H161 0.931 . S
C134 C133 1.347 . S
C134 C135 1.369 . S
C135 C134 1.369 . S
C135 C136 1.408 . S
C135 H162 0.930 . S
C136 C131 1.348 . S
C136 C135 1.408 . S
C136 H163 0.930 . S
C137 O150 1.281 . S
C137 O151 1.254 . S
C138 O152 1.236 . S
C138 O153 1.266 . S
C139 Tb129 2.809 1_566 S
C139 C140 1.514 . S
C139 O154 1.248 1_556 S
C139 O155 1.250 1_565 S
C140 C139 1.514 . S
C140 C141 1.359 . S
C140 C145 1.348 . S
C141 C140 1.359 . S
C141 C142 1.380 . S
C141 H164 0.929 . S
C142 C141 1.380 . S
C142 C143 1.347 . S
C142 H165 0.931 . S
C143 C142 1.347 . S
C143 C144 1.369 . S
C144 C143 1.369 . S
C144 C145 1.408 . S
C144 H166 0.930 . S
C145 C140 1.348 . S
C145 C144 1.408 . S
C145 H167 0.930 . S
C146 O156 1.281 . S
C146 O157 1.258 . S
C147 O158 1.236 1_565 S
C147 O159 1.266 1_565 S
O148 Tb128 2.484 . S
O148 C130 1.248 . S
O149 Tb128 2.440 . S
O149 C130 1.266 . S
O150 Tb128 2.658 1_565 S
O150 Tb129 2.325 1_565 S
O150 C137 1.281 . S
O151 Tb128 2.409 1_565 S
O151 C137 1.254 . S
O152 Tb128 2.378 . S
O152 C138 1.236 . S
O153 Tb129 2.341 . S
O153 C138 1.266 . S
O154 Tb129 2.484 1_565 S
O154 C139 1.248 1_554 S
O155 Tb129 2.444 1_556 S
O155 C139 1.250 1_545 S
O156 Tb128 2.325 . S
O156 Tb129 2.658 . S
O156 C146 1.281 . S
O157 Tb129 2.413 . S
O157 C146 1.258 . S
O158 Tb129 2.378 . S
O158 C147 1.236 1_545 S
O159 Tb128 2.341 . S
O159 C147 1.266 1_545 S
H160 C132 0.929 . S
H161 C133 0.931 . S
H162 C135 0.930 . S
H163 C136 0.930 . S
H164 C141 0.929 . S
H165 C142 0.931 . S
H166 C144 0.930 . S
H167 C145 0.930 . S
Tb168 C170 2.809 . S
Tb168 O188 2.484 . S
Tb168 O189 2.440 . S
Tb168 O190 2.658 . S
Tb168 O191 2.409 . S
Tb168 O192 2.378 . S
Tb168 O196 2.325 . S
Tb168 O199 2.341 . S
Tb169 C179 2.809 . S
Tb169 O190 2.325 . S
Tb169 O193 2.341 . S
Tb169 O194 2.484 . S
Tb169 O195 2.440 . S
Tb169 O196 2.658 . S
Tb169 O197 2.409 . S
Tb169 O198 2.378 . S
C170 Tb168 2.809 . S
C170 C171 1.514 . S
C170 O188 1.248 . S
C170 O189 1.266 . S
C171 C170 1.514 . S
C171 C172 1.359 . S
C171 C176 1.348 . S
C172 C171 1.359 . S
C172 C173 1.380 . S
C172 H200 0.929 . S
C173 C172 1.380 . S
C173 C174 1.347 . S
C173 H201 0.931 . S
C174 C173 1.347 . S
C174 C175 1.369 . S
C175 C174 1.369 . S
C175 C176 1.408 . S
C175 H202 0.930 . S
C176 C171 1.348 . S
C176 C175 1.408 . S
C176 H203 0.930 . S
C177 O190 1.281 . S
C177 O191 1.254 . S
C178 O192 1.236 . S
C178 O193 1.266 . S
C179 Tb169 2.809 . S
C179 C180 1.514 . S
C179 O194 1.248 . S
C179 O195 1.266 . S
C180 C179 1.514 . S
C180 C181 1.359 . S
C180 C185 1.348 . S
C181 C180 1.359 . S
C181 C182 1.380 . S
C181 H204 0.929 . S
C182 C181 1.380 . S
C182 C183 1.347 . S
C182 H205 0.931 . S
C183 C182 1.347 . S
C183 C184 1.369 . S
C184 C183 1.369 . S
C184 C185 1.408 . S
C184 H206 0.930 . S
C185 C180 1.348 . S
C185 C184 1.408 . S
C185 H207 0.930 . S
C186 O196 1.281 . S
C186 O197 1.254 . S
C187 O198 1.236 . S
C187 O199 1.266 . S
O188 Tb168 2.484 . S
O188 C170 1.248 . S
O189 Tb168 2.440 . S
O189 C170 1.266 . S
O190 Tb168 2.658 . S
O190 Tb169 2.325 . S
O190 C177 1.281 . S
O191 Tb168 2.409 . S
O191 C177 1.254 . S
O192 Tb168 2.378 . S
O192 C178 1.236 . S
O193 Tb169 2.341 . S
O193 C178 1.266 . S
O194 Tb169 2.484 . S
O194 C179 1.248 . S
O195 Tb169 2.440 . S
O195 C179 1.266 . S
O196 Tb168 2.325 . S
O196 Tb169 2.658 . S
O196 C186 1.281 . S
O197 Tb169 2.409 . S
O197 C186 1.254 . S
O198 Tb169 2.378 . S
O198 C187 1.236 . S
O199 Tb168 2.341 . S
O199 C187 1.266 . S
H200 C172 0.929 . S
H201 C173 0.931 . S
H202 C175 0.930 . S
H203 C176 0.930 . S
H204 C181 0.929 . S
H205 C182 0.931 . S
H206 C184 0.930 . S
H207 C185 0.930 . S
Tb208 C210 2.809 1_455 S
Tb208 O228 2.484 1_455 S
Tb208 O229 2.440 . S
Tb208 O230 2.658 1_556 S
Tb208 O231 2.409 1_556 S
Tb208 O232 2.378 1_556 S
Tb208 O236 2.325 1_455 S
Tb208 O239 2.341 . S
Tb209 C219 2.809 . S
Tb209 O230 2.325 . S
Tb209 O233 2.363 . S
Tb209 O234 2.484 . S
Tb209 O235 2.440 . S
Tb209 O236 2.658 1_454 S
Tb209 O237 2.409 1_455 S
Tb209 O238 2.378 1_554 S
C210 Tb208 2.809 1_655 S
C210 C211 1.514 . S
C210 O228 1.248 . S
C210 O229 1.266 1_655 S
C211 C210 1.514 . S
C211 C212 1.359 . S
C211 C216 1.348 . S
C212 C211 1.359 . S
C212 C213 1.380 . S
C212 H240 0.929 . S
C213 C212 1.380 . S
C213 C214 1.347 . S
C213 H241 0.931 . S
C214 C213 1.347 . S
C214 C215 1.369 . S
C215 C214 1.369 . S
C215 C216 1.408 . S
C215 H242 0.930 . S
C216 C211 1.348 . S
C216 C215 1.408 . S
C216 H243 0.930 1_655 S
C217 O230 1.281 . S
C217 O231 1.254 . S
C218 O232 1.236 1_655 S
C218 O233 1.254 1_655 S
C219 Tb209 2.809 . S
C219 C220 1.514 . S
C219 O234 1.248 . S
C219 O235 1.266 . S
C220 C219 1.514 . S
C220 C221 1.359 . S
C220 C225 1.348 . S
C221 C220 1.359 . S
C221 C222 1.380 . S
C221 H244 0.929 . S
C222 C221 1.380 . S
C222 C223 1.347 . S
C222 H245 0.931 . S
C223 C222 1.347 . S
C223 C224 1.369 . S
C224 C223 1.369 . S
C224 C225 1.408 . S
C224 H246 0.930 . S
C225 C220 1.348 . S
C225 C224 1.408 . S
C225 H247 0.930 . S
C226 O236 1.281 . S
C226 O237 1.254 1_556 S
C227 O238 1.236 . S
C227 O239 1.266 . S
O228 Tb208 2.484 1_655 S
O228 C210 1.248 . S
O229 Tb208 2.440 . S
O229 C210 1.266 1_455 S
O230 Tb208 2.658 1_554 S
O230 Tb209 2.325 . S
O230 C217 1.281 . S
O231 Tb208 2.409 1_554 S
O231 C217 1.254 . S
O232 Tb208 2.378 1_554 S
O232 C218 1.236 1_455 S
O233 Tb209 2.363 . S
O233 C218 1.254 1_455 S
O234 Tb209 2.484 . S
O234 C219 1.248 . S
O235 Tb209 2.440 . S
O235 C219 1.266 . S
O236 Tb208 2.325 1_655 S
O236 Tb209 2.658 1_656 S
O236 C226 1.281 . S
O237 Tb209 2.409 1_655 S
O237 C226 1.254 1_554 S
O238 Tb209 2.378 1_556 S
O238 C227 1.236 . S
O239 Tb208 2.341 . S
O239 C227 1.266 . S
H240 C212 0.929 . S
H241 C213 0.931 . S
H242 C215 0.930 . S
H243 C216 0.930 1_455 S
H244 C221 0.929 . S
H245 C222 0.931 . S
H246 C224 0.930 . S
H247 C225 0.930 . S
H248 C256 0.929 . S
H249 C258 0.930 . S
H250 C260 0.930 . S
H251 C263 0.929 . S
H252 C266 0.930 . S
H253 C268 0.960 . S
H254 C268 0.960 . S
H255 C268 0.960 . S
C256 H248 0.929 . S
C256 C257 1.377 . S
C256 C258 1.384 . S
C257 C256 1.377 . S
C257 C263 1.390 . S
C258 H249 0.930 . S
C258 C256 1.384 . S
C258 C259 1.372 . S
C259 C258 1.372 . S
C259 C260 1.400 . S
C259 C264 1.490 . S
C260 H250 0.930 . S
C260 C259 1.400 . S
C260 C263 1.386 . S
H261 C277 0.930 . S
H262 C278 0.931 . S
C263 H251 0.929 . S
C263 C257 1.390 . S
C263 C260 1.386 . S
C264 C259 1.490 . S
C264 C266 1.395 . S
C264 C267 1.403 . S
H265 C271 0.930 . S
C266 H252 0.930 . S
C266 C264 1.395 . S
C266 C269 1.403 . S
C267 C264 1.403 . S
C267 C268 1.524 . S
C267 C271 1.400 . S
C268 H253 0.960 . S
C268 H254 0.960 . S
C268 H255 0.960 . S
C268 C267 1.524 . S
C269 C266 1.403 . S
C269 C270 1.392 . S
C269 C273 1.495 . S
C270 C269 1.392 . S
C270 C271 1.385 . S
C270 C272 1.478 . S
C271 H265 0.930 . S
C271 C267 1.400 . S
C271 C270 1.385 . S
C272 C270 1.478 . S
C272 C274 1.381 . S
C272 C278 1.383 . S
C273 C269 1.495 . S
C273 H279 0.959 . S
C273 H280 0.961 . S
C273 H281 0.960 . S
C274 C272 1.381 . S
C274 C275 1.394 . S
C274 H282 0.930 . S
C275 C274 1.394 . S
C275 C276 1.383 . S
C275 H283 0.929 . S
C276 C275 1.383 . S
C276 C277 1.377 . S
C277 H261 0.930 . S
C277 C276 1.377 . S
C277 C278 1.379 . S
C278 H262 0.931 . S
C278 C272 1.383 . S
C278 C277 1.379 . S
H279 C273 0.959 . S
H280 C273 0.961 . S
H281 C273 0.960 . S
H282 C274 0.930 . S
H283 C275 0.929 . S
H284 C292 0.929 . S
H285 C294 0.930 . S
H286 C296 0.930 . S
H287 C299 0.929 . S
H288 C302 0.930 . S
H289 C304 0.960 . S
H290 C304 0.960 . S
H291 C304 0.960 . S
C292 H284 0.929 . S
C292 C293 1.377 . S
C292 C294 1.384 . S
C293 C292 1.377 . S
C293 C299 1.390 . S
C294 H285 0.930 . S
C294 C292 1.384 . S
C294 C295 1.372 . S
C295 C294 1.372 . S
C295 C296 1.400 . S
C295 C300 1.490 . S
C296 H286 0.930 . S
C296 C295 1.400 . S
C296 C299 1.386 . S
H297 C313 0.930 . S
H298 C314 0.931 . S
C299 H287 0.929 . S
C299 C293 1.390 . S
C299 C296 1.386 . S
C300 C295 1.490 . S
C300 C302 1.395 . S
C300 C303 1.403 . S
H301 C307 0.930 . S
C302 H288 0.930 . S
C302 C300 1.395 . S
C302 C305 1.403 . S
C303 C300 1.403 . S
C303 C304 1.524 . S
C303 C307 1.400 . S
C304 H289 0.960 . S
C304 H290 0.960 . S
C304 H291 0.960 . S
C304 C303 1.524 . S
C305 C302 1.403 . S
C305 C306 1.392 . S
C305 C309 1.495 . S
C306 C305 1.392 . S
C306 C307 1.385 . S
C306 C308 1.478 . S
C307 H301 0.930 . S
C307 C303 1.400 . S
C307 C306 1.385 . S
C308 C306 1.478 . S
C308 C310 1.381 . S
C308 C314 1.383 . S
C309 C305 1.495 . S
C309 H315 0.959 . S
C309 H316 0.961 . S
C309 H317 0.960 . S
C310 C308 1.381 . S
C310 C311 1.394 . S
C310 H318 0.930 . S
C311 C310 1.394 . S
C311 C312 1.383 . S
C311 H319 0.929 . S
C312 C311 1.383 . S
C312 C313 1.377 . S
C313 H297 0.930 . S
C313 C312 1.377 . S
C313 C314 1.379 . S
C314 H298 0.931 . S
C314 C308 1.383 . S
C314 C313 1.379 . S
H315 C309 0.959 . S
H316 C309 0.961 . S
H317 C309 0.960 . S
H318 C310 0.930 . S
H319 C311 0.929 . S
H320 C328 0.929 . S
H321 C330 0.930 . S
H322 C332 0.930 . S
H323 C335 0.929 . S
H324 C338 0.930 . S
H325 C340 0.960 . S
H326 C340 0.960 . S
H327 C340 0.960 . S
C328 H320 0.929 . S
C328 C329 1.377 . S
C328 C330 1.384 . S
C329 C328 1.377 . S
C329 C335 1.390 . S
C330 H321 0.930 . S
C330 C328 1.384 . S
C330 C331 1.372 . S
C331 C330 1.372 . S
C331 C332 1.400 . S
C331 C336 1.490 . S
C332 H322 0.930 . S
C332 C331 1.400 . S
C332 C335 1.386 . S
H333 C349 0.930 . S
H334 C350 0.931 . S
C335 H323 0.929 . S
C335 C329 1.390 . S
C335 C332 1.386 . S
C336 C331 1.490 . S
C336 C338 1.395 . S
C336 C339 1.403 . S
H337 C343 0.930 . S
C338 H324 0.930 . S
C338 C336 1.395 . S
C338 C341 1.403 . S
C339 C336 1.403 . S
C339 C340 1.524 . S
C339 C343 1.400 . S
C340 H325 0.960 . S
C340 H326 0.960 . S
C340 H327 0.960 . S
C340 C339 1.524 . S
C341 C338 1.403 . S
C341 C342 1.392 . S
C341 C345 1.495 . S
C342 C341 1.392 . S
C342 C343 1.385 . S
C342 C344 1.478 . S
C343 H337 0.930 . S
C343 C339 1.400 . S
C343 C342 1.385 . S
C344 C342 1.478 . S
C344 C346 1.381 . S
C344 C350 1.383 . S
C345 C341 1.495 . S
C345 H351 0.959 . S
C345 H352 0.961 . S
C345 H353 0.960 . S
C346 C344 1.381 . S
C346 C347 1.394 . S
C346 H354 0.930 . S
C347 C346 1.394 . S
C347 C348 1.383 . S
C347 H355 0.929 . S
C348 C347 1.383 . S
C348 C349 1.377 . S
C349 H333 0.930 . S
C349 C348 1.377 . S
C349 C350 1.379 . S
C350 H334 0.931 . S
C350 C344 1.383 . S
C350 C349 1.379 . S
H351 C345 0.959 . S
H352 C345 0.961 . S
H353 C345 0.960 . S
H354 C346 0.930 . S
H355 C347 0.929 . S
H356 C364 0.929 . S
H357 C366 0.930 . S
H358 C368 0.930 . S
H359 C371 0.929 . S
H360 C374 0.930 . S
H361 C376 0.960 . S
H362 C376 0.960 . S
H363 C376 0.960 . S
C364 H356 0.929 . S
C364 C365 1.377 . S
C364 C366 1.384 . S
C365 C364 1.377 . S
C365 C371 1.390 . S
C366 H357 0.930 . S
C366 C364 1.384 . S
C366 C367 1.372 . S
C367 C366 1.372 . S
C367 C368 1.400 . S
C367 C372 1.490 . S
C368 H358 0.930 . S
C368 C367 1.400 . S
C368 C371 1.386 . S
H369 C385 0.930 . S
H370 C386 0.931 . S
C371 H359 0.929 . S
C371 C365 1.390 . S
C371 C368 1.386 . S
C372 C367 1.490 . S
C372 C374 1.395 . S
C372 C375 1.403 . S
H373 C379 0.930 . S
C374 H360 0.930 . S
C374 C372 1.395 . S
C374 C377 1.403 . S
C375 C372 1.403 . S
C375 C376 1.524 . S
C375 C379 1.400 . S
C376 H361 0.960 . S
C376 H362 0.960 . S
C376 H363 0.960 . S
C376 C375 1.524 . S
C377 C374 1.403 . S
C377 C378 1.392 . S
C377 C381 1.495 . S
C378 C377 1.392 . S
C378 C379 1.385 . S
C378 C380 1.478 . S
C379 H373 0.930 . S
C379 C375 1.400 . S
C379 C378 1.385 . S
C380 C378 1.478 . S
C380 C382 1.381 . S
C380 C386 1.383 . S
C381 C377 1.495 . S
C381 H387 0.959 . S
C381 H388 0.961 . S
C381 H389 0.960 . S
C382 C380 1.381 . S
C382 C383 1.394 . S
C382 H390 0.930 . S
C383 C382 1.394 . S
C383 C384 1.383 . S
C383 H391 0.929 1_655 S
C384 C383 1.383 . S
C384 C385 1.377 . S
C385 H369 0.930 . S
C385 C384 1.377 . S
C385 C386 1.379 . S
C386 H370 0.931 . S
C386 C380 1.383 . S
C386 C385 1.379 . S
H387 C381 0.959 . S
H388 C381 0.961 . S
H389 C381 0.960 . S
H390 C382 0.930 . S
H391 C383 0.929 1_455 S
H392 C400 0.929 . S
H393 C402 0.930 . S
H394 C404 0.930 . S
H395 C407 0.929 . S
H396 C410 0.930 . S
H397 C412 0.960 . S
H398 C412 0.960 . S
H399 C412 0.960 . S
C400 H392 0.929 . S
C400 C401 1.377 . S
C400 C402 1.384 . S
C401 C400 1.377 . S
C401 C407 1.390 . S
C402 H393 0.930 . S
C402 C400 1.384 . S
C402 C403 1.372 . S
C403 C402 1.372 . S
C403 C404 1.400 . S
C403 C408 1.490 . S
C404 H394 0.930 . S
C404 C403 1.400 . S
C404 C407 1.386 . S
H405 C421 0.930 . S
H406 C422 0.931 . S
C407 H395 0.929 . S
C407 C401 1.390 . S
C407 C404 1.386 . S
C408 C403 1.490 . S
C408 C410 1.395 . S
C408 C411 1.403 . S
H409 C415 0.930 . S
C410 H396 0.930 . S
C410 C408 1.395 . S
C410 C413 1.403 . S
C411 C408 1.403 . S
C411 C412 1.524 . S
C411 C415 1.400 . S
C412 H397 0.960 . S
C412 H398 0.960 . S
C412 H399 0.960 . S
C412 C411 1.524 . S
C413 C410 1.403 . S
C413 C414 1.392 . S
C413 C417 1.495 . S
C414 C413 1.392 . S
C414 C415 1.385 . S
C414 C416 1.478 . S
C415 H409 0.930 . S
C415 C411 1.400 . S
C415 C414 1.385 . S
C416 C414 1.478 . S
C416 C418 1.381 . S
C416 C422 1.383 . S
C417 C413 1.495 . S
C417 H423 0.959 . S
C417 H424 0.961 . S
C417 H425 0.960 . S
C418 C416 1.381 . S
C418 C419 1.394 . S
C418 H426 0.930 . S
C419 C418 1.394 . S
C419 C420 1.383 . S
C419 H427 0.929 . S
C420 C419 1.383 . S
C420 C421 1.377 . S
C421 H405 0.930 . S
C421 C420 1.377 . S
C421 C422 1.379 . S
C422 H406 0.931 . S
C422 C416 1.383 . S
C422 C421 1.379 . S
H423 C417 0.959 . S
H424 C417 0.961 . S
H425 C417 0.960 . S
H426 C418 0.930 . S
H427 C419 0.929 . S
H428 C436 0.929 . S
H429 C438 0.930 . S
H430 C440 0.930 . S
H431 C443 0.929 . S
H432 C446 0.930 . S
H433 C448 0.960 . S
H434 C448 0.960 . S
H435 C448 0.960 . S
C436 H428 0.929 . S
C436 C437 1.377 . S
C436 C438 1.384 . S
C437 C436 1.377 . S
C437 C443 1.390 . S
C438 H429 0.930 . S
C438 C436 1.384 . S
C438 C439 1.372 . S
C439 C438 1.372 . S
C439 C440 1.400 . S
C439 C444 1.490 . S
C440 H430 0.930 . S
C440 C439 1.400 . S
C440 C443 1.386 . S
H441 C457 0.930 . S
H442 C458 0.931 . S
C443 H431 0.929 . S
C443 C437 1.390 . S
C443 C440 1.386 . S
C444 C439 1.490 . S
C444 C446 1.395 . S
C444 C447 1.403 . S
H445 C451 0.930 . S
C446 H432 0.930 . S
C446 C444 1.395 . S
C446 C449 1.403 . S
C447 C444 1.403 . S
C447 C448 1.524 . S
C447 C451 1.400 . S
C448 H433 0.960 . S
C448 H434 0.960 . S
C448 H435 0.960 . S
C448 C447 1.524 . S
C449 C446 1.403 . S
C449 C450 1.392 . S
C449 C453 1.495 . S
C450 C449 1.392 . S
C450 C451 1.385 . S
C450 C452 1.478 . S
C451 H445 0.930 . S
C451 C447 1.400 . S
C451 C450 1.385 . S
C452 C450 1.478 . S
C452 C454 1.381 . S
C452 C458 1.383 . S
C453 C449 1.495 . S
C453 H459 0.959 1_455 S
C453 H460 0.961 1_455 S
C453 H461 0.960 . S
C454 C452 1.381 . S
C454 C455 1.394 . S
C454 H462 0.930 . S
C455 C454 1.394 . S
C455 C456 1.383 . S
C455 H463 0.929 . S
C456 C455 1.383 . S
C456 C457 1.377 . S
C457 H441 0.930 . S
C457 C456 1.377 . S
C457 C458 1.379 . S
C458 H442 0.931 . S
C458 C452 1.383 . S
C458 C457 1.379 . S
H459 C453 0.959 1_655 S
H460 C453 0.961 1_655 S
H461 C453 0.960 . S
H462 C454 0.930 . S
H463 C455 0.929 . S
H464 C472 0.929 . S
H465 C474 0.930 . S
H466 C476 0.930 . S
H467 C479 0.929 . S
H468 C482 0.930 . S
H469 C484 0.960 . S
H470 C484 0.960 . S
H471 C484 0.960 . S
C472 H464 0.929 . S
C472 C473 1.377 . S
C472 C474 1.384 . S
C473 C472 1.377 . S
C473 C479 1.390 . S
C474 H465 0.930 . S
C474 C472 1.384 . S
C474 C475 1.372 . S
C475 C474 1.372 . S
C475 C476 1.400 . S
C475 C480 1.490 . S
C476 H466 0.930 . S
C476 C475 1.400 . S
C476 C479 1.386 . S
H477 C493 0.943 . S
H478 C494 0.931 . S
C479 H467 0.929 . S
C479 C473 1.390 . S
C479 C476 1.386 . S
C480 C475 1.490 . S
C480 C482 1.395 . S
C480 C483 1.403 . S
H481 C487 0.930 . S
C482 H468 0.930 . S
C482 C480 1.395 . S
C482 C485 1.403 . S
C483 C480 1.403 . S
C483 C484 1.524 . S
C483 C487 1.400 . S
C484 H469 0.960 . S
C484 H470 0.960 . S
C484 H471 0.960 . S
C484 C483 1.524 . S
C485 C482 1.403 . S
C485 C486 1.392 . S
C485 C489 1.495 . S
C486 C485 1.392 . S
C486 C487 1.385 . S
C486 C488 1.478 . S
C487 H481 0.930 . S
C487 C483 1.400 . S
C487 C486 1.385 . S
C488 C486 1.478 . S
C488 C490 1.381 . S
C488 C494 1.383 . S
C489 C485 1.495 . S
C489 H495 0.959 . S
C489 H496 0.961 . S
C489 H497 0.960 . S
C490 C488 1.381 . S
C490 C491 1.394 . S
C490 H498 0.930 . S
C491 C490 1.394 . S
C491 C492 1.383 . S
C491 H499 0.929 . S
C492 C491 1.383 . S
C492 C493 1.377 . S
C493 H477 0.943 . S
C493 C492 1.377 . S
C493 C494 1.379 . S
C494 H478 0.931 . S
C494 C488 1.383 . S
C494 C493 1.379 . S
H495 C489 0.959 . S
H496 C489 0.961 . S
H497 C489 0.960 . S
H498 C490 0.930 . S
H499 C491 0.929 . S
H500 C508 0.929 . S
H501 C510 0.930 . S
H502 C512 0.930 . S
H503 C515 0.929 . S
H504 C518 0.930 . S
H505 C520 0.960 . S
H506 C520 0.960 . S
H507 C520 0.960 . S
C508 H500 0.929 . S
C508 C509 1.377 . S
C508 C510 1.384 . S
C509 C508 1.377 . S
C509 C515 1.390 . S
C510 H501 0.930 . S
C510 C508 1.384 . S
C510 C511 1.372 . S
C511 C510 1.372 . S
C511 C512 1.400 . S
C511 C516 1.490 . S
C512 H502 0.930 . S
C512 C511 1.400 . S
C512 C515 1.386 . S
H513 C529 0.930 . S
H514 C530 0.931 . S
C515 H503 0.929 . S
C515 C509 1.390 . S
C515 C512 1.386 . S
C516 C511 1.490 . S
C516 C518 1.395 . S
C516 C519 1.403 . S
H517 C523 0.930 . S
C518 H504 0.930 . S
C518 C516 1.395 . S
C518 C521 1.403 . S
C519 C516 1.403 . S
C519 C520 1.524 . S
C519 C523 1.400 . S
C520 H505 0.960 . S
C520 H506 0.960 . S
C520 H507 0.960 . S
C520 C519 1.524 . S
C521 C518 1.403 . S
C521 C522 1.392 . S
C521 C525 1.495 . S
C522 C521 1.392 . S
C522 C523 1.385 . S
C522 C524 1.478 . S
C523 H517 0.930 . S
C523 C519 1.400 . S
C523 C522 1.385 . S
C524 C522 1.478 . S
C524 C526 1.381 . S
C524 C530 1.383 . S
C525 C521 1.495 . S
C525 H531 0.959 . S
C525 H532 0.961 . S
C525 H533 0.960 . S
C526 C524 1.381 . S
C526 C527 1.394 . S
C526 H534 0.930 . S
C527 C526 1.394 . S
C527 C528 1.383 . S
C527 H535 0.929 . S
C528 C527 1.383 . S
C528 C529 1.377 . S
C529 H513 0.930 . S
C529 C528 1.377 . S
C529 C530 1.379 . S
C530 H514 0.931 . S
C530 C524 1.383 . S
C530 C529 1.379 . S
H531 C525 0.959 . S
H532 C525 0.961 . S
H533 C525 0.960 . S
H534 C526 0.930 . S
H535 C527 0.929 . S
H536 C544 0.929 . S
H537 C546 0.930 . S
H538 C548 0.930 . S
H539 C551 0.929 . S
H540 C554 0.930 . S
H541 C556 0.960 . S
H542 C556 0.960 . S
H543 C556 0.960 . S
C544 H536 0.929 . S
C544 C545 1.377 . S
C544 C546 1.384 . S
C545 C544 1.377 . S
C545 C551 1.390 . S
C546 H537 0.930 . S
C546 C544 1.384 . S
C546 C547 1.372 . S
C547 C546 1.372 . S
C547 C548 1.400 . S
C547 C552 1.490 . S
C548 H538 0.930 . S
C548 C547 1.400 . S
C548 C551 1.386 . S
H549 C565 0.930 . S
H550 C566 0.931 . S
C551 H539 0.929 . S
C551 C545 1.390 . S
C551 C548 1.386 . S
C552 C547 1.490 . S
C552 C554 1.395 . S
C552 C555 1.403 . S
H553 C559 0.930 . S
C554 H540 0.930 . S
C554 C552 1.395 . S
C554 C557 1.403 . S
C555 C552 1.403 . S
C555 C556 1.524 . S
C555 C559 1.400 . S
C556 H541 0.960 . S
C556 H542 0.960 . S
C556 H543 0.960 . S
C556 C555 1.524 . S
C557 C554 1.403 . S
C557 C558 1.392 . S
C557 C561 1.495 . S
C558 C557 1.392 . S
C558 C559 1.385 . S
C558 C560 1.478 . S
C559 H553 0.930 . S
C559 C555 1.400 . S
C559 C558 1.385 . S
C560 C558 1.478 . S
C560 C562 1.381 . S
C560 C566 1.383 . S
C561 C557 1.495 . S
C561 H567 0.959 . S
C561 H568 0.961 . S
C561 H569 0.960 . S
C562 C560 1.381 . S
C562 C563 1.394 . S
C562 H570 0.930 . S
C563 C562 1.394 . S
C563 C564 1.383 . S
C563 H571 0.929 . S
C564 C563 1.383 . S
C564 C565 1.377 . S
C565 H549 0.930 . S
C565 C564 1.377 . S
C565 C566 1.379 . S
C566 H550 0.931 . S
C566 C560 1.383 . S
C566 C565 1.379 . S
H567 C561 0.959 . S
H568 C561 0.961 . S
H569 C561 0.960 . S
H570 C562 0.930 . S
H571 C563 0.929 . S
H572 C580 0.929 . S
H573 C582 0.930 . S
H574 C584 0.930 . S
H575 C587 0.929 . S
H576 C590 0.930 . S
H577 C592 0.960 . S
H578 C592 0.960 . S
H579 C592 0.960 . S
C580 H572 0.929 . S
C580 C581 1.377 . S
C580 C582 1.384 . S
C581 C580 1.377 . S
C581 C587 1.390 . S
C582 H573 0.930 . S
C582 C580 1.384 . S
C582 C583 1.372 . S
C583 C582 1.372 . S
C583 C584 1.400 . S
C583 C588 1.490 . S
C584 H574 0.930 . S
C584 C583 1.400 . S
C584 C587 1.386 . S
H585 C601 0.930 . S
H586 C602 0.931 . S
C587 H575 0.929 . S
C587 C581 1.390 . S
C587 C584 1.386 . S
C588 C583 1.490 . S
C588 C590 1.395 . S
C588 C591 1.403 . S
H589 C595 0.930 . S
C590 H576 0.930 . S
C590 C588 1.395 . S
C590 C593 1.403 . S
C591 C588 1.403 . S
C591 C592 1.524 . S
C591 C595 1.400 . S
C592 H577 0.960 . S
C592 H578 0.960 . S
C592 H579 0.960 . S
C592 C591 1.524 . S
C593 C590 1.403 . S
C593 C594 1.392 . S
C593 C597 1.495 . S
C594 C593 1.392 . S
C594 C595 1.385 . S
C594 C596 1.478 . S
C595 H589 0.930 . S
C595 C591 1.400 . S
C595 C594 1.385 . S
C596 C594 1.478 . S
C596 C598 1.381 . S
C596 C602 1.383 . S
C597 C593 1.495 . S
C597 H603 0.959 . S
C597 H604 0.961 . S
C597 H605 0.960 . S
C598 C596 1.381 . S
C598 C599 1.394 . S
C598 H606 0.930 . S
C599 C598 1.394 . S
C599 C600 1.383 . S
C599 H607 0.929 . S
C600 C599 1.383 . S
C600 C601 1.377 1_556 S
C601 H585 0.930 . S
C601 C600 1.377 1_554 S
C601 C602 1.379 1_554 S
C602 H586 0.931 . S
C602 C596 1.383 . S
C602 C601 1.379 1_556 S
H603 C597 0.959 . S
H604 C597 0.961 . S
H605 C597 0.960 . S
H606 C598 0.930 . S
H607 C599 0.929 . S
H608 C616 0.929 . S
H609 C618 0.930 . S
H610 C620 0.930 . S
H611 C623 0.929 . S
H612 C626 0.930 . S
H613 C628 0.960 . S
H614 C628 0.960 . S
H615 C628 0.960 . S
C616 H608 0.929 . S
C616 C617 1.377 . S
C616 C618 1.384 . S
C617 C616 1.377 . S
C617 C623 1.390 . S
C618 H609 0.930 . S
C618 C616 1.384 . S
C618 C619 1.372 . S
C619 C618 1.372 . S
C619 C620 1.400 . S
C619 C624 1.490 . S
C620 H610 0.930 . S
C620 C619 1.400 . S
C620 C623 1.386 . S
H621 C637 0.930 . S
H622 C638 0.931 . S
C623 H611 0.929 . S
C623 C617 1.390 . S
C623 C620 1.386 . S
C624 C619 1.490 . S
C624 C626 1.395 . S
C624 C627 1.403 . S
H625 C631 0.930 . S
C626 H612 0.930 . S
C626 C624 1.395 . S
C626 C629 1.403 . S
C627 C624 1.403 . S
C627 C628 1.524 . S
C627 C631 1.400 . S
C628 H613 0.960 . S
C628 H614 0.960 . S
C628 H615 0.960 . S
C628 C627 1.524 . S
C629 C626 1.403 . S
C629 C630 1.392 . S
C629 C633 1.495 . S
C630 C629 1.392 . S
C630 C631 1.385 . S
C630 C632 1.478 . S
C631 H625 0.930 . S
C631 C627 1.400 . S
C631 C630 1.385 . S
C632 C630 1.478 . S
C632 C634 1.381 . S
C632 C638 1.383 . S
C633 C629 1.495 . S
C633 H639 0.959 . S
C633 H640 0.961 . S
C633 H641 0.960 . S
C634 C632 1.381 . S
C634 C635 1.394 . S
C634 H642 0.930 . S
C635 C634 1.394 . S
C635 C636 1.383 . S
C635 H643 0.929 . S
C636 C635 1.383 . S
C636 C637 1.377 . S
C637 H621 0.930 . S
C637 C636 1.377 . S
C637 C638 1.379 . S
C638 H622 0.931 . S
C638 C632 1.383 . S
C638 C637 1.379 . S
H639 C633 0.959 . S
H640 C633 0.961 . S
H641 C633 0.960 . S
H642 C634 0.930 . S
H643 C635 0.929 . S
H644 C652 0.929 . S
H645 C654 0.930 . S
H646 C656 0.930 . S
H647 C659 0.929 . S
H648 C662 0.930 . S
H649 C664 0.960 . S
H650 C664 0.960 . S
H651 C664 0.960 . S
C652 H644 0.929 . S
C652 C653 1.377 . S
C652 C654 1.384 . S
C653 C652 1.377 . S
C653 C659 1.390 . S
C654 H645 0.930 . S
C654 C652 1.384 . S
C654 C655 1.372 . S
C655 C654 1.372 . S
C655 C656 1.400 . S
C655 C660 1.490 . S
C656 H646 0.930 . S
C656 C655 1.400 . S
C656 C659 1.386 . S
H657 C673 0.930 . S
H658 C674 0.931 . S
C659 H647 0.929 . S
C659 C653 1.390 . S
C659 C656 1.386 . S
C660 C655 1.490 . S
C660 C662 1.395 . S
C660 C663 1.403 . S
H661 C667 0.930 . S
C662 H648 0.930 . S
C662 C660 1.395 . S
C662 C665 1.403 . S
C663 C660 1.403 . S
C663 C664 1.524 . S
C663 C667 1.400 . S
C664 H649 0.960 . S
C664 H650 0.960 . S
C664 H651 0.960 . S
C664 C663 1.524 . S
C665 C662 1.403 . S
C665 C666 1.392 . S
C665 C669 1.495 . S
C666 C665 1.392 . S
C666 C667 1.385 . S
C666 C668 1.478 . S
C667 H661 0.930 . S
C667 C663 1.400 . S
C667 C666 1.385 . S
C668 C666 1.478 . S
C668 C670 1.381 . S
C668 C674 1.383 . S
C669 C665 1.495 . S
C669 H675 0.959 . S
C669 H676 0.961 . S
C669 H677 0.960 . S
C670 C668 1.381 . S
C670 C671 1.394 . S
C670 H678 0.930 . S
C671 C670 1.394 . S
C671 C672 1.383 . S
C671 H679 0.929 . S
C672 C671 1.383 . S
C672 C673 1.377 . S
C673 H657 0.930 . S
C673 C672 1.377 . S
C673 C674 1.379 . S
C674 H658 0.931 . S
C674 C668 1.383 . S
C674 C673 1.379 . S
H675 C669 0.959 . S
H676 C669 0.961 . S
H677 C669 0.960 . S
H678 C670 0.930 . S
H679 C671 0.929 . S
H680 C688 0.929 . S
H681 C690 0.930 . S
H682 C692 0.930 . S
H683 C695 0.929 . S
H684 C698 0.930 . S
H685 C700 0.960 . S
H686 C700 0.960 . S
H687 C700 0.960 . S
C688 H680 0.929 . S
C688 C689 1.377 . S
C688 C690 1.384 . S
C689 C688 1.377 . S
C689 C695 1.390 . S
C690 H681 0.930 . S
C690 C688 1.384 . S
C690 C691 1.372 . S
C691 C690 1.372 . S
C691 C692 1.400 . S
C691 C696 1.490 . S
C692 H682 0.930 . S
C692 C691 1.400 . S
C692 C695 1.386 . S
H693 C709 0.930 . S
H694 C710 0.931 . S
C695 H683 0.929 . S
C695 C689 1.390 . S
C695 C692 1.386 . S
C696 C691 1.490 . S
C696 C698 1.395 . S
C696 C699 1.403 . S
H697 C703 0.930 . S
C698 H684 0.930 . S
C698 C696 1.395 . S
C698 C701 1.403 . S
C699 C696 1.403 . S
C699 C700 1.524 . S
C699 C703 1.400 . S
C700 H685 0.960 . S
C700 H686 0.960 . S
C700 H687 0.960 . S
C700 C699 1.524 . S
C701 C698 1.403 . S
C701 C702 1.392 . S
C701 C705 1.495 . S
C702 C701 1.392 . S
C702 C703 1.385 . S
C702 C704 1.478 . S
C703 H697 0.930 . S
C703 C699 1.400 . S
C703 C702 1.385 . S
C704 C702 1.478 . S
C704 C706 1.381 . S
C704 C710 1.383 . S
C705 C701 1.495 . S
C705 H711 0.959 . S
C705 H712 0.961 . S
C705 H713 0.960 . S
C706 C704 1.381 . S
C706 C707 1.394 . S
C706 H714 0.930 . S
C707 C706 1.394 . S
C707 C708 1.383 . S
C707 H715 0.929 . S
C708 C707 1.383 . S
C708 C709 1.377 . S
C709 H693 0.930 . S
C709 C708 1.377 . S
C709 C710 1.379 . S
C710 H694 0.931 . S
C710 C704 1.383 . S
C710 C709 1.379 . S
H711 C705 0.959 . S
H712 C705 0.961 . S
H713 C705 0.960 . S
H714 C706 0.930 . S
H715 C707 0.929 . S
H716 C724 0.929 . S
H717 C726 0.930 . S
H718 C728 0.930 . S
H719 C731 0.929 . S
H720 C734 0.930 . S
H721 C736 0.960 . S
H722 C736 0.960 . S
H723 C736 0.960 . S
C724 H716 0.929 . S
C724 C725 1.377 . S
C724 C726 1.384 . S
C725 C724 1.377 . S
C725 C731 1.390 . S
C726 H717 0.930 . S
C726 C724 1.384 . S
C726 C727 1.372 . S
C727 C726 1.372 . S
C727 C728 1.400 . S
C727 C732 1.490 . S
C728 H718 0.930 . S
C728 C727 1.400 . S
C728 C731 1.386 . S
H729 C745 0.930 . S
H730 C746 0.931 . S
C731 H719 0.929 . S
C731 C725 1.390 . S
C731 C728 1.386 . S
C732 C727 1.490 . S
C732 C734 1.395 . S
C732 C735 1.403 . S
H733 C739 0.930 . S
C734 H720 0.930 . S
C734 C732 1.395 . S
C734 C737 1.403 . S
C735 C732 1.403 . S
C735 C736 1.524 . S
C735 C739 1.400 . S
C736 H721 0.960 . S
C736 H722 0.960 . S
C736 H723 0.960 . S
C736 C735 1.524 . S
C737 C734 1.403 . S
C737 C738 1.392 . S
C737 C741 1.495 . S
C738 C737 1.392 . S
C738 C739 1.385 . S
C738 C740 1.478 . S
C739 H733 0.930 . S
C739 C735 1.400 . S
C739 C738 1.385 . S
C740 C738 1.478 . S
C740 C742 1.381 . S
C740 C746 1.383 . S
C741 C737 1.495 . S
C741 H747 0.959 . S
C741 H748 0.961 . S
C741 H749 0.960 . S
C742 C740 1.381 . S
C742 C743 1.394 . S
C742 H750 0.930 . S
C743 C742 1.394 . S
C743 C744 1.383 . S
C743 H751 0.929 . S
C744 C743 1.383 . S
C744 C745 1.377 . S
C745 H729 0.930 . S
C745 C744 1.377 . S
C745 C746 1.379 . S
C746 H730 0.931 . S
C746 C740 1.383 . S
C746 C745 1.379 . S
H747 C741 0.959 . S
H748 C741 0.961 . S
H749 C741 0.960 . S
H750 C742 0.930 . S
H751 C743 0.929 . S
H752 C760 0.929 . S
H753 C762 0.930 . S
H754 C764 0.930 . S
H755 C767 0.929 . S
H756 C770 0.930 . S
H757 C772 0.960 . S
H758 C772 0.960 . S
H759 C772 0.960 . S
C760 H752 0.929 . S
C760 C761 1.377 . S
C760 C762 1.384 . S
C761 C760 1.377 . S
C761 C767 1.390 . S
C762 H753 0.930 . S
C762 C760 1.384 . S
C762 C763 1.372 . S
C763 C762 1.372 . S
C763 C764 1.400 . S
C763 C768 1.490 . S
C764 H754 0.930 . S
C764 C763 1.400 . S
C764 C767 1.386 . S
H765 C781 0.930 . S
H766 C782 0.931 . S
C767 H755 0.929 . S
C767 C761 1.390 . S
C767 C764 1.386 . S
C768 C763 1.490 . S
C768 C770 1.395 . S
C768 C771 1.403 . S
H769 C775 0.930 . S
C770 H756 0.930 . S
C770 C768 1.395 . S
C770 C773 1.403 . S
C771 C768 1.403 . S
C771 C772 1.524 . S
C771 C775 1.400 . S
C772 H757 0.960 . S
C772 H758 0.960 . S
C772 H759 0.960 . S
C772 C771 1.524 . S
C773 C770 1.403 . S
C773 C774 1.392 . S
C773 C777 1.495 . S
C774 C773 1.392 . S
C774 C775 1.385 . S
C774 C776 1.478 . S
C775 H769 0.930 . S
C775 C771 1.400 . S
C775 C774 1.385 . S
C776 C774 1.478 . S
C776 C778 1.381 . S
C776 C782 1.383 . S
C777 C773 1.495 . S
C777 H783 0.959 . S
C777 H784 0.961 . S
C777 H785 0.960 . S
C778 C776 1.381 . S
C778 C779 1.394 . S
C778 H786 0.930 . S
C779 C778 1.394 . S
C779 C780 1.383 . S
C779 H787 0.929 . S
C780 C779 1.383 . S
C780 C781 1.377 . S
C781 H765 0.930 . S
C781 C780 1.377 . S
C781 C782 1.379 . S
C782 H766 0.931 . S
C782 C776 1.383 . S
C782 C781 1.379 . S
H783 C777 0.959 . S
H784 C777 0.961 . S
H785 C777 0.960 . S
H786 C778 0.930 . S
H787 C779 0.929 . S
H788 C796 0.929 . S
H789 C798 0.930 . S
H790 C800 0.930 . S
H791 C803 0.929 . S
H792 C806 0.930 . S
H793 C808 0.960 . S
H794 C808 0.960 . S
H795 C808 0.960 . S
C796 H788 0.929 . S
C796 C797 1.377 . S
C796 C798 1.384 . S
C797 C796 1.377 . S
C797 C803 1.390 . S
C798 H789 0.930 . S
C798 C796 1.384 . S
C798 C799 1.372 . S
C799 C798 1.372 . S
C799 C800 1.400 . S
C799 C804 1.490 . S
C800 H790 0.930 . S
C800 C799 1.400 . S
C800 C803 1.386 . S
H801 C817 0.930 . S
H802 C818 0.931 . S
C803 H791 0.929 . S
C803 C797 1.390 . S
C803 C800 1.386 . S
C804 C799 1.490 . S
C804 C806 1.395 . S
C804 C807 1.403 . S
H805 C811 0.930 . S
C806 H792 0.930 . S
C806 C804 1.395 . S
C806 C809 1.403 . S
C807 C804 1.403 . S
C807 C808 1.524 . S
C807 C811 1.400 . S
C808 H793 0.960 . S
C808 H794 0.960 . S
C808 H795 0.960 . S
C808 C807 1.524 . S
C809 C806 1.403 . S
C809 C810 1.392 . S
C809 C813 1.495 . S
C810 C809 1.392 . S
C810 C811 1.385 . S
C810 C812 1.478 . S
C811 H805 0.930 . S
C811 C807 1.400 . S
C811 C810 1.385 . S
C812 C810 1.478 . S
C812 C814 1.381 . S
C812 C818 1.383 . S
C813 C809 1.495 . S
C813 H819 0.959 . S
C813 H820 0.961 . S
C813 H821 0.960 . S
C814 C812 1.381 . S
C814 C815 1.394 . S
C814 H822 0.930 . S
C815 C814 1.394 . S
C815 C816 1.383 . S
C815 H823 0.929 . S
C816 C815 1.383 . S
C816 C817 1.377 . S
C817 H801 0.930 . S
C817 C816 1.377 . S
C817 C818 1.379 . S
C818 H802 0.931 . S
C818 C812 1.383 . S
C818 C817 1.379 . S
H819 C813 0.959 . S
H820 C813 0.961 . S
H821 C813 0.960 . S
H822 C814 0.930 . S
H823 C815 0.929 . S
H824 C832 0.929 . S
H825 C834 0.930 . S
H826 C836 0.930 . S
H827 C839 0.929 . S
H828 C842 0.930 . S
H829 C844 0.960 . S
H830 C844 0.960 . S
H831 C844 0.960 . S
C832 H824 0.929 . S
C832 C833 1.377 . S
C832 C834 1.384 . S
C833 C832 1.377 . S
C833 C839 1.390 . S
C834 H825 0.930 . S
C834 C832 1.384 . S
C834 C835 1.372 . S
C835 C834 1.372 . S
C835 C836 1.400 . S
C835 C840 1.490 . S
C836 H826 0.930 . S
C836 C835 1.400 . S
C836 C839 1.386 . S
H837 C853 0.930 . S
H838 C854 0.931 . S
C839 H827 0.929 . S
C839 C833 1.390 . S
C839 C836 1.386 . S
C840 C835 1.490 . S
C840 C842 1.395 . S
C840 C843 1.403 . S
H841 C847 0.930 . S
C842 H828 0.930 . S
C842 C840 1.395 . S
C842 C845 1.403 . S
C843 C840 1.403 . S
C843 C844 1.524 . S
C843 C847 1.400 . S
C844 H829 0.960 . S
C844 H830 0.960 . S
C844 H831 0.960 . S
C844 C843 1.524 . S
C845 C842 1.403 . S
C845 C846 1.392 . S
C845 C849 1.495 . S
C846 C845 1.392 . S
C846 C847 1.385 . S
C846 C848 1.478 . S
C847 H841 0.930 . S
C847 C843 1.400 . S
C847 C846 1.385 . S
C848 C846 1.478 . S
C848 C850 1.381 1_556 S
C848 C854 1.383 . S
C849 C845 1.495 . S
C849 H855 0.959 . S
C849 H856 0.961 . S
C849 H857 0.960 1_556 S
C850 C848 1.381 1_554 S
C850 C851 1.394 . S
C850 H858 0.930 . S
C851 C850 1.394 . S
C851 C852 1.383 . S
C851 H859 0.929 . S
C852 C851 1.383 . S
C852 C853 1.377 1_554 S
C853 H837 0.930 . S
C853 C852 1.377 1_556 S
C853 C854 1.379 . S
C854 H838 0.931 . S
C854 C848 1.383 . S
C854 C853 1.379 . S
H855 C849 0.959 . S
H856 C849 0.961 . S
H857 C849 0.960 1_554 S
H858 C850 0.930 . S
H859 C851 0.929 . S
H860 C868 0.929 . S
H861 C870 0.930 . S
H862 C872 0.930 . S
H863 C875 0.929 . S
H864 C878 0.930 . S
H865 C880 0.960 . S
H866 C880 0.960 . S
H867 C880 0.960 . S
C868 H860 0.929 . S
C868 C869 1.377 . S
C868 C870 1.384 . S
C869 C868 1.377 . S
C869 C875 1.390 . S
C870 H861 0.930 . S
C870 C868 1.384 . S
C870 C871 1.372 . S
C871 C870 1.372 . S
C871 C872 1.400 . S
C871 C876 1.490 . S
C872 H862 0.930 . S
C872 C871 1.400 . S
C872 C875 1.386 . S
H873 C889 0.930 1_455 S
H874 C890 0.931 . S
C875 H863 0.929 . S
C875 C869 1.390 . S
C875 C872 1.386 . S
C876 C871 1.490 . S
C876 C878 1.395 . S
C876 C879 1.403 . S
H877 C883 0.930 . S
C878 H864 0.930 . S
C878 C876 1.395 . S
C878 C881 1.403 . S
C879 C876 1.403 . S
C879 C880 1.524 . S
C879 C883 1.400 . S
C880 H865 0.960 . S
C880 H866 0.960 . S
C880 H867 0.960 . S
C880 C879 1.524 . S
C881 C878 1.403 . S
C881 C882 1.392 . S
C881 C885 1.495 . S
C882 C881 1.392 . S
C882 C883 1.385 . S
C882 C884 1.478 . S
C883 H877 0.930 . S
C883 C879 1.400 . S
C883 C882 1.385 . S
C884 C882 1.478 . S
C884 C886 1.381 . S
C884 C890 1.383 . S
C885 C881 1.495 . S
C885 H891 0.959 . S
C885 H892 0.961 . S
C885 H893 0.960 . S
C886 C884 1.381 . S
C886 C887 1.394 . S
C886 H894 0.930 . S
C887 C886 1.394 . S
C887 C888 1.383 . S
C887 H895 0.929 . S
C888 C887 1.383 . S
C888 C889 1.377 . S
C889 H873 0.930 1_655 S
C889 C888 1.377 . S
C889 C890 1.379 . S
C890 H874 0.931 . S
C890 C884 1.383 . S
C890 C889 1.379 . S
H891 C885 0.959 . S
H892 C885 0.961 . S
H893 C885 0.960 . S
H894 C886 0.930 . S
H895 C887 0.929 . S
H896 C904 0.929 . S
H897 C906 0.930 . S
H898 C908 0.930 . S
H899 C911 0.929 . S
H900 C914 0.930 . S
H901 C916 0.960 . S
H902 C916 0.960 . S
H903 C916 0.960 . S
C904 H896 0.929 . S
C904 C905 1.377 . S
C904 C906 1.384 . S
C905 C904 1.377 . S
C905 C911 1.390 . S
C906 H897 0.930 . S
C906 C904 1.384 . S
C906 C907 1.372 . S
C907 C906 1.372 . S
C907 C908 1.400 . S
C907 C912 1.490 . S
C908 H898 0.930 . S
C908 C907 1.400 . S
C908 C911 1.386 . S
H909 C925 0.930 . S
H910 C926 0.931 . S
C911 H899 0.929 . S
C911 C905 1.390 . S
C911 C908 1.386 . S
C912 C907 1.490 . S
C912 C914 1.395 . S
C912 C915 1.403 . S
H913 C919 0.930 . S
C914 H900 0.930 . S
C914 C912 1.395 . S
C914 C917 1.403 . S
C915 C912 1.403 . S
C915 C916 1.524 . S
C915 C919 1.400 . S
C916 H901 0.960 . S
C916 H902 0.960 . S
C916 H903 0.960 . S
C916 C915 1.524 . S
C917 C914 1.403 . S
C917 C918 1.392 . S
C917 C921 1.495 . S
C918 C917 1.392 . S
C918 C919 1.385 . S
C918 C920 1.478 . S
C919 H913 0.930 . S
C919 C915 1.400 . S
C919 C918 1.385 . S
C920 C918 1.478 . S
C920 C922 1.381 . S
C920 C926 1.383 . S
C921 C917 1.495 . S
C921 H927 0.959 . S
C921 H928 0.961 . S
C921 H929 0.960 . S
C922 C920 1.381 . S
C922 C923 1.394 . S
C922 H930 0.930 . S
C923 C922 1.394 . S
C923 C924 1.383 . S
C923 H931 0.929 . S
C924 C923 1.383 . S
C924 C925 1.377 . S
C925 H909 0.930 . S
C925 C924 1.377 . S
C925 C926 1.379 . S
C926 H910 0.931 . S
C926 C920 1.383 . S
C926 C925 1.379 . S
H927 C921 0.959 . S
H928 C921 0.961 . S
H929 C921 0.960 . S
H930 C922 0.930 . S
H931 C923 0.929 . S
H932 C940 0.929 . S
H933 C942 0.930 . S
H934 C944 0.930 . S
H935 C947 0.929 . S
H936 C950 0.930 . S
H937 C952 0.960 . S
H938 C952 0.960 . S
H939 C952 0.960 . S
C940 H932 0.929 . S
C940 C941 1.377 . S
C940 C942 1.384 . S
C941 C940 1.377 . S
C941 C947 1.390 . S
C942 H933 0.930 . S
C942 C940 1.384 . S
C942 C943 1.372 . S
C943 C942 1.372 . S
C943 C944 1.400 . S
C943 C948 1.490 . S
C944 H934 0.930 . S
C944 C943 1.400 . S
C944 C947 1.386 . S
H945 C961 0.930 . S
H946 C962 0.931 . S
C947 H935 0.929 . S
C947 C941 1.390 . S
C947 C944 1.386 . S
C948 C943 1.490 . S
C948 C950 1.395 . S
C948 C951 1.403 . S
H949 C955 0.930 . S
C950 H936 0.930 . S
C950 C948 1.395 . S
C950 C953 1.403 . S
C951 C948 1.403 . S
C951 C952 1.524 . S
C951 C955 1.400 . S
C952 H937 0.960 . S
C952 H938 0.960 . S
C952 H939 0.960 . S
C952 C951 1.524 . S
C953 C950 1.403 . S
C953 C954 1.392 . S
C953 C957 1.495 . S
C954 C953 1.392 . S
C954 C955 1.385 . S
C954 C956 1.478 . S
C955 H949 0.930 . S
C955 C951 1.400 . S
C955 C954 1.385 . S
C956 C954 1.478 . S
C956 C958 1.381 . S
C956 C962 1.383 . S
C957 C953 1.495 . S
C957 H963 0.959 . S
C957 H964 0.961 . S
C957 H965 0.960 . S
C958 C956 1.381 . S
C958 C959 1.394 . S
C958 H966 0.930 . S
C959 C958 1.394 . S
C959 C960 1.383 . S
C959 H967 0.929 . S
C960 C959 1.383 . S
C960 C961 1.377 . S
C961 H945 0.930 . S
C961 C960 1.377 . S
C961 C962 1.379 . S
C962 H946 0.931 . S
C962 C956 1.383 . S
C962 C961 1.379 . S
H963 C957 0.959 . S
H964 C957 0.961 . S
H965 C957 0.960 . S
H966 C958 0.930 . S
H967 C959 0.929 . S
H968 C976 0.929 . S
H969 C978 0.930 . S
H970 C980 0.930 . S
H971 C983 0.929 . S
H972 C986 0.930 . S
H973 C988 0.960 . S
H974 C988 0.960 . S
H975 C988 0.960 . S
C976 H968 0.929 . S
C976 C977 1.377 . S
C976 C978 1.384 . S
C977 C976 1.377 . S
C977 C983 1.390 . S
C978 H969 0.930 . S
C978 C976 1.384 . S
C978 C979 1.372 . S
C979 C978 1.372 . S
C979 C980 1.400 . S
C979 C984 1.490 . S
C980 H970 0.930 . S
C980 C979 1.400 . S
C980 C983 1.386 . S
H981 C997 0.930 . S
H982 C998 0.931 . S
C983 H971 0.929 . S
C983 C977 1.390 . S
C983 C980 1.386 . S
C984 C979 1.490 . S
C984 C986 1.395 . S
C984 C987 1.403 . S
H985 C991 0.930 . S
C986 H972 0.930 . S
C986 C984 1.395 . S
C986 C989 1.403 . S
C987 C984 1.403 . S
C987 C988 1.524 . S
C987 C991 1.400 . S
C988 H973 0.960 . S
C988 H974 0.960 . S
C988 H975 0.960 . S
C988 C987 1.524 . S
C989 C986 1.403 . S
C989 C990 1.392 . S
C989 C993 1.495 . S
C990 C989 1.392 . S
C990 C991 1.385 . S
C990 C992 1.478 . S
C991 H985 0.930 . S
C991 C987 1.400 . S
C991 C990 1.385 . S
C992 C990 1.478 . S
C992 C994 1.381 . S
C992 C998 1.383 . S
C993 C989 1.495 . S
C993 H999 0.959 . S
C993 H1000 0.961 . S
C993 H1001 0.960 . S
C994 C992 1.381 . S
C994 C995 1.394 . S
C994 H1002 0.930 . S
C995 C994 1.394 . S
C995 C996 1.383 . S
C995 H1003 0.929 . S
C996 C995 1.383 . S
C996 C997 1.377 . S
C997 H981 0.930 . S
C997 C996 1.377 . S
C997 C998 1.379 . S
C998 H982 0.931 . S
C998 C992 1.383 . S
C998 C997 1.379 . S
H999 C993 0.959 . S
H1000 C993 0.961 . S
H1001 C993 0.960 . S
H1002 C994 0.930 . S
H1003 C995 0.929 . S
H1004 C1012 0.929 . S
H1005 C1014 0.930 . S
H1006 C1016 0.930 . S
H1007 C1019 0.929 . S
H1008 C1022 0.930 . S
H1009 C1024 0.960 . S
H1010 C1024 0.960 . S
H1011 C1024 0.960 . S
C1012 H1004 0.929 . S
C1012 C1013 1.377 . S
C1012 C1014 1.384 . S
C1013 C1012 1.377 . S
C1013 C1019 1.390 . S
C1014 H1005 0.930 . S
C1014 C1012 1.384 . S
C1014 C1015 1.372 . S
C1015 C1014 1.372 . S
C1015 C1016 1.400 . S
C1015 C1020 1.490 . S
C1016 H1006 0.930 . S
C1016 C1015 1.400 . S
C1016 C1019 1.386 . S
H1017 C1033 0.930 . S
H1018 C1034 0.931 . S
C1019 H1007 0.929 . S
C1019 C1013 1.390 . S
C1019 C1016 1.386 . S
C1020 C1015 1.490 . S
C1020 C1022 1.395 . S
C1020 C1023 1.403 . S
H1021 C1027 0.930 . S
C1022 H1008 0.930 . S
C1022 C1020 1.395 . S
C1022 C1025 1.403 . S
C1023 C1020 1.403 . S
C1023 C1024 1.524 . S
C1023 C1027 1.400 . S
C1024 H1009 0.960 . S
C1024 H1010 0.960 . S
C1024 H1011 0.960 . S
C1024 C1023 1.524 . S
C1025 C1022 1.403 . S
C1025 C1026 1.392 . S
C1025 C1029 1.495 . S
C1026 C1025 1.392 . S
C1026 C1027 1.385 . S
C1026 C1028 1.478 . S
C1027 H1021 0.930 . S
C1027 C1023 1.400 . S
C1027 C1026 1.385 . S
C1028 C1026 1.478 . S
C1028 C1030 1.381 . S
C1028 C1034 1.383 . S
C1029 C1025 1.495 . S
C1029 H1035 0.959 . S
C1029 H1036 0.961 . S
C1029 H1037 0.960 . S
C1030 C1028 1.381 . S
C1030 C1031 1.394 . S
C1030 H1038 0.930 . S
C1031 C1030 1.394 . S
C1031 C1032 1.383 . S
C1031 H1039 0.929 . S
C1032 C1031 1.383 . S
C1032 C1033 1.377 . S
C1033 H1017 0.930 . S
C1033 C1032 1.377 . S
C1033 C1034 1.379 . S
C1034 H1018 0.931 . S
C1034 C1028 1.383 . S
C1034 C1033 1.379 . S
H1035 C1029 0.959 . S
H1036 C1029 0.961 . S
H1037 C1029 0.960 . S
H1038 C1030 0.930 . S
H1039 C1031 0.929 . S
H1040 C1048 0.929 . S
H1041 C1050 0.930 . S
H1042 C1052 0.930 . S
H1043 C1055 0.929 . S
H1044 C1058 0.930 . S
H1045 C1060 0.960 . S
H1046 C1060 0.960 . S
H1047 C1060 0.960 . S
C1048 H1040 0.929 . S
C1048 C1049 1.377 . S
C1048 C1050 1.384 . S
C1049 C1048 1.377 . S
C1049 C1055 1.390 . S
C1050 H1041 0.930 . S
C1050 C1048 1.384 . S
C1050 C1051 1.372 . S
C1051 C1050 1.372 . S
C1051 C1052 1.400 . S
C1051 C1056 1.490 . S
C1052 H1042 0.930 . S
C1052 C1051 1.400 . S
C1052 C1055 1.386 . S
H1053 C1069 0.930 . S
H1054 C1070 0.931 . S
C1055 H1043 0.929 . S
C1055 C1049 1.390 . S
C1055 C1052 1.386 . S
C1056 C1051 1.490 . S
C1056 C1058 1.395 . S
C1056 C1059 1.403 . S
H1057 C1063 0.930 . S
C1058 H1044 0.930 . S
C1058 C1056 1.395 . S
C1058 C1061 1.403 . S
C1059 C1056 1.403 . S
C1059 C1060 1.524 . S
C1059 C1063 1.400 . S
C1060 H1045 0.960 . S
C1060 H1046 0.960 . S
C1060 H1047 0.960 . S
C1060 C1059 1.524 . S
C1061 C1058 1.403 . S
C1061 C1062 1.392 . S
C1061 C1065 1.495 . S
C1062 C1061 1.392 . S
C1062 C1063 1.385 . S
C1062 C1064 1.478 . S
C1063 H1057 0.930 . S
C1063 C1059 1.400 . S
C1063 C1062 1.385 . S
C1064 C1062 1.478 . S
C1064 C1066 1.381 . S
C1064 C1070 1.383 . S
C1065 C1061 1.495 . S
C1065 H1071 0.959 . S
C1065 H1072 0.961 . S
C1065 H1073 0.960 . S
C1066 C1064 1.381 . S
C1066 C1067 1.394 . S
C1066 H1074 0.930 . S
C1067 C1066 1.394 . S
C1067 C1068 1.383 . S
C1067 H1075 0.929 . S
C1068 C1067 1.383 . S
C1068 C1069 1.377 . S
C1069 H1053 0.930 . S
C1069 C1068 1.377 . S
C1069 C1070 1.379 . S
C1070 H1054 0.931 . S
C1070 C1064 1.383 . S
C1070 C1069 1.379 . S
H1071 C1065 0.959 . S
H1072 C1065 0.961 . S
H1073 C1065 0.960 . S
H1074 C1066 0.930 . S
H1075 C1067 0.929 . S
H1076 C1084 0.929 . S
H1077 C1086 0.930 . S
H1078 C1088 0.930 . S
H1079 C1091 0.929 . S
H1080 C1094 0.930 . S
H1081 C1096 0.960 . S
H1082 C1096 0.960 . S
H1083 C1096 0.960 . S
C1084 H1076 0.929 . S
C1084 C1085 1.377 . S
C1084 C1086 1.384 . S
C1085 C1084 1.377 . S
C1085 C1091 1.390 . S
C1086 H1077 0.930 . S
C1086 C1084 1.384 . S
C1086 C1087 1.372 . S
C1087 C1086 1.372 . S
C1087 C1088 1.400 . S
C1087 C1092 1.490 . S
C1088 H1078 0.930 . S
C1088 C1087 1.400 . S
C1088 C1091 1.386 . S
H1089 C1105 0.930 . S
H1090 C1106 0.931 . S
C1091 H1079 0.929 . S
C1091 C1085 1.390 . S
C1091 C1088 1.386 . S
C1092 C1087 1.490 . S
C1092 C1094 1.395 . S
C1092 C1095 1.403 . S
H1093 C1099 0.930 . S
C1094 H1080 0.930 . S
C1094 C1092 1.395 . S
C1094 C1097 1.403 . S
C1095 C1092 1.403 . S
C1095 C1096 1.524 . S
C1095 C1099 1.400 . S
C1096 H1081 0.960 . S
C1096 H1082 0.960 . S
C1096 H1083 0.960 . S
C1096 C1095 1.524 . S
C1097 C1094 1.403 . S
C1097 C1098 1.392 . S
C1097 C1101 1.495 . S
C1098 C1097 1.392 . S
C1098 C1099 1.385 . S
C1098 C1100 1.478 . S
C1099 H1093 0.930 . S
C1099 C1095 1.400 . S
C1099 C1098 1.385 . S
C1100 C1098 1.478 . S
C1100 C1102 1.381 . S
C1100 C1106 1.383 . S
C1101 C1097 1.495 . S
C1101 H1107 0.959 . S
C1101 H1108 0.961 . S
C1101 H1109 0.960 . S
C1102 C1100 1.381 . S
C1102 C1103 1.394 . S
C1102 H1110 0.930 . S
C1103 C1102 1.394 . S
C1103 C1104 1.383 . S
C1103 H1111 0.929 . S
C1104 C1103 1.383 . S
C1104 C1105 1.377 . S
C1105 H1089 0.930 . S
C1105 C1104 1.377 . S
C1105 C1106 1.379 . S
C1106 H1090 0.931 . S
C1106 C1100 1.383 . S
C1106 C1105 1.379 . S
H1107 C1101 0.959 . S
H1108 C1101 0.961 . S
H1109 C1101 0.960 . S
H1110 C1102 0.930 . S
H1111 C1103 0.929 . S
C257 C4 1.300 . S
C276 C103 1.305 . S
C293 C16 1.290 . S
C312 C143 1.332 . S
C348 C177 1.726 . S
C329 C32 1.700 . S
C365 C43 2.522 . S
C384 C218 2.465 . S
C420 C138 2.023 . S
C401 C5 1.985 . S
C456 C98 1.735 . S
C437 C21 1.664 . S
C492 C226 1.352 . S
C473 C27 1.380 . S
C528 C187 1.641 . S
C509 C37 1.684 . S
C545 C10 1.112 . S
C564 C223 1.127 . S
C600 C146 2.173 1_556 S
C581 C26 2.238 . S
C617 C38 2.078 . S
C636 C106 2.024 . S
C653 C15 1.703 . S
C672 C174 1.755 . S
C708 C94 1.519 . S
C689 C48 1.498 . S
C725 C59 0.973 . S
C744 C134 0.980 . S
C761 C76 2.047 . S
C780 C186 1.991 . S
C797 C87 2.224 . S
C816 C227 2.156 . S
C833 C54 1.172 . S
C852 C147 1.175 . S
C888 C107 2.546 . S
C869 C60 2.480 . S
C924 C217 1.373 . S
C905 C71 1.347 . S
C960 C178 1.637 . S
C941 C82 1.644 . S
C977 C49 1.517 . S
C996 C214 1.531 . S
C1032 C137 1.519 . S
C1013 C70 1.583 . S
C1068 C97 2.513 . S
C1049 C81 2.609 . S
C1085 C65 1.404 . S
C1104 C183 1.417 . S
