# Generated by pormake.
# Topology pyr, (3,6)-cn, num edge types: 1
# Building blocks:
#     Node 0, Type 0, BuildingBlock: BETDAH_clean_linker_0, # of connection points: 3
#     Node 1, Type 0, BuildingBlock: BETDAH_clean_linker_0, # of connection points: 3
#     Node 2, Type 0, BuildingBlock: BETDAH_clean_linker_0, # of connection points: 3
#     Node 3, Type 0, BuildingBlock: BETDAH_clean_linker_0, # of connection points: 3
#     Node 4, Type 0, BuildingBlock: BETDAH_clean_linker_0, # of connection points: 3
#     Node 5, Type 0, BuildingBlock: BETDAH_clean_linker_0, # of connection points: 3
#     Node 6, Type 0, BuildingBlock: BETDAH_clean_linker_0, # of connection points: 3
#     Node 7, Type 0, BuildingBlock: BETDAH_clean_linker_0, # of connection points: 3
#     Node 8, Type 1, BuildingBlock: JUFBIX_clean_sbu_0, # of connection points: 6
#     Node 9, Type 1, BuildingBlock: JUFBIX_clean_sbu_0, # of connection points: 6
#     Node 10, Type 1, BuildingBlock: JUFBIX_clean_sbu_0, # of connection points: 6
#     Node 11, Type 1, BuildingBlock: JUFBIX_clean_sbu_0, # of connection points: 6
#     Edge 12, Type (0, 1), BuildingBlock: OJICUG_clean_linker_0, # of connection points: 2
#     Edge 13, Type (0, 1), BuildingBlock: OJICUG_clean_linker_0, # of connection points: 2
#     Edge 14, Type (0, 1), BuildingBlock: OJICUG_clean_linker_0, # of connection points: 2
#     Edge 15, Type (0, 1), BuildingBlock: OJICUG_clean_linker_0, # of connection points: 2
#     Edge 16, Type (0, 1), BuildingBlock: OJICUG_clean_linker_0, # of connection points: 2
#     Edge 17, Type (0, 1), BuildingBlock: OJICUG_clean_linker_0, # of connection points: 2
#     Edge 18, Type (0, 1), BuildingBlock: OJICUG_clean_linker_0, # of connection points: 2
#     Edge 19, Type (0, 1), BuildingBlock: OJICUG_clean_linker_0, # of connection points: 2
#     Edge 20, Type (0, 1), BuildingBlock: OJICUG_clean_linker_0, # of connection points: 2
#     Edge 21, Type (0, 1), BuildingBlock: OJICUG_clean_linker_0, # of connection points: 2
#     Edge 22, Type (0, 1), BuildingBlock: OJICUG_clean_linker_0, # of connection points: 2
#     Edge 23, Type (0, 1), BuildingBlock: OJICUG_clean_linker_0, # of connection points: 2
#     Edge 24, Type (0, 1), BuildingBlock: OJICUG_clean_linker_0, # of connection points: 2
#     Edge 25, Type (0, 1), BuildingBlock: OJICUG_clean_linker_0, # of connection points: 2
#     Edge 26, Type (0, 1), BuildingBlock: OJICUG_clean_linker_0, # of connection points: 2
#     Edge 27, Type (0, 1), BuildingBlock: OJICUG_clean_linker_0, # of connection points: 2
#     Edge 28, Type (0, 1), BuildingBlock: OJICUG_clean_linker_0, # of connection points: 2
#     Edge 29, Type (0, 1), BuildingBlock: OJICUG_clean_linker_0, # of connection points: 2
#     Edge 30, Type (0, 1), BuildingBlock: OJICUG_clean_linker_0, # of connection points: 2
#     Edge 31, Type (0, 1), BuildingBlock: OJICUG_clean_linker_0, # of connection points: 2
#     Edge 32, Type (0, 1), BuildingBlock: OJICUG_clean_linker_0, # of connection points: 2
#     Edge 33, Type (0, 1), BuildingBlock: OJICUG_clean_linker_0, # of connection points: 2
#     Edge 34, Type (0, 1), BuildingBlock: OJICUG_clean_linker_0, # of connection points: 2
#     Edge 35, Type (0, 1), BuildingBlock: OJICUG_clean_linker_0, # of connection points: 2
# Relax obj value: 0.169
# Max RMSD: 0.213
# Mean RMSD: 0.128
data_MOF--net-pry--node1-JUFBIX_clean_sbu_0--node2-BETDAH_clean_linker_0--edge1-OJICUG_clean_linker_0
_symmetry_space_group_name_H-M    P1
_symmetry_Int_Tables_number       1
_symmetry_cell_setting            triclinic
loop_
_symmetry_equiv_pos_as_xyz
'x, y, z'
_cell_length_a     26.74799
_cell_length_b     24.867367
_cell_length_c     27.468368
_cell_angle_alpha  80.389538
_cell_angle_beta   87.11796
_cell_angle_gamma 96.24141
loop_
_atom_site_label
_atom_site_type_symbol
_atom_site_fract_x
_atom_site_fract_y
_atom_site_fract_z
_atom_type_partial_charge
H0 H 0.27059 0.10306 0.27808 0.0
H1 H 0.29161 0.23075 0.14973 0.0
H2 H 0.17724 0.23569 0.26326 0.0
C3 C 0.26002 0.14067 0.2574 0.0
C4 C 0.22031 0.16612 0.27683 0.0
C5 C 0.28535 0.16289 0.21077 0.0
C6 C 0.27137 0.21176 0.18462 0.0
C7 C 0.23245 0.23777 0.20288 0.0
C8 C 0.20647 0.21466 0.24867 0.0
N9 N 0.22372 0.28909 0.1751 0.0
C10 C 0.18023 0.31514 0.17636 0.0
H11 H 0.51105 0.84775 0.76181 0.0
H12 H 0.49628 0.016 0.69957 0.0
H13 H 0.52921 0.9037 0.60378 0.0
C14 C 0.51227 0.88038 0.73008 0.0
C15 C 0.52199 0.86928 0.68191 0.0
C16 C 0.50334 0.93367 0.73692 0.0
C17 C 0.50355 0.97499 0.69514 0.0
C18 C 0.51315 0.96407 0.6474 0.0
C19 C 0.5234 0.9119 0.64108 0.0
N20 N 0.50712 1.00353 0.60529 0.0
C21 C 0.46111 0.02397 0.60074 0.0
H22 H 0.75491 0.34351 1.02958 0.0
H23 H 0.7623 0.50528 0.94323 0.0
H24 H 0.63337 0.38863 0.93861 0.0
C25 C 0.73806 0.37307 1.00384 0.0
C26 C 0.69054 0.3586 0.98616 0.0
C27 C 0.76449 0.42555 0.98761 0.0
C28 C 0.74298 0.46405 0.9546 0.0
C29 C 0.6965 0.45061 0.93642 0.0
C30 C 0.67034 0.39786 0.95168 0.0
N31 N 0.67475 0.49286 0.90684 0.0
C32 C 0.65927 0.4894 0.85995 0.0
H33 H 0.94095 0.74469 0.55299 0.0
H34 H 0.08407 0.69145 0.51868 0.0
H35 H 0.94699 0.58765 0.50842 0.0
C36 C 0.96245 0.71305 0.54315 0.0
C37 C 0.93718 0.66423 0.53269 0.0
C38 C 1.01526 0.72332 0.53795 0.0
C39 C 0.04343 0.6829 0.52493 0.0
C40 C 1.01878 0.63404 0.51406 0.0
C41 C 0.96578 0.62457 0.51863 0.0
N42 N 0.04703 0.59864 0.49162 0.0
C43 C 0.03237 0.58326 0.44765 0.0
H44 H 0.97531 0.85962 0.86022 0.0
H45 H 0.86869 0.87984 0.97789 0.0
H46 H 0.89014 0.99718 0.84286 0.0
C47 C 0.94686 0.88164 0.87476 0.0
C48 C 0.93418 0.92932 0.84483 0.0
C49 C 0.92346 0.86249 0.92303 0.0
C50 C 0.88707 0.89305 0.94116 0.0
C51 C 0.87534 0.94177 0.91205 0.0
C52 C 0.89894 0.95919 0.86447 0.0
N53 N 0.84365 0.97748 0.93023 0.0
C54 C 0.8011 0.96302 0.96321 0.0
H55 H 0.70396 0.12583 0.40887 0.0
H56 H 0.69638 0.17197 0.55295 0.0
H57 H 0.57609 0.19917 0.45671 0.0
C58 C 0.68497 0.14434 0.43657 0.0
C59 C 0.63813 0.16254 0.42741 0.0
C60 C 0.70626 0.147 0.48178 0.0
C61 C 0.6809 0.17042 0.51743 0.0
C62 C 0.63481 0.19082 0.50796 0.0
C63 C 0.61304 0.18639 0.46298 0.0
N64 N 0.60894 0.21099 0.54601 0.0
C65 C 0.5923 0.26251 0.53896 0.0
H66 H 0.32016 0.75869 0.13868 0.0
H67 H 0.2773 0.61197 0.24547 0.0
H68 H 0.41615 0.71202 0.25658 0.0
C69 C 0.32866 0.7302 0.1707 0.0
C70 C 0.37298 0.74108 0.19486 0.0
C71 C 0.29381 0.68407 0.18879 0.0
C72 C 0.30375 0.64809 0.23134 0.0
C73 C 0.34736 0.65813 0.2562 0.0
C74 C 0.38197 0.70475 0.23795 0.0
N75 N 0.35522 0.61962 0.29873 0.0
C76 C 0.38862 0.62855 0.33467 0.0
H77 H 0.17084 0.36935 0.60437 0.0
H78 H 0.1189 0.49614 0.67382 0.0
H79 H 1.01108 0.37353 0.63297 0.0
C80 C 0.1395 0.38916 0.61652 0.0
C81 C 0.08954 0.36534 0.61483 0.0
C82 C 0.15001 0.43644 0.63735 0.0
C83 C 0.11041 0.45998 0.65733 0.0
C84 C 0.06027 0.43687 0.65635 0.0
C85 C 0.04994 0.39074 0.63374 0.0
N86 N 1.02018 0.45731 0.68069 0.0
C87 C 0.02812 0.48308 0.7213 0.0
Co88 Co 0.03633 0.05013 0.54403 0.0
C89 C 0.07537 0.94893 0.54742 0.0
Co90 Co 0.11041 0.04522 0.57478 0.0
C91 C 0.9337 0.07065 0.5285 0.0
C92 C 0.96389 0.02671 0.4753 0.0
N93 N 0.9755 0.04917 0.5153 0.0
N94 N 0.89638 0.06225 0.49837 0.0
C95 C 0.91527 0.03454 0.46489 0.0
H96 H 0.9307 0.09187 0.55969 0.0
H97 H 0.98939 0.00649 0.45467 0.0
C98 C 0.07038 0.14632 0.57062 0.0
N99 N 0.17109 0.04781 0.60403 0.0
C100 C 0.2169 0.0374 0.58771 0.0
C101 C 0.1788 0.06705 0.64644 0.0
N102 N 0.25289 0.04959 0.61837 0.0
C103 C 0.22878 0.06816 0.65535 0.0
C104 C 0.11913 0.0821 0.47309 0.0
O105 O 0.03235 0.12262 0.55391 0.0
O106 O 0.10785 0.12038 0.58122 0.0
O107 O 0.14459 0.06921 0.51033 0.0
O108 O 0.07123 0.07756 0.47973 0.0
O109 O 0.1125 0.96999 0.56793 0.0
H110 H 0.15011 0.08122 0.6687 0.0
H111 H 0.22363 0.02184 0.55376 0.0
O112 O 0.04028 0.97759 0.5344 0.0
O113 O 1.00197 0.02271 0.60842 0.0
O114 O 0.0758 0.02068 0.63897 0.0
C115 C 0.02803 0.01249 0.64571 0.0
H116 H 0.8958 0.02211 0.43423 0.0
H117 H 0.24616 0.08334 0.68592 0.0
Co118 Co 0.52115 0.0443 0.05345 0.0
C119 C 0.49611 0.94704 0.11955 0.0
Co120 Co 0.55498 0.04478 0.12512 0.0
C121 C 0.5014 1.00565 0.96183 0.0
C122 C 0.46857 0.07951 0.96654 0.0
N123 N 0.49512 0.04261 0.992 0.0
N124 N 0.48014 0.01812 0.91833 0.0
C125 C 0.45931 0.06464 0.92142 0.0
H126 H 0.52174 0.97052 0.97153 0.0
H127 H 0.45784 0.11572 0.9794 0.0
C128 C 0.58033 0.14253 0.05882 0.0
N129 N 0.58049 0.04526 0.18633 0.0
C130 C 0.57964 0.08493 0.21443 0.0
C131 C 0.59711 1.00264 0.21554 0.0
N132 N 0.59402 0.06815 0.26025 0.0
C133 C 0.60517 0.01651 0.26116 0.0
C134 C 0.61718 0.00764 0.05726 0.0
O135 O 0.55263 0.11792 1.03098 0.0
O136 O 0.58613 0.11789 0.10228 0.0
O137 O 0.61426 0.01708 0.1014 0.0
O138 O 0.58062 0.01684 1.03039 0.0
O139 O 0.52337 0.97187 0.14736 0.0
H140 H 0.60116 0.96325 0.20497 0.0
H141 H 0.5663 0.12425 0.20241 0.0
O142 O 0.49037 0.9713 0.07604 0.0
O143 O 0.46128 0.07188 0.07818 0.0
O144 O 0.49599 0.07192 0.1487 0.0
C145 C 0.45871 0.08042 0.12276 0.0
H146 H 0.44036 0.08769 0.89243 0.0
H147 H 0.61762 0.99052 0.29281 0.0
Co148 Co 0.57723 0.58577 0.57097 0.0
C149 C 0.49564 0.59841 0.51141 0.0
Co150 Co 0.50297 0.55192 0.60948 0.0
C151 C 0.68602 0.60718 0.54922 0.0
C152 C 0.64543 0.66039 0.50068 0.0
N153 N 0.6388 0.61747 0.53848 0.0
N154 N 0.72171 0.64233 0.51992 0.0
C155 C 0.69605 0.6755 0.48909 0.0
H156 H 0.69406 0.57603 0.57932 0.0
H157 H 0.61547 0.68079 0.4835 0.0
C158 C 0.58315 0.53808 0.66903 0.0
N159 N 0.44125 0.52054 0.64229 0.0
C160 C 0.39435 0.52818 0.62861 0.0
C161 C 0.43373 0.48208 0.68383 0.0
N162 N 0.35837 0.49626 0.65986 0.0
C163 C 0.38293 0.46741 0.69484 0.0
C164 C 0.55137 0.47768 0.56311 0.0
O165 O 0.60982 0.56366 0.63083 0.0
O166 O 0.5359 0.52906 0.66683 0.0
O167 O 0.51157 0.48411 0.5879 0.0
O168 O 0.58592 0.51786 0.55128 0.0
O169 O 0.47057 0.57527 0.55121 0.0
H170 H 0.46306 0.46386 0.70402 0.0
H171 H 0.3864 0.55573 0.59586 0.0
O172 O 0.54339 0.607 0.51141 0.0
O173 O 0.56835 0.65338 0.59156 0.0
O174 O 0.49554 0.61991 0.63144 0.0
C175 C 0.5306 0.65959 0.61924 0.0
H176 H 0.71252 0.70902 0.46056 0.0
H177 H 0.36546 0.4358 0.72462 0.0
Co178 Co 0.04822 0.57703 1.03758 0.0
C179 C 0.94927 0.52391 0.05097 0.0
Co180 Co 1.00876 0.57952 0.10935 0.0
C181 C 0.06369 0.54306 0.94345 0.0
C182 C 0.10921 0.61818 0.94738 0.0
N183 N 0.07786 0.57706 0.97506 0.0
N184 N 0.08341 0.56215 0.89672 0.0
C185 C 0.11274 0.60914 0.89933 0.0
H186 H 0.03711 0.50649 0.95409 0.0
H187 H 0.12517 0.65466 0.96031 0.0
C188 C 0.10822 0.62976 0.09849 0.0
N189 N 0.97897 0.58039 0.1713 0.0
C190 C 1.00158 0.57244 0.21428 0.0
C191 C 0.93163 0.58922 0.18399 0.0
N192 N 0.97051 0.57623 0.25349 0.0
C193 C 0.92633 0.58681 0.23452 0.0
C194 C 0.06297 0.48844 0.10774 0.0
O195 O 0.10878 0.61534 0.05615 0.0
O196 O 0.06741 0.6204 0.12572 0.0
O197 O 0.03621 0.51225 0.13535 0.0
O198 O 0.07209 0.50967 0.06232 0.0
O199 O 0.95007 0.53762 0.09342 0.0
H200 H 0.90301 0.59725 0.15815 0.0
H201 H 0.04068 0.56542 0.21643 0.0
O202 O 0.9878 0.53826 1.02079 0.0
O203 O 0.02393 0.64408 1.01229 0.0
O204 O 0.9818 0.64744 0.08192 0.0
C205 C 0.99416 0.66788 1.03656 0.0
H206 H 0.13232 0.63731 0.86823 0.0
H207 H 0.89255 0.5925 0.2555 0.0
C208 C 0.22159 0.12289 0.36711 0.0
C209 C 0.19418 0.1431 0.32691 0.0
H210 H 0.21989 0.08844 0.44432 0.0
C211 C 0.14167 0.14227 0.33532 0.0
H212 H 0.26208 0.12338 0.36238 0.0
C213 C 0.11739 0.12212 0.38241 0.0
C214 C 0.14489 0.10255 0.4227 0.0
H215 H 0.11913 0.15689 0.30531 0.0
H216 H 0.07697 0.12226 0.38726 0.0
C217 C 0.19736 0.10313 0.41431 0.0
C218 C 0.45297 0.97735 0.79562 0.0
C219 C 0.49332 0.94761 0.78691 0.0
H220 H 0.41647 0.02187 0.84429 0.0
C221 C 0.52674 0.93696 0.82424 0.0
H222 H 0.42613 0.9855 0.76786 0.0
C223 C 0.52157 0.95845 0.86815 0.0
C224 C 0.48266 0.99081 0.87573 0.0
H225 H 0.55838 0.91447 0.81841 0.0
H226 H 0.54944 0.95169 0.89502 0.0
C227 C 0.44764 0.99852 0.83941 0.0
C228 C 0.59358 0.47527 0.80284 0.0
C229 C 0.64293 0.49501 0.81045 0.0
H230 H 0.53616 0.47304 0.75192 0.0
C231 C 0.67429 0.52574 0.77073 0.0
H232 H 0.56882 0.45182 0.83327 0.0
C233 C 0.65573 0.53824 0.72388 0.0
C234 C 0.60541 0.52048 0.71651 0.0
H235 H 0.71252 0.54168 0.77631 0.0
H236 H 0.68011 0.56337 0.69406 0.0
C237 C 0.57497 0.48779 0.75627 0.0
C238 C 0.03963 0.54782 0.3692 0.0
C239 C 1.01414 0.57641 0.40041 0.0
H240 H 0.0449 0.52416 0.29793 0.0
C241 C 0.97258 0.60231 0.38413 0.0
H242 H 0.07191 0.52769 0.38132 0.0
C243 C 0.9573 0.60092 0.33643 0.0
C244 C 0.98353 0.57371 0.30412 0.0
H245 H 0.95274 0.625 0.40779 0.0
H246 H 0.92614 0.62291 0.32437 0.0
C247 C 0.02436 0.5463 0.32142 0.0
C248 C 0.33139 0.13418 0.1383 0.0
C249 C 0.32766 0.13725 0.18919 0.0
H250 H 0.37501 0.11392 0.07746 0.0
C251 C 0.36659 0.11956 0.21808 0.0
H252 H 0.30191 0.14698 0.11491 0.0
C253 C 0.40874 0.10103 0.19645 0.0
C254 C 0.413 0.09908 0.14535 0.0
H255 H 0.36534 0.12178 0.25716 0.0
H256 H 0.43832 0.08865 0.21989 0.0
C257 C 0.37334 0.11517 0.11673 0.0
C258 C 0.38184 0.03994 0.56158 0.0
C259 C 0.40983 0.03582 0.60347 0.0
H260 H 0.30944 0.04834 0.53327 0.0
C261 C 0.38633 0.0371 0.64977 0.0
H262 H 0.39957 0.03831 0.52559 0.0
C263 C 0.33497 0.04169 0.65451 0.0
C264 C 0.30613 0.04535 0.61288 0.0
H265 H 0.40737 0.03309 0.6826 0.0
H266 H 0.31777 0.04097 0.69113 0.0
C267 C 0.33026 0.04491 0.56618 0.0
C268 C 0.81894 0.4448 0.05565 0.0
C269 C 0.81406 0.44229 1.00544 0.0
H270 H 0.8656 0.47339 0.10956 0.0
C271 C 0.85501 0.46311 0.97104 0.0
H272 H 0.78756 0.42952 0.08268 0.0
C273 C 0.89952 0.48791 0.98621 0.0
C274 C 0.90371 0.49315 1.03605 0.0
H275 H 0.85192 0.46177 0.93206 0.0
H276 H 0.92994 0.50476 0.95851 0.0
C277 C 0.86334 0.47036 0.07083 0.0
C278 C 0.85198 0.60736 0.54802 0.0
C279 C 0.88142 0.65796 0.53057 0.0
H280 H 0.77802 0.56249 0.55806 0.0
C281 C 0.85738 0.70285 0.50939 0.0
H282 H 0.86938 0.572 0.56454 0.0
C283 C 0.80532 0.69758 0.50609 0.0
C284 C 0.77565 0.64714 0.5235 0.0
H285 H 0.87889 0.74215 0.49458 0.0
H286 H 0.7884 0.73348 0.49023 0.0
C287 C 0.7996 0.60204 0.54464 0.0
C288 C 0.13161 0.36241 0.11295 0.0
C289 C 0.14277 0.35186 0.16268 0.0
H290 H 0.09747 0.41358 0.05672 0.0
C291 C 0.12364 0.38321 0.19574 0.0
H292 H 0.14653 0.33914 0.08669 0.0
C293 C 0.09506 0.42596 0.17865 0.0
C294 C 0.08617 0.43848 0.12809 0.0
H295 H 0.13253 0.37625 0.23417 0.0
H296 H 0.08224 0.45094 0.20442 0.0
C297 C 0.10379 0.4053 0.09577 0.0
C298 C 0.662 0.27845 0.05466 0.0
C299 C 0.66157 0.30343 1.00478 0.0
H300 H 0.63675 0.20875 0.11077 0.0
C301 C 0.633 0.27533 0.97308 0.0
H302 H 0.68264 0.29914 0.08049 0.0
C303 C 0.60606 0.22356 0.99069 0.0
C304 C 0.60709 0.19844 1.04042 0.0
H305 H 0.63211 0.29288 0.93436 0.0
H306 H 0.58497 0.20291 0.9651 0.0
C307 C 0.63526 0.22667 0.07219 0.0
C308 C 0.07253 0.79389 0.57153 0.0
C309 C 0.03895 0.78008 0.53659 0.0
H310 H 0.11132 0.85954 0.60239 0.0
C311 C 0.02403 0.82183 0.50147 0.0
H312 H 0.08458 0.76208 0.59881 0.0
C313 C 0.03922 0.87663 0.50326 0.0
C314 C 0.06972 0.89112 0.54029 0.0
H315 H 0.99876 0.81202 0.47372 0.0
H316 H 0.02512 0.90785 0.47684 0.0
C317 C 0.08792 0.84938 0.57339 0.0
C318 C 0.56698 0.80531 0.63951 0.0
C319 C 0.52742 0.81316 0.6722 0.0
H320 H 0.59873 0.75132 0.59704 0.0
C321 C 0.48967 0.76922 0.68933 0.0
H322 H 0.59654 0.83851 0.62569 0.0
C323 C 0.49048 0.71906 0.67239 0.0
C324 C 0.52923 0.71197 0.63823 0.0
H325 H 0.45838 0.77446 0.71402 0.0
H326 H 0.4604 0.68622 0.68542 0.0
C327 C 0.56795 0.7554 0.62283 0.0
C328 C 0.92894 0.96822 0.75422 0.0
C329 C 0.95812 0.94906 0.79341 0.0
H330 H 0.92763 1.00269 0.67724 0.0
C331 C 1.01036 0.95047 0.78323 0.0
H332 H 0.88853 0.96734 0.76053 0.0
C333 C 0.03283 0.97118 0.73551 0.0
C334 C 1.00368 0.99051 0.69637 0.0
H335 H 0.03412 0.93664 0.81244 0.0
H336 H 0.07325 0.972 0.72932 0.0
C337 C 0.95133 0.98836 0.70635 0.0
C338 C 0.63106 0.17548 0.33622 0.0
C339 C 0.61386 0.14758 0.38385 0.0
H340 H 0.63705 0.17168 0.25854 0.0
C341 C 0.58439 0.09646 0.3893 0.0
H342 H 0.65499 0.2143 0.33148 0.0
C343 C 0.57569 0.07153 0.34812 0.0
C344 C 0.59558 0.09776 0.30083 0.0
H345 H 0.57182 0.07376 0.42583 0.0
H346 H 0.55548 0.03059 0.35337 0.0
C347 C 0.62127 0.15101 0.29477 0.0
C348 C 0.46954 0.63452 0.37537 0.0
C349 C 0.41665 0.6281 0.3784 0.0
H350 H 0.53646 0.63074 0.4154 0.0
C351 C 0.39022 0.61557 0.42494 0.0
H352 H 0.49056 0.64377 0.33963 0.0
C353 C 0.41609 0.60772 0.46802 0.0
C354 C 0.46911 0.61229 0.46549 0.0
H355 H 0.34935 0.61011 0.428 0.0
H356 H 0.39435 0.59677 0.50331 0.0
C357 C 0.49566 0.62696 0.41868 0.0
C358 C 1.01029 0.48851 0.80886 0.0
C359 C 0.04074 0.50524 0.76491 0.0
H360 H 0.9993 0.49391 0.88517 0.0
C361 C 0.08535 0.54051 0.76446 0.0
H362 H 0.97578 0.46101 0.80982 0.0
C363 C 0.09974 0.55848 0.80781 0.0
C364 C 0.06946 0.5419 0.85234 0.0
H365 H 0.10945 0.5539 0.73081 0.0
H366 H 0.13482 0.58497 0.8064 0.0
C367 C 0.02432 0.50686 0.85217 0.0
C368 C 0.75254 0.97579 1.03897 0.0
C369 C 0.75352 0.96372 0.99083 0.0
H370 H 0.7085 0.99867 0.09816 0.0
C371 C 0.70884 0.96208 0.96626 0.0
H372 H 0.78685 0.97829 0.05825 0.0
C373 C 0.66422 0.97437 0.98863 0.0
C374 C 0.66332 0.98873 1.03614 0.0
H375 H 0.70892 0.95379 0.92876 0.0
H376 H 0.63079 0.97435 0.96794 0.0
C377 C 0.70775 0.98783 0.0616 0.0
C378 C 0.79368 0.15139 0.51172 0.0
C379 C 0.75374 0.1228 0.4917 0.0
H380 H 0.87106 0.15451 0.52921 0.0
C381 C 0.76033 0.07182 0.47818 0.0
H382 H 0.78962 0.1908 0.52236 0.0
C383 C 0.80665 0.0513 0.48189 0.0
C384 C 0.84742 0.08105 0.49951 0.0
H385 H 0.7298 0.04816 0.46382 0.0
H386 H 0.81077 0.01238 0.47034 0.0
C387 C 0.84019 0.13063 0.51563 0.0
C388 C 0.19995 0.66369 0.19253 0.0
C389 C 0.24621 0.6742 0.16428 0.0
H390 H 0.12033 0.64311 0.19374 0.0
C391 C 0.24655 0.67439 0.113 0.0
H392 H 0.1985 0.66405 0.23196 0.0
C393 C 0.20157 0.66186 0.09085 0.0
C394 C 0.15536 0.64994 0.11947 0.0
H395 H 0.28179 0.68245 0.09038 0.0
H396 H 0.20312 0.66032 0.05163 0.0
C397 C 0.15509 0.65216 0.17039 0.0
C398 C 0.21939 0.46342 0.68898 0.0
C399 C 0.20278 0.45801 0.64217 0.0
H400 H 0.28286 0.47982 0.73118 0.0
C401 C 0.23751 0.46959 0.6007 0.0
H402 H 0.19322 0.45438 0.7215 0.0
C403 C 0.28841 0.48493 0.60617 0.0
C404 C 0.30542 0.48776 0.65333 0.0
H405 H 0.22536 0.46571 0.56428 0.0
H406 H 0.31484 0.49203 0.57394 0.0
C407 C 0.27044 0.47766 0.69456 0.0
C408 C 0.952 0.76795 0.93098 0.0
C409 C 0.93797 0.81116 0.95392 0.0
H410 H 0.98065 0.69031 0.93866 0.0
C411 C 0.93976 0.80513 1.00592 0.0
H412 H 0.94965 0.76943 0.89157 0.0
C413 C 0.95653 0.75815 1.03358 0.0
C414 C 0.97268 0.71656 1.00978 0.0
H415 H 0.92963 0.83735 1.02523 0.0
H416 H 0.95837 0.75524 0.07321 0.0
C417 C 0.96955 0.72198 0.95825 0.0
C418 C 0.41713 0.81028 0.12423 0.0
C419 C 0.40864 0.79133 0.17554 0.0
H420 H 0.45123 0.87422 0.06635 0.0
C421 C 0.43241 0.82238 0.20807 0.0
H422 H 0.40051 0.78685 0.09799 0.0
C423 C 0.4624 0.87201 0.18978 0.0
C424 C 0.46881 0.892 0.13861 0.0
H425 H 0.4264 0.80948 0.24777 0.0
H426 H 0.47902 0.89568 0.21587 0.0
C427 C 0.4465 0.86021 0.10601 0.0
C428 C 0.11311 0.29673 0.56237 0.0
C429 C 0.07991 0.31122 0.59821 0.0
H430 H 0.13677 0.23234 0.52674 0.0
C431 C 0.04057 0.27145 0.62148 0.0
H432 H 0.14286 0.3264 0.5424 0.0
C433 C 0.03603 0.21821 0.61072 0.0
C434 C 0.07147 0.20344 0.57764 0.0
H435 H 1.01464 0.28037 0.64976 0.0
H436 H 1.00639 0.18786 0.63008 0.0
C437 C 0.10954 0.24306 0.55299 0.0
C438 C 0.53296 0.32454 0.56198 0.0
C439 C 0.57871 0.31708 0.53842 0.0
H440 H 0.48804 0.38158 0.58794 0.0
C441 C 0.61376 0.36272 0.51956 0.0
H442 H 0.50569 0.28951 0.57716 0.0
C443 C 0.60398 0.41536 0.52579 0.0
C444 C 0.559 0.42303 0.55124 0.0
H445 H 0.64951 0.35748 0.50163 0.0
H446 H 0.63243 0.44974 0.51215 0.0
C447 C 0.52305 0.37716 0.56823 0.0
loop_
_geom_bond_atom_site_label_1
_geom_bond_atom_site_label_2
_geom_bond_distance
_geom_bond_site_symmetry_2
_ccdc_geom_bond_type
H0 C3 0.929 . S
H1 C6 0.929 . S
H2 C8 0.930 . S
C3 H0 0.929 . S
C3 C4 1.398 . S
C3 C5 1.396 . S
C4 C3 1.398 . S
C4 C8 1.407 . S
C5 C3 1.396 . S
C5 C6 1.394 . S
C6 H1 0.929 . S
C6 C5 1.394 . S
C6 C7 1.382 . S
C7 C6 1.382 . S
C7 C8 1.392 . S
C7 N9 1.420 . S
C8 H2 0.930 . S
C8 C4 1.407 . S
C8 C7 1.392 . S
N9 C7 1.420 . S
N9 C10 1.244 . S
C10 N9 1.244 . S
H11 C14 0.929 . S
H12 C17 0.929 . S
H13 C19 0.930 . S
C14 H11 0.929 . S
C14 C15 1.398 . S
C14 C16 1.396 . S
C15 C14 1.398 . S
C15 C19 1.407 . S
C16 C14 1.396 . S
C16 C17 1.394 . S
C17 H12 0.929 . S
C17 C16 1.394 . S
C17 C18 1.382 . S
C18 C17 1.382 . S
C18 C19 1.392 . S
C18 N20 1.420 . S
C19 H13 0.930 . S
C19 C15 1.407 . S
C19 C18 1.392 . S
N20 C18 1.420 . S
N20 C21 1.244 . S
C21 N20 1.244 . S
H22 C25 0.929 1_554 S
H23 C28 0.929 . S
H24 C30 0.930 . S
C25 H22 0.929 1_556 S
C25 C26 1.398 . S
C25 C27 1.396 . S
C26 C25 1.398 . S
C26 C30 1.407 . S
C27 C25 1.396 . S
C27 C28 1.394 . S
C28 H23 0.929 . S
C28 C27 1.394 . S
C28 C29 1.382 . S
C29 C28 1.382 . S
C29 C30 1.392 . S
C29 N31 1.420 . S
C30 H24 0.930 . S
C30 C26 1.407 . S
C30 C29 1.392 . S
N31 C29 1.420 . S
N31 C32 1.244 . S
C32 N31 1.244 . S
H33 C36 0.929 . S
H34 C39 0.932 . S
H35 C41 0.930 . S
C36 H33 0.929 . S
C36 C37 1.398 . S
C36 C38 1.396 . S
C37 C36 1.398 . S
C37 C41 1.407 . S
C38 C36 1.396 . S
C38 C39 1.394 . S
C39 H34 0.932 . S
C39 C38 1.394 . S
C39 C40 1.382 . S
C40 C39 1.382 . S
C40 C41 1.392 . S
C40 N42 1.420 . S
C41 H35 0.930 . S
C41 C37 1.407 . S
C41 C40 1.392 . S
N42 C40 1.420 . S
N42 C43 1.244 . S
C43 N42 1.244 . S
H44 C47 0.929 . S
H45 C50 0.929 . S
H46 C52 0.930 1_545 S
C47 H44 0.929 . S
C47 C48 1.398 . S
C47 C49 1.396 . S
C48 C47 1.398 . S
C48 C52 1.407 . S
C49 C47 1.396 . S
C49 C50 1.394 . S
C50 H45 0.929 . S
C50 C49 1.394 . S
C50 C51 1.382 . S
C51 C50 1.382 . S
C51 C52 1.392 . S
C51 N53 1.420 . S
C52 H46 0.930 1_565 S
C52 C48 1.407 . S
C52 C51 1.392 . S
N53 C51 1.420 . S
N53 C54 1.244 . S
C54 N53 1.244 . S
H55 C58 0.929 . S
H56 C61 0.929 . S
H57 C63 0.930 . S
C58 H55 0.929 . S
C58 C59 1.398 . S
C58 C60 1.396 . S
C59 C58 1.398 . S
C59 C63 1.407 . S
C60 C58 1.396 . S
C60 C61 1.394 . S
C61 H56 0.929 . S
C61 C60 1.394 . S
C61 C62 1.382 . S
C62 C61 1.382 . S
C62 C63 1.392 . S
C62 N64 1.420 . S
C63 H57 0.930 . S
C63 C59 1.407 . S
C63 C62 1.392 . S
N64 C62 1.420 . S
N64 C65 1.244 . S
C65 N64 1.244 . S
H66 C69 0.929 . S
H67 C72 0.929 . S
H68 C74 0.930 . S
C69 H66 0.929 . S
C69 C70 1.398 . S
C69 C71 1.396 . S
C70 C69 1.398 . S
C70 C74 1.407 . S
C71 C69 1.396 . S
C71 C72 1.394 . S
C72 H67 0.929 . S
C72 C71 1.394 . S
C72 C73 1.382 . S
C73 C72 1.382 . S
C73 C74 1.392 . S
C73 N75 1.420 . S
C74 H68 0.930 . S
C74 C70 1.407 . S
C74 C73 1.392 . S
N75 C73 1.420 . S
N75 C76 1.244 . S
C76 N75 1.244 . S
H77 C80 0.929 . S
H78 C83 0.929 . S
H79 C85 0.930 . S
C80 H77 0.929 . S
C80 C81 1.398 . S
C80 C82 1.396 . S
C81 C80 1.398 . S
C81 C85 1.407 . S
C82 C80 1.396 . S
C82 C83 1.394 . S
C83 H78 0.929 . S
C83 C82 1.394 . S
C83 C84 1.382 . S
C84 C83 1.382 . S
C84 C85 1.392 . S
C84 N86 1.420 . S
C85 H79 0.930 . S
C85 C81 1.407 . S
C85 C84 1.392 . S
N86 C84 1.420 . S
N86 C87 1.244 . S
C87 N86 1.244 . S
Co88 N93 2.057 . S
Co88 O105 2.021 . S
Co88 O108 2.062 . S
Co88 O112 2.117 1_545 S
Co88 O113 2.020 . S
C89 O109 1.259 1_655 S
C89 O112 1.258 . S
Co90 N99 2.057 . S
Co90 O106 2.117 . S
Co90 O107 2.020 . S
Co90 O109 2.021 1_545 S
Co90 O114 2.061 1_545 S
C91 N93 1.316 . S
C91 N94 1.347 . S
C91 H96 0.931 . S
C92 N93 1.375 . S
C92 C95 1.350 . S
C92 H97 0.930 1_545 S
N93 Co88 2.057 . S
N93 C91 1.316 . S
N93 C92 1.375 . S
N94 C91 1.347 . S
N94 C95 1.373 . S
C95 C92 1.350 . S
C95 N94 1.373 . S
C95 H116 0.931 . S
H96 C91 0.931 . S
H97 C92 0.930 1_565 S
C98 O105 1.259 1_455 S
C98 O106 1.258 . S
N99 Co90 2.057 . S
N99 C100 1.316 1_545 S
N99 C101 1.375 . S
C100 N99 1.316 1_565 S
C100 N102 1.347 . S
C100 H111 0.931 . S
C101 N99 1.375 . S
C101 C103 1.350 . S
C101 H110 0.930 . S
N102 C100 1.347 . S
N102 C103 1.373 1_565 S
C103 C101 1.350 . S
C103 N102 1.373 1_545 S
C103 H117 0.931 . S
C104 O107 1.256 . S
C104 O108 1.255 1_455 S
O105 Co88 2.021 . S
O105 C98 1.259 1_655 S
O106 Co90 2.117 . S
O106 C98 1.258 . S
O107 Co90 2.020 . S
O107 C104 1.256 . S
O108 Co88 2.062 . S
O108 C104 1.255 1_655 S
O109 C89 1.259 1_455 S
O109 Co90 2.021 1_565 S
H110 C101 0.930 . S
H111 C100 0.931 . S
O112 Co88 2.117 1_565 S
O112 C89 1.258 . S
O113 Co88 2.020 . S
O113 C115 1.256 . S
O114 Co90 2.061 1_565 S
O114 C115 1.254 1_465 S
C115 O113 1.256 . S
C115 O114 1.254 1_645 S
H116 C95 0.931 . S
H117 C103 0.931 . S
Co118 N123 2.057 1_544 S
Co118 O135 2.021 1_554 S
Co118 O138 2.062 1_554 S
Co118 O142 2.117 1_545 S
Co118 O143 2.020 . S
C119 O139 1.259 . S
C119 O142 1.258 . S
Co120 N129 2.057 . S
Co120 O136 2.117 . S
Co120 O137 2.020 . S
Co120 O139 2.021 1_545 S
Co120 O144 2.062 . S
C121 N123 1.316 1_545 S
C121 N124 1.347 1_545 S
C121 H126 0.931 . S
C122 N123 1.375 . S
C122 C125 1.350 . S
C122 H127 0.930 . S
N123 Co118 2.057 1_566 S
N123 C121 1.316 1_565 S
N123 C122 1.375 . S
N124 C121 1.347 1_565 S
N124 C125 1.373 . S
C125 C122 1.350 . S
C125 N124 1.373 . S
C125 H146 0.931 . S
H126 C121 0.931 . S
H127 C122 0.930 . S
C128 O135 1.259 1_554 S
C128 O136 1.258 . S
N129 Co120 2.057 . S
N129 C130 1.316 . S
N129 C131 1.375 . S
C130 N129 1.316 . S
C130 N132 1.347 . S
C130 H141 0.931 . S
C131 N129 1.375 . S
C131 C133 1.350 . S
C131 H140 0.930 . S
N132 C130 1.347 . S
N132 C133 1.373 . S
C133 C131 1.350 . S
C133 N132 1.373 . S
C133 H147 0.931 . S
C134 O137 1.256 . S
C134 O138 1.255 1_554 S
O135 Co118 2.021 1_556 S
O135 C128 1.259 1_556 S
O136 Co120 2.117 . S
O136 C128 1.258 . S
O137 Co120 2.020 . S
O137 C134 1.256 . S
O138 Co118 2.062 1_556 S
O138 C134 1.255 1_556 S
O139 C119 1.259 . S
O139 Co120 2.021 1_565 S
H140 C131 0.930 . S
H141 C130 0.931 . S
O142 Co118 2.117 1_565 S
O142 C119 1.258 . S
O143 Co118 2.020 . S
O143 C145 1.256 . S
O144 Co120 2.062 . S
O144 C145 1.255 . S
C145 O143 1.256 . S
C145 O144 1.255 . S
H146 C125 0.931 . S
H147 C133 0.931 . S
Co148 N153 2.057 . S
Co148 O165 2.021 . S
Co148 O168 2.062 . S
Co148 O172 2.117 . S
Co148 O173 2.020 . S
C149 O169 1.259 . S
C149 O172 1.258 . S
Co150 N159 2.057 . S
Co150 O166 2.117 . S
Co150 O167 2.020 . S
Co150 O169 2.021 . S
Co150 O174 2.062 . S
C151 N153 1.316 . S
C151 N154 1.347 . S
C151 H156 0.931 . S
C152 N153 1.375 . S
C152 C155 1.350 . S
C152 H157 0.930 . S
N153 Co148 2.057 . S
N153 C151 1.316 . S
N153 C152 1.375 . S
N154 C151 1.347 . S
N154 C155 1.373 . S
C155 C152 1.350 . S
C155 N154 1.373 . S
C155 H176 0.931 . S
H156 C151 0.931 . S
H157 C152 0.930 . S
C158 O165 1.259 . S
C158 O166 1.258 . S
N159 Co150 2.057 . S
N159 C160 1.316 . S
N159 C161 1.375 . S
C160 N159 1.316 . S
C160 N162 1.347 . S
C160 H171 0.931 . S
C161 N159 1.375 . S
C161 C163 1.350 . S
C161 H170 0.930 . S
N162 C160 1.347 . S
N162 C163 1.373 . S
C163 C161 1.350 . S
C163 N162 1.373 . S
C163 H177 0.931 . S
C164 O167 1.256 . S
C164 O168 1.255 . S
O165 Co148 2.021 . S
O165 C158 1.259 . S
O166 Co150 2.117 . S
O166 C158 1.258 . S
O167 Co150 2.020 . S
O167 C164 1.256 . S
O168 Co148 2.062 . S
O168 C164 1.255 . S
O169 C149 1.259 . S
O169 Co150 2.021 . S
H170 C161 0.930 . S
H171 C160 0.931 . S
O172 Co148 2.117 . S
O172 C149 1.258 . S
O173 Co148 2.020 . S
O173 C175 1.256 . S
O174 Co150 2.062 . S
O174 C175 1.255 . S
C175 O173 1.256 . S
C175 O174 1.255 . S
H176 C155 0.931 . S
H177 C163 0.931 . S
Co178 N183 2.057 . S
Co178 O195 2.021 . S
Co178 O198 2.062 1_556 S
Co178 O202 2.117 1_455 S
Co178 O203 2.020 . S
C179 O199 1.259 . S
C179 O202 1.258 1_554 S
Co180 N189 2.057 . S
Co180 O196 2.117 . S
Co180 O197 2.020 . S
Co180 O199 2.021 1_455 S
Co180 O204 2.062 . S
C181 N183 1.316 . S
C181 N184 1.347 . S
C181 H186 0.931 . S
C182 N183 1.375 . S
C182 C185 1.350 . S
C182 H187 0.930 1_455 S
N183 Co178 2.057 . S
N183 C181 1.316 . S
N183 C182 1.375 . S
N184 C181 1.347 . S
N184 C185 1.373 . S
C185 C182 1.350 . S
C185 N184 1.373 . S
C185 H206 0.931 . S
H186 C181 0.931 . S
H187 C182 0.930 1_655 S
C188 O195 1.259 1_554 S
C188 O196 1.258 . S
N189 Co180 2.057 . S
N189 C190 1.316 1_455 S
N189 C191 1.375 . S
C190 N189 1.316 1_655 S
C190 N192 1.347 . S
C190 H201 0.931 . S
C191 N189 1.375 . S
C191 C193 1.350 . S
C191 H200 0.930 . S
N192 C190 1.347 . S
N192 C193 1.373 1_655 S
C193 C191 1.350 . S
C193 N192 1.373 1_455 S
C193 H207 0.931 . S
C194 O197 1.256 . S
C194 O198 1.255 . S
O195 Co178 2.021 . S
O195 C188 1.259 1_556 S
O196 Co180 2.117 . S
O196 C188 1.258 . S
O197 Co180 2.020 . S
O197 C194 1.256 . S
O198 Co178 2.062 1_554 S
O198 C194 1.255 . S
O199 C179 1.259 . S
O199 Co180 2.021 1_655 S
H200 C191 0.930 . S
H201 C190 0.931 . S
O202 Co178 2.117 1_655 S
O202 C179 1.258 1_556 S
O203 Co178 2.020 . S
O203 C205 1.256 . S
O204 Co180 2.062 . S
O204 C205 1.255 1_554 S
C205 O203 1.256 . S
C205 O204 1.255 1_556 S
H206 C185 0.931 . S
H207 C193 0.931 . S
C208 C209 1.387 . S
C208 H212 0.950 . S
C208 C217 1.390 . S
C209 C208 1.387 . S
C209 C211 1.387 . S
H210 C217 0.950 . S
C211 C209 1.387 . S
C211 C213 1.390 . S
C211 H215 0.950 . S
H212 C208 0.950 . S
C213 C211 1.390 . S
C213 C214 1.387 . S
C213 H216 0.950 . S
C214 C213 1.387 . S
C214 C217 1.387 . S
H215 C211 0.950 . S
H216 C213 0.950 . S
C217 C208 1.390 . S
C217 H210 0.950 . S
C217 C214 1.387 . S
C218 C219 1.387 . S
C218 H222 0.950 . S
C218 C227 1.390 . S
C219 C218 1.387 . S
C219 C221 1.387 . S
H220 C227 0.950 . S
C221 C219 1.387 . S
C221 C223 1.390 . S
C221 H225 0.950 . S
H222 C218 0.950 . S
C223 C221 1.390 . S
C223 C224 1.387 . S
C223 H226 0.950 . S
C224 C223 1.387 . S
C224 C227 1.387 . S
H225 C221 0.950 . S
H226 C223 0.950 . S
C227 C218 1.390 . S
C227 H220 0.950 . S
C227 C224 1.387 . S
C228 C229 1.387 . S
C228 H232 0.950 . S
C228 C237 1.390 . S
C229 C228 1.387 . S
C229 C231 1.387 . S
H230 C237 0.950 . S
C231 C229 1.387 . S
C231 C233 1.390 . S
C231 H235 0.950 . S
H232 C228 0.950 . S
C233 C231 1.390 . S
C233 C234 1.387 . S
C233 H236 0.950 . S
C234 C233 1.387 . S
C234 C237 1.387 . S
H235 C231 0.950 . S
H236 C233 0.950 . S
C237 C228 1.390 . S
C237 H230 0.950 . S
C237 C234 1.387 . S
C238 C239 1.387 1_455 S
C238 H242 0.950 . S
C238 C247 1.390 1_455 S
C239 C238 1.387 1_655 S
C239 C241 1.387 . S
H240 C247 0.950 1_455 S
C241 C239 1.387 . S
C241 C243 1.390 . S
C241 H245 0.950 . S
H242 C238 0.950 . S
C243 C241 1.390 . S
C243 C244 1.387 . S
C243 H246 0.950 . S
C244 C243 1.387 . S
C244 C247 1.387 . S
H245 C241 0.950 . S
H246 C243 0.950 . S
C247 C238 1.390 1_655 S
C247 H240 0.950 1_655 S
C247 C244 1.387 . S
C248 C249 1.387 . S
C248 H252 0.950 . S
C248 C257 1.390 . S
C249 C248 1.387 . S
C249 C251 1.387 . S
H250 C257 0.950 . S
C251 C249 1.387 . S
C251 C253 1.390 . S
C251 H255 0.950 . S
H252 C248 0.950 . S
C253 C251 1.390 . S
C253 C254 1.387 . S
C253 H256 0.950 . S
C254 C253 1.387 . S
C254 C257 1.387 . S
H255 C251 0.950 . S
H256 C253 0.950 . S
C257 C248 1.390 . S
C257 H250 0.950 . S
C257 C254 1.387 . S
C258 C259 1.387 . S
C258 H262 0.950 . S
C258 C267 1.390 . S
C259 C258 1.387 . S
C259 C261 1.387 . S
H260 C267 0.950 . S
C261 C259 1.387 . S
C261 C263 1.390 . S
C261 H265 0.950 1_565 S
H262 C258 0.950 . S
C263 C261 1.390 . S
C263 C264 1.387 . S
C263 H266 0.950 1_565 S
C264 C263 1.387 . S
C264 C267 1.387 . S
H265 C261 0.950 1_545 S
H266 C263 0.950 1_545 S
C267 C258 1.390 . S
C267 H260 0.950 . S
C267 C264 1.387 . S
C268 C269 1.387 . S
C268 H272 0.950 1_556 S
C268 C277 1.390 1_556 S
C269 C268 1.387 . S
C269 C271 1.387 . S
H270 C277 0.950 . S
C271 C269 1.387 . S
C271 C273 1.390 . S
C271 H275 0.950 . S
H272 C268 0.950 1_554 S
C273 C271 1.390 . S
C273 C274 1.387 . S
C273 H276 0.950 . S
C274 C273 1.387 . S
C274 C277 1.387 1_556 S
H275 C271 0.950 . S
H276 C273 0.950 . S
C277 C268 1.390 1_554 S
C277 H270 0.950 . S
C277 C274 1.387 1_554 S
C278 C279 1.387 . S
C278 H282 0.950 . S
C278 C287 1.390 . S
C279 C278 1.387 . S
C279 C281 1.387 . S
H280 C287 0.950 . S
C281 C279 1.387 . S
C281 C283 1.390 . S
C281 H285 0.950 . S
H282 C278 0.950 . S
C283 C281 1.390 . S
C283 C284 1.387 . S
C283 H286 0.950 . S
C284 C283 1.387 . S
C284 C287 1.387 . S
H285 C281 0.950 . S
H286 C283 0.950 . S
C287 C278 1.390 . S
C287 H280 0.950 . S
C287 C284 1.387 . S
C288 C289 1.387 . S
C288 H292 0.950 . S
C288 C297 1.390 . S
C289 C288 1.387 . S
C289 C291 1.387 . S
H290 C297 0.950 . S
C291 C289 1.387 . S
C291 C293 1.390 . S
C291 H295 0.950 . S
H292 C288 0.950 . S
C293 C291 1.390 . S
C293 C294 1.387 . S
C293 H296 0.950 . S
C294 C293 1.387 . S
C294 C297 1.387 . S
H295 C291 0.950 . S
H296 C293 0.950 . S
C297 C288 1.390 . S
C297 H290 0.950 . S
C297 C294 1.387 . S
C298 C299 1.387 1_554 S
C298 H302 0.950 . S
C298 C307 1.390 . S
C299 C298 1.387 1_556 S
C299 C301 1.387 . S
H300 C307 0.950 . S
C301 C299 1.387 . S
C301 C303 1.390 . S
C301 H305 0.950 . S
H302 C298 0.950 . S
C303 C301 1.390 . S
C303 C304 1.387 . S
C303 H306 0.950 . S
C304 C303 1.387 . S
C304 C307 1.387 1_556 S
H305 C301 0.950 . S
H306 C303 0.950 . S
C307 C298 1.390 . S
C307 H300 0.950 . S
C307 C304 1.387 1_554 S
C308 C309 1.387 . S
C308 H312 0.955 . S
C308 C317 1.390 . S
C309 C308 1.387 . S
C309 C311 1.387 . S
H310 C317 0.950 1_455 S
C311 C309 1.387 . S
C311 C313 1.390 . S
C311 H315 0.950 . S
H312 C308 0.955 . S
C313 C311 1.390 . S
C313 C314 1.387 . S
C313 H316 0.950 . S
C314 C313 1.387 . S
C314 C317 1.387 . S
H315 C311 0.950 . S
H316 C313 0.950 . S
C317 C308 1.390 . S
C317 H310 0.950 1_655 S
C317 C314 1.387 . S
C318 C319 1.387 . S
C318 H322 0.950 . S
C318 C327 1.390 . S
C319 C318 1.387 . S
C319 C321 1.387 . S
H320 C327 0.950 . S
C321 C319 1.387 . S
C321 C323 1.390 . S
C321 H325 0.950 . S
H322 C318 0.950 . S
C323 C321 1.390 . S
C323 C324 1.387 . S
C323 H326 0.950 . S
C324 C323 1.387 . S
C324 C327 1.387 . S
H325 C321 0.950 . S
H326 C323 0.950 . S
C327 C318 1.390 . S
C327 H320 0.950 . S
C327 C324 1.387 . S
C328 C329 1.387 1_545 S
C328 H332 0.950 . S
C328 C337 1.390 . S
C329 C328 1.387 1_565 S
C329 C331 1.387 . S
H330 C337 0.950 . S
C331 C329 1.387 . S
C331 C333 1.390 . S
C331 H335 0.950 . S
H332 C328 0.950 . S
C333 C331 1.390 . S
C333 C334 1.387 . S
C333 H336 0.950 . S
C334 C333 1.387 . S
C334 C337 1.387 1_565 S
H335 C331 0.950 . S
H336 C333 0.950 . S
C337 C328 1.390 . S
C337 H330 0.950 . S
C337 C334 1.387 1_545 S
C338 C339 1.387 . S
C338 H342 0.950 . S
C338 C347 1.390 . S
C339 C338 1.387 . S
C339 C341 1.387 . S
H340 C347 0.950 . S
C341 C339 1.387 . S
C341 C343 1.390 . S
C341 H345 0.950 . S
H342 C338 0.950 . S
C343 C341 1.390 . S
C343 C344 1.387 . S
C343 H346 0.950 . S
C344 C343 1.387 . S
C344 C347 1.387 . S
H345 C341 0.950 . S
H346 C343 0.950 . S
C347 C338 1.390 . S
C347 H340 0.950 . S
C347 C344 1.387 . S
C348 C349 1.387 . S
C348 H352 0.950 . S
C348 C357 1.390 . S
C349 C348 1.387 . S
C349 C351 1.387 . S
H350 C357 0.950 . S
C351 C349 1.387 . S
C351 C353 1.390 . S
C351 H355 0.950 . S
H352 C348 0.950 . S
C353 C351 1.390 . S
C353 C354 1.387 . S
C353 H356 0.950 . S
C354 C353 1.387 . S
C354 C357 1.387 . S
H355 C351 0.950 . S
H356 C353 0.950 . S
C357 C348 1.390 . S
C357 H350 0.950 . S
C357 C354 1.387 . S
C358 C359 1.387 . S
C358 H362 0.950 . S
C358 C367 1.390 . S
C359 C358 1.387 . S
C359 C361 1.387 . S
H360 C367 0.950 . S
C361 C359 1.387 . S
C361 C363 1.390 . S
C361 H365 0.950 . S
H362 C358 0.950 . S
C363 C361 1.390 . S
C363 C364 1.387 . S
C363 H366 0.950 . S
C364 C363 1.387 . S
C364 C367 1.387 . S
H365 C361 0.950 . S
H366 C363 0.950 . S
C367 C358 1.390 . S
C367 H360 0.950 . S
C367 C364 1.387 . S
C368 C369 1.387 1_554 S
C368 H372 0.950 . S
C368 C377 1.390 . S
C369 C368 1.387 1_556 S
C369 C371 1.387 1_565 S
H370 C377 0.950 . S
C371 C369 1.387 1_545 S
C371 C373 1.390 . S
C371 H375 0.950 . S
H372 C368 0.950 . S
C373 C371 1.390 . S
C373 C374 1.387 1_546 S
C373 H376 0.950 . S
C374 C373 1.387 1_564 S
C374 C377 1.387 . S
H375 C371 0.950 . S
H376 C373 0.950 . S
C377 C368 1.390 . S
C377 H370 0.950 . S
C377 C374 1.387 . S
C378 C379 1.387 . S
C378 H382 0.950 . S
C378 C387 1.390 . S
C379 C378 1.387 . S
C379 C381 1.387 . S
H380 C387 0.950 . S
C381 C379 1.387 . S
C381 C383 1.390 . S
C381 H385 0.950 . S
H382 C378 0.950 . S
C383 C381 1.390 . S
C383 C384 1.387 . S
C383 H386 0.950 . S
C384 C383 1.387 . S
C384 C387 1.387 . S
H385 C381 0.950 . S
H386 C383 0.950 . S
C387 C378 1.390 . S
C387 H380 0.950 . S
C387 C384 1.387 . S
C388 C389 1.387 . S
C388 H392 0.950 . S
C388 C397 1.390 . S
C389 C388 1.387 . S
C389 C391 1.387 . S
H390 C397 0.950 . S
C391 C389 1.387 . S
C391 C393 1.390 . S
C391 H395 0.950 . S
H392 C388 0.950 . S
C393 C391 1.390 . S
C393 C394 1.387 . S
C393 H396 0.950 . S
C394 C393 1.387 . S
C394 C397 1.387 . S
H395 C391 0.950 . S
H396 C393 0.950 . S
C397 C388 1.390 . S
C397 H390 0.950 . S
C397 C394 1.387 . S
C398 C399 1.387 . S
C398 H402 0.950 . S
C398 C407 1.390 . S
C399 C398 1.387 . S
C399 C401 1.387 . S
H400 C407 0.950 . S
C401 C399 1.387 . S
C401 C403 1.390 . S
C401 H405 0.950 . S
H402 C398 0.950 . S
C403 C401 1.390 . S
C403 C404 1.387 . S
C403 H406 0.950 . S
C404 C403 1.387 . S
C404 C407 1.387 . S
H405 C401 0.950 . S
H406 C403 0.950 . S
C407 C398 1.390 . S
C407 H400 0.950 . S
C407 C404 1.387 . S
C408 C409 1.387 1_455 S
C408 H412 0.950 . S
C408 C417 1.390 . S
C409 C408 1.387 1_655 S
C409 C411 1.387 . S
H410 C417 0.950 . S
C411 C409 1.387 . S
C411 C413 1.390 . S
C411 H415 0.950 . S
H412 C408 0.950 . S
C413 C411 1.390 . S
C413 C414 1.387 . S
C413 H416 0.950 1_556 S
C414 C413 1.387 . S
C414 C417 1.387 1_655 S
H415 C411 0.950 . S
H416 C413 0.950 1_554 S
C417 C408 1.390 . S
C417 H410 0.950 . S
C417 C414 1.387 1_455 S
C418 C419 1.387 . S
C418 H422 0.950 . S
C418 C427 1.390 . S
C419 C418 1.387 . S
C419 C421 1.387 . S
H420 C427 0.950 . S
C421 C419 1.387 . S
C421 C423 1.390 . S
C421 H425 0.950 . S
H422 C418 0.950 . S
C423 C421 1.390 . S
C423 C424 1.387 . S
C423 H426 0.950 . S
C424 C423 1.387 . S
C424 C427 1.387 . S
H425 C421 0.950 . S
H426 C423 0.950 . S
C427 C418 1.390 . S
C427 H420 0.950 . S
C427 C424 1.387 . S
C428 C429 1.387 . S
C428 H432 0.950 . S
C428 C437 1.390 . S
C429 C428 1.387 . S
C429 C431 1.387 . S
H430 C437 0.950 . S
C431 C429 1.387 . S
C431 C433 1.390 . S
C431 H435 0.950 . S
H432 C428 0.950 . S
C433 C431 1.390 . S
C433 C434 1.387 . S
C433 H436 0.950 . S
C434 C433 1.387 . S
C434 C437 1.387 . S
H435 C431 0.950 . S
H436 C433 0.950 . S
C437 C428 1.390 . S
C437 H430 0.950 . S
C437 C434 1.387 . S
C438 C439 1.387 . S
C438 H442 0.950 . S
C438 C447 1.390 . S
C439 C438 1.387 . S
C439 C441 1.387 . S
H440 C447 0.950 . S
C441 C439 1.387 . S
C441 C443 1.390 . S
C441 H445 0.950 . S
H442 C438 0.950 . S
C443 C441 1.390 . S
C443 C444 1.387 . S
C443 H446 0.950 . S
C444 C443 1.387 . S
C444 C447 1.387 . S
H445 C441 0.950 . S
H446 C443 0.950 . S
C447 C438 1.390 . S
C447 H440 0.950 . S
C447 C444 1.387 . S
C209 C4 2.296 . S
C214 C104 2.308 . S
C219 C16 1.386 . S
C224 N124 1.385 . S
C234 C158 1.679 . S
C229 C32 1.672 . S
C239 C43 1.229 . S
C244 N192 1.154 . S
C254 C145 2.647 . S
C249 C5 2.635 . S
C264 N102 0.980 . S
C259 C21 0.997 . S
C274 C179 1.912 1_556 S
C269 C27 1.896 . S
C284 N154 1.007 . S
C279 C37 1.005 . S
C289 C10 1.799 . S
C294 C194 1.815 . S
C304 C128 1.787 1_556 S
C299 C26 1.753 . S
C309 C38 1.161 . S
C314 C89 1.184 . S
C319 C15 1.559 . S
C324 C175 1.579 . S
C334 C115 2.376 1_565 S
C329 C48 2.368 . S
C339 C59 1.196 . S
C344 N132 1.196 . S
C349 C76 1.916 . S
C354 C149 1.922 . S
C359 C87 1.139 . S
C364 N184 1.089 . S
C369 C54 2.093 . S
C374 C134 2.113 1_565 S
C384 N94 1.428 . S
C379 C60 1.425 . S
C394 C188 1.950 . S
C389 C71 1.922 . S
C404 N162 1.086 . S
C399 C82 1.073 . S
C409 C49 2.009 . S
C414 C205 2.018 1_655 S
C424 C119 1.504 . S
C419 C70 1.487 . S
C434 C98 1.473 . S
C429 C81 1.460 . S
C439 C65 1.400 . S
C444 C164 1.414 . S
