# Generated by pormake.
# Topology zzz, (3,6)-cn, num edge types: 1
# Building blocks:
#     Node 0, Type 0, BuildingBlock: CUQRIR_clean_linker_1, # of connection points: 3
#     Node 1, Type 0, BuildingBlock: CUQRIR_clean_linker_1, # of connection points: 3
#     Node 2, Type 0, BuildingBlock: CUQRIR_clean_linker_1, # of connection points: 3
#     Node 3, Type 0, BuildingBlock: CUQRIR_clean_linker_1, # of connection points: 3
#     Node 4, Type 0, BuildingBlock: CUQRIR_clean_linker_1, # of connection points: 3
#     Node 5, Type 0, BuildingBlock: CUQRIR_clean_linker_1, # of connection points: 3
#     Node 6, Type 0, BuildingBlock: CUQRIR_clean_linker_1, # of connection points: 3
#     Node 7, Type 0, BuildingBlock: CUQRIR_clean_linker_1, # of connection points: 3
#     Node 8, Type 1, BuildingBlock: MIFKUJ_clean_sbu_0, # of connection points: 6
#     Node 9, Type 1, BuildingBlock: MIFKUJ_clean_sbu_0, # of connection points: 6
#     Node 10, Type 1, BuildingBlock: MIFKUJ_clean_sbu_0, # of connection points: 6
#     Node 11, Type 1, BuildingBlock: MIFKUJ_clean_sbu_0, # of connection points: 6
#     Edge 12, Type (0, 1), BuildingBlock: ZUJKAS_clean_linker_0, # of connection points: 2
#     Edge 13, Type (0, 1), BuildingBlock: ZUJKAS_clean_linker_0, # of connection points: 2
#     Edge 14, Type (0, 1), BuildingBlock: ZUJKAS_clean_linker_0, # of connection points: 2
#     Edge 15, Type (0, 1), BuildingBlock: ZUJKAS_clean_linker_0, # of connection points: 2
#     Edge 16, Type (0, 1), BuildingBlock: ZUJKAS_clean_linker_0, # of connection points: 2
#     Edge 17, Type (0, 1), BuildingBlock: ZUJKAS_clean_linker_0, # of connection points: 2
#     Edge 18, Type (0, 1), BuildingBlock: ZUJKAS_clean_linker_0, # of connection points: 2
#     Edge 19, Type (0, 1), BuildingBlock: ZUJKAS_clean_linker_0, # of connection points: 2
#     Edge 20, Type (0, 1), BuildingBlock: ZUJKAS_clean_linker_0, # of connection points: 2
#     Edge 21, Type (0, 1), BuildingBlock: ZUJKAS_clean_linker_0, # of connection points: 2
#     Edge 22, Type (0, 1), BuildingBlock: ZUJKAS_clean_linker_0, # of connection points: 2
#     Edge 23, Type (0, 1), BuildingBlock: ZUJKAS_clean_linker_0, # of connection points: 2
#     Edge 24, Type (0, 1), BuildingBlock: ZUJKAS_clean_linker_0, # of connection points: 2
#     Edge 25, Type (0, 1), BuildingBlock: ZUJKAS_clean_linker_0, # of connection points: 2
#     Edge 26, Type (0, 1), BuildingBlock: ZUJKAS_clean_linker_0, # of connection points: 2
#     Edge 27, Type (0, 1), BuildingBlock: ZUJKAS_clean_linker_0, # of connection points: 2
#     Edge 28, Type (0, 1), BuildingBlock: ZUJKAS_clean_linker_0, # of connection points: 2
#     Edge 29, Type (0, 1), BuildingBlock: ZUJKAS_clean_linker_0, # of connection points: 2
#     Edge 30, Type (0, 1), BuildingBlock: ZUJKAS_clean_linker_0, # of connection points: 2
#     Edge 31, Type (0, 1), BuildingBlock: ZUJKAS_clean_linker_0, # of connection points: 2
#     Edge 32, Type (0, 1), BuildingBlock: ZUJKAS_clean_linker_0, # of connection points: 2
#     Edge 33, Type (0, 1), BuildingBlock: ZUJKAS_clean_linker_0, # of connection points: 2
#     Edge 34, Type (0, 1), BuildingBlock: ZUJKAS_clean_linker_0, # of connection points: 2
#     Edge 35, Type (0, 1), BuildingBlock: ZUJKAS_clean_linker_0, # of connection points: 2
# Relax obj value: 0.119
# Max RMSD: 0.116
# Mean RMSD: 0.092
data_MOF--net-zzz--node1-MIFKUJ_clean_sbu_0--node2-CUQRIR_clean_linker_1--edge1-ZUJKAS_clean_linker_0
_symmetry_space_group_name_H-M    P1
_symmetry_Int_Tables_number       1
_symmetry_cell_setting            triclinic
loop_
_symmetry_equiv_pos_as_xyz
'x, y, z'
_cell_length_a     62.864623
_cell_length_b     62.702363
_cell_length_c     18.78025
_cell_angle_alpha  89.96049
_cell_angle_beta   90.073886
_cell_angle_gamma 89.868936
loop_
_atom_site_label
_atom_site_type_symbol
_atom_site_fract_x
_atom_site_fract_y
_atom_site_fract_z
_atom_type_partial_charge
C0 C 0.73428 0.49899 0.16576 0.0
N1 N 0.75494 0.4928 0.16302 0.0
N2 N 0.72355 0.49164 0.10808 0.0
C3 C 0.72523 0.51392 0.22023 0.0
C4 C 0.7384 0.48092 0.07034 0.0
N5 N 0.75743 0.48163 0.10351 0.0
C6 C 0.73439 0.4706 0.9993 0.0
H7 H 0.73149 0.5099 0.27388 0.0
H8 H 0.70759 0.51329 0.22048 0.0
H9 H 0.73031 0.53041 0.20732 0.0
H10 H 0.73574 0.48283 0.95684 0.0
H11 H 0.71806 0.46393 0.99719 0.0
H12 H 0.74613 0.45774 0.98882 0.0
C13 C 0.96688 0.72377 0.17213 0.0
N14 N 0.9629 0.74485 0.16495 0.0
N15 N 0.96137 0.71325 0.11199 0.0
C16 C 0.97878 0.71398 0.23334 0.0
C17 C 0.95417 0.72876 0.06794 0.0
N18 N 0.95511 0.74801 0.1 0.0
C19 C 0.94768 0.72511 0.99189 0.0
H20 H 0.99607 0.71664 0.22548 0.0
H21 H 0.97582 0.69657 0.23634 0.0
H22 H 0.97408 0.72168 0.28414 0.0
H23 H 0.93941 0.70957 0.9867 0.0
H24 H 0.96213 0.72454 0.95809 0.0
H25 H 0.93714 0.73812 0.97261 0.0
C26 C 0.78385 0.98979 0.15433 0.0
N27 N 0.76328 0.99617 0.15681 0.0
N28 N 0.79306 0.99654 0.09311 0.0
C29 C 0.79459 0.97617 0.20938 0.0
C30 C 0.77737 0.00715 0.05862 0.0
N31 N 0.75934 0.00701 0.09747 0.0
C32 C 0.77908 0.01577 0.98409 0.0
H33 H 0.81197 0.97923 0.21025 0.0
H34 H 0.79202 0.95915 0.19578 0.0
H35 H 0.78771 0.97918 0.26284 0.0
H36 H 0.7727 0.00375 0.94641 0.0
H37 H 0.79586 0.01915 0.96983 0.0
H38 H 0.76952 0.03055 0.97821 0.0
C39 C 0.55342 0.76819 0.09003 0.0
N40 N 0.55123 0.74677 0.08456 0.0
N41 N 0.54834 0.77772 0.02746 0.0
C42 C 0.55949 0.77981 0.15687 0.0
C43 C 0.54303 0.76138 0.98392 0.0
N44 N 0.54479 0.74259 0.01864 0.0
C45 C 0.5347 0.764 0.90926 0.0
H46 H 0.54481 0.7838 0.18681 0.0
H47 H 0.56785 0.79489 0.14429 0.0
H48 H 0.56973 0.76966 0.1912 0.0
H49 H 0.54096 0.77877 0.8845 0.0
H50 H 0.51709 0.76514 0.91121 0.0
H51 H 0.53895 0.75017 0.87546 0.0
C52 C 0.27788 0.49456 0.0505 0.0
N53 N 0.25669 0.49817 0.05657 0.0
N54 N 0.28798 0.49988 0.11183 0.0
C55 C 0.28849 0.48538 0.98594 0.0
C56 C 0.27227 0.50677 0.15514 0.0
N57 N 0.25331 0.50574 0.12162 0.0
C58 C 0.2755 0.51437 0.23038 0.0
H59 H 0.27866 0.47233 0.96347 0.0
H60 H 0.30465 0.47933 0.99873 0.0
H61 H 0.28982 0.49801 0.94482 0.0
H62 H 0.29139 0.52176 0.23708 0.0
H63 H 0.27454 0.50047 0.26683 0.0
H64 H 0.26304 0.52604 0.24574 0.0
C65 C 0.04551 0.2782 0.04667 0.0
N66 N 0.0467 0.25669 0.05047 0.0
N67 N 0.04731 0.28681 0.11246 0.0
C68 C 0.04135 0.29071 0.97996 0.0
C69 C 0.04926 0.26978 0.15632 0.0
N70 N 0.04893 0.25149 0.11861 0.0
C71 C 0.04848 0.27092 0.23624 0.0
H72 H 0.04845 0.30685 0.98397 0.0
H73 H 0.02392 0.29253 0.97291 0.0
H74 H 0.04784 0.28226 0.93281 0.0
H75 H 0.03186 0.2683 0.25392 0.0
H76 H 0.05381 0.28673 0.25576 0.0
H77 H 0.05857 0.25827 0.26014 0.0
C78 C 0.22939 0.0005 0.06402 0.0
N79 N 0.25054 0.99633 0.06728 0.0
N80 N 0.21984 0.9949 0.12599 0.0
C81 C 0.21837 0.01069 0.00183 0.0
C82 C 0.23586 0.98728 0.16683 0.0
N83 N 0.25447 0.98815 0.13125 0.0
C84 C 0.23326 0.97923 0.24183 0.0
H85 H 0.22785 0.02441 0.98228 0.0
H86 H 0.2021 0.01609 0.01608 0.0
H87 H 0.21729 0.99893 0.95788 0.0
H88 H 0.21739 0.97186 0.24936 0.0
H89 H 0.23456 0.99289 0.27908 0.0
H90 H 0.24579 0.9674 0.25535 0.0
C91 C 0.45747 0.23258 0.0931 0.0
N92 N 0.45897 0.25394 0.10176 0.0
N93 N 0.4581 0.22262 0.15715 0.0
C94 C 0.4572 0.22144 0.0225 0.0
C95 C 0.46044 0.23866 0.20467 0.0
N96 N 0.46096 0.25767 0.17097 0.0
C97 C 0.46392 0.23554 0.28325 0.0
H98 H 0.45006 0.20533 0.02747 0.0
H99 H 0.4738 0.21968 0.00335 0.0
H100 H 0.44824 0.23099 0.98272 0.0
H101 H 0.4805 0.23002 0.29222 0.0
H102 H 0.45309 0.22307 0.30404 0.0
H103 H 0.46128 0.25055 0.31322 0.0
Zn104 Zn 0.00403 0.03114 0.58525 0.0
Zn105 Zn 0.00668 0.96737 0.65257 0.0
C106 C 0.99958 0.06825 0.66287 0.0
O107 O 0.98175 0.06741 0.62636 0.0
C108 C 0.00325 0.92783 0.59075 0.0
O109 O 0.01765 0.92471 0.6405 0.0
O110 O 0.00342 0.04636 0.49092 0.0
O111 O 0.02624 0.00648 0.58334 0.0
O112 O 0.03597 0.97392 0.61553 0.0
C113 C 0.02058 0.05651 0.47981 0.0
O114 O 0.03593 0.05502 0.52695 0.0
O115 O 0.01312 0.05333 0.6555 0.0
C116 C 0.98613 0.94614 0.7611 0.0
O117 O 0.97117 0.94949 0.71343 0.0
O118 O 0.00456 0.95377 0.74992 0.0
O119 O 0.99042 0.99378 0.64105 0.0
O120 O 0.97424 0.02329 0.62013 0.0
O121 O 0.99521 0.94625 0.58332 0.0
C122 C 0.03984 0.99126 0.58237 0.0
C123 C 0.97413 0.00521 0.64974 0.0
Zn124 Zn 0.47778 0.99132 0.57807 0.0
Zn125 Zn 0.53738 0.00805 0.62393 0.0
C126 C 0.4409 0.9822 0.66038 0.0
O127 O 0.44364 0.96392 0.62745 0.0
C128 C 0.56746 0.00415 0.51346 0.0
O129 O 0.56273 0.02455 0.51164 0.0
O130 O 0.46211 0.98025 0.49262 0.0
O131 O 0.4911 0.01944 0.54898 0.0
O132 O 0.52337 0.03209 0.57112 0.0
C133 C 0.4505 0.99393 0.46123 0.0
O134 O 0.45062 0.01371 0.48408 0.0
O135 O 0.45447 0.99695 0.65065 0.0
C136 C 0.56817 0.00584 0.72808 0.0
O137 O 0.5659 0.98589 0.70823 0.0
O138 O 0.55689 0.02008 0.69803 0.0
O139 O 0.51659 0.98968 0.67809 0.0
O140 O 0.49735 0.96805 0.61352 0.0
O141 O 0.55737 0.99216 0.55653 0.0
C142 C 0.50499 0.03408 0.54363 0.0
C143 C 0.51218 0.97087 0.65842 0.0
Zn144 Zn 0.49683 0.48005 0.63428 0.0
Zn145 Zn 0.51873 0.52058 0.56246 0.0
C146 C 0.48812 0.45401 0.76087 0.0
O147 O 0.50199 0.46645 0.79251 0.0
C148 C 0.51761 0.55855 0.48596 0.0
O149 O 0.49803 0.55667 0.50959 0.0
O150 O 0.50512 0.46236 0.54895 0.0
O151 O 0.47449 0.50109 0.59973 0.0
O152 O 0.49417 0.50857 0.5066 0.0
C153 C 0.48907 0.45396 0.51867 0.0
O154 O 0.47 0.45809 0.54368 0.0
O155 O 0.48275 0.45792 0.69688 0.0
C156 C 0.52414 0.5464 0.6795 0.0
O157 O 0.54345 0.54375 0.6543 0.0
O158 O 0.50878 0.53692 0.64885 0.0
O159 O 0.54232 0.50108 0.59612 0.0
O160 O 0.52303 0.49022 0.68701 0.0
O161 O 0.53091 0.54381 0.50005 0.0
C162 C 0.47592 0.50596 0.53411 0.0
C163 C 0.54108 0.49446 0.66005 0.0
Zn164 Zn 0.02756 0.51084 0.57616 0.0
Zn165 Zn 0.98243 0.48855 0.64358 0.0
C166 C 0.06316 0.51377 0.66337 0.0
O167 O 0.06004 0.53322 0.63938 0.0
C168 C 0.95122 0.48332 0.53622 0.0
O169 O 0.95514 0.4635 0.55499 0.0
O170 O 0.04614 0.52361 0.50042 0.0
O171 O 0.01184 0.48797 0.52127 0.0
O172 O 0.00245 0.46609 0.60672 0.0
C173 C 0.05781 0.50932 0.4724 0.0
O174 O 0.05581 0.48951 0.49416 0.0
O175 O 0.04965 0.49943 0.64705 0.0
C176 C 0.94782 0.48825 0.73023 0.0
O177 O 0.94818 0.50747 0.70225 0.0
O178 O 0.96237 0.4751 0.71328 0.0
O179 O 0.99367 0.5135 0.69958 0.0
O180 O 0.0111 0.53424 0.62444 0.0
O181 O 0.9624 0.4981 0.5638 0.0
C182 C 0.00914 0.4691 0.54385 0.0
C183 C 0.00126 0.53157 0.68281 0.0
H184 H 0.20356 0.02941 0.18997 0.0
H185 H 0.1703 0.03048 0.25898 0.0
H186 H 0.15539 0.96687 0.18778 0.0
H187 H 0.18863 0.96599 0.11872 0.0
H188 H 0.12274 0.01856 0.22075 0.0
H189 H 0.16552 0.96696 0.41576 0.0
H190 H 0.17939 0.98338 0.3519 0.0
H191 H 0.16651 0.95937 0.32337 0.0
C192 C 0.19263 0.01612 0.1869 0.0
C193 C 0.19824 0.99777 0.14857 0.0
C194 C 0.1738 0.01664 0.2265 0.0
C195 C 0.1605 0.9987 0.22868 0.0
C196 C 0.16545 0.98087 0.18659 0.0
H197 H 0.06052 0.95854 0.51654 0.0
H198 H 0.08947 0.96081 0.42998 0.0
C199 C 0.18424 0.98042 0.1468 0.0
C200 C 0.143 0.99763 0.28126 0.0
H201 H 0.1299 0.97556 0.44153 0.0
C202 C 0.12423 0.00919 0.26908 0.0
C203 C 0.1451 0.9854 0.34415 0.0
C204 C 0.16522 0.97312 0.36029 0.0
C205 C 0.10727 0.00854 0.31788 0.0
C206 C 0.10942 0.99641 0.38124 0.0
C207 C 0.12826 0.98487 0.39314 0.0
C208 C 0.09224 0.99517 0.43549 0.0
C209 C 0.08703 0.02042 0.30027 0.0
C210 C 0.08462 0.01364 0.46936 0.0
C211 C 0.0681 0.01234 0.51916 0.0
C212 C 0.05893 0.9926 0.53621 0.0
C213 C 0.06723 0.97403 0.50459 0.0
C214 C 0.0837 0.97531 0.45473 0.0
H215 H 0.0858 0.02396 0.24243 0.0
H216 H 0.07282 0.01114 0.31663 0.0
H217 H 0.08684 0.03582 0.32934 0.0
H218 H 0.09146 0.02906 0.45738 0.0
H219 H 0.06264 0.02673 0.54481 0.0
H220 H 0.42981 0.19673 0.21953 0.0
H221 H 0.43764 0.16163 0.27221 0.0
H222 H 0.50106 0.16416 0.18527 0.0
H223 H 0.49308 0.19926 0.13271 0.0
H224 H 0.45726 0.12017 0.21326 0.0
H225 H 0.50542 0.16489 0.41238 0.0
H226 H 0.48556 0.1777 0.35739 0.0
H227 H 0.51069 0.17013 0.31985 0.0
C228 C 0.44511 0.18932 0.20984 0.0
C229 C 0.46086 0.20037 0.1722 0.0
C230 C 0.4496 0.16942 0.23992 0.0
C231 C 0.46997 0.16049 0.23304 0.0
C232 C 0.48527 0.17088 0.19119 0.0
H233 H 0.53295 0.06038 0.47556 0.0
H234 H 0.52456 0.09041 0.39701 0.0
C235 C 0.48071 0.19074 0.16089 0.0
C236 C 0.47594 0.14174 0.27652 0.0
H237 H 0.50402 0.12762 0.42494 0.0
C238 C 0.46753 0.12171 0.2594 0.0
C239 C 0.48929 0.14393 0.3367 0.0
C240 C 0.49821 0.1653 0.35834 0.0
C241 C 0.47234 0.10364 0.30078 0.0
C242 C 0.48547 0.10588 0.3617 0.0
C243 C 0.49398 0.12594 0.37828 0.0
C244 C 0.49044 0.08771 0.40951 0.0
C245 C 0.46361 0.08228 0.27824 0.0
C246 C 0.47408 0.07661 0.44414 0.0
C247 C 0.47884 0.05945 0.48895 0.0
C248 C 0.50005 0.0532 0.50049 0.0
C249 C 0.51645 0.06481 0.46774 0.0
C250 C 0.51167 0.0819 0.42258 0.0
H251 H 0.45924 0.08217 0.22089 0.0
H252 H 0.47531 0.06932 0.2882 0.0
H253 H 0.44904 0.07879 0.30938 0.0
H254 H 0.45763 0.08127 0.43678 0.0
H255 H 0.46591 0.05119 0.51498 0.0
H256 H 0.30646 0.46551 0.1701 0.0
H257 H 0.34071 0.46513 0.2338 0.0
H258 H 0.35219 0.52986 0.16642 0.0
H259 H 0.31791 0.53007 0.103 0.0
H260 H 0.3851 0.47526 0.1956 0.0
H261 H 0.34846 0.53131 0.38937 0.0
H262 H 0.33296 0.51627 0.32595 0.0
H263 H 0.34725 0.53955 0.29774 0.0
C264 C 0.3168 0.47926 0.16684 0.0
C265 C 0.30995 0.4977 0.1312 0.0
C266 C 0.33619 0.47914 0.20348 0.0
C267 C 0.34882 0.49757 0.20552 0.0
C268 C 0.34259 0.51554 0.16587 0.0
H269 H 0.47384 0.51546 0.39233 0.0
H270 H 0.44315 0.51278 0.31315 0.0
C271 C 0.32324 0.5156 0.12909 0.0
C272 C 0.36732 0.4987 0.2544 0.0
H273 H 0.38489 0.52324 0.40573 0.0
C274 C 0.38512 0.48575 0.2415 0.0
C275 C 0.36705 0.51207 0.31509 0.0
C276 C 0.34787 0.52548 0.33355 0.0
C277 C 0.40291 0.48617 0.28698 0.0
C278 C 0.40293 0.50011 0.34634 0.0
C279 C 0.38493 0.51271 0.35992 0.0
C280 C 0.42151 0.50195 0.39491 0.0
C281 C 0.42136 0.47144 0.27176 0.0
C282 C 0.41939 0.49749 0.46788 0.0
C283 C 0.4369 0.49921 0.51367 0.0
C284 C 0.45687 0.50549 0.48731 0.0
C285 C 0.45876 0.51042 0.41445 0.0
C286 C 0.44126 0.50873 0.36885 0.0
H287 H 0.41658 0.45793 0.237 0.0
H288 H 0.43402 0.48048 0.24386 0.0
H289 H 0.42819 0.4649 0.32182 0.0
H290 H 0.40422 0.4924 0.48924 0.0
H291 H 0.43487 0.49528 0.56941 0.0
H292 H 0.07582 0.31753 0.1383 0.0
H293 H 0.06882 0.35126 0.20118 0.0
H294 H 0.00174 0.33673 0.2036 0.0
H295 H 0.00891 0.3033 0.13945 0.0
H296 H 0.01009 0.38017 0.18259 0.0
H297 H 0.05453 0.34717 0.41362 0.0
H298 H 0.06973 0.34856 0.33289 0.0
H299 H 0.04711 0.33113 0.33788 0.0
C300 C 0.0596 0.32205 0.15047 0.0
C301 C 0.04283 0.30822 0.13419 0.0
C302 C 0.0556 0.34107 0.18686 0.0
C303 C 0.03481 0.34623 0.20828 0.0
C304 C 0.01789 0.33301 0.18773 0.0
H305 H 1.00049 0.42675 0.56692 0.0
H306 H 0.00562 0.39711 0.48369 0.0
C307 C 0.02191 0.31406 0.15102 0.0
C308 C 0.03085 0.36435 0.2571 0.0
H309 H 0.04229 0.38274 0.42384 0.0
C310 C 0.01714 0.38079 0.2353 0.0
C311 C 0.03967 0.3648 0.32647 0.0
C312 C 0.05341 0.34689 0.35458 0.0
C313 C 0.0123 0.39792 0.28069 0.0
C314 C 0.02175 0.39876 0.34912 0.0
C315 C 0.0352 0.38214 0.37119 0.0
C316 C 0.01805 0.41679 0.39866 0.0
C317 C 0.99677 0.4147 0.25546 0.0
C318 C 0.02354 0.4376 0.37874 0.0
C319 C 0.02051 0.45453 0.42586 0.0
C320 C 0.01221 0.45096 0.49442 0.0
C321 C 0.00692 0.43004 0.5146 0.0
C322 C 0.00983 0.41311 0.4671 0.0
H323 H 0.98642 0.40861 0.21203 0.0
H324 H 0.98652 0.42034 0.29976 0.0
H325 H 0.00573 0.42855 0.23436 0.0
H326 H 0.03041 0.44075 0.32694 0.0
H327 H 0.02483 0.47042 0.40853 0.0
H328 H 0.80198 0.96719 0.99402 0.0
H329 H 0.83536 0.96403 0.92691 0.0
H330 H 0.86334 0.01284 0.05883 0.0
H331 H 0.82975 0.01597 0.12529 0.0
H332 H 0.86521 0.02174 0.91548 0.0
H333 H 0.89482 0.93974 0.96626 0.0
H334 H 0.86736 0.94091 0.93997 0.0
H335 H 0.87549 0.95269 0.02286 0.0
C336 C 0.8156 0.9766 0.00992 0.0
C337 C 0.81368 0.99153 0.06511 0.0
C338 C 0.83461 0.97483 0.97182 0.0
C339 C 0.85195 0.988 0.98844 0.0
C340 C 0.85023 0.00236 0.04563 0.0
H341 H 0.97641 0.99147 0.78612 0.0
H342 H 0.94673 0.98531 0.86835 0.0
C343 C 0.83121 0.00407 0.0838 0.0
C344 C 0.87076 0.98869 0.94082 0.0
H345 H 0.91038 0.95832 0.86807 0.0
C346 C 0.87518 0.00791 0.90556 0.0
C347 C 0.88378 0.97066 0.92811 0.0
C348 C 0.88029 0.94987 0.96676 0.0
C349 C 0.89202 0.00952 0.85701 0.0
C350 C 0.90457 0.9913 0.84222 0.0
C351 C 0.90051 0.97217 0.87867 0.0
C352 C 0.9223 0.99217 0.79029 0.0
C353 C 0.89638 0.03084 0.82259 0.0
C354 C 0.91837 0.99741 0.7187 0.0
C355 C 0.93528 0.00092 0.67187 0.0
C356 C 0.95633 0.99871 0.69552 0.0
C357 C 0.96025 0.9927 0.76637 0.0
C358 C 0.94335 0.98928 0.81333 0.0
H359 H 0.88887 0.04416 0.85246 0.0
H360 H 0.91374 0.03386 0.81893 0.0
H361 H 0.88972 0.03089 0.76784 0.0
H362 H 0.90222 -0.00057 0.69965 0.0
H363 H 0.93195 0.00576 0.6176 0.0
H364 H 0.58098 0.80505 0.01355 0.0
H365 H 0.57904 0.84158 0.96557 0.0
H366 H 0.51073 0.83618 0.95146 0.0
H367 H 0.51282 0.79998 0.00047 0.0
H368 H 0.56391 0.85115 0.83312 0.0
H369 H 0.51745 0.89546 0.03461 0.0
H370 H 0.52998 0.87013 0.05356 0.0
H371 H 0.50463 0.87112 0.00896 0.0
C372 C 0.5656 0.81208 0.00218 0.0
C373 C 0.54702 0.80006 0.01112 0.0
C374 C 0.56447 0.83279 0.97447 0.0
C375 C 0.54471 0.84172 0.95575 0.0
C376 C 0.52609 0.82986 0.96708 0.0
H377 H 0.50854 0.9285 0.62672 0.0
H378 H 0.51913 0.89813 0.70055 0.0
C379 C 0.52725 0.80922 0.99471 0.0
C380 C 0.54355 0.8624 0.91743 0.0
H381 H 0.51783 0.9104 0.91632 0.0
C382 C 0.55411 0.86425 0.85187 0.0
C383 C 0.53097 0.87958 0.9422 0.0
C384 C 0.5203 0.87909 0.01406 0.0
C385 C 0.55158 0.88239 0.80882 0.0
C386 C 0.53784 0.89893 0.83142 0.0
C387 C 0.52814 0.89757 0.89858 0.0
C388 C 0.53256 0.91736 0.78505 0.0
C389 C 0.56351 0.88359 0.73928 0.0
C390 C 0.53627 0.93825 0.80852 0.0
C391 C 0.53005 0.95564 0.76674 0.0
C392 C 0.51993 0.95246 0.7007 0.0
C393 C 0.51639 0.93149 0.67711 0.0
C394 C 0.52258 0.91412 0.71901 0.0
H395 H 0.57791 0.87329 0.74005 0.0
H396 H 0.55304 0.87793 0.69562 0.0
H397 H 0.56839 0.90021 0.72716 0.0
H398 H 0.54378 0.94111 0.85958 0.0
H399 H 0.53272 0.97156 0.7871 0.0
H400 H 0.71515 0.52209 0.01244 0.0
H401 H 0.68225 0.52556 0.94257 0.0
H402 H 0.65328 0.47633 0.07006 0.0
H403 H 0.68635 0.47296 0.13966 0.0
H404 H 0.66692 0.48825 0.86698 0.0
H405 H 0.60575 0.52296 0.04672 0.0
H406 H 0.63394 0.52665 0.06107 0.0
H407 H 0.62171 0.50164 0.08262 0.0
C408 C 0.70138 0.51272 0.0271 0.0
C409 C 0.70292 0.49757 0.08184 0.0
C410 C 0.68273 0.51454 0.98701 0.0
C411 C 0.66529 0.50129 0.0014 0.0
C412 C 0.66641 0.48697 0.05889 0.0
H413 H 0.54563 0.47514 0.78949 0.0
H414 H 0.57609 0.47668 0.87011 0.0
C415 C 0.68516 0.4851 0.0988 0.0
C416 C 0.64715 0.50058 0.95093 0.0
H417 H 0.59384 0.50989 0.9354 0.0
C418 C 0.65094 0.49309 0.88168 0.0
C419 C 0.62634 0.50667 0.97067 0.0
C420 C 0.62157 0.51508 0.04414 0.0
C421 C 0.6344 0.49118 0.83179 0.0
C422 C 0.61355 0.49753 0.85104 0.0
C423 C 0.6098 0.50507 0.92048 0.0
C424 C 0.59536 0.49619 0.80044 0.0
C425 C 0.63937 0.48171 0.7598 0.0
C426 C 0.596 0.50658 0.73413 0.0
C427 C 0.5787 0.50541 0.68726 0.0
C428 C 0.5602 0.49423 0.70647 0.0
C429 C 0.55961 0.48389 0.77296 0.0
C430 C 0.577 0.48482 0.8193 0.0
H431 H 0.6541 0.47189 0.7613 0.0
H432 H 0.6261 0.4716 0.74038 0.0
H433 H 0.64192 0.49479 0.72093 0.0
H434 H 0.60973 0.51592 0.71901 0.0
H435 H 0.57958 0.51379 0.63691 0.0
H436 H 0.93966 0.67662 0.12435 0.0
H437 H 0.94848 0.64262 0.06554 0.0
H438 H 0.00649 0.67044 0.98545 0.0
H439 H 0.99776 0.704 0.0458 0.0
H440 H 0.95162 0.63899 0.92373 0.0
H441 H 0.02756 0.61241 0.04425 0.0
H442 H 0.01088 0.63245 0.08497 0.0
H443 H 0.02877 0.63951 0.01401 0.0
C444 C 0.95459 0.67501 0.09615 0.0
C445 C 0.96824 0.69251 0.08978 0.0
C446 C 0.95959 0.65577 0.06237 0.0
C447 C 0.97829 0.65389 0.02175 0.0
C448 C 0.99229 0.67127 0.01794 0.0
H449 H 0.02007 0.5711 0.6795 0.0
H450 H 0.01471 0.60057 0.76374 0.0
C451 C 0.98733 0.6904 0.05203 0.0
C452 C 0.98186 0.6349 0.97625 0.0
H453 H 0.01864 0.59709 0.93071 0.0
C454 C 0.96616 0.62967 0.92597 0.0
C455 C 1.00091 0.62283 0.97883 0.0
C456 C 0.01789 0.62695 0.03392 0.0
C457 C 0.96919 0.61303 0.87717 0.0
C458 C 0.98839 0.60133 0.87878 0.0
C459 C 0.00403 0.60632 0.92936 0.0
C460 C 0.99216 0.58347 0.82916 0.0
C461 C 0.95205 0.60827 0.82322 0.0
C462 C 0.98134 0.56419 0.8387 0.0
C463 C 0.98438 0.5474 0.79113 0.0
C464 C 0.99826 0.54959 0.73278 0.0
C465 C 0.00919 0.56895 0.72359 0.0
C466 C 0.00623 0.58574 0.77172 0.0
H467 H 0.93952 0.6208 0.8221 0.0
H468 H 0.95903 0.60678 0.76916 0.0
H469 H 0.94445 0.59282 0.83656 0.0
H470 H 0.97048 0.56218 0.88295 0.0
H471 H 0.9757 0.53273 0.79995 0.0
H472 H 0.01242 0.22975 0.11144 0.0
H473 H 0.00571 0.19359 0.1565 0.0
H474 H 0.07029 0.19018 0.23396 0.0
H475 H 0.07698 0.22634 0.18744 0.0
H476 H 0.05473 0.15264 0.15609 0.0
H477 H 1.00049 0.17954 0.37243 0.0
H478 H 0.99431 0.18897 0.28435 0.0
H479 H 0.01836 0.19751 0.32723 0.0
C480 C 0.02508 0.22114 0.13813 0.0
C481 C 0.04511 0.23057 0.14687 0.0
C482 C 0.02128 0.20064 0.16383 0.0
C483 C 0.03746 0.18938 0.19906 0.0
C484 C 0.05761 0.19871 0.20701 0.0
H485 H 0.0566 0.0759 0.43434 0.0
H486 H 0.05934 0.10617 0.35371 0.0
C487 C 0.0614 0.21926 0.18114 0.0
C488 C 0.03321 0.16804 0.22898 0.0
H489 H 0.00564 0.14257 0.36 0.0
C490 C 0.04395 0.15037 0.20048 0.0
C491 C 0.01897 0.1652 0.28636 0.0
C492 C 0.00744 0.18378 0.31995 0.0
C493 C 0.04101 0.12986 0.22872 0.0
C494 C 0.02725 0.12712 0.28751 0.0
C495 C 0.01606 0.14472 0.31457 0.0
C496 C 0.02586 0.10673 0.32677 0.0
C497 C 0.05272 0.11134 0.19561 0.0
C498 C 0.0061 0.09688 0.3381 0.0
C499 C 0.00444 0.07956 0.38476 0.0
C500 C 0.02249 0.07209 0.42135 0.0
C501 C 0.04238 0.08135 0.40713 0.0
C502 C 0.04403 0.09855 0.36051 0.0
H503 H 0.05673 0.1146 0.13904 0.0
H504 H 0.06784 0.10867 0.22489 0.0
H505 H 0.04318 0.09647 0.1984 0.0
H506 H 0.99187 0.1031 0.31286 0.0
H507 H 0.98891 0.07278 0.39488 0.0
H508 H 0.28186 0.9597 0.07482 0.0
H509 H 0.31801 0.95156 0.11787 0.0
H510 H 0.30948 0.99637 0.28981 0.0
H511 H 0.27354 0.00445 0.24662 0.0
H512 H 0.35137 0.98231 0.13455 0.0
H513 H 0.33222 0.94177 0.38838 0.0
H514 H 0.31318 0.94453 0.31674 0.0
H515 H 0.31794 0.96636 0.37674 0.0
C516 C 0.28779 0.96758 0.1221 0.0
C517 C 0.2751 0.9825 0.15818 0.0
C518 C 0.30828 0.96294 0.14659 0.0
C519 C 0.31619 0.97314 0.20752 0.0
C520 C 0.30344 0.98799 0.24362 0.0
H521 H 0.42767 0.01982 0.37387 0.0
H522 H 0.39763 0.00997 0.29902 0.0
C523 C 0.28302 0.99261 0.21914 0.0
C524 C 0.33825 0.96954 0.23146 0.0
H525 H 0.36705 0.95769 0.38006 0.0
C526 C 0.3549 0.97638 0.18746 0.0
C527 C 0.34281 0.96157 0.30016 0.0
C528 C 0.3256 0.95293 0.34801 0.0
C529 C 0.37589 0.977 0.21254 0.0
C530 C 0.38014 0.97094 0.28366 0.0
C531 C 0.36374 0.96248 0.32564 0.0
C532 C 0.40051 0.97606 0.31892 0.0
C533 C 0.39316 0.98491 0.16358 0.0
C534 C 0.41216 0.96024 0.3548 0.0
C535 C 0.42935 0.96586 0.39814 0.0
C536 C 0.43488 0.98743 0.40688 0.0
C537 C 0.42376 0.00309 0.36829 0.0
C538 C 0.40671 0.99745 0.32488 0.0
H539 H 0.38922 0.98151 0.10702 0.0
H540 H 0.39464 0.00246 0.16934 0.0
H541 H 0.40875 0.9775 0.17652 0.0
H542 H 0.40744 0.94366 0.35136 0.0
H543 H 0.43758 0.95346 0.4275 0.0
H544 H 0.49776 0.26831 0.23393 0.0
H545 H 0.5076 0.30355 0.28066 0.0
H546 H 0.44584 0.32792 0.22079 0.0
H547 H 0.43633 0.29271 0.17272 0.0
H548 H 0.47907 0.35517 0.18415 0.0
H549 H 0.48568 0.32889 0.46608 0.0
H550 H 0.50193 0.31409 0.40495 0.0
H551 H 0.47344 0.31266 0.39826 0.0
C552 C 0.48633 0.28123 0.23177 0.0
C553 C 0.46622 0.27799 0.20138 0.0
C554 C 0.4919 0.30127 0.25817 0.0
C555 C 0.47732 0.31824 0.25514 0.0
C556 C 0.45728 0.31501 0.22386 0.0
H557 H 0.45935 0.44193 0.42219 0.0
H558 H 0.46018 0.41038 0.34635 0.0
C559 C 0.4518 0.295 0.19689 0.0
C560 C 0.48282 0.33932 0.28526 0.0
H561 H 0.49492 0.36448 0.44107 0.0
C562 C 0.48263 0.35722 0.24025 0.0
C563 C 0.48752 0.34191 0.35842 0.0
C564 C 0.48699 0.32343 0.40998 0.0
C565 C 0.48678 0.37773 0.26679 0.0
C566 C 0.49108 0.38033 0.34014 0.0
C567 C 0.49186 0.36237 0.38465 0.0
C568 C 0.49246 0.40158 0.37397 0.0
C569 C 0.48634 0.39646 0.21637 0.0
C570 C 0.51051 0.40733 0.41366 0.0
C571 C 0.51009 0.42544 0.45718 0.0
C572 C 0.49145 0.43773 0.46249 0.0
C573 C 0.47389 0.43263 0.41945 0.0
C574 C 0.47439 0.41471 0.37557 0.0
H575 H 0.4891 0.39137 0.16046 0.0
H576 H 0.47046 0.4042 0.21889 0.0
H577 H 0.4985 0.40848 0.23123 0.0
H578 H 0.52454 0.39727 0.41347 0.0
H579 H 0.52382 0.42898 0.49 0.0
H580 H 0.23517 0.48836 0.23674 0.0
H581 H 0.19991 0.49664 0.28516 0.0
H582 H 0.19038 0.54352 0.11964 0.0
H583 H 0.22579 0.53506 0.07119 0.0
H584 H 0.18374 0.53534 0.3348 0.0
H585 H 0.13845 0.50411 0.10276 0.0
H586 H 0.16684 0.50069 0.11125 0.0
H587 H 0.15597 0.52594 0.0838 0.0
C588 C 0.22554 0.50055 0.21146 0.0
C589 C 0.23294 0.51118 0.15083 0.0
C590 C 0.20549 0.50525 0.23879 0.0
C591 C 0.19256 0.52061 0.20565 0.0
C592 C 0.20007 0.53146 0.1454 0.0
H593 H 0.07397 0.54883 0.44018 0.0
H594 H 0.10531 0.55638 0.36633 0.0
C595 C 0.22017 0.5267 0.11795 0.0
C596 C 0.17111 0.52474 0.23435 0.0
H597 H 0.11845 0.51665 0.20027 0.0
C598 C 0.1694 0.5316 0.30519 0.0
C599 C 0.15253 0.51977 0.19527 0.0
C600 C 0.15346 0.51203 0.11925 0.0
C601 C 0.14963 0.53256 0.33941 0.0
C602 C 0.13112 0.52688 0.30106 0.0
C603 C 0.13272 0.52113 0.2291 0.0
C604 C 0.11068 0.52338 0.33767 0.0
C605 C 0.14885 0.53823 0.41749 0.0
C606 C 0.10299 0.50251 0.34342 0.0
C607 C 0.08522 0.49819 0.38498 0.0
C608 C 0.07477 0.51469 0.42148 0.0
C609 C 0.08178 0.53581 0.41271 0.0
C610 C 0.09969 0.54013 0.37098 0.0
H611 H 0.16497 0.53942 0.44143 0.0
H612 H 0.14075 0.55384 0.42408 0.0
H613 H 0.13963 0.52612 0.44752 0.0
H614 H 0.11127 0.48939 0.318 0.0
H615 H 0.08008 0.48178 0.39013 0.0
H616 H 0.97708 0.76106 0.98561 0.0
H617 H 0.97936 0.79751 0.93959 0.0
H618 H 0.93371 0.8183 0.0964 0.0
H619 H 0.93124 0.78153 0.14182 0.0
H620 H 0.94723 0.82504 0.88631 0.0
H621 H 0.98647 0.85689 0.12992 0.0
H622 H 0.98466 0.8287 0.11143 0.0
H623 H 0.96177 0.843 0.14262 0.0
C624 C 0.96703 0.77329 0.00852 0.0
C625 C 0.95369 0.76856 0.06616 0.0
C626 C 0.96854 0.79411 0.98299 0.0
C627 C 0.95691 0.8106 0.01522 0.0
C628 C 0.94303 0.80582 0.07147 0.0
H629 H 0.94801 0.93572 0.8187 0.0
H630 H 0.94011 0.90444 0.89178 0.0
C631 C 0.94144 0.7849 0.0968 0.0
C632 C 0.95974 0.83273 0.98979 0.0
H633 H 0.98057 0.88116 0.03541 0.0
C634 C 0.95432 0.83738 0.91905 0.0
C635 C 0.96927 0.84864 0.0326 0.0
C636 C 0.97606 0.84415 0.10826 0.0
C637 C 0.95837 0.85748 0.88951 0.0
C638 C 0.96782 0.87344 0.93225 0.0
C639 C 0.97315 0.8689 0.00321 0.0
C640 C 0.97296 0.8946 0.90215 0.0
C641 C 0.9531 0.86131 0.81205 0.0
C642 C 0.99416 0.90002 0.88744 0.0
C643 C 0.99876 0.918 0.84601 0.0
C644 C 0.98215 0.93063 0.81859 0.0
C645 C 0.96109 0.9261 0.83847 0.0
C646 C 0.95654 0.90826 0.88015 0.0
H647 H 0.94958 0.84623 0.78335 0.0
H648 H 0.9389 0.87178 0.80825 0.0
H649 H 0.96648 0.86946 0.78475 0.0
H650 H 0.00702 0.88963 0.90413 0.0
H651 H 0.01512 0.92108 0.8313 0.0
H652 H 0.72883 0.97912 0.06512 0.0
H653 H 0.69318 0.98719 0.01933 0.0
H654 H 0.70732 0.05449 0.02702 0.0
H655 H 0.74318 0.0462 0.07321 0.0
H656 H 0.66013 0.01328 0.07835 0.0
H657 H 0.69011 0.04318 0.81734 0.0
H658 H 0.70674 0.02806 0.87744 0.0
H659 H 0.70042 0.05535 0.89689 0.0
C660 C 0.72415 0.99559 0.05727 0.0
C661 C 0.73847 0.01209 0.07175 0.0
C662 C 0.70391 0.0002 0.03139 0.0
C663 C 0.69776 0.02141 0.01933 0.0
C664 C 0.71193 0.03802 0.03525 0.0
H665 H 0.583 0.04557 0.76351 0.0
H666 H 0.61223 0.05389 0.84564 0.0
C667 C 0.73226 0.03335 0.06133 0.0
C668 C 0.67677 0.02567 0.98712 0.0
H669 H 0.65339 0.03829 0.82867 0.0
C670 C 0.65856 0.01913 0.02423 0.0
C671 C 0.67484 0.03346 0.91675 0.0
C672 C 0.69401 0.04034 0.87428 0.0
C673 C 0.63856 0.01907 0.99133 0.0
C674 C 0.63686 0.02544 0.91934 0.0
C675 C 0.6548 0.03341 0.8839 0.0
C676 C 0.61759 0.02109 0.87679 0.0
C677 C 0.61956 0.01144 0.03311 0.0
C678 C 0.61103 -7e-05 0.86728 0.0
C679 C 0.59454 0.99513 0.8204 0.0
C680 C 0.58435 0.01142 0.78181 0.0
C681 C 0.59054 0.03271 0.79273 0.0
C682 C 0.60718 0.03749 0.83956 0.0
H683 H 0.62176 0.01426 0.09107 0.0
H684 H 0.60473 0.01952 0.01537 0.0
H685 H 0.61766 0.99401 0.02509 0.0
H686 H 0.6192 0.98699 0.89414 0.0
H687 H 0.59013 0.97858 0.81327 0.0
H688 H 0.5632 0.72021 0.91352 0.0
H689 H 0.55276 0.6847 0.87049 0.0
H690 H 0.50229 0.68279 0.02574 0.0
H691 H 0.51266 0.7185 0.068 0.0
H692 H 0.53121 0.64435 0.01412 0.0
H693 H 0.49538 0.67125 0.75893 0.0
H694 H 0.52096 0.68255 0.77915 0.0
H695 H 0.49855 0.68872 0.83473 0.0
C696 C 0.54974 0.71222 0.93751 0.0
C697 C 0.53845 0.72198 0.9929 0.0
C698 C 0.54383 0.69203 0.91332 0.0
C699 C 0.52662 0.68132 0.94456 0.0
C700 C 0.51553 0.69091 0.00082 0.0
H701 H 0.48676 0.56613 0.71684 0.0
H702 H 0.4829 0.59707 0.7959 0.0
C703 C 0.52139 0.71118 0.02476 0.0
C704 C 0.52054 0.65997 0.91837 0.0
H705 H 0.50388 0.63427 0.76861 0.0
C706 C 0.52482 0.64211 0.96106 0.0
C707 C 0.51195 0.65715 0.84954 0.0
C708 C 0.50624 0.67592 0.80295 0.0
C709 C 0.52197 0.62136 0.93479 0.0
C710 C 0.51494 0.61852 0.86383 0.0
C711 C 0.50933 0.63643 0.82296 0.0
C712 C 0.51602 0.59759 0.82752 0.0
C713 C 0.52706 0.6027 0.98262 0.0
C714 C 0.53578 0.5874 0.82034 0.0
C715 C 0.53802 0.56989 0.77536 0.0
C716 C 0.52056 0.56226 0.73624 0.0
C717 C 0.50047 0.57165 0.7465 0.0
C718 C 0.49826 0.58932 0.79149 0.0
H719 H 0.52461 0.60688 0.03952 0.0
H720 H 0.51713 0.58861 0.96945 0.0
H721 H 0.54404 0.59826 0.97589 0.0
H722 H 0.5498 0.59375 0.84628 0.0
H723 H 0.55368 0.56293 0.7688 0.0
H724 H 0.78678 0.45526 0.16082 0.0
H725 H 0.82295 0.44864 0.11462 0.0
H726 H 0.80933 0.48897 0.93403 0.0
H727 H 0.7736 0.49582 0.98063 0.0
H728 H 0.83385 0.43831 0.93414 0.0
H729 H 0.86519 0.50665 0.08786 0.0
H730 H 0.83929 0.4953 0.10477 0.0
H731 H 0.84291 0.51361 0.03247 0.0
C732 C 0.79157 0.46233 0.11075 0.0
C733 C 0.77757 0.47576 0.07341 0.0
C734 C 0.81203 0.45853 0.08448 0.0
C735 C 0.81852 0.46819 0.02082 0.0
C736 C 0.80437 0.48121 0.98283 0.0
H737 H 0.91239 0.51131 0.75859 0.0
H738 H 0.88356 0.50249 0.83911 0.0
C739 C 0.78404 0.48501 0.00906 0.0
C740 C 0.84056 0.4664 0.99571 0.0
H741 H 0.88585 0.49579 0.98429 0.0
C742 C 0.84558 0.45045 0.94627 0.0
C743 C 0.8555 0.48245 0.01173 0.0
C744 C 0.85049 0.50038 0.0626 0.0
C745 C 0.86477 0.45104 0.90822 0.0
C746 C 0.87925 0.46783 0.92139 0.0
C747 C 0.87478 0.48285 0.97473 0.0
C748 C 0.89713 0.47237 0.87288 0.0
C749 C 0.86865 0.43478 0.85045 0.0
C750 C 0.91432 0.45826 0.86494 0.0
C751 C 0.9309 0.4632 0.818 0.0
C752 C 0.9305 0.4824 0.77925 0.0
C753 C 0.91326 0.49643 0.78781 0.0
C754 C 0.89675 0.49144 0.83396 0.0
H755 H 0.85455 0.42451 0.84101 0.0
H756 H 0.87289 0.44284 0.79976 0.0
H757 H 0.8822 0.42439 0.86595 0.0
H758 H 0.915 0.44358 0.89529 0.0
H759 H 0.94406 0.45214 0.81261 0.0
H760 H 0.07456 0.22637 0.01501 0.0
H761 H 0.06728 0.19488 0.94157 0.0
H762 H 0.00501 0.21999 0.89218 0.0
H763 H 0.01253 0.25157 0.96535 0.0
H764 H 0.03445 0.16728 0.97464 0.0
H765 H 0.02578 0.19816 0.69882 0.0
H766 H 0.03862 0.21321 0.76859 0.0
H767 H 0.01009 0.212 0.76404 0.0
C768 C 0.05968 0.2254 0.98611 0.0
C769 C 0.04422 0.24135 0.9944 0.0
C770 C 0.05545 0.20744 0.94485 0.0
C771 C 0.03567 0.20518 0.91114 0.0
C772 C 0.02054 0.22163 0.91654 0.0
H773 H 0.9734 0.10192 0.69013 0.0
H774 H 0.98193 0.13445 0.75538 0.0
C775 C 0.02484 0.23968 0.9578 0.0
C776 C 0.03018 0.18472 0.87669 0.0
H777 H 0.01501 0.1624 0.71914 0.0
C778 C 0.03033 0.16616 0.91864 0.0
C779 C 0.02467 0.1834 0.80388 0.0
C780 C 0.02493 0.20271 0.75593 0.0
C781 C 0.02488 0.14629 0.88981 0.0
C782 C 0.01941 0.14498 0.81698 0.0
C783 C 0.0192 0.16353 0.77507 0.0
C784 C 0.01389 0.12453 0.78275 0.0
C785 C 0.02459 0.12696 0.93776 0.0
C786 C 0.02902 0.10813 0.77724 0.0
C787 C 0.0242 0.08947 0.74002 0.0
C788 C 0.00424 0.08705 0.70731 0.0
C789 C 0.98897 0.10333 0.71446 0.0
C790 C 0.99379 0.12193 0.75167 0.0
H791 H 0.02408 0.13148 0.99495 0.0
H792 H 0.01069 0.11667 0.92573 0.0
H793 H 0.03924 0.11744 0.92877 0.0
H794 H 0.04474 0.11001 0.79999 0.0
H795 H 0.0363 0.07722 0.7353 0.0
H796 H 0.25459 0.97824 0.93798 0.0
H797 H 0.2864 0.97969 0.86152 0.0
H798 H 0.31505 0.02489 0.0052 0.0
H799 H 0.28325 0.02347 0.0811 0.0
H800 H 0.31532 0.02371 0.81094 0.0
H801 H 0.34954 0.962 0.99222 0.0
H802 H 0.32159 0.96159 0.96967 0.0
H803 H 0.33177 0.98237 0.02515 0.0
C804 C 0.26739 0.98905 0.9514 0.0
C805 C 0.2666 0.00083 0.01479 0.0
C806 C 0.28554 0.98979 0.90819 0.0
C807 C 0.30302 0.00239 0.92791 0.0
C808 C 0.30166 0.01519 0.98895 0.0
H809 H 0.42775 0.01918 0.72602 0.0
H810 H 0.39449 0.02515 0.79136 0.0
C811 C 0.28357 0.01441 0.03205 0.0
C812 C 0.32354 0.00026 0.88993 0.0
H813 H 0.37049 0.97283 0.89521 0.0
C814 C 0.32745 0.01267 0.82923 0.0
C815 C 0.33923 0.98579 0.91408 0.0
C816 C 0.33553 0.97208 0.97885 0.0
C817 C 0.34672 0.01081 0.79156 0.0
C818 C 0.36249 0.99635 0.81593 0.0
C819 C 0.35848 0.98399 0.87681 0.0
C820 C 0.38285 0.99297 0.77732 0.0
C821 C 0.34984 0.02391 0.72499 0.0
C822 C 0.38767 0.97276 0.74961 0.0
C823 C 0.40666 0.96926 0.71283 0.0
C824 C 0.42139 0.98588 0.70323 0.0
C825 C 0.41675 0.00604 0.73231 0.0
C826 C 0.39766 0.00954 0.76914 0.0
H827 H 0.33458 0.03057 0.70484 0.0
H828 H 0.36063 0.03742 0.73693 0.0
H829 H 0.35725 0.01418 0.68227 0.0
H830 H 0.37655 0.9597 0.75565 0.0
H831 H 0.40968 0.95352 0.69132 0.0
H832 H 0.49511 0.27266 0.06039 0.0
H833 H 0.49792 0.30596 0.99183 0.0
H834 H 0.43 0.30569 0.95889 0.0
H835 H 0.42737 0.27231 0.02764 0.0
H836 H 0.48275 0.31874 0.84803 0.0
H837 H 0.44491 0.36177 0.07403 0.0
H838 H 0.45624 0.33543 0.08285 0.0
H839 H 0.43086 0.33887 0.04057 0.0
C840 C 0.48099 0.27942 0.03611 0.0
C841 C 0.46109 0.27002 0.04787 0.0
C842 C 0.48253 0.29842 0.99759 0.0
C843 C 0.46414 0.30834 0.971 0.0
C844 C 0.44435 0.2983 0.97937 0.0
H845 H 0.46275 0.42274 0.70492 0.0
H846 H 0.45551 0.38753 0.75531 0.0
C847 C 0.44285 0.27921 0.01769 0.0
C848 C 0.46556 0.32995 0.93963 0.0
H849 H 0.45372 0.3822 0.97277 0.0
C850 C 0.47627 0.33263 0.87484 0.0
C851 C 0.45748 0.34802 0.97577 0.0
C852 C 0.44684 0.34606 0.04746 0.0
C853 C 0.47902 0.35297 0.84485 0.0
C854 C 0.47055 0.37102 0.88027 0.0
C855 C 0.45994 0.36832 0.94532 0.0
C856 C 0.47339 0.39293 0.85212 0.0
C857 C 0.49154 0.35503 0.77668 0.0
C858 C 0.48503 0.40798 0.89127 0.0
C859 C 0.48908 0.42819 0.86291 0.0
C860 C 0.48146 0.43376 0.79491 0.0
C861 C 0.46895 0.41896 0.75728 0.0
C862 C 0.46492 0.39876 0.78572 0.0
H863 H 0.50109 0.34048 0.76544 0.0
H864 H 0.48038 0.3575 0.73159 0.0
H865 H 0.50241 0.36895 0.77899 0.0
H866 H 0.49156 0.40385 0.94291 0.0
H867 H 0.49871 0.4392 0.89341 0.0
H868 H 0.25095 0.51748 0.9299 0.0
H869 H 0.21846 0.51614 0.85657 0.0
H870 H 0.19207 0.46899 0.99821 0.0
H871 H 0.22456 0.47036 0.07105 0.0
H872 H 0.18451 0.46354 0.83693 0.0
H873 H 0.16262 0.54176 0.95513 0.0
H874 H 0.188 0.54076 0.91115 0.0
H875 H 0.18384 0.52537 0.99034 0.0
C876 C 0.23847 0.50633 0.94355 0.0
C877 C 0.24014 0.49393 0.00545 0.0
C878 C 0.21991 0.50568 0.90224 0.0
C879 C 0.20284 0.49253 0.92225 0.0
C880 C 0.20508 0.47914 0.98166 0.0
H881 H 0.07303 0.4785 0.7458 0.0
H882 H 0.10634 0.47182 0.8111 0.0
C883 C 0.22358 0.47989 0.02304 0.0
C884 C 0.18194 0.4944 0.88599 0.0
H885 H 0.13968 0.52813 0.8663 0.0
C886 C 0.17462 0.47761 0.84317 0.0
C887 C 0.1691 0.51274 0.89475 0.0
C888 C 0.17613 0.53116 0.94076 0.0
C889 C 0.15507 0.47902 0.80661 0.0
C890 C 0.14219 0.49745 0.81519 0.0
C891 C 0.14943 0.51398 0.85954 0.0
C892 C 0.12185 0.50076 0.77549 0.0
C893 C 0.14886 0.46113 0.75716 0.0
C894 C 0.11912 0.51945 0.73534 0.0
C895 C 0.10004 0.52351 0.69979 0.0
C896 C 0.08313 0.50888 0.70264 0.0
C897 C 0.08579 0.49003 0.74229 0.0
C898 C 0.10492 0.48612 0.77909 0.0
H899 H 0.16282 0.45125 0.74183 0.0
H900 H 0.13731 0.45059 0.7845 0.0
H901 H 0.14128 0.4674 0.70796 0.0
H902 H 0.13185 0.53102 0.73139 0.0
H903 H 0.09868 0.53813 0.66935 0.0
H904 H 0.94454 0.75596 0.2883 0.0
H905 H 0.95127 0.78889 0.35575 0.0
H906 H 0.00166 0.80512 0.20955 0.0
H907 H 0.99531 0.77185 0.14429 0.0
H908 H 0.01289 0.81429 0.34 0.0
H909 H 0.93268 0.84732 0.29068 0.0
H910 H 0.93119 0.82214 0.33573 0.0
H911 H 0.9422 0.82347 0.24733 0.0
C912 C 0.95735 0.76641 0.27221 0.0
C913 C 0.96948 0.76163 0.21184 0.0
C914 C 0.96093 0.78533 0.30957 0.0
C915 C 0.97649 0.79978 0.28613 0.0
C916 C 0.98938 0.79435 0.22793 0.0
H917 H 0.98539 0.9301 0.45784 0.0
H918 H 0.97832 0.90013 0.37699 0.0
C919 C 0.98591 0.77537 0.19113 0.0
C920 C 0.97953 0.82043 0.32277 0.0
H921 H 0.95313 0.8645 0.38311 0.0
C922 C 0.99985 0.82534 0.3488 0.0
C923 C 0.9627 0.83522 0.33207 0.0
C924 C 0.94105 0.83189 0.29918 0.0
C925 C 0.00355 0.84409 0.38718 0.0
C926 C 0.98628 0.85786 0.40228 0.0
C927 C 0.96622 0.85363 0.37288 0.0
C928 C 0.9887 0.87596 0.45184 0.0
C929 C 0.02595 0.84893 0.41127 0.0
C930 C 0.99606 0.87216 0.52121 0.0
C931 C 1.00039 0.88911 0.56663 0.0
C932 C 0.99696 0.91015 0.54408 0.0
C933 C 0.9883 0.91397 0.47619 0.0
C934 C 0.98426 0.89693 0.43011 0.0
H935 H 0.03788 0.84123 0.37599 0.0
H936 H 0.02899 0.86637 0.41212 0.0
H937 H 0.02836 0.84255 0.46582 0.0
H938 H 0.99889 0.85604 0.53975 0.0
H939 H 0.00662 0.88572 0.61927 0.0
H940 H 0.74747 0.95765 0.19295 0.0
H941 H 0.71457 0.95141 0.26134 0.0
H942 H 0.7098 0.01883 0.30368 0.0
H943 H 0.74241 0.02494 0.23492 0.0
H944 H 0.69999 0.98679 0.42549 0.0
H945 H 0.65629 0.97681 0.16918 0.0
H946 H 0.6807 0.96217 0.18264 0.0
H947 H 0.68141 0.99061 0.17417 0.0
C948 C 0.73973 0.97091 0.21927 0.0
C949 C 0.74745 0.99172 0.21002 0.0
C950 C 0.72091 0.96741 0.25751 0.0
C951 C 0.70977 0.98469 0.28727 0.0
C952 C 0.71822 0.00529 0.28144 0.0
H953 H 0.58642 0.02344 0.40076 0.0
H954 H 0.62038 0.01443 0.34582 0.0
C955 C 0.73683 0.00877 0.24272 0.0
C956 C 0.6884 0.98187 0.31907 0.0
H957 H 0.6359 0.97797 0.27392 0.0
C958 C 0.68596 0.98442 0.39277 0.0
C959 C 0.67019 0.97915 0.27576 0.0
C960 C 0.67206 0.9771 0.19593 0.0
C961 C 0.66568 0.9849 0.42426 0.0
C962 C 0.6474 0.98258 0.3808 0.0
C963 C 0.64992 0.97946 0.30723 0.0
C964 C 0.62562 0.98611 0.40932 0.0
C965 C 0.66392 0.98909 0.50316 0.0
C966 C 0.61686 0.97274 0.46172 0.0
C967 C 0.59725 0.97783 0.49328 0.0
C968 C 0.58621 0.99642 0.47302 0.0
C969 C 0.59457 0.00909 0.41798 0.0
C970 C 0.61399 0.00394 0.38635 0.0
H971 H 0.67937 0.99388 0.52696 0.0
H972 H 0.65205 0.00184 0.51368 0.0
H973 H 0.65846 0.97438 0.53041 0.0
H974 H 0.62543 0.95872 0.47952 0.0
H975 H 0.59126 0.96777 0.53562 0.0
H976 H 0.57781 0.71333 0.08016 0.0
H977 H 0.57661 0.68179 0.15779 0.0
H978 H 0.52875 0.71234 0.28674 0.0
H979 H 0.52991 0.74385 0.20856 0.0
H980 H 0.56883 0.68267 0.35369 0.0
H981 H 0.51394 0.64906 0.14892 0.0
H982 H 0.53634 0.66517 0.12261 0.0
H983 H 0.51437 0.67732 0.16762 0.0
C984 C 0.56759 0.71347 0.12652 0.0
C985 C 0.55403 0.73087 0.13902 0.0
C986 C 0.56689 0.69555 0.17061 0.0
C987 C 0.5526 0.69483 0.22776 0.0
C988 C 0.54001 0.71275 0.24314 0.0
H989 H 0.49211 0.5916 0.44611 0.0
H990 H 0.50222 0.62434 0.38503 0.0
C991 C 0.54073 0.73072 0.19895 0.0
C992 C 0.54878 0.67445 0.26507 0.0
H993 H 0.52101 0.628 0.24966 0.0
C994 C 0.55848 0.67062 0.3311 0.0
C995 C 0.53519 0.65893 0.23518 0.0
C996 C 0.52424 0.66264 0.16471 0.0
C997 C 0.55475 0.65155 0.36852 0.0
C998 C 0.54113 0.63599 0.33852 0.0
C999 C 0.53154 0.63989 0.27226 0.0
C1000 C 0.53554 0.61608 0.37662 0.0
C1001 C 0.56488 0.64841 0.44062 0.0
C1002 C 0.55092 0.60041 0.39146 0.0
C1003 C 0.54518 0.58153 0.42642 0.0
C1004 C 0.52394 0.57805 0.44689 0.0
C1005 C 0.50861 0.59374 0.43123 0.0
C1006 C 0.51435 0.6125 0.39632 0.0
H1007 H 0.57154 0.66349 0.46208 0.0
H1008 H 0.55313 0.64202 0.47921 0.0
H1009 H 0.57802 0.63665 0.43603 0.0
H1010 H 0.56731 0.60271 0.37554 0.0
H1011 H 0.55735 0.56974 0.43765 0.0
H1012 H 0.76273 0.4781 0.29492 0.0
H1013 H 0.7962 0.48195 0.36157 0.0
H1014 H 0.82001 0.52409 0.19852 0.0
H1015 H 0.78656 0.52002 0.13223 0.0
H1016 H 0.84665 0.49043 0.2251 0.0
H1017 H 0.82416 0.52878 0.47988 0.0
H1018 H 0.80845 0.50577 0.45839 0.0
H1019 H 0.80698 0.52906 0.40267 0.0
C1020 C 0.77486 0.48879 0.27515 0.0
C1021 C 0.77212 0.499 0.20934 0.0
C1022 C 0.79398 0.49097 0.31294 0.0
C1023 C 0.8106 0.50349 0.28547 0.0
C1024 C 0.8074 0.51447 0.22108 0.0
H1025 H 0.93222 0.52222 0.51082 0.0
H1026 H 0.89888 0.52898 0.4461 0.0
C1027 C 0.7883 0.51229 0.1835 0.0
C1028 C 0.83203 0.50324 0.31939 0.0
H1029 H 0.85856 0.51233 0.47542 0.0
C1030 C 0.84929 0.49562 0.27934 0.0
C1031 C 0.83554 0.50989 0.39043 0.0
C1032 C 0.81785 0.51903 0.43524 0.0
C1033 C 0.8698 0.49404 0.30852 0.0
C1034 C 0.87313 0.49969 0.3806 0.0
C1035 C 0.85602 0.50789 0.42027 0.0
C1036 C 0.89391 0.49599 0.41673 0.0
C1037 C 0.88771 0.48629 0.26168 0.0
C1038 C 0.90223 0.47526 0.42163 0.0
C1039 C 0.92122 0.47138 0.4582 0.0
C1040 C 0.93235 0.48814 0.49122 0.0
C1041 C 0.92418 0.50899 0.48544 0.0
C1042 C 0.90506 0.51285 0.44886 0.0
H1043 H 0.88418 0.48907 0.20442 0.0
H1044 H 0.90291 0.49433 0.2752 0.0
H1045 H 0.88983 0.46887 0.26946 0.0
H1046 H 0.89375 0.46193 0.39853 0.0
H1047 H 0.92695 0.45511 0.46182 0.0
loop_
_geom_bond_atom_site_label_1
_geom_bond_atom_site_label_2
_geom_bond_distance
_geom_bond_site_symmetry_2
_ccdc_geom_bond_type
C0 N1 1.317 . S
C0 N2 1.348 . S
C0 C3 1.485 . S
N1 C0 1.317 . S
N1 N5 1.370 . S
N2 C0 1.348 . S
N2 C4 1.346 1_554 S
C3 C0 1.485 . S
C3 H7 0.960 . S
C3 H8 0.961 . S
C3 H9 0.960 . S
C4 N2 1.346 1_556 S
C4 N5 1.307 1_556 S
C4 C6 1.486 . S
N5 N1 1.370 . S
N5 C4 1.307 1_554 S
C6 C4 1.486 . S
C6 H10 0.960 . S
C6 H11 0.960 . S
C6 H12 0.959 . S
H7 C3 0.960 . S
H8 C3 0.961 . S
H9 C3 0.960 . S
H10 C6 0.960 . S
H11 C6 0.960 . S
H12 C6 0.959 . S
C13 N14 1.317 . S
C13 N15 1.348 . S
C13 C16 1.485 . S
N14 C13 1.317 . S
N14 N18 1.370 . S
N15 C13 1.348 . S
N15 C17 1.346 1_554 S
C16 C13 1.485 . S
C16 H20 0.960 . S
C16 H21 0.961 . S
C16 H22 0.960 . S
C17 N15 1.346 1_556 S
C17 N18 1.307 1_556 S
C17 C19 1.486 . S
N18 N14 1.370 . S
N18 C17 1.307 1_554 S
C19 C17 1.486 . S
C19 H23 0.960 . S
C19 H24 0.960 . S
C19 H25 0.959 . S
H20 C16 0.960 . S
H21 C16 0.961 . S
H22 C16 0.960 . S
H23 C19 0.960 . S
H24 C19 0.960 . S
H25 C19 0.959 . S
C26 N27 1.317 . S
C26 N28 1.350 . S
C26 C29 1.485 . S
N27 C26 1.317 . S
N27 N31 1.371 . S
N28 C26 1.350 . S
N28 C30 1.345 1_564 S
C29 C26 1.485 . S
C29 H33 0.960 1_565 S
C29 H34 0.961 . S
C29 H35 0.960 . S
C30 N28 1.345 1_546 S
C30 N31 1.307 1_546 S
C30 C32 1.485 . S
N31 N27 1.371 . S
N31 C30 1.307 1_564 S
C32 C30 1.485 . S
C32 H36 0.924 1_545 S
C32 H37 0.990 . S
C32 H38 0.967 . S
H33 C29 0.960 1_545 S
H34 C29 0.961 . S
H35 C29 0.960 . S
H36 C32 0.924 1_565 S
H37 C32 0.990 . S
H38 C32 0.967 . S
C39 N40 1.317 . S
C39 N41 1.348 . S
C39 C42 1.485 . S
N40 C39 1.317 . S
N40 N44 1.370 . S
N41 C39 1.348 . S
N41 C43 1.346 1_554 S
C42 C39 1.485 . S
C42 H46 0.960 . S
C42 H47 0.961 . S
C42 H48 0.960 . S
C43 N41 1.346 1_556 S
C43 N44 1.307 1_556 S
C43 C45 1.486 . S
N44 N40 1.370 . S
N44 C43 1.307 1_554 S
C45 C43 1.486 . S
C45 H49 0.960 . S
C45 H50 0.960 . S
C45 H51 0.959 . S
H46 C42 0.960 . S
H47 C42 0.961 . S
H48 C42 0.960 . S
H49 C45 0.960 . S
H50 C45 0.960 . S
H51 C45 0.959 . S
C52 N53 1.317 . S
C52 N54 1.348 . S
C52 C55 1.485 . S
N53 C52 1.317 . S
N53 N57 1.370 . S
N54 C52 1.348 . S
N54 C56 1.346 . S
C55 C52 1.485 . S
C55 H59 0.960 . S
C55 H60 0.961 . S
C55 H61 0.960 . S
C56 N54 1.346 . S
C56 N57 1.307 . S
C56 C58 1.486 . S
N57 N53 1.370 . S
N57 C56 1.307 . S
C58 C56 1.486 . S
C58 H62 0.960 . S
C58 H63 0.960 . S
C58 H64 0.959 . S
H59 C55 0.960 . S
H60 C55 0.961 . S
H61 C55 0.960 . S
H62 C58 0.960 . S
H63 C58 0.960 . S
H64 C58 0.959 . S
C65 N66 1.317 . S
C65 N67 1.348 . S
C65 C68 1.485 . S
N66 C65 1.317 . S
N66 N70 1.370 . S
N67 C65 1.348 . S
N67 C69 1.346 . S
C68 C65 1.485 . S
C68 H72 0.960 . S
C68 H73 0.961 . S
C68 H74 0.960 . S
C69 N67 1.346 . S
C69 N70 1.307 . S
C69 C71 1.486 . S
N70 N66 1.370 . S
N70 C69 1.307 . S
C71 C69 1.486 . S
C71 H75 0.960 . S
C71 H76 0.960 . S
C71 H77 0.959 . S
H72 C68 0.960 . S
H73 C68 0.961 . S
H74 C68 0.960 . S
H75 C71 0.960 . S
H76 C71 0.960 . S
H77 C71 0.959 . S
C78 N79 1.317 . S
C78 N80 1.350 . S
C78 C81 1.485 . S
N79 C78 1.317 . S
N79 N83 1.370 . S
N80 C78 1.350 . S
N80 C82 1.345 1_565 S
C81 C78 1.485 . S
C81 H85 0.960 1_565 S
C81 H86 0.961 . S
C81 H87 0.960 . S
C82 N80 1.345 1_545 S
C82 N83 1.307 1_545 S
C82 C84 1.485 . S
N83 N79 1.370 . S
N83 C82 1.307 1_565 S
C84 C82 1.485 . S
C84 H88 0.913 1_545 S
C84 H89 0.999 . S
C84 H90 0.970 . S
H85 C81 0.960 1_545 S
H86 C81 0.961 . S
H87 C81 0.960 . S
H88 C84 0.913 1_565 S
H89 C84 0.999 . S
H90 C84 0.970 . S
C91 N92 1.317 . S
C91 N93 1.348 . S
C91 C94 1.485 . S
N92 C91 1.317 . S
N92 N96 1.370 . S
N93 C91 1.348 . S
N93 C95 1.346 . S
C94 C91 1.485 . S
C94 H98 0.960 . S
C94 H99 0.961 . S
C94 H100 0.960 . S
C95 N93 1.346 . S
C95 N96 1.307 . S
C95 C97 1.486 . S
N96 N92 1.370 . S
N96 C95 1.307 . S
C97 C95 1.486 . S
C97 H101 0.960 . S
C97 H102 0.960 . S
C97 H103 0.959 . S
H98 C94 0.960 . S
H99 C94 0.961 . S
H100 C94 0.960 . S
H101 C97 0.960 . S
H102 C97 0.960 . S
H103 C97 0.959 . S
Zn104 O110 1.969 1_455 S
Zn104 O111 1.965 . S
Zn104 O115 2.024 . S
Zn104 O120 1.969 1_455 S
Zn105 O112 1.969 . S
Zn105 O118 1.969 . S
Zn105 O119 1.965 1_455 S
Zn105 O121 2.024 1_455 S
C106 O107 1.229 . S
C106 O115 1.058 . S
O107 C106 1.229 . S
C108 O109 1.229 1_655 S
C108 O121 1.058 . S
O109 C108 1.229 1_455 S
O110 Zn104 1.969 1_655 S
O110 C113 1.267 1_655 S
O111 Zn104 1.965 . S
O111 C122 1.260 1_545 S
O112 Zn105 1.969 . S
O112 C122 1.258 . S
C113 O110 1.267 1_455 S
C113 O114 1.228 . S
O114 C113 1.228 . S
O115 Zn104 2.024 . S
O115 C106 1.058 . S
C116 O117 1.228 . S
C116 O118 1.267 1_655 S
O117 C116 1.228 . S
O118 Zn105 1.969 . S
O118 C116 1.267 1_455 S
O119 Zn105 1.965 1_655 S
O119 C123 1.260 1_565 S
O120 Zn104 1.969 1_655 S
O120 C123 1.258 . S
O121 Zn105 2.024 1_655 S
O121 C108 1.058 . S
C122 O111 1.260 1_565 S
C122 O112 1.258 . S
C123 O119 1.260 1_545 S
C123 O120 1.258 . S
Zn124 O130 1.969 . S
Zn124 O131 1.965 1_565 S
Zn124 O135 2.024 1_565 S
Zn124 O140 1.969 . S
Zn125 O132 1.969 . S
Zn125 O138 1.969 . S
Zn125 O139 1.965 1_545 S
Zn125 O141 2.024 1_545 S
C126 O127 1.229 1_545 S
C126 O135 1.058 . S
O127 C126 1.229 1_565 S
C128 O129 1.229 1_565 S
C128 O141 1.058 . S
O129 C128 1.229 1_545 S
O130 Zn124 1.969 . S
O130 C133 1.267 . S
O131 Zn124 1.965 1_545 S
O131 C142 1.260 . S
O132 Zn125 1.969 . S
O132 C142 1.258 . S
C133 O130 1.267 . S
C133 O134 1.228 1_565 S
O134 C133 1.228 1_545 S
O135 Zn124 2.024 1_545 S
O135 C126 1.058 . S
C136 O137 1.228 1_545 S
C136 O138 1.267 . S
O137 C136 1.228 1_565 S
O138 Zn125 1.969 . S
O138 C136 1.267 . S
O139 Zn125 1.965 1_565 S
O139 C143 1.260 . S
O140 Zn124 1.969 . S
O140 C143 1.258 . S
O141 Zn125 2.024 1_565 S
O141 C128 1.058 . S
C142 O131 1.260 . S
C142 O132 1.258 . S
C143 O139 1.260 . S
C143 O140 1.258 . S
Zn144 O150 1.969 . S
Zn144 O151 1.965 . S
Zn144 O155 2.024 . S
Zn144 O160 1.969 . S
Zn145 O152 1.969 . S
Zn145 O158 1.969 . S
Zn145 O159 1.965 . S
Zn145 O161 2.024 . S
C146 O147 1.229 . S
C146 O155 1.058 . S
O147 C146 1.229 . S
C148 O149 1.229 . S
C148 O161 1.058 . S
O149 C148 1.229 . S
O150 Zn144 1.969 . S
O150 C153 1.267 . S
O151 Zn144 1.965 . S
O151 C162 1.260 . S
O152 Zn145 1.969 . S
O152 C162 1.258 . S
C153 O150 1.267 . S
C153 O154 1.228 . S
O154 C153 1.228 . S
O155 Zn144 2.024 . S
O155 C146 1.058 . S
C156 O157 1.228 . S
C156 O158 1.267 . S
O157 C156 1.228 . S
O158 Zn145 1.969 . S
O158 C156 1.267 . S
O159 Zn145 1.965 . S
O159 C163 1.260 . S
O160 Zn144 1.969 . S
O160 C163 1.258 . S
O161 Zn145 2.024 . S
O161 C148 1.058 . S
C162 O151 1.260 . S
C162 O152 1.258 . S
C163 O159 1.260 . S
C163 O160 1.258 . S
Zn164 O170 1.969 . S
Zn164 O171 1.965 . S
Zn164 O175 2.024 . S
Zn164 O180 1.969 . S
Zn165 O172 1.969 . S
Zn165 O178 1.969 . S
Zn165 O179 1.965 . S
Zn165 O181 2.024 . S
C166 O167 1.229 . S
C166 O175 1.058 . S
O167 C166 1.229 . S
C168 O169 1.229 . S
C168 O181 1.058 . S
O169 C168 1.229 . S
O170 Zn164 1.969 . S
O170 C173 1.267 . S
O171 Zn164 1.965 . S
O171 C182 1.260 . S
O172 Zn165 1.969 . S
O172 C182 1.258 1_655 S
C173 O170 1.267 . S
C173 O174 1.228 . S
O174 C173 1.228 . S
O175 Zn164 2.024 . S
O175 C166 1.058 . S
C176 O177 1.228 . S
C176 O178 1.267 . S
O177 C176 1.228 . S
O178 Zn165 1.969 . S
O178 C176 1.267 . S
O179 Zn165 1.965 . S
O179 C183 1.260 1_655 S
O180 Zn164 1.969 . S
O180 C183 1.258 . S
O181 Zn165 2.024 . S
O181 C168 1.058 . S
C182 O171 1.260 . S
C182 O172 1.258 1_455 S
C183 O179 1.260 1_455 S
C183 O180 1.258 . S
H184 C192 0.929 . S
H185 C194 0.930 . S
H186 C196 0.930 . S
H187 C199 0.929 . S
H188 C202 0.930 . S
H189 C204 0.960 . S
H190 C204 0.960 . S
H191 C204 0.960 . S
C192 H184 0.929 . S
C192 C193 1.376 . S
C192 C194 1.384 . S
C193 C192 1.376 . S
C193 C199 1.391 1_545 S
C194 H185 0.930 . S
C194 C192 1.384 . S
C194 C195 1.400 . S
C195 C194 1.400 . S
C195 C196 1.371 1_545 S
C195 C200 1.491 . S
C196 H186 0.930 . S
C196 C195 1.371 1_565 S
C196 C199 1.386 . S
H197 C213 0.930 . S
H198 C214 0.931 . S
C199 H187 0.929 . S
C199 C193 1.391 1_565 S
C199 C196 1.386 . S
C200 C195 1.491 . S
C200 C202 1.395 . S
C200 C203 1.403 1_545 S
H201 C207 0.930 . S
C202 H188 0.930 . S
C202 C200 1.395 . S
C202 C205 1.403 . S
C203 C200 1.403 1_565 S
C203 C204 1.524 . S
C203 C207 1.400 . S
C204 H189 0.960 . S
C204 H190 0.960 . S
C204 H191 0.960 . S
C204 C203 1.524 . S
C205 C202 1.403 . S
C205 C206 1.392 . S
C205 C209 1.495 . S
C206 C205 1.392 . S
C206 C207 1.385 1_545 S
C206 C208 1.478 . S
C207 H201 0.930 . S
C207 C203 1.400 . S
C207 C206 1.385 1_565 S
C208 C206 1.478 . S
C208 C210 1.381 . S
C208 C214 1.383 1_545 S
C209 C205 1.495 . S
C209 H215 0.959 . S
C209 H216 0.961 . S
C209 H217 0.960 . S
C210 C208 1.381 . S
C210 C211 1.394 . S
C210 H218 0.930 . S
C211 C210 1.394 . S
C211 C212 1.400 . S
C211 H219 0.929 . S
C212 C211 1.400 . S
C212 C213 1.362 1_545 S
C213 H197 0.930 . S
C213 C212 1.362 1_565 S
C213 C214 1.379 . S
C214 H198 0.931 . S
C214 C208 1.383 1_565 S
C214 C213 1.379 . S
H215 C209 0.959 . S
H216 C209 0.961 . S
H217 C209 0.960 . S
H218 C210 0.930 . S
H219 C211 0.929 . S
H220 C228 0.929 . S
H221 C230 0.930 . S
H222 C232 0.930 . S
H223 C235 0.929 . S
H224 C238 0.930 . S
H225 C240 0.960 . S
H226 C240 0.960 . S
H227 C240 0.960 . S
C228 H220 0.929 . S
C228 C229 1.377 . S
C228 C230 1.384 . S
C229 C228 1.377 . S
C229 C235 1.390 . S
C230 H221 0.930 . S
C230 C228 1.384 . S
C230 C231 1.372 . S
C231 C230 1.372 . S
C231 C232 1.400 . S
C231 C236 1.490 . S
C232 H222 0.930 . S
C232 C231 1.400 . S
C232 C235 1.386 . S
H233 C249 0.930 . S
H234 C250 0.931 . S
C235 H223 0.929 . S
C235 C229 1.390 . S
C235 C232 1.386 . S
C236 C231 1.490 . S
C236 C238 1.395 . S
C236 C239 1.403 . S
H237 C243 0.930 . S
C238 H224 0.930 . S
C238 C236 1.395 . S
C238 C241 1.403 . S
C239 C236 1.403 . S
C239 C240 1.524 . S
C239 C243 1.400 . S
C240 H225 0.960 . S
C240 H226 0.960 . S
C240 H227 0.960 . S
C240 C239 1.524 . S
C241 C238 1.403 . S
C241 C242 1.392 . S
C241 C245 1.495 . S
C242 C241 1.392 . S
C242 C243 1.385 . S
C242 C244 1.478 . S
C243 H237 0.930 . S
C243 C239 1.400 . S
C243 C242 1.385 . S
C244 C242 1.478 . S
C244 C246 1.381 . S
C244 C250 1.383 . S
C245 C241 1.495 . S
C245 H251 0.959 . S
C245 H252 0.961 . S
C245 H253 0.960 . S
C246 C244 1.381 . S
C246 C247 1.394 . S
C246 H254 0.930 . S
C247 C246 1.394 . S
C247 C248 1.383 . S
C247 H255 0.929 . S
C248 C247 1.383 . S
C248 C249 1.377 . S
C249 H233 0.930 . S
C249 C248 1.377 . S
C249 C250 1.379 . S
C250 H234 0.931 . S
C250 C244 1.383 . S
C250 C249 1.379 . S
H251 C245 0.959 . S
H252 C245 0.961 . S
H253 C245 0.960 . S
H254 C246 0.930 . S
H255 C247 0.929 . S
H256 C264 0.929 . S
H257 C266 0.930 . S
H258 C268 0.930 . S
H259 C271 0.929 . S
H260 C274 0.930 . S
H261 C276 0.960 . S
H262 C276 0.960 . S
H263 C276 0.960 . S
C264 H256 0.929 . S
C264 C265 1.377 . S
C264 C266 1.384 . S
C265 C264 1.377 . S
C265 C271 1.390 . S
C266 H257 0.930 . S
C266 C264 1.384 . S
C266 C267 1.372 . S
C267 C266 1.372 . S
C267 C268 1.400 . S
C267 C272 1.490 . S
C268 H258 0.930 . S
C268 C267 1.400 . S
C268 C271 1.386 . S
H269 C285 0.930 . S
H270 C286 0.931 . S
C271 H259 0.929 . S
C271 C265 1.390 . S
C271 C268 1.386 . S
C272 C267 1.490 . S
C272 C274 1.395 . S
C272 C275 1.403 . S
H273 C279 0.930 . S
C274 H260 0.930 . S
C274 C272 1.395 . S
C274 C277 1.403 . S
C275 C272 1.403 . S
C275 C276 1.524 . S
C275 C279 1.400 . S
C276 H261 0.960 . S
C276 H262 0.960 . S
C276 H263 0.960 . S
C276 C275 1.524 . S
C277 C274 1.403 . S
C277 C278 1.392 . S
C277 C281 1.495 . S
C278 C277 1.392 . S
C278 C279 1.385 . S
C278 C280 1.478 . S
C279 H273 0.930 . S
C279 C275 1.400 . S
C279 C278 1.385 . S
C280 C278 1.478 . S
C280 C282 1.381 . S
C280 C286 1.383 . S
C281 C277 1.495 . S
C281 H287 0.959 . S
C281 H288 0.961 . S
C281 H289 0.960 . S
C282 C280 1.381 . S
C282 C283 1.394 . S
C282 H290 0.930 . S
C283 C282 1.394 . S
C283 C284 1.383 . S
C283 H291 0.929 . S
C284 C283 1.383 . S
C284 C285 1.377 . S
C285 H269 0.930 . S
C285 C284 1.377 . S
C285 C286 1.379 . S
C286 H270 0.931 . S
C286 C280 1.383 . S
C286 C285 1.379 . S
H287 C281 0.959 . S
H288 C281 0.961 . S
H289 C281 0.960 . S
H290 C282 0.930 . S
H291 C283 0.929 . S
H292 C300 0.929 . S
H293 C302 0.930 . S
H294 C304 0.930 . S
H295 C307 0.929 . S
H296 C310 0.930 . S
H297 C312 0.960 . S
H298 C312 0.960 . S
H299 C312 0.960 . S
C300 H292 0.929 . S
C300 C301 1.377 . S
C300 C302 1.384 . S
C301 C300 1.377 . S
C301 C307 1.390 . S
C302 H293 0.930 . S
C302 C300 1.384 . S
C302 C303 1.372 . S
C303 C302 1.372 . S
C303 C304 1.400 . S
C303 C308 1.490 . S
C304 H294 0.930 . S
C304 C303 1.400 . S
C304 C307 1.386 . S
H305 C321 0.930 . S
H306 C322 0.931 . S
C307 H295 0.929 . S
C307 C301 1.390 . S
C307 C304 1.386 . S
C308 C303 1.490 . S
C308 C310 1.395 . S
C308 C311 1.403 . S
H309 C315 0.930 . S
C310 H296 0.930 . S
C310 C308 1.395 . S
C310 C313 1.403 . S
C311 C308 1.403 . S
C311 C312 1.524 . S
C311 C315 1.400 . S
C312 H297 0.960 . S
C312 H298 0.960 . S
C312 H299 0.960 . S
C312 C311 1.524 . S
C313 C310 1.403 . S
C313 C314 1.392 . S
C313 C317 1.495 1_455 S
C314 C313 1.392 . S
C314 C315 1.385 . S
C314 C316 1.478 . S
C315 H309 0.930 . S
C315 C311 1.400 . S
C315 C314 1.385 . S
C316 C314 1.478 . S
C316 C318 1.381 . S
C316 C322 1.383 . S
C317 C313 1.495 1_655 S
C317 H323 0.959 . S
C317 H324 0.961 . S
C317 H325 0.960 . S
C318 C316 1.381 . S
C318 C319 1.394 . S
C318 H326 0.930 . S
C319 C318 1.394 . S
C319 C320 1.383 . S
C319 H327 0.929 . S
C320 C319 1.383 . S
C320 C321 1.377 . S
C321 H305 0.930 . S
C321 C320 1.377 . S
C321 C322 1.379 . S
C322 H306 0.931 . S
C322 C316 1.383 . S
C322 C321 1.379 . S
H323 C317 0.959 . S
H324 C317 0.961 . S
H325 C317 0.960 . S
H326 C318 0.930 . S
H327 C319 0.929 . S
H328 C336 0.929 . S
H329 C338 0.930 . S
H330 C340 0.930 1_554 S
H331 C343 0.929 . S
H332 C346 0.930 . S
H333 C348 0.960 . S
H334 C348 0.960 . S
H335 C348 0.960 1_554 S
C336 H328 0.929 . S
C336 C337 1.387 . S
C336 C338 1.384 . S
C337 C336 1.387 . S
C337 C343 1.384 1_566 S
C338 H329 0.930 . S
C338 C336 1.384 . S
C338 C339 1.379 . S
C339 C338 1.379 . S
C339 C340 1.393 1_565 S
C339 C344 1.490 1_565 S
C340 H330 0.930 1_556 S
C340 C339 1.393 1_545 S
C340 C343 1.386 1_556 S
H341 C357 0.930 . S
H342 C358 0.931 . S
C343 H331 0.929 . S
C343 C337 1.384 1_544 S
C343 C340 1.386 1_554 S
C344 C339 1.490 1_545 S
C344 C346 1.396 . S
C344 C347 1.401 1_545 S
H345 C351 0.930 . S
C346 H332 0.930 . S
C346 C344 1.396 . S
C346 C349 1.403 . S
C347 C344 1.401 1_565 S
C347 C348 1.524 . S
C347 C351 1.400 . S
C348 H333 0.960 . S
C348 H334 0.960 . S
C348 H335 0.960 1_556 S
C348 C347 1.524 . S
C349 C346 1.403 . S
C349 C350 1.392 . S
C349 C353 1.495 . S
C350 C349 1.392 . S
C350 C351 1.385 1_545 S
C350 C352 1.478 . S
C351 H345 0.930 . S
C351 C347 1.400 . S
C351 C350 1.385 1_565 S
C352 C350 1.478 . S
C352 C354 1.381 1_545 S
C352 C358 1.383 . S
C353 C349 1.495 . S
C353 H359 0.959 . S
C353 H360 0.961 . S
C353 H361 0.960 . S
C354 C352 1.381 1_565 S
C354 C355 1.394 . S
C354 H362 0.930 . S
C355 C354 1.394 . S
C355 C356 1.383 1_565 S
C355 H363 0.929 . S
C356 C355 1.383 1_545 S
C356 C357 1.377 . S
C357 H341 0.930 . S
C357 C356 1.377 . S
C357 C358 1.379 . S
C358 H342 0.931 . S
C358 C352 1.383 . S
C358 C357 1.379 . S
H359 C353 0.959 . S
H360 C353 0.961 . S
H361 C353 0.960 . S
H362 C354 0.930 . S
H363 C355 0.929 . S
H364 C372 0.929 . S
H365 C374 0.930 . S
H366 C376 0.930 . S
H367 C379 0.929 . S
H368 C382 0.930 . S
H369 C384 0.960 . S
H370 C384 0.960 1_554 S
H371 C384 0.960 . S
C372 H364 0.929 . S
C372 C373 1.377 . S
C372 C374 1.384 . S
C373 C372 1.377 . S
C373 C379 1.390 . S
C374 H365 0.930 . S
C374 C372 1.384 . S
C374 C375 1.372 . S
C375 C374 1.372 . S
C375 C376 1.400 . S
C375 C380 1.490 . S
C376 H366 0.930 . S
C376 C375 1.400 . S
C376 C379 1.386 . S
H377 C393 0.930 . S
H378 C394 0.931 . S
C379 H367 0.929 . S
C379 C373 1.390 . S
C379 C376 1.386 . S
C380 C375 1.490 . S
C380 C382 1.395 . S
C380 C383 1.403 . S
H381 C387 0.930 . S
C382 H368 0.930 . S
C382 C380 1.395 . S
C382 C385 1.403 . S
C383 C380 1.403 . S
C383 C384 1.524 . S
C383 C387 1.400 . S
C384 H369 0.960 . S
C384 H370 0.960 1_556 S
C384 H371 0.960 . S
C384 C383 1.524 . S
C385 C382 1.403 . S
C385 C386 1.392 . S
C385 C389 1.495 . S
C386 C385 1.392 . S
C386 C387 1.385 . S
C386 C388 1.478 . S
C387 H381 0.930 . S
C387 C383 1.400 . S
C387 C386 1.385 . S
C388 C386 1.478 . S
C388 C390 1.381 . S
C388 C394 1.383 . S
C389 C385 1.495 . S
C389 H395 0.959 . S
C389 H396 0.961 . S
C389 H397 0.960 . S
C390 C388 1.381 . S
C390 C391 1.394 . S
C390 H398 0.930 . S
C391 C390 1.394 . S
C391 C392 1.383 . S
C391 H399 0.929 . S
C392 C391 1.383 . S
C392 C393 1.377 . S
C393 H377 0.930 . S
C393 C392 1.377 . S
C393 C394 1.379 . S
C394 H378 0.931 . S
C394 C388 1.383 . S
C394 C393 1.379 . S
H395 C389 0.959 . S
H396 C389 0.961 . S
H397 C389 0.960 . S
H398 C390 0.930 . S
H399 C391 0.929 . S
H400 C408 0.929 . S
H401 C410 0.930 . S
H402 C412 0.930 . S
H403 C415 0.929 1_554 S
H404 C418 0.930 . S
H405 C420 0.960 . S
H406 C420 0.960 1_554 S
H407 C420 0.959 1_554 S
C408 H400 0.929 . S
C408 C409 1.375 1_556 S
C408 C410 1.384 . S
C409 C408 1.375 1_554 S
C409 C415 1.389 1_554 S
C410 H401 0.930 . S
C410 C408 1.384 . S
C410 C411 1.372 . S
C411 C410 1.372 . S
C411 C412 1.400 . S
C411 C416 1.490 . S
C412 H402 0.930 . S
C412 C411 1.400 . S
C412 C415 1.386 . S
H413 C429 0.930 . S
H414 C430 0.931 . S
C415 H403 0.929 1_556 S
C415 C409 1.389 1_556 S
C415 C412 1.386 . S
C416 C411 1.490 . S
C416 C418 1.395 . S
C416 C419 1.403 . S
H417 C423 0.930 . S
C418 H404 0.930 . S
C418 C416 1.395 . S
C418 C421 1.403 . S
C419 C416 1.403 . S
C419 C420 1.524 . S
C419 C423 1.400 . S
C420 H405 0.960 . S
C420 H406 0.960 1_556 S
C420 H407 0.959 1_556 S
C420 C419 1.524 . S
C421 C418 1.403 . S
C421 C422 1.392 . S
C421 C425 1.495 . S
C422 C421 1.392 . S
C422 C423 1.385 . S
C422 C424 1.478 . S
C423 H417 0.930 . S
C423 C419 1.400 . S
C423 C422 1.385 . S
C424 C422 1.478 . S
C424 C426 1.381 . S
C424 C430 1.383 . S
C425 C421 1.495 . S
C425 H431 0.959 . S
C425 H432 0.961 . S
C425 H433 0.960 . S
C426 C424 1.381 . S
C426 C427 1.394 . S
C426 H434 0.930 . S
C427 C426 1.394 . S
C427 C428 1.383 . S
C427 H435 0.929 . S
C428 C427 1.383 . S
C428 C429 1.377 . S
C429 H413 0.930 . S
C429 C428 1.377 . S
C429 C430 1.379 . S
C430 H414 0.931 . S
C430 C424 1.383 . S
C430 C429 1.379 . S
H431 C425 0.959 . S
H432 C425 0.961 . S
H433 C425 0.960 . S
H434 C426 0.930 . S
H435 C427 0.929 . S
H436 C444 0.929 . S
H437 C446 0.930 1_554 S
H438 C448 0.930 . S
H439 C451 0.929 . S
H440 C454 0.930 . S
H441 C456 0.960 . S
H442 C456 0.960 . S
H443 C456 0.960 . S
C444 H436 0.929 . S
C444 C445 1.377 1_554 S
C444 C446 1.384 1_554 S
C445 C444 1.377 1_556 S
C445 C451 1.390 . S
C446 H437 0.930 1_556 S
C446 C444 1.384 1_556 S
C446 C447 1.372 . S
C447 C446 1.372 . S
C447 C448 1.400 . S
C447 C452 1.490 . S
C448 H438 0.930 . S
C448 C447 1.400 . S
C448 C451 1.386 . S
H449 C465 0.930 1_455 S
H450 C466 0.931 . S
C451 H439 0.929 . S
C451 C445 1.390 . S
C451 C448 1.386 . S
C452 C447 1.490 . S
C452 C454 1.395 . S
C452 C455 1.403 . S
H453 C459 0.930 1_455 S
C454 H440 0.930 . S
C454 C452 1.395 . S
C454 C457 1.403 . S
C455 C452 1.403 . S
C455 C456 1.524 1_655 S
C455 C459 1.400 . S
C456 H441 0.960 . S
C456 H442 0.960 . S
C456 H443 0.960 . S
C456 C455 1.524 1_455 S
C457 C454 1.403 . S
C457 C458 1.392 . S
C457 C461 1.495 . S
C458 C457 1.392 . S
C458 C459 1.385 . S
C458 C460 1.478 . S
C459 H453 0.930 1_655 S
C459 C455 1.400 . S
C459 C458 1.385 . S
C460 C458 1.478 . S
C460 C462 1.381 . S
C460 C466 1.383 . S
C461 C457 1.495 . S
C461 H467 0.959 . S
C461 H468 0.961 . S
C461 H469 0.960 . S
C462 C460 1.381 . S
C462 C463 1.394 . S
C462 H470 0.930 . S
C463 C462 1.394 . S
C463 C464 1.383 . S
C463 H471 0.929 . S
C464 C463 1.383 . S
C464 C465 1.377 . S
C465 H449 0.930 1_655 S
C465 C464 1.377 . S
C465 C466 1.379 . S
C466 H450 0.931 . S
C466 C460 1.383 . S
C466 C465 1.379 . S
H467 C461 0.959 . S
H468 C461 0.961 . S
H469 C461 0.960 . S
H470 C462 0.930 . S
H471 C463 0.929 . S
H472 C480 0.929 . S
H473 C482 0.930 . S
H474 C484 0.930 . S
H475 C487 0.929 . S
H476 C490 0.930 . S
H477 C492 0.960 . S
H478 C492 0.960 . S
H479 C492 0.957 1_455 S
C480 H472 0.929 . S
C480 C481 1.377 . S
C480 C482 1.384 . S
C481 C480 1.377 . S
C481 C487 1.390 . S
C482 H473 0.930 . S
C482 C480 1.384 . S
C482 C483 1.372 . S
C483 C482 1.372 . S
C483 C484 1.400 . S
C483 C488 1.490 . S
C484 H474 0.930 . S
C484 C483 1.400 . S
C484 C487 1.386 . S
H485 C501 0.930 . S
H486 C502 0.931 . S
C487 H475 0.929 . S
C487 C481 1.390 . S
C487 C484 1.386 . S
C488 C483 1.490 . S
C488 C490 1.395 . S
C488 C491 1.403 . S
H489 C495 0.930 1_655 S
C490 H476 0.930 . S
C490 C488 1.395 . S
C490 C493 1.403 . S
C491 C488 1.403 . S
C491 C492 1.524 1_455 S
C491 C495 1.400 . S
C492 H477 0.960 . S
C492 H478 0.960 . S
C492 H479 0.957 1_655 S
C492 C491 1.524 1_655 S
C493 C490 1.403 . S
C493 C494 1.392 . S
C493 C497 1.495 . S
C494 C493 1.392 . S
C494 C495 1.385 . S
C494 C496 1.478 . S
C495 H489 0.930 1_455 S
C495 C491 1.400 . S
C495 C494 1.385 . S
C496 C494 1.478 . S
C496 C498 1.381 . S
C496 C502 1.383 . S
C497 C493 1.495 . S
C497 H503 0.959 . S
C497 H504 0.961 . S
C497 H505 0.960 . S
C498 C496 1.381 . S
C498 C499 1.394 . S
C498 H506 0.930 . S
C499 C498 1.394 . S
C499 C500 1.383 . S
C499 H507 0.929 . S
C500 C499 1.383 . S
C500 C501 1.377 . S
C501 H485 0.930 . S
C501 C500 1.377 . S
C501 C502 1.379 . S
C502 H486 0.931 . S
C502 C496 1.383 . S
C502 C501 1.379 . S
H503 C497 0.959 . S
H504 C497 0.961 . S
H505 C497 0.960 . S
H506 C498 0.930 . S
H507 C499 0.929 . S
H508 C516 0.929 . S
H509 C518 0.930 . S
H510 C520 0.930 . S
H511 C523 0.929 . S
H512 C526 0.930 . S
H513 C528 0.960 . S
H514 C528 0.960 . S
H515 C528 0.960 1_545 S
C516 H508 0.929 . S
C516 C517 1.378 . S
C516 C518 1.384 . S
C517 C516 1.378 . S
C517 C523 1.389 1_565 S
C518 H509 0.930 . S
C518 C516 1.384 . S
C518 C519 1.372 . S
C519 C518 1.372 . S
C519 C520 1.400 1_565 S
C519 C524 1.490 . S
C520 H510 0.930 . S
C520 C519 1.400 1_545 S
C520 C523 1.386 . S
H521 C537 0.930 . S
H522 C538 0.931 . S
C523 H511 0.929 . S
C523 C517 1.389 1_545 S
C523 C520 1.386 . S
C524 C519 1.490 . S
C524 C526 1.395 . S
C524 C527 1.403 . S
H525 C531 0.930 . S
C526 H512 0.930 . S
C526 C524 1.395 . S
C526 C529 1.403 . S
C527 C524 1.403 . S
C527 C528 1.524 . S
C527 C531 1.400 . S
C528 H513 0.960 . S
C528 H514 0.960 . S
C528 H515 0.960 1_565 S
C528 C527 1.524 . S
C529 C526 1.403 . S
C529 C530 1.392 . S
C529 C533 1.495 . S
C530 C529 1.392 . S
C530 C531 1.385 . S
C530 C532 1.478 . S
C531 H525 0.930 . S
C531 C527 1.400 . S
C531 C530 1.385 . S
C532 C530 1.478 . S
C532 C534 1.381 . S
C532 C538 1.383 1_565 S
C533 C529 1.495 . S
C533 H539 0.959 . S
C533 H540 0.961 1_565 S
C533 H541 0.960 . S
C534 C532 1.381 . S
C534 C535 1.394 . S
C534 H542 0.930 . S
C535 C534 1.394 . S
C535 C536 1.383 . S
C535 H543 0.929 . S
C536 C535 1.383 . S
C536 C537 1.377 1_565 S
C537 H521 0.930 . S
C537 C536 1.377 1_545 S
C537 C538 1.379 . S
C538 H522 0.931 . S
C538 C532 1.383 1_545 S
C538 C537 1.379 . S
H539 C533 0.959 . S
H540 C533 0.961 1_545 S
H541 C533 0.960 . S
H542 C534 0.930 . S
H543 C535 0.929 . S
H544 C552 0.929 . S
H545 C554 0.930 . S
H546 C556 0.930 . S
H547 C559 0.929 . S
H548 C562 0.930 . S
H549 C564 0.960 . S
H550 C564 0.960 . S
H551 C564 0.960 . S
C552 H544 0.929 . S
C552 C553 1.377 . S
C552 C554 1.384 . S
C553 C552 1.377 . S
C553 C559 1.390 . S
C554 H545 0.930 . S
C554 C552 1.384 . S
C554 C555 1.372 . S
C555 C554 1.372 . S
C555 C556 1.400 . S
C555 C560 1.490 . S
C556 H546 0.930 . S
C556 C555 1.400 . S
C556 C559 1.386 . S
H557 C573 0.930 . S
H558 C574 0.931 . S
C559 H547 0.929 . S
C559 C553 1.390 . S
C559 C556 1.386 . S
C560 C555 1.490 . S
C560 C562 1.395 . S
C560 C563 1.403 . S
H561 C567 0.930 . S
C562 H548 0.930 . S
C562 C560 1.395 . S
C562 C565 1.403 . S
C563 C560 1.403 . S
C563 C564 1.524 . S
C563 C567 1.400 . S
C564 H549 0.960 . S
C564 H550 0.960 . S
C564 H551 0.960 . S
C564 C563 1.524 . S
C565 C562 1.403 . S
C565 C566 1.392 . S
C565 C569 1.495 . S
C566 C565 1.392 . S
C566 C567 1.385 . S
C566 C568 1.478 . S
C567 H561 0.930 . S
C567 C563 1.400 . S
C567 C566 1.385 . S
C568 C566 1.478 . S
C568 C570 1.381 . S
C568 C574 1.383 . S
C569 C565 1.495 . S
C569 H575 0.959 . S
C569 H576 0.961 . S
C569 H577 0.960 . S
C570 C568 1.381 . S
C570 C571 1.394 . S
C570 H578 0.930 . S
C571 C570 1.394 . S
C571 C572 1.383 . S
C571 H579 0.929 . S
C572 C571 1.383 . S
C572 C573 1.377 . S
C573 H557 0.930 . S
C573 C572 1.377 . S
C573 C574 1.379 . S
C574 H558 0.931 . S
C574 C568 1.383 . S
C574 C573 1.379 . S
H575 C569 0.959 . S
H576 C569 0.961 . S
H577 C569 0.960 . S
H578 C570 0.930 . S
H579 C571 0.929 . S
H580 C588 0.929 . S
H581 C590 0.930 . S
H582 C592 0.930 . S
H583 C595 0.929 . S
H584 C598 0.930 . S
H585 C600 0.960 . S
H586 C600 0.960 . S
H587 C600 0.960 . S
C588 H580 0.929 . S
C588 C589 1.377 . S
C588 C590 1.384 . S
C589 C588 1.377 . S
C589 C595 1.390 . S
C590 H581 0.930 . S
C590 C588 1.384 . S
C590 C591 1.372 . S
C591 C590 1.372 . S
C591 C592 1.400 . S
C591 C596 1.490 . S
C592 H582 0.930 . S
C592 C591 1.400 . S
C592 C595 1.386 . S
H593 C609 0.930 . S
H594 C610 0.931 . S
C595 H583 0.929 . S
C595 C589 1.390 . S
C595 C592 1.386 . S
C596 C591 1.490 . S
C596 C598 1.395 . S
C596 C599 1.403 . S
H597 C603 0.930 . S
C598 H584 0.930 . S
C598 C596 1.395 . S
C598 C601 1.403 . S
C599 C596 1.403 . S
C599 C600 1.524 . S
C599 C603 1.400 . S
C600 H585 0.960 . S
C600 H586 0.960 . S
C600 H587 0.960 . S
C600 C599 1.524 . S
C601 C598 1.403 . S
C601 C602 1.392 . S
C601 C605 1.495 . S
C602 C601 1.392 . S
C602 C603 1.385 . S
C602 C604 1.478 . S
C603 H597 0.930 . S
C603 C599 1.400 . S
C603 C602 1.385 . S
C604 C602 1.478 . S
C604 C606 1.381 . S
C604 C610 1.383 . S
C605 C601 1.495 . S
C605 H611 0.959 . S
C605 H612 0.961 . S
C605 H613 0.960 . S
C606 C604 1.381 . S
C606 C607 1.394 . S
C606 H614 0.930 . S
C607 C606 1.394 . S
C607 C608 1.383 . S
C607 H615 0.929 . S
C608 C607 1.383 . S
C608 C609 1.377 . S
C609 H593 0.930 . S
C609 C608 1.377 . S
C609 C610 1.379 . S
C610 H594 0.931 . S
C610 C604 1.383 . S
C610 C609 1.379 . S
H611 C605 0.959 . S
H612 C605 0.961 . S
H613 C605 0.960 . S
H614 C606 0.930 . S
H615 C607 0.929 . S
H616 C624 0.929 . S
H617 C626 0.930 . S
H618 C628 0.930 . S
H619 C631 0.929 . S
H620 C634 0.930 . S
H621 C636 0.960 . S
H622 C636 0.960 . S
H623 C636 0.960 . S
C624 H616 0.929 . S
C624 C625 1.377 . S
C624 C626 1.384 . S
C625 C624 1.377 . S
C625 C631 1.390 1_556 S
C626 H617 0.930 . S
C626 C624 1.384 . S
C626 C627 1.372 . S
C627 C626 1.372 . S
C627 C628 1.400 . S
C627 C632 1.490 . S
C628 H618 0.930 . S
C628 C627 1.400 . S
C628 C631 1.386 1_556 S
H629 C645 0.930 . S
H630 C646 0.931 . S
C631 H619 0.929 . S
C631 C625 1.390 1_554 S
C631 C628 1.386 1_554 S
C632 C627 1.490 . S
C632 C634 1.395 . S
C632 C635 1.403 . S
H633 C639 0.930 . S
C634 H620 0.930 . S
C634 C632 1.395 . S
C634 C637 1.403 . S
C635 C632 1.403 . S
C635 C636 1.524 1_556 S
C635 C639 1.400 . S
C636 H621 0.960 . S
C636 H622 0.960 . S
C636 H623 0.960 . S
C636 C635 1.524 1_554 S
C637 C634 1.403 . S
C637 C638 1.392 . S
C637 C641 1.495 . S
C638 C637 1.392 . S
C638 C639 1.385 . S
C638 C640 1.478 . S
C639 H633 0.930 . S
C639 C635 1.400 . S
C639 C638 1.385 . S
C640 C638 1.478 . S
C640 C642 1.381 1_655 S
C640 C646 1.383 . S
C641 C637 1.495 . S
C641 H647 0.959 . S
C641 H648 0.961 . S
C641 H649 0.921 1_655 S
C642 C640 1.381 1_455 S
C642 C643 1.394 . S
C642 H650 0.930 . S
C643 C642 1.394 . S
C643 C644 1.383 . S
C643 H651 0.929 . S
C644 C643 1.383 . S
C644 C645 1.377 1_455 S
C645 H629 0.930 . S
C645 C644 1.377 1_655 S
C645 C646 1.379 . S
C646 H630 0.931 . S
C646 C640 1.383 . S
C646 C645 1.379 . S
H647 C641 0.959 . S
H648 C641 0.961 . S
H649 C641 0.921 1_455 S
H650 C642 0.930 . S
H651 C643 0.929 . S
H652 C660 0.927 1_554 S
H653 C662 0.930 . S
H654 C664 0.930 . S
H655 C667 0.929 . S
H656 C670 0.930 . S
H657 C672 0.960 . S
H658 C672 0.960 . S
H659 C672 0.960 . S
C660 H652 0.927 1_556 S
C660 C661 1.384 1_556 S
C660 C662 1.384 . S
C661 C660 1.384 1_554 S
C661 C667 1.383 1_564 S
C662 H653 0.930 . S
C662 C660 1.384 . S
C662 C663 1.372 1_565 S
C663 C662 1.372 1_545 S
C663 C664 1.400 . S
C663 C668 1.490 . S
C664 H654 0.930 . S
C664 C663 1.400 . S
C664 C667 1.386 . S
H665 C681 0.930 . S
H666 C682 0.931 . S
C667 H655 0.929 . S
C667 C661 1.383 1_546 S
C667 C664 1.386 . S
C668 C663 1.490 . S
C668 C670 1.395 1_545 S
C668 C671 1.403 . S
H669 C675 0.930 . S
C670 H656 0.930 . S
C670 C668 1.395 1_565 S
C670 C673 1.403 . S
C671 C668 1.403 . S
C671 C672 1.524 . S
C671 C675 1.400 . S
C672 H657 0.960 . S
C672 H658 0.960 . S
C672 H659 0.960 . S
C672 C671 1.524 . S
C673 C670 1.403 . S
C673 C674 1.392 1_565 S
C673 C677 1.495 . S
C674 C673 1.392 1_545 S
C674 C675 1.385 . S
C674 C676 1.478 . S
C675 H669 0.930 . S
C675 C671 1.400 . S
C675 C674 1.385 . S
C676 C674 1.478 . S
C676 C678 1.381 1_545 S
C676 C682 1.383 . S
C677 C673 1.495 . S
C677 H683 0.959 1_556 S
C677 H684 0.961 . S
C677 H685 0.960 . S
C678 C676 1.381 1_565 S
C678 C679 1.394 . S
C678 H686 0.930 . S
C679 C678 1.394 . S
C679 C680 1.383 1_565 S
C679 H687 0.929 . S
C680 C679 1.383 1_545 S
C680 C681 1.377 . S
C681 H665 0.930 . S
C681 C680 1.377 . S
C681 C682 1.379 . S
C682 H666 0.931 . S
C682 C676 1.383 . S
C682 C681 1.379 . S
H683 C677 0.959 1_554 S
H684 C677 0.961 . S
H685 C677 0.960 . S
H686 C678 0.930 . S
H687 C679 0.929 . S
H688 C696 0.929 . S
H689 C698 0.930 . S
H690 C700 0.930 . S
H691 C703 0.929 . S
H692 C706 0.930 . S
H693 C708 0.960 . S
H694 C708 0.960 . S
H695 C708 0.960 . S
C696 H688 0.929 . S
C696 C697 1.377 . S
C696 C698 1.384 . S
C697 C696 1.377 . S
C697 C703 1.390 1_556 S
C698 H689 0.930 . S
C698 C696 1.384 . S
C698 C699 1.372 . S
C699 C698 1.372 . S
C699 C700 1.400 . S
C699 C704 1.490 . S
C700 H690 0.930 . S
C700 C699 1.400 . S
C700 C703 1.386 1_556 S
H701 C717 0.930 . S
H702 C718 0.931 . S
C703 H691 0.929 . S
C703 C697 1.390 1_554 S
C703 C700 1.386 1_554 S
C704 C699 1.490 . S
C704 C706 1.395 . S
C704 C707 1.403 . S
H705 C711 0.930 . S
C706 H692 0.930 . S
C706 C704 1.395 . S
C706 C709 1.403 . S
C707 C704 1.403 . S
C707 C708 1.524 . S
C707 C711 1.400 . S
C708 H693 0.960 . S
C708 H694 0.960 . S
C708 H695 0.960 . S
C708 C707 1.524 . S
C709 C706 1.403 . S
C709 C710 1.392 . S
C709 C713 1.495 . S
C710 C709 1.392 . S
C710 C711 1.385 . S
C710 C712 1.478 . S
C711 H705 0.930 . S
C711 C707 1.400 . S
C711 C710 1.385 . S
C712 C710 1.478 . S
C712 C714 1.381 . S
C712 C718 1.383 . S
C713 C709 1.495 . S
C713 H719 0.959 . S
C713 H720 0.961 . S
C713 H721 0.960 . S
C714 C712 1.381 . S
C714 C715 1.394 . S
C714 H722 0.930 . S
C715 C714 1.394 . S
C715 C716 1.383 . S
C715 H723 0.929 . S
C716 C715 1.383 . S
C716 C717 1.377 . S
C717 H701 0.930 . S
C717 C716 1.377 . S
C717 C718 1.379 . S
C718 H702 0.931 . S
C718 C712 1.383 . S
C718 C717 1.379 . S
H719 C713 0.959 . S
H720 C713 0.961 . S
H721 C713 0.960 . S
H722 C714 0.930 . S
H723 C715 0.929 . S
H724 C732 0.929 . S
H725 C734 0.930 1_554 S
H726 C736 0.930 . S
H727 C739 0.929 . S
H728 C742 0.930 . S
H729 C744 0.960 . S
H730 C744 0.960 . S
H731 C744 0.960 . S
C732 H724 0.929 . S
C732 C733 1.377 . S
C732 C734 1.384 1_554 S
C733 C732 1.377 . S
C733 C739 1.390 1_554 S
C734 H725 0.930 1_556 S
C734 C732 1.384 1_556 S
C734 C735 1.372 . S
C735 C734 1.372 . S
C735 C736 1.400 . S
C735 C740 1.490 . S
C736 H726 0.930 . S
C736 C735 1.400 . S
C736 C739 1.386 . S
H737 C753 0.930 . S
H738 C754 0.931 . S
C739 H727 0.929 . S
C739 C733 1.390 1_556 S
C739 C736 1.386 . S
C740 C735 1.490 . S
C740 C742 1.395 . S
C740 C743 1.403 . S
H741 C747 0.930 . S
C742 H728 0.930 . S
C742 C740 1.395 . S
C742 C745 1.403 . S
C743 C740 1.403 . S
C743 C744 1.524 . S
C743 C747 1.400 . S
C744 H729 0.960 . S
C744 H730 0.960 . S
C744 H731 0.960 . S
C744 C743 1.524 . S
C745 C742 1.403 . S
C745 C746 1.392 . S
C745 C749 1.495 . S
C746 C745 1.392 . S
C746 C747 1.385 . S
C746 C748 1.478 . S
C747 H741 0.930 . S
C747 C743 1.400 . S
C747 C746 1.385 . S
C748 C746 1.478 . S
C748 C750 1.381 . S
C748 C754 1.383 . S
C749 C745 1.495 . S
C749 H755 0.959 . S
C749 H756 0.961 . S
C749 H757 0.960 . S
C750 C748 1.381 . S
C750 C751 1.394 . S
C750 H758 0.930 . S
C751 C750 1.394 . S
C751 C752 1.383 . S
C751 H759 0.929 . S
C752 C751 1.383 . S
C752 C753 1.377 . S
C753 H737 0.930 . S
C753 C752 1.377 . S
C753 C754 1.379 . S
C754 H738 0.931 . S
C754 C748 1.383 . S
C754 C753 1.379 . S
H755 C749 0.959 . S
H756 C749 0.961 . S
H757 C749 0.960 . S
H758 C750 0.930 . S
H759 C751 0.929 . S
H760 C768 0.929 . S
H761 C770 0.930 . S
H762 C772 0.930 . S
H763 C775 0.929 . S
H764 C778 0.930 . S
H765 C780 0.960 . S
H766 C780 0.960 . S
H767 C780 0.960 . S
C768 H760 0.929 . S
C768 C769 1.377 . S
C768 C770 1.384 . S
C769 C768 1.377 . S
C769 C775 1.390 . S
C770 H761 0.930 . S
C770 C768 1.384 . S
C770 C771 1.372 . S
C771 C770 1.372 . S
C771 C772 1.400 1_554 S
C771 C776 1.490 1_554 S
C772 H762 0.930 . S
C772 C771 1.400 1_556 S
C772 C775 1.386 1_556 S
H773 C789 0.930 1_655 S
H774 C790 0.968 . S
C775 H763 0.929 . S
C775 C769 1.390 . S
C775 C772 1.386 1_554 S
C776 C771 1.490 1_556 S
C776 C778 1.395 1_556 S
C776 C779 1.403 . S
H777 C783 0.930 . S
C778 H764 0.930 . S
C778 C776 1.395 1_554 S
C778 C781 1.403 1_554 S
C779 C776 1.403 . S
C779 C780 1.524 . S
C779 C783 1.400 . S
C780 H765 0.960 . S
C780 H766 0.960 . S
C780 H767 0.960 . S
C780 C779 1.524 . S
C781 C778 1.403 1_556 S
C781 C782 1.392 . S
C781 C785 1.495 1_556 S
C782 C781 1.392 . S
C782 C783 1.385 . S
C782 C784 1.478 . S
C783 H777 0.930 . S
C783 C779 1.400 . S
C783 C782 1.385 . S
C784 C782 1.478 . S
C784 C786 1.381 . S
C784 C790 1.383 . S
C785 C781 1.495 1_554 S
C785 H791 0.959 . S
C785 H792 0.961 . S
C785 H793 0.960 . S
C786 C784 1.381 . S
C786 C787 1.394 . S
C786 H794 0.930 . S
C787 C786 1.394 . S
C787 C788 1.383 . S
C787 H795 0.929 . S
C788 C787 1.383 . S
C788 C789 1.377 . S
C789 H773 0.930 1_455 S
C789 C788 1.377 . S
C789 C790 1.379 . S
C790 H774 0.968 . S
C790 C784 1.383 . S
C790 C789 1.379 . S
H791 C785 0.959 . S
H792 C785 0.961 . S
H793 C785 0.960 . S
H794 C786 0.930 . S
H795 C787 0.929 . S
H796 C804 0.924 1_556 S
H797 C806 0.930 . S
H798 C808 0.930 . S
H799 C811 0.929 . S
H800 C814 0.930 . S
H801 C816 0.960 . S
H802 C816 0.960 . S
H803 C816 0.960 . S
C804 H796 0.924 1_554 S
C804 C805 1.388 1_565 S
C804 C806 1.378 1_554 S
C805 C804 1.388 1_545 S
C805 C811 1.391 . S
C806 H797 0.930 . S
C806 C804 1.378 1_556 S
C806 C807 1.372 1_565 S
C807 C806 1.372 1_545 S
C807 C808 1.400 1_556 S
C807 C812 1.490 . S
C808 H798 0.930 . S
C808 C807 1.400 1_554 S
C808 C811 1.386 . S
H809 C825 0.930 . S
H810 C826 0.931 . S
C811 H799 0.929 . S
C811 C805 1.391 . S
C811 C808 1.386 . S
C812 C807 1.490 . S
C812 C814 1.395 . S
C812 C815 1.403 1_545 S
H813 C819 0.930 . S
C814 H800 0.930 . S
C814 C812 1.395 . S
C814 C817 1.403 . S
C815 C812 1.403 1_565 S
C815 C816 1.524 1_556 S
C815 C819 1.400 . S
C816 H801 0.960 . S
C816 H802 0.960 . S
C816 H803 0.960 . S
C816 C815 1.524 1_554 S
C817 C814 1.403 . S
C817 C818 1.392 . S
C817 C821 1.495 . S
C818 C817 1.392 . S
C818 C819 1.385 1_545 S
C818 C820 1.478 . S
C819 H813 0.930 . S
C819 C815 1.400 . S
C819 C818 1.385 1_565 S
C820 C818 1.478 . S
C820 C822 1.381 . S
C820 C826 1.383 . S
C821 C817 1.495 . S
C821 H827 0.959 . S
C821 H828 0.961 . S
C821 H829 0.960 . S
C822 C820 1.381 . S
C822 C823 1.394 . S
C822 H830 0.942 . S
C823 C822 1.394 . S
C823 C824 1.383 . S
C823 H831 0.928 . S
C824 C823 1.383 . S
C824 C825 1.377 . S
C825 H809 0.930 . S
C825 C824 1.377 . S
C825 C826 1.379 . S
C826 H810 0.931 . S
C826 C820 1.383 . S
C826 C825 1.379 . S
H827 C821 0.959 . S
H828 C821 0.961 . S
H829 C821 0.960 . S
H830 C822 0.942 . S
H831 C823 0.928 . S
H832 C840 0.929 . S
H833 C842 0.930 . S
H834 C844 0.930 . S
H835 C847 0.929 1_556 S
H836 C850 0.930 . S
H837 C852 0.960 . S
H838 C852 0.960 1_554 S
H839 C852 0.960 . S
C840 H832 0.929 . S
C840 C841 1.377 . S
C840 C842 1.384 . S
C841 C840 1.377 . S
C841 C847 1.390 . S
C842 H833 0.930 . S
C842 C840 1.384 . S
C842 C843 1.372 . S
C843 C842 1.372 . S
C843 C844 1.400 1_554 S
C843 C848 1.490 1_554 S
C844 H834 0.930 . S
C844 C843 1.400 1_556 S
C844 C847 1.386 1_556 S
H845 C861 0.930 . S
H846 C862 0.931 . S
C847 H835 0.929 1_554 S
C847 C841 1.390 . S
C847 C844 1.386 1_554 S
C848 C843 1.490 1_556 S
C848 C850 1.395 . S
C848 C851 1.403 . S
H849 C855 0.930 . S
C850 H836 0.930 . S
C850 C848 1.395 . S
C850 C853 1.403 . S
C851 C848 1.403 . S
C851 C852 1.524 . S
C851 C855 1.400 . S
C852 H837 0.960 . S
C852 H838 0.960 1_556 S
C852 H839 0.960 . S
C852 C851 1.524 . S
C853 C850 1.403 . S
C853 C854 1.392 . S
C853 C857 1.495 . S
C854 C853 1.392 . S
C854 C855 1.385 . S
C854 C856 1.478 . S
C855 H849 0.930 . S
C855 C851 1.400 . S
C855 C854 1.385 . S
C856 C854 1.478 . S
C856 C858 1.381 . S
C856 C862 1.383 . S
C857 C853 1.495 . S
C857 H863 0.959 . S
C857 H864 0.961 . S
C857 H865 0.960 . S
C858 C856 1.381 . S
C858 C859 1.394 . S
C858 H866 0.930 . S
C859 C858 1.394 . S
C859 C860 1.383 . S
C859 H867 0.929 . S
C860 C859 1.383 . S
C860 C861 1.377 . S
C861 H845 0.930 . S
C861 C860 1.377 . S
C861 C862 1.379 . S
C862 H846 0.931 . S
C862 C856 1.383 . S
C862 C861 1.379 . S
H863 C857 0.959 . S
H864 C857 0.961 . S
H865 C857 0.960 . S
H866 C858 0.930 . S
H867 C859 0.929 . S
H868 C876 0.929 . S
H869 C878 0.930 . S
H870 C880 0.930 . S
H871 C883 0.929 . S
H872 C886 0.930 . S
H873 C888 0.960 1_556 S
H874 C888 0.960 1_556 S
H875 C888 0.960 . S
C876 H868 0.929 . S
C876 C877 1.379 1_556 S
C876 C878 1.383 . S
C877 C876 1.379 1_554 S
C877 C883 1.390 . S
C878 H869 0.930 . S
C878 C876 1.383 . S
C878 C879 1.372 . S
C879 C878 1.372 . S
C879 C880 1.400 1_556 S
C879 C884 1.490 . S
C880 H870 0.930 . S
C880 C879 1.400 1_554 S
C880 C883 1.386 . S
H881 C897 0.930 . S
H882 C898 0.931 . S
C883 H871 0.929 . S
C883 C877 1.390 . S
C883 C880 1.386 . S
C884 C879 1.490 . S
C884 C886 1.395 . S
C884 C887 1.403 . S
H885 C891 0.930 . S
C886 H872 0.930 . S
C886 C884 1.395 . S
C886 C889 1.403 . S
C887 C884 1.403 . S
C887 C888 1.524 1_556 S
C887 C891 1.400 . S
C888 H873 0.960 1_554 S
C888 H874 0.960 1_554 S
C888 H875 0.960 . S
C888 C887 1.524 1_554 S
C889 C886 1.403 . S
C889 C890 1.392 . S
C889 C893 1.495 . S
C890 C889 1.392 . S
C890 C891 1.385 . S
C890 C892 1.478 . S
C891 H885 0.930 . S
C891 C887 1.400 . S
C891 C890 1.385 . S
C892 C890 1.478 . S
C892 C894 1.381 . S
C892 C898 1.383 . S
C893 C889 1.495 . S
C893 H899 0.959 . S
C893 H900 0.961 . S
C893 H901 0.960 . S
C894 C892 1.381 . S
C894 C895 1.394 . S
C894 H902 0.930 . S
C895 C894 1.394 . S
C895 C896 1.383 . S
C895 H903 0.929 . S
C896 C895 1.383 . S
C896 C897 1.377 . S
C897 H881 0.930 . S
C897 C896 1.377 . S
C897 C898 1.379 . S
C898 H882 0.931 . S
C898 C892 1.383 . S
C898 C897 1.379 . S
H899 C893 0.959 . S
H900 C893 0.961 . S
H901 C893 0.960 . S
H902 C894 0.930 . S
H903 C895 0.929 . S
H904 C912 0.929 . S
H905 C914 0.930 . S
H906 C916 0.930 . S
H907 C919 0.929 . S
H908 C922 0.930 1_455 S
H909 C924 0.960 . S
H910 C924 0.960 . S
H911 C924 0.960 . S
C912 H904 0.929 . S
C912 C913 1.377 . S
C912 C914 1.384 . S
C913 C912 1.377 . S
C913 C919 1.390 . S
C914 H905 0.930 . S
C914 C912 1.384 . S
C914 C915 1.372 . S
C915 C914 1.372 . S
C915 C916 1.400 . S
C915 C920 1.490 . S
C916 H906 0.930 . S
C916 C915 1.400 . S
C916 C919 1.386 . S
H917 C933 0.930 . S
H918 C934 0.931 . S
C919 H907 0.929 . S
C919 C913 1.390 . S
C919 C916 1.386 . S
C920 C915 1.490 . S
C920 C922 1.395 . S
C920 C923 1.403 . S
H921 C927 0.930 . S
C922 H908 0.930 1_655 S
C922 C920 1.395 . S
C922 C925 1.403 . S
C923 C920 1.403 . S
C923 C924 1.524 . S
C923 C927 1.400 . S
C924 H909 0.960 . S
C924 H910 0.960 . S
C924 H911 0.960 . S
C924 C923 1.524 . S
C925 C922 1.403 . S
C925 C926 1.392 . S
C925 C929 1.495 1_655 S
C926 C925 1.392 . S
C926 C927 1.385 . S
C926 C928 1.478 . S
C927 H921 0.930 . S
C927 C923 1.400 . S
C927 C926 1.385 . S
C928 C926 1.478 . S
C928 C930 1.381 . S
C928 C934 1.383 . S
C929 C925 1.495 1_455 S
C929 H935 0.959 . S
C929 H936 0.961 . S
C929 H937 0.960 . S
C930 C928 1.381 . S
C930 C931 1.394 . S
C930 H938 0.930 . S
C931 C930 1.394 . S
C931 C932 1.383 . S
C931 H939 0.929 . S
C932 C931 1.383 . S
C932 C933 1.377 . S
C933 H917 0.930 . S
C933 C932 1.377 . S
C933 C934 1.379 . S
C934 H918 0.931 . S
C934 C928 1.383 . S
C934 C933 1.379 . S
H935 C929 0.959 . S
H936 C929 0.961 . S
H937 C929 0.960 . S
H938 C930 0.930 . S
H939 C931 0.929 . S
H940 C948 0.929 . S
H941 C950 0.930 . S
H942 C952 0.930 . S
H943 C955 0.929 . S
H944 C958 0.930 . S
H945 C960 0.960 . S
H946 C960 0.960 . S
H947 C960 0.960 . S
C948 H940 0.929 . S
C948 C949 1.401 . S
C948 C950 1.384 . S
C949 C948 1.401 . S
C949 C955 1.369 1_565 S
C950 H941 0.930 . S
C950 C948 1.384 . S
C950 C951 1.372 . S
C951 C950 1.372 . S
C951 C952 1.400 1_565 S
C951 C956 1.490 . S
C952 H942 0.930 . S
C952 C951 1.400 1_545 S
C952 C955 1.386 . S
H953 C969 0.930 . S
H954 C970 0.931 . S
C955 H943 0.929 . S
C955 C949 1.369 1_545 S
C955 C952 1.386 . S
C956 C951 1.490 . S
C956 C958 1.395 1_565 S
C956 C959 1.403 . S
H957 C963 0.930 . S
C958 H944 0.930 . S
C958 C956 1.395 1_545 S
C958 C961 1.403 . S
C959 C956 1.403 . S
C959 C960 1.524 . S
C959 C963 1.400 . S
C960 H945 0.960 . S
C960 H946 0.960 . S
C960 H947 0.960 . S
C960 C959 1.524 . S
C961 C958 1.403 . S
C961 C962 1.392 1_545 S
C961 C965 1.495 . S
C962 C961 1.392 1_565 S
C962 C963 1.385 . S
C962 C964 1.478 . S
C963 H957 0.930 . S
C963 C959 1.400 . S
C963 C962 1.385 . S
C964 C962 1.478 . S
C964 C966 1.381 . S
C964 C970 1.383 1_565 S
C965 C961 1.495 . S
C965 H971 0.959 . S
C965 H972 0.961 . S
C965 H973 0.960 1_545 S
C966 C964 1.381 . S
C966 C967 1.394 . S
C966 H974 0.930 . S
C967 C966 1.394 . S
C967 C968 1.383 . S
C967 H975 0.929 . S
C968 C967 1.383 . S
C968 C969 1.377 1_565 S
C969 H953 0.930 . S
C969 C968 1.377 1_545 S
C969 C970 1.379 . S
C970 H954 0.931 . S
C970 C964 1.383 1_545 S
C970 C969 1.379 . S
H971 C965 0.959 . S
H972 C965 0.961 . S
H973 C965 0.960 1_565 S
H974 C966 0.930 . S
H975 C967 0.929 . S
H976 C984 0.929 . S
H977 C986 0.930 . S
H978 C988 0.930 . S
H979 C991 0.929 . S
H980 C994 0.930 . S
H981 C996 0.960 . S
H982 C996 0.960 . S
H983 C996 0.960 . S
C984 H976 0.929 . S
C984 C985 1.377 . S
C984 C986 1.384 . S
C985 C984 1.377 . S
C985 C991 1.390 . S
C986 H977 0.930 . S
C986 C984 1.384 . S
C986 C987 1.372 . S
C987 C986 1.372 . S
C987 C988 1.400 . S
C987 C992 1.490 . S
C988 H978 0.930 . S
C988 C987 1.400 . S
C988 C991 1.386 . S
H989 C1005 0.930 . S
H990 C1006 0.931 . S
C991 H979 0.929 . S
C991 C985 1.390 . S
C991 C988 1.386 . S
C992 C987 1.490 . S
C992 C994 1.395 . S
C992 C995 1.403 . S
H993 C999 0.930 . S
C994 H980 0.930 . S
C994 C992 1.395 . S
C994 C997 1.403 . S
C995 C992 1.403 . S
C995 C996 1.524 . S
C995 C999 1.400 . S
C996 H981 0.960 . S
C996 H982 0.960 . S
C996 H983 0.960 . S
C996 C995 1.524 . S
C997 C994 1.403 . S
C997 C998 1.392 . S
C997 C1001 1.495 . S
C998 C997 1.392 . S
C998 C999 1.385 . S
C998 C1000 1.478 . S
C999 H993 0.930 . S
C999 C995 1.400 . S
C999 C998 1.385 . S
C1000 C998 1.478 . S
C1000 C1002 1.381 . S
C1000 C1006 1.383 . S
C1001 C997 1.495 . S
C1001 H1007 0.959 . S
C1001 H1008 0.961 . S
C1001 H1009 0.960 . S
C1002 C1000 1.381 . S
C1002 C1003 1.394 . S
C1002 H1010 0.930 . S
C1003 C1002 1.394 . S
C1003 C1004 1.383 . S
C1003 H1011 0.929 . S
C1004 C1003 1.383 . S
C1004 C1005 1.377 . S
C1005 H989 0.930 . S
C1005 C1004 1.377 . S
C1005 C1006 1.379 . S
C1006 H990 0.931 . S
C1006 C1000 1.383 . S
C1006 C1005 1.379 . S
H1007 C1001 0.959 . S
H1008 C1001 0.961 . S
H1009 C1001 0.960 . S
H1010 C1002 0.930 . S
H1011 C1003 0.929 . S
H1012 C1020 0.929 . S
H1013 C1022 0.930 . S
H1014 C1024 0.930 . S
H1015 C1027 0.929 . S
H1016 C1030 0.930 . S
H1017 C1032 0.960 . S
H1018 C1032 0.960 . S
H1019 C1032 0.960 . S
C1020 H1012 0.929 . S
C1020 C1021 1.377 . S
C1020 C1022 1.384 . S
C1021 C1020 1.377 . S
C1021 C1027 1.390 . S
C1022 H1013 0.930 . S
C1022 C1020 1.384 . S
C1022 C1023 1.372 . S
C1023 C1022 1.372 . S
C1023 C1024 1.400 . S
C1023 C1028 1.490 . S
C1024 H1014 0.930 . S
C1024 C1023 1.400 . S
C1024 C1027 1.386 . S
H1025 C1041 0.930 . S
H1026 C1042 0.931 . S
C1027 H1015 0.929 . S
C1027 C1021 1.390 . S
C1027 C1024 1.386 . S
C1028 C1023 1.490 . S
C1028 C1030 1.395 . S
C1028 C1031 1.403 . S
H1029 C1035 0.930 . S
C1030 H1016 0.930 . S
C1030 C1028 1.395 . S
C1030 C1033 1.403 . S
C1031 C1028 1.403 . S
C1031 C1032 1.524 . S
C1031 C1035 1.400 . S
C1032 H1017 0.960 . S
C1032 H1018 0.960 . S
C1032 H1019 0.960 . S
C1032 C1031 1.524 . S
C1033 C1030 1.403 . S
C1033 C1034 1.392 . S
C1033 C1037 1.495 . S
C1034 C1033 1.392 . S
C1034 C1035 1.385 . S
C1034 C1036 1.478 . S
C1035 H1029 0.930 . S
C1035 C1031 1.400 . S
C1035 C1034 1.385 . S
C1036 C1034 1.478 . S
C1036 C1038 1.381 . S
C1036 C1042 1.383 . S
C1037 C1033 1.495 . S
C1037 H1043 0.959 . S
C1037 H1044 0.961 . S
C1037 H1045 0.960 . S
C1038 C1036 1.381 . S
C1038 C1039 1.394 . S
C1038 H1046 0.930 . S
C1039 C1038 1.394 . S
C1039 C1040 1.383 . S
C1039 H1047 0.929 . S
C1040 C1039 1.383 . S
C1040 C1041 1.377 . S
C1041 H1025 0.930 . S
C1041 C1040 1.377 . S
C1041 C1042 1.379 . S
C1042 H1026 0.931 . S
C1042 C1036 1.383 . S
C1042 C1041 1.379 . S
H1043 C1037 0.959 . S
H1044 C1037 0.961 . S
H1045 C1037 0.960 . S
H1046 C1038 0.930 . S
H1047 C1039 0.929 . S
C193 N80 1.484 1_545 S
C212 C122 1.458 1_545 S
C248 C142 1.523 . S
C229 N93 1.535 . S
C284 C162 1.445 . S
C265 N54 1.485 . S
C320 C182 1.512 . S
C301 N67 1.546 . S
C356 C123 1.473 . S
C337 N28 1.483 1_556 S
C373 N41 1.553 1_556 S
C392 C143 1.557 . S
C409 N2 1.491 . S
C428 C163 1.485 . S
C445 N15 1.551 1_556 S
C464 C183 1.540 1_655 S
C500 C113 0.641 . S
C481 N70 0.641 . S
C536 C133 0.714 . S
C517 N83 0.641 . S
C572 C153 0.725 . S
C553 N96 0.647 . S
C589 N57 0.646 . S
C608 C173 0.641 . S
C625 N18 0.645 1_556 S
C644 C116 0.625 1_455 S
C680 C136 0.697 . S
C661 N31 0.642 . S
C716 C156 0.668 . S
C697 N44 0.652 1_556 S
C733 N5 0.645 . S
C752 C176 0.693 . S
C769 N66 1.565 . S
C788 C106 1.483 . S
C805 N79 1.524 1_545 S
C824 C126 1.415 . S
C860 C146 1.432 . S
C841 N92 1.558 . S
C896 C166 1.419 . S
C877 N53 1.523 . S
C913 N14 1.574 . S
C932 C108 1.439 . S
C968 C128 1.377 . S
C949 N27 1.521 . S
C1004 C148 1.468 . S
C985 N40 1.567 . S
C1021 N1 1.521 . S
C1040 C168 1.444 . S
