# Generated by pormake.
# Topology anh, (6,3)-cn, num edge types: 1
# Building blocks:
#     Node 0, Type 0, BuildingBlock: VOLQOD_clean_sbu_1, # of connection points: 6
#     Node 1, Type 0, BuildingBlock: VOLQOD_clean_sbu_1, # of connection points: 6
#     Node 2, Type 0, BuildingBlock: VOLQOD_clean_sbu_1, # of connection points: 6
#     Node 3, Type 1, BuildingBlock: CUQRIR_clean_linker_1, # of connection points: 3
#     Node 4, Type 1, BuildingBlock: CUQRIR_clean_linker_1, # of connection points: 3
#     Node 5, Type 1, BuildingBlock: CUQRIR_clean_linker_1, # of connection points: 3
#     Node 6, Type 1, BuildingBlock: CUQRIR_clean_linker_1, # of connection points: 3
#     Node 7, Type 1, BuildingBlock: CUQRIR_clean_linker_1, # of connection points: 3
#     Node 8, Type 1, BuildingBlock: CUQRIR_clean_linker_1, # of connection points: 3
#     Edge 9, Type (0, 1), BuildingBlock: KIFKEQ_clean_linker_1, # of connection points: 2
#     Edge 10, Type (0, 1), BuildingBlock: KIFKEQ_clean_linker_1, # of connection points: 2
#     Edge 11, Type (0, 1), BuildingBlock: KIFKEQ_clean_linker_1, # of connection points: 2
#     Edge 12, Type (0, 1), BuildingBlock: KIFKEQ_clean_linker_1, # of connection points: 2
#     Edge 13, Type (0, 1), BuildingBlock: KIFKEQ_clean_linker_1, # of connection points: 2
#     Edge 14, Type (0, 1), BuildingBlock: KIFKEQ_clean_linker_1, # of connection points: 2
#     Edge 15, Type (0, 1), BuildingBlock: KIFKEQ_clean_linker_1, # of connection points: 2
#     Edge 16, Type (0, 1), BuildingBlock: KIFKEQ_clean_linker_1, # of connection points: 2
#     Edge 17, Type (0, 1), BuildingBlock: KIFKEQ_clean_linker_1, # of connection points: 2
#     Edge 18, Type (0, 1), BuildingBlock: KIFKEQ_clean_linker_1, # of connection points: 2
#     Edge 19, Type (0, 1), BuildingBlock: KIFKEQ_clean_linker_1, # of connection points: 2
#     Edge 20, Type (0, 1), BuildingBlock: KIFKEQ_clean_linker_1, # of connection points: 2
#     Edge 21, Type (0, 1), BuildingBlock: KIFKEQ_clean_linker_1, # of connection points: 2
#     Edge 22, Type (0, 1), BuildingBlock: KIFKEQ_clean_linker_1, # of connection points: 2
#     Edge 23, Type (0, 1), BuildingBlock: KIFKEQ_clean_linker_1, # of connection points: 2
#     Edge 24, Type (0, 1), BuildingBlock: KIFKEQ_clean_linker_1, # of connection points: 2
#     Edge 25, Type (0, 1), BuildingBlock: KIFKEQ_clean_linker_1, # of connection points: 2
#     Edge 26, Type (0, 1), BuildingBlock: KIFKEQ_clean_linker_1, # of connection points: 2
# Relax obj value: 0.187
# Max RMSD: 0.221
# Mean RMSD: 0.170
data_MOF--net-anh--node1-VOLQOD_clean_sbu_1--node2-CUQRIR_clean_linker_1--edge1-KIFKEQ_clean_linker_1
_symmetry_space_group_name_H-M    P1
_symmetry_Int_Tables_number       1
_symmetry_cell_setting            triclinic
loop_
_symmetry_equiv_pos_as_xyz
'x, y, z'
_cell_length_a     27.905513
_cell_length_b     27.725313
_cell_length_c     54.198937
_cell_angle_alpha  84.726074
_cell_angle_beta   89.886922
_cell_angle_gamma 120.41233
loop_
_atom_site_label
_atom_site_type_symbol
_atom_site_fract_x
_atom_site_fract_y
_atom_site_fract_z
_atom_type_partial_charge
O0 O 0.97803 0.5204 0.22439 0.0
Zn1 Zn -0.01024 0.54254 0.187 0.0
O2 O 0.00519 0.49194 0.17024 0.0
Zn3 Zn 0.94747 0.44835 0.14831 0.0
Zn4 Zn 0.01277 0.44166 0.19514 0.0
Zn5 Zn 0.07281 0.53508 0.14982 0.0
O6 O 0.97709 0.45812 0.11256 0.0
O7 O 0.0593 0.53562 0.11371 0.0
O8 O 0.92397 0.54492 0.17212 0.0
O9 O 0.89571 0.47814 0.14657 0.0
O10 O 0.90131 0.36692 0.16271 0.0
O11 O 0.94385 0.36547 0.19716 0.0
O12 O 0.08043 0.43535 0.18754 0.0
O13 O 0.0575 0.62071 0.18353 0.0
O14 O 0.11873 0.4993 0.15468 0.0
O15 O 0.11669 0.61402 0.15864 0.0
C16 C -0.00342 0.49423 0.23814 0.0
C17 C 0.02139 0.49924 0.10152 0.0
C18 C 0.90387 0.34138 0.18302 0.0
C19 C 0.89071 0.51563 0.15623 0.0
C20 C 0.11791 0.46131 0.17002 0.0
C21 C 0.10503 0.64231 0.17215 0.0
O22 O 0.01644 0.46699 0.22885 0.0
O23 O 0.57857 0.08256 0.44959 0.0
Zn24 Zn 0.55442 0.07133 0.48573 0.0
O25 O 0.60362 0.05716 0.50642 0.0
Zn26 Zn 0.64582 0.11827 0.52608 0.0
Zn27 Zn 0.65355 0.04677 0.4851 0.0
Zn28 Zn 0.55981 0.99228 0.52991 0.0
O29 O 0.63858 0.09402 0.56287 0.0
O30 O 0.56019 0.01162 0.56479 0.0
O31 O 0.55057 0.138 0.49526 0.0
O32 O 0.61587 0.17007 0.52269 0.0
O33 O 0.725 0.16314 0.51316 0.0
O34 O 0.73065 0.11712 0.48283 0.0
O35 O 0.65555 0.97646 0.49851 0.0
O36 O 0.47739 0.00313 0.48889 0.0
O37 O 0.59351 0.94434 0.53068 0.0
O38 O 0.48136 0.94654 0.51949 0.0
C39 C 0.60317 0.06225 0.43816 0.0
C40 C 0.59788 0.05199 0.57545 0.0
C41 C 0.75244 0.15925 0.49543 0.0
C42 C 0.57865 0.17341 0.51041 0.0
C43 C 0.62956 0.94145 0.51754 0.0
C44 C 0.45467 0.95661 0.50275 0.0
O45 O 0.62844 0.04036 0.44982 0.0
O46 O 0.49364 0.57823 0.78131 0.0
Zn47 Zn 0.48563 0.55606 0.81851 0.0
O48 O 0.55423 0.60511 0.83442 0.0
Zn49 Zn 0.54215 0.64749 0.85779 0.0
Zn50 Zn 0.61136 0.65734 0.80908 0.0
Zn51 Zn 0.57867 0.55964 0.85306 0.0
O52 O 0.57154 0.64255 0.89154 0.0
O53 O 0.58282 0.56942 0.8894 0.0
O54 O 0.41995 0.55618 0.83477 0.0
O55 O 0.46018 0.61444 0.86365 0.0
O56 O 0.57376 0.72814 0.84338 0.0
O57 O 0.62176 0.73476 0.80918 0.0
O58 O 0.68438 0.65823 0.81317 0.0
O59 O 0.47044 0.47595 0.82186 0.0
O60 O 0.65489 0.58291 0.84068 0.0
O61 O 0.53187 0.47832 0.84837 0.0
C62 C 0.53714 0.60654 0.76676 0.0
C63 C 0.58243 0.60615 0.90173 0.0
C64 C 0.60373 0.75635 0.82374 0.0
C65 C 0.41688 0.58021 0.85322 0.0
C66 C 0.6926 0.62228 0.82588 0.0
C67 C 0.49172 0.45144 0.83473 0.0
O68 O 0.58516 0.63495 0.77519 0.0
C69 C 0.49402 0.99197 0.22294 0.0
N70 N 0.53111 0.01856 0.24009 0.0
N71 N 0.44265 0.95741 0.2339 0.0
C72 C 0.50666 0.00301 0.1953 0.0
C73 C 0.4495 0.96393 0.25832 0.0
N74 N 0.50324 0.00166 0.26209 0.0
C75 C 0.40477 0.92976 0.27856 0.0
H76 H 0.46896 -0.00567 0.18526 0.0
H77 H 0.52111 0.9749 0.18952 0.0
H78 H 0.53989 0.04726 0.18993 0.0
H79 H 0.37399 0.88802 0.2729 0.0
H80 H 0.38261 0.95237 0.28228 0.0
H81 H 0.42282 0.9236 0.29595 0.0
C82 C 0.50858 0.51215 0.55166 0.0
N83 N 0.51354 0.54696 0.56868 0.0
N84 N 0.49807 0.46188 0.56292 0.0
C85 C 0.52063 0.52953 0.52415 0.0
C86 C 0.49714 0.46747 0.58743 0.0
N87 N 0.50682 0.51928 0.59095 0.0
C88 C 0.49187 0.42408 0.60778 0.0
H89 H 0.49174 0.54313 0.51689 0.0
H90 H 0.51569 0.49472 0.51381 0.0
H91 H 0.56365 0.56588 0.52064 0.0
H92 H 0.53359 0.42944 0.61066 0.0
H93 H 0.46414 0.38102 0.60262 0.0
H94 H 0.47531 0.42886 0.62545 0.0
C95 C 0.04929 0.5869 0.87688 0.0
N96 N 0.06847 0.57256 0.89751 0.0
N97 N 0.01065 0.60016 0.88306 0.0
C98 C 0.07132 0.59205 0.85082 0.0
C99 C 0.00711 0.59336 0.90822 0.0
N100 N 0.04292 0.57742 0.91698 0.0
C101 C 0.96545 0.59761 0.92418 0.0
H102 H 0.06406 0.62129 0.8382 0.0
H103 H 0.04977 0.54996 0.84397 0.0
H104 H 0.11656 0.60725 0.85037 0.0
H105 H 0.92684 0.58604 0.91436 0.0
H106 H 0.98383 0.64163 0.9286 0.0
H107 H 0.9546 0.56984 0.94187 0.0
C108 C 0.07861 0.58388 0.45336 0.0
N109 N 0.0493 0.54879 0.4363 0.0
N110 N 0.11797 0.6345 0.44207 0.0
C111 C 0.07042 0.56785 0.48099 0.0
C112 C 0.11216 0.62881 0.41757 0.0
N113 N 0.07056 0.57656 0.41404 0.0
C114 C 0.14843 0.67361 0.39716 0.0
H115 H 0.03251 0.56708 0.48782 0.0
H116 H 0.10609 0.59813 0.49098 0.0
H117 H 0.06407 0.52505 0.48541 0.0
H118 H 0.18405 0.66826 0.39243 0.0
H119 H 0.16518 0.71623 0.40309 0.0
H120 H 0.12488 0.66993 0.38027 0.0
C121 C 0.52817 0.09755 0.79107 0.0
N122 N 0.54188 0.07331 0.7739 0.0
N123 N 0.51067 0.13128 0.77999 0.0
C124 C 0.52752 0.08508 0.81872 0.0
C125 C 0.51401 0.12664 0.75549 0.0
N126 N 0.5324 0.09096 0.75181 0.0
C127 C 0.50403 0.16072 0.73511 0.0
H128 H 0.49659 0.09171 0.82841 0.0
H129 H 0.56924 0.11386 0.82525 0.0
H130 H 0.51752 0.04112 0.82371 0.0
H131 H 0.52987 0.16828 0.71802 0.0
H132 H 0.51345 0.2018 0.74095 0.0
H133 H 0.45958 0.13718 0.73073 0.0
C134 C 0.52088 0.51948 0.12437 0.0
N135 N 0.56001 0.53833 0.10539 0.0
N136 N 0.47093 0.5068 0.11561 0.0
C137 C 0.52969 0.50734 0.15109 0.0
C138 C 0.48082 0.51841 0.09072 0.0
N139 N 0.53471 0.53692 0.08449 0.0
C140 C 0.43833 0.51365 0.07252 0.0
H141 H 0.48996 0.47547 0.16128 0.0
H142 H 0.5472 0.54669 0.16016 0.0
H143 H 0.55943 0.49192 0.15246 0.0
H144 H 0.45841 0.54487 0.05598 0.0
H145 H 0.40626 0.52008 0.08124 0.0
H146 H 0.41751 0.47096 0.06628 0.0
H147 H 0.15207 0.44444 0.12703 0.0
H148 H 0.1829 0.44961 0.20501 0.0
H149 H 0.23528 0.43987 0.1188 0.0
H150 H 0.26778 0.44605 0.1967 0.0
H151 H 0.37516 0.41233 0.10899 0.0
H152 H 0.28299 0.38338 0.12737 0.0
H153 H 0.35784 0.52309 0.17165 0.0
H154 H 0.44977 0.55192 0.15297 0.0
C155 C 0.17618 0.44321 0.14249 0.0
C156 C 0.16158 0.44755 0.16659 0.0
C157 C 0.22357 0.44025 0.13783 0.0
C158 C 0.2579 0.44262 0.15713 0.0
C159 C 0.24184 0.44411 0.18154 0.0
C160 C 0.19341 0.44588 0.1863 0.0
C161 C 0.37161 0.43604 0.12296 0.0
C162 C 0.41876 0.48477 0.12934 0.0
C163 C 0.31924 0.41942 0.13356 0.0
C164 C 0.3134 0.45123 0.15079 0.0
C165 C 0.36126 0.49748 0.15861 0.0
C166 C 0.41365 0.5142 0.14788 0.0
H167 H 0.81985 0.24484 0.52217 0.0
H168 H 0.80686 0.18848 0.44943 0.0
H169 H 0.8949 0.33777 0.50593 0.0
H170 H 0.88224 0.28227 0.43312 0.0
H171 H 0.05104 0.45919 0.42164 0.0
H172 H 0.98464 0.35954 0.43556 0.0
H173 H 0.88709 0.40913 0.47696 0.0
H174 H 0.953 0.50781 0.46279 0.0
C175 C 0.83382 0.25191 0.50282 0.0
C176 C 0.8068 0.2095 0.48702 0.0
C177 C 0.87653 0.3053 0.49348 0.0
C178 C 0.89327 0.31759 0.46813 0.0
C179 C 0.86988 0.27397 0.45272 0.0
C180 C 0.82691 0.22023 0.4621 0.0
C181 C 0.01465 0.44821 0.4333 0.0
C182 C 0.00689 0.49056 0.4414 0.0
C183 C 0.97699 0.39153 0.44136 0.0
C184 C 0.93145 0.37676 0.45778 0.0
C185 C 0.92262 0.41934 0.46484 0.0
C186 C 0.95993 0.47562 0.45668 0.0
H187 H 0.59621 0.82809 0.85282 0.0
H188 H 0.62453 0.80956 0.77673 0.0
H189 H 0.59085 0.91158 0.83877 0.0
H190 H 0.61792 0.89227 0.7628 0.0
H191 H 0.50015 0.97229 0.75647 0.0
H192 H 0.52773 0.90222 0.76697 0.0
H193 H 0.65194 0.01406 0.81366 0.0
H194 H 0.62619 0.08528 0.80203 0.0
C195 C 0.60235 0.84245 0.83318 0.0
C196 C 0.61062 0.81215 0.8159 0.0
C197 C 0.59939 0.89022 0.82516 0.0
C198 C 0.60358 0.90788 0.79972 0.0
C199 C 0.6143 0.87919 0.78251 0.0
C200 C 0.61843 0.83213 0.79054 0.0
C201 C 0.53427 0.98233 0.76843 0.0
C202 C 0.56085 0.03384 0.7786 0.0
C203 C 0.54994 0.94234 0.77449 0.0
C204 C 0.5918 0.95286 0.79118 0.0
C205 C 0.61931 0.00492 0.80088 0.0
C206 C 0.60441 0.04534 0.79438 0.0
H207 H 0.88669 0.6128 0.15462 0.0
H208 H 0.79266 0.43951 0.13923 0.0
H209 H 0.81366 0.6284 0.13785 0.0
H210 H 0.71903 0.45382 0.12381 0.0
H211 H 0.60755 0.49088 0.08136 0.0
H212 H 0.69457 0.4946 0.09064 0.0
H213 H 0.72213 0.60829 0.14572 0.0
H214 H 0.63743 0.60816 0.13449 0.0
C215 C 0.85009 0.57795 0.14796 0.0
C216 C 0.84539 0.52505 0.14812 0.0
C217 C 0.80826 0.5868 0.13833 0.0
C218 C 0.76064 0.54263 0.12905 0.0
C219 C 0.75575 0.48946 0.12992 0.0
C220 C 0.79774 0.48097 0.13909 0.0
C221 C 0.63353 0.51847 0.09463 0.0
C222 C 0.61586 0.54895 0.10736 0.0
C223 C 0.68283 0.51974 0.10041 0.0
C224 C 0.71468 0.55036 0.11954 0.0
C225 C 0.69889 0.58417 0.13094 0.0
C226 C 0.65018 0.58383 0.1247 0.0
H227 H 0.3882 0.95983 0.46636 0.0
H228 H 0.39379 0.85051 0.52713 0.0
H229 H 0.30237 0.88148 0.45394 0.0
H230 H 0.3072 0.77244 0.51493 0.0
H231 H 0.20622 0.63692 0.46245 0.0
H232 H 0.28342 0.71619 0.48017 0.0
H233 H 0.20414 0.81442 0.46462 0.0
H234 H 0.12752 0.73463 0.44655 0.0
C235 C 0.37061 0.91938 0.47738 0.0
C236 C 0.39831 0.91137 0.49759 0.0
C237 C 0.32119 0.87448 0.4703 0.0
C238 C 0.29829 0.82058 0.48328 0.0
C239 C 0.32438 0.81325 0.50427 0.0
C240 C 0.37384 0.85813 0.51135 0.0
C241 C 0.20557 0.67552 0.4631 0.0
C242 C 0.16168 0.6804 0.45331 0.0
C243 C 0.24927 0.72066 0.47334 0.0
C244 C 0.24979 0.77157 0.47391 0.0
C245 C 0.20516 0.77595 0.46428 0.0
C246 C 0.16141 0.7306 0.45406 0.0
H247 H 0.43997 0.39265 0.79568 0.0
H248 H 0.50919 0.37885 0.86539 0.0
H249 H 0.43531 0.30682 0.7852 0.0
H250 H 0.5029 0.29214 0.85529 0.0
H251 H 0.57554 0.2093 0.80943 0.0
H252 H 0.55837 0.27812 0.8262 0.0
H253 H 0.39952 0.20655 0.79254 0.0
H254 H 0.41782 0.13793 0.77556 0.0
C255 C 0.45245 0.37029 0.80913 0.0
C256 C 0.47583 0.39302 0.83117 0.0
C257 C 0.44972 0.32097 0.80314 0.0
C258 C 0.46987 0.29324 0.81919 0.0
C259 C 0.48847 0.31333 0.84222 0.0
C260 C 0.4917 0.36281 0.84809 0.0
C261 C 0.53661 0.20783 0.80609 0.0
C262 C 0.49794 0.16865 0.79133 0.0
C263 C 0.52651 0.24699 0.81572 0.0
C264 C 0.47734 0.24773 0.81084 0.0
C265 C 0.43797 0.20743 0.79649 0.0
C266 C 0.44824 0.16821 0.78682 0.0
H267 H 0.6437 0.90304 0.56289 0.0
H268 H 0.62434 0.86751 0.48652 0.0
H269 H 0.62334 0.80742 0.57581 0.0
H270 H 0.60271 0.77114 0.49951 0.0
H271 H 0.46742 0.59684 0.54142 0.0
H272 H 0.51094 0.69722 0.52707 0.0
H273 H 0.65284 0.73131 0.57001 0.0
H274 H 0.60991 0.63019 0.58345 0.0
C275 C 0.63717 0.87526 0.54882 0.0
C276 C 0.63563 0.89228 0.52375 0.0
C277 C 0.62538 0.82066 0.5562 0.0
C278 C 0.61071 0.78201 0.53866 0.0
C279 C 0.61354 0.80033 0.51335 0.0
C280 C 0.6265 0.85544 0.50589 0.0
C281 C 0.50787 0.626 0.5477 0.0
C282 C 0.53544 0.60637 0.56348 0.0
C283 C 0.53293 0.68306 0.53939 0.0
C284 C 0.58565 0.72156 0.54708 0.0
C285 C 0.61236 0.70223 0.5637 0.0
C286 C 0.5876 0.64483 0.57165 0.0
H287 H 0.79711 0.71616 0.81781 0.0
H288 H 0.70986 0.5349 0.83117 0.0
H289 H 0.8858 0.71918 0.8239 0.0
H290 H 0.79678 0.53764 0.83761 0.0
H291 H 0.95248 0.54277 0.8458 0.0
H292 H 0.88551 0.55721 0.82222 0.0
H293 H 0.92457 0.70051 0.86154 0.0
H294 H -0.00594 0.6877 0.88385 0.0
C295 C 0.7971 0.67707 0.82141 0.0
C296 C 0.7468 0.62538 0.82439 0.0
C297 C 0.84764 0.67874 0.82506 0.0
C298 C 0.84836 0.62868 0.83141 0.0
C299 C 0.79813 0.577 0.83245 0.0
C300 C 0.74806 0.57542 0.82902 0.0
C301 C 0.94793 0.5784 0.84869 0.0
C302 C 0.97747 0.61364 0.86682 0.0
C303 C 0.90939 0.5865 0.83538 0.0
C304 C 0.89896 0.62941 0.84032 0.0
C305 C 0.93171 0.66725 0.85716 0.0
C306 C 0.97083 0.65951 0.87022 0.0
H307 H 0.20281 0.71073 0.14496 0.0
H308 H 0.10943 0.70081 0.21084 0.0
H309 H 0.28358 0.7949 0.15716 0.0
H310 H 0.19077 0.78371 0.22352 0.0
H311 H 0.34291 0.95069 0.23581 0.0
H312 H 0.25799 0.88246 0.21725 0.0
H313 H 0.34762 0.80819 0.18847 0.0
H314 H 0.43184 0.87714 0.20657 0.0
C315 C 0.19933 0.72695 0.1619 0.0
C316 C 0.14999 0.69872 0.1771 0.0
C317 C 0.24574 0.77495 0.16899 0.0
C318 C 0.24408 0.79538 0.19159 0.0
C319 C 0.19351 0.76935 0.20594 0.0
C320 C 0.14684 0.72165 0.1987 0.0
C321 C 0.34394 0.91977 0.22534 0.0
C322 C 0.39334 0.91874 0.22245 0.0
C323 C 0.29561 0.88077 0.21477 0.0
C324 C 0.29599 0.83997 0.20124 0.0
C325 C 0.34599 0.83973 0.19823 0.0
C326 C 0.39414 0.87883 0.20868 0.0
H327 H 0.49143 0.18567 0.49475 0.0
H328 H 0.63924 0.26241 0.53655 0.0
H329 H 0.4703 0.25748 0.50486 0.0
H330 H 0.61769 0.33276 0.54683 0.0
H331 H 0.5948 0.48135 0.54329 0.0
H332 H 0.61382 0.41312 0.52686 0.0
H333 H 0.44156 0.28362 0.54304 0.0
H334 H 0.42283 0.35324 0.55884 0.0
C335 C 0.51955 0.21797 0.5059 0.0
C336 C 0.56696 0.2183 0.51487 0.0
C337 C 0.50725 0.25875 0.51181 0.0
C338 C 0.54242 0.3007 0.52658 0.0
C339 C 0.59022 0.30147 0.53511 0.0
C340 C 0.60235 0.26082 0.52933 0.0
C341 C 0.56113 0.43838 0.54293 0.0
C342 C 0.50755 0.42193 0.55218 0.0
C343 C 0.57188 0.39937 0.53372 0.0
C344 C 0.52922 0.343 0.53383 0.0
C345 C 0.47507 0.32691 0.54252 0.0
C346 C 0.46436 0.36625 0.55169 0.0
H347 H 0.39132 0.59806 0.89874 0.0
H348 H 0.31891 0.53687 0.82976 0.0
H349 H 0.30341 0.58546 0.91416 0.0
H350 H 0.23143 0.52645 0.84474 0.0
H351 H 0.06965 0.48583 0.87994 0.0
H352 H 0.15191 0.4779 0.87262 0.0
H353 H 0.2517 0.63073 0.90709 0.0
H354 H 0.16862 0.63643 0.91509 0.0
C355 C 0.35656 0.58196 0.88683 0.0
C356 C 0.3622 0.56899 0.86291 0.0
C357 C 0.30616 0.5749 0.89567 0.0
C358 C 0.26031 0.55538 0.88067 0.0
C359 C 0.26552 0.54079 0.85699 0.0
C360 C 0.31582 0.54716 0.84828 0.0
C361 C 0.10913 0.51646 0.88653 0.0
C362 C 0.11347 0.56159 0.89807 0.0
C363 C 0.15627 0.51251 0.88211 0.0
C364 C 0.20874 0.55417 0.88887 0.0
C365 C 0.21205 0.5975 0.90183 0.0
C366 C 0.16468 0.60095 0.90647 0.0
H367 H 0.87512 0.2935 0.23091 0.0
H368 H 0.82247 0.26491 0.15603 0.0
H369 H 0.78759 0.21032 0.24698 0.0
H370 H 0.7354 0.18075 0.17229 0.0
H371 H 0.60598 0.00684 0.21386 0.0
H372 H 0.70155 0.08066 0.20051 0.0
H373 H 0.68361 0.19556 0.24287 0.0
H374 H 0.58707 0.12253 0.25508 0.0
C375 C 0.84555 0.26871 0.21783 0.0
C376 C 0.85561 0.28587 0.19216 0.0
C377 C 0.79541 0.22137 0.22709 0.0
C378 C 0.755 0.18959 0.21084 0.0
C379 C 0.76622 0.20464 0.18513 0.0
C380 C 0.8159 0.25273 0.17586 0.0
C381 C 0.6227 0.04794 0.22027 0.0
C382 C 0.58932 0.05947 0.23522 0.0
C383 C 0.67716 0.08986 0.21275 0.0
C384 C 0.69954 0.14355 0.22064 0.0
C385 C 0.66721 0.15423 0.23671 0.0
C386 C 0.61228 0.11261 0.24376 0.0
H387 H 0.95039 0.43285 0.06779 0.0
H388 H 0.11074 0.58219 0.07287 0.0
H389 H 0.9623 0.44986 0.02245 0.0
H390 H 0.12247 0.59858 0.02791 0.0
H391 H 0.02233 0.47818 0.94029 0.0
H392 H 0.0209 0.45513 0.98537 0.0
H393 H 0.07633 0.62786 0.99605 0.0
H394 H 0.07761 0.65004 0.95123 0.0
C395 C -0.01169 0.4689 0.05931 0.0
C396 C 0.02926 0.50643 0.07404 0.0
C397 C -0.00471 0.47842 0.03334 0.0
C398 C 0.04321 0.52578 0.02163 0.0
C399 C 0.08479 0.56216 0.03637 0.0
C400 C 0.07799 0.55259 0.0622 0.0
C401 C 0.03527 0.51108 0.95243 0.0
C402 C 0.05027 0.56577 0.94263 0.0
C403 C 0.03391 0.49794 0.97811 0.0
C404 C 0.04829 0.53964 0.99426 0.0
C405 C 0.06554 0.59492 0.98413 0.0
C406 C 0.06629 0.60773 0.95858 0.0
H407 H 0.61558 0.99327 0.40901 0.0
H408 H 0.58198 0.12954 0.40577 0.0
H409 H 0.59826 0.98496 0.36511 0.0
H410 H 0.56729 0.12321 0.36169 0.0
H411 H 0.46648 0.04267 0.29558 0.0
H412 H 0.49764 0.06256 0.33731 0.0
H413 H 0.62544 0.02242 0.323 0.0
H414 H 0.59124 -0.00068 0.28159 0.0
C415 C 0.60562 0.02223 0.39879 0.0
C416 C 0.59941 0.06155 0.41093 0.0
C417 C 0.59598 0.01771 0.37354 0.0
C418 C 0.58067 0.05297 0.35979 0.0
C419 C 0.5775 0.09431 0.37175 0.0
C420 C 0.58626 0.0982 0.39703 0.0
C421 C 0.50122 0.03823 0.30149 0.0
C422 C 0.52618 0.01904 0.28564 0.0
C423 C 0.51967 0.05026 0.32527 0.0
C424 C 0.5642 0.04413 0.33368 0.0
C425 C 0.59055 0.02684 0.31735 0.0
C426 C 0.57155 0.01424 0.29356 0.0
H427 H 0.62141 0.65739 0.73058 0.0
H428 H 0.44285 0.54917 0.74121 0.0
H429 H 0.61573 0.64526 0.68657 0.0
H430 H 0.43748 0.53683 0.69706 0.0
H431 H 0.44505 0.55571 0.61186 0.0
H432 H 0.45263 0.58559 0.65379 0.0
H433 H 0.5942 0.56356 0.66407 0.0
H434 H 0.58624 0.53428 0.62234 0.0
C435 C 0.58083 0.63143 0.72354 0.0
C436 C 0.53263 0.60375 0.73956 0.0
C437 C 0.57768 0.62438 0.69829 0.0
C438 C 0.52625 0.58972 0.68838 0.0
C439 C 0.47769 0.56413 0.70411 0.0
C440 C 0.48084 0.57096 0.72945 0.0
C441 C 0.47804 0.5582 0.62314 0.0
C442 C 0.51479 0.54245 0.61428 0.0
C443 C 0.48225 0.57483 0.64707 0.0
C444 C 0.52389 0.57672 0.66227 0.0
C445 C 0.562 0.56307 0.65279 0.0
C446 C 0.55736 0.54598 0.62906 0.0
H447 H 0.66736 0.13239 0.60466 0.0
H448 H 0.51594 0.97037 0.60809 0.0
H449 H 0.6531 0.13545 0.64875 0.0
H450 H 0.50229 0.97324 0.6522 0.0
H451 H 0.62992 0.10771 0.73313 0.0
H452 H 0.64911 0.09203 0.69124 0.0
H453 H 0.47678 0.0292 0.67556 0.0
H454 H 0.45822 0.04413 0.71744 0.0
C455 C 0.63146 0.09707 0.61485 0.0
C456 C 0.59248 0.05143 0.60272 0.0
C457 C 0.62349 0.09869 0.64018 0.0
C458 C 0.57635 0.05476 0.65393 0.0
C459 C 0.53859 0.00812 0.64203 0.0
C460 C 0.54657 0.00643 0.61674 0.0
C461 C 0.59631 0.08971 0.7207 0.0
C462 C 0.54275 0.07717 0.72819 0.0
C463 C 0.6072 0.08114 0.69677 0.0
C464 C 0.56448 0.05951 0.68005 0.0
C465 C 0.51047 0.04528 0.68803 0.0
C466 C 0.4998 0.05412 0.71185 0.0
H467 H 0.60748 0.53496 0.9293 0.0
H468 H 0.57735 0.6719 0.93539 0.0
H469 H 0.61067 0.52306 0.97421 0.0
H470 H 0.57993 0.65936 0.98043 0.0
H471 H 0.61011 0.63892 0.06185 0.0
H472 H 0.63572 0.66246 0.01701 0.0
H473 H 0.53529 0.48623 0.00669 0.0
H474 H 0.51042 0.46376 0.05118 0.0
C475 C 0.60215 0.563 0.94016 0.0
C476 C 0.5913 0.60387 0.92871 0.0
C477 C 0.60394 0.55607 0.96592 0.0
C478 C 0.59505 0.58989 0.98089 0.0
C479 C 0.5874 0.63291 0.9694 0.0
C480 C 0.5855 0.63981 0.94357 0.0
C481 C 0.59517 0.60552 0.04988 0.0
C482 C 0.55875 0.54968 0.05961 0.0
C483 C 0.60921 0.61882 0.02433 0.0
C484 C 0.58738 0.57621 0.0083 0.0
C485 C 0.55344 0.51998 0.0185 0.0
C486 C 0.53906 0.50697 0.04387 0.0
H487 H 0.03306 0.44354 0.27249 0.0
H488 H 0.96352 0.55222 0.26554 0.0
H489 H 0.04398 0.45529 0.31639 0.0
H490 H 0.97498 0.56417 0.3097 0.0
H491 H 0.97034 0.54127 0.39522 0.0
H492 H 0.94442 0.51379 0.35316 0.0
H493 H 0.10743 0.53694 0.3384 0.0
H494 H 0.13237 0.56386 0.38027 0.0
C495 C 0.01966 0.46963 0.28032 0.0
C496 C -0.00203 0.49747 0.26534 0.0
C497 C 0.02609 0.47643 0.30551 0.0
C498 C 0.01083 0.51104 0.31644 0.0
C499 C 0.98681 0.53693 0.30181 0.0
C500 C 0.98054 0.53032 0.27648 0.0
C501 C -0.0001 0.53947 0.38293 0.0
C502 C 0.05321 0.55464 0.39061 0.0
C503 C 0.98543 0.52429 0.35893 0.0
C504 C 0.02395 0.52335 0.34247 0.0
C505 C 0.07663 0.53669 0.35069 0.0
C506 C 0.09111 0.55233 0.37451 0.0
loop_
_geom_bond_atom_site_label_1
_geom_bond_atom_site_label_2
_geom_bond_distance
_geom_bond_site_symmetry_2
_ccdc_geom_bond_type
O0 Zn1 1.953 . S
O0 C16 1.225 . S
Zn1 O0 1.953 . S
Zn1 O2 1.949 . S
Zn1 O8 1.919 1_455 S
Zn1 O13 1.924 . S
O2 Zn1 1.949 . S
O2 Zn3 1.923 1_455 S
O2 Zn4 1.950 . S
O2 Zn5 1.945 . S
Zn3 O2 1.923 1_655 S
Zn3 O6 1.933 . S
Zn3 O9 1.941 . S
Zn3 O10 1.965 . S
Zn4 O2 1.950 . S
Zn4 O11 1.938 1_455 S
Zn4 O12 1.906 . S
Zn4 O22 1.953 . S
Zn5 O2 1.945 . S
Zn5 O7 1.932 . S
Zn5 O14 1.977 . S
Zn5 O15 1.910 . S
O6 Zn3 1.933 . S
O6 C17 1.226 1_655 S
O7 Zn5 1.932 . S
O7 C17 1.307 . S
O8 Zn1 1.919 1_655 S
O8 C19 1.253 . S
O9 Zn3 1.941 . S
O9 C19 1.283 . S
O10 Zn3 1.965 . S
O10 C18 1.303 . S
O11 Zn4 1.938 1_655 S
O11 C18 1.247 . S
O12 Zn4 1.906 . S
O12 C20 1.304 . S
O13 Zn1 1.924 . S
O13 C21 1.311 . S
O14 Zn5 1.977 . S
O14 C20 1.272 . S
O15 Zn5 1.910 . S
O15 C21 1.231 . S
C16 O0 1.225 . S
C16 O22 1.298 . S
C17 O6 1.226 1_455 S
C17 O7 1.307 . S
C18 O10 1.303 . S
C18 O11 1.247 . S
C19 O8 1.253 . S
C19 O9 1.283 . S
C20 O12 1.304 . S
C20 O14 1.272 . S
C21 O13 1.311 . S
C21 O15 1.231 . S
O22 Zn4 1.953 . S
O22 C16 1.298 . S
O23 Zn24 1.953 . S
O23 C39 1.225 . S
Zn24 O23 1.953 . S
Zn24 O25 1.949 . S
Zn24 O31 1.919 . S
Zn24 O36 1.924 . S
O25 Zn24 1.949 . S
O25 Zn26 1.923 . S
O25 Zn27 1.950 . S
O25 Zn28 1.945 1_545 S
Zn26 O25 1.923 . S
Zn26 O29 1.933 . S
Zn26 O32 1.941 . S
Zn26 O33 1.965 . S
Zn27 O25 1.950 . S
Zn27 O34 1.938 . S
Zn27 O35 1.906 1_545 S
Zn27 O45 1.953 . S
Zn28 O25 1.945 1_565 S
Zn28 O30 1.932 1_565 S
Zn28 O37 1.977 . S
Zn28 O38 1.910 . S
O29 Zn26 1.933 . S
O29 C40 1.226 . S
O30 Zn28 1.932 1_545 S
O30 C40 1.307 . S
O31 Zn24 1.919 . S
O31 C42 1.253 . S
O32 Zn26 1.941 . S
O32 C42 1.283 . S
O33 Zn26 1.965 . S
O33 C41 1.303 . S
O34 Zn27 1.938 . S
O34 C41 1.247 . S
O35 Zn27 1.906 1_565 S
O35 C43 1.304 . S
O36 Zn24 1.924 . S
O36 C44 1.311 1_545 S
O37 Zn28 1.977 . S
O37 C43 1.272 . S
O38 Zn28 1.910 . S
O38 C44 1.231 . S
C39 O23 1.225 . S
C39 O45 1.298 . S
C40 O29 1.226 . S
C40 O30 1.307 . S
C41 O33 1.303 . S
C41 O34 1.247 . S
C42 O31 1.253 . S
C42 O32 1.283 . S
C43 O35 1.304 . S
C43 O37 1.272 . S
C44 O36 1.311 1_565 S
C44 O38 1.231 . S
O45 Zn27 1.953 . S
O45 C39 1.298 . S
O46 Zn47 1.953 . S
O46 C62 1.225 . S
Zn47 O46 1.953 . S
Zn47 O48 1.949 . S
Zn47 O54 1.919 . S
Zn47 O59 1.924 . S
O48 Zn47 1.949 . S
O48 Zn49 1.923 . S
O48 Zn50 1.950 . S
O48 Zn51 1.945 . S
Zn49 O48 1.923 . S
Zn49 O52 1.933 . S
Zn49 O55 1.941 . S
Zn49 O56 1.965 . S
Zn50 O48 1.950 . S
Zn50 O57 1.938 . S
Zn50 O58 1.906 . S
Zn50 O68 1.953 . S
Zn51 O48 1.945 . S
Zn51 O53 1.932 . S
Zn51 O60 1.977 . S
Zn51 O61 1.910 . S
O52 Zn49 1.933 . S
O52 C63 1.226 . S
O53 Zn51 1.932 . S
O53 C63 1.307 . S
O54 Zn47 1.919 . S
O54 C65 1.253 . S
O55 Zn49 1.941 . S
O55 C65 1.283 . S
O56 Zn49 1.965 . S
O56 C64 1.303 . S
O57 Zn50 1.938 . S
O57 C64 1.247 . S
O58 Zn50 1.906 . S
O58 C66 1.304 . S
O59 Zn47 1.924 . S
O59 C67 1.311 . S
O60 Zn51 1.977 . S
O60 C66 1.272 . S
O61 Zn51 1.910 . S
O61 C67 1.231 . S
C62 O46 1.225 . S
C62 O68 1.298 . S
C63 O52 1.226 . S
C63 O53 1.307 . S
C64 O56 1.303 . S
C64 O57 1.247 . S
C65 O54 1.253 . S
C65 O55 1.283 . S
C66 O58 1.304 . S
C66 O60 1.272 . S
C67 O59 1.311 . S
C67 O61 1.231 . S
O68 Zn50 1.953 . S
O68 C62 1.298 . S
C69 N70 1.317 . S
C69 N71 1.348 1_545 S
C69 C72 1.485 . S
N70 C69 1.317 . S
N70 N74 1.370 . S
N71 C69 1.348 1_565 S
N71 C73 1.346 . S
C72 C69 1.485 . S
C72 H76 0.960 . S
C72 H77 0.961 . S
C72 H78 0.960 . S
C73 N71 1.346 . S
C73 N74 1.307 1_565 S
C73 C75 1.486 . S
N74 N70 1.370 . S
N74 C73 1.307 1_545 S
C75 C73 1.486 . S
C75 H79 0.960 . S
C75 H80 0.960 . S
C75 H81 0.959 . S
H76 C72 0.960 . S
H77 C72 0.961 . S
H78 C72 0.960 . S
H79 C75 0.960 . S
H80 C75 0.960 . S
H81 C75 0.959 . S
C82 N83 1.317 . S
C82 N84 1.348 . S
C82 C85 1.485 . S
N83 C82 1.317 . S
N83 N87 1.370 . S
N84 C82 1.348 . S
N84 C86 1.346 . S
C85 C82 1.485 . S
C85 H89 0.960 . S
C85 H90 0.961 . S
C85 H91 0.960 . S
C86 N84 1.346 . S
C86 N87 1.307 . S
C86 C88 1.486 . S
N87 N83 1.370 . S
N87 C86 1.307 . S
C88 C86 1.486 . S
C88 H92 0.960 . S
C88 H93 0.960 . S
C88 H94 0.959 . S
H89 C85 0.960 . S
H90 C85 0.961 . S
H91 C85 0.960 . S
H92 C88 0.960 . S
H93 C88 0.960 . S
H94 C88 0.959 . S
C95 N96 1.317 . S
C95 N97 1.348 . S
C95 C98 1.485 . S
N96 C95 1.317 . S
N96 N100 1.370 . S
N97 C95 1.348 . S
N97 C99 1.346 . S
C98 C95 1.485 . S
C98 H102 0.960 . S
C98 H103 0.961 . S
C98 H104 0.960 . S
C99 N97 1.346 . S
C99 N100 1.307 . S
C99 C101 1.486 1_455 S
N100 N96 1.370 . S
N100 C99 1.307 . S
C101 C99 1.486 1_655 S
C101 H105 0.960 . S
C101 H106 0.960 . S
C101 H107 0.959 . S
H102 C98 0.960 . S
H103 C98 0.961 . S
H104 C98 0.960 . S
H105 C101 0.960 . S
H106 C101 0.960 . S
H107 C101 0.959 . S
C108 N109 1.317 . S
C108 N110 1.348 . S
C108 C111 1.485 . S
N109 C108 1.317 . S
N109 N113 1.370 . S
N110 C108 1.348 . S
N110 C112 1.346 . S
C111 C108 1.485 . S
C111 H115 0.960 . S
C111 H116 0.961 . S
C111 H117 0.960 . S
C112 N110 1.346 . S
C112 N113 1.307 . S
C112 C114 1.486 . S
N113 N109 1.370 . S
N113 C112 1.307 . S
C114 C112 1.486 . S
C114 H118 0.960 . S
C114 H119 0.960 . S
C114 H120 0.959 . S
H115 C111 0.960 . S
H116 C111 0.961 . S
H117 C111 0.960 . S
H118 C114 0.960 . S
H119 C114 0.960 . S
H120 C114 0.959 . S
C121 N122 1.317 . S
C121 N123 1.348 . S
C121 C124 1.485 . S
N122 C121 1.317 . S
N122 N126 1.370 . S
N123 C121 1.348 . S
N123 C125 1.346 . S
C124 C121 1.485 . S
C124 H128 0.960 . S
C124 H129 0.961 . S
C124 H130 0.960 . S
C125 N123 1.346 . S
C125 N126 1.307 . S
C125 C127 1.486 . S
N126 N122 1.370 . S
N126 C125 1.307 . S
C127 C125 1.486 . S
C127 H131 0.960 . S
C127 H132 0.960 . S
C127 H133 0.959 . S
H128 C124 0.960 . S
H129 C124 0.961 . S
H130 C124 0.960 . S
H131 C127 0.960 . S
H132 C127 0.960 . S
H133 C127 0.959 . S
C134 N135 1.317 . S
C134 N136 1.348 . S
C134 C137 1.485 . S
N135 C134 1.317 . S
N135 N139 1.370 . S
N136 C134 1.348 . S
N136 C138 1.346 . S
C137 C134 1.485 . S
C137 H141 0.960 . S
C137 H142 0.961 . S
C137 H143 0.960 . S
C138 N136 1.346 . S
C138 N139 1.307 . S
C138 C140 1.486 . S
N139 N135 1.370 . S
N139 C138 1.307 . S
C140 C138 1.486 . S
C140 H144 0.960 . S
C140 H145 0.960 . S
C140 H146 0.959 . S
H141 C137 0.960 . S
H142 C137 0.961 . S
H143 C137 0.960 . S
H144 C140 0.960 . S
H145 C140 0.960 . S
H146 C140 0.959 . S
H147 C155 0.950 . S
H148 C160 0.950 . S
H149 C157 0.950 . S
H150 C159 0.950 . S
H151 C161 0.950 . S
H152 C163 0.950 . S
H153 C165 0.950 . S
H154 C166 0.950 . S
C155 H147 0.950 . S
C155 C156 1.386 . S
C155 C157 1.391 . S
C156 C155 1.386 . S
C156 C160 1.393 . S
C157 H149 0.950 . S
C157 C155 1.391 . S
C157 C158 1.400 . S
C158 C157 1.400 . S
C158 C159 1.398 . S
C158 C164 1.491 . S
C159 H150 0.950 . S
C159 C158 1.398 . S
C159 C160 1.391 . S
C160 H148 0.950 . S
C160 C156 1.393 . S
C160 C159 1.391 . S
C161 H151 0.950 . S
C161 C162 1.386 . S
C161 C163 1.391 . S
C162 C161 1.386 . S
C162 C166 1.393 . S
C163 H152 0.950 . S
C163 C161 1.391 . S
C163 C164 1.400 . S
C164 C158 1.491 . S
C164 C163 1.400 . S
C164 C165 1.398 . S
C165 H153 0.950 . S
C165 C164 1.398 . S
C165 C166 1.391 . S
C166 H154 0.950 . S
C166 C162 1.393 . S
C166 C165 1.391 . S
H167 C175 0.950 . S
H168 C180 0.950 . S
H169 C177 0.950 . S
H170 C179 0.950 . S
H171 C181 0.950 1_455 S
H172 C183 0.950 . S
H173 C185 0.950 . S
H174 C186 0.950 . S
C175 H167 0.950 . S
C175 C176 1.386 . S
C175 C177 1.391 . S
C176 C175 1.386 . S
C176 C180 1.393 . S
C177 H169 0.950 . S
C177 C175 1.391 . S
C177 C178 1.400 . S
C178 C177 1.400 . S
C178 C179 1.398 . S
C178 C184 1.491 . S
C179 H170 0.950 . S
C179 C178 1.398 . S
C179 C180 1.391 . S
C180 H168 0.950 . S
C180 C176 1.393 . S
C180 C179 1.391 . S
C181 H171 0.950 1_655 S
C181 C182 1.386 . S
C181 C183 1.391 . S
C182 C181 1.386 . S
C182 C186 1.393 . S
C183 H172 0.950 . S
C183 C181 1.391 . S
C183 C184 1.400 . S
C184 C178 1.491 . S
C184 C183 1.400 . S
C184 C185 1.398 . S
C185 H173 0.950 . S
C185 C184 1.398 . S
C185 C186 1.391 . S
C186 H174 0.950 . S
C186 C182 1.393 . S
C186 C185 1.391 . S
H187 C195 0.950 . S
H188 C200 0.950 . S
H189 C197 0.950 . S
H190 C199 0.950 . S
H191 C201 0.950 . S
H192 C203 0.950 . S
H193 C205 0.950 . S
H194 C206 0.950 . S
C195 H187 0.950 . S
C195 C196 1.386 . S
C195 C197 1.391 . S
C196 C195 1.386 . S
C196 C200 1.393 . S
C197 H189 0.950 . S
C197 C195 1.391 . S
C197 C198 1.400 . S
C198 C197 1.400 . S
C198 C199 1.398 . S
C198 C204 1.491 . S
C199 H190 0.950 . S
C199 C198 1.398 . S
C199 C200 1.391 . S
C200 H188 0.950 . S
C200 C196 1.393 . S
C200 C199 1.391 . S
C201 H191 0.950 . S
C201 C202 1.386 1_565 S
C201 C203 1.391 . S
C202 C201 1.386 1_545 S
C202 C206 1.393 . S
C203 H192 0.950 . S
C203 C201 1.391 . S
C203 C204 1.400 . S
C204 C198 1.491 . S
C204 C203 1.400 . S
C204 C205 1.398 . S
C205 H193 0.950 . S
C205 C204 1.398 . S
C205 C206 1.391 1_565 S
C206 H194 0.950 . S
C206 C202 1.393 . S
C206 C205 1.391 1_545 S
H207 C215 0.950 . S
H208 C220 0.950 . S
H209 C217 0.950 . S
H210 C219 0.950 . S
H211 C221 0.950 . S
H212 C223 0.950 . S
H213 C225 0.950 . S
H214 C226 0.950 . S
C215 H207 0.950 . S
C215 C216 1.386 . S
C215 C217 1.391 . S
C216 C215 1.386 . S
C216 C220 1.393 . S
C217 H209 0.950 . S
C217 C215 1.391 . S
C217 C218 1.400 . S
C218 C217 1.400 . S
C218 C219 1.398 . S
C218 C224 1.491 . S
C219 H210 0.950 . S
C219 C218 1.398 . S
C219 C220 1.391 . S
C220 H208 0.950 . S
C220 C216 1.393 . S
C220 C219 1.391 . S
C221 H211 0.950 . S
C221 C222 1.386 . S
C221 C223 1.391 . S
C222 C221 1.386 . S
C222 C226 1.393 . S
C223 H212 0.950 . S
C223 C221 1.391 . S
C223 C224 1.400 . S
C224 C218 1.491 . S
C224 C223 1.400 . S
C224 C225 1.398 . S
C225 H213 0.950 . S
C225 C224 1.398 . S
C225 C226 1.391 . S
C226 H214 0.950 . S
C226 C222 1.393 . S
C226 C225 1.391 . S
H227 C235 0.950 . S
H228 C240 0.950 . S
H229 C237 0.950 . S
H230 C239 0.950 . S
H231 C241 0.950 . S
H232 C243 0.950 . S
H233 C245 0.950 . S
H234 C246 0.950 . S
C235 H227 0.950 . S
C235 C236 1.386 . S
C235 C237 1.391 . S
C236 C235 1.386 . S
C236 C240 1.393 . S
C237 H229 0.950 . S
C237 C235 1.391 . S
C237 C238 1.400 . S
C238 C237 1.400 . S
C238 C239 1.398 . S
C238 C244 1.491 . S
C239 H230 0.950 . S
C239 C238 1.398 . S
C239 C240 1.391 . S
C240 H228 0.950 . S
C240 C236 1.393 . S
C240 C239 1.391 . S
C241 H231 0.950 . S
C241 C242 1.386 . S
C241 C243 1.391 . S
C242 C241 1.386 . S
C242 C246 1.393 . S
C243 H232 0.950 . S
C243 C241 1.391 . S
C243 C244 1.400 . S
C244 C238 1.491 . S
C244 C243 1.400 . S
C244 C245 1.398 . S
C245 H233 0.950 . S
C245 C244 1.398 . S
C245 C246 1.391 . S
C246 H234 0.950 . S
C246 C242 1.393 . S
C246 C245 1.391 . S
H247 C255 0.950 . S
H248 C260 0.950 . S
H249 C257 0.950 . S
H250 C259 0.950 . S
H251 C261 0.950 . S
H252 C263 0.950 . S
H253 C265 0.950 . S
H254 C266 0.950 . S
C255 H247 0.950 . S
C255 C256 1.386 . S
C255 C257 1.391 . S
C256 C255 1.386 . S
C256 C260 1.393 . S
C257 H249 0.950 . S
C257 C255 1.391 . S
C257 C258 1.400 . S
C258 C257 1.400 . S
C258 C259 1.398 . S
C258 C264 1.491 . S
C259 H250 0.950 . S
C259 C258 1.398 . S
C259 C260 1.391 . S
C260 H248 0.950 . S
C260 C256 1.393 . S
C260 C259 1.391 . S
C261 H251 0.950 . S
C261 C262 1.386 . S
C261 C263 1.391 . S
C262 C261 1.386 . S
C262 C266 1.393 . S
C263 H252 0.950 . S
C263 C261 1.391 . S
C263 C264 1.400 . S
C264 C258 1.491 . S
C264 C263 1.400 . S
C264 C265 1.398 . S
C265 H253 0.950 . S
C265 C264 1.398 . S
C265 C266 1.391 . S
C266 H254 0.950 . S
C266 C262 1.393 . S
C266 C265 1.391 . S
H267 C275 0.950 . S
H268 C280 0.950 . S
H269 C277 0.950 . S
H270 C279 0.950 . S
H271 C281 0.950 . S
H272 C283 0.950 . S
H273 C285 0.950 . S
H274 C286 0.950 . S
C275 H267 0.950 . S
C275 C276 1.386 . S
C275 C277 1.391 . S
C276 C275 1.386 . S
C276 C280 1.393 . S
C277 H269 0.950 . S
C277 C275 1.391 . S
C277 C278 1.400 . S
C278 C277 1.400 . S
C278 C279 1.398 . S
C278 C284 1.491 . S
C279 H270 0.950 . S
C279 C278 1.398 . S
C279 C280 1.391 . S
C280 H268 0.950 . S
C280 C276 1.393 . S
C280 C279 1.391 . S
C281 H271 0.950 . S
C281 C282 1.386 . S
C281 C283 1.391 . S
C282 C281 1.386 . S
C282 C286 1.393 . S
C283 H272 0.950 . S
C283 C281 1.391 . S
C283 C284 1.400 . S
C284 C278 1.491 . S
C284 C283 1.400 . S
C284 C285 1.398 . S
C285 H273 0.950 . S
C285 C284 1.398 . S
C285 C286 1.391 . S
C286 H274 0.950 . S
C286 C282 1.393 . S
C286 C285 1.391 . S
H287 C295 0.950 . S
H288 C300 0.950 . S
H289 C297 0.950 . S
H290 C299 0.950 . S
H291 C301 0.950 . S
H292 C303 0.950 . S
H293 C305 0.950 . S
H294 C306 0.950 1_455 S
C295 H287 0.950 . S
C295 C296 1.386 . S
C295 C297 1.391 . S
C296 C295 1.386 . S
C296 C300 1.393 . S
C297 H289 0.950 . S
C297 C295 1.391 . S
C297 C298 1.400 . S
C298 C297 1.400 . S
C298 C299 1.398 . S
C298 C304 1.491 . S
C299 H290 0.950 . S
C299 C298 1.398 . S
C299 C300 1.391 . S
C300 H288 0.950 . S
C300 C296 1.393 . S
C300 C299 1.391 . S
C301 H291 0.950 . S
C301 C302 1.386 . S
C301 C303 1.391 . S
C302 C301 1.386 . S
C302 C306 1.393 . S
C303 H292 0.950 . S
C303 C301 1.391 . S
C303 C304 1.400 . S
C304 C298 1.491 . S
C304 C303 1.400 . S
C304 C305 1.398 . S
C305 H293 0.950 . S
C305 C304 1.398 . S
C305 C306 1.391 . S
C306 H294 0.950 1_655 S
C306 C302 1.393 . S
C306 C305 1.391 . S
H307 C315 0.950 . S
H308 C320 0.950 . S
H309 C317 0.950 . S
H310 C319 0.950 . S
H311 C321 0.950 . S
H312 C323 0.950 . S
H313 C325 0.950 . S
H314 C326 0.950 . S
C315 H307 0.950 . S
C315 C316 1.386 . S
C315 C317 1.391 . S
C316 C315 1.386 . S
C316 C320 1.393 . S
C317 H309 0.950 . S
C317 C315 1.391 . S
C317 C318 1.400 . S
C318 C317 1.400 . S
C318 C319 1.398 . S
C318 C324 1.491 . S
C319 H310 0.950 . S
C319 C318 1.398 . S
C319 C320 1.391 . S
C320 H308 0.950 . S
C320 C316 1.393 . S
C320 C319 1.391 . S
C321 H311 0.950 . S
C321 C322 1.386 . S
C321 C323 1.391 . S
C322 C321 1.386 . S
C322 C326 1.393 . S
C323 H312 0.950 . S
C323 C321 1.391 . S
C323 C324 1.400 . S
C324 C318 1.491 . S
C324 C323 1.400 . S
C324 C325 1.398 . S
C325 H313 0.950 . S
C325 C324 1.398 . S
C325 C326 1.391 . S
C326 H314 0.950 . S
C326 C322 1.393 . S
C326 C325 1.391 . S
H327 C335 0.950 . S
H328 C340 0.950 . S
H329 C337 0.950 . S
H330 C339 0.950 . S
H331 C341 0.950 . S
H332 C343 0.950 . S
H333 C345 0.950 . S
H334 C346 0.950 . S
C335 H327 0.950 . S
C335 C336 1.386 . S
C335 C337 1.391 . S
C336 C335 1.386 . S
C336 C340 1.393 . S
C337 H329 0.950 . S
C337 C335 1.391 . S
C337 C338 1.400 . S
C338 C337 1.400 . S
C338 C339 1.398 . S
C338 C344 1.491 . S
C339 H330 0.950 . S
C339 C338 1.398 . S
C339 C340 1.391 . S
C340 H328 0.950 . S
C340 C336 1.393 . S
C340 C339 1.391 . S
C341 H331 0.950 . S
C341 C342 1.386 . S
C341 C343 1.391 . S
C342 C341 1.386 . S
C342 C346 1.393 . S
C343 H332 0.950 . S
C343 C341 1.391 . S
C343 C344 1.400 . S
C344 C338 1.491 . S
C344 C343 1.400 . S
C344 C345 1.398 . S
C345 H333 0.950 . S
C345 C344 1.398 . S
C345 C346 1.391 . S
C346 H334 0.950 . S
C346 C342 1.393 . S
C346 C345 1.391 . S
H347 C355 0.950 . S
H348 C360 0.950 . S
H349 C357 0.950 . S
H350 C359 0.950 . S
H351 C361 0.950 . S
H352 C363 0.950 . S
H353 C365 0.950 . S
H354 C366 0.950 . S
C355 H347 0.950 . S
C355 C356 1.386 . S
C355 C357 1.391 . S
C356 C355 1.386 . S
C356 C360 1.393 . S
C357 H349 0.950 . S
C357 C355 1.391 . S
C357 C358 1.400 . S
C358 C357 1.400 . S
C358 C359 1.398 . S
C358 C364 1.491 . S
C359 H350 0.950 . S
C359 C358 1.398 . S
C359 C360 1.391 . S
C360 H348 0.950 . S
C360 C356 1.393 . S
C360 C359 1.391 . S
C361 H351 0.950 . S
C361 C362 1.386 . S
C361 C363 1.391 . S
C362 C361 1.386 . S
C362 C366 1.393 . S
C363 H352 0.950 . S
C363 C361 1.391 . S
C363 C364 1.400 . S
C364 C358 1.491 . S
C364 C363 1.400 . S
C364 C365 1.398 . S
C365 H353 0.950 . S
C365 C364 1.398 . S
C365 C366 1.391 . S
C366 H354 0.950 . S
C366 C362 1.393 . S
C366 C365 1.391 . S
H367 C375 0.950 . S
H368 C380 0.950 . S
H369 C377 0.950 . S
H370 C379 0.950 . S
H371 C381 0.950 . S
H372 C383 0.950 . S
H373 C385 0.950 . S
H374 C386 0.950 . S
C375 H367 0.950 . S
C375 C376 1.386 . S
C375 C377 1.391 . S
C376 C375 1.386 . S
C376 C380 1.393 . S
C377 H369 0.950 . S
C377 C375 1.391 . S
C377 C378 1.400 . S
C378 C377 1.400 . S
C378 C379 1.398 . S
C378 C384 1.491 . S
C379 H370 0.950 . S
C379 C378 1.398 . S
C379 C380 1.391 . S
C380 H368 0.950 . S
C380 C376 1.393 . S
C380 C379 1.391 . S
C381 H371 0.950 . S
C381 C382 1.386 . S
C381 C383 1.391 . S
C382 C381 1.386 . S
C382 C386 1.393 . S
C383 H372 0.950 . S
C383 C381 1.391 . S
C383 C384 1.400 . S
C384 C378 1.491 . S
C384 C383 1.400 . S
C384 C385 1.398 . S
C385 H373 0.950 . S
C385 C384 1.398 . S
C385 C386 1.391 . S
C386 H374 0.950 . S
C386 C382 1.393 . S
C386 C385 1.391 . S
H387 C395 0.950 1_655 S
H388 C400 0.950 . S
H389 C397 0.950 1_655 S
H390 C399 0.950 . S
H391 C401 0.950 . S
H392 C403 0.950 . S
H393 C405 0.950 1_655 S
H394 C406 0.950 . S
C395 H387 0.950 1_455 S
C395 C396 1.386 . S
C395 C397 1.391 . S
C396 C395 1.386 . S
C396 C400 1.393 . S
C397 H389 0.950 1_455 S
C397 C395 1.391 . S
C397 C398 1.400 . S
C398 C397 1.400 . S
C398 C399 1.398 . S
C398 C404 1.491 1_554 S
C399 H390 0.950 . S
C399 C398 1.398 . S
C399 C400 1.391 . S
C400 H388 0.950 . S
C400 C396 1.393 . S
C400 C399 1.391 . S
C401 H391 0.950 . S
C401 C402 1.386 . S
C401 C403 1.391 . S
C402 C401 1.386 . S
C402 C406 1.393 . S
C403 H392 0.950 . S
C403 C401 1.391 . S
C403 C404 1.400 . S
C404 C398 1.491 1_556 S
C404 C403 1.400 . S
C404 C405 1.398 . S
C405 H393 0.950 1_455 S
C405 C404 1.398 . S
C405 C406 1.391 . S
C406 H394 0.950 . S
C406 C402 1.393 . S
C406 C405 1.391 . S
H407 C415 0.950 1_565 S
H408 C420 0.950 . S
H409 C417 0.950 1_565 S
H410 C419 0.950 . S
H411 C421 0.950 . S
H412 C423 0.950 . S
H413 C425 0.950 . S
H414 C426 0.950 . S
C415 H407 0.950 1_545 S
C415 C416 1.386 . S
C415 C417 1.391 . S
C416 C415 1.386 . S
C416 C420 1.393 . S
C417 H409 0.950 1_545 S
C417 C415 1.391 . S
C417 C418 1.400 . S
C418 C417 1.400 . S
C418 C419 1.398 . S
C418 C424 1.491 . S
C419 H410 0.950 . S
C419 C418 1.398 . S
C419 C420 1.391 . S
C420 H408 0.950 . S
C420 C416 1.393 . S
C420 C419 1.391 . S
C421 H411 0.950 . S
C421 C422 1.386 . S
C421 C423 1.391 . S
C422 C421 1.386 . S
C422 C426 1.393 1_545 S
C423 H412 0.950 . S
C423 C421 1.391 . S
C423 C424 1.400 . S
C424 C418 1.491 . S
C424 C423 1.400 . S
C424 C425 1.398 1_545 S
C425 H413 0.950 . S
C425 C424 1.398 1_565 S
C425 C426 1.391 . S
C426 H414 0.950 . S
C426 C422 1.393 1_565 S
C426 C425 1.391 . S
H427 C435 0.950 . S
H428 C440 0.950 . S
H429 C437 0.950 . S
H430 C439 0.950 . S
H431 C441 0.950 . S
H432 C443 0.950 . S
H433 C445 0.950 . S
H434 C446 0.950 . S
C435 H427 0.950 . S
C435 C436 1.386 . S
C435 C437 1.391 . S
C436 C435 1.386 . S
C436 C440 1.393 . S
C437 H429 0.950 . S
C437 C435 1.391 . S
C437 C438 1.400 . S
C438 C437 1.400 . S
C438 C439 1.398 . S
C438 C444 1.491 . S
C439 H430 0.950 . S
C439 C438 1.398 . S
C439 C440 1.391 . S
C440 H428 0.950 . S
C440 C436 1.393 . S
C440 C439 1.391 . S
C441 H431 0.950 . S
C441 C442 1.386 . S
C441 C443 1.391 . S
C442 C441 1.386 . S
C442 C446 1.393 . S
C443 H432 0.950 . S
C443 C441 1.391 . S
C443 C444 1.400 . S
C444 C438 1.491 . S
C444 C443 1.400 . S
C444 C445 1.398 . S
C445 H433 0.950 . S
C445 C444 1.398 . S
C445 C446 1.391 . S
C446 H434 0.950 . S
C446 C442 1.393 . S
C446 C445 1.391 . S
H447 C455 0.950 . S
H448 C460 0.950 1_565 S
H449 C457 0.950 . S
H450 C459 0.950 1_565 S
H451 C461 0.950 . S
H452 C463 0.950 1_565 S
H453 C465 0.950 . S
H454 C466 0.950 . S
C455 H447 0.950 . S
C455 C456 1.386 . S
C455 C457 1.391 . S
C456 C455 1.386 . S
C456 C460 1.393 . S
C457 H449 0.950 . S
C457 C455 1.391 . S
C457 C458 1.400 . S
C458 C457 1.400 . S
C458 C459 1.398 . S
C458 C464 1.491 . S
C459 H450 0.950 1_545 S
C459 C458 1.398 . S
C459 C460 1.391 . S
C460 H448 0.950 1_545 S
C460 C456 1.393 . S
C460 C459 1.391 . S
C461 H451 0.950 . S
C461 C462 1.386 . S
C461 C463 1.391 . S
C462 C461 1.386 . S
C462 C466 1.393 . S
C463 H452 0.950 1_545 S
C463 C461 1.391 . S
C463 C464 1.400 . S
C464 C458 1.491 . S
C464 C463 1.400 . S
C464 C465 1.398 . S
C465 H453 0.950 . S
C465 C464 1.398 . S
C465 C466 1.391 . S
C466 H454 0.950 . S
C466 C462 1.393 . S
C466 C465 1.391 . S
H467 C475 0.950 . S
H468 C480 0.950 . S
H469 C477 0.950 . S
H470 C479 0.950 . S
H471 C481 0.950 . S
H472 C483 0.950 . S
H473 C485 0.950 . S
H474 C486 0.950 . S
C475 H467 0.950 . S
C475 C476 1.386 . S
C475 C477 1.391 . S
C476 C475 1.386 . S
C476 C480 1.393 . S
C477 H469 0.950 . S
C477 C475 1.391 . S
C477 C478 1.400 . S
C478 C477 1.400 . S
C478 C479 1.398 . S
C478 C484 1.491 1_556 S
C479 H470 0.950 . S
C479 C478 1.398 . S
C479 C480 1.391 . S
C480 H468 0.950 . S
C480 C476 1.393 . S
C480 C479 1.391 . S
C481 H471 0.950 . S
C481 C482 1.386 . S
C481 C483 1.391 . S
C482 C481 1.386 . S
C482 C486 1.393 . S
C483 H472 0.950 . S
C483 C481 1.391 . S
C483 C484 1.400 . S
C484 C478 1.491 1_554 S
C484 C483 1.400 . S
C484 C485 1.398 . S
C485 H473 0.950 . S
C485 C484 1.398 . S
C485 C486 1.391 . S
C486 H474 0.950 . S
C486 C482 1.393 . S
C486 C485 1.391 . S
H487 C495 0.950 . S
H488 C500 0.950 1_655 S
H489 C497 0.950 . S
H490 C499 0.950 . S
H491 C501 0.950 . S
H492 C503 0.950 . S
H493 C505 0.950 . S
H494 C506 0.950 . S
C495 H487 0.950 . S
C495 C496 1.386 . S
C495 C497 1.391 . S
C496 C495 1.386 . S
C496 C500 1.393 . S
C497 H489 0.950 . S
C497 C495 1.391 . S
C497 C498 1.400 . S
C498 C497 1.400 . S
C498 C499 1.398 . S
C498 C504 1.491 . S
C499 H490 0.950 . S
C499 C498 1.398 . S
C499 C500 1.391 . S
C500 H488 0.950 1_455 S
C500 C496 1.393 . S
C500 C499 1.391 . S
C501 H491 0.950 . S
C501 C502 1.386 . S
C501 C503 1.391 . S
C502 C501 1.386 . S
C502 C506 1.393 . S
C503 H492 0.950 . S
C503 C501 1.391 . S
C503 C504 1.400 . S
C504 C498 1.491 . S
C504 C503 1.400 . S
C504 C505 1.398 . S
C505 H493 0.950 . S
C505 C504 1.398 . S
C505 C506 1.391 . S
C506 H494 0.950 . S
C506 C502 1.393 . S
C506 C505 1.391 . S
C156 C20 0.980 . S
C162 N136 1.012 . S
C176 C41 1.315 . S
C182 N109 1.310 1_655 S
C196 C64 1.319 . S
C202 N122 1.305 . S
C216 C19 1.555 . S
C222 N135 1.580 . S
C242 N110 1.338 . S
C236 C44 1.335 . S
C262 N123 1.332 . S
C256 C67 1.329 . S
C276 C43 1.209 . S
C282 N83 1.264 . S
C296 C66 0.994 . S
C302 N97 1.030 1_655 S
C316 C21 1.334 . S
C322 N71 1.331 . S
C342 N84 1.336 . S
C336 C42 1.308 . S
C362 N96 1.585 . S
C356 C65 1.545 . S
C376 C18 1.286 . S
C382 N70 1.274 . S
C402 N100 1.492 . S
C396 C17 1.533 . S
C416 C39 1.539 . S
C422 N74 1.541 . S
C436 C62 1.536 . S
C442 N87 1.544 . S
C462 N126 1.521 . S
C456 C40 1.537 . S
C482 N139 1.493 . S
C476 C63 1.534 . S
C496 C16 1.525 . S
C502 N113 1.531 . S
