# Generated by pormake.
# Topology pts, (4,4)-cn, num edge types: 1
# Building blocks:
#     Node 0, Type 0, BuildingBlock: NAWXER_clean_linker_0, # of connection points: 4
#     Node 1, Type 0, BuildingBlock: NAWXER_clean_linker_0, # of connection points: 4
#     Node 2, Type 1, BuildingBlock: UXUYUI_clean_sbu_0, # of connection points: 4
#     Node 3, Type 1, BuildingBlock: UXUYUI_clean_sbu_0, # of connection points: 4
#     Edge 4, Type (0, 1), BuildingBlock: CIFDUS_clean_linker_0, # of connection points: 2
#     Edge 5, Type (0, 1), BuildingBlock: CIFDUS_clean_linker_0, # of connection points: 2
#     Edge 6, Type (0, 1), BuildingBlock: CIFDUS_clean_linker_0, # of connection points: 2
#     Edge 7, Type (0, 1), BuildingBlock: CIFDUS_clean_linker_0, # of connection points: 2
#     Edge 8, Type (0, 1), BuildingBlock: CIFDUS_clean_linker_0, # of connection points: 2
#     Edge 9, Type (0, 1), BuildingBlock: CIFDUS_clean_linker_0, # of connection points: 2
#     Edge 10, Type (0, 1), BuildingBlock: CIFDUS_clean_linker_0, # of connection points: 2
#     Edge 11, Type (0, 1), BuildingBlock: CIFDUS_clean_linker_0, # of connection points: 2
# Relax obj value: 0.000
# Max RMSD: 0.009
# Mean RMSD: 0.008
data_MOF--net-pts--node1-UXUYUI_clean_sbu_0--node2-NAWXER_clean_linker_0--edge1-CIFDUS_clean_linker_0
_symmetry_space_group_name_H-M    P1
_symmetry_Int_Tables_number       1
_symmetry_cell_setting            triclinic
loop_
_symmetry_equiv_pos_as_xyz
'x, y, z'
_cell_length_a     32.256079
_cell_length_b     32.19326
_cell_length_c     46.400381
_cell_angle_alpha  90.004556
_cell_angle_beta   89.994673
_cell_angle_gamma 89.99789
loop_
_atom_site_label
_atom_site_type_symbol
_atom_site_fract_x
_atom_site_fract_y
_atom_site_fract_z
_atom_type_partial_charge
C0 C 0.64782 0.04204 0.96245 0.0
C1 C 0.65159 0.01238 0.94044 0.0
C2 C 0.61136 0.04475 0.97862 0.0
C3 C 0.57859 0.01674 0.97382 0.0
C4 C 0.61823 0.98563 0.93472 0.0
C5 C 0.5821 0.98771 0.95133 0.0
C6 C 0.53995 0.01848 0.99121 0.0
C7 C 0.64326 0.99532 0.05467 0.0
C8 C 0.64738 0.02582 0.07624 0.0
C9 C 0.60826 0.99444 0.03689 0.0
C10 C 0.5771 0.02465 0.03981 0.0
C11 C 0.61555 0.05532 0.07955 0.0
C12 C 0.58085 0.0547 0.06156 0.0
C13 C 0.53942 0.02411 0.02151 0.0
C14 C 0.36483 0.99567 0.05673 0.0
C15 C 0.35733 0.03016 0.07472 0.0
C16 C 0.39915 0.99495 0.03832 0.0
C17 C 0.42698 0.02839 0.03779 0.0
C18 C 0.38485 0.0641 0.07337 0.0
C19 C 0.4196 0.06292 0.05542 0.0
C20 C 0.46548 0.02608 0.02068 0.0
C21 C 0.36475 0.05361 0.95648 0.0
C22 C 0.35735 0.02118 0.93687 0.0
C23 C 0.39953 0.05275 0.97441 0.0
C24 C 0.42766 0.01951 0.973 0.0
C25 C 0.38533 0.98774 0.93566 0.0
C26 C 0.42043 0.98716 0.95337 0.0
C27 C 0.46587 0.01973 0.99063 0.0
H28 H 0.67289 0.06351 0.96687 0.0
H29 H 0.60887 0.06878 0.99485 0.0
H30 H 0.62044 0.96259 0.91778 0.0
H31 H 0.55707 0.96623 0.94684 0.0
H32 H 0.6672 0.97224 0.05135 0.0
H33 H 0.60556 0.97007 0.02091 0.0
H34 H 0.61712 0.07867 0.09631 0.0
H35 H 0.5569 0.07789 0.06461 0.0
H36 H 0.34502 0.96856 0.05745 0.0
H37 H 0.40475 0.96766 0.02521 0.0
H38 H 0.37978 0.09163 0.08629 0.0
H39 H 0.44081 0.08902 0.0553 0.0
H40 H 0.34362 0.07969 0.95791 0.0
H41 H 0.40493 0.07853 0.98894 0.0
H42 H 0.38058 0.96256 0.92054 0.0
H43 H 0.44197 0.96145 0.95173 0.0
N44 N 0.50305 0.01611 0.97705 0.0
N45 N 0.50217 0.02805 0.03493 0.0
C46 C 0.03494 0.64612 0.5472 0.0
C47 C 0.0074 0.65017 0.57049 0.0
C48 C 0.03602 0.60953 0.53102 0.0
C49 C 0.00869 0.5767 0.53725 0.0
C50 C 0.98127 0.61673 0.57747 0.0
C51 C 0.98191 0.58034 0.56098 0.0
C52 C 0.00871 0.53809 0.51974 0.0
C53 C 0.97268 0.64115 0.4594 0.0
C54 C 0.99937 0.64694 0.43573 0.0
C55 C 0.97605 0.60583 0.47676 0.0
C56 C 0.00685 0.57598 0.4713 0.0
C57 C 0.02952 0.61646 0.42994 0.0
C58 C 0.03315 0.58139 0.44751 0.0
C59 C 0.01047 0.53798 0.48921 0.0
C60 C 0.98635 0.36018 0.45654 0.0
C61 C 0.02033 0.35315 0.43824 0.0
C62 C 0.98462 0.39598 0.47357 0.0
C63 C 0.0166 0.42551 0.47224 0.0
C64 C 0.05236 0.38266 0.43705 0.0
C65 C 0.05023 0.41882 0.45366 0.0
C66 C 0.01452 0.464 0.48949 0.0
C67 C 0.04589 0.36008 0.54993 0.0
C68 C 0.01438 0.35152 0.57006 0.0
C69 C 0.04508 0.3966 0.53366 0.0
C70 C 0.01269 0.42531 0.53709 0.0
C71 C 0.98232 0.38073 0.57372 0.0
C72 C 0.98168 0.41739 0.55754 0.0
C73 C 0.01145 0.46395 0.51982 0.0
H74 H 0.05601 0.67111 0.54173 0.0
H75 H 0.05824 0.60698 0.51362 0.0
H76 H 0.95975 0.61905 0.59532 0.0
H77 H 0.96095 0.55527 0.5665 0.0
H78 H 0.94926 0.66401 0.46467 0.0
H79 H 0.95439 0.60182 0.49437 0.0
H80 H 0.05 0.61933 0.41156 0.0
H81 H 0.05668 0.55846 0.44252 0.0
H82 H 0.96134 0.3378 0.45784 0.0
H83 H 0.95815 0.40087 0.48753 0.0
H84 H 0.0787 0.37804 0.42292 0.0
H85 H 0.07505 0.44141 0.45222 0.0
H86 H 0.07156 0.33882 0.54698 0.0
H87 H 0.07001 0.40258 0.51858 0.0
H88 H 0.9573 0.37502 0.58877 0.0
H89 H 0.95651 0.43924 0.56062 0.0
N90 N 0.00869 0.50098 0.53381 0.0
N91 N 0.01387 0.50092 0.47536 0.0
Li92 Li 1.00332 0.04107 0.27333 0.0
Li93 Li 0.0045 0.9647 0.27488 0.0
Li94 Li 0.0397 1.00474 0.23515 0.0
Li95 Li 0.96363 0.99902 0.23617 0.0
C96 C 0.07685 0.02005 0.29802 0.0
N97 N 0.12543 0.05422 0.34092 0.0
C98 C 0.07861 1.00138 0.32518 0.0
C99 C 0.10019 0.05576 0.29254 0.0
C100 C 0.10328 0.01921 0.34662 0.0
C101 C 0.12442 0.07267 0.31456 0.0
C102 C 0.92241 0.99122 0.29478 0.0
C103 C 0.85952 0.95166 0.30092 0.0
N104 N 0.85423 0.96902 0.3274 0.0
C105 C 0.9161 0.00901 0.32191 0.0
C106 C 0.8937 0.9626 0.28407 0.0
C107 C 0.88155 0.99724 0.33813 0.0
C108 C 0.99261 0.12685 0.28433 0.0
N109 N 1.00149 0.0897 0.29683 0.0
C110 C 0.00711 0.1219 0.34312 0.0
C111 C 0.00815 0.08656 0.3257 0.0
C112 C 0.99807 0.16064 0.3308 0.0
C113 C 0.9905 0.16292 0.30104 0.0
H114 H 0.9869 0.12844 0.2614 0.0
H115 H 0.01389 0.05654 0.33528 0.0
C116 C 0.03409 0.88588 0.29082 0.0
N117 N 0.00822 0.917 0.29914 0.0
C118 C 0.03835 0.85027 0.30778 0.0
C119 C 0.9894 0.87946 0.34162 0.0
C120 C 0.98636 0.91461 0.32414 0.0
C121 C 0.01565 0.8467 0.3335 0.0
H122 H 0.05141 0.88876 0.27096 0.0
H123 H 0.96691 0.94009 0.33077 0.0
C124 C 0.01193 0.07411 0.2091 0.0
N125 N 0.04162 0.12173 0.1641 0.0
C126 C 0.99309 0.07198 0.18201 0.0
C127 C 0.04548 0.10084 0.21342 0.0
C128 C 0.00866 0.09622 0.1595 0.0
C129 C 0.06016 0.12454 0.19036 0.0
C130 C 0.99403 0.91659 0.22112 0.0
C131 C 0.01257 0.90253 0.1957 0.0
C132 C 0.9643 0.89201 0.23485 0.0
C133 C 1.0006 0.86425 0.18422 0.0
C134 C 0.9532 0.85389 0.22271 0.0
N135 N 0.97139 0.84094 0.19784 0.0
C136 C 0.12487 0.0058 0.21915 0.0
C137 C 0.07708 1.00479 0.18042 0.0
C138 C 0.1582 0.00615 0.19988 0.0
N139 N 0.08531 0.00537 0.20913 0.0
C140 C 0.10934 0.00596 0.16041 0.0
C141 C 0.15073 0.00653 0.16997 0.0
H142 H 0.13058 0.00548 0.24211 0.0
H143 H 0.04532 1.00352 0.17304 0.0
C144 C 0.8819 0.02004 0.2201 0.0
N145 N 0.91519 0.99636 0.2128 0.0
C146 C 0.84617 0.01953 0.20304 0.0
C147 C 0.87967 0.9702 0.1714 0.0
C148 C 0.91487 0.97209 0.18882 0.0
C149 C 0.84478 0.99419 0.17842 0.0
H150 H 0.8832 0.0394 0.23913 0.0
H151 H 0.94209 0.9546 0.18291 0.0
O152 O 0.05271 1.00317 0.27683 0.0
O153 O 0.95602 1.00258 0.27861 0.0
O154 O 0.99743 0.05026 0.23129 0.0
O155 O 0.0054 0.95406 0.23255 0.0
H156 H 0.0609 0.97361 0.32973 0.0
H157 H 0.09945 0.07034 0.27156 0.0
H158 H 0.10477 0.00525 0.3678 0.0
H159 H 0.14245 0.10045 0.31069 0.0
H160 H 0.83711 0.92949 0.29291 0.0
H161 H 0.93779 0.03147 0.33044 0.0
H162 H 0.89746 0.94925 0.26286 0.0
H163 H 0.87644 0.01056 0.35923 0.0
H164 H 0.01249 0.11886 0.36607 0.0
H165 H 0.98345 0.19232 0.2908 0.0
H166 H 0.05879 0.82562 0.30069 0.0
H167 H 0.97194 0.87823 0.36155 0.0
H168 H 0.96697 0.05156 0.17836 0.0
H169 H 0.0601 0.10313 0.23432 0.0
H170 H 0.99458 0.0947 0.13837 0.0
H171 H 0.08627 0.14518 0.19334 0.0
H172 H 0.03583 0.92109 0.18489 0.0
H173 H 0.95027 0.90199 0.25481 0.0
H174 H 0.01454 0.85306 0.16448 0.0
H175 H 0.93022 0.83455 0.23312 0.0
H176 H 0.18941 0.00556 0.20842 0.0
H177 H 0.10173 0.00679 0.1377 0.0
H178 H 0.81981 0.03842 0.20916 0.0
H179 H 0.88002 0.95085 0.15231 0.0
Li180 Li 0.96384 1.0027 0.77473 0.0
Li181 Li 0.04057 0.99923 0.77672 0.0
Li182 Li 1.00365 0.03955 0.7373 0.0
Li183 Li 0.00488 0.96273 0.73701 0.0
C184 C 0.98985 0.07911 0.79769 0.0
N185 N 0.96022 0.13991 0.83429 0.0
C186 C 0.00756 0.08445 0.82493 0.0
C187 C 0.9574 0.10493 0.78893 0.0
C188 C 0.99205 0.11531 0.84316 0.0
C189 C 0.94276 0.13542 0.80778 0.0
C190 C 0.01205 0.92176 0.79703 0.0
C191 C 0.05586 0.86286 0.80712 0.0
N192 N 0.03723 0.85855 0.83326 0.0
C193 C 0.99304 0.91652 0.82385 0.0
C194 C 0.04345 0.89455 0.78846 0.0
C195 C 0.00633 0.88446 0.84192 0.0
C196 C 0.87902 0.98785 0.78515 0.0
N197 N 0.91434 1.00288 0.79723 0.0
C198 C 0.87822 0.01882 0.84084 0.0
C199 C 0.91474 0.01741 0.82472 0.0
C200 C 0.84094 1.00391 0.82893 0.0
C201 C 0.84192 0.98783 0.80071 0.0
H202 H 0.87972 0.97572 0.76342 0.0
H203 H 0.94338 0.02803 0.8342 0.0
C204 C 0.12463 0.01123 0.79218 0.0
N205 N 0.08713 0.99821 0.80206 0.0
C206 C 0.15935 0.01033 0.81019 0.0
C207 C 0.11615 0.98295 0.84828 0.0
C208 C 0.0822 0.98495 0.82967 0.0
C209 C 0.15536 0.99565 0.83856 0.0
H210 H 0.12758 0.02231 0.77027 0.0
H211 H 0.05186 0.97618 0.83735 0.0
C212 C 0.92908 0.01405 0.71199 0.0
N213 N 0.8739 0.04223 0.6709 0.0
C214 C 0.92901 0.99664 0.6844 0.0
C215 C 0.90071 0.04532 0.71884 0.0
C216 C 0.90097 0.01144 0.66388 0.0
C217 C 0.87317 0.05928 0.69772 0.0
C218 C 0.08355 0.98872 0.71696 0.0
C219 C 0.08911 0.00703 0.68992 0.0
C220 C 0.11011 0.95694 0.72587 0.0
C221 C 0.12085 0.9927 0.67201 0.0
C222 C 0.14148 0.94348 0.70733 0.0
N223 N 0.14613 0.96146 0.681 0.0
C224 C 0.01706 0.12478 0.72671 0.0
C225 C 0.9953 0.08703 0.68561 0.0
C226 C 0.01762 0.16169 0.71089 0.0
N227 N 0.00541 0.08855 0.71404 0.0
C228 C 0.99509 0.12324 0.66901 0.0
C229 C 0.00611 0.16139 0.68165 0.0
H230 H 0.026 0.12505 0.74915 0.0
H231 H 0.98736 0.05773 0.67576 0.0
C232 C 0.9854 0.87963 0.72459 0.0
N233 N 0.00473 0.91373 0.71375 0.0
C234 C 0.9846 0.84255 0.70895 0.0
C235 C 0.02329 0.87641 0.67108 0.0
C236 C 0.02286 0.91296 0.68731 0.0
C237 C 0.00408 0.84038 0.68186 0.0
H238 H 0.97048 0.88127 0.74543 0.0
H239 H 0.03698 0.94067 0.6787 0.0
O240 O 0.00453 0.04892 0.77965 0.0
O241 O 0.99947 0.95305 0.77915 0.0
O242 O 0.95632 0.99994 0.73231 0.0
O243 O 0.05259 1.00236 0.73472 0.0
H244 H 0.03284 0.06482 0.83196 0.0
H245 H 0.94376 0.10154 0.76779 0.0
H246 H 0.0053 0.11968 0.86435 0.0
H247 H 0.91757 0.15556 0.80133 0.0
H248 H 0.08022 0.84164 0.80081 0.0
H249 H 0.96849 0.93722 0.83071 0.0
H250 H 0.05792 0.89772 0.76756 0.0
H251 H 0.99209 0.88018 0.86281 0.0
H252 H 0.87931 0.03202 0.86227 0.0
H253 H 0.81445 0.97498 0.79072 0.0
H254 H 0.1891 0.0204 0.80192 0.0
H255 H 0.11169 0.97218 0.87018 0.0
H256 H 0.95061 0.97219 0.67884 0.0
H257 H 0.89985 0.05854 0.74024 0.0
H258 H 0.90074 0.99847 0.64237 0.0
H259 H 0.85115 0.0836 0.70267 0.0
H260 H 0.06897 0.03186 0.68279 0.0
H261 H 0.10669 0.94297 0.74692 0.0
H262 H 0.12539 0.00641 0.65096 0.0
H263 H 0.16219 0.91881 0.7139 0.0
H264 H 0.02732 0.19007 0.72143 0.0
H265 H 0.98578 0.12136 0.64664 0.0
H266 H 0.96852 0.81603 0.71794 0.0
H267 H 0.03904 0.87638 0.65048 0.0
H268 H 0.28036 0.99534 0.06784 0.0
H269 H 0.35432 0.06465 0.12885 0.0
H270 H 0.29679 0.06507 0.1627 0.0
H271 H 0.22583 0.04538 0.1754 0.0
H272 H 0.15482 0.96913 0.11677 0.0
H273 H 0.211 0.97183 0.08182 0.0
C274 C 0.28431 0.01008 0.08866 0.0
C275 C 0.32187 0.03021 0.09544 0.0
C276 C 0.2515 0.00907 0.10858 0.0
C277 C 0.32566 0.04976 0.12249 0.0
C278 C 0.29283 0.04967 0.14211 0.0
C279 C 0.22269 0.02874 0.15521 0.0
C280 C 0.1857 0.00732 0.14888 0.0
C281 C 0.25566 0.02932 0.13543 0.0
C282 C 0.18233 0.98671 0.12219 0.0
C283 C 0.21467 0.9879 0.10219 0.0
H284 H 0.99366 0.34083 0.62665 0.0
H285 H 0.03658 0.27372 0.55181 0.0
H286 H 0.03881 0.2096 0.57975 0.0
H287 H 0.02869 0.17248 0.62539 0.0
H288 H 0.98177 0.23881 0.69943 0.0
H289 H 0.98109 0.3032 0.67179 0.0
C290 C 1.00303 0.31213 0.61631 0.0
C291 C 0.01505 0.31231 0.58713 0.0
C292 C 1.00371 0.27515 0.63239 0.0
C293 C 0.02781 0.27479 0.57432 0.0
C294 C 0.02883 0.23797 0.59024 0.0
C295 C 0.01782 0.20086 0.63544 0.0
C296 C 0.00544 0.20059 0.66456 0.0
C297 C 0.01686 0.23778 0.61929 0.0
C298 C 0.99219 0.23803 0.67725 0.0
C299 C 0.99147 0.27491 0.66139 0.0
H300 H 0.68949 0.95998 0.09914 0.0
H301 H 0.68897 0.09407 0.09645 0.0
H302 H 0.74855 0.09607 0.12872 0.0
H303 H 0.80174 0.05982 0.15717 0.0
H304 H 0.8046 0.92594 0.15782 0.0
H305 H 0.74372 0.92377 0.12642 0.0
C306 C 0.70267 0.98967 0.10527 0.0
C307 C 0.68446 0.0268 0.09538 0.0
C308 C 0.73747 0.99065 0.12344 0.0
C309 C 0.70172 0.06496 0.10406 0.0
C310 C 0.73604 0.06618 0.1224 0.0
C311 C 0.78877 0.03022 0.15058 0.0
C312 C 0.80744 0.9931 0.15984 0.0
C313 C 0.75413 0.02924 0.13225 0.0
C314 C 0.79082 0.95491 0.15081 0.0
C315 C 0.756 0.95367 0.13293 0.0
H316 H 0.00934 0.65902 0.62874 0.0
H317 H 1.00208 0.72908 0.54971 0.0
H318 H 0.99955 0.79397 0.57708 0.0
H319 H 0.99885 0.8306 0.62338 0.0
H320 H 0.01044 0.76069 0.70244 0.0
H321 H 0.01073 0.69602 0.67517 0.0
C322 C 0.00698 0.68853 0.61758 0.0
C323 C 0.00583 0.68934 0.58729 0.0
C324 C 0.00603 0.72572 0.63344 0.0
C325 C 1.00332 0.72776 0.57303 0.0
C326 C 1.00172 0.76481 0.58866 0.0
C327 C 1.002 0.80134 0.63473 0.0
C328 C 0.00446 0.80084 0.66505 0.0
C329 C 1.00317 0.76418 0.61887 0.0
C330 C 0.00769 0.76228 0.67921 0.0
C331 C 0.00821 0.72516 0.66361 0.0
H332 H 0.30137 0.96 0.92604 0.0
H333 H 0.33226 0.08626 0.90367 0.0
H334 H 0.27297 0.08936 0.87091 0.0
H335 H 0.21215 0.0562 0.84868 0.0
H336 H 0.17991 0.93069 0.87212 0.0
H337 H 0.23983 0.92717 0.90435 0.0
C338 C 0.29515 0.98807 0.91386 0.0
C339 C 0.32112 0.02282 0.91721 0.0
C340 C 0.26077 0.98976 0.89529 0.0
C341 C 0.31248 0.05923 0.90161 0.0
C342 C 0.27871 0.06096 0.8828 0.0
C343 C 0.21847 0.02803 0.86074 0.0
C344 C 0.19181 0.99371 0.85799 0.0
C345 C 0.25265 0.02643 0.87947 0.0
C346 C 0.1999 0.95759 0.87404 0.0
C347 C 0.2342 0.95552 0.89238 0.0
H348 H 0.96211 0.32504 0.40093 0.0
H349 H 0.0832 0.29702 0.43502 0.0
H350 H 0.08683 0.23443 0.40511 0.0
H351 H 0.05551 0.18786 0.36906 0.0
H352 H 0.93595 0.21782 0.33314 0.0
H353 H 0.93167 0.27955 0.36382 0.0
C354 C 0.98914 0.30502 0.40184 0.0
C355 C 0.02225 0.3153 0.42018 0.0
C356 C 0.99129 0.26962 0.3842 0.0
C357 C 0.05743 0.28963 0.42096 0.0
C358 C 0.05946 0.25389 0.40393 0.0
C359 C 0.02851 0.20791 0.36808 0.0
C360 C 0.99602 0.19836 0.34902 0.0
C361 C 0.02659 0.2436 0.38545 0.0
C362 C 0.96141 0.22477 0.34758 0.0
C363 C 0.9589 0.25992 0.36517 0.0
H364 H 0.66027 0.01626 0.88237 0.0
H365 H 0.72966 1.00174 0.96108 0.0
H366 H 0.7942 0.9962 0.93356 0.0
H367 H 0.83051 0.99509 0.88725 0.0
H368 H 0.76175 0.01628 0.80865 0.0
H369 H 0.69734 0.01841 0.83593 0.0
C370 C 0.68959 0.01175 0.89338 0.0
C371 C 0.69041 0.00924 0.9236 0.0
C372 C 0.72659 0.00946 0.87746 0.0
C373 C 0.72848 1.0039 0.93779 0.0
C374 C 0.76528 1.00063 0.92207 0.0
C375 C 0.80166 1.00086 0.87598 0.0
C376 C 0.80143 0.00533 0.84575 0.0
C377 C 0.76471 1.0035 0.89189 0.0
C378 C 0.76321 0.01179 0.83175 0.0
C379 C 0.72621 0.01344 0.84738 0.0
H380 H 0.06156 0.69191 0.41078 0.0
H381 H 0.92822 0.68614 0.41825 0.0
H382 H 0.92167 0.74766 0.38796 0.0
H383 H 0.95363 0.80264 0.3587 0.0
H384 H 0.08664 0.8068 0.34962 0.0
H385 H 0.09338 0.74566 0.38052 0.0
C386 C 0.031 0.70372 0.40553 0.0
C387 C 0.99548 0.68432 0.41698 0.0
C388 C 0.02736 0.73872 0.38763 0.0
C389 C 0.9562 0.70072 0.41026 0.0
C390 C 0.95236 0.73577 0.39272 0.0
C391 C 0.98409 0.79026 0.36363 0.0
C392 C 0.01958 0.80924 0.35194 0.0
C393 C 0.98771 0.75503 0.38131 0.0
C394 C 0.05882 0.79252 0.35815 0.0
C395 C 0.06271 0.7577 0.37593 0.0
loop_
_geom_bond_atom_site_label_1
_geom_bond_atom_site_label_2
_geom_bond_distance
_geom_bond_site_symmetry_2
_ccdc_geom_bond_type
C0 C1 1.365 1_545 S
C0 C2 1.384 . S
C0 H28 0.931 . S
C1 C0 1.365 1_565 S
C1 C4 1.402 . S
C2 C0 1.384 . S
C2 C3 1.381 1_545 S
C2 H29 0.930 . S
C3 C2 1.381 1_565 S
C3 C5 1.381 . S
C3 C6 1.487 . S
C4 C1 1.402 . S
C4 C5 1.387 . S
C4 H30 0.930 . S
C5 C3 1.381 . S
C5 C4 1.387 . S
C5 H31 0.931 . S
C6 C3 1.487 . S
C6 C13 1.399 1_566 S
C6 N44 1.343 . S
C7 C8 1.384 1_565 S
C7 C9 1.384 . S
C7 H32 0.931 . S
C8 C7 1.384 1_545 S
C8 C11 1.382 . S
C9 C7 1.384 . S
C9 C10 1.381 1_565 S
C9 H33 0.930 . S
C10 C9 1.381 1_545 S
C10 C12 1.381 . S
C10 C13 1.487 . S
C11 C8 1.382 . S
C11 C12 1.387 . S
C11 H34 0.930 . S
C12 C10 1.381 . S
C12 C11 1.387 . S
C12 H35 0.931 . S
C13 C6 1.399 1_544 S
C13 C10 1.487 . S
C13 N45 1.343 . S
C14 C15 1.384 1_565 S
C14 C16 1.384 . S
C14 H36 0.931 . S
C15 C14 1.384 1_545 S
C15 C18 1.382 . S
C16 C14 1.384 . S
C16 C17 1.381 1_565 S
C16 H37 0.930 . S
C17 C16 1.381 1_545 S
C17 C19 1.381 . S
C17 C20 1.487 . S
C18 C15 1.382 . S
C18 C19 1.387 . S
C18 H38 0.930 . S
C19 C17 1.381 . S
C19 C18 1.387 . S
C19 H39 0.931 . S
C20 C17 1.487 . S
C20 C27 1.399 1_544 S
C20 N45 1.343 . S
C21 C22 1.365 1_545 S
C21 C23 1.384 . S
C21 H40 0.931 . S
C22 C21 1.365 1_565 S
C22 C25 1.402 . S
C23 C21 1.384 . S
C23 C24 1.381 1_545 S
C23 H41 0.930 . S
C24 C23 1.381 1_565 S
C24 C26 1.381 . S
C24 C27 1.487 . S
C25 C22 1.402 . S
C25 C26 1.387 . S
C25 H42 0.930 . S
C26 C24 1.381 . S
C26 C25 1.387 . S
C26 H43 0.931 . S
C27 C20 1.399 1_566 S
C27 C24 1.487 . S
C27 N44 1.343 . S
H28 C0 0.931 . S
H29 C2 0.930 . S
H30 C4 0.930 . S
H31 C5 0.931 . S
H32 C7 0.931 . S
H33 C9 0.930 . S
H34 C11 0.930 . S
H35 C12 0.931 . S
H36 C14 0.931 . S
H37 C16 0.930 . S
H38 C18 0.930 . S
H39 C19 0.931 . S
H40 C21 0.931 . S
H41 C23 0.930 . S
H42 C25 0.930 . S
H43 C26 0.931 . S
N44 C6 1.343 . S
N44 C27 1.343 . S
N45 C13 1.343 . S
N45 C20 1.343 . S
C46 C47 1.365 1_455 S
C46 C48 1.384 . S
C46 H74 0.931 . S
C47 C46 1.365 1_655 S
C47 C50 1.402 . S
C48 C46 1.384 . S
C48 C49 1.381 1_455 S
C48 H75 0.930 . S
C49 C48 1.381 1_655 S
C49 C51 1.381 . S
C49 C52 1.487 . S
C50 C47 1.402 . S
C50 C51 1.387 . S
C50 H76 0.930 . S
C51 C49 1.381 . S
C51 C50 1.387 . S
C51 H77 0.931 . S
C52 C49 1.487 . S
C52 C59 1.399 1_655 S
C52 N90 1.343 . S
C53 C54 1.384 1_655 S
C53 C55 1.384 . S
C53 H78 0.931 . S
C54 C53 1.384 1_455 S
C54 C57 1.382 . S
C55 C53 1.384 . S
C55 C56 1.381 1_655 S
C55 H79 0.930 . S
C56 C55 1.381 1_455 S
C56 C58 1.381 . S
C56 C59 1.487 . S
C57 C54 1.382 . S
C57 C58 1.387 . S
C57 H80 0.930 . S
C58 C56 1.381 . S
C58 C57 1.387 . S
C58 H81 0.931 . S
C59 C52 1.399 1_455 S
C59 C56 1.487 . S
C59 N91 1.343 . S
C60 C61 1.384 1_655 S
C60 C62 1.384 . S
C60 H82 0.931 . S
C61 C60 1.384 1_455 S
C61 C64 1.382 . S
C62 C60 1.384 . S
C62 C63 1.381 1_655 S
C62 H83 0.930 . S
C63 C62 1.381 1_455 S
C63 C65 1.381 . S
C63 C66 1.487 . S
C64 C61 1.382 . S
C64 C65 1.387 . S
C64 H84 0.930 . S
C65 C63 1.381 . S
C65 C64 1.387 . S
C65 H85 0.931 . S
C66 C63 1.487 . S
C66 C73 1.399 1_455 S
C66 N91 1.343 . S
C67 C68 1.365 1_455 S
C67 C69 1.384 . S
C67 H86 0.931 . S
C68 C67 1.365 1_655 S
C68 C71 1.402 . S
C69 C67 1.384 . S
C69 C70 1.381 1_455 S
C69 H87 0.930 . S
C70 C69 1.381 1_655 S
C70 C72 1.381 . S
C70 C73 1.487 . S
C71 C68 1.402 . S
C71 C72 1.387 . S
C71 H88 0.930 . S
C72 C70 1.381 . S
C72 C71 1.387 . S
C72 H89 0.931 . S
C73 C66 1.399 1_655 S
C73 C70 1.487 . S
C73 N90 1.343 . S
H74 C46 0.931 . S
H75 C48 0.930 . S
H76 C50 0.930 . S
H77 C51 0.931 . S
H78 C53 0.931 . S
H79 C55 0.930 . S
H80 C57 0.930 . S
H81 C58 0.931 . S
H82 C60 0.931 . S
H83 C62 0.930 . S
H84 C64 0.930 . S
H85 C65 0.931 . S
H86 C67 0.931 . S
H87 C69 0.930 . S
H88 C71 0.930 . S
H89 C72 0.931 . S
N90 C52 1.343 . S
N90 C73 1.343 . S
N91 C59 1.343 . S
N91 C66 1.343 . S
Li92 N109 1.990 . S
Li92 O152 1.956 1_545 S
Li92 O153 1.970 1_455 S
Li92 O154 1.961 1_455 S
Li93 N117 1.990 . S
Li93 O152 1.970 1_655 S
Li93 O153 1.956 1_565 S
Li93 O155 1.961 1_655 S
Li94 N139 1.990 . S
Li94 O152 1.961 1_545 S
Li94 O154 1.956 1_455 S
Li94 O155 1.970 1_545 S
Li95 N145 1.990 . S
Li95 O153 1.961 1_565 S
Li95 O154 1.970 1_565 S
Li95 O155 1.956 1_655 S
C96 C98 1.348 1_545 S
C96 C99 1.356 . S
C96 O152 1.325 1_545 S
N97 C100 1.314 1_545 S
N97 C101 1.279 . S
C98 C96 1.348 1_565 S
C98 C100 1.353 . S
C98 H156 0.929 . S
C99 C96 1.356 . S
C99 C101 1.358 . S
C99 H157 0.930 . S
C100 N97 1.314 1_565 S
C100 C98 1.353 . S
C100 H158 0.930 . S
C101 N97 1.279 . S
C101 C99 1.358 . S
C101 H159 0.930 . S
C102 C105 1.348 . S
C102 C106 1.356 1_545 S
C102 O153 1.325 . S
C103 N104 1.279 . S
C103 C106 1.358 . S
C103 H160 0.930 . S
N104 C103 1.279 . S
N104 C107 1.314 1_565 S
C105 C102 1.348 . S
C105 C107 1.353 . S
C105 H161 0.929 . S
C106 C102 1.356 1_565 S
C106 C103 1.358 . S
C106 H162 0.930 . S
C107 N104 1.314 1_545 S
C107 C105 1.353 . S
C107 H163 0.930 . S
C108 N109 1.314 1_655 S
C108 C113 1.353 . S
C108 H114 0.930 . S
N109 Li92 1.990 . S
N109 C108 1.314 1_455 S
N109 C111 1.279 . S
C110 C111 1.358 . S
C110 C112 1.356 . S
C110 H164 0.930 . S
C111 N109 1.279 . S
C111 C110 1.358 . S
C111 H115 0.930 . S
C112 C110 1.356 . S
C112 C113 1.348 1_455 S
C113 C108 1.353 . S
C113 C112 1.348 1_655 S
C113 H165 0.929 . S
H114 C108 0.930 . S
H115 C111 0.930 . S
C116 N117 1.314 1_455 S
C116 C118 1.353 . S
C116 H122 0.930 . S
N117 Li93 1.990 . S
N117 C116 1.314 1_655 S
N117 C120 1.279 . S
C118 C116 1.353 . S
C118 C121 1.348 . S
C118 H166 0.929 . S
C119 C120 1.358 . S
C119 C121 1.356 1_655 S
C119 H167 0.930 . S
C120 N117 1.279 . S
C120 C119 1.358 . S
C120 H123 0.930 . S
C121 C118 1.348 . S
C121 C119 1.356 1_455 S
H122 C116 0.930 . S
H123 C120 0.930 . S
C124 C126 1.348 1_455 S
C124 C127 1.356 . S
C124 O154 1.325 1_455 S
N125 C128 1.314 1_455 S
N125 C129 1.279 . S
C126 C124 1.348 1_655 S
C126 C128 1.353 . S
C126 H168 0.929 . S
C127 C124 1.356 . S
C127 C129 1.358 . S
C127 H169 0.930 . S
C128 N125 1.314 1_655 S
C128 C126 1.353 . S
C128 H170 0.930 . S
C129 N125 1.279 . S
C129 C127 1.358 . S
C129 H171 0.930 . S
C130 C131 1.348 . S
C130 C132 1.356 1_455 S
C130 O155 1.325 . S
C131 C130 1.348 . S
C131 C133 1.353 . S
C131 H172 0.929 . S
C132 C130 1.356 1_655 S
C132 C134 1.358 . S
C132 H173 0.930 . S
C133 C131 1.353 . S
C133 N135 1.314 1_455 S
C133 H174 0.930 . S
C134 C132 1.358 . S
C134 N135 1.279 . S
C134 H175 0.930 . S
N135 C133 1.314 1_655 S
N135 C134 1.279 . S
C136 C138 1.353 . S
C136 N139 1.314 1_565 S
C136 H142 0.930 . S
C137 N139 1.279 . S
C137 C140 1.358 . S
C137 H143 0.930 . S
C138 C136 1.353 . S
C138 C141 1.348 1_565 S
C138 H176 0.929 . S
N139 Li94 1.990 . S
N139 C136 1.314 1_545 S
N139 C137 1.279 . S
C140 C137 1.358 . S
C140 C141 1.356 . S
C140 H177 0.930 . S
C141 C138 1.348 1_545 S
C141 C140 1.356 . S
H142 C136 0.930 . S
H143 C137 0.930 . S
C144 N145 1.314 1_545 S
C144 C146 1.353 . S
C144 H150 0.930 . S
N145 Li95 1.990 . S
N145 C144 1.314 1_565 S
N145 C148 1.279 . S
C146 C144 1.353 . S
C146 C149 1.348 . S
C146 H178 0.929 . S
C147 C148 1.358 . S
C147 C149 1.356 1_565 S
C147 H179 0.930 . S
C148 N145 1.279 . S
C148 C147 1.358 . S
C148 H151 0.930 . S
C149 C146 1.348 . S
C149 C147 1.356 1_545 S
H150 C144 0.930 . S
H151 C148 0.930 . S
O152 Li92 1.956 1_565 S
O152 Li93 1.970 1_455 S
O152 Li94 1.961 1_565 S
O152 C96 1.325 1_565 S
O153 Li92 1.970 1_655 S
O153 Li93 1.956 1_545 S
O153 Li95 1.961 1_545 S
O153 C102 1.325 . S
O154 Li92 1.961 1_655 S
O154 Li94 1.956 1_655 S
O154 Li95 1.970 1_545 S
O154 C124 1.325 1_655 S
O155 Li93 1.961 1_455 S
O155 Li94 1.970 1_565 S
O155 Li95 1.956 1_455 S
O155 C130 1.325 . S
H156 C98 0.929 . S
H157 C99 0.930 . S
H158 C100 0.930 . S
H159 C101 0.930 . S
H160 C103 0.930 . S
H161 C105 0.929 . S
H162 C106 0.930 . S
H163 C107 0.930 . S
H164 C110 0.930 . S
H165 C113 0.929 . S
H166 C118 0.929 . S
H167 C119 0.930 . S
H168 C126 0.929 . S
H169 C127 0.930 . S
H170 C128 0.930 . S
H171 C129 0.930 . S
H172 C131 0.929 . S
H173 C132 0.930 . S
H174 C133 0.930 . S
H175 C134 0.930 . S
H176 C138 0.929 . S
H177 C140 0.930 . S
H178 C146 0.929 . S
H179 C147 0.930 . S
Li180 N197 1.990 . S
Li180 O240 1.956 1_655 S
Li180 O241 1.970 1_545 S
Li180 O242 1.961 1_545 S
Li181 N205 1.990 . S
Li181 O240 1.970 1_565 S
Li181 O241 1.956 1_455 S
Li181 O243 1.961 1_565 S
Li182 N227 1.990 . S
Li182 O240 1.961 1_655 S
Li182 O242 1.956 1_545 S
Li182 O243 1.970 1_655 S
Li183 N233 1.990 . S
Li183 O241 1.961 1_455 S
Li183 O242 1.970 1_455 S
Li183 O243 1.956 1_565 S
C184 C186 1.348 . S
C184 C187 1.356 1_455 S
C184 O240 1.325 . S
N185 C188 1.314 1_655 S
N185 C189 1.279 . S
C186 C184 1.348 . S
C186 C188 1.353 . S
C186 H244 0.929 . S
C187 C184 1.356 1_655 S
C187 C189 1.358 . S
C187 H245 0.930 . S
C188 N185 1.314 1_455 S
C188 C186 1.353 . S
C188 H246 0.930 . S
C189 N185 1.279 . S
C189 C187 1.358 . S
C189 H247 0.930 . S
C190 C193 1.348 1_455 S
C190 C194 1.356 . S
C190 O241 1.325 1_455 S
C191 N192 1.279 . S
C191 C194 1.358 . S
C191 H248 0.930 . S
N192 C191 1.279 . S
N192 C195 1.314 1_455 S
C193 C190 1.348 1_655 S
C193 C195 1.353 . S
C193 H249 0.929 . S
C194 C190 1.356 . S
C194 C191 1.358 . S
C194 H250 0.930 . S
C195 N192 1.314 1_655 S
C195 C193 1.353 . S
C195 H251 0.930 . S
C196 N197 1.314 1_565 S
C196 C201 1.353 . S
C196 H202 0.930 . S
N197 Li180 1.990 . S
N197 C196 1.314 1_545 S
N197 C199 1.279 . S
C198 C199 1.358 . S
C198 C200 1.356 . S
C198 H252 0.930 . S
C199 N197 1.279 . S
C199 C198 1.358 . S
C199 H203 0.930 . S
C200 C198 1.356 . S
C200 C201 1.348 1_545 S
C201 C196 1.353 . S
C201 C200 1.348 1_565 S
C201 H253 0.929 . S
H202 C196 0.930 . S
H203 C199 0.930 . S
C204 N205 1.314 1_545 S
C204 C206 1.353 . S
C204 H210 0.930 . S
N205 Li181 1.990 . S
N205 C204 1.314 1_565 S
N205 C208 1.279 . S
C206 C204 1.353 . S
C206 C209 1.348 . S
C206 H254 0.929 . S
C207 C208 1.358 . S
C207 C209 1.356 1_565 S
C207 H255 0.930 . S
C208 N205 1.279 . S
C208 C207 1.358 . S
C208 H211 0.930 . S
C209 C206 1.348 . S
C209 C207 1.356 1_545 S
H210 C204 0.930 . S
H211 C208 0.930 . S
C212 C214 1.348 1_545 S
C212 C215 1.356 . S
C212 O242 1.325 1_545 S
N213 C216 1.314 1_545 S
N213 C217 1.279 . S
C214 C212 1.348 1_565 S
C214 C216 1.353 . S
C214 H256 0.929 . S
C215 C212 1.356 . S
C215 C217 1.358 . S
C215 H257 0.930 . S
C216 N213 1.314 1_565 S
C216 C214 1.353 . S
C216 H258 0.930 . S
C217 N213 1.279 . S
C217 C215 1.358 . S
C217 H259 0.930 . S
C218 C219 1.348 . S
C218 C220 1.356 1_545 S
C218 O243 1.325 . S
C219 C218 1.348 . S
C219 C221 1.353 . S
C219 H260 0.929 . S
C220 C218 1.356 1_565 S
C220 C222 1.358 . S
C220 H261 0.930 . S
C221 C219 1.353 . S
C221 N223 1.314 1_545 S
C221 H262 0.930 . S
C222 C220 1.358 . S
C222 N223 1.279 . S
C222 H263 0.930 . S
N223 C221 1.314 1_565 S
N223 C222 1.279 . S
C224 C226 1.353 . S
C224 N227 1.314 1_455 S
C224 H230 0.930 . S
C225 N227 1.279 . S
C225 C228 1.358 . S
C225 H231 0.930 . S
C226 C224 1.353 . S
C226 C229 1.348 . S
C226 H264 0.929 . S
N227 Li182 1.990 . S
N227 C224 1.314 1_655 S
N227 C225 1.279 . S
C228 C225 1.358 . S
C228 C229 1.356 1_655 S
C228 H265 0.930 . S
C229 C226 1.348 . S
C229 C228 1.356 1_455 S
H230 C224 0.930 . S
H231 C225 0.930 . S
C232 N233 1.314 1_655 S
C232 C234 1.353 . S
C232 H238 0.930 . S
N233 Li183 1.990 . S
N233 C232 1.314 1_455 S
N233 C236 1.279 . S
C234 C232 1.353 . S
C234 C237 1.348 1_655 S
C234 H266 0.929 . S
C235 C236 1.358 . S
C235 C237 1.356 . S
C235 H267 0.930 . S
C236 N233 1.279 . S
C236 C235 1.358 . S
C236 H239 0.930 . S
C237 C234 1.348 1_455 S
C237 C235 1.356 . S
H238 C232 0.930 . S
H239 C236 0.930 . S
O240 Li180 1.956 1_455 S
O240 Li181 1.970 1_545 S
O240 Li182 1.961 1_455 S
O240 C184 1.325 . S
O241 Li180 1.970 1_565 S
O241 Li181 1.956 1_655 S
O241 Li183 1.961 1_655 S
O241 C190 1.325 1_655 S
O242 Li180 1.961 1_565 S
O242 Li182 1.956 1_565 S
O242 Li183 1.970 1_655 S
O242 C212 1.325 1_565 S
O243 Li181 1.961 1_545 S
O243 Li182 1.970 1_455 S
O243 Li183 1.956 1_545 S
O243 C218 1.325 . S
H244 C186 0.929 . S
H245 C187 0.930 . S
H246 C188 0.930 . S
H247 C189 0.930 . S
H248 C191 0.930 . S
H249 C193 0.929 . S
H250 C194 0.930 . S
H251 C195 0.930 . S
H252 C198 0.930 . S
H253 C201 0.929 . S
H254 C206 0.929 . S
H255 C207 0.930 . S
H256 C214 0.929 . S
H257 C215 0.930 . S
H258 C216 0.930 . S
H259 C217 0.930 . S
H260 C219 0.929 . S
H261 C220 0.930 . S
H262 C221 0.930 . S
H263 C222 0.930 . S
H264 C226 0.929 . S
H265 C228 0.930 . S
H266 C234 0.929 . S
H267 C235 0.930 . S
H268 C274 0.930 . S
H269 C277 0.930 . S
H270 C278 0.930 . S
H271 C279 0.930 . S
H272 C282 0.930 . S
H273 C283 0.930 . S
C274 H268 0.930 . S
C274 C275 1.355 1_565 S
C274 C276 1.415 . S
C275 C274 1.355 1_545 S
C275 C277 1.419 . S
C276 C274 1.415 . S
C276 C281 1.425 1_565 S
C276 C283 1.409 . S
C277 H269 0.930 . S
C277 C275 1.419 . S
C277 C278 1.362 . S
C278 H270 0.930 . S
C278 C277 1.362 . S
C278 C281 1.409 . S
C279 H271 0.930 . S
C279 C280 1.355 1_545 S
C279 C281 1.415 . S
C280 C279 1.355 1_565 S
C280 C282 1.419 . S
C281 C276 1.425 1_545 S
C281 C278 1.409 . S
C281 C279 1.415 . S
C282 H272 0.930 . S
C282 C280 1.419 . S
C282 C283 1.362 . S
C283 H273 0.930 . S
C283 C276 1.409 . S
C283 C282 1.362 . S
H284 C290 0.930 . S
H285 C293 0.930 . S
H286 C294 0.930 . S
H287 C295 0.930 . S
H288 C298 0.930 . S
H289 C299 0.930 . S
C290 H284 0.930 . S
C290 C291 1.355 . S
C290 C292 1.415 . S
C291 C290 1.355 . S
C291 C293 1.419 1_455 S
C292 C290 1.415 . S
C292 C297 1.425 1_455 S
C292 C299 1.409 . S
C293 H285 0.930 . S
C293 C291 1.419 1_655 S
C293 C294 1.362 . S
C294 H286 0.930 . S
C294 C293 1.362 . S
C294 C297 1.409 . S
C295 H287 0.930 . S
C295 C296 1.355 1_655 S
C295 C297 1.415 . S
C296 C295 1.355 1_455 S
C296 C298 1.419 . S
C297 C292 1.425 1_655 S
C297 C294 1.409 . S
C297 C295 1.415 . S
C298 H288 0.930 . S
C298 C296 1.419 . S
C298 C299 1.362 . S
C299 H289 0.930 . S
C299 C292 1.409 . S
C299 C298 1.362 . S
H300 C306 0.930 . S
H301 C309 0.930 . S
H302 C310 0.930 . S
H303 C311 0.930 . S
H304 C314 0.930 . S
H305 C315 0.930 . S
C306 H300 0.930 . S
C306 C307 1.355 1_565 S
C306 C308 1.415 . S
C307 C306 1.355 1_545 S
C307 C309 1.419 . S
C308 C306 1.415 . S
C308 C313 1.425 1_565 S
C308 C315 1.409 . S
C309 H301 0.930 . S
C309 C307 1.419 . S
C309 C310 1.362 . S
C310 H302 0.930 . S
C310 C309 1.362 . S
C310 C313 1.409 . S
C311 H303 0.930 . S
C311 C312 1.355 1_545 S
C311 C313 1.415 . S
C312 C311 1.355 1_565 S
C312 C314 1.419 . S
C313 C308 1.425 1_545 S
C313 C310 1.409 . S
C313 C311 1.415 . S
C314 H304 0.930 . S
C314 C312 1.419 . S
C314 C315 1.362 . S
C315 H305 0.930 . S
C315 C308 1.409 . S
C315 C314 1.362 . S
H316 C322 0.930 . S
H317 C325 0.930 . S
H318 C326 0.930 . S
H319 C327 0.930 . S
H320 C330 0.930 . S
H321 C331 0.930 . S
C322 H316 0.930 . S
C322 C323 1.355 1_455 S
C322 C324 1.415 . S
C323 C322 1.355 1_655 S
C323 C325 1.419 . S
C324 C322 1.415 . S
C324 C329 1.425 1_455 S
C324 C331 1.409 . S
C325 H317 0.930 . S
C325 C323 1.419 . S
C325 C326 1.362 . S
C326 H318 0.930 . S
C326 C325 1.362 . S
C326 C329 1.409 . S
C327 H319 0.930 . S
C327 C328 1.355 1_655 S
C327 C329 1.415 . S
C328 C327 1.355 1_455 S
C328 C330 1.419 . S
C329 C324 1.425 1_655 S
C329 C326 1.409 . S
C329 C327 1.415 . S
C330 H320 0.930 . S
C330 C328 1.419 . S
C330 C331 1.362 . S
C331 H321 0.930 . S
C331 C324 1.409 . S
C331 C330 1.362 . S
H332 C338 0.930 . S
H333 C341 0.930 . S
H334 C342 0.930 . S
H335 C343 0.930 . S
H336 C346 0.930 . S
H337 C347 0.930 . S
C338 H332 0.930 . S
C338 C339 1.355 1_565 S
C338 C340 1.415 . S
C339 C338 1.355 1_545 S
C339 C341 1.419 . S
C340 C338 1.415 . S
C340 C345 1.425 1_565 S
C340 C347 1.409 . S
C341 H333 0.930 . S
C341 C339 1.419 . S
C341 C342 1.362 . S
C342 H334 0.930 . S
C342 C341 1.362 . S
C342 C345 1.409 . S
C343 H335 0.930 . S
C343 C344 1.355 1_545 S
C343 C345 1.415 . S
C344 C343 1.355 1_565 S
C344 C346 1.419 . S
C345 C340 1.425 1_545 S
C345 C342 1.409 . S
C345 C343 1.415 . S
C346 H336 0.930 . S
C346 C344 1.419 . S
C346 C347 1.362 . S
C347 H337 0.930 . S
C347 C340 1.409 . S
C347 C346 1.362 . S
H348 C354 0.930 . S
H349 C357 0.930 . S
H350 C358 0.930 . S
H351 C359 0.930 . S
H352 C362 0.930 . S
H353 C363 0.930 . S
C354 H348 0.930 . S
C354 C355 1.355 1_655 S
C354 C356 1.415 . S
C355 C354 1.355 1_455 S
C355 C357 1.419 . S
C356 C354 1.415 . S
C356 C361 1.425 1_655 S
C356 C363 1.409 . S
C357 H349 0.930 . S
C357 C355 1.419 . S
C357 C358 1.362 . S
C358 H350 0.930 . S
C358 C357 1.362 . S
C358 C361 1.409 . S
C359 H351 0.930 . S
C359 C360 1.355 1_455 S
C359 C361 1.415 . S
C360 C359 1.355 1_655 S
C360 C362 1.419 . S
C361 C356 1.425 1_455 S
C361 C358 1.409 . S
C361 C359 1.415 . S
C362 H352 0.930 . S
C362 C360 1.419 . S
C362 C363 1.362 . S
C363 H353 0.930 . S
C363 C356 1.409 . S
C363 C362 1.362 . S
H364 C370 0.930 . S
H365 C373 0.930 . S
H366 C374 0.930 . S
H367 C375 0.930 . S
H368 C378 0.930 . S
H369 C379 0.930 . S
C370 H364 0.930 . S
C370 C371 1.355 1_565 S
C370 C372 1.415 . S
C371 C370 1.355 1_545 S
C371 C373 1.419 . S
C372 C370 1.415 . S
C372 C377 1.425 1_565 S
C372 C379 1.409 . S
C373 H365 0.930 . S
C373 C371 1.419 . S
C373 C374 1.362 . S
C374 H366 0.930 . S
C374 C373 1.362 . S
C374 C377 1.409 . S
C375 H367 0.930 . S
C375 C376 1.348 1_545 S
C375 C377 1.415 . S
C376 C375 1.348 1_565 S
C376 C378 1.428 . S
C377 C372 1.425 1_545 S
C377 C374 1.409 . S
C377 C375 1.415 . S
C378 H368 0.930 . S
C378 C376 1.428 . S
C378 C379 1.362 . S
C379 H369 0.930 . S
C379 C372 1.409 . S
C379 C378 1.362 . S
H380 C386 0.930 . S
H381 C389 0.930 . S
H382 C390 0.930 . S
H383 C391 0.930 . S
H384 C394 0.930 . S
H385 C395 0.930 . S
C386 H380 0.930 . S
C386 C387 1.355 1_455 S
C386 C388 1.415 . S
C387 C386 1.355 1_655 S
C387 C389 1.419 . S
C388 C386 1.415 . S
C388 C393 1.425 1_455 S
C388 C395 1.409 . S
C389 H381 0.930 . S
C389 C387 1.419 . S
C389 C390 1.362 . S
C390 H382 0.930 . S
C390 C389 1.362 . S
C390 C393 1.409 . S
C391 H383 0.930 . S
C391 C392 1.355 1_655 S
C391 C393 1.415 . S
C392 C391 1.355 1_455 S
C392 C394 1.419 . S
C393 C388 1.425 1_655 S
C393 C390 1.409 . S
C393 C391 1.415 . S
C394 H384 0.930 . S
C394 C392 1.419 . S
C394 C395 1.362 . S
C395 H385 0.930 . S
C395 C388 1.409 . S
C395 C394 1.362 . S
C280 C141 1.488 1_565 S
C275 C15 1.483 . S
C296 C229 1.486 . S
C291 C68 1.478 1_455 S
C312 C149 1.483 1_565 S
C307 C8 1.482 . S
C328 C237 1.484 . S
C323 C47 1.483 . S
C344 C209 1.483 1_565 S
C339 C22 1.487 1_545 S
C360 C112 1.489 1_655 S
C355 C61 1.480 . S
C376 C200 1.487 1_565 S
C371 C1 1.484 1_545 S
C387 C54 1.487 1_655 S
C392 C121 1.491 . S
