# Generated by pormake.
# Topology pts, (4,4)-cn, num edge types: 1
# Building blocks:
#     Node 0, Type 0, BuildingBlock: MIFKUJ_clean_linker_1, # of connection points: 4
#     Node 1, Type 0, BuildingBlock: MIFKUJ_clean_linker_1, # of connection points: 4
#     Node 2, Type 1, BuildingBlock: AZAVOO_clean_sbu_0, # of connection points: 4
#     Node 3, Type 1, BuildingBlock: AZAVOO_clean_sbu_0, # of connection points: 4
#     Edge 4, Type (0, 1), BuildingBlock: MIFKUJ_clean_linker_0, # of connection points: 2
#     Edge 5, Type (0, 1), BuildingBlock: MIFKUJ_clean_linker_0, # of connection points: 2
#     Edge 6, Type (0, 1), BuildingBlock: MIFKUJ_clean_linker_0, # of connection points: 2
#     Edge 7, Type (0, 1), BuildingBlock: MIFKUJ_clean_linker_0, # of connection points: 2
#     Edge 8, Type (0, 1), BuildingBlock: MIFKUJ_clean_linker_0, # of connection points: 2
#     Edge 9, Type (0, 1), BuildingBlock: MIFKUJ_clean_linker_0, # of connection points: 2
#     Edge 10, Type (0, 1), BuildingBlock: MIFKUJ_clean_linker_0, # of connection points: 2
#     Edge 11, Type (0, 1), BuildingBlock: MIFKUJ_clean_linker_0, # of connection points: 2
# Relax obj value: 0.003
# Max RMSD: 0.044
# Mean RMSD: 0.033
data_MOF--net-pts--node1-AZAVOO_clean_sbu_0--node2-MIFKUJ_clean_linker_1--edge1-MIFKUJ_clean_linker_0
_symmetry_space_group_name_H-M    P1
_symmetry_Int_Tables_number       1
_symmetry_cell_setting            triclinic
loop_
_symmetry_equiv_pos_as_xyz
'x, y, z'
_cell_length_a     36.992299
_cell_length_b     37.780194
_cell_length_c     52.112359
_cell_angle_alpha  89.963422
_cell_angle_beta   95.927848
_cell_angle_gamma 90.022773
loop_
_atom_site_label
_atom_site_type_symbol
_atom_site_fract_x
_atom_site_fract_y
_atom_site_fract_z
_atom_type_partial_charge
H0 H 0.59173 0.99258 0.0557 0.0
H1 H 0.64945 0.98665 0.08232 0.0
H2 H 0.69238 0.07515 0.04234 0.0
H3 H 0.63354 0.08254 0.01712 0.0
H4 H 0.54247 0.04153 0.05076 0.0
H5 H 0.62203 0.98924 0.99262 0.0
H6 H 0.67697 0.98713 0.97026 0.0
H7 H 0.64729 0.08688 0.93326 0.0
H8 H 0.59293 0.08927 0.95627 0.0
H9 H 0.48005 0.08723 0.9486 0.0
H10 H 0.42279 0.08367 0.92068 0.0
H11 H 0.39207 0.99174 0.96273 0.0
H12 H 0.44955 0.99511 0.99038 0.0
H13 H 0.53496 0.04315 0.95521 0.0
H14 H 0.45084 0.09137 0.00982 0.0
H15 H 0.39617 0.09282 0.03245 0.0
H16 H 0.43485 0.0014 0.07708 0.0
H17 H 0.48838 -0.00095 0.0535 0.0
C18 C 0.6083 0.0377 0.03412 0.0
C19 C 0.61344 0.01097 0.05285 0.0
C20 C 0.64676 0.0073 0.06784 0.0
C21 C 0.67598 0.03008 0.06432 0.0
C22 C 0.67056 0.05723 0.04579 0.0
C23 C 0.63698 0.06123 0.03107 0.0
C24 C 0.57298 0.04046 0.01774 0.0
C25 C 0.54077 0.04152 0.02986 0.0
C26 C 0.57079 0.04158 0.99046 0.0
C27 C 0.60358 0.0396 0.97632 0.0
C28 C 0.62749 0.01073 0.9798 0.0
C29 C 0.65875 0.00946 0.96686 0.0
C30 C 0.66661 0.03692 0.95004 0.0
C31 C 0.64235 0.06558 0.94638 0.0
C32 C 0.61109 0.06683 0.95932 0.0
C33 C 0.46901 0.0417 0.9718 0.0
C34 C 0.46101 0.0663 0.95181 0.0
C35 C 0.42831 0.06419 0.93584 0.0
C36 C 0.4029 0.03745 0.93954 0.0
C37 C 0.41086 0.01294 0.95964 0.0
C38 C 0.44371 0.01487 0.97547 0.0
C39 C 0.50432 0.04339 0.98823 0.0
C40 C 0.53655 0.04334 0.97612 0.0
C41 C 0.50647 0.04314 0.01553 0.0
C42 C 0.47357 0.04481 0.02968 0.0
C43 C 0.44732 0.0714 0.02428 0.0
C44 C 0.41624 0.07244 0.03746 0.0
C45 C 0.41093 0.04712 0.05654 0.0
C46 C 0.43762 0.02092 0.06218 0.0
C47 C 0.46851 0.01976 0.04889 0.0
H48 H 0.09457 0.44983 0.46915 0.0
H49 H 0.0965 0.39694 0.44245 0.0
H50 H 0.98345 0.37661 0.45158 0.0
H51 H 0.98224 0.429 0.479 0.0
H52 H 0.0497 0.50785 0.45882 0.0
H53 H 0.07302 0.42026 0.52625 0.0
H54 H 0.06365 0.36869 0.55308 0.0
H55 H 0.95825 0.40922 0.56725 0.0
H56 H 0.96809 0.46098 0.54065 0.0
H57 H 0.98032 0.5729 0.54011 0.0
H58 H 0.98447 0.62484 0.56852 0.0
H59 H 0.09893 0.63369 0.5599 0.0
H60 H 0.0945 0.5822 0.53094 0.0
H61 H 0.02128 0.50991 0.5497 0.0
H62 H 1.0 0.60019 0.48826 0.0
H63 H 0.00612 0.65263 0.46206 0.0
H64 H 0.10069 0.60664 0.43265 0.0
H65 H 0.09632 0.55575 0.46078 0.0
C66 C 0.03835 0.44318 0.47615 0.0
C67 C 0.07031 0.43378 0.46552 0.0
C68 C 0.07125 0.40368 0.45008 0.0
C69 C 0.04005 0.38256 0.44465 0.0
C70 C 0.00813 0.39192 0.4556 0.0
C71 C 0.00733 0.42191 0.47125 0.0
C72 C 0.03706 0.4764 0.49111 0.0
C73 C 0.04417 0.50838 0.47886 0.0
C74 C 0.02795 0.477 0.51679 0.0
C75 C 0.02111 0.44429 0.53125 0.0
C76 C 0.04766 0.41774 0.53479 0.0
C77 C 0.04225 0.38829 0.55017 0.0
C78 C 0.01021 0.38486 0.56238 0.0
C79 C 0.98346 0.4113 0.55847 0.0
C80 C 0.98893 0.44076 0.54313 0.0
C81 C 0.03705 0.57397 0.53335 0.0
C82 C 0.00619 0.58629 0.54413 0.0
C83 C 0.00856 0.61588 0.56026 0.0
C84 C 0.04203 0.63302 0.56635 0.0
C85 C 0.0729 0.62073 0.55551 0.0
C86 C 0.07035 0.59157 0.53893 0.0
C87 C 0.035 0.54133 0.51764 0.0
C88 C 0.02701 0.5095 0.52969 0.0
C89 C 0.04296 0.54099 0.49168 0.0
C90 C 0.04803 0.57407 0.47693 0.0
C91 C 0.02281 0.60186 0.47687 0.0
C92 C 0.0259 0.63164 0.46135 0.0
C93 C 0.05373 0.63396 0.44492 0.0
C94 C 0.07921 0.60624 0.44526 0.0
C95 C 0.07651 0.5768 0.46119 0.0
Mg96 Mg 0.08251 0.00052 0.26632 0.0
O97 O 0.02835 -0.00184 0.24004 0.0
O98 O 0.98495 0.98334 0.26511 0.0
Mg99 Mg 0.00973 0.97934 0.30698 0.0
C100 C 0.99533 0.99086 0.24314 0.0
C101 C 0.13722 0.00434 0.22661 0.0
O102 O 0.14367 0.97406 0.23857 0.0
O103 O 0.06651 0.05475 0.2813 0.0
O104 O 0.02447 0.0384 0.30687 0.0
O105 O 0.0912 0.94184 0.26292 0.0
O106 O 0.06164 0.96632 0.29288 0.0
C107 C 0.04383 0.06221 0.29744 0.0
C108 C 0.07288 0.93808 0.28254 0.0
O109 O 0.11222 0.02418 0.23362 0.0
Mg110 Mg 0.99627 -0.00209 0.74085 0.0
O111 O 0.05356 0.00279 0.76251 0.0
O112 O 0.09313 0.99723 0.73312 0.0
Mg113 Mg 0.06225 0.98809 0.69335 0.0
C114 C 0.08612 0.00199 0.75636 0.0
C115 C 0.94547 0.99494 0.78261 0.0
O116 O 0.93978 0.96566 0.76921 0.0
O117 O 1.00044 0.0543 0.72451 0.0
O118 O 0.03836 0.04371 0.69463 0.0
O119 O 0.99886 0.93837 0.74474 0.0
O120 O 0.016 0.96828 0.71177 0.0
C121 C 0.01787 0.0646 0.70586 0.0
C122 C 0.01235 0.93835 0.72282 0.0
O123 O 0.96936 0.01653 0.77616 0.0
H124 H 0.37125 0.9908 0.07127 0.0
H125 H 0.31902 0.99164 0.09609 0.0
H126 H 0.32183 0.10579 0.09753 0.0
H127 H 0.37555 0.10512 0.07377 0.0
H128 H 0.31215 0.08199 0.14344 0.0
H129 H 0.25468 0.0598 0.05942 0.0
H130 H 0.24453 0.03117 0.01679 0.0
H131 H 0.22501 0.93179 0.05294 0.0
H132 H 0.23558 0.95969 0.09583 0.0
H133 H 0.14635 0.07036 0.20562 0.0
H134 H 0.1864 0.08588 0.1724 0.0
H135 H 0.2171 0.97623 0.16698 0.0
H136 H 0.1778 0.9607 0.19995 0.0
H137 H 0.2027 0.00873 0.11891 0.0
H138 H 0.27094 0.031 0.2026 0.0
H139 H 0.28121 0.06039 0.24498 0.0
H140 H 0.27867 0.16198 0.20783 0.0
H141 H 0.2679 0.13315 0.16522 0.0
C142 C 0.36101 0.01614 0.07699 0.0
C143 C 0.3778 0.04789 0.07056 0.0
C144 C 0.33072 0.0166 0.09089 0.0
C145 C 0.31601 0.04881 0.09834 0.0
C146 C 0.33252 0.08061 0.09185 0.0
C147 C 0.36306 0.08017 0.07807 0.0
C148 C 0.28449 0.04889 0.11393 0.0
C149 C 0.28784 0.06665 0.13774 0.0
C150 C 0.25276 0.02876 0.10666 0.0
C151 C 0.24613 0.01184 0.08088 0.0
C152 C 0.24845 0.03179 0.0583 0.0
C153 C 0.24259 0.01569 0.03408 0.0
C154 C 0.23418 0.97968 0.03216 0.0
C155 C 0.23153 0.9597 0.05446 0.0
C156 C 0.2374 0.97565 0.07873 0.0
C157 C 0.16144 0.04961 0.19714 0.0
C158 C 0.15911 0.01436 0.20551 0.0
C159 C 0.18432 0.0585 0.17825 0.0
C160 C 0.20479 0.03218 0.16731 0.0
C161 C 0.2015 0.99693 0.1751 0.0
C162 C 0.17914 0.98814 0.19409 0.0
C163 C 0.23103 0.04088 0.14856 0.0
C164 C 0.22666 0.02475 0.1242 0.0
C165 C 0.26163 0.06271 0.1552 0.0
C166 C 0.26814 0.07997 0.18078 0.0
C167 C 0.27224 0.05962 0.20349 0.0
C168 C 0.27822 0.07616 0.22755 0.0
C169 C 0.28046 0.11304 0.2291 0.0
C170 C 0.27683 0.13343 0.2066 0.0
C171 C 0.2708 0.11701 0.1825 0.0
H172 H 0.2851 0.1258 0.24774 0.0
H173 H 0.22966 0.96726 0.01339 0.0
H174 H 0.02792 0.31564 0.55477 0.0
H175 H 0.02091 0.26541 0.58322 0.0
H176 H 0.97266 0.3336 0.63665 0.0
H177 H 0.98102 0.38446 0.60871 0.0
H178 H 0.0203 0.28957 0.662 0.0
H179 H 0.91947 0.27665 0.59883 0.0
H180 H 0.88673 0.27438 0.55519 0.0
H181 H 0.94968 0.18404 0.53701 0.0
H182 H 0.9832 0.18606 0.58042 0.0
H183 H 0.9805 0.12092 0.72458 0.0
H184 H 0.97076 0.17972 0.70456 0.0
H185 H 0.03409 0.1486 0.64338 0.0
H186 H 0.04429 0.09084 0.66297 0.0
H187 H 0.96473 0.17808 0.62649 0.0
H188 H 0.07174 0.19949 0.68793 0.0
H189 H 0.10375 0.20251 0.7318 0.0
H190 H 0.02534 0.27749 0.75376 0.0
H191 H 0.99259 0.27452 0.71006 0.0
C192 C 0.01606 0.32007 0.57265 0.0
C193 C 0.00497 0.35409 0.57941 0.0
C194 C 0.01167 0.29124 0.58878 0.0
C195 C 0.99569 0.29563 0.61188 0.0
C196 C 0.98481 0.32956 0.61883 0.0
C197 C 0.98932 0.35852 0.60272 0.0
C198 C 0.9912 0.26467 0.62881 0.0
C199 C 0.0074 0.26543 0.65441 0.0
C200 C 0.97426 0.23319 0.61899 0.0
C201 C 0.95398 0.23163 0.59288 0.0
C202 C 0.92649 0.25642 0.58548 0.0
C203 C 0.90777 0.25516 0.56079 0.0
C204 C 0.91614 0.22911 0.54333 0.0
C205 C 0.94321 0.2042 0.55056 0.0
C206 C 0.96204 0.20535 0.57523 0.0
C207 C 0.99252 0.12677 0.70697 0.0
C208 C 0.01309 0.10104 0.6954 0.0
C209 C 0.98692 0.1603 0.69559 0.0
C210 C 0.00153 0.16827 0.67242 0.0
C211 C 0.02237 0.14284 0.66115 0.0
C212 C 0.02828 0.10979 0.67253 0.0
C213 C 0.99514 0.20266 0.65915 0.0
C214 C 0.97676 0.20253 0.63422 0.0
C215 C 0.00976 0.23469 0.66968 0.0
C216 C 0.02944 0.2364 0.69588 0.0
C217 C 0.06112 0.21633 0.7022 0.0
C218 C 0.07945 0.2181 0.727 0.0
C219 C 0.06651 0.24007 0.74559 0.0
C220 C 0.03528 0.26041 0.73937 0.0
C221 C 0.01683 0.2587 0.71459 0.0
H222 H 0.08074 0.24142 0.76478 0.0
H223 H 0.90163 0.22819 0.52422 0.0
H224 H 0.72414 0.08162 0.08344 0.0
H225 H 0.78188 0.07362 0.11016 0.0
H226 H 0.76611 0.96061 0.10863 0.0
H227 H 0.70932 0.968 0.08088 0.0
H228 H 0.78199 0.99257 0.15939 0.0
H229 H 0.82621 0.99004 0.07522 0.0
H230 H 0.8335 0.01414 0.03207 0.0
H231 H 0.88545 0.1067 0.06655 0.0
H232 H 0.87798 0.08336 0.10992 0.0
H233 H 0.94536 0.94067 0.22794 0.0
H234 H 0.89489 0.94538 0.1939 0.0
H235 H 0.93014 0.05073 0.17594 0.0
H236 H 0.98239 0.04467 0.20868 0.0
H237 H 0.90381 0.02338 0.13411 0.0
H238 H 0.85874 0.03152 0.21675 0.0
H239 H 0.84941 0.01301 0.26098 0.0
H240 H 0.79645 0.91806 0.23156 0.0
H241 H 0.80587 0.9358 0.18716 0.0
C242 C 0.73319 0.05498 0.08829 0.0
C243 C 0.71176 0.02548 0.08002 0.0
C244 C 0.76615 0.05052 0.10369 0.0
C245 C 0.77817 0.01654 0.11132 0.0
C246 C 0.75716 0.98706 0.103 0.0
C247 C 0.72451 0.99142 0.08731 0.0
C248 C 0.81185 0.01176 0.12895 0.0
C249 C 0.80873 -0.00118 0.15382 0.0
C250 C 0.84643 0.02122 0.12187 0.0
C251 C 0.8512 0.0351 0.09581 0.0
C252 C 0.8389 0.01567 0.0736 0.0
C253 C 0.84313 0.02916 0.0491 0.0
C254 C 0.85984 0.06198 0.04657 0.0
C255 C 0.87247 0.08131 0.06854 0.0
C256 C 0.86827 0.06794 0.09308 0.0
C257 C 0.94256 0.96453 0.21635 0.0
C258 C 0.96747 0.99237 0.22087 0.0
C259 C 0.91353 0.96742 0.19709 0.0
C260 C 0.90781 -0.00107 0.18286 0.0
C261 C 0.93369 0.02623 0.1867 0.0
C262 C 0.96351 0.02281 0.2054 0.0
C263 C 0.87421 0.00388 0.16479 0.0
C264 C 0.8772 0.01701 0.13983 0.0
C265 C 0.83924 0.99546 0.17199 0.0
C266 C 0.83331 0.98484 0.19866 0.0
C267 C 0.84529 0.0066 0.21973 0.0
C268 C 0.83997 0.99625 0.24483 0.0
C269 C 0.82243 0.96434 0.24908 0.0
C270 C 0.81007 0.94275 0.22824 0.0
C271 C 0.81536 0.95295 0.2031 0.0
H272 H 0.81835 0.95637 0.26853 0.0
H273 H 0.86309 0.07238 0.02758 0.0
H274 H 0.00238 0.69371 0.56285 0.0
H275 H 0.006 0.74335 0.59341 0.0
H276 H 0.09028 0.68917 0.64155 0.0
H277 H 0.08749 0.63981 0.61062 0.0
H278 H 0.01698 0.72242 0.66329 0.0
H279 H 0.12616 0.74459 0.62035 0.0
H280 H 0.15835 0.75098 0.58145 0.0
H281 H 0.08593 0.83485 0.55428 0.0
H282 H 0.05294 0.82854 0.59285 0.0
H283 H 0.03442 0.87481 0.74493 0.0
H284 H 0.04888 0.8204 0.72232 0.0
H285 H 0.02344 0.87345 0.6492 0.0
H286 H 0.01181 0.92791 0.67165 0.0
H287 H 0.07651 0.8357 0.64412 0.0
H288 H 0.96307 0.81273 0.68003 0.0
H289 H 0.92303 0.80677 0.71483 0.0
H290 H 0.99299 0.72639 0.75086 0.0
H291 H 0.03365 0.73216 0.71639 0.0
C292 C 0.02173 0.69254 0.57991 0.0
C293 C 0.04475 0.66318 0.58444 0.0
C294 C 0.02377 0.72076 0.59728 0.0
C295 C 0.04839 0.71971 0.61961 0.0
C296 C 0.07118 0.6903 0.62435 0.0
C297 C 0.06969 0.66236 0.60669 0.0
C298 C 0.04995 0.74958 0.63789 0.0
C299 C 0.03055 0.74707 0.65953 0.0
C300 C 0.06682 0.78177 0.63237 0.0
C301 C 0.0869 0.78585 0.60935 0.0
C302 C 0.11689 0.76415 0.60596 0.0
C303 C 0.13533 0.76781 0.584 0.0
C304 C 0.12414 0.79324 0.56537 0.0
C305 C 0.09455 0.81514 0.56871 0.0
C306 C 0.076 0.81155 0.59062 0.0
C307 C 0.0323 0.8747 0.72404 0.0
C308 C 0.02204 0.90545 0.71 0.0
C309 C 0.04029 0.8436 0.71111 0.0
C310 C 0.03672 0.84247 0.68394 0.0
C311 C 0.02671 0.87345 0.6701 0.0
C312 C 0.0199 0.90463 0.68297 0.0
C313 C 0.04254 0.80928 0.66951 0.0
C314 C 0.06336 0.81104 0.64842 0.0
C315 C 0.02601 0.77668 0.67515 0.0
C316 C 0.0016 0.77319 0.69584 0.0
C317 C 0.97002 0.79396 0.69548 0.0
C318 C 0.9472 0.79059 0.71512 0.0
C319 C 0.95553 0.7663 0.73509 0.0
C320 C 0.98663 0.74525 0.73542 0.0
C321 C 0.00955 0.74854 0.71583 0.0
H322 H 0.93783 0.76373 0.75028 0.0
H323 H 0.13844 0.79603 0.54838 0.0
H324 H 0.39432 0.04294 0.88704 0.0
H325 H 0.33813 0.03841 0.85822 0.0
H326 H 0.27766 0.02117 0.92364 0.0
H327 H 0.33408 0.02524 0.95262 0.0
H328 H 0.25492 0.97719 0.88595 0.0
H329 H 0.27545 0.10161 0.89201 0.0
H330 H 0.31024 0.15716 0.89084 0.0
H331 H 0.32342 0.13981 0.81092 0.0
H332 H 0.28914 0.08387 0.8117 0.0
H333 H 0.08435 0.00338 0.80897 0.0
H334 H 0.13578 0.01069 0.84214 0.0
H335 H 0.2088 0.01869 0.78302 0.0
H336 H 0.15784 0.01149 0.74984 0.0
H337 H 0.22152 0.06995 0.82033 0.0
H338 H 0.20354 0.94323 0.81593 0.0
H339 H 0.16798 0.88822 0.81772 0.0
H340 H 0.14838 0.91158 0.89572 0.0
H341 H 0.18344 0.96701 0.89426 0.0
C342 C 0.36902 0.0385 0.89532 0.0
C343 C 0.36859 0.03472 0.92211 0.0
C344 C 0.33689 0.03592 0.87882 0.0
C345 C 0.30352 0.03005 0.88877 0.0
C346 C 0.30305 0.0258 0.91551 0.0
C347 C 0.33529 0.02809 0.93204 0.0
C348 C 0.26931 0.02799 0.87114 0.0
C349 C 0.2473 -0.00222 0.87192 0.0
C350 C 0.25949 0.05464 0.85258 0.0
C351 C 0.27995 0.08839 0.85198 0.0
C352 C 0.28598 0.10951 0.87423 0.0
C353 C 0.30558 0.14109 0.87363 0.0
C354 C 0.3191 0.15197 0.85084 0.0
C355 C 0.31296 0.13133 0.82857 0.0
C356 C 0.29341 0.0997 0.82907 0.0
C357 C 0.11135 0.00675 0.80301 0.0
C358 C 0.11693 0.00674 0.7767 0.0
C359 C 0.14071 0.0108 0.82201 0.0
C360 C 0.17613 0.01503 0.81503 0.0
C361 C 0.18169 0.01548 0.78883 0.0
C362 C 0.15248 0.01121 0.76986 0.0
C363 C 0.20761 0.01895 0.83491 0.0
C364 C 0.22904 0.04956 0.83455 0.0
C365 C 0.2167 0.99283 0.85396 0.0
C366 C 0.19575 0.95946 0.85488 0.0
C367 C 0.19139 0.93679 0.83338 0.0
C368 C 0.17137 0.9055 0.83436 0.0
C369 C 0.15583 0.89647 0.85679 0.0
C370 C 0.16037 0.91865 0.87834 0.0
C371 C 0.18033 0.94999 0.87745 0.0
H372 H 0.14035 0.87223 0.85751 0.0
H373 H 0.33427 0.17643 0.85041 0.0
H374 H 0.07499 0.37567 0.40091 0.0
H375 H 0.07725 0.32379 0.37328 0.0
H376 H 0.00744 0.26724 0.4206 0.0
H377 H 0.0068 0.31826 0.44921 0.0
H378 H 0.06035 0.22633 0.41018 0.0
H379 H 0.9769 0.30299 0.35975 0.0
H380 H 0.9569 0.35831 0.33749 0.0
H381 H 0.04332 0.34939 0.28883 0.0
H382 H 0.06413 0.29424 0.31104 0.0
H383 H 0.99722 0.08709 0.33046 0.0
H384 H 0.99836 0.14437 0.35176 0.0
H385 H 0.08592 0.17818 0.30897 0.0
H386 H 0.08528 0.12035 0.28741 0.0
H387 H 0.02931 0.23145 0.31528 0.0
H388 H 0.11023 0.1523 0.36541 0.0
H389 H 0.12747 0.09605 0.38737 0.0
H390 H 0.0424 0.10947 0.43669 0.0
H391 H 0.02428 0.16555 0.41474 0.0
C392 C 0.06044 0.35208 0.40566 0.0
C393 C 0.04074 0.35121 0.42739 0.0
C394 C 0.06136 0.32256 0.38959 0.0
C395 C 0.04211 0.29173 0.39461 0.0
C396 C 0.02242 0.29078 0.41625 0.0
C397 C 0.02178 0.32014 0.43248 0.0
C398 C 0.04317 0.26003 0.37782 0.0
C399 C 0.05317 0.2275 0.38948 0.0
C400 C 0.03484 0.2616 0.35066 0.0
C401 C 0.02231 0.2947 0.33725 0.0
C402 C 0.99181 0.31298 0.34444 0.0
C403 C 0.9803 0.34427 0.3318 0.0
C404 C 0.99889 0.35741 0.31181 0.0
C405 C 0.02898 0.33922 0.30435 0.0
C406 C 0.04063 0.30793 0.31694 0.0
C407 C 0.01654 0.10669 0.32524 0.0
C408 C 0.04153 0.09884 0.30742 0.0
C409 C 0.0171 0.13948 0.33748 0.0
C410 C 0.04255 0.16523 0.33219 0.0
C411 C 0.06616 0.1585 0.31334 0.0
C412 C 0.06576 0.12545 0.30109 0.0
C413 C 0.04575 0.198 0.34782 0.0
C414 C 0.03669 0.23057 0.33597 0.0
C415 C 0.05465 0.19654 0.37486 0.0
C416 C 0.06572 0.16298 0.38828 0.0
C417 C 0.09502 0.14312 0.3808 0.0
C418 C 0.10498 0.11129 0.39327 0.0
C419 C 0.08599 0.09915 0.41338 0.0
C420 C 0.05706 0.11888 0.4211 0.0
C421 C 0.04696 0.15072 0.40866 0.0
H422 H 0.09374 0.0745 0.42301 0.0
H423 H 0.98993 0.38164 0.30205 0.0
H424 H 0.71355 0.09092 0.94161 0.0
H425 H 0.76681 0.08863 0.91742 0.0
H426 H 0.74776 0.97747 0.90278 0.0
H427 H 0.69452 0.97957 0.92684 0.0
H428 H 0.8188 0.99032 0.91579 0.0
H429 H 0.72239 0.04056 0.85706 0.0
H430 H 0.67451 0.08404 0.84337 0.0
H431 H 0.75338 0.16782 0.85035 0.0
H432 H 0.80167 0.12486 0.86441 0.0
H433 H 0.90006 0.94971 0.80408 0.0
H434 H 0.85987 0.96221 0.83704 0.0
H435 H 0.89914 0.06973 0.84258 0.0
H436 H 0.93972 0.05739 0.80916 0.0
H437 H 0.82462 0.06605 0.83849 0.0
H438 H 0.92261 0.0137 0.89135 0.0
H439 H 0.97012 0.96954 0.90418 0.0
H440 H 0.88858 0.88932 0.90794 0.0
H441 H 0.84058 0.93288 0.89476 0.0
C442 C 0.72061 0.06603 0.93313 0.0
C443 C 0.69966 0.03545 0.93605 0.0
C444 C 0.75112 0.06475 0.91937 0.0
C445 C 0.7611 0.03295 0.90808 0.0
C446 C 0.74066 0.00227 0.9114 0.0
C447 C 0.71025 0.0035 0.9252 0.0
C448 C 0.7923 0.03153 0.89229 0.0
C449 C 0.81998 0.00674 0.89881 0.0
C450 C 0.7945 0.05378 0.87062 0.0
C451 C 0.76553 0.07958 0.86207 0.0
C452 C 0.72946 0.0683 0.85587 0.0
C453 C 0.70226 0.09283 0.84801 0.0
C454 C 0.71088 0.12869 0.84607 0.0
C455 C 0.74673 0.14006 0.85191 0.0
C456 C 0.77403 0.11563 0.85981 0.0
C457 C 0.90048 0.976 0.81239 0.0
C458 C 0.9231 0.00258 0.80395 0.0
C459 C 0.87757 0.98304 0.83138 0.0
C460 C 0.87675 0.01679 0.8425 0.0
C461 C 0.89949 0.04344 0.83433 0.0
C462 C 0.92271 0.03633 0.81532 0.0
C463 C 0.85061 0.02417 0.86161 0.0
C464 C 0.82384 0.05007 0.85574 0.0
C465 C 0.84921 0.00288 0.88386 0.0
C466 C 0.87798 0.97656 0.89191 0.0
C467 C 0.91481 0.9866 0.89473 0.0
C468 C 0.94183 0.96167 0.9021 0.0
C469 C 0.93238 0.92664 0.90683 0.0
C470 C 0.89586 0.91647 0.90426 0.0
C471 C 0.86873 0.94129 0.89688 0.0
H472 H 0.95334 0.90738 0.91253 0.0
H473 H 0.68978 0.14764 0.83998 0.0
H474 H 0.99682 0.67102 0.41958 0.0
H475 H 0.9995 0.72057 0.39007 0.0
H476 H 0.11657 0.71388 0.39766 0.0
H477 H 0.11432 0.66629 0.42902 0.0
H478 H 0.09963 0.77861 0.3975 0.0
H479 H 0.05945 0.68221 0.34278 0.0
H480 H 0.02127 0.63144 0.32743 0.0
H481 H 0.92779 0.69922 0.31653 0.0
H482 H 0.96532 0.75033 0.33215 0.0
H483 H 0.1188 0.88192 0.28455 0.0
H484 H 0.1143 0.82716 0.30936 0.0
H485 H 0.00992 0.8602 0.33059 0.0
H486 H 0.0146 0.9153 0.30635 0.0
H487 H 0.0218 0.78132 0.31401 0.0
H488 H 0.06561 0.87669 0.37277 0.0
H489 H 0.10716 0.926 0.38587 0.0
H490 H 0.19872 0.85613 0.38596 0.0
H491 H 0.15766 0.80651 0.37244 0.0
C492 C 0.02325 0.68041 0.41544 0.0
C493 C 0.05538 0.66442 0.42683 0.0
C494 C 0.02469 0.70843 0.39809 0.0
C495 C 0.0582 0.72053 0.39108 0.0
C496 C 0.09033 0.70489 0.40256 0.0
C497 C 0.08896 0.67732 0.42033 0.0
C498 C 0.05979 0.75004 0.37232 0.0
C499 C 0.08294 0.77876 0.37911 0.0
C500 C 0.03783 0.7507 0.34832 0.0
C501 C 0.01516 0.72004 0.33886 0.0
C502 C 0.0307 0.68624 0.33728 0.0
C503 C 0.00918 0.65741 0.32851 0.0
C504 C 0.97211 0.66208 0.32107 0.0
C505 C 0.9565 0.69563 0.32233 0.0
C506 C 0.97789 0.72455 0.33112 0.0
C507 C 0.09459 0.87717 0.2941 0.0
C508 C 0.06721 0.90297 0.29381 0.0
C509 C 0.09212 0.846 0.30827 0.0
C510 C 0.06188 0.83991 0.32183 0.0
C511 C 0.03346 0.86458 0.32022 0.0
C512 C 0.03629 0.89611 0.30655 0.0
C513 C 0.06135 0.80935 0.33945 0.0
C514 C 0.03848 0.78068 0.3324 0.0
C515 C 0.08401 0.80833 0.36297 0.0
C516 C 0.10863 0.83804 0.37129 0.0
C517 C 0.09462 0.87194 0.37532 0.0
C518 C 0.11807 0.89992 0.38288 0.0
C519 C 0.15557 0.89423 0.38666 0.0
C520 C 0.16967 0.86052 0.38297 0.0
C521 C 0.14633 0.83246 0.37538 0.0
H522 H 0.17368 0.91592 0.39252 0.0
H523 H 0.95549 0.63972 0.31428 0.0
loop_
_geom_bond_atom_site_label_1
_geom_bond_atom_site_label_2
_geom_bond_distance
_geom_bond_site_symmetry_2
_ccdc_geom_bond_type
H0 C19 0.949 . S
H1 C20 0.950 . S
H2 C22 0.950 . S
H3 C23 0.950 . S
H4 C25 0.950 1_565 S
H5 C28 0.950 . S
H6 C29 0.950 . S
H7 C31 0.951 . S
H8 C32 0.949 . S
H9 C34 0.949 . S
H10 C35 0.950 . S
H11 C37 0.950 . S
H12 C38 0.950 . S
H13 C40 0.950 . S
H14 C43 0.950 . S
H15 C44 0.950 . S
H16 C46 0.951 . S
H17 C47 0.949 . S
C18 C19 1.376 1_545 S
C18 C23 1.386 . S
C18 C24 1.483 . S
C19 H0 0.949 . S
C19 C18 1.376 1_565 S
C19 C20 1.397 . S
C20 H1 0.950 . S
C20 C19 1.397 . S
C20 C21 1.391 1_565 S
C21 C20 1.391 1_545 S
C21 C22 1.405 . S
C22 H2 0.950 . S
C22 C21 1.405 . S
C22 C23 1.367 . S
C23 H3 0.950 . S
C23 C18 1.386 . S
C23 C22 1.367 . S
C24 C18 1.483 . S
C24 C25 1.382 . S
C24 C26 1.403 1_554 S
C25 H4 0.950 1_545 S
C25 C24 1.382 . S
C25 C41 1.411 . S
C26 C24 1.403 1_556 S
C26 C27 1.489 . S
C26 C40 1.411 . S
C27 C26 1.489 . S
C27 C28 1.383 1_545 S
C27 C32 1.382 . S
C28 H5 0.950 . S
C28 C27 1.383 1_565 S
C28 C29 1.395 . S
C29 H6 0.950 . S
C29 C28 1.395 . S
C29 C30 1.288 1_565 S
C30 C29 1.288 1_545 S
C30 C31 1.392 . S
C31 H7 0.951 . S
C31 C30 1.392 . S
C31 C32 1.392 . S
C32 H8 0.949 . S
C32 C27 1.382 . S
C32 C31 1.392 . S
C33 C34 1.376 . S
C33 C38 1.386 1_545 S
C33 C39 1.483 . S
C34 H9 0.949 . S
C34 C33 1.376 . S
C34 C35 1.397 . S
C35 H10 0.950 . S
C35 C34 1.397 . S
C35 C36 1.391 . S
C36 C35 1.391 . S
C36 C37 1.405 1_545 S
C37 H11 0.950 . S
C37 C36 1.405 1_565 S
C37 C38 1.367 . S
C38 H12 0.950 . S
C38 C33 1.386 1_565 S
C38 C37 1.367 . S
C39 C33 1.483 . S
C39 C40 1.382 . S
C39 C41 1.403 1_556 S
C40 H13 0.950 . S
C40 C26 1.411 . S
C40 C39 1.382 . S
C41 C25 1.411 . S
C41 C39 1.403 1_554 S
C41 C42 1.489 . S
C42 C41 1.489 . S
C42 C43 1.383 . S
C42 C47 1.382 1_545 S
C43 H14 0.950 . S
C43 C42 1.383 . S
C43 C44 1.395 . S
C44 H15 0.950 . S
C44 C43 1.395 . S
C44 C45 1.288 . S
C45 C44 1.288 . S
C45 C46 1.392 1_545 S
C46 H16 0.951 . S
C46 C45 1.392 1_565 S
C46 C47 1.392 . S
C47 H17 0.949 . S
C47 C42 1.382 1_565 S
C47 C46 1.392 . S
H48 C67 0.949 . S
H49 C68 0.950 . S
H50 C70 0.950 1_655 S
H51 C71 0.950 1_655 S
H52 C73 0.950 . S
H53 C76 0.950 . S
H54 C77 0.950 . S
H55 C79 0.951 1_655 S
H56 C80 0.949 1_655 S
H57 C82 0.949 1_655 S
H58 C83 0.946 1_655 S
H59 C85 0.950 . S
H60 C86 0.950 . S
H61 C88 0.950 . S
H62 C91 0.950 1_655 S
H63 C92 0.950 . S
H64 C94 0.951 . S
H65 C95 0.949 . S
C66 C67 1.376 . S
C66 C71 1.386 . S
C66 C72 1.483 . S
C67 H48 0.949 . S
C67 C66 1.376 . S
C67 C68 1.397 . S
C68 H49 0.950 . S
C68 C67 1.397 . S
C68 C69 1.391 . S
C69 C68 1.391 . S
C69 C70 1.405 . S
C70 H50 0.950 1_455 S
C70 C69 1.405 . S
C70 C71 1.367 . S
C71 H51 0.950 1_455 S
C71 C66 1.386 . S
C71 C70 1.367 . S
C72 C66 1.483 . S
C72 C73 1.382 . S
C72 C74 1.403 . S
C73 H52 0.950 . S
C73 C72 1.382 . S
C73 C89 1.411 . S
C74 C72 1.403 . S
C74 C75 1.489 . S
C74 C88 1.411 . S
C75 C74 1.489 . S
C75 C76 1.383 . S
C75 C80 1.382 . S
C76 H53 0.950 . S
C76 C75 1.383 . S
C76 C77 1.395 . S
C77 H54 0.950 . S
C77 C76 1.395 . S
C77 C78 1.288 . S
C78 C77 1.288 . S
C78 C79 1.392 . S
C79 H55 0.951 1_455 S
C79 C78 1.392 . S
C79 C80 1.392 . S
C80 H56 0.949 1_455 S
C80 C75 1.382 . S
C80 C79 1.392 . S
C81 C82 1.376 . S
C81 C86 1.386 . S
C81 C87 1.483 . S
C82 H57 0.949 1_455 S
C82 C81 1.376 . S
C82 C83 1.397 . S
C83 H58 0.946 1_455 S
C83 C82 1.397 . S
C83 C84 1.395 . S
C84 C83 1.395 . S
C84 C85 1.405 . S
C85 H59 0.950 . S
C85 C84 1.405 . S
C85 C86 1.367 . S
C86 H60 0.950 . S
C86 C81 1.386 . S
C86 C85 1.367 . S
C87 C81 1.483 . S
C87 C88 1.382 . S
C87 C89 1.403 . S
C88 H61 0.950 . S
C88 C74 1.411 . S
C88 C87 1.382 . S
C89 C73 1.411 . S
C89 C87 1.403 . S
C89 C90 1.489 . S
C90 C89 1.489 . S
C90 C91 1.383 . S
C90 C95 1.382 . S
C91 H62 0.950 1_455 S
C91 C90 1.383 . S
C91 C92 1.395 . S
C92 H63 0.950 . S
C92 C91 1.395 . S
C92 C93 1.288 . S
C93 C92 1.288 . S
C93 C94 1.392 . S
C94 H64 0.951 . S
C94 C93 1.392 . S
C94 C95 1.392 . S
C95 H65 0.949 . S
C95 C90 1.382 . S
C95 C94 1.392 . S
Mg96 O97 2.028 . S
Mg96 O103 1.986 . S
Mg96 O105 2.114 1_545 S
Mg96 O106 2.251 1_545 S
Mg96 O109 2.010 . S
O97 Mg96 2.028 . S
O97 C100 1.250 . S
O98 Mg99 2.028 . S
O98 C100 1.248 1_655 S
Mg99 O98 2.028 . S
Mg99 O104 2.032 1_655 S
Mg99 O106 2.079 1_645 S
C100 O97 1.250 . S
C100 O98 1.248 1_455 S
C101 O102 1.264 . S
C101 O109 1.249 . S
O102 C101 1.264 . S
O103 Mg96 1.986 . S
O103 C107 1.246 . S
O104 Mg99 2.032 1_455 S
O104 C107 1.259 . S
O105 Mg96 2.114 1_565 S
O105 C108 1.252 . S
O106 Mg96 2.251 1_565 S
O106 Mg99 2.079 1_465 S
O106 C108 1.273 . S
C107 O103 1.246 . S
C107 O104 1.259 . S
C108 O105 1.252 . S
C108 O106 1.273 . S
O109 Mg96 2.010 . S
O109 C101 1.249 . S
Mg110 O111 2.028 1_655 S
Mg110 O117 1.986 1_655 S
Mg110 O119 2.114 1_545 S
Mg110 O120 2.251 1_645 S
Mg110 O123 2.010 . S
O111 Mg110 2.028 1_455 S
O111 C114 1.250 . S
O112 Mg113 2.028 . S
O112 C114 1.248 . S
Mg113 O112 2.028 . S
Mg113 O118 2.032 . S
Mg113 O120 2.079 1_545 S
C114 O111 1.250 . S
C114 O112 1.248 . S
C115 O116 1.264 . S
C115 O123 1.249 . S
O116 C115 1.264 . S
O117 Mg110 1.986 1_455 S
O117 C121 1.246 . S
O118 Mg113 2.032 . S
O118 C121 1.259 . S
O119 Mg110 2.114 1_565 S
O119 C122 1.252 1_655 S
O120 Mg110 2.251 1_465 S
O120 Mg113 2.079 1_565 S
O120 C122 1.273 . S
C121 O117 1.246 . S
C121 O118 1.259 . S
C122 O119 1.252 1_455 S
C122 O120 1.273 . S
O123 Mg110 2.010 . S
O123 C115 1.249 . S
H124 C142 0.951 . S
H125 C144 0.951 . S
H126 C146 0.950 . S
H127 C147 0.950 . S
H128 C149 0.950 . S
H129 C152 0.950 1_545 S
H130 C153 0.950 . S
H131 C155 0.950 . S
H132 C156 0.950 . S
H133 C157 0.951 . S
H134 C159 0.951 . S
H135 C161 0.950 . S
H136 C162 0.950 . S
H137 C164 0.950 . S
H138 C167 0.950 . S
H139 C168 0.950 . S
H140 C170 0.950 . S
H141 C171 0.950 . S
C142 H124 0.951 . S
C142 C143 1.366 1_565 S
C142 C144 1.388 . S
C143 C142 1.366 1_545 S
C143 C147 1.385 . S
C144 H125 0.951 . S
C144 C142 1.388 . S
C144 C145 1.366 1_565 S
C145 C144 1.366 1_545 S
C145 C146 1.414 . S
C145 C148 1.499 . S
C146 H126 0.950 . S
C146 C145 1.414 . S
C146 C147 1.374 . S
C147 H127 0.950 . S
C147 C143 1.385 . S
C147 C146 1.374 . S
C148 C145 1.499 . S
C148 C149 1.373 . S
C148 C150 1.389 1_545 S
C149 H128 0.950 . S
C149 C148 1.373 . S
C149 C165 1.377 . S
C150 C148 1.389 1_565 S
C150 C151 1.524 . S
C150 C164 1.377 . S
C151 C150 1.524 . S
C151 C152 1.397 . S
C151 C156 1.363 . S
C152 H129 0.950 1_565 S
C152 C151 1.397 . S
C152 C153 1.334 . S
C153 H130 0.950 . S
C153 C152 1.334 . S
C153 C154 1.287 . S
C154 C153 1.287 . S
C154 C155 1.524 . S
C154 H173 0.913 . S
C155 H131 0.950 . S
C155 C154 1.524 . S
C155 C156 1.415 . S
C156 H132 0.950 . S
C156 C151 1.363 . S
C156 C155 1.415 . S
C157 H133 0.951 . S
C157 C158 1.366 . S
C157 C159 1.388 . S
C158 C157 1.366 . S
C158 C162 1.385 1_545 S
C159 H134 0.951 . S
C159 C157 1.388 . S
C159 C160 1.366 . S
C160 C159 1.366 . S
C160 C161 1.414 1_545 S
C160 C163 1.499 . S
C161 H135 0.950 . S
C161 C160 1.414 1_565 S
C161 C162 1.374 . S
C162 H136 0.950 . S
C162 C158 1.385 1_565 S
C162 C161 1.374 . S
C163 C160 1.499 . S
C163 C164 1.373 1_545 S
C163 C165 1.389 . S
C164 H137 0.950 . S
C164 C150 1.377 . S
C164 C163 1.373 1_565 S
C165 C149 1.377 . S
C165 C163 1.389 . S
C165 C166 1.524 . S
C166 C165 1.524 . S
C166 C167 1.397 . S
C166 C171 1.363 . S
C167 H138 0.950 . S
C167 C166 1.397 . S
C167 C168 1.334 . S
C168 H139 0.950 . S
C168 C167 1.334 . S
C168 C169 1.287 . S
C169 C168 1.287 . S
C169 C170 1.524 . S
C169 H172 0.999 . S
C170 H140 0.950 . S
C170 C169 1.524 . S
C170 C171 1.415 . S
C171 H141 0.950 . S
C171 C166 1.363 . S
C171 C170 1.415 . S
H172 C169 0.999 . S
H173 C154 0.913 . S
H174 C192 0.951 . S
H175 C194 0.951 . S
H176 C196 0.950 . S
H177 C197 0.950 . S
H178 C199 0.950 . S
H179 C202 0.950 . S
H180 C203 0.950 . S
H181 C205 0.950 . S
H182 C206 0.950 1_455 S
H183 C207 0.951 . S
H184 C209 0.951 . S
H185 C211 0.950 . S
H186 C212 0.950 . S
H187 C214 0.950 1_655 S
H188 C217 0.950 . S
H189 C218 0.950 . S
H190 C220 0.950 . S
H191 C221 0.950 . S
C192 H174 0.951 . S
C192 C193 1.366 . S
C192 C194 1.388 . S
C193 C192 1.366 . S
C193 C197 1.385 . S
C194 H175 0.951 . S
C194 C192 1.388 . S
C194 C195 1.366 . S
C195 C194 1.366 . S
C195 C196 1.414 . S
C195 C198 1.499 . S
C196 H176 0.950 . S
C196 C195 1.414 . S
C196 C197 1.374 . S
C197 H177 0.950 . S
C197 C193 1.385 . S
C197 C196 1.374 . S
C198 C195 1.499 . S
C198 C199 1.373 . S
C198 C200 1.389 . S
C199 H178 0.950 . S
C199 C198 1.373 . S
C199 C215 1.377 . S
C200 C198 1.389 . S
C200 C201 1.524 1_455 S
C200 C214 1.377 . S
C201 C200 1.524 1_655 S
C201 C202 1.397 . S
C201 C206 1.363 . S
C202 H179 0.950 . S
C202 C201 1.397 . S
C202 C203 1.334 . S
C203 H180 0.950 . S
C203 C202 1.334 . S
C203 C204 1.287 . S
C204 C203 1.287 . S
C204 C205 1.524 . S
C204 H223 0.913 . S
C205 H181 0.950 . S
C205 C204 1.524 . S
C205 C206 1.415 . S
C206 H182 0.950 1_655 S
C206 C201 1.363 . S
C206 C205 1.415 . S
C207 H183 0.951 . S
C207 C208 1.366 . S
C207 C209 1.388 . S
C208 C207 1.366 . S
C208 C212 1.385 . S
C209 H184 0.951 . S
C209 C207 1.388 . S
C209 C210 1.366 . S
C210 C209 1.366 . S
C210 C211 1.414 . S
C210 C213 1.499 . S
C211 H185 0.950 . S
C211 C210 1.414 . S
C211 C212 1.374 . S
C212 H186 0.950 . S
C212 C208 1.385 . S
C212 C211 1.374 . S
C213 C210 1.499 . S
C213 C214 1.373 . S
C213 C215 1.389 . S
C214 H187 0.950 1_455 S
C214 C200 1.377 . S
C214 C213 1.373 . S
C215 C199 1.377 . S
C215 C213 1.389 . S
C215 C216 1.524 . S
C216 C215 1.524 . S
C216 C217 1.397 . S
C216 C221 1.363 . S
C217 H188 0.950 . S
C217 C216 1.397 . S
C217 C218 1.334 . S
C218 H189 0.950 . S
C218 C217 1.334 . S
C218 C219 1.287 . S
C219 C218 1.287 . S
C219 C220 1.524 . S
C219 H222 0.999 . S
C220 H190 0.950 . S
C220 C219 1.524 . S
C220 C221 1.415 . S
C221 H191 0.950 . S
C221 C216 1.363 . S
C221 C220 1.415 . S
H222 C219 0.999 . S
H223 C204 0.913 . S
H224 C242 0.951 . S
H225 C244 0.951 . S
H226 C246 0.950 . S
H227 C247 0.950 . S
H228 C249 0.950 . S
H229 C252 0.950 . S
H230 C253 0.950 . S
H231 C255 0.950 . S
H232 C256 0.950 . S
H233 C257 0.951 . S
H234 C259 0.951 . S
H235 C261 0.950 . S
H236 C262 0.950 . S
H237 C264 0.950 . S
H238 C267 0.950 1_545 S
H239 C268 0.950 . S
H240 C270 0.950 . S
H241 C271 0.950 . S
C242 H224 0.951 . S
C242 C243 1.366 . S
C242 C244 1.388 . S
C243 C242 1.366 . S
C243 C247 1.385 1_545 S
C244 H225 0.951 . S
C244 C242 1.388 . S
C244 C245 1.366 . S
C245 C244 1.366 . S
C245 C246 1.414 1_545 S
C245 C248 1.499 . S
C246 H226 0.950 . S
C246 C245 1.414 1_565 S
C246 C247 1.374 . S
C247 H227 0.950 . S
C247 C243 1.385 1_565 S
C247 C246 1.374 . S
C248 C245 1.499 . S
C248 C249 1.373 1_545 S
C248 C250 1.389 . S
C249 H228 0.950 . S
C249 C248 1.373 1_565 S
C249 C265 1.377 . S
C250 C248 1.389 . S
C250 C251 1.524 . S
C250 C264 1.377 . S
C251 C250 1.524 . S
C251 C252 1.397 . S
C251 C256 1.363 . S
C252 H229 0.950 . S
C252 C251 1.397 . S
C252 C253 1.334 . S
C253 H230 0.950 . S
C253 C252 1.334 . S
C253 C254 1.287 . S
C254 C253 1.287 . S
C254 C255 1.524 . S
C254 H273 0.913 . S
C255 H231 0.950 . S
C255 C254 1.524 . S
C255 C256 1.415 . S
C256 H232 0.950 . S
C256 C251 1.363 . S
C256 C255 1.415 . S
C257 H233 0.951 . S
C257 C258 1.366 1_565 S
C257 C259 1.388 . S
C258 C257 1.366 1_545 S
C258 C262 1.385 . S
C259 H234 0.951 . S
C259 C257 1.388 . S
C259 C260 1.366 1_565 S
C260 C259 1.366 1_545 S
C260 C261 1.414 . S
C260 C263 1.499 . S
C261 H235 0.950 . S
C261 C260 1.414 . S
C261 C262 1.374 . S
C262 H236 0.950 . S
C262 C258 1.385 . S
C262 C261 1.374 . S
C263 C260 1.499 . S
C263 C264 1.373 . S
C263 C265 1.389 1_545 S
C264 H237 0.950 . S
C264 C250 1.377 . S
C264 C263 1.373 . S
C265 C249 1.377 . S
C265 C263 1.389 1_565 S
C265 C266 1.524 . S
C266 C265 1.524 . S
C266 C267 1.397 . S
C266 C271 1.363 . S
C267 H238 0.950 1_565 S
C267 C266 1.397 . S
C267 C268 1.334 . S
C268 H239 0.950 . S
C268 C267 1.334 . S
C268 C269 1.287 . S
C269 C268 1.287 . S
C269 C270 1.524 . S
C269 H272 0.999 . S
C270 H240 0.950 . S
C270 C269 1.524 . S
C270 C271 1.415 . S
C271 H241 0.950 . S
C271 C266 1.363 . S
C271 C270 1.415 . S
H272 C269 0.999 . S
H273 C254 0.913 . S
H274 C292 0.951 1_655 S
H275 C294 0.951 1_655 S
H276 C296 0.950 . S
H277 C297 0.950 . S
H278 C299 0.950 . S
H279 C302 0.950 . S
H280 C303 0.950 . S
H281 C305 0.950 1_655 S
H282 C306 0.950 1_655 S
H283 C307 0.951 . S
H284 C309 0.951 . S
H285 C311 0.950 . S
H286 C312 0.950 . S
H287 C314 0.950 . S
H288 C317 0.950 . S
H289 C318 0.950 . S
H290 C320 0.950 . S
H291 C321 0.950 . S
C292 H274 0.951 1_455 S
C292 C293 1.366 . S
C292 C294 1.388 . S
C293 C292 1.366 . S
C293 C297 1.385 . S
C294 H275 0.951 1_455 S
C294 C292 1.388 . S
C294 C295 1.366 . S
C295 C294 1.366 . S
C295 C296 1.414 . S
C295 C298 1.499 . S
C296 H276 0.950 . S
C296 C295 1.414 . S
C296 C297 1.374 . S
C297 H277 0.950 . S
C297 C293 1.385 . S
C297 C296 1.374 . S
C298 C295 1.499 . S
C298 C299 1.373 . S
C298 C300 1.389 . S
C299 H278 0.950 . S
C299 C298 1.373 . S
C299 C315 1.377 . S
C300 C298 1.389 . S
C300 C301 1.524 . S
C300 C314 1.377 . S
C301 C300 1.524 . S
C301 C302 1.397 . S
C301 C306 1.363 . S
C302 H279 0.950 . S
C302 C301 1.397 . S
C302 C303 1.334 . S
C303 H280 0.950 . S
C303 C302 1.334 . S
C303 C304 1.287 . S
C304 C303 1.287 . S
C304 C305 1.524 . S
C304 H323 0.913 . S
C305 H281 0.950 1_455 S
C305 C304 1.524 . S
C305 C306 1.415 . S
C306 H282 0.950 1_455 S
C306 C301 1.363 . S
C306 C305 1.415 . S
C307 H283 0.951 . S
C307 C308 1.366 . S
C307 C309 1.388 . S
C308 C307 1.366 . S
C308 C312 1.385 1_455 S
C309 H284 0.951 . S
C309 C307 1.388 . S
C309 C310 1.366 . S
C310 C309 1.366 . S
C310 C311 1.414 1_455 S
C310 C313 1.499 . S
C311 H285 0.950 . S
C311 C310 1.414 1_655 S
C311 C312 1.374 . S
C312 H286 0.950 . S
C312 C308 1.385 1_655 S
C312 C311 1.374 . S
C313 C310 1.499 . S
C313 C314 1.373 . S
C313 C315 1.389 . S
C314 H287 0.950 . S
C314 C300 1.377 . S
C314 C313 1.373 . S
C315 C299 1.377 . S
C315 C313 1.389 . S
C315 C316 1.524 . S
C316 C315 1.524 . S
C316 C317 1.397 1_455 S
C316 C321 1.363 . S
C317 H288 0.950 . S
C317 C316 1.397 1_655 S
C317 C318 1.334 . S
C318 H289 0.950 . S
C318 C317 1.334 . S
C318 C319 1.287 1_655 S
C319 C318 1.287 1_455 S
C319 C320 1.524 . S
C319 H322 0.999 . S
C320 H290 0.950 . S
C320 C319 1.524 . S
C320 C321 1.415 . S
C321 H291 0.950 . S
C321 C316 1.363 . S
C321 C320 1.415 . S
H322 C319 0.999 . S
H323 C304 0.913 . S
H324 C342 0.951 . S
H325 C344 0.951 . S
H326 C346 0.950 . S
H327 C347 0.950 . S
H328 C349 0.950 . S
H329 C352 0.950 . S
H330 C353 0.950 . S
H331 C355 0.950 . S
H332 C356 0.950 . S
H333 C357 0.951 . S
H334 C359 0.951 . S
H335 C361 0.950 . S
H336 C362 0.950 . S
H337 C364 0.950 . S
H338 C367 0.950 . S
H339 C368 0.950 . S
H340 C370 0.950 . S
H341 C371 0.950 . S
C342 H324 0.951 . S
C342 C343 1.366 . S
C342 C344 1.388 . S
C343 C342 1.366 . S
C343 C347 1.385 . S
C344 H325 0.951 . S
C344 C342 1.388 . S
C344 C345 1.366 . S
C345 C344 1.366 . S
C345 C346 1.414 . S
C345 C348 1.499 . S
C346 H326 0.950 . S
C346 C345 1.414 . S
C346 C347 1.374 . S
C347 H327 0.950 . S
C347 C343 1.385 . S
C347 C346 1.374 . S
C348 C345 1.499 . S
C348 C349 1.373 1_545 S
C348 C350 1.389 . S
C349 H328 0.950 . S
C349 C348 1.373 1_565 S
C349 C365 1.377 . S
C350 C348 1.389 . S
C350 C351 1.524 . S
C350 C364 1.377 . S
C351 C350 1.524 . S
C351 C352 1.397 . S
C351 C356 1.363 . S
C352 H329 0.950 . S
C352 C351 1.397 . S
C352 C353 1.334 . S
C353 H330 0.950 . S
C353 C352 1.334 . S
C353 C354 1.287 . S
C354 C353 1.287 . S
C354 C355 1.524 . S
C354 H373 0.913 . S
C355 H331 0.950 . S
C355 C354 1.524 . S
C355 C356 1.415 . S
C356 H332 0.950 . S
C356 C351 1.363 . S
C356 C355 1.415 . S
C357 H333 0.951 . S
C357 C358 1.366 . S
C357 C359 1.388 . S
C358 C357 1.366 . S
C358 C362 1.385 . S
C359 H334 0.951 . S
C359 C357 1.388 . S
C359 C360 1.366 . S
C360 C359 1.366 . S
C360 C361 1.414 . S
C360 C363 1.499 . S
C361 H335 0.950 . S
C361 C360 1.414 . S
C361 C362 1.374 . S
C362 H336 0.950 . S
C362 C358 1.385 . S
C362 C361 1.374 . S
C363 C360 1.499 . S
C363 C364 1.373 . S
C363 C365 1.389 1_545 S
C364 H337 0.950 . S
C364 C350 1.377 . S
C364 C363 1.373 . S
C365 C349 1.377 . S
C365 C363 1.389 1_565 S
C365 C366 1.524 . S
C366 C365 1.524 . S
C366 C367 1.397 . S
C366 C371 1.363 . S
C367 H338 0.950 . S
C367 C366 1.397 . S
C367 C368 1.334 . S
C368 H339 0.950 . S
C368 C367 1.334 . S
C368 C369 1.287 . S
C369 C368 1.287 . S
C369 C370 1.524 . S
C369 H372 0.999 . S
C370 H340 0.950 . S
C370 C369 1.524 . S
C370 C371 1.415 . S
C371 H341 0.950 . S
C371 C366 1.363 . S
C371 C370 1.415 . S
H372 C369 0.999 . S
H373 C354 0.913 . S
H374 C392 0.951 . S
H375 C394 0.951 . S
H376 C396 0.950 . S
H377 C397 0.952 1_655 S
H378 C399 0.950 . S
H379 C402 0.947 1_655 S
H380 C403 0.950 1_655 S
H381 C405 0.950 . S
H382 C406 0.950 . S
H383 C407 0.951 . S
H384 C409 0.951 . S
H385 C411 0.950 . S
H386 C412 0.950 . S
H387 C414 0.950 . S
H388 C417 0.950 . S
H389 C418 0.950 . S
H390 C420 0.950 . S
H391 C421 0.950 . S
C392 H374 0.951 . S
C392 C393 1.366 . S
C392 C394 1.388 . S
C393 C392 1.366 . S
C393 C397 1.385 . S
C394 H375 0.951 . S
C394 C392 1.388 . S
C394 C395 1.366 . S
C395 C394 1.366 . S
C395 C396 1.414 . S
C395 C398 1.499 . S
C396 H376 0.950 . S
C396 C395 1.414 . S
C396 C397 1.374 . S
C397 H377 0.952 1_455 S
C397 C393 1.385 . S
C397 C396 1.374 . S
C398 C395 1.499 . S
C398 C399 1.373 . S
C398 C400 1.389 . S
C399 H378 0.950 . S
C399 C398 1.373 . S
C399 C415 1.377 . S
C400 C398 1.389 . S
C400 C401 1.524 . S
C400 C414 1.377 . S
C401 C400 1.524 . S
C401 C402 1.397 . S
C401 C406 1.363 . S
C402 H379 0.947 1_455 S
C402 C401 1.397 . S
C402 C403 1.334 . S
C403 H380 0.950 1_455 S
C403 C402 1.334 . S
C403 C404 1.287 . S
C404 C403 1.287 . S
C404 C405 1.524 . S
C404 H423 0.913 . S
C405 H381 0.950 . S
C405 C404 1.524 . S
C405 C406 1.415 . S
C406 H382 0.950 . S
C406 C401 1.363 . S
C406 C405 1.415 . S
C407 H383 0.951 . S
C407 C408 1.366 . S
C407 C409 1.388 . S
C408 C407 1.366 . S
C408 C412 1.385 . S
C409 H384 0.951 . S
C409 C407 1.388 . S
C409 C410 1.366 . S
C410 C409 1.366 . S
C410 C411 1.414 . S
C410 C413 1.499 . S
C411 H385 0.950 . S
C411 C410 1.414 . S
C411 C412 1.374 . S
C412 H386 0.950 . S
C412 C408 1.385 . S
C412 C411 1.374 . S
C413 C410 1.499 . S
C413 C414 1.373 . S
C413 C415 1.389 . S
C414 H387 0.950 . S
C414 C400 1.377 . S
C414 C413 1.373 . S
C415 C399 1.377 . S
C415 C413 1.389 . S
C415 C416 1.524 . S
C416 C415 1.524 . S
C416 C417 1.397 . S
C416 C421 1.363 . S
C417 H388 0.950 . S
C417 C416 1.397 . S
C417 C418 1.334 . S
C418 H389 0.950 . S
C418 C417 1.334 . S
C418 C419 1.287 . S
C419 C418 1.287 . S
C419 C420 1.524 . S
C419 H422 0.999 . S
C420 H390 0.950 . S
C420 C419 1.524 . S
C420 C421 1.415 . S
C421 H391 0.950 . S
C421 C416 1.363 . S
C421 C420 1.415 . S
H422 C419 0.999 . S
H423 C404 0.913 . S
H424 C442 0.951 . S
H425 C444 0.951 . S
H426 C446 0.950 . S
H427 C447 0.950 . S
H428 C449 0.950 . S
H429 C452 0.950 . S
H430 C453 0.950 . S
H431 C455 0.950 . S
H432 C456 0.950 . S
H433 C457 0.951 . S
H434 C459 0.951 . S
H435 C461 0.950 . S
H436 C462 0.950 . S
H437 C464 0.950 . S
H438 C467 0.950 1_545 S
H439 C468 0.950 . S
H440 C470 0.950 . S
H441 C471 0.950 . S
C442 H424 0.951 . S
C442 C443 1.366 . S
C442 C444 1.388 . S
C443 C442 1.366 . S
C443 C447 1.385 1_545 S
C444 H425 0.951 . S
C444 C442 1.388 . S
C444 C445 1.366 . S
C445 C444 1.366 . S
C445 C446 1.414 1_545 S
C445 C448 1.499 . S
C446 H426 0.950 . S
C446 C445 1.414 1_565 S
C446 C447 1.374 . S
C447 H427 0.950 . S
C447 C443 1.385 1_565 S
C447 C446 1.374 . S
C448 C445 1.499 . S
C448 C449 1.373 1_545 S
C448 C450 1.389 . S
C449 H428 0.950 . S
C449 C448 1.373 1_565 S
C449 C465 1.377 . S
C450 C448 1.389 . S
C450 C451 1.524 . S
C450 C464 1.377 . S
C451 C450 1.524 . S
C451 C452 1.397 . S
C451 C456 1.363 . S
C452 H429 0.950 . S
C452 C451 1.397 . S
C452 C453 1.334 . S
C453 H430 0.950 . S
C453 C452 1.334 . S
C453 C454 1.287 . S
C454 C453 1.287 . S
C454 C455 1.524 . S
C454 H473 0.913 . S
C455 H431 0.950 . S
C455 C454 1.524 . S
C455 C456 1.415 . S
C456 H432 0.950 . S
C456 C451 1.363 . S
C456 C455 1.415 . S
C457 H433 0.951 . S
C457 C458 1.366 1_565 S
C457 C459 1.388 . S
C458 C457 1.366 1_545 S
C458 C462 1.385 . S
C459 H434 0.951 . S
C459 C457 1.388 . S
C459 C460 1.366 1_565 S
C460 C459 1.366 1_545 S
C460 C461 1.414 . S
C460 C463 1.499 . S
C461 H435 0.950 . S
C461 C460 1.414 . S
C461 C462 1.374 . S
C462 H436 0.950 . S
C462 C458 1.385 . S
C462 C461 1.374 . S
C463 C460 1.499 . S
C463 C464 1.373 . S
C463 C465 1.389 1_545 S
C464 H437 0.950 . S
C464 C450 1.377 . S
C464 C463 1.373 . S
C465 C449 1.377 . S
C465 C463 1.389 1_565 S
C465 C466 1.524 . S
C466 C465 1.524 . S
C466 C467 1.397 . S
C466 C471 1.363 . S
C467 H438 0.950 1_565 S
C467 C466 1.397 . S
C467 C468 1.334 . S
C468 H439 0.950 . S
C468 C467 1.334 . S
C468 C469 1.287 . S
C469 C468 1.287 . S
C469 C470 1.524 . S
C469 H472 0.999 . S
C470 H440 0.950 . S
C470 C469 1.524 . S
C470 C471 1.415 . S
C471 H441 0.950 . S
C471 C466 1.363 . S
C471 C470 1.415 . S
H472 C469 0.999 . S
H473 C454 0.913 . S
H474 C492 0.951 1_655 S
H475 C494 0.951 1_655 S
H476 C496 0.950 . S
H477 C497 0.950 . S
H478 C499 0.950 . S
H479 C502 0.950 . S
H480 C503 0.950 . S
H481 C505 0.950 . S
H482 C506 0.950 . S
H483 C507 0.951 . S
H484 C509 0.951 . S
H485 C511 0.950 1_655 S
H486 C512 0.950 . S
H487 C514 0.950 . S
H488 C517 0.950 . S
H489 C518 0.950 . S
H490 C520 0.950 . S
H491 C521 0.950 . S
C492 H474 0.951 1_455 S
C492 C493 1.366 . S
C492 C494 1.388 . S
C493 C492 1.366 . S
C493 C497 1.385 . S
C494 H475 0.951 1_455 S
C494 C492 1.388 . S
C494 C495 1.366 . S
C495 C494 1.366 . S
C495 C496 1.414 . S
C495 C498 1.499 . S
C496 H476 0.950 . S
C496 C495 1.414 . S
C496 C497 1.374 . S
C497 H477 0.950 . S
C497 C493 1.385 . S
C497 C496 1.374 . S
C498 C495 1.499 . S
C498 C499 1.373 . S
C498 C500 1.389 . S
C499 H478 0.950 . S
C499 C498 1.373 . S
C499 C515 1.377 . S
C500 C498 1.389 . S
C500 C501 1.524 1_455 S
C500 C514 1.377 . S
C501 C500 1.524 1_655 S
C501 C502 1.397 1_655 S
C501 C506 1.363 . S
C502 H479 0.950 . S
C502 C501 1.397 1_455 S
C502 C503 1.334 1_455 S
C503 H480 0.950 . S
C503 C502 1.334 1_655 S
C503 C504 1.287 . S
C504 C503 1.287 . S
C504 C505 1.524 . S
C504 H523 0.913 . S
C505 H481 0.950 . S
C505 C504 1.524 . S
C505 C506 1.415 . S
C506 H482 0.950 . S
C506 C501 1.363 . S
C506 C505 1.415 . S
C507 H483 0.951 . S
C507 C508 1.366 . S
C507 C509 1.388 . S
C508 C507 1.366 . S
C508 C512 1.385 . S
C509 H484 0.951 . S
C509 C507 1.388 . S
C509 C510 1.366 . S
C510 C509 1.366 . S
C510 C511 1.414 . S
C510 C513 1.499 . S
C511 H485 0.950 1_455 S
C511 C510 1.414 . S
C511 C512 1.374 . S
C512 H486 0.950 . S
C512 C508 1.385 . S
C512 C511 1.374 . S
C513 C510 1.499 . S
C513 C514 1.373 . S
C513 C515 1.389 . S
C514 H487 0.950 . S
C514 C500 1.377 . S
C514 C513 1.373 . S
C515 C499 1.377 . S
C515 C513 1.389 . S
C515 C516 1.524 . S
C516 C515 1.524 . S
C516 C517 1.397 . S
C516 C521 1.363 . S
C517 H488 0.950 . S
C517 C516 1.397 . S
C517 C518 1.334 . S
C518 H489 0.950 . S
C518 C517 1.334 . S
C518 C519 1.287 . S
C519 C518 1.287 . S
C519 C520 1.524 . S
C519 H522 0.999 . S
C520 H490 0.950 . S
C520 C519 1.524 . S
C520 C521 1.415 . S
C521 H491 0.950 . S
C521 C516 1.363 . S
C521 C520 1.415 . S
H522 C519 0.999 . S
H523 C504 0.913 . S
C158 C101 1.279 . S
C143 C45 1.530 . S
C208 C121 1.498 . S
C193 C78 1.518 . S
C258 C100 1.480 1_655 S
C243 C21 1.525 . S
C308 C122 1.530 . S
C293 C84 1.529 . S
C358 C114 1.480 . S
C343 C36 1.524 . S
C408 C107 1.498 . S
C393 C69 1.522 . S
C458 C115 1.277 . S
C443 C30 1.527 . S
C493 C93 1.525 . S
C508 C108 1.530 . S
