# Generated by pormake.
# Topology llj, (12,3)-cn, num edge types: 1
# Building blocks:
#     Node 0, Type 0, BuildingBlock: QEWDON_clean_sbu_0, # of connection points: 12
#     Node 1, Type 0, BuildingBlock: QEWDON_clean_sbu_0, # of connection points: 12
#     Node 2, Type 1, BuildingBlock: BETDAH_clean_linker_0, # of connection points: 3
#     Node 3, Type 1, BuildingBlock: BETDAH_clean_linker_0, # of connection points: 3
#     Node 4, Type 1, BuildingBlock: BETDAH_clean_linker_0, # of connection points: 3
#     Node 5, Type 1, BuildingBlock: BETDAH_clean_linker_0, # of connection points: 3
#     Node 6, Type 1, BuildingBlock: BETDAH_clean_linker_0, # of connection points: 3
#     Node 7, Type 1, BuildingBlock: BETDAH_clean_linker_0, # of connection points: 3
#     Node 8, Type 1, BuildingBlock: BETDAH_clean_linker_0, # of connection points: 3
#     Node 9, Type 1, BuildingBlock: BETDAH_clean_linker_0, # of connection points: 3
#     Edge 10, Type (0, 1), BuildingBlock: CIFDUS_clean_linker_0, # of connection points: 2
#     Edge 11, Type (0, 1), BuildingBlock: CIFDUS_clean_linker_0, # of connection points: 2
#     Edge 12, Type (0, 1), BuildingBlock: CIFDUS_clean_linker_0, # of connection points: 2
#     Edge 13, Type (0, 1), BuildingBlock: CIFDUS_clean_linker_0, # of connection points: 2
#     Edge 14, Type (0, 1), BuildingBlock: CIFDUS_clean_linker_0, # of connection points: 2
#     Edge 15, Type (0, 1), BuildingBlock: CIFDUS_clean_linker_0, # of connection points: 2
#     Edge 16, Type (0, 1), BuildingBlock: CIFDUS_clean_linker_0, # of connection points: 2
#     Edge 17, Type (0, 1), BuildingBlock: CIFDUS_clean_linker_0, # of connection points: 2
#     Edge 18, Type (0, 1), BuildingBlock: CIFDUS_clean_linker_0, # of connection points: 2
#     Edge 19, Type (0, 1), BuildingBlock: CIFDUS_clean_linker_0, # of connection points: 2
#     Edge 20, Type (0, 1), BuildingBlock: CIFDUS_clean_linker_0, # of connection points: 2
#     Edge 21, Type (0, 1), BuildingBlock: CIFDUS_clean_linker_0, # of connection points: 2
#     Edge 22, Type (0, 1), BuildingBlock: CIFDUS_clean_linker_0, # of connection points: 2
#     Edge 23, Type (0, 1), BuildingBlock: CIFDUS_clean_linker_0, # of connection points: 2
#     Edge 24, Type (0, 1), BuildingBlock: CIFDUS_clean_linker_0, # of connection points: 2
#     Edge 25, Type (0, 1), BuildingBlock: CIFDUS_clean_linker_0, # of connection points: 2
#     Edge 26, Type (0, 1), BuildingBlock: CIFDUS_clean_linker_0, # of connection points: 2
#     Edge 27, Type (0, 1), BuildingBlock: CIFDUS_clean_linker_0, # of connection points: 2
#     Edge 28, Type (0, 1), BuildingBlock: CIFDUS_clean_linker_0, # of connection points: 2
#     Edge 29, Type (0, 1), BuildingBlock: CIFDUS_clean_linker_0, # of connection points: 2
#     Edge 30, Type (0, 1), BuildingBlock: CIFDUS_clean_linker_0, # of connection points: 2
#     Edge 31, Type (0, 1), BuildingBlock: CIFDUS_clean_linker_0, # of connection points: 2
#     Edge 32, Type (0, 1), BuildingBlock: CIFDUS_clean_linker_0, # of connection points: 2
#     Edge 33, Type (0, 1), BuildingBlock: CIFDUS_clean_linker_0, # of connection points: 2
# Relax obj value: 0.009
# Max RMSD: 0.096
# Mean RMSD: 0.082
data_MOF--net-llj--node1-QEWDON_clean_sbu_0--node2-BETDAH_clean_linker_0--edge1-CIFDUS_clean_linker_0
_symmetry_space_group_name_H-M    P1
_symmetry_Int_Tables_number       1
_symmetry_cell_setting            triclinic
loop_
_symmetry_equiv_pos_as_xyz
'x, y, z'
_cell_length_a     35.130539
_cell_length_b     35.12679
_cell_length_c     21.655546
_cell_angle_alpha  91.469567
_cell_angle_beta   90.370793
_cell_angle_gamma 90.227438
loop_
_atom_site_label
_atom_site_type_symbol
_atom_site_fract_x
_atom_site_fract_y
_atom_site_fract_z
_atom_type_partial_charge
Zn0 Zn 0.95461 0.15936 0.95673 0.0
Zn1 Zn 0.9372 0.10209 0.06082 0.0
O2 O 0.96795 0.10615 0.98428 0.0
H3 H 0.97776 0.08541 0.95896 0.0
C4 C 0.88222 0.01612 0.80889 0.0
O5 O 0.86444 0.0303 0.85743 0.0
Zn6 Zn 0.04512 0.92004 0.0209 0.0
Zn7 Zn 0.03924 0.90456 0.87285 0.0
O8 O 0.01661 0.93414 0.94454 0.0
H9 H 0.99696 0.95313 0.94102 0.0
Zn10 Zn 0.90199 0.96192 0.90076 0.0
O11 O 0.92128 0.99684 0.96983 0.0
Zn12 Zn 0.91771 0.96315 0.04217 0.0
H13 H 0.94032 0.01629 0.96376 0.0
Zn14 Zn 0.06677 0.0405 0.91021 0.0
O15 O 0.03857 0.02502 0.98591 0.0
H16 H 0.01323 0.01427 0.98564 0.0
Zn17 Zn 0.06043 0.05544 0.05655 0.0
C18 C 0.09651 0.97704 0.83284 0.0
O19 O 0.12124 0.97476 0.87836 0.0
O20 O 0.90059 0.17692 0.98184 0.0
O21 O 0.88971 0.13498 0.0549 0.0
O22 O 0.08523 0.87188 0.89724 0.0
O23 O 0.08931 0.8844 -0.00144 0.0
O24 O 0.86446 0.92023 0.92802 0.0
O25 O 0.87556 0.92357 0.02944 0.0
C26 C 0.00404 0.10542 0.13381 0.0
O27 O 0.1074 0.08199 0.92653 0.0
O28 O 0.1037 0.09107 0.02858 0.0
O29 O 0.00344 0.88699 0.80064 0.0
C30 C 0.87895 0.16294 0.02258 0.0
O31 O 0.97749 0.1773 0.87448 0.0
C32 C 0.97548 0.90813 0.08126 0.0
O33 O 0.90006 0.98494 0.81377 0.0
C34 C 0.1014 0.86748 0.94949 0.0
O35 O 0.07087 0.00246 0.83558 0.0
C36 C 0.9157 0.03057 0.12082 0.0
O37 O 0.97022 0.11814 0.13317 0.0
O38 O 0.01476 0.08505 0.08774 0.0
C39 C 0.85784 0.90914 0.98258 0.0
O40 O 0.00848 0.89375 0.07773 0.0
O41 O 0.96758 0.93629 0.04804 0.0
C42 C 0.0769 0.98279 0.11214 0.0
O43 O 0.91069 0.99472 0.12042 0.0
O44 O 0.92267 0.04691 0.0704 0.0
C45 C 0.1186 0.09865 0.97649 0.0
O46 O 0.07979 0.01874 0.12032 0.0
O47 O 0.0621 0.97019 0.0617 0.0
C48 C 0.96751 0.8898 0.80592 0.0
O49 O 0.95333 0.90356 0.85781 0.0
C50 C 0.01311 0.17533 0.86493 0.0
O51 O 0.03545 0.16242 0.9085 0.0
Zn52 Zn 0.45788 0.58033 0.4986 0.0
Zn53 Zn 0.45539 0.59861 0.63437 0.0
O54 O 0.49335 0.60034 0.56607 0.0
H55 H 0.51289 0.61939 0.56075 0.0
C56 C 0.42309 0.51103 0.38047 0.0
O57 O 0.40555 0.52162 0.43143 0.0
Zn58 Zn 0.57444 0.42684 0.5975 0.0
Zn59 Zn 0.55773 0.38271 0.47532 0.0
O60 O 0.54587 0.43372 0.51811 0.0
H61 H 0.52623 0.45192 0.5088 0.0
Zn62 Zn 0.45308 0.45823 0.46656 0.0
O63 O 0.45298 0.49496 0.54029 0.0
Zn64 Zn 0.4428 0.45824 0.60665 0.0
H65 H 0.44279 0.52032 0.53782 0.0
Zn66 Zn 0.6034 0.52001 0.53338 0.0
O67 O 0.55357 0.53483 0.57215 0.0
H68 H 0.52997 0.52061 0.57083 0.0
Zn69 Zn 0.57597 0.5643 0.6431 0.0
C70 C 0.62542 0.45984 0.44663 0.0
O71 O 0.65295 0.45631 0.48741 0.0
O72 O 0.40423 0.60261 0.50917 0.0
O73 O 0.40674 0.62549 0.60597 0.0
O74 O 0.61141 0.36284 0.49521 0.0
O75 O 0.62393 0.39785 0.57982 0.0
O76 O 0.41881 0.41151 0.47981 0.0
O77 O 0.40108 0.42085 0.57736 0.0
C78 C 0.51565 0.61458 0.71688 0.0
O79 O 0.64227 0.56375 0.53654 0.0
O80 O 0.61839 0.59984 0.61265 0.0
O81 O 0.53524 0.36831 0.38879 0.0
C82 C 0.38951 0.62154 0.55393 0.0
O83 O 0.47959 0.57902 0.40995 0.0
C84 C 0.50553 0.40655 0.65756 0.0
O85 O 0.44633 0.48345 0.38195 0.0
C86 C 0.63401 0.37323 0.53875 0.0
O87 O 0.60062 0.48553 0.45523 0.0
C88 C 0.43221 0.52325 0.69204 0.0
O89 O 0.48063 0.62294 0.71053 0.0
O90 O 0.5302 0.59259 0.67602 0.0
C91 C 0.39837 0.40263 0.52571 0.0
O92 O 0.54052 0.39786 0.65476 0.0
O93 O 0.49274 0.43087 0.62012 0.0
C94 C 0.59606 0.49058 0.69224 0.0
O95 O 0.4288 0.48723 0.68522 0.0
O96 O 0.44413 0.54246 0.64696 0.0
C97 C 0.64296 0.59415 0.56998 0.0
O98 O 0.5959 0.52628 0.70426 0.0
O99 O 0.58534 0.4789 0.63848 0.0
C100 C 0.50072 0.35843 0.38033 0.0
O101 O 0.47764 0.35821 0.42775 0.0
C102 C 0.51226 0.56525 0.39869 0.0
O103 O 0.53202 0.55062 0.4439 0.0
H104 H 0.4367 0.34355 0.02605 0.0
H105 H 0.35876 0.25544 0.07917 0.0
H106 H 0.3824 0.27206 0.88743 0.0
C107 C 0.4175 0.32037 0.0134 0.0
C108 C 0.41182 0.31063 0.95088 0.0
C109 C 0.39944 0.30012 0.06016 0.0
C110 C 0.37265 0.27155 0.0437 0.0
C111 C 0.36621 0.26195 0.98092 0.0
C112 C 0.38632 0.28102 0.93531 0.0
N113 N 0.34281 0.23085 0.9615 0.0
C114 C 0.30969 0.21883 0.99003 0.0
H115 H 0.59624 0.41638 0.06957 0.0
H116 H 0.61526 0.30555 0.142 0.0
H117 H 0.6426 0.32615 0.95356 0.0
C118 C 0.60571 0.38736 0.06241 0.0
C119 C 0.61895 0.37485 0.00401 0.0
C120 C 0.60564 0.36308 0.11289 0.0
C121 C 0.61601 0.32489 0.10381 0.0
C122 C 0.62895 0.31177 0.04633 0.0
C123 C 0.63129 0.33678 0.99701 0.0
N124 N 0.63921 0.27308 0.0387 0.0
C125 C 0.67626 0.26232 0.02534 0.0
H126 H 0.61328 0.60398 0.04711 0.0
H127 H 0.66915 0.70905 0.00187 0.0
H128 H 0.66162 0.67577 0.19095 0.0
C129 C 0.62976 0.62892 0.06126 0.0
C130 C 0.63733 0.63605 0.12406 0.0
C131 C 0.64151 0.65489 0.0169 0.0
C132 C 0.66142 0.68819 0.03563 0.0
C133 C 0.66907 0.69532 0.0988 0.0
C134 C 0.65701 0.66923 0.14224 0.0
N135 N 0.68485 0.73012 0.12163 0.0
C136 C 0.71243 0.75154 0.09263 0.0
H137 H 0.39539 0.61664 0.04271 0.0
H138 H 0.29673 0.65418 0.94238 0.0
H139 H 0.29194 0.64518 0.13862 0.0
C140 C 0.36638 0.627 0.04237 0.0
C141 C 0.34631 0.63046 0.09815 0.0
C142 C 0.34869 0.63477 0.98561 0.0
C143 C 0.31139 0.64921 0.98559 0.0
C144 C 0.2915 0.65379 0.04115 0.0
C145 C 0.30873 0.64395 0.09681 0.0
N146 N 0.25223 0.66215 0.04058 0.0
C147 C 0.23858 0.69855 0.03129 0.0
H148 H 0.90573 0.86893 0.43514 0.0
H149 H 0.81627 0.80741 0.52436 0.0
H150 H 0.8059 0.83483 0.33211 0.0
C151 C 0.87818 0.85487 0.43315 0.0
C152 C 0.85767 0.85381 0.37746 0.0
C153 C 0.86367 0.83804 0.48622 0.0
C154 C 0.82774 0.82019 0.48343 0.0
C155 C 0.80684 0.81894 0.42759 0.0
C156 C 0.82203 0.83573 0.37497 0.0
N157 N 0.77027 0.80171 0.42257 0.0
C158 C 0.75515 0.7764 0.46436 0.0
H159 H 0.12911 0.91467 0.48536 0.0
H160 H 0.18963 0.81654 0.54845 0.0
H161 H 0.17915 0.8361 0.35412 0.0
C162 C 0.14497 0.88888 0.47537 0.0
C163 C 0.15231 0.87825 0.41362 0.0
C164 C 0.15823 0.8669 0.52444 0.0
C165 C 0.1794 0.83379 0.51111 0.0
C166 C 0.18651 0.82257 0.44941 0.0
C167 C 0.17277 0.8447 0.40133 0.0
N168 N 0.20716 0.78916 0.43342 0.0
C169 C 0.22897 0.76816 0.47395 0.0
H170 H 0.07358 0.16838 0.51228 0.0
H171 H 0.15425 0.2021 0.37558 0.0
H172 H 0.17487 0.23044 0.56695 0.0
C173 C 0.09976 0.18275 0.50024 0.0
C174 C 0.1225 0.19977 0.54711 0.0
C175 C 0.11073 0.18345 0.43813 0.0
C176 C 0.14543 0.2007 0.42334 0.0
C177 C 0.16863 0.21754 0.46917 0.0
C178 C 0.15718 0.21716 0.5313 0.0
N179 N 0.20317 0.23447 0.45014 0.0
C180 C 0.22698 0.25754 0.48645 0.0
H181 H 0.883 0.11276 0.46737 0.0
H182 H 0.86998 0.21534 0.57859 0.0
H183 H 0.88743 0.22263 0.38386 0.0
C184 C 0.88292 0.14355 0.47176 0.0
C185 C 0.88679 0.16532 0.41852 0.0
C186 C 0.87714 0.16106 0.5301 0.0
C187 C 0.87445 0.20099 0.53437 0.0
C188 C 0.87783 0.2229 0.48158 0.0
C189 C 0.88459 0.2052 0.42415 0.0
N190 N 0.87307 0.26279 0.48571 0.0
C191 C 0.83676 0.27798 0.49029 0.0
H192 H 0.16733 0.12324 0.06903 0.0
H193 H 0.14137 0.13667 0.8756 0.0
H194 H 0.1963 0.17831 0.86516 0.0
H195 H 0.2547 0.20674 0.90809 0.0
H196 H 0.28415 0.19134 0.09899 0.0
H197 H 0.22498 0.15492 0.11374 0.0
C198 C 0.17349 0.13568 0.02485 0.0
C199 C 0.15028 0.12662 0.9731 0.0
C200 C 0.20591 0.15909 0.01869 0.0
C201 C 0.1588 0.14287 0.91609 0.0
C202 C 0.19027 0.16672 0.90999 0.0
C203 C 0.24773 0.19588 0.95315 0.0
C204 C 0.27319 0.20169 0.00255 0.0
C205 C 0.2144 0.1744 0.96055 0.0
C206 C 0.26452 0.18729 0.06057 0.0
C207 C 0.23087 0.16637 0.06878 0.0
H208 H 0.8447 0.22009 0.95972 0.0
H209 H 0.82553 0.14062 0.10544 0.0
H210 H 0.76126 0.16491 0.11933 0.0
H211 H 0.7098 0.20802 0.08922 0.0
H212 H 0.72787 0.28689 0.94325 0.0
H213 H 0.79324 0.26352 0.92992 0.0
C214 C 0.82655 0.20814 0.99467 0.0
C215 C 0.84016 0.17862 0.03164 0.0
C216 C 0.78934 0.22203 0.00211 0.0
C217 C 0.81605 0.16346 0.07653 0.0
C218 C 0.77916 0.17726 0.08444 0.0
C219 C 0.72822 0.21997 0.05457 0.0
C220 C 0.71458 0.24886 0.01706 0.0
C221 C 0.76547 0.20637 0.04737 0.0
C222 C 0.7382 0.26446 0.97235 0.0
C223 C 0.77542 0.25114 0.96487 0.0
H224 H 0.84589 0.86924 0.08646 0.0
H225 H 0.80548 0.88052 0.89917 0.0
H226 H 0.75744 0.83133 0.91536 0.0
H227 H 0.72532 0.78619 0.9844 0.0
H228 H 0.76699 0.77479 0.1705 0.0
H229 H 0.81631 0.82262 0.15314 0.0
C230 C 0.82666 0.86094 0.04908 0.0
C231 C 0.82918 0.87877 0.99186 0.0
C232 C 0.79937 0.83244 0.05848 0.0
C233 C 0.80415 0.86735 0.9438 0.0
C234 C 0.77663 0.83921 0.95298 0.0
C235 C 0.74558 0.79403 0.02059 0.0
C236 C 0.74301 0.77722 0.07842 0.0
C237 C 0.77381 0.82168 0.01025 0.0
C238 C 0.76891 0.78746 0.1255 0.0
C239 C 0.79693 0.81485 0.1157 0.0
H240 H 0.13712 0.8435 0.05365 0.0
H241 H 0.13629 0.8284 0.855 0.0
H242 H 0.18181 0.77653 0.86258 0.0
H243 H 0.21717 0.7312 0.9262 0.0
H244 H 0.21691 0.74525 0.12428 0.0
H245 H 0.17678 0.8019 0.11653 0.0
C246 C 0.14725 0.82925 0.0119 0.0
C247 C 0.13282 0.83959 0.95393 0.0
C248 C 0.17312 0.79906 0.01655 0.0
C249 C 0.14652 0.82084 0.90035 0.0
C250 C 0.17257 0.79108 0.90456 0.0
C251 C 0.20878 0.74723 0.96737 0.0
C252 C 0.21972 0.73459 0.02563 0.0
C253 C 0.18533 0.77933 0.96245 0.0
C254 C 0.20873 0.75495 0.079 0.0
C255 C 0.18572 0.78713 0.07455 0.0
H256 H 0.64299 0.66997 0.60402 0.0
H257 H 0.70703 0.58506 0.50163 0.0
H258 H 0.74975 0.634 0.46472 0.0
H259 H 0.76559 0.70151 0.45312 0.0
H260 H 0.70113 0.78727 0.55136 0.0
H261 H 0.66226 0.73772 0.59878 0.0
C262 C 0.66667 0.66214 0.5745 0.0
C263 C 0.67147 0.62385 0.55528 0.0
C264 C 0.691 0.69069 0.55238 0.0
C265 C 0.70231 0.61428 0.51676 0.0
C266 C 0.72685 0.64228 0.49551 0.0
C267 C 0.74347 0.70914 0.48589 0.0
C268 C 0.73612 0.7476 0.49931 0.0
C269 C 0.72095 0.68061 0.51177 0.0
C270 C 0.70726 0.75759 0.54101 0.0
C271 C 0.68499 0.72931 0.56777 0.0
H272 H 0.36262 0.68676 0.60975 0.0
H273 H 0.33514 0.60077 0.47035 0.0
H274 H 0.28012 0.63731 0.43789 0.0
H275 H 0.24382 0.69664 0.44118 0.0
H276 H 0.27237 0.78491 0.57519 0.0
H277 H 0.32268 0.7447 0.61823 0.0
C278 C 0.34408 0.67574 0.5732 0.0
C279 C 0.35308 0.6412 0.54231 0.0
C280 C 0.31289 0.69751 0.55346 0.0
C281 C 0.32901 0.6274 0.49459 0.0
C282 C 0.29755 0.64829 0.47586 0.0
C283 C 0.26068 0.70664 0.4806 0.0
C284 C 0.2547 0.74326 0.50547 0.0
C285 C 0.28985 0.6838 0.50375 0.0
C286 C 0.27665 0.7565 0.55588 0.0
C287 C 0.30541 0.73361 0.58016 0.0
H288 H 0.33313 0.38855 0.59068 0.0
H289 H 0.40319 0.34401 0.44298 0.0
H290 H 0.3575 0.29324 0.42174 0.0
H291 H 0.29565 0.26387 0.43978 0.0
H292 H 0.22292 0.30848 0.58319 0.0
H293 H 0.27151 0.35654 0.61229 0.0
C294 C 0.33847 0.36747 0.55434 0.0
C295 C 0.37134 0.3704 0.51781 0.0
C296 C 0.31154 0.33839 0.5417 0.0
C297 C 0.37787 0.34286 0.47092 0.0
C298 C 0.3518 0.31366 0.45889 0.0
C299 C 0.29083 0.28382 0.47804 0.0
C300 C 0.25632 0.28287 0.50976 0.0
C301 C 0.31829 0.31156 0.49317 0.0
C302 C 0.24971 0.30883 0.55869 0.0
C303 C 0.27735 0.3363 0.57498 0.0
H304 H 0.66698 0.32588 0.45353 0.0
H305 H 0.6892 0.38541 0.62708 0.0
H306 H 0.75418 0.36092 0.62773 0.0
H307 H 0.80527 0.32302 0.57809 0.0
H308 H 0.78286 0.26423 0.40462 0.0
H309 H 0.71735 0.28803 0.4046 0.0
C310 C 0.6859 0.3334 0.49173 0.0
C311 C 0.6731 0.35745 0.54021 0.0
C312 C 0.72328 0.31944 0.49163 0.0
C313 C 0.69822 0.36699 0.5891 0.0
C314 C 0.73544 0.35302 0.58952 0.0
C315 C 0.78585 0.31554 0.54051 0.0
C316 C 0.79836 0.29214 0.49136 0.0
C317 C 0.74833 0.32935 0.54094 0.0
C318 C 0.77343 0.28235 0.44276 0.0
C319 C 0.73611 0.29589 0.44281 0.0
H320 H 0.98352 0.1374 0.2433 0.0
H321 H 0.08114 0.09402 0.14469 0.0
H322 H 0.12234 0.11194 0.2319 0.0
H323 H 0.13093 0.14271 0.3344 0.0
H324 H 0.03325 0.18878 0.43014 0.0
H325 H 0.99168 0.16628 0.34628 0.0
C326 C 0.01381 0.13172 0.24079 0.0
C327 C 0.02922 0.11442 0.18727 0.0
C328 C 0.03731 0.14254 0.29077 0.0
C329 C 0.06846 0.10705 0.18522 0.0
C330 C 0.09208 0.11748 0.23508 0.0
C331 C 0.10058 0.14801 0.3368 0.0
C332 C 0.08535 0.16759 0.3885 0.0
C333 C 0.07686 0.13572 0.28775 0.0
C334 C 0.04579 0.17345 0.39136 0.0
C335 C 0.02198 0.16087 0.34315 0.0
H336 H 0.87731 0.09522 0.14728 0.0
H337 H 0.953 0.01346 0.22643 0.0
H338 H 0.95275 0.04922 0.32506 0.0
H339 H 0.93003 0.10328 0.38879 0.0
H340 H 0.85259 0.1841 0.3097 0.0
H341 H 0.85595 0.15037 0.21016 0.0
C342 C 0.89431 0.08586 0.18581 0.0
C343 C 0.91552 0.05229 0.17974 0.0
C344 C 0.89391 0.10652 0.24211 0.0
C345 C 0.93637 0.0393 0.23045 0.0
C346 C 0.93636 0.05979 0.2866 0.0
C347 C 0.91371 0.1134 0.34987 0.0
C348 C 0.89099 0.14613 0.35693 0.0
C349 C 0.915 0.09332 0.29305 0.0
C350 C 0.87069 0.1593 0.30556 0.0
C351 C 0.87226 0.13979 0.24866 0.0
H352 H 0.95022 0.94533 0.1822 0.0
H353 H 0.94143 0.83843 0.08163 0.0
H354 H 0.89997 0.81312 0.16193 0.0
H355 H 0.8705 0.82024 0.26504 0.0
H356 H 0.88294 0.92646 0.36747 0.0
H357 H 0.91789 0.95378 0.28182 0.0
C358 C 0.93828 0.9169 0.17733 0.0
C359 C 0.94802 0.89389 0.1261 0.0
C360 C 0.91534 0.9025 0.22418 0.0
C361 C 0.9339 0.85655 0.12087 0.0
C362 C 0.91033 0.84215 0.16671 0.0
C363 C 0.88032 0.84955 0.26789 0.0
C364 C 0.87429 0.87138 0.32227 0.0
C365 C 0.90138 0.86467 0.21913 0.0
C366 C 0.88748 0.90918 0.32603 0.0
C367 C 0.9075 0.92474 0.27721 0.0
H368 H 0.10481 0.00392 0.22479 0.0
H369 H 0.07829 0.9043 0.11193 0.0
H370 H 0.09841 0.86335 0.19508 0.0
H371 H 0.12323 0.85588 0.30074 0.0
H372 H 0.15309 0.95605 0.4107 0.0
H373 H 0.13154 0.99661 0.32806 0.0
C374 C 0.10336 0.97324 0.21812 0.0
C375 C 0.08948 0.9573 0.16197 0.0
C376 C 0.11547 0.94989 0.26597 0.0
C377 C 0.08816 0.91748 0.15454 0.0
C378 C 0.09988 0.89397 0.2022 0.0
C379 C 0.1254 0.88657 0.30647 0.0
C380 C 0.13949 0.90275 0.36234 0.0
C381 C 0.11355 0.90989 0.2582 0.0
C382 C 0.14162 0.94267 0.36894 0.0
C383 C 0.12959 0.96597 0.32145 0.0
H384 H 0.15739 0.93412 0.79747 0.0
H385 H 0.04343 0.96456 0.7422 0.0
H386 H 0.05122 0.92945 0.64446 0.0
H387 H 0.09211 0.89493 0.57124 0.0
H388 H 0.20741 0.86767 0.62327 0.0
H389 H 0.19709 0.89588 0.72618 0.0
C390 C 0.13413 0.93274 0.7643 0.0
C391 C 0.10009 0.95241 0.77673 0.0
C392 C 0.13909 0.91315 0.70751 0.0
C393 C 0.07015 0.95017 0.73339 0.0
C394 C 0.07455 0.93006 0.67749 0.0
C395 C 0.11502 0.89515 0.60509 0.0
C396 C 0.15064 0.87968 0.58922 0.0
C397 C 0.10923 0.91233 0.66343 0.0
C398 C 0.17967 0.87926 0.63423 0.0
C399 C 0.17388 0.89568 0.69295 0.0
H400 H 0.08718 0.1728 0.82821 0.0
H401 H 0.97406 0.20059 0.76486 0.0
H402 H 0.9987 0.21341 0.66257 0.0
H403 H 0.05147 0.21367 0.5897 0.0
H404 H 0.16435 0.18367 0.65053 0.0
H405 H 0.14087 0.17571 0.75569 0.0
C406 C 0.06796 0.18185 0.79213 0.0
C407 C 0.02878 0.18542 0.80417 0.0
C408 C 0.08228 0.18892 0.73305 0.0
C409 C 0.0043 0.19743 0.75693 0.0
C410 C 0.01835 0.20478 0.69833 0.0
C411 C 0.07095 0.20533 0.62595 0.0
C412 C 0.10949 0.19883 0.61218 0.0
C413 C 0.05714 0.20008 0.68568 0.0
C414 C 0.13457 0.18898 0.65997 0.0
C415 C 0.1211 0.18414 0.71996 0.0
H416 H 0.84266 0.07974 0.78102 0.0
H417 H 0.92625 0.00133 0.70751 0.0
H418 H 0.93237 0.03954 0.61544 0.0
H419 H 0.9156 0.09621 0.55757 0.0
H420 H 0.82948 0.17275 0.62866 0.0
H421 H 0.82355 0.13469 0.72066 0.0
C422 C 0.8621 0.07088 0.74476 0.0
C423 C 0.88404 0.0378 0.7513 0.0
C424 C 0.86541 0.09289 0.69185 0.0
C425 C 0.90896 0.02665 0.70368 0.0
C426 C 0.9126 0.04855 0.65108 0.0
C427 C 0.8951 0.10436 0.59266 0.0
C428 C 0.87319 0.13753 0.58601 0.0
C429 C 0.89114 0.08185 0.64488 0.0
C430 C 0.84732 0.14787 0.63282 0.0
C431 C 0.84362 0.1259 0.6853 0.0
H432 H 0.98727 0.85605 0.69657 0.0
H433 H 0.89033 0.89897 0.79773 0.0
H434 H 0.84883 0.88378 0.70947 0.0
H435 H 0.84073 0.8617 0.60085 0.0
H436 H 0.93812 0.81954 0.50046 0.0
H437 H 0.97863 0.83064 0.59121 0.0
C438 C 0.95703 0.86191 0.69953 0.0
C439 C 0.94204 0.87886 0.75357 0.0
C440 C 0.93334 0.85318 0.64864 0.0
C441 C 0.90271 0.88605 0.75662 0.0
C442 C 0.87891 0.87736 0.70614 0.0
C443 C 0.87067 0.85433 0.5994 0.0
C444 C 0.8865 0.84003 0.54407 0.0
C445 C 0.89397 0.8613 0.65161 0.0
C446 C 0.92541 0.83091 0.54246 0.0
C447 C 0.94859 0.83729 0.59425 0.0
H448 H 0.58559 0.59192 0.75751 0.0
H449 H 0.49541 0.67174 0.79695 0.0
H450 H 0.52934 0.69483 0.88913 0.0
H451 H 0.58201 0.68881 0.96343 0.0
H452 H 0.66923 0.60527 0.92993 0.0
H453 H 0.63945 0.58713 0.83049 0.0
C454 C 0.5735 0.61446 0.78606 0.0
C455 C 0.53788 0.62982 0.77047 0.0
C456 C 0.59275 0.62696 0.84008 0.0
C457 C 0.52265 0.65918 0.80801 0.0
C458 C 0.54205 0.67247 0.86077 0.0
C459 C 0.59489 0.66736 0.93338 0.0
C460 C 0.62804 0.64889 0.95275 0.0
C461 C 0.57679 0.65617 0.8778 0.0
C462 C 0.64408 0.62028 0.91488 0.0
C463 C 0.62688 0.60975 0.85847 0.0
H464 H 0.40447 0.59484 0.71453 0.0
H465 H 0.43734 0.49167 0.8042 0.0
H466 H 0.41689 0.51836 0.90347 0.0
H467 H 0.38576 0.5687 0.96321 0.0
H468 H 0.35135 0.67202 0.87537 0.0
H469 H 0.37646 0.64764 0.77666 0.0
C470 C 0.40784 0.57861 0.75598 0.0
C471 C 0.42253 0.54145 0.75206 0.0
C472 C 0.39551 0.594 0.813 0.0
C473 C 0.42594 0.5203 0.806 0.0
C474 C 0.41431 0.53554 0.86278 0.0
C475 C 0.38452 0.58638 0.92291 0.0
C476 C 0.36696 0.62227 0.9268 0.0
C477 C 0.39853 0.57207 0.86662 0.0
C478 C 0.36463 0.64424 0.87354 0.0
C479 C 0.379 0.63033 0.81719 0.0
H480 H 0.52762 0.39123 0.77354 0.0
H481 H 0.43184 0.38215 0.64974 0.0
H482 H 0.39314 0.3545 0.73059 0.0
H483 H 0.38763 0.33094 0.83614 0.0
H484 H 0.48638 0.33377 0.95619 0.0
H485 H 0.52295 0.36567 0.8775 0.0
C486 C 0.49822 0.3833 0.76443 0.0
C487 C 0.4819 0.39017 0.70638 0.0
C488 C 0.47688 0.36603 0.8106 0.0
C489 C 0.44405 0.37937 0.69495 0.0
C490 C 0.4223 0.36274 0.74094 0.0
C491 C 0.41722 0.33822 0.845 0.0
C492 C 0.43397 0.33013 0.9024 0.0
C493 C 0.43849 0.35581 0.79894 0.0
C494 C 0.47233 0.34029 0.9131 0.0
C495 C 0.49347 0.35829 0.86789 0.0
H496 H 0.60931 0.50831 0.81366 0.0
H497 H 0.60679 0.41299 0.68495 0.0
H498 H 0.61168 0.36895 0.76889 0.0
H499 H 0.61226 0.35759 0.87973 0.0
H500 H 0.62834 0.45321 0.00747 0.0
H501 H 0.62194 0.49686 0.92319 0.0
C502 C 0.61005 0.47791 0.80368 0.0
C503 C 0.60517 0.46394 0.74254 0.0
C504 C 0.61488 0.45273 0.85247 0.0
C505 C 0.6078 0.42457 0.73108 0.0
C506 C 0.61126 0.39928 0.7794 0.0
C507 C 0.61541 0.38781 0.88968 0.0
C508 C 0.61956 0.40155 0.95111 0.0
C509 C 0.61393 0.41305 0.8405 0.0
C510 C 0.62322 0.44125 0.96164 0.0
C511 C 0.62015 0.46651 0.91314 0.0
H512 H 0.57309 0.46118 0.35364 0.0
H513 H 0.67428 0.40284 0.41357 0.0
H514 H 0.6739 0.36425 0.31836 0.0
H515 H 0.64852 0.35142 0.21441 0.0
H516 H 0.54899 0.41127 0.15213 0.0
H517 H 0.54503 0.44508 0.25214 0.0
C518 C 0.59497 0.43989 0.34605 0.0
C519 C 0.62386 0.43508 0.39049 0.0
C520 C 0.595 0.41829 0.29067 0.0
C521 C 0.65182 0.40722 0.38006 0.0
C522 C 0.65165 0.38515 0.32559 0.0
C523 C 0.62541 0.37118 0.22323 0.0
C524 C 0.59916 0.37895 0.17599 0.0
C525 C 0.62383 0.39097 0.28013 0.0
C526 C 0.56978 0.40516 0.18764 0.0
C527 C 0.56754 0.42448 0.2447 0.0
H528 H 0.58712 0.56 0.36923 0.0
H529 H 0.47654 0.58349 0.29136 0.0
H530 H 0.50584 0.60104 0.19443 0.0
H531 H 0.56317 0.61848 0.13733 0.0
H532 H 0.6738 0.60191 0.21912 0.0
H533 H 0.64445 0.57279 0.30883 0.0
C534 C 0.5694 0.56833 0.33068 0.0
C535 C 0.5297 0.57056 0.33759 0.0
C536 C 0.58659 0.58005 0.27596 0.0
C537 C 0.50715 0.58153 0.28729 0.0
C538 C 0.52391 0.59177 0.23188 0.0
C539 C 0.58079 0.6075 0.17411 0.0
C540 C 0.62046 0.61208 0.17189 0.0
C541 C 0.56364 0.59236 0.22644 0.0
C542 C 0.64314 0.59853 0.22016 0.0
C543 C 0.62637 0.58208 0.27141 0.0
H544 H 0.38779 0.5788 0.36709 0.0
H545 H 0.44084 0.48709 0.26324 0.0
H546 H 0.42392 0.51743 0.16665 0.0
H547 H 0.38987 0.5672 0.11215 0.0
H548 H 0.33905 0.66041 0.21572 0.0
H549 H 0.35903 0.63189 0.31227 0.0
C550 C 0.39571 0.56548 0.32331 0.0
C551 C 0.41502 0.53048 0.32224 0.0
C552 C 0.38612 0.58317 0.26804 0.0
C553 C 0.42572 0.5139 0.26526 0.0
C554 C 0.41604 0.53122 0.21003 0.0
C555 C 0.38395 0.58192 0.15563 0.0
C556 C 0.36269 0.61585 0.15646 0.0
C557 C 0.39575 0.56555 0.21091 0.0
C558 C 0.35476 0.63395 0.21362 0.0
C559 C 0.36629 0.61774 0.26888 0.0
H560 H 0.42752 0.34472 0.34173 0.0
H561 H 0.54388 0.34367 0.27874 0.0
H562 H 0.52264 0.32402 0.17549 0.0
H563 H 0.47141 0.30783 0.10295 0.0
H564 H 0.35469 0.30891 0.16345 0.0
H565 H 0.37577 0.32652 0.26876 0.0
C566 C 0.44823 0.34 0.30557 0.0
C567 C 0.48725 0.34606 0.31799 0.0
C568 C 0.43578 0.32835 0.24613 0.0
C569 C 0.51367 0.33983 0.27037 0.0
C570 C 0.50157 0.32833 0.21134 0.0
C571 C 0.45048 0.31212 0.13908 0.0
C572 C 0.41148 0.30763 0.12528 0.0
C573 C 0.46275 0.32273 0.1987 0.0
C574 C 0.38485 0.31221 0.17295 0.0
C575 C 0.3969 0.32252 0.23295 0.0
loop_
_geom_bond_atom_site_label_1
_geom_bond_atom_site_label_2
_geom_bond_distance
_geom_bond_site_symmetry_2
_ccdc_geom_bond_type
Zn0 O2 1.933 1_556 S
Zn0 O20 1.985 . S
Zn0 O31 1.955 . S
Zn1 O2 1.911 . S
Zn1 O21 1.970 . S
Zn1 O37 1.945 . S
Zn1 O44 1.981 . S
O2 Zn0 1.933 1_554 S
O2 Zn1 1.911 . S
O2 H3 0.841 1_655 S
H3 O2 0.841 1_455 S
C4 O5 1.246 . S
C4 O33 1.276 1_545 S
O5 C4 1.246 . S
Zn6 O8 1.911 . S
Zn6 O23 1.970 . S
Zn6 O40 1.945 . S
Zn6 O47 1.981 . S
Zn7 O8 1.933 1_556 S
Zn7 O22 1.985 . S
Zn7 O29 1.955 . S
O8 Zn6 1.911 . S
O8 Zn7 1.933 1_554 S
O8 H9 0.841 1_455 S
H9 O8 0.841 1_655 S
Zn10 O11 1.933 1_556 S
Zn10 O24 1.985 . S
Zn10 O33 1.955 . S
O11 Zn10 1.933 1_554 S
O11 Zn12 1.911 . S
O11 H13 0.841 1_565 S
Zn12 O11 1.911 . S
Zn12 O25 1.970 . S
Zn12 O41 1.981 . S
Zn12 O43 1.945 . S
H13 O11 0.841 1_545 S
Zn14 O15 1.933 1_556 S
Zn14 O27 1.985 . S
Zn14 O35 1.955 . S
O15 Zn14 1.933 1_554 S
O15 H16 0.841 1_545 S
O15 Zn17 1.911 . S
H16 O15 0.841 1_565 S
Zn17 O15 1.911 . S
Zn17 O28 1.970 . S
Zn17 O38 1.981 . S
Zn17 O46 1.945 . S
C18 O19 1.246 . S
C18 O35 1.276 1_565 S
O19 C18 1.246 . S
O20 Zn0 1.985 . S
O20 C30 1.245 1_556 S
O21 Zn1 1.970 . S
O21 C30 1.263 . S
O22 Zn7 1.985 . S
O22 C34 1.245 1_556 S
O23 Zn6 1.970 . S
O23 C34 1.263 . S
O24 Zn10 1.985 . S
O24 C39 1.245 1_556 S
O25 Zn12 1.970 . S
O25 C39 1.263 . S
C26 O37 1.262 1_455 S
C26 O38 1.245 . S
O27 Zn14 1.985 . S
O27 C45 1.245 1_556 S
O28 Zn17 1.970 . S
O28 C45 1.263 . S
O29 Zn7 1.955 . S
O29 C48 1.276 1_455 S
C30 O20 1.245 1_554 S
C30 O21 1.263 . S
O31 Zn0 1.955 . S
O31 C50 1.276 1_655 S
C32 O40 1.262 1_655 S
C32 O41 1.245 . S
O33 C4 1.276 1_565 S
O33 Zn10 1.955 . S
C34 O22 1.245 1_554 S
C34 O23 1.263 . S
O35 Zn14 1.955 . S
O35 C18 1.276 1_545 S
C36 O43 1.262 1_545 S
C36 O44 1.245 . S
O37 Zn1 1.945 . S
O37 C26 1.262 1_655 S
O38 Zn17 1.981 . S
O38 C26 1.245 . S
C39 O24 1.245 1_554 S
C39 O25 1.263 . S
O40 Zn6 1.945 . S
O40 C32 1.262 1_455 S
O41 Zn12 1.981 . S
O41 C32 1.245 . S
C42 O46 1.262 1_565 S
C42 O47 1.245 . S
O43 Zn12 1.945 . S
O43 C36 1.262 1_565 S
O44 Zn1 1.981 . S
O44 C36 1.245 . S
C45 O27 1.245 1_554 S
C45 O28 1.263 . S
O46 Zn17 1.945 . S
O46 C42 1.262 1_545 S
O47 Zn6 1.981 . S
O47 C42 1.245 . S
C48 O29 1.276 1_655 S
C48 O49 1.246 . S
O49 C48 1.246 . S
C50 O31 1.276 1_455 S
C50 O51 1.246 . S
O51 C50 1.246 . S
Zn52 O54 1.933 . S
Zn52 O72 1.985 . S
Zn52 O83 1.955 . S
Zn53 O54 1.911 . S
Zn53 O73 1.970 . S
Zn53 O89 1.945 . S
Zn53 O96 1.981 . S
O54 Zn52 1.933 . S
O54 Zn53 1.911 . S
O54 H55 0.841 . S
H55 O54 0.841 . S
C56 O57 1.246 . S
C56 O85 1.276 . S
O57 C56 1.246 . S
Zn58 O60 1.911 . S
Zn58 O75 1.970 . S
Zn58 O92 1.945 . S
Zn58 O99 1.981 . S
Zn59 O60 1.933 . S
Zn59 O74 1.985 . S
Zn59 O81 1.955 . S
O60 Zn58 1.911 . S
O60 Zn59 1.933 . S
O60 H61 0.841 . S
H61 O60 0.841 . S
Zn62 O63 1.933 . S
Zn62 O76 1.985 . S
Zn62 O85 1.955 . S
O63 Zn62 1.933 . S
O63 Zn64 1.911 . S
O63 H65 0.841 . S
Zn64 O63 1.911 . S
Zn64 O77 1.970 . S
Zn64 O93 1.981 . S
Zn64 O95 1.945 . S
H65 O63 0.841 . S
Zn66 O67 1.933 . S
Zn66 O79 1.985 . S
Zn66 O87 1.955 . S
O67 Zn66 1.933 . S
O67 H68 0.841 . S
O67 Zn69 1.911 . S
H68 O67 0.841 . S
Zn69 O67 1.911 . S
Zn69 O80 1.970 . S
Zn69 O90 1.981 . S
Zn69 O98 1.945 . S
C70 O71 1.246 . S
C70 O87 1.276 . S
O71 C70 1.246 . S
O72 Zn52 1.985 . S
O72 C82 1.245 . S
O73 Zn53 1.970 . S
O73 C82 1.263 . S
O74 Zn59 1.985 . S
O74 C86 1.245 . S
O75 Zn58 1.970 . S
O75 C86 1.263 . S
O76 Zn62 1.985 . S
O76 C91 1.245 . S
O77 Zn64 1.970 . S
O77 C91 1.263 . S
C78 O89 1.262 . S
C78 O90 1.245 . S
O79 Zn66 1.985 . S
O79 C97 1.245 . S
O80 Zn69 1.970 . S
O80 C97 1.263 . S
O81 Zn59 1.955 . S
O81 C100 1.276 . S
C82 O72 1.245 . S
C82 O73 1.263 . S
O83 Zn52 1.955 . S
O83 C102 1.276 . S
C84 O92 1.262 . S
C84 O93 1.245 . S
O85 C56 1.276 . S
O85 Zn62 1.955 . S
C86 O74 1.245 . S
C86 O75 1.263 . S
O87 Zn66 1.955 . S
O87 C70 1.276 . S
C88 O95 1.262 . S
C88 O96 1.245 . S
O89 Zn53 1.945 . S
O89 C78 1.262 . S
O90 Zn69 1.981 . S
O90 C78 1.245 . S
C91 O76 1.245 . S
C91 O77 1.263 . S
O92 Zn58 1.945 . S
O92 C84 1.262 . S
O93 Zn64 1.981 . S
O93 C84 1.245 . S
C94 O98 1.262 . S
C94 O99 1.245 . S
O95 Zn64 1.945 . S
O95 C88 1.262 . S
O96 Zn53 1.981 . S
O96 C88 1.245 . S
C97 O79 1.245 . S
C97 O80 1.263 . S
O98 Zn69 1.945 . S
O98 C94 1.262 . S
O99 Zn58 1.981 . S
O99 C94 1.245 . S
C100 O81 1.276 . S
C100 O101 1.246 . S
O101 C100 1.246 . S
C102 O83 1.276 . S
C102 O103 1.246 . S
O103 C102 1.246 . S
H104 C107 0.929 . S
H105 C110 0.929 . S
H106 C112 0.930 . S
C107 H104 0.929 . S
C107 C108 1.398 1_554 S
C107 C109 1.396 . S
C108 C107 1.398 1_556 S
C108 C112 1.407 . S
C109 C107 1.396 . S
C109 C110 1.394 . S
C110 H105 0.929 . S
C110 C109 1.394 . S
C110 C111 1.382 1_554 S
C111 C110 1.382 1_556 S
C111 C112 1.392 . S
C111 N113 1.420 . S
C112 H106 0.930 . S
C112 C108 1.407 . S
C112 C111 1.392 . S
N113 C111 1.420 . S
N113 C114 1.244 1_556 S
C114 N113 1.244 1_554 S
H115 C118 0.929 . S
H116 C121 0.929 . S
H117 C123 0.930 . S
C118 H115 0.929 . S
C118 C119 1.398 1_554 S
C118 C120 1.396 . S
C119 C118 1.398 1_556 S
C119 C123 1.407 . S
C120 C118 1.396 . S
C120 C121 1.394 . S
C121 H116 0.929 . S
C121 C120 1.394 . S
C121 C122 1.382 . S
C122 C121 1.382 . S
C122 C123 1.392 1_554 S
C122 N124 1.420 1_554 S
C123 H117 0.930 . S
C123 C119 1.407 . S
C123 C122 1.392 1_556 S
N124 C122 1.420 1_556 S
N124 C125 1.244 1_556 S
C125 N124 1.244 1_554 S
H126 C129 0.929 . S
H127 C132 0.929 . S
H128 C134 0.930 . S
C129 H126 0.929 . S
C129 C130 1.398 . S
C129 C131 1.396 1_554 S
C130 C129 1.398 . S
C130 C134 1.407 . S
C131 C129 1.396 1_556 S
C131 C132 1.394 . S
C132 H127 0.929 . S
C132 C131 1.394 . S
C132 C133 1.382 1_556 S
C133 C132 1.382 1_554 S
C133 C134 1.392 . S
C133 N135 1.420 . S
C134 H128 0.930 . S
C134 C130 1.407 . S
C134 C133 1.392 . S
N135 C133 1.420 . S
N135 C136 1.254 . S
C136 N135 1.254 . S
H137 C140 0.929 . S
H138 C143 0.929 . S
H139 C145 0.930 . S
C140 H137 0.929 . S
C140 C141 1.398 . S
C140 C142 1.396 1_554 S
C141 C140 1.398 . S
C141 C145 1.407 . S
C142 C140 1.396 1_556 S
C142 C143 1.394 . S
C143 H138 0.929 . S
C143 C142 1.394 . S
C143 C144 1.382 1_556 S
C144 C143 1.382 1_554 S
C144 C145 1.392 . S
C144 N146 1.420 . S
C145 H139 0.930 . S
C145 C141 1.407 . S
C145 C144 1.392 . S
N146 C144 1.420 . S
N146 C147 1.244 1_554 S
C147 N146 1.244 1_556 S
H148 C151 0.929 . S
H149 C154 0.929 . S
H150 C156 0.930 . S
C151 H148 0.929 . S
C151 C152 1.398 . S
C151 C153 1.396 . S
C152 C151 1.398 . S
C152 C156 1.407 . S
C153 C151 1.396 . S
C153 C154 1.394 . S
C154 H149 0.929 . S
C154 C153 1.394 . S
C154 C155 1.382 . S
C155 C154 1.382 . S
C155 C156 1.392 . S
C155 N157 1.420 . S
C156 H150 0.930 . S
C156 C152 1.407 . S
C156 C155 1.392 . S
N157 C155 1.420 . S
N157 C158 1.244 . S
C158 N157 1.244 . S
H159 C162 0.929 . S
H160 C165 0.929 . S
H161 C167 0.930 . S
C162 H159 0.929 . S
C162 C163 1.398 . S
C162 C164 1.396 . S
C163 C162 1.398 . S
C163 C167 1.407 . S
C164 C162 1.396 . S
C164 C165 1.394 . S
C165 H160 0.929 . S
C165 C164 1.394 . S
C165 C166 1.382 . S
C166 C165 1.382 . S
C166 C167 1.392 . S
C166 N168 1.420 . S
C167 H161 0.930 . S
C167 C163 1.407 . S
C167 C166 1.392 . S
N168 C166 1.420 . S
N168 C169 1.244 . S
C169 N168 1.244 . S
H170 C173 0.929 . S
H171 C176 0.929 . S
H172 C178 0.930 . S
C173 H170 0.929 . S
C173 C174 1.398 . S
C173 C175 1.396 . S
C174 C173 1.398 . S
C174 C178 1.407 . S
C175 C173 1.396 . S
C175 C176 1.394 . S
C176 H171 0.929 . S
C176 C175 1.394 . S
C176 C177 1.382 . S
C177 C176 1.382 . S
C177 C178 1.392 . S
C177 N179 1.420 . S
C178 H172 0.930 . S
C178 C174 1.407 . S
C178 C177 1.392 . S
N179 C177 1.420 . S
N179 C180 1.244 . S
C180 N179 1.244 . S
H181 C184 0.929 . S
H182 C187 0.929 . S
H183 C189 0.930 . S
C184 H181 0.929 . S
C184 C185 1.398 . S
C184 C186 1.396 . S
C185 C184 1.398 . S
C185 C189 1.407 . S
C186 C184 1.396 . S
C186 C187 1.394 . S
C187 H182 0.929 . S
C187 C186 1.394 . S
C187 C188 1.382 . S
C188 C187 1.382 . S
C188 C189 1.392 . S
C188 N190 1.420 . S
C189 H183 0.930 . S
C189 C185 1.407 . S
C189 C188 1.392 . S
N190 C188 1.420 . S
N190 C191 1.244 . S
C191 N190 1.244 . S
H192 C198 0.930 . S
H193 C201 0.930 . S
H194 C202 0.930 . S
H195 C203 0.930 . S
H196 C206 0.930 . S
H197 C207 0.930 . S
C198 H192 0.930 . S
C198 C199 1.355 . S
C198 C200 1.415 . S
C199 C198 1.355 . S
C199 C201 1.419 1_554 S
C200 C198 1.415 . S
C200 C205 1.424 1_554 S
C200 C207 1.409 . S
C201 H193 0.930 . S
C201 C199 1.419 1_556 S
C201 C202 1.362 . S
C202 H194 0.930 . S
C202 C201 1.362 . S
C202 C205 1.410 . S
C203 H195 0.930 . S
C203 C204 1.355 1_556 S
C203 C205 1.415 . S
C204 C203 1.355 1_554 S
C204 C206 1.419 . S
C205 C200 1.424 1_556 S
C205 C202 1.410 . S
C205 C203 1.415 . S
C206 H196 0.930 . S
C206 C204 1.419 . S
C206 C207 1.362 . S
C207 H197 0.930 . S
C207 C200 1.409 . S
C207 C206 1.362 . S
H208 C214 0.930 . S
H209 C217 0.930 . S
H210 C218 0.930 . S
H211 C219 0.930 . S
H212 C222 0.930 . S
H213 C223 0.930 . S
C214 H208 0.930 . S
C214 C215 1.355 1_556 S
C214 C216 1.415 . S
C215 C214 1.355 1_554 S
C215 C217 1.419 . S
C216 C214 1.415 . S
C216 C221 1.425 1_556 S
C216 C223 1.409 . S
C217 H209 0.930 . S
C217 C215 1.419 . S
C217 C218 1.362 . S
C218 H210 0.930 . S
C218 C217 1.362 . S
C218 C221 1.409 . S
C219 H211 0.930 . S
C219 C220 1.355 . S
C219 C221 1.415 . S
C220 C219 1.355 . S
C220 C222 1.419 1_554 S
C221 C216 1.425 1_554 S
C221 C218 1.409 . S
C221 C219 1.415 . S
C222 H212 0.930 . S
C222 C220 1.419 1_556 S
C222 C223 1.362 . S
C223 H213 0.930 . S
C223 C216 1.409 . S
C223 C222 1.362 . S
H224 C230 0.930 . S
H225 C233 0.930 . S
H226 C234 0.930 . S
H227 C235 0.930 . S
H228 C238 0.930 . S
H229 C239 0.930 . S
C230 H224 0.930 . S
C230 C231 1.355 . S
C230 C232 1.415 . S
C231 C230 1.355 . S
C231 C233 1.419 1_554 S
C232 C230 1.415 . S
C232 C237 1.425 1_554 S
C232 C239 1.409 . S
C233 H225 0.930 . S
C233 C231 1.419 1_556 S
C233 C234 1.362 . S
C234 H226 0.930 . S
C234 C233 1.362 . S
C234 C237 1.409 . S
C235 H227 0.930 . S
C235 C236 1.355 1_556 S
C235 C237 1.415 . S
C236 C235 1.355 1_554 S
C236 C238 1.419 . S
C237 C232 1.425 1_556 S
C237 C234 1.409 . S
C237 C235 1.415 . S
C238 H228 0.930 . S
C238 C236 1.419 . S
C238 C239 1.362 . S
C239 H229 0.930 . S
C239 C232 1.409 . S
C239 C238 1.362 . S
H240 C246 0.930 . S
H241 C249 0.930 . S
H242 C250 0.930 . S
H243 C251 0.930 . S
H244 C254 0.930 . S
H245 C255 0.930 . S
C246 H240 0.930 . S
C246 C247 1.342 1_554 S
C246 C248 1.415 . S
C247 C246 1.342 1_556 S
C247 C249 1.436 . S
C248 C246 1.415 . S
C248 C253 1.425 1_554 S
C248 C255 1.409 . S
C249 H241 0.930 . S
C249 C247 1.436 . S
C249 C250 1.362 . S
C250 H242 0.930 . S
C250 C249 1.362 . S
C250 C253 1.409 . S
C251 H243 0.930 . S
C251 C252 1.355 1_556 S
C251 C253 1.415 . S
C252 C251 1.355 1_554 S
C252 C254 1.419 . S
C253 C248 1.425 1_556 S
C253 C250 1.409 . S
C253 C251 1.415 . S
C254 H244 0.930 . S
C254 C252 1.419 . S
C254 C255 1.362 . S
C255 H245 0.930 . S
C255 C248 1.409 . S
C255 C254 1.362 . S
H256 C262 0.930 . S
H257 C265 0.930 . S
H258 C266 0.930 . S
H259 C267 0.930 . S
H260 C270 0.930 . S
H261 C271 0.930 . S
C262 H256 0.930 . S
C262 C263 1.355 . S
C262 C264 1.415 . S
C263 C262 1.355 . S
C263 C265 1.419 . S
C264 C262 1.415 . S
C264 C269 1.425 . S
C264 C271 1.409 . S
C265 H257 0.930 . S
C265 C263 1.419 . S
C265 C266 1.362 . S
C266 H258 0.930 . S
C266 C265 1.362 . S
C266 C269 1.409 . S
C267 H259 0.930 . S
C267 C268 1.355 . S
C267 C269 1.415 . S
C268 C267 1.355 . S
C268 C270 1.419 . S
C269 C264 1.425 . S
C269 C266 1.409 . S
C269 C267 1.415 . S
C270 H260 0.930 . S
C270 C268 1.419 . S
C270 C271 1.362 . S
C271 H261 0.930 . S
C271 C264 1.409 . S
C271 C270 1.362 . S
H272 C278 0.930 . S
H273 C281 0.930 . S
H274 C282 0.930 . S
H275 C283 0.930 . S
H276 C286 0.930 . S
H277 C287 0.930 . S
C278 H272 0.930 . S
C278 C279 1.355 . S
C278 C280 1.415 . S
C279 C278 1.355 . S
C279 C281 1.419 . S
C280 C278 1.415 . S
C280 C285 1.425 . S
C280 C287 1.409 . S
C281 H273 0.930 . S
C281 C279 1.419 . S
C281 C282 1.362 . S
C282 H274 0.930 . S
C282 C281 1.362 . S
C282 C285 1.409 . S
C283 H275 0.930 . S
C283 C284 1.355 . S
C283 C285 1.415 . S
C284 C283 1.355 . S
C284 C286 1.419 . S
C285 C280 1.425 . S
C285 C282 1.409 . S
C285 C283 1.415 . S
C286 H276 0.930 . S
C286 C284 1.419 . S
C286 C287 1.362 . S
C287 H277 0.930 . S
C287 C280 1.409 . S
C287 C286 1.362 . S
H288 C294 0.930 . S
H289 C297 0.930 . S
H290 C298 0.930 . S
H291 C299 0.930 . S
H292 C302 0.930 . S
H293 C303 0.930 . S
C294 H288 0.930 . S
C294 C295 1.355 . S
C294 C296 1.415 . S
C295 C294 1.355 . S
C295 C297 1.419 . S
C296 C294 1.415 . S
C296 C301 1.425 . S
C296 C303 1.409 . S
C297 H289 0.930 . S
C297 C295 1.419 . S
C297 C298 1.362 . S
C298 H290 0.930 . S
C298 C297 1.362 . S
C298 C301 1.409 . S
C299 H291 0.930 . S
C299 C300 1.355 . S
C299 C301 1.415 . S
C300 C299 1.355 . S
C300 C302 1.419 . S
C301 C296 1.425 . S
C301 C298 1.409 . S
C301 C299 1.415 . S
C302 H292 0.930 . S
C302 C300 1.419 . S
C302 C303 1.362 . S
C303 H293 0.930 . S
C303 C296 1.409 . S
C303 C302 1.362 . S
H304 C310 0.930 . S
H305 C313 0.930 . S
H306 C314 0.930 . S
H307 C315 0.930 . S
H308 C318 0.930 . S
H309 C319 0.930 . S
C310 H304 0.930 . S
C310 C311 1.355 . S
C310 C312 1.415 . S
C311 C310 1.355 . S
C311 C313 1.419 . S
C312 C310 1.415 . S
C312 C317 1.425 . S
C312 C319 1.409 . S
C313 H305 0.930 . S
C313 C311 1.419 . S
C313 C314 1.362 . S
C314 H306 0.930 . S
C314 C313 1.362 . S
C314 C317 1.409 . S
C315 H307 0.930 . S
C315 C316 1.355 . S
C315 C317 1.415 . S
C316 C315 1.355 . S
C316 C318 1.419 . S
C317 C312 1.425 . S
C317 C314 1.409 . S
C317 C315 1.415 . S
C318 H308 0.930 . S
C318 C316 1.419 . S
C318 C319 1.362 . S
C319 H309 0.930 . S
C319 C312 1.409 . S
C319 C318 1.362 . S
H320 C326 0.930 . S
H321 C329 0.930 . S
H322 C330 0.930 . S
H323 C331 0.930 . S
H324 C334 0.930 . S
H325 C335 0.930 1_655 S
C326 H320 0.930 . S
C326 C327 1.355 . S
C326 C328 1.415 . S
C327 C326 1.355 . S
C327 C329 1.419 . S
C328 C326 1.415 . S
C328 C333 1.425 . S
C328 C335 1.409 . S
C329 H321 0.930 . S
C329 C327 1.419 . S
C329 C330 1.362 . S
C330 H322 0.930 . S
C330 C329 1.362 . S
C330 C333 1.409 . S
C331 H323 0.930 . S
C331 C332 1.355 . S
C331 C333 1.415 . S
C332 C331 1.355 . S
C332 C334 1.419 . S
C333 C328 1.425 . S
C333 C330 1.409 . S
C333 C331 1.415 . S
C334 H324 0.930 . S
C334 C332 1.419 . S
C334 C335 1.362 . S
C335 H325 0.930 1_455 S
C335 C328 1.409 . S
C335 C334 1.362 . S
H336 C342 0.930 . S
H337 C345 0.930 . S
H338 C346 0.930 . S
H339 C347 0.930 . S
H340 C350 0.930 . S
H341 C351 0.930 . S
C342 H336 0.930 . S
C342 C343 1.355 . S
C342 C344 1.415 . S
C343 C342 1.355 . S
C343 C345 1.419 . S
C344 C342 1.415 . S
C344 C349 1.425 . S
C344 C351 1.409 . S
C345 H337 0.930 . S
C345 C343 1.419 . S
C345 C346 1.362 . S
C346 H338 0.930 . S
C346 C345 1.362 . S
C346 C349 1.409 . S
C347 H339 0.930 . S
C347 C348 1.355 . S
C347 C349 1.415 . S
C348 C347 1.355 . S
C348 C350 1.419 . S
C349 C344 1.425 . S
C349 C346 1.409 . S
C349 C347 1.415 . S
C350 H340 0.930 . S
C350 C348 1.419 . S
C350 C351 1.362 . S
C351 H341 0.930 . S
C351 C344 1.409 . S
C351 C350 1.362 . S
H352 C358 0.930 . S
H353 C361 0.930 . S
H354 C362 0.930 . S
H355 C363 0.930 . S
H356 C366 0.930 . S
H357 C367 0.930 . S
C358 H352 0.930 . S
C358 C359 1.355 . S
C358 C360 1.415 . S
C359 C358 1.355 . S
C359 C361 1.419 . S
C360 C358 1.415 . S
C360 C365 1.425 . S
C360 C367 1.409 . S
C361 H353 0.930 . S
C361 C359 1.419 . S
C361 C362 1.362 . S
C362 H354 0.930 . S
C362 C361 1.362 . S
C362 C365 1.409 . S
C363 H355 0.930 . S
C363 C364 1.355 . S
C363 C365 1.415 . S
C364 C363 1.355 . S
C364 C366 1.419 . S
C365 C360 1.425 . S
C365 C362 1.409 . S
C365 C363 1.415 . S
C366 H356 0.930 . S
C366 C364 1.419 . S
C366 C367 1.362 . S
C367 H357 0.930 . S
C367 C360 1.409 . S
C367 C366 1.362 . S
H368 C374 0.930 . S
H369 C377 0.930 . S
H370 C378 0.930 . S
H371 C379 0.930 . S
H372 C382 0.930 . S
H373 C383 0.930 . S
C374 H368 0.930 . S
C374 C375 1.355 . S
C374 C376 1.415 . S
C375 C374 1.355 . S
C375 C377 1.419 . S
C376 C374 1.415 . S
C376 C381 1.425 . S
C376 C383 1.409 . S
C377 H369 0.930 . S
C377 C375 1.419 . S
C377 C378 1.362 . S
C378 H370 0.930 . S
C378 C377 1.362 . S
C378 C381 1.409 . S
C379 H371 0.930 . S
C379 C380 1.355 . S
C379 C381 1.415 . S
C380 C379 1.355 . S
C380 C382 1.419 . S
C381 C376 1.425 . S
C381 C378 1.409 . S
C381 C379 1.415 . S
C382 H372 0.930 . S
C382 C380 1.419 . S
C382 C383 1.362 . S
C383 H373 0.930 . S
C383 C376 1.409 . S
C383 C382 1.362 . S
H384 C390 0.930 . S
H385 C393 0.930 . S
H386 C394 0.930 . S
H387 C395 0.930 . S
H388 C398 0.930 . S
H389 C399 0.930 . S
C390 H384 0.930 . S
C390 C391 1.355 . S
C390 C392 1.415 . S
C391 C390 1.355 . S
C391 C393 1.419 . S
C392 C390 1.415 . S
C392 C397 1.425 . S
C392 C399 1.409 . S
C393 H385 0.930 . S
C393 C391 1.419 . S
C393 C394 1.362 . S
C394 H386 0.930 . S
C394 C393 1.362 . S
C394 C397 1.409 . S
C395 H387 0.930 . S
C395 C396 1.355 . S
C395 C397 1.415 . S
C396 C395 1.355 . S
C396 C398 1.419 . S
C397 C392 1.425 . S
C397 C394 1.409 . S
C397 C395 1.415 . S
C398 H388 0.930 . S
C398 C396 1.419 . S
C398 C399 1.362 . S
C399 H389 0.930 . S
C399 C392 1.409 . S
C399 C398 1.362 . S
H400 C406 0.930 . S
H401 C409 0.930 1_655 S
H402 C410 0.930 1_655 S
H403 C411 0.930 . S
H404 C414 0.930 . S
H405 C415 0.930 . S
C406 H400 0.930 . S
C406 C407 1.355 . S
C406 C408 1.415 . S
C407 C406 1.355 . S
C407 C409 1.419 . S
C408 C406 1.415 . S
C408 C413 1.425 . S
C408 C415 1.409 . S
C409 H401 0.930 1_455 S
C409 C407 1.419 . S
C409 C410 1.362 . S
C410 H402 0.930 1_455 S
C410 C409 1.362 . S
C410 C413 1.409 . S
C411 H403 0.930 . S
C411 C412 1.355 . S
C411 C413 1.415 . S
C412 C411 1.355 . S
C412 C414 1.419 . S
C413 C408 1.425 . S
C413 C410 1.409 . S
C413 C411 1.415 . S
C414 H404 0.930 . S
C414 C412 1.419 . S
C414 C415 1.362 . S
C415 H405 0.930 . S
C415 C408 1.409 . S
C415 C414 1.362 . S
H416 C422 0.930 . S
H417 C425 0.930 . S
H418 C426 0.930 . S
H419 C427 0.930 . S
H420 C430 0.930 . S
H421 C431 0.930 . S
C422 H416 0.930 . S
C422 C423 1.355 . S
C422 C424 1.415 . S
C423 C422 1.355 . S
C423 C425 1.419 . S
C424 C422 1.415 . S
C424 C429 1.425 . S
C424 C431 1.409 . S
C425 H417 0.930 . S
C425 C423 1.419 . S
C425 C426 1.362 . S
C426 H418 0.930 . S
C426 C425 1.362 . S
C426 C429 1.409 . S
C427 H419 0.930 . S
C427 C428 1.355 . S
C427 C429 1.415 . S
C428 C427 1.355 . S
C428 C430 1.419 . S
C429 C424 1.425 . S
C429 C426 1.409 . S
C429 C427 1.415 . S
C430 H420 0.930 . S
C430 C428 1.419 . S
C430 C431 1.362 . S
C431 H421 0.930 . S
C431 C424 1.409 . S
C431 C430 1.362 . S
H432 C438 0.930 . S
H433 C441 0.930 . S
H434 C442 0.930 . S
H435 C443 0.930 . S
H436 C446 0.930 . S
H437 C447 0.930 1_455 S
C438 H432 0.930 . S
C438 C439 1.355 . S
C438 C440 1.415 . S
C439 C438 1.355 . S
C439 C441 1.419 . S
C440 C438 1.415 . S
C440 C445 1.425 . S
C440 C447 1.409 . S
C441 H433 0.930 . S
C441 C439 1.419 . S
C441 C442 1.362 . S
C442 H434 0.930 . S
C442 C441 1.362 . S
C442 C445 1.409 . S
C443 H435 0.930 . S
C443 C444 1.355 . S
C443 C445 1.415 . S
C444 C443 1.355 . S
C444 C446 1.419 . S
C445 C440 1.425 . S
C445 C442 1.409 . S
C445 C443 1.415 . S
C446 H436 0.930 . S
C446 C444 1.419 . S
C446 C447 1.362 . S
C447 H437 0.930 1_655 S
C447 C440 1.409 . S
C447 C446 1.362 . S
H448 C454 0.930 . S
H449 C457 0.930 . S
H450 C458 0.930 . S
H451 C459 0.930 . S
H452 C462 0.930 . S
H453 C463 0.930 . S
C454 H448 0.930 . S
C454 C455 1.355 . S
C454 C456 1.415 . S
C455 C454 1.355 . S
C455 C457 1.419 . S
C456 C454 1.415 . S
C456 C461 1.425 . S
C456 C463 1.409 . S
C457 H449 0.930 . S
C457 C455 1.419 . S
C457 C458 1.362 . S
C458 H450 0.930 . S
C458 C457 1.362 . S
C458 C461 1.409 . S
C459 H451 0.930 . S
C459 C460 1.355 . S
C459 C461 1.415 . S
C460 C459 1.355 . S
C460 C462 1.419 . S
C461 C456 1.425 . S
C461 C458 1.409 . S
C461 C459 1.415 . S
C462 H452 0.930 . S
C462 C460 1.419 . S
C462 C463 1.362 . S
C463 H453 0.930 . S
C463 C456 1.409 . S
C463 C462 1.362 . S
H464 C470 0.930 . S
H465 C473 0.930 . S
H466 C474 0.930 . S
H467 C475 0.930 . S
H468 C478 0.930 . S
H469 C479 0.930 . S
C470 H464 0.930 . S
C470 C471 1.355 . S
C470 C472 1.415 . S
C471 C470 1.355 . S
C471 C473 1.419 . S
C472 C470 1.415 . S
C472 C477 1.425 . S
C472 C479 1.409 . S
C473 H465 0.930 . S
C473 C471 1.419 . S
C473 C474 1.362 . S
C474 H466 0.930 . S
C474 C473 1.362 . S
C474 C477 1.409 . S
C475 H467 0.930 . S
C475 C476 1.355 . S
C475 C477 1.415 . S
C476 C475 1.355 . S
C476 C478 1.419 . S
C477 C472 1.425 . S
C477 C474 1.409 . S
C477 C475 1.415 . S
C478 H468 0.930 . S
C478 C476 1.419 . S
C478 C479 1.362 . S
C479 H469 0.930 . S
C479 C472 1.409 . S
C479 C478 1.362 . S
H480 C486 0.930 . S
H481 C489 0.930 . S
H482 C490 0.930 . S
H483 C491 0.930 . S
H484 C494 0.930 . S
H485 C495 0.930 . S
C486 H480 0.930 . S
C486 C487 1.355 . S
C486 C488 1.415 . S
C487 C486 1.355 . S
C487 C489 1.419 . S
C488 C486 1.415 . S
C488 C493 1.425 . S
C488 C495 1.409 . S
C489 H481 0.930 . S
C489 C487 1.419 . S
C489 C490 1.362 . S
C490 H482 0.930 . S
C490 C489 1.362 . S
C490 C493 1.409 . S
C491 H483 0.930 . S
C491 C492 1.355 . S
C491 C493 1.415 . S
C492 C491 1.355 . S
C492 C494 1.419 . S
C493 C488 1.425 . S
C493 C490 1.409 . S
C493 C491 1.415 . S
C494 H484 0.930 . S
C494 C492 1.419 . S
C494 C495 1.362 . S
C495 H485 0.930 . S
C495 C488 1.409 . S
C495 C494 1.362 . S
H496 C502 0.930 . S
H497 C505 0.930 . S
H498 C506 0.930 . S
H499 C507 0.930 . S
H500 C510 0.930 . S
H501 C511 0.930 . S
C502 H496 0.930 . S
C502 C503 1.355 . S
C502 C504 1.415 . S
C503 C502 1.355 . S
C503 C505 1.419 . S
C504 C502 1.415 . S
C504 C509 1.425 . S
C504 C511 1.409 . S
C505 H497 0.930 . S
C505 C503 1.419 . S
C505 C506 1.362 . S
C506 H498 0.930 . S
C506 C505 1.362 . S
C506 C509 1.409 . S
C507 H499 0.930 . S
C507 C508 1.355 . S
C507 C509 1.415 . S
C508 C507 1.355 . S
C508 C510 1.419 . S
C509 C504 1.425 . S
C509 C506 1.409 . S
C509 C507 1.415 . S
C510 H500 0.930 . S
C510 C508 1.419 . S
C510 C511 1.362 . S
C511 H501 0.930 . S
C511 C504 1.409 . S
C511 C510 1.362 . S
H512 C518 0.930 . S
H513 C521 0.930 . S
H514 C522 0.930 . S
H515 C523 0.930 . S
H516 C526 0.930 . S
H517 C527 0.930 . S
C518 H512 0.930 . S
C518 C519 1.355 . S
C518 C520 1.415 . S
C519 C518 1.355 . S
C519 C521 1.419 . S
C520 C518 1.415 . S
C520 C525 1.425 . S
C520 C527 1.409 . S
C521 H513 0.930 . S
C521 C519 1.419 . S
C521 C522 1.362 . S
C522 H514 0.930 . S
C522 C521 1.362 . S
C522 C525 1.409 . S
C523 H515 0.930 . S
C523 C524 1.355 . S
C523 C525 1.415 . S
C524 C523 1.355 . S
C524 C526 1.419 . S
C525 C520 1.425 . S
C525 C522 1.409 . S
C525 C523 1.415 . S
C526 H516 0.930 . S
C526 C524 1.419 . S
C526 C527 1.362 . S
C527 H517 0.930 . S
C527 C520 1.409 . S
C527 C526 1.362 . S
H528 C534 0.930 . S
H529 C537 0.930 . S
H530 C538 0.930 . S
H531 C539 0.930 . S
H532 C542 0.930 . S
H533 C543 0.930 . S
C534 H528 0.930 . S
C534 C535 1.355 . S
C534 C536 1.415 . S
C535 C534 1.355 . S
C535 C537 1.419 . S
C536 C534 1.415 . S
C536 C541 1.425 . S
C536 C543 1.409 . S
C537 H529 0.930 . S
C537 C535 1.419 . S
C537 C538 1.362 . S
C538 H530 0.930 . S
C538 C537 1.362 . S
C538 C541 1.409 . S
C539 H531 0.930 . S
C539 C540 1.355 . S
C539 C541 1.415 . S
C540 C539 1.355 . S
C540 C542 1.419 . S
C541 C536 1.425 . S
C541 C538 1.409 . S
C541 C539 1.415 . S
C542 H532 0.930 . S
C542 C540 1.419 . S
C542 C543 1.362 . S
C543 H533 0.930 . S
C543 C536 1.409 . S
C543 C542 1.362 . S
H544 C550 0.930 . S
H545 C553 0.930 . S
H546 C554 0.930 . S
H547 C555 0.930 . S
H548 C558 0.930 . S
H549 C559 0.930 . S
C550 H544 0.930 . S
C550 C551 1.355 . S
C550 C552 1.415 . S
C551 C550 1.355 . S
C551 C553 1.419 . S
C552 C550 1.415 . S
C552 C557 1.425 . S
C552 C559 1.409 . S
C553 H545 0.930 . S
C553 C551 1.419 . S
C553 C554 1.362 . S
C554 H546 0.930 . S
C554 C553 1.362 . S
C554 C557 1.409 . S
C555 H547 0.930 . S
C555 C556 1.355 . S
C555 C557 1.415 . S
C556 C555 1.355 . S
C556 C558 1.419 . S
C557 C552 1.425 . S
C557 C554 1.409 . S
C557 C555 1.415 . S
C558 H548 0.930 . S
C558 C556 1.419 . S
C558 C559 1.362 . S
C559 H549 0.930 . S
C559 C552 1.409 . S
C559 C558 1.362 . S
H560 C566 0.930 . S
H561 C569 0.930 . S
H562 C570 0.930 . S
H563 C571 0.930 . S
H564 C574 0.930 . S
H565 C575 0.930 . S
C566 H560 0.930 . S
C566 C567 1.355 . S
C566 C568 1.415 . S
C567 C566 1.355 . S
C567 C569 1.419 . S
C568 C566 1.415 . S
C568 C573 1.425 . S
C568 C575 1.409 . S
C569 H561 0.930 . S
C569 C567 1.419 . S
C569 C570 1.362 . S
C570 H562 0.930 . S
C570 C569 1.362 . S
C570 C573 1.409 . S
C571 H563 0.930 . S
C571 C572 1.355 . S
C571 C573 1.415 . S
C572 C571 1.355 . S
C572 C574 1.419 . S
C573 C568 1.425 . S
C573 C570 1.409 . S
C573 C571 1.415 . S
C574 H564 0.930 . S
C574 C572 1.419 . S
C574 C575 1.362 . S
C575 H565 0.930 . S
C575 C568 1.409 . S
C575 C574 1.362 . S
C199 C45 1.573 . S
C204 C114 1.575 . S
C215 C30 1.553 . S
C220 C125 1.570 . S
C231 C39 1.573 . S
C236 C136 1.574 . S
C252 C147 1.565 1_554 S
C247 C34 1.554 1_556 S
C263 C97 1.542 . S
C268 C158 1.548 . S
C284 C169 1.577 . S
C279 C82 1.567 . S
C300 C180 1.574 . S
C295 C91 1.574 . S
C316 C191 1.564 . S
C311 C86 1.544 . S
C332 C175 1.533 . S
C327 C26 1.506 . S
C348 C185 1.478 . S
C343 C36 1.454 . S
C364 C152 1.524 . S
C359 C32 1.471 . S
C380 C163 1.524 . S
C375 C42 1.501 . S
C391 C18 1.586 . S
C396 C164 1.639 . S
C412 C174 1.587 . S
C407 C50 1.503 . S
C423 C4 1.643 . S
C428 C186 1.685 . S
C439 C48 1.557 . S
C444 C153 1.588 . S
C460 C131 1.509 . S
C455 C78 1.454 . S
C471 C88 1.517 . S
C476 C142 1.561 . S
C492 C108 1.521 . S
C487 C84 1.481 . S
C508 C119 1.502 . S
C503 C94 1.466 . S
C524 C120 1.622 . S
C519 C70 1.582 . S
C540 C130 1.621 . S
C535 C102 1.554 . S
C551 C56 1.520 . S
C556 C141 1.591 . S
C567 C100 1.547 . S
C572 C109 1.605 . S
