# Generated by pormake.
# Topology anh, (6,3)-cn, num edge types: 1
# Building blocks:
#     Node 0, Type 0, BuildingBlock: NUHQIS_clean_sbu_0, # of connection points: 6
#     Node 1, Type 0, BuildingBlock: NUHQIS_clean_sbu_0, # of connection points: 6
#     Node 2, Type 0, BuildingBlock: NUHQIS_clean_sbu_0, # of connection points: 6
#     Node 3, Type 1, BuildingBlock: MIDCAF_clean_linker_0, # of connection points: 3
#     Node 4, Type 1, BuildingBlock: MIDCAF_clean_linker_0, # of connection points: 3
#     Node 5, Type 1, BuildingBlock: MIDCAF_clean_linker_0, # of connection points: 3
#     Node 6, Type 1, BuildingBlock: MIDCAF_clean_linker_0, # of connection points: 3
#     Node 7, Type 1, BuildingBlock: MIDCAF_clean_linker_0, # of connection points: 3
#     Node 8, Type 1, BuildingBlock: MIDCAF_clean_linker_0, # of connection points: 3
#     Edge 9, Type (0, 1), BuildingBlock: EZIPEK_clean_linker_0, # of connection points: 2
#     Edge 10, Type (0, 1), BuildingBlock: EZIPEK_clean_linker_0, # of connection points: 2
#     Edge 11, Type (0, 1), BuildingBlock: EZIPEK_clean_linker_0, # of connection points: 2
#     Edge 12, Type (0, 1), BuildingBlock: EZIPEK_clean_linker_0, # of connection points: 2
#     Edge 13, Type (0, 1), BuildingBlock: EZIPEK_clean_linker_0, # of connection points: 2
#     Edge 14, Type (0, 1), BuildingBlock: EZIPEK_clean_linker_0, # of connection points: 2
#     Edge 15, Type (0, 1), BuildingBlock: EZIPEK_clean_linker_0, # of connection points: 2
#     Edge 16, Type (0, 1), BuildingBlock: EZIPEK_clean_linker_0, # of connection points: 2
#     Edge 17, Type (0, 1), BuildingBlock: EZIPEK_clean_linker_0, # of connection points: 2
#     Edge 18, Type (0, 1), BuildingBlock: EZIPEK_clean_linker_0, # of connection points: 2
#     Edge 19, Type (0, 1), BuildingBlock: EZIPEK_clean_linker_0, # of connection points: 2
#     Edge 20, Type (0, 1), BuildingBlock: EZIPEK_clean_linker_0, # of connection points: 2
#     Edge 21, Type (0, 1), BuildingBlock: EZIPEK_clean_linker_0, # of connection points: 2
#     Edge 22, Type (0, 1), BuildingBlock: EZIPEK_clean_linker_0, # of connection points: 2
#     Edge 23, Type (0, 1), BuildingBlock: EZIPEK_clean_linker_0, # of connection points: 2
#     Edge 24, Type (0, 1), BuildingBlock: EZIPEK_clean_linker_0, # of connection points: 2
#     Edge 25, Type (0, 1), BuildingBlock: EZIPEK_clean_linker_0, # of connection points: 2
#     Edge 26, Type (0, 1), BuildingBlock: EZIPEK_clean_linker_0, # of connection points: 2
# Relax obj value: 0.302
# Max RMSD: 0.198
# Mean RMSD: 0.164
data_MOF--net-anh--node1-NUHQIS_clean_sbu_0--node2-MIDCAF_clean_linker_0--edge1-EZIPEK_clean_linker_0
_symmetry_space_group_name_H-M    P1
_symmetry_Int_Tables_number       1
_symmetry_cell_setting            triclinic
loop_
_symmetry_equiv_pos_as_xyz
'x, y, z'
_cell_length_a     28.123449
_cell_length_b     28.276484
_cell_length_c     52.224786
_cell_angle_alpha  89.838911
_cell_angle_beta   92.731671
_cell_angle_gamma 119.8416
loop_
_atom_site_label
_atom_site_type_symbol
_atom_site_fract_x
_atom_site_fract_y
_atom_site_fract_z
_atom_type_partial_charge
Tb0 Tb 0.19488 0.59474 0.15278 0.0
Eu1 Eu 1.1293 0.66294 0.14611 0.0
C2 C 0.16537 0.63879 0.20197 0.0
C3 C 1.06275 0.5278 0.15399 0.0
C4 C 0.30645 0.56968 0.16995 0.0
C5 C 0.38025 0.6354 0.19887 0.0
C6 C 0.32553 0.61017 0.1895 0.0
C7 C 0.34182 0.55344 0.16047 0.0
C8 C 0.39639 0.57894 0.1696 0.0
C9 C 0.41624 0.62092 0.18837 0.0
C10 C 0.25258 0.54998 0.15692 0.0
O11 O 0.16677 0.58519 0.11235 0.0
O12 O 0.15766 0.66069 0.10702 0.0
O13 O 0.21866 0.73118 0.14926 0.0
O14 O 0.26233 0.681 0.15501 0.0
C15 C 0.16312 0.62101 0.09755 0.0
O16 O 1.06494 0.67304 0.12642 0.0
O17 O 1.11386 0.72776 0.15809 0.0
O18 O 0.13495 0.6532 0.18818 0.0
O19 O 0.19427 0.61937 0.19204 0.0
O20 O 1.1098 0.52793 0.15579 0.0
O21 O 1.06137 0.5733 0.14974 0.0
C22 C 0.26397 0.72852 0.15328 0.0
O23 O 0.21233 0.53906 0.17161 0.0
O24 O 0.25273 0.57853 0.13724 0.0
C25 C 1.0175 0.68761 0.15816 0.0
C26 C 0.91962 0.61517 0.18083 0.0
C27 C 0.91867 0.63065 0.15531 0.0
C28 C 0.96723 0.66689 0.14409 0.0
C29 C 1.01767 0.67655 0.18454 0.0
C30 C 0.9688 0.64083 0.19587 0.0
C31 C 1.06791 0.70714 0.14412 0.0
H32 H 0.39496 0.66752 0.21342 0.0
H33 H 0.29874 0.62371 0.19677 0.0
H34 H 0.32789 0.52282 0.14522 0.0
H35 H 0.42383 0.56732 0.16132 0.0
H36 H 0.88071 0.61163 0.14352 0.0
H37 H 0.96602 0.67457 0.12379 0.0
H38 H 1.05582 0.69179 0.19596 0.0
H39 H 0.96998 0.62998 0.21571 0.0
Tb40 Tb 0.71573 0.15661 0.48771 0.0
Eu41 Eu 0.58193 0.09083 0.4785 0.0
C42 C 0.63948 0.11425 0.53544 0.0
C43 C 0.65317 1.02531 0.48745 0.0
C44 C 0.84377 0.27309 0.50689 0.0
C45 C 0.91084 0.36819 0.50258 0.0
C46 C 0.89425 0.31331 0.49845 0.0
C47 C 0.81266 0.28818 0.52171 0.0
C48 C 0.82901 0.34312 0.52564 0.0
C49 C 0.8768 0.38318 0.51492 0.0
C50 C 0.81732 0.21836 0.49508 0.0
O51 O 0.69985 0.13198 0.44709 0.0
O52 O 0.61444 0.12221 0.43999 0.0
O53 O 0.59971 0.1783 0.48398 0.0
O54 O 0.69413 0.22247 0.4884 0.0
C55 C 0.66002 0.12813 0.43141 0.0
O56 O 0.51054 1.02785 0.45652 0.0
O57 O 0.49918 1.07027 0.48809 0.0
O58 O 0.59465 0.09012 0.52071 0.0
O59 O 0.68846 0.14323 0.52661 0.0
O60 O 0.70017 1.072 0.4888 0.0
O61 O 0.60578 1.02425 0.48368 0.0
C62 C 0.64751 0.22353 0.48743 0.0
O63 O 0.78823 0.17825 0.51001 0.0
O64 O 0.79076 0.21428 0.47331 0.0
C65 C 0.44805 0.97403 0.48649 0.0
C66 C 0.42045 0.87291 0.50783 0.0
C67 C 0.4041 0.87569 0.48232 0.0
C68 C 0.41771 0.92592 0.47172 0.0
C69 C 0.461 0.97065 0.51264 0.0
C70 C 0.44697 0.92027 0.52328 0.0
C71 C 0.47708 1.02638 0.47342 0.0
H72 H 0.94769 0.39885 0.494 0.0
H73 H 0.91834 0.30247 0.48675 0.0
H74 H 0.77325 0.25761 0.5282 0.0
H75 H 0.80206 0.35406 0.53492 0.0
H76 H 0.38294 0.83912 0.47027 0.0
H77 H 0.40795 0.92751 0.45152 0.0
H78 H 0.48495 1.00707 0.52451 0.0
H79 H 0.45913 0.91851 0.5431 0.0
Tb80 Tb 0.68943 0.66461 0.81992 0.0
Eu81 Eu 0.62138 0.53242 0.81595 0.0
C82 C 0.65867 0.59535 0.86889 0.0
C83 C 0.75616 0.59904 0.81971 0.0
C84 C 0.7106 0.79523 0.83742 0.0
C85 C 0.66522 0.84724 0.82778 0.0
C86 C 0.70698 0.83573 0.8234 0.0
C87 C 0.67684 0.77199 0.85824 0.0
C88 C 0.63519 0.78366 0.86264 0.0
C89 C 0.62709 0.81848 0.84625 0.0
C90 C 0.73535 0.76609 0.82567 0.0
O91 O 0.68954 0.64383 0.77946 0.0
O92 O 0.61147 0.56006 0.77685 0.0
O93 O 0.5545 0.55375 0.82225 0.0
O94 O 0.60304 0.6471 0.8185 0.0
C95 C 0.6489 0.60363 0.76594 0.0
O96 O 0.60333 0.45454 0.79889 0.0
O97 O 0.55971 0.45643 0.83179 0.0
O98 O 0.65878 0.55643 0.85574 0.0
O99 O 0.65773 0.636 0.85744 0.0
O100 O 0.75551 0.64414 0.8256 0.0
O101 O 0.71064 0.55403 0.8123 0.0
C102 C 0.55632 0.60119 0.82143 0.0
O103 O 0.74632 0.73557 0.8408 0.0
O104 O 0.70976 0.74033 0.80428 0.0
C105 C 0.59195 0.39444 0.83191 0.0
C106 C 0.64278 0.34019 0.85478 0.0
C107 C 0.60755 0.31792 0.83275 0.0
C108 C 0.58238 0.34498 0.82133 0.0
C109 C 0.62537 0.4156 0.85463 0.0
C110 C 0.65053 0.38843 0.8661 0.0
C111 C 0.57301 0.42719 0.81769 0.0
H112 H 0.65933 0.87444 0.81504 0.0
H113 H 0.73224 0.85379 0.80721 0.0
H114 H 0.67862 0.74049 0.86938 0.0
H115 H 0.60614 0.76156 0.87706 0.0
H116 H 0.60095 0.28035 0.82393 0.0
H117 H 0.55718 0.32838 0.80375 0.0
H118 H 0.63356 0.45403 0.86304 0.0
H119 H 0.6774 0.40588 0.88313 0.0
C120 C 0.51489 0.9329 0.18994 0.0
C121 C 0.48012 0.93307 0.16977 0.0
C122 C 0.49852 0.98232 0.15634 0.0
C123 C 0.54905 1.03028 0.16364 0.0
H124 H 0.75938 0.18959 0.15033 0.0
H125 H 0.84271 0.27266 0.13706 0.0
H126 H 0.85381 0.35145 0.20923 0.0
H127 H 0.7719 0.27108 0.22217 0.0
H128 H 0.74487 0.20721 0.27134 0.0
H129 H 0.74442 0.20792 0.31822 0.0
H130 H 0.60199 1.0472 0.31535 0.0
H131 H 0.60185 1.04574 0.26851 0.0
H132 H 0.58884 0.97797 0.21347 0.0
H133 H 0.50264 0.89614 0.20069 0.0
H134 H 0.47291 0.9842 0.14068 0.0
H135 H 0.56021 1.06775 0.15371 0.0
N136 N 0.6698 0.12646 0.18467 0.0
N137 N 0.71094 0.16932 0.2248 0.0
N138 N 0.63268 1.08325 0.22342 0.0
C139 C 0.71108 0.17082 0.19872 0.0
C140 C 0.67241 0.12629 0.23732 0.0
C141 C 0.63004 1.08201 0.19734 0.0
C142 C 0.75774 0.22229 0.18751 0.0
C143 C 0.77888 0.22491 0.16317 0.0
C144 C 0.8271 0.2727 0.1556 0.0
C145 C 0.85567 0.31953 0.17204 0.0
C146 C 0.83358 0.31689 0.19593 0.0
C147 C 0.78598 0.26997 0.20336 0.0
C148 C 0.67328 0.12646 0.26594 0.0
C149 C 0.71348 0.17181 0.28058 0.0
C150 C 0.7134 0.17236 0.30743 0.0
C151 C 0.67319 0.12763 0.32025 0.0
C152 C 0.63341 1.08209 0.30582 0.0
C153 C 0.63342 1.08147 0.27899 0.0
C154 C 0.58274 1.03041 0.18463 0.0
C155 C 0.56482 0.98026 0.19717 0.0
C156 C 0.68944 0.46834 0.52644 0.0
C157 C 0.65634 0.43671 0.5052 0.0
C158 C 0.62739 0.45783 0.49073 0.0
C159 C 0.63013 0.50787 0.49793 0.0
H160 H 0.69357 0.72603 0.48752 0.0
H161 H 0.69576 0.81141 0.47439 0.0
H162 H 0.59979 0.8009 0.53812 0.0
H163 H 0.59715 0.71688 0.55108 0.0
H164 H 0.64372 0.69388 0.60503 0.0
H165 H 0.63939 0.68876 0.65083 0.0
H166 H 0.66621 0.55139 0.64931 0.0
H167 H 0.67079 0.55682 0.60364 0.0
H168 H 0.71703 0.5392 0.55064 0.0
H169 H 0.71255 0.45406 0.53803 0.0
H170 H 0.60138 0.43481 0.47421 0.0
H171 H 0.60538 0.52117 0.48702 0.0
N172 N 0.65353 0.62599 0.5189 0.0
N173 N 0.65032 0.66447 0.55851 0.0
N174 N 0.65852 0.58635 0.55811 0.0
C175 C 0.64991 0.66632 0.53242 0.0
C176 C 0.65478 0.62519 0.57152 0.0
C177 C 0.65782 0.58533 0.53205 0.0
C178 C 0.64516 0.71345 0.5205 0.0
C179 C 0.67187 0.74113 0.49841 0.0
C180 C 0.67348 0.79056 0.49098 0.0
C181 C 0.64822 0.81384 0.50528 0.0
C182 C 0.61997 0.78496 0.52664 0.0
C183 C 0.6185 0.73623 0.53404 0.0
C184 C 0.65377 0.62339 0.60011 0.0
C185 C 0.64609 0.66083 0.61439 0.0
C186 C 0.64139 0.65634 0.64106 0.0
C187 C 0.64065 0.61217 0.65438 0.0
C188 C 0.65649 0.58003 0.64019 0.0
C189 C 0.66114 0.58431 0.61359 0.0
C190 C 0.66184 0.53838 0.5199 0.0
C191 C 0.69208 0.51771 0.53359 0.0
C192 C 1.00428 0.64065 0.85548 0.0
C193 C 0.97055 0.60666 0.83499 0.0
C194 C 0.98972 0.57647 0.82158 0.0
C195 C 1.04013 0.57873 0.82924 0.0
H196 H 0.25261 0.63589 0.81829 0.0
H197 H 0.33684 0.63782 0.80501 0.0
H198 H 0.34041 0.55434 0.87349 0.0
H199 H 0.25722 0.5515 0.88649 0.0
H200 H 0.23698 0.59979 0.93792 0.0
H201 H 0.23818 0.60251 0.98486 0.0
H202 H 1.08873 0.60996 0.98106 0.0
H203 H 1.08691 0.60741 0.93422 0.0
H204 H 1.07735 0.66834 0.87961 0.0
H205 H 0.99123 0.66453 0.86622 0.0
H206 H 0.96477 0.54971 0.80571 0.0
H207 H 1.05202 0.55296 0.81933 0.0
N208 N 0.15963 0.60196 0.85091 0.0
N209 N 0.20014 0.5985 0.89108 0.0
N210 N 1.1216 0.60672 0.88954 0.0
C211 C 0.20061 0.5981 0.865 0.0
C212 C 0.16119 0.60275 0.90351 0.0
C213 C 1.11956 0.60628 0.86348 0.0
C214 C 0.2473 0.59379 0.85364 0.0
C215 C 0.27071 0.61707 0.83028 0.0
C216 C 0.31955 0.61866 0.82279 0.0
C217 C 0.34646 0.59694 0.83837 0.0
C218 C 0.32162 0.57188 0.86105 0.0
C219 C 0.27344 0.57036 0.86848 0.0
C220 C 0.1619 0.60349 0.9321 0.0
C221 C 0.20422 0.60189 0.94698 0.0
C222 C 0.20503 0.60341 0.97384 0.0
C223 C 0.16354 0.60642 0.98639 0.0
C224 C 1.12108 0.60758 0.97172 0.0
C225 C 1.12025 0.60619 0.94489 0.0
C226 C 1.07267 0.61119 0.85057 0.0
C227 C 1.05406 0.64285 0.86307 0.0
C228 C 0.35715 0.6978 0.46133 0.0
C229 C 0.35093 0.67336 0.48539 0.0
C230 C 0.3125 0.6178 0.48732 0.0
C231 C 0.27365 0.59066 0.46711 0.0
H232 H 1.09387 0.51715 0.46998 0.0
H233 H 1.0179 0.50013 0.49584 0.0
H234 H 0.99411 0.61869 0.45316 0.0
H235 H 1.06847 0.63274 0.42585 0.0
H236 H 1.08706 0.57734 0.3594 0.0
H237 H 1.08365 0.59467 0.31494 0.0
H238 H 0.26068 0.67322 0.31528 0.0
H239 H 0.26342 0.65467 0.36008 0.0
H240 H 0.32151 0.69236 0.42366 0.0
H241 H 0.38708 0.74047 0.45914 0.0
H242 H 0.30891 0.59706 0.50518 0.0
H243 H 0.23971 0.55013 0.47012 0.0
N244 N 0.17785 0.5885 0.44243 0.0
N245 N 1.13212 0.59437 0.40502 0.0
N246 N 0.22307 0.61224 0.40395 0.0
C247 C 0.13252 0.58513 0.43046 0.0
C248 C 0.1769 0.60689 0.3915 0.0
C249 C 0.22326 0.6021 0.42942 0.0
C250 C 1.08598 0.57522 0.44566 0.0
C251 C 1.07212 0.53924 0.466 0.0
C252 C 1.02902 0.53009 0.48099 0.0
C253 C 0.99947 0.55772 0.47644 0.0
C254 C 1.01481 0.59555 0.45668 0.0
C255 C 1.05732 0.60362 0.4411 0.0
C256 C 0.17573 0.61734 0.36378 0.0
C257 C 1.12554 0.60058 0.3502 0.0
C258 C 1.12389 0.61252 0.32438 0.0
C259 C 0.17256 0.64467 0.31143 0.0
C260 C 0.22238 0.65582 0.32467 0.0
C261 C 0.22407 0.64346 0.35052 0.0
C262 C 0.2747 0.6183 0.44452 0.0
C263 C 0.31961 0.67016 0.44089 0.0
C264 C 0.6583 0.21109 0.80522 0.0
C265 C 0.67495 0.19401 0.82759 0.0
C266 C 0.66958 0.14207 0.82789 0.0
C267 C 0.64248 0.10577 0.8072 0.0
H268 H 0.43635 0.95113 0.78746 0.0
H269 H 0.42312 0.88123 0.81879 0.0
H270 H 0.52974 0.84389 0.77707 0.0
H271 H 0.53799 0.90882 0.74478 0.0
H272 H 0.60046 0.99925 0.69191 0.0
H273 H 0.62368 1.01728 0.6469 0.0
H274 H 0.58188 0.14493 0.64726 0.0
H275 H 0.56202 0.12913 0.69284 0.0
H276 H 0.61815 0.1887 0.76774 0.0
H277 H 0.66256 0.2513 0.80443 0.0
H278 H 0.68387 0.12873 0.8445 0.0
H279 H 0.63591 1.06468 0.8083 0.0
N280 N 0.54998 1.03107 0.77271 0.0
N281 N 0.53 1.00117 0.72977 0.0
N282 N 0.59556 0.09253 0.74042 0.0
C283 C 0.52015 0.99116 0.75495 0.0
C284 C 0.5666 1.05232 0.72245 0.0
C285 C 0.5878 1.08147 0.76566 0.0
C286 C 0.48901 0.93562 0.76414 0.0
C287 C 0.45362 0.92505 0.78418 0.0
C288 C 0.447 0.88603 0.80232 0.0
C289 C 0.47853 0.86034 0.80119 0.0
C290 C 0.50619 0.86447 0.77879 0.0
C291 C 0.51056 0.90131 0.7601 0.0
C292 C 0.57921 1.06266 0.69546 0.0
C293 C 0.59653 1.03125 0.6823 0.0
C294 C 0.60993 1.04163 0.65675 0.0
C295 C 0.60419 1.08222 0.64378 0.0
C296 C 0.58664 0.11352 0.65699 0.0
C297 C 0.57515 0.10442 0.68285 0.0
C298 C 0.62257 0.12187 0.78562 0.0
C299 C 0.63284 0.17546 0.78427 0.0
C300 C 0.75537 0.47322 0.12644 0.0
C301 C 0.73147 0.45611 0.15019 0.0
C302 C 0.67426 0.42511 0.15085 0.0
C303 C 0.64186 0.42288 0.12923 0.0
H304 H 0.68728 0.60722 0.14134 0.0
H305 H 0.66641 0.65467 0.17452 0.0
H306 H 0.51768 0.61938 0.13088 0.0
H307 H 0.54023 0.57513 0.0971 0.0
H308 H 0.59577 0.58524 0.03076 0.0
H309 H 0.60273 0.60414 0.98501 0.0
H310 H 0.683 0.5096 0.97624 0.0
H311 H 0.67622 0.49001 0.02209 0.0
H312 H 0.74314 0.4912 0.08778 0.0
H313 H 0.79963 0.49593 0.12544 0.0
H314 H 0.65515 0.41017 0.16888 0.0
H315 H 0.59843 0.40731 0.13127 0.0
N316 N 0.63395 0.51415 0.1095 0.0
N317 N 0.62156 0.55748 0.07376 0.0
N318 N 0.64585 0.48961 0.06849 0.0
C319 C 0.62274 0.55173 0.0995 0.0
C320 C 0.63312 0.52653 0.05808 0.0
C321 C 0.64453 0.48229 0.09425 0.0
C322 C 0.61482 0.58731 0.11697 0.0
C323 C 0.65084 0.61094 0.13869 0.0
C324 C 0.63902 0.63782 0.1576 0.0
C325 C 0.58983 0.63907 0.15545 0.0
C326 C 0.55567 0.61833 0.13297 0.0
C327 C 0.56842 0.59314 0.11369 0.0
C328 C 0.63548 0.53607 0.03015 0.0
C329 C 0.61496 0.56836 0.0192 0.0
C330 C 0.6189 0.57934 0.99308 0.0
C331 C 0.64369 0.55854 0.9775 0.0
C332 C 0.66401 0.52614 0.98816 0.0
C333 C 0.65979 0.51479 0.0143 0.0
C334 C 0.66694 0.45091 0.10705 0.0
C335 C 0.72293 0.46989 0.10474 0.0
C336 C 0.50963 0.69557 0.18019 0.0
C337 C 0.47578 0.65041 0.19511 0.0
C338 C 0.54299 0.62028 0.19671 0.0
C339 C 0.56987 0.65733 0.17693 0.0
N340 N 0.59499 0.7434 0.15817 0.0
N341 N 0.47006 0.5871 0.2268 0.0
C342 C 0.55931 0.7005 0.17208 0.0
C343 C 0.49703 0.61969 0.20708 0.0
N344 N 0.49142 0.72987 0.17188 0.0
N345 N 0.55775 0.58255 0.20355 0.0
H346 H 0.4353 0.58623 0.23363 0.0
H347 H 0.48428 0.56509 0.23749 0.0
H348 H 0.59227 0.5831 0.19684 0.0
H349 H 0.53555 0.55033 0.21558 0.0
H350 H 0.51123 0.76043 0.15874 0.0
H351 H 0.45552 0.72703 0.17826 0.0
H352 H 0.59135 0.7777 0.15454 0.0
H353 H 0.6309 0.74579 0.15198 0.0
C354 C 0.86964 0.45015 0.48674 0.0
C355 C 0.88589 0.43875 0.51103 0.0
C356 C 0.95479 0.53456 0.51743 0.0
C357 C 0.94923 0.54053 0.49078 0.0
N358 N 0.88298 0.51941 0.45581 0.0
N359 N 0.93135 0.47092 0.55256 0.0
C360 C 0.89956 0.50369 0.47753 0.0
C361 C 0.92333 0.48184 0.52779 0.0
N362 N 0.82966 0.40884 0.47166 0.0
N363 N 0.99469 0.57784 0.53147 0.0
H364 H 0.90787 0.43209 0.55995 0.0
H365 H 0.95976 0.49981 0.56575 0.0
H366 H 1.01839 0.61541 0.52292 0.0
H367 H 1.00278 0.57734 0.55108 0.0
H368 H 0.82191 0.41311 0.45234 0.0
H369 H 0.80578 0.36952 0.47838 0.0
H370 H 0.84538 0.49502 0.44592 0.0
H371 H 0.90459 0.55931 0.44951 0.0
C372 C 0.56996 0.86066 0.85471 0.0
C373 C 0.57379 0.8168 0.84433 0.0
C374 C 0.48637 0.78526 0.82032 0.0
C375 C 0.4923 0.83725 0.82407 0.0
N376 N 0.53482 0.92258 0.84845 0.0
N377 N 0.53564 0.73611 0.81693 0.0
C378 C 0.53129 0.87365 0.84314 0.0
C379 C 0.53097 0.77747 0.8277 0.0
N380 N 0.60456 0.89063 0.87491 0.0
N381 N 0.44047 0.74585 0.80735 0.0
H382 H 0.56811 0.72928 0.82165 0.0
H383 H 0.50892 0.71042 0.80225 0.0
H384 H 0.40846 0.75268 0.80133 0.0
H385 H 0.43259 0.70607 0.80469 0.0
H386 H 0.60121 0.92071 0.88477 0.0
H387 H 0.63347 0.88153 0.88324 0.0
H388 H 0.56756 0.95399 0.85906 0.0
H389 H 0.5054 0.93242 0.84195 0.0
C390 C 0.86242 0.5152 0.18699 0.0
C391 C 0.8693 0.5681 0.18995 0.0
C392 C 0.77122 0.5324 0.18256 0.0
C393 C 0.76681 0.48283 0.17361 0.0
N394 N 0.79896 0.41921 0.17636 0.0
N395 N 0.83077 0.62297 0.20165 0.0
C396 C 0.80935 0.47135 0.17959 0.0
C397 C 0.82328 0.57479 0.19201 0.0
N398 N 0.90713 0.50828 0.18934 0.0
N399 N 0.72738 0.54063 0.17966 0.0
H400 H 0.86961 0.65401 0.20819 0.0
H401 H 0.79894 0.63045 0.2051 0.0
H402 H 0.68811 0.50964 0.174 0.0
H403 H 0.72967 0.57806 0.18271 0.0
H404 H 0.90599 0.47152 0.18604 0.0
H405 H 0.94602 0.53992 0.19517 0.0
H406 H 0.82737 0.40686 0.18086 0.0
H407 H 0.75981 0.38759 0.17061 0.0
C408 C 0.35679 0.78043 0.52337 0.0
C409 C 0.41061 0.8197 0.51737 0.0
C410 C 0.43225 0.748 0.50856 0.0
C411 C 0.37547 0.71017 0.50836 0.0
N412 N 0.29165 0.68472 0.52907 0.0
N413 N 0.50471 0.84279 0.51401 0.0
C414 C 0.34056 0.72447 0.52078 0.0
C415 C 0.45051 0.80399 0.51376 0.0
N416 N 0.32067 0.7969 0.52976 0.0
N417 N 0.46673 0.73041 0.50107 0.0
H418 H 0.51821 0.88404 0.51732 0.0
H419 H 0.53624 0.8339 0.51294 0.0
H420 H 0.45225 0.68903 0.4973 0.0
H421 H 0.50837 0.75579 0.49857 0.0
H422 H 0.27886 0.7704 0.53138 0.0
H423 H 0.33293 0.838 0.53272 0.0
H424 H 0.26546 0.69264 0.53935 0.0
H425 H 0.28036 0.64367 0.5282 0.0
C426 C 0.72304 0.32641 0.85369 0.0
C427 C 0.67273 0.31279 0.8645 0.0
C428 C 0.65016 0.21835 0.86831 0.0
C429 C 0.69146 0.22951 0.85092 0.0
N430 N 0.78104 0.29266 0.83775 0.0
N431 N 0.60134 0.25444 0.89153 0.0
C432 C 0.73382 0.28368 0.84816 0.0
C433 C 0.64144 0.2616 0.87566 0.0
N434 N 0.75679 0.37859 0.84639 0.0
N435 N 0.61681 0.1661 0.8756 0.0
H436 H 0.59538 0.28685 0.89644 0.0
H437 H 0.57669 0.21843 0.90085 0.0
H438 H 0.62452 0.13474 0.87116 0.0
H439 H 0.58274 0.15389 0.88646 0.0
H440 H 0.7918 0.39059 0.83622 0.0
H441 H 0.7489 0.41001 0.85055 0.0
H442 H 0.81488 0.33119 0.83559 0.0
H443 H 0.7868 0.26005 0.83295 0.0
C444 C 0.68025 0.96383 0.51345 0.0
C445 C 0.65332 0.9714 0.49124 0.0
C446 C 0.62225 0.87506 0.47798 0.0
C447 C 0.65269 0.86916 0.49916 0.0
N448 N 0.71948 0.91291 0.53425 0.0
N449 N 0.60528 0.93517 0.45027 0.0
C450 C 0.68422 0.91513 0.51601 0.0
C451 C 0.62605 0.92711 0.47299 0.0
N452 N 0.69957 1.00186 0.53302 0.0
N453 N 0.58762 0.83018 0.46311 0.0
H454 H 0.60692 0.97188 0.44584 0.0
H455 H 0.59063 0.90722 0.43494 0.0
H456 H 0.58452 0.79219 0.46576 0.0
H457 H 0.55889 0.82942 0.44954 0.0
H458 H 0.71367 0.99597 0.55088 0.0
H459 H 0.69647 1.03708 0.53246 0.0
H460 H 0.74813 0.94664 0.54528 0.0
H461 H 0.72388 0.87862 0.53665 0.0
C462 C 0.81703 0.56332 0.83992 0.0
C463 C 0.8103 0.59862 0.82235 0.0
C464 C 0.90845 0.63843 0.81244 0.0
C465 C 0.91433 0.60132 0.829 0.0
N466 N 0.87184 0.52335 0.85589 0.0
N467 N 0.84765 0.66312 0.78858 0.0
C468 C 0.8677 0.56212 0.84183 0.0
C469 C 0.85563 0.6344 0.80775 0.0
N470 N 0.77591 0.53281 0.85586 0.0
N471 N 0.95389 0.67864 0.80158 0.0
H472 H 0.80991 0.66084 0.78441 0.0
H473 H 0.87678 0.68544 0.77535 0.0
H474 H 0.99229 0.68142 0.80365 0.0
H475 H 0.95448 0.71115 0.79191 0.0
H476 H 0.77984 0.51093 0.87106 0.0
H477 H 0.73879 0.53268 0.8553 0.0
H478 H 0.83873 0.49035 0.86385 0.0
H479 H 0.90812 0.52185 0.85814 0.0
C480 C 0.36571 0.79054 0.14296 0.0
C481 C 0.31942 0.78159 0.15685 0.0
C482 C 0.3767 0.87512 0.1761 0.0
C483 C 0.42399 0.88207 0.16394 0.0
N484 N 0.46466 0.84225 0.13846 0.0
N485 N 0.2862 0.81273 0.19106 0.0
C486 C 0.41867 0.83845 0.14818 0.0
C487 C 0.32637 0.82343 0.17448 0.0
N488 N 0.35881 0.75446 0.12383 0.0
N489 N 0.37966 0.91824 0.1893 0.0
H490 H 0.25004 0.7753 0.19147 0.0
H491 H 0.29105 0.83876 0.20627 0.0
H492 H 0.41573 0.95577 0.19166 0.0
H493 H 0.34545 0.91832 0.19605 0.0
H494 H 0.38883 0.76142 0.11107 0.0
H495 H 0.32137 0.71961 0.11913 0.0
H496 H 0.46536 0.80964 0.12963 0.0
H497 H 0.50324 0.87714 0.14083 0.0
C498 C 0.67672 0.3224 0.47437 0.0
C499 C 0.64904 0.27819 0.49136 0.0
C500 C 0.62038 0.33564 0.51499 0.0
C501 C 0.65131 0.38109 0.49923 0.0
N502 N 0.71274 0.4188 0.465 0.0
N503 N 0.60231 0.24728 0.53063 0.0
C504 C 0.68031 0.37451 0.47914 0.0
C505 C 0.62275 0.28611 0.51232 0.0
N506 N 0.69862 0.31418 0.4532 0.0
N507 N 0.58714 0.33921 0.53221 0.0
H508 H 0.60347 0.21105 0.52967 0.0
H509 H 0.58872 0.25292 0.54795 0.0
H510 H 0.58435 0.37431 0.53477 0.0
H511 H 0.55871 0.30612 0.54227 0.0
H512 H 0.71347 0.3414 0.43828 0.0
H513 H 0.69926 0.27827 0.44977 0.0
H514 H 0.73865 0.4192 0.45137 0.0
H515 H 0.71597 0.45682 0.46779 0.0
C516 C 0.45855 0.57768 0.80615 0.0
C517 C 0.50343 0.6028 0.82473 0.0
C518 C 0.44867 0.63237 0.84912 0.0
C519 C 0.40152 0.60183 0.83225 0.0
N520 N 0.36051 0.53919 0.79615 0.0
N521 N 0.53646 0.64621 0.86645 0.0
C522 C 0.40635 0.57305 0.81105 0.0
C523 C 0.49705 0.62795 0.8469 0.0
N524 N 0.46616 0.55942 0.78337 0.0
N525 N 0.44824 0.66774 0.86675 0.0
H526 H 0.57233 0.6442 0.86565 0.0
H527 H 0.53139 0.659 0.8843 0.0
H528 H 0.4146 0.67341 0.86849 0.0
H529 H 0.48309 0.69563 0.87763 0.0
H530 H 0.43748 0.54613 0.76787 0.0
H531 H 0.50331 0.56211 0.77914 0.0
H532 H 0.35963 0.51238 0.78227 0.0
H533 H 0.32203 0.53461 0.79907 0.0
C534 C 1.0052 0.44088 0.17931 0.0
C535 C 1.00924 0.47397 0.15789 0.0
C536 C 0.9115 0.40612 0.14545 0.0
C537 C 0.90952 0.37084 0.1655 0.0
N538 N 0.96065 0.35084 0.19776 0.0
N539 N 0.96706 0.48148 0.11792 0.0
C540 C 0.95829 0.38727 0.18125 0.0
C541 C 0.96249 0.45468 0.14026 0.0
N542 N 1.04482 0.46165 0.19881 0.0
N543 N 0.86406 0.39481 0.13197 0.0
H544 H 1.00304 0.51631 0.11321 0.0
H545 H 0.93691 0.46641 0.10304 0.0
H546 H 0.82643 0.36025 0.13504 0.0
H547 H 0.86105 0.42205 0.11945 0.0
H548 H 1.0412 0.44207 0.21614 0.0
H549 H 1.07843 0.50104 0.19897 0.0
H550 H 0.99665 0.35805 0.20779 0.0
H551 H 0.92819 0.31111 0.19932 0.0
C552 C 1.12574 0.56746 0.05566 0.0
C553 C 0.16442 0.61625 0.06917 0.0
C554 C 0.20063 0.65941 0.02822 0.0
C555 C 0.1649 0.60939 0.01497 0.0
N556 N 1.10011 0.51317 0.01623 0.0
N557 N 0.24572 0.70511 0.06866 0.0
C558 C 1.12945 0.56259 0.02877 0.0
C559 C 0.20382 0.66129 0.05553 0.0
N560 N 1.0837 0.52677 0.06824 0.0
N561 N 0.23035 0.70563 0.0147 0.0
H562 H 0.24997 0.70797 0.08862 0.0
H563 H 0.27909 0.73633 0.05988 0.0
H564 H 0.2297 0.70587 0.99471 0.0
H565 H 0.25214 0.74447 0.02317 0.0
H566 H 1.05079 0.493 0.05894 0.0
H567 H 1.07887 0.52891 0.08778 0.0
H568 H 1.07824 0.4765 0.0256 0.0
H569 H 1.10138 0.50818 0.99653 0.0
C570 C 0.65497 0.16533 0.38792 0.0
C571 C 0.66587 0.12946 0.40302 0.0
C572 C 0.68838 0.09758 0.36399 0.0
C573 C 0.67169 0.12899 0.3488 0.0
N574 N 0.63043 0.186 0.34593 0.0
N575 N 0.68332 1.05393 0.40452 0.0
C576 C 0.6526 0.16102 0.36067 0.0
C577 C 0.68029 0.0937 0.39083 0.0
N578 N 0.64902 0.20517 0.39956 0.0
N579 N 0.71307 1.07227 0.35284 0.0
H580 H 0.67645 1.04854 0.424 0.0
H581 H 0.68748 1.02293 0.3961 0.0
H582 H 0.71932 1.07387 0.33325 0.0
H583 H 0.73163 1.05382 0.36329 0.0
H584 H 0.64729 0.23632 0.38963 0.0
H585 H 0.65112 0.21035 0.41938 0.0
H586 H 0.61001 0.20458 0.35348 0.0
H587 H 0.62812 0.1841 0.32593 0.0
C588 C 0.64434 0.56336 0.7225 0.0
C589 C 0.64512 0.60561 0.73741 0.0
C590 C 0.61866 0.63769 0.69838 0.0
C591 C 0.62958 0.60294 0.68306 0.0
N592 N 0.6051 0.50829 0.68401 0.0
N593 N 0.63179 0.68357 0.73937 0.0
C594 C 0.62921 0.55837 0.6959 0.0
C595 C 0.63237 0.64327 0.72528 0.0
N596 N 0.659 0.52827 0.73349 0.0
N597 N 0.58515 0.656 0.68852 0.0
H598 H 0.63816 0.68723 0.75927 0.0
H599 H 0.62845 0.71534 0.73094 0.0
H600 H 0.56355 0.64142 0.67085 0.0
H601 H 0.57163 0.67753 0.69931 0.0
H602 H 0.66355 0.49988 0.72273 0.0
H603 H 0.67162 0.53109 0.75281 0.0
H604 H 0.5992 0.47322 0.6933 0.0
H605 H 0.58367 0.5008 0.66623 0.0
C606 C 0.65989 0.15166 0.58088 0.0
C607 C 0.63385 0.10647 0.56337 0.0
C608 C 0.58414 1.04712 0.59819 0.0
C609 C 0.61496 0.09068 0.61611 0.0
N610 N 0.69194 0.18117 0.62485 0.0
N611 N 0.58331 1.00834 0.55701 0.0
C612 C 0.6559 0.14206 0.60758 0.0
C613 C 0.5996 1.05327 0.5725 0.0
N614 N 0.68589 0.20378 0.57219 0.0
N615 N 0.53868 1.00069 0.6053 0.0
H616 H 0.5959 1.01063 0.53837 0.0
H617 H 0.56254 0.96866 0.56369 0.0
H618 H 0.52416 0.99533 0.62369 0.0
H619 H 0.5121 0.97012 0.59218 0.0
H620 H 0.7008 0.23795 0.58433 0.0
H621 H 0.68741 0.21296 0.55281 0.0
H622 H 0.7257 0.21733 0.61938 0.0
H623 H 0.69146 0.17509 0.64457 0.0
C624 C 0.69914 0.62339 0.91376 0.0
C625 C 0.65369 0.58961 0.89684 0.0
C626 C 0.60267 0.53456 0.93265 0.0
C627 C 0.64708 0.56973 0.94975 0.0
N628 N 0.7339 0.65215 0.95773 0.0
N629 N 0.55852 0.52058 0.89021 0.0
C630 C 0.69425 0.61565 0.94064 0.0
C631 C 0.60434 0.5473 0.90631 0.0
N632 N 0.74758 0.66127 0.90406 0.0
N633 N 0.5595 0.48825 0.94153 0.0
H634 H 0.55809 0.52943 0.87084 0.0
H635 H 0.51974 0.49332 0.8964 0.0
H636 H 0.55603 0.47825 0.96085 0.0
H637 H 0.5291 0.45768 0.92959 0.0
H638 H 0.78412 0.68292 0.91511 0.0
H639 H 0.75227 0.66863 0.8845 0.0
H640 H 0.76633 0.68947 0.95253 0.0
H641 H 0.73235 0.6469 0.97751 0.0
C642 C 1.11825 0.6268 0.24291 0.0
C643 C 0.16788 0.64681 0.23007 0.0
C644 C 0.21956 0.6911 0.27033 0.0
C645 C 0.171 0.66017 0.28359 0.0
N646 N 1.07907 0.64546 0.2787 0.0
N647 N 0.26697 0.70409 0.23124 0.0
C648 C 1.12089 0.64108 0.26902 0.0
C649 C 0.21905 0.68093 0.24364 0.0
N650 N 1.06854 0.59286 0.23067 0.0
N651 N 0.26274 0.73577 0.28222 0.0
H652 H 0.26858 0.70201 0.21142 0.0
H653 H 0.30545 0.72353 0.24091 0.0
H654 H 0.25992 0.7488 0.30049 0.0
H655 H 0.29754 0.76344 0.27296 0.0
H656 H 1.03216 0.5745 0.2403 0.0
H657 H 1.06415 0.57904 0.21175 0.0
H658 H 1.04338 0.6366 0.26784 0.0
H659 H 1.08411 0.66546 0.29626 0.0
loop_
_geom_bond_atom_site_label_1
_geom_bond_atom_site_label_2
_geom_bond_distance
_geom_bond_site_symmetry_2
_ccdc_geom_bond_type
Tb0 C10 2.825 . S
Tb0 O11 2.347 . S
Tb0 O14 2.366 . S
Tb0 O19 2.418 . S
Tb0 O20 2.384 1_455 S
Tb0 O23 2.479 . S
Tb0 O24 2.471 . S
Eu1 O12 2.418 . S
Eu1 O13 2.384 1_655 S
Eu1 O16 2.479 . S
Eu1 O17 2.471 . S
Eu1 O18 2.347 1_655 S
Eu1 O21 2.366 . S
Eu1 C31 2.825 . S
C2 O18 1.259 . S
C2 O19 1.265 . S
C3 O20 1.255 . S
C3 O21 1.265 . S
C4 C6 1.380 . S
C4 C7 1.374 . S
C4 C10 1.507 . S
C5 C6 1.384 . S
C5 C9 1.387 . S
C5 H32 0.930 . S
C6 C4 1.380 . S
C6 C5 1.384 . S
C6 H33 0.931 . S
C7 C4 1.374 . S
C7 C8 1.390 . S
C7 H34 0.930 . S
C8 C7 1.390 . S
C8 C9 1.391 . S
C8 H35 0.930 . S
C9 C5 1.387 . S
C9 C8 1.391 . S
C10 Tb0 2.825 . S
C10 C4 1.507 . S
C10 O23 1.238 . S
C10 O24 1.247 . S
O11 Tb0 2.347 . S
O11 C15 1.259 . S
O12 Eu1 2.418 . S
O12 C15 1.265 1_655 S
O13 Eu1 2.384 1_455 S
O13 C22 1.255 . S
O14 Tb0 2.366 . S
O14 C22 1.265 . S
C15 O11 1.259 . S
C15 O12 1.265 1_455 S
O16 Eu1 2.479 . S
O16 C31 1.238 . S
O17 Eu1 2.471 . S
O17 C31 1.247 . S
O18 Eu1 2.347 1_455 S
O18 C2 1.259 . S
O19 Tb0 2.418 . S
O19 C2 1.265 . S
O20 Tb0 2.384 1_655 S
O20 C3 1.255 . S
O21 Eu1 2.366 . S
O21 C3 1.265 . S
C22 O13 1.255 . S
C22 O14 1.265 . S
O23 Tb0 2.479 . S
O23 C10 1.238 . S
O24 Tb0 2.471 . S
O24 C10 1.247 . S
C25 C28 1.380 . S
C25 C29 1.374 . S
C25 C31 1.507 . S
C26 C27 1.387 . S
C26 C30 1.391 . S
C27 C26 1.387 . S
C27 C28 1.384 . S
C27 H36 0.930 . S
C28 C25 1.380 . S
C28 C27 1.384 . S
C28 H37 0.931 . S
C29 C25 1.374 . S
C29 C30 1.390 . S
C29 H38 0.930 . S
C30 C26 1.391 . S
C30 C29 1.390 . S
C30 H39 0.930 . S
C31 Eu1 2.825 . S
C31 O16 1.238 . S
C31 O17 1.247 . S
C31 C25 1.507 . S
H32 C5 0.930 . S
H33 C6 0.931 . S
H34 C7 0.930 . S
H35 C8 0.930 . S
H36 C27 0.930 . S
H37 C28 0.931 . S
H38 C29 0.930 . S
H39 C30 0.930 . S
Tb40 C50 2.825 . S
Tb40 O51 2.347 . S
Tb40 O54 2.366 . S
Tb40 O59 2.418 . S
Tb40 O60 2.384 1_545 S
Tb40 O63 2.479 . S
Tb40 O64 2.471 . S
Eu41 O52 2.418 . S
Eu41 O53 2.384 . S
Eu41 O56 2.479 1_545 S
Eu41 O57 2.471 1_545 S
Eu41 O58 2.347 . S
Eu41 O61 2.366 1_545 S
Eu41 C71 2.825 1_545 S
C42 O58 1.259 . S
C42 O59 1.265 . S
C43 O60 1.255 . S
C43 O61 1.265 . S
C44 C46 1.380 . S
C44 C47 1.374 . S
C44 C50 1.507 . S
C45 C46 1.384 . S
C45 C49 1.387 . S
C45 H72 0.930 . S
C46 C44 1.380 . S
C46 C45 1.384 . S
C46 H73 0.931 . S
C47 C44 1.374 . S
C47 C48 1.390 . S
C47 H74 0.930 . S
C48 C47 1.390 . S
C48 C49 1.391 . S
C48 H75 0.930 . S
C49 C45 1.387 . S
C49 C48 1.391 . S
C50 Tb40 2.825 . S
C50 C44 1.507 . S
C50 O63 1.238 . S
C50 O64 1.247 . S
O51 Tb40 2.347 . S
O51 C55 1.259 . S
O52 Eu41 2.418 . S
O52 C55 1.265 . S
O53 Eu41 2.384 . S
O53 C62 1.255 . S
O54 Tb40 2.366 . S
O54 C62 1.265 . S
C55 O51 1.259 . S
C55 O52 1.265 . S
O56 Eu41 2.479 1_565 S
O56 C71 1.238 . S
O57 Eu41 2.471 1_565 S
O57 C71 1.247 . S
O58 Eu41 2.347 . S
O58 C42 1.259 . S
O59 Tb40 2.418 . S
O59 C42 1.265 . S
O60 Tb40 2.384 1_565 S
O60 C43 1.255 . S
O61 Eu41 2.366 1_565 S
O61 C43 1.265 . S
C62 O53 1.255 . S
C62 O54 1.265 . S
O63 Tb40 2.479 . S
O63 C50 1.238 . S
O64 Tb40 2.471 . S
O64 C50 1.247 . S
C65 C68 1.380 . S
C65 C69 1.374 . S
C65 C71 1.507 . S
C66 C67 1.387 . S
C66 C70 1.391 . S
C67 C66 1.387 . S
C67 C68 1.384 . S
C67 H76 0.930 . S
C68 C65 1.380 . S
C68 C67 1.384 . S
C68 H77 0.931 . S
C69 C65 1.374 . S
C69 C70 1.390 . S
C69 H78 0.930 . S
C70 C66 1.391 . S
C70 C69 1.390 . S
C70 H79 0.930 . S
C71 Eu41 2.825 1_565 S
C71 O56 1.238 . S
C71 O57 1.247 . S
C71 C65 1.507 . S
H72 C45 0.930 . S
H73 C46 0.931 . S
H74 C47 0.930 . S
H75 C48 0.930 . S
H76 C67 0.930 . S
H77 C68 0.931 . S
H78 C69 0.930 . S
H79 C70 0.930 . S
Tb80 C90 2.825 . S
Tb80 O91 2.347 . S
Tb80 O94 2.366 . S
Tb80 O99 2.418 . S
Tb80 O100 2.384 . S
Tb80 O103 2.479 . S
Tb80 O104 2.471 . S
Eu81 O92 2.418 . S
Eu81 O93 2.384 . S
Eu81 O96 2.479 . S
Eu81 O97 2.471 . S
Eu81 O98 2.347 . S
Eu81 O101 2.366 . S
Eu81 C111 2.825 . S
C82 O98 1.259 . S
C82 O99 1.265 . S
C83 O100 1.255 . S
C83 O101 1.265 . S
C84 C86 1.380 . S
C84 C87 1.374 . S
C84 C90 1.507 . S
C85 C86 1.384 . S
C85 C89 1.387 . S
C85 H112 0.930 . S
C86 C84 1.380 . S
C86 C85 1.384 . S
C86 H113 0.931 . S
C87 C84 1.374 . S
C87 C88 1.390 . S
C87 H114 0.930 . S
C88 C87 1.390 . S
C88 C89 1.391 . S
C88 H115 0.930 . S
C89 C85 1.387 . S
C89 C88 1.391 . S
C90 Tb80 2.825 . S
C90 C84 1.507 . S
C90 O103 1.238 . S
C90 O104 1.247 . S
O91 Tb80 2.347 . S
O91 C95 1.259 . S
O92 Eu81 2.418 . S
O92 C95 1.265 . S
O93 Eu81 2.384 . S
O93 C102 1.255 . S
O94 Tb80 2.366 . S
O94 C102 1.265 . S
C95 O91 1.259 . S
C95 O92 1.265 . S
O96 Eu81 2.479 . S
O96 C111 1.238 . S
O97 Eu81 2.471 . S
O97 C111 1.247 . S
O98 Eu81 2.347 . S
O98 C82 1.259 . S
O99 Tb80 2.418 . S
O99 C82 1.265 . S
O100 Tb80 2.384 . S
O100 C83 1.255 . S
O101 Eu81 2.366 . S
O101 C83 1.265 . S
C102 O93 1.255 . S
C102 O94 1.265 . S
O103 Tb80 2.479 . S
O103 C90 1.238 . S
O104 Tb80 2.471 . S
O104 C90 1.247 . S
C105 C108 1.380 . S
C105 C109 1.374 . S
C105 C111 1.507 . S
C106 C107 1.387 . S
C106 C110 1.391 . S
C107 C106 1.387 . S
C107 C108 1.384 . S
C107 H116 0.930 . S
C108 C105 1.380 . S
C108 C107 1.384 . S
C108 H117 0.931 . S
C109 C105 1.374 . S
C109 C110 1.390 . S
C109 H118 0.930 . S
C110 C106 1.391 . S
C110 C109 1.390 . S
C110 H119 0.930 . S
C111 Eu81 2.825 . S
C111 O96 1.238 . S
C111 O97 1.247 . S
C111 C105 1.507 . S
H112 C85 0.930 . S
H113 C86 0.931 . S
H114 C87 0.930 . S
H115 C88 0.930 . S
H116 C107 0.930 . S
H117 C108 0.931 . S
H118 C109 0.930 . S
H119 C110 0.930 . S
C120 C121 1.384 . S
C120 H133 0.947 . S
C120 C155 1.382 . S
C121 C120 1.384 . S
C121 C122 1.378 . S
C122 C121 1.378 . S
C122 C123 1.378 . S
C122 H134 0.952 . S
C123 C122 1.378 . S
C123 H135 0.950 . S
C123 C154 1.383 . S
H124 C143 0.947 . S
H125 C144 0.946 . S
H126 C146 0.953 . S
H127 C147 0.945 . S
H128 C149 0.952 . S
H129 C150 0.949 . S
H130 C152 0.950 . S
H131 C153 0.948 . S
H132 C155 0.951 . S
H133 C120 0.947 . S
H134 C122 0.952 . S
H135 C123 0.950 . S
N136 C139 1.382 . S
N136 C141 1.363 1_545 S
N137 C139 1.371 . S
N137 C140 1.372 . S
N138 C140 1.361 1_565 S
N138 C141 1.377 . S
C139 N136 1.382 . S
C139 N137 1.371 . S
C139 C142 1.480 . S
C140 N137 1.372 . S
C140 N138 1.361 1_545 S
C140 C148 1.457 . S
C141 N136 1.363 1_565 S
C141 N138 1.377 . S
C141 C154 1.479 . S
C142 C139 1.480 . S
C142 C143 1.383 . S
C142 C147 1.385 . S
C143 H124 0.947 . S
C143 C142 1.383 . S
C143 C144 1.388 . S
C144 H125 0.946 . S
C144 C143 1.388 . S
C144 C145 1.384 . S
C145 C144 1.384 . S
C145 C146 1.377 . S
C146 H126 0.953 . S
C146 C145 1.377 . S
C146 C147 1.369 . S
C147 H127 0.945 . S
C147 C142 1.385 . S
C147 C146 1.369 . S
C148 C140 1.457 . S
C148 C149 1.372 . S
C148 C153 1.364 1_545 S
C149 H128 0.952 . S
C149 C148 1.372 . S
C149 C150 1.389 . S
C150 H129 0.949 . S
C150 C149 1.389 . S
C150 C151 1.387 . S
C151 C150 1.387 . S
C151 C152 1.372 1_545 S
C152 H130 0.950 . S
C152 C151 1.372 1_565 S
C152 C153 1.379 . S
C153 H131 0.948 . S
C153 C148 1.364 1_565 S
C153 C152 1.379 . S
C154 C123 1.383 . S
C154 C141 1.479 . S
C154 C155 1.398 . S
C155 C120 1.382 . S
C155 H132 0.951 . S
C155 C154 1.398 . S
C156 C157 1.384 . S
C156 H169 0.947 . S
C156 C191 1.382 . S
C157 C156 1.384 . S
C157 C158 1.378 . S
C158 C157 1.378 . S
C158 C159 1.378 . S
C158 H170 0.952 . S
C159 C158 1.378 . S
C159 H171 0.950 . S
C159 C190 1.383 . S
H160 C179 0.947 . S
H161 C180 0.946 . S
H162 C182 0.953 . S
H163 C183 0.945 . S
H164 C185 0.952 . S
H165 C186 0.949 . S
H166 C188 0.950 . S
H167 C189 0.948 . S
H168 C191 0.951 . S
H169 C156 0.947 . S
H170 C158 0.952 . S
H171 C159 0.950 . S
N172 C175 1.382 . S
N172 C177 1.363 . S
N173 C175 1.371 . S
N173 C176 1.372 . S
N174 C176 1.361 . S
N174 C177 1.377 . S
C175 N172 1.382 . S
C175 N173 1.371 . S
C175 C178 1.480 . S
C176 N173 1.372 . S
C176 N174 1.361 . S
C176 C184 1.457 . S
C177 N172 1.363 . S
C177 N174 1.377 . S
C177 C190 1.479 . S
C178 C175 1.480 . S
C178 C179 1.383 . S
C178 C183 1.385 . S
C179 H160 0.947 . S
C179 C178 1.383 . S
C179 C180 1.388 . S
C180 H161 0.946 . S
C180 C179 1.388 . S
C180 C181 1.384 . S
C181 C180 1.384 . S
C181 C182 1.377 . S
C182 H162 0.953 . S
C182 C181 1.377 . S
C182 C183 1.369 . S
C183 H163 0.945 . S
C183 C178 1.385 . S
C183 C182 1.369 . S
C184 C176 1.457 . S
C184 C185 1.372 . S
C184 C189 1.364 . S
C185 H164 0.952 . S
C185 C184 1.372 . S
C185 C186 1.389 . S
C186 H165 0.949 . S
C186 C185 1.389 . S
C186 C187 1.387 . S
C187 C186 1.387 . S
C187 C188 1.372 . S
C188 H166 0.950 . S
C188 C187 1.372 . S
C188 C189 1.379 . S
C189 H167 0.948 . S
C189 C184 1.364 . S
C189 C188 1.379 . S
C190 C159 1.383 . S
C190 C177 1.479 . S
C190 C191 1.398 . S
C191 C156 1.382 . S
C191 H168 0.951 . S
C191 C190 1.398 . S
C192 C193 1.384 . S
C192 H205 0.947 . S
C192 C227 1.382 . S
C193 C192 1.384 . S
C193 C194 1.378 . S
C194 C193 1.378 . S
C194 C195 1.378 . S
C194 H206 0.952 . S
C195 C194 1.378 . S
C195 H207 0.950 . S
C195 C226 1.383 . S
H196 C215 0.947 . S
H197 C216 0.946 . S
H198 C218 0.953 . S
H199 C219 0.945 . S
H200 C221 0.952 . S
H201 C222 0.949 . S
H202 C224 0.950 . S
H203 C225 0.948 . S
H204 C227 0.951 . S
H205 C192 0.947 . S
H206 C194 0.952 . S
H207 C195 0.950 . S
N208 C211 1.382 . S
N208 C213 1.363 1_455 S
N209 C211 1.371 . S
N209 C212 1.372 . S
N210 C212 1.361 1_655 S
N210 C213 1.377 . S
C211 N208 1.382 . S
C211 N209 1.371 . S
C211 C214 1.480 . S
C212 N209 1.372 . S
C212 N210 1.361 1_455 S
C212 C220 1.457 . S
C213 N208 1.363 1_655 S
C213 N210 1.377 . S
C213 C226 1.479 . S
C214 C211 1.480 . S
C214 C215 1.383 . S
C214 C219 1.385 . S
C215 H196 0.947 . S
C215 C214 1.383 . S
C215 C216 1.388 . S
C216 H197 0.946 . S
C216 C215 1.388 . S
C216 C217 1.384 . S
C217 C216 1.384 . S
C217 C218 1.377 . S
C218 H198 0.953 . S
C218 C217 1.377 . S
C218 C219 1.369 . S
C219 H199 0.945 . S
C219 C214 1.385 . S
C219 C218 1.369 . S
C220 C212 1.457 . S
C220 C221 1.372 . S
C220 C225 1.364 1_455 S
C221 H200 0.952 . S
C221 C220 1.372 . S
C221 C222 1.389 . S
C222 H201 0.949 . S
C222 C221 1.389 . S
C222 C223 1.387 . S
C223 C222 1.387 . S
C223 C224 1.372 1_455 S
C224 H202 0.950 . S
C224 C223 1.372 1_655 S
C224 C225 1.379 . S
C225 H203 0.948 . S
C225 C220 1.364 1_655 S
C225 C224 1.379 . S
C226 C195 1.383 . S
C226 C213 1.479 . S
C226 C227 1.398 . S
C227 C192 1.382 . S
C227 H204 0.951 . S
C227 C226 1.398 . S
C228 C229 1.384 . S
C228 H241 0.947 . S
C228 C263 1.382 . S
C229 C228 1.384 . S
C229 C230 1.378 . S
C230 C229 1.378 . S
C230 C231 1.378 . S
C230 H242 0.952 . S
C231 C230 1.378 . S
C231 H243 0.950 . S
C231 C262 1.383 . S
H232 C251 0.947 . S
H233 C252 0.946 . S
H234 C254 0.953 . S
H235 C255 0.945 . S
H236 C257 0.952 . S
H237 C258 0.949 . S
H238 C260 0.950 . S
H239 C261 0.948 . S
H240 C263 0.951 . S
H241 C228 0.947 . S
H242 C230 0.952 . S
H243 C231 0.950 . S
N244 C247 1.382 1_455 S
N244 C249 1.363 . S
N245 C247 1.371 . S
N245 C248 1.372 1_655 S
N246 C248 1.361 . S
N246 C249 1.377 . S
C247 N244 1.382 1_655 S
C247 N245 1.371 . S
C247 C250 1.480 . S
C248 N245 1.372 1_455 S
C248 N246 1.361 . S
C248 C256 1.457 . S
C249 N244 1.363 . S
C249 N246 1.377 . S
C249 C262 1.479 . S
C250 C247 1.480 . S
C250 C251 1.383 . S
C250 C255 1.385 . S
C251 H232 0.947 . S
C251 C250 1.383 . S
C251 C252 1.388 . S
C252 H233 0.946 . S
C252 C251 1.388 . S
C252 C253 1.384 . S
C253 C252 1.384 . S
C253 C254 1.377 . S
C254 H234 0.953 . S
C254 C253 1.377 . S
C254 C255 1.369 . S
C255 H235 0.945 . S
C255 C250 1.385 . S
C255 C254 1.369 . S
C256 C248 1.457 . S
C256 C257 1.372 1_455 S
C256 C261 1.364 . S
C257 H236 0.952 . S
C257 C256 1.372 1_655 S
C257 C258 1.389 . S
C258 H237 0.949 . S
C258 C257 1.389 . S
C258 C259 1.387 1_655 S
C259 C258 1.387 1_455 S
C259 C260 1.372 . S
C260 H238 0.950 . S
C260 C259 1.372 . S
C260 C261 1.379 . S
C261 H239 0.948 . S
C261 C256 1.364 . S
C261 C260 1.379 . S
C262 C231 1.383 . S
C262 C249 1.479 . S
C262 C263 1.398 . S
C263 C228 1.382 . S
C263 H240 0.951 . S
C263 C262 1.398 . S
C264 C265 1.384 . S
C264 H277 0.947 . S
C264 C299 1.382 . S
C265 C264 1.384 . S
C265 C266 1.378 . S
C266 C265 1.378 . S
C266 C267 1.378 . S
C266 H278 0.952 . S
C267 C266 1.378 . S
C267 H279 0.950 . S
C267 C298 1.383 . S
H268 C287 0.947 . S
H269 C288 0.946 . S
H270 C290 0.953 . S
H271 C291 0.945 . S
H272 C293 0.952 . S
H273 C294 0.949 . S
H274 C296 0.950 . S
H275 C297 0.948 . S
H276 C299 0.951 . S
H277 C264 0.947 . S
H278 C266 0.952 . S
H279 C267 0.950 . S
N280 C283 1.382 1_545 S
N280 C285 1.363 . S
N281 C283 1.371 . S
N281 C284 1.372 1_565 S
N282 C284 1.361 . S
N282 C285 1.377 . S
C283 N280 1.382 1_565 S
C283 N281 1.371 . S
C283 C286 1.480 . S
C284 N281 1.372 1_545 S
C284 N282 1.361 . S
C284 C292 1.457 . S
C285 N280 1.363 . S
C285 N282 1.377 . S
C285 C298 1.479 . S
C286 C283 1.480 . S
C286 C287 1.383 . S
C286 C291 1.385 . S
C287 H268 0.947 . S
C287 C286 1.383 . S
C287 C288 1.388 . S
C288 H269 0.946 . S
C288 C287 1.388 . S
C288 C289 1.384 . S
C289 C288 1.384 . S
C289 C290 1.377 . S
C290 H270 0.953 . S
C290 C289 1.377 . S
C290 C291 1.369 . S
C291 H271 0.945 . S
C291 C286 1.385 . S
C291 C290 1.369 . S
C292 C284 1.457 . S
C292 C293 1.372 1_545 S
C292 C297 1.364 . S
C293 H272 0.952 . S
C293 C292 1.372 1_565 S
C293 C294 1.389 . S
C294 H273 0.949 . S
C294 C293 1.389 . S
C294 C295 1.387 1_565 S
C295 C294 1.387 1_545 S
C295 C296 1.372 . S
C296 H274 0.950 . S
C296 C295 1.372 . S
C296 C297 1.379 . S
C297 H275 0.948 . S
C297 C292 1.364 . S
C297 C296 1.379 . S
C298 C267 1.383 . S
C298 C285 1.479 . S
C298 C299 1.398 . S
C299 C264 1.382 . S
C299 H276 0.951 . S
C299 C298 1.398 . S
C300 C301 1.384 . S
C300 H313 0.947 . S
C300 C335 1.382 . S
C301 C300 1.384 . S
C301 C302 1.378 . S
C302 C301 1.378 . S
C302 C303 1.378 . S
C302 H314 0.952 . S
C303 C302 1.378 . S
C303 H315 0.950 . S
C303 C334 1.383 . S
H304 C323 0.947 . S
H305 C324 0.946 . S
H306 C326 0.953 . S
H307 C327 0.945 . S
H308 C329 0.952 . S
H309 C330 0.949 . S
H310 C332 0.950 . S
H311 C333 0.948 . S
H312 C335 0.951 . S
H313 C300 0.947 . S
H314 C302 0.952 . S
H315 C303 0.950 . S
N316 C319 1.382 . S
N316 C321 1.363 . S
N317 C319 1.371 . S
N317 C320 1.372 . S
N318 C320 1.361 . S
N318 C321 1.377 . S
C319 N316 1.382 . S
C319 N317 1.371 . S
C319 C322 1.480 . S
C320 N317 1.372 . S
C320 N318 1.361 . S
C320 C328 1.457 . S
C321 N316 1.363 . S
C321 N318 1.377 . S
C321 C334 1.479 . S
C322 C319 1.480 . S
C322 C323 1.383 . S
C322 C327 1.385 . S
C323 H304 0.947 . S
C323 C322 1.383 . S
C323 C324 1.388 . S
C324 H305 0.946 . S
C324 C323 1.388 . S
C324 C325 1.384 . S
C325 C324 1.384 . S
C325 C326 1.377 . S
C326 H306 0.953 . S
C326 C325 1.377 . S
C326 C327 1.369 . S
C327 H307 0.945 . S
C327 C322 1.385 . S
C327 C326 1.369 . S
C328 C320 1.457 . S
C328 C329 1.372 . S
C328 C333 1.364 . S
C329 H308 0.952 . S
C329 C328 1.372 . S
C329 C330 1.389 1_554 S
C330 H309 0.949 . S
C330 C329 1.389 1_556 S
C330 C331 1.387 . S
C331 C330 1.387 . S
C331 C332 1.372 . S
C332 H310 0.950 . S
C332 C331 1.372 . S
C332 C333 1.379 1_556 S
C333 H311 0.948 . S
C333 C328 1.364 . S
C333 C332 1.379 1_554 S
C334 C303 1.383 . S
C334 C321 1.479 . S
C334 C335 1.398 . S
C335 C300 1.382 . S
C335 H312 0.951 . S
C335 C334 1.398 . S
C336 C337 1.363 . S
C336 C342 1.379 . S
C336 N344 1.356 . S
C337 C336 1.363 . S
C337 C343 1.363 . S
C338 C339 1.363 . S
C338 C343 1.379 . S
C338 N345 1.356 . S
C339 C338 1.363 . S
C339 C342 1.363 . S
N340 C342 1.356 . S
N340 H352 0.984 . S
N340 H353 0.985 . S
N341 C343 1.356 . S
N341 H346 0.984 . S
N341 H347 0.985 . S
C342 C336 1.379 . S
C342 C339 1.363 . S
C342 N340 1.356 . S
C343 C337 1.363 . S
C343 C338 1.379 . S
C343 N341 1.356 . S
N344 C336 1.356 . S
N344 H350 0.984 . S
N344 H351 0.984 . S
N345 C338 1.356 . S
N345 H348 0.984 . S
N345 H349 0.985 . S
H346 N341 0.984 . S
H347 N341 0.985 . S
H348 N345 0.984 . S
H349 N345 0.985 . S
H350 N344 0.984 . S
H351 N344 0.984 . S
H352 N340 0.984 . S
H353 N340 0.985 . S
C354 C355 1.363 . S
C354 C360 1.379 . S
C354 N362 1.356 . S
C355 C354 1.363 . S
C355 C361 1.363 . S
C356 C357 1.363 . S
C356 C361 1.379 . S
C356 N363 1.356 . S
C357 C356 1.363 . S
C357 C360 1.363 . S
N358 C360 1.356 . S
N358 H370 0.984 . S
N358 H371 0.985 . S
N359 C361 1.356 . S
N359 H364 0.984 . S
N359 H365 0.985 . S
C360 C354 1.379 . S
C360 C357 1.363 . S
C360 N358 1.356 . S
C361 C355 1.363 . S
C361 C356 1.379 . S
C361 N359 1.356 . S
N362 C354 1.356 . S
N362 H368 0.984 . S
N362 H369 0.984 . S
N363 C356 1.356 . S
N363 H366 0.984 . S
N363 H367 0.985 . S
H364 N359 0.984 . S
H365 N359 0.985 . S
H366 N363 0.984 . S
H367 N363 0.985 . S
H368 N362 0.984 . S
H369 N362 0.984 . S
H370 N358 0.984 . S
H371 N358 0.985 . S
C372 C373 1.363 . S
C372 C378 1.379 . S
C372 N380 1.356 . S
C373 C372 1.363 . S
C373 C379 1.363 . S
C374 C375 1.363 . S
C374 C379 1.379 . S
C374 N381 1.356 . S
C375 C374 1.363 . S
C375 C378 1.363 . S
N376 C378 1.356 . S
N376 H388 0.984 . S
N376 H389 0.985 . S
N377 C379 1.356 . S
N377 H382 0.984 . S
N377 H383 0.985 . S
C378 C372 1.379 . S
C378 C375 1.363 . S
C378 N376 1.356 . S
C379 C373 1.363 . S
C379 C374 1.379 . S
C379 N377 1.356 . S
N380 C372 1.356 . S
N380 H386 0.984 . S
N380 H387 0.984 . S
N381 C374 1.356 . S
N381 H384 0.984 . S
N381 H385 0.985 . S
H382 N377 0.984 . S
H383 N377 0.985 . S
H384 N381 0.984 . S
H385 N381 0.985 . S
H386 N380 0.984 . S
H387 N380 0.984 . S
H388 N376 0.984 . S
H389 N376 0.985 . S
C390 C391 1.363 . S
C390 C396 1.379 . S
C390 N398 1.356 . S
C391 C390 1.363 . S
C391 C397 1.363 . S
C392 C393 1.363 . S
C392 C397 1.379 . S
C392 N399 1.356 . S
C393 C392 1.363 . S
C393 C396 1.363 . S
N394 C396 1.356 . S
N394 H406 0.984 . S
N394 H407 0.985 . S
N395 C397 1.356 . S
N395 H400 0.984 . S
N395 H401 0.985 . S
C396 C390 1.379 . S
C396 C393 1.363 . S
C396 N394 1.356 . S
C397 C391 1.363 . S
C397 C392 1.379 . S
C397 N395 1.356 . S
N398 C390 1.356 . S
N398 H404 0.984 . S
N398 H405 0.984 . S
N399 C392 1.356 . S
N399 H402 0.984 . S
N399 H403 0.985 . S
H400 N395 0.984 . S
H401 N395 0.985 . S
H402 N399 0.984 . S
H403 N399 0.985 . S
H404 N398 0.984 . S
H405 N398 0.984 . S
H406 N394 0.984 . S
H407 N394 0.985 . S
C408 C409 1.363 . S
C408 C414 1.379 . S
C408 N416 1.356 . S
C409 C408 1.363 . S
C409 C415 1.363 . S
C410 C411 1.363 . S
C410 C415 1.379 . S
C410 N417 1.356 . S
C411 C410 1.363 . S
C411 C414 1.363 . S
N412 C414 1.356 . S
N412 H424 0.984 . S
N412 H425 0.985 . S
N413 C415 1.356 . S
N413 H418 0.984 . S
N413 H419 0.985 . S
C414 C408 1.379 . S
C414 C411 1.363 . S
C414 N412 1.356 . S
C415 C409 1.363 . S
C415 C410 1.379 . S
C415 N413 1.356 . S
N416 C408 1.356 . S
N416 H422 0.984 . S
N416 H423 0.984 . S
N417 C410 1.356 . S
N417 H420 0.984 . S
N417 H421 0.985 . S
H418 N413 0.984 . S
H419 N413 0.985 . S
H420 N417 0.984 . S
H421 N417 0.985 . S
H422 N416 0.984 . S
H423 N416 0.984 . S
H424 N412 0.984 . S
H425 N412 0.985 . S
C426 C427 1.363 . S
C426 C432 1.379 . S
C426 N434 1.356 . S
C427 C426 1.363 . S
C427 C433 1.363 . S
C428 C429 1.363 . S
C428 C433 1.379 . S
C428 N435 1.356 . S
C429 C428 1.363 . S
C429 C432 1.363 . S
N430 C432 1.356 . S
N430 H442 0.984 . S
N430 H443 0.985 . S
N431 C433 1.356 . S
N431 H436 0.984 . S
N431 H437 0.985 . S
C432 C426 1.379 . S
C432 C429 1.363 . S
C432 N430 1.356 . S
C433 C427 1.363 . S
C433 C428 1.379 . S
C433 N431 1.356 . S
N434 C426 1.356 . S
N434 H440 0.984 . S
N434 H441 0.984 . S
N435 C428 1.356 . S
N435 H438 0.984 . S
N435 H439 0.985 . S
H436 N431 0.984 . S
H437 N431 0.985 . S
H438 N435 0.984 . S
H439 N435 0.985 . S
H440 N434 0.984 . S
H441 N434 0.984 . S
H442 N430 0.984 . S
H443 N430 0.985 . S
C444 C445 1.363 . S
C444 C450 1.379 . S
C444 N452 1.356 . S
C445 C444 1.363 . S
C445 C451 1.363 . S
C446 C447 1.363 . S
C446 C451 1.379 . S
C446 N453 1.356 . S
C447 C446 1.363 . S
C447 C450 1.363 . S
N448 C450 1.356 . S
N448 H460 0.984 . S
N448 H461 0.985 . S
N449 C451 1.356 . S
N449 H454 0.984 . S
N449 H455 0.985 . S
C450 C444 1.379 . S
C450 C447 1.363 . S
C450 N448 1.356 . S
C451 C445 1.363 . S
C451 C446 1.379 . S
C451 N449 1.356 . S
N452 C444 1.356 . S
N452 H458 0.984 . S
N452 H459 0.984 . S
N453 C446 1.356 . S
N453 H456 0.984 . S
N453 H457 0.985 . S
H454 N449 0.984 . S
H455 N449 0.985 . S
H456 N453 0.984 . S
H457 N453 0.985 . S
H458 N452 0.984 . S
H459 N452 0.984 . S
H460 N448 0.984 . S
H461 N448 0.985 . S
C462 C463 1.363 . S
C462 C468 1.379 . S
C462 N470 1.356 . S
C463 C462 1.363 . S
C463 C469 1.363 . S
C464 C465 1.363 . S
C464 C469 1.379 . S
C464 N471 1.356 . S
C465 C464 1.363 . S
C465 C468 1.363 . S
N466 C468 1.356 . S
N466 H478 0.984 . S
N466 H479 0.985 . S
N467 C469 1.356 . S
N467 H472 0.984 . S
N467 H473 0.985 . S
C468 C462 1.379 . S
C468 C465 1.363 . S
C468 N466 1.356 . S
C469 C463 1.363 . S
C469 C464 1.379 . S
C469 N467 1.356 . S
N470 C462 1.356 . S
N470 H476 0.984 . S
N470 H477 0.984 . S
N471 C464 1.356 . S
N471 H474 0.984 . S
N471 H475 0.985 . S
H472 N467 0.984 . S
H473 N467 0.985 . S
H474 N471 0.984 . S
H475 N471 0.985 . S
H476 N470 0.984 . S
H477 N470 0.984 . S
H478 N466 0.984 . S
H479 N466 0.985 . S
C480 C481 1.363 . S
C480 C486 1.379 . S
C480 N488 1.356 . S
C481 C480 1.363 . S
C481 C487 1.363 . S
C482 C483 1.363 . S
C482 C487 1.379 . S
C482 N489 1.356 . S
C483 C482 1.363 . S
C483 C486 1.363 . S
N484 C486 1.356 . S
N484 H496 0.984 . S
N484 H497 0.985 . S
N485 C487 1.356 . S
N485 H490 0.984 . S
N485 H491 0.985 . S
C486 C480 1.379 . S
C486 C483 1.363 . S
C486 N484 1.356 . S
C487 C481 1.363 . S
C487 C482 1.379 . S
C487 N485 1.356 . S
N488 C480 1.356 . S
N488 H494 0.984 . S
N488 H495 0.984 . S
N489 C482 1.356 . S
N489 H492 0.984 . S
N489 H493 0.985 . S
H490 N485 0.984 . S
H491 N485 0.985 . S
H492 N489 0.984 . S
H493 N489 0.985 . S
H494 N488 0.984 . S
H495 N488 0.984 . S
H496 N484 0.984 . S
H497 N484 0.985 . S
C498 C499 1.363 . S
C498 C504 1.379 . S
C498 N506 1.356 . S
C499 C498 1.363 . S
C499 C505 1.363 . S
C500 C501 1.363 . S
C500 C505 1.379 . S
C500 N507 1.356 . S
C501 C500 1.363 . S
C501 C504 1.363 . S
N502 C504 1.356 . S
N502 H514 0.984 . S
N502 H515 0.985 . S
N503 C505 1.356 . S
N503 H508 0.984 . S
N503 H509 0.985 . S
C504 C498 1.379 . S
C504 C501 1.363 . S
C504 N502 1.356 . S
C505 C499 1.363 . S
C505 C500 1.379 . S
C505 N503 1.356 . S
N506 C498 1.356 . S
N506 H512 0.984 . S
N506 H513 0.984 . S
N507 C500 1.356 . S
N507 H510 0.984 . S
N507 H511 0.985 . S
H508 N503 0.984 . S
H509 N503 0.985 . S
H510 N507 0.984 . S
H511 N507 0.985 . S
H512 N506 0.984 . S
H513 N506 0.984 . S
H514 N502 0.984 . S
H515 N502 0.985 . S
C516 C517 1.363 . S
C516 C522 1.379 . S
C516 N524 1.356 . S
C517 C516 1.363 . S
C517 C523 1.363 . S
C518 C519 1.363 . S
C518 C523 1.379 . S
C518 N525 1.356 . S
C519 C518 1.363 . S
C519 C522 1.363 . S
N520 C522 1.356 . S
N520 H532 0.984 . S
N520 H533 0.985 . S
N521 C523 1.356 . S
N521 H526 0.984 . S
N521 H527 0.985 . S
C522 C516 1.379 . S
C522 C519 1.363 . S
C522 N520 1.356 . S
C523 C517 1.363 . S
C523 C518 1.379 . S
C523 N521 1.356 . S
N524 C516 1.356 . S
N524 H530 0.984 . S
N524 H531 0.984 . S
N525 C518 1.356 . S
N525 H528 0.984 . S
N525 H529 0.985 . S
H526 N521 0.984 . S
H527 N521 0.985 . S
H528 N525 0.984 . S
H529 N525 0.985 . S
H530 N524 0.984 . S
H531 N524 0.984 . S
H532 N520 0.984 . S
H533 N520 0.985 . S
C534 C535 1.363 . S
C534 C540 1.379 . S
C534 N542 1.356 . S
C535 C534 1.363 . S
C535 C541 1.363 . S
C536 C537 1.363 . S
C536 C541 1.379 . S
C536 N543 1.356 . S
C537 C536 1.363 . S
C537 C540 1.363 . S
N538 C540 1.356 . S
N538 H550 0.984 . S
N538 H551 0.985 . S
N539 C541 1.356 . S
N539 H544 0.984 . S
N539 H545 0.985 . S
C540 C534 1.379 . S
C540 C537 1.363 . S
C540 N538 1.356 . S
C541 C535 1.363 . S
C541 C536 1.379 . S
C541 N539 1.356 . S
N542 C534 1.356 . S
N542 H548 0.984 . S
N542 H549 0.984 . S
N543 C536 1.356 . S
N543 H546 0.984 . S
N543 H547 0.985 . S
H544 N539 0.984 . S
H545 N539 0.985 . S
H546 N543 0.984 . S
H547 N543 0.985 . S
H548 N542 0.984 . S
H549 N542 0.984 . S
H550 N538 0.984 . S
H551 N538 0.985 . S
C552 C553 1.363 . S
C552 C558 1.379 . S
C552 N560 1.356 . S
C553 C552 1.363 . S
C553 C559 1.363 . S
C554 C555 1.363 . S
C554 C559 1.379 . S
C554 N561 1.356 . S
C555 C554 1.363 . S
C555 C558 1.363 . S
N556 C558 1.356 . S
N556 H568 0.984 . S
N556 H569 0.985 . S
N557 C559 1.356 . S
N557 H562 0.984 . S
N557 H563 0.985 . S
C558 C552 1.379 . S
C558 C555 1.363 . S
C558 N556 1.356 . S
C559 C553 1.363 . S
C559 C554 1.379 . S
C559 N557 1.356 . S
N560 C552 1.356 . S
N560 H566 0.984 . S
N560 H567 0.984 . S
N561 C554 1.356 . S
N561 H564 0.984 . S
N561 H565 0.985 . S
H562 N557 0.984 . S
H563 N557 0.985 . S
H564 N561 0.984 . S
H565 N561 0.985 . S
H566 N560 0.984 . S
H567 N560 0.984 . S
H568 N556 0.984 . S
H569 N556 0.985 . S
C570 C571 1.363 . S
C570 C576 1.379 . S
C570 N578 1.356 . S
C571 C570 1.363 . S
C571 C577 1.363 . S
C572 C573 1.363 . S
C572 C577 1.379 . S
C572 N579 1.356 1_545 S
C573 C572 1.363 . S
C573 C576 1.363 . S
N574 C576 1.356 . S
N574 H586 0.984 . S
N574 H587 0.985 . S
N575 C577 1.356 1_565 S
N575 H580 0.984 . S
N575 H581 0.985 . S
C576 C570 1.379 . S
C576 C573 1.363 . S
C576 N574 1.356 . S
C577 C571 1.363 . S
C577 C572 1.379 . S
C577 N575 1.356 1_545 S
N578 C570 1.356 . S
N578 H584 0.984 . S
N578 H585 0.984 . S
N579 C572 1.356 1_565 S
N579 H582 0.984 . S
N579 H583 0.985 . S
H580 N575 0.984 . S
H581 N575 0.985 . S
H582 N579 0.984 . S
H583 N579 0.985 . S
H584 N578 0.984 . S
H585 N578 0.984 . S
H586 N574 0.984 . S
H587 N574 0.985 . S
C588 C589 1.363 . S
C588 C594 1.379 . S
C588 N596 1.356 . S
C589 C588 1.363 . S
C589 C595 1.363 . S
C590 C591 1.363 . S
C590 C595 1.379 . S
C590 N597 1.356 . S
C591 C590 1.363 . S
C591 C594 1.363 . S
N592 C594 1.356 . S
N592 H604 0.984 . S
N592 H605 0.985 . S
N593 C595 1.356 . S
N593 H598 0.984 . S
N593 H599 0.985 . S
C594 C588 1.379 . S
C594 C591 1.363 . S
C594 N592 1.356 . S
C595 C589 1.363 . S
C595 C590 1.379 . S
C595 N593 1.356 . S
N596 C588 1.356 . S
N596 H602 0.984 . S
N596 H603 0.984 . S
N597 C590 1.356 . S
N597 H600 0.984 . S
N597 H601 0.985 . S
H598 N593 0.984 . S
H599 N593 0.985 . S
H600 N597 0.984 . S
H601 N597 0.985 . S
H602 N596 0.984 . S
H603 N596 0.984 . S
H604 N592 0.984 . S
H605 N592 0.985 . S
C606 C607 1.363 . S
C606 C612 1.379 . S
C606 N614 1.356 . S
C607 C606 1.363 . S
C607 C613 1.363 1_545 S
C608 C609 1.363 1_565 S
C608 C613 1.379 . S
C608 N615 1.356 . S
C609 C608 1.363 1_545 S
C609 C612 1.363 . S
N610 C612 1.356 . S
N610 H622 0.984 . S
N610 H623 0.985 . S
N611 C613 1.356 . S
N611 H616 0.984 . S
N611 H617 0.985 . S
C612 C606 1.379 . S
C612 C609 1.363 . S
C612 N610 1.356 . S
C613 C607 1.363 1_565 S
C613 C608 1.379 . S
C613 N611 1.356 . S
N614 C606 1.356 . S
N614 H620 0.984 . S
N614 H621 0.984 . S
N615 C608 1.356 . S
N615 H618 0.984 . S
N615 H619 0.985 . S
H616 N611 0.984 . S
H617 N611 0.985 . S
H618 N615 0.984 . S
H619 N615 0.985 . S
H620 N614 0.984 . S
H621 N614 0.984 . S
H622 N610 0.984 . S
H623 N610 0.985 . S
C624 C625 1.363 . S
C624 C630 1.379 . S
C624 N632 1.356 . S
C625 C624 1.363 . S
C625 C631 1.363 . S
C626 C627 1.363 . S
C626 C631 1.379 . S
C626 N633 1.356 . S
C627 C626 1.363 . S
C627 C630 1.363 . S
N628 C630 1.356 . S
N628 H640 0.984 . S
N628 H641 0.985 . S
N629 C631 1.356 . S
N629 H634 0.984 . S
N629 H635 0.985 . S
C630 C624 1.379 . S
C630 C627 1.363 . S
C630 N628 1.356 . S
C631 C625 1.363 . S
C631 C626 1.379 . S
C631 N629 1.356 . S
N632 C624 1.356 . S
N632 H638 0.984 . S
N632 H639 0.984 . S
N633 C626 1.356 . S
N633 H636 0.984 . S
N633 H637 0.985 . S
H634 N629 0.984 . S
H635 N629 0.985 . S
H636 N633 0.984 . S
H637 N633 0.985 . S
H638 N632 0.984 . S
H639 N632 0.984 . S
H640 N628 0.984 . S
H641 N628 0.985 . S
C642 C643 1.363 1_655 S
C642 C648 1.379 . S
C642 N650 1.356 . S
C643 C642 1.363 1_455 S
C643 C649 1.363 . S
C644 C645 1.363 . S
C644 C649 1.379 . S
C644 N651 1.356 . S
C645 C644 1.363 . S
C645 C648 1.363 1_455 S
N646 C648 1.356 . S
N646 H658 0.984 . S
N646 H659 0.985 . S
N647 C649 1.356 . S
N647 H652 0.984 . S
N647 H653 0.985 . S
C648 C642 1.379 . S
C648 C645 1.363 1_655 S
C648 N646 1.356 . S
C649 C643 1.363 . S
C649 C644 1.379 . S
C649 N647 1.356 . S
N650 C642 1.356 . S
N650 H656 0.984 . S
N650 H657 0.984 . S
N651 C644 1.356 . S
N651 H654 0.984 . S
N651 H655 0.985 . S
H652 N647 0.984 . S
H653 N647 0.985 . S
H654 N651 0.984 . S
H655 N651 0.985 . S
H656 N650 0.984 . S
H657 N650 0.984 . S
H658 N646 0.984 . S
H659 N646 0.985 . S
C337 C9 0.740 . S
C339 C325 0.735 . S
C355 C49 0.524 . S
C357 C253 0.481 . S
C373 C89 0.530 . S
C375 C289 0.520 . S
C391 C26 0.663 . S
C393 C301 0.609 . S
C411 C229 0.716 . S
C409 C66 0.730 . S
C429 C265 0.781 . S
C427 C106 0.768 . S
C445 C43 3.056 . S
C447 C181 2.960 . S
C463 C83 3.179 . S
C465 C193 3.108 . S
C481 C22 3.229 . S
C483 C121 3.154 . S
C501 C157 3.157 . S
C499 C62 3.228 . S
C519 C217 3.004 . S
C517 C102 3.104 . S
C535 C3 3.056 . S
C537 C145 2.966 . S
C555 C223 1.805 1_554 S
C553 C15 1.748 . S
C571 C55 1.764 . S
C573 C151 1.807 . S
C589 C95 1.758 . S
C591 C187 1.803 . S
C609 C295 1.041 . S
C607 C42 1.059 . S
C627 C331 1.063 . S
C625 C82 1.062 . S
C643 C2 1.044 . S
C645 C259 1.029 . S
