# Generated by pormake.
# Topology zzz, (3,6)-cn, num edge types: 1
# Building blocks:
#     Node 0, Type 0, BuildingBlock: BETDAH_clean_linker_0, # of connection points: 3
#     Node 1, Type 0, BuildingBlock: BETDAH_clean_linker_0, # of connection points: 3
#     Node 2, Type 0, BuildingBlock: BETDAH_clean_linker_0, # of connection points: 3
#     Node 3, Type 0, BuildingBlock: BETDAH_clean_linker_0, # of connection points: 3
#     Node 4, Type 0, BuildingBlock: BETDAH_clean_linker_0, # of connection points: 3
#     Node 5, Type 0, BuildingBlock: BETDAH_clean_linker_0, # of connection points: 3
#     Node 6, Type 0, BuildingBlock: BETDAH_clean_linker_0, # of connection points: 3
#     Node 7, Type 0, BuildingBlock: BETDAH_clean_linker_0, # of connection points: 3
#     Node 8, Type 1, BuildingBlock: JUFBIX_clean_sbu_0, # of connection points: 6
#     Node 9, Type 1, BuildingBlock: JUFBIX_clean_sbu_0, # of connection points: 6
#     Node 10, Type 1, BuildingBlock: JUFBIX_clean_sbu_0, # of connection points: 6
#     Node 11, Type 1, BuildingBlock: JUFBIX_clean_sbu_0, # of connection points: 6
#     Edge 12, Type (0, 1), BuildingBlock: EYOCIG_clean_linker_4, # of connection points: 2
#     Edge 13, Type (0, 1), BuildingBlock: EYOCIG_clean_linker_4, # of connection points: 2
#     Edge 14, Type (0, 1), BuildingBlock: EYOCIG_clean_linker_4, # of connection points: 2
#     Edge 15, Type (0, 1), BuildingBlock: EYOCIG_clean_linker_4, # of connection points: 2
#     Edge 16, Type (0, 1), BuildingBlock: EYOCIG_clean_linker_4, # of connection points: 2
#     Edge 17, Type (0, 1), BuildingBlock: EYOCIG_clean_linker_4, # of connection points: 2
#     Edge 18, Type (0, 1), BuildingBlock: EYOCIG_clean_linker_4, # of connection points: 2
#     Edge 19, Type (0, 1), BuildingBlock: EYOCIG_clean_linker_4, # of connection points: 2
#     Edge 20, Type (0, 1), BuildingBlock: EYOCIG_clean_linker_4, # of connection points: 2
#     Edge 21, Type (0, 1), BuildingBlock: EYOCIG_clean_linker_4, # of connection points: 2
#     Edge 22, Type (0, 1), BuildingBlock: EYOCIG_clean_linker_4, # of connection points: 2
#     Edge 23, Type (0, 1), BuildingBlock: EYOCIG_clean_linker_4, # of connection points: 2
#     Edge 24, Type (0, 1), BuildingBlock: EYOCIG_clean_linker_4, # of connection points: 2
#     Edge 25, Type (0, 1), BuildingBlock: EYOCIG_clean_linker_4, # of connection points: 2
#     Edge 26, Type (0, 1), BuildingBlock: EYOCIG_clean_linker_4, # of connection points: 2
#     Edge 27, Type (0, 1), BuildingBlock: EYOCIG_clean_linker_4, # of connection points: 2
#     Edge 28, Type (0, 1), BuildingBlock: EYOCIG_clean_linker_4, # of connection points: 2
#     Edge 29, Type (0, 1), BuildingBlock: EYOCIG_clean_linker_4, # of connection points: 2
#     Edge 30, Type (0, 1), BuildingBlock: EYOCIG_clean_linker_4, # of connection points: 2
#     Edge 31, Type (0, 1), BuildingBlock: EYOCIG_clean_linker_4, # of connection points: 2
#     Edge 32, Type (0, 1), BuildingBlock: EYOCIG_clean_linker_4, # of connection points: 2
#     Edge 33, Type (0, 1), BuildingBlock: EYOCIG_clean_linker_4, # of connection points: 2
#     Edge 34, Type (0, 1), BuildingBlock: EYOCIG_clean_linker_4, # of connection points: 2
#     Edge 35, Type (0, 1), BuildingBlock: EYOCIG_clean_linker_4, # of connection points: 2
# Relax obj value: 0.114
# Max RMSD: 0.173
# Mean RMSD: 0.084
data_MOF--net-zzz--node1-JUFBIX_clean_sbu_0--node2-BETDAH_clean_linker_0--edge1-EYOCIG_clean_linker_4
_symmetry_space_group_name_H-M    P1
_symmetry_Int_Tables_number       1
_symmetry_cell_setting            triclinic
loop_
_symmetry_equiv_pos_as_xyz
'x, y, z'
_cell_length_a     40.402889
_cell_length_b     39.89463
_cell_length_c     14.655127
_cell_angle_alpha  79.078174
_cell_angle_beta   90.161961
_cell_angle_gamma 90.703407
loop_
_atom_site_label
_atom_site_type_symbol
_atom_site_fract_x
_atom_site_fract_y
_atom_site_fract_z
_atom_type_partial_charge
H0 H 0.92794 0.53474 0.28381 0.0
H1 H 0.83534 0.53492 0.13882 0.0
H2 H 0.84045 0.57072 0.3988 0.0
C3 C 0.90158 0.53982 0.27984 0.0
C4 C 0.88631 0.55332 0.34996 0.0
C5 C 0.88326 0.53315 0.20412 0.0
C6 C 0.84923 0.53987 0.19829 0.0
C7 C 0.83357 0.55359 0.26878 0.0
C8 C 0.85235 0.56021 0.34444 0.0
N9 N 0.79928 0.56137 0.26567 0.0
C10 C 0.77762 0.55556 0.19615 0.0
H11 H 1.01571 0.87782 0.2581 0.0
H12 H 1.01366 0.78752 0.13954 0.0
H13 H 0.97274 0.78525 0.413 0.0
C14 C 1.00935 0.85096 0.26397 0.0
C15 C 0.99366 0.83347 0.34396 0.0
C16 C 1.01656 0.83437 0.1909 0.0
C17 C 1.00822 0.79988 0.19742 0.0
C18 C 0.99223 0.78185 0.27781 0.0
C19 C 0.98502 0.7989 0.35107 0.0
N20 N 0.98284 0.74691 0.28638 0.0
C21 C 0.98967 0.72764 0.21899 0.0
H22 H 0.69564 1.02772 0.15769 0.0
H23 H 0.78751 0.03559 0.00745 0.0
H24 H 0.78722 1.01191 0.30783 0.0
C25 C 0.72251 1.02662 0.15774 0.0
C26 C 0.7394 1.01914 0.2419 0.0
C27 C 0.73967 0.0326 0.07364 0.0
C28 C 0.77437 0.03107 0.07305 0.0
C29 C 0.79174 1.02352 0.15819 0.0
C30 C 0.774 1.01767 0.24236 0.0
N31 N 0.82682 1.02153 0.1627 0.0
C32 C 0.84801 1.02479 0.08675 0.0
H33 H 0.55752 0.65383 0.2057 0.0
H34 H 0.55288 0.75416 0.03523 0.0
H35 H 0.57119 0.74211 0.33016 0.0
C36 C 0.55893 0.68141 0.19897 0.0
C37 C 0.56491 0.69554 0.27741 0.0
C38 C 0.55459 0.70234 0.11202 0.0
C39 C 0.55624 0.73806 0.10286 0.0
C40 C 0.56234 0.75259 0.18215 0.0
C41 C 0.56666 0.73107 0.26908 0.0
N42 N 0.5643 0.78844 0.1784 0.0
C43 C 0.56027 0.81373 0.09961 0.0
H44 H 0.16001 0.52279 0.30391 0.0
H45 H 0.25211 0.52096 0.45194 0.0
H46 H 0.24729 0.4852 0.19187 0.0
C47 C 0.18628 0.51724 0.30873 0.0
C48 C 0.20156 0.50347 0.23912 0.0
C49 C 0.20446 0.52359 0.38503 0.0
C50 C 0.23834 0.51626 0.39199 0.0
C51 C 0.254 0.50224 0.32207 0.0
C52 C 0.23537 0.49595 0.24579 0.0
N53 N 0.28814 0.4938 0.32641 0.0
C54 C 0.30964 0.49938 0.39652 0.0
H55 H 0.07063 0.18 0.33325 0.0
H56 H 0.07515 0.26975 0.45403 0.0
H57 H 0.11723 0.27125 0.18232 0.0
C58 C 0.07788 0.2066 0.32828 0.0
C59 C 0.09445 0.22371 0.24933 0.0
C60 C 0.07091 0.22323 0.40145 0.0
C61 C 0.0804 0.25737 0.39605 0.0
C62 C 0.0973 0.27499 0.31674 0.0
C63 C 0.10426 0.25791 0.24342 0.0
N64 N 0.10783 0.30955 0.30932 0.0
C65 C 0.10091 0.32902 0.37619 0.0
H66 H 0.39281 0.03085 0.42885 0.0
H67 H 0.30085 1.02325 0.57864 0.0
H68 H 0.30139 0.0476 0.27832 0.0
C69 C 0.36595 0.03212 0.42869 0.0
C70 C 0.34913 0.0399 0.34448 0.0
C71 C 0.34873 1.02608 0.5127 0.0
C72 C 0.31404 1.02783 0.51312 0.0
C73 C 0.29675 0.03568 0.42789 0.0
C74 C 0.31455 0.04162 0.34385 0.0
N75 N 0.26169 0.0379 0.42315 0.0
C76 C 0.24042 0.03434 0.49897 0.0
H77 H 0.52958 0.40363 0.38186 0.0
H78 H 0.53423 0.30321 0.5519 0.0
H79 H 0.51592 0.31547 0.25693 0.0
C80 C 0.52818 0.37606 0.38848 0.0
C81 C 0.52221 0.36199 0.30994 0.0
C82 C 0.53251 0.35508 0.47536 0.0
C83 C 0.53087 0.31936 0.48433 0.0
C84 C 0.52478 0.30489 0.40493 0.0
C85 C 0.52045 0.32647 0.3181 0.0
N86 N 0.52282 0.26906 0.40842 0.0
C87 C 0.52709 0.24369 0.4869 0.0
Co88 Co 0.05112 0.03971 0.85619 0.0
C89 C 0.98272 0.02899 0.85461 0.0
Co90 Co 0.03264 1.0188 0.73517 0.0
C91 C 0.07986 0.08928 0.95452 0.0
C92 C 0.05975 0.04592 0.04756 0.0
N93 N 0.06531 0.05844 0.95657 0.0
N94 N 0.08308 0.09646 0.04013 0.0
C95 C 0.07065 0.06938 0.09917 0.0
H96 H 0.08638 0.10693 0.89136 0.0
H97 H 0.04706 1.02207 0.07433 0.0
C98 C 0.10105 0.02952 0.73688 0.0
N99 N 1.01849 1.00001 0.63474 0.0
C100 C 1.00461 0.96885 0.63679 0.0
C101 C 0.02375 1.0127 0.54369 0.0
N102 N 1.00156 0.96164 0.55118 0.0
C103 C 1.01337 0.98903 0.4921 0.0
C104 C 0.03439 0.08894 0.70299 0.0
O105 O 0.09544 0.03987 0.81214 0.0
O106 O 0.07722 1.01919 0.69212 0.0
O107 O 0.02693 0.06364 0.66569 0.0
O108 O 0.04522 0.08413 0.78554 0.0
O109 O 0.98828 1.0186 0.77936 0.0
H110 H 0.03598 0.03681 0.51685 0.0
H111 H 0.99856 0.95098 0.69995 0.0
O112 O 1.00657 0.03936 0.89919 0.0
O113 O 0.05683 0.99489 0.9257 0.0
O114 O 0.03862 0.97439 0.80581 0.0
C115 C 0.04947 0.96959 0.88831 0.0
H116 H 0.06804 0.06753 0.17349 0.0
H117 H 1.01601 0.99096 0.41776 0.0
Co118 Co 0.53463 0.03322 0.86115 0.0
C119 C 0.54917 0.96513 0.858 0.0
Co120 Co 0.5537 1.02439 0.72582 0.0
C121 C 0.48524 0.04955 -0.01362 0.0
C122 C 0.52851 1.02861 0.0595 0.0
N123 N 0.51623 0.03898 0.97309 0.0
N124 N 0.47767 0.0455 0.077 0.0
C125 C 0.50469 0.03256 0.12376 0.0
H126 H 0.4678 0.05812 0.9309 0.0
H127 H 0.55245 1.01702 0.0748 0.0
C128 C 0.53914 0.09248 0.72901 0.0
N129 N 0.57213 1.01867 0.61382 0.0
C130 C 0.60322 1.00838 0.60038 0.0
C131 C 0.55978 0.02895 0.52745 0.0
N132 N 0.61078 1.01254 0.50972 0.0
C133 C 0.58364 1.02524 0.46309 0.0
C134 C 0.48617 1.01878 0.73704 0.0
O135 O 0.5308 0.08095 0.81274 0.0
O136 O 0.5497 0.07223 0.67864 0.0
O137 O 0.51017 1.01682 0.68257 0.0
O138 O 0.49164 1.02551 0.81671 0.0
O139 O 0.55753 0.97665 0.77426 0.0
H140 H 0.53576 0.04036 0.51224 0.0
H141 H 0.62073 0.99996 0.65577 0.0
O142 O 0.53861 0.9854 0.90832 0.0
O143 O 0.57814 0.0408 0.90441 0.0
O144 O 0.59667 0.03212 0.77026 0.0
C145 C 0.60214 0.03887 0.84991 0.0
H146 H 0.50638 1.02474 0.19851 0.0
H147 H 0.5819 0.03308 0.38835 0.0
Co148 Co 0.57055 0.52569 0.81147 0.0
C149 C 0.52742 0.48606 0.93797 0.0
Co150 Co 0.51674 0.53178 0.77579 0.0
C151 C 0.63414 0.53597 0.89951 0.0
C152 C 0.6352 0.49364 0.82935 0.0
N153 N 0.61533 0.51891 0.84608 0.0
N154 N 0.66434 0.52222 0.91612 0.0
C155 C 0.66527 0.49565 0.87242 0.0
H156 H 0.62575 0.55742 0.92829 0.0
H157 H 0.62829 0.47411 0.7907 0.0
C158 C 0.55989 0.57142 0.64926 0.0
N159 N 0.47215 0.53876 0.74085 0.0
C160 C 0.45195 0.5193 0.69765 0.0
C161 C 0.45432 0.56709 0.74344 0.0
N162 N 0.42282 0.53455 0.67348 0.0
C163 C 0.42402 0.56449 0.70218 0.0
C164 C 0.54113 0.57862 0.87789 0.0
O165 O 0.58281 0.55711 0.70182 0.0
O166 O 0.52977 0.56339 0.66772 0.0
O167 O 0.51522 0.56846 0.84197 0.0
O168 O 0.56809 0.56293 0.87509 0.0
O169 O 0.50451 0.5 0.88467 0.0
H170 H 0.46311 0.58917 0.76949 0.0
H171 H 0.45882 0.49513 0.68038 0.0
O172 O 0.55752 0.49445 0.92026 0.0
O173 O 0.57183 0.48862 0.74671 0.0
O174 O 0.51924 0.49494 0.7107 0.0
C175 C 0.54604 0.47884 0.70936 0.0
H176 H 0.68582 0.47839 0.87383 0.0
H177 H 0.40499 0.58371 0.69036 0.0
Co178 Co 0.04534 0.55529 0.80956 0.0
C179 C 0.08773 0.5078 0.91516 0.0
Co180 Co 0.04265 0.50266 0.77882 0.0
C181 C 0.02651 0.61258 0.89461 0.0
C182 C 0.07531 0.61874 0.83696 0.0
N183 N 0.04833 0.59797 0.84453 0.0
N184 N 0.03905 0.64107 0.91875 0.0
C185 C 0.0696 0.64528 0.88256 0.0
H186 H 1.00257 0.60172 0.9173 0.0
H187 H 0.09843 0.61399 0.80498 0.0
C188 C 1.0003 0.55015 0.67306 0.0
N189 N 0.03964 0.46003 0.74395 0.0
C190 C 0.06192 0.44491 0.69655 0.0
C191 C 1.01229 0.4399 0.74849 0.0
N192 N 0.04931 0.41668 0.67107 0.0
C193 C 1.01823 0.4132 0.70368 0.0
C194 C 0.99787 0.51239 0.9114 0.0
O195 O 1.01278 0.57152 0.71813 0.0
O196 O 1.01021 0.51949 0.68799 0.0
O197 O 1.00836 0.49 0.86806 0.0
O198 O 1.01108 0.54189 0.89761 0.0
O199 O 0.07522 0.48644 0.87011 0.0
H200 H 0.98883 0.44526 0.77767 0.0
H201 H 0.08628 0.45527 0.67655 0.0
O202 O 0.07779 0.53845 0.90041 0.0
O203 O 0.07966 0.56789 0.72033 0.0
O204 O 0.07687 0.51601 0.69069 0.0
C205 C 0.09011 0.54549 0.67693 0.0
H206 H 0.0871 0.66504 0.89259 0.0
H207 H 1.00058 0.39386 0.69156 0.0
C208 C 0.19137 0.03053 0.61685 0.0
C209 C 0.21929 0.03205 0.55803 0.0
C210 C 0.16571 0.03004 0.65914 0.0
C211 C 0.13414 0.03029 0.70064 0.0
C212 C 0.53259 0.19164 0.60027 0.0
C213 C 0.53014 0.2187 0.54734 0.0
C214 C 0.53479 0.15798 0.65255 0.0
C215 C 0.53637 0.12834 0.69028 0.0
C216 C 0.35033 0.50898 0.51 0.0
C217 C 0.32951 0.50403 0.45467 0.0
C218 C 0.37575 0.51602 0.57049 0.0
C219 C 0.39788 0.52393 0.61802 0.0
C220 C 0.08455 0.36466 0.50168 0.0
C221 C 0.09412 0.34556 0.43435 0.0
C222 C 0.07476 0.38113 0.557 0.0
C223 C 0.0635 0.39792 0.60964 0.0
C224 C 0.89704 1.02807 0.96894 0.0
C225 C 0.86909 1.02681 0.02763 0.0
C226 C 0.9228 1.02837 0.92718 0.0
C227 C 0.94967 1.02819 0.89135 0.0
C228 C 0.55493 0.87075 0.97828 0.0
C229 C 0.55741 0.8386 0.03867 0.0
C230 C 0.55329 0.89965 0.93482 0.0
C231 C 0.55184 0.92927 0.89678 0.0
C232 C 0.73278 0.54481 0.07492 0.0
C233 C 0.75759 0.55075 0.13854 0.0
C234 C 0.71101 0.53879 0.02355 0.0
C235 C 0.6891 0.53159 0.97421 0.0
C236 C 1.00387 0.69513 0.10188 0.0
C237 C 0.99629 0.71128 0.16025 0.0
C238 C 1.01448 0.67613 0.03535 0.0
C239 C 0.02537 0.65958 -0.01841 0.0
C240 C 0.04403 0.18191 0.54277 0.0
C241 C 0.05592 0.2037 0.4836 0.0
C242 C 0.03606 0.15114 0.6033 0.0
C243 C 0.03522 0.12264 0.64835 0.0
C244 C 0.392 1.01462 0.64659 0.0
C245 C 0.36826 1.01898 0.59608 0.0
C246 C 0.42414 1.01343 0.6847 0.0
C247 C 0.45261 1.0158 0.70751 0.0
C248 C 0.54247 0.39277 0.60115 0.0
C249 C 0.53835 0.37174 0.55291 0.0
C250 C 0.54542 0.42185 0.64261 0.0
C251 C 0.54635 0.44778 0.6735 0.0
C252 C 0.16818 0.54564 0.50985 0.0
C253 C 0.18711 0.53584 0.45753 0.0
C254 C 0.14222 0.55192 0.56815 0.0
C255 C 0.11876 0.55188 0.61863 0.0
C256 C 0.04169 0.87632 0.04809 0.0
C257 C 0.03067 0.8542 0.10788 0.0
C258 C 0.04878 0.90729 -0.01258 0.0
C259 C 0.04915 0.93582 0.94252 0.0
C260 C 0.69631 0.0435 0.93993 0.0
C261 C 0.72009 0.03939 -0.00965 0.0
C262 C 0.66417 0.04446 0.90199 0.0
C263 C 0.6357 0.04198 0.87929 0.0
C264 C 0.54458 0.66463 -0.01369 0.0
C265 C 0.54872 0.68565 0.03457 0.0
C266 C 0.54162 0.63557 0.94478 0.0
C267 C 0.54072 0.60965 0.91384 0.0
C268 C 0.91962 0.51171 0.0785 0.0
C269 C 0.90059 0.52119 0.13113 0.0
C270 C 0.94569 0.50576 0.02009 0.0
C271 C 0.9692 0.50597 0.96966 0.0
C272 C 0.10214 0.18355 0.12863 0.0
C273 C 0.10072 0.20506 0.17619 0.0
C274 C 0.09869 0.1544 0.08757 0.0
C275 C 0.09173 0.12811 0.06238 0.0
C276 C 0.39026 0.04902 0.20331 0.0
C277 C 0.36847 0.04567 0.26048 0.0
C278 C 0.41963 0.05006 0.15081 0.0
C279 C 0.44615 0.04822 0.11463 0.0
C280 C 0.51667 0.407 0.15362 0.0
C281 C 0.51882 0.38472 0.22154 0.0
C282 C 0.51695 0.43484 0.07796 0.0
C283 C 0.52 0.45834 0.01325 0.0
C284 C 0.16209 0.49442 0.10175 0.0
C285 C 0.18194 0.49759 0.16128 0.0
C286 C 0.13664 0.49449 0.03542 0.0
C287 C 0.11433 0.49832 0.9797 0.0
C288 C 0.98509 0.87379 0.46387 0.0
C289 C 0.98705 0.85215 0.41684 0.0
C290 C 0.9877 0.90318 0.50424 0.0
C291 C 0.99388 0.92973 0.52906 0.0
C292 C 0.69829 1.00989 0.38317 0.0
C293 C 0.72008 1.01334 0.32599 0.0
C294 C 0.6689 1.00861 0.4357 0.0
C295 C 0.64234 1.01016 0.47196 0.0
C296 C 0.57054 0.65055 0.43376 0.0
C297 C 0.56836 0.67284 0.36586 0.0
C298 C 0.57034 0.62268 0.50935 0.0
C299 C 0.56734 0.59914 0.57398 0.0
C300 C 0.92603 0.56303 0.48623 0.0
C301 C 0.90609 0.55952 0.42722 0.0
C302 C 0.95151 0.56328 0.55236 0.0
C303 C 0.97376 0.55961 0.60828 0.0
loop_
_geom_bond_atom_site_label_1
_geom_bond_atom_site_label_2
_geom_bond_distance
_geom_bond_site_symmetry_2
_ccdc_geom_bond_type
H0 C3 0.929 . S
H1 C6 0.929 . S
H2 C8 0.930 . S
C3 H0 0.929 . S
C3 C4 1.398 . S
C3 C5 1.396 . S
C4 C3 1.398 . S
C4 C8 1.407 . S
C5 C3 1.396 . S
C5 C6 1.394 . S
C6 H1 0.929 . S
C6 C5 1.394 . S
C6 C7 1.382 . S
C7 C6 1.382 . S
C7 C8 1.392 . S
C7 N9 1.420 . S
C8 H2 0.930 . S
C8 C4 1.407 . S
C8 C7 1.392 . S
N9 C7 1.420 . S
N9 C10 1.244 . S
C10 N9 1.244 . S
H11 C14 0.929 . S
H12 C17 0.929 1_556 S
H13 C19 0.930 . S
C14 H11 0.929 . S
C14 C15 1.398 . S
C14 C16 1.396 . S
C15 C14 1.398 . S
C15 C19 1.407 . S
C16 C14 1.396 . S
C16 C17 1.394 . S
C17 H12 0.929 1_554 S
C17 C16 1.394 . S
C17 C18 1.382 . S
C18 C17 1.382 . S
C18 C19 1.392 . S
C18 N20 1.420 . S
C19 H13 0.930 . S
C19 C15 1.407 . S
C19 C18 1.392 . S
N20 C18 1.420 . S
N20 C21 1.244 . S
C21 N20 1.244 . S
H22 C25 0.929 . S
H23 C28 0.929 . S
H24 C30 0.930 . S
C25 H22 0.929 . S
C25 C26 1.391 1_565 S
C25 C27 1.397 1_565 S
C26 C25 1.391 1_545 S
C26 C30 1.412 . S
C27 C25 1.397 1_545 S
C27 C28 1.396 1_554 S
C28 H23 0.929 . S
C28 C27 1.396 1_556 S
C28 C29 1.382 1_556 S
C29 C28 1.382 1_554 S
C29 C30 1.392 . S
C29 N31 1.420 . S
C30 H24 0.930 . S
C30 C26 1.412 . S
C30 C29 1.392 . S
N31 C29 1.420 . S
N31 C32 1.227 1_544 S
C32 N31 1.227 1_566 S
H33 C36 0.929 . S
H34 C39 0.929 . S
H35 C41 0.930 . S
C36 H33 0.929 . S
C36 C37 1.398 . S
C36 C38 1.396 . S
C37 C36 1.398 . S
C37 C41 1.407 . S
C38 C36 1.396 . S
C38 C39 1.394 . S
C39 H34 0.929 . S
C39 C38 1.394 . S
C39 C40 1.382 . S
C40 C39 1.382 . S
C40 C41 1.392 . S
C40 N42 1.420 . S
C41 H35 0.930 . S
C41 C37 1.407 . S
C41 C40 1.392 . S
N42 C40 1.420 . S
N42 C43 1.244 . S
C43 N42 1.244 . S
H44 C47 0.929 . S
H45 C50 0.929 . S
H46 C52 0.930 . S
C47 H44 0.929 . S
C47 C48 1.398 . S
C47 C49 1.396 . S
C48 C47 1.398 . S
C48 C52 1.407 . S
C49 C47 1.396 . S
C49 C50 1.394 . S
C50 H45 0.929 . S
C50 C49 1.394 . S
C50 C51 1.382 . S
C51 C50 1.382 . S
C51 C52 1.392 . S
C51 N53 1.420 . S
C52 H46 0.930 . S
C52 C48 1.407 . S
C52 C51 1.392 . S
N53 C51 1.420 . S
N53 C54 1.244 . S
C54 N53 1.244 . S
H55 C58 0.929 . S
H56 C61 0.929 . S
H57 C63 0.930 . S
C58 H55 0.929 . S
C58 C59 1.398 . S
C58 C60 1.396 . S
C59 C58 1.398 . S
C59 C63 1.407 . S
C60 C58 1.396 . S
C60 C61 1.394 . S
C61 H56 0.929 . S
C61 C60 1.394 . S
C61 C62 1.382 . S
C62 C61 1.382 . S
C62 C63 1.392 . S
C62 N64 1.420 . S
C63 H57 0.930 . S
C63 C59 1.407 . S
C63 C62 1.392 . S
N64 C62 1.420 . S
N64 C65 1.244 . S
C65 N64 1.244 . S
H66 C69 0.929 . S
H67 C72 0.929 . S
H68 C74 0.930 . S
C69 H66 0.929 . S
C69 C70 1.398 1_565 S
C69 C71 1.389 1_565 S
C70 C69 1.398 1_545 S
C70 C74 1.407 . S
C71 C69 1.389 1_545 S
C71 C72 1.400 . S
C72 H67 0.929 . S
C72 C71 1.400 . S
C72 C73 1.382 . S
C73 C72 1.382 . S
C73 C74 1.392 . S
C73 N75 1.420 . S
C74 H68 0.930 . S
C74 C70 1.407 . S
C74 C73 1.392 . S
N75 C73 1.420 . S
N75 C76 1.238 1_545 S
C76 N75 1.238 1_565 S
H77 C80 0.929 . S
H78 C83 0.929 . S
H79 C85 0.930 . S
C80 H77 0.929 . S
C80 C81 1.398 . S
C80 C82 1.396 . S
C81 C80 1.398 . S
C81 C85 1.407 . S
C82 C80 1.396 . S
C82 C83 1.394 . S
C83 H78 0.929 . S
C83 C82 1.394 . S
C83 C84 1.382 . S
C84 C83 1.382 . S
C84 C85 1.392 . S
C84 N86 1.420 . S
C85 H79 0.930 . S
C85 C81 1.407 . S
C85 C84 1.392 . S
N86 C84 1.420 . S
N86 C87 1.244 . S
C87 N86 1.244 . S
Co88 N93 2.057 1_556 S
Co88 O105 2.021 . S
Co88 O108 2.062 . S
Co88 O112 2.117 1_455 S
Co88 O113 2.020 1_545 S
C89 O109 1.259 1_545 S
C89 O112 1.258 . S
Co90 N99 2.057 . S
Co90 O106 2.117 . S
Co90 O107 2.020 1_565 S
Co90 O109 2.021 1_455 S
Co90 O114 2.062 . S
C91 N93 1.316 . S
C91 N94 1.347 . S
C91 H96 0.931 . S
C92 N93 1.375 . S
C92 C95 1.350 . S
C92 H97 0.930 1_455 S
N93 Co88 2.057 1_554 S
N93 C91 1.316 . S
N93 C92 1.375 . S
N94 C91 1.347 . S
N94 C95 1.373 . S
C95 C92 1.350 . S
C95 N94 1.373 . S
C95 H116 0.931 . S
H96 C91 0.931 . S
H97 C92 0.930 1_655 S
C98 O105 1.259 1_565 S
C98 O106 1.258 . S
N99 Co90 2.057 . S
N99 C100 1.316 1_455 S
N99 C101 1.375 . S
C100 N99 1.316 1_655 S
C100 N102 1.347 . S
C100 H111 0.931 . S
C101 N99 1.375 . S
C101 C103 1.350 . S
C101 H110 0.930 . S
N102 C100 1.347 . S
N102 C103 1.373 1_655 S
C103 C101 1.350 . S
C103 N102 1.373 1_455 S
C103 H117 0.931 . S
C104 O107 1.256 . S
C104 O108 1.255 . S
O105 Co88 2.021 . S
O105 C98 1.259 1_545 S
O106 Co90 2.117 . S
O106 C98 1.258 . S
O107 Co90 2.020 1_545 S
O107 C104 1.256 . S
O108 Co88 2.062 . S
O108 C104 1.255 . S
O109 C89 1.259 1_565 S
O109 Co90 2.021 1_655 S
H110 C101 0.930 . S
H111 C100 0.931 . S
O112 Co88 2.117 1_655 S
O112 C89 1.258 . S
O113 Co88 2.020 1_565 S
O113 C115 1.256 . S
O114 Co90 2.062 . S
O114 C115 1.255 . S
C115 O113 1.256 . S
C115 O114 1.255 . S
H116 C95 0.931 . S
H117 C103 0.931 . S
Co118 N123 2.057 1_546 S
Co118 O135 2.021 . S
Co118 O138 2.062 . S
Co118 O142 2.117 1_545 S
Co118 O143 2.020 . S
C119 O139 1.259 . S
C119 O142 1.258 . S
Co120 N129 2.057 1_565 S
Co120 O136 2.117 1_565 S
Co120 O137 2.020 . S
Co120 O139 2.021 . S
Co120 O144 2.068 . S
C121 N123 1.316 1_545 S
C121 N124 1.347 . S
C121 H126 0.931 . S
C122 N123 1.375 . S
C122 C125 1.350 . S
C122 H127 0.930 . S
N123 Co118 2.057 1_564 S
N123 C121 1.316 1_565 S
N123 C122 1.375 . S
N124 C121 1.347 . S
N124 C125 1.373 1_545 S
C125 C122 1.350 . S
C125 N124 1.373 1_565 S
C125 H146 0.931 . S
H126 C121 0.931 . S
H127 C122 0.930 . S
C128 O135 1.259 . S
C128 O136 1.258 . S
N129 Co120 2.057 1_545 S
N129 C130 1.316 1_545 S
N129 C131 1.375 . S
C130 N129 1.316 1_565 S
C130 N132 1.347 . S
C130 H141 0.931 . S
C131 N129 1.375 . S
C131 C133 1.350 . S
C131 H140 0.930 . S
N132 C130 1.347 . S
N132 C133 1.373 1_565 S
C133 C131 1.350 . S
C133 N132 1.373 1_545 S
C133 H147 0.931 . S
C134 O137 1.256 . S
C134 O138 1.255 1_565 S
O135 Co118 2.021 . S
O135 C128 1.259 . S
O136 Co120 2.117 1_545 S
O136 C128 1.258 . S
O137 Co120 2.020 . S
O137 C134 1.256 . S
O138 Co118 2.062 . S
O138 C134 1.255 1_545 S
O139 C119 1.259 . S
O139 Co120 2.021 . S
H140 C131 0.930 . S
H141 C130 0.931 . S
O142 Co118 2.117 1_565 S
O142 C119 1.258 . S
O143 Co118 2.020 . S
O143 C145 1.256 . S
O144 Co120 2.068 . S
O144 C145 1.242 1_565 S
C145 O143 1.256 . S
C145 O144 1.242 1_545 S
H146 C125 0.931 . S
H147 C133 0.931 . S
Co148 N153 2.057 . S
Co148 O165 2.021 . S
Co148 O168 2.062 . S
Co148 O172 2.117 . S
Co148 O173 2.020 . S
C149 O169 1.259 . S
C149 O172 1.258 . S
Co150 N159 2.057 . S
Co150 O166 2.117 . S
Co150 O167 2.020 . S
Co150 O169 2.021 . S
Co150 O174 2.062 . S
C151 N153 1.316 . S
C151 N154 1.347 . S
C151 H156 0.931 . S
C152 N153 1.375 . S
C152 C155 1.350 . S
C152 H157 0.930 . S
N153 Co148 2.057 . S
N153 C151 1.316 . S
N153 C152 1.375 . S
N154 C151 1.347 . S
N154 C155 1.373 . S
C155 C152 1.350 . S
C155 N154 1.373 . S
C155 H176 0.931 1_556 S
H156 C151 0.931 . S
H157 C152 0.930 . S
C158 O165 1.259 . S
C158 O166 1.258 . S
N159 Co150 2.057 . S
N159 C160 1.316 . S
N159 C161 1.375 . S
C160 N159 1.316 . S
C160 N162 1.347 . S
C160 H171 0.931 . S
C161 N159 1.375 . S
C161 C163 1.350 . S
C161 H170 0.930 . S
N162 C160 1.347 . S
N162 C163 1.373 . S
C163 C161 1.350 . S
C163 N162 1.373 . S
C163 H177 0.931 . S
C164 O167 1.256 . S
C164 O168 1.255 . S
O165 Co148 2.021 . S
O165 C158 1.259 . S
O166 Co150 2.117 . S
O166 C158 1.258 . S
O167 Co150 2.020 . S
O167 C164 1.256 . S
O168 Co148 2.062 . S
O168 C164 1.255 . S
O169 C149 1.259 . S
O169 Co150 2.021 . S
H170 C161 0.930 . S
H171 C160 0.931 . S
O172 Co148 2.117 . S
O172 C149 1.258 . S
O173 Co148 2.020 . S
O173 C175 1.256 . S
O174 Co150 2.062 . S
O174 C175 1.255 . S
C175 O173 1.256 . S
C175 O174 1.255 . S
H176 C155 0.931 1_554 S
H177 C163 0.931 . S
Co178 N183 2.057 . S
Co178 O195 2.021 1_455 S
Co178 O198 2.062 1_455 S
Co178 O202 2.117 . S
Co178 O203 2.020 . S
C179 O199 1.259 . S
C179 O202 1.258 . S
Co180 N189 2.057 . S
Co180 O196 2.117 1_455 S
Co180 O197 2.020 1_455 S
Co180 O199 2.021 . S
Co180 O204 2.062 . S
C181 N183 1.316 . S
C181 N184 1.347 . S
C181 H186 0.931 1_455 S
C182 N183 1.375 . S
C182 C185 1.350 . S
C182 H187 0.930 . S
N183 Co178 2.057 . S
N183 C181 1.316 . S
N183 C182 1.375 . S
N184 C181 1.347 . S
N184 C185 1.373 . S
C185 C182 1.350 . S
C185 N184 1.373 . S
C185 H206 0.931 . S
H186 C181 0.931 1_655 S
H187 C182 0.930 . S
C188 O195 1.259 . S
C188 O196 1.258 . S
N189 Co180 2.057 . S
N189 C190 1.316 . S
N189 C191 1.375 1_455 S
C190 N189 1.316 . S
C190 N192 1.347 . S
C190 H201 0.931 . S
C191 N189 1.375 1_655 S
C191 C193 1.350 1_655 S
C191 H200 0.930 . S
N192 C190 1.347 . S
N192 C193 1.373 . S
C193 C191 1.350 1_455 S
C193 N192 1.373 . S
C193 H207 0.931 1_455 S
C194 O197 1.256 . S
C194 O198 1.255 . S
O195 Co178 2.021 1_655 S
O195 C188 1.259 . S
O196 Co180 2.117 1_655 S
O196 C188 1.258 . S
O197 Co180 2.020 1_655 S
O197 C194 1.256 . S
O198 Co178 2.062 1_655 S
O198 C194 1.255 . S
O199 C179 1.259 . S
O199 Co180 2.021 . S
H200 C191 0.930 . S
H201 C190 0.931 . S
O202 Co178 2.117 . S
O202 C179 1.258 . S
O203 Co178 2.020 . S
O203 C205 1.256 . S
O204 Co180 2.062 . S
O204 C205 1.255 . S
C205 O203 1.256 . S
C205 O204 1.255 . S
H206 C185 0.931 . S
H207 C193 0.931 1_655 S
C208 C209 1.170 . S
C208 C210 1.380 . S
C209 C208 1.170 . S
C210 C208 1.380 . S
C210 C211 1.170 . S
C211 C210 1.170 . S
C212 C213 1.170 . S
C212 C214 1.380 . S
C213 C212 1.170 . S
C214 C212 1.380 . S
C214 C215 1.170 . S
C215 C214 1.170 . S
C216 C217 1.170 . S
C216 C218 1.380 . S
C217 C216 1.170 . S
C218 C216 1.380 . S
C218 C219 1.170 . S
C219 C218 1.170 . S
C220 C221 1.170 . S
C220 C222 1.380 . S
C221 C220 1.170 . S
C222 C220 1.380 . S
C222 C223 1.170 . S
C223 C222 1.170 . S
C224 C225 1.170 . S
C224 C226 1.380 . S
C225 C224 1.170 . S
C226 C224 1.380 . S
C226 C227 1.170 . S
C227 C226 1.170 . S
C228 C229 1.170 1_556 S
C228 C230 1.380 . S
C229 C228 1.170 1_554 S
C230 C228 1.380 . S
C230 C231 1.170 . S
C231 C230 1.170 . S
C232 C233 1.170 . S
C232 C234 1.380 1_554 S
C233 C232 1.170 . S
C234 C232 1.380 1_556 S
C234 C235 1.170 . S
C235 C234 1.170 . S
C236 C237 1.170 1_556 S
C236 C238 1.380 . S
C237 C236 1.170 1_554 S
C238 C236 1.380 . S
C238 C239 1.170 . S
C239 C238 1.170 . S
C240 C241 1.170 . S
C240 C242 1.380 . S
C241 C240 1.170 . S
C242 C240 1.380 . S
C242 C243 1.170 . S
C243 C242 1.170 . S
C244 C245 1.170 1_565 S
C244 C246 1.382 . S
C245 C244 1.170 1_545 S
C246 C244 1.382 . S
C246 C247 1.170 . S
C247 C246 1.170 . S
C248 C249 1.170 . S
C248 C250 1.380 . S
C249 C248 1.170 . S
C250 C248 1.380 . S
C250 C251 1.170 . S
C251 C250 1.170 . S
C252 C253 1.170 . S
C252 C254 1.380 . S
C253 C252 1.170 . S
C254 C252 1.380 . S
C254 C255 1.170 . S
C255 C254 1.170 . S
C256 C257 1.170 1_556 S
C256 C258 1.380 . S
C257 C256 1.170 1_554 S
C258 C256 1.380 . S
C258 C259 1.170 1_655 S
C259 C258 1.170 1_455 S
C260 C261 1.170 . S
C260 C262 1.380 . S
C261 C260 1.170 . S
C262 C260 1.380 . S
C262 C263 1.170 . S
C263 C262 1.170 . S
C264 C265 1.170 . S
C264 C266 1.380 1_554 S
C265 C264 1.170 . S
C266 C264 1.380 1_556 S
C266 C267 1.170 . S
C267 C266 1.170 . S
C268 C269 1.170 . S
C268 C270 1.380 1_554 S
C269 C268 1.170 . S
C270 C268 1.380 1_556 S
C270 C271 1.170 . S
C271 C270 1.170 . S
C272 C273 1.170 . S
C272 C274 1.380 . S
C273 C272 1.170 . S
C274 C272 1.380 . S
C274 C275 1.170 . S
C275 C274 1.170 . S
C276 C277 1.170 1_545 S
C276 C278 1.380 . S
C277 C276 1.170 1_565 S
C278 C276 1.380 . S
C278 C279 1.170 . S
C279 C278 1.170 . S
C280 C281 1.170 . S
C280 C282 1.380 . S
C281 C280 1.170 . S
C282 C280 1.380 . S
C282 C283 1.170 . S
C283 C282 1.170 . S
C284 C285 1.170 . S
C284 C286 1.380 . S
C285 C284 1.170 . S
C286 C284 1.380 . S
C286 C287 1.170 . S
C287 C286 1.170 . S
C288 C289 1.170 . S
C288 C290 1.380 . S
C289 C288 1.170 . S
C290 C288 1.380 . S
C290 C291 1.170 . S
C291 C290 1.170 . S
C292 C293 1.171 1_565 S
C292 C294 1.380 . S
C293 C292 1.171 1_545 S
C294 C292 1.380 . S
C294 C295 1.170 . S
C295 C294 1.170 . S
C296 C297 1.170 . S
C296 C298 1.380 . S
C297 C296 1.170 . S
C298 C296 1.380 . S
C298 C299 1.170 . S
C299 C298 1.170 . S
C300 C301 1.170 . S
C300 C302 1.380 . S
C301 C300 1.170 . S
C302 C300 1.380 . S
C302 C303 1.170 . S
C303 C302 1.170 . S
C209 C76 1.687 . S
C211 C98 1.710 . S
C215 C128 1.798 . S
C213 C87 1.774 . S
C219 N162 1.389 . S
C217 C54 1.375 . S
C223 N192 1.478 . S
C221 C65 1.439 . S
C227 C89 1.705 . S
C225 C32 1.691 1_545 S
C229 C43 1.792 . S
C231 C119 1.804 . S
C233 C10 1.374 . S
C235 N154 1.396 . S
C237 C21 1.450 . S
C239 N184 1.469 1_655 S
C243 C104 0.600 . S
C241 C60 0.740 . S
C247 C134 1.004 . S
C245 C71 1.013 . S
C251 C175 1.301 . S
C249 C82 1.236 . S
C253 C49 0.806 . S
C255 C205 0.761 . S
C257 C16 0.655 . S
C259 C115 0.626 . S
C263 C145 1.038 . S
C261 C27 0.968 1_556 S
C267 C164 1.280 . S
C265 C38 1.245 . S
C269 C5 0.810 . S
C271 C194 0.765 . S
C273 C59 1.483 . S
C275 N94 1.471 . S
C277 C70 1.434 1_565 S
C279 N124 1.417 . S
C283 C149 1.660 1_554 S
C281 C81 1.640 . S
C287 C179 1.593 1_554 S
C285 C48 1.567 . S
C289 C15 1.466 . S
C291 N102 1.483 . S
C295 N132 1.418 . S
C293 C26 1.433 . S
C299 C158 1.666 . S
C297 C37 1.612 . S
C301 C4 1.544 . S
C303 C188 1.594 . S
