# Generated by pormake.
# Topology zzz, (3,6)-cn, num edge types: 1
# Building blocks:
#     Node 0, Type 0, BuildingBlock: MIDCAF_clean_linker_0, # of connection points: 3
#     Node 1, Type 0, BuildingBlock: MIDCAF_clean_linker_0, # of connection points: 3
#     Node 2, Type 0, BuildingBlock: MIDCAF_clean_linker_0, # of connection points: 3
#     Node 3, Type 0, BuildingBlock: MIDCAF_clean_linker_0, # of connection points: 3
#     Node 4, Type 0, BuildingBlock: MIDCAF_clean_linker_0, # of connection points: 3
#     Node 5, Type 0, BuildingBlock: MIDCAF_clean_linker_0, # of connection points: 3
#     Node 6, Type 0, BuildingBlock: MIDCAF_clean_linker_0, # of connection points: 3
#     Node 7, Type 0, BuildingBlock: MIDCAF_clean_linker_0, # of connection points: 3
#     Node 8, Type 1, BuildingBlock: CIFDUS_clean_sbu_1, # of connection points: 6
#     Node 9, Type 1, BuildingBlock: CIFDUS_clean_sbu_1, # of connection points: 6
#     Node 10, Type 1, BuildingBlock: CIFDUS_clean_sbu_1, # of connection points: 6
#     Node 11, Type 1, BuildingBlock: CIFDUS_clean_sbu_1, # of connection points: 6
#     Edge 12, Type (0, 1), BuildingBlock: EZIPEK_clean_linker_0, # of connection points: 2
#     Edge 13, Type (0, 1), BuildingBlock: EZIPEK_clean_linker_0, # of connection points: 2
#     Edge 14, Type (0, 1), BuildingBlock: EZIPEK_clean_linker_0, # of connection points: 2
#     Edge 15, Type (0, 1), BuildingBlock: EZIPEK_clean_linker_0, # of connection points: 2
#     Edge 16, Type (0, 1), BuildingBlock: EZIPEK_clean_linker_0, # of connection points: 2
#     Edge 17, Type (0, 1), BuildingBlock: EZIPEK_clean_linker_0, # of connection points: 2
#     Edge 18, Type (0, 1), BuildingBlock: EZIPEK_clean_linker_0, # of connection points: 2
#     Edge 19, Type (0, 1), BuildingBlock: EZIPEK_clean_linker_0, # of connection points: 2
#     Edge 20, Type (0, 1), BuildingBlock: EZIPEK_clean_linker_0, # of connection points: 2
#     Edge 21, Type (0, 1), BuildingBlock: EZIPEK_clean_linker_0, # of connection points: 2
#     Edge 22, Type (0, 1), BuildingBlock: EZIPEK_clean_linker_0, # of connection points: 2
#     Edge 23, Type (0, 1), BuildingBlock: EZIPEK_clean_linker_0, # of connection points: 2
#     Edge 24, Type (0, 1), BuildingBlock: EZIPEK_clean_linker_0, # of connection points: 2
#     Edge 25, Type (0, 1), BuildingBlock: EZIPEK_clean_linker_0, # of connection points: 2
#     Edge 26, Type (0, 1), BuildingBlock: EZIPEK_clean_linker_0, # of connection points: 2
#     Edge 27, Type (0, 1), BuildingBlock: EZIPEK_clean_linker_0, # of connection points: 2
#     Edge 28, Type (0, 1), BuildingBlock: EZIPEK_clean_linker_0, # of connection points: 2
#     Edge 29, Type (0, 1), BuildingBlock: EZIPEK_clean_linker_0, # of connection points: 2
#     Edge 30, Type (0, 1), BuildingBlock: EZIPEK_clean_linker_0, # of connection points: 2
#     Edge 31, Type (0, 1), BuildingBlock: EZIPEK_clean_linker_0, # of connection points: 2
#     Edge 32, Type (0, 1), BuildingBlock: EZIPEK_clean_linker_0, # of connection points: 2
#     Edge 33, Type (0, 1), BuildingBlock: EZIPEK_clean_linker_0, # of connection points: 2
#     Edge 34, Type (0, 1), BuildingBlock: EZIPEK_clean_linker_0, # of connection points: 2
#     Edge 35, Type (0, 1), BuildingBlock: EZIPEK_clean_linker_0, # of connection points: 2
# Relax obj value: 0.311
# Max RMSD: 0.223
# Mean RMSD: 0.207
data_MOF--net-zzz--node1-CIFDUS_clean_sbu_1--node2-MIDCAF_clean_linker_0--edge1-EZIPEK_clean_linker_0
_symmetry_space_group_name_H-M    P1
_symmetry_Int_Tables_number       1
_symmetry_cell_setting            triclinic
loop_
_symmetry_equiv_pos_as_xyz
'x, y, z'
_cell_length_a     41.807459
_cell_length_b     44.593054
_cell_length_c     16.252484
_cell_angle_alpha  89.824009
_cell_angle_beta   89.920693
_cell_angle_gamma 88.5027
loop_
_atom_site_label
_atom_site_type_symbol
_atom_site_fract_x
_atom_site_fract_y
_atom_site_fract_z
_atom_type_partial_charge
C0 C 0.82311 0.59787 0.49764 0.0
C1 C 0.82284 0.56815 0.52598 0.0
C2 C 0.79635 0.55056 0.5074 0.0
C3 C 0.773 0.56107 0.45159 0.0
H4 H 0.67466 0.61062 0.23843 0.0
H5 H 0.6253 0.60364 0.15723 0.0
H6 H 0.67357 0.53422 0.01679 0.0
H7 H 0.72225 0.54116 0.09571 0.0
H8 H 0.84462 0.61488 0.15932 0.0
H9 H 0.89314 0.59381 0.09125 0.0
H10 H 0.84724 0.5086 0.06944 0.0
H11 H 0.79867 0.52999 0.13097 0.0
H12 H 0.8029 0.62999 0.41324 0.0
H13 H 0.84318 0.61189 0.51141 0.0
H14 H 0.79561 0.52758 0.52894 0.0
H15 H 0.75548 0.54552 0.42955 0.0
N16 N 0.73774 0.58703 0.29459 0.0
N17 N 0.76012 0.58049 0.16252 0.0
N18 N 0.79328 0.59032 0.27355 0.0
C19 C 0.73385 0.58255 0.21175 0.0
C20 C 0.78973 0.58477 0.19289 0.0
C21 C 0.76783 0.59142 0.3251 0.0
C22 C 0.70234 0.5764 0.17365 0.0
C23 C 0.67442 0.59358 0.19111 0.0
C24 C 0.64639 0.58984 0.14427 0.0
C25 C 0.64588 0.56853 0.08043 0.0
C26 C 0.67344 0.5509 0.06517 0.0
C27 C 0.70125 0.55483 0.11075 0.0
C28 C 0.81785 0.57421 0.14697 0.0
C29 C 0.84503 0.59183 0.13838 0.0
C30 C 0.87277 0.57973 0.1014 0.0
C31 C 0.87379 0.54958 0.07661 0.0
C32 C 0.84694 0.53185 0.08876 0.0
C33 C 0.81907 0.54418 0.12227 0.0
C34 C 0.77607 0.58914 0.41323 0.0
C35 C 0.79969 0.60839 0.4424 0.0
C36 C 0.94823 0.82653 0.41129 0.0
C37 C 0.97309 0.8311 0.46772 0.0
C38 C 0.99709 0.80866 0.47591 0.0
C39 C 0.99831 0.78402 0.42217 0.0
H40 H 0.94823 0.69588 0.17822 0.0
H41 H 0.94203 0.65033 0.09343 0.0
H42 H 0.02937 0.66951 0.96515 0.0
H43 H 0.03565 0.71429 0.04757 0.0
H44 H 0.02248 0.79878 0.99907 0.0
H45 H 0.03891 0.84646 0.93803 0.0
H46 H 0.06949 0.87687 0.1761 0.0
H47 H 0.05331 0.82956 0.2375 0.0
H48 H 0.93249 0.80135 0.30721 0.0
H49 H 0.92954 0.84358 0.40331 0.0
H50 H 0.01662 0.81166 0.5186 0.0
H51 H 0.01937 0.76933 0.42338 0.0
N52 N 0.9829 0.7444 0.24032 0.0
N53 N 0.01388 0.75974 0.12647 0.0
N54 N 1.00681 0.79156 0.23866 0.0
C55 C 0.99611 0.73838 0.16411 0.0
C56 C 0.01942 0.7862 0.16389 0.0
C57 C 0.98864 0.7714 0.27743 0.0
C58 C 0.99234 0.70909 0.11987 0.0
C59 C 0.96624 0.69018 0.13254 0.0
C60 C 0.9626 0.6642 0.08384 0.0
C61 C 0.98525 0.65647 0.02248 0.0
C62 C 0.01154 0.67491 0.01164 0.0
C63 C 0.01501 0.70071 0.05917 0.0
C64 C 0.03635 0.81065 0.12295 0.0
C65 C 0.0337 0.81521 0.03773 0.0
C66 C 0.04284 0.84242 1.00304 0.0
C67 C 0.05498 0.86503 0.05316 0.0
C68 C 0.06002 0.8596 0.13694 0.0
C69 C 0.05077 0.83259 0.17163 0.0
C70 C 0.9759 0.78151 0.35809 0.0
C71 C 0.94961 0.80194 0.35714 0.0
C72 C 0.70177 0.92023 0.50785 0.0
C73 C 0.70125 0.95027 0.53318 0.0
C74 C 0.72717 0.9683 0.51213 0.0
C75 C 0.75058 0.9578 0.45646 0.0
H76 H 0.85021 0.92835 0.2797 0.0
H77 H 0.90083 0.93824 0.20699 0.0
H78 H 0.84822 0.95753 0.98456 0.0
H79 H 0.79854 0.94736 0.05417 0.0
H80 H 0.67736 0.90185 0.1668 0.0
H81 H 0.62888 0.92316 0.09892 0.0
H82 H 0.67424 0.00882 0.08129 0.0
H83 H 0.72274 0.98725 0.14295 0.0
H84 H 0.72259 0.88773 0.42594 0.0
H85 H 0.68217 0.90586 0.5236 0.0
H86 H 0.72733 0.99153 0.5314 0.0
H87 H 0.76749 0.97357 0.43215 0.0
N88 N 0.7852 0.92992 0.2989 0.0
N89 N 0.76153 0.93494 0.16807 0.0
N90 N 0.72933 0.92769 0.2828 0.0
C91 C 0.78838 0.93304 0.21521 0.0
C92 C 0.73213 0.93196 0.20133 0.0
C93 C 0.75533 0.92659 0.33226 0.0
C94 C 0.81998 0.93733 0.17366 0.0
C95 C 0.8495 0.93443 0.21517 0.0
C96 C 0.87845 0.9399 0.17359 0.0
C97 C 0.87827 0.94882 0.09026 0.0
C98 C 0.84903 0.95073 0.04863 0.0
C99 C 0.82045 0.945 0.08931 0.0
C100 C 0.70385 0.94278 0.15655 0.0
C101 C 0.67681 0.92507 0.147 0.0
C102 C 0.64909 0.9373 0.11016 0.0
C103 C 0.64798 0.96762 0.08636 0.0
C104 C 0.67461 0.98545 0.0999 0.0
C105 C 0.70244 0.97302 0.13345 0.0
C106 C 0.74812 0.92928 0.42083 0.0
C107 C 0.7253 0.90971 0.45294 0.0
C108 C 0.46163 0.65769 0.1325 0.0
C109 C 0.46682 0.65271 0.04861 0.0
C110 C 0.47994 0.67527 0.99962 0.0
C111 C 0.48982 0.70194 0.03555 0.0
H112 H 0.48792 0.80287 0.05031 0.0
H113 H 0.49456 0.84812 0.96926 0.0
H114 H 0.58213 0.86581 0.09734 0.0
H115 H 0.57557 0.81978 0.18075 0.0
H116 H 0.50151 0.74485 0.4213 0.0
H117 H 0.50524 0.70348 0.52022 0.0
H118 H 0.59479 0.67411 0.41241 0.0
H119 H 0.5907 0.71528 0.31211 0.0
H120 H 0.46893 0.68678 0.23435 0.0
H121 H 0.45141 0.64045 0.1708 0.0
H122 H 0.48402 0.67158 0.93454 0.0
H123 H 0.50167 0.71834 0.99772 0.0
N124 N 0.50984 0.75662 0.12655 0.0
N125 N 0.54007 0.7713 0.24189 0.0
N126 N 0.51622 0.72412 0.23806 0.0
C127 C 0.52738 0.77774 0.1654 0.0
C128 C 0.53414 0.74408 0.27802 0.0
C129 C 0.50407 0.72994 0.16296 0.0
C130 C 0.53132 0.8073 0.12234 0.0
C131 C 0.50868 0.81623 0.06216 0.0
C132 C 0.51235 0.8423 0.01544 0.0
C133 C 0.53882 0.86045 0.02663 0.0
C134 C 0.56143 0.85217 0.08754 0.0
C135 C 0.55759 0.82592 0.13543 0.0
C136 C 0.54608 0.73384 0.35943 0.0
C137 C 0.5231 0.73086 0.42215 0.0
C138 C 0.52491 0.70675 0.47792 0.0
C139 C 0.54993 0.68517 0.47283 0.0
C140 C 0.57513 0.69031 0.41743 0.0
C141 C 0.57311 0.71432 0.36101 0.0
C142 C 0.48696 0.70597 0.1209 0.0
C143 C 0.47168 0.68412 0.16845 0.0
C144 C 0.21711 0.47732 0.9431 0.0
C145 C 0.19739 0.45388 0.91915 0.0
C146 C 0.20721 0.42422 0.93696 0.0
C147 C 0.23348 0.41855 0.98892 0.0
H148 H 0.34706 0.42383 0.20397 0.0
H149 H 0.3952 0.42931 0.29039 0.0
H150 H 0.34233 0.49 0.4491 0.0
H151 H 0.29468 0.48419 0.36549 0.0
H152 H 0.22032 0.47047 0.39314 0.0
H153 H 0.16881 0.4868 0.45215 0.0
H154 H 0.1195 0.45228 0.24132 0.0
H155 H 0.1704 0.43486 0.18314 0.0
H156 H 0.25575 0.49047 0.02009 0.0
H157 H 0.21039 0.50034 0.92841 0.0
H158 H 0.19273 0.40574 0.91761 0.0
H159 H 0.23755 0.3959 0.01164 0.0
N160 N 0.28522 0.44474 0.14945 0.0
N161 N 0.25879 0.44962 0.27757 0.0
N162 N 0.22947 0.44079 0.1591 0.0
C163 C 0.28651 0.44851 0.23324 0.0
C164 C 0.23019 0.44563 0.24056 0.0
C165 C 0.25623 0.44037 0.1129 0.0
C166 C 0.31703 0.45361 0.2777 0.0
C167 C 0.34595 0.4386 0.25674 0.0
C168 C 0.37336 0.44156 0.30629 0.0
C169 C 0.3724 0.46015 0.37627 0.0
C170 C 0.34372 0.47553 0.39567 0.0
C171 C 0.31645 0.47221 0.3475 0.0
C172 C 0.19953 0.45155 0.28324 0.0
C173 C 0.19854 0.46591 0.35994 0.0
C174 C 0.16927 0.47562 0.39303 0.0
C175 C 0.14077 0.47126 0.34969 0.0
C176 C 0.14146 0.45628 0.27442 0.0
C177 C 0.17058 0.44622 0.24185 0.0
C178 C 0.25013 0.44243 0.02393 0.0
C179 C 0.2437 0.47155 0.99373 0.0
C180 C 0.02143 0.19393 0.97162 0.0
C181 C 0.04634 0.17293 0.98704 0.0
C182 C 0.06831 0.17907 0.04992 0.0
C183 C 0.06295 0.20361 0.10293 0.0
H184 H 0.05273 0.3126 0.25311 0.0
H185 H 0.05947 0.35839 0.33608 0.0
H186 H 0.98769 0.32866 0.50577 0.0
H187 H 0.98087 0.2836 0.4255 0.0
H188 H 0.97337 0.21035 0.43958 0.0
H189 H 0.96252 0.16188 0.50277 0.0
H190 H 0.94676 0.12365 0.26348 0.0
H191 H 0.95715 0.17205 0.19952 0.0
H192 H 0.99454 0.23203 0.01662 0.0
H193 H 1.00424 0.18984 0.92338 0.0
H194 H 0.0878 0.16329 0.06294 0.0
H195 H 0.07783 0.20543 0.15714 0.0
N196 N 0.02613 0.25943 0.21027 0.0
N197 N 0.99069 0.24521 0.31596 0.0
N198 N 0.99879 0.21408 0.20278 0.0
C199 C 0.01098 0.26572 0.28381 0.0
C200 C 0.98436 0.2195 0.27544 0.0
C201 C 0.01953 0.23337 0.16958 0.0
C202 C 0.01621 0.29406 0.33179 0.0
C203 C 0.03839 0.31581 0.30806 0.0
C204 C 0.04231 0.34202 0.35552 0.0
C205 C 0.02395 0.3471 0.42728 0.0
C206 C 1.00209 0.32541 0.45087 0.0
C207 C 0.99826 0.29945 0.40422 0.0
C208 C 0.96692 0.19481 0.31456 0.0
C209 C 0.96612 0.19209 0.40057 0.0
C210 C 0.95995 0.16439 0.43674 0.0
C211 C 0.95424 0.13927 0.38743 0.0
C212 C 0.95106 0.14283 0.3023 0.0
C213 C 0.95721 0.1705 0.26606 0.0
C214 C 0.03567 0.22252 0.09379 0.0
C215 C 0.01624 0.21849 0.02422 0.0
C216 C 0.3181 0.09486 0.94471 0.0
C217 C 0.32571 0.06556 0.91875 0.0
C218 C 0.30394 0.04279 0.9348 0.0
C219 C 0.27747 0.04832 0.98626 0.0
H220 H 0.1767 0.09329 0.20724 0.0
H221 H 0.12868 0.08854 0.29494 0.0
H222 H 0.179 0.02272 0.44421 0.0
H223 H 0.22652 0.02767 0.35915 0.0
H224 H 0.30194 0.03862 0.38844 0.0
H225 H 0.35345 0.0233 0.44933 0.0
H226 H 0.40335 0.0642 0.24753 0.0
H227 H 0.35238 0.08067 0.1878 0.0
H228 H 0.28903 0.12217 0.02466 0.0
H229 H 0.33432 0.11285 0.93202 0.0
H230 H 0.30912 0.02009 0.91427 0.0
H231 H 0.26388 0.02937 0.00708 0.0
N232 N 0.23771 0.07134 0.1491 0.0
N233 N 0.26381 0.06305 0.27644 0.0
N234 N 0.29361 0.07347 0.15949 0.0
C235 C 0.23618 0.06573 0.23218 0.0
C236 C 0.29257 0.06707 0.24018 0.0
C237 C 0.26692 0.0756 0.11333 0.0
C238 C 0.20545 0.06085 0.27612 0.0
C239 C 0.17723 0.07751 0.25802 0.0
C240 C 0.1499 0.07496 0.30834 0.0
C241 C 0.15025 0.05524 0.37626 0.0
C242 C 0.17811 0.03809 0.39242 0.0
C243 C 0.20531 0.04093 0.34344 0.0
C244 C 0.32303 0.06065 0.28307 0.0
C245 C 0.32382 0.04465 0.35753 0.0
C246 C 0.35311 0.03552 0.39157 0.0
C247 C 0.38183 0.0421 0.35139 0.0
C248 C 0.38127 0.05843 0.278 0.0
C249 C 0.3521 0.0679 0.24451 0.0
C250 C 0.27304 0.07643 0.02418 0.0
C251 C 0.29161 0.10032 0.99605 0.0
C252 C 0.56894 0.37302 0.30677 0.0
C253 C 0.56579 0.37616 0.39201 0.0
C254 C 0.55968 0.35088 0.44075 0.0
C255 C 0.55323 0.32343 0.40396 0.0
H256 H 0.45925 0.20978 0.27787 0.0
H257 H 0.45253 0.16444 0.36367 0.0
H258 H 0.54315 0.17959 0.47991 0.0
H259 H 0.54996 0.22429 0.39645 0.0
H260 H 0.44083 0.31115 0.16162 0.0
H261 H 0.43027 0.35329 0.06711 0.0
H262 H 0.514 0.32772 0.92674 0.0
H263 H 0.52422 0.28548 0.02012 0.0
H264 H 0.56249 0.34441 0.20334 0.0
H265 H 0.57355 0.39234 0.26839 0.0
H266 H 0.55712 0.35308 0.50684 0.0
H267 H 0.54573 0.30504 0.44255 0.0
N268 N 0.52948 0.27041 0.31716 0.0
N269 N 0.49351 0.25691 0.21228 0.0
N270 N 0.51995 0.30279 0.20673 0.0
C271 C 0.50932 0.25 0.28444 0.0
C272 C 0.49937 0.28353 0.17316 0.0
C273 C 0.53498 0.29673 0.27826 0.0
C274 C 0.50507 0.22101 0.33012 0.0
C275 C 0.47786 0.20326 0.32113 0.0
C276 C 0.47394 0.17737 0.37031 0.0
C277 C 0.49739 0.16855 0.42843 0.0
C278 C 0.52474 0.18584 0.43575 0.0
C279 C 0.5285 0.21159 0.38772 0.0
C280 C 0.48308 0.29456 0.09773 0.0
C281 C 0.45561 0.31319 0.10718 0.0
C282 C 0.4499 0.3377 0.05394 0.0
C283 C 0.47178 0.34414 0.9908 0.0
C284 C 0.49689 0.3234 0.97519 0.0
C285 C 0.5024 0.29883 0.0279 0.0
C286 C 0.55249 0.32114 0.3179 0.0
C287 C 0.56243 0.34562 0.26991 0.0
O288 O 0.03015 0.04123 0.78578 0.0
Mn289 Mn 0.01319 0.00175 0.72815 0.0
O290 O 0.98604 0.06889 0.81812 0.0
Mn291 Mn 0.95708 0.04278 0.77329 0.0
O292 O 0.99655 0.96236 0.6679 0.0
O293 O 0.05468 0.99819 0.66267 0.0
Mn294 Mn 0.07036 0.96144 0.67922 0.0
O295 O 0.03171 0.97652 0.82693 0.0
O296 O 0.04106 0.93526 0.63579 0.0
O297 O 0.99542 0.02682 0.62851 0.0
O298 O 0.94902 0.04879 0.66339 0.0
O299 O 0.09888 0.97916 0.60992 0.0
O300 O 0.07921 0.95725 0.78955 0.0
C301 C 0.94698 0.00497 0.84639 0.0
C302 C 0.01632 0.06482 0.81749 0.0
C303 C 0.01071 0.93918 0.63431 0.0
C304 C 0.07908 0.00189 0.61419 0.0
C305 C 0.05839 0.96308 0.8446 0.0
C306 C 0.97082 0.04329 0.61098 0.0
O307 O 0.9716 0.00581 0.7963 0.0
O308 O 0.92702 0.02765 0.84091 0.0
O309 O 0.54087 0.01303 0.841 0.0
Mn310 Mn 0.51696 0.01368 0.72869 0.0
O311 O 0.5622 0.0578 0.8576 0.0
Mn312 Mn 0.56576 0.06351 0.74495 0.0
O313 O 0.49477 0.01384 0.61583 0.0
O314 O 0.50593 0.97043 0.75269 0.0
Mn315 Mn 0.46679 0.96419 0.71645 0.0
O316 O 0.47315 0.02861 0.78268 0.0
O317 O 0.46394 0.97378 0.60545 0.0
O318 O 0.55989 0.99877 0.67433 0.0
O319 O 0.59383 0.03688 0.6903 0.0
O320 O 0.48108 0.92827 0.7613 0.0
O321 O 0.44031 0.98911 0.77884 0.0
C322 C 0.52895 0.08439 0.67223 0.0
C323 C 0.55705 0.03146 0.88321 0.0
C324 C 0.47438 0.99841 0.57747 0.0
C325 C 0.50592 0.94325 0.78203 0.0
C326 C 0.4459 0.01633 0.79649 0.0
C327 C 0.58763 0.01037 0.66643 0.0
O328 O 0.52783 0.05717 0.7017 0.0
O329 O 0.55374 0.099 0.69493 0.0
O330 O 0.48839 0.5398 0.82709 0.0
Mn331 Mn 0.50782 0.51468 0.7291 0.0
O332 O 0.44201 0.56046 0.78485 0.0
Mn333 Mn 0.45157 0.55568 0.67513 0.0
O334 O 0.52649 0.48988 0.63021 0.0
O335 O 0.54946 0.51055 0.79594 0.0
Mn336 Mn 0.56287 0.47279 0.78072 0.0
O337 O 0.48999 0.47506 0.78535 0.0
O338 O 0.5705 0.4647 0.67145 0.0
O339 O 0.52523 0.55434 0.67353 0.0
O340 O 0.48169 0.58138 0.63279 0.0
O341 O 0.59329 0.48871 0.84575 0.0
O342 O 0.53316 0.44837 0.82932 0.0
C343 C 0.44282 0.51515 0.61181 0.0
C344 C 0.46192 0.55423 0.84178 0.0
C345 C 0.55017 0.47175 0.61635 0.0
C346 C 0.57449 0.51228 0.8439 0.0
C347 C 0.50301 0.45215 0.82275 0.0
C348 C 0.51192 0.57764 0.63883 0.0
O349 O 0.46682 0.51869 0.66159 0.0
O350 O 0.42343 0.53812 0.60525 0.0
O351 O 0.05023 0.48901 0.77736 0.0
Mn352 Mn 1.00629 0.50381 0.72328 0.0
O353 O 0.08305 0.52852 0.77033 0.0
Mn354 Mn 0.0563 0.55333 0.70831 0.0
O355 O 0.9634 0.51878 0.669 0.0
O356 O 0.99535 0.46027 0.69641 0.0
Mn357 Mn 0.95754 0.45414 0.74108 0.0
O358 O 0.98239 0.50448 0.83581 0.0
O359 O 0.92932 0.48087 0.68696 0.0
O360 O 0.02831 0.50362 0.61021 0.0
O361 O 0.05894 0.54367 0.59742 0.0
O362 O 0.96893 0.41861 0.6913 0.0
O363 O 0.96161 0.45955 0.85352 0.0
C364 C 0.01754 0.5743 0.77533 0.0
C365 C 0.07751 0.50141 0.78985 0.0
C366 C 0.9356 0.50729 0.66205 0.0
C367 C 0.99376 0.43303 0.66744 0.0
C368 C 0.96641 0.48594 0.87858 0.0
C369 C 0.04845 0.51898 0.57047 0.0
O370 O 0.01734 0.54711 0.74643 0.0
O371 O 0.04224 0.58928 0.75305 0.0
C372 C 0.12566 0.06237 0.51618 0.0
C373 C 0.12243 0.05233 0.43375 0.0
C374 C 0.07535 0.02422 0.47513 0.0
C375 C 0.08408 0.02777 0.55839 0.0
N376 N 0.11327 0.05387 0.66097 0.0
N377 N 0.09223 0.02574 0.33227 0.0
C378 C 0.10746 0.04867 0.57971 0.0
C379 C 0.09606 0.03455 0.41197 0.0
N380 N 0.14668 0.08444 0.53308 0.0
N381 N 0.04756 0.01028 0.45745 0.0
H382 H 0.10664 0.03325 0.28448 0.0
H383 H 0.07572 0.01002 0.31399 0.0
H384 H 0.03231 0.00321 0.50417 0.0
H385 H 0.03822 0.00857 0.39836 0.0
H386 H 0.1491 0.09419 0.59073 0.0
H387 H 0.15994 0.09471 0.4869 0.0
H388 H 0.13214 0.06642 0.68251 0.0
H389 H 0.09899 0.04485 0.70718 0.0
C390 C 0.48373 0.14683 0.56774 0.0
C391 C 0.49384 0.14208 0.48515 0.0
C392 C 0.51463 0.09172 0.52303 0.0
C393 C 0.5079 0.09799 0.60699 0.0
N394 N 0.47753 0.12626 0.70601 0.0
N395 N 0.50996 0.10728 0.37948 0.0
C396 C 0.48932 0.12383 0.62787 0.0
C397 C 0.50606 0.1134 0.46121 0.0
N398 N 0.47026 0.17395 0.58912 0.0
N399 N 0.53105 0.06586 0.50342 0.0
H400 H 0.50419 0.12296 0.33372 0.0
H401 H 0.51637 0.0862 0.35658 0.0
H402 H 0.5363 0.04933 0.54717 0.0
H403 H 0.54014 0.06103 0.44521 0.0
H404 H 0.46551 0.18041 0.64945 0.0
H405 H 0.46462 0.19055 0.54572 0.0
H406 H 0.46196 0.1434 0.72546 0.0
H407 H 0.48133 0.10928 0.74962 0.0
C408 C 0.39856 0.45315 0.51429 0.0
C409 C 0.40053 0.46391 0.43206 0.0
C410 C 0.44619 0.49414 0.47177 0.0
C411 C 0.43839 0.48952 0.55539 0.0
N412 N 0.41134 0.46145 0.65868 0.0
N413 N 0.42828 0.49278 0.32989 0.0
C414 C 0.41637 0.46737 0.57731 0.0
C415 C 0.42564 0.48317 0.40942 0.0
N416 N 0.37907 0.42985 0.53154 0.0
N417 N 0.47273 0.50999 0.45305 0.0
H418 H 0.41394 0.48495 0.28262 0.0
H419 H 0.44368 0.50947 0.31124 0.0
H420 H 0.48763 0.518 0.49909 0.0
H421 H 0.4815 0.51261 0.39355 0.0
H422 H 0.37774 0.41955 0.58893 0.0
H423 H 0.36612 0.4192 0.4857 0.0
H424 H 0.39334 0.44787 0.68068 0.0
H425 H 0.42531 0.47094 0.70452 0.0
C426 C 0.04139 0.37224 0.5582 0.0
C427 C 0.02669 0.37476 0.47963 0.0
C428 C 1.00533 0.42487 0.51794 0.0
C429 C 0.01409 0.41931 0.60096 0.0
N430 N 0.04347 0.38981 0.69997 0.0
N431 N 0.9963 0.40436 0.38165 0.0
C432 C 0.03365 0.39384 0.62051 0.0
C433 C 1.00985 0.40174 0.45788 0.0
N434 N 0.06251 0.34896 0.57286 0.0
N435 N 0.99191 0.45209 0.49748 0.0
H436 H 0.99976 0.38825 0.33592 0.0
H437 H 0.98056 0.42172 0.36456 0.0
H438 H 0.98798 0.46889 0.54106 0.0
H439 H 0.98731 0.45898 0.43732 0.0
H440 H 0.07594 0.3466 0.62644 0.0
H441 H 0.06853 0.33314 0.52783 0.0
H442 H 0.05472 0.37031 0.72195 0.0
H443 H 0.03951 0.40625 0.74476 0.0
C444 C 0.91824 0.98845 0.05758 0.0
C445 C 0.9076 0.95877 0.04575 0.0
C446 C 0.93999 0.95499 0.91897 0.0
C447 C 0.94456 0.98612 0.92248 0.0
N448 N 0.95198 0.02857 0.00968 0.0
N449 N 0.9119 0.91195 0.97275 0.0
C450 C 0.93836 0.00145 0.99727 0.0
C451 C 0.92023 0.94123 0.97952 0.0
N452 N 0.90691 0.00509 0.12235 0.0
N453 N 0.95579 0.93872 0.86034 0.0
H454 H 0.89878 0.90121 0.01834 0.0
H455 H 0.91726 0.89864 0.92182 0.0
H456 H 0.97192 0.94888 0.82073 0.0
H457 H 0.95586 0.91542 0.85726 0.0
H458 H 0.91037 0.028 0.12856 0.0
H459 H 0.89266 0.99632 0.1687 0.0
H460 H 0.95106 0.04012 0.06521 0.0
H461 H 0.96707 0.03797 0.96594 0.0
C462 C 0.52759 0.91518 0.9943 0.0
C463 C 0.54218 0.88736 0.97136 0.0
C464 C 0.5478 0.90632 0.82948 0.0
C465 C 0.5271 0.93092 0.84872 0.0
N466 N 0.49879 0.96048 0.94997 0.0
N467 N 0.56966 0.85728 0.86964 0.0
C468 C 0.51828 0.93633 0.93192 0.0
C469 C 0.554 0.88349 0.88988 0.0
N470 N 0.52213 0.92097 0.07562 0.0
N471 N 0.56081 0.90474 0.75248 0.0
H472 H 0.57563 0.84091 0.91344 0.0
H473 H 0.57599 0.85131 0.80985 0.0
H474 H 0.55635 0.92151 0.70861 0.0
H475 H 0.57784 0.88865 0.73442 0.0
H476 H 0.51401 0.94169 0.09777 0.0
H477 H 0.52847 0.90566 0.12182 0.0
H478 H 0.48774 0.96379 0.00676 0.0
H479 H 0.49283 0.97691 0.90641 0.0
C480 C 0.59519 0.54166 0.05256 0.0
C481 C 0.61709 0.5636 0.02794 0.0
C482 C 0.59573 0.56186 0.88677 0.0
C483 C 0.57945 0.53552 0.90783 0.0
N484 N 0.56112 0.50116 0.01096 0.0
N485 N 0.63579 0.59796 0.92552 0.0
C486 C 0.57778 0.52618 0.99141 0.0
C487 C 0.61603 0.57524 0.94639 0.0
N488 N 0.59173 0.53521 0.13425 0.0
N489 N 0.59254 0.57317 0.80901 0.0
H490 H 0.64976 0.60871 0.96908 0.0
H491 H 0.63889 0.60579 0.86577 0.0
H492 H 0.57797 0.56316 0.76544 0.0
H493 H 0.60209 0.5933 0.78957 0.0
H494 H 0.5743 0.52124 0.15747 0.0
H495 H 0.60458 0.54608 0.17976 0.0
H496 H 0.562 0.49063 0.06817 0.0
H497 H 0.54686 0.49039 0.96813 0.0
C498 C 0.99687 0.60193 0.98872 0.0
C499 C 0.98211 0.62981 0.96654 0.0
C500 C 0.97609 0.61137 0.82455 0.0
C501 C 0.99679 0.58665 0.84295 0.0
N502 N 0.0254 0.5567 0.94313 0.0
N503 N 0.95435 0.66026 0.86581 0.0
C504 C 1.00593 0.58097 0.92585 0.0
C505 C 0.97008 0.63398 0.88538 0.0
N506 N 1.00273 0.59589 0.06981 0.0
N507 N 0.96283 0.61325 0.74793 0.0
H508 H 0.9485 0.67647 0.90991 0.0
H509 H 0.94788 0.66647 0.80625 0.0
H510 H 0.96711 0.59665 0.70374 0.0
H511 H 0.94575 0.62942 0.73052 0.0
H512 H 0.01105 0.57515 0.09157 0.0
H513 H 0.99659 0.61104 0.11636 0.0
H514 H 0.03662 0.55313 0.99955 0.0
H515 H 0.03114 0.5404 0.89926 0.0
C516 C 0.93298 0.0913 0.44649 0.0
C517 C 0.95909 0.10899 0.42342 0.0
C518 C 0.99559 0.07806 0.50628 0.0
C519 C 0.96929 0.06064 0.5327 0.0
N520 N 0.91594 0.04419 0.50512 0.0
N521 N 0.01601 0.11182 0.40322 0.0
C522 C 0.93893 0.06506 0.4946 0.0
C523 C 0.99067 0.09957 0.44321 0.0
N524 N 0.90258 0.10024 0.42559 0.0
N525 N 0.02439 0.07672 0.54589 0.0
H526 H 0.01315 0.128 0.35711 0.0
H527 H 0.03944 0.10355 0.40959 0.0
H528 H 0.02994 0.06235 0.59424 0.0
H529 H 0.04243 0.09193 0.53493 0.0
H530 H 0.88225 0.09003 0.4484 0.0
H531 H 0.89775 0.11898 0.3886 0.0
H532 H 0.89412 0.045 0.47427 0.0
H533 H 0.92025 0.02442 0.53838 0.0
C534 C 0.42641 0.00506 0.38133 0.0
C535 C 0.41244 0.03409 0.39136 0.0
C536 C 0.44394 0.04239 0.51365 0.0
C537 C 0.45747 0.01263 0.5069 0.0
N538 N 0.46882 0.96969 0.42113 0.0
N539 N 0.41359 0.08315 0.45301 0.0
C540 C 0.45107 0.99525 0.4361 0.0
C541 C 0.42391 0.05379 0.45127 0.0
N542 N 0.41511 0.98656 0.32181 0.0
N543 N 0.44686 0.05998 0.58151 0.0
H544 H 0.3985 0.0926 0.40838 0.0
H545 H 0.42151 0.09833 0.49689 0.0
H546 H 0.4583 0.05389 0.63597 0.0
H547 H 0.4583 0.05389 0.63597 0.0
H548 H 0.42158 0.96391 0.31729 0.0
H549 H 0.39802 0.99374 0.27882 0.0
H550 H 0.46709 0.95725 0.3673 0.0
H551 H 0.48758 0.96257 0.45941 0.0
C552 C 0.58814 0.42306 0.45372 0.0
C553 C 0.56161 0.40633 0.42877 0.0
C554 C 0.52545 0.43798 0.51043 0.0
C555 C 0.55208 0.4545 0.53831 0.0
N556 N 0.60641 0.46912 0.51522 0.0
N557 N 0.5047 0.40507 0.40649 0.0
C558 C 0.5827 0.44919 0.50229 0.0
C559 C 0.53015 0.41653 0.44745 0.0
N560 N 0.61841 0.4133 0.43407 0.0
N561 N 0.49641 0.44011 0.54886 0.0
H562 H 0.50735 0.38891 0.36052 0.0
H563 H 0.48147 0.41394 0.41201 0.0
H564 H 0.4912 0.45443 0.59741 0.0
H565 H 0.47788 0.42555 0.53704 0.0
H566 H 0.63892 0.42269 0.45818 0.0
H567 H 0.62288 0.39467 0.39666 0.0
H568 H 0.62858 0.46774 0.48594 0.0
H569 H 0.60255 0.48876 0.54904 0.0
C570 C 0.09617 0.46142 0.44447 0.0
C571 C 0.11014 0.4808 0.38721 0.0
C572 C 0.07393 0.52158 0.43096 0.0
C573 C 0.06531 0.50425 0.5005 0.0
N574 N 0.07412 0.4578 0.57945 0.0
N575 N 0.10917 0.52888 0.31728 0.0
C576 C 0.07718 0.47387 0.50814 0.0
C577 C 0.09802 0.51052 0.37724 0.0
N578 N 0.10201 0.43117 0.43985 0.0
N579 N 0.05985 0.54908 0.41702 0.0
H580 H 0.12664 0.52232 0.27454 0.0
H581 H 0.12664 0.52232 0.27454 0.0
H582 H 0.04089 0.55748 0.4527 0.0
H583 H 0.06615 0.56257 0.36725 0.0
H584 H 0.08964 0.41573 0.47521 0.0
H585 H 0.11659 0.42142 0.39461 0.0
H586 H 0.08623 0.43741 0.58975 0.0
H587 H 0.06323 0.4656 0.63281 0.0
C588 C 0.08902 0.90309 0.98408 0.0
C589 C 0.05933 0.89543 0.01952 0.0
C590 C 0.0362 0.94412 0.97858 0.0
C591 C 0.0627 0.94789 0.92608 0.0
N592 N 0.11979 0.94171 0.91704 0.0
N593 N 1.00516 0.90946 0.05862 0.0
C594 C 0.09108 0.93074 0.9412 0.0
C595 C 0.03323 0.91649 0.02084 0.0
N596 N 0.11452 0.88334 0.98788 0.0
N597 N 0.01525 0.96754 0.99176 0.0
H598 H 1.0023 0.88972 0.09212 0.0
H599 H 0.98423 0.9225 0.05309 0.0
H600 H 0.01887 0.9887 0.96641 0.0
H601 H 0.99724 0.96713 0.03605 0.0
H602 H 0.13571 0.88614 0.95538 0.0
H603 H 0.11391 0.86328 0.02102 0.0
H604 H 0.14179 0.93142 0.93062 0.0
H605 H 0.12145 0.96313 0.89143 0.0
C606 C 0.59146 0.98858 0.06788 0.0
C607 C 0.62183 0.9803 0.03461 0.0
C608 C 0.61185 0.01192 0.91528 0.0
C609 C 0.57998 0.01789 0.94277 0.0
N610 N 0.5381 0.00951 0.04143 0.0
N611 N 0.65625 0.9763 0.91606 0.0
C612 C 0.56924 0.00526 0.01786 0.0
C613 C 0.63026 0.98925 0.95441 0.0
N614 N 0.58436 0.98143 0.14745 0.0
N615 N 0.62536 0.02853 0.85428 0.0
H616 H 0.66982 0.95883 0.94259 0.0
H617 H 0.66221 0.98064 0.85499 0.0
H618 H 0.61467 0.04768 0.82913 0.0
H619 H 0.6493 0.02601 0.83704 0.0
H620 H 0.5639 0.98937 0.17781 0.0
H621 H 0.59998 0.96885 0.18471 0.0
H622 H 0.528 0.99859 0.09146 0.0
H623 H 0.52194 0.02298 0.00803 0.0
C624 C 0.43217 0.61629 0.97554 0.0
C625 C 0.46163 0.62268 0.01389 0.0
C626 C 0.48281 0.57294 0.97688 0.0
C627 C 0.45703 0.5701 0.92193 0.0
N628 N 0.40045 0.57893 0.90684 0.0
N629 N 0.51471 0.60648 0.05708 0.0
C630 C 0.42935 0.58864 0.93334 0.0
C631 C 0.48665 0.60055 0.018 0.0
N632 N 0.40764 0.63715 0.97623 0.0
N633 N 0.50203 0.54864 0.99408 0.0
H634 H 0.51832 0.62623 0.08961 0.0
H635 H 0.53503 0.59251 0.05294 0.0
H636 H 0.49774 0.52762 0.96907 0.0
H637 H 0.51857 0.54845 0.04191 0.0
H638 H 0.38686 0.63525 0.94163 0.0
H639 H 0.40876 0.65722 0.00886 0.0
H640 H 0.37881 0.59031 0.91766 0.0
H641 H 0.39801 0.5575 0.88226 0.0
C642 C 0.93062 0.529 0.0607 0.0
C643 C 0.90035 0.53692 0.02622 0.0
C644 C 0.91123 0.50483 0.90889 0.0
C645 C 0.94306 0.49937 0.9372 0.0
N646 N 0.98438 0.5087 0.03625 0.0
N647 N 0.86668 0.54025 0.90627 0.0
C648 C 0.9533 0.51244 0.01187 0.0
C649 C 0.89249 0.52761 0.94617 0.0
N650 N 0.93718 0.53628 0.14032 0.0
N651 N 0.89803 0.48763 0.84909 0.0
H652 H 0.8529 0.55782 0.93139 0.0
H653 H 0.86114 0.53555 0.84524 0.0
H654 H 0.90889 0.46826 0.82589 0.0
H655 H 0.87415 0.48991 0.83132 0.0
H656 H 0.95756 0.52858 0.17141 0.0
H657 H 0.92118 0.54865 0.17696 0.0
H658 H 0.99408 0.51996 0.08599 0.0
H659 H 1.00088 0.49533 1.00377 0.0
C660 C 0.03558 0.11722 0.98937 0.0
C661 C 0.04617 0.14282 0.94539 0.0
C662 C 0.04637 0.11339 0.81703 0.0
C663 C 0.03493 0.08827 0.86092 0.0
N664 N 0.02853 0.06327 0.99036 0.0
N665 N 0.06844 0.16341 0.82161 0.0
C666 C 0.03302 0.08927 0.9478 0.0
C667 C 0.05385 0.14023 0.8604 0.0
N668 N 0.0258 0.11997 0.06939 0.0
N669 N 0.04894 0.11181 0.73348 0.0
H670 H 0.07414 0.18314 0.85203 0.0
H671 H 0.07712 0.16231 0.76163 0.0
H672 H 0.04585 0.09177 0.70207 0.0
H673 H 0.0533 0.13011 0.69561 0.0
H674 H 0.01439 0.10305 0.10145 0.0
H675 H 0.02661 0.13996 0.10225 0.0
H676 H 0.02963 0.06168 0.05424 0.0
H677 H 0.02708 0.04263 0.96068 0.0
C678 C 0.38448 0.05291 0.93999 0.0
C679 C 0.3582 0.0577 0.88528 0.0
C680 C 0.39106 0.03898 0.77054 0.0
C681 C 0.41764 0.03469 0.82477 0.0
N682 N 0.44156 0.04268 0.95716 0.0
N683 N 0.33857 0.06203 0.74679 0.0
C684 C 0.41502 0.04362 0.90814 0.0
C685 C 0.36225 0.05294 0.7999 0.0
N686 N 0.37977 0.05567 0.02292 0.0
N687 N 0.39282 0.02851 0.69161 0.0
H688 H 0.31707 0.072 0.76671 0.0
H689 H 0.34128 0.06222 0.68309 0.0
H690 H 0.4135 0.01874 0.66654 0.0
H691 H 0.37322 0.02762 0.65236 0.0
H692 H 0.39673 0.04926 0.06684 0.0
H693 H 0.3579 0.06244 0.04854 0.0
H694 H 0.44209 0.05159 0.01625 0.0
H695 H 0.46393 0.03506 0.93629 0.0
C696 C 0.46454 0.37708 0.86412 0.0
C697 C 0.47175 0.37436 0.94934 0.0
C698 C 0.48462 0.42793 0.95199 0.0
C699 C 0.48346 0.42901 0.86504 0.0
N700 N 0.47055 0.40555 0.73716 0.0
N701 N 0.49129 0.39712 0.07391 0.0
C702 C 0.47234 0.40395 0.82084 0.0
C703 C 0.48192 0.39993 0.9936 0.0
N704 N 0.45017 0.35396 0.82498 0.0
N705 N 0.48864 0.4539 0.99451 0.0
H706 H 0.4905 0.37706 0.10683 0.0
H707 H 0.50239 0.41407 0.10622 0.0
H708 H 0.49008 0.47456 0.96459 0.0
H709 H 0.48705 0.45543 0.05833 0.0
H710 H 0.44184 0.35517 0.76473 0.0
H711 H 0.44425 0.33421 0.85538 0.0
H712 H 0.46646 0.38725 0.69935 0.0
H713 H 0.47406 0.42555 0.70561 0.0
C714 C 0.13734 0.46106 0.93304 0.0
C715 C 0.16522 0.46095 0.88232 0.0
C716 C 0.13301 0.48032 0.76657 0.0
C717 C 0.10587 0.48341 0.81951 0.0
N718 N 0.08205 0.47811 0.95332 0.0
N719 N 0.19017 0.47016 0.75165 0.0
C720 C 0.10782 0.47361 0.90248 0.0
C721 C 0.16307 0.47016 0.79897 0.0
N722 N 0.13924 0.44946 0.01092 0.0
N723 N 0.1299 0.48712 0.68478 0.0
H724 H 0.21209 0.46118 0.77185 0.0
H725 H 0.19158 0.48009 0.69382 0.0
H726 H 0.10898 0.49631 0.65951 0.0
H727 H 0.14718 0.48208 0.64049 0.0
H728 H 0.1195 0.44582 0.04832 0.0
H729 H 0.16061 0.44165 0.03709 0.0
H730 H 0.08268 0.475 0.01676 0.0
H731 H 0.06003 0.48661 0.93253 0.0
C732 C 0.96409 0.86914 0.5829 0.0
C733 C 0.97769 0.8615 0.50536 0.0
C734 C 1.00514 0.90977 0.5028 0.0
C735 C 0.99306 0.91667 0.58285 0.0
N736 N 0.95135 0.90857 0.6814 0.0
N737 N 1.00517 0.87728 0.38274 0.0
C738 C 0.96952 0.89806 0.61765 0.0
C739 C 0.99626 0.88279 0.46248 0.0
N740 N 0.94661 0.84849 0.6243 0.0
N741 N 0.02568 0.92904 0.46591 0.0
H742 H 1.00004 0.85751 0.35194 0.0
H743 H 0.01579 0.89294 0.34459 0.0
H744 H 0.02984 0.95031 0.48931 0.0
H745 H 0.03915 0.92395 0.41369 0.0
H746 H 0.93905 0.85127 0.68494 0.0
H747 H 0.94144 0.82761 0.59951 0.0
H748 H 0.93234 0.89706 0.70676 0.0
H749 H 0.95249 0.93073 0.70056 0.0
C750 C 0.65998 0.95694 0.64687 0.0
C751 C 0.671 0.96419 0.56672 0.0
C752 C 0.62608 1.00037 0.55004 0.0
C753 C 0.61436 0.9924 0.62888 0.0
N754 N 0.61644 0.95916 0.74619 0.0
N755 N 0.65944 0.98635 0.43381 0.0
C756 C 0.63007 0.96928 0.67518 0.0
C757 C 0.65256 0.98406 0.5159 0.0
N758 N 0.67872 0.93924 0.69705 0.0
N759 N 0.61216 0.02385 0.50791 0.0
H760 H 0.678 0.97418 0.40544 0.0
H761 H 0.6448 0.99793 0.39204 0.0
H762 H 0.59173 0.03538 0.52867 0.0
H763 H 0.62207 0.03314 0.45514 0.0
H764 H 0.67372 0.93545 0.75891 0.0
H765 H 0.70072 0.93001 0.67833 0.0
H766 H 0.62475 0.94022 0.77799 0.0
H767 H 0.59528 0.96837 0.77044 0.0
C768 C 0.5489 0.65403 0.60414 0.0
C769 C 0.54702 0.65554 0.51681 0.0
C770 C 0.53506 0.60167 0.51401 0.0
C771 C 0.53145 0.60162 0.60061 0.0
N772 N 0.5348 0.62744 0.72973 0.0
N773 N 0.53475 0.63104 0.38844 0.0
C774 C 0.5388 0.62764 0.64628 0.0
C775 C 0.53966 0.62927 0.47152 0.0
N776 N 0.56056 0.67777 0.6465 0.0
N777 N 0.53375 0.57517 0.47241 0.0
H778 H 0.53688 0.65078 0.35464 0.0
H779 H 0.52578 0.61355 0.35382 0.0
H780 H 0.53073 0.55475 0.50265 0.0
H781 H 0.539 0.57301 0.41001 0.0
H782 H 0.56525 0.6773 0.70938 0.0
H783 H 0.56813 0.69721 0.6172 0.0
H784 H 0.53595 0.64651 0.76625 0.0
H785 H 0.52891 0.60809 0.76214 0.0
C786 C 0.86378 0.56131 0.64017 0.0
C787 C 0.85278 0.55389 0.56033 0.0
C788 C 0.89722 0.51707 0.54549 0.0
C789 C 0.90896 0.52525 0.62394 0.0
N790 N 0.90709 0.55888 0.73987 0.0
N791 N 0.86396 0.53077 0.42876 0.0
C792 C 0.89346 0.54869 0.6692 0.0
C793 C 0.87093 0.53349 0.5106 0.0
N794 N 0.84522 0.57948 0.6894 0.0
N795 N 0.91096 0.49331 0.50447 0.0
H796 H 0.84545 0.54288 0.39992 0.0
H797 H 0.87843 0.51881 0.3875 0.0
H798 H 0.93129 0.4817 0.52567 0.0
H799 H 0.90101 0.48386 0.45218 0.0
H800 H 0.85011 0.58337 0.75118 0.0
H801 H 0.82344 0.58899 0.67002 0.0
H802 H 0.89896 0.578 0.7709 0.0
H803 H 0.92805 0.54947 0.76469 0.0
loop_
_geom_bond_atom_site_label_1
_geom_bond_atom_site_label_2
_geom_bond_distance
_geom_bond_site_symmetry_2
_ccdc_geom_bond_type
C0 C1 1.384 . S
C0 H13 0.947 . S
C0 C35 1.382 . S
C1 C0 1.384 . S
C1 C2 1.378 . S
C2 C1 1.378 . S
C2 C3 1.378 . S
C2 H14 0.952 . S
C3 C2 1.378 . S
C3 H15 0.950 . S
C3 C34 1.383 . S
H4 C23 0.947 . S
H5 C24 0.946 . S
H6 C26 0.953 . S
H7 C27 0.945 . S
H8 C29 0.952 . S
H9 C30 0.949 . S
H10 C32 0.950 . S
H11 C33 0.948 1_554 S
H12 C35 0.951 . S
H13 C0 0.947 . S
H14 C2 0.952 . S
H15 C3 0.950 . S
N16 C19 1.382 . S
N16 C21 1.363 . S
N17 C19 1.371 . S
N17 C20 1.372 . S
N18 C20 1.361 . S
N18 C21 1.377 . S
C19 N16 1.382 . S
C19 N17 1.371 . S
C19 C22 1.480 . S
C20 N17 1.372 . S
C20 N18 1.361 . S
C20 C28 1.457 1_554 S
C21 N16 1.363 . S
C21 N18 1.377 . S
C21 C34 1.479 . S
C22 C19 1.480 . S
C22 C23 1.383 . S
C22 C27 1.385 1_554 S
C23 H4 0.947 . S
C23 C22 1.383 . S
C23 C24 1.388 . S
C24 H5 0.946 . S
C24 C23 1.388 . S
C24 C25 1.384 . S
C25 C24 1.384 . S
C25 C26 1.377 1_554 S
C26 H6 0.953 . S
C26 C25 1.377 1_556 S
C26 C27 1.369 . S
C27 H7 0.945 . S
C27 C22 1.385 1_556 S
C27 C26 1.369 . S
C28 C20 1.457 1_556 S
C28 C29 1.372 . S
C28 C33 1.364 . S
C29 H8 0.952 . S
C29 C28 1.372 . S
C29 C30 1.389 . S
C30 H9 0.949 . S
C30 C29 1.389 . S
C30 C31 1.387 . S
C31 C30 1.387 . S
C31 C32 1.372 . S
C32 H10 0.950 . S
C32 C31 1.372 . S
C32 C33 1.379 . S
C33 H11 0.948 1_556 S
C33 C28 1.364 . S
C33 C32 1.379 . S
C34 C3 1.383 . S
C34 C21 1.479 . S
C34 C35 1.398 . S
C35 C0 1.382 . S
C35 H12 0.951 . S
C35 C34 1.398 . S
C36 C37 1.384 1_655 S
C36 H49 0.947 . S
C36 C71 1.382 1_655 S
C37 C36 1.384 1_455 S
C37 C38 1.378 . S
C38 C37 1.378 . S
C38 C39 1.378 . S
C38 H50 0.952 . S
C39 C38 1.378 . S
C39 H51 0.950 . S
C39 C70 1.383 . S
H40 C59 0.947 . S
H41 C60 0.953 . S
H42 C62 0.953 . S
H43 C63 0.945 . S
H44 C65 0.948 1_655 S
H45 C66 0.949 . S
H46 C68 0.950 . S
H47 C69 0.948 . S
H48 C71 0.951 1_655 S
H49 C36 0.947 . S
H50 C38 0.952 . S
H51 C39 0.950 . S
N52 C55 1.382 . S
N52 C57 1.363 . S
N53 C55 1.371 . S
N53 C56 1.372 . S
N54 C56 1.361 . S
N54 C57 1.377 . S
C55 N52 1.382 . S
C55 N53 1.371 . S
C55 C58 1.480 . S
C56 N53 1.372 . S
C56 N54 1.361 . S
C56 C64 1.457 1_554 S
C57 N52 1.363 . S
C57 N54 1.377 . S
C57 C70 1.479 . S
C58 C55 1.480 . S
C58 C59 1.383 . S
C58 C63 1.385 1_554 S
C59 H40 0.947 . S
C59 C58 1.383 . S
C59 C60 1.385 1_455 S
C60 H41 0.953 . S
C60 C59 1.385 1_655 S
C60 C61 1.382 1_655 S
C61 C60 1.382 1_455 S
C61 C62 1.377 1_554 S
C62 H42 0.953 . S
C62 C61 1.377 1_556 S
C62 C63 1.369 . S
C63 H43 0.945 . S
C63 C58 1.385 1_556 S
C63 C62 1.369 . S
C64 C56 1.457 1_556 S
C64 C65 1.377 . S
C64 C69 1.364 1_556 S
C65 H44 0.948 1_455 S
C65 C64 1.377 . S
C65 C66 1.388 1_455 S
C66 H45 0.949 . S
C66 C65 1.388 1_655 S
C66 C67 1.387 1_655 S
C67 C66 1.387 1_455 S
C67 C68 1.372 . S
C68 H46 0.950 . S
C68 C67 1.372 . S
C68 C69 1.379 1_556 S
C69 H47 0.948 . S
C69 C64 1.364 1_554 S
C69 C68 1.379 1_554 S
C70 C39 1.383 . S
C70 C57 1.479 . S
C70 C71 1.398 . S
C71 C36 1.382 1_455 S
C71 H48 0.951 1_455 S
C71 C70 1.398 . S
C72 C73 1.384 . S
C72 H85 0.947 . S
C72 C107 1.382 . S
C73 C72 1.384 . S
C73 C74 1.378 . S
C74 C73 1.378 . S
C74 C75 1.378 . S
C74 H86 0.952 . S
C75 C74 1.378 . S
C75 H87 0.950 . S
C75 C106 1.383 . S
H76 C95 0.947 . S
H77 C96 0.946 . S
H78 C98 0.953 . S
H79 C99 0.945 . S
H80 C101 0.952 . S
H81 C102 0.949 . S
H82 C104 0.950 . S
H83 C105 0.948 . S
H84 C107 0.951 . S
H85 C72 0.947 . S
H86 C74 0.952 . S
H87 C75 0.950 . S
N88 C91 1.382 . S
N88 C93 1.363 . S
N89 C91 1.371 . S
N89 C92 1.372 . S
N90 C92 1.361 . S
N90 C93 1.377 . S
C91 N88 1.382 . S
C91 N89 1.371 . S
C91 C94 1.480 . S
C92 N89 1.372 . S
C92 N90 1.361 . S
C92 C100 1.457 1_554 S
C93 N88 1.363 . S
C93 N90 1.377 . S
C93 C106 1.479 . S
C94 C91 1.480 . S
C94 C95 1.383 . S
C94 C99 1.385 1_554 S
C95 H76 0.947 . S
C95 C94 1.383 . S
C95 C96 1.388 . S
C96 H77 0.946 . S
C96 C95 1.388 . S
C96 C97 1.384 . S
C97 C96 1.384 . S
C97 C98 1.377 1_554 S
C98 H78 0.953 . S
C98 C97 1.377 1_556 S
C98 C99 1.369 . S
C99 H79 0.945 . S
C99 C94 1.385 1_556 S
C99 C98 1.369 . S
C100 C92 1.457 1_556 S
C100 C101 1.372 . S
C100 C105 1.364 1_556 S
C101 H80 0.952 . S
C101 C100 1.372 . S
C101 C102 1.389 . S
C102 H81 0.949 . S
C102 C101 1.389 . S
C102 C103 1.387 . S
C103 C102 1.387 . S
C103 C104 1.372 . S
C104 H82 0.950 . S
C104 C103 1.372 . S
C104 C105 1.379 1_556 S
C105 H83 0.948 . S
C105 C100 1.364 1_554 S
C105 C104 1.379 1_554 S
C106 C75 1.383 . S
C106 C93 1.479 . S
C106 C107 1.398 . S
C107 C72 1.382 . S
C107 H84 0.951 . S
C107 C106 1.398 . S
C108 C109 1.384 . S
C108 H121 0.947 . S
C108 C143 1.382 1_556 S
C109 C108 1.384 . S
C109 C110 1.378 . S
C110 C109 1.378 . S
C110 C111 1.378 . S
C110 H122 0.952 . S
C111 C110 1.378 . S
C111 H123 0.950 . S
C111 C142 1.383 . S
H112 C131 0.947 1_556 S
H113 C132 0.946 . S
H114 C134 0.953 . S
H115 C135 0.945 . S
H116 C137 0.952 . S
H117 C138 0.949 . S
H118 C140 0.950 . S
H119 C141 0.948 . S
H120 C143 0.951 . S
H121 C108 0.947 . S
H122 C110 0.952 . S
H123 C111 0.950 . S
N124 C127 1.382 . S
N124 C129 1.363 . S
N125 C127 1.371 . S
N125 C128 1.372 . S
N126 C128 1.361 . S
N126 C129 1.377 . S
C127 N124 1.382 . S
C127 N125 1.371 . S
C127 C130 1.480 . S
C128 N125 1.372 . S
C128 N126 1.361 . S
C128 C136 1.457 . S
C129 N124 1.363 . S
C129 N126 1.377 . S
C129 C142 1.479 1_554 S
C130 C127 1.480 . S
C130 C131 1.383 . S
C130 C135 1.385 . S
C131 H112 0.947 1_554 S
C131 C130 1.383 . S
C131 C132 1.388 1_554 S
C132 H113 0.946 . S
C132 C131 1.388 1_556 S
C132 C133 1.384 1_556 S
C133 C132 1.384 1_554 S
C133 C134 1.377 . S
C134 H114 0.953 . S
C134 C133 1.377 . S
C134 C135 1.369 . S
C135 H115 0.945 . S
C135 C130 1.385 . S
C135 C134 1.369 . S
C136 C128 1.457 . S
C136 C137 1.372 . S
C136 C141 1.364 . S
C137 H116 0.952 . S
C137 C136 1.372 . S
C137 C138 1.389 . S
C138 H117 0.949 . S
C138 C137 1.389 . S
C138 C139 1.387 . S
C139 C138 1.387 . S
C139 C140 1.372 . S
C140 H118 0.950 . S
C140 C139 1.372 . S
C140 C141 1.379 . S
C141 H119 0.948 . S
C141 C136 1.364 . S
C141 C140 1.379 . S
C142 C111 1.383 . S
C142 C129 1.479 1_556 S
C142 C143 1.398 1_556 S
C143 C108 1.382 1_554 S
C143 H120 0.951 . S
C143 C142 1.398 1_554 S
C144 C145 1.384 . S
C144 H157 0.947 . S
C144 C179 1.382 . S
C145 C144 1.384 . S
C145 C146 1.378 . S
C146 C145 1.378 . S
C146 C147 1.378 . S
C146 H158 0.952 1_554 S
C147 C146 1.378 . S
C147 H159 0.950 . S
C147 C178 1.383 . S
H148 C167 0.947 . S
H149 C168 0.946 . S
H150 C170 0.953 . S
H151 C171 0.945 . S
H152 C173 0.952 . S
H153 C174 0.949 . S
H154 C176 0.950 . S
H155 C177 0.948 . S
H156 C179 0.951 . S
H157 C144 0.947 . S
H158 C146 0.952 1_556 S
H159 C147 0.950 . S
N160 C163 1.382 . S
N160 C165 1.363 . S
N161 C163 1.371 . S
N161 C164 1.372 . S
N162 C164 1.361 . S
N162 C165 1.377 . S
C163 N160 1.382 . S
C163 N161 1.371 . S
C163 C166 1.480 . S
C164 N161 1.372 . S
C164 N162 1.361 . S
C164 C172 1.457 . S
C165 N160 1.363 . S
C165 N162 1.377 . S
C165 C178 1.479 . S
C166 C163 1.480 . S
C166 C167 1.383 . S
C166 C171 1.385 . S
C167 H148 0.947 . S
C167 C166 1.383 . S
C167 C168 1.388 . S
C168 H149 0.946 . S
C168 C167 1.388 . S
C168 C169 1.384 . S
C169 C168 1.384 . S
C169 C170 1.377 . S
C170 H150 0.953 . S
C170 C169 1.377 . S
C170 C171 1.369 . S
C171 H151 0.945 . S
C171 C166 1.385 . S
C171 C170 1.369 . S
C172 C164 1.457 . S
C172 C173 1.372 . S
C172 C177 1.364 . S
C173 H152 0.952 . S
C173 C172 1.372 . S
C173 C174 1.389 . S
C174 H153 0.949 . S
C174 C173 1.389 . S
C174 C175 1.387 . S
C175 C174 1.387 . S
C175 C176 1.372 . S
C176 H154 0.950 . S
C176 C175 1.372 . S
C176 C177 1.379 . S
C177 H155 0.948 . S
C177 C172 1.364 . S
C177 C176 1.379 . S
C178 C147 1.383 . S
C178 C165 1.479 . S
C178 C179 1.398 . S
C179 C144 1.382 . S
C179 H156 0.951 . S
C179 C178 1.398 . S
C180 C181 1.384 1_654 S
C180 H193 0.947 . S
C180 C215 1.382 1_655 S
C181 C180 1.384 1_456 S
C181 C182 1.378 1_556 S
C182 C181 1.378 1_554 S
C182 C183 1.378 . S
C182 H194 0.952 1_554 S
C183 C182 1.378 . S
C183 H195 0.950 . S
C183 C214 1.383 . S
H184 C203 0.947 . S
H185 C204 0.950 . S
H186 C206 0.953 . S
H187 C207 0.945 . S
H188 C209 0.948 1_655 S
H189 C210 0.954 . S
H190 C212 0.950 . S
H191 C213 0.948 . S
H192 C215 0.950 1_655 S
H193 C180 0.947 . S
H194 C182 0.952 1_556 S
H195 C183 0.950 . S
N196 C199 1.382 . S
N196 C201 1.363 . S
N197 C199 1.371 . S
N197 C200 1.372 . S
N198 C200 1.361 . S
N198 C201 1.377 . S
C199 N196 1.382 . S
C199 N197 1.371 . S
C199 C202 1.480 . S
C200 N197 1.372 . S
C200 N198 1.361 . S
C200 C208 1.457 . S
C201 N196 1.363 . S
C201 N198 1.377 . S
C201 C214 1.479 . S
C202 C199 1.480 . S
C202 C203 1.383 . S
C202 C207 1.385 . S
C203 H184 0.947 . S
C203 C202 1.383 . S
C203 C204 1.387 1_455 S
C204 H185 0.950 . S
C204 C203 1.387 1_655 S
C204 C205 1.382 1_655 S
C205 C204 1.382 1_455 S
C205 C206 1.377 . S
C206 H186 0.953 . S
C206 C205 1.377 . S
C206 C207 1.369 . S
C207 H187 0.945 . S
C207 C202 1.385 . S
C207 C206 1.369 . S
C208 C200 1.457 . S
C208 C209 1.379 . S
C208 C213 1.364 . S
C209 H188 0.948 1_455 S
C209 C208 1.379 . S
C209 C210 1.385 1_455 S
C210 H189 0.954 . S
C210 C209 1.385 1_655 S
C210 C211 1.384 1_655 S
C211 C210 1.384 1_455 S
C211 C212 1.372 . S
C212 H190 0.950 . S
C212 C211 1.372 . S
C212 C213 1.379 . S
C213 H191 0.948 . S
C213 C208 1.364 . S
C213 C212 1.379 . S
C214 C183 1.383 . S
C214 C201 1.479 . S
C214 C215 1.400 . S
C215 C180 1.382 1_455 S
C215 H192 0.950 1_455 S
C215 C214 1.400 . S
C216 C217 1.384 . S
C216 H229 0.947 . S
C216 C251 1.382 . S
C217 C216 1.384 . S
C217 C218 1.378 . S
C218 C217 1.378 . S
C218 C219 1.378 . S
C218 H230 0.952 1_554 S
C219 C218 1.378 . S
C219 H231 0.950 . S
C219 C250 1.383 . S
H220 C239 0.947 . S
H221 C240 0.946 . S
H222 C242 0.953 . S
H223 C243 0.945 . S
H224 C245 0.952 . S
H225 C246 0.949 . S
H226 C248 0.950 . S
H227 C249 0.948 . S
H228 C251 0.951 . S
H229 C216 0.947 . S
H230 C218 0.952 1_556 S
H231 C219 0.950 . S
N232 C235 1.382 . S
N232 C237 1.363 . S
N233 C235 1.371 . S
N233 C236 1.372 . S
N234 C236 1.361 . S
N234 C237 1.377 . S
C235 N232 1.382 . S
C235 N233 1.371 . S
C235 C238 1.480 . S
C236 N233 1.372 . S
C236 N234 1.361 . S
C236 C244 1.457 . S
C237 N232 1.363 . S
C237 N234 1.377 . S
C237 C250 1.479 . S
C238 C235 1.480 . S
C238 C239 1.383 . S
C238 C243 1.385 . S
C239 H220 0.947 . S
C239 C238 1.383 . S
C239 C240 1.388 . S
C240 H221 0.946 . S
C240 C239 1.388 . S
C240 C241 1.384 . S
C241 C240 1.384 . S
C241 C242 1.377 . S
C242 H222 0.953 . S
C242 C241 1.377 . S
C242 C243 1.369 . S
C243 H223 0.945 . S
C243 C238 1.385 . S
C243 C242 1.369 . S
C244 C236 1.457 . S
C244 C245 1.372 . S
C244 C249 1.364 . S
C245 H224 0.952 . S
C245 C244 1.372 . S
C245 C246 1.389 . S
C246 H225 0.949 . S
C246 C245 1.389 . S
C246 C247 1.387 . S
C247 C246 1.387 . S
C247 C248 1.372 . S
C248 H226 0.950 . S
C248 C247 1.372 . S
C248 C249 1.379 . S
C249 H227 0.948 . S
C249 C244 1.364 . S
C249 C248 1.379 . S
C250 C219 1.383 . S
C250 C237 1.479 . S
C250 C251 1.398 . S
C251 C216 1.382 . S
C251 H228 0.951 . S
C251 C250 1.398 . S
C252 C253 1.384 . S
C252 H265 0.947 . S
C252 C287 1.382 . S
C253 C252 1.384 . S
C253 C254 1.378 . S
C254 C253 1.378 . S
C254 C255 1.378 . S
C254 H266 0.952 . S
C255 C254 1.378 . S
C255 H267 0.950 . S
C255 C286 1.383 . S
H256 C275 0.947 . S
H257 C276 0.946 . S
H258 C278 0.953 . S
H259 C279 0.945 . S
H260 C281 0.952 . S
H261 C282 0.949 1_556 S
H262 C284 0.950 . S
H263 C285 0.948 . S
H264 C287 0.951 . S
H265 C252 0.947 . S
H266 C254 0.952 . S
H267 C255 0.950 . S
N268 C271 1.382 . S
N268 C273 1.363 . S
N269 C271 1.371 . S
N269 C272 1.372 . S
N270 C272 1.361 . S
N270 C273 1.377 . S
C271 N268 1.382 . S
C271 N269 1.371 . S
C271 C274 1.480 . S
C272 N269 1.372 . S
C272 N270 1.361 . S
C272 C280 1.457 . S
C273 N268 1.363 . S
C273 N270 1.377 . S
C273 C286 1.479 . S
C274 C271 1.480 . S
C274 C275 1.383 . S
C274 C279 1.385 . S
C275 H256 0.947 . S
C275 C274 1.383 . S
C275 C276 1.388 . S
C276 H257 0.946 . S
C276 C275 1.388 . S
C276 C277 1.384 . S
C277 C276 1.384 . S
C277 C278 1.377 . S
C278 H258 0.953 . S
C278 C277 1.377 . S
C278 C279 1.369 . S
C279 H259 0.945 . S
C279 C274 1.385 . S
C279 C278 1.369 . S
C280 C272 1.457 . S
C280 C281 1.372 . S
C280 C285 1.364 . S
C281 H260 0.952 . S
C281 C280 1.372 . S
C281 C282 1.389 . S
C282 H261 0.949 1_554 S
C282 C281 1.389 . S
C282 C283 1.387 1_554 S
C283 C282 1.387 1_556 S
C283 C284 1.372 1_556 S
C284 H262 0.950 . S
C284 C283 1.372 1_554 S
C284 C285 1.379 . S
C285 H263 0.948 . S
C285 C280 1.364 . S
C285 C284 1.379 . S
C286 C255 1.383 . S
C286 C273 1.479 . S
C286 C287 1.398 . S
C287 C252 1.382 . S
C287 H264 0.951 . S
C287 C286 1.398 . S
O288 Mn289 2.163 1_455 S
O288 C302 1.244 . S
Mn289 O288 2.163 1_655 S
Mn289 O292 2.160 1_545 S
Mn289 O293 2.221 1_655 S
Mn289 O295 2.163 1_645 S
Mn289 O297 2.160 . S
Mn289 O307 2.221 . S
O290 Mn291 2.087 . S
O290 C302 1.256 1_655 S
Mn291 O290 2.087 . S
Mn291 O298 2.089 . S
Mn291 O307 2.290 . S
Mn291 O308 2.251 . S
O292 Mn289 2.160 1_565 S
O292 C303 1.239 . S
O293 Mn289 2.221 1_455 S
O293 Mn294 2.290 1_545 S
O293 C304 1.278 . S
Mn294 O293 2.290 1_565 S
Mn294 O296 2.089 . S
Mn294 O299 2.251 . S
Mn294 O300 2.087 . S
O295 Mn289 2.163 1_465 S
O295 C305 1.244 . S
O296 Mn294 2.089 . S
O296 C303 1.256 1_455 S
O297 Mn289 2.160 . S
O297 C306 1.239 . S
O298 Mn291 2.089 . S
O298 C306 1.256 . S
O299 Mn294 2.251 . S
O299 C304 1.241 1_565 S
O300 Mn294 2.087 . S
O300 C305 1.256 . S
C301 O307 1.278 . S
C301 O308 1.241 . S
C302 O288 1.244 . S
C302 O290 1.256 1_455 S
C303 O292 1.239 . S
C303 O296 1.256 1_655 S
C304 O293 1.278 . S
C304 O299 1.241 1_545 S
C305 O295 1.244 . S
C305 O300 1.256 . S
C306 O297 1.239 . S
C306 O298 1.256 . S
O307 Mn289 2.221 . S
O307 Mn291 2.290 . S
O307 C301 1.278 . S
O308 Mn291 2.251 . S
O308 C301 1.241 . S
O309 Mn310 2.163 1_565 S
O309 C323 1.244 1_565 S
Mn310 O309 2.163 1_545 S
Mn310 O313 2.160 . S
Mn310 O314 2.221 1_545 S
Mn310 O316 2.163 . S
Mn310 O318 2.160 1_545 S
Mn310 O328 2.221 . S
O311 Mn312 2.087 . S
O311 C323 1.256 . S
Mn312 O311 2.087 . S
Mn312 O319 2.089 1_545 S
Mn312 O328 2.290 . S
Mn312 O329 2.251 . S
O313 Mn310 2.160 . S
O313 C324 1.239 . S
O314 Mn310 2.221 1_565 S
O314 Mn315 2.290 . S
O314 C325 1.278 . S
Mn315 O314 2.290 . S
Mn315 O317 2.089 1_565 S
Mn315 O320 2.251 . S
Mn315 O321 2.087 1_565 S
O316 Mn310 2.163 . S
O316 C326 1.244 . S
O317 Mn315 2.089 1_545 S
O317 C324 1.256 . S
O318 Mn310 2.160 1_565 S
O318 C327 1.239 . S
O319 Mn312 2.089 1_565 S
O319 C327 1.256 . S
O320 Mn315 2.251 . S
O320 C325 1.241 . S
O321 Mn315 2.087 1_545 S
O321 C326 1.256 . S
C322 O328 1.278 . S
C322 O329 1.241 . S
C323 O309 1.244 1_545 S
C323 O311 1.256 . S
C324 O313 1.239 . S
C324 O317 1.256 . S
C325 O314 1.278 . S
C325 O320 1.241 . S
C326 O316 1.244 . S
C326 O321 1.256 . S
C327 O318 1.239 . S
C327 O319 1.256 . S
O328 Mn310 2.221 . S
O328 Mn312 2.290 . S
O328 C322 1.278 . S
O329 Mn312 2.251 . S
O329 C322 1.241 . S
O330 Mn331 2.163 . S
O330 C344 1.244 . S
Mn331 O330 2.163 . S
Mn331 O334 2.160 . S
Mn331 O335 2.221 . S
Mn331 O337 2.163 . S
Mn331 O339 2.160 . S
Mn331 O349 2.221 . S
O332 Mn333 2.087 . S
O332 C344 1.256 . S
Mn333 O332 2.087 . S
Mn333 O340 2.089 . S
Mn333 O349 2.290 . S
Mn333 O350 2.251 . S
O334 Mn331 2.160 . S
O334 C345 1.239 . S
O335 Mn331 2.221 . S
O335 Mn336 2.290 . S
O335 C346 1.278 . S
Mn336 O335 2.290 . S
Mn336 O338 2.089 . S
Mn336 O341 2.251 . S
Mn336 O342 2.087 . S
O337 Mn331 2.163 . S
O337 C347 1.244 . S
O338 Mn336 2.089 . S
O338 C345 1.256 . S
O339 Mn331 2.160 . S
O339 C348 1.239 . S
O340 Mn333 2.089 . S
O340 C348 1.256 . S
O341 Mn336 2.251 . S
O341 C346 1.241 . S
O342 Mn336 2.087 . S
O342 C347 1.256 . S
C343 O349 1.278 . S
C343 O350 1.241 . S
C344 O330 1.244 . S
C344 O332 1.256 . S
C345 O334 1.239 . S
C345 O338 1.256 . S
C346 O335 1.278 . S
C346 O341 1.241 . S
C347 O337 1.244 . S
C347 O342 1.256 . S
C348 O339 1.239 . S
C348 O340 1.256 . S
O349 Mn331 2.221 . S
O349 Mn333 2.290 . S
O349 C343 1.278 . S
O350 Mn333 2.251 . S
O350 C343 1.241 . S
O351 Mn352 2.163 . S
O351 C365 1.244 . S
Mn352 O351 2.163 . S
Mn352 O355 2.160 1_455 S
Mn352 O356 2.221 1_455 S
Mn352 O358 2.163 1_455 S
Mn352 O360 2.160 . S
Mn352 O370 2.221 . S
O353 Mn354 2.087 . S
O353 C365 1.256 . S
Mn354 O353 2.087 . S
Mn354 O361 2.089 . S
Mn354 O370 2.290 . S
Mn354 O371 2.251 . S
O355 Mn352 2.160 1_655 S
O355 C366 1.239 . S
O356 Mn352 2.221 1_655 S
O356 Mn357 2.290 . S
O356 C367 1.278 . S
Mn357 O356 2.290 . S
Mn357 O359 2.089 . S
Mn357 O362 2.251 . S
Mn357 O363 2.087 . S
O358 Mn352 2.163 1_655 S
O358 C368 1.244 . S
O359 Mn357 2.089 . S
O359 C366 1.256 . S
O360 Mn352 2.160 . S
O360 C369 1.239 . S
O361 Mn354 2.089 . S
O361 C369 1.256 . S
O362 Mn357 2.251 . S
O362 C367 1.241 . S
O363 Mn357 2.087 . S
O363 C368 1.256 . S
C364 O370 1.278 . S
C364 O371 1.241 . S
C365 O351 1.244 . S
C365 O353 1.256 . S
C366 O355 1.239 . S
C366 O359 1.256 . S
C367 O356 1.278 . S
C367 O362 1.241 . S
C368 O358 1.244 . S
C368 O363 1.256 . S
C369 O360 1.239 . S
C369 O361 1.256 . S
O370 Mn352 2.221 . S
O370 Mn354 2.290 . S
O370 C364 1.278 . S
O371 Mn354 2.251 . S
O371 C364 1.241 . S
C372 C373 1.363 . S
C372 C378 1.379 . S
C372 N380 1.356 . S
C373 C372 1.363 . S
C373 C379 1.363 . S
C374 C375 1.363 . S
C374 C379 1.379 . S
C374 N381 1.356 . S
C375 C374 1.363 . S
C375 C378 1.363 . S
N376 C378 1.356 . S
N376 H388 0.984 . S
N376 H389 0.985 . S
N377 C379 1.356 . S
N377 H382 0.984 . S
N377 H383 0.985 . S
C378 C372 1.379 . S
C378 C375 1.363 . S
C378 N376 1.356 . S
C379 C373 1.363 . S
C379 C374 1.379 . S
C379 N377 1.356 . S
N380 C372 1.356 . S
N380 H386 0.984 . S
N380 H387 0.984 . S
N381 C374 1.356 . S
N381 H384 0.987 . S
N381 H385 0.985 1_545 S
H382 N377 0.984 . S
H383 N377 0.985 . S
H384 N381 0.987 . S
H385 N381 0.985 1_565 S
H386 N380 0.984 . S
H387 N380 0.984 . S
H388 N376 0.984 . S
H389 N376 0.985 . S
C390 C391 1.363 . S
C390 C396 1.379 . S
C390 N398 1.356 . S
C391 C390 1.363 . S
C391 C397 1.363 . S
C392 C393 1.363 . S
C392 C397 1.379 . S
C392 N399 1.356 . S
C393 C392 1.363 . S
C393 C396 1.363 . S
N394 C396 1.356 . S
N394 H406 0.984 . S
N394 H407 0.985 . S
N395 C397 1.356 . S
N395 H400 0.984 . S
N395 H401 0.985 . S
C396 C390 1.379 . S
C396 C393 1.363 . S
C396 N394 1.356 . S
C397 C391 1.363 . S
C397 C392 1.379 . S
C397 N395 1.356 . S
N398 C390 1.356 . S
N398 H404 0.984 . S
N398 H405 0.984 . S
N399 C392 1.356 . S
N399 H402 0.984 . S
N399 H403 0.985 . S
H400 N395 0.984 . S
H401 N395 0.985 . S
H402 N399 0.984 . S
H403 N399 0.985 . S
H404 N398 0.984 . S
H405 N398 0.984 . S
H406 N394 0.984 . S
H407 N394 0.985 . S
C408 C409 1.363 . S
C408 C414 1.379 . S
C408 N416 1.356 . S
C409 C408 1.363 . S
C409 C415 1.363 . S
C410 C411 1.363 . S
C410 C415 1.379 . S
C410 N417 1.356 . S
C411 C410 1.363 . S
C411 C414 1.363 . S
N412 C414 1.356 . S
N412 H424 0.984 . S
N412 H425 0.985 . S
N413 C415 1.356 . S
N413 H418 0.984 . S
N413 H419 0.985 . S
C414 C408 1.379 . S
C414 C411 1.363 . S
C414 N412 1.356 . S
C415 C409 1.363 . S
C415 C410 1.379 . S
C415 N413 1.356 . S
N416 C408 1.356 . S
N416 H422 0.984 . S
N416 H423 0.984 . S
N417 C410 1.356 . S
N417 H420 0.984 . S
N417 H421 0.985 . S
H418 N413 0.984 . S
H419 N413 0.985 . S
H420 N417 0.984 . S
H421 N417 0.985 . S
H422 N416 0.984 . S
H423 N416 0.984 . S
H424 N412 0.984 . S
H425 N412 0.985 . S
C426 C427 1.363 1_455 S
C426 C432 1.379 . S
C426 N434 1.356 . S
C427 C426 1.363 1_655 S
C427 C433 1.363 . S
C428 C429 1.363 . S
C428 C433 1.379 . S
C428 N435 1.356 . S
C429 C428 1.363 . S
C429 C432 1.363 1_655 S
N430 C432 1.356 . S
N430 H442 0.984 . S
N430 H443 0.985 . S
N431 C433 1.356 . S
N431 H436 0.984 . S
N431 H437 0.985 . S
C432 C426 1.379 . S
C432 C429 1.363 1_455 S
C432 N430 1.356 . S
C433 C427 1.363 . S
C433 C428 1.379 . S
C433 N431 1.356 . S
N434 C426 1.356 . S
N434 H440 0.984 . S
N434 H441 0.984 . S
N435 C428 1.356 . S
N435 H438 0.984 . S
N435 H439 0.985 . S
H436 N431 0.984 . S
H437 N431 0.985 . S
H438 N435 0.984 . S
H439 N435 0.985 . S
H440 N434 0.984 . S
H441 N434 0.984 . S
H442 N430 0.984 . S
H443 N430 0.985 . S
C444 C445 1.363 . S
C444 C450 1.379 . S
C444 N452 1.356 1_556 S
C445 C444 1.363 . S
C445 C451 1.363 . S
C446 C447 1.363 . S
C446 C451 1.379 . S
C446 N453 1.356 . S
C447 C446 1.363 . S
C447 C450 1.363 . S
N448 C450 1.356 1_545 S
N448 H460 0.984 . S
N448 H461 0.985 . S
N449 C451 1.356 . S
N449 H454 0.984 . S
N449 H455 0.985 . S
C450 C444 1.379 . S
C450 C447 1.363 . S
C450 N448 1.356 1_565 S
C451 C445 1.363 . S
C451 C446 1.379 . S
C451 N449 1.356 . S
N452 C444 1.356 1_554 S
N452 H458 0.984 . S
N452 H459 0.984 . S
N453 C446 1.356 . S
N453 H456 0.984 . S
N453 H457 0.985 . S
H454 N449 0.984 . S
H455 N449 0.985 . S
H456 N453 0.984 . S
H457 N453 0.985 . S
H458 N452 0.984 . S
H459 N452 0.984 . S
H460 N448 0.984 . S
H461 N448 0.985 . S
C462 C463 1.363 . S
C462 C468 1.379 . S
C462 N470 1.356 1_556 S
C463 C462 1.363 . S
C463 C469 1.363 . S
C464 C465 1.363 . S
C464 C469 1.379 . S
C464 N471 1.356 . S
C465 C464 1.363 . S
C465 C468 1.363 . S
N466 C468 1.356 . S
N466 H478 0.984 . S
N466 H479 0.985 . S
N467 C469 1.356 . S
N467 H472 0.984 1_556 S
N467 H473 0.985 . S
C468 C462 1.379 . S
C468 C465 1.363 . S
C468 N466 1.356 . S
C469 C463 1.363 . S
C469 C464 1.379 . S
C469 N467 1.356 . S
N470 C462 1.356 1_554 S
N470 H476 0.984 . S
N470 H477 0.984 . S
N471 C464 1.356 . S
N471 H474 0.984 . S
N471 H475 0.985 . S
H472 N467 0.984 1_554 S
H473 N467 0.985 . S
H474 N471 0.984 . S
H475 N471 0.985 . S
H476 N470 0.984 . S
H477 N470 0.984 . S
H478 N466 0.984 . S
H479 N466 0.985 . S
C480 C481 1.363 . S
C480 C486 1.379 . S
C480 N488 1.356 1_556 S
C481 C480 1.363 . S
C481 C487 1.363 . S
C482 C483 1.363 . S
C482 C487 1.379 . S
C482 N489 1.356 . S
C483 C482 1.363 . S
C483 C486 1.363 . S
N484 C486 1.356 . S
N484 H496 0.984 . S
N484 H497 0.985 . S
N485 C487 1.356 . S
N485 H490 0.984 . S
N485 H491 0.985 . S
C486 C480 1.379 . S
C486 C483 1.363 . S
C486 N484 1.356 . S
C487 C481 1.363 . S
C487 C482 1.379 . S
C487 N485 1.356 . S
N488 C480 1.356 1_554 S
N488 H494 0.984 . S
N488 H495 0.984 . S
N489 C482 1.356 . S
N489 H492 0.984 . S
N489 H493 0.985 . S
H490 N485 0.984 . S
H491 N485 0.985 . S
H492 N489 0.984 . S
H493 N489 0.985 . S
H494 N488 0.984 . S
H495 N488 0.984 . S
H496 N484 0.984 . S
H497 N484 0.985 . S
C498 C499 1.363 . S
C498 C504 1.379 . S
C498 N506 1.356 1_556 S
C499 C498 1.363 . S
C499 C505 1.363 1_455 S
C500 C501 1.363 1_655 S
C500 C505 1.379 . S
C500 N507 1.356 . S
C501 C500 1.363 1_455 S
C501 C504 1.363 . S
N502 C504 1.356 . S
N502 H514 0.984 . S
N502 H515 0.985 . S
N503 C505 1.356 . S
N503 H508 0.984 . S
N503 H509 0.985 . S
C504 C498 1.379 . S
C504 C501 1.363 . S
C504 N502 1.356 . S
C505 C499 1.363 1_655 S
C505 C500 1.379 . S
C505 N503 1.356 . S
N506 C498 1.356 1_554 S
N506 H512 0.984 . S
N506 H513 0.984 . S
N507 C500 1.356 . S
N507 H510 0.984 . S
N507 H511 0.985 . S
H508 N503 0.984 . S
H509 N503 0.985 . S
H510 N507 0.984 . S
H511 N507 0.985 . S
H512 N506 0.984 . S
H513 N506 0.984 . S
H514 N502 0.984 . S
H515 N502 0.985 . S
C516 C517 1.366 1_655 S
C516 C522 1.379 . S
C516 N524 1.356 . S
C517 C516 1.366 1_455 S
C517 C523 1.362 . S
C518 C519 1.363 1_455 S
C518 C523 1.379 . S
C518 N525 1.356 . S
C519 C518 1.363 1_655 S
C519 C522 1.363 . S
N520 C522 1.356 . S
N520 H532 0.984 . S
N520 H533 0.985 . S
N521 C523 1.356 . S
N521 H526 0.984 . S
N521 H527 0.985 . S
C522 C516 1.379 . S
C522 C519 1.363 . S
C522 N520 1.356 . S
C523 C517 1.362 . S
C523 C518 1.379 . S
C523 N521 1.356 . S
N524 C516 1.356 . S
N524 H530 0.984 . S
N524 H531 0.984 . S
N525 C518 1.356 . S
N525 H528 0.984 1_455 S
N525 H529 0.985 . S
H526 N521 0.984 . S
H527 N521 0.985 . S
H528 N525 0.984 1_655 S
H529 N525 0.985 . S
H530 N524 0.984 . S
H531 N524 0.984 . S
H532 N520 0.984 . S
H533 N520 0.985 . S
C534 C535 1.363 . S
C534 C540 1.379 . S
C534 N542 1.356 . S
C535 C534 1.363 . S
C535 C541 1.363 . S
C536 C537 1.363 . S
C536 C541 1.379 . S
C536 N543 1.356 . S
C537 C536 1.363 . S
C537 C540 1.363 . S
N538 C540 1.356 . S
N538 H550 0.984 . S
N538 H551 0.985 . S
N539 C541 1.356 . S
N539 H544 0.984 . S
N539 H545 0.985 . S
C540 C534 1.379 . S
C540 C537 1.363 . S
C540 N538 1.356 . S
C541 C535 1.363 . S
C541 C536 1.379 . S
C541 N539 1.356 . S
N542 C534 1.356 . S
N542 H548 0.984 . S
N542 H549 0.984 . S
N543 C536 1.356 . S
N543 H546 0.984 . S
N543 H547 0.985 . S
H544 N539 0.984 . S
H545 N539 0.985 . S
H546 N543 0.984 . S
H547 N543 0.985 . S
H548 N542 0.984 . S
H549 N542 0.984 . S
H550 N538 0.984 . S
H551 N538 0.985 . S
C552 C553 1.363 . S
C552 C558 1.379 . S
C552 N560 1.356 . S
C553 C552 1.363 . S
C553 C559 1.363 . S
C554 C555 1.363 . S
C554 C559 1.379 . S
C554 N561 1.356 . S
C555 C554 1.363 . S
C555 C558 1.363 . S
N556 C558 1.356 . S
N556 H568 0.984 . S
N556 H569 0.985 . S
N557 C559 1.356 . S
N557 H562 0.984 . S
N557 H563 0.985 . S
C558 C552 1.379 . S
C558 C555 1.363 . S
C558 N556 1.356 . S
C559 C553 1.363 . S
C559 C554 1.379 . S
C559 N557 1.356 . S
N560 C552 1.356 . S
N560 H566 0.984 . S
N560 H567 0.984 . S
N561 C554 1.356 . S
N561 H564 0.984 . S
N561 H565 0.985 . S
H562 N557 0.984 . S
H563 N557 0.985 . S
H564 N561 0.984 . S
H565 N561 0.985 . S
H566 N560 0.984 . S
H567 N560 0.984 . S
H568 N556 0.984 . S
H569 N556 0.985 . S
C570 C571 1.363 . S
C570 C576 1.379 . S
C570 N578 1.356 . S
C571 C570 1.363 . S
C571 C577 1.363 . S
C572 C573 1.363 . S
C572 C577 1.379 . S
C572 N579 1.356 . S
C573 C572 1.363 . S
C573 C576 1.363 . S
N574 C576 1.356 . S
N574 H586 0.984 . S
N574 H587 0.985 . S
N575 C577 1.356 . S
N575 H580 0.984 . S
N575 H581 0.985 . S
C576 C570 1.379 . S
C576 C573 1.363 . S
C576 N574 1.356 . S
C577 C571 1.363 . S
C577 C572 1.379 . S
C577 N575 1.356 . S
N578 C570 1.356 . S
N578 H584 0.984 . S
N578 H585 0.984 . S
N579 C572 1.356 . S
N579 H582 0.984 . S
N579 H583 0.985 . S
H580 N575 0.984 . S
H581 N575 0.985 . S
H582 N579 0.984 . S
H583 N579 0.985 . S
H584 N578 0.984 . S
H585 N578 0.984 . S
H586 N574 0.984 . S
H587 N574 0.985 . S
C588 C589 1.363 . S
C588 C594 1.379 . S
C588 N596 1.356 . S
C589 C588 1.363 . S
C589 C595 1.363 1_455 S
C590 C591 1.363 1_655 S
C590 C595 1.379 . S
C590 N597 1.356 . S
C591 C590 1.363 1_455 S
C591 C594 1.363 . S
N592 C594 1.356 . S
N592 H604 0.984 . S
N592 H605 0.985 . S
N593 C595 1.356 . S
N593 H598 0.984 . S
N593 H599 0.985 . S
C594 C588 1.379 . S
C594 C591 1.363 . S
C594 N592 1.356 . S
C595 C589 1.363 1_655 S
C595 C590 1.379 . S
C595 N593 1.356 . S
N596 C588 1.356 . S
N596 H602 0.984 . S
N596 H603 0.984 . S
N597 C590 1.356 . S
N597 H600 0.984 1_655 S
N597 H601 0.985 . S
H598 N593 0.984 . S
H599 N593 0.985 . S
H600 N597 0.984 1_455 S
H601 N597 0.985 . S
H602 N596 0.984 . S
H603 N596 0.984 . S
H604 N592 0.984 . S
H605 N592 0.985 . S
C606 C607 1.363 . S
C606 C612 1.379 . S
C606 N614 1.356 . S
C607 C606 1.363 . S
C607 C613 1.363 . S
C608 C609 1.363 . S
C608 C613 1.379 . S
C608 N615 1.356 . S
C609 C608 1.363 . S
C609 C612 1.363 . S
N610 C612 1.356 . S
N610 H622 0.984 . S
N610 H623 0.985 . S
N611 C613 1.356 . S
N611 H616 0.984 . S
N611 H617 0.985 . S
C612 C606 1.379 . S
C612 C609 1.363 . S
C612 N610 1.356 . S
C613 C607 1.363 . S
C613 C608 1.379 . S
C613 N611 1.356 . S
N614 C606 1.356 . S
N614 H620 0.984 . S
N614 H621 0.984 . S
N615 C608 1.356 . S
N615 H618 0.984 1_565 S
N615 H619 0.986 . S
H616 N611 0.984 . S
H617 N611 0.985 . S
H618 N615 0.984 1_545 S
H619 N615 0.986 . S
H620 N614 0.984 . S
H621 N614 0.984 . S
H622 N610 0.984 . S
H623 N610 0.985 . S
C624 C625 1.363 . S
C624 C630 1.379 . S
C624 N632 1.356 . S
C625 C624 1.363 . S
C625 C631 1.363 . S
C626 C627 1.363 . S
C626 C631 1.379 . S
C626 N633 1.356 . S
C627 C626 1.363 . S
C627 C630 1.363 . S
N628 C630 1.356 . S
N628 H640 0.984 . S
N628 H641 0.985 . S
N629 C631 1.356 . S
N629 H634 0.984 . S
N629 H635 0.985 1_556 S
C630 C624 1.379 . S
C630 C627 1.363 . S
C630 N628 1.356 . S
C631 C625 1.363 . S
C631 C626 1.379 . S
C631 N629 1.356 . S
N632 C624 1.356 . S
N632 H638 0.984 . S
N632 H639 0.984 . S
N633 C626 1.356 . S
N633 H636 0.984 . S
N633 H637 0.985 . S
H634 N629 0.984 . S
H635 N629 0.985 1_554 S
H636 N633 0.984 . S
H637 N633 0.985 . S
H638 N632 0.984 . S
H639 N632 0.984 . S
H640 N628 0.984 . S
H641 N628 0.985 . S
C642 C643 1.363 . S
C642 C648 1.379 . S
C642 N650 1.356 . S
C643 C642 1.363 . S
C643 C649 1.363 . S
C644 C645 1.363 . S
C644 C649 1.379 . S
C644 N651 1.356 . S
C645 C644 1.363 . S
C645 C648 1.363 . S
N646 C648 1.356 . S
N646 H658 0.984 . S
N646 H659 0.985 . S
N647 C649 1.356 . S
N647 H652 0.984 . S
N647 H653 0.985 . S
C648 C642 1.379 . S
C648 C645 1.363 . S
C648 N646 1.356 . S
C649 C643 1.363 . S
C649 C644 1.379 . S
C649 N647 1.356 . S
N650 C642 1.356 . S
N650 H656 0.984 . S
N650 H657 0.984 . S
N651 C644 1.356 . S
N651 H654 0.984 . S
N651 H655 0.985 . S
H652 N647 0.984 . S
H653 N647 0.985 . S
H654 N651 0.984 . S
H655 N651 0.985 . S
H656 N650 0.984 . S
H657 N650 0.984 . S
H658 N646 0.984 . S
H659 N646 0.985 . S
C660 C661 1.363 . S
C660 C666 1.379 . S
C660 N668 1.356 1_556 S
C661 C660 1.363 . S
C661 C667 1.363 1_455 S
C662 C663 1.363 1_655 S
C662 C667 1.379 . S
C662 N669 1.356 . S
C663 C662 1.363 1_455 S
C663 C666 1.363 . S
N664 C666 1.356 . S
N664 H676 0.984 1_556 S
N664 H677 0.985 . S
N665 C667 1.356 . S
N665 H670 0.984 . S
N665 H671 0.985 . S
C666 C660 1.379 . S
C666 C663 1.363 . S
C666 N664 1.356 . S
C667 C661 1.363 1_655 S
C667 C662 1.379 . S
C667 N665 1.356 . S
N668 C660 1.356 1_554 S
N668 H674 0.984 . S
N668 H675 0.984 . S
N669 C662 1.356 . S
N669 H672 0.984 . S
N669 H673 0.985 . S
H670 N665 0.984 . S
H671 N665 0.985 . S
H672 N669 0.984 . S
H673 N669 0.985 . S
H674 N668 0.984 . S
H675 N668 0.984 . S
H676 N664 0.984 1_554 S
H677 N664 0.985 . S
C678 C679 1.363 . S
C678 C684 1.379 . S
C678 N686 1.356 1_556 S
C679 C678 1.363 . S
C679 C685 1.363 . S
C680 C681 1.363 . S
C680 C685 1.379 . S
C680 N687 1.356 . S
C681 C680 1.363 . S
C681 C684 1.363 . S
N682 C684 1.356 1_554 S
N682 H694 0.984 . S
N682 H695 0.985 1_554 S
N683 C685 1.356 . S
N683 H688 0.984 . S
N683 H689 0.985 . S
C684 C678 1.379 . S
C684 C681 1.363 . S
C684 N682 1.356 1_556 S
C685 C679 1.363 . S
C685 C680 1.379 . S
C685 N683 1.356 . S
N686 C678 1.356 1_554 S
N686 H692 0.984 . S
N686 H693 0.984 . S
N687 C680 1.356 . S
N687 H690 0.984 . S
N687 H691 0.985 . S
H688 N683 0.984 . S
H689 N683 0.985 . S
H690 N687 0.984 . S
H691 N687 0.985 . S
H692 N686 0.984 . S
H693 N686 0.984 . S
H694 N682 0.984 . S
H695 N682 0.985 1_556 S
C696 C697 1.363 . S
C696 C702 1.379 . S
C696 N704 1.356 . S
C697 C696 1.363 . S
C697 C703 1.363 . S
C698 C699 1.363 . S
C698 C703 1.379 . S
C698 N705 1.356 . S
C699 C698 1.363 . S
C699 C702 1.363 . S
N700 C702 1.356 . S
N700 H712 0.984 . S
N700 H713 0.985 . S
N701 C703 1.356 1_554 S
N701 H706 0.984 . S
N701 H707 0.985 . S
C702 C696 1.379 . S
C702 C699 1.363 . S
C702 N700 1.356 . S
C703 C697 1.363 . S
C703 C698 1.379 . S
C703 N701 1.356 1_556 S
N704 C696 1.356 . S
N704 H710 0.984 . S
N704 H711 0.984 . S
N705 C698 1.356 . S
N705 H708 0.984 . S
N705 H709 0.985 1_556 S
H706 N701 0.984 . S
H707 N701 0.985 . S
H708 N705 0.984 . S
H709 N705 0.985 1_554 S
H710 N704 0.984 . S
H711 N704 0.984 . S
H712 N700 0.984 . S
H713 N700 0.985 . S
C714 C715 1.363 . S
C714 C720 1.379 . S
C714 N722 1.356 1_556 S
C715 C714 1.363 . S
C715 C721 1.363 . S
C716 C717 1.363 . S
C716 C721 1.379 . S
C716 N723 1.356 . S
C717 C716 1.363 . S
C717 C720 1.363 . S
N718 C720 1.356 1_554 S
N718 H730 0.984 . S
N718 H731 0.985 1_554 S
N719 C721 1.356 . S
N719 H724 0.984 . S
N719 H725 0.985 . S
C720 C714 1.379 . S
C720 C717 1.363 . S
C720 N718 1.356 1_556 S
C721 C715 1.363 . S
C721 C716 1.379 . S
C721 N719 1.356 . S
N722 C714 1.356 1_554 S
N722 H728 0.984 . S
N722 H729 0.984 . S
N723 C716 1.356 . S
N723 H726 0.984 . S
N723 H727 0.985 . S
H724 N719 0.984 . S
H725 N719 0.985 . S
H726 N723 0.984 . S
H727 N723 0.985 . S
H728 N722 0.984 . S
H729 N722 0.984 . S
H730 N718 0.984 . S
H731 N718 0.985 1_556 S
C732 C733 1.363 . S
C732 C738 1.379 . S
C732 N740 1.356 . S
C733 C732 1.363 . S
C733 C739 1.363 1_655 S
C734 C735 1.363 1_455 S
C734 C739 1.379 . S
C734 N741 1.356 . S
C735 C734 1.363 1_655 S
C735 C738 1.363 . S
N736 C738 1.356 . S
N736 H748 0.984 . S
N736 H749 0.985 . S
N737 C739 1.356 . S
N737 H742 0.984 . S
N737 H743 0.985 . S
C738 C732 1.379 . S
C738 C735 1.363 . S
C738 N736 1.356 . S
C739 C733 1.363 1_455 S
C739 C734 1.379 . S
C739 N737 1.356 . S
N740 C732 1.356 . S
N740 H746 0.984 . S
N740 H747 0.984 . S
N741 C734 1.356 . S
N741 H744 0.984 . S
N741 H745 0.985 . S
H742 N737 0.984 . S
H743 N737 0.985 . S
H744 N741 0.984 . S
H745 N741 0.985 . S
H746 N740 0.984 . S
H747 N740 0.984 . S
H748 N736 0.984 . S
H749 N736 0.985 . S
C750 C751 1.363 . S
C750 C756 1.379 . S
C750 N758 1.356 . S
C751 C750 1.363 . S
C751 C757 1.363 . S
C752 C753 1.363 . S
C752 C757 1.379 . S
C752 N759 1.356 . S
C753 C752 1.363 . S
C753 C756 1.363 . S
N754 C756 1.356 . S
N754 H766 0.984 . S
N754 H767 0.985 . S
N755 C757 1.356 . S
N755 H760 0.984 . S
N755 H761 0.985 . S
C756 C750 1.379 . S
C756 C753 1.363 . S
C756 N754 1.356 . S
C757 C751 1.363 . S
C757 C752 1.379 . S
C757 N755 1.356 . S
N758 C750 1.356 . S
N758 H764 0.984 . S
N758 H765 0.984 . S
N759 C752 1.356 . S
N759 H762 0.984 1_565 S
N759 H763 0.985 1_565 S
H760 N755 0.984 . S
H761 N755 0.985 . S
H762 N759 0.984 1_545 S
H763 N759 0.985 1_545 S
H764 N758 0.984 . S
H765 N758 0.984 . S
H766 N754 0.984 . S
H767 N754 0.985 . S
C768 C769 1.363 . S
C768 C774 1.379 . S
C768 N776 1.356 . S
C769 C768 1.363 . S
C769 C775 1.363 . S
C770 C771 1.363 . S
C770 C775 1.379 . S
C770 N777 1.356 . S
C771 C770 1.363 . S
C771 C774 1.363 . S
N772 C774 1.356 . S
N772 H784 0.984 . S
N772 H785 0.985 . S
N773 C775 1.356 . S
N773 H778 0.984 . S
N773 H779 0.985 . S
C774 C768 1.379 . S
C774 C771 1.363 . S
C774 N772 1.356 . S
C775 C769 1.363 . S
C775 C770 1.379 . S
C775 N773 1.356 . S
N776 C768 1.356 . S
N776 H782 0.984 . S
N776 H783 0.984 . S
N777 C770 1.356 . S
N777 H780 0.984 . S
N777 H781 0.985 . S
H778 N773 0.984 . S
H779 N773 0.985 . S
H780 N777 0.984 . S
H781 N777 0.985 . S
H782 N776 0.984 . S
H783 N776 0.984 . S
H784 N772 0.984 . S
H785 N772 0.985 . S
C786 C787 1.363 . S
C786 C792 1.379 . S
C786 N794 1.356 . S
C787 C786 1.363 . S
C787 C793 1.363 . S
C788 C789 1.363 . S
C788 C793 1.379 . S
C788 N795 1.356 . S
C789 C788 1.363 . S
C789 C792 1.363 . S
N790 C792 1.356 . S
N790 H802 0.984 . S
N790 H803 0.985 . S
N791 C793 1.356 . S
N791 H796 0.984 . S
N791 H797 0.985 . S
C792 C786 1.379 . S
C792 C789 1.363 . S
C792 N790 1.356 . S
C793 C787 1.363 . S
C793 C788 1.379 . S
C793 N791 1.356 . S
N794 C786 1.356 . S
N794 H800 0.984 . S
N794 H801 0.984 . S
N795 C788 1.356 . S
N795 H798 0.984 . S
N795 H799 0.985 . S
H796 N791 0.984 . S
H797 N791 0.985 . S
H798 N795 0.984 . S
H799 N795 0.985 . S
H800 N794 0.984 . S
H801 N794 0.984 . S
H802 N790 0.984 . S
H803 N790 0.985 . S
C373 C241 2.110 . S
C375 C304 2.157 . S
C393 C322 1.577 . S
C391 C277 1.791 . S
C411 C343 2.120 . S
C409 C169 2.083 . S
C429 C367 1.612 . S
C427 C205 1.753 1_655 S
C447 C301 1.999 1_565 S
C445 C97 1.857 1_556 S
C463 C133 1.597 1_556 S
C465 C325 1.397 . S
C481 C25 1.836 1_556 S
C483 C346 1.966 . S
C499 C61 1.559 1_556 S
C501 C364 1.435 . S
C519 C306 0.751 . S
C517 C211 0.751 . S
C537 C324 1.251 . S
C535 C247 1.186 . S
C555 C345 0.733 . S
C553 C253 0.729 . S
C571 C175 1.193 . S
C573 C369 1.257 . S
C589 C67 0.766 . S
C591 C305 0.771 . S
C609 C323 1.317 1_565 S
C607 C103 1.097 . S
C627 C344 0.754 . S
C625 C109 0.754 . S
C643 C31 1.099 . S
C645 C368 1.328 . S
C661 C181 2.008 . S
C663 C302 2.059 . S
C679 C217 2.210 1_556 S
C681 C326 2.281 . S
C699 C347 2.041 . S
C697 C283 1.960 . S
C717 C365 2.294 . S
C715 C145 2.217 1_556 S
C733 C37 1.928 1_655 S
C735 C303 1.936 . S
C753 C327 2.155 . S
C751 C73 2.065 . S
C771 C348 1.917 . S
C769 C139 1.841 . S
C787 C1 2.075 . S
C789 C366 2.171 . S
