# Generated by pormake.
# Topology ptr, (4,4)-cn, num edge types: 1
# Building blocks:
#     Node 0, Type 0, BuildingBlock: CEKHIL_clean_sbu_0, # of connection points: 4
#     Node 1, Type 0, BuildingBlock: CEKHIL_clean_sbu_0, # of connection points: 4
#     Node 2, Type 0, BuildingBlock: CEKHIL_clean_sbu_0, # of connection points: 4
#     Node 3, Type 0, BuildingBlock: CEKHIL_clean_sbu_0, # of connection points: 4
#     Node 4, Type 0, BuildingBlock: CEKHIL_clean_sbu_0, # of connection points: 4
#     Node 5, Type 0, BuildingBlock: CEKHIL_clean_sbu_0, # of connection points: 4
#     Node 6, Type 0, BuildingBlock: CEKHIL_clean_sbu_0, # of connection points: 4
#     Node 7, Type 0, BuildingBlock: CEKHIL_clean_sbu_0, # of connection points: 4
#     Node 8, Type 0, BuildingBlock: CEKHIL_clean_sbu_0, # of connection points: 4
#     Node 9, Type 0, BuildingBlock: CEKHIL_clean_sbu_0, # of connection points: 4
#     Node 10, Type 0, BuildingBlock: CEKHIL_clean_sbu_0, # of connection points: 4
#     Node 11, Type 0, BuildingBlock: CEKHIL_clean_sbu_0, # of connection points: 4
#     Node 12, Type 0, BuildingBlock: CEKHIL_clean_sbu_0, # of connection points: 4
#     Node 13, Type 0, BuildingBlock: CEKHIL_clean_sbu_0, # of connection points: 4
#     Node 14, Type 0, BuildingBlock: CEKHIL_clean_sbu_0, # of connection points: 4
#     Node 15, Type 0, BuildingBlock: CEKHIL_clean_sbu_0, # of connection points: 4
#     Node 16, Type 0, BuildingBlock: CEKHIL_clean_sbu_0, # of connection points: 4
#     Node 17, Type 0, BuildingBlock: CEKHIL_clean_sbu_0, # of connection points: 4
#     Node 18, Type 1, BuildingBlock: KUFVIS_clean_linker_0, # of connection points: 4
#     Node 19, Type 1, BuildingBlock: KUFVIS_clean_linker_0, # of connection points: 4
#     Node 20, Type 1, BuildingBlock: KUFVIS_clean_linker_0, # of connection points: 4
#     Node 21, Type 1, BuildingBlock: KUFVIS_clean_linker_0, # of connection points: 4
#     Node 22, Type 1, BuildingBlock: KUFVIS_clean_linker_0, # of connection points: 4
#     Node 23, Type 1, BuildingBlock: KUFVIS_clean_linker_0, # of connection points: 4
#     Node 24, Type 1, BuildingBlock: KUFVIS_clean_linker_0, # of connection points: 4
#     Node 25, Type 1, BuildingBlock: KUFVIS_clean_linker_0, # of connection points: 4
#     Node 26, Type 1, BuildingBlock: KUFVIS_clean_linker_0, # of connection points: 4
#     Node 27, Type 1, BuildingBlock: KUFVIS_clean_linker_0, # of connection points: 4
#     Node 28, Type 1, BuildingBlock: KUFVIS_clean_linker_0, # of connection points: 4
#     Node 29, Type 1, BuildingBlock: KUFVIS_clean_linker_0, # of connection points: 4
#     Node 30, Type 1, BuildingBlock: KUFVIS_clean_linker_0, # of connection points: 4
#     Node 31, Type 1, BuildingBlock: KUFVIS_clean_linker_0, # of connection points: 4
#     Node 32, Type 1, BuildingBlock: KUFVIS_clean_linker_0, # of connection points: 4
#     Node 33, Type 1, BuildingBlock: KUFVIS_clean_linker_0, # of connection points: 4
#     Node 34, Type 1, BuildingBlock: KUFVIS_clean_linker_0, # of connection points: 4
#     Node 35, Type 1, BuildingBlock: KUFVIS_clean_linker_0, # of connection points: 4
#     Edge 36, Type (0, 1), BuildingBlock: KIFKEQ_clean_linker_1, # of connection points: 2
#     Edge 37, Type (0, 1), BuildingBlock: KIFKEQ_clean_linker_1, # of connection points: 2
#     Edge 38, Type (0, 1), BuildingBlock: KIFKEQ_clean_linker_1, # of connection points: 2
#     Edge 39, Type (0, 1), BuildingBlock: KIFKEQ_clean_linker_1, # of connection points: 2
#     Edge 40, Type (0, 1), BuildingBlock: KIFKEQ_clean_linker_1, # of connection points: 2
#     Edge 41, Type (0, 1), BuildingBlock: KIFKEQ_clean_linker_1, # of connection points: 2
#     Edge 42, Type (0, 1), BuildingBlock: KIFKEQ_clean_linker_1, # of connection points: 2
#     Edge 43, Type (0, 1), BuildingBlock: KIFKEQ_clean_linker_1, # of connection points: 2
#     Edge 44, Type (0, 1), BuildingBlock: KIFKEQ_clean_linker_1, # of connection points: 2
#     Edge 45, Type (0, 1), BuildingBlock: KIFKEQ_clean_linker_1, # of connection points: 2
#     Edge 46, Type (0, 1), BuildingBlock: KIFKEQ_clean_linker_1, # of connection points: 2
#     Edge 47, Type (0, 1), BuildingBlock: KIFKEQ_clean_linker_1, # of connection points: 2
#     Edge 48, Type (0, 1), BuildingBlock: KIFKEQ_clean_linker_1, # of connection points: 2
#     Edge 49, Type (0, 1), BuildingBlock: KIFKEQ_clean_linker_1, # of connection points: 2
#     Edge 50, Type (0, 1), BuildingBlock: KIFKEQ_clean_linker_1, # of connection points: 2
#     Edge 51, Type (0, 1), BuildingBlock: KIFKEQ_clean_linker_1, # of connection points: 2
#     Edge 52, Type (0, 1), BuildingBlock: KIFKEQ_clean_linker_1, # of connection points: 2
#     Edge 53, Type (0, 1), BuildingBlock: KIFKEQ_clean_linker_1, # of connection points: 2
#     Edge 54, Type (0, 1), BuildingBlock: KIFKEQ_clean_linker_1, # of connection points: 2
#     Edge 55, Type (0, 1), BuildingBlock: KIFKEQ_clean_linker_1, # of connection points: 2
#     Edge 56, Type (0, 1), BuildingBlock: KIFKEQ_clean_linker_1, # of connection points: 2
#     Edge 57, Type (0, 1), BuildingBlock: KIFKEQ_clean_linker_1, # of connection points: 2
#     Edge 58, Type (0, 1), BuildingBlock: KIFKEQ_clean_linker_1, # of connection points: 2
#     Edge 59, Type (0, 1), BuildingBlock: KIFKEQ_clean_linker_1, # of connection points: 2
#     Edge 60, Type (0, 1), BuildingBlock: KIFKEQ_clean_linker_1, # of connection points: 2
#     Edge 61, Type (0, 1), BuildingBlock: KIFKEQ_clean_linker_1, # of connection points: 2
#     Edge 62, Type (0, 1), BuildingBlock: KIFKEQ_clean_linker_1, # of connection points: 2
#     Edge 63, Type (0, 1), BuildingBlock: KIFKEQ_clean_linker_1, # of connection points: 2
#     Edge 64, Type (0, 1), BuildingBlock: KIFKEQ_clean_linker_1, # of connection points: 2
#     Edge 65, Type (0, 1), BuildingBlock: KIFKEQ_clean_linker_1, # of connection points: 2
#     Edge 66, Type (0, 1), BuildingBlock: KIFKEQ_clean_linker_1, # of connection points: 2
#     Edge 67, Type (0, 1), BuildingBlock: KIFKEQ_clean_linker_1, # of connection points: 2
#     Edge 68, Type (0, 1), BuildingBlock: KIFKEQ_clean_linker_1, # of connection points: 2
#     Edge 69, Type (0, 1), BuildingBlock: KIFKEQ_clean_linker_1, # of connection points: 2
#     Edge 70, Type (0, 1), BuildingBlock: KIFKEQ_clean_linker_1, # of connection points: 2
#     Edge 71, Type (0, 1), BuildingBlock: KIFKEQ_clean_linker_1, # of connection points: 2
#     Edge 72, Type (0, 1), BuildingBlock: KIFKEQ_clean_linker_1, # of connection points: 2
#     Edge 73, Type (0, 1), BuildingBlock: KIFKEQ_clean_linker_1, # of connection points: 2
#     Edge 74, Type (0, 1), BuildingBlock: KIFKEQ_clean_linker_1, # of connection points: 2
#     Edge 75, Type (0, 1), BuildingBlock: KIFKEQ_clean_linker_1, # of connection points: 2
#     Edge 76, Type (0, 1), BuildingBlock: KIFKEQ_clean_linker_1, # of connection points: 2
#     Edge 77, Type (0, 1), BuildingBlock: KIFKEQ_clean_linker_1, # of connection points: 2
#     Edge 78, Type (0, 1), BuildingBlock: KIFKEQ_clean_linker_1, # of connection points: 2
#     Edge 79, Type (0, 1), BuildingBlock: KIFKEQ_clean_linker_1, # of connection points: 2
#     Edge 80, Type (0, 1), BuildingBlock: KIFKEQ_clean_linker_1, # of connection points: 2
#     Edge 81, Type (0, 1), BuildingBlock: KIFKEQ_clean_linker_1, # of connection points: 2
#     Edge 82, Type (0, 1), BuildingBlock: KIFKEQ_clean_linker_1, # of connection points: 2
#     Edge 83, Type (0, 1), BuildingBlock: KIFKEQ_clean_linker_1, # of connection points: 2
#     Edge 84, Type (0, 1), BuildingBlock: KIFKEQ_clean_linker_1, # of connection points: 2
#     Edge 85, Type (0, 1), BuildingBlock: KIFKEQ_clean_linker_1, # of connection points: 2
#     Edge 86, Type (0, 1), BuildingBlock: KIFKEQ_clean_linker_1, # of connection points: 2
#     Edge 87, Type (0, 1), BuildingBlock: KIFKEQ_clean_linker_1, # of connection points: 2
#     Edge 88, Type (0, 1), BuildingBlock: KIFKEQ_clean_linker_1, # of connection points: 2
#     Edge 89, Type (0, 1), BuildingBlock: KIFKEQ_clean_linker_1, # of connection points: 2
#     Edge 90, Type (0, 1), BuildingBlock: KIFKEQ_clean_linker_1, # of connection points: 2
#     Edge 91, Type (0, 1), BuildingBlock: KIFKEQ_clean_linker_1, # of connection points: 2
#     Edge 92, Type (0, 1), BuildingBlock: KIFKEQ_clean_linker_1, # of connection points: 2
#     Edge 93, Type (0, 1), BuildingBlock: KIFKEQ_clean_linker_1, # of connection points: 2
#     Edge 94, Type (0, 1), BuildingBlock: KIFKEQ_clean_linker_1, # of connection points: 2
#     Edge 95, Type (0, 1), BuildingBlock: KIFKEQ_clean_linker_1, # of connection points: 2
#     Edge 96, Type (0, 1), BuildingBlock: KIFKEQ_clean_linker_1, # of connection points: 2
#     Edge 97, Type (0, 1), BuildingBlock: KIFKEQ_clean_linker_1, # of connection points: 2
#     Edge 98, Type (0, 1), BuildingBlock: KIFKEQ_clean_linker_1, # of connection points: 2
#     Edge 99, Type (0, 1), BuildingBlock: KIFKEQ_clean_linker_1, # of connection points: 2
#     Edge 100, Type (0, 1), BuildingBlock: KIFKEQ_clean_linker_1, # of connection points: 2
#     Edge 101, Type (0, 1), BuildingBlock: KIFKEQ_clean_linker_1, # of connection points: 2
#     Edge 102, Type (0, 1), BuildingBlock: KIFKEQ_clean_linker_1, # of connection points: 2
#     Edge 103, Type (0, 1), BuildingBlock: KIFKEQ_clean_linker_1, # of connection points: 2
#     Edge 104, Type (0, 1), BuildingBlock: KIFKEQ_clean_linker_1, # of connection points: 2
#     Edge 105, Type (0, 1), BuildingBlock: KIFKEQ_clean_linker_1, # of connection points: 2
#     Edge 106, Type (0, 1), BuildingBlock: KIFKEQ_clean_linker_1, # of connection points: 2
#     Edge 107, Type (0, 1), BuildingBlock: KIFKEQ_clean_linker_1, # of connection points: 2
# Relax obj value: 0.047
# Max RMSD: 0.105
# Mean RMSD: 0.081
data_MOF--net-ptr--node1-CEKHIL_clean_sbu_0--node2-KUFVIS_clean_linker_0--edge1-KIFKEQ_clean_linker_1
_symmetry_space_group_name_H-M    P1
_symmetry_Int_Tables_number       1
_symmetry_cell_setting            triclinic
loop_
_symmetry_equiv_pos_as_xyz
'x, y, z'
_cell_length_a     79.941521
_cell_length_b     79.022707
_cell_length_c     50.3725
_cell_angle_alpha  90.640473
_cell_angle_beta   89.716723
_cell_angle_gamma 120.97908
loop_
_atom_site_label
_atom_site_type_symbol
_atom_site_fract_x
_atom_site_fract_y
_atom_site_fract_z
_atom_type_partial_charge
Co0 Co 0.01498 0.36067 0.01104 0.0
O1 O 0.02625 0.35012 0.03473 0.0
O2 O 0.04314 0.37374 0.00588 0.0
C3 C 0.98957 0.33091 0.99782 0.0
O4 O 1.00843 0.37506 0.98286 0.0
Co5 Co 0.97307 0.35294 0.02143 0.0
O6 O 0.97732 0.36754 0.98804 0.0
C7 C 1.00649 0.38376 0.05253 0.0
C8 C 0.04306 0.3622 0.0242 0.0
C9 C 0.99368 0.37659 0.97607 0.0
O10 O 0.01859 0.38125 0.03846 0.0
O11 O 0.98794 0.37284 0.05012 0.0
O12 O 1.00664 0.33795 0.98699 0.0
O13 O 0.98879 0.34107 0.01743 0.0
Co14 Co 0.66516 0.65828 0.01178 0.0
O15 O 0.6875 0.66982 0.98848 0.0
O16 O 0.68047 0.64578 0.01654 0.0
C17 C 0.66917 0.68759 0.02605 0.0
O18 O 0.64393 0.64287 0.03947 0.0
Co19 Co 0.63045 0.66486 0.00282 0.0
O20 O 0.61917 0.64844 0.03479 0.0
C21 C 0.63373 0.63534 0.97 0.0
C22 C 0.69226 0.65787 -0.0013 0.0
C23 C 0.6271 0.64001 0.04624 0.0
O24 O 0.64853 0.63805 0.98365 0.0
O25 O 0.6258 0.64576 0.97327 0.0
O26 O 0.679 0.68048 0.03676 0.0
O27 O 0.6584 0.67759 0.00614 0.0
Co28 Co 0.36538 0.01449 0.01099 0.0
O29 O 0.35451 0.02586 0.98793 0.0
O30 O 0.37894 0.04307 0.01564 0.0
C31 C 0.33601 0.98923 0.02548 0.0
O32 O 0.38037 0.00831 0.03845 0.0
Co33 Co 0.35698 0.97178 0.00231 0.0
O34 O 0.37113 0.97622 0.03626 0.0
C35 C 0.38663 1.00427 0.96907 0.0
C36 C 0.36709 0.04298 0.99795 0.0
C37 C 0.38117 0.99334 0.04677 0.0
O38 O 0.38465 0.01712 0.98257 0.0
O39 O 0.3759 0.98564 0.9727 0.0
O40 O 0.34379 1.00671 0.03624 0.0
O41 O 0.34544 0.98796 0.00548 0.0
Co42 Co 1.01102 0.65835 0.00776 0.0
O43 O 0.9998 0.66946 0.98482 0.0
O44 O 0.98281 0.64464 0.01201 0.0
C45 C 0.03609 0.68783 0.02291 0.0
O46 O 0.01702 0.64307 0.03499 0.0
Co47 Co 0.05333 0.66684 -0.00099 0.0
O48 O 0.04797 0.64998 0.03047 0.0
C49 C 0.02123 0.63796 0.96442 0.0
C50 C 0.98289 0.65665 0.99448 0.0
C51 C 0.03132 0.64082 0.04168 0.0
O52 O 1.00844 0.63904 0.97892 0.0
O53 O 0.03965 0.64923 0.96782 0.0
O54 O 0.01882 0.68017 0.03341 0.0
O55 O 0.03721 0.67831 0.00275 0.0
Co56 Co 0.36096 0.36009 0.01132 0.0
O57 O 0.33923 0.34938 0.03577 0.0
O58 O 0.34646 0.37349 0.00771 0.0
C59 C 0.35569 0.33041 0.99684 0.0
O60 O 0.38151 0.37496 0.98268 0.0
Co61 Co 0.39542 0.35265 0.0167 0.0
O62 O 0.40442 0.36655 0.98243 0.0
C63 C 0.39403 0.38277 0.05091 0.0
C64 C 0.33488 0.36178 0.02599 0.0
C65 C 0.39707 0.37619 0.97303 0.0
O66 O 0.37876 0.38019 0.03866 0.0
O67 O 0.40171 0.37225 0.0463 0.0
O68 O 0.34574 0.3377 0.98708 0.0
O69 O 0.36739 0.34045 0.01599 0.0
Co70 Co 0.66076 1.00609 0.00737 0.0
O71 O 0.67152 0.99478 0.03075 0.0
O72 O 0.647 0.97748 0.00321 0.0
C73 C 0.69013 0.03097 0.99237 0.0
O74 O 0.64582 0.01219 0.97969 0.0
Co75 Co 0.66958 0.04898 0.01636 0.0
O76 O 0.65273 0.04351 0.98491 0.0
C77 C 0.63978 0.01668 0.04943 0.0
C78 C 0.65885 0.97762 0.02094 0.0
C79 C 0.6436 0.02671 0.97335 0.0
O80 O 0.64155 1.00381 0.03568 0.0
O81 O 0.65078 0.03531 0.04614 0.0
O82 O 0.68225 0.01331 0.98222 0.0
O83 O 0.68092 0.03266 0.01234 0.0
Co84 Co 0.68221 0.69452 0.34399 0.0
O85 O 0.69333 0.68354 0.3672 0.0
O86 O 0.71035 0.70745 0.33878 0.0
C87 C 0.65659 0.66494 0.33023 0.0
O88 O 0.67588 0.70937 0.31627 0.0
Co89 Co 0.64046 0.68711 0.35427 0.0
O90 O 0.64465 0.70152 0.32077 0.0
C91 C 0.6742 0.71895 0.38375 0.0
C92 C 0.71018 0.69568 0.3568 0.0
C93 C 0.66114 0.71081 0.30921 0.0
O94 O 0.68606 0.71493 0.37185 0.0
O95 O 0.65571 0.7092 0.38019 0.0
O96 O 0.67367 0.67217 0.31931 0.0
O97 O 0.65593 0.67491 0.35025 0.0
Co98 Co 0.33157 0.99112 0.34389 0.0
O99 O 0.35359 1.00236 0.31996 0.0
O100 O 0.34619 0.97782 0.3473 0.0
C101 C 0.33653 0.02063 0.35905 0.0
O102 O 0.31073 0.97576 0.37199 0.0
Co103 Co 0.29718 0.99854 0.3384 0.0
O104 O 0.28779 0.98411 0.37228 0.0
C105 C 0.29901 0.96903 0.30343 0.0
C106 C 0.35791 0.98984 0.32938 0.0
C107 C 0.29509 0.97438 0.38155 0.0
O108 O 0.31416 0.97143 0.31585 0.0
O109 O 0.29128 0.97947 0.30827 0.0
O110 O 0.34622 0.0131 0.36901 0.0
O111 O 0.32521 0.01083 0.33947 0.0
Co112 Co 0.03122 0.34559 0.34433 0.0
O113 O 0.01917 0.3559 0.32163 0.0
O114 O 0.04418 0.37424 0.34808 0.0
C115 C 1.00241 0.32019 0.35994 0.0
O116 O 0.04712 0.34033 0.37144 0.0
Co117 Co 0.02365 0.30317 0.33617 0.0
O118 O 0.03808 0.30828 0.37 0.0
C119 C 0.05241 0.33558 0.30204 0.0
C120 C 0.03152 0.37328 0.33106 0.0
C121 C 0.04814 0.32555 0.38005 0.0
O122 O 0.05015 0.34833 0.31533 0.0
O123 O 0.04214 0.31697 0.30612 0.0
O124 O 1.01008 0.33777 0.37032 0.0
O125 O 1.01162 0.31886 0.3397 0.0
Co126 Co 0.67674 0.99131 0.34282 0.0
O127 O 0.66639 1.00259 0.31871 0.0
O128 O 0.64849 0.97817 0.34606 0.0
C129 C 0.70176 0.02078 0.35791 0.0
O130 O 0.68182 0.97597 0.37111 0.0
Co131 Co 0.71894 0.99897 0.33718 0.0
O132 O 0.71342 0.98478 0.37124 0.0
C133 C 0.68749 0.9702 0.30142 0.0
C134 C 0.64922 0.99023 0.32809 0.0
C135 C 0.69621 0.97491 0.38068 0.0
O136 O 0.67444 0.9717 0.31468 0.0
O137 O 0.70582 0.98103 0.306 0.0
O138 O 0.68435 0.0134 0.36785 0.0
O139 O 0.70313 0.01089 0.33843 0.0
Co140 Co 0.02829 0.69421 0.34088 0.0
O141 O 1.00614 0.6827 0.36464 0.0
O142 O 0.01322 0.70698 0.33696 0.0
C143 C 0.02421 0.66499 0.3261 0.0
O144 O 0.04913 0.70975 0.3129 0.0
Co145 Co 0.06335 0.68776 0.34706 0.0
O146 O 0.07258 0.70209 0.31308 0.0
C147 C 0.06046 0.71688 0.38159 0.0
C148 C 1.00155 0.69495 0.35492 0.0
C149 C 0.06497 0.71147 0.30356 0.0
O150 O 0.04532 0.71421 0.36887 0.0
O151 O 0.06851 0.70668 0.3771 0.0
O152 O 0.01412 0.672 0.31591 0.0
O153 O 0.0353 0.67504 0.34572 0.0
Co154 Co 0.32697 0.33803 0.34055 0.0
O155 O 0.33776 0.32671 0.36384 0.0
O156 O 0.31366 0.30948 0.33568 0.0
C157 C 0.35643 0.3635 0.32663 0.0
O158 O 0.31213 0.34419 0.31284 0.0
Co159 Co 0.335 0.38059 0.34938 0.0
O160 O 0.32115 0.37621 0.31519 0.0
C161 C 0.30486 0.34774 0.3817 0.0
C162 C 0.32538 0.30961 0.35361 0.0
C163 C 0.31126 0.35913 0.30455 0.0
O164 O 0.3073 0.33507 0.36852 0.0
O165 O 0.31546 0.3664 0.37824 0.0
O166 O 0.34886 0.34609 0.31574 0.0
O167 O 0.34675 0.36459 0.34644 0.0
Co168 Co 0.3467 0.02618 0.67845 0.0
O169 O 0.35803 0.01521 0.70135 0.0
O170 O 0.37496 0.03991 0.67399 0.0
C171 C 0.3218 0.99659 0.66353 0.0
O172 O 0.34019 0.04115 0.65125 0.0
Co173 Co 0.30422 0.01708 0.68799 0.0
O174 O 0.30874 0.03266 0.65543 0.0
C175 C 0.33651 0.04655 0.72185 0.0
C176 C 0.3749 0.02788 0.69151 0.0
C177 C 0.32535 0.04242 0.64422 0.0
O178 O 0.34927 0.04551 0.70724 0.0
O179 O 0.31808 0.03513 0.71874 0.0
O180 O 0.33903 1.00438 0.65288 0.0
O181 O 0.32066 1.00605 0.68375 0.0
Co182 Co 0.9994 0.32482 0.67705 0.0
O183 O 0.02122 0.33594 0.65274 0.0
O184 O 0.01462 0.3122 0.68114 0.0
C185 C 1.00378 0.35434 0.69098 0.0
O186 O 0.97893 0.30972 0.70575 0.0
Co187 Co 0.9642 0.33093 0.67141 0.0
O188 O 0.95596 0.31802 0.70637 0.0
C189 C 0.96551 0.29972 0.6397 0.0
C190 C 0.02602 0.32393 0.66274 0.0
C191 C 0.96348 0.30853 0.71574 0.0
O192 O 0.98209 0.30426 0.64983 0.0
O193 O 0.95655 0.30888 0.64511 0.0
O194 O 0.01388 0.34738 0.70125 0.0
O195 O 0.99234 0.34398 0.67174 0.0
Co196 Co 0.6977 0.67819 0.6764 0.0
O197 O 0.68659 0.68872 0.65227 0.0
O198 O 0.71065 0.7068 0.68013 0.0
C199 C 0.66852 0.65301 0.6913 0.0
O200 O 0.71281 0.67289 0.70488 0.0
Co201 Co 0.69018 0.63565 0.66882 0.0
O202 O 0.70696 0.64187 0.70042 0.0
C203 C 0.72108 0.66841 0.63743 0.0
C204 C 0.69873 0.70608 0.66203 0.0
C205 C 0.71548 0.65874 0.71175 0.0
O206 O 0.71743 0.68091 0.64866 0.0
O207 O 0.71137 0.64986 0.64195 0.0
O208 O 0.67598 0.67073 0.70106 0.0
O209 O 0.67802 0.65132 0.67165 0.0
Co210 Co 0.34678 0.32757 0.67363 0.0
O211 O 0.33633 0.33904 0.65005 0.0
O212 O 0.3184 0.31386 0.67636 0.0
C213 C 0.3712 0.35692 0.6896 0.0
O214 O 0.35218 0.31213 0.70147 0.0
Co215 Co 0.38938 0.3362 0.66778 0.0
O216 O 0.38416 0.32232 0.70205 0.0
C217 C 0.35816 0.30696 0.63211 0.0
C218 C 0.31917 0.32636 0.65909 0.0
C219 C 0.36694 0.31181 0.71121 0.0
O220 O 0.34502 0.30847 0.64508 0.0
O221 O 0.37646 0.31785 0.63686 0.0
O222 O 0.35367 0.3492 0.69915 0.0
O223 O 0.3731 0.34756 0.66986 0.0
Co224 Co 0.69457 0.02836 0.67701 0.0
O225 O 0.67279 0.01667 0.7014 0.0
O226 O 0.67832 0.03975 0.67238 0.0
C227 C 0.69183 0.99943 0.66359 0.0
O228 O 0.71468 0.0438 0.64814 0.0
Co229 Co 0.73119 0.02465 0.68331 0.0
O230 O 0.7388 0.03714 0.64804 0.0
C231 C 0.72807 0.05517 0.71406 0.0
C232 C 0.66728 0.02801 0.69102 0.0
C233 C 0.73048 0.04574 0.63829 0.0
O234 O 0.71126 0.04962 0.70384 0.0
O235 O 0.73785 0.04681 0.70906 0.0
O236 O 0.6809 1.0054 0.65325 0.0
O237 O 0.70299 0.01028 0.68277 0.0
Co238 Co 0.99347 0.67215 0.67448 0.0
O239 O 1.00411 0.66077 0.69799 0.0
O240 O 0.97969 0.64353 0.67029 0.0
C241 C 0.02297 0.69706 0.65984 0.0
O242 O 0.9787 0.67823 0.64659 0.0
Co243 Co 1.00233 0.71513 0.68198 0.0
O244 O 0.98814 0.71038 0.64798 0.0
C245 C 0.97262 0.68325 0.71589 0.0
C246 C 0.99147 0.64363 0.6881 0.0
C247 C 0.97802 0.69316 0.63782 0.0
O248 O 0.97426 0.67008 0.70266 0.0
O249 O 0.98359 0.70181 0.71194 0.0
O250 O 0.01507 0.67947 0.64939 0.0
O251 O 0.01357 0.69864 0.67962 0.0
H252 H 0.24213 0.35295 0.13947 0.0
H253 H 0.20428 0.36672 0.09792 0.0
H254 H 0.19497 0.35143 0.18168 0.0
H255 H 0.17859 0.36568 0.18315 0.0
H256 H 0.13412 0.36918 0.14155 0.0
H257 H 0.17394 0.35922 0.09713 0.0
C258 C 0.22933 0.35439 0.13961 0.0
C259 C 0.21927 0.35197 0.16328 0.0
C260 C 0.22376 0.35935 0.11618 0.0
C261 C 0.20774 0.36217 0.11621 0.0
C262 C 0.19672 0.35942 0.13977 0.0
C263 C 0.20286 0.35417 0.16325 0.0
C264 C 0.17926 0.36228 0.14004 0.0
C265 C 0.17183 0.36506 0.16439 0.0
C266 C 0.15548 0.36731 0.16505 0.0
C267 C 0.14694 0.36777 0.14121 0.0
C268 C 0.15375 0.36523 0.11685 0.0
C269 C 0.16957 0.36204 0.1162 0.0
H270 H 0.65431 0.88732 0.13658 0.0
H271 H 0.66002 0.8439 0.09294 0.0
H272 H 0.66715 0.84904 0.17878 0.0
H273 H 0.66174 0.82019 0.17957 0.0
H274 H 0.67825 0.78318 0.14019 0.0
H275 H 0.67005 0.82337 0.09386 0.0
C276 C 0.65633 0.87475 0.13653 0.0
C277 C 0.65976 0.86831 0.16039 0.0
C278 C 0.65688 0.86632 0.11233 0.0
C279 C 0.66004 0.85029 0.11199 0.0
C280 C 0.66312 0.84289 0.13609 0.0
C281 C 0.66358 0.85283 0.16004 0.0
C282 C 0.6665 0.82555 0.13672 0.0
C283 C 0.66601 0.81636 0.16119 0.0
C284 C 0.67095 0.8017 0.16249 0.0
C285 C 0.67522 0.79508 0.13923 0.0
C286 C 0.67421 0.80238 0.1146 0.0
C287 C 0.67017 0.81775 0.11324 0.0
H288 H 0.24808 0.89384 0.13916 0.0
H289 H 0.19623 0.85606 0.09475 0.0
H290 H 0.20059 0.84477 0.17793 0.0
H291 H 0.16959 0.83166 0.17879 0.0
H292 H 0.12103 0.78512 0.13725 0.0
H293 H 0.1726 0.82404 0.09359 0.0
C294 C 0.23364 0.88069 0.13829 0.0
C295 C 0.22521 0.86999 0.16134 0.0
C296 C 0.22348 0.87553 0.11431 0.0
C297 C 0.20416 0.85928 0.11325 0.0
C298 C 0.19521 0.84776 0.13626 0.0
C299 C 0.20635 0.85327 0.16005 0.0
C300 C 0.17431 0.83052 0.13612 0.0
C301 C 0.16352 0.82403 0.1602 0.0
C302 C 0.14445 0.80757 0.16077 0.0
C303 C 0.13562 0.79806 0.13699 0.0
C304 C 0.1455 0.80415 0.11287 0.0
C305 C 0.16494 0.8201 0.11235 0.0
H306 H 0.37114 0.13276 0.88257 0.0
H307 H 0.36562 0.17664 0.92545 0.0
H308 H 0.35733 0.17016 0.83984 0.0
H309 H 0.3641 0.19966 0.83868 0.0
H310 H 0.34817 0.23741 0.87723 0.0
H311 H 0.35308 0.19528 0.92386 0.0
C312 C 0.369 0.14526 0.88244 0.0
C313 C 0.36524 0.15132 0.8585 0.0
C314 C 0.3686 0.15393 0.90651 0.0
C315 C 0.36535 0.16991 0.90656 0.0
C316 C 0.36194 0.17691 0.88235 0.0
C317 C 0.36123 0.16666 0.85859 0.0
C318 C 0.35861 0.19426 0.8814 0.0
C319 C 0.35972 0.20366 0.85684 0.0
C320 C 0.35505 0.21851 0.85518 0.0
C321 C 0.35071 0.2252 0.87835 0.0
C322 C 0.35029 0.21715 0.90304 0.0
C323 C 0.35408 0.20161 0.90461 0.0
H324 H 0.77869 0.12711 0.87652 0.0
H325 H 0.83093 0.16172 0.92221 0.0
H326 H 0.82659 0.17763 0.84127 0.0
H327 H 0.85739 0.18925 0.83982 0.0
H328 H 0.90647 0.23411 0.88227 0.0
H329 H 0.85498 0.19419 0.92566 0.0
C330 C 0.79324 0.14001 0.87838 0.0
C331 C 0.80182 0.1519 0.85637 0.0
C332 C 0.80353 0.14342 0.90211 0.0
C333 C 0.82285 0.15969 0.9041 0.0
C334 C 0.83184 0.17246 0.88211 0.0
C335 C 0.82073 0.16834 0.8585 0.0
C336 C 0.8529 0.18933 0.88272 0.0
C337 C 0.86362 0.19634 0.85865 0.0
C338 C 0.8828 0.21255 0.85839 0.0
C339 C 0.8918 0.22129 0.8824 0.0
C340 C 0.88216 0.21447 0.90663 0.0
C341 C 0.86253 0.1988 0.90685 0.0
H342 H 0.78112 0.6629 0.88508 0.0
H343 H 0.82549 0.65875 0.92518 0.0
H344 H 0.82182 0.65567 0.83872 0.0
H345 H 0.84943 0.659 0.83725 0.0
H346 H 0.89149 0.65035 0.87639 0.0
H347 H 0.84899 0.65391 0.92339 0.0
C348 C 0.79373 0.66117 0.88389 0.0
C349 C 0.80058 0.65931 0.85917 0.0
C350 C 0.80242 0.66047 0.90735 0.0
C351 C 0.81919 0.65894 0.90642 0.0
C352 C 0.8273 0.6577 0.88169 0.0
C353 C 0.81731 0.65762 0.85812 0.0
C354 C 0.84556 0.65601 0.88044 0.0
C355 C 0.85456 0.65654 0.85569 0.0
C356 C 0.8707 0.65394 0.85414 0.0
C357 C 0.87858 0.65157 0.87742 0.0
C358 C 0.87097 0.65193 0.90217 0.0
C359 C 0.85449 0.65399 0.90379 0.0
H360 H 0.90947 0.68571 0.46996 0.0
H361 H 0.87045 0.69813 0.42899 0.0
H362 H 0.86227 0.6833 0.51295 0.0
H363 H 0.84443 0.69551 0.51513 0.0
H364 H 0.80095 0.70123 0.47494 0.0
H365 H 0.84075 0.69213 0.42882 0.0
C366 C 0.89649 0.68682 0.47031 0.0
C367 C 0.8866 0.68435 0.49414 0.0
C368 C 0.89048 0.69141 0.44695 0.0
C369 C 0.87422 0.69385 0.44725 0.0
C370 C 0.8634 0.69111 0.47102 0.0
C371 C 0.86995 0.68613 0.49435 0.0
C372 C 0.8458 0.6938 0.47177 0.0
C373 C 0.83808 0.69571 0.49639 0.0
C374 C 0.82187 0.69812 0.4975 0.0
C375 C 0.81361 0.69958 0.47402 0.0
C376 C 0.8205 0.69764 0.44937 0.0
C377 C 0.83628 0.69436 0.44816 0.0
H378 H 0.32355 0.22153 0.46928 0.0
H379 H 0.3268 0.17604 0.42713 0.0
H380 H 0.33637 0.18353 0.51245 0.0
H381 H 0.328 0.15341 0.51401 0.0
H382 H 0.34406 0.11531 0.47662 0.0
H383 H 0.33854 0.15663 0.42884 0.0
C384 C 0.32527 0.20877 0.46962 0.0
C385 C 0.32905 0.20279 0.49362 0.0
C386 C 0.32494 0.19955 0.44571 0.0
C387 C 0.32759 0.18318 0.44587 0.0
C388 C 0.3311 0.17633 0.47014 0.0
C389 C 0.33246 0.18704 0.49371 0.0
C390 C 0.33386 0.15864 0.47136 0.0
C391 C 0.33251 0.14932 0.49603 0.0
C392 C 0.33687 0.13428 0.49797 0.0
C393 C 0.34143 0.12745 0.47515 0.0
C394 C 0.34134 0.13498 0.45028 0.0
C395 C 0.33787 0.15072 0.4483 0.0
H396 H 0.91358 0.22567 0.47482 0.0
H397 H 0.86174 0.18923 0.42943 0.0
H398 H 0.86418 0.17882 0.51353 0.0
H399 H 0.83337 0.16577 0.51312 0.0
H400 H 0.78521 0.1193 0.47096 0.0
H401 H 0.83752 0.15758 0.42832 0.0
C402 C 0.89882 0.21303 0.47371 0.0
C403 C 0.88961 0.20291 0.49677 0.0
C404 C 0.88895 0.208 0.44947 0.0
C405 C 0.86935 0.19235 0.44819 0.0
C406 C 0.85974 0.18126 0.47125 0.0
C407 C 0.87044 0.18681 0.4954 0.0
C408 C 0.83869 0.16436 0.4707 0.0
C409 C 0.82752 0.1581 0.4945 0.0
C410 C 0.80842 0.14172 0.49478 0.0
C411 C 0.79983 0.1322 0.47091 0.0
C412 C 0.81006 0.13811 0.44703 0.0
C413 C 0.82959 0.15388 0.44686 0.0
H414 H 0.0376 0.46438 0.21227 0.0
H415 H 0.02279 0.50193 0.25504 0.0
H416 H 0.03959 0.51246 0.17189 0.0
H417 H 0.02257 0.52582 0.16946 0.0
H418 H 0.01508 0.5692 0.2093 0.0
H419 H 0.02929 0.53298 0.25527 0.0
C420 C 0.03638 0.47744 0.21273 0.0
C421 C 0.03875 0.48771 0.18935 0.0
C422 C 0.03099 0.48266 0.23644 0.0
C423 C 0.02796 0.49879 0.23685 0.0
C424 C 0.03071 0.50995 0.21347 0.0
C425 C 0.03669 0.50431 0.19006 0.0
C426 C 0.02639 0.52658 0.21266 0.0
C427 C 0.02276 0.53284 0.18805 0.0
C428 C 0.01897 0.5483 0.18685 0.0
C429 C 0.01779 0.55709 0.21028 0.0
C430 C 0.02128 0.55149 0.23484 0.0
C431 C 0.02593 0.53654 0.23611 0.0
H432 H 0.44454 0.45892 0.21464 0.0
H433 H 0.49635 0.49749 0.25861 0.0
H434 H 0.49127 0.50824 0.17539 0.0
H435 H 0.52207 0.52247 0.17383 0.0
H436 H 0.57155 0.56795 0.21477 0.0
H437 H 0.52036 0.52914 0.2595 0.0
C438 C 0.45887 0.47222 0.21537 0.0
C439 C 0.4671 0.48285 0.19223 0.0
C440 C 0.46912 0.47767 0.23929 0.0
C441 C 0.48835 0.4941 0.24016 0.0
C442 C 0.4971 0.50556 0.21702 0.0
C443 C 0.4858 0.4998 0.19336 0.0
C444 C 0.51797 0.52292 0.21684 0.0
C445 C 0.5284 0.5297 0.19253 0.0
C446 C 0.54748 0.54603 0.19178 0.0
C447 C 0.55685 0.55519 0.21541 0.0
C448 C 0.54724 0.54903 0.23974 0.0
C449 C 0.52773 0.53316 0.24054 0.0
H450 H 0.4496 0.99883 0.21297 0.0
H451 H 0.4882 0.98584 0.25402 0.0
H452 H 0.49714 1.00143 0.17038 0.0
H453 H 0.51355 0.98714 0.16856 0.0
H454 H 0.55872 0.98451 0.20955 0.0
H455 H 0.51879 0.99399 0.2545 0.0
C456 C 0.46254 0.99764 0.21269 0.0
C457 C 0.47263 1.00034 0.18896 0.0
C458 C 0.46832 0.99278 0.23602 0.0
C459 C 0.48456 0.99032 0.23581 0.0
C460 C 0.49555 0.99329 0.21217 0.0
C461 C 0.48923 0.99847 0.18882 0.0
C462 C 0.51319 0.99073 0.21166 0.0
C463 C 0.52051 0.98795 0.18722 0.0
C464 C 0.53699 0.98592 0.18634 0.0
C465 C 0.54582 0.98575 0.21007 0.0
C466 C 0.53911 0.9883 0.2345 0.0
C467 C 0.52312 0.9912 0.23537 0.0
H468 H 0.57355 0.01725 0.80677 0.0
H469 H 0.53613 0.03099 0.76376 0.0
H470 H 0.52873 0.02004 0.84881 0.0
H471 H 0.51172 0.03324 0.84914 0.0
H472 H 0.46714 0.03623 0.80736 0.0
H473 H 0.50649 0.02538 0.76327 0.0
C474 C 0.56111 0.01928 0.80655 0.0
C475 C 0.55187 0.01864 0.8303 0.0
C476 C 0.55533 0.02352 0.78269 0.0
C477 C 0.53974 0.02705 0.78242 0.0
C478 C 0.52933 0.02572 0.80612 0.0
C479 C 0.53587 0.02146 0.83006 0.0
C480 C 0.5121 0.02901 0.80614 0.0
C481 C 0.5049 0.03231 0.83035 0.0
C482 C 0.4886 0.03463 0.83093 0.0
C483 C 0.47992 0.03478 0.80707 0.0
C484 C 0.48655 0.03186 0.78279 0.0
C485 C 0.50229 0.02852 0.78227 0.0
H486 H 0.98704 0.55296 0.80257 0.0
H487 H 0.99285 0.50953 0.75903 0.0
H488 H 1.00034 0.51503 0.84482 0.0
H489 H 0.99425 0.48583 0.84567 0.0
H490 H 1.0109 0.44877 0.8067 0.0
H491 H 1.00337 0.48931 0.76013 0.0
C492 C 0.98914 0.54043 0.80252 0.0
C493 C 0.9927 0.53411 0.82639 0.0
C494 C 0.98969 0.532 0.77834 0.0
C495 C 0.9929 0.51598 0.77805 0.0
C496 C 0.99607 0.50867 0.80217 0.0
C497 C 0.99662 0.51871 0.82608 0.0
C498 C 0.99939 0.49129 0.8029 0.0
C499 C 0.99865 0.48201 0.82739 0.0
C500 C 1.00349 0.46728 0.82881 0.0
C501 C 1.00793 0.4607 0.80565 0.0
C502 C 1.0072 0.46812 0.78098 0.0
C503 C 1.00325 0.48356 0.7795 0.0
H504 H 0.58265 0.55891 0.81039 0.0
H505 H 0.52959 0.52345 0.76711 0.0
H506 H 0.53595 0.50831 0.84763 0.0
H507 H 0.50512 0.49623 0.85058 0.0
H508 H 0.4546 0.45242 0.80943 0.0
H509 H 0.5054 0.4916 0.76444 0.0
C510 C 0.56818 0.54583 0.80929 0.0
C511 C 0.56027 0.53415 0.83171 0.0
C512 C 0.55735 0.54198 0.78599 0.0
C513 C 0.53807 0.52568 0.78486 0.0
C514 C 0.52965 0.51315 0.8072 0.0
C515 C 0.54137 0.51752 0.83028 0.0
C516 C 0.50856 0.49634 0.8074 0.0
C517 C 0.49838 0.48936 0.83187 0.0
C518 C 0.47902 0.4735 0.83264 0.0
C519 C 0.46939 0.46501 0.80887 0.0
C520 C 0.47853 0.47178 0.78434 0.0
C521 C 0.49828 0.48709 0.78354 0.0
H522 H 0.70435 0.79878 0.54664 0.0
H523 H 0.69151 0.83685 0.59196 0.0
H524 H 0.69899 0.84273 0.50623 0.0
H525 H 0.68421 0.85826 0.50715 0.0
H526 H 0.68296 0.90465 0.54921 0.0
H527 H 0.69669 0.86694 0.59191 0.0
C528 C 0.70221 0.81128 0.54745 0.0
C529 C 0.70151 0.81997 0.52392 0.0
C530 C 0.69889 0.81747 0.57191 0.0
C531 C 0.69484 0.83292 0.57288 0.0
C532 C 0.69489 0.84278 0.54926 0.0
C533 C 0.69845 0.83592 0.5249 0.0
C534 C 0.69105 0.85979 0.54957 0.0
C535 C 0.6862 0.86595 0.52576 0.0
C536 C 0.68354 0.88222 0.52544 0.0
C537 C 0.68472 0.89192 0.54925 0.0
C538 C 0.68904 0.88619 0.57309 0.0
C539 C 0.69258 0.87046 0.57331 0.0
H540 H 0.1104 0.79243 0.54491 0.0
H541 H 0.16247 0.82946 0.58927 0.0
H542 H 0.1581 0.84157 0.50646 0.0
H543 H 0.18914 0.85435 0.50547 0.0
H544 H 0.23791 0.90021 0.54761 0.0
H545 H 0.18602 0.86146 0.59075 0.0
C546 C 0.12489 0.8055 0.54583 0.0
C547 C 0.13336 0.81634 0.52288 0.0
C548 C 0.13512 0.81039 0.56975 0.0
C549 C 0.1545 0.82648 0.57084 0.0
C550 C 0.16346 0.83815 0.54795 0.0
C551 C 0.15229 0.83294 0.52424 0.0
C552 C 0.1844 0.85524 0.54817 0.0
C553 C 0.19526 0.86181 0.52414 0.0
C554 C 0.21442 0.87812 0.52377 0.0
C555 C 0.22324 0.88738 0.54769 0.0
C556 C 0.21324 0.8812 0.57172 0.0
C557 C 0.19374 0.86544 0.57203 0.0
H558 H 0.11769 0.33305 0.54679 0.0
H559 H 0.1568 0.32036 0.58738 0.0
H560 H 0.16443 0.33448 0.50336 0.0
H561 H 0.17825 0.3171 0.50198 0.0
H562 H 0.22688 0.31924 0.54008 0.0
H563 H 0.1889 0.33114 0.58618 0.0
C564 C 0.13057 0.33176 0.54631 0.0
C565 C 0.14027 0.334 0.52233 0.0
C566 C 0.13662 0.32716 0.56966 0.0
C567 C 0.15277 0.32453 0.56921 0.0
C568 C 0.16327 0.32697 0.54528 0.0
C569 C 0.15673 0.3319 0.52196 0.0
C570 C 0.18072 0.3242 0.54436 0.0
C571 C 0.18651 0.31952 0.51998 0.0
C572 C 0.20317 0.31786 0.51834 0.0
C573 C 0.21377 0.32008 0.54135 0.0
C574 C 0.20869 0.32472 0.56575 0.0
C575 C 0.19218 0.3268 0.56735 0.0
H576 H 0.04478 0.41198 0.06413 0.0
H577 H 0.98522 0.39456 0.08309 0.0
H578 H 0.0564 0.44116 0.09295 0.0
H579 H 0.99678 0.4233 0.11151 0.0
H580 H 0.01808 0.48223 0.14396 0.0
H581 H 0.01315 0.45948 0.10767 0.0
H582 H 0.05646 0.44898 0.14156 0.0
H583 H 0.06187 0.47228 0.1775 0.0
C584 C 0.03418 0.41427 0.07445 0.0
C585 C 0.01405 0.40086 0.07119 0.0
C586 C 0.04084 0.43101 0.09088 0.0
C587 C 0.0275 0.43474 0.10409 0.0
C588 C 1.00745 0.42118 0.10107 0.0
C589 C 1.00083 0.4045 0.08494 0.0
C590 C 0.02714 0.47572 0.14313 0.0
C591 C 0.04016 0.47883 0.16384 0.0
C592 C 0.02412 0.46245 0.12252 0.0
C593 C 0.03404 0.45204 0.12216 0.0
C594 C 0.04852 0.45668 0.14134 0.0
C595 C 0.05155 0.46997 0.16198 0.0
H596 H 0.6399 0.62967 0.0903 0.0
H597 H 0.58782 0.61588 0.04718 0.0
H598 H 0.62 0.60501 0.12342 0.0
H599 H 0.56803 0.59035 0.07877 0.0
H600 H 0.53575 0.56284 0.15567 0.0
H601 H 0.555 0.58488 0.12007 0.0
H602 H 0.60087 0.57247 0.13538 0.0
H603 H 0.58186 0.55149 0.17234 0.0
C604 C 0.62421 0.62122 0.08781 0.0
C605 C 0.61541 0.62496 0.06644 0.0
C606 C 0.61273 0.60687 0.10663 0.0
C607 C 0.59221 0.59555 0.1041 0.0
C608 C 0.58362 0.59902 0.0821 0.0
C609 C 0.59502 0.61366 0.0638 0.0
C610 C 0.54975 0.5645 0.15091 0.0
C611 C 0.55726 0.55536 0.1665 0.0
C612 C 0.5609 0.57718 0.13044 0.0
C613 C 0.57974 0.58074 0.12466 0.0
C614 C 0.58672 0.57061 0.13948 0.0
C615 C 0.57571 0.55828 0.16038 0.0
H616 H 0.38501 0.96489 0.07152 0.0
H617 H 0.41028 0.02811 0.06921 0.0
H618 H 0.40992 0.96914 0.10276 0.0
H619 H 0.43555 0.03237 0.10042 0.0
H620 H 0.46104 0.02702 0.18153 0.0
H621 H 0.44013 0.02673 0.14625 0.0
H622 H 0.44432 0.98064 0.10556 0.0
H623 H 0.46483 0.98059 0.14141 0.0
C624 C 0.39587 0.97975 0.07767 0.0
C625 C 0.39553 0.99616 0.06774 0.0
C626 C 0.41035 0.98219 0.09543 0.0
C627 C 0.425 1.00111 0.10386 0.0
C628 C 0.42449 0.01756 0.09441 0.0
C629 C 0.40995 0.01512 0.07655 0.0
C630 C 0.45781 0.01711 0.16475 0.0
C631 C 0.46444 1.00369 0.16439 0.0
C632 C 0.44585 0.01698 0.14445 0.0
C633 C 0.44017 1.0034 0.12325 0.0
C634 C 0.44802 0.991 0.1219 0.0
C635 C 0.46004 0.99116 0.14222 0.0
H636 H 0.3941 0.98134 0.93604 0.0
H637 H 0.41626 0.0423 0.95815 0.0
H638 H 0.42167 0.99139 0.90678 0.0
H639 H 0.44423 0.05238 0.92861 0.0
H640 H 0.47505 0.05899 0.84541 0.0
H641 H 0.45182 0.05341 0.88078 0.0
H642 H 0.45678 1.00475 0.90895 0.0
H643 H 0.47954 0.00997 0.87307 0.0
C644 C 0.40484 0.99694 0.93471 0.0
C645 C 0.40287 0.01099 0.94962 0.0
C646 C 0.42084 1.00268 0.91806 0.0
C647 C 0.43539 0.02265 0.9157 0.0
C648 C 0.43329 0.03685 0.93006 0.0
C649 C 0.41723 0.03107 0.94692 0.0
C650 C 0.47147 0.04736 0.85952 0.0
C651 C 0.47893 0.03474 0.85623 0.0
C652 C 0.45822 0.04422 0.87986 0.0
C653 C 0.45212 0.02837 0.89735 0.0
C654 C 0.46086 0.01682 0.89542 0.0
C655 C 0.47413 0.01998 0.87509 0.0
H656 H 0.02035 0.39173 0.93495 0.0
H657 H 0.97215 0.39395 0.97015 0.0
H658 H 0.02314 0.41494 0.90099 0.0
H659 H 0.97554 0.41772 0.93757 0.0
H660 H 0.97167 0.4431 0.85857 0.0
H661 H 0.96968 0.42141 0.89406 0.0
H662 H 0.0323 0.44731 0.89076 0.0
H663 H 0.03385 0.46813 0.85419 0.0
C664 C 1.01044 0.39724 0.93553 0.0
C665 C 0.99586 0.3907 0.95506 0.0
C666 C 1.01212 0.41073 0.9162 0.0
C667 C 0.99949 0.4183 0.91625 0.0
C668 C 0.98522 0.41197 0.93622 0.0
C669 C 0.98332 0.39829 0.9551 0.0
C670 C 0.985 0.44441 0.86595 0.0
C671 C 1.00292 0.45743 0.85397 0.0
C672 C 0.98394 0.43195 0.8863 0.0
C673 C 1.00084 0.43239 0.89543 0.0
C674 C 0.0189 0.44613 0.88403 0.0
C675 C 0.01988 0.45834 0.86339 0.0
H676 H 0.60139 0.62447 0.94003 0.0
H677 H 0.64387 0.60767 0.95694 0.0
H678 H 0.5838 0.59585 0.9115 0.0
H679 H 0.6259 0.57861 0.92784 0.0
H680 H 0.59908 0.54892 0.84226 0.0
H681 H 0.61759 0.57134 0.8788 0.0
H682 H 0.56375 0.55939 0.91564 0.0
H683 H 0.54532 0.53749 0.87882 0.0
C684 C 0.60706 0.6147 0.93769 0.0
C685 C 0.62412 0.61847 0.95095 0.0
C686 C 0.59677 0.59809 0.9215 0.0
C687 C 0.6032 0.58471 0.91787 0.0
C688 C 0.62052 0.5886 0.93047 0.0
C689 C 0.63083 0.60527 0.94702 0.0
C690 C 0.59119 0.55063 0.8586 0.0
C691 C 0.57076 0.54173 0.85741 0.0
C692 C 0.6018 0.56343 0.87956 0.0
C693 C 0.59214 0.56751 0.8997 0.0
C694 C 0.57161 0.55684 0.90005 0.0
C695 C 0.56102 0.54407 0.87912 0.0
H696 H 0.98468 0.605 0.95702 0.0
H697 H 0.04353 0.63458 0.92615 0.0
H698 H 0.97592 0.57706 0.9269 0.0
H699 H 0.03477 0.607 0.89635 0.0
H700 H 0.02146 0.54904 0.86401 0.0
H701 H 0.02655 0.57262 0.89938 0.0
H702 H 0.97219 0.56856 0.87884 0.0
H703 H 0.96685 0.54454 0.84401 0.0
C704 C 0.99566 0.60568 0.94365 0.0
C705 C 0.01484 0.62201 0.94418 0.0
C706 C 0.99067 0.58964 0.92651 0.0
C707 C 1.00477 0.58964 0.90967 0.0
C708 C 0.0237 0.60626 0.90962 0.0
C709 C 0.02866 0.6222 0.92658 0.0
C710 C 1.01033 0.55272 0.86759 0.0
C711 C 0.99387 0.5451 0.8511 0.0
C712 C 0.01334 0.56642 0.8876 0.0
C713 C 0.99995 0.57276 0.89153 0.0
C714 C 0.98278 0.56402 0.87632 0.0
C715 C 0.97978 0.55034 0.8563 0.0
H716 H 0.393 0.40699 0.95705 0.0
H717 H 0.42699 0.37948 0.94251 0.0
H718 H 0.41405 0.43358 0.92699 0.0
H719 H 0.44761 0.40567 0.91192 0.0
H720 H 0.49223 0.46195 0.87466 0.0
H721 H 0.4725 0.43976 0.9103 0.0
H722 H 0.42219 0.44081 0.88156 0.0
H723 H 0.44211 0.46357 0.84689 0.0
C724 C 0.40475 0.40641 0.94711 0.0
C725 C 0.40825 0.39103 0.95223 0.0
C726 C 0.41688 0.42172 0.9299 0.0
C727 C 0.43276 0.42199 0.91722 0.0
C728 C 0.4359 0.40631 0.92184 0.0
C729 C 0.42387 0.3911 0.93915 0.0
C730 C 0.47713 0.45796 0.87659 0.0
C731 C 0.46868 0.46435 0.85786 0.0
C732 C 0.4657 0.44495 0.8967 0.0
C733 C 0.44558 0.43805 0.89847 0.0
C734 C 0.43757 0.44573 0.88093 0.0
C735 C 0.44899 0.45876 0.86096 0.0
H736 H 0.63222 1.00388 0.92765 0.0
H737 H 0.62033 0.0422 0.97524 0.0
H738 H 0.608 1.00045 0.89512 0.0
H739 H 0.59531 0.03776 0.94424 0.0
H740 H 0.5691 0.04624 0.86921 0.0
H741 H 0.5904 0.0472 0.90419 0.0
H742 H 0.57608 0.98805 0.88248 0.0
H743 H 0.5558 0.98794 0.84626 0.0
C744 C 0.62425 0.01137 0.93128 0.0
C745 C 0.62845 0.0236 0.95371 0.0
C746 C 0.61018 0.00928 0.91277 0.0
C747 C 0.5996 0.01897 0.91666 0.0
C748 C 0.60342 0.03055 0.93981 0.0
C749 C 0.61777 0.03303 0.95779 0.0
C750 C 0.57016 0.03329 0.87245 0.0
C751 C 0.56064 0.01695 0.85529 0.0
C752 C 0.58243 0.03376 0.89255 0.0
C753 C 0.58525 0.01772 0.89639 0.0
C754 C 0.57478 1.00091 0.87995 0.0
C755 C 0.56284 1.00064 0.85946 0.0
H756 H 0.63236 0.03959 0.08265 0.0
H757 H 0.60973 0.97872 0.05955 0.0
H758 H 0.60454 0.02956 0.11146 0.0
H759 H 0.58152 0.96868 0.08856 0.0
H760 H 0.55004 0.96133 0.17121 0.0
H761 H 0.57347 0.96711 0.13606 0.0
H762 H 0.56954 0.01665 0.10912 0.0
H763 H 0.54652 0.01117 0.1448 0.0
C764 C 0.62146 0.02402 0.08367 0.0
C765 C 0.62338 0.00998 0.06864 0.0
C766 C 0.60532 0.01829 0.10004 0.0
C767 C 0.59057 0.99835 0.10199 0.0
C768 C 0.59261 0.98418 0.08747 0.0
C769 C 0.60881 0.98994 0.07091 0.0
C770 C 0.55386 0.97318 0.15737 0.0
C771 C 0.54662 0.98595 0.16096 0.0
C772 C 0.56725 0.97645 0.13717 0.0
C773 C 0.57371 0.9926 0.12012 0.0
C774 C 0.56519 1.00434 0.12232 0.0
C775 C 0.55176 1.00104 0.1425 0.0
H776 H 0.04793 0.61835 0.04258 0.0
H777 H 1.0071 0.62876 0.08527 0.0
H778 H 0.04277 0.5931 0.07394 0.0
H779 H 1.00286 0.60434 0.11814 0.0
H780 H 0.989 0.55143 0.16678 0.0
H781 H 0.99047 0.57194 0.12986 0.0
H782 H 0.0503 0.58807 0.11534 0.0
H783 H 0.04808 0.56652 0.15095 0.0
C784 C 0.03805 0.61544 0.05904 0.0
C785 C 0.02809 0.62574 0.06162 0.0
C786 C 0.03514 0.60095 0.07722 0.0
C787 C 0.02254 0.59662 0.09904 0.0
C788 C 1.01244 0.60689 0.10149 0.0
C789 C 0.015 0.62109 0.0828 0.0
C790 C 1.00219 0.55892 0.15499 0.0
C791 C 0.01833 0.55719 0.16138 0.0
C792 C 1.00322 0.57099 0.13412 0.0
C793 C 0.0206 0.58205 0.11954 0.0
C794 C 0.03649 0.57965 0.12553 0.0
C795 C 0.03529 0.56724 0.146 0.0
H796 H 0.42685 0.39302 0.07952 0.0
H797 H 0.38443 0.41043 0.06585 0.0
H798 H 0.44462 0.42086 0.10936 0.0
H799 H 0.4026 0.43871 0.09591 0.0
H800 H 0.42835 0.46733 0.18071 0.0
H801 H 0.41042 0.44506 0.14385 0.0
H802 H 0.46479 0.45685 0.10887 0.0
H803 H 0.48264 0.47853 0.14619 0.0
C804 C 0.42128 0.40279 0.0828 0.0
C805 C 0.40413 0.39938 0.0702 0.0
C806 C 0.43166 0.41896 0.09974 0.0
C807 C 0.42524 0.43223 0.10467 0.0
C808 C 0.40795 0.42877 0.09244 0.0
C809 C 0.39753 0.41254 0.07528 0.0
C810 C 0.43648 0.46549 0.16481 0.0
C811 C 0.45689 0.4744 0.16659 0.0
C812 C 0.42621 0.45281 0.14363 0.0
C813 C 0.43615 0.44883 0.12378 0.0
C814 C 0.45669 0.45928 0.12422 0.0
C815 C 0.46695 0.47193 0.14541 0.0
H816 H 0.66689 0.74842 0.37935 0.0
H817 H 0.69909 0.72937 0.42614 0.0
H818 H 0.67719 0.77669 0.40875 0.0
H819 H 0.70835 0.75689 0.4571 0.0
H820 H 0.72887 0.81173 0.50567 0.0
H821 H 0.72547 0.79015 0.46836 0.0
H822 H 0.66947 0.78327 0.44972 0.0
H823 H 0.67364 0.80567 0.48585 0.0
C824 C 0.67618 0.75034 0.39612 0.0
C825 C 0.68208 0.73671 0.40074 0.0
C826 C 0.68197 0.76647 0.41315 0.0
C827 C 0.69333 0.76904 0.43579 0.0
C828 C 0.69981 0.75566 0.43981 0.0
C829 C 0.69441 0.73977 0.42223 0.0
C830 C 0.71616 0.806 0.49297 0.0
C831 C 0.70158 0.81044 0.49845 0.0
C832 C 0.71403 0.7934 0.47181 0.0
C833 C 0.69706 0.78462 0.45601 0.0
C834 C 0.68293 0.78989 0.46093 0.0
C835 C 0.68526 0.80278 0.48173 0.0
H836 H 0.26369 0.96951 0.41006 0.0
H837 H 0.30084 0.94509 0.39975 0.0
H838 H 0.24367 0.94354 0.44121 0.0
H839 H 0.28044 0.91873 0.43054 0.0
H840 H 0.25237 0.89038 0.51175 0.0
H841 H 0.27197 0.91273 0.47647 0.0
H842 H 0.22026 0.90881 0.44353 0.0
H843 H 0.2008 0.88701 0.4796 0.0
C844 C 0.26763 0.95862 0.41443 0.0
C845 C 0.28397 0.95949 0.40237 0.0
C846 C 0.25596 0.94353 0.4321 0.0
C847 C 0.26021 0.9288 0.43816 0.0
C848 C 0.27675 0.92985 0.42646 0.0
C849 C 0.2885 0.94502 0.40882 0.0
C850 C 0.24514 0.89401 0.49667 0.0
C851 C 0.22507 0.88712 0.49865 0.0
C852 C 0.25638 0.9068 0.47635 0.0
C853 C 0.24781 0.91295 0.4574 0.0
C854 C 0.22744 0.90478 0.45818 0.0
C855 C 0.21619 0.89201 0.47858 0.0
H856 H 0.05236 0.29749 0.40517 0.0
H857 H 0.07724 0.36063 0.40199 0.0
H858 H 0.07737 0.30211 0.43641 0.0
H859 H 0.10264 0.36527 0.43329 0.0
H860 H 0.12828 0.36039 0.51474 0.0
H861 H 0.10729 0.35985 0.47938 0.0
H862 H 0.11185 0.31388 0.439 0.0
H863 H 0.13241 0.31405 0.47491 0.0
C864 C 0.06316 0.31241 0.41111 0.0
C865 C 0.06268 0.32868 0.40092 0.0
C866 C 0.07771 0.31507 0.42888 0.0
C867 C 0.09229 0.33408 0.43711 0.0
C868 C 0.09164 0.3504 0.42742 0.0
C869 C 0.07703 0.34774 0.40951 0.0
C870 C 0.12509 0.35042 0.49804 0.0
C871 C 0.13183 0.33709 0.49779 0.0
C872 C 0.11309 0.35016 0.47769 0.0
C873 C 0.10751 0.33655 0.45653 0.0
C874 C 0.11547 0.32425 0.4553 0.0
C875 C 0.12752 0.32454 0.47567 0.0
H876 H 0.05968 0.31295 0.26813 0.0
H877 H 0.08213 0.37368 0.29177 0.0
H878 H 0.08745 0.3232 0.23914 0.0
H879 H 0.11029 0.38395 0.26256 0.0
H880 H 0.14225 0.39178 0.18017 0.0
H881 H 0.11857 0.38577 0.21507 0.0
H882 H 0.12243 0.33614 0.2418 0.0
H883 H 0.14567 0.34183 0.20636 0.0
C884 C 0.07052 0.32854 0.26717 0.0
C885 C 0.06859 0.34246 0.28245 0.0
C886 C 0.08663 0.33439 0.25069 0.0
C887 C 0.10134 0.35436 0.24889 0.0
C888 C 0.09924 0.36843 0.26355 0.0
C889 C 0.08305 0.36255 0.28021 0.0
C890 C 0.13834 0.37985 0.1939 0.0
C891 C 0.14563 0.36712 0.19031 0.0
C892 C 0.12482 0.37645 0.21396 0.0
C893 C 0.11827 0.36022 0.23088 0.0
C894 C 0.12684 0.34852 0.2287 0.0
C895 C 0.14039 0.35194 0.20865 0.0
H896 H 0.68731 0.72535 0.26754 0.0
H897 H 0.64053 0.72919 0.30453 0.0
H898 H 0.6902 0.74873 0.23375 0.0
H899 H 0.64406 0.75316 0.27213 0.0
H900 H 0.63949 0.77836 0.19335 0.0
H901 H 0.6376 0.75675 0.22887 0.0
H902 H 0.69993 0.7812 0.22339 0.0
H903 H 0.70135 0.80192 0.18679 0.0
C904 C 0.67775 0.73128 0.26856 0.0
C905 C 0.66349 0.72513 0.28848 0.0
C906 C 0.6795 0.74486 0.24933 0.0
C907 C 0.66728 0.75291 0.24992 0.0
C908 C 0.65339 0.74701 0.27035 0.0
C909 C 0.65141 0.73324 0.28912 0.0
C910 C 0.65279 0.77937 0.20025 0.0
C911 C 0.67057 0.79192 0.18763 0.0
C912 C 0.65179 0.76696 0.22063 0.0
C913 C 0.66862 0.767 0.22914 0.0
C914 C 0.68657 0.78032 0.21713 0.0
C915 C 0.68749 0.79247 0.19646 0.0
H916 H 0.26683 0.95972 0.27395 0.0
H917 H 0.30811 0.94096 0.28852 0.0
H918 H 0.24886 0.93206 0.24393 0.0
H919 H 0.28973 0.91286 0.25817 0.0
H920 H 0.26379 0.88465 0.17296 0.0
H921 H 0.282 0.90666 0.20993 0.0
H922 H 0.22801 0.89603 0.24481 0.0
H923 H 0.20989 0.87459 0.20743 0.0
C924 C 0.27212 0.9497 0.27081 0.0
C925 C 0.28899 0.95265 0.28378 0.0
C926 C 0.26161 0.93364 0.25376 0.0
C927 C 0.26763 0.92002 0.24904 0.0
C928 C 0.28469 0.92307 0.26152 0.0
C929 C 0.29524 0.93919 0.27882 0.0
C930 C 0.25579 0.88667 0.18887 0.0
C931 C 0.23544 0.87818 0.18705 0.0
C932 C 0.26622 0.89921 0.21011 0.0
C933 C 0.25648 0.90346 0.22995 0.0
C934 C 0.23596 0.89339 0.22948 0.0
C935 C 0.22554 0.88087 0.20824 0.0
H936 H 0.71062 0.96651 0.26484 0.0
H937 H 0.6508 0.93802 0.29179 0.0
H938 H 0.70203 0.93949 0.23411 0.0
H939 H 0.64222 0.91058 0.26085 0.0
H940 H 0.63439 0.87955 0.17748 0.0
H941 H 0.63962 0.90306 0.21297 0.0
H942 H 0.69272 0.90499 0.23512 0.0
H943 H 0.68785 0.88207 0.19898 0.0
C944 C 0.69558 0.95447 0.26425 0.0
C945 C 0.68142 0.95444 0.28096 0.0
C946 C 0.69071 0.93883 0.24675 0.0
C947 C 0.67153 0.92267 0.2454 0.0
C948 C 0.65715 0.92282 0.26148 0.0
C949 C 0.66205 0.93856 0.27913 0.0
C950 C 0.64705 0.88483 0.19018 0.0
C951 C 0.66086 0.87918 0.18522 0.0
C952 C 0.64997 0.89818 0.21063 0.0
C953 C 0.66676 0.90616 0.22656 0.0
C954 C 0.67983 0.89941 0.2228 0.0
C955 C 0.67693 0.88607 0.20233 0.0
H956 H 0.09656 0.71675 0.27514 0.0
H957 H 0.05866 0.74033 0.2852 0.0
H958 H 0.1163 0.74276 0.24387 0.0
H959 H 0.07878 0.76673 0.25434 0.0
H960 H 0.10646 0.79497 0.17294 0.0
H961 H 0.08714 0.77267 0.20842 0.0
H962 H 0.1393 0.77756 0.24133 0.0
H963 H 0.15848 0.79928 0.20505 0.0
C964 C 0.0924 0.72747 0.27069 0.0
C965 C 0.07594 0.72635 0.2827 0.0
C966 C 0.1039 0.74259 0.25296 0.0
C967 C 0.09935 0.75708 0.24681 0.0
C968 C 0.0827 0.75579 0.25848 0.0
C969 C 0.07111 0.74059 0.27616 0.0
C970 C 0.11384 0.79156 0.18805 0.0
C971 C 0.13395 0.79868 0.186 0.0
C972 C 0.10277 0.77881 0.20849 0.0
C973 C 0.11156 0.77294 0.22748 0.0
C974 C 0.13196 0.78136 0.22664 0.0
C975 C 0.14304 0.7941 0.20612 0.0
H976 H 0.30783 0.38757 0.27905 0.0
H977 H 0.28172 0.32429 0.28291 0.0
H978 H 0.28274 0.3833 0.24813 0.0
H979 H 0.25626 0.32001 0.25205 0.0
H980 H 0.22998 0.32469 0.17127 0.0
H981 H 0.25109 0.32503 0.20629 0.0
H982 H 0.24849 0.37237 0.24601 0.0
H983 H 0.22778 0.37234 0.21038 0.0
C984 C 0.29676 0.3727 0.27329 0.0
C985 C 0.2969 0.35628 0.28357 0.0
C986 C 0.28217 0.37025 0.25573 0.0
C987 C 0.2672 0.3513 0.24787 0.0
C988 C 0.26755 0.33484 0.25762 0.0
C989 C 0.28221 0.33729 0.27527 0.0
C990 C 0.23357 0.33487 0.18782 0.0
C991 C 0.22736 0.34862 0.18794 0.0
C992 C 0.24567 0.33505 0.20795 0.0
C993 C 0.25187 0.349 0.22876 0.0
C994 C 0.24439 0.36172 0.22995 0.0
C995 C 0.23225 0.36152 0.20977 0.0
H996 H 0.27581 0.30945 0.39269 0.0
H997 H 0.29579 0.37027 0.41305 0.0
H998 H 0.2472 0.29883 0.42117 0.0
H999 H 0.2676 0.35969 0.44123 0.0
H1000 H 0.20986 0.34031 0.4744 0.0
H1001 H 0.23225 0.34509 0.43819 0.0
H1002 H 0.23924 0.29828 0.4689 0.0
H1003 H 0.21643 0.29318 0.50466 0.0
C1004 C 0.27422 0.32054 0.4033 0.0
C1005 C 0.28818 0.34073 0.40046 0.0
C1006 C 0.25778 0.31445 0.41953 0.0
C1007 C 0.2549 0.32843 0.43308 0.0
C1008 C 0.26903 0.34853 0.43052 0.0
C1009 C 0.2854 0.35459 0.41453 0.0
C1010 C 0.21555 0.33052 0.47279 0.0
C1011 C 0.21156 0.31653 0.49252 0.0
C1012 C 0.22862 0.33344 0.45228 0.0
C1013 C 0.23793 0.3224 0.45107 0.0
C1014 C 0.2324 0.30707 0.46927 0.0
C1015 C 0.21935 0.30417 0.48979 0.0
H1016 H 0.72327 0.971 0.40855 0.0
H1017 H 0.66101 0.94564 0.40071 0.0
H1018 H 0.7178 0.94586 0.4404 0.0
H1019 H 0.65552 0.9201 0.4325 0.0
H1020 H 0.6575 0.89401 0.51484 0.0
H1021 H 0.65925 0.9153 0.47895 0.0
H1022 H 0.70626 0.91112 0.44327 0.0
H1023 H 0.7049 0.89034 0.47977 0.0
C1024 C 0.70837 0.96007 0.41361 0.0
C1025 C 0.69259 0.96044 0.40195 0.0
C1026 C 0.70523 0.94545 0.43172 0.0
C1027 C 0.68621 0.93068 0.43877 0.0
C1028 C 0.67038 0.93124 0.42759 0.0
C1029 C 0.67353 0.94594 0.40939 0.0
C1030 C 0.66798 0.89735 0.49905 0.0
C1031 C 0.68123 0.89067 0.50033 0.0
C1032 C 0.66893 0.90952 0.47839 0.0
C1033 C 0.68316 0.91531 0.45844 0.0
C1034 C 0.69542 0.90736 0.45865 0.0
C1035 C 0.69445 0.89517 0.47934 0.0
H1036 H 0.0924 0.72655 0.41179 0.0
H1037 H 0.05091 0.74478 0.3956 0.0
H1038 H 0.11006 0.75449 0.44143 0.0
H1039 H 0.06897 0.77316 0.42566 0.0
H1040 H 0.09475 0.80169 0.51128 0.0
H1041 H 0.07661 0.77963 0.4743 0.0
H1042 H 0.13071 0.79069 0.43929 0.0
H1043 H 0.14876 0.81216 0.47664 0.0
C1044 C 0.08699 0.73651 0.41449 0.0
C1045 C 0.07018 0.73335 0.40116 0.0
C1046 C 0.09732 0.75273 0.43133 0.0
C1047 C 0.09117 0.76629 0.43546 0.0
C1048 C 0.07412 0.76301 0.4227 0.0
C1049 C 0.06375 0.74672 0.40559 0.0
C1050 C 0.10278 0.79977 0.49533 0.0
C1051 C 0.12315 0.80834 0.49713 0.0
C1052 C 0.09239 0.78721 0.47409 0.0
C1053 C 0.1022 0.78305 0.45426 0.0
C1054 C 0.12272 0.79329 0.45463 0.0
C1055 C 0.1331 0.80581 0.47586 0.0
H1056 H 0.31435 0.05004 0.76026 0.0
H1057 H 0.37299 0.07973 0.72864 0.0
H1058 H 0.32314 0.07781 0.78969 0.0
H1059 H 0.38178 0.10786 0.7584 0.0
H1060 H 0.39113 0.14095 0.84092 0.0
H1061 H 0.38575 0.1167 0.80641 0.0
H1062 H 0.3311 0.11211 0.78614 0.0
H1063 H 0.33625 0.13593 0.82119 0.0
C1064 C 0.32918 0.06248 0.75959 0.0
C1065 C 0.34293 0.06265 0.74188 0.0
C1066 C 0.33415 0.07853 0.77634 0.0
C1067 C 0.35302 0.09524 0.77597 0.0
C1068 C 0.36707 0.09521 0.75904 0.0
C1069 C 0.36206 0.07907 0.7421 0.0
C1070 C 0.37812 0.13498 0.82876 0.0
C1071 C 0.36399 0.14014 0.83394 0.0
C1072 C 0.3751 0.12118 0.80891 0.0
C1073 C 0.35784 0.11223 0.79388 0.0
C1074 C 0.34438 0.11848 0.79778 0.0
C1075 C 0.34742 0.13231 0.81761 0.0
H1076 H 0.93307 0.30475 0.74558 0.0
H1077 H 0.96878 0.27885 0.73351 0.0
H1078 H 0.91303 0.27898 0.77696 0.0
H1079 H 0.94835 0.2527 0.76457 0.0
H1080 H 0.9205 0.22421 0.84579 0.0
H1081 H 0.94021 0.24663 0.81064 0.0
H1082 H 0.88895 0.2444 0.77902 0.0
H1083 H 0.86938 0.22251 0.81497 0.0
C1084 C 0.93671 0.29358 0.74965 0.0
C1085 C 0.95262 0.29396 0.73698 0.0
C1086 C 0.92502 0.27861 0.76744 0.0
C1087 C 0.92882 0.26351 0.77304 0.0
C1088 C 0.945 0.26411 0.76084 0.0
C1089 C 0.95678 0.27916 0.74306 0.0
C1090 C 0.91338 0.22825 0.83104 0.0
C1091 C 0.89342 0.22179 0.83335 0.0
C1092 C 0.92469 0.24107 0.8108 0.0
C1093 C 0.91629 0.24769 0.79225 0.0
C1094 C 0.89601 0.24 0.79336 0.0
C1095 C 0.88469 0.22718 0.81369 0.0
H1096 H 0.74525 0.65216 0.70624 0.0
H1097 H 0.7188 0.67267 0.76286 0.0
H1098 H 0.7677 0.65379 0.74046 0.0
H1099 H 0.74096 0.67372 0.79751 0.0
H1100 H 0.76104 0.63969 0.85259 0.0
H1101 H 0.74253 0.64284 0.81683 0.0
H1102 H 0.79587 0.68013 0.77422 0.0
H1103 H 0.8148 0.67786 0.81098 0.0
C1104 C 0.74443 0.65724 0.72601 0.0
C1105 C 0.73029 0.66225 0.73201 0.0
C1106 C 0.75733 0.65825 0.7455 0.0
C1107 C 0.75602 0.6638 0.77161 0.0
C1108 C 0.74223 0.66936 0.77749 0.0
C1109 C 0.72963 0.66884 0.75774 0.0
C1110 C 0.76896 0.64875 0.83577 0.0
C1111 C 0.78951 0.65887 0.835 0.0
C1112 C 0.75829 0.65056 0.81531 0.0
C1113 C 0.76777 0.66209 0.79307 0.0
C1114 C 0.78822 0.67132 0.79135 0.0
C1115 C 0.79903 0.66985 0.81223 0.0
H1116 H 0.733 0.69559 0.59746 0.0
H1117 H 0.74797 0.65753 0.63832 0.0
H1118 H 0.75982 0.70465 0.56632 0.0
H1119 H 0.77556 0.66754 0.60886 0.0
H1120 H 0.80549 0.66752 0.5316 0.0
H1121 H 0.78261 0.66201 0.56708 0.0
H1122 H 0.79256 0.72075 0.55596 0.0
H1123 H 0.81452 0.7255 0.51913 0.0
C1124 C 0.7423 0.68949 0.60002 0.0
C1125 C 0.73826 0.67563 0.61992 0.0
C1126 C 0.75781 0.69477 0.58233 0.0
C1127 C 0.76993 0.68669 0.58467 0.0
C1128 C 0.76633 0.67362 0.60566 0.0
C1129 C 0.75056 0.66796 0.62275 0.0
C1130 C 0.80312 0.67939 0.53726 0.0
C1131 C 0.81183 0.69696 0.52282 0.0
C1132 C 0.78995 0.6763 0.55768 0.0
C1133 C 0.78545 0.69087 0.56456 0.0
C1134 C 0.79517 0.70895 0.55098 0.0
C1135 C 0.80803 0.71185 0.53014 0.0
H1136 H 0.35308 0.05907 0.6047 0.0
H1137 H 0.30303 0.0589 0.63762 0.0
H1138 H 0.3562 0.08272 0.57128 0.0
H1139 H 0.30668 0.08312 0.6055 0.0
H1140 H 0.3044 0.1092 0.52595 0.0
H1141 H 0.30196 0.08737 0.56155 0.0
H1142 H 0.36484 0.11512 0.56216 0.0
H1143 H 0.36689 0.13611 0.52551 0.0
C1144 C 0.34284 0.06417 0.60491 0.0
C1145 C 0.32767 0.05685 0.62364 0.0
C1146 C 0.3447 0.07791 0.58589 0.0
C1147 C 0.33165 0.08494 0.58544 0.0
C1148 C 0.31674 0.07782 0.60459 0.0
C1149 C 0.31469 0.06389 0.6232 0.0
C1150 C 0.31766 0.11089 0.53424 0.0
C1151 C 0.33582 0.12447 0.52334 0.0
C1152 C 0.31634 0.09835 0.55465 0.0
C1153 C 0.33321 0.09925 0.56484 0.0
C1154 C 0.35147 0.11358 0.55457 0.0
C1155 C 0.35273 0.12589 0.5339 0.0
H1156 H 0.97944 0.2908 0.5953 0.0
H1157 H 0.92862 0.26939 0.6451 0.0
H1158 H 0.96064 0.26388 0.56369 0.0
H1159 H 0.91014 0.24164 0.61495 0.0
H1160 H 0.87617 0.21482 0.53788 0.0
H1161 H 0.89495 0.23591 0.57483 0.0
H1162 H 0.94437 0.23102 0.55072 0.0
H1163 H 0.92563 0.21081 0.51265 0.0
C1164 C 0.96436 0.28 0.59971 0.0
C1165 C 0.95533 0.28224 0.62226 0.0
C1166 C 0.95355 0.26444 0.58176 0.0
C1167 C 0.93365 0.25056 0.58643 0.0
C1168 C 0.92516 0.25228 0.61008 0.0
C1169 C 0.93578 0.26809 0.62752 0.0
C1170 C 0.89086 0.21782 0.54098 0.0
C1171 C 0.89945 0.2112 0.52252 0.0
C1172 C 0.90174 0.22995 0.56224 0.0
C1173 C 0.9214 0.23547 0.56585 0.0
C1174 C 0.92949 0.22758 0.54832 0.0
C1175 C 0.9187 0.21575 0.52671 0.0
H1176 H 0.3215 0.2748 0.62267 0.0
H1177 H 0.38138 0.30274 0.59614 0.0
H1178 H 0.31287 0.24701 0.59245 0.0
H1179 H 0.37272 0.27537 0.56595 0.0
H1180 H 0.35781 0.2173 0.53138 0.0
H1181 H 0.3633 0.24097 0.56681 0.0
H1182 H 0.30995 0.23878 0.54532 0.0
H1183 H 0.30413 0.21458 0.51065 0.0
C1184 C 0.33276 0.27515 0.61021 0.0
C1185 C 0.35215 0.291 0.61195 0.0
C1186 C 0.32783 0.2592 0.59296 0.0
C1187 C 0.34218 0.2588 0.57711 0.0
C1188 C 0.3614 0.2749 0.57839 0.0
C1189 C 0.36632 0.29075 0.59556 0.0
C1190 C 0.347 0.22145 0.53474 0.0
C1191 C 0.33066 0.21425 0.51807 0.0
C1192 C 0.35025 0.23522 0.55478 0.0
C1193 C 0.33725 0.24208 0.55855 0.0
C1194 C 0.32025 0.23384 0.54301 0.0
C1195 C 0.31699 0.22007 0.52303 0.0
H1196 H 0.72304 0.07374 0.6195 0.0
H1197 H 0.76163 0.05103 0.60888 0.0
H1198 H 0.74254 0.10002 0.58812 0.0
H1199 H 0.78076 0.07693 0.57722 0.0
H1200 H 0.82247 0.13389 0.53936 0.0
H1201 H 0.80334 0.112 0.57547 0.0
H1202 H 0.7509 0.10597 0.54184 0.0
H1203 H 0.77015 0.12846 0.50644 0.0
C1204 C 0.73549 0.07414 0.6102 0.0
C1205 C 0.74074 0.06023 0.6168 0.0
C1206 C 0.74671 0.08928 0.59225 0.0
C1207 C 0.76343 0.09083 0.58043 0.0
C1208 C 0.76832 0.07656 0.58648 0.0
C1209 C 0.75717 0.06151 0.60443 0.0
C1210 C 0.80697 0.12843 0.54022 0.0
C1211 C 0.7978 0.13275 0.51991 0.0
C1212 C 0.79593 0.1156 0.56065 0.0
C1213 C 0.77548 0.10679 0.56121 0.0
C1214 C 0.76657 0.1124 0.54206 0.0
C1215 C 0.7776 0.12526 0.5217 0.0
H1216 H 0.97399 0.72134 0.6126 0.0
H1217 H 0.94926 0.65821 0.61538 0.0
H1218 H 0.94921 0.71674 0.58087 0.0
H1219 H 0.92413 0.6536 0.58369 0.0
H1220 H 0.8989 0.65827 0.50203 0.0
H1221 H 0.91986 0.65906 0.53761 0.0
H1222 H 0.91471 0.70482 0.57758 0.0
H1223 H 0.89417 0.70438 0.54144 0.0
C1224 C 0.96328 0.70643 0.60645 0.0
C1225 C 0.96373 0.69015 0.61665 0.0
C1226 C 0.94887 0.70379 0.58841 0.0
C1227 C 0.93442 0.68478 0.57995 0.0
C1228 C 0.93504 0.66846 0.5897 0.0
C1229 C 0.9495 0.67111 0.60785 0.0
C1230 C 0.90196 0.66824 0.51869 0.0
C1231 C 0.89504 0.68141 0.51878 0.0
C1232 C 0.91394 0.66865 0.53916 0.0
C1233 C 0.91933 0.68226 0.56028 0.0
C1234 C 0.91123 0.69444 0.56132 0.0
C1235 C 0.89919 0.694 0.54083 0.0
H1236 H 0.94075 0.64604 0.72424 0.0
H1237 H 0.96767 0.70658 0.75148 0.0
H1238 H 0.91294 0.6371 0.75356 0.0
H1239 H 0.94028 0.69765 0.78074 0.0
H1240 H 0.88338 0.68232 0.81595 0.0
H1241 H 0.90625 0.68783 0.77997 0.0
H1242 H 0.90454 0.63399 0.80031 0.0
H1243 H 0.88125 0.62824 0.83555 0.0
C1244 C 0.94087 0.65739 0.73662 0.0
C1245 C 0.95649 0.67704 0.73538 0.0
C1246 C 0.92489 0.65229 0.75336 0.0
C1247 C 0.92419 0.66672 0.7692 0.0
C1248 C 0.94002 0.68623 0.76831 0.0
C1249 C 0.95589 0.69131 0.75168 0.0
C1250 C 0.8874 0.67137 0.81211 0.0
C1251 C 0.88067 0.65496 0.82868 0.0
C1252 C 0.90073 0.67464 0.79178 0.0
C1253 C 0.90759 0.66156 0.78761 0.0
C1254 C 0.89962 0.64436 0.80289 0.0
C1255 C 0.88632 0.6411 0.82316 0.0
H1256 H 0.39426 0.31273 0.74448 0.0
H1257 H 0.33295 0.278 0.72513 0.0
H1258 H 0.39036 0.28794 0.77603 0.0
H1259 H 0.32911 0.25272 0.75615 0.0
H1260 H 0.32635 0.22406 0.83681 0.0
H1261 H 0.3285 0.24572 0.80144 0.0
H1262 H 0.38537 0.25582 0.78014 0.0
H1263 H 0.38347 0.2347 0.81668 0.0
C1264 C 0.3799 0.29977 0.74695 0.0
C1265 C 0.3639 0.29744 0.73229 0.0
C1266 C 0.37771 0.28536 0.76486 0.0
C1267 C 0.35948 0.26807 0.76851 0.0
C1268 C 0.34337 0.26587 0.75411 0.0
C1269 C 0.34554 0.28042 0.73633 0.0
C1270 C 0.33921 0.2307 0.8243 0.0
C1271 C 0.35485 0.22787 0.82974 0.0
C1272 C 0.34041 0.24308 0.80386 0.0
C1273 C 0.35725 0.2529 0.78806 0.0
C1274 C 0.37235 0.24893 0.79231 0.0
C1275 C 0.37118 0.23656 0.81295 0.0
H1276 H 0.76344 0.08758 0.70681 0.0
H1277 H 0.71395 0.06253 0.7595 0.0
H1278 H 0.78101 0.11587 0.73648 0.0
H1279 H 0.73195 0.09003 0.79057 0.0
H1280 H 0.765 0.14263 0.84225 0.0
H1281 H 0.74635 0.12268 0.80396 0.0
H1282 H 0.79758 0.12275 0.77558 0.0
H1283 H 0.81617 0.14353 0.81279 0.0
C1284 C 0.75637 0.08822 0.72489 0.0
C1285 C 0.73748 0.07291 0.73112 0.0
C1286 C 0.76647 0.10435 0.74205 0.0
C1287 C 0.75818 0.10523 0.76636 0.0
C1288 C 0.73885 0.09015 0.77198 0.0
C1289 C 0.72851 0.07425 0.75434 0.0
C1290 C 0.77233 0.13893 0.82717 0.0
C1291 C 0.79202 0.14468 0.83033 0.0
C1292 C 0.7616 0.12722 0.80544 0.0
C1293 C 0.77023 0.12065 0.78672 0.0
C1294 C 0.79033 0.12761 0.78915 0.0
C1295 C 0.8011 0.13961 0.81056 0.0
H1296 H 0.04547 0.33692 0.05812 0.0
H1297 H 0.08127 0.38783 0.00965 0.0
H1298 H 0.07443 0.33736 0.0736 0.0
H1299 H 0.1105 0.38819 0.02508 0.0
H1300 H 0.15488 0.39656 0.09358 0.0
H1301 H 0.12916 0.39552 0.06639 0.0
H1302 H 0.10076 0.33201 0.06123 0.0
H1303 H 0.12652 0.33323 0.08881 0.0
C1304 C 0.05954 0.34816 0.05058 0.0
C1305 C 0.061 0.36242 0.03273 0.0
C1306 C 0.0762 0.34828 0.05928 0.0
C1307 C 0.0949 0.36271 0.05049 0.0
C1308 C 0.09637 0.37688 0.03236 0.0
C1309 C 0.07961 0.37668 0.02348 0.0
C1310 C 0.14361 0.38249 0.08555 0.0
C1311 C 0.14286 0.365 0.09292 0.0
C1312 C 0.12875 0.38185 0.0701 0.0
C1313 C 0.11264 0.36366 0.06192 0.0
C1314 C 0.11276 0.34627 0.06754 0.0
C1315 C 0.12769 0.34694 0.08292 0.0
H1316 H 0.65071 0.7057 0.00582 0.0
H1317 H 0.69114 0.71175 0.06697 0.0
H1318 H 0.65365 0.7367 0.02039 0.0
H1319 H 0.69377 0.74246 0.08194 0.0
H1320 H 0.7064 0.80279 0.09627 0.0
H1321 H 0.70621 0.77633 0.07047 0.0
H1322 H 0.64427 0.74984 0.05721 0.0
H1323 H 0.64478 0.77669 0.0824 0.0
C1324 C 0.6602 0.71363 0.02243 0.0
C1325 C 0.67067 0.70623 0.03529 0.0
C1326 C 0.66186 0.73141 0.0308 0.0
C1327 C 0.67407 0.74225 0.05221 0.0
C1328 C 0.68456 0.7348 0.065 0.0
C1329 C 0.68289 0.71704 0.05663 0.0
C1330 C 0.69299 0.79183 0.08665 0.0
C1331 C 0.67566 0.79189 0.091 0.0
C1332 C 0.69276 0.77643 0.07235 0.0
C1333 C 0.67512 0.76063 0.06233 0.0
C1334 C 0.65814 0.76174 0.06455 0.0
C1335 C 0.65842 0.77724 0.07876 0.0
H1336 H 0.31325 0.98739 0.06764 0.0
H1337 H 0.31688 0.95174 0.00495 0.0
H1338 H 0.28318 0.9587 0.08347 0.0
H1339 H 0.28662 0.92317 0.02031 0.0
H1340 H 0.2233 0.90834 0.09932 0.0
H1341 H 0.24918 0.93587 0.0744 0.0
H1342 H 0.27497 0.9006 0.05652 0.0
H1343 H 0.24885 0.87315 0.08096 0.0
C1344 C 0.30757 0.97346 0.05713 0.0
C1345 C 0.31757 0.97187 0.03514 0.0
C1346 C 0.29018 0.95701 0.06602 0.0
C1347 C 0.2823 0.93851 0.05313 0.0
C1348 C 0.29226 0.93705 0.03094 0.0
C1349 C 0.30964 0.95348 0.02208 0.0
C1350 C 0.23397 0.90622 0.08887 0.0
C1351 C 0.23381 0.88846 0.09149 0.0
C1352 C 0.24908 0.92213 0.0751 0.0
C1353 C 0.26446 0.92067 0.06378 0.0
C1354 C 0.26338 0.90232 0.06472 0.0
C1355 C 0.24828 0.88645 0.0785 0.0
H1356 H 0.34089 0.04576 0.96659 0.0
H1357 H 0.3943 0.08167 0.0104 0.0
H1358 H 0.34171 0.07537 0.95167 0.0
H1359 H 0.39511 0.11152 0.99542 0.0
H1360 H 0.40071 0.1549 0.92612 0.0
H1361 H 0.40043 0.12923 0.95306 0.0
H1362 H 0.3386 0.1034 0.96611 0.0
H1363 H 0.33903 0.12913 0.93899 0.0
C1364 C 0.35278 0.06 0.9732 0.0
C1365 C 0.36758 0.06128 0.98963 0.0
C1366 C 0.35314 0.07703 0.96484 0.0
C1367 C 0.3684 0.09593 0.97247 0.0
C1368 C 0.38316 0.09724 0.98909 0.0
C1369 C 0.38268 0.08012 0.99771 0.0
C1370 C 0.3873 0.14433 0.93594 0.0
C1371 C 0.36997 0.14424 0.93085 0.0
C1372 C 0.38706 0.12946 0.95119 0.0
C1373 C 0.36942 0.11398 0.96141 0.0
C1374 C 0.3524 0.1149 0.9582 0.0
C1375 C 0.35268 0.12987 0.94311 0.0
H1376 H 0.9539 0.32408 0.98304 0.0
H1377 H 0.98655 0.29521 0.99447 0.0
H1378 H 0.92595 0.29313 0.96762 0.0
H1379 H 0.95818 0.26371 0.98199 0.0
H1380 H 0.91577 0.21784 0.92291 0.0
H1381 H 0.94084 0.24479 0.94849 0.0
H1382 H 0.89972 0.26262 0.9711 0.0
H1383 H 0.87507 0.23627 0.9429 0.0
C1384 C 0.95489 0.31091 0.9826 0.0
C1385 C 0.97241 0.31201 0.98935 0.0
C1386 C 0.93873 0.29298 0.97414 0.0
C1387 C 0.93945 0.27548 0.97318 0.0
C1388 C 0.95692 0.27668 0.98134 0.0
C1389 C 0.97328 0.29476 0.98874 0.0
C1390 C 0.91193 0.22715 0.93412 0.0
C1391 C 0.89352 0.22503 0.93075 0.0
C1392 C 0.92642 0.24282 0.94896 0.0
C1393 C 0.92281 0.25662 0.96166 0.0
C1394 C 0.90353 0.25296 0.96086 0.0
C1395 C 0.8891 0.23748 0.94528 0.0
H1396 H 0.70605 0.63409 0.01491 0.0
H1397 H 0.71979 0.68319 0.96402 0.0
H1398 H 0.73605 0.63538 0.00062 0.0
H1399 H 0.74933 0.6843 0.94955 0.0
H1400 H 0.77429 0.62862 0.93327 0.0
H1401 H 0.74883 0.62829 0.96063 0.0
H1402 H 0.78143 0.69205 0.96274 0.0
H1403 H 0.80655 0.69217 0.93474 0.0
C1404 C 0.71547 0.64517 0.00075 0.0
C1405 C 0.71046 0.65849 0.99054 0.0
C1406 C 0.73266 0.64591 0.99255 0.0
C1407 C 0.74529 0.66007 0.97411 0.0
C1408 C 0.74028 0.67348 0.96423 0.0
C1409 C 0.72315 0.6727 0.97231 0.0
C1410 C 0.77645 0.6425 0.94079 0.0
C1411 C 0.7925 0.66041 0.93225 0.0
C1412 C 0.76177 0.64236 0.95629 0.0
C1413 C 0.76282 0.66016 0.96344 0.0
C1414 C 0.77991 0.67806 0.95711 0.0
C1415 C 0.79453 0.67818 0.94154 0.0
H1416 H 0.97984 0.68282 0.96296 0.0
H1417 H 0.94478 0.6289 0.00631 0.0
H1418 H 0.95037 0.68138 0.94725 0.0
H1419 H 0.91511 0.62748 0.99057 0.0
H1420 H 0.87184 0.6203 0.92094 0.0
H1421 H 0.89781 0.62148 0.94781 0.0
H1422 H 0.92222 0.68398 0.9608 0.0
H1423 H 0.89617 0.68264 0.93374 0.0
C1424 C 0.96583 0.6707 0.96931 0.0
C1425 C 0.96472 0.65592 0.98581 0.0
C1426 C 0.94888 0.66998 0.96048 0.0
C1427 C 0.93028 0.65437 0.96773 0.0
C1428 C 0.92916 0.63967 0.9845 0.0
C1429 C 0.94618 0.6405 0.99356 0.0
C1430 C 0.88224 0.63407 0.93062 0.0
C1431 C 0.88179 0.6513 0.92568 0.0
C1432 C 0.89724 0.63481 0.94586 0.0
C1433 C 0.91233 0.65289 0.9562 0.0
C1434 C 0.91101 0.66986 0.95285 0.0
C1435 C 0.8959 0.66906 0.93776 0.0
H1436 H 0.322 0.29649 0.98428 0.0
H1437 H 0.38419 0.32174 0.98907 0.0
H1438 H 0.31791 0.265 0.97051 0.0
H1439 H 0.38067 0.29103 0.97266 0.0
H1440 H 0.3735 0.23446 0.94677 0.0
H1441 H 0.37309 0.25947 0.97523 0.0
H1442 H 0.31974 0.24785 0.93688 0.0
H1443 H 0.31947 0.22197 0.91086 0.0
C1444 C 0.33485 0.29532 0.98186 0.0
C1445 C 0.35341 0.31155 0.98743 0.0
C1446 C 0.33259 0.27723 0.97379 0.0
C1447 C 0.34894 0.2751 0.96997 0.0
C1448 C 0.36755 0.29157 0.97578 0.0
C1449 C 0.3697 0.30941 0.98485 0.0
C1450 C 0.36122 0.23666 0.94558 0.0
C1451 C 0.34662 0.2264 0.92646 0.0
C1452 C 0.3612 0.25143 0.96137 0.0
C1453 C 0.3468 0.25655 0.95791 0.0
C1454 C 0.33117 0.2447 0.94059 0.0
C1455 C 0.33095 0.22969 0.92546 0.0
H1456 H 0.72081 0.02972 0.9709 0.0
H1457 H 0.70195 0.07016 0.99271 0.0
H1458 H 0.75195 0.05712 0.95615 0.0
H1459 H 0.73233 0.0976 0.97581 0.0
H1460 H 0.79011 0.14719 0.95085 0.0
H1461 H 0.76484 0.12011 0.97706 0.0
H1462 H 0.76709 0.07822 0.92322 0.0
H1463 H 0.79307 0.10516 0.89896 0.0
C1464 C 0.72326 0.04452 0.97211 0.0
C1465 C 0.70888 0.04777 0.98271 0.0
C1466 C 0.74116 0.06037 0.96349 0.0
C1467 C 0.74497 0.07992 0.96429 0.0
C1468 C 0.73044 0.08303 0.97518 0.0
C1469 C 0.71278 0.06721 0.98461 0.0
C1470 C 0.78578 0.13215 0.9456 0.0
C1471 C 0.79366 0.12828 0.92302 0.0
C1472 C 0.77089 0.11651 0.96018 0.0
C1473 C 0.76324 0.09664 0.95212 0.0
C1474 C 0.77238 0.09302 0.93063 0.0
C1475 C 0.78745 0.10857 0.91655 0.0
H1476 H 0.68484 0.97485 0.05279 0.0
H1477 H 0.63174 0.93895 0.00835 0.0
H1478 H 0.68398 0.94525 0.0678 0.0
H1479 H 0.6309 0.90911 0.02339 0.0
H1480 H 0.68672 0.89148 0.08047 0.0
H1481 H 0.68729 0.91734 0.05346 0.0
H1482 H 0.62533 0.89127 0.06561 0.0
H1483 H 0.62491 0.86548 0.09242 0.0
C1484 C 0.67301 0.96062 0.04607 0.0
C1485 C 0.65831 0.95933 0.02944 0.0
C1486 C 0.67263 0.94359 0.05448 0.0
C1487 C 0.65746 0.9247 0.04668 0.0
C1488 C 0.64279 0.92338 0.02986 0.0
C1489 C 0.64327 0.94049 0.02121 0.0
C1490 C 0.67308 0.89073 0.07618 0.0
C1491 C 0.65571 0.87626 0.08814 0.0
C1492 C 0.67344 0.90577 0.06116 0.0
C1493 C 0.65641 0.90664 0.05772 0.0
C1494 C 0.63871 0.89108 0.06767 0.0
C1495 C 0.6384 0.87614 0.08285 0.0
H1496 H 0.07391 0.7041 0.00672 0.0
H1497 H 0.03757 0.71327 0.06157 0.0
H1498 H 0.1025 0.73465 0.02228 0.0
H1499 H 0.0662 0.74382 0.07723 0.0
H1500 H 0.1163 0.80497 0.08731 0.0
H1501 H 0.09022 0.7775 0.06215 0.0
H1502 H 0.12271 0.7476 0.06305 0.0
H1503 H 0.14881 0.77526 0.08811 0.0
C1504 C 0.07201 0.71263 0.02213 0.0
C1505 C 0.05344 0.70622 0.03296 0.0
C1506 C 0.08843 0.73014 0.03105 0.0
C1507 C 0.08666 0.74181 0.05083 0.0
C1508 C 0.06805 0.73539 0.06161 0.0
C1509 C 0.05165 0.71778 0.05284 0.0
C1510 C 0.11826 0.79296 0.08092 0.0
C1511 C 0.13471 0.79238 0.0892 0.0
C1512 C 0.10315 0.77703 0.06702 0.0
C1513 C 0.10417 0.76015 0.06109 0.0
C1514 C 0.12146 0.76038 0.06724 0.0
C1515 C 0.13656 0.77633 0.08129 0.0
H1516 H 0.3057 0.33543 0.05807 0.0
H1517 H 0.32413 0.38872 0.0139 0.0
H1518 H 0.27679 0.33563 0.07297 0.0
H1519 H 0.29499 0.38892 0.02892 0.0
H1520 H 0.21969 0.33039 0.08292 0.0
H1521 H 0.24578 0.33131 0.05626 0.0
H1522 H 0.28205 0.39383 0.07211 0.0
H1523 H 0.25578 0.39278 0.09862 0.0
C1524 C 0.30355 0.34718 0.05145 0.0
C1525 C 0.31728 0.36209 0.03485 0.0
C1526 C 0.28684 0.34718 0.05978 0.0
C1527 C 0.28343 0.36218 0.05192 0.0
C1528 C 0.29718 0.37716 0.03532 0.0
C1529 C 0.31385 0.37703 0.02672 0.0
C1530 C 0.23287 0.34448 0.07953 0.0
C1531 C 0.23561 0.36158 0.09237 0.0
C1532 C 0.24796 0.34497 0.06468 0.0
C1533 C 0.26615 0.36257 0.06247 0.0
C1534 C 0.26822 0.38005 0.0733 0.0
C1535 C 0.25312 0.37953 0.08827 0.0
H1536 H 0.71241 0.66967 0.3895 0.0
H1537 H 0.74849 0.72183 0.3433 0.0
H1538 H 0.74134 0.67005 0.40508 0.0
H1539 H 0.77768 0.72216 0.35888 0.0
H1540 H 0.82117 0.72936 0.42816 0.0
H1541 H 0.7956 0.72867 0.40096 0.0
H1542 H 0.76821 0.66544 0.39229 0.0
H1543 H 0.79384 0.66629 0.41979 0.0
C1544 C 0.72654 0.68117 0.38248 0.0
C1545 C 0.72808 0.69579 0.36524 0.0
C1546 C 0.74318 0.68127 0.39123 0.0
C1547 C 0.76193 0.69606 0.38314 0.0
C1548 C 0.7635 0.71058 0.3656 0.0
C1549 C 0.74676 0.71038 0.35664 0.0
C1550 C 0.81016 0.71547 0.41937 0.0
C1551 C 0.80966 0.69793 0.4257 0.0
C1552 C 0.7954 0.71502 0.40391 0.0
C1553 C 0.77962 0.69696 0.3947 0.0
C1554 C 0.77997 0.67958 0.39937 0.0
C1555 C 0.79483 0.68007 0.41472 0.0
H1556 H 0.35822 0.04374 0.40105 0.0
H1557 H 0.31908 0.03982 0.33933 0.0
H1558 H 0.36098 0.07427 0.4173 0.0
H1559 H 0.32223 0.07063 0.35504 0.0
H1560 H 0.31272 0.10995 0.41657 0.0
H1561 H 0.31244 0.08327 0.3913 0.0
H1562 H 0.37374 0.10837 0.40829 0.0
H1563 H 0.37365 0.13463 0.43424 0.0
C1564 C 0.35031 0.04947 0.39084 0.0
C1565 C 0.33836 0.03928 0.369 0.0
C1566 C 0.35205 0.06713 0.39996 0.0
C1567 C 0.34194 0.07511 0.38739 0.0
C1568 C 0.3301 0.06492 0.36539 0.0
C1569 C 0.32832 0.04723 0.35634 0.0
C1570 C 0.32631 0.11023 0.41379 0.0
C1571 C 0.34325 0.12446 0.42703 0.0
C1572 C 0.32615 0.09482 0.39952 0.0
C1573 C 0.34298 0.09335 0.39819 0.0
C1574 C 0.36039 0.10871 0.40942 0.0
C1575 C 0.36048 0.12401 0.42381 0.0
H1576 H 0.97944 0.31892 0.40139 0.0
H1577 H 0.98369 0.28237 0.34062 0.0
H1578 H 0.94923 0.29046 0.41732 0.0
H1579 H 0.95331 0.254 0.35615 0.0
H1580 H 0.88895 0.24041 0.4322 0.0
H1581 H 0.91519 0.2675 0.40707 0.0
H1582 H 0.94156 0.23221 0.39363 0.0
H1583 H 0.91514 0.20522 0.41834 0.0
C1584 C 0.97388 0.30483 0.39135 0.0
C1585 C 0.98406 0.30292 0.36984 0.0
C1586 C 0.95641 0.28852 0.40029 0.0
C1587 C 0.94868 0.26986 0.38795 0.0
C1588 C 0.95885 0.26804 0.3663 0.0
C1589 C 0.97629 0.28434 0.35737 0.0
C1590 C 0.89986 0.23818 0.42269 0.0
C1591 C 0.8998 0.22058 0.42664 0.0
C1592 C 0.91514 0.25382 0.40879 0.0
C1593 C 0.93074 0.25223 0.39866 0.0
C1594 C 0.92979 0.234 0.40091 0.0
C1595 C 0.91454 0.21841 0.41486 0.0
H1596 H 0.06155 0.41163 0.32502 0.0
H1597 H 0.99904 0.37441 0.31949 0.0
H1598 H 0.05956 0.43932 0.30777 0.0
H1599 H 0.99665 0.40217 0.30448 0.0
H1600 H 1.00103 0.44529 0.24134 0.0
H1601 H 1.00057 0.41978 0.26791 0.0
H1602 H 0.05236 0.46399 0.30937 0.0
H1603 H 0.05328 0.48942 0.28097 0.0
C1604 C 0.04734 0.40951 0.32062 0.0
C1605 C 0.0305 0.39079 0.32317 0.0
C1606 C 0.04611 0.42547 0.31092 0.0
C1607 C 0.02791 0.42321 0.3042 0.0
C1608 C 1.01102 0.4046 0.30838 0.0
C1609 C 1.01234 0.3886 0.31724 0.0
C1610 C 1.01187 0.44962 0.25687 0.0
C1611 C 0.02703 0.46937 0.25929 0.0
C1612 C 1.01171 0.43491 0.27223 0.0
C1613 C 0.0266 0.4395 0.29089 0.0
C1614 C 0.04089 0.45962 0.29485 0.0
C1615 C 0.0412 0.47436 0.27904 0.0
H1616 H 0.65486 0.63954 0.29163 0.0
H1617 H 0.6188 0.64854 0.34722 0.0
H1618 H 0.62628 0.60909 0.27603 0.0
H1619 H 0.59012 0.6179 0.33169 0.0
H1620 H 0.57682 0.54836 0.26448 0.0
H1621 H 0.60263 0.57547 0.29043 0.0
H1622 H 0.56967 0.6049 0.29113 0.0
H1623 H 0.54378 0.57752 0.26541 0.0
C1624 C 0.64084 0.63499 0.30058 0.0
C1625 C 0.63912 0.6465 0.32063 0.0
C1626 C 0.62445 0.6174 0.29183 0.0
C1627 C 0.60589 0.61089 0.30281 0.0
C1628 C 0.60417 0.62248 0.32279 0.0
C1629 C 0.62061 0.64002 0.33169 0.0
C1630 C 0.57471 0.56018 0.27134 0.0
C1631 C 0.5582 0.56073 0.26336 0.0
C1632 C 0.58964 0.5759 0.28575 0.0
C1633 C 0.58843 0.59258 0.29237 0.0
C1634 C 0.57108 0.59228 0.28644 0.0
C1635 C 0.55612 0.57651 0.27196 0.0
H1636 H 0.36852 0.96255 0.34007 0.0
H1637 H 0.38728 0.01679 0.2981 0.0
H1638 H 0.3975 0.9624 0.32417 0.0
H1639 H 0.41601 0.01663 0.28234 0.0
H1640 H 0.47275 0.02137 0.27031 0.0
H1641 H 0.44697 0.02032 0.29787 0.0
H1642 H 0.4101 0.95811 0.28037 0.0
H1643 H 0.43607 0.9593 0.25298 0.0
C1644 C 0.37885 0.97447 0.32758 0.0
C1645 C 0.37554 0.98965 0.32029 0.0
C1646 C 0.39543 0.97437 0.31846 0.0
C1647 C 0.40921 0.9896 0.30219 0.0
C1648 C 0.40594 1.00487 0.29525 0.0
C1649 C 0.38933 1.00485 0.30408 0.0
C1650 C 0.4595 1.0073 0.2735 0.0
C1651 C 0.45651 0.99034 0.25998 0.0
C1652 C 0.44459 1.00674 0.28887 0.0
C1653 C 0.42632 0.9892 0.29095 0.0
C1654 C 0.42399 0.97183 0.27933 0.0
C1655 C 0.43892 0.97244 0.26383 0.0
H1656 H 0.64751 0.01545 0.29314 0.0
H1657 H 0.61088 0.96519 0.34221 0.0
H1658 H 0.61886 0.01543 0.27706 0.0
H1659 H 0.58203 0.96531 0.3263 0.0
H1660 H 0.53752 0.95703 0.25859 0.0
H1661 H 0.56327 0.95787 0.28548 0.0
H1662 H 0.593 0.02153 0.28861 0.0
H1663 H 0.56721 0.0205 0.26128 0.0
C1664 C 0.63333 1.00445 0.30066 0.0
C1665 C 0.63154 0.99025 0.31888 0.0
C1666 C 0.61685 1.00457 0.29163 0.0
C1667 C 0.59803 0.99046 0.30047 0.0
C1668 C 0.59625 0.97634 0.31893 0.0
C1669 C 0.6128 0.97628 0.32809 0.0
C1670 C 0.54911 0.97112 0.26612 0.0
C1671 C 0.55019 0.98867 0.25828 0.0
C1672 C 0.56399 0.97165 0.28138 0.0
C1673 C 0.58045 0.98979 0.28893 0.0
C1674 C 0.58073 1.0073 0.28279 0.0
C1675 C 0.56578 1.00674 0.26757 0.0
H1676 H 0.04559 0.64911 0.34294 0.0
H1677 H 1.00098 0.63975 0.28665 0.0
H1678 H 0.04418 0.61912 0.32699 0.0
H1679 H 0.99972 0.60987 0.27045 0.0
H1680 H 0.98977 0.54984 0.25763 0.0
H1681 H 0.98992 0.57633 0.28331 0.0
H1682 H 0.05284 0.60709 0.28731 0.0
H1683 H 0.05249 0.58032 0.26193 0.0
C1684 C 0.03548 0.64066 0.32712 0.0
C1685 C 0.02341 0.64685 0.31601 0.0
C1686 C 0.03471 0.62347 0.31796 0.0
C1687 C 0.02175 0.61196 0.29757 0.0
C1688 C 1.00962 0.61815 0.28654 0.0
C1689 C 1.01046 0.63539 0.29563 0.0
C1690 C 1.00353 0.56184 0.26513 0.0
C1691 C 0.02109 0.56292 0.2582 0.0
C1692 C 1.00367 0.57721 0.27937 0.0
C1693 C 0.02141 0.59407 0.28688 0.0
C1694 C 0.0389 0.59432 0.28193 0.0
C1695 C 0.03873 0.5789 0.26764 0.0
H1696 H 0.37965 0.36568 0.2849 0.0
H1697 H 0.37526 0.40088 0.34758 0.0
H1698 H 0.40982 0.39452 0.26965 0.0
H1699 H 0.40563 0.42961 0.3328 0.0
H1700 H 0.44375 0.47998 0.2727 0.0
H1701 H 0.4176 0.45241 0.29691 0.0
H1702 H 0.44369 0.41739 0.27918 0.0
H1703 H 0.4696 0.44504 0.25446 0.0
C1704 C 0.38519 0.37955 0.29554 0.0
C1705 C 0.37494 0.38096 0.31735 0.0
C1706 C 0.40264 0.39609 0.28698 0.0
C1707 C 0.41035 0.4145 0.30004 0.0
C1708 C 0.40013 0.4158 0.32206 0.0
C1709 C 0.38269 0.39927 0.33057 0.0
C1710 C 0.44439 0.46672 0.27517 0.0
C1711 C 0.45894 0.46481 0.26224 0.0
C1712 C 0.42926 0.45077 0.28882 0.0
C1713 C 0.42825 0.43244 0.28969 0.0
C1714 C 0.44374 0.43111 0.27852 0.0
C1715 C 0.45886 0.44709 0.26487 0.0
H1716 H 0.3517 0.30704 0.38495 0.0
H1717 H 0.29828 0.27084 0.34131 0.0
H1718 H 0.35106 0.27756 0.4 0.0
H1719 H 0.29763 0.2411 0.35646 0.0
H1720 H 0.29259 0.19821 0.42638 0.0
H1721 H 0.29254 0.22362 0.3992 0.0
H1722 H 0.3543 0.24957 0.38536 0.0
H1723 H 0.3542 0.2241 0.41269 0.0
C1724 C 0.33984 0.29277 0.37841 0.0
C1725 C 0.32499 0.29136 0.36199 0.0
C1726 C 0.33958 0.2758 0.38684 0.0
C1727 C 0.32438 0.25686 0.3793 0.0
C1728 C 0.30955 0.25542 0.3627 0.0
C1729 C 0.30993 0.27247 0.35399 0.0
C1730 C 0.30591 0.20873 0.41633 0.0
C1731 C 0.32332 0.20894 0.42125 0.0
C1732 C 0.30595 0.22345 0.40095 0.0
C1733 C 0.32349 0.2389 0.39043 0.0
C1734 C 0.34058 0.23809 0.39348 0.0
C1735 C 0.34048 0.22326 0.4087 0.0
H1736 H 0.70287 0.04684 0.39525 0.0
H1737 H 0.73971 0.03673 0.34258 0.0
H1738 H 0.73136 0.07765 0.41054 0.0
H1739 H 0.76815 0.06755 0.35773 0.0
H1740 H 0.81376 0.10909 0.42358 0.0
H1741 H 0.78796 0.08115 0.39859 0.0
H1742 H 0.75551 0.11102 0.39487 0.0
H1743 H 0.78129 0.13877 0.42003 0.0
C1744 C 0.71703 0.0512 0.38693 0.0
C1745 C 0.719 0.0393 0.36778 0.0
C1746 C 0.73335 0.06896 0.39546 0.0
C1747 C 0.75205 0.07518 0.38516 0.0
C1748 C 0.754 0.06319 0.36612 0.0
C1749 C 0.73767 0.04552 0.35744 0.0
C1750 C 0.8016 0.11007 0.41615 0.0
C1751 C 0.79964 0.12618 0.42331 0.0
C1752 C 0.78667 0.09398 0.40213 0.0
C1753 C 0.76946 0.09367 0.39524 0.0
C1754 C 0.76839 0.11062 0.40034 0.0
C1755 C 0.78332 0.12669 0.41424 0.0
H1756 H 0.99038 0.72164 0.34328 0.0
H1757 H 0.97238 0.66808 0.38657 0.0
H1758 H 0.96116 0.72149 0.35874 0.0
H1759 H 0.9434 0.66794 0.40192 0.0
H1760 H 0.88631 0.6625 0.41347 0.0
H1761 H 0.91224 0.66357 0.38623 0.0
H1762 H 0.94839 0.72612 0.40204 0.0
H1763 H 0.92228 0.72491 0.42909 0.0
C1764 C 0.98016 0.70979 0.35597 0.0
C1765 C 0.98375 0.6949 0.36375 0.0
C1766 C 0.96344 0.70973 0.36484 0.0
C1767 C 0.94981 0.6946 0.38136 0.0
C1768 C 0.95335 0.67961 0.3888 0.0
C1769 C 0.9701 0.67979 0.3802 0.0
C1770 C 0.89942 0.67663 0.40995 0.0
C1771 C 0.90217 0.69369 0.42292 0.0
C1772 C 0.91442 0.67721 0.39477 0.0
C1773 C 0.93255 0.69487 0.39235 0.0
C1774 C 0.93462 0.7123 0.40336 0.0
C1775 C 0.9196 0.71168 0.41865 0.0
H1776 H 0.37764 1.00259 0.72508 0.0
H1777 H 0.41303 0.05379 0.6769 0.0
H1778 H 0.40676 1.00319 0.74019 0.0
H1779 H 0.44242 0.05426 0.69185 0.0
H1780 H 0.48752 0.06293 0.75903 0.0
H1781 H 0.4615 0.06164 0.73229 0.0
H1782 H 0.43309 0.99809 0.72809 0.0
H1783 H 0.45913 0.99957 0.75532 0.0
C1784 C 0.39166 0.01392 0.71751 0.0
C1785 C 0.39295 0.02822 0.69987 0.0
C1786 C 0.40842 0.01413 0.72599 0.0
C1787 C 0.42706 0.02869 0.71716 0.0
C1788 C 0.42835 0.04288 0.69921 0.0
C1789 C 0.4115 0.04261 0.69059 0.0
C1790 C 0.47617 0.04878 0.75129 0.0
C1791 C 0.47551 0.03138 0.75888 0.0
C1792 C 0.46113 0.04799 0.7361 0.0
C1793 C 0.44493 0.02973 0.72834 0.0
C1794 C 0.44514 0.01241 0.7341 0.0
C1795 C 0.46024 0.01323 0.74926 0.0
H1796 H 0.98499 0.37227 0.67134 0.0
H1797 H 0.02597 0.37858 0.73178 0.0
H1798 H 0.98757 0.403 0.68642 0.0
H1799 H 0.02821 0.40899 0.74733 0.0
H1800 H 0.03967 0.46888 0.76309 0.0
H1801 H 0.03998 0.44277 0.73706 0.0
H1802 H 0.97805 0.41576 0.72313 0.0
H1803 H 0.97808 0.44228 0.74849 0.0
C1804 C 0.99453 0.3802 0.6879 0.0
C1805 C 1.00524 0.37294 0.70041 0.0
C1806 C 0.99598 0.39783 0.69658 0.0
C1807 C 1.0082 0.40865 0.71801 0.0
C1808 C 0.01897 0.40136 0.7304 0.0
C1809 C 0.01754 0.38376 0.72169 0.0
C1810 C 0.02638 0.45788 0.75328 0.0
C1811 C 1.00892 0.45773 0.75743 0.0
C1812 C 0.02642 0.44267 0.73885 0.0
C1813 C 1.00894 0.42682 0.72852 0.0
C1814 C 0.99182 0.42769 0.73066 0.0
C1815 C 0.99182 0.44301 0.74498 0.0
H1816 H 0.65712 0.6139 0.69202 0.0
H1817 H 0.63766 0.65416 0.71204 0.0
H1818 H 0.62701 0.58657 0.70989 0.0
H1819 H 0.60683 0.62684 0.72778 0.0
H1820 H 0.56759 0.58021 0.78791 0.0
H1821 H 0.59288 0.60669 0.76217 0.0
H1822 H 0.59436 0.56381 0.70946 0.0
H1823 H 0.56977 0.53724 0.73706 0.0
C1824 C 0.6462 0.61681 0.69989 0.0
C1825 C 0.64986 0.63619 0.70106 0.0
C1826 C 0.62872 0.60107 0.70989 0.0
C1827 C 0.61417 0.6042 0.72064 0.0
C1828 C 0.61769 0.62364 0.72058 0.0
C1829 C 0.63539 0.63941 0.71138 0.0
C1830 C 0.57286 0.57647 0.77025 0.0
C1831 C 0.56667 0.55667 0.76446 0.0
C1832 C 0.58752 0.59174 0.75532 0.0
C1833 C 0.59624 0.58771 0.73369 0.0
C1834 C 0.58859 0.56771 0.72638 0.0
C1835 C 0.5741 0.55237 0.74177 0.0
H1836 H 0.6738 0.70774 0.62678 0.0
H1837 H 0.72302 0.74485 0.67739 0.0
H1838 H 0.67333 0.73661 0.61159 0.0
H1839 H 0.72241 0.77391 0.66237 0.0
H1840 H 0.72999 0.81956 0.59648 0.0
H1841 H 0.72959 0.79343 0.6224 0.0
H1842 H 0.66661 0.76219 0.6239 0.0
H1843 H 0.6672 0.78836 0.59755 0.0
C1844 C 0.68448 0.72207 0.63482 0.0
C1845 C 0.69852 0.72393 0.65322 0.0
C1846 C 0.68408 0.73867 0.6263 0.0
C1847 C 0.69774 0.7577 0.63585 0.0
C1848 C 0.71172 0.75955 0.65445 0.0
C1849 C 0.71206 0.74287 0.6631 0.0
C1850 C 0.71612 0.80755 0.60347 0.0
C1851 C 0.69864 0.80618 0.59544 0.0
C1852 C 0.71585 0.79245 0.61817 0.0
C1853 C 0.69806 0.77545 0.62494 0.0
C1854 C 0.68059 0.77487 0.61866 0.0
C1855 C 0.68088 0.79005 0.60402 0.0
H1856 H 0.28401 0.97991 0.68006 0.0
H1857 H 0.32052 0.9716 0.62443 0.0
H1858 H 0.25553 0.94938 0.66415 0.0
H1859 H 0.29202 0.94111 0.60844 0.0
H1860 H 0.24236 0.88015 0.5971 0.0
H1861 H 0.26817 0.90725 0.62308 0.0
H1862 H 0.23549 0.93696 0.62307 0.0
H1863 H 0.20964 0.90965 0.59722 0.0
C1864 C 0.28597 0.97157 0.66442 0.0
C1865 C 0.30454 0.97821 0.65345 0.0
C1866 C 0.26962 0.95408 0.65531 0.0
C1867 C 0.2715 0.9427 0.63521 0.0
C1868 C 0.29011 0.94933 0.62431 0.0
C1869 C 0.30643 0.9669 0.63327 0.0
C1870 C 0.24031 0.89202 0.60383 0.0
C1871 C 0.22391 0.8927 0.59557 0.0
C1872 C 0.25524 0.90773 0.61823 0.0
C1873 C 0.25409 0.92446 0.62464 0.0
C1874 C 0.23682 0.92427 0.61851 0.0
C1875 C 0.22189 0.90855 0.60398 0.0
H1876 H 0.03751 0.29753 0.67475 0.0
H1877 H 0.05477 0.35045 0.6303 0.0
H1878 H 0.06666 0.29767 0.65899 0.0
H1879 H 0.08368 0.35058 0.61466 0.0
H1880 H 0.10509 0.29375 0.58826 0.0
H1881 H 0.07912 0.29263 0.61555 0.0
H1882 H 0.11507 0.35536 0.63013 0.0
H1883 H 0.14085 0.35634 0.60266 0.0
C1884 C 0.04755 0.30923 0.66174 0.0
C1885 C 0.04377 0.32395 0.65372 0.0
C1886 C 0.06423 0.30929 0.6527 0.0
C1887 C 0.07764 0.32424 0.63577 0.0
C1888 C 0.0739 0.33905 0.62809 0.0
C1889 C 0.05719 0.33887 0.63685 0.0
C1890 C 0.10777 0.30706 0.59848 0.0
C1891 C 0.12509 0.32506 0.5938 0.0
C1892 C 0.09283 0.30649 0.6139 0.0
C1893 C 0.09487 0.32398 0.62465 0.0
C1894 C 0.1129 0.34168 0.62181 0.0
C1895 C 0.12783 0.34221 0.60649 0.0
H1896 H 0.3174 0.35875 0.64704 0.0
H1897 H 0.28141 0.29551 0.6529 0.0
H1898 H 0.28951 0.36052 0.63223 0.0
H1899 H 0.25357 0.29685 0.63579 0.0
H1900 H 0.20307 0.30222 0.60984 0.0
H1901 H 0.22884 0.3036 0.63761 0.0
H1902 H 0.27146 0.35604 0.5961 0.0
H1903 H 0.24566 0.35514 0.57023 0.0
C1904 C 0.30347 0.34515 0.64484 0.0
C1905 C 0.30166 0.32697 0.65083 0.0
C1906 C 0.28738 0.3461 0.6361 0.0
C1907 C 0.26904 0.32881 0.63209 0.0
C1908 C 0.2672 0.3106 0.6388 0.0
C1909 C 0.28324 0.30974 0.64839 0.0
C1910 C 0.21787 0.31453 0.60775 0.0
C1911 C 0.22232 0.32875 0.58818 0.0
C1912 C 0.2328 0.3151 0.6232 0.0
C1913 C 0.25257 0.32974 0.61906 0.0
C1914 C 0.25663 0.34465 0.60056 0.0
C1915 C 0.24175 0.34422 0.58558 0.0
H1916 H 0.71609 0.98626 0.67828 0.0
H1917 H 0.66708 0.9719 0.62749 0.0
H1918 H 0.71557 0.95651 0.66284 0.0
H1919 H 0.66659 0.94228 0.61204 0.0
H1920 H 0.65894 0.88312 0.6017 0.0
H1921 H 0.65954 0.90974 0.62765 0.0
H1922 H 0.72233 0.94389 0.62102 0.0
H1923 H 0.72158 0.91706 0.5952 0.0
C1924 C 0.70519 0.97675 0.66384 0.0
C1925 C 0.69164 0.98147 0.65407 0.0
C1926 C 0.70492 0.95971 0.655 0.0
C1927 C 0.69093 0.94688 0.6364 0.0
C1928 C 0.67733 0.95161 0.62676 0.0
C1929 C 0.67772 0.96871 0.63542 0.0
C1930 C 0.67291 0.89591 0.60698 0.0
C1931 C 0.69024 0.89791 0.59691 0.0
C1932 C 0.67325 0.91133 0.62138 0.0
C1933 C 0.69094 0.92913 0.62595 0.0
C1934 C 0.70845 0.93038 0.61794 0.0
C1935 C 0.70808 0.91493 0.60341 0.0
H1936 H 0.0454 0.69853 0.61743 0.0
H1937 H 0.04247 0.73457 0.68016 0.0
H1938 H 0.07541 0.72708 0.60116 0.0
H1939 H 0.07268 0.76297 0.66439 0.0
H1940 H 0.10991 0.81273 0.60341 0.0
H1941 H 0.08396 0.78535 0.6281 0.0
H1942 H 0.10949 0.74994 0.60949 0.0
H1943 H 0.13521 0.77743 0.58428 0.0
C1944 C 0.05123 0.71251 0.62786 0.0
C1945 C 0.04143 0.71427 0.64998 0.0
C1946 C 0.06859 0.72888 0.61871 0.0
C1947 C 0.07663 0.74744 0.63148 0.0
C1948 C 0.06689 0.74905 0.65384 0.0
C1949 C 0.04955 0.73271 0.66293 0.0
C1950 C 0.11046 0.79941 0.60573 0.0
C1951 C 0.12481 0.79735 0.59248 0.0
C1952 C 0.09546 0.78358 0.61967 0.0
C1953 C 0.09437 0.76522 0.62053 0.0
C1954 C 0.10962 0.7637 0.60888 0.0
C1955 C 0.12462 0.77957 0.59493 0.0
H1956 H 0.96445 0.60498 0.6752 0.0
H1957 H 0.01736 0.64076 0.72005 0.0
H1958 H 0.96366 0.57511 0.68995 0.0
H1959 H 0.01656 0.61111 0.73476 0.0
H1960 H 0.01955 0.5574 0.74671 0.0
H1961 H 0.02007 0.5834 0.72009 0.0
H1962 H 0.95803 0.55692 0.73186 0.0
H1963 H 0.95767 0.53099 0.7583 0.0
C1964 C 0.97594 0.60649 0.68811 0.0
C1965 C 0.99092 0.62531 0.69652 0.0
C1966 C 0.97549 0.58936 0.69658 0.0
C1967 C 0.99013 0.59062 0.71341 0.0
C1968 C 1.00523 0.60949 0.72143 0.0
C1969 C 1.00558 0.62655 0.71319 0.0
C1970 C 1.00589 0.5566 0.7424 0.0
C1971 C 0.98851 0.54195 0.75416 0.0
C1972 C 1.00622 0.57172 0.72761 0.0
C1973 C 0.98915 0.57252 0.7242 0.0
C1974 C 0.97144 0.5568 0.73391 0.0
C1975 C 0.97117 0.54177 0.74886 0.0
H1976 H 0.37283 0.39172 0.69785 0.0
H1977 H 0.40724 0.36422 0.70288 0.0
H1978 H 0.40082 0.42312 0.71162 0.0
H1979 H 0.4348 0.39486 0.71954 0.0
H1980 H 0.4853 0.45143 0.7453 0.0
H1981 H 0.46037 0.4257 0.71673 0.0
H1982 H 0.41878 0.44136 0.74514 0.0
H1983 H 0.44408 0.46786 0.77102 0.0
C1984 C 0.38637 0.39239 0.70255 0.0
C1985 C 0.38787 0.37558 0.69971 0.0
C1986 C 0.40253 0.41042 0.71063 0.0
C1987 C 0.42042 0.41192 0.71722 0.0
C1988 C 0.42169 0.39482 0.71423 0.0
C1989 C 0.40574 0.37702 0.70509 0.0
C1990 C 0.47105 0.44989 0.7442 0.0
C1991 C 0.46658 0.46153 0.76048 0.0
C1992 C 0.45649 0.43474 0.72839 0.0
C1993 C 0.43703 0.43061 0.7291 0.0
C1994 C 0.43331 0.4437 0.74355 0.0
C1995 C 0.44793 0.45908 0.7586 0.0
H1996 H 0.63979 1.00216 0.72547 0.0
H1997 H 0.65386 0.05242 0.6768 0.0
H1998 H 0.61045 1.00122 0.74099 0.0
H1999 H 0.62425 0.05142 0.69232 0.0
H2000 H 0.58559 0.05656 0.7611 0.0
H2001 H 0.6118 0.05767 0.73439 0.0
H2002 H 0.57832 0.99415 0.72637 0.0
H2003 H 0.55237 0.99321 0.75338 0.0
C2004 C 0.63656 0.01296 0.71795 0.0
C2005 C 0.64922 0.02739 0.69994 0.0
C2006 C 0.6196 0.01231 0.72666 0.0
C2007 C 0.61484 0.02613 0.71773 0.0
C2008 C 0.62748 0.04057 0.69963 0.0
C2009 C 0.64442 0.04112 0.69072 0.0
C2010 C 0.58349 0.04298 0.75248 0.0
C2011 C 0.56686 0.02483 0.75889 0.0
C2012 C 0.59857 0.04356 0.73737 0.0
C2013 C 0.59734 0.02596 0.72864 0.0
C2014 C 0.57991 1.00796 0.73318 0.0
C2015 C 0.56487 1.00741 0.74822 0.0
loop_
_geom_bond_atom_site_label_1
_geom_bond_atom_site_label_2
_geom_bond_distance
_geom_bond_site_symmetry_2
_ccdc_geom_bond_type
Co0 O1 2.216 . S
Co0 O2 2.091 . S
Co0 O4 2.004 1_554 S
Co0 O10 2.021 . S
Co0 O12 2.137 1_454 S
Co0 O13 2.244 1_455 S
O1 Co0 2.216 . S
O1 C8 1.247 . S
O2 Co0 2.091 . S
O2 C8 1.261 . S
C3 O12 1.247 . S
C3 O13 1.272 1_556 S
O4 Co0 2.004 1_556 S
O4 C9 1.259 1_455 S
Co5 O6 2.061 1_554 S
Co5 O11 2.052 . S
Co5 O13 2.135 . S
O6 Co5 2.061 1_556 S
O6 C9 1.235 . S
C7 O10 1.238 1_655 S
C7 O11 1.241 . S
C8 O1 1.247 . S
C8 O2 1.261 . S
C9 O4 1.259 1_655 S
C9 O6 1.235 . S
O10 Co0 2.021 . S
O10 C7 1.238 1_455 S
O11 Co5 2.052 . S
O11 C7 1.241 . S
O12 Co0 2.137 1_656 S
O12 C3 1.247 . S
O13 Co0 2.244 1_655 S
O13 C3 1.272 1_554 S
O13 Co5 2.135 . S
Co14 O15 2.216 1_554 S
Co14 O16 2.091 . S
Co14 O18 2.004 . S
Co14 O24 2.021 1_554 S
Co14 O26 2.137 . S
Co14 O27 2.244 . S
O15 Co14 2.216 1_556 S
O15 C22 1.247 . S
O16 Co14 2.091 . S
O16 C22 1.261 1_554 S
C17 O26 1.247 . S
C17 O27 1.272 . S
O18 Co14 2.004 . S
O18 C23 1.259 . S
Co19 O20 2.061 . S
Co19 O25 2.052 1_554 S
Co19 O27 2.135 . S
O20 Co19 2.061 . S
O20 C23 1.235 . S
C21 O24 1.238 . S
C21 O25 1.241 . S
C22 O15 1.247 . S
C22 O16 1.261 1_556 S
C23 O18 1.259 . S
C23 O20 1.235 . S
O24 Co14 2.021 1_556 S
O24 C21 1.238 . S
O25 Co19 2.052 1_556 S
O25 C21 1.241 . S
O26 Co14 2.137 . S
O26 C17 1.247 . S
O27 Co14 2.244 . S
O27 C17 1.272 . S
O27 Co19 2.135 . S
Co28 O29 2.216 1_554 S
Co28 O30 2.091 . S
Co28 O32 2.004 . S
Co28 O38 2.021 1_554 S
Co28 O40 2.137 1_545 S
Co28 O41 2.244 1_545 S
O29 Co28 2.216 1_556 S
O29 C36 1.247 . S
O30 Co28 2.091 . S
O30 C36 1.261 1_554 S
C31 O40 1.247 . S
C31 O41 1.272 . S
O32 Co28 2.004 . S
O32 C37 1.259 . S
Co33 O34 2.061 . S
Co33 O39 2.052 1_554 S
Co33 O41 2.135 . S
O34 Co33 2.061 . S
O34 C37 1.235 1_565 S
C35 O38 1.238 1_565 S
C35 O39 1.241 . S
C36 O29 1.247 . S
C36 O30 1.261 1_556 S
C37 O32 1.259 . S
C37 O34 1.235 1_545 S
O38 Co28 2.021 1_556 S
O38 C35 1.238 1_545 S
O39 Co33 2.052 1_556 S
O39 C35 1.241 . S
O40 Co28 2.137 1_565 S
O40 C31 1.247 . S
O41 Co28 2.244 1_565 S
O41 C31 1.272 . S
O41 Co33 2.135 . S
Co42 O43 2.216 1_554 S
Co42 O44 2.091 . S
Co42 O46 2.004 . S
Co42 O52 2.021 1_554 S
Co42 O54 2.137 1_655 S
Co42 O55 2.244 1_655 S
O43 Co42 2.216 1_556 S
O43 C50 1.247 . S
O44 Co42 2.091 . S
O44 C50 1.261 1_554 S
C45 O54 1.247 . S
C45 O55 1.272 . S
O46 Co42 2.004 . S
O46 C51 1.259 1_655 S
Co47 O48 2.061 . S
Co47 O53 2.052 1_554 S
Co47 O55 2.135 . S
O48 Co47 2.061 . S
O48 C51 1.235 . S
C49 O52 1.238 1_455 S
C49 O53 1.241 . S
C50 O43 1.247 . S
C50 O44 1.261 1_556 S
C51 O46 1.259 1_455 S
C51 O48 1.235 . S
O52 Co42 2.021 1_556 S
O52 C49 1.238 1_655 S
O53 Co47 2.052 1_556 S
O53 C49 1.241 . S
O54 Co42 2.137 1_455 S
O54 C45 1.247 . S
O55 Co42 2.244 1_455 S
O55 C45 1.272 . S
O55 Co47 2.135 . S
Co56 O57 2.216 . S
Co56 O58 2.091 . S
Co56 O60 2.004 1_554 S
Co56 O66 2.021 . S
Co56 O68 2.137 1_554 S
Co56 O69 2.244 . S
O57 Co56 2.216 . S
O57 C64 1.247 . S
O58 Co56 2.091 . S
O58 C64 1.261 . S
C59 O68 1.247 . S
C59 O69 1.272 1_556 S
O60 Co56 2.004 1_556 S
O60 C65 1.259 . S
Co61 O62 2.061 1_554 S
Co61 O67 2.052 . S
Co61 O69 2.135 . S
O62 Co61 2.061 1_556 S
O62 C65 1.235 . S
C63 O66 1.238 . S
C63 O67 1.241 . S
C64 O57 1.247 . S
C64 O58 1.261 . S
C65 O60 1.259 . S
C65 O62 1.235 . S
O66 Co56 2.021 . S
O66 C63 1.238 . S
O67 Co61 2.052 . S
O67 C63 1.241 . S
O68 Co56 2.137 1_556 S
O68 C59 1.247 . S
O69 Co56 2.244 . S
O69 C59 1.272 1_554 S
O69 Co61 2.135 . S
Co70 O71 2.216 . S
Co70 O72 2.091 . S
Co70 O74 2.004 1_554 S
Co70 O80 2.021 . S
Co70 O82 2.137 1_564 S
Co70 O83 2.244 1_565 S
O71 Co70 2.216 . S
O71 C78 1.247 . S
O72 Co70 2.091 . S
O72 C78 1.261 . S
C73 O82 1.247 . S
C73 O83 1.272 1_556 S
O74 Co70 2.004 1_556 S
O74 C79 1.259 1_565 S
Co75 O76 2.061 1_554 S
Co75 O81 2.052 . S
Co75 O83 2.135 . S
O76 Co75 2.061 1_556 S
O76 C79 1.235 . S
C77 O80 1.238 1_545 S
C77 O81 1.241 . S
C78 O71 1.247 . S
C78 O72 1.261 . S
C79 O74 1.259 1_545 S
C79 O76 1.235 . S
O80 Co70 2.021 . S
O80 C77 1.238 1_565 S
O81 Co75 2.052 . S
O81 C77 1.241 . S
O82 Co70 2.137 1_546 S
O82 C73 1.247 . S
O83 Co70 2.244 1_545 S
O83 C73 1.272 1_554 S
O83 Co75 2.135 . S
Co84 O85 2.216 . S
Co84 O86 2.091 . S
Co84 O88 2.004 . S
Co84 O94 2.021 . S
Co84 O96 2.137 . S
Co84 O97 2.244 . S
O85 Co84 2.216 . S
O85 C92 1.247 . S
O86 Co84 2.091 . S
O86 C92 1.261 . S
C87 O96 1.247 . S
C87 O97 1.272 . S
O88 Co84 2.004 . S
O88 C93 1.259 . S
Co89 O90 2.061 . S
Co89 O95 2.052 . S
Co89 O97 2.135 . S
O90 Co89 2.061 . S
O90 C93 1.235 . S
C91 O94 1.238 . S
C91 O95 1.241 . S
C92 O85 1.247 . S
C92 O86 1.261 . S
C93 O88 1.259 . S
C93 O90 1.235 . S
O94 Co84 2.021 . S
O94 C91 1.238 . S
O95 Co89 2.052 . S
O95 C91 1.241 . S
O96 Co84 2.137 . S
O96 C87 1.247 . S
O97 Co84 2.244 . S
O97 C87 1.272 . S
O97 Co89 2.135 . S
Co98 O99 2.219 . S
Co98 O100 2.091 . S
Co98 O102 2.004 . S
Co98 O108 2.021 . S
Co98 O110 2.137 1_565 S
Co98 O111 2.244 1_565 S
O99 Co98 2.219 . S
O99 C106 1.259 . S
O100 Co98 2.091 . S
O100 C106 1.261 . S
C101 O110 1.247 . S
C101 O111 1.272 . S
O102 Co98 2.004 . S
O102 C107 1.259 . S
Co103 O104 2.061 . S
Co103 O109 2.052 . S
Co103 O111 2.135 1_565 S
O104 Co103 2.061 . S
O104 C107 1.235 . S
C105 O108 1.238 . S
C105 O109 1.241 . S
C106 O99 1.259 . S
C106 O100 1.261 . S
C107 O102 1.259 . S
C107 O104 1.235 . S
O108 Co98 2.021 . S
O108 C105 1.238 . S
O109 Co103 2.052 . S
O109 C105 1.241 . S
O110 Co98 2.137 1_545 S
O110 C101 1.247 . S
O111 Co98 2.244 1_545 S
O111 C101 1.272 . S
O111 Co103 2.135 1_545 S
Co112 O113 2.216 . S
Co112 O114 2.091 . S
Co112 O116 2.004 . S
Co112 O122 2.021 . S
Co112 O124 2.137 1_455 S
Co112 O125 2.242 1_455 S
O113 Co112 2.216 . S
O113 C120 1.247 . S
O114 Co112 2.091 . S
O114 C120 1.261 . S
C115 O124 1.247 . S
C115 O125 1.286 . S
O116 Co112 2.004 . S
O116 C121 1.259 . S
Co117 O118 2.061 . S
Co117 O123 2.052 . S
Co117 O125 2.118 1_455 S
O118 Co117 2.061 . S
O118 C121 1.235 . S
C119 O122 1.238 . S
C119 O123 1.241 . S
C120 O113 1.247 . S
C120 O114 1.261 . S
C121 O116 1.259 . S
C121 O118 1.235 . S
O122 Co112 2.021 . S
O122 C119 1.238 . S
O123 Co117 2.052 . S
O123 C119 1.241 . S
O124 Co112 2.137 1_655 S
O124 C115 1.247 . S
O125 Co112 2.242 1_655 S
O125 C115 1.286 . S
O125 Co117 2.118 1_655 S
Co126 O127 2.222 . S
Co126 O128 2.091 . S
Co126 O130 2.004 . S
Co126 O136 2.021 . S
Co126 O138 2.137 1_565 S
Co126 O139 2.244 1_565 S
O127 Co126 2.222 . S
O127 C134 1.247 . S
O128 Co126 2.091 . S
O128 C134 1.261 . S
C129 O138 1.247 . S
C129 O139 1.272 . S
O130 Co126 2.004 . S
O130 C135 1.259 . S
Co131 O132 2.061 . S
Co131 O137 2.052 . S
Co131 O139 2.135 1_565 S
O132 Co131 2.061 . S
O132 C135 1.235 . S
C133 O136 1.238 . S
C133 O137 1.241 . S
C134 O127 1.247 . S
C134 O128 1.261 . S
C135 O130 1.259 . S
C135 O132 1.235 . S
O136 Co126 2.021 . S
O136 C133 1.238 . S
O137 Co131 2.052 . S
O137 C133 1.241 . S
O138 Co126 2.137 1_545 S
O138 C129 1.247 . S
O139 Co126 2.244 1_545 S
O139 C129 1.272 . S
O139 Co131 2.135 1_545 S
Co140 O141 2.216 1_455 S
Co140 O142 2.091 1_455 S
Co140 O144 2.004 . S
Co140 O150 2.021 . S
Co140 O152 2.137 1_455 S
Co140 O153 2.244 . S
O141 Co140 2.216 1_655 S
O141 C148 1.247 . S
O142 Co140 2.091 1_655 S
O142 C148 1.261 . S
C143 O152 1.247 1_455 S
C143 O153 1.272 . S
O144 Co140 2.004 . S
O144 C149 1.259 . S
Co145 O146 2.061 . S
Co145 O151 2.052 . S
Co145 O153 2.135 . S
O146 Co145 2.061 . S
O146 C149 1.235 . S
C147 O150 1.238 . S
C147 O151 1.241 . S
C148 O141 1.247 . S
C148 O142 1.261 . S
C149 O144 1.259 . S
C149 O146 1.235 . S
O150 Co140 2.021 . S
O150 C147 1.238 . S
O151 Co145 2.052 . S
O151 C147 1.241 . S
O152 Co140 2.137 1_655 S
O152 C143 1.247 1_655 S
O153 Co140 2.244 . S
O153 C143 1.272 . S
O153 Co145 2.135 . S
Co154 O155 2.216 . S
Co154 O156 2.091 . S
Co154 O158 2.004 . S
Co154 O164 2.021 . S
Co154 O166 2.137 . S
Co154 O167 2.244 . S
O155 Co154 2.216 . S
O155 C162 1.247 . S
O156 Co154 2.091 . S
O156 C162 1.261 . S
C157 O166 1.247 . S
C157 O167 1.272 . S
O158 Co154 2.004 . S
O158 C163 1.259 . S
Co159 O160 2.061 . S
Co159 O165 2.052 . S
Co159 O167 2.135 . S
O160 Co159 2.061 . S
O160 C163 1.235 . S
C161 O164 1.238 . S
C161 O165 1.241 . S
C162 O155 1.247 . S
C162 O156 1.261 . S
C163 O158 1.259 . S
C163 O160 1.235 . S
O164 Co154 2.021 . S
O164 C161 1.238 . S
O165 Co159 2.052 . S
O165 C161 1.241 . S
O166 Co154 2.137 . S
O166 C157 1.247 . S
O167 Co154 2.244 . S
O167 C157 1.272 . S
O167 Co159 2.135 . S
Co168 O169 2.216 . S
Co168 O170 2.091 . S
Co168 O172 2.004 . S
Co168 O178 2.021 . S
Co168 O180 2.137 1_545 S
Co168 O181 2.244 1_545 S
O169 Co168 2.216 . S
O169 C176 1.247 . S
O170 Co168 2.091 . S
O170 C176 1.261 . S
C171 O180 1.247 . S
C171 O181 1.272 . S
O172 Co168 2.004 . S
O172 C177 1.259 . S
Co173 O174 2.061 . S
Co173 O179 2.052 . S
Co173 O181 2.135 1_545 S
O174 Co173 2.061 . S
O174 C177 1.235 . S
C175 O178 1.238 . S
C175 O179 1.241 . S
C176 O169 1.247 . S
C176 O170 1.261 . S
C177 O172 1.259 . S
C177 O174 1.235 . S
O178 Co168 2.021 . S
O178 C175 1.238 . S
O179 Co173 2.052 . S
O179 C175 1.241 . S
O180 Co168 2.137 1_565 S
O180 C171 1.247 . S
O181 Co168 2.244 1_565 S
O181 C171 1.272 . S
O181 Co173 2.135 1_565 S
Co182 O183 2.216 1_655 S
Co182 O184 2.091 1_655 S
Co182 O186 2.004 . S
Co182 O192 2.021 . S
Co182 O194 2.137 1_655 S
Co182 O195 2.244 . S
O183 Co182 2.216 1_455 S
O183 C190 1.247 . S
O184 Co182 2.091 1_455 S
O184 C190 1.261 . S
C185 O194 1.247 1_655 S
C185 O195 1.272 . S
O186 Co182 2.004 . S
O186 C191 1.259 . S
Co187 O188 2.061 . S
Co187 O193 2.052 . S
Co187 O195 2.135 . S
O188 Co187 2.061 . S
O188 C191 1.235 . S
C189 O192 1.238 . S
C189 O193 1.241 . S
C190 O183 1.247 . S
C190 O184 1.261 . S
C191 O186 1.259 . S
C191 O188 1.235 . S
O192 Co182 2.021 . S
O192 C189 1.238 . S
O193 Co187 2.052 . S
O193 C189 1.241 . S
O194 Co182 2.137 1_455 S
O194 C185 1.247 1_455 S
O195 Co182 2.244 . S
O195 C185 1.272 . S
O195 Co187 2.135 . S
Co196 O197 2.216 . S
Co196 O198 2.091 . S
Co196 O200 2.004 . S
Co196 O206 2.021 . S
Co196 O208 2.137 . S
Co196 O209 2.244 . S
O197 Co196 2.216 . S
O197 C204 1.247 . S
O198 Co196 2.091 . S
O198 C204 1.261 . S
C199 O208 1.247 . S
C199 O209 1.272 . S
O200 Co196 2.004 . S
O200 C205 1.259 . S
Co201 O202 2.061 . S
Co201 O207 2.052 . S
Co201 O209 2.135 . S
O202 Co201 2.061 . S
O202 C205 1.235 . S
C203 O206 1.238 . S
C203 O207 1.241 . S
C204 O197 1.247 . S
C204 O198 1.261 . S
C205 O200 1.259 . S
C205 O202 1.235 . S
O206 Co196 2.021 . S
O206 C203 1.238 . S
O207 Co201 2.052 . S
O207 C203 1.241 . S
O208 Co196 2.137 . S
O208 C199 1.247 . S
O209 Co196 2.244 . S
O209 C199 1.272 . S
O209 Co201 2.135 . S
Co210 O211 2.216 . S
Co210 O212 2.091 . S
Co210 O214 2.004 . S
Co210 O220 2.021 . S
Co210 O222 2.137 . S
Co210 O223 2.244 . S
O211 Co210 2.216 . S
O211 C218 1.247 . S
O212 Co210 2.091 . S
O212 C218 1.261 . S
C213 O222 1.247 . S
C213 O223 1.272 . S
O214 Co210 2.004 . S
O214 C219 1.259 . S
Co215 O216 2.061 . S
Co215 O221 2.052 . S
Co215 O223 2.135 . S
O216 Co215 2.061 . S
O216 C219 1.235 . S
C217 O220 1.238 . S
C217 O221 1.241 . S
C218 O211 1.247 . S
C218 O212 1.261 . S
C219 O214 1.259 . S
C219 O216 1.235 . S
O220 Co210 2.021 . S
O220 C217 1.238 . S
O221 Co215 2.052 . S
O221 C217 1.241 . S
O222 Co210 2.137 . S
O222 C213 1.247 . S
O223 Co210 2.244 . S
O223 C213 1.272 . S
O223 Co215 2.135 . S
Co224 O225 2.216 . S
Co224 O226 2.091 . S
Co224 O228 2.004 . S
Co224 O234 2.021 . S
Co224 O236 2.137 1_545 S
Co224 O237 2.244 1_545 S
O225 Co224 2.216 . S
O225 C232 1.247 . S
O226 Co224 2.091 . S
O226 C232 1.261 . S
C227 O236 1.247 . S
C227 O237 1.272 . S
O228 Co224 2.004 . S
O228 C233 1.259 . S
Co229 O230 2.061 . S
Co229 O235 2.052 . S
Co229 O237 2.135 1_545 S
O230 Co229 2.061 . S
O230 C233 1.235 . S
C231 O234 1.238 . S
C231 O235 1.241 . S
C232 O225 1.247 . S
C232 O226 1.261 . S
C233 O228 1.259 . S
C233 O230 1.235 . S
O234 Co224 2.021 . S
O234 C231 1.238 . S
O235 Co229 2.052 . S
O235 C231 1.241 . S
O236 Co224 2.137 1_565 S
O236 C227 1.247 . S
O237 Co224 2.244 1_565 S
O237 C227 1.272 . S
O237 Co229 2.135 1_565 S
Co238 O239 2.216 . S
Co238 O240 2.091 . S
Co238 O242 2.004 . S
Co238 O248 2.021 . S
Co238 O250 2.137 1_655 S
Co238 O251 2.243 1_655 S
O239 Co238 2.216 . S
O239 C246 1.247 . S
O240 Co238 2.091 . S
O240 C246 1.261 . S
C241 O250 1.247 . S
C241 O251 1.275 . S
O242 Co238 2.004 . S
O242 C247 1.259 . S
Co243 O244 2.061 . S
Co243 O249 2.052 . S
Co243 O251 2.130 1_655 S
O244 Co243 2.061 . S
O244 C247 1.235 . S
C245 O248 1.238 . S
C245 O249 1.241 . S
C246 O239 1.247 . S
C246 O240 1.261 . S
C247 O242 1.259 . S
C247 O244 1.235 . S
O248 Co238 2.021 . S
O248 C245 1.238 . S
O249 Co243 2.052 . S
O249 C245 1.241 . S
O250 Co238 2.137 1_455 S
O250 C241 1.247 . S
O251 Co238 2.243 1_455 S
O251 C241 1.275 . S
O251 Co243 2.130 1_455 S
H252 C258 0.930 . S
H253 C261 0.931 . S
H254 C263 0.931 . S
H255 C265 0.930 . S
H256 C267 0.930 . S
H257 C269 0.931 . S
C258 H252 0.930 . S
C258 C259 1.380 . S
C258 C260 1.394 . S
C259 C258 1.380 . S
C259 C263 1.382 . S
C260 C258 1.394 . S
C260 C261 1.400 . S
C261 H253 0.931 . S
C261 C260 1.400 . S
C261 C262 1.375 . S
C262 C261 1.375 . S
C262 C263 1.415 . S
C262 C264 1.501 . S
C263 H254 0.931 . S
C263 C259 1.382 . S
C263 C262 1.415 . S
C264 C262 1.501 . S
C264 C265 1.384 . S
C264 C269 1.408 . S
C265 H255 0.930 . S
C265 C264 1.384 . S
C265 C266 1.389 . S
C266 C265 1.389 . S
C266 C267 1.405 . S
C267 H256 0.930 . S
C267 C266 1.405 . S
C267 C268 1.364 . S
C268 C267 1.364 . S
C268 C269 1.400 . S
C269 H257 0.931 . S
C269 C264 1.408 . S
C269 C268 1.400 . S
H270 C276 0.930 . S
H271 C279 0.931 . S
H272 C281 0.931 . S
H273 C283 0.930 . S
H274 C285 0.930 . S
H275 C287 0.931 . S
C276 H270 0.930 . S
C276 C277 1.380 . S
C276 C278 1.394 . S
C277 C276 1.380 . S
C277 C281 1.382 . S
C278 C276 1.394 . S
C278 C279 1.400 . S
C279 H271 0.931 . S
C279 C278 1.400 . S
C279 C280 1.375 . S
C280 C279 1.375 . S
C280 C281 1.415 . S
C280 C282 1.501 . S
C281 H272 0.931 . S
C281 C277 1.382 . S
C281 C280 1.415 . S
C282 C280 1.501 . S
C282 C283 1.384 . S
C282 C287 1.408 . S
C283 H273 0.930 . S
C283 C282 1.384 . S
C283 C284 1.389 . S
C284 C283 1.389 . S
C284 C285 1.405 . S
C285 H274 0.930 . S
C285 C284 1.405 . S
C285 C286 1.364 . S
C286 C285 1.364 . S
C286 C287 1.400 . S
C287 H275 0.931 . S
C287 C282 1.408 . S
C287 C286 1.400 . S
H288 C294 0.930 . S
H289 C297 0.931 . S
H290 C299 0.931 . S
H291 C301 0.930 . S
H292 C303 0.930 . S
H293 C305 0.931 . S
C294 H288 0.930 . S
C294 C295 1.380 . S
C294 C296 1.394 . S
C295 C294 1.380 . S
C295 C299 1.382 . S
C296 C294 1.394 . S
C296 C297 1.400 . S
C297 H289 0.931 . S
C297 C296 1.400 . S
C297 C298 1.375 . S
C298 C297 1.375 . S
C298 C299 1.415 . S
C298 C300 1.501 . S
C299 H290 0.931 . S
C299 C295 1.382 . S
C299 C298 1.415 . S
C300 C298 1.501 . S
C300 C301 1.384 . S
C300 C305 1.408 . S
C301 H291 0.930 . S
C301 C300 1.384 . S
C301 C302 1.389 . S
C302 C301 1.389 . S
C302 C303 1.405 . S
C303 H292 0.930 . S
C303 C302 1.405 . S
C303 C304 1.364 . S
C304 C303 1.364 . S
C304 C305 1.400 . S
C305 H293 0.931 . S
C305 C300 1.408 . S
C305 C304 1.400 . S
H306 C312 0.930 . S
H307 C315 0.931 . S
H308 C317 0.931 . S
H309 C319 0.930 . S
H310 C321 0.930 . S
H311 C323 0.931 . S
C312 H306 0.930 . S
C312 C313 1.380 . S
C312 C314 1.394 . S
C313 C312 1.380 . S
C313 C317 1.382 . S
C314 C312 1.394 . S
C314 C315 1.400 . S
C315 H307 0.931 . S
C315 C314 1.400 . S
C315 C316 1.375 . S
C316 C315 1.375 . S
C316 C317 1.415 . S
C316 C318 1.501 . S
C317 H308 0.931 . S
C317 C313 1.382 . S
C317 C316 1.415 . S
C318 C316 1.501 . S
C318 C319 1.384 . S
C318 C323 1.408 . S
C319 H309 0.930 . S
C319 C318 1.384 . S
C319 C320 1.389 . S
C320 C319 1.389 . S
C320 C321 1.405 . S
C321 H310 0.930 . S
C321 C320 1.405 . S
C321 C322 1.364 . S
C322 C321 1.364 . S
C322 C323 1.400 . S
C323 H311 0.931 . S
C323 C318 1.408 . S
C323 C322 1.400 . S
H324 C330 0.930 . S
H325 C333 0.931 . S
H326 C335 0.931 . S
H327 C337 0.930 . S
H328 C339 0.930 . S
H329 C341 0.931 . S
C330 H324 0.930 . S
C330 C331 1.380 . S
C330 C332 1.394 . S
C331 C330 1.380 . S
C331 C335 1.382 . S
C332 C330 1.394 . S
C332 C333 1.400 . S
C333 H325 0.931 . S
C333 C332 1.400 . S
C333 C334 1.375 . S
C334 C333 1.375 . S
C334 C335 1.415 . S
C334 C336 1.501 . S
C335 H326 0.931 . S
C335 C331 1.382 . S
C335 C334 1.415 . S
C336 C334 1.501 . S
C336 C337 1.384 . S
C336 C341 1.408 . S
C337 H327 0.930 . S
C337 C336 1.384 . S
C337 C338 1.389 . S
C338 C337 1.389 . S
C338 C339 1.405 . S
C339 H328 0.930 . S
C339 C338 1.405 . S
C339 C340 1.364 . S
C340 C339 1.364 . S
C340 C341 1.400 . S
C341 H329 0.931 . S
C341 C336 1.408 . S
C341 C340 1.400 . S
H342 C348 0.930 . S
H343 C351 0.931 . S
H344 C353 0.931 . S
H345 C355 0.930 . S
H346 C357 0.930 . S
H347 C359 0.931 . S
C348 H342 0.930 . S
C348 C349 1.380 . S
C348 C350 1.394 . S
C349 C348 1.380 . S
C349 C353 1.382 . S
C350 C348 1.394 . S
C350 C351 1.400 . S
C351 H343 0.931 . S
C351 C350 1.400 . S
C351 C352 1.375 . S
C352 C351 1.375 . S
C352 C353 1.415 . S
C352 C354 1.501 . S
C353 H344 0.931 . S
C353 C349 1.382 . S
C353 C352 1.415 . S
C354 C352 1.501 . S
C354 C355 1.384 . S
C354 C359 1.408 . S
C355 H345 0.930 . S
C355 C354 1.384 . S
C355 C356 1.389 . S
C356 C355 1.389 . S
C356 C357 1.405 . S
C357 H346 0.930 . S
C357 C356 1.405 . S
C357 C358 1.364 . S
C358 C357 1.364 . S
C358 C359 1.400 . S
C359 H347 0.931 . S
C359 C354 1.408 . S
C359 C358 1.400 . S
H360 C366 0.930 . S
H361 C369 0.931 . S
H362 C371 0.931 . S
H363 C373 0.930 . S
H364 C375 0.930 . S
H365 C377 0.931 . S
C366 H360 0.930 . S
C366 C367 1.380 . S
C366 C368 1.394 . S
C367 C366 1.380 . S
C367 C371 1.382 . S
C368 C366 1.394 . S
C368 C369 1.400 . S
C369 H361 0.931 . S
C369 C368 1.400 . S
C369 C370 1.375 . S
C370 C369 1.375 . S
C370 C371 1.415 . S
C370 C372 1.501 . S
C371 H362 0.931 . S
C371 C367 1.382 . S
C371 C370 1.415 . S
C372 C370 1.501 . S
C372 C373 1.384 . S
C372 C377 1.408 . S
C373 H363 0.930 . S
C373 C372 1.384 . S
C373 C374 1.389 . S
C374 C373 1.389 . S
C374 C375 1.405 . S
C375 H364 0.930 . S
C375 C374 1.405 . S
C375 C376 1.364 . S
C376 C375 1.364 . S
C376 C377 1.400 . S
C377 H365 0.931 . S
C377 C372 1.408 . S
C377 C376 1.400 . S
H378 C384 0.930 . S
H379 C387 0.931 . S
H380 C389 0.931 . S
H381 C391 0.930 . S
H382 C393 0.930 . S
H383 C395 0.931 . S
C384 H378 0.930 . S
C384 C385 1.380 . S
C384 C386 1.394 . S
C385 C384 1.380 . S
C385 C389 1.382 . S
C386 C384 1.394 . S
C386 C387 1.400 . S
C387 H379 0.931 . S
C387 C386 1.400 . S
C387 C388 1.375 . S
C388 C387 1.375 . S
C388 C389 1.415 . S
C388 C390 1.501 . S
C389 H380 0.931 . S
C389 C385 1.382 . S
C389 C388 1.415 . S
C390 C388 1.501 . S
C390 C391 1.384 . S
C390 C395 1.408 . S
C391 H381 0.930 . S
C391 C390 1.384 . S
C391 C392 1.389 . S
C392 C391 1.389 . S
C392 C393 1.405 . S
C393 H382 0.930 . S
C393 C392 1.405 . S
C393 C394 1.364 . S
C394 C393 1.364 . S
C394 C395 1.400 . S
C395 H383 0.931 . S
C395 C390 1.408 . S
C395 C394 1.400 . S
H396 C402 0.930 . S
H397 C405 0.931 . S
H398 C407 0.931 . S
H399 C409 0.930 . S
H400 C411 0.930 . S
H401 C413 0.931 . S
C402 H396 0.930 . S
C402 C403 1.380 . S
C402 C404 1.394 . S
C403 C402 1.380 . S
C403 C407 1.382 . S
C404 C402 1.394 . S
C404 C405 1.400 . S
C405 H397 0.931 . S
C405 C404 1.400 . S
C405 C406 1.375 . S
C406 C405 1.375 . S
C406 C407 1.415 . S
C406 C408 1.501 . S
C407 H398 0.931 . S
C407 C403 1.382 . S
C407 C406 1.415 . S
C408 C406 1.501 . S
C408 C409 1.384 . S
C408 C413 1.408 . S
C409 H399 0.930 . S
C409 C408 1.384 . S
C409 C410 1.389 . S
C410 C409 1.389 . S
C410 C411 1.405 . S
C411 H400 0.930 . S
C411 C410 1.405 . S
C411 C412 1.364 . S
C412 C411 1.364 . S
C412 C413 1.400 . S
C413 H401 0.931 . S
C413 C408 1.408 . S
C413 C412 1.400 . S
H414 C420 0.930 . S
H415 C423 0.931 . S
H416 C425 0.931 . S
H417 C427 0.930 . S
H418 C429 0.930 . S
H419 C431 0.940 1_655 S
C420 H414 0.930 . S
C420 C421 1.380 . S
C420 C422 1.394 1_655 S
C421 C420 1.380 . S
C421 C425 1.382 . S
C422 C420 1.394 1_455 S
C422 C423 1.400 . S
C423 H415 0.931 . S
C423 C422 1.400 . S
C423 C424 1.375 . S
C424 C423 1.375 . S
C424 C425 1.415 1_455 S
C424 C426 1.501 . S
C425 H416 0.931 . S
C425 C421 1.382 . S
C425 C424 1.415 1_655 S
C426 C424 1.501 . S
C426 C427 1.384 . S
C426 C431 1.416 . S
C427 H417 0.930 . S
C427 C426 1.384 . S
C427 C428 1.389 . S
C428 C427 1.389 . S
C428 C429 1.405 . S
C429 H418 0.930 . S
C429 C428 1.405 . S
C429 C430 1.364 . S
C430 C429 1.364 . S
C430 C431 1.389 . S
C431 H419 0.940 1_455 S
C431 C426 1.416 . S
C431 C430 1.389 . S
H432 C438 0.930 . S
H433 C441 0.931 . S
H434 C443 0.931 . S
H435 C445 0.930 . S
H436 C447 0.930 . S
H437 C449 0.931 . S
C438 H432 0.930 . S
C438 C439 1.380 . S
C438 C440 1.394 . S
C439 C438 1.380 . S
C439 C443 1.382 . S
C440 C438 1.394 . S
C440 C441 1.400 . S
C441 H433 0.931 . S
C441 C440 1.400 . S
C441 C442 1.375 . S
C442 C441 1.375 . S
C442 C443 1.415 . S
C442 C444 1.501 . S
C443 H434 0.931 . S
C443 C439 1.382 . S
C443 C442 1.415 . S
C444 C442 1.501 . S
C444 C445 1.384 . S
C444 C449 1.408 . S
C445 H435 0.930 . S
C445 C444 1.384 . S
C445 C446 1.389 . S
C446 C445 1.389 . S
C446 C447 1.405 . S
C447 H436 0.930 . S
C447 C446 1.405 . S
C447 C448 1.364 . S
C448 C447 1.364 . S
C448 C449 1.400 . S
C449 H437 0.931 . S
C449 C444 1.408 . S
C449 C448 1.400 . S
H450 C456 0.956 . S
H451 C459 0.931 . S
H452 C461 0.931 . S
H453 C463 0.930 . S
H454 C465 0.930 . S
H455 C467 0.920 1_545 S
C456 H450 0.956 . S
C456 C457 1.375 . S
C456 C458 1.375 1_545 S
C457 C456 1.375 . S
C457 C461 1.382 . S
C458 C456 1.375 1_565 S
C458 C459 1.400 . S
C459 H451 0.931 . S
C459 C458 1.400 . S
C459 C460 1.375 . S
C460 C459 1.375 . S
C460 C461 1.415 1_565 S
C460 C462 1.501 . S
C461 H452 0.931 . S
C461 C457 1.382 . S
C461 C460 1.415 1_545 S
C462 C460 1.501 . S
C462 C463 1.384 . S
C462 C467 1.397 . S
C463 H453 0.930 . S
C463 C462 1.384 . S
C463 C464 1.389 . S
C464 C463 1.389 . S
C464 C465 1.405 . S
C465 H454 0.930 . S
C465 C464 1.405 . S
C465 C466 1.378 . S
C466 C465 1.378 . S
C466 C467 1.403 . S
C467 H455 0.920 1_565 S
C467 C462 1.397 . S
C467 C466 1.403 . S
H468 C474 0.920 . S
H469 C477 0.931 . S
H470 C479 0.926 1_545 S
H471 C481 0.930 . S
H472 C483 0.902 . S
H473 C485 0.931 . S
C474 H468 0.920 . S
C474 C475 1.381 . S
C474 C476 1.399 1_545 S
C475 C474 1.381 . S
C475 C479 1.399 1_545 S
C476 C474 1.399 1_565 S
C476 C477 1.400 . S
C477 H469 0.931 . S
C477 C476 1.400 . S
C477 C478 1.375 . S
C478 C477 1.375 . S
C478 C479 1.412 . S
C478 C480 1.501 . S
C479 H470 0.926 1_565 S
C479 C475 1.399 1_565 S
C479 C478 1.412 . S
C480 C478 1.501 . S
C480 C481 1.384 . S
C480 C485 1.408 1_565 S
C481 H471 0.930 . S
C481 C480 1.384 . S
C481 C482 1.389 . S
C482 C481 1.389 . S
C482 C483 1.430 . S
C483 H472 0.902 . S
C483 C482 1.430 . S
C483 C484 1.371 1_565 S
C484 C483 1.371 1_545 S
C484 C485 1.400 . S
C485 H473 0.931 . S
C485 C480 1.408 1_545 S
C485 C484 1.400 . S
H486 C492 0.970 . S
H487 C495 0.931 . S
H488 C497 0.933 1_655 S
H489 C499 0.930 . S
H490 C501 0.930 . S
H491 C503 0.931 . S
C492 H486 0.970 . S
C492 C493 1.376 . S
C492 C494 1.366 1_655 S
C493 C492 1.376 . S
C493 C497 1.355 1_655 S
C494 C492 1.366 1_455 S
C494 C495 1.421 . S
C495 H487 0.931 . S
C495 C494 1.421 . S
C495 C496 1.375 . S
C496 C495 1.375 . S
C496 C497 1.415 . S
C496 C498 1.501 . S
C497 H488 0.933 1_455 S
C497 C493 1.355 1_455 S
C497 C496 1.415 . S
C498 C496 1.501 . S
C498 C499 1.384 . S
C498 C503 1.408 1_455 S
C499 H489 0.930 . S
C499 C498 1.384 . S
C499 C500 1.389 . S
C500 C499 1.389 . S
C500 C501 1.405 . S
C501 H490 0.930 . S
C501 C500 1.405 . S
C501 C502 1.364 1_455 S
C502 C501 1.364 1_655 S
C502 C503 1.400 . S
C503 H491 0.931 . S
C503 C498 1.408 1_655 S
C503 C502 1.400 . S
H504 C510 0.930 . S
H505 C513 0.931 . S
H506 C515 0.931 . S
H507 C517 0.930 . S
H508 C519 0.930 . S
H509 C521 0.931 . S
C510 H504 0.930 . S
C510 C511 1.380 . S
C510 C512 1.394 . S
C511 C510 1.380 . S
C511 C515 1.382 . S
C512 C510 1.394 . S
C512 C513 1.400 . S
C513 H505 0.931 . S
C513 C512 1.400 . S
C513 C514 1.375 . S
C514 C513 1.375 . S
C514 C515 1.415 . S
C514 C516 1.501 . S
C515 H506 0.931 . S
C515 C511 1.382 . S
C515 C514 1.415 . S
C516 C514 1.501 . S
C516 C517 1.384 . S
C516 C521 1.408 . S
C517 H507 0.930 . S
C517 C516 1.384 . S
C517 C518 1.389 . S
C518 C517 1.389 . S
C518 C519 1.405 . S
C519 H508 0.930 . S
C519 C518 1.405 . S
C519 C520 1.364 . S
C520 C519 1.364 . S
C520 C521 1.400 . S
C521 H509 0.931 . S
C521 C516 1.408 . S
C521 C520 1.400 . S
H522 C528 0.930 . S
H523 C531 0.931 . S
H524 C533 0.931 . S
H525 C535 0.930 . S
H526 C537 0.930 . S
H527 C539 0.931 . S
C528 H522 0.930 . S
C528 C529 1.380 . S
C528 C530 1.394 . S
C529 C528 1.380 . S
C529 C533 1.382 . S
C530 C528 1.394 . S
C530 C531 1.400 . S
C531 H523 0.931 . S
C531 C530 1.400 . S
C531 C532 1.375 . S
C532 C531 1.375 . S
C532 C533 1.415 . S
C532 C534 1.501 . S
C533 H524 0.931 . S
C533 C529 1.382 . S
C533 C532 1.415 . S
C534 C532 1.501 . S
C534 C535 1.384 . S
C534 C539 1.408 . S
C535 H525 0.930 . S
C535 C534 1.384 . S
C535 C536 1.389 . S
C536 C535 1.389 . S
C536 C537 1.405 . S
C537 H526 0.930 . S
C537 C536 1.405 . S
C537 C538 1.364 . S
C538 C537 1.364 . S
C538 C539 1.400 . S
C539 H527 0.931 . S
C539 C534 1.408 . S
C539 C538 1.400 . S
H540 C546 0.930 . S
H541 C549 0.931 . S
H542 C551 0.931 . S
H543 C553 0.930 . S
H544 C555 0.930 . S
H545 C557 0.931 . S
C546 H540 0.930 . S
C546 C547 1.380 . S
C546 C548 1.394 . S
C547 C546 1.380 . S
C547 C551 1.382 . S
C548 C546 1.394 . S
C548 C549 1.400 . S
C549 H541 0.931 . S
C549 C548 1.400 . S
C549 C550 1.375 . S
C550 C549 1.375 . S
C550 C551 1.415 . S
C550 C552 1.501 . S
C551 H542 0.931 . S
C551 C547 1.382 . S
C551 C550 1.415 . S
C552 C550 1.501 . S
C552 C553 1.384 . S
C552 C557 1.408 . S
C553 H543 0.930 . S
C553 C552 1.384 . S
C553 C554 1.389 . S
C554 C553 1.389 . S
C554 C555 1.405 . S
C555 H544 0.930 . S
C555 C554 1.405 . S
C555 C556 1.364 . S
C556 C555 1.364 . S
C556 C557 1.400 . S
C557 H545 0.931 . S
C557 C552 1.408 . S
C557 C556 1.400 . S
H558 C564 0.930 . S
H559 C567 0.931 . S
H560 C569 0.931 . S
H561 C571 0.930 . S
H562 C573 0.930 . S
H563 C575 0.931 . S
C564 H558 0.930 . S
C564 C565 1.380 . S
C564 C566 1.394 . S
C565 C564 1.380 . S
C565 C569 1.382 . S
C566 C564 1.394 . S
C566 C567 1.400 . S
C567 H559 0.931 . S
C567 C566 1.400 . S
C567 C568 1.375 . S
C568 C567 1.375 . S
C568 C569 1.415 . S
C568 C570 1.501 . S
C569 H560 0.931 . S
C569 C565 1.382 . S
C569 C568 1.415 . S
C570 C568 1.501 . S
C570 C571 1.384 . S
C570 C575 1.408 . S
C571 H561 0.930 . S
C571 C570 1.384 . S
C571 C572 1.389 . S
C572 C571 1.389 . S
C572 C573 1.405 . S
C573 H562 0.930 . S
C573 C572 1.405 . S
C573 C574 1.364 . S
C574 C573 1.364 . S
C574 C575 1.400 . S
C575 H563 0.931 . S
C575 C570 1.408 . S
C575 C574 1.400 . S
H576 C584 0.950 . S
H577 C589 0.950 . S
H578 C586 0.950 . S
H579 C588 0.950 . S
H580 C590 0.950 . S
H581 C592 0.950 . S
H582 C594 0.950 . S
H583 C595 0.950 . S
C584 H576 0.950 . S
C584 C585 1.386 1_455 S
C584 C586 1.391 . S
C585 C584 1.386 1_655 S
C585 C589 1.393 . S
C586 H578 0.950 . S
C586 C584 1.391 . S
C586 C587 1.400 1_455 S
C587 C586 1.400 1_655 S
C587 C588 1.398 . S
C587 C593 1.491 . S
C588 H579 0.950 . S
C588 C587 1.398 . S
C588 C589 1.391 . S
C589 H577 0.950 . S
C589 C585 1.393 . S
C589 C588 1.391 . S
C590 H580 0.950 . S
C590 C591 1.386 . S
C590 C592 1.391 . S
C591 C590 1.386 . S
C591 C595 1.393 1_655 S
C592 H581 0.950 . S
C592 C590 1.391 . S
C592 C593 1.400 . S
C593 C587 1.491 . S
C593 C592 1.400 . S
C593 C594 1.398 1_655 S
C594 H582 0.950 . S
C594 C593 1.398 1_455 S
C594 C595 1.391 . S
C595 H583 0.950 . S
C595 C591 1.393 1_455 S
C595 C594 1.391 . S
H596 C604 0.950 . S
H597 C609 0.950 . S
H598 C606 0.950 . S
H599 C608 0.950 . S
H600 C610 0.950 . S
H601 C612 0.950 . S
H602 C614 0.950 . S
H603 C615 0.950 . S
C604 H596 0.950 . S
C604 C605 1.386 . S
C604 C606 1.391 . S
C605 C604 1.386 . S
C605 C609 1.393 . S
C606 H598 0.950 . S
C606 C604 1.391 . S
C606 C607 1.400 . S
C607 C606 1.400 . S
C607 C608 1.398 . S
C607 C613 1.491 . S
C608 H599 0.950 . S
C608 C607 1.398 . S
C608 C609 1.391 . S
C609 H597 0.950 . S
C609 C605 1.393 . S
C609 C608 1.391 . S
C610 H600 0.950 . S
C610 C611 1.386 . S
C610 C612 1.391 . S
C611 C610 1.386 . S
C611 C615 1.393 . S
C612 H601 0.950 . S
C612 C610 1.391 . S
C612 C613 1.400 . S
C613 C607 1.491 . S
C613 C612 1.400 . S
C613 C614 1.398 . S
C614 H602 0.950 . S
C614 C613 1.398 . S
C614 C615 1.391 . S
C615 H603 0.950 . S
C615 C611 1.393 . S
C615 C614 1.391 . S
H616 C624 0.950 . S
H617 C629 0.950 . S
H618 C626 0.950 . S
H619 C628 0.950 . S
H620 C630 0.950 . S
H621 C632 0.950 . S
H622 C634 0.950 . S
H623 C635 0.950 . S
C624 H616 0.950 . S
C624 C625 1.386 1_565 S
C624 C626 1.391 . S
C625 C624 1.386 1_545 S
C625 C629 1.393 . S
C626 H618 0.950 . S
C626 C624 1.391 . S
C626 C627 1.400 1_565 S
C627 C626 1.400 1_545 S
C627 C628 1.398 . S
C627 C633 1.491 . S
C628 H619 0.950 . S
C628 C627 1.398 . S
C628 C629 1.391 . S
C629 H617 0.950 . S
C629 C625 1.393 . S
C629 C628 1.391 . S
C630 H620 0.950 . S
C630 C631 1.386 . S
C630 C632 1.391 . S
C631 C630 1.386 . S
C631 C635 1.393 1_545 S
C632 H621 0.950 . S
C632 C630 1.391 . S
C632 C633 1.400 . S
C633 C627 1.491 . S
C633 C632 1.400 . S
C633 C634 1.398 1_545 S
C634 H622 0.950 . S
C634 C633 1.398 1_565 S
C634 C635 1.391 . S
C635 H623 0.950 . S
C635 C631 1.393 1_565 S
C635 C634 1.391 . S
H636 C644 0.950 . S
H637 C649 0.950 . S
H638 C646 0.950 . S
H639 C648 0.950 . S
H640 C650 0.950 . S
H641 C652 0.950 . S
H642 C654 0.950 . S
H643 C655 0.950 . S
C644 H636 0.950 . S
C644 C645 1.372 1_565 S
C644 C646 1.391 . S
C645 C644 1.372 1_545 S
C645 C649 1.389 . S
C646 H638 0.950 . S
C646 C644 1.391 . S
C646 C647 1.400 . S
C647 C646 1.400 . S
C647 C648 1.398 1_565 S
C647 C653 1.491 . S
C648 H639 0.950 . S
C648 C647 1.398 1_545 S
C648 C649 1.391 . S
C649 H637 0.950 . S
C649 C645 1.389 . S
C649 C648 1.391 . S
C650 H640 0.950 . S
C650 C651 1.386 1_545 S
C650 C652 1.391 . S
C651 C650 1.386 1_565 S
C651 C655 1.393 . S
C652 H641 0.950 . S
C652 C650 1.391 . S
C652 C653 1.400 1_545 S
C653 C647 1.491 . S
C653 C652 1.400 1_565 S
C653 C654 1.398 . S
C654 H642 0.950 . S
C654 C653 1.398 . S
C654 C655 1.391 . S
C655 H643 0.950 . S
C655 C651 1.393 . S
C655 C654 1.391 . S
H656 C664 0.950 . S
H657 C669 0.950 . S
H658 C666 0.950 . S
H659 C668 0.950 . S
H660 C670 0.950 . S
H661 C672 0.950 . S
H662 C674 0.950 . S
H663 C675 0.950 . S
C664 H656 0.950 . S
C664 C665 1.386 . S
C664 C666 1.391 . S
C665 C664 1.386 . S
C665 C669 1.393 1_455 S
C666 H658 0.950 . S
C666 C664 1.391 . S
C666 C667 1.400 . S
C667 C666 1.400 . S
C667 C668 1.398 1_455 S
C667 C673 1.491 . S
C668 H659 0.950 . S
C668 C667 1.398 1_655 S
C668 C669 1.391 . S
C669 H657 0.950 . S
C669 C665 1.393 1_655 S
C669 C668 1.391 . S
C670 H660 0.950 . S
C670 C671 1.386 1_655 S
C670 C672 1.391 . S
C671 C670 1.386 1_455 S
C671 C675 1.393 . S
C672 H661 0.950 . S
C672 C670 1.391 . S
C672 C673 1.400 1_655 S
C673 C667 1.491 . S
C673 C672 1.400 1_455 S
C673 C674 1.398 . S
C674 H662 0.950 . S
C674 C673 1.398 . S
C674 C675 1.391 . S
C675 H663 0.950 . S
C675 C671 1.393 . S
C675 C674 1.391 . S
H676 C684 0.950 . S
H677 C689 0.950 . S
H678 C686 0.950 . S
H679 C688 0.950 . S
H680 C690 0.950 . S
H681 C692 0.950 . S
H682 C694 0.950 . S
H683 C695 0.950 . S
C684 H676 0.950 . S
C684 C685 1.386 . S
C684 C686 1.391 . S
C685 C684 1.386 . S
C685 C689 1.393 . S
C686 H678 0.950 . S
C686 C684 1.391 . S
C686 C687 1.400 . S
C687 C686 1.400 . S
C687 C688 1.398 . S
C687 C693 1.491 . S
C688 H679 0.950 . S
C688 C687 1.398 . S
C688 C689 1.391 . S
C689 H677 0.950 . S
C689 C685 1.393 . S
C689 C688 1.391 . S
C690 H680 0.950 . S
C690 C691 1.386 . S
C690 C692 1.391 . S
C691 C690 1.386 . S
C691 C695 1.393 . S
C692 H681 0.950 . S
C692 C690 1.391 . S
C692 C693 1.400 . S
C693 C687 1.491 . S
C693 C692 1.400 . S
C693 C694 1.398 . S
C694 H682 0.950 . S
C694 C693 1.398 . S
C694 C695 1.391 . S
C695 H683 0.950 . S
C695 C691 1.393 . S
C695 C694 1.391 . S
H696 C704 0.950 . S
H697 C709 0.950 . S
H698 C706 0.950 . S
H699 C708 0.950 . S
H700 C710 0.950 . S
H701 C712 0.950 . S
H702 C714 0.950 . S
H703 C715 0.950 . S
C704 H696 0.950 . S
C704 C705 1.386 1_655 S
C704 C706 1.391 . S
C705 C704 1.386 1_455 S
C705 C709 1.393 . S
C706 H698 0.950 . S
C706 C704 1.391 . S
C706 C707 1.381 1_655 S
C707 C706 1.381 1_455 S
C707 C708 1.396 . S
C707 C713 1.490 . S
C708 H699 0.950 . S
C708 C707 1.396 . S
C708 C709 1.391 . S
C709 H697 0.950 . S
C709 C705 1.393 . S
C709 C708 1.391 . S
C710 H700 0.950 . S
C710 C711 1.386 . S
C710 C712 1.391 . S
C711 C710 1.386 . S
C711 C715 1.395 1_455 S
C712 H701 0.950 . S
C712 C710 1.391 . S
C712 C713 1.423 . S
C713 C707 1.490 . S
C713 C712 1.423 . S
C713 C714 1.404 1_455 S
C714 H702 0.950 . S
C714 C713 1.404 1_655 S
C714 C715 1.391 . S
C715 H703 0.950 . S
C715 C711 1.395 1_655 S
C715 C714 1.391 . S
H716 C724 0.950 . S
H717 C729 0.950 . S
H718 C726 0.950 . S
H719 C728 0.950 . S
H720 C730 0.950 . S
H721 C732 0.950 . S
H722 C734 0.950 . S
H723 C735 0.950 . S
C724 H716 0.950 . S
C724 C725 1.386 . S
C724 C726 1.391 . S
C725 C724 1.386 . S
C725 C729 1.393 . S
C726 H718 0.950 . S
C726 C724 1.391 . S
C726 C727 1.400 . S
C727 C726 1.400 . S
C727 C728 1.398 . S
C727 C733 1.491 . S
C728 H719 0.950 . S
C728 C727 1.398 . S
C728 C729 1.391 . S
C729 H717 0.950 . S
C729 C725 1.393 . S
C729 C728 1.391 . S
C730 H720 0.950 . S
C730 C731 1.386 . S
C730 C732 1.391 . S
C731 C730 1.386 . S
C731 C735 1.393 . S
C732 H721 0.950 . S
C732 C730 1.391 . S
C732 C733 1.400 . S
C733 C727 1.491 . S
C733 C732 1.400 . S
C733 C734 1.398 . S
C734 H722 0.950 . S
C734 C733 1.398 . S
C734 C735 1.391 . S
C735 H723 0.950 . S
C735 C731 1.393 . S
C735 C734 1.391 . S
H736 C744 0.950 . S
H737 C749 0.950 . S
H738 C746 0.950 . S
H739 C748 0.950 . S
H740 C750 0.950 . S
H741 C752 0.950 . S
H742 C754 0.950 . S
H743 C755 0.950 . S
C744 H736 0.950 . S
C744 C745 1.386 . S
C744 C746 1.391 . S
C745 C744 1.386 . S
C745 C749 1.393 1_565 S
C746 H738 0.950 . S
C746 C744 1.391 . S
C746 C747 1.400 . S
C747 C746 1.400 . S
C747 C748 1.398 1_565 S
C747 C753 1.487 . S
C748 H739 0.950 . S
C748 C747 1.398 1_545 S
C748 C749 1.391 . S
C749 H737 0.950 . S
C749 C745 1.393 1_545 S
C749 C748 1.391 . S
C750 H740 0.950 . S
C750 C751 1.414 . S
C750 C752 1.391 . S
C751 C750 1.414 . S
C751 C755 1.335 1_545 S
C752 H741 0.950 . S
C752 C750 1.391 . S
C752 C753 1.406 1_545 S
C753 C747 1.487 . S
C753 C752 1.406 1_565 S
C753 C754 1.396 . S
C754 H742 0.950 . S
C754 C753 1.396 . S
C754 C755 1.391 . S
C755 H743 0.950 . S
C755 C751 1.335 1_565 S
C755 C754 1.391 . S
H756 C764 0.950 . S
H757 C769 0.950 . S
H758 C766 0.950 . S
H759 C768 0.950 . S
H760 C770 0.950 . S
H761 C772 0.950 . S
H762 C774 0.950 . S
H763 C775 0.950 . S
C764 H756 0.950 . S
C764 C765 1.386 . S
C764 C766 1.391 . S
C765 C764 1.386 . S
C765 C769 1.393 1_545 S
C766 H758 0.950 . S
C766 C764 1.391 . S
C766 C767 1.400 . S
C767 C766 1.400 . S
C767 C768 1.398 1_545 S
C767 C773 1.475 . S
C768 H759 0.950 . S
C768 C767 1.398 1_565 S
C768 C769 1.391 . S
C769 H757 0.950 . S
C769 C765 1.393 1_565 S
C769 C768 1.391 . S
C770 H760 0.950 . S
C770 C771 1.418 . S
C770 C772 1.391 . S
C771 C770 1.418 . S
C771 C775 1.379 1_565 S
C772 H761 0.950 . S
C772 C770 1.391 . S
C772 C773 1.386 1_565 S
C773 C767 1.475 . S
C773 C772 1.386 1_545 S
C773 C774 1.431 . S
C774 H762 0.950 . S
C774 C773 1.431 . S
C774 C775 1.391 . S
C775 H763 0.950 . S
C775 C771 1.379 1_545 S
C775 C774 1.391 . S
H776 C784 0.950 . S
H777 C789 0.950 . S
H778 C786 0.950 . S
H779 C788 0.950 . S
H780 C790 0.950 . S
H781 C792 0.950 . S
H782 C794 0.950 . S
H783 C795 0.950 . S
C784 H776 0.950 . S
C784 C785 1.329 1_455 S
C784 C786 1.391 . S
C785 C784 1.329 1_655 S
C785 C789 1.424 . S
C786 H778 0.950 . S
C786 C784 1.391 . S
C786 C787 1.388 1_455 S
C787 C786 1.388 1_655 S
C787 C788 1.422 . S
C787 C793 1.496 . S
C788 H779 0.950 . S
C788 C787 1.422 . S
C788 C789 1.391 . S
C789 H777 0.950 . S
C789 C785 1.424 . S
C789 C788 1.391 . S
C790 H780 0.950 . S
C790 C791 1.390 . S
C790 C792 1.391 . S
C791 C790 1.390 . S
C791 C795 1.391 1_655 S
C792 H781 0.950 . S
C792 C790 1.391 . S
C792 C793 1.420 . S
C793 C787 1.496 . S
C793 C792 1.420 . S
C793 C794 1.363 1_655 S
C794 H782 0.950 . S
C794 C793 1.363 1_455 S
C794 C795 1.391 . S
C795 H783 0.950 . S
C795 C791 1.391 1_455 S
C795 C794 1.391 . S
H796 C804 0.950 . S
H797 C809 0.950 . S
H798 C806 0.950 . S
H799 C808 0.950 . S
H800 C810 0.950 . S
H801 C812 0.950 . S
H802 C814 0.950 . S
H803 C815 0.950 . S
C804 H796 0.950 . S
C804 C805 1.386 . S
C804 C806 1.391 . S
C805 C804 1.386 . S
C805 C809 1.393 . S
C806 H798 0.950 . S
C806 C804 1.391 . S
C806 C807 1.400 . S
C807 C806 1.400 . S
C807 C808 1.398 . S
C807 C813 1.491 . S
C808 H799 0.950 . S
C808 C807 1.398 . S
C808 C809 1.391 . S
C809 H797 0.950 . S
C809 C805 1.393 . S
C809 C808 1.391 . S
C810 H800 0.950 . S
C810 C811 1.386 . S
C810 C812 1.391 . S
C811 C810 1.386 . S
C811 C815 1.393 . S
C812 H801 0.950 . S
C812 C810 1.391 . S
C812 C813 1.400 . S
C813 C807 1.491 . S
C813 C812 1.400 . S
C813 C814 1.398 . S
C814 H802 0.950 . S
C814 C813 1.398 . S
C814 C815 1.391 . S
C815 H803 0.950 . S
C815 C811 1.393 . S
C815 C814 1.391 . S
H816 C824 0.950 . S
H817 C829 0.950 . S
H818 C826 0.950 . S
H819 C828 0.950 . S
H820 C830 0.950 . S
H821 C832 0.950 . S
H822 C834 0.950 . S
H823 C835 0.950 . S
C824 H816 0.950 . S
C824 C825 1.386 . S
C824 C826 1.391 . S
C825 C824 1.386 . S
C825 C829 1.393 . S
C826 H818 0.950 . S
C826 C824 1.391 . S
C826 C827 1.400 . S
C827 C826 1.400 . S
C827 C828 1.398 . S
C827 C833 1.491 . S
C828 H819 0.950 . S
C828 C827 1.398 . S
C828 C829 1.391 . S
C829 H817 0.950 . S
C829 C825 1.393 . S
C829 C828 1.391 . S
C830 H820 0.950 . S
C830 C831 1.386 . S
C830 C832 1.391 . S
C831 C830 1.386 . S
C831 C835 1.393 . S
C832 H821 0.950 . S
C832 C830 1.391 . S
C832 C833 1.400 . S
C833 C827 1.491 . S
C833 C832 1.400 . S
C833 C834 1.398 . S
C834 H822 0.950 . S
C834 C833 1.398 . S
C834 C835 1.391 . S
C835 H823 0.950 . S
C835 C831 1.393 . S
C835 C834 1.391 . S
H836 C844 0.950 . S
H837 C849 0.950 . S
H838 C846 0.950 . S
H839 C848 0.950 . S
H840 C850 0.950 . S
H841 C852 0.950 . S
H842 C854 0.950 . S
H843 C855 0.950 . S
C844 H836 0.950 . S
C844 C845 1.386 . S
C844 C846 1.391 . S
C845 C844 1.386 . S
C845 C849 1.393 . S
C846 H838 0.950 . S
C846 C844 1.391 . S
C846 C847 1.400 . S
C847 C846 1.400 . S
C847 C848 1.398 . S
C847 C853 1.491 . S
C848 H839 0.950 . S
C848 C847 1.398 . S
C848 C849 1.391 . S
C849 H837 0.950 . S
C849 C845 1.393 . S
C849 C848 1.391 . S
C850 H840 0.950 . S
C850 C851 1.386 . S
C850 C852 1.391 . S
C851 C850 1.386 . S
C851 C855 1.393 . S
C852 H841 0.950 . S
C852 C850 1.391 . S
C852 C853 1.400 . S
C853 C847 1.491 . S
C853 C852 1.400 . S
C853 C854 1.398 . S
C854 H842 0.950 . S
C854 C853 1.398 . S
C854 C855 1.391 . S
C855 H843 0.950 . S
C855 C851 1.393 . S
C855 C854 1.391 . S
H856 C864 0.950 . S
H857 C869 0.950 . S
H858 C866 0.950 . S
H859 C868 0.950 . S
H860 C870 0.950 . S
H861 C872 0.950 . S
H862 C874 0.950 . S
H863 C875 0.950 . S
C864 H856 0.950 . S
C864 C865 1.386 . S
C864 C866 1.391 . S
C865 C864 1.386 . S
C865 C869 1.393 . S
C866 H858 0.950 . S
C866 C864 1.391 . S
C866 C867 1.400 . S
C867 C866 1.400 . S
C867 C868 1.398 . S
C867 C873 1.491 . S
C868 H859 0.950 . S
C868 C867 1.398 . S
C868 C869 1.391 . S
C869 H857 0.950 . S
C869 C865 1.393 . S
C869 C868 1.391 . S
C870 H860 0.950 . S
C870 C871 1.386 . S
C870 C872 1.391 . S
C871 C870 1.386 . S
C871 C875 1.393 . S
C872 H861 0.950 . S
C872 C870 1.391 . S
C872 C873 1.400 . S
C873 C867 1.491 . S
C873 C872 1.400 . S
C873 C874 1.398 . S
C874 H862 0.950 . S
C874 C873 1.398 . S
C874 C875 1.391 . S
C875 H863 0.950 . S
C875 C871 1.393 . S
C875 C874 1.391 . S
H876 C884 0.950 . S
H877 C889 0.950 . S
H878 C886 0.950 . S
H879 C888 0.950 . S
H880 C890 0.950 . S
H881 C892 0.950 . S
H882 C894 0.950 . S
H883 C895 0.950 . S
C884 H876 0.950 . S
C884 C885 1.386 . S
C884 C886 1.391 . S
C885 C884 1.386 . S
C885 C889 1.393 . S
C886 H878 0.950 . S
C886 C884 1.391 . S
C886 C887 1.400 . S
C887 C886 1.400 . S
C887 C888 1.398 . S
C887 C893 1.491 . S
C888 H879 0.950 . S
C888 C887 1.398 . S
C888 C889 1.391 . S
C889 H877 0.950 . S
C889 C885 1.393 . S
C889 C888 1.391 . S
C890 H880 0.950 . S
C890 C891 1.386 . S
C890 C892 1.391 . S
C891 C890 1.386 . S
C891 C895 1.393 . S
C892 H881 0.950 . S
C892 C890 1.391 . S
C892 C893 1.400 . S
C893 C887 1.491 . S
C893 C892 1.400 . S
C893 C894 1.398 . S
C894 H882 0.950 . S
C894 C893 1.398 . S
C894 C895 1.391 . S
C895 H883 0.950 . S
C895 C891 1.393 . S
C895 C894 1.391 . S
H896 C904 0.950 . S
H897 C909 0.950 . S
H898 C906 0.950 . S
H899 C908 0.950 . S
H900 C910 0.950 . S
H901 C912 0.950 . S
H902 C914 0.950 . S
H903 C915 0.950 . S
C904 H896 0.950 . S
C904 C905 1.386 . S
C904 C906 1.391 . S
C905 C904 1.386 . S
C905 C909 1.393 . S
C906 H898 0.950 . S
C906 C904 1.391 . S
C906 C907 1.400 . S
C907 C906 1.400 . S
C907 C908 1.398 . S
C907 C913 1.491 . S
C908 H899 0.950 . S
C908 C907 1.398 . S
C908 C909 1.391 . S
C909 H897 0.950 . S
C909 C905 1.393 . S
C909 C908 1.391 . S
C910 H900 0.950 . S
C910 C911 1.386 . S
C910 C912 1.391 . S
C911 C910 1.386 . S
C911 C915 1.393 . S
C912 H901 0.950 . S
C912 C910 1.391 . S
C912 C913 1.400 . S
C913 C907 1.491 . S
C913 C912 1.400 . S
C913 C914 1.398 . S
C914 H902 0.950 . S
C914 C913 1.398 . S
C914 C915 1.391 . S
C915 H903 0.950 . S
C915 C911 1.393 . S
C915 C914 1.391 . S
H916 C924 0.950 . S
H917 C929 0.950 . S
H918 C926 0.950 . S
H919 C928 0.950 . S
H920 C930 0.950 . S
H921 C932 0.950 . S
H922 C934 0.950 . S
H923 C935 0.950 . S
C924 H916 0.950 . S
C924 C925 1.386 . S
C924 C926 1.391 . S
C925 C924 1.386 . S
C925 C929 1.393 . S
C926 H918 0.950 . S
C926 C924 1.391 . S
C926 C927 1.400 . S
C927 C926 1.400 . S
C927 C928 1.398 . S
C927 C933 1.491 . S
C928 H919 0.950 . S
C928 C927 1.398 . S
C928 C929 1.391 . S
C929 H917 0.950 . S
C929 C925 1.393 . S
C929 C928 1.391 . S
C930 H920 0.950 . S
C930 C931 1.386 . S
C930 C932 1.391 . S
C931 C930 1.386 . S
C931 C935 1.393 . S
C932 H921 0.950 . S
C932 C930 1.391 . S
C932 C933 1.400 . S
C933 C927 1.491 . S
C933 C932 1.400 . S
C933 C934 1.398 . S
C934 H922 0.950 . S
C934 C933 1.398 . S
C934 C935 1.391 . S
C935 H923 0.950 . S
C935 C931 1.393 . S
C935 C934 1.391 . S
H936 C944 0.950 . S
H937 C949 0.950 . S
H938 C946 0.950 . S
H939 C948 0.950 . S
H940 C950 0.950 . S
H941 C952 0.950 . S
H942 C954 0.950 . S
H943 C955 0.950 . S
C944 H936 0.950 . S
C944 C945 1.386 . S
C944 C946 1.391 . S
C945 C944 1.386 . S
C945 C949 1.393 . S
C946 H938 0.950 . S
C946 C944 1.391 . S
C946 C947 1.400 . S
C947 C946 1.400 . S
C947 C948 1.398 . S
C947 C953 1.491 . S
C948 H939 0.950 . S
C948 C947 1.398 . S
C948 C949 1.391 . S
C949 H937 0.950 . S
C949 C945 1.393 . S
C949 C948 1.391 . S
C950 H940 0.950 . S
C950 C951 1.386 . S
C950 C952 1.391 . S
C951 C950 1.386 . S
C951 C955 1.393 . S
C952 H941 0.950 . S
C952 C950 1.391 . S
C952 C953 1.400 . S
C953 C947 1.491 . S
C953 C952 1.400 . S
C953 C954 1.398 . S
C954 H942 0.950 . S
C954 C953 1.398 . S
C954 C955 1.391 . S
C955 H943 0.950 . S
C955 C951 1.393 . S
C955 C954 1.391 . S
H956 C964 0.950 . S
H957 C969 0.950 . S
H958 C966 0.950 . S
H959 C968 0.950 . S
H960 C970 0.950 . S
H961 C972 0.950 . S
H962 C974 0.950 . S
H963 C975 0.950 . S
C964 H956 0.950 . S
C964 C965 1.386 . S
C964 C966 1.391 . S
C965 C964 1.386 . S
C965 C969 1.393 . S
C966 H958 0.950 . S
C966 C964 1.391 . S
C966 C967 1.400 . S
C967 C966 1.400 . S
C967 C968 1.398 . S
C967 C973 1.491 . S
C968 H959 0.950 . S
C968 C967 1.398 . S
C968 C969 1.391 . S
C969 H957 0.950 . S
C969 C965 1.393 . S
C969 C968 1.391 . S
C970 H960 0.950 . S
C970 C971 1.386 . S
C970 C972 1.391 . S
C971 C970 1.386 . S
C971 C975 1.393 . S
C972 H961 0.950 . S
C972 C970 1.391 . S
C972 C973 1.400 . S
C973 C967 1.491 . S
C973 C972 1.400 . S
C973 C974 1.398 . S
C974 H962 0.950 . S
C974 C973 1.398 . S
C974 C975 1.391 . S
C975 H963 0.950 . S
C975 C971 1.393 . S
C975 C974 1.391 . S
H976 C984 0.950 . S
H977 C989 0.950 . S
H978 C986 0.950 . S
H979 C988 0.950 . S
H980 C990 0.950 . S
H981 C992 0.950 . S
H982 C994 0.950 . S
H983 C995 0.950 . S
C984 H976 0.950 . S
C984 C985 1.386 . S
C984 C986 1.391 . S
C985 C984 1.386 . S
C985 C989 1.393 . S
C986 H978 0.950 . S
C986 C984 1.391 . S
C986 C987 1.400 . S
C987 C986 1.400 . S
C987 C988 1.398 . S
C987 C993 1.491 . S
C988 H979 0.950 . S
C988 C987 1.398 . S
C988 C989 1.391 . S
C989 H977 0.950 . S
C989 C985 1.393 . S
C989 C988 1.391 . S
C990 H980 0.950 . S
C990 C991 1.386 . S
C990 C992 1.391 . S
C991 C990 1.386 . S
C991 C995 1.393 . S
C992 H981 0.950 . S
C992 C990 1.391 . S
C992 C993 1.400 . S
C993 C987 1.491 . S
C993 C992 1.400 . S
C993 C994 1.398 . S
C994 H982 0.950 . S
C994 C993 1.398 . S
C994 C995 1.391 . S
C995 H983 0.950 . S
C995 C991 1.393 . S
C995 C994 1.391 . S
H996 C1004 0.950 . S
H997 C1009 0.950 . S
H998 C1006 0.950 . S
H999 C1008 0.950 . S
H1000 C1010 0.950 . S
H1001 C1012 0.950 . S
H1002 C1014 0.950 . S
H1003 C1015 0.950 . S
C1004 H996 0.950 . S
C1004 C1005 1.386 . S
C1004 C1006 1.391 . S
C1005 C1004 1.386 . S
C1005 C1009 1.393 . S
C1006 H998 0.950 . S
C1006 C1004 1.391 . S
C1006 C1007 1.400 . S
C1007 C1006 1.400 . S
C1007 C1008 1.398 . S
C1007 C1013 1.491 . S
C1008 H999 0.950 . S
C1008 C1007 1.398 . S
C1008 C1009 1.391 . S
C1009 H997 0.950 . S
C1009 C1005 1.393 . S
C1009 C1008 1.391 . S
C1010 H1000 0.950 . S
C1010 C1011 1.386 . S
C1010 C1012 1.391 . S
C1011 C1010 1.386 . S
C1011 C1015 1.393 . S
C1012 H1001 0.950 . S
C1012 C1010 1.391 . S
C1012 C1013 1.400 . S
C1013 C1007 1.491 . S
C1013 C1012 1.400 . S
C1013 C1014 1.398 . S
C1014 H1002 0.950 . S
C1014 C1013 1.398 . S
C1014 C1015 1.391 . S
C1015 H1003 0.950 . S
C1015 C1011 1.393 . S
C1015 C1014 1.391 . S
H1016 C1024 0.950 . S
H1017 C1029 0.950 . S
H1018 C1026 0.950 . S
H1019 C1028 0.950 . S
H1020 C1030 0.950 . S
H1021 C1032 0.950 . S
H1022 C1034 0.950 . S
H1023 C1035 0.950 . S
C1024 H1016 0.950 . S
C1024 C1025 1.386 . S
C1024 C1026 1.391 . S
C1025 C1024 1.386 . S
C1025 C1029 1.393 . S
C1026 H1018 0.950 . S
C1026 C1024 1.391 . S
C1026 C1027 1.400 . S
C1027 C1026 1.400 . S
C1027 C1028 1.398 . S
C1027 C1033 1.491 . S
C1028 H1019 0.950 . S
C1028 C1027 1.398 . S
C1028 C1029 1.391 . S
C1029 H1017 0.950 . S
C1029 C1025 1.393 . S
C1029 C1028 1.391 . S
C1030 H1020 0.950 . S
C1030 C1031 1.386 . S
C1030 C1032 1.391 . S
C1031 C1030 1.386 . S
C1031 C1035 1.393 . S
C1032 H1021 0.950 . S
C1032 C1030 1.391 . S
C1032 C1033 1.400 . S
C1033 C1027 1.491 . S
C1033 C1032 1.400 . S
C1033 C1034 1.398 . S
C1034 H1022 0.950 . S
C1034 C1033 1.398 . S
C1034 C1035 1.391 . S
C1035 H1023 0.950 . S
C1035 C1031 1.393 . S
C1035 C1034 1.391 . S
H1036 C1044 0.950 . S
H1037 C1049 0.950 . S
H1038 C1046 0.950 . S
H1039 C1048 0.950 . S
H1040 C1050 0.950 . S
H1041 C1052 0.950 . S
H1042 C1054 0.950 . S
H1043 C1055 0.950 . S
C1044 H1036 0.950 . S
C1044 C1045 1.386 . S
C1044 C1046 1.391 . S
C1045 C1044 1.386 . S
C1045 C1049 1.393 . S
C1046 H1038 0.950 . S
C1046 C1044 1.391 . S
C1046 C1047 1.400 . S
C1047 C1046 1.400 . S
C1047 C1048 1.398 . S
C1047 C1053 1.491 . S
C1048 H1039 0.950 . S
C1048 C1047 1.398 . S
C1048 C1049 1.391 . S
C1049 H1037 0.950 . S
C1049 C1045 1.393 . S
C1049 C1048 1.391 . S
C1050 H1040 0.950 . S
C1050 C1051 1.386 . S
C1050 C1052 1.391 . S
C1051 C1050 1.386 . S
C1051 C1055 1.393 . S
C1052 H1041 0.950 . S
C1052 C1050 1.391 . S
C1052 C1053 1.400 . S
C1053 C1047 1.491 . S
C1053 C1052 1.400 . S
C1053 C1054 1.398 . S
C1054 H1042 0.950 . S
C1054 C1053 1.398 . S
C1054 C1055 1.391 . S
C1055 H1043 0.950 . S
C1055 C1051 1.393 . S
C1055 C1054 1.391 . S
H1056 C1064 0.950 . S
H1057 C1069 0.950 . S
H1058 C1066 0.950 . S
H1059 C1068 0.950 . S
H1060 C1070 0.950 . S
H1061 C1072 0.950 . S
H1062 C1074 0.950 . S
H1063 C1075 0.950 . S
C1064 H1056 0.950 . S
C1064 C1065 1.386 . S
C1064 C1066 1.391 . S
C1065 C1064 1.386 . S
C1065 C1069 1.393 . S
C1066 H1058 0.950 . S
C1066 C1064 1.391 . S
C1066 C1067 1.400 . S
C1067 C1066 1.400 . S
C1067 C1068 1.398 . S
C1067 C1073 1.491 . S
C1068 H1059 0.950 . S
C1068 C1067 1.398 . S
C1068 C1069 1.391 . S
C1069 H1057 0.950 . S
C1069 C1065 1.393 . S
C1069 C1068 1.391 . S
C1070 H1060 0.950 . S
C1070 C1071 1.386 . S
C1070 C1072 1.391 . S
C1071 C1070 1.386 . S
C1071 C1075 1.393 . S
C1072 H1061 0.950 . S
C1072 C1070 1.391 . S
C1072 C1073 1.400 . S
C1073 C1067 1.491 . S
C1073 C1072 1.400 . S
C1073 C1074 1.398 . S
C1074 H1062 0.950 . S
C1074 C1073 1.398 . S
C1074 C1075 1.391 . S
C1075 H1063 0.950 . S
C1075 C1071 1.393 . S
C1075 C1074 1.391 . S
H1076 C1084 0.950 . S
H1077 C1089 0.950 . S
H1078 C1086 0.950 . S
H1079 C1088 0.950 . S
H1080 C1090 0.950 . S
H1081 C1092 0.950 . S
H1082 C1094 0.950 . S
H1083 C1095 0.950 . S
C1084 H1076 0.950 . S
C1084 C1085 1.386 . S
C1084 C1086 1.391 . S
C1085 C1084 1.386 . S
C1085 C1089 1.393 . S
C1086 H1078 0.950 . S
C1086 C1084 1.391 . S
C1086 C1087 1.400 . S
C1087 C1086 1.400 . S
C1087 C1088 1.398 . S
C1087 C1093 1.491 . S
C1088 H1079 0.950 . S
C1088 C1087 1.398 . S
C1088 C1089 1.391 . S
C1089 H1077 0.950 . S
C1089 C1085 1.393 . S
C1089 C1088 1.391 . S
C1090 H1080 0.950 . S
C1090 C1091 1.386 . S
C1090 C1092 1.391 . S
C1091 C1090 1.386 . S
C1091 C1095 1.393 . S
C1092 H1081 0.950 . S
C1092 C1090 1.391 . S
C1092 C1093 1.400 . S
C1093 C1087 1.491 . S
C1093 C1092 1.400 . S
C1093 C1094 1.398 . S
C1094 H1082 0.950 . S
C1094 C1093 1.398 . S
C1094 C1095 1.391 . S
C1095 H1083 0.950 . S
C1095 C1091 1.393 . S
C1095 C1094 1.391 . S
H1096 C1104 0.950 . S
H1097 C1109 0.950 . S
H1098 C1106 0.950 . S
H1099 C1108 0.950 . S
H1100 C1110 0.950 . S
H1101 C1112 0.950 . S
H1102 C1114 0.950 . S
H1103 C1115 0.950 . S
C1104 H1096 0.950 . S
C1104 C1105 1.386 . S
C1104 C1106 1.391 . S
C1105 C1104 1.386 . S
C1105 C1109 1.393 . S
C1106 H1098 0.950 . S
C1106 C1104 1.391 . S
C1106 C1107 1.400 . S
C1107 C1106 1.400 . S
C1107 C1108 1.398 . S
C1107 C1113 1.491 . S
C1108 H1099 0.950 . S
C1108 C1107 1.398 . S
C1108 C1109 1.391 . S
C1109 H1097 0.950 . S
C1109 C1105 1.393 . S
C1109 C1108 1.391 . S
C1110 H1100 0.950 . S
C1110 C1111 1.386 . S
C1110 C1112 1.391 . S
C1111 C1110 1.386 . S
C1111 C1115 1.393 . S
C1112 H1101 0.950 . S
C1112 C1110 1.391 . S
C1112 C1113 1.400 . S
C1113 C1107 1.491 . S
C1113 C1112 1.400 . S
C1113 C1114 1.398 . S
C1114 H1102 0.950 . S
C1114 C1113 1.398 . S
C1114 C1115 1.391 . S
C1115 H1103 0.950 . S
C1115 C1111 1.393 . S
C1115 C1114 1.391 . S
H1116 C1124 0.950 . S
H1117 C1129 0.950 . S
H1118 C1126 0.950 . S
H1119 C1128 0.950 . S
H1120 C1130 0.950 . S
H1121 C1132 0.950 . S
H1122 C1134 0.950 . S
H1123 C1135 0.950 . S
C1124 H1116 0.950 . S
C1124 C1125 1.386 . S
C1124 C1126 1.391 . S
C1125 C1124 1.386 . S
C1125 C1129 1.393 . S
C1126 H1118 0.950 . S
C1126 C1124 1.391 . S
C1126 C1127 1.400 . S
C1127 C1126 1.400 . S
C1127 C1128 1.398 . S
C1127 C1133 1.491 . S
C1128 H1119 0.950 . S
C1128 C1127 1.398 . S
C1128 C1129 1.391 . S
C1129 H1117 0.950 . S
C1129 C1125 1.393 . S
C1129 C1128 1.391 . S
C1130 H1120 0.950 . S
C1130 C1131 1.386 . S
C1130 C1132 1.391 . S
C1131 C1130 1.386 . S
C1131 C1135 1.393 . S
C1132 H1121 0.950 . S
C1132 C1130 1.391 . S
C1132 C1133 1.400 . S
C1133 C1127 1.491 . S
C1133 C1132 1.400 . S
C1133 C1134 1.398 . S
C1134 H1122 0.950 . S
C1134 C1133 1.398 . S
C1134 C1135 1.391 . S
C1135 H1123 0.950 . S
C1135 C1131 1.393 . S
C1135 C1134 1.391 . S
H1136 C1144 0.950 . S
H1137 C1149 0.950 . S
H1138 C1146 0.950 . S
H1139 C1148 0.950 . S
H1140 C1150 0.950 . S
H1141 C1152 0.950 . S
H1142 C1154 0.950 . S
H1143 C1155 0.950 . S
C1144 H1136 0.950 . S
C1144 C1145 1.386 . S
C1144 C1146 1.391 . S
C1145 C1144 1.386 . S
C1145 C1149 1.393 . S
C1146 H1138 0.950 . S
C1146 C1144 1.391 . S
C1146 C1147 1.400 . S
C1147 C1146 1.400 . S
C1147 C1148 1.398 . S
C1147 C1153 1.491 . S
C1148 H1139 0.950 . S
C1148 C1147 1.398 . S
C1148 C1149 1.391 . S
C1149 H1137 0.950 . S
C1149 C1145 1.393 . S
C1149 C1148 1.391 . S
C1150 H1140 0.950 . S
C1150 C1151 1.386 . S
C1150 C1152 1.391 . S
C1151 C1150 1.386 . S
C1151 C1155 1.393 . S
C1152 H1141 0.950 . S
C1152 C1150 1.391 . S
C1152 C1153 1.400 . S
C1153 C1147 1.491 . S
C1153 C1152 1.400 . S
C1153 C1154 1.398 . S
C1154 H1142 0.950 . S
C1154 C1153 1.398 . S
C1154 C1155 1.391 . S
C1155 H1143 0.950 . S
C1155 C1151 1.393 . S
C1155 C1154 1.391 . S
H1156 C1164 0.950 . S
H1157 C1169 0.950 . S
H1158 C1166 0.950 . S
H1159 C1168 0.950 . S
H1160 C1170 0.950 . S
H1161 C1172 0.950 . S
H1162 C1174 0.950 . S
H1163 C1175 0.950 . S
C1164 H1156 0.950 . S
C1164 C1165 1.386 . S
C1164 C1166 1.391 . S
C1165 C1164 1.386 . S
C1165 C1169 1.393 . S
C1166 H1158 0.950 . S
C1166 C1164 1.391 . S
C1166 C1167 1.400 . S
C1167 C1166 1.400 . S
C1167 C1168 1.398 . S
C1167 C1173 1.491 . S
C1168 H1159 0.950 . S
C1168 C1167 1.398 . S
C1168 C1169 1.391 . S
C1169 H1157 0.950 . S
C1169 C1165 1.393 . S
C1169 C1168 1.391 . S
C1170 H1160 0.950 . S
C1170 C1171 1.386 . S
C1170 C1172 1.391 . S
C1171 C1170 1.386 . S
C1171 C1175 1.393 . S
C1172 H1161 0.950 . S
C1172 C1170 1.391 . S
C1172 C1173 1.400 . S
C1173 C1167 1.491 . S
C1173 C1172 1.400 . S
C1173 C1174 1.398 . S
C1174 H1162 0.950 . S
C1174 C1173 1.398 . S
C1174 C1175 1.391 . S
C1175 H1163 0.950 . S
C1175 C1171 1.393 . S
C1175 C1174 1.391 . S
H1176 C1184 0.950 . S
H1177 C1189 0.950 . S
H1178 C1186 0.950 . S
H1179 C1188 0.950 . S
H1180 C1190 0.950 . S
H1181 C1192 0.950 . S
H1182 C1194 0.950 . S
H1183 C1195 0.950 . S
C1184 H1176 0.950 . S
C1184 C1185 1.386 . S
C1184 C1186 1.391 . S
C1185 C1184 1.386 . S
C1185 C1189 1.393 . S
C1186 H1178 0.950 . S
C1186 C1184 1.391 . S
C1186 C1187 1.400 . S
C1187 C1186 1.400 . S
C1187 C1188 1.398 . S
C1187 C1193 1.491 . S
C1188 H1179 0.950 . S
C1188 C1187 1.398 . S
C1188 C1189 1.391 . S
C1189 H1177 0.950 . S
C1189 C1185 1.393 . S
C1189 C1188 1.391 . S
C1190 H1180 0.950 . S
C1190 C1191 1.386 . S
C1190 C1192 1.391 . S
C1191 C1190 1.386 . S
C1191 C1195 1.393 . S
C1192 H1181 0.950 . S
C1192 C1190 1.391 . S
C1192 C1193 1.400 . S
C1193 C1187 1.491 . S
C1193 C1192 1.400 . S
C1193 C1194 1.398 . S
C1194 H1182 0.950 . S
C1194 C1193 1.398 . S
C1194 C1195 1.391 . S
C1195 H1183 0.950 . S
C1195 C1191 1.393 . S
C1195 C1194 1.391 . S
H1196 C1204 0.950 . S
H1197 C1209 0.950 . S
H1198 C1206 0.950 . S
H1199 C1208 0.950 . S
H1200 C1210 0.950 . S
H1201 C1212 0.950 . S
H1202 C1214 0.950 . S
H1203 C1215 0.950 . S
C1204 H1196 0.950 . S
C1204 C1205 1.386 . S
C1204 C1206 1.391 . S
C1205 C1204 1.386 . S
C1205 C1209 1.393 . S
C1206 H1198 0.950 . S
C1206 C1204 1.391 . S
C1206 C1207 1.400 . S
C1207 C1206 1.400 . S
C1207 C1208 1.398 . S
C1207 C1213 1.491 . S
C1208 H1199 0.950 . S
C1208 C1207 1.398 . S
C1208 C1209 1.391 . S
C1209 H1197 0.950 . S
C1209 C1205 1.393 . S
C1209 C1208 1.391 . S
C1210 H1200 0.950 . S
C1210 C1211 1.386 . S
C1210 C1212 1.391 . S
C1211 C1210 1.386 . S
C1211 C1215 1.393 . S
C1212 H1201 0.950 . S
C1212 C1210 1.391 . S
C1212 C1213 1.400 . S
C1213 C1207 1.491 . S
C1213 C1212 1.400 . S
C1213 C1214 1.398 . S
C1214 H1202 0.950 . S
C1214 C1213 1.398 . S
C1214 C1215 1.391 . S
C1215 H1203 0.950 . S
C1215 C1211 1.393 . S
C1215 C1214 1.391 . S
H1216 C1224 0.950 . S
H1217 C1229 0.950 . S
H1218 C1226 0.950 . S
H1219 C1228 0.950 . S
H1220 C1230 0.950 . S
H1221 C1232 0.950 . S
H1222 C1234 0.950 . S
H1223 C1235 0.950 . S
C1224 H1216 0.950 . S
C1224 C1225 1.386 . S
C1224 C1226 1.391 . S
C1225 C1224 1.386 . S
C1225 C1229 1.393 . S
C1226 H1218 0.950 . S
C1226 C1224 1.391 . S
C1226 C1227 1.400 . S
C1227 C1226 1.400 . S
C1227 C1228 1.398 . S
C1227 C1233 1.491 . S
C1228 H1219 0.950 . S
C1228 C1227 1.398 . S
C1228 C1229 1.391 . S
C1229 H1217 0.950 . S
C1229 C1225 1.393 . S
C1229 C1228 1.391 . S
C1230 H1220 0.950 . S
C1230 C1231 1.386 . S
C1230 C1232 1.391 . S
C1231 C1230 1.386 . S
C1231 C1235 1.393 . S
C1232 H1221 0.950 . S
C1232 C1230 1.391 . S
C1232 C1233 1.400 . S
C1233 C1227 1.491 . S
C1233 C1232 1.400 . S
C1233 C1234 1.398 . S
C1234 H1222 0.950 . S
C1234 C1233 1.398 . S
C1234 C1235 1.391 . S
C1235 H1223 0.950 . S
C1235 C1231 1.393 . S
C1235 C1234 1.391 . S
H1236 C1244 0.950 . S
H1237 C1249 0.950 . S
H1238 C1246 0.950 . S
H1239 C1248 0.950 . S
H1240 C1250 0.950 . S
H1241 C1252 0.950 . S
H1242 C1254 0.950 . S
H1243 C1255 0.950 . S
C1244 H1236 0.950 . S
C1244 C1245 1.386 . S
C1244 C1246 1.391 . S
C1245 C1244 1.386 . S
C1245 C1249 1.393 . S
C1246 H1238 0.950 . S
C1246 C1244 1.391 . S
C1246 C1247 1.400 . S
C1247 C1246 1.400 . S
C1247 C1248 1.398 . S
C1247 C1253 1.491 . S
C1248 H1239 0.950 . S
C1248 C1247 1.398 . S
C1248 C1249 1.391 . S
C1249 H1237 0.950 . S
C1249 C1245 1.393 . S
C1249 C1248 1.391 . S
C1250 H1240 0.950 . S
C1250 C1251 1.386 . S
C1250 C1252 1.391 . S
C1251 C1250 1.386 . S
C1251 C1255 1.393 . S
C1252 H1241 0.950 . S
C1252 C1250 1.391 . S
C1252 C1253 1.400 . S
C1253 C1247 1.491 . S
C1253 C1252 1.400 . S
C1253 C1254 1.398 . S
C1254 H1242 0.950 . S
C1254 C1253 1.398 . S
C1254 C1255 1.391 . S
C1255 H1243 0.950 . S
C1255 C1251 1.393 . S
C1255 C1254 1.391 . S
H1256 C1264 0.950 . S
H1257 C1269 0.950 . S
H1258 C1266 0.950 . S
H1259 C1268 0.950 . S
H1260 C1270 0.950 . S
H1261 C1272 0.950 . S
H1262 C1274 0.950 . S
H1263 C1275 0.950 . S
C1264 H1256 0.950 . S
C1264 C1265 1.386 . S
C1264 C1266 1.391 . S
C1265 C1264 1.386 . S
C1265 C1269 1.393 . S
C1266 H1258 0.950 . S
C1266 C1264 1.391 . S
C1266 C1267 1.400 . S
C1267 C1266 1.400 . S
C1267 C1268 1.398 . S
C1267 C1273 1.491 . S
C1268 H1259 0.950 . S
C1268 C1267 1.398 . S
C1268 C1269 1.391 . S
C1269 H1257 0.950 . S
C1269 C1265 1.393 . S
C1269 C1268 1.391 . S
C1270 H1260 0.950 . S
C1270 C1271 1.386 . S
C1270 C1272 1.391 . S
C1271 C1270 1.386 . S
C1271 C1275 1.393 . S
C1272 H1261 0.950 . S
C1272 C1270 1.391 . S
C1272 C1273 1.400 . S
C1273 C1267 1.491 . S
C1273 C1272 1.400 . S
C1273 C1274 1.398 . S
C1274 H1262 0.950 . S
C1274 C1273 1.398 . S
C1274 C1275 1.391 . S
C1275 H1263 0.950 . S
C1275 C1271 1.393 . S
C1275 C1274 1.391 . S
H1276 C1284 0.950 . S
H1277 C1289 0.950 . S
H1278 C1286 0.950 . S
H1279 C1288 0.950 . S
H1280 C1290 0.950 . S
H1281 C1292 0.950 . S
H1282 C1294 0.950 . S
H1283 C1295 0.950 . S
C1284 H1276 0.950 . S
C1284 C1285 1.386 . S
C1284 C1286 1.391 . S
C1285 C1284 1.386 . S
C1285 C1289 1.393 . S
C1286 H1278 0.950 . S
C1286 C1284 1.391 . S
C1286 C1287 1.400 . S
C1287 C1286 1.400 . S
C1287 C1288 1.398 . S
C1287 C1293 1.491 . S
C1288 H1279 0.950 . S
C1288 C1287 1.398 . S
C1288 C1289 1.391 . S
C1289 H1277 0.950 . S
C1289 C1285 1.393 . S
C1289 C1288 1.391 . S
C1290 H1280 0.950 . S
C1290 C1291 1.386 . S
C1290 C1292 1.391 . S
C1291 C1290 1.386 . S
C1291 C1295 1.393 . S
C1292 H1281 0.950 . S
C1292 C1290 1.391 . S
C1292 C1293 1.400 . S
C1293 C1287 1.491 . S
C1293 C1292 1.400 . S
C1293 C1294 1.398 . S
C1294 H1282 0.950 . S
C1294 C1293 1.398 . S
C1294 C1295 1.391 . S
C1295 H1283 0.950 . S
C1295 C1291 1.393 . S
C1295 C1294 1.391 . S
H1296 C1304 0.950 . S
H1297 C1309 0.950 . S
H1298 C1306 0.950 . S
H1299 C1308 0.950 . S
H1300 C1310 0.950 . S
H1301 C1312 0.950 . S
H1302 C1314 0.950 . S
H1303 C1315 0.950 . S
C1304 H1296 0.950 . S
C1304 C1305 1.386 . S
C1304 C1306 1.391 . S
C1305 C1304 1.386 . S
C1305 C1309 1.393 . S
C1306 H1298 0.950 . S
C1306 C1304 1.391 . S
C1306 C1307 1.400 . S
C1307 C1306 1.400 . S
C1307 C1308 1.398 . S
C1307 C1313 1.491 . S
C1308 H1299 0.950 . S
C1308 C1307 1.398 . S
C1308 C1309 1.391 . S
C1309 H1297 0.950 . S
C1309 C1305 1.393 . S
C1309 C1308 1.391 . S
C1310 H1300 0.950 . S
C1310 C1311 1.386 . S
C1310 C1312 1.391 . S
C1311 C1310 1.386 . S
C1311 C1315 1.393 . S
C1312 H1301 0.950 . S
C1312 C1310 1.391 . S
C1312 C1313 1.400 . S
C1313 C1307 1.491 . S
C1313 C1312 1.400 . S
C1313 C1314 1.398 . S
C1314 H1302 0.950 . S
C1314 C1313 1.398 . S
C1314 C1315 1.391 . S
C1315 H1303 0.950 . S
C1315 C1311 1.393 . S
C1315 C1314 1.391 . S
H1316 C1324 0.950 . S
H1317 C1329 0.950 . S
H1318 C1326 0.950 . S
H1319 C1328 0.950 . S
H1320 C1330 0.950 . S
H1321 C1332 0.950 . S
H1322 C1334 0.950 . S
H1323 C1335 0.950 . S
C1324 H1316 0.950 . S
C1324 C1325 1.386 . S
C1324 C1326 1.391 . S
C1325 C1324 1.386 . S
C1325 C1329 1.393 . S
C1326 H1318 0.950 . S
C1326 C1324 1.391 . S
C1326 C1327 1.400 . S
C1327 C1326 1.400 . S
C1327 C1328 1.398 . S
C1327 C1333 1.491 . S
C1328 H1319 0.950 . S
C1328 C1327 1.398 . S
C1328 C1329 1.391 . S
C1329 H1317 0.950 . S
C1329 C1325 1.393 . S
C1329 C1328 1.391 . S
C1330 H1320 0.950 . S
C1330 C1331 1.386 . S
C1330 C1332 1.391 . S
C1331 C1330 1.386 . S
C1331 C1335 1.393 . S
C1332 H1321 0.950 . S
C1332 C1330 1.391 . S
C1332 C1333 1.400 . S
C1333 C1327 1.491 . S
C1333 C1332 1.400 . S
C1333 C1334 1.398 . S
C1334 H1322 0.950 . S
C1334 C1333 1.398 . S
C1334 C1335 1.391 . S
C1335 H1323 0.950 . S
C1335 C1331 1.393 . S
C1335 C1334 1.391 . S
H1336 C1344 0.950 . S
H1337 C1349 0.950 . S
H1338 C1346 0.950 . S
H1339 C1348 0.950 . S
H1340 C1350 0.950 . S
H1341 C1352 0.950 . S
H1342 C1354 0.950 . S
H1343 C1355 0.950 . S
C1344 H1336 0.950 . S
C1344 C1345 1.386 . S
C1344 C1346 1.391 . S
C1345 C1344 1.386 . S
C1345 C1349 1.393 . S
C1346 H1338 0.950 . S
C1346 C1344 1.391 . S
C1346 C1347 1.400 . S
C1347 C1346 1.400 . S
C1347 C1348 1.398 . S
C1347 C1353 1.491 . S
C1348 H1339 0.950 . S
C1348 C1347 1.398 . S
C1348 C1349 1.391 . S
C1349 H1337 0.950 . S
C1349 C1345 1.393 . S
C1349 C1348 1.391 . S
C1350 H1340 0.950 . S
C1350 C1351 1.386 . S
C1350 C1352 1.391 . S
C1351 C1350 1.386 . S
C1351 C1355 1.393 . S
C1352 H1341 0.950 . S
C1352 C1350 1.391 . S
C1352 C1353 1.400 . S
C1353 C1347 1.491 . S
C1353 C1352 1.400 . S
C1353 C1354 1.398 . S
C1354 H1342 0.950 . S
C1354 C1353 1.398 . S
C1354 C1355 1.391 . S
C1355 H1343 0.950 . S
C1355 C1351 1.393 . S
C1355 C1354 1.391 . S
H1356 C1364 0.950 . S
H1357 C1369 0.950 . S
H1358 C1366 0.950 . S
H1359 C1368 0.950 . S
H1360 C1370 0.950 . S
H1361 C1372 0.950 . S
H1362 C1374 0.950 . S
H1363 C1375 0.950 . S
C1364 H1356 0.950 . S
C1364 C1365 1.386 . S
C1364 C1366 1.391 . S
C1365 C1364 1.386 . S
C1365 C1369 1.393 . S
C1366 H1358 0.950 . S
C1366 C1364 1.391 . S
C1366 C1367 1.400 . S
C1367 C1366 1.400 . S
C1367 C1368 1.398 . S
C1367 C1373 1.491 . S
C1368 H1359 0.950 . S
C1368 C1367 1.398 . S
C1368 C1369 1.391 . S
C1369 H1357 0.950 . S
C1369 C1365 1.393 . S
C1369 C1368 1.391 . S
C1370 H1360 0.950 . S
C1370 C1371 1.386 . S
C1370 C1372 1.391 . S
C1371 C1370 1.386 . S
C1371 C1375 1.393 . S
C1372 H1361 0.950 . S
C1372 C1370 1.391 . S
C1372 C1373 1.400 . S
C1373 C1367 1.491 . S
C1373 C1372 1.400 . S
C1373 C1374 1.398 . S
C1374 H1362 0.950 . S
C1374 C1373 1.398 . S
C1374 C1375 1.391 . S
C1375 H1363 0.950 . S
C1375 C1371 1.393 . S
C1375 C1374 1.391 . S
H1376 C1384 0.950 . S
H1377 C1389 0.950 1_554 S
H1378 C1386 0.950 . S
H1379 C1388 0.950 . S
H1380 C1390 0.950 . S
H1381 C1392 0.950 . S
H1382 C1394 0.950 . S
H1383 C1395 0.950 . S
C1384 H1376 0.950 . S
C1384 C1385 1.386 . S
C1384 C1386 1.391 . S
C1385 C1384 1.386 . S
C1385 C1389 1.393 . S
C1386 H1378 0.950 . S
C1386 C1384 1.391 . S
C1386 C1387 1.400 . S
C1387 C1386 1.400 . S
C1387 C1388 1.398 . S
C1387 C1393 1.491 . S
C1388 H1379 0.950 . S
C1388 C1387 1.398 . S
C1388 C1389 1.391 . S
C1389 H1377 0.950 1_556 S
C1389 C1385 1.393 . S
C1389 C1388 1.391 . S
C1390 H1380 0.950 . S
C1390 C1391 1.386 . S
C1390 C1392 1.391 . S
C1391 C1390 1.386 . S
C1391 C1395 1.393 . S
C1392 H1381 0.950 . S
C1392 C1390 1.391 . S
C1392 C1393 1.400 . S
C1393 C1387 1.491 . S
C1393 C1392 1.400 . S
C1393 C1394 1.398 . S
C1394 H1382 0.950 . S
C1394 C1393 1.398 . S
C1394 C1395 1.391 . S
C1395 H1383 0.950 . S
C1395 C1391 1.393 . S
C1395 C1394 1.391 . S
H1396 C1404 0.950 1_554 S
H1397 C1409 0.950 . S
H1398 C1406 0.950 . S
H1399 C1408 0.950 . S
H1400 C1410 0.950 . S
H1401 C1412 0.950 . S
H1402 C1414 0.950 . S
H1403 C1415 0.950 . S
C1404 H1396 0.950 1_556 S
C1404 C1405 1.386 . S
C1404 C1406 1.391 . S
C1405 C1404 1.386 . S
C1405 C1409 1.393 . S
C1406 H1398 0.950 . S
C1406 C1404 1.391 . S
C1406 C1407 1.400 . S
C1407 C1406 1.400 . S
C1407 C1408 1.398 . S
C1407 C1413 1.491 . S
C1408 H1399 0.950 . S
C1408 C1407 1.398 . S
C1408 C1409 1.391 . S
C1409 H1397 0.950 . S
C1409 C1405 1.393 . S
C1409 C1408 1.391 . S
C1410 H1400 0.950 . S
C1410 C1411 1.386 . S
C1410 C1412 1.391 . S
C1411 C1410 1.386 . S
C1411 C1415 1.393 . S
C1412 H1401 0.950 . S
C1412 C1410 1.391 . S
C1412 C1413 1.400 . S
C1413 C1407 1.491 . S
C1413 C1412 1.400 . S
C1413 C1414 1.398 . S
C1414 H1402 0.950 . S
C1414 C1413 1.398 . S
C1414 C1415 1.391 . S
C1415 H1403 0.950 . S
C1415 C1411 1.393 . S
C1415 C1414 1.391 . S
H1416 C1424 0.950 . S
H1417 C1429 0.950 1_554 S
H1418 C1426 0.950 . S
H1419 C1428 0.950 . S
H1420 C1430 0.950 . S
H1421 C1432 0.950 . S
H1422 C1434 0.950 . S
H1423 C1435 0.950 . S
C1424 H1416 0.950 . S
C1424 C1425 1.386 . S
C1424 C1426 1.391 . S
C1425 C1424 1.386 . S
C1425 C1429 1.393 . S
C1426 H1418 0.950 . S
C1426 C1424 1.391 . S
C1426 C1427 1.400 . S
C1427 C1426 1.400 . S
C1427 C1428 1.398 . S
C1427 C1433 1.491 . S
C1428 H1419 0.950 . S
C1428 C1427 1.398 . S
C1428 C1429 1.391 . S
C1429 H1417 0.950 1_556 S
C1429 C1425 1.393 . S
C1429 C1428 1.391 . S
C1430 H1420 0.950 . S
C1430 C1431 1.386 . S
C1430 C1432 1.391 . S
C1431 C1430 1.386 . S
C1431 C1435 1.393 . S
C1432 H1421 0.950 . S
C1432 C1430 1.391 . S
C1432 C1433 1.400 . S
C1433 C1427 1.491 . S
C1433 C1432 1.400 . S
C1433 C1434 1.398 . S
C1434 H1422 0.950 . S
C1434 C1433 1.398 . S
C1434 C1435 1.391 . S
C1435 H1423 0.950 . S
C1435 C1431 1.393 . S
C1435 C1434 1.391 . S
H1436 C1444 0.982 . S
H1437 C1449 0.950 . S
H1438 C1446 0.950 . S
H1439 C1448 0.950 . S
H1440 C1450 0.950 . S
H1441 C1452 0.950 . S
H1442 C1454 0.950 . S
H1443 C1455 0.950 . S
C1444 H1436 0.982 . S
C1444 C1445 1.386 . S
C1444 C1446 1.391 . S
C1445 C1444 1.386 . S
C1445 C1449 1.393 . S
C1446 H1438 0.950 . S
C1446 C1444 1.391 . S
C1446 C1447 1.400 . S
C1447 C1446 1.400 . S
C1447 C1448 1.398 . S
C1447 C1453 1.491 . S
C1448 H1439 0.950 . S
C1448 C1447 1.398 . S
C1448 C1449 1.391 . S
C1449 H1437 0.950 . S
C1449 C1445 1.393 . S
C1449 C1448 1.391 . S
C1450 H1440 0.950 . S
C1450 C1451 1.386 . S
C1450 C1452 1.391 . S
C1451 C1450 1.386 . S
C1451 C1455 1.393 . S
C1452 H1441 0.950 . S
C1452 C1450 1.391 . S
C1452 C1453 1.400 . S
C1453 C1447 1.491 . S
C1453 C1452 1.400 . S
C1453 C1454 1.398 . S
C1454 H1442 0.950 . S
C1454 C1453 1.398 . S
C1454 C1455 1.391 . S
C1455 H1443 0.950 . S
C1455 C1451 1.393 . S
C1455 C1454 1.391 . S
H1456 C1464 0.950 . S
H1457 C1469 0.950 . S
H1458 C1466 0.950 . S
H1459 C1468 0.950 . S
H1460 C1470 0.950 . S
H1461 C1472 0.950 . S
H1462 C1474 0.950 . S
H1463 C1475 0.950 . S
C1464 H1456 0.950 . S
C1464 C1465 1.386 . S
C1464 C1466 1.391 . S
C1465 C1464 1.386 . S
C1465 C1469 1.393 . S
C1466 H1458 0.950 . S
C1466 C1464 1.391 . S
C1466 C1467 1.400 . S
C1467 C1466 1.400 . S
C1467 C1468 1.398 . S
C1467 C1473 1.491 . S
C1468 H1459 0.950 . S
C1468 C1467 1.398 . S
C1468 C1469 1.391 . S
C1469 H1457 0.950 . S
C1469 C1465 1.393 . S
C1469 C1468 1.391 . S
C1470 H1460 0.950 . S
C1470 C1471 1.386 . S
C1470 C1472 1.391 . S
C1471 C1470 1.386 . S
C1471 C1475 1.393 . S
C1472 H1461 0.950 . S
C1472 C1470 1.391 . S
C1472 C1473 1.400 . S
C1473 C1467 1.491 . S
C1473 C1472 1.400 . S
C1473 C1474 1.398 . S
C1474 H1462 0.950 . S
C1474 C1473 1.398 . S
C1474 C1475 1.391 . S
C1475 H1463 0.950 . S
C1475 C1471 1.393 . S
C1475 C1474 1.391 . S
H1476 C1484 0.950 . S
H1477 C1489 0.950 . S
H1478 C1486 0.950 . S
H1479 C1488 0.950 . S
H1480 C1490 0.950 . S
H1481 C1492 0.950 . S
H1482 C1494 0.950 . S
H1483 C1495 0.950 . S
C1484 H1476 0.950 . S
C1484 C1485 1.386 . S
C1484 C1486 1.391 . S
C1485 C1484 1.386 . S
C1485 C1489 1.393 . S
C1486 H1478 0.950 . S
C1486 C1484 1.391 . S
C1486 C1487 1.400 . S
C1487 C1486 1.400 . S
C1487 C1488 1.398 . S
C1487 C1493 1.491 . S
C1488 H1479 0.950 . S
C1488 C1487 1.398 . S
C1488 C1489 1.391 . S
C1489 H1477 0.950 . S
C1489 C1485 1.393 . S
C1489 C1488 1.391 . S
C1490 H1480 0.950 . S
C1490 C1491 1.386 . S
C1490 C1492 1.391 . S
C1491 C1490 1.386 . S
C1491 C1495 1.393 . S
C1492 H1481 0.950 . S
C1492 C1490 1.391 . S
C1492 C1493 1.400 . S
C1493 C1487 1.491 . S
C1493 C1492 1.400 . S
C1493 C1494 1.398 . S
C1494 H1482 0.950 . S
C1494 C1493 1.398 . S
C1494 C1495 1.391 . S
C1495 H1483 0.950 . S
C1495 C1491 1.393 . S
C1495 C1494 1.391 . S
H1496 C1504 0.950 . S
H1497 C1509 0.950 . S
H1498 C1506 0.950 . S
H1499 C1508 0.950 . S
H1500 C1510 0.950 . S
H1501 C1512 0.950 . S
H1502 C1514 0.950 . S
H1503 C1515 0.950 . S
C1504 H1496 0.950 . S
C1504 C1505 1.386 . S
C1504 C1506 1.391 . S
C1505 C1504 1.386 . S
C1505 C1509 1.393 . S
C1506 H1498 0.950 . S
C1506 C1504 1.391 . S
C1506 C1507 1.400 . S
C1507 C1506 1.400 . S
C1507 C1508 1.398 . S
C1507 C1513 1.491 . S
C1508 H1499 0.950 . S
C1508 C1507 1.398 . S
C1508 C1509 1.391 . S
C1509 H1497 0.950 . S
C1509 C1505 1.393 . S
C1509 C1508 1.391 . S
C1510 H1500 0.950 . S
C1510 C1511 1.386 . S
C1510 C1512 1.391 . S
C1511 C1510 1.386 . S
C1511 C1515 1.393 . S
C1512 H1501 0.950 . S
C1512 C1510 1.391 . S
C1512 C1513 1.400 . S
C1513 C1507 1.491 . S
C1513 C1512 1.400 . S
C1513 C1514 1.398 . S
C1514 H1502 0.950 . S
C1514 C1513 1.398 . S
C1514 C1515 1.391 . S
C1515 H1503 0.950 . S
C1515 C1511 1.393 . S
C1515 C1514 1.391 . S
H1516 C1524 0.950 . S
H1517 C1529 0.950 . S
H1518 C1526 0.950 . S
H1519 C1528 0.950 . S
H1520 C1530 0.950 . S
H1521 C1532 0.950 . S
H1522 C1534 0.950 . S
H1523 C1535 0.950 . S
C1524 H1516 0.950 . S
C1524 C1525 1.386 . S
C1524 C1526 1.391 . S
C1525 C1524 1.386 . S
C1525 C1529 1.393 . S
C1526 H1518 0.950 . S
C1526 C1524 1.391 . S
C1526 C1527 1.400 . S
C1527 C1526 1.400 . S
C1527 C1528 1.398 . S
C1527 C1533 1.491 . S
C1528 H1519 0.950 . S
C1528 C1527 1.398 . S
C1528 C1529 1.391 . S
C1529 H1517 0.950 . S
C1529 C1525 1.393 . S
C1529 C1528 1.391 . S
C1530 H1520 0.950 . S
C1530 C1531 1.386 . S
C1530 C1532 1.391 . S
C1531 C1530 1.386 . S
C1531 C1535 1.393 . S
C1532 H1521 0.950 . S
C1532 C1530 1.391 . S
C1532 C1533 1.400 . S
C1533 C1527 1.491 . S
C1533 C1532 1.400 . S
C1533 C1534 1.398 . S
C1534 H1522 0.950 . S
C1534 C1533 1.398 . S
C1534 C1535 1.391 . S
C1535 H1523 0.950 . S
C1535 C1531 1.393 . S
C1535 C1534 1.391 . S
H1536 C1544 0.950 . S
H1537 C1549 0.950 . S
H1538 C1546 0.950 . S
H1539 C1548 0.950 . S
H1540 C1550 0.950 . S
H1541 C1552 0.950 . S
H1542 C1554 0.950 . S
H1543 C1555 0.950 . S
C1544 H1536 0.950 . S
C1544 C1545 1.386 . S
C1544 C1546 1.391 . S
C1545 C1544 1.386 . S
C1545 C1549 1.393 . S
C1546 H1538 0.950 . S
C1546 C1544 1.391 . S
C1546 C1547 1.400 . S
C1547 C1546 1.400 . S
C1547 C1548 1.398 . S
C1547 C1553 1.491 . S
C1548 H1539 0.950 . S
C1548 C1547 1.398 . S
C1548 C1549 1.391 . S
C1549 H1537 0.950 . S
C1549 C1545 1.393 . S
C1549 C1548 1.391 . S
C1550 H1540 0.950 . S
C1550 C1551 1.386 . S
C1550 C1552 1.391 . S
C1551 C1550 1.386 . S
C1551 C1555 1.393 . S
C1552 H1541 0.950 . S
C1552 C1550 1.391 . S
C1552 C1553 1.400 . S
C1553 C1547 1.491 . S
C1553 C1552 1.400 . S
C1553 C1554 1.398 . S
C1554 H1542 0.950 . S
C1554 C1553 1.398 . S
C1554 C1555 1.391 . S
C1555 H1543 0.950 . S
C1555 C1551 1.393 . S
C1555 C1554 1.391 . S
H1556 C1564 0.950 . S
H1557 C1569 0.950 . S
H1558 C1566 0.950 . S
H1559 C1568 0.950 . S
H1560 C1570 0.950 . S
H1561 C1572 0.950 . S
H1562 C1574 0.950 . S
H1563 C1575 0.950 . S
C1564 H1556 0.950 . S
C1564 C1565 1.386 . S
C1564 C1566 1.391 . S
C1565 C1564 1.386 . S
C1565 C1569 1.393 . S
C1566 H1558 0.950 . S
C1566 C1564 1.391 . S
C1566 C1567 1.400 . S
C1567 C1566 1.400 . S
C1567 C1568 1.398 . S
C1567 C1573 1.491 . S
C1568 H1559 0.950 . S
C1568 C1567 1.398 . S
C1568 C1569 1.391 . S
C1569 H1557 0.950 . S
C1569 C1565 1.393 . S
C1569 C1568 1.391 . S
C1570 H1560 0.950 . S
C1570 C1571 1.386 . S
C1570 C1572 1.391 . S
C1571 C1570 1.386 . S
C1571 C1575 1.393 . S
C1572 H1561 0.950 . S
C1572 C1570 1.391 . S
C1572 C1573 1.400 . S
C1573 C1567 1.491 . S
C1573 C1572 1.400 . S
C1573 C1574 1.398 . S
C1574 H1562 0.950 . S
C1574 C1573 1.398 . S
C1574 C1575 1.391 . S
C1575 H1563 0.950 . S
C1575 C1571 1.393 . S
C1575 C1574 1.391 . S
H1576 C1584 0.950 . S
H1577 C1589 0.950 . S
H1578 C1586 0.950 . S
H1579 C1588 0.950 . S
H1580 C1590 0.950 . S
H1581 C1592 0.950 . S
H1582 C1594 0.950 . S
H1583 C1595 0.950 . S
C1584 H1576 0.950 . S
C1584 C1585 1.386 . S
C1584 C1586 1.391 . S
C1585 C1584 1.386 . S
C1585 C1589 1.393 . S
C1586 H1578 0.950 . S
C1586 C1584 1.391 . S
C1586 C1587 1.400 . S
C1587 C1586 1.400 . S
C1587 C1588 1.398 . S
C1587 C1593 1.491 . S
C1588 H1579 0.950 . S
C1588 C1587 1.398 . S
C1588 C1589 1.391 . S
C1589 H1577 0.950 . S
C1589 C1585 1.393 . S
C1589 C1588 1.391 . S
C1590 H1580 0.950 . S
C1590 C1591 1.386 . S
C1590 C1592 1.391 . S
C1591 C1590 1.386 . S
C1591 C1595 1.393 . S
C1592 H1581 0.950 . S
C1592 C1590 1.391 . S
C1592 C1593 1.400 . S
C1593 C1587 1.491 . S
C1593 C1592 1.400 . S
C1593 C1594 1.398 . S
C1594 H1582 0.950 . S
C1594 C1593 1.398 . S
C1594 C1595 1.391 . S
C1595 H1583 0.950 . S
C1595 C1591 1.393 . S
C1595 C1594 1.391 . S
H1596 C1604 0.950 . S
H1597 C1609 0.950 . S
H1598 C1606 0.950 . S
H1599 C1608 0.950 . S
H1600 C1610 0.950 . S
H1601 C1612 0.950 . S
H1602 C1614 0.950 . S
H1603 C1615 0.950 . S
C1604 H1596 0.950 . S
C1604 C1605 1.386 . S
C1604 C1606 1.391 . S
C1605 C1604 1.386 . S
C1605 C1609 1.393 1_455 S
C1606 H1598 0.950 . S
C1606 C1604 1.391 . S
C1606 C1607 1.400 . S
C1607 C1606 1.400 . S
C1607 C1608 1.398 1_455 S
C1607 C1613 1.491 . S
C1608 H1599 0.950 . S
C1608 C1607 1.398 1_655 S
C1608 C1609 1.391 . S
C1609 H1597 0.950 . S
C1609 C1605 1.393 1_655 S
C1609 C1608 1.391 . S
C1610 H1600 0.950 . S
C1610 C1611 1.386 1_655 S
C1610 C1612 1.391 . S
C1611 C1610 1.386 1_455 S
C1611 C1615 1.393 . S
C1612 H1601 0.950 . S
C1612 C1610 1.391 . S
C1612 C1613 1.400 1_655 S
C1613 C1607 1.491 . S
C1613 C1612 1.400 1_455 S
C1613 C1614 1.398 . S
C1614 H1602 0.950 . S
C1614 C1613 1.398 . S
C1614 C1615 1.391 . S
C1615 H1603 0.950 . S
C1615 C1611 1.393 . S
C1615 C1614 1.391 . S
H1616 C1624 0.950 . S
H1617 C1629 0.950 . S
H1618 C1626 0.950 . S
H1619 C1628 0.950 . S
H1620 C1630 0.950 . S
H1621 C1632 0.950 . S
H1622 C1634 0.950 . S
H1623 C1635 0.950 . S
C1624 H1616 0.950 . S
C1624 C1625 1.386 . S
C1624 C1626 1.391 . S
C1625 C1624 1.386 . S
C1625 C1629 1.393 . S
C1626 H1618 0.950 . S
C1626 C1624 1.391 . S
C1626 C1627 1.400 . S
C1627 C1626 1.400 . S
C1627 C1628 1.398 . S
C1627 C1633 1.491 . S
C1628 H1619 0.950 . S
C1628 C1627 1.398 . S
C1628 C1629 1.391 . S
C1629 H1617 0.950 . S
C1629 C1625 1.393 . S
C1629 C1628 1.391 . S
C1630 H1620 0.950 . S
C1630 C1631 1.386 . S
C1630 C1632 1.391 . S
C1631 C1630 1.386 . S
C1631 C1635 1.393 . S
C1632 H1621 0.950 . S
C1632 C1630 1.391 . S
C1632 C1633 1.400 . S
C1633 C1627 1.491 . S
C1633 C1632 1.400 . S
C1633 C1634 1.398 . S
C1634 H1622 0.950 . S
C1634 C1633 1.398 . S
C1634 C1635 1.391 . S
C1635 H1623 0.950 . S
C1635 C1631 1.393 . S
C1635 C1634 1.391 . S
H1636 C1644 0.950 . S
H1637 C1649 0.950 . S
H1638 C1646 0.950 . S
H1639 C1648 0.950 . S
H1640 C1650 0.950 . S
H1641 C1652 0.950 . S
H1642 C1654 0.950 . S
H1643 C1655 0.950 . S
C1644 H1636 0.950 . S
C1644 C1645 1.386 . S
C1644 C1646 1.391 . S
C1645 C1644 1.386 . S
C1645 C1649 1.393 1_565 S
C1646 H1638 0.950 . S
C1646 C1644 1.391 . S
C1646 C1647 1.400 . S
C1647 C1646 1.400 . S
C1647 C1648 1.398 1_565 S
C1647 C1653 1.491 . S
C1648 H1639 0.950 . S
C1648 C1647 1.398 1_545 S
C1648 C1649 1.391 . S
C1649 H1637 0.950 . S
C1649 C1645 1.393 1_545 S
C1649 C1648 1.391 . S
C1650 H1640 0.950 . S
C1650 C1651 1.386 1_545 S
C1650 C1652 1.391 . S
C1651 C1650 1.386 1_565 S
C1651 C1655 1.393 . S
C1652 H1641 0.950 . S
C1652 C1650 1.391 . S
C1652 C1653 1.400 1_545 S
C1653 C1647 1.491 . S
C1653 C1652 1.400 1_565 S
C1653 C1654 1.398 . S
C1654 H1642 0.950 . S
C1654 C1653 1.398 . S
C1654 C1655 1.391 . S
C1655 H1643 0.950 . S
C1655 C1651 1.393 . S
C1655 C1654 1.391 . S
H1656 C1664 0.950 . S
H1657 C1669 0.950 . S
H1658 C1666 0.950 . S
H1659 C1668 0.950 . S
H1660 C1670 0.950 . S
H1661 C1672 0.950 . S
H1662 C1674 0.950 . S
H1663 C1675 0.950 . S
C1664 H1656 0.950 . S
C1664 C1665 1.386 1_545 S
C1664 C1666 1.391 . S
C1665 C1664 1.386 1_565 S
C1665 C1669 1.393 . S
C1666 H1658 0.950 . S
C1666 C1664 1.391 . S
C1666 C1667 1.400 1_545 S
C1667 C1666 1.400 1_565 S
C1667 C1668 1.398 . S
C1667 C1673 1.491 . S
C1668 H1659 0.950 . S
C1668 C1667 1.398 . S
C1668 C1669 1.391 . S
C1669 H1657 0.950 . S
C1669 C1665 1.393 . S
C1669 C1668 1.391 . S
C1670 H1660 0.950 . S
C1670 C1671 1.382 . S
C1670 C1672 1.391 . S
C1671 C1670 1.382 . S
C1671 C1675 1.394 1_565 S
C1672 H1661 0.950 . S
C1672 C1670 1.391 . S
C1672 C1673 1.400 . S
C1673 C1667 1.491 . S
C1673 C1672 1.400 . S
C1673 C1674 1.398 1_565 S
C1674 H1662 0.950 . S
C1674 C1673 1.398 1_545 S
C1674 C1675 1.391 . S
C1675 H1663 0.950 . S
C1675 C1671 1.394 1_545 S
C1675 C1674 1.391 . S
H1676 C1684 0.950 . S
H1677 C1689 0.925 1_655 S
H1678 C1686 0.950 . S
H1679 C1688 0.951 1_655 S
H1680 C1690 0.950 . S
H1681 C1692 0.950 . S
H1682 C1694 0.950 . S
H1683 C1695 0.950 . S
C1684 H1676 0.950 . S
C1684 C1685 1.386 . S
C1684 C1686 1.391 . S
C1685 C1684 1.386 . S
C1685 C1689 1.393 . S
C1686 H1678 0.950 . S
C1686 C1684 1.391 . S
C1686 C1687 1.400 . S
C1687 C1686 1.400 . S
C1687 C1688 1.394 . S
C1687 C1693 1.491 . S
C1688 H1679 0.951 1_455 S
C1688 C1687 1.394 . S
C1688 C1689 1.393 . S
C1689 H1677 0.925 1_455 S
C1689 C1685 1.393 . S
C1689 C1688 1.393 . S
C1690 H1680 0.950 . S
C1690 C1691 1.367 1_655 S
C1690 C1692 1.391 . S
C1691 C1690 1.367 1_455 S
C1691 C1695 1.398 . S
C1692 H1681 0.950 . S
C1692 C1690 1.391 . S
C1692 C1693 1.400 1_655 S
C1693 C1687 1.491 . S
C1693 C1692 1.400 1_455 S
C1693 C1694 1.398 . S
C1694 H1682 0.950 . S
C1694 C1693 1.398 . S
C1694 C1695 1.391 . S
C1695 H1683 0.950 . S
C1695 C1691 1.398 . S
C1695 C1694 1.391 . S
H1696 C1704 0.950 . S
H1697 C1709 0.950 . S
H1698 C1706 0.950 . S
H1699 C1708 0.950 . S
H1700 C1710 0.950 . S
H1701 C1712 0.950 . S
H1702 C1714 0.950 . S
H1703 C1715 0.950 . S
C1704 H1696 0.950 . S
C1704 C1705 1.386 . S
C1704 C1706 1.391 . S
C1705 C1704 1.386 . S
C1705 C1709 1.393 . S
C1706 H1698 0.950 . S
C1706 C1704 1.391 . S
C1706 C1707 1.400 . S
C1707 C1706 1.400 . S
C1707 C1708 1.398 . S
C1707 C1713 1.491 . S
C1708 H1699 0.950 . S
C1708 C1707 1.398 . S
C1708 C1709 1.391 . S
C1709 H1697 0.950 . S
C1709 C1705 1.393 . S
C1709 C1708 1.391 . S
C1710 H1700 0.950 . S
C1710 C1711 1.386 . S
C1710 C1712 1.391 . S
C1711 C1710 1.386 . S
C1711 C1715 1.393 . S
C1712 H1701 0.950 . S
C1712 C1710 1.391 . S
C1712 C1713 1.400 . S
C1713 C1707 1.491 . S
C1713 C1712 1.400 . S
C1713 C1714 1.398 . S
C1714 H1702 0.950 . S
C1714 C1713 1.398 . S
C1714 C1715 1.391 . S
C1715 H1703 0.950 . S
C1715 C1711 1.393 . S
C1715 C1714 1.391 . S
H1716 C1724 0.950 . S
H1717 C1729 0.950 . S
H1718 C1726 0.950 . S
H1719 C1728 0.950 . S
H1720 C1730 0.950 . S
H1721 C1732 0.950 . S
H1722 C1734 0.950 . S
H1723 C1735 0.950 . S
C1724 H1716 0.950 . S
C1724 C1725 1.386 . S
C1724 C1726 1.391 . S
C1725 C1724 1.386 . S
C1725 C1729 1.393 . S
C1726 H1718 0.950 . S
C1726 C1724 1.391 . S
C1726 C1727 1.400 . S
C1727 C1726 1.400 . S
C1727 C1728 1.398 . S
C1727 C1733 1.491 . S
C1728 H1719 0.950 . S
C1728 C1727 1.398 . S
C1728 C1729 1.391 . S
C1729 H1717 0.950 . S
C1729 C1725 1.393 . S
C1729 C1728 1.391 . S
C1730 H1720 0.950 . S
C1730 C1731 1.386 . S
C1730 C1732 1.391 . S
C1731 C1730 1.386 . S
C1731 C1735 1.393 . S
C1732 H1721 0.950 . S
C1732 C1730 1.391 . S
C1732 C1733 1.400 . S
C1733 C1727 1.491 . S
C1733 C1732 1.400 . S
C1733 C1734 1.398 . S
C1734 H1722 0.950 . S
C1734 C1733 1.398 . S
C1734 C1735 1.391 . S
C1735 H1723 0.950 . S
C1735 C1731 1.393 . S
C1735 C1734 1.391 . S
H1736 C1744 0.950 . S
H1737 C1749 0.950 . S
H1738 C1746 0.950 . S
H1739 C1748 0.950 . S
H1740 C1750 0.950 . S
H1741 C1752 0.950 . S
H1742 C1754 0.950 . S
H1743 C1755 0.950 . S
C1744 H1736 0.950 . S
C1744 C1745 1.386 . S
C1744 C1746 1.391 . S
C1745 C1744 1.386 . S
C1745 C1749 1.393 . S
C1746 H1738 0.950 . S
C1746 C1744 1.391 . S
C1746 C1747 1.400 . S
C1747 C1746 1.400 . S
C1747 C1748 1.398 . S
C1747 C1753 1.491 . S
C1748 H1739 0.950 . S
C1748 C1747 1.398 . S
C1748 C1749 1.391 . S
C1749 H1737 0.950 . S
C1749 C1745 1.393 . S
C1749 C1748 1.391 . S
C1750 H1740 0.950 . S
C1750 C1751 1.386 . S
C1750 C1752 1.391 . S
C1751 C1750 1.386 . S
C1751 C1755 1.393 . S
C1752 H1741 0.950 . S
C1752 C1750 1.391 . S
C1752 C1753 1.400 . S
C1753 C1747 1.491 . S
C1753 C1752 1.400 . S
C1753 C1754 1.398 . S
C1754 H1742 0.950 . S
C1754 C1753 1.398 . S
C1754 C1755 1.391 . S
C1755 H1743 0.950 . S
C1755 C1751 1.393 . S
C1755 C1754 1.391 . S
H1756 C1764 0.950 . S
H1757 C1769 0.950 . S
H1758 C1766 0.950 . S
H1759 C1768 0.950 . S
H1760 C1770 0.950 . S
H1761 C1772 0.950 . S
H1762 C1774 0.950 . S
H1763 C1775 0.950 . S
C1764 H1756 0.950 . S
C1764 C1765 1.386 . S
C1764 C1766 1.391 . S
C1765 C1764 1.386 . S
C1765 C1769 1.393 . S
C1766 H1758 0.950 . S
C1766 C1764 1.391 . S
C1766 C1767 1.400 . S
C1767 C1766 1.400 . S
C1767 C1768 1.398 . S
C1767 C1773 1.491 . S
C1768 H1759 0.950 . S
C1768 C1767 1.398 . S
C1768 C1769 1.391 . S
C1769 H1757 0.950 . S
C1769 C1765 1.393 . S
C1769 C1768 1.391 . S
C1770 H1760 0.950 . S
C1770 C1771 1.386 . S
C1770 C1772 1.391 . S
C1771 C1770 1.386 . S
C1771 C1775 1.393 . S
C1772 H1761 0.950 . S
C1772 C1770 1.391 . S
C1772 C1773 1.400 . S
C1773 C1767 1.491 . S
C1773 C1772 1.400 . S
C1773 C1774 1.398 . S
C1774 H1762 0.950 . S
C1774 C1773 1.398 . S
C1774 C1775 1.391 . S
C1775 H1763 0.950 . S
C1775 C1771 1.393 . S
C1775 C1774 1.391 . S
H1776 C1784 0.950 . S
H1777 C1789 0.950 . S
H1778 C1786 0.950 . S
H1779 C1788 0.950 . S
H1780 C1790 0.950 . S
H1781 C1792 0.950 . S
H1782 C1794 0.950 . S
H1783 C1795 0.950 . S
C1784 H1776 0.950 . S
C1784 C1785 1.386 1_565 S
C1784 C1786 1.391 . S
C1785 C1784 1.386 1_545 S
C1785 C1789 1.393 . S
C1786 H1778 0.950 . S
C1786 C1784 1.391 . S
C1786 C1787 1.400 1_565 S
C1787 C1786 1.400 1_545 S
C1787 C1788 1.398 . S
C1787 C1793 1.491 . S
C1788 H1779 0.950 . S
C1788 C1787 1.398 . S
C1788 C1789 1.391 . S
C1789 H1777 0.950 . S
C1789 C1785 1.393 . S
C1789 C1788 1.391 . S
C1790 H1780 0.950 . S
C1790 C1791 1.386 . S
C1790 C1792 1.391 . S
C1791 C1790 1.386 . S
C1791 C1795 1.393 1_545 S
C1792 H1781 0.950 . S
C1792 C1790 1.391 . S
C1792 C1793 1.400 . S
C1793 C1787 1.491 . S
C1793 C1792 1.400 . S
C1793 C1794 1.398 1_545 S
C1794 H1782 0.950 . S
C1794 C1793 1.398 1_565 S
C1794 C1795 1.391 . S
C1795 H1783 0.950 . S
C1795 C1791 1.393 1_565 S
C1795 C1794 1.391 . S
H1796 C1804 0.950 . S
H1797 C1809 0.950 . S
H1798 C1806 0.950 . S
H1799 C1808 0.950 . S
H1800 C1810 0.950 . S
H1801 C1812 0.950 . S
H1802 C1814 0.950 . S
H1803 C1815 0.950 . S
C1804 H1796 0.950 . S
C1804 C1805 1.386 . S
C1804 C1806 1.391 . S
C1805 C1804 1.386 . S
C1805 C1809 1.393 1_655 S
C1806 H1798 0.950 . S
C1806 C1804 1.391 . S
C1806 C1807 1.400 . S
C1807 C1806 1.400 . S
C1807 C1808 1.398 1_655 S
C1807 C1813 1.491 . S
C1808 H1799 0.950 . S
C1808 C1807 1.398 1_455 S
C1808 C1809 1.391 . S
C1809 H1797 0.950 . S
C1809 C1805 1.393 1_455 S
C1809 C1808 1.391 . S
C1810 H1800 0.950 . S
C1810 C1811 1.386 1_455 S
C1810 C1812 1.391 . S
C1811 C1810 1.386 1_655 S
C1811 C1815 1.393 . S
C1812 H1801 0.950 . S
C1812 C1810 1.391 . S
C1812 C1813 1.400 1_455 S
C1813 C1807 1.491 . S
C1813 C1812 1.400 1_655 S
C1813 C1814 1.398 . S
C1814 H1802 0.950 . S
C1814 C1813 1.398 . S
C1814 C1815 1.391 . S
C1815 H1803 0.950 . S
C1815 C1811 1.393 . S
C1815 C1814 1.391 . S
H1816 C1824 0.950 . S
H1817 C1829 0.950 . S
H1818 C1826 0.950 . S
H1819 C1828 0.950 . S
H1820 C1830 0.950 . S
H1821 C1832 0.950 . S
H1822 C1834 0.950 . S
H1823 C1835 0.950 . S
C1824 H1816 0.950 . S
C1824 C1825 1.386 . S
C1824 C1826 1.391 . S
C1825 C1824 1.386 . S
C1825 C1829 1.393 . S
C1826 H1818 0.950 . S
C1826 C1824 1.391 . S
C1826 C1827 1.400 . S
C1827 C1826 1.400 . S
C1827 C1828 1.398 . S
C1827 C1833 1.491 . S
C1828 H1819 0.950 . S
C1828 C1827 1.398 . S
C1828 C1829 1.391 . S
C1829 H1817 0.950 . S
C1829 C1825 1.393 . S
C1829 C1828 1.391 . S
C1830 H1820 0.950 . S
C1830 C1831 1.386 . S
C1830 C1832 1.391 . S
C1831 C1830 1.386 . S
C1831 C1835 1.393 . S
C1832 H1821 0.950 . S
C1832 C1830 1.391 . S
C1832 C1833 1.400 . S
C1833 C1827 1.491 . S
C1833 C1832 1.400 . S
C1833 C1834 1.398 . S
C1834 H1822 0.950 . S
C1834 C1833 1.398 . S
C1834 C1835 1.391 . S
C1835 H1823 0.950 . S
C1835 C1831 1.393 . S
C1835 C1834 1.391 . S
H1836 C1844 0.950 . S
H1837 C1849 0.950 . S
H1838 C1846 0.950 . S
H1839 C1848 0.950 . S
H1840 C1850 0.950 . S
H1841 C1852 0.950 . S
H1842 C1854 0.950 . S
H1843 C1855 0.950 . S
C1844 H1836 0.950 . S
C1844 C1845 1.386 . S
C1844 C1846 1.391 . S
C1845 C1844 1.386 . S
C1845 C1849 1.393 . S
C1846 H1838 0.950 . S
C1846 C1844 1.391 . S
C1846 C1847 1.400 . S
C1847 C1846 1.400 . S
C1847 C1848 1.398 . S
C1847 C1853 1.491 . S
C1848 H1839 0.950 . S
C1848 C1847 1.398 . S
C1848 C1849 1.391 . S
C1849 H1837 0.950 . S
C1849 C1845 1.393 . S
C1849 C1848 1.391 . S
C1850 H1840 0.950 . S
C1850 C1851 1.386 . S
C1850 C1852 1.391 . S
C1851 C1850 1.386 . S
C1851 C1855 1.393 . S
C1852 H1841 0.950 . S
C1852 C1850 1.391 . S
C1852 C1853 1.400 . S
C1853 C1847 1.491 . S
C1853 C1852 1.400 . S
C1853 C1854 1.398 . S
C1854 H1842 0.950 . S
C1854 C1853 1.398 . S
C1854 C1855 1.391 . S
C1855 H1843 0.950 . S
C1855 C1851 1.393 . S
C1855 C1854 1.391 . S
H1856 C1864 0.950 . S
H1857 C1869 0.950 . S
H1858 C1866 0.950 . S
H1859 C1868 0.950 . S
H1860 C1870 0.950 . S
H1861 C1872 0.950 . S
H1862 C1874 0.950 . S
H1863 C1875 0.950 . S
C1864 H1856 0.950 . S
C1864 C1865 1.386 . S
C1864 C1866 1.391 . S
C1865 C1864 1.386 . S
C1865 C1869 1.393 . S
C1866 H1858 0.950 . S
C1866 C1864 1.391 . S
C1866 C1867 1.400 . S
C1867 C1866 1.400 . S
C1867 C1868 1.398 . S
C1867 C1873 1.491 . S
C1868 H1859 0.950 . S
C1868 C1867 1.398 . S
C1868 C1869 1.391 . S
C1869 H1857 0.950 . S
C1869 C1865 1.393 . S
C1869 C1868 1.391 . S
C1870 H1860 0.950 . S
C1870 C1871 1.386 . S
C1870 C1872 1.391 . S
C1871 C1870 1.386 . S
C1871 C1875 1.393 . S
C1872 H1861 0.950 . S
C1872 C1870 1.391 . S
C1872 C1873 1.400 . S
C1873 C1867 1.491 . S
C1873 C1872 1.400 . S
C1873 C1874 1.398 . S
C1874 H1862 0.950 . S
C1874 C1873 1.398 . S
C1874 C1875 1.391 . S
C1875 H1863 0.950 . S
C1875 C1871 1.393 . S
C1875 C1874 1.391 . S
H1876 C1884 0.950 . S
H1877 C1889 0.950 . S
H1878 C1886 0.950 . S
H1879 C1888 0.950 . S
H1880 C1890 0.950 . S
H1881 C1892 0.950 . S
H1882 C1894 0.950 . S
H1883 C1895 0.950 . S
C1884 H1876 0.950 . S
C1884 C1885 1.386 . S
C1884 C1886 1.391 . S
C1885 C1884 1.386 . S
C1885 C1889 1.393 . S
C1886 H1878 0.950 . S
C1886 C1884 1.391 . S
C1886 C1887 1.400 . S
C1887 C1886 1.400 . S
C1887 C1888 1.398 . S
C1887 C1893 1.491 . S
C1888 H1879 0.950 . S
C1888 C1887 1.398 . S
C1888 C1889 1.391 . S
C1889 H1877 0.950 . S
C1889 C1885 1.393 . S
C1889 C1888 1.391 . S
C1890 H1880 0.950 . S
C1890 C1891 1.386 . S
C1890 C1892 1.391 . S
C1891 C1890 1.386 . S
C1891 C1895 1.393 . S
C1892 H1881 0.950 . S
C1892 C1890 1.391 . S
C1892 C1893 1.400 . S
C1893 C1887 1.491 . S
C1893 C1892 1.400 . S
C1893 C1894 1.398 . S
C1894 H1882 0.950 . S
C1894 C1893 1.398 . S
C1894 C1895 1.391 . S
C1895 H1883 0.950 . S
C1895 C1891 1.393 . S
C1895 C1894 1.391 . S
H1896 C1904 0.950 . S
H1897 C1909 0.950 . S
H1898 C1906 0.950 . S
H1899 C1908 0.950 . S
H1900 C1910 0.950 . S
H1901 C1912 0.950 . S
H1902 C1914 0.950 . S
H1903 C1915 0.950 . S
C1904 H1896 0.950 . S
C1904 C1905 1.386 . S
C1904 C1906 1.391 . S
C1905 C1904 1.386 . S
C1905 C1909 1.393 . S
C1906 H1898 0.950 . S
C1906 C1904 1.391 . S
C1906 C1907 1.400 . S
C1907 C1906 1.400 . S
C1907 C1908 1.398 . S
C1907 C1913 1.491 . S
C1908 H1899 0.950 . S
C1908 C1907 1.398 . S
C1908 C1909 1.391 . S
C1909 H1897 0.950 . S
C1909 C1905 1.393 . S
C1909 C1908 1.391 . S
C1910 H1900 0.950 . S
C1910 C1911 1.386 . S
C1910 C1912 1.391 . S
C1911 C1910 1.386 . S
C1911 C1915 1.393 . S
C1912 H1901 0.950 . S
C1912 C1910 1.391 . S
C1912 C1913 1.400 . S
C1913 C1907 1.491 . S
C1913 C1912 1.400 . S
C1913 C1914 1.398 . S
C1914 H1902 0.950 . S
C1914 C1913 1.398 . S
C1914 C1915 1.391 . S
C1915 H1903 0.950 . S
C1915 C1911 1.393 . S
C1915 C1914 1.391 . S
H1916 C1924 0.950 . S
H1917 C1929 0.950 . S
H1918 C1926 0.950 . S
H1919 C1928 0.950 . S
H1920 C1930 0.950 . S
H1921 C1932 0.950 . S
H1922 C1934 0.950 . S
H1923 C1935 0.950 . S
C1924 H1916 0.950 . S
C1924 C1925 1.386 . S
C1924 C1926 1.391 . S
C1925 C1924 1.386 . S
C1925 C1929 1.393 . S
C1926 H1918 0.950 . S
C1926 C1924 1.391 . S
C1926 C1927 1.400 . S
C1927 C1926 1.400 . S
C1927 C1928 1.398 . S
C1927 C1933 1.491 . S
C1928 H1919 0.950 . S
C1928 C1927 1.398 . S
C1928 C1929 1.391 . S
C1929 H1917 0.950 . S
C1929 C1925 1.393 . S
C1929 C1928 1.391 . S
C1930 H1920 0.950 . S
C1930 C1931 1.386 . S
C1930 C1932 1.391 . S
C1931 C1930 1.386 . S
C1931 C1935 1.393 . S
C1932 H1921 0.950 . S
C1932 C1930 1.391 . S
C1932 C1933 1.400 . S
C1933 C1927 1.491 . S
C1933 C1932 1.400 . S
C1933 C1934 1.398 . S
C1934 H1922 0.950 . S
C1934 C1933 1.398 . S
C1934 C1935 1.391 . S
C1935 H1923 0.950 . S
C1935 C1931 1.393 . S
C1935 C1934 1.391 . S
H1936 C1944 0.950 . S
H1937 C1949 0.950 . S
H1938 C1946 0.950 . S
H1939 C1948 0.950 . S
H1940 C1950 0.950 . S
H1941 C1952 0.950 . S
H1942 C1954 0.950 . S
H1943 C1955 0.950 . S
C1944 H1936 0.950 . S
C1944 C1945 1.386 . S
C1944 C1946 1.391 . S
C1945 C1944 1.386 . S
C1945 C1949 1.393 . S
C1946 H1938 0.950 . S
C1946 C1944 1.391 . S
C1946 C1947 1.400 . S
C1947 C1946 1.400 . S
C1947 C1948 1.398 . S
C1947 C1953 1.491 . S
C1948 H1939 0.950 . S
C1948 C1947 1.398 . S
C1948 C1949 1.391 . S
C1949 H1937 0.950 . S
C1949 C1945 1.393 . S
C1949 C1948 1.391 . S
C1950 H1940 0.950 . S
C1950 C1951 1.386 . S
C1950 C1952 1.391 . S
C1951 C1950 1.386 . S
C1951 C1955 1.393 . S
C1952 H1941 0.950 . S
C1952 C1950 1.391 . S
C1952 C1953 1.400 . S
C1953 C1947 1.491 . S
C1953 C1952 1.400 . S
C1953 C1954 1.398 . S
C1954 H1942 0.950 . S
C1954 C1953 1.398 . S
C1954 C1955 1.391 . S
C1955 H1943 0.950 . S
C1955 C1951 1.393 . S
C1955 C1954 1.391 . S
H1956 C1964 0.950 . S
H1957 C1969 0.950 . S
H1958 C1966 0.950 . S
H1959 C1968 0.950 . S
H1960 C1970 0.950 . S
H1961 C1972 0.950 . S
H1962 C1974 0.950 . S
H1963 C1975 0.950 . S
C1964 H1956 0.950 . S
C1964 C1965 1.386 . S
C1964 C1966 1.391 . S
C1965 C1964 1.386 . S
C1965 C1969 1.393 1_655 S
C1966 H1958 0.950 . S
C1966 C1964 1.391 . S
C1966 C1967 1.400 . S
C1967 C1966 1.400 . S
C1967 C1968 1.398 1_655 S
C1967 C1973 1.491 . S
C1968 H1959 0.950 . S
C1968 C1967 1.398 1_455 S
C1968 C1969 1.391 . S
C1969 H1957 0.950 . S
C1969 C1965 1.393 1_455 S
C1969 C1968 1.391 . S
C1970 H1960 0.950 . S
C1970 C1971 1.361 1_455 S
C1970 C1972 1.391 . S
C1971 C1970 1.361 1_655 S
C1971 C1975 1.450 . S
C1972 H1961 0.950 . S
C1972 C1970 1.391 . S
C1972 C1973 1.400 1_455 S
C1973 C1967 1.491 . S
C1973 C1972 1.400 1_655 S
C1973 C1974 1.398 . S
C1974 H1962 0.950 . S
C1974 C1973 1.398 . S
C1974 C1975 1.391 . S
C1975 H1963 0.950 . S
C1975 C1971 1.450 . S
C1975 C1974 1.391 . S
H1976 C1984 0.950 . S
H1977 C1989 0.950 . S
H1978 C1986 0.950 . S
H1979 C1988 0.950 . S
H1980 C1990 0.950 . S
H1981 C1992 0.950 . S
H1982 C1994 0.950 . S
H1983 C1995 0.950 . S
C1984 H1976 0.950 . S
C1984 C1985 1.386 . S
C1984 C1986 1.391 . S
C1985 C1984 1.386 . S
C1985 C1989 1.393 . S
C1986 H1978 0.950 . S
C1986 C1984 1.391 . S
C1986 C1987 1.400 . S
C1987 C1986 1.400 . S
C1987 C1988 1.398 . S
C1987 C1993 1.491 . S
C1988 H1979 0.950 . S
C1988 C1987 1.398 . S
C1988 C1989 1.391 . S
C1989 H1977 0.950 . S
C1989 C1985 1.393 . S
C1989 C1988 1.391 . S
C1990 H1980 0.950 . S
C1990 C1991 1.386 . S
C1990 C1992 1.391 . S
C1991 C1990 1.386 . S
C1991 C1995 1.393 . S
C1992 H1981 0.950 . S
C1992 C1990 1.391 . S
C1992 C1993 1.400 . S
C1993 C1987 1.491 . S
C1993 C1992 1.400 . S
C1993 C1994 1.398 . S
C1994 H1982 0.950 . S
C1994 C1993 1.398 . S
C1994 C1995 1.391 . S
C1995 H1983 0.950 . S
C1995 C1991 1.393 . S
C1995 C1994 1.391 . S
H1996 C2004 0.950 . S
H1997 C2009 0.950 . S
H1998 C2006 0.950 . S
H1999 C2008 0.950 . S
H2000 C2010 0.950 . S
H2001 C2012 0.950 . S
H2002 C2014 0.950 . S
H2003 C2015 0.950 . S
C2004 H1996 0.950 . S
C2004 C2005 1.386 1_565 S
C2004 C2006 1.391 . S
C2005 C2004 1.386 1_545 S
C2005 C2009 1.393 . S
C2006 H1998 0.950 . S
C2006 C2004 1.391 . S
C2006 C2007 1.400 1_565 S
C2007 C2006 1.400 1_545 S
C2007 C2008 1.398 . S
C2007 C2013 1.491 . S
C2008 H1999 0.950 . S
C2008 C2007 1.398 . S
C2008 C2009 1.391 . S
C2009 H1997 0.950 . S
C2009 C2005 1.393 . S
C2009 C2008 1.391 . S
C2010 H2000 0.950 . S
C2010 C2011 1.369 1_545 S
C2010 C2012 1.391 . S
C2011 C2010 1.369 1_565 S
C2011 C2015 1.421 . S
C2012 H2001 0.950 . S
C2012 C2010 1.391 . S
C2012 C2013 1.400 . S
C2013 C2007 1.491 . S
C2013 C2012 1.400 . S
C2013 C2014 1.398 1_545 S
C2014 H2002 0.950 . S
C2014 C2013 1.398 1_565 S
C2014 C2015 1.391 . S
C2015 H2003 0.950 . S
C2015 C2011 1.421 . S
C2015 C2014 1.391 . S
C585 C7 1.493 . S
C591 C421 1.507 . S
C605 C23 1.573 . S
C611 C446 1.570 . S
C631 C457 1.516 . S
C625 C37 1.524 . S
C645 C35 1.530 1_545 S
C651 C482 1.532 . S
C665 C9 1.534 1_455 S
C671 C500 1.545 . S
C685 C21 1.553 . S
C691 C511 1.565 . S
C705 C49 1.509 . S
C711 C493 1.524 1_455 S
C731 C518 1.534 . S
C725 C65 1.538 . S
C751 C475 1.544 . S
C745 C79 1.531 1_565 S
C765 C77 1.487 . S
C771 C464 1.485 . S
C791 C428 1.534 1_655 S
C785 C51 1.539 1_655 S
C805 C63 1.509 . S
C811 C439 1.535 . S
C825 C91 1.584 . S
C831 C529 1.598 . S
C845 C107 1.615 . S
C851 C554 1.590 . S
C871 C565 1.586 . S
C865 C121 1.621 . S
C885 C119 1.586 . S
C891 C266 1.602 . S
C905 C93 1.619 . S
C911 C284 1.610 . S
C925 C105 1.582 . S
C931 C295 1.590 . S
C945 C133 1.507 . S
C951 C277 1.532 . S
C965 C149 1.572 . S
C971 C302 1.565 . S
C991 C259 1.573 . S
C985 C163 1.589 . S
C1011 C572 1.608 . S
C1005 C161 1.589 . S
C1031 C536 1.565 . S
C1025 C135 1.586 . S
C1051 C547 1.580 . S
C1045 C147 1.547 . S
C1065 C175 1.558 . S
C1071 C313 1.566 . S
C1085 C191 1.594 . S
C1091 C338 1.575 . S
C1105 C205 1.625 . S
C1111 C349 1.583 . S
C1125 C203 1.605 . S
C1131 C374 1.627 . S
C1151 C392 1.612 . S
C1145 C177 1.623 . S
C1171 C403 1.599 . S
C1165 C189 1.581 . S
C1191 C385 1.594 . S
C1185 C217 1.570 . S
C1211 C410 1.572 . S
C1205 C233 1.578 . S
C1225 C247 1.588 . S
C1231 C367 1.581 . S
C1251 C356 1.564 . S
C1245 C245 1.551 . S
C1265 C219 1.589 . S
C1271 C320 1.570 . S
C1291 C331 1.566 . S
C1285 C231 1.551 . S
C1311 C268 1.442 . S
C1305 C8 1.520 . S
C1325 C17 1.468 . S
C1331 C286 1.414 . S
C1351 C296 1.448 . S
C1345 C31 1.521 . S
C1371 C314 1.446 . S
C1365 C36 1.530 . S
C1391 C340 1.446 . S
C1385 C3 1.499 . S
C1411 C350 1.397 . S
C1405 C22 1.469 . S
C1425 C50 1.555 . S
C1431 C358 1.479 . S
C1445 C59 1.495 . S
C1451 C322 1.414 . S
C1465 C73 1.531 . S
C1471 C332 1.472 . S
C1485 C78 1.575 . S
C1491 C278 1.498 . S
C1511 C304 1.423 . S
C1505 C45 1.530 . S
C1525 C64 1.505 . S
C1531 C260 1.423 . S
C1551 C376 1.430 . S
C1545 C92 1.512 . S
C1565 C101 1.552 . S
C1571 C394 1.462 . S
C1585 C115 1.567 . S
C1591 C404 1.496 . S
C1611 C422 1.422 . S
C1605 C120 1.475 . S
C1625 C87 1.510 . S
C1631 C448 1.438 . S
C1645 C106 1.447 . S
C1651 C458 1.400 . S
C1665 C134 1.470 . S
C1671 C466 1.428 . S
C1685 C143 1.469 . S
C1691 C430 1.399 . S
C1711 C440 1.485 . S
C1705 C157 1.549 . S
C1725 C162 1.554 . S
C1731 C386 1.485 . S
C1745 C129 1.587 . S
C1751 C412 1.501 . S
C1771 C368 1.476 . S
C1765 C148 1.572 . S
C1791 C484 1.385 . S
C1785 C176 1.462 . S
C1805 C185 1.461 . S
C1811 C502 1.402 . S
C1825 C199 1.522 . S
C1831 C512 1.459 . S
C1851 C530 1.426 . S
C1845 C204 1.511 . S
C1871 C556 1.495 . S
C1865 C171 1.560 . S
C1885 C190 1.542 . S
C1891 C566 1.474 . S
C1905 C218 1.551 . S
C1911 C574 1.462 . S
C1925 C227 1.577 . S
C1931 C538 1.462 . S
C1951 C548 1.503 . S
C1945 C241 1.587 . S
C1971 C494 1.355 1_655 S
C1965 C246 1.471 . S
C1991 C520 1.456 . S
C1985 C213 1.537 . S
C2005 C232 1.457 . S
C2011 C476 1.396 . S
