# Generated by pormake.
# Topology dag, (6,3)-cn, num edge types: 1
# Building blocks:
#     Node 0, Type 0, BuildingBlock: MIDCAF_clean_sbu_0, # of connection points: 6
#     Node 1, Type 0, BuildingBlock: MIDCAF_clean_sbu_0, # of connection points: 6
#     Node 2, Type 0, BuildingBlock: MIDCAF_clean_sbu_0, # of connection points: 6
#     Node 3, Type 0, BuildingBlock: MIDCAF_clean_sbu_0, # of connection points: 6
#     Node 4, Type 1, BuildingBlock: INOVEN_clean_linker_0, # of connection points: 3
#     Node 5, Type 1, BuildingBlock: INOVEN_clean_linker_0, # of connection points: 3
#     Node 6, Type 1, BuildingBlock: INOVEN_clean_linker_0, # of connection points: 3
#     Node 7, Type 1, BuildingBlock: INOVEN_clean_linker_0, # of connection points: 3
#     Node 8, Type 1, BuildingBlock: INOVEN_clean_linker_0, # of connection points: 3
#     Node 9, Type 1, BuildingBlock: INOVEN_clean_linker_0, # of connection points: 3
#     Node 10, Type 1, BuildingBlock: INOVEN_clean_linker_0, # of connection points: 3
#     Node 11, Type 1, BuildingBlock: INOVEN_clean_linker_0, # of connection points: 3
#     Edge 12, Type (0, 1), BuildingBlock: AJUNOK_clean_linker_0, # of connection points: 2
#     Edge 13, Type (0, 1), BuildingBlock: AJUNOK_clean_linker_0, # of connection points: 2
#     Edge 14, Type (0, 1), BuildingBlock: AJUNOK_clean_linker_0, # of connection points: 2
#     Edge 15, Type (0, 1), BuildingBlock: AJUNOK_clean_linker_0, # of connection points: 2
#     Edge 16, Type (0, 1), BuildingBlock: AJUNOK_clean_linker_0, # of connection points: 2
#     Edge 17, Type (0, 1), BuildingBlock: AJUNOK_clean_linker_0, # of connection points: 2
#     Edge 18, Type (0, 1), BuildingBlock: AJUNOK_clean_linker_0, # of connection points: 2
#     Edge 19, Type (0, 1), BuildingBlock: AJUNOK_clean_linker_0, # of connection points: 2
#     Edge 20, Type (0, 1), BuildingBlock: AJUNOK_clean_linker_0, # of connection points: 2
#     Edge 21, Type (0, 1), BuildingBlock: AJUNOK_clean_linker_0, # of connection points: 2
#     Edge 22, Type (0, 1), BuildingBlock: AJUNOK_clean_linker_0, # of connection points: 2
#     Edge 23, Type (0, 1), BuildingBlock: AJUNOK_clean_linker_0, # of connection points: 2
#     Edge 24, Type (0, 1), BuildingBlock: AJUNOK_clean_linker_0, # of connection points: 2
#     Edge 25, Type (0, 1), BuildingBlock: AJUNOK_clean_linker_0, # of connection points: 2
#     Edge 26, Type (0, 1), BuildingBlock: AJUNOK_clean_linker_0, # of connection points: 2
#     Edge 27, Type (0, 1), BuildingBlock: AJUNOK_clean_linker_0, # of connection points: 2
#     Edge 28, Type (0, 1), BuildingBlock: AJUNOK_clean_linker_0, # of connection points: 2
#     Edge 29, Type (0, 1), BuildingBlock: AJUNOK_clean_linker_0, # of connection points: 2
#     Edge 30, Type (0, 1), BuildingBlock: AJUNOK_clean_linker_0, # of connection points: 2
#     Edge 31, Type (0, 1), BuildingBlock: AJUNOK_clean_linker_0, # of connection points: 2
#     Edge 32, Type (0, 1), BuildingBlock: AJUNOK_clean_linker_0, # of connection points: 2
#     Edge 33, Type (0, 1), BuildingBlock: AJUNOK_clean_linker_0, # of connection points: 2
#     Edge 34, Type (0, 1), BuildingBlock: AJUNOK_clean_linker_0, # of connection points: 2
#     Edge 35, Type (0, 1), BuildingBlock: AJUNOK_clean_linker_0, # of connection points: 2
# Relax obj value: 0.134
# Max RMSD: 0.145
# Mean RMSD: 0.117
data_MOF--net-dag--node1-MIDCAF_clean_sbu_0--node2-INOVEN_clean_linker_0--edge1-AJUNOK_clean_linker_0
_symmetry_space_group_name_H-M    P1
_symmetry_Int_Tables_number       1
_symmetry_cell_setting            triclinic
loop_
_symmetry_equiv_pos_as_xyz
'x, y, z'
_cell_length_a     29.36317
_cell_length_b     30.974511
_cell_length_c     22.79893
_cell_angle_alpha  92.555034
_cell_angle_beta   90.275673
_cell_angle_gamma 89.443327
loop_
_atom_site_label
_atom_site_type_symbol
_atom_site_fract_x
_atom_site_fract_y
_atom_site_fract_z
_atom_type_partial_charge
Zn0 Zn 0.12171 0.82077 0.16527 0.0
Zn1 Zn 0.17742 0.80642 0.97261 0.0
Zn2 Zn 0.14869 0.81664 0.06911 0.0
C3 C 0.15997 0.89295 0.98396 0.0
C4 C 0.09815 0.76671 0.96308 0.0
O5 O 0.1891 0.773 0.12588 0.0
O6 O 0.13758 0.76345 0.19393 0.0
C7 C 0.16679 0.89654 0.15353 0.0
O8 O 0.15975 0.88266 0.03821 0.0
O9 O 0.16402 0.86383 0.94394 0.0
O10 O 0.13669 0.75988 0.93999 0.0
O11 O 0.09544 0.78958 1.01162 0.0
O12 O 0.16001 0.87022 0.19316 0.0
O13 O 0.15991 0.88399 0.09962 0.0
O14 O 0.07414 0.80358 0.06493 0.0
O15 O 0.05688 0.83395 0.15136 0.0
C16 C 0.04425 0.81843 0.10203 0.0
O17 O 0.20961 0.77287 0.06939 0.0
O18 O 0.24167 0.79399 0.98862 0.0
C19 C 0.17551 0.75345 0.17131 0.0
C20 C 0.24414 0.77327 0.03478 0.0
Zn21 Zn 0.61455 0.70026 0.45415 0.0
Zn22 Zn 0.69804 0.65321 0.63329 0.0
Zn23 Zn 0.65775 0.66584 0.53737 0.0
C24 C 0.70042 0.57419 0.56651 0.0
C25 C 0.60979 0.66566 0.66615 0.0
O26 O 0.69744 0.71833 0.4953 0.0
O27 O 0.65232 0.74658 0.429 0.0
C28 C 0.64124 0.61157 0.42255 0.0
O29 O 0.67895 0.5964 0.5284 0.0
O30 O 0.71347 0.59264 0.61396 0.0
O31 O 0.64809 0.66089 0.69034 0.0
O32 O 0.60716 0.66923 0.61006 0.0
O33 O 0.61916 0.64429 0.40632 0.0
O34 O 0.66024 0.612 0.4735 0.0
O35 O 0.58418 0.67984 0.55724 0.0
O36 O 0.55503 0.71735 0.48569 0.0
C37 C 0.55014 0.69961 0.53379 0.0
O38 O 0.71478 0.71232 0.55192 0.0
O39 O 0.74739 0.69469 0.63525 0.0
C40 C 0.6904 0.74527 0.45442 0.0
C41 C 0.7458 0.71811 0.59156 0.0
Zn42 Zn 0.79482 0.12102 0.90746 0.0
Zn43 Zn 0.79244 0.14572 0.10653 0.0
Zn44 Zn 0.80062 0.141 1.00278 0.0
C45 C 0.88659 0.14315 0.08541 0.0
C46 C 0.75285 0.06704 0.06195 0.0
O47 O 0.76865 0.19073 0.94928 0.0
O48 O 0.73124 0.14254 0.89491 0.0
C49 C 0.87889 0.15892 0.91784 0.0
O50 O 0.87197 0.13629 0.03243 0.0
O51 O 0.8588 0.15037 0.12689 0.0
O52 O 0.76355 0.08783 0.10897 0.0
O53 O 0.76032 0.08391 1.01294 0.0
O54 O 0.84726 0.15901 0.87992 0.0
O55 O 0.86975 0.14482 0.96891 0.0
O56 O 0.85955 0.09698 0.98514 0.0
O57 O 0.81499 0.06041 0.9232 0.0
C58 C 0.85012 0.06158 0.95572 0.0
O59 O 0.77235 0.20628 0.01646 0.0
O60 O 0.75482 0.19895 0.10949 0.0
C61 C 0.73828 0.18176 0.90991 0.0
C62 C 0.754 0.22101 0.06426 0.0
Zn63 Zn 0.34608 0.31448 0.65855 0.0
Zn64 Zn 0.29783 0.34586 0.44806 0.0
Zn65 Zn 0.32391 0.33468 0.55344 0.0
C66 C 0.39077 0.33698 0.44074 0.0
C67 C 0.28047 0.4235 0.51177 0.0
O68 O 0.28294 0.27904 0.58297 0.0
O69 O 0.30813 0.26527 0.67199 0.0
C70 C 0.42505 0.30807 0.5931 0.0
O71 O 0.3844 0.33243 0.49603 0.0
O72 O 0.35715 0.341 0.40668 0.0
O73 O 0.27413 0.40465 0.46227 0.0
O74 O 0.29863 0.40263 0.55372 0.0
O75 O 0.41051 0.30214 0.64399 0.0
O76 O 0.39753 0.31971 0.55246 0.0
O77 O 0.317 0.39299 0.61035 0.0
O78 O 0.33363 0.37103 0.69909 0.0
C79 C 0.32406 0.40118 0.66555 0.0
O80 O 0.26963 0.28741 0.52626 0.0
O81 O 0.25211 0.30196 0.43463 0.0
C82 C 0.28227 0.25631 0.62907 0.0
C83 C 0.24579 0.28026 0.47919 0.0
H84 H 0.05371 0.17331 0.25058 0.0
H85 H 0.08671 0.06595 0.1316 0.0
H86 H 0.17072 0.09348 0.28255 0.0
N87 N 0.12342 0.16358 0.3221 0.0
N88 N 0.15093 0.15196 0.36033 0.0
C89 C 0.076 0.14685 0.23641 0.0
C90 C 0.06597 0.12147 0.18526 0.0
C91 C 0.11367 0.13697 0.27149 0.0
C92 C 0.14161 0.10139 0.25555 0.0
C93 C 0.13139 0.07504 0.20587 0.0
C94 C 0.09462 0.08623 0.16992 0.0
H95 H 0.32563 0.57728 0.82887 0.0
H96 H 0.4437 0.56532 0.71716 0.0
H97 H 0.43495 0.66803 0.84853 0.0
N98 N 0.35491 0.64195 0.89493 0.0
N99 N 0.37227 0.66972 0.92921 0.0
C100 C 0.35862 0.58822 0.81491 0.0
C101 C 0.38117 0.56691 0.76749 0.0
C102 C 0.37843 0.6234 0.8457 0.0
C103 C 0.41994 0.63995 0.8263 0.0
C104 C 0.44238 0.61964 0.77836 0.0
C105 C 0.42388 0.58241 0.75085 0.0
H106 H 0.73218 0.88021 0.17486 0.0
H107 H 0.83972 0.89266 0.04948 0.0
H108 H 0.85597 0.8084 0.19318 0.0
N109 N 0.77553 0.83022 0.24405 0.0
N110 N 0.7987 0.80996 0.27991 0.0
C111 C 0.76516 0.8705 0.15731 0.0
C112 C 0.78261 0.89065 0.10844 0.0
C113 C 0.79177 0.84191 0.18859 0.0
C114 C 0.83482 0.82928 0.1674 0.0
C115 C 0.85166 0.84573 0.11515 0.0
C116 C 0.82543 0.87696 0.08642 0.0
H117 H 0.74088 0.36694 0.62961 0.0
H118 H 0.61296 0.39747 0.54384 0.0
H119 H 0.62787 0.28139 0.63405 0.0
N120 N 0.70544 0.30355 0.68881 0.0
N121 N 0.67998 0.28275 0.72079 0.0
C122 C 0.70635 0.3599 0.61641 0.0
C123 C 0.68036 0.38843 0.58196 0.0
C124 C 0.68649 0.32293 0.63851 0.0
C125 C 0.64366 0.30989 0.61747 0.0
C126 C 0.61813 0.33624 0.58179 0.0
C127 C 0.63588 0.37558 0.56531 0.0
H128 H 0.57384 0.3258 0.28021 0.0
H129 H 0.55466 0.44918 0.37144 0.0
H130 H 0.66168 0.43198 0.24535 0.0
N131 N 0.63849 0.3495 0.21098 0.0
N132 N 0.67029 0.36119 0.1794 0.0
C133 C 0.5836 0.35909 0.28924 0.0
C134 C 0.56046 0.38465 0.33223 0.0
C135 C 0.61908 0.37614 0.25665 0.0
C136 C 0.63372 0.41871 0.26936 0.0
C137 C 0.61094 0.44456 0.31212 0.0
C138 C 0.5737 0.42781 0.34157 0.0
H139 H 0.183 0.06555 0.84082 0.0
H140 H 0.04689 0.06154 0.91212 0.0
H141 H 0.08254 0.15908 0.79469 0.0
N142 N 0.16612 0.12736 0.76937 0.0
N143 N 0.15353 0.15136 0.72976 0.0
C144 C 0.14834 0.07741 0.84496 0.0
C145 C 0.11728 0.05831 0.88303 0.0
C146 C 0.13501 0.11163 0.8104 0.0
C147 C 0.0919 0.13064 0.81818 0.0
C148 C 0.06138 0.11383 0.85768 0.0
C149 C 0.07315 0.07644 0.8872 0.0
H150 H 0.25383 0.61762 0.43664 0.0
H151 H 0.35224 0.60733 0.57459 0.0
H152 H 0.36233 0.70907 0.45225 0.0
N153 N 0.29123 0.68612 0.38735 0.0
N154 N 0.26341 0.6674 0.3536 0.0
C155 C 0.28255 0.63113 0.46096 0.0
C156 C 0.30009 0.60881 0.50833 0.0
C157 C 0.30479 0.66749 0.44072 0.0
C158 C 0.34385 0.6826 0.47018 0.0
C159 C 0.3617 0.66092 0.51845 0.0
C160 C 0.33818 0.62516 0.53887 0.0
H161 H 0.86859 0.92164 0.79256 0.0
H162 H 0.96108 0.8758 0.92333 0.0
H163 H 0.92901 0.79481 0.77098 0.0
N164 N 0.8681 0.84973 0.72511 0.0
N165 N 0.87796 0.82056 0.68777 0.0
C166 C 0.89134 0.89678 0.80805 0.0
C167 C 0.91516 0.90354 0.86127 0.0
C168 C 0.89618 0.8578 0.77511 0.0
C169 C 0.92517 0.82533 0.79569 0.0
C170 C 0.94803 0.83146 0.84937 0.0
C171 C 0.94263 0.87051 0.88233 0.0
C172 C 0.1773 0.97362 0.12757 0.0
C173 C 0.17244 0.94298 0.17073 0.0
C174 C 0.16736 0.01746 0.13998 0.0
C175 C 0.15365 0.03216 0.19649 0.0
H176 H 0.18584 0.96337 0.08303 0.0
H177 H 0.16782 0.0395 0.1044 0.0
S178 S 0.14734 0.96679 0.32869 0.0
N179 N 0.16192 0.93195 0.27509 0.0
N180 N 0.14311 0.01392 0.29815 0.0
C181 C 0.15453 0.00277 0.2417 0.0
C182 C 0.16432 0.95825 0.229 0.0
C183 C 0.52855 0.68265 0.69412 0.0
C184 C 0.5685 0.65796 0.70082 0.0
C185 C 0.48794 0.67158 0.72204 0.0
C186 C 0.48635 0.63556 0.75744 0.0
H187 H 0.52859 0.71027 0.66669 0.0
H188 H 0.45728 0.69023 0.71418 0.0
S189 S 0.58169 0.5615 0.79071 0.0
N190 N 0.60403 0.59673 0.74711 0.0
N191 N 0.52789 0.5763 0.79928 0.0
C192 C 0.52631 0.61166 0.76606 0.0
C193 C 0.56744 0.62288 0.738 0.0
C194 C 0.73677 0.00491 0.12276 0.0
C195 C 0.74285 0.02031 0.06626 0.0
C196 C 0.74649 0.96208 0.13479 0.0
C197 C 0.76142 0.93211 0.09052 0.0
H198 H 0.72897 0.02703 0.15959 0.0
H199 H 0.746 0.95373 0.18039 0.0
S200 S 0.76554 0.95202 0.93138 0.0
N201 N 0.75263 -0.00033 0.96277 0.0
N202 N 0.77024 0.9183 0.9853 0.0
C203 C 0.76082 0.9454 0.03225 0.0
C204 C 0.75118 0.98957 0.02002 0.0
C205 C 0.49678 0.33849 0.63044 0.0
C206 C 0.47435 0.31309 0.58683 0.0
C207 C 0.54312 0.34659 0.62681 0.0
C208 C 0.56881 0.32945 0.57959 0.0
H209 H 0.47817 0.35289 0.66744 0.0
H210 H 0.55919 0.36613 0.66155 0.0
S211 S 0.52704 0.25991 0.45491 0.0
N212 N 0.48129 0.27004 0.49547 0.0
N213 N 0.5696 0.28544 0.48872 0.0
C214 C 0.54729 0.30376 0.53567 0.0
C215 C 0.49961 0.29554 0.53925 0.0
C216 C 0.59788 0.56238 0.35505 0.0
C217 C 0.6388 0.57152 0.3852 0.0
C218 C 0.59081 0.52217 0.32663 0.0
C219 C 0.62436 0.48958 0.32723 0.0
H220 H 0.56993 0.5855 0.35636 0.0
H221 H 0.55772 0.51557 0.30713 0.0
S222 S 0.7407 0.50026 0.38967 0.0
N223 N 0.71609 0.54754 0.40562 0.0
N224 N 0.70215 0.47081 0.35363 0.0
C225 C 0.66696 0.49954 0.35248 0.0
C226 C 0.67433 0.54086 0.38119 0.0
C227 C 0.96099 0.1583 0.94314 0.0
C228 C 0.92707 0.16145 0.89981 0.0
C229 C 0.00514 0.14499 0.92867 0.0
C230 C 0.01731 0.13552 0.87007 0.0
H231 H 0.95268 0.1631 0.98898 0.0
H232 H 0.02936 0.1401 0.96385 0.0
S233 S 0.94471 0.14933 0.73875 0.0
N234 N 0.91096 0.16181 0.79484 0.0
N235 N -0.00523 0.13744 0.76751 0.0
C236 C 0.98564 0.14402 0.82561 0.0
C237 C 0.94026 0.15715 0.84049 0.0
C238 C 0.29328 0.49132 0.46269 0.0
C239 C 0.27871 0.47126 0.5134 0.0
C240 C 0.29832 0.53579 0.46185 0.0
C241 C 0.28896 0.56256 0.51161 0.0
H242 H 0.30298 0.47235 0.42355 0.0
H243 H 0.31143 0.54923 0.42227 0.0
S244 S 0.24441 0.5275 0.6534 0.0
N245 N 0.25038 0.48205 0.6131 0.0
N246 N 0.26149 0.56676 0.61209 0.0
C247 C 0.27278 0.54358 0.56227 0.0
C248 C 0.26707 0.49767 0.56295 0.0
C249 C 0.01423 0.7648 0.95389 0.0
C250 C 0.05682 0.76229 0.92625 0.0
C251 C 0.97682 0.78384 0.9266 0.0
C252 C 0.98067 0.79895 0.86971 0.0
H253 H 0.01132 0.75628 0.999 0.0
H254 H 0.94602 0.78996 0.95176 0.0
S255 S 0.08028 0.78645 0.77132 0.0
N256 N 0.09755 0.76671 0.83382 0.0
N257 N 0.02666 0.80125 0.78174 0.0
C258 C 0.02055 0.78955 0.8379 0.0
C259 C 0.05885 0.7709 0.86617 0.0
C260 C 0.87529 0.98735 0.97548 0.0
C261 C 0.88282 0.02592 0.94698 0.0
C262 C 0.88943 0.94742 0.94977 0.0
C263 C 0.91081 0.94523 0.89471 0.0
H264 H 0.85456 0.98762 0.01468 0.0
H265 H 0.88018 0.91798 0.97033 0.0
S266 S 0.94564 0.03737 0.80822 0.0
N267 N 0.91869 0.05978 0.86544 0.0
N268 N 0.94525 0.98482 0.81733 0.0
C269 C 0.92277 0.98376 0.86919 0.0
C270 C 0.90884 0.02421 0.89549 0.0
C271 C 0.44809 0.32884 0.36047 0.0
C272 C 0.43685 0.344 0.41759 0.0
C273 C 0.48899 0.34052 0.33424 0.0
C274 C 0.52049 0.36769 0.36425 0.0
H275 H 0.42433 0.30895 0.33506 0.0
H276 H 0.49473 0.32976 0.28903 0.0
S277 S 0.50667 0.41595 0.51552 0.0
N278 N 0.45924 0.38895 0.50265 0.0
N279 N 0.53836 0.40687 0.45663 0.0
C280 C 0.51035 0.38141 0.42271 0.0
C281 C 0.46798 0.37069 0.4485 0.0
C282 C 0.17409 0.95036 0.91434 0.0
C283 C 0.15291 0.93766 0.96574 0.0
C284 C 0.16268 0.98925 0.88903 0.0
C285 C 0.13035 0.01828 0.91469 0.0
H286 H 0.19852 0.92909 0.89189 0.0
H287 H 0.17833 -0.00475 0.84739 0.0
S288 S 0.06399 -0.0015 0.04988 0.0
N289 N 0.09596 0.9548 0.03979 0.0
N290 N 0.07831 0.03087 0.99755 0.0
C291 C 0.1099 0.00629 0.96785 0.0
C292 C 0.12033 0.96544 0.9921 0.0
C293 C 0.46999 0.72354 0.55145 0.0
C294 C 0.50323 0.69058 0.55131 0.0
C295 C 0.42353 0.71367 0.54641 0.0
C296 C 0.40896 0.67055 0.53902 0.0
H297 H 0.48018 0.75706 0.55144 0.0
H298 H 0.39913 0.74001 0.54414 0.0
S299 S 0.48389 0.57295 0.5355 0.0
N300 N 0.51892 0.61366 0.54727 0.0
N301 N 0.43257 0.59492 0.532 0.0
C302 C 0.44211 0.63742 0.54182 0.0
C303 C 0.48905 0.64754 0.54949 0.0
C304 C 0.32354 0.45748 0.74726 0.0
C305 C 0.3317 0.44587 0.68802 0.0
C306 C 0.33837 0.49713 0.77198 0.0
C307 C 0.36156 0.52704 0.73826 0.0
H308 H 0.30717 0.43501 0.77533 0.0
H309 H 0.3333 0.50331 0.8186 0.0
S310 S 0.39056 0.51125 0.58021 0.0
N311 N 0.36595 0.46598 0.59682 0.0
N312 N 0.38899 0.54257 0.64065 0.0
C313 C 0.36816 0.51623 0.67809 0.0
C314 C 0.35449 0.47519 0.65369 0.0
C315 C 0.97613 0.86177 0.07819 0.0
C316 C -0.00457 0.82104 0.08794 0.0
C317 C 0.929 0.86884 0.08253 0.0
C318 C 0.89945 0.83531 0.09681 0.0
H319 H -0.00206 0.88912 0.07139 0.0
H320 H 0.91631 0.90158 0.07912 0.0
S321 S 0.93316 0.72112 0.11769 0.0
N322 N 0.98181 0.74606 0.10779 0.0
N323 N 0.89283 0.75828 0.112 0.0
C324 C 0.91825 0.79351 0.10146 0.0
C325 C 0.96635 0.78665 0.09829 0.0
C326 C 0.6778 0.5017 0.52164 0.0
C327 C 0.70469 0.52611 0.56146 0.0
C328 C 0.67483 0.45663 0.5244 0.0
C329 C 0.69506 0.43406 0.57078 0.0
H330 H 0.65669 0.5176 0.49012 0.0
H331 H 0.65406 0.43996 0.49143 0.0
S332 S 0.77261 0.48352 0.68468 0.0
N333 N 0.75784 0.52376 0.64356 0.0
N334 N 0.7458 0.44114 0.65592 0.0
C335 C 0.72378 0.4582 0.60967 0.0
C336 C 0.72968 0.50359 0.60367 0.0
C337 C 0.95292 0.09723 0.10911 0.0
C338 C 0.93498 0.1385 0.10025 0.0
C339 C -0.00407 0.0921 0.13482 0.0
C340 C 0.02281 0.12811 0.15193 0.0
H341 H 0.93256 0.06883 0.099 0.0
H342 H 0.00712 0.05966 0.14393 0.0
S343 S -0.00756 0.24298 0.13046 0.0
N344 N 0.94746 0.2158 0.10632 0.0
N345 N 0.02957 0.20641 0.15188 0.0
C346 C 0.00595 0.16954 0.13993 0.0
C347 C 0.96171 0.17467 0.11477 0.0
C348 C 0.24544 0.74236 0.23042 0.0
C349 C 0.20569 0.72512 0.20427 0.0
C350 C 0.26611 0.72268 0.27832 0.0
C351 C 0.24776 0.68488 0.30056 0.0
H352 H 0.25832 0.77308 0.21709 0.0
H353 H 0.29511 0.73815 0.29954 0.0
S354 S 0.1483 0.62427 0.2423 0.0
N355 N 0.15152 0.6664 0.20058 0.0
N356 N 0.19131 0.62871 0.28912 0.0
C357 C 0.2106 0.66563 0.27149 0.0
C358 C 0.18922 0.68591 0.22366 0.0
C359 C 0.82528 0.74106 0.58554 0.0
C360 C 0.7791 0.75284 0.58948 0.0
C361 C 0.85882 0.76737 0.61177 0.0
C362 C 0.84702 0.8056 0.64352 0.0
H363 H 0.835 0.70918 0.5681 0.0
H364 H 0.89349 0.75517 0.61343 0.0
S365 S 0.73166 0.85549 0.65306 0.0
N366 N 0.72393 0.80883 0.61658 0.0
N367 N 0.7869 0.85849 0.66658 0.0
C368 C 0.80164 0.82067 0.64041 0.0
C369 C 0.76758 0.79401 0.61305 0.0
C370 C 0.68369 0.26273 0.0807 0.0
C371 C 0.73066 0.26298 0.0695 0.0
C372 C 0.66276 0.29683 0.11296 0.0
C373 C 0.6883 0.33228 0.13504 0.0
H374 H 0.66397 0.23408 0.06966 0.0
H375 H 0.62717 0.29394 0.12423 0.0
S376 S 0.81055 0.35129 0.1095 0.0
N377 N 0.80085 0.3036 0.07656 0.0
N378 N 0.76109 0.36842 0.13651 0.0
C379 C 0.73397 0.33512 0.11839 0.0
C380 C 0.75539 0.30018 0.08578 0.0
C381 C 0.20248 0.2309 0.63165 0.0
C382 C 0.24925 0.22175 0.63588 0.0
C383 C 0.1707 0.20495 0.65892 0.0
C384 C 0.18495 0.16953 0.69096 0.0
H385 H 0.19078 0.26036 0.61227 0.0
H386 H 0.13517 0.21468 0.65921 0.0
S387 S 0.30298 0.12641 0.70129 0.0
N388 N 0.30773 0.17085 0.6645 0.0
N389 N 0.24814 0.12174 0.71511 0.0
C390 C 0.23118 0.15716 0.68912 0.0
C391 C 0.26334 0.18351 0.66156 0.0
C392 C 0.7162 0.80893 0.40331 0.0
C393 C 0.72755 0.76973 0.42876 0.0
C394 C 0.74173 0.82408 0.35713 0.0
C395 C 0.77967 0.80056 0.33503 0.0
H396 H 0.68483 0.82577 0.41523 0.0
H397 H 0.72981 0.85274 0.33601 0.0
S398 S 0.82956 0.70181 0.39539 0.0
N399 N 0.78361 0.71183 0.43552 0.0
N400 N 0.83215 0.741 0.34863 0.0
C401 C 0.79487 0.76469 0.36516 0.0
C402 C 0.76869 0.74908 0.41232 0.0
C403 C 0.75085 0.24376 0.84599 0.0
C404 C 0.72049 0.21496 0.87134 0.0
C405 C 0.73792 0.26708 0.79687 0.0
C406 C 0.69401 0.26247 0.77252 0.0
H407 H 0.78569 0.24604 0.86165 0.0
H408 H 0.7626 0.28761 0.77703 0.0
S409 S 0.60084 0.19547 0.82651 0.0
N410 N 0.64405 0.1859 0.8709 0.0
N411 N 0.61948 0.23062 0.78 0.0
C412 C 0.66283 0.23612 0.79984 0.0
C413 C 0.67606 0.21207 0.84893 0.0
C414 C 0.22959 0.2022 0.46953 0.0
C415 C 0.21314 0.24491 0.47321 0.0
C416 C 0.20565 0.17018 0.43706 0.0
C417 C 0.16511 0.18024 0.40748 0.0
H418 H 0.26335 0.19466 0.48579 0.0
H419 H 0.22132 0.1386 0.42981 0.0
S420 S 0.10225 0.28475 0.4186 0.0
N421 N 0.14989 0.29365 0.45579 0.0
N422 N 0.10453 0.2335 0.39536 0.0
C423 C 0.14525 0.22133 0.41824 0.0
C424 C 0.16954 0.25374 0.45119 0.0
C425 C 0.27259 0.69891 0.0239 0.0
C426 C 0.28212 0.74247 0.03819 0.0
C427 C 0.30414 0.67289 0.9923 0.0
C428 C 0.34637 0.6897 0.97551 0.0
H429 H 0.23852 0.68668 0.02974 0.0
H430 H 0.29385 0.64093 0.97661 0.0
S431 S 0.39156 0.79775 0.01654 0.0
N432 N 0.3394 0.79844 0.0435 0.0
N433 N 0.39937 0.74888 0.98592 0.0
C434 C 0.35876 0.73067 0.99787 0.0
C435 C 0.32643 0.75732 0.02907 0.0
loop_
_geom_bond_atom_site_label_1
_geom_bond_atom_site_label_2
_geom_bond_distance
_geom_bond_site_symmetry_2
_ccdc_geom_bond_type
Zn0 O6 1.920 . S
Zn0 O12 1.898 . S
Zn0 O15 1.905 . S
Zn1 O9 1.905 . S
Zn1 O10 1.898 . S
Zn1 O18 1.920 . S
Zn2 O5 2.080 . S
Zn2 O8 2.114 1_554 S
Zn2 O11 2.120 1_554 S
Zn2 O13 2.120 . S
Zn2 O14 2.114 . S
Zn2 O17 2.080 . S
C3 O8 1.166 . S
C3 O9 1.182 . S
C4 O10 1.167 . S
C4 O11 1.299 . S
O5 Zn2 2.080 . S
O5 C19 1.305 . S
O6 Zn0 1.920 . S
O6 C19 1.234 . S
C7 O12 1.167 . S
C7 O13 1.299 . S
O8 Zn2 2.114 1_556 S
O8 C3 1.166 . S
O9 Zn1 1.905 . S
O9 C3 1.182 . S
O10 Zn1 1.898 . S
O10 C4 1.167 . S
O11 Zn2 2.120 1_556 S
O11 C4 1.299 . S
O12 Zn0 1.898 . S
O12 C7 1.167 . S
O13 Zn2 2.120 . S
O13 C7 1.299 . S
O14 Zn2 2.114 . S
O14 C16 1.166 . S
O15 Zn0 1.905 . S
O15 C16 1.182 . S
C16 O14 1.166 . S
C16 O15 1.182 . S
O17 Zn2 2.080 . S
O17 C20 1.305 1_554 S
O18 Zn1 1.920 . S
O18 C20 1.234 . S
C19 O5 1.305 . S
C19 O6 1.234 . S
C20 O17 1.305 1_556 S
C20 O18 1.234 . S
Zn21 O27 1.920 . S
Zn21 O33 1.898 . S
Zn21 O36 1.905 . S
Zn22 O30 1.905 . S
Zn22 O31 1.898 . S
Zn22 O39 1.920 . S
Zn23 O26 2.080 . S
Zn23 O29 2.114 . S
Zn23 O32 2.120 . S
Zn23 O34 2.120 . S
Zn23 O35 2.114 . S
Zn23 O38 2.080 . S
C24 O29 1.166 . S
C24 O30 1.182 . S
C25 O31 1.167 . S
C25 O32 1.299 . S
O26 Zn23 2.080 . S
O26 C40 1.305 . S
O27 Zn21 1.920 . S
O27 C40 1.234 . S
C28 O33 1.167 . S
C28 O34 1.299 . S
O29 Zn23 2.114 . S
O29 C24 1.166 . S
O30 Zn22 1.905 . S
O30 C24 1.182 . S
O31 Zn22 1.898 . S
O31 C25 1.167 . S
O32 Zn23 2.120 . S
O32 C25 1.299 . S
O33 Zn21 1.898 . S
O33 C28 1.167 . S
O34 Zn23 2.120 . S
O34 C28 1.299 . S
O35 Zn23 2.114 . S
O35 C37 1.166 . S
O36 Zn21 1.905 . S
O36 C37 1.182 . S
C37 O35 1.166 . S
C37 O36 1.182 . S
O38 Zn23 2.080 . S
O38 C41 1.305 . S
O39 Zn22 1.920 . S
O39 C41 1.234 . S
C40 O26 1.305 . S
C40 O27 1.234 . S
C41 O38 1.305 . S
C41 O39 1.234 . S
Zn42 O48 1.920 . S
Zn42 O54 1.898 . S
Zn42 O57 1.905 . S
Zn43 O51 1.905 . S
Zn43 O52 1.898 . S
Zn43 O60 1.920 . S
Zn44 O47 2.080 1_554 S
Zn44 O50 2.114 . S
Zn44 O53 2.120 . S
Zn44 O55 2.120 1_554 S
Zn44 O56 2.113 1_554 S
Zn44 O59 2.081 . S
C45 O50 1.166 . S
C45 O51 1.182 . S
C46 O52 1.167 . S
C46 O53 1.299 . S
O47 Zn44 2.080 1_556 S
O47 C61 1.305 . S
O48 Zn42 1.920 . S
O48 C61 1.234 . S
C49 O54 1.167 . S
C49 O55 1.299 . S
O50 Zn44 2.114 . S
O50 C45 1.166 . S
O51 Zn43 1.905 . S
O51 C45 1.182 . S
O52 Zn43 1.898 . S
O52 C46 1.167 . S
O53 Zn44 2.120 . S
O53 C46 1.299 . S
O54 Zn42 1.898 . S
O54 C49 1.167 . S
O55 Zn44 2.120 1_556 S
O55 C49 1.299 . S
O56 Zn44 2.113 1_556 S
O56 C58 1.166 . S
O57 Zn42 1.905 . S
O57 C58 1.182 . S
C58 O56 1.166 . S
C58 O57 1.182 . S
O59 Zn44 2.081 . S
O59 C62 1.305 . S
O60 Zn43 1.920 . S
O60 C62 1.234 . S
C61 O47 1.305 . S
C61 O48 1.234 . S
C62 O59 1.305 . S
C62 O60 1.234 . S
Zn63 O69 1.920 . S
Zn63 O75 1.898 . S
Zn63 O78 1.905 . S
Zn64 O72 1.905 . S
Zn64 O73 1.898 . S
Zn64 O81 1.920 . S
Zn65 O68 2.080 . S
Zn65 O71 2.114 . S
Zn65 O74 2.120 . S
Zn65 O76 2.120 . S
Zn65 O77 2.114 . S
Zn65 O80 2.080 . S
C66 O71 1.166 . S
C66 O72 1.182 . S
C67 O73 1.167 . S
C67 O74 1.299 . S
O68 Zn65 2.080 . S
O68 C82 1.305 . S
O69 Zn63 1.920 . S
O69 C82 1.234 . S
C70 O75 1.167 . S
C70 O76 1.299 . S
O71 Zn65 2.114 . S
O71 C66 1.166 . S
O72 Zn64 1.905 . S
O72 C66 1.182 . S
O73 Zn64 1.898 . S
O73 C67 1.167 . S
O74 Zn65 2.120 . S
O74 C67 1.299 . S
O75 Zn63 1.898 . S
O75 C70 1.167 . S
O76 Zn65 2.120 . S
O76 C70 1.299 . S
O77 Zn65 2.114 . S
O77 C79 1.166 . S
O78 Zn63 1.905 . S
O78 C79 1.182 . S
C79 O77 1.166 . S
C79 O78 1.182 . S
O80 Zn65 2.080 . S
O80 C83 1.305 . S
O81 Zn64 1.920 . S
O81 C83 1.234 . S
C82 O68 1.305 . S
C82 O69 1.234 . S
C83 O80 1.305 . S
C83 O81 1.234 . S
H84 C89 0.929 . S
H85 C94 0.931 . S
H86 C92 0.930 . S
N87 N88 1.234 . S
N87 C91 1.453 . S
N88 N87 1.234 . S
C89 H84 0.929 . S
C89 C90 1.373 . S
C89 C91 1.368 . S
C90 C89 1.373 . S
C90 C94 1.397 . S
C91 N87 1.453 . S
C91 C89 1.368 . S
C91 C92 1.373 . S
C92 H86 0.930 . S
C92 C91 1.373 . S
C92 C93 1.371 . S
C93 C92 1.371 . S
C93 C94 1.383 . S
C94 H85 0.931 . S
C94 C90 1.397 . S
C94 C93 1.383 . S
H95 C100 0.929 . S
H96 C105 0.931 . S
H97 C103 0.930 . S
N98 N99 1.234 . S
N98 C102 1.453 . S
N99 N98 1.234 . S
C100 H95 0.929 . S
C100 C101 1.373 . S
C100 C102 1.368 . S
C101 C100 1.373 . S
C101 C105 1.397 . S
C102 N98 1.453 . S
C102 C100 1.368 . S
C102 C103 1.373 . S
C103 H97 0.930 . S
C103 C102 1.373 . S
C103 C104 1.371 . S
C104 C103 1.371 . S
C104 C105 1.383 . S
C105 H96 0.931 . S
C105 C101 1.397 . S
C105 C104 1.383 . S
H106 C111 0.929 . S
H107 C116 0.931 . S
H108 C114 0.930 . S
N109 N110 1.234 . S
N109 C113 1.453 . S
N110 N109 1.234 . S
C111 H106 0.929 . S
C111 C112 1.373 . S
C111 C113 1.368 . S
C112 C111 1.373 . S
C112 C116 1.397 . S
C113 N109 1.453 . S
C113 C111 1.368 . S
C113 C114 1.373 . S
C114 H108 0.930 . S
C114 C113 1.373 . S
C114 C115 1.371 . S
C115 C114 1.371 . S
C115 C116 1.383 . S
C116 H107 0.931 . S
C116 C112 1.397 . S
C116 C115 1.383 . S
H117 C122 0.929 . S
H118 C127 0.931 . S
H119 C125 0.930 . S
N120 N121 1.234 . S
N120 C124 1.453 . S
N121 N120 1.234 . S
C122 H117 0.929 . S
C122 C123 1.373 . S
C122 C124 1.368 . S
C123 C122 1.373 . S
C123 C127 1.397 . S
C124 N120 1.453 . S
C124 C122 1.368 . S
C124 C125 1.373 . S
C125 H119 0.930 . S
C125 C124 1.373 . S
C125 C126 1.371 . S
C126 C125 1.371 . S
C126 C127 1.383 . S
C127 H118 0.931 . S
C127 C123 1.397 . S
C127 C126 1.383 . S
H128 C133 0.929 . S
H129 C138 0.931 . S
H130 C136 0.930 . S
N131 N132 1.234 . S
N131 C135 1.453 . S
N132 N131 1.234 . S
C133 H128 0.929 . S
C133 C134 1.373 . S
C133 C135 1.368 . S
C134 C133 1.373 . S
C134 C138 1.397 . S
C135 N131 1.453 . S
C135 C133 1.368 . S
C135 C136 1.373 . S
C136 H130 0.930 . S
C136 C135 1.373 . S
C136 C137 1.371 . S
C137 C136 1.371 . S
C137 C138 1.383 . S
C138 H129 0.931 . S
C138 C134 1.397 . S
C138 C137 1.383 . S
H139 C144 0.929 . S
H140 C149 0.931 . S
H141 C147 0.930 . S
N142 N143 1.234 . S
N142 C146 1.453 . S
N143 N142 1.234 . S
C144 H139 0.929 . S
C144 C145 1.373 . S
C144 C146 1.368 . S
C145 C144 1.373 . S
C145 C149 1.397 . S
C146 N142 1.453 . S
C146 C144 1.368 . S
C146 C147 1.373 . S
C147 H141 0.930 . S
C147 C146 1.373 . S
C147 C148 1.371 . S
C148 C147 1.371 . S
C148 C149 1.383 . S
C149 H140 0.931 . S
C149 C145 1.397 . S
C149 C148 1.383 . S
H150 C155 0.929 . S
H151 C160 0.931 . S
H152 C158 0.930 . S
N153 N154 1.234 . S
N153 C157 1.453 . S
N154 N153 1.234 . S
C155 H150 0.929 . S
C155 C156 1.373 . S
C155 C157 1.368 . S
C156 C155 1.373 . S
C156 C160 1.397 . S
C157 N153 1.453 . S
C157 C155 1.368 . S
C157 C158 1.373 . S
C158 H152 0.930 . S
C158 C157 1.373 . S
C158 C159 1.371 . S
C159 C158 1.371 . S
C159 C160 1.383 . S
C160 H151 0.931 . S
C160 C156 1.397 . S
C160 C159 1.383 . S
H161 C166 0.929 . S
H162 C171 0.931 . S
H163 C169 0.930 . S
N164 N165 1.234 . S
N164 C168 1.453 . S
N165 N164 1.234 . S
C166 H161 0.929 . S
C166 C167 1.373 . S
C166 C168 1.368 . S
C167 C166 1.373 . S
C167 C171 1.397 . S
C168 N164 1.453 . S
C168 C166 1.368 . S
C168 C169 1.373 . S
C169 H163 0.930 . S
C169 C168 1.373 . S
C169 C170 1.371 . S
C170 C169 1.371 . S
C170 C171 1.383 . S
C171 H162 0.931 . S
C171 C167 1.397 . S
C171 C170 1.383 . S
C172 C173 1.347 1_545 S
C172 C174 1.437 . S
C172 H176 0.935 . S
C173 C172 1.347 1_565 S
C173 C182 1.429 . S
C174 C172 1.437 . S
C174 C175 1.363 . S
C174 H177 0.929 . S
C175 C174 1.363 . S
C175 C181 1.428 1_545 S
H176 C172 0.935 . S
H177 C174 0.929 . S
S178 N179 1.613 . S
S178 N180 1.610 . S
N179 S178 1.613 . S
N179 C182 1.350 . S
N180 S178 1.610 . S
N180 C181 1.351 . S
C181 C175 1.428 1_565 S
C181 N180 1.351 . S
C181 C182 1.434 . S
C182 C173 1.429 . S
C182 N179 1.350 . S
C182 C181 1.434 . S
C183 C184 1.369 . S
C183 C185 1.419 . S
C183 H187 0.930 . S
C184 C183 1.369 . S
C184 C193 1.429 . S
C185 C183 1.419 . S
C185 C186 1.363 . S
C185 H188 0.929 . S
C186 C185 1.363 . S
C186 C192 1.428 . S
H187 C183 0.930 . S
H188 C185 0.929 . S
S189 N190 1.613 . S
S189 N191 1.610 . S
N190 S189 1.613 . S
N190 C193 1.350 . S
N191 S189 1.610 . S
N191 C192 1.351 . S
C192 C186 1.428 . S
C192 N191 1.351 . S
C192 C193 1.434 . S
C193 C184 1.429 . S
C193 N190 1.350 . S
C193 C192 1.434 . S
C194 C195 1.369 . S
C194 C196 1.419 . S
C194 H198 0.930 . S
C195 C194 1.369 . S
C195 C204 1.433 . S
C196 C194 1.419 . S
C196 C197 1.363 1_545 S
C196 H199 0.929 . S
C197 C196 1.363 1_565 S
C197 C203 1.428 . S
H198 C194 0.930 . S
H199 C196 0.929 . S
S200 N201 1.613 . S
S200 N202 1.610 1_556 S
N201 S200 1.613 . S
N201 C204 1.349 1_566 S
N202 S200 1.610 1_554 S
N202 C203 1.351 . S
C203 C197 1.428 . S
C203 N202 1.351 . S
C203 C204 1.430 1_565 S
C204 C195 1.433 . S
C204 N201 1.349 1_544 S
C204 C203 1.430 1_545 S
C205 C206 1.369 . S
C205 C207 1.419 . S
C205 H209 0.930 . S
C206 C205 1.369 . S
C206 C215 1.429 . S
C207 C205 1.419 . S
C207 C208 1.363 . S
C207 H210 0.929 . S
C208 C207 1.363 . S
C208 C214 1.428 . S
H209 C205 0.930 . S
H210 C207 0.929 . S
S211 N212 1.613 . S
S211 N213 1.610 . S
N212 S211 1.613 . S
N212 C215 1.350 . S
N213 S211 1.610 . S
N213 C214 1.351 . S
C214 C208 1.428 . S
C214 N213 1.351 . S
C214 C215 1.434 . S
C215 C206 1.429 . S
C215 N212 1.350 . S
C215 C214 1.434 . S
C216 C217 1.369 . S
C216 C218 1.419 . S
C216 H220 0.930 . S
C217 C216 1.369 . S
C217 C226 1.429 . S
C218 C216 1.419 . S
C218 C219 1.363 . S
C218 H221 0.929 . S
C219 C218 1.363 . S
C219 C225 1.428 . S
H220 C216 0.930 . S
H221 C218 0.929 . S
S222 N223 1.613 . S
S222 N224 1.610 . S
N223 S222 1.613 . S
N223 C226 1.350 . S
N224 S222 1.610 . S
N224 C225 1.351 . S
C225 C219 1.428 . S
C225 N224 1.351 . S
C225 C226 1.434 . S
C226 C217 1.429 . S
C226 N223 1.350 . S
C226 C225 1.434 . S
C227 C228 1.369 1_455 S
C227 C229 1.419 . S
C227 H231 0.930 1_556 S
C228 C227 1.369 1_655 S
C228 C237 1.429 . S
C229 C227 1.419 . S
C229 C230 1.363 . S
C229 H232 0.929 . S
C230 C229 1.363 . S
C230 C236 1.428 . S
H231 C227 0.930 1_554 S
H232 C229 0.929 . S
S233 N234 1.613 . S
S233 N235 1.610 1_655 S
N234 S233 1.613 . S
N234 C237 1.350 . S
N235 S233 1.610 1_455 S
N235 C236 1.351 . S
C236 C230 1.428 . S
C236 N235 1.351 . S
C236 C237 1.434 1_455 S
C237 C228 1.429 . S
C237 N234 1.350 . S
C237 C236 1.434 1_655 S
C238 C239 1.369 . S
C238 C240 1.419 . S
C238 H242 0.930 . S
C239 C238 1.369 . S
C239 C248 1.429 . S
C240 C238 1.419 . S
C240 C241 1.363 . S
C240 H243 0.929 . S
C241 C240 1.363 . S
C241 C247 1.428 . S
H242 C238 0.930 . S
H243 C240 0.929 . S
S244 N245 1.613 . S
S244 N246 1.610 . S
N245 S244 1.613 . S
N245 C248 1.350 . S
N246 S244 1.610 . S
N246 C247 1.351 . S
C247 C241 1.428 . S
C247 N246 1.351 . S
C247 C248 1.434 . S
C248 C239 1.429 . S
C248 N245 1.350 . S
C248 C247 1.434 . S
C249 C250 1.369 1_655 S
C249 C251 1.419 . S
C249 H253 0.930 . S
C250 C249 1.369 1_455 S
C250 C259 1.429 . S
C251 C249 1.419 . S
C251 C252 1.363 . S
C251 H254 0.929 . S
C252 C251 1.363 . S
C252 C258 1.428 1_655 S
H253 C249 0.930 . S
H254 C251 0.929 . S
S255 N256 1.613 . S
S255 N257 1.610 . S
N256 S255 1.613 . S
N256 C259 1.350 . S
N257 S255 1.610 . S
N257 C258 1.351 . S
C258 C252 1.428 1_455 S
C258 N257 1.351 . S
C258 C259 1.434 . S
C259 C250 1.429 . S
C259 N256 1.350 . S
C259 C258 1.434 . S
C260 C261 1.369 1_565 S
C260 C262 1.419 . S
C260 H264 0.930 . S
C261 C260 1.369 1_545 S
C261 C270 1.429 . S
C262 C260 1.419 . S
C262 C263 1.363 . S
C262 H265 0.929 . S
C263 C262 1.363 . S
C263 C269 1.428 . S
H264 C260 0.930 . S
H265 C262 0.929 . S
S266 N267 1.613 . S
S266 N268 1.610 1_545 S
N267 S266 1.613 . S
N267 C270 1.350 . S
N268 S266 1.610 1_565 S
N268 C269 1.351 . S
C269 C263 1.428 . S
C269 N268 1.351 . S
C269 C270 1.434 1_565 S
C270 C261 1.429 . S
C270 N267 1.350 . S
C270 C269 1.434 1_545 S
C271 C272 1.369 . S
C271 C273 1.419 . S
C271 H275 0.930 . S
C272 C271 1.369 . S
C272 C281 1.429 . S
C273 C271 1.419 . S
C273 C274 1.363 . S
C273 H276 0.929 . S
C274 C273 1.363 . S
C274 C280 1.428 . S
H275 C271 0.930 . S
H276 C273 0.929 . S
S277 N278 1.613 . S
S277 N279 1.610 . S
N278 S277 1.613 . S
N278 C281 1.350 . S
N279 S277 1.610 . S
N279 C280 1.351 . S
C280 C274 1.428 . S
C280 N279 1.351 . S
C280 C281 1.434 . S
C281 C272 1.429 . S
C281 N278 1.350 . S
C281 C280 1.434 . S
C282 C283 1.369 1_545 S
C282 C284 1.419 . S
C282 H286 0.930 1_545 S
C283 C282 1.369 1_565 S
C283 C292 1.429 1_565 S
C284 C282 1.419 . S
C284 C285 1.363 . S
C284 H287 0.929 . S
C285 C284 1.363 . S
C285 C291 1.428 . S
H286 C282 0.930 1_565 S
H287 C284 0.929 . S
S288 N289 1.613 . S
S288 N290 1.610 1_554 S
N289 S288 1.613 . S
N289 C292 1.350 1_554 S
N290 S288 1.610 1_556 S
N290 C291 1.351 . S
C291 C285 1.428 . S
C291 N290 1.351 . S
C291 C292 1.434 . S
C292 C283 1.429 1_545 S
C292 N289 1.350 1_556 S
C292 C291 1.434 . S
C293 C294 1.369 . S
C293 C295 1.419 . S
C293 H297 0.930 . S
C294 C293 1.369 . S
C294 C303 1.429 . S
C295 C293 1.419 . S
C295 C296 1.363 . S
C295 H298 0.929 . S
C296 C295 1.363 . S
C296 C302 1.428 . S
H297 C293 0.930 . S
H298 C295 0.929 . S
S299 N300 1.613 . S
S299 N301 1.610 . S
N300 S299 1.613 . S
N300 C303 1.350 . S
N301 S299 1.610 . S
N301 C302 1.351 . S
C302 C296 1.428 . S
C302 N301 1.351 . S
C302 C303 1.434 . S
C303 C294 1.429 . S
C303 N300 1.350 . S
C303 C302 1.434 . S
C304 C305 1.369 . S
C304 C306 1.419 . S
C304 H308 0.930 . S
C305 C304 1.369 . S
C305 C314 1.429 . S
C306 C304 1.419 . S
C306 C307 1.363 . S
C306 H309 0.929 . S
C307 C306 1.363 . S
C307 C313 1.428 . S
H308 C304 0.930 . S
H309 C306 0.929 . S
S310 N311 1.613 . S
S310 N312 1.610 . S
N311 S310 1.613 . S
N311 C314 1.350 . S
N312 S310 1.610 . S
N312 C313 1.351 . S
C313 C307 1.428 . S
C313 N312 1.351 . S
C313 C314 1.434 . S
C314 C305 1.429 . S
C314 N311 1.350 . S
C314 C313 1.434 . S
C315 C316 1.369 . S
C315 C317 1.419 . S
C315 H319 0.930 . S
C316 C315 1.369 . S
C316 C325 1.429 . S
C317 C315 1.419 . S
C317 C318 1.363 . S
C317 H320 0.929 . S
C318 C317 1.363 . S
C318 C324 1.428 . S
H319 C315 0.930 . S
H320 C317 0.929 . S
S321 N322 1.613 . S
S321 N323 1.610 . S
N322 S321 1.613 . S
N322 C325 1.350 . S
N323 S321 1.610 . S
N323 C324 1.351 . S
C324 C318 1.428 . S
C324 N323 1.351 . S
C324 C325 1.434 . S
C325 C316 1.429 . S
C325 N322 1.350 . S
C325 C324 1.434 . S
C326 C327 1.369 . S
C326 C328 1.419 . S
C326 H330 0.930 . S
C327 C326 1.369 . S
C327 C336 1.429 . S
C328 C326 1.419 . S
C328 C329 1.363 . S
C328 H331 0.929 . S
C329 C328 1.363 . S
C329 C335 1.428 . S
H330 C326 0.930 . S
H331 C328 0.929 . S
S332 N333 1.613 . S
S332 N334 1.610 . S
N333 S332 1.613 . S
N333 C336 1.350 . S
N334 S332 1.610 . S
N334 C335 1.351 . S
C335 C329 1.428 . S
C335 N334 1.351 . S
C335 C336 1.434 . S
C336 C327 1.429 . S
C336 N333 1.350 . S
C336 C335 1.434 . S
C337 C338 1.369 1_455 S
C337 C339 1.419 . S
C337 H341 0.930 1_455 S
C338 C337 1.369 1_655 S
C338 C347 1.429 1_655 S
C339 C337 1.419 . S
C339 C340 1.363 . S
C339 H342 0.929 . S
C340 C339 1.363 . S
C340 C346 1.428 . S
H341 C337 0.930 1_655 S
H342 C339 0.929 . S
S343 N344 1.613 . S
S343 N345 1.610 . S
N344 S343 1.613 . S
N344 C347 1.350 . S
N345 S343 1.610 . S
N345 C346 1.351 . S
C346 C340 1.428 . S
C346 N345 1.351 . S
C346 C347 1.434 . S
C347 C338 1.429 1_455 S
C347 N344 1.350 . S
C347 C346 1.434 . S
C348 C349 1.369 . S
C348 C350 1.419 . S
C348 H352 0.930 . S
C349 C348 1.369 . S
C349 C358 1.429 . S
C350 C348 1.419 . S
C350 C351 1.363 . S
C350 H353 0.929 . S
C351 C350 1.363 . S
C351 C357 1.428 . S
H352 C348 0.930 . S
H353 C350 0.929 . S
S354 N355 1.613 . S
S354 N356 1.610 . S
N355 S354 1.613 . S
N355 C358 1.350 . S
N356 S354 1.610 . S
N356 C357 1.351 . S
C357 C351 1.428 . S
C357 N356 1.351 . S
C357 C358 1.434 . S
C358 C349 1.429 . S
C358 N355 1.350 . S
C358 C357 1.434 . S
C359 C360 1.369 . S
C359 C361 1.419 . S
C359 H363 0.930 . S
C360 C359 1.369 . S
C360 C369 1.429 . S
C361 C359 1.419 . S
C361 C362 1.363 . S
C361 H364 0.929 . S
C362 C361 1.363 . S
C362 C368 1.428 . S
H363 C359 0.930 . S
H364 C361 0.929 . S
S365 N366 1.613 . S
S365 N367 1.610 . S
N366 S365 1.613 . S
N366 C369 1.350 . S
N367 S365 1.610 . S
N367 C368 1.351 . S
C368 C362 1.428 . S
C368 N367 1.351 . S
C368 C369 1.434 . S
C369 C360 1.429 . S
C369 N366 1.350 . S
C369 C368 1.434 . S
C370 C371 1.369 . S
C370 C372 1.419 . S
C370 H374 0.930 . S
C371 C370 1.369 . S
C371 C380 1.429 . S
C372 C370 1.419 . S
C372 C373 1.363 . S
C372 H375 0.929 . S
C373 C372 1.363 . S
C373 C379 1.428 . S
H374 C370 0.930 . S
H375 C372 0.929 . S
S376 N377 1.613 . S
S376 N378 1.610 . S
N377 S376 1.613 . S
N377 C380 1.350 . S
N378 S376 1.610 . S
N378 C379 1.351 . S
C379 C373 1.428 . S
C379 N378 1.351 . S
C379 C380 1.434 . S
C380 C371 1.429 . S
C380 N377 1.350 . S
C380 C379 1.434 . S
C381 C382 1.369 . S
C381 C383 1.419 . S
C381 H385 0.930 . S
C382 C381 1.369 . S
C382 C391 1.429 . S
C383 C381 1.419 . S
C383 C384 1.363 . S
C383 H386 0.929 . S
C384 C383 1.363 . S
C384 C390 1.428 . S
H385 C381 0.930 . S
H386 C383 0.929 . S
S387 N388 1.613 . S
S387 N389 1.610 . S
N388 S387 1.613 . S
N388 C391 1.350 . S
N389 S387 1.610 . S
N389 C390 1.351 . S
C390 C384 1.428 . S
C390 N389 1.351 . S
C390 C391 1.434 . S
C391 C382 1.429 . S
C391 N388 1.350 . S
C391 C390 1.434 . S
C392 C393 1.369 . S
C392 C394 1.419 . S
C392 H396 0.930 . S
C393 C392 1.369 . S
C393 C402 1.429 . S
C394 C392 1.419 . S
C394 C395 1.363 . S
C394 H397 0.929 . S
C395 C394 1.363 . S
C395 C401 1.428 . S
H396 C392 0.930 . S
H397 C394 0.929 . S
S398 N399 1.613 . S
S398 N400 1.610 . S
N399 S398 1.613 . S
N399 C402 1.350 . S
N400 S398 1.610 . S
N400 C401 1.351 . S
C401 C395 1.428 . S
C401 N400 1.351 . S
C401 C402 1.434 . S
C402 C393 1.429 . S
C402 N399 1.350 . S
C402 C401 1.434 . S
C403 C404 1.369 . S
C403 C405 1.419 . S
C403 H407 0.930 . S
C404 C403 1.369 . S
C404 C413 1.429 . S
C405 C403 1.419 . S
C405 C406 1.363 . S
C405 H408 0.929 . S
C406 C405 1.363 . S
C406 C412 1.428 . S
H407 C403 0.930 . S
H408 C405 0.929 . S
S409 N410 1.613 . S
S409 N411 1.610 . S
N410 S409 1.613 . S
N410 C413 1.350 . S
N411 S409 1.610 . S
N411 C412 1.351 . S
C412 C406 1.428 . S
C412 N411 1.351 . S
C412 C413 1.434 . S
C413 C404 1.429 . S
C413 N410 1.350 . S
C413 C412 1.434 . S
C414 C415 1.369 . S
C414 C416 1.419 . S
C414 H418 0.930 . S
C415 C414 1.369 . S
C415 C424 1.429 . S
C416 C414 1.419 . S
C416 C417 1.363 . S
C416 H419 0.929 . S
C417 C416 1.363 . S
C417 C423 1.428 . S
H418 C414 0.930 . S
H419 C416 0.929 . S
S420 N421 1.613 . S
S420 N422 1.610 . S
N421 S420 1.613 . S
N421 C424 1.350 . S
N422 S420 1.610 . S
N422 C423 1.351 . S
C423 C417 1.428 . S
C423 N422 1.351 . S
C423 C424 1.434 . S
C424 C415 1.429 . S
C424 N421 1.350 . S
C424 C423 1.434 . S
C425 C426 1.369 . S
C425 C427 1.419 . S
C425 H429 0.930 . S
C426 C425 1.369 . S
C426 C435 1.429 . S
C427 C425 1.419 . S
C427 C428 1.363 . S
C427 H430 0.929 . S
C428 C427 1.363 . S
C428 C434 1.428 . S
H429 C425 0.930 . S
H430 C427 0.929 . S
S431 N432 1.613 . S
S431 N433 1.610 1_554 S
N432 S431 1.613 . S
N432 C435 1.350 1_554 S
N433 S431 1.610 1_556 S
N433 C434 1.351 . S
C434 C428 1.428 . S
C434 N433 1.351 . S
C434 C435 1.434 . S
C435 C426 1.429 . S
C435 N432 1.350 1_556 S
C435 C434 1.434 . S
C173 C7 0.974 . S
C175 C93 1.006 . S
C184 C25 1.011 . S
C186 C104 1.054 . S
C195 C46 1.048 . S
C197 C112 1.069 . S
C208 C126 0.954 . S
C206 C70 0.956 . S
C219 C137 1.008 . S
C217 C28 0.989 . S
C228 C49 0.938 . S
C230 C148 0.954 . S
C239 C67 1.037 . S
C241 C156 1.073 . S
C250 C4 1.008 . S
C252 C170 1.057 . S
C261 C58 1.496 . S
C263 C167 1.607 . S
C274 C134 1.512 . S
C272 C66 1.432 . S
C285 C145 1.628 . S
C283 C3 1.587 . S
C294 C37 1.660 . S
C296 C159 1.704 . S
C307 C101 1.603 . S
C305 C79 1.509 . S
C316 C16 1.656 1_655 S
C318 C115 1.708 . S
C329 C123 1.629 . S
C327 C24 1.579 . S
C340 C90 1.515 . S
C338 C45 1.431 . S
C351 N154 1.494 . S
C349 C19 1.320 . S
C362 N165 1.503 . S
C360 C41 1.367 . S
C371 C62 1.296 . S
C373 N132 1.406 . S
C384 N143 1.377 . S
C382 C82 1.231 . S
C395 N110 1.490 . S
C393 C40 1.325 . S
C404 C61 1.225 . S
C406 N121 1.379 . S
C417 N88 1.407 . S
C415 C83 1.298 . S
C428 N99 1.504 . S
C426 C20 1.365 . S
