# Generated by pormake.
# Topology tbo, (3,4)-cn, num edge types: 1
# Building blocks:
#     Node 0, Type 0, BuildingBlock: QEWDON_clean_linker_0, # of connection points: 3
#     Node 1, Type 0, BuildingBlock: QEWDON_clean_linker_0, # of connection points: 3
#     Node 2, Type 0, BuildingBlock: QEWDON_clean_linker_0, # of connection points: 3
#     Node 3, Type 0, BuildingBlock: QEWDON_clean_linker_0, # of connection points: 3
#     Node 4, Type 0, BuildingBlock: QEWDON_clean_linker_0, # of connection points: 3
#     Node 5, Type 0, BuildingBlock: QEWDON_clean_linker_0, # of connection points: 3
#     Node 6, Type 0, BuildingBlock: QEWDON_clean_linker_0, # of connection points: 3
#     Node 7, Type 0, BuildingBlock: QEWDON_clean_linker_0, # of connection points: 3
#     Node 8, Type 0, BuildingBlock: QEWDON_clean_linker_0, # of connection points: 3
#     Node 9, Type 0, BuildingBlock: QEWDON_clean_linker_0, # of connection points: 3
#     Node 10, Type 0, BuildingBlock: QEWDON_clean_linker_0, # of connection points: 3
#     Node 11, Type 0, BuildingBlock: QEWDON_clean_linker_0, # of connection points: 3
#     Node 12, Type 0, BuildingBlock: QEWDON_clean_linker_0, # of connection points: 3
#     Node 13, Type 0, BuildingBlock: QEWDON_clean_linker_0, # of connection points: 3
#     Node 14, Type 0, BuildingBlock: QEWDON_clean_linker_0, # of connection points: 3
#     Node 15, Type 0, BuildingBlock: QEWDON_clean_linker_0, # of connection points: 3
#     Node 16, Type 0, BuildingBlock: QEWDON_clean_linker_0, # of connection points: 3
#     Node 17, Type 0, BuildingBlock: QEWDON_clean_linker_0, # of connection points: 3
#     Node 18, Type 0, BuildingBlock: QEWDON_clean_linker_0, # of connection points: 3
#     Node 19, Type 0, BuildingBlock: QEWDON_clean_linker_0, # of connection points: 3
#     Node 20, Type 0, BuildingBlock: QEWDON_clean_linker_0, # of connection points: 3
#     Node 21, Type 0, BuildingBlock: QEWDON_clean_linker_0, # of connection points: 3
#     Node 22, Type 0, BuildingBlock: QEWDON_clean_linker_0, # of connection points: 3
#     Node 23, Type 0, BuildingBlock: QEWDON_clean_linker_0, # of connection points: 3
#     Node 24, Type 0, BuildingBlock: QEWDON_clean_linker_0, # of connection points: 3
#     Node 25, Type 0, BuildingBlock: QEWDON_clean_linker_0, # of connection points: 3
#     Node 26, Type 0, BuildingBlock: QEWDON_clean_linker_0, # of connection points: 3
#     Node 27, Type 0, BuildingBlock: QEWDON_clean_linker_0, # of connection points: 3
#     Node 28, Type 0, BuildingBlock: QEWDON_clean_linker_0, # of connection points: 3
#     Node 29, Type 0, BuildingBlock: QEWDON_clean_linker_0, # of connection points: 3
#     Node 30, Type 0, BuildingBlock: QEWDON_clean_linker_0, # of connection points: 3
#     Node 31, Type 0, BuildingBlock: QEWDON_clean_linker_0, # of connection points: 3
#     Node 32, Type 1, BuildingBlock: ESEHIV_clean_sbu_0, # of connection points: 4
#     Node 33, Type 1, BuildingBlock: ESEHIV_clean_sbu_0, # of connection points: 4
#     Node 34, Type 1, BuildingBlock: ESEHIV_clean_sbu_0, # of connection points: 4
#     Node 35, Type 1, BuildingBlock: ESEHIV_clean_sbu_0, # of connection points: 4
#     Node 36, Type 1, BuildingBlock: ESEHIV_clean_sbu_0, # of connection points: 4
#     Node 37, Type 1, BuildingBlock: ESEHIV_clean_sbu_0, # of connection points: 4
#     Node 38, Type 1, BuildingBlock: ESEHIV_clean_sbu_0, # of connection points: 4
#     Node 39, Type 1, BuildingBlock: ESEHIV_clean_sbu_0, # of connection points: 4
#     Node 40, Type 1, BuildingBlock: ESEHIV_clean_sbu_0, # of connection points: 4
#     Node 41, Type 1, BuildingBlock: ESEHIV_clean_sbu_0, # of connection points: 4
#     Node 42, Type 1, BuildingBlock: ESEHIV_clean_sbu_0, # of connection points: 4
#     Node 43, Type 1, BuildingBlock: ESEHIV_clean_sbu_0, # of connection points: 4
#     Node 44, Type 1, BuildingBlock: ESEHIV_clean_sbu_0, # of connection points: 4
#     Node 45, Type 1, BuildingBlock: ESEHIV_clean_sbu_0, # of connection points: 4
#     Node 46, Type 1, BuildingBlock: ESEHIV_clean_sbu_0, # of connection points: 4
#     Node 47, Type 1, BuildingBlock: ESEHIV_clean_sbu_0, # of connection points: 4
#     Node 48, Type 1, BuildingBlock: ESEHIV_clean_sbu_0, # of connection points: 4
#     Node 49, Type 1, BuildingBlock: ESEHIV_clean_sbu_0, # of connection points: 4
#     Node 50, Type 1, BuildingBlock: ESEHIV_clean_sbu_0, # of connection points: 4
#     Node 51, Type 1, BuildingBlock: ESEHIV_clean_sbu_0, # of connection points: 4
#     Node 52, Type 1, BuildingBlock: ESEHIV_clean_sbu_0, # of connection points: 4
#     Node 53, Type 1, BuildingBlock: ESEHIV_clean_sbu_0, # of connection points: 4
#     Node 54, Type 1, BuildingBlock: ESEHIV_clean_sbu_0, # of connection points: 4
#     Node 55, Type 1, BuildingBlock: ESEHIV_clean_sbu_0, # of connection points: 4
#     Edge 56, Type (0, 1), BuildingBlock: AJUNOK_clean_linker_0, # of connection points: 2
#     Edge 57, Type (0, 1), BuildingBlock: AJUNOK_clean_linker_0, # of connection points: 2
#     Edge 58, Type (0, 1), BuildingBlock: AJUNOK_clean_linker_0, # of connection points: 2
#     Edge 59, Type (0, 1), BuildingBlock: AJUNOK_clean_linker_0, # of connection points: 2
#     Edge 60, Type (0, 1), BuildingBlock: AJUNOK_clean_linker_0, # of connection points: 2
#     Edge 61, Type (0, 1), BuildingBlock: AJUNOK_clean_linker_0, # of connection points: 2
#     Edge 62, Type (0, 1), BuildingBlock: AJUNOK_clean_linker_0, # of connection points: 2
#     Edge 63, Type (0, 1), BuildingBlock: AJUNOK_clean_linker_0, # of connection points: 2
#     Edge 64, Type (0, 1), BuildingBlock: AJUNOK_clean_linker_0, # of connection points: 2
#     Edge 65, Type (0, 1), BuildingBlock: AJUNOK_clean_linker_0, # of connection points: 2
#     Edge 66, Type (0, 1), BuildingBlock: AJUNOK_clean_linker_0, # of connection points: 2
#     Edge 67, Type (0, 1), BuildingBlock: AJUNOK_clean_linker_0, # of connection points: 2
#     Edge 68, Type (0, 1), BuildingBlock: AJUNOK_clean_linker_0, # of connection points: 2
#     Edge 69, Type (0, 1), BuildingBlock: AJUNOK_clean_linker_0, # of connection points: 2
#     Edge 70, Type (0, 1), BuildingBlock: AJUNOK_clean_linker_0, # of connection points: 2
#     Edge 71, Type (0, 1), BuildingBlock: AJUNOK_clean_linker_0, # of connection points: 2
#     Edge 72, Type (0, 1), BuildingBlock: AJUNOK_clean_linker_0, # of connection points: 2
#     Edge 73, Type (0, 1), BuildingBlock: AJUNOK_clean_linker_0, # of connection points: 2
#     Edge 74, Type (0, 1), BuildingBlock: AJUNOK_clean_linker_0, # of connection points: 2
#     Edge 75, Type (0, 1), BuildingBlock: AJUNOK_clean_linker_0, # of connection points: 2
#     Edge 76, Type (0, 1), BuildingBlock: AJUNOK_clean_linker_0, # of connection points: 2
#     Edge 77, Type (0, 1), BuildingBlock: AJUNOK_clean_linker_0, # of connection points: 2
#     Edge 78, Type (0, 1), BuildingBlock: AJUNOK_clean_linker_0, # of connection points: 2
#     Edge 79, Type (0, 1), BuildingBlock: AJUNOK_clean_linker_0, # of connection points: 2
#     Edge 80, Type (0, 1), BuildingBlock: AJUNOK_clean_linker_0, # of connection points: 2
#     Edge 81, Type (0, 1), BuildingBlock: AJUNOK_clean_linker_0, # of connection points: 2
#     Edge 82, Type (0, 1), BuildingBlock: AJUNOK_clean_linker_0, # of connection points: 2
#     Edge 83, Type (0, 1), BuildingBlock: AJUNOK_clean_linker_0, # of connection points: 2
#     Edge 84, Type (0, 1), BuildingBlock: AJUNOK_clean_linker_0, # of connection points: 2
#     Edge 85, Type (0, 1), BuildingBlock: AJUNOK_clean_linker_0, # of connection points: 2
#     Edge 86, Type (0, 1), BuildingBlock: AJUNOK_clean_linker_0, # of connection points: 2
#     Edge 87, Type (0, 1), BuildingBlock: AJUNOK_clean_linker_0, # of connection points: 2
#     Edge 88, Type (0, 1), BuildingBlock: AJUNOK_clean_linker_0, # of connection points: 2
#     Edge 89, Type (0, 1), BuildingBlock: AJUNOK_clean_linker_0, # of connection points: 2
#     Edge 90, Type (0, 1), BuildingBlock: AJUNOK_clean_linker_0, # of connection points: 2
#     Edge 91, Type (0, 1), BuildingBlock: AJUNOK_clean_linker_0, # of connection points: 2
#     Edge 92, Type (0, 1), BuildingBlock: AJUNOK_clean_linker_0, # of connection points: 2
#     Edge 93, Type (0, 1), BuildingBlock: AJUNOK_clean_linker_0, # of connection points: 2
#     Edge 94, Type (0, 1), BuildingBlock: AJUNOK_clean_linker_0, # of connection points: 2
#     Edge 95, Type (0, 1), BuildingBlock: AJUNOK_clean_linker_0, # of connection points: 2
#     Edge 96, Type (0, 1), BuildingBlock: AJUNOK_clean_linker_0, # of connection points: 2
#     Edge 97, Type (0, 1), BuildingBlock: AJUNOK_clean_linker_0, # of connection points: 2
#     Edge 98, Type (0, 1), BuildingBlock: AJUNOK_clean_linker_0, # of connection points: 2
#     Edge 99, Type (0, 1), BuildingBlock: AJUNOK_clean_linker_0, # of connection points: 2
#     Edge 100, Type (0, 1), BuildingBlock: AJUNOK_clean_linker_0, # of connection points: 2
#     Edge 101, Type (0, 1), BuildingBlock: AJUNOK_clean_linker_0, # of connection points: 2
#     Edge 102, Type (0, 1), BuildingBlock: AJUNOK_clean_linker_0, # of connection points: 2
#     Edge 103, Type (0, 1), BuildingBlock: AJUNOK_clean_linker_0, # of connection points: 2
#     Edge 104, Type (0, 1), BuildingBlock: AJUNOK_clean_linker_0, # of connection points: 2
#     Edge 105, Type (0, 1), BuildingBlock: AJUNOK_clean_linker_0, # of connection points: 2
#     Edge 106, Type (0, 1), BuildingBlock: AJUNOK_clean_linker_0, # of connection points: 2
#     Edge 107, Type (0, 1), BuildingBlock: AJUNOK_clean_linker_0, # of connection points: 2
#     Edge 108, Type (0, 1), BuildingBlock: AJUNOK_clean_linker_0, # of connection points: 2
#     Edge 109, Type (0, 1), BuildingBlock: AJUNOK_clean_linker_0, # of connection points: 2
#     Edge 110, Type (0, 1), BuildingBlock: AJUNOK_clean_linker_0, # of connection points: 2
#     Edge 111, Type (0, 1), BuildingBlock: AJUNOK_clean_linker_0, # of connection points: 2
#     Edge 112, Type (0, 1), BuildingBlock: AJUNOK_clean_linker_0, # of connection points: 2
#     Edge 113, Type (0, 1), BuildingBlock: AJUNOK_clean_linker_0, # of connection points: 2
#     Edge 114, Type (0, 1), BuildingBlock: AJUNOK_clean_linker_0, # of connection points: 2
#     Edge 115, Type (0, 1), BuildingBlock: AJUNOK_clean_linker_0, # of connection points: 2
#     Edge 116, Type (0, 1), BuildingBlock: AJUNOK_clean_linker_0, # of connection points: 2
#     Edge 117, Type (0, 1), BuildingBlock: AJUNOK_clean_linker_0, # of connection points: 2
#     Edge 118, Type (0, 1), BuildingBlock: AJUNOK_clean_linker_0, # of connection points: 2
#     Edge 119, Type (0, 1), BuildingBlock: AJUNOK_clean_linker_0, # of connection points: 2
#     Edge 120, Type (0, 1), BuildingBlock: AJUNOK_clean_linker_0, # of connection points: 2
#     Edge 121, Type (0, 1), BuildingBlock: AJUNOK_clean_linker_0, # of connection points: 2
#     Edge 122, Type (0, 1), BuildingBlock: AJUNOK_clean_linker_0, # of connection points: 2
#     Edge 123, Type (0, 1), BuildingBlock: AJUNOK_clean_linker_0, # of connection points: 2
#     Edge 124, Type (0, 1), BuildingBlock: AJUNOK_clean_linker_0, # of connection points: 2
#     Edge 125, Type (0, 1), BuildingBlock: AJUNOK_clean_linker_0, # of connection points: 2
#     Edge 126, Type (0, 1), BuildingBlock: AJUNOK_clean_linker_0, # of connection points: 2
#     Edge 127, Type (0, 1), BuildingBlock: AJUNOK_clean_linker_0, # of connection points: 2
#     Edge 128, Type (0, 1), BuildingBlock: AJUNOK_clean_linker_0, # of connection points: 2
#     Edge 129, Type (0, 1), BuildingBlock: AJUNOK_clean_linker_0, # of connection points: 2
#     Edge 130, Type (0, 1), BuildingBlock: AJUNOK_clean_linker_0, # of connection points: 2
#     Edge 131, Type (0, 1), BuildingBlock: AJUNOK_clean_linker_0, # of connection points: 2
#     Edge 132, Type (0, 1), BuildingBlock: AJUNOK_clean_linker_0, # of connection points: 2
#     Edge 133, Type (0, 1), BuildingBlock: AJUNOK_clean_linker_0, # of connection points: 2
#     Edge 134, Type (0, 1), BuildingBlock: AJUNOK_clean_linker_0, # of connection points: 2
#     Edge 135, Type (0, 1), BuildingBlock: AJUNOK_clean_linker_0, # of connection points: 2
#     Edge 136, Type (0, 1), BuildingBlock: AJUNOK_clean_linker_0, # of connection points: 2
#     Edge 137, Type (0, 1), BuildingBlock: AJUNOK_clean_linker_0, # of connection points: 2
#     Edge 138, Type (0, 1), BuildingBlock: AJUNOK_clean_linker_0, # of connection points: 2
#     Edge 139, Type (0, 1), BuildingBlock: AJUNOK_clean_linker_0, # of connection points: 2
#     Edge 140, Type (0, 1), BuildingBlock: AJUNOK_clean_linker_0, # of connection points: 2
#     Edge 141, Type (0, 1), BuildingBlock: AJUNOK_clean_linker_0, # of connection points: 2
#     Edge 142, Type (0, 1), BuildingBlock: AJUNOK_clean_linker_0, # of connection points: 2
#     Edge 143, Type (0, 1), BuildingBlock: AJUNOK_clean_linker_0, # of connection points: 2
#     Edge 144, Type (0, 1), BuildingBlock: AJUNOK_clean_linker_0, # of connection points: 2
#     Edge 145, Type (0, 1), BuildingBlock: AJUNOK_clean_linker_0, # of connection points: 2
#     Edge 146, Type (0, 1), BuildingBlock: AJUNOK_clean_linker_0, # of connection points: 2
#     Edge 147, Type (0, 1), BuildingBlock: AJUNOK_clean_linker_0, # of connection points: 2
#     Edge 148, Type (0, 1), BuildingBlock: AJUNOK_clean_linker_0, # of connection points: 2
#     Edge 149, Type (0, 1), BuildingBlock: AJUNOK_clean_linker_0, # of connection points: 2
#     Edge 150, Type (0, 1), BuildingBlock: AJUNOK_clean_linker_0, # of connection points: 2
#     Edge 151, Type (0, 1), BuildingBlock: AJUNOK_clean_linker_0, # of connection points: 2
# Relax obj value: 0.049
# Max RMSD: 0.215
# Mean RMSD: 0.135
data_MOF--net-tbo--node1-ESEHIV_clean_sbu_0--node2-QEWDON_clean_linker_0--edge1-AJUNOK_clean_linker_0
_symmetry_space_group_name_H-M    P1
_symmetry_Int_Tables_number       1
_symmetry_cell_setting            triclinic
loop_
_symmetry_equiv_pos_as_xyz
'x, y, z'
_cell_length_a     51.910198
_cell_length_b     52.531421
_cell_length_c     57.520096
_cell_angle_alpha  89.382214
_cell_angle_beta   94.615256
_cell_angle_gamma 103.81267
loop_
_atom_site_label
_atom_site_type_symbol
_atom_site_fract_x
_atom_site_fract_y
_atom_site_fract_z
_atom_type_partial_charge
H0 H 0.19869 0.1212 0.24885 0.0
C1 C 0.2123 0.12957 0.23592 0.0
C2 C 0.23693 0.12279 0.23599 0.0
C3 C 0.20484 0.14632 0.21874 0.0
H4 H 0.27338 0.12791 0.21923 0.0
C5 C 0.25433 0.13303 0.21884 0.0
C6 C 0.24709 0.14902 0.20092 0.0
C7 C 0.22251 0.15597 0.20138 0.0
C8 C 0.17781 0.15205 0.21754 0.0
H9 H 0.21684 0.1685 0.18782 0.0
C10 C 0.16586 0.15745 0.23773 0.0
C11 C 0.14058 0.16348 0.23565 0.0
C12 C 0.16359 0.15193 0.19563 0.0
H13 H 0.17161 0.14712 0.17989 0.0
C14 C 0.13865 0.15764 0.19364 0.0
H15 H 0.17639 0.15771 0.2548 0.0
C16 C 0.12731 0.16352 0.2134 0.0
H17 H 0.10788 0.16788 0.21132 0.0
H18 H 0.12803 0.15747 0.17663 0.0
H19 H 0.93534 0.26087 0.19875 0.0
C20 C 0.92691 0.24026 0.20162 0.0
C21 C 0.93982 0.2268 0.21825 0.0
C22 C 0.90286 0.22718 0.18929 0.0
H23 H 0.93805 0.19042 0.23645 0.0
C24 C 0.92842 0.20052 0.22311 0.0
C25 C 0.90435 0.1874 0.21139 0.0
C26 C 0.89215 0.2005 0.19404 0.0
C27 C 0.88814 0.24122 0.17215 0.0
H28 H 0.87383 0.18993 0.18471 0.0
C29 C 0.90165 0.26091 0.15755 0.0
C30 C 0.8873 0.27308 0.14079 0.0
C31 C 0.86009 0.23464 0.17017 0.0
H32 H 0.84891 0.22044 0.18162 0.0
C33 C 0.84593 0.24634 0.1534 0.0
H34 H 0.92317 0.2667 0.15913 0.0
C35 C 0.85942 0.26514 0.13865 0.0
H36 H 0.84808 0.27349 0.12539 0.0
H37 H 0.82439 0.24077 0.1518 0.0
H38 H 0.92442 0.83181 0.23007 0.0
C39 C 0.91404 0.82907 0.21282 0.0
C40 C 0.92313 0.81493 0.19586 0.0
C41 C 0.89163 0.83967 0.20789 0.0
H42 H 0.91643 0.80128 0.16011 0.0
C43 C 0.90991 0.81229 0.17337 0.0
C44 C 0.88764 0.82282 0.16801 0.0
C45 C 0.87856 0.8365 0.18531 0.0
C46 C 0.88082 0.85176 0.22718 0.0
H47 H 0.86103 0.84407 0.18136 0.0
C48 C 0.87413 0.87639 0.22507 0.0
C49 C 0.86551 0.8876 0.24444 0.0
C50 C 0.87769 0.83832 0.24844 0.0
H51 H 0.88219 0.81927 0.25048 0.0
C52 C 0.86861 0.84908 0.26727 0.0
H53 H 0.87647 0.88709 0.20887 0.0
C54 C 0.8627 0.87354 0.26536 0.0
H55 H 0.85577 0.88153 0.28032 0.0
H56 H 0.86626 0.83845 0.28349 0.0
H57 H 0.24963 0.91084 0.16376 0.0
C58 C 0.23617 0.89865 0.17512 0.0
C59 C 0.23994 0.90314 0.19927 0.0
C60 C 0.21477 0.87909 0.16547 0.0
H61 H 0.2245 0.89169 0.2325 0.0
C62 C 0.22221 0.88763 0.21392 0.0
C63 C 0.20095 0.86759 0.20465 0.0
C64 C 0.19719 0.86363 0.18034 0.0
C65 C 0.21043 0.87556 0.13979 0.0
H66 H 0.18084 0.84823 0.17299 0.0
C67 C 0.23171 0.8744 0.12643 0.0
C68 C 0.2278 0.87182 0.102 0.0
C69 C 0.18515 0.8742 0.12845 0.0
H70 H 0.16852 0.87531 0.13831 0.0
C71 C 0.18128 0.87217 0.10418 0.0
H72 H 0.25115 0.87487 0.13511 0.0
C73 C 0.20245 0.87113 0.091 0.0
H74 H 0.19898 0.86983 0.07218 0.0
H75 H 0.16182 0.87152 0.09554 0.0
H76 H 0.25725 0.86262 0.87431 0.0
C77 C 0.23809 0.86053 0.86455 0.0
C78 C 0.23005 0.88302 0.85657 0.0
C79 C 0.22173 0.83543 0.85964 0.0
H80 H 0.19904 0.89761 0.8375 0.0
C81 C 0.20527 0.88034 0.84387 0.0
C82 C 0.18902 0.8554 0.8385 0.0
C83 C 0.19728 0.83308 0.84652 0.0
C84 C 0.23003 0.81161 0.86817 0.0
H85 H 0.1843 0.81381 0.843 0.0
C86 C 0.24081 0.81045 0.89126 0.0
C87 C 0.24848 0.78785 0.89948 0.0
C88 C 0.22699 0.78981 0.85334 0.0
H89 H 0.21891 0.79022 0.83541 0.0
C90 C 0.23479 0.7674 0.8614 0.0
H91 H 0.24326 0.82714 0.90286 0.0
C92 C 0.24559 0.76641 0.88433 0.0
H93 H 0.25152 0.74887 0.89029 0.0
H94 H 0.23253 0.75077 0.84983 0.0
H95 H 0.23079 0.18427 0.94901 0.0
C96 C 0.24293 0.17731 0.9372 0.0
C97 C 0.26956 0.17786 0.94426 0.0
C98 C 0.23122 0.166 0.91574 0.0
H99 H 0.30543 0.16854 0.93442 0.0
C100 C 0.28473 0.16753 0.9291 0.0
C101 C 0.27309 0.15533 0.90766 0.0
C102 C 0.24624 0.15507 0.90118 0.0
C103 C 0.20213 0.16122 0.91053 0.0
H104 H 0.23636 0.14491 0.88542 0.0
C105 C 0.19076 0.17657 0.89436 0.0
C106 C 0.16285 0.17153 0.88997 0.0
C107 C 0.18559 0.14062 0.92189 0.0
H108 H 0.19405 0.12858 0.93429 0.0
C109 C 0.15807 0.13516 0.91713 0.0
H110 H 0.20348 0.19263 0.88568 0.0
C111 C 0.14674 0.15042 0.90127 0.0
H112 H 0.1253 0.14567 0.89777 0.0
H113 H 0.14545 0.11905 0.92579 0.0
H114 H 0.94028 0.19651 0.90507 0.0
C115 C 0.93179 0.18244 0.89125 0.0
C116 C 0.93903 0.18856 0.8686 0.0
C117 C 0.91437 0.15836 0.89616 0.0
H118 H 0.93635 0.17444 0.83327 0.0
C119 C 0.92979 0.17008 0.85062 0.0
C120 C 0.91358 0.14541 0.85524 0.0
C121 C 0.90538 0.13989 0.87788 0.0
C122 C 0.90664 0.15252 0.92051 0.0
H123 H 0.89199 0.1212 0.88109 0.0
C124 C 0.90529 0.17304 0.93561 0.0
C125 C 0.90141 0.16858 0.95935 0.0
C126 C 0.90211 0.12688 0.92939 0.0
H127 H 0.90338 0.11053 0.91861 0.0
C128 C 0.8969 0.12212 0.95272 0.0
H129 H 0.90779 0.19284 0.92911 0.0
C130 C 0.89688 0.14285 0.96774 0.0
H131 H 0.89425 0.13885 0.98601 0.0
H132 H 0.89375 0.10236 0.95939 0.0
H133 H 0.92025 0.86532 0.85808 0.0
C134 C 0.91352 0.85289 0.87261 0.0
C135 C 0.92339 0.83027 0.87727 0.0
C136 C 0.89664 0.86052 0.88792 0.0
H137 H 0.92299 0.79778 0.90072 0.0
C138 C 0.91568 0.81522 0.89706 0.0
C139 C 0.89924 0.82257 0.91256 0.0
C140 C 0.88925 0.84476 0.90751 0.0
C141 C 0.88969 0.88664 0.8861 0.0
H142 H 0.87673 0.8506 0.91964 0.0
C143 C 0.87832 0.89587 0.86535 0.0
C144 C 0.87044 0.92008 0.86536 0.0
C145 C 0.89399 0.90239 0.90634 0.0
H146 H 0.90319 0.89631 0.92235 0.0
C147 C 0.88641 0.92603 0.9064 0.0
H148 H 0.8755 0.88422 0.84953 0.0
C149 C 0.87451 0.93465 0.8863 0.0
H150 H 0.86825 0.95283 0.88727 0.0
H151 H 0.88957 0.93767 0.92225 0.0
H152 H 0.22995 0.63297 0.72514 0.0
C153 C 0.23686 0.64637 0.71125 0.0
C154 C 0.26204 0.64754 0.70325 0.0
C155 C 0.21987 0.66132 0.7007 0.0
H156 H 0.28965 0.66554 0.67844 0.0
C157 C 0.27034 0.66451 0.6848 0.0
C158 C 0.25377 0.67961 0.67393 0.0
C159 C 0.22851 0.67791 0.68202 0.0
C160 C 0.19181 0.65641 0.70702 0.0
H161 H 0.21527 0.68877 0.67329 0.0
C162 C 0.18041 0.67661 0.7145 0.0
C163 C 0.15358 0.67075 0.72029 0.0
C164 C 0.17612 0.6306 0.70538 0.0
H165 H 0.18426 0.61482 0.69956 0.0
C166 C 0.14978 0.62482 0.71102 0.0
H167 H 0.19233 0.69658 0.71599 0.0
C168 C 0.13863 0.64462 0.71849 0.0
H169 H 0.1183 0.63936 0.72332 0.0
H170 H 0.13798 0.60482 0.70976 0.0
H171 H 0.89913 0.75624 0.67753 0.0
C172 C 0.88933 0.73738 0.68426 0.0
C173 C 0.90407 0.72366 0.69907 0.0
C174 C 0.86192 0.727 0.67852 0.0
H175 H 0.90233 0.68903 0.71996 0.0
C176 C 0.89119 0.69952 0.7082 0.0
C177 C 0.86395 0.68901 0.70285 0.0
C178 C 0.84952 0.70257 0.6877 0.0
C179 C 0.84595 0.7419 0.66359 0.0
H180 H 0.82849 0.69422 0.68343 0.0
C181 C 0.8562 0.75551 0.64381 0.0
C182 C 0.84079 0.76911 0.62941 0.0
C183 C 0.82013 0.74242 0.66901 0.0
H184 H 0.81182 0.73265 0.68434 0.0
C185 C 0.80476 0.75574 0.65482 0.0
H186 H 0.87609 0.75532 0.63951 0.0
C187 C 0.81488 0.76884 0.63511 0.0
H188 H 0.80222 0.77848 0.6242 0.0
H189 H 0.78483 0.75582 0.65906 0.0
H190 H 0.9206 0.36483 0.7459 0.0
C191 C 0.91331 0.35561 0.7291 0.0
C192 C 0.92806 0.34022 0.71861 0.0
C193 C 0.88828 0.35752 0.71872 0.0
H194 H 0.92897 0.3146 0.68997 0.0
C195 C 0.91786 0.32702 0.69763 0.0
C196 C 0.89263 0.32768 0.68743 0.0
C197 C 0.87805 0.34335 0.6978 0.0
C198 C 0.87051 0.36931 0.73217 0.0
H199 H 0.85815 0.34328 0.69042 0.0
C200 C 0.87654 0.39624 0.73877 0.0
C201 C 0.85919 0.40586 0.75239 0.0
C202 C 0.8472 0.35252 0.73928 0.0
H203 H 0.84223 0.33188 0.73467 0.0
C204 C 0.83026 0.36194 0.75267 0.0
H205 H 0.89434 0.40949 0.73327 0.0
C206 C 0.83614 0.38829 0.75911 0.0
H207 H 0.82219 0.39517 0.76891 0.0
H208 H 0.81234 0.34876 0.75797 0.0
H209 H 0.22701 0.40382 0.71552 0.0
C210 C 0.21094 0.39705 0.72664 0.0
C211 C 0.2115 0.41019 0.74796 0.0
C212 C 0.18982 0.37555 0.71966 0.0
H213 H 0.18992 0.41293 0.77805 0.0
C214 C 0.19029 0.4023 0.76207 0.0
C215 C 0.16912 0.38114 0.75545 0.0
C216 C 0.16915 0.36757 0.73458 0.0
C217 C 0.18905 0.36164 0.69687 0.0
H218 H 0.15309 0.35053 0.7303 0.0
C219 C 0.21266 0.36044 0.68667 0.0
C220 C 0.21151 0.34746 0.66521 0.0
C221 C 0.16442 0.34963 0.68487 0.0
H222 H 0.14577 0.35083 0.69139 0.0
C223 C 0.16337 0.33623 0.66387 0.0
H224 H 0.232 0.3693 0.69528 0.0
C225 C 0.18675 0.33506 0.6541 0.0
H226 H 0.18553 0.32507 0.63752 0.0
H227 H 0.1443 0.32706 0.65494 0.0
H228 H 0.25768 0.35511 0.41228 0.0
C229 C 0.23755 0.34342 0.40862 0.0
C230 C 0.2213 0.35066 0.39026 0.0
C231 C 0.22786 0.32113 0.4221 0.0
H232 H 0.18348 0.34046 0.37024 0.0
C233 C 0.19554 0.33527 0.38499 0.0
C234 C 0.18556 0.31285 0.39792 0.0
C235 C 0.20164 0.30622 0.41676 0.0
C236 C 0.24495 0.31316 0.44161 0.0
H237 H 0.19359 0.28954 0.42742 0.0
C238 C 0.26216 0.33202 0.45652 0.0
C239 C 0.27762 0.32432 0.47534 0.0
C240 C 0.24387 0.28644 0.44568 0.0
H241 H 0.23133 0.27139 0.43432 0.0
C242 C 0.25912 0.2788 0.46439 0.0
H243 H 0.26304 0.35267 0.45396 0.0
C244 C 0.27575 0.2976 0.47927 0.0
H245 H 0.28739 0.29135 0.49371 0.0
H246 H 0.25803 0.2582 0.46736 0.0
H247 H 0.23553 0.66255 0.41327 0.0
C248 C 0.24549 0.65054 0.40371 0.0
C249 C 0.26923 0.64508 0.41374 0.0
C250 C 0.23322 0.63877 0.38241 0.0
H251 H 0.29912 0.6235 0.40954 0.0
C252 C 0.28098 0.62804 0.40188 0.0
C253 C 0.26911 0.61603 0.38065 0.0
C254 C 0.24535 0.62178 0.37087 0.0
C255 C 0.20485 0.63864 0.37584 0.0
H256 H 0.23516 0.61137 0.35532 0.0
C257 C 0.19648 0.65311 0.35693 0.0
C258 C 0.16901 0.65233 0.35204 0.0
C259 C 0.1857 0.62323 0.38929 0.0
H260 H 0.19165 0.61193 0.40374 0.0
C261 C 0.15877 0.62203 0.38424 0.0
H262 H 0.21115 0.6653 0.34662 0.0
C263 C 0.15049 0.63641 0.36586 0.0
H264 H 0.12937 0.63503 0.36241 0.0
H265 H 0.14422 0.60994 0.3947 0.0
H266 H 1.00612 0.69707 0.39683 0.0
C267 C 0.99259 0.68287 0.38529 0.0
C268 C 0.99233 0.68613 0.36103 0.0
C269 C 0.97527 0.66142 0.39479 0.0
H270 H 0.97379 0.67015 0.32761 0.0
C271 C 0.97405 0.66785 0.34637 0.0
C272 C 0.95651 0.64629 0.35578 0.0
C273 C 0.9573 0.64329 0.3801 0.0
C274 C 0.97541 0.6582 0.42019 0.0
H275 H 0.94344 0.62722 0.38773 0.0
C276 C 0.96177 0.67236 0.43319 0.0
C277 C 0.96088 0.66866 0.45737 0.0
C278 C 0.98834 0.64031 0.43135 0.0
H279 H 0.99881 0.62915 0.42144 0.0
C280 C 0.98769 0.63669 0.4554 0.0
H281 H 0.95122 0.68565 0.42435 0.0
C282 C 0.97396 0.65069 0.46837 0.0
H283 H 0.97357 0.6475 0.48699 0.0
H284 H 0.9977 0.62287 0.46399 0.0
H285 H 0.91628 0.31904 0.38299 0.0
C286 C 0.90318 0.31301 0.39684 0.0
C287 C 0.90056 0.28785 0.40637 0.0
C288 C 0.89064 0.33123 0.40598 0.0
H289 H 0.88324 0.26194 0.43344 0.0
C290 C 0.88468 0.28089 0.4253 0.0
C291 C 0.87175 0.29886 0.43454 0.0
C292 C 0.8747 0.3239 0.42466 0.0
C293 C 0.89779 0.35896 0.39827 0.0
H294 H 0.86592 0.3382 0.43245 0.0
C295 C 0.87836 0.37261 0.39043 0.0
C296 C 0.88623 0.39871 0.38255 0.0
C297 C 0.92487 0.37188 0.39877 0.0
H298 H 0.94013 0.36197 0.405 0.0
C299 C 0.9326 0.39774 0.39147 0.0
H300 H 0.85745 0.36274 0.38974 0.0
C301 C 0.91351 0.41103 0.38337 0.0
H302 H 0.92011 0.43114 0.37776 0.0
H303 H 0.95352 0.4075 0.39203 0.0
H304 H 0.7002 0.11175 0.71911 0.0
C305 C 0.71014 0.12193 0.70461 0.0
C306 C 0.73566 0.11912 0.70031 0.0
C307 C 0.69637 0.13594 0.6892 0.0
H308 H 0.76709 0.12914 0.67695 0.0
C309 C 0.74747 0.1312 0.68042 0.0
C310 C 0.7341 0.14577 0.66492 0.0
C311 C 0.70843 0.14775 0.66949 0.0
C312 C 0.66776 0.13431 0.69129 0.0
H313 H 0.69719 0.15746 0.65711 0.0
C314 C 0.65881 0.14755 0.7091 0.0
C315 C 0.63126 0.1449 0.71058 0.0
C316 C 0.64908 0.1187 0.67511 0.0
H317 H 0.65557 0.10837 0.66134 0.0
C318 C 0.62191 0.11594 0.67671 0.0
H319 H 0.67307 0.15978 0.72159 0.0
C320 C 0.61303 0.12886 0.69434 0.0
H321 H 0.59181 0.12661 0.69516 0.0
H322 H 0.60767 0.10374 0.66421 0.0
H323 H 0.40535 0.27849 0.70479 0.0
C324 C 0.39685 0.25845 0.70963 0.0
C325 C 0.41395 0.24326 0.71909 0.0
C326 C 0.36904 0.24789 0.7068 0.0
H327 H 0.4164 0.20623 0.73441 0.0
C328 C 0.40328 0.21769 0.7264 0.0
C329 C 0.37584 0.20708 0.72444 0.0
C330 C 0.35882 0.22201 0.7144 0.0
C331 C 0.35066 0.26382 0.69636 0.0
H332 H 0.33769 0.2131 0.71227 0.0
C333 C 0.35897 0.28323 0.67953 0.0
C334 C 0.34196 0.29884 0.67047 0.0
C335 C 0.32464 0.26003 0.70345 0.0
H336 H 0.31755 0.24601 0.71679 0.0
C337 C 0.30741 0.27475 0.6938 0.0
H338 H 0.37882 0.28667 0.67372 0.0
C339 C 0.31596 0.29404 0.67744 0.0
H340 H 0.30238 0.30551 0.67052 0.0
H341 H 0.28746 0.27151 0.69935 0.0
H342 H 0.4162 0.88374 0.74753 0.0
C343 C 0.41398 0.87555 0.73008 0.0
C344 C 0.43249 0.86183 0.72315 0.0
C345 C 0.39143 0.87693 0.71518 0.0
H346 H 0.44151 0.83809 0.69595 0.0
C347 C 0.42797 0.84943 0.70106 0.0
C348 C 0.4056 0.85039 0.68594 0.0
C349 C 0.38792 0.86479 0.69297 0.0
C350 C 0.3696 0.88793 0.72342 0.0
H351 H 0.3708 0.8659 0.68127 0.0
C352 C 0.37443 0.91179 0.73627 0.0
C353 C 0.35284 0.92141 0.74324 0.0
C354 C 0.34309 0.87381 0.71829 0.0
H355 H 0.33858 0.85515 0.70916 0.0
C356 C 0.32196 0.88328 0.72496 0.0
H357 H 0.39469 0.92269 0.74075 0.0
C358 C 0.32671 0.90686 0.73713 0.0
H359 H 0.30973 0.91382 0.74172 0.0
H360 H 0.30172 0.87225 0.72066 0.0
H361 H 0.72619 0.86234 0.64188 0.0
C362 C 0.7128 0.85537 0.65534 0.0
C363 C 0.71609 0.86926 0.67643 0.0
C364 C 0.69165 0.83314 0.65125 0.0
H365 H 0.70112 0.87146 0.70994 0.0
C366 C 0.6985 0.86055 0.69368 0.0
C367 C 0.67773 0.83788 0.6902 0.0
C368 C 0.67435 0.82436 0.66881 0.0
C369 C 0.68737 0.81941 0.62845 0.0
H370 H 0.65871 0.80663 0.66596 0.0
C371 C 0.7086 0.81235 0.61862 0.0
C372 C 0.70476 0.80013 0.59662 0.0
C373 C 0.66212 0.8138 0.61617 0.0
H374 H 0.64547 0.81917 0.62337 0.0
C375 C 0.65829 0.80173 0.59423 0.0
H376 H 0.72811 0.81632 0.62806 0.0
C377 C 0.67952 0.79499 0.58442 0.0
H378 H 0.67618 0.78543 0.56747 0.0
H379 H 0.63883 0.79762 0.58481 0.0
H380 H 0.75458 0.84577 0.35396 0.0
C381 C 0.73321 0.84217 0.35025 0.0
C382 C 0.72172 0.86272 0.34234 0.0
C383 C 0.71736 0.81677 0.35288 0.0
H384 H 0.68479 0.87316 0.33104 0.0
C385 C 0.69405 0.85749 0.3368 0.0
C386 C 0.67817 0.83215 0.33899 0.0
C387 C 0.68983 0.81188 0.34699 0.0
C388 C 0.72933 0.79546 0.36241 0.0
H389 H 0.67728 0.79246 0.34926 0.0
C390 C 0.74681 0.79962 0.38277 0.0
C391 C 0.75661 0.77892 0.39293 0.0
C392 C 0.72247 0.77055 0.35177 0.0
H393 H 0.7092 0.76688 0.33601 0.0
C394 C 0.73277 0.75018 0.36134 0.0
H395 H 0.75231 0.81885 0.39095 0.0
C396 C 0.7496 0.75423 0.38183 0.0
H397 H 0.75669 0.73788 0.38925 0.0
H398 H 0.72737 0.73105 0.35302 0.0
H399 H 0.72706 0.17243 0.40612 0.0
C400 C 0.73673 0.16326 0.39369 0.0
C401 C 0.76177 0.15814 0.40017 0.0
C402 C 0.72354 0.15581 0.37155 0.0
H403 H 0.79188 0.13975 0.38937 0.0
C404 C 0.77331 0.145 0.38414 0.0
C405 C 0.76031 0.13698 0.36201 0.0
C406 C 0.73558 0.14294 0.35576 0.0
C407 C 0.69503 0.15626 0.36707 0.0
H408 H 0.7251 0.13662 0.33897 0.0
C409 C 0.68624 0.17519 0.35279 0.0
C410 C 0.65871 0.17476 0.34964 0.0
C411 C 0.67624 0.13694 0.37771 0.0
H412 H 0.68255 0.12225 0.38864 0.0
C413 C 0.64922 0.13621 0.37434 0.0
H414 H 0.70067 0.19037 0.34476 0.0
C415 C 0.64052 0.1549 0.36049 0.0
H416 H 0.61935 0.15377 0.3582 0.0
H417 H 0.63493 0.1211 0.38256 0.0
H418 H 0.43346 0.25741 0.41776 0.0
C419 C 0.42571 0.24131 0.40557 0.0
C420 C 0.43717 0.24136 0.38424 0.0
C421 C 0.40513 0.21999 0.41151 0.0
H422 H 0.43743 0.21964 0.35272 0.0
C423 C 0.42812 0.21998 0.3689 0.0
C424 C 0.40824 0.19838 0.37472 0.0
C425 C 0.39627 0.19878 0.39568 0.0
C426 C 0.39446 0.21871 0.43492 0.0
H427 H 0.38069 0.18207 0.39998 0.0
C428 C 0.39049 0.24128 0.4458 0.0
C429 C 0.38155 0.24002 0.46841 0.0
C430 C 0.38909 0.19479 0.44698 0.0
H431 H 0.39252 0.17718 0.43951 0.0
C432 C 0.38011 0.19341 0.46925 0.0
H433 H 0.39433 0.25982 0.43671 0.0
C434 C 0.37658 0.21583 0.48 0.0
H435 H 0.37074 0.21433 0.4977 0.0
H436 H 0.37644 0.17497 0.47844 0.0
H437 H 0.41412 0.85294 0.37646 0.0
C438 C 0.40347 0.84315 0.39076 0.0
C439 C 0.40504 0.81739 0.39679 0.0
C440 C 0.3896 0.85701 0.40408 0.0
H441 H 0.39496 0.78692 0.42237 0.0
C442 C 0.39253 0.80595 0.41651 0.0
C443 C 0.37852 0.81955 0.42988 0.0
C444 C 0.37677 0.84488 0.4233 0.0
C445 C 0.39412 0.88581 0.40201 0.0
H446 H 0.3675 0.85608 0.43438 0.0
C447 C 0.37803 0.89793 0.38678 0.0
C448 C 0.38242 0.9256 0.38658 0.0
C449 C 0.41447 0.90135 0.41683 0.0
H450 H 0.42688 0.89234 0.42873 0.0
C451 C 0.41878 0.92852 0.41674 0.0
H452 H 0.36245 0.88596 0.37519 0.0
C453 C 0.40288 0.94056 0.40185 0.0
H454 H 0.40652 0.96174 0.40241 0.0
H455 H 0.43441 0.94031 0.42837 0.0
H456 H 0.7006 0.6476 0.23487 0.0
C457 C 0.71279 0.65416 0.22052 0.0
C458 C 0.73751 0.64749 0.21993 0.0
C459 C 0.70322 0.66827 0.2022 0.0
H460 H 0.77085 0.64889 0.19933 0.0
C461 C 0.75261 0.65519 0.20064 0.0
C462 C 0.74385 0.66983 0.18238 0.0
C463 C 0.71931 0.67659 0.18354 0.0
C464 C 0.67537 0.67189 0.20102 0.0
H465 H 0.71251 0.68815 0.1697 0.0
C466 C 0.66377 0.6792 0.22068 0.0
C467 C 0.63724 0.68226 0.21854 0.0
C468 C 0.65983 0.66715 0.1796 0.0
H469 H 0.66773 0.66088 0.16436 0.0
C470 C 0.63373 0.66984 0.17756 0.0
H471 H 0.67545 0.68314 0.23728 0.0
C472 C 0.62254 0.67734 0.19676 0.0
H473 H 0.60211 0.67909 0.1946 0.0
H474 H 0.62204 0.66597 0.16097 0.0
H475 H 0.37314 0.72428 0.2075 0.0
C476 C 0.36565 0.70347 0.21031 0.0
C477 C 0.37955 0.69029 0.22635 0.0
C478 C 0.34119 0.69009 0.19905 0.0
H479 H 0.37982 0.65348 0.24312 0.0
C480 C 0.36936 0.66346 0.23032 0.0
C481 C 0.3454 0.64971 0.21857 0.0
C482 C 0.33135 0.66329 0.2031 0.0
C483 C 0.32501 0.70406 0.1838 0.0
H484 H 0.31267 0.65298 0.19409 0.0
C485 C 0.33535 0.71738 0.16407 0.0
C486 C 0.31939 0.7295 0.1489 0.0
C487 C 0.29863 0.70307 0.18842 0.0
H488 H 0.2903 0.69283 0.20356 0.0
C489 C 0.28281 0.71529 0.17355 0.0
H490 H 0.35546 0.7175 0.16015 0.0
C491 C 0.29305 0.72837 0.15384 0.0
H492 H 0.28045 0.73773 0.1425 0.0
H493 H 0.26252 0.71451 0.17724 0.0
H494 H 0.4332 0.31594 0.26539 0.0
C495 C 0.42327 0.31353 0.24795 0.0
C496 C 0.43244 0.29917 0.23136 0.0
C497 C 0.40106 0.3241 0.2427 0.0
H498 H 0.42599 0.28411 0.19614 0.0
C499 C 0.41952 0.29598 0.20871 0.0
C500 C 0.3972 0.30659 0.20282 0.0
C501 C 0.38833 0.32084 0.22 0.0
C502 C 0.38975 0.33563 0.26198 0.0
H503 H 0.37086 0.32848 0.216 0.0
C504 C 0.38296 0.36016 0.26012 0.0
C505 C 0.37361 0.37083 0.27941 0.0
C506 C 0.38621 0.3217 0.28298 0.0
H507 H 0.3908 0.30268 0.28483 0.0
C508 C 0.37649 0.33189 0.30175 0.0
H509 H 0.38555 0.37112 0.24407 0.0
C510 C 0.37023 0.3562 0.30003 0.0
H511 H 0.36222 0.36338 0.31479 0.0
H512 H 0.37368 0.32082 0.31771 0.0
H513 H 0.78417 0.41549 0.18068 0.0
C514 C 0.76914 0.40537 0.1918 0.0
C515 C 0.77148 0.41168 0.21564 0.0
C516 C 0.7468 0.38681 0.18214 0.0
H517 H 0.75349 0.40394 0.24826 0.0
C518 C 0.75177 0.3988 0.2299 0.0
C519 C 0.72922 0.38037 0.22043 0.0
C520 C 0.72684 0.37464 0.19644 0.0
C521 C 0.74363 0.38071 0.15693 0.0
H522 H 0.70915 0.36112 0.18871 0.0
C523 C 0.76239 0.37009 0.14664 0.0
C524 C 0.75859 0.36281 0.12292 0.0
C525 C 0.72125 0.38455 0.14325 0.0
H526 H 0.70653 0.39268 0.15091 0.0
C527 C 0.71779 0.37806 0.11955 0.0
H528 H 0.77966 0.36707 0.1572 0.0
C529 C 0.73633 0.36722 0.10939 0.0
H530 H 0.73301 0.36181 0.09108 0.0
H531 H 0.70055 0.38117 0.10907 0.0
H532 H 0.77105 0.37395 0.87475 0.0
C533 C 0.75097 0.36237 0.87052 0.0
C534 C 0.73264 0.37336 0.857 0.0
C535 C 0.74381 0.33608 0.87748 0.0
H536 H 0.69361 0.3662 0.83904 0.0
C537 C 0.70714 0.35799 0.85047 0.0
C538 C 0.6997 0.33168 0.85715 0.0
C539 C 0.71789 0.32116 0.87129 0.0
C540 C 0.76387 0.3232 0.88916 0.0
H541 H 0.71208 0.30107 0.87714 0.0
C542 C 0.7811 0.33498 0.90831 0.0
C543 C 0.79949 0.32196 0.91946 0.0
C544 C 0.76576 0.29867 0.88089 0.0
H545 H 0.75311 0.28936 0.86594 0.0
C546 C 0.78415 0.28596 0.8916 0.0
H547 H 0.77998 0.35401 0.91464 0.0
C548 C 0.8008 0.29739 0.91079 0.0
H549 H 0.81443 0.28673 0.91913 0.0
H550 H 0.78536 0.26705 0.88511 0.0
H551 H 0.73203 0.6894 0.9149 0.0
C552 C 0.74278 0.67689 0.90695 0.0
C553 C 0.7657 0.67186 0.919 0.0
C554 C 0.73304 0.66519 0.88515 0.0
H555 H 0.79629 0.65013 0.91808 0.0
C556 C 0.77908 0.65483 0.90874 0.0
C557 C 0.77014 0.64354 0.88652 0.0
C558 C 0.74709 0.64888 0.87496 0.0
C559 C 0.70681 0.66787 0.87414 0.0
H560 H 0.7396 0.63966 0.8582 0.0
C561 C 0.69974 0.69229 0.87303 0.0
C562 C 0.67413 0.69381 0.86383 0.0
C563 C 0.68799 0.6453 0.86568 0.0
H564 H 0.6926 0.62624 0.86662 0.0
C565 C 0.66271 0.64686 0.85657 0.0
H566 H 0.71397 0.70995 0.87933 0.0
C567 C 0.65575 0.6709 0.85574 0.0
H568 H 0.636 0.67168 0.84855 0.0
H569 H 0.64837 0.62931 0.85027 0.0
H570 H 0.48559 0.70999 0.90213 0.0
C571 C 0.47177 0.69184 0.89635 0.0
C572 C 0.46732 0.68571 0.87249 0.0
C573 C 0.45857 0.67471 0.91279 0.0
H574 H 0.44531 0.65806 0.84647 0.0
C575 C 0.44909 0.66254 0.86497 0.0
C576 C 0.43518 0.64552 0.88123 0.0
C577 C 0.44049 0.65137 0.90516 0.0
C578 C 0.46236 0.68218 0.93776 0.0
H579 H 0.42963 0.63841 0.91774 0.0
C580 C 0.4581 0.70629 0.94475 0.0
C581 C 0.45996 0.7131 0.96851 0.0
C582 C 0.46932 0.66507 0.9547 0.0
H583 H 0.47271 0.64641 0.94966 0.0
C584 C 0.47199 0.67203 0.9783 0.0
H585 H 0.45242 0.71937 0.93166 0.0
C586 C 0.46713 0.69576 0.98523 0.0
H587 H 0.46803 0.70004 1.00369 0.0
H588 H 0.47727 0.65871 0.99131 0.0
H589 H 0.44542 0.3455 0.88435 0.0
C590 C 0.4371 0.33556 0.89962 0.0
C591 C 0.43981 0.30991 0.90463 0.0
C592 C 0.42575 0.34928 0.91535 0.0
H593 H 0.43215 0.27808 0.92916 0.0
C594 C 0.43004 0.29773 0.92512 0.0
C595 C 0.41878 0.311 0.94106 0.0
C596 C 0.41677 0.33676 0.93611 0.0
C597 C 0.42648 0.37771 0.91191 0.0
H598 H 0.40852 0.34723 0.94863 0.0
C599 C 0.41697 0.38776 0.89073 0.0
C600 C 0.4174 0.41479 0.88886 0.0
C601 C 0.4371 0.39519 0.93053 0.0
H602 H 0.44497 0.38825 0.94676 0.0
C603 C 0.43803 0.42181 0.92846 0.0
H604 H 0.40859 0.37462 0.87621 0.0
C605 C 0.42817 0.43153 0.90789 0.0
H606 H 0.42886 0.45229 0.90683 0.0
H607 H 0.44631 0.43499 0.94296 0.0
Cu608 Cu 0.33905 0.23834 0.07606 0.0
N609 N 0.36961 0.24433 0.05941 0.0
N610 N 0.39376 0.26099 1.02971 0.0
C611 C 0.36919 0.25118 0.0367 0.0
C612 C 0.41047 0.26059 0.04889 0.0
C613 C 0.39551 0.25031 0.0672 0.0
O614 O 0.31057 0.22924 0.05055 0.0
C615 C 0.33438 0.27081 0.11487 0.0
O616 O 0.31092 0.2552 0.11723 0.0
H617 H 0.35108 0.25128 1.02602 0.0
H618 H 0.40286 0.24918 0.08523 0.0
N619 N 0.33481 0.21027 0.09733 0.0
N620 N 0.31665 0.18512 0.12643 0.0
C621 C 0.31266 0.20111 0.10866 0.0
C622 C 0.35342 0.19932 0.10814 0.0
C623 C 0.34224 0.1837 0.12603 0.0
C624 C 0.3114 0.20782 0.04046 0.0
O625 O 0.32787 0.19452 0.05006 0.0
H626 H 0.29427 0.20715 0.10473 0.0
H627 H 0.37407 0.20372 0.10432 0.0
O628 O 0.34531 0.26984 0.0959 0.0
H629 H 0.43182 0.26829 0.04988 0.0
H630 H 0.35262 0.1736 0.13874 0.0
Cu631 Cu 0.8951 0.32309 0.04082 0.0
N632 N 0.86703 0.31262 0.05984 0.0
N633 N 0.83302 0.31527 0.0804 0.0
C634 C 0.85359 0.32859 0.06888 0.0
C635 C 0.83344 0.28979 0.07846 0.0
C636 C 0.85453 0.28823 0.06581 0.0
O637 O 0.92208 0.35248 0.05486 0.0
C638 C 0.86445 0.34649 1.00665 0.0
O639 O 0.85911 0.35989 1.024 0.0
H640 H 0.85901 0.3497 0.06729 0.0
H641 H 0.85992 0.27052 0.06083 0.0
N642 N 0.91105 0.29579 0.03532 0.0
N643 N 0.91774 0.25933 1.01975 0.0
C644 C 0.89949 0.27235 1.02529 0.0
C645 C 0.93738 0.29789 0.03567 0.0
C646 C 0.94158 0.27535 1.02643 0.0
C647 C 0.932 0.35408 0.076 0.0
O648 O 0.95013 0.37514 0.08299 0.0
H649 H 0.87838 0.26608 1.02031 0.0
H650 H 0.95249 0.31537 0.04075 0.0
O651 O 0.8804 0.33161 1.01038 0.0
H652 H 0.81907 0.27338 0.08497 0.0
H653 H 0.96075 0.27168 1.02362 0.0
Cu654 Cu 0.82641 0.74413 0.04855 0.0
N655 N 0.85652 0.75192 1.03124 0.0
N656 N 0.87843 0.76783 1.00009 0.0
C657 C 0.85772 0.76809 1.01277 0.0
C658 C 0.89079 0.7506 1.01104 0.0
C659 C 0.87718 0.74073 1.03019 0.0
O660 O 0.79835 0.73143 1.02364 0.0
C661 C 0.84739 0.79161 0.07348 0.0
O662 O 0.86757 0.79348 0.0607 0.0
H663 H 0.84292 0.77914 1.00827 0.0
H664 H 0.88112 0.72534 0.04152 0.0
N665 N 0.8248 0.71816 0.07145 0.0
N666 N 0.80929 0.69792 0.10392 0.0
C667 C 0.80367 0.7107 0.08433 0.0
C668 C 0.84465 0.70996 0.08339 0.0
C669 C 0.83512 0.69738 0.10332 0.0
C670 C 0.80207 0.71131 1.01331 0.0
O671 O 0.82033 0.69991 1.02261 0.0
H672 H 0.78533 0.71688 0.08055 0.0
H673 H 0.86512 0.71469 0.07908 0.0
O674 O 0.82574 0.77464 0.06774 0.0
H675 H 0.90743 0.74426 1.00491 0.0
H676 H 0.8467 0.68971 0.11695 0.0
Cu677 Cu 0.34866 0.80709 1.02249 0.0
N678 N 0.34112 0.83716 1.03421 0.0
N679 N 0.31575 0.8589 0.05149 0.0
C680 C 0.3213 0.83553 0.04819 0.0
C681 C 0.33331 0.87626 0.0396 0.0
C682 C 0.34892 0.86268 1.02872 0.0
O683 O 0.34092 0.78102 0.04638 0.0
C684 C 0.30119 0.79266 0.99279 0.0
O685 O 0.28923 0.79387 1.01186 0.0
H686 H 0.31026 0.81719 0.05495 0.0
H687 H 0.36378 0.87057 1.01672 0.0
N688 N 0.38354 0.8102 1.01545 0.0
N689 N 0.41683 0.79581 1.00231 0.0
C690 C 0.39054 0.79061 1.00478 0.0
C691 C 0.40621 0.82877 1.01999 0.0
C692 C 0.42695 0.81986 1.01185 0.0
C693 C 0.3553 0.78585 0.06552 0.0
O694 O 0.375 0.80692 0.06702 0.0
H695 H 0.37653 0.77241 0.99954 0.0
H696 H 0.40762 0.84717 1.02884 0.0
O697 O 0.32638 0.79669 0.99406 0.0
H698 H 0.33374 0.89689 0.03778 0.0
H699 H 0.44768 0.83029 1.01282 0.0
Cu700 Cu 0.03656 0.23547 0.33356 0.0
N701 N 0.04827 0.20646 0.32323 0.0
N702 N 0.07345 0.1848 0.30503 0.0
C703 C 0.07112 0.20822 0.31294 0.0
C704 C 0.05118 0.1675 0.31081 0.0
C705 C 0.03573 0.1809 0.32204 0.0
O706 O 0.06758 0.25957 0.34838 0.0
C707 C 0.02817 0.25206 0.28637 0.0
O708 O 0.05116 0.24704 0.28293 0.0
H709 H 0.08539 0.22661 0.31055 0.0
H710 H 1.01623 0.17276 0.32797 0.0
N711 N 1.00999 0.22754 0.35474 0.0
N712 N 0.97566 0.23269 0.37416 0.0
C713 C 0.99097 0.24093 0.35631 0.0
C714 C 1.0067 0.2102 0.37229 0.0
C715 C 0.98564 0.21343 0.38436 0.0
C716 C 0.08163 0.24982 0.36355 0.0
O717 O 0.07351 0.22502 0.36907 0.0
H718 H 0.98921 0.25725 0.34515 0.0
H719 H 1.01915 0.19667 0.3764 0.0
O720 O 1.02026 0.25024 0.30681 0.0
H721 H 0.04561 0.14694 0.306 0.0
H722 H 0.97845 0.20267 0.39963 0.0
Cu723 Cu 0.8176 0.02542 0.28256 0.0
N724 N 0.82775 0.04867 0.25642 0.0
N725 N 0.8465 0.08393 0.23643 0.0
C726 C 0.84726 0.07077 0.25669 0.0
C727 C 0.82603 0.06923 0.22286 0.0
C728 C 0.8144 0.04754 0.2353 0.0
O729 O 0.79831 0.05155 0.29548 0.0
C730 C 0.82684 0.9819 0.25464 0.0
O731 O 0.80329 0.98199 0.24445 0.0
H732 H 0.86135 0.07721 0.27157 0.0
H733 H 0.79682 0.03256 0.22973 0.0
N734 N 0.80687 1.00205 0.30845 0.0
N735 N 0.78682 0.96668 0.32768 0.0
C736 C 0.79286 0.977 0.30664 0.0
C737 C 0.80981 0.008 0.33133 0.0
C738 C 0.79734 0.9862 0.34327 0.0
C739 C 0.81095 0.07126 0.3079 0.0
O740 O 0.83693 0.07535 0.3115 0.0
H741 H 0.78693 0.96668 0.29018 0.0
H742 H 0.81957 0.02703 0.33872 0.0
O743 O 0.8371 0.99909 0.27039 0.0
H744 H 0.81918 0.07442 0.20558 0.0
H745 H 0.79523 0.98529 0.36184 0.0
Cu746 Cu 0.07591 0.76071 0.26103 0.0
N747 N 0.04904 0.75816 0.2366 0.0
N748 N 1.01323 0.76777 0.2172 0.0
C749 C 1.02715 0.76756 0.23808 0.0
C750 C 1.02707 0.75822 0.2019 0.0
C751 C 0.04912 0.75234 0.21388 0.0
O752 O 0.05667 0.76002 0.28851 0.0
C753 C 0.12701 0.79684 0.26104 0.0
O754 O 0.13562 0.78006 0.27481 0.0
H755 H 1.02258 0.77582 0.25397 0.0
H756 H 0.06481 0.74569 0.20635 0.0
N757 N 0.09241 0.73209 0.26347 0.0
N758 N 0.11644 0.70498 0.27974 0.0
C759 C 0.10629 0.72604 0.2828 0.0
C760 C 0.09356 0.71389 0.24753 0.0
C761 C 0.10825 0.69714 0.2575 0.0
C762 C 0.06537 0.7621 0.30983 0.0
O763 O 0.09092 0.77108 0.3155 0.0
H764 H 0.10941 0.7372 0.29881 0.0
H765 H 0.08422 0.71268 0.22996 0.0
O766 O 0.10216 0.79298 0.25533 0.0
H767 H 1.02207 0.75638 0.18326 0.0
H768 H 0.11186 0.68012 0.24914 0.0
Cu769 Cu 0.32989 0.03628 0.2998 0.0
N770 N 0.35778 0.06593 0.30324 0.0
N771 N 0.38105 0.10484 0.31714 0.0
C772 C 0.35872 0.08565 0.31822 0.0
C773 C 0.39464 0.09692 0.30067 0.0
C774 C 0.38024 0.07279 0.29217 0.0
O775 O 0.29837 0.05016 0.30129 0.0
C776 C 0.32423 0.98941 0.32926 0.0
O777 O 0.29941 0.98117 0.32074 0.0
H778 H 0.34339 0.08572 0.32989 0.0
H779 H 0.38567 0.06118 0.2788 0.0
N780 N 0.32903 0.0212 0.27052 0.0
N781 N 0.31575 0.99186 0.24162 0.0
C782 C 0.3175 0.9961 0.26482 0.0
C783 C 0.33503 0.03334 0.25025 0.0
C784 C 0.32679 0.01525 0.23234 0.0
C785 C 0.27777 0.04354 0.28705 0.0
O786 O 0.27358 0.02135 0.27544 0.0
H787 H 0.30825 0.98188 0.27718 0.0
H788 H 0.34317 0.05416 0.24849 0.0
O789 O 0.33779 0.01183 0.32353 0.0
H790 H 0.41337 0.10791 0.29485 0.0
H791 H 0.32746 0.01931 0.21388 0.0
Cu792 Cu 0.04697 0.78158 0.7782 0.0
N793 N 0.06781 0.75657 0.77908 0.0
N794 N 0.09642 0.73379 0.76795 0.0
C795 C 0.07786 0.74717 0.76089 0.0
C796 C 0.0983 0.73522 0.79146 0.0
C797 C 0.08093 0.74937 0.79821 0.0
O798 O 0.07367 0.81448 0.77967 0.0
C799 C 1.00992 0.7546 0.74427 0.0
O800 O 1.01596 0.73453 0.75532 0.0
H801 H 0.07279 0.75142 0.74289 0.0
H802 H 0.07918 0.75531 0.81583 0.0
N803 N 1.02526 0.77884 0.80329 0.0
N804 N 0.99673 0.78798 0.82741 0.0
C805 C 1.00871 0.79438 0.80742 0.0
C806 C 1.02313 0.76171 0.821 0.0
C807 C 1.0058 0.76746 0.83597 0.0
C808 C 0.08098 0.82723 0.79871 0.0
O809 O 0.06521 0.82306 0.81578 0.0
H810 H 1.00635 0.81069 0.79647 0.0
H811 H 0.03352 0.7462 0.82304 0.0
O812 O 1.02275 0.77765 0.75032 0.0
H813 H 0.11168 0.72703 0.80301 0.0
H814 H 1.00035 0.75737 0.85201 0.0
Cu815 Cu 0.31885 0.04954 0.81523 0.0
N816 N 0.32519 0.07154 0.78755 0.0
N817 N 0.3371 0.10464 0.76302 0.0
C818 C 0.33686 0.09726 0.78563 0.0
C819 C 0.32495 0.08301 0.75044 0.0
C820 C 0.31752 0.06269 0.7656 0.0
O821 O 0.30746 0.0789 0.83238 0.0
C822 C 0.35087 0.01937 0.78957 0.0
O823 O 0.36995 0.04093 0.79011 0.0
H824 H 0.34511 0.11019 0.80029 0.0
H825 H 0.30713 0.04278 0.76097 0.0
N826 N 0.31042 0.02589 0.84166 0.0
N827 N 0.29354 0.98842 0.85944 0.0
C828 C 0.29851 1.00029 0.83893 0.0
C829 C 0.31293 0.03038 0.86489 0.0
C830 C 0.30219 1.00718 0.87593 0.0
C831 C 0.32258 0.09352 0.84804 0.0
O832 O 0.34703 0.09095 0.85264 0.0
H833 H 0.29278 0.99062 0.82213 0.0
H834 H 0.3215 0.04902 0.87335 0.0
O835 O 0.32901 0.01938 0.79828 0.0
H836 H 0.32133 0.08212 0.73163 0.0
H837 H 0.30076 1.0043 0.89449 0.0
Cu838 Cu 0.06219 0.28025 0.81121 0.0
N839 N 0.0436 0.28405 0.78245 0.0
N840 N 1.01593 0.29924 0.75691 0.0
C841 C 1.02126 0.29297 0.77933 0.0
C842 C 0.03533 0.2932 0.7453 0.0
C843 C 0.05247 0.28415 0.7611 0.0
O844 O 0.03757 0.26689 0.8343 0.0
C845 C 0.08274 0.33453 0.8107 0.0
O846 O 0.05804 0.33609 0.8058 0.0
H847 H 1.01012 0.29662 0.79342 0.0
H848 H 0.07086 0.27934 0.75745 0.0
N849 N 0.08264 0.25555 0.81013 0.0
N850 N 0.10796 0.22926 0.82477 0.0
C851 C 0.09747 0.24981 0.82881 0.0
C852 C 0.08395 0.23823 0.79345 0.0
C853 C 0.09976 0.22207 0.80241 0.0
C854 C 1.0197 0.27658 0.84193 0.0
O855 O 1.01784 0.30031 0.83599 0.0
H856 H 0.09996 0.26025 0.84527 0.0
H857 H 0.07331 0.23669 0.77638 0.0
O858 O 0.08714 0.31322 0.81874 0.0
H859 H 0.03743 0.29552 0.7268 0.0
H860 H 0.10381 0.20552 0.79358 0.0
Cu861 Cu 0.8229 0.01195 0.75633 0.0
N862 N 0.85597 0.03553 0.76127 0.0
N863 N 0.88507 0.06704 0.78196 0.0
C864 C 0.85969 0.05825 0.77314 0.0
C865 C 0.89808 0.04942 0.77507 0.0
C866 C 0.88003 0.02992 0.76239 0.0
O867 O 0.79652 0.03242 0.74714 0.0
C868 C 0.82136 0.96629 0.78516 0.0
O869 O 0.81803 0.95325 0.76541 0.0
H870 H 0.84361 0.06653 0.77768 0.0
H871 H 0.88362 0.0116 0.75674 0.0
N872 N 0.82053 0.99003 0.73057 0.0
N873 N 0.79998 0.95894 0.70464 0.0
C874 C 0.79717 0.97467 0.72214 0.0
C875 C 0.839 0.98411 0.71784 0.0
C876 C 0.82634 0.96469 0.7019 0.0
C877 C 0.78768 0.04936 0.75776 0.0
O878 O 0.79369 0.05304 0.78028 0.0
H879 H 0.77868 0.97388 0.7299 0.0
H880 H 0.86015 0.99262 0.72039 0.0
O881 O 0.82056 0.99051 0.78496 0.0
H882 H 0.91857 0.0495 0.78042 0.0
H883 H 0.83582 0.9551 0.68969 0.0
Cu884 Cu 0.32548 0.74441 0.55373 0.0
N885 N 0.35523 0.75653 0.57521 0.0
N886 N 0.37919 0.78091 0.60485 0.0
C887 C 0.35615 0.77545 0.59115 0.0
C888 C 0.39334 0.76456 0.59733 0.0
C889 C 0.37852 0.74953 0.57906 0.0
O890 O 0.29576 0.73724 0.57377 0.0
C891 C 0.34945 0.77287 0.51922 0.0
O892 O 0.36622 0.75933 0.52778 0.0
H893 H 0.34006 0.78504 0.59267 0.0
H894 H 0.3843 0.73452 0.56942 0.0
N895 N 0.32444 0.71373 0.53667 0.0
N896 N 0.31408 0.68647 0.50566 0.0
C897 C 0.30986 0.7079 0.51607 0.0
C898 C 0.33855 0.69535 0.53948 0.0
C899 C 0.3322 0.67853 0.5204 0.0
C900 C 0.29832 0.71991 0.589 0.0
O901 O 0.31792 0.70825 0.58787 0.0
H902 H 0.29675 0.7196 0.50863 0.0
H903 H 0.35301 0.69466 0.55393 0.0
O904 O 0.32782 0.77075 0.52908 0.0
H905 H 0.41269 0.76302 0.60487 0.0
H906 H 0.34118 0.66243 0.51724 0.0
Cu907 Cu 0.85122 0.77109 0.51819 0.0
N908 N 0.87134 0.74588 0.51982 0.0
N909 N 0.89754 0.72038 0.50982 0.0
C910 C 0.88597 0.74006 0.50323 0.0
C911 C 0.88977 0.71346 0.53126 0.0
C912 C 0.87367 0.72918 0.53738 0.0
O913 O 0.8342 0.77115 0.4869 0.0
C914 C 0.87958 0.8186 0.54387 0.0
O915 O 0.89375 0.84293 0.54405 0.0
H916 H 0.88741 0.74959 0.48645 0.0
H917 H 0.86432 0.7284 0.55357 0.0
N918 N 0.82383 0.76232 0.53815 0.0
N919 N 0.78926 0.76487 0.55793 0.0
C920 C 0.80942 0.77818 0.5459 0.0
C921 C 0.81221 0.73815 0.54538 0.0
C922 C 0.79109 0.73972 0.55784 0.0
C923 C 0.82089 0.78816 0.4818 0.0
O924 O 0.82044 0.80606 0.49742 0.0
H925 H 0.81351 0.79901 0.5426 0.0
H926 H 0.81789 0.7204 0.54104 0.0
O927 O 0.87409 0.80604 0.52456 0.0
H928 H 0.89538 0.69813 0.54178 0.0
H929 H 0.77739 0.72346 0.56533 0.0
Cu930 Cu 0.81345 0.22474 0.55186 0.0
N931 N 0.818 0.19964 0.53046 0.0
N932 N 0.81134 0.18153 0.49457 0.0
C933 C 0.8007 0.19233 0.51153 0.0
C934 C 0.83627 0.1816 0.50337 0.0
C935 C 0.84041 0.19301 0.52535 0.0
O936 O 0.81221 0.25366 0.53025 0.0
C937 C 0.78539 0.18863 0.58095 0.0
O938 O 0.80477 0.17793 0.57605 0.0
H939 H 0.78162 0.19739 0.50926 0.0
H940 H 0.85919 0.1982 0.53577 0.0
N941 N 0.84116 0.23606 0.57536 0.0
N942 N 0.86147 0.25719 0.60798 0.0
C943 C 0.84206 0.25574 0.5906 0.0
C944 C 0.86075 0.22471 0.58339 0.0
C945 C 0.87341 0.23781 0.60337 0.0
C946 C 0.83493 0.26692 0.52478 0.0
O947 O 0.85625 0.2647 0.53775 0.0
H948 H 0.8278 0.26783 0.58964 0.0
H949 H 0.86475 0.20738 0.57598 0.0
O950 O 0.78316 0.20954 0.57017 0.0
H951 H 0.85098 0.17516 0.49415 0.0
H952 H 0.88977 0.23304 0.61399 0.0
Cu953 Cu 0.3615 0.37667 0.57254 0.0
N954 N 0.33241 0.35621 0.5865 0.0
N955 N 0.29799 0.34544 0.6087 0.0
C956 C 0.31818 0.36478 0.60195 0.0
C957 C 0.29992 0.32385 0.59703 0.0
C958 C 0.32113 0.33054 0.5834 0.0
O959 O 0.38906 0.39363 0.59606 0.0
C960 C 0.3394 0.40745 0.53613 0.0
O961 O 0.33767 0.43071 0.52857 0.0
H962 H 0.32324 0.38471 0.60847 0.0
H963 H 0.32773 0.31764 0.57193 0.0
N964 N 0.37709 0.35718 0.55334 0.0
N965 N 0.3848 0.32897 0.52742 0.0
C966 C 0.36612 0.33877 0.53694 0.0
C967 C 0.40343 0.35917 0.5541 0.0
C968 C 0.40825 0.34189 0.5382 0.0
C969 C 0.3932 0.3881 0.61741 0.0
O970 O 0.41243 0.40385 0.63021 0.0
H971 H 0.34501 0.3328 0.53209 0.0
H972 H 0.41812 0.3721 0.56571 0.0
O973 O 0.3518 0.40588 0.55591 0.0
H974 H 0.28664 0.30461 0.59786 0.0
H975 H 0.42753 0.33856 0.53529 0.0
Cu976 Cu 0.81436 0.53845 0.79698 0.0
N977 N 0.80911 0.5572 0.77001 0.0
N978 N 0.81541 0.59094 0.74542 0.0
C979 C 0.82515 0.58023 0.7646 0.0
C980 C 0.79249 0.57366 0.73824 0.0
C981 C 0.78855 0.55291 0.75356 0.0
O982 O 0.82029 0.56517 0.82207 0.0
C983 C 0.84126 0.50758 0.77244 0.0
O984 O 0.82678 0.51472 0.75494 0.0
H985 H 0.84359 0.58891 0.77471 0.0
H986 H 0.77167 0.53619 0.75301 0.0
N987 N 0.78371 0.5132 0.80226 0.0
N988 N 0.7596 0.47537 0.81488 0.0
C989 C 0.78417 0.48967 0.81136 0.0
C990 C 0.75796 0.51414 0.80012 0.0
C991 C 0.74296 0.49072 0.80798 0.0
C992 C 0.80852 0.56216 0.84096 0.0
O993 O 0.79679 0.53838 0.84726 0.0
H994 H 0.8024 0.4837 0.81627 0.0
H995 H 0.75071 0.53084 0.79385 0.0
O996 O 0.8411 0.51775 0.7926 0.0
H997 H 0.77917 0.57621 0.7234 0.0
H998 H 0.72157 0.48547 0.80872 0.0
Cu999 Cu 0.34315 0.53133 0.79517 0.0
N1000 N 0.36854 0.51088 0.79793 0.0
N1001 N 0.38755 0.48058 0.81543 0.0
C1002 C 0.36458 0.48788 0.80946 0.0
C1003 C 0.40662 0.49942 0.80647 0.0
C1004 C 0.39491 0.51813 0.79589 0.0
O1005 O 0.30884 0.50682 0.79266 0.0
C1006 C 0.36302 0.55254 0.8405 0.0
O1007 O 0.36883 0.52992 0.84508 0.0
H1008 H 0.34532 0.47781 0.81485 0.0
H1009 H 0.40518 0.53676 0.78913 0.0
N1010 N 0.34354 0.55342 0.76913 0.0
N1011 N 0.32889 0.58115 0.74429 0.0
C1012 C 0.3248 0.56703 0.764 0.0
C1013 C 0.36035 0.5593 0.75218 0.0
C1014 C 0.35137 0.5764 0.73684 0.0
C1015 C 0.30273 0.49566 0.77277 0.0
O1016 O 0.31932 0.50183 0.7564 0.0
H1017 H 0.30815 0.5662 0.77441 0.0
H1018 H 0.37783 0.5517 0.75104 0.0
O1019 O 0.34939 0.55511 0.82162 0.0
H1020 H 0.42779 0.50085 0.8092 0.0
H1021 H 0.36093 0.58496 0.72161 0.0
Cu1022 Cu 0.3033 0.49686 0.30086 0.0
N1023 N 0.27349 0.47245 0.30962 0.0
N1024 N 0.25031 0.43858 0.32882 0.0
C1025 C 0.27463 0.45171 0.32322 0.0
C1026 C 0.23322 0.45175 0.31835 0.0
C1027 C 0.24761 0.4727 0.30655 0.0
O1028 O 0.3309 0.47749 0.2984 0.0
C1029 C 0.30041 0.52681 0.34166 0.0
O1030 O 0.28942 0.50426 0.35089 0.0
H1031 H 0.29317 0.44741 0.32999 0.0
H1032 H 0.23987 0.4876 0.29721 0.0
N1033 N 0.29696 0.51147 0.27203 0.0
N1034 N 0.3024 0.54315 0.24554 0.0
C1035 C 0.31326 0.53332 0.26456 0.0
C1036 C 0.27497 0.50713 0.25712 0.0
C1037 C 0.27821 0.5269 0.24079 0.0
C1038 C 0.32637 0.4606 0.28182 0.0
O1039 O 0.30516 0.45915 0.26733 0.0
H1040 H 0.33181 0.54303 0.27407 0.0
H1041 H 0.25729 0.49165 0.25874 0.0
O1042 O 0.31063 0.527 0.32222 0.0
H1043 H 0.2119 0.44694 0.31954 0.0
H1044 H 0.26353 0.52982 0.22721 0.0
Cu1045 Cu 0.82355 0.53068 0.30458 0.0
N1046 N 0.81771 0.50608 0.32872 0.0
N1047 N 0.82447 0.47189 0.35015 0.0
C1048 C 0.82252 0.48195 0.32849 0.0
C1049 C 0.82012 0.49033 0.36452 0.0
C1050 C 0.81601 0.51131 0.3513 0.0
O1051 O 0.82053 0.51194 0.27534 0.0
C1052 C 0.86891 0.57495 0.30311 0.0
O1053 O 0.85588 0.58334 0.2853 0.0
H1054 H 0.82658 0.47274 0.31297 0.0
H1055 H 0.81457 0.53008 0.35791 0.0
N1056 N 0.79786 0.55057 0.302 0.0
N1057 N 0.77379 0.57774 0.28684 0.0
C1058 C 0.79481 0.56728 0.28461 0.0
C1059 C 0.77773 0.55015 0.31551 0.0
C1060 C 0.76276 0.56686 0.30612 0.0
C1061 C 0.83575 0.49771 0.26973 0.0
O1062 O 0.85717 0.49714 0.28334 0.0
H1063 H 0.80713 0.571 0.27007 0.0
H1064 H 0.7739 0.5382 0.33085 0.0
O1065 O 0.85874 0.55316 0.3124 0.0
H1066 H 0.82256 0.49003 0.38337 0.0
H1067 H 0.7452 0.57072 0.3129 0.0
Cu1068 Cu 0.54734 0.25373 0.79804 0.0
N1069 N 0.52701 0.24833 0.82375 0.0
N1070 N 0.50063 0.25642 0.85023 0.0
C1071 C 0.51184 0.26418 0.83016 0.0
C1072 C 0.50924 0.23488 0.85674 0.0
C1073 C 0.52543 0.22986 0.8403 0.0
O1074 O 0.52635 0.26855 0.77463 0.0
C1075 C 0.59728 0.26766 0.82098 0.0
O1076 O 0.5905 0.24292 0.82702 0.0
H1077 H 0.50999 0.2817 0.82076 0.0
H1078 H 0.53578 0.21426 0.84066 0.0
N1079 N 0.55328 0.2223 0.78692 0.0
N1080 N 0.5721 0.19416 0.7694 0.0
C1081 C 0.57496 0.21911 0.77687 0.0
C1082 C 0.53619 0.19862 0.78592 0.0
C1083 C 0.54771 0.18126 0.77522 0.0
C1084 C 0.52304 0.26203 0.75318 0.0
O1085 O 0.53816 0.24794 0.74507 0.0
H1086 H 0.59239 0.23487 0.77515 0.0
H1087 H 0.51648 0.19445 0.79209 0.0
O1088 O 0.58109 0.27719 0.80786 0.0
H1089 H 0.50443 0.22376 0.87241 0.0
H1090 H 0.53844 0.16086 0.77134 0.0
Cu1091 Cu 0.57193 0.79613 0.797 0.0
N1092 N 0.59711 0.79702 0.82243 0.0
N1093 N 0.62634 0.78044 0.84485 0.0
C1094 C 0.61471 0.78182 0.82321 0.0
C1095 C 0.61546 0.79524 0.85838 0.0
C1096 C 0.59753 0.80561 0.84445 0.0
O1097 O 0.58996 0.79521 0.76876 0.0
C1098 C 0.53024 0.76719 0.81894 0.0
O1099 O 0.53435 0.79 0.82954 0.0
H1100 H 0.61705 0.76998 0.80859 0.0
H1101 H 0.58425 0.81681 0.85031 0.0
N1102 N 0.55618 0.82483 0.7941 0.0
N1103 N 0.52573 0.8463 0.77983 0.0
C1104 C 0.53079 0.82281 0.78561 0.0
C1105 C 0.56784 0.85058 0.7938 0.0
C1106 C 0.54919 0.86384 0.78502 0.0
C1107 C 0.61251 0.81142 0.76827 0.0
O1108 O 0.62189 0.82671 0.78645 0.0
H1109 H 0.51675 0.80411 0.78257 0.0
H1110 H 0.58884 0.85891 0.79793 0.0
O1111 O 0.54428 0.76496 0.80224 0.0
H1112 H 0.61904 0.79711 0.87716 0.0
H1113 H 0.55345 0.88451 0.78106 0.0
Cu1114 Cu 0.52402 0.75341 0.3063 0.0
N1115 N 0.50521 0.75262 0.33318 0.0
N1116 N 0.47622 0.76315 0.35604 0.0
C1117 C 0.49079 0.77007 0.33757 0.0
C1118 C 0.48183 0.74057 0.36376 0.0
C1119 C 0.49975 0.73414 0.34967 0.0
O1120 O 0.49655 0.74951 0.28052 0.0
C1121 C 0.56498 0.79224 0.32632 0.0
O1122 O 0.55622 0.7798 0.3451 0.0
H1123 H 0.4901 0.78693 0.32676 0.0
H1124 H 0.5075 0.71679 0.35093 0.0
N1125 N 0.54252 0.72693 0.30325 0.0
N1126 N 0.57159 0.70744 0.28792 0.0
C1127 C 0.56308 0.72972 0.28971 0.0
C1128 C 0.53778 0.7019 0.31045 0.0
C1129 C 0.5556 0.68985 0.30101 0.0
C1130 C 0.47789 0.72909 0.28268 0.0
O1131 O 0.48057 0.71283 0.29969 0.0
H1132 H 0.57103 0.74769 0.28065 0.0
H1133 H 0.52171 0.69261 0.3208 0.0
O1134 O 0.55202 0.78547 0.3067 0.0
H1135 H 0.47336 0.72939 0.37839 0.0
H1136 H 0.55553 0.66929 0.30251 0.0
Cu1137 Cu 0.57543 0.28676 0.29553 0.0
N1138 N 0.56165 0.297 0.32196 0.0
N1139 N 0.53286 0.29802 0.3486 0.0
C1140 C 0.53616 0.28978 0.32718 0.0
C1141 C 0.55726 0.31128 0.35723 0.0
C1142 C 0.575 0.31068 0.34067 0.0
O1143 O 0.54622 0.28065 0.27074 0.0
C1144 C 0.6073 0.24702 0.2953 0.0
O1145 O 0.612 0.25324 0.27361 0.0
H1146 H 0.52042 0.27751 0.3161 0.0
H1147 H 0.59627 0.31882 0.34245 0.0
N1148 N 0.60086 0.3156 0.28613 0.0
N1149 N 0.63637 0.341 0.27101 0.0
C1150 C 0.62556 0.31713 0.27965 0.0
C1151 C 0.5961 0.33933 0.28185 0.0
C1152 C 0.61793 0.35504 0.2726 0.0
C1153 C 0.52444 0.26321 0.27078 0.0
O1154 O 0.52276 0.2439 0.28572 0.0
H1155 H 0.63528 0.30112 0.28108 0.0
H1156 H 0.57756 0.34447 0.28447 0.0
O1157 O 0.59159 0.2577 0.30556 0.0
H1158 H 0.56205 0.32016 0.37441 0.0
H1159 H 0.61961 0.37489 0.26648 0.0
C1160 C 0.26896 0.1837 0.17301 0.0
C1161 C 0.26481 0.15781 0.18142 0.0
C1162 C 0.28555 0.19236 0.15487 0.0
C1163 C 0.29897 0.17562 0.1445 0.0
H1164 H 0.25963 0.19756 0.18074 0.0
H1165 H 0.28839 0.2125 0.14924 0.0
S1166 S 0.29338 0.10558 0.15825 0.0
N1167 N 0.27422 0.11501 0.17631 0.0
N1168 N 0.30607 0.13178 0.14304 0.0
C1169 C 0.29487 0.14973 0.15246 0.0
C1170 C 0.27766 0.14073 0.17066 0.0
C1171 C 0.89104 0.31712 0.12247 0.0
C1172 C 0.90076 0.29432 0.12549 0.0
C1173 C 0.90178 0.33664 0.10679 0.0
C1174 C 0.92215 0.33382 0.09318 0.0
H1175 H 0.8748 0.3198 0.13215 0.0
H1176 H 0.89363 0.35379 0.1049 0.0
S1177 S 0.95744 0.2802 0.0969 0.0
N1178 N 0.9337 0.27136 0.11489 0.0
N1179 N 0.9545 0.30878 0.08622 0.0
C1180 C 0.93326 0.31213 0.09707 0.0
C1181 C 0.92232 0.29213 0.11296 0.0
C1182 C 0.88664 0.83069 0.1251 0.0
C1183 C 0.87374 0.81853 0.14426 0.0
C1184 C 0.87643 0.82346 0.10215 0.0
C1185 C 0.85308 0.80347 0.09737 0.0
H1186 H 0.90542 0.84509 0.12791 0.0
H1187 H 0.88784 0.83262 0.08805 0.0
S1188 S 0.81105 0.76666 0.1418 0.0
N1189 N 0.83566 0.78678 0.15725 0.0
N1190 N 0.81651 0.77279 0.11416 0.0
C1191 C 0.83915 0.79223 0.11649 0.0
C1192 C 0.84953 0.79978 0.13991 0.0
C1193 C 0.27527 0.88649 0.09162 0.0
C1194 C 0.24996 0.86911 0.08808 0.0
C1195 C 0.29658 0.88366 0.07904 0.0
C1196 C 0.29335 0.86317 0.06277 0.0
H1197 H 0.27862 0.90234 0.10423 0.0
H1198 H 0.31586 0.89708 0.08249 0.0
S1199 S 0.23108 0.81309 0.04636 0.0
N1200 N 0.22299 0.83098 0.06673 0.0
N1201 N 0.26274 0.82613 0.04287 0.0
C1202 C 0.26806 0.84607 0.05872 0.0
C1203 C 0.24645 0.84893 0.07142 0.0
C1204 C 0.28553 0.7815 0.92764 0.0
C1205 C 0.2604 0.78707 0.92366 0.0
C1206 C 0.2982 0.78265 0.95016 0.0
C1207 C 0.28609 0.78913 0.9696 0.0
H1208 H 0.29583 0.77702 0.91313 0.0
H1209 H 0.31787 0.77884 0.95227 0.0
S1210 S 0.21931 0.80345 0.96848 0.0
N1211 N 0.22311 0.79788 0.94091 0.0
N1212 N 0.24679 0.79994 0.98336 0.0
C1213 C 0.26046 0.79377 0.96591 0.0
C1214 C 0.24768 0.79284 0.94291 0.0
C1215 C 0.2798 0.2104 0.97803 0.0
C1216 C 0.28013 0.18573 0.96876 0.0
C1217 C 0.289 0.21736 1.00146 0.0
C1218 C 0.29843 0.1997 1.01659 0.0
H1219 H 0.27276 0.22456 0.96698 0.0
H1220 H 0.28926 0.23685 1.00756 0.0
S1221 S 0.30034 0.13147 1.00134 0.0
N1222 N 0.28886 0.14309 0.97693 0.0
N1223 N 0.30545 0.15553 1.02064 0.0
C1224 C 0.29782 0.1746 1.00758 0.0
C1225 C 0.28888 0.16778 0.9838 0.0
C1226 C 0.92716 0.21246 0.97417 0.0
C1227 C 0.90486 0.1913 0.97545 0.0
C1228 C 0.93127 0.23436 0.98882 0.0
C1229 C 0.91328 0.23608 1.00541 0.0
H1230 H 0.9417 0.21208 0.96176 0.0
H1231 H 0.9485 0.25029 0.98677 0.0
S1232 S 0.85201 0.18577 1.01624 0.0
N1233 N 0.86456 0.1733 0.99477 0.0
N1234 N 0.87261 0.21444 1.02272 0.0
C1235 C 0.89099 0.21499 1.00709 0.0
C1236 C 0.88677 0.19257 0.9921 0.0
C1237 C 0.86812 0.79914 0.94162 0.0
C1238 C 0.89419 0.80817 0.93492 0.0
C1239 C 0.86315 0.78583 0.96275 0.0
C1240 C 0.88405 0.78115 0.97819 0.0
H1241 H 0.85141 0.80217 0.93031 0.0
H1242 H 0.84269 0.77889 0.96688 0.0
S1243 S 0.95608 0.80264 0.96959 0.0
N1244 N 0.94125 0.81253 0.9459 0.0
N1245 N 0.93194 0.78785 0.98559 0.0
C1246 C 0.91022 0.79032 0.97176 0.0
C1247 C 0.91527 0.80376 0.9502 0.0
C1248 C 0.11895 0.19375 0.2561 0.0
C1249 C 0.12732 0.17015 0.25609 0.0
C1250 C 0.10229 0.19879 0.27267 0.0
C1251 C 0.09292 0.18028 0.2898 0.0
H1252 H 0.12461 0.20811 0.24263 0.0
H1253 H 0.09569 0.21684 0.27134 0.0
S1254 S 0.11059 0.11622 0.29845 0.0
N1255 N 0.12624 0.12871 0.27551 0.0
N1256 N 0.09487 0.1381 0.30668 0.0
C1257 C 0.10198 0.15701 0.29056 0.0
C1258 C 0.11923 0.15201 0.27377 0.0
C1259 C 0.88295 0.14032 0.20166 0.0
C1260 C 0.89093 0.16056 0.21837 0.0
C1261 C 0.86897 0.11519 0.20782 0.0
C1262 C 0.86233 0.10945 0.23087 0.0
H1263 H 0.88748 0.14397 0.18369 0.0
H1264 H 0.86321 0.10014 0.19442 0.0
S1265 S 0.87697 0.15643 0.28069 0.0
N1266 N 0.8904 0.17365 0.25867 0.0
N1267 N 0.86372 0.12665 0.27019 0.0
C1268 C 0.87014 0.12964 0.24772 0.0
C1269 C 0.88452 0.15514 0.24147 0.0
C1270 C 0.96629 0.80462 0.18628 0.0
C1271 C 0.94605 0.80246 0.20166 0.0
C1272 C 0.98792 0.79305 0.19131 0.0
C1273 C 0.99036 0.77886 0.21198 0.0
H1274 H 0.96562 0.81569 0.17034 0.0
H1275 H 1.00316 0.79569 0.17911 0.0
S1276 S 0.94159 0.76506 0.25698 0.0
N1277 N 0.92906 0.78329 0.23771 0.0
N1278 N 0.96973 0.76192 0.24718 0.0
C1279 C 0.97007 0.77614 0.2273 0.0
C1280 C 0.94797 0.78782 0.22215 0.0
C1281 C 0.26411 0.95037 0.19961 0.0
C1282 C 0.26143 0.92514 0.20905 0.0
C1283 C 0.28281 0.97195 0.20967 0.0
C1284 C 0.2995 0.96906 0.22953 0.0
H1285 H 0.25096 0.95364 0.18488 0.0
H1286 H 0.28331 0.99118 0.2025 0.0
S1287 S 0.30275 0.90664 0.25901 0.0
N1288 N 0.27864 0.89808 0.238 0.0
N1289 N 0.31392 0.9387 0.25688 0.0
C1290 C 0.29789 0.94376 0.23844 0.0
C1291 C 0.27881 0.92179 0.22823 0.0
C1292 C 0.14347 0.86362 0.83341 0.0
C1293 C 0.16292 0.85232 0.82505 0.0
C1294 C 0.11716 0.85703 0.82343 0.0
C1295 C 0.10955 0.83925 0.80457 0.0
H1296 H 0.14821 0.8763 0.84866 0.0
H1297 H 0.10238 0.8648 0.83136 0.0
S1298 S 0.15423 0.80701 0.77454 0.0
N1299 N 0.17371 0.82466 0.79558 0.0
N1300 N 0.12444 0.8124 0.77659 0.0
C1301 C 0.12943 0.82949 0.79491 0.0
C1302 C 0.15608 0.83595 0.80527 0.0
C1303 C 0.28324 0.14095 0.86811 0.0
C1304 C 0.28778 0.14103 0.89271 0.0
C1305 C 0.29456 0.1257 0.85376 0.0
C1306 C 0.3116 0.11045 0.86327 0.0
H1307 H 0.27055 0.15259 0.85978 0.0
H1308 H 0.29003 0.12595 0.83506 0.0
S1309 S 0.3297 0.10268 0.92623 0.0
N1310 N 0.30985 0.12301 0.92569 0.0
N1311 N 0.33246 0.09611 0.89867 0.0
C1312 C 0.31692 0.11075 0.88765 0.0
C1313 C 0.30477 0.12561 0.90235 0.0
C1314 C 0.98413 0.21841 0.87503 0.0
C1315 C 0.9582 0.21347 0.86413 0.0
C1316 C 1.00368 0.24025 0.86898 0.0
C1317 C 0.99774 0.2582 0.85231 0.0
H1318 H 0.98967 0.20456 0.8874 0.0
H1319 H 1.02389 0.24251 0.87662 0.0
S1320 S 0.93224 0.255 0.82011 0.0
N1321 N 0.92713 0.22878 0.83685 0.0
N1322 N 0.9638 0.27033 0.82585 0.0
C1323 C 0.97148 0.2543 0.84231 0.0
C1324 C 0.95171 0.23173 0.84809 0.0
C1325 C 0.86479 0.95819 0.83993 0.0
C1326 C 0.85782 0.93092 0.84422 0.0
C1327 C 0.85194 0.96961 0.82164 0.0
C1328 C 0.83183 0.95429 0.8064 0.0
H1329 H 0.88054 0.97097 0.85077 0.0
H1330 H 0.85852 0.99054 0.81896 0.0
S1331 S 0.80534 0.88226 0.80982 0.0
N1332 N 0.82847 0.88914 0.8318 0.0
N1333 N 0.80528 0.91042 0.79678 0.0
C1334 C 0.8247 0.92703 0.81024 0.0
C1335 C 0.83748 0.91541 0.82918 0.0
C1336 C 0.26787 0.10986 0.26713 0.0
C1337 C 0.24408 0.10326 0.25264 0.0
C1338 C 0.27747 0.09064 0.2799 0.0
C1339 C 0.26394 0.06395 0.27825 0.0
H1340 H 0.2797 0.12989 0.26784 0.0
H1341 H 0.29656 0.09661 0.28988 0.0
S1342 S 0.19952 0.03693 0.24419 0.0
N1343 N 0.20614 0.06867 0.23873 0.0
N1344 N 0.22434 0.03241 0.26232 0.0
C1345 C 0.23936 0.05737 0.26479 0.0
C1346 C 0.22941 0.07705 0.25208 0.0
C1347 C 0.23937 0.92954 0.87063 0.0
C1348 C 0.2481 0.90933 0.86015 0.0
C1349 C 0.25519 0.95529 0.87183 0.0
C1350 C 0.27992 0.96158 0.86222 0.0
H1351 H 0.21993 0.9255 0.8774 0.0
H1352 H 0.24751 0.97061 0.87916 0.0
S1353 S 0.31226 0.91582 0.83393 0.0
N1354 N 0.28357 0.89725 0.84097 0.0
N1355 N 0.313 0.94573 0.84301 0.0
C1356 C 0.28921 0.94147 0.85246 0.0
C1357 C 0.27336 0.91528 0.85149 0.0
C1358 C 0.15724 0.19231 0.85081 0.0
C1359 C 0.15008 0.18812 0.87388 0.0
C1360 C 0.14349 0.20586 0.83485 0.0
C1361 C 0.12237 0.21601 0.8415 0.0
H1362 H 0.17306 0.18442 0.84488 0.0
H1363 H 0.14938 0.20842 0.81718 0.0
S1364 S 0.09631 0.21075 0.90007 0.0
N1365 N 0.12103 0.19588 0.90273 0.0
N1366 N 0.09496 0.22073 0.87279 0.0
C1367 C 0.11536 0.21229 0.86464 0.0
C1368 C 0.12927 0.19851 0.8808 0.0
C1369 C 0.89443 0.13042 0.81485 0.0
C1370 C 0.90644 0.12505 0.83658 0.0
C1371 C 0.88791 0.1115 0.79692 0.0
C1372 C 0.89379 0.08683 0.79988 0.0
H1373 H 0.8897 0.14925 0.81184 0.0
H1374 H 0.87817 0.11609 0.7806 0.0
S1375 S 0.92525 0.06315 0.85335 0.0
N1376 N 0.92407 0.09334 0.85998 0.0
N1377 N 0.91192 0.05789 0.82625 0.0
C1378 C 0.90602 0.08132 0.82142 0.0
C1379 C 0.91229 0.10041 0.83978 0.0
C1380 C 0.96597 0.81621 0.87489 0.0
C1381 C 0.94357 0.82285 0.86319 0.0
C1382 C 0.98347 0.8055 0.86297 0.0
C1383 C 0.97968 0.80127 0.83873 0.0
H1384 H 0.96969 0.81871 0.89363 0.0
H1385 H 1.0 0.80016 0.87288 0.0
S1386 S 0.92513 0.81641 0.79949 0.0
N1387 N 0.91918 0.82521 0.82566 0.0
N1388 N 0.95252 0.80551 0.80316 0.0
C1389 C 0.95816 0.80892 0.82654 0.0
C1390 C 0.94006 0.81965 0.83877 0.0
C1391 C 0.83723 0.91812 0.22976 0.0
C1392 C 0.85926 0.9139 0.24374 0.0
C1393 C 0.8276 0.94071 0.23271 0.0
C1394 C 0.83967 0.96002 0.24973 0.0
H1395 H 0.82648 0.90321 0.21735 0.0
H1396 H 0.80992 0.9425 0.22211 0.0
S1397 S 0.89994 0.95924 0.289 0.0
N1398 N 0.89422 0.93166 0.27385 0.0
N1399 N 0.87649 0.97403 0.27936 0.0
C1400 C 0.86273 0.95661 0.26284 0.0
C1401 C 0.87239 0.9336 0.25988 0.0
C1402 C 0.15481 0.8465 0.21532 0.0
C1403 C 0.18249 0.85098 0.22033 0.0
C1404 C 0.13702 0.83001 0.22927 0.0
C1405 C 0.14619 0.81712 0.24872 0.0
H1406 H 0.1468 0.85566 0.20037 0.0
H1407 H 0.11592 0.82675 0.22426 0.0
S1408 S 0.21698 0.82318 0.2698 0.0
N1409 N 0.21832 0.84181 0.24643 0.0
N1410 N 0.18503 0.81106 0.27278 0.0
C1411 C 0.17388 0.8221 0.25432 0.0
C1412 C 0.19198 0.83894 0.24011 0.0
C1413 C 0.98825 0.23269 0.22888 0.0
C1414 C 0.96446 0.23999 0.2321 0.0
C1415 C 1.01002 0.23906 0.24559 0.0
C1416 C 1.00843 0.2524 0.26635 0.0
H1417 H 0.98941 0.22053 0.21408 0.0
H1418 H 1.02732 0.23156 0.24307 0.0
S1419 S 0.95155 0.2788 0.28128 0.0
N1420 N 0.94141 0.26366 0.25598 0.0
N1421 N 0.98214 0.27541 0.28771 0.0
C1422 C 0.98541 0.26156 0.2688 0.0
C1423 C 0.96342 0.25535 0.2516 0.0
C1424 C 0.24723 0.69058 0.63135 0.0
C1425 C 0.26256 0.69532 0.65296 0.0
C1426 C 0.25788 0.70078 0.61041 0.0
C1427 C 0.28407 0.7162 0.61052 0.0
H1428 H 0.22763 0.67739 0.6304 0.0
H1429 H 0.24629 0.69502 0.594 0.0
S1430 S 0.33103 0.73711 0.66261 0.0
N1431 N 0.30412 0.71888 0.67322 0.0
N1432 N 0.32413 0.73748 0.6341 0.0
C1433 C 0.29877 0.72253 0.63213 0.0
C1434 C 0.28801 0.71229 0.6533 0.0
C1435 C 0.86575 0.77075 0.59354 0.0
C1436 C 0.85134 0.78273 0.60805 0.0
C1437 C 0.87521 0.78277 0.573 0.0
C1438 C 0.87 0.80671 0.56582 0.0
H1439 H 0.86956 0.75181 0.59792 0.0
H1440 H 0.88704 0.77352 0.56278 0.0
S1441 S 0.83542 0.8475 0.59807 0.0
N1442 N 0.83448 0.82137 0.6145 0.0
N1443 N 0.85117 0.84303 0.5752 0.0
C1444 C 0.85644 0.81938 0.58034 0.0
C1445 C 0.84714 0.80746 0.60148 0.0
C1446 C 0.87439 0.31845 0.64543 0.0
C1447 C 0.88102 0.30927 0.66766 0.0
C1448 C 0.86731 0.30123 0.62603 0.0
C1449 C 0.86685 0.27435 0.62822 0.0
H1450 H 0.87569 0.33916 0.64285 0.0
H1451 H 0.86311 0.30912 0.60907 0.0
S1452 S 0.87867 0.24008 0.68332 0.0
N1453 N 0.88387 0.27116 0.69112 0.0
N1454 N 0.87071 0.2391 0.65491 0.0
C1455 C 0.87211 0.26484 0.65058 0.0
C1456 C 0.87912 0.28222 0.67022 0.0
C1457 C 0.24421 0.32494 0.6502 0.0
C1458 C 0.23587 0.34809 0.65333 0.0
C1459 C 0.26508 0.3245 0.63626 0.0
C1460 C 0.2781 0.34709 0.62455 0.0
H1461 H 0.23418 0.30693 0.65823 0.0
H1462 H 0.27074 0.30615 0.63439 0.0
S1463 S 0.26265 0.4126 0.62699 0.0
N1464 N 0.24192 0.39412 0.64412 0.0
N1465 N 0.28035 0.39336 0.61713 0.0
C1466 C 0.27 0.37052 0.62794 0.0
C1467 C 0.24905 0.37097 0.64248 0.0
C1468 C 0.29192 0.34401 0.51517 0.0
C1469 C 0.29538 0.34422 0.49113 0.0
C1470 C 0.30719 0.36396 0.53005 0.0
C1471 C 0.32677 0.38433 0.52146 0.0
H1472 H 0.27659 0.32894 0.5223 0.0
H1473 H 0.30271 0.36415 0.54807 0.0
S1474 S 0.34502 0.39251 0.46037 0.0
N1475 N 0.3207 0.36565 0.45971 0.0
N1476 N 0.34963 0.40289 0.48775 0.0
C1477 C 0.331 0.38421 0.49766 0.0
C1478 C 0.31531 0.36414 0.48249 0.0
C1479 C 0.28574 0.68233 0.44267 0.0
C1480 C 0.28062 0.65538 0.43748 0.0
C1481 C 0.2967 0.69231 0.46487 0.0
C1482 C 0.30284 0.67574 0.48289 0.0
H1483 H 0.2816 0.69587 0.42935 0.0
H1484 H 0.30073 0.71326 0.46782 0.0
S1485 S 0.29061 0.60329 0.47893 0.0
N1486 N 0.28096 0.6121 0.45265 0.0
N1487 N 0.30117 0.63072 0.49425 0.0
C1488 C 0.29729 0.64868 0.47802 0.0
C1489 C 0.28626 0.63856 0.4554 0.0
C1490 C 0.92662 0.66833 0.48554 0.0
C1491 C 0.94525 0.68258 0.4709 0.0
C1492 C 0.91112 0.68084 0.49811 0.0
C1493 C 0.91363 0.70805 0.49653 0.0
H1494 H 0.9237 0.64727 0.487 0.0
H1495 H 0.89674 0.66904 0.50891 0.0
S1496 S 0.96102 0.7545 0.46205 0.0
N1497 N 0.96634 0.72551 0.45639 0.0
N1498 N 0.93718 0.74906 0.48014 0.0
C1499 C 0.93241 0.72259 0.48218 0.0
C1500 C 0.94823 0.70984 0.46935 0.0
C1501 C 0.87164 0.30625 0.47725 0.0
C1502 C 0.8589 0.2931 0.45681 0.0
C1503 C 0.8621 0.29915 0.4991 0.0
C1504 C 0.83919 0.27886 0.50141 0.0
H1505 H 0.88994 0.32127 0.47647 0.0
H1506 H 0.87362 0.30872 0.51449 0.0
S1507 S 0.7963 0.24114 0.4526 0.0
N1508 N 0.82078 0.26073 0.43974 0.0
N1509 N 0.80241 0.24762 0.48084 0.0
C1510 C 0.82511 0.26689 0.48086 0.0
C1511 C 0.83514 0.27388 0.45856 0.0
C1512 C 0.15232 0.70534 0.74988 0.0
C1513 C 0.14091 0.69087 0.72963 0.0
C1514 C 0.13806 0.7201 0.76178 0.0
C1515 C 0.11185 0.72114 0.75387 0.0
H1516 H 0.17184 0.70412 0.75729 0.0
H1517 H 0.14743 0.73028 0.77766 0.0
S1518 S 0.07402 0.68878 0.70035 0.0
N1519 N 0.10273 0.68032 0.70106 0.0
N1520 N 0.0759 0.70758 0.72354 0.0
C1521 C 0.10085 0.70794 0.73291 0.0
C1522 C 0.11535 0.69292 0.72082 0.0
C1523 C 0.83601 0.64284 0.70034 0.0
C1524 C 0.85053 0.66434 0.71398 0.0
C1525 C 0.82434 0.61899 0.71073 0.0
C1526 C 0.82675 0.61586 0.7351 0.0
H1527 H 0.83417 0.6443 0.68151 0.0
H1528 H 0.81387 0.6027 0.69959 0.0
S1529 S 0.85996 0.6675 0.77854 0.0
N1530 N 0.86488 0.68179 0.75305 0.0
N1531 N 0.84277 0.63724 0.77259 0.0
C1532 C 0.84046 0.63759 0.74891 0.0
C1533 C 0.85238 0.66176 0.73834 0.0
C1534 C 0.94979 0.31779 0.75023 0.0
C1535 C 0.95219 0.33411 0.73063 0.0
C1536 C 0.97076 0.30676 0.75882 0.0
C1537 C 0.99499 0.31162 0.74814 0.0
H1538 H 0.93107 0.31242 0.75825 0.0
H1539 H 0.96758 0.29355 0.77344 0.0
S1540 S 1.01195 0.3556 0.69771 0.0
N1541 N 0.9809 0.35604 0.70162 0.0
N1542 N 1.02068 0.33617 0.71806 0.0
C1543 C 0.99795 0.32897 0.72911 0.0
C1544 C 0.97648 0.34 0.72031 0.0
C1545 C 0.24366 0.45202 0.73905 0.0
C1546 C 0.23402 0.43255 0.75526 0.0
C1547 C 0.26547 0.47282 0.74519 0.0
C1548 C 0.27815 0.47517 0.76785 0.0
H1549 H 0.23438 0.45113 0.72143 0.0
H1550 H 0.27258 0.4871 0.73201 0.0
S1551 S 0.26124 0.42923 0.81666 0.0
N1552 N 0.23937 0.41662 0.79487 0.0
N1553 N 0.27987 0.45643 0.80655 0.0
C1554 C 0.26846 0.45626 0.78442 0.0
C1555 C 0.2465 0.43477 0.77809 0.0
C1556 C 0.13729 0.30778 0.38464 0.0
C1557 C 0.15863 0.29614 0.39095 0.0
C1558 C 0.11237 0.2927 0.37592 0.0
C1559 C 0.10772 0.26536 0.37354 0.0
H1560 H 0.13993 0.32879 0.38622 0.0
H1561 H 0.09663 0.30252 0.37104 0.0
S1562 S 0.15706 0.22532 0.38677 0.0
N1563 N 0.17357 0.25562 0.39341 0.0
N1564 N 0.12655 0.22721 0.37785 0.0
C1565 C 0.12871 0.25338 0.38014 0.0
C1566 C 0.15418 0.26877 0.38868 0.0
C1567 C 0.28324 0.57364 0.38456 0.0
C1568 C 0.27961 0.59485 0.37053 0.0
C1569 C 0.29109 0.55231 0.37528 0.0
C1570 C 0.29612 0.55142 0.35165 0.0
H1571 H 0.27905 0.57308 0.40274 0.0
H1572 H 0.29264 0.53607 0.38664 0.0
S1573 S 0.2911 0.60286 0.30778 0.0
N1574 N 0.28268 0.61419 0.33203 0.0
N1575 N 0.29785 0.57438 0.31457 0.0
C1576 C 0.29357 0.57302 0.3376 0.0
C1577 C 0.28514 0.59458 0.34701 0.0
C1578 C 1.00199 0.72365 0.33337 0.0
C1579 C 1.01127 0.7084 0.35085 0.0
C1580 C 1.01971 0.74276 0.32156 0.0
C1581 C 0.04743 0.7474 0.32674 0.0
H1582 H 0.98088 0.72022 0.32827 0.0
H1583 H 1.01166 0.75311 0.30742 0.0
S1584 S 0.08181 0.71369 0.37205 0.0
N1585 N 0.04988 0.69997 0.3736 0.0
N1586 N 0.08321 0.73612 0.35156 0.0
C1587 C 0.05691 0.73337 0.34517 0.0
C1588 C 0.03882 0.71378 0.35714 0.0
C1589 C 0.8711 0.42686 0.35162 0.0
C1590 C 0.86679 0.41365 0.37289 0.0
C1591 C 0.85631 0.4448 0.34376 0.0
C1592 C 0.83649 0.4504 0.35684 0.0
H1593 H 0.88683 0.42407 0.34134 0.0
H1594 H 0.86154 0.45534 0.3279 0.0
S1595 S 0.81516 0.41867 0.41238 0.0
N1596 N 0.83981 0.40573 0.40601 0.0
N1597 N 0.81153 0.43913 0.39103 0.0
C1598 C 0.83085 0.43612 0.37747 0.0
C1599 C 0.84601 0.41777 0.38549 0.0
C1600 C 0.28382 0.62826 0.73784 0.0
C1601 C 0.27924 0.63028 0.71348 0.0
C1602 C 0.30006 0.61231 0.74773 0.0
C1603 C 0.31249 0.59769 0.73371 0.0
H1604 H 0.27503 0.63936 0.74938 0.0
H1605 H 0.3032 0.61167 0.76654 0.0
S1606 S 0.30476 0.59387 0.66905 0.0
N1607 N 0.28705 0.61466 0.67564 0.0
N1608 N 0.31754 0.585 0.69418 0.0
C1609 C 0.30772 0.59918 0.70936 0.0
C1610 C 0.29113 0.61534 0.69928 0.0
C1611 C 0.21625 0.39354 0.37414 0.0
C1612 C 0.23079 0.37412 0.376 0.0
C1613 C 0.22288 0.41458 0.35885 0.0
C1614 C 0.24416 0.41689 0.34467 0.0
H1615 H 0.1994 0.39227 0.38444 0.0
H1616 H 0.21124 0.42918 0.35818 0.0
S1617 S 0.28769 0.37031 0.34237 0.0
N1618 N 0.26709 0.35809 0.36234 0.0
N1619 N 0.27931 0.39733 0.33311 0.0
C1620 C 0.25896 0.39757 0.34647 0.0
C1621 C 0.25232 0.37626 0.36226 0.0
C1622 C 0.14004 0.68248 0.33853 0.0
C1623 C 0.15864 0.66817 0.33327 0.0
C1624 C 0.12675 0.69454 0.32107 0.0
C1625 C 0.13135 0.69298 0.29738 0.0
H1626 H 0.13519 0.68387 0.35638 0.0
H1627 H 0.11211 0.70452 0.32621 0.0
S1628 S 0.17958 0.65945 0.27432 0.0
N1629 N 0.18182 0.65403 0.30267 0.0
N1630 N 0.15737 0.67725 0.26982 0.0
C1631 C 0.1506 0.67948 0.29188 0.0
C1632 C 0.16418 0.6671 0.3098 0.0
C1633 C 0.92018 0.63678 0.32331 0.0
C1634 C 0.93649 0.62748 0.34045 0.0
C1635 C 0.89911 0.61954 0.31052 0.0
C1636 C 0.89346 0.59232 0.31445 0.0
H1637 H 0.92301 0.65765 0.32043 0.0
H1638 H 0.88649 0.62777 0.29819 0.0
S1639 S 0.93276 0.55774 0.35491 0.0
N1640 N 0.9475 0.5891 0.35875 0.0
N1641 N 0.90772 0.55671 0.33506 0.0
C1642 C 0.91053 0.58267 0.33066 0.0
C1643 C 0.93205 0.60022 0.34357 0.0
C1644 C 0.934 0.2602 0.41379 0.0
C1645 C 0.91697 0.27043 0.39796 0.0
C1646 C 0.95253 0.24717 0.40595 0.0
C1647 C 0.95485 0.24393 0.38197 0.0
H1648 H 0.93385 0.2633 0.43236 0.0
H1649 H 0.96588 0.24054 0.41876 0.0
S1650 S 0.91203 0.26332 0.33353 0.0
N1651 N 0.90166 0.27374 0.35726 0.0
N1652 N 0.93635 0.24939 0.34261 0.0
C1653 C 0.93698 0.25283 0.36604 0.0
C1654 C 0.91811 0.266 0.374 0.0
C1655 C 0.86027 0.45224 0.74063 0.0
C1656 C 0.8628 0.43425 0.75841 0.0
C1657 C 0.85543 0.47681 0.74566 0.0
C1658 C 0.853 0.48458 0.7687 0.0
H1659 H 0.85997 0.44653 0.72255 0.0
H1660 H 0.85205 0.4892 0.73113 0.0
S1661 S 0.86249 0.44618 0.82189 0.0
N1662 N 0.86576 0.42708 0.80022 0.0
N1663 N 0.85691 0.47317 0.80968 0.0
C1664 C 0.85785 0.46765 0.7868 0.0
C1665 C 0.86261 0.44254 0.78164 0.0
C1666 C 0.15197 0.3647 0.79347 0.0
C1667 C 0.14699 0.3729 0.77057 0.0
C1668 C 0.13094 0.35402 0.80717 0.0
C1669 C 0.10431 0.35169 0.79858 0.0
H1670 H 0.17216 0.36534 0.80038 0.0
H1671 H 0.1355 0.34645 0.82421 0.0
S1672 S 0.0813 0.37323 0.74046 0.0
N1673 N 0.11404 0.38007 0.74048 0.0
N1674 N 0.07438 0.36041 0.76622 0.0
C1675 C 0.09926 0.3615 0.77621 0.0
C1676 C 0.12066 0.37195 0.76217 0.0
C1677 C 0.95066 0.71843 0.7056 0.0
C1678 C 0.93267 0.73458 0.70632 0.0
C1679 C 0.97641 0.72598 0.71658 0.0
C1680 C 0.98527 0.75008 0.72851 0.0
H1681 H 0.94433 0.69922 0.69743 0.0
H1682 H 0.98907 0.71229 0.71661 0.0
S1683 S 0.94652 0.80028 0.73425 0.0
N1684 N 0.92593 0.77637 0.71893 0.0
N1685 N 0.97459 0.79083 0.73922 0.0
C1686 C 0.96813 0.76722 0.72804 0.0
C1687 C 0.94175 0.75941 0.71701 0.0
C1688 C 0.75772 0.14204 0.62899 0.0
C1689 C 0.74601 0.15718 0.64305 0.0
C1690 C 0.76918 0.15212 0.60849 0.0
C1691 C 0.76949 0.17783 0.60093 0.0
H1692 H 0.75803 0.12213 0.63384 0.0
H1693 H 0.77828 0.13963 0.59863 0.0
S1694 S 0.74183 0.22589 0.63152 0.0
N1695 N 0.73561 0.19948 0.64795 0.0
N1696 N 0.75697 0.21827 0.60934 0.0
C1697 C 0.75742 0.19309 0.61455 0.0
C1698 C 0.74577 0.18283 0.63557 0.0
C1699 C 0.3657 0.31809 0.63555 0.0
C1700 C 0.35207 0.32135 0.65511 0.0
C1701 C 0.37771 0.33972 0.62234 0.0
C1702 C 0.37671 0.36524 0.62849 0.0
H1703 H 0.36753 0.29876 0.63073 0.0
H1704 H 0.38875 0.33659 0.60785 0.0
S1705 S 0.34238 0.38431 0.67709 0.0
N1706 N 0.33727 0.35214 0.6791 0.0
N1707 N 0.36022 0.39262 0.65449 0.0
C1708 C 0.36256 0.3687 0.64749 0.0
C1709 C 0.35002 0.34677 0.66069 0.0
C1710 C 0.37302 0.8192 0.65842 0.0
C1711 C 0.39919 0.8341 0.664 0.0
C1712 C 0.36662 0.80236 0.63891 0.0
C1713 C 0.38616 0.79919 0.62432 0.0
H1714 H 0.35736 0.82 0.66954 0.0
H1715 H 0.34626 0.79124 0.63555 0.0
S1716 S 0.45695 0.83583 0.62932 0.0
N1717 N 0.44427 0.84634 0.65175 0.0
N1718 N 0.43232 0.81401 0.61562 0.0
C1719 C 0.41224 0.8144 0.62926 0.0
C1720 C 0.41872 0.83194 0.64893 0.0
C1721 C 0.73886 0.77372 0.59845 0.0
C1722 C 0.72698 0.79209 0.58669 0.0
C1723 C 0.75917 0.76491 0.58889 0.0
C1724 C 0.76882 0.77474 0.56761 0.0
H1725 H 0.73199 0.7657 0.61491 0.0
H1726 H 0.76747 0.75033 0.59822 0.0
S1727 S 0.74405 0.82307 0.53003 0.0
N1728 N 0.72592 0.8197 0.55269 0.0
N1729 N 0.7645 0.8035 0.53484 0.0
C1730 C 0.75724 0.79334 0.5558 0.0
C1731 C 0.7362 0.80193 0.56534 0.0
C1732 C 0.79613 0.77227 0.41838 0.0
C1733 C 0.77342 0.78261 0.41547 0.0
C1734 C 0.81149 0.7743 0.4398 0.0
C1735 C 0.80491 0.78699 0.4591 0.0
H1736 H 0.80208 0.76247 0.40397 0.0
H1737 H 0.82869 0.76591 0.44122 0.0
S1738 S 0.74664 0.8162 0.46108 0.0
N1739 N 0.74448 0.80496 0.43414 0.0
N1740 N 0.77373 0.80948 0.4741 0.0
C1741 C 0.78236 0.79757 0.45641 0.0
C1742 C 0.76655 0.79523 0.43469 0.0
C1743 C 0.76027 0.15816 0.44398 0.0
C1744 C 0.77496 0.16465 0.42427 0.0
C1745 C 0.77234 0.1635 0.46678 0.0
C1746 C 0.79965 0.17534 0.47093 0.0
H1747 H 0.7393 0.14856 0.44179 0.0
H1748 H 0.76023 0.1581 0.48135 0.0
S1749 S 0.84641 0.19904 0.42545 0.0
N1750 N 0.81799 0.18547 0.41055 0.0
N1751 N 0.84059 0.19527 0.45323 0.0
C1752 C 0.81453 0.18228 0.45141 0.0
C1753 C 0.80221 0.17702 0.42818 0.0
C1754 C 0.40063 0.28669 0.4809 0.0
C1755 C 0.37961 0.26414 0.48087 0.0
C1756 C 0.40142 0.30824 0.49531 0.0
C1757 C 0.38132 0.30815 0.51039 0.0
H1758 H 0.41729 0.28727 0.47054 0.0
H1759 H 0.41839 0.32486 0.49514 0.0
S1760 S 0.32042 0.25493 0.51507 0.0
N1761 N 0.33674 0.24408 0.49537 0.0
N1762 N 0.33881 0.28411 0.52321 0.0
C1763 C 0.35943 0.28631 0.50961 0.0
C1764 C 0.3585 0.26441 0.49474 0.0
C1765 C 0.3891 0.803 0.46927 0.0
C1766 C 0.37002 0.80915 0.45291 0.0
C1767 C 0.38218 0.79264 0.49099 0.0
C1768 C 0.35579 0.78771 0.4974 0.0
H1769 H 0.40963 0.80611 0.46519 0.0
H1770 H 0.39777 0.78793 0.50271 0.0
S1771 S 0.29843 0.80145 0.46102 0.0
N1772 N 0.32379 0.81077 0.44472 0.0
N1773 N 0.31054 0.79069 0.48566 0.0
C1774 C 0.33656 0.79456 0.48148 0.0
C1775 C 0.34374 0.8054 0.45923 0.0
C1776 C 0.60471 0.14451 0.74495 0.0
C1777 C 0.62066 0.15895 0.72844 0.0
C1778 C 0.58994 0.15645 0.75896 0.0
C1779 C 0.59016 0.18327 0.7568 0.0
H1780 H 0.60289 0.12359 0.74644 0.0
H1781 H 0.57766 0.14437 0.77116 0.0
S1782 S 0.62914 0.22963 0.716 0.0
N1783 N 0.63657 0.20142 0.71101 0.0
N1784 N 0.60835 0.22392 0.73678 0.0
C1785 C 0.60683 0.19811 0.74081 0.0
C1786 C 0.62213 0.18591 0.72674 0.0
C1787 C 0.34876 0.17704 0.75224 0.0
C1788 C 0.36521 0.18053 0.7336 0.0
C1789 C 0.34019 0.15227 0.76231 0.0
C1790 C 0.34745 0.13022 0.75375 0.0
H1791 H 0.34287 0.19364 0.7593 0.0
H1792 H 0.32744 0.15018 0.77656 0.0
S1793 S 0.39039 0.12913 0.70551 0.0
N1794 N 0.38871 0.16005 0.70728 0.0
N1795 N 0.37221 0.11349 0.72591 0.0
C1796 C 0.3638 0.1335 0.73512 0.0
C1797 C 0.3728 0.15868 0.72512 0.0
C1798 C 0.46203 0.83382 0.74053 0.0
C1799 C 0.45559 0.85839 0.73927 0.0
C1800 C 0.48459 0.8301 0.75386 0.0
C1801 C 0.50175 0.85062 0.76714 0.0
H1802 H 0.44963 0.81714 0.73088 0.0
H1803 H 0.48876 0.81095 0.75316 0.0
S1804 S 0.49256 0.91842 0.77178 0.0
N1805 N 0.46774 0.90352 0.75324 0.0
N1806 N 0.50924 0.89617 0.77957 0.0
C1807 C 0.49494 0.87511 0.76691 0.0
C1808 C 0.47208 0.87903 0.75284 0.0
C1809 C 0.76447 0.89141 0.68288 0.0
C1810 C 0.73777 0.89311 0.68063 0.0
C1811 C 0.78501 0.91337 0.68963 0.0
C1812 C 0.77946 0.93772 0.69422 0.0
H1813 H 0.76936 0.87275 0.68037 0.0
H1814 H 0.80516 0.91096 0.69236 0.0
S1815 S 0.71306 0.95299 0.68709 0.0
N1816 N 0.70704 0.92132 0.68117 0.0
N1817 N 0.74556 0.96278 0.69313 0.0
C1818 C 0.75294 0.93991 0.69053 0.0
C1819 C 0.7321 0.91754 0.68393 0.0
C1820 C 0.6368 0.81603 0.31281 0.0
C1821 C 0.64903 0.82682 0.33432 0.0
C1822 C 0.60901 0.807 0.30946 0.0
C1823 C 0.59274 0.80815 0.32769 0.0
H1824 H 0.64886 0.8135 0.29888 0.0
H1825 H 0.60047 0.79741 0.29309 0.0
S1826 S 0.61542 0.83726 0.38649 0.0
N1827 N 0.64309 0.84028 0.3733 0.0
N1828 N 0.59093 0.82314 0.36728 0.0
C1829 C 0.60482 0.8204 0.34879 0.0
C1830 C 0.63299 0.82973 0.35207 0.0
C1831 C 0.79934 0.12837 0.34274 0.0
C1832 C 0.77205 0.12092 0.34631 0.0
C1833 C 0.81142 0.11257 0.32976 0.0
C1834 C 0.79681 0.08855 0.31973 0.0
H1835 H 0.81159 0.14648 0.35028 0.0
H1836 H 0.83257 0.11916 0.32787 0.0
S1837 S 0.7247 0.05983 0.32402 0.0
N1838 N 0.73074 0.08768 0.33879 0.0
N1839 N 0.7533 0.05825 0.31417 0.0
C1840 C 0.76935 0.08112 0.32271 0.0
C1841 C 0.75704 0.0972 0.33602 0.0
C1842 C 0.4604 0.27385 0.3564 0.0
C1843 C 0.4606 0.26195 0.3784 0.0
C1844 C 0.48405 0.28759 0.34755 0.0
C1845 C 0.50879 0.2899 0.36033 0.0
H1846 H 0.44201 0.27103 0.34534 0.0
H1847 H 0.48321 0.29514 0.32997 0.0
S1848 S 0.51972 0.26413 0.41965 0.0
N1849 N 0.48719 0.25498 0.41352 0.0
N1850 N 0.53178 0.2808 0.39683 0.0
C1851 C 0.50904 0.27983 0.38308 0.0
C1852 C 0.48488 0.26583 0.39213 0.0
C1853 C 0.37986 0.96192 0.35867 0.0
C1854 C 0.36654 0.93968 0.37053 0.0
C1855 C 0.36594 0.97767 0.34559 0.0
C1856 C 0.33792 0.97186 0.34347 0.0
H1857 H 0.40142 0.96745 0.35973 0.0
H1858 H 0.37741 0.99459 0.33701 0.0
S1859 S 0.29329 0.91537 0.37051 0.0
N1860 N 0.32357 0.91238 0.37908 0.0
N1861 N 0.29724 0.94166 0.3539 0.0
C1862 C 0.32421 0.94921 0.35464 0.0
C1863 C 0.33852 0.9332 0.36824 0.0
C1864 C 0.75898 0.08224 0.70542 0.0
C1865 C 0.74894 0.1018 0.71551 0.0
C1866 C 0.77076 0.06513 0.71921 0.0
C1867 C 0.7733 0.06684 0.74382 0.0
H1868 H 0.75744 0.07989 0.68663 0.0
H1869 H 0.77819 0.05057 0.71036 0.0
S1870 S 0.75061 0.11512 0.77893 0.0
N1871 N 0.74254 0.1221 0.75166 0.0
N1872 N 0.76466 0.09014 0.77758 0.0
C1873 C 0.76329 0.08636 0.75414 0.0
C1874 C 0.75114 0.10372 0.74004 0.0
C1875 C 0.73471 0.90345 0.31883 0.0
C1876 C 0.73855 0.88954 0.33933 0.0
C1877 C 0.75045 0.92857 0.31526 0.0
C1878 C 0.77077 0.94085 0.33201 0.0
H1879 H 0.71957 0.89473 0.30525 0.0
H1880 H 0.74646 0.93852 0.29929 0.0
S1881 S 0.78886 0.91287 0.38882 0.0
N1882 N 0.7637 0.89015 0.37696 0.0
N1883 N 0.79411 0.93695 0.3698 0.0
C1884 C 0.77485 0.92718 0.35263 0.0
C1885 C 0.75862 0.90163 0.35636 0.0
C1886 C 0.62945 0.20659 0.34526 0.0
C1887 C 0.64807 0.19487 0.33576 0.0
C1888 C 0.61653 0.22321 0.33207 0.0
C1889 C 0.62148 0.22898 0.30862 0.0
H1890 H 0.62456 0.20262 0.36311 0.0
H1891 H 0.60234 0.23145 0.34041 0.0
S1892 S 0.66903 0.20381 0.27549 0.0
N1893 N 0.67115 0.19052 0.30152 0.0
N1894 N 0.64716 0.22194 0.27666 0.0
C1895 C 0.6405 0.2178 0.29899 0.0
C1896 C 0.65374 0.20082 0.31255 0.0
C1897 C 0.37508 0.16342 0.35156 0.0
C1898 C 0.40158 0.17459 0.35968 0.0
C1899 C 0.3686 0.14086 0.3374 0.0
C1900 C 0.38836 0.1286 0.33095 0.0
H1901 H 0.3593 0.1723 0.35604 0.0
H1902 H 0.34795 0.13302 0.33132 0.0
S1903 S 0.46048 0.14907 0.34938 0.0
N1904 N 0.44755 0.17114 0.36129 0.0
N1905 N 0.43534 0.12863 0.33489 0.0
C1906 C 0.4149 0.13948 0.33919 0.0
C1907 C 0.4215 0.16247 0.35353 0.0
C1908 C 0.44791 0.81692 0.37892 0.0
C1909 C 0.42219 0.80348 0.38441 0.0
C1910 C 0.46524 0.80375 0.36924 0.0
C1911 C 0.45775 0.77656 0.36498 0.0
H1912 H 0.45507 0.83765 0.38279 0.0
H1913 H 0.48497 0.81475 0.36571 0.0
S1914 S 0.39177 0.73272 0.3732 0.0
N1915 N 0.38937 0.76167 0.38244 0.0
N1916 N 0.42226 0.73704 0.36498 0.0
C1917 C 0.43193 0.76302 0.36964 0.0
C1918 C 0.41412 0.77642 0.37916 0.0
C1919 C 0.3402 0.94686 0.77535 0.0
C1920 C 0.35632 0.94637 0.75683 0.0
C1921 C 0.33903 0.97043 0.78594 0.0
C1922 C 0.35432 0.99471 0.7789 0.0
H1923 H 0.32761 0.92882 0.78125 0.0
H1924 H 0.32566 0.96959 0.79959 0.0
S1925 S 0.40108 1.00447 0.73222 0.0
N1926 N 0.3887 0.97243 0.73246 0.0
N1927 N 0.38723 0.01674 0.75295 0.0
C1928 C 0.37162 0.99453 0.76124 0.0
C1929 C 0.37251 0.9704 0.75014 0.0
C1930 C 0.67178 0.82789 0.73228 0.0
C1931 C 0.66027 0.82826 0.70932 0.0
C1932 C 0.65604 0.82127 0.75106 0.0
C1933 C 0.62813 0.81432 0.74766 0.0
H1934 H 0.69321 0.83323 0.73585 0.0
H1935 H 0.66584 0.82206 0.76849 0.0
S1936 S 0.5879 0.81142 0.69112 0.0
N1937 N 0.61904 0.82068 0.68424 0.0
N1938 N 0.58946 0.80741 0.71968 0.0
C1939 C 0.61624 0.81345 0.72478 0.0
C1940 C 0.63231 0.82061 0.70557 0.0
C1941 C 0.46021 0.24025 0.71363 0.0
C1942 C 0.44306 0.25386 0.72289 0.0
C1943 C 0.48708 0.24505 0.72185 0.0
C1944 C 0.49763 0.2633 0.73995 0.0
H1945 H 0.45236 0.22456 0.70104 0.0
H1946 H 0.49898 0.23277 0.71528 0.0
S1947 S 0.46184 0.30716 0.76709 0.0
N1948 N 0.43909 0.28869 0.74872 0.0
N1949 N 0.48964 0.29777 0.76437 0.0
C1950 C 0.48122 0.27879 0.74773 0.0
C1951 C 0.45389 0.27402 0.73916 0.0
C1952 C 0.78788 0.68756 0.16532 0.0
C1953 C 0.76015 0.67726 0.16186 0.0
C1954 C 0.80377 0.69403 0.14642 0.0
C1955 C 0.79266 0.69057 0.12317 0.0
H1956 H 0.7974 0.69087 0.18285 0.0
H1957 H 0.82489 0.70226 0.15007 0.0
S1958 S 0.72154 0.66248 0.10438 0.0
N1959 N 0.72258 0.66264 0.13315 0.0
N1960 N 0.75236 0.67503 0.09778 0.0
C1961 C 0.76504 0.68012 0.11942 0.0
C1962 C 0.74884 0.67343 0.13867 0.0
C1963 C 0.31491 0.73758 0.10604 0.0
C1964 C 0.32988 0.74295 0.12766 0.0
C1965 C 0.32376 0.75086 0.08587 0.0
C1966 C 0.34787 0.77015 0.08657 0.0
H1967 H 0.2961 0.72308 0.10473 0.0
H1968 H 0.31124 0.74638 0.06974 0.0
S1969 S 0.3948 0.79085 0.13895 0.0
N1970 N 0.37011 0.76839 0.14863 0.0
N1971 N 0.38708 0.79319 0.11073 0.0
C1972 C 0.36338 0.77519 0.10803 0.0
C1973 C 0.35432 0.76163 0.12856 0.0
C1974 C 0.35363 0.29121 0.17859 0.0
C1975 C 0.3815 0.30053 0.17962 0.0
C1976 C 0.33851 0.2831 0.15741 0.0
C1977 C 0.35047 0.28398 0.13615 0.0
H1978 H 0.34342 0.28915 0.19445 0.0
H1979 H 0.31729 0.27518 0.15793 0.0
S1980 S 0.42262 0.30934 0.12891 0.0
N1981 N 0.42026 0.31211 0.15718 0.0
N1982 N 0.39205 0.29682 0.11746 0.0
C1983 C 0.37824 0.29443 0.13677 0.0
C1984 C 0.39366 0.3026 0.15843 0.0
C1985 C 0.78852 0.36005 0.09155 0.0
C1986 C 0.77754 0.35019 0.11231 0.0
C1987 C 0.80651 0.34845 0.08123 0.0
C1988 C 0.81397 0.32638 0.09114 0.0
H1989 H 0.7834 0.37704 0.08334 0.0
H1990 H 0.81444 0.35669 0.06523 0.0
S1991 S 0.79002 0.29259 0.14509 0.0
N1992 N 0.77473 0.31675 0.14213 0.0
N1993 N 0.80858 0.29501 0.12281 0.0
C1994 C 0.80279 0.31614 0.11174 0.0
C1995 C 0.78463 0.32807 0.12234 0.0
C1996 C 0.84369 0.33157 0.9427 0.0
C1997 C 0.81684 0.33296 0.94064 0.0
C1998 C 0.85937 0.33734 0.96382 0.0
C1999 C 0.84899 0.34512 0.98368 0.0
H2000 H 0.85239 0.32499 0.92807 0.0
H2001 H 0.87957 0.33487 0.96478 0.0
S2002 S 0.78039 0.35349 0.98722 0.0
N2003 N 0.78088 0.34375 0.96009 0.0
N2004 N 0.8106 0.35539 0.99962 0.0
C2005 C 0.82268 0.34817 0.98152 0.0
C2006 C 0.80656 0.34194 0.96004 0.0
C2007 C 0.75666 0.68355 0.95967 0.0
C2008 C 0.77495 0.68382 0.94265 0.0
C2009 C 0.76512 0.69383 0.9823 0.0
C2010 C 0.79215 0.70468 0.98871 0.0
H2011 H 0.73572 0.67459 0.9557 0.0
H2012 H 0.7506 0.6923 0.99508 0.0
S2013 S 0.84765 0.71292 0.95033 0.0
N2014 N 0.82106 0.69823 0.93353 0.0
N2015 N 0.83691 0.71667 0.97602 0.0
C2016 C 0.81044 0.70589 0.97172 0.0
C2017 C 0.80188 0.69568 0.94873 0.0
C2018 C 0.42755 0.74149 0.9655 0.0
C2019 C 0.45144 0.73673 0.97579 0.0
C2020 C 0.41723 0.76172 0.97352 0.0
C2021 C 0.43025 0.77806 0.99223 0.0
H2022 H 0.41605 0.72878 0.95173 0.0
H2023 H 0.39841 0.76415 0.96542 0.0
S2024 S 0.4947 0.7755 1.02386 0.0
N2025 N 0.48909 0.75148 1.00443 0.0
N2026 N 0.46915 0.78917 1.01999 0.0
C2027 C 0.45479 0.7744 1.00202 0.0
C2028 C 0.46543 0.75375 0.99376 0.0
C2029 C 0.42423 0.30971 0.98488 0.0
C2030 C 0.4112 0.29843 0.9637 0.0
C2031 C 0.4189 0.29716 1.00633 0.0
C2032 C 0.39999 0.27306 1.00746 0.0
H2033 H 0.43903 0.32815 0.9848 0.0
H2034 H 0.42932 0.30657 1.02218 0.0
S2035 S 0.36021 0.23553 0.95706 0.0
N2036 N 0.3786 0.26178 0.94524 0.0
N2037 N 0.36823 0.23849 0.98545 0.0
C2038 C 0.38666 0.26175 0.98641 0.0
C2039 C 0.39237 0.27432 0.96459 0.0
C2040 C 0.61002 0.71055 0.23453 0.0
C2041 C 0.62406 0.6908 0.23831 0.0
C2042 C 0.59369 0.71632 0.25102 0.0
C2043 C 0.59054 0.70263 0.2722 0.0
H2044 H 0.61098 0.72115 0.21823 0.0
H2045 H 0.58259 0.73094 0.24661 0.0
S2046 S 0.62515 0.65094 0.29183 0.0
N2047 N 0.63515 0.65869 0.26556 0.0
N2048 N 0.60497 0.66991 0.2969 0.0
C2049 C 0.60552 0.68369 0.27677 0.0
C2050 C 0.62222 0.67779 0.25984 0.0
C2051 C 0.30716 0.61278 0.22771 0.0
C2052 C 0.33421 0.62158 0.22346 0.0
C2053 C 0.29648 0.58671 0.23381 0.0
C2054 C 0.31252 0.56862 0.23606 0.0
H2055 H 0.29434 0.62634 0.22711 0.0
H2056 H 0.27588 0.58094 0.23783 0.0
S2057 S 0.38354 0.58071 0.22448 0.0
N2058 N 0.37607 0.6093 0.21992 0.0
N2059 N 0.35601 0.56049 0.2321 0.0
C2060 C 0.33925 0.57683 0.23115 0.0
C2061 C 0.3501 0.60326 0.22469 0.0
C2062 C 0.4794 0.29426 0.22936 0.0
C2063 C 0.45456 0.28641 0.23875 0.0
C2064 C 0.50168 0.28567 0.23907 0.0
C2065 C 0.49986 0.26854 0.25828 0.0
H2066 H 0.48197 0.30816 0.21519 0.0
H2067 H 0.52068 0.29319 0.23192 0.0
S2068 S 0.43854 0.24105 0.28825 0.0
N2069 N 0.42905 0.25967 0.26756 0.0
N2070 N 0.47041 0.24323 0.28553 0.0
C2071 C 0.47467 0.25956 0.267 0.0
C2072 C 0.4522 0.26858 0.25733 0.0
C2073 C 0.81026 0.42974 0.24422 0.0
C2074 C 0.79258 0.43385 0.22553 0.0
C2075 C 0.82643 0.45094 0.25716 0.0
C2076 C 0.82487 0.47684 0.25215 0.0
H2077 H 0.81056 0.40997 0.24959 0.0
H2078 H 0.83857 0.44685 0.2723 0.0
S2079 S 0.78344 0.49795 0.20366 0.0
N2080 N 0.77609 0.46565 0.20139 0.0
N2081 N 0.80591 0.50549 0.22608 0.0
C2082 C 0.80845 0.48121 0.23262 0.0
C2083 C 0.79241 0.45969 0.21921 0.0
C2084 C 0.65048 0.32459 0.84717 0.0
C2085 C 0.67362 0.31489 0.84798 0.0
C2086 C 0.62585 0.30944 0.83788 0.0
C2087 C 0.62345 0.28392 0.82949 0.0
H2088 H 0.65134 0.34397 0.85393 0.0
H2089 H 0.60848 0.31751 0.83775 0.0
S2090 S 0.67795 0.25011 0.82552 0.0
N2091 N 0.69264 0.27881 0.8376 0.0
N2092 N 0.64608 0.24997 0.82134 0.0
C2093 C 0.6463 0.27402 0.82996 0.0
C2094 C 0.67145 0.28959 0.83893 0.0
C2095 C 0.78694 0.60217 0.88768 0.0
C2096 C 0.78366 0.62486 0.87574 0.0
C2097 C 0.79625 0.58261 0.87667 0.0
C2098 C 0.80321 0.58512 0.85338 0.0
H2099 H 0.78107 0.59889 0.90532 0.0
H2100 H 0.79725 0.565 0.8863 0.0
S2101 S 0.80016 0.64188 0.81505 0.0
N2102 N 0.78949 0.64939 0.83977 0.0
N2103 N 0.80732 0.61309 0.81923 0.0
C2104 C 0.80129 0.6084 0.84167 0.0
C2105 C 0.7914 0.62808 0.85277 0.0
C2106 C 0.47562 0.7295 0.85403 0.0
C2107 C 0.48087 0.70453 0.85557 0.0
C2108 C 0.49068 0.74912 0.84072 0.0
C2109 C 0.51161 0.74452 0.82855 0.0
H2110 H 0.46033 0.73414 0.86384 0.0
H2111 H 0.48655 0.76839 0.84072 0.0
S2112 S 0.53262 0.68194 0.82649 0.0
N2113 N 0.50752 0.67569 0.8433 0.0
N2114 N 0.53615 0.71274 0.81826 0.0
C2115 C 0.51624 0.7192 0.82906 0.0
C2116 C 0.50079 0.69915 0.84265 0.0
C2117 C 0.41988 0.43145 0.84761 0.0
C2118 C 0.40603 0.42652 0.86786 0.0
C2119 C 0.413 0.44823 0.83008 0.0
C2120 C 0.39196 0.46069 0.83206 0.0
H2121 H 0.43705 0.42346 0.84592 0.0
H2122 H 0.42478 0.45218 0.81517 0.0
S2123 S 0.34916 0.45339 0.88172 0.0
N2124 N 0.36988 0.43455 0.88859 0.0
N2125 N 0.35711 0.4661 0.85616 0.0
C2126 C 0.37734 0.45495 0.85191 0.0
C2127 C 0.38437 0.43792 0.86965 0.0
C2128 C 0.72903 0.60866 0.24688 0.0
C2129 C 0.74684 0.6309 0.23855 0.0
C2130 C 0.73779 0.5917 0.2631 0.0
C2131 C 0.76473 0.59612 0.27134 0.0
H2132 H 0.70829 0.60384 0.24031 0.0
H2133 H 0.72359 0.57456 0.26868 0.0
S2134 S 0.81886 0.65285 0.2575 0.0
N2135 N 0.79233 0.65759 0.24186 0.0
N2136 N 0.80873 0.62515 0.27158 0.0
C2137 C 0.78258 0.61855 0.26378 0.0
C2138 C 0.77366 0.63605 0.24759 0.0
C2139 C 0.72622 0.41875 0.85101 0.0
C2140 C 0.74074 0.39995 0.84726 0.0
C2141 C 0.73235 0.44334 0.84029 0.0
C2142 C 0.75305 0.44981 0.8253 0.0
H2143 H 0.70999 0.41436 0.86226 0.0
H2144 H 0.72101 0.45746 0.84391 0.0
S2145 S 0.79489 0.40609 0.808 0.0
N2146 N 0.77546 0.38866 0.82666 0.0
N2147 N 0.78669 0.43456 0.80604 0.0
C2148 C 0.76733 0.43089 0.82113 0.0
C2149 C 0.76124 0.40603 0.83222 0.0
C2150 C 0.64552 0.72312 0.87505 0.0
C2151 C 0.66598 0.71902 0.86197 0.0
C2152 C 0.63379 0.74435 0.87044 0.0
C2153 C 0.64173 0.76185 0.85223 0.0
H2154 H 0.63781 0.70918 0.88829 0.0
H2155 H 0.61733 0.74616 0.88021 0.0
S2156 S 0.69539 0.76054 0.81382 0.0
N2157 N 0.69466 0.73501 0.83102 0.0
N2158 N 0.67224 0.77457 0.82202 0.0
C2159 C 0.66284 0.75853 0.83967 0.0
C2160 C 0.67507 0.7372 0.84463 0.0
C2161 C 0.41598 0.59704 0.88069 0.0
C2162 C 0.41442 0.62214 0.87303 0.0
C2163 C 0.39806 0.57453 0.87118 0.0
C2164 C 0.37785 0.57637 0.85377 0.0
H2165 H 0.43187 0.59474 0.89334 0.0
H2166 H 0.40091 0.55558 0.87678 0.0
S2167 S 0.3629 0.63817 0.83086 0.0
N2168 N 0.38944 0.6479 0.84929 0.0
N2169 N 0.35556 0.60582 0.83149 0.0
C2170 C 0.37499 0.60158 0.84729 0.0
C2171 C 0.39337 0.6244 0.85686 0.0
C2172 C 0.47466 0.28472 0.90073 0.0
C2173 C 0.45512 0.29652 0.88995 0.0
C2174 C 0.4892 0.27155 0.88768 0.0
C2175 C 0.48505 0.26977 0.86325 0.0
H2176 H 0.47897 0.28589 0.91949 0.0
H2177 H 0.50418 0.26305 0.89677 0.0
S2178 S 0.43533 0.29594 0.82652 0.0
N2179 N 0.43174 0.30464 0.85335 0.0
N2180 N 0.45931 0.28007 0.82876 0.0
C2181 C 0.46559 0.28141 0.85217 0.0
C2182 C 0.45062 0.29475 0.86551 0.0
C2183 C 0.34759 0.40099 0.26021 0.0
C2184 C 0.3658 0.39643 0.27823 0.0
C2185 C 0.33603 0.42253 0.26109 0.0
C2186 C 0.3422 0.4405 0.27999 0.0
H2187 H 0.34109 0.38705 0.24595 0.0
H2188 H 0.32131 0.42447 0.24715 0.0
S2189 S 0.3918 0.43934 0.32995 0.0
N2190 N 0.39186 0.41324 0.31423 0.0
N2191 N 0.36995 0.4535 0.316 0.0
C2192 C 0.36173 0.43708 0.29736 0.0
C2193 C 0.37352 0.41512 0.29646 0.0
C2194 C 0.69736 0.38565 0.24938 0.0
C2195 C 0.70703 0.36905 0.23508 0.0
C2196 C 0.67487 0.37609 0.26167 0.0
C2197 C 0.66108 0.34955 0.26018 0.0
H2198 H 0.70669 0.40642 0.25047 0.0
H2199 H 0.66792 0.38971 0.27212 0.0
S2200 S 0.67928 0.2976 0.22621 0.0
N2201 N 0.70217 0.32445 0.22129 0.0
N2202 N 0.6593 0.30659 0.24373 0.0
C2203 C 0.67103 0.33252 0.24652 0.0
C2204 C 0.69407 0.34227 0.23409 0.0
C2205 C 0.42737 0.71584 0.23 0.0
C2206 C 0.40375 0.70447 0.24047 0.0
C2207 C 0.45143 0.72556 0.24371 0.0
C2208 C 0.45237 0.72404 0.26818 0.0
H2209 H 0.42751 0.716 0.21118 0.0
H2210 H 0.46954 0.73287 0.23514 0.0
S2211 S 0.39505 0.70024 0.30382 0.0
N2212 N 0.38218 0.69534 0.27657 0.0
N2213 N 0.42708 0.71342 0.30223 0.0
C2214 C 0.42847 0.71442 0.27872 0.0
C2215 C 0.40421 0.70466 0.26488 0.0
loop_
_geom_bond_atom_site_label_1
_geom_bond_atom_site_label_2
_geom_bond_distance
_geom_bond_site_symmetry_2
_ccdc_geom_bond_type
H0 C1 0.949 . S
C1 H0 0.949 . S
C1 C2 1.395 . S
C1 C3 1.391 . S
C2 C1 1.395 . S
C2 C5 1.390 . S
C3 C1 1.391 . S
C3 C7 1.387 . S
C3 C8 1.491 . S
H4 C5 0.950 . S
C5 C2 1.390 . S
C5 H4 0.950 . S
C5 C6 1.378 . S
C6 C5 1.378 . S
C6 C7 1.409 . S
C7 C3 1.387 . S
C7 C6 1.409 . S
C7 H9 0.951 . S
C8 C3 1.491 . S
C8 C10 1.382 . S
C8 C12 1.404 . S
H9 C7 0.951 . S
C10 C8 1.382 . S
C10 C11 1.390 . S
C10 H15 0.949 . S
C11 C10 1.390 . S
C11 C16 1.399 . S
C12 C8 1.404 . S
C12 H13 0.950 . S
C12 C14 1.375 . S
H13 C12 0.950 . S
C14 C12 1.375 . S
C14 C16 1.382 . S
C14 H18 0.950 . S
H15 C10 0.949 . S
C16 C11 1.399 . S
C16 C14 1.382 . S
C16 H17 0.952 . S
H17 C16 0.952 . S
H18 C14 0.950 . S
H19 C20 0.949 . S
C20 H19 0.949 . S
C20 C21 1.395 . S
C20 C22 1.391 . S
C21 C20 1.395 . S
C21 C24 1.390 . S
C22 C20 1.391 . S
C22 C26 1.387 . S
C22 C27 1.491 . S
H23 C24 0.950 . S
C24 C21 1.390 . S
C24 H23 0.950 . S
C24 C25 1.378 . S
C25 C24 1.378 . S
C25 C26 1.409 . S
C26 C22 1.387 . S
C26 C25 1.409 . S
C26 H28 0.951 . S
C27 C22 1.491 . S
C27 C29 1.382 . S
C27 C31 1.404 . S
H28 C26 0.951 . S
C29 C27 1.382 . S
C29 C30 1.390 . S
C29 H34 0.949 . S
C30 C29 1.390 . S
C30 C35 1.399 . S
C31 C27 1.404 . S
C31 H32 0.950 . S
C31 C33 1.375 . S
H32 C31 0.950 . S
C33 C31 1.375 . S
C33 C35 1.382 . S
C33 H37 0.950 . S
H34 C29 0.949 . S
C35 C30 1.399 . S
C35 C33 1.382 . S
C35 H36 0.952 . S
H36 C35 0.952 . S
H37 C33 0.950 . S
H38 C39 0.949 . S
C39 H38 0.949 . S
C39 C40 1.395 . S
C39 C41 1.391 . S
C40 C39 1.395 . S
C40 C43 1.390 . S
C41 C39 1.391 . S
C41 C45 1.387 . S
C41 C46 1.491 . S
H42 C43 0.950 . S
C43 C40 1.390 . S
C43 H42 0.950 . S
C43 C44 1.378 . S
C44 C43 1.378 . S
C44 C45 1.409 . S
C45 C41 1.387 . S
C45 C44 1.409 . S
C45 H47 0.951 . S
C46 C41 1.491 . S
C46 C48 1.382 . S
C46 C50 1.404 . S
H47 C45 0.951 . S
C48 C46 1.382 . S
C48 C49 1.390 . S
C48 H53 0.949 . S
C49 C48 1.390 . S
C49 C54 1.399 . S
C50 C46 1.404 . S
C50 H51 0.950 . S
C50 C52 1.375 . S
H51 C50 0.950 . S
C52 C50 1.375 . S
C52 C54 1.382 . S
C52 H56 0.950 . S
H53 C48 0.949 . S
C54 C49 1.399 . S
C54 C52 1.382 . S
C54 H55 0.952 . S
H55 C54 0.952 . S
H56 C52 0.950 . S
H57 C58 0.949 . S
C58 H57 0.949 . S
C58 C59 1.395 . S
C58 C60 1.391 . S
C59 C58 1.395 . S
C59 C62 1.390 . S
C60 C58 1.391 . S
C60 C64 1.387 . S
C60 C65 1.491 . S
H61 C62 0.950 . S
C62 C59 1.390 . S
C62 H61 0.950 . S
C62 C63 1.378 . S
C63 C62 1.378 . S
C63 C64 1.409 . S
C64 C60 1.387 . S
C64 C63 1.409 . S
C64 H66 0.951 . S
C65 C60 1.491 . S
C65 C67 1.382 . S
C65 C69 1.404 . S
H66 C64 0.951 . S
C67 C65 1.382 . S
C67 C68 1.390 . S
C67 H72 0.949 . S
C68 C67 1.390 . S
C68 C73 1.399 . S
C69 C65 1.404 . S
C69 H70 0.950 . S
C69 C71 1.375 . S
H70 C69 0.950 . S
C71 C69 1.375 . S
C71 C73 1.382 . S
C71 H75 0.950 . S
H72 C67 0.949 . S
C73 C68 1.399 . S
C73 C71 1.382 . S
C73 H74 0.952 . S
H74 C73 0.952 . S
H75 C71 0.950 . S
H76 C77 0.949 . S
C77 H76 0.949 . S
C77 C78 1.395 . S
C77 C79 1.391 . S
C78 C77 1.395 . S
C78 C81 1.390 . S
C79 C77 1.391 . S
C79 C83 1.387 . S
C79 C84 1.491 . S
H80 C81 0.950 . S
C81 C78 1.390 . S
C81 H80 0.950 . S
C81 C82 1.378 . S
C82 C81 1.378 . S
C82 C83 1.409 . S
C83 C79 1.387 . S
C83 C82 1.409 . S
C83 H85 0.951 . S
C84 C79 1.491 . S
C84 C86 1.382 . S
C84 C88 1.404 . S
H85 C83 0.951 . S
C86 C84 1.382 . S
C86 C87 1.390 . S
C86 H91 0.949 . S
C87 C86 1.390 . S
C87 C92 1.399 . S
C88 C84 1.404 . S
C88 H89 0.950 . S
C88 C90 1.375 . S
H89 C88 0.950 . S
C90 C88 1.375 . S
C90 C92 1.382 . S
C90 H94 0.950 . S
H91 C86 0.949 . S
C92 C87 1.399 . S
C92 C90 1.382 . S
C92 H93 0.952 . S
H93 C92 0.952 . S
H94 C90 0.950 . S
H95 C96 0.949 . S
C96 H95 0.949 . S
C96 C97 1.395 . S
C96 C98 1.391 . S
C97 C96 1.395 . S
C97 C100 1.390 . S
C98 C96 1.391 . S
C98 C102 1.387 . S
C98 C103 1.491 . S
H99 C100 0.950 . S
C100 C97 1.390 . S
C100 H99 0.950 . S
C100 C101 1.378 . S
C101 C100 1.378 . S
C101 C102 1.409 . S
C102 C98 1.387 . S
C102 C101 1.409 . S
C102 H104 0.951 . S
C103 C98 1.491 . S
C103 C105 1.382 . S
C103 C107 1.404 . S
H104 C102 0.951 . S
C105 C103 1.382 . S
C105 C106 1.390 . S
C105 H110 0.949 . S
C106 C105 1.390 . S
C106 C111 1.399 . S
C107 C103 1.404 . S
C107 H108 0.950 . S
C107 C109 1.375 . S
H108 C107 0.950 . S
C109 C107 1.375 . S
C109 C111 1.382 . S
C109 H113 0.950 . S
H110 C105 0.949 . S
C111 C106 1.399 . S
C111 C109 1.382 . S
C111 H112 0.952 . S
H112 C111 0.952 . S
H113 C109 0.950 . S
H114 C115 0.949 . S
C115 H114 0.949 . S
C115 C116 1.395 . S
C115 C117 1.391 . S
C116 C115 1.395 . S
C116 C119 1.390 . S
C117 C115 1.391 . S
C117 C121 1.387 . S
C117 C122 1.491 . S
H118 C119 0.950 . S
C119 C116 1.390 . S
C119 H118 0.950 . S
C119 C120 1.378 . S
C120 C119 1.378 . S
C120 C121 1.409 . S
C121 C117 1.387 . S
C121 C120 1.409 . S
C121 H123 0.951 . S
C122 C117 1.491 . S
C122 C124 1.382 . S
C122 C126 1.404 . S
H123 C121 0.951 . S
C124 C122 1.382 . S
C124 C125 1.390 . S
C124 H129 0.949 . S
C125 C124 1.390 . S
C125 C130 1.399 . S
C126 C122 1.404 . S
C126 H127 0.950 . S
C126 C128 1.375 . S
H127 C126 0.950 . S
C128 C126 1.375 . S
C128 C130 1.382 . S
C128 H132 0.950 . S
H129 C124 0.949 . S
C130 C125 1.399 . S
C130 C128 1.382 . S
C130 H131 0.952 . S
H131 C130 0.952 . S
H132 C128 0.950 . S
H133 C134 0.949 . S
C134 H133 0.949 . S
C134 C135 1.395 . S
C134 C136 1.391 . S
C135 C134 1.395 . S
C135 C138 1.390 . S
C136 C134 1.391 . S
C136 C140 1.387 . S
C136 C141 1.491 . S
H137 C138 0.950 . S
C138 C135 1.390 . S
C138 H137 0.950 . S
C138 C139 1.378 . S
C139 C138 1.378 . S
C139 C140 1.409 . S
C140 C136 1.387 . S
C140 C139 1.409 . S
C140 H142 0.951 . S
C141 C136 1.491 . S
C141 C143 1.382 . S
C141 C145 1.404 . S
H142 C140 0.951 . S
C143 C141 1.382 . S
C143 C144 1.390 . S
C143 H148 0.949 . S
C144 C143 1.390 . S
C144 C149 1.399 . S
C145 C141 1.404 . S
C145 H146 0.950 . S
C145 C147 1.375 . S
H146 C145 0.950 . S
C147 C145 1.375 . S
C147 C149 1.382 . S
C147 H151 0.950 . S
H148 C143 0.949 . S
C149 C144 1.399 . S
C149 C147 1.382 . S
C149 H150 0.952 . S
H150 C149 0.952 . S
H151 C147 0.950 . S
H152 C153 0.949 . S
C153 H152 0.949 . S
C153 C154 1.395 . S
C153 C155 1.391 . S
C154 C153 1.395 . S
C154 C157 1.390 . S
C155 C153 1.391 . S
C155 C159 1.387 . S
C155 C160 1.491 . S
H156 C157 0.950 . S
C157 C154 1.390 . S
C157 H156 0.950 . S
C157 C158 1.378 . S
C158 C157 1.378 . S
C158 C159 1.409 . S
C159 C155 1.387 . S
C159 C158 1.409 . S
C159 H161 0.951 . S
C160 C155 1.491 . S
C160 C162 1.382 . S
C160 C164 1.404 . S
H161 C159 0.951 . S
C162 C160 1.382 . S
C162 C163 1.390 . S
C162 H167 0.949 . S
C163 C162 1.390 . S
C163 C168 1.399 . S
C164 C160 1.404 . S
C164 H165 0.950 . S
C164 C166 1.375 . S
H165 C164 0.950 . S
C166 C164 1.375 . S
C166 C168 1.382 . S
C166 H170 0.950 . S
H167 C162 0.949 . S
C168 C163 1.399 . S
C168 C166 1.382 . S
C168 H169 0.952 . S
H169 C168 0.952 . S
H170 C166 0.950 . S
H171 C172 0.949 . S
C172 H171 0.949 . S
C172 C173 1.395 . S
C172 C174 1.391 . S
C173 C172 1.395 . S
C173 C176 1.390 . S
C174 C172 1.391 . S
C174 C178 1.387 . S
C174 C179 1.491 . S
H175 C176 0.950 . S
C176 C173 1.390 . S
C176 H175 0.950 . S
C176 C177 1.378 . S
C177 C176 1.378 . S
C177 C178 1.409 . S
C178 C174 1.387 . S
C178 C177 1.409 . S
C178 H180 0.951 . S
C179 C174 1.491 . S
C179 C181 1.382 . S
C179 C183 1.404 . S
H180 C178 0.951 . S
C181 C179 1.382 . S
C181 C182 1.390 . S
C181 H186 0.949 . S
C182 C181 1.390 . S
C182 C187 1.399 . S
C183 C179 1.404 . S
C183 H184 0.950 . S
C183 C185 1.375 . S
H184 C183 0.950 . S
C185 C183 1.375 . S
C185 C187 1.382 . S
C185 H189 0.950 . S
H186 C181 0.949 . S
C187 C182 1.399 . S
C187 C185 1.382 . S
C187 H188 0.952 . S
H188 C187 0.952 . S
H189 C185 0.950 . S
H190 C191 0.949 . S
C191 H190 0.949 . S
C191 C192 1.395 . S
C191 C193 1.391 . S
C192 C191 1.395 . S
C192 C195 1.390 . S
C193 C191 1.391 . S
C193 C197 1.387 . S
C193 C198 1.491 . S
H194 C195 0.950 . S
C195 C192 1.390 . S
C195 H194 0.950 . S
C195 C196 1.378 . S
C196 C195 1.378 . S
C196 C197 1.409 . S
C197 C193 1.387 . S
C197 C196 1.409 . S
C197 H199 0.951 . S
C198 C193 1.491 . S
C198 C200 1.382 . S
C198 C202 1.404 . S
H199 C197 0.951 . S
C200 C198 1.382 . S
C200 C201 1.390 . S
C200 H205 0.949 . S
C201 C200 1.390 . S
C201 C206 1.399 . S
C202 C198 1.404 . S
C202 H203 0.950 . S
C202 C204 1.375 . S
H203 C202 0.950 . S
C204 C202 1.375 . S
C204 C206 1.382 . S
C204 H208 0.950 . S
H205 C200 0.949 . S
C206 C201 1.399 . S
C206 C204 1.382 . S
C206 H207 0.952 . S
H207 C206 0.952 . S
H208 C204 0.950 . S
H209 C210 0.949 . S
C210 H209 0.949 . S
C210 C211 1.395 . S
C210 C212 1.391 . S
C211 C210 1.395 . S
C211 C214 1.390 . S
C212 C210 1.391 . S
C212 C216 1.387 . S
C212 C217 1.491 . S
H213 C214 0.950 . S
C214 C211 1.390 . S
C214 H213 0.950 . S
C214 C215 1.378 . S
C215 C214 1.378 . S
C215 C216 1.409 . S
C216 C212 1.387 . S
C216 C215 1.409 . S
C216 H218 0.951 . S
C217 C212 1.491 . S
C217 C219 1.382 . S
C217 C221 1.404 . S
H218 C216 0.951 . S
C219 C217 1.382 . S
C219 C220 1.390 . S
C219 H224 0.949 . S
C220 C219 1.390 . S
C220 C225 1.399 . S
C221 C217 1.404 . S
C221 H222 0.950 . S
C221 C223 1.375 . S
H222 C221 0.950 . S
C223 C221 1.375 . S
C223 C225 1.382 . S
C223 H227 0.950 . S
H224 C219 0.949 . S
C225 C220 1.399 . S
C225 C223 1.382 . S
C225 H226 0.952 . S
H226 C225 0.952 . S
H227 C223 0.950 . S
H228 C229 0.949 . S
C229 H228 0.949 . S
C229 C230 1.395 . S
C229 C231 1.391 . S
C230 C229 1.395 . S
C230 C233 1.390 . S
C231 C229 1.391 . S
C231 C235 1.387 . S
C231 C236 1.491 . S
H232 C233 0.950 . S
C233 C230 1.390 . S
C233 H232 0.950 . S
C233 C234 1.378 . S
C234 C233 1.378 . S
C234 C235 1.409 . S
C235 C231 1.387 . S
C235 C234 1.409 . S
C235 H237 0.951 . S
C236 C231 1.491 . S
C236 C238 1.382 . S
C236 C240 1.404 . S
H237 C235 0.951 . S
C238 C236 1.382 . S
C238 C239 1.390 . S
C238 H243 0.949 . S
C239 C238 1.390 . S
C239 C244 1.399 . S
C240 C236 1.404 . S
C240 H241 0.950 . S
C240 C242 1.375 . S
H241 C240 0.950 . S
C242 C240 1.375 . S
C242 C244 1.382 . S
C242 H246 0.950 . S
H243 C238 0.949 . S
C244 C239 1.399 . S
C244 C242 1.382 . S
C244 H245 0.952 . S
H245 C244 0.952 . S
H246 C242 0.950 . S
H247 C248 0.949 . S
C248 H247 0.949 . S
C248 C249 1.395 . S
C248 C250 1.391 . S
C249 C248 1.395 . S
C249 C252 1.390 . S
C250 C248 1.391 . S
C250 C254 1.387 . S
C250 C255 1.491 . S
H251 C252 0.950 . S
C252 C249 1.390 . S
C252 H251 0.950 . S
C252 C253 1.378 . S
C253 C252 1.378 . S
C253 C254 1.409 . S
C254 C250 1.387 . S
C254 C253 1.409 . S
C254 H256 0.951 . S
C255 C250 1.491 . S
C255 C257 1.382 . S
C255 C259 1.404 . S
H256 C254 0.951 . S
C257 C255 1.382 . S
C257 C258 1.390 . S
C257 H262 0.949 . S
C258 C257 1.390 . S
C258 C263 1.399 . S
C259 C255 1.404 . S
C259 H260 0.950 . S
C259 C261 1.375 . S
H260 C259 0.950 . S
C261 C259 1.375 . S
C261 C263 1.382 . S
C261 H265 0.950 . S
H262 C257 0.949 . S
C263 C258 1.399 . S
C263 C261 1.382 . S
C263 H264 0.952 . S
H264 C263 0.952 . S
H265 C261 0.950 . S
H266 C267 0.949 . S
C267 H266 0.949 . S
C267 C268 1.395 . S
C267 C269 1.391 . S
C268 C267 1.395 . S
C268 C271 1.390 . S
C269 C267 1.391 . S
C269 C273 1.387 . S
C269 C274 1.491 . S
H270 C271 0.950 . S
C271 C268 1.390 . S
C271 H270 0.950 . S
C271 C272 1.378 . S
C272 C271 1.378 . S
C272 C273 1.409 . S
C273 C269 1.387 . S
C273 C272 1.409 . S
C273 H275 0.951 . S
C274 C269 1.491 . S
C274 C276 1.382 . S
C274 C278 1.404 . S
H275 C273 0.951 . S
C276 C274 1.382 . S
C276 C277 1.390 . S
C276 H281 0.949 . S
C277 C276 1.390 . S
C277 C282 1.399 . S
C278 C274 1.404 . S
C278 H279 0.950 . S
C278 C280 1.375 . S
H279 C278 0.950 . S
C280 C278 1.375 . S
C280 C282 1.382 . S
C280 H284 0.950 . S
H281 C276 0.949 . S
C282 C277 1.399 . S
C282 C280 1.382 . S
C282 H283 0.952 . S
H283 C282 0.952 . S
H284 C280 0.950 . S
H285 C286 0.949 . S
C286 H285 0.949 . S
C286 C287 1.395 . S
C286 C288 1.391 . S
C287 C286 1.395 . S
C287 C290 1.390 . S
C288 C286 1.391 . S
C288 C292 1.387 . S
C288 C293 1.491 . S
H289 C290 0.950 . S
C290 C287 1.390 . S
C290 H289 0.950 . S
C290 C291 1.378 . S
C291 C290 1.378 . S
C291 C292 1.409 . S
C292 C288 1.387 . S
C292 C291 1.409 . S
C292 H294 0.951 . S
C293 C288 1.491 . S
C293 C295 1.382 . S
C293 C297 1.404 . S
H294 C292 0.951 . S
C295 C293 1.382 . S
C295 C296 1.390 . S
C295 H300 0.949 . S
C296 C295 1.390 . S
C296 C301 1.399 . S
C297 C293 1.404 . S
C297 H298 0.950 . S
C297 C299 1.375 . S
H298 C297 0.950 . S
C299 C297 1.375 . S
C299 C301 1.382 . S
C299 H303 0.950 . S
H300 C295 0.949 . S
C301 C296 1.399 . S
C301 C299 1.382 . S
C301 H302 0.952 . S
H302 C301 0.952 . S
H303 C299 0.950 . S
H304 C305 0.949 . S
C305 H304 0.949 . S
C305 C306 1.395 . S
C305 C307 1.391 . S
C306 C305 1.395 . S
C306 C309 1.390 . S
C307 C305 1.391 . S
C307 C311 1.387 . S
C307 C312 1.491 . S
H308 C309 0.950 . S
C309 C306 1.390 . S
C309 H308 0.950 . S
C309 C310 1.378 . S
C310 C309 1.378 . S
C310 C311 1.409 . S
C311 C307 1.387 . S
C311 C310 1.409 . S
C311 H313 0.951 . S
C312 C307 1.491 . S
C312 C314 1.382 . S
C312 C316 1.404 . S
H313 C311 0.951 . S
C314 C312 1.382 . S
C314 C315 1.390 . S
C314 H319 0.949 . S
C315 C314 1.390 . S
C315 C320 1.399 . S
C316 C312 1.404 . S
C316 H317 0.950 . S
C316 C318 1.375 . S
H317 C316 0.950 . S
C318 C316 1.375 . S
C318 C320 1.382 . S
C318 H322 0.950 . S
H319 C314 0.949 . S
C320 C315 1.399 . S
C320 C318 1.382 . S
C320 H321 0.952 . S
H321 C320 0.952 . S
H322 C318 0.950 . S
H323 C324 0.949 . S
C324 H323 0.949 . S
C324 C325 1.395 . S
C324 C326 1.391 . S
C325 C324 1.395 . S
C325 C328 1.390 . S
C326 C324 1.391 . S
C326 C330 1.387 . S
C326 C331 1.491 . S
H327 C328 0.950 . S
C328 C325 1.390 . S
C328 H327 0.950 . S
C328 C329 1.378 . S
C329 C328 1.378 . S
C329 C330 1.409 . S
C330 C326 1.387 . S
C330 C329 1.409 . S
C330 H332 0.951 . S
C331 C326 1.491 . S
C331 C333 1.382 . S
C331 C335 1.404 . S
H332 C330 0.951 . S
C333 C331 1.382 . S
C333 C334 1.390 . S
C333 H338 0.949 . S
C334 C333 1.390 . S
C334 C339 1.399 . S
C335 C331 1.404 . S
C335 H336 0.950 . S
C335 C337 1.375 . S
H336 C335 0.950 . S
C337 C335 1.375 . S
C337 C339 1.382 . S
C337 H341 0.950 . S
H338 C333 0.949 . S
C339 C334 1.399 . S
C339 C337 1.382 . S
C339 H340 0.952 . S
H340 C339 0.952 . S
H341 C337 0.950 . S
H342 C343 0.949 . S
C343 H342 0.949 . S
C343 C344 1.395 . S
C343 C345 1.391 . S
C344 C343 1.395 . S
C344 C347 1.390 . S
C345 C343 1.391 . S
C345 C349 1.387 . S
C345 C350 1.491 . S
H346 C347 0.950 . S
C347 C344 1.390 . S
C347 H346 0.950 . S
C347 C348 1.378 . S
C348 C347 1.378 . S
C348 C349 1.409 . S
C349 C345 1.387 . S
C349 C348 1.409 . S
C349 H351 0.951 . S
C350 C345 1.491 . S
C350 C352 1.382 . S
C350 C354 1.404 . S
H351 C349 0.951 . S
C352 C350 1.382 . S
C352 C353 1.390 . S
C352 H357 0.949 . S
C353 C352 1.390 . S
C353 C358 1.399 . S
C354 C350 1.404 . S
C354 H355 0.950 . S
C354 C356 1.375 . S
H355 C354 0.950 . S
C356 C354 1.375 . S
C356 C358 1.382 . S
C356 H360 0.950 . S
H357 C352 0.949 . S
C358 C353 1.399 . S
C358 C356 1.382 . S
C358 H359 0.952 . S
H359 C358 0.952 . S
H360 C356 0.950 . S
H361 C362 0.949 . S
C362 H361 0.949 . S
C362 C363 1.395 . S
C362 C364 1.391 . S
C363 C362 1.395 . S
C363 C366 1.390 . S
C364 C362 1.391 . S
C364 C368 1.387 . S
C364 C369 1.491 . S
H365 C366 0.950 . S
C366 C363 1.390 . S
C366 H365 0.950 . S
C366 C367 1.378 . S
C367 C366 1.378 . S
C367 C368 1.409 . S
C368 C364 1.387 . S
C368 C367 1.409 . S
C368 H370 0.951 . S
C369 C364 1.491 . S
C369 C371 1.382 . S
C369 C373 1.404 . S
H370 C368 0.951 . S
C371 C369 1.382 . S
C371 C372 1.390 . S
C371 H376 0.949 . S
C372 C371 1.390 . S
C372 C377 1.399 . S
C373 C369 1.404 . S
C373 H374 0.950 . S
C373 C375 1.375 . S
H374 C373 0.950 . S
C375 C373 1.375 . S
C375 C377 1.382 . S
C375 H379 0.950 . S
H376 C371 0.949 . S
C377 C372 1.399 . S
C377 C375 1.382 . S
C377 H378 0.952 . S
H378 C377 0.952 . S
H379 C375 0.950 . S
H380 C381 0.949 . S
C381 H380 0.949 . S
C381 C382 1.395 . S
C381 C383 1.391 . S
C382 C381 1.395 . S
C382 C385 1.390 . S
C383 C381 1.391 . S
C383 C387 1.387 . S
C383 C388 1.491 . S
H384 C385 0.950 . S
C385 C382 1.390 . S
C385 H384 0.950 . S
C385 C386 1.378 . S
C386 C385 1.378 . S
C386 C387 1.409 . S
C387 C383 1.387 . S
C387 C386 1.409 . S
C387 H389 0.951 . S
C388 C383 1.491 . S
C388 C390 1.382 . S
C388 C392 1.404 . S
H389 C387 0.951 . S
C390 C388 1.382 . S
C390 C391 1.390 . S
C390 H395 0.949 . S
C391 C390 1.390 . S
C391 C396 1.399 . S
C392 C388 1.404 . S
C392 H393 0.950 . S
C392 C394 1.375 . S
H393 C392 0.950 . S
C394 C392 1.375 . S
C394 C396 1.382 . S
C394 H398 0.950 . S
H395 C390 0.949 . S
C396 C391 1.399 . S
C396 C394 1.382 . S
C396 H397 0.952 . S
H397 C396 0.952 . S
H398 C394 0.950 . S
H399 C400 0.949 . S
C400 H399 0.949 . S
C400 C401 1.395 . S
C400 C402 1.391 . S
C401 C400 1.395 . S
C401 C404 1.390 . S
C402 C400 1.391 . S
C402 C406 1.387 . S
C402 C407 1.491 . S
H403 C404 0.950 . S
C404 C401 1.390 . S
C404 H403 0.950 . S
C404 C405 1.378 . S
C405 C404 1.378 . S
C405 C406 1.409 . S
C406 C402 1.387 . S
C406 C405 1.409 . S
C406 H408 0.951 . S
C407 C402 1.491 . S
C407 C409 1.382 . S
C407 C411 1.404 . S
H408 C406 0.951 . S
C409 C407 1.382 . S
C409 C410 1.390 . S
C409 H414 0.949 . S
C410 C409 1.390 . S
C410 C415 1.399 . S
C411 C407 1.404 . S
C411 H412 0.950 . S
C411 C413 1.375 . S
H412 C411 0.950 . S
C413 C411 1.375 . S
C413 C415 1.382 . S
C413 H417 0.950 . S
H414 C409 0.949 . S
C415 C410 1.399 . S
C415 C413 1.382 . S
C415 H416 0.952 . S
H416 C415 0.952 . S
H417 C413 0.950 . S
H418 C419 0.949 . S
C419 H418 0.949 . S
C419 C420 1.395 . S
C419 C421 1.391 . S
C420 C419 1.395 . S
C420 C423 1.390 . S
C421 C419 1.391 . S
C421 C425 1.387 . S
C421 C426 1.491 . S
H422 C423 0.950 . S
C423 C420 1.390 . S
C423 H422 0.950 . S
C423 C424 1.378 . S
C424 C423 1.378 . S
C424 C425 1.409 . S
C425 C421 1.387 . S
C425 C424 1.409 . S
C425 H427 0.951 . S
C426 C421 1.491 . S
C426 C428 1.382 . S
C426 C430 1.404 . S
H427 C425 0.951 . S
C428 C426 1.382 . S
C428 C429 1.390 . S
C428 H433 0.949 . S
C429 C428 1.390 . S
C429 C434 1.399 . S
C430 C426 1.404 . S
C430 H431 0.950 . S
C430 C432 1.375 . S
H431 C430 0.950 . S
C432 C430 1.375 . S
C432 C434 1.382 . S
C432 H436 0.950 . S
H433 C428 0.949 . S
C434 C429 1.399 . S
C434 C432 1.382 . S
C434 H435 0.952 . S
H435 C434 0.952 . S
H436 C432 0.950 . S
H437 C438 0.949 . S
C438 H437 0.949 . S
C438 C439 1.395 . S
C438 C440 1.391 . S
C439 C438 1.395 . S
C439 C442 1.390 . S
C440 C438 1.391 . S
C440 C444 1.387 . S
C440 C445 1.491 . S
H441 C442 0.950 . S
C442 C439 1.390 . S
C442 H441 0.950 . S
C442 C443 1.378 . S
C443 C442 1.378 . S
C443 C444 1.409 . S
C444 C440 1.387 . S
C444 C443 1.409 . S
C444 H446 0.951 . S
C445 C440 1.491 . S
C445 C447 1.382 . S
C445 C449 1.404 . S
H446 C444 0.951 . S
C447 C445 1.382 . S
C447 C448 1.390 . S
C447 H452 0.949 . S
C448 C447 1.390 . S
C448 C453 1.399 . S
C449 C445 1.404 . S
C449 H450 0.950 . S
C449 C451 1.375 . S
H450 C449 0.950 . S
C451 C449 1.375 . S
C451 C453 1.382 . S
C451 H455 0.950 . S
H452 C447 0.949 . S
C453 C448 1.399 . S
C453 C451 1.382 . S
C453 H454 0.952 . S
H454 C453 0.952 . S
H455 C451 0.950 . S
H456 C457 0.949 . S
C457 H456 0.949 . S
C457 C458 1.395 . S
C457 C459 1.391 . S
C458 C457 1.395 . S
C458 C461 1.390 . S
C459 C457 1.391 . S
C459 C463 1.387 . S
C459 C464 1.491 . S
H460 C461 0.950 . S
C461 C458 1.390 . S
C461 H460 0.950 . S
C461 C462 1.378 . S
C462 C461 1.378 . S
C462 C463 1.409 . S
C463 C459 1.387 . S
C463 C462 1.409 . S
C463 H465 0.951 . S
C464 C459 1.491 . S
C464 C466 1.382 . S
C464 C468 1.404 . S
H465 C463 0.951 . S
C466 C464 1.382 . S
C466 C467 1.390 . S
C466 H471 0.949 . S
C467 C466 1.390 . S
C467 C472 1.399 . S
C468 C464 1.404 . S
C468 H469 0.950 . S
C468 C470 1.375 . S
H469 C468 0.950 . S
C470 C468 1.375 . S
C470 C472 1.382 . S
C470 H474 0.950 . S
H471 C466 0.949 . S
C472 C467 1.399 . S
C472 C470 1.382 . S
C472 H473 0.952 . S
H473 C472 0.952 . S
H474 C470 0.950 . S
H475 C476 0.949 . S
C476 H475 0.949 . S
C476 C477 1.395 . S
C476 C478 1.391 . S
C477 C476 1.395 . S
C477 C480 1.390 . S
C478 C476 1.391 . S
C478 C482 1.387 . S
C478 C483 1.491 . S
H479 C480 0.950 . S
C480 C477 1.390 . S
C480 H479 0.950 . S
C480 C481 1.378 . S
C481 C480 1.378 . S
C481 C482 1.409 . S
C482 C478 1.387 . S
C482 C481 1.409 . S
C482 H484 0.951 . S
C483 C478 1.491 . S
C483 C485 1.382 . S
C483 C487 1.404 . S
H484 C482 0.951 . S
C485 C483 1.382 . S
C485 C486 1.390 . S
C485 H490 0.949 . S
C486 C485 1.390 . S
C486 C491 1.399 . S
C487 C483 1.404 . S
C487 H488 0.950 . S
C487 C489 1.375 . S
H488 C487 0.950 . S
C489 C487 1.375 . S
C489 C491 1.382 . S
C489 H493 0.950 . S
H490 C485 0.949 . S
C491 C486 1.399 . S
C491 C489 1.382 . S
C491 H492 0.952 . S
H492 C491 0.952 . S
H493 C489 0.950 . S
H494 C495 0.949 . S
C495 H494 0.949 . S
C495 C496 1.395 . S
C495 C497 1.391 . S
C496 C495 1.395 . S
C496 C499 1.390 . S
C497 C495 1.391 . S
C497 C501 1.387 . S
C497 C502 1.491 . S
H498 C499 0.950 . S
C499 C496 1.390 . S
C499 H498 0.950 . S
C499 C500 1.378 . S
C500 C499 1.378 . S
C500 C501 1.409 . S
C501 C497 1.387 . S
C501 C500 1.409 . S
C501 H503 0.951 . S
C502 C497 1.491 . S
C502 C504 1.382 . S
C502 C506 1.404 . S
H503 C501 0.951 . S
C504 C502 1.382 . S
C504 C505 1.390 . S
C504 H509 0.949 . S
C505 C504 1.390 . S
C505 C510 1.399 . S
C506 C502 1.404 . S
C506 H507 0.950 . S
C506 C508 1.375 . S
H507 C506 0.950 . S
C508 C506 1.375 . S
C508 C510 1.382 . S
C508 H512 0.950 . S
H509 C504 0.949 . S
C510 C505 1.399 . S
C510 C508 1.382 . S
C510 H511 0.952 . S
H511 C510 0.952 . S
H512 C508 0.950 . S
H513 C514 0.949 . S
C514 H513 0.949 . S
C514 C515 1.395 . S
C514 C516 1.391 . S
C515 C514 1.395 . S
C515 C518 1.390 . S
C516 C514 1.391 . S
C516 C520 1.387 . S
C516 C521 1.491 . S
H517 C518 0.950 . S
C518 C515 1.390 . S
C518 H517 0.950 . S
C518 C519 1.378 . S
C519 C518 1.378 . S
C519 C520 1.409 . S
C520 C516 1.387 . S
C520 C519 1.409 . S
C520 H522 0.951 . S
C521 C516 1.491 . S
C521 C523 1.382 . S
C521 C525 1.404 . S
H522 C520 0.951 . S
C523 C521 1.382 . S
C523 C524 1.390 . S
C523 H528 0.949 . S
C524 C523 1.390 . S
C524 C529 1.399 . S
C525 C521 1.404 . S
C525 H526 0.950 . S
C525 C527 1.375 . S
H526 C525 0.950 . S
C527 C525 1.375 . S
C527 C529 1.382 . S
C527 H531 0.950 . S
H528 C523 0.949 . S
C529 C524 1.399 . S
C529 C527 1.382 . S
C529 H530 0.952 . S
H530 C529 0.952 . S
H531 C527 0.950 . S
H532 C533 0.949 . S
C533 H532 0.949 . S
C533 C534 1.395 . S
C533 C535 1.391 . S
C534 C533 1.395 . S
C534 C537 1.390 . S
C535 C533 1.391 . S
C535 C539 1.387 . S
C535 C540 1.491 . S
H536 C537 0.950 . S
C537 C534 1.390 . S
C537 H536 0.950 . S
C537 C538 1.378 . S
C538 C537 1.378 . S
C538 C539 1.409 . S
C539 C535 1.387 . S
C539 C538 1.409 . S
C539 H541 0.951 . S
C540 C535 1.491 . S
C540 C542 1.382 . S
C540 C544 1.404 . S
H541 C539 0.951 . S
C542 C540 1.382 . S
C542 C543 1.390 . S
C542 H547 0.949 . S
C543 C542 1.390 . S
C543 C548 1.399 . S
C544 C540 1.404 . S
C544 H545 0.950 . S
C544 C546 1.375 . S
H545 C544 0.950 . S
C546 C544 1.375 . S
C546 C548 1.382 . S
C546 H550 0.950 . S
H547 C542 0.949 . S
C548 C543 1.399 . S
C548 C546 1.382 . S
C548 H549 0.952 . S
H549 C548 0.952 . S
H550 C546 0.950 . S
H551 C552 0.949 . S
C552 H551 0.949 . S
C552 C553 1.395 . S
C552 C554 1.391 . S
C553 C552 1.395 . S
C553 C556 1.390 . S
C554 C552 1.391 . S
C554 C558 1.387 . S
C554 C559 1.491 . S
H555 C556 0.950 . S
C556 C553 1.390 . S
C556 H555 0.950 . S
C556 C557 1.378 . S
C557 C556 1.378 . S
C557 C558 1.409 . S
C558 C554 1.387 . S
C558 C557 1.409 . S
C558 H560 0.951 . S
C559 C554 1.491 . S
C559 C561 1.382 . S
C559 C563 1.404 . S
H560 C558 0.951 . S
C561 C559 1.382 . S
C561 C562 1.390 . S
C561 H566 0.949 . S
C562 C561 1.390 . S
C562 C567 1.399 . S
C563 C559 1.404 . S
C563 H564 0.950 . S
C563 C565 1.375 . S
H564 C563 0.950 . S
C565 C563 1.375 . S
C565 C567 1.382 . S
C565 H569 0.950 . S
H566 C561 0.949 . S
C567 C562 1.399 . S
C567 C565 1.382 . S
C567 H568 0.952 . S
H568 C567 0.952 . S
H569 C565 0.950 . S
H570 C571 0.949 . S
C571 H570 0.949 . S
C571 C572 1.395 . S
C571 C573 1.391 . S
C572 C571 1.395 . S
C572 C575 1.390 . S
C573 C571 1.391 . S
C573 C577 1.387 . S
C573 C578 1.491 . S
H574 C575 0.950 . S
C575 C572 1.390 . S
C575 H574 0.950 . S
C575 C576 1.378 . S
C576 C575 1.378 . S
C576 C577 1.409 . S
C577 C573 1.387 . S
C577 C576 1.409 . S
C577 H579 0.951 . S
C578 C573 1.491 . S
C578 C580 1.382 . S
C578 C582 1.404 . S
H579 C577 0.951 . S
C580 C578 1.382 . S
C580 C581 1.390 . S
C580 H585 0.949 . S
C581 C580 1.390 . S
C581 C586 1.399 . S
C582 C578 1.404 . S
C582 H583 0.950 . S
C582 C584 1.375 . S
H583 C582 0.950 . S
C584 C582 1.375 . S
C584 C586 1.382 . S
C584 H588 0.950 . S
H585 C580 0.949 . S
C586 C581 1.399 . S
C586 C584 1.382 . S
C586 H587 0.952 . S
H587 C586 0.952 . S
H588 C584 0.950 . S
H589 C590 0.949 . S
C590 H589 0.949 . S
C590 C591 1.395 . S
C590 C592 1.391 . S
C591 C590 1.395 . S
C591 C594 1.390 . S
C592 C590 1.391 . S
C592 C596 1.387 . S
C592 C597 1.491 . S
H593 C594 0.950 . S
C594 C591 1.390 . S
C594 H593 0.950 . S
C594 C595 1.378 . S
C595 C594 1.378 . S
C595 C596 1.409 . S
C596 C592 1.387 . S
C596 C595 1.409 . S
C596 H598 0.951 . S
C597 C592 1.491 . S
C597 C599 1.382 . S
C597 C601 1.404 . S
H598 C596 0.951 . S
C599 C597 1.382 . S
C599 C600 1.390 . S
C599 H604 0.949 . S
C600 C599 1.390 . S
C600 C605 1.399 . S
C601 C597 1.404 . S
C601 H602 0.950 . S
C601 C603 1.375 . S
H602 C601 0.950 . S
C603 C601 1.375 . S
C603 C605 1.382 . S
C603 H607 0.950 . S
H604 C599 0.949 . S
C605 C600 1.399 . S
C605 C603 1.382 . S
C605 H606 0.952 . S
H606 C605 0.952 . S
H607 C603 0.950 . S
Cu608 N609 1.999 . S
Cu608 O614 1.974 1_554 S
Cu608 N619 1.985 . S
Cu608 O628 1.959 . S
N609 Cu608 1.999 . S
N609 C611 1.263 1_554 S
N609 C613 1.389 . S
N610 C611 1.358 . S
N610 C612 1.400 . S
C611 N609 1.263 1_556 S
C611 N610 1.358 . S
C611 H617 0.930 . S
C612 N610 1.400 . S
C612 C613 1.351 1_556 S
C612 H629 0.930 . S
C613 N609 1.389 . S
C613 C612 1.351 1_554 S
C613 H618 0.930 . S
O614 Cu608 1.974 1_556 S
O614 C624 1.282 . S
C615 O616 1.261 . S
C615 O628 1.251 . S
O616 C615 1.261 . S
H617 C611 0.930 . S
H618 C613 0.930 . S
N619 Cu608 1.985 . S
N619 C621 1.335 . S
N619 C622 1.390 . S
N620 C621 1.345 . S
N620 C623 1.336 . S
C621 N619 1.335 . S
C621 N620 1.345 . S
C621 H626 0.930 . S
C622 N619 1.390 . S
C622 C623 1.346 . S
C622 H627 0.930 . S
C623 N620 1.336 . S
C623 C622 1.346 . S
C623 H630 0.929 . S
C624 O614 1.282 . S
C624 O625 1.216 . S
O625 C624 1.216 . S
H626 C621 0.930 . S
H627 C622 0.930 . S
O628 Cu608 1.959 . S
O628 C615 1.251 . S
H629 C612 0.930 . S
H630 C623 0.929 . S
Cu631 N632 1.999 . S
Cu631 O637 1.974 . S
Cu631 N642 1.985 . S
Cu631 O651 1.959 1_554 S
N632 Cu631 1.999 . S
N632 C634 1.263 . S
N632 C636 1.389 . S
N633 C634 1.358 . S
N633 C635 1.400 . S
C634 N632 1.263 . S
C634 N633 1.358 . S
C634 H640 0.930 . S
C635 N633 1.400 . S
C635 C636 1.351 . S
C635 H652 0.930 . S
C636 N632 1.389 . S
C636 C635 1.351 . S
C636 H641 0.930 . S
O637 Cu631 1.974 . S
O637 C647 1.282 . S
C638 O639 1.261 1_556 S
C638 O651 1.251 . S
O639 C638 1.261 1_554 S
H640 C634 0.930 . S
H641 C636 0.930 . S
N642 Cu631 1.985 . S
N642 C644 1.335 1_554 S
N642 C645 1.390 . S
N643 C644 1.345 . S
N643 C646 1.336 . S
C644 N642 1.335 1_556 S
C644 N643 1.345 . S
C644 H649 0.930 . S
C645 N642 1.390 . S
C645 C646 1.346 1_554 S
C645 H650 0.930 . S
C646 N643 1.336 . S
C646 C645 1.346 1_556 S
C646 H653 0.929 . S
C647 O637 1.282 . S
C647 O648 1.216 . S
O648 C647 1.216 . S
H649 C644 0.930 . S
H650 C645 0.930 . S
O651 Cu631 1.959 1_556 S
O651 C638 1.251 . S
H652 C635 0.930 . S
H653 C646 0.929 . S
Cu654 N655 1.999 1_554 S
Cu654 O660 1.974 1_554 S
Cu654 N665 1.985 . S
Cu654 O674 1.959 . S
N655 Cu654 1.999 1_556 S
N655 C657 1.263 . S
N655 C659 1.389 . S
N656 C657 1.358 . S
N656 C658 1.400 . S
C657 N655 1.263 . S
C657 N656 1.358 . S
C657 H663 0.930 . S
C658 N656 1.400 . S
C658 C659 1.351 . S
C658 H675 0.930 . S
C659 N655 1.389 . S
C659 C658 1.351 . S
C659 H664 0.930 1_556 S
O660 Cu654 1.974 1_556 S
O660 C670 1.282 . S
C661 O662 1.261 . S
C661 O674 1.251 . S
O662 C661 1.261 . S
H663 C657 0.930 . S
H664 C659 0.930 1_554 S
N665 Cu654 1.985 . S
N665 C667 1.335 . S
N665 C668 1.390 . S
N666 C667 1.345 . S
N666 C669 1.336 . S
C667 N665 1.335 . S
C667 N666 1.345 . S
C667 H672 0.930 . S
C668 N665 1.390 . S
C668 C669 1.346 . S
C668 H673 0.930 . S
C669 N666 1.336 . S
C669 C668 1.346 . S
C669 H676 0.929 . S
C670 O660 1.282 . S
C670 O671 1.216 . S
O671 C670 1.216 . S
H672 C667 0.930 . S
H673 C668 0.930 . S
O674 Cu654 1.959 . S
O674 C661 1.251 . S
H675 C658 0.930 . S
H676 C669 0.929 . S
Cu677 N678 1.999 . S
Cu677 O683 1.974 . S
Cu677 N688 1.985 1_554 S
Cu677 O697 1.959 1_554 S
N678 Cu677 1.999 . S
N678 C680 1.263 . S
N678 C682 1.389 . S
N679 C680 1.358 . S
N679 C681 1.400 . S
C680 N678 1.263 . S
C680 N679 1.358 . S
C680 H686 0.930 . S
C681 N679 1.400 . S
C681 C682 1.351 . S
C681 H698 0.930 . S
C682 N678 1.389 . S
C682 C681 1.351 . S
C682 H687 0.930 . S
O683 Cu677 1.974 . S
O683 C693 1.282 . S
C684 O685 1.261 . S
C684 O697 1.251 . S
O685 C684 1.261 . S
H686 C680 0.930 . S
H687 C682 0.930 . S
N688 Cu677 1.985 1_556 S
N688 C690 1.335 . S
N688 C691 1.390 . S
N689 C690 1.345 . S
N689 C692 1.336 . S
C690 N688 1.335 . S
C690 N689 1.345 . S
C690 H695 0.930 . S
C691 N688 1.390 . S
C691 C692 1.346 . S
C691 H696 0.930 1_556 S
C692 N689 1.336 . S
C692 C691 1.346 . S
C692 H699 0.929 . S
C693 O683 1.282 . S
C693 O694 1.216 . S
O694 C693 1.216 . S
H695 C690 0.930 . S
H696 C691 0.930 1_554 S
O697 Cu677 1.959 1_556 S
O697 C684 1.251 . S
H698 C681 0.930 . S
H699 C692 0.929 . S
Cu700 N701 1.999 . S
Cu700 O706 1.974 . S
Cu700 N711 1.985 . S
Cu700 O720 1.959 1_455 S
N701 Cu700 1.999 . S
N701 C703 1.263 . S
N701 C705 1.389 . S
N702 C703 1.358 . S
N702 C704 1.400 . S
C703 N701 1.263 . S
C703 N702 1.358 . S
C703 H709 0.930 . S
C704 N702 1.400 . S
C704 C705 1.351 . S
C704 H721 0.930 . S
C705 N701 1.389 . S
C705 C704 1.351 . S
C705 H710 0.930 . S
O706 Cu700 1.974 . S
O706 C716 1.282 . S
C707 O708 1.261 . S
C707 O720 1.251 . S
O708 C707 1.261 . S
H709 C703 0.930 . S
H710 C705 0.930 . S
N711 Cu700 1.985 . S
N711 C713 1.335 1_455 S
N711 C714 1.390 . S
N712 C713 1.345 . S
N712 C715 1.336 . S
C713 N711 1.335 1_655 S
C713 N712 1.345 . S
C713 H718 0.930 . S
C714 N711 1.390 . S
C714 C715 1.346 1_455 S
C714 H719 0.930 . S
C715 N712 1.336 . S
C715 C714 1.346 1_655 S
C715 H722 0.929 . S
C716 O706 1.282 . S
C716 O717 1.216 . S
O717 C716 1.216 . S
H718 C713 0.930 . S
H719 C714 0.930 . S
O720 Cu700 1.959 1_655 S
O720 C707 1.251 . S
H721 C704 0.930 . S
H722 C715 0.929 . S
Cu723 N724 1.999 . S
Cu723 O729 1.974 . S
Cu723 N734 1.985 1_545 S
Cu723 O743 1.959 1_545 S
N724 Cu723 1.999 . S
N724 C726 1.263 . S
N724 C728 1.389 . S
N725 C726 1.358 . S
N725 C727 1.400 . S
C726 N724 1.263 . S
C726 N725 1.358 . S
C726 H732 0.930 . S
C727 N725 1.400 . S
C727 C728 1.351 . S
C727 H744 0.930 . S
C728 N724 1.389 . S
C728 C727 1.351 . S
C728 H733 0.930 . S
O729 Cu723 1.974 . S
O729 C739 1.282 . S
C730 O731 1.261 . S
C730 O743 1.251 . S
O731 C730 1.261 . S
H732 C726 0.930 . S
H733 C728 0.930 . S
N734 Cu723 1.985 1_565 S
N734 C736 1.335 . S
N734 C737 1.390 . S
N735 C736 1.345 . S
N735 C738 1.336 . S
C736 N734 1.335 . S
C736 N735 1.345 . S
C736 H741 0.930 . S
C737 N734 1.390 . S
C737 C738 1.346 . S
C737 H742 0.930 . S
C738 N735 1.336 . S
C738 C737 1.346 . S
C738 H745 0.929 . S
C739 O729 1.282 . S
C739 O740 1.216 . S
O740 C739 1.216 . S
H741 C736 0.930 . S
H742 C737 0.930 . S
O743 Cu723 1.959 1_565 S
O743 C730 1.251 . S
H744 C727 0.930 . S
H745 C738 0.929 . S
Cu746 N747 1.999 . S
Cu746 O752 1.974 . S
Cu746 N757 1.985 1_655 S
Cu746 O766 1.959 1_655 S
N747 Cu746 1.999 . S
N747 C749 1.263 . S
N747 C751 1.389 . S
N748 C749 1.358 . S
N748 C750 1.400 . S
C749 N747 1.263 . S
C749 N748 1.358 . S
C749 H755 0.930 . S
C750 N748 1.400 . S
C750 C751 1.351 . S
C750 H767 0.930 . S
C751 N747 1.389 . S
C751 C750 1.351 . S
C751 H756 0.930 . S
O752 Cu746 1.974 . S
O752 C762 1.282 . S
C753 O754 1.261 . S
C753 O766 1.251 . S
O754 C753 1.261 . S
H755 C749 0.930 . S
H756 C751 0.930 . S
N757 Cu746 1.985 1_455 S
N757 C759 1.335 . S
N757 C760 1.390 . S
N758 C759 1.345 . S
N758 C761 1.336 . S
C759 N757 1.335 . S
C759 N758 1.345 . S
C759 H764 0.930 . S
C760 N757 1.390 . S
C760 C761 1.346 . S
C760 H765 0.930 1_455 S
C761 N758 1.336 . S
C761 C760 1.346 . S
C761 H768 0.929 . S
C762 O752 1.282 . S
C762 O763 1.216 . S
O763 C762 1.216 . S
H764 C759 0.930 . S
H765 C760 0.930 1_655 S
O766 Cu746 1.959 1_455 S
O766 C753 1.251 . S
H767 C750 0.930 . S
H768 C761 0.929 . S
Cu769 N770 1.999 . S
Cu769 O775 1.974 . S
Cu769 N780 1.985 1_545 S
Cu769 O789 1.959 1_545 S
N770 Cu769 1.999 . S
N770 C772 1.263 . S
N770 C774 1.389 . S
N771 C772 1.358 . S
N771 C773 1.400 . S
C772 N770 1.263 . S
C772 N771 1.358 . S
C772 H778 0.930 . S
C773 N771 1.400 . S
C773 C774 1.351 . S
C773 H790 0.930 . S
C774 N770 1.389 . S
C774 C773 1.351 . S
C774 H779 0.930 . S
O775 Cu769 1.974 . S
O775 C785 1.282 . S
C776 O777 1.261 . S
C776 O789 1.251 . S
O777 C776 1.261 . S
H778 C772 0.930 . S
H779 C774 0.930 . S
N780 Cu769 1.985 1_565 S
N780 C782 1.335 . S
N780 C783 1.390 . S
N781 C782 1.345 . S
N781 C784 1.336 . S
C782 N780 1.335 . S
C782 N781 1.345 . S
C782 H787 0.930 . S
C783 N780 1.390 . S
C783 C784 1.346 . S
C783 H788 0.930 . S
C784 N781 1.336 . S
C784 C783 1.346 . S
C784 H791 0.929 . S
C785 O775 1.282 . S
C785 O786 1.216 . S
O786 C785 1.216 . S
H787 C782 0.930 . S
H788 C783 0.930 . S
O789 Cu769 1.959 1_565 S
O789 C776 1.251 . S
H790 C773 0.930 . S
H791 C784 0.929 . S
Cu792 N793 1.999 . S
Cu792 O798 1.974 . S
Cu792 N803 1.985 . S
Cu792 O812 1.959 1_455 S
N793 Cu792 1.999 . S
N793 C795 1.263 . S
N793 C797 1.389 . S
N794 C795 1.358 . S
N794 C796 1.400 . S
C795 N793 1.263 . S
C795 N794 1.358 . S
C795 H801 0.930 . S
C796 N794 1.400 . S
C796 C797 1.351 . S
C796 H813 0.930 . S
C797 N793 1.389 . S
C797 C796 1.351 . S
C797 H802 0.930 . S
O798 Cu792 1.974 . S
O798 C808 1.282 . S
C799 O800 1.261 . S
C799 O812 1.251 . S
O800 C799 1.261 . S
H801 C795 0.930 . S
H802 C797 0.930 . S
N803 Cu792 1.985 . S
N803 C805 1.335 1_455 S
N803 C806 1.390 . S
N804 C805 1.345 . S
N804 C807 1.336 1_655 S
C805 N803 1.335 1_655 S
C805 N804 1.345 . S
C805 H810 0.930 . S
C806 N803 1.390 . S
C806 C807 1.346 . S
C806 H811 0.930 . S
C807 N804 1.336 1_455 S
C807 C806 1.346 . S
C807 H814 0.929 . S
C808 O798 1.282 . S
C808 O809 1.216 . S
O809 C808 1.216 . S
H810 C805 0.930 . S
H811 C806 0.930 . S
O812 Cu792 1.959 1_655 S
O812 C799 1.251 . S
H813 C796 0.930 . S
H814 C807 0.929 . S
Cu815 N816 1.999 . S
Cu815 O821 1.974 . S
Cu815 N826 1.985 1_545 S
Cu815 O835 1.959 1_545 S
N816 Cu815 1.999 . S
N816 C818 1.263 . S
N816 C820 1.389 . S
N817 C818 1.358 . S
N817 C819 1.400 . S
C818 N816 1.263 . S
C818 N817 1.358 . S
C818 H824 0.930 . S
C819 N817 1.400 . S
C819 C820 1.351 . S
C819 H836 0.930 . S
C820 N816 1.389 . S
C820 C819 1.351 . S
C820 H825 0.930 . S
O821 Cu815 1.974 . S
O821 C831 1.282 . S
C822 O823 1.261 1_565 S
C822 O835 1.251 . S
O823 C822 1.261 1_545 S
H824 C818 0.930 . S
H825 C820 0.930 . S
N826 Cu815 1.985 1_565 S
N826 C828 1.335 . S
N826 C829 1.390 . S
N827 C828 1.345 . S
N827 C830 1.336 . S
C828 N826 1.335 . S
C828 N827 1.345 . S
C828 H833 0.930 . S
C829 N826 1.390 . S
C829 C830 1.346 . S
C829 H834 0.930 1_565 S
C830 N827 1.336 . S
C830 C829 1.346 . S
C830 H837 0.929 . S
C831 O821 1.282 . S
C831 O832 1.216 . S
O832 C831 1.216 . S
H833 C828 0.930 . S
H834 C829 0.930 1_545 S
O835 Cu815 1.959 1_565 S
O835 C822 1.251 . S
H836 C819 0.930 . S
H837 C830 0.929 . S
Cu838 N839 1.999 . S
Cu838 O844 1.974 . S
Cu838 N849 1.985 . S
Cu838 O858 1.959 . S
N839 Cu838 1.999 . S
N839 C841 1.260 1_455 S
N839 C843 1.389 . S
N840 C841 1.359 . S
N840 C842 1.400 1_655 S
C841 N839 1.260 1_655 S
C841 N840 1.359 . S
C841 H847 0.931 . S
C842 N840 1.400 1_455 S
C842 C843 1.351 . S
C842 H859 0.927 1_455 S
C843 N839 1.389 . S
C843 C842 1.351 . S
C843 H848 0.930 . S
O844 Cu838 1.974 . S
O844 C854 1.275 1_455 S
C845 O846 1.261 . S
C845 O858 1.251 . S
O846 C845 1.261 . S
H847 C841 0.931 . S
H848 C843 0.930 . S
N849 Cu838 1.985 . S
N849 C851 1.335 . S
N849 C852 1.390 . S
N850 C851 1.345 . S
N850 C853 1.336 . S
C851 N849 1.335 . S
C851 N850 1.345 . S
C851 H856 0.930 . S
C852 N849 1.390 . S
C852 C853 1.346 . S
C852 H857 0.930 . S
C853 N850 1.336 . S
C853 C852 1.346 . S
C853 H860 0.929 . S
C854 O844 1.275 1_655 S
C854 O855 1.209 1_655 S
O855 C854 1.209 1_455 S
H856 C851 0.930 . S
H857 C852 0.930 . S
O858 Cu838 1.959 . S
O858 C845 1.251 . S
H859 C842 0.927 1_655 S
H860 C853 0.929 . S
Cu861 N862 1.999 . S
Cu861 O867 1.974 . S
Cu861 N872 1.985 . S
Cu861 O881 1.959 . S
N862 Cu861 1.999 . S
N862 C864 1.263 . S
N862 C866 1.389 . S
N863 C864 1.358 . S
N863 C865 1.400 . S
C864 N862 1.263 . S
C864 N863 1.358 . S
C864 H870 0.930 . S
C865 N863 1.400 . S
C865 C866 1.351 . S
C865 H882 0.930 . S
C866 N862 1.389 . S
C866 C865 1.351 . S
C866 H871 0.930 . S
O867 Cu861 1.974 . S
O867 C877 1.282 . S
C868 O869 1.261 . S
C868 O881 1.251 . S
O869 C868 1.261 . S
H870 C864 0.930 . S
H871 C866 0.930 . S
N872 Cu861 1.985 . S
N872 C874 1.335 1_545 S
N872 C875 1.393 1_545 S
N873 C874 1.345 . S
N873 C876 1.336 . S
C874 N872 1.335 1_565 S
C874 N873 1.345 . S
C874 H879 0.930 . S
C875 N872 1.393 1_565 S
C875 C876 1.359 . S
C875 H880 0.917 1_565 S
C876 N873 1.336 . S
C876 C875 1.359 . S
C876 H883 0.929 . S
C877 O867 1.282 . S
C877 O878 1.216 . S
O878 C877 1.216 . S
H879 C874 0.930 . S
H880 C875 0.917 1_545 S
O881 Cu861 1.959 . S
O881 C868 1.251 . S
H882 C865 0.930 . S
H883 C876 0.929 . S
Cu884 N885 1.999 . S
Cu884 O890 1.974 . S
Cu884 N895 1.985 . S
Cu884 O904 1.959 . S
N885 Cu884 1.999 . S
N885 C887 1.263 . S
N885 C889 1.389 . S
N886 C887 1.358 . S
N886 C888 1.400 . S
C887 N885 1.263 . S
C887 N886 1.358 . S
C887 H893 0.930 . S
C888 N886 1.400 . S
C888 C889 1.351 . S
C888 H905 0.930 . S
C889 N885 1.389 . S
C889 C888 1.351 . S
C889 H894 0.930 . S
O890 Cu884 1.974 . S
O890 C900 1.282 . S
C891 O892 1.261 . S
C891 O904 1.251 . S
O892 C891 1.261 . S
H893 C887 0.930 . S
H894 C889 0.930 . S
N895 Cu884 1.985 . S
N895 C897 1.335 . S
N895 C898 1.390 . S
N896 C897 1.345 . S
N896 C899 1.336 . S
C897 N895 1.335 . S
C897 N896 1.345 . S
C897 H902 0.930 . S
C898 N895 1.390 . S
C898 C899 1.346 . S
C898 H903 0.930 . S
C899 N896 1.336 . S
C899 C898 1.346 . S
C899 H906 0.929 . S
C900 O890 1.282 . S
C900 O901 1.216 . S
O901 C900 1.216 . S
H902 C897 0.930 . S
H903 C898 0.930 . S
O904 Cu884 1.959 . S
O904 C891 1.251 . S
H905 C888 0.930 . S
H906 C899 0.929 . S
Cu907 N908 1.999 . S
Cu907 O913 1.974 . S
Cu907 N918 1.985 . S
Cu907 O927 1.959 . S
N908 Cu907 1.999 . S
N908 C910 1.263 . S
N908 C912 1.389 . S
N909 C910 1.358 . S
N909 C911 1.400 . S
C910 N908 1.263 . S
C910 N909 1.358 . S
C910 H916 0.930 . S
C911 N909 1.400 . S
C911 C912 1.351 . S
C911 H928 0.930 . S
C912 N908 1.389 . S
C912 C911 1.351 . S
C912 H917 0.930 . S
O913 Cu907 1.974 . S
O913 C923 1.282 . S
C914 O915 1.261 . S
C914 O927 1.251 . S
O915 C914 1.261 . S
H916 C910 0.930 . S
H917 C912 0.930 . S
N918 Cu907 1.985 . S
N918 C920 1.335 . S
N918 C921 1.390 . S
N919 C920 1.345 . S
N919 C922 1.336 . S
C920 N918 1.335 . S
C920 N919 1.345 . S
C920 H925 0.930 . S
C921 N918 1.390 . S
C921 C922 1.346 . S
C921 H926 0.930 . S
C922 N919 1.336 . S
C922 C921 1.346 . S
C922 H929 0.929 . S
C923 O913 1.282 . S
C923 O924 1.216 . S
O924 C923 1.216 . S
H925 C920 0.930 . S
H926 C921 0.930 . S
O927 Cu907 1.959 . S
O927 C914 1.251 . S
H928 C911 0.930 . S
H929 C922 0.929 . S
Cu930 N931 1.999 . S
Cu930 O936 1.974 . S
Cu930 N941 1.985 . S
Cu930 O950 1.959 . S
N931 Cu930 1.999 . S
N931 C933 1.263 . S
N931 C935 1.389 . S
N932 C933 1.358 . S
N932 C934 1.400 . S
C933 N931 1.263 . S
C933 N932 1.358 . S
C933 H939 0.930 . S
C934 N932 1.400 . S
C934 C935 1.351 . S
C934 H951 0.930 . S
C935 N931 1.389 . S
C935 C934 1.351 . S
C935 H940 0.930 . S
O936 Cu930 1.974 . S
O936 C946 1.282 . S
C937 O938 1.261 . S
C937 O950 1.251 . S
O938 C937 1.261 . S
H939 C933 0.930 . S
H940 C935 0.930 . S
N941 Cu930 1.985 . S
N941 C943 1.335 . S
N941 C944 1.390 . S
N942 C943 1.345 . S
N942 C945 1.336 . S
C943 N941 1.335 . S
C943 N942 1.345 . S
C943 H948 0.930 . S
C944 N941 1.390 . S
C944 C945 1.346 . S
C944 H949 0.930 . S
C945 N942 1.336 . S
C945 C944 1.346 . S
C945 H952 0.929 . S
C946 O936 1.282 . S
C946 O947 1.216 . S
O947 C946 1.216 . S
H948 C943 0.930 . S
H949 C944 0.930 . S
O950 Cu930 1.959 . S
O950 C937 1.251 . S
H951 C934 0.930 . S
H952 C945 0.929 . S
Cu953 N954 1.999 . S
Cu953 O959 1.974 . S
Cu953 N964 1.985 . S
Cu953 O973 1.959 . S
N954 Cu953 1.999 . S
N954 C956 1.263 . S
N954 C958 1.389 . S
N955 C956 1.358 . S
N955 C957 1.400 . S
C956 N954 1.263 . S
C956 N955 1.358 . S
C956 H962 0.930 . S
C957 N955 1.400 . S
C957 C958 1.351 . S
C957 H974 0.930 . S
C958 N954 1.389 . S
C958 C957 1.351 . S
C958 H963 0.930 . S
O959 Cu953 1.974 . S
O959 C969 1.282 . S
C960 O961 1.261 . S
C960 O973 1.251 . S
O961 C960 1.261 . S
H962 C956 0.930 . S
H963 C958 0.930 . S
N964 Cu953 1.985 . S
N964 C966 1.335 . S
N964 C967 1.390 . S
N965 C966 1.345 . S
N965 C968 1.336 . S
C966 N964 1.335 . S
C966 N965 1.345 . S
C966 H971 0.930 . S
C967 N964 1.390 . S
C967 C968 1.346 . S
C967 H972 0.930 . S
C968 N965 1.336 . S
C968 C967 1.346 . S
C968 H975 0.929 . S
C969 O959 1.282 . S
C969 O970 1.216 . S
O970 C969 1.216 . S
H971 C966 0.930 . S
H972 C967 0.930 . S
O973 Cu953 1.959 . S
O973 C960 1.251 . S
H974 C957 0.930 . S
H975 C968 0.929 . S
Cu976 N977 1.999 . S
Cu976 O982 1.974 . S
Cu976 N987 1.985 . S
Cu976 O996 1.959 . S
N977 Cu976 1.999 . S
N977 C979 1.263 . S
N977 C981 1.389 . S
N978 C979 1.358 . S
N978 C980 1.400 . S
C979 N977 1.263 . S
C979 N978 1.358 . S
C979 H985 0.930 . S
C980 N978 1.400 . S
C980 C981 1.351 . S
C980 H997 0.930 . S
C981 N977 1.389 . S
C981 C980 1.351 . S
C981 H986 0.930 . S
O982 Cu976 1.974 . S
O982 C992 1.282 . S
C983 O984 1.261 . S
C983 O996 1.251 . S
O984 C983 1.261 . S
H985 C979 0.930 . S
H986 C981 0.930 . S
N987 Cu976 1.985 . S
N987 C989 1.335 . S
N987 C990 1.390 . S
N988 C989 1.345 . S
N988 C991 1.336 . S
C989 N987 1.335 . S
C989 N988 1.345 . S
C989 H994 0.930 . S
C990 N987 1.390 . S
C990 C991 1.346 . S
C990 H995 0.930 . S
C991 N988 1.336 . S
C991 C990 1.346 . S
C991 H998 0.929 . S
C992 O982 1.282 . S
C992 O993 1.216 . S
O993 C992 1.216 . S
H994 C989 0.930 . S
H995 C990 0.930 . S
O996 Cu976 1.959 . S
O996 C983 1.251 . S
H997 C980 0.930 . S
H998 C991 0.929 . S
Cu999 N1000 1.999 . S
Cu999 O1005 1.974 . S
Cu999 N1010 1.985 . S
Cu999 O1019 1.959 . S
N1000 Cu999 1.999 . S
N1000 C1002 1.263 . S
N1000 C1004 1.389 . S
N1001 C1002 1.358 . S
N1001 C1003 1.400 . S
C1002 N1000 1.263 . S
C1002 N1001 1.358 . S
C1002 H1008 0.930 . S
C1003 N1001 1.400 . S
C1003 C1004 1.351 . S
C1003 H1020 0.930 . S
C1004 N1000 1.389 . S
C1004 C1003 1.351 . S
C1004 H1009 0.930 . S
O1005 Cu999 1.974 . S
O1005 C1015 1.282 . S
C1006 O1007 1.261 . S
C1006 O1019 1.251 . S
O1007 C1006 1.261 . S
H1008 C1002 0.930 . S
H1009 C1004 0.930 . S
N1010 Cu999 1.985 . S
N1010 C1012 1.335 . S
N1010 C1013 1.390 . S
N1011 C1012 1.345 . S
N1011 C1014 1.336 . S
C1012 N1010 1.335 . S
C1012 N1011 1.345 . S
C1012 H1017 0.930 . S
C1013 N1010 1.390 . S
C1013 C1014 1.346 . S
C1013 H1018 0.930 . S
C1014 N1011 1.336 . S
C1014 C1013 1.346 . S
C1014 H1021 0.929 . S
C1015 O1005 1.282 . S
C1015 O1016 1.216 . S
O1016 C1015 1.216 . S
H1017 C1012 0.930 . S
H1018 C1013 0.930 . S
O1019 Cu999 1.959 . S
O1019 C1006 1.251 . S
H1020 C1003 0.930 . S
H1021 C1014 0.929 . S
Cu1022 N1023 1.999 . S
Cu1022 O1028 1.974 . S
Cu1022 N1033 1.985 . S
Cu1022 O1042 1.959 . S
N1023 Cu1022 1.999 . S
N1023 C1025 1.263 . S
N1023 C1027 1.389 . S
N1024 C1025 1.358 . S
N1024 C1026 1.400 . S
C1025 N1023 1.263 . S
C1025 N1024 1.358 . S
C1025 H1031 0.930 . S
C1026 N1024 1.400 . S
C1026 C1027 1.351 . S
C1026 H1043 0.930 . S
C1027 N1023 1.389 . S
C1027 C1026 1.351 . S
C1027 H1032 0.930 . S
O1028 Cu1022 1.974 . S
O1028 C1038 1.282 . S
C1029 O1030 1.261 . S
C1029 O1042 1.251 . S
O1030 C1029 1.261 . S
H1031 C1025 0.930 . S
H1032 C1027 0.930 . S
N1033 Cu1022 1.985 . S
N1033 C1035 1.335 . S
N1033 C1036 1.390 . S
N1034 C1035 1.345 . S
N1034 C1037 1.336 . S
C1035 N1033 1.335 . S
C1035 N1034 1.345 . S
C1035 H1040 0.930 . S
C1036 N1033 1.390 . S
C1036 C1037 1.346 . S
C1036 H1041 0.930 . S
C1037 N1034 1.336 . S
C1037 C1036 1.346 . S
C1037 H1044 0.929 . S
C1038 O1028 1.282 . S
C1038 O1039 1.216 . S
O1039 C1038 1.216 . S
H1040 C1035 0.930 . S
H1041 C1036 0.930 . S
O1042 Cu1022 1.959 . S
O1042 C1029 1.251 . S
H1043 C1026 0.930 . S
H1044 C1037 0.929 . S
Cu1045 N1046 1.999 . S
Cu1045 O1051 1.974 . S
Cu1045 N1056 1.985 . S
Cu1045 O1065 1.959 . S
N1046 Cu1045 1.999 . S
N1046 C1048 1.263 . S
N1046 C1050 1.389 . S
N1047 C1048 1.358 . S
N1047 C1049 1.400 . S
C1048 N1046 1.263 . S
C1048 N1047 1.358 . S
C1048 H1054 0.930 . S
C1049 N1047 1.400 . S
C1049 C1050 1.351 . S
C1049 H1066 0.930 . S
C1050 N1046 1.389 . S
C1050 C1049 1.351 . S
C1050 H1055 0.930 . S
O1051 Cu1045 1.974 . S
O1051 C1061 1.282 . S
C1052 O1053 1.261 . S
C1052 O1065 1.251 . S
O1053 C1052 1.261 . S
H1054 C1048 0.930 . S
H1055 C1050 0.930 . S
N1056 Cu1045 1.985 . S
N1056 C1058 1.335 . S
N1056 C1059 1.390 . S
N1057 C1058 1.345 . S
N1057 C1060 1.336 . S
C1058 N1056 1.335 . S
C1058 N1057 1.345 . S
C1058 H1063 0.930 . S
C1059 N1056 1.390 . S
C1059 C1060 1.346 . S
C1059 H1064 0.930 . S
C1060 N1057 1.336 . S
C1060 C1059 1.346 . S
C1060 H1067 0.929 . S
C1061 O1051 1.282 . S
C1061 O1062 1.216 . S
O1062 C1061 1.216 . S
H1063 C1058 0.930 . S
H1064 C1059 0.930 . S
O1065 Cu1045 1.959 . S
O1065 C1052 1.251 . S
H1066 C1049 0.930 . S
H1067 C1060 0.929 . S
Cu1068 N1069 1.999 . S
Cu1068 O1074 1.974 . S
Cu1068 N1079 1.985 . S
Cu1068 O1088 1.959 . S
N1069 Cu1068 1.999 . S
N1069 C1071 1.263 . S
N1069 C1073 1.389 . S
N1070 C1071 1.358 . S
N1070 C1072 1.400 . S
C1071 N1069 1.263 . S
C1071 N1070 1.358 . S
C1071 H1077 0.930 . S
C1072 N1070 1.400 . S
C1072 C1073 1.351 . S
C1072 H1089 0.930 . S
C1073 N1069 1.389 . S
C1073 C1072 1.351 . S
C1073 H1078 0.930 . S
O1074 Cu1068 1.974 . S
O1074 C1084 1.282 . S
C1075 O1076 1.261 . S
C1075 O1088 1.251 . S
O1076 C1075 1.261 . S
H1077 C1071 0.930 . S
H1078 C1073 0.930 . S
N1079 Cu1068 1.985 . S
N1079 C1081 1.335 . S
N1079 C1082 1.390 . S
N1080 C1081 1.345 . S
N1080 C1083 1.336 . S
C1081 N1079 1.335 . S
C1081 N1080 1.345 . S
C1081 H1086 0.930 . S
C1082 N1079 1.390 . S
C1082 C1083 1.346 . S
C1082 H1087 0.930 . S
C1083 N1080 1.336 . S
C1083 C1082 1.346 . S
C1083 H1090 0.929 . S
C1084 O1074 1.282 . S
C1084 O1085 1.216 . S
O1085 C1084 1.216 . S
H1086 C1081 0.930 . S
H1087 C1082 0.930 . S
O1088 Cu1068 1.959 . S
O1088 C1075 1.251 . S
H1089 C1072 0.930 . S
H1090 C1083 0.929 . S
Cu1091 N1092 1.999 . S
Cu1091 O1097 1.974 . S
Cu1091 N1102 1.985 . S
Cu1091 O1111 1.959 . S
N1092 Cu1091 1.999 . S
N1092 C1094 1.263 . S
N1092 C1096 1.389 . S
N1093 C1094 1.358 . S
N1093 C1095 1.400 . S
C1094 N1092 1.263 . S
C1094 N1093 1.358 . S
C1094 H1100 0.930 . S
C1095 N1093 1.400 . S
C1095 C1096 1.351 . S
C1095 H1112 0.930 . S
C1096 N1092 1.389 . S
C1096 C1095 1.351 . S
C1096 H1101 0.930 . S
O1097 Cu1091 1.974 . S
O1097 C1107 1.282 . S
C1098 O1099 1.261 . S
C1098 O1111 1.251 . S
O1099 C1098 1.261 . S
H1100 C1094 0.930 . S
H1101 C1096 0.930 . S
N1102 Cu1091 1.985 . S
N1102 C1104 1.335 . S
N1102 C1105 1.390 . S
N1103 C1104 1.345 . S
N1103 C1106 1.336 . S
C1104 N1102 1.335 . S
C1104 N1103 1.345 . S
C1104 H1109 0.930 . S
C1105 N1102 1.390 . S
C1105 C1106 1.346 . S
C1105 H1110 0.930 . S
C1106 N1103 1.336 . S
C1106 C1105 1.346 . S
C1106 H1113 0.929 . S
C1107 O1097 1.282 . S
C1107 O1108 1.216 . S
O1108 C1107 1.216 . S
H1109 C1104 0.930 . S
H1110 C1105 0.930 . S
O1111 Cu1091 1.959 . S
O1111 C1098 1.251 . S
H1112 C1095 0.930 . S
H1113 C1106 0.929 . S
Cu1114 N1115 1.999 . S
Cu1114 O1120 1.974 . S
Cu1114 N1125 1.985 . S
Cu1114 O1134 1.959 . S
N1115 Cu1114 1.999 . S
N1115 C1117 1.263 . S
N1115 C1119 1.389 . S
N1116 C1117 1.358 . S
N1116 C1118 1.400 . S
C1117 N1115 1.263 . S
C1117 N1116 1.358 . S
C1117 H1123 0.930 . S
C1118 N1116 1.400 . S
C1118 C1119 1.351 . S
C1118 H1135 0.930 . S
C1119 N1115 1.389 . S
C1119 C1118 1.351 . S
C1119 H1124 0.930 . S
O1120 Cu1114 1.974 . S
O1120 C1130 1.282 . S
C1121 O1122 1.261 . S
C1121 O1134 1.251 . S
O1122 C1121 1.261 . S
H1123 C1117 0.930 . S
H1124 C1119 0.930 . S
N1125 Cu1114 1.985 . S
N1125 C1127 1.335 . S
N1125 C1128 1.390 . S
N1126 C1127 1.345 . S
N1126 C1129 1.336 . S
C1127 N1125 1.335 . S
C1127 N1126 1.345 . S
C1127 H1132 0.930 . S
C1128 N1125 1.390 . S
C1128 C1129 1.346 . S
C1128 H1133 0.930 . S
C1129 N1126 1.336 . S
C1129 C1128 1.346 . S
C1129 H1136 0.929 . S
C1130 O1120 1.282 . S
C1130 O1131 1.216 . S
O1131 C1130 1.216 . S
H1132 C1127 0.930 . S
H1133 C1128 0.930 . S
O1134 Cu1114 1.959 . S
O1134 C1121 1.251 . S
H1135 C1118 0.930 . S
H1136 C1129 0.929 . S
Cu1137 N1138 1.999 . S
Cu1137 O1143 1.974 . S
Cu1137 N1148 1.985 . S
Cu1137 O1157 1.959 . S
N1138 Cu1137 1.999 . S
N1138 C1140 1.263 . S
N1138 C1142 1.389 . S
N1139 C1140 1.358 . S
N1139 C1141 1.400 . S
C1140 N1138 1.263 . S
C1140 N1139 1.358 . S
C1140 H1146 0.930 . S
C1141 N1139 1.400 . S
C1141 C1142 1.351 . S
C1141 H1158 0.930 . S
C1142 N1138 1.389 . S
C1142 C1141 1.351 . S
C1142 H1147 0.930 . S
O1143 Cu1137 1.974 . S
O1143 C1153 1.282 . S
C1144 O1145 1.261 . S
C1144 O1157 1.251 . S
O1145 C1144 1.261 . S
H1146 C1140 0.930 . S
H1147 C1142 0.930 . S
N1148 Cu1137 1.985 . S
N1148 C1150 1.335 . S
N1148 C1151 1.390 . S
N1149 C1150 1.345 . S
N1149 C1152 1.336 . S
C1150 N1148 1.335 . S
C1150 N1149 1.345 . S
C1150 H1155 0.930 . S
C1151 N1148 1.390 . S
C1151 C1152 1.346 . S
C1151 H1156 0.930 . S
C1152 N1149 1.336 . S
C1152 C1151 1.346 . S
C1152 H1159 0.929 . S
C1153 O1143 1.282 . S
C1153 O1154 1.216 . S
O1154 C1153 1.216 . S
H1155 C1150 0.930 . S
H1156 C1151 0.930 . S
O1157 Cu1137 1.959 . S
O1157 C1144 1.251 . S
H1158 C1141 0.930 . S
H1159 C1152 0.929 . S
C1160 C1161 1.369 . S
C1160 C1162 1.419 . S
C1160 H1164 0.930 . S
C1161 C1160 1.369 . S
C1161 C1170 1.429 . S
C1162 C1160 1.419 . S
C1162 C1163 1.363 . S
C1162 H1165 0.929 . S
C1163 C1162 1.363 . S
C1163 C1169 1.428 . S
H1164 C1160 0.930 . S
H1165 C1162 0.929 . S
S1166 N1167 1.613 . S
S1166 N1168 1.610 . S
N1167 S1166 1.613 . S
N1167 C1170 1.350 . S
N1168 S1166 1.610 . S
N1168 C1169 1.351 . S
C1169 C1163 1.428 . S
C1169 N1168 1.351 . S
C1169 C1170 1.434 . S
C1170 C1161 1.429 . S
C1170 N1167 1.350 . S
C1170 C1169 1.434 . S
C1171 C1172 1.369 . S
C1171 C1173 1.419 . S
C1171 H1175 0.930 . S
C1172 C1171 1.369 . S
C1172 C1181 1.429 . S
C1173 C1171 1.419 . S
C1173 C1174 1.363 . S
C1173 H1176 0.929 . S
C1174 C1173 1.363 . S
C1174 C1180 1.428 . S
H1175 C1171 0.930 . S
H1176 C1173 0.929 . S
S1177 N1178 1.613 . S
S1177 N1179 1.610 . S
N1178 S1177 1.613 . S
N1178 C1181 1.350 . S
N1179 S1177 1.610 . S
N1179 C1180 1.351 . S
C1180 C1174 1.428 . S
C1180 N1179 1.351 . S
C1180 C1181 1.434 . S
C1181 C1172 1.429 . S
C1181 N1178 1.350 . S
C1181 C1180 1.434 . S
C1182 C1183 1.369 . S
C1182 C1184 1.419 . S
C1182 H1186 0.930 . S
C1183 C1182 1.369 . S
C1183 C1192 1.429 . S
C1184 C1182 1.419 . S
C1184 C1185 1.363 . S
C1184 H1187 0.929 . S
C1185 C1184 1.363 . S
C1185 C1191 1.428 . S
H1186 C1182 0.930 . S
H1187 C1184 0.929 . S
S1188 N1189 1.613 . S
S1188 N1190 1.610 . S
N1189 S1188 1.613 . S
N1189 C1192 1.350 . S
N1190 S1188 1.610 . S
N1190 C1191 1.351 . S
C1191 C1185 1.428 . S
C1191 N1190 1.351 . S
C1191 C1192 1.434 . S
C1192 C1183 1.429 . S
C1192 N1189 1.350 . S
C1192 C1191 1.434 . S
C1193 C1194 1.369 . S
C1193 C1195 1.419 . S
C1193 H1197 0.930 . S
C1194 C1193 1.369 . S
C1194 C1203 1.429 . S
C1195 C1193 1.419 . S
C1195 C1196 1.363 . S
C1195 H1198 0.929 . S
C1196 C1195 1.363 . S
C1196 C1202 1.428 . S
H1197 C1193 0.930 . S
H1198 C1195 0.929 . S
S1199 N1200 1.613 . S
S1199 N1201 1.610 . S
N1200 S1199 1.613 . S
N1200 C1203 1.350 . S
N1201 S1199 1.610 . S
N1201 C1202 1.351 . S
C1202 C1196 1.428 . S
C1202 N1201 1.351 . S
C1202 C1203 1.434 . S
C1203 C1194 1.429 . S
C1203 N1200 1.350 . S
C1203 C1202 1.434 . S
C1204 C1205 1.369 . S
C1204 C1206 1.419 . S
C1204 H1208 0.930 . S
C1205 C1204 1.369 . S
C1205 C1214 1.429 . S
C1206 C1204 1.419 . S
C1206 C1207 1.363 . S
C1206 H1209 0.929 . S
C1207 C1206 1.363 . S
C1207 C1213 1.428 . S
H1208 C1204 0.930 . S
H1209 C1206 0.929 . S
S1210 N1211 1.613 . S
S1210 N1212 1.610 . S
N1211 S1210 1.613 . S
N1211 C1214 1.350 . S
N1212 S1210 1.610 . S
N1212 C1213 1.351 . S
C1213 C1207 1.428 . S
C1213 N1212 1.351 . S
C1213 C1214 1.434 . S
C1214 C1205 1.429 . S
C1214 N1211 1.350 . S
C1214 C1213 1.434 . S
C1215 C1216 1.369 . S
C1215 C1217 1.419 . S
C1215 H1219 0.930 . S
C1216 C1215 1.369 . S
C1216 C1225 1.429 . S
C1217 C1215 1.419 . S
C1217 C1218 1.363 . S
C1217 H1220 0.929 . S
C1218 C1217 1.363 . S
C1218 C1224 1.428 . S
H1219 C1215 0.930 . S
H1220 C1217 0.929 . S
S1221 N1222 1.613 . S
S1221 N1223 1.610 . S
N1222 S1221 1.613 . S
N1222 C1225 1.350 . S
N1223 S1221 1.610 . S
N1223 C1224 1.351 . S
C1224 C1218 1.428 . S
C1224 N1223 1.351 . S
C1224 C1225 1.434 . S
C1225 C1216 1.429 . S
C1225 N1222 1.350 . S
C1225 C1224 1.434 . S
C1226 C1227 1.369 . S
C1226 C1228 1.419 . S
C1226 H1230 0.930 . S
C1227 C1226 1.369 . S
C1227 C1236 1.429 . S
C1228 C1226 1.419 . S
C1228 C1229 1.363 . S
C1228 H1231 0.929 . S
C1229 C1228 1.363 . S
C1229 C1235 1.428 . S
H1230 C1226 0.930 . S
H1231 C1228 0.929 . S
S1232 N1233 1.613 . S
S1232 N1234 1.610 . S
N1233 S1232 1.613 . S
N1233 C1236 1.350 . S
N1234 S1232 1.610 . S
N1234 C1235 1.351 . S
C1235 C1229 1.428 . S
C1235 N1234 1.351 . S
C1235 C1236 1.434 . S
C1236 C1227 1.429 . S
C1236 N1233 1.350 . S
C1236 C1235 1.434 . S
C1237 C1238 1.369 . S
C1237 C1239 1.419 . S
C1237 H1241 0.930 . S
C1238 C1237 1.369 . S
C1238 C1247 1.429 . S
C1239 C1237 1.419 . S
C1239 C1240 1.363 . S
C1239 H1242 0.929 . S
C1240 C1239 1.363 . S
C1240 C1246 1.428 . S
H1241 C1237 0.930 . S
H1242 C1239 0.929 . S
S1243 N1244 1.613 . S
S1243 N1245 1.610 . S
N1244 S1243 1.613 . S
N1244 C1247 1.350 . S
N1245 S1243 1.610 . S
N1245 C1246 1.351 . S
C1246 C1240 1.428 . S
C1246 N1245 1.351 . S
C1246 C1247 1.434 . S
C1247 C1238 1.429 . S
C1247 N1244 1.350 . S
C1247 C1246 1.434 . S
C1248 C1249 1.369 . S
C1248 C1250 1.419 . S
C1248 H1252 0.930 . S
C1249 C1248 1.369 . S
C1249 C1258 1.429 . S
C1250 C1248 1.419 . S
C1250 C1251 1.363 . S
C1250 H1253 0.929 . S
C1251 C1250 1.363 . S
C1251 C1257 1.428 . S
H1252 C1248 0.930 . S
H1253 C1250 0.929 . S
S1254 N1255 1.613 . S
S1254 N1256 1.610 . S
N1255 S1254 1.613 . S
N1255 C1258 1.350 . S
N1256 S1254 1.610 . S
N1256 C1257 1.351 . S
C1257 C1251 1.428 . S
C1257 N1256 1.351 . S
C1257 C1258 1.434 . S
C1258 C1249 1.429 . S
C1258 N1255 1.350 . S
C1258 C1257 1.434 . S
C1259 C1260 1.369 . S
C1259 C1261 1.419 . S
C1259 H1263 0.930 . S
C1260 C1259 1.369 . S
C1260 C1269 1.429 . S
C1261 C1259 1.419 . S
C1261 C1262 1.363 . S
C1261 H1264 0.929 . S
C1262 C1261 1.363 . S
C1262 C1268 1.428 . S
H1263 C1259 0.930 . S
H1264 C1261 0.929 . S
S1265 N1266 1.613 . S
S1265 N1267 1.610 . S
N1266 S1265 1.613 . S
N1266 C1269 1.350 . S
N1267 S1265 1.610 . S
N1267 C1268 1.351 . S
C1268 C1262 1.428 . S
C1268 N1267 1.351 . S
C1268 C1269 1.434 . S
C1269 C1260 1.429 . S
C1269 N1266 1.350 . S
C1269 C1268 1.434 . S
C1270 C1271 1.369 . S
C1270 C1272 1.419 . S
C1270 H1274 0.930 . S
C1271 C1270 1.369 . S
C1271 C1280 1.429 . S
C1272 C1270 1.419 . S
C1272 C1273 1.363 . S
C1272 H1275 0.929 . S
C1273 C1272 1.363 . S
C1273 C1279 1.428 . S
H1274 C1270 0.930 . S
H1275 C1272 0.929 . S
S1276 N1277 1.613 . S
S1276 N1278 1.610 . S
N1277 S1276 1.613 . S
N1277 C1280 1.350 . S
N1278 S1276 1.610 . S
N1278 C1279 1.351 . S
C1279 C1273 1.428 . S
C1279 N1278 1.351 . S
C1279 C1280 1.434 . S
C1280 C1271 1.429 . S
C1280 N1277 1.350 . S
C1280 C1279 1.434 . S
C1281 C1282 1.369 . S
C1281 C1283 1.419 . S
C1281 H1285 0.930 . S
C1282 C1281 1.369 . S
C1282 C1291 1.429 . S
C1283 C1281 1.419 . S
C1283 C1284 1.363 . S
C1283 H1286 0.929 . S
C1284 C1283 1.363 . S
C1284 C1290 1.428 . S
H1285 C1281 0.930 . S
H1286 C1283 0.929 . S
S1287 N1288 1.613 . S
S1287 N1289 1.610 . S
N1288 S1287 1.613 . S
N1288 C1291 1.350 . S
N1289 S1287 1.610 . S
N1289 C1290 1.351 . S
C1290 C1284 1.428 . S
C1290 N1289 1.351 . S
C1290 C1291 1.434 . S
C1291 C1282 1.429 . S
C1291 N1288 1.350 . S
C1291 C1290 1.434 . S
C1292 C1293 1.369 . S
C1292 C1294 1.419 . S
C1292 H1296 0.930 . S
C1293 C1292 1.369 . S
C1293 C1302 1.429 . S
C1294 C1292 1.419 . S
C1294 C1295 1.363 . S
C1294 H1297 0.929 . S
C1295 C1294 1.363 . S
C1295 C1301 1.428 . S
H1296 C1292 0.930 . S
H1297 C1294 0.929 . S
S1298 N1299 1.613 . S
S1298 N1300 1.610 . S
N1299 S1298 1.613 . S
N1299 C1302 1.350 . S
N1300 S1298 1.610 . S
N1300 C1301 1.351 . S
C1301 C1295 1.428 . S
C1301 N1300 1.351 . S
C1301 C1302 1.434 . S
C1302 C1293 1.429 . S
C1302 N1299 1.350 . S
C1302 C1301 1.434 . S
C1303 C1304 1.369 . S
C1303 C1305 1.419 . S
C1303 H1307 0.930 . S
C1304 C1303 1.369 . S
C1304 C1313 1.429 . S
C1305 C1303 1.419 . S
C1305 C1306 1.363 . S
C1305 H1308 0.929 . S
C1306 C1305 1.363 . S
C1306 C1312 1.428 . S
H1307 C1303 0.930 . S
H1308 C1305 0.929 . S
S1309 N1310 1.613 . S
S1309 N1311 1.610 . S
N1310 S1309 1.613 . S
N1310 C1313 1.350 . S
N1311 S1309 1.610 . S
N1311 C1312 1.351 . S
C1312 C1306 1.428 . S
C1312 N1311 1.351 . S
C1312 C1313 1.434 . S
C1313 C1304 1.429 . S
C1313 N1310 1.350 . S
C1313 C1312 1.434 . S
C1314 C1315 1.369 . S
C1314 C1316 1.419 . S
C1314 H1318 0.930 . S
C1315 C1314 1.369 . S
C1315 C1324 1.429 . S
C1316 C1314 1.419 . S
C1316 C1317 1.363 . S
C1316 H1319 0.929 . S
C1317 C1316 1.363 . S
C1317 C1323 1.428 . S
H1318 C1314 0.930 . S
H1319 C1316 0.929 . S
S1320 N1321 1.613 . S
S1320 N1322 1.610 . S
N1321 S1320 1.613 . S
N1321 C1324 1.350 . S
N1322 S1320 1.610 . S
N1322 C1323 1.351 . S
C1323 C1317 1.428 . S
C1323 N1322 1.351 . S
C1323 C1324 1.434 . S
C1324 C1315 1.429 . S
C1324 N1321 1.350 . S
C1324 C1323 1.434 . S
C1325 C1326 1.369 . S
C1325 C1327 1.419 . S
C1325 H1329 0.930 . S
C1326 C1325 1.369 . S
C1326 C1335 1.429 . S
C1327 C1325 1.419 . S
C1327 C1328 1.363 . S
C1327 H1330 0.929 . S
C1328 C1327 1.363 . S
C1328 C1334 1.428 . S
H1329 C1325 0.930 . S
H1330 C1327 0.929 . S
S1331 N1332 1.613 . S
S1331 N1333 1.610 . S
N1332 S1331 1.613 . S
N1332 C1335 1.350 . S
N1333 S1331 1.610 . S
N1333 C1334 1.351 . S
C1334 C1328 1.428 . S
C1334 N1333 1.351 . S
C1334 C1335 1.434 . S
C1335 C1326 1.429 . S
C1335 N1332 1.350 . S
C1335 C1334 1.434 . S
C1336 C1337 1.369 . S
C1336 C1338 1.419 . S
C1336 H1340 0.930 . S
C1337 C1336 1.369 . S
C1337 C1346 1.429 . S
C1338 C1336 1.419 . S
C1338 C1339 1.363 . S
C1338 H1341 0.929 . S
C1339 C1338 1.363 . S
C1339 C1345 1.428 . S
H1340 C1336 0.930 . S
H1341 C1338 0.929 . S
S1342 N1343 1.613 . S
S1342 N1344 1.610 . S
N1343 S1342 1.613 . S
N1343 C1346 1.350 . S
N1344 S1342 1.610 . S
N1344 C1345 1.351 . S
C1345 C1339 1.428 . S
C1345 N1344 1.351 . S
C1345 C1346 1.434 . S
C1346 C1337 1.429 . S
C1346 N1343 1.350 . S
C1346 C1345 1.434 . S
C1347 C1348 1.369 . S
C1347 C1349 1.419 . S
C1347 H1351 0.930 . S
C1348 C1347 1.369 . S
C1348 C1357 1.429 . S
C1349 C1347 1.419 . S
C1349 C1350 1.363 . S
C1349 H1352 0.929 . S
C1350 C1349 1.363 . S
C1350 C1356 1.428 . S
H1351 C1347 0.930 . S
H1352 C1349 0.929 . S
S1353 N1354 1.613 . S
S1353 N1355 1.610 . S
N1354 S1353 1.613 . S
N1354 C1357 1.350 . S
N1355 S1353 1.610 . S
N1355 C1356 1.351 . S
C1356 C1350 1.428 . S
C1356 N1355 1.351 . S
C1356 C1357 1.434 . S
C1357 C1348 1.429 . S
C1357 N1354 1.350 . S
C1357 C1356 1.434 . S
C1358 C1359 1.369 . S
C1358 C1360 1.419 . S
C1358 H1362 0.930 . S
C1359 C1358 1.369 . S
C1359 C1368 1.429 . S
C1360 C1358 1.419 . S
C1360 C1361 1.363 . S
C1360 H1363 0.929 . S
C1361 C1360 1.363 . S
C1361 C1367 1.428 . S
H1362 C1358 0.930 . S
H1363 C1360 0.929 . S
S1364 N1365 1.613 . S
S1364 N1366 1.610 . S
N1365 S1364 1.613 . S
N1365 C1368 1.350 . S
N1366 S1364 1.610 . S
N1366 C1367 1.351 . S
C1367 C1361 1.428 . S
C1367 N1366 1.351 . S
C1367 C1368 1.434 . S
C1368 C1359 1.429 . S
C1368 N1365 1.350 . S
C1368 C1367 1.434 . S
C1369 C1370 1.369 . S
C1369 C1371 1.419 . S
C1369 H1373 0.930 . S
C1370 C1369 1.369 . S
C1370 C1379 1.429 . S
C1371 C1369 1.419 . S
C1371 C1372 1.363 . S
C1371 H1374 0.929 . S
C1372 C1371 1.363 . S
C1372 C1378 1.428 . S
H1373 C1369 0.930 . S
H1374 C1371 0.929 . S
S1375 N1376 1.613 . S
S1375 N1377 1.610 . S
N1376 S1375 1.613 . S
N1376 C1379 1.350 . S
N1377 S1375 1.610 . S
N1377 C1378 1.351 . S
C1378 C1372 1.428 . S
C1378 N1377 1.351 . S
C1378 C1379 1.434 . S
C1379 C1370 1.429 . S
C1379 N1376 1.350 . S
C1379 C1378 1.434 . S
C1380 C1381 1.369 . S
C1380 C1382 1.419 . S
C1380 H1384 0.930 . S
C1381 C1380 1.369 . S
C1381 C1390 1.429 . S
C1382 C1380 1.419 . S
C1382 C1383 1.363 . S
C1382 H1385 0.929 . S
C1383 C1382 1.363 . S
C1383 C1389 1.428 . S
H1384 C1380 0.930 . S
H1385 C1382 0.929 . S
S1386 N1387 1.613 . S
S1386 N1388 1.610 . S
N1387 S1386 1.613 . S
N1387 C1390 1.350 . S
N1388 S1386 1.610 . S
N1388 C1389 1.351 . S
C1389 C1383 1.428 . S
C1389 N1388 1.351 . S
C1389 C1390 1.434 . S
C1390 C1381 1.429 . S
C1390 N1387 1.350 . S
C1390 C1389 1.434 . S
C1391 C1392 1.369 . S
C1391 C1393 1.419 . S
C1391 H1395 0.930 . S
C1392 C1391 1.369 . S
C1392 C1401 1.429 . S
C1393 C1391 1.419 . S
C1393 C1394 1.363 . S
C1393 H1396 0.929 . S
C1394 C1393 1.363 . S
C1394 C1400 1.428 . S
H1395 C1391 0.930 . S
H1396 C1393 0.929 . S
S1397 N1398 1.613 . S
S1397 N1399 1.610 . S
N1398 S1397 1.613 . S
N1398 C1401 1.350 . S
N1399 S1397 1.610 . S
N1399 C1400 1.351 . S
C1400 C1394 1.428 . S
C1400 N1399 1.351 . S
C1400 C1401 1.434 . S
C1401 C1392 1.429 . S
C1401 N1398 1.350 . S
C1401 C1400 1.434 . S
C1402 C1403 1.369 . S
C1402 C1404 1.419 . S
C1402 H1406 0.930 . S
C1403 C1402 1.369 . S
C1403 C1412 1.429 . S
C1404 C1402 1.419 . S
C1404 C1405 1.363 . S
C1404 H1407 0.929 . S
C1405 C1404 1.363 . S
C1405 C1411 1.428 . S
H1406 C1402 0.930 . S
H1407 C1404 0.929 . S
S1408 N1409 1.613 . S
S1408 N1410 1.610 . S
N1409 S1408 1.613 . S
N1409 C1412 1.350 . S
N1410 S1408 1.610 . S
N1410 C1411 1.351 . S
C1411 C1405 1.428 . S
C1411 N1410 1.351 . S
C1411 C1412 1.434 . S
C1412 C1403 1.429 . S
C1412 N1409 1.350 . S
C1412 C1411 1.434 . S
C1413 C1414 1.369 . S
C1413 C1415 1.419 . S
C1413 H1417 0.930 . S
C1414 C1413 1.369 . S
C1414 C1423 1.429 . S
C1415 C1413 1.419 . S
C1415 C1416 1.363 . S
C1415 H1418 0.929 . S
C1416 C1415 1.363 . S
C1416 C1422 1.428 . S
H1417 C1413 0.930 . S
H1418 C1415 0.929 . S
S1419 N1420 1.613 . S
S1419 N1421 1.610 . S
N1420 S1419 1.613 . S
N1420 C1423 1.350 . S
N1421 S1419 1.610 . S
N1421 C1422 1.351 . S
C1422 C1416 1.428 . S
C1422 N1421 1.351 . S
C1422 C1423 1.434 . S
C1423 C1414 1.429 . S
C1423 N1420 1.350 . S
C1423 C1422 1.434 . S
C1424 C1425 1.369 . S
C1424 C1426 1.419 . S
C1424 H1428 0.930 . S
C1425 C1424 1.369 . S
C1425 C1434 1.429 . S
C1426 C1424 1.419 . S
C1426 C1427 1.363 . S
C1426 H1429 0.929 . S
C1427 C1426 1.363 . S
C1427 C1433 1.428 . S
H1428 C1424 0.930 . S
H1429 C1426 0.929 . S
S1430 N1431 1.613 . S
S1430 N1432 1.610 . S
N1431 S1430 1.613 . S
N1431 C1434 1.350 . S
N1432 S1430 1.610 . S
N1432 C1433 1.351 . S
C1433 C1427 1.428 . S
C1433 N1432 1.351 . S
C1433 C1434 1.434 . S
C1434 C1425 1.429 . S
C1434 N1431 1.350 . S
C1434 C1433 1.434 . S
C1435 C1436 1.369 . S
C1435 C1437 1.419 . S
C1435 H1439 0.930 . S
C1436 C1435 1.369 . S
C1436 C1445 1.429 . S
C1437 C1435 1.419 . S
C1437 C1438 1.363 . S
C1437 H1440 0.929 . S
C1438 C1437 1.363 . S
C1438 C1444 1.428 . S
H1439 C1435 0.930 . S
H1440 C1437 0.929 . S
S1441 N1442 1.613 . S
S1441 N1443 1.610 . S
N1442 S1441 1.613 . S
N1442 C1445 1.350 . S
N1443 S1441 1.610 . S
N1443 C1444 1.351 . S
C1444 C1438 1.428 . S
C1444 N1443 1.351 . S
C1444 C1445 1.434 . S
C1445 C1436 1.429 . S
C1445 N1442 1.350 . S
C1445 C1444 1.434 . S
C1446 C1447 1.369 . S
C1446 C1448 1.419 . S
C1446 H1450 0.930 . S
C1447 C1446 1.369 . S
C1447 C1456 1.429 . S
C1448 C1446 1.419 . S
C1448 C1449 1.363 . S
C1448 H1451 0.929 . S
C1449 C1448 1.363 . S
C1449 C1455 1.428 . S
H1450 C1446 0.930 . S
H1451 C1448 0.929 . S
S1452 N1453 1.613 . S
S1452 N1454 1.610 . S
N1453 S1452 1.613 . S
N1453 C1456 1.350 . S
N1454 S1452 1.610 . S
N1454 C1455 1.351 . S
C1455 C1449 1.428 . S
C1455 N1454 1.351 . S
C1455 C1456 1.434 . S
C1456 C1447 1.429 . S
C1456 N1453 1.350 . S
C1456 C1455 1.434 . S
C1457 C1458 1.369 . S
C1457 C1459 1.419 . S
C1457 H1461 0.930 . S
C1458 C1457 1.369 . S
C1458 C1467 1.429 . S
C1459 C1457 1.419 . S
C1459 C1460 1.363 . S
C1459 H1462 0.929 . S
C1460 C1459 1.363 . S
C1460 C1466 1.428 . S
H1461 C1457 0.930 . S
H1462 C1459 0.929 . S
S1463 N1464 1.613 . S
S1463 N1465 1.610 . S
N1464 S1463 1.613 . S
N1464 C1467 1.350 . S
N1465 S1463 1.610 . S
N1465 C1466 1.351 . S
C1466 C1460 1.428 . S
C1466 N1465 1.351 . S
C1466 C1467 1.434 . S
C1467 C1458 1.429 . S
C1467 N1464 1.350 . S
C1467 C1466 1.434 . S
C1468 C1469 1.369 . S
C1468 C1470 1.419 . S
C1468 H1472 0.930 . S
C1469 C1468 1.369 . S
C1469 C1478 1.429 . S
C1470 C1468 1.419 . S
C1470 C1471 1.363 . S
C1470 H1473 0.929 . S
C1471 C1470 1.363 . S
C1471 C1477 1.428 . S
H1472 C1468 0.930 . S
H1473 C1470 0.929 . S
S1474 N1475 1.613 . S
S1474 N1476 1.610 . S
N1475 S1474 1.613 . S
N1475 C1478 1.350 . S
N1476 S1474 1.610 . S
N1476 C1477 1.351 . S
C1477 C1471 1.428 . S
C1477 N1476 1.351 . S
C1477 C1478 1.434 . S
C1478 C1469 1.429 . S
C1478 N1475 1.350 . S
C1478 C1477 1.434 . S
C1479 C1480 1.369 . S
C1479 C1481 1.419 . S
C1479 H1483 0.930 . S
C1480 C1479 1.369 . S
C1480 C1489 1.429 . S
C1481 C1479 1.419 . S
C1481 C1482 1.363 . S
C1481 H1484 0.929 . S
C1482 C1481 1.363 . S
C1482 C1488 1.428 . S
H1483 C1479 0.930 . S
H1484 C1481 0.929 . S
S1485 N1486 1.613 . S
S1485 N1487 1.610 . S
N1486 S1485 1.613 . S
N1486 C1489 1.350 . S
N1487 S1485 1.610 . S
N1487 C1488 1.351 . S
C1488 C1482 1.428 . S
C1488 N1487 1.351 . S
C1488 C1489 1.434 . S
C1489 C1480 1.429 . S
C1489 N1486 1.350 . S
C1489 C1488 1.434 . S
C1490 C1491 1.369 . S
C1490 C1492 1.419 . S
C1490 H1494 0.930 . S
C1491 C1490 1.369 . S
C1491 C1500 1.429 . S
C1492 C1490 1.419 . S
C1492 C1493 1.363 . S
C1492 H1495 0.929 . S
C1493 C1492 1.363 . S
C1493 C1499 1.428 . S
H1494 C1490 0.930 . S
H1495 C1492 0.929 . S
S1496 N1497 1.613 . S
S1496 N1498 1.610 . S
N1497 S1496 1.613 . S
N1497 C1500 1.350 . S
N1498 S1496 1.610 . S
N1498 C1499 1.351 . S
C1499 C1493 1.428 . S
C1499 N1498 1.351 . S
C1499 C1500 1.434 . S
C1500 C1491 1.429 . S
C1500 N1497 1.350 . S
C1500 C1499 1.434 . S
C1501 C1502 1.369 . S
C1501 C1503 1.419 . S
C1501 H1505 0.930 . S
C1502 C1501 1.369 . S
C1502 C1511 1.429 . S
C1503 C1501 1.419 . S
C1503 C1504 1.363 . S
C1503 H1506 0.929 . S
C1504 C1503 1.363 . S
C1504 C1510 1.428 . S
H1505 C1501 0.930 . S
H1506 C1503 0.929 . S
S1507 N1508 1.613 . S
S1507 N1509 1.610 . S
N1508 S1507 1.613 . S
N1508 C1511 1.350 . S
N1509 S1507 1.610 . S
N1509 C1510 1.351 . S
C1510 C1504 1.428 . S
C1510 N1509 1.351 . S
C1510 C1511 1.434 . S
C1511 C1502 1.429 . S
C1511 N1508 1.350 . S
C1511 C1510 1.434 . S
C1512 C1513 1.369 . S
C1512 C1514 1.419 . S
C1512 H1516 0.930 . S
C1513 C1512 1.369 . S
C1513 C1522 1.429 . S
C1514 C1512 1.419 . S
C1514 C1515 1.363 . S
C1514 H1517 0.929 . S
C1515 C1514 1.363 . S
C1515 C1521 1.428 . S
H1516 C1512 0.930 . S
H1517 C1514 0.929 . S
S1518 N1519 1.613 . S
S1518 N1520 1.610 . S
N1519 S1518 1.613 . S
N1519 C1522 1.350 . S
N1520 S1518 1.610 . S
N1520 C1521 1.351 . S
C1521 C1515 1.428 . S
C1521 N1520 1.351 . S
C1521 C1522 1.434 . S
C1522 C1513 1.429 . S
C1522 N1519 1.350 . S
C1522 C1521 1.434 . S
C1523 C1524 1.369 . S
C1523 C1525 1.419 . S
C1523 H1527 0.930 . S
C1524 C1523 1.369 . S
C1524 C1533 1.429 . S
C1525 C1523 1.419 . S
C1525 C1526 1.363 . S
C1525 H1528 0.929 . S
C1526 C1525 1.363 . S
C1526 C1532 1.428 . S
H1527 C1523 0.930 . S
H1528 C1525 0.929 . S
S1529 N1530 1.613 . S
S1529 N1531 1.610 . S
N1530 S1529 1.613 . S
N1530 C1533 1.350 . S
N1531 S1529 1.610 . S
N1531 C1532 1.351 . S
C1532 C1526 1.428 . S
C1532 N1531 1.351 . S
C1532 C1533 1.434 . S
C1533 C1524 1.429 . S
C1533 N1530 1.350 . S
C1533 C1532 1.434 . S
C1534 C1535 1.369 . S
C1534 C1536 1.419 . S
C1534 H1538 0.930 . S
C1535 C1534 1.369 . S
C1535 C1544 1.429 . S
C1536 C1534 1.419 . S
C1536 C1537 1.363 . S
C1536 H1539 0.929 . S
C1537 C1536 1.363 . S
C1537 C1543 1.428 . S
H1538 C1534 0.930 . S
H1539 C1536 0.929 . S
S1540 N1541 1.613 . S
S1540 N1542 1.610 . S
N1541 S1540 1.613 . S
N1541 C1544 1.350 . S
N1542 S1540 1.610 . S
N1542 C1543 1.351 . S
C1543 C1537 1.428 . S
C1543 N1542 1.351 . S
C1543 C1544 1.434 . S
C1544 C1535 1.429 . S
C1544 N1541 1.350 . S
C1544 C1543 1.434 . S
C1545 C1546 1.369 . S
C1545 C1547 1.419 . S
C1545 H1549 0.930 . S
C1546 C1545 1.369 . S
C1546 C1555 1.429 . S
C1547 C1545 1.419 . S
C1547 C1548 1.363 . S
C1547 H1550 0.929 . S
C1548 C1547 1.363 . S
C1548 C1554 1.428 . S
H1549 C1545 0.930 . S
H1550 C1547 0.929 . S
S1551 N1552 1.613 . S
S1551 N1553 1.610 . S
N1552 S1551 1.613 . S
N1552 C1555 1.350 . S
N1553 S1551 1.610 . S
N1553 C1554 1.351 . S
C1554 C1548 1.428 . S
C1554 N1553 1.351 . S
C1554 C1555 1.434 . S
C1555 C1546 1.429 . S
C1555 N1552 1.350 . S
C1555 C1554 1.434 . S
C1556 C1557 1.369 . S
C1556 C1558 1.419 . S
C1556 H1560 0.930 . S
C1557 C1556 1.369 . S
C1557 C1566 1.429 . S
C1558 C1556 1.419 . S
C1558 C1559 1.363 . S
C1558 H1561 0.929 . S
C1559 C1558 1.363 . S
C1559 C1565 1.428 . S
H1560 C1556 0.930 . S
H1561 C1558 0.929 . S
S1562 N1563 1.613 . S
S1562 N1564 1.610 . S
N1563 S1562 1.613 . S
N1563 C1566 1.350 . S
N1564 S1562 1.610 . S
N1564 C1565 1.351 . S
C1565 C1559 1.428 . S
C1565 N1564 1.351 . S
C1565 C1566 1.434 . S
C1566 C1557 1.429 . S
C1566 N1563 1.350 . S
C1566 C1565 1.434 . S
C1567 C1568 1.369 . S
C1567 C1569 1.419 . S
C1567 H1571 0.930 . S
C1568 C1567 1.369 . S
C1568 C1577 1.429 . S
C1569 C1567 1.419 . S
C1569 C1570 1.363 . S
C1569 H1572 0.929 . S
C1570 C1569 1.363 . S
C1570 C1576 1.428 . S
H1571 C1567 0.930 . S
H1572 C1569 0.929 . S
S1573 N1574 1.613 . S
S1573 N1575 1.610 . S
N1574 S1573 1.613 . S
N1574 C1577 1.350 . S
N1575 S1573 1.610 . S
N1575 C1576 1.351 . S
C1576 C1570 1.428 . S
C1576 N1575 1.351 . S
C1576 C1577 1.434 . S
C1577 C1568 1.429 . S
C1577 N1574 1.350 . S
C1577 C1576 1.434 . S
C1578 C1579 1.369 . S
C1578 C1580 1.419 . S
C1578 H1582 0.930 . S
C1579 C1578 1.369 . S
C1579 C1588 1.429 . S
C1580 C1578 1.419 . S
C1580 C1581 1.363 . S
C1580 H1583 0.929 . S
C1581 C1580 1.363 . S
C1581 C1587 1.428 . S
H1582 C1578 0.930 . S
H1583 C1580 0.929 . S
S1584 N1585 1.613 . S
S1584 N1586 1.610 . S
N1585 S1584 1.613 . S
N1585 C1588 1.350 . S
N1586 S1584 1.610 . S
N1586 C1587 1.351 . S
C1587 C1581 1.428 . S
C1587 N1586 1.351 . S
C1587 C1588 1.434 . S
C1588 C1579 1.429 . S
C1588 N1585 1.350 . S
C1588 C1587 1.434 . S
C1589 C1590 1.369 . S
C1589 C1591 1.419 . S
C1589 H1593 0.930 . S
C1590 C1589 1.369 . S
C1590 C1599 1.429 . S
C1591 C1589 1.419 . S
C1591 C1592 1.363 . S
C1591 H1594 0.929 . S
C1592 C1591 1.363 . S
C1592 C1598 1.428 . S
H1593 C1589 0.930 . S
H1594 C1591 0.929 . S
S1595 N1596 1.613 . S
S1595 N1597 1.610 . S
N1596 S1595 1.613 . S
N1596 C1599 1.350 . S
N1597 S1595 1.610 . S
N1597 C1598 1.351 . S
C1598 C1592 1.428 . S
C1598 N1597 1.351 . S
C1598 C1599 1.434 . S
C1599 C1590 1.429 . S
C1599 N1596 1.350 . S
C1599 C1598 1.434 . S
C1600 C1601 1.369 . S
C1600 C1602 1.419 . S
C1600 H1604 0.930 . S
C1601 C1600 1.369 . S
C1601 C1610 1.429 . S
C1602 C1600 1.419 . S
C1602 C1603 1.363 . S
C1602 H1605 0.929 . S
C1603 C1602 1.363 . S
C1603 C1609 1.428 . S
H1604 C1600 0.930 . S
H1605 C1602 0.929 . S
S1606 N1607 1.613 . S
S1606 N1608 1.610 . S
N1607 S1606 1.613 . S
N1607 C1610 1.350 . S
N1608 S1606 1.610 . S
N1608 C1609 1.351 . S
C1609 C1603 1.428 . S
C1609 N1608 1.351 . S
C1609 C1610 1.434 . S
C1610 C1601 1.429 . S
C1610 N1607 1.350 . S
C1610 C1609 1.434 . S
C1611 C1612 1.369 . S
C1611 C1613 1.419 . S
C1611 H1615 0.930 . S
C1612 C1611 1.369 . S
C1612 C1621 1.429 . S
C1613 C1611 1.419 . S
C1613 C1614 1.363 . S
C1613 H1616 0.929 . S
C1614 C1613 1.363 . S
C1614 C1620 1.428 . S
H1615 C1611 0.930 . S
H1616 C1613 0.929 . S
S1617 N1618 1.613 . S
S1617 N1619 1.610 . S
N1618 S1617 1.613 . S
N1618 C1621 1.350 . S
N1619 S1617 1.610 . S
N1619 C1620 1.351 . S
C1620 C1614 1.428 . S
C1620 N1619 1.351 . S
C1620 C1621 1.434 . S
C1621 C1612 1.429 . S
C1621 N1618 1.350 . S
C1621 C1620 1.434 . S
C1622 C1623 1.369 . S
C1622 C1624 1.419 . S
C1622 H1626 0.930 . S
C1623 C1622 1.369 . S
C1623 C1632 1.429 . S
C1624 C1622 1.419 . S
C1624 C1625 1.363 . S
C1624 H1627 0.929 . S
C1625 C1624 1.363 . S
C1625 C1631 1.428 . S
H1626 C1622 0.930 . S
H1627 C1624 0.929 . S
S1628 N1629 1.613 . S
S1628 N1630 1.610 . S
N1629 S1628 1.613 . S
N1629 C1632 1.350 . S
N1630 S1628 1.610 . S
N1630 C1631 1.351 . S
C1631 C1625 1.428 . S
C1631 N1630 1.351 . S
C1631 C1632 1.434 . S
C1632 C1623 1.429 . S
C1632 N1629 1.350 . S
C1632 C1631 1.434 . S
C1633 C1634 1.369 . S
C1633 C1635 1.419 . S
C1633 H1637 0.930 . S
C1634 C1633 1.369 . S
C1634 C1643 1.429 . S
C1635 C1633 1.419 . S
C1635 C1636 1.363 . S
C1635 H1638 0.929 . S
C1636 C1635 1.363 . S
C1636 C1642 1.428 . S
H1637 C1633 0.930 . S
H1638 C1635 0.929 . S
S1639 N1640 1.613 . S
S1639 N1641 1.610 . S
N1640 S1639 1.613 . S
N1640 C1643 1.350 . S
N1641 S1639 1.610 . S
N1641 C1642 1.351 . S
C1642 C1636 1.428 . S
C1642 N1641 1.351 . S
C1642 C1643 1.434 . S
C1643 C1634 1.429 . S
C1643 N1640 1.350 . S
C1643 C1642 1.434 . S
C1644 C1645 1.369 . S
C1644 C1646 1.419 . S
C1644 H1648 0.930 . S
C1645 C1644 1.369 . S
C1645 C1654 1.429 . S
C1646 C1644 1.419 . S
C1646 C1647 1.363 . S
C1646 H1649 0.929 . S
C1647 C1646 1.363 . S
C1647 C1653 1.428 . S
H1648 C1644 0.930 . S
H1649 C1646 0.929 . S
S1650 N1651 1.613 . S
S1650 N1652 1.610 . S
N1651 S1650 1.613 . S
N1651 C1654 1.350 . S
N1652 S1650 1.610 . S
N1652 C1653 1.351 . S
C1653 C1647 1.428 . S
C1653 N1652 1.351 . S
C1653 C1654 1.434 . S
C1654 C1645 1.429 . S
C1654 N1651 1.350 . S
C1654 C1653 1.434 . S
C1655 C1656 1.369 . S
C1655 C1657 1.419 . S
C1655 H1659 0.930 . S
C1656 C1655 1.369 . S
C1656 C1665 1.429 . S
C1657 C1655 1.419 . S
C1657 C1658 1.363 . S
C1657 H1660 0.929 . S
C1658 C1657 1.363 . S
C1658 C1664 1.428 . S
H1659 C1655 0.930 . S
H1660 C1657 0.929 . S
S1661 N1662 1.613 . S
S1661 N1663 1.610 . S
N1662 S1661 1.613 . S
N1662 C1665 1.350 . S
N1663 S1661 1.610 . S
N1663 C1664 1.351 . S
C1664 C1658 1.428 . S
C1664 N1663 1.351 . S
C1664 C1665 1.434 . S
C1665 C1656 1.429 . S
C1665 N1662 1.350 . S
C1665 C1664 1.434 . S
C1666 C1667 1.369 . S
C1666 C1668 1.419 . S
C1666 H1670 0.930 . S
C1667 C1666 1.369 . S
C1667 C1676 1.429 . S
C1668 C1666 1.419 . S
C1668 C1669 1.363 . S
C1668 H1671 0.929 . S
C1669 C1668 1.363 . S
C1669 C1675 1.428 . S
H1670 C1666 0.930 . S
H1671 C1668 0.929 . S
S1672 N1673 1.613 . S
S1672 N1674 1.610 . S
N1673 S1672 1.613 . S
N1673 C1676 1.350 . S
N1674 S1672 1.610 . S
N1674 C1675 1.351 . S
C1675 C1669 1.428 . S
C1675 N1674 1.351 . S
C1675 C1676 1.434 . S
C1676 C1667 1.429 . S
C1676 N1673 1.350 . S
C1676 C1675 1.434 . S
C1677 C1678 1.369 . S
C1677 C1679 1.419 . S
C1677 H1681 0.930 . S
C1678 C1677 1.369 . S
C1678 C1687 1.429 . S
C1679 C1677 1.419 . S
C1679 C1680 1.363 . S
C1679 H1682 0.929 . S
C1680 C1679 1.363 . S
C1680 C1686 1.428 . S
H1681 C1677 0.930 . S
H1682 C1679 0.929 . S
S1683 N1684 1.613 . S
S1683 N1685 1.610 . S
N1684 S1683 1.613 . S
N1684 C1687 1.350 . S
N1685 S1683 1.610 . S
N1685 C1686 1.351 . S
C1686 C1680 1.428 . S
C1686 N1685 1.351 . S
C1686 C1687 1.434 . S
C1687 C1678 1.429 . S
C1687 N1684 1.350 . S
C1687 C1686 1.434 . S
C1688 C1689 1.369 . S
C1688 C1690 1.419 . S
C1688 H1692 0.930 . S
C1689 C1688 1.369 . S
C1689 C1698 1.429 . S
C1690 C1688 1.419 . S
C1690 C1691 1.363 . S
C1690 H1693 0.929 . S
C1691 C1690 1.363 . S
C1691 C1697 1.428 . S
H1692 C1688 0.930 . S
H1693 C1690 0.929 . S
S1694 N1695 1.613 . S
S1694 N1696 1.610 . S
N1695 S1694 1.613 . S
N1695 C1698 1.350 . S
N1696 S1694 1.610 . S
N1696 C1697 1.351 . S
C1697 C1691 1.428 . S
C1697 N1696 1.351 . S
C1697 C1698 1.434 . S
C1698 C1689 1.429 . S
C1698 N1695 1.350 . S
C1698 C1697 1.434 . S
C1699 C1700 1.369 . S
C1699 C1701 1.419 . S
C1699 H1703 0.930 . S
C1700 C1699 1.369 . S
C1700 C1709 1.429 . S
C1701 C1699 1.419 . S
C1701 C1702 1.363 . S
C1701 H1704 0.929 . S
C1702 C1701 1.363 . S
C1702 C1708 1.428 . S
H1703 C1699 0.930 . S
H1704 C1701 0.929 . S
S1705 N1706 1.613 . S
S1705 N1707 1.610 . S
N1706 S1705 1.613 . S
N1706 C1709 1.350 . S
N1707 S1705 1.610 . S
N1707 C1708 1.351 . S
C1708 C1702 1.428 . S
C1708 N1707 1.351 . S
C1708 C1709 1.434 . S
C1709 C1700 1.429 . S
C1709 N1706 1.350 . S
C1709 C1708 1.434 . S
C1710 C1711 1.369 . S
C1710 C1712 1.419 . S
C1710 H1714 0.930 . S
C1711 C1710 1.369 . S
C1711 C1720 1.429 . S
C1712 C1710 1.419 . S
C1712 C1713 1.363 . S
C1712 H1715 0.929 . S
C1713 C1712 1.363 . S
C1713 C1719 1.428 . S
H1714 C1710 0.930 . S
H1715 C1712 0.929 . S
S1716 N1717 1.613 . S
S1716 N1718 1.610 . S
N1717 S1716 1.613 . S
N1717 C1720 1.350 . S
N1718 S1716 1.610 . S
N1718 C1719 1.351 . S
C1719 C1713 1.428 . S
C1719 N1718 1.351 . S
C1719 C1720 1.434 . S
C1720 C1711 1.429 . S
C1720 N1717 1.350 . S
C1720 C1719 1.434 . S
C1721 C1722 1.369 . S
C1721 C1723 1.419 . S
C1721 H1725 0.930 . S
C1722 C1721 1.369 . S
C1722 C1731 1.429 . S
C1723 C1721 1.419 . S
C1723 C1724 1.363 . S
C1723 H1726 0.929 . S
C1724 C1723 1.363 . S
C1724 C1730 1.428 . S
H1725 C1721 0.930 . S
H1726 C1723 0.929 . S
S1727 N1728 1.613 . S
S1727 N1729 1.610 . S
N1728 S1727 1.613 . S
N1728 C1731 1.350 . S
N1729 S1727 1.610 . S
N1729 C1730 1.351 . S
C1730 C1724 1.428 . S
C1730 N1729 1.351 . S
C1730 C1731 1.434 . S
C1731 C1722 1.429 . S
C1731 N1728 1.350 . S
C1731 C1730 1.434 . S
C1732 C1733 1.369 . S
C1732 C1734 1.419 . S
C1732 H1736 0.930 . S
C1733 C1732 1.369 . S
C1733 C1742 1.429 . S
C1734 C1732 1.419 . S
C1734 C1735 1.363 . S
C1734 H1737 0.929 . S
C1735 C1734 1.363 . S
C1735 C1741 1.428 . S
H1736 C1732 0.930 . S
H1737 C1734 0.929 . S
S1738 N1739 1.613 . S
S1738 N1740 1.610 . S
N1739 S1738 1.613 . S
N1739 C1742 1.350 . S
N1740 S1738 1.610 . S
N1740 C1741 1.351 . S
C1741 C1735 1.428 . S
C1741 N1740 1.351 . S
C1741 C1742 1.434 . S
C1742 C1733 1.429 . S
C1742 N1739 1.350 . S
C1742 C1741 1.434 . S
C1743 C1744 1.369 . S
C1743 C1745 1.419 . S
C1743 H1747 0.930 . S
C1744 C1743 1.369 . S
C1744 C1753 1.429 . S
C1745 C1743 1.419 . S
C1745 C1746 1.363 . S
C1745 H1748 0.929 . S
C1746 C1745 1.363 . S
C1746 C1752 1.428 . S
H1747 C1743 0.930 . S
H1748 C1745 0.929 . S
S1749 N1750 1.613 . S
S1749 N1751 1.610 . S
N1750 S1749 1.613 . S
N1750 C1753 1.350 . S
N1751 S1749 1.610 . S
N1751 C1752 1.351 . S
C1752 C1746 1.428 . S
C1752 N1751 1.351 . S
C1752 C1753 1.434 . S
C1753 C1744 1.429 . S
C1753 N1750 1.350 . S
C1753 C1752 1.434 . S
C1754 C1755 1.369 . S
C1754 C1756 1.419 . S
C1754 H1758 0.930 . S
C1755 C1754 1.369 . S
C1755 C1764 1.429 . S
C1756 C1754 1.419 . S
C1756 C1757 1.363 . S
C1756 H1759 0.929 . S
C1757 C1756 1.363 . S
C1757 C1763 1.428 . S
H1758 C1754 0.930 . S
H1759 C1756 0.929 . S
S1760 N1761 1.613 . S
S1760 N1762 1.610 . S
N1761 S1760 1.613 . S
N1761 C1764 1.350 . S
N1762 S1760 1.610 . S
N1762 C1763 1.351 . S
C1763 C1757 1.428 . S
C1763 N1762 1.351 . S
C1763 C1764 1.434 . S
C1764 C1755 1.429 . S
C1764 N1761 1.350 . S
C1764 C1763 1.434 . S
C1765 C1766 1.369 . S
C1765 C1767 1.419 . S
C1765 H1769 0.930 . S
C1766 C1765 1.369 . S
C1766 C1775 1.429 . S
C1767 C1765 1.419 . S
C1767 C1768 1.363 . S
C1767 H1770 0.929 . S
C1768 C1767 1.363 . S
C1768 C1774 1.428 . S
H1769 C1765 0.930 . S
H1770 C1767 0.929 . S
S1771 N1772 1.613 . S
S1771 N1773 1.610 . S
N1772 S1771 1.613 . S
N1772 C1775 1.350 . S
N1773 S1771 1.610 . S
N1773 C1774 1.351 . S
C1774 C1768 1.428 . S
C1774 N1773 1.351 . S
C1774 C1775 1.434 . S
C1775 C1766 1.429 . S
C1775 N1772 1.350 . S
C1775 C1774 1.434 . S
C1776 C1777 1.369 . S
C1776 C1778 1.419 . S
C1776 H1780 0.930 . S
C1777 C1776 1.369 . S
C1777 C1786 1.429 . S
C1778 C1776 1.419 . S
C1778 C1779 1.363 . S
C1778 H1781 0.929 . S
C1779 C1778 1.363 . S
C1779 C1785 1.428 . S
H1780 C1776 0.930 . S
H1781 C1778 0.929 . S
S1782 N1783 1.613 . S
S1782 N1784 1.610 . S
N1783 S1782 1.613 . S
N1783 C1786 1.350 . S
N1784 S1782 1.610 . S
N1784 C1785 1.351 . S
C1785 C1779 1.428 . S
C1785 N1784 1.351 . S
C1785 C1786 1.434 . S
C1786 C1777 1.429 . S
C1786 N1783 1.350 . S
C1786 C1785 1.434 . S
C1787 C1788 1.369 . S
C1787 C1789 1.419 . S
C1787 H1791 0.930 . S
C1788 C1787 1.369 . S
C1788 C1797 1.429 . S
C1789 C1787 1.419 . S
C1789 C1790 1.363 . S
C1789 H1792 0.929 . S
C1790 C1789 1.363 . S
C1790 C1796 1.428 . S
H1791 C1787 0.930 . S
H1792 C1789 0.929 . S
S1793 N1794 1.613 . S
S1793 N1795 1.610 . S
N1794 S1793 1.613 . S
N1794 C1797 1.350 . S
N1795 S1793 1.610 . S
N1795 C1796 1.351 . S
C1796 C1790 1.428 . S
C1796 N1795 1.351 . S
C1796 C1797 1.434 . S
C1797 C1788 1.429 . S
C1797 N1794 1.350 . S
C1797 C1796 1.434 . S
C1798 C1799 1.369 . S
C1798 C1800 1.419 . S
C1798 H1802 0.930 . S
C1799 C1798 1.369 . S
C1799 C1808 1.429 . S
C1800 C1798 1.419 . S
C1800 C1801 1.363 . S
C1800 H1803 0.929 . S
C1801 C1800 1.363 . S
C1801 C1807 1.428 . S
H1802 C1798 0.930 . S
H1803 C1800 0.929 . S
S1804 N1805 1.613 . S
S1804 N1806 1.610 . S
N1805 S1804 1.613 . S
N1805 C1808 1.350 . S
N1806 S1804 1.610 . S
N1806 C1807 1.351 . S
C1807 C1801 1.428 . S
C1807 N1806 1.351 . S
C1807 C1808 1.434 . S
C1808 C1799 1.429 . S
C1808 N1805 1.350 . S
C1808 C1807 1.434 . S
C1809 C1810 1.369 . S
C1809 C1811 1.419 . S
C1809 H1813 0.930 . S
C1810 C1809 1.369 . S
C1810 C1819 1.429 . S
C1811 C1809 1.419 . S
C1811 C1812 1.363 . S
C1811 H1814 0.929 . S
C1812 C1811 1.363 . S
C1812 C1818 1.428 . S
H1813 C1809 0.930 . S
H1814 C1811 0.929 . S
S1815 N1816 1.613 . S
S1815 N1817 1.610 . S
N1816 S1815 1.613 . S
N1816 C1819 1.350 . S
N1817 S1815 1.610 . S
N1817 C1818 1.351 . S
C1818 C1812 1.428 . S
C1818 N1817 1.351 . S
C1818 C1819 1.434 . S
C1819 C1810 1.429 . S
C1819 N1816 1.350 . S
C1819 C1818 1.434 . S
C1820 C1821 1.369 . S
C1820 C1822 1.419 . S
C1820 H1824 0.930 . S
C1821 C1820 1.369 . S
C1821 C1830 1.429 . S
C1822 C1820 1.419 . S
C1822 C1823 1.363 . S
C1822 H1825 0.929 . S
C1823 C1822 1.363 . S
C1823 C1829 1.428 . S
H1824 C1820 0.930 . S
H1825 C1822 0.929 . S
S1826 N1827 1.613 . S
S1826 N1828 1.610 . S
N1827 S1826 1.613 . S
N1827 C1830 1.350 . S
N1828 S1826 1.610 . S
N1828 C1829 1.351 . S
C1829 C1823 1.428 . S
C1829 N1828 1.351 . S
C1829 C1830 1.434 . S
C1830 C1821 1.429 . S
C1830 N1827 1.350 . S
C1830 C1829 1.434 . S
C1831 C1832 1.369 . S
C1831 C1833 1.419 . S
C1831 H1835 0.930 . S
C1832 C1831 1.369 . S
C1832 C1841 1.429 . S
C1833 C1831 1.419 . S
C1833 C1834 1.363 . S
C1833 H1836 0.929 . S
C1834 C1833 1.363 . S
C1834 C1840 1.428 . S
H1835 C1831 0.930 . S
H1836 C1833 0.929 . S
S1837 N1838 1.613 . S
S1837 N1839 1.610 . S
N1838 S1837 1.613 . S
N1838 C1841 1.350 . S
N1839 S1837 1.610 . S
N1839 C1840 1.351 . S
C1840 C1834 1.428 . S
C1840 N1839 1.351 . S
C1840 C1841 1.434 . S
C1841 C1832 1.429 . S
C1841 N1838 1.350 . S
C1841 C1840 1.434 . S
C1842 C1843 1.369 . S
C1842 C1844 1.419 . S
C1842 H1846 0.930 . S
C1843 C1842 1.369 . S
C1843 C1852 1.429 . S
C1844 C1842 1.419 . S
C1844 C1845 1.363 . S
C1844 H1847 0.929 . S
C1845 C1844 1.363 . S
C1845 C1851 1.428 . S
H1846 C1842 0.930 . S
H1847 C1844 0.929 . S
S1848 N1849 1.613 . S
S1848 N1850 1.610 . S
N1849 S1848 1.613 . S
N1849 C1852 1.350 . S
N1850 S1848 1.610 . S
N1850 C1851 1.351 . S
C1851 C1845 1.428 . S
C1851 N1850 1.351 . S
C1851 C1852 1.434 . S
C1852 C1843 1.429 . S
C1852 N1849 1.350 . S
C1852 C1851 1.434 . S
C1853 C1854 1.369 . S
C1853 C1855 1.419 . S
C1853 H1857 0.930 . S
C1854 C1853 1.369 . S
C1854 C1863 1.429 . S
C1855 C1853 1.419 . S
C1855 C1856 1.363 . S
C1855 H1858 0.929 . S
C1856 C1855 1.363 . S
C1856 C1862 1.428 . S
H1857 C1853 0.930 . S
H1858 C1855 0.929 . S
S1859 N1860 1.613 . S
S1859 N1861 1.610 . S
N1860 S1859 1.613 . S
N1860 C1863 1.350 . S
N1861 S1859 1.610 . S
N1861 C1862 1.351 . S
C1862 C1856 1.428 . S
C1862 N1861 1.351 . S
C1862 C1863 1.434 . S
C1863 C1854 1.429 . S
C1863 N1860 1.350 . S
C1863 C1862 1.434 . S
C1864 C1865 1.369 . S
C1864 C1866 1.419 . S
C1864 H1868 0.930 . S
C1865 C1864 1.369 . S
C1865 C1874 1.429 . S
C1866 C1864 1.419 . S
C1866 C1867 1.363 . S
C1866 H1869 0.929 . S
C1867 C1866 1.363 . S
C1867 C1873 1.428 . S
H1868 C1864 0.930 . S
H1869 C1866 0.929 . S
S1870 N1871 1.613 . S
S1870 N1872 1.610 . S
N1871 S1870 1.613 . S
N1871 C1874 1.350 . S
N1872 S1870 1.610 . S
N1872 C1873 1.351 . S
C1873 C1867 1.428 . S
C1873 N1872 1.351 . S
C1873 C1874 1.434 . S
C1874 C1865 1.429 . S
C1874 N1871 1.350 . S
C1874 C1873 1.434 . S
C1875 C1876 1.369 . S
C1875 C1877 1.419 . S
C1875 H1879 0.930 . S
C1876 C1875 1.369 . S
C1876 C1885 1.429 . S
C1877 C1875 1.419 . S
C1877 C1878 1.363 . S
C1877 H1880 0.929 . S
C1878 C1877 1.363 . S
C1878 C1884 1.428 . S
H1879 C1875 0.930 . S
H1880 C1877 0.929 . S
S1881 N1882 1.613 . S
S1881 N1883 1.610 . S
N1882 S1881 1.613 . S
N1882 C1885 1.350 . S
N1883 S1881 1.610 . S
N1883 C1884 1.351 . S
C1884 C1878 1.428 . S
C1884 N1883 1.351 . S
C1884 C1885 1.434 . S
C1885 C1876 1.429 . S
C1885 N1882 1.350 . S
C1885 C1884 1.434 . S
C1886 C1887 1.369 . S
C1886 C1888 1.419 . S
C1886 H1890 0.930 . S
C1887 C1886 1.369 . S
C1887 C1896 1.429 . S
C1888 C1886 1.419 . S
C1888 C1889 1.363 . S
C1888 H1891 0.929 . S
C1889 C1888 1.363 . S
C1889 C1895 1.428 . S
H1890 C1886 0.930 . S
H1891 C1888 0.929 . S
S1892 N1893 1.613 . S
S1892 N1894 1.610 . S
N1893 S1892 1.613 . S
N1893 C1896 1.350 . S
N1894 S1892 1.610 . S
N1894 C1895 1.351 . S
C1895 C1889 1.428 . S
C1895 N1894 1.351 . S
C1895 C1896 1.434 . S
C1896 C1887 1.429 . S
C1896 N1893 1.350 . S
C1896 C1895 1.434 . S
C1897 C1898 1.369 . S
C1897 C1899 1.419 . S
C1897 H1901 0.930 . S
C1898 C1897 1.369 . S
C1898 C1907 1.429 . S
C1899 C1897 1.419 . S
C1899 C1900 1.363 . S
C1899 H1902 0.929 . S
C1900 C1899 1.363 . S
C1900 C1906 1.428 . S
H1901 C1897 0.930 . S
H1902 C1899 0.929 . S
S1903 N1904 1.613 . S
S1903 N1905 1.610 . S
N1904 S1903 1.613 . S
N1904 C1907 1.350 . S
N1905 S1903 1.610 . S
N1905 C1906 1.351 . S
C1906 C1900 1.428 . S
C1906 N1905 1.351 . S
C1906 C1907 1.434 . S
C1907 C1898 1.429 . S
C1907 N1904 1.350 . S
C1907 C1906 1.434 . S
C1908 C1909 1.369 . S
C1908 C1910 1.419 . S
C1908 H1912 0.930 . S
C1909 C1908 1.369 . S
C1909 C1918 1.429 . S
C1910 C1908 1.419 . S
C1910 C1911 1.363 . S
C1910 H1913 0.929 . S
C1911 C1910 1.363 . S
C1911 C1917 1.428 . S
H1912 C1908 0.930 . S
H1913 C1910 0.929 . S
S1914 N1915 1.613 . S
S1914 N1916 1.610 . S
N1915 S1914 1.613 . S
N1915 C1918 1.350 . S
N1916 S1914 1.610 . S
N1916 C1917 1.351 . S
C1917 C1911 1.428 . S
C1917 N1916 1.351 . S
C1917 C1918 1.434 . S
C1918 C1909 1.429 . S
C1918 N1915 1.350 . S
C1918 C1917 1.434 . S
C1919 C1920 1.369 . S
C1919 C1921 1.419 . S
C1919 H1923 0.930 . S
C1920 C1919 1.369 . S
C1920 C1929 1.429 . S
C1921 C1919 1.419 . S
C1921 C1922 1.363 . S
C1921 H1924 0.929 . S
C1922 C1921 1.363 . S
C1922 C1928 1.428 . S
H1923 C1919 0.930 . S
H1924 C1921 0.929 . S
S1925 N1926 1.613 1_545 S
S1925 N1927 1.610 . S
N1926 S1925 1.613 1_565 S
N1926 C1929 1.350 . S
N1927 S1925 1.610 . S
N1927 C1928 1.351 1_545 S
C1928 C1922 1.428 . S
C1928 N1927 1.351 1_565 S
C1928 C1929 1.434 . S
C1929 C1920 1.429 . S
C1929 N1926 1.350 . S
C1929 C1928 1.434 . S
C1930 C1931 1.369 . S
C1930 C1932 1.419 . S
C1930 H1934 0.930 . S
C1931 C1930 1.369 . S
C1931 C1940 1.429 . S
C1932 C1930 1.419 . S
C1932 C1933 1.363 . S
C1932 H1935 0.929 . S
C1933 C1932 1.363 . S
C1933 C1939 1.428 . S
H1934 C1930 0.930 . S
H1935 C1932 0.929 . S
S1936 N1937 1.613 . S
S1936 N1938 1.610 . S
N1937 S1936 1.613 . S
N1937 C1940 1.350 . S
N1938 S1936 1.610 . S
N1938 C1939 1.351 . S
C1939 C1933 1.428 . S
C1939 N1938 1.351 . S
C1939 C1940 1.434 . S
C1940 C1931 1.429 . S
C1940 N1937 1.350 . S
C1940 C1939 1.434 . S
C1941 C1942 1.369 . S
C1941 C1943 1.419 . S
C1941 H1945 0.930 . S
C1942 C1941 1.369 . S
C1942 C1951 1.429 . S
C1943 C1941 1.419 . S
C1943 C1944 1.363 . S
C1943 H1946 0.929 . S
C1944 C1943 1.363 . S
C1944 C1950 1.428 . S
H1945 C1941 0.930 . S
H1946 C1943 0.929 . S
S1947 N1948 1.613 . S
S1947 N1949 1.610 . S
N1948 S1947 1.613 . S
N1948 C1951 1.350 . S
N1949 S1947 1.610 . S
N1949 C1950 1.351 . S
C1950 C1944 1.428 . S
C1950 N1949 1.351 . S
C1950 C1951 1.434 . S
C1951 C1942 1.429 . S
C1951 N1948 1.350 . S
C1951 C1950 1.434 . S
C1952 C1953 1.369 . S
C1952 C1954 1.419 . S
C1952 H1956 0.930 . S
C1953 C1952 1.369 . S
C1953 C1962 1.429 . S
C1954 C1952 1.419 . S
C1954 C1955 1.363 . S
C1954 H1957 0.929 . S
C1955 C1954 1.363 . S
C1955 C1961 1.428 . S
H1956 C1952 0.930 . S
H1957 C1954 0.929 . S
S1958 N1959 1.613 . S
S1958 N1960 1.610 . S
N1959 S1958 1.613 . S
N1959 C1962 1.350 . S
N1960 S1958 1.610 . S
N1960 C1961 1.351 . S
C1961 C1955 1.428 . S
C1961 N1960 1.351 . S
C1961 C1962 1.434 . S
C1962 C1953 1.429 . S
C1962 N1959 1.350 . S
C1962 C1961 1.434 . S
C1963 C1964 1.369 . S
C1963 C1965 1.419 . S
C1963 H1967 0.930 . S
C1964 C1963 1.369 . S
C1964 C1973 1.429 . S
C1965 C1963 1.419 . S
C1965 C1966 1.363 . S
C1965 H1968 0.929 . S
C1966 C1965 1.363 . S
C1966 C1972 1.428 . S
H1967 C1963 0.930 . S
H1968 C1965 0.929 . S
S1969 N1970 1.613 . S
S1969 N1971 1.610 . S
N1970 S1969 1.613 . S
N1970 C1973 1.350 . S
N1971 S1969 1.610 . S
N1971 C1972 1.351 . S
C1972 C1966 1.428 . S
C1972 N1971 1.351 . S
C1972 C1973 1.434 . S
C1973 C1964 1.429 . S
C1973 N1970 1.350 . S
C1973 C1972 1.434 . S
C1974 C1975 1.369 . S
C1974 C1976 1.419 . S
C1974 H1978 0.930 . S
C1975 C1974 1.369 . S
C1975 C1984 1.429 . S
C1976 C1974 1.419 . S
C1976 C1977 1.363 . S
C1976 H1979 0.929 . S
C1977 C1976 1.363 . S
C1977 C1983 1.428 . S
H1978 C1974 0.930 . S
H1979 C1976 0.929 . S
S1980 N1981 1.613 . S
S1980 N1982 1.610 . S
N1981 S1980 1.613 . S
N1981 C1984 1.350 . S
N1982 S1980 1.610 . S
N1982 C1983 1.351 . S
C1983 C1977 1.428 . S
C1983 N1982 1.351 . S
C1983 C1984 1.434 . S
C1984 C1975 1.429 . S
C1984 N1981 1.350 . S
C1984 C1983 1.434 . S
C1985 C1986 1.369 . S
C1985 C1987 1.419 . S
C1985 H1989 0.930 . S
C1986 C1985 1.369 . S
C1986 C1995 1.429 . S
C1987 C1985 1.419 . S
C1987 C1988 1.363 . S
C1987 H1990 0.929 . S
C1988 C1987 1.363 . S
C1988 C1994 1.428 . S
H1989 C1985 0.930 . S
H1990 C1987 0.929 . S
S1991 N1992 1.613 . S
S1991 N1993 1.610 . S
N1992 S1991 1.613 . S
N1992 C1995 1.350 . S
N1993 S1991 1.610 . S
N1993 C1994 1.351 . S
C1994 C1988 1.428 . S
C1994 N1993 1.351 . S
C1994 C1995 1.434 . S
C1995 C1986 1.429 . S
C1995 N1992 1.350 . S
C1995 C1994 1.434 . S
C1996 C1997 1.369 . S
C1996 C1998 1.419 . S
C1996 H2000 0.930 . S
C1997 C1996 1.369 . S
C1997 C2006 1.429 . S
C1998 C1996 1.419 . S
C1998 C1999 1.363 . S
C1998 H2001 0.929 . S
C1999 C1998 1.363 . S
C1999 C2005 1.428 . S
H2000 C1996 0.930 . S
H2001 C1998 0.929 . S
S2002 N2003 1.613 . S
S2002 N2004 1.610 . S
N2003 S2002 1.613 . S
N2003 C2006 1.350 . S
N2004 S2002 1.610 . S
N2004 C2005 1.351 . S
C2005 C1999 1.428 . S
C2005 N2004 1.351 . S
C2005 C2006 1.434 . S
C2006 C1997 1.429 . S
C2006 N2003 1.350 . S
C2006 C2005 1.434 . S
C2007 C2008 1.369 . S
C2007 C2009 1.419 . S
C2007 H2011 0.930 . S
C2008 C2007 1.369 . S
C2008 C2017 1.429 . S
C2009 C2007 1.419 . S
C2009 C2010 1.363 . S
C2009 H2012 0.929 . S
C2010 C2009 1.363 . S
C2010 C2016 1.428 . S
H2011 C2007 0.930 . S
H2012 C2009 0.929 . S
S2013 N2014 1.613 . S
S2013 N2015 1.610 . S
N2014 S2013 1.613 . S
N2014 C2017 1.350 . S
N2015 S2013 1.610 . S
N2015 C2016 1.351 . S
C2016 C2010 1.428 . S
C2016 N2015 1.351 . S
C2016 C2017 1.434 . S
C2017 C2008 1.429 . S
C2017 N2014 1.350 . S
C2017 C2016 1.434 . S
C2018 C2019 1.369 . S
C2018 C2020 1.419 . S
C2018 H2022 0.930 . S
C2019 C2018 1.369 . S
C2019 C2028 1.429 . S
C2020 C2018 1.419 . S
C2020 C2021 1.363 . S
C2020 H2023 0.929 . S
C2021 C2020 1.363 . S
C2021 C2027 1.428 . S
H2022 C2018 0.930 . S
H2023 C2020 0.929 . S
S2024 N2025 1.613 . S
S2024 N2026 1.610 . S
N2025 S2024 1.613 . S
N2025 C2028 1.350 . S
N2026 S2024 1.610 . S
N2026 C2027 1.351 . S
C2027 C2021 1.428 . S
C2027 N2026 1.351 . S
C2027 C2028 1.434 . S
C2028 C2019 1.429 . S
C2028 N2025 1.350 . S
C2028 C2027 1.434 . S
C2029 C2030 1.369 . S
C2029 C2031 1.419 . S
C2029 H2033 0.930 . S
C2030 C2029 1.369 . S
C2030 C2039 1.429 . S
C2031 C2029 1.419 . S
C2031 C2032 1.363 . S
C2031 H2034 0.929 . S
C2032 C2031 1.363 . S
C2032 C2038 1.428 . S
H2033 C2029 0.930 . S
H2034 C2031 0.929 . S
S2035 N2036 1.613 . S
S2035 N2037 1.610 . S
N2036 S2035 1.613 . S
N2036 C2039 1.350 . S
N2037 S2035 1.610 . S
N2037 C2038 1.351 . S
C2038 C2032 1.428 . S
C2038 N2037 1.351 . S
C2038 C2039 1.434 . S
C2039 C2030 1.429 . S
C2039 N2036 1.350 . S
C2039 C2038 1.434 . S
C2040 C2041 1.369 . S
C2040 C2042 1.419 . S
C2040 H2044 0.930 . S
C2041 C2040 1.369 . S
C2041 C2050 1.429 . S
C2042 C2040 1.419 . S
C2042 C2043 1.363 . S
C2042 H2045 0.929 . S
C2043 C2042 1.363 . S
C2043 C2049 1.428 . S
H2044 C2040 0.930 . S
H2045 C2042 0.929 . S
S2046 N2047 1.613 . S
S2046 N2048 1.610 . S
N2047 S2046 1.613 . S
N2047 C2050 1.350 . S
N2048 S2046 1.610 . S
N2048 C2049 1.351 . S
C2049 C2043 1.428 . S
C2049 N2048 1.351 . S
C2049 C2050 1.434 . S
C2050 C2041 1.429 . S
C2050 N2047 1.350 . S
C2050 C2049 1.434 . S
C2051 C2052 1.369 . S
C2051 C2053 1.419 . S
C2051 H2055 0.930 . S
C2052 C2051 1.369 . S
C2052 C2061 1.429 . S
C2053 C2051 1.419 . S
C2053 C2054 1.363 . S
C2053 H2056 0.929 . S
C2054 C2053 1.363 . S
C2054 C2060 1.428 . S
H2055 C2051 0.930 . S
H2056 C2053 0.929 . S
S2057 N2058 1.613 . S
S2057 N2059 1.610 . S
N2058 S2057 1.613 . S
N2058 C2061 1.350 . S
N2059 S2057 1.610 . S
N2059 C2060 1.351 . S
C2060 C2054 1.428 . S
C2060 N2059 1.351 . S
C2060 C2061 1.434 . S
C2061 C2052 1.429 . S
C2061 N2058 1.350 . S
C2061 C2060 1.434 . S
C2062 C2063 1.369 . S
C2062 C2064 1.419 . S
C2062 H2066 0.930 . S
C2063 C2062 1.369 . S
C2063 C2072 1.429 . S
C2064 C2062 1.419 . S
C2064 C2065 1.363 . S
C2064 H2067 0.929 . S
C2065 C2064 1.363 . S
C2065 C2071 1.428 . S
H2066 C2062 0.930 . S
H2067 C2064 0.929 . S
S2068 N2069 1.613 . S
S2068 N2070 1.610 . S
N2069 S2068 1.613 . S
N2069 C2072 1.350 . S
N2070 S2068 1.610 . S
N2070 C2071 1.351 . S
C2071 C2065 1.428 . S
C2071 N2070 1.351 . S
C2071 C2072 1.434 . S
C2072 C2063 1.429 . S
C2072 N2069 1.350 . S
C2072 C2071 1.434 . S
C2073 C2074 1.369 . S
C2073 C2075 1.419 . S
C2073 H2077 0.930 . S
C2074 C2073 1.369 . S
C2074 C2083 1.429 . S
C2075 C2073 1.419 . S
C2075 C2076 1.363 . S
C2075 H2078 0.929 . S
C2076 C2075 1.363 . S
C2076 C2082 1.428 . S
H2077 C2073 0.930 . S
H2078 C2075 0.929 . S
S2079 N2080 1.613 . S
S2079 N2081 1.610 . S
N2080 S2079 1.613 . S
N2080 C2083 1.350 . S
N2081 S2079 1.610 . S
N2081 C2082 1.351 . S
C2082 C2076 1.428 . S
C2082 N2081 1.351 . S
C2082 C2083 1.434 . S
C2083 C2074 1.429 . S
C2083 N2080 1.350 . S
C2083 C2082 1.434 . S
C2084 C2085 1.369 . S
C2084 C2086 1.419 . S
C2084 H2088 0.930 . S
C2085 C2084 1.369 . S
C2085 C2094 1.429 . S
C2086 C2084 1.419 . S
C2086 C2087 1.363 . S
C2086 H2089 0.929 . S
C2087 C2086 1.363 . S
C2087 C2093 1.428 . S
H2088 C2084 0.930 . S
H2089 C2086 0.929 . S
S2090 N2091 1.613 . S
S2090 N2092 1.610 . S
N2091 S2090 1.613 . S
N2091 C2094 1.350 . S
N2092 S2090 1.610 . S
N2092 C2093 1.351 . S
C2093 C2087 1.428 . S
C2093 N2092 1.351 . S
C2093 C2094 1.434 . S
C2094 C2085 1.429 . S
C2094 N2091 1.350 . S
C2094 C2093 1.434 . S
C2095 C2096 1.369 . S
C2095 C2097 1.419 . S
C2095 H2099 0.930 . S
C2096 C2095 1.369 . S
C2096 C2105 1.429 . S
C2097 C2095 1.419 . S
C2097 C2098 1.363 . S
C2097 H2100 0.929 . S
C2098 C2097 1.363 . S
C2098 C2104 1.428 . S
H2099 C2095 0.930 . S
H2100 C2097 0.929 . S
S2101 N2102 1.613 . S
S2101 N2103 1.610 . S
N2102 S2101 1.613 . S
N2102 C2105 1.350 . S
N2103 S2101 1.610 . S
N2103 C2104 1.351 . S
C2104 C2098 1.428 . S
C2104 N2103 1.351 . S
C2104 C2105 1.434 . S
C2105 C2096 1.429 . S
C2105 N2102 1.350 . S
C2105 C2104 1.434 . S
C2106 C2107 1.369 . S
C2106 C2108 1.419 . S
C2106 H2110 0.930 . S
C2107 C2106 1.369 . S
C2107 C2116 1.429 . S
C2108 C2106 1.419 . S
C2108 C2109 1.363 . S
C2108 H2111 0.929 . S
C2109 C2108 1.363 . S
C2109 C2115 1.428 . S
H2110 C2106 0.930 . S
H2111 C2108 0.929 . S
S2112 N2113 1.613 . S
S2112 N2114 1.610 . S
N2113 S2112 1.613 . S
N2113 C2116 1.350 . S
N2114 S2112 1.610 . S
N2114 C2115 1.351 . S
C2115 C2109 1.428 . S
C2115 N2114 1.351 . S
C2115 C2116 1.434 . S
C2116 C2107 1.429 . S
C2116 N2113 1.350 . S
C2116 C2115 1.434 . S
C2117 C2118 1.369 . S
C2117 C2119 1.419 . S
C2117 H2121 0.930 . S
C2118 C2117 1.369 . S
C2118 C2127 1.429 . S
C2119 C2117 1.419 . S
C2119 C2120 1.363 . S
C2119 H2122 0.929 . S
C2120 C2119 1.363 . S
C2120 C2126 1.428 . S
H2121 C2117 0.930 . S
H2122 C2119 0.929 . S
S2123 N2124 1.613 . S
S2123 N2125 1.610 . S
N2124 S2123 1.613 . S
N2124 C2127 1.350 . S
N2125 S2123 1.610 . S
N2125 C2126 1.351 . S
C2126 C2120 1.428 . S
C2126 N2125 1.351 . S
C2126 C2127 1.434 . S
C2127 C2118 1.429 . S
C2127 N2124 1.350 . S
C2127 C2126 1.434 . S
C2128 C2129 1.369 . S
C2128 C2130 1.419 . S
C2128 H2132 0.930 . S
C2129 C2128 1.369 . S
C2129 C2138 1.429 . S
C2130 C2128 1.419 . S
C2130 C2131 1.363 . S
C2130 H2133 0.929 . S
C2131 C2130 1.363 . S
C2131 C2137 1.428 . S
H2132 C2128 0.930 . S
H2133 C2130 0.929 . S
S2134 N2135 1.613 . S
S2134 N2136 1.610 . S
N2135 S2134 1.613 . S
N2135 C2138 1.350 . S
N2136 S2134 1.610 . S
N2136 C2137 1.351 . S
C2137 C2131 1.428 . S
C2137 N2136 1.351 . S
C2137 C2138 1.434 . S
C2138 C2129 1.429 . S
C2138 N2135 1.350 . S
C2138 C2137 1.434 . S
C2139 C2140 1.369 . S
C2139 C2141 1.419 . S
C2139 H2143 0.930 . S
C2140 C2139 1.369 . S
C2140 C2149 1.429 . S
C2141 C2139 1.419 . S
C2141 C2142 1.363 . S
C2141 H2144 0.929 . S
C2142 C2141 1.363 . S
C2142 C2148 1.428 . S
H2143 C2139 0.930 . S
H2144 C2141 0.929 . S
S2145 N2146 1.613 . S
S2145 N2147 1.610 . S
N2146 S2145 1.613 . S
N2146 C2149 1.350 . S
N2147 S2145 1.610 . S
N2147 C2148 1.351 . S
C2148 C2142 1.428 . S
C2148 N2147 1.351 . S
C2148 C2149 1.434 . S
C2149 C2140 1.429 . S
C2149 N2146 1.350 . S
C2149 C2148 1.434 . S
C2150 C2151 1.369 . S
C2150 C2152 1.419 . S
C2150 H2154 0.930 . S
C2151 C2150 1.369 . S
C2151 C2160 1.429 . S
C2152 C2150 1.419 . S
C2152 C2153 1.363 . S
C2152 H2155 0.929 . S
C2153 C2152 1.363 . S
C2153 C2159 1.428 . S
H2154 C2150 0.930 . S
H2155 C2152 0.929 . S
S2156 N2157 1.613 . S
S2156 N2158 1.610 . S
N2157 S2156 1.613 . S
N2157 C2160 1.350 . S
N2158 S2156 1.610 . S
N2158 C2159 1.351 . S
C2159 C2153 1.428 . S
C2159 N2158 1.351 . S
C2159 C2160 1.434 . S
C2160 C2151 1.429 . S
C2160 N2157 1.350 . S
C2160 C2159 1.434 . S
C2161 C2162 1.369 . S
C2161 C2163 1.419 . S
C2161 H2165 0.930 . S
C2162 C2161 1.369 . S
C2162 C2171 1.429 . S
C2163 C2161 1.419 . S
C2163 C2164 1.363 . S
C2163 H2166 0.929 . S
C2164 C2163 1.363 . S
C2164 C2170 1.428 . S
H2165 C2161 0.930 . S
H2166 C2163 0.929 . S
S2167 N2168 1.613 . S
S2167 N2169 1.610 . S
N2168 S2167 1.613 . S
N2168 C2171 1.350 . S
N2169 S2167 1.610 . S
N2169 C2170 1.351 . S
C2170 C2164 1.428 . S
C2170 N2169 1.351 . S
C2170 C2171 1.434 . S
C2171 C2162 1.429 . S
C2171 N2168 1.350 . S
C2171 C2170 1.434 . S
C2172 C2173 1.369 . S
C2172 C2174 1.419 . S
C2172 H2176 0.930 . S
C2173 C2172 1.369 . S
C2173 C2182 1.429 . S
C2174 C2172 1.419 . S
C2174 C2175 1.363 . S
C2174 H2177 0.929 . S
C2175 C2174 1.363 . S
C2175 C2181 1.428 . S
H2176 C2172 0.930 . S
H2177 C2174 0.929 . S
S2178 N2179 1.613 . S
S2178 N2180 1.610 . S
N2179 S2178 1.613 . S
N2179 C2182 1.350 . S
N2180 S2178 1.610 . S
N2180 C2181 1.351 . S
C2181 C2175 1.428 . S
C2181 N2180 1.351 . S
C2181 C2182 1.434 . S
C2182 C2173 1.429 . S
C2182 N2179 1.350 . S
C2182 C2181 1.434 . S
C2183 C2184 1.369 . S
C2183 C2185 1.419 . S
C2183 H2187 0.930 . S
C2184 C2183 1.369 . S
C2184 C2193 1.429 . S
C2185 C2183 1.419 . S
C2185 C2186 1.363 . S
C2185 H2188 0.929 . S
C2186 C2185 1.363 . S
C2186 C2192 1.428 . S
H2187 C2183 0.930 . S
H2188 C2185 0.929 . S
S2189 N2190 1.613 . S
S2189 N2191 1.610 . S
N2190 S2189 1.613 . S
N2190 C2193 1.350 . S
N2191 S2189 1.610 . S
N2191 C2192 1.351 . S
C2192 C2186 1.428 . S
C2192 N2191 1.351 . S
C2192 C2193 1.434 . S
C2193 C2184 1.429 . S
C2193 N2190 1.350 . S
C2193 C2192 1.434 . S
C2194 C2195 1.369 . S
C2194 C2196 1.419 . S
C2194 H2198 0.930 . S
C2195 C2194 1.369 . S
C2195 C2204 1.429 . S
C2196 C2194 1.419 . S
C2196 C2197 1.363 . S
C2196 H2199 0.929 . S
C2197 C2196 1.363 . S
C2197 C2203 1.428 . S
H2198 C2194 0.930 . S
H2199 C2196 0.929 . S
S2200 N2201 1.613 . S
S2200 N2202 1.610 . S
N2201 S2200 1.613 . S
N2201 C2204 1.350 . S
N2202 S2200 1.610 . S
N2202 C2203 1.351 . S
C2203 C2197 1.428 . S
C2203 N2202 1.351 . S
C2203 C2204 1.434 . S
C2204 C2195 1.429 . S
C2204 N2201 1.350 . S
C2204 C2203 1.434 . S
C2205 C2206 1.369 . S
C2205 C2207 1.419 . S
C2205 H2209 0.930 . S
C2206 C2205 1.369 . S
C2206 C2215 1.429 . S
C2207 C2205 1.419 . S
C2207 C2208 1.363 . S
C2207 H2210 0.929 . S
C2208 C2207 1.363 . S
C2208 C2214 1.428 . S
H2209 C2205 0.930 . S
H2210 C2207 0.929 . S
S2211 N2212 1.613 . S
S2211 N2213 1.610 . S
N2212 S2211 1.613 . S
N2212 C2215 1.350 . S
N2213 S2211 1.610 . S
N2213 C2214 1.351 . S
C2214 C2208 1.428 . S
C2214 N2213 1.351 . S
C2214 C2215 1.434 . S
C2215 C2206 1.429 . S
C2215 N2212 1.350 . S
C2215 C2214 1.434 . S
C1163 N620 2.063 . S
C1161 C6 2.151 . S
C1174 C647 1.491 . S
C1172 C30 1.520 . S
C1183 C44 1.947 . S
C1185 C661 1.942 . S
C1196 N679 1.009 . S
C1194 C68 1.052 . S
C1205 C87 1.201 . S
C1207 C684 1.170 . S
C1216 C97 2.098 . S
C1218 C624 2.063 . S
C1227 C125 1.171 . S
C1229 N643 1.259 . S
C1240 N656 2.115 . S
C1238 C139 2.123 . S
C1251 N702 1.643 . S
C1249 C11 1.684 . S
C1260 C25 1.514 . S
C1262 N725 1.500 . S
C1271 C40 1.788 . S
C1273 N748 1.831 . S
C1284 N781 1.231 . S
C1282 C59 1.269 . S
C1293 C82 1.475 . S
C1295 C808 1.477 . S
C1306 C831 1.920 . S
C1304 C101 1.922 . S
C1315 C116 1.054 . S
C1317 C854 1.070 . S
C1328 C868 1.801 1_565 S
C1326 C144 1.703 . S
C1337 C2 1.863 . S
C1339 C785 1.861 . S
C1348 C78 1.277 . S
C1350 N827 1.268 . S
C1361 N850 1.675 . S
C1359 C106 1.634 . S
C1370 C120 1.335 . S
C1372 N863 1.300 . S
C1383 N804 1.818 . S
C1381 C135 1.831 . S
C1394 C730 1.947 . S
C1392 C49 1.791 . S
C1403 C63 1.346 . S
C1405 C753 1.339 . S
C1416 C707 1.391 . S
C1414 C21 1.357 . S
C1427 C900 2.194 . S
C1425 C158 2.189 . S
C1436 C182 1.291 . S
C1438 C914 1.261 . S
C1447 C196 1.909 . S
C1449 N942 1.877 . S
C1460 N955 1.042 . S
C1458 C220 1.102 . S
C1469 C239 1.375 . S
C1471 C960 1.313 . S
C1480 C249 1.985 . S
C1482 N896 1.986 . S
C1491 C277 1.073 . S
C1493 N909 1.133 . S
C1502 C291 2.023 . S
C1504 C946 2.029 . S
C1515 N794 1.677 . S
C1513 C163 1.687 . S
C1524 C177 1.372 . S
C1526 N978 1.351 . S
C1537 N840 1.769 . S
C1535 C192 1.728 . S
C1546 C211 1.199 . S
C1548 C1015 1.195 . S
C1557 C234 1.716 . S
C1559 C716 1.700 . S
C1570 C1029 1.999 . S
C1568 C253 1.997 . S
C1579 C268 1.184 . S
C1581 C762 1.181 . S
C1592 N1047 1.679 . S
C1590 C296 1.635 . S
C1601 C154 1.772 . S
C1603 N1011 1.736 . S
C1614 N1024 1.284 . S
C1612 C230 1.299 . S
C1623 C258 1.642 . S
C1625 N758 1.684 . S
C1636 C1052 1.235 . S
C1634 C272 1.233 . S
C1645 C287 1.790 . S
C1647 N712 1.793 . S
C1656 C201 1.694 . S
C1658 C983 1.844 . S
C1667 C215 1.463 . S
C1669 C845 1.446 . S
C1678 C173 1.233 . S
C1680 C799 1.277 . S
C1689 C310 2.199 . S
C1691 C937 2.172 . S
C1702 C969 1.373 . S
C1700 C334 1.383 . S
C1711 C348 1.890 . S
C1713 N886 1.782 . S
C1722 C372 1.052 . S
C1724 N919 1.066 . S
C1733 C391 1.232 . S
C1735 C923 1.231 . S
C1744 C401 2.127 . S
C1746 N932 2.042 . S
C1757 N965 1.178 . S
C1755 C429 1.126 . S
C1766 C443 2.161 . S
C1768 C891 2.119 . S
C1779 N1080 1.726 . S
C1777 C315 1.770 . S
C1788 C329 1.373 . S
C1790 N817 1.358 . S
C1801 N1103 1.691 . S
C1799 C344 1.697 . S
C1810 C363 1.258 . S
C1812 N873 1.220 . S
C1821 C386 1.564 . S
C1823 C1121 1.542 . S
C1832 C405 2.012 . S
C1834 C739 2.003 . S
C1845 N1139 1.134 . S
C1843 C420 1.196 . S
C1854 C448 1.729 . S
C1856 C776 1.829 . S
C1867 C877 1.890 . S
C1865 C306 1.890 . S
C1878 N735 1.316 . S
C1876 C382 1.344 . S
C1887 C410 1.722 . S
C1889 C1144 1.858 . S
C1898 C424 1.256 . S
C1900 N771 1.219 . S
C1911 N1116 1.791 . S
C1909 C439 1.817 . S
C1922 C822 1.866 . S
C1920 C353 1.744 . S
C1933 C1107 1.339 . S
C1931 C367 1.348 . S
C1944 C1084 1.329 . S
C1942 C325 1.264 . S
C1953 C462 2.139 . S
C1955 N666 2.039 . S
C1964 C486 1.286 . S
C1966 C693 1.272 . S
C1977 C615 1.960 . S
C1975 C500 1.975 . S
C1988 N633 1.045 . S
C1986 C524 1.124 . S
C1999 C638 1.391 . S
C1997 C543 1.480 . S
C2010 C670 1.988 . S
C2008 C553 2.015 . S
C2021 N689 1.177 . S
C2019 C581 1.044 . S
C2030 C595 2.095 . S
C2032 N610 2.091 . S
C2041 C467 1.651 . S
C2043 N1126 1.626 . S
C2054 N1034 1.308 . S
C2052 C481 1.341 . S
C2065 C1153 1.958 . S
C2063 C496 1.897 . S
C2076 C1061 0.994 . S
C2074 C515 0.989 . S
C2085 C538 1.708 . S
C2087 C1075 1.675 . S
C2098 C992 1.931 . S
C2096 C557 1.931 . S
C2109 C1098 1.221 . S
C2107 C572 1.210 . S
C2118 C600 1.678 . S
C2120 N1001 1.708 . S
C2131 N1057 1.704 . S
C2129 C458 1.725 . S
C2142 N988 1.234 . S
C2140 C534 1.233 . S
C2153 N1093 1.671 . S
C2151 C562 1.585 . S
C2162 C576 1.280 . S
C2164 C1006 1.279 . S
C2173 C591 1.828 . S
C2175 N1070 1.810 . S
C2184 C505 1.815 . S
C2186 C1038 1.969 . S
C2195 C519 1.501 . S
C2197 N1149 1.474 . S
C2208 C1130 1.315 . S
C2206 C477 1.255 . S
